# Generated by pormake.
# Topology eea, (3,6)-cn, num edge types: 1
# Building blocks:
#     Node 0, Type 0, BuildingBlock: BETDAH_clean_linker_0, # of connection points: 3
#     Node 1, Type 0, BuildingBlock: BETDAH_clean_linker_0, # of connection points: 3
#     Node 2, Type 0, BuildingBlock: BETDAH_clean_linker_0, # of connection points: 3
#     Node 3, Type 0, BuildingBlock: BETDAH_clean_linker_0, # of connection points: 3
#     Node 4, Type 0, BuildingBlock: BETDAH_clean_linker_0, # of connection points: 3
#     Node 5, Type 0, BuildingBlock: BETDAH_clean_linker_0, # of connection points: 3
#     Node 6, Type 0, BuildingBlock: BETDAH_clean_linker_0, # of connection points: 3
#     Node 7, Type 0, BuildingBlock: BETDAH_clean_linker_0, # of connection points: 3
#     Node 8, Type 0, BuildingBlock: BETDAH_clean_linker_0, # of connection points: 3
#     Node 9, Type 0, BuildingBlock: BETDAH_clean_linker_0, # of connection points: 3
#     Node 10, Type 0, BuildingBlock: BETDAH_clean_linker_0, # of connection points: 3
#     Node 11, Type 0, BuildingBlock: BETDAH_clean_linker_0, # of connection points: 3
#     Node 12, Type 0, BuildingBlock: BETDAH_clean_linker_0, # of connection points: 3
#     Node 13, Type 0, BuildingBlock: BETDAH_clean_linker_0, # of connection points: 3
#     Node 14, Type 0, BuildingBlock: BETDAH_clean_linker_0, # of connection points: 3
#     Node 15, Type 0, BuildingBlock: BETDAH_clean_linker_0, # of connection points: 3
#     Node 16, Type 0, BuildingBlock: BETDAH_clean_linker_0, # of connection points: 3
#     Node 17, Type 0, BuildingBlock: BETDAH_clean_linker_0, # of connection points: 3
#     Node 18, Type 1, BuildingBlock: KUMBUR_clean_sbu_0, # of connection points: 6
#     Node 19, Type 1, BuildingBlock: KUMBUR_clean_sbu_0, # of connection points: 6
#     Node 20, Type 1, BuildingBlock: KUMBUR_clean_sbu_0, # of connection points: 6
#     Node 21, Type 1, BuildingBlock: KUMBUR_clean_sbu_0, # of connection points: 6
#     Node 22, Type 1, BuildingBlock: KUMBUR_clean_sbu_0, # of connection points: 6
#     Node 23, Type 1, BuildingBlock: KUMBUR_clean_sbu_0, # of connection points: 6
#     Node 24, Type 1, BuildingBlock: KUMBUR_clean_sbu_0, # of connection points: 6
#     Node 25, Type 1, BuildingBlock: KUMBUR_clean_sbu_0, # of connection points: 6
#     Node 26, Type 1, BuildingBlock: KUMBUR_clean_sbu_0, # of connection points: 6
#     Edge 27, Type (0, 1), BuildingBlock: UVAHIK_clean_linker_0, # of connection points: 2
#     Edge 28, Type (0, 1), BuildingBlock: UVAHIK_clean_linker_0, # of connection points: 2
#     Edge 29, Type (0, 1), BuildingBlock: UVAHIK_clean_linker_0, # of connection points: 2
#     Edge 30, Type (0, 1), BuildingBlock: UVAHIK_clean_linker_0, # of connection points: 2
#     Edge 31, Type (0, 1), BuildingBlock: UVAHIK_clean_linker_0, # of connection points: 2
#     Edge 32, Type (0, 1), BuildingBlock: UVAHIK_clean_linker_0, # of connection points: 2
#     Edge 33, Type (0, 1), BuildingBlock: UVAHIK_clean_linker_0, # of connection points: 2
#     Edge 34, Type (0, 1), BuildingBlock: UVAHIK_clean_linker_0, # of connection points: 2
#     Edge 35, Type (0, 1), BuildingBlock: UVAHIK_clean_linker_0, # of connection points: 2
#     Edge 36, Type (0, 1), BuildingBlock: UVAHIK_clean_linker_0, # of connection points: 2
#     Edge 37, Type (0, 1), BuildingBlock: UVAHIK_clean_linker_0, # of connection points: 2
#     Edge 38, Type (0, 1), BuildingBlock: UVAHIK_clean_linker_0, # of connection points: 2
#     Edge 39, Type (0, 1), BuildingBlock: UVAHIK_clean_linker_0, # of connection points: 2
#     Edge 40, Type (0, 1), BuildingBlock: UVAHIK_clean_linker_0, # of connection points: 2
#     Edge 41, Type (0, 1), BuildingBlock: UVAHIK_clean_linker_0, # of connection points: 2
#     Edge 42, Type (0, 1), BuildingBlock: UVAHIK_clean_linker_0, # of connection points: 2
#     Edge 43, Type (0, 1), BuildingBlock: UVAHIK_clean_linker_0, # of connection points: 2
#     Edge 44, Type (0, 1), BuildingBlock: UVAHIK_clean_linker_0, # of connection points: 2
#     Edge 45, Type (0, 1), BuildingBlock: UVAHIK_clean_linker_0, # of connection points: 2
#     Edge 46, Type (0, 1), BuildingBlock: UVAHIK_clean_linker_0, # of connection points: 2
#     Edge 47, Type (0, 1), BuildingBlock: UVAHIK_clean_linker_0, # of connection points: 2
#     Edge 48, Type (0, 1), BuildingBlock: UVAHIK_clean_linker_0, # of connection points: 2
#     Edge 49, Type (0, 1), BuildingBlock: UVAHIK_clean_linker_0, # of connection points: 2
#     Edge 50, Type (0, 1), BuildingBlock: UVAHIK_clean_linker_0, # of connection points: 2
#     Edge 51, Type (0, 1), BuildingBlock: UVAHIK_clean_linker_0, # of connection points: 2
#     Edge 52, Type (0, 1), BuildingBlock: UVAHIK_clean_linker_0, # of connection points: 2
#     Edge 53, Type (0, 1), BuildingBlock: UVAHIK_clean_linker_0, # of connection points: 2
#     Edge 54, Type (0, 1), BuildingBlock: UVAHIK_clean_linker_0, # of connection points: 2
#     Edge 55, Type (0, 1), BuildingBlock: UVAHIK_clean_linker_0, # of connection points: 2
#     Edge 56, Type (0, 1), BuildingBlock: UVAHIK_clean_linker_0, # of connection points: 2
#     Edge 57, Type (0, 1), BuildingBlock: UVAHIK_clean_linker_0, # of connection points: 2
#     Edge 58, Type (0, 1), BuildingBlock: UVAHIK_clean_linker_0, # of connection points: 2
#     Edge 59, Type (0, 1), BuildingBlock: UVAHIK_clean_linker_0, # of connection points: 2
#     Edge 60, Type (0, 1), BuildingBlock: UVAHIK_clean_linker_0, # of connection points: 2
#     Edge 61, Type (0, 1), BuildingBlock: UVAHIK_clean_linker_0, # of connection points: 2
#     Edge 62, Type (0, 1), BuildingBlock: UVAHIK_clean_linker_0, # of connection points: 2
#     Edge 63, Type (0, 1), BuildingBlock: UVAHIK_clean_linker_0, # of connection points: 2
#     Edge 64, Type (0, 1), BuildingBlock: UVAHIK_clean_linker_0, # of connection points: 2
#     Edge 65, Type (0, 1), BuildingBlock: UVAHIK_clean_linker_0, # of connection points: 2
#     Edge 66, Type (0, 1), BuildingBlock: UVAHIK_clean_linker_0, # of connection points: 2
#     Edge 67, Type (0, 1), BuildingBlock: UVAHIK_clean_linker_0, # of connection points: 2
#     Edge 68, Type (0, 1), BuildingBlock: UVAHIK_clean_linker_0, # of connection points: 2
#     Edge 69, Type (0, 1), BuildingBlock: UVAHIK_clean_linker_0, # of connection points: 2
#     Edge 70, Type (0, 1), BuildingBlock: UVAHIK_clean_linker_0, # of connection points: 2
#     Edge 71, Type (0, 1), BuildingBlock: UVAHIK_clean_linker_0, # of connection points: 2
#     Edge 72, Type (0, 1), BuildingBlock: UVAHIK_clean_linker_0, # of connection points: 2
#     Edge 73, Type (0, 1), BuildingBlock: UVAHIK_clean_linker_0, # of connection points: 2
#     Edge 74, Type (0, 1), BuildingBlock: UVAHIK_clean_linker_0, # of connection points: 2
#     Edge 75, Type (0, 1), BuildingBlock: UVAHIK_clean_linker_0, # of connection points: 2
#     Edge 76, Type (0, 1), BuildingBlock: UVAHIK_clean_linker_0, # of connection points: 2
#     Edge 77, Type (0, 1), BuildingBlock: UVAHIK_clean_linker_0, # of connection points: 2
#     Edge 78, Type (0, 1), BuildingBlock: UVAHIK_clean_linker_0, # of connection points: 2
#     Edge 79, Type (0, 1), BuildingBlock: UVAHIK_clean_linker_0, # of connection points: 2
#     Edge 80, Type (0, 1), BuildingBlock: UVAHIK_clean_linker_0, # of connection points: 2
# Relax obj value: 0.022
# Max RMSD: 0.152
# Mean RMSD: 0.112
data_MOF--net-eea--node1-KUMBUR_clean_sbu_0--node2-BETDAH_clean_linker_0--edge1-UVAHIK_clean_linker_0
_symmetry_space_group_name_H-M    P1
_symmetry_Int_Tables_number       1
_symmetry_cell_setting            triclinic
loop_
_symmetry_equiv_pos_as_xyz
'x, y, z'
_cell_length_a     71.148056
_cell_length_b     72.458139
_cell_length_c     82.325098
_cell_angle_alpha  90.168295
_cell_angle_beta   90.247037
_cell_angle_gamma 119.89727
loop_
_atom_site_label
_atom_site_type_symbol
_atom_site_fract_x
_atom_site_fract_y
_atom_site_fract_z
_atom_type_partial_charge
H0 H 0.24979 0.08753 0.43096 0.0
H1 H 0.27901 0.15521 0.42509 0.0
H2 H 0.24373 0.11358 0.38546 0.0
C3 C 0.25269 0.10103 0.42357 0.0
C4 C 0.24506 0.09776 0.4074 0.0
C5 C 0.26465 0.12163 0.43019 0.0
C6 C 0.26913 0.13916 0.42041 0.0
C7 C 0.26143 0.13622 0.40441 0.0
C8 C 0.24927 0.11559 0.39795 0.0
N9 N 0.26803 0.15424 0.39442 0.0
C10 C 0.25357 0.16016 0.3884 0.0
H11 H 0.9302 0.16665 0.43395 0.0
H12 H 0.87939 0.10109 0.42892 0.0
H13 H 0.92966 0.12921 0.39326 0.0
C14 C 0.92265 0.15166 0.42737 0.0
C15 C 0.93223 0.14994 0.41301 0.0
C16 C 0.90363 0.13405 0.43338 0.0
C17 C 0.89391 0.11479 0.42443 0.0
C18 C 0.90334 0.11316 0.4099 0.0
C19 C 0.92246 0.13064 0.40444 0.0
N20 N 0.89446 0.09428 0.40039 0.0
C21 C 0.87548 0.07538 0.40353 0.0
H22 H 0.84981 0.77692 0.43821 0.0
H23 H 0.91265 0.78343 0.42975 0.0
H24 H 0.88218 0.80183 0.39293 0.0
C25 C 0.8637 0.78158 0.43044 0.0
C26 C 0.86387 0.78977 0.41498 0.0
C27 C 0.88122 0.77931 0.436 0.0
C28 C 0.89913 0.78517 0.42567 0.0
C29 C 0.89948 0.79346 0.41011 0.0
C30 C 0.88188 0.79568 0.40498 0.0
N31 N 0.91683 0.79953 0.39897 0.0
C32 C 0.93673 0.80069 0.40177 0.0
H33 H 0.07785 0.23265 0.59031 0.0
H34 H 0.13283 0.22367 0.59791 0.0
H35 H 0.08299 0.20309 0.63397 0.0
C36 C 0.08676 0.22736 0.59785 0.0
C37 C 0.07798 0.21772 0.61284 0.0
C38 C 0.10649 0.22955 0.59222 0.0
C39 C 0.11757 0.22191 0.60195 0.0
C40 C 0.10901 0.21235 0.61705 0.0
C41 C 0.08932 0.21029 0.62227 0.0
N42 N 0.11949 0.20464 0.62757 0.0
C43 C 0.13913 0.20517 0.62507 0.0
H44 H 0.7627 0.84487 0.59299 0.0
H45 H 0.76594 0.90419 0.60585 0.0
H46 H 0.7829 0.87125 0.64092 0.0
C47 C 0.76644 0.85754 0.60166 0.0
C48 C 0.77349 0.85615 0.61733 0.0
C49 C 0.76339 0.8747 0.59737 0.0
C50 C 0.76793 0.89075 0.60898 0.0
C51 C 0.77479 0.88931 0.62473 0.0
C52 C 0.77731 0.87199 0.6288 0.0
N53 N 0.77903 0.90471 0.63697 0.0
C54 C 0.78338 0.92532 0.6341 0.0
H55 H 0.15831 0.92337 0.59435 0.0
H56 H 0.10982 0.85795 0.60274 0.0
H57 H 0.13061 0.90337 0.64177 0.0
C58 C 0.14689 0.9111 0.60236 0.0
C59 C 0.14581 0.91617 0.61868 0.0
C60 C 0.13418 0.89014 0.59643 0.0
C61 C 0.11932 0.87428 0.60693 0.0
C62 C 0.11816 0.8792 0.6233 0.0
C63 C 0.13149 0.89996 0.62906 0.0
N64 N 0.10612 0.8631 0.63477 0.0
C65 C 0.084 0.84889 0.63359 0.0
H66 H 0.9183 0.41878 0.77007 0.0
H67 H 0.92967 0.48222 0.76173 0.0
H68 H 0.90388 0.43568 0.72349 0.0
C69 C 0.91756 0.43032 0.76215 0.0
C70 C 0.90987 0.42442 0.74616 0.0
C71 C 0.92488 0.45113 0.76793 0.0
C72 C 0.92374 0.46602 0.75761 0.0
C73 C 0.91635 0.46032 0.74153 0.0
C74 C 0.90964 0.43974 0.73591 0.0
N75 N 0.91712 0.47537 0.73025 0.0
C76 C 0.90987 0.48954 0.73352 0.0
H77 H 0.59797 0.49783 0.76553 0.0
H78 H 0.54648 0.43294 0.75938 0.0
H79 H 0.59765 0.46091 0.72443 0.0
C80 C 0.59043 0.48308 0.75864 0.0
C81 C 0.60014 0.48171 0.74419 0.0
C82 C 0.5711 0.46557 0.76431 0.0
C83 C 0.56145 0.44644 0.75526 0.0
C84 C 0.57105 0.44493 0.74077 0.0
C85 C 0.59026 0.46248 0.73544 0.0
N86 N 0.5621 0.42615 0.73111 0.0
C87 C 0.54297 0.40733 0.73416 0.0
H88 H 0.51353 0.10449 0.76873 0.0
H89 H 0.57814 0.11504 0.76131 0.0
H90 H 0.55033 0.13993 0.72742 0.0
C91 C 0.52814 0.11088 0.76152 0.0
C92 C 0.52962 0.12236 0.74739 0.0
C93 C 0.54546 0.10807 0.76671 0.0
C94 C 0.56475 0.11718 0.75754 0.0
C95 C 0.56646 0.12873 0.74332 0.0
C96 C 0.54893 0.13124 0.73847 0.0
N97 N 0.58524 0.13806 0.73336 0.0
C98 C 0.60412 0.13692 0.73529 0.0
H99 H 0.74795 0.56711 0.92542 0.0
H100 H 0.80311 0.55877 0.93433 0.0
H101 H 0.75264 0.53862 0.96982 0.0
C102 C 0.75662 0.56169 0.9331 0.0
C103 C 0.74768 0.55239 0.94815 0.0
C104 C 0.77657 0.56404 0.92787 0.0
C105 C 0.78783 0.55717 0.93816 0.0
C106 C 0.77909 0.54793 0.95331 0.0
C107 C 0.75912 0.54558 0.95809 0.0
N108 N 0.78963 0.54078 0.96427 0.0
C109 C 0.80918 0.54108 0.96198 0.0
H110 H 0.43011 0.17666 0.92581 0.0
H111 H 0.45052 0.24346 0.92836 0.0
H112 H 0.47721 0.21709 0.96154 0.0
C113 C 0.43998 0.19219 0.93135 0.0
C114 C 0.45352 0.19447 0.94461 0.0
C115 C 0.43895 0.2098 0.92523 0.0
C116 C 0.45096 0.22972 0.93302 0.0
C117 C 0.46457 0.23213 0.94624 0.0
C118 C 0.46605 0.21469 0.95169 0.0
N119 N 0.47775 0.25201 0.95402 0.0
C120 C 0.47358 0.26878 0.95398 0.0
H121 H 0.8281 0.25687 0.92609 0.0
H122 H 0.76506 0.20104 0.93168 0.0
H123 H 0.78965 0.25053 0.96795 0.0
C124 C 0.81335 0.24777 0.93297 0.0
C125 C 0.81097 0.256 0.94776 0.0
C126 C 0.79701 0.22786 0.92706 0.0
C127 C 0.77774 0.21636 0.93605 0.0
C128 C 0.77524 0.22465 0.95089 0.0
C129 C 0.79185 0.24427 0.95658 0.0
N130 N 0.75649 0.21401 0.96071 0.0
C131 C 0.73809 0.1945 0.95756 0.0
H132 H 0.58566 0.75118 0.09957 0.0
H133 H 0.60114 0.8159 0.09118 0.0
H134 H 0.57454 0.76999 0.05258 0.0
C135 C 0.58597 0.76318 0.09158 0.0
C136 C 0.57872 0.75775 0.07544 0.0
C137 C 0.59419 0.7841 0.09743 0.0
C138 C 0.59449 0.79961 0.08702 0.0
C139 C 0.58757 0.79439 0.07082 0.0
C140 C 0.5799 0.77366 0.06511 0.0
N141 N 0.58983 0.81013 0.05964 0.0
C142 C 0.58055 0.82279 0.06203 0.0
H143 H 0.2666 0.83284 0.10138 0.0
H144 H 0.21216 0.76966 0.09378 0.0
H145 H 0.26222 0.79775 0.058 0.0
C146 C 0.25806 0.81851 0.09406 0.0
C147 C 0.267 0.81721 0.07921 0.0
C148 C 0.23823 0.80142 0.09951 0.0
C149 C 0.22729 0.78299 0.08971 0.0
C150 C 0.23604 0.78177 0.07472 0.0
C151 C 0.25573 0.79883 0.06964 0.0
N152 N 0.22563 0.76382 0.06423 0.0
C153 C 0.2073 0.74459 0.06789 0.0
H154 H 0.18401 0.43999 0.10545 0.0
H155 H 0.24527 0.44398 0.09496 0.0
H156 H 0.21529 0.46514 0.0598 0.0
C157 C 0.1975 0.44433 0.09731 0.0
C158 C 0.19753 0.45305 0.08208 0.0
C159 C 0.21464 0.44103 0.10212 0.0
C160 C 0.23209 0.44655 0.09141 0.0
C161 C 0.23238 0.45549 0.07615 0.0
C162 C 0.2151 0.4586 0.07167 0.0
N163 N 0.24929 0.46127 0.06467 0.0
C164 C 0.26913 0.46216 0.0671 0.0
H165 H 0.41257 0.89991 0.25816 0.0
H166 H 0.46676 0.88992 0.26662 0.0
H167 H 0.41774 0.87255 0.30301 0.0
C168 C 0.42117 0.89443 0.26586 0.0
C169 C 0.41259 0.88588 0.28116 0.0
C170 C 0.44066 0.89592 0.26037 0.0
C171 C 0.45184 0.88897 0.27065 0.0
C172 C 0.44347 0.88047 0.28605 0.0
C173 C 0.42394 0.87895 0.29109 0.0
N174 N 0.45398 0.87327 0.297 0.0
C175 C 0.47308 0.87278 0.29441 0.0
H176 H 0.09476 0.51216 0.26547 0.0
H177 H 0.10133 0.57356 0.27545 0.0
H178 H 0.11772 0.54195 0.31214 0.0
C179 C 0.09941 0.52558 0.27357 0.0
C180 C 0.10678 0.52498 0.28932 0.0
C181 C 0.09729 0.54298 0.26839 0.0
C182 C 0.10275 0.56001 0.27927 0.0
C183 C 0.10995 0.55944 0.29511 0.0
C184 C 0.11178 0.54195 0.3 0.0
N185 N 0.11529 0.57592 0.30665 0.0
C186 C 0.1195 0.59635 0.30311 0.0
H187 H 0.49718 0.58664 0.25937 0.0
H188 H 0.43719 0.52794 0.26657 0.0
H189 H 0.46107 0.57669 0.30332 0.0
C190 C 0.48319 0.57674 0.26678 0.0
C191 C 0.48116 0.5843 0.28201 0.0
C192 C 0.46752 0.55643 0.26104 0.0
C193 C 0.44924 0.54369 0.27071 0.0
C194 C 0.44721 0.55107 0.28609 0.0
C195 C 0.46311 0.57119 0.29155 0.0
N196 N 0.43004 0.53867 0.29692 0.0
C197 C 0.4103 0.52084 0.29301 0.0
Tb198 Tb 0.49348 0.98727 0.9935 0.0
C199 C 0.54213 0.06319 0.04075 0.0
C200 C 0.57965 0.07275 0.03777 0.0
C201 C 0.57054 0.09979 0.04533 0.0
C202 C 0.55737 0.05753 0.03705 0.0
C203 C 0.54846 0.08422 0.04545 0.0
C204 C 0.58614 0.09406 0.04144 0.0
C205 C 0.511 0.07229 0.05168 0.0
N206 N 0.52107 0.04761 0.04088 0.0
C207 C 0.50556 0.05167 0.04684 0.0
C208 C 0.5325 0.08873 0.05072 0.0
Tb209 Tb 0.51346 0.01435 0.0325 0.0
N210 N 0.55036 0.03672 0.03389 0.0
C211 C 0.56502 0.02979 0.03275 0.0
C212 C 0.59468 0.06593 0.0354 0.0
C213 C 0.58732 0.04428 0.03319 0.0
H214 H 0.48886 0.03916 0.04754 0.0
H215 H 0.5988 0.03872 0.03175 0.0
H216 H 0.60317 0.10606 0.04186 0.0
H217 H 0.49859 0.0755 0.05608 0.0
H218 H 0.55974 0.01317 0.03092 0.0
H219 H 0.40888 0.96579 0.99179 0.0
H220 H 0.61195 0.07711 0.03578 0.0
H221 H 0.51734 0.96018 0.98187 0.0
H222 H 0.4481 0.99034 0.99348 0.0
H223 H 0.50664 0.92297 0.9752 0.0
H224 H 0.57576 0.11612 0.04871 0.0
H225 H 0.39464 0.92713 0.98831 0.0
H226 H 0.40228 0.89712 0.98386 0.0
H227 H 0.53669 0.10468 0.05449 0.0
H228 H 0.42894 0.8854 0.97931 0.0
N229 N 0.4565 0.96596 0.99144 0.0
C230 C 0.44236 0.97359 0.99191 0.0
C231 C 0.41198 0.93787 0.98905 0.0
C232 C 0.42652 0.93028 0.9876 0.0
C233 C 0.41997 0.95967 0.99097 0.0
C234 C 0.44893 0.94494 0.98874 0.0
H235 H 0.46795 0.895 0.9758 0.0
N236 N 0.48509 0.9533 0.98666 0.0
C237 C 0.49441 0.92706 0.97838 0.0
C238 C 0.46378 0.93834 0.98628 0.0
C239 C 0.50041 0.94815 0.98212 0.0
C240 C 0.47257 0.91131 0.97877 0.0
C241 C 0.45689 0.91692 0.98249 0.0
O242 O 0.50989 0.99325 0.97119 0.0
O243 O 0.51963 0.01265 0.00705 0.0
O244 O 0.50977 0.03671 0.01681 0.0
O245 O 0.48615 0.01324 0.99694 0.0
O246 O 0.52781 0.99731 0.99018 0.0
O247 O 0.48258 0.99803 0.9738 0.0
O248 O 0.49749 0.00671 0.05509 0.0
O249 O 0.4872 0.98952 0.01873 0.0
O250 O 0.49563 0.96492 0.01012 0.0
O251 O 0.52154 0.98902 0.02831 0.0
O252 O 0.47912 0.00415 0.03619 0.0
O253 O 0.5252 0.00294 0.05119 0.0
C254 C 0.53563 0.01276 1.00046 0.0
C255 C 0.4891 0.98893 0.94762 0.0
C256 C 0.48956 0.99284 0.91801 0.0
C257 C 0.49669 0.00176 0.93366 0.0
C258 C 0.47487 0.97082 0.91669 0.0
C259 C 0.47431 0.96714 0.94592 0.0
C260 C 0.4673 0.95815 0.93053 0.0
C261 C 0.49613 0.03209 0.00438 0.0
C262 C 0.49695 0.99841 0.96385 0.0
C263 C 0.4346 0.902 0.98204 0.0
C264 C 0.41943 0.90867 0.98462 0.0
C265 C 0.47122 0.98934 0.02539 0.0
C266 C 0.5192 0.01045 0.078 0.0
C267 C 0.51131 0.9972 0.09172 0.0
C268 C 0.51917 0.00533 0.10745 0.0
C269 C 0.5349 0.02701 0.10912 0.0
C270 C 0.53496 0.03192 0.08004 0.0
C271 C 0.54271 0.04012 0.09552 0.0
C272 C 0.51029 0.96972 0.02176 0.0
C273 C 0.51095 0.00166 0.06167 0.0
H274 H 0.50791 0.01867 0.93504 0.0
H275 H 0.46938 0.96323 0.90493 0.0
H276 H 0.46823 0.95705 0.95644 0.0
H277 H 0.456 0.94126 0.92932 0.0
H278 H 0.49932 0.98054 0.09009 0.0
H279 H 0.54103 0.03396 0.12099 0.0
H280 H 0.5413 0.04232 0.06968 0.0
H281 H 0.5548 0.05676 0.097 0.0
Tb282 Tb 0.01989 0.50234 1.00175 0.0
C283 C 0.93846 0.47321 0.04335 0.0
C284 C 0.92828 0.50017 0.03982 0.0
C285 C 0.9006 0.46363 0.04529 0.0
C286 C 0.94417 0.49396 0.04012 0.0
C287 C 0.91669 0.45783 0.04631 0.0
C288 C 0.90639 0.48479 0.04204 0.0
C289 C 0.92868 0.43272 0.05235 0.0
N290 N 0.95454 0.46839 0.04436 0.0
C291 C 0.95006 0.44861 0.0494 0.0
C292 C 0.91187 0.43727 0.05061 0.0
Tb293 Tb 0.98896 0.49516 0.03859 0.0
N294 N 0.96549 0.50828 0.03818 0.0
C295 C 0.97216 0.52951 0.03712 0.0
C296 C 0.93495 0.52172 0.03777 0.0
C297 C 0.95703 0.53649 0.03668 0.0
H298 H 0.96288 0.44485 0.05066 0.0
H299 H 0.96242 0.55326 0.03539 0.0
H300 H 0.89391 0.4892 0.04168 0.0
H301 H 0.92518 0.41697 0.05595 0.0
H302 H 0.98911 0.5412 0.03613 0.0
H303 H 0.0452 0.44324 0.00432 0.0
H304 H 0.92327 0.52716 0.0374 0.0
H305 H 0.04677 0.55288 0.99039 0.0
H306 H 0.01896 0.45583 0.00378 0.0
H307 H 0.08473 0.58053 0.98556 0.0
H308 H 0.88373 0.45201 0.04737 0.0
H309 H 0.08448 0.46895 1.00256 0.0
H310 H 0.11429 0.50684 0.99888 0.0
H311 H 0.89534 0.42496 0.05297 0.0
H312 H 0.12511 0.54431 0.99375 0.0
N313 N 0.04293 0.48869 1.00205 0.0
C314 C 0.03595 0.46737 1.0029 0.0
C315 C 0.07299 0.47463 1.00227 0.0
C316 C 0.08 0.49629 1.00052 0.0
C317 C 0.05084 0.46008 0.00323 0.0
C318 C 0.06435 0.50283 1.00032 0.0
H319 H 0.11414 0.57192 0.98852 0.0
N320 N 0.05459 0.52892 0.99647 0.0
C321 C 0.08094 0.56463 0.98896 0.0
C322 C 0.07042 0.52375 0.99742 0.0
C323 C 0.05942 0.54888 0.99165 0.0
C324 C 0.0975 0.55973 0.99068 0.0
C325 C 0.09231 0.53897 0.9947 0.0
O326 O 0.01593 0.51157 0.97834 0.0
O327 O 0.99278 0.50261 0.01311 0.0
O328 O 0.96799 0.47003 0.02152 0.0
O329 O 0.99407 0.46888 0.00509 0.0
O330 O 0.00873 0.52498 0.99589 0.0
O331 O 0.01058 0.48 0.9827 0.0
O332 O 0.99353 0.4868 0.06214 0.0
O333 O 0.01585 0.49465 0.02714 0.0
O334 O 0.04079 0.52704 0.01907 0.0
O335 O 0.01461 0.52865 0.035 0.0
O336 O 1.00031 0.47272 0.04467 0.0
O337 O 0.99859 0.51813 0.05718 0.0
C338 C 0.99252 0.51759 0.00558 0.0
C339 C 0.02299 0.49465 0.95671 0.0
C340 C 0.02281 0.49243 0.92709 0.0
C341 C 0.0122 0.49138 0.94175 0.0
C342 C 0.04449 0.497 0.92767 0.0
C343 C 0.04455 0.49908 0.95701 0.0
C344 C 0.05523 0.5003 0.94255 0.0
C345 C 0.97398 0.46038 0.01074 0.0
C346 C 0.0115 0.49345 0.97182 0.0
C347 C 0.10815 0.53282 0.99564 0.0
C348 C 0.102 0.51149 0.99856 0.0
C349 C 0.01629 0.47985 0.03479 0.0
C350 C 0.98756 0.50473 0.08365 0.0
C351 C 0.99966 0.51019 0.09815 0.0
C352 C 0.9899 0.5096 0.11315 0.0
C353 C 0.96776 0.50352 0.1133 0.0
C354 C 0.96557 0.49878 0.08408 0.0
C355 C 0.95575 0.49821 0.09885 0.0
C356 C 0.03481 0.53688 0.02968 0.0
C357 C 0.99821 0.50519 0.06828 0.0
H358 H 0.99543 0.48768 0.94158 0.0
H359 H 0.05322 0.49821 0.91662 0.0
H360 H 0.05311 0.50158 0.96836 0.0
H361 H 0.07191 0.5038 0.94287 0.0
H362 H 0.01673 0.51506 0.09768 0.0
H363 H 0.95959 0.50252 0.12461 0.0
H364 H 0.95601 0.49456 0.07306 0.0
H365 H 0.93873 0.4935 0.09913 0.0
Tb366 Tb 0.51986 0.50542 0.02893 0.0
C367 C 0.46843 0.53162 0.98356 0.0
C368 C 0.43123 0.50433 0.98773 0.0
C369 C 0.43958 0.54006 0.98033 0.0
C370 C 0.45356 0.5111 0.98767 0.0
C371 C 0.46166 0.54624 0.97933 0.0
C372 C 0.42437 0.51911 0.98456 0.0
C373 C 0.49854 0.57088 0.97158 0.0
N374 N 0.48945 0.53672 0.9825 0.0
C375 C 0.50436 0.5557 0.97583 0.0
C376 C 0.47715 0.56627 0.97361 0.0
Tb377 Tb 0.49797 0.51146 0.99054 0.0
N378 N 0.46094 0.49736 0.99038 0.0
C379 C 0.44648 0.47605 0.99178 0.0
C380 C 0.41648 0.4828 0.99035 0.0
C381 C 0.42414 0.46853 0.99205 0.0
H382 H 0.52095 0.55945 0.97427 0.0
H383 H 0.41286 0.45173 0.99368 0.0
H384 H 0.4073 0.5143 0.98477 0.0
H385 H 0.51055 0.58611 0.96676 0.0
H386 H 0.45195 0.46471 0.99324 0.0
H387 H 0.6043 0.56715 0.02765 0.0
H388 H 0.39919 0.47694 0.99056 0.0
H389 H 0.49707 0.4556 0.04168 0.0
H390 H 0.56498 0.55303 0.02722 0.0
H391 H 0.50844 0.42935 0.04824 0.0
H392 H 0.43405 0.55113 0.97733 0.0
H393 H 0.61898 0.54276 0.03072 0.0
H394 H 0.61188 0.50554 0.03549 0.0
H395 H 0.47264 0.57799 0.97022 0.0
H396 H 0.58573 0.4679 0.04114 0.0
N397 N 0.55694 0.52059 0.02966 0.0
C398 C 0.57092 0.54205 0.02866 0.0
C399 C 0.6016 0.5364 0.03058 0.0
C400 C 0.58728 0.51462 0.03255 0.0
C401 C 0.59337 0.55021 0.02888 0.0
C402 C 0.56481 0.50719 0.03215 0.0
H403 H 0.54708 0.43939 0.04623 0.0
N404 N 0.52889 0.48011 0.03559 0.0
C405 C 0.52036 0.44525 0.04451 0.0
C406 C 0.55022 0.48614 0.03522 0.0
C407 C 0.51399 0.46019 0.04083 0.0
C408 C 0.54218 0.45096 0.04331 0.0
C409 C 0.55749 0.47174 0.03889 0.0
O410 O 0.50496 0.49576 0.05178 0.0
O411 O 0.49296 0.50495 0.01625 0.0
O412 O 0.50328 0.53858 0.00551 0.0
O413 O 0.52665 0.53838 0.02568 0.0
O414 O 0.48572 0.48204 0.03328 0.0
O415 O 0.53188 0.52738 0.04833 0.0
O416 O 0.51246 0.51894 0.96742 0.0
O417 O 0.52495 0.51261 0.00346 0.0
O418 O 0.51681 0.48031 0.01256 0.0
O419 O 0.49008 0.47834 0.99501 0.0
O420 O 0.53222 0.53437 0.98562 0.0
O421 O 0.48526 0.488 0.97222 0.0
C422 C 0.47733 0.48959 0.02334 0.0
C423 C 0.52752 0.51235 0.07445 0.0
C424 C 0.5278 0.51443 0.10414 0.0
C425 C 0.51935 0.51585 0.08896 0.0
C426 C 0.54436 0.50916 0.1045 0.0
C427 C 0.54418 0.50739 0.07515 0.0
C428 C 0.55248 0.50572 0.0901 0.0
C429 C 0.51709 0.54746 0.01778 0.0
C430 C 0.51837 0.51378 0.05874 0.0
C431 C 0.5798 0.47876 0.03853 0.0
C432 C 0.59468 0.50019 0.03534 0.0
C433 C 0.54067 0.52761 0.99619 0.0
C434 C 0.48914 0.50079 0.94541 0.0
C435 C 0.4972 0.49643 0.93123 0.0
C436 C 0.48831 0.49643 0.91589 0.0
C437 C 0.47128 0.50101 0.91503 0.0
C438 C 0.47213 0.50523 0.94426 0.0
C439 C 0.4633 0.50536 0.92913 0.0
C440 C 0.5016 0.47029 1.00137 0.0
C441 C 0.49862 0.50052 0.96126 0.0
H442 H 0.50669 0.52002 0.08837 0.0
H443 H 0.55097 0.50752 0.11593 0.0
H444 H 0.5508 0.50481 0.06419 0.0
H445 H 0.56526 0.50175 0.09054 0.0
H446 H 0.51017 0.49274 0.9322 0.0
H447 H 0.46429 0.5015 0.90344 0.0
H448 H 0.46565 0.50851 0.95502 0.0
H449 H 0.45022 0.50889 0.92832 0.0
Tb450 Tb 0.1569 0.32215 0.32121 0.0
C451 C 0.20938 0.38991 0.36964 0.0
C452 C 0.24511 0.39478 0.36516 0.0
C453 C 0.24117 0.42471 0.37398 0.0
C454 C 0.22236 0.38178 0.36504 0.0
C455 C 0.21859 0.41127 0.37475 0.0
C456 C 0.25444 0.41647 0.36918 0.0
C457 C 0.18293 0.40351 0.38322 0.0
N458 N 0.18778 0.37626 0.37053 0.0
C459 C 0.17469 0.38238 0.3782 0.0
C460 C 0.20494 0.41815 0.3812 0.0
Tb461 Tb 0.17553 0.34203 0.36167 0.0
N462 N 0.21267 0.36079 0.36129 0.0
C463 C 0.22495 0.35142 0.3585 0.0
C464 C 0.25775 0.38544 0.36169 0.0
C465 C 0.24762 0.36358 0.35863 0.0
H466 H 0.15768 0.37105 0.37989 0.0
H467 H 0.25723 0.35612 0.35617 0.0
H468 H 0.27187 0.42681 0.3691 0.0
H469 H 0.17235 0.40844 0.38872 0.0
H470 H 0.21742 0.33462 0.35596 0.0
H471 H 0.11882 0.35202 0.28035 0.0
H472 H 0.27529 0.39486 0.36166 0.0
H473 H 0.13842 0.2726 0.33445 0.0
H474 H 0.14952 0.35119 0.29385 0.0
H475 H 0.10348 0.23959 0.3367 0.0
H476 H 0.24858 0.44127 0.37764 0.0
H477 H 0.0812 0.32351 0.28572 0.0
H478 H 0.05628 0.28796 0.29842 0.0
H479 H 0.21136 0.43444 0.38526 0.0
H480 H 0.05218 0.25687 0.31353 0.0
N481 N 0.12937 0.32385 0.30795 0.0
C482 C 0.13311 0.33906 0.29658 0.0
C483 C 0.09459 0.32336 0.2919 0.0
C484 C 0.09108 0.30652 0.30209 0.0
C485 C 0.11579 0.33946 0.28883 0.0
C486 C 0.10911 0.30712 0.3098 0.0
H487 H 0.06981 0.23838 0.32731 0.0
N488 N 0.12506 0.29049 0.32403 0.0
C489 C 0.10417 0.25362 0.33151 0.0
C490 C 0.10688 0.28969 0.31805 0.0
C491 C 0.12406 0.27253 0.33025 0.0
C492 C 0.0852 0.253 0.32624 0.0
C493 C 0.08643 0.27108 0.31915 0.0
O494 O 0.1563 0.29905 0.30526 0.0
O495 O 0.18487 0.34137 0.33674 0.0
O496 O 0.16863 0.36495 0.3492 0.0
O497 O 0.1468 0.34559 0.32689 0.0
O498 O 0.18201 0.354 0.31487 0.0
O499 O 0.17279 0.33194 0.29867 0.0
O500 O 0.1596 0.33465 0.38434 0.0
O501 O 0.14965 0.3177 0.34691 0.0
O502 O 0.17284 0.30506 0.33056 0.0
O503 O 0.17761 0.31318 0.35822 0.0
O504 O 0.14172 0.3331 0.36441 0.0
O505 O 0.18746 0.33133 0.38075 0.0
C506 C 0.19393 0.35753 0.32755 0.0
C507 C 0.15434 0.30737 0.27749 0.0
C508 C 0.15256 0.31714 0.24918 0.0
C509 C 0.16336 0.32162 0.26436 0.0
C510 C 0.13278 0.29796 0.24733 0.0
C511 C 0.13445 0.28849 0.27525 0.0
C512 C 0.12385 0.28384 0.26025 0.0
C513 C 0.15534 0.36226 0.33689 0.0
C514 C 0.16547 0.31261 0.29354 0.0
C515 C 0.06808 0.2709 0.31259 0.0
C516 C 0.07041 0.28862 0.30404 0.0
C517 C 0.13392 0.31845 0.35346 0.0
C518 C 0.18126 0.33891 0.40748 0.0
C519 C 0.17305 0.32592 0.42133 0.0
C520 C 0.18117 0.33415 0.437 0.0
C521 C 0.19733 0.35571 0.4385 0.0
C522 C 0.19755 0.36022 0.40938 0.0
C523 C 0.2054 0.36856 0.4248 0.0
C524 C 0.17779 0.30212 0.34548 0.0
C525 C 0.17314 0.32993 0.39113 0.0
H526 H 0.1785 0.33638 0.26609 0.0
H527 H 0.12422 0.2937 0.2358 0.0
H528 H 0.12697 0.27729 0.28507 0.0
H529 H 0.10858 0.26921 0.25863 0.0
H530 H 0.16071 0.30934 0.41986 0.0
H531 H 0.20365 0.36273 0.45032 0.0
H532 H 0.20432 0.37038 0.39897 0.0
H533 H 0.21789 0.38507 0.42615 0.0
Tb534 Tb 0.68487 0.83467 0.33194 0.0
C535 C 0.60418 0.80889 0.37391 0.0
C536 C 0.5948 0.83602 0.36834 0.0
C537 C 0.56661 0.80039 0.37564 0.0
C538 C 0.61029 0.82932 0.36938 0.0
C539 C 0.5824 0.79432 0.37765 0.0
C540 C 0.57282 0.82125 0.37096 0.0
C541 C 0.59402 0.77006 0.38708 0.0
N542 N 0.62001 0.80391 0.37599 0.0
C543 C 0.61542 0.78518 0.38328 0.0
C544 C 0.57736 0.77448 0.38397 0.0
Tb545 Tb 0.65453 0.82913 0.36886 0.0
N546 N 0.63171 0.84305 0.36723 0.0
C547 C 0.63891 0.86432 0.36542 0.0
C548 C 0.602 0.8575 0.36536 0.0
C549 C 0.6242 0.87178 0.36421 0.0
H550 H 0.62816 0.78156 0.38566 0.0
H551 H 0.63001 0.88853 0.36229 0.0
H552 H 0.56062 0.82599 0.36998 0.0
H553 H 0.59041 0.75501 0.39239 0.0
H554 H 0.65594 0.87567 0.36437 0.0
H555 H 0.70739 0.77361 0.33594 0.0
H556 H 0.59064 0.8633 0.36441 0.0
H557 H 0.71314 0.88484 0.31998 0.0
H558 H 0.68209 0.78735 0.33484 0.0
H559 H 0.75151 0.91154 0.31518 0.0
H560 H 0.54972 0.78935 0.37823 0.0
H561 H 0.7469 0.79833 0.33426 0.0
H562 H 0.7776 0.83574 0.33032 0.0
H563 H 0.56083 0.76282 0.38702 0.0
H564 H 0.78968 0.87339 0.32469 0.0
N565 N 0.70688 0.81989 0.33285 0.0
C566 C 0.69921 0.79847 0.33399 0.0
C567 C 0.73584 0.80452 0.33372 0.0
C568 C 0.74354 0.82628 0.33168 0.0
C569 C 0.71355 0.79053 0.33463 0.0
C570 C 0.72845 0.83349 0.33116 0.0
H571 H 0.78002 0.90178 0.31878 0.0
N572 N 0.71992 0.86038 0.32671 0.0
C573 C 0.74716 0.89557 0.31885 0.0
C574 C 0.73523 0.85453 0.32799 0.0
C575 C 0.72544 0.88039 0.32152 0.0
C576 C 0.76321 0.89002 0.32093 0.0
C577 C 0.7573 0.86917 0.32528 0.0
O578 O 0.68188 0.84419 0.30839 0.0
O579 O 0.65766 0.83511 0.34305 0.0
O580 O 0.63337 0.80144 0.35376 0.0
O581 O 0.6582 0.80164 0.33488 0.0
O582 O 0.67414 0.8575 0.32585 0.0
O583 O 0.67568 0.81234 0.31294 0.0
O584 O 0.66035 0.82231 0.39259 0.0
O585 O 0.68094 0.82773 0.35743 0.0
O586 O 0.70622 0.8595 0.34894 0.0
O587 O 0.68055 0.86231 0.36455 0.0
O588 O 0.6656 0.80666 0.37554 0.0
O589 O 0.66443 0.853 0.38677 0.0
C590 C 0.65763 0.85003 0.33525 0.0
C591 C 0.68896 0.82682 0.28706 0.0
C592 C 0.68932 0.82433 0.25748 0.0
C593 C 0.67856 0.82377 0.27195 0.0
C594 C 0.71075 0.82822 0.2584 0.0
C595 C 0.71026 0.83056 0.28769 0.0
C596 C 0.72111 0.83131 0.27342 0.0
C597 C 0.63895 0.79248 0.34205 0.0
C598 C 0.67723 0.82595 0.30196 0.0
C599 C 0.77259 0.86235 0.32656 0.0
C600 C 0.76572 0.84092 0.32975 0.0
C601 C 0.68128 0.8131 0.36542 0.0
C602 C 0.65391 0.84063 0.41349 0.0
C603 C 0.66578 0.84587 0.42807 0.0
C604 C 0.65591 0.84553 0.44296 0.0
C605 C 0.63387 0.83985 0.44292 0.0
C606 C 0.63204 0.83518 0.41371 0.0
C607 C 0.6221 0.83478 0.42838 0.0
C608 C 0.70068 0.86994 0.35928 0.0
C609 C 0.66463 0.84079 0.39824 0.0
H610 H 0.66197 0.82057 0.27151 0.0
H611 H 0.71958 0.82903 0.24748 0.0
H612 H 0.71849 0.8328 0.29915 0.0
H613 H 0.73759 0.83427 0.274 0.0
H614 H 0.68278 0.85043 0.42775 0.0
H615 H 0.62562 0.83903 0.45414 0.0
H616 H 0.62268 0.83124 0.40261 0.0
H617 H 0.60517 0.83043 0.42849 0.0
Tb618 Tb 0.18816 0.84621 0.36295 0.0
C619 C 0.13553 0.87026 0.31714 0.0
C620 C 0.09847 0.84308 0.32198 0.0
C621 C 0.10653 0.87847 0.31378 0.0
C622 C 0.12081 0.8499 0.32173 0.0
C623 C 0.12859 0.88466 0.31259 0.0
C624 C 0.09146 0.85767 0.3185 0.0
C625 C 0.16525 0.90904 0.30419 0.0
N626 N 0.15655 0.87538 0.31591 0.0
C627 C 0.17124 0.89409 0.30876 0.0
C628 C 0.1439 0.90446 0.30638 0.0
Tb629 Tb 0.16534 0.8505 0.32448 0.0
N630 N 0.1283 0.83632 0.32471 0.0
C631 C 0.11393 0.81506 0.32657 0.0
C632 C 0.08384 0.82164 0.32507 0.0
C633 C 0.0916 0.80749 0.32705 0.0
H634 H 0.18781 0.89782 0.30708 0.0
H635 H 0.0804 0.79076 0.32905 0.0
H636 H 0.0744 0.85283 0.31885 0.0
H637 H 0.17711 0.92408 0.299 0.0
H638 H 0.11951 0.80383 0.32827 0.0
H639 H 0.272 0.90917 0.36015 0.0
H640 H 0.06654 0.81575 0.32544 0.0
H641 H 0.16666 0.79679 0.37641 0.0
H642 H 0.23256 0.89426 0.36014 0.0
H643 H 0.17898 0.77129 0.3831 0.0
H644 H 0.10087 0.88937 0.31055 0.0
H645 H 0.28756 0.88557 0.36357 0.0
H646 H 0.28145 0.84881 0.36893 0.0
H647 H 0.13925 0.916 0.30274 0.0
H648 H 0.25609 0.81117 0.37519 0.0
N649 N 0.22532 0.86214 0.36324 0.0
C650 C 0.23888 0.88362 0.36177 0.0
C651 C 0.27013 0.87887 0.36364 0.0
C652 C 0.25625 0.85709 0.36605 0.0
C653 C 0.2614 0.89223 0.36174 0.0
C654 C 0.23369 0.84919 0.36592 0.0
H655 H 0.21782 0.78216 0.38076 0.0
N656 N 0.19811 0.82165 0.36993 0.0
C657 C 0.19056 0.78722 0.37917 0.0
C658 C 0.21955 0.82814 0.36937 0.0
C659 C 0.18365 0.80173 0.37544 0.0
C660 C 0.21248 0.79339 0.3778 0.0
C661 C 0.22736 0.8142 0.37312 0.0
O662 O 0.17389 0.83679 0.38602 0.0
O663 O 0.16083 0.84493 0.35033 0.0
O664 O 0.17067 0.87817 0.33875 0.0
O665 O 0.19417 0.87889 0.35921 0.0
O666 O 0.15424 0.82263 0.36778 0.0
O667 O 0.20003 0.86871 0.38197 0.0
O668 O 0.17949 0.85705 0.30125 0.0
O669 O 0.19265 0.85236 0.33735 0.0
O670 O 0.18513 0.82068 0.34706 0.0
O671 O 0.1578 0.81758 0.32962 0.0
O672 O 0.19948 0.87332 0.31901 0.0
O673 O 0.15203 0.82648 0.30658 0.0
C674 C 0.14547 0.82969 0.35775 0.0
C675 C 0.19682 0.85452 0.40829 0.0
C676 C 0.19719 0.85664 0.43796 0.0
C677 C 0.18797 0.85695 0.42284 0.0
C678 C 0.21521 0.85353 0.43824 0.0
C679 C 0.21486 0.8516 0.40889 0.0
C680 C 0.22392 0.85102 0.4238 0.0
C681 C 0.18448 0.88757 0.35094 0.0
C682 C 0.18706 0.85513 0.39265 0.0
C683 C 0.24975 0.82168 0.37253 0.0
C684 C 0.26418 0.84311 0.36898 0.0
C685 C 0.20821 0.86706 0.32974 0.0
C686 C 0.15572 0.83862 0.27957 0.0
C687 C 0.16357 0.83396 0.26542 0.0
C688 C 0.15476 0.83404 0.25006 0.0
C689 C 0.13799 0.83899 0.24917 0.0
C690 C 0.13892 0.84335 0.27839 0.0
C691 C 0.13015 0.84357 0.26325 0.0
C692 C 0.16965 0.81001 0.33617 0.0
C693 C 0.16533 0.83855 0.29541 0.0
H694 H 0.1742 0.8595 0.42235 0.0
H695 H 0.22249 0.8529 0.44966 0.0
H696 H 0.22199 0.84985 0.39788 0.0
H697 H 0.2378 0.84868 0.42417 0.0
H698 H 0.17636 0.83 0.26644 0.0
H699 H 0.13108 0.83959 0.23758 0.0
H700 H 0.13257 0.84685 0.28912 0.0
H701 H 0.11726 0.84735 0.26241 0.0
Tb702 Tb 0.82674 0.65593 0.66216 0.0
C703 C 0.87353 0.73348 0.70793 0.0
C704 C 0.91137 0.74355 0.70682 0.0
C705 C 0.90124 0.77049 0.71196 0.0
C706 C 0.88924 0.728 0.70562 0.0
C707 C 0.87925 0.75469 0.71149 0.0
C708 C 0.9173 0.76492 0.7096 0.0
C709 C 0.84122 0.74268 0.71519 0.0
N710 N 0.85255 0.7177 0.7075 0.0
C711 C 0.8364 0.72186 0.71166 0.0
C712 C 0.86272 0.75923 0.71491 0.0
Tb713 Tb 0.84606 0.68423 0.70084 0.0
N714 N 0.88275 0.70717 0.70308 0.0
C715 C 0.89776 0.70061 0.70294 0.0
C716 C 0.92681 0.73704 0.70565 0.0
C717 C 0.91994 0.71542 0.70397 0.0
H718 H 0.8197 0.70927 0.71179 0.0
H719 H 0.93172 0.71014 0.70337 0.0
H720 H 0.93422 0.77715 0.71038 0.0
H721 H 0.82833 0.74595 0.71809 0.0
H722 H 0.89287 0.68403 0.7015 0.0
H723 H 0.74128 0.63099 0.65958 0.0
H724 H 0.94398 0.74848 0.70643 0.0
H725 H 0.85257 0.63039 0.65127 0.0
H726 H 0.78018 0.65673 0.66155 0.0
H727 H 0.84351 0.5936 0.64488 0.0
H728 H 0.906 0.78693 0.71451 0.0
H729 H 0.72858 0.59259 0.65631 0.0
H730 H 0.73789 0.56363 0.65226 0.0
H731 H 0.86642 0.77532 0.71769 0.0
H732 H 0.76578 0.55341 0.64817 0.0
N733 N 0.78996 0.63334 0.65982 0.0
C734 C 0.77513 0.64013 0.66003 0.0
C735 C 0.7458 0.60387 0.65714 0.0
C736 C 0.76104 0.59713 0.65595 0.0
C737 C 0.75291 0.62553 0.65894 0.0
C738 C 0.78324 0.61247 0.65721 0.0
H739 H 0.80527 0.56455 0.64512 0.0
N740 N 0.81982 0.62232 0.65549 0.0
C741 C 0.83075 0.59706 0.64776 0.0
C742 C 0.79877 0.60674 0.65496 0.0
C743 C 0.83581 0.61793 0.65135 0.0
C744 C 0.80916 0.58069 0.64796 0.0
C745 C 0.7928 0.58548 0.65134 0.0
O746 O 0.84307 0.6621 0.6398 0.0
O747 O 0.85261 0.68165 0.67567 0.0
O748 O 0.84318 0.70575 0.68374 0.0
O749 O 0.81794 0.68091 0.6655 0.0
O750 O 0.86126 0.66671 0.65879 0.0
O751 O 0.81578 0.66689 0.64264 0.0
O752 O 0.83015 0.67813 0.72338 0.0
O753 O 0.82023 0.65857 0.68731 0.0
O754 O 0.82972 0.63442 0.67926 0.0
O755 O 0.85498 0.65936 0.69744 0.0
O756 O 0.81149 0.67321 0.70433 0.0
O757 O 0.85731 0.67324 0.72015 0.0
C758 C 0.86878 0.68199 0.6692 0.0
C759 C 0.82231 0.65831 0.6163 0.0
C760 C 0.82276 0.66307 0.5868 0.0
C761 C 0.83021 0.67145 0.60253 0.0
C762 C 0.80747 0.64126 0.58517 0.0
C763 C 0.80705 0.63668 0.61433 0.0
C764 C 0.79972 0.62823 0.59883 0.0
C765 C 0.82854 0.70032 0.67197 0.0
C766 C 0.83015 0.66742 0.63261 0.0
C767 C 0.77073 0.56989 0.65077 0.0
C768 C 0.75486 0.5757 0.6531 0.0
C769 C 0.804 0.65806 0.69382 0.0
C770 C 0.85146 0.68202 0.7466 0.0
C771 C 0.84452 0.66884 0.76041 0.0
C772 C 0.85237 0.67736 0.77605 0.0
C773 C 0.86715 0.69933 0.77754 0.0
C774 C 0.86624 0.70379 0.74846 0.0
C775 C 0.874 0.71237 0.76386 0.0
C776 C 0.84437 0.63991 0.69103 0.0
C777 C 0.84319 0.67281 0.73037 0.0
H778 H 0.84184 0.68823 0.6041 0.0
H779 H 0.80163 0.63417 0.57329 0.0
H780 H 0.80079 0.62635 0.62473 0.0
H781 H 0.78798 0.61148 0.59738 0.0
H782 H 0.83326 0.65196 0.75891 0.0
H783 H 0.87324 0.70656 0.78934 0.0
H784 H 0.87177 0.71415 0.73804 0.0
H785 H 0.88533 0.72924 0.76521 0.0
Tb786 Tb 0.35019 0.16675 0.6658 0.0
C787 C 0.26914 0.141 0.70719 0.0
C788 C 0.25927 0.16792 0.70217 0.0
C789 C 0.23142 0.13194 0.70902 0.0
C790 C 0.27499 0.16152 0.703 0.0
C791 C 0.24737 0.12603 0.71061 0.0
C792 C 0.23736 0.15288 0.7048 0.0
C793 C 0.25914 0.1012 0.71824 0.0
N794 N 0.28509 0.13606 0.70873 0.0
C795 C 0.28052 0.11667 0.71477 0.0
C796 C 0.24244 0.1058 0.71596 0.0
Tb797 Tb 0.31955 0.16217 0.70231 0.0
N798 N 0.29634 0.17554 0.70076 0.0
C799 C 0.30321 0.19673 0.69888 0.0
C800 C 0.26612 0.18935 0.69925 0.0
C801 C 0.28824 0.20387 0.69786 0.0
H802 H 0.29325 0.11287 0.71647 0.0
H803 H 0.29378 0.22057 0.69592 0.0
H804 H 0.225 0.15742 0.70403 0.0
H805 H 0.25556 0.08573 0.72265 0.0
H806 H 0.32019 0.20822 0.69767 0.0
H807 H 0.37418 0.1069 0.67132 0.0
H808 H 0.25457 0.19493 0.69845 0.0
H809 H 0.37773 0.21654 0.65285 0.0
H810 H 0.3484 0.12001 0.66972 0.0
H811 H 0.41588 0.24351 0.64772 0.0
H812 H 0.21455 0.12063 0.71144 0.0
H813 H 0.41359 0.13205 0.66948 0.0
H814 H 0.44384 0.16954 0.66496 0.0
H815 H 0.22591 0.09382 0.71872 0.0
H816 H 0.45525 0.20683 0.65849 0.0
N817 N 0.37278 0.15263 0.66729 0.0
C818 C 0.36547 0.13131 0.66879 0.0
C819 C 0.40231 0.13796 0.66872 0.0
C820 C 0.40966 0.15959 0.66628 0.0
C821 C 0.38008 0.12373 0.66972 0.0
C822 C 0.39427 0.16643 0.66547 0.0
H823 H 0.44488 0.23452 0.65177 0.0
N824 N 0.38506 0.19264 0.66017 0.0
C825 C 0.41184 0.22775 0.65173 0.0
C826 C 0.40066 0.18722 0.66176 0.0
C827 C 0.39022 0.21239 0.65459 0.0
C828 C 0.42816 0.22264 0.65407 0.0
C829 C 0.42264 0.20204 0.65889 0.0
O830 O 0.34721 0.17482 0.64174 0.0
O831 O 0.32334 0.1681 0.67659 0.0
O832 O 0.29824 0.13604 0.6861 0.0
O833 O 0.32397 0.13368 0.67006 0.0
O834 O 0.33927 0.18918 0.65858 0.0
O835 O 0.34001 0.14304 0.64777 0.0
O836 O 0.32409 0.15521 0.72633 0.0
O837 O 0.34617 0.16062 0.69141 0.0
O838 O 0.37133 0.1923 0.68247 0.0
O839 O 0.34549 0.19531 0.69778 0.0
O840 O 0.33076 0.14 0.70972 0.0
O841 O 0.32928 0.18626 0.72001 0.0
C842 C 0.32317 0.18261 0.66832 0.0
C843 C 0.35342 0.15543 0.6215 0.0
C844 C 0.35381 0.15137 0.59205 0.0
C845 C 0.34336 0.1524 0.60624 0.0
C846 C 0.37458 0.15362 0.59339 0.0
C847 C 0.3741 0.1576 0.62254 0.0
C848 C 0.38462 0.15674 0.60854 0.0
C849 C 0.30395 0.12569 0.67575 0.0
C850 C 0.34195 0.15602 0.63614 0.0
C851 C 0.43823 0.19565 0.66049 0.0
C852 C 0.43174 0.17442 0.66418 0.0
C853 C 0.34659 0.14631 0.69976 0.0
C854 C 0.31787 0.17434 0.74674 0.0
C855 C 0.32927 0.17888 0.76152 0.0
C856 C 0.31935 0.17924 0.77619 0.0
C857 C 0.29776 0.17493 0.77581 0.0
C858 C 0.29639 0.17015 0.74661 0.0
C859 C 0.28641 0.17045 0.76109 0.0
C860 C 0.36565 0.20292 0.69257 0.0
C861 C 0.32872 0.17393 0.73171 0.0
H862 H 0.32726 0.15046 0.60547 0.0
H863 H 0.38315 0.15317 0.58269 0.0
H864 H 0.38208 0.15985 0.63411 0.0
H865 H 0.40061 0.15848 0.60945 0.0
H866 H 0.34578 0.18183 0.76158 0.0
H867 H 0.28973 0.17529 0.78685 0.0
H868 H 0.28737 0.1667 0.73537 0.0
H869 H 0.26983 0.16723 0.76091 0.0
Tb870 Tb 0.85233 0.17279 0.69746 0.0
C871 C 0.80124 0.19987 0.65261 0.0
C872 C 0.764 0.17267 0.65675 0.0
C873 C 0.77253 0.20854 0.64963 0.0
C874 C 0.78631 0.17933 0.65661 0.0
C875 C 0.79457 0.21461 0.64854 0.0
C876 C 0.75724 0.18756 0.65376 0.0
C877 C 0.83145 0.23916 0.64074 0.0
N878 N 0.82223 0.20487 0.65145 0.0
C879 C 0.83718 0.22386 0.64483 0.0
C880 C 0.81011 0.23466 0.64288 0.0
Tb881 Tb 0.8306 0.17941 0.65921 0.0
N882 N 0.79359 0.16549 0.65915 0.0
C883 C 0.77905 0.14418 0.66043 0.0
C884 C 0.74918 0.15113 0.65924 0.0
C885 C 0.75674 0.13676 0.66076 0.0
H886 H 0.85373 0.22754 0.6432 0.0
H887 H 0.7454 0.11996 0.66229 0.0
H888 H 0.7402 0.18284 0.65403 0.0
H889 H 0.8435 0.2544 0.63596 0.0
H890 H 0.78445 0.13277 0.66177 0.0
H891 H 0.93702 0.23388 0.69652 0.0
H892 H 0.7319 0.14535 0.6595 0.0
H893 H 0.8289 0.1225 0.70928 0.0
H894 H 0.89776 0.22017 0.69609 0.0
H895 H 0.83982 0.09575 0.71516 0.0
H896 H 0.76706 0.2197 0.64676 0.0
H897 H 0.95127 0.20911 0.6993 0.0
H898 H 0.94372 0.17166 0.70362 0.0
H899 H 0.80567 0.24647 0.63961 0.0
H900 H 0.91722 0.13396 0.70871 0.0
N901 N 0.88936 0.1876 0.69829 0.0
C902 C 0.90352 0.20904 0.69742 0.0
C903 C 0.93392 0.20294 0.69917 0.0
C904 C 0.91941 0.18117 0.70096 0.0
C905 C 0.92593 0.21696 0.69764 0.0
C906 C 0.89698 0.17398 0.7006 0.0
H907 H 0.8784 0.10553 0.71328 0.0
N908 N 0.86091 0.14704 0.70369 0.0
C909 C 0.85191 0.11176 0.71179 0.0
C910 C 0.88221 0.15289 0.70338 0.0
C911 C 0.84579 0.12698 0.7085 0.0
C912 C 0.87369 0.11732 0.71067 0.0
C913 C 0.88922 0.13821 0.70669 0.0
O914 O 0.83724 0.16289 0.72021 0.0
O915 O 0.82556 0.17269 0.68488 0.0
O916 O 0.83621 0.20651 0.67438 0.0
O917 O 0.85946 0.20587 0.69447 0.0
O918 O 0.81808 0.14956 0.70173 0.0
O919 O 0.86459 0.19438 0.7171 0.0
O920 O 0.84498 0.18706 0.63606 0.0
O921 O 0.85752 0.18036 0.67206 0.0
O922 O 0.84958 0.1482 0.68073 0.0
O923 O 0.82259 0.14615 0.66345 0.0
O924 O 0.86491 0.20218 0.65429 0.0
O925 O 0.81774 0.1561 0.64078 0.0
C926 C 0.80982 0.15737 0.6919 0.0
C927 C 0.85954 0.17883 0.7431 0.0
C928 C 0.85938 0.18063 0.77279 0.0
C929 C 0.85154 0.18271 0.75753 0.0
C930 C 0.87523 0.1744 0.77328 0.0
C931 C 0.87549 0.17289 0.74392 0.0
C932 C 0.88323 0.17064 0.75894 0.0
C933 C 0.85002 0.21516 0.68669 0.0
C934 C 0.8508 0.18072 0.72735 0.0
C935 C 0.91148 0.14503 0.70637 0.0
C936 C 0.92656 0.16649 0.70348 0.0
C937 C 0.87331 0.19533 0.66482 0.0
C938 C 0.82146 0.16922 0.6141 0.0
C939 C 0.82925 0.16482 0.59979 0.0
C940 C 0.82029 0.16509 0.58454 0.0
C941 C 0.80346 0.16996 0.58391 0.0
C942 C 0.80463 0.17393 0.61317 0.0
C943 C 0.79573 0.17434 0.59813 0.0
C944 C 0.83427 0.13817 0.66963 0.0
C945 C 0.83105 0.16872 0.62984 0.0
H946 H 0.83945 0.18761 0.75683 0.0
H947 H 0.88135 0.17223 0.78475 0.0
H948 H 0.88193 0.16997 0.733 0.0
H949 H 0.89544 0.1659 0.75948 0.0
H950 H 0.84207 0.16089 0.6006 0.0
H951 H 0.79643 0.17066 0.57239 0.0
H952 H 0.79834 0.17724 0.62402 0.0
H953 H 0.7828 0.17808 0.59749 0.0
C954 C 0.29258 0.85606 0.07398 0.0
C955 C 0.28813 0.83487 0.07356 0.0
C956 C 0.3121 0.87244 0.06782 0.0
C957 C 0.36803 0.88602 0.05811 0.0
H958 H 0.36747 0.92891 0.03039 0.0
C959 C 0.44604 0.94995 0.02744 0.0
C960 C 0.44941 0.97075 0.02751 0.0
C961 C 0.4258 0.93276 0.03151 0.0
C962 C 0.36794 0.91717 0.03822 0.0
H963 H 0.30087 0.81429 0.06678 0.0
H964 H 0.33487 0.84282 0.05606 0.0
H965 H 0.33348 0.90057 0.04137 0.0
H966 H 0.43465 0.99006 0.03225 0.0
H967 H 0.39943 0.9602 0.03966 0.0
H968 H 0.40245 0.90274 0.0553 0.0
C969 C 0.3233 0.84681 0.06112 0.0
C970 C 0.34846 0.90095 0.04452 0.0
C971 C 0.30376 0.83045 0.06714 0.0
C972 C 0.43227 0.97409 0.03179 0.0
C973 C 0.41208 0.95695 0.03594 0.0
C974 C 0.38751 0.90229 0.05191 0.0
C975 C 0.32764 0.86796 0.06127 0.0
C976 C 0.3483 0.88523 0.05457 0.0
C977 C 0.40866 0.93608 0.03608 0.0
C978 C 0.38774 0.91813 0.04193 0.0
H979 H 0.28078 0.85991 0.07876 0.0
H980 H 0.31508 0.88862 0.06826 0.0
H981 H 0.36847 0.87428 0.06598 0.0
H982 H 0.45912 0.94696 0.02467 0.0
H983 H 0.42369 0.91689 0.03131 0.0
C984 C 0.18287 0.47506 0.0695 0.0
C985 C 0.17909 0.45607 0.07695 0.0
C986 C 0.16554 0.47786 0.06466 0.0
C987 C 0.10605 0.45568 0.07094 0.0
H988 H 0.11056 0.48796 0.03222 0.0
C989 C 0.0323 0.45751 0.04288 0.0
C990 C 0.03543 0.47746 0.0382 0.0
C991 C 0.04995 0.45504 0.04724 0.0
C992 C 0.10913 0.47903 0.04313 0.0
H993 H 0.15404 0.42494 0.08479 0.0
H994 H 0.12387 0.42952 0.07604 0.0
H995 H 0.1409 0.48316 0.04033 0.0
H996 H 0.05942 0.51078 0.0355 0.0
H997 H 0.09038 0.50641 0.04265 0.0
H998 H 0.07409 0.45123 0.0735 0.0
C999 C 0.1402 0.44259 0.07433 0.0
C1000 C 0.12657 0.47632 0.04785 0.0
C1001 C 0.15753 0.43989 0.07932 0.0
C1002 C 0.05656 0.49505 0.0384 0.0
C1003 C 0.07429 0.49256 0.0426 0.0
C1004 C 0.08857 0.45819 0.06612 0.0
C1005 C 0.14391 0.46165 0.06697 0.0
C1006 C 0.12531 0.4646 0.06185 0.0
C1007 C 0.07118 0.47252 0.04714 0.0
C1008 C 0.08988 0.4699 0.05217 0.0
H1009 H 0.19928 0.48793 0.06765 0.0
H1010 H 0.16916 0.49291 0.05933 0.0
H1011 H 0.10451 0.44695 0.08197 0.0
H1012 H 0.01612 0.44377 0.04314 0.0
H1013 H 0.047 0.43938 0.05063 0.0
C1014 C 0.57528 0.73203 0.05343 0.0
C1015 C 0.57054 0.73567 0.06931 0.0
C1016 C 0.56798 0.71133 0.0478 0.0
C1017 C 0.55378 0.65858 0.06167 0.0
H1018 H 0.52401 0.63889 0.02027 0.0
C1019 C 0.52067 0.57208 0.04014 0.0
C1020 C 0.52178 0.56854 0.02352 0.0
C1021 C 0.52531 0.59211 0.04579 0.0
C1022 C 0.53258 0.6442 0.03175 0.0
H1023 H 0.55387 0.72017 0.09153 0.0
H1024 H 0.54187 0.6841 0.08183 0.0
H1025 H 0.53478 0.67473 0.02987 0.0
H1026 H 0.52943 0.58315 0.99982 0.0
H1027 H 0.5381 0.6183 0.00957 0.0
H1028 H 0.55247 0.62858 0.06339 0.0
C1029 C 0.55123 0.69737 0.07381 0.0
C1030 C 0.53861 0.66469 0.03726 0.0
C1031 C 0.55822 0.71804 0.07937 0.0
C1032 C 0.52781 0.58535 0.01262 0.0
C1033 C 0.5328 0.6055 0.01826 0.0
C1034 C 0.54807 0.63824 0.05606 0.0
C1035 C 0.55608 0.69386 0.05799 0.0
C1036 C 0.54926 0.67203 0.05227 0.0
C1037 C 0.53162 0.60916 0.03494 0.0
C1038 C 0.53738 0.63075 0.04101 0.0
H1039 H 0.58504 0.74517 0.04542 0.0
H1040 H 0.57212 0.70902 0.03561 0.0
H1041 H 0.56223 0.66401 0.0732 0.0
H1042 H 0.51595 0.55925 0.04876 0.0
H1043 H 0.52381 0.59416 0.05866 0.0
C1044 C 0.83458 0.27914 0.97054 0.0
C1045 C 0.8284 0.27682 0.95409 0.0
C1046 C 0.85059 0.29879 0.97664 0.0
C1047 C 0.89592 0.35126 0.96397 0.0
H1048 H 0.88854 0.36873 0.00692 0.0
C1049 C 0.96364 0.42652 0.99559 0.0
C1050 C 0.95747 0.43912 0.0046 0.0
C1051 C 0.94804 0.40661 0.98957 0.0
C1052 C 0.89079 0.3642 0.99485 0.0
H1053 H 0.83414 0.29331 0.93115 0.0
H1054 H 0.86193 0.32773 0.94182 0.0
H1055 H 0.861 0.33458 0.9959 0.0
H1056 H 0.92993 0.44075 0.01413 0.0
H1057 H 0.90275 0.40618 0.00352 0.0
H1058 H 0.92539 0.38116 0.96272 0.0
C1059 C 0.85469 0.31427 0.94996 0.0
C1060 C 0.87511 0.34446 0.98861 0.0
C1061 C 0.83873 0.29455 0.94384 0.0
C1062 C 0.93531 0.43135 0.00744 0.0
C1063 C 0.91969 0.41147 1.00137 0.0
C1064 C 0.91156 0.37104 0.97019 0.0
C1065 C 0.86076 0.31666 0.96647 0.0
C1066 C 0.87748 0.33771 0.97309 0.0
C1067 C 0.92585 0.39885 0.99233 0.0
C1068 C 0.90921 0.37776 0.98572 0.0
H1069 H 0.82714 0.26568 0.97868 0.0
H1070 H 0.85514 0.29992 0.98933 0.0
H1071 H 0.89841 0.34651 0.95205 0.0
H1072 H 0.98056 0.43196 0.99321 0.0
H1073 H 0.9534 0.39721 0.98288 0.0
C1074 C 0.71079 0.53082 0.96086 0.0
C1075 C 0.72647 0.54983 0.95357 0.0
C1076 C 0.69093 0.52841 0.96602 0.0
C1077 C 0.65471 0.55159 0.96068 0.0
H1078 H 0.62709 0.51928 0.99946 0.0
C1079 C 0.57945 0.54993 0.98852 0.0
C1080 C 0.56239 0.53007 0.99339 0.0
C1081 C 0.59963 0.5524 0.98437 0.0
C1082 C 0.63452 0.52821 0.98853 0.0
H1083 H 0.7336 0.58136 0.9463 0.0
H1084 H 0.69925 0.57738 0.95549 0.0
H1085 H 0.66193 0.52365 0.99093 0.0
H1086 H 0.5528 0.49691 0.99686 0.0
H1087 H 0.58821 0.50126 0.99 0.0
H1088 H 0.62741 0.55634 0.95842 0.0
C1089 C 0.702 0.56406 0.9569 0.0
C1090 C 0.65451 0.53069 0.98358 0.0
C1091 C 0.72179 0.56639 0.95164 0.0
C1092 C 0.56583 0.51258 0.99376 0.0
C1093 C 0.58611 0.51507 0.98973 0.0
C1094 C 0.63485 0.54924 0.96569 0.0
C1095 C 0.68621 0.545 0.96414 0.0
C1096 C 0.66492 0.54241 0.96956 0.0
C1097 C 0.60322 0.53499 0.98484 0.0
C1098 C 0.62447 0.53751 0.97967 0.0
H1099 H 0.71373 0.51763 0.96236 0.0
H1100 H 0.67914 0.51336 0.97124 0.0
H1101 H 0.66187 0.56034 0.94964 0.0
H1102 H 0.57712 0.56359 0.98786 0.0
H1103 H 0.61246 0.56798 0.98077 0.0
C1104 C 0.4583 0.1744 0.96762 0.0
C1105 C 0.4552 0.17608 0.95089 0.0
C1106 C 0.46181 0.1583 0.97344 0.0
C1107 C 0.45218 0.10525 0.9663 0.0
H1108 H 0.50657 0.12342 0.98898 0.0
C1109 C 0.479 0.04501 0.98413 0.0
C1110 C 0.4914 0.04862 0.99836 0.0
C1111 C 0.47443 0.06043 0.97831 0.0
C1112 C 0.4911 0.11794 0.98298 0.0
H1113 H 0.45263 0.16147 0.92729 0.0
H1114 H 0.45782 0.13273 0.93769 0.0
H1115 H 0.49771 0.1499 0.97929 0.0
H1116 H 0.5092 0.07171 0.01729 0.0
H1117 H 0.49989 0.09786 0.008 0.0
H1118 H 0.44493 0.07333 0.97051 0.0
C1119 C 0.4578 0.1442 0.94616 0.0
C1120 C 0.48616 0.13318 0.97732 0.0
C1121 C 0.45471 0.16059 0.94025 0.0
C1122 C 0.49922 0.06813 0.00655 0.0
C1123 C 0.49416 0.08336 1.00098 0.0
C1124 C 0.45687 0.08995 0.97229 0.0
C1125 C 0.46179 0.14321 0.96274 0.0
C1126 C 0.46673 0.12696 0.96886 0.0
C1127 C 0.48172 0.07976 0.98675 0.0
C1128 C 0.47648 0.09607 0.98063 0.0
H1129 H 0.45821 0.18566 0.97625 0.0
H1130 H 0.46458 0.15763 0.98633 0.0
H1131 H 0.43702 0.10013 0.9599 0.0
H1132 H 0.47293 0.03032 0.97729 0.0
H1133 H 0.46536 0.0572 0.96707 0.0
C1134 C 0.7155 0.15535 0.95916 0.0
C1135 C 0.71718 0.17542 0.95821 0.0
C1136 C 0.69558 0.13737 0.96286 0.0
C1137 C 0.64515 0.12307 0.98455 0.0
H1138 H 0.62291 0.06823 0.96333 0.0
C1139 C 0.55953 0.05223 0.99741 0.0
C1140 C 0.55694 0.03173 0.9975 0.0
C1141 C 0.57931 0.06977 0.9929 0.0
C1142 C 0.62904 0.08335 0.96956 0.0
H1143 H 0.6998 0.19274 0.95997 0.0
H1144 H 0.66493 0.16139 0.96631 0.0
H1145 H 0.65671 0.09852 0.95399 0.0
H1146 H 0.57271 0.01333 0.99282 0.0
H1147 H 0.60743 0.04392 0.9853 0.0
H1148 H 0.61776 0.10793 1.0003 0.0
C1149 C 0.67886 0.15942 0.96427 0.0
C1150 C 0.64837 0.10072 0.96414 0.0
C1151 C 0.69871 0.17729 0.96047 0.0
C1152 C 0.57442 0.02905 0.99298 0.0
C1153 C 0.59422 0.04655 0.98855 0.0
C1154 C 0.62592 0.10568 0.99005 0.0
C1155 C 0.67717 0.13933 0.96589 0.0
C1156 C 0.65659 0.1208 0.97152 0.0
C1157 C 0.59685 0.06712 0.98824 0.0
C1158 C 0.61756 0.08559 0.9826 0.0
H1159 H 0.72973 0.1537 0.95771 0.0
H1160 H 0.69481 0.12213 0.96411 0.0
H1161 H 0.65128 0.13826 0.99069 0.0
H1162 H 0.54614 0.05469 1.00039 0.0
H1163 H 0.5806 0.0853 0.99258 0.0
C1164 C 0.82594 0.5187 0.96552 0.0
C1165 C 0.82834 0.53893 0.96329 0.0
C1166 C 0.8439 0.51645 0.96933 0.0
C1167 C 0.89947 0.54684 0.98702 0.0
H1168 H 0.90418 0.49866 0.97171 0.0
C1169 C 0.97631 0.53982 0.9976 0.0
C1170 C 0.97333 0.51981 1.00192 0.0
C1171 C 0.95862 0.54215 0.99304 0.0
C1172 C 0.903 0.51209 0.97625 0.0
H1173 H 0.85121 0.57272 0.96301 0.0
H1174 H 0.88286 0.56892 0.96922 0.0
H1175 H 0.87405 0.50308 0.96249 0.0
H1176 H 0.94962 0.48631 0.00395 0.0
H1177 H 0.91864 0.49033 0.99617 0.0
H1178 H 0.92853 0.55587 1.00069 0.0
C1179 C 0.8671 0.55471 0.96828 0.0
C1180 C 0.88569 0.51465 0.97094 0.0
C1181 C 0.84905 0.55692 0.96451 0.0
C1182 C 0.95235 0.50203 1.00116 0.0
C1183 C 0.93464 0.50432 0.99648 0.0
C1184 C 0.91683 0.54432 0.99226 0.0
C1185 C 0.86473 0.53444 0.97103 0.0
C1186 C 0.88362 0.53205 0.97626 0.0
C1187 C 0.93754 0.52442 0.99234 0.0
C1188 C 0.91882 0.5269 0.98696 0.0
H1189 H 0.81001 0.50462 0.96491 0.0
H1190 H 0.84127 0.50062 0.97156 0.0
H1191 H 0.89827 0.56019 0.99168 0.0
H1192 H 0.99239 0.55371 0.99776 0.0
H1193 H 0.96154 0.5578 0.98969 0.0
C1194 C 0.46015 0.28821 0.97008 0.0
C1195 C 0.47115 0.28713 0.95639 0.0
C1196 C 0.46068 0.30721 0.97408 0.0
C1197 C 0.47376 0.36015 0.95868 0.0
H1198 H 0.48848 0.37731 0.00376 0.0
C1199 C 0.479 0.43651 0.98569 0.0
C1200 C 0.49694 0.44897 0.99583 0.0
C1201 C 0.47459 0.41638 0.98047 0.0
C1202 C 0.48443 0.37276 0.99113 0.0
H1203 H 0.49072 0.30429 0.93577 0.0
H1204 H 0.49167 0.33769 0.94267 0.0
H1205 H 0.48197 0.34246 0.99492 0.0
H1206 H 0.52474 0.45027 0.00794 0.0
H1207 H 0.5168 0.41501 0.99907 0.0
H1208 H 0.47665 0.39071 0.95488 0.0
C1209 C 0.48244 0.3239 0.95025 0.0
C1210 C 0.48044 0.35271 0.9861 0.0
C1211 C 0.48195 0.30487 0.9463 0.0
C1212 C 0.5105 0.44093 1.00047 0.0
C1213 C 0.50599 0.42073 0.99536 0.0
C1214 C 0.4776 0.38018 0.96375 0.0
C1215 C 0.47229 0.32541 0.96443 0.0
C1216 C 0.47521 0.34624 0.96981 0.0
C1217 C 0.48797 0.40823 0.98533 0.0
C1218 C 0.48317 0.38675 0.97999 0.0
H1219 H 0.45184 0.27462 0.97803 0.0
H1220 H 0.45248 0.30782 0.98495 0.0
H1221 H 0.46967 0.35555 0.94606 0.0
H1222 H 0.46824 0.44222 0.98183 0.0
H1223 H 0.46051 0.40703 0.97283 0.0
C1224 C 0.19227 0.70623 0.06462 0.0
C1225 C 0.1892 0.72325 0.06883 0.0
C1226 C 0.17455 0.68566 0.06325 0.0
C1227 C 0.11568 0.65774 0.05524 0.0
H1228 H 0.12042 0.60784 0.06483 0.0
C1229 C 0.04555 0.57136 0.04406 0.0
C1230 C 0.05149 0.55798 0.03589 0.0
C1231 C 0.06143 0.59129 0.0499 0.0
C1232 C 0.11889 0.62164 0.06205 0.0
H1233 H 0.1657 0.73258 0.07535 0.0
H1234 H 0.13446 0.69638 0.07333 0.0
H1235 H 0.14963 0.64299 0.07287 0.0
H1236 H 0.07877 0.55488 0.02774 0.0
H1237 H 0.10636 0.58959 0.03789 0.0
H1238 H 0.08492 0.63626 0.04435 0.0
C1239 C 0.1505 0.69886 0.07087 0.0
C1240 C 0.13563 0.64179 0.06664 0.0
C1241 C 0.16831 0.71951 0.07218 0.0
C1242 C 0.07362 0.56485 0.03384 0.0
C1243 C 0.08945 0.58466 0.0398 0.0
C1244 C 0.09884 0.63754 0.05078 0.0
C1245 C 0.15337 0.68174 0.06608 0.0
C1246 C 0.13446 0.66015 0.06297 0.0
C1247 C 0.08354 0.59811 0.04787 0.0
C1248 C 0.10049 0.61933 0.05384 0.0
H1249 H 0.20832 0.70894 0.0618 0.0
H1250 H 0.17742 0.67303 0.05926 0.0
H1251 H 0.11432 0.6715 0.05201 0.0
H1252 H 0.02865 0.56652 0.04586 0.0
H1253 H 0.05641 0.60128 0.05615 0.0
C1254 C 0.30809 0.48588 0.06234 0.0
C1255 C 0.29089 0.46545 0.06572 0.0
C1256 C 0.3286 0.48896 0.05841 0.0
C1257 C 0.36314 0.46393 0.0602 0.0
H1258 H 0.39296 0.50128 0.02407 0.0
C1259 C 0.43886 0.46748 0.03172 0.0
C1260 C 0.45587 0.48733 0.02681 0.0
C1261 C 0.41889 0.46511 0.03634 0.0
C1262 C 0.38503 0.49102 0.03432 0.0
H1263 H 0.2814 0.4322 0.06783 0.0
H1264 H 0.31734 0.43749 0.06114 0.0
H1265 H 0.35827 0.49674 0.03307 0.0
H1266 H 0.46564 0.52055 0.02353 0.0
H1267 H 0.43071 0.51653 0.03161 0.0
H1268 H 0.38989 0.45827 0.06154 0.0
C1269 C 0.31514 0.45123 0.06167 0.0
C1270 C 0.36509 0.48839 0.03949 0.0
C1271 C 0.29457 0.44816 0.06553 0.0
C1272 C 0.45261 0.50493 0.02683 0.0
C1273 C 0.43259 0.50259 0.03149 0.0
C1274 C 0.38311 0.46662 0.05509 0.0
C1275 C 0.33234 0.47164 0.05775 0.0
C1276 C 0.35383 0.47476 0.05247 0.0
C1277 C 0.41548 0.48265 0.03645 0.0
C1278 C 0.39431 0.48012 0.04202 0.0
H1279 H 0.30552 0.49941 0.06224 0.0
H1280 H 0.34148 0.50492 0.0557 0.0
H1281 H 0.35512 0.45355 0.07037 0.0
H1282 H 0.44104 0.45371 0.03198 0.0
H1283 H 0.40607 0.44946 0.0398 0.0
C1284 C 0.54949 0.82701 0.05477 0.0
C1285 C 0.57011 0.83543 0.0618 0.0
C1286 C 0.54036 0.83996 0.05235 0.0
C1287 C 0.54488 0.89149 0.06373 0.0
H1288 H 0.52145 0.88831 0.02051 0.0
C1289 C 0.53306 0.9585 0.03744 0.0
C1290 C 0.51491 0.95305 0.02748 0.0
C1291 C 0.53767 0.94292 0.04278 0.0
C1292 C 0.52757 0.88918 0.03273 0.0
H1293 H 0.59734 0.86345 0.07228 0.0
H1294 H 0.58142 0.8863 0.0681 0.0
H1295 H 0.53299 0.8631 0.02837 0.0
H1296 H 0.48696 0.92678 0.01576 0.0
H1297 H 0.49503 0.89954 0.0251 0.0
H1298 H 0.53969 0.91776 0.06801 0.0
C1299 C 0.57213 0.86968 0.06459 0.0
C1300 C 0.5342 0.87473 0.03723 0.0
C1301 C 0.58127 0.85669 0.06696 0.0
C1302 C 0.50128 0.93158 0.02318 0.0
C1303 C 0.5059 0.91596 0.02855 0.0
C1304 C 0.53817 0.90591 0.05924 0.0
C1305 C 0.55178 0.86156 0.05692 0.0
C1306 C 0.5432 0.8759 0.0527 0.0
C1307 C 0.5242 0.92147 0.03837 0.0
C1308 C 0.52974 0.90513 0.0436 0.0
H1309 H 0.54073 0.81059 0.05065 0.0
H1310 H 0.52455 0.83319 0.0466 0.0
H1311 H 0.55147 0.8926 0.0758 0.0
H1312 H 0.54393 0.97487 0.04099 0.0
H1313 H 0.55209 0.94779 0.0501 0.0
C1314 C 0.97024 0.16515 0.40324 0.0
C1315 C 0.95263 0.16803 0.40688 0.0
C1316 C 0.98908 0.18164 0.39647 0.0
C1317 C 0.01839 0.24016 0.38908 0.0
H1318 H 0.05047 0.22529 0.35883 0.0
C1319 C 0.09388 0.30257 0.35367 0.0
C1320 C 0.11213 0.30023 0.35591 0.0
C1321 C 0.07336 0.28638 0.35842 0.0
C1322 C 0.04162 0.22963 0.36724 0.0
H1323 H 0.9408 0.19034 0.40642 0.0
H1324 H 0.97347 0.21909 0.39407 0.0
H1325 H 0.01652 0.19735 0.37006 0.0
H1326 H 0.12381 0.28015 0.36581 0.0
H1327 H 0.08785 0.25145 0.37361 0.0
H1328 H 0.04352 0.27257 0.38588 0.0
C1329 C 0.97303 0.20428 0.39679 0.0
C1330 C 0.02226 0.21364 0.37381 0.0
C1331 C 0.95428 0.18783 0.40384 0.0
C1332 C 0.10975 0.28179 0.3633 0.0
C1333 C 0.08926 0.2655 0.36784 0.0
C1334 C 0.03759 0.25619 0.38227 0.0
C1335 C 0.99064 0.20134 0.39288 0.0
C1336 C 0.01057 0.21861 0.38509 0.0
C1337 C 0.07091 0.26773 0.36557 0.0
C1338 C 0.04955 0.25101 0.37151 0.0
H1339 H 0.96942 0.15007 0.40564 0.0
H1340 H 0.00244 0.17888 0.3941 0.0
H1341 H 0.01008 0.24466 0.39784 0.0
H1342 H 0.09557 0.31706 0.34851 0.0
H1343 H 0.05946 0.2885 0.35665 0.0
C1344 C 0.82375 0.77553 0.41151 0.0
C1345 C 0.84518 0.79204 0.40925 0.0
C1346 C 0.8062 0.77765 0.40619 0.0
C1347 C 0.79181 0.81033 0.37914 0.0
H1348 H 0.7393 0.78505 0.40477 0.0
C1349 C 0.72153 0.82836 0.36917 0.0
C1350 C 0.70041 0.81075 0.36904 0.0
C1351 C 0.73927 0.82596 0.3735 0.0
C1352 C 0.75378 0.79204 0.39739 0.0
H1353 H 0.86491 0.82387 0.39976 0.0
H1354 H 0.83439 0.82785 0.39084 0.0
H1355 H 0.76999 0.78133 0.41346 0.0
H1356 H 0.68112 0.77717 0.37435 0.0
H1357 H 0.71205 0.77294 0.38205 0.0
H1358 H 0.77554 0.82145 0.36329 0.0
C1359 C 0.83105 0.81297 0.39635 0.0
C1360 C 0.77142 0.78985 0.40233 0.0
C1361 C 0.84861 0.81075 0.40152 0.0
C1362 C 0.6973 0.7909 0.374 0.0
C1363 C 0.71498 0.78852 0.37848 0.0
C1364 C 0.77421 0.8127 0.37429 0.0
C1365 C 0.80954 0.79646 0.39861 0.0
C1366 C 0.79071 0.7989 0.39327 0.0
C1367 C 0.7362 0.80601 0.37825 0.0
C1368 C 0.75496 0.80354 0.38334 0.0
H1369 H 0.82054 0.76078 0.41719 0.0
H1370 H 0.78998 0.76437 0.40787 0.0
H1371 H 0.80616 0.81723 0.37164 0.0
H1372 H 0.7244 0.84404 0.36612 0.0
H1373 H 0.75535 0.83983 0.37347 0.0
C1374 C 0.22056 0.05812 0.40979 0.0
C1375 C 0.23425 0.07588 0.40027 0.0
C1376 C 0.21294 0.03745 0.40395 0.0
C1377 C 0.20272 0.00455 0.36759 0.0
H1378 H 0.21639 0.96967 0.39539 0.0
C1379 C 0.19461 0.9252 0.345 0.0
C1380 C 0.1888 0.90876 0.35623 0.0
C1381 C 0.19892 0.94536 0.35017 0.0
C1382 C 0.212 0.97892 0.38756 0.0
H1383 H 0.24967 0.08558 0.37671 0.0
H1384 H 0.23567 0.04943 0.36635 0.0
H1385 H 0.22463 0.00487 0.40455 0.0
H1386 H 0.18264 0.90016 0.38157 0.0
H1387 H 0.18923 0.93497 0.39062 0.0
H1388 H 0.18961 0.97852 0.35073 0.0
C1389 C 0.23108 0.05165 0.37842 0.0
C1390 C 0.21685 0.99918 0.39282 0.0
C1391 C 0.23899 0.07237 0.38435 0.0
C1392 C 0.18724 0.9127 0.3727 0.0
C1393 C 0.19116 0.93271 0.37786 0.0
C1394 C 0.1975 0.9841 0.36242 0.0
C1395 C 0.21849 0.03403 0.38834 0.0
C1396 C 0.21238 0.01223 0.38286 0.0
C1397 C 0.19722 0.94942 0.36669 0.0
C1398 C 0.2022 0.97103 0.3723 0.0
H1399 H 0.2161 0.06016 0.42195 0.0
H1400 H 0.20297 0.02411 0.41175 0.0
H1401 H 0.199 0.01428 0.35973 0.0
H1402 H 0.19652 0.92271 0.33231 0.0
H1403 H 0.20404 0.95785 0.34122 0.0
C1404 C 0.5079 0.62314 0.27741 0.0
C1405 C 0.4979 0.60576 0.28805 0.0
C1406 C 0.5234 0.64329 0.28314 0.0
C1407 C 0.55984 0.6706 0.31855 0.0
H1408 H 0.56204 0.72074 0.29994 0.0
C1409 C 0.60957 0.75491 0.3468 0.0
C1410 C 0.62265 0.77122 0.33602 0.0
C1411 C 0.59443 0.73471 0.34093 0.0
C1412 C 0.56168 0.70687 0.30518 0.0
H1413 H 0.49679 0.59606 0.31312 0.0
H1414 H 0.52289 0.63123 0.3232 0.0
H1415 H 0.53542 0.68554 0.28982 0.0
H1416 H 0.63027 0.77933 0.31067 0.0
H1417 H 0.60356 0.74409 0.30035 0.0
H1418 H 0.58579 0.69209 0.33421 0.0
C1419 C 0.51915 0.62927 0.31034 0.0
C1420 C 0.5465 0.68668 0.29933 0.0
C1421 C 0.50386 0.60909 0.30458 0.0
C1422 C 0.62035 0.76701 0.31925 0.0
C1423 C 0.605 0.74692 0.31335 0.0
C1424 C 0.57481 0.69079 0.32454 0.0
C1425 C 0.52915 0.64667 0.29971 0.0
C1426 C 0.54539 0.66824 0.30591 0.0
C1427 C 0.59194 0.73054 0.32413 0.0
C1428 C 0.57592 0.70912 0.31788 0.0
H1429 H 0.50358 0.6213 0.26464 0.0
H1430 H 0.53095 0.65618 0.27452 0.0
H1431 H 0.55981 0.65687 0.32373 0.0
H1432 H 0.61142 0.75754 0.35975 0.0
H1433 H 0.58457 0.72238 0.34951 0.0
C1434 C 0.376 0.86568 0.29457 0.0
C1435 C 0.39183 0.88418 0.28681 0.0
C1436 C 0.35651 0.86404 0.29982 0.0
C1437 C 0.32136 0.88833 0.29394 0.0
H1438 H 0.29389 0.85769 0.33334 0.0
C1439 C 0.24688 0.8888 0.32148 0.0
C1440 C 0.22979 0.86922 0.3268 0.0
C1441 C 0.26693 0.8909 0.31732 0.0
C1442 C 0.30128 0.86616 0.32224 0.0
H1443 H 0.39964 0.91567 0.27884 0.0
H1444 H 0.36592 0.91302 0.2882 0.0
H1445 H 0.32828 0.861 0.32482 0.0
H1446 H 0.21998 0.83614 0.33096 0.0
H1447 H 0.25507 0.83985 0.32412 0.0
H1448 H 0.29445 0.89366 0.29149 0.0
C1449 C 0.36826 0.89949 0.2899 0.0
C1450 C 0.32101 0.86803 0.3173 0.0
C1451 C 0.38768 0.90106 0.28454 0.0
C1452 C 0.23303 0.85163 0.32755 0.0
C1453 C 0.25315 0.85375 0.32352 0.0
C1454 C 0.30175 0.8866 0.29895 0.0
C1455 C 0.3523 0.88092 0.29757 0.0
C1456 C 0.33134 0.8791 0.30303 0.0
C1457 C 0.27032 0.87339 0.31823 0.0
C1458 C 0.29141 0.87546 0.31313 0.0
H1459 H 0.37852 0.85226 0.29633 0.0
H1460 H 0.34456 0.84933 0.30539 0.0
H1461 H 0.32847 0.8966 0.28273 0.0
H1462 H 0.2447 0.90253 0.3205 0.0
H1463 H 0.2798 0.90628 0.31339 0.0
C1464 C 0.1187 0.49821 0.28395 0.0
C1465 C 0.10973 0.50694 0.29457 0.0
C1466 C 0.12246 0.48196 0.28911 0.0
C1467 C 0.13142 0.45864 0.32597 0.0
H1468 H 0.11918 0.41148 0.29715 0.0
C1469 C 0.14226 0.3872 0.34515 0.0
C1470 C 0.15067 0.37943 0.33329 0.0
C1471 C 0.13662 0.40261 0.34111 0.0
C1472 C 0.12291 0.42466 0.3053 0.0
H1473 H 0.09708 0.50491 0.31884 0.0
H1474 H 0.10381 0.47666 0.32787 0.0
H1475 H 0.11007 0.43825 0.28864 0.0
H1476 H 0.16137 0.38262 0.3084 0.0
H1477 H 0.15158 0.40932 0.30127 0.0
H1478 H 0.14453 0.44515 0.34255 0.0
C1479 C 0.10819 0.48261 0.31561 0.0
C1480 C 0.11765 0.43998 0.30041 0.0
C1481 C 0.10434 0.4988 0.31042 0.0
C1482 C 0.15413 0.38779 0.31756 0.0
C1483 C 0.14857 0.40314 0.31353 0.0
C1484 C 0.13676 0.44331 0.33085 0.0
C1485 C 0.11739 0.47408 0.30503 0.0
C1486 C 0.12205 0.45727 0.31061 0.0
C1487 C 0.13943 0.41052 0.32516 0.0
C1488 C 0.1328 0.42628 0.32048 0.0
H1489 H 0.12337 0.50431 0.27175 0.0
H1490 H 0.12985 0.47593 0.28073 0.0
H1491 H 0.13521 0.47189 0.33404 0.0
H1492 H 0.13941 0.3809 0.35736 0.0
H1493 H 0.12955 0.4079 0.35035 0.0
C1494 C 0.38374 0.48232 0.29358 0.0
C1495 C 0.38824 0.50347 0.29308 0.0
C1496 C 0.36267 0.46585 0.29684 0.0
C1497 C 0.31361 0.45697 0.31812 0.0
H1498 H 0.28518 0.40288 0.29524 0.0
C1499 C 0.22317 0.39527 0.32732 0.0
C1500 C 0.21699 0.37364 0.32693 0.0
C1501 C 0.24453 0.41078 0.32389 0.0
C1502 C 0.29301 0.41776 0.30195 0.0
H1503 H 0.3747 0.52426 0.2952 0.0
H1504 H 0.33786 0.49557 0.30076 0.0
H1505 H 0.32132 0.43038 0.28698 0.0
H1506 H 0.2275 0.35098 0.32159 0.0
H1507 H 0.26507 0.37801 0.31605 0.0
H1508 H 0.28554 0.44437 0.33323 0.0
C1509 C 0.35046 0.49159 0.29871 0.0
C1510 C 0.31369 0.43355 0.29714 0.0
C1511 C 0.37144 0.50796 0.29534 0.0
C1512 C 0.23224 0.36766 0.32261 0.0
C1513 C 0.25361 0.38314 0.31918 0.0
C1514 C 0.29303 0.44115 0.32301 0.0
C1515 C 0.34594 0.47041 0.29988 0.0
C1516 C 0.32412 0.4534 0.30507 0.0
C1517 C 0.25999 0.40491 0.3196 0.0
C1518 C 0.28236 0.42139 0.3149 0.0
H1519 H 0.39665 0.47863 0.29214 0.0
H1520 H 0.35971 0.44971 0.29775 0.0
H1521 H 0.32141 0.47196 0.32468 0.0
H1522 H 0.21135 0.40012 0.32997 0.0
H1523 H 0.24868 0.42733 0.32401 0.0
C1524 C 0.48905 0.84983 0.29866 0.0
C1525 C 0.4919 0.87003 0.29534 0.0
C1526 C 0.50693 0.84726 0.30199 0.0
C1527 C 0.56686 0.87334 0.29851 0.0
H1528 H 0.56152 0.83663 0.33449 0.0
C1529 C 0.64113 0.87137 0.32554 0.0
C1530 C 0.63835 0.85178 0.33085 0.0
C1531 C 0.62326 0.87331 0.32082 0.0
C1532 C 0.56324 0.84671 0.32426 0.0
H1533 H 0.51547 0.90341 0.29267 0.0
H1534 H 0.54693 0.89902 0.29834 0.0
H1535 H 0.53059 0.84046 0.32652 0.0
H1536 H 0.61486 0.81847 0.33431 0.0
H1537 H 0.58358 0.82173 0.32604 0.0
H1538 H 0.59947 0.87956 0.2962 0.0
C1539 C 0.53091 0.88506 0.29824 0.0
C1540 C 0.54547 0.84893 0.31968 0.0
C1541 C 0.51295 0.88761 0.29497 0.0
C1542 C 0.6174 0.83392 0.33077 0.0
C1543 C 0.59949 0.83582 0.326 0.0
C1544 C 0.5846 0.87106 0.30304 0.0
C1545 C 0.52811 0.86489 0.3021 0.0
C1546 C 0.54702 0.86231 0.30676 0.0
C1547 C 0.60215 0.85558 0.32101 0.0
C1548 C 0.58308 0.85775 0.31601 0.0
H1549 H 0.4729 0.83607 0.29916 0.0
H1550 H 0.50414 0.83147 0.30466 0.0
H1551 H 0.5686 0.88357 0.28838 0.0
H1552 H 0.65716 0.88531 0.32527 0.0
H1553 H 0.626 0.88882 0.31723 0.0
C1554 C 0.11051 0.62483 0.29896 0.0
C1555 C 0.12578 0.61854 0.30245 0.0
C1556 C 0.1161 0.64621 0.30074 0.0
C1557 C 0.15314 0.69343 0.32448 0.0
H1558 H 0.13643 0.72405 0.29461 0.0
C1559 C 0.18029 0.78192 0.33466 0.0
C1560 C 0.16521 0.78855 0.33124 0.0
C1561 C 0.17607 0.76161 0.33012 0.0
C1562 C 0.141 0.71564 0.30317 0.0
H1563 H 0.15877 0.62913 0.31001 0.0
H1564 H 0.16867 0.6665 0.31304 0.0
H1565 H 0.12795 0.68778 0.28799 0.0
H1566 H 0.13394 0.77909 0.3202 0.0
H1567 H 0.12634 0.74351 0.31261 0.0
H1568 H 0.16569 0.72087 0.33987 0.0
C1569 C 0.1524 0.65508 0.30904 0.0
C1570 C 0.1362 0.6949 0.29934 0.0
C1571 C 0.14682 0.63379 0.30718 0.0
C1572 C 0.14592 0.7745 0.32301 0.0
C1573 C 0.14162 0.75412 0.31855 0.0
C1574 C 0.15778 0.71405 0.32837 0.0
C1575 C 0.13696 0.66145 0.3062 0.0
C1576 C 0.14228 0.6836 0.30995 0.0
C1577 C 0.15661 0.74737 0.3221 0.0
C1578 C 0.15181 0.72546 0.31777 0.0
H1579 H 0.0941 0.61314 0.29544 0.0
H1580 H 0.10383 0.65062 0.29856 0.0
H1581 H 0.15766 0.68498 0.33306 0.0
H1582 H 0.1955 0.79248 0.34073 0.0
H1583 H 0.18819 0.75714 0.33277 0.0
C1584 C 0.86031 0.03706 0.40005 0.0
C1585 C 0.85703 0.05417 0.40344 0.0
C1586 C 0.84266 0.01684 0.397 0.0
C1587 C 0.78383 0.98217 0.40099 0.0
H1588 H 0.78967 0.95673 0.36119 0.0
C1589 C 0.71266 0.90529 0.37274 0.0
C1590 C 0.71785 0.89097 0.36523 0.0
C1591 C 0.7291 0.92524 0.37814 0.0
C1592 C 0.78783 0.96338 0.37247 0.0
H1593 H 0.83311 0.06392 0.40693 0.0
H1594 H 0.8019 0.02822 0.4018 0.0
H1595 H 0.81924 0.99092 0.37026 0.0
H1596 H 0.74435 0.88606 0.35804 0.0
H1597 H 0.77281 0.9204 0.3677 0.0
H1598 H 0.75251 0.95437 0.40335 0.0
C1599 C 0.81811 0.03041 0.40156 0.0
C1600 C 0.80479 0.98304 0.37763 0.0
C1601 C 0.83587 0.05076 0.4045 0.0
C1602 C 0.73976 0.89684 0.3635 0.0
C1603 C 0.75613 0.91664 0.36901 0.0
C1604 C 0.76688 0.96229 0.39591 0.0
C1605 C 0.82141 0.01342 0.3973 0.0
C1606 C 0.80306 0.99259 0.39198 0.0
C1607 C 0.75107 0.93122 0.37626 0.0
C1608 C 0.76873 0.95258 0.38162 0.0
H1609 H 0.87658 0.03949 0.39907 0.0
H1610 H 0.84566 0.00399 0.39394 0.0
H1611 H 0.78211 0.98918 0.41212 0.0
H1612 H 0.69592 0.90123 0.37425 0.0
H1613 H 0.72457 0.93612 0.3835 0.0
C1614 C 0.96255 0.78711 0.4006 0.0
C1615 C 0.95861 0.80423 0.40054 0.0
C1616 C 0.9832 0.79036 0.39677 0.0
C1617 C 0.03274 0.82742 0.37415 0.0
H1618 H 0.05841 0.79839 0.39662 0.0
C1619 C 0.12042 0.84468 0.36108 0.0
C1620 C 0.12397 0.82727 0.36135 0.0
C1621 C 0.10036 0.84221 0.36584 0.0
C1622 C 0.05139 0.80643 0.39004 0.0
H1623 H 0.97285 0.83808 0.39666 0.0
H1624 H 0.00894 0.8439 0.39018 0.0
H1625 H 0.02356 0.79342 0.40551 0.0
H1626 H 0.10965 0.79386 0.36713 0.0
H1627 H 0.07463 0.78937 0.37509 0.0
H1628 H 0.06042 0.84022 0.35854 0.0
C1629 C 0.99621 0.82794 0.39306 0.0
C1630 C 0.03137 0.8036 0.39519 0.0
C1631 C 0.97563 0.82468 0.39697 0.0
C1632 C 0.10724 0.80748 0.36665 0.0
C1633 C 0.08723 0.80498 0.37135 0.0
C1634 C 0.05272 0.83017 0.36894 0.0
C1635 C 1.0002 0.81077 0.39262 0.0
C1636 C 0.02174 0.81404 0.38732 0.0
C1637 C 0.08352 0.82233 0.37116 0.0
C1638 C 0.06232 0.81967 0.37678 0.0
H1639 H 0.94952 0.77113 0.40305 0.0
H1640 H 0.9856 0.77673 0.39642 0.0
H1641 H 0.02568 0.83546 0.36761 0.0
H1642 H 0.13323 0.86025 0.35747 0.0
H1643 H 0.09827 0.85602 0.36572 0.0
C1644 C 0.23279 0.17817 0.39391 0.0
C1645 C 0.24085 0.16932 0.38272 0.0
C1646 C 0.2229 0.18957 0.38851 0.0
C1647 C 0.22222 0.22052 0.35325 0.0
H1648 H 0.17529 0.22078 0.3768 0.0
C1649 C 0.18603 0.27409 0.33535 0.0
C1650 C 0.1833 0.28517 0.34835 0.0
C1651 C 0.19105 0.25799 0.33829 0.0
C1652 C 0.18844 0.22092 0.37012 0.0
H1653 H 0.2447 0.16473 0.35725 0.0
H1654 H 0.22701 0.18437 0.34765 0.0
H1655 H 0.18678 0.1953 0.38409 0.0
H1656 H 0.18359 0.28782 0.37466 0.0
H1657 H 0.19231 0.25993 0.3797 0.0
H1658 H 0.22399 0.24635 0.33942 0.0
C1659 C 0.22848 0.18278 0.3606 0.0
C1660 C 0.19505 0.20634 0.37431 0.0
C1661 C 0.23841 0.17139 0.36605 0.0
C1662 C 0.1856 0.2797 0.36432 0.0
C1663 C 0.19042 0.26355 0.36724 0.0
C1664 C 0.21552 0.23504 0.349 0.0
C1665 C 0.22095 0.19234 0.37178 0.0
C1666 C 0.21233 0.20624 0.36616 0.0
C1667 C 0.19321 0.2525 0.35429 0.0
C1668 C 0.19886 0.2357 0.35763 0.0
H1669 H 0.2348 0.17691 0.40684 0.0
H1670 H 0.21762 0.19696 0.39747 0.0
H1671 H 0.23575 0.2211 0.34683 0.0
H1672 H 0.18433 0.27786 0.3229 0.0
H1673 H 0.19301 0.24968 0.32807 0.0
C1674 C 0.62377 0.50472 0.72153 0.0
C1675 C 0.62066 0.50015 0.73823 0.0
C1676 C 0.64326 0.52158 0.71583 0.0
C1677 C 0.69066 0.57211 0.72876 0.0
H1678 H 0.71798 0.56454 0.69059 0.0
C1679 C 0.76488 0.64254 0.69959 0.0
C1680 C 0.78224 0.63935 0.69576 0.0
C1681 C 0.74463 0.62533 0.70349 0.0
C1682 C 0.71056 0.56685 0.70128 0.0
H1683 H 0.63581 0.5098 0.76201 0.0
H1684 H 0.66968 0.53941 0.75209 0.0
H1685 H 0.68381 0.53488 0.70036 0.0
H1686 H 0.79229 0.61574 0.69349 0.0
H1687 H 0.75676 0.58551 0.70005 0.0
H1688 H 0.71745 0.60394 0.72984 0.0
C1689 C 0.65693 0.52999 0.74341 0.0
C1690 C 0.69092 0.54995 0.7068 0.0
C1691 C 0.63748 0.51305 0.74911 0.0
C1692 C 0.77902 0.61859 0.69588 0.0
C1693 C 0.75869 0.6013 0.69971 0.0
C1694 C 0.71017 0.58902 0.72319 0.0
C1695 C 0.66008 0.5344 0.7267 0.0
C1696 C 0.6808 0.55237 0.72066 0.0
C1697 C 0.74138 0.60455 0.70384 0.0
C1698 C 0.72038 0.58658 0.70942 0.0
H1699 H 0.61105 0.49538 0.71282 0.0
H1700 H 0.64505 0.52477 0.70292 0.0
H1701 H 0.6832 0.57456 0.73937 0.0
H1702 H 0.76708 0.65846 0.69978 0.0
H1703 H 0.73157 0.62833 0.70646 0.0
C1704 C 0.48957 0.10776 0.74278 0.0
C1705 C 0.51095 0.12491 0.74195 0.0
C1706 C 0.47203 0.11012 0.73781 0.0
C1707 C 0.45783 0.14489 0.71348 0.0
H1708 H 0.40456 0.11669 0.73813 0.0
C1709 C 0.38682 0.16174 0.70369 0.0
C1710 C 0.36574 0.14408 0.70358 0.0
C1711 C 0.40462 0.15945 0.70803 0.0
C1712 C 0.41922 0.1245 0.73099 0.0
H1713 H 0.53049 0.15811 0.7353 0.0
H1714 H 0.49994 0.1623 0.72678 0.0
H1715 H 0.4353 0.11271 0.74622 0.0
H1716 H 0.34657 0.1105 0.70891 0.0
H1717 H 0.37758 0.10637 0.71642 0.0
H1718 H 0.44168 0.15683 0.69834 0.0
C1719 C 0.49673 0.14686 0.73101 0.0
C1720 C 0.4369 0.12219 0.73562 0.0
C1721 C 0.51429 0.14447 0.73593 0.0
C1722 C 0.36271 0.12428 0.70857 0.0
C1723 C 0.38047 0.12197 0.71297 0.0
C1724 C 0.44015 0.14726 0.70888 0.0
C1725 C 0.47531 0.12973 0.73192 0.0
C1726 C 0.45647 0.13231 0.72693 0.0
C1727 C 0.40169 0.13951 0.71271 0.0
C1728 C 0.42059 0.13706 0.71756 0.0
H1729 H 0.48638 0.09235 0.74708 0.0
H1730 H 0.45587 0.09642 0.73842 0.0
H1731 H 0.47247 0.15268 0.70631 0.0
H1732 H 0.3896 0.17738 0.70057 0.0
H1733 H 0.42065 0.17339 0.70799 0.0
C1734 C 0.90704 0.3991 0.72403 0.0
C1735 C 0.90259 0.40249 0.74007 0.0
C1736 C 0.90023 0.37855 0.71831 0.0
C1737 C 0.88753 0.32589 0.73159 0.0
H1738 H 0.85642 0.30627 0.69067 0.0
C1739 C 0.85423 0.23961 0.70938 0.0
C1740 C 0.85481 0.2362 0.69267 0.0
C1741 C 0.85899 0.25958 0.71527 0.0
C1742 C 0.86537 0.31157 0.702 0.0
H1743 H 0.88715 0.38669 0.76254 0.0
H1744 H 0.87598 0.35087 0.75265 0.0
H1745 H 0.86707 0.34191 0.70067 0.0
H1746 H 0.86167 0.251 0.66905 0.0
H1747 H 0.8705 0.28603 0.67919 0.0
H1748 H 0.88664 0.29603 0.73277 0.0
C1749 C 0.88471 0.36423 0.74457 0.0
C1750 C 0.87135 0.33194 0.70775 0.0
C1751 C 0.89122 0.38476 0.75023 0.0
C1752 C 0.86045 0.25308 0.68192 0.0
C1753 C 0.86555 0.27317 0.68779 0.0
C1754 C 0.88186 0.30564 0.72574 0.0
C1755 C 0.88912 0.36095 0.72855 0.0
C1756 C 0.88247 0.33926 0.72259 0.0
C1757 C 0.86488 0.2767 0.70456 0.0
C1758 C 0.87069 0.29819 0.71087 0.0
H1759 H 0.91612 0.41235 0.71594 0.0
H1760 H 0.90405 0.37643 0.70596 0.0
H1761 H 0.89633 0.33129 0.74299 0.0
H1762 H 0.84981 0.22672 0.71789 0.0
H1763 H 0.85789 0.26152 0.72821 0.0
C1764 C 0.17065 0.9411 0.64034 0.0
C1765 C 0.1606 0.93805 0.62503 0.0
C1766 C 0.18526 0.96157 0.64601 0.0
C1767 C 0.2226 0.0156 0.63164 0.0
H1768 H 0.22176 0.03201 0.67641 0.0
C1769 C 0.29284 0.0917 0.6605 0.0
C1770 C 0.28718 0.10419 0.67018 0.0
C1771 C 0.27698 0.07156 0.65504 0.0
C1772 C 0.22212 0.02769 0.66385 0.0
H1773 H 0.1577 0.95432 0.60391 0.0
H1774 H 0.18348 0.99003 0.61373 0.0
H1775 H 0.19429 0.99673 0.66679 0.0
H1776 H 0.26022 0.10538 0.68134 0.0
H1777 H 0.23268 0.07013 0.67207 0.0
H1778 H 0.25042 0.04654 0.62869 0.0
C1779 C 0.18013 0.97651 0.62126 0.0
C1780 C 0.20651 0.00744 0.65839 0.0
C1781 C 0.16539 0.95604 0.61563 0.0
C1782 C 0.26526 0.09606 0.67421 0.0
C1783 C 0.24944 0.07585 0.66887 0.0
C1784 C 0.23831 0.03577 0.63714 0.0
C1785 C 0.19033 0.97949 0.63647 0.0
C1786 C 0.20659 0.00116 0.64222 0.0
C1787 C 0.25511 0.06341 0.65917 0.0
C1788 C 0.23828 0.04203 0.65331 0.0
H1789 H 0.16769 0.92764 0.64779 0.0
H1790 H 0.19307 0.96333 0.65769 0.0
H1791 H 0.22321 0.01116 0.61916 0.0
H1792 H 0.30953 0.09741 0.65712 0.0
H1793 H 0.28189 0.06226 0.64772 0.0
C1794 C 0.05269 0.23227 0.61725 0.0
C1795 C 0.05705 0.21543 0.61872 0.0
C1796 C 0.03321 0.23023 0.62299 0.0
C1797 C 0.98628 0.1971 0.65025 0.0
H1798 H 0.95929 0.22388 0.62637 0.0
C1799 C 0.89825 0.18008 0.66211 0.0
C1800 C 0.89498 0.19767 0.66198 0.0
C1801 C 0.9184 0.18242 0.65782 0.0
C1802 C 0.96671 0.21648 0.6333 0.0
H1803 H 0.044 0.18304 0.62718 0.0
H1804 H 0.00996 0.1793 0.63689 0.0
H1805 H 0.99323 0.22742 0.61679 0.0
H1806 H 0.90993 0.23128 0.6567 0.0
H1807 H 0.94503 0.23541 0.64917 0.0
H1808 H 0.95934 0.18585 0.66658 0.0
C1809 C 0.02179 0.19434 0.63166 0.0
C1810 C 0.98628 0.21855 0.62781 0.0
C1811 C 0.04133 0.19645 0.62603 0.0
C1812 C 0.91212 0.21752 0.65717 0.0
C1813 C 0.93217 0.21985 0.65276 0.0
C1814 C 0.96658 0.1949 0.65567 0.0
C1815 C 0.0174 0.21121 0.63026 0.0
C1816 C 0.99643 0.20894 0.6362 0.0
C1817 C 0.93555 0.2023 0.6529 0.0
C1818 C 0.95657 0.20462 0.64728 0.0
H1819 H 0.06453 0.24722 0.61191 0.0
H1820 H 0.03073 0.24375 0.62193 0.0
H1821 H 0.99368 0.18974 0.65723 0.0
H1822 H 0.88518 0.16442 0.66515 0.0
H1823 H 0.92032 0.1685 0.65785 0.0
C1824 C 0.77056 0.82851 0.63699 0.0
C1825 C 0.7773 0.83846 0.62182 0.0
C1826 C 0.77582 0.81321 0.6419 0.0
C1827 C 0.80172 0.79297 0.65352 0.0
H1828 H 0.79937 0.75025 0.62382 0.0
C1829 C 0.83587 0.73794 0.67046 0.0
C1830 C 0.82323 0.71641 0.66595 0.0
C1831 C 0.83065 0.753 0.66477 0.0
C1832 C 0.8 0.76202 0.63229 0.0
H1833 H 0.79442 0.83983 0.59974 0.0
H1834 H 0.80367 0.81307 0.60832 0.0
H1835 H 0.7884 0.7754 0.61441 0.0
H1836 H 0.79529 0.69392 0.65172 0.0
H1837 H 0.78614 0.72007 0.64197 0.0
H1838 H 0.81285 0.77932 0.6715 0.0
C1839 C 0.79414 0.81697 0.61636 0.0
C1840 C 0.79393 0.77656 0.62685 0.0
C1841 C 0.78883 0.83228 0.61144 0.0
C1842 C 0.80541 0.71035 0.65547 0.0
C1843 C 0.80022 0.72538 0.64977 0.0
C1844 C 0.8078 0.77845 0.65896 0.0
C1845 C 0.78798 0.80751 0.63176 0.0
C1846 C 0.7946 0.79213 0.63743 0.0
C1847 C 0.81274 0.74688 0.65436 0.0
C1848 C 0.80691 0.76273 0.64844 0.0
H1849 H 0.76133 0.83268 0.64514 0.0
H1850 H 0.7704 0.80588 0.65367 0.0
H1851 H 0.80273 0.80498 0.66192 0.0
H1852 H 0.84993 0.74323 0.67828 0.0
H1853 H 0.84081 0.7695 0.66835 0.0
C1854 C 0.04741 0.82238 0.62338 0.0
C1855 C 0.06132 0.83404 0.6362 0.0
C1856 C 0.02572 0.80725 0.6265 0.0
C1857 C 0.98297 0.78949 0.65836 0.0
H1858 H 0.95862 0.73543 0.6356 0.0
C1859 C 0.89393 0.72138 0.66672 0.0
C1860 C 0.8906 0.70059 0.66721 0.0
C1861 C 0.9144 0.73855 0.66299 0.0
C1862 C 0.96522 0.75039 0.64216 0.0
H1863 H 0.06398 0.83954 0.66215 0.0
H1864 H 0.02639 0.81302 0.66772 0.0
H1865 H 0.9947 0.76393 0.62866 0.0
H1866 H 0.90566 0.68128 0.66393 0.0
H1867 H 0.94145 0.71115 0.65772 0.0
H1868 H 0.95371 0.77558 0.67226 0.0
C1869 C 0.03181 0.81564 0.65523 0.0
C1870 C 0.98582 0.76687 0.63799 0.0
C1871 C 0.05337 0.83072 0.65208 0.0
C1872 C 0.90795 0.69723 0.66381 0.0
C1873 C 0.92836 0.71431 0.66012 0.0
C1874 C 0.96236 0.77296 0.66255 0.0
C1875 C 0.0177 0.80356 0.64252 0.0
C1876 C 0.99509 0.78657 0.64615 0.0
C1877 C 0.9318 0.73517 0.65943 0.0
C1878 C 0.95334 0.75311 0.65463 0.0
H1879 H 0.05334 0.82479 0.61102 0.0
H1880 H 0.01527 0.79842 0.6164 0.0
H1881 H 0.98947 0.80453 0.66476 0.0
H1882 H 0.88065 0.72434 0.66879 0.0
H1883 H 0.91641 0.75436 0.6624 0.0
C1884 C 0.1791 0.22116 0.62694 0.0
C1885 C 0.15836 0.20313 0.62621 0.0
C1886 C 0.19728 0.21908 0.63052 0.0
C1887 C 0.21592 0.17904 0.6336 0.0
H1888 H 0.2599 0.22137 0.66209 0.0
C1889 C 0.28301 0.16715 0.66394 0.0
C1890 C 0.30408 0.18483 0.66425 0.0
C1891 C 0.26532 0.1694 0.65911 0.0
C1892 C 0.24787 0.2095 0.65401 0.0
H1893 H 0.14013 0.16889 0.62854 0.0
H1894 H 0.17161 0.16514 0.6349 0.0
H1895 H 0.22941 0.22548 0.65333 0.0
H1896 H 0.32332 0.21844 0.65903 0.0
H1897 H 0.2925 0.22247 0.65071 0.0
H1898 H 0.23429 0.16293 0.63451 0.0
C1899 C 0.17416 0.18089 0.6324 0.0
C1900 C 0.23038 0.2119 0.6489 0.0
C1901 C 0.15607 0.18299 0.62877 0.0
C1902 C 0.30718 0.20466 0.65923 0.0
C1903 C 0.28951 0.20696 0.65453 0.0
C1904 C 0.23335 0.1766 0.63878 0.0
C1905 C 0.19504 0.19892 0.63359 0.0
C1906 C 0.21411 0.1967 0.63862 0.0
C1907 C 0.26833 0.18935 0.65437 0.0
C1908 C 0.24958 0.1918 0.64904 0.0
H1909 H 0.18119 0.23689 0.62519 0.0
H1910 H 0.21306 0.23332 0.63107 0.0
H1911 H 0.20396 0.16715 0.62549 0.0
H1912 H 0.28018 0.15155 0.66727 0.0
H1913 H 0.24925 0.15551 0.65921 0.0
C1914 C 0.81079 0.96263 0.6384 0.0
C1915 C 0.7897 0.94749 0.63367 0.0
C1916 C 0.81646 0.98392 0.64033 0.0
C1917 C 0.80056 0.02397 0.63096 0.0
H1918 H 0.82968 0.04916 0.67177 0.0
C1919 C 0.81052 0.10322 0.65574 0.0
C1920 C 0.82981 0.11695 0.66409 0.0
C1921 C 0.80615 0.08295 0.6509 0.0
C1922 C 0.82188 0.04255 0.66019 0.0
H1923 H 0.75807 0.94225 0.6267 0.0
H1924 H 0.76796 0.97975 0.63 0.0
H1925 H 0.82151 0.01333 0.66464 0.0
H1926 H 0.86009 0.12055 0.6733 0.0
H1927 H 0.85266 0.08543 0.66468 0.0
H1928 H 0.80102 0.05329 0.62649 0.0
C1929 C 0.78018 0.97524 0.63211 0.0
C1930 C 0.81716 0.02198 0.65613 0.0
C1931 C 0.77449 0.95387 0.63025 0.0
C1932 C 0.84488 0.11021 0.66716 0.0
C1933 C 0.84059 0.09003 0.66224 0.0
C1934 C 0.80544 0.04468 0.63497 0.0
C1935 C 0.80107 0.99037 0.63757 0.0
C1936 C 0.80645 0.01246 0.64149 0.0
C1937 C 0.82108 0.07605 0.65419 0.0
C1938 C 0.81613 0.05419 0.64966 0.0
H1939 H 0.82269 0.95788 0.64113 0.0
H1940 H 0.83275 0.99527 0.64433 0.0
H1941 H 0.79241 0.01705 0.61954 0.0
H1942 H 0.79858 0.10795 0.65318 0.0
H1943 H 0.79086 0.07252 0.6449 0.0
C1944 C 0.50342 0.38349 0.73706 0.0
C1945 C 0.52413 0.38636 0.7344 0.0
C1946 C 0.48506 0.36328 0.73512 0.0
C1947 C 0.46789 0.30564 0.73046 0.0
H1948 H 0.41905 0.3028 0.7071 0.0
C1949 C 0.40474 0.23013 0.69678 0.0
C1950 C 0.38274 0.22399 0.69856 0.0
C1951 C 0.42096 0.24972 0.7028 0.0
C1952 C 0.43245 0.30334 0.71381 0.0
H1953 H 0.54234 0.37089 0.72791 0.0
H1954 H 0.51053 0.33576 0.7243 0.0
H1955 H 0.4492 0.33735 0.71538 0.0
H1956 H 0.36056 0.23371 0.70802 0.0
H1957 H 0.38902 0.26811 0.7184 0.0
H1958 H 0.45142 0.27165 0.72834 0.0
C1959 C 0.50818 0.34874 0.72822 0.0
C1960 C 0.44971 0.32313 0.71862 0.0
C1961 C 0.52643 0.36886 0.73022 0.0
C1962 C 0.37735 0.23796 0.70643 0.0
C1963 C 0.39362 0.25769 0.71232 0.0
C1964 C 0.45074 0.2859 0.72551 0.0
C1965 C 0.48721 0.3457 0.7304 0.0
C1966 C 0.46783 0.32457 0.72678 0.0
C1967 C 0.4156 0.2637 0.71065 0.0
C1968 C 0.433 0.28456 0.71691 0.0
H1969 H 0.50139 0.39693 0.74019 0.0
H1970 H 0.4692 0.36149 0.73709 0.0
H1971 H 0.48132 0.30607 0.73701 0.0
H1972 H 0.40949 0.21971 0.69091 0.0
H1973 H 0.43775 0.25401 0.70115 0.0
C1974 C 0.64329 0.15903 0.73054 0.0
C1975 C 0.62536 0.13894 0.73364 0.0
C1976 C 0.66338 0.16112 0.72656 0.0
C1977 C 0.6956 0.13367 0.72798 0.0
H1978 H 0.72711 0.17144 0.69247 0.0
C1979 C 0.77123 0.13578 0.7003 0.0
C1980 C 0.78855 0.15551 0.6955 0.0
C1981 C 0.75136 0.13378 0.70481 0.0
C1982 C 0.71872 0.16104 0.70255 0.0
H1983 H 0.61414 0.10525 0.73522 0.0
H1984 H 0.64939 0.1088 0.72845 0.0
H1985 H 0.69279 0.16798 0.7012 0.0
H1986 H 0.799 0.18891 0.69243 0.0
H1987 H 0.76434 0.18557 0.70035 0.0
H1988 H 0.72158 0.12686 0.72947 0.0
C1989 C 0.64805 0.12303 0.72921 0.0
C1990 C 0.69897 0.15903 0.70756 0.0
C1991 C 0.62788 0.12095 0.73311 0.0
C1992 C 0.78574 0.17338 0.69562 0.0
C1993 C 0.76585 0.17142 0.70019 0.0
C1994 C 0.71541 0.13577 0.72304 0.0
C1995 C 0.66598 0.14312 0.72558 0.0
C1996 C 0.68712 0.14531 0.72034 0.0
C1997 C 0.74837 0.15158 0.70493 0.0
C1998 C 0.72726 0.14946 0.71023 0.0
H1999 H 0.64163 0.1731 0.73073 0.0
H2000 H 0.67685 0.17685 0.72409 0.0
H2001 H 0.68709 0.12317 0.73799 0.0
H2002 H 0.77306 0.1218 0.70049 0.0
H2003 H 0.73828 0.11819 0.70813 0.0
C2004 C 0.91353 0.5246 0.73935 0.0
C2005 C 0.90115 0.50369 0.7336 0.0
C2006 C 0.90624 0.53913 0.73703 0.0
C2007 C 0.85807 0.54355 0.72484 0.0
H2008 H 0.90172 0.5992 0.70974 0.0
C2009 C 0.8373 0.60235 0.69271 0.0
C2010 C 0.84985 0.62394 0.69709 0.0
C2011 C 0.84282 0.58747 0.69841 0.0
C2012 C 0.88936 0.58382 0.71412 0.0
H2013 H 0.87151 0.48108 0.72136 0.0
H2014 H 0.85879 0.50638 0.71711 0.0
H2015 H 0.91249 0.57375 0.71841 0.0
H2016 H 0.87776 0.64669 0.71123 0.0
H2017 H 0.88722 0.62083 0.72113 0.0
H2018 H 0.83489 0.55361 0.72016 0.0
C2019 C 0.87386 0.51165 0.72367 0.0
C2020 C 0.89555 0.56924 0.71917 0.0
C2021 C 0.88113 0.49716 0.72605 0.0
C2022 C 0.8678 0.63025 0.70748 0.0
C2023 C 0.87332 0.61543 0.71312 0.0
C2024 C 0.85186 0.55813 0.71971 0.0
C2025 C 0.88655 0.53295 0.72881 0.0
C2026 C 0.87998 0.54888 0.72452 0.0
C2027 C 0.861 0.59391 0.70858 0.0
C2028 C 0.86744 0.5784 0.71424 0.0
H2029 H 0.92912 0.52988 0.74513 0.0
H2030 H 0.91625 0.55532 0.74136 0.0
H2031 H 0.84569 0.52809 0.72907 0.0
H2032 H 0.8232 0.59689 0.68492 0.0
H2033 H 0.83308 0.571 0.69462 0.0
C2034 C 0.4348 0.89979 0.23064 0.0
C2035 C 0.44912 0.90482 0.24391 0.0
C2036 C 0.44235 0.90909 0.21544 0.0
C2037 C 0.49199 0.93786 0.19041 0.0
H2038 H 0.45784 0.95746 0.16705 0.0
C2039 C 0.52533 0.99397 0.13496 0.0
C2040 C 0.51105 0.99152 0.12217 0.0
C2041 C 0.51768 0.98208 0.14922 0.0
C2042 C 0.46744 0.95181 0.17325 0.0
H2043 H 0.48281 0.92337 0.25136 0.0
H2044 H 0.49602 0.93955 0.2248 0.0
H2045 H 0.44496 0.93934 0.1929 0.0
H2046 H 0.47743 0.97413 0.11436 0.0
H2047 H 0.46414 0.95303 0.13906 0.0
H2048 H 0.51452 0.95041 0.17077 0.0
C2049 C 0.47891 0.92826 0.22616 0.0
C2050 C 0.46005 0.94141 0.18813 0.0
C2051 C 0.47133 0.91896 0.24141 0.0
C2052 C 0.48894 0.97639 0.12388 0.0
C2053 C 0.48127 0.96446 0.13817 0.0
C2054 C 0.49936 0.94822 0.17549 0.0
C2055 C 0.46446 0.92366 0.21302 0.0
C2056 C 0.47225 0.93437 0.19697 0.0
C2057 C 0.4955 0.96731 0.15112 0.0
C2058 C 0.48725 0.95545 0.16672 0.0
H2059 H 0.41766 0.88861 0.23199 0.0
H2060 H 0.4308 0.9048 0.20555 0.0
H2061 H 0.50167 0.93239 0.19674 0.0
H2062 H 0.54251 0.00522 0.13402 0.0
H2063 H 0.52914 0.98491 0.15892 0.0
C2064 C 0.07364 0.54958 0.24915 0.0
C2065 C 0.08886 0.54287 0.25177 0.0
C2066 C 0.06442 0.54776 0.23374 0.0
C2067 C 0.0524 0.51649 0.19599 0.0
H2068 H 0.04206 0.55992 0.17774 0.0
C2069 C 0.01811 0.5086 0.13113 0.0
C2070 C 0.00263 0.515 0.1286 0.0
C2071 C 0.02966 0.51319 0.14578 0.0
C2072 C 0.04461 0.54753 0.18273 0.0
H2073 H 0.1072 0.5301 0.23998 0.0
H2074 H 0.09102 0.52679 0.21322 0.0
H2075 H 0.06046 0.56611 0.20398 0.0
H2076 H 0.98762 0.53175 0.13948 0.0
H2077 H 0.00722 0.53912 0.16517 0.0
H2078 H 0.03625 0.49771 0.175 0.0
C2079 C 0.08592 0.5331 0.22314 0.0
C2080 C 0.0552 0.55111 0.19776 0.0
C2081 C 0.09518 0.53499 0.23849 0.0
C2082 C 0.99919 0.5263 0.14106 0.0
C2083 C 0.01067 0.5308 0.15574 0.0
C2084 C 0.04172 0.51286 0.18103 0.0
C2085 C 0.07018 0.53914 0.22063 0.0
C2086 C 0.05923 0.53563 0.20455 0.0
C2087 C 0.02597 0.52419 0.15834 0.0
C2088 C 0.03767 0.52831 0.17419 0.0
H2089 H 0.06824 0.55552 0.25912 0.0
H2090 H 0.05222 0.55241 0.23224 0.0
H2091 H 0.05491 0.50408 0.20101 0.0
H2092 H 0.02106 0.49968 0.12191 0.0
H2093 H 0.04152 0.5081 0.14723 0.0
C2094 C 0.49175 0.55275 0.2409 0.0
C2095 C 0.47093 0.54882 0.24508 0.0
C2096 C 0.49595 0.54807 0.22535 0.0
C2097 C 0.4718 0.51693 0.18813 0.0
H2098 H 0.52391 0.56189 0.16836 0.0
C2099 C 0.49748 0.51118 0.12199 0.0
C2100 C 0.5197 0.51864 0.11961 0.0
C2101 C 0.49005 0.51473 0.13678 0.0
C2102 C 0.50942 0.54906 0.17373 0.0
H2103 H 0.43789 0.53575 0.2364 0.0
H2104 H 0.44523 0.52724 0.20908 0.0
H2105 H 0.51342 0.56726 0.19527 0.0
H2106 H 0.55153 0.53618 0.13086 0.0
H2107 H 0.53863 0.54185 0.15659 0.0
H2108 H 0.4681 0.49855 0.16665 0.0
C2109 C 0.45829 0.53413 0.21792 0.0
C2110 C 0.50339 0.55217 0.18916 0.0
C2111 C 0.45409 0.53895 0.23356 0.0
C2112 C 0.53429 0.52993 0.13231 0.0
C2113 C 0.52689 0.53345 0.14703 0.0
C2114 C 0.47794 0.51374 0.17266 0.0
C2115 C 0.47943 0.53918 0.21355 0.0
C2116 C 0.48473 0.53604 0.19667 0.0
C2117 C 0.50468 0.52591 0.14951 0.0
C2118 C 0.49705 0.52966 0.16538 0.0
H2119 H 0.50498 0.55981 0.24961 0.0
H2120 H 0.51227 0.55165 0.2225 0.0
H2121 H 0.45737 0.5042 0.19362 0.0
H2122 H 0.48577 0.50228 0.11253 0.0
H2123 H 0.47286 0.50885 0.1382 0.0
C2124 C 0.94893 0.45034 0.78984 0.0
C2125 C 0.93471 0.45726 0.78444 0.0
C2126 C 0.9573 0.45474 0.8056 0.0
C2127 C 0.96841 0.48992 0.84094 0.0
H2128 H 0.9696 0.44375 0.86376 0.0
C2129 C 0.99777 0.49705 0.90793 0.0
C2130 C 0.0113 0.48849 0.91123 0.0
C2131 C 0.98718 0.49343 0.8929 0.0
C2132 C 0.96955 0.45687 0.85753 0.0
H2133 H 0.91877 0.47496 0.79123 0.0
H2134 H 0.93358 0.48282 0.81896 0.0
H2135 H 0.95365 0.43758 0.8367 0.0
H2136 H 0.02401 0.46914 0.9014 0.0
H2137 H 0.0059 0.46313 0.87519 0.0
H2138 H 0.98462 0.50928 0.86179 0.0
C2139 C 0.93816 0.47391 0.8109 0.0
C2140 C 0.96039 0.45333 0.84201 0.0
C2141 C 0.9297 0.46943 0.79504 0.0
C2142 C 0.0139 0.47616 0.8992 0.0
C2143 C 0.00329 0.4725 0.88424 0.0
C2144 C 0.97763 0.49349 0.85651 0.0
C2145 C 0.95176 0.46627 0.81642 0.0
C2146 C 0.96006 0.46989 0.83341 0.0
C2147 C 0.98979 0.48107 0.88089 0.0
C2148 C 0.97864 0.47708 0.86486 0.0
H2149 H 0.95362 0.44143 0.78185 0.0
H2150 H 0.96818 0.44911 0.80933 0.0
H2151 H 0.96848 0.50302 0.83458 0.0
H2152 H 0.99558 0.50678 0.91689 0.0
H2153 H 0.97678 0.50014 0.89074 0.0
C2154 C 0.5605 0.48604 0.78329 0.0
C2155 C 0.56124 0.46742 0.77973 0.0
C2156 C 0.55232 0.48833 0.79809 0.0
C2157 C 0.51823 0.4581 0.83298 0.0
H2158 H 0.54825 0.51311 0.85454 0.0
C2159 C 0.48247 0.47929 0.88829 0.0
C2160 C 0.49675 0.4918 0.90079 0.0
C2161 C 0.49038 0.47552 0.87388 0.0
C2162 C 0.53977 0.49758 0.84878 0.0
H2163 H 0.55369 0.43649 0.78894 0.0
H2164 H 0.53939 0.44048 0.81482 0.0
H2165 H 0.5618 0.50793 0.82882 0.0
H2166 H 0.53062 0.51002 0.90789 0.0
H2167 H 0.54439 0.50312 0.88287 0.0
H2168 H 0.49638 0.44767 0.8531 0.0
C2169 C 0.54496 0.45325 0.80607 0.0
C2170 C 0.54739 0.49468 0.8339 0.0
C2171 C 0.55315 0.45094 0.79122 0.0
C2172 C 0.51914 0.50018 0.89859 0.0
C2173 C 0.52705 0.49642 0.88415 0.0
C2174 C 0.51059 0.461 0.84787 0.0
C2175 C 0.54465 0.47207 0.80976 0.0
C2176 C 0.53666 0.47494 0.82575 0.0
C2177 C 0.51278 0.48416 0.87156 0.0
C2178 C 0.52122 0.48081 0.85594 0.0
H2179 H 0.5662 0.49887 0.77458 0.0
H2180 H 0.5519 0.50285 0.80036 0.0
H2181 H 0.50947 0.44273 0.827 0.0
H2182 H 0.46511 0.47236 0.88965 0.0
H2183 H 0.47891 0.46617 0.86441 0.0
C2184 C 0.55942 0.10271 0.79361 0.0
C2185 C 0.54293 0.09555 0.78175 0.0
C2186 C 0.55596 0.09177 0.80835 0.0
C2187 C 0.51887 0.03973 0.82813 0.0
H2188 H 0.53834 0.0722 0.86826 0.0
C2189 C 0.48297 0.00189 0.8898 0.0
C2190 C 0.49724 0.00615 0.903 0.0
C2191 C 0.49024 0.01321 0.8753 0.0
C2192 C 0.533 0.06289 0.85716 0.0
H2193 H 0.51025 0.07065 0.77583 0.0
H2194 H 0.50408 0.05197 0.80139 0.0
H2195 H 0.54842 0.0907 0.84221 0.0
H2196 H 0.53041 0.0263 0.91125 0.0
H2197 H 0.54301 0.04637 0.88593 0.0
H2198 H 0.50304 0.012 0.84304 0.0
C2199 C 0.51977 0.06592 0.79941 0.0
C2200 C 0.53883 0.07349 0.84219 0.0
C2201 C 0.52322 0.07681 0.78476 0.0
C2202 C 0.51889 0.02265 0.90143 0.0
C2203 C 0.52615 0.03412 0.88689 0.0
C2204 C 0.51295 0.02919 0.84304 0.0
C2205 C 0.53597 0.07332 0.81151 0.0
C2206 C 0.53153 0.06207 0.82746 0.0
C2207 C 0.51197 0.02929 0.87356 0.0
C2208 C 0.51962 0.04064 0.85776 0.0
H2209 H 0.57476 0.11714 0.79172 0.0
H2210 H 0.56891 0.09782 0.81729 0.0
H2211 H 0.51337 0.03031 0.81709 0.0
H2212 H 0.46606 0.98974 0.89065 0.0
H2213 H 0.47875 0.0094 0.86543 0.0
C2214 C 0.11388 0.25763 0.57127 0.0
C2215 C 0.1152 0.23969 0.57612 0.0
C2216 C 0.12084 0.26652 0.55587 0.0
C2217 C 0.15498 0.26889 0.52098 0.0
H2218 H 0.12167 0.2899 0.49815 0.0
C2219 C 0.18767 0.32272 0.46434 0.0
C2220 C 0.17312 0.32061 0.45186 0.0
C2221 C 0.18022 0.31128 0.4788 0.0
C2222 C 0.13106 0.28391 0.50424 0.0
H2223 H 0.12519 0.21725 0.56847 0.0
H2224 H 0.13736 0.23277 0.54157 0.0
H2225 H 0.10957 0.27313 0.52455 0.0
H2226 H 0.13922 0.30421 0.44477 0.0
H2227 H 0.12619 0.28394 0.46993 0.0
H2228 H 0.17632 0.27946 0.50055 0.0
C2229 C 0.13109 0.24008 0.54978 0.0
C2230 C 0.12427 0.27453 0.51953 0.0
C2231 C 0.12413 0.23118 0.56523 0.0
C2232 C 0.15091 0.3062 0.45407 0.0
C2233 C 0.14342 0.29475 0.46859 0.0
C2234 C 0.16178 0.2783 0.50568 0.0
C2235 C 0.12934 0.25777 0.54481 0.0
C2236 C 0.13624 0.26707 0.52821 0.0
C2237 C 0.15796 0.29731 0.48124 0.0
C2238 C 0.15003 0.28612 0.49714 0.0
H2239 H 0.1075 0.2649 0.57943 0.0
H2240 H 0.11969 0.28042 0.55268 0.0
H2241 H 0.1647 0.26348 0.5273 0.0
H2242 H 0.20492 0.33341 0.463 0.0
H2243 H 0.19192 0.31387 0.48825 0.0
C2244 C 0.76098 0.86833 0.56715 0.0
C2245 C 0.75469 0.87529 0.58099 0.0
C2246 C 0.75155 0.8673 0.552 0.0
C2247 C 0.70233 0.86398 0.53363 0.0
H2248 H 0.73469 0.87479 0.49363 0.0
C2249 C 0.66502 0.86238 0.47078 0.0
C2250 C 0.66845 0.85089 0.45848 0.0
C2251 C 0.67636 0.86692 0.48551 0.0
C2252 C 0.72543 0.87161 0.50471 0.0
H2253 H 0.73386 0.88716 0.58956 0.0
H2254 H 0.71807 0.88615 0.56307 0.0
H2255 H 0.75338 0.88066 0.5197 0.0
H2256 H 0.68662 0.83515 0.45213 0.0
H2257 H 0.70665 0.84342 0.47772 0.0
H2258 H 0.67442 0.85504 0.5186 0.0
C2259 C 0.72995 0.881 0.56399 0.0
C2260 C 0.73611 0.87493 0.51965 0.0
C2261 C 0.73926 0.88188 0.57917 0.0
C2262 C 0.68378 0.84433 0.4612 0.0
C2263 C 0.69526 0.84903 0.47588 0.0
C2264 C 0.69171 0.86085 0.5187 0.0
C2265 C 0.73571 0.87337 0.55025 0.0
C2266 C 0.72466 0.87096 0.53432 0.0
C2267 C 0.69155 0.86024 0.48824 0.0
C2268 C 0.7031 0.86445 0.50408 0.0
H2269 H 0.77306 0.86344 0.56803 0.0
H2270 H 0.75629 0.86116 0.54176 0.0
H2271 H 0.69286 0.86037 0.54462 0.0
H2272 H 0.65366 0.86805 0.46901 0.0
H2273 H 0.67337 0.87583 0.49473 0.0
C2274 C 0.12093 0.87169 0.5692 0.0
C2275 C 0.1381 0.88489 0.57972 0.0
C2276 C 0.12512 0.86797 0.55322 0.0
C2277 C 0.16769 0.89187 0.52187 0.0
H2278 H 0.13934 0.83579 0.50197 0.0
C2279 C 0.20267 0.87305 0.46569 0.0
C2280 C 0.18843 0.85992 0.45342 0.0
C2281 C 0.1947 0.87594 0.48037 0.0
C2282 C 0.14718 0.85161 0.50727 0.0
H2283 H 0.17314 0.90331 0.58203 0.0
H2284 H 0.18035 0.89695 0.55442 0.0
H2285 H 0.12843 0.84067 0.5291 0.0
H2286 H 0.15458 0.83952 0.44701 0.0
H2287 H 0.1406 0.84473 0.47273 0.0
H2288 H 0.18662 0.90284 0.50027 0.0
C2289 C 0.16364 0.88995 0.55825 0.0
C2290 C 0.14092 0.8544 0.52281 0.0
C2291 C 0.15948 0.8936 0.57411 0.0
C2292 C 0.16597 0.84986 0.45617 0.0
C2293 C 0.15797 0.85268 0.47095 0.0
C2294 C 0.17392 0.8891 0.50641 0.0
C2295 C 0.14656 0.87738 0.5475 0.0
C2296 C 0.15147 0.87449 0.53042 0.0
C2297 C 0.17226 0.86579 0.48322 0.0
C2298 C 0.16408 0.86887 0.49904 0.0
H2299 H 0.10428 0.86473 0.57317 0.0
H2300 H 0.1116 0.85819 0.54522 0.0
H2301 H 0.1758 0.90767 0.52722 0.0
H2302 H 0.22005 0.88123 0.46391 0.0
H2303 H 0.20619 0.88594 0.48961 0.0
C2304 C 0.6166 0.78165 0.11992 0.0
C2305 C 0.6035 0.78969 0.11411 0.0
C2306 C 0.62467 0.78588 0.13577 0.0
C2307 C 0.63722 0.82231 0.17049 0.0
H2308 H 0.6358 0.77555 0.19436 0.0
C2309 C 0.66534 0.82973 0.2378 0.0
C2310 C 0.67817 0.82052 0.24149 0.0
C2311 C 0.65501 0.82616 0.22266 0.0
C2312 C 0.63647 0.78882 0.18782 0.0
H2313 H 0.58912 0.80903 0.12029 0.0
H2314 H 0.60339 0.81654 0.14817 0.0
H2315 H 0.62012 0.76932 0.16718 0.0
H2316 H 0.68993 0.80007 0.23229 0.0
H2317 H 0.67223 0.79411 0.2059 0.0
H2318 H 0.65384 0.84185 0.19116 0.0
C2319 C 0.60736 0.80694 0.14035 0.0
C2320 C 0.62748 0.78525 0.17225 0.0
C2321 C 0.5992 0.80265 0.12442 0.0
C2322 C 0.68035 0.80759 0.22977 0.0
C2323 C 0.66999 0.80397 0.21471 0.0
C2324 C 0.64626 0.8259 0.18613 0.0
C2325 C 0.61993 0.79832 0.14626 0.0
C2326 C 0.62808 0.80202 0.16328 0.0
C2327 C 0.65718 0.81318 0.21096 0.0
C2328 C 0.6463 0.80924 0.19485 0.0
H2329 H 0.6207 0.77209 0.11217 0.0
H2330 H 0.63476 0.77946 0.1398 0.0
H2331 H 0.63805 0.83558 0.16386 0.0
H2332 H 0.66349 0.83992 0.24653 0.0
H2333 H 0.64514 0.83338 0.22019 0.0
C2334 C 0.20668 0.79519 0.11707 0.0
C2335 C 0.22905 0.80296 0.11538 0.0
C2336 C 0.19822 0.79729 0.13184 0.0
C2337 C 0.21121 0.80799 0.17591 0.0
H2338 H 0.16623 0.82334 0.17491 0.0
C2339 C 0.18529 0.83664 0.23295 0.0
C2340 C 0.163 0.82909 0.23499 0.0
C2341 C 0.19302 0.83246 0.2186 0.0
C2342 C 0.17861 0.81881 0.17541 0.0
H2343 H 0.25994 0.81849 0.12814 0.0
H2344 H 0.24532 0.82268 0.15367 0.0
H2345 H 0.18017 0.81775 0.1495 0.0
H2346 H 0.13134 0.81062 0.22364 0.0
H2347 H 0.14485 0.80354 0.1986 0.0
H2348 H 0.20982 0.80939 0.20185 0.0
C2349 C 0.23423 0.81475 0.14365 0.0
C2350 C 0.18659 0.81557 0.16083 0.0
C2351 C 0.24268 0.8126 0.12891 0.0
C2352 C 0.14864 0.81705 0.22238 0.0
C2353 C 0.15638 0.81295 0.20802 0.0
C2354 C 0.20329 0.81134 0.1905 0.0
C2355 C 0.2119 0.80723 0.14529 0.0
C2356 C 0.20304 0.81016 0.16087 0.0
C2357 C 0.17867 0.8207 0.20591 0.0
C2358 C 0.18692 0.81683 0.19042 0.0
H2359 H 0.19571 0.78784 0.10689 0.0
H2360 H 0.18091 0.79105 0.1327 0.0
H2361 H 0.22362 0.80351 0.17644 0.0
H2362 H 0.19686 0.84621 0.24229 0.0
H2363 H 0.21031 0.83888 0.21729 0.0
C2364 C 0.209 0.43969 0.13223 0.0
C2365 C 0.21368 0.43148 0.11831 0.0
C2366 C 0.20537 0.42935 0.14717 0.0
C2367 C 0.20954 0.38636 0.16937 0.0
H2368 H 0.16363 0.38552 0.19511 0.0
C2369 C 0.18385 0.34341 0.23188 0.0
C2370 C 0.16151 0.33232 0.23527 0.0
C2371 C 0.19185 0.35682 0.21832 0.0
C2372 C 0.17638 0.3854 0.18806 0.0
H2373 H 0.21892 0.40636 0.10925 0.0
H2374 H 0.21204 0.38788 0.13525 0.0
H2375 H 0.1747 0.40581 0.17019 0.0
H2376 H 0.13024 0.32739 0.22723 0.0
H2377 H 0.14394 0.34996 0.20354 0.0
H2378 H 0.21041 0.36505 0.18698 0.0
C2379 C 0.21157 0.40257 0.13476 0.0
C2380 C 0.18303 0.3974 0.17381 0.0
C2381 C 0.21549 0.41312 0.11981 0.0
C2382 C 0.14749 0.33534 0.22491 0.0
C2383 C 0.15544 0.34861 0.21138 0.0
C2384 C 0.20276 0.3742 0.18362 0.0
C2385 C 0.20598 0.41028 0.14859 0.0
C2386 C 0.19964 0.39802 0.16417 0.0
C2387 C 0.17772 0.35952 0.20781 0.0
C2388 C 0.18592 0.37338 0.1931 0.0
H2389 H 0.20776 0.45397 0.13148 0.0
H2390 H 0.20176 0.4362 0.15757 0.0
H2391 H 0.22254 0.38658 0.16244 0.0
H2392 H 0.19514 0.34141 0.2395 0.0
H2393 H 0.20914 0.36512 0.21612 0.0
C2394 C 0.77155 0.56891 0.89815 0.0
C2395 C 0.78544 0.57375 0.91168 0.0
C2396 C 0.77946 0.57891 0.88321 0.0
C2397 C 0.82527 0.62729 0.86529 0.0
H2398 H 0.80212 0.59712 0.82459 0.0
C2399 C 0.86007 0.66703 0.80345 0.0
C2400 C 0.84523 0.66365 0.79085 0.0
C2401 C 0.85328 0.65519 0.81779 0.0
C2402 C 0.80863 0.60585 0.83584 0.0
H2403 H 0.81879 0.59272 0.91984 0.0
H2404 H 0.83269 0.60985 0.89369 0.0
H2405 H 0.7898 0.57804 0.85022 0.0
H2406 H 0.81153 0.64474 0.7835 0.0
H2407 H 0.79968 0.62403 0.80849 0.0
H2408 H 0.84402 0.6551 0.85094 0.0
C2409 C 0.81555 0.59852 0.89472 0.0
C2410 C 0.80155 0.59489 0.85057 0.0
C2411 C 0.80761 0.5885 0.9097 0.0
C2412 C 0.82347 0.64766 0.79284 0.0
C2413 C 0.81667 0.63577 0.80721 0.0
C2414 C 0.83237 0.63822 0.85057 0.0
C2415 C 0.80153 0.59404 0.8813 0.0
C2416 C 0.80969 0.60548 0.86553 0.0
C2417 C 0.83144 0.63956 0.81997 0.0
C2418 C 0.82409 0.62769 0.83563 0.0
H2419 H 0.75444 0.55741 0.89911 0.0
H2420 H 0.7681 0.57513 0.87325 0.0
H2421 H 0.83164 0.63611 0.87652 0.0
H2422 H 0.87704 0.67888 0.80225 0.0
H2423 H 0.86523 0.65827 0.82717 0.0
C2424 C 0.42688 0.19555 0.89702 0.0
C2425 C 0.42621 0.20754 0.91023 0.0
C2426 C 0.41539 0.19365 0.88274 0.0
C2427 C 0.36958 0.1982 0.86632 0.0
H2428 H 0.3965 0.20028 0.82499 0.0
C2429 C 0.32138 0.17217 0.80584 0.0
C2430 C 0.33147 0.18396 0.79183 0.0
C2431 C 0.33294 0.17626 0.82044 0.0
C2432 C 0.3888 0.19987 0.8364 0.0
H2433 H 0.41277 0.22683 0.91881 0.0
H2434 H 0.39282 0.22371 0.89372 0.0
H2435 H 0.41684 0.20558 0.85009 0.0
H2436 H 0.36144 0.20974 0.78233 0.0
H2437 H 0.3816 0.21692 0.80779 0.0
H2438 H 0.3416 0.19271 0.85258 0.0
C2439 C 0.40214 0.21563 0.8945 0.0
C2440 C 0.40038 0.20266 0.85081 0.0
C2441 C 0.41371 0.21758 0.90882 0.0
C2442 C 0.3533 0.20013 0.79282 0.0
C2443 C 0.36485 0.20424 0.80742 0.0
C2444 C 0.35797 0.19539 0.85188 0.0
C2445 C 0.40293 0.20371 0.88127 0.0
C2446 C 0.39085 0.20167 0.86595 0.0
C2447 C 0.35485 0.19227 0.82139 0.0
C2448 C 0.36739 0.19604 0.83675 0.0
H2449 H 0.43657 0.18785 0.89761 0.0
H2450 H 0.41615 0.18413 0.87287 0.0
H2451 H 0.36171 0.19721 0.87778 0.0
H2452 H 0.30467 0.15942 0.80543 0.0
H2453 H 0.32483 0.16652 0.83089 0.0
C2454 C 0.82108 0.2218 0.90831 0.0
C2455 C 0.80062 0.21948 0.91154 0.0
C2456 C 0.82567 0.21649 0.89311 0.0
C2457 C 0.80223 0.18611 0.85542 0.0
H2458 H 0.85694 0.22862 0.83709 0.0
C2459 C 0.8293 0.17885 0.79015 0.0
C2460 C 0.85133 0.18509 0.78819 0.0
C2461 C 0.82187 0.1828 0.80478 0.0
C2462 C 0.84172 0.21644 0.84207 0.0
H2463 H 0.76853 0.20861 0.90154 0.0
H2464 H 0.77652 0.19899 0.87487 0.0
H2465 H 0.84596 0.23487 0.86351 0.0
H2466 H 0.88282 0.20079 0.80009 0.0
H2467 H 0.86986 0.20704 0.82558 0.0
H2468 H 0.79822 0.16748 0.83404 0.0
C2469 C 0.78902 0.20509 0.88418 0.0
C2470 C 0.8354 0.22006 0.85722 0.0
C2471 C 0.78443 0.21055 0.89944 0.0
C2472 C 0.86571 0.19548 0.80119 0.0
C2473 C 0.8583 0.19935 0.81578 0.0
C2474 C 0.80864 0.18239 0.84024 0.0
C2475 C 0.80989 0.20855 0.88074 0.0
C2476 C 0.81574 0.20484 0.86419 0.0
C2477 C 0.83629 0.19311 0.8178 0.0
C2478 C 0.82864 0.1974 0.83347 0.0
H2479 H 0.83375 0.22812 0.91748 0.0
H2480 H 0.84173 0.21884 0.89098 0.0
H2481 H 0.78701 0.17406 0.8605 0.0
H2482 H 0.81772 0.17063 0.78046 0.0
H2483 H 0.80486 0.17793 0.80583 0.0
C2484 C 0.2717 0.1395 0.45753 0.0
C2485 C 0.27307 0.1248 0.44713 0.0
C2486 C 0.2794 0.14226 0.47352 0.0
C2487 C 0.29394 0.11565 0.5056 0.0
H2488 H 0.32572 0.17232 0.52436 0.0
C2489 C 0.344 0.13363 0.56468 0.0
C2490 C 0.34312 0.14783 0.5759 0.0
C2491 C 0.33437 0.13057 0.54935 0.0
C2492 C 0.31664 0.15637 0.51937 0.0
H2493 H 0.28415 0.1019 0.44523 0.0
H2494 H 0.29771 0.1068 0.47303 0.0
H2495 H 0.31115 0.16763 0.49682 0.0
H2496 H 0.3314 0.16995 0.57982 0.0
H2497 H 0.3144 0.16448 0.55304 0.0
H2498 H 0.29968 0.10444 0.52806 0.0
C2499 C 0.29023 0.11586 0.46898 0.0
C2500 C 0.30827 0.15367 0.50358 0.0
C2501 C 0.28248 0.11306 0.45303 0.0
C2502 C 0.33222 0.15879 0.57149 0.0
C2503 C 0.32268 0.15582 0.5561 0.0
C2504 C 0.30235 0.11836 0.52135 0.0
C2505 C 0.28872 0.13043 0.47946 0.0
C2506 C 0.29697 0.13329 0.49645 0.0
C2507 C 0.32368 0.1417 0.54485 0.0
C2508 C 0.31394 0.13876 0.52837 0.0
H2509 H 0.26433 0.14862 0.45338 0.0
H2510 H 0.27775 0.15343 0.48131 0.0
H2511 H 0.28495 0.09969 0.50062 0.0
H2512 H 0.35208 0.12478 0.56778 0.0
H2513 H 0.33562 0.11974 0.54092 0.0
C2514 C 0.90808 0.14663 0.46236 0.0
C2515 C 0.89436 0.13574 0.44913 0.0
C2516 C 0.89956 0.14859 0.47711 0.0
C2517 C 0.85093 0.14662 0.49481 0.0
H2518 H 0.87616 0.1426 0.53558 0.0
C2519 C 0.81393 0.14812 0.55685 0.0
C2520 C 0.82843 0.16037 0.56933 0.0
C2521 C 0.82156 0.14415 0.54238 0.0
C2522 C 0.86906 0.14397 0.5243 0.0
H2523 H 0.86081 0.11827 0.44115 0.0
H2524 H 0.84588 0.12138 0.467 0.0
H2525 H 0.88998 0.13718 0.51002 0.0
H2526 H 0.86238 0.17808 0.57628 0.0
H2527 H 0.87568 0.17113 0.55104 0.0
H2528 H 0.83007 0.1535 0.5091 0.0
C2529 C 0.8633 0.12863 0.46588 0.0
C2530 C 0.87698 0.14086 0.50964 0.0
C2531 C 0.87184 0.12665 0.4511 0.0
C2532 C 0.85074 0.16834 0.56703 0.0
C2533 C 0.85836 0.16435 0.55255 0.0
C2534 C 0.84299 0.14971 0.50948 0.0
C2535 C 0.87706 0.13969 0.47905 0.0
C2536 C 0.86811 0.14226 0.49469 0.0
C2537 C 0.84388 0.15231 0.54 0.0
C2538 C 0.85203 0.14853 0.52441 0.0
H2539 H 0.92548 0.15357 0.46136 0.0
H2540 H 0.91067 0.15741 0.48691 0.0
H2541 H 0.84393 0.14815 0.48355 0.0
H2542 H 0.79662 0.1414 0.55832 0.0
H2543 H 0.80992 0.13451 0.53309 0.0
C2544 C 0.88473 0.754 0.45517 0.0
C2545 C 0.88018 0.77056 0.45257 0.0
C2546 C 0.88085 0.74399 0.47036 0.0
C2547 C 0.84679 0.73439 0.50676 0.0
H2548 H 0.88222 0.71314 0.52575 0.0
C2549 C 0.81605 0.67437 0.55951 0.0
C2550 C 0.83062 0.67685 0.57208 0.0
C2551 C 0.82329 0.6867 0.54545 0.0
C2552 C 0.87224 0.71913 0.52069 0.0
H2553 H 0.86955 0.79061 0.46422 0.0
H2554 H 0.86308 0.77345 0.4906 0.0
H2555 H 0.89369 0.73358 0.50055 0.0
H2556 H 0.86434 0.69442 0.57959 0.0
H2557 H 0.87698 0.71617 0.55505 0.0
H2558 H 0.82542 0.72015 0.52684 0.0
C2559 C 0.86902 0.7677 0.48085 0.0
C2560 C 0.87871 0.73066 0.50614 0.0
C2561 C 0.87281 0.77761 0.46572 0.0
C2562 C 0.85265 0.69218 0.57022 0.0
C2563 C 0.85993 0.70449 0.55607 0.0
C2564 C 0.84031 0.72284 0.52122 0.0
C2565 C 0.87242 0.75038 0.48329 0.0
C2566 C 0.86603 0.73843 0.49896 0.0
C2567 C 0.84533 0.7019 0.54349 0.0
C2568 C 0.85285 0.71492 0.52835 0.0
H2569 H 0.89031 0.74812 0.44527 0.0
H2570 H 0.88359 0.73065 0.47175 0.0
H2571 H 0.83642 0.73983 0.50153 0.0
H2572 H 0.79894 0.66291 0.56057 0.0
H2573 H 0.81159 0.68407 0.53598 0.0
loop_
_geom_bond_atom_site_label_1
_geom_bond_atom_site_label_2
_geom_bond_distance
_geom_bond_site_symmetry_2
_ccdc_geom_bond_type
H0 C3 0.929 . S
H1 C6 0.929 . S
H2 C8 0.930 . S
C3 H0 0.929 . S
C3 C4 1.398 . S
C3 C5 1.396 . S
C4 C3 1.398 . S
C4 C8 1.407 . S
C5 C3 1.396 . S
C5 C6 1.394 . S
C6 H1 0.929 . S
C6 C5 1.394 . S
C6 C7 1.382 . S
C7 C6 1.382 . S
C7 C8 1.392 . S
C7 N9 1.420 . S
C8 H2 0.930 . S
C8 C4 1.407 . S
C8 C7 1.392 . S
N9 C7 1.420 . S
N9 C10 1.244 . S
C10 N9 1.244 . S
H11 C14 0.929 . S
H12 C17 0.929 . S
H13 C19 0.930 . S
C14 H11 0.929 . S
C14 C15 1.398 . S
C14 C16 1.396 . S
C15 C14 1.398 . S
C15 C19 1.407 . S
C16 C14 1.396 . S
C16 C17 1.394 . S
C17 H12 0.929 . S
C17 C16 1.394 . S
C17 C18 1.382 . S
C18 C17 1.382 . S
C18 C19 1.392 . S
C18 N20 1.420 . S
C19 H13 0.930 . S
C19 C15 1.407 . S
C19 C18 1.392 . S
N20 C18 1.420 . S
N20 C21 1.244 . S
C21 N20 1.244 . S
H22 C25 0.929 . S
H23 C28 0.929 . S
H24 C30 0.930 . S
C25 H22 0.929 . S
C25 C26 1.398 . S
C25 C27 1.396 . S
C26 C25 1.398 . S
C26 C30 1.407 . S
C27 C25 1.396 . S
C27 C28 1.394 . S
C28 H23 0.929 . S
C28 C27 1.394 . S
C28 C29 1.382 . S
C29 C28 1.382 . S
C29 C30 1.392 . S
C29 N31 1.420 . S
C30 H24 0.930 . S
C30 C26 1.407 . S
C30 C29 1.392 . S
N31 C29 1.420 . S
N31 C32 1.244 . S
C32 N31 1.244 . S
H33 C36 0.929 . S
H34 C39 0.929 . S
H35 C41 0.930 . S
C36 H33 0.929 . S
C36 C37 1.398 . S
C36 C38 1.396 . S
C37 C36 1.398 . S
C37 C41 1.407 . S
C38 C36 1.396 . S
C38 C39 1.394 . S
C39 H34 0.929 . S
C39 C38 1.394 . S
C39 C40 1.382 . S
C40 C39 1.382 . S
C40 C41 1.392 . S
C40 N42 1.420 . S
C41 H35 0.930 . S
C41 C37 1.407 . S
C41 C40 1.392 . S
N42 C40 1.420 . S
N42 C43 1.244 . S
C43 N42 1.244 . S
H44 C47 0.929 . S
H45 C50 0.929 . S
H46 C52 0.930 . S
C47 H44 0.929 . S
C47 C48 1.398 . S
C47 C49 1.396 . S
C48 C47 1.398 . S
C48 C52 1.407 . S
C49 C47 1.396 . S
C49 C50 1.394 . S
C50 H45 0.929 . S
C50 C49 1.394 . S
C50 C51 1.382 . S
C51 C50 1.382 . S
C51 C52 1.392 . S
C51 N53 1.420 . S
C52 H46 0.930 . S
C52 C48 1.407 . S
C52 C51 1.392 . S
N53 C51 1.420 . S
N53 C54 1.244 . S
C54 N53 1.244 . S
H55 C58 0.929 . S
H56 C61 0.929 . S
H57 C63 0.930 . S
C58 H55 0.929 . S
C58 C59 1.398 . S
C58 C60 1.396 . S
C59 C58 1.398 . S
C59 C63 1.407 . S
C60 C58 1.396 . S
C60 C61 1.394 . S
C61 H56 0.929 . S
C61 C60 1.394 . S
C61 C62 1.382 . S
C62 C61 1.382 . S
C62 C63 1.392 . S
C62 N64 1.420 . S
C63 H57 0.930 . S
C63 C59 1.407 . S
C63 C62 1.392 . S
N64 C62 1.420 . S
N64 C65 1.244 . S
C65 N64 1.244 . S
H66 C69 0.929 . S
H67 C72 0.929 . S
H68 C74 0.930 . S
C69 H66 0.929 . S
C69 C70 1.398 . S
C69 C71 1.396 . S
C70 C69 1.398 . S
C70 C74 1.407 . S
C71 C69 1.396 . S
C71 C72 1.394 . S
C72 H67 0.929 . S
C72 C71 1.394 . S
C72 C73 1.382 . S
C73 C72 1.382 . S
C73 C74 1.392 . S
C73 N75 1.420 . S
C74 H68 0.930 . S
C74 C70 1.407 . S
C74 C73 1.392 . S
N75 C73 1.420 . S
N75 C76 1.244 . S
C76 N75 1.244 . S
H77 C80 0.929 . S
H78 C83 0.929 . S
H79 C85 0.930 . S
C80 H77 0.929 . S
C80 C81 1.398 . S
C80 C82 1.396 . S
C81 C80 1.398 . S
C81 C85 1.407 . S
C82 C80 1.396 . S
C82 C83 1.394 . S
C83 H78 0.929 . S
C83 C82 1.394 . S
C83 C84 1.382 . S
C84 C83 1.382 . S
C84 C85 1.392 . S
C84 N86 1.420 . S
C85 H79 0.930 . S
C85 C81 1.407 . S
C85 C84 1.392 . S
N86 C84 1.420 . S
N86 C87 1.244 . S
C87 N86 1.244 . S
H88 C91 0.929 . S
H89 C94 0.929 . S
H90 C96 0.930 . S
C91 H88 0.929 . S
C91 C92 1.398 . S
C91 C93 1.396 . S
C92 C91 1.398 . S
C92 C96 1.407 . S
C93 C91 1.396 . S
C93 C94 1.394 . S
C94 H89 0.929 . S
C94 C93 1.394 . S
C94 C95 1.382 . S
C95 C94 1.382 . S
C95 C96 1.392 . S
C95 N97 1.420 . S
C96 H90 0.930 . S
C96 C92 1.407 . S
C96 C95 1.392 . S
N97 C95 1.420 . S
N97 C98 1.244 . S
C98 N97 1.244 . S
H99 C102 0.929 . S
H100 C105 0.929 . S
H101 C107 0.930 . S
C102 H99 0.929 . S
C102 C103 1.398 . S
C102 C104 1.396 . S
C103 C102 1.398 . S
C103 C107 1.407 . S
C104 C102 1.396 . S
C104 C105 1.394 . S
C105 H100 0.929 . S
C105 C104 1.394 . S
C105 C106 1.382 . S
C106 C105 1.382 . S
C106 C107 1.392 . S
C106 N108 1.420 . S
C107 H101 0.930 . S
C107 C103 1.407 . S
C107 C106 1.392 . S
N108 C106 1.420 . S
N108 C109 1.244 . S
C109 N108 1.244 . S
H110 C113 0.929 . S
H111 C116 0.929 . S
H112 C118 0.930 . S
C113 H110 0.929 . S
C113 C114 1.398 . S
C113 C115 1.396 . S
C114 C113 1.398 . S
C114 C118 1.407 . S
C115 C113 1.396 . S
C115 C116 1.394 . S
C116 H111 0.929 . S
C116 C115 1.394 . S
C116 C117 1.382 . S
C117 C116 1.382 . S
C117 C118 1.392 . S
C117 N119 1.420 . S
C118 H112 0.930 . S
C118 C114 1.407 . S
C118 C117 1.392 . S
N119 C117 1.420 . S
N119 C120 1.244 . S
C120 N119 1.244 . S
H121 C124 0.929 . S
H122 C127 0.929 . S
H123 C129 0.930 . S
C124 H121 0.929 . S
C124 C125 1.398 . S
C124 C126 1.396 . S
C125 C124 1.398 . S
C125 C129 1.407 . S
C126 C124 1.396 . S
C126 C127 1.394 . S
C127 H122 0.929 . S
C127 C126 1.394 . S
C127 C128 1.382 . S
C128 C127 1.382 . S
C128 C129 1.392 . S
C128 N130 1.420 . S
C129 H123 0.930 . S
C129 C125 1.407 . S
C129 C128 1.392 . S
N130 C128 1.420 . S
N130 C131 1.244 . S
C131 N130 1.244 . S
H132 C135 0.929 . S
H133 C138 0.929 . S
H134 C140 0.930 . S
C135 H132 0.929 . S
C135 C136 1.398 . S
C135 C137 1.396 . S
C136 C135 1.398 . S
C136 C140 1.407 . S
C137 C135 1.396 . S
C137 C138 1.394 . S
C138 H133 0.929 . S
C138 C137 1.394 . S
C138 C139 1.382 . S
C139 C138 1.382 . S
C139 C140 1.392 . S
C139 N141 1.420 . S
C140 H134 0.930 . S
C140 C136 1.407 . S
C140 C139 1.392 . S
N141 C139 1.420 . S
N141 C142 1.244 . S
C142 N141 1.244 . S
H143 C146 0.929 . S
H144 C149 0.929 . S
H145 C151 0.930 . S
C146 H143 0.929 . S
C146 C147 1.398 . S
C146 C148 1.396 . S
C147 C146 1.398 . S
C147 C151 1.407 . S
C148 C146 1.396 . S
C148 C149 1.394 . S
C149 H144 0.929 . S
C149 C148 1.394 . S
C149 C150 1.382 . S
C150 C149 1.382 . S
C150 C151 1.392 . S
C150 N152 1.420 . S
C151 H145 0.930 . S
C151 C147 1.407 . S
C151 C150 1.392 . S
N152 C150 1.420 . S
N152 C153 1.244 . S
C153 N152 1.244 . S
H154 C157 0.929 . S
H155 C160 0.929 . S
H156 C162 0.930 . S
C157 H154 0.929 . S
C157 C158 1.398 . S
C157 C159 1.396 . S
C158 C157 1.398 . S
C158 C162 1.407 . S
C159 C157 1.396 . S
C159 C160 1.394 . S
C160 H155 0.929 . S
C160 C159 1.394 . S
C160 C161 1.382 . S
C161 C160 1.382 . S
C161 C162 1.392 . S
C161 N163 1.420 . S
C162 H156 0.930 . S
C162 C158 1.407 . S
C162 C161 1.392 . S
N163 C161 1.420 . S
N163 C164 1.244 . S
C164 N163 1.244 . S
H165 C168 0.929 . S
H166 C171 0.929 . S
H167 C173 0.930 . S
C168 H165 0.929 . S
C168 C169 1.398 . S
C168 C170 1.396 . S
C169 C168 1.398 . S
C169 C173 1.407 . S
C170 C168 1.396 . S
C170 C171 1.394 . S
C171 H166 0.929 . S
C171 C170 1.394 . S
C171 C172 1.382 . S
C172 C171 1.382 . S
C172 C173 1.392 . S
C172 N174 1.420 . S
C173 H167 0.930 . S
C173 C169 1.407 . S
C173 C172 1.392 . S
N174 C172 1.420 . S
N174 C175 1.244 . S
C175 N174 1.244 . S
H176 C179 0.929 . S
H177 C182 0.929 . S
H178 C184 0.930 . S
C179 H176 0.929 . S
C179 C180 1.398 . S
C179 C181 1.396 . S
C180 C179 1.398 . S
C180 C184 1.407 . S
C181 C179 1.396 . S
C181 C182 1.394 . S
C182 H177 0.929 . S
C182 C181 1.394 . S
C182 C183 1.382 . S
C183 C182 1.382 . S
C183 C184 1.392 . S
C183 N185 1.420 . S
C184 H178 0.930 . S
C184 C180 1.407 . S
C184 C183 1.392 . S
N185 C183 1.420 . S
N185 C186 1.244 . S
C186 N185 1.244 . S
H187 C190 0.929 . S
H188 C193 0.929 . S
H189 C195 0.930 . S
C190 H187 0.929 . S
C190 C191 1.398 . S
C190 C192 1.396 . S
C191 C190 1.398 . S
C191 C195 1.407 . S
C192 C190 1.396 . S
C192 C193 1.394 . S
C193 H188 0.929 . S
C193 C192 1.394 . S
C193 C194 1.382 . S
C194 C193 1.382 . S
C194 C195 1.392 . S
C194 N196 1.420 . S
C195 H189 0.930 . S
C195 C191 1.407 . S
C195 C194 1.392 . S
N196 C194 1.420 . S
N196 C197 1.244 . S
C197 N196 1.244 . S
Tb198 N229 2.660 . S
Tb198 N236 2.600 . S
Tb198 O242 2.546 . S
Tb198 O243 2.610 1_566 S
Tb198 O245 2.320 1_565 S
Tb198 O246 2.552 1_565 S
Tb198 O247 2.413 1_565 S
Tb198 O249 2.362 1_556 S
Tb198 O250 2.421 1_556 S
Tb198 C262 2.833 1_565 S
C199 C202 1.432 . S
C199 C203 1.414 . S
C199 N206 1.359 . S
C200 C202 1.417 . S
C200 C204 1.432 . S
C200 C212 1.410 . S
C201 C203 1.444 . S
C201 C204 1.317 . S
C201 H224 0.929 . S
C202 C199 1.432 . S
C202 C200 1.417 . S
C202 N210 1.360 . S
C203 C199 1.414 . S
C203 C201 1.444 . S
C203 C208 1.385 . S
C204 C200 1.432 . S
C204 C201 1.317 . S
C204 H216 0.930 . S
C205 C207 1.392 . S
C205 C208 1.370 . S
C205 H217 0.931 . S
N206 C199 1.359 . S
N206 C207 1.327 . S
N206 Tb209 2.600 . S
C207 C205 1.392 . S
C207 N206 1.327 . S
C207 H214 0.930 . S
C208 C203 1.385 . S
C208 C205 1.370 . S
C208 H227 0.930 . S
Tb209 N206 2.600 . S
Tb209 N210 2.660 . S
Tb209 O243 2.362 . S
Tb209 O244 2.421 . S
Tb209 O248 2.546 . S
Tb209 O249 2.610 1_545 S
Tb209 O251 2.320 1_545 S
Tb209 O252 2.552 1_545 S
Tb209 O253 2.413 1_545 S
Tb209 C273 2.833 . S
N210 C202 1.360 . S
N210 Tb209 2.660 . S
N210 C211 1.305 . S
C211 N210 1.305 . S
C211 C213 1.407 . S
C211 H218 0.930 . S
C212 C200 1.410 . S
C212 C213 1.345 . S
C212 H220 0.930 . S
C213 C211 1.407 . S
C213 C212 1.345 . S
C213 H215 0.930 . S
H214 C207 0.930 . S
H215 C213 0.930 . S
H216 C204 0.930 . S
H217 C205 0.931 . S
H218 C211 0.930 . S
H219 C233 0.930 . S
H220 C212 0.930 . S
H221 C239 0.930 . S
H222 C230 0.945 . S
H223 C237 0.931 . S
H224 C201 0.929 . S
H225 C231 0.930 . S
H226 C264 0.930 . S
H227 C208 0.930 . S
H228 C263 0.929 . S
N229 Tb198 2.660 . S
N229 C230 1.305 . S
N229 C234 1.360 . S
C230 H222 0.945 . S
C230 N229 1.305 . S
C230 C233 1.407 . S
C231 H225 0.930 . S
C231 C232 1.410 . S
C231 C233 1.345 . S
C232 C231 1.410 . S
C232 C234 1.417 . S
C232 C264 1.432 . S
C233 H219 0.930 . S
C233 C230 1.407 . S
C233 C231 1.345 . S
C234 N229 1.360 . S
C234 C232 1.417 . S
C234 C238 1.432 . S
H235 C240 0.930 . S
N236 Tb198 2.600 . S
N236 C238 1.359 . S
N236 C239 1.327 . S
C237 H223 0.931 . S
C237 C239 1.392 . S
C237 C240 1.370 . S
C238 C234 1.432 . S
C238 N236 1.359 . S
C238 C241 1.414 . S
C239 H221 0.930 . S
C239 N236 1.327 . S
C239 C237 1.392 . S
C240 H235 0.930 . S
C240 C237 1.370 . S
C240 C241 1.385 . S
C241 C238 1.414 . S
C241 C240 1.385 . S
C241 C263 1.444 . S
O242 Tb198 2.546 . S
O242 C262 1.251 1_565 S
O243 Tb198 2.610 1_544 S
O243 Tb209 2.362 . S
O243 C254 1.283 1_554 S
O244 Tb209 2.421 . S
O244 C261 1.262 . S
O245 Tb198 2.320 1_545 S
O245 C261 1.260 1_556 S
O246 Tb198 2.552 1_545 S
O246 C254 1.243 . S
O247 Tb198 2.413 1_545 S
O247 C262 1.256 . S
O248 Tb209 2.546 . S
O248 C273 1.251 . S
O249 Tb198 2.362 1_554 S
O249 Tb209 2.610 1_565 S
O249 C265 1.283 . S
O250 Tb198 2.421 1_554 S
O250 C272 1.262 . S
O251 Tb209 2.320 1_565 S
O251 C272 1.260 . S
O252 Tb209 2.552 1_565 S
O252 C265 1.243 . S
O253 Tb209 2.413 1_565 S
O253 C273 1.256 1_565 S
C254 O243 1.283 1_556 S
C254 O246 1.243 . S
C255 C257 1.382 . S
C255 C259 1.393 1_545 S
C255 C262 1.500 . S
C256 C257 1.400 . S
C256 C258 1.384 . S
C257 C255 1.382 . S
C257 C256 1.400 . S
C257 H274 0.930 . S
C258 C256 1.384 . S
C258 C260 1.340 1_545 S
C258 H275 0.931 . S
C259 C255 1.393 1_565 S
C259 C260 1.412 . S
C259 H276 0.930 . S
C260 C258 1.340 1_565 S
C260 C259 1.412 . S
C260 H277 0.973 . S
C261 O244 1.262 . S
C261 O245 1.260 1_554 S
C262 Tb198 2.833 1_545 S
C262 O242 1.251 1_545 S
C262 O247 1.256 . S
C262 C255 1.500 . S
C263 H228 0.929 . S
C263 C241 1.444 . S
C263 C264 1.317 . S
C264 H226 0.930 . S
C264 C232 1.432 . S
C264 C263 1.317 . S
C265 O249 1.283 . S
C265 O252 1.243 . S
C266 C267 1.343 1_545 S
C266 C270 1.426 . S
C266 C273 1.507 . S
C267 C266 1.343 1_565 S
C267 C268 1.400 . S
C267 H278 0.930 . S
C268 C267 1.400 . S
C268 C269 1.384 . S
C269 C268 1.384 . S
C269 C271 1.392 1_565 S
C269 H279 0.931 . S
C270 C266 1.426 . S
C270 C271 1.401 . S
C270 H280 0.930 . S
C271 C269 1.392 1_545 S
C271 C270 1.401 . S
C271 H281 0.930 . S
C272 O250 1.262 . S
C272 O251 1.260 . S
C273 Tb209 2.833 . S
C273 O248 1.251 . S
C273 O253 1.256 1_545 S
C273 C266 1.507 . S
H274 C257 0.930 . S
H275 C258 0.931 . S
H276 C259 0.930 . S
H277 C260 0.973 . S
H278 C267 0.930 . S
H279 C269 0.931 . S
H280 C270 0.930 . S
H281 C271 0.930 . S
Tb282 N313 2.660 . S
Tb282 N320 2.600 . S
Tb282 O326 2.546 . S
Tb282 O327 2.610 1_456 S
Tb282 O329 2.320 1_455 S
Tb282 O330 2.552 1_455 S
Tb282 O331 2.422 . S
Tb282 O333 2.362 1_556 S
Tb282 O334 2.421 1_556 S
Tb282 C346 2.833 . S
C283 C286 1.432 . S
C283 C287 1.414 . S
C283 N290 1.359 . S
C284 C286 1.417 . S
C284 C288 1.432 . S
C284 C296 1.410 . S
C285 C287 1.444 . S
C285 C288 1.317 . S
C285 H308 0.929 . S
C286 C283 1.432 . S
C286 C284 1.417 . S
C286 N294 1.360 . S
C287 C283 1.414 . S
C287 C285 1.444 . S
C287 C292 1.385 . S
C288 C284 1.432 . S
C288 C285 1.317 . S
C288 H300 0.930 . S
C289 C291 1.392 . S
C289 C292 1.370 . S
C289 H301 0.931 . S
N290 C283 1.359 . S
N290 C291 1.327 . S
N290 Tb293 2.600 . S
C291 C289 1.392 . S
C291 N290 1.327 . S
C291 H298 0.930 . S
C292 C287 1.385 . S
C292 C289 1.370 . S
C292 H311 0.930 . S
Tb293 N290 2.600 . S
Tb293 N294 2.660 . S
Tb293 O327 2.362 . S
Tb293 O328 2.421 . S
Tb293 O332 2.546 . S
Tb293 O333 2.610 1_655 S
Tb293 O335 2.320 1_655 S
Tb293 O336 2.552 1_655 S
Tb293 O337 2.413 1_655 S
Tb293 C357 2.825 1_655 S
N294 C286 1.360 . S
N294 Tb293 2.660 . S
N294 C295 1.305 . S
C295 N294 1.305 . S
C295 C297 1.407 . S
C295 H302 0.941 . S
C296 C284 1.410 . S
C296 C297 1.345 . S
C296 H304 0.930 . S
C297 C295 1.407 . S
C297 C296 1.345 . S
C297 H299 0.930 . S
H298 C291 0.930 . S
H299 C297 0.930 . S
H300 C288 0.930 . S
H301 C289 0.931 . S
H302 C295 0.941 . S
H303 C317 0.930 . S
H304 C296 0.930 . S
H305 C323 0.930 . S
H306 C314 0.930 . S
H307 C321 0.931 . S
H308 C285 0.929 . S
H309 C315 0.930 . S
H310 C348 0.930 . S
H311 C292 0.930 . S
H312 C347 0.929 . S
N313 Tb282 2.660 . S
N313 C314 1.305 . S
N313 C318 1.360 . S
C314 H306 0.930 . S
C314 N313 1.305 . S
C314 C317 1.407 . S
C315 H309 0.930 . S
C315 C316 1.410 . S
C315 C317 1.345 . S
C316 C315 1.410 . S
C316 C318 1.417 . S
C316 C348 1.432 . S
C317 H303 0.930 . S
C317 C314 1.407 . S
C317 C315 1.345 . S
C318 N313 1.360 . S
C318 C316 1.417 . S
C318 C322 1.432 . S
H319 C324 0.930 . S
N320 Tb282 2.600 . S
N320 C322 1.359 . S
N320 C323 1.327 . S
C321 H307 0.931 . S
C321 C323 1.392 . S
C321 C324 1.370 . S
C322 C318 1.432 . S
C322 N320 1.359 . S
C322 C325 1.414 . S
C323 H305 0.930 . S
C323 N320 1.327 . S
C323 C321 1.392 . S
C324 H319 0.930 . S
C324 C321 1.370 . S
C324 C325 1.385 . S
C325 C322 1.414 . S
C325 C324 1.385 . S
C325 C347 1.444 . S
O326 Tb282 2.546 . S
O326 C346 1.251 . S
O327 Tb282 2.610 1_654 S
O327 Tb293 2.362 . S
O327 C338 1.283 1_554 S
O328 Tb293 2.421 . S
O328 C345 1.262 . S
O329 Tb282 2.320 1_655 S
O329 C345 1.260 1_556 S
O330 Tb282 2.552 1_655 S
O330 C338 1.243 . S
O331 Tb282 2.422 . S
O331 C346 1.254 . S
O332 Tb293 2.546 . S
O332 C357 1.244 1_655 S
O333 Tb282 2.362 1_554 S
O333 Tb293 2.610 1_455 S
O333 C349 1.283 . S
O334 Tb282 2.421 1_554 S
O334 C356 1.262 . S
O335 Tb293 2.320 1_455 S
O335 C356 1.260 . S
O336 Tb293 2.552 1_455 S
O336 C349 1.243 . S
O337 Tb293 2.413 1_455 S
O337 C357 1.254 . S
C338 O327 1.283 1_556 S
C338 O330 1.243 . S
C339 C341 1.382 1_455 S
C339 C343 1.393 . S
C339 C346 1.500 . S
C340 C341 1.400 . S
C340 C342 1.384 . S
C341 C339 1.382 1_655 S
C341 C340 1.400 . S
C341 H358 0.930 . S
C342 C340 1.384 . S
C342 C344 1.392 1_655 S
C342 H359 0.931 . S
C343 C339 1.393 . S
C343 C344 1.401 . S
C343 H360 0.930 . S
C344 C342 1.392 1_455 S
C344 C343 1.401 . S
C344 H361 0.930 . S
C345 O328 1.262 . S
C345 O329 1.260 1_554 S
C346 Tb282 2.833 . S
C346 O326 1.251 . S
C346 O331 1.254 . S
C346 C339 1.500 . S
C347 H312 0.929 . S
C347 C325 1.444 . S
C347 C348 1.317 . S
C348 H310 0.930 . S
C348 C316 1.432 . S
C348 C347 1.317 . S
C349 O333 1.283 . S
C349 O336 1.243 . S
C350 C351 1.382 . S
C350 C354 1.393 1_455 S
C350 C357 1.511 . S
C351 C350 1.382 . S
C351 C352 1.400 . S
C351 H362 0.930 . S
C352 C351 1.400 . S
C352 C353 1.384 . S
C353 C352 1.384 . S
C353 C355 1.392 1_455 S
C353 H363 0.931 . S
C354 C350 1.393 1_655 S
C354 C355 1.401 . S
C354 H364 0.930 . S
C355 C353 1.392 1_655 S
C355 C354 1.401 . S
C355 H365 0.930 . S
C356 O334 1.262 . S
C356 O335 1.260 . S
C357 Tb293 2.825 1_455 S
C357 O332 1.244 1_455 S
C357 O337 1.254 . S
C357 C350 1.511 . S
H358 C341 0.930 . S
H359 C342 0.931 . S
H360 C343 0.930 . S
H361 C344 0.930 . S
H362 C351 0.930 . S
H363 C353 0.931 . S
H364 C354 0.930 . S
H365 C355 0.930 . S
Tb366 N397 2.660 . S
Tb366 N404 2.600 . S
Tb366 O410 2.546 . S
Tb366 O411 2.610 . S
Tb366 O413 2.320 . S
Tb366 O414 2.552 . S
Tb366 O415 2.413 . S
Tb366 O417 2.362 . S
Tb366 O418 2.421 . S
Tb366 C430 2.833 . S
C367 C370 1.432 . S
C367 C371 1.414 . S
C367 N374 1.359 . S
C368 C370 1.417 . S
C368 C372 1.432 . S
C368 C380 1.410 . S
C369 C371 1.444 . S
C369 C372 1.317 . S
C369 H392 0.929 . S
C370 C367 1.432 . S
C370 C368 1.417 . S
C370 N378 1.360 . S
C371 C367 1.414 . S
C371 C369 1.444 . S
C371 C376 1.385 . S
C372 C368 1.432 . S
C372 C369 1.317 . S
C372 H384 0.930 . S
C373 C375 1.392 . S
C373 C376 1.370 . S
C373 H385 0.931 . S
N374 C367 1.359 . S
N374 C375 1.327 . S
N374 Tb377 2.600 . S
C375 C373 1.392 . S
C375 N374 1.327 . S
C375 H382 0.930 . S
C376 C371 1.385 . S
C376 C373 1.370 . S
C376 H395 0.930 . S
Tb377 N374 2.600 . S
Tb377 N378 2.660 . S
Tb377 O411 2.362 1_556 S
Tb377 O412 2.421 1_556 S
Tb377 O416 2.546 . S
Tb377 O417 2.610 1_556 S
Tb377 O419 2.320 . S
Tb377 O420 2.552 . S
Tb377 O421 2.413 . S
Tb377 C441 2.833 . S
N378 C370 1.360 . S
N378 Tb377 2.660 . S
N378 C379 1.305 . S
C379 N378 1.305 . S
C379 C381 1.407 . S
C379 H386 0.930 . S
C380 C368 1.410 . S
C380 C381 1.345 . S
C380 H388 0.930 . S
C381 C379 1.407 . S
C381 C380 1.345 . S
C381 H383 0.930 . S
H382 C375 0.930 . S
H383 C381 0.930 . S
H384 C372 0.930 . S
H385 C373 0.931 . S
H386 C379 0.930 . S
H387 C401 0.930 . S
H388 C380 0.930 . S
H389 C407 0.930 . S
H390 C398 0.930 . S
H391 C405 0.931 . S
H392 C369 0.929 . S
H393 C399 0.930 . S
H394 C432 0.930 . S
H395 C376 0.930 . S
H396 C431 0.929 . S
N397 Tb366 2.660 . S
N397 C398 1.305 . S
N397 C402 1.360 . S
C398 H390 0.930 . S
C398 N397 1.305 . S
C398 C401 1.407 . S
C399 H393 0.930 . S
C399 C400 1.410 . S
C399 C401 1.345 . S
C400 C399 1.410 . S
C400 C402 1.417 . S
C400 C432 1.432 . S
C401 H387 0.930 . S
C401 C398 1.407 . S
C401 C399 1.345 . S
C402 N397 1.360 . S
C402 C400 1.417 . S
C402 C406 1.432 . S
H403 C408 0.930 . S
N404 Tb366 2.600 . S
N404 C406 1.359 . S
N404 C407 1.327 . S
C405 H391 0.931 . S
C405 C407 1.392 . S
C405 C408 1.370 . S
C406 C402 1.432 . S
C406 N404 1.359 . S
C406 C409 1.414 . S
C407 H389 0.930 . S
C407 N404 1.327 . S
C407 C405 1.392 . S
C408 H403 0.930 . S
C408 C405 1.370 . S
C408 C409 1.385 . S
C409 C406 1.414 . S
C409 C408 1.385 . S
C409 C431 1.444 . S
O410 Tb366 2.546 . S
O410 C430 1.251 . S
O411 Tb366 2.610 . S
O411 Tb377 2.362 1_554 S
O411 C422 1.283 . S
O412 Tb377 2.421 1_554 S
O412 C429 1.262 . S
O413 Tb366 2.320 . S
O413 C429 1.260 . S
O414 Tb366 2.552 . S
O414 C422 1.243 . S
O415 Tb366 2.413 . S
O415 C430 1.256 . S
O416 Tb377 2.546 . S
O416 C441 1.251 . S
O417 Tb366 2.362 . S
O417 Tb377 2.610 1_554 S
O417 C433 1.283 1_554 S
O418 Tb366 2.421 . S
O418 C440 1.262 . S
O419 Tb377 2.320 . S
O419 C440 1.260 1_556 S
O420 Tb377 2.552 . S
O420 C433 1.243 . S
O421 Tb377 2.413 . S
O421 C441 1.256 . S
C422 O411 1.283 . S
C422 O414 1.243 . S
C423 C425 1.382 . S
C423 C427 1.393 . S
C423 C430 1.500 . S
C424 C425 1.400 . S
C424 C426 1.384 . S
C425 C423 1.382 . S
C425 C424 1.400 . S
C425 H442 0.930 . S
C426 C424 1.384 . S
C426 C428 1.392 . S
C426 H443 0.931 . S
C427 C423 1.393 . S
C427 C428 1.401 . S
C427 H444 0.930 . S
C428 C426 1.392 . S
C428 C427 1.401 . S
C428 H445 0.930 . S
C429 O412 1.262 . S
C429 O413 1.260 . S
C430 Tb366 2.833 . S
C430 O410 1.251 . S
C430 O415 1.256 . S
C430 C423 1.500 . S
C431 H396 0.929 . S
C431 C409 1.444 . S
C431 C432 1.317 . S
C432 H394 0.930 . S
C432 C400 1.432 . S
C432 C431 1.317 . S
C433 O417 1.283 1_556 S
C433 O420 1.243 . S
C434 C435 1.382 . S
C434 C438 1.393 . S
C434 C441 1.500 . S
C435 C434 1.382 . S
C435 C436 1.400 . S
C435 H446 0.930 . S
C436 C435 1.400 . S
C436 C437 1.384 . S
C437 C436 1.384 . S
C437 C439 1.392 . S
C437 H447 0.931 . S
C438 C434 1.393 . S
C438 C439 1.401 . S
C438 H448 0.930 . S
C439 C437 1.392 . S
C439 C438 1.401 . S
C439 H449 0.930 . S
C440 O418 1.262 . S
C440 O419 1.260 1_554 S
C441 Tb377 2.833 . S
C441 O416 1.251 . S
C441 O421 1.256 . S
C441 C434 1.500 . S
H442 C425 0.930 . S
H443 C426 0.931 . S
H444 C427 0.930 . S
H445 C428 0.930 . S
H446 C435 0.930 . S
H447 C437 0.931 . S
H448 C438 0.930 . S
H449 C439 0.930 . S
Tb450 N481 2.660 . S
Tb450 N488 2.600 . S
Tb450 O494 2.546 . S
Tb450 O495 2.610 . S
Tb450 O497 2.320 . S
Tb450 O498 2.552 . S
Tb450 O499 2.413 . S
Tb450 O501 2.362 . S
Tb450 O502 2.421 . S
Tb450 C514 2.833 . S
C451 C454 1.432 . S
C451 C455 1.414 . S
C451 N458 1.359 . S
C452 C454 1.417 . S
C452 C456 1.432 . S
C452 C464 1.410 . S
C453 C455 1.444 . S
C453 C456 1.317 . S
C453 H476 0.929 . S
C454 C451 1.432 . S
C454 C452 1.417 . S
C454 N462 1.360 . S
C455 C451 1.414 . S
C455 C453 1.444 . S
C455 C460 1.385 . S
C456 C452 1.432 . S
C456 C453 1.317 . S
C456 H468 0.930 . S
C457 C459 1.392 . S
C457 C460 1.370 . S
C457 H469 0.931 . S
N458 C451 1.359 . S
N458 C459 1.327 . S
N458 Tb461 2.600 . S
C459 C457 1.392 . S
C459 N458 1.327 . S
C459 H466 0.930 . S
C460 C455 1.385 . S
C460 C457 1.370 . S
C460 H479 0.930 . S
Tb461 N458 2.600 . S
Tb461 N462 2.660 . S
Tb461 O495 2.362 . S
Tb461 O496 2.421 . S
Tb461 O500 2.546 . S
Tb461 O501 2.610 . S
Tb461 O503 2.320 . S
Tb461 O504 2.552 . S
Tb461 O505 2.413 . S
Tb461 C525 2.833 . S
N462 C454 1.360 . S
N462 Tb461 2.660 . S
N462 C463 1.305 . S
C463 N462 1.305 . S
C463 C465 1.407 . S
C463 H470 0.930 . S
C464 C452 1.410 . S
C464 C465 1.345 . S
C464 H472 0.930 . S
C465 C463 1.407 . S
C465 C464 1.345 . S
C465 H467 0.930 . S
H466 C459 0.930 . S
H467 C465 0.930 . S
H468 C456 0.930 . S
H469 C457 0.931 . S
H470 C463 0.930 . S
H471 C485 0.930 . S
H472 C464 0.930 . S
H473 C491 0.930 . S
H474 C482 0.930 . S
H475 C489 0.931 . S
H476 C453 0.929 . S
H477 C483 0.930 . S
H478 C516 0.930 . S
H479 C460 0.930 . S
H480 C515 0.929 . S
N481 Tb450 2.660 . S
N481 C482 1.305 . S
N481 C486 1.360 . S
C482 H474 0.930 . S
C482 N481 1.305 . S
C482 C485 1.407 . S
C483 H477 0.930 . S
C483 C484 1.410 . S
C483 C485 1.345 . S
C484 C483 1.410 . S
C484 C486 1.417 . S
C484 C516 1.432 . S
C485 H471 0.930 . S
C485 C482 1.407 . S
C485 C483 1.345 . S
C486 N481 1.360 . S
C486 C484 1.417 . S
C486 C490 1.432 . S
H487 C492 0.930 . S
N488 Tb450 2.600 . S
N488 C490 1.359 . S
N488 C491 1.327 . S
C489 H475 0.931 . S
C489 C491 1.392 . S
C489 C492 1.370 . S
C490 C486 1.432 . S
C490 N488 1.359 . S
C490 C493 1.414 . S
C491 H473 0.930 . S
C491 N488 1.327 . S
C491 C489 1.392 . S
C492 H487 0.930 . S
C492 C489 1.370 . S
C492 C493 1.385 . S
C493 C490 1.414 . S
C493 C492 1.385 . S
C493 C515 1.444 . S
O494 Tb450 2.546 . S
O494 C514 1.251 . S
O495 Tb450 2.610 . S
O495 Tb461 2.362 . S
O495 C506 1.283 . S
O496 Tb461 2.421 . S
O496 C513 1.262 . S
O497 Tb450 2.320 . S
O497 C513 1.260 . S
O498 Tb450 2.552 . S
O498 C506 1.243 . S
O499 Tb450 2.413 . S
O499 C514 1.256 . S
O500 Tb461 2.546 . S
O500 C525 1.251 . S
O501 Tb450 2.362 . S
O501 Tb461 2.610 . S
O501 C517 1.283 . S
O502 Tb450 2.421 . S
O502 C524 1.262 . S
O503 Tb461 2.320 . S
O503 C524 1.260 . S
O504 Tb461 2.552 . S
O504 C517 1.243 . S
O505 Tb461 2.413 . S
O505 C525 1.256 . S
C506 O495 1.283 . S
C506 O498 1.243 . S
C507 C509 1.382 . S
C507 C511 1.393 . S
C507 C514 1.500 . S
C508 C509 1.400 . S
C508 C510 1.384 . S
C509 C507 1.382 . S
C509 C508 1.400 . S
C509 H526 0.930 . S
C510 C508 1.384 . S
C510 C512 1.392 . S
C510 H527 0.931 . S
C511 C507 1.393 . S
C511 C512 1.401 . S
C511 H528 0.930 . S
C512 C510 1.392 . S
C512 C511 1.401 . S
C512 H529 0.930 . S
C513 O496 1.262 . S
C513 O497 1.260 . S
C514 Tb450 2.833 . S
C514 O494 1.251 . S
C514 O499 1.256 . S
C514 C507 1.500 . S
C515 H480 0.929 . S
C515 C493 1.444 . S
C515 C516 1.317 . S
C516 H478 0.930 . S
C516 C484 1.432 . S
C516 C515 1.317 . S
C517 O501 1.283 . S
C517 O504 1.243 . S
C518 C519 1.382 . S
C518 C522 1.393 . S
C518 C525 1.500 . S
C519 C518 1.382 . S
C519 C520 1.400 . S
C519 H530 0.930 . S
C520 C519 1.400 . S
C520 C521 1.384 . S
C521 C520 1.384 . S
C521 C523 1.392 . S
C521 H531 0.931 . S
C522 C518 1.393 . S
C522 C523 1.401 . S
C522 H532 0.930 . S
C523 C521 1.392 . S
C523 C522 1.401 . S
C523 H533 0.930 . S
C524 O502 1.262 . S
C524 O503 1.260 . S
C525 Tb461 2.833 . S
C525 O500 1.251 . S
C525 O505 1.256 . S
C525 C518 1.500 . S
H526 C509 0.930 . S
H527 C510 0.931 . S
H528 C511 0.930 . S
H529 C512 0.930 . S
H530 C519 0.930 . S
H531 C521 0.931 . S
H532 C522 0.930 . S
H533 C523 0.930 . S
Tb534 N565 2.660 . S
Tb534 N572 2.600 . S
Tb534 O578 2.546 . S
Tb534 O579 2.610 . S
Tb534 O581 2.320 . S
Tb534 O582 2.552 . S
Tb534 O583 2.413 . S
Tb534 O585 2.362 . S
Tb534 O586 2.421 . S
Tb534 C598 2.833 . S
C535 C538 1.432 . S
C535 C539 1.414 . S
C535 N542 1.359 . S
C536 C538 1.417 . S
C536 C540 1.432 . S
C536 C548 1.410 . S
C537 C539 1.444 . S
C537 C540 1.317 . S
C537 H560 0.929 . S
C538 C535 1.432 . S
C538 C536 1.417 . S
C538 N546 1.360 . S
C539 C535 1.414 . S
C539 C537 1.444 . S
C539 C544 1.385 . S
C540 C536 1.432 . S
C540 C537 1.317 . S
C540 H552 0.930 . S
C541 C543 1.392 . S
C541 C544 1.370 . S
C541 H553 0.931 . S
N542 C535 1.359 . S
N542 C543 1.327 . S
N542 Tb545 2.600 . S
C543 C541 1.392 . S
C543 N542 1.327 . S
C543 H550 0.930 . S
C544 C539 1.385 . S
C544 C541 1.370 . S
C544 H563 0.930 . S
Tb545 N542 2.600 . S
Tb545 N546 2.660 . S
Tb545 O579 2.362 . S
Tb545 O580 2.421 . S
Tb545 O584 2.546 . S
Tb545 O585 2.610 . S
Tb545 O587 2.320 . S
Tb545 O588 2.552 . S
Tb545 O589 2.413 . S
Tb545 C609 2.833 . S
N546 C538 1.360 . S
N546 Tb545 2.660 . S
N546 C547 1.305 . S
C547 N546 1.305 . S
C547 C549 1.407 . S
C547 H554 0.930 . S
C548 C536 1.410 . S
C548 C549 1.345 . S
C548 H556 0.930 . S
C549 C547 1.407 . S
C549 C548 1.345 . S
C549 H551 0.930 . S
H550 C543 0.930 . S
H551 C549 0.930 . S
H552 C540 0.930 . S
H553 C541 0.931 . S
H554 C547 0.930 . S
H555 C569 0.930 . S
H556 C548 0.930 . S
H557 C575 0.930 . S
H558 C566 0.930 . S
H559 C573 0.931 . S
H560 C537 0.929 . S
H561 C567 0.930 . S
H562 C600 0.930 . S
H563 C544 0.930 . S
H564 C599 0.929 . S
N565 Tb534 2.660 . S
N565 C566 1.305 . S
N565 C570 1.360 . S
C566 H558 0.930 . S
C566 N565 1.305 . S
C566 C569 1.407 . S
C567 H561 0.930 . S
C567 C568 1.410 . S
C567 C569 1.345 . S
C568 C567 1.410 . S
C568 C570 1.417 . S
C568 C600 1.432 . S
C569 H555 0.930 . S
C569 C566 1.407 . S
C569 C567 1.345 . S
C570 N565 1.360 . S
C570 C568 1.417 . S
C570 C574 1.432 . S
H571 C576 0.930 . S
N572 Tb534 2.600 . S
N572 C574 1.359 . S
N572 C575 1.327 . S
C573 H559 0.931 . S
C573 C575 1.392 . S
C573 C576 1.370 . S
C574 C570 1.432 . S
C574 N572 1.359 . S
C574 C577 1.414 . S
C575 H557 0.930 . S
C575 N572 1.327 . S
C575 C573 1.392 . S
C576 H571 0.930 . S
C576 C573 1.370 . S
C576 C577 1.385 . S
C577 C574 1.414 . S
C577 C576 1.385 . S
C577 C599 1.444 . S
O578 Tb534 2.546 . S
O578 C598 1.251 . S
O579 Tb534 2.610 . S
O579 Tb545 2.362 . S
O579 C590 1.283 . S
O580 Tb545 2.421 . S
O580 C597 1.262 . S
O581 Tb534 2.320 . S
O581 C597 1.260 . S
O582 Tb534 2.552 . S
O582 C590 1.243 . S
O583 Tb534 2.413 . S
O583 C598 1.256 . S
O584 Tb545 2.546 . S
O584 C609 1.251 . S
O585 Tb534 2.362 . S
O585 Tb545 2.610 . S
O585 C601 1.283 . S
O586 Tb534 2.421 . S
O586 C608 1.262 . S
O587 Tb545 2.320 . S
O587 C608 1.260 . S
O588 Tb545 2.552 . S
O588 C601 1.243 . S
O589 Tb545 2.413 . S
O589 C609 1.256 . S
C590 O579 1.283 . S
C590 O582 1.243 . S
C591 C593 1.382 . S
C591 C595 1.393 . S
C591 C598 1.500 . S
C592 C593 1.400 . S
C592 C594 1.384 . S
C593 C591 1.382 . S
C593 C592 1.400 . S
C593 H610 0.930 . S
C594 C592 1.384 . S
C594 C596 1.392 . S
C594 H611 0.931 . S
C595 C591 1.393 . S
C595 C596 1.401 . S
C595 H612 0.930 . S
C596 C594 1.392 . S
C596 C595 1.401 . S
C596 H613 0.930 . S
C597 O580 1.262 . S
C597 O581 1.260 . S
C598 Tb534 2.833 . S
C598 O578 1.251 . S
C598 O583 1.256 . S
C598 C591 1.500 . S
C599 H564 0.929 . S
C599 C577 1.444 . S
C599 C600 1.317 . S
C600 H562 0.930 . S
C600 C568 1.432 . S
C600 C599 1.317 . S
C601 O585 1.283 . S
C601 O588 1.243 . S
C602 C603 1.382 . S
C602 C606 1.393 . S
C602 C609 1.500 . S
C603 C602 1.382 . S
C603 C604 1.400 . S
C603 H614 0.930 . S
C604 C603 1.400 . S
C604 C605 1.384 . S
C605 C604 1.384 . S
C605 C607 1.392 . S
C605 H615 0.931 . S
C606 C602 1.393 . S
C606 C607 1.401 . S
C606 H616 0.930 . S
C607 C605 1.392 . S
C607 C606 1.401 . S
C607 H617 0.930 . S
C608 O586 1.262 . S
C608 O587 1.260 . S
C609 Tb545 2.833 . S
C609 O584 1.251 . S
C609 O589 1.256 . S
C609 C602 1.500 . S
H610 C593 0.930 . S
H611 C594 0.931 . S
H612 C595 0.930 . S
H613 C596 0.930 . S
H614 C603 0.930 . S
H615 C605 0.931 . S
H616 C606 0.930 . S
H617 C607 0.930 . S
Tb618 N649 2.660 . S
Tb618 N656 2.600 . S
Tb618 O662 2.546 . S
Tb618 O663 2.610 . S
Tb618 O665 2.320 . S
Tb618 O666 2.552 . S
Tb618 O667 2.413 . S
Tb618 O669 2.362 . S
Tb618 O670 2.421 . S
Tb618 C682 2.833 . S
C619 C622 1.432 . S
C619 C623 1.414 . S
C619 N626 1.359 . S
C620 C622 1.417 . S
C620 C624 1.432 . S
C620 C632 1.410 . S
C621 C623 1.444 . S
C621 C624 1.317 . S
C621 H644 0.929 . S
C622 C619 1.432 . S
C622 C620 1.417 . S
C622 N630 1.360 . S
C623 C619 1.414 . S
C623 C621 1.444 . S
C623 C628 1.385 . S
C624 C620 1.432 . S
C624 C621 1.317 . S
C624 H636 0.930 . S
C625 C627 1.392 . S
C625 C628 1.370 . S
C625 H637 0.931 . S
N626 C619 1.359 . S
N626 C627 1.327 . S
N626 Tb629 2.600 . S
C627 C625 1.392 . S
C627 N626 1.327 . S
C627 H634 0.930 . S
C628 C623 1.385 . S
C628 C625 1.370 . S
C628 H647 0.930 . S
Tb629 N626 2.600 . S
Tb629 N630 2.660 . S
Tb629 O663 2.362 . S
Tb629 O664 2.421 . S
Tb629 O668 2.546 . S
Tb629 O669 2.610 . S
Tb629 O671 2.320 . S
Tb629 O672 2.552 . S
Tb629 O673 2.413 . S
Tb629 C693 2.833 . S
N630 C622 1.360 . S
N630 Tb629 2.660 . S
N630 C631 1.305 . S
C631 N630 1.305 . S
C631 C633 1.407 . S
C631 H638 0.930 . S
C632 C620 1.410 . S
C632 C633 1.345 . S
C632 H640 0.930 . S
C633 C631 1.407 . S
C633 C632 1.345 . S
C633 H635 0.930 . S
H634 C627 0.930 . S
H635 C633 0.930 . S
H636 C624 0.930 . S
H637 C625 0.931 . S
H638 C631 0.930 . S
H639 C653 0.930 . S
H640 C632 0.930 . S
H641 C659 0.930 . S
H642 C650 0.930 . S
H643 C657 0.931 . S
H644 C621 0.929 . S
H645 C651 0.930 . S
H646 C684 0.930 . S
H647 C628 0.930 . S
H648 C683 0.929 . S
N649 Tb618 2.660 . S
N649 C650 1.305 . S
N649 C654 1.360 . S
C650 H642 0.930 . S
C650 N649 1.305 . S
C650 C653 1.407 . S
C651 H645 0.930 . S
C651 C652 1.410 . S
C651 C653 1.345 . S
C652 C651 1.410 . S
C652 C654 1.417 . S
C652 C684 1.432 . S
C653 H639 0.930 . S
C653 C650 1.407 . S
C653 C651 1.345 . S
C654 N649 1.360 . S
C654 C652 1.417 . S
C654 C658 1.432 . S
H655 C660 0.930 . S
N656 Tb618 2.600 . S
N656 C658 1.359 . S
N656 C659 1.327 . S
C657 H643 0.931 . S
C657 C659 1.392 . S
C657 C660 1.370 . S
C658 C654 1.432 . S
C658 N656 1.359 . S
C658 C661 1.414 . S
C659 H641 0.930 . S
C659 N656 1.327 . S
C659 C657 1.392 . S
C660 H655 0.930 . S
C660 C657 1.370 . S
C660 C661 1.385 . S
C661 C658 1.414 . S
C661 C660 1.385 . S
C661 C683 1.444 . S
O662 Tb618 2.546 . S
O662 C682 1.251 . S
O663 Tb618 2.610 . S
O663 Tb629 2.362 . S
O663 C674 1.283 . S
O664 Tb629 2.421 . S
O664 C681 1.262 . S
O665 Tb618 2.320 . S
O665 C681 1.260 . S
O666 Tb618 2.552 . S
O666 C674 1.243 . S
O667 Tb618 2.413 . S
O667 C682 1.256 . S
O668 Tb629 2.546 . S
O668 C693 1.251 . S
O669 Tb618 2.362 . S
O669 Tb629 2.610 . S
O669 C685 1.283 . S
O670 Tb618 2.421 . S
O670 C692 1.262 . S
O671 Tb629 2.320 . S
O671 C692 1.260 . S
O672 Tb629 2.552 . S
O672 C685 1.243 . S
O673 Tb629 2.413 . S
O673 C693 1.256 . S
C674 O663 1.283 . S
C674 O666 1.243 . S
C675 C677 1.382 . S
C675 C679 1.393 . S
C675 C682 1.500 . S
C676 C677 1.400 . S
C676 C678 1.384 . S
C677 C675 1.382 . S
C677 C676 1.400 . S
C677 H694 0.930 . S
C678 C676 1.384 . S
C678 C680 1.392 . S
C678 H695 0.931 . S
C679 C675 1.393 . S
C679 C680 1.401 . S
C679 H696 0.930 . S
C680 C678 1.392 . S
C680 C679 1.401 . S
C680 H697 0.930 . S
C681 O664 1.262 . S
C681 O665 1.260 . S
C682 Tb618 2.833 . S
C682 O662 1.251 . S
C682 O667 1.256 . S
C682 C675 1.500 . S
C683 H648 0.929 . S
C683 C661 1.444 . S
C683 C684 1.317 . S
C684 H646 0.930 . S
C684 C652 1.432 . S
C684 C683 1.317 . S
C685 O669 1.283 . S
C685 O672 1.243 . S
C686 C687 1.382 . S
C686 C690 1.393 . S
C686 C693 1.500 . S
C687 C686 1.382 . S
C687 C688 1.400 . S
C687 H698 0.930 . S
C688 C687 1.400 . S
C688 C689 1.384 . S
C689 C688 1.384 . S
C689 C691 1.392 . S
C689 H699 0.931 . S
C690 C686 1.393 . S
C690 C691 1.401 . S
C690 H700 0.930 . S
C691 C689 1.392 . S
C691 C690 1.401 . S
C691 H701 0.930 . S
C692 O670 1.262 . S
C692 O671 1.260 . S
C693 Tb629 2.833 . S
C693 O668 1.251 . S
C693 O673 1.256 . S
C693 C686 1.500 . S
H694 C677 0.930 . S
H695 C678 0.931 . S
H696 C679 0.930 . S
H697 C680 0.930 . S
H698 C687 0.930 . S
H699 C689 0.931 . S
H700 C690 0.930 . S
H701 C691 0.930 . S
Tb702 N733 2.660 . S
Tb702 N740 2.600 . S
Tb702 O746 2.546 . S
Tb702 O747 2.610 . S
Tb702 O749 2.320 . S
Tb702 O750 2.552 . S
Tb702 O751 2.413 . S
Tb702 O753 2.362 . S
Tb702 O754 2.421 . S
Tb702 C766 2.833 . S
C703 C706 1.432 . S
C703 C707 1.414 . S
C703 N710 1.359 . S
C704 C706 1.417 . S
C704 C708 1.432 . S
C704 C716 1.410 . S
C705 C707 1.444 . S
C705 C708 1.317 . S
C705 H728 0.929 . S
C706 C703 1.432 . S
C706 C704 1.417 . S
C706 N714 1.360 . S
C707 C703 1.414 . S
C707 C705 1.444 . S
C707 C712 1.385 . S
C708 C704 1.432 . S
C708 C705 1.317 . S
C708 H720 0.930 . S
C709 C711 1.392 . S
C709 C712 1.370 . S
C709 H721 0.931 . S
N710 C703 1.359 . S
N710 C711 1.327 . S
N710 Tb713 2.600 . S
C711 C709 1.392 . S
C711 N710 1.327 . S
C711 H718 0.930 . S
C712 C707 1.385 . S
C712 C709 1.370 . S
C712 H731 0.930 . S
Tb713 N710 2.600 . S
Tb713 N714 2.660 . S
Tb713 O747 2.362 . S
Tb713 O748 2.421 . S
Tb713 O752 2.546 . S
Tb713 O753 2.610 . S
Tb713 O755 2.320 . S
Tb713 O756 2.552 . S
Tb713 O757 2.413 . S
Tb713 C777 2.833 . S
N714 C706 1.360 . S
N714 Tb713 2.660 . S
N714 C715 1.305 . S
C715 N714 1.305 . S
C715 C717 1.407 . S
C715 H722 0.930 . S
C716 C704 1.410 . S
C716 C717 1.345 . S
C716 H724 0.930 . S
C717 C715 1.407 . S
C717 C716 1.345 . S
C717 H719 0.930 . S
H718 C711 0.930 . S
H719 C717 0.930 . S
H720 C708 0.930 . S
H721 C709 0.931 . S
H722 C715 0.930 . S
H723 C737 0.930 . S
H724 C716 0.930 . S
H725 C743 0.930 . S
H726 C734 0.930 . S
H727 C741 0.931 . S
H728 C705 0.929 . S
H729 C735 0.930 . S
H730 C768 0.930 . S
H731 C712 0.930 . S
H732 C767 0.929 . S
N733 Tb702 2.660 . S
N733 C734 1.305 . S
N733 C738 1.360 . S
C734 H726 0.930 . S
C734 N733 1.305 . S
C734 C737 1.407 . S
C735 H729 0.930 . S
C735 C736 1.410 . S
C735 C737 1.345 . S
C736 C735 1.410 . S
C736 C738 1.417 . S
C736 C768 1.432 . S
C737 H723 0.930 . S
C737 C734 1.407 . S
C737 C735 1.345 . S
C738 N733 1.360 . S
C738 C736 1.417 . S
C738 C742 1.432 . S
H739 C744 0.930 . S
N740 Tb702 2.600 . S
N740 C742 1.359 . S
N740 C743 1.327 . S
C741 H727 0.931 . S
C741 C743 1.392 . S
C741 C744 1.370 . S
C742 C738 1.432 . S
C742 N740 1.359 . S
C742 C745 1.414 . S
C743 H725 0.930 . S
C743 N740 1.327 . S
C743 C741 1.392 . S
C744 H739 0.930 . S
C744 C741 1.370 . S
C744 C745 1.385 . S
C745 C742 1.414 . S
C745 C744 1.385 . S
C745 C767 1.444 . S
O746 Tb702 2.546 . S
O746 C766 1.251 . S
O747 Tb702 2.610 . S
O747 Tb713 2.362 . S
O747 C758 1.283 . S
O748 Tb713 2.421 . S
O748 C765 1.262 . S
O749 Tb702 2.320 . S
O749 C765 1.260 . S
O750 Tb702 2.552 . S
O750 C758 1.243 . S
O751 Tb702 2.413 . S
O751 C766 1.256 . S
O752 Tb713 2.546 . S
O752 C777 1.251 . S
O753 Tb702 2.362 . S
O753 Tb713 2.610 . S
O753 C769 1.283 . S
O754 Tb702 2.421 . S
O754 C776 1.262 . S
O755 Tb713 2.320 . S
O755 C776 1.260 . S
O756 Tb713 2.552 . S
O756 C769 1.243 . S
O757 Tb713 2.413 . S
O757 C777 1.256 . S
C758 O747 1.283 . S
C758 O750 1.243 . S
C759 C761 1.382 . S
C759 C763 1.393 . S
C759 C766 1.500 . S
C760 C761 1.400 . S
C760 C762 1.384 . S
C761 C759 1.382 . S
C761 C760 1.400 . S
C761 H778 0.930 . S
C762 C760 1.384 . S
C762 C764 1.392 . S
C762 H779 0.931 . S
C763 C759 1.393 . S
C763 C764 1.401 . S
C763 H780 0.930 . S
C764 C762 1.392 . S
C764 C763 1.401 . S
C764 H781 0.930 . S
C765 O748 1.262 . S
C765 O749 1.260 . S
C766 Tb702 2.833 . S
C766 O746 1.251 . S
C766 O751 1.256 . S
C766 C759 1.500 . S
C767 H732 0.929 . S
C767 C745 1.444 . S
C767 C768 1.317 . S
C768 H730 0.930 . S
C768 C736 1.432 . S
C768 C767 1.317 . S
C769 O753 1.283 . S
C769 O756 1.243 . S
C770 C771 1.382 . S
C770 C774 1.393 . S
C770 C777 1.500 . S
C771 C770 1.382 . S
C771 C772 1.400 . S
C771 H782 0.930 . S
C772 C771 1.400 . S
C772 C773 1.384 . S
C773 C772 1.384 . S
C773 C775 1.392 . S
C773 H783 0.931 . S
C774 C770 1.393 . S
C774 C775 1.401 . S
C774 H784 0.930 . S
C775 C773 1.392 . S
C775 C774 1.401 . S
C775 H785 0.930 . S
C776 O754 1.262 . S
C776 O755 1.260 . S
C777 Tb713 2.833 . S
C777 O752 1.251 . S
C777 O757 1.256 . S
C777 C770 1.500 . S
H778 C761 0.930 . S
H779 C762 0.931 . S
H780 C763 0.930 . S
H781 C764 0.930 . S
H782 C771 0.930 . S
H783 C773 0.931 . S
H784 C774 0.930 . S
H785 C775 0.930 . S
Tb786 N817 2.660 . S
Tb786 N824 2.600 . S
Tb786 O830 2.546 . S
Tb786 O831 2.610 . S
Tb786 O833 2.320 . S
Tb786 O834 2.552 . S
Tb786 O835 2.413 . S
Tb786 O837 2.362 . S
Tb786 O838 2.421 . S
Tb786 C850 2.833 . S
C787 C790 1.432 . S
C787 C791 1.414 . S
C787 N794 1.359 . S
C788 C790 1.417 . S
C788 C792 1.432 . S
C788 C800 1.410 . S
C789 C791 1.444 . S
C789 C792 1.317 . S
C789 H812 0.929 . S
C790 C787 1.432 . S
C790 C788 1.417 . S
C790 N798 1.360 . S
C791 C787 1.414 . S
C791 C789 1.444 . S
C791 C796 1.385 . S
C792 C788 1.432 . S
C792 C789 1.317 . S
C792 H804 0.930 . S
C793 C795 1.392 . S
C793 C796 1.370 . S
C793 H805 0.931 . S
N794 C787 1.359 . S
N794 C795 1.327 . S
N794 Tb797 2.600 . S
C795 C793 1.392 . S
C795 N794 1.327 . S
C795 H802 0.930 . S
C796 C791 1.385 . S
C796 C793 1.370 . S
C796 H815 0.930 . S
Tb797 N794 2.600 . S
Tb797 N798 2.660 . S
Tb797 O831 2.362 . S
Tb797 O832 2.421 . S
Tb797 O836 2.546 . S
Tb797 O837 2.610 . S
Tb797 O839 2.320 . S
Tb797 O840 2.552 . S
Tb797 O841 2.413 . S
Tb797 C861 2.833 . S
N798 C790 1.360 . S
N798 Tb797 2.660 . S
N798 C799 1.305 . S
C799 N798 1.305 . S
C799 C801 1.407 . S
C799 H806 0.930 . S
C800 C788 1.410 . S
C800 C801 1.345 . S
C800 H808 0.930 . S
C801 C799 1.407 . S
C801 C800 1.345 . S
C801 H803 0.930 . S
H802 C795 0.930 . S
H803 C801 0.930 . S
H804 C792 0.930 . S
H805 C793 0.931 . S
H806 C799 0.930 . S
H807 C821 0.930 . S
H808 C800 0.930 . S
H809 C827 0.930 . S
H810 C818 0.930 . S
H811 C825 0.931 . S
H812 C789 0.929 . S
H813 C819 0.930 . S
H814 C852 0.930 . S
H815 C796 0.930 . S
H816 C851 0.929 . S
N817 Tb786 2.660 . S
N817 C818 1.305 . S
N817 C822 1.360 . S
C818 H810 0.930 . S
C818 N817 1.305 . S
C818 C821 1.407 . S
C819 H813 0.930 . S
C819 C820 1.410 . S
C819 C821 1.345 . S
C820 C819 1.410 . S
C820 C822 1.417 . S
C820 C852 1.432 . S
C821 H807 0.930 . S
C821 C818 1.407 . S
C821 C819 1.345 . S
C822 N817 1.360 . S
C822 C820 1.417 . S
C822 C826 1.432 . S
H823 C828 0.930 . S
N824 Tb786 2.600 . S
N824 C826 1.359 . S
N824 C827 1.327 . S
C825 H811 0.931 . S
C825 C827 1.392 . S
C825 C828 1.370 . S
C826 C822 1.432 . S
C826 N824 1.359 . S
C826 C829 1.414 . S
C827 H809 0.930 . S
C827 N824 1.327 . S
C827 C825 1.392 . S
C828 H823 0.930 . S
C828 C825 1.370 . S
C828 C829 1.385 . S
C829 C826 1.414 . S
C829 C828 1.385 . S
C829 C851 1.444 . S
O830 Tb786 2.546 . S
O830 C850 1.251 . S
O831 Tb786 2.610 . S
O831 Tb797 2.362 . S
O831 C842 1.283 . S
O832 Tb797 2.421 . S
O832 C849 1.262 . S
O833 Tb786 2.320 . S
O833 C849 1.260 . S
O834 Tb786 2.552 . S
O834 C842 1.243 . S
O835 Tb786 2.413 . S
O835 C850 1.256 . S
O836 Tb797 2.546 . S
O836 C861 1.251 . S
O837 Tb786 2.362 . S
O837 Tb797 2.610 . S
O837 C853 1.283 . S
O838 Tb786 2.421 . S
O838 C860 1.262 . S
O839 Tb797 2.320 . S
O839 C860 1.260 . S
O840 Tb797 2.552 . S
O840 C853 1.243 . S
O841 Tb797 2.413 . S
O841 C861 1.256 . S
C842 O831 1.283 . S
C842 O834 1.243 . S
C843 C845 1.382 . S
C843 C847 1.393 . S
C843 C850 1.500 . S
C844 C845 1.400 . S
C844 C846 1.384 . S
C845 C843 1.382 . S
C845 C844 1.400 . S
C845 H862 0.930 . S
C846 C844 1.384 . S
C846 C848 1.392 . S
C846 H863 0.931 . S
C847 C843 1.393 . S
C847 C848 1.401 . S
C847 H864 0.930 . S
C848 C846 1.392 . S
C848 C847 1.401 . S
C848 H865 0.930 . S
C849 O832 1.262 . S
C849 O833 1.260 . S
C850 Tb786 2.833 . S
C850 O830 1.251 . S
C850 O835 1.256 . S
C850 C843 1.500 . S
C851 H816 0.929 . S
C851 C829 1.444 . S
C851 C852 1.317 . S
C852 H814 0.930 . S
C852 C820 1.432 . S
C852 C851 1.317 . S
C853 O837 1.283 . S
C853 O840 1.243 . S
C854 C855 1.382 . S
C854 C858 1.393 . S
C854 C861 1.500 . S
C855 C854 1.382 . S
C855 C856 1.400 . S
C855 H866 0.930 . S
C856 C855 1.400 . S
C856 C857 1.384 . S
C857 C856 1.384 . S
C857 C859 1.392 . S
C857 H867 0.931 . S
C858 C854 1.393 . S
C858 C859 1.401 . S
C858 H868 0.930 . S
C859 C857 1.392 . S
C859 C858 1.401 . S
C859 H869 0.930 . S
C860 O838 1.262 . S
C860 O839 1.260 . S
C861 Tb797 2.833 . S
C861 O836 1.251 . S
C861 O841 1.256 . S
C861 C854 1.500 . S
H862 C845 0.930 . S
H863 C846 0.931 . S
H864 C847 0.930 . S
H865 C848 0.930 . S
H866 C855 0.930 . S
H867 C857 0.931 . S
H868 C858 0.930 . S
H869 C859 0.930 . S
Tb870 N901 2.660 . S
Tb870 N908 2.600 . S
Tb870 O914 2.546 . S
Tb870 O915 2.610 . S
Tb870 O917 2.320 . S
Tb870 O918 2.552 . S
Tb870 O919 2.413 . S
Tb870 O921 2.362 . S
Tb870 O922 2.421 . S
Tb870 C934 2.833 . S
C871 C874 1.432 . S
C871 C875 1.414 . S
C871 N878 1.359 . S
C872 C874 1.417 . S
C872 C876 1.432 . S
C872 C884 1.410 . S
C873 C875 1.444 . S
C873 C876 1.317 . S
C873 H896 0.929 . S
C874 C871 1.432 . S
C874 C872 1.417 . S
C874 N882 1.360 . S
C875 C871 1.414 . S
C875 C873 1.444 . S
C875 C880 1.385 . S
C876 C872 1.432 . S
C876 C873 1.317 . S
C876 H888 0.930 . S
C877 C879 1.392 . S
C877 C880 1.370 . S
C877 H889 0.931 . S
N878 C871 1.359 . S
N878 C879 1.327 . S
N878 Tb881 2.600 . S
C879 C877 1.392 . S
C879 N878 1.327 . S
C879 H886 0.930 . S
C880 C875 1.385 . S
C880 C877 1.370 . S
C880 H899 0.930 . S
Tb881 N878 2.600 . S
Tb881 N882 2.660 . S
Tb881 O915 2.362 . S
Tb881 O916 2.421 . S
Tb881 O920 2.546 . S
Tb881 O921 2.610 . S
Tb881 O923 2.320 . S
Tb881 O924 2.552 . S
Tb881 O925 2.413 . S
Tb881 C945 2.833 . S
N882 C874 1.360 . S
N882 Tb881 2.660 . S
N882 C883 1.305 . S
C883 N882 1.305 . S
C883 C885 1.407 . S
C883 H890 0.930 . S
C884 C872 1.410 . S
C884 C885 1.345 . S
C884 H892 0.930 . S
C885 C883 1.407 . S
C885 C884 1.345 . S
C885 H887 0.930 . S
H886 C879 0.930 . S
H887 C885 0.930 . S
H888 C876 0.930 . S
H889 C877 0.931 . S
H890 C883 0.930 . S
H891 C905 0.930 . S
H892 C884 0.930 . S
H893 C911 0.930 . S
H894 C902 0.930 . S
H895 C909 0.931 . S
H896 C873 0.929 . S
H897 C903 0.930 . S
H898 C936 0.930 . S
H899 C880 0.930 . S
H900 C935 0.929 . S
N901 Tb870 2.660 . S
N901 C902 1.305 . S
N901 C906 1.360 . S
C902 H894 0.930 . S
C902 N901 1.305 . S
C902 C905 1.407 . S
C903 H897 0.930 . S
C903 C904 1.410 . S
C903 C905 1.345 . S
C904 C903 1.410 . S
C904 C906 1.417 . S
C904 C936 1.432 . S
C905 H891 0.930 . S
C905 C902 1.407 . S
C905 C903 1.345 . S
C906 N901 1.360 . S
C906 C904 1.417 . S
C906 C910 1.432 . S
H907 C912 0.930 . S
N908 Tb870 2.600 . S
N908 C910 1.359 . S
N908 C911 1.327 . S
C909 H895 0.931 . S
C909 C911 1.392 . S
C909 C912 1.370 . S
C910 C906 1.432 . S
C910 N908 1.359 . S
C910 C913 1.414 . S
C911 H893 0.930 . S
C911 N908 1.327 . S
C911 C909 1.392 . S
C912 H907 0.930 . S
C912 C909 1.370 . S
C912 C913 1.385 . S
C913 C910 1.414 . S
C913 C912 1.385 . S
C913 C935 1.444 . S
O914 Tb870 2.546 . S
O914 C934 1.251 . S
O915 Tb870 2.610 . S
O915 Tb881 2.362 . S
O915 C926 1.283 . S
O916 Tb881 2.421 . S
O916 C933 1.262 . S
O917 Tb870 2.320 . S
O917 C933 1.260 . S
O918 Tb870 2.552 . S
O918 C926 1.243 . S
O919 Tb870 2.413 . S
O919 C934 1.256 . S
O920 Tb881 2.546 . S
O920 C945 1.251 . S
O921 Tb870 2.362 . S
O921 Tb881 2.610 . S
O921 C937 1.283 . S
O922 Tb870 2.421 . S
O922 C944 1.262 . S
O923 Tb881 2.320 . S
O923 C944 1.260 . S
O924 Tb881 2.552 . S
O924 C937 1.243 . S
O925 Tb881 2.413 . S
O925 C945 1.256 . S
C926 O915 1.283 . S
C926 O918 1.243 . S
C927 C929 1.382 . S
C927 C931 1.393 . S
C927 C934 1.500 . S
C928 C929 1.400 . S
C928 C930 1.384 . S
C929 C927 1.382 . S
C929 C928 1.400 . S
C929 H946 0.930 . S
C930 C928 1.384 . S
C930 C932 1.392 . S
C930 H947 0.931 . S
C931 C927 1.393 . S
C931 C932 1.401 . S
C931 H948 0.930 . S
C932 C930 1.392 . S
C932 C931 1.401 . S
C932 H949 0.930 . S
C933 O916 1.262 . S
C933 O917 1.260 . S
C934 Tb870 2.833 . S
C934 O914 1.251 . S
C934 O919 1.256 . S
C934 C927 1.500 . S
C935 H900 0.929 . S
C935 C913 1.444 . S
C935 C936 1.317 . S
C936 H898 0.930 . S
C936 C904 1.432 . S
C936 C935 1.317 . S
C937 O921 1.283 . S
C937 O924 1.243 . S
C938 C939 1.382 . S
C938 C942 1.393 . S
C938 C945 1.500 . S
C939 C938 1.382 . S
C939 C940 1.400 . S
C939 H950 0.930 . S
C940 C939 1.400 . S
C940 C941 1.384 . S
C941 C940 1.384 . S
C941 C943 1.392 . S
C941 H951 0.931 . S
C942 C938 1.393 . S
C942 C943 1.401 . S
C942 H952 0.930 . S
C943 C941 1.392 . S
C943 C942 1.401 . S
C943 H953 0.930 . S
C944 O922 1.262 . S
C944 O923 1.260 . S
C945 Tb881 2.833 . S
C945 O920 1.251 . S
C945 O925 1.256 . S
C945 C938 1.500 . S
H946 C929 0.930 . S
H947 C930 0.931 . S
H948 C931 0.930 . S
H949 C932 0.930 . S
H950 C939 0.930 . S
H951 C941 0.931 . S
H952 C942 0.930 . S
H953 C943 0.930 . S
C954 C955 1.349 . S
C954 C956 1.327 . S
C954 H979 0.950 . S
C955 C954 1.349 . S
C955 C971 1.349 . S
C956 C954 1.327 . S
C956 C975 1.429 . S
C956 H980 0.950 . S
C957 C974 1.574 . S
C957 C976 1.368 . S
C957 H981 0.949 . S
H958 C962 0.949 . S
C959 C960 1.349 . S
C959 C961 1.327 . S
C959 H982 0.950 . S
C960 C959 1.349 . S
C960 C972 1.349 . S
C961 C959 1.327 . S
C961 C977 1.429 . S
C961 H983 0.950 . S
C962 H958 0.949 . S
C962 C970 1.574 . S
C962 C978 1.368 . S
H963 C971 0.950 . S
H964 C969 0.950 . S
H965 C970 0.949 . S
H966 C972 0.950 . S
H967 C973 0.950 . S
H968 C974 0.949 . S
C969 H964 0.950 . S
C969 C971 1.327 . S
C969 C975 1.429 . S
C970 C962 1.574 . S
C970 H965 0.949 . S
C970 C976 1.368 . S
C971 C955 1.349 . S
C971 H963 0.950 . S
C971 C969 1.327 . S
C972 C960 1.349 . S
C972 H966 0.950 . S
C972 C973 1.327 . S
C973 H967 0.950 . S
C973 C972 1.327 . S
C973 C977 1.429 . S
C974 C957 1.574 . S
C974 H968 0.949 . S
C974 C978 1.368 . S
C975 C956 1.429 . S
C975 C969 1.429 . S
C975 C976 1.523 . S
C976 C957 1.368 . S
C976 C970 1.368 . S
C976 C975 1.523 . S
C977 C961 1.429 . S
C977 C973 1.429 . S
C977 C978 1.523 . S
C978 C962 1.368 . S
C978 C974 1.368 . S
C978 C977 1.523 . S
H979 C954 0.950 . S
H980 C956 0.950 . S
H981 C957 0.949 . S
H982 C959 0.950 . S
H983 C961 0.950 . S
C984 C985 1.349 . S
C984 C986 1.327 . S
C984 H1009 0.950 . S
C985 C984 1.349 . S
C985 C1001 1.349 . S
C986 C984 1.327 . S
C986 C1005 1.429 . S
C986 H1010 0.950 . S
C987 C1004 1.574 . S
C987 C1006 1.368 . S
C987 H1011 0.949 . S
H988 C992 0.949 . S
C989 C990 1.349 . S
C989 C991 1.327 . S
C989 H1012 0.950 . S
C990 C989 1.349 . S
C990 C1002 1.349 . S
C991 C989 1.327 . S
C991 C1007 1.429 . S
C991 H1013 0.950 . S
C992 H988 0.949 . S
C992 C1000 1.574 . S
C992 C1008 1.368 . S
H993 C1001 0.950 . S
H994 C999 0.950 . S
H995 C1000 0.949 . S
H996 C1002 0.950 . S
H997 C1003 0.950 . S
H998 C1004 0.949 . S
C999 H994 0.950 . S
C999 C1001 1.327 . S
C999 C1005 1.429 . S
C1000 C992 1.574 . S
C1000 H995 0.949 . S
C1000 C1006 1.368 . S
C1001 C985 1.349 . S
C1001 H993 0.950 . S
C1001 C999 1.327 . S
C1002 C990 1.349 . S
C1002 H996 0.950 . S
C1002 C1003 1.327 . S
C1003 H997 0.950 . S
C1003 C1002 1.327 . S
C1003 C1007 1.429 . S
C1004 C987 1.574 . S
C1004 H998 0.949 . S
C1004 C1008 1.368 . S
C1005 C986 1.429 . S
C1005 C999 1.429 . S
C1005 C1006 1.523 . S
C1006 C987 1.368 . S
C1006 C1000 1.368 . S
C1006 C1005 1.523 . S
C1007 C991 1.429 . S
C1007 C1003 1.429 . S
C1007 C1008 1.523 . S
C1008 C992 1.368 . S
C1008 C1004 1.368 . S
C1008 C1007 1.523 . S
H1009 C984 0.950 . S
H1010 C986 0.950 . S
H1011 C987 0.949 . S
H1012 C989 0.950 . S
H1013 C991 0.950 . S
C1014 C1015 1.349 . S
C1014 C1016 1.327 . S
C1014 H1039 0.950 . S
C1015 C1014 1.349 . S
C1015 C1031 1.349 . S
C1016 C1014 1.327 . S
C1016 C1035 1.429 . S
C1016 H1040 0.950 . S
C1017 C1034 1.574 . S
C1017 C1036 1.368 . S
C1017 H1041 0.949 . S
H1018 C1022 0.949 . S
C1019 C1020 1.349 . S
C1019 C1021 1.327 . S
C1019 H1042 0.950 . S
C1020 C1019 1.349 . S
C1020 C1032 1.349 . S
C1021 C1019 1.327 . S
C1021 C1037 1.429 . S
C1021 H1043 0.950 . S
C1022 H1018 0.949 . S
C1022 C1030 1.574 . S
C1022 C1038 1.368 . S
H1023 C1031 0.950 . S
H1024 C1029 0.950 . S
H1025 C1030 0.949 . S
H1026 C1032 0.950 . S
H1027 C1033 0.950 . S
H1028 C1034 0.949 . S
C1029 H1024 0.950 . S
C1029 C1031 1.327 . S
C1029 C1035 1.429 . S
C1030 C1022 1.574 . S
C1030 H1025 0.949 . S
C1030 C1036 1.368 . S
C1031 C1015 1.349 . S
C1031 H1023 0.950 . S
C1031 C1029 1.327 . S
C1032 C1020 1.349 . S
C1032 H1026 0.950 . S
C1032 C1033 1.327 . S
C1033 H1027 0.950 . S
C1033 C1032 1.327 . S
C1033 C1037 1.429 . S
C1034 C1017 1.574 . S
C1034 H1028 0.949 . S
C1034 C1038 1.368 . S
C1035 C1016 1.429 . S
C1035 C1029 1.429 . S
C1035 C1036 1.523 . S
C1036 C1017 1.368 . S
C1036 C1030 1.368 . S
C1036 C1035 1.523 . S
C1037 C1021 1.429 . S
C1037 C1033 1.429 . S
C1037 C1038 1.523 . S
C1038 C1022 1.368 . S
C1038 C1034 1.368 . S
C1038 C1037 1.523 . S
H1039 C1014 0.950 . S
H1040 C1016 0.950 . S
H1041 C1017 0.949 . S
H1042 C1019 0.950 . S
H1043 C1021 0.950 . S
C1044 C1045 1.349 . S
C1044 C1046 1.327 . S
C1044 H1069 0.950 . S
C1045 C1044 1.349 . S
C1045 C1061 1.349 . S
C1046 C1044 1.327 . S
C1046 C1065 1.429 . S
C1046 H1070 0.950 . S
C1047 C1064 1.574 . S
C1047 C1066 1.368 . S
C1047 H1071 0.949 . S
H1048 C1052 0.949 1_554 S
C1049 C1050 1.349 . S
C1049 C1051 1.327 . S
C1049 H1072 0.950 . S
C1050 C1049 1.349 . S
C1050 C1062 1.349 1_556 S
C1051 C1049 1.327 . S
C1051 C1067 1.429 . S
C1051 H1073 0.950 . S
C1052 H1048 0.949 1_556 S
C1052 C1060 1.574 . S
C1052 C1068 1.368 . S
H1053 C1061 0.950 . S
H1054 C1059 0.950 . S
H1055 C1060 0.949 . S
H1056 C1062 0.950 . S
H1057 C1063 0.950 . S
H1058 C1064 0.949 . S
C1059 H1054 0.950 . S
C1059 C1061 1.327 . S
C1059 C1065 1.429 . S
C1060 C1052 1.574 . S
C1060 H1055 0.949 . S
C1060 C1066 1.368 . S
C1061 C1045 1.349 . S
C1061 H1053 0.950 . S
C1061 C1059 1.327 . S
C1062 C1050 1.349 1_554 S
C1062 H1056 0.950 . S
C1062 C1063 1.327 . S
C1063 H1057 0.950 . S
C1063 C1062 1.327 . S
C1063 C1067 1.429 1_554 S
C1064 C1047 1.574 . S
C1064 H1058 0.949 . S
C1064 C1068 1.368 . S
C1065 C1046 1.429 . S
C1065 C1059 1.429 . S
C1065 C1066 1.523 . S
C1066 C1047 1.368 . S
C1066 C1060 1.368 . S
C1066 C1065 1.523 . S
C1067 C1051 1.429 . S
C1067 C1063 1.429 1_556 S
C1067 C1068 1.523 . S
C1068 C1052 1.368 . S
C1068 C1064 1.368 . S
C1068 C1067 1.523 . S
H1069 C1044 0.950 . S
H1070 C1046 0.950 . S
H1071 C1047 0.949 . S
H1072 C1049 0.950 . S
H1073 C1051 0.950 . S
C1074 C1075 1.349 . S
C1074 C1076 1.327 . S
C1074 H1099 0.950 . S
C1075 C1074 1.349 . S
C1075 C1091 1.349 . S
C1076 C1074 1.327 . S
C1076 C1095 1.429 . S
C1076 H1100 0.950 . S
C1077 C1094 1.574 . S
C1077 C1096 1.368 . S
C1077 H1101 0.949 . S
H1078 C1082 0.949 . S
C1079 C1080 1.349 . S
C1079 C1081 1.327 . S
C1079 H1102 0.950 . S
C1080 C1079 1.349 . S
C1080 C1092 1.349 1_556 S
C1081 C1079 1.327 . S
C1081 C1097 1.429 . S
C1081 H1103 0.950 . S
C1082 H1078 0.949 . S
C1082 C1090 1.574 . S
C1082 C1098 1.368 . S
H1083 C1091 0.950 . S
H1084 C1089 0.950 . S
H1085 C1090 0.949 . S
H1086 C1092 0.950 . S
H1087 C1093 0.952 1_554 S
H1088 C1094 0.949 . S
C1089 H1084 0.950 . S
C1089 C1091 1.327 . S
C1089 C1095 1.429 . S
C1090 C1082 1.574 . S
C1090 H1085 0.949 . S
C1090 C1096 1.368 . S
C1091 C1075 1.349 . S
C1091 H1083 0.950 . S
C1091 C1089 1.327 . S
C1092 C1080 1.349 1_554 S
C1092 H1086 0.950 . S
C1092 C1093 1.329 1_554 S
C1093 H1087 0.952 1_556 S
C1093 C1092 1.329 1_556 S
C1093 C1097 1.425 . S
C1094 C1077 1.574 . S
C1094 H1088 0.949 . S
C1094 C1098 1.368 . S
C1095 C1076 1.429 . S
C1095 C1089 1.429 . S
C1095 C1096 1.523 . S
C1096 C1077 1.368 . S
C1096 C1090 1.368 . S
C1096 C1095 1.523 . S
C1097 C1081 1.429 . S
C1097 C1093 1.425 . S
C1097 C1098 1.523 . S
C1098 C1082 1.368 . S
C1098 C1094 1.368 . S
C1098 C1097 1.523 . S
H1099 C1074 0.950 . S
H1100 C1076 0.950 . S
H1101 C1077 0.949 . S
H1102 C1079 0.950 . S
H1103 C1081 0.950 . S
C1104 C1105 1.349 . S
C1104 C1106 1.327 . S
C1104 H1129 0.950 . S
C1105 C1104 1.349 . S
C1105 C1121 1.349 . S
C1106 C1104 1.327 . S
C1106 C1125 1.429 . S
C1106 H1130 0.950 . S
C1107 C1124 1.574 . S
C1107 C1126 1.368 . S
C1107 H1131 0.949 . S
H1108 C1112 0.949 1_554 S
C1109 C1110 1.413 . S
C1109 C1111 1.327 . S
C1109 H1132 0.950 . S
C1110 C1109 1.413 . S
C1110 C1122 1.306 1_556 S
C1111 C1109 1.327 . S
C1111 C1127 1.429 . S
C1111 H1133 0.950 . S
C1112 H1108 0.949 1_556 S
C1112 C1120 1.574 . S
C1112 C1128 1.368 . S
H1113 C1121 0.950 . S
H1114 C1119 0.950 . S
H1115 C1120 0.949 . S
H1116 C1122 0.950 . S
H1117 C1123 0.950 . S
H1118 C1124 0.949 . S
C1119 H1114 0.950 . S
C1119 C1121 1.327 . S
C1119 C1125 1.429 . S
C1120 C1112 1.574 . S
C1120 H1115 0.949 . S
C1120 C1126 1.368 . S
C1121 C1105 1.349 . S
C1121 H1113 0.950 . S
C1121 C1119 1.327 . S
C1122 C1110 1.306 1_554 S
C1122 H1116 0.950 . S
C1122 C1123 1.327 . S
C1123 H1117 0.950 . S
C1123 C1122 1.327 . S
C1123 C1127 1.429 1_554 S
C1124 C1107 1.574 . S
C1124 H1118 0.949 . S
C1124 C1128 1.368 . S
C1125 C1106 1.429 . S
C1125 C1119 1.429 . S
C1125 C1126 1.523 . S
C1126 C1107 1.368 . S
C1126 C1120 1.368 . S
C1126 C1125 1.523 . S
C1127 C1111 1.429 . S
C1127 C1123 1.429 1_556 S
C1127 C1128 1.523 . S
C1128 C1112 1.368 . S
C1128 C1124 1.368 . S
C1128 C1127 1.523 . S
H1129 C1104 0.950 . S
H1130 C1106 0.950 . S
H1131 C1107 0.949 . S
H1132 C1109 0.950 . S
H1133 C1111 0.950 . S
C1134 C1135 1.349 . S
C1134 C1136 1.327 . S
C1134 H1159 0.950 . S
C1135 C1134 1.349 . S
C1135 C1151 1.349 . S
C1136 C1134 1.327 . S
C1136 C1155 1.429 . S
C1136 H1160 0.950 . S
C1137 C1154 1.574 . S
C1137 C1156 1.368 . S
C1137 H1161 0.953 . S
H1138 C1142 0.949 . S
C1139 C1140 1.349 1_554 S
C1139 C1141 1.327 . S
C1139 H1162 0.950 . S
C1140 C1139 1.349 1_556 S
C1140 C1152 1.349 . S
C1141 C1139 1.327 . S
C1141 C1157 1.429 1_554 S
C1141 H1163 0.950 . S
C1142 H1138 0.949 . S
C1142 C1150 1.574 . S
C1142 C1158 1.368 . S
H1143 C1151 0.950 . S
H1144 C1149 0.950 . S
H1145 C1150 0.949 . S
H1146 C1152 0.950 . S
H1147 C1153 0.950 . S
H1148 C1154 0.949 1_554 S
C1149 H1144 0.950 . S
C1149 C1151 1.327 . S
C1149 C1155 1.429 . S
C1150 C1142 1.574 . S
C1150 H1145 0.949 . S
C1150 C1156 1.368 . S
C1151 C1135 1.349 . S
C1151 H1143 0.950 . S
C1151 C1149 1.327 . S
C1152 C1140 1.349 . S
C1152 H1146 0.950 . S
C1152 C1153 1.327 . S
C1153 H1147 0.950 . S
C1153 C1152 1.327 . S
C1153 C1157 1.429 . S
C1154 C1137 1.574 . S
C1154 H1148 0.949 1_556 S
C1154 C1158 1.368 . S
C1155 C1136 1.429 . S
C1155 C1149 1.429 . S
C1155 C1156 1.523 . S
C1156 C1137 1.368 . S
C1156 C1150 1.368 . S
C1156 C1155 1.523 . S
C1157 C1141 1.429 1_556 S
C1157 C1153 1.429 . S
C1157 C1158 1.523 . S
C1158 C1142 1.368 . S
C1158 C1154 1.368 . S
C1158 C1157 1.523 . S
H1159 C1134 0.950 . S
H1160 C1136 0.950 . S
H1161 C1137 0.953 . S
H1162 C1139 0.950 . S
H1163 C1141 0.950 . S
C1164 C1165 1.349 . S
C1164 C1166 1.327 . S
C1164 H1189 0.950 . S
C1165 C1164 1.349 . S
C1165 C1181 1.349 . S
C1166 C1164 1.327 . S
C1166 C1185 1.429 . S
C1166 H1190 0.950 . S
C1167 C1184 1.574 . S
C1167 C1186 1.368 . S
C1167 H1191 0.949 . S
H1168 C1172 0.949 . S
C1169 C1170 1.349 1_554 S
C1169 C1171 1.327 . S
C1169 H1192 0.950 . S
C1170 C1169 1.349 1_556 S
C1170 C1182 1.349 . S
C1171 C1169 1.327 . S
C1171 C1187 1.429 1_554 S
C1171 H1193 0.950 . S
C1172 H1168 0.949 . S
C1172 C1180 1.574 . S
C1172 C1188 1.368 . S
H1173 C1181 0.950 . S
H1174 C1179 0.950 . S
H1175 C1180 0.949 . S
H1176 C1182 0.950 . S
H1177 C1183 0.950 . S
H1178 C1184 0.949 1_554 S
C1179 H1174 0.950 . S
C1179 C1181 1.327 . S
C1179 C1185 1.429 . S
C1180 C1172 1.574 . S
C1180 H1175 0.949 . S
C1180 C1186 1.368 . S
C1181 C1165 1.349 . S
C1181 H1173 0.950 . S
C1181 C1179 1.327 . S
C1182 C1170 1.349 . S
C1182 H1176 0.950 . S
C1182 C1183 1.327 . S
C1183 H1177 0.950 . S
C1183 C1182 1.327 . S
C1183 C1187 1.429 . S
C1184 C1167 1.574 . S
C1184 H1178 0.949 1_556 S
C1184 C1188 1.368 . S
C1185 C1166 1.429 . S
C1185 C1179 1.429 . S
C1185 C1186 1.523 . S
C1186 C1167 1.368 . S
C1186 C1180 1.368 . S
C1186 C1185 1.523 . S
C1187 C1171 1.429 1_556 S
C1187 C1183 1.429 . S
C1187 C1188 1.523 . S
C1188 C1172 1.368 . S
C1188 C1184 1.368 . S
C1188 C1187 1.523 . S
H1189 C1164 0.950 . S
H1190 C1166 0.950 . S
H1191 C1167 0.949 . S
H1192 C1169 0.950 . S
H1193 C1171 0.950 . S
C1194 C1195 1.349 . S
C1194 C1196 1.327 . S
C1194 H1219 0.950 . S
C1195 C1194 1.349 . S
C1195 C1211 1.349 . S
C1196 C1194 1.327 . S
C1196 C1215 1.429 . S
C1196 H1220 0.950 . S
C1197 C1214 1.574 . S
C1197 C1216 1.368 . S
C1197 H1221 0.949 . S
H1198 C1202 0.949 . S
C1199 C1200 1.362 . S
C1199 C1201 1.327 . S
C1199 H1222 0.950 . S
C1200 C1199 1.362 . S
C1200 C1212 1.345 1_556 S
C1201 C1199 1.327 . S
C1201 C1217 1.429 . S
C1201 H1223 0.950 . S
C1202 H1198 0.949 . S
C1202 C1210 1.574 . S
C1202 C1218 1.368 . S
H1203 C1211 0.950 . S
H1204 C1209 0.950 . S
H1205 C1210 0.949 . S
H1206 C1212 0.950 . S
H1207 C1213 0.950 . S
H1208 C1214 0.949 . S
C1209 H1204 0.950 . S
C1209 C1211 1.327 . S
C1209 C1215 1.429 . S
C1210 C1202 1.574 . S
C1210 H1205 0.949 . S
C1210 C1216 1.368 . S
C1211 C1195 1.349 . S
C1211 H1203 0.950 . S
C1211 C1209 1.327 . S
C1212 C1200 1.345 1_554 S
C1212 H1206 0.950 . S
C1212 C1213 1.327 1_554 S
C1213 H1207 0.950 . S
C1213 C1212 1.327 1_556 S
C1213 C1217 1.429 . S
C1214 C1197 1.574 . S
C1214 H1208 0.949 . S
C1214 C1218 1.368 . S
C1215 C1196 1.429 . S
C1215 C1209 1.429 . S
C1215 C1216 1.523 . S
C1216 C1197 1.368 . S
C1216 C1210 1.368 . S
C1216 C1215 1.523 . S
C1217 C1201 1.429 . S
C1217 C1213 1.429 . S
C1217 C1218 1.523 . S
C1218 C1202 1.368 . S
C1218 C1214 1.368 . S
C1218 C1217 1.523 . S
H1219 C1194 0.950 . S
H1220 C1196 0.950 . S
H1221 C1197 0.949 . S
H1222 C1199 0.950 . S
H1223 C1201 0.950 . S
C1224 C1225 1.349 . S
C1224 C1226 1.327 . S
C1224 H1249 0.950 . S
C1225 C1224 1.349 . S
C1225 C1241 1.349 . S
C1226 C1224 1.327 . S
C1226 C1245 1.429 . S
C1226 H1250 0.950 . S
C1227 C1244 1.574 . S
C1227 C1246 1.368 . S
C1227 H1251 0.949 . S
H1228 C1232 0.949 . S
C1229 C1230 1.349 . S
C1229 C1231 1.327 . S
C1229 H1252 0.950 . S
C1230 C1229 1.349 . S
C1230 C1242 1.349 . S
C1231 C1229 1.327 . S
C1231 C1247 1.429 . S
C1231 H1253 0.950 . S
C1232 H1228 0.949 . S
C1232 C1240 1.574 . S
C1232 C1248 1.368 . S
H1233 C1241 0.950 . S
H1234 C1239 0.950 . S
H1235 C1240 0.949 . S
H1236 C1242 0.950 . S
H1237 C1243 0.950 . S
H1238 C1244 0.949 . S
C1239 H1234 0.950 . S
C1239 C1241 1.327 . S
C1239 C1245 1.429 . S
C1240 C1232 1.574 . S
C1240 H1235 0.949 . S
C1240 C1246 1.368 . S
C1241 C1225 1.349 . S
C1241 H1233 0.950 . S
C1241 C1239 1.327 . S
C1242 C1230 1.349 . S
C1242 H1236 0.950 . S
C1242 C1243 1.327 . S
C1243 H1237 0.950 . S
C1243 C1242 1.327 . S
C1243 C1247 1.429 . S
C1244 C1227 1.574 . S
C1244 H1238 0.949 . S
C1244 C1248 1.368 . S
C1245 C1226 1.429 . S
C1245 C1239 1.429 . S
C1245 C1246 1.523 . S
C1246 C1227 1.368 . S
C1246 C1240 1.368 . S
C1246 C1245 1.523 . S
C1247 C1231 1.429 . S
C1247 C1243 1.429 . S
C1247 C1248 1.523 . S
C1248 C1232 1.368 . S
C1248 C1244 1.368 . S
C1248 C1247 1.523 . S
H1249 C1224 0.950 . S
H1250 C1226 0.950 . S
H1251 C1227 0.949 . S
H1252 C1229 0.950 . S
H1253 C1231 0.950 . S
C1254 C1255 1.349 . S
C1254 C1256 1.327 . S
C1254 H1279 0.950 . S
C1255 C1254 1.349 . S
C1255 C1271 1.349 . S
C1256 C1254 1.327 . S
C1256 C1275 1.429 . S
C1256 H1280 0.950 . S
C1257 C1274 1.574 . S
C1257 C1276 1.368 . S
C1257 H1281 0.949 . S
H1258 C1262 0.949 . S
C1259 C1260 1.349 . S
C1259 C1261 1.327 . S
C1259 H1282 0.950 . S
C1260 C1259 1.349 . S
C1260 C1272 1.349 . S
C1261 C1259 1.327 . S
C1261 C1277 1.429 . S
C1261 H1283 0.950 . S
C1262 H1258 0.949 . S
C1262 C1270 1.574 . S
C1262 C1278 1.368 . S
H1263 C1271 0.950 . S
H1264 C1269 0.950 . S
H1265 C1270 0.949 . S
H1266 C1272 0.950 . S
H1267 C1273 0.950 . S
H1268 C1274 0.949 . S
C1269 H1264 0.950 . S
C1269 C1271 1.327 . S
C1269 C1275 1.429 . S
C1270 C1262 1.574 . S
C1270 H1265 0.949 . S
C1270 C1276 1.368 . S
C1271 C1255 1.349 . S
C1271 H1263 0.950 . S
C1271 C1269 1.327 . S
C1272 C1260 1.349 . S
C1272 H1266 0.950 . S
C1272 C1273 1.327 . S
C1273 H1267 0.950 . S
C1273 C1272 1.327 . S
C1273 C1277 1.429 . S
C1274 C1257 1.574 . S
C1274 H1268 0.949 . S
C1274 C1278 1.368 . S
C1275 C1256 1.429 . S
C1275 C1269 1.429 . S
C1275 C1276 1.523 . S
C1276 C1257 1.368 . S
C1276 C1270 1.368 . S
C1276 C1275 1.523 . S
C1277 C1261 1.429 . S
C1277 C1273 1.429 . S
C1277 C1278 1.523 . S
C1278 C1262 1.368 . S
C1278 C1274 1.368 . S
C1278 C1277 1.523 . S
H1279 C1254 0.950 . S
H1280 C1256 0.950 . S
H1281 C1257 0.949 . S
H1282 C1259 0.950 . S
H1283 C1261 0.950 . S
C1284 C1285 1.349 . S
C1284 C1286 1.327 . S
C1284 H1309 0.950 . S
C1285 C1284 1.349 . S
C1285 C1301 1.349 . S
C1286 C1284 1.327 . S
C1286 C1305 1.429 . S
C1286 H1310 0.950 . S
C1287 C1304 1.574 . S
C1287 C1306 1.368 . S
C1287 H1311 0.949 . S
H1288 C1292 0.949 . S
C1289 C1290 1.349 . S
C1289 C1291 1.327 . S
C1289 H1312 0.950 . S
C1290 C1289 1.349 . S
C1290 C1302 1.349 . S
C1291 C1289 1.327 . S
C1291 C1307 1.429 . S
C1291 H1313 0.950 . S
C1292 H1288 0.949 . S
C1292 C1300 1.574 . S
C1292 C1308 1.368 . S
H1293 C1301 0.950 . S
H1294 C1299 0.950 . S
H1295 C1300 0.949 . S
H1296 C1302 0.888 1_556 S
H1297 C1303 0.950 . S
H1298 C1304 0.949 . S
C1299 H1294 0.950 . S
C1299 C1301 1.327 . S
C1299 C1305 1.429 . S
C1300 C1292 1.574 . S
C1300 H1295 0.949 . S
C1300 C1306 1.368 . S
C1301 C1285 1.349 . S
C1301 H1293 0.950 . S
C1301 C1299 1.327 . S
C1302 C1290 1.349 . S
C1302 H1296 0.888 1_554 S
C1302 C1303 1.327 . S
C1303 H1297 0.950 . S
C1303 C1302 1.327 . S
C1303 C1307 1.429 . S
C1304 C1287 1.574 . S
C1304 H1298 0.949 . S
C1304 C1308 1.368 . S
C1305 C1286 1.429 . S
C1305 C1299 1.429 . S
C1305 C1306 1.523 . S
C1306 C1287 1.368 . S
C1306 C1300 1.368 . S
C1306 C1305 1.523 . S
C1307 C1291 1.429 . S
C1307 C1303 1.429 . S
C1307 C1308 1.523 . S
C1308 C1292 1.368 . S
C1308 C1304 1.368 . S
C1308 C1307 1.523 . S
H1309 C1284 0.950 . S
H1310 C1286 0.950 . S
H1311 C1287 0.949 . S
H1312 C1289 0.950 . S
H1313 C1291 0.950 . S
C1314 C1315 1.349 . S
C1314 C1316 1.327 . S
C1314 H1339 0.950 . S
C1315 C1314 1.349 . S
C1315 C1331 1.349 . S
C1316 C1314 1.327 . S
C1316 C1335 1.429 . S
C1316 H1340 0.950 . S
C1317 C1334 1.574 1_655 S
C1317 C1336 1.368 . S
C1317 H1341 0.949 . S
H1318 C1322 0.949 . S
C1319 C1320 1.349 . S
C1319 C1321 1.327 . S
C1319 H1342 0.950 . S
C1320 C1319 1.349 . S
C1320 C1332 1.349 . S
C1321 C1319 1.327 . S
C1321 C1337 1.429 . S
C1321 H1343 0.950 . S
C1322 H1318 0.949 . S
C1322 C1330 1.574 . S
C1322 C1338 1.368 . S
H1323 C1331 0.950 . S
H1324 C1329 0.950 . S
H1325 C1330 0.947 . S
H1326 C1332 0.950 . S
H1327 C1333 0.950 . S
H1328 C1334 0.949 . S
C1329 H1324 0.950 . S
C1329 C1331 1.327 . S
C1329 C1335 1.429 . S
C1330 C1322 1.574 . S
C1330 H1325 0.947 . S
C1330 C1336 1.368 1_455 S
C1331 C1315 1.349 . S
C1331 H1323 0.950 . S
C1331 C1329 1.327 . S
C1332 C1320 1.349 . S
C1332 H1326 0.950 . S
C1332 C1333 1.327 . S
C1333 H1327 0.950 . S
C1333 C1332 1.327 . S
C1333 C1337 1.429 . S
C1334 C1317 1.574 1_455 S
C1334 H1328 0.949 . S
C1334 C1338 1.368 . S
C1335 C1316 1.429 . S
C1335 C1329 1.429 . S
C1335 C1336 1.523 . S
C1336 C1317 1.368 . S
C1336 C1330 1.368 1_655 S
C1336 C1335 1.523 . S
C1337 C1321 1.429 . S
C1337 C1333 1.429 . S
C1337 C1338 1.523 . S
C1338 C1322 1.368 . S
C1338 C1334 1.368 . S
C1338 C1337 1.523 . S
H1339 C1314 0.950 . S
H1340 C1316 0.950 . S
H1341 C1317 0.949 . S
H1342 C1319 0.950 . S
H1343 C1321 0.950 . S
C1344 C1345 1.349 . S
C1344 C1346 1.327 . S
C1344 H1369 0.950 . S
C1345 C1344 1.349 . S
C1345 C1361 1.349 . S
C1346 C1344 1.327 . S
C1346 C1365 1.429 . S
C1346 H1370 0.950 . S
C1347 C1364 1.574 . S
C1347 C1366 1.368 . S
C1347 H1371 0.949 . S
H1348 C1352 0.949 . S
C1349 C1350 1.349 . S
C1349 C1351 1.327 . S
C1349 H1372 0.950 . S
C1350 C1349 1.349 . S
C1350 C1362 1.349 . S
C1351 C1349 1.327 . S
C1351 C1367 1.429 . S
C1351 H1373 0.950 . S
C1352 H1348 0.949 . S
C1352 C1360 1.574 . S
C1352 C1368 1.368 . S
H1353 C1361 0.950 . S
H1354 C1359 0.950 . S
H1355 C1360 0.949 . S
H1356 C1362 0.950 . S
H1357 C1363 0.950 . S
H1358 C1364 0.949 . S
C1359 H1354 0.950 . S
C1359 C1361 1.327 . S
C1359 C1365 1.429 . S
C1360 C1352 1.574 . S
C1360 H1355 0.949 . S
C1360 C1366 1.368 . S
C1361 C1345 1.349 . S
C1361 H1353 0.950 . S
C1361 C1359 1.327 . S
C1362 C1350 1.349 . S
C1362 H1356 0.950 . S
C1362 C1363 1.327 . S
C1363 H1357 0.950 . S
C1363 C1362 1.327 . S
C1363 C1367 1.429 . S
C1364 C1347 1.574 . S
C1364 H1358 0.949 . S
C1364 C1368 1.368 . S
C1365 C1346 1.429 . S
C1365 C1359 1.429 . S
C1365 C1366 1.523 . S
C1366 C1347 1.368 . S
C1366 C1360 1.368 . S
C1366 C1365 1.523 . S
C1367 C1351 1.429 . S
C1367 C1363 1.429 . S
C1367 C1368 1.523 . S
C1368 C1352 1.368 . S
C1368 C1364 1.368 . S
C1368 C1367 1.523 . S
H1369 C1344 0.950 . S
H1370 C1346 0.950 . S
H1371 C1347 0.949 . S
H1372 C1349 0.950 . S
H1373 C1351 0.950 . S
C1374 C1375 1.349 . S
C1374 C1376 1.327 . S
C1374 H1399 0.950 . S
C1375 C1374 1.349 . S
C1375 C1391 1.349 . S
C1376 C1374 1.327 . S
C1376 C1395 1.429 . S
C1376 H1400 0.950 . S
C1377 C1394 1.606 . S
C1377 C1396 1.368 . S
C1377 H1401 0.949 . S
H1378 C1382 0.949 . S
C1379 C1380 1.349 . S
C1379 C1381 1.327 . S
C1379 H1402 0.950 . S
C1380 C1379 1.349 . S
C1380 C1392 1.349 . S
C1381 C1379 1.327 . S
C1381 C1397 1.429 . S
C1381 H1403 0.950 . S
C1382 H1378 0.949 . S
C1382 C1390 1.574 1_565 S
C1382 C1398 1.368 . S
H1383 C1391 0.950 . S
H1384 C1389 0.950 . S
H1385 C1390 0.949 . S
H1386 C1392 0.950 . S
H1387 C1393 0.950 . S
H1388 C1394 0.937 1_565 S
C1389 H1384 0.950 . S
C1389 C1391 1.327 . S
C1389 C1395 1.429 . S
C1390 C1382 1.574 1_545 S
C1390 H1385 0.949 . S
C1390 C1396 1.368 . S
C1391 C1375 1.349 . S
C1391 H1383 0.950 . S
C1391 C1389 1.327 . S
C1392 C1380 1.349 . S
C1392 H1386 0.950 . S
C1392 C1393 1.327 . S
C1393 H1387 0.950 . S
C1393 C1392 1.327 . S
C1393 C1397 1.429 . S
C1394 C1377 1.606 . S
C1394 H1388 0.937 1_545 S
C1394 C1398 1.350 1_545 S
C1395 C1376 1.429 . S
C1395 C1389 1.429 . S
C1395 C1396 1.523 . S
C1396 C1377 1.368 . S
C1396 C1390 1.368 . S
C1396 C1395 1.523 . S
C1397 C1381 1.429 . S
C1397 C1393 1.429 . S
C1397 C1398 1.523 . S
C1398 C1382 1.368 . S
C1398 C1394 1.350 1_565 S
C1398 C1397 1.523 . S
H1399 C1374 0.950 . S
H1400 C1376 0.950 . S
H1401 C1377 0.949 . S
H1402 C1379 0.950 . S
H1403 C1381 0.950 . S
C1404 C1405 1.349 . S
C1404 C1406 1.327 . S
C1404 H1429 0.950 . S
C1405 C1404 1.349 . S
C1405 C1421 1.349 . S
C1406 C1404 1.327 . S
C1406 C1425 1.429 . S
C1406 H1430 0.950 . S
C1407 C1424 1.574 . S
C1407 C1426 1.368 . S
C1407 H1431 0.949 . S
H1408 C1412 0.949 . S
C1409 C1410 1.349 . S
C1409 C1411 1.327 . S
C1409 H1432 0.950 . S
C1410 C1409 1.349 . S
C1410 C1422 1.349 . S
C1411 C1409 1.327 . S
C1411 C1427 1.429 . S
C1411 H1433 0.950 . S
C1412 H1408 0.949 . S
C1412 C1420 1.574 . S
C1412 C1428 1.368 . S
H1413 C1421 0.950 . S
H1414 C1419 0.950 . S
H1415 C1420 0.949 . S
H1416 C1422 0.950 . S
H1417 C1423 0.950 . S
H1418 C1424 0.949 . S
C1419 H1414 0.950 . S
C1419 C1421 1.327 . S
C1419 C1425 1.429 . S
C1420 C1412 1.574 . S
C1420 H1415 0.949 . S
C1420 C1426 1.368 . S
C1421 C1405 1.349 . S
C1421 H1413 0.950 . S
C1421 C1419 1.327 . S
C1422 C1410 1.349 . S
C1422 H1416 0.950 . S
C1422 C1423 1.327 . S
C1423 H1417 0.950 . S
C1423 C1422 1.327 . S
C1423 C1427 1.429 . S
C1424 C1407 1.574 . S
C1424 H1418 0.949 . S
C1424 C1428 1.368 . S
C1425 C1406 1.429 . S
C1425 C1419 1.429 . S
C1425 C1426 1.523 . S
C1426 C1407 1.368 . S
C1426 C1420 1.368 . S
C1426 C1425 1.523 . S
C1427 C1411 1.429 . S
C1427 C1423 1.429 . S
C1427 C1428 1.523 . S
C1428 C1412 1.368 . S
C1428 C1424 1.368 . S
C1428 C1427 1.523 . S
H1429 C1404 0.950 . S
H1430 C1406 0.950 . S
H1431 C1407 0.949 . S
H1432 C1409 0.950 . S
H1433 C1411 0.950 . S
C1434 C1435 1.349 . S
C1434 C1436 1.327 . S
C1434 H1459 0.950 . S
C1435 C1434 1.349 . S
C1435 C1451 1.349 . S
C1436 C1434 1.327 . S
C1436 C1455 1.429 . S
C1436 H1460 0.950 . S
C1437 C1454 1.574 . S
C1437 C1456 1.368 . S
C1437 H1461 0.949 . S
H1438 C1442 0.949 . S
C1439 C1440 1.349 . S
C1439 C1441 1.327 . S
C1439 H1462 0.950 . S
C1440 C1439 1.349 . S
C1440 C1452 1.349 . S
C1441 C1439 1.327 . S
C1441 C1457 1.429 . S
C1441 H1463 0.950 . S
C1442 H1438 0.949 . S
C1442 C1450 1.574 . S
C1442 C1458 1.368 . S
H1443 C1451 0.950 . S
H1444 C1449 0.950 . S
H1445 C1450 0.949 . S
H1446 C1452 0.950 . S
H1447 C1453 0.950 . S
H1448 C1454 0.949 . S
C1449 H1444 0.950 . S
C1449 C1451 1.327 . S
C1449 C1455 1.429 . S
C1450 C1442 1.574 . S
C1450 H1445 0.949 . S
C1450 C1456 1.368 . S
C1451 C1435 1.349 . S
C1451 H1443 0.950 . S
C1451 C1449 1.327 . S
C1452 C1440 1.349 . S
C1452 H1446 0.950 . S
C1452 C1453 1.327 . S
C1453 H1447 0.950 . S
C1453 C1452 1.327 . S
C1453 C1457 1.429 . S
C1454 C1437 1.574 . S
C1454 H1448 0.949 . S
C1454 C1458 1.368 . S
C1455 C1436 1.429 . S
C1455 C1449 1.429 . S
C1455 C1456 1.523 . S
C1456 C1437 1.368 . S
C1456 C1450 1.368 . S
C1456 C1455 1.523 . S
C1457 C1441 1.429 . S
C1457 C1453 1.429 . S
C1457 C1458 1.523 . S
C1458 C1442 1.368 . S
C1458 C1454 1.368 . S
C1458 C1457 1.523 . S
H1459 C1434 0.950 . S
H1460 C1436 0.950 . S
H1461 C1437 0.949 . S
H1462 C1439 0.950 . S
H1463 C1441 0.950 . S
C1464 C1465 1.349 . S
C1464 C1466 1.327 . S
C1464 H1489 0.950 . S
C1465 C1464 1.349 . S
C1465 C1481 1.349 . S
C1466 C1464 1.327 . S
C1466 C1485 1.429 . S
C1466 H1490 0.950 . S
C1467 C1484 1.574 . S
C1467 C1486 1.368 . S
C1467 H1491 0.949 . S
H1468 C1472 0.949 . S
C1469 C1470 1.349 . S
C1469 C1471 1.327 . S
C1469 H1492 0.950 . S
C1470 C1469 1.349 . S
C1470 C1482 1.349 . S
C1471 C1469 1.327 . S
C1471 C1487 1.429 . S
C1471 H1493 0.950 . S
C1472 H1468 0.949 . S
C1472 C1480 1.574 . S
C1472 C1488 1.368 . S
H1473 C1481 0.950 . S
H1474 C1479 0.950 . S
H1475 C1480 0.949 . S
H1476 C1482 0.950 . S
H1477 C1483 0.950 . S
H1478 C1484 0.949 . S
C1479 H1474 0.950 . S
C1479 C1481 1.327 . S
C1479 C1485 1.429 . S
C1480 C1472 1.574 . S
C1480 H1475 0.949 . S
C1480 C1486 1.368 . S
C1481 C1465 1.349 . S
C1481 H1473 0.950 . S
C1481 C1479 1.327 . S
C1482 C1470 1.349 . S
C1482 H1476 0.950 . S
C1482 C1483 1.327 . S
C1483 H1477 0.950 . S
C1483 C1482 1.327 . S
C1483 C1487 1.429 . S
C1484 C1467 1.574 . S
C1484 H1478 0.949 . S
C1484 C1488 1.368 . S
C1485 C1466 1.429 . S
C1485 C1479 1.429 . S
C1485 C1486 1.523 . S
C1486 C1467 1.368 . S
C1486 C1480 1.368 . S
C1486 C1485 1.523 . S
C1487 C1471 1.429 . S
C1487 C1483 1.429 . S
C1487 C1488 1.523 . S
C1488 C1472 1.368 . S
C1488 C1484 1.368 . S
C1488 C1487 1.523 . S
H1489 C1464 0.950 . S
H1490 C1466 0.950 . S
H1491 C1467 0.949 . S
H1492 C1469 0.950 . S
H1493 C1471 0.950 . S
C1494 C1495 1.349 . S
C1494 C1496 1.327 . S
C1494 H1519 0.950 . S
C1495 C1494 1.349 . S
C1495 C1511 1.349 . S
C1496 C1494 1.327 . S
C1496 C1515 1.429 . S
C1496 H1520 0.950 . S
C1497 C1514 1.574 . S
C1497 C1516 1.368 . S
C1497 H1521 0.949 . S
H1498 C1502 0.949 . S
C1499 C1500 1.349 . S
C1499 C1501 1.327 . S
C1499 H1522 0.950 . S
C1500 C1499 1.349 . S
C1500 C1512 1.349 . S
C1501 C1499 1.327 . S
C1501 C1517 1.429 . S
C1501 H1523 0.950 . S
C1502 H1498 0.949 . S
C1502 C1510 1.574 . S
C1502 C1518 1.368 . S
H1503 C1511 0.950 . S
H1504 C1509 0.950 . S
H1505 C1510 0.949 . S
H1506 C1512 0.950 . S
H1507 C1513 0.950 . S
H1508 C1514 0.949 . S
C1509 H1504 0.950 . S
C1509 C1511 1.327 . S
C1509 C1515 1.429 . S
C1510 C1502 1.574 . S
C1510 H1505 0.949 . S
C1510 C1516 1.368 . S
C1511 C1495 1.349 . S
C1511 H1503 0.950 . S
C1511 C1509 1.327 . S
C1512 C1500 1.349 . S
C1512 H1506 0.950 . S
C1512 C1513 1.327 . S
C1513 H1507 0.950 . S
C1513 C1512 1.327 . S
C1513 C1517 1.429 . S
C1514 C1497 1.574 . S
C1514 H1508 0.949 . S
C1514 C1518 1.368 . S
C1515 C1496 1.429 . S
C1515 C1509 1.429 . S
C1515 C1516 1.523 . S
C1516 C1497 1.368 . S
C1516 C1510 1.368 . S
C1516 C1515 1.523 . S
C1517 C1501 1.429 . S
C1517 C1513 1.429 . S
C1517 C1518 1.523 . S
C1518 C1502 1.368 . S
C1518 C1514 1.368 . S
C1518 C1517 1.523 . S
H1519 C1494 0.950 . S
H1520 C1496 0.950 . S
H1521 C1497 0.949 . S
H1522 C1499 0.950 . S
H1523 C1501 0.950 . S
C1524 C1525 1.349 . S
C1524 C1526 1.327 . S
C1524 H1549 0.950 . S
C1525 C1524 1.349 . S
C1525 C1541 1.349 . S
C1526 C1524 1.327 . S
C1526 C1545 1.429 . S
C1526 H1550 0.950 . S
C1527 C1544 1.574 . S
C1527 C1546 1.368 . S
C1527 H1551 0.949 . S
H1528 C1532 0.949 . S
C1529 C1530 1.349 . S
C1529 C1531 1.327 . S
C1529 H1552 0.950 . S
C1530 C1529 1.349 . S
C1530 C1542 1.349 . S
C1531 C1529 1.327 . S
C1531 C1547 1.429 . S
C1531 H1553 0.950 . S
C1532 H1528 0.949 . S
C1532 C1540 1.574 . S
C1532 C1548 1.368 . S
H1533 C1541 0.950 . S
H1534 C1539 0.950 . S
H1535 C1540 0.949 . S
H1536 C1542 0.950 . S
H1537 C1543 0.950 . S
H1538 C1544 0.949 . S
C1539 H1534 0.950 . S
C1539 C1541 1.327 . S
C1539 C1545 1.429 . S
C1540 C1532 1.574 . S
C1540 H1535 0.949 . S
C1540 C1546 1.368 . S
C1541 C1525 1.349 . S
C1541 H1533 0.950 . S
C1541 C1539 1.327 . S
C1542 C1530 1.349 . S
C1542 H1536 0.950 . S
C1542 C1543 1.327 . S
C1543 H1537 0.950 . S
C1543 C1542 1.327 . S
C1543 C1547 1.429 . S
C1544 C1527 1.574 . S
C1544 H1538 0.949 . S
C1544 C1548 1.368 . S
C1545 C1526 1.429 . S
C1545 C1539 1.429 . S
C1545 C1546 1.523 . S
C1546 C1527 1.368 . S
C1546 C1540 1.368 . S
C1546 C1545 1.523 . S
C1547 C1531 1.429 . S
C1547 C1543 1.429 . S
C1547 C1548 1.523 . S
C1548 C1532 1.368 . S
C1548 C1544 1.368 . S
C1548 C1547 1.523 . S
H1549 C1524 0.950 . S
H1550 C1526 0.950 . S
H1551 C1527 0.949 . S
H1552 C1529 0.950 . S
H1553 C1531 0.950 . S
C1554 C1555 1.349 . S
C1554 C1556 1.327 . S
C1554 H1579 0.950 . S
C1555 C1554 1.349 . S
C1555 C1571 1.349 . S
C1556 C1554 1.327 . S
C1556 C1575 1.429 . S
C1556 H1580 0.950 . S
C1557 C1574 1.574 . S
C1557 C1576 1.368 . S
C1557 H1581 0.949 . S
H1558 C1562 0.949 . S
C1559 C1560 1.349 . S
C1559 C1561 1.327 . S
C1559 H1582 0.950 . S
C1560 C1559 1.349 . S
C1560 C1572 1.349 . S
C1561 C1559 1.327 . S
C1561 C1577 1.429 . S
C1561 H1583 0.950 . S
C1562 H1558 0.949 . S
C1562 C1570 1.574 . S
C1562 C1578 1.368 . S
H1563 C1571 0.950 . S
H1564 C1569 0.950 . S
H1565 C1570 0.949 . S
H1566 C1572 0.950 . S
H1567 C1573 0.950 . S
H1568 C1574 0.949 . S
C1569 H1564 0.950 . S
C1569 C1571 1.327 . S
C1569 C1575 1.429 . S
C1570 C1562 1.574 . S
C1570 H1565 0.949 . S
C1570 C1576 1.368 . S
C1571 C1555 1.349 . S
C1571 H1563 0.950 . S
C1571 C1569 1.327 . S
C1572 C1560 1.349 . S
C1572 H1566 0.950 . S
C1572 C1573 1.327 . S
C1573 H1567 0.950 . S
C1573 C1572 1.327 . S
C1573 C1577 1.429 . S
C1574 C1557 1.574 . S
C1574 H1568 0.949 . S
C1574 C1578 1.368 . S
C1575 C1556 1.429 . S
C1575 C1569 1.429 . S
C1575 C1576 1.523 . S
C1576 C1557 1.368 . S
C1576 C1570 1.368 . S
C1576 C1575 1.523 . S
C1577 C1561 1.429 . S
C1577 C1573 1.429 . S
C1577 C1578 1.523 . S
C1578 C1562 1.368 . S
C1578 C1574 1.368 . S
C1578 C1577 1.523 . S
H1579 C1554 0.950 . S
H1580 C1556 0.950 . S
H1581 C1557 0.949 . S
H1582 C1559 0.950 . S
H1583 C1561 0.950 . S
C1584 C1585 1.349 . S
C1584 C1586 1.327 . S
C1584 H1609 0.950 . S
C1585 C1584 1.349 . S
C1585 C1601 1.349 . S
C1586 C1584 1.327 . S
C1586 C1605 1.429 1_545 S
C1586 H1610 0.950 . S
C1587 C1604 1.574 . S
C1587 C1606 1.368 . S
C1587 H1611 0.949 . S
H1588 C1592 0.949 . S
C1589 C1590 1.349 . S
C1589 C1591 1.327 . S
C1589 H1612 0.950 . S
C1590 C1589 1.349 . S
C1590 C1602 1.349 . S
C1591 C1589 1.327 . S
C1591 C1607 1.429 . S
C1591 H1613 0.950 . S
C1592 H1588 0.949 . S
C1592 C1600 1.574 . S
C1592 C1608 1.368 . S
H1593 C1601 0.950 . S
H1594 C1599 0.950 1_565 S
H1595 C1600 0.949 . S
H1596 C1602 0.950 . S
H1597 C1603 0.950 . S
H1598 C1604 0.949 . S
C1599 H1594 0.950 1_545 S
C1599 C1601 1.327 . S
C1599 C1605 1.429 1_545 S
C1600 C1592 1.574 . S
C1600 H1595 0.949 . S
C1600 C1606 1.368 . S
C1601 C1585 1.349 . S
C1601 H1593 0.950 . S
C1601 C1599 1.327 . S
C1602 C1590 1.349 . S
C1602 H1596 0.950 . S
C1602 C1603 1.327 . S
C1603 H1597 0.950 . S
C1603 C1602 1.327 . S
C1603 C1607 1.429 . S
C1604 C1587 1.574 . S
C1604 H1598 0.949 . S
C1604 C1608 1.368 . S
C1605 C1586 1.429 1_565 S
C1605 C1599 1.429 1_565 S
C1605 C1606 1.523 . S
C1606 C1587 1.368 . S
C1606 C1600 1.368 . S
C1606 C1605 1.523 . S
C1607 C1591 1.429 . S
C1607 C1603 1.429 . S
C1607 C1608 1.523 . S
C1608 C1592 1.368 . S
C1608 C1604 1.368 . S
C1608 C1607 1.523 . S
H1609 C1584 0.950 . S
H1610 C1586 0.950 . S
H1611 C1587 0.949 . S
H1612 C1589 0.950 . S
H1613 C1591 0.950 . S
C1614 C1615 1.349 . S
C1614 C1616 1.327 1_655 S
C1614 H1639 0.950 . S
C1615 C1614 1.349 . S
C1615 C1631 1.349 . S
C1616 C1614 1.327 1_455 S
C1616 C1635 1.429 . S
C1616 H1640 0.950 . S
C1617 C1634 1.574 . S
C1617 C1636 1.368 . S
C1617 H1641 0.949 . S
H1618 C1622 0.949 . S
C1619 C1620 1.349 . S
C1619 C1621 1.327 . S
C1619 H1642 0.950 . S
C1620 C1619 1.349 . S
C1620 C1632 1.349 . S
C1621 C1619 1.327 . S
C1621 C1637 1.429 . S
C1621 H1643 0.950 . S
C1622 H1618 0.949 . S
C1622 C1630 1.574 . S
C1622 C1638 1.368 . S
H1623 C1631 0.950 . S
H1624 C1629 0.950 . S
H1625 C1630 0.949 . S
H1626 C1632 0.950 . S
H1627 C1633 0.950 . S
H1628 C1634 0.949 . S
C1629 H1624 0.950 . S
C1629 C1631 1.327 1_455 S
C1629 C1635 1.429 . S
C1630 C1622 1.574 . S
C1630 H1625 0.949 . S
C1630 C1636 1.368 . S
C1631 C1615 1.349 . S
C1631 H1623 0.950 . S
C1631 C1629 1.327 1_655 S
C1632 C1620 1.349 . S
C1632 H1626 0.950 . S
C1632 C1633 1.327 . S
C1633 H1627 0.950 . S
C1633 C1632 1.327 . S
C1633 C1637 1.429 . S
C1634 C1617 1.574 . S
C1634 H1628 0.949 . S
C1634 C1638 1.368 . S
C1635 C1616 1.429 . S
C1635 C1629 1.429 . S
C1635 C1636 1.523 . S
C1636 C1617 1.368 . S
C1636 C1630 1.368 . S
C1636 C1635 1.523 . S
C1637 C1621 1.429 . S
C1637 C1633 1.429 . S
C1637 C1638 1.523 . S
C1638 C1622 1.368 . S
C1638 C1634 1.368 . S
C1638 C1637 1.523 . S
H1639 C1614 0.950 . S
H1640 C1616 0.950 . S
H1641 C1617 0.949 . S
H1642 C1619 0.950 . S
H1643 C1621 0.950 . S
C1644 C1645 1.349 . S
C1644 C1646 1.327 . S
C1644 H1669 0.950 . S
C1645 C1644 1.349 . S
C1645 C1661 1.349 . S
C1646 C1644 1.327 . S
C1646 C1665 1.429 . S
C1646 H1670 0.950 . S
C1647 C1664 1.574 . S
C1647 C1666 1.368 . S
C1647 H1671 0.949 . S
H1648 C1652 0.949 . S
C1649 C1650 1.349 . S
C1649 C1651 1.327 . S
C1649 H1672 0.950 . S
C1650 C1649 1.349 . S
C1650 C1662 1.349 . S
C1651 C1649 1.327 . S
C1651 C1667 1.429 . S
C1651 H1673 0.950 . S
C1652 H1648 0.949 . S
C1652 C1660 1.574 . S
C1652 C1668 1.368 . S
H1653 C1661 0.950 . S
H1654 C1659 0.950 . S
H1655 C1660 0.949 . S
H1656 C1662 0.950 . S
H1657 C1663 0.950 . S
H1658 C1664 0.949 . S
C1659 H1654 0.950 . S
C1659 C1661 1.327 . S
C1659 C1665 1.429 . S
C1660 C1652 1.574 . S
C1660 H1655 0.949 . S
C1660 C1666 1.368 . S
C1661 C1645 1.349 . S
C1661 H1653 0.950 . S
C1661 C1659 1.327 . S
C1662 C1650 1.349 . S
C1662 H1656 0.950 . S
C1662 C1663 1.327 . S
C1663 H1657 0.950 . S
C1663 C1662 1.327 . S
C1663 C1667 1.429 . S
C1664 C1647 1.574 . S
C1664 H1658 0.949 . S
C1664 C1668 1.368 . S
C1665 C1646 1.429 . S
C1665 C1659 1.429 . S
C1665 C1666 1.523 . S
C1666 C1647 1.368 . S
C1666 C1660 1.368 . S
C1666 C1665 1.523 . S
C1667 C1651 1.429 . S
C1667 C1663 1.429 . S
C1667 C1668 1.523 . S
C1668 C1652 1.368 . S
C1668 C1664 1.368 . S
C1668 C1667 1.523 . S
H1669 C1644 0.950 . S
H1670 C1646 0.950 . S
H1671 C1647 0.949 . S
H1672 C1649 0.950 . S
H1673 C1651 0.950 . S
C1674 C1675 1.349 . S
C1674 C1676 1.327 . S
C1674 H1699 0.950 . S
C1675 C1674 1.349 . S
C1675 C1691 1.349 . S
C1676 C1674 1.327 . S
C1676 C1695 1.429 . S
C1676 H1700 0.950 . S
C1677 C1694 1.574 . S
C1677 C1696 1.368 . S
C1677 H1701 0.949 . S
H1678 C1682 0.949 . S
C1679 C1680 1.349 . S
C1679 C1681 1.327 . S
C1679 H1702 0.950 . S
C1680 C1679 1.349 . S
C1680 C1692 1.349 . S
C1681 C1679 1.327 . S
C1681 C1697 1.429 . S
C1681 H1703 0.950 . S
C1682 H1678 0.949 . S
C1682 C1690 1.574 . S
C1682 C1698 1.368 . S
H1683 C1691 0.950 . S
H1684 C1689 0.950 . S
H1685 C1690 0.949 . S
H1686 C1692 0.950 . S
H1687 C1693 0.950 . S
H1688 C1694 0.949 . S
C1689 H1684 0.950 . S
C1689 C1691 1.327 . S
C1689 C1695 1.429 . S
C1690 C1682 1.574 . S
C1690 H1685 0.949 . S
C1690 C1696 1.368 . S
C1691 C1675 1.349 . S
C1691 H1683 0.950 . S
C1691 C1689 1.327 . S
C1692 C1680 1.349 . S
C1692 H1686 0.950 . S
C1692 C1693 1.327 . S
C1693 H1687 0.950 . S
C1693 C1692 1.327 . S
C1693 C1697 1.429 . S
C1694 C1677 1.574 . S
C1694 H1688 0.949 . S
C1694 C1698 1.368 . S
C1695 C1676 1.429 . S
C1695 C1689 1.429 . S
C1695 C1696 1.523 . S
C1696 C1677 1.368 . S
C1696 C1690 1.368 . S
C1696 C1695 1.523 . S
C1697 C1681 1.429 . S
C1697 C1693 1.429 . S
C1697 C1698 1.523 . S
C1698 C1682 1.368 . S
C1698 C1694 1.368 . S
C1698 C1697 1.523 . S
H1699 C1674 0.950 . S
H1700 C1676 0.950 . S
H1701 C1677 0.949 . S
H1702 C1679 0.950 . S
H1703 C1681 0.950 . S
C1704 C1705 1.349 . S
C1704 C1706 1.327 . S
C1704 H1729 0.950 . S
C1705 C1704 1.349 . S
C1705 C1721 1.349 . S
C1706 C1704 1.327 . S
C1706 C1725 1.429 . S
C1706 H1730 0.950 . S
C1707 C1724 1.574 . S
C1707 C1726 1.368 . S
C1707 H1731 0.949 . S
H1708 C1712 0.949 . S
C1709 C1710 1.349 . S
C1709 C1711 1.327 . S
C1709 H1732 0.950 . S
C1710 C1709 1.349 . S
C1710 C1722 1.349 . S
C1711 C1709 1.327 . S
C1711 C1727 1.429 . S
C1711 H1733 0.950 . S
C1712 H1708 0.949 . S
C1712 C1720 1.574 . S
C1712 C1728 1.368 . S
H1713 C1721 0.950 . S
H1714 C1719 0.950 . S
H1715 C1720 0.949 . S
H1716 C1722 0.950 . S
H1717 C1723 0.950 . S
H1718 C1724 0.949 . S
C1719 H1714 0.950 . S
C1719 C1721 1.327 . S
C1719 C1725 1.429 . S
C1720 C1712 1.574 . S
C1720 H1715 0.949 . S
C1720 C1726 1.368 . S
C1721 C1705 1.349 . S
C1721 H1713 0.950 . S
C1721 C1719 1.327 . S
C1722 C1710 1.349 . S
C1722 H1716 0.950 . S
C1722 C1723 1.327 . S
C1723 H1717 0.950 . S
C1723 C1722 1.327 . S
C1723 C1727 1.429 . S
C1724 C1707 1.574 . S
C1724 H1718 0.949 . S
C1724 C1728 1.368 . S
C1725 C1706 1.429 . S
C1725 C1719 1.429 . S
C1725 C1726 1.523 . S
C1726 C1707 1.368 . S
C1726 C1720 1.368 . S
C1726 C1725 1.523 . S
C1727 C1711 1.429 . S
C1727 C1723 1.429 . S
C1727 C1728 1.523 . S
C1728 C1712 1.368 . S
C1728 C1724 1.368 . S
C1728 C1727 1.523 . S
H1729 C1704 0.950 . S
H1730 C1706 0.950 . S
H1731 C1707 0.949 . S
H1732 C1709 0.950 . S
H1733 C1711 0.950 . S
C1734 C1735 1.349 . S
C1734 C1736 1.327 . S
C1734 H1759 0.950 . S
C1735 C1734 1.349 . S
C1735 C1751 1.349 . S
C1736 C1734 1.327 . S
C1736 C1755 1.429 . S
C1736 H1760 0.950 . S
C1737 C1754 1.574 . S
C1737 C1756 1.368 . S
C1737 H1761 0.949 . S
H1738 C1742 0.949 . S
C1739 C1740 1.349 . S
C1739 C1741 1.327 . S
C1739 H1762 0.950 . S
C1740 C1739 1.349 . S
C1740 C1752 1.349 . S
C1741 C1739 1.327 . S
C1741 C1757 1.429 . S
C1741 H1763 0.950 . S
C1742 H1738 0.949 . S
C1742 C1750 1.574 . S
C1742 C1758 1.368 . S
H1743 C1751 0.950 . S
H1744 C1749 0.950 . S
H1745 C1750 0.949 . S
H1746 C1752 0.950 . S
H1747 C1753 0.950 . S
H1748 C1754 0.949 . S
C1749 H1744 0.950 . S
C1749 C1751 1.327 . S
C1749 C1755 1.429 . S
C1750 C1742 1.574 . S
C1750 H1745 0.949 . S
C1750 C1756 1.368 . S
C1751 C1735 1.349 . S
C1751 H1743 0.950 . S
C1751 C1749 1.327 . S
C1752 C1740 1.349 . S
C1752 H1746 0.950 . S
C1752 C1753 1.327 . S
C1753 H1747 0.950 . S
C1753 C1752 1.327 . S
C1753 C1757 1.429 . S
C1754 C1737 1.574 . S
C1754 H1748 0.949 . S
C1754 C1758 1.368 . S
C1755 C1736 1.429 . S
C1755 C1749 1.429 . S
C1755 C1756 1.523 . S
C1756 C1737 1.368 . S
C1756 C1750 1.368 . S
C1756 C1755 1.523 . S
C1757 C1741 1.429 . S
C1757 C1753 1.429 . S
C1757 C1758 1.523 . S
C1758 C1742 1.368 . S
C1758 C1754 1.368 . S
C1758 C1757 1.523 . S
H1759 C1734 0.950 . S
H1760 C1736 0.950 . S
H1761 C1737 0.949 . S
H1762 C1739 0.950 . S
H1763 C1741 0.950 . S
C1764 C1765 1.349 . S
C1764 C1766 1.327 . S
C1764 H1789 0.950 . S
C1765 C1764 1.349 . S
C1765 C1781 1.349 . S
C1766 C1764 1.327 . S
C1766 C1785 1.429 . S
C1766 H1790 0.950 . S
C1767 C1784 1.574 . S
C1767 C1786 1.368 1_545 S
C1767 H1791 0.949 . S
H1768 C1772 0.949 . S
C1769 C1770 1.349 . S
C1769 C1771 1.327 . S
C1769 H1792 0.950 . S
C1770 C1769 1.349 . S
C1770 C1782 1.349 . S
C1771 C1769 1.327 . S
C1771 C1787 1.429 . S
C1771 H1793 0.950 . S
C1772 H1768 0.949 . S
C1772 C1780 1.574 1_545 S
C1772 C1788 1.368 . S
H1773 C1781 0.950 . S
H1774 C1779 0.950 . S
H1775 C1780 0.949 . S
H1776 C1782 0.950 . S
H1777 C1783 0.950 . S
H1778 C1784 0.949 . S
C1779 H1774 0.950 . S
C1779 C1781 1.327 . S
C1779 C1785 1.429 . S
C1780 C1772 1.574 1_565 S
C1780 H1775 0.949 . S
C1780 C1786 1.368 . S
C1781 C1765 1.349 . S
C1781 H1773 0.950 . S
C1781 C1779 1.327 . S
C1782 C1770 1.349 . S
C1782 H1776 0.950 . S
C1782 C1783 1.327 . S
C1783 H1777 0.950 . S
C1783 C1782 1.327 . S
C1783 C1787 1.429 . S
C1784 C1767 1.574 . S
C1784 H1778 0.949 . S
C1784 C1788 1.368 . S
C1785 C1766 1.429 . S
C1785 C1779 1.429 . S
C1785 C1786 1.523 . S
C1786 C1767 1.368 1_565 S
C1786 C1780 1.368 . S
C1786 C1785 1.523 . S
C1787 C1771 1.429 . S
C1787 C1783 1.429 . S
C1787 C1788 1.523 . S
C1788 C1772 1.368 . S
C1788 C1784 1.368 . S
C1788 C1787 1.523 . S
H1789 C1764 0.950 . S
H1790 C1766 0.950 . S
H1791 C1767 0.949 . S
H1792 C1769 0.950 . S
H1793 C1771 0.950 . S
C1794 C1795 1.349 . S
C1794 C1796 1.327 . S
C1794 H1819 0.950 . S
C1795 C1794 1.349 . S
C1795 C1811 1.349 . S
C1796 C1794 1.327 . S
C1796 C1815 1.429 . S
C1796 H1820 0.950 . S
C1797 C1814 1.574 1_455 S
C1797 C1816 1.368 . S
C1797 H1821 0.949 . S
H1798 C1802 0.949 . S
C1799 C1800 1.349 . S
C1799 C1801 1.327 . S
C1799 H1822 0.950 . S
C1800 C1799 1.349 . S
C1800 C1812 1.349 . S
C1801 C1799 1.327 . S
C1801 C1817 1.429 . S
C1801 H1823 0.950 . S
C1802 H1798 0.949 . S
C1802 C1810 1.574 1_655 S
C1802 C1818 1.368 . S
H1803 C1811 0.950 . S
H1804 C1809 0.950 . S
H1805 C1810 0.949 . S
H1806 C1812 0.950 . S
H1807 C1813 0.950 . S
H1808 C1814 0.949 . S
C1809 H1804 0.950 . S
C1809 C1811 1.327 . S
C1809 C1815 1.429 . S
C1810 C1802 1.574 1_455 S
C1810 H1805 0.949 . S
C1810 C1816 1.368 . S
C1811 C1795 1.349 . S
C1811 H1803 0.950 . S
C1811 C1809 1.327 . S
C1812 C1800 1.349 . S
C1812 H1806 0.950 . S
C1812 C1813 1.327 . S
C1813 H1807 0.950 . S
C1813 C1812 1.327 . S
C1813 C1817 1.429 . S
C1814 C1797 1.574 1_655 S
C1814 H1808 0.949 . S
C1814 C1818 1.368 . S
C1815 C1796 1.429 . S
C1815 C1809 1.429 . S
C1815 C1816 1.523 . S
C1816 C1797 1.368 . S
C1816 C1810 1.368 . S
C1816 C1815 1.523 . S
C1817 C1801 1.429 . S
C1817 C1813 1.429 . S
C1817 C1818 1.523 . S
C1818 C1802 1.368 . S
C1818 C1814 1.368 . S
C1818 C1817 1.523 . S
H1819 C1794 0.950 . S
H1820 C1796 0.950 . S
H1821 C1797 0.949 . S
H1822 C1799 0.950 . S
H1823 C1801 0.950 . S
C1824 C1825 1.349 . S
C1824 C1826 1.327 . S
C1824 H1849 0.950 . S
C1825 C1824 1.349 . S
C1825 C1841 1.349 . S
C1826 C1824 1.327 . S
C1826 C1845 1.429 . S
C1826 H1850 0.950 . S
C1827 C1844 1.574 . S
C1827 C1846 1.368 . S
C1827 H1851 0.949 . S
H1828 C1832 0.949 . S
C1829 C1830 1.349 . S
C1829 C1831 1.327 . S
C1829 H1852 0.950 . S
C1830 C1829 1.349 . S
C1830 C1842 1.349 . S
C1831 C1829 1.327 . S
C1831 C1847 1.429 . S
C1831 H1853 0.950 . S
C1832 H1828 0.949 . S
C1832 C1840 1.574 . S
C1832 C1848 1.368 . S
H1833 C1841 0.950 . S
H1834 C1839 0.950 . S
H1835 C1840 0.949 . S
H1836 C1842 0.950 . S
H1837 C1843 0.950 . S
H1838 C1844 0.949 . S
C1839 H1834 0.950 . S
C1839 C1841 1.327 . S
C1839 C1845 1.429 . S
C1840 C1832 1.574 . S
C1840 H1835 0.949 . S
C1840 C1846 1.368 . S
C1841 C1825 1.349 . S
C1841 H1833 0.950 . S
C1841 C1839 1.327 . S
C1842 C1830 1.349 . S
C1842 H1836 0.950 . S
C1842 C1843 1.327 . S
C1843 H1837 0.950 . S
C1843 C1842 1.327 . S
C1843 C1847 1.429 . S
C1844 C1827 1.574 . S
C1844 H1838 0.949 . S
C1844 C1848 1.368 . S
C1845 C1826 1.429 . S
C1845 C1839 1.429 . S
C1845 C1846 1.523 . S
C1846 C1827 1.368 . S
C1846 C1840 1.368 . S
C1846 C1845 1.523 . S
C1847 C1831 1.429 . S
C1847 C1843 1.429 . S
C1847 C1848 1.523 . S
C1848 C1832 1.368 . S
C1848 C1844 1.368 . S
C1848 C1847 1.523 . S
H1849 C1824 0.950 . S
H1850 C1826 0.950 . S
H1851 C1827 0.949 . S
H1852 C1829 0.950 . S
H1853 C1831 0.950 . S
C1854 C1855 1.349 . S
C1854 C1856 1.327 . S
C1854 H1879 0.950 . S
C1855 C1854 1.349 . S
C1855 C1871 1.349 . S
C1856 C1854 1.327 . S
C1856 C1875 1.429 1_455 S
C1856 H1880 0.950 . S
C1857 C1874 1.574 . S
C1857 C1876 1.368 . S
C1857 H1881 0.949 . S
H1858 C1862 0.949 . S
C1859 C1860 1.349 . S
C1859 C1861 1.327 . S
C1859 H1882 0.950 . S
C1860 C1859 1.349 . S
C1860 C1872 1.349 . S
C1861 C1859 1.327 . S
C1861 C1877 1.429 . S
C1861 H1883 0.950 . S
C1862 H1858 0.949 . S
C1862 C1870 1.574 . S
C1862 C1878 1.368 . S
H1863 C1871 0.950 . S
H1864 C1869 0.911 1_655 S
H1865 C1870 0.949 . S
H1866 C1872 0.950 . S
H1867 C1873 0.950 . S
H1868 C1874 0.949 . S
C1869 H1864 0.911 1_455 S
C1869 C1871 1.359 . S
C1869 C1875 1.436 1_455 S
C1870 C1862 1.574 . S
C1870 H1865 0.949 . S
C1870 C1876 1.368 . S
C1871 C1855 1.349 . S
C1871 H1863 0.950 . S
C1871 C1869 1.359 . S
C1872 C1860 1.349 . S
C1872 H1866 0.950 . S
C1872 C1873 1.327 . S
C1873 H1867 0.950 . S
C1873 C1872 1.327 . S
C1873 C1877 1.429 . S
C1874 C1857 1.574 . S
C1874 H1868 0.949 . S
C1874 C1878 1.368 . S
C1875 C1856 1.429 1_655 S
C1875 C1869 1.436 1_655 S
C1875 C1876 1.523 . S
C1876 C1857 1.368 . S
C1876 C1870 1.368 . S
C1876 C1875 1.523 . S
C1877 C1861 1.429 . S
C1877 C1873 1.429 . S
C1877 C1878 1.523 . S
C1878 C1862 1.368 . S
C1878 C1874 1.368 . S
C1878 C1877 1.523 . S
H1879 C1854 0.950 . S
H1880 C1856 0.950 . S
H1881 C1857 0.949 . S
H1882 C1859 0.950 . S
H1883 C1861 0.950 . S
C1884 C1885 1.349 . S
C1884 C1886 1.327 . S
C1884 H1909 0.950 . S
C1885 C1884 1.349 . S
C1885 C1901 1.349 . S
C1886 C1884 1.327 . S
C1886 C1905 1.429 . S
C1886 H1910 0.950 . S
C1887 C1904 1.574 . S
C1887 C1906 1.368 . S
C1887 H1911 0.949 . S
H1888 C1892 0.949 . S
C1889 C1890 1.349 . S
C1889 C1891 1.327 . S
C1889 H1912 0.950 . S
C1890 C1889 1.349 . S
C1890 C1902 1.349 . S
C1891 C1889 1.327 . S
C1891 C1907 1.429 . S
C1891 H1913 0.950 . S
C1892 H1888 0.949 . S
C1892 C1900 1.574 . S
C1892 C1908 1.368 . S
H1893 C1901 0.950 . S
H1894 C1899 0.950 . S
H1895 C1900 0.949 . S
H1896 C1902 0.950 . S
H1897 C1903 0.950 . S
H1898 C1904 0.949 . S
C1899 H1894 0.950 . S
C1899 C1901 1.327 . S
C1899 C1905 1.429 . S
C1900 C1892 1.574 . S
C1900 H1895 0.949 . S
C1900 C1906 1.368 . S
C1901 C1885 1.349 . S
C1901 H1893 0.950 . S
C1901 C1899 1.327 . S
C1902 C1890 1.349 . S
C1902 H1896 0.950 . S
C1902 C1903 1.327 . S
C1903 H1897 0.950 . S
C1903 C1902 1.327 . S
C1903 C1907 1.429 . S
C1904 C1887 1.574 . S
C1904 H1898 0.949 . S
C1904 C1908 1.368 . S
C1905 C1886 1.429 . S
C1905 C1899 1.429 . S
C1905 C1906 1.523 . S
C1906 C1887 1.368 . S
C1906 C1900 1.368 . S
C1906 C1905 1.523 . S
C1907 C1891 1.429 . S
C1907 C1903 1.429 . S
C1907 C1908 1.523 . S
C1908 C1892 1.368 . S
C1908 C1904 1.368 . S
C1908 C1907 1.523 . S
H1909 C1884 0.950 . S
H1910 C1886 0.950 . S
H1911 C1887 0.949 . S
H1912 C1889 0.950 . S
H1913 C1891 0.950 . S
C1914 C1915 1.349 . S
C1914 C1916 1.327 . S
C1914 H1939 0.950 . S
C1915 C1914 1.349 . S
C1915 C1931 1.349 . S
C1916 C1914 1.327 . S
C1916 C1935 1.429 1_565 S
C1916 H1940 0.950 1_565 S
C1917 C1934 1.574 . S
C1917 C1936 1.368 . S
C1917 H1941 0.949 . S
H1918 C1922 0.949 . S
C1919 C1920 1.349 . S
C1919 C1921 1.327 . S
C1919 H1942 0.950 . S
C1920 C1919 1.349 . S
C1920 C1932 1.349 . S
C1921 C1919 1.327 . S
C1921 C1937 1.429 . S
C1921 H1943 0.950 . S
C1922 H1918 0.949 . S
C1922 C1930 1.574 . S
C1922 C1938 1.368 . S
H1923 C1931 0.950 . S
H1924 C1929 0.953 . S
H1925 C1930 0.949 . S
H1926 C1932 0.950 . S
H1927 C1933 0.950 . S
H1928 C1934 0.949 . S
C1929 H1924 0.953 . S
C1929 C1931 1.323 1_545 S
C1929 C1935 1.429 . S
C1930 C1922 1.574 . S
C1930 H1925 0.949 . S
C1930 C1936 1.368 . S
C1931 C1915 1.349 . S
C1931 H1923 0.950 . S
C1931 C1929 1.323 1_565 S
C1932 C1920 1.349 . S
C1932 H1926 0.950 . S
C1932 C1933 1.327 . S
C1933 H1927 0.950 . S
C1933 C1932 1.327 . S
C1933 C1937 1.429 . S
C1934 C1917 1.574 . S
C1934 H1928 0.949 . S
C1934 C1938 1.368 . S
C1935 C1916 1.429 1_545 S
C1935 C1929 1.429 . S
C1935 C1936 1.523 . S
C1936 C1917 1.368 . S
C1936 C1930 1.368 . S
C1936 C1935 1.523 . S
C1937 C1921 1.429 . S
C1937 C1933 1.429 . S
C1937 C1938 1.523 . S
C1938 C1922 1.368 . S
C1938 C1934 1.368 . S
C1938 C1937 1.523 . S
H1939 C1914 0.950 . S
H1940 C1916 0.950 1_545 S
H1941 C1917 0.949 . S
H1942 C1919 0.950 . S
H1943 C1921 0.950 . S
C1944 C1945 1.349 . S
C1944 C1946 1.327 . S
C1944 H1969 0.950 . S
C1945 C1944 1.349 . S
C1945 C1961 1.349 . S
C1946 C1944 1.327 . S
C1946 C1965 1.429 . S
C1946 H1970 0.950 . S
C1947 C1964 1.574 . S
C1947 C1966 1.368 . S
C1947 H1971 0.949 . S
H1948 C1952 0.949 . S
C1949 C1950 1.349 . S
C1949 C1951 1.327 . S
C1949 H1972 0.950 . S
C1950 C1949 1.349 . S
C1950 C1962 1.349 . S
C1951 C1949 1.327 . S
C1951 C1967 1.429 . S
C1951 H1973 0.950 . S
C1952 H1948 0.949 . S
C1952 C1960 1.574 . S
C1952 C1968 1.368 . S
H1953 C1961 0.950 . S
H1954 C1959 0.950 . S
H1955 C1960 0.949 . S
H1956 C1962 0.950 . S
H1957 C1963 0.950 . S
H1958 C1964 0.949 . S
C1959 H1954 0.950 . S
C1959 C1961 1.327 . S
C1959 C1965 1.429 . S
C1960 C1952 1.574 . S
C1960 H1955 0.949 . S
C1960 C1966 1.368 . S
C1961 C1945 1.349 . S
C1961 H1953 0.950 . S
C1961 C1959 1.327 . S
C1962 C1950 1.349 . S
C1962 H1956 0.950 . S
C1962 C1963 1.327 . S
C1963 H1957 0.950 . S
C1963 C1962 1.327 . S
C1963 C1967 1.429 . S
C1964 C1947 1.574 . S
C1964 H1958 0.949 . S
C1964 C1968 1.368 . S
C1965 C1946 1.429 . S
C1965 C1959 1.429 . S
C1965 C1966 1.523 . S
C1966 C1947 1.368 . S
C1966 C1960 1.368 . S
C1966 C1965 1.523 . S
C1967 C1951 1.429 . S
C1967 C1963 1.429 . S
C1967 C1968 1.523 . S
C1968 C1952 1.368 . S
C1968 C1964 1.368 . S
C1968 C1967 1.523 . S
H1969 C1944 0.950 . S
H1970 C1946 0.950 . S
H1971 C1947 0.949 . S
H1972 C1949 0.950 . S
H1973 C1951 0.950 . S
C1974 C1975 1.349 . S
C1974 C1976 1.327 . S
C1974 H1999 0.950 . S
C1975 C1974 1.349 . S
C1975 C1991 1.349 . S
C1976 C1974 1.327 . S
C1976 C1995 1.429 . S
C1976 H2000 0.950 . S
C1977 C1994 1.574 . S
C1977 C1996 1.368 . S
C1977 H2001 0.949 . S
H1978 C1982 0.949 . S
C1979 C1980 1.349 . S
C1979 C1981 1.327 . S
C1979 H2002 0.950 . S
C1980 C1979 1.349 . S
C1980 C1992 1.349 . S
C1981 C1979 1.327 . S
C1981 C1997 1.429 . S
C1981 H2003 0.950 . S
C1982 H1978 0.949 . S
C1982 C1990 1.574 . S
C1982 C1998 1.368 . S
H1983 C1991 0.950 . S
H1984 C1989 0.950 . S
H1985 C1990 0.949 . S
H1986 C1992 0.950 . S
H1987 C1993 0.950 . S
H1988 C1994 0.949 . S
C1989 H1984 0.950 . S
C1989 C1991 1.327 . S
C1989 C1995 1.429 . S
C1990 C1982 1.574 . S
C1990 H1985 0.949 . S
C1990 C1996 1.368 . S
C1991 C1975 1.349 . S
C1991 H1983 0.950 . S
C1991 C1989 1.327 . S
C1992 C1980 1.349 . S
C1992 H1986 0.950 . S
C1992 C1993 1.327 . S
C1993 H1987 0.950 . S
C1993 C1992 1.327 . S
C1993 C1997 1.429 . S
C1994 C1977 1.574 . S
C1994 H1988 0.949 . S
C1994 C1998 1.368 . S
C1995 C1976 1.429 . S
C1995 C1989 1.429 . S
C1995 C1996 1.523 . S
C1996 C1977 1.368 . S
C1996 C1990 1.368 . S
C1996 C1995 1.523 . S
C1997 C1981 1.429 . S
C1997 C1993 1.429 . S
C1997 C1998 1.523 . S
C1998 C1982 1.368 . S
C1998 C1994 1.368 . S
C1998 C1997 1.523 . S
H1999 C1974 0.950 . S
H2000 C1976 0.950 . S
H2001 C1977 0.949 . S
H2002 C1979 0.950 . S
H2003 C1981 0.950 . S
C2004 C2005 1.349 . S
C2004 C2006 1.327 . S
C2004 H2029 0.950 . S
C2005 C2004 1.349 . S
C2005 C2021 1.349 . S
C2006 C2004 1.327 . S
C2006 C2025 1.429 . S
C2006 H2030 0.950 . S
C2007 C2024 1.574 . S
C2007 C2026 1.368 . S
C2007 H2031 0.949 . S
H2008 C2012 0.949 . S
C2009 C2010 1.349 . S
C2009 C2011 1.327 . S
C2009 H2032 0.950 . S
C2010 C2009 1.349 . S
C2010 C2022 1.349 . S
C2011 C2009 1.327 . S
C2011 C2027 1.429 . S
C2011 H2033 0.950 . S
C2012 H2008 0.949 . S
C2012 C2020 1.574 . S
C2012 C2028 1.368 . S
H2013 C2021 0.950 . S
H2014 C2019 0.950 . S
H2015 C2020 0.949 . S
H2016 C2022 0.950 . S
H2017 C2023 0.950 . S
H2018 C2024 0.949 . S
C2019 H2014 0.950 . S
C2019 C2021 1.327 . S
C2019 C2025 1.429 . S
C2020 C2012 1.574 . S
C2020 H2015 0.949 . S
C2020 C2026 1.368 . S
C2021 C2005 1.349 . S
C2021 H2013 0.950 . S
C2021 C2019 1.327 . S
C2022 C2010 1.349 . S
C2022 H2016 0.950 . S
C2022 C2023 1.327 . S
C2023 H2017 0.950 . S
C2023 C2022 1.327 . S
C2023 C2027 1.429 . S
C2024 C2007 1.574 . S
C2024 H2018 0.949 . S
C2024 C2028 1.368 . S
C2025 C2006 1.429 . S
C2025 C2019 1.429 . S
C2025 C2026 1.523 . S
C2026 C2007 1.368 . S
C2026 C2020 1.368 . S
C2026 C2025 1.523 . S
C2027 C2011 1.429 . S
C2027 C2023 1.429 . S
C2027 C2028 1.523 . S
C2028 C2012 1.368 . S
C2028 C2024 1.368 . S
C2028 C2027 1.523 . S
H2029 C2004 0.950 . S
H2030 C2006 0.950 . S
H2031 C2007 0.949 . S
H2032 C2009 0.950 . S
H2033 C2011 0.950 . S
C2034 C2035 1.349 . S
C2034 C2036 1.327 . S
C2034 H2059 0.950 . S
C2035 C2034 1.349 . S
C2035 C2051 1.349 . S
C2036 C2034 1.327 . S
C2036 C2055 1.429 . S
C2036 H2060 0.950 . S
C2037 C2054 1.574 . S
C2037 C2056 1.368 . S
C2037 H2061 0.949 . S
H2038 C2042 0.949 . S
C2039 C2040 1.349 . S
C2039 C2041 1.327 . S
C2039 H2062 0.950 . S
C2040 C2039 1.349 . S
C2040 C2052 1.349 . S
C2041 C2039 1.327 . S
C2041 C2057 1.429 . S
C2041 H2063 0.950 . S
C2042 H2038 0.949 . S
C2042 C2050 1.574 . S
C2042 C2058 1.368 . S
H2043 C2051 0.950 . S
H2044 C2049 0.950 . S
H2045 C2050 0.949 . S
H2046 C2052 0.950 . S
H2047 C2053 0.950 . S
H2048 C2054 0.949 . S
C2049 H2044 0.950 . S
C2049 C2051 1.327 . S
C2049 C2055 1.429 . S
C2050 C2042 1.574 . S
C2050 H2045 0.949 . S
C2050 C2056 1.368 . S
C2051 C2035 1.349 . S
C2051 H2043 0.950 . S
C2051 C2049 1.327 . S
C2052 C2040 1.349 . S
C2052 H2046 0.950 . S
C2052 C2053 1.327 . S
C2053 H2047 0.950 . S
C2053 C2052 1.327 . S
C2053 C2057 1.429 . S
C2054 C2037 1.574 . S
C2054 H2048 0.949 . S
C2054 C2058 1.368 . S
C2055 C2036 1.429 . S
C2055 C2049 1.429 . S
C2055 C2056 1.523 . S
C2056 C2037 1.368 . S
C2056 C2050 1.368 . S
C2056 C2055 1.523 . S
C2057 C2041 1.429 . S
C2057 C2053 1.429 . S
C2057 C2058 1.523 . S
C2058 C2042 1.368 . S
C2058 C2054 1.368 . S
C2058 C2057 1.523 . S
H2059 C2034 0.950 . S
H2060 C2036 0.950 . S
H2061 C2037 0.949 . S
H2062 C2039 0.950 . S
H2063 C2041 0.950 . S
C2064 C2065 1.349 . S
C2064 C2066 1.327 . S
C2064 H2089 0.950 . S
C2065 C2064 1.349 . S
C2065 C2081 1.349 . S
C2066 C2064 1.327 . S
C2066 C2085 1.429 . S
C2066 H2090 0.950 . S
C2067 C2084 1.574 . S
C2067 C2086 1.368 . S
C2067 H2091 0.949 . S
H2068 C2072 0.949 . S
C2069 C2070 1.349 . S
C2069 C2071 1.327 . S
C2069 H2092 0.950 . S
C2070 C2069 1.349 . S
C2070 C2082 1.349 . S
C2071 C2069 1.327 . S
C2071 C2087 1.429 . S
C2071 H2093 0.950 . S
C2072 H2068 0.949 . S
C2072 C2080 1.574 . S
C2072 C2088 1.368 . S
H2073 C2081 0.950 . S
H2074 C2079 0.950 . S
H2075 C2080 0.949 . S
H2076 C2082 0.950 . S
H2077 C2083 0.950 . S
H2078 C2084 0.949 . S
C2079 H2074 0.950 . S
C2079 C2081 1.327 . S
C2079 C2085 1.429 . S
C2080 C2072 1.574 . S
C2080 H2075 0.949 . S
C2080 C2086 1.368 . S
C2081 C2065 1.349 . S
C2081 H2073 0.950 . S
C2081 C2079 1.327 . S
C2082 C2070 1.349 . S
C2082 H2076 0.950 . S
C2082 C2083 1.327 . S
C2083 H2077 0.950 . S
C2083 C2082 1.327 . S
C2083 C2087 1.429 . S
C2084 C2067 1.574 . S
C2084 H2078 0.949 . S
C2084 C2088 1.368 . S
C2085 C2066 1.429 . S
C2085 C2079 1.429 . S
C2085 C2086 1.523 . S
C2086 C2067 1.368 . S
C2086 C2080 1.368 . S
C2086 C2085 1.523 . S
C2087 C2071 1.429 . S
C2087 C2083 1.429 . S
C2087 C2088 1.523 . S
C2088 C2072 1.368 . S
C2088 C2084 1.368 . S
C2088 C2087 1.523 . S
H2089 C2064 0.950 . S
H2090 C2066 0.950 . S
H2091 C2067 0.949 . S
H2092 C2069 0.950 . S
H2093 C2071 0.950 . S
C2094 C2095 1.349 . S
C2094 C2096 1.327 . S
C2094 H2119 0.950 . S
C2095 C2094 1.349 . S
C2095 C2111 1.349 . S
C2096 C2094 1.327 . S
C2096 C2115 1.429 . S
C2096 H2120 0.950 . S
C2097 C2114 1.574 . S
C2097 C2116 1.368 . S
C2097 H2121 0.949 . S
H2098 C2102 0.949 . S
C2099 C2100 1.349 . S
C2099 C2101 1.327 . S
C2099 H2122 0.950 . S
C2100 C2099 1.349 . S
C2100 C2112 1.349 . S
C2101 C2099 1.327 . S
C2101 C2117 1.429 . S
C2101 H2123 0.950 . S
C2102 H2098 0.949 . S
C2102 C2110 1.574 . S
C2102 C2118 1.368 . S
H2103 C2111 0.950 . S
H2104 C2109 0.950 . S
H2105 C2110 0.949 . S
H2106 C2112 0.950 . S
H2107 C2113 0.950 . S
H2108 C2114 0.949 . S
C2109 H2104 0.950 . S
C2109 C2111 1.327 . S
C2109 C2115 1.429 . S
C2110 C2102 1.574 . S
C2110 H2105 0.949 . S
C2110 C2116 1.368 . S
C2111 C2095 1.349 . S
C2111 H2103 0.950 . S
C2111 C2109 1.327 . S
C2112 C2100 1.349 . S
C2112 H2106 0.950 . S
C2112 C2113 1.327 . S
C2113 H2107 0.950 . S
C2113 C2112 1.327 . S
C2113 C2117 1.429 . S
C2114 C2097 1.574 . S
C2114 H2108 0.949 . S
C2114 C2118 1.368 . S
C2115 C2096 1.429 . S
C2115 C2109 1.429 . S
C2115 C2116 1.523 . S
C2116 C2097 1.368 . S
C2116 C2110 1.368 . S
C2116 C2115 1.523 . S
C2117 C2101 1.429 . S
C2117 C2113 1.429 . S
C2117 C2118 1.523 . S
C2118 C2102 1.368 . S
C2118 C2114 1.368 . S
C2118 C2117 1.523 . S
H2119 C2094 0.950 . S
H2120 C2096 0.950 . S
H2121 C2097 0.949 . S
H2122 C2099 0.950 . S
H2123 C2101 0.950 . S
C2124 C2125 1.349 . S
C2124 C2126 1.327 . S
C2124 H2149 0.950 . S
C2125 C2124 1.349 . S
C2125 C2141 1.349 . S
C2126 C2124 1.327 . S
C2126 C2145 1.429 . S
C2126 H2150 0.950 . S
C2127 C2144 1.574 . S
C2127 C2146 1.368 . S
C2127 H2151 0.949 . S
H2128 C2132 0.949 . S
C2129 C2130 1.349 . S
C2129 C2131 1.327 . S
C2129 H2152 0.950 . S
C2130 C2129 1.349 . S
C2130 C2142 1.349 . S
C2131 C2129 1.327 . S
C2131 C2147 1.429 . S
C2131 H2153 0.950 . S
C2132 H2128 0.949 . S
C2132 C2140 1.574 . S
C2132 C2148 1.368 . S
H2133 C2141 0.950 . S
H2134 C2139 0.950 . S
H2135 C2140 0.949 . S
H2136 C2142 0.950 . S
H2137 C2143 0.950 . S
H2138 C2144 0.949 . S
C2139 H2134 0.950 . S
C2139 C2141 1.327 . S
C2139 C2145 1.429 . S
C2140 C2132 1.574 . S
C2140 H2135 0.949 . S
C2140 C2146 1.368 . S
C2141 C2125 1.349 . S
C2141 H2133 0.950 . S
C2141 C2139 1.327 . S
C2142 C2130 1.349 . S
C2142 H2136 0.950 . S
C2142 C2143 1.327 . S
C2143 H2137 0.950 . S
C2143 C2142 1.327 . S
C2143 C2147 1.429 . S
C2144 C2127 1.574 . S
C2144 H2138 0.949 . S
C2144 C2148 1.368 . S
C2145 C2126 1.429 . S
C2145 C2139 1.429 . S
C2145 C2146 1.523 . S
C2146 C2127 1.368 . S
C2146 C2140 1.368 . S
C2146 C2145 1.523 . S
C2147 C2131 1.429 . S
C2147 C2143 1.429 . S
C2147 C2148 1.523 . S
C2148 C2132 1.368 . S
C2148 C2144 1.368 . S
C2148 C2147 1.523 . S
H2149 C2124 0.950 . S
H2150 C2126 0.950 . S
H2151 C2127 0.949 . S
H2152 C2129 0.950 . S
H2153 C2131 0.950 . S
C2154 C2155 1.349 . S
C2154 C2156 1.327 . S
C2154 H2179 0.950 . S
C2155 C2154 1.349 . S
C2155 C2171 1.349 . S
C2156 C2154 1.327 . S
C2156 C2175 1.429 . S
C2156 H2180 0.950 . S
C2157 C2174 1.574 . S
C2157 C2176 1.368 . S
C2157 H2181 0.949 . S
H2158 C2162 0.949 . S
C2159 C2160 1.349 . S
C2159 C2161 1.327 . S
C2159 H2182 0.950 . S
C2160 C2159 1.349 . S
C2160 C2172 1.349 . S
C2161 C2159 1.327 . S
C2161 C2177 1.429 . S
C2161 H2183 0.950 . S
C2162 H2158 0.949 . S
C2162 C2170 1.574 . S
C2162 C2178 1.368 . S
H2163 C2171 0.950 . S
H2164 C2169 0.950 . S
H2165 C2170 0.949 . S
H2166 C2172 0.950 . S
H2167 C2173 0.950 . S
H2168 C2174 0.949 . S
C2169 H2164 0.950 . S
C2169 C2171 1.327 . S
C2169 C2175 1.429 . S
C2170 C2162 1.574 . S
C2170 H2165 0.949 . S
C2170 C2176 1.368 . S
C2171 C2155 1.349 . S
C2171 H2163 0.950 . S
C2171 C2169 1.327 . S
C2172 C2160 1.349 . S
C2172 H2166 0.950 . S
C2172 C2173 1.327 . S
C2173 H2167 0.950 . S
C2173 C2172 1.327 . S
C2173 C2177 1.429 . S
C2174 C2157 1.574 . S
C2174 H2168 0.949 . S
C2174 C2178 1.368 . S
C2175 C2156 1.429 . S
C2175 C2169 1.429 . S
C2175 C2176 1.523 . S
C2176 C2157 1.368 . S
C2176 C2170 1.368 . S
C2176 C2175 1.523 . S
C2177 C2161 1.429 . S
C2177 C2173 1.429 . S
C2177 C2178 1.523 . S
C2178 C2162 1.368 . S
C2178 C2174 1.368 . S
C2178 C2177 1.523 . S
H2179 C2154 0.950 . S
H2180 C2156 0.950 . S
H2181 C2157 0.949 . S
H2182 C2159 0.950 . S
H2183 C2161 0.950 . S
C2184 C2185 1.349 . S
C2184 C2186 1.327 . S
C2184 H2209 0.950 . S
C2185 C2184 1.349 . S
C2185 C2201 1.349 . S
C2186 C2184 1.327 . S
C2186 C2205 1.429 . S
C2186 H2210 0.950 . S
C2187 C2204 1.574 . S
C2187 C2206 1.368 . S
C2187 H2211 0.949 . S
H2188 C2192 0.949 . S
C2189 C2190 1.349 . S
C2189 C2191 1.327 . S
C2189 H2212 0.950 . S
C2190 C2189 1.349 . S
C2190 C2202 1.349 . S
C2191 C2189 1.327 . S
C2191 C2207 1.429 . S
C2191 H2213 0.950 . S
C2192 H2188 0.949 . S
C2192 C2200 1.574 . S
C2192 C2208 1.368 . S
H2193 C2201 0.950 . S
H2194 C2199 0.950 . S
H2195 C2200 0.949 . S
H2196 C2202 0.950 . S
H2197 C2203 0.950 . S
H2198 C2204 0.949 . S
C2199 H2194 0.950 . S
C2199 C2201 1.327 . S
C2199 C2205 1.429 . S
C2200 C2192 1.574 . S
C2200 H2195 0.949 . S
C2200 C2206 1.368 . S
C2201 C2185 1.349 . S
C2201 H2193 0.950 . S
C2201 C2199 1.327 . S
C2202 C2190 1.349 . S
C2202 H2196 0.950 . S
C2202 C2203 1.327 . S
C2203 H2197 0.950 . S
C2203 C2202 1.327 . S
C2203 C2207 1.429 . S
C2204 C2187 1.574 . S
C2204 H2198 0.949 . S
C2204 C2208 1.368 . S
C2205 C2186 1.429 . S
C2205 C2199 1.429 . S
C2205 C2206 1.523 . S
C2206 C2187 1.368 . S
C2206 C2200 1.368 . S
C2206 C2205 1.523 . S
C2207 C2191 1.429 . S
C2207 C2203 1.429 . S
C2207 C2208 1.523 . S
C2208 C2192 1.368 . S
C2208 C2204 1.368 . S
C2208 C2207 1.523 . S
H2209 C2184 0.950 . S
H2210 C2186 0.950 . S
H2211 C2187 0.949 . S
H2212 C2189 0.950 . S
H2213 C2191 0.950 . S
C2214 C2215 1.349 . S
C2214 C2216 1.327 . S
C2214 H2239 0.950 . S
C2215 C2214 1.349 . S
C2215 C2231 1.349 . S
C2216 C2214 1.327 . S
C2216 C2235 1.429 . S
C2216 H2240 0.950 . S
C2217 C2234 1.574 . S
C2217 C2236 1.368 . S
C2217 H2241 0.949 . S
H2218 C2222 0.949 . S
C2219 C2220 1.349 . S
C2219 C2221 1.327 . S
C2219 H2242 0.950 . S
C2220 C2219 1.349 . S
C2220 C2232 1.349 . S
C2221 C2219 1.327 . S
C2221 C2237 1.429 . S
C2221 H2243 0.950 . S
C2222 H2218 0.949 . S
C2222 C2230 1.574 . S
C2222 C2238 1.368 . S
H2223 C2231 0.950 . S
H2224 C2229 0.950 . S
H2225 C2230 0.949 . S
H2226 C2232 0.950 . S
H2227 C2233 0.950 . S
H2228 C2234 0.949 . S
C2229 H2224 0.950 . S
C2229 C2231 1.327 . S
C2229 C2235 1.429 . S
C2230 C2222 1.574 . S
C2230 H2225 0.949 . S
C2230 C2236 1.368 . S
C2231 C2215 1.349 . S
C2231 H2223 0.950 . S
C2231 C2229 1.327 . S
C2232 C2220 1.349 . S
C2232 H2226 0.950 . S
C2232 C2233 1.327 . S
C2233 H2227 0.950 . S
C2233 C2232 1.327 . S
C2233 C2237 1.429 . S
C2234 C2217 1.574 . S
C2234 H2228 0.949 . S
C2234 C2238 1.368 . S
C2235 C2216 1.429 . S
C2235 C2229 1.429 . S
C2235 C2236 1.523 . S
C2236 C2217 1.368 . S
C2236 C2230 1.368 . S
C2236 C2235 1.523 . S
C2237 C2221 1.429 . S
C2237 C2233 1.429 . S
C2237 C2238 1.523 . S
C2238 C2222 1.368 . S
C2238 C2234 1.368 . S
C2238 C2237 1.523 . S
H2239 C2214 0.950 . S
H2240 C2216 0.950 . S
H2241 C2217 0.949 . S
H2242 C2219 0.950 . S
H2243 C2221 0.950 . S
C2244 C2245 1.349 . S
C2244 C2246 1.327 . S
C2244 H2269 0.950 . S
C2245 C2244 1.349 . S
C2245 C2261 1.349 . S
C2246 C2244 1.327 . S
C2246 C2265 1.429 . S
C2246 H2270 0.950 . S
C2247 C2264 1.574 . S
C2247 C2266 1.368 . S
C2247 H2271 0.949 . S
H2248 C2252 0.949 . S
C2249 C2250 1.349 . S
C2249 C2251 1.327 . S
C2249 H2272 0.950 . S
C2250 C2249 1.349 . S
C2250 C2262 1.349 . S
C2251 C2249 1.327 . S
C2251 C2267 1.429 . S
C2251 H2273 0.950 . S
C2252 H2248 0.949 . S
C2252 C2260 1.574 . S
C2252 C2268 1.368 . S
H2253 C2261 0.950 . S
H2254 C2259 0.950 . S
H2255 C2260 0.949 . S
H2256 C2262 0.950 . S
H2257 C2263 0.950 . S
H2258 C2264 0.949 . S
C2259 H2254 0.950 . S
C2259 C2261 1.327 . S
C2259 C2265 1.429 . S
C2260 C2252 1.574 . S
C2260 H2255 0.949 . S
C2260 C2266 1.368 . S
C2261 C2245 1.349 . S
C2261 H2253 0.950 . S
C2261 C2259 1.327 . S
C2262 C2250 1.349 . S
C2262 H2256 0.950 . S
C2262 C2263 1.327 . S
C2263 H2257 0.950 . S
C2263 C2262 1.327 . S
C2263 C2267 1.429 . S
C2264 C2247 1.574 . S
C2264 H2258 0.949 . S
C2264 C2268 1.368 . S
C2265 C2246 1.429 . S
C2265 C2259 1.429 . S
C2265 C2266 1.523 . S
C2266 C2247 1.368 . S
C2266 C2260 1.368 . S
C2266 C2265 1.523 . S
C2267 C2251 1.429 . S
C2267 C2263 1.429 . S
C2267 C2268 1.523 . S
C2268 C2252 1.368 . S
C2268 C2264 1.368 . S
C2268 C2267 1.523 . S
H2269 C2244 0.950 . S
H2270 C2246 0.950 . S
H2271 C2247 0.949 . S
H2272 C2249 0.950 . S
H2273 C2251 0.950 . S
C2274 C2275 1.349 . S
C2274 C2276 1.327 . S
C2274 H2299 0.950 . S
C2275 C2274 1.349 . S
C2275 C2291 1.349 . S
C2276 C2274 1.327 . S
C2276 C2295 1.429 . S
C2276 H2300 0.950 . S
C2277 C2294 1.574 . S
C2277 C2296 1.368 . S
C2277 H2301 0.949 . S
H2278 C2282 0.949 . S
C2279 C2280 1.349 . S
C2279 C2281 1.327 . S
C2279 H2302 0.950 . S
C2280 C2279 1.349 . S
C2280 C2292 1.349 . S
C2281 C2279 1.327 . S
C2281 C2297 1.429 . S
C2281 H2303 0.950 . S
C2282 H2278 0.949 . S
C2282 C2290 1.574 . S
C2282 C2298 1.368 . S
H2283 C2291 0.950 . S
H2284 C2289 0.950 . S
H2285 C2290 0.949 . S
H2286 C2292 0.950 . S
H2287 C2293 0.950 . S
H2288 C2294 0.949 . S
C2289 H2284 0.950 . S
C2289 C2291 1.327 . S
C2289 C2295 1.429 . S
C2290 C2282 1.574 . S
C2290 H2285 0.949 . S
C2290 C2296 1.368 . S
C2291 C2275 1.349 . S
C2291 H2283 0.950 . S
C2291 C2289 1.327 . S
C2292 C2280 1.349 . S
C2292 H2286 0.950 . S
C2292 C2293 1.327 . S
C2293 H2287 0.950 . S
C2293 C2292 1.327 . S
C2293 C2297 1.429 . S
C2294 C2277 1.574 . S
C2294 H2288 0.949 . S
C2294 C2298 1.368 . S
C2295 C2276 1.429 . S
C2295 C2289 1.429 . S
C2295 C2296 1.523 . S
C2296 C2277 1.368 . S
C2296 C2290 1.368 . S
C2296 C2295 1.523 . S
C2297 C2281 1.429 . S
C2297 C2293 1.429 . S
C2297 C2298 1.523 . S
C2298 C2282 1.368 . S
C2298 C2294 1.368 . S
C2298 C2297 1.523 . S
H2299 C2274 0.950 . S
H2300 C2276 0.950 . S
H2301 C2277 0.949 . S
H2302 C2279 0.950 . S
H2303 C2281 0.950 . S
C2304 C2305 1.349 . S
C2304 C2306 1.327 . S
C2304 H2329 0.950 . S
C2305 C2304 1.349 . S
C2305 C2321 1.349 . S
C2306 C2304 1.327 . S
C2306 C2325 1.429 . S
C2306 H2330 0.950 . S
C2307 C2324 1.574 . S
C2307 C2326 1.368 . S
C2307 H2331 0.949 . S
H2308 C2312 0.949 . S
C2309 C2310 1.349 . S
C2309 C2311 1.327 . S
C2309 H2332 0.950 . S
C2310 C2309 1.349 . S
C2310 C2322 1.349 . S
C2311 C2309 1.327 . S
C2311 C2327 1.429 . S
C2311 H2333 0.950 . S
C2312 H2308 0.949 . S
C2312 C2320 1.574 . S
C2312 C2328 1.368 . S
H2313 C2321 0.950 . S
H2314 C2319 0.950 . S
H2315 C2320 0.949 . S
H2316 C2322 0.950 . S
H2317 C2323 0.950 . S
H2318 C2324 0.949 . S
C2319 H2314 0.950 . S
C2319 C2321 1.327 . S
C2319 C2325 1.429 . S
C2320 C2312 1.574 . S
C2320 H2315 0.949 . S
C2320 C2326 1.368 . S
C2321 C2305 1.349 . S
C2321 H2313 0.950 . S
C2321 C2319 1.327 . S
C2322 C2310 1.349 . S
C2322 H2316 0.950 . S
C2322 C2323 1.327 . S
C2323 H2317 0.950 . S
C2323 C2322 1.327 . S
C2323 C2327 1.429 . S
C2324 C2307 1.574 . S
C2324 H2318 0.949 . S
C2324 C2328 1.368 . S
C2325 C2306 1.429 . S
C2325 C2319 1.429 . S
C2325 C2326 1.523 . S
C2326 C2307 1.368 . S
C2326 C2320 1.368 . S
C2326 C2325 1.523 . S
C2327 C2311 1.429 . S
C2327 C2323 1.429 . S
C2327 C2328 1.523 . S
C2328 C2312 1.368 . S
C2328 C2324 1.368 . S
C2328 C2327 1.523 . S
H2329 C2304 0.950 . S
H2330 C2306 0.950 . S
H2331 C2307 0.949 . S
H2332 C2309 0.950 . S
H2333 C2311 0.950 . S
C2334 C2335 1.349 . S
C2334 C2336 1.327 . S
C2334 H2359 0.950 . S
C2335 C2334 1.349 . S
C2335 C2351 1.349 . S
C2336 C2334 1.327 . S
C2336 C2355 1.429 . S
C2336 H2360 0.950 . S
C2337 C2354 1.574 . S
C2337 C2356 1.368 . S
C2337 H2361 0.949 . S
H2338 C2342 0.949 . S
C2339 C2340 1.349 . S
C2339 C2341 1.327 . S
C2339 H2362 0.950 . S
C2340 C2339 1.349 . S
C2340 C2352 1.349 . S
C2341 C2339 1.327 . S
C2341 C2357 1.429 . S
C2341 H2363 0.950 . S
C2342 H2338 0.949 . S
C2342 C2350 1.574 . S
C2342 C2358 1.368 . S
H2343 C2351 0.950 . S
H2344 C2349 0.950 . S
H2345 C2350 0.949 . S
H2346 C2352 0.950 . S
H2347 C2353 0.950 . S
H2348 C2354 0.949 . S
C2349 H2344 0.950 . S
C2349 C2351 1.327 . S
C2349 C2355 1.429 . S
C2350 C2342 1.574 . S
C2350 H2345 0.949 . S
C2350 C2356 1.368 . S
C2351 C2335 1.349 . S
C2351 H2343 0.950 . S
C2351 C2349 1.327 . S
C2352 C2340 1.349 . S
C2352 H2346 0.950 . S
C2352 C2353 1.327 . S
C2353 H2347 0.950 . S
C2353 C2352 1.327 . S
C2353 C2357 1.429 . S
C2354 C2337 1.574 . S
C2354 H2348 0.949 . S
C2354 C2358 1.368 . S
C2355 C2336 1.429 . S
C2355 C2349 1.429 . S
C2355 C2356 1.523 . S
C2356 C2337 1.368 . S
C2356 C2350 1.368 . S
C2356 C2355 1.523 . S
C2357 C2341 1.429 . S
C2357 C2353 1.429 . S
C2357 C2358 1.523 . S
C2358 C2342 1.368 . S
C2358 C2354 1.368 . S
C2358 C2357 1.523 . S
H2359 C2334 0.950 . S
H2360 C2336 0.950 . S
H2361 C2337 0.949 . S
H2362 C2339 0.950 . S
H2363 C2341 0.950 . S
C2364 C2365 1.349 . S
C2364 C2366 1.327 . S
C2364 H2389 0.950 . S
C2365 C2364 1.349 . S
C2365 C2381 1.349 . S
C2366 C2364 1.327 . S
C2366 C2385 1.429 . S
C2366 H2390 0.950 . S
C2367 C2384 1.574 . S
C2367 C2386 1.368 . S
C2367 H2391 0.949 . S
H2368 C2372 0.949 . S
C2369 C2370 1.349 . S
C2369 C2371 1.327 . S
C2369 H2392 0.950 . S
C2370 C2369 1.349 . S
C2370 C2382 1.349 . S
C2371 C2369 1.327 . S
C2371 C2387 1.429 . S
C2371 H2393 0.950 . S
C2372 H2368 0.949 . S
C2372 C2380 1.574 . S
C2372 C2388 1.368 . S
H2373 C2381 0.950 . S
H2374 C2379 0.950 . S
H2375 C2380 0.949 . S
H2376 C2382 0.950 . S
H2377 C2383 0.950 . S
H2378 C2384 0.949 . S
C2379 H2374 0.950 . S
C2379 C2381 1.327 . S
C2379 C2385 1.429 . S
C2380 C2372 1.574 . S
C2380 H2375 0.949 . S
C2380 C2386 1.368 . S
C2381 C2365 1.349 . S
C2381 H2373 0.950 . S
C2381 C2379 1.327 . S
C2382 C2370 1.349 . S
C2382 H2376 0.950 . S
C2382 C2383 1.327 . S
C2383 H2377 0.950 . S
C2383 C2382 1.327 . S
C2383 C2387 1.429 . S
C2384 C2367 1.574 . S
C2384 H2378 0.949 . S
C2384 C2388 1.368 . S
C2385 C2366 1.429 . S
C2385 C2379 1.429 . S
C2385 C2386 1.523 . S
C2386 C2367 1.368 . S
C2386 C2380 1.368 . S
C2386 C2385 1.523 . S
C2387 C2371 1.429 . S
C2387 C2383 1.429 . S
C2387 C2388 1.523 . S
C2388 C2372 1.368 . S
C2388 C2384 1.368 . S
C2388 C2387 1.523 . S
H2389 C2364 0.950 . S
H2390 C2366 0.950 . S
H2391 C2367 0.949 . S
H2392 C2369 0.950 . S
H2393 C2371 0.950 . S
C2394 C2395 1.349 . S
C2394 C2396 1.327 . S
C2394 H2419 0.950 . S
C2395 C2394 1.349 . S
C2395 C2411 1.349 . S
C2396 C2394 1.327 . S
C2396 C2415 1.429 . S
C2396 H2420 0.950 . S
C2397 C2414 1.574 . S
C2397 C2416 1.368 . S
C2397 H2421 0.949 . S
H2398 C2402 0.949 . S
C2399 C2400 1.349 . S
C2399 C2401 1.327 . S
C2399 H2422 0.950 . S
C2400 C2399 1.349 . S
C2400 C2412 1.349 . S
C2401 C2399 1.327 . S
C2401 C2417 1.429 . S
C2401 H2423 0.950 . S
C2402 H2398 0.949 . S
C2402 C2410 1.574 . S
C2402 C2418 1.368 . S
H2403 C2411 0.950 . S
H2404 C2409 0.950 . S
H2405 C2410 0.949 . S
H2406 C2412 0.950 . S
H2407 C2413 0.950 . S
H2408 C2414 0.949 . S
C2409 H2404 0.950 . S
C2409 C2411 1.327 . S
C2409 C2415 1.429 . S
C2410 C2402 1.574 . S
C2410 H2405 0.949 . S
C2410 C2416 1.368 . S
C2411 C2395 1.349 . S
C2411 H2403 0.950 . S
C2411 C2409 1.327 . S
C2412 C2400 1.349 . S
C2412 H2406 0.950 . S
C2412 C2413 1.327 . S
C2413 H2407 0.950 . S
C2413 C2412 1.327 . S
C2413 C2417 1.429 . S
C2414 C2397 1.574 . S
C2414 H2408 0.949 . S
C2414 C2418 1.368 . S
C2415 C2396 1.429 . S
C2415 C2409 1.429 . S
C2415 C2416 1.523 . S
C2416 C2397 1.368 . S
C2416 C2410 1.368 . S
C2416 C2415 1.523 . S
C2417 C2401 1.429 . S
C2417 C2413 1.429 . S
C2417 C2418 1.523 . S
C2418 C2402 1.368 . S
C2418 C2414 1.368 . S
C2418 C2417 1.523 . S
H2419 C2394 0.950 . S
H2420 C2396 0.950 . S
H2421 C2397 0.949 . S
H2422 C2399 0.950 . S
H2423 C2401 0.950 . S
C2424 C2425 1.349 . S
C2424 C2426 1.327 . S
C2424 H2449 0.950 . S
C2425 C2424 1.349 . S
C2425 C2441 1.349 . S
C2426 C2424 1.327 . S
C2426 C2445 1.429 . S
C2426 H2450 0.950 . S
C2427 C2444 1.574 . S
C2427 C2446 1.368 . S
C2427 H2451 0.949 . S
H2428 C2432 0.949 . S
C2429 C2430 1.349 . S
C2429 C2431 1.327 . S
C2429 H2452 0.950 . S
C2430 C2429 1.349 . S
C2430 C2442 1.349 . S
C2431 C2429 1.327 . S
C2431 C2447 1.429 . S
C2431 H2453 0.950 . S
C2432 H2428 0.949 . S
C2432 C2440 1.574 . S
C2432 C2448 1.368 . S
H2433 C2441 0.950 . S
H2434 C2439 0.950 . S
H2435 C2440 0.949 . S
H2436 C2442 0.950 . S
H2437 C2443 0.950 . S
H2438 C2444 0.949 . S
C2439 H2434 0.950 . S
C2439 C2441 1.327 . S
C2439 C2445 1.429 . S
C2440 C2432 1.574 . S
C2440 H2435 0.949 . S
C2440 C2446 1.368 . S
C2441 C2425 1.349 . S
C2441 H2433 0.950 . S
C2441 C2439 1.327 . S
C2442 C2430 1.349 . S
C2442 H2436 0.950 . S
C2442 C2443 1.327 . S
C2443 H2437 0.950 . S
C2443 C2442 1.327 . S
C2443 C2447 1.429 . S
C2444 C2427 1.574 . S
C2444 H2438 0.949 . S
C2444 C2448 1.368 . S
C2445 C2426 1.429 . S
C2445 C2439 1.429 . S
C2445 C2446 1.523 . S
C2446 C2427 1.368 . S
C2446 C2440 1.368 . S
C2446 C2445 1.523 . S
C2447 C2431 1.429 . S
C2447 C2443 1.429 . S
C2447 C2448 1.523 . S
C2448 C2432 1.368 . S
C2448 C2444 1.368 . S
C2448 C2447 1.523 . S
H2449 C2424 0.950 . S
H2450 C2426 0.950 . S
H2451 C2427 0.949 . S
H2452 C2429 0.950 . S
H2453 C2431 0.950 . S
C2454 C2455 1.349 . S
C2454 C2456 1.327 . S
C2454 H2479 0.950 . S
C2455 C2454 1.349 . S
C2455 C2471 1.349 . S
C2456 C2454 1.327 . S
C2456 C2475 1.429 . S
C2456 H2480 0.950 . S
C2457 C2474 1.574 . S
C2457 C2476 1.368 . S
C2457 H2481 0.949 . S
H2458 C2462 0.949 . S
C2459 C2460 1.349 . S
C2459 C2461 1.327 . S
C2459 H2482 0.950 . S
C2460 C2459 1.349 . S
C2460 C2472 1.349 . S
C2461 C2459 1.327 . S
C2461 C2477 1.429 . S
C2461 H2483 0.950 . S
C2462 H2458 0.949 . S
C2462 C2470 1.574 . S
C2462 C2478 1.368 . S
H2463 C2471 0.950 . S
H2464 C2469 0.950 . S
H2465 C2470 0.949 . S
H2466 C2472 0.950 . S
H2467 C2473 0.950 . S
H2468 C2474 0.949 . S
C2469 H2464 0.950 . S
C2469 C2471 1.327 . S
C2469 C2475 1.429 . S
C2470 C2462 1.574 . S
C2470 H2465 0.949 . S
C2470 C2476 1.368 . S
C2471 C2455 1.349 . S
C2471 H2463 0.950 . S
C2471 C2469 1.327 . S
C2472 C2460 1.349 . S
C2472 H2466 0.950 . S
C2472 C2473 1.327 . S
C2473 H2467 0.950 . S
C2473 C2472 1.327 . S
C2473 C2477 1.429 . S
C2474 C2457 1.574 . S
C2474 H2468 0.949 . S
C2474 C2478 1.368 . S
C2475 C2456 1.429 . S
C2475 C2469 1.429 . S
C2475 C2476 1.523 . S
C2476 C2457 1.368 . S
C2476 C2470 1.368 . S
C2476 C2475 1.523 . S
C2477 C2461 1.429 . S
C2477 C2473 1.429 . S
C2477 C2478 1.523 . S
C2478 C2462 1.368 . S
C2478 C2474 1.368 . S
C2478 C2477 1.523 . S
H2479 C2454 0.950 . S
H2480 C2456 0.950 . S
H2481 C2457 0.949 . S
H2482 C2459 0.950 . S
H2483 C2461 0.950 . S
C2484 C2485 1.349 . S
C2484 C2486 1.327 . S
C2484 H2509 0.950 . S
C2485 C2484 1.349 . S
C2485 C2501 1.349 . S
C2486 C2484 1.327 . S
C2486 C2505 1.429 . S
C2486 H2510 0.950 . S
C2487 C2504 1.574 . S
C2487 C2506 1.368 . S
C2487 H2511 0.949 . S
H2488 C2492 0.949 . S
C2489 C2490 1.349 . S
C2489 C2491 1.327 . S
C2489 H2512 0.950 . S
C2490 C2489 1.349 . S
C2490 C2502 1.349 . S
C2491 C2489 1.327 . S
C2491 C2507 1.429 . S
C2491 H2513 0.950 . S
C2492 H2488 0.949 . S
C2492 C2500 1.574 . S
C2492 C2508 1.368 . S
H2493 C2501 0.950 . S
H2494 C2499 0.950 . S
H2495 C2500 0.949 . S
H2496 C2502 0.950 . S
H2497 C2503 0.950 . S
H2498 C2504 0.949 . S
C2499 H2494 0.950 . S
C2499 C2501 1.327 . S
C2499 C2505 1.429 . S
C2500 C2492 1.574 . S
C2500 H2495 0.949 . S
C2500 C2506 1.368 . S
C2501 C2485 1.349 . S
C2501 H2493 0.950 . S
C2501 C2499 1.327 . S
C2502 C2490 1.349 . S
C2502 H2496 0.950 . S
C2502 C2503 1.327 . S
C2503 H2497 0.950 . S
C2503 C2502 1.327 . S
C2503 C2507 1.429 . S
C2504 C2487 1.574 . S
C2504 H2498 0.949 . S
C2504 C2508 1.368 . S
C2505 C2486 1.429 . S
C2505 C2499 1.429 . S
C2505 C2506 1.523 . S
C2506 C2487 1.368 . S
C2506 C2500 1.368 . S
C2506 C2505 1.523 . S
C2507 C2491 1.429 . S
C2507 C2503 1.429 . S
C2507 C2508 1.523 . S
C2508 C2492 1.368 . S
C2508 C2504 1.368 . S
C2508 C2507 1.523 . S
H2509 C2484 0.950 . S
H2510 C2486 0.950 . S
H2511 C2487 0.949 . S
H2512 C2489 0.950 . S
H2513 C2491 0.950 . S
C2514 C2515 1.349 . S
C2514 C2516 1.327 . S
C2514 H2539 0.950 . S
C2515 C2514 1.349 . S
C2515 C2531 1.349 . S
C2516 C2514 1.327 . S
C2516 C2535 1.429 . S
C2516 H2540 0.950 . S
C2517 C2534 1.574 . S
C2517 C2536 1.368 . S
C2517 H2541 0.949 . S
H2518 C2522 0.949 . S
C2519 C2520 1.349 . S
C2519 C2521 1.327 . S
C2519 H2542 0.950 . S
C2520 C2519 1.349 . S
C2520 C2532 1.349 . S
C2521 C2519 1.327 . S
C2521 C2537 1.429 . S
C2521 H2543 0.950 . S
C2522 H2518 0.949 . S
C2522 C2530 1.574 . S
C2522 C2538 1.368 . S
H2523 C2531 0.950 . S
H2524 C2529 0.950 . S
H2525 C2530 0.949 . S
H2526 C2532 0.950 . S
H2527 C2533 0.950 . S
H2528 C2534 0.949 . S
C2529 H2524 0.950 . S
C2529 C2531 1.327 . S
C2529 C2535 1.429 . S
C2530 C2522 1.574 . S
C2530 H2525 0.949 . S
C2530 C2536 1.368 . S
C2531 C2515 1.349 . S
C2531 H2523 0.950 . S
C2531 C2529 1.327 . S
C2532 C2520 1.349 . S
C2532 H2526 0.950 . S
C2532 C2533 1.327 . S
C2533 H2527 0.950 . S
C2533 C2532 1.327 . S
C2533 C2537 1.429 . S
C2534 C2517 1.574 . S
C2534 H2528 0.949 . S
C2534 C2538 1.368 . S
C2535 C2516 1.429 . S
C2535 C2529 1.429 . S
C2535 C2536 1.523 . S
C2536 C2517 1.368 . S
C2536 C2530 1.368 . S
C2536 C2535 1.523 . S
C2537 C2521 1.429 . S
C2537 C2533 1.429 . S
C2537 C2538 1.523 . S
C2538 C2522 1.368 . S
C2538 C2534 1.368 . S
C2538 C2537 1.523 . S
H2539 C2514 0.950 . S
H2540 C2516 0.950 . S
H2541 C2517 0.949 . S
H2542 C2519 0.950 . S
H2543 C2521 0.950 . S
C2544 C2545 1.349 . S
C2544 C2546 1.327 . S
C2544 H2569 0.950 . S
C2545 C2544 1.349 . S
C2545 C2561 1.349 . S
C2546 C2544 1.327 . S
C2546 C2565 1.429 . S
C2546 H2570 0.950 . S
C2547 C2564 1.574 . S
C2547 C2566 1.368 . S
C2547 H2571 0.949 . S
H2548 C2552 0.949 . S
C2549 C2550 1.349 . S
C2549 C2551 1.327 . S
C2549 H2572 0.950 . S
C2550 C2549 1.349 . S
C2550 C2562 1.349 . S
C2551 C2549 1.327 . S
C2551 C2567 1.429 . S
C2551 H2573 0.950 . S
C2552 H2548 0.949 . S
C2552 C2560 1.574 . S
C2552 C2568 1.368 . S
H2553 C2561 0.950 . S
H2554 C2559 0.950 . S
H2555 C2560 0.949 . S
H2556 C2562 0.950 . S
H2557 C2563 0.950 . S
H2558 C2564 0.949 . S
C2559 H2554 0.950 . S
C2559 C2561 1.327 . S
C2559 C2565 1.429 . S
C2560 C2552 1.574 . S
C2560 H2555 0.949 . S
C2560 C2566 1.368 . S
C2561 C2545 1.349 . S
C2561 H2553 0.950 . S
C2561 C2559 1.327 . S
C2562 C2550 1.349 . S
C2562 H2556 0.950 . S
C2562 C2563 1.327 . S
C2563 H2557 0.950 . S
C2563 C2562 1.327 . S
C2563 C2567 1.429 . S
C2564 C2547 1.574 . S
C2564 H2558 0.949 . S
C2564 C2568 1.368 . S
C2565 C2546 1.429 . S
C2565 C2559 1.429 . S
C2565 C2566 1.523 . S
C2566 C2547 1.368 . S
C2566 C2560 1.368 . S
C2566 C2565 1.523 . S
C2567 C2551 1.429 . S
C2567 C2563 1.429 . S
C2567 C2568 1.523 . S
C2568 C2552 1.368 . S
C2568 C2564 1.368 . S
C2568 C2567 1.523 . S
H2569 C2544 0.950 . S
H2570 C2546 0.950 . S
H2571 C2547 0.949 . S
H2572 C2549 0.950 . S
H2573 C2551 0.950 . S
C955 C147 1.433 . S
C960 C265 1.376 . S
C985 C158 1.461 . S
C990 C349 1.406 . S
C1015 C136 1.428 . S
C1020 C429 1.420 . S
C1045 C125 1.402 . S
C1050 C345 1.396 1_556 S
C1080 C433 1.352 . S
C1075 C103 1.410 . S
C1105 C114 1.378 . S
C1110 C261 1.348 1_556 S
C1140 C254 1.431 . S
C1135 C131 1.493 . S
C1170 C338 1.458 . S
C1165 C109 1.517 . S
C1195 C120 1.510 . S
C1200 C440 1.467 1_556 S
C1225 C153 1.476 . S
C1230 C356 1.444 . S
C1255 C164 1.460 . S
C1260 C422 1.398 . S
C1290 C272 1.421 . S
C1285 C142 1.453 . S
C1320 C517 1.376 . S
C1315 C15 1.433 . S
C1345 C26 1.461 . S
C1350 C601 1.406 . S
C1375 C4 1.428 . S
C1380 C681 1.420 . S
C1405 C191 1.402 . S
C1410 C597 1.396 . S
C1435 C169 1.410 . S
C1440 C685 1.352 . S
C1465 C180 1.378 . S
C1470 C513 1.370 . S
C1495 C197 1.493 . S
C1500 C506 1.431 . S
C1525 C175 1.517 . S
C1530 C590 1.458 . S
C1560 C692 1.478 . S
C1555 C186 1.510 . S
C1585 C21 1.476 . S
C1590 C608 1.444 . S
C1620 C674 1.398 . S
C1615 C32 1.460 . S
C1645 C10 1.453 . S
C1650 C524 1.420 . S
C1680 C769 1.376 . S
C1675 C81 1.433 . S
C1705 C92 1.461 . S
C1710 C853 1.407 . S
C1740 C933 1.420 . S
C1735 C70 1.428 . S
C1770 C849 1.396 . S
C1765 C59 1.402 . S
C1800 C937 1.352 . S
C1795 C37 1.410 . S
C1825 C48 1.378 . S
C1830 C765 1.370 . S
C1855 C65 1.492 . S
C1860 C758 1.431 . S
C1885 C43 1.517 . S
C1890 C842 1.458 . S
C1920 C944 1.478 . S
C1915 C54 1.510 . S
C1945 C87 1.476 . S
C1950 C860 1.444 . S
C1975 C98 1.460 . S
C1980 C926 1.398 . S
C2005 C76 1.453 . S
C2010 C776 1.420 . S
C2035 C170 1.545 . S
C2040 C268 1.419 . S
C2070 C352 1.476 . S
C2065 C181 1.625 . S
C2095 C192 1.562 . S
C2100 C424 1.383 . S
C2125 C71 1.595 . S
C2130 C340 1.406 . S
C2155 C82 1.577 . S
C2160 C436 1.437 . S
C2190 C256 1.352 . S
C2185 C93 1.516 . S
C2215 C38 1.545 . S
C2220 C520 1.419 . S
C2245 C49 1.625 . S
C2250 C604 1.476 . S
C2275 C60 1.562 . S
C2280 C676 1.383 . S
C2305 C137 1.596 . S
C2310 C592 1.406 . S
C2340 C688 1.437 . S
C2335 C148 1.577 . S
C2365 C159 1.516 . S
C2370 C508 1.352 . S
C2395 C104 1.545 . S
C2400 C772 1.419 . S
C2425 C115 1.624 . S
C2430 C856 1.475 . S
C2460 C928 1.383 . S
C2455 C126 1.562 . S
C2485 C5 1.596 . S
C2490 C844 1.406 . S
C2515 C16 1.577 . S
C2520 C940 1.437 . S
C2545 C27 1.516 . S
C2550 C760 1.352 . S
