# Generated by pormake.
# Topology zzz, (3,6)-cn, num edge types: 1
# Building blocks:
#     Node 0, Type 0, BuildingBlock: QEWDON_clean_linker_0, # of connection points: 3
#     Node 1, Type 0, BuildingBlock: QEWDON_clean_linker_0, # of connection points: 3
#     Node 2, Type 0, BuildingBlock: QEWDON_clean_linker_0, # of connection points: 3
#     Node 3, Type 0, BuildingBlock: QEWDON_clean_linker_0, # of connection points: 3
#     Node 4, Type 0, BuildingBlock: QEWDON_clean_linker_0, # of connection points: 3
#     Node 5, Type 0, BuildingBlock: QEWDON_clean_linker_0, # of connection points: 3
#     Node 6, Type 0, BuildingBlock: QEWDON_clean_linker_0, # of connection points: 3
#     Node 7, Type 0, BuildingBlock: QEWDON_clean_linker_0, # of connection points: 3
#     Node 8, Type 1, BuildingBlock: FUNLAD_clean_sbu_0, # of connection points: 6
#     Node 9, Type 1, BuildingBlock: FUNLAD_clean_sbu_0, # of connection points: 6
#     Node 10, Type 1, BuildingBlock: FUNLAD_clean_sbu_0, # of connection points: 6
#     Node 11, Type 1, BuildingBlock: FUNLAD_clean_sbu_0, # of connection points: 6
#     Edge 12, Type (0, 1), BuildingBlock: CIFDUS_clean_linker_0, # of connection points: 2
#     Edge 13, Type (0, 1), BuildingBlock: CIFDUS_clean_linker_0, # of connection points: 2
#     Edge 14, Type (0, 1), BuildingBlock: CIFDUS_clean_linker_0, # of connection points: 2
#     Edge 15, Type (0, 1), BuildingBlock: CIFDUS_clean_linker_0, # of connection points: 2
#     Edge 16, Type (0, 1), BuildingBlock: CIFDUS_clean_linker_0, # of connection points: 2
#     Edge 17, Type (0, 1), BuildingBlock: CIFDUS_clean_linker_0, # of connection points: 2
#     Edge 18, Type (0, 1), BuildingBlock: CIFDUS_clean_linker_0, # of connection points: 2
#     Edge 19, Type (0, 1), BuildingBlock: CIFDUS_clean_linker_0, # of connection points: 2
#     Edge 20, Type (0, 1), BuildingBlock: CIFDUS_clean_linker_0, # of connection points: 2
#     Edge 21, Type (0, 1), BuildingBlock: CIFDUS_clean_linker_0, # of connection points: 2
#     Edge 22, Type (0, 1), BuildingBlock: CIFDUS_clean_linker_0, # of connection points: 2
#     Edge 23, Type (0, 1), BuildingBlock: CIFDUS_clean_linker_0, # of connection points: 2
#     Edge 24, Type (0, 1), BuildingBlock: CIFDUS_clean_linker_0, # of connection points: 2
#     Edge 25, Type (0, 1), BuildingBlock: CIFDUS_clean_linker_0, # of connection points: 2
#     Edge 26, Type (0, 1), BuildingBlock: CIFDUS_clean_linker_0, # of connection points: 2
#     Edge 27, Type (0, 1), BuildingBlock: CIFDUS_clean_linker_0, # of connection points: 2
#     Edge 28, Type (0, 1), BuildingBlock: CIFDUS_clean_linker_0, # of connection points: 2
#     Edge 29, Type (0, 1), BuildingBlock: CIFDUS_clean_linker_0, # of connection points: 2
#     Edge 30, Type (0, 1), BuildingBlock: CIFDUS_clean_linker_0, # of connection points: 2
#     Edge 31, Type (0, 1), BuildingBlock: CIFDUS_clean_linker_0, # of connection points: 2
#     Edge 32, Type (0, 1), BuildingBlock: CIFDUS_clean_linker_0, # of connection points: 2
#     Edge 33, Type (0, 1), BuildingBlock: CIFDUS_clean_linker_0, # of connection points: 2
#     Edge 34, Type (0, 1), BuildingBlock: CIFDUS_clean_linker_0, # of connection points: 2
#     Edge 35, Type (0, 1), BuildingBlock: CIFDUS_clean_linker_0, # of connection points: 2
# Relax obj value: 0.078
# Max RMSD: 0.170
# Mean RMSD: 0.065
data_MOF--net-zzz--node1-FUNLAD_clean_sbu_0--node2-QEWDON_clean_linker_0--edge1-CIFDUS_clean_linker_0
_symmetry_space_group_name_H-M    P1
_symmetry_Int_Tables_number       1
_symmetry_cell_setting            triclinic
loop_
_symmetry_equiv_pos_as_xyz
'x, y, z'
_cell_length_a     47.556091
_cell_length_b     53.712408
_cell_length_c     15.635503
_cell_angle_alpha  84.500701
_cell_angle_beta   84.088156
_cell_angle_gamma 87.895149
loop_
_atom_site_label
_atom_site_type_symbol
_atom_site_fract_x
_atom_site_fract_y
_atom_site_fract_z
_atom_type_partial_charge
H0 H 0.84281 0.51364 0.15846 0.0
C1 C 0.84795 0.51152 0.22476 0.0
C2 C 0.87381 0.50002 0.24365 0.0
C3 C 0.83012 0.52257 0.28922 0.0
H4 H 0.90099 0.4893 0.34336 0.0
C5 C 0.88092 0.49811 0.32857 0.0
C6 C 0.86436 0.50995 0.39248 0.0
C7 C 0.83888 0.52221 0.37314 0.0
C8 C 0.80403 0.53663 0.26544 0.0
H9 H 0.8263 0.53165 0.42272 0.0
C10 C 0.78686 0.5274 0.20775 0.0
C11 C 0.76363 0.54168 0.17916 0.0
C12 C 0.79713 0.56012 0.29582 0.0
H13 H 0.8101 0.56799 0.33892 0.0
C14 C 0.77391 0.57419 0.26841 0.0
H15 H 0.79181 0.50929 0.18397 0.0
C16 C 0.75736 0.56516 0.21008 0.0
H17 H 0.73943 0.57642 0.18985 0.0
H18 H 0.76888 0.59232 0.29182 0.0
H19 H 1.00024 0.80804 0.0249 0.0
C20 C 0.99875 0.81199 0.09187 0.0
C21 C 1.00988 0.83426 0.11405 0.0
C22 C 0.9839 0.7956 0.15557 0.0
H23 H 1.01349 0.85677 0.21912 0.0
C24 C 1.00676 0.83914 0.20079 0.0
C25 C 0.99299 0.82279 0.26498 0.0
C26 C 0.98123 0.80116 0.24256 0.0
C27 C 0.96832 0.77438 0.13052 0.0
H28 H 0.96972 0.78895 0.29227 0.0
C29 C 0.98117 0.75738 0.07385 0.0
C30 C 0.96548 0.73787 0.04942 0.0
C31 C 0.93974 0.77157 0.16231 0.0
H32 H 0.92921 0.78454 0.20487 0.0
C33 C 0.92424 0.75234 0.13832 0.0
H34 H 1.00318 0.75933 0.04891 0.0
C35 C 0.93694 0.73562 0.08234 0.0
H36 H 0.92447 0.72064 0.06565 0.0
H37 H 0.90226 0.75039 0.16319 0.0
H38 H 0.75067 0.99293 0.03358 0.0
C39 C 0.73933 0.9965 0.09508 0.0
C40 C 0.71045 1.00334 0.09857 0.0
C41 C 0.75315 0.99359 0.17141 0.0
H42 H 0.67266 1.0109 0.18123 0.0
C43 C 0.69522 1.00661 0.17815 0.0
C44 C 0.70813 1.00331 0.25446 0.0
C45 C 0.73719 0.99738 0.25125 0.0
C46 C 0.78357 0.98508 0.16905 0.0
H47 H 0.74705 0.99527 0.31103 0.0
C48 C 0.80389 0.99296 0.0997 0.0
C49 C 0.8325 0.98496 0.10071 0.0
C50 C 0.79245 0.96855 0.23719 0.0
H51 H 0.77751 0.96135 0.28991 0.0
C52 C 0.82066 0.96066 0.23794 0.0
H53 H 0.79777 1.0057 0.04641 0.0
C54 C 0.84059 0.96891 0.17064 0.0
H55 H 0.86241 0.9625 0.17263 0.0
H56 H 0.82712 0.94801 0.29094 0.0
H57 H 0.53996 0.69333 0.02187 0.0
C58 C 0.53581 0.68731 0.09005 0.0
C59 C 0.52301 0.6642 0.11603 0.0
C60 C 0.54626 0.70116 0.15179 0.0
H61 H 0.50866 0.63849 0.22447 0.0
C62 C 0.51851 0.65631 0.20421 0.0
C63 C 0.53007 0.66896 0.26551 0.0
C64 C 0.54395 0.69142 0.23943 0.0
C65 C 0.56391 0.72331 0.12357 0.0
H66 H 0.55369 0.70084 0.28665 0.0
C67 C 0.55385 0.74432 0.07269 0.0
C68 C 0.57165 0.76468 0.0457 0.0
C69 C 0.59169 0.72307 0.14698 0.0
H70 H 0.59999 0.70712 0.18529 0.0
C71 C 0.60924 0.74311 0.11998 0.0
H72 H 0.53246 0.74482 0.05436 0.0
C73 C 0.59937 0.76373 0.06953 0.0
H74 H 0.61336 0.77916 0.04967 0.0
H75 H 0.63063 0.74264 0.13812 0.0
H76 H 0.24259 0.53289 0.30651 0.0
C77 C 0.23567 0.5265 0.24867 0.0
C78 C 0.20885 0.51634 0.25334 0.0
C79 C 0.25277 0.52935 0.16923 0.0
H80 H 0.1771 0.5028 0.18344 0.0
C81 C 0.19857 0.50935 0.17917 0.0
C82 C 0.21441 0.51295 0.09886 0.0
C83 C 0.24173 0.52248 0.0942 0.0
C84 C 0.28114 0.54093 0.16406 0.0
H85 H 0.25399 0.52481 0.03182 0.0
C86 C 0.29769 0.53806 0.23485 0.0
C87 C 0.32368 0.55014 0.23125 0.0
C88 C 0.29146 0.5558 0.08909 0.0
H89 H 0.27922 0.55928 0.03436 0.0
C90 C 0.31758 0.56705 0.08412 0.0
H91 H 0.29026 0.52676 0.29329 0.0
C92 C 0.33359 0.56426 0.15431 0.0
H93 H 0.35381 0.57324 0.14818 0.0
H94 H 0.32531 0.57827 0.0258 0.0
H95 H 1.01164 0.2103 0.49491 0.0
C96 C 1.01974 0.20745 0.42914 0.0
C97 C 0.03215 0.18419 0.4095 0.0
C98 C 1.01537 0.22643 0.3628 0.0
H99 H 0.0493 0.16286 0.30536 0.0
C100 C 0.04166 0.18108 0.32317 0.0
C101 C 0.03749 0.19963 0.25639 0.0
C102 C 0.024 0.22232 0.27626 0.0
C103 C 0.99589 0.24766 0.38174 0.0
H104 H 1.01866 0.23603 0.22453 0.0
C105 C 1.00532 0.2699 0.409 0.0
C106 C 0.98591 0.28983 0.42533 0.0
C107 C 0.96712 0.24526 0.37243 0.0
H108 H 0.95957 0.22822 0.35186 0.0
C109 C 0.94786 0.2647 0.38996 0.0
H110 H 0.02758 0.27183 0.41553 0.0
C111 C 0.95712 0.28682 0.41614 0.0
H112 H 0.94164 0.3016 0.42964 0.0
H113 H 0.92567 0.26265 0.38307 0.0
H114 H 0.31851 1.00904 0.45047 0.0
C115 C 0.32943 0.01335 0.38677 0.0
C116 C 0.35761 0.02078 0.37932 0.0
C117 C 0.31611 1.01007 0.3121 0.0
H118 H 0.39487 0.02939 0.29391 0.0
C119 C 0.37265 0.02496 0.29803 0.0
C120 C 0.36046 0.02106 0.22315 0.0
C121 C 0.33201 0.01411 0.2302 0.0
C122 C 0.28677 1.0002 0.31952 0.0
H123 H 0.32259 1.01143 0.17171 0.0
C124 C 0.26564 1.00649 0.38557 0.0
C125 C 0.23842 0.99619 0.3924 0.0
C126 C 0.28001 0.9835 0.26102 0.0
H127 H 0.29567 0.9774 0.2116 0.0
C128 C 0.25306 0.97389 0.26614 0.0
H129 H 0.27036 0.01912 0.43183 0.0
C130 C 0.23244 0.98021 0.3307 0.0
H131 H 0.21163 0.97255 0.33204 0.0
H132 H 0.24818 0.96127 0.22005 0.0
H133 H 0.54953 0.32749 0.41335 0.0
C134 C 0.54011 0.33677 0.35813 0.0
C135 C 0.53147 0.36204 0.35823 0.0
C136 C 0.53856 0.32412 0.2839 0.0
H137 H 0.51403 0.39396 0.28637 0.0
C138 C 0.52003 0.37426 0.28629 0.0
C139 C 0.51859 0.36219 0.21165 0.0
C140 C 0.52818 0.33713 0.21019 0.0
C141 C 0.55153 0.29865 0.27892 0.0
H142 H 0.52822 0.328 0.15128 0.0
C143 C 0.54284 0.27833 0.3389 0.0
C144 C 0.55652 0.25462 0.33438 0.0
C145 C 0.57372 0.29491 0.2145 0.0
H146 H 0.58087 0.31024 0.16812 0.0
C147 C 0.58736 0.27158 0.21042 0.0
H148 H 0.52564 0.28095 0.3886 0.0
C149 C 0.57895 0.2516 0.27003 0.0
H150 H 0.58968 0.23357 0.26495 0.0
H151 H 0.60456 0.26897 0.16082 0.0
C152 C 0.04388 0.96907 0.88541 0.0
N153 N 0.02218 0.96819 0.64113 0.0
C154 C 0.04099 0.94877 0.65368 0.0
C155 C 0.03803 0.9263 0.61958 0.0
C156 C 1.01626 0.92361 0.56759 0.0
C157 C 0.99712 0.94398 0.55408 0.0
C158 C 1.00034 0.9662 0.59253 0.0
Zn159 Zn 0.02896 0.99732 0.71237 0.0
C160 C 0.98087 1.01116 0.82881 0.0
N161 N 0.05211 0.04726 0.88522 0.0
C162 C 0.07365 0.04879 0.93519 0.0
C163 C 0.03348 0.06683 0.87336 0.0
C164 C 0.03689 0.08933 0.90728 0.0
C165 C 0.0587 0.0918 0.95969 0.0
C166 C 0.07706 0.07083 0.97445 0.0
Zn167 Zn 0.04581 0.01857 0.81107 0.0
O168 O 0.03384 0.97031 0.81342 0.0
C169 C 0.09391 1.00401 0.69677 0.0
O170 O 0.05311 0.98886 0.91048 0.0
H171 H 1.01617 0.06547 0.83466 0.0
H172 H 0.0582 0.95026 0.69265 0.0
H173 H 0.08833 0.03309 0.94392 0.0
O174 O 0.07307 0.99442 0.66839 0.0
O175 O 0.08954 0.01698 0.76105 0.0
H176 H 0.98539 0.98169 0.58402 0.0
O177 O 0.03884 0.04662 0.71011 0.0
O178 O 0.02407 0.0253 0.61085 0.0
O179 O 1.002 0.01956 0.85969 0.0
O180 O 0.98502 1.00046 0.75915 0.0
C181 C 0.03046 0.04598 0.63605 0.0
H182 H 0.05282 0.9111 0.63467 0.0
H183 H 0.9801 0.94289 0.51379 0.0
H184 H 0.02256 0.10467 0.89036 0.0
H185 H 0.0939 0.07127 0.01569 0.0
C186 C 0.48982 1.00677 0.64287 0.0
N187 N 0.53561 0.07138 0.67193 0.0
C188 C 0.53063 0.07836 0.58858 0.0
C189 C 0.53288 0.10338 0.55458 0.0
C190 C 0.54093 0.12137 0.60613 0.0
C191 C 0.54555 0.11379 0.69212 0.0
C192 C 0.54245 0.08868 0.72413 0.0
Zn193 Zn 0.53468 0.03377 0.71758 0.0
C194 C 0.49357 0.02329 0.87034 0.0
N195 N 0.53324 0.95486 0.80426 0.0
C196 C 0.53292 0.93648 0.75007 0.0
C197 C 0.5333 0.94907 0.89093 0.0
C198 C 0.53304 0.92414 0.92618 0.0
C199 C 0.53282 0.90472 0.87202 0.0
C200 C 0.53279 0.91121 0.78267 0.0
Zn201 Zn 0.53388 0.99232 0.75775 0.0
O202 O 0.50052 0.02808 0.64454 0.0
C203 C 0.57504 1.00296 0.60495 0.0
O204 O 0.50064 0.98757 0.68245 0.0
H205 H 0.53373 0.96386 0.93306 0.0
H206 H 0.52554 0.06442 0.54753 0.0
H207 H 0.53282 0.94141 0.68138 0.0
O208 O 0.56569 0.02513 0.61484 0.0
O209 O 0.56452 0.98473 0.65451 0.0
H210 H 0.54612 0.08295 0.79034 0.0
O211 O 0.5678 0.99782 0.83185 0.0
O212 O 0.56818 0.03822 0.79233 0.0
O213 O 0.50259 1.00108 0.85953 0.0
O214 O 0.50434 0.04155 0.82154 0.0
C215 C 0.5787 0.01906 0.83281 0.0
H216 H 0.52948 0.10845 0.48762 0.0
H217 H 0.55176 0.12714 0.73392 0.0
H218 H 0.53358 0.92013 -0.0048 0.0
H219 H 0.53243 0.89694 0.73841 0.0
C220 C 0.55556 0.47891 0.60628 0.0
N221 N 0.47786 0.51446 0.67246 0.0
C222 C 0.47891 0.5176 0.58472 0.0
C223 C 0.45427 0.51952 0.5437 0.0
C224 C 0.42804 0.51783 0.5928 0.0
C225 C 0.42715 0.51387 0.68317 0.0
C226 C 0.45261 0.51239 0.72218 0.0
Zn227 Zn 0.51713 0.51377 0.71782 0.0
C228 C 0.52927 0.47147 0.83797 0.0
N229 N 0.60324 0.51234 0.77283 0.0
C230 C 0.62681 0.52001 0.72154 0.0
C231 C 0.604 0.50678 0.85942 0.0
C232 C 0.62874 0.50935 0.89792 0.0
C233 C 0.65307 0.51815 0.84753 0.0
C234 C 0.65208 0.5232 0.75788 0.0
Zn235 Zn 0.56371 0.51271 0.72917 0.0
O236 O 0.53082 0.48711 0.6296 0.0
C237 C 0.55184 0.55487 0.60791 0.0
O238 O 0.57684 0.48813 0.63365 0.0
H239 H 0.585 0.50146 0.89999 0.0
H240 H 0.49903 0.51886 0.5458 0.0
H241 H 0.62578 0.52459 0.65304 0.0
O242 O 0.52784 0.54503 0.62665 0.0
O243 O 0.57319 0.54472 0.64134 0.0
H244 H 0.4522 0.5098 0.79177 0.0
O245 O 0.54975 0.53686 0.82543 0.0
O246 O 0.50436 0.5399 0.80811 0.0
O247 O 0.5534 0.48059 0.81404 0.0
O248 O 0.50725 0.48265 0.81143 0.0
C249 C 0.52524 0.54614 0.84526 0.0
H250 H 0.45569 0.52237 0.47383 0.0
H251 H 0.40711 0.51247 0.72282 0.0
H252 H 0.62831 0.50578 0.96741 0.0
H253 H 0.67042 0.53004 0.71672 0.0
C254 C 0.07592 0.52499 0.59701 0.0
N255 N 0.03822 0.45697 0.69472 0.0
C256 C 0.03772 0.45487 0.60885 0.0
C257 C 0.03572 0.43153 0.57822 0.0
C258 C 0.03354 0.40989 0.63632 0.0
C259 C 0.03466 0.41249 0.72468 0.0
C260 C 0.03711 0.43631 0.75257 0.0
Zn261 Zn 0.03876 0.49275 0.73192 0.0
C262 C 0.08718 0.50184 0.82562 0.0
N263 N 0.04021 0.56937 0.7869 0.0
C264 C 0.03394 0.58942 0.73138 0.0
C265 C 0.04467 0.5723 0.8699 0.0
C266 C 0.04196 0.59591 0.9008 0.0
C267 C 0.03456 0.61688 0.84598 0.0
C268 C 0.03102 0.61343 0.75967 0.0
Zn269 Zn 0.0402 0.53348 0.75076 0.0
O270 O 0.0675 0.50308 0.62267 0.0
C271 C 0.99153 0.52404 0.65743 0.0
O272 O 0.06599 0.54344 0.63665 0.0
H273 H 0.04945 0.55615 0.91331 0.0
H274 H 0.03835 0.47143 0.56367 0.0
H275 H 0.03048 0.58671 0.66564 0.0
O276 O 1.00308 0.50231 0.66383 0.0
O277 O 1.00287 0.54196 0.68755 0.0
H278 H 0.03747 0.43833 0.82061 0.0
O279 O 1.01483 0.52279 0.8661 0.0
O280 O 1.01071 0.48343 0.84232 0.0
O281 O 0.07747 0.52411 0.81191 0.0
O282 O 0.07417 0.48372 0.80239 0.0
C283 C 1.00476 0.50133 0.88908 0.0
H284 H 0.03562 0.43058 0.5094 0.0
H285 H 0.03279 0.39645 0.77219 0.0
H286 H 0.04446 0.59747 0.96811 0.0
H287 H 0.02562 0.62907 0.71474 0.0
H288 H 0.20213 0.96337 0.48379 0.0
H289 H 0.22362 0.04118 0.45948 0.0
H290 H 0.1824 0.05031 0.56067 0.0
H291 H 0.13704 0.03663 0.64445 0.0
H292 H 0.11476 0.95923 0.65466 0.0
H293 H 0.15914 0.94955 0.57041 0.0
C294 C 0.19786 0.98239 0.50034 0.0
C295 C 0.21579 1.00161 0.46265 0.0
C296 C 0.17371 0.98759 0.55595 0.0
C297 C 0.21028 0.02598 0.48732 0.0
C298 C 0.18653 0.03124 0.54475 0.0
C299 C 0.14228 0.01762 0.62941 0.0
C300 C 0.12271 0.99862 0.6559 0.0
C301 C 0.16765 0.01229 0.57792 0.0
C302 C 0.12947 0.97413 0.63489 0.0
C303 C 0.15483 0.96859 0.58658 0.0
H304 H 0.58839 0.22525 0.43983 0.0
H305 H 0.50441 0.23399 0.35919 0.0
H306 H 0.49159 0.1936 0.43792 0.0
H307 H 0.50569 0.15419 0.52101 0.0
H308 H 0.58918 0.14675 0.60639 0.0
H309 H 0.60083 0.18812 0.53495 0.0
C310 C 0.56715 0.21844 0.44082 0.0
C311 C 0.54736 0.23248 0.39378 0.0
C312 C 0.55998 0.19531 0.48637 0.0
C313 C 0.51989 0.22357 0.39556 0.0
C314 C 0.51267 0.2004 0.43994 0.0
C315 C 0.52632 0.16179 0.52437 0.0
C316 C 0.54663 0.1474 0.5684 0.0
C317 C 0.53273 0.18584 0.48412 0.0
C318 C 0.57319 0.15751 0.57313 0.0
C319 C 0.57989 0.18113 0.53207 0.0
H320 H 0.33302 0.50955 0.34735 0.0
H321 H 0.35174 0.58776 0.28786 0.0
H322 H 0.38338 0.58517 0.40128 0.0
H323 H 0.40925 0.55994 0.50806 0.0
H324 H 0.39061 0.48216 0.57137 0.0
H325 H 0.35479 0.48544 0.46792 0.0
C326 C 0.34359 0.52614 0.36021 0.0
C327 C 0.34044 0.54868 0.30734 0.0
C328 C 0.3617 0.52462 0.42659 0.0
C329 C 0.35439 0.56996 0.32537 0.0
C330 C 0.37235 0.56858 0.39084 0.0
C331 C 0.39675 0.54392 0.50061 0.0
C332 C 0.40227 0.52091 0.54711 0.0
C333 C 0.37668 0.54591 0.44038 0.0
C334 C 0.38633 0.50013 0.53678 0.0
C335 C 0.36612 0.50197 0.47705 0.0
H336 H 0.02131 0.29792 0.54736 0.0
H337 H 0.97083 0.33637 0.35904 0.0
H338 H 0.98108 0.37649 0.40768 0.0
H339 H 1.002 0.40051 0.50785 0.0
H340 H 0.05416 0.36324 0.69395 0.0
H341 H 0.04517 0.32285 0.64316 0.0
C342 C 1.01293 0.31513 0.51629 0.0
C343 C 0.99507 0.3141 0.45025 0.0
C344 C 1.01885 0.33833 0.54493 0.0
C345 C 0.98424 0.33658 0.41092 0.0
C346 C 0.99012 0.35956 0.43859 0.0
C347 C 1.01196 0.3837 0.53648 0.0
C348 C 0.02885 0.38512 0.60465 0.0
C349 C 1.00704 0.36064 0.50626 0.0
C350 C 0.04078 0.36282 0.64215 0.0
C351 C 0.03582 0.33968 0.61267 0.0
H352 H 0.87672 0.01393 0.11232 0.0
H353 H 0.83857 0.97263 0.934 0.0
H354 H 0.88057 0.97844 0.8292 0.0
H355 H 0.9305 0.99162 0.79565 0.0
H356 H 0.96733 0.03344 0.97684 0.0
H357 H 0.92368 0.03127 0.07207 0.0
C358 C 0.8774 1.00675 0.04956 0.0
C359 C 0.85467 0.99298 0.03053 0.0
C360 C 0.90163 1.00998 -0.00956 0.0
C361 C 0.85575 0.98355 0.94947 0.0
C362 C 0.87988 0.98669 0.89 0.0
C363 C 0.92881 1.00057 0.85529 0.0
C364 C 0.95251 0.01235 0.87913 0.0
C365 C 0.90333 0.9993 0.91074 0.0
C366 C 0.94974 0.02397 0.95672 0.0
C367 C 0.92469 0.02277 0.01164 0.0
H368 H 0.53146 0.79939 0.09375 0.0
H369 H 0.59212 0.78146 0.88314 0.0
H370 H 0.58387 0.82263 0.80697 0.0
H371 H 0.56321 0.86526 0.80743 0.0
H372 H 0.50366 0.88392 0.02053 0.0
H373 H 0.50777 0.84125 0.08855 0.0
C374 C 0.54224 0.80435 0.03017 0.0
C375 C 0.56213 0.7874 -0.00648 0.0
C376 C 0.53802 0.82841 -0.01203 0.0
C377 C 0.57651 0.79417 0.91202 0.0
C378 C 0.57196 0.81777 0.86884 0.0
C379 C 0.5507 0.85991 0.86793 0.0
C380 C 0.53336 0.87798 0.90899 0.0
C381 C 0.55333 0.83531 0.90719 0.0
C382 C 0.5176 0.87062 -0.01195 0.0
C383 C 0.51981 0.84613 0.0269 0.0
H384 H 0.74679 0.56618 0.03199 0.0
H385 H 0.74027 0.49573 0.18896 0.0
H386 H 0.7074 0.48119 0.09507 0.0
H387 H 0.67774 0.48982 0.97492 0.0
H388 H 0.68414 0.5604 0.81839 0.0
H389 H 0.72019 0.57339 0.90431 0.0
C390 C 0.73822 0.54761 0.04529 0.0
C391 C 0.74567 0.53214 0.11779 0.0
C392 C 0.71938 0.53939 -0.00902 0.0
C393 C 0.73487 0.50796 0.1335 0.0
C394 C 0.716 0.49969 0.08004 0.0
C395 C 0.68725 0.50795 0.95917 0.0
C396 C 0.67811 0.52418 0.89068 0.0
C397 C 0.70772 0.51542 0.00954 0.0
C398 C 0.69092 0.54746 0.87023 0.0
C399 C 0.71135 0.55501 0.9199 0.0
H400 H 1.01507 0.71108 0.06116 0.0
H401 H 0.94434 0.72254 0.9087 0.0
H402 H 0.96082 0.68734 0.82724 0.0
H403 H 0.99233 0.65073 0.80976 0.0
H404 H 0.06315 0.63871 0.96201 0.0
H405 H 0.04964 0.67658 0.03296 0.0
C406 C 1.00366 0.70618 0.00882 0.0
C407 C 0.97838 0.71925 -0.00849 0.0
C408 C 1.01303 0.68557 0.96302 0.0
C409 C 0.96367 0.71256 0.92394 0.0
C410 C 0.97307 0.69243 0.87737 0.0
C411 C 1.00526 0.65665 0.85694 0.0
C412 C 0.02859 0.64166 0.88088 0.0
C413 C 0.99729 0.67838 0.89788 0.0
C414 C 0.04477 0.64958 0.94329 0.0
C415 C 0.03713 0.67132 0.98374 0.0
H416 H 0.06877 0.14363 0.41583 0.0
H417 H 0.99176 0.17278 0.54676 0.0
H418 H 0.98405 0.13215 0.6276 0.0
H419 H 0.99719 0.08717 0.65269 0.0
H420 H 0.06874 0.05701 0.50023 0.0
H421 H 0.07918 0.09883 0.42985 0.0
C422 C 0.04988 0.14119 0.46053 0.0
C423 C 0.03063 0.16146 0.47294 0.0
C424 C 0.0439 0.11723 0.50001 0.0
C425 C 1.00726 0.1579 0.53555 0.0
C426 C 1.00241 0.13441 0.58066 0.0
C427 C 1.01448 0.08979 0.60195 0.0
C428 C 0.03173 0.0692 0.5792 0.0
C429 C 0.02007 0.11379 0.56125 0.0
C430 C 0.05468 0.07262 0.51596 0.0
C431 C 0.06093 0.09653 0.47722 0.0
H432 H 0.38493 0.98156 0.45431 0.0
H433 H 0.36902 0.06073 0.46223 0.0
H434 H 0.40899 0.06333 0.54799 0.0
H435 H 0.45178 0.04387 0.60398 0.0
H436 H 0.46864 0.96473 0.59145 0.0
H437 H 0.42516 0.96125 0.52302 0.0
C438 C 0.38961 0.99912 0.47815 0.0
C439 C 0.3739 0.02084 0.4542 0.0
C440 C 0.41331 1.00058 0.52368 0.0
C441 C 0.38051 0.04374 0.48228 0.0
C442 C 0.40363 0.04526 0.52976 0.0
C443 C 0.44596 0.02587 0.58613 0.0
C444 C 0.46367 1.00468 0.60106 0.0
C445 C 0.42081 0.02398 0.54775 0.0
C446 C 0.45552 0.98137 0.57954 0.0
C447 C 0.43061 0.97935 0.54089 0.0
H448 H 0.57547 0.39193 0.36084 0.0
H449 H 0.49775 0.36776 0.5058 0.0
H450 H 0.49936 0.40182 0.59873 0.0
H451 H 0.51987 0.44096 0.62674 0.0
H452 H 0.5977 0.46577 0.4832 0.0
H453 H 0.59927 0.42885 0.40091 0.0
C454 C 0.55949 0.39373 0.41482 0.0
C455 C 0.53673 0.37732 0.42793 0.0
C456 C 0.56027 0.41371 0.46624 0.0
C457 C 0.51568 0.37995 0.49621 0.0
C458 C 0.51644 0.39958 0.5483 0.0
C459 C 0.53722 0.43828 0.5774 0.0
C460 C 0.55828 0.4563 0.5591 0.0
C461 C 0.53808 0.41702 0.53182 0.0
C462 C 0.58109 0.45227 0.49726 0.0
C463 C 0.58197 0.43118 0.45054 0.0
H464 H 0.17663 0.55412 0.31399 0.0
H465 H 0.19641 0.4755 0.3633 0.0
H466 H 0.15605 0.47121 0.47393 0.0
H467 H 0.11362 0.48923 0.54803 0.0
H468 H 0.0931 0.56793 0.49972 0.0
H469 H 0.13517 0.57287 0.3956 0.0
C470 C 0.17244 0.53629 0.35114 0.0
C471 C 0.18949 0.51522 0.33275 0.0
C472 C 0.14878 0.5339 0.41245 0.0
C473 C 0.18372 0.49196 0.37854 0.0
C474 C 0.16051 0.48949 0.44061 0.0
C475 C 0.11817 0.50745 0.51422 0.0
C476 C 0.10004 0.52811 0.53015 0.0
C477 C 0.14254 0.5102 0.45636 0.0
C478 C 0.1066 0.55171 0.48752 0.0
C479 C 0.1307 0.55455 0.42858 0.0
H480 H 0.05107 0.8681 0.12668 0.0
H481 H 0.99253 0.84722 0.95328 0.0
H482 H 1.00038 0.88651 0.86496 0.0
H483 H 1.01741 0.92862 0.84941 0.0
H484 H 0.07071 0.95301 0.03129 0.0
H485 H 0.06968 0.91076 0.10792 0.0
C486 C 0.03985 0.8721 0.06978 0.0
C487 C 0.02057 0.85471 0.04847 0.0
C488 C 0.04263 0.89568 0.02295 0.0
C489 C 1.0075 0.85989 0.97188 0.0
C490 C 1.01156 0.88266 0.92201 0.0
C491 C 0.02905 0.92491 0.90564 0.0
C492 C 0.04398 0.94413 0.93509 0.0
C493 C 0.028 0.901 0.94925 0.0
C494 C 0.05881 0.9387 0.00796 0.0
C495 C 0.05836 0.91452 0.05116 0.0
H496 H 0.68033 0.04309 0.03611 0.0
H497 H 0.70278 0.96631 -0.00298 0.0
H498 H 0.66362 0.96452 0.90755 0.0
H499 H 0.61929 0.9832 0.85824 0.0
H500 H 0.59673 0.06 0.89909 0.0
H501 H 0.63943 0.06337 0.97161 0.0
C502 C 0.67714 0.02627 0.00535 0.0
C503 C 0.69426 1.00487 0.02259 0.0
C504 C 0.65406 0.02517 0.9571 0.0
C505 C 0.69002 0.98307 0.98341 0.0
C506 C 0.66735 0.98194 0.93371 0.0
C507 C 0.62376 1.00064 0.88317 0.0
C508 C 0.60463 0.02115 0.87545 0.0
C509 C 0.64854 1.00255 0.9234 0.0
C510 C 0.61099 0.04388 0.90556 0.0
C511 C 0.63543 0.04584 0.94655 0.0
H512 H 0.54296 0.61696 0.12724 0.0
H513 H 0.49636 0.66941 0.96548 0.0
H514 H 0.49015 0.63643 0.87017 0.0
H515 H 0.49917 0.59237 0.83281 0.0
H516 H 0.54686 0.54163 -0.00248 0.0
H517 H 0.55046 0.57406 0.09437 0.0
C518 C 0.53104 0.62118 0.07179 0.0
C519 C 0.5197 0.64545 0.0541 0.0
C520 C 0.52739 0.60228 0.01892 0.0
C521 C 0.5052 0.65082 0.98042 0.0
C522 C 0.5015 0.63193 0.92652 0.0
C523 C 0.50967 0.5884 0.89117 0.0
C524 C 0.52236 0.56462 0.90927 0.0
C525 C 0.51245 0.60751 0.9454 0.0
C526 C 0.53669 0.55974 0.98331 0.0
C527 C 0.53896 0.5783 0.03814 0.0
H528 H 0.92766 0.51408 0.22906 0.0
H529 H 0.86933 0.4748 0.10022 0.0
H530 H 0.90643 0.46884 0.98171 0.0
H531 H 0.95475 0.47764 0.91127 0.0
H532 H 1.01082 0.5193 0.04037 0.0
H533 H 0.97551 0.52071 0.16466 0.0
C534 C 0.92317 0.50363 0.17618 0.0
C535 C 0.89597 0.49455 0.17379 0.0
C536 C 0.94426 0.50063 0.10889 0.0
C537 C 0.8902 0.48189 0.10331 0.0
C538 C 0.91139 0.47845 0.03593 0.0
C539 C 0.9593 0.48646 0.96771 0.0
C540 C 0.98523 0.4982 0.96774 0.0
C541 C 0.93842 0.48805 0.03758 0.0
C542 C 0.99094 0.51011 0.03975 0.0
C543 C 0.97076 0.51102 0.11036 0.0
H544 H 0.08514 0.1814 0.17044 0.0
H545 H 0.99652 0.19737 0.14988 0.0
H546 H 0.99573 0.16548 0.04921 0.0
H547 H 1.01717 0.12735 -0.00206 0.0
H548 H 0.10662 0.11151 0.01152 0.0
H549 H 0.1096 0.14836 0.08904 0.0
C550 C 0.06606 0.17872 0.14024 0.0
C551 C 0.04084 0.19148 0.16808 0.0
C552 C 0.06546 0.15945 0.08577 0.0
C553 C 1.0162 0.1879 0.12909 0.0
C554 C 1.01561 0.16921 0.07315 0.0
C555 C 0.03777 0.13212 0.01401 0.0
C556 C 0.06151 0.11587 -0.00065 0.0
C557 C 0.03967 0.15388 0.05566 0.0
C558 C 0.08759 0.12277 0.02422 0.0
C559 C 0.08949 0.14419 0.06749 0.0
H560 H 0.39821 0.05606 0.15254 0.0
H561 H 0.36608 0.98447 0.1129 0.0
H562 H 0.40471 0.97875 -8e-05 0.0
H563 H 0.4501 0.99236 0.92217 0.0
H564 H 0.48174 0.06437 0.95915 0.0
H565 H 0.44117 0.0715 0.06468 0.0
C566 C 0.3994 0.03944 0.11788 0.0
C567 C 0.37933 0.02069 0.14121 0.0
C568 C 0.42198 0.03608 0.05424 0.0
C569 C 0.38102 0.99931 0.09553 0.0
C570 C 0.40336 0.99587 0.03182 0.0
C571 C 0.44814 1.00957 0.95367 0.0
C572 C 0.46917 0.0276 0.93445 0.0
C573 C 0.42442 0.01378 0.01255 0.0
C574 C 0.46598 0.05011 0.97376 0.0
C575 C 0.44275 0.05422 0.03376 0.0
H576 H 0.55262 0.37133 0.06469 0.0
H577 H 0.47003 0.38938 0.18641 0.0
H578 H 0.46427 0.4239 0.0745 0.0
H579 H 0.48589 0.4526 0.95352 0.0
H580 H 0.57038 0.4356 0.84163 0.0
H581 H 0.57221 0.39727 0.93714 0.0
C582 C 0.53298 0.38228 0.06472 0.0
C583 C 0.51167 0.37774 0.13276 0.0
C584 C 0.53045 0.40277 0.00285 0.0
C585 C 0.48658 0.39245 0.13376 0.0
C586 C 0.48344 0.41234 0.0704 0.0
C587 C 0.50447 0.44028 0.9495 0.0
C588 C 0.52811 0.44719 0.8916 0.0
C589 C 0.50572 0.41832 0.00646 0.0
C590 C 0.55207 0.43101 0.88685 0.0
C591 C 0.55314 0.40896 0.94119 0.0
H592 H 0.18424 0.47372 0.06431 0.0
H593 H 0.21046 0.54755 0.96171 0.0
H594 H 0.17418 0.54976 0.86115 0.0
H595 H 0.13024 0.5336 0.82039 0.0
H596 H 0.10332 0.46003 0.92414 0.0
H597 H 0.14447 0.45484 0.00701 0.0
C598 C 0.1825 0.48996 0.01804 0.0
C599 C 0.19977 0.51055 0.02089 0.0
C600 C 0.16097 0.49142 0.96257 0.0
C601 C 0.19754 0.53142 0.96038 0.0
C602 C 0.17649 0.53285 0.90385 0.0
C603 C 0.13355 0.51634 0.8606 0.0
C604 C 0.1135 0.49744 0.86793 0.0
C605 C 0.15727 0.51347 0.90744 0.0
C606 C 0.11834 0.47493 0.91834 0.0
C607 C 0.14184 0.47197 0.96563 0.0
H608 H 0.03462 0.82855 0.36172 0.0
H609 H 0.9445 0.83738 0.35858 0.0
H610 H 0.94314 0.86876 0.46332 0.0
H611 H 0.96925 0.89941 0.5318 0.0
H612 H 0.0607 0.89451 0.50665 0.0
H613 H 0.05996 0.85636 0.43723 0.0
C614 C 1.01456 0.83657 0.38731 0.0
C615 C 0.98976 0.83081 0.35309 0.0
C616 C 1.0144 0.85615 0.44012 0.0
C617 C 0.96382 0.84139 0.38514 0.0
C618 C 0.96319 0.85978 0.44325 0.0
C619 C 0.98899 0.89001 0.51113 0.0
C620 C 1.01493 0.89996 0.52564 0.0
C621 C 0.98861 0.8684 0.46685 0.0
C622 C 0.04029 0.88721 0.49891 0.0
C623 C 0.03999 0.86532 0.45846 0.0
H624 H 0.67196 0.96867 0.33006 0.0
H625 H 0.70152 0.04214 0.35516 0.0
H626 H 0.66225 0.04881 0.46616 0.0
H627 H 0.61731 0.03485 0.54686 0.0
H628 H 0.58837 0.96088 0.52308 0.0
H629 H 0.62938 0.95328 0.41997 0.0
C630 C 0.6702 0.9858 0.36204 0.0
C631 C 0.68974 1.00475 0.33612 0.0
C632 C 0.64729 0.98961 0.42409 0.0
C633 C 0.68704 0.02714 0.37589 0.0
C634 C 0.66437 0.03105 0.43823 0.0
C635 C 0.61994 0.01712 0.51871 0.0
C636 C 0.59955 0.99861 0.54117 0.0
C637 C 0.64394 0.01267 0.46106 0.0
C638 C 0.6036 0.97549 0.50603 0.0
C639 C 0.6271 0.97111 0.44742 0.0
H640 H 0.57625 0.64625 0.32758 0.0
H641 H 0.4869 0.65913 0.39003 0.0
H642 H 0.48628 0.62528 0.50668 0.0
H643 H 0.50975 0.5886 0.57641 0.0
H644 H 0.59895 0.57447 0.51242 0.0
H645 H 0.60115 0.61218 0.41047 0.0
C646 C 0.55696 0.64225 0.36931 0.0
C647 C 0.53173 0.65535 0.35165 0.0
C648 C 0.55661 0.62208 0.43389 0.0
C649 C 0.50662 0.64959 0.40396 0.0
C650 C 0.50621 0.63 0.46959 0.0
C651 C 0.52974 0.59382 0.54047 0.0
C652 C 0.55405 0.57848 0.55056 0.0
C653 C 0.53082 0.6155 0.48265 0.0
C654 C 0.57989 0.58582 0.50507 0.0
C655 C 0.58115 0.60739 0.44694 0.0
H656 H 0.88986 0.55035 0.43415 0.0
H657 H 0.87051 0.47398 0.52329 0.0
H658 H 0.90784 0.47233 0.62043 0.0
H659 H 0.95087 0.49023 0.65997 0.0
H660 H 0.97144 0.56634 0.56898 0.0
H661 H 0.92884 0.5706 0.49205 0.0
C662 C 0.89301 0.53381 0.47806 0.0
C663 C 0.87731 0.51241 0.47288 0.0
C664 C 0.91536 0.53271 0.53076 0.0
C665 C 0.88201 0.49077 0.52784 0.0
C666 C 0.90368 0.48971 0.58204 0.0
C667 C 0.94587 0.50783 0.62385 0.0
C668 C 0.96455 0.52776 0.61818 0.0
C669 C 0.92135 0.51014 0.58063 0.0
C670 C 0.95752 0.55066 0.57323 0.0
C671 C 0.93317 0.55309 0.52944 0.0
loop_
_geom_bond_atom_site_label_1
_geom_bond_atom_site_label_2
_geom_bond_distance
_geom_bond_site_symmetry_2
_ccdc_geom_bond_type
H0 C1 0.949 . S
C1 H0 0.949 . S
C1 C2 1.395 . S
C1 C3 1.391 . S
C2 C1 1.395 . S
C2 C5 1.390 . S
C3 C1 1.391 . S
C3 C7 1.387 . S
C3 C8 1.491 . S
H4 C5 0.950 . S
C5 C2 1.390 . S
C5 H4 0.950 . S
C5 C6 1.378 . S
C6 C5 1.378 . S
C6 C7 1.409 . S
C7 C3 1.387 . S
C7 C6 1.409 . S
C7 H9 0.951 . S
C8 C3 1.491 . S
C8 C10 1.382 . S
C8 C12 1.404 . S
H9 C7 0.951 . S
C10 C8 1.382 . S
C10 C11 1.390 . S
C10 H15 0.949 . S
C11 C10 1.390 . S
C11 C16 1.399 . S
C12 C8 1.404 . S
C12 H13 0.950 . S
C12 C14 1.375 . S
H13 C12 0.950 . S
C14 C12 1.375 . S
C14 C16 1.382 . S
C14 H18 0.950 . S
H15 C10 0.949 . S
C16 C11 1.399 . S
C16 C14 1.382 . S
C16 H17 0.952 . S
H17 C16 0.952 . S
H18 C14 0.950 . S
H19 C20 0.949 . S
C20 H19 0.949 . S
C20 C21 1.395 . S
C20 C22 1.391 1_556 S
C21 C20 1.395 . S
C21 C24 1.390 1_556 S
C22 C20 1.391 1_554 S
C22 C26 1.387 . S
C22 C27 1.491 . S
H23 C24 0.950 . S
C24 C21 1.390 1_554 S
C24 H23 0.950 . S
C24 C25 1.378 . S
C25 C24 1.378 . S
C25 C26 1.409 . S
C26 C22 1.387 . S
C26 C25 1.409 . S
C26 H28 0.951 . S
C27 C22 1.491 . S
C27 C29 1.382 1_554 S
C27 C31 1.404 . S
H28 C26 0.951 . S
C29 C27 1.382 1_556 S
C29 C30 1.390 . S
C29 H34 0.949 1_655 S
C30 C29 1.390 . S
C30 C35 1.399 1_556 S
C31 C27 1.404 . S
C31 H32 0.950 . S
C31 C33 1.375 . S
H32 C31 0.950 . S
C33 C31 1.375 . S
C33 C35 1.382 . S
C33 H37 0.950 . S
H34 C29 0.949 1_455 S
C35 C30 1.399 1_554 S
C35 C33 1.382 . S
C35 H36 0.952 . S
H36 C35 0.952 . S
H37 C33 0.950 . S
H38 C39 0.949 . S
C39 H38 0.949 . S
C39 C40 1.395 . S
C39 C41 1.391 . S
C40 C39 1.395 . S
C40 C43 1.390 . S
C41 C39 1.391 . S
C41 C45 1.387 . S
C41 C46 1.491 . S
H42 C43 0.950 . S
C43 C40 1.390 . S
C43 H42 0.950 . S
C43 C44 1.378 . S
C44 C43 1.378 . S
C44 C45 1.409 . S
C45 C41 1.387 . S
C45 C44 1.409 . S
C45 H47 0.951 . S
C46 C41 1.491 . S
C46 C48 1.382 . S
C46 C50 1.404 . S
H47 C45 0.951 . S
C48 C46 1.382 . S
C48 C49 1.390 . S
C48 H53 0.939 1_565 S
C49 C48 1.390 . S
C49 C54 1.399 . S
C50 C46 1.404 . S
C50 H51 0.950 . S
C50 C52 1.375 . S
H51 C50 0.950 . S
C52 C50 1.375 . S
C52 C54 1.382 . S
C52 H56 0.950 . S
H53 C48 0.939 1_545 S
C54 C49 1.399 . S
C54 C52 1.382 . S
C54 H55 0.952 . S
H55 C54 0.952 . S
H56 C52 0.950 . S
H57 C58 0.949 . S
C58 H57 0.949 . S
C58 C59 1.395 . S
C58 C60 1.391 . S
C59 C58 1.395 . S
C59 C62 1.390 . S
C60 C58 1.391 . S
C60 C64 1.387 . S
C60 C65 1.491 . S
H61 C62 0.950 . S
C62 C59 1.390 . S
C62 H61 0.950 . S
C62 C63 1.378 . S
C63 C62 1.378 . S
C63 C64 1.409 . S
C64 C60 1.387 . S
C64 C63 1.409 . S
C64 H66 0.951 . S
C65 C60 1.491 . S
C65 C67 1.382 . S
C65 C69 1.404 . S
H66 C64 0.951 . S
C67 C65 1.382 . S
C67 C68 1.390 . S
C67 H72 0.949 . S
C68 C67 1.390 . S
C68 C73 1.399 . S
C69 C65 1.404 . S
C69 H70 0.950 . S
C69 C71 1.375 . S
H70 C69 0.950 . S
C71 C69 1.375 . S
C71 C73 1.382 . S
C71 H75 0.950 . S
H72 C67 0.949 . S
C73 C68 1.399 . S
C73 C71 1.382 . S
C73 H74 0.952 . S
H74 C73 0.952 . S
H75 C71 0.950 . S
H76 C77 0.949 . S
C77 H76 0.949 . S
C77 C78 1.395 . S
C77 C79 1.391 . S
C78 C77 1.395 . S
C78 C81 1.390 . S
C79 C77 1.391 . S
C79 C83 1.387 . S
C79 C84 1.491 . S
H80 C81 0.950 . S
C81 C78 1.390 . S
C81 H80 0.950 . S
C81 C82 1.378 . S
C82 C81 1.378 . S
C82 C83 1.409 . S
C83 C79 1.387 . S
C83 C82 1.409 . S
C83 H85 0.951 . S
C84 C79 1.491 . S
C84 C86 1.382 . S
C84 C88 1.404 . S
H85 C83 0.951 . S
C86 C84 1.382 . S
C86 C87 1.390 . S
C86 H91 0.949 . S
C87 C86 1.390 . S
C87 C92 1.399 . S
C88 C84 1.404 . S
C88 H89 0.950 . S
C88 C90 1.375 . S
H89 C88 0.950 . S
C90 C88 1.375 . S
C90 C92 1.382 . S
C90 H94 0.950 . S
H91 C86 0.949 . S
C92 C87 1.399 . S
C92 C90 1.382 . S
C92 H93 0.952 . S
H93 C92 0.952 . S
H94 C90 0.950 . S
H95 C96 0.949 . S
C96 H95 0.949 . S
C96 C97 1.395 . S
C96 C98 1.391 . S
C97 C96 1.395 . S
C97 C100 1.390 . S
C98 C96 1.391 . S
C98 C102 1.387 . S
C98 C103 1.491 . S
H99 C100 0.950 . S
C100 C97 1.390 . S
C100 H99 0.950 . S
C100 C101 1.378 . S
C101 C100 1.378 . S
C101 C102 1.409 . S
C102 C98 1.387 . S
C102 C101 1.409 . S
C102 H104 0.951 . S
C103 C98 1.491 . S
C103 C105 1.382 . S
C103 C107 1.404 . S
H104 C102 0.951 . S
C105 C103 1.382 . S
C105 C106 1.390 . S
C105 H110 0.949 . S
C106 C105 1.390 . S
C106 C111 1.399 . S
C107 C103 1.404 . S
C107 H108 0.950 1_455 S
C107 C109 1.375 1_455 S
H108 C107 0.950 1_655 S
C109 C107 1.375 1_655 S
C109 C111 1.382 1_655 S
C109 H113 0.950 . S
H110 C105 0.949 . S
C111 C106 1.399 . S
C111 C109 1.382 1_455 S
C111 H112 0.952 . S
H112 C111 0.952 . S
H113 C109 0.950 . S
H114 C115 0.949 . S
C115 H114 0.949 . S
C115 C116 1.395 . S
C115 C117 1.391 . S
C116 C115 1.395 . S
C116 C119 1.390 . S
C117 C115 1.391 . S
C117 C121 1.387 . S
C117 C122 1.491 1_545 S
H118 C119 0.950 . S
C119 C116 1.390 . S
C119 H118 0.950 . S
C119 C120 1.378 . S
C120 C119 1.378 . S
C120 C121 1.409 . S
C121 C117 1.387 . S
C121 C120 1.409 . S
C121 H123 0.951 . S
C122 C117 1.491 1_565 S
C122 C124 1.382 1_565 S
C122 C126 1.404 . S
H123 C121 0.951 . S
C124 C122 1.382 1_545 S
C124 C125 1.390 . S
C124 H129 0.949 . S
C125 C124 1.390 . S
C125 C130 1.399 1_545 S
C126 C122 1.404 . S
C126 H127 0.950 . S
C126 C128 1.375 . S
H127 C126 0.950 . S
C128 C126 1.375 . S
C128 C130 1.382 . S
C128 H132 0.950 . S
H129 C124 0.949 . S
C130 C125 1.399 1_565 S
C130 C128 1.382 . S
C130 H131 0.952 . S
H131 C130 0.952 . S
H132 C128 0.950 . S
H133 C134 0.949 . S
C134 H133 0.949 . S
C134 C135 1.395 . S
C134 C136 1.391 . S
C135 C134 1.395 . S
C135 C138 1.390 . S
C136 C134 1.391 . S
C136 C140 1.387 . S
C136 C141 1.491 . S
H137 C138 0.950 . S
C138 C135 1.390 . S
C138 H137 0.950 . S
C138 C139 1.378 . S
C139 C138 1.378 . S
C139 C140 1.409 . S
C140 C136 1.387 . S
C140 C139 1.409 . S
C140 H142 0.951 . S
C141 C136 1.491 . S
C141 C143 1.382 . S
C141 C145 1.404 . S
H142 C140 0.951 . S
C143 C141 1.382 . S
C143 C144 1.390 . S
C143 H148 0.949 . S
C144 C143 1.390 . S
C144 C149 1.399 . S
C145 C141 1.404 . S
C145 H146 0.950 . S
C145 C147 1.375 . S
H146 C145 0.950 . S
C147 C145 1.375 . S
C147 C149 1.382 . S
C147 H151 0.950 . S
H148 C143 0.949 . S
C149 C144 1.399 . S
C149 C147 1.382 . S
C149 H150 0.952 . S
H150 C149 0.952 . S
H151 C147 0.950 . S
C152 O168 1.251 . S
C152 O170 1.254 . S
N153 C154 1.333 . S
N153 C158 1.307 1_455 S
N153 Zn159 2.020 . S
C154 N153 1.333 . S
C154 C155 1.379 . S
C154 H172 0.952 . S
C155 C154 1.379 . S
C155 C156 1.390 1_455 S
C155 H182 0.949 . S
C156 C155 1.390 1_655 S
C156 C157 1.357 . S
C157 C156 1.357 . S
C157 C158 1.370 . S
C157 H183 0.950 . S
C158 N153 1.307 1_655 S
C158 C157 1.370 . S
C158 H176 0.948 . S
Zn159 N153 2.020 . S
Zn159 O168 2.039 . S
Zn159 O174 2.034 . S
Zn159 O178 2.025 1_565 S
Zn159 O180 2.024 1_455 S
C160 O179 1.246 . S
C160 O180 1.249 1_545 S
N161 C162 1.307 1_556 S
N161 C163 1.333 . S
N161 Zn167 2.020 . S
C162 N161 1.307 1_554 S
C162 C166 1.370 . S
C162 H173 0.948 . S
C163 N161 1.333 . S
C163 C164 1.379 1_556 S
C163 H171 0.952 . S
C164 C163 1.379 1_554 S
C164 C165 1.390 . S
C164 H184 0.949 . S
C165 C164 1.390 . S
C165 C166 1.357 . S
C166 C162 1.370 . S
C166 C165 1.357 . S
C166 H185 0.950 . S
Zn167 N161 2.020 . S
Zn167 O170 2.025 1_545 S
Zn167 O175 2.024 . S
Zn167 O177 2.039 . S
Zn167 O179 2.034 1_455 S
O168 C152 1.251 . S
O168 Zn159 2.039 . S
C169 O174 1.262 . S
C169 O175 1.235 1_565 S
O170 C152 1.254 . S
O170 Zn167 2.025 1_565 S
H171 C163 0.952 . S
H172 C154 0.952 . S
H173 C162 0.948 . S
O174 Zn159 2.034 . S
O174 C169 1.262 . S
O175 Zn167 2.024 . S
O175 C169 1.235 1_545 S
H176 C158 0.948 . S
O177 Zn167 2.039 . S
O177 C181 1.251 . S
O178 Zn159 2.025 1_545 S
O178 C181 1.254 . S
O179 C160 1.246 . S
O179 Zn167 2.034 1_655 S
O180 Zn159 2.024 1_655 S
O180 C160 1.249 1_565 S
C181 O177 1.251 . S
C181 O178 1.254 . S
H182 C155 0.949 . S
H183 C157 0.950 . S
H184 C164 0.949 . S
H185 C166 0.950 . S
C186 O202 1.242 1_565 S
C186 O204 1.262 . S
N187 C188 1.333 . S
N187 C192 1.307 . S
N187 Zn193 2.020 . S
C188 N187 1.333 . S
C188 C189 1.379 . S
C188 H206 0.952 . S
C189 C188 1.379 . S
C189 C190 1.390 . S
C189 H216 0.949 . S
C190 C189 1.390 . S
C190 C191 1.357 . S
C191 C190 1.357 . S
C191 C192 1.370 . S
C191 H217 0.950 . S
C192 N187 1.307 . S
C192 C191 1.370 . S
C192 H210 0.948 . S
Zn193 N187 2.020 . S
Zn193 O202 2.039 . S
Zn193 O208 2.034 . S
Zn193 O212 2.025 . S
Zn193 O214 2.024 . S
C194 O213 1.246 1_545 S
C194 O214 1.249 . S
N195 C196 1.307 . S
N195 C197 1.333 . S
N195 Zn201 2.020 . S
C196 N195 1.307 . S
C196 C200 1.370 . S
C196 H207 0.948 . S
C197 N195 1.333 . S
C197 C198 1.379 . S
C197 H205 0.952 . S
C198 C197 1.379 . S
C198 C199 1.390 . S
C198 H218 0.949 . S
C199 C198 1.390 . S
C199 C200 1.357 . S
C200 C196 1.370 . S
C200 C199 1.357 . S
C200 H219 0.950 . S
Zn201 N195 2.020 . S
Zn201 O204 2.025 . S
Zn201 O209 2.024 . S
Zn201 O211 2.039 . S
Zn201 O213 2.034 . S
O202 C186 1.242 1_545 S
O202 Zn193 2.039 . S
C203 O208 1.246 1_565 S
C203 O209 1.249 . S
O204 C186 1.262 . S
O204 Zn201 2.025 . S
H205 C197 0.952 . S
H206 C188 0.952 . S
H207 C196 0.948 . S
O208 Zn193 2.034 . S
O208 C203 1.246 1_545 S
O209 Zn201 2.024 . S
O209 C203 1.249 . S
H210 C192 0.948 . S
O211 Zn201 2.039 . S
O211 C215 1.251 1_565 S
O212 Zn193 2.025 . S
O212 C215 1.254 . S
O213 C194 1.246 1_565 S
O213 Zn201 2.034 . S
O214 Zn193 2.024 . S
O214 C194 1.249 . S
C215 O211 1.251 1_545 S
C215 O212 1.254 . S
H216 C189 0.949 . S
H217 C191 0.950 . S
H218 C198 0.949 . S
H219 C200 0.950 . S
C220 O236 1.251 . S
C220 O238 1.254 . S
N221 C222 1.333 . S
N221 C226 1.307 . S
N221 Zn227 2.020 . S
C222 N221 1.333 . S
C222 C223 1.379 . S
C222 H240 0.952 . S
C223 C222 1.379 . S
C223 C224 1.390 . S
C223 H250 0.949 . S
C224 C223 1.390 . S
C224 C225 1.357 . S
C225 C224 1.357 . S
C225 C226 1.370 . S
C225 H251 0.950 . S
C226 N221 1.307 . S
C226 C225 1.370 . S
C226 H244 0.948 . S
Zn227 N221 2.020 . S
Zn227 O236 2.039 . S
Zn227 O242 2.034 . S
Zn227 O246 2.025 . S
Zn227 O248 2.024 . S
C228 O247 1.246 . S
C228 O248 1.249 . S
N229 C230 1.307 . S
N229 C231 1.333 . S
N229 Zn235 2.020 . S
C230 N229 1.307 . S
C230 C234 1.370 . S
C230 H241 0.948 . S
C231 N229 1.333 . S
C231 C232 1.379 . S
C231 H239 0.952 . S
C232 C231 1.379 . S
C232 C233 1.390 . S
C232 H252 0.949 . S
C233 C232 1.390 . S
C233 C234 1.357 . S
C234 C230 1.370 . S
C234 C233 1.357 . S
C234 H253 0.950 . S
Zn235 N229 2.020 . S
Zn235 O238 2.025 . S
Zn235 O243 2.024 . S
Zn235 O245 2.039 . S
Zn235 O247 2.034 . S
O236 C220 1.251 . S
O236 Zn227 2.039 . S
C237 O242 1.246 . S
C237 O243 1.249 . S
O238 C220 1.254 . S
O238 Zn235 2.025 . S
H239 C231 0.952 . S
H240 C222 0.952 . S
H241 C230 0.948 . S
O242 Zn227 2.034 . S
O242 C237 1.246 . S
O243 Zn235 2.024 . S
O243 C237 1.249 . S
H244 C226 0.948 . S
O245 Zn235 2.039 . S
O245 C249 1.251 . S
O246 Zn227 2.025 . S
O246 C249 1.254 . S
O247 C228 1.246 . S
O247 Zn235 2.034 . S
O248 Zn227 2.024 . S
O248 C228 1.249 . S
C249 O245 1.251 . S
C249 O246 1.254 . S
H250 C223 0.949 . S
H251 C225 0.950 . S
H252 C232 0.949 . S
H253 C234 0.950 . S
C254 O270 1.251 . S
C254 O272 1.254 . S
N255 C256 1.333 . S
N255 C260 1.307 . S
N255 Zn261 2.020 . S
C256 N255 1.333 . S
C256 C257 1.379 . S
C256 H274 0.952 . S
C257 C256 1.379 . S
C257 C258 1.390 . S
C257 H284 0.949 . S
C258 C257 1.390 . S
C258 C259 1.357 . S
C259 C258 1.357 . S
C259 C260 1.370 . S
C259 H285 0.950 1_455 S
C260 N255 1.307 . S
C260 C259 1.370 . S
C260 H278 0.948 1_455 S
Zn261 N255 2.020 . S
Zn261 O270 2.039 . S
Zn261 O276 2.034 1_455 S
Zn261 O280 2.025 1_455 S
Zn261 O282 2.024 . S
C262 O281 1.246 . S
C262 O282 1.249 . S
N263 C264 1.307 . S
N263 C265 1.333 . S
N263 Zn269 2.020 . S
C264 N263 1.307 . S
C264 C268 1.370 . S
C264 H275 0.948 . S
C265 N263 1.333 . S
C265 C266 1.379 . S
C265 H273 0.952 1_455 S
C266 C265 1.379 . S
C266 C267 1.390 . S
C266 H286 0.949 1_455 S
C267 C266 1.390 . S
C267 C268 1.357 . S
C268 C264 1.370 . S
C268 C267 1.357 . S
C268 H287 0.950 . S
Zn269 N263 2.020 . S
Zn269 O272 2.025 . S
Zn269 O277 2.024 1_455 S
Zn269 O279 2.039 1_455 S
Zn269 O281 2.034 . S
O270 C254 1.251 . S
O270 Zn261 2.039 . S
C271 O276 1.246 . S
C271 O277 1.249 . S
O272 C254 1.254 . S
O272 Zn269 2.025 . S
H273 C265 0.952 1_655 S
H274 C256 0.952 . S
H275 C264 0.948 . S
O276 Zn261 2.034 1_655 S
O276 C271 1.246 . S
O277 Zn269 2.024 1_655 S
O277 C271 1.249 . S
H278 C260 0.948 1_655 S
O279 Zn269 2.039 1_655 S
O279 C283 1.251 . S
O280 Zn261 2.025 1_655 S
O280 C283 1.254 . S
O281 C262 1.246 . S
O281 Zn269 2.034 . S
O282 Zn261 2.024 . S
O282 C262 1.249 . S
C283 O279 1.251 . S
C283 O280 1.254 . S
H284 C257 0.949 . S
H285 C259 0.950 1_655 S
H286 C266 0.949 1_655 S
H287 C268 0.950 . S
H288 C294 0.930 . S
H289 C297 0.930 . S
H290 C298 0.930 . S
H291 C299 0.930 . S
H292 C302 0.930 . S
H293 C303 0.930 . S
C294 H288 0.930 . S
C294 C295 1.355 1_565 S
C294 C296 1.415 . S
C295 C294 1.355 1_545 S
C295 C297 1.419 . S
C296 C294 1.415 . S
C296 C301 1.425 1_565 S
C296 C303 1.409 . S
C297 H289 0.930 . S
C297 C295 1.419 . S
C297 C298 1.362 . S
C298 H290 0.930 . S
C298 C297 1.362 . S
C298 C301 1.409 . S
C299 H291 0.930 . S
C299 C300 1.342 1_545 S
C299 C301 1.415 . S
C300 C299 1.342 1_565 S
C300 C302 1.434 . S
C301 C296 1.425 1_545 S
C301 C298 1.409 . S
C301 C299 1.415 . S
C302 H292 0.930 . S
C302 C300 1.434 . S
C302 C303 1.362 . S
C303 H293 0.930 . S
C303 C296 1.409 . S
C303 C302 1.362 . S
H304 C310 0.930 . S
H305 C313 0.930 . S
H306 C314 0.930 . S
H307 C315 0.930 . S
H308 C318 0.930 . S
H309 C319 0.930 . S
C310 H304 0.930 . S
C310 C311 1.355 . S
C310 C312 1.415 . S
C311 C310 1.355 . S
C311 C313 1.419 . S
C312 C310 1.415 . S
C312 C317 1.425 . S
C312 C319 1.409 . S
C313 H305 0.930 . S
C313 C311 1.419 . S
C313 C314 1.362 . S
C314 H306 0.930 . S
C314 C313 1.362 . S
C314 C317 1.409 . S
C315 H307 0.930 . S
C315 C316 1.355 . S
C315 C317 1.415 . S
C316 C315 1.355 . S
C316 C318 1.419 . S
C317 C312 1.425 . S
C317 C314 1.409 . S
C317 C315 1.415 . S
C318 H308 0.930 . S
C318 C316 1.419 . S
C318 C319 1.362 . S
C319 H309 0.930 . S
C319 C312 1.409 . S
C319 C318 1.362 . S
H320 C326 0.930 . S
H321 C329 0.930 . S
H322 C330 0.930 . S
H323 C331 0.930 . S
H324 C334 0.930 . S
H325 C335 0.930 . S
C326 H320 0.930 . S
C326 C327 1.355 . S
C326 C328 1.415 . S
C327 C326 1.355 . S
C327 C329 1.419 . S
C328 C326 1.415 . S
C328 C333 1.425 . S
C328 C335 1.409 . S
C329 H321 0.930 . S
C329 C327 1.419 . S
C329 C330 1.362 . S
C330 H322 0.930 . S
C330 C329 1.362 . S
C330 C333 1.409 . S
C331 H323 0.930 . S
C331 C332 1.355 . S
C331 C333 1.415 . S
C332 C331 1.355 . S
C332 C334 1.419 . S
C333 C328 1.425 . S
C333 C330 1.409 . S
C333 C331 1.415 . S
C334 H324 0.930 . S
C334 C332 1.419 . S
C334 C335 1.362 . S
C335 H325 0.930 . S
C335 C328 1.409 . S
C335 C334 1.362 . S
H336 C342 0.930 . S
H337 C345 0.930 . S
H338 C346 0.930 1_655 S
H339 C347 0.930 . S
H340 C350 0.930 . S
H341 C351 0.930 . S
C342 H336 0.930 . S
C342 C343 1.355 . S
C342 C344 1.415 . S
C343 C342 1.355 . S
C343 C345 1.419 . S
C344 C342 1.415 . S
C344 C349 1.425 . S
C344 C351 1.409 . S
C345 H337 0.930 . S
C345 C343 1.419 . S
C345 C346 1.362 . S
C346 H338 0.930 1_455 S
C346 C345 1.362 . S
C346 C349 1.409 . S
C347 H339 0.930 . S
C347 C348 1.355 . S
C347 C349 1.415 . S
C348 C347 1.355 . S
C348 C350 1.419 . S
C349 C344 1.425 . S
C349 C346 1.409 . S
C349 C347 1.415 . S
C350 H340 0.930 . S
C350 C348 1.419 . S
C350 C351 1.362 . S
C351 H341 0.930 . S
C351 C344 1.409 . S
C351 C350 1.362 . S
H352 C358 0.930 1_554 S
H353 C361 0.930 . S
H354 C362 0.930 . S
H355 C363 0.930 . S
H356 C366 0.930 . S
H357 C367 0.930 1_554 S
C358 H352 0.930 1_556 S
C358 C359 1.355 1_545 S
C358 C360 1.415 . S
C359 C358 1.355 1_565 S
C359 C361 1.419 . S
C360 C358 1.415 . S
C360 C365 1.425 1_545 S
C360 C367 1.409 . S
C361 H353 0.930 . S
C361 C359 1.419 . S
C361 C362 1.362 . S
C362 H354 0.930 . S
C362 C361 1.362 . S
C362 C365 1.409 . S
C363 H355 0.930 . S
C363 C364 1.352 1_565 S
C363 C365 1.415 . S
C364 C363 1.352 1_545 S
C364 C366 1.422 . S
C365 C360 1.425 1_565 S
C365 C362 1.409 . S
C365 C363 1.415 . S
C366 H356 0.930 . S
C366 C364 1.422 . S
C366 C367 1.362 . S
C367 H357 0.930 1_556 S
C367 C360 1.409 . S
C367 C366 1.362 . S
H368 C374 0.930 . S
H369 C377 0.930 . S
H370 C378 0.930 . S
H371 C379 0.930 . S
H372 C382 0.930 . S
H373 C383 0.930 . S
C374 H368 0.930 . S
C374 C375 1.355 1_556 S
C374 C376 1.415 . S
C375 C374 1.355 1_554 S
C375 C377 1.419 . S
C376 C374 1.415 . S
C376 C381 1.425 . S
C376 C383 1.409 . S
C377 H369 0.930 . S
C377 C375 1.419 . S
C377 C378 1.362 . S
C378 H370 0.930 . S
C378 C377 1.362 . S
C378 C381 1.409 1_554 S
C379 H371 0.930 . S
C379 C380 1.355 . S
C379 C381 1.415 . S
C380 C379 1.355 . S
C380 C382 1.419 . S
C381 C376 1.425 . S
C381 C378 1.409 1_556 S
C381 C379 1.415 . S
C382 H372 0.930 . S
C382 C380 1.419 . S
C382 C383 1.362 . S
C383 H373 0.930 . S
C383 C376 1.409 . S
C383 C382 1.362 . S
H384 C390 0.930 . S
H385 C393 0.930 . S
H386 C394 0.930 . S
H387 C395 0.930 . S
H388 C398 0.930 . S
H389 C399 0.930 1_554 S
C390 H384 0.930 . S
C390 C391 1.355 . S
C390 C392 1.415 1_554 S
C391 C390 1.355 . S
C391 C393 1.419 1_554 S
C392 C390 1.415 1_556 S
C392 C397 1.425 . S
C392 C399 1.409 . S
C393 H385 0.930 . S
C393 C391 1.419 1_556 S
C393 C394 1.362 . S
C394 H386 0.930 . S
C394 C393 1.362 . S
C394 C397 1.409 . S
C395 H387 0.930 . S
C395 C396 1.355 . S
C395 C397 1.415 . S
C396 C395 1.355 . S
C396 C398 1.419 . S
C397 C392 1.425 . S
C397 C394 1.409 . S
C397 C395 1.415 . S
C398 H388 0.930 . S
C398 C396 1.419 . S
C398 C399 1.362 . S
C399 H389 0.930 1_556 S
C399 C392 1.409 . S
C399 C398 1.362 . S
H400 C406 0.930 . S
H401 C409 0.930 . S
H402 C410 0.930 . S
H403 C411 0.930 . S
H404 C414 0.930 . S
H405 C415 0.930 . S
C406 H400 0.930 . S
C406 C407 1.355 1_455 S
C406 C408 1.415 . S
C407 C406 1.355 1_655 S
C407 C409 1.419 . S
C408 C406 1.415 . S
C408 C413 1.425 1_455 S
C408 C415 1.409 . S
C409 H401 0.930 . S
C409 C407 1.419 . S
C409 C410 1.362 . S
C410 H402 0.930 . S
C410 C409 1.362 . S
C410 C413 1.409 . S
C411 H403 0.930 . S
C411 C412 1.355 1_655 S
C411 C413 1.415 . S
C412 C411 1.355 1_455 S
C412 C414 1.419 . S
C413 C408 1.425 1_655 S
C413 C410 1.409 . S
C413 C411 1.415 . S
C414 H404 0.930 . S
C414 C412 1.419 . S
C414 C415 1.362 . S
C415 H405 0.930 . S
C415 C408 1.409 . S
C415 C414 1.362 . S
H416 C422 0.930 . S
H417 C425 0.930 1_655 S
H418 C426 0.930 . S
H419 C427 0.933 1_655 S
H420 C430 0.930 . S
H421 C431 0.930 . S
C422 H416 0.930 . S
C422 C423 1.355 . S
C422 C424 1.415 . S
C423 C422 1.355 . S
C423 C425 1.419 . S
C424 C422 1.415 . S
C424 C429 1.425 . S
C424 C431 1.409 . S
C425 H417 0.930 1_455 S
C425 C423 1.419 . S
C425 C426 1.362 1_455 S
C426 H418 0.930 . S
C426 C425 1.362 1_655 S
C426 C429 1.409 1_655 S
C427 H419 0.933 1_455 S
C427 C428 1.353 . S
C427 C429 1.413 . S
C428 C427 1.353 . S
C428 C430 1.419 . S
C429 C424 1.425 . S
C429 C426 1.409 1_455 S
C429 C427 1.413 . S
C430 H420 0.930 . S
C430 C428 1.419 . S
C430 C431 1.362 . S
C431 H421 0.930 . S
C431 C424 1.409 . S
C431 C430 1.362 . S
H432 C438 0.935 . S
H433 C441 0.930 . S
H434 C442 0.930 . S
H435 C443 0.930 . S
H436 C446 0.930 . S
H437 C447 0.930 . S
C438 H432 0.935 . S
C438 C439 1.355 . S
C438 C440 1.415 . S
C439 C438 1.355 . S
C439 C441 1.419 . S
C440 C438 1.415 . S
C440 C445 1.425 . S
C440 C447 1.409 1_545 S
C441 H433 0.930 . S
C441 C439 1.419 . S
C441 C442 1.362 . S
C442 H434 0.930 . S
C442 C441 1.362 . S
C442 C445 1.409 . S
C443 H435 0.930 . S
C443 C444 1.348 1_545 S
C443 C445 1.415 . S
C444 C443 1.348 1_565 S
C444 C446 1.427 . S
C445 C440 1.425 . S
C445 C442 1.409 . S
C445 C443 1.415 . S
C446 H436 0.930 . S
C446 C444 1.427 . S
C446 C447 1.362 . S
C447 H437 0.930 . S
C447 C440 1.409 1_565 S
C447 C446 1.362 . S
H448 C454 0.930 . S
H449 C457 0.930 . S
H450 C458 0.930 . S
H451 C459 0.930 . S
H452 C462 0.930 . S
H453 C463 0.930 . S
C454 H448 0.930 . S
C454 C455 1.355 . S
C454 C456 1.415 . S
C455 C454 1.355 . S
C455 C457 1.419 . S
C456 C454 1.415 . S
C456 C461 1.425 . S
C456 C463 1.409 . S
C457 H449 0.930 . S
C457 C455 1.419 . S
C457 C458 1.362 . S
C458 H450 0.930 . S
C458 C457 1.362 . S
C458 C461 1.409 . S
C459 H451 0.930 . S
C459 C460 1.355 . S
C459 C461 1.415 . S
C460 C459 1.355 . S
C460 C462 1.419 . S
C461 C456 1.425 . S
C461 C458 1.409 . S
C461 C459 1.415 . S
C462 H452 0.930 . S
C462 C460 1.419 . S
C462 C463 1.362 . S
C463 H453 0.930 . S
C463 C456 1.409 . S
C463 C462 1.362 . S
H464 C470 0.930 . S
H465 C473 0.930 . S
H466 C474 0.930 . S
H467 C475 0.930 . S
H468 C478 0.930 . S
H469 C479 0.930 . S
C470 H464 0.930 . S
C470 C471 1.355 . S
C470 C472 1.415 . S
C471 C470 1.355 . S
C471 C473 1.419 . S
C472 C470 1.415 . S
C472 C477 1.425 . S
C472 C479 1.409 . S
C473 H465 0.930 . S
C473 C471 1.419 . S
C473 C474 1.362 . S
C474 H466 0.930 . S
C474 C473 1.362 . S
C474 C477 1.409 . S
C475 H467 0.930 . S
C475 C476 1.355 . S
C475 C477 1.415 . S
C476 C475 1.355 . S
C476 C478 1.419 . S
C477 C472 1.425 . S
C477 C474 1.409 . S
C477 C475 1.415 . S
C478 H468 0.930 . S
C478 C476 1.419 . S
C478 C479 1.362 . S
C479 H469 0.930 . S
C479 C472 1.409 . S
C479 C478 1.362 . S
H480 C486 0.930 . S
H481 C489 0.930 . S
H482 C490 0.930 . S
H483 C491 0.930 . S
H484 C494 0.930 . S
H485 C495 0.930 . S
C486 H480 0.930 . S
C486 C487 1.355 1_455 S
C486 C488 1.415 . S
C487 C486 1.355 1_655 S
C487 C489 1.419 . S
C488 C486 1.415 . S
C488 C493 1.425 1_455 S
C488 C495 1.409 . S
C489 H481 0.930 . S
C489 C487 1.419 . S
C489 C490 1.362 . S
C490 H482 0.930 . S
C490 C489 1.362 . S
C490 C493 1.409 . S
C491 H483 0.930 . S
C491 C492 1.355 1_655 S
C491 C493 1.415 . S
C492 C491 1.355 1_455 S
C492 C494 1.419 . S
C493 C488 1.425 1_655 S
C493 C490 1.409 . S
C493 C491 1.415 . S
C494 H484 0.930 . S
C494 C492 1.419 . S
C494 C495 1.362 . S
C495 H485 0.930 . S
C495 C488 1.409 . S
C495 C494 1.362 . S
H496 C502 0.931 . S
H497 C505 0.930 . S
H498 C506 0.930 . S
H499 C507 0.930 . S
H500 C510 0.930 . S
H501 C511 0.930 . S
C502 H496 0.931 . S
C502 C503 1.353 1_545 S
C502 C504 1.415 1_554 S
C503 C502 1.353 1_565 S
C503 C505 1.419 1_554 S
C504 C502 1.415 1_556 S
C504 C509 1.425 1_545 S
C504 C511 1.409 1_556 S
C505 H497 0.930 . S
C505 C503 1.419 1_556 S
C505 C506 1.362 . S
C506 H498 0.930 . S
C506 C505 1.362 . S
C506 C509 1.409 . S
C507 H499 0.930 . S
C507 C508 1.355 1_565 S
C507 C509 1.415 . S
C508 C507 1.355 1_545 S
C508 C510 1.419 . S
C509 C504 1.425 1_565 S
C509 C506 1.409 . S
C509 C507 1.415 . S
C510 H500 0.930 . S
C510 C508 1.419 . S
C510 C511 1.362 1_556 S
C511 H501 0.930 . S
C511 C504 1.409 1_554 S
C511 C510 1.362 1_554 S
H512 C518 0.930 . S
H513 C521 0.930 . S
H514 C522 0.930 . S
H515 C523 0.930 . S
H516 C526 0.930 . S
H517 C527 0.930 . S
C518 H512 0.930 . S
C518 C519 1.355 . S
C518 C520 1.415 1_554 S
C519 C518 1.355 . S
C519 C521 1.419 1_554 S
C520 C518 1.415 1_556 S
C520 C525 1.425 . S
C520 C527 1.409 . S
C521 H513 0.930 . S
C521 C519 1.419 1_556 S
C521 C522 1.362 . S
C522 H514 0.930 . S
C522 C521 1.362 . S
C522 C525 1.409 . S
C523 H515 0.930 . S
C523 C524 1.355 . S
C523 C525 1.415 . S
C524 C523 1.355 . S
C524 C526 1.419 . S
C525 C520 1.425 . S
C525 C522 1.409 . S
C525 C523 1.415 . S
C526 H516 0.930 . S
C526 C524 1.419 . S
C526 C527 1.362 . S
C527 H517 0.930 . S
C527 C520 1.409 . S
C527 C526 1.362 . S
H528 C534 0.930 . S
H529 C537 0.933 . S
H530 C538 0.930 . S
H531 C539 0.930 . S
H532 C542 0.930 . S
H533 C543 0.930 . S
C534 H528 0.930 . S
C534 C535 1.355 . S
C534 C536 1.415 . S
C535 C534 1.355 . S
C535 C537 1.409 1_554 S
C536 C534 1.415 . S
C536 C541 1.425 1_554 S
C536 C543 1.409 . S
C537 H529 0.933 . S
C537 C535 1.409 1_556 S
C537 C538 1.370 . S
C538 H530 0.930 . S
C538 C537 1.370 . S
C538 C541 1.409 . S
C539 H531 0.930 . S
C539 C540 1.355 . S
C539 C541 1.415 . S
C540 C539 1.355 . S
C540 C542 1.419 . S
C541 C536 1.425 1_556 S
C541 C538 1.409 . S
C541 C539 1.415 . S
C542 H532 0.930 . S
C542 C540 1.419 . S
C542 C543 1.362 1_556 S
C543 H533 0.930 . S
C543 C536 1.409 . S
C543 C542 1.362 1_554 S
H544 C550 0.930 . S
H545 C553 0.930 1_655 S
H546 C554 0.930 1_655 S
H547 C555 0.919 1_655 S
H548 C558 0.930 . S
H549 C559 0.930 . S
C550 H544 0.930 . S
C550 C551 1.355 . S
C550 C552 1.415 . S
C551 C550 1.355 . S
C551 C553 1.419 . S
C552 C550 1.415 . S
C552 C557 1.425 . S
C552 C559 1.409 . S
C553 H545 0.930 1_455 S
C553 C551 1.419 . S
C553 C554 1.362 . S
C554 H546 0.930 1_455 S
C554 C553 1.362 . S
C554 C557 1.409 . S
C555 H547 0.919 1_455 S
C555 C556 1.355 . S
C555 C557 1.415 . S
C556 C555 1.355 . S
C556 C558 1.419 . S
C557 C552 1.425 . S
C557 C554 1.409 . S
C557 C555 1.415 . S
C558 H548 0.930 . S
C558 C556 1.419 . S
C558 C559 1.362 . S
C559 H549 0.930 . S
C559 C552 1.409 . S
C559 C558 1.362 . S
H560 C566 0.930 . S
H561 C569 0.930 . S
H562 C570 0.930 1_556 S
H563 C571 0.929 1_565 S
H564 C574 0.930 . S
H565 C575 0.930 . S
C566 H560 0.930 . S
C566 C567 1.355 . S
C566 C568 1.415 . S
C567 C566 1.355 . S
C567 C569 1.419 . S
C568 C566 1.415 . S
C568 C573 1.425 . S
C568 C575 1.409 . S
C569 H561 0.930 . S
C569 C567 1.419 . S
C569 C570 1.362 . S
C570 H562 0.930 1_554 S
C570 C569 1.362 . S
C570 C573 1.409 . S
C571 H563 0.929 1_545 S
C571 C572 1.355 . S
C571 C573 1.415 1_556 S
C572 C571 1.355 . S
C572 C574 1.419 1_556 S
C573 C568 1.425 . S
C573 C570 1.409 . S
C573 C571 1.415 1_554 S
C574 H564 0.930 . S
C574 C572 1.419 1_554 S
C574 C575 1.362 . S
C575 H565 0.930 . S
C575 C568 1.409 . S
C575 C574 1.362 . S
H576 C582 0.930 . S
H577 C585 0.930 . S
H578 C586 0.930 . S
H579 C587 0.930 . S
H580 C590 0.930 . S
H581 C591 0.931 . S
C582 H576 0.930 . S
C582 C583 1.355 . S
C582 C584 1.415 . S
C583 C582 1.355 . S
C583 C585 1.419 . S
C584 C582 1.415 . S
C584 C589 1.425 . S
C584 C591 1.406 1_554 S
C585 H577 0.930 . S
C585 C583 1.419 . S
C585 C586 1.362 . S
C586 H578 0.930 . S
C586 C585 1.362 . S
C586 C589 1.409 . S
C587 H579 0.930 . S
C587 C588 1.355 1_554 S
C587 C589 1.415 . S
C588 C587 1.355 1_556 S
C588 C590 1.419 . S
C589 C584 1.425 . S
C589 C586 1.409 . S
C589 C587 1.415 . S
C590 H580 0.930 . S
C590 C588 1.419 . S
C590 C591 1.365 . S
C591 H581 0.931 . S
C591 C584 1.406 1_556 S
C591 C590 1.365 . S
H592 C598 0.930 . S
H593 C601 0.930 . S
H594 C602 0.930 . S
H595 C603 0.930 . S
H596 C606 0.930 . S
H597 C607 0.930 . S
C598 H592 0.930 . S
C598 C599 1.355 . S
C598 C600 1.415 . S
C599 C598 1.355 . S
C599 C601 1.419 . S
C600 C598 1.415 . S
C600 C605 1.425 . S
C600 C607 1.409 1_554 S
C601 H593 0.930 . S
C601 C599 1.419 . S
C601 C602 1.362 . S
C602 H594 0.930 . S
C602 C601 1.362 . S
C602 C605 1.409 . S
C603 H595 0.930 . S
C603 C604 1.355 1_554 S
C603 C605 1.415 . S
C604 C603 1.355 1_556 S
C604 C606 1.419 . S
C605 C600 1.425 . S
C605 C602 1.409 . S
C605 C603 1.415 . S
C606 H596 0.930 . S
C606 C604 1.419 . S
C606 C607 1.362 . S
C607 H597 0.930 . S
C607 C600 1.409 1_556 S
C607 C606 1.362 . S
H608 C614 0.930 . S
H609 C617 0.930 . S
H610 C618 0.930 . S
H611 C619 0.930 . S
H612 C622 0.930 . S
H613 C623 0.930 . S
C614 H608 0.930 . S
C614 C615 1.355 1_455 S
C614 C616 1.415 . S
C615 C614 1.355 1_655 S
C615 C617 1.419 . S
C616 C614 1.415 . S
C616 C621 1.425 1_455 S
C616 C623 1.409 . S
C617 H609 0.930 . S
C617 C615 1.419 . S
C617 C618 1.362 . S
C618 H610 0.930 . S
C618 C617 1.362 . S
C618 C621 1.409 . S
C619 H611 0.930 . S
C619 C620 1.355 . S
C619 C621 1.415 . S
C620 C619 1.355 . S
C620 C622 1.419 1_655 S
C621 C616 1.425 1_655 S
C621 C618 1.409 . S
C621 C619 1.415 . S
C622 H612 0.930 . S
C622 C620 1.419 1_455 S
C622 C623 1.362 . S
C623 H613 0.930 . S
C623 C616 1.409 . S
C623 C622 1.362 . S
H624 C630 0.930 . S
H625 C633 0.930 . S
H626 C634 0.930 . S
H627 C635 0.930 . S
H628 C638 0.930 . S
H629 C639 0.930 . S
C630 H624 0.930 . S
C630 C631 1.355 . S
C630 C632 1.415 . S
C631 C630 1.355 . S
C631 C633 1.419 1_565 S
C632 C630 1.415 . S
C632 C637 1.406 1_565 S
C632 C639 1.409 . S
C633 H625 0.930 . S
C633 C631 1.419 1_545 S
C633 C634 1.362 . S
C634 H626 0.930 . S
C634 C633 1.362 . S
C634 C637 1.424 . S
C635 H627 0.930 . S
C635 C636 1.355 1_545 S
C635 C637 1.420 . S
C636 C635 1.355 1_565 S
C636 C638 1.419 . S
C637 C632 1.406 1_545 S
C637 C634 1.424 . S
C637 C635 1.420 . S
C638 H628 0.930 . S
C638 C636 1.419 . S
C638 C639 1.362 . S
C639 H629 0.930 . S
C639 C632 1.409 . S
C639 C638 1.362 . S
H640 C646 0.930 . S
H641 C649 0.930 . S
H642 C650 0.930 . S
H643 C651 0.930 . S
H644 C654 0.930 . S
H645 C655 0.930 . S
C646 H640 0.930 . S
C646 C647 1.355 . S
C646 C648 1.415 . S
C647 C646 1.355 . S
C647 C649 1.419 . S
C648 C646 1.415 . S
C648 C653 1.425 . S
C648 C655 1.409 . S
C649 H641 0.930 . S
C649 C647 1.419 . S
C649 C650 1.362 . S
C650 H642 0.930 . S
C650 C649 1.362 . S
C650 C653 1.409 . S
C651 H643 0.930 . S
C651 C652 1.355 . S
C651 C653 1.415 . S
C652 C651 1.355 . S
C652 C654 1.419 . S
C653 C648 1.425 . S
C653 C650 1.409 . S
C653 C651 1.415 . S
C654 H644 0.930 . S
C654 C652 1.419 . S
C654 C655 1.362 . S
C655 H645 0.930 . S
C655 C648 1.409 . S
C655 C654 1.362 . S
H656 C662 0.930 . S
H657 C665 0.930 . S
H658 C666 0.930 . S
H659 C667 0.930 . S
H660 C670 0.930 . S
H661 C671 0.930 . S
C662 H656 0.930 . S
C662 C663 1.355 . S
C662 C664 1.415 . S
C663 C662 1.355 . S
C663 C665 1.419 . S
C664 C662 1.415 . S
C664 C669 1.425 . S
C664 C671 1.409 . S
C665 H657 0.930 . S
C665 C663 1.419 . S
C665 C666 1.362 . S
C666 H658 0.930 . S
C666 C665 1.362 . S
C666 C669 1.409 . S
C667 H659 0.930 . S
C667 C668 1.355 . S
C667 C669 1.415 . S
C668 C667 1.355 . S
C668 C670 1.419 . S
C669 C664 1.425 . S
C669 C666 1.409 . S
C669 C667 1.415 . S
C670 H660 0.930 . S
C670 C668 1.419 . S
C670 C671 1.362 . S
C671 H661 0.930 . S
C671 C664 1.409 . S
C671 C670 1.362 . S
C295 C125 1.796 . S
C300 C169 1.893 . S
C316 C190 1.546 . S
C311 C144 1.418 . S
C332 C224 1.399 . S
C327 C87 1.336 . S
C348 C258 1.532 . S
C343 C106 1.357 . S
C364 C160 1.890 . S
C359 C49 1.818 1_556 S
C375 C68 1.418 . S
C380 C199 1.538 . S
C391 C11 1.433 . S
C396 C233 1.392 . S
C407 C30 1.431 . S
C412 C267 1.530 . S
C428 C181 0.723 . S
C423 C97 0.724 . S
C444 C186 1.232 . S
C439 C116 1.162 . S
C460 C220 1.140 . S
C455 C135 1.073 . S
C471 C78 0.669 . S
C476 C254 0.604 . S
C487 C21 0.736 . S
C492 C152 0.756 . S
C508 C215 1.252 . S
C503 C40 1.229 . S
C524 C249 1.123 . S
C519 C59 1.129 . S
C535 C2 0.660 . S
C540 C283 0.590 . S
C551 C101 1.339 . S
C556 C165 1.361 . S
C567 C120 1.739 . S
C572 C194 1.754 . S
C588 C228 1.546 . S
C583 C139 1.518 . S
C604 C262 1.646 . S
C599 C82 1.585 . S
C615 C25 1.339 . S
C620 C156 1.348 . S
C636 C203 1.752 . S
C631 C44 1.728 . S
C652 C237 1.557 . S
C647 C63 1.516 . S
C663 C6 1.590 . S
C668 C271 1.647 . S
