# Generated by pormake.
# Topology pyr, (3,6)-cn, num edge types: 1
# Building blocks:
#     Node 0, Type 0, BuildingBlock: BELTOD_clean_linker_0, # of connection points: 3
#     Node 1, Type 0, BuildingBlock: BELTOD_clean_linker_0, # of connection points: 3
#     Node 2, Type 0, BuildingBlock: BELTOD_clean_linker_0, # of connection points: 3
#     Node 3, Type 0, BuildingBlock: BELTOD_clean_linker_0, # of connection points: 3
#     Node 4, Type 0, BuildingBlock: BELTOD_clean_linker_0, # of connection points: 3
#     Node 5, Type 0, BuildingBlock: BELTOD_clean_linker_0, # of connection points: 3
#     Node 6, Type 0, BuildingBlock: BELTOD_clean_linker_0, # of connection points: 3
#     Node 7, Type 0, BuildingBlock: BELTOD_clean_linker_0, # of connection points: 3
#     Node 8, Type 1, BuildingBlock: LEVNOQ01_clean_sbu_1, # of connection points: 6
#     Node 9, Type 1, BuildingBlock: LEVNOQ01_clean_sbu_1, # of connection points: 6
#     Node 10, Type 1, BuildingBlock: LEVNOQ01_clean_sbu_1, # of connection points: 6
#     Node 11, Type 1, BuildingBlock: LEVNOQ01_clean_sbu_1, # of connection points: 6
#     Edge 12, Type (0, 1), BuildingBlock: ZUJKAS_clean_linker_0, # of connection points: 2
#     Edge 13, Type (0, 1), BuildingBlock: ZUJKAS_clean_linker_0, # of connection points: 2
#     Edge 14, Type (0, 1), BuildingBlock: ZUJKAS_clean_linker_0, # of connection points: 2
#     Edge 15, Type (0, 1), BuildingBlock: ZUJKAS_clean_linker_0, # of connection points: 2
#     Edge 16, Type (0, 1), BuildingBlock: ZUJKAS_clean_linker_0, # of connection points: 2
#     Edge 17, Type (0, 1), BuildingBlock: ZUJKAS_clean_linker_0, # of connection points: 2
#     Edge 18, Type (0, 1), BuildingBlock: ZUJKAS_clean_linker_0, # of connection points: 2
#     Edge 19, Type (0, 1), BuildingBlock: ZUJKAS_clean_linker_0, # of connection points: 2
#     Edge 20, Type (0, 1), BuildingBlock: ZUJKAS_clean_linker_0, # of connection points: 2
#     Edge 21, Type (0, 1), BuildingBlock: ZUJKAS_clean_linker_0, # of connection points: 2
#     Edge 22, Type (0, 1), BuildingBlock: ZUJKAS_clean_linker_0, # of connection points: 2
#     Edge 23, Type (0, 1), BuildingBlock: ZUJKAS_clean_linker_0, # of connection points: 2
#     Edge 24, Type (0, 1), BuildingBlock: ZUJKAS_clean_linker_0, # of connection points: 2
#     Edge 25, Type (0, 1), BuildingBlock: ZUJKAS_clean_linker_0, # of connection points: 2
#     Edge 26, Type (0, 1), BuildingBlock: ZUJKAS_clean_linker_0, # of connection points: 2
#     Edge 27, Type (0, 1), BuildingBlock: ZUJKAS_clean_linker_0, # of connection points: 2
#     Edge 28, Type (0, 1), BuildingBlock: ZUJKAS_clean_linker_0, # of connection points: 2
#     Edge 29, Type (0, 1), BuildingBlock: ZUJKAS_clean_linker_0, # of connection points: 2
#     Edge 30, Type (0, 1), BuildingBlock: ZUJKAS_clean_linker_0, # of connection points: 2
#     Edge 31, Type (0, 1), BuildingBlock: ZUJKAS_clean_linker_0, # of connection points: 2
#     Edge 32, Type (0, 1), BuildingBlock: ZUJKAS_clean_linker_0, # of connection points: 2
#     Edge 33, Type (0, 1), BuildingBlock: ZUJKAS_clean_linker_0, # of connection points: 2
#     Edge 34, Type (0, 1), BuildingBlock: ZUJKAS_clean_linker_0, # of connection points: 2
#     Edge 35, Type (0, 1), BuildingBlock: ZUJKAS_clean_linker_0, # of connection points: 2
# Relax obj value: 0.036
# Max RMSD: 0.108
# Mean RMSD: 0.051
data_MOF--net-pry--node1-LEVNOQ01_clean_sbu_1--node2-BELTOD_clean_linker_0--edge1-ZUJKAS_clean_linker_0
_symmetry_space_group_name_H-M    P1
_symmetry_Int_Tables_number       1
_symmetry_cell_setting            triclinic
loop_
_symmetry_equiv_pos_as_xyz
'x, y, z'
_cell_length_a     53.711921
_cell_length_b     52.433137
_cell_length_c     51.492181
_cell_angle_alpha  92.265733
_cell_angle_beta   90.941059
_cell_angle_gamma 93.199774
loop_
_atom_site_label
_atom_site_type_symbol
_atom_site_fract_x
_atom_site_fract_y
_atom_site_fract_z
_atom_type_partial_charge
P0 P 0.1605 0.1625 0.15179 0.0
H1 H 0.20342 0.17538 0.12046 0.0
H2 H 0.23355 0.1497 0.09809 0.0
H3 H 0.19009 0.08092 0.11587 0.0
H4 H 0.16003 0.10693 0.1385 0.0
H5 H 0.13038 0.20451 0.16705 0.0
H6 H 0.10693 0.23445 0.14272 0.0
H7 H 0.12422 0.19435 0.07093 0.0
H8 H 0.14772 0.16425 0.09557 0.0
H9 H 0.17769 0.12728 0.18939 0.0
H10 H 0.10762 0.15768 0.1679 0.0
O11 O 0.18008 0.18294 0.1687 0.0
H12 H 0.15793 0.10678 0.2262 0.0
H13 H 0.08788 0.13762 0.20502 0.0
C14 C 0.17978 0.14308 0.13158 0.0
C15 C 0.20019 0.15479 0.11925 0.0
C16 C 0.21735 0.14003 0.1063 0.0
C17 C 0.21441 0.11317 0.10533 0.0
C18 C 0.19316 0.10153 0.11662 0.0
C19 C 0.1759 0.11639 0.1295 0.0
C20 C 0.14064 0.18202 0.13322 0.0
C21 C 0.12877 0.20186 0.1461 0.0
C22 C 0.11531 0.21896 0.13213 0.0
C23 C 0.11361 0.21679 0.10484 0.0
C24 C 0.12529 0.19664 0.09192 0.0
C25 C 0.13861 0.17932 0.10601 0.0
C26 C 0.1442 0.144 0.1758 0.0
C27 C 0.15794 0.12918 0.19231 0.0
C28 C 0.14662 0.11747 0.21338 0.0
C29 C 0.12136 0.12072 0.21864 0.0
C30 C 0.10744 0.13503 0.20164 0.0
C31 C 0.11873 0.14646 0.18033 0.0
P32 P 0.38038 0.8926 0.60162 0.0
H33 H 0.42752 0.90258 0.62952 0.0
H34 H 0.43824 0.91635 0.6744 0.0
H35 H 0.35993 0.91313 0.6929 0.0
H36 H 0.34947 0.89873 0.64814 0.0
H37 H 0.38237 0.86879 0.55018 0.0
H38 H 0.39478 0.82715 0.53385 0.0
H39 H 0.41068 0.80629 0.61257 0.0
H40 H 0.39747 0.84783 0.62878 0.0
H41 H 0.35199 0.93707 0.59247 0.0
H42 H 0.33719 0.85557 0.59526 0.0
O43 O 0.39675 0.91391 0.58458 0.0
H44 H 0.30852 0.94214 0.58008 0.0
H45 H 0.29375 0.86035 0.58216 0.0
C46 C 0.38774 0.89991 0.63544 0.0
C47 C 0.4127 0.90464 0.64333 0.0
C48 C 0.41877 0.91272 0.66894 0.0
C49 C 0.39993 0.91623 0.68721 0.0
C50 C 0.37492 0.91055 0.6794 0.0
C51 C 0.36889 0.90241 0.65373 0.0
C52 C 0.38931 0.86148 0.5906 0.0
C53 C 0.38853 0.85522 0.56391 0.0
C54 C 0.39577 0.83145 0.5546 0.0
C55 C 0.404 0.81343 0.57186 0.0
C56 C 0.4043 0.81964 0.59874 0.0
C57 C 0.39694 0.84348 0.60805 0.0
C58 C 0.3479 0.89593 0.59418 0.0
C59 C 0.33937 0.92025 0.59029 0.0
C60 C 0.31454 0.92309 0.58306 0.0
C61 C 0.29773 0.9016 0.57967 0.0
C62 C 0.30618 0.87729 0.5846 0.0
C63 C 0.33106 0.87451 0.59192 0.0
P64 P 0.64964 0.35235 0.84183 0.0
H65 H 0.68836 0.33226 0.8731 0.0
H66 H 0.72043 0.35225 0.90252 0.0
H67 H 0.6897 0.42577 0.89256 0.0
H68 H 0.65712 0.40539 0.86358 0.0
H69 H 0.61558 0.31299 0.81844 0.0
H70 H 0.59164 0.27713 0.83647 0.0
H71 H 0.61257 0.30565 0.9141 0.0
H72 H 0.63635 0.34166 0.89593 0.0
H73 H 0.66916 0.3913 0.80835 0.0
H74 H 0.5967 0.36195 0.83184 0.0
O75 O 0.66697 0.33557 0.82153 0.0
H76 H 0.64976 0.41371 0.77343 0.0
H77 H 0.57713 0.38434 0.79688 0.0
C78 C 0.67077 0.36744 0.86584 0.0
C79 C 0.68837 0.35264 0.87749 0.0
C80 C 0.70671 0.3641 0.89422 0.0
C81 C 0.70783 0.39064 0.8995 0.0
C82 C 0.68928 0.40527 0.88888 0.0
C83 C 0.67079 0.39369 0.87215 0.0
C84 C 0.62804 0.32966 0.85582 0.0
C85 C 0.61455 0.31182 0.83936 0.0
C86 C 0.60076 0.29143 0.84968 0.0
C87 C 0.6005 0.28848 0.87667 0.0
C88 C 0.61276 0.30733 0.8932 0.0
C89 C 0.62636 0.32789 0.88283 0.0
C90 C 0.63443 0.37465 0.82232 0.0
C91 C 0.64901 0.39034 0.80646 0.0
C92 C 0.63787 0.4032 0.78656 0.0
C93 C 0.61195 0.4004 0.78216 0.0
C94 C 0.5972 0.38643 0.79955 0.0
C95 C 0.60838 0.37366 0.81957 0.0
P96 P 0.84853 0.63491 0.38078 0.0
H97 H 0.88094 0.67827 0.36733 0.0
H98 H 0.9087 0.70813 0.39317 0.0
H99 H 0.89629 0.66272 0.46051 0.0
H100 H 0.86831 0.63301 0.43448 0.0
H101 H 0.82473 0.60414 0.33858 0.0
H102 H 0.84098 0.58253 0.30019 0.0
H103 H 0.91617 0.59924 0.3298 0.0
H104 H 0.89968 0.62134 0.36796 0.0
H105 H 0.81284 0.65226 0.41782 0.0
H106 H 0.83928 0.57997 0.39061 0.0
O107 O 0.83129 0.65541 0.36551 0.0
H108 H 0.78186 0.6301 0.44412 0.0
H109 H 0.80834 0.55747 0.41721 0.0
C110 C 0.87224 0.65377 0.39911 0.0
C111 C 0.8845 0.67456 0.38757 0.0
C112 C 0.90049 0.69152 0.40236 0.0
C113 C 0.90454 0.68793 0.429 0.0
C114 C 0.89323 0.66623 0.44015 0.0
C115 C 0.87728 0.64919 0.42526 0.0
C116 C 0.86099 0.61459 0.35587 0.0
C117 C 0.8447 0.60273 0.337 0.0
C118 C 0.85404 0.59024 0.31512 0.0
C119 C 0.87991 0.5894 0.31176 0.0
C120 C 0.89616 0.59998 0.33159 0.0
C121 C 0.88675 0.61252 0.35348 0.0
C122 C 0.82796 0.61775 0.40197 0.0
C123 C 0.81213 0.63157 0.41779 0.0
C124 C 0.79459 0.61885 0.43302 0.0
C125 C 0.79259 0.59199 0.43274 0.0
C126 C 0.80925 0.57817 0.41761 0.0
C127 C 0.82692 0.591 0.4024 0.0
P128 P 0.87566 0.88024 0.89277 0.0
H129 H 0.8594 0.90754 0.93933 0.0
H130 H 0.81915 0.92253 0.95268 0.0
H131 H 0.78453 0.8865 0.88322 0.0
H132 H 0.825 0.87123 0.87016 0.0
H133 H 0.92361 0.85984 0.90386 0.0
H134 H 0.93619 0.81924 0.91967 0.0
H135 H 0.85888 0.79172 0.92111 0.0
H136 H 0.84638 0.8329 0.90557 0.0
H137 H 0.85847 0.91744 0.85694 0.0
H138 H 0.90023 0.84955 0.85236 0.0
O139 O 0.89636 0.90209 0.90601 0.0
H140 H 0.86669 0.92473 0.81121 0.0
H141 H 0.90849 0.85672 0.80664 0.0
C142 C 0.84527 0.88868 0.90352 0.0
C143 C 0.84315 0.90278 0.927 0.0
C144 C 0.82013 0.91151 0.93453 0.0
C145 C 0.79866 0.90611 0.91882 0.0
C146 C 0.80068 0.89102 0.89578 0.0
C147 C 0.8238 0.88233 0.88824 0.0
C148 C 0.88407 0.84954 0.90385 0.0
C149 C 0.90933 0.84511 0.90762 0.0
C150 C 0.91651 0.82174 0.91648 0.0
C151 C 0.89858 0.8021 0.92166 0.0
C152 C 0.87318 0.80651 0.91761 0.0
C153 C 0.866 0.83001 0.90862 0.0
C154 C 0.87829 0.88268 0.85803 0.0
C155 C 0.8689 0.90374 0.84594 0.0
C156 C 0.87363 0.90791 0.81977 0.0
C157 C 0.88825 0.89131 0.80524 0.0
C158 C 0.89733 0.86998 0.81733 0.0
C159 C 0.89243 0.86574 0.84348 0.0
P160 P 0.65872 0.16373 0.36721 0.0
H161 H 0.67169 0.20885 0.39967 0.0
H162 H 0.64717 0.23784 0.4257 0.0
H163 H 0.58096 0.18899 0.40886 0.0
H164 H 0.60573 0.15983 0.38308 0.0
H165 H 0.71304 0.17134 0.36688 0.0
H166 H 0.74637 0.15252 0.39088 0.0
H167 H 0.69171 0.10742 0.43264 0.0
H168 H 0.65816 0.12649 0.40829 0.0
H169 H 0.61491 0.16718 0.33389 0.0
H170 H 0.66411 0.10877 0.35485 0.0
O171 O 0.67189 0.18403 0.34665 0.0
H172 H 0.59382 0.13751 0.3019 0.0
H173 H 0.64292 0.07891 0.32311 0.0
C174 C 0.64048 0.18249 0.38901 0.0
C175 C 0.65194 0.2042 0.40186 0.0
C176 C 0.63792 0.2207 0.41684 0.0
C177 C 0.61207 0.21581 0.41918 0.0
C178 C 0.60078 0.19344 0.4071 0.0
C179 C 0.61493 0.17677 0.39231 0.0
C180 C 0.68313 0.15014 0.38566 0.0
C181 C 0.70813 0.1575 0.38124 0.0
C182 C 0.72721 0.14685 0.39515 0.0
C183 C 0.72168 0.12854 0.41373 0.0
C184 C 0.69654 0.12137 0.41833 0.0
C185 C 0.6774 0.13225 0.40451 0.0
C186 C 0.64067 0.1401 0.3473 0.0
C187 C 0.62069 0.14774 0.33217 0.0
C188 C 0.60864 0.13072 0.31387 0.0
C189 C 0.61661 0.10576 0.31 0.0
C190 C 0.63638 0.09801 0.32554 0.0
C191 C 0.64837 0.11506 0.34394 0.0
P192 P 0.3833 0.62432 0.12276 0.0
H193 H 0.36391 0.60802 0.07122 0.0
H194 H 0.32167 0.59698 0.05426 0.0
H195 H 0.29271 0.60918 0.13133 0.0
H196 H 0.33491 0.61975 0.1481 0.0
H197 H 0.42658 0.65539 0.10604 0.0
H198 H 0.43374 0.70134 0.10077 0.0
H199 H 0.3577 0.71278 0.12277 0.0
H200 H 0.35097 0.66702 0.12866 0.0
H201 H 0.37632 0.57834 0.15217 0.0
H202 H 0.39768 0.65802 0.16843 0.0
O203 O 0.40427 0.60791 0.1066 0.0
H204 H 0.38009 0.57027 0.19855 0.0
H205 H 0.40179 0.65004 0.21448 0.0
C206 C 0.35256 0.61403 0.11098 0.0
C207 C 0.34847 0.60791 0.08448 0.0
C208 C 0.32431 0.60189 0.07479 0.0
C209 C 0.30384 0.60212 0.09147 0.0
C210 C 0.3081 0.60836 0.11805 0.0
C211 C 0.33224 0.61437 0.12769 0.0
C212 C 0.38809 0.65779 0.11711 0.0
C213 C 0.41142 0.6678 0.10947 0.0
C214 C 0.41546 0.69405 0.10645 0.0
C215 C 0.39624 0.71072 0.11124 0.0
C216 C 0.37295 0.70053 0.11915 0.0
C217 C 0.36897 0.67431 0.12218 0.0
C218 C 0.38656 0.61873 0.15685 0.0
C219 C 0.38186 0.59405 0.1657 0.0
C220 C 0.38408 0.58948 0.19216 0.0
C221 C 0.39113 0.60957 0.21017 0.0
C222 C 0.39591 0.63427 0.20115 0.0
C223 C 0.3937 0.6388 0.17471 0.0
P224 P 0.13535 0.3577 0.63062 0.0
H225 H 0.14642 0.3188 0.59203 0.0
H226 H 0.12042 0.28872 0.56452 0.0
H227 H 0.0544 0.3232 0.59294 0.0
H228 H 0.08065 0.35373 0.62011 0.0
H229 H 0.18378 0.38247 0.64365 0.0
H230 H 0.21435 0.4065 0.6184 0.0
H231 H 0.16265 0.40314 0.55297 0.0
H232 H 0.13204 0.37894 0.57851 0.0
H233 H 0.0969 0.34081 0.66605 0.0
H234 H 0.13901 0.41111 0.65137 0.0
O235 O 0.1532 0.33787 0.64605 0.0
H236 H 0.07943 0.36099 0.70468 0.0
H237 H 0.12195 0.43121 0.69033 0.0
C238 C 0.11546 0.33805 0.60854 0.0
C239 C 0.12636 0.32011 0.59209 0.0
C240 C 0.11149 0.30305 0.57624 0.0
C241 C 0.08537 0.30355 0.57668 0.0
C242 C 0.07449 0.32226 0.59243 0.0
C243 C 0.08947 0.33962 0.60805 0.0
C244 C 0.15591 0.37853 0.61278 0.0
C245 C 0.17891 0.38717 0.62398 0.0
C246 C 0.19629 0.40109 0.60956 0.0
C247 C 0.19096 0.40661 0.58361 0.0
C248 C 0.16738 0.39889 0.57281 0.0
C249 C 0.14988 0.3851 0.58739 0.0
C250 C 0.1189 0.37452 0.65553 0.0
C251 C 0.10185 0.36079 0.67072 0.0
C252 C 0.09194 0.37232 0.69284 0.0
C253 C 0.09937 0.39765 0.70049 0.0
C254 C 0.116 0.41161 0.6849 0.0
C255 C 0.12565 0.40014 0.66254 0.0
O256 O 0.00437 -0.00511 0.57576 0.0
Mg257 Mg 0.02392 0.01824 0.55013 0.0
O258 O 0.98124 0.97697 0.54351 0.0
Mg259 Mg -0.00186 -0.00603 0.50498 0.0
O260 O 0.00465 0.03622 0.52213 0.0
O261 O 0.02181 0.0558 0.55838 0.0
O262 O 0.01555 0.01144 0.46664 0.0
O263 O 0.95781 0.00769 0.49611 0.0
Mg264 Mg 0.97619 0.96882 0.45667 0.0
O265 O 0.99051 0.95169 0.48829 0.0
O266 O 0.00194 0.98713 0.43285 0.0
O267 O 0.94159 0.98434 0.46274 0.0
O268 O 0.97521 0.93058 0.45208 0.0
C269 C 0.05906 0.98826 0.52444 0.0
C270 C 0.98685 0.97935 0.56775 0.0
C271 C 0.01029 0.05697 0.5363 0.0
C272 C 0.01568 0.00565 0.44226 0.0
C273 C 0.93954 0.00138 0.48053 0.0
C274 C 0.98489 0.9303 0.47516 0.0
O275 O 0.05911 0.00791 0.53939 0.0
O276 O 0.03882 0.97962 0.51303 0.0
O277 O 0.46584 0.05492 0.03338 0.0
Mg278 Mg 0.50449 0.05447 0.02902 0.0
O279 O 0.4602 0.01494 0.01837 0.0
Mg280 Mg 0.49985 0.00122 0.00573 0.0
O281 O 0.51515 0.04134 0.99331 0.0
O282 O 0.52026 0.08231 0.00797 0.0
O283 O 0.54173 0.98991 0.99322 0.0
O284 O 0.48299 -0.00164 0.963 0.0
Mg285 Mg 0.50643 0.95658 0.98907 0.0
O286 O 0.48091 0.96122 0.01788 0.0
O287 O 0.54203 0.9493 0.00097 0.0
O288 O 0.50229 0.96484 0.94966 0.0
O289 O 0.48407 0.9252 0.99327 0.0
C290 C 0.52684 0.02071 0.06473 0.0
C291 C 0.45143 0.0355 0.02773 0.0
C292 C 0.52273 0.06494 0.98989 0.0
C293 C 0.55387 0.96972 0.99556 0.0
C294 C 0.48912 0.9832 0.94457 0.0
C295 C 0.47418 0.93735 0.01232 0.0
O296 O 0.52659 0.04404 0.05972 0.0
O297 O 0.51663 0.00346 0.04911 0.0
O298 O 0.47828 0.55692 0.54571 0.0
Mg299 Mg 0.47386 0.51886 0.55557 0.0
O300 O 0.48228 0.54722 0.50371 0.0
Mg301 Mg 0.48823 0.50265 0.49857 0.0
O302 O 0.50169 0.49838 0.54071 0.0
O303 O 0.49733 0.50663 0.58326 0.0
O304 O 0.49472 0.45809 0.49443 0.0
O305 O 0.53008 0.51325 0.49017 0.0
Mg306 Mg 0.50089 0.48354 0.44363 0.0
O307 O 0.47465 0.50757 0.45614 0.0
O308 O 0.49331 0.44568 0.45293 0.0
O309 O 0.5376 0.49934 0.45009 0.0
O310 O 0.47994 0.49619 0.41426 0.0
C311 C 0.4317 0.4907 0.52626 0.0
C312 C 0.48018 0.5637 0.52249 0.0
C313 C 0.50919 0.49604 0.56451 0.0
C314 C 0.4944 0.44034 0.47661 0.0
C315 C 0.54504 0.5104 0.47139 0.0
C316 C 0.46838 0.50899 0.43177 0.0
O317 O 0.439 0.49944 0.54857 0.0
O318 O 0.44627 0.49139 0.50689 0.0
O319 O -0.00189 0.44941 0.04889 0.0
Mg320 Mg 0.01221 0.48719 0.05035 0.0
O321 O 0.01021 0.45887 0.01011 0.0
Mg322 Mg -0.00157 0.50294 0.00733 0.0
O323 O 0.98636 0.5143 0.05082 0.0
O324 O 0.00678 0.50158 0.08618 0.0
O325 O 0.98678 0.54738 0.00503 0.0
O326 O 0.95765 0.48652 0.00208 0.0
Mg327 Mg 0.98669 0.52012 0.96706 0.0
O328 O 0.00976 0.49067 0.96352 0.0
O329 O 0.00406 0.55678 0.96847 0.0
O330 O 0.94817 0.51667 0.97626 0.0
O331 O 0.98771 0.5058 0.93052 0.0
C332 C 0.05625 0.51194 0.02736 0.0
C333 C 0.00521 0.44201 0.02687 0.0
C334 C 0.99 0.51481 0.07593 0.0
C335 C 0.99408 0.56429 0.98911 0.0
C336 C 0.94125 0.49843 0.99023 0.0
C337 C 0.00382 0.49067 0.93887 0.0
O338 O 0.05047 0.49539 0.04371 0.0
O339 O 0.03936 0.51974 0.01251 0.0
H340 H 0.12545 0.07309 0.23781 0.0
H341 H 0.10862 0.05688 0.27828 0.0
H342 H 0.07608 0.12903 0.29455 0.0
H343 H 0.09235 0.14508 0.25383 0.0
H344 H 0.11797 0.07286 0.32746 0.0
H345 H 0.01723 0.08081 0.306 0.0
H346 H 0.04058 0.08421 0.28142 0.0
H347 H 0.03515 0.11052 0.30374 0.0
C348 C 0.11455 0.08542 0.24994 0.0
C349 C 0.11007 0.1103 0.24251 0.0
C350 C 0.10494 0.07615 0.27308 0.0
C351 C 0.09074 0.09157 0.28938 0.0
C352 C 0.08636 0.11648 0.28204 0.0
H353 H 0.02735 0.05753 0.44266 0.0
H354 H 0.04778 0.08129 0.40766 0.0
C355 C 0.09572 0.12566 0.25875 0.0
C356 C 0.08125 0.08177 0.31437 0.0
H357 H 0.02817 0.07005 0.34882 0.0
C358 C 0.09833 0.07234 0.3321 0.0
C359 C 0.0556 0.08103 0.32055 0.0
C360 C 0.03604 0.08944 0.30184 0.0
C361 C 0.09045 0.06202 0.35558 0.0
C362 C 0.06489 0.06124 0.36163 0.0
C363 C 0.04784 0.0711 0.34427 0.0
C364 C 0.05508 0.04745 0.38423 0.0
C365 C 0.10938 0.05157 0.37367 0.0
C366 C 0.0528 0.02069 0.38272 0.0
C367 C 0.04101 0.00726 0.40234 0.0
C368 C 0.03147 0.02025 0.42409 0.0
C369 C 0.03478 0.04705 0.42626 0.0
C370 C 0.04628 0.0606 0.40626 0.0
H371 H 0.1288 0.05747 0.3685 0.0
H372 H 0.10611 0.05808 0.39406 0.0
H373 H 0.10732 0.03037 0.37267 0.0
H374 H 0.05934 0.01022 0.36584 0.0
H375 H 0.03875 0.98662 0.40016 0.0
H376 H 0.37941 0.90134 0.73309 0.0
H377 H 0.39054 0.91774 0.77715 0.0
H378 H 0.44683 0.96946 0.74633 0.0
H379 H 0.43516 0.95396 0.70224 0.0
H380 H 0.43461 0.91535 0.80205 0.0
H381 H 0.41239 0.0168 0.79632 0.0
H382 H 0.40162 0.99264 0.77213 0.0
H383 H 0.43283 0.00692 0.77109 0.0
C384 C 0.39384 0.91654 0.73564 0.0
C385 C 0.40638 0.92631 0.71408 0.0
C386 C 0.40025 0.92582 0.76085 0.0
C387 C 0.41922 0.94516 0.76505 0.0
C388 C 0.43173 0.95498 0.74358 0.0
H389 H 0.51262 0.96984 0.90052 0.0
H390 H 0.49436 0.96329 0.85692 0.0
C391 C 0.4253 0.94577 0.71838 0.0
C392 C 0.42721 0.95368 0.79191 0.0
H393 H 0.43857 0.00656 0.83233 0.0
C394 C 0.4352 0.93526 0.80873 0.0
C395 C 0.4277 0.97964 0.80079 0.0
C396 C 0.41793 0.0001 0.78423 0.0
C397 C 0.44447 0.94213 0.83379 0.0
C398 C 0.44634 0.96824 0.84212 0.0
C399 C 0.43746 0.98661 0.82575 0.0
C400 C 0.45833 0.97656 0.86744 0.0
C401 C 0.45228 0.9213 0.8511 0.0
C402 C 0.44464 0.98787 0.88743 0.0
C403 C 0.45524 0.99208 0.91244 0.0
C404 C 0.47957 0.98484 0.91766 0.0
C405 C 0.49373 0.97532 0.8971 0.0
C406 C 0.48328 0.97144 0.87221 0.0
H407 H 0.4432 0.90242 0.84495 0.0
H408 H 0.47276 0.91975 0.84996 0.0
H409 H 0.44763 0.92563 0.87168 0.0
H410 H 0.42539 0.99216 0.88403 0.0
H411 H 0.44391 -0.00065 0.92798 0.0
H412 H 0.57854 0.37367 0.74975 0.0
H413 H 0.56531 0.38464 0.7062 0.0
H414 H 0.60796 0.45674 0.715 0.0
H415 H 0.62138 0.44586 0.7587 0.0
H416 H 0.54016 0.42477 0.68896 0.0
H417 H 0.63493 0.42581 0.64788 0.0
H418 H 0.62777 0.41274 0.67898 0.0
H419 H 0.63275 0.44672 0.67611 0.0
C420 C 0.58473 0.39209 0.74264 0.0
C421 C 0.60108 0.4089 0.75759 0.0
C422 C 0.57736 0.39819 0.71765 0.0
C423 C 0.58627 0.42113 0.70716 0.0
C424 C 0.60155 0.43855 0.72249 0.0
H425 H 0.55229 0.5138 0.58735 0.0
H426 H 0.57605 0.48937 0.61746 0.0
C427 C 0.60903 0.43243 0.74748 0.0
C428 C 0.57923 0.42697 0.68029 0.0
H429 H 0.6032 0.44338 0.62185 0.0
C430 C 0.55387 0.42843 0.67413 0.0
C431 C 0.59725 0.43154 0.66101 0.0
C432 C 0.62469 0.42889 0.66621 0.0
C433 C 0.54604 0.43571 0.64957 0.0
C434 C 0.56412 0.44116 0.63053 0.0
C435 C 0.58944 0.43886 0.6364 0.0
C436 C 0.55705 0.45305 0.60618 0.0
C437 C 0.51859 0.43894 0.64474 0.0
C438 C 0.5402 0.44027 0.58829 0.0
C439 C 0.52672 0.45427 0.57089 0.0
C440 C 0.53021 0.48098 0.57134 0.0
C441 C 0.54957 0.49315 0.58659 0.0
C442 C 0.56304 0.47921 0.60387 0.0
H443 H 0.50766 0.43767 0.66282 0.0
H444 H 0.51569 0.45769 0.6362 0.0
H445 H 0.51106 0.4237 0.63072 0.0
H446 H 0.53558 0.42 0.58967 0.0
H447 H 0.51154 0.44465 0.55957 0.0
H448 H 0.91899 0.61007 0.2849 0.0
H449 H 0.93248 0.59743 0.24153 0.0
H450 H 0.87593 0.53565 0.23735 0.0
H451 H 0.86284 0.54757 0.28134 0.0
H452 H 0.92174 0.52187 0.21857 0.0
H453 H 0.89365 0.61108 0.17507 0.0
H454 H 0.91408 0.61695 0.20284 0.0
H455 H 0.88363 0.60163 0.20677 0.0
C456 C 0.9097 0.59348 0.27504 0.0
C457 C 0.88973 0.57991 0.28657 0.0
C458 C 0.91718 0.58654 0.25005 0.0
C459 C 0.9047 0.5661 0.23598 0.0
C460 C 0.8855 0.55177 0.24777 0.0
H461 H 0.93917 0.5151 0.07555 0.0
H462 H 0.91375 0.52864 0.11253 0.0
C463 C 0.87802 0.55865 0.27285 0.0
C464 C 0.91198 0.55971 0.20902 0.0
H465 H 0.92145 0.58586 0.15 0.0
C466 C 0.92124 0.53566 0.20344 0.0
C467 C 0.91103 0.57766 0.18923 0.0
C468 C 0.89981 0.60318 0.19367 0.0
C469 C 0.93095 0.52967 0.17898 0.0
C470 C 0.93139 0.54822 0.15979 0.0
C471 C 0.92105 0.57177 0.16487 0.0
C472 C 0.94533 0.54437 0.1357 0.0
C473 C 0.94174 0.50401 0.17403 0.0
C474 C 0.97115 0.54975 0.13635 0.0
C475 C 0.98553 0.542 0.11556 0.0
C476 C 0.97425 0.52904 0.09368 0.0
C477 C 0.94816 0.52547 0.09209 0.0
C478 C 0.93371 0.53298 0.11318 0.0
H479 H 0.93781 0.49081 0.19 0.0
H480 H 0.93401 0.495 0.15552 0.0
H481 H 0.96226 0.50666 0.17201 0.0
H482 H 0.98033 0.55856 0.15361 0.0
H483 H 0.00565 0.5448 0.11719 0.0
H484 H 0.23291 0.0697 0.12425 0.0
H485 H 0.26924 0.04755 0.10919 0.0
H486 H 0.27822 0.09979 0.04702 0.0
H487 H 0.24145 0.12154 0.0614 0.0
H488 H 0.2877 0.04776 0.03251 0.0
H489 H 0.33888 0.08329 0.12287 0.0
H490 H 0.31009 0.06498 0.12731 0.0
H491 H 0.30967 0.09561 0.11293 0.0
C492 C 0.24221 0.07611 0.10698 0.0
C493 C 0.23438 0.09761 0.09421 0.0
C494 C 0.26312 0.06354 0.09854 0.0
C495 C 0.27667 0.07228 0.07724 0.0
C496 C 0.26811 0.09279 0.06357 0.0
H497 H 0.42735 0.07884 0.03768 0.0
H498 H 0.38404 0.08312 0.04882 0.0
C499 C 0.2472 0.10535 0.07196 0.0
C500 C 0.3009 0.06163 0.07045 0.0
H501 H 0.36117 0.06004 0.09221 0.0
C502 C 0.30372 0.05009 0.04565 0.0
C503 C 0.3218 0.0649 0.08759 0.0
C504 C 0.32017 0.07802 0.1141 0.0
C505 C 0.32709 0.04236 0.03731 0.0
C506 C 0.34805 0.04622 0.05425 0.0
C507 C 0.345 0.05694 0.07933 0.0
C508 C 0.37387 0.04263 0.04546 0.0
C509 C 0.3295 0.03129 0.01005 0.0
C510 C 0.3826 0.01833 0.03945 0.0
C511 C 0.40769 0.01573 0.03293 0.0
C512 C 0.42437 0.03741 0.03254 0.0
C513 C 0.41521 0.06165 0.038 0.0
C514 C 0.39036 0.06419 0.04437 0.0
H515 H 0.31198 0.03208 -0.0016 0.0
H516 H 0.3448 0.04176 -3e-05 0.0
H517 H 0.33429 0.01102 0.01088 0.0
H518 H 0.37021 0.0014 0.04044 0.0
H519 H 0.41416 -0.0032 0.02891 0.0
H520 H 0.25468 0.87715 0.59633 0.0
H521 H 0.2118 0.88334 0.58201 0.0
H522 H 0.23892 0.93982 0.5291 0.0
H523 H 0.28172 0.93305 0.5425 0.0
H524 H 0.18773 0.92694 0.58703 0.0
H525 H 0.18959 0.89744 0.48286 0.0
H526 H 0.21355 0.88964 0.50578 0.0
H527 H 0.21446 0.92057 0.49169 0.0
C528 C 0.25154 0.8905 0.58126 0.0
C529 C 0.27165 0.90464 0.5706 0.0
C530 C 0.22702 0.89408 0.57317 0.0
C531 C 0.22216 0.91169 0.55412 0.0
C532 C 0.24221 0.92565 0.54332 0.0
H533 H 0.10611 0.00869 0.53214 0.0
H534 H 0.14415 0.98599 0.53712 0.0
C535 C 0.26668 0.92207 0.55135 0.0
C536 C 0.19616 0.9173 0.5472 0.0
H537 H 0.15691 0.9252 0.49553 0.0
C538 C 0.18083 0.92604 0.56708 0.0
C539 C 0.18701 0.91589 0.52119 0.0
C540 C 0.20194 0.90511 0.4992 0.0
C541 C 0.15726 0.93487 0.56149 0.0
C542 C 0.14892 0.93522 0.53533 0.0
C543 C 0.16351 0.9251 0.51554 0.0
C544 C 0.12638 0.94857 0.52837 0.0
C545 C 0.14177 0.94468 0.58352 0.0
C546 C 0.10401 0.93504 0.52062 0.0
C547 C 0.08207 0.94805 0.51759 0.0
C548 C 0.08238 0.97466 0.52243 0.0
C549 C 0.10521 0.98815 0.52857 0.0
C550 C 0.12697 0.97524 0.53144 0.0
H551 H 0.14798 0.93771 0.60253 0.0
H552 H 0.14356 0.96589 0.58457 0.0
H553 H 0.12175 0.93876 0.58023 0.0
H554 H 0.10331 0.9144 0.5181 0.0
H555 H 0.06472 0.93718 0.51292 0.0
H556 H 0.75656 0.38065 0.89404 0.0
H557 H 0.79277 0.40161 0.91664 0.0
H558 H 0.7449 0.45052 0.9598 0.0
H559 H 0.70817 0.42908 0.9375 0.0
H560 H 0.80508 0.45529 0.91505 0.0
H561 H 0.79306 0.42176 0.01562 0.0
H562 H 0.77785 0.40531 0.98769 0.0
H563 H 0.76671 0.43495 -0.0 0.0
C564 C 0.75362 0.3955 0.90871 0.0
C565 C 0.72949 0.40306 0.91418 0.0
C566 C 0.77434 0.40755 0.92149 0.0
C567 C 0.77143 0.42738 0.94003 0.0
C568 C 0.74743 0.43498 0.94577 0.0
H569 H 0.90188 0.52739 0.98155 0.0
H570 H 0.85839 0.51238 0.97398 0.0
C571 C 0.72655 0.4229 0.93289 0.0
C572 C 0.79391 0.44091 0.95188 0.0
H573 H 0.82878 0.44855 0.00799 0.0
C574 C 0.81018 0.45409 0.93543 0.0
C575 C 0.80047 0.43898 0.97839 0.0
C576 C 0.78376 0.42438 -0.00344 0.0
C577 C 0.83323 0.4649 0.94458 0.0
C578 C 0.83992 0.46296 0.97111 0.0
C579 C 0.82345 0.45016 0.98774 0.0
C580 C 0.86466 0.47287 0.98123 0.0
C581 C 0.85065 0.47734 0.92546 0.0
C582 C 0.88218 0.45588 0.98952 0.0
C583 C 0.90703 0.46449 0.99428 0.0
C584 C 0.9146 0.49013 0.99051 0.0
C585 C 0.89659 0.50742 0.98416 0.0
C586 C 0.87177 0.4989 0.97981 0.0
H587 H 0.84508 0.47202 0.905 0.0
H588 H 0.85032 0.49843 0.92805 0.0
H589 H 0.8701 0.4719 0.92876 0.0
H590 H 0.87697 0.43572 0.99082 0.0
H591 H 0.92054 0.45079 -0.00077 0.0
H592 H 0.77463 0.60352 0.48112 0.0
H593 H 0.73554 0.58684 0.49952 0.0
H594 H 0.72391 0.53456 0.43308 0.0
H595 H 0.7627 0.55115 0.41458 0.0
H596 H 0.691 0.59159 0.47548 0.0
H597 H 0.70266 0.4895 0.49164 0.0
H598 H 0.72888 0.512 0.48749 0.0
H599 H 0.71205 0.49757 0.4596 0.0
C600 C 0.76395 0.58814 0.47068 0.0
C601 C 0.77168 0.57877 0.4463 0.0
C602 C 0.7417 0.57855 0.48128 0.0
C603 C 0.72692 0.55929 0.46782 0.0
C604 C 0.73529 0.54897 0.44416 0.0
H605 H 0.58168 0.50481 0.436 0.0
H606 H 0.62589 0.51711 0.4411 0.0
C607 C 0.75751 0.55853 0.43356 0.0
C608 C 0.70125 0.55248 0.4763 0.0
H609 H 0.66011 0.50141 0.4836 0.0
C610 C 0.68434 0.57195 0.478 0.0
C611 C 0.69261 0.52687 0.47965 0.0
C612 C 0.7101 0.50535 0.47977 0.0
C613 C 0.65872 0.56627 0.48091 0.0
C614 C 0.64992 0.54049 0.48234 0.0
C615 C 0.66697 0.52117 0.48235 0.0
C616 C 0.62301 0.53299 0.48025 0.0
C617 C 0.64103 0.58761 0.48063 0.0
C618 C 0.60674 0.53796 0.50065 0.0
C619 C 0.58125 0.53093 0.49783 0.0
C620 C 0.57174 0.51889 0.47453 0.0
C621 C 0.58825 0.5141 0.4542 0.0
C622 C 0.61359 0.521 0.45708 0.0
H623 H 0.65077 0.60647 0.47753 0.0
H624 H 0.62666 0.58367 0.46502 0.0
H625 H 0.63125 0.58873 0.49943 0.0
H626 H 0.61377 0.54715 0.51872 0.0
H627 H 0.56906 0.53478 0.5139 0.0
H628 H 0.06917 0.23737 0.11614 0.0
H629 H 0.05005 0.27266 0.09526 0.0
H630 H 0.10934 0.27603 0.03984 0.0
H631 H 0.12863 0.24061 0.06069 0.0
H632 H 0.07289 0.32076 0.09226 0.0
H633 H 0.04732 0.28078 0.99323 0.0
H634 H 0.05457 0.26082 0.01982 0.0
H635 H 0.07919 0.27768 0.00325 0.0
C636 C 0.07805 0.24544 0.09936 0.0
C637 C 0.10051 0.23622 0.09018 0.0
C638 C 0.06703 0.26556 0.08737 0.0
C639 C 0.07811 0.27691 0.06584 0.0
C640 C 0.10014 0.26727 0.05608 0.0
H641 H 0.04406 0.42326 -0.00077 0.0
H642 H 0.06212 0.38166 0.00497 0.0
C643 C 0.11117 0.24702 0.06805 0.0
C644 C 0.06771 0.30023 0.05536 0.0
H645 H 0.04141 0.32489 0.00145 0.0
C646 C 0.06604 0.3216 0.07239 0.0
C647 C 0.059 0.30147 0.02934 0.0
C648 C 0.05988 0.27893 0.01033 0.0
C649 C 0.05566 0.34399 0.06431 0.0
C650 C 0.04632 0.34504 0.03855 0.0
C651 C 0.04853 0.32398 0.0212 0.0
C652 C 0.0331 0.36756 0.03021 0.0
C653 C 0.05462 0.36641 0.08351 0.0
C654 C 0.01023 0.3728 0.04139 0.0
C655 C 0.0 0.3964 0.03823 0.0
C656 C 0.01231 0.41519 0.0236 0.0
C657 C 0.03405 0.40906 0.0104 0.0
C658 C 0.04444 0.38538 0.01378 0.0
H659 H 0.06757 0.3648 0.10035 0.0
H660 H 0.05933 0.38468 0.07404 0.0
H661 H 0.03541 0.36716 0.09102 0.0
H662 H 0.00107 0.35922 0.05394 0.0
H663 H 0.9832 0.40054 0.04857 0.0
H664 H 0.62231 0.2594 0.91209 0.0
H665 H 0.60831 0.21679 0.9251 0.0
H666 H 0.54172 0.21994 0.8776 0.0
H667 H 0.55585 0.26266 0.86416 0.0
H668 H 0.56652 0.1998 0.94964 0.0
H669 H 0.56992 0.1536 0.85082 0.0
H670 H 0.58347 0.18535 0.85848 0.0
H671 H 0.55034 0.18022 0.85346 0.0
C672 C 0.60448 0.25122 0.90475 0.0
C673 C 0.59017 0.26429 0.88707 0.0
C674 C 0.59661 0.22679 0.91202 0.0
C675 C 0.5743 0.21499 0.9018 0.0
C676 C 0.55937 0.22843 0.88508 0.0
H677 H 0.4962 0.07807 0.94824 0.0
H678 H 0.51052 0.11229 0.92013 0.0
C679 C 0.56734 0.25285 0.87761 0.0
C680 C 0.56681 0.18867 0.90898 0.0
H681 H 0.55497 0.12751 0.88452 0.0
C682 C 0.56404 0.18401 0.93541 0.0
C683 C 0.56358 0.16812 0.89029 0.0
C684 C 0.56717 0.17193 0.86168 0.0
C685 C 0.55811 0.15938 0.94373 0.0
C686 C 0.5552 0.13879 0.92512 0.0
C687 C 0.55753 0.14338 0.89864 0.0
C688 C 0.54894 0.11265 0.93343 0.0
C689 C 0.55481 0.15557 0.97243 0.0
C690 C 0.56626 0.10026 0.94843 0.0
C691 C 0.55809 0.08076 0.96445 0.0
C692 C 0.53265 0.07336 0.96526 0.0
C693 C 0.516 0.0832 0.94746 0.0
C694 C 0.52412 0.10286 0.93157 0.0
H695 H 0.55307 0.17396 0.98355 0.0
H696 H 0.538 0.14291 0.9758 0.0
H697 H 0.57126 0.14629 0.98027 0.0
H698 H 0.58551 0.10761 0.95001 0.0
H699 H 0.5711 0.07372 0.97842 0.0
H700 H 0.94788 0.7147 0.41723 0.0
H701 H 0.96729 0.75212 0.44083 0.0
H702 H 0.9131 0.74395 0.50127 0.0
H703 H 0.89304 0.70695 0.4773 0.0
H704 H 0.915 0.79091 0.4821 0.0
H705 H 0.01105 0.76586 0.50502 0.0
H706 H 0.00325 0.75878 0.47143 0.0
H707 H 0.98649 0.74199 0.49617 0.0
C708 C 0.94031 0.72063 0.43573 0.0
C709 C 0.91884 0.70791 0.44531 0.0
C710 C 0.95165 0.74183 0.44942 0.0
C711 C 0.94192 0.75063 0.47307 0.0
C712 C 0.92112 0.73731 0.48322 0.0
H713 H 0.96951 0.91287 0.52207 0.0
H714 H 0.962 0.86744 0.53159 0.0
C715 C 0.90974 0.71609 0.46954 0.0
C716 C 0.95127 0.77566 0.48496 0.0
H717 H 0.00498 0.81127 0.5005 0.0
C718 C 0.93455 0.79525 0.48692 0.0
C719 C 0.97676 0.78126 0.49131 0.0
C720 C 0.99535 0.76075 0.49114 0.0
C721 C 0.94294 0.82069 0.49272 0.0
C722 C 0.96875 0.82661 0.4972 0.0
C723 C 0.98521 0.80671 0.49717 0.0
C724 C 0.97923 0.85334 0.49651 0.0
C725 C 0.92438 0.84125 0.49175 0.0
C726 C 0.99307 0.86034 0.47481 0.0
C727 C -0.00258 0.88602 0.46951 0.0
C728 C 0.98826 0.90516 0.48594 0.0
C729 C 0.97693 0.89838 0.50925 0.0
C730 C 0.9724 0.87248 0.51452 0.0
H731 H 0.90558 0.83362 0.48493 0.0
H732 H 0.92255 0.85018 0.51147 0.0
H733 H 0.93089 0.85643 0.4786 0.0
H734 H -0.00142 0.84595 0.46069 0.0
H735 H 0.00616 0.89085 0.45139 0.0
H736 H 0.43196 0.80424 0.52884 0.0
H737 H 0.44551 0.76324 0.51179 0.0
H738 H 0.41014 0.72531 0.57542 0.0
H739 H 0.39556 0.76607 0.59199 0.0
H740 H 0.47597 0.73108 0.53393 0.0
H741 H 0.38391 0.68094 0.51381 0.0
H742 H 0.38755 0.71503 0.5204 0.0
H743 H 0.38691 0.69341 0.54672 0.0
C744 C 0.42665 0.78712 0.53897 0.0
C745 C 0.41248 0.78845 0.5617 0.0
C746 C 0.43456 0.76372 0.52927 0.0
C747 C 0.42844 0.74113 0.54202 0.0
C748 C 0.41456 0.74239 0.56487 0.0
H749 H 0.49743 0.60287 0.55449 0.0
H750 H 0.48687 0.64727 0.55345 0.0
C751 C 0.40655 0.76579 0.57455 0.0
C752 C 0.43765 0.71644 0.53221 0.0
H753 H 0.41894 0.65442 0.5164 0.0
C754 C 0.46346 0.71441 0.5297 0.0
C755 C 0.42135 0.69482 0.52611 0.0
C756 C 0.39338 0.69619 0.52662 0.0
C757 C 0.47348 0.691 0.52274 0.0
C758 C 0.45728 0.66893 0.51865 0.0
C759 C 0.4314 0.67129 0.51966 0.0
C760 C 0.46675 0.64289 0.51662 0.0
C761 C 0.50137 0.69009 0.52033 0.0
C762 C 0.45909 0.62548 0.49615 0.0
C763 C 0.4651 0.59979 0.49676 0.0
C764 C 0.47852 0.59121 0.51805 0.0
C765 C 0.48713 0.60897 0.53778 0.0
C766 C 0.48125 0.63446 0.53712 0.0
H767 H 0.50981 0.70874 0.51435 0.0
H768 H 0.50965 0.68612 0.53954 0.0
H769 H 0.50642 0.67492 0.50604 0.0
H770 H 0.44766 0.63154 0.48026 0.0
H771 H 0.45785 0.58641 0.48158 0.0
H772 H 0.93382 0.8883 0.78271 0.0
H773 H 0.94558 0.89964 0.73881 0.0
H774 H 0.86995 0.91839 0.72218 0.0
H775 H 0.85812 0.90736 0.76627 0.0
H776 H 0.93002 0.88096 0.69119 0.0
H777 H 0.90822 0.98306 0.70282 0.0
H778 H 0.9093 0.96237 0.72993 0.0
H779 H 0.88235 0.96097 0.70861 0.0
C780 C 0.91962 0.89461 0.76965 0.0
C781 C 0.89504 0.897 0.77804 0.0
C782 C 0.9264 0.90119 0.74457 0.0
C783 C 0.90877 0.91029 0.72727 0.0
C784 C 0.88404 0.91205 0.73535 0.0
H785 H 0.93713 0.96297 0.56823 0.0
H786 H 0.91493 0.94329 0.60468 0.0
C787 C 0.87729 0.90566 0.76053 0.0
C788 C 0.91649 0.91799 0.70093 0.0
H789 H 0.92157 0.96898 0.66152 0.0
C790 C 0.92797 0.90015 0.68466 0.0
C791 C 0.9139 0.94309 0.69235 0.0
C792 C 0.903 0.96357 0.70939 0.0
C793 C 0.93729 0.90685 0.66036 0.0
C794 C 0.93502 0.93196 0.65203 0.0
C795 C 0.9229 0.9496 0.66785 0.0
C796 C 0.94808 0.94129 0.6288 0.0
C797 C 0.95011 0.88727 0.64393 0.0
C798 C 0.97394 0.94636 0.6303 0.0
C799 C 0.98645 0.95778 0.60988 0.0
C800 C 0.97343 0.96417 0.58734 0.0
C801 C 0.94763 0.95807 0.58529 0.0
C802 C 0.93496 0.94696 0.60608 0.0
H803 H 0.94613 0.86756 0.65053 0.0
H804 H 0.94421 0.88807 0.62322 0.0
H805 H 0.97058 0.89159 0.64516 0.0
H806 H 0.98436 0.94228 0.64771 0.0
H807 H 0.00635 0.96215 0.61199 0.0
H808 H 0.64094 0.07519 0.27564 0.0
H809 H 0.62351 0.05155 0.23704 0.0
H810 H 0.55005 0.0744 0.25662 0.0
H811 H 0.56732 0.09809 0.29537 0.0
H812 H 0.58436 0.01213 0.22728 0.0
H813 H 0.56363 0.10498 0.18529 0.0
H814 H 0.58331 0.10302 0.21378 0.0
H815 H 0.55 0.0991 0.21627 0.0
C816 C 0.62099 0.07472 0.2721 0.0
C817 C 0.60555 0.08875 0.28848 0.0
C818 C 0.61107 0.06122 0.24998 0.0
C819 C 0.58556 0.0615 0.24379 0.0
C820 C 0.56987 0.07426 0.26085 0.0
H821 H 0.50531 -0.00435 0.10495 0.0
H822 H 0.51984 0.00033 0.15061 0.0
C823 C 0.57977 0.08785 0.28293 0.0
C824 C 0.57591 0.05053 0.21834 0.0
H825 H 0.55264 0.06774 0.1599 0.0
C826 C 0.57721 0.0242 0.21259 0.0
C827 C 0.56687 0.06641 0.19913 0.0
C828 C 0.566 0.09498 0.20372 0.0
C829 C 0.56978 0.0134 0.188 0.0
C830 C 0.56097 0.02937 0.16885 0.0
C831 C 0.55934 0.05556 0.17476 0.0
C832 C 0.55495 0.02009 0.14182 0.0
C833 C 0.57208 0.98525 0.18221 0.0
C834 C 0.57033 0.02867 0.12186 0.0
C835 C 0.56209 0.02606 0.09604 0.0
C836 C 0.53839 0.01469 0.08968 0.0
C837 C 0.52388 0.00396 0.10937 0.0
C838 C 0.5321 0.00678 0.13541 0.0
H839 H 0.58051 0.97561 0.19877 0.0
H840 H 0.55332 0.976 0.17772 0.0
H841 H 0.58368 0.98241 0.16479 0.0
H842 H 0.58794 0.03912 0.12644 0.0
H843 H 0.57343 0.03477 0.0812 0.0
H844 H 0.41318 0.56963 0.23171 0.0
H845 H 0.41933 0.56209 0.27782 0.0
H846 H 0.38301 0.6312 0.29819 0.0
H847 H 0.37625 0.63866 0.25191 0.0
H848 H 0.44587 0.59891 0.31463 0.0
H849 H 0.34787 0.5729 0.34154 0.0
H850 H 0.35803 0.57028 0.30832 0.0
H851 H 0.35429 0.60117 0.32343 0.0
C852 C 0.40614 0.58303 0.24596 0.0
C853 C 0.39416 0.60469 0.23818 0.0
C854 C 0.40981 0.57879 0.27227 0.0
C855 C 0.40148 0.59604 0.29129 0.0
C856 C 0.38936 0.6176 0.28372 0.0
H857 H 0.46574 0.56012 0.44209 0.0
H858 H 0.44398 0.58909 0.41419 0.0
C859 C 0.38571 0.6219 0.25734 0.0
C860 C 0.40645 0.59151 0.31897 0.0
H861 H 0.37927 0.56711 0.37273 0.0
C862 C 0.43134 0.59253 0.32766 0.0
C863 C 0.38731 0.58328 0.3357 0.0
C864 C 0.36032 0.58168 0.32694 0.0
C865 C 0.43785 0.58381 0.35208 0.0
C866 C 0.41881 0.57423 0.3684 0.0
C867 C 0.39375 0.5748 0.36033 0.0
C868 C 0.42499 0.55859 0.39067 0.0
C869 C 0.46518 0.58291 0.35921 0.0
C870 C 0.41975 0.5321 0.38805 0.0
C871 C 0.4319 0.51575 0.404 0.0
C872 C 0.44921 0.52565 0.42296 0.0
C873 C 0.45213 0.55217 0.4278 0.0
C874 C 0.43997 0.56866 0.41169 0.0
H875 H 0.47749 0.58835 0.34296 0.0
H876 H 0.46978 0.59635 0.376 0.0
H877 H 0.46947 0.56341 0.36492 0.0
H878 H 0.40823 0.52392 0.37201 0.0
H879 H 0.42949 0.49531 0.39993 0.0
H880 H 0.05229 0.39644 0.71981 0.0
H881 H 0.03973 0.41103 0.76316 0.0
H882 H 0.11586 0.43679 0.78183 0.0
H883 H 0.12837 0.42278 0.73833 0.0
H884 H 0.05488 0.39398 0.80901 0.0
H885 H 0.07949 0.49808 0.80591 0.0
H886 H 0.07825 0.47725 0.77713 0.0
H887 H 0.105 0.47845 0.79872 0.0
C888 C 0.06625 0.40552 0.73308 0.0
C889 C 0.09126 0.40862 0.7257 0.0
C890 C 0.05909 0.41381 0.75781 0.0
C891 C 0.07682 0.42523 0.77565 0.0
C892 C 0.10176 0.42861 0.7682 0.0
H893 H 0.05303 0.47962 0.93702 0.0
H894 H 0.07399 0.46036 0.89941 0.0
C895 C 0.10889 0.42058 0.74336 0.0
C896 C 0.06929 0.43234 0.80242 0.0
H897 H 0.06674 0.48254 0.84642 0.0
C898 C 0.05758 0.41333 0.8172 0.0
C899 C 0.07295 0.45757 0.81315 0.0
C900 C 0.08439 0.47908 0.79785 0.0
C901 C 0.04896 0.41899 0.84221 0.0
C902 C 0.05222 0.44425 0.85269 0.0
C903 C 0.06463 0.4631 0.83835 0.0
C904 C 0.03992 0.45229 0.87684 0.0
C905 C 0.03596 0.39809 0.8571 0.0
C906 C 0.01395 0.4536 0.87658 0.0
C907 C 0.00214 0.46472 0.89768 0.0
C908 C 0.01606 0.47451 0.91951 0.0
C909 C 0.04193 0.47188 0.92049 0.0
C910 C 0.05387 0.46108 0.89905 0.0
H911 H 0.04019 0.37879 0.84927 0.0
H912 H 0.04145 0.39983 0.87801 0.0
H913 H 0.0155 0.39987 0.85558 0.0
H914 H 0.00294 0.44718 0.8595 0.0
H915 H 0.98217 0.4666 0.89649 0.0
H916 H 0.79019 0.954 0.93888 0.0
H917 H 0.75058 0.97027 0.95328 0.0
H918 H 0.71264 0.89816 0.93012 0.0
H919 H 0.75217 0.88158 0.91602 0.0
H920 H 0.70223 0.97202 0.92306 0.0
H921 H 0.69735 0.91209 0.00959 0.0
H922 H 0.72611 0.91918 0.99294 0.0
H923 H 0.70366 0.89544 0.97942 0.0
C924 C 0.77343 0.94154 0.93695 0.0
C925 C 0.77441 0.91637 0.9265 0.0
C926 C 0.75081 0.95096 0.94501 0.0
C927 C 0.72876 0.93535 0.94296 0.0
C928 C 0.72952 0.91045 0.93204 0.0
H929 H 0.57752 0.9272 0.98197 0.0
H930 H 0.62048 0.92331 0.96987 0.0
C931 C 0.7521 0.90105 0.92385 0.0
C932 C 0.705 0.94469 0.95289 0.0
H933 H 0.66099 0.93307 -0.00146 0.0
C934 C 0.69321 0.96376 0.9397 0.0
C935 C 0.69355 0.93406 0.97477 0.0
C936 C 0.70585 0.91421 0.99021 0.0
C937 C 0.66943 0.97134 0.94689 0.0
C938 C 0.65745 0.95987 0.96818 0.0
C939 C 0.67001 0.94179 0.98213 0.0
C940 C 0.63091 0.9637 0.97464 0.0
C941 C 0.65685 0.9905 0.93081 0.0
C942 C 0.62207 0.98789 0.98123 0.0
C943 C 0.59694 0.9903 0.98787 0.0
C944 C 0.58052 0.96847 0.98858 0.0
C945 C 0.5896 0.94445 0.98201 0.0
C946 C 0.6143 0.94215 0.975 0.0
H947 H 0.66668 -0.00606 0.91234 0.0
H948 H 0.63722 0.98392 0.92616 0.0
H949 H 0.65673 0.009 0.94203 0.0
H950 H 0.63459 0.0048 0.98166 0.0
H951 H 0.5905 0.00905 0.99286 0.0
H952 H 0.72559 0.07779 0.42234 0.0
H953 H 0.76155 0.05728 0.44039 0.0
H954 H 0.80049 0.13097 0.45302 0.0
H955 H 0.76453 0.15168 0.43525 0.0
H956 H 0.81111 0.06525 0.41679 0.0
H957 H 0.81095 0.09213 0.52245 0.0
H958 H 0.78306 0.09137 0.50223 0.0
H959 H 0.80636 0.11701 0.50002 0.0
C960 C 0.74156 0.08968 0.42953 0.0
C961 C 0.74226 0.11635 0.42731 0.0
C962 C 0.7621 0.07793 0.43974 0.0
C963 C 0.78353 0.09265 0.44823 0.0
C964 C 0.78398 0.11932 0.4469 0.0
H965 H 0.93267 0.05127 0.49564 0.0
H966 H 0.89439 0.07424 0.4897 0.0
C967 C 0.76352 0.13108 0.43653 0.0
C968 C 0.8063 0.07993 0.45586 0.0
H969 H 0.84535 0.06998 0.50707 0.0
C970 C 0.81856 0.06617 0.43654 0.0
C971 C 0.81614 0.08164 0.48153 0.0
C972 C 0.80346 0.09619 0.5029 0.0
C973 C 0.84049 0.05402 0.44215 0.0
C974 C 0.84999 0.05497 0.46802 0.0
C975 C 0.83794 0.06911 0.48732 0.0
C976 C 0.87212 0.04085 0.47519 0.0
C977 C 0.85351 0.04073 0.4201 0.0
C978 C 0.87191 0.01435 0.4702 0.0
C979 C 0.89368 0.0014 0.47318 0.0
C980 C 0.91596 0.01455 0.48185 0.0
C981 C 0.91572 0.0407 0.48892 0.0
C982 C 0.89392 0.05381 0.48549 0.0
H983 H 0.84842 0.04833 0.40101 0.0
H984 H 0.87409 0.04286 0.42271 0.0
H985 H 0.84779 0.02005 0.4195 0.0
H986 H 0.85511 0.00383 0.46299 0.0
H987 H 0.89324 0.98115 0.46796 0.0
H988 H 0.28274 0.61749 0.04623 0.0
H989 H 0.24002 0.60774 0.02985 0.0
H990 H 0.22417 0.56364 0.09715 0.0
H991 H 0.26674 0.57302 0.11351 0.0
H992 H 0.21552 0.55945 0.01832 0.0
H993 H 0.16739 0.61287 0.09569 0.0
H994 H 0.20037 0.61791 0.09001 0.0
H995 H 0.18895 0.59137 0.10842 0.0
C996 C 0.27018 0.60559 0.05746 0.0
C997 C 0.27808 0.59612 0.08125 0.0
C998 C 0.24577 0.60019 0.04814 0.0
C999 C 0.22885 0.5854 0.06254 0.0
C1000 C 0.23678 0.57565 0.08608 0.0
H1001 H 0.09609 0.49679 0.05483 0.0
H1002 H 0.13767 0.5177 0.05891 0.0
C1003 C 0.26112 0.581 0.09538 0.0
C1004 C 0.20308 0.57926 0.05276 0.0
H1005 H 0.14237 0.58055 0.07103 0.0
C1006 C 0.19946 0.56453 0.0295 0.0
C1007 C 0.18219 0.58613 0.0673 0.0
C1008 C 0.18486 0.60317 0.09161 0.0
C1009 C 0.17552 0.55501 0.02137 0.0
C1010 C 0.15492 0.56048 0.03685 0.0
C1011 C 0.15834 0.57641 0.05927 0.0
C1012 C 0.13027 0.54716 0.03211 0.0
C1013 C 0.17239 0.53801 -0.0029 0.0
C1014 C 0.11254 0.55673 0.01532 0.0
C1015 C 0.08856 0.54478 0.01288 0.0
C1016 C 0.08212 0.52323 0.02733 0.0
C1017 C 0.10034 0.51338 0.04347 0.0
C1018 C 0.12414 0.52528 0.04586 0.0
H1019 H 0.19006 0.53674 0.98635 0.0
H1020 H 0.16575 0.51849 0.00239 0.0
H1021 H 0.158 0.54538 0.98407 0.0
H1022 H 0.11707 0.5737 0.00463 0.0
H1023 H 0.07492 0.55284 0.00033 0.0
H1024 H 0.20334 0.39291 0.53383 0.0
H1025 H 0.24049 0.4076 0.51047 0.0
H1026 H 0.26112 0.46087 0.57415 0.0
H1027 H 0.22374 0.44685 0.59727 0.0
H1028 H 0.27134 0.4798 0.5235 0.0
H1029 H 0.3076 0.38375 0.53858 0.0
H1030 H 0.27822 0.38483 0.52152 0.0
H1031 H 0.28066 0.39457 0.55532 0.0
C1032 C 0.21541 0.40828 0.54252 0.0
C1033 C 0.21081 0.4185 0.56756 0.0
C1034 C 0.23671 0.41649 0.52923 0.0
C1035 C 0.25373 0.43498 0.5408 0.0
C1036 C 0.24825 0.44649 0.56494 0.0
H1037 H 0.40101 0.47521 0.56457 0.0
H1038 H 0.35737 0.46025 0.56082 0.0
C1039 C 0.227 0.43832 0.57821 0.0
C1040 C 0.27855 0.44048 0.52955 0.0
H1041 H 0.33567 0.41549 0.52404 0.0
C1042 C 0.28528 0.46561 0.5229 0.0
C1043 C 0.29669 0.4219 0.52901 0.0
C1044 C 0.29064 0.39476 0.5366 0.0
C1045 C 0.31005 0.47297 0.5171 0.0
C1046 C 0.32838 0.45472 0.51804 0.0
C1047 C 0.32139 0.42929 0.52311 0.0
C1048 C 0.35519 0.46266 0.51904 0.0
C1049 C 0.31694 0.50055 0.51192 0.0
C1050 C 0.36847 0.46859 0.49661 0.0
C1051 C 0.39369 0.47708 0.49865 0.0
C1052 C 0.40572 0.47995 0.52317 0.0
C1053 C 0.3923 0.47344 0.54541 0.0
C1054 C 0.36736 0.46481 0.54333 0.0
H1055 H 0.30037 0.51229 0.51121 0.0
H1056 H 0.32998 0.50878 0.52741 0.0
H1057 H 0.32672 0.50178 0.49315 0.0
H1058 H 0.35928 0.46692 0.47769 0.0
H1059 H 0.40355 0.482 0.4812 0.0
H1060 H 0.87707 0.77276 0.9594 0.0
H1061 H 0.89213 0.7335 0.97698 0.0
H1062 H 0.95325 0.73623 0.92378 0.0
H1063 H 0.93828 0.77514 0.90595 0.0
H1064 H 0.90099 0.68571 0.9522 0.0
H1065 H 0.98837 0.73207 0.99472 0.0
H1066 H 0.96255 0.75008 0.98436 0.0
H1067 H 0.98386 0.73798 0.96092 0.0
C1068 C 0.89358 0.76487 0.95126 0.0
C1069 C 0.90662 0.77735 0.93144 0.0
C1070 C 0.90224 0.7425 0.96144 0.0
C1071 C 0.92415 0.73226 0.95213 0.0
C1072 C 0.9367 0.74417 0.93179 0.0
H1073 H 0.0131 0.6047 0.96296 0.0
H1074 H 0.99512 0.64594 0.95831 0.0
C1075 C 0.92809 0.76645 0.92161 0.0
C1076 C 0.93395 0.709 0.96336 0.0
H1077 H 0.9861 0.68644 0.99125 0.0
C1078 C 0.91944 0.68588 0.96111 0.0
C1079 C 0.958 0.70929 0.97506 0.0
C1080 C 0.97403 0.73373 0.97917 0.0
C1081 C 0.92886 0.6628 0.96893 0.0
C1082 C 0.95328 0.66296 0.97983 0.0
C1083 C 0.96739 0.68628 0.98295 0.0
C1084 C 0.96549 0.63892 0.98552 0.0
C1085 C 0.91309 0.63828 0.96416 0.0
C1086 C 0.95552 0.62156 0.0033 0.0
C1087 C 0.96587 0.59777 0.00606 0.0
C1088 C 0.98637 0.59104 0.99111 0.0
C1089 C -0.00276 0.6092 0.97469 0.0
C1090 C 0.98694 0.63283 0.97196 0.0
H1091 H 0.89693 0.64081 0.95094 0.0
H1092 H 0.92436 0.62305 0.95561 0.0
H1093 H 0.90577 0.63171 0.98292 0.0
H1094 H 0.93931 0.62608 0.01444 0.0
H1095 H 0.95703 0.58419 0.01882 0.0
H1096 H 0.4215 0.73428 0.07243 0.0
H1097 H 0.42815 0.78014 0.06648 0.0
H1098 H 0.38637 0.79619 0.13539 0.0
H1099 H 0.38019 0.7502 0.14207 0.0
H1100 H 0.37484 0.82094 0.07927 0.0
H1101 H 0.47038 0.83381 0.12281 0.0
H1102 H 0.46338 0.80498 0.10323 0.0
H1103 H 0.44754 0.80988 0.13327 0.0
C1104 C 0.41402 0.74751 0.08656 0.0
C1105 C 0.40038 0.73858 0.10777 0.0
C1106 C 0.41771 0.77366 0.08304 0.0
C1107 C 0.40779 0.79135 0.10057 0.0
C1108 C 0.39411 0.78269 0.12171 0.0
H1109 H 0.46543 0.94492 0.06433 0.0
H1110 H 0.44277 0.91473 0.09212 0.0
C1111 C 0.39051 0.75646 0.12536 0.0
C1112 C 0.41158 0.81884 0.0961 0.0
H1113 H 0.45804 0.86556 0.09418 0.0
C1114 C 0.39277 0.83106 0.08312 0.0
C1115 C 0.43483 0.83196 0.10154 0.0
C1116 C 0.45523 0.81965 0.11615 0.0
C1117 C 0.39742 0.85546 0.07341 0.0
C1118 C 0.42153 0.86758 0.07659 0.0
C1119 C 0.43955 0.85627 0.09172 0.0
C1120 C 0.4301 0.8888 0.06025 0.0
C1121 C 0.37691 0.8674 0.05862 0.0
C1122 C 0.43001 0.88445 0.03321 0.0
C1123 C 0.44306 0.90134 0.01753 0.0
C1124 C 0.45644 0.92298 0.02854 0.0
C1125 C 0.45512 0.92842 0.05539 0.0
C1126 C 0.44223 0.91122 0.07124 0.0
H1127 H 0.35833 0.86154 0.0663 0.0
H1128 H 0.37928 0.88859 0.05961 0.0
H1129 H 0.37718 0.86068 0.03792 0.0
H1130 H 0.42134 0.86701 0.02434 0.0
H1131 H 0.44371 0.89673 -0.00314 0.0
H1132 H 0.04617 0.27491 0.59515 0.0
H1133 H 0.02566 0.23623 0.57474 0.0
H1134 H 0.06888 0.24718 0.50579 0.0
H1135 H 0.08992 0.28564 0.52641 0.0
H1136 H -0.00165 0.22253 0.52991 0.0
H1137 H 0.09055 0.17892 0.52911 0.0
H1138 H 0.08588 0.20907 0.54579 0.0
H1139 H 0.08875 0.20735 0.51104 0.0
C1140 C 0.05089 0.26941 0.57542 0.0
C1141 C 0.06985 0.28309 0.56248 0.0
C1142 C 0.03918 0.24728 0.56378 0.0
C1143 C 0.04613 0.23851 0.53896 0.0
C1144 C 0.06367 0.25325 0.5252 0.0
H1145 H 0.02058 0.07744 0.48951 0.0
H1146 H 0.02428 0.12346 0.48159 0.0
C1147 C 0.07561 0.27523 0.53695 0.0
C1148 C 0.03677 0.21277 0.52889 0.0
H1149 H 0.05577 0.15255 0.51632 0.0
C1150 C 0.01091 0.20731 0.52649 0.0
C1151 C 0.05318 0.19288 0.52443 0.0
C1152 C 0.08111 0.19717 0.52789 0.0
C1153 C 0.00102 0.18228 0.52086 0.0
C1154 C 0.01741 0.16227 0.51769 0.0
C1155 C 0.04324 0.168 0.51847 0.0
C1156 C 0.00869 0.13499 0.51846 0.0
C1157 C 0.97311 0.1773 0.51929 0.0
C1158 C -0.00213 0.12625 0.54131 0.0
C1159 C -0.00398 0.10021 0.54588 0.0
C1160 C 0.00473 0.08242 0.5276 0.0
C1161 C 0.01337 0.09084 0.50366 0.0
C1162 C 0.0156 0.11708 0.49922 0.0
H1163 H 0.96374 0.19447 0.51307 0.0
H1164 H 0.96776 0.16098 0.50555 0.0
H1165 H 0.96618 0.17262 0.53881 0.0
H1166 H 0.99294 0.13965 0.55668 0.0
H1167 H 0.98952 0.09411 0.56458 0.0
H1168 H 0.56771 0.23346 0.4031 0.0
H1169 H 0.54517 0.26828 0.42292 0.0
H1170 H 0.59951 0.2762 0.48574 0.0
H1171 H 0.62235 0.24156 0.4658 0.0
H1172 H 0.52354 0.27634 0.47068 0.0
H1173 H 0.60273 0.34732 0.45738 0.0
H1174 H 0.60175 0.31558 0.44246 0.0
H1175 H 0.61001 0.32061 0.47632 0.0
C1176 C 0.57465 0.24233 0.42135 0.0
C1177 C 0.59692 0.2349 0.43279 0.0
C1178 C 0.56179 0.26229 0.43262 0.0
C1179 C 0.57091 0.27518 0.45555 0.0
C1180 C 0.59246 0.26696 0.46771 0.0
H1181 H 0.52328 0.42313 0.5159 0.0
H1182 H 0.53988 0.38048 0.51739 0.0
C1183 C 0.60545 0.24713 0.45634 0.0
C1184 C 0.55839 0.29788 0.46592 0.0
H1185 H 0.5668 0.36251 0.4765 0.0
C1186 C 0.53306 0.29515 0.47221 0.0
C1187 C 0.57084 0.32243 0.46798 0.0
C1188 C 0.59776 0.32682 0.46049 0.0
C1189 C 0.5197 0.31638 0.47991 0.0
C1190 C 0.53193 0.34102 0.48109 0.0
C1191 C 0.55749 0.34359 0.47584 0.0
C1192 C 0.51813 0.36469 0.48419 0.0
C1193 C 0.49252 0.31225 0.48633 0.0
C1194 C 0.49986 0.36971 0.4656 0.0
C1195 C 0.49038 0.39389 0.46479 0.0
C1196 C 0.49903 0.41364 0.48249 0.0
C1197 C 0.51597 0.40816 0.50231 0.0
C1198 C 0.52561 0.38388 0.50302 0.0
H1199 H 0.48843 0.29279 0.49354 0.0
H1200 H 0.4868 0.32658 0.5012 0.0
H1201 H 0.48103 0.31404 0.46845 0.0
H1202 H 0.49418 0.35549 0.45051 0.0
H1203 H 0.47744 0.39762 0.4492 0.0
loop_
_geom_bond_atom_site_label_1
_geom_bond_atom_site_label_2
_geom_bond_distance
_geom_bond_site_symmetry_2
_ccdc_geom_bond_type
P0 O11 1.490 . S
P0 C14 1.812 . S
P0 C20 1.803 . S
P0 C26 1.819 . S
H1 C15 0.941 . S
H2 C16 0.939 . S
H3 C18 0.940 . S
H4 C19 0.940 . S
H5 C21 0.939 . S
H6 C22 0.942 . S
H7 C24 0.940 . S
H8 C25 0.939 . S
H9 C27 0.941 . S
H10 C31 0.939 . S
O11 P0 1.490 . S
H12 C28 0.939 . S
H13 C30 0.940 . S
C14 P0 1.812 . S
C14 C15 1.389 . S
C14 C19 1.391 . S
C15 H1 0.941 . S
C15 C14 1.389 . S
C15 C16 1.397 . S
C16 H2 0.939 . S
C16 C15 1.397 . S
C16 C17 1.378 . S
C17 C16 1.378 . S
C17 C18 1.378 . S
C18 H3 0.940 . S
C18 C17 1.378 . S
C18 C19 1.396 . S
C19 H4 0.940 . S
C19 C14 1.391 . S
C19 C18 1.396 . S
C20 P0 1.803 . S
C20 C21 1.378 . S
C20 C25 1.400 . S
C21 H5 0.939 . S
C21 C20 1.378 . S
C21 C22 1.361 . S
C22 H6 0.942 . S
C22 C21 1.361 . S
C22 C23 1.369 . S
C23 C22 1.369 . S
C23 C24 1.404 . S
C24 H7 0.940 . S
C24 C23 1.404 . S
C24 C25 1.389 . S
C25 H8 0.939 . S
C25 C20 1.400 . S
C25 C24 1.389 . S
C26 P0 1.819 . S
C26 C27 1.391 . S
C26 C31 1.391 . S
C27 H9 0.941 . S
C27 C26 1.391 . S
C27 C28 1.396 . S
C28 H12 0.939 . S
C28 C27 1.396 . S
C28 C29 1.397 . S
C29 C28 1.397 . S
C29 C30 1.385 . S
C30 H13 0.940 . S
C30 C29 1.385 . S
C30 C31 1.388 . S
C31 H10 0.939 . S
C31 C26 1.391 . S
C31 C30 1.388 . S
P32 O43 1.490 . S
P32 C46 1.812 . S
P32 C52 1.803 . S
P32 C58 1.819 . S
H33 C47 0.941 . S
H34 C48 0.939 . S
H35 C50 0.940 . S
H36 C51 0.940 . S
H37 C53 0.939 . S
H38 C54 0.942 . S
H39 C56 0.940 . S
H40 C57 0.939 . S
H41 C59 0.941 . S
H42 C63 0.939 . S
O43 P32 1.490 . S
H44 C60 0.939 . S
H45 C62 0.940 . S
C46 P32 1.812 . S
C46 C47 1.389 . S
C46 C51 1.391 . S
C47 H33 0.941 . S
C47 C46 1.389 . S
C47 C48 1.397 . S
C48 H34 0.939 . S
C48 C47 1.397 . S
C48 C49 1.378 . S
C49 C48 1.378 . S
C49 C50 1.378 . S
C50 H35 0.940 . S
C50 C49 1.378 . S
C50 C51 1.396 . S
C51 H36 0.940 . S
C51 C46 1.391 . S
C51 C50 1.396 . S
C52 P32 1.803 . S
C52 C53 1.378 . S
C52 C57 1.400 . S
C53 H37 0.939 . S
C53 C52 1.378 . S
C53 C54 1.361 . S
C54 H38 0.942 . S
C54 C53 1.361 . S
C54 C55 1.369 . S
C55 C54 1.369 . S
C55 C56 1.404 . S
C56 H39 0.940 . S
C56 C55 1.404 . S
C56 C57 1.389 . S
C57 H40 0.939 . S
C57 C52 1.400 . S
C57 C56 1.389 . S
C58 P32 1.819 . S
C58 C59 1.391 . S
C58 C63 1.391 . S
C59 H41 0.941 . S
C59 C58 1.391 . S
C59 C60 1.396 . S
C60 H44 0.939 . S
C60 C59 1.396 . S
C60 C61 1.397 . S
C61 C60 1.397 . S
C61 C62 1.385 . S
C62 H45 0.940 . S
C62 C61 1.385 . S
C62 C63 1.388 . S
C63 H42 0.939 . S
C63 C58 1.391 . S
C63 C62 1.388 . S
P64 O75 1.490 . S
P64 C78 1.812 . S
P64 C84 1.803 . S
P64 C90 1.819 . S
H65 C79 0.941 . S
H66 C80 0.939 . S
H67 C82 0.940 . S
H68 C83 0.940 . S
H69 C85 0.939 . S
H70 C86 0.942 . S
H71 C88 0.940 . S
H72 C89 0.939 . S
H73 C91 0.941 . S
H74 C95 0.939 . S
O75 P64 1.490 . S
H76 C92 0.939 . S
H77 C94 0.940 . S
C78 P64 1.812 . S
C78 C79 1.389 . S
C78 C83 1.391 . S
C79 H65 0.941 . S
C79 C78 1.389 . S
C79 C80 1.397 . S
C80 H66 0.939 . S
C80 C79 1.397 . S
C80 C81 1.378 . S
C81 C80 1.378 . S
C81 C82 1.378 . S
C82 H67 0.940 . S
C82 C81 1.378 . S
C82 C83 1.396 . S
C83 H68 0.940 . S
C83 C78 1.391 . S
C83 C82 1.396 . S
C84 P64 1.803 . S
C84 C85 1.378 . S
C84 C89 1.400 . S
C85 H69 0.939 . S
C85 C84 1.378 . S
C85 C86 1.361 . S
C86 H70 0.942 . S
C86 C85 1.361 . S
C86 C87 1.369 . S
C87 C86 1.369 . S
C87 C88 1.404 . S
C88 H71 0.940 . S
C88 C87 1.404 . S
C88 C89 1.389 . S
C89 H72 0.939 . S
C89 C84 1.400 . S
C89 C88 1.389 . S
C90 P64 1.819 . S
C90 C91 1.391 . S
C90 C95 1.391 . S
C91 H73 0.941 . S
C91 C90 1.391 . S
C91 C92 1.396 . S
C92 H76 0.939 . S
C92 C91 1.396 . S
C92 C93 1.397 . S
C93 C92 1.397 . S
C93 C94 1.385 . S
C94 H77 0.940 . S
C94 C93 1.385 . S
C94 C95 1.388 . S
C95 H74 0.939 . S
C95 C90 1.391 . S
C95 C94 1.388 . S
P96 O107 1.490 . S
P96 C110 1.812 . S
P96 C116 1.803 . S
P96 C122 1.819 . S
H97 C111 0.941 . S
H98 C112 0.939 . S
H99 C114 0.940 . S
H100 C115 0.940 . S
H101 C117 0.939 . S
H102 C118 0.942 . S
H103 C120 0.940 . S
H104 C121 0.939 . S
H105 C123 0.941 . S
H106 C127 0.939 . S
O107 P96 1.490 . S
H108 C124 0.939 . S
H109 C126 0.940 . S
C110 P96 1.812 . S
C110 C111 1.389 . S
C110 C115 1.391 . S
C111 H97 0.941 . S
C111 C110 1.389 . S
C111 C112 1.397 . S
C112 H98 0.939 . S
C112 C111 1.397 . S
C112 C113 1.378 . S
C113 C112 1.378 . S
C113 C114 1.378 . S
C114 H99 0.940 . S
C114 C113 1.378 . S
C114 C115 1.396 . S
C115 H100 0.940 . S
C115 C110 1.391 . S
C115 C114 1.396 . S
C116 P96 1.803 . S
C116 C117 1.378 . S
C116 C121 1.400 . S
C117 H101 0.939 . S
C117 C116 1.378 . S
C117 C118 1.361 . S
C118 H102 0.942 . S
C118 C117 1.361 . S
C118 C119 1.369 . S
C119 C118 1.369 . S
C119 C120 1.404 . S
C120 H103 0.940 . S
C120 C119 1.404 . S
C120 C121 1.389 . S
C121 H104 0.939 . S
C121 C116 1.400 . S
C121 C120 1.389 . S
C122 P96 1.819 . S
C122 C123 1.391 . S
C122 C127 1.391 . S
C123 H105 0.941 . S
C123 C122 1.391 . S
C123 C124 1.396 . S
C124 H108 0.939 . S
C124 C123 1.396 . S
C124 C125 1.397 . S
C125 C124 1.397 . S
C125 C126 1.385 . S
C126 H109 0.940 . S
C126 C125 1.385 . S
C126 C127 1.388 . S
C127 H106 0.939 . S
C127 C122 1.391 . S
C127 C126 1.388 . S
P128 O139 1.490 . S
P128 C142 1.812 . S
P128 C148 1.803 . S
P128 C154 1.819 . S
H129 C143 0.941 . S
H130 C144 0.939 . S
H131 C146 0.940 . S
H132 C147 0.940 . S
H133 C149 0.939 . S
H134 C150 0.942 . S
H135 C152 0.940 . S
H136 C153 0.939 . S
H137 C155 0.941 . S
H138 C159 0.939 . S
O139 P128 1.490 . S
H140 C156 0.939 . S
H141 C158 0.940 . S
C142 P128 1.812 . S
C142 C143 1.389 . S
C142 C147 1.391 . S
C143 H129 0.941 . S
C143 C142 1.389 . S
C143 C144 1.397 . S
C144 H130 0.939 . S
C144 C143 1.397 . S
C144 C145 1.378 . S
C145 C144 1.378 . S
C145 C146 1.378 . S
C146 H131 0.940 . S
C146 C145 1.378 . S
C146 C147 1.396 . S
C147 H132 0.940 . S
C147 C142 1.391 . S
C147 C146 1.396 . S
C148 P128 1.803 . S
C148 C149 1.378 . S
C148 C153 1.400 . S
C149 H133 0.939 . S
C149 C148 1.378 . S
C149 C150 1.361 . S
C150 H134 0.942 . S
C150 C149 1.361 . S
C150 C151 1.369 . S
C151 C150 1.369 . S
C151 C152 1.404 . S
C152 H135 0.940 . S
C152 C151 1.404 . S
C152 C153 1.389 . S
C153 H136 0.939 . S
C153 C148 1.400 . S
C153 C152 1.389 . S
C154 P128 1.819 . S
C154 C155 1.391 . S
C154 C159 1.391 . S
C155 H137 0.941 . S
C155 C154 1.391 . S
C155 C156 1.396 . S
C156 H140 0.939 . S
C156 C155 1.396 . S
C156 C157 1.397 . S
C157 C156 1.397 . S
C157 C158 1.385 . S
C158 H141 0.940 . S
C158 C157 1.385 . S
C158 C159 1.388 . S
C159 H138 0.939 . S
C159 C154 1.391 . S
C159 C158 1.388 . S
P160 O171 1.490 . S
P160 C174 1.812 . S
P160 C180 1.803 . S
P160 C186 1.819 . S
H161 C175 0.941 . S
H162 C176 0.939 . S
H163 C178 0.940 . S
H164 C179 0.940 . S
H165 C181 0.939 . S
H166 C182 0.942 . S
H167 C184 0.940 . S
H168 C185 0.939 . S
H169 C187 0.941 . S
H170 C191 0.939 . S
O171 P160 1.490 . S
H172 C188 0.939 . S
H173 C190 0.940 . S
C174 P160 1.812 . S
C174 C175 1.389 . S
C174 C179 1.391 . S
C175 H161 0.941 . S
C175 C174 1.389 . S
C175 C176 1.397 . S
C176 H162 0.939 . S
C176 C175 1.397 . S
C176 C177 1.378 . S
C177 C176 1.378 . S
C177 C178 1.378 . S
C178 H163 0.940 . S
C178 C177 1.378 . S
C178 C179 1.396 . S
C179 H164 0.940 . S
C179 C174 1.391 . S
C179 C178 1.396 . S
C180 P160 1.803 . S
C180 C181 1.378 . S
C180 C185 1.400 . S
C181 H165 0.939 . S
C181 C180 1.378 . S
C181 C182 1.361 . S
C182 H166 0.942 . S
C182 C181 1.361 . S
C182 C183 1.369 . S
C183 C182 1.369 . S
C183 C184 1.404 . S
C184 H167 0.940 . S
C184 C183 1.404 . S
C184 C185 1.389 . S
C185 H168 0.939 . S
C185 C180 1.400 . S
C185 C184 1.389 . S
C186 P160 1.819 . S
C186 C187 1.391 . S
C186 C191 1.391 . S
C187 H169 0.941 . S
C187 C186 1.391 . S
C187 C188 1.396 . S
C188 H172 0.939 . S
C188 C187 1.396 . S
C188 C189 1.397 . S
C189 C188 1.397 . S
C189 C190 1.385 . S
C190 H173 0.940 . S
C190 C189 1.385 . S
C190 C191 1.388 . S
C191 H170 0.939 . S
C191 C186 1.391 . S
C191 C190 1.388 . S
P192 O203 1.490 . S
P192 C206 1.812 . S
P192 C212 1.803 . S
P192 C218 1.819 . S
H193 C207 0.941 . S
H194 C208 0.939 . S
H195 C210 0.940 . S
H196 C211 0.940 . S
H197 C213 0.939 . S
H198 C214 0.942 . S
H199 C216 0.940 . S
H200 C217 0.939 . S
H201 C219 0.941 . S
H202 C223 0.939 . S
O203 P192 1.490 . S
H204 C220 0.939 . S
H205 C222 0.940 . S
C206 P192 1.812 . S
C206 C207 1.389 . S
C206 C211 1.391 . S
C207 H193 0.941 . S
C207 C206 1.389 . S
C207 C208 1.397 . S
C208 H194 0.939 . S
C208 C207 1.397 . S
C208 C209 1.378 . S
C209 C208 1.378 . S
C209 C210 1.378 . S
C210 H195 0.940 . S
C210 C209 1.378 . S
C210 C211 1.396 . S
C211 H196 0.940 . S
C211 C206 1.391 . S
C211 C210 1.396 . S
C212 P192 1.803 . S
C212 C213 1.378 . S
C212 C217 1.400 . S
C213 H197 0.939 . S
C213 C212 1.378 . S
C213 C214 1.361 . S
C214 H198 0.942 . S
C214 C213 1.361 . S
C214 C215 1.369 . S
C215 C214 1.369 . S
C215 C216 1.404 . S
C216 H199 0.940 . S
C216 C215 1.404 . S
C216 C217 1.389 . S
C217 H200 0.939 . S
C217 C212 1.400 . S
C217 C216 1.389 . S
C218 P192 1.819 . S
C218 C219 1.391 . S
C218 C223 1.391 . S
C219 H201 0.941 . S
C219 C218 1.391 . S
C219 C220 1.396 . S
C220 H204 0.939 . S
C220 C219 1.396 . S
C220 C221 1.397 . S
C221 C220 1.397 . S
C221 C222 1.385 . S
C222 H205 0.940 . S
C222 C221 1.385 . S
C222 C223 1.388 . S
C223 H202 0.939 . S
C223 C218 1.391 . S
C223 C222 1.388 . S
P224 O235 1.490 . S
P224 C238 1.812 . S
P224 C244 1.803 . S
P224 C250 1.819 . S
H225 C239 0.941 . S
H226 C240 0.939 . S
H227 C242 0.940 . S
H228 C243 0.940 . S
H229 C245 0.939 . S
H230 C246 0.942 . S
H231 C248 0.940 . S
H232 C249 0.939 . S
H233 C251 0.941 . S
H234 C255 0.939 . S
O235 P224 1.490 . S
H236 C252 0.939 . S
H237 C254 0.940 . S
C238 P224 1.812 . S
C238 C239 1.389 . S
C238 C243 1.391 . S
C239 H225 0.941 . S
C239 C238 1.389 . S
C239 C240 1.397 . S
C240 H226 0.939 . S
C240 C239 1.397 . S
C240 C241 1.378 . S
C241 C240 1.378 . S
C241 C242 1.378 . S
C242 H227 0.940 . S
C242 C241 1.378 . S
C242 C243 1.396 . S
C243 H228 0.940 . S
C243 C238 1.391 . S
C243 C242 1.396 . S
C244 P224 1.803 . S
C244 C245 1.378 . S
C244 C249 1.400 . S
C245 H229 0.939 . S
C245 C244 1.378 . S
C245 C246 1.361 . S
C246 H230 0.942 . S
C246 C245 1.361 . S
C246 C247 1.369 . S
C247 C246 1.369 . S
C247 C248 1.404 . S
C248 H231 0.940 . S
C248 C247 1.404 . S
C248 C249 1.389 . S
C249 H232 0.939 . S
C249 C244 1.400 . S
C249 C248 1.389 . S
C250 P224 1.819 . S
C250 C251 1.391 . S
C250 C255 1.391 . S
C251 H233 0.941 . S
C251 C250 1.391 . S
C251 C252 1.396 . S
C252 H236 0.939 . S
C252 C251 1.396 . S
C252 C253 1.397 . S
C253 C252 1.397 . S
C253 C254 1.385 . S
C254 H237 0.940 . S
C254 C253 1.385 . S
C254 C255 1.388 . S
C255 H234 0.939 . S
C255 C250 1.391 . S
C255 C254 1.388 . S
O256 Mg257 1.990 . S
O256 C270 1.253 1_445 S
Mg257 O256 1.990 . S
Mg257 O260 2.180 . S
Mg257 O261 2.117 . S
Mg257 O275 2.030 1_545 S
O258 Mg259 2.072 1_665 S
O258 C270 1.260 . S
Mg259 O258 2.072 1_445 S
Mg259 O260 2.099 . S
Mg259 O262 2.079 . S
Mg259 O263 2.072 1_455 S
Mg259 O265 2.099 1_445 S
Mg259 O276 2.079 1_545 S
O260 Mg257 2.180 . S
O260 Mg259 2.099 . S
O260 C271 1.279 . S
O261 Mg257 2.117 . S
O261 C271 1.250 . S
O262 Mg259 2.079 . S
O262 C272 1.264 . S
O263 Mg259 2.072 1_655 S
O263 C273 1.260 . S
Mg264 O265 2.180 . S
Mg264 O266 2.030 1_565 S
Mg264 O267 1.990 1_565 S
Mg264 O268 2.117 . S
O265 Mg259 2.099 1_665 S
O265 Mg264 2.180 . S
O265 C274 1.279 . S
O266 Mg264 2.030 1_545 S
O266 C272 1.248 1_655 S
O267 Mg264 1.990 1_545 S
O267 C273 1.253 . S
O268 Mg264 2.117 . S
O268 C274 1.250 . S
C269 O275 1.248 . S
C269 O276 1.264 . S
C270 O256 1.253 1_665 S
C270 O258 1.260 . S
C271 O260 1.279 . S
C271 O261 1.250 . S
C272 O262 1.264 . S
C272 O266 1.248 1_455 S
C273 O263 1.260 . S
C273 O267 1.253 . S
C274 O265 1.279 . S
C274 O268 1.250 . S
O275 Mg257 2.030 1_565 S
O275 C269 1.248 . S
O276 Mg259 2.079 1_565 S
O276 C269 1.264 . S
O277 Mg278 1.990 . S
O277 C291 1.253 . S
Mg278 O277 1.990 . S
Mg278 O281 2.180 . S
Mg278 O282 2.117 1_554 S
Mg278 O296 2.030 . S
O279 Mg280 2.072 . S
O279 C291 1.260 . S
Mg280 O279 2.072 . S
Mg280 O281 2.099 . S
Mg280 O283 2.082 . S
Mg280 O284 2.072 1_554 S
Mg280 O286 2.099 1_545 S
Mg280 O297 2.079 . S
O281 Mg278 2.180 . S
O281 Mg280 2.099 . S
O281 C292 1.279 1_554 S
O282 Mg278 2.117 1_556 S
O282 C292 1.250 . S
O283 Mg280 2.082 . S
O283 C293 1.256 1_544 S
O284 Mg280 2.072 1_556 S
O284 C294 1.260 1_545 S
Mg285 O286 2.180 1_556 S
Mg285 O287 2.030 . S
Mg285 O288 1.990 . S
Mg285 O289 2.117 1_556 S
O286 Mg280 2.099 1_565 S
O286 Mg285 2.180 1_554 S
O286 C295 1.279 . S
O287 Mg285 2.030 . S
O287 C293 1.248 . S
O288 Mg285 1.990 . S
O288 C294 1.253 . S
O289 Mg285 2.117 1_554 S
O289 C295 1.250 . S
C290 O296 1.248 . S
C290 O297 1.264 . S
C291 O277 1.253 . S
C291 O279 1.260 . S
C292 O281 1.279 1_556 S
C292 O282 1.250 . S
C293 O283 1.256 1_566 S
C293 O287 1.248 . S
C294 O284 1.260 1_565 S
C294 O288 1.253 . S
C295 O286 1.279 . S
C295 O289 1.250 . S
O296 Mg278 2.030 . S
O296 C290 1.248 . S
O297 Mg280 2.079 . S
O297 C290 1.264 . S
O298 Mg299 1.990 . S
O298 C312 1.253 . S
Mg299 O298 1.990 . S
Mg299 O302 2.180 . S
Mg299 O303 2.117 . S
Mg299 O317 2.030 . S
O300 Mg301 2.072 . S
O300 C312 1.260 . S
Mg301 O300 2.072 . S
Mg301 O302 2.099 . S
Mg301 O304 2.079 . S
Mg301 O305 2.072 . S
Mg301 O307 2.099 . S
Mg301 O318 2.079 . S
O302 Mg299 2.180 . S
O302 Mg301 2.099 . S
O302 C313 1.279 . S
O303 Mg299 2.117 . S
O303 C313 1.250 . S
O304 Mg301 2.079 . S
O304 C314 1.264 . S
O305 Mg301 2.072 . S
O305 C315 1.260 . S
Mg306 O307 2.180 . S
Mg306 O308 2.030 . S
Mg306 O309 1.990 . S
Mg306 O310 2.117 . S
O307 Mg301 2.099 . S
O307 Mg306 2.180 . S
O307 C316 1.279 . S
O308 Mg306 2.030 . S
O308 C314 1.248 . S
O309 Mg306 1.990 . S
O309 C315 1.253 . S
O310 Mg306 2.117 . S
O310 C316 1.250 . S
C311 O317 1.248 . S
C311 O318 1.264 . S
C312 O298 1.253 . S
C312 O300 1.260 . S
C313 O302 1.279 . S
C313 O303 1.250 . S
C314 O304 1.264 . S
C314 O308 1.248 . S
C315 O305 1.260 . S
C315 O309 1.253 . S
C316 O307 1.279 . S
C316 O310 1.250 . S
O317 Mg299 2.030 . S
O317 C311 1.248 . S
O318 Mg301 2.079 . S
O318 C311 1.264 . S
O319 Mg320 1.990 . S
O319 C333 1.253 . S
Mg320 O319 1.990 . S
Mg320 O323 2.180 1_455 S
Mg320 O324 2.117 1_455 S
Mg320 O338 2.030 . S
O321 Mg322 2.072 . S
O321 C333 1.260 . S
Mg322 O321 2.072 . S
Mg322 O323 2.099 1_455 S
Mg322 O325 2.079 1_454 S
Mg322 O326 2.072 1_455 S
Mg322 O328 2.099 1_554 S
Mg322 O339 2.079 . S
O323 Mg320 2.180 1_655 S
O323 Mg322 2.099 1_655 S
O323 C334 1.279 . S
O324 Mg320 2.117 1_655 S
O324 C334 1.250 . S
O325 Mg322 2.079 1_656 S
O325 C335 1.264 . S
O326 Mg322 2.072 1_655 S
O326 C336 1.260 1_554 S
Mg327 O328 2.180 1_655 S
Mg327 O329 2.030 . S
Mg327 O330 1.990 . S
Mg327 O331 2.117 . S
O328 Mg322 2.099 1_556 S
O328 Mg327 2.180 1_455 S
O328 C337 1.279 . S
O329 Mg327 2.030 . S
O329 C335 1.248 . S
O330 Mg327 1.990 . S
O330 C336 1.253 . S
O331 Mg327 2.117 . S
O331 C337 1.250 1_655 S
C332 O338 1.248 . S
C332 O339 1.264 . S
C333 O319 1.253 . S
C333 O321 1.260 . S
C334 O323 1.279 . S
C334 O324 1.250 . S
C335 O325 1.264 . S
C335 O329 1.248 . S
C336 O326 1.260 1_556 S
C336 O330 1.253 . S
C337 O328 1.279 . S
C337 O331 1.250 1_455 S
O338 Mg320 2.030 . S
O338 C332 1.248 . S
O339 Mg322 2.079 . S
O339 C332 1.264 . S
H340 C348 0.929 . S
H341 C350 0.930 . S
H342 C352 0.930 . S
H343 C355 0.929 . S
H344 C358 0.930 . S
H345 C360 0.960 . S
H346 C360 0.960 . S
H347 C360 0.960 . S
C348 H340 0.929 . S
C348 C349 1.377 . S
C348 C350 1.384 . S
C349 C348 1.377 . S
C349 C355 1.390 . S
C350 H341 0.930 . S
C350 C348 1.384 . S
C350 C351 1.372 . S
C351 C350 1.372 . S
C351 C352 1.400 . S
C351 C356 1.490 . S
C352 H342 0.930 . S
C352 C351 1.400 . S
C352 C355 1.386 . S
H353 C369 0.930 . S
H354 C370 0.931 . S
C355 H343 0.929 . S
C355 C349 1.390 . S
C355 C352 1.386 . S
C356 C351 1.490 . S
C356 C358 1.395 . S
C356 C359 1.403 . S
H357 C363 0.930 . S
C358 H344 0.930 . S
C358 C356 1.395 . S
C358 C361 1.403 . S
C359 C356 1.403 . S
C359 C360 1.524 . S
C359 C363 1.400 . S
C360 H345 0.960 . S
C360 H346 0.960 . S
C360 H347 0.960 . S
C360 C359 1.524 . S
C361 C358 1.403 . S
C361 C362 1.392 . S
C361 C365 1.495 . S
C362 C361 1.392 . S
C362 C363 1.385 . S
C362 C364 1.478 . S
C363 H357 0.930 . S
C363 C359 1.400 . S
C363 C362 1.385 . S
C364 C362 1.478 . S
C364 C366 1.381 . S
C364 C370 1.383 . S
C365 C361 1.495 . S
C365 H371 0.959 . S
C365 H372 0.961 . S
C365 H373 0.960 . S
C366 C364 1.381 . S
C366 C367 1.394 . S
C366 H374 0.930 . S
C367 C366 1.394 . S
C367 C368 1.383 . S
C367 H375 0.929 1_545 S
C368 C367 1.383 . S
C368 C369 1.377 . S
C369 H353 0.930 . S
C369 C368 1.377 . S
C369 C370 1.379 . S
C370 H354 0.931 . S
C370 C364 1.383 . S
C370 C369 1.379 . S
H371 C365 0.959 . S
H372 C365 0.961 . S
H373 C365 0.960 . S
H374 C366 0.930 . S
H375 C367 0.929 1_565 S
H376 C384 0.929 . S
H377 C386 0.930 . S
H378 C388 0.930 . S
H379 C391 0.929 . S
H380 C394 0.930 . S
H381 C396 0.960 1_545 S
H382 C396 0.960 . S
H383 C396 0.960 . S
C384 H376 0.929 . S
C384 C385 1.377 . S
C384 C386 1.384 . S
C385 C384 1.377 . S
C385 C391 1.390 . S
C386 H377 0.930 . S
C386 C384 1.384 . S
C386 C387 1.372 . S
C387 C386 1.372 . S
C387 C388 1.400 . S
C387 C392 1.490 . S
C388 H378 0.930 . S
C388 C387 1.400 . S
C388 C391 1.386 . S
H389 C405 0.930 1_545 S
H390 C406 0.931 . S
C391 H379 0.929 . S
C391 C385 1.390 . S
C391 C388 1.386 . S
C392 C387 1.490 . S
C392 C394 1.395 . S
C392 C395 1.403 . S
H393 C399 0.930 . S
C394 H380 0.930 . S
C394 C392 1.395 . S
C394 C397 1.403 . S
C395 C392 1.403 . S
C395 C396 1.524 . S
C395 C399 1.400 . S
C396 H381 0.960 1_565 S
C396 H382 0.960 . S
C396 H383 0.960 . S
C396 C395 1.524 . S
C397 C394 1.403 . S
C397 C398 1.392 . S
C397 C401 1.495 . S
C398 C397 1.392 . S
C398 C399 1.385 . S
C398 C400 1.478 . S
C399 H393 0.930 . S
C399 C395 1.400 . S
C399 C398 1.385 . S
C400 C398 1.478 . S
C400 C402 1.381 . S
C400 C406 1.383 . S
C401 C397 1.495 . S
C401 H407 0.959 . S
C401 H408 0.961 . S
C401 H409 0.960 . S
C402 C400 1.381 . S
C402 C403 1.394 . S
C402 H410 0.930 . S
C403 C402 1.394 . S
C403 C404 1.383 . S
C403 H411 0.929 . S
C404 C403 1.383 . S
C404 C405 1.377 . S
C405 H389 0.930 1_565 S
C405 C404 1.377 . S
C405 C406 1.379 . S
C406 H390 0.931 . S
C406 C400 1.383 . S
C406 C405 1.379 . S
H407 C401 0.959 . S
H408 C401 0.961 . S
H409 C401 0.960 . S
H410 C402 0.930 . S
H411 C403 0.929 . S
H412 C420 0.929 . S
H413 C422 0.930 . S
H414 C424 0.930 . S
H415 C427 0.929 . S
H416 C430 0.930 . S
H417 C432 0.960 . S
H418 C432 0.960 . S
H419 C432 0.960 . S
C420 H412 0.929 . S
C420 C421 1.377 . S
C420 C422 1.384 . S
C421 C420 1.377 . S
C421 C427 1.390 . S
C422 H413 0.930 . S
C422 C420 1.384 . S
C422 C423 1.372 . S
C423 C422 1.372 . S
C423 C424 1.400 . S
C423 C428 1.490 . S
C424 H414 0.930 . S
C424 C423 1.400 . S
C424 C427 1.386 . S
H425 C441 0.930 . S
H426 C442 0.931 . S
C427 H415 0.929 . S
C427 C421 1.390 . S
C427 C424 1.386 . S
C428 C423 1.490 . S
C428 C430 1.395 . S
C428 C431 1.403 . S
H429 C435 0.930 . S
C430 H416 0.930 . S
C430 C428 1.395 . S
C430 C433 1.403 . S
C431 C428 1.403 . S
C431 C432 1.524 . S
C431 C435 1.400 . S
C432 H417 0.960 . S
C432 H418 0.960 . S
C432 H419 0.960 . S
C432 C431 1.524 . S
C433 C430 1.403 . S
C433 C434 1.392 . S
C433 C437 1.495 . S
C434 C433 1.392 . S
C434 C435 1.385 . S
C434 C436 1.478 . S
C435 H429 0.930 . S
C435 C431 1.400 . S
C435 C434 1.385 . S
C436 C434 1.478 . S
C436 C438 1.381 . S
C436 C442 1.383 . S
C437 C433 1.495 . S
C437 H443 0.959 . S
C437 H444 0.961 . S
C437 H445 0.960 . S
C438 C436 1.381 . S
C438 C439 1.394 . S
C438 H446 0.930 . S
C439 C438 1.394 . S
C439 C440 1.383 . S
C439 H447 0.929 . S
C440 C439 1.383 . S
C440 C441 1.377 . S
C441 H425 0.930 . S
C441 C440 1.377 . S
C441 C442 1.379 . S
C442 H426 0.931 . S
C442 C436 1.383 . S
C442 C441 1.379 . S
H443 C437 0.959 . S
H444 C437 0.961 . S
H445 C437 0.960 . S
H446 C438 0.930 . S
H447 C439 0.929 . S
H448 C456 0.929 . S
H449 C458 0.930 . S
H450 C460 0.930 . S
H451 C463 0.929 . S
H452 C466 0.930 . S
H453 C468 0.960 . S
H454 C468 0.960 . S
H455 C468 0.960 . S
C456 H448 0.929 . S
C456 C457 1.377 . S
C456 C458 1.384 . S
C457 C456 1.377 . S
C457 C463 1.390 . S
C458 H449 0.930 . S
C458 C456 1.384 . S
C458 C459 1.372 . S
C459 C458 1.372 . S
C459 C460 1.400 . S
C459 C464 1.490 . S
C460 H450 0.930 . S
C460 C459 1.400 . S
C460 C463 1.386 . S
H461 C477 0.930 . S
H462 C478 0.931 . S
C463 H451 0.929 . S
C463 C457 1.390 . S
C463 C460 1.386 . S
C464 C459 1.490 . S
C464 C466 1.395 . S
C464 C467 1.403 . S
H465 C471 0.930 . S
C466 H452 0.930 . S
C466 C464 1.395 . S
C466 C469 1.403 . S
C467 C464 1.403 . S
C467 C468 1.524 . S
C467 C471 1.400 . S
C468 H453 0.960 . S
C468 H454 0.960 . S
C468 H455 0.960 . S
C468 C467 1.524 . S
C469 C466 1.403 . S
C469 C470 1.392 . S
C469 C473 1.495 . S
C470 C469 1.392 . S
C470 C471 1.385 . S
C470 C472 1.478 . S
C471 H465 0.930 . S
C471 C467 1.400 . S
C471 C470 1.385 . S
C472 C470 1.478 . S
C472 C474 1.381 . S
C472 C478 1.383 . S
C473 C469 1.495 . S
C473 H479 0.959 . S
C473 H480 0.961 . S
C473 H481 0.960 . S
C474 C472 1.381 . S
C474 C475 1.394 . S
C474 H482 0.930 . S
C475 C474 1.394 . S
C475 C476 1.383 . S
C475 H483 0.929 1_655 S
C476 C475 1.383 . S
C476 C477 1.377 . S
C477 H461 0.930 . S
C477 C476 1.377 . S
C477 C478 1.379 . S
C478 H462 0.931 . S
C478 C472 1.383 . S
C478 C477 1.379 . S
H479 C473 0.959 . S
H480 C473 0.961 . S
H481 C473 0.960 . S
H482 C474 0.930 . S
H483 C475 0.929 1_455 S
H484 C492 0.929 . S
H485 C494 0.930 . S
H486 C496 0.930 . S
H487 C499 0.929 . S
H488 C502 0.930 . S
H489 C504 0.960 . S
H490 C504 0.960 . S
H491 C504 0.960 . S
C492 H484 0.929 . S
C492 C493 1.377 . S
C492 C494 1.384 . S
C493 C492 1.377 . S
C493 C499 1.390 . S
C494 H485 0.930 . S
C494 C492 1.384 . S
C494 C495 1.372 . S
C495 C494 1.372 . S
C495 C496 1.400 . S
C495 C500 1.490 . S
C496 H486 0.930 . S
C496 C495 1.400 . S
C496 C499 1.386 . S
H497 C513 0.930 . S
H498 C514 0.931 . S
C499 H487 0.929 . S
C499 C493 1.390 . S
C499 C496 1.386 . S
C500 C495 1.490 . S
C500 C502 1.395 . S
C500 C503 1.403 . S
H501 C507 0.930 . S
C502 H488 0.930 . S
C502 C500 1.395 . S
C502 C505 1.403 . S
C503 C500 1.403 . S
C503 C504 1.524 . S
C503 C507 1.400 . S
C504 H489 0.960 . S
C504 H490 0.960 . S
C504 H491 0.960 . S
C504 C503 1.524 . S
C505 C502 1.403 . S
C505 C506 1.392 . S
C505 C509 1.495 . S
C506 C505 1.392 . S
C506 C507 1.385 . S
C506 C508 1.478 . S
C507 H501 0.930 . S
C507 C503 1.400 . S
C507 C506 1.385 . S
C508 C506 1.478 . S
C508 C510 1.381 . S
C508 C514 1.383 . S
C509 C505 1.495 . S
C509 H515 0.959 . S
C509 H516 0.961 . S
C509 H517 0.960 . S
C510 C508 1.381 . S
C510 C511 1.394 . S
C510 H518 0.930 . S
C511 C510 1.394 . S
C511 C512 1.383 . S
C511 H519 0.929 . S
C512 C511 1.383 . S
C512 C513 1.377 . S
C513 H497 0.930 . S
C513 C512 1.377 . S
C513 C514 1.379 . S
C514 H498 0.931 . S
C514 C508 1.383 . S
C514 C513 1.379 . S
H515 C509 0.959 . S
H516 C509 0.961 . S
H517 C509 0.960 . S
H518 C510 0.930 . S
H519 C511 0.929 . S
H520 C528 0.929 . S
H521 C530 0.930 . S
H522 C532 0.930 . S
H523 C535 0.929 . S
H524 C538 0.930 . S
H525 C540 0.960 . S
H526 C540 0.960 . S
H527 C540 0.960 . S
C528 H520 0.929 . S
C528 C529 1.377 . S
C528 C530 1.384 . S
C529 C528 1.377 . S
C529 C535 1.390 . S
C530 H521 0.930 . S
C530 C528 1.384 . S
C530 C531 1.372 . S
C531 C530 1.372 . S
C531 C532 1.400 . S
C531 C536 1.490 . S
C532 H522 0.930 . S
C532 C531 1.400 . S
C532 C535 1.386 . S
H533 C549 0.930 . S
H534 C550 0.931 . S
C535 H523 0.929 . S
C535 C529 1.390 . S
C535 C532 1.386 . S
C536 C531 1.490 . S
C536 C538 1.395 . S
C536 C539 1.403 . S
H537 C543 0.930 . S
C538 H524 0.930 . S
C538 C536 1.395 . S
C538 C541 1.403 . S
C539 C536 1.403 . S
C539 C540 1.524 . S
C539 C543 1.400 . S
C540 H525 0.960 . S
C540 H526 0.960 . S
C540 H527 0.960 . S
C540 C539 1.524 . S
C541 C538 1.403 . S
C541 C542 1.392 . S
C541 C545 1.495 . S
C542 C541 1.392 . S
C542 C543 1.385 . S
C542 C544 1.478 . S
C543 H537 0.930 . S
C543 C539 1.400 . S
C543 C542 1.385 . S
C544 C542 1.478 . S
C544 C546 1.381 . S
C544 C550 1.383 . S
C545 C541 1.495 . S
C545 H551 0.959 . S
C545 H552 0.961 . S
C545 H553 0.960 . S
C546 C544 1.381 . S
C546 C547 1.394 . S
C546 H554 0.930 . S
C547 C546 1.394 . S
C547 C548 1.383 . S
C547 H555 0.929 . S
C548 C547 1.383 . S
C548 C549 1.377 . S
C549 H533 0.930 . S
C549 C548 1.377 . S
C549 C550 1.379 . S
C550 H534 0.931 . S
C550 C544 1.383 . S
C550 C549 1.379 . S
H551 C545 0.959 . S
H552 C545 0.961 . S
H553 C545 0.960 . S
H554 C546 0.930 . S
H555 C547 0.929 . S
H556 C564 0.929 . S
H557 C566 0.930 . S
H558 C568 0.930 . S
H559 C571 0.929 . S
H560 C574 0.930 . S
H561 C576 0.999 . S
H562 C576 0.960 . S
H563 C576 0.960 . S
C564 H556 0.929 . S
C564 C565 1.377 . S
C564 C566 1.384 . S
C565 C564 1.377 . S
C565 C571 1.390 . S
C566 H557 0.930 . S
C566 C564 1.384 . S
C566 C567 1.372 . S
C567 C566 1.372 . S
C567 C568 1.400 . S
C567 C572 1.490 . S
C568 H558 0.930 . S
C568 C567 1.400 . S
C568 C571 1.386 . S
H569 C585 0.922 1_554 S
H570 C586 0.931 . S
C571 H559 0.929 . S
C571 C565 1.390 . S
C571 C568 1.386 . S
C572 C567 1.490 . S
C572 C574 1.395 . S
C572 C575 1.403 . S
H573 C579 0.930 . S
C574 H560 0.930 . S
C574 C572 1.395 . S
C574 C577 1.403 . S
C575 C572 1.403 . S
C575 C576 1.524 . S
C575 C579 1.400 . S
C576 H561 0.999 . S
C576 H562 0.960 . S
C576 H563 0.960 . S
C576 C575 1.524 . S
C577 C574 1.403 . S
C577 C578 1.392 . S
C577 C581 1.495 . S
C578 C577 1.392 . S
C578 C579 1.385 . S
C578 C580 1.478 . S
C579 H573 0.930 . S
C579 C575 1.400 . S
C579 C578 1.385 . S
C580 C578 1.478 . S
C580 C582 1.381 . S
C580 C586 1.383 . S
C581 C577 1.495 . S
C581 H587 0.959 . S
C581 H588 0.961 . S
C581 H589 0.960 . S
C582 C580 1.381 . S
C582 C583 1.394 . S
C582 H590 0.930 . S
C583 C582 1.394 . S
C583 C584 1.383 . S
C583 H591 0.929 . S
C584 C583 1.383 . S
C584 C585 1.377 . S
C585 H569 0.922 1_556 S
C585 C584 1.377 . S
C585 C586 1.379 . S
C586 H570 0.931 . S
C586 C580 1.383 . S
C586 C585 1.379 . S
H587 C581 0.959 . S
H588 C581 0.961 . S
H589 C581 0.960 . S
H590 C582 0.930 . S
H591 C583 0.929 . S
H592 C600 0.929 . S
H593 C602 0.930 . S
H594 C604 0.930 . S
H595 C607 0.929 . S
H596 C610 0.930 . S
H597 C612 0.960 . S
H598 C612 0.960 . S
H599 C612 0.960 . S
C600 H592 0.929 . S
C600 C601 1.377 . S
C600 C602 1.384 . S
C601 C600 1.377 . S
C601 C607 1.390 . S
C602 H593 0.930 . S
C602 C600 1.384 . S
C602 C603 1.372 . S
C603 C602 1.372 . S
C603 C604 1.400 . S
C603 C608 1.490 . S
C604 H594 0.930 . S
C604 C603 1.400 . S
C604 C607 1.386 . S
H605 C621 0.930 . S
H606 C622 0.931 . S
C607 H595 0.929 . S
C607 C601 1.390 . S
C607 C604 1.386 . S
C608 C603 1.490 . S
C608 C610 1.395 . S
C608 C611 1.403 . S
H609 C615 0.930 . S
C610 H596 0.930 . S
C610 C608 1.395 . S
C610 C613 1.403 . S
C611 C608 1.403 . S
C611 C612 1.524 . S
C611 C615 1.400 . S
C612 H597 0.960 . S
C612 H598 0.960 . S
C612 H599 0.960 . S
C612 C611 1.524 . S
C613 C610 1.403 . S
C613 C614 1.392 . S
C613 C617 1.495 . S
C614 C613 1.392 . S
C614 C615 1.385 . S
C614 C616 1.478 . S
C615 H609 0.930 . S
C615 C611 1.400 . S
C615 C614 1.385 . S
C616 C614 1.478 . S
C616 C618 1.381 . S
C616 C622 1.383 . S
C617 C613 1.495 . S
C617 H623 0.959 . S
C617 H624 0.961 . S
C617 H625 0.960 . S
C618 C616 1.381 . S
C618 C619 1.394 . S
C618 H626 0.930 . S
C619 C618 1.394 . S
C619 C620 1.383 . S
C619 H627 0.929 . S
C620 C619 1.383 . S
C620 C621 1.377 . S
C621 H605 0.930 . S
C621 C620 1.377 . S
C621 C622 1.379 . S
C622 H606 0.931 . S
C622 C616 1.383 . S
C622 C621 1.379 . S
H623 C617 0.959 . S
H624 C617 0.961 . S
H625 C617 0.960 . S
H626 C618 0.930 . S
H627 C619 0.929 . S
H628 C636 0.929 . S
H629 C638 0.930 . S
H630 C640 0.930 . S
H631 C643 0.929 . S
H632 C646 0.930 . S
H633 C648 0.960 . S
H634 C648 0.960 . S
H635 C648 0.960 . S
C636 H628 0.929 . S
C636 C637 1.377 . S
C636 C638 1.384 . S
C637 C636 1.377 . S
C637 C643 1.390 . S
C638 H629 0.930 . S
C638 C636 1.384 . S
C638 C639 1.372 . S
C639 C638 1.372 . S
C639 C640 1.400 . S
C639 C644 1.490 . S
C640 H630 0.930 . S
C640 C639 1.400 . S
C640 C643 1.386 . S
H641 C657 0.930 . S
H642 C658 0.931 . S
C643 H631 0.929 . S
C643 C637 1.390 . S
C643 C640 1.386 . S
C644 C639 1.490 . S
C644 C646 1.395 . S
C644 C647 1.403 . S
H645 C651 0.930 . S
C646 H632 0.930 . S
C646 C644 1.395 . S
C646 C649 1.403 . S
C647 C644 1.403 . S
C647 C648 1.524 . S
C647 C651 1.400 . S
C648 H633 0.960 . S
C648 H634 0.960 . S
C648 H635 0.960 . S
C648 C647 1.524 . S
C649 C646 1.403 . S
C649 C650 1.392 . S
C649 C653 1.495 . S
C650 C649 1.392 . S
C650 C651 1.385 . S
C650 C652 1.478 . S
C651 H645 0.930 . S
C651 C647 1.400 . S
C651 C650 1.385 . S
C652 C650 1.478 . S
C652 C654 1.381 . S
C652 C658 1.383 . S
C653 C649 1.495 . S
C653 H659 0.959 . S
C653 H660 0.961 . S
C653 H661 0.960 . S
C654 C652 1.381 . S
C654 C655 1.394 . S
C654 H662 0.930 . S
C655 C654 1.394 . S
C655 C656 1.383 . S
C655 H663 0.931 1_455 S
C656 C655 1.383 . S
C656 C657 1.377 . S
C657 H641 0.930 . S
C657 C656 1.377 . S
C657 C658 1.379 . S
C658 H642 0.931 . S
C658 C652 1.383 . S
C658 C657 1.379 . S
H659 C653 0.959 . S
H660 C653 0.961 . S
H661 C653 0.960 . S
H662 C654 0.930 . S
H663 C655 0.931 1_655 S
H664 C672 0.929 . S
H665 C674 0.930 . S
H666 C676 0.930 . S
H667 C679 0.929 . S
H668 C682 0.930 . S
H669 C684 0.960 . S
H670 C684 0.960 . S
H671 C684 0.960 . S
C672 H664 0.929 . S
C672 C673 1.377 . S
C672 C674 1.384 . S
C673 C672 1.377 . S
C673 C679 1.390 . S
C674 H665 0.930 . S
C674 C672 1.384 . S
C674 C675 1.372 . S
C675 C674 1.372 . S
C675 C676 1.400 . S
C675 C680 1.490 . S
C676 H666 0.930 . S
C676 C675 1.400 . S
C676 C679 1.386 . S
H677 C693 0.930 . S
H678 C694 0.931 . S
C679 H667 0.929 . S
C679 C673 1.390 . S
C679 C676 1.386 . S
C680 C675 1.490 . S
C680 C682 1.395 . S
C680 C683 1.403 . S
H681 C687 0.930 . S
C682 H668 0.930 . S
C682 C680 1.395 . S
C682 C685 1.403 . S
C683 C680 1.403 . S
C683 C684 1.524 . S
C683 C687 1.400 . S
C684 H669 0.960 . S
C684 H670 0.960 . S
C684 H671 0.960 . S
C684 C683 1.524 . S
C685 C682 1.403 . S
C685 C686 1.392 . S
C685 C689 1.495 . S
C686 C685 1.392 . S
C686 C687 1.385 . S
C686 C688 1.478 . S
C687 H681 0.930 . S
C687 C683 1.400 . S
C687 C686 1.385 . S
C688 C686 1.478 . S
C688 C690 1.381 . S
C688 C694 1.383 . S
C689 C685 1.495 . S
C689 H695 0.951 1_556 S
C689 H696 0.961 1_556 S
C689 H697 0.960 . S
C690 C688 1.381 . S
C690 C691 1.394 . S
C690 H698 0.930 . S
C691 C690 1.394 . S
C691 C692 1.383 . S
C691 H699 0.929 . S
C692 C691 1.383 . S
C692 C693 1.377 . S
C693 H677 0.930 . S
C693 C692 1.377 . S
C693 C694 1.379 . S
C694 H678 0.931 . S
C694 C688 1.383 . S
C694 C693 1.379 . S
H695 C689 0.951 1_554 S
H696 C689 0.961 1_554 S
H697 C689 0.960 . S
H698 C690 0.930 . S
H699 C691 0.929 . S
H700 C708 0.929 . S
H701 C710 0.930 . S
H702 C712 0.930 . S
H703 C715 0.929 . S
H704 C718 0.930 . S
H705 C720 0.960 . S
H706 C720 0.960 . S
H707 C720 0.960 . S
C708 H700 0.929 . S
C708 C709 1.377 . S
C708 C710 1.384 . S
C709 C708 1.377 . S
C709 C715 1.390 . S
C710 H701 0.930 . S
C710 C708 1.384 . S
C710 C711 1.372 . S
C711 C710 1.372 . S
C711 C712 1.400 . S
C711 C716 1.490 . S
C712 H702 0.930 . S
C712 C711 1.400 . S
C712 C715 1.386 . S
H713 C729 0.930 . S
H714 C730 0.931 . S
C715 H703 0.929 . S
C715 C709 1.390 . S
C715 C712 1.386 . S
C716 C711 1.490 . S
C716 C718 1.395 . S
C716 C719 1.403 . S
H717 C723 0.930 . S
C718 H704 0.930 . S
C718 C716 1.395 . S
C718 C721 1.403 . S
C719 C716 1.403 . S
C719 C720 1.524 . S
C719 C723 1.400 . S
C720 H705 0.960 . S
C720 H706 0.960 . S
C720 H707 0.960 . S
C720 C719 1.524 . S
C721 C718 1.403 . S
C721 C722 1.392 . S
C721 C725 1.495 . S
C722 C721 1.392 . S
C722 C723 1.385 . S
C722 C724 1.478 . S
C723 H717 0.930 . S
C723 C719 1.400 . S
C723 C722 1.385 . S
C724 C722 1.478 . S
C724 C726 1.381 . S
C724 C730 1.383 . S
C725 C721 1.495 . S
C725 H731 0.959 . S
C725 H732 0.961 . S
C725 H733 0.960 . S
C726 C724 1.381 . S
C726 C727 1.394 . S
C726 H734 0.930 . S
C727 C726 1.394 . S
C727 C728 1.383 . S
C727 H735 0.929 . S
C728 C727 1.383 . S
C728 C729 1.377 . S
C729 H713 0.930 . S
C729 C728 1.377 . S
C729 C730 1.379 . S
C730 H714 0.931 . S
C730 C724 1.383 . S
C730 C729 1.379 . S
H731 C725 0.959 . S
H732 C725 0.961 . S
H733 C725 0.960 . S
H734 C726 0.930 . S
H735 C727 0.929 . S
H736 C744 0.929 . S
H737 C746 0.930 . S
H738 C748 0.930 . S
H739 C751 0.929 . S
H740 C754 0.930 . S
H741 C756 0.960 . S
H742 C756 0.960 . S
H743 C756 0.960 . S
C744 H736 0.929 . S
C744 C745 1.377 . S
C744 C746 1.384 . S
C745 C744 1.377 . S
C745 C751 1.390 . S
C746 H737 0.930 . S
C746 C744 1.384 . S
C746 C747 1.372 . S
C747 C746 1.372 . S
C747 C748 1.400 . S
C747 C752 1.490 . S
C748 H738 0.930 . S
C748 C747 1.400 . S
C748 C751 1.386 . S
H749 C765 0.930 . S
H750 C766 0.931 . S
C751 H739 0.929 . S
C751 C745 1.390 . S
C751 C748 1.386 . S
C752 C747 1.490 . S
C752 C754 1.395 . S
C752 C755 1.403 . S
H753 C759 0.930 . S
C754 H740 0.930 . S
C754 C752 1.395 . S
C754 C757 1.403 . S
C755 C752 1.403 . S
C755 C756 1.524 . S
C755 C759 1.400 . S
C756 H741 0.960 . S
C756 H742 0.960 . S
C756 H743 0.960 . S
C756 C755 1.524 . S
C757 C754 1.403 . S
C757 C758 1.392 . S
C757 C761 1.495 . S
C758 C757 1.392 . S
C758 C759 1.385 . S
C758 C760 1.478 . S
C759 H753 0.930 . S
C759 C755 1.400 . S
C759 C758 1.385 . S
C760 C758 1.478 . S
C760 C762 1.381 . S
C760 C766 1.383 . S
C761 C757 1.495 . S
C761 H767 0.959 . S
C761 H768 0.961 . S
C761 H769 0.960 . S
C762 C760 1.381 . S
C762 C763 1.394 . S
C762 H770 0.930 . S
C763 C762 1.394 . S
C763 C764 1.383 . S
C763 H771 0.929 . S
C764 C763 1.383 . S
C764 C765 1.377 . S
C765 H749 0.930 . S
C765 C764 1.377 . S
C765 C766 1.379 . S
C766 H750 0.931 . S
C766 C760 1.383 . S
C766 C765 1.379 . S
H767 C761 0.959 . S
H768 C761 0.961 . S
H769 C761 0.960 . S
H770 C762 0.930 . S
H771 C763 0.929 . S
H772 C780 0.929 . S
H773 C782 0.930 . S
H774 C784 0.930 . S
H775 C787 0.929 . S
H776 C790 0.930 . S
H777 C792 0.960 . S
H778 C792 0.960 . S
H779 C792 0.960 . S
C780 H772 0.929 . S
C780 C781 1.377 . S
C780 C782 1.384 . S
C781 C780 1.377 . S
C781 C787 1.390 . S
C782 H773 0.930 . S
C782 C780 1.384 . S
C782 C783 1.372 . S
C783 C782 1.372 . S
C783 C784 1.400 . S
C783 C788 1.490 . S
C784 H774 0.930 . S
C784 C783 1.400 . S
C784 C787 1.386 . S
H785 C801 0.930 . S
H786 C802 0.931 . S
C787 H775 0.929 . S
C787 C781 1.390 . S
C787 C784 1.386 . S
C788 C783 1.490 . S
C788 C790 1.395 . S
C788 C791 1.403 . S
H789 C795 0.930 . S
C790 H776 0.930 . S
C790 C788 1.395 . S
C790 C793 1.403 . S
C791 C788 1.403 . S
C791 C792 1.524 . S
C791 C795 1.400 . S
C792 H777 0.960 . S
C792 H778 0.960 . S
C792 H779 0.960 . S
C792 C791 1.524 . S
C793 C790 1.403 . S
C793 C794 1.392 . S
C793 C797 1.495 . S
C794 C793 1.392 . S
C794 C795 1.385 . S
C794 C796 1.478 . S
C795 H789 0.930 . S
C795 C791 1.400 . S
C795 C794 1.385 . S
C796 C794 1.478 . S
C796 C798 1.381 . S
C796 C802 1.383 . S
C797 C793 1.495 . S
C797 H803 0.959 . S
C797 H804 0.961 . S
C797 H805 0.960 . S
C798 C796 1.381 . S
C798 C799 1.394 . S
C798 H806 0.930 1_655 S
C799 C798 1.394 . S
C799 C800 1.383 . S
C799 H807 0.929 1_655 S
C800 C799 1.383 . S
C800 C801 1.377 . S
C801 H785 0.930 . S
C801 C800 1.377 . S
C801 C802 1.379 . S
C802 H786 0.931 . S
C802 C796 1.383 . S
C802 C801 1.379 . S
H803 C797 0.959 . S
H804 C797 0.961 . S
H805 C797 0.960 . S
H806 C798 0.930 1_455 S
H807 C799 0.929 1_455 S
H808 C816 0.929 . S
H809 C818 0.930 . S
H810 C820 0.930 . S
H811 C823 0.929 . S
H812 C826 0.930 . S
H813 C828 0.960 . S
H814 C828 0.960 . S
H815 C828 0.960 . S
C816 H808 0.929 . S
C816 C817 1.377 . S
C816 C818 1.384 . S
C817 C816 1.377 . S
C817 C823 1.390 . S
C818 H809 0.930 . S
C818 C816 1.384 . S
C818 C819 1.372 . S
C819 C818 1.372 . S
C819 C820 1.400 . S
C819 C824 1.490 . S
C820 H810 0.930 . S
C820 C819 1.400 . S
C820 C823 1.386 . S
H821 C837 0.930 . S
H822 C838 0.931 . S
C823 H811 0.929 . S
C823 C817 1.390 . S
C823 C820 1.386 . S
C824 C819 1.490 . S
C824 C826 1.395 . S
C824 C827 1.403 . S
H825 C831 0.930 . S
C826 H812 0.930 . S
C826 C824 1.395 . S
C826 C829 1.403 . S
C827 C824 1.403 . S
C827 C828 1.524 . S
C827 C831 1.400 . S
C828 H813 0.960 . S
C828 H814 0.960 . S
C828 H815 0.960 . S
C828 C827 1.524 . S
C829 C826 1.403 . S
C829 C830 1.392 . S
C829 C833 1.495 . S
C830 C829 1.392 . S
C830 C831 1.385 . S
C830 C832 1.478 . S
C831 H825 0.930 . S
C831 C827 1.400 . S
C831 C830 1.385 . S
C832 C830 1.478 . S
C832 C834 1.381 . S
C832 C838 1.383 . S
C833 C829 1.495 . S
C833 H839 0.959 . S
C833 H840 0.961 . S
C833 H841 0.960 . S
C834 C832 1.381 . S
C834 C835 1.394 . S
C834 H842 0.930 . S
C835 C834 1.394 . S
C835 C836 1.383 . S
C835 H843 0.929 . S
C836 C835 1.383 . S
C836 C837 1.377 . S
C837 H821 0.930 . S
C837 C836 1.377 . S
C837 C838 1.379 . S
C838 H822 0.931 . S
C838 C832 1.383 . S
C838 C837 1.379 . S
H839 C833 0.959 . S
H840 C833 0.961 . S
H841 C833 0.960 . S
H842 C834 0.930 . S
H843 C835 0.929 . S
H844 C852 0.929 . S
H845 C854 0.930 . S
H846 C856 0.930 . S
H847 C859 0.929 . S
H848 C862 0.930 . S
H849 C864 0.960 . S
H850 C864 0.960 . S
H851 C864 0.960 . S
C852 H844 0.929 . S
C852 C853 1.377 . S
C852 C854 1.384 . S
C853 C852 1.377 . S
C853 C859 1.390 . S
C854 H845 0.930 . S
C854 C852 1.384 . S
C854 C855 1.372 . S
C855 C854 1.372 . S
C855 C856 1.400 . S
C855 C860 1.490 . S
C856 H846 0.930 . S
C856 C855 1.400 . S
C856 C859 1.386 . S
H857 C873 0.930 . S
H858 C874 0.931 . S
C859 H847 0.929 . S
C859 C853 1.390 . S
C859 C856 1.386 . S
C860 C855 1.490 . S
C860 C862 1.395 . S
C860 C863 1.403 . S
H861 C867 0.930 . S
C862 H848 0.930 . S
C862 C860 1.395 . S
C862 C865 1.403 . S
C863 C860 1.403 . S
C863 C864 1.524 . S
C863 C867 1.400 . S
C864 H849 0.960 . S
C864 H850 0.960 . S
C864 H851 0.960 . S
C864 C863 1.524 . S
C865 C862 1.403 . S
C865 C866 1.392 . S
C865 C869 1.495 . S
C866 C865 1.392 . S
C866 C867 1.385 . S
C866 C868 1.478 . S
C867 H861 0.930 . S
C867 C863 1.400 . S
C867 C866 1.385 . S
C868 C866 1.478 . S
C868 C870 1.381 . S
C868 C874 1.383 . S
C869 C865 1.495 . S
C869 H875 0.959 . S
C869 H876 0.961 . S
C869 H877 0.960 . S
C870 C868 1.381 . S
C870 C871 1.394 . S
C870 H878 0.930 . S
C871 C870 1.394 . S
C871 C872 1.383 . S
C871 H879 0.929 . S
C872 C871 1.383 . S
C872 C873 1.377 . S
C873 H857 0.930 . S
C873 C872 1.377 . S
C873 C874 1.379 . S
C874 H858 0.931 . S
C874 C868 1.383 . S
C874 C873 1.379 . S
H875 C869 0.959 . S
H876 C869 0.961 . S
H877 C869 0.960 . S
H878 C870 0.930 . S
H879 C871 0.929 . S
H880 C888 0.929 . S
H881 C890 0.930 . S
H882 C892 0.930 . S
H883 C895 0.929 . S
H884 C898 0.930 . S
H885 C900 0.960 . S
H886 C900 0.960 . S
H887 C900 0.960 . S
C888 H880 0.929 . S
C888 C889 1.377 . S
C888 C890 1.384 . S
C889 C888 1.377 . S
C889 C895 1.390 . S
C890 H881 0.930 . S
C890 C888 1.384 . S
C890 C891 1.372 . S
C891 C890 1.372 . S
C891 C892 1.400 . S
C891 C896 1.490 . S
C892 H882 0.930 . S
C892 C891 1.400 . S
C892 C895 1.386 . S
H893 C909 0.930 . S
H894 C910 0.931 . S
C895 H883 0.929 . S
C895 C889 1.390 . S
C895 C892 1.386 . S
C896 C891 1.490 . S
C896 C898 1.395 . S
C896 C899 1.403 . S
H897 C903 0.930 . S
C898 H884 0.930 . S
C898 C896 1.395 . S
C898 C901 1.403 . S
C899 C896 1.403 . S
C899 C900 1.524 . S
C899 C903 1.400 . S
C900 H885 0.960 . S
C900 H886 0.960 . S
C900 H887 0.960 . S
C900 C899 1.524 . S
C901 C898 1.403 . S
C901 C902 1.392 . S
C901 C905 1.495 . S
C902 C901 1.392 . S
C902 C903 1.385 . S
C902 C904 1.478 . S
C903 H897 0.930 . S
C903 C899 1.400 . S
C903 C902 1.385 . S
C904 C902 1.478 . S
C904 C906 1.381 . S
C904 C910 1.383 . S
C905 C901 1.495 . S
C905 H911 0.959 . S
C905 H912 0.961 . S
C905 H913 0.960 1_455 S
C906 C904 1.381 . S
C906 C907 1.394 . S
C906 H914 0.930 . S
C907 C906 1.394 . S
C907 C908 1.383 . S
C907 H915 0.929 1_455 S
C908 C907 1.383 . S
C908 C909 1.377 . S
C909 H893 0.930 . S
C909 C908 1.377 . S
C909 C910 1.379 . S
C910 H894 0.931 . S
C910 C904 1.383 . S
C910 C909 1.379 . S
H911 C905 0.959 . S
H912 C905 0.961 . S
H913 C905 0.960 1_655 S
H914 C906 0.930 . S
H915 C907 0.929 1_655 S
H916 C924 0.929 . S
H917 C926 0.930 . S
H918 C928 0.930 . S
H919 C931 0.929 . S
H920 C934 0.930 . S
H921 C936 0.960 . S
H922 C936 0.960 . S
H923 C936 0.960 . S
C924 H916 0.929 . S
C924 C925 1.377 . S
C924 C926 1.384 . S
C925 C924 1.377 . S
C925 C931 1.390 . S
C926 H917 0.930 . S
C926 C924 1.384 . S
C926 C927 1.372 . S
C927 C926 1.372 . S
C927 C928 1.400 . S
C927 C932 1.490 . S
C928 H918 0.930 . S
C928 C927 1.400 . S
C928 C931 1.386 . S
H929 C945 0.930 . S
H930 C946 0.931 . S
C931 H919 0.929 . S
C931 C925 1.390 . S
C931 C928 1.386 . S
C932 C927 1.490 . S
C932 C934 1.395 . S
C932 C935 1.403 . S
H933 C939 0.930 . S
C934 H920 0.930 . S
C934 C932 1.395 . S
C934 C937 1.403 . S
C935 C932 1.403 . S
C935 C936 1.524 . S
C935 C939 1.400 . S
C936 H921 0.960 . S
C936 H922 0.960 . S
C936 H923 0.960 . S
C936 C935 1.524 . S
C937 C934 1.403 . S
C937 C938 1.392 . S
C937 C941 1.495 1_565 S
C938 C937 1.392 . S
C938 C939 1.385 . S
C938 C940 1.478 . S
C939 H933 0.930 . S
C939 C935 1.400 . S
C939 C938 1.385 . S
C940 C938 1.478 . S
C940 C942 1.381 . S
C940 C946 1.383 . S
C941 C937 1.495 1_545 S
C941 H947 0.959 . S
C941 H948 0.958 1_545 S
C941 H949 0.960 . S
C942 C940 1.381 . S
C942 C943 1.394 1_565 S
C942 H950 0.930 1_565 S
C943 C942 1.394 1_545 S
C943 C944 1.383 1_545 S
C943 H951 0.929 . S
C944 C943 1.383 1_565 S
C944 C945 1.377 . S
C945 H929 0.930 . S
C945 C944 1.377 . S
C945 C946 1.379 . S
C946 H930 0.931 . S
C946 C940 1.383 . S
C946 C945 1.379 . S
H947 C941 0.959 . S
H948 C941 0.958 1_565 S
H949 C941 0.960 . S
H950 C942 0.930 1_545 S
H951 C943 0.929 . S
H952 C960 0.929 . S
H953 C962 0.930 . S
H954 C964 0.930 . S
H955 C967 0.929 . S
H956 C970 0.930 . S
H957 C972 0.960 . S
H958 C972 0.960 . S
H959 C972 0.960 . S
C960 H952 0.929 . S
C960 C961 1.377 . S
C960 C962 1.384 . S
C961 C960 1.377 . S
C961 C967 1.390 . S
C962 H953 0.930 . S
C962 C960 1.384 . S
C962 C963 1.372 . S
C963 C962 1.372 . S
C963 C964 1.400 . S
C963 C968 1.490 . S
C964 H954 0.930 . S
C964 C963 1.400 . S
C964 C967 1.386 . S
H965 C981 0.930 . S
H966 C982 0.931 . S
C967 H955 0.929 . S
C967 C961 1.390 . S
C967 C964 1.386 . S
C968 C963 1.490 . S
C968 C970 1.395 . S
C968 C971 1.403 . S
H969 C975 0.930 . S
C970 H956 0.930 . S
C970 C968 1.395 . S
C970 C973 1.403 . S
C971 C968 1.403 . S
C971 C972 1.524 . S
C971 C975 1.400 . S
C972 H957 0.960 . S
C972 H958 0.960 . S
C972 H959 0.960 . S
C972 C971 1.524 . S
C973 C970 1.403 . S
C973 C974 1.392 . S
C973 C977 1.495 . S
C974 C973 1.392 . S
C974 C975 1.385 . S
C974 C976 1.478 . S
C975 H969 0.930 . S
C975 C971 1.400 . S
C975 C974 1.385 . S
C976 C974 1.478 . S
C976 C978 1.381 . S
C976 C982 1.383 . S
C977 C973 1.495 . S
C977 H983 0.959 . S
C977 H984 0.961 . S
C977 H985 0.960 . S
C978 C976 1.381 . S
C978 C979 1.394 . S
C978 H986 0.930 . S
C979 C978 1.394 . S
C979 C980 1.383 . S
C979 H987 0.929 . S
C980 C979 1.383 . S
C980 C981 1.377 . S
C981 H965 0.930 . S
C981 C980 1.377 . S
C981 C982 1.379 . S
C982 H966 0.931 . S
C982 C976 1.383 . S
C982 C981 1.379 . S
H983 C977 0.959 . S
H984 C977 0.961 . S
H985 C977 0.960 . S
H986 C978 0.930 . S
H987 C979 0.929 . S
H988 C996 0.929 . S
H989 C998 0.930 . S
H990 C1000 0.930 . S
H991 C1003 0.929 . S
H992 C1006 0.930 . S
H993 C1008 0.960 . S
H994 C1008 0.960 . S
H995 C1008 0.960 . S
C996 H988 0.929 . S
C996 C997 1.377 . S
C996 C998 1.384 . S
C997 C996 1.377 . S
C997 C1003 1.390 . S
C998 H989 0.930 . S
C998 C996 1.384 . S
C998 C999 1.372 . S
C999 C998 1.372 . S
C999 C1000 1.400 . S
C999 C1004 1.490 . S
C1000 H990 0.930 . S
C1000 C999 1.400 . S
C1000 C1003 1.386 . S
H1001 C1017 0.930 . S
H1002 C1018 0.931 . S
C1003 H991 0.929 . S
C1003 C997 1.390 . S
C1003 C1000 1.386 . S
C1004 C999 1.490 . S
C1004 C1006 1.395 . S
C1004 C1007 1.403 . S
H1005 C1011 0.930 . S
C1006 H992 0.930 . S
C1006 C1004 1.395 . S
C1006 C1009 1.403 . S
C1007 C1004 1.403 . S
C1007 C1008 1.524 . S
C1007 C1011 1.400 . S
C1008 H993 0.960 . S
C1008 H994 0.960 . S
C1008 H995 0.960 . S
C1008 C1007 1.524 . S
C1009 C1006 1.403 . S
C1009 C1010 1.392 . S
C1009 C1013 1.495 . S
C1010 C1009 1.392 . S
C1010 C1011 1.385 . S
C1010 C1012 1.478 . S
C1011 H1005 0.930 . S
C1011 C1007 1.400 . S
C1011 C1010 1.385 . S
C1012 C1010 1.478 . S
C1012 C1014 1.381 . S
C1012 C1018 1.383 . S
C1013 C1009 1.495 . S
C1013 H1019 0.959 . S
C1013 H1020 0.961 . S
C1013 H1021 0.960 . S
C1014 C1012 1.381 . S
C1014 C1015 1.394 . S
C1014 H1022 0.930 . S
C1015 C1014 1.394 . S
C1015 C1016 1.383 . S
C1015 H1023 0.929 1_554 S
C1016 C1015 1.383 . S
C1016 C1017 1.377 . S
C1017 H1001 0.930 . S
C1017 C1016 1.377 . S
C1017 C1018 1.379 . S
C1018 H1002 0.931 . S
C1018 C1012 1.383 . S
C1018 C1017 1.379 . S
H1019 C1013 0.959 . S
H1020 C1013 0.961 . S
H1021 C1013 0.960 . S
H1022 C1014 0.930 . S
H1023 C1015 0.929 1_556 S
H1024 C1032 0.929 . S
H1025 C1034 0.930 . S
H1026 C1036 0.930 . S
H1027 C1039 0.929 . S
H1028 C1042 0.930 . S
H1029 C1044 0.960 . S
H1030 C1044 0.960 . S
H1031 C1044 0.960 . S
C1032 H1024 0.929 . S
C1032 C1033 1.377 . S
C1032 C1034 1.384 . S
C1033 C1032 1.377 . S
C1033 C1039 1.390 . S
C1034 H1025 0.930 . S
C1034 C1032 1.384 . S
C1034 C1035 1.372 . S
C1035 C1034 1.372 . S
C1035 C1036 1.400 . S
C1035 C1040 1.490 . S
C1036 H1026 0.930 . S
C1036 C1035 1.400 . S
C1036 C1039 1.386 . S
H1037 C1053 0.930 . S
H1038 C1054 0.931 . S
C1039 H1027 0.929 . S
C1039 C1033 1.390 . S
C1039 C1036 1.386 . S
C1040 C1035 1.490 . S
C1040 C1042 1.395 . S
C1040 C1043 1.403 . S
H1041 C1047 0.930 . S
C1042 H1028 0.930 . S
C1042 C1040 1.395 . S
C1042 C1045 1.403 . S
C1043 C1040 1.403 . S
C1043 C1044 1.524 . S
C1043 C1047 1.400 . S
C1044 H1029 0.960 . S
C1044 H1030 0.960 . S
C1044 H1031 0.960 . S
C1044 C1043 1.524 . S
C1045 C1042 1.403 . S
C1045 C1046 1.392 . S
C1045 C1049 1.495 . S
C1046 C1045 1.392 . S
C1046 C1047 1.385 . S
C1046 C1048 1.478 . S
C1047 H1041 0.930 . S
C1047 C1043 1.400 . S
C1047 C1046 1.385 . S
C1048 C1046 1.478 . S
C1048 C1050 1.381 . S
C1048 C1054 1.383 . S
C1049 C1045 1.495 . S
C1049 H1055 0.959 . S
C1049 H1056 0.961 . S
C1049 H1057 0.960 . S
C1050 C1048 1.381 . S
C1050 C1051 1.394 . S
C1050 H1058 0.930 . S
C1051 C1050 1.394 . S
C1051 C1052 1.383 . S
C1051 H1059 0.929 . S
C1052 C1051 1.383 . S
C1052 C1053 1.377 . S
C1053 H1037 0.930 . S
C1053 C1052 1.377 . S
C1053 C1054 1.379 . S
C1054 H1038 0.931 . S
C1054 C1048 1.383 . S
C1054 C1053 1.379 . S
H1055 C1049 0.959 . S
H1056 C1049 0.961 . S
H1057 C1049 0.960 . S
H1058 C1050 0.930 . S
H1059 C1051 0.929 . S
H1060 C1068 0.929 . S
H1061 C1070 0.930 . S
H1062 C1072 0.930 . S
H1063 C1075 0.929 . S
H1064 C1078 0.930 . S
H1065 C1080 0.960 . S
H1066 C1080 0.960 . S
H1067 C1080 0.960 . S
C1068 H1060 0.929 . S
C1068 C1069 1.377 . S
C1068 C1070 1.384 . S
C1069 C1068 1.377 . S
C1069 C1075 1.390 . S
C1070 H1061 0.930 . S
C1070 C1068 1.384 . S
C1070 C1071 1.372 . S
C1071 C1070 1.372 . S
C1071 C1072 1.400 . S
C1071 C1076 1.490 . S
C1072 H1062 0.930 . S
C1072 C1071 1.400 . S
C1072 C1075 1.386 . S
H1073 C1089 0.930 . S
H1074 C1090 0.931 . S
C1075 H1063 0.929 . S
C1075 C1069 1.390 . S
C1075 C1072 1.386 . S
C1076 C1071 1.490 . S
C1076 C1078 1.395 . S
C1076 C1079 1.403 . S
H1077 C1083 0.930 . S
C1078 H1064 0.930 . S
C1078 C1076 1.395 . S
C1078 C1081 1.403 . S
C1079 C1076 1.403 . S
C1079 C1080 1.524 . S
C1079 C1083 1.400 . S
C1080 H1065 0.960 . S
C1080 H1066 0.960 . S
C1080 H1067 0.960 . S
C1080 C1079 1.524 . S
C1081 C1078 1.403 . S
C1081 C1082 1.392 . S
C1081 C1085 1.495 . S
C1082 C1081 1.392 . S
C1082 C1083 1.385 . S
C1082 C1084 1.478 . S
C1083 H1077 0.930 . S
C1083 C1079 1.400 . S
C1083 C1082 1.385 . S
C1084 C1082 1.478 . S
C1084 C1086 1.381 . S
C1084 C1090 1.383 . S
C1085 C1081 1.495 . S
C1085 H1091 0.959 . S
C1085 H1092 0.961 . S
C1085 H1093 0.960 . S
C1086 C1084 1.381 . S
C1086 C1087 1.394 . S
C1086 H1094 0.930 1_556 S
C1087 C1086 1.394 . S
C1087 C1088 1.383 . S
C1087 H1095 0.929 1_556 S
C1088 C1087 1.383 . S
C1088 C1089 1.377 . S
C1089 H1073 0.930 . S
C1089 C1088 1.377 . S
C1089 C1090 1.379 . S
C1090 H1074 0.931 . S
C1090 C1084 1.383 . S
C1090 C1089 1.379 . S
H1091 C1085 0.959 . S
H1092 C1085 0.961 . S
H1093 C1085 0.960 . S
H1094 C1086 0.930 1_554 S
H1095 C1087 0.929 1_554 S
H1096 C1104 0.929 . S
H1097 C1106 0.930 . S
H1098 C1108 0.930 . S
H1099 C1111 0.929 . S
H1100 C1114 0.930 . S
H1101 C1116 0.960 . S
H1102 C1116 0.960 . S
H1103 C1116 0.960 . S
C1104 H1096 0.929 . S
C1104 C1105 1.377 . S
C1104 C1106 1.384 . S
C1105 C1104 1.377 . S
C1105 C1111 1.390 . S
C1106 H1097 0.930 . S
C1106 C1104 1.384 . S
C1106 C1107 1.372 . S
C1107 C1106 1.372 . S
C1107 C1108 1.400 . S
C1107 C1112 1.490 . S
C1108 H1098 0.930 . S
C1108 C1107 1.400 . S
C1108 C1111 1.386 . S
H1109 C1125 0.930 . S
H1110 C1126 0.931 . S
C1111 H1099 0.929 . S
C1111 C1105 1.390 . S
C1111 C1108 1.386 . S
C1112 C1107 1.490 . S
C1112 C1114 1.395 . S
C1112 C1115 1.403 . S
H1113 C1119 0.930 . S
C1114 H1100 0.930 . S
C1114 C1112 1.395 . S
C1114 C1117 1.403 . S
C1115 C1112 1.403 . S
C1115 C1116 1.524 . S
C1115 C1119 1.400 . S
C1116 H1101 0.960 . S
C1116 H1102 0.960 . S
C1116 H1103 0.960 . S
C1116 C1115 1.524 . S
C1117 C1114 1.403 . S
C1117 C1118 1.392 . S
C1117 C1121 1.495 . S
C1118 C1117 1.392 . S
C1118 C1119 1.385 . S
C1118 C1120 1.478 . S
C1119 H1113 0.930 . S
C1119 C1115 1.400 . S
C1119 C1118 1.385 . S
C1120 C1118 1.478 . S
C1120 C1122 1.381 . S
C1120 C1126 1.383 . S
C1121 C1117 1.495 . S
C1121 H1127 0.959 . S
C1121 H1128 0.961 . S
C1121 H1129 0.960 . S
C1122 C1120 1.381 . S
C1122 C1123 1.394 . S
C1122 H1130 0.930 . S
C1123 C1122 1.394 . S
C1123 C1124 1.383 . S
C1123 H1131 0.929 . S
C1124 C1123 1.383 . S
C1124 C1125 1.377 . S
C1125 H1109 0.930 . S
C1125 C1124 1.377 . S
C1125 C1126 1.379 . S
C1126 H1110 0.931 . S
C1126 C1120 1.383 . S
C1126 C1125 1.379 . S
H1127 C1121 0.959 . S
H1128 C1121 0.961 . S
H1129 C1121 0.960 . S
H1130 C1122 0.930 . S
H1131 C1123 0.929 . S
H1132 C1140 0.929 . S
H1133 C1142 0.930 . S
H1134 C1144 0.930 . S
H1135 C1147 0.929 . S
H1136 C1150 0.930 . S
H1137 C1152 0.960 . S
H1138 C1152 0.960 . S
H1139 C1152 0.960 . S
C1140 H1132 0.929 . S
C1140 C1141 1.377 . S
C1140 C1142 1.384 . S
C1141 C1140 1.377 . S
C1141 C1147 1.390 . S
C1142 H1133 0.930 . S
C1142 C1140 1.384 . S
C1142 C1143 1.372 . S
C1143 C1142 1.372 . S
C1143 C1144 1.400 . S
C1143 C1148 1.490 . S
C1144 H1134 0.930 . S
C1144 C1143 1.400 . S
C1144 C1147 1.386 . S
H1145 C1161 0.930 . S
H1146 C1162 0.931 . S
C1147 H1135 0.929 . S
C1147 C1141 1.390 . S
C1147 C1144 1.386 . S
C1148 C1143 1.490 . S
C1148 C1150 1.395 . S
C1148 C1151 1.403 . S
H1149 C1155 0.930 . S
C1150 H1136 0.930 . S
C1150 C1148 1.395 . S
C1150 C1153 1.403 . S
C1151 C1148 1.403 . S
C1151 C1152 1.524 . S
C1151 C1155 1.400 . S
C1152 H1137 0.960 . S
C1152 H1138 0.960 . S
C1152 H1139 0.960 . S
C1152 C1151 1.524 . S
C1153 C1150 1.403 . S
C1153 C1154 1.392 . S
C1153 C1157 1.495 1_455 S
C1154 C1153 1.392 . S
C1154 C1155 1.385 . S
C1154 C1156 1.478 . S
C1155 H1149 0.930 . S
C1155 C1151 1.400 . S
C1155 C1154 1.385 . S
C1156 C1154 1.478 . S
C1156 C1158 1.381 . S
C1156 C1162 1.383 . S
C1157 C1153 1.495 1_655 S
C1157 H1163 0.959 . S
C1157 H1164 0.961 . S
C1157 H1165 0.960 . S
C1158 C1156 1.381 . S
C1158 C1159 1.394 . S
C1158 H1166 0.930 . S
C1159 C1158 1.394 . S
C1159 C1160 1.383 . S
C1159 H1167 0.929 1_455 S
C1160 C1159 1.383 . S
C1160 C1161 1.377 . S
C1161 H1145 0.930 . S
C1161 C1160 1.377 . S
C1161 C1162 1.379 . S
C1162 H1146 0.931 . S
C1162 C1156 1.383 . S
C1162 C1161 1.379 . S
H1163 C1157 0.959 . S
H1164 C1157 0.961 . S
H1165 C1157 0.960 . S
H1166 C1158 0.930 . S
H1167 C1159 0.929 1_655 S
H1168 C1176 0.929 . S
H1169 C1178 0.930 . S
H1170 C1180 0.930 . S
H1171 C1183 0.929 . S
H1172 C1186 0.930 . S
H1173 C1188 0.960 . S
H1174 C1188 0.960 . S
H1175 C1188 0.960 . S
C1176 H1168 0.929 . S
C1176 C1177 1.377 . S
C1176 C1178 1.384 . S
C1177 C1176 1.377 . S
C1177 C1183 1.390 . S
C1178 H1169 0.930 . S
C1178 C1176 1.384 . S
C1178 C1179 1.372 . S
C1179 C1178 1.372 . S
C1179 C1180 1.400 . S
C1179 C1184 1.490 . S
C1180 H1170 0.930 . S
C1180 C1179 1.400 . S
C1180 C1183 1.386 . S
H1181 C1197 0.930 . S
H1182 C1198 0.931 . S
C1183 H1171 0.929 . S
C1183 C1177 1.390 . S
C1183 C1180 1.386 . S
C1184 C1179 1.490 . S
C1184 C1186 1.395 . S
C1184 C1187 1.403 . S
H1185 C1191 0.930 . S
C1186 H1172 0.930 . S
C1186 C1184 1.395 . S
C1186 C1189 1.403 . S
C1187 C1184 1.403 . S
C1187 C1188 1.524 . S
C1187 C1191 1.400 . S
C1188 H1173 0.960 . S
C1188 H1174 0.960 . S
C1188 H1175 0.960 . S
C1188 C1187 1.524 . S
C1189 C1186 1.403 . S
C1189 C1190 1.392 . S
C1189 C1193 1.495 . S
C1190 C1189 1.392 . S
C1190 C1191 1.385 . S
C1190 C1192 1.478 . S
C1191 H1185 0.930 . S
C1191 C1187 1.400 . S
C1191 C1190 1.385 . S
C1192 C1190 1.478 . S
C1192 C1194 1.381 . S
C1192 C1198 1.383 . S
C1193 C1189 1.495 . S
C1193 H1199 0.959 . S
C1193 H1200 0.961 . S
C1193 H1201 0.960 . S
C1194 C1192 1.381 . S
C1194 C1195 1.394 . S
C1194 H1202 0.930 . S
C1195 C1194 1.394 . S
C1195 C1196 1.383 . S
C1195 H1203 0.929 . S
C1196 C1195 1.383 . S
C1196 C1197 1.377 . S
C1197 H1181 0.930 . S
C1197 C1196 1.377 . S
C1197 C1198 1.379 . S
C1198 H1182 0.931 . S
C1198 C1192 1.383 . S
C1198 C1197 1.379 . S
H1199 C1193 0.959 . S
H1200 C1193 0.961 . S
H1201 C1193 0.960 . S
H1202 C1194 0.930 . S
H1203 C1195 0.929 . S
C349 C29 1.623 . S
C368 C272 1.647 . S
C385 C49 1.447 . S
C404 C294 1.358 . S
C440 C313 1.182 . S
C421 C93 1.380 . S
C457 C119 1.674 . S
C476 C334 1.416 . S
C512 C291 1.778 . S
C493 C17 1.772 . S
C548 C269 1.690 . S
C529 C61 1.770 . S
C584 C336 1.196 . S
C565 C81 1.248 . S
C620 C315 1.406 . S
C601 C125 1.402 . S
C637 C23 1.696 . S
C656 C333 1.663 . S
C692 C292 1.260 . S
C673 C87 1.500 . S
C709 C113 1.615 . S
C728 C274 1.462 . S
C745 C55 1.498 . S
C764 C312 1.460 . S
C800 C270 1.588 . S
C781 C157 1.624 . S
C817 C189 1.240 . S
C836 C290 1.283 . S
C853 C221 1.482 . S
C872 C316 1.225 . S
C889 C253 1.641 . S
C908 C337 1.414 . S
C925 C145 1.818 . S
C944 C293 1.785 . S
C980 C273 1.682 . S
C961 C183 1.709 . S
C1016 C332 1.187 . S
C997 C209 1.212 . S
C1052 C311 1.469 . S
C1033 C247 1.457 . S
C1069 C151 1.551 . S
C1088 C335 1.504 . S
C1124 C295 1.216 . S
C1105 C215 1.463 . S
C1160 C271 1.325 . S
C1141 C241 1.394 . S
C1177 C177 1.392 . S
C1196 C314 1.423 . S
