# Generated by pormake.
# Topology zzz, (3,6)-cn, num edge types: 1
# Building blocks:
#     Node 0, Type 0, BuildingBlock: BETDIP_clean_linker_0, # of connection points: 3
#     Node 1, Type 0, BuildingBlock: BETDIP_clean_linker_0, # of connection points: 3
#     Node 2, Type 0, BuildingBlock: BETDIP_clean_linker_0, # of connection points: 3
#     Node 3, Type 0, BuildingBlock: BETDIP_clean_linker_0, # of connection points: 3
#     Node 4, Type 0, BuildingBlock: BETDIP_clean_linker_0, # of connection points: 3
#     Node 5, Type 0, BuildingBlock: BETDIP_clean_linker_0, # of connection points: 3
#     Node 6, Type 0, BuildingBlock: BETDIP_clean_linker_0, # of connection points: 3
#     Node 7, Type 0, BuildingBlock: BETDIP_clean_linker_0, # of connection points: 3
#     Node 8, Type 1, BuildingBlock: BETDAH_clean_sbu_0, # of connection points: 6
#     Node 9, Type 1, BuildingBlock: BETDAH_clean_sbu_0, # of connection points: 6
#     Node 10, Type 1, BuildingBlock: BETDAH_clean_sbu_0, # of connection points: 6
#     Node 11, Type 1, BuildingBlock: BETDAH_clean_sbu_0, # of connection points: 6
#     Edge 12, Type (0, 1), BuildingBlock: EZIPEK_clean_linker_0, # of connection points: 2
#     Edge 13, Type (0, 1), BuildingBlock: EZIPEK_clean_linker_0, # of connection points: 2
#     Edge 14, Type (0, 1), BuildingBlock: EZIPEK_clean_linker_0, # of connection points: 2
#     Edge 15, Type (0, 1), BuildingBlock: EZIPEK_clean_linker_0, # of connection points: 2
#     Edge 16, Type (0, 1), BuildingBlock: EZIPEK_clean_linker_0, # of connection points: 2
#     Edge 17, Type (0, 1), BuildingBlock: EZIPEK_clean_linker_0, # of connection points: 2
#     Edge 18, Type (0, 1), BuildingBlock: EZIPEK_clean_linker_0, # of connection points: 2
#     Edge 19, Type (0, 1), BuildingBlock: EZIPEK_clean_linker_0, # of connection points: 2
#     Edge 20, Type (0, 1), BuildingBlock: EZIPEK_clean_linker_0, # of connection points: 2
#     Edge 21, Type (0, 1), BuildingBlock: EZIPEK_clean_linker_0, # of connection points: 2
#     Edge 22, Type (0, 1), BuildingBlock: EZIPEK_clean_linker_0, # of connection points: 2
#     Edge 23, Type (0, 1), BuildingBlock: EZIPEK_clean_linker_0, # of connection points: 2
#     Edge 24, Type (0, 1), BuildingBlock: EZIPEK_clean_linker_0, # of connection points: 2
#     Edge 25, Type (0, 1), BuildingBlock: EZIPEK_clean_linker_0, # of connection points: 2
#     Edge 26, Type (0, 1), BuildingBlock: EZIPEK_clean_linker_0, # of connection points: 2
#     Edge 27, Type (0, 1), BuildingBlock: EZIPEK_clean_linker_0, # of connection points: 2
#     Edge 28, Type (0, 1), BuildingBlock: EZIPEK_clean_linker_0, # of connection points: 2
#     Edge 29, Type (0, 1), BuildingBlock: EZIPEK_clean_linker_0, # of connection points: 2
#     Edge 30, Type (0, 1), BuildingBlock: EZIPEK_clean_linker_0, # of connection points: 2
#     Edge 31, Type (0, 1), BuildingBlock: EZIPEK_clean_linker_0, # of connection points: 2
#     Edge 32, Type (0, 1), BuildingBlock: EZIPEK_clean_linker_0, # of connection points: 2
#     Edge 33, Type (0, 1), BuildingBlock: EZIPEK_clean_linker_0, # of connection points: 2
#     Edge 34, Type (0, 1), BuildingBlock: EZIPEK_clean_linker_0, # of connection points: 2
#     Edge 35, Type (0, 1), BuildingBlock: EZIPEK_clean_linker_0, # of connection points: 2
# Relax obj value: 0.368
# Max RMSD: 0.212
# Mean RMSD: 0.161
data_MOF--net-zzz--node1-BETDAH_clean_sbu_0--node2-BETDIP_clean_linker_0--edge1-EZIPEK_clean_linker_0
_symmetry_space_group_name_H-M    P1
_symmetry_Int_Tables_number       1
_symmetry_cell_setting            triclinic
loop_
_symmetry_equiv_pos_as_xyz
'x, y, z'
_cell_length_a     38.094931
_cell_length_b     38.107972
_cell_length_c     10.062216
_cell_angle_alpha  89.836344
_cell_angle_beta   89.290271
_cell_angle_gamma 90.020844
loop_
_atom_site_label
_atom_site_type_symbol
_atom_site_fract_x
_atom_site_fract_y
_atom_site_fract_z
_atom_type_partial_charge
H0 H 0.77705 0.54152 0.42305 0.0
H1 H 0.74606 0.44951 0.20405 0.0
H2 H 0.84563 0.45252 0.39808 0.0
H3 H 0.74068 0.51882 0.05511 0.0
C4 C 0.71857 0.51765 0.12425 0.0
C5 C 0.78271 0.51536 0.38703 0.0
C6 C 0.81465 0.49867 0.4214 0.0
C7 C 0.75834 0.49791 0.30389 0.0
C8 C 0.76539 0.46348 0.26174 0.0
C9 C 0.79716 0.4472 0.29305 0.0
C10 C 0.82127 0.46507 0.37229 0.0
N11 N 0.72658 0.51432 0.26232 0.0
H12 H 0.99403 0.76108 0.57279 0.0
H13 H 0.0784 0.73267 0.30333 0.0
H14 H 0.07454 0.83604 0.47063 0.0
H15 H 0.99397 0.72527 0.21713 0.0
C16 C 1.00347 0.70285 0.27319 0.0
C17 C 1.01774 0.76801 0.51837 0.0
C18 C 0.03294 0.80189 0.53467 0.0
C19 C 0.03342 0.74336 0.42909 0.0
C20 C 0.06538 0.75193 0.36584 0.0
C21 C 0.08012 0.78537 0.3805 0.0
C22 C 0.06316 0.8101 0.46091 0.0
N23 N 1.01783 0.70998 0.40128 0.0
H24 H 0.76532 1.00462 0.64279 0.0
H25 H 0.7938 0.07649 0.32542 0.0
H26 H 0.69263 0.0832 0.50689 0.0
H27 H 0.81297 1.02033 0.24373 0.0
C28 C 0.83103 1.01652 0.32534 0.0
C29 C 0.7593 0.02677 0.57947 0.0
C30 C 0.72567 0.04333 0.58968 0.0
C31 C 0.78439 0.03834 0.48167 0.0
C32 C 0.77581 0.06723 0.40113 0.0
C33 C 0.74309 0.08316 0.41043 0.0
C34 C 0.71857 0.07136 0.50452 0.0
N35 N 0.8173 1.02063 0.45834 0.0
H36 H 0.50675 0.77455 0.5537 0.0
H37 H 0.58132 0.80899 0.25388 0.0
H38 H 0.58779 0.70528 0.41634 0.0
H39 H 0.57095 0.86291 0.37546 0.0
C40 C 0.54371 0.86039 0.34584 0.0
C41 C 0.52979 0.76976 0.49235 0.0
C42 C 0.54659 0.73636 0.49622 0.0
C43 C 0.54288 0.79672 0.40647 0.0
C44 C 0.57228 0.78958 0.32495 0.0
C45 C 0.58825 0.75666 0.32446 0.0
C46 C 0.576 0.73106 0.41466 0.0
N47 N 0.52511 0.82972 0.39104 0.0
H48 H 0.25092 0.48724 0.17177 0.0
H49 H 0.29971 0.57887 0.33793 0.0
H50 H 0.19639 0.58577 0.17313 0.0
H51 H 0.35026 0.53601 0.20768 0.0
C52 C 0.34327 0.5215 0.29721 0.0
C53 C 0.25063 0.51516 0.19146 0.0
C54 C 0.2213 0.53563 0.15355 0.0
C55 C 0.27935 0.53098 0.25712 0.0
C56 C 0.27801 0.56696 0.2866 0.0
C57 C 0.2476 0.58653 0.26279 0.0
C58 C 0.22023 0.57101 0.19094 0.0
N59 N 0.3075 0.51043 0.30896 0.0
H60 H 0.0433 0.26084 0.10173 0.0
H61 H 0.972 0.29566 0.41067 0.0
H62 H 0.96053 0.19326 0.24798 0.0
H63 H 0.98339 0.35078 0.21453 0.0
C64 C 1.00669 0.34894 0.27503 0.0
C65 C 1.02072 0.25628 0.16582 0.0
C66 C 1.00286 0.22323 0.16196 0.0
C67 C 1.00866 0.28346 0.25333 0.0
C68 C 0.97966 0.27676 0.33646 0.0
C69 C 0.96213 0.24482 0.33264 0.0
C70 C 0.9738 0.21848 0.24635 0.0
N71 N 0.0262 0.31668 0.26589 0.0
H72 H 0.25176 0.99935 0.05578 0.0
H73 H 0.23664 0.06919 0.39096 0.0
H74 H 0.33435 0.0674 0.17745 0.0
H75 H 0.21248 1.01335 0.4703 0.0
C76 C 0.19314 1.01459 0.39187 0.0
C77 C 0.26127 1.01981 0.12046 0.0
C78 C 0.29588 0.03333 0.10221 0.0
C79 C 0.23966 0.03232 0.22764 0.0
C80 C 0.25275 0.05899 0.31063 0.0
C81 C 0.28697 0.07158 0.29446 0.0
C82 C 0.3075 0.05885 0.18929 0.0
N83 N 0.20568 1.01753 0.25695 0.0
H84 H 0.4903 0.28562 0.15677 0.0
H85 H 0.58571 0.2421 0.31266 0.0
H86 H 0.58839 0.33839 0.09149 0.0
H87 H 0.55361 0.19045 0.28062 0.0
C88 C 0.53075 0.19879 0.33764 0.0
C89 C 0.51851 0.28665 0.16812 0.0
C90 C 0.53791 0.31488 0.11086 0.0
C91 C 0.53581 0.25985 0.24107 0.0
C92 C 0.5725 0.26188 0.25593 0.0
C93 C 0.59196 0.29021 0.20476 0.0
C94 C 0.57423 0.31584 0.13007 0.0
N95 N 0.51625 0.23272 0.30867 0.0
Ho96 Ho 0.03797 1.00371 0.9663 0.0
Ho97 Ho 0.98832 1.0137 0.76713 0.0
C98 C 1.01206 0.93524 0.80012 0.0
C99 C 0.07646 0.98339 0.16272 0.0
C100 C 0.10064 0.95396 0.1869 0.0
C101 C 0.09505 0.93295 0.29923 0.0
C102 C 0.11393 0.902 0.31548 0.0
C103 C 0.13902 0.89125 0.21972 0.0
C104 C 0.14676 0.91396 0.11293 0.0
C105 C 0.12748 0.94493 0.09586 0.0
C106 C 0.06965 1.01603 0.72365 0.0
C107 C 1.01437 0.08279 0.93152 0.0
C108 C 0.94977 0.03107 0.56686 0.0
C109 C 0.92867 0.06183 0.53146 0.0
C110 C 0.93695 0.07962 0.41321 0.0
C111 C 0.92603 0.11413 0.39567 0.0
C112 C 0.90703 0.13111 0.49688 0.0
C113 C 0.89454 0.1119 0.60656 0.0
C114 C 0.90524 0.07715 0.62353 0.0
C115 C 0.9573 0.99971 0.01072 0.0
O116 O 1.0222 0.94681 0.91778 0.0
O117 O 1.00229 0.95844 0.71104 0.0
O118 O 0.0864 1.00692 0.07581 0.0
O119 O 0.04343 0.97489 0.15064 0.0
O120 O 0.079 0.02967 0.83499 0.0
O121 O 0.04349 0.9964 0.74622 0.0
O122 O 1.00291 0.07104 0.81551 0.0
O123 O 0.02515 0.05976 0.02019 0.0
O124 O 0.9385 1.01183 0.66593 0.0
O125 O 0.98351 0.03695 0.57235 0.0
O126 O 0.94906 0.98534 0.89911 0.0
O127 O 0.9826 1.02052 0.98741 0.0
H128 H 0.07483 0.93962 0.37158 0.0
H129 H 0.10732 0.8855 0.39974 0.0
H130 H 0.16683 0.90749 0.04035 0.0
H131 H 0.13268 0.96101 0.00889 0.0
H132 H 0.95455 0.06802 0.34016 0.0
H133 H 0.93583 0.12874 0.31036 0.0
H134 H 0.87999 0.12481 0.68562 0.0
H135 H 0.89779 0.06358 0.71401 0.0
Ho136 Ho 0.51161 0.05157 0.96565 0.0
Ho137 Ho 0.50616 1.0098 0.72991 0.0
C138 C 0.58462 0.03025 0.80518 0.0
C139 C 0.52495 0.08317 0.18637 0.0
C140 C 0.55449 0.10544 0.22369 0.0
C141 C 0.57244 0.09747 0.3405 0.0
C142 C 0.60696 0.10868 0.35536 0.0
C143 C 0.62362 0.12781 0.25327 0.0
C144 C 0.60428 0.13966 0.14471 0.0
C145 C 0.5697 0.12848 0.12993 0.0
C146 C 0.49958 0.09184 0.74232 0.0
C147 C 0.43548 0.02723 0.89857 0.0
C148 C 0.48865 0.99142 0.49361 0.0
C149 C 0.46592 1.01275 0.40822 0.0
C150 C 0.4699 0.04944 0.41025 0.0
C151 C 0.44125 0.07111 0.38783 0.0
C152 C 0.40828 0.05656 0.36497 0.0
C153 C 0.40599 1.02041 0.33661 0.0
C154 C 0.4347 0.99844 0.35977 0.0
C155 C 0.51999 0.96917 0.9468 0.0
O156 O 0.57017 0.04223 0.91726 0.0
O157 O 0.56441 1.01812 0.71033 0.0
O158 O 0.50371 0.09578 0.09759 0.0
O159 O 0.53354 0.05064 0.16243 0.0
O160 O 0.48473 0.09616 0.85722 0.0
O161 O 0.52009 0.06584 0.75245 0.0
O162 O 0.44914 0.02585 0.77683 0.0
O163 O 0.45665 0.03143 0.99956 0.0
O164 O 0.47312 0.97898 0.60021 0.0
O165 O 0.51901 1.00532 0.52049 0.0
O166 O 0.53076 0.96251 0.82686 0.0
O167 O 0.49932 0.99519 0.94385 0.0
H168 H 0.56111 0.07974 0.41371 0.0
H169 H 0.62179 0.09922 0.43945 0.0
H170 H 0.61699 0.15418 0.06486 0.0
H171 H 0.55616 0.13515 0.03942 0.0
H172 H 0.49386 0.06149 0.4447 0.0
H173 H 0.44415 0.09888 0.40127 0.0
H174 H 0.38083 1.00864 0.31457 0.0
H175 H 0.4311 0.97026 0.35596 0.0
Ho176 Ho 0.50229 0.53245 0.89223 0.0
Ho177 Ho 0.53685 0.51313 0.65305 0.0
C178 C 0.5275 0.59369 0.69171 0.0
C179 C 0.49132 0.56768 0.10521 0.0
C180 C 0.51782 0.59373 0.14349 0.0
C181 C 0.55106 0.59106 0.08266 0.0
C182 C 0.5751 0.61823 0.08661 0.0
C183 C 0.56648 0.64896 0.15323 0.0
C184 C 0.53383 0.65161 0.22019 0.0
C185 C 0.5094 0.6241 0.21492 0.0
C186 C 0.4561 0.51643 0.69339 0.0
C187 C 0.51283 0.45085 0.86326 0.0
C188 C 0.55951 0.48605 0.43322 0.0
C189 C 0.58234 0.45613 0.3981 0.0
C190 C 0.56694 0.42472 0.35656 0.0
C191 C 0.58759 0.3953 0.33342 0.0
C192 C 0.62412 0.39673 0.34894 0.0
C193 C 0.64001 0.42835 0.38536 0.0
C194 C 0.61921 0.45803 0.4091 0.0
C195 C 0.58452 0.52312 0.85237 0.0
O196 O 0.52712 0.58332 0.81634 0.0
O197 O 0.52575 0.56964 0.59885 0.0
O198 O 0.4755 0.57507 0.99444 0.0
O199 O 0.50198 0.53515 0.10796 0.0
O200 O 0.45105 0.50935 0.81871 0.0
O201 O 0.48398 0.53425 0.6838 0.0
O202 O 0.51998 0.4594 0.73752 0.0
O203 O 0.50734 0.47595 0.951 0.0
O204 O 0.57451 0.51254 0.49152 0.0
O205 O 0.52892 0.47845 0.48622 0.0
O206 O 0.58767 0.53472 0.73212 0.0
O207 O 0.55507 0.50799 0.86222 0.0
H208 H 0.55736 0.56904 0.02102 0.0
H209 H 0.59961 0.61597 0.03151 0.0
H210 H 0.52659 0.67583 0.26907 0.0
H211 H 0.48358 0.62738 0.25932 0.0
H212 H 0.53877 0.42259 0.34524 0.0
H213 H 0.57482 0.37103 0.30661 0.0
H214 H 0.66818 0.42986 0.39757 0.0
H215 H 0.63193 0.48216 0.43855 0.0
Ho216 Ho 1.0005 0.49574 0.92247 0.0
Ho217 Ho 0.02719 0.54197 0.70758 0.0
C218 C 0.94377 0.52054 0.71318 0.0
C219 C 0.97623 0.46797 0.13974 0.0
C220 C 0.95367 0.43745 0.16706 0.0
C221 C 0.93169 0.43794 0.27883 0.0
C222 C 0.90531 0.41286 0.29377 0.0
C223 C 0.89936 0.38743 0.19471 0.0
C224 C 0.92361 0.38521 0.08863 0.0
C225 C 0.95053 0.41002 0.07499 0.0
C226 C 1.01313 0.45272 0.70651 0.0
C227 C 0.08432 0.51314 0.90984 0.0
C228 C 0.0434 0.57935 0.50144 0.0
C229 C 0.07001 0.60635 0.47359 0.0
C230 C 0.08643 0.6066 0.34873 0.0
C231 C 0.11965 0.62137 0.33349 0.0
C232 C 0.1359 0.63772 0.44165 0.0
C233 C 0.11601 0.64416 0.55746 0.0
C234 C 0.08367 0.62724 0.57564 0.0
C235 C 1.02113 0.57604 0.94731 0.0
O236 O 0.94838 0.51108 0.8376 0.0
O237 O 0.97142 0.52962 0.63926 0.0
O238 O 1.00769 0.46164 0.09274 0.0
O239 O 0.9608 0.49369 0.0775 0.0
O240 O 0.9998 0.44309 0.81886 0.0
O241 O 1.01798 0.48549 0.71282 0.0
O242 O 0.07973 0.52453 0.78666 0.0
O243 O 0.05684 0.50367 0.98297 0.0
O244 O 1.01828 0.58764 0.58504 0.0
O245 O 0.05587 0.54778 0.5222 0.0
O246 O 0.04703 0.57863 0.864 0.0
O247 O 0.99938 0.55429 0.89925 0.0
H248 H 0.93389 0.45866 0.35187 0.0
H249 H 0.88852 0.41463 0.38045 0.0
H250 H 0.92105 0.36541 0.01284 0.0
H251 H 0.96771 0.40856 0.98919 0.0
H252 H 0.07515 0.5925 0.26669 0.0
H253 H 0.13383 0.61723 0.24082 0.0
H254 H 0.12743 0.65818 0.63985 0.0
H255 H 0.07097 0.62816 0.67229 0.0
C256 C 0.13187 0.03878 0.4315 0.0
C257 C 0.15545 1.00998 0.43617 0.0
C258 C 0.11609 0.98041 0.59867 0.0
C259 C 0.09567 1.01162 0.61045 0.0
N260 N 0.0825 0.06989 0.53332 0.0
N261 N 0.16894 0.95192 0.51244 0.0
C262 C 0.10283 0.04042 0.52369 0.0
C263 C 0.14676 0.98013 0.51476 0.0
N264 N 0.1376 0.06475 0.33993 0.0
N265 N 0.10653 0.95116 0.66916 0.0
H266 H 0.18985 0.95005 0.44478 0.0
H267 H 0.16735 0.93078 0.57777 0.0
H268 H 0.0859 0.95085 0.73759 0.0
H269 H 0.11755 0.92646 0.655 0.0
H270 H 0.12025 0.08528 0.32244 0.0
H271 H 0.15865 0.06418 0.27286 0.0
H272 H 0.08811 0.09342 0.48493 0.0
H273 H 0.06022 0.07123 0.59451 0.0
C274 C 0.54786 0.16372 0.54044 0.0
C275 C 0.52071 0.17659 0.45714 0.0
C276 C 0.47831 0.13929 0.58098 0.0
C277 C 0.50624 0.12274 0.64981 0.0
N278 N 0.56425 0.13024 0.73529 0.0
N279 N 0.45983 0.17547 0.39507 0.0
C280 C 0.54023 0.13793 0.64011 0.0
C281 C 0.48569 0.16472 0.47882 0.0
N282 N 0.58135 0.17601 0.52352 0.0
N283 N 0.4445 0.13108 0.61466 0.0
H284 H 0.4641 0.19327 0.31787 0.0
H285 H 0.43457 0.16509 0.396 0.0
H286 H 0.43831 0.11015 0.67685 0.0
H287 H 0.42281 0.1454 0.58361 0.0
H288 H 0.60334 0.1643 0.56499 0.0
H289 H 0.58751 0.19745 0.46343 0.0
H290 H 0.58828 0.14291 0.74447 0.0
H291 H 0.55819 0.11425 0.81624 0.0
C292 C 0.37296 0.48961 0.49473 0.0
C293 C 0.37053 0.51866 0.40537 0.0
C294 C 0.42893 0.53724 0.47688 0.0
C295 C 0.42838 0.51355 0.5859 0.0
N296 N 0.39886 0.46468 0.69337 0.0
N297 N 0.3936 0.57585 0.3445 0.0
C298 C 0.39977 0.48928 0.59456 0.0
C299 C 0.39757 0.54433 0.40757 0.0
N300 N 0.35178 0.46105 0.47876 0.0
N301 N 0.45974 0.55089 0.4304 0.0
H302 H 0.37028 0.5835 0.29965 0.0
H303 H 0.41203 0.59599 0.35215 0.0
H304 H 0.48379 0.53979 0.4542 0.0
H305 H 0.46098 0.56824 0.35046 0.0
H306 H 0.3547 0.43782 0.53226 0.0
H307 H 0.33386 0.45884 0.40215 0.0
H308 H 0.3765 0.45001 0.71643 0.0
H309 H 0.42027 0.45915 0.75322 0.0
C310 C 0.97965 0.38354 0.46546 0.0
C311 C 1.00993 0.37545 0.38666 0.0
C312 C 0.04294 0.42077 0.51098 0.0
C313 C 1.01208 0.42967 0.58458 0.0
N314 N 0.94941 0.42499 0.60843 0.0
N315 N 0.06894 0.39064 0.32014 0.0
C316 C 0.9801 0.41239 0.55536 0.0
C317 C 0.04125 0.39522 0.40582 0.0
N318 N 0.95013 0.36338 0.45636 0.0
N319 N 0.07409 0.43591 0.54442 0.0
H320 H 0.06866 0.37225 0.2436 0.0
H321 H 0.09108 0.40666 0.31856 0.0
H322 H 0.07584 0.45526 0.61715 0.0
H323 H 0.0983 0.42802 0.50587 0.0
H324 H 0.92989 0.3638 0.52687 0.0
H325 H 0.94603 0.34531 0.38103 0.0
H326 H 0.92462 0.41579 0.58371 0.0
H327 H 0.94843 0.44751 0.66642 0.0
C328 C 0.89036 0.9857 0.29724 0.0
C329 C 0.86934 1.01631 0.28491 0.0
C330 C 0.9074 0.0368 0.10181 0.0
C331 C 0.92907 1.00668 0.11378 0.0
N332 N 0.9452 0.95573 0.2409 0.0
N333 N 0.86677 0.07619 0.21192 0.0
C334 C 0.92193 0.98225 0.21815 0.0
C335 C 0.88088 0.0435 0.1989 0.0
N336 N 0.87929 0.95935 0.37968 0.0
N337 N 0.91041 0.05795 0.99281 0.0
H338 H 0.85002 0.08234 0.29101 0.0
H339 H 0.87576 0.09791 0.15821 0.0
H340 H 0.92804 0.05278 0.91556 0.0
H341 H 0.89288 0.07821 0.97253 0.0
H342 H 0.89106 0.93472 0.38334 0.0
H343 H 0.8572 0.96196 0.44122 0.0
H344 H 0.94337 0.93879 0.32209 0.0
H345 H 0.96796 0.95244 0.18344 0.0
C346 C 0.54261 0.92358 0.27638 0.0
C347 C 0.53005 0.88889 0.25504 0.0
C348 C 0.5039 0.90961 0.04506 0.0
C349 C 0.52131 0.94245 0.05737 0.0
N350 N 0.56326 0.97755 0.17477 0.0
N351 N 0.50329 0.84788 0.10307 0.0
C352 C 0.54207 0.9487 0.17099 0.0
C353 C 0.51143 0.88163 0.13599 0.0
N354 N 0.55532 0.93255 0.39814 0.0
N355 N 0.48014 0.90499 0.94608 0.0
H356 H 0.50902 0.82633 0.16238 0.0
H357 H 0.49365 0.84085 0.01045 0.0
H358 H 0.47449 0.92448 0.87653 0.0
H359 H 0.46381 0.88312 0.94055 0.0
H360 H 0.56302 0.95791 0.42259 0.0
H361 H 0.55486 0.91538 0.47915 0.0
H362 H 0.5817 0.98185 0.24858 0.0
H363 H 0.56515 0.99524 0.0961 0.0
C364 C 0.65168 0.52755 0.12887 0.0
C365 C 0.68232 0.51357 0.06664 0.0
C366 C 0.64666 0.49847 0.87083 0.0
C367 C 0.61644 0.51331 0.93307 0.0
N368 N 0.58855 0.5226 0.145 0.0
N369 N 0.70525 0.47461 0.89743 0.0
C370 C 0.61835 0.52186 0.06962 0.0
C371 C 0.67873 0.49578 0.94281 0.0
N372 N 0.65406 0.54777 0.24012 0.0
N373 N 0.64445 0.48569 0.74456 0.0
H374 H 0.72803 0.46996 0.95092 0.0
H375 H 0.70315 0.4585 0.81455 0.0
H376 H 0.6205 0.48153 0.69806 0.0
H377 H 0.6663 0.47947 0.68602 0.0
H378 H 0.63251 0.56087 0.28124 0.0
H379 H 0.67783 0.55472 0.28251 0.0
H380 H 0.58847 0.52844 0.2458 0.0
H381 H 0.56473 0.51367 0.10829 0.0
C382 C 0.99785 0.63554 0.24896 0.0
C383 C 1.00848 0.66885 0.19717 0.0
C384 C 1.01619 0.64156 0.97756 0.0
C385 C 1.01159 0.60748 0.03232 0.0
N386 N 0.99713 0.57165 0.2218 0.0
N387 N 0.03479 0.70113 0.0145 0.0
C388 C 1.00202 0.60435 0.16893 0.0
C389 C 1.01971 0.67103 0.06228 0.0
N390 N 0.9826 0.63389 0.37209 0.0
N391 N 1.01485 0.64628 0.84326 0.0
H392 H 0.03903 0.72309 0.07339 0.0
H393 H 0.04658 0.7028 0.9206 0.0
H394 H 1.00832 0.62593 0.77943 0.0
H395 H 1.01514 0.67092 0.79799 0.0
H396 H 0.97131 0.61126 0.41106 0.0
H397 H 0.97903 0.65587 0.43215 0.0
H398 H 0.99142 0.56676 0.3214 0.0
H399 H 0.99996 0.54892 0.16525 0.0
C400 C 0.94868 0.21925 0.54603 0.0
C401 C 0.93503 0.23536 0.43254 0.0
C402 C 0.88883 0.19111 0.42506 0.0
C403 C 0.91031 0.16952 0.5049 0.0
N404 N 0.96312 0.16264 0.63484 0.0
N405 N 0.88693 0.24363 0.28611 0.0
C406 C 0.94026 0.18376 0.5684 0.0
C407 C 0.90233 0.22421 0.38322 0.0
N408 N 0.97292 0.23641 0.6202 0.0
N409 N 0.85707 0.17896 0.38404 0.0
H410 H 0.89756 0.26773 0.2563 0.0
H411 H 0.86466 0.23586 0.235 0.0
H412 H 0.84751 0.15442 0.41361 0.0
H413 H 0.83947 0.19388 0.32938 0.0
H414 H 0.9835 0.22592 0.70661 0.0
H415 H 0.97955 0.26252 0.60119 0.0
H416 H 0.98738 0.17136 0.66824 0.0
H417 H 0.95939 0.13574 0.64639 0.0
C418 C 0.32896 0.11704 0.35285 0.0
C419 C 0.30526 0.0914 0.40041 0.0
C420 C 0.35336 0.06043 0.50258 0.0
C421 C 0.37592 0.07603 0.40475 0.0
N422 N 0.38627 0.12384 0.24891 0.0
N423 N 0.29303 0.05381 0.58457 0.0
C424 C 0.36489 0.10723 0.33891 0.0
C425 C 0.31712 0.06914 0.50177 0.0
N426 N 0.31592 0.14729 0.30145 0.0
N427 N 0.36651 0.03644 0.58975 0.0
H428 H 0.26676 0.06153 0.5836 0.0
H429 H 0.29883 0.03478 0.65516 0.0
H430 H 0.39344 0.03209 0.59827 0.0
H431 H 0.35124 1.02152 0.65489 0.0
H432 H 0.33176 0.16785 0.26778 0.0
H433 H 0.2889 0.15212 0.30351 0.0
H434 H 0.37793 0.14462 0.18981 0.0
H435 H 0.41157 0.11532 0.22606 0.0
C436 C 0.63357 0.30243 0.38429 0.0
C437 C 0.62906 0.29713 0.24695 0.0
C438 C 0.65499 0.35416 0.20209 0.0
C439 C 0.64409 0.36378 0.33206 0.0
N440 N 0.63451 0.34626 0.55902 0.0
N441 N 0.65715 0.30713 0.03722 0.0
C442 C 0.63835 0.33731 0.42867 0.0
C443 C 0.64918 0.31887 0.16149 0.0
N444 N 0.63317 0.27455 0.469 0.0
N445 N 0.6669 0.37933 0.11625 0.0
H446 H 0.65018 0.28173 0.00869 0.0
H447 H 0.6717 0.32143 0.96756 0.0
H448 H 0.67095 0.40511 0.1475 0.0
H449 H 0.67278 0.37473 0.01655 0.0
H450 H 0.6376 0.27678 0.57057 0.0
H451 H 0.63234 0.24893 0.43318 0.0
H452 H 0.62662 0.32863 0.63286 0.0
H453 H 0.63873 0.37198 0.59083 0.0
C454 C 0.23135 0.61401 0.47398 0.0
C455 C 0.23958 0.61924 0.33864 0.0
C456 C 0.18989 0.65947 0.3255 0.0
C457 C 0.17473 0.64182 0.43673 0.0
N458 N 0.18356 0.6021 0.62463 0.0
N459 N 0.23395 0.65611 0.14802 0.0
C460 C 0.19645 0.62 0.51677 0.0
C461 C 0.22195 0.64638 0.27077 0.0
N462 N 0.25609 0.60164 0.55864 0.0
N463 N 0.17235 0.68677 0.26893 0.0
H464 H 0.25739 0.64587 0.1095 0.0
H465 H 0.22062 0.67313 0.08519 0.0
H466 H 0.14867 0.69597 0.30906 0.0
H467 H 0.18248 0.7017 0.19058 0.0
H468 H 0.2515 0.59894 0.66056 0.0
H469 H 0.28224 0.59879 0.52925 0.0
H470 H 0.19795 0.58272 0.67303 0.0
H471 H 0.15818 0.60451 0.66196 0.0
C472 C 0.14056 0.80967 0.39358 0.0
C473 C 0.11322 0.79655 0.31295 0.0
C474 C 0.13637 0.83148 0.12928 0.0
C475 C 0.15148 0.85406 0.22317 0.0
N476 N 0.18104 0.85833 0.42996 0.0
N477 N 0.08884 0.79095 0.09374 0.0
C478 C 0.15932 0.83994 0.34925 0.0
C479 C 0.11303 0.8052 0.17604 0.0
N480 N 0.14609 0.79482 0.51496 0.0
N481 N 0.14379 0.83565 0.9976 0.0
H482 H 0.07112 0.77177 0.12416 0.0
H483 H 0.08547 0.79957 0.99688 0.0
H484 H 0.16222 0.85395 0.96413 0.0
H485 H 0.13501 0.81827 0.92544 0.0
H486 H 0.16589 0.80257 0.57888 0.0
H487 H 0.13175 0.7729 0.54677 0.0
H488 H 0.18586 0.85181 0.52853 0.0
H489 H 0.19397 0.88079 0.39497 0.0
C490 C 0.71743 0.13985 0.34792 0.0
C491 C 0.73039 0.10697 0.30579 0.0
C492 C 0.6775 0.09549 0.18416 0.0
C493 C 0.66211 0.1258 0.24309 0.0
N494 N 0.66947 0.181 0.35609 0.0
N495 N 0.73144 0.06453 0.13098 0.0
C496 C 0.68307 0.14989 0.31348 0.0
C497 C 0.71367 0.08947 0.20151 0.0
N498 N 0.7364 0.16021 0.43116 0.0
N499 N 0.65711 0.07052 0.1259 0.0
H500 H 0.75811 0.05997 0.1455 0.0
H501 H 0.72071 0.05123 0.0508 0.0
H502 H 0.63001 0.07293 0.11637 0.0
H503 H 0.66673 0.04616 0.09598 0.0
H504 H 0.76167 0.15339 0.46116 0.0
H505 H 0.76167 0.15339 0.46116 0.0
H506 H 0.68407 0.19878 0.41171 0.0
H507 H 0.64419 0.18906 0.33124 0.0
C508 C 0.63365 0.7178 0.23378 0.0
C509 C 0.61062 0.74582 0.20868 0.0
C510 C 0.57569 0.70966 0.06708 0.0
C511 C 0.58904 0.6802 0.13701 0.0
N512 N 0.63727 0.65438 0.25843 0.0
N513 N 0.58459 0.77156 0.01654 0.0
C514 C 0.62133 0.68327 0.20637 0.0
C515 C 0.59078 0.74277 0.0928 0.0
N516 N 0.66373 0.72439 0.30063 0.0
N517 N 0.54767 0.70632 0.98503 0.0
H518 H 0.5962 0.79564 0.03863 0.0
H519 H 0.5709 0.77052 0.92759 0.0
H520 H 0.53698 0.68192 0.96158 0.0
H521 H 0.53491 0.72777 0.94309 0.0
H522 H 0.68243 0.70533 0.32185 0.0
H523 H 0.67025 0.75006 0.32709 0.0
H524 H 0.65918 0.6556 0.31902 0.0
H525 H 0.62803 0.62901 0.24303 0.0
C526 C 0.81745 0.38636 0.34187 0.0
C527 C 0.80695 0.4115 0.24537 0.0
C528 C 0.8434 0.38102 0.08258 0.0
C529 C 0.86425 0.36976 0.18875 0.0
N530 N 0.86104 0.34186 0.40042 0.0
N531 N 0.80326 0.42614 0.01118 0.0
C532 C 0.84666 0.36434 0.31104 0.0
C533 C 0.81688 0.40613 0.11027 0.0
N534 N 0.80151 0.38621 0.46393 0.0
N535 N 0.84993 0.36865 0.95802 0.0
H536 H 0.78397 0.44496 0.02737 0.0
H537 H 0.81177 0.42424 0.91284 0.0
H538 H 0.86861 0.34905 0.9416 0.0
H539 H 0.83444 0.37474 0.87652 0.0
H540 H 0.80858 0.36966 0.54147 0.0
H541 H 0.78014 0.40257 0.48474 0.0
H542 H 0.85077 0.33709 0.49502 0.0
H543 H 0.88327 0.3272 0.3747 0.0
C544 C 0.04137 0.17048 0.09493 0.0
C545 C 1.0117 0.19225 0.07216 0.0
C546 C 0.98426 0.14336 0.94919 0.0
C547 C 1.01448 0.12181 0.96672 0.0
N548 N 0.07559 0.11964 0.0264 0.0
N549 N 0.95929 0.20203 0.94696 0.0
C550 C 0.04421 0.13694 0.03029 0.0
C551 C 0.98486 0.17946 0.98804 0.0
N552 N 0.06603 0.18078 0.18401 0.0
N553 N 0.95389 0.12911 0.90368 0.0
H554 H 0.95944 0.22862 0.9716 0.0
H555 H 0.94028 0.19533 0.87797 0.0
H556 H 0.95235 0.1039 0.86597 0.0
H557 H 0.92976 0.14194 0.90839 0.0
H558 H 0.08582 0.16427 0.21776 0.0
H559 H 0.06527 0.20511 0.231 0.0
H560 H 0.0989 0.13054 0.06032 0.0
H561 H 0.07909 0.09599 0.97605 0.0
C562 C 0.33683 0.04974 0.91869 0.0
C563 C 0.32353 1.02237 1.00116 0.0
C564 C 0.38167 0.99348 0.98273 0.0
C565 C 0.39631 1.0243 0.92373 0.0
N566 N 0.38793 0.08453 0.8601 0.0
N567 N 0.33377 0.96761 0.1125 0.0
C568 C 0.37378 0.05302 0.89633 0.0
C569 C 0.34594 0.9936 0.03059 0.0
N570 N 0.31406 0.0744 0.87235 0.0
N571 N 0.40205 0.9642 0.99442 0.0
H572 H 0.30759 0.96638 0.14378 0.0
H573 H 0.34973 0.94831 0.15334 0.0
H574 H 0.42824 0.96361 0.96317 0.0
H575 H 0.39236 0.93992 0.02531 0.0
H576 H 0.32136 0.09407 0.8054 0.0
H577 H 0.28707 0.07259 0.89106 0.0
H578 H 0.37328 0.1074 0.84887 0.0
H579 H 0.41491 0.0886 0.85742 0.0
C580 C 0.53719 0.35261 0.90476 0.0
C581 C 0.52245 0.34506 0.03214 0.0
C582 C 0.49207 0.40213 0.02073 0.0
C583 C 0.51361 0.41291 0.91073 0.0
N584 N 0.56318 0.39775 0.76726 0.0
N585 N 0.48843 0.36621 0.21957 0.0
C586 C 0.5376 0.38784 0.8561 0.0
C587 C 0.50027 0.37067 0.0921 0.0
N588 N 0.55207 0.32617 0.83221 0.0
N589 N 0.46314 0.4213 0.05548 0.0
H590 H 0.49396 0.344 0.27606 0.0
H591 H 0.47552 0.38598 0.27231 0.0
H592 H 0.45463 0.44275 0.9999 0.0
H593 H 0.44527 0.41317 0.12862 0.0
H594 H 0.56075 0.32957 0.73433 0.0
H595 H 0.55204 0.30019 0.86548 0.0
H596 H 0.58285 0.3807 0.73485 0.0
H597 H 0.56803 0.42358 0.73927 0.0
C598 C 0.15806 0.51744 0.17306 0.0
C599 C 0.18857 0.52066 0.09236 0.0
C600 C 0.152 0.51002 0.8953 0.0
C601 C 0.12057 0.51383 0.97333 0.0
N602 N 0.09612 0.52893 0.1908 0.0
N603 N 0.2141 0.51857 0.87097 0.0
C604 C 0.12419 0.51902 0.1139 0.0
C605 C 0.18544 0.51661 0.95275 0.0
N606 N 0.16152 0.51396 0.3075 0.0
N607 N 0.15058 0.49965 0.76573 0.0
H608 H 0.23956 0.52296 0.90434 0.0
H609 H 0.23956 0.52296 0.90434 0.0
H610 H 0.12782 0.49016 0.72226 0.0
H611 H 0.173 0.49759 0.70549 0.0
H612 H 0.14066 0.50775 0.37127 0.0
H613 H 0.18597 0.51334 0.35317 0.0
H614 H 0.09774 0.53362 0.29233 0.0
H615 H 0.07259 0.538 0.15252 0.0
C616 C 0.04477 0.84073 0.73166 0.0
C617 C 1.02078 0.82963 0.63275 0.0
C618 C 0.98576 0.88288 0.68003 0.0
C619 C 1.01303 0.89672 0.761 0.0
N620 N 0.06856 0.88582 0.87049 0.0
N621 N 0.96905 0.84207 0.5064 0.0
C622 C 0.04216 0.87464 0.7902 0.0
C623 C 0.9911 0.85099 0.60679 0.0
N624 N 0.07208 0.81986 0.76726 0.0
N625 N 0.95409 0.89967 0.6767 0.0
H626 H 0.97156 0.81872 0.45341 0.0
H627 H 0.94972 0.85878 0.4703 0.0
H628 H 0.94856 0.92173 0.73439 0.0
H629 H 0.93217 0.88953 0.62933 0.0
H630 H 0.07582 0.79426 0.7332 0.0
H631 H 0.07582 0.79426 0.7332 0.0
H632 H 0.0904 0.87038 0.89108 0.0
H633 H 0.06957 0.91034 0.91485 0.0
C634 C 0.68238 0.05925 0.76992 0.0
C635 C 0.69561 0.0331 0.68237 0.0
C636 C 0.64028 1.00028 0.71845 0.0
C637 C 0.62435 0.02989 0.78167 0.0
N638 N 0.63168 0.08957 0.85849 0.0
N639 N 0.68534 0.97905 0.56582 0.0
C640 C 0.64596 0.05971 0.80692 0.0
C641 C 0.67424 1.00342 0.65613 0.0
N642 N 0.70482 0.08438 0.81506 0.0
N643 N 0.62332 0.96872 0.72071 0.0
H644 H 0.71014 0.97989 0.52096 0.0
H645 H 0.66913 0.95933 0.5296 0.0
H646 H 0.5996 0.96496 0.77154 0.0
H647 H 0.63469 0.94555 0.68622 0.0
H648 H 0.69791 0.10274 0.88729 0.0
H649 H 0.73151 0.08436 0.79002 0.0
H650 H 0.64473 0.11359 0.85936 0.0
H651 H 0.60642 0.09082 0.8973 0.0
C652 C 0.56024 0.68956 0.66539 0.0
C653 C 0.53519 0.70468 0.57808 0.0
C654 C 0.50193 0.6489 0.5874 0.0
C655 C 0.52955 0.63236 0.65789 0.0
N656 N 0.58663 0.63672 0.75683 0.0
N657 N 0.4801 0.69737 0.46226 0.0
C658 C 0.55893 0.65282 0.69683 0.0
C659 C 0.50544 0.68427 0.54251 0.0
N660 N 0.5857 0.71069 0.71663 0.0
N661 N 0.47184 0.63082 0.56162 0.0
H662 H 0.48032 0.72271 0.42286 0.0
H663 H 0.48032 0.72271 0.42286 0.0
H664 H 0.46706 0.60566 0.5985 0.0
H665 H 0.45113 0.64172 0.50851 0.0
H666 H 0.60368 0.70261 0.78739 0.0
H667 H 0.58659 0.73761 0.6973 0.0
H668 H 0.61036 0.64907 0.77635 0.0
H669 H 0.58705 0.60997 0.77851 0.0
C670 C 0.84603 0.498 0.63889 0.0
C671 C 0.84201 0.51367 0.51254 0.0
C672 C 0.89899 0.54282 0.54432 0.0
C673 C 0.90708 0.52006 0.65297 0.0
N674 N 0.8861 0.47132 0.79186 0.0
N675 N 0.86667 0.55009 0.33959 0.0
C676 C 0.87984 0.49674 0.69892 0.0
C677 C 0.86902 0.53598 0.46387 0.0
N678 N 0.81742 0.48365 0.70104 0.0
N679 N 0.91847 0.57233 0.52222 0.0
H680 H 0.84463 0.54667 0.28043 0.0
H681 H 0.88747 0.56333 0.29341 0.0
H682 H 0.93795 0.58053 0.58703 0.0
H683 H 0.91177 0.59107 0.45124 0.0
H684 H 0.81769 0.47619 0.8006 0.0
H685 H 0.79259 0.48368 0.65816 0.0
H686 H 0.86773 0.45199 0.81619 0.0
H687 H 0.91025 0.4663 0.83424 0.0
loop_
_geom_bond_atom_site_label_1
_geom_bond_atom_site_label_2
_geom_bond_distance
_geom_bond_site_symmetry_2
_ccdc_geom_bond_type
H0 C5 0.930 . S
H1 C8 0.930 . S
H2 C10 0.930 . S
H3 C4 1.016 . S
C4 H3 1.016 . S
C4 N11 1.286 . S
C5 H0 0.930 . S
C5 C6 1.397 . S
C5 C7 1.361 . S
C6 C5 1.397 . S
C6 C10 1.390 . S
C7 C5 1.361 . S
C7 C8 1.393 . S
C7 N11 1.413 . S
C8 H1 0.930 . S
C8 C7 1.393 . S
C8 C9 1.399 . S
C9 C8 1.399 . S
C9 C10 1.381 . S
C10 H2 0.930 . S
C10 C6 1.390 . S
C10 C9 1.381 . S
N11 C4 1.286 . S
N11 C7 1.413 . S
H12 C17 0.930 . S
H13 C20 0.930 . S
H14 C22 0.930 . S
H15 C16 1.016 . S
C16 H15 1.016 . S
C16 N23 1.286 1_655 S
C17 H12 0.930 . S
C17 C18 1.397 . S
C17 C19 1.361 . S
C18 C17 1.397 . S
C18 C22 1.390 1_455 S
C19 C17 1.361 . S
C19 C20 1.393 . S
C19 N23 1.413 . S
C20 H13 0.930 . S
C20 C19 1.393 . S
C20 C21 1.403 . S
C21 C20 1.403 . S
C21 C22 1.379 1_455 S
C22 H14 0.930 . S
C22 C18 1.390 1_655 S
C22 C21 1.379 1_655 S
N23 C16 1.286 1_455 S
N23 C19 1.413 . S
H24 C29 0.930 . S
H25 C32 0.930 . S
H26 C34 0.930 . S
H27 C28 1.016 . S
C28 H27 1.016 . S
C28 N35 1.286 1_565 S
C29 H24 0.930 . S
C29 C30 1.397 . S
C29 C31 1.361 . S
C30 C29 1.397 . S
C30 C34 1.390 1_545 S
C31 C29 1.361 . S
C31 C32 1.393 . S
C31 N35 1.413 . S
C32 H25 0.930 . S
C32 C31 1.393 . S
C32 C33 1.403 . S
C33 C32 1.403 . S
C33 C34 1.379 1_545 S
C34 H26 0.930 . S
C34 C30 1.390 1_565 S
C34 C33 1.379 1_565 S
N35 C28 1.286 1_545 S
N35 C31 1.413 . S
H36 C41 0.930 . S
H37 C44 0.930 . S
H38 C46 0.930 . S
H39 C40 1.016 . S
C40 H39 1.016 . S
C40 N47 1.286 . S
C41 H36 0.930 . S
C41 C42 1.397 . S
C41 C43 1.361 . S
C42 C41 1.397 . S
C42 C46 1.390 . S
C43 C41 1.361 . S
C43 C44 1.393 . S
C43 N47 1.413 . S
C44 H37 0.930 . S
C44 C43 1.393 . S
C44 C45 1.399 . S
C45 C44 1.399 . S
C45 C46 1.381 . S
C46 H38 0.930 . S
C46 C42 1.390 . S
C46 C45 1.381 . S
N47 C40 1.286 . S
N47 C43 1.413 . S
H48 C53 0.930 . S
H49 C56 0.930 . S
H50 C58 0.930 1_556 S
H51 C52 1.016 . S
C52 H51 1.016 . S
C52 N59 1.286 . S
C53 H48 0.930 . S
C53 C54 1.397 . S
C53 C55 1.361 1_556 S
C54 C53 1.397 . S
C54 C58 1.390 1_556 S
C55 C53 1.361 1_554 S
C55 C56 1.393 . S
C55 N59 1.413 . S
C56 H49 0.930 . S
C56 C55 1.393 . S
C56 C57 1.399 . S
C57 C56 1.399 . S
C57 C58 1.381 . S
C58 H50 0.930 1_554 S
C58 C54 1.390 1_554 S
C58 C57 1.381 . S
N59 C52 1.286 . S
N59 C55 1.413 . S
H60 C65 0.930 . S
H61 C68 0.930 . S
H62 C70 0.930 . S
H63 C64 1.026 . S
C64 H63 1.026 . S
C64 N71 1.272 1_655 S
C65 H60 0.930 . S
C65 C66 1.397 . S
C65 C67 1.361 1_556 S
C66 C65 1.397 . S
C66 C70 1.390 1_456 S
C67 C65 1.361 1_554 S
C67 C68 1.393 . S
C67 N71 1.413 . S
C68 H61 0.930 . S
C68 C67 1.393 . S
C68 C69 1.404 . S
C69 C68 1.404 . S
C69 C70 1.378 1_455 S
C70 H62 0.930 . S
C70 C66 1.390 1_654 S
C70 C69 1.378 1_655 S
N71 C64 1.272 1_455 S
N71 C67 1.413 . S
H72 C77 0.930 . S
H73 C80 0.930 . S
H74 C82 0.930 1_556 S
H75 C76 1.026 . S
C76 H75 1.026 . S
C76 N83 1.272 1_565 S
C77 H72 0.930 . S
C77 C78 1.397 . S
C77 C79 1.361 1_556 S
C78 C77 1.397 . S
C78 C82 1.390 1_546 S
C79 C77 1.361 1_554 S
C79 C80 1.393 . S
C79 N83 1.413 . S
C80 H73 0.930 . S
C80 C79 1.393 . S
C80 C81 1.404 . S
C81 C80 1.404 . S
C81 C82 1.378 1_545 S
C82 H74 0.930 1_554 S
C82 C78 1.390 1_564 S
C82 C81 1.378 1_565 S
N83 C76 1.272 1_545 S
N83 C79 1.413 . S
H84 C89 0.930 . S
H85 C92 0.930 . S
H86 C94 0.930 1_556 S
H87 C88 1.016 . S
C88 H87 1.016 . S
C88 N95 1.286 . S
C89 H84 0.930 . S
C89 C90 1.397 . S
C89 C91 1.361 1_556 S
C90 C89 1.397 . S
C90 C94 1.390 1_556 S
C91 C89 1.361 1_554 S
C91 C92 1.393 . S
C91 N95 1.413 . S
C92 H85 0.930 . S
C92 C91 1.393 . S
C92 C93 1.399 . S
C93 C92 1.399 . S
C93 C94 1.381 . S
C94 H86 0.930 1_554 S
C94 C90 1.390 1_554 S
C94 C93 1.381 . S
N95 C88 1.286 . S
N95 C91 1.413 . S
Ho96 C99 2.811 1_556 S
Ho96 O116 2.322 . S
Ho96 O118 2.378 1_556 S
Ho96 O119 2.524 1_556 S
Ho96 O120 2.381 . S
Ho96 O121 2.669 1_565 S
Ho96 O123 2.346 1_565 S
Ho96 O127 2.305 1_455 S
Ho97 C108 2.811 . S
Ho97 O117 2.346 1_545 S
Ho97 O121 2.305 1_655 S
Ho97 O122 2.322 . S
Ho97 O124 2.378 . S
Ho97 O125 2.524 . S
Ho97 O126 2.381 . S
Ho97 O127 2.669 1_545 S
C98 O116 1.259 1_655 S
C98 O117 1.268 . S
C99 Ho96 2.811 1_554 S
C99 C100 1.488 . S
C99 O118 1.215 . S
C99 O119 1.289 . S
C100 C99 1.488 . S
C100 C101 1.348 . S
C100 C105 1.413 . S
C101 C100 1.348 . S
C101 C102 1.442 . S
C101 H128 0.930 1_455 S
C102 C101 1.442 . S
C102 C103 1.381 . S
C102 H129 0.934 . S
C103 C102 1.381 . S
C103 C104 1.321 . S
C104 C103 1.321 . S
C104 C105 1.403 . S
C104 H130 0.934 . S
C105 C100 1.413 . S
C105 C104 1.403 . S
C105 H131 0.930 . S
C106 O120 1.275 . S
C106 O121 1.256 1_565 S
C107 O122 1.259 1_455 S
C107 O123 1.268 . S
C108 Ho97 2.811 . S
C108 C109 1.488 . S
C108 O124 1.215 . S
C108 O125 1.289 . S
C109 C108 1.488 . S
C109 C110 1.348 . S
C109 C114 1.413 . S
C110 C109 1.348 . S
C110 C111 1.442 . S
C110 H132 0.930 1_655 S
C111 C110 1.442 . S
C111 C112 1.381 . S
C111 H133 0.928 . S
C112 C111 1.381 . S
C112 C113 1.321 . S
C113 C112 1.321 . S
C113 C114 1.403 . S
C113 H134 0.934 . S
C114 C109 1.413 . S
C114 C113 1.403 . S
C114 H135 0.930 . S
C115 O126 1.275 . S
C115 O127 1.256 1_545 S
O116 Ho96 2.322 . S
O116 C98 1.259 1_455 S
O117 Ho97 2.346 1_565 S
O117 C98 1.268 . S
O118 Ho96 2.378 1_554 S
O118 C99 1.215 . S
O119 Ho96 2.524 1_554 S
O119 C99 1.289 . S
O120 Ho96 2.381 . S
O120 C106 1.275 . S
O121 Ho96 2.669 1_545 S
O121 Ho97 2.305 1_455 S
O121 C106 1.256 1_545 S
O122 Ho97 2.322 . S
O122 C107 1.259 1_655 S
O123 Ho96 2.346 1_545 S
O123 C107 1.268 . S
O124 Ho97 2.378 . S
O124 C108 1.215 . S
O125 Ho97 2.524 . S
O125 C108 1.289 . S
O126 Ho97 2.381 . S
O126 C115 1.275 . S
O127 Ho96 2.305 1_655 S
O127 Ho97 2.669 1_565 S
O127 C115 1.256 1_565 S
H128 C101 0.930 1_655 S
H129 C102 0.934 . S
H130 C104 0.934 . S
H131 C105 0.930 . S
H132 C110 0.930 1_455 S
H133 C111 0.928 . S
H134 C113 0.934 . S
H135 C114 0.930 . S
Ho136 C139 2.811 1_556 S
Ho136 O156 2.322 . S
Ho136 O158 2.378 1_556 S
Ho136 O159 2.524 1_556 S
Ho136 O160 2.381 . S
Ho136 O161 2.669 . S
Ho136 O163 2.346 . S
Ho136 O167 2.305 1_545 S
Ho137 C148 2.811 . S
Ho137 O157 2.346 . S
Ho137 O161 2.305 1_565 S
Ho137 O162 2.322 . S
Ho137 O164 2.378 . S
Ho137 O165 2.524 . S
Ho137 O166 2.381 . S
Ho137 O167 2.669 . S
C138 O156 1.259 1_565 S
C138 O157 1.268 . S
C139 Ho136 2.811 1_554 S
C139 C140 1.488 . S
C139 O158 1.215 . S
C139 O159 1.289 . S
C140 C139 1.488 . S
C140 C141 1.348 . S
C140 C145 1.413 . S
C141 C140 1.348 . S
C141 C142 1.442 . S
C141 H168 0.930 1_545 S
C142 C141 1.442 . S
C142 C143 1.381 . S
C142 H169 0.931 1_545 S
C143 C142 1.381 . S
C143 C144 1.321 . S
C144 C143 1.321 . S
C144 C145 1.403 . S
C144 H170 0.934 . S
C145 C140 1.413 . S
C145 C144 1.403 . S
C145 H171 0.930 . S
C146 O160 1.275 . S
C146 O161 1.256 . S
C147 O162 1.259 1_545 S
C147 O163 1.268 . S
C148 Ho137 2.811 . S
C148 C149 1.488 . S
C148 O164 1.215 . S
C148 O165 1.289 . S
C149 C148 1.488 . S
C149 C150 1.348 . S
C149 C154 1.413 . S
C150 C149 1.348 . S
C150 C151 1.442 . S
C150 H172 0.930 1_565 S
C151 C150 1.442 . S
C151 C152 1.381 . S
C151 H173 0.931 1_565 S
C152 C151 1.381 . S
C152 C153 1.321 . S
C153 C152 1.321 . S
C153 C154 1.403 . S
C153 H174 0.934 . S
C154 C149 1.413 . S
C154 C153 1.403 . S
C154 H175 0.930 . S
C155 O166 1.275 . S
C155 O167 1.256 . S
O156 Ho136 2.322 . S
O156 C138 1.259 1_545 S
O157 Ho137 2.346 . S
O157 C138 1.268 . S
O158 Ho136 2.378 1_554 S
O158 C139 1.215 . S
O159 Ho136 2.524 1_554 S
O159 C139 1.289 . S
O160 Ho136 2.381 . S
O160 C146 1.275 . S
O161 Ho136 2.669 . S
O161 Ho137 2.305 1_545 S
O161 C146 1.256 . S
O162 Ho137 2.322 . S
O162 C147 1.259 1_565 S
O163 Ho136 2.346 . S
O163 C147 1.268 . S
O164 Ho137 2.378 . S
O164 C148 1.215 . S
O165 Ho137 2.524 . S
O165 C148 1.289 . S
O166 Ho137 2.381 . S
O166 C155 1.275 . S
O167 Ho136 2.305 1_565 S
O167 Ho137 2.669 . S
O167 C155 1.256 . S
H168 C141 0.930 1_565 S
H169 C142 0.931 1_565 S
H170 C144 0.934 . S
H171 C145 0.930 . S
H172 C150 0.930 1_545 S
H173 C151 0.931 1_545 S
H174 C153 0.934 . S
H175 C154 0.930 . S
Ho176 C179 2.811 1_556 S
Ho176 O196 2.322 . S
Ho176 O198 2.378 1_556 S
Ho176 O199 2.524 1_556 S
Ho176 O200 2.381 . S
Ho176 O201 2.669 . S
Ho176 O203 2.346 . S
Ho176 O207 2.305 . S
Ho177 C188 2.811 . S
Ho177 O197 2.346 . S
Ho177 O201 2.305 . S
Ho177 O202 2.322 . S
Ho177 O204 2.378 . S
Ho177 O205 2.524 . S
Ho177 O206 2.381 . S
Ho177 O207 2.669 . S
C178 O196 1.259 . S
C178 O197 1.268 . S
C179 Ho176 2.811 1_554 S
C179 C180 1.488 . S
C179 O198 1.215 . S
C179 O199 1.289 . S
C180 C179 1.488 . S
C180 C181 1.348 . S
C180 C185 1.413 . S
C181 C180 1.348 . S
C181 C182 1.442 . S
C181 H208 0.930 . S
C182 C181 1.442 . S
C182 C183 1.381 . S
C182 H209 0.931 . S
C183 C182 1.381 . S
C183 C184 1.321 . S
C184 C183 1.321 . S
C184 C185 1.403 . S
C184 H210 0.934 . S
C185 C180 1.413 . S
C185 C184 1.403 . S
C185 H211 0.930 . S
C186 O200 1.275 . S
C186 O201 1.256 . S
C187 O202 1.259 . S
C187 O203 1.268 . S
C188 Ho177 2.811 . S
C188 C189 1.488 . S
C188 O204 1.215 . S
C188 O205 1.289 . S
C189 C188 1.488 . S
C189 C190 1.348 . S
C189 C194 1.413 . S
C190 C189 1.348 . S
C190 C191 1.442 . S
C190 H212 0.930 . S
C191 C190 1.442 . S
C191 C192 1.381 . S
C191 H213 0.931 . S
C192 C191 1.381 . S
C192 C193 1.321 . S
C193 C192 1.321 . S
C193 C194 1.403 . S
C193 H214 0.934 . S
C194 C189 1.413 . S
C194 C193 1.403 . S
C194 H215 0.930 . S
C195 O206 1.275 . S
C195 O207 1.256 . S
O196 Ho176 2.322 . S
O196 C178 1.259 . S
O197 Ho177 2.346 . S
O197 C178 1.268 . S
O198 Ho176 2.378 1_554 S
O198 C179 1.215 . S
O199 Ho176 2.524 1_554 S
O199 C179 1.289 . S
O200 Ho176 2.381 . S
O200 C186 1.275 . S
O201 Ho176 2.669 . S
O201 Ho177 2.305 . S
O201 C186 1.256 . S
O202 Ho177 2.322 . S
O202 C187 1.259 . S
O203 Ho176 2.346 . S
O203 C187 1.268 . S
O204 Ho177 2.378 . S
O204 C188 1.215 . S
O205 Ho177 2.524 . S
O205 C188 1.289 . S
O206 Ho177 2.381 . S
O206 C195 1.275 . S
O207 Ho176 2.305 . S
O207 Ho177 2.669 . S
O207 C195 1.256 . S
H208 C181 0.930 . S
H209 C182 0.931 . S
H210 C184 0.934 . S
H211 C185 0.930 . S
H212 C190 0.930 . S
H213 C191 0.931 . S
H214 C193 0.934 . S
H215 C194 0.930 . S
Ho216 C219 2.811 1_556 S
Ho216 O236 2.322 . S
Ho216 O238 2.378 1_556 S
Ho216 O239 2.524 1_556 S
Ho216 O240 2.381 . S
Ho216 O241 2.669 1_655 S
Ho216 O243 2.346 1_655 S
Ho216 O247 2.305 . S
Ho217 C228 2.811 . S
Ho217 O237 2.346 1_455 S
Ho217 O241 2.305 . S
Ho217 O242 2.322 . S
Ho217 O244 2.378 . S
Ho217 O245 2.524 . S
Ho217 O246 2.381 . S
Ho217 O247 2.669 1_455 S
C218 O236 1.259 . S
C218 O237 1.268 . S
C219 Ho216 2.811 1_554 S
C219 C220 1.488 . S
C219 O238 1.215 . S
C219 O239 1.289 . S
C220 C219 1.488 . S
C220 C221 1.348 . S
C220 C225 1.413 . S
C221 C220 1.348 . S
C221 C222 1.442 . S
C221 H248 0.930 . S
C222 C221 1.442 . S
C222 C223 1.381 . S
C222 H249 0.931 . S
C223 C222 1.381 . S
C223 C224 1.321 . S
C224 C223 1.321 . S
C224 C225 1.403 . S
C224 H250 0.934 . S
C225 C220 1.413 . S
C225 C224 1.403 . S
C225 H251 0.930 . S
C226 O240 1.282 . S
C226 O241 1.252 1_655 S
C227 O242 1.259 . S
C227 O243 1.268 . S
C228 Ho217 2.811 . S
C228 C229 1.488 . S
C228 O244 1.215 . S
C228 O245 1.289 . S
C229 C228 1.488 . S
C229 C230 1.348 . S
C229 C234 1.413 . S
C230 C229 1.348 . S
C230 C231 1.442 . S
C230 H252 0.930 . S
C231 C230 1.442 . S
C231 C232 1.381 . S
C231 H253 0.931 . S
C232 C231 1.381 . S
C232 C233 1.321 . S
C233 C232 1.321 . S
C233 C234 1.403 . S
C233 H254 0.934 . S
C234 C229 1.413 . S
C234 C233 1.403 . S
C234 H255 0.930 . S
C235 O246 1.286 . S
C235 O247 1.250 1_455 S
O236 Ho216 2.322 . S
O236 C218 1.259 . S
O237 Ho217 2.346 1_655 S
O237 C218 1.268 . S
O238 Ho216 2.378 1_554 S
O238 C219 1.215 . S
O239 Ho216 2.524 1_554 S
O239 C219 1.289 . S
O240 Ho216 2.381 . S
O240 C226 1.282 . S
O241 Ho216 2.669 1_455 S
O241 Ho217 2.305 . S
O241 C226 1.252 1_455 S
O242 Ho217 2.322 . S
O242 C227 1.259 . S
O243 Ho216 2.346 1_455 S
O243 C227 1.268 . S
O244 Ho217 2.378 . S
O244 C228 1.215 . S
O245 Ho217 2.524 . S
O245 C228 1.289 . S
O246 Ho217 2.381 . S
O246 C235 1.286 . S
O247 Ho216 2.305 . S
O247 Ho217 2.669 1_655 S
O247 C235 1.250 1_655 S
H248 C221 0.930 . S
H249 C222 0.931 . S
H250 C224 0.934 . S
H251 C225 0.930 . S
H252 C230 0.930 . S
H253 C231 0.931 . S
H254 C233 0.934 . S
H255 C234 0.930 . S
C256 C257 1.371 . S
C256 C262 1.379 . S
C256 N264 1.356 . S
C257 C256 1.371 . S
C257 C263 1.355 1_545 S
C258 C259 1.339 1_565 S
C258 C263 1.379 . S
C258 N265 1.356 . S
C259 C258 1.339 1_545 S
C259 C262 1.387 . S
N260 C262 1.356 . S
N260 H272 0.984 . S
N260 H273 0.985 . S
N261 C263 1.356 . S
N261 H266 0.984 . S
N261 H267 0.985 . S
C262 C256 1.379 . S
C262 C259 1.387 . S
C262 N260 1.356 . S
C263 C257 1.355 1_565 S
C263 C258 1.379 . S
C263 N261 1.356 . S
N264 C256 1.356 . S
N264 H270 0.984 . S
N264 H271 0.984 . S
N265 C258 1.356 . S
N265 H268 0.984 . S
N265 H269 0.985 . S
H266 N261 0.984 . S
H267 N261 0.985 . S
H268 N265 0.984 . S
H269 N265 0.985 . S
H270 N264 0.984 . S
H271 N264 0.984 . S
H272 N260 0.984 . S
H273 N260 0.985 . S
C274 C275 1.363 . S
C274 C280 1.379 . S
C274 N282 1.356 . S
C275 C274 1.363 . S
C275 C281 1.363 . S
C276 C277 1.363 . S
C276 C281 1.379 . S
C276 N283 1.356 . S
C277 C276 1.363 . S
C277 C280 1.363 . S
N278 C280 1.356 . S
N278 H290 0.984 . S
N278 H291 0.985 . S
N279 C281 1.356 . S
N279 H284 0.984 . S
N279 H285 0.985 . S
C280 C274 1.379 . S
C280 C277 1.363 . S
C280 N278 1.356 . S
C281 C275 1.363 . S
C281 C276 1.379 . S
C281 N279 1.356 . S
N282 C274 1.356 . S
N282 H288 0.984 . S
N282 H289 0.984 . S
N283 C276 1.356 . S
N283 H286 0.984 . S
N283 H287 0.985 . S
H284 N279 0.984 . S
H285 N279 0.985 . S
H286 N283 0.984 . S
H287 N283 0.985 . S
H288 N282 0.984 . S
H289 N282 0.984 . S
H290 N278 0.984 . S
H291 N278 0.985 . S
C292 C293 1.363 . S
C292 C298 1.379 . S
C292 N300 1.356 . S
C293 C292 1.363 . S
C293 C299 1.363 . S
C294 C295 1.363 . S
C294 C299 1.379 . S
C294 N301 1.356 . S
C295 C294 1.363 . S
C295 C298 1.363 . S
N296 C298 1.356 . S
N296 H308 0.984 . S
N296 H309 0.985 . S
N297 C299 1.356 . S
N297 H302 0.984 . S
N297 H303 0.985 . S
C298 C292 1.379 . S
C298 C295 1.363 . S
C298 N296 1.356 . S
C299 C293 1.363 . S
C299 C294 1.379 . S
C299 N297 1.356 . S
N300 C292 1.356 . S
N300 H306 0.984 . S
N300 H307 0.984 . S
N301 C294 1.356 . S
N301 H304 0.984 . S
N301 H305 0.985 . S
H302 N297 0.984 . S
H303 N297 0.985 . S
H304 N301 0.984 . S
H305 N301 0.985 . S
H306 N300 0.984 . S
H307 N300 0.984 . S
H308 N296 0.984 . S
H309 N296 0.985 . S
C310 C311 1.341 1_655 S
C310 C316 1.379 . S
C310 N318 1.356 . S
C311 C310 1.341 1_455 S
C311 C317 1.386 . S
C312 C313 1.363 . S
C312 C317 1.379 . S
C312 N319 1.356 . S
C313 C312 1.363 . S
C313 C316 1.363 1_455 S
N314 C316 1.356 . S
N314 H326 0.984 . S
N314 H327 0.985 . S
N315 C317 1.356 . S
N315 H320 0.984 . S
N315 H321 0.985 . S
C316 C310 1.379 . S
C316 C313 1.363 1_655 S
C316 N314 1.356 . S
C317 C311 1.386 . S
C317 C312 1.379 . S
C317 N315 1.356 . S
N318 C310 1.356 . S
N318 H324 0.984 . S
N318 H325 0.984 . S
N319 C312 1.356 . S
N319 H322 0.984 . S
N319 H323 0.985 . S
H320 N315 0.984 . S
H321 N315 0.985 . S
H322 N319 0.984 . S
H323 N319 0.985 . S
H324 N318 0.984 . S
H325 N318 0.984 . S
H326 N314 0.984 . S
H327 N314 0.985 . S
C328 C329 1.366 . S
C328 C334 1.379 . S
C328 N336 1.356 . S
C329 C328 1.366 . S
C329 C335 1.360 1_565 S
C330 C331 1.345 1_545 S
C330 C335 1.379 . S
C330 N337 1.356 . S
C331 C330 1.345 1_565 S
C331 C334 1.381 . S
N332 C334 1.356 . S
N332 H344 0.984 . S
N332 H345 0.985 . S
N333 C335 1.356 . S
N333 H338 0.984 . S
N333 H339 0.985 . S
C334 C328 1.379 . S
C334 C331 1.381 . S
C334 N332 1.356 . S
C335 C329 1.360 1_545 S
C335 C330 1.379 . S
C335 N333 1.356 . S
N336 C328 1.356 . S
N336 H342 0.984 . S
N336 H343 0.984 . S
N337 C330 1.356 . S
N337 H340 0.984 1_554 S
N337 H341 0.985 . S
H338 N333 0.984 . S
H339 N333 0.985 . S
H340 N337 0.984 1_556 S
H341 N337 0.985 . S
H342 N336 0.984 . S
H343 N336 0.984 . S
H344 N332 0.984 . S
H345 N332 0.985 . S
C346 C347 1.363 . S
C346 C352 1.379 . S
C346 N354 1.356 . S
C347 C346 1.363 . S
C347 C353 1.363 . S
C348 C349 1.363 . S
C348 C353 1.379 . S
C348 N355 1.356 . S
C349 C348 1.363 . S
C349 C352 1.363 . S
N350 C352 1.356 . S
N350 H362 0.984 . S
N350 H363 0.985 1_554 S
N351 C353 1.356 . S
N351 H356 0.984 . S
N351 H357 0.985 . S
C352 C346 1.379 . S
C352 C349 1.363 . S
C352 N350 1.356 . S
C353 C347 1.363 . S
C353 C348 1.379 . S
C353 N351 1.356 . S
N354 C346 1.356 . S
N354 H360 0.984 . S
N354 H361 0.984 . S
N355 C348 1.356 . S
N355 H358 0.984 . S
N355 H359 0.985 . S
H356 N351 0.984 . S
H357 N351 0.985 . S
H358 N355 0.984 . S
H359 N355 0.985 . S
H360 N354 0.984 . S
H361 N354 0.984 . S
H362 N350 0.984 . S
H363 N350 0.985 1_556 S
C364 C365 1.363 . S
C364 C370 1.379 . S
C364 N372 1.356 . S
C365 C364 1.363 . S
C365 C371 1.363 . S
C366 C367 1.363 . S
C366 C371 1.379 . S
C366 N373 1.356 . S
C367 C366 1.363 . S
C367 C370 1.363 . S
N368 C370 1.356 . S
N368 H380 0.984 . S
N368 H381 0.985 . S
N369 C371 1.356 . S
N369 H374 0.984 . S
N369 H375 0.985 . S
C370 C364 1.379 . S
C370 C367 1.363 . S
C370 N368 1.356 . S
C371 C365 1.363 . S
C371 C366 1.379 . S
C371 N369 1.356 . S
N372 C364 1.356 . S
N372 H378 0.984 . S
N372 H379 0.984 . S
N373 C366 1.356 . S
N373 H376 0.984 1_554 S
N373 H377 0.985 1_554 S
H374 N369 0.984 . S
H375 N369 0.985 . S
H376 N373 0.984 1_556 S
H377 N373 0.985 1_556 S
H378 N372 0.984 . S
H379 N372 0.984 . S
H380 N368 0.984 . S
H381 N368 0.985 . S
C382 C383 1.363 1_455 S
C382 C388 1.378 1_455 S
C382 N390 1.356 . S
C383 C382 1.363 1_655 S
C383 C389 1.365 . S
C384 C385 1.363 . S
C384 C389 1.379 . S
C384 N391 1.356 1_554 S
C385 C384 1.363 . S
C385 C388 1.364 . S
N386 C388 1.356 . S
N386 H398 0.984 1_655 S
N386 H399 0.984 . S
N387 C389 1.356 . S
N387 H392 0.984 . S
N387 H393 0.985 . S
C388 C382 1.378 1_655 S
C388 C385 1.364 . S
C388 N386 1.356 . S
C389 C383 1.365 . S
C389 C384 1.379 . S
C389 N387 1.356 . S
N390 C382 1.356 . S
N390 H396 0.984 . S
N390 H397 0.984 . S
N391 C384 1.356 1_556 S
N391 H394 0.984 . S
N391 H395 0.985 . S
H392 N387 0.984 . S
H393 N387 0.985 . S
H394 N391 0.984 . S
H395 N391 0.985 . S
H396 N390 0.984 . S
H397 N390 0.984 . S
H398 N386 0.984 1_455 S
H399 N386 0.984 . S
C400 C401 1.363 . S
C400 C406 1.379 . S
C400 N408 1.356 1_655 S
C401 C400 1.363 . S
C401 C407 1.363 . S
C402 C403 1.363 . S
C402 C407 1.379 . S
C402 N409 1.356 . S
C403 C402 1.363 . S
C403 C406 1.363 . S
N404 C406 1.356 . S
N404 H416 0.984 . S
N404 H417 0.985 . S
N405 C407 1.356 . S
N405 H410 0.984 1_654 S
N405 H411 0.985 1_554 S
C406 C400 1.379 . S
C406 C403 1.363 . S
C406 N404 1.356 . S
C407 C401 1.363 . S
C407 C402 1.379 . S
C407 N405 1.356 . S
N408 C400 1.356 1_455 S
N408 H414 0.984 . S
N408 H415 0.984 . S
N409 C402 1.356 . S
N409 H412 0.984 . S
N409 H413 0.985 . S
H410 N405 0.984 1_456 S
H411 N405 0.985 1_556 S
H412 N409 0.984 . S
H413 N409 0.985 . S
H414 N408 0.984 . S
H415 N408 0.984 . S
H416 N404 0.984 . S
H417 N404 0.985 . S
C418 C419 1.363 . S
C418 C424 1.379 . S
C418 N426 1.356 1_565 S
C419 C418 1.363 . S
C419 C425 1.363 . S
C420 C421 1.363 . S
C420 C425 1.379 . S
C420 N427 1.356 . S
C421 C420 1.363 . S
C421 C424 1.363 . S
N422 C424 1.356 . S
N422 H434 0.984 . S
N422 H435 0.985 . S
N423 C425 1.356 . S
N423 H428 0.984 1_565 S
N423 H429 0.985 . S
C424 C418 1.379 . S
C424 C421 1.363 . S
C424 N422 1.356 . S
C425 C419 1.363 . S
C425 C420 1.379 . S
C425 N423 1.356 . S
N426 C418 1.356 1_545 S
N426 H432 0.984 1_554 S
N426 H433 0.984 . S
N427 C420 1.356 . S
N427 H430 0.984 . S
N427 H431 0.985 . S
H428 N423 0.984 1_545 S
H429 N423 0.985 . S
H430 N427 0.984 . S
H431 N427 0.985 . S
H432 N426 0.984 1_556 S
H433 N426 0.984 . S
H434 N422 0.984 . S
H435 N422 0.985 . S
C436 C437 1.363 . S
C436 C442 1.379 . S
C436 N444 1.356 . S
C437 C436 1.363 . S
C437 C443 1.363 . S
C438 C439 1.363 . S
C438 C443 1.379 . S
C438 N445 1.356 . S
C439 C438 1.363 . S
C439 C442 1.363 . S
N440 C442 1.356 . S
N440 H452 0.984 . S
N440 H453 0.985 . S
N441 C443 1.356 . S
N441 H446 0.984 . S
N441 H447 0.985 1_554 S
C442 C436 1.379 . S
C442 C439 1.363 . S
C442 N440 1.356 . S
C443 C437 1.363 . S
C443 C438 1.379 . S
C443 N441 1.356 . S
N444 C436 1.356 . S
N444 H450 0.984 . S
N444 H451 0.984 . S
N445 C438 1.356 . S
N445 H448 0.984 . S
N445 H449 0.985 . S
H446 N441 0.984 . S
H447 N441 0.985 1_556 S
H448 N445 0.984 . S
H449 N445 0.985 . S
H450 N444 0.984 . S
H451 N444 0.984 . S
H452 N440 0.984 . S
H453 N440 0.985 . S
C454 C455 1.363 . S
C454 C460 1.379 . S
C454 N462 1.356 . S
C455 C454 1.363 . S
C455 C461 1.363 . S
C456 C457 1.363 . S
C456 C461 1.379 . S
C456 N463 1.356 . S
C457 C456 1.363 . S
C457 C460 1.363 . S
N458 C460 1.356 . S
N458 H470 0.984 . S
N458 H471 0.985 . S
N459 C461 1.356 . S
N459 H464 0.984 . S
N459 H465 0.985 1_554 S
C460 C454 1.379 . S
C460 C457 1.363 . S
C460 N458 1.356 . S
C461 C455 1.363 . S
C461 C456 1.379 . S
C461 N459 1.356 . S
N462 C454 1.356 . S
N462 H468 0.984 . S
N462 H469 0.984 . S
N463 C456 1.356 . S
N463 H466 0.984 . S
N463 H467 0.985 . S
H464 N459 0.984 . S
H465 N459 0.985 1_556 S
H466 N463 0.984 . S
H467 N463 0.985 . S
H468 N462 0.984 . S
H469 N462 0.984 . S
H470 N458 0.984 . S
H471 N458 0.985 . S
C472 C473 1.363 . S
C472 C478 1.379 . S
C472 N480 1.356 1_455 S
C473 C472 1.363 . S
C473 C479 1.363 . S
C474 C475 1.363 . S
C474 C479 1.379 . S
C474 N481 1.356 . S
C475 C474 1.363 . S
C475 C478 1.363 . S
N476 C478 1.356 . S
N476 H488 0.984 . S
N476 H489 0.985 . S
N477 C479 1.356 . S
N477 H482 0.984 1_455 S
N477 H483 0.985 . S
C478 C472 1.379 . S
C478 C475 1.363 . S
C478 N476 1.356 . S
C479 C473 1.363 . S
C479 C474 1.379 . S
C479 N477 1.356 . S
N480 C472 1.356 1_655 S
N480 H486 0.984 . S
N480 H487 0.984 . S
N481 C474 1.356 . S
N481 H484 0.984 . S
N481 H485 0.985 . S
H482 N477 0.984 1_655 S
H483 N477 0.985 . S
H484 N481 0.984 . S
H485 N481 0.985 . S
H486 N480 0.984 . S
H487 N480 0.984 . S
H488 N476 0.984 . S
H489 N476 0.985 . S
C490 C491 1.363 . S
C490 C496 1.379 . S
C490 N498 1.356 . S
C491 C490 1.363 . S
C491 C497 1.363 1_545 S
C492 C493 1.363 . S
C492 C497 1.379 1_545 S
C492 N499 1.356 . S
C493 C492 1.363 . S
C493 C496 1.363 . S
N494 C496 1.356 . S
N494 H506 0.984 . S
N494 H507 0.985 . S
N495 C497 1.356 . S
N495 H500 0.984 . S
N495 H501 0.985 . S
C496 C490 1.379 . S
C496 C493 1.363 . S
C496 N494 1.356 . S
C497 C491 1.363 1_565 S
C497 C492 1.379 1_565 S
C497 N495 1.356 . S
N498 C490 1.356 . S
N498 H504 0.984 . S
N498 H505 0.984 . S
N499 C492 1.356 . S
N499 H502 0.984 . S
N499 H503 0.985 1_545 S
H500 N495 0.984 . S
H501 N495 0.985 . S
H502 N499 0.984 . S
H503 N499 0.985 1_565 S
H504 N498 0.984 . S
H505 N498 0.984 . S
H506 N494 0.984 . S
H507 N494 0.985 . S
C508 C509 1.363 . S
C508 C514 1.379 . S
C508 N516 1.356 . S
C509 C508 1.363 . S
C509 C515 1.363 . S
C510 C511 1.363 . S
C510 C515 1.379 . S
C510 N517 1.356 . S
C511 C510 1.363 . S
C511 C514 1.363 . S
N512 C514 1.356 . S
N512 H524 0.984 . S
N512 H525 0.985 . S
N513 C515 1.356 . S
N513 H518 0.984 . S
N513 H519 0.985 . S
C514 C508 1.379 . S
C514 C511 1.363 . S
C514 N512 1.356 . S
C515 C509 1.363 . S
C515 C510 1.379 . S
C515 N513 1.356 . S
N516 C508 1.356 . S
N516 H522 0.984 . S
N516 H523 0.984 . S
N517 C510 1.356 . S
N517 H520 0.984 . S
N517 H521 0.985 . S
H518 N513 0.984 . S
H519 N513 0.985 . S
H520 N517 0.984 . S
H521 N517 0.985 . S
H522 N516 0.984 . S
H523 N516 0.984 . S
H524 N512 0.984 . S
H525 N512 0.985 . S
C526 C527 1.363 . S
C526 C532 1.379 . S
C526 N534 1.356 . S
C527 C526 1.363 . S
C527 C533 1.363 . S
C528 C529 1.363 . S
C528 C533 1.379 . S
C528 N535 1.356 . S
C529 C528 1.363 . S
C529 C532 1.363 . S
N530 C532 1.356 . S
N530 H542 0.984 . S
N530 H543 0.985 . S
N531 C533 1.356 . S
N531 H536 0.984 . S
N531 H537 0.985 . S
C532 C526 1.379 . S
C532 C529 1.363 . S
C532 N530 1.356 . S
C533 C527 1.363 . S
C533 C528 1.379 . S
C533 N531 1.356 . S
N534 C526 1.356 . S
N534 H540 0.984 . S
N534 H541 0.984 . S
N535 C528 1.356 . S
N535 H538 0.984 . S
N535 H539 0.985 . S
H536 N531 0.984 . S
H537 N531 0.985 . S
H538 N535 0.984 . S
H539 N535 0.985 . S
H540 N534 0.984 . S
H541 N534 0.984 . S
H542 N530 0.984 . S
H543 N530 0.985 . S
C544 C545 1.363 . S
C544 C550 1.379 . S
C544 N552 1.356 . S
C545 C544 1.363 . S
C545 C551 1.363 1_455 S
C546 C547 1.363 1_655 S
C546 C551 1.379 . S
C546 N553 1.356 . S
C547 C546 1.363 1_455 S
C547 C550 1.363 . S
N548 C550 1.356 . S
N548 H560 0.984 1_556 S
N548 H561 0.985 . S
N549 C551 1.356 . S
N549 H554 0.984 . S
N549 H555 0.985 . S
C550 C544 1.379 . S
C550 C547 1.363 . S
C550 N548 1.356 . S
C551 C545 1.363 1_655 S
C551 C546 1.379 . S
C551 N549 1.356 . S
N552 C544 1.356 . S
N552 H558 0.984 1_556 S
N552 H559 0.984 . S
N553 C546 1.356 . S
N553 H556 0.984 . S
N553 H557 0.985 . S
H554 N549 0.984 . S
H555 N549 0.985 . S
H556 N553 0.984 . S
H557 N553 0.985 . S
H558 N552 0.984 1_554 S
H559 N552 0.984 . S
H560 N548 0.984 1_554 S
H561 N548 0.985 . S
C562 C563 1.363 . S
C562 C568 1.379 . S
C562 N570 1.356 . S
C563 C562 1.363 . S
C563 C569 1.363 1_545 S
C564 C565 1.363 1_565 S
C564 C569 1.379 . S
C564 N571 1.356 . S
C565 C564 1.363 1_545 S
C565 C568 1.363 . S
N566 C568 1.356 . S
N566 H578 0.984 . S
N566 H579 0.985 . S
N567 C569 1.356 . S
N567 H572 0.984 . S
N567 H573 0.985 . S
C568 C562 1.379 . S
C568 C565 1.363 . S
C568 N566 1.356 . S
C569 C563 1.363 1_565 S
C569 C564 1.379 . S
C569 N567 1.356 . S
N570 C562 1.356 . S
N570 H576 0.984 . S
N570 H577 0.984 . S
N571 C564 1.356 . S
N571 H574 0.984 . S
N571 H575 0.985 . S
H572 N567 0.984 . S
H573 N567 0.985 . S
H574 N571 0.984 . S
H575 N571 0.985 . S
H576 N570 0.984 . S
H577 N570 0.984 . S
H578 N566 0.984 . S
H579 N566 0.985 . S
C580 C581 1.363 . S
C580 C586 1.379 . S
C580 N588 1.356 . S
C581 C580 1.363 . S
C581 C587 1.363 . S
C582 C583 1.363 . S
C582 C587 1.379 . S
C582 N589 1.356 1_556 S
C583 C582 1.363 . S
C583 C586 1.363 . S
N584 C586 1.356 . S
N584 H596 0.984 . S
N584 H597 0.985 . S
N585 C587 1.356 1_554 S
N585 H590 0.984 1_554 S
N585 H591 0.985 . S
C586 C580 1.379 . S
C586 C583 1.363 . S
C586 N584 1.356 . S
C587 C581 1.363 . S
C587 C582 1.379 . S
C587 N585 1.356 1_556 S
N588 C580 1.356 . S
N588 H594 0.984 . S
N588 H595 0.984 . S
N589 C582 1.356 1_554 S
N589 H592 0.984 . S
N589 H593 0.985 . S
H590 N585 0.984 1_556 S
H591 N585 0.985 . S
H592 N589 0.984 . S
H593 N589 0.985 . S
H594 N588 0.984 . S
H595 N588 0.984 . S
H596 N584 0.984 . S
H597 N584 0.985 . S
C598 C599 1.363 . S
C598 C604 1.379 . S
C598 N606 1.356 1_556 S
C599 C598 1.363 . S
C599 C605 1.363 . S
C600 C601 1.363 . S
C600 C605 1.379 . S
C600 N607 1.356 . S
C601 C600 1.363 . S
C601 C604 1.363 . S
N602 C604 1.356 1_554 S
N602 H614 0.984 . S
N602 H615 0.985 . S
N603 C605 1.356 . S
N603 H608 0.984 . S
N603 H609 0.985 . S
C604 C598 1.379 . S
C604 C601 1.363 . S
C604 N602 1.356 1_556 S
C605 C599 1.363 . S
C605 C600 1.379 . S
C605 N603 1.356 . S
N606 C598 1.356 1_554 S
N606 H612 0.984 . S
N606 H613 0.984 . S
N607 C600 1.356 . S
N607 H610 0.984 . S
N607 H611 0.985 . S
H608 N603 0.984 . S
H609 N603 0.985 . S
H610 N607 0.984 . S
H611 N607 0.985 . S
H612 N606 0.984 . S
H613 N606 0.984 . S
H614 N602 0.984 . S
H615 N602 0.985 . S
C616 C617 1.363 1_455 S
C616 C622 1.379 . S
C616 N624 1.356 . S
C617 C616 1.363 1_655 S
C617 C623 1.363 . S
C618 C619 1.363 . S
C618 C623 1.379 . S
C618 N625 1.356 . S
C619 C618 1.363 . S
C619 C622 1.363 1_655 S
N620 C622 1.356 . S
N620 H632 0.984 . S
N620 H633 0.985 . S
N621 C623 1.356 . S
N621 H626 0.984 . S
N621 H627 0.985 1_556 S
C622 C616 1.379 . S
C622 C619 1.363 1_455 S
C622 N620 1.356 . S
C623 C617 1.363 . S
C623 C618 1.379 . S
C623 N621 1.356 . S
N624 C616 1.356 . S
N624 H630 0.984 . S
N624 H631 0.984 . S
N625 C618 1.356 . S
N625 H628 0.984 . S
N625 H629 0.985 1_556 S
H626 N621 0.984 . S
H627 N621 0.985 1_554 S
H628 N625 0.984 . S
H629 N625 0.985 1_554 S
H630 N624 0.984 . S
H631 N624 0.984 . S
H632 N620 0.984 . S
H633 N620 0.985 . S
C634 C635 1.363 1_545 S
C634 C640 1.379 . S
C634 N642 1.356 . S
C635 C634 1.363 1_565 S
C635 C641 1.363 . S
C636 C637 1.363 . S
C636 C641 1.379 . S
C636 N643 1.356 . S
C637 C636 1.363 . S
C637 C640 1.363 1_565 S
N638 C640 1.356 . S
N638 H650 0.984 . S
N638 H651 0.985 . S
N639 C641 1.356 . S
N639 H644 0.984 . S
N639 H645 0.985 . S
C640 C634 1.379 . S
C640 C637 1.363 1_545 S
C640 N638 1.356 . S
C641 C635 1.363 . S
C641 C636 1.379 . S
C641 N639 1.356 . S
N642 C634 1.356 . S
N642 H648 0.984 . S
N642 H649 0.984 . S
N643 C636 1.356 . S
N643 H646 0.984 . S
N643 H647 0.985 . S
H644 N639 0.984 . S
H645 N639 0.985 . S
H646 N643 0.984 . S
H647 N643 0.985 . S
H648 N642 0.984 . S
H649 N642 0.984 . S
H650 N638 0.984 . S
H651 N638 0.985 . S
C652 C653 1.363 . S
C652 C658 1.379 . S
C652 N660 1.356 . S
C653 C652 1.363 . S
C653 C659 1.363 . S
C654 C655 1.363 . S
C654 C659 1.379 . S
C654 N661 1.356 . S
C655 C654 1.363 . S
C655 C658 1.363 . S
N656 C658 1.356 . S
N656 H668 0.991 . S
N656 H669 0.985 . S
N657 C659 1.356 . S
N657 H662 0.984 . S
N657 H663 0.985 . S
C658 C652 1.379 . S
C658 C655 1.363 . S
C658 N656 1.356 . S
C659 C653 1.363 . S
C659 C654 1.379 . S
C659 N657 1.356 . S
N660 C652 1.356 . S
N660 H666 0.984 1_556 S
N660 H667 0.984 . S
N661 C654 1.356 . S
N661 H664 0.984 . S
N661 H665 0.985 . S
H662 N657 0.984 . S
H663 N657 0.985 . S
H664 N661 0.984 . S
H665 N661 0.985 . S
H666 N660 0.984 1_554 S
H667 N660 0.984 . S
H668 N656 0.991 . S
H669 N656 0.985 . S
C670 C671 1.363 . S
C670 C676 1.379 . S
C670 N678 1.356 . S
C671 C670 1.363 . S
C671 C677 1.363 . S
C672 C673 1.363 . S
C672 C677 1.379 . S
C672 N679 1.356 . S
C673 C672 1.363 . S
C673 C676 1.363 . S
N674 C676 1.356 . S
N674 H686 0.984 . S
N674 H687 0.985 . S
N675 C677 1.356 . S
N675 H680 0.984 . S
N675 H681 0.985 . S
C676 C670 1.379 . S
C676 C673 1.363 . S
C676 N674 1.356 . S
C677 C671 1.363 . S
C677 C672 1.379 . S
C677 N675 1.356 . S
N678 C670 1.356 . S
N678 H684 0.984 . S
N678 H685 0.984 . S
N679 C672 1.356 . S
N679 H682 0.984 . S
N679 H683 0.985 . S
H680 N675 0.984 . S
H681 N675 0.985 . S
H682 N679 0.984 . S
H683 N679 0.985 . S
H684 N678 0.984 . S
H685 N678 0.984 . S
H686 N674 0.984 . S
H687 N674 0.985 . S
C257 C76 1.924 1_545 S
C259 C106 2.202 1_545 S
C277 C146 2.219 . S
C275 C88 1.940 . S
C295 C186 2.228 . S
C293 C52 1.955 . S
C313 C226 2.213 1_455 S
C311 C64 1.936 1_455 S
C331 C115 2.204 1_564 S
C329 C28 1.928 . S
C347 C40 1.939 . S
C349 C155 2.221 1_554 S
C365 C4 1.950 . S
C367 C195 2.228 1_554 S
C383 C16 1.937 . S
C385 C235 2.213 1_654 S
C403 C112 0.824 . S
C401 C69 0.829 1_655 S
C421 C152 0.823 . S
C419 C81 0.829 1_565 S
C439 C192 0.815 . S
C437 C93 0.824 . S
C455 C57 0.825 . S
C457 C232 0.812 . S
C473 C21 0.831 . S
C475 C103 0.827 . S
C493 C143 0.823 . S
C491 C33 0.829 . S
C511 C183 0.815 . S
C509 C45 0.819 . S
C527 C9 0.820 . S
C529 C223 0.817 . S
C545 C66 2.260 . S
C547 C107 2.586 . S
C563 C78 2.225 . S
C565 C147 2.555 . S
C583 C187 2.544 . S
C581 C90 2.213 . S
C601 C227 2.579 . S
C599 C54 2.243 . S
C617 C18 2.271 1_655 S
C619 C98 2.594 . S
C637 C138 2.556 . S
C635 C30 2.237 1_565 S
C655 C178 2.544 . S
C653 C42 2.230 . S
C671 C6 2.263 . S
C673 C218 2.582 . S
