# Generated by pormake.
# Topology pyr, (3,6)-cn, num edge types: 1
# Building blocks:
#     Node 0, Type 0, BuildingBlock: BELTOD_clean_linker_0, # of connection points: 3
#     Node 1, Type 0, BuildingBlock: BELTOD_clean_linker_0, # of connection points: 3
#     Node 2, Type 0, BuildingBlock: BELTOD_clean_linker_0, # of connection points: 3
#     Node 3, Type 0, BuildingBlock: BELTOD_clean_linker_0, # of connection points: 3
#     Node 4, Type 0, BuildingBlock: BELTOD_clean_linker_0, # of connection points: 3
#     Node 5, Type 0, BuildingBlock: BELTOD_clean_linker_0, # of connection points: 3
#     Node 6, Type 0, BuildingBlock: BELTOD_clean_linker_0, # of connection points: 3
#     Node 7, Type 0, BuildingBlock: BELTOD_clean_linker_0, # of connection points: 3
#     Node 8, Type 1, BuildingBlock: BETDIP_clean_sbu_0, # of connection points: 6
#     Node 9, Type 1, BuildingBlock: BETDIP_clean_sbu_0, # of connection points: 6
#     Node 10, Type 1, BuildingBlock: BETDIP_clean_sbu_0, # of connection points: 6
#     Node 11, Type 1, BuildingBlock: BETDIP_clean_sbu_0, # of connection points: 6
#     Edge 12, Type (0, 1), BuildingBlock: KIFKEQ_clean_linker_1, # of connection points: 2
#     Edge 13, Type (0, 1), BuildingBlock: KIFKEQ_clean_linker_1, # of connection points: 2
#     Edge 14, Type (0, 1), BuildingBlock: KIFKEQ_clean_linker_1, # of connection points: 2
#     Edge 15, Type (0, 1), BuildingBlock: KIFKEQ_clean_linker_1, # of connection points: 2
#     Edge 16, Type (0, 1), BuildingBlock: KIFKEQ_clean_linker_1, # of connection points: 2
#     Edge 17, Type (0, 1), BuildingBlock: KIFKEQ_clean_linker_1, # of connection points: 2
#     Edge 18, Type (0, 1), BuildingBlock: KIFKEQ_clean_linker_1, # of connection points: 2
#     Edge 19, Type (0, 1), BuildingBlock: KIFKEQ_clean_linker_1, # of connection points: 2
#     Edge 20, Type (0, 1), BuildingBlock: KIFKEQ_clean_linker_1, # of connection points: 2
#     Edge 21, Type (0, 1), BuildingBlock: KIFKEQ_clean_linker_1, # of connection points: 2
#     Edge 22, Type (0, 1), BuildingBlock: KIFKEQ_clean_linker_1, # of connection points: 2
#     Edge 23, Type (0, 1), BuildingBlock: KIFKEQ_clean_linker_1, # of connection points: 2
#     Edge 24, Type (0, 1), BuildingBlock: KIFKEQ_clean_linker_1, # of connection points: 2
#     Edge 25, Type (0, 1), BuildingBlock: KIFKEQ_clean_linker_1, # of connection points: 2
#     Edge 26, Type (0, 1), BuildingBlock: KIFKEQ_clean_linker_1, # of connection points: 2
#     Edge 27, Type (0, 1), BuildingBlock: KIFKEQ_clean_linker_1, # of connection points: 2
#     Edge 28, Type (0, 1), BuildingBlock: KIFKEQ_clean_linker_1, # of connection points: 2
#     Edge 29, Type (0, 1), BuildingBlock: KIFKEQ_clean_linker_1, # of connection points: 2
#     Edge 30, Type (0, 1), BuildingBlock: KIFKEQ_clean_linker_1, # of connection points: 2
#     Edge 31, Type (0, 1), BuildingBlock: KIFKEQ_clean_linker_1, # of connection points: 2
#     Edge 32, Type (0, 1), BuildingBlock: KIFKEQ_clean_linker_1, # of connection points: 2
#     Edge 33, Type (0, 1), BuildingBlock: KIFKEQ_clean_linker_1, # of connection points: 2
#     Edge 34, Type (0, 1), BuildingBlock: KIFKEQ_clean_linker_1, # of connection points: 2
#     Edge 35, Type (0, 1), BuildingBlock: KIFKEQ_clean_linker_1, # of connection points: 2
# Relax obj value: 0.127
# Max RMSD: 0.191
# Mean RMSD: 0.088
data_MOF--net-pyr--node1-BETDIP_clean_sbu_0--node2-BELTOD_clean_linker_0--edge1-KIFKEQ_clean_linker_1
_symmetry_space_group_name_H-M    P1
_symmetry_Int_Tables_number       1
_symmetry_cell_setting            triclinic
loop_
_symmetry_equiv_pos_as_xyz
'x, y, z'
_cell_length_a     41.175227
_cell_length_b     45.476091
_cell_length_c     43.982653
_cell_angle_alpha  88.799894
_cell_angle_beta   92.947025
_cell_angle_gamma 103.95385
loop_
_atom_site_label
_atom_site_type_symbol
_atom_site_fract_x
_atom_site_fract_y
_atom_site_fract_z
_atom_type_partial_charge
P0 P 0.39347 0.31877 0.24633 0.0
H1 H 0.42327 0.31128 0.18894 0.0
H2 H 0.44303 0.26976 0.16812 0.0
H3 H 0.42305 0.22 0.25271 0.0
H4 H 0.40191 0.2608 0.27266 0.0
H5 H 0.38213 0.37924 0.23622 0.0
H6 H 0.34308 0.39818 0.20177 0.0
H7 H 0.31403 0.31103 0.15789 0.0
H8 H 0.35278 0.29217 0.19258 0.0
H9 H 0.4042 0.30748 0.31143 0.0
H10 H 0.32002 0.29778 0.24671 0.0
O11 O 0.42529 0.34588 0.26028 0.0
H12 H 0.36631 0.28354 0.35071 0.0
H13 H 0.28216 0.27592 0.28583 0.0
C14 C 0.41004 0.2888 0.23196 0.0
C15 C 0.42295 0.29133 0.2029 0.0
C16 C 0.43463 0.26766 0.19117 0.0
C17 C 0.43433 0.24128 0.2086 0.0
C18 C 0.42286 0.23958 0.23832 0.0
C19 C 0.41083 0.26309 0.24985 0.0
C20 C 0.37085 0.33451 0.21659 0.0
C21 C 0.3681 0.36451 0.21859 0.0
C22 C 0.34578 0.3753 0.19888 0.0
C23 C 0.32546 0.35605 0.17717 0.0
C24 C 0.32925 0.32633 0.17448 0.0
C25 C 0.3517 0.31565 0.19407 0.0
C26 C 0.36509 0.30459 0.27611 0.0
C27 C 0.37753 0.3008 0.30583 0.0
C28 C 0.35577 0.28723 0.32831 0.0
C29 C 0.32105 0.27752 0.32149 0.0
C30 C 0.30873 0.28236 0.29186 0.0
C31 C 0.33051 0.29534 0.26937 0.0
P32 P 0.20246 0.78588 0.71612 0.0
H33 H 0.26435 0.80771 0.75207 0.0
H34 H 0.27734 0.81306 0.80628 0.0
H35 H 0.17454 0.76879 0.82393 0.0
H36 H 0.16147 0.76472 0.76887 0.0
H37 H 0.21866 0.7697 0.65627 0.0
H38 H 0.23729 0.72642 0.63869 0.0
H39 H 0.21218 0.68041 0.72443 0.0
H40 H 0.19406 0.72424 0.74207 0.0
H41 H 0.16796 0.82604 0.7447 0.0
H42 H 0.15389 0.77081 0.66432 0.0
O43 O 0.23205 0.81289 0.70061 0.0
H44 H 0.1263 0.85196 0.72423 0.0
H45 H 0.11202 0.79679 0.64362 0.0
C46 C 0.21177 0.78663 0.75653 0.0
C47 C 0.24456 0.7991 0.76755 0.0
C48 C 0.25207 0.8017 0.79874 0.0
C49 C 0.22699 0.79136 0.8197 0.0
C50 C 0.19435 0.77741 0.80849 0.0
C51 C 0.18683 0.77502 0.77708 0.0
C52 C 0.2058 0.75049 0.7007 0.0
C53 C 0.21632 0.74998 0.67099 0.0
C54 C 0.22677 0.72504 0.66089 0.0
C55 C 0.22678 0.7001 0.68036 0.0
C56 C 0.21312 0.69954 0.70912 0.0
C57 C 0.20264 0.72457 0.7192 0.0
C58 C 0.16371 0.79611 0.70629 0.0
C59 C 0.15478 0.81846 0.72327 0.0
C60 C 0.13092 0.83337 0.71149 0.0
C61 C 0.11606 0.82658 0.6822 0.0
C62 C 0.12327 0.80264 0.66617 0.0
C63 C 0.14704 0.78761 0.67809 0.0
P64 P 0.66367 0.34585 0.83757 0.0
H65 H 0.7337 0.37475 0.82753 0.0
H66 H 0.77872 0.40621 0.85933 0.0
H67 H 0.70858 0.40833 0.92839 0.0
H68 H 0.66318 0.37752 0.8959 0.0
H69 H 0.59602 0.30623 0.82594 0.0
H70 H 0.56319 0.26307 0.85455 0.0
H71 H 0.63772 0.28119 0.92872 0.0
H72 H 0.67072 0.32303 0.8999 0.0
H73 H 0.6857 0.36558 0.77727 0.0
H74 H 0.60306 0.37128 0.83118 0.0
O75 O 0.68424 0.32402 0.82026 0.0
H76 H 0.66456 0.39317 0.736 0.0
H77 H 0.5818 0.4 0.78976 0.0
C78 C 0.69522 0.37288 0.85972 0.0
C79 C 0.72782 0.38224 0.84935 0.0
C80 C 0.75358 0.40035 0.86752 0.0
C81 C 0.74735 0.40938 0.8966 0.0
C82 C 0.71427 0.4013 0.90631 0.0
C83 C 0.68832 0.3837 0.88775 0.0
C84 C 0.63516 0.31918 0.86123 0.0
C85 C 0.60478 0.30151 0.84874 0.0
C86 C 0.58622 0.27657 0.86498 0.0
C87 C 0.59763 0.26882 0.89413 0.0
C88 C 0.62775 0.28686 0.90669 0.0
C89 C 0.64652 0.31126 0.89024 0.0
C90 C 0.6457 0.36574 0.80724 0.0
C91 C 0.66278 0.37267 0.78022 0.0
C92 C 0.65078 0.38888 0.75659 0.0
C93 C 0.62143 0.39915 0.7593 0.0
C94 C 0.60426 0.39223 0.78655 0.0
C95 C 0.61642 0.37587 0.81037 0.0
P96 P 0.85535 0.71118 0.32312 0.0
H97 H 0.90325 0.76796 0.30738 0.0
H98 H 0.93052 0.81318 0.33657 0.0
H99 H 0.88985 0.76877 0.41871 0.0
H100 H 0.86312 0.72358 0.38962 0.0
H101 H 0.83365 0.64945 0.29919 0.0
H102 H 0.85587 0.62209 0.26135 0.0
H103 H 0.94479 0.69524 0.2586 0.0
H104 H 0.92217 0.72258 0.29643 0.0
H105 H 0.78466 0.71114 0.32814 0.0
H106 H 0.85339 0.66207 0.36891 0.0
O107 O 0.83634 0.72851 0.29634 0.0
H108 H 0.74078 0.68359 0.35995 0.0
H109 H 0.80967 0.63503 0.40225 0.0
C110 C 0.88139 0.74184 0.34609 0.0
C111 C 0.901 0.7675 0.33181 0.0
C112 C 0.91644 0.79357 0.34857 0.0
C113 C 0.91223 0.79489 0.38008 0.0
C114 C 0.89331 0.76884 0.39447 0.0
C115 C 0.87822 0.74268 0.37774 0.0
C116 C 0.87645 0.68793 0.30158 0.0
C117 C 0.85842 0.65929 0.29126 0.0
C118 C 0.87118 0.64361 0.26931 0.0
C119 C 0.90224 0.6563 0.25652 0.0
C120 C 0.92063 0.68474 0.26745 0.0
C121 C 0.90786 0.70034 0.28956 0.0
C122 C 0.8224 0.68855 0.3458 0.0
C123 C 0.79038 0.6943 0.34392 0.0
C124 C 0.76522 0.67868 0.36257 0.0
C125 C 0.77145 0.65713 0.38418 0.0
C126 C 0.8036 0.65114 0.38578 0.0
C127 C 0.82876 0.66667 0.36677 0.0
P128 P 0.70598 0.8332 0.89896 0.0
H129 H 0.67433 0.84183 0.95448 0.0
H130 H 0.62106 0.85362 0.9635 0.0
H131 H 0.59082 0.83848 0.8684 0.0
H132 H 0.64453 0.82695 0.85951 0.0
H133 H 0.75321 0.8032 0.87322 0.0
H134 H 0.77193 0.75805 0.88823 0.0
H135 H 0.69918 0.73886 0.95773 0.0
H136 H 0.67981 0.78407 0.94204 0.0
H137 H 0.73751 0.89294 0.87505 0.0
H138 H 0.69468 0.80369 0.83924 0.0
O139 O 0.73154 0.8568 0.92321 0.0
H140 H 0.75381 0.91136 0.82429 0.0
H141 H 0.71057 0.82209 0.78803 0.0
C142 C 0.66374 0.83435 0.90622 0.0
C143 C 0.65596 0.84041 0.93569 0.0
C144 C 0.62528 0.84688 0.94085 0.0
C145 C 0.60179 0.84734 0.91656 0.0
C146 C 0.60862 0.83877 0.88747 0.0
C147 C 0.63935 0.83218 0.88237 0.0
C148 C 0.7143 0.79653 0.90579 0.0
C149 C 0.7402 0.7887 0.89081 0.0
C150 C 0.75102 0.76286 0.8995 0.0
C151 C 0.7368 0.74479 0.92398 0.0
C152 C 0.71043 0.75233 0.93868 0.0
C153 C 0.69924 0.77804 0.9296 0.0
C154 C 0.71574 0.84679 0.86097 0.0
C155 C 0.73151 0.87731 0.8562 0.0
C156 C 0.74053 0.88789 0.82708 0.0
C157 C 0.73368 0.86813 0.80214 0.0
C158 C 0.71667 0.83774 0.80686 0.0
C159 C 0.70756 0.82722 0.83605 0.0
P160 P 0.88153 0.31816 0.33633 0.0
H161 H 0.87152 0.37901 0.34521 0.0
H162 H 0.828 0.39695 0.36965 0.0
H163 H 0.78385 0.30549 0.39934 0.0
H164 H 0.82716 0.2877 0.37447 0.0
H165 H 0.92154 0.27836 0.31688 0.0
H166 H 0.94483 0.23986 0.3432 0.0
H167 H 0.91369 0.26636 0.42878 0.0
H168 H 0.8898 0.30453 0.40205 0.0
H169 H 0.86599 0.33188 0.2724 0.0
H170 H 0.84181 0.25587 0.33441 0.0
O171 O 0.90977 0.34696 0.32176 0.0
H172 H 0.83213 0.30104 0.23171 0.0
H173 H 0.80766 0.22527 0.29433 0.0
C174 C 0.85277 0.33207 0.35829 0.0
C175 C 0.85282 0.3629 0.35741 0.0
C176 C 0.82793 0.37314 0.37145 0.0
C177 C 0.80237 0.35263 0.38635 0.0
C178 C 0.80291 0.32182 0.38772 0.0
C179 C 0.82781 0.31164 0.37371 0.0
C180 C 0.90328 0.29378 0.35739 0.0
C181 C 0.92006 0.2761 0.34137 0.0
C182 C 0.93353 0.25418 0.3565 0.0
C183 C 0.9308 0.24975 0.38809 0.0
C184 C 0.91556 0.26874 0.40434 0.0
C185 C 0.90198 0.29067 0.3891 0.0
C186 C 0.85691 0.29595 0.30618 0.0
C187 C 0.8535 0.30857 0.27721 0.0
C188 C 0.83399 0.29099 0.25408 0.0
C189 C 0.81753 0.26061 0.25973 0.0
C190 C 0.82061 0.24836 0.28903 0.0
C191 C 0.83999 0.26591 0.31204 0.0
P192 P 0.39303 0.68907 0.2099 0.0
H193 H 0.37283 0.66924 0.14786 0.0
H194 H 0.31931 0.64651 0.12207 0.0
H195 H 0.26946 0.64982 0.20568 0.0
H196 H 0.32339 0.67435 0.23086 0.0
H197 H 0.42104 0.71914 0.1552 0.0
H198 H 0.43415 0.77127 0.13702 0.0
H199 H 0.40204 0.79986 0.22112 0.0
H200 H 0.38901 0.74683 0.23946 0.0
H201 H 0.36014 0.63519 0.24408 0.0
H202 H 0.43685 0.71649 0.26259 0.0
O203 O 0.42011 0.67306 0.19356 0.0
H204 H 0.37247 0.61442 0.29342 0.0
H205 H 0.44951 0.69574 0.3126 0.0
C206 C 0.35236 0.67272 0.19158 0.0
C207 C 0.35041 0.66507 0.16072 0.0
C208 C 0.31961 0.65174 0.14599 0.0
C209 C 0.28974 0.6455 0.16178 0.0
C210 C 0.2917 0.65418 0.1926 0.0
C211 C 0.32265 0.66798 0.20721 0.0
C212 C 0.40468 0.72895 0.19903 0.0
C213 C 0.41707 0.73654 0.17002 0.0
C214 C 0.42424 0.76652 0.15941 0.0
C215 C 0.41903 0.79002 0.17741 0.0
C216 C 0.40666 0.78246 0.20667 0.0
C217 C 0.39921 0.75213 0.21725 0.0
C218 C 0.3964 0.67816 0.24985 0.0
C219 C 0.3787 0.64927 0.25928 0.0
C220 C 0.38605 0.63719 0.28768 0.0
C221 C 0.41196 0.6533 0.30742 0.0
C222 C 0.42946 0.6825 0.29812 0.0
C223 C 0.42186 0.69468 0.26964 0.0
P224 P 0.17158 0.34415 0.74572 0.0
H225 H 0.17501 0.28041 0.74978 0.0
H226 H 0.14704 0.23509 0.72182 0.0
H227 H 0.08662 0.28601 0.67055 0.0
H228 H 0.11467 0.33185 0.69933 0.0
H229 H 0.22858 0.39579 0.75589 0.0
H230 H 0.27104 0.42442 0.72287 0.0
H231 H 0.21551 0.37794 0.64468 0.0
H232 H 0.1742 0.34852 0.67801 0.0
H233 H 0.13677 0.32404 0.80122 0.0
H234 H 0.15593 0.4049 0.74576 0.0
O235 O 0.19899 0.33288 0.76976 0.0
H236 H 0.1147 0.35006 0.84014 0.0
H237 H 0.13229 0.43103 0.78397 0.0
C238 C 0.14713 0.30989 0.72682 0.0
C239 C 0.15547 0.28206 0.73289 0.0
C240 C 0.13935 0.2559 0.71678 0.0
C241 C 0.11457 0.25673 0.69376 0.0
C242 C 0.10579 0.28454 0.68792 0.0
C243 C 0.12164 0.31074 0.70452 0.0
C244 C 0.19798 0.36985 0.7197 0.0
C245 C 0.22523 0.39211 0.73156 0.0
C246 C 0.24959 0.40862 0.71249 0.0
C247 C 0.24725 0.40346 0.68085 0.0
C248 C 0.21886 0.38219 0.6689 0.0
C249 C 0.19471 0.36548 0.68807 0.0
C250 C 0.14798 0.3623 0.77036 0.0
C251 C 0.13533 0.34725 0.797 0.0
C252 C 0.12255 0.36234 0.8194 0.0
C253 C 0.12163 0.39307 0.81579 0.0
C254 C 0.13307 0.4077 0.78827 0.0
C255 C 0.14624 0.39258 0.76598 0.0
Tb256 Tb 0.97621 1.01841 0.53876 0.0
Tb257 Tb 0.05114 0.03985 0.52306 0.0
C258 C 0.91705 0.9876 0.54129 0.0
C259 C 0.8955 0.97541 0.56634 0.0
C260 C 0.86262 0.95867 0.56012 0.0
C261 C 0.84201 0.94701 0.584 0.0
C262 C 0.85404 0.95206 0.61444 0.0
C263 C 0.88713 0.96886 0.62046 0.0
C264 C 0.90769 0.98042 0.5966 0.0
C265 C 0.00859 0.06441 0.57457 0.0
C266 C 0.03253 0.99308 0.57582 0.0
C267 C 0.10915 0.06817 0.51062 0.0
C268 C 0.12579 0.09706 0.49609 0.0
C269 C 0.15256 0.11692 0.51165 0.0
C270 C 0.17151 0.14234 0.49681 0.0
C271 C 0.16429 0.14819 0.46595 0.0
C272 C 0.13645 0.12892 0.45089 0.0
C273 C 0.11732 0.10378 0.46582 0.0
C274 C 0.01692 0.98783 0.49891 0.0
C275 C 0.99662 0.07075 0.49104 0.0
O276 O 0.94277 0.97568 0.5386 0.0
O277 O 0.92508 1.01723 0.53874 0.0
O278 O 0.01913 0.0512 0.55381 0.0
O279 O 0.97743 0.05027 0.57685 0.0
O280 O 1.0005 0.98877 0.56676 0.0
O281 O 0.05636 1.01513 0.56486 0.0
O282 O 0.09672 0.06956 0.5373 0.0
O283 O 0.08963 0.04792 0.49278 0.0
O284 O 1.00606 1.01127 0.50234 0.0
O285 O 0.04828 0.99386 0.50775 0.0
O286 O 0.02848 0.07305 0.49934 0.0
O287 O 0.97228 0.0481 0.50014 0.0
H288 H 0.85289 0.95466 0.53682 0.0
H289 H 0.81656 0.93439 0.57866 0.0
H290 H 0.8973 0.97273 0.64363 0.0
H291 H 0.93315 0.99319 0.60173 0.0
H292 H 0.15947 0.11226 0.53504 0.0
H293 H 0.19231 0.15699 0.50934 0.0
H294 H 0.13027 0.13231 0.42706 0.0
H295 H 0.09671 0.08899 0.45318 0.0
Tb296 Tb 0.52834 0.04581 0.04644 0.0
Tb297 Tb 0.4505 1.02776 1.03549 0.0
C298 C 0.58776 0.07598 0.04413 0.0
C299 C 0.61356 0.0919 0.06614 0.0
C300 C 0.64443 0.10824 0.05592 0.0
C301 C 0.66827 0.12552 0.07629 0.0
C302 C 0.66152 0.12672 0.10721 0.0
C303 C 0.63068 0.10978 0.11742 0.0
C304 C 0.60685 0.09253 0.09701 0.0
C305 C 0.50047 0.99882 0.08197 0.0
C306 C 0.48109 0.07176 0.08868 0.0
C307 C 0.38953 1.00313 1.02602 0.0
C308 C 0.36793 0.97489 1.01335 0.0
C309 C 0.36428 0.94672 1.02833 0.0
C310 C 0.34305 0.92062 1.01558 0.0
C311 C 0.32507 0.9223 0.98776 0.0
C312 C 0.32891 0.95058 0.97301 0.0
C313 C 0.34983 0.97652 0.98575 0.0
C314 C 0.4836 0.079 1.0101 0.0
C315 C 0.49665 0.99543 0.99918 0.0
O316 O 0.56172 0.08774 0.04009 0.0
O317 O 0.57939 0.04631 0.04645 0.0
O318 O 0.48701 1.01398 0.06324 0.0
O319 O 0.53237 1.01134 0.0822 0.0
O320 O 0.51126 0.07497 0.07783 0.0
O321 O 0.45432 0.05149 0.07814 0.0
O322 O 0.40571 1.00166 0.05233 0.0
O323 O 0.40777 1.02117 1.00643 0.0
O324 O 0.49265 0.05447 1.01261 0.0
O325 O 0.45426 0.07501 1.02107 0.0
O326 O 0.46692 0.99317 1.01053 0.0
O327 O 0.52311 1.01749 1.00665 0.0
H328 H 0.64988 0.10802 1.03209 0.0
H329 H 0.69194 0.13802 0.06783 0.0
H330 H 0.62457 0.11053 0.14101 0.0
H331 H 0.58292 0.08021 0.10516 0.0
H332 H 0.37768 0.9448 0.04982 0.0
H333 H 0.34053 0.89922 1.0276 0.0
H334 H 0.31618 0.9527 0.9512 0.0
H335 H 0.35202 0.99795 0.97383 0.0
Tb336 Tb 0.51418 0.55608 0.55017 0.0
Tb337 Tb 0.51199 0.49808 0.52096 0.0
C338 C 0.49788 0.60247 0.56766 0.0
C339 C 0.46749 0.60723 0.58141 0.0
C340 C 0.43864 0.60814 0.56319 0.0
C341 C 0.40984 0.61206 0.57635 0.0
C342 C 0.4092 0.61526 0.60801 0.0
C343 C 0.43803 0.6143 0.62623 0.0
C344 C 0.46688 0.61046 0.61306 0.0
C345 C 0.5448 0.52036 0.58295 0.0
C346 C 0.45069 0.49974 0.55864 0.0
C347 C 0.52617 0.45009 0.50467 0.0
C348 C 0.55465 0.44188 0.49109 0.0
C349 C 0.58748 0.45958 0.49589 0.0
C350 C 0.61439 0.45066 0.48395 0.0
C351 C 0.60899 0.42379 0.46715 0.0
C352 C 0.57598 0.40639 0.46205 0.0
C353 C 0.54908 0.41539 0.47391 0.0
C354 C 0.48134 0.53415 0.48844 0.0
C355 C 0.57532 0.55487 0.51214 0.0
O356 O 0.49439 0.5935 0.53933 0.0
O357 O 0.51629 0.58803 0.58442 0.0
O358 O 0.5176 0.51234 0.56725 0.0
O359 O 0.55509 0.54964 0.58133 0.0
O360 O 0.46299 0.5295 0.55916 0.0
O361 O 0.46751 0.48176 0.54687 0.0
O362 O 0.53171 0.46078 0.53233 0.0
O363 O 0.50914 0.46526 0.48727 0.0
O364 O 0.50858 0.54179 0.50402 0.0
O365 O 0.47094 0.50484 0.48978 0.0
O366 O 0.56268 0.52513 0.51078 0.0
O367 O 0.55895 0.57275 0.52479 0.0
H368 H 0.43824 0.60591 0.5387 0.0
H369 H 0.38831 0.61327 0.56159 0.0
H370 H 0.43829 0.61642 0.65072 0.0
H371 H 0.48871 0.60991 0.6277 0.0
H372 H 0.59244 0.47998 0.50931 0.0
H373 H 0.63951 0.4644 0.48856 0.0
H374 H 0.57094 0.3858 0.44885 0.0
H375 H 0.52392 0.40148 0.46994 0.0
Tb376 Tb 0.01171 0.5515 1.01538 0.0
Tb377 Tb 0.01582 0.50018 0.05704 0.0
C378 C 0.99059 0.58985 0.98327 0.0
C379 C 0.96114 0.60275 0.98377 0.0
C380 C 0.92995 0.58494 0.99219 0.0
C381 C 0.9018 0.59708 0.99097 0.0
C382 C 0.9045 0.6273 0.98175 0.0
C383 C 0.93597 0.64527 0.9742 0.0
C384 C 0.96403 0.63303 0.97511 0.0
C385 C 0.07122 0.55654 0.04334 0.0
C386 C 0.98445 0.54968 0.08298 0.0
C387 C 0.03659 0.46161 0.08928 0.0
C388 C 0.06687 0.44983 0.09001 0.0
C389 C 0.09735 0.46795 0.08039 0.0
C390 C 0.12663 0.45755 0.08369 0.0
C391 C 0.12583 0.42874 0.09631 0.0
C392 C 0.09499 0.41022 0.10477 0.0
C393 C 0.06577 0.42076 0.10173 0.0
C394 C 0.95644 0.49545 1.02871 0.0
C395 C 0.0435 0.50226 0.98958 0.0
O396 O 0.98438 0.56105 0.97668 0.0
O397 O 0.01286 0.59724 1.00586 0.0
O398 O 0.04309 0.54626 0.05444 0.0
O399 O 0.06651 0.56649 1.01602 0.0
O400 O 0.9828 0.55946 0.05438 0.0
O401 O 0.99916 0.52751 0.09017 0.0
O402 O 0.04146 0.49012 0.09659 0.0
O403 O 0.01584 0.45447 0.06557 0.0
O404 O 0.98475 0.5055 1.01801 0.0
O405 O 0.96078 0.48525 0.05601 0.0
O406 O 0.04501 0.49243 1.01818 0.0
O407 O 0.02882 0.52443 0.98228 0.0
H408 H 0.92723 0.56154 0.9993 0.0
H409 H 0.87791 0.58284 0.99716 0.0
H410 H 0.93869 0.66855 0.96673 0.0
H411 H 0.98789 0.64709 0.96862 0.0
H412 H 0.09867 0.49041 0.07101 0.0
H413 H 0.14997 0.47216 0.0767 0.0
H414 H 0.09369 0.38804 0.11481 0.0
H415 H 0.04246 0.40649 0.10923 0.0
H416 H 0.26573 0.2306 0.31224 0.0
H417 H 0.32375 0.28719 0.38338 0.0
H418 H 0.22734 0.20423 0.34952 0.0
H419 H 0.28584 0.25939 0.42096 0.0
H420 H 0.23287 0.16684 0.47225 0.0
H421 H 0.27045 0.20182 0.43955 0.0
H422 H 0.18547 0.21848 0.38662 0.0
H423 H 0.14757 0.18464 0.42007 0.0
C424 C 0.27016 0.23777 0.33571 0.0
C425 C 0.2978 0.26136 0.34463 0.0
C426 C 0.24816 0.2225 0.35709 0.0
C427 C 0.25353 0.22999 0.388 0.0
C428 C 0.28124 0.25322 0.39719 0.0
C429 C 0.30303 0.26895 0.37568 0.0
C430 C 0.22202 0.17863 0.45429 0.0
C431 C 0.18705 0.17257 0.44868 0.0
C432 C 0.24365 0.19857 0.43548 0.0
C433 C 0.23079 0.21252 0.41046 0.0
C434 C 0.19595 0.20764 0.4056 0.0
C435 C 0.17431 0.18811 0.42467 0.0
H436 H 0.18666 0.80758 0.86094 0.0
H437 H 0.2847 0.79045 0.85341 0.0
H438 H 0.20373 0.82959 0.91075 0.0
H439 H 0.30281 0.81507 0.90162 0.0
H440 H 0.33628 0.86522 0.98512 0.0
H441 H 0.30561 0.82341 0.95336 0.0
H442 H 0.23571 0.8768 0.92371 0.0
H443 H 0.26455 0.91708 0.95722 0.0
C444 C 0.21167 0.80792 0.87009 0.0
C445 C 0.23464 0.79808 0.85264 0.0
C446 C 0.22168 0.82105 0.89856 0.0
C447 C 0.25508 0.82526 0.90992 0.0
C448 C 0.27693 0.81251 0.89383 0.0
C449 C 0.26669 0.79879 0.86574 0.0
C450 C 0.31368 0.86755 0.97261 0.0
C451 C 0.30339 0.89484 0.97308 0.0
C452 C 0.29628 0.84369 0.95405 0.0
C453 C 0.26855 0.8468 0.93523 0.0
C454 C 0.25676 0.87319 0.9378 0.0
C455 C 0.27376 0.89672 0.95669 0.0
H456 H 0.65932 0.44226 0.7224 0.0
H457 H 0.55649 0.39736 0.73801 0.0
H458 H 0.64101 0.46964 0.67948 0.0
H459 H 0.53793 0.42599 0.69563 0.0
H460 H 0.51766 0.46085 0.59863 0.0
H461 H 0.5355 0.43158 0.64099 0.0
H462 H 0.61499 0.50927 0.66647 0.0
H463 H 0.59768 0.53795 0.62385 0.0
C464 C 0.63271 0.43813 0.71674 0.0
C465 C 0.60951 0.41722 0.73382 0.0
C466 C 0.62211 0.45426 0.69218 0.0
C467 C 0.58786 0.45026 0.68379 0.0
C468 C 0.56454 0.42954 0.701 0.0
C469 C 0.57519 0.41334 0.72567 0.0
C470 C 0.53913 0.47152 0.61316 0.0
C471 C 0.55631 0.50174 0.60772 0.0
C472 C 0.5492 0.45483 0.6377 0.0
C473 C 0.5768 0.46788 0.65745 0.0
C474 C 0.594 0.49809 0.65169 0.0
C475 C 0.58396 0.51469 0.62723 0.0
H476 H 0.93562 0.68142 0.2057 0.0
H477 H 0.89663 0.59503 0.24918 0.0
H478 H 0.95453 0.65583 0.16426 0.0
H479 H 0.9145 0.56939 0.20726 0.0
H480 H 0.98213 0.53474 0.14384 0.0
H481 H 0.96277 0.56018 0.18495 0.0
H482 H 0.93592 0.62415 0.12037 0.0
H483 H 0.95586 0.59885 0.07912 0.0
C484 C 0.93117 0.65697 0.20661 0.0
C485 C 0.91456 0.64049 0.23117 0.0
C486 C 0.94166 0.64218 0.18247 0.0
C487 C 0.9361 0.61035 0.18205 0.0
C488 C 0.91965 0.59389 0.20668 0.0
C489 C 0.90903 0.60866 0.23074 0.0
C490 C 0.97196 0.55413 0.13823 0.0
C491 C 0.97066 0.56457 0.10789 0.0
C492 C 0.96063 0.56874 0.16197 0.0
C493 C 0.94765 0.59443 0.15632 0.0
C494 C 0.9461 0.60475 0.1259 0.0
C495 C 0.95734 0.59003 0.10208 0.0
H496 H 0.40618 0.18078 0.21672 0.0
H497 H 0.48542 0.24245 0.17042 0.0
H498 H 0.42053 0.13813 0.19305 0.0
H499 H 0.49834 0.19981 0.14518 0.0
H500 H 0.52919 0.11618 0.11752 0.0
H501 H 0.52045 0.15566 0.15061 0.0
H502 H 0.41365 0.11697 0.14361 0.0
H503 H 0.42236 0.07717 0.11149 0.0
C504 C 0.4269 0.18529 0.20173 0.0
C505 C 0.44452 0.21517 0.19541 0.0
C506 C 0.43483 0.16078 0.18781 0.0
C507 C 0.46038 0.16548 0.16695 0.0
C508 C 0.4787 0.19528 0.16132 0.0
C509 C 0.47094 0.21981 0.17545 0.0
C510 C 0.50388 0.11584 0.12342 0.0
C511 C 0.47646 0.09356 0.11166 0.0
C512 C 0.49887 0.13862 0.14223 0.0
C513 C 0.46633 0.13968 0.14961 0.0
C514 C 0.4391 0.1167 0.13877 0.0
C515 C 0.44411 0.09388 0.12015 0.0
H516 H 0.06799 0.85186 0.70481 0.0
H517 H 0.12441 0.84989 0.62503 0.0
H518 H 0.04554 0.89284 0.68151 0.0
H519 H 0.10194 0.89035 0.60197 0.0
H520 H 0.09602 0.9881 0.59132 0.0
H521 H 0.1126 0.94629 0.61801 0.0
H522 H 0.00902 0.90385 0.63301 0.0
H523 H 0.99202 0.94578 0.60602 0.0
C524 C 0.07514 0.85982 0.68217 0.0
C525 C 0.09792 0.84762 0.66673 0.0
C526 C 0.06227 0.88317 0.66887 0.0
C527 C 0.07244 0.89496 0.64019 0.0
C528 C 0.09407 0.8819 0.6243 0.0
C529 C 0.10657 0.85845 0.63736 0.0
C530 C 0.07668 0.97018 0.60064 0.0
C531 C 0.04263 0.97019 0.59623 0.0
C532 C 0.08622 0.94612 0.61574 0.0
C533 C 0.06202 0.92168 0.62708 0.0
C534 C 0.02812 0.92242 0.62437 0.0
C535 C 0.01846 0.94641 0.6089 0.0
H536 H 0.7617 0.39591 0.95584 0.0
H537 H 0.79741 0.45918 0.88364 0.0
H538 H 0.81089 0.41884 0.9879 0.0
H539 H 0.8459 0.48339 0.91607 0.0
H540 H 0.94807 0.49615 0.96676 0.0
H541 H 0.89681 0.47759 0.93581 0.0
H542 H 0.84097 0.45831 1.01753 0.0
H543 H 0.89292 0.47537 0.04834 0.0
C544 C 0.77977 0.41523 0.94708 0.0
C545 C 0.77568 0.42565 0.91716 0.0
C546 C 0.80807 0.42856 0.96554 0.0
C547 C 0.83291 0.45309 0.9548 0.0
C548 C 0.82802 0.46415 0.92513 0.0
C549 C 0.80001 0.45043 0.9065 0.0
C550 C 0.92478 0.48809 0.97807 0.0
C551 C 0.92458 0.48697 1.01 0.0
C552 C 0.89515 0.47759 0.96028 0.0
C553 C 0.86429 0.46612 0.9739 0.0
C554 C 0.86411 0.46617 1.00599 0.0
C555 C 0.89389 0.47623 1.02376 0.0
H556 H 0.72355 0.68068 0.40955 0.0
H557 H 0.75805 0.59833 0.40678 0.0
H558 H 0.67823 0.65543 0.44083 0.0
H559 H 0.71382 0.57351 0.44006 0.0
H560 H 0.60786 0.52839 0.47146 0.0
H561 H 0.65599 0.55242 0.44221 0.0
H562 H 0.66312 0.63665 0.48881 0.0
H563 H 0.61417 0.61287 0.51702 0.0
C564 C 0.7216 0.65714 0.41558 0.0
C565 C 0.74457 0.64163 0.40508 0.0
C566 C 0.69573 0.64269 0.43415 0.0
C567 C 0.69204 0.61224 0.44333 0.0
C568 C 0.71535 0.5968 0.43329 0.0
C569 C 0.74115 0.61124 0.41443 0.0
C570 C 0.61986 0.55198 0.47566 0.0
C571 C 0.60686 0.56868 0.49655 0.0
C572 C 0.6477 0.56583 0.45889 0.0
C573 C 0.66362 0.59676 0.46269 0.0
C574 C 0.65125 0.61307 0.48448 0.0
C575 C 0.62322 0.59932 0.50096 0.0
H576 H 0.32847 0.41011 0.14732 0.0
H577 H 0.26064 0.32459 0.16813 0.0
H578 H 0.28202 0.42777 0.12262 0.0
H579 H 0.21424 0.34229 0.14431 0.0
H580 H 0.13785 0.3736 0.08448 0.0
H581 H 0.18806 0.35594 0.09877 0.0
H582 H 0.23429 0.44351 0.13762 0.0
H583 H 0.18454 0.46123 0.12253 0.0
C584 C 0.30365 0.39507 0.14647 0.0
C585 C 0.29819 0.36598 0.15961 0.0
C586 C 0.27701 0.40519 0.13244 0.0
C587 C 0.24427 0.38654 0.13155 0.0
C588 C 0.23912 0.35712 0.14401 0.0
C589 C 0.26575 0.34695 0.15776 0.0
C590 C 0.15892 0.38908 0.09584 0.0
C591 C 0.15726 0.41873 0.10249 0.0
C592 C 0.18765 0.37897 0.10413 0.0
C593 C 0.21522 0.3982 0.11959 0.0
C594 C 0.21384 0.42818 0.12535 0.0
C595 C 0.18526 0.43835 0.11678 0.0
H596 H 0.58203 0.26376 0.95421 0.0
H597 H 0.57281 0.21117 0.87234 0.0
H598 H 0.55533 0.21813 0.98248 0.0
H599 H 0.54629 0.16542 0.9007 0.0
H600 H 0.53565 0.08597 0.97179 0.0
H601 H 0.56257 0.13175 0.94349 0.0
H602 H 0.4986 0.18096 0.98405 0.0
H603 H 0.47147 0.1352 1.01188 0.0
C604 C 0.57421 0.24246 0.94222 0.0
C605 C 0.57947 0.24121 0.91094 0.0
C606 C 0.55881 0.21631 0.95841 0.0
C607 C 0.54875 0.18802 0.94393 0.0
C608 C 0.55397 0.18676 0.91264 0.0
C609 C 0.56885 0.21304 0.89631 0.0
C610 C 0.52745 0.10662 0.9747 0.0
C611 C 0.5014 0.10696 0.99406 0.0
C612 C 0.54272 0.13279 0.95835 0.0
C613 C 0.5327 0.16007 0.96139 0.0
C614 C 0.50708 0.16045 0.98126 0.0
C615 C 0.49147 0.13419 0.99716 0.0
H616 H 0.88279 0.82115 0.42363 0.0
H617 H 0.97443 0.83385 0.37624 0.0
H618 H 0.90644 0.86768 0.45223 0.0
H619 H 0.99788 0.8804 0.40456 0.0
H620 H 0.0432 0.94067 0.48565 0.0
H621 H 0.01737 0.89495 0.45724 0.0
H622 H 0.92539 0.92449 0.44603 0.0
H623 H 0.95166 0.97086 0.47457 0.0
C624 C 0.90803 0.83376 0.41936 0.0
C625 C 0.9267 0.82349 0.39763 0.0
C626 C 0.92147 0.86067 0.43556 0.0
C627 C 0.95416 0.87791 0.43086 0.0
C628 C 0.97276 0.86765 0.40908 0.0
C629 C 0.95919 0.841 0.39262 0.0
C630 C 0.01744 0.93753 0.47718 0.0
C631 C 0.99957 0.95957 0.48238 0.0
C632 C 1.00265 0.91128 0.46067 0.0
C633 C 0.96932 0.90596 0.44901 0.0
C634 C 0.95107 0.92772 0.45474 0.0
C635 C 0.96611 0.95433 0.47105 0.0
H636 H 0.22868 0.67399 0.62488 0.0
H637 H 0.26877 0.676 0.71778 0.0
H638 H 0.27011 0.64745 0.60976 0.0
H639 H 0.30911 0.64846 0.70288 0.0
H640 H 0.40746 0.65474 0.65344 0.0
H641 H 0.35873 0.66743 0.67339 0.0
H642 H 0.29386 0.60237 0.61331 0.0
H643 H 0.34292 0.5893 0.59343 0.0
C644 C 0.24575 0.6681 0.6422 0.0
C645 C 0.24572 0.67756 0.67244 0.0
C646 C 0.2693 0.65265 0.63358 0.0
C647 C 0.29326 0.64635 0.65506 0.0
C648 C 0.29135 0.6535 0.68573 0.0
C649 C 0.26788 0.66896 0.69433 0.0
C650 C 0.38284 0.64258 0.64494 0.0
C651 C 0.37914 0.62108 0.62176 0.0
C652 C 0.35483 0.64984 0.65642 0.0
C653 C 0.32239 0.63584 0.64499 0.0
C654 C 0.31855 0.61373 0.62238 0.0
C655 C 0.34664 0.60635 0.61094 0.0
H656 H 0.76351 0.83909 0.76207 0.0
H657 H 0.7318 0.92187 0.77375 0.0
H658 H 0.78891 0.85904 0.71475 0.0
H659 H 0.75722 0.94185 0.72635 0.0
H660 H 0.84738 0.98044 0.66704 0.0
H661 H 0.81461 0.95928 0.71031 0.0
H662 H 0.77803 0.87486 0.66241 0.0
H663 H 0.81179 0.89576 0.61943 0.0
C664 C 0.76136 0.8613 0.75421 0.0
C665 C 0.74586 0.87899 0.77177 0.0
C666 C 0.77593 0.87274 0.72708 0.0
C667 C 0.7753 0.90212 0.71692 0.0
C668 C 0.75865 0.91935 0.73387 0.0
C669 C 0.74409 0.90791 0.76099 0.0
C670 C 0.83241 0.95734 0.66578 0.0
C671 C 0.83237 0.9397 0.63992 0.0
C672 C 0.8133 0.94533 0.69041 0.0
C673 C 0.7937 0.91538 0.68978 0.0
C674 C 0.79311 0.89792 0.66367 0.0
C675 C 0.81219 0.90998 0.63896 0.0
H676 H 0.77317 0.27662 0.21787 0.0
H677 H 0.81514 0.20165 0.24678 0.0
H678 H 0.73681 0.24431 0.17999 0.0
H679 H 0.77882 0.16939 0.209 0.0
H680 H 0.68011 0.1133 0.16544 0.0
H681 H 0.71892 0.14619 0.20117 0.0
H682 H 0.738 0.21695 0.13268 0.0
H683 H 0.69833 0.18441 0.09727 0.0
C684 C 0.77495 0.25338 0.21585 0.0
C685 C 0.79685 0.24163 0.23544 0.0
C686 C 0.75412 0.23486 0.19418 0.0
C687 C 0.7548 0.20424 0.19166 0.0
C688 C 0.77727 0.19272 0.21078 0.0
C689 C 0.79807 0.21121 0.2324 0.0
C690 C 0.69247 0.13593 0.15808 0.0
C691 C 0.68613 0.14626 0.12856 0.0
C692 C 0.71497 0.15465 0.17842 0.0
C693 C 0.73156 0.18416 0.16972 0.0
C694 C 0.72539 0.19443 0.14013 0.0
C695 C 0.70295 0.17567 0.11976 0.0
H696 H 0.47523 0.65655 0.33338 0.0
H697 H 0.37087 0.61648 0.34761 0.0
H698 H 0.49106 0.62958 0.3781 0.0
H699 H 0.38664 0.58959 0.39232 0.0
H700 H 0.42763 0.51824 0.44784 0.0
H701 H 0.41084 0.54831 0.40599 0.0
H702 H 0.49207 0.62421 0.4325 0.0
H703 H 0.50921 0.5937 0.47402 0.0
C704 C 0.45555 0.64242 0.34628 0.0
C705 C 0.42168 0.63874 0.3365 0.0
C706 C 0.46468 0.62683 0.37206 0.0
C707 C 0.44024 0.60702 0.38899 0.0
C708 C 0.40634 0.60402 0.37967 0.0
C709 C 0.39723 0.61958 0.35392 0.0
C710 C 0.44178 0.54142 0.44486 0.0
C711 C 0.4698 0.55348 0.46432 0.0
C712 C 0.43204 0.55882 0.42087 0.0
C713 C 0.45002 0.5889 0.41554 0.0
C714 C 0.47779 0.60109 0.43543 0.0
C715 C 0.48749 0.58365 0.45948 0.0
H716 H 0.14242 0.45387 0.83121 0.0
H717 H 0.07419 0.37065 0.8585 0.0
H718 H 0.1247 0.48027 0.87261 0.0
H719 H 0.0577 0.39698 0.90054 0.0
H720 H 0.06197 0.44782 0.99154 0.0
H721 H 0.08076 0.422 0.94993 0.0
H722 H 0.07484 0.49666 0.88949 0.0
H723 H 0.05583 0.52234 0.93091 0.0
C724 C 0.12345 0.44107 0.84568 0.0
C725 C 0.10998 0.40978 0.84099 0.0
C726 C 0.11341 0.45634 0.86972 0.0
C727 C 0.08987 0.44084 0.89024 0.0
C728 C 0.07631 0.40966 0.88562 0.0
C729 C 0.08596 0.39447 0.86135 0.0
C730 C 0.06488 0.45887 0.96945 0.0
C731 C 0.0573 0.48728 0.96478 0.0
C732 C 0.07544 0.44392 0.94545 0.0
C733 C 0.07928 0.45709 0.91613 0.0
C734 C 0.07245 0.48582 0.91169 0.0
C735 C 0.0614 0.50055 0.93553 0.0
H736 H 0.56029 0.83944 0.96449 0.0
H737 H 0.57935 0.88742 0.87894 0.0
H738 H 0.52494 0.87273 0.97793 0.0
H739 H 0.54317 0.91994 0.89195 0.0
H740 H 0.54428 1.00039 0.95772 0.0
H741 H 0.55905 0.95962 0.93107 0.0
H742 H 0.47539 0.89528 0.96856 0.0
H743 H 0.46051 0.93647 0.99552 0.0
C744 C 0.5561 0.85647 0.94817 0.0
C745 C 0.57319 0.86118 0.92095 0.0
C746 C 0.53557 0.87535 0.95572 0.0
C747 C 0.53179 0.89929 0.93619 0.0
C748 C 0.54605 0.90194 0.90762 0.0
C749 C 0.56656 0.88309 0.90007 0.0
C750 C 0.52859 0.97766 0.9598 0.0
C751 C 0.5015 0.97154 0.97895 0.0
C752 C 0.53686 0.95429 0.94428 0.0
C753 C 0.51841 0.92419 0.94777 0.0
C754 C 0.49011 0.91826 0.96557 0.0
C755 C 0.48154 0.94182 0.98086 0.0
H756 H 0.98726 0.22985 0.37851 0.0
H757 H 0.89955 0.21164 0.43227 0.0
H758 H 1.00306 0.18551 0.40085 0.0
H759 H 0.91622 0.16827 0.4557 0.0
H760 H 0.93456 0.07471 0.46843 0.0
H761 H 0.91956 0.1179 0.44282 0.0
H762 H 0.02354 0.16698 0.44785 0.0
H763 H 0.03871 0.12358 0.47266 0.0
C764 C 0.97144 0.21649 0.39521 0.0
C765 C 0.94208 0.22429 0.40353 0.0
C766 C 0.98067 0.19122 0.40823 0.0
C767 C 0.9608 0.17319 0.42994 0.0
C768 C 0.9318 0.18134 0.43867 0.0
C769 C 0.92253 0.20654 0.42559 0.0
C770 C 0.95429 0.09457 0.46378 0.0
C771 C 0.98782 0.09567 0.47274 0.0
C772 C 0.94565 0.11946 0.44933 0.0
C773 C 0.97029 0.14607 0.4436 0.0
C774 C 1.00394 0.14679 0.45169 0.0
C775 C 0.01262 0.12187 0.46603 0.0
H776 H 0.27835 0.60168 0.11753 0.0
H777 H 0.22635 0.65373 0.17002 0.0
H778 H 0.22603 0.57859 0.08979 0.0
H779 H 0.17375 0.62948 0.14293 0.0
H780 H 0.08097 0.55727 0.10545 0.0
H781 H 0.13339 0.57718 0.13528 0.0
H782 H 0.18621 0.59707 0.05221 0.0
H783 H 0.1338 0.57758 1.02246 0.0
C784 C 0.25591 0.60842 0.12317 0.0
C785 C 0.25702 0.63005 0.14597 0.0
C786 C 0.2258 0.59494 0.1073 0.0
C787 C 0.19572 0.60224 0.11405 0.0
C788 C 0.19645 0.62314 0.13736 0.0
C789 C 0.2267 0.63699 0.15298 0.0
C790 C 0.10384 0.56569 0.0936 0.0
C791 C 0.10328 0.56598 0.0616 0.0
C792 C 0.1338 0.57726 0.11068 0.0
C793 C 0.16396 0.58885 0.09613 0.0
C794 C 0.16348 0.58818 0.06413 0.0
C795 C 0.13346 0.57709 0.04708 0.0
H796 H 0.2885 0.46127 0.68548 0.0
H797 H 0.26988 0.38073 0.63053 0.0
H798 H 0.33613 0.48438 0.65537 0.0
H799 H 0.31587 0.40461 0.5992 0.0
H800 H 0.42343 0.43983 0.57109 0.0
H801 H 0.3741 0.41779 0.59932 0.0
H802 H 0.35566 0.50668 0.60898 0.0
H803 H 0.406 0.52887 0.58166 0.0
C804 C 0.29431 0.44845 0.66691 0.0
C805 C 0.27506 0.41888 0.6608 0.0
C806 C 0.32152 0.46197 0.64923 0.0
C807 C 0.33032 0.44648 0.62469 0.0
C808 C 0.31053 0.41723 0.61814 0.0
C809 C 0.28355 0.40363 0.63594 0.0
C810 C 0.40877 0.45472 0.57901 0.0
C811 C 0.41886 0.48619 0.57396 0.0
C812 C 0.38017 0.442 0.59517 0.0
C813 C 0.36045 0.46027 0.60662 0.0
C814 C 0.37028 0.49177 0.60108 0.0
C815 C 0.39911 0.50454 0.58511 0.0
H816 H 0.7546 0.70085 0.89189 0.0
H817 H 0.75514 0.73469 0.98296 0.0
H818 H 0.79034 0.66783 0.91015 0.0
H819 H 0.79056 0.70136 1.00134 0.0
H820 H 0.89779 0.6818 1.00172 0.0
H821 H 0.85071 0.70497 0.99129 0.0
H822 H 0.7963 0.62429 0.94414 0.0
H823 H 0.84369 0.60121 0.95431 0.0
C824 C 0.76174 0.70067 0.91594 0.0
C825 C 0.75234 0.72047 0.93596 0.0
C826 C 0.782 0.68164 0.92644 0.0
C827 C 0.79347 0.68225 0.95713 0.0
C828 C 0.78234 0.70067 0.97752 0.0
C829 C 0.76182 0.71951 0.96705 0.0
C830 C 0.87562 0.66893 0.98942 0.0
C831 C 0.87447 0.63984 0.97861 0.0
C832 C 0.84853 0.68204 0.98371 0.0
C833 C 0.81985 0.66643 0.96687 0.0
C834 C 0.81817 0.63687 0.95705 0.0
C835 C 0.84517 0.62363 0.96302 0.0
H836 H 0.40625 0.80984 0.11955 0.0
H837 H 0.44933 0.843 0.20747 0.0
H838 H 0.42325 0.8608 0.09823 0.0
H839 H 0.46555 0.89433 0.18631 0.0
H840 H 0.52854 0.97147 0.12817 0.0
H841 H 0.50623 0.92259 0.15245 0.0
H842 H 0.41495 0.91171 0.09634 0.0
H843 H 0.43792 0.96067 0.07165 0.0
C844 C 0.41921 0.82803 0.13445 0.0
C845 C 0.4267 0.82202 0.16527 0.0
C846 C 0.42866 0.85747 0.12223 0.0
C847 C 0.44603 0.88194 0.14037 0.0
C848 C 0.45264 0.87611 0.17143 0.0
C849 C 0.44301 0.84663 0.18371 0.0
C850 C 0.50354 0.9588 0.12124 0.0
C851 C 0.48488 0.97014 0.09814 0.0
C852 C 0.4906 0.93075 0.13533 0.0
C853 C 0.45864 0.91295 0.12658 0.0
C854 C 0.43974 0.92455 0.10365 0.0
C855 C 0.45268 0.95281 0.08967 0.0
H856 H 0.09169 0.19874 0.71531 0.0
H857 H 0.10164 0.25078 0.63171 0.0
H858 H 0.06812 0.15253 0.68657 0.0
H859 H 0.07783 0.20434 0.60281 0.0
H860 H 0.06518 0.10823 0.56046 0.0
H861 H 0.09102 0.15481 0.58872 0.0
H862 H 0.01646 0.1294 0.65612 0.0
H863 H 0.99092 0.08323 0.62797 0.0
C864 C 0.08887 0.20036 0.69076 0.0
C865 C 0.0986 0.22865 0.67593 0.0
C866 C 0.07515 0.1738 0.67424 0.0
C867 C 0.07106 0.17453 0.64226 0.0
C868 C 0.08086 0.20279 0.62735 0.0
C869 C 0.09418 0.22951 0.64397 0.0
C870 C 0.05472 0.11243 0.58155 0.0
C871 C 0.02628 0.09179 0.59218 0.0
C872 C 0.06924 0.13931 0.59758 0.0
C873 C 0.05593 0.14597 0.62485 0.0
C874 C 0.02771 0.125 0.63549 0.0
C875 C 0.01299 0.0985 0.61929 0.0
H876 H 0.73566 0.3249 0.38224 0.0
H877 H 0.80573 0.40409 0.41901 0.0
H878 H 0.68945 0.34227 0.40199 0.0
H879 H 0.75938 0.42147 0.43897 0.0
H880 H 0.66442 0.45804 0.44035 0.0
H881 H 0.71149 0.441 0.42152 0.0
H882 H 0.66565 0.3494 0.44957 0.0
H883 H 0.61861 0.3664 0.4682 0.0
C884 C 0.74125 0.34584 0.39491 0.0
C885 C 0.7744 0.36305 0.39916 0.0
C886 C 0.71473 0.35582 0.40622 0.0
C887 C 0.7207 0.38324 0.42212 0.0
C888 C 0.75387 0.40045 0.42645 0.0
C889 C 0.78043 0.39047 0.41507 0.0
C890 C 0.66453 0.4343 0.44266 0.0
C891 C 0.63769 0.41354 0.45563 0.0
C892 C 0.69153 0.42454 0.43193 0.0
C893 C 0.69232 0.39382 0.43398 0.0
C894 C 0.66557 0.37313 0.44715 0.0
C895 C 0.63858 0.38287 0.45781 0.0
loop_
_geom_bond_atom_site_label_1
_geom_bond_atom_site_label_2
_geom_bond_distance
_geom_bond_site_symmetry_2
_ccdc_geom_bond_type
P0 O11 1.490 . S
P0 C14 1.812 . S
P0 C20 1.803 . S
P0 C26 1.819 . S
H1 C15 0.941 . S
H2 C16 0.939 . S
H3 C18 0.940 . S
H4 C19 0.940 . S
H5 C21 0.939 . S
H6 C22 0.942 . S
H7 C24 0.940 . S
H8 C25 0.939 . S
H9 C27 0.941 . S
H10 C31 0.939 . S
O11 P0 1.490 . S
H12 C28 0.939 . S
H13 C30 0.940 . S
C14 P0 1.812 . S
C14 C15 1.389 . S
C14 C19 1.391 . S
C15 H1 0.941 . S
C15 C14 1.389 . S
C15 C16 1.397 . S
C16 H2 0.939 . S
C16 C15 1.397 . S
C16 C17 1.378 . S
C17 C16 1.378 . S
C17 C18 1.378 . S
C18 H3 0.940 . S
C18 C17 1.378 . S
C18 C19 1.396 . S
C19 H4 0.940 . S
C19 C14 1.391 . S
C19 C18 1.396 . S
C20 P0 1.803 . S
C20 C21 1.378 . S
C20 C25 1.400 . S
C21 H5 0.939 . S
C21 C20 1.378 . S
C21 C22 1.361 . S
C22 H6 0.942 . S
C22 C21 1.361 . S
C22 C23 1.369 . S
C23 C22 1.369 . S
C23 C24 1.404 . S
C24 H7 0.940 . S
C24 C23 1.404 . S
C24 C25 1.389 . S
C25 H8 0.939 . S
C25 C20 1.400 . S
C25 C24 1.389 . S
C26 P0 1.819 . S
C26 C27 1.391 . S
C26 C31 1.391 . S
C27 H9 0.941 . S
C27 C26 1.391 . S
C27 C28 1.396 . S
C28 H12 0.939 . S
C28 C27 1.396 . S
C28 C29 1.397 . S
C29 C28 1.397 . S
C29 C30 1.385 . S
C30 H13 0.940 . S
C30 C29 1.385 . S
C30 C31 1.388 . S
C31 H10 0.939 . S
C31 C26 1.391 . S
C31 C30 1.388 . S
P32 O43 1.490 . S
P32 C46 1.812 . S
P32 C52 1.803 . S
P32 C58 1.819 . S
H33 C47 0.941 . S
H34 C48 0.939 . S
H35 C50 0.940 . S
H36 C51 0.940 . S
H37 C53 0.939 . S
H38 C54 0.942 . S
H39 C56 0.940 . S
H40 C57 0.939 . S
H41 C59 0.941 . S
H42 C63 0.939 . S
O43 P32 1.490 . S
H44 C60 0.939 . S
H45 C62 0.940 . S
C46 P32 1.812 . S
C46 C47 1.389 . S
C46 C51 1.391 . S
C47 H33 0.941 . S
C47 C46 1.389 . S
C47 C48 1.397 . S
C48 H34 0.939 . S
C48 C47 1.397 . S
C48 C49 1.378 . S
C49 C48 1.378 . S
C49 C50 1.378 . S
C50 H35 0.940 . S
C50 C49 1.378 . S
C50 C51 1.396 . S
C51 H36 0.940 . S
C51 C46 1.391 . S
C51 C50 1.396 . S
C52 P32 1.803 . S
C52 C53 1.378 . S
C52 C57 1.400 . S
C53 H37 0.939 . S
C53 C52 1.378 . S
C53 C54 1.361 . S
C54 H38 0.942 . S
C54 C53 1.361 . S
C54 C55 1.369 . S
C55 C54 1.369 . S
C55 C56 1.404 . S
C56 H39 0.940 . S
C56 C55 1.404 . S
C56 C57 1.389 . S
C57 H40 0.939 . S
C57 C52 1.400 . S
C57 C56 1.389 . S
C58 P32 1.819 . S
C58 C59 1.391 . S
C58 C63 1.391 . S
C59 H41 0.941 . S
C59 C58 1.391 . S
C59 C60 1.396 . S
C60 H44 0.939 . S
C60 C59 1.396 . S
C60 C61 1.397 . S
C61 C60 1.397 . S
C61 C62 1.385 . S
C62 H45 0.940 . S
C62 C61 1.385 . S
C62 C63 1.388 . S
C63 H42 0.939 . S
C63 C58 1.391 . S
C63 C62 1.388 . S
P64 O75 1.490 . S
P64 C78 1.812 . S
P64 C84 1.803 . S
P64 C90 1.819 . S
H65 C79 0.941 . S
H66 C80 0.939 . S
H67 C82 0.940 . S
H68 C83 0.940 . S
H69 C85 0.939 . S
H70 C86 0.942 . S
H71 C88 0.940 . S
H72 C89 0.939 . S
H73 C91 0.941 . S
H74 C95 0.939 . S
O75 P64 1.490 . S
H76 C92 0.939 . S
H77 C94 0.940 . S
C78 P64 1.812 . S
C78 C79 1.389 . S
C78 C83 1.391 . S
C79 H65 0.941 . S
C79 C78 1.389 . S
C79 C80 1.397 . S
C80 H66 0.939 . S
C80 C79 1.397 . S
C80 C81 1.378 . S
C81 C80 1.378 . S
C81 C82 1.378 . S
C82 H67 0.940 . S
C82 C81 1.378 . S
C82 C83 1.396 . S
C83 H68 0.940 . S
C83 C78 1.391 . S
C83 C82 1.396 . S
C84 P64 1.803 . S
C84 C85 1.378 . S
C84 C89 1.400 . S
C85 H69 0.939 . S
C85 C84 1.378 . S
C85 C86 1.361 . S
C86 H70 0.942 . S
C86 C85 1.361 . S
C86 C87 1.369 . S
C87 C86 1.369 . S
C87 C88 1.404 . S
C88 H71 0.940 . S
C88 C87 1.404 . S
C88 C89 1.389 . S
C89 H72 0.939 . S
C89 C84 1.400 . S
C89 C88 1.389 . S
C90 P64 1.819 . S
C90 C91 1.391 . S
C90 C95 1.391 . S
C91 H73 0.941 . S
C91 C90 1.391 . S
C91 C92 1.396 . S
C92 H76 0.939 . S
C92 C91 1.396 . S
C92 C93 1.397 . S
C93 C92 1.397 . S
C93 C94 1.385 . S
C94 H77 0.940 . S
C94 C93 1.385 . S
C94 C95 1.388 . S
C95 H74 0.939 . S
C95 C90 1.391 . S
C95 C94 1.388 . S
P96 O107 1.490 . S
P96 C110 1.812 . S
P96 C116 1.803 . S
P96 C122 1.819 . S
H97 C111 0.941 . S
H98 C112 0.939 . S
H99 C114 0.940 . S
H100 C115 0.940 . S
H101 C117 0.939 . S
H102 C118 0.942 . S
H103 C120 0.940 . S
H104 C121 0.939 . S
H105 C123 0.941 . S
H106 C127 0.939 . S
O107 P96 1.490 . S
H108 C124 0.939 . S
H109 C126 0.940 . S
C110 P96 1.812 . S
C110 C111 1.389 . S
C110 C115 1.391 . S
C111 H97 0.941 . S
C111 C110 1.389 . S
C111 C112 1.397 . S
C112 H98 0.939 . S
C112 C111 1.397 . S
C112 C113 1.378 . S
C113 C112 1.378 . S
C113 C114 1.378 . S
C114 H99 0.940 . S
C114 C113 1.378 . S
C114 C115 1.396 . S
C115 H100 0.940 . S
C115 C110 1.391 . S
C115 C114 1.396 . S
C116 P96 1.803 . S
C116 C117 1.378 . S
C116 C121 1.400 . S
C117 H101 0.939 . S
C117 C116 1.378 . S
C117 C118 1.361 . S
C118 H102 0.942 . S
C118 C117 1.361 . S
C118 C119 1.369 . S
C119 C118 1.369 . S
C119 C120 1.404 . S
C120 H103 0.940 . S
C120 C119 1.404 . S
C120 C121 1.389 . S
C121 H104 0.939 . S
C121 C116 1.400 . S
C121 C120 1.389 . S
C122 P96 1.819 . S
C122 C123 1.391 . S
C122 C127 1.391 . S
C123 H105 0.941 . S
C123 C122 1.391 . S
C123 C124 1.396 . S
C124 H108 0.939 . S
C124 C123 1.396 . S
C124 C125 1.397 . S
C125 C124 1.397 . S
C125 C126 1.385 . S
C126 H109 0.940 . S
C126 C125 1.385 . S
C126 C127 1.388 . S
C127 H106 0.939 . S
C127 C122 1.391 . S
C127 C126 1.388 . S
P128 O139 1.490 . S
P128 C142 1.812 . S
P128 C148 1.803 . S
P128 C154 1.819 . S
H129 C143 0.941 . S
H130 C144 0.939 . S
H131 C146 0.940 . S
H132 C147 0.940 . S
H133 C149 0.939 . S
H134 C150 0.942 . S
H135 C152 0.940 . S
H136 C153 0.939 . S
H137 C155 0.941 . S
H138 C159 0.939 . S
O139 P128 1.490 . S
H140 C156 0.939 . S
H141 C158 0.940 . S
C142 P128 1.812 . S
C142 C143 1.389 . S
C142 C147 1.391 . S
C143 H129 0.941 . S
C143 C142 1.389 . S
C143 C144 1.397 . S
C144 H130 0.939 . S
C144 C143 1.397 . S
C144 C145 1.378 . S
C145 C144 1.378 . S
C145 C146 1.378 . S
C146 H131 0.940 . S
C146 C145 1.378 . S
C146 C147 1.396 . S
C147 H132 0.940 . S
C147 C142 1.391 . S
C147 C146 1.396 . S
C148 P128 1.803 . S
C148 C149 1.378 . S
C148 C153 1.400 . S
C149 H133 0.939 . S
C149 C148 1.378 . S
C149 C150 1.361 . S
C150 H134 0.942 . S
C150 C149 1.361 . S
C150 C151 1.369 . S
C151 C150 1.369 . S
C151 C152 1.404 . S
C152 H135 0.940 . S
C152 C151 1.404 . S
C152 C153 1.389 . S
C153 H136 0.939 . S
C153 C148 1.400 . S
C153 C152 1.389 . S
C154 P128 1.819 . S
C154 C155 1.391 . S
C154 C159 1.391 . S
C155 H137 0.941 . S
C155 C154 1.391 . S
C155 C156 1.396 . S
C156 H140 0.939 . S
C156 C155 1.396 . S
C156 C157 1.397 . S
C157 C156 1.397 . S
C157 C158 1.385 . S
C158 H141 0.940 . S
C158 C157 1.385 . S
C158 C159 1.388 . S
C159 H138 0.939 . S
C159 C154 1.391 . S
C159 C158 1.388 . S
P160 O171 1.490 . S
P160 C174 1.812 . S
P160 C180 1.803 . S
P160 C186 1.819 . S
H161 C175 0.941 . S
H162 C176 0.939 . S
H163 C178 0.940 . S
H164 C179 0.940 . S
H165 C181 0.939 . S
H166 C182 0.942 . S
H167 C184 0.940 . S
H168 C185 0.939 . S
H169 C187 0.941 . S
H170 C191 0.939 . S
O171 P160 1.490 . S
H172 C188 0.939 . S
H173 C190 0.940 . S
C174 P160 1.812 . S
C174 C175 1.389 . S
C174 C179 1.391 . S
C175 H161 0.941 . S
C175 C174 1.389 . S
C175 C176 1.397 . S
C176 H162 0.939 . S
C176 C175 1.397 . S
C176 C177 1.378 . S
C177 C176 1.378 . S
C177 C178 1.378 . S
C178 H163 0.940 . S
C178 C177 1.378 . S
C178 C179 1.396 . S
C179 H164 0.940 . S
C179 C174 1.391 . S
C179 C178 1.396 . S
C180 P160 1.803 . S
C180 C181 1.378 . S
C180 C185 1.400 . S
C181 H165 0.939 . S
C181 C180 1.378 . S
C181 C182 1.361 . S
C182 H166 0.942 . S
C182 C181 1.361 . S
C182 C183 1.369 . S
C183 C182 1.369 . S
C183 C184 1.404 . S
C184 H167 0.940 . S
C184 C183 1.404 . S
C184 C185 1.389 . S
C185 H168 0.939 . S
C185 C180 1.400 . S
C185 C184 1.389 . S
C186 P160 1.819 . S
C186 C187 1.391 . S
C186 C191 1.391 . S
C187 H169 0.941 . S
C187 C186 1.391 . S
C187 C188 1.396 . S
C188 H172 0.939 . S
C188 C187 1.396 . S
C188 C189 1.397 . S
C189 C188 1.397 . S
C189 C190 1.385 . S
C190 H173 0.940 . S
C190 C189 1.385 . S
C190 C191 1.388 . S
C191 H170 0.939 . S
C191 C186 1.391 . S
C191 C190 1.388 . S
P192 O203 1.490 . S
P192 C206 1.812 . S
P192 C212 1.803 . S
P192 C218 1.819 . S
H193 C207 0.941 . S
H194 C208 0.939 . S
H195 C210 0.940 . S
H196 C211 0.940 . S
H197 C213 0.939 . S
H198 C214 0.942 . S
H199 C216 0.940 . S
H200 C217 0.939 . S
H201 C219 0.941 . S
H202 C223 0.939 . S
O203 P192 1.490 . S
H204 C220 0.939 . S
H205 C222 0.940 . S
C206 P192 1.812 . S
C206 C207 1.389 . S
C206 C211 1.391 . S
C207 H193 0.941 . S
C207 C206 1.389 . S
C207 C208 1.397 . S
C208 H194 0.939 . S
C208 C207 1.397 . S
C208 C209 1.378 . S
C209 C208 1.378 . S
C209 C210 1.378 . S
C210 H195 0.940 . S
C210 C209 1.378 . S
C210 C211 1.396 . S
C211 H196 0.940 . S
C211 C206 1.391 . S
C211 C210 1.396 . S
C212 P192 1.803 . S
C212 C213 1.378 . S
C212 C217 1.400 . S
C213 H197 0.939 . S
C213 C212 1.378 . S
C213 C214 1.361 . S
C214 H198 0.942 . S
C214 C213 1.361 . S
C214 C215 1.369 . S
C215 C214 1.369 . S
C215 C216 1.404 . S
C216 H199 0.940 . S
C216 C215 1.404 . S
C216 C217 1.389 . S
C217 H200 0.939 . S
C217 C212 1.400 . S
C217 C216 1.389 . S
C218 P192 1.819 . S
C218 C219 1.391 . S
C218 C223 1.391 . S
C219 H201 0.941 . S
C219 C218 1.391 . S
C219 C220 1.396 . S
C220 H204 0.939 . S
C220 C219 1.396 . S
C220 C221 1.397 . S
C221 C220 1.397 . S
C221 C222 1.385 . S
C222 H205 0.940 . S
C222 C221 1.385 . S
C222 C223 1.388 . S
C223 H202 0.939 . S
C223 C218 1.391 . S
C223 C222 1.388 . S
P224 O235 1.490 . S
P224 C238 1.812 . S
P224 C244 1.803 . S
P224 C250 1.819 . S
H225 C239 0.941 . S
H226 C240 0.939 . S
H227 C242 0.940 . S
H228 C243 0.940 . S
H229 C245 0.939 . S
H230 C246 0.942 . S
H231 C248 0.940 . S
H232 C249 0.939 . S
H233 C251 0.941 . S
H234 C255 0.939 . S
O235 P224 1.490 . S
H236 C252 0.939 . S
H237 C254 0.940 . S
C238 P224 1.812 . S
C238 C239 1.389 . S
C238 C243 1.391 . S
C239 H225 0.941 . S
C239 C238 1.389 . S
C239 C240 1.397 . S
C240 H226 0.939 . S
C240 C239 1.397 . S
C240 C241 1.378 . S
C241 C240 1.378 . S
C241 C242 1.378 . S
C242 H227 0.940 . S
C242 C241 1.378 . S
C242 C243 1.396 . S
C243 H228 0.940 . S
C243 C238 1.391 . S
C243 C242 1.396 . S
C244 P224 1.803 . S
C244 C245 1.378 . S
C244 C249 1.400 . S
C245 H229 0.939 . S
C245 C244 1.378 . S
C245 C246 1.361 . S
C246 H230 0.942 . S
C246 C245 1.361 . S
C246 C247 1.369 . S
C247 C246 1.369 . S
C247 C248 1.404 . S
C248 H231 0.940 . S
C248 C247 1.404 . S
C248 C249 1.389 . S
C249 H232 0.939 . S
C249 C244 1.400 . S
C249 C248 1.389 . S
C250 P224 1.819 . S
C250 C251 1.391 . S
C250 C255 1.391 . S
C251 H233 0.941 . S
C251 C250 1.391 . S
C251 C252 1.396 . S
C252 H236 0.939 . S
C252 C251 1.396 . S
C252 C253 1.397 . S
C253 C252 1.397 . S
C253 C254 1.385 . S
C254 H237 0.940 . S
C254 C253 1.385 . S
C254 C255 1.388 . S
C255 H234 0.939 . S
C255 C250 1.391 . S
C255 C254 1.388 . S
Tb256 C258 2.809 1_545 S
Tb256 O276 2.485 1_545 S
Tb256 O277 2.441 1_545 S
Tb256 O278 2.658 1_655 S
Tb256 O279 2.405 1_655 S
Tb256 O280 2.379 1_645 S
Tb256 O284 2.325 1_545 S
Tb256 O287 2.341 . S
Tb257 C267 2.809 . S
Tb257 O278 2.325 . S
Tb257 O281 2.341 1_545 S
Tb257 O282 2.484 . S
Tb257 O283 2.440 . S
Tb257 O284 2.658 1_445 S
Tb257 O285 2.409 1_545 S
Tb257 O286 2.378 . S
C258 Tb256 2.809 1_565 S
C258 C259 1.514 . S
C258 O276 1.248 . S
C258 O277 1.266 . S
C259 C258 1.514 . S
C259 C260 1.359 . S
C259 C264 1.348 . S
C260 C259 1.359 . S
C260 C261 1.380 . S
C260 H288 0.929 . S
C261 C260 1.380 . S
C261 C262 1.347 . S
C261 H289 0.931 . S
C262 C261 1.347 . S
C262 C263 1.369 . S
C263 C262 1.369 . S
C263 C264 1.408 . S
C263 H290 0.930 . S
C264 C259 1.348 . S
C264 C263 1.408 . S
C264 H291 0.930 . S
C265 O278 1.281 . S
C265 O279 1.260 . S
C266 O280 1.236 . S
C266 O281 1.266 . S
C267 Tb257 2.809 . S
C267 C268 1.514 . S
C267 O282 1.248 . S
C267 O283 1.266 . S
C268 C267 1.514 . S
C268 C269 1.359 . S
C268 C273 1.348 . S
C269 C268 1.359 . S
C269 C270 1.380 . S
C269 H292 0.929 . S
C270 C269 1.380 . S
C270 C271 1.347 . S
C270 H293 0.931 . S
C271 C270 1.347 . S
C271 C272 1.369 . S
C272 C271 1.369 . S
C272 C273 1.408 . S
C272 H294 0.930 . S
C273 C268 1.348 . S
C273 C272 1.408 . S
C273 H295 0.930 . S
C274 O284 1.281 . S
C274 O285 1.254 1_655 S
C275 O286 1.236 1_655 S
C275 O287 1.266 . S
O276 Tb256 2.485 1_565 S
O276 C258 1.248 . S
O277 Tb256 2.441 1_565 S
O277 C258 1.266 . S
O278 Tb256 2.658 1_455 S
O278 Tb257 2.325 . S
O278 C265 1.281 . S
O279 Tb256 2.405 1_455 S
O279 C265 1.260 . S
O280 Tb256 2.379 1_465 S
O280 C266 1.236 . S
O281 Tb257 2.341 1_565 S
O281 C266 1.266 . S
O282 Tb257 2.484 . S
O282 C267 1.248 . S
O283 Tb257 2.440 . S
O283 C267 1.266 . S
O284 Tb256 2.325 1_565 S
O284 Tb257 2.658 1_665 S
O284 C274 1.281 . S
O285 Tb257 2.409 1_565 S
O285 C274 1.254 1_455 S
O286 Tb257 2.378 . S
O286 C275 1.236 1_455 S
O287 Tb256 2.341 . S
O287 C275 1.266 . S
H288 C260 0.929 . S
H289 C261 0.931 . S
H290 C263 0.930 . S
H291 C264 0.930 . S
H292 C269 0.929 . S
H293 C270 0.931 . S
H294 C272 0.930 . S
H295 C273 0.930 . S
Tb296 C298 2.809 . S
Tb296 O316 2.484 . S
Tb296 O317 2.440 . S
Tb296 O318 2.658 1_545 S
Tb296 O319 2.409 1_545 S
Tb296 O320 2.378 . S
Tb296 O324 2.325 1_554 S
Tb296 O327 2.341 1_544 S
Tb297 C307 2.809 1_545 S
Tb297 O318 2.325 1_546 S
Tb297 O321 2.341 1_556 S
Tb297 O322 2.484 1_545 S
Tb297 O323 2.440 1_545 S
Tb297 O324 2.658 . S
Tb297 O325 2.409 . S
Tb297 O326 2.378 1_545 S
C298 Tb296 2.809 . S
C298 C299 1.514 . S
C298 O316 1.248 . S
C298 O317 1.266 . S
C299 C298 1.514 . S
C299 C300 1.359 . S
C299 C304 1.348 . S
C300 C299 1.359 . S
C300 C301 1.380 . S
C300 H328 0.929 . S
C301 C300 1.380 . S
C301 C302 1.347 . S
C301 H329 0.931 . S
C302 C301 1.347 . S
C302 C303 1.369 . S
C303 C302 1.369 . S
C303 C304 1.408 . S
C303 H330 0.930 . S
C304 C299 1.348 . S
C304 C303 1.408 . S
C304 H331 0.930 . S
C305 O318 1.281 . S
C305 O319 1.254 . S
C306 O320 1.236 . S
C306 O321 1.266 . S
C307 Tb297 2.809 1_565 S
C307 C308 1.514 . S
C307 O322 1.248 . S
C307 O323 1.266 . S
C308 C307 1.514 . S
C308 C309 1.359 . S
C308 C313 1.348 . S
C309 C308 1.359 . S
C309 C310 1.380 . S
C309 H332 0.929 . S
C310 C309 1.380 . S
C310 C311 1.347 . S
C310 H333 0.931 . S
C311 C310 1.347 . S
C311 C312 1.369 . S
C312 C311 1.369 . S
C312 C313 1.408 . S
C312 H334 0.930 . S
C313 C308 1.348 . S
C313 C312 1.408 . S
C313 H335 0.930 . S
C314 O324 1.281 . S
C314 O325 1.254 . S
C315 O326 1.236 . S
C315 O327 1.266 . S
O316 Tb296 2.484 . S
O316 C298 1.248 . S
O317 Tb296 2.440 . S
O317 C298 1.266 . S
O318 Tb296 2.658 1_565 S
O318 Tb297 2.325 1_564 S
O318 C305 1.281 . S
O319 Tb296 2.409 1_565 S
O319 C305 1.254 . S
O320 Tb296 2.378 . S
O320 C306 1.236 . S
O321 Tb297 2.341 1_554 S
O321 C306 1.266 . S
O322 Tb297 2.484 1_565 S
O322 C307 1.248 . S
O323 Tb297 2.440 1_565 S
O323 C307 1.266 . S
O324 Tb296 2.325 1_556 S
O324 Tb297 2.658 . S
O324 C314 1.281 . S
O325 Tb297 2.409 . S
O325 C314 1.254 . S
O326 Tb297 2.378 1_565 S
O326 C315 1.236 . S
O327 Tb296 2.341 1_566 S
O327 C315 1.266 . S
H328 C300 0.929 . S
H329 C301 0.931 . S
H330 C303 0.930 . S
H331 C304 0.930 . S
H332 C309 0.929 . S
H333 C310 0.931 . S
H334 C312 0.930 . S
H335 C313 0.930 . S
Tb336 C338 2.809 . S
Tb336 O356 2.484 . S
Tb336 O357 2.440 . S
Tb336 O358 2.658 . S
Tb336 O359 2.409 . S
Tb336 O360 2.378 . S
Tb336 O364 2.325 . S
Tb336 O367 2.341 . S
Tb337 C347 2.809 . S
Tb337 O358 2.325 . S
Tb337 O361 2.341 . S
Tb337 O362 2.484 . S
Tb337 O363 2.440 . S
Tb337 O364 2.658 . S
Tb337 O365 2.409 . S
Tb337 O366 2.378 . S
C338 Tb336 2.809 . S
C338 C339 1.514 . S
C338 O356 1.248 . S
C338 O357 1.266 . S
C339 C338 1.514 . S
C339 C340 1.359 . S
C339 C344 1.348 . S
C340 C339 1.359 . S
C340 C341 1.380 . S
C340 H368 0.929 . S
C341 C340 1.380 . S
C341 C342 1.347 . S
C341 H369 0.931 . S
C342 C341 1.347 . S
C342 C343 1.369 . S
C343 C342 1.369 . S
C343 C344 1.408 . S
C343 H370 0.930 . S
C344 C339 1.348 . S
C344 C343 1.408 . S
C344 H371 0.930 . S
C345 O358 1.281 . S
C345 O359 1.254 . S
C346 O360 1.236 . S
C346 O361 1.266 . S
C347 Tb337 2.809 . S
C347 C348 1.514 . S
C347 O362 1.248 . S
C347 O363 1.266 . S
C348 C347 1.514 . S
C348 C349 1.359 . S
C348 C353 1.348 . S
C349 C348 1.359 . S
C349 C350 1.380 . S
C349 H372 0.929 . S
C350 C349 1.380 . S
C350 C351 1.347 . S
C350 H373 0.931 . S
C351 C350 1.347 . S
C351 C352 1.369 . S
C352 C351 1.369 . S
C352 C353 1.408 . S
C352 H374 0.930 . S
C353 C348 1.348 . S
C353 C352 1.408 . S
C353 H375 0.930 . S
C354 O364 1.281 . S
C354 O365 1.254 . S
C355 O366 1.236 . S
C355 O367 1.266 . S
O356 Tb336 2.484 . S
O356 C338 1.248 . S
O357 Tb336 2.440 . S
O357 C338 1.266 . S
O358 Tb336 2.658 . S
O358 Tb337 2.325 . S
O358 C345 1.281 . S
O359 Tb336 2.409 . S
O359 C345 1.254 . S
O360 Tb336 2.378 . S
O360 C346 1.236 . S
O361 Tb337 2.341 . S
O361 C346 1.266 . S
O362 Tb337 2.484 . S
O362 C347 1.248 . S
O363 Tb337 2.440 . S
O363 C347 1.266 . S
O364 Tb336 2.325 . S
O364 Tb337 2.658 . S
O364 C354 1.281 . S
O365 Tb337 2.409 . S
O365 C354 1.254 . S
O366 Tb337 2.378 . S
O366 C355 1.236 . S
O367 Tb336 2.341 . S
O367 C355 1.266 . S
H368 C340 0.929 . S
H369 C341 0.931 . S
H370 C343 0.930 . S
H371 C344 0.930 . S
H372 C349 0.929 . S
H373 C350 0.931 . S
H374 C352 0.930 . S
H375 C353 0.930 . S
Tb376 C378 2.809 1_455 S
Tb376 O396 2.484 1_455 S
Tb376 O397 2.440 1_455 S
Tb376 O398 2.658 1_556 S
Tb376 O399 2.409 1_556 S
Tb376 O400 2.378 1_456 S
Tb376 O404 2.325 1_455 S
Tb376 O407 2.341 . S
Tb377 C387 2.809 . S
Tb377 O398 2.325 . S
Tb377 O401 2.341 1_455 S
Tb377 O402 2.484 . S
Tb377 O403 2.440 . S
Tb377 O404 2.658 1_454 S
Tb377 O405 2.409 1_455 S
Tb377 O406 2.378 1_554 S
C378 Tb376 2.809 1_655 S
C378 C379 1.514 . S
C378 O396 1.248 . S
C378 O397 1.266 . S
C379 C378 1.514 . S
C379 C380 1.359 . S
C379 C384 1.348 . S
C380 C379 1.359 . S
C380 C381 1.380 . S
C380 H408 0.929 . S
C381 C380 1.380 . S
C381 C382 1.347 . S
C381 H409 0.931 . S
C382 C381 1.347 . S
C382 C383 1.369 . S
C383 C382 1.369 . S
C383 C384 1.408 . S
C383 H410 0.930 . S
C384 C379 1.348 . S
C384 C383 1.408 . S
C384 H411 0.930 . S
C385 O398 1.281 . S
C385 O399 1.254 . S
C386 O400 1.236 . S
C386 O401 1.266 . S
C387 Tb377 2.809 . S
C387 C388 1.514 . S
C387 O402 1.248 . S
C387 O403 1.266 . S
C388 C387 1.514 . S
C388 C389 1.359 . S
C388 C393 1.348 . S
C389 C388 1.359 . S
C389 C390 1.380 . S
C389 H412 0.929 . S
C390 C389 1.380 . S
C390 C391 1.347 . S
C390 H413 0.931 . S
C391 C390 1.347 . S
C391 C392 1.369 . S
C392 C391 1.369 . S
C392 C393 1.408 . S
C392 H414 0.930 . S
C393 C388 1.348 . S
C393 C392 1.408 . S
C393 H415 0.930 . S
C394 O404 1.281 . S
C394 O405 1.254 1_556 S
C395 O406 1.236 . S
C395 O407 1.266 . S
O396 Tb376 2.484 1_655 S
O396 C378 1.248 . S
O397 Tb376 2.440 1_655 S
O397 C378 1.266 . S
O398 Tb376 2.658 1_554 S
O398 Tb377 2.325 . S
O398 C385 1.281 . S
O399 Tb376 2.409 1_554 S
O399 C385 1.254 . S
O400 Tb376 2.378 1_654 S
O400 C386 1.236 . S
O401 Tb377 2.341 1_655 S
O401 C386 1.266 . S
O402 Tb377 2.484 . S
O402 C387 1.248 . S
O403 Tb377 2.440 . S
O403 C387 1.266 . S
O404 Tb376 2.325 1_655 S
O404 Tb377 2.658 1_656 S
O404 C394 1.281 . S
O405 Tb377 2.409 1_655 S
O405 C394 1.254 1_554 S
O406 Tb377 2.378 1_556 S
O406 C395 1.236 . S
O407 Tb376 2.341 . S
O407 C395 1.266 . S
H408 C380 0.929 . S
H409 C381 0.931 . S
H410 C383 0.930 . S
H411 C384 0.930 . S
H412 C389 0.929 . S
H413 C390 0.931 . S
H414 C392 0.930 . S
H415 C393 0.930 . S
H416 C424 0.950 . S
H417 C429 0.950 . S
H418 C426 0.950 . S
H419 C428 0.950 . S
H420 C430 0.950 . S
H421 C432 0.950 . S
H422 C434 0.950 . S
H423 C435 0.950 . S
C424 H416 0.950 . S
C424 C425 1.386 . S
C424 C426 1.391 . S
C425 C424 1.386 . S
C425 C429 1.393 . S
C426 H418 0.950 . S
C426 C424 1.391 . S
C426 C427 1.400 . S
C427 C426 1.400 . S
C427 C428 1.398 . S
C427 C433 1.491 . S
C428 H419 0.950 . S
C428 C427 1.398 . S
C428 C429 1.391 . S
C429 H417 0.950 . S
C429 C425 1.393 . S
C429 C428 1.391 . S
C430 H420 0.950 . S
C430 C431 1.386 . S
C430 C432 1.391 . S
C431 C430 1.386 . S
C431 C435 1.393 . S
C432 H421 0.950 . S
C432 C430 1.391 . S
C432 C433 1.400 . S
C433 C427 1.491 . S
C433 C432 1.400 . S
C433 C434 1.398 . S
C434 H422 0.950 . S
C434 C433 1.398 . S
C434 C435 1.391 . S
C435 H423 0.950 . S
C435 C431 1.393 . S
C435 C434 1.391 . S
H436 C444 0.950 . S
H437 C449 0.950 . S
H438 C446 0.950 . S
H439 C448 0.950 . S
H440 C450 0.950 . S
H441 C452 0.950 . S
H442 C454 0.950 . S
H443 C455 0.950 . S
C444 H436 0.950 . S
C444 C445 1.386 . S
C444 C446 1.391 . S
C445 C444 1.386 . S
C445 C449 1.393 . S
C446 H438 0.950 . S
C446 C444 1.391 . S
C446 C447 1.400 . S
C447 C446 1.400 . S
C447 C448 1.398 . S
C447 C453 1.491 . S
C448 H439 0.950 . S
C448 C447 1.398 . S
C448 C449 1.391 . S
C449 H437 0.950 . S
C449 C445 1.393 . S
C449 C448 1.391 . S
C450 H440 0.950 . S
C450 C451 1.386 . S
C450 C452 1.391 . S
C451 C450 1.386 . S
C451 C455 1.393 . S
C452 H441 0.950 . S
C452 C450 1.391 . S
C452 C453 1.400 . S
C453 C447 1.491 . S
C453 C452 1.400 . S
C453 C454 1.398 . S
C454 H442 0.950 . S
C454 C453 1.398 . S
C454 C455 1.391 . S
C455 H443 0.950 . S
C455 C451 1.393 . S
C455 C454 1.391 . S
H456 C464 0.950 . S
H457 C469 0.950 . S
H458 C466 0.950 . S
H459 C468 0.950 . S
H460 C470 0.950 . S
H461 C472 0.950 . S
H462 C474 0.950 . S
H463 C475 0.950 . S
C464 H456 0.950 . S
C464 C465 1.386 . S
C464 C466 1.391 . S
C465 C464 1.386 . S
C465 C469 1.393 . S
C466 H458 0.950 . S
C466 C464 1.391 . S
C466 C467 1.400 . S
C467 C466 1.400 . S
C467 C468 1.398 . S
C467 C473 1.491 . S
C468 H459 0.950 . S
C468 C467 1.398 . S
C468 C469 1.391 . S
C469 H457 0.950 . S
C469 C465 1.393 . S
C469 C468 1.391 . S
C470 H460 0.950 . S
C470 C471 1.386 . S
C470 C472 1.391 . S
C471 C470 1.386 . S
C471 C475 1.393 . S
C472 H461 0.950 . S
C472 C470 1.391 . S
C472 C473 1.400 . S
C473 C467 1.491 . S
C473 C472 1.400 . S
C473 C474 1.398 . S
C474 H462 0.950 . S
C474 C473 1.398 . S
C474 C475 1.391 . S
C475 H463 0.950 . S
C475 C471 1.393 . S
C475 C474 1.391 . S
H476 C484 0.950 . S
H477 C489 0.950 . S
H478 C486 0.950 . S
H479 C488 0.950 . S
H480 C490 0.950 . S
H481 C492 0.950 . S
H482 C494 0.950 . S
H483 C495 0.950 . S
C484 H476 0.950 . S
C484 C485 1.386 . S
C484 C486 1.391 . S
C485 C484 1.386 . S
C485 C489 1.393 . S
C486 H478 0.950 . S
C486 C484 1.391 . S
C486 C487 1.400 . S
C487 C486 1.400 . S
C487 C488 1.398 . S
C487 C493 1.491 . S
C488 H479 0.950 . S
C488 C487 1.398 . S
C488 C489 1.391 . S
C489 H477 0.950 . S
C489 C485 1.393 . S
C489 C488 1.391 . S
C490 H480 0.950 . S
C490 C491 1.386 . S
C490 C492 1.391 . S
C491 C490 1.386 . S
C491 C495 1.393 . S
C492 H481 0.950 . S
C492 C490 1.391 . S
C492 C493 1.400 . S
C493 C487 1.491 . S
C493 C492 1.400 . S
C493 C494 1.398 . S
C494 H482 0.950 . S
C494 C493 1.398 . S
C494 C495 1.391 . S
C495 H483 0.950 . S
C495 C491 1.393 . S
C495 C494 1.391 . S
H496 C504 0.950 . S
H497 C509 0.950 . S
H498 C506 0.950 . S
H499 C508 0.950 . S
H500 C510 0.950 . S
H501 C512 0.950 . S
H502 C514 0.950 . S
H503 C515 0.950 . S
C504 H496 0.950 . S
C504 C505 1.386 . S
C504 C506 1.391 . S
C505 C504 1.386 . S
C505 C509 1.393 . S
C506 H498 0.950 . S
C506 C504 1.391 . S
C506 C507 1.400 . S
C507 C506 1.400 . S
C507 C508 1.398 . S
C507 C513 1.491 . S
C508 H499 0.950 . S
C508 C507 1.398 . S
C508 C509 1.391 . S
C509 H497 0.950 . S
C509 C505 1.393 . S
C509 C508 1.391 . S
C510 H500 0.950 . S
C510 C511 1.386 . S
C510 C512 1.391 . S
C511 C510 1.386 . S
C511 C515 1.393 . S
C512 H501 0.950 . S
C512 C510 1.391 . S
C512 C513 1.400 . S
C513 C507 1.491 . S
C513 C512 1.400 . S
C513 C514 1.398 . S
C514 H502 0.950 . S
C514 C513 1.398 . S
C514 C515 1.391 . S
C515 H503 0.950 . S
C515 C511 1.393 . S
C515 C514 1.391 . S
H516 C524 0.950 . S
H517 C529 0.950 . S
H518 C526 0.950 . S
H519 C528 0.950 . S
H520 C530 0.950 . S
H521 C532 0.950 . S
H522 C534 0.950 . S
H523 C535 0.950 . S
C524 H516 0.950 . S
C524 C525 1.386 . S
C524 C526 1.391 . S
C525 C524 1.386 . S
C525 C529 1.393 . S
C526 H518 0.950 . S
C526 C524 1.391 . S
C526 C527 1.400 . S
C527 C526 1.400 . S
C527 C528 1.398 . S
C527 C533 1.491 . S
C528 H519 0.950 . S
C528 C527 1.398 . S
C528 C529 1.391 . S
C529 H517 0.950 . S
C529 C525 1.393 . S
C529 C528 1.391 . S
C530 H520 0.950 . S
C530 C531 1.386 . S
C530 C532 1.391 . S
C531 C530 1.386 . S
C531 C535 1.393 . S
C532 H521 0.950 . S
C532 C530 1.391 . S
C532 C533 1.400 . S
C533 C527 1.491 . S
C533 C532 1.400 . S
C533 C534 1.398 . S
C534 H522 0.950 . S
C534 C533 1.398 . S
C534 C535 1.391 . S
C535 H523 0.950 . S
C535 C531 1.393 . S
C535 C534 1.391 . S
H536 C544 0.950 . S
H537 C549 0.950 . S
H538 C546 0.950 . S
H539 C548 0.950 . S
H540 C550 0.950 . S
H541 C552 0.950 . S
H542 C554 0.950 . S
H543 C555 0.950 . S
C544 H536 0.950 . S
C544 C545 1.386 . S
C544 C546 1.391 . S
C545 C544 1.386 . S
C545 C549 1.393 . S
C546 H538 0.950 . S
C546 C544 1.391 . S
C546 C547 1.400 . S
C547 C546 1.400 . S
C547 C548 1.398 . S
C547 C553 1.491 . S
C548 H539 0.950 . S
C548 C547 1.398 . S
C548 C549 1.391 . S
C549 H537 0.950 . S
C549 C545 1.393 . S
C549 C548 1.391 . S
C550 H540 0.950 . S
C550 C551 1.386 . S
C550 C552 1.391 . S
C551 C550 1.386 . S
C551 C555 1.393 . S
C552 H541 0.950 . S
C552 C550 1.391 . S
C552 C553 1.400 . S
C553 C547 1.491 . S
C553 C552 1.400 . S
C553 C554 1.398 . S
C554 H542 0.950 . S
C554 C553 1.398 . S
C554 C555 1.391 . S
C555 H543 0.950 . S
C555 C551 1.393 . S
C555 C554 1.391 . S
H556 C564 0.950 . S
H557 C569 0.950 . S
H558 C566 0.950 . S
H559 C568 0.950 . S
H560 C570 0.950 . S
H561 C572 0.950 . S
H562 C574 0.950 . S
H563 C575 0.950 . S
C564 H556 0.950 . S
C564 C565 1.386 . S
C564 C566 1.391 . S
C565 C564 1.386 . S
C565 C569 1.393 . S
C566 H558 0.950 . S
C566 C564 1.391 . S
C566 C567 1.400 . S
C567 C566 1.400 . S
C567 C568 1.398 . S
C567 C573 1.491 . S
C568 H559 0.950 . S
C568 C567 1.398 . S
C568 C569 1.391 . S
C569 H557 0.950 . S
C569 C565 1.393 . S
C569 C568 1.391 . S
C570 H560 0.950 . S
C570 C571 1.386 . S
C570 C572 1.391 . S
C571 C570 1.386 . S
C571 C575 1.393 . S
C572 H561 0.950 . S
C572 C570 1.391 . S
C572 C573 1.400 . S
C573 C567 1.491 . S
C573 C572 1.400 . S
C573 C574 1.398 . S
C574 H562 0.950 . S
C574 C573 1.398 . S
C574 C575 1.391 . S
C575 H563 0.950 . S
C575 C571 1.393 . S
C575 C574 1.391 . S
H576 C584 0.950 . S
H577 C589 0.950 . S
H578 C586 0.950 . S
H579 C588 0.950 . S
H580 C590 0.950 . S
H581 C592 0.950 . S
H582 C594 0.950 . S
H583 C595 0.950 . S
C584 H576 0.950 . S
C584 C585 1.386 . S
C584 C586 1.391 . S
C585 C584 1.386 . S
C585 C589 1.393 . S
C586 H578 0.950 . S
C586 C584 1.391 . S
C586 C587 1.400 . S
C587 C586 1.400 . S
C587 C588 1.398 . S
C587 C593 1.491 . S
C588 H579 0.950 . S
C588 C587 1.398 . S
C588 C589 1.391 . S
C589 H577 0.950 . S
C589 C585 1.393 . S
C589 C588 1.391 . S
C590 H580 0.950 . S
C590 C591 1.386 . S
C590 C592 1.391 . S
C591 C590 1.386 . S
C591 C595 1.393 . S
C592 H581 0.950 . S
C592 C590 1.391 . S
C592 C593 1.400 . S
C593 C587 1.491 . S
C593 C592 1.400 . S
C593 C594 1.398 . S
C594 H582 0.950 . S
C594 C593 1.398 . S
C594 C595 1.391 . S
C595 H583 0.950 . S
C595 C591 1.393 . S
C595 C594 1.391 . S
H596 C604 0.950 . S
H597 C609 0.950 . S
H598 C606 0.950 . S
H599 C608 0.950 . S
H600 C610 0.950 . S
H601 C612 0.950 . S
H602 C614 0.950 . S
H603 C615 0.950 . S
C604 H596 0.950 . S
C604 C605 1.386 . S
C604 C606 1.391 . S
C605 C604 1.386 . S
C605 C609 1.393 . S
C606 H598 0.950 . S
C606 C604 1.391 . S
C606 C607 1.400 . S
C607 C606 1.400 . S
C607 C608 1.398 . S
C607 C613 1.491 . S
C608 H599 0.950 . S
C608 C607 1.398 . S
C608 C609 1.391 . S
C609 H597 0.950 . S
C609 C605 1.393 . S
C609 C608 1.391 . S
C610 H600 0.950 . S
C610 C611 1.386 . S
C610 C612 1.391 . S
C611 C610 1.386 . S
C611 C615 1.393 . S
C612 H601 0.950 . S
C612 C610 1.391 . S
C612 C613 1.400 . S
C613 C607 1.491 . S
C613 C612 1.400 . S
C613 C614 1.398 . S
C614 H602 0.950 . S
C614 C613 1.398 . S
C614 C615 1.391 . S
C615 H603 0.950 . S
C615 C611 1.393 . S
C615 C614 1.391 . S
H616 C624 0.950 . S
H617 C629 0.950 . S
H618 C626 0.950 . S
H619 C628 0.950 . S
H620 C630 0.950 . S
H621 C632 0.950 . S
H622 C634 0.950 . S
H623 C635 0.950 . S
C624 H616 0.950 . S
C624 C625 1.386 . S
C624 C626 1.391 . S
C625 C624 1.386 . S
C625 C629 1.393 . S
C626 H618 0.950 . S
C626 C624 1.391 . S
C626 C627 1.400 . S
C627 C626 1.400 . S
C627 C628 1.398 . S
C627 C633 1.491 . S
C628 H619 0.950 . S
C628 C627 1.398 . S
C628 C629 1.391 . S
C629 H617 0.950 . S
C629 C625 1.393 . S
C629 C628 1.391 . S
C630 H620 0.950 . S
C630 C631 1.386 . S
C630 C632 1.391 . S
C631 C630 1.386 . S
C631 C635 1.393 . S
C632 H621 0.950 . S
C632 C630 1.391 . S
C632 C633 1.400 . S
C633 C627 1.491 . S
C633 C632 1.400 . S
C633 C634 1.398 . S
C634 H622 0.950 . S
C634 C633 1.398 . S
C634 C635 1.391 . S
C635 H623 0.950 . S
C635 C631 1.393 . S
C635 C634 1.391 . S
H636 C644 0.950 . S
H637 C649 0.950 . S
H638 C646 0.950 . S
H639 C648 0.950 . S
H640 C650 0.950 . S
H641 C652 0.950 . S
H642 C654 0.950 . S
H643 C655 0.950 . S
C644 H636 0.950 . S
C644 C645 1.386 . S
C644 C646 1.391 . S
C645 C644 1.386 . S
C645 C649 1.393 . S
C646 H638 0.950 . S
C646 C644 1.391 . S
C646 C647 1.400 . S
C647 C646 1.400 . S
C647 C648 1.398 . S
C647 C653 1.491 . S
C648 H639 0.950 . S
C648 C647 1.398 . S
C648 C649 1.391 . S
C649 H637 0.950 . S
C649 C645 1.393 . S
C649 C648 1.391 . S
C650 H640 0.950 . S
C650 C651 1.386 . S
C650 C652 1.391 . S
C651 C650 1.386 . S
C651 C655 1.393 . S
C652 H641 0.950 . S
C652 C650 1.391 . S
C652 C653 1.400 . S
C653 C647 1.491 . S
C653 C652 1.400 . S
C653 C654 1.398 . S
C654 H642 0.950 . S
C654 C653 1.398 . S
C654 C655 1.391 . S
C655 H643 0.950 . S
C655 C651 1.393 . S
C655 C654 1.391 . S
H656 C664 0.950 . S
H657 C669 0.950 . S
H658 C666 0.950 . S
H659 C668 0.950 . S
H660 C670 0.950 . S
H661 C672 0.950 . S
H662 C674 0.950 . S
H663 C675 0.950 . S
C664 H656 0.950 . S
C664 C665 1.386 . S
C664 C666 1.391 . S
C665 C664 1.386 . S
C665 C669 1.393 . S
C666 H658 0.950 . S
C666 C664 1.391 . S
C666 C667 1.400 . S
C667 C666 1.400 . S
C667 C668 1.398 . S
C667 C673 1.491 . S
C668 H659 0.950 . S
C668 C667 1.398 . S
C668 C669 1.391 . S
C669 H657 0.950 . S
C669 C665 1.393 . S
C669 C668 1.391 . S
C670 H660 0.950 . S
C670 C671 1.386 . S
C670 C672 1.391 . S
C671 C670 1.386 . S
C671 C675 1.393 . S
C672 H661 0.950 . S
C672 C670 1.391 . S
C672 C673 1.400 . S
C673 C667 1.491 . S
C673 C672 1.400 . S
C673 C674 1.398 . S
C674 H662 0.950 . S
C674 C673 1.398 . S
C674 C675 1.391 . S
C675 H663 0.950 . S
C675 C671 1.393 . S
C675 C674 1.391 . S
H676 C684 0.950 . S
H677 C689 0.950 . S
H678 C686 0.950 . S
H679 C688 0.950 . S
H680 C690 0.950 . S
H681 C692 0.950 . S
H682 C694 0.950 . S
H683 C695 0.950 . S
C684 H676 0.950 . S
C684 C685 1.386 . S
C684 C686 1.391 . S
C685 C684 1.386 . S
C685 C689 1.393 . S
C686 H678 0.950 . S
C686 C684 1.391 . S
C686 C687 1.400 . S
C687 C686 1.400 . S
C687 C688 1.398 . S
C687 C693 1.491 . S
C688 H679 0.950 . S
C688 C687 1.398 . S
C688 C689 1.391 . S
C689 H677 0.950 . S
C689 C685 1.393 . S
C689 C688 1.391 . S
C690 H680 0.950 . S
C690 C691 1.386 . S
C690 C692 1.391 . S
C691 C690 1.386 . S
C691 C695 1.393 . S
C692 H681 0.950 . S
C692 C690 1.391 . S
C692 C693 1.400 . S
C693 C687 1.491 . S
C693 C692 1.400 . S
C693 C694 1.398 . S
C694 H682 0.950 . S
C694 C693 1.398 . S
C694 C695 1.391 . S
C695 H683 0.950 . S
C695 C691 1.393 . S
C695 C694 1.391 . S
H696 C704 0.950 . S
H697 C709 0.950 . S
H698 C706 0.950 . S
H699 C708 0.950 . S
H700 C710 0.950 . S
H701 C712 0.950 . S
H702 C714 0.950 . S
H703 C715 0.950 . S
C704 H696 0.950 . S
C704 C705 1.386 . S
C704 C706 1.391 . S
C705 C704 1.386 . S
C705 C709 1.393 . S
C706 H698 0.950 . S
C706 C704 1.391 . S
C706 C707 1.400 . S
C707 C706 1.400 . S
C707 C708 1.398 . S
C707 C713 1.491 . S
C708 H699 0.950 . S
C708 C707 1.398 . S
C708 C709 1.391 . S
C709 H697 0.950 . S
C709 C705 1.393 . S
C709 C708 1.391 . S
C710 H700 0.950 . S
C710 C711 1.386 . S
C710 C712 1.391 . S
C711 C710 1.386 . S
C711 C715 1.393 . S
C712 H701 0.950 . S
C712 C710 1.391 . S
C712 C713 1.400 . S
C713 C707 1.491 . S
C713 C712 1.400 . S
C713 C714 1.398 . S
C714 H702 0.950 . S
C714 C713 1.398 . S
C714 C715 1.391 . S
C715 H703 0.950 . S
C715 C711 1.393 . S
C715 C714 1.391 . S
H716 C724 0.950 . S
H717 C729 0.950 . S
H718 C726 0.950 . S
H719 C728 0.950 . S
H720 C730 0.950 . S
H721 C732 0.950 . S
H722 C734 0.950 . S
H723 C735 0.950 . S
C724 H716 0.950 . S
C724 C725 1.386 . S
C724 C726 1.391 . S
C725 C724 1.386 . S
C725 C729 1.393 . S
C726 H718 0.950 . S
C726 C724 1.391 . S
C726 C727 1.400 . S
C727 C726 1.400 . S
C727 C728 1.398 . S
C727 C733 1.491 . S
C728 H719 0.950 . S
C728 C727 1.398 . S
C728 C729 1.391 . S
C729 H717 0.950 . S
C729 C725 1.393 . S
C729 C728 1.391 . S
C730 H720 0.950 . S
C730 C731 1.386 . S
C730 C732 1.391 . S
C731 C730 1.386 . S
C731 C735 1.393 . S
C732 H721 0.950 . S
C732 C730 1.391 . S
C732 C733 1.400 . S
C733 C727 1.491 . S
C733 C732 1.400 . S
C733 C734 1.398 . S
C734 H722 0.950 . S
C734 C733 1.398 . S
C734 C735 1.391 . S
C735 H723 0.950 . S
C735 C731 1.393 . S
C735 C734 1.391 . S
H736 C744 0.950 . S
H737 C749 0.950 . S
H738 C746 0.950 . S
H739 C748 0.950 . S
H740 C750 0.950 . S
H741 C752 0.950 . S
H742 C754 0.950 . S
H743 C755 0.950 . S
C744 H736 0.950 . S
C744 C745 1.386 . S
C744 C746 1.391 . S
C745 C744 1.386 . S
C745 C749 1.393 . S
C746 H738 0.950 . S
C746 C744 1.391 . S
C746 C747 1.400 . S
C747 C746 1.400 . S
C747 C748 1.398 . S
C747 C753 1.491 . S
C748 H739 0.950 . S
C748 C747 1.398 . S
C748 C749 1.391 . S
C749 H737 0.950 . S
C749 C745 1.393 . S
C749 C748 1.391 . S
C750 H740 0.950 . S
C750 C751 1.386 . S
C750 C752 1.391 . S
C751 C750 1.386 . S
C751 C755 1.393 . S
C752 H741 0.950 . S
C752 C750 1.391 . S
C752 C753 1.400 . S
C753 C747 1.491 . S
C753 C752 1.400 . S
C753 C754 1.398 . S
C754 H742 0.950 . S
C754 C753 1.398 . S
C754 C755 1.391 . S
C755 H743 0.950 . S
C755 C751 1.393 . S
C755 C754 1.391 . S
H756 C764 0.950 . S
H757 C769 0.950 . S
H758 C766 0.950 . S
H759 C768 0.950 . S
H760 C770 0.950 . S
H761 C772 0.950 . S
H762 C774 0.950 . S
H763 C775 0.950 1_455 S
C764 H756 0.950 . S
C764 C765 1.386 . S
C764 C766 1.391 . S
C765 C764 1.386 . S
C765 C769 1.393 . S
C766 H758 0.950 . S
C766 C764 1.391 . S
C766 C767 1.400 . S
C767 C766 1.400 . S
C767 C768 1.398 . S
C767 C773 1.491 . S
C768 H759 0.950 . S
C768 C767 1.398 . S
C768 C769 1.391 . S
C769 H757 0.950 . S
C769 C765 1.393 . S
C769 C768 1.391 . S
C770 H760 0.950 . S
C770 C771 1.386 . S
C770 C772 1.391 . S
C771 C770 1.386 . S
C771 C775 1.393 . S
C772 H761 0.950 . S
C772 C770 1.391 . S
C772 C773 1.400 . S
C773 C767 1.491 . S
C773 C772 1.400 . S
C773 C774 1.398 . S
C774 H762 0.950 . S
C774 C773 1.398 . S
C774 C775 1.391 . S
C775 H763 0.950 1_655 S
C775 C771 1.393 . S
C775 C774 1.391 . S
H776 C784 0.950 . S
H777 C789 0.950 . S
H778 C786 0.950 . S
H779 C788 0.950 . S
H780 C790 0.950 . S
H781 C792 0.950 . S
H782 C794 0.950 . S
H783 C795 0.950 . S
C784 H776 0.950 . S
C784 C785 1.386 . S
C784 C786 1.391 . S
C785 C784 1.386 . S
C785 C789 1.393 . S
C786 H778 0.950 . S
C786 C784 1.391 . S
C786 C787 1.400 . S
C787 C786 1.400 . S
C787 C788 1.398 . S
C787 C793 1.491 . S
C788 H779 0.950 . S
C788 C787 1.398 . S
C788 C789 1.391 . S
C789 H777 0.950 . S
C789 C785 1.393 . S
C789 C788 1.391 . S
C790 H780 0.950 . S
C790 C791 1.386 . S
C790 C792 1.391 . S
C791 C790 1.386 . S
C791 C795 1.393 . S
C792 H781 0.950 . S
C792 C790 1.391 . S
C792 C793 1.400 . S
C793 C787 1.491 . S
C793 C792 1.400 . S
C793 C794 1.398 . S
C794 H782 0.950 . S
C794 C793 1.398 . S
C794 C795 1.391 . S
C795 H783 0.950 . S
C795 C791 1.393 . S
C795 C794 1.391 . S
H796 C804 0.950 . S
H797 C809 0.950 . S
H798 C806 0.950 . S
H799 C808 0.950 . S
H800 C810 0.950 . S
H801 C812 0.950 . S
H802 C814 0.950 . S
H803 C815 0.950 . S
C804 H796 0.950 . S
C804 C805 1.386 . S
C804 C806 1.391 . S
C805 C804 1.386 . S
C805 C809 1.393 . S
C806 H798 0.950 . S
C806 C804 1.391 . S
C806 C807 1.400 . S
C807 C806 1.400 . S
C807 C808 1.398 . S
C807 C813 1.491 . S
C808 H799 0.950 . S
C808 C807 1.398 . S
C808 C809 1.391 . S
C809 H797 0.950 . S
C809 C805 1.393 . S
C809 C808 1.391 . S
C810 H800 0.950 . S
C810 C811 1.386 . S
C810 C812 1.391 . S
C811 C810 1.386 . S
C811 C815 1.393 . S
C812 H801 0.950 . S
C812 C810 1.391 . S
C812 C813 1.400 . S
C813 C807 1.491 . S
C813 C812 1.400 . S
C813 C814 1.398 . S
C814 H802 0.950 . S
C814 C813 1.398 . S
C814 C815 1.391 . S
C815 H803 0.950 . S
C815 C811 1.393 . S
C815 C814 1.391 . S
H816 C824 0.950 . S
H817 C829 0.950 . S
H818 C826 0.950 . S
H819 C828 0.950 . S
H820 C830 0.950 . S
H821 C832 0.950 . S
H822 C834 0.950 . S
H823 C835 0.950 . S
C824 H816 0.950 . S
C824 C825 1.386 . S
C824 C826 1.391 . S
C825 C824 1.386 . S
C825 C829 1.393 . S
C826 H818 0.950 . S
C826 C824 1.391 . S
C826 C827 1.400 . S
C827 C826 1.400 . S
C827 C828 1.398 . S
C827 C833 1.491 . S
C828 H819 0.950 . S
C828 C827 1.398 . S
C828 C829 1.391 . S
C829 H817 0.950 . S
C829 C825 1.393 . S
C829 C828 1.391 . S
C830 H820 0.950 . S
C830 C831 1.386 . S
C830 C832 1.391 . S
C831 C830 1.386 . S
C831 C835 1.393 . S
C832 H821 0.950 . S
C832 C830 1.391 . S
C832 C833 1.400 . S
C833 C827 1.491 . S
C833 C832 1.400 . S
C833 C834 1.398 . S
C834 H822 0.950 . S
C834 C833 1.398 . S
C834 C835 1.391 . S
C835 H823 0.950 . S
C835 C831 1.393 . S
C835 C834 1.391 . S
H836 C844 0.950 . S
H837 C849 0.950 . S
H838 C846 0.950 . S
H839 C848 0.950 . S
H840 C850 0.950 . S
H841 C852 0.950 . S
H842 C854 0.950 . S
H843 C855 0.950 . S
C844 H836 0.950 . S
C844 C845 1.386 . S
C844 C846 1.391 . S
C845 C844 1.386 . S
C845 C849 1.393 . S
C846 H838 0.950 . S
C846 C844 1.391 . S
C846 C847 1.400 . S
C847 C846 1.400 . S
C847 C848 1.398 . S
C847 C853 1.491 . S
C848 H839 0.950 . S
C848 C847 1.398 . S
C848 C849 1.391 . S
C849 H837 0.950 . S
C849 C845 1.393 . S
C849 C848 1.391 . S
C850 H840 0.950 . S
C850 C851 1.386 . S
C850 C852 1.391 . S
C851 C850 1.386 . S
C851 C855 1.393 . S
C852 H841 0.950 . S
C852 C850 1.391 . S
C852 C853 1.400 . S
C853 C847 1.491 . S
C853 C852 1.400 . S
C853 C854 1.398 . S
C854 H842 0.950 . S
C854 C853 1.398 . S
C854 C855 1.391 . S
C855 H843 0.950 . S
C855 C851 1.393 . S
C855 C854 1.391 . S
H856 C864 0.950 . S
H857 C869 0.950 . S
H858 C866 0.950 . S
H859 C868 0.950 . S
H860 C870 0.950 . S
H861 C872 0.950 . S
H862 C874 0.950 . S
H863 C875 0.950 . S
C864 H856 0.950 . S
C864 C865 1.386 . S
C864 C866 1.391 . S
C865 C864 1.386 . S
C865 C869 1.393 . S
C866 H858 0.950 . S
C866 C864 1.391 . S
C866 C867 1.400 . S
C867 C866 1.400 . S
C867 C868 1.398 . S
C867 C873 1.491 . S
C868 H859 0.950 . S
C868 C867 1.398 . S
C868 C869 1.391 . S
C869 H857 0.950 . S
C869 C865 1.393 . S
C869 C868 1.391 . S
C870 H860 0.950 . S
C870 C871 1.386 . S
C870 C872 1.391 . S
C871 C870 1.386 . S
C871 C875 1.393 . S
C872 H861 0.950 . S
C872 C870 1.391 . S
C872 C873 1.400 . S
C873 C867 1.491 . S
C873 C872 1.400 . S
C873 C874 1.398 . S
C874 H862 0.950 . S
C874 C873 1.398 . S
C874 C875 1.391 . S
C875 H863 0.950 . S
C875 C871 1.393 . S
C875 C874 1.391 . S
H876 C884 0.950 . S
H877 C889 0.950 . S
H878 C886 0.950 . S
H879 C888 0.950 . S
H880 C890 0.950 . S
H881 C892 0.950 . S
H882 C894 0.950 . S
H883 C895 0.950 . S
C884 H876 0.950 . S
C884 C885 1.386 . S
C884 C886 1.391 . S
C885 C884 1.386 . S
C885 C889 1.393 . S
C886 H878 0.950 . S
C886 C884 1.391 . S
C886 C887 1.400 . S
C887 C886 1.400 . S
C887 C888 1.398 . S
C887 C893 1.491 . S
C888 H879 0.950 . S
C888 C887 1.398 . S
C888 C889 1.391 . S
C889 H877 0.950 . S
C889 C885 1.393 . S
C889 C888 1.391 . S
C890 H880 0.950 . S
C890 C891 1.386 . S
C890 C892 1.391 . S
C891 C890 1.386 . S
C891 C895 1.393 . S
C892 H881 0.950 . S
C892 C890 1.391 . S
C892 C893 1.400 . S
C893 C887 1.491 . S
C893 C892 1.400 . S
C893 C894 1.398 . S
C894 H882 0.950 . S
C894 C893 1.398 . S
C894 C895 1.391 . S
C895 H883 0.950 . S
C895 C891 1.393 . S
C895 C894 1.391 . S
C425 C29 1.300 . S
C431 C271 1.302 . S
C445 C49 1.094 . S
C451 C311 1.202 . S
C471 C345 2.295 . S
C465 C93 2.307 . S
C485 C119 2.588 . S
C491 C386 2.542 . S
C511 C306 1.335 . S
C505 C17 1.341 . S
C531 C266 2.088 . S
C525 C61 1.826 . S
C551 C394 1.590 . S
C545 C81 1.570 . S
C571 C355 1.850 . S
C565 C125 1.917 . S
C585 C23 1.354 . S
C591 C391 1.309 . S
C611 C314 1.976 . S
C605 C87 2.003 . S
C625 C113 2.471 . S
C631 C274 2.390 . S
C645 C55 1.394 . S
C651 C342 1.555 . S
C671 C262 1.285 . S
C665 C157 1.205 . S
C685 C189 1.281 . S
C691 C302 1.259 . S
C705 C221 2.232 . S
C711 C354 2.259 . S
C725 C253 2.645 . S
C731 C395 2.617 . S
C745 C145 1.312 . S
C751 C315 1.443 . S
C771 C275 2.051 . S
C765 C183 2.025 . S
C791 C385 1.609 . S
C785 C209 1.565 . S
C811 C346 1.823 . S
C805 C247 1.874 . S
C825 C151 1.185 . S
C831 C382 1.303 . S
C851 C305 1.948 . S
C845 C215 1.951 . S
C871 C265 2.375 . S
C865 C241 2.428 . S
C885 C177 1.564 . S
C891 C351 1.562 . S
