# Generated by pormake.
# Topology pth, (4,4)-cn, num edge types: 1
# Building blocks:
#     Node 0, Type 0, BuildingBlock: NAHDIM_clean_sbu_0, # of connection points: 4
#     Node 1, Type 0, BuildingBlock: NAHDIM_clean_sbu_0, # of connection points: 4
#     Node 2, Type 0, BuildingBlock: NAHDIM_clean_sbu_0, # of connection points: 4
#     Node 3, Type 1, BuildingBlock: NAWXER_clean_linker_0, # of connection points: 4
#     Node 4, Type 1, BuildingBlock: NAWXER_clean_linker_0, # of connection points: 4
#     Node 5, Type 1, BuildingBlock: NAWXER_clean_linker_0, # of connection points: 4
#     Edge 6, Type (0, 1), BuildingBlock: AJUNOK_clean_linker_0, # of connection points: 2
#     Edge 7, Type (0, 1), BuildingBlock: AJUNOK_clean_linker_0, # of connection points: 2
#     Edge 8, Type (0, 1), BuildingBlock: AJUNOK_clean_linker_0, # of connection points: 2
#     Edge 9, Type (0, 1), BuildingBlock: AJUNOK_clean_linker_0, # of connection points: 2
#     Edge 10, Type (0, 1), BuildingBlock: AJUNOK_clean_linker_0, # of connection points: 2
#     Edge 11, Type (0, 1), BuildingBlock: AJUNOK_clean_linker_0, # of connection points: 2
#     Edge 12, Type (0, 1), BuildingBlock: AJUNOK_clean_linker_0, # of connection points: 2
#     Edge 13, Type (0, 1), BuildingBlock: AJUNOK_clean_linker_0, # of connection points: 2
#     Edge 14, Type (0, 1), BuildingBlock: AJUNOK_clean_linker_0, # of connection points: 2
#     Edge 15, Type (0, 1), BuildingBlock: AJUNOK_clean_linker_0, # of connection points: 2
#     Edge 16, Type (0, 1), BuildingBlock: AJUNOK_clean_linker_0, # of connection points: 2
#     Edge 17, Type (0, 1), BuildingBlock: AJUNOK_clean_linker_0, # of connection points: 2
# Relax obj value: 0.041
# Max RMSD: 0.166
# Mean RMSD: 0.084
data_MOF--net-pth--node1-NAHDIM_clean_sbu_0--node2-NAWXER_clean_linker_0--edge1-AJUNOK_clean_linker_0
_symmetry_space_group_name_H-M    P1
_symmetry_Int_Tables_number       1
_symmetry_cell_setting            triclinic
loop_
_symmetry_equiv_pos_as_xyz
'x, y, z'
_cell_length_a     22.712903
_cell_length_b     22.881279
_cell_length_c     50.413525
_cell_angle_alpha  91.963413
_cell_angle_beta   89.9626
_cell_angle_gamma 120.66029
loop_
_atom_site_label
_atom_site_type_symbol
_atom_site_fract_x
_atom_site_fract_y
_atom_site_fract_z
_atom_type_partial_charge
C0 C 0.04159 0.97833 0.08324 0.0
O1 O 0.04206 0.02941 0.09616 0.0
O2 O -0.00451 0.09384 0.06355 0.0
Zn3 Zn 0.01012 0.03329 0.03801 0.0
O4 O 0.92392 0.97223 0.01686 0.0
C5 C 0.13639 0.1478 0.02067 0.0
O6 O 0.14338 0.16612 0.04599 0.0
O7 O 0.03222 0.97213 0.0582 0.0
C8 C 0.91607 0.98112 0.99267 0.0
O9 O 0.96484 0.03437 0.98107 0.0
C10 C 0.98876 0.14211 0.05548 0.0
O11 O 0.98863 0.15039 0.02983 0.0
O12 O 0.08481 0.09139 0.01299 0.0
C13 C 0.0228 0.15258 0.33502 0.0
O14 O 0.96345 0.09866 0.33996 0.0
O15 O 0.04273 0.0035 0.34487 0.0
Zn16 Zn 0.05867 0.0819 0.36919 0.0
O17 O 0.97856 0.06288 0.3922 0.0
C18 C 0.13228 0.04904 0.40353 0.0
O19 O 0.07728 0.99014 0.39753 0.0
O20 O 0.07642 0.15939 0.34606 0.0
C21 C 0.9348 0.00751 0.40237 0.0
O22 O 0.9381 0.95249 0.39763 0.0
C23 C 0.98802 0.95614 0.3339 0.0
O24 O 0.92962 0.95308 0.33854 0.0
O25 O 0.13855 0.10195 0.39329 0.0
C26 C 0.122 0.02571 0.66867 0.0
O27 O 0.12696 0.08453 0.67433 0.0
O28 O 0.95257 0.01016 0.67696 0.0
Zn29 Zn 0.01098 0.99165 0.70129 0.0
O30 O 0.07247 0.07053 0.72616 0.0
C31 C 0.89727 0.91799 0.73295 0.0
O32 O 0.89329 0.97162 0.72752 0.0
O33 O 0.073 0.97265 0.67848 0.0
C34 C 0.06144 0.11367 0.73812 0.0
O35 O 0.00243 0.11018 0.73456 0.0
C36 C 0.96543 0.06578 0.66716 0.0
O37 O 0.0237 0.12158 0.67317 0.0
O38 O 0.94636 0.91284 0.72337 0.0
C39 C 0.9719 0.32471 0.24338 0.0
C40 C 0.02286 0.34721 0.26339 0.0
C41 C 0.967 0.37135 0.22769 0.0
C42 C 0.01365 0.44135 0.23146 0.0
C43 C 0.06899 0.41728 0.26727 0.0
C44 C 0.0644 0.46379 0.25147 0.0
C45 C 0.00774 0.4923 0.21615 0.0
C46 C 0.04112 0.36526 0.15314 0.0
C47 C 0.98812 0.33465 0.13388 0.0
C48 C 0.04438 0.4143 0.17141 0.0
C49 C 0.99412 0.43268 0.17088 0.0
C50 C 0.93726 0.35223 0.13377 0.0
C51 C 0.94057 0.40116 0.15197 0.0
C52 C -0.00062 0.4885 0.18823 0.0
C53 C 0.06977 0.77217 0.1659 0.0
C54 C 0.0263 0.75942 0.14394 0.0
C55 C 0.06179 0.71873 0.18106 0.0
C56 C 0.00943 0.65164 0.1748 0.0
C57 C 0.97415 0.69228 0.13761 0.0
C58 C 0.96615 0.63881 0.15279 0.0
C59 C 0.00259 0.59439 0.19003 0.0
C60 C 0.95058 0.71618 0.24575 0.0
C61 C -0.00407 0.74714 0.26751 0.0
C62 C 0.95333 0.66664 0.22973 0.0
C63 C 0.00204 0.64775 0.23501 0.0
C64 C 0.04279 0.72629 0.27339 0.0
C65 C 0.04573 0.67696 0.2573 0.0
C66 C 0.0058 0.59574 0.21802 0.0
H67 H 0.93532 0.271 0.24006 0.0
H68 H 0.92591 0.35268 0.21303 0.0
H69 H 0.10752 0.43636 0.283 0.0
H70 H 0.10029 0.5176 0.25505 0.0
H71 H 0.08112 0.35275 0.15354 0.0
H72 H 0.08702 0.43907 0.18544 0.0
H73 H 0.89516 0.32845 0.11948 0.0
H74 H 0.90141 0.41481 0.15117 0.0
H75 H 0.11067 0.8234 0.17108 0.0
H76 H 0.09728 0.72978 0.19742 0.0
H77 H 0.93914 0.68118 0.12106 0.0
H78 H 0.92578 0.58744 0.14747 0.0
H79 H 0.91362 0.73094 0.24092 0.0
H80 H 0.9173 0.64309 0.21323 0.0
H81 H 0.07712 0.74807 0.29047 0.0
H82 H 0.08278 0.66225 0.26208 0.0
N83 N 0.00981 0.54548 0.22995 0.0
N84 N -0.0021 0.54009 0.17629 0.0
C85 C 0.75593 0.06992 0.49073 0.0
C86 C 0.73417 0.01533 0.47211 0.0
C87 C 0.70859 0.07525 0.50678 0.0
C88 C 0.63873 0.02574 0.50463 0.0
C89 C 0.66415 0.96643 0.46972 0.0
C90 C 0.61684 0.97176 0.48578 0.0
C91 C 0.58757 0.03106 0.52103 0.0
C92 C 0.72361 0.00287 0.57788 0.0
C93 C 0.75844 0.05749 0.59644 0.0
C94 C 0.67012 -0.00267 0.56223 0.0
C95 C 0.65091 0.04664 0.56476 0.0
C96 C 0.73862 0.10631 0.59914 0.0
C97 C 0.68516 0.10076 0.58349 0.0
C98 C 0.59333 0.04094 0.54893 0.0
C99 C 0.31182 0.98162 0.57774 0.0
C100 C 0.32864 0.02676 0.59984 0.0
C101 C 0.36308 0.98579 0.56116 0.0
C102 C 0.43199 0.03586 0.56616 0.0
C103 C 0.39761 0.07632 0.60495 0.0
C104 C 0.44879 0.08054 0.58837 0.0
C105 C 0.48724 0.03888 0.54956 0.0
C106 C 0.36709 0.09176 0.49464 0.0
C107 C 0.336 0.04633 0.47273 0.0
C108 C 0.41441 0.08708 0.5108 0.0
C109 C 0.43078 0.03631 0.50552 0.0
C110 C 0.35277 -0.00409 0.4674 0.0
C111 C 0.40004 0.99126 0.48353 0.0
C112 C 0.48353 0.033 0.52154 0.0
H113 H 0.80961 0.10854 0.49283 0.0
H114 H 0.7265 0.11839 0.52066 0.0
H115 H 0.64581 0.92478 0.45509 0.0
H116 H 0.56304 0.93356 0.48354 0.0
H117 H 0.73763 0.96429 0.57556 0.0
H118 H 0.64326 0.95413 0.54841 0.0
H119 H 0.76345 0.14797 0.61375 0.0
H120 H 0.6705 0.13884 0.58602 0.0
H121 H 0.25901 0.94346 0.57315 0.0
H122 H 0.34885 0.94932 0.54463 0.0
H123 H 0.41201 0.11151 0.62194 0.0
H124 H 0.50161 0.11894 0.59285 0.0
H125 H 0.3545 0.1306 0.49937 0.0
H126 H 0.43886 0.12374 0.52719 0.0
H127 H 0.3298 0.96049 0.45054 0.0
H128 H 0.41252 0.95229 0.47885 0.0
N129 N 0.53316 0.02797 0.50843 0.0
N130 N 0.54268 0.04395 0.5621 0.0
C131 C 0.30189 0.3048 0.82961 0.0
C132 C 0.26596 0.32034 0.81116 0.0
C133 C 0.35435 0.35635 0.84547 0.0
C134 C 0.37112 0.42414 0.84334 0.0
C135 C 0.28183 0.38793 0.80948 0.0
C136 C 0.33433 0.43942 0.82529 0.0
C137 C 0.43046 0.48021 0.85798 0.0
C138 C 0.28271 0.35557 0.92204 0.0
C139 C 0.31162 0.33356 0.94108 0.0
C140 C 0.32415 0.40283 0.90349 0.0
C141 C 0.39493 0.42781 0.90345 0.0
C142 C 0.38215 0.35785 0.94072 0.0
C143 C 0.42339 0.40475 0.92218 0.0
C144 C 0.44125 0.4819 0.88567 0.0
C145 C 0.66618 0.77057 0.90731 0.0
C146 C 0.69891 0.76048 0.92879 0.0
C147 C 0.61676 0.71504 0.89195 0.0
C148 C 0.60016 0.64861 0.89756 0.0
C149 C 0.68261 0.69413 0.93424 0.0
C150 C 0.63337 0.63871 0.91888 0.0
C151 C 0.54466 0.58895 0.88273 0.0
C152 C 0.7086 0.6958 0.82349 0.0
C153 C 0.69042 0.72099 0.80192 0.0
C154 C 0.65872 0.65185 0.84077 0.0
C155 C 0.58986 0.6332 0.8371 0.0
C156 C 0.6214 0.70156 0.79804 0.0
C157 C 0.57153 0.65769 0.81536 0.0
C158 C 0.5364 0.58497 0.85486 0.0
H159 H 0.2901 0.25291 0.83145 0.0
H160 H 0.38298 0.34347 0.85883 0.0
H161 H 0.25513 0.40122 0.79532 0.0
H162 H 0.34689 0.4915 0.82317 0.0
H163 H 0.22843 0.33777 0.92204 0.0
H164 H 0.30117 0.42114 0.88973 0.0
H165 H 0.40548 0.34083 0.9549 0.0
H166 H 0.47787 0.42346 0.92259 0.0
H167 H 0.67771 0.82126 0.9028 0.0
H168 H 0.59047 0.72396 0.87611 0.0
H169 H 0.70812 0.68511 0.95037 0.0
H170 H 0.62118 0.58796 0.92366 0.0
H171 H 0.76149 0.71063 0.82718 0.0
H172 H 0.67403 0.63203 0.85689 0.0
H173 H 0.60598 0.72001 0.78147 0.0
H174 H 0.51865 0.64326 0.8119 0.0
N175 N 0.47888 0.53153 0.84364 0.0
N176 N 0.4975 0.53662 0.89692 0.0
C177 C 0.99246 0.18395 0.10234 0.0
C178 C 0.98598 0.19074 0.07497 0.0
C179 C 0.99307 0.2306 0.12124 0.0
C180 C 0.98672 0.28558 0.11355 0.0
H181 H -0.00223 0.1426 0.10933 0.0
H182 H -0.00183 0.22336 0.14206 0.0
S183 S 0.96964 0.32763 0.04463 0.0
N184 N 0.97346 0.25763 0.04126 0.0
N185 N 0.97511 0.34536 0.07686 0.0
C186 C 0.97995 0.29303 0.08635 0.0
C187 C 0.97948 0.24565 0.06705 0.0
C188 C 0.87844 0.06625 0.42362 0.0
C189 C 0.88198 0.00676 0.41997 0.0
C190 C 0.8307 0.06844 0.44054 0.0
C191 C 0.78428 0.01123 0.45446 0.0
H192 H 0.91291 0.11187 0.41336 0.0
H193 H 0.82971 0.11523 0.44253 0.0
S194 S 0.77262 0.84346 0.45267 0.0
N195 N 0.83484 0.8892 0.43215 0.0
N196 N 0.74529 0.89379 0.46409 0.0
C197 C 0.7869 0.95136 0.45108 0.0
C198 C 0.83568 0.94902 0.43383 0.0
C199 C 0.79523 0.87715 0.76171 0.0
C200 C 0.84537 0.86592 0.75022 0.0
C201 C 0.74535 0.82987 0.77821 0.0
C202 C 0.74346 0.76934 0.78398 0.0
H203 H 0.79443 0.92314 0.75811 0.0
H204 H 0.70847 0.84131 0.78682 0.0
S205 S 0.86059 0.71339 0.75817 0.0
N206 N 0.88871 0.78838 0.74535 0.0
N207 N 0.79425 0.69914 0.77627 0.0
C208 C 0.79273 0.75689 0.77253 0.0
C209 C 0.84375 0.80518 0.75566 0.0
C210 C 0.04348 0.9271 0.12606 0.0
C211 C 0.04363 0.92443 0.09809 0.0
C212 C 0.03912 0.87413 0.1407 0.0
C213 C 0.03462 0.81633 0.12798 0.0
H214 H 0.04511 0.96968 0.13683 0.0
H215 H 0.03741 0.87766 0.16214 0.0
S216 S 0.03999 0.7868 0.05546 0.0
N217 N 0.0436 0.86066 0.05836 0.0
N218 N 0.03587 0.76151 0.08604 0.0
C219 C 0.0371 0.81384 0.10014 0.0
C220 C 0.04163 0.86781 0.08517 0.0
C221 C 0.17306 0.99144 0.43323 0.0
C222 C 0.1852 0.05172 0.42164 0.0
C223 C 0.22185 0.99057 0.44983 0.0
C224 C 0.28486 0.04993 0.45567 0.0
H225 H 0.12544 0.94403 0.4294 0.0
H226 H 0.21 0.9429 0.45825 0.0
S227 S 0.34311 0.22108 0.43043 0.0
N228 N 0.26558 0.17267 0.41729 0.0
N229 N 0.35762 0.17069 0.4485 0.0
C230 C 0.29782 0.11081 0.44451 0.0
C231 C 0.24799 0.11177 0.42748 0.0
C232 C 0.09985 0.20926 0.7722 0.0
C233 C 0.11457 0.1664 0.75645 0.0
C234 C 0.14887 0.25871 0.78995 0.0
C235 C 0.21428 0.26688 0.79274 0.0
H236 H 0.04998 0.20451 0.77094 0.0
H237 H 0.13534 0.29046 0.80175 0.0
S238 S 0.28074 0.17125 0.75513 0.0
N239 N 0.20106 0.13781 0.74422 0.0
N240 N 0.29265 0.23079 0.77752 0.0
C241 C 0.23008 0.22511 0.77699 0.0
C242 C 0.18042 0.17494 0.75886 0.0
C243 C 0.84988 0.00648 0.64504 0.0
C244 C 0.91427 0.06615 0.64895 0.0
C245 C 0.8003 0.00416 0.62788 0.0
C246 C 0.81285 0.0614 0.61395 0.0
H247 H 0.83722 0.96091 0.65539 0.0
H248 H 0.75129 0.95734 0.6258 0.0
S249 S 0.9735 0.22923 0.616 0.0
N250 N 0.98825 0.18362 0.63675 0.0
N251 N 0.89473 0.17881 0.60435 0.0
C252 C 0.87692 0.1213 0.61744 0.0
C253 C 0.92768 0.12377 0.63495 0.0
C254 C 0.85741 0.92833 0.949 0.0
C255 C 0.85655 0.92782 0.97693 0.0
C256 C 0.80529 0.87488 0.93354 0.0
C257 C 0.75043 0.81899 0.94544 0.0
H258 H 0.89973 0.96922 0.9389 0.0
H259 H 0.80913 0.87625 0.91212 0.0
S260 S 0.71892 0.79699 0.01759 0.0
N261 N 0.7925 0.86921 0.01577 0.0
N262 N 0.69452 0.76918 0.98661 0.0
C263 C 0.74715 0.81923 0.97327 0.0
C264 C 0.80015 0.87356 0.98904 0.0
C265 C 0.93052 0.84252 0.3096 0.0
C266 C 0.99077 0.90428 0.31635 0.0
C267 C 0.93245 0.79201 0.29369 0.0
C268 C -0.00533 0.80147 0.28395 0.0
H269 H 0.88156 0.83257 0.31695 0.0
H270 H 0.88502 0.74477 0.28934 0.0
S271 S 0.16599 0.95621 0.29366 0.0
N272 N 0.1141 0.97337 0.31063 0.0
N273 N 0.11716 0.87873 0.28058 0.0
C274 C 0.05499 0.86349 0.28999 0.0
C275 C 0.05318 0.9148 0.3062 0.0
C276 C 0.22436 0.08342 0.64007 0.0
C277 C 0.17308 0.02298 0.65108 0.0
C278 C 0.27403 0.08386 0.62355 0.0
C279 C 0.27459 0.0239 0.61724 0.0
H280 H 0.22643 0.13121 0.64418 0.0
H281 H 0.31207 0.13161 0.61545 0.0
S282 S 0.15347 0.8523 0.64129 0.0
N283 N 0.12674 0.90139 0.65466 0.0
N284 N 0.22082 0.90256 0.62365 0.0
C285 C 0.22388 0.96299 0.62802 0.0
C286 C 0.17306 0.96246 0.64495 0.0
C287 C 0.16748 0.17992 0.97353 0.0
C288 C 0.18379 0.19479 0.00085 0.0
C289 C 0.2089 0.22507 0.95434 0.0
C290 C 0.26861 0.28646 0.96168 0.0
H291 H 0.12174 0.13345 0.96684 0.0
H292 H 0.19429 0.21166 0.93358 0.0
S293 S 0.33456 0.35026 0.03026 0.0
N294 N 0.26439 0.27598 0.03409 0.0
N295 N 0.34194 0.3606 0.99793 0.0
C296 C 0.28598 0.30192 0.98881 0.0
C297 C 0.24366 0.25619 0.00839 0.0
C298 C 0.96451 0.20164 0.30997 0.0
C299 C 0.02558 0.20359 0.31687 0.0
C300 C 0.96426 0.24788 0.29258 0.0
C301 C 0.02501 0.29794 0.28124 0.0
H302 H 0.91621 0.16434 0.31822 0.0
H303 H 0.91606 0.24495 0.2883 0.0
S304 S 0.19826 0.32279 0.29152 0.0
N305 N 0.14841 0.25883 0.31034 0.0
N306 N 0.14768 0.3452 0.27724 0.0
C307 C 0.08648 0.30026 0.28771 0.0
C308 C 0.08683 0.25326 0.3056 0.0
loop_
_geom_bond_atom_site_label_1
_geom_bond_atom_site_label_2
_geom_bond_distance
_geom_bond_site_symmetry_2
_ccdc_geom_bond_type
C0 O1 1.160 . S
C0 O7 1.185 . S
O1 C0 1.160 . S
O2 Zn3 1.899 . S
O2 C10 1.284 1_455 S
Zn3 O2 1.899 . S
Zn3 O4 2.032 1_445 S
Zn3 O7 2.086 1_545 S
Zn3 O12 1.977 . S
O4 Zn3 2.032 1_665 S
O4 C8 1.278 . S
C5 O6 1.203 . S
C5 O12 1.267 . S
O6 C5 1.203 . S
O7 C0 1.185 . S
O7 Zn3 2.086 1_565 S
C8 O4 1.278 . S
C8 O9 1.211 1_564 S
O9 C8 1.211 1_546 S
C10 O2 1.284 1_655 S
C10 O11 1.273 . S
O11 C10 1.273 . S
O12 Zn3 1.977 . S
O12 C5 1.267 . S
C13 O14 1.160 . S
C13 O20 1.185 . S
O14 C13 1.160 . S
O15 Zn16 1.899 . S
O15 C23 1.284 1_545 S
Zn16 O15 1.899 . S
Zn16 O17 2.032 1_455 S
Zn16 O20 2.086 . S
Zn16 O25 1.977 . S
O17 Zn16 2.032 1_655 S
O17 C21 1.278 . S
C18 O19 1.203 . S
C18 O25 1.267 . S
O19 C18 1.203 . S
O20 C13 1.185 . S
O20 Zn16 2.086 . S
C21 O17 1.278 . S
C21 O22 1.211 . S
O22 C21 1.211 . S
C23 O15 1.284 1_565 S
C23 O24 1.273 1_455 S
O24 C23 1.273 1_655 S
O25 Zn16 1.977 . S
O25 C18 1.267 . S
C26 O27 1.160 . S
C26 O33 1.185 1_545 S
O27 C26 1.160 . S
O28 Zn29 1.899 1_655 S
O28 C36 1.284 . S
Zn29 O28 1.899 1_455 S
Zn29 O30 2.032 . S
Zn29 O33 2.086 1_545 S
Zn29 O38 1.977 1_445 S
O30 Zn29 2.032 . S
O30 C34 1.278 . S
C31 O32 1.203 . S
C31 O38 1.267 . S
O32 C31 1.203 . S
O33 C26 1.185 1_565 S
O33 Zn29 2.086 1_565 S
C34 O30 1.278 . S
C34 O35 1.211 . S
O35 C34 1.211 . S
C36 O28 1.284 . S
C36 O37 1.273 . S
O37 C36 1.273 . S
O38 Zn29 1.977 1_665 S
O38 C31 1.267 . S
C39 C40 1.384 1_655 S
C39 C41 1.384 . S
C39 H67 0.931 . S
C40 C39 1.384 1_455 S
C40 C43 1.382 . S
C41 C39 1.384 . S
C41 C42 1.381 1_655 S
C41 H68 0.930 . S
C42 C41 1.381 1_455 S
C42 C44 1.381 . S
C42 C45 1.487 . S
C43 C40 1.382 . S
C43 C44 1.387 . S
C43 H69 0.930 . S
C44 C42 1.381 . S
C44 C43 1.387 . S
C44 H70 0.931 . S
C45 C42 1.487 . S
C45 C52 1.399 . S
C45 N83 1.343 . S
C46 C47 1.384 . S
C46 C48 1.384 . S
C46 H71 0.931 . S
C47 C46 1.384 . S
C47 C50 1.382 1_455 S
C48 C46 1.384 . S
C48 C49 1.381 . S
C48 H72 0.930 . S
C49 C48 1.381 . S
C49 C51 1.381 1_455 S
C49 C52 1.487 . S
C50 C47 1.382 1_655 S
C50 C51 1.387 . S
C50 H73 0.930 . S
C51 C49 1.381 1_655 S
C51 C50 1.387 . S
C51 H74 0.931 . S
C52 C45 1.399 . S
C52 C49 1.487 . S
C52 N84 1.343 . S
C53 C54 1.384 . S
C53 C55 1.384 . S
C53 H75 0.931 . S
C54 C53 1.384 . S
C54 C57 1.382 1_455 S
C55 C53 1.384 . S
C55 C56 1.381 . S
C55 H76 0.930 . S
C56 C55 1.381 . S
C56 C58 1.381 1_455 S
C56 C59 1.487 . S
C57 C54 1.382 1_655 S
C57 C58 1.387 . S
C57 H77 0.930 . S
C58 C56 1.381 1_655 S
C58 C57 1.387 . S
C58 H78 0.931 . S
C59 C56 1.487 . S
C59 C66 1.399 . S
C59 N84 1.343 . S
C60 C61 1.384 1_655 S
C60 C62 1.384 . S
C60 H79 0.931 . S
C61 C60 1.384 1_455 S
C61 C64 1.382 . S
C62 C60 1.384 . S
C62 C63 1.381 1_655 S
C62 H80 0.930 . S
C63 C62 1.381 1_455 S
C63 C65 1.381 . S
C63 C66 1.487 . S
C64 C61 1.382 . S
C64 C65 1.387 . S
C64 H81 0.930 . S
C65 C63 1.381 . S
C65 C64 1.387 . S
C65 H82 0.931 . S
C66 C59 1.399 . S
C66 C63 1.487 . S
C66 N83 1.343 . S
H67 C39 0.931 . S
H68 C41 0.930 . S
H69 C43 0.930 . S
H70 C44 0.931 . S
H71 C46 0.931 . S
H72 C48 0.930 . S
H73 C50 0.930 . S
H74 C51 0.931 . S
H75 C53 0.931 . S
H76 C55 0.930 . S
H77 C57 0.930 . S
H78 C58 0.931 . S
H79 C60 0.931 . S
H80 C62 0.930 . S
H81 C64 0.930 . S
H82 C65 0.931 . S
N83 C45 1.343 . S
N83 C66 1.343 . S
N84 C52 1.343 . S
N84 C59 1.343 . S
C85 C86 1.384 . S
C85 C87 1.384 . S
C85 H113 0.931 . S
C86 C85 1.384 . S
C86 C89 1.382 1_545 S
C87 C85 1.384 . S
C87 C88 1.381 . S
C87 H114 0.930 . S
C88 C87 1.381 . S
C88 C90 1.381 1_545 S
C88 C91 1.487 . S
C89 C86 1.382 1_565 S
C89 C90 1.387 . S
C89 H115 0.930 . S
C90 C88 1.381 1_565 S
C90 C89 1.387 . S
C90 H116 0.931 . S
C91 C88 1.487 . S
C91 C98 1.399 . S
C91 N129 1.343 . S
C92 C93 1.384 1_565 S
C92 C94 1.384 . S
C92 H117 0.931 . S
C93 C92 1.384 1_545 S
C93 C96 1.382 . S
C94 C92 1.384 . S
C94 C95 1.381 1_565 S
C94 H118 0.930 . S
C95 C94 1.381 1_545 S
C95 C97 1.381 . S
C95 C98 1.487 . S
C96 C93 1.382 . S
C96 C97 1.387 . S
C96 H119 0.930 . S
C97 C95 1.381 . S
C97 C96 1.387 . S
C97 H120 0.931 . S
C98 C91 1.399 . S
C98 C95 1.487 . S
C98 N130 1.343 . S
C99 C100 1.384 1_565 S
C99 C101 1.384 . S
C99 H121 0.931 . S
C100 C99 1.384 1_545 S
C100 C103 1.382 . S
C101 C99 1.384 . S
C101 C102 1.381 1_565 S
C101 H122 0.930 . S
C102 C101 1.381 1_545 S
C102 C104 1.381 . S
C102 C105 1.487 . S
C103 C100 1.382 . S
C103 C104 1.387 . S
C103 H123 0.930 . S
C104 C102 1.381 . S
C104 C103 1.387 . S
C104 H124 0.931 . S
C105 C102 1.487 . S
C105 C112 1.399 . S
C105 N130 1.343 . S
C106 C107 1.384 . S
C106 C108 1.384 . S
C106 H125 0.931 . S
C107 C106 1.384 . S
C107 C110 1.382 1_545 S
C108 C106 1.384 . S
C108 C109 1.381 . S
C108 H126 0.930 . S
C109 C108 1.381 . S
C109 C111 1.381 1_545 S
C109 C112 1.487 . S
C110 C107 1.382 1_565 S
C110 C111 1.387 . S
C110 H127 0.930 . S
C111 C109 1.381 1_565 S
C111 C110 1.387 . S
C111 H128 0.931 . S
C112 C105 1.399 . S
C112 C109 1.487 . S
C112 N129 1.343 . S
H113 C85 0.931 . S
H114 C87 0.930 . S
H115 C89 0.930 . S
H116 C90 0.931 . S
H117 C92 0.931 . S
H118 C94 0.930 . S
H119 C96 0.930 . S
H120 C97 0.931 . S
H121 C99 0.931 . S
H122 C101 0.930 . S
H123 C103 0.930 . S
H124 C104 0.931 . S
H125 C106 0.931 . S
H126 C108 0.930 . S
H127 C110 0.930 . S
H128 C111 0.931 . S
N129 C91 1.343 . S
N129 C112 1.343 . S
N130 C98 1.343 . S
N130 C105 1.343 . S
C131 C132 1.384 . S
C131 C133 1.384 . S
C131 H159 0.931 . S
C132 C131 1.384 . S
C132 C135 1.382 . S
C133 C131 1.384 . S
C133 C134 1.381 . S
C133 H160 0.930 . S
C134 C133 1.381 . S
C134 C136 1.381 . S
C134 C137 1.487 . S
C135 C132 1.382 . S
C135 C136 1.387 . S
C135 H161 0.930 . S
C136 C134 1.381 . S
C136 C135 1.387 . S
C136 H162 0.931 . S
C137 C134 1.487 . S
C137 C144 1.399 . S
C137 N175 1.343 . S
C138 C139 1.384 . S
C138 C140 1.384 . S
C138 H163 0.931 . S
C139 C138 1.384 . S
C139 C142 1.382 . S
C140 C138 1.384 . S
C140 C141 1.381 . S
C140 H164 0.930 . S
C141 C140 1.381 . S
C141 C143 1.381 . S
C141 C144 1.487 . S
C142 C139 1.382 . S
C142 C143 1.387 . S
C142 H165 0.930 . S
C143 C141 1.381 . S
C143 C142 1.387 . S
C143 H166 0.931 . S
C144 C137 1.399 . S
C144 C141 1.487 . S
C144 N176 1.343 . S
C145 C146 1.384 . S
C145 C147 1.384 . S
C145 H167 0.931 . S
C146 C145 1.384 . S
C146 C149 1.382 . S
C147 C145 1.384 . S
C147 C148 1.381 . S
C147 H168 0.930 . S
C148 C147 1.381 . S
C148 C150 1.381 . S
C148 C151 1.487 . S
C149 C146 1.382 . S
C149 C150 1.387 . S
C149 H169 0.930 . S
C150 C148 1.381 . S
C150 C149 1.387 . S
C150 H170 0.931 . S
C151 C148 1.487 . S
C151 C158 1.399 . S
C151 N176 1.343 . S
C152 C153 1.384 . S
C152 C154 1.384 . S
C152 H171 0.931 . S
C153 C152 1.384 . S
C153 C156 1.382 . S
C154 C152 1.384 . S
C154 C155 1.381 . S
C154 H172 0.930 . S
C155 C154 1.381 . S
C155 C157 1.381 . S
C155 C158 1.487 . S
C156 C153 1.382 . S
C156 C157 1.387 . S
C156 H173 0.930 . S
C157 C155 1.381 . S
C157 C156 1.387 . S
C157 H174 0.931 . S
C158 C151 1.399 . S
C158 C155 1.487 . S
C158 N175 1.343 . S
H159 C131 0.931 . S
H160 C133 0.930 . S
H161 C135 0.930 . S
H162 C136 0.931 . S
H163 C138 0.931 . S
H164 C140 0.930 . S
H165 C142 0.930 . S
H166 C143 0.931 . S
H167 C145 0.931 . S
H168 C147 0.930 . S
H169 C149 0.930 . S
H170 C150 0.931 . S
H171 C152 0.931 . S
H172 C154 0.930 . S
H173 C156 0.930 . S
H174 C157 0.931 . S
N175 C137 1.343 . S
N175 C158 1.343 . S
N176 C144 1.343 . S
N176 C151 1.343 . S
C177 C178 1.369 1_455 S
C177 C179 1.419 . S
C177 H181 0.930 . S
C178 C177 1.369 1_655 S
C178 C187 1.429 . S
C179 C177 1.419 . S
C179 C180 1.363 . S
C179 H182 0.929 . S
C180 C179 1.363 . S
C180 C186 1.428 1_455 S
H181 C177 0.930 . S
H182 C179 0.929 . S
S183 N184 1.613 . S
S183 N185 1.610 . S
N184 S183 1.613 . S
N184 C187 1.350 . S
N185 S183 1.610 . S
N185 C186 1.351 . S
C186 C180 1.428 1_655 S
C186 N185 1.351 . S
C186 C187 1.434 . S
C187 C178 1.429 . S
C187 N184 1.350 . S
C187 C186 1.434 . S
C188 C189 1.369 . S
C188 C190 1.419 . S
C188 H192 0.930 . S
C189 C188 1.369 . S
C189 C198 1.429 1_545 S
C190 C188 1.419 . S
C190 C191 1.363 . S
C190 H193 0.929 . S
C191 C190 1.363 . S
C191 C197 1.428 1_545 S
H192 C188 0.930 . S
H193 C190 0.929 . S
S194 N195 1.613 . S
S194 N196 1.610 . S
N195 S194 1.613 . S
N195 C198 1.350 . S
N196 S194 1.610 . S
N196 C197 1.351 . S
C197 C191 1.428 1_565 S
C197 N196 1.351 . S
C197 C198 1.434 . S
C198 C189 1.429 1_565 S
C198 N195 1.350 . S
C198 C197 1.434 . S
C199 C200 1.369 . S
C199 C201 1.419 . S
C199 H203 0.930 . S
C200 C199 1.369 . S
C200 C209 1.429 . S
C201 C199 1.419 . S
C201 C202 1.363 . S
C201 H204 0.929 . S
C202 C201 1.363 . S
C202 C208 1.428 . S
H203 C199 0.930 . S
H204 C201 0.929 . S
S205 N206 1.613 . S
S205 N207 1.610 . S
N206 S205 1.613 . S
N206 C209 1.350 . S
N207 S205 1.610 . S
N207 C208 1.351 . S
C208 C202 1.428 . S
C208 N207 1.351 . S
C208 C209 1.434 . S
C209 C200 1.429 . S
C209 N206 1.350 . S
C209 C208 1.434 . S
C210 C211 1.369 . S
C210 C212 1.419 . S
C210 H214 0.930 . S
C211 C210 1.369 . S
C211 C220 1.429 1_455 S
C212 C210 1.419 . S
C212 C213 1.363 . S
C212 H215 0.929 . S
C213 C212 1.363 . S
C213 C219 1.428 1_455 S
H214 C210 0.930 . S
H215 C212 0.929 . S
S216 N217 1.613 . S
S216 N218 1.610 . S
N217 S216 1.613 . S
N217 C220 1.350 . S
N218 S216 1.610 . S
N218 C219 1.351 . S
C219 C213 1.428 1_655 S
C219 N218 1.351 . S
C219 C220 1.434 . S
C220 C211 1.429 1_655 S
C220 N217 1.350 . S
C220 C219 1.434 . S
C221 C222 1.369 . S
C221 C223 1.419 . S
C221 H225 0.930 . S
C222 C221 1.369 . S
C222 C231 1.429 . S
C223 C221 1.419 . S
C223 C224 1.363 . S
C223 H226 0.929 1_545 S
C224 C223 1.363 . S
C224 C230 1.428 . S
H225 C221 0.930 . S
H226 C223 0.929 1_565 S
S227 N228 1.613 . S
S227 N229 1.610 . S
N228 S227 1.613 . S
N228 C231 1.350 . S
N229 S227 1.610 . S
N229 C230 1.351 . S
C230 C224 1.428 . S
C230 N229 1.351 . S
C230 C231 1.434 . S
C231 C222 1.429 . S
C231 N228 1.350 . S
C231 C230 1.434 . S
C232 C233 1.369 . S
C232 C234 1.419 . S
C232 H236 0.930 . S
C233 C232 1.369 . S
C233 C242 1.429 . S
C234 C232 1.419 . S
C234 C235 1.363 . S
C234 H237 0.929 . S
C235 C234 1.363 . S
C235 C241 1.428 . S
H236 C232 0.930 . S
H237 C234 0.929 . S
S238 N239 1.613 . S
S238 N240 1.610 . S
N239 S238 1.613 . S
N239 C242 1.350 . S
N240 S238 1.610 . S
N240 C241 1.351 . S
C241 C235 1.428 . S
C241 N240 1.351 . S
C241 C242 1.434 . S
C242 C233 1.429 . S
C242 N239 1.350 . S
C242 C241 1.434 . S
C243 C244 1.369 . S
C243 C245 1.414 . S
C243 H247 0.930 1_545 S
C244 C243 1.369 . S
C244 C253 1.429 . S
C245 C243 1.414 . S
C245 C246 1.369 . S
C245 H248 0.927 1_545 S
C246 C245 1.369 . S
C246 C252 1.428 . S
H247 C243 0.930 1_565 S
H248 C245 0.927 1_565 S
S249 N250 1.613 . S
S249 N251 1.610 . S
N250 S249 1.613 . S
N250 C253 1.350 . S
N251 S249 1.610 . S
N251 C252 1.351 . S
C252 C246 1.428 . S
C252 N251 1.351 . S
C252 C253 1.434 . S
C253 C244 1.429 . S
C253 N250 1.350 . S
C253 C252 1.434 . S
C254 C255 1.369 . S
C254 C256 1.419 . S
C254 H258 0.930 . S
C255 C254 1.369 . S
C255 C264 1.416 1_556 S
C256 C254 1.419 . S
C256 C257 1.363 . S
C256 H259 0.929 . S
C257 C256 1.363 . S
C257 C263 1.428 . S
H258 C254 0.930 . S
H259 C256 0.929 . S
S260 N261 1.613 . S
S260 N262 1.610 1_554 S
N261 S260 1.613 . S
N261 C264 1.387 . S
N262 S260 1.610 1_556 S
N262 C263 1.351 . S
C263 C257 1.428 . S
C263 N262 1.351 . S
C263 C264 1.410 1_556 S
C264 C255 1.416 1_554 S
C264 N261 1.387 . S
C264 C263 1.410 1_554 S
C265 C266 1.369 1_655 S
C265 C267 1.419 . S
C265 H269 0.930 . S
C266 C265 1.369 1_455 S
C266 C275 1.429 . S
C267 C265 1.419 . S
C267 C268 1.363 1_655 S
C267 H270 0.929 . S
C268 C267 1.363 1_455 S
C268 C274 1.428 . S
H269 C265 0.930 . S
H270 C267 0.929 . S
S271 N272 1.613 . S
S271 N273 1.610 . S
N272 S271 1.613 . S
N272 C275 1.350 . S
N273 S271 1.610 . S
N273 C274 1.351 . S
C274 C268 1.428 . S
C274 N273 1.351 . S
C274 C275 1.434 . S
C275 C266 1.429 . S
C275 N272 1.350 . S
C275 C274 1.434 . S
C276 C277 1.369 . S
C276 C278 1.419 . S
C276 H280 0.930 . S
C277 C276 1.369 . S
C277 C286 1.429 1_545 S
C278 C276 1.419 . S
C278 C279 1.363 . S
C278 H281 0.929 . S
C279 C278 1.363 . S
C279 C285 1.428 1_545 S
H280 C276 0.930 . S
H281 C278 0.929 . S
S282 N283 1.613 . S
S282 N284 1.610 . S
N283 S282 1.613 . S
N283 C286 1.350 . S
N284 S282 1.610 . S
N284 C285 1.351 . S
C285 C279 1.428 1_565 S
C285 N284 1.351 . S
C285 C286 1.434 . S
C286 C277 1.429 1_565 S
C286 N283 1.350 . S
C286 C285 1.434 . S
C287 C288 1.369 . S
C287 C289 1.419 . S
C287 H291 0.930 . S
C288 C287 1.369 . S
C288 C297 1.429 . S
C289 C287 1.419 . S
C289 C290 1.363 . S
C289 H292 0.929 . S
C290 C289 1.363 . S
C290 C296 1.428 . S
H291 C287 0.930 . S
H292 C289 0.929 . S
S293 N294 1.613 . S
S293 N295 1.610 1_554 S
N294 S293 1.613 . S
N294 C297 1.350 1_554 S
N295 S293 1.610 1_556 S
N295 C296 1.351 . S
C296 C290 1.428 . S
C296 N295 1.351 . S
C296 C297 1.434 . S
C297 C288 1.429 . S
C297 N294 1.350 1_556 S
C297 C296 1.434 . S
C298 C299 1.369 1_655 S
C298 C300 1.419 . S
C298 H302 0.930 . S
C299 C298 1.369 1_455 S
C299 C308 1.429 . S
C300 C298 1.419 . S
C300 C301 1.363 1_655 S
C300 H303 0.929 . S
C301 C300 1.363 1_455 S
C301 C307 1.428 . S
H302 C298 0.930 . S
H303 C300 0.929 . S
S304 N305 1.613 . S
S304 N306 1.610 . S
N305 S304 1.613 . S
N305 C308 1.350 . S
N306 S304 1.610 . S
N306 C307 1.351 . S
C307 C301 1.428 . S
C307 N306 1.351 . S
C307 C308 1.434 . S
C308 C299 1.429 . S
C308 N305 1.350 . S
C308 C307 1.434 . S
C180 C47 1.431 . S
C178 C10 1.431 . S
C189 C21 1.452 . S
C191 C86 1.482 . S
C200 C31 1.397 . S
C202 C153 1.491 . S
C211 C0 1.404 . S
C213 C54 1.464 . S
C224 C107 1.479 . S
C222 C18 1.393 . S
C233 C34 1.413 . S
C235 C132 1.445 . S
C246 C93 1.425 . S
C244 C36 1.434 . S
C255 C8 1.418 1_556 S
C257 C146 1.446 . S
C268 C61 1.435 . S
C266 C23 1.435 . S
C279 C100 1.406 . S
C277 C26 1.359 . S
C290 C139 1.484 . S
C288 C5 1.396 1_556 S
C299 C13 1.414 . S
C301 C40 1.460 . S
