# Generated by pormake.
# Topology ptr, (4,4)-cn, num edge types: 1
# Building blocks:
#     Node 0, Type 0, BuildingBlock: QUQFOY_clean_sbu_3, # of connection points: 4
#     Node 1, Type 0, BuildingBlock: QUQFOY_clean_sbu_3, # of connection points: 4
#     Node 2, Type 0, BuildingBlock: QUQFOY_clean_sbu_3, # of connection points: 4
#     Node 3, Type 0, BuildingBlock: QUQFOY_clean_sbu_3, # of connection points: 4
#     Node 4, Type 0, BuildingBlock: QUQFOY_clean_sbu_3, # of connection points: 4
#     Node 5, Type 0, BuildingBlock: QUQFOY_clean_sbu_3, # of connection points: 4
#     Node 6, Type 0, BuildingBlock: QUQFOY_clean_sbu_3, # of connection points: 4
#     Node 7, Type 0, BuildingBlock: QUQFOY_clean_sbu_3, # of connection points: 4
#     Node 8, Type 0, BuildingBlock: QUQFOY_clean_sbu_3, # of connection points: 4
#     Node 9, Type 0, BuildingBlock: QUQFOY_clean_sbu_3, # of connection points: 4
#     Node 10, Type 0, BuildingBlock: QUQFOY_clean_sbu_3, # of connection points: 4
#     Node 11, Type 0, BuildingBlock: QUQFOY_clean_sbu_3, # of connection points: 4
#     Node 12, Type 0, BuildingBlock: QUQFOY_clean_sbu_3, # of connection points: 4
#     Node 13, Type 0, BuildingBlock: QUQFOY_clean_sbu_3, # of connection points: 4
#     Node 14, Type 0, BuildingBlock: QUQFOY_clean_sbu_3, # of connection points: 4
#     Node 15, Type 0, BuildingBlock: QUQFOY_clean_sbu_3, # of connection points: 4
#     Node 16, Type 0, BuildingBlock: QUQFOY_clean_sbu_3, # of connection points: 4
#     Node 17, Type 0, BuildingBlock: QUQFOY_clean_sbu_3, # of connection points: 4
#     Node 18, Type 1, BuildingBlock: GIZVER_clean_linker_0, # of connection points: 4
#     Node 19, Type 1, BuildingBlock: GIZVER_clean_linker_0, # of connection points: 4
#     Node 20, Type 1, BuildingBlock: GIZVER_clean_linker_0, # of connection points: 4
#     Node 21, Type 1, BuildingBlock: GIZVER_clean_linker_0, # of connection points: 4
#     Node 22, Type 1, BuildingBlock: GIZVER_clean_linker_0, # of connection points: 4
#     Node 23, Type 1, BuildingBlock: GIZVER_clean_linker_0, # of connection points: 4
#     Node 24, Type 1, BuildingBlock: GIZVER_clean_linker_0, # of connection points: 4
#     Node 25, Type 1, BuildingBlock: GIZVER_clean_linker_0, # of connection points: 4
#     Node 26, Type 1, BuildingBlock: GIZVER_clean_linker_0, # of connection points: 4
#     Node 27, Type 1, BuildingBlock: GIZVER_clean_linker_0, # of connection points: 4
#     Node 28, Type 1, BuildingBlock: GIZVER_clean_linker_0, # of connection points: 4
#     Node 29, Type 1, BuildingBlock: GIZVER_clean_linker_0, # of connection points: 4
#     Node 30, Type 1, BuildingBlock: GIZVER_clean_linker_0, # of connection points: 4
#     Node 31, Type 1, BuildingBlock: GIZVER_clean_linker_0, # of connection points: 4
#     Node 32, Type 1, BuildingBlock: GIZVER_clean_linker_0, # of connection points: 4
#     Node 33, Type 1, BuildingBlock: GIZVER_clean_linker_0, # of connection points: 4
#     Node 34, Type 1, BuildingBlock: GIZVER_clean_linker_0, # of connection points: 4
#     Node 35, Type 1, BuildingBlock: GIZVER_clean_linker_0, # of connection points: 4
#     Edge 36, Type (0, 1), BuildingBlock: KIFKEQ_clean_linker_1, # of connection points: 2
#     Edge 37, Type (0, 1), BuildingBlock: KIFKEQ_clean_linker_1, # of connection points: 2
#     Edge 38, Type (0, 1), BuildingBlock: KIFKEQ_clean_linker_1, # of connection points: 2
#     Edge 39, Type (0, 1), BuildingBlock: KIFKEQ_clean_linker_1, # of connection points: 2
#     Edge 40, Type (0, 1), BuildingBlock: KIFKEQ_clean_linker_1, # of connection points: 2
#     Edge 41, Type (0, 1), BuildingBlock: KIFKEQ_clean_linker_1, # of connection points: 2
#     Edge 42, Type (0, 1), BuildingBlock: KIFKEQ_clean_linker_1, # of connection points: 2
#     Edge 43, Type (0, 1), BuildingBlock: KIFKEQ_clean_linker_1, # of connection points: 2
#     Edge 44, Type (0, 1), BuildingBlock: KIFKEQ_clean_linker_1, # of connection points: 2
#     Edge 45, Type (0, 1), BuildingBlock: KIFKEQ_clean_linker_1, # of connection points: 2
#     Edge 46, Type (0, 1), BuildingBlock: KIFKEQ_clean_linker_1, # of connection points: 2
#     Edge 47, Type (0, 1), BuildingBlock: KIFKEQ_clean_linker_1, # of connection points: 2
#     Edge 48, Type (0, 1), BuildingBlock: KIFKEQ_clean_linker_1, # of connection points: 2
#     Edge 49, Type (0, 1), BuildingBlock: KIFKEQ_clean_linker_1, # of connection points: 2
#     Edge 50, Type (0, 1), BuildingBlock: KIFKEQ_clean_linker_1, # of connection points: 2
#     Edge 51, Type (0, 1), BuildingBlock: KIFKEQ_clean_linker_1, # of connection points: 2
#     Edge 52, Type (0, 1), BuildingBlock: KIFKEQ_clean_linker_1, # of connection points: 2
#     Edge 53, Type (0, 1), BuildingBlock: KIFKEQ_clean_linker_1, # of connection points: 2
#     Edge 54, Type (0, 1), BuildingBlock: KIFKEQ_clean_linker_1, # of connection points: 2
#     Edge 55, Type (0, 1), BuildingBlock: KIFKEQ_clean_linker_1, # of connection points: 2
#     Edge 56, Type (0, 1), BuildingBlock: KIFKEQ_clean_linker_1, # of connection points: 2
#     Edge 57, Type (0, 1), BuildingBlock: KIFKEQ_clean_linker_1, # of connection points: 2
#     Edge 58, Type (0, 1), BuildingBlock: KIFKEQ_clean_linker_1, # of connection points: 2
#     Edge 59, Type (0, 1), BuildingBlock: KIFKEQ_clean_linker_1, # of connection points: 2
#     Edge 60, Type (0, 1), BuildingBlock: KIFKEQ_clean_linker_1, # of connection points: 2
#     Edge 61, Type (0, 1), BuildingBlock: KIFKEQ_clean_linker_1, # of connection points: 2
#     Edge 62, Type (0, 1), BuildingBlock: KIFKEQ_clean_linker_1, # of connection points: 2
#     Edge 63, Type (0, 1), BuildingBlock: KIFKEQ_clean_linker_1, # of connection points: 2
#     Edge 64, Type (0, 1), BuildingBlock: KIFKEQ_clean_linker_1, # of connection points: 2
#     Edge 65, Type (0, 1), BuildingBlock: KIFKEQ_clean_linker_1, # of connection points: 2
#     Edge 66, Type (0, 1), BuildingBlock: KIFKEQ_clean_linker_1, # of connection points: 2
#     Edge 67, Type (0, 1), BuildingBlock: KIFKEQ_clean_linker_1, # of connection points: 2
#     Edge 68, Type (0, 1), BuildingBlock: KIFKEQ_clean_linker_1, # of connection points: 2
#     Edge 69, Type (0, 1), BuildingBlock: KIFKEQ_clean_linker_1, # of connection points: 2
#     Edge 70, Type (0, 1), BuildingBlock: KIFKEQ_clean_linker_1, # of connection points: 2
#     Edge 71, Type (0, 1), BuildingBlock: KIFKEQ_clean_linker_1, # of connection points: 2
#     Edge 72, Type (0, 1), BuildingBlock: KIFKEQ_clean_linker_1, # of connection points: 2
#     Edge 73, Type (0, 1), BuildingBlock: KIFKEQ_clean_linker_1, # of connection points: 2
#     Edge 74, Type (0, 1), BuildingBlock: KIFKEQ_clean_linker_1, # of connection points: 2
#     Edge 75, Type (0, 1), BuildingBlock: KIFKEQ_clean_linker_1, # of connection points: 2
#     Edge 76, Type (0, 1), BuildingBlock: KIFKEQ_clean_linker_1, # of connection points: 2
#     Edge 77, Type (0, 1), BuildingBlock: KIFKEQ_clean_linker_1, # of connection points: 2
#     Edge 78, Type (0, 1), BuildingBlock: KIFKEQ_clean_linker_1, # of connection points: 2
#     Edge 79, Type (0, 1), BuildingBlock: KIFKEQ_clean_linker_1, # of connection points: 2
#     Edge 80, Type (0, 1), BuildingBlock: KIFKEQ_clean_linker_1, # of connection points: 2
#     Edge 81, Type (0, 1), BuildingBlock: KIFKEQ_clean_linker_1, # of connection points: 2
#     Edge 82, Type (0, 1), BuildingBlock: KIFKEQ_clean_linker_1, # of connection points: 2
#     Edge 83, Type (0, 1), BuildingBlock: KIFKEQ_clean_linker_1, # of connection points: 2
#     Edge 84, Type (0, 1), BuildingBlock: KIFKEQ_clean_linker_1, # of connection points: 2
#     Edge 85, Type (0, 1), BuildingBlock: KIFKEQ_clean_linker_1, # of connection points: 2
#     Edge 86, Type (0, 1), BuildingBlock: KIFKEQ_clean_linker_1, # of connection points: 2
#     Edge 87, Type (0, 1), BuildingBlock: KIFKEQ_clean_linker_1, # of connection points: 2
#     Edge 88, Type (0, 1), BuildingBlock: KIFKEQ_clean_linker_1, # of connection points: 2
#     Edge 89, Type (0, 1), BuildingBlock: KIFKEQ_clean_linker_1, # of connection points: 2
#     Edge 90, Type (0, 1), BuildingBlock: KIFKEQ_clean_linker_1, # of connection points: 2
#     Edge 91, Type (0, 1), BuildingBlock: KIFKEQ_clean_linker_1, # of connection points: 2
#     Edge 92, Type (0, 1), BuildingBlock: KIFKEQ_clean_linker_1, # of connection points: 2
#     Edge 93, Type (0, 1), BuildingBlock: KIFKEQ_clean_linker_1, # of connection points: 2
#     Edge 94, Type (0, 1), BuildingBlock: KIFKEQ_clean_linker_1, # of connection points: 2
#     Edge 95, Type (0, 1), BuildingBlock: KIFKEQ_clean_linker_1, # of connection points: 2
#     Edge 96, Type (0, 1), BuildingBlock: KIFKEQ_clean_linker_1, # of connection points: 2
#     Edge 97, Type (0, 1), BuildingBlock: KIFKEQ_clean_linker_1, # of connection points: 2
#     Edge 98, Type (0, 1), BuildingBlock: KIFKEQ_clean_linker_1, # of connection points: 2
#     Edge 99, Type (0, 1), BuildingBlock: KIFKEQ_clean_linker_1, # of connection points: 2
#     Edge 100, Type (0, 1), BuildingBlock: KIFKEQ_clean_linker_1, # of connection points: 2
#     Edge 101, Type (0, 1), BuildingBlock: KIFKEQ_clean_linker_1, # of connection points: 2
#     Edge 102, Type (0, 1), BuildingBlock: KIFKEQ_clean_linker_1, # of connection points: 2
#     Edge 103, Type (0, 1), BuildingBlock: KIFKEQ_clean_linker_1, # of connection points: 2
#     Edge 104, Type (0, 1), BuildingBlock: KIFKEQ_clean_linker_1, # of connection points: 2
#     Edge 105, Type (0, 1), BuildingBlock: KIFKEQ_clean_linker_1, # of connection points: 2
#     Edge 106, Type (0, 1), BuildingBlock: KIFKEQ_clean_linker_1, # of connection points: 2
#     Edge 107, Type (0, 1), BuildingBlock: KIFKEQ_clean_linker_1, # of connection points: 2
# Relax obj value: 0.044
# Max RMSD: 0.106
# Mean RMSD: 0.074
data_MOF--net-ptr--node1-QUQFOY_clean_sbu_3--node2-GIZVER_clean_linker_0--edge1-KIFKEQ_clean_linker_1
_symmetry_space_group_name_H-M    P1
_symmetry_Int_Tables_number       1
_symmetry_cell_setting            triclinic
loop_
_symmetry_equiv_pos_as_xyz
'x, y, z'
_cell_length_a     81.689365
_cell_length_b     82.03089
_cell_length_c     50.552949
_cell_angle_alpha  90.553622
_cell_angle_beta   89.926183
_cell_angle_gamma 120.53744
loop_
_atom_site_label
_atom_site_type_symbol
_atom_site_fract_x
_atom_site_fract_y
_atom_site_fract_z
_atom_type_partial_charge
C0 C 0.96364 0.34178 0.01523 0.0
O1 O 0.95642 0.35173 0.02199 0.0
Cd2 Cd 0.97477 0.38467 0.03445 0.0
O3 O 0.98165 0.34917 0.01397 0.0
Cd4 Cd 0.01131 0.38044 0.02114 0.0
C5 C 0.99918 0.40427 0.97721 0.0
O6 O 0.99997 0.38755 0.06194 0.0
O7 O 0.02779 0.40908 0.04921 0.0
O8 O 0.02551 0.36167 0.03442 0.0
C9 C 0.01458 0.40363 0.06605 0.0
O10 O 0.98667 0.40256 0.99377 0.0
C11 C 0.04056 0.37074 0.02088 0.0
O12 O 0.00922 0.39668 0.9815 0.0
O13 O 0.042 0.38427 0.00707 0.0
C14 C 0.61939 0.66632 0.00664 0.0
O15 O 0.60183 0.65631 0.00092 0.0
Cd16 Cd 0.58641 0.62355 0.98723 0.0
O17 O 0.62999 0.65905 0.00647 0.0
Cd18 Cd 0.62734 0.62774 -0.00205 0.0
C19 C 0.59157 0.60278 0.04235 0.0
O20 O 0.60827 0.62147 0.95749 0.0
O21 O 0.61488 0.60014 0.96851 0.0
O22 O 0.66147 0.64724 0.98787 0.0
C23 C 0.60693 0.60567 0.95239 0.0
O24 O 0.58031 0.60462 0.02694 0.0
C25 C 0.66599 0.63601 -0.0018 0.0
O26 O 0.60924 0.6107 0.03718 0.0
O27 O 0.65268 0.62119 0.00872 0.0
C28 C 0.33722 0.95764 0.98864 0.0
O29 O 0.34719 0.95131 0.97862 0.0
Cd30 Cd 0.38072 0.96917 0.97158 0.0
O31 O 0.34478 0.97504 -0.00449 0.0
Cd32 Cd 0.37663 0.00481 0.99375 0.0
C33 C 0.39663 0.98692 0.03457 0.0
O34 O 0.38474 0.99701 0.95188 0.0
O35 O 0.40778 0.02169 0.97036 0.0
O36 O 0.36009 0.02122 0.98096 0.0
C37 C 0.40176 0.01042 0.9507 0.0
O38 O 0.39586 0.97642 0.0153 0.0
C39 C 0.36853 0.0349 -0.00273 0.0
O40 O 0.38961 0.99764 0.03254 0.0
O41 O 0.38056 0.03443 0.01268 0.0
C42 C 0.95118 0.61085 0.01378 0.0
O43 O 0.9439 0.59411 0.02251 0.0
Cd44 Cd 0.96174 0.57926 0.03437 0.0
O45 O 0.96917 0.62127 0.0113 0.0
Cd46 Cd 0.99858 0.62008 0.02013 0.0
C47 C 0.98594 0.58316 0.97691 0.0
O48 O 0.98738 0.60219 0.06113 0.0
O49 O 0.0147 0.60783 0.04707 0.0
O50 O 0.01428 0.65321 0.03451 0.0
C51 C 0.00189 0.60065 0.06454 0.0
O52 O 0.97311 0.57247 0.9932 0.0
C53 C 0.02872 0.6589 0.01969 0.0
O54 O 0.99629 0.60088 0.98142 0.0
O55 O 0.029 0.64659 0.00457 0.0
C56 C 0.34272 0.38562 0.00727 0.0
O57 O 0.35224 0.40272 -9e-05 0.0
Cd58 Cd 0.38509 0.41819 0.9876 0.0
O59 O 0.35059 0.37564 0.00923 0.0
Cd60 Cd 0.38242 0.37906 0.00249 0.0
C61 C 0.40568 0.41623 0.04542 0.0
O62 O 0.38822 0.39561 0.96082 0.0
O63 O 0.41195 0.3942 0.97658 0.0
O64 O 0.36636 0.34575 0.98889 0.0
C65 C 0.40506 0.39904 0.95787 0.0
O66 O 0.40384 0.42656 0.02844 0.0
C67 C 0.3755 0.3411 0.00437 0.0
O68 O 0.39814 0.39848 0.04153 0.0
O69 O 0.38783 0.35409 0.01925 0.0
C70 C 0.66905 0.04988 0.01462 0.0
O71 O 0.65849 0.05587 0.0235 0.0
Cd72 Cd 0.62548 0.03613 0.03366 0.0
O73 O 0.66238 0.03215 0.01119 0.0
Cd74 Cd 0.63132 0.00193 0.01877 0.0
C75 C 0.60741 0.01293 0.97433 0.0
O76 O 0.62212 0.01073 0.06044 0.0
O77 O 0.60014 0.986 0.04033 0.0
O78 O 0.64939 0.9877 0.03539 0.0
C79 C 0.60527 0.99673 0.06055 0.0
O80 O 0.6082 0.02465 0.99174 0.0
C81 C 0.6409 0.97268 0.02145 0.0
O82 O 0.61581 0.00362 0.97809 0.0
O83 O 0.62817 0.97135 0.00569 0.0
C84 C 0.63084 0.67726 0.34704 0.0
O85 O 0.62384 0.68751 0.35325 0.0
Cd86 Cd 0.64231 0.72042 0.36589 0.0
O87 O 0.64882 0.6843 0.34639 0.0
Cd88 Cd 0.67876 0.71521 0.35419 0.0
C89 C 0.66851 0.7403 0.30995 0.0
O90 O 0.66699 0.72281 0.39397 0.0
O91 O 0.69542 0.74367 0.38246 0.0
O92 O 0.6925 0.69628 0.3686 0.0
C93 C 0.68177 0.73871 0.39842 0.0
O94 O 0.65551 0.73852 0.32565 0.0
C95 C 0.70753 0.70493 0.35491 0.0
O96 O 0.67817 0.7324 0.31485 0.0
O97 O 0.70915 0.71828 0.34053 0.0
C98 C 0.28505 0.00379 0.33596 0.0
O99 O 0.2679 0.99462 0.32811 0.0
Cd100 Cd 0.25221 0.96175 0.3157 0.0
O101 O 0.29476 0.9956 0.33754 0.0
Cd102 Cd 0.29039 0.96354 0.32871 0.0
C103 C 0.25466 0.94121 0.37297 0.0
O104 O 0.27283 0.95683 0.28684 0.0
O105 O 0.27336 0.93329 0.30456 0.0
O106 O 0.32296 0.97892 0.31207 0.0
C107 C 0.26896 0.93981 0.28494 0.0
O108 O 0.24422 0.94334 0.35634 0.0
C109 C 0.32849 0.97016 0.32674 0.0
O110 O 0.27237 0.94829 0.36873 0.0
O111 O 0.31636 0.9584 0.3428 0.0
C112 C 0.00748 0.29189 0.32729 0.0
O113 O 0.01772 0.28635 0.31597 0.0
Cd114 Cd 0.05089 0.3055 0.30762 0.0
O115 O 0.01448 0.3092 0.33434 0.0
Cd116 Cd 0.04529 0.34016 0.33098 0.0
C117 C 0.06779 0.32407 0.37013 0.0
O118 O 0.05338 0.33298 0.28851 0.0
O119 O 0.07552 0.35865 0.30627 0.0
O120 O 0.02708 0.35516 0.31976 0.0
C121 C 0.06996 0.34717 0.28685 0.0
O122 O 0.06604 0.31284 0.35131 0.0
C123 C 0.03505 0.36861 0.33652 0.0
O124 O 0.06111 0.33507 0.36825 0.0
O125 O 0.04764 0.36868 0.35132 0.0
C126 C 0.61417 0.94357 0.34769 0.0
O127 O 0.60794 0.92736 0.35783 0.0
Cd128 Cd 0.62684 0.91365 0.36895 0.0
O129 O 0.6319 0.95436 0.34322 0.0
Cd130 Cd 0.66228 0.95434 0.35021 0.0
C131 C 0.64831 0.91588 0.30943 0.0
O132 O 0.6532 0.93823 0.39257 0.0
O133 O 0.68013 0.94365 0.37744 0.0
O134 O 0.67786 0.98798 0.36202 0.0
C135 C 0.66787 0.93696 0.3957 0.0
O136 O 0.63647 0.90579 0.32717 0.0
C137 C 0.69168 0.99337 0.3461 0.0
O138 O 0.65866 0.93377 0.3124 0.0
O139 O 0.69166 0.98064 0.33156 0.0
C140 C 0.00608 0.72236 0.33499 0.0
O141 O 0.01561 0.73974 0.32887 0.0
Cd142 Cd 0.04884 0.75608 0.31797 0.0
O143 O 0.01407 0.7125 0.33673 0.0
Cd144 Cd 0.04601 0.71606 0.33182 0.0
C145 C 0.06834 0.75275 0.37611 0.0
O146 O 0.05312 0.73428 0.29138 0.0
O147 O 0.07533 0.72977 0.30571 0.0
O148 O 0.02962 0.68294 0.31741 0.0
C149 C 0.06964 0.73683 0.28837 0.0
O150 O 0.06642 0.76318 0.3594 0.0
C151 C 0.03848 0.67789 0.33279 0.0
O152 O 0.06127 0.73511 0.37166 0.0
O153 O 0.05076 0.69057 0.3481 0.0
C154 C 0.33589 0.385 0.34869 0.0
O155 O 0.32502 0.39057 0.35779 0.0
Cd156 Cd 0.29247 0.37055 0.37034 0.0
O157 O 0.32979 0.36735 0.34543 0.0
Cd158 Cd 0.29979 0.33606 0.3526 0.0
C159 C 0.27312 0.34645 0.31165 0.0
O160 O 0.2926 0.34593 0.39456 0.0
O161 O 0.2718 0.31798 0.38125 0.0
O162 O 0.32198 0.32477 0.36084 0.0
C163 C 0.27691 0.33093 0.39857 0.0
O164 O 0.27436 0.35818 0.32936 0.0
C165 C 0.31175 0.3086 0.35013 0.0
O166 O 0.28187 0.33735 0.31427 0.0
O167 O 0.29612 0.30526 0.33999 0.0
C168 C 0.30019 0.0087 0.68125 0.0
O169 O 0.29308 0.01801 0.69113 0.0
Cd170 Cd 0.31151 0.05089 0.70341 0.0
O171 O 0.31805 0.0167 0.67728 0.0
Cd172 Cd 0.34746 0.04838 0.68378 0.0
C173 C 0.33205 0.07105 0.64395 0.0
O174 O 0.33894 0.05546 0.7271 0.0
O175 O 0.36337 0.07847 0.70839 0.0
O176 O 0.36331 0.03092 0.69531 0.0
C177 C 0.35261 0.07243 0.72838 0.0
O178 O 0.32058 0.06898 0.66248 0.0
C179 C 0.37768 0.04014 0.68057 0.0
O180 O 0.3426 0.06379 0.64561 0.0
O181 O 0.37805 0.05323 0.66691 0.0
C182 C 0.94246 0.32736 0.6698 0.0
O183 O 0.92509 0.31638 0.66378 0.0
Cd184 Cd 0.91111 0.28362 0.65104 0.0
O185 O 0.95409 0.32129 0.66945 0.0
Cd186 Cd 0.95323 0.29088 0.65913 0.0
C187 C 0.91974 0.26499 0.70579 0.0
O188 O 0.93248 0.28207 0.61995 0.0
O189 O 0.94013 0.26177 0.63253 0.0
O190 O 0.98551 0.30869 0.64107 0.0
C191 C 0.93159 0.26635 0.61598 0.0
O192 O 0.90748 0.26578 0.6912 0.0
C193 C 0.99242 0.30109 0.65561 0.0
O194 O 0.93724 0.27367 0.6994 0.0
O195 O 0.98122 0.28903 0.67218 0.0
C196 C 0.67447 0.62799 0.6572 0.0
O197 O 0.68525 0.62245 0.64769 0.0
Cd198 Cd 0.71819 0.64182 0.63749 0.0
O199 O 0.68094 0.6454 0.66313 0.0
Cd200 Cd 0.71234 0.67587 0.6626 0.0
C201 C 0.7338 0.65783 0.70079 0.0
O202 O 0.72028 0.66938 0.61938 0.0
O203 O 0.74269 0.6943 0.63811 0.0
O204 O 0.69288 0.6907 0.65792 0.0
C205 C 0.73702 0.68335 0.61813 0.0
O206 O 0.73398 0.64859 0.68049 0.0
C207 C 0.70402 0.70554 0.67108 0.0
O208 O 0.72572 0.66765 0.70014 0.0
O209 O 0.71875 0.70641 0.68086 0.0
C210 C 0.28256 0.27806 0.68801 0.0
O211 O 0.27675 0.26104 0.69435 0.0
Cd212 Cd 0.29731 0.24909 0.7048 0.0
O213 O 0.3003 0.28997 0.68606 0.0
Cd214 Cd 0.3308 0.29004 0.69108 0.0
C215 C 0.31993 0.25474 0.64603 0.0
O216 O 0.32258 0.27236 0.73235 0.0
O217 O 0.34826 0.277 0.71344 0.0
O218 O 0.34611 0.32275 0.70748 0.0
C219 C 0.33731 0.27094 0.73324 0.0
O220 O 0.30838 0.24317 0.66288 0.0
C221 C 0.3596 0.32948 0.69088 0.0
O222 O 0.32884 0.27249 0.65067 0.0
O223 O 0.35967 0.31791 0.67409 0.0
C224 C 0.67817 0.06195 0.67143 0.0
O225 O 0.68849 0.07841 0.66209 0.0
Cd226 Cd 0.72105 0.0914 0.65043 0.0
O227 O 0.68498 0.05116 0.67515 0.0
Cd228 Cd 0.7157 0.05192 0.66856 0.0
C229 C 0.73993 0.08949 0.71009 0.0
O230 O 0.72202 0.06688 0.62567 0.0
O231 O 0.74536 0.06541 0.64285 0.0
O232 O 0.69731 0.01851 0.65584 0.0
C233 C 0.73854 0.06936 0.62309 0.0
O234 O 0.73886 0.09963 0.69203 0.0
C235 C 0.70619 0.01309 0.67054 0.0
O236 O 0.7318 0.07159 0.70727 0.0
O237 O 0.71932 0.02569 0.68498 0.0
C238 C 0.00464 0.71674 0.67931 0.0
O239 O 0.99396 0.72284 0.68726 0.0
Cd240 Cd 0.96097 0.70383 0.6976 0.0
O241 O 0.99806 0.69896 0.67659 0.0
Cd242 Cd 0.96684 0.66883 0.68444 0.0
C243 C 0.94239 0.67891 0.6395 0.0
O244 O 0.95799 0.67898 0.72506 0.0
O245 O 0.93582 0.65354 0.70666 0.0
O246 O 0.98409 0.6537 0.70138 0.0
C247 C 0.94108 0.66517 0.72585 0.0
O248 O 0.94342 0.69121 0.65605 0.0
C249 C 0.97544 0.63886 0.68709 0.0
O250 O 0.95081 0.6697 0.64397 0.0
O251 O 0.96303 0.63806 0.67118 0.0
H252 H 0.15716 0.33024 0.14298 0.0
H253 H 0.15001 0.33295 0.05903 0.0
H254 H 0.13162 0.36084 0.11349 0.0
H255 H 0.15419 0.30466 0.10738 0.0
H256 H 0.16131 0.31309 0.07463 0.0
H257 H 0.17745 0.32023 0.146 0.0
H258 H 0.23608 0.34474 0.12562 0.0
H259 H 0.19463 0.33109 0.06415 0.0
C260 C 0.15344 0.33588 0.12636 0.0
C261 C 0.14496 0.34679 0.13125 0.0
C262 C 0.15599 0.33129 0.10037 0.0
C263 C 0.14928 0.33735 0.07907 0.0
C264 C 0.14075 0.3483 0.08377 0.0
C265 C 0.13916 0.35333 0.1098 0.0
C266 C 0.16313 0.31766 0.09574 0.0
C267 C 0.18367 0.32573 0.10415 0.0
C268 C 0.1884 0.32595 0.13107 0.0
C269 C 0.20737 0.33346 0.13883 0.0
C270 C 0.22148 0.33948 0.11958 0.0
C271 C 0.21695 0.3381 0.09264 0.0
C272 C 0.19814 0.33195 0.08497 0.0
H273 H 0.69269 0.83379 0.14444 0.0
H274 H 0.67415 0.81496 0.06419 0.0
H275 H 0.66967 0.77547 0.12291 0.0
H276 H 0.70384 0.85637 0.10609 0.0
H277 H 0.69328 0.84837 0.07419 0.0
H278 H 0.6769 0.8497 0.14462 0.0
H279 H 0.64791 0.8784 0.12093 0.0
H280 H 0.67569 0.86269 0.06245 0.0
C281 C 0.68595 0.82252 0.12987 0.0
C282 C 0.68107 0.80408 0.13691 0.0
C283 C 0.683 0.82656 0.1038 0.0
C284 C 0.67566 0.81191 0.08456 0.0
C285 C 0.6715 0.7936 0.0913 0.0
C286 C 0.67365 0.78979 0.11757 0.0
C287 C 0.69017 0.84687 0.09576 0.0
C288 C 0.67662 0.85387 0.10243 0.0
C289 C 0.67182 0.85486 0.12895 0.0
C290 C 0.66122 0.86341 0.13566 0.0
C291 C 0.65528 0.87095 0.11563 0.0
C292 C 0.66055 0.87091 0.08926 0.0
C293 C 0.67114 0.86226 0.08271 0.0
H294 H 0.17147 0.81114 0.13456 0.0
H295 H 0.16336 0.79036 0.05424 0.0
H296 H 0.11537 0.77267 0.10518 0.0
H297 H 0.19693 0.80761 0.10686 0.0
H298 H 0.19484 0.80761 0.07182 0.0
H299 H 0.20196 0.83546 0.13424 0.0
H300 H 0.22933 0.88866 0.09402 0.0
H301 H 0.20503 0.83678 0.04925 0.0
C302 C 0.16212 0.80316 0.11834 0.0
C303 C 0.14244 0.79252 0.12271 0.0
C304 C 0.16985 0.80278 0.09362 0.0
C305 C 0.15757 0.79148 0.07302 0.0
C306 C 0.13783 0.78098 0.07703 0.0
C307 C 0.13047 0.78178 0.10174 0.0
C308 C 0.19118 0.81227 0.09053 0.0
C309 C 0.20093 0.83366 0.09155 0.0
C310 C 0.20543 0.84337 0.11605 0.0
C311 C 0.21566 0.86326 0.11717 0.0
C312 C 0.22116 0.87333 0.0934 0.0
C313 C 0.21795 0.86396 0.06896 0.0
C314 C 0.20736 0.8441 0.06807 0.0
H315 H 0.38243 0.20889 0.87967 0.0
H316 H 0.3862 0.21554 0.96451 0.0
H317 H 0.3562 0.23621 0.91943 0.0
H318 H 0.40708 0.20631 0.90749 0.0
H319 H 0.40395 0.20351 0.94243 0.0
H320 H 0.3836 0.18089 0.87643 0.0
H321 H 0.35567 0.12468 0.90753 0.0
H322 H 0.38375 0.17243 0.96049 0.0
C323 C 0.3784 0.21304 0.8978 0.0
C324 C 0.36848 0.22285 0.89652 0.0
C325 C 0.38426 0.20968 0.92236 0.0
C326 C 0.38067 0.21688 0.9457 0.0
C327 C 0.37056 0.2265 0.94458 0.0
C328 C 0.36389 0.22866 0.92016 0.0
C329 C 0.39614 0.20034 0.92329 0.0
C330 C 0.38413 0.17916 0.91909 0.0
C331 C 0.37896 0.17157 0.8933 0.0
C332 C 0.36838 0.15192 0.88911 0.0
C333 C 0.36297 0.13987 0.91087 0.0
C334 C 0.36868 0.1471 0.93657 0.0
C335 C 0.37907 0.16679 0.94068 0.0
H336 H 0.8624 0.17515 0.87719 0.0
H337 H 0.86604 0.19331 0.95849 0.0
H338 H 0.89788 0.23362 0.89821 0.0
H339 H 0.85306 0.15248 0.91659 0.0
H340 H 0.84978 0.16009 0.94829 0.0
H341 H 0.83219 0.15449 0.87719 0.0
H342 H 0.77407 0.12951 0.90028 0.0
H343 H 0.81758 0.14842 0.95994 0.0
C344 C 0.86724 0.18629 0.89193 0.0
C345 C 0.88018 0.20493 0.88438 0.0
C346 C 0.86138 0.18195 0.9185 0.0
C347 C 0.86961 0.19653 0.93781 0.0
C348 C 0.88338 0.21503 0.93056 0.0
C349 C 0.88794 0.21914 0.90383 0.0
C350 C 0.84838 0.16153 0.92667 0.0
C351 C 0.82764 0.1538 0.91946 0.0
C352 C 0.8219 0.1509 0.89274 0.0
C353 C 0.80268 0.14257 0.88574 0.0
C354 C 0.789 0.13678 0.90568 0.0
C355 C 0.79419 0.13858 0.93242 0.0
C356 C 0.81356 0.14727 0.93929 0.0
H357 H 0.82835 0.63919 0.86528 0.0
H358 H 0.83752 0.62561 0.94386 0.0
H359 H 0.88491 0.66003 0.89329 0.0
H360 H 0.80374 0.60846 0.89611 0.0
H361 H 0.80599 0.61419 0.93036 0.0
H362 H 0.79673 0.62682 0.86339 0.0
H363 H 0.76674 0.65296 0.89423 0.0
H364 H 0.79507 0.63468 0.94759 0.0
C365 C 0.83778 0.64114 0.88151 0.0
C366 C 0.8574 0.65098 0.87691 0.0
C367 C 0.83045 0.63291 0.9063 0.0
C368 C 0.84313 0.63351 0.92579 0.0
C369 C 0.86282 0.64274 0.92092 0.0
C370 C 0.86977 0.65263 0.89719 0.0
C371 C 0.80917 0.62055 0.91032 0.0
C372 C 0.79829 0.63076 0.9059 0.0
C373 C 0.79297 0.63261 0.88009 0.0
C374 C 0.7818 0.64084 0.87582 0.0
C375 C 0.77577 0.64705 0.89761 0.0
C376 C 0.78012 0.64465 0.9236 0.0
C377 C 0.79173 0.63677 0.92762 0.0
H378 H 0.82458 0.66342 0.47689 0.0
H379 H 0.81465 0.66479 0.39348 0.0
H380 H 0.79966 0.69507 0.44868 0.0
H381 H 0.81867 0.63652 0.44198 0.0
H382 H 0.82465 0.64389 0.40862 0.0
H383 H 0.84331 0.64967 0.47773 0.0
H384 H 0.90078 0.67197 0.45174 0.0
H385 H 0.85775 0.6635 0.39556 0.0
C386 C 0.82047 0.66899 0.46053 0.0
C387 C 0.81274 0.68054 0.46581 0.0
C388 C 0.82173 0.66361 0.43443 0.0
C389 C 0.81482 0.66973 0.4135 0.0
C390 C 0.80717 0.6814 0.41857 0.0
C391 C 0.80667 0.68708 0.44463 0.0
C392 C 0.82758 0.64906 0.42948 0.0
C393 C 0.84826 0.65643 0.43607 0.0
C394 C 0.85381 0.65539 0.46216 0.0
C395 C 0.87276 0.6609 0.46793 0.0
C396 C 0.88606 0.66742 0.44743 0.0
C397 C 0.88075 0.66808 0.42134 0.0
C398 C 0.86194 0.66308 0.41577 0.0
H399 H 0.35389 0.16707 0.48341 0.0
H400 H 0.34347 0.15094 0.40089 0.0
H401 H 0.32478 0.10854 0.461 0.0
H402 H 0.37318 0.18938 0.44551 0.0
H403 H 0.3643 0.18342 0.41254 0.0
H404 H 0.35024 0.19181 0.48087 0.0
H405 H 0.32895 0.22607 0.45047 0.0
H406 H 0.3496 0.19993 0.39676 0.0
C407 C 0.34731 0.15635 0.46811 0.0
C408 C 0.33814 0.13724 0.47528 0.0
C409 C 0.34854 0.16153 0.44131 0.0
C410 C 0.34154 0.14718 0.42162 0.0
C411 C 0.33349 0.12808 0.42871 0.0
C412 C 0.33114 0.12329 0.4555 0.0
C413 C 0.35986 0.18222 0.43359 0.0
C414 C 0.34943 0.19295 0.43814 0.0
C415 C 0.34604 0.19694 0.46414 0.0
C416 C 0.33874 0.20894 0.4688 0.0
C417 C 0.33457 0.21674 0.44717 0.0
C418 C 0.33882 0.21393 0.42135 0.0
C419 C 0.34585 0.20169 0.41672 0.0
H420 H 0.83485 0.13036 0.46351 0.0
H421 H 0.82784 0.12434 0.37894 0.0
H422 H 0.77896 0.10085 0.42941 0.0
H423 H 0.86127 0.13544 0.43315 0.0
H424 H 0.85894 0.137 0.39835 0.0
H425 H 0.8578 0.16093 0.46277 0.0
H426 H 0.89478 0.21634 0.43198 0.0
H427 H 0.87524 0.16774 0.38122 0.0
C428 C 0.82572 0.12622 0.44626 0.0
C429 C 0.80596 0.11562 0.44956 0.0
C430 C 0.83379 0.1303 0.42083 0.0
C431 C 0.82179 0.12259 0.39852 0.0
C432 C 0.80197 0.11181 0.40167 0.0
C433 C 0.79426 0.10919 0.42708 0.0
C434 C 0.85518 0.14054 0.41788 0.0
C435 C 0.86446 0.16183 0.42121 0.0
C436 C 0.86499 0.16994 0.44617 0.0
C437 C 0.87557 0.18967 0.45017 0.0
C438 C 0.88557 0.20124 0.42878 0.0
C439 C 0.88557 0.19349 0.40397 0.0
C440 C 0.87483 0.17379 0.40019 0.0
H441 H 0.03314 0.53055 0.21824 0.0
H442 H 0.04436 0.54905 0.29965 0.0
H443 H 0.01367 0.56635 0.24975 0.0
H444 H 0.06264 0.53491 0.24674 0.0
H445 H 0.05929 0.53305 0.28159 0.0
H446 H 0.04018 0.50796 0.21655 0.0
H447 H 0.01695 0.45304 0.25102 0.0
H448 H 0.04073 0.50233 0.30115 0.0
C449 C 0.03124 0.53768 0.23494 0.0
C450 C 0.02176 0.54776 0.23116 0.0
C451 C 0.03912 0.53765 0.25969 0.0
C452 C 0.03756 0.5481 0.28085 0.0
C453 C 0.02797 0.55811 0.27737 0.0
C454 C 0.01995 0.55761 0.25269 0.0
C455 C 0.05155 0.52894 0.26235 0.0
C456 C 0.04063 0.50758 0.25926 0.0
C457 C 0.0361 0.49914 0.23386 0.0
C458 C 0.02702 0.47938 0.23062 0.0
C459 C 0.02281 0.46817 0.2532 0.0
C460 C 0.02777 0.4763 0.27855 0.0
C461 C 0.03649 0.496 0.28159 0.0
H462 H 0.52639 0.51074 0.21051 0.0
H463 H 0.53216 0.52827 0.29247 0.0
H464 H 0.56248 0.56907 0.23209 0.0
H465 H 0.52042 0.48838 0.25034 0.0
H466 H 0.51645 0.4953 0.28206 0.0
H467 H 0.49799 0.48428 0.21184 0.0
H468 H 0.44002 0.46007 0.23607 0.0
H469 H 0.48465 0.48616 0.29401 0.0
C470 C 0.53169 0.52177 0.22548 0.0
C471 C 0.54462 0.54046 0.2181 0.0
C472 C 0.52668 0.51719 0.25227 0.0
C473 C 0.53512 0.53167 0.2717 0.0
C474 C 0.54844 0.55029 0.26442 0.0
C475 C 0.55254 0.55457 0.23766 0.0
C476 C 0.51483 0.49665 0.26047 0.0
C477 C 0.49395 0.48768 0.25343 0.0
C478 C 0.4878 0.48201 0.22713 0.0
C479 C 0.46837 0.47201 0.2208 0.0
C480 C 0.45506 0.468 0.24085 0.0
C481 C 0.46074 0.47282 0.26724 0.0
C482 C 0.48023 0.48279 0.27352 0.0
H483 H 0.49031 0.96286 0.19787 0.0
H484 H 0.49379 0.95356 0.28091 0.0
H485 H 0.54461 0.98302 0.23453 0.0
H486 H 0.46285 0.93575 0.22503 0.0
H487 H 0.4635 0.93824 0.2601 0.0
H488 H 0.45991 0.95866 0.19617 0.0
H489 H 0.43168 0.98552 0.23146 0.0
H490 H 0.45291 0.95796 0.2807 0.0
C491 C 0.49866 0.96524 0.21562 0.0
C492 C 0.51854 0.97463 0.21376 0.0
C493 C 0.48957 0.95815 0.24003 0.0
C494 C 0.50067 0.95994 0.26239 0.0
C495 C 0.52057 0.96895 0.26055 0.0
C496 C 0.52935 0.9768 0.23639 0.0
C497 C 0.4681 0.9464 0.2414 0.0
C498 C 0.4588 0.95824 0.23885 0.0
C499 C 0.45563 0.96329 0.21362 0.0
C500 C 0.44567 0.97297 0.21074 0.0
C501 C 0.43948 0.97815 0.23347 0.0
C502 C 0.44168 0.97252 0.25864 0.0
C503 C 0.45154 0.96271 0.26133 0.0
H504 H 0.48835 0.99875 0.80442 0.0
H505 H 0.48898 0.00523 0.71985 0.0
H506 H 0.46616 0.03125 0.77012 0.0
H507 H 0.49059 0.97613 0.77152 0.0
H508 H 0.49732 0.98351 0.73821 0.0
H509 H 0.51387 0.98946 0.80782 0.0
H510 H 0.57288 0.02181 0.78647 0.0
H511 H 0.52995 0.00885 0.72777 0.0
C512 C 0.48615 0.00527 0.78729 0.0
C513 C 0.47686 0.0156 0.79022 0.0
C514 C 0.49106 0.00186 0.76198 0.0
C515 C 0.48642 0.00881 0.73951 0.0
C516 C 0.4776 0.01963 0.74243 0.0
C517 C 0.4736 0.02351 0.76786 0.0
C518 C 0.49892 0.98879 0.75896 0.0
C519 C 0.51957 0.9985 0.76706 0.0
C520 C 0.52478 0.99732 0.79328 0.0
C521 C 0.54404 0.00545 0.80031 0.0
C522 C 0.55798 0.01544 0.78122 0.0
C523 C 0.55303 0.01667 0.75514 0.0
C524 C 0.53382 0.00818 0.74807 0.0
H525 H 0.01836 0.49292 0.80899 0.0
H526 H 0.99611 0.47534 0.72989 0.0
H527 H 0.98511 0.43382 0.78906 0.0
H528 H 0.03179 0.51484 0.77049 0.0
H529 H 0.02066 0.50786 0.73879 0.0
H530 H 0.01037 0.51647 0.80929 0.0
H531 H 0.98454 0.54798 0.7838 0.0
H532 H 0.00388 0.523 0.72603 0.0
C533 C 0.00969 0.48183 0.79488 0.0
C534 C 0.00176 0.46281 0.80223 0.0
C535 C 0.00741 0.48655 0.76892 0.0
C536 C 0.99731 0.47191 0.75019 0.0
C537 C 0.98922 0.45286 0.75747 0.0
C538 C 0.99123 0.44853 0.78354 0.0
C539 C 0.01774 0.50706 0.76039 0.0
C540 C 0.00699 0.51717 0.76693 0.0
C541 C 0.00486 0.52116 0.7935 0.0
C542 C 0.99701 0.53249 0.79969 0.0
C543 C 0.99055 0.53917 0.77915 0.0
C544 C 0.99312 0.53599 0.75266 0.0
C545 C 1.00135 0.52497 0.74654 0.0
H546 H 0.50395 0.47467 0.80164 0.0
H547 H 0.49197 0.46386 0.7183 0.0
H548 H 0.44644 0.44295 0.7747 0.0
H549 H 0.52818 0.47649 0.76763 0.0
H550 H 0.52405 0.47799 0.73341 0.0
H551 H 0.52881 0.50293 0.79921 0.0
H552 H 0.56565 0.55742 0.76664 0.0
H553 H 0.53894 0.50859 0.71531 0.0
C554 C 0.49398 0.46969 0.78533 0.0
C555 C 0.47451 0.45975 0.79089 0.0
C556 C 0.50049 0.47226 0.75907 0.0
C557 C 0.48713 0.46332 0.73842 0.0
C558 C 0.46756 0.45264 0.74397 0.0
C559 C 0.46143 0.45169 0.77012 0.0
C560 C 0.52161 0.48189 0.75356 0.0
C561 C 0.53189 0.50328 0.75672 0.0
C562 C 0.53487 0.51167 0.78206 0.0
C563 C 0.54646 0.53132 0.78564 0.0
C564 C 0.55543 0.54254 0.76356 0.0
C565 C 0.55294 0.53462 0.73809 0.0
C566 C 0.54078 0.51495 0.73477 0.0
H567 H 0.6992 0.8669 0.54992 0.0
H568 H 0.70855 0.88303 0.63234 0.0
H569 H 0.68021 0.9029 0.58225 0.0
H570 H 0.72763 0.86971 0.57969 0.0
H571 H 0.72335 0.86703 0.61429 0.0
H572 H 0.70529 0.84372 0.54787 0.0
H573 H 0.68264 0.78811 0.57899 0.0
H574 H 0.70426 0.83584 0.63217 0.0
C575 C 0.69707 0.87371 0.56684 0.0
C576 C 0.6881 0.8843 0.56318 0.0
C577 C 0.70411 0.87269 0.59185 0.0
C578 C 0.70233 0.88279 0.61331 0.0
C579 C 0.69336 0.89339 0.60991 0.0
C580 C 0.68609 0.89379 0.58502 0.0
C581 C 0.71612 0.86351 0.59468 0.0
C582 C 0.70507 0.84221 0.59056 0.0
C583 C 0.70101 0.83447 0.56474 0.0
C584 C 0.69219 0.81486 0.5605 0.0
C585 C 0.68802 0.80306 0.58237 0.0
C586 C 0.69231 0.81035 0.60827 0.0
C587 C 0.70059 0.82999 0.6123 0.0
H588 H 0.18967 0.84664 0.5377 0.0
H589 H 0.20234 0.86122 0.62043 0.0
H590 H 0.22431 0.90453 0.56138 0.0
H591 H 0.18906 0.8234 0.57514 0.0
H592 H 0.18541 0.82859 0.60816 0.0
H593 H 0.16478 0.8184 0.53908 0.0
H594 H 0.10746 0.79329 0.56622 0.0
H595 H 0.15337 0.81757 0.62257 0.0
C596 C 0.1957 0.85702 0.55344 0.0
C597 C 0.2063 0.8762 0.54673 0.0
C598 C 0.1934 0.85138 0.58013 0.0
C599 C 0.20301 0.86534 0.59998 0.0
C600 C 0.21458 0.88448 0.59312 0.0
C601 C 0.2155 0.88976 0.56667 0.0
C602 C 0.18295 0.83049 0.58706 0.0
C603 C 0.16176 0.82049 0.58136 0.0
C604 C 0.15499 0.81549 0.55517 0.0
C605 C 0.13548 0.80631 0.54958 0.0
C606 C 0.12259 0.80122 0.57044 0.0
C607 C 0.12886 0.80482 0.59675 0.0
C608 C 0.14849 0.81475 0.60221 0.0
H609 H 0.1663 0.30547 0.53794 0.0
H610 H 0.16745 0.29833 0.62209 0.0
H611 H 0.21877 0.32109 0.57663 0.0
H612 H 0.13764 0.27972 0.56521 0.0
H613 H 0.13777 0.2831 0.59997 0.0
H614 H 0.1399 0.30593 0.5347 0.0
H615 H 0.10292 0.32532 0.56188 0.0
H616 H 0.1234 0.3001 0.61653 0.0
C617 C 0.17414 0.30763 0.55606 0.0
C618 C 0.19389 0.3153 0.55476 0.0
C619 C 0.16445 0.30183 0.58037 0.0
C620 C 0.17485 0.30347 0.60349 0.0
C621 C 0.19456 0.31054 0.60237 0.0
C622 C 0.20385 0.31667 0.578 0.0
C623 C 0.14288 0.29081 0.58098 0.0
C624 C 0.1338 0.30274 0.57643 0.0
C625 C 0.13293 0.30875 0.55073 0.0
C626 C 0.12208 0.31721 0.5452 0.0
C627 C 0.11231 0.31994 0.56601 0.0
C628 C 0.11277 0.31395 0.59171 0.0
C629 C 0.12361 0.30541 0.59691 0.0
H630 H 0.98529 0.40283 0.09297 0.0
H631 H 0.04651 0.43202 0.08951 0.0
H632 H 0.98712 0.42306 0.12977 0.0
H633 H 0.04854 0.45144 0.12746 0.0
H634 H 0.04931 0.4925 0.18607 0.0
H635 H 0.04519 0.47579 0.14445 0.0
H636 H 0.99353 0.428 0.17414 0.0
H637 H 0.99669 0.44543 0.21453 0.0
C638 C 0.99915 0.41347 0.10034 0.0
C639 C 0.01576 0.41581 0.08852 0.0
C640 C 1.00025 0.42504 0.12156 0.0
C641 C 0.01799 0.43894 0.13191 0.0
C642 C 0.0346 0.44125 0.11985 0.0
C643 C 0.03348 0.42997 0.09823 0.0
C644 C 0.03675 0.47868 0.18343 0.0
C645 C 0.02345 0.47028 0.20391 0.0
C646 C 0.03457 0.46888 0.15965 0.0
C647 C 0.01921 0.4503 0.1559 0.0
C648 C 0.00549 0.44229 0.17597 0.0
C649 C 0.00747 0.45222 0.19946 0.0
H650 H 0.60876 0.5885 0.07304 0.0
H651 H 0.55702 0.59032 0.06572 0.0
H652 H 0.59653 0.56973 0.1129 0.0
H653 H 0.54509 0.57221 0.10623 0.0
H654 H 0.52285 0.53039 0.17286 0.0
H655 H 0.53355 0.54264 0.12823 0.0
H656 H 0.59142 0.57503 0.15701 0.0
H657 H 0.58087 0.56214 0.20075 0.0
C658 C 0.59481 0.58498 0.08003 0.0
C659 C 0.58396 0.59109 0.06636 0.0
C660 C 0.58779 0.57422 0.10293 0.0
C661 C 0.56985 0.56953 0.11298 0.0
C662 C 0.55883 0.57529 0.09893 0.0
C663 C 0.56576 0.58586 0.07581 0.0
C664 C 0.53788 0.53979 0.16936 0.0
C665 C 0.55099 0.54556 0.19033 0.0
C666 C 0.54401 0.54699 0.14392 0.0
C667 C 0.56335 0.56003 0.13902 0.0
C668 C 0.57647 0.56493 0.15983 0.0
C669 C 0.57039 0.55771 0.18506 0.0
H670 H 0.39615 0.00284 0.08213 0.0
H671 H 0.41751 0.96997 0.04404 0.0
H672 H 0.40961 1.00071 0.12408 0.0
H673 H 0.43092 0.96786 0.08614 0.0
H674 H 0.46635 0.98379 0.16453 0.0
H675 H 0.45591 0.98837 0.12114 0.0
H676 H 0.40121 0.97315 0.15396 0.0
H677 H 0.41123 0.96807 0.19667 0.0
C678 C 0.4038 0.99526 0.08264 0.0
C679 C 0.40559 0.98643 0.05977 0.0
C680 C 0.41146 0.99401 0.10668 0.0
C681 C 0.42123 0.98404 0.10835 0.0
C682 C 0.42358 0.97573 0.08536 0.0
C683 C 0.41576 0.97683 0.06133 0.0
C684 C 0.45208 0.98135 0.16239 0.0
C685 C 0.43977 0.9759 0.18421 0.0
C686 C 0.44614 0.98401 0.13762 0.0
C687 C 0.42785 0.98137 0.13434 0.0
C688 C 0.41554 0.97573 0.15605 0.0
C689 C 0.42135 0.9729 0.18059 0.0
H690 H 0.39299 0.98443 0.9116 0.0
H691 H 0.43889 0.03781 0.94128 0.0
H692 H 0.41272 0.98554 0.87497 0.0
H693 H 0.4587 0.03906 0.90387 0.0
H694 H 0.49154 0.0231 0.84098 0.0
H695 H 0.4746 0.02189 0.88197 0.0
H696 H 0.42401 0.00627 0.83619 0.0
H697 H 0.44047 0.00694 0.79604 0.0
C698 C 0.40732 0.99644 0.91029 0.0
C699 C 0.4143 0.01118 0.92911 0.0
C700 C 0.41862 0.99706 0.88928 0.0
C701 C 0.43715 0.01249 0.88642 0.0
C702 C 0.44447 0.02697 0.90571 0.0
C703 C 0.43311 0.02632 0.92693 0.0
C704 C 0.4768 0.0194 0.83988 0.0
C705 C 0.46739 0.01535 0.81534 0.0
C706 C 0.46718 0.01883 0.8632 0.0
C707 C 0.44798 0.0139 0.86221 0.0
C708 C 0.43872 0.00989 0.83763 0.0
C709 C 0.44825 0.01052 0.81457 0.0
H710 H 0.02624 0.41364 0.9388 0.0
H711 H 0.97834 0.41972 0.96009 0.0
H712 H 0.02998 0.43084 0.89803 0.0
H713 H 0.98174 0.43638 0.91912 0.0
H714 H 0.99883 0.47653 0.8507 0.0
H715 H 1.00087 0.46488 0.89431 0.0
H716 H 0.01344 0.42488 0.85695 0.0
H717 H 0.01215 0.43699 0.81385 0.0
C718 C 0.0165 0.41862 0.9348 0.0
C719 C 0.0019 0.41515 0.95267 0.0
C720 C 0.01861 0.42845 0.91138 0.0
C721 C 0.00613 0.43498 0.9052 0.0
C722 C 0.9918 0.43185 0.92337 0.0
C723 C 0.98974 0.4221 0.9468 0.0
C724 C 0.00239 0.46551 0.85195 0.0
C725 C 0.00504 0.45748 0.82887 0.0
C726 C 0.00337 0.4587 0.87687 0.0
C727 C 0.00713 0.44379 0.87916 0.0
C728 C 0.01067 0.43645 0.85605 0.0
C729 C 0.00969 0.44324 0.83127 0.0
H730 H 0.57956 0.60746 0.92377 0.0
H731 H 0.60994 0.57728 0.92919 0.0
H732 H 0.56149 0.58763 0.88615 0.0
H733 H 0.59284 0.55821 0.89077 0.0
H734 H 0.55265 0.5175 0.83161 0.0
H735 H 0.56432 0.53406 0.87364 0.0
H736 H 0.56428 0.58275 0.84163 0.0
H737 H 0.55102 0.56556 0.80055 0.0
C738 C 0.58249 0.59669 0.91671 0.0
C739 C 0.59618 0.59394 0.92931 0.0
C740 C 0.57219 0.58534 0.89508 0.0
C741 C 0.57563 0.57123 0.88524 0.0
C742 C 0.58939 0.56856 0.89801 0.0
C743 C 0.5994 0.57966 0.91992 0.0
C744 C 0.55454 0.5315 0.8338 0.0
C745 C 0.55108 0.54025 0.81249 0.0
C746 C 0.56161 0.54119 0.85782 0.0
C747 C 0.5657 0.55997 0.86102 0.0
C748 C 0.56128 0.56831 0.84015 0.0
C749 C 0.55389 0.55851 0.81634 0.0
H750 H 0.01582 0.59984 0.94274 0.0
H751 H 0.96293 0.54769 0.95593 0.0
H752 H 0.02038 0.58672 0.90194 0.0
H753 H 0.96718 0.53478 0.91454 0.0
H754 H 0.98654 0.51207 0.84584 0.0
H755 H 0.98545 0.52366 0.89038 0.0
H756 H 0.00657 0.57973 0.85917 0.0
H757 H 0.00843 0.56843 0.81551 0.0
C758 C 0.00512 0.58559 0.93688 0.0
C759 C 0.98891 0.5749 0.95246 0.0
C760 C 0.00771 0.57807 0.91344 0.0
C761 C 0.99405 0.55974 0.90478 0.0
C762 C 0.97808 0.54885 0.92072 0.0
C763 C 0.97557 0.55633 0.94435 0.0
C764 C 0.99116 0.5269 0.84872 0.0
C765 C 0.99727 0.53926 0.82714 0.0
C766 C 0.99039 0.53352 0.87412 0.0
C767 C 0.99586 0.55263 0.87837 0.0
C768 C 0.00247 0.565 0.85681 0.0
C769 C 0.00327 0.55844 0.83163 0.0
H770 H 0.39245 0.40602 0.91205 0.0
H771 H 0.44359 0.41625 0.95195 0.0
H772 H 0.41105 0.42326 0.87387 0.0
H773 H 0.46246 0.43434 0.91414 0.0
H774 H 0.48486 0.44302 0.82813 0.0
H775 H 0.46918 0.42997 0.87011 0.0
H776 H 0.43283 0.45335 0.85748 0.0
H777 H 0.44807 0.4656 0.81488 0.0
C778 C 0.40772 0.41215 0.91274 0.0
C779 C 0.41656 0.40971 0.93491 0.0
C780 C 0.41846 0.42223 0.89094 0.0
C781 C 0.43833 0.43036 0.89092 0.0
C782 C 0.44718 0.42809 0.9133 0.0
C783 C 0.43638 0.41777 0.93501 0.0
C784 C 0.4738 0.4457 0.8347 0.0
C785 C 0.46759 0.45523 0.81837 0.0
C786 C 0.4648 0.43824 0.85877 0.0
C787 C 0.44952 0.44036 0.86709 0.0
C788 C 0.44419 0.45101 0.8514 0.0
C789 C 0.45301 0.4582 0.82716 0.0
H790 H 0.59172 0.03348 0.95694 0.0
H791 H 0.59765 0.98551 0.93618 0.0
H792 H 0.57399 0.02909 0.91628 0.0
H793 H 0.57934 0.98072 0.89587 0.0
H794 H 0.5701 0.99527 0.81174 0.0
H795 H 0.58371 0.99558 0.85446 0.0
H796 H 0.54488 0.00958 0.89235 0.0
H797 H 0.53176 0.01007 0.84897 0.0
C798 C 0.5891 0.02188 0.94381 0.0
C799 C 0.5963 0.00996 0.94973 0.0
C800 C 0.57874 0.01924 0.92057 0.0
C801 C 0.5752 0.00455 0.90271 0.0
C802 C 0.58204 0.99237 0.90894 0.0
C803 C 0.59253 0.99509 0.9321 0.0
C804 C 0.56442 0.99837 0.8292 0.0
C805 C 0.55009 0.00299 0.82696 0.0
C806 C 0.57208 0.99833 0.85379 0.0
C807 C 0.56553 0.00274 0.87694 0.0
C808 C 0.5505 0.00644 0.87487 0.0
C809 C 0.54282 0.00652 0.8501 0.0
H810 H 0.56656 0.97547 0.05846 0.0
H811 H 0.61314 0.01285 0.1098 0.0
H812 H 0.54399 0.97197 0.09263 0.0
H813 H 0.59073 0.00861 0.14458 0.0
H814 H 0.54792 0.00885 0.19853 0.0
H815 H 0.56781 0.01544 0.15943 0.0
H816 H 0.53188 0.95744 0.13305 0.0
H817 H 0.51161 0.95136 0.17143 0.0
C818 C 0.57197 0.98281 0.07718 0.0
C819 C 0.59162 0.99439 0.0815 0.0
C820 C 0.55903 0.98076 0.09686 0.0
C821 C 0.56543 0.98999 0.12151 0.0
C822 C 0.58515 0.00159 0.12572 0.0
C823 C 0.59807 0.00389 0.10587 0.0
C824 C 0.54407 0.99773 0.1839 0.0
C825 C 0.52823 0.97965 0.18784 0.0
C826 C 0.55558 0.00138 0.16168 0.0
C827 C 0.55173 0.9869 0.14319 0.0
C828 C 0.53526 0.96905 0.14658 0.0
C829 C 0.52358 0.96552 0.16859 0.0
H830 H 0.03418 0.60418 0.08542 0.0
H831 H 0.97322 0.57381 0.09449 0.0
H832 H 0.0372 0.58825 0.12372 0.0
H833 H 0.97598 0.55683 0.13191 0.0
H834 H 0.99045 0.54994 0.21734 0.0
H835 H 0.98485 0.56093 0.1759 0.0
H836 H 0.0333 0.56072 0.14166 0.0
H837 H 0.04 0.55158 0.18389 0.0
C838 C 0.0214 0.59385 0.09543 0.0
C839 C 0.00351 0.59035 0.08718 0.0
C840 C 0.02306 0.5845 0.11727 0.0
C841 C 0.00682 0.5711 0.13105 0.0
C842 C 0.98885 0.56727 0.12222 0.0
C843 C 0.98724 0.57695 0.1007 0.0
C844 C 0.99994 0.55226 0.20099 0.0
C845 C 0.01593 0.55025 0.20428 0.0
C846 C 0.99657 0.55832 0.17697 0.0
C847 C 0.00883 0.56211 0.15538 0.0
C848 C 0.02387 0.55854 0.15803 0.0
C849 C 0.0275 0.55288 0.18223 0.0
H850 H 0.4163 0.39951 0.08275 0.0
H851 H 0.42059 0.45275 0.0633 0.0
H852 H 0.434 0.41347 0.12344 0.0
H853 H 0.4379 0.46658 0.10448 0.0
H854 H 0.48062 0.48976 0.17295 0.0
H855 H 0.46747 0.47663 0.12903 0.0
H856 H 0.42737 0.42337 0.16481 0.0
H857 H 0.44084 0.43618 0.20804 0.0
C858 C 0.42097 0.41418 0.08717 0.0
C859 C 0.41684 0.42494 0.06988 0.0
C860 C 0.4311 0.42219 0.11054 0.0
C861 C 0.43725 0.44111 0.11732 0.0
C862 C 0.43355 0.45203 0.09972 0.0
C863 C 0.42348 0.44404 0.07622 0.0
C864 C 0.46917 0.47518 0.17123 0.0
C865 C 0.46158 0.46407 0.1939 0.0
C866 C 0.46154 0.46772 0.14619 0.0
C867 C 0.44632 0.44897 0.14343 0.0
C868 C 0.4392 0.43777 0.16611 0.0
C869 C 0.44677 0.4452 0.19097 0.0
H870 H 0.65212 0.73914 0.42236 0.0
H871 H 0.71333 0.76692 0.42276 0.0
H872 H 0.65344 0.76007 0.45782 0.0
H873 H 0.71478 0.78705 0.45942 0.0
H874 H 0.71521 0.82846 0.51675 0.0
H875 H 0.7116 0.81198 0.47494 0.0
H876 H 0.65865 0.76474 0.50251 0.0
H877 H 0.66148 0.78191 0.54303 0.0
C878 C 0.66586 0.74963 0.43029 0.0
C879 C 0.68262 0.75133 0.42001 0.0
C880 C 0.66665 0.76161 0.45071 0.0
C881 C 0.68422 0.77528 0.4618 0.0
C882 C 0.70099 0.77703 0.45118 0.0
C883 C 0.70019 0.76533 0.43034 0.0
C884 C 0.7025 0.81483 0.5135 0.0
C885 C 0.68877 0.8064 0.53344 0.0
C886 C 0.70058 0.80518 0.48967 0.0
C887 C 0.68503 0.78677 0.48537 0.0
C888 C 0.67079 0.77888 0.50478 0.0
C889 C 0.67253 0.78866 0.52831 0.0
H890 H 0.219 0.92885 0.39238 0.0
H891 H 0.27066 0.92823 0.40832 0.0
H892 H 0.2048 0.91063 0.43238 0.0
H893 H 0.2564 0.91002 0.4483 0.0
H894 H 0.2008 0.90314 0.52474 0.0
H895 H 0.21099 0.91728 0.4811 0.0
H896 H 0.22975 0.87787 0.46256 0.0
H897 H 0.21953 0.86374 0.50639 0.0
C898 C 0.22732 0.9248 0.40435 0.0
C899 C 0.24602 0.9301 0.39721 0.0
C900 C 0.21918 0.91438 0.42727 0.0
C901 C 0.22947 0.90885 0.44338 0.0
C902 C 0.24804 0.91388 0.43606 0.0
C903 C 0.25627 0.92447 0.4133 0.0
C904 C 0.20676 0.89729 0.51109 0.0
C905 C 0.2094 0.88239 0.51884 0.0
C906 C 0.21255 0.90533 0.48613 0.0
C907 C 0.2213 0.89877 0.46852 0.0
C908 C 0.22322 0.88332 0.47586 0.0
C909 C 0.2172 0.87511 0.50077 0.0
H910 H 0.06735 0.29422 0.39351 0.0
H911 H 0.0909 0.35449 0.40128 0.0
H912 H 0.08298 0.29418 0.43429 0.0
H913 H 0.10799 0.35497 0.44101 0.0
H914 H 0.1169 0.34585 0.52739 0.0
H915 H 0.10499 0.34808 0.48468 0.0
H916 H 0.10998 0.30089 0.4561 0.0
H917 H 0.11954 0.29718 0.49976 0.0
C918 C 0.07619 0.30753 0.40383 0.0
C919 C 0.07782 0.32432 0.39446 0.0
C920 C 0.08539 0.30761 0.42711 0.0
C921 C 0.09696 0.3246 0.4412 0.0
C922 C 0.09893 0.3415 0.43125 0.0
C923 C 0.08922 0.3413 0.40837 0.0
C924 C 0.11528 0.3358 0.51209 0.0
C925 C 0.11878 0.32104 0.51748 0.0
C926 C 0.10873 0.3373 0.48725 0.0
C927 C 0.10607 0.32444 0.46674 0.0
C928 C 0.11114 0.31068 0.47151 0.0
C929 C 0.11712 0.30882 0.4966 0.0
H930 H 0.06258 0.32155 0.2475 0.0
H931 H 0.10678 0.37543 0.27844 0.0
H932 H 0.08398 0.32265 0.21326 0.0
H933 H 0.12841 0.37644 0.24396 0.0
H934 H 0.14741 0.3783 0.15445 0.0
H935 H 0.13117 0.3793 0.19455 0.0
H936 H 0.11309 0.32076 0.20925 0.0
H937 H 0.12868 0.31955 0.16888 0.0
C938 C 0.0769 0.33364 0.24701 0.0
C939 C 0.083 0.34841 0.26567 0.0
C940 C 0.08923 0.33417 0.22754 0.0
C941 C 0.10795 0.34951 0.22616 0.0
C942 C 0.11405 0.36444 0.2446 0.0
C943 C 0.10169 0.36386 0.26428 0.0
C944 C 0.14024 0.36576 0.16654 0.0
C945 C 0.13915 0.3488 0.15835 0.0
C946 C 0.13105 0.36637 0.18956 0.0
C947 C 0.12059 0.35001 0.20474 0.0
C948 C 0.12077 0.3335 0.19765 0.0
C949 C 0.12993 0.33288 0.17469 0.0
H950 H 0.69963 0.75414 0.27769 0.0
H951 H 0.64669 0.75324 0.28825 0.0
H952 H 0.70619 0.77346 0.2384 0.0
H953 H 0.65282 0.77184 0.24848 0.0
H954 H 0.67164 0.81421 0.18387 0.0
H955 H 0.67131 0.80165 0.22772 0.0
H956 H 0.69534 0.76965 0.19452 0.0
H957 H 0.69656 0.78293 0.15143 0.0
C958 C 0.68934 0.75797 0.27154 0.0
C959 C 0.67257 0.75201 0.286 0.0
C960 C 0.69308 0.76904 0.24898 0.0
C961 C 0.68003 0.77423 0.24014 0.0
C962 C 0.66339 0.76847 0.25488 0.0
C963 C 0.65976 0.75759 0.27758 0.0
C964 C 0.67731 0.80489 0.18621 0.0
C965 C 0.68382 0.79929 0.16418 0.0
C966 C 0.6769 0.79749 0.21122 0.0
C967 C 0.68298 0.78434 0.21465 0.0
C968 C 0.69063 0.77977 0.19283 0.0
C969 C 0.69114 0.78724 0.16798 0.0
H970 H 0.26453 0.95163 0.23668 0.0
H971 H 0.2517 0.90133 0.2799 0.0
H972 H 0.25025 0.93237 0.19691 0.0
H973 H 0.23715 0.88205 0.24006 0.0
H974 H 0.19675 0.85545 0.16486 0.0
H975 H 0.20833 0.87335 0.20658 0.0
H976 H 0.26123 0.91255 0.16897 0.0
H977 H 0.2503 0.89446 0.12803 0.0
C978 C 0.25851 0.93645 0.23775 0.0
C979 C 0.25937 0.928 0.26133 0.0
C980 C 0.25037 0.92545 0.21501 0.0
C981 C 0.24265 0.90576 0.21549 0.0
C982 C 0.24291 0.89719 0.23926 0.0
C983 C 0.25134 0.90824 0.26195 0.0
C984 C 0.21091 0.86779 0.16558 0.0
C985 C 0.2224 0.87369 0.14286 0.0
C986 C 0.21748 0.87803 0.1894 0.0
C987 C 0.23554 0.89447 0.19076 0.0
C988 C 0.24709 0.90017 0.16826 0.0
C989 C 0.24071 0.88983 0.14473 0.0
H990 H 0.62463 0.87951 0.29216 0.0
H991 H 0.67615 0.93124 0.27188 0.0
H992 H 0.62756 0.86435 0.25206 0.0
H993 H 0.67901 0.91601 0.23187 0.0
H994 H 0.68801 0.87853 0.17469 0.0
H995 H 0.68487 0.88968 0.21838 0.0
H996 H 0.62537 0.86847 0.20297 0.0
H997 H 0.6285 0.85722 0.15934 0.0
C998 C 0.63661 0.88764 0.27922 0.0
C999 C 0.65013 0.90662 0.28519 0.0
C1000 C 0.63824 0.87894 0.25624 0.0
C1001 C 0.65355 0.88897 0.23893 0.0
C1002 C 0.66719 0.90786 0.24504 0.0
C1003 C 0.66545 0.91662 0.26785 0.0
C1004 C 0.67416 0.87582 0.18093 0.0
C1005 C 0.65849 0.86702 0.16366 0.0
C1006 C 0.67242 0.88239 0.20578 0.0
C1007 C 0.65492 0.88011 0.21394 0.0
C1008 C 0.63901 0.87036 0.19725 0.0
C1009 C 0.6408 0.86397 0.17229 0.0
H1010 H 0.06725 0.76347 0.25964 0.0
H1011 H 0.09978 0.73565 0.26783 0.0
H1012 H 0.08729 0.78177 0.22286 0.0
H1013 H 0.11907 0.75291 0.23011 0.0
H1014 H 0.15796 0.79052 0.16987 0.0
H1015 H 0.14236 0.7812 0.21243 0.0
H1016 H 0.09218 0.77811 0.17876 0.0
H1017 H 0.1085 0.78925 0.13697 0.0
C1018 C 0.07864 0.7612 0.2534 0.0
C1019 C 0.08192 0.74808 0.26639 0.0
C1020 C 0.0901 0.77163 0.23226 0.0
C1021 C 0.10484 0.76885 0.22329 0.0
C1022 C 0.10819 0.75584 0.23669 0.0
C1023 C 0.097 0.74573 0.25817 0.0
C1024 C 0.14388 0.78858 0.17174 0.0
C1025 C 0.13439 0.79034 0.14975 0.0
C1026 C 0.13474 0.78283 0.19612 0.0
C1027 C 0.11576 0.77832 0.19899 0.0
C1028 C 0.10678 0.78142 0.1775 0.0
C1029 C 0.11607 0.78757 0.1533 0.0
H1030 H 0.26328 0.31982 0.2721 0.0
H1031 H 0.256 0.36626 0.29733 0.0
H1032 H 0.2444 0.31572 0.23243 0.0
H1033 H 0.23715 0.36205 0.25787 0.0
H1034 H 0.23114 0.3652 0.16642 0.0
H1035 H 0.2451 0.36739 0.20992 0.0
H1036 H 0.21108 0.30663 0.21734 0.0
H1037 H 0.19703 0.30455 0.17355 0.0
C1038 C 0.2576 0.32909 0.26928 0.0
C1039 C 0.2613 0.34347 0.28782 0.0
C1040 C 0.24664 0.32661 0.24669 0.0
C1041 C 0.2393 0.33856 0.24207 0.0
C1042 C 0.24274 0.35271 0.2608 0.0
C1043 C 0.25354 0.3551 0.28344 0.0
C1044 C 0.22635 0.35239 0.17768 0.0
C1045 C 0.21298 0.33473 0.16687 0.0
C1046 C 0.23431 0.35362 0.20254 0.0
C1047 C 0.22924 0.33717 0.21697 0.0
C1048 C 0.21534 0.31952 0.20653 0.0
C1049 C 0.20717 0.31832 0.1817 0.0
H1050 H 0.24699 0.29891 0.41867 0.0
H1051 H 0.27771 0.35977 0.42693 0.0
H1052 H 0.22586 0.29648 0.45436 0.0
H1053 H 0.25596 0.35755 0.46159 0.0
H1054 H 0.22922 0.34516 0.54397 0.0
H1055 H 0.2486 0.34935 0.50544 0.0
H1056 H 0.20101 0.30083 0.46789 0.0
H1057 H 0.1821 0.29577 0.50749 0.0
C1058 C 0.24909 0.31179 0.428 0.0
C1059 C 0.2641 0.32951 0.42022 0.0
C1060 C 0.23683 0.31044 0.44829 0.0
C1061 C 0.23907 0.32682 0.46097 0.0
C1062 C 0.25395 0.34458 0.45274 0.0
C1063 C 0.26642 0.34589 0.43279 0.0
C1064 C 0.22287 0.3354 0.52746 0.0
C1065 C 0.20419 0.31995 0.52907 0.0
C1066 C 0.23395 0.33793 0.50513 0.0
C1067 C 0.22654 0.32528 0.48351 0.0
C1068 C 0.2074 0.31058 0.48438 0.0
C1069 C 0.19639 0.30787 0.50695 0.0
H1070 H 0.70061 0.94108 0.4162 0.0
H1071 H 0.63976 0.91036 0.42642 0.0
H1072 H 0.70416 0.92573 0.45494 0.0
H1073 H 0.64303 0.89398 0.46412 0.0
H1074 H 0.65726 0.88716 0.54913 0.0
H1075 H 0.65201 0.89852 0.50783 0.0
H1076 H 0.70077 0.89868 0.47402 0.0
H1077 H 0.70705 0.88904 0.51625 0.0
C1078 C 0.68797 0.93081 0.42657 0.0
C1079 C 0.66995 0.92706 0.41852 0.0
C1080 C 0.68995 0.92182 0.44866 0.0
C1081 C 0.67388 0.90852 0.46289 0.0
C1082 C 0.65579 0.90441 0.45418 0.0
C1083 C 0.65387 0.91373 0.43245 0.0
C1084 C 0.66691 0.88966 0.53292 0.0
C1085 C 0.68279 0.88749 0.53632 0.0
C1086 C 0.66374 0.89594 0.50896 0.0
C1087 C 0.6761 0.89983 0.48745 0.0
C1088 C 0.69121 0.89636 0.49028 0.0
C1089 C 0.69461 0.89043 0.51445 0.0
H1090 H 0.08259 0.78906 0.394 0.0
H1091 H 0.07908 0.73621 0.41383 0.0
H1092 H 0.1008 0.8035 0.43428 0.0
H1093 H 0.0972 0.75072 0.45429 0.0
H1094 H 0.14476 0.78785 0.51258 0.0
H1095 H 0.12974 0.77575 0.46931 0.0
H1096 H 0.09414 0.79994 0.48234 0.0
H1097 H 0.1093 0.81219 0.52526 0.0
C1098 C 0.08568 0.7805 0.40693 0.0
C1099 C 0.07929 0.76143 0.40073 0.0
C1100 C 0.09609 0.78879 0.43004 0.0
C1101 C 0.10044 0.77825 0.44739 0.0
C1102 C 0.09425 0.75926 0.4411 0.0
C1103 C 0.08373 0.75091 0.41805 0.0
C1104 C 0.13398 0.79086 0.5059 0.0
C1105 C 0.12814 0.80091 0.52221 0.0
C1106 C 0.12525 0.78378 0.48132 0.0
C1107 C 0.11069 0.7868 0.47255 0.0
C1108 C 0.1054 0.79749 0.48847 0.0
C1109 C 0.114 0.80441 0.51308 0.0
H1110 H 0.3751 0.11093 0.73097 0.0
H1111 H 0.33437 0.06271 0.77587 0.0
H1112 H 0.37767 0.13199 0.76712 0.0
H1113 H 0.33749 0.0836 0.81247 0.0
H1114 H 0.33479 0.12463 0.86777 0.0
H1115 H 0.33024 0.10661 0.82699 0.0
H1116 H 0.39025 0.14135 0.81025 0.0
H1117 H 0.39448 0.15973 0.85047 0.0
C1118 C 0.3668 0.10482 0.74867 0.0
C1119 C 0.35455 0.08516 0.75061 0.0
C1120 C 0.36831 0.1169 0.76945 0.0
C1121 C 0.35775 0.10957 0.79277 0.0
C1122 C 0.34554 0.08985 0.79464 0.0
C1123 C 0.34388 0.07781 0.77375 0.0
C1124 C 0.34687 0.12863 0.85496 0.0
C1125 C 0.36496 0.14354 0.86218 0.0
C1126 C 0.34435 0.11819 0.83177 0.0
C1127 C 0.35994 0.12225 0.8155 0.0
C1128 C 0.37787 0.13787 0.82209 0.0
C1129 C 0.38032 0.14846 0.84514 0.0
H1130 H 0.88561 0.25084 0.73102 0.0
H1131 H 0.93975 0.25359 0.73608 0.0
H1132 H 0.8759 0.23357 0.77238 0.0
H1133 H 0.92977 0.23564 0.77691 0.0
H1134 H 0.91594 0.22821 0.86559 0.0
H1135 H 0.92499 0.24074 0.82134 0.0
H1136 H 0.86692 0.20486 0.79491 0.0
H1137 H 0.85768 0.19305 0.83993 0.0
C1138 C 0.89536 0.24755 0.7408 0.0
C1139 C 0.91355 0.25379 0.7304 0.0
C1140 C 0.88971 0.23747 0.76444 0.0
C1141 C 0.90204 0.2332 0.77812 0.0
C1142 C 0.92002 0.23896 0.76722 0.0
C1143 C 0.92575 0.24923 0.74375 0.0
C1144 C 0.90509 0.22295 0.85033 0.0
C1145 C 0.88602 0.20992 0.85638 0.0
C1146 C 0.91033 0.22997 0.82479 0.0
C1147 C 0.89667 0.22399 0.80449 0.0
C1148 C 0.87775 0.21008 0.81018 0.0
C1149 C 0.87248 0.20312 0.83588 0.0
H1150 H 0.73096 0.67008 0.75016 0.0
H1151 H 0.75631 0.64237 0.70789 0.0
H1152 H 0.74351 0.66584 0.79162 0.0
H1153 H 0.7688 0.63814 0.74949 0.0
H1154 H 0.80262 0.65239 0.83001 0.0
H1155 H 0.79214 0.65712 0.78675 0.0
H1156 H 0.73592 0.63698 0.81805 0.0
H1157 H 0.74617 0.63193 0.86077 0.0
C1158 C 0.73931 0.66321 0.74966 0.0
C1159 C 0.7425 0.65644 0.72573 0.0
C1160 C 0.74641 0.6607 0.77342 0.0
C1161 C 0.75699 0.65152 0.77376 0.0
C1162 C 0.76076 0.64532 0.74978 0.0
C1163 C 0.7535 0.64767 0.72601 0.0
C1164 C 0.78798 0.64875 0.82746 0.0
C1165 C 0.77532 0.64212 0.8489 0.0
C1166 C 0.78201 0.65151 0.8028 0.0
C1167 C 0.76332 0.64776 0.79925 0.0
C1168 C 0.75053 0.64046 0.82041 0.0
C1169 C 0.75642 0.63757 0.84487 0.0
H1170 H 0.72968 0.65792 0.57847 0.0
H1171 H 0.77432 0.71087 0.61119 0.0
H1172 H 0.75159 0.65839 0.54554 0.0
H1173 H 0.79643 0.71126 0.57802 0.0
H1174 H 0.81684 0.71272 0.48909 0.0
H1175 H 0.80048 0.71432 0.52866 0.0
H1176 H 0.78025 0.65534 0.54351 0.0
H1177 H 0.79607 0.65358 0.50367 0.0
C1178 C 0.74419 0.66968 0.57862 0.0
C1179 C 0.75027 0.68436 0.59743 0.0
C1180 C 0.75681 0.66984 0.55993 0.0
C1181 C 0.77581 0.68471 0.55948 0.0
C1182 C 0.78188 0.69959 0.57798 0.0
C1183 C 0.76923 0.69937 0.5969 0.0
C1184 C 0.80925 0.70023 0.50118 0.0
C1185 C 0.80754 0.68297 0.49309 0.0
C1186 C 0.79996 0.70117 0.52388 0.0
C1187 C 0.78878 0.68485 0.53883 0.0
C1188 C 0.78848 0.66805 0.53204 0.0
C1189 C 0.79778 0.66711 0.50941 0.0
H1190 H 0.35799 0.08291 0.60364 0.0
H1191 H 0.30907 0.08513 0.63141 0.0
H1192 H 0.3599 0.10163 0.56524 0.0
H1193 H 0.31111 0.10389 0.59314 0.0
H1194 H 0.30681 0.11207 0.50237 0.0
H1195 H 0.30581 0.09767 0.54482 0.0
H1196 H 0.3666 0.13411 0.55287 0.0
H1197 H 0.36754 0.14848 0.51014 0.0
C1198 C 0.34767 0.0874 0.60161 0.0
C1199 C 0.33331 0.0824 0.62054 0.0
C1200 C 0.34889 0.09829 0.57974 0.0
C1201 C 0.33569 0.10428 0.57623 0.0
C1202 C 0.32142 0.09939 0.59523 0.0
C1203 C 0.32028 0.08864 0.61718 0.0
C1204 C 0.31987 0.11726 0.51353 0.0
C1205 C 0.33724 0.13137 0.50309 0.0
C1206 C 0.31932 0.10905 0.53782 0.0
C1207 C 0.33615 0.11465 0.55206 0.0
C1208 C 0.35344 0.12938 0.54216 0.0
C1209 C 0.35396 0.13775 0.51793 0.0
H1210 H 0.93483 0.23739 0.59518 0.0
H1211 H 0.90382 0.26674 0.58638 0.0
H1212 H 0.91808 0.21737 0.55729 0.0
H1213 H 0.88614 0.24598 0.54929 0.0
H1214 H 0.87802 0.22325 0.4639 0.0
H1215 H 0.88967 0.24065 0.50521 0.0
H1216 H 0.89007 0.19278 0.53962 0.0
H1217 H 0.87999 0.17603 0.49747 0.0
C1218 C 0.92419 0.23936 0.58533 0.0
C1219 C 0.92076 0.25373 0.59358 0.0
C1220 C 0.91439 0.22772 0.56371 0.0
C1221 C 0.90062 0.22992 0.55006 0.0
C1222 C 0.89686 0.24403 0.55888 0.0
C1223 C 0.90694 0.25591 0.58023 0.0
C1224 C 0.88056 0.2164 0.4803 0.0
C1225 C 0.87843 0.19837 0.47707 0.0
C1226 C 0.88704 0.22632 0.50423 0.0
C1227 C 0.89121 0.21833 0.52583 0.0
C1228 C 0.88757 0.19966 0.52325 0.0
C1229 C 0.8814 0.18986 0.49913 0.0
H1230 H 0.29794 0.21976 0.62319 0.0
H1231 H 0.35003 0.27312 0.61271 0.0
H1232 H 0.30345 0.20816 0.58146 0.0
H1233 H 0.35602 0.26131 0.57177 0.0
H1234 H 0.34897 0.24456 0.4854 0.0
H1235 H 0.34453 0.25476 0.52843 0.0
H1236 H 0.32223 0.19806 0.558 0.0
H1237 H 0.32556 0.1875 0.51389 0.0
C1238 C 0.31066 0.22895 0.61209 0.0
C1239 C 0.32343 0.24745 0.62106 0.0
C1240 C 0.31391 0.22224 0.58827 0.0
C1241 C 0.33012 0.23381 0.57308 0.0
C1242 C 0.34314 0.25213 0.58256 0.0
C1243 C 0.33975 0.25891 0.60612 0.0
C1244 C 0.34287 0.23415 0.50093 0.0
C1245 C 0.33723 0.21509 0.49602 0.0
C1246 C 0.34063 0.2401 0.52585 0.0
C1247 C 0.33303 0.22728 0.54683 0.0
C1248 C 0.32788 0.20828 0.5422 0.0
C1249 C 0.32997 0.20225 0.51703 0.0
H1250 H 0.7768 0.08465 0.61561 0.0
H1251 H 0.72496 0.07227 0.57551 0.0
H1252 H 0.79451 0.09725 0.57432 0.0
H1253 H 0.74258 0.08452 0.53448 0.0
H1254 H 0.77654 0.08098 0.46353 0.0
H1255 H 0.76114 0.07121 0.50627 0.0
H1256 H 0.80123 0.12585 0.5396 0.0
H1257 H 0.81637 0.1362 0.49616 0.0
C1258 C 0.76923 0.08465 0.59804 0.0
C1259 C 0.7495 0.0774 0.59868 0.0
C1260 C 0.77936 0.09196 0.57457 0.0
C1261 C 0.76982 0.09176 0.5514 0.0
C1262 C 0.75018 0.08472 0.55215 0.0
C1263 C 0.74014 0.07774 0.5756 0.0
C1264 C 0.78194 0.09112 0.47974 0.0
C1265 C 0.79742 0.10957 0.47622 0.0
C1266 C 0.7732 0.08542 0.50425 0.0
C1267 C 0.77993 0.09786 0.52599 0.0
C1268 C 0.79584 0.11605 0.52299 0.0
C1269 C 0.80447 0.12192 0.49822 0.0
H1270 H 0.929 0.70033 0.61782 0.0
H1271 H 0.92872 0.64789 0.6069 0.0
H1272 H 0.90959 0.69352 0.57821 0.0
H1273 H 0.90859 0.64063 0.56796 0.0
H1274 H 0.89548 0.64703 0.4819 0.0
H1275 H 0.91083 0.65027 0.52417 0.0
H1276 H 0.87926 0.67453 0.55817 0.0
H1277 H 0.86464 0.67222 0.51501 0.0
C1278 C 0.92466 0.68726 0.60707 0.0
C1279 C 0.9306 0.67476 0.61535 0.0
C1280 C 0.91332 0.68323 0.58448 0.0
C1281 C 0.90744 0.66649 0.56978 0.0
C1282 C 0.9131 0.65382 0.57845 0.0
C1283 C 0.92464 0.65797 0.60082 0.0
C1284 C 0.89175 0.653 0.49843 0.0
C1285 C 0.87913 0.65972 0.495 0.0
C1286 C 0.90041 0.65466 0.52284 0.0
C1287 C 0.8965 0.66287 0.54466 0.0
C1288 C 0.88294 0.66852 0.54166 0.0
C1289 C 0.87434 0.66696 0.51705 0.0
H1290 H 0.90233 0.64535 0.72272 0.0
H1291 H 0.94895 0.68359 0.77339 0.0
H1292 H 0.87978 0.64461 0.75496 0.0
H1293 H 0.92653 0.68209 0.80634 0.0
H1294 H 0.8854 0.68518 0.85883 0.0
H1295 H 0.90425 0.69042 0.8189 0.0
H1296 H 0.86704 0.63187 0.79589 0.0
H1297 H 0.84784 0.62717 0.83493 0.0
C1298 C 0.90774 0.65347 0.7409 0.0
C1299 C 0.9274 0.66443 0.74565 0.0
C1300 C 0.89481 0.65303 0.75944 0.0
C1301 C 0.90122 0.66329 0.78339 0.0
C1302 C 0.92096 0.67434 0.78795 0.0
C1303 C 0.93387 0.67503 0.7692 0.0
C1304 C 0.88091 0.67372 0.84458 0.0
C1305 C 0.86518 0.65581 0.84983 0.0
C1306 C 0.89186 0.67657 0.82194 0.0
C1307 C 0.88753 0.66145 0.80439 0.0
C1308 C 0.87084 0.64394 0.8087 0.0
C1309 C 0.85973 0.64121 0.83109 0.0
H1310 H 0.3619 0.25757 0.73532 0.0
H1311 H 0.32123 0.26412 0.78205 0.0
H1312 H 0.36903 0.24403 0.77363 0.0
H1313 H 0.32868 0.25099 0.82026 0.0
H1314 H 0.37207 0.25695 0.88525 0.0
H1315 H 0.36335 0.2665 0.8449 0.0
H1316 H 0.34857 0.2131 0.80805 0.0
H1317 H 0.35642 0.20285 0.84933 0.0
C1318 C 0.35444 0.25604 0.7537 0.0
C1319 C 0.34111 0.26201 0.7558 0.0
C1320 C 0.35843 0.24818 0.77546 0.0
C1321 C 0.34938 0.24652 0.79972 0.0
C1322 C 0.33582 0.25217 0.80168 0.0
C1323 C 0.33159 0.25968 0.77986 0.0
C1324 C 0.36662 0.24699 0.86883 0.0
C1325 C 0.36443 0.22888 0.87085 0.0
C1326 C 0.36178 0.25258 0.84566 0.0
C1327 C 0.35508 0.24042 0.82365 0.0
C1328 C 0.35367 0.22265 0.82494 0.0
C1329 C 0.35821 0.21685 0.84847 0.0
H1330 H 0.75435 0.12621 0.72642 0.0
H1331 H 0.75008 0.07351 0.74921 0.0
H1332 H 0.77177 0.14111 0.76721 0.0
H1333 H 0.76744 0.08845 0.78994 0.0
H1334 H 0.81344 0.12517 0.84923 0.0
H1335 H 0.79994 0.11377 0.80513 0.0
H1336 H 0.76376 0.13755 0.81564 0.0
H1337 H 0.77742 0.14912 0.85959 0.0
C1338 C 0.75718 0.11782 0.74006 0.0
C1339 C 0.75076 0.09864 0.7346 0.0
C1340 C 0.7671 0.12635 0.76342 0.0
C1341 C 0.771 0.11595 0.78168 0.0
C1342 C 0.76485 0.09688 0.77606 0.0
C1343 C 0.75477 0.08829 0.75283 0.0
C1344 C 0.80292 0.12832 0.84184 0.0
C1345 C 0.79644 0.138 0.85779 0.0
C1346 C 0.79506 0.12163 0.81676 0.0
C1347 C 0.7807 0.12465 0.80708 0.0
C1348 C 0.77487 0.1351 0.82253 0.0
C1349 C 0.78261 0.14164 0.84771 0.0
H1350 H 0.07671 0.39126 0.00119 0.0
H1351 H 0.03943 0.34025 0.0439 0.0
H1352 H 0.10302 0.38548 0.00768 0.0
H1353 H 0.06562 0.33454 0.05044 0.0
H1354 H 0.14492 0.38223 0.07015 0.0
H1355 H 0.12124 0.38694 0.04772 0.0
H1356 H 0.08852 0.32716 0.02935 0.0
H1357 H 0.11226 0.32251 0.05206 0.0
C1358 C 0.07406 0.37868 0.01162 0.0
C1359 C 0.05602 0.3663 0.02224 0.0
C1360 C 0.08913 0.3754 0.01537 0.0
C1361 C 0.08643 0.35955 0.02956 0.0
C1362 C 0.06815 0.34673 0.03908 0.0
C1363 C 0.05316 0.3501 0.03555 0.0
C1364 C 0.13305 0.37026 0.06036 0.0
C1365 C 0.13039 0.35202 0.06286 0.0
C1366 C 0.11945 0.37292 0.04753 0.0
C1367 C 0.10282 0.35736 0.03714 0.0
C1368 C 0.10105 0.33938 0.03751 0.0
C1369 C 0.11476 0.33674 0.05017 0.0
H1370 H 0.60061 0.6842 0.02346 0.0
H1371 H 0.6567 0.69434 0.00548 0.0
H1372 H 0.61432 0.71696 0.03814 0.0
H1373 H 0.67039 0.72734 0.01882 0.0
H1374 H 0.68855 0.77317 0.08319 0.0
H1375 H 0.67645 0.74383 0.05855 0.0
H1376 H 0.6301 0.74986 0.02918 0.0
H1377 H 0.64204 0.77918 0.05528 0.0
C1378 C 0.61586 0.69352 0.02224 0.0
C1379 C 0.62759 0.68659 0.01373 0.0
C1380 C 0.62374 0.71241 0.03041 0.0
C1381 C 0.64353 0.72489 0.02992 0.0
C1382 C 0.65514 0.7181 0.02012 0.0
C1383 C 0.64729 0.69915 0.0124 0.0
C1384 C 0.67594 0.76838 0.07111 0.0
C1385 C 0.66609 0.77829 0.07138 0.0
C1386 C 0.66903 0.75157 0.05674 0.0
C1387 C 0.65214 0.74424 0.04194 0.0
C1388 C 0.64296 0.75488 0.04075 0.0
C1389 C 0.64989 0.77178 0.05537 0.0
H1390 H 0.31328 0.96223 0.0217 0.0
H1391 H 0.31476 0.92307 0.96538 0.0
H1392 H 0.28075 0.93872 0.03299 0.0
H1393 H 0.28193 0.8998 0.97579 0.0
H1394 H 0.24084 0.85689 0.03814 0.0
H1395 H 0.26731 0.87986 0.01205 0.0
H1396 H 0.24795 0.91975 0.02238 0.0
H1397 H 0.22161 0.89669 0.04932 0.0
C1398 C 0.3065 0.94875 0.0113 0.0
C1399 C 0.31671 0.94439 0.99304 0.0
C1400 C 0.28774 0.93528 0.01758 0.0
C1401 C 0.27868 0.91723 0.00546 0.0
C1402 C 0.28855 0.91338 0.98592 0.0
C1403 C 0.30738 0.92674 0.97993 0.0
C1404 C 0.24175 0.87025 0.03391 0.0
C1405 C 0.22929 0.87508 0.046 0.0
C1406 C 0.25703 0.88354 0.01896 0.0
C1407 C 0.26008 0.9019 0.01558 0.0
C1408 C 0.24635 0.90594 0.02521 0.0
C1409 C 0.23113 0.89268 0.04037 0.0
H1410 H 0.34379 0.0391 0.96615 0.0
H1411 H 0.38645 0.06767 0.02691 0.0
H1412 H 0.34179 0.0673 0.96025 0.0
H1413 H 0.38407 0.096 0.02152 0.0
H1414 H 0.33581 0.11636 0.95317 0.0
H1415 H 0.33323 0.08919 0.97639 0.0
H1416 H 0.39413 0.11972 0.98813 0.0
H1417 H 0.39644 0.14701 0.96585 0.0
C1418 C 0.35247 0.0513 0.97869 0.0
C1419 C 0.36545 0.0512 -0.00323 0.0
C1420 C 0.35118 0.06749 0.9755 0.0
C1421 C 0.3628 0.08404 0.99039 0.0
C1422 C 0.37508 0.0836 0.00951 0.0
C1423 C 0.37638 0.06735 0.01268 0.0
C1424 C 0.34849 0.11746 0.96175 0.0
C1425 C 0.36632 0.13368 0.95765 0.0
C1426 C 0.34708 0.10185 0.97475 0.0
C1427 C 0.36353 0.10203 0.9835 0.0
C1428 C 0.38114 0.11902 0.98176 0.0
C1429 C 0.3825 0.13473 0.96903 0.0
H1430 H 0.92586 0.32353 0.00222 0.0
H1431 H 0.97281 0.31407 0.01308 0.0
H1432 H 0.90583 0.29083 0.98755 0.0
H1433 H 0.95257 0.28112 -0.00034 0.0
H1434 H 0.92154 0.2361 0.9348 0.0
H1435 H 0.94018 0.26521 0.95968 0.0
H1436 H 0.88891 0.25772 -0.00377 0.0
H1437 H 0.87008 0.22862 0.97001 0.0
C1438 C 0.93182 0.31437 0.0019 0.0
C1439 C 0.95103 0.32149 0.00838 0.0
C1440 C 0.92025 0.29551 0.99373 0.0
C1441 C 0.92755 0.28326 0.99216 0.0
C1442 C 0.94653 0.2902 -0.0 0.0
C1443 C 0.95816 0.30911 0.00776 0.0
C1444 C 0.91428 0.24052 0.94849 0.0
C1445 C 0.89437 0.23027 0.95026 0.0
C1446 C 0.92499 0.25718 0.96298 0.0
C1447 C 0.91611 0.26403 0.97991 0.0
C1448 C 0.89621 0.25307 0.98303 0.0
C1449 C 0.88542 0.23629 0.96832 0.0
H1450 H 0.69938 0.66983 -0.00417 0.0
H1451 H 0.67649 0.6095 -0.00384 0.0
H1452 H 0.73112 0.67493 0.98835 0.0
H1453 H 0.70762 0.61423 0.98638 0.0
H1454 H 0.76266 0.62222 0.96655 0.0
H1455 H 0.73824 0.62258 0.9937 0.0
H1456 H 0.74868 0.67385 0.955 0.0
H1457 H 0.7742 0.67439 0.93026 0.0
C1458 C 0.7012 0.65766 0.99428 0.0
C1459 C 0.68549 0.63928 -0.0037 0.0
C1460 C 0.71939 0.66052 0.98976 0.0
C1461 C 0.7222 0.64503 0.98616 0.0
C1462 C 0.70642 0.62665 0.9894 0.0
C1463 C 0.68838 0.62385 -0.00525 0.0
C1464 C 0.7603 0.63402 0.96479 0.0
C1465 C 0.77 0.64798 0.94565 0.0
C1466 C 0.74594 0.63403 0.97997 0.0
C1467 C 0.74066 0.64775 0.97588 0.0
C1468 C 0.75197 0.66288 0.9589 0.0
C1469 C 0.76661 0.66312 0.94433 0.0
H1470 H 0.96084 0.64263 0.98531 0.0
H1471 H 0.91298 0.59512 0.02274 0.0
H1472 H 0.93952 0.65223 0.96668 0.0
H1473 H 0.89172 0.60495 0.00413 0.0
H1474 H 0.86345 0.64031 0.97565 0.0
H1475 H 0.88503 0.6343 0.00229 0.0
H1476 H 0.9131 0.6322 0.93113 0.0
H1477 H 0.89138 0.63702 0.9047 0.0
C1478 C 0.94585 0.63442 0.98996 0.0
C1479 C 0.93859 0.61794 0.00519 0.0
C1480 C 0.93366 0.63994 0.97931 0.0
C1481 C 0.91401 0.62927 0.98394 0.0
C1482 C 0.90684 0.61347 0.00045 0.0
C1483 C 0.91901 0.60779 0.01087 0.0
C1484 C 0.87421 0.63853 0.96574 0.0
C1485 C 0.87591 0.63968 0.938 0.0
C1486 C 0.88657 0.63517 0.98098 0.0
C1487 C 0.90094 0.6332 0.96872 0.0
C1488 C 0.9025 0.6342 0.94114 0.0
C1489 C 0.89006 0.63714 0.926 0.0
H1490 H 0.39487 0.32767 0.03237 0.0
H1491 H 0.34948 0.3107 0.97549 0.0
H1492 H 0.3919 0.29654 0.02818 0.0
H1493 H 0.34677 0.27995 0.97091 0.0
H1494 H 0.33911 0.22421 0.967 0.0
H1495 H 0.33847 0.2501 0.99028 0.0
H1496 H 0.39986 0.28104 0.9937 0.0
H1497 H 0.40032 0.25489 0.97118 0.0
C1498 C 0.38411 0.31723 0.01922 0.0
C1499 C 0.37253 0.32171 0.00406 0.0
C1500 C 0.38244 0.29941 0.01679 0.0
C1501 C 0.36909 0.28569 -0.00077 0.0
C1502 C 0.35698 0.28998 0.985 0.0
C1503 C 0.35867 0.30774 0.9874 0.0
C1504 C 0.35238 0.23616 0.97396 0.0
C1505 C 0.36976 0.23764 0.96721 0.0
C1506 C 0.35206 0.25112 0.98693 0.0
C1507 C 0.36913 0.2679 0.99313 0.0
C1508 C 0.38643 0.26836 0.98924 0.0
C1509 C 0.38672 0.25331 0.97644 0.0
H1510 H 0.68764 0.08838 0.02044 0.0
H1511 H 0.69594 0.04302 0.99308 0.0
H1512 H 0.7197 0.11149 0.00657 0.0
H1513 H 0.72801 0.06627 0.9788 0.0
H1514 H 0.78933 0.11185 0.96834 0.0
H1515 H 0.76025 0.09104 0.99289 0.0
H1516 H 0.73483 0.12253 0.96386 0.0
H1517 H 0.76387 0.1433 0.93978 0.0
C1518 C 0.69631 0.0833 0.01157 0.0
C1519 C 0.68908 0.06379 0.00765 0.0
C1520 C 0.71471 0.09659 0.00357 0.0
C1521 C 0.72642 0.09077 0.99145 0.0
C1522 C 0.71946 0.07125 0.98835 0.0
C1523 C 0.701 0.05791 -0.00366 0.0
C1524 C 0.77773 0.11466 0.96801 0.0
C1525 C 0.77883 0.1292 0.95225 0.0
C1526 C 0.76099 0.1026 0.98172 0.0
C1527 C 0.74512 0.10497 0.98011 0.0
C1528 C 0.74678 0.12035 0.96574 0.0
C1529 C 0.76342 0.13227 0.95192 0.0
H1530 H 0.67085 0.97396 0.0473 0.0
H1531 H 0.61998 0.93612 0.00321 0.0
H1532 H 0.67582 0.94769 0.05672 0.0
H1533 H 0.62495 0.90974 0.01278 0.0
H1534 H 0.62703 0.86897 0.07755 0.0
H1535 H 0.62298 0.89296 0.05517 0.0
H1536 H 0.68281 0.92375 0.03653 0.0
H1537 H 0.68681 0.89967 0.059 0.0
C1538 C 0.66086 0.96008 0.03931 0.0
C1539 C 0.64495 0.95711 0.02465 0.0
C1540 C 0.66379 0.94504 0.04454 0.0
C1541 C 0.65077 0.92662 0.0355 0.0
C1542 C 0.63518 0.92375 0.02011 0.0
C1543 C 0.63237 0.93887 0.01458 0.0
C1544 C 0.63917 0.88056 0.06792 0.0
C1545 C 0.65722 0.88248 0.06999 0.0
C1546 C 0.63687 0.8943 0.05508 0.0
C1547 C 0.65262 0.91037 0.04433 0.0
C1548 C 0.67045 0.91162 0.04486 0.0
C1549 C 0.6727 0.89774 0.05744 0.0
H1550 H 0.03118 0.68804 0.04924 0.0
H1551 H 0.06283 0.67444 0.99371 0.0
H1552 H 0.05862 0.71952 0.0554 0.0
H1553 H 0.09038 0.70628 -0.00046 0.0
H1554 H 0.10559 0.77795 0.05665 0.0
H1555 H 0.0793 0.74984 0.03586 0.0
H1556 H 0.11335 0.72321 0.03477 0.0
H1557 H 0.13974 0.75159 0.05493 0.0
C1558 C 0.04392 0.69188 0.038 0.0
C1559 C 0.04485 0.67867 0.02113 0.0
C1560 C 0.05965 0.71004 0.04134 0.0
C1561 C 0.07676 0.71551 0.02791 0.0
C1562 C 0.07749 0.70249 0.01034 0.0
C1563 C 0.06168 0.68428 0.00693 0.0
C1564 C 0.10763 0.76633 0.05102 0.0
C1565 C 0.12462 0.76687 0.05745 0.0
C1566 C 0.09253 0.75014 0.03941 0.0
C1567 C 0.09404 0.73408 0.03423 0.0
C1568 C 0.11168 0.73532 0.03841 0.0
C1569 C 0.12686 0.75161 0.04988 0.0
H1570 H 0.32353 0.40425 0.01742 0.0
H1571 H 0.31586 0.34819 0.01208 0.0
H1572 H 0.29084 0.3908 0.03221 0.0
H1573 H 0.28291 0.33463 0.02575 0.0
H1574 H 0.23946 0.32289 0.09169 0.0
H1575 H 0.26815 0.33314 0.06626 0.0
H1576 H 0.25733 0.37224 0.02372 0.0
H1577 H 0.22866 0.36226 0.05035 0.0
C1578 C 0.31476 0.38901 0.01897 0.0
C1579 C 0.32239 0.37731 0.01403 0.0
C1580 C 0.29592 0.38127 0.0272 0.0
C1581 C 0.28422 0.36161 0.0304 0.0
C1582 C 0.29161 0.34986 0.02406 0.0
C1583 C 0.31051 0.35762 0.01619 0.0
C1584 C 0.24308 0.33349 0.07663 0.0
C1585 C 0.23205 0.34201 0.07322 0.0
C1586 C 0.25946 0.33927 0.06182 0.0
C1587 C 0.26521 0.35365 0.043 0.0
C1588 C 0.25347 0.36134 0.03836 0.0
C1589 C 0.23698 0.35552 0.05335 0.0
H1590 H 0.74368 0.72481 0.33514 0.0
H1591 H 0.70595 0.67455 0.37899 0.0
H1592 H 0.7697 0.71869 0.34225 0.0
H1593 H 0.73186 0.66849 0.38611 0.0
H1594 H 0.77807 0.65561 0.38763 0.0
H1595 H 0.75444 0.66047 0.36503 0.0
H1596 H 0.78776 0.72031 0.3828 0.0
H1597 H 0.81135 0.7154 0.40514 0.0
C1598 C 0.74087 0.71232 0.34596 0.0
C1599 C 0.72279 0.70025 0.35671 0.0
C1600 C 0.75578 0.70884 0.35006 0.0
C1601 C 0.75286 0.69311 0.36472 0.0
C1602 C 0.73455 0.68059 0.3744 0.0
C1603 C 0.71972 0.68416 0.37053 0.0
C1604 C 0.7807 0.66989 0.38569 0.0
C1605 C 0.79649 0.68514 0.39816 0.0
C1606 C 0.76707 0.67265 0.37307 0.0
C1607 C 0.76907 0.69072 0.37251 0.0
C1608 C 0.7858 0.70622 0.38277 0.0
C1609 C 0.79933 0.70344 0.39557 0.0
H1610 H 0.26688 0.02358 0.34527 0.0
H1611 H 0.32261 0.02969 0.34483 0.0
H1612 H 0.2805 0.05572 0.3625 0.0
H1613 H 0.33637 0.06211 0.36105 0.0
H1614 H 0.34702 0.10418 0.42883 0.0
H1615 H 0.3366 0.07588 0.40216 0.0
H1616 H 0.30025 0.08935 0.35679 0.0
H1617 H 0.31042 0.11769 0.38459 0.0
C1618 C 0.2821 0.03189 0.34842 0.0
C1619 C 0.29361 0.02394 0.34407 0.0
C1620 C 0.28995 0.05043 0.35809 0.0
C1621 C 0.30954 0.06154 0.36342 0.0
C1622 C 0.32117 0.05387 0.35773 0.0
C1623 C 0.31329 0.03526 0.34836 0.0
C1624 C 0.33697 0.10122 0.41293 0.0
C1625 C 0.32932 0.11295 0.40897 0.0
C1626 C 0.33111 0.08505 0.39741 0.0
C1627 C 0.31747 0.08019 0.37732 0.0
C1628 C 0.31057 0.09253 0.37235 0.0
C1629 C 0.31649 0.10883 0.38803 0.0
H1630 H 0.98324 0.29541 0.36121 0.0
H1631 H 0.98615 0.25647 0.30593 0.0
H1632 H 0.9513 0.27094 0.37367 0.0
H1633 H 0.95398 0.23223 0.31763 0.0
H1634 H 0.89104 0.22723 0.38609 0.0
H1635 H 0.91863 0.25123 0.36199 0.0
H1636 H 0.93959 0.21246 0.35454 0.0
H1637 H 0.91184 0.18849 0.3779 0.0
C1638 C 0.97693 0.28174 0.35136 0.0
C1639 C 0.98734 0.27781 0.33288 0.0
C1640 C 0.95852 0.26772 0.35834 0.0
C1641 C 0.95005 0.24951 0.34677 0.0
C1642 C 0.96017 0.24594 0.32731 0.0
C1643 C 0.97861 0.25988 0.32055 0.0
C1644 C 0.90132 0.22374 0.37857 0.0
C1645 C 0.89936 0.20605 0.38391 0.0
C1646 C 0.91721 0.23752 0.36502 0.0
C1647 C 0.93154 0.23394 0.35672 0.0
C1648 C 0.92881 0.21572 0.36038 0.0
C1649 C 0.91285 0.2019 0.37375 0.0
H1650 H 0.00854 0.37136 0.30751 0.0
H1651 H 0.05208 0.40108 0.36682 0.0
H1652 H 0.00463 0.39857 0.30332 0.0
H1653 H 0.04781 0.42841 0.36314 0.0
H1654 H 0.99594 0.44566 0.29756 0.0
H1655 H 0.99509 0.41939 0.3211 0.0
H1656 H 0.05622 0.45202 0.32976 0.0
H1657 H 0.05679 0.47841 0.30721 0.0
C1658 C 0.017 0.38358 0.32011 0.0
C1659 C 0.0308 0.38414 0.33723 0.0
C1660 C 0.01461 0.39919 0.31793 0.0
C1661 C 0.02593 0.41579 0.33287 0.0
C1662 C 0.03901 0.41595 0.35113 0.0
C1663 C 0.0414 0.40027 0.3533 0.0
C1664 C 0.00903 0.44746 0.30568 0.0
C1665 C 0.02643 0.46395 0.30055 0.0
C1666 C 0.00862 0.43236 0.31884 0.0
C1667 C 0.02564 0.43336 0.32663 0.0
C1668 C 0.04282 0.45071 0.32411 0.0
C1669 C 0.04318 0.4659 0.31123 0.0
H1670 H 0.63939 0.64909 0.34538 0.0
H1671 H 0.5931 0.65948 0.3339 0.0
H1672 H 0.61867 0.61609 0.33254 0.0
H1673 H 0.57258 0.62671 0.31986 0.0
H1674 H 0.5358 0.5645 0.30384 0.0
H1675 H 0.55522 0.59374 0.32954 0.0
H1676 H 0.60586 0.59979 0.29282 0.0
H1677 H 0.58662 0.57055 0.2684 0.0
C1678 C 0.62479 0.64434 0.34003 0.0
C1679 C 0.61798 0.65698 0.34033 0.0
C1680 C 0.61288 0.62539 0.33262 0.0
C1681 C 0.59393 0.61867 0.32485 0.0
C1682 C 0.58697 0.63122 0.32603 0.0
C1683 C 0.59881 0.65011 0.33383 0.0
C1684 C 0.55113 0.57187 0.30204 0.0
C1685 C 0.55974 0.56542 0.28408 0.0
C1686 C 0.56226 0.58872 0.31644 0.0
C1687 C 0.58215 0.59933 0.31308 0.0
C1688 C 0.59069 0.59204 0.2963 0.0
C1689 C 0.57964 0.57529 0.2821 0.0
H1690 H 0.35683 0.99447 0.29413 0.0
H1691 H 0.34381 0.95191 0.3532 0.0
H1692 H 0.38719 0.99675 0.28602 0.0
H1693 H 0.37462 0.95451 0.3455 0.0
H1694 H 0.41391 0.94404 0.28721 0.0
H1695 H 0.38838 0.94523 0.31047 0.0
H1696 H 0.41828 0.00601 0.30175 0.0
H1697 H 0.44347 0.00458 0.27769 0.0
C1698 C 0.3606 0.98582 0.30575 0.0
C1699 C 0.34781 0.97289 0.32413 0.0
C1700 C 0.37816 0.98726 0.30129 0.0
C1701 C 0.38346 0.97584 0.31514 0.0
C1702 C 0.37095 0.9634 0.33431 0.0
C1703 C 0.35332 0.96196 0.33878 0.0
C1704 C 0.41539 0.95772 0.29131 0.0
C1705 C 0.43057 0.97421 0.28056 0.0
C1706 C 0.4007 0.95843 0.30456 0.0
C1707 C 0.40101 0.97568 0.30742 0.0
C1708 C 0.41732 0.99242 0.29926 0.0
C1709 C 0.43189 0.99168 0.28581 0.0
H1710 H 0.61983 0.97214 0.31448 0.0
H1711 H 0.57753 0.92866 0.3644 0.0
H1712 H 0.59638 0.97989 0.2992 0.0
H1713 H 0.55426 0.93692 0.35004 0.0
H1714 H 0.5136 0.93713 0.28623 0.0
H1715 H 0.53616 0.93267 0.31179 0.0
H1716 H 0.57672 0.9927 0.30798 0.0
H1717 H 0.55418 0.99694 0.28151 0.0
C1718 C 0.60561 0.96447 0.32257 0.0
C1719 C 0.6005 0.94962 0.34038 0.0
C1720 C 0.59215 0.96901 0.31398 0.0
C1721 C 0.5733 0.95897 0.32325 0.0
C1722 C 0.56849 0.94471 0.34203 0.0
C1723 C 0.58187 0.94001 0.35035 0.0
C1724 C 0.52709 0.94946 0.29161 0.0
C1725 C 0.53216 0.96737 0.28181 0.0
C1726 C 0.54011 0.94692 0.30626 0.0
C1727 C 0.55846 0.96228 0.31166 0.0
C1728 C 0.56292 0.98047 0.30364 0.0
C1729 C 0.54995 0.98296 0.28874 0.0
H1730 H 0.05774 0.66383 0.35964 0.0
H1731 H 0.01197 0.64791 0.30377 0.0
H1732 H 0.05401 0.6324 0.3549 0.0
H1733 H 0.00845 0.61683 0.29873 0.0
H1734 H 0.05924 0.58794 0.29974 0.0
H1735 H 0.06061 0.61577 0.31993 0.0
H1736 H 0.99925 0.58699 0.31938 0.0
H1737 H 0.99803 0.5594 0.29856 0.0
C1738 C 0.04676 0.65357 0.34658 0.0
C1739 C 0.03523 0.6584 0.33194 0.0
C1740 C 0.04467 0.63559 0.34382 0.0
C1741 C 0.03092 0.62204 0.32649 0.0
C1742 C 0.01897 0.62674 0.31262 0.0
C1743 C 0.0211 0.64467 0.31531 0.0
C1744 C 0.04607 0.58732 0.30499 0.0
C1745 C 0.02854 0.57163 0.29749 0.0
C1746 C 0.04682 0.60329 0.31647 0.0
C1747 C 0.03003 0.60377 0.3207 0.0
C1748 C 0.01245 0.58725 0.31578 0.0
C1749 C 0.01172 0.57137 0.30416 0.0
H1750 H 0.36387 0.37897 0.32946 0.0
H1751 H 0.35308 0.42357 0.35225 0.0
H1752 H 0.39595 0.40268 0.31596 0.0
H1753 H 0.38517 0.44718 0.33909 0.0
H1754 H 0.43049 0.47786 0.27238 0.0
H1755 H 0.40133 0.45765 0.29664 0.0
H1756 H 0.42743 0.42838 0.33128 0.0
H1757 H 0.45662 0.44864 0.30663 0.0
C1758 C 0.36837 0.3938 0.33183 0.0
C1759 C 0.35578 0.39931 0.3417 0.0
C1760 C 0.38684 0.40741 0.32433 0.0
C1761 C 0.39314 0.42685 0.32645 0.0
C1762 C 0.38072 0.43234 0.33697 0.0
C1763 C 0.3623 0.41876 0.34453 0.0
C1764 C 0.43018 0.46755 0.28593 0.0
C1765 C 0.44578 0.46484 0.28775 0.0
C1766 C 0.41347 0.45592 0.2998 0.0
C1767 C 0.41196 0.44121 0.31564 0.0
C1768 C 0.42807 0.43941 0.31894 0.0
C1769 C 0.44487 0.45118 0.30519 0.0
H1770 H 0.2882 0.27034 0.3518 0.0
H1771 H 0.34744 0.31379 0.35145 0.0
H1772 H 0.29682 0.24667 0.36154 0.0
H1773 H 0.35633 0.29003 0.35909 0.0
H1774 H 0.36216 0.25145 0.41871 0.0
H1775 H 0.35692 0.27378 0.39484 0.0
H1776 H 0.3094 0.22736 0.35365 0.0
H1777 H 0.31428 0.20491 0.37927 0.0
C1778 C 0.30313 0.27471 0.35302 0.0
C1779 C 0.31715 0.29393 0.35135 0.0
C1780 C 0.30814 0.26109 0.35841 0.0
C1781 C 0.32734 0.26632 0.36164 0.0
C1782 C 0.34138 0.28542 0.3577 0.0
C1783 C 0.33633 0.29909 0.3531 0.0
C1784 C 0.35096 0.24608 0.40393 0.0
C1785 C 0.33862 0.22653 0.40078 0.0
C1786 C 0.34793 0.25891 0.39005 0.0
C1787 C 0.33254 0.25254 0.37232 0.0
C1788 C 0.32113 0.23286 0.36754 0.0
C1789 C 0.32406 0.21995 0.38183 0.0
H1790 H 0.72415 0.00877 0.3162 0.0
H1791 H 0.69536 0.023 0.37573 0.0
H1792 H 0.75182 0.0407 0.31979 0.0
H1793 H 0.72297 0.05453 0.37982 0.0
H1794 H 0.77053 0.11166 0.38325 0.0
H1795 H 0.74346 0.08487 0.36137 0.0
H1796 H 0.77633 0.05729 0.35235 0.0
H1797 H 0.80345 0.08438 0.37335 0.0
C1798 C 0.72363 0.01877 0.32981 0.0
C1799 C 0.70761 0.01328 0.34586 0.0
C1800 C 0.73952 0.03706 0.33193 0.0
C1801 C 0.73973 0.05026 0.35013 0.0
C1802 C 0.7233 0.04495 0.36524 0.0
C1803 C 0.70747 0.02673 0.3631 0.0
C1804 C 0.77219 0.10024 0.37538 0.0
C1805 C 0.78902 0.10003 0.38002 0.0
C1806 C 0.75661 0.08476 0.36323 0.0
C1807 C 0.75749 0.06863 0.3558 0.0
C1808 C 0.77507 0.06941 0.35775 0.0
C1809 C 0.79072 0.08501 0.36968 0.0
H1810 H 0.98673 0.73996 0.35013 0.0
H1811 H 0.97909 0.68489 0.33255 0.0
H1812 H 0.95375 0.72517 0.36422 0.0
H1813 H 0.94583 0.67008 0.34523 0.0
H1814 H 0.90206 0.65207 0.41238 0.0
H1815 H 0.93047 0.66433 0.38581 0.0
H1816 H 0.92048 0.70776 0.35578 0.0
H1817 H 0.89216 0.6957 0.38375 0.0
C1818 C 0.97787 0.7247 0.34876 0.0
C1819 C 0.98558 0.71355 0.34076 0.0
C1820 C 0.95887 0.7162 0.35658 0.0
C1821 C 0.94709 0.69637 0.35617 0.0
C1822 C 0.95457 0.68535 0.34647 0.0
C1823 C 0.97364 0.69383 0.33915 0.0
C1824 C 0.90576 0.66404 0.39971 0.0
C1825 C 0.89514 0.67315 0.40037 0.0
C1826 C 0.922 0.67101 0.38423 0.0
C1827 C 0.92798 0.68721 0.36875 0.0
C1828 C 0.91649 0.69548 0.36785 0.0
C1829 C 0.90017 0.68848 0.38356 0.0
H1830 H 0.37779 0.0096 0.70097 0.0
H1831 H 0.41351 0.06204 0.66029 0.0
H1832 H 0.40466 0.00481 0.70574 0.0
H1833 H 0.4406 0.05721 0.66507 0.0
H1834 H 0.48241 0.05381 0.72856 0.0
H1835 H 0.45907 0.05837 0.70492 0.0
H1836 H 0.4283 0.99905 0.68344 0.0
H1837 H 0.45165 0.99454 0.70739 0.0
C1838 C 0.39133 0.01997 0.69265 0.0
C1839 C 0.39356 0.03629 0.68049 0.0
C1840 C 0.40672 0.01712 0.69514 0.0
C1841 C 0.4248 0.03061 0.68572 0.0
C1842 C 0.42687 0.04659 0.67258 0.0
C1843 C 0.41136 0.04934 0.66983 0.0
C1844 C 0.47116 0.04197 0.71769 0.0
C1845 C 0.46876 0.02382 0.71991 0.0
C1846 C 0.45773 0.04455 0.70419 0.0
C1847 C 0.44159 0.02898 0.6928 0.0
C1848 C 0.44042 0.01126 0.69241 0.0
C1849 C 0.45394 0.00871 0.7058 0.0
H1850 H 0.92107 0.34421 0.67561 0.0
H1851 H 0.97871 0.35561 0.68235 0.0
H1852 H 0.93135 0.37617 0.69137 0.0
H1853 H 0.98891 0.38755 0.69838 0.0
H1854 H 0.00474 0.44817 0.71233 0.0
H1855 H 0.99301 0.41879 0.68661 0.0
H1856 H 0.94227 0.39228 0.73441 0.0
H1857 H 0.95398 0.42159 0.75979 0.0
C1858 C 0.93596 0.35354 0.68028 0.0
C1859 C 0.94903 0.34723 0.67791 0.0
C1860 C 0.94183 0.37187 0.68936 0.0
C1861 C 0.96093 0.38441 0.69618 0.0
C1862 C 0.97413 0.37833 0.69299 0.0
C1863 C 0.96824 0.35995 0.68402 0.0
C1864 C 0.99081 0.43623 0.71666 0.0
C1865 C 0.98022 0.43711 0.73794 0.0
C1866 C 0.9842 0.41935 0.70221 0.0
C1867 C 0.9668 0.40313 0.70865 0.0
C1868 C 0.95566 0.40451 0.72878 0.0
C1869 C 0.96234 0.42129 0.74334 0.0
H1870 H 0.66012 0.59096 0.66845 0.0
H1871 H 0.64362 0.63282 0.65812 0.0
H1872 H 0.62801 0.56781 0.68079 0.0
H1873 H 0.61081 0.60918 0.66854 0.0
H1874 H 0.56401 0.57161 0.72784 0.0
H1875 H 0.59173 0.59375 0.70324 0.0
H1876 H 0.5969 0.5473 0.67185 0.0
H1877 H 0.57045 0.52543 0.69905 0.0
C1878 C 0.64944 0.59507 0.66824 0.0
C1879 C 0.65441 0.61374 0.66261 0.0
C1880 C 0.63083 0.58166 0.67502 0.0
C1881 C 0.61649 0.5864 0.67571 0.0
C1882 C 0.6214 0.60497 0.66886 0.0
C1883 C 0.6402 0.61856 0.66276 0.0
C1884 C 0.57102 0.56609 0.71561 0.0
C1885 C 0.56542 0.5468 0.71637 0.0
C1886 C 0.58689 0.57884 0.70107 0.0
C1887 C 0.59721 0.57255 0.68614 0.0
C1888 C 0.58995 0.55289 0.68406 0.0
C1889 C 0.57441 0.54019 0.69927 0.0
H1890 H 0.6703 0.70478 0.67451 0.0
H1891 H 0.73086 0.74283 0.67069 0.0
H1892 H 0.66518 0.73146 0.67116 0.0
H1893 H 0.72602 0.76933 0.66468 0.0
H1894 H 0.71763 0.81616 0.64814 0.0
H1895 H 0.7186 0.79171 0.67376 0.0
H1896 H 0.66437 0.74997 0.63993 0.0
H1897 H 0.66269 0.77465 0.61695 0.0
C1898 C 0.68252 0.71894 0.673 0.0
C1899 C 0.70094 0.72177 0.67259 0.0
C1900 C 0.67964 0.7343 0.67078 0.0
C1901 C 0.69511 0.75279 0.66689 0.0
C1902 C 0.71362 0.75557 0.66795 0.0
C1903 C 0.71648 0.74028 0.67116 0.0
C1904 C 0.70554 0.80188 0.64722 0.0
C1905 C 0.69034 0.79725 0.62988 0.0
C1906 C 0.70626 0.78768 0.66147 0.0
C1907 C 0.69201 0.76849 0.65819 0.0
C1908 C 0.6758 0.76436 0.64319 0.0
C1909 C 0.67486 0.77859 0.62962 0.0
H1910 H 0.26143 0.98931 0.67653 0.0
H1911 H 0.31022 0.98235 0.66913 0.0
H1912 H 0.24089 0.95704 0.66056 0.0
H1913 H 0.2896 0.94979 0.6542 0.0
H1914 H 0.25258 0.9071 0.58928 0.0
H1915 H 0.27314 0.93538 0.61489 0.0
H1916 H 0.22621 0.92359 0.66656 0.0
H1917 H 0.20533 0.89531 0.63984 0.0
C1918 C 0.26775 0.98078 0.67192 0.0
C1919 C 0.28753 0.98852 0.67371 0.0
C1920 C 0.25591 0.96217 0.66298 0.0
C1921 C 0.26354 0.95075 0.65587 0.0
C1922 C 0.28324 0.95825 0.65895 0.0
C1923 C 0.29509 0.97693 0.66757 0.0
C1924 C 0.24673 0.91039 0.6064 0.0
C1925 C 0.22734 0.89918 0.61243 0.0
C1926 C 0.25857 0.92656 0.62127 0.0
C1927 C 0.25137 0.93196 0.64277 0.0
C1928 C 0.23217 0.92004 0.64986 0.0
C1929 C 0.22024 0.90375 0.63482 0.0
H1930 H 0.01055 0.28588 0.68253 0.0
H1931 H 0.01911 0.32574 0.6212 0.0
H1932 H 0.0423 0.29093 0.6744 0.0
H1933 H 0.05052 0.33047 0.61271 0.0
H1934 H 0.10968 0.34412 0.60736 0.0
H1935 H 0.08232 0.34292 0.62891 0.0
H1936 H 0.05742 0.28271 0.63978 0.0
H1937 H 0.08505 0.28413 0.61883 0.0
C1938 C 0.01927 0.29585 0.66748 0.0
C1939 C 0.01226 0.30534 0.65241 0.0
C1940 C 0.03743 0.29868 0.66276 0.0
C1941 C 0.04902 0.3111 0.6429 0.0
C1942 C 0.04219 0.32104 0.62848 0.0
C1943 C 0.02406 0.31821 0.63319 0.0
C1944 C 0.09863 0.33078 0.61523 0.0
C1945 C 0.09942 0.31421 0.61138 0.0
C1946 C 0.08286 0.33003 0.62728 0.0
C1947 C 0.06744 0.31264 0.63553 0.0
C1948 C 0.06903 0.29636 0.63377 0.0
C1949 C 0.08491 0.29715 0.62185 0.0
H1950 H 0.28711 0.31344 0.69188 0.0
H1951 H 0.24622 0.25561 0.67068 0.0
H1952 H 0.26419 0.32291 0.68025 0.0
H1953 H 0.22383 0.26506 0.65727 0.0
H1954 H 0.18264 0.28139 0.63757 0.0
H1955 H 0.20271 0.27492 0.66574 0.0
H1956 H 0.25143 0.32864 0.64402 0.0
H1957 H 0.23102 0.33579 0.61818 0.0
C1958 C 0.27322 0.30278 0.68461 0.0
C1959 C 0.2685 0.28382 0.682 0.0
C1960 C 0.26005 0.30819 0.67781 0.0
C1961 C 0.24202 0.29485 0.66756 0.0
C1962 C 0.23728 0.27578 0.6656 0.0
C1963 C 0.25025 0.27033 0.67301 0.0
C1964 C 0.19747 0.29217 0.63975 0.0
C1965 C 0.20529 0.30891 0.62502 0.0
C1966 C 0.20914 0.28829 0.6555 0.0
C1967 C 0.22895 0.30086 0.65644 0.0
C1968 C 0.23635 0.31845 0.64388 0.0
C1969 C 0.22462 0.32251 0.62871 0.0
H1970 H 0.72469 0.99784 0.69655 0.0
H1971 H 0.67875 0.98369 0.64171 0.0
H1972 H 0.72008 0.96614 0.69061 0.0
H1973 H 0.67444 0.95241 0.63531 0.0
H1974 H 0.66344 0.89489 0.63082 0.0
H1975 H 0.66491 0.92209 0.65329 0.0
H1976 H 0.72621 0.94983 0.65542 0.0
H1977 H 0.72455 0.92231 0.63378 0.0
C1978 C 0.71346 0.9879 0.68349 0.0
C1979 C 0.70217 0.99333 0.66945 0.0
C1980 C 0.71088 0.96976 0.68 0.0
C1981 C 0.69691 0.95667 0.66246 0.0
C1982 C 0.68513 0.96193 0.64934 0.0
C1983 C 0.68771 0.97999 0.65281 0.0
C1984 C 0.67715 0.90652 0.63711 0.0
C1985 C 0.69388 0.90658 0.63055 0.0
C1986 C 0.67804 0.92219 0.64967 0.0
C1987 C 0.6957 0.93837 0.65557 0.0
C1988 C 0.71235 0.93763 0.65128 0.0
C1989 C 0.71143 0.92183 0.63893 0.0
H1990 H 0.02339 0.75511 0.68639 0.0
H1991 H 0.03158 0.70997 0.65764 0.0
H1992 H 0.05556 0.7783 0.67324 0.0
H1993 H 0.0638 0.73334 0.644 0.0
H1994 H 0.12486 0.77863 0.63287 0.0
H1995 H 0.09607 0.7579 0.65808 0.0
H1996 H 0.07067 0.78985 0.63083 0.0
H1997 H 0.0994 0.81047 0.60608 0.0
C1998 C 0.03206 0.75008 0.67735 0.0
C1999 C 0.02476 0.73063 0.6728 0.0
C2000 C 0.05055 0.76344 0.66979 0.0
C2001 C 0.06226 0.75773 0.65742 0.0
C2002 C 0.05525 0.73824 0.65376 0.0
C2003 C 0.03671 0.72483 0.66137 0.0
C2004 C 0.11336 0.7816 0.63321 0.0
C2005 C 0.11433 0.79618 0.61773 0.0
C2006 C 0.09678 0.76958 0.64726 0.0
C2007 C 0.08096 0.77206 0.64622 0.0
C2008 C 0.08259 0.78758 0.63229 0.0
C2009 C 0.09906 0.79946 0.61814 0.0
H2010 H 0.95389 0.60262 0.66798 0.0
H2011 H 0.00493 0.63901 0.71271 0.0
H2012 H 0.95818 0.57567 0.67635 0.0
H2013 H 0.00926 0.61217 0.72086 0.0
H2014 H 0.0192 0.56357 0.72105 0.0
H2015 H 0.01559 0.58803 0.69892 0.0
H2016 H 0.95593 0.55822 0.71857 0.0
H2017 H 0.95966 0.53395 0.74078 0.0
C2018 C 0.96618 0.60493 0.67925 0.0
C2019 C 0.97901 0.62294 0.68984 0.0
C2020 C 0.9686 0.58949 0.68407 0.0
C2021 C 0.98407 0.59179 0.69921 0.0
C2022 C 0.99733 0.60997 0.70883 0.0
C2023 C 0.99476 0.62533 0.70434 0.0
C2024 C 0.00518 0.56189 0.71962 0.0
C2025 C 0.98967 0.54685 0.73242 0.0
C2026 C 0.00316 0.57599 0.70729 0.0
C2027 C 0.98553 0.57516 0.70728 0.0
C2028 C 0.96967 0.55922 0.71808 0.0
C2029 C 0.97176 0.54528 0.73071 0.0
H2030 H 0.39121 0.34759 0.65949 0.0
H2031 H 0.36263 0.357 0.72463 0.0
H2032 H 0.41758 0.38022 0.6638 0.0
H2033 H 0.38897 0.38927 0.72932 0.0
H2034 H 0.43327 0.44857 0.73074 0.0
H2035 H 0.40646 0.42037 0.71091 0.0
H2036 H 0.443 0.39755 0.69536 0.0
H2037 H 0.46978 0.42594 0.71454 0.0
C2038 C 0.39047 0.35667 0.67456 0.0
C2039 C 0.37488 0.34966 0.69185 0.0
C2040 C 0.4056 0.37535 0.67708 0.0
C2041 C 0.40544 0.38743 0.69688 0.0
C2042 C 0.38949 0.38055 0.71351 0.0
C2043 C 0.37442 0.36193 0.71101 0.0
C2044 C 0.43567 0.43783 0.72209 0.0
C2045 C 0.45355 0.43937 0.72431 0.0
C2046 C 0.42029 0.42157 0.71103 0.0
C2047 C 0.42244 0.40644 0.70219 0.0
C2048 C 0.44079 0.40889 0.70191 0.0
C2049 C 0.45621 0.42523 0.71281 0.0
H2050 H 0.65059 0.02655 0.6868 0.0
H2051 H 0.66044 0.08264 0.67172 0.0
H2052 H 0.61829 0.01654 0.70089 0.0
H2053 H 0.62811 0.07252 0.68572 0.0
H2054 H 0.58357 0.05231 0.75568 0.0
H2055 H 0.61269 0.06369 0.73014 0.0
H2056 H 0.58656 0.01123 0.68547 0.0
H2057 H 0.55734 0.99988 0.71121 0.0
C2058 C 0.64583 0.03669 0.68625 0.0
C2059 C 0.65818 0.05544 0.6784 0.0
C2060 C 0.62725 0.0309 0.69405 0.0
C2061 C 0.62069 0.04376 0.69435 0.0
C2062 C 0.63283 0.06235 0.6858 0.0
C2063 C 0.65135 0.06811 0.6778 0.0
C2064 C 0.58389 0.04351 0.7398 0.0
C2065 C 0.56832 0.02527 0.73532 0.0
C2066 C 0.60052 0.05 0.72517 0.0
C2067 C 0.60194 0.03825 0.70602 0.0
C2068 C 0.58588 0.02048 0.70032 0.0
C2069 C 0.56914 0.01408 0.71478 0.0
loop_
_geom_bond_atom_site_label_1
_geom_bond_atom_site_label_2
_geom_bond_distance
_geom_bond_site_symmetry_2
_ccdc_geom_bond_type
C0 O1 1.306 1_556 S
C0 O3 1.160 . S
O1 C0 1.306 1_554 S
O1 Cd2 2.228 . S
Cd2 O1 2.228 . S
Cd2 O6 2.273 . S
Cd2 O10 2.277 1_554 S
O3 C0 1.160 . S
O3 Cd4 2.203 1_656 S
Cd4 O3 2.203 1_454 S
Cd4 O6 2.411 1_455 S
Cd4 O7 2.333 . S
Cd4 O8 2.352 . S
Cd4 O12 2.277 1_554 S
Cd4 O13 2.356 . S
C5 O10 1.209 1_455 S
C5 O12 1.226 . S
O6 Cd2 2.273 . S
O6 Cd4 2.411 1_655 S
O6 C9 1.320 1_655 S
O7 Cd4 2.333 . S
O7 C9 1.214 . S
O8 Cd4 2.352 . S
O8 C11 1.258 . S
C9 O6 1.320 1_455 S
C9 O7 1.214 . S
O10 Cd2 2.277 1_556 S
O10 C5 1.209 1_655 S
C11 O8 1.258 . S
C11 O13 1.282 . S
O12 Cd4 2.277 1_556 S
O12 C5 1.226 . S
O13 Cd4 2.356 . S
O13 C11 1.282 . S
C14 O15 1.306 . S
C14 O17 1.160 . S
O15 C14 1.306 . S
O15 Cd16 2.228 . S
Cd16 O15 2.228 . S
Cd16 O20 2.273 1_554 S
Cd16 O24 2.277 . S
O17 C14 1.160 . S
O17 Cd18 2.203 . S
Cd18 O17 2.203 . S
Cd18 O20 2.411 1_554 S
Cd18 O21 2.333 1_554 S
Cd18 O22 2.352 1_554 S
Cd18 O26 2.277 . S
Cd18 O27 2.356 . S
C19 O24 1.209 . S
C19 O26 1.226 . S
O20 Cd16 2.273 1_556 S
O20 Cd18 2.411 1_556 S
O20 C23 1.320 . S
O21 Cd18 2.333 1_556 S
O21 C23 1.214 . S
O22 Cd18 2.352 1_556 S
O22 C25 1.258 . S
C23 O20 1.320 . S
C23 O21 1.214 . S
O24 Cd16 2.277 . S
O24 C19 1.209 . S
C25 O22 1.258 . S
C25 O27 1.282 1_556 S
O26 Cd18 2.277 . S
O26 C19 1.226 . S
O27 Cd18 2.356 . S
O27 C25 1.282 1_554 S
C28 O29 1.306 . S
C28 O31 1.160 . S
O29 C28 1.306 . S
O29 Cd30 2.228 . S
Cd30 O29 2.228 . S
Cd30 O34 2.273 1_554 S
Cd30 O38 2.277 . S
O31 C28 1.160 . S
O31 Cd32 2.203 1_565 S
Cd32 O31 2.203 1_545 S
Cd32 O34 2.411 1_544 S
Cd32 O35 2.333 1_554 S
Cd32 O36 2.352 1_554 S
Cd32 O40 2.277 . S
Cd32 O41 2.356 . S
C33 O38 1.209 1_545 S
C33 O40 1.226 . S
O34 Cd30 2.273 1_556 S
O34 Cd32 2.411 1_566 S
O34 C37 1.320 1_565 S
O35 Cd32 2.333 1_556 S
O35 C37 1.214 . S
O36 Cd32 2.352 1_556 S
O36 C39 1.258 . S
C37 O34 1.320 1_545 S
C37 O35 1.214 . S
O38 Cd30 2.277 . S
O38 C33 1.209 1_565 S
C39 O36 1.258 . S
C39 O41 1.282 1_556 S
O40 Cd32 2.277 . S
O40 C33 1.226 . S
O41 Cd32 2.356 . S
O41 C39 1.282 1_554 S
C42 O43 1.306 1_556 S
C42 O45 1.160 . S
O43 C42 1.306 1_554 S
O43 Cd44 2.228 . S
Cd44 O43 2.228 . S
Cd44 O48 2.273 . S
Cd44 O52 2.277 1_554 S
O45 C42 1.160 . S
O45 Cd46 2.203 1_656 S
Cd46 O45 2.203 1_454 S
Cd46 O48 2.411 1_455 S
Cd46 O49 2.333 . S
Cd46 O50 2.352 . S
Cd46 O54 2.277 1_554 S
Cd46 O55 2.356 . S
C47 O52 1.209 1_455 S
C47 O54 1.226 . S
O48 Cd44 2.273 . S
O48 Cd46 2.411 1_655 S
O48 C51 1.320 1_655 S
O49 Cd46 2.333 . S
O49 C51 1.214 . S
O50 Cd46 2.352 . S
O50 C53 1.258 . S
C51 O48 1.320 1_455 S
C51 O49 1.214 . S
O52 Cd44 2.277 1_556 S
O52 C47 1.209 1_655 S
C53 O50 1.258 . S
C53 O55 1.282 . S
O54 Cd46 2.277 1_556 S
O54 C47 1.226 . S
O55 Cd46 2.356 . S
O55 C53 1.282 . S
C56 O57 1.306 . S
C56 O59 1.160 . S
O57 C56 1.306 . S
O57 Cd58 2.228 . S
Cd58 O57 2.228 . S
Cd58 O62 2.273 1_554 S
Cd58 O66 2.277 . S
O59 C56 1.160 . S
O59 Cd60 2.203 . S
Cd60 O59 2.203 . S
Cd60 O62 2.411 1_554 S
Cd60 O63 2.333 1_554 S
Cd60 O64 2.352 1_554 S
Cd60 O68 2.277 . S
Cd60 O69 2.356 . S
C61 O66 1.209 . S
C61 O68 1.226 . S
O62 Cd58 2.273 1_556 S
O62 Cd60 2.411 1_556 S
O62 C65 1.320 . S
O63 Cd60 2.333 1_556 S
O63 C65 1.214 . S
O64 Cd60 2.352 1_556 S
O64 C67 1.258 . S
C65 O62 1.320 . S
C65 O63 1.214 . S
O66 Cd58 2.277 . S
O66 C61 1.209 . S
C67 O64 1.258 . S
C67 O69 1.282 1_556 S
O68 Cd60 2.277 . S
O68 C61 1.226 . S
O69 Cd60 2.356 . S
O69 C67 1.282 1_554 S
C70 O71 1.306 1_556 S
C70 O73 1.160 . S
O71 C70 1.306 1_554 S
O71 Cd72 2.228 . S
Cd72 O71 2.228 . S
Cd72 O76 2.273 . S
Cd72 O80 2.277 1_554 S
O73 C70 1.160 . S
O73 Cd74 2.203 1_546 S
Cd74 O73 2.203 1_564 S
Cd74 O76 2.411 1_565 S
Cd74 O77 2.333 . S
Cd74 O78 2.352 . S
Cd74 O82 2.277 1_554 S
Cd74 O83 2.356 . S
C75 O80 1.181 1_565 S
C75 O82 1.265 . S
O76 Cd72 2.273 . S
O76 Cd74 2.411 1_545 S
O76 C79 1.340 . S
O77 Cd74 2.333 . S
O77 C79 1.172 1_565 S
O78 Cd74 2.352 . S
O78 C81 1.258 . S
C79 O76 1.340 . S
C79 O77 1.172 1_545 S
O80 Cd72 2.277 1_556 S
O80 C75 1.181 1_545 S
C81 O78 1.258 . S
C81 O83 1.282 . S
O82 Cd74 2.277 1_556 S
O82 C75 1.265 . S
O83 Cd74 2.356 . S
O83 C81 1.282 . S
C84 O85 1.306 . S
C84 O87 1.160 . S
O85 C84 1.306 . S
O85 Cd86 2.228 . S
Cd86 O85 2.228 . S
Cd86 O90 2.273 . S
Cd86 O94 2.277 . S
O87 C84 1.160 . S
O87 Cd88 2.203 . S
Cd88 O87 2.203 . S
Cd88 O90 2.411 . S
Cd88 O91 2.333 . S
Cd88 O92 2.352 . S
Cd88 O96 2.277 . S
Cd88 O97 2.356 . S
C89 O94 1.209 . S
C89 O96 1.226 . S
O90 Cd86 2.273 . S
O90 Cd88 2.411 . S
O90 C93 1.320 . S
O91 Cd88 2.333 . S
O91 C93 1.214 . S
O92 Cd88 2.352 . S
O92 C95 1.258 . S
C93 O90 1.320 . S
C93 O91 1.214 . S
O94 Cd86 2.277 . S
O94 C89 1.209 . S
C95 O92 1.258 . S
C95 O97 1.282 . S
O96 Cd88 2.277 . S
O96 C89 1.226 . S
O97 Cd88 2.356 . S
O97 C95 1.282 . S
C98 O99 1.306 . S
C98 O101 1.160 . S
O99 C98 1.306 . S
O99 Cd100 2.228 1_545 S
Cd100 O99 2.228 1_565 S
Cd100 O104 2.273 . S
Cd100 O108 2.277 . S
O101 C98 1.160 . S
O101 Cd102 2.203 1_545 S
Cd102 O101 2.203 1_565 S
Cd102 O104 2.411 . S
Cd102 O105 2.333 . S
Cd102 O106 2.352 . S
Cd102 O110 2.277 . S
Cd102 O111 2.356 . S
C103 O108 1.209 . S
C103 O110 1.226 . S
O104 Cd100 2.273 . S
O104 Cd102 2.411 . S
O104 C107 1.320 . S
O105 Cd102 2.333 . S
O105 C107 1.214 . S
O106 Cd102 2.352 . S
O106 C109 1.258 . S
C107 O104 1.320 . S
C107 O105 1.214 . S
O108 Cd100 2.277 . S
O108 C103 1.209 . S
C109 O106 1.258 . S
C109 O111 1.282 . S
O110 Cd102 2.277 . S
O110 C103 1.226 . S
O111 Cd102 2.356 . S
O111 C109 1.282 . S
C112 O113 1.306 . S
C112 O115 1.160 . S
O113 C112 1.306 . S
O113 Cd114 2.228 1_655 S
Cd114 O113 2.228 1_455 S
Cd114 O118 2.273 . S
Cd114 O122 2.277 . S
O115 C112 1.160 . S
O115 Cd116 2.203 1_655 S
Cd116 O115 2.203 1_455 S
Cd116 O118 2.411 . S
Cd116 O119 2.333 . S
Cd116 O120 2.352 . S
Cd116 O124 2.277 . S
Cd116 O125 2.356 . S
C117 O122 1.209 . S
C117 O124 1.226 . S
O118 Cd114 2.273 . S
O118 Cd116 2.411 . S
O118 C121 1.320 . S
O119 Cd116 2.333 . S
O119 C121 1.214 . S
O120 Cd116 2.352 . S
O120 C123 1.258 . S
C121 O118 1.320 . S
C121 O119 1.214 . S
O122 Cd114 2.277 . S
O122 C117 1.209 . S
C123 O120 1.258 . S
C123 O125 1.282 . S
O124 Cd116 2.277 . S
O124 C117 1.226 . S
O125 Cd116 2.356 . S
O125 C123 1.282 . S
C126 O127 1.306 . S
C126 O129 1.160 . S
O127 C126 1.306 . S
O127 Cd128 2.228 . S
Cd128 O127 2.228 . S
Cd128 O132 2.273 . S
Cd128 O136 2.277 . S
O129 C126 1.160 . S
O129 Cd130 2.203 . S
Cd130 O129 2.203 . S
Cd130 O132 2.411 . S
Cd130 O133 2.333 . S
Cd130 O134 2.352 1_565 S
Cd130 O138 2.277 . S
Cd130 O139 2.356 1_565 S
C131 O136 1.209 . S
C131 O138 1.226 . S
O132 Cd128 2.273 . S
O132 Cd130 2.411 . S
O132 C135 1.320 . S
O133 Cd130 2.333 . S
O133 C135 1.214 . S
O134 Cd130 2.352 1_545 S
O134 C137 1.258 . S
C135 O132 1.320 . S
C135 O133 1.214 . S
O136 Cd128 2.277 . S
O136 C131 1.209 . S
C137 O134 1.258 . S
C137 O139 1.282 . S
O138 Cd130 2.277 . S
O138 C131 1.226 . S
O139 Cd130 2.356 1_545 S
O139 C137 1.282 . S
C140 O141 1.306 . S
C140 O143 1.160 . S
O141 C140 1.306 . S
O141 Cd142 2.228 1_655 S
Cd142 O141 2.228 1_455 S
Cd142 O146 2.273 . S
Cd142 O150 2.277 . S
O143 C140 1.160 . S
O143 Cd144 2.203 1_655 S
Cd144 O143 2.203 1_455 S
Cd144 O146 2.411 . S
Cd144 O147 2.333 . S
Cd144 O148 2.352 . S
Cd144 O152 2.277 . S
Cd144 O153 2.356 . S
C145 O150 1.209 . S
C145 O152 1.226 . S
O146 Cd142 2.273 . S
O146 Cd144 2.411 . S
O146 C149 1.320 . S
O147 Cd144 2.333 . S
O147 C149 1.214 . S
O148 Cd144 2.352 . S
O148 C151 1.258 . S
C149 O146 1.320 . S
C149 O147 1.214 . S
O150 Cd142 2.277 . S
O150 C145 1.209 . S
C151 O148 1.258 . S
C151 O153 1.282 . S
O152 Cd144 2.277 . S
O152 C145 1.226 . S
O153 Cd144 2.356 . S
O153 C151 1.282 . S
C154 O155 1.306 . S
C154 O157 1.160 . S
O155 C154 1.306 . S
O155 Cd156 2.228 . S
Cd156 O155 2.228 . S
Cd156 O160 2.273 . S
Cd156 O164 2.277 . S
O157 C154 1.160 . S
O157 Cd158 2.203 . S
Cd158 O157 2.203 . S
Cd158 O160 2.411 . S
Cd158 O161 2.333 . S
Cd158 O162 2.352 . S
Cd158 O166 2.277 . S
Cd158 O167 2.356 . S
C159 O164 1.209 . S
C159 O166 1.226 . S
O160 Cd156 2.273 . S
O160 Cd158 2.411 . S
O160 C163 1.320 . S
O161 Cd158 2.333 . S
O161 C163 1.214 . S
O162 Cd158 2.352 . S
O162 C165 1.258 . S
C163 O160 1.320 . S
C163 O161 1.214 . S
O164 Cd156 2.277 . S
O164 C159 1.209 . S
C165 O162 1.258 . S
C165 O167 1.282 . S
O166 Cd158 2.277 . S
O166 C159 1.226 . S
O167 Cd158 2.356 . S
O167 C165 1.282 . S
C168 O169 1.306 . S
C168 O171 1.160 . S
O169 C168 1.306 . S
O169 Cd170 2.228 1_565 S
Cd170 O169 2.228 1_545 S
Cd170 O174 2.273 . S
Cd170 O178 2.277 . S
O171 C168 1.160 . S
O171 Cd172 2.203 1_565 S
Cd172 O171 2.203 1_545 S
Cd172 O174 2.411 . S
Cd172 O175 2.333 . S
Cd172 O176 2.352 . S
Cd172 O180 2.277 . S
Cd172 O181 2.356 . S
C173 O178 1.209 . S
C173 O180 1.226 . S
O174 Cd170 2.273 . S
O174 Cd172 2.411 . S
O174 C177 1.320 . S
O175 Cd172 2.333 . S
O175 C177 1.214 . S
O176 Cd172 2.352 . S
O176 C179 1.258 . S
C177 O174 1.320 . S
C177 O175 1.214 . S
O178 Cd170 2.277 . S
O178 C173 1.209 . S
C179 O176 1.258 . S
C179 O181 1.282 . S
O180 Cd172 2.277 . S
O180 C173 1.226 . S
O181 Cd172 2.356 . S
O181 C179 1.282 . S
C182 O183 1.306 . S
C182 O185 1.160 . S
O183 C182 1.306 . S
O183 Cd184 2.228 . S
Cd184 O183 2.228 . S
Cd184 O188 2.273 . S
Cd184 O192 2.277 . S
O185 C182 1.160 . S
O185 Cd186 2.203 . S
Cd186 O185 2.203 . S
Cd186 O188 2.411 . S
Cd186 O189 2.333 . S
Cd186 O190 2.352 1_655 S
Cd186 O194 2.277 . S
Cd186 O195 2.356 1_655 S
C187 O192 1.209 . S
C187 O194 1.226 . S
O188 Cd184 2.273 . S
O188 Cd186 2.411 . S
O188 C191 1.320 . S
O189 Cd186 2.333 . S
O189 C191 1.214 . S
O190 Cd186 2.352 1_455 S
O190 C193 1.258 . S
C191 O188 1.320 . S
C191 O189 1.214 . S
O192 Cd184 2.277 . S
O192 C187 1.209 . S
C193 O190 1.258 . S
C193 O195 1.282 . S
O194 Cd186 2.277 . S
O194 C187 1.226 . S
O195 Cd186 2.356 1_455 S
O195 C193 1.282 . S
C196 O197 1.306 . S
C196 O199 1.160 . S
O197 C196 1.306 . S
O197 Cd198 2.228 . S
Cd198 O197 2.228 . S
Cd198 O202 2.273 . S
Cd198 O206 2.277 . S
O199 C196 1.160 . S
O199 Cd200 2.203 . S
Cd200 O199 2.203 . S
Cd200 O202 2.411 . S
Cd200 O203 2.333 . S
Cd200 O204 2.352 . S
Cd200 O208 2.277 . S
Cd200 O209 2.356 . S
C201 O206 1.209 . S
C201 O208 1.226 . S
O202 Cd198 2.273 . S
O202 Cd200 2.411 . S
O202 C205 1.320 . S
O203 Cd200 2.333 . S
O203 C205 1.214 . S
O204 Cd200 2.352 . S
O204 C207 1.258 . S
C205 O202 1.320 . S
C205 O203 1.214 . S
O206 Cd198 2.277 . S
O206 C201 1.209 . S
C207 O204 1.258 . S
C207 O209 1.282 . S
O208 Cd200 2.277 . S
O208 C201 1.226 . S
O209 Cd200 2.356 . S
O209 C207 1.282 . S
C210 O211 1.306 . S
C210 O213 1.160 . S
O211 C210 1.306 . S
O211 Cd212 2.228 . S
Cd212 O211 2.228 . S
Cd212 O216 2.273 . S
Cd212 O220 2.277 . S
O213 C210 1.160 . S
O213 Cd214 2.203 . S
Cd214 O213 2.203 . S
Cd214 O216 2.411 . S
Cd214 O217 2.333 . S
Cd214 O218 2.352 . S
Cd214 O222 2.277 . S
Cd214 O223 2.356 . S
C215 O220 1.209 . S
C215 O222 1.226 . S
O216 Cd212 2.273 . S
O216 Cd214 2.411 . S
O216 C219 1.320 . S
O217 Cd214 2.333 . S
O217 C219 1.214 . S
O218 Cd214 2.352 . S
O218 C221 1.258 . S
C219 O216 1.320 . S
C219 O217 1.214 . S
O220 Cd212 2.277 . S
O220 C215 1.209 . S
C221 O218 1.258 . S
C221 O223 1.282 . S
O222 Cd214 2.277 . S
O222 C215 1.226 . S
O223 Cd214 2.356 . S
O223 C221 1.282 . S
C224 O225 1.306 . S
C224 O227 1.160 . S
O225 C224 1.306 . S
O225 Cd226 2.228 . S
Cd226 O225 2.228 . S
Cd226 O230 2.273 . S
Cd226 O234 2.277 . S
O227 C224 1.160 . S
O227 Cd228 2.203 . S
Cd228 O227 2.203 . S
Cd228 O230 2.411 . S
Cd228 O231 2.333 . S
Cd228 O232 2.352 1_545 S
Cd228 O236 2.277 . S
Cd228 O237 2.356 1_545 S
C229 O234 1.209 . S
C229 O236 1.226 . S
O230 Cd226 2.273 . S
O230 Cd228 2.411 . S
O230 C233 1.320 . S
O231 Cd228 2.333 . S
O231 C233 1.214 . S
O232 Cd228 2.352 1_565 S
O232 C235 1.258 . S
C233 O230 1.320 . S
C233 O231 1.214 . S
O234 Cd226 2.277 . S
O234 C229 1.209 . S
C235 O232 1.258 . S
C235 O237 1.282 . S
O236 Cd228 2.277 . S
O236 C229 1.226 . S
O237 Cd228 2.356 1_565 S
O237 C235 1.282 . S
C238 O239 1.306 . S
C238 O241 1.160 . S
O239 C238 1.306 . S
O239 Cd240 2.228 1_455 S
Cd240 O239 2.228 1_655 S
Cd240 O244 2.273 . S
Cd240 O248 2.277 . S
O241 C238 1.160 . S
O241 Cd242 2.203 1_455 S
Cd242 O241 2.203 1_655 S
Cd242 O244 2.411 . S
Cd242 O245 2.333 . S
Cd242 O246 2.352 . S
Cd242 O250 2.277 . S
Cd242 O251 2.356 . S
C243 O248 1.209 . S
C243 O250 1.226 . S
O244 Cd240 2.273 . S
O244 Cd242 2.411 . S
O244 C247 1.320 . S
O245 Cd242 2.333 . S
O245 C247 1.214 . S
O246 Cd242 2.352 . S
O246 C249 1.258 . S
C247 O244 1.320 . S
C247 O245 1.214 . S
O248 Cd240 2.277 . S
O248 C243 1.209 . S
C249 O246 1.258 . S
C249 O251 1.282 . S
O250 Cd242 2.277 . S
O250 C243 1.226 . S
O251 Cd242 2.356 . S
O251 C249 1.282 . S
H252 C260 0.930 . S
H253 C263 0.930 . S
H254 C265 0.930 . S
H255 C266 0.970 . S
H256 C266 0.970 . S
H257 C268 0.930 . S
H258 C270 0.930 . S
H259 C272 0.930 . S
C260 H252 0.930 . S
C260 C261 1.382 . S
C260 C262 1.426 . S
C261 C260 1.382 . S
C261 C265 1.389 . S
C262 C260 1.426 . S
C262 C263 1.375 . S
C262 C266 1.532 . S
C263 H253 0.930 . S
C263 C262 1.375 . S
C263 C264 1.416 . S
C264 C263 1.416 . S
C264 C265 1.371 . S
C265 H254 0.930 . S
C265 C261 1.389 . S
C265 C264 1.371 . S
C266 H255 0.970 . S
C266 H256 0.970 . S
C266 C262 1.532 . S
C266 C267 1.499 . S
C267 C266 1.499 . S
C267 C268 1.370 . S
C267 C272 1.415 . S
C268 H257 0.930 . S
C268 C267 1.370 . S
C268 C269 1.407 . S
C269 C268 1.407 . S
C269 C270 1.365 . S
C270 H258 0.930 . S
C270 C269 1.365 . S
C270 C271 1.393 . S
C271 C270 1.393 . S
C271 C272 1.387 . S
C272 H259 0.930 . S
C272 C267 1.415 . S
C272 C271 1.387 . S
H273 C281 0.930 . S
H274 C284 0.930 . S
H275 C286 0.930 . S
H276 C287 0.970 . S
H277 C287 0.970 . S
H278 C289 0.930 . S
H279 C291 0.930 . S
H280 C293 0.930 . S
C281 H273 0.930 . S
C281 C282 1.382 . S
C281 C283 1.426 . S
C282 C281 1.382 . S
C282 C286 1.389 . S
C283 C281 1.426 . S
C283 C284 1.375 . S
C283 C287 1.532 . S
C284 H274 0.930 . S
C284 C283 1.375 . S
C284 C285 1.416 . S
C285 C284 1.416 . S
C285 C286 1.371 . S
C286 H275 0.930 . S
C286 C282 1.389 . S
C286 C285 1.371 . S
C287 H276 0.970 . S
C287 H277 0.970 . S
C287 C283 1.532 . S
C287 C288 1.499 . S
C288 C287 1.499 . S
C288 C289 1.370 . S
C288 C293 1.415 . S
C289 H278 0.930 . S
C289 C288 1.370 . S
C289 C290 1.407 . S
C290 C289 1.407 . S
C290 C291 1.365 . S
C291 H279 0.930 . S
C291 C290 1.365 . S
C291 C292 1.393 . S
C292 C291 1.393 . S
C292 C293 1.387 . S
C293 H280 0.930 . S
C293 C288 1.415 . S
C293 C292 1.387 . S
H294 C302 0.930 . S
H295 C305 0.930 . S
H296 C307 0.930 . S
H297 C308 0.970 . S
H298 C308 0.970 . S
H299 C310 0.930 . S
H300 C312 0.930 . S
H301 C314 0.930 . S
C302 H294 0.930 . S
C302 C303 1.382 . S
C302 C304 1.426 . S
C303 C302 1.382 . S
C303 C307 1.389 . S
C304 C302 1.426 . S
C304 C305 1.375 . S
C304 C308 1.532 . S
C305 H295 0.930 . S
C305 C304 1.375 . S
C305 C306 1.416 . S
C306 C305 1.416 . S
C306 C307 1.371 . S
C307 H296 0.930 . S
C307 C303 1.389 . S
C307 C306 1.371 . S
C308 H297 0.970 . S
C308 H298 0.970 . S
C308 C304 1.532 . S
C308 C309 1.499 . S
C309 C308 1.499 . S
C309 C310 1.370 . S
C309 C314 1.415 . S
C310 H299 0.930 . S
C310 C309 1.370 . S
C310 C311 1.407 . S
C311 C310 1.407 . S
C311 C312 1.365 . S
C312 H300 0.930 . S
C312 C311 1.365 . S
C312 C313 1.393 . S
C313 C312 1.393 . S
C313 C314 1.387 . S
C314 H301 0.930 . S
C314 C309 1.415 . S
C314 C313 1.387 . S
H315 C323 0.930 . S
H316 C326 0.930 . S
H317 C328 0.930 . S
H318 C329 0.970 . S
H319 C329 0.970 . S
H320 C331 0.930 . S
H321 C333 0.930 . S
H322 C335 0.930 . S
C323 H315 0.930 . S
C323 C324 1.382 . S
C323 C325 1.426 . S
C324 C323 1.382 . S
C324 C328 1.389 . S
C325 C323 1.426 . S
C325 C326 1.375 . S
C325 C329 1.532 . S
C326 H316 0.930 . S
C326 C325 1.375 . S
C326 C327 1.416 . S
C327 C326 1.416 . S
C327 C328 1.371 . S
C328 H317 0.930 . S
C328 C324 1.389 . S
C328 C327 1.371 . S
C329 H318 0.970 . S
C329 H319 0.970 . S
C329 C325 1.532 . S
C329 C330 1.499 . S
C330 C329 1.499 . S
C330 C331 1.370 . S
C330 C335 1.415 . S
C331 H320 0.930 . S
C331 C330 1.370 . S
C331 C332 1.407 . S
C332 C331 1.407 . S
C332 C333 1.365 . S
C333 H321 0.930 . S
C333 C332 1.365 . S
C333 C334 1.393 . S
C334 C333 1.393 . S
C334 C335 1.387 . S
C335 H322 0.930 . S
C335 C330 1.415 . S
C335 C334 1.387 . S
H336 C344 0.930 . S
H337 C347 0.930 . S
H338 C349 0.930 . S
H339 C350 0.970 . S
H340 C350 0.970 . S
H341 C352 0.930 . S
H342 C354 0.930 . S
H343 C356 0.930 . S
C344 H336 0.930 . S
C344 C345 1.382 . S
C344 C346 1.426 . S
C345 C344 1.382 . S
C345 C349 1.389 . S
C346 C344 1.426 . S
C346 C347 1.375 . S
C346 C350 1.532 . S
C347 H337 0.930 . S
C347 C346 1.375 . S
C347 C348 1.416 . S
C348 C347 1.416 . S
C348 C349 1.371 . S
C349 H338 0.930 . S
C349 C345 1.389 . S
C349 C348 1.371 . S
C350 H339 0.970 . S
C350 H340 0.970 . S
C350 C346 1.532 . S
C350 C351 1.499 . S
C351 C350 1.499 . S
C351 C352 1.370 . S
C351 C356 1.415 . S
C352 H341 0.930 . S
C352 C351 1.370 . S
C352 C353 1.407 . S
C353 C352 1.407 . S
C353 C354 1.365 . S
C354 H342 0.930 . S
C354 C353 1.365 . S
C354 C355 1.393 . S
C355 C354 1.393 . S
C355 C356 1.387 . S
C356 H343 0.930 . S
C356 C351 1.415 . S
C356 C355 1.387 . S
H357 C365 0.930 . S
H358 C368 0.930 . S
H359 C370 0.930 . S
H360 C371 0.970 . S
H361 C371 0.970 . S
H362 C373 0.930 . S
H363 C375 0.930 . S
H364 C377 0.930 . S
C365 H357 0.930 . S
C365 C366 1.382 . S
C365 C367 1.426 . S
C366 C365 1.382 . S
C366 C370 1.389 . S
C367 C365 1.426 . S
C367 C368 1.375 . S
C367 C371 1.532 . S
C368 H358 0.930 . S
C368 C367 1.375 . S
C368 C369 1.416 . S
C369 C368 1.416 . S
C369 C370 1.371 . S
C370 H359 0.930 . S
C370 C366 1.389 . S
C370 C369 1.371 . S
C371 H360 0.970 . S
C371 H361 0.970 . S
C371 C367 1.532 . S
C371 C372 1.499 . S
C372 C371 1.499 . S
C372 C373 1.370 . S
C372 C377 1.415 . S
C373 H362 0.930 . S
C373 C372 1.370 . S
C373 C374 1.407 . S
C374 C373 1.407 . S
C374 C375 1.365 . S
C375 H363 0.930 . S
C375 C374 1.365 . S
C375 C376 1.393 . S
C376 C375 1.393 . S
C376 C377 1.387 . S
C377 H364 0.930 . S
C377 C372 1.415 . S
C377 C376 1.387 . S
H378 C386 0.930 . S
H379 C389 0.930 . S
H380 C391 0.930 . S
H381 C392 0.970 . S
H382 C392 0.970 . S
H383 C394 0.930 . S
H384 C396 0.930 . S
H385 C398 0.930 . S
C386 H378 0.930 . S
C386 C387 1.382 . S
C386 C388 1.426 . S
C387 C386 1.382 . S
C387 C391 1.389 . S
C388 C386 1.426 . S
C388 C389 1.375 . S
C388 C392 1.532 . S
C389 H379 0.930 . S
C389 C388 1.375 . S
C389 C390 1.416 . S
C390 C389 1.416 . S
C390 C391 1.371 . S
C391 H380 0.930 . S
C391 C387 1.389 . S
C391 C390 1.371 . S
C392 H381 0.970 . S
C392 H382 0.970 . S
C392 C388 1.532 . S
C392 C393 1.499 . S
C393 C392 1.499 . S
C393 C394 1.370 . S
C393 C398 1.415 . S
C394 H383 0.930 . S
C394 C393 1.370 . S
C394 C395 1.407 . S
C395 C394 1.407 . S
C395 C396 1.365 . S
C396 H384 0.930 . S
C396 C395 1.365 . S
C396 C397 1.393 . S
C397 C396 1.393 . S
C397 C398 1.387 . S
C398 H385 0.930 . S
C398 C393 1.415 . S
C398 C397 1.387 . S
H399 C407 0.930 . S
H400 C410 0.930 . S
H401 C412 0.930 . S
H402 C413 0.970 . S
H403 C413 0.970 . S
H404 C415 0.930 . S
H405 C417 0.930 . S
H406 C419 0.930 . S
C407 H399 0.930 . S
C407 C408 1.382 . S
C407 C409 1.426 . S
C408 C407 1.382 . S
C408 C412 1.389 . S
C409 C407 1.426 . S
C409 C410 1.375 . S
C409 C413 1.532 . S
C410 H400 0.930 . S
C410 C409 1.375 . S
C410 C411 1.416 . S
C411 C410 1.416 . S
C411 C412 1.371 . S
C412 H401 0.930 . S
C412 C408 1.389 . S
C412 C411 1.371 . S
C413 H402 0.970 . S
C413 H403 0.970 . S
C413 C409 1.532 . S
C413 C414 1.499 . S
C414 C413 1.499 . S
C414 C415 1.370 . S
C414 C419 1.415 . S
C415 H404 0.930 . S
C415 C414 1.370 . S
C415 C416 1.407 . S
C416 C415 1.407 . S
C416 C417 1.365 . S
C417 H405 0.930 . S
C417 C416 1.365 . S
C417 C418 1.393 . S
C418 C417 1.393 . S
C418 C419 1.387 . S
C419 H406 0.930 . S
C419 C414 1.415 . S
C419 C418 1.387 . S
H420 C428 0.930 . S
H421 C431 0.930 . S
H422 C433 0.930 . S
H423 C434 0.970 . S
H424 C434 0.970 . S
H425 C436 0.930 . S
H426 C438 0.930 . S
H427 C440 0.930 . S
C428 H420 0.930 . S
C428 C429 1.382 . S
C428 C430 1.426 . S
C429 C428 1.382 . S
C429 C433 1.389 . S
C430 C428 1.426 . S
C430 C431 1.375 . S
C430 C434 1.532 . S
C431 H421 0.930 . S
C431 C430 1.375 . S
C431 C432 1.416 . S
C432 C431 1.416 . S
C432 C433 1.371 . S
C433 H422 0.930 . S
C433 C429 1.389 . S
C433 C432 1.371 . S
C434 H423 0.970 . S
C434 H424 0.970 . S
C434 C430 1.532 . S
C434 C435 1.499 . S
C435 C434 1.499 . S
C435 C436 1.370 . S
C435 C440 1.415 . S
C436 H425 0.930 . S
C436 C435 1.370 . S
C436 C437 1.407 . S
C437 C436 1.407 . S
C437 C438 1.365 . S
C438 H426 0.930 . S
C438 C437 1.365 . S
C438 C439 1.393 . S
C439 C438 1.393 . S
C439 C440 1.387 . S
C440 H427 0.930 . S
C440 C435 1.415 . S
C440 C439 1.387 . S
H441 C449 0.930 . S
H442 C452 0.930 . S
H443 C454 0.930 . S
H444 C455 0.970 . S
H445 C455 0.970 . S
H446 C457 0.930 . S
H447 C459 0.930 . S
H448 C461 0.930 . S
C449 H441 0.930 . S
C449 C450 1.382 . S
C449 C451 1.426 . S
C450 C449 1.382 . S
C450 C454 1.389 1_455 S
C451 C449 1.426 . S
C451 C452 1.375 . S
C451 C455 1.532 . S
C452 H442 0.930 . S
C452 C451 1.375 . S
C452 C453 1.416 . S
C453 C452 1.416 . S
C453 C454 1.371 1_455 S
C454 H443 0.930 . S
C454 C450 1.389 1_655 S
C454 C453 1.371 1_655 S
C455 H444 0.970 . S
C455 H445 0.970 . S
C455 C451 1.532 . S
C455 C456 1.499 . S
C456 C455 1.499 . S
C456 C457 1.370 . S
C456 C461 1.415 . S
C457 H446 0.930 . S
C457 C456 1.370 . S
C457 C458 1.411 . S
C458 C457 1.411 . S
C458 C459 1.370 1_455 S
C459 H447 0.930 . S
C459 C458 1.370 1_655 S
C459 C460 1.393 1_655 S
C460 C459 1.393 1_455 S
C460 C461 1.387 . S
C461 H448 0.930 . S
C461 C456 1.415 . S
C461 C460 1.387 . S
H462 C470 0.930 . S
H463 C473 0.930 . S
H464 C475 0.930 . S
H465 C476 0.970 . S
H466 C476 0.970 . S
H467 C478 0.930 . S
H468 C480 0.930 . S
H469 C482 0.930 . S
C470 H462 0.930 . S
C470 C471 1.382 . S
C470 C472 1.426 . S
C471 C470 1.382 . S
C471 C475 1.389 . S
C472 C470 1.426 . S
C472 C473 1.375 . S
C472 C476 1.532 . S
C473 H463 0.930 . S
C473 C472 1.375 . S
C473 C474 1.416 . S
C474 C473 1.416 . S
C474 C475 1.371 . S
C475 H464 0.930 . S
C475 C471 1.389 . S
C475 C474 1.371 . S
C476 H465 0.970 . S
C476 H466 0.970 . S
C476 C472 1.532 . S
C476 C477 1.499 . S
C477 C476 1.499 . S
C477 C478 1.370 . S
C477 C482 1.415 . S
C478 H467 0.930 . S
C478 C477 1.370 . S
C478 C479 1.407 . S
C479 C478 1.407 . S
C479 C480 1.365 . S
C480 H468 0.930 . S
C480 C479 1.365 . S
C480 C481 1.393 . S
C481 C480 1.393 . S
C481 C482 1.387 . S
C482 H469 0.930 . S
C482 C477 1.415 . S
C482 C481 1.387 . S
H483 C491 0.930 . S
H484 C494 0.930 . S
H485 C496 0.930 . S
H486 C497 0.970 . S
H487 C497 0.970 . S
H488 C499 0.930 . S
H489 C501 0.930 . S
H490 C503 0.930 . S
C491 H483 0.930 . S
C491 C492 1.382 . S
C491 C493 1.426 . S
C492 C491 1.382 . S
C492 C496 1.389 1_565 S
C493 C491 1.426 . S
C493 C494 1.375 . S
C493 C497 1.532 . S
C494 H484 0.930 . S
C494 C493 1.375 . S
C494 C495 1.416 . S
C495 C494 1.416 . S
C495 C496 1.371 1_565 S
C496 H485 0.930 . S
C496 C492 1.389 1_545 S
C496 C495 1.371 1_545 S
C497 H486 0.970 . S
C497 H487 0.970 . S
C497 C493 1.532 . S
C497 C498 1.499 . S
C498 C497 1.499 . S
C498 C499 1.370 . S
C498 C503 1.415 . S
C499 H488 0.930 . S
C499 C498 1.370 . S
C499 C500 1.429 . S
C500 C499 1.429 . S
C500 C501 1.356 1_565 S
C501 H489 0.930 . S
C501 C500 1.356 1_545 S
C501 C502 1.393 1_545 S
C502 C501 1.393 1_565 S
C502 C503 1.387 . S
C503 H490 0.930 . S
C503 C498 1.415 . S
C503 C502 1.387 . S
H504 C512 0.930 . S
H505 C515 0.930 . S
H506 C517 0.930 . S
H507 C518 0.970 . S
H508 C518 0.970 . S
H509 C520 0.930 . S
H510 C522 0.930 . S
H511 C524 0.930 . S
C512 H504 0.930 . S
C512 C513 1.382 . S
C512 C514 1.426 . S
C513 C512 1.382 . S
C513 C517 1.389 1_565 S
C514 C512 1.426 . S
C514 C515 1.375 . S
C514 C518 1.532 . S
C515 H505 0.930 . S
C515 C514 1.375 . S
C515 C516 1.416 . S
C516 C515 1.416 . S
C516 C517 1.371 1_565 S
C517 H506 0.930 . S
C517 C513 1.389 1_545 S
C517 C516 1.371 1_545 S
C518 H507 0.970 . S
C518 H508 0.970 . S
C518 C514 1.532 . S
C518 C519 1.499 . S
C519 C518 1.499 . S
C519 C520 1.370 . S
C519 C524 1.415 . S
C520 H509 0.930 . S
C520 C519 1.370 . S
C520 C521 1.407 . S
C521 C520 1.407 . S
C521 C522 1.365 1_565 S
C522 H510 0.930 . S
C522 C521 1.365 1_545 S
C522 C523 1.393 1_545 S
C523 C522 1.393 1_565 S
C523 C524 1.387 . S
C524 H511 0.930 . S
C524 C519 1.415 . S
C524 C523 1.387 . S
H525 C533 0.930 . S
H526 C536 0.930 . S
H527 C538 0.930 . S
H528 C539 0.970 . S
H529 C539 0.970 . S
H530 C541 0.930 . S
H531 C543 0.930 . S
H532 C545 0.930 . S
C533 H525 0.930 . S
C533 C534 1.382 . S
C533 C535 1.426 . S
C534 C533 1.382 . S
C534 C538 1.389 1_455 S
C535 C533 1.426 . S
C535 C536 1.375 . S
C535 C539 1.532 . S
C536 H526 0.930 . S
C536 C535 1.375 . S
C536 C537 1.416 . S
C537 C536 1.416 . S
C537 C538 1.371 1_455 S
C538 H527 0.930 . S
C538 C534 1.389 1_655 S
C538 C537 1.371 1_655 S
C539 H528 0.970 . S
C539 H529 0.970 . S
C539 C535 1.532 . S
C539 C540 1.499 . S
C540 C539 1.499 . S
C540 C541 1.370 . S
C540 C545 1.415 . S
C541 H530 0.930 . S
C541 C540 1.370 . S
C541 C542 1.407 . S
C542 C541 1.407 . S
C542 C543 1.365 1_455 S
C543 H531 0.930 . S
C543 C542 1.365 1_655 S
C543 C544 1.393 1_655 S
C544 C543 1.393 1_455 S
C544 C545 1.387 . S
C545 H532 0.930 . S
C545 C540 1.415 . S
C545 C544 1.387 . S
H546 C554 0.930 . S
H547 C557 0.930 . S
H548 C559 0.930 . S
H549 C560 0.970 . S
H550 C560 0.970 . S
H551 C562 0.930 . S
H552 C564 0.930 . S
H553 C566 0.930 . S
C554 H546 0.930 . S
C554 C555 1.382 . S
C554 C556 1.426 . S
C555 C554 1.382 . S
C555 C559 1.389 . S
C556 C554 1.426 . S
C556 C557 1.375 . S
C556 C560 1.532 . S
C557 H547 0.930 . S
C557 C556 1.375 . S
C557 C558 1.416 . S
C558 C557 1.416 . S
C558 C559 1.371 . S
C559 H548 0.930 . S
C559 C555 1.389 . S
C559 C558 1.371 . S
C560 H549 0.970 . S
C560 H550 0.970 . S
C560 C556 1.532 . S
C560 C561 1.499 . S
C561 C560 1.499 . S
C561 C562 1.370 . S
C561 C566 1.415 . S
C562 H551 0.930 . S
C562 C561 1.370 . S
C562 C563 1.407 . S
C563 C562 1.407 . S
C563 C564 1.365 . S
C564 H552 0.930 . S
C564 C563 1.365 . S
C564 C565 1.393 . S
C565 C564 1.393 . S
C565 C566 1.387 . S
C566 H553 0.930 . S
C566 C561 1.415 . S
C566 C565 1.387 . S
H567 C575 0.930 . S
H568 C578 0.930 . S
H569 C580 0.930 . S
H570 C581 0.970 . S
H571 C581 0.970 . S
H572 C583 0.930 . S
H573 C585 0.930 . S
H574 C587 0.930 . S
C575 H567 0.930 . S
C575 C576 1.382 . S
C575 C577 1.426 . S
C576 C575 1.382 . S
C576 C580 1.389 . S
C577 C575 1.426 . S
C577 C578 1.375 . S
C577 C581 1.532 . S
C578 H568 0.930 . S
C578 C577 1.375 . S
C578 C579 1.416 . S
C579 C578 1.416 . S
C579 C580 1.371 . S
C580 H569 0.930 . S
C580 C576 1.389 . S
C580 C579 1.371 . S
C581 H570 0.970 . S
C581 H571 0.970 . S
C581 C577 1.532 . S
C581 C582 1.499 . S
C582 C581 1.499 . S
C582 C583 1.370 . S
C582 C587 1.415 . S
C583 H572 0.930 . S
C583 C582 1.370 . S
C583 C584 1.407 . S
C584 C583 1.407 . S
C584 C585 1.365 . S
C585 H573 0.930 . S
C585 C584 1.365 . S
C585 C586 1.393 . S
C586 C585 1.393 . S
C586 C587 1.387 . S
C587 H574 0.930 . S
C587 C582 1.415 . S
C587 C586 1.387 . S
H588 C596 0.930 . S
H589 C599 0.930 . S
H590 C601 0.930 . S
H591 C602 0.970 . S
H592 C602 0.970 . S
H593 C604 0.930 . S
H594 C606 0.930 . S
H595 C608 0.930 . S
C596 H588 0.930 . S
C596 C597 1.382 . S
C596 C598 1.426 . S
C597 C596 1.382 . S
C597 C601 1.389 . S
C598 C596 1.426 . S
C598 C599 1.375 . S
C598 C602 1.532 . S
C599 H589 0.930 . S
C599 C598 1.375 . S
C599 C600 1.416 . S
C600 C599 1.416 . S
C600 C601 1.371 . S
C601 H590 0.930 . S
C601 C597 1.389 . S
C601 C600 1.371 . S
C602 H591 0.970 . S
C602 H592 0.970 . S
C602 C598 1.532 . S
C602 C603 1.499 . S
C603 C602 1.499 . S
C603 C604 1.370 . S
C603 C608 1.415 . S
C604 H593 0.930 . S
C604 C603 1.370 . S
C604 C605 1.407 . S
C605 C604 1.407 . S
C605 C606 1.365 . S
C606 H594 0.930 . S
C606 C605 1.365 . S
C606 C607 1.393 . S
C607 C606 1.393 . S
C607 C608 1.387 . S
C608 H595 0.930 . S
C608 C603 1.415 . S
C608 C607 1.387 . S
H609 C617 0.930 . S
H610 C620 0.930 . S
H611 C622 0.930 . S
H612 C623 0.970 . S
H613 C623 0.970 . S
H614 C625 0.930 . S
H615 C627 0.930 . S
H616 C629 0.930 . S
C617 H609 0.930 . S
C617 C618 1.382 . S
C617 C619 1.426 . S
C618 C617 1.382 . S
C618 C622 1.389 . S
C619 C617 1.426 . S
C619 C620 1.375 . S
C619 C623 1.532 . S
C620 H610 0.930 . S
C620 C619 1.375 . S
C620 C621 1.416 . S
C621 C620 1.416 . S
C621 C622 1.371 . S
C622 H611 0.930 . S
C622 C618 1.389 . S
C622 C621 1.371 . S
C623 H612 0.970 . S
C623 H613 0.970 . S
C623 C619 1.532 . S
C623 C624 1.499 . S
C624 C623 1.499 . S
C624 C625 1.370 . S
C624 C629 1.415 . S
C625 H614 0.930 . S
C625 C624 1.370 . S
C625 C626 1.407 . S
C626 C625 1.407 . S
C626 C627 1.365 . S
C627 H615 0.930 . S
C627 C626 1.365 . S
C627 C628 1.393 . S
C628 C627 1.393 . S
C628 C629 1.387 . S
C629 H616 0.930 . S
C629 C624 1.415 . S
C629 C628 1.387 . S
H630 C638 0.950 . S
H631 C643 0.950 . S
H632 C640 0.950 . S
H633 C642 0.950 . S
H634 C644 0.950 . S
H635 C646 0.950 . S
H636 C648 0.950 . S
H637 C649 0.950 . S
C638 H630 0.950 . S
C638 C639 1.386 . S
C638 C640 1.391 . S
C639 C638 1.386 . S
C639 C643 1.393 1_655 S
C640 H632 0.950 . S
C640 C638 1.391 . S
C640 C641 1.400 . S
C641 C640 1.400 . S
C641 C642 1.398 1_655 S
C641 C647 1.491 . S
C642 H633 0.950 . S
C642 C641 1.398 1_455 S
C642 C643 1.391 . S
C643 H631 0.950 . S
C643 C639 1.393 1_455 S
C643 C642 1.391 . S
C644 H634 0.950 . S
C644 C645 1.386 1_455 S
C644 C646 1.391 . S
C645 C644 1.386 1_655 S
C645 C649 1.393 . S
C646 H635 0.950 . S
C646 C644 1.391 . S
C646 C647 1.400 1_455 S
C647 C641 1.491 . S
C647 C646 1.400 1_655 S
C647 C648 1.398 . S
C648 H636 0.950 . S
C648 C647 1.398 . S
C648 C649 1.391 . S
C649 H637 0.950 . S
C649 C645 1.393 . S
C649 C648 1.391 . S
H650 C658 0.950 . S
H651 C663 0.950 . S
H652 C660 0.950 . S
H653 C662 0.950 . S
H654 C664 0.950 . S
H655 C666 0.950 . S
H656 C668 0.950 . S
H657 C669 0.950 . S
C658 H650 0.950 . S
C658 C659 1.386 . S
C658 C660 1.391 . S
C659 C658 1.386 . S
C659 C663 1.393 . S
C660 H652 0.950 . S
C660 C658 1.391 . S
C660 C661 1.400 . S
C661 C660 1.400 . S
C661 C662 1.398 . S
C661 C667 1.491 . S
C662 H653 0.950 . S
C662 C661 1.398 . S
C662 C663 1.391 . S
C663 H651 0.950 . S
C663 C659 1.393 . S
C663 C662 1.391 . S
C664 H654 0.950 . S
C664 C665 1.386 . S
C664 C666 1.391 . S
C665 C664 1.386 . S
C665 C669 1.393 . S
C666 H655 0.950 . S
C666 C664 1.391 . S
C666 C667 1.400 . S
C667 C661 1.491 . S
C667 C666 1.400 . S
C667 C668 1.398 . S
C668 H656 0.950 . S
C668 C667 1.398 . S
C668 C669 1.391 . S
C669 H657 0.950 . S
C669 C665 1.393 . S
C669 C668 1.391 . S
H670 C678 0.950 . S
H671 C683 0.950 . S
H672 C680 0.950 . S
H673 C682 0.950 . S
H674 C684 0.950 . S
H675 C686 0.950 . S
H676 C688 0.949 . S
H677 C689 0.956 . S
C678 H670 0.950 . S
C678 C679 1.386 1_565 S
C678 C680 1.391 . S
C679 C678 1.386 1_545 S
C679 C683 1.393 . S
C680 H672 0.950 . S
C680 C678 1.391 . S
C680 C681 1.400 1_565 S
C681 C680 1.400 1_545 S
C681 C682 1.398 . S
C681 C687 1.491 . S
C682 H673 0.950 . S
C682 C681 1.398 . S
C682 C683 1.391 . S
C683 H671 0.950 . S
C683 C679 1.393 . S
C683 C682 1.391 . S
C684 H674 0.950 . S
C684 C685 1.386 . S
C684 C686 1.391 . S
C685 C684 1.386 . S
C685 C689 1.401 1_545 S
C686 H675 0.950 . S
C686 C684 1.391 . S
C686 C687 1.400 . S
C687 C681 1.491 . S
C687 C686 1.400 . S
C687 C688 1.398 1_545 S
C688 H676 0.949 . S
C688 C687 1.398 1_565 S
C688 C689 1.378 . S
C689 H677 0.956 . S
C689 C685 1.401 1_565 S
C689 C688 1.378 . S
H690 C698 0.950 . S
H691 C703 0.950 . S
H692 C700 0.950 . S
H693 C702 0.950 . S
H694 C704 0.950 . S
H695 C706 0.950 . S
H696 C708 0.972 . S
H697 C709 0.960 . S
C698 H690 0.950 . S
C698 C699 1.387 . S
C698 C700 1.391 . S
C699 C698 1.387 . S
C699 C703 1.388 1_545 S
C700 H692 0.950 . S
C700 C698 1.391 . S
C700 C701 1.400 1_545 S
C701 C700 1.400 1_565 S
C701 C702 1.398 . S
C701 C707 1.491 . S
C702 H693 0.950 . S
C702 C701 1.398 . S
C702 C703 1.391 . S
C703 H691 0.950 . S
C703 C699 1.388 1_565 S
C703 C702 1.391 . S
C704 H694 0.950 . S
C704 C705 1.386 . S
C704 C706 1.391 . S
C705 C704 1.386 . S
C705 C709 1.393 . S
C706 H695 0.950 . S
C706 C704 1.391 . S
C706 C707 1.400 . S
C707 C701 1.491 . S
C707 C706 1.400 . S
C707 C708 1.398 . S
C708 H696 0.972 . S
C708 C707 1.398 . S
C708 C709 1.391 . S
C709 H697 0.960 . S
C709 C705 1.393 . S
C709 C708 1.391 . S
H710 C718 0.950 . S
H711 C723 0.950 . S
H712 C720 0.950 . S
H713 C722 0.950 . S
H714 C724 0.950 . S
H715 C726 0.950 . S
H716 C728 0.950 . S
H717 C729 0.950 . S
C718 H710 0.950 . S
C718 C719 1.386 . S
C718 C720 1.391 . S
C719 C718 1.386 . S
C719 C723 1.393 1_455 S
C720 H712 0.950 . S
C720 C718 1.391 . S
C720 C721 1.400 . S
C721 C720 1.400 . S
C721 C722 1.398 1_455 S
C721 C727 1.491 . S
C722 H713 0.950 . S
C722 C721 1.398 1_655 S
C722 C723 1.391 . S
C723 H711 0.950 . S
C723 C719 1.393 1_655 S
C723 C722 1.391 . S
C724 H714 0.950 . S
C724 C725 1.386 1_655 S
C724 C726 1.391 . S
C725 C724 1.386 1_455 S
C725 C729 1.393 . S
C726 H715 0.950 . S
C726 C724 1.391 . S
C726 C727 1.400 1_655 S
C727 C721 1.491 . S
C727 C726 1.400 1_455 S
C727 C728 1.398 . S
C728 H716 0.950 . S
C728 C727 1.398 . S
C728 C729 1.391 . S
C729 H717 0.950 . S
C729 C725 1.393 . S
C729 C728 1.391 . S
H730 C738 0.950 . S
H731 C743 0.950 . S
H732 C740 0.950 . S
H733 C742 0.950 . S
H734 C744 0.950 . S
H735 C746 0.950 . S
H736 C748 0.950 . S
H737 C749 0.950 . S
C738 H730 0.950 . S
C738 C739 1.386 . S
C738 C740 1.391 . S
C739 C738 1.386 . S
C739 C743 1.393 . S
C740 H732 0.950 . S
C740 C738 1.391 . S
C740 C741 1.400 . S
C741 C740 1.400 . S
C741 C742 1.398 . S
C741 C747 1.491 . S
C742 H733 0.950 . S
C742 C741 1.398 . S
C742 C743 1.391 . S
C743 H731 0.950 . S
C743 C739 1.393 . S
C743 C742 1.391 . S
C744 H734 0.950 . S
C744 C745 1.386 . S
C744 C746 1.391 . S
C745 C744 1.386 . S
C745 C749 1.393 . S
C746 H735 0.950 . S
C746 C744 1.391 . S
C746 C747 1.400 . S
C747 C741 1.491 . S
C747 C746 1.400 . S
C747 C748 1.398 . S
C748 H736 0.950 . S
C748 C747 1.398 . S
C748 C749 1.391 . S
C749 H737 0.950 . S
C749 C745 1.393 . S
C749 C748 1.391 . S
H750 C758 0.950 . S
H751 C763 0.950 . S
H752 C760 0.950 . S
H753 C762 0.950 . S
H754 C764 0.950 . S
H755 C766 0.950 . S
H756 C768 0.950 . S
H757 C769 0.950 . S
C758 H750 0.950 . S
C758 C759 1.386 . S
C758 C760 1.391 . S
C759 C758 1.386 . S
C759 C763 1.393 1_455 S
C760 H752 0.950 . S
C760 C758 1.391 . S
C760 C761 1.400 . S
C761 C760 1.400 . S
C761 C762 1.398 1_455 S
C761 C767 1.491 . S
C762 H753 0.950 . S
C762 C761 1.398 1_655 S
C762 C763 1.391 . S
C763 H751 0.950 . S
C763 C759 1.393 1_655 S
C763 C762 1.391 . S
C764 H754 0.950 . S
C764 C765 1.386 1_655 S
C764 C766 1.391 . S
C765 C764 1.386 1_455 S
C765 C769 1.393 . S
C766 H755 0.950 . S
C766 C764 1.391 . S
C766 C767 1.400 1_655 S
C767 C761 1.491 . S
C767 C766 1.400 1_455 S
C767 C768 1.398 . S
C768 H756 0.950 . S
C768 C767 1.398 . S
C768 C769 1.391 . S
C769 H757 0.950 . S
C769 C765 1.393 . S
C769 C768 1.391 . S
H770 C778 0.950 . S
H771 C783 0.950 . S
H772 C780 0.950 . S
H773 C782 0.950 . S
H774 C784 0.950 . S
H775 C786 0.950 . S
H776 C788 0.950 . S
H777 C789 0.950 . S
C778 H770 0.950 . S
C778 C779 1.386 . S
C778 C780 1.391 . S
C779 C778 1.386 . S
C779 C783 1.393 . S
C780 H772 0.950 . S
C780 C778 1.391 . S
C780 C781 1.400 . S
C781 C780 1.400 . S
C781 C782 1.398 . S
C781 C787 1.491 . S
C782 H773 0.950 . S
C782 C781 1.398 . S
C782 C783 1.391 . S
C783 H771 0.950 . S
C783 C779 1.393 . S
C783 C782 1.391 . S
C784 H774 0.950 . S
C784 C785 1.386 . S
C784 C786 1.391 . S
C785 C784 1.386 . S
C785 C789 1.393 . S
C786 H775 0.950 . S
C786 C784 1.391 . S
C786 C787 1.400 . S
C787 C781 1.491 . S
C787 C786 1.400 . S
C787 C788 1.398 . S
C788 H776 0.950 . S
C788 C787 1.398 . S
C788 C789 1.391 . S
C789 H777 0.950 . S
C789 C785 1.393 . S
C789 C788 1.391 . S
H790 C798 0.950 . S
H791 C803 0.950 . S
H792 C800 0.950 . S
H793 C802 0.950 . S
H794 C804 0.950 . S
H795 C806 0.950 . S
H796 C808 0.950 . S
H797 C809 0.950 . S
C798 H790 0.950 . S
C798 C799 1.386 1_545 S
C798 C800 1.391 . S
C799 C798 1.386 1_565 S
C799 C803 1.393 . S
C800 H792 0.950 . S
C800 C798 1.391 . S
C800 C801 1.400 1_545 S
C801 C800 1.400 1_565 S
C801 C802 1.398 . S
C801 C807 1.514 . S
C802 H793 0.950 . S
C802 C801 1.398 . S
C802 C803 1.391 . S
C803 H791 0.950 . S
C803 C799 1.393 . S
C803 C802 1.391 . S
C804 H794 0.950 . S
C804 C805 1.408 . S
C804 C806 1.391 . S
C805 C804 1.408 . S
C805 C809 1.381 1_565 S
C806 H795 0.950 . S
C806 C804 1.391 . S
C806 C807 1.427 . S
C807 C801 1.514 . S
C807 C806 1.427 . S
C807 C808 1.348 1_565 S
C808 H796 0.950 . S
C808 C807 1.348 1_545 S
C808 C809 1.391 . S
C809 H797 0.950 . S
C809 C805 1.381 1_545 S
C809 C808 1.391 . S
H810 C818 0.950 . S
H811 C823 0.950 . S
H812 C820 0.950 . S
H813 C822 0.950 . S
H814 C824 0.950 . S
H815 C826 0.950 . S
H816 C828 0.950 . S
H817 C829 0.950 . S
C818 H810 0.950 . S
C818 C819 1.386 1_565 S
C818 C820 1.391 . S
C819 C818 1.386 1_545 S
C819 C823 1.393 . S
C820 H812 0.950 . S
C820 C818 1.391 . S
C820 C821 1.400 1_565 S
C821 C820 1.400 1_545 S
C821 C822 1.398 . S
C821 C827 1.491 . S
C822 H813 0.950 . S
C822 C821 1.398 . S
C822 C823 1.391 . S
C823 H811 0.950 . S
C823 C819 1.393 . S
C823 C822 1.391 . S
C824 H814 0.950 . S
C824 C825 1.408 . S
C824 C826 1.391 . S
C825 C824 1.408 . S
C825 C829 1.353 1_545 S
C826 H815 0.950 . S
C826 C824 1.391 . S
C826 C827 1.400 . S
C827 C821 1.491 . S
C827 C826 1.400 . S
C827 C828 1.398 1_545 S
C828 H816 0.950 . S
C828 C827 1.398 1_565 S
C828 C829 1.391 . S
C829 H817 0.950 . S
C829 C825 1.353 1_565 S
C829 C828 1.391 . S
H830 C838 0.950 . S
H831 C843 0.950 . S
H832 C840 0.950 . S
H833 C842 0.950 . S
H834 C844 0.950 . S
H835 C846 0.950 . S
H836 C848 0.950 . S
H837 C849 0.950 . S
C838 H830 0.950 . S
C838 C839 1.386 1_455 S
C838 C840 1.391 . S
C839 C838 1.386 1_655 S
C839 C843 1.393 . S
C840 H832 0.950 . S
C840 C838 1.391 . S
C840 C841 1.400 1_455 S
C841 C840 1.400 1_655 S
C841 C842 1.398 . S
C841 C847 1.512 . S
C842 H833 0.950 . S
C842 C841 1.398 . S
C842 C843 1.391 . S
C843 H831 0.950 . S
C843 C839 1.393 . S
C843 C842 1.391 . S
C844 H834 0.950 . S
C844 C845 1.397 . S
C844 C846 1.391 . S
C845 C844 1.397 . S
C845 C849 1.388 1_655 S
C846 H835 0.950 . S
C846 C844 1.391 . S
C846 C847 1.415 . S
C847 C841 1.512 . S
C847 C846 1.415 . S
C847 C848 1.364 1_655 S
C848 H836 0.950 . S
C848 C847 1.364 1_455 S
C848 C849 1.391 . S
C849 H837 0.950 . S
C849 C845 1.388 1_455 S
C849 C848 1.391 . S
H850 C858 0.950 . S
H851 C863 0.950 . S
H852 C860 0.950 . S
H853 C862 0.950 . S
H854 C864 0.950 . S
H855 C866 0.950 . S
H856 C868 0.950 . S
H857 C869 0.950 . S
C858 H850 0.950 . S
C858 C859 1.386 . S
C858 C860 1.391 . S
C859 C858 1.386 . S
C859 C863 1.393 . S
C860 H852 0.950 . S
C860 C858 1.391 . S
C860 C861 1.400 . S
C861 C860 1.400 . S
C861 C862 1.398 . S
C861 C867 1.491 . S
C862 H853 0.950 . S
C862 C861 1.398 . S
C862 C863 1.391 . S
C863 H851 0.950 . S
C863 C859 1.393 . S
C863 C862 1.391 . S
C864 H854 0.950 . S
C864 C865 1.386 . S
C864 C866 1.391 . S
C865 C864 1.386 . S
C865 C869 1.393 . S
C866 H855 0.950 . S
C866 C864 1.391 . S
C866 C867 1.400 . S
C867 C861 1.491 . S
C867 C866 1.400 . S
C867 C868 1.398 . S
C868 H856 0.950 . S
C868 C867 1.398 . S
C868 C869 1.391 . S
C869 H857 0.950 . S
C869 C865 1.393 . S
C869 C868 1.391 . S
H870 C878 0.950 . S
H871 C883 0.950 . S
H872 C880 0.950 . S
H873 C882 0.950 . S
H874 C884 0.950 . S
H875 C886 0.950 . S
H876 C888 0.950 . S
H877 C889 0.950 . S
C878 H870 0.950 . S
C878 C879 1.386 . S
C878 C880 1.391 . S
C879 C878 1.386 . S
C879 C883 1.393 . S
C880 H872 0.950 . S
C880 C878 1.391 . S
C880 C881 1.400 . S
C881 C880 1.400 . S
C881 C882 1.398 . S
C881 C887 1.491 . S
C882 H873 0.950 . S
C882 C881 1.398 . S
C882 C883 1.391 . S
C883 H871 0.950 . S
C883 C879 1.393 . S
C883 C882 1.391 . S
C884 H874 0.950 . S
C884 C885 1.386 . S
C884 C886 1.391 . S
C885 C884 1.386 . S
C885 C889 1.393 . S
C886 H875 0.950 . S
C886 C884 1.391 . S
C886 C887 1.400 . S
C887 C881 1.491 . S
C887 C886 1.400 . S
C887 C888 1.398 . S
C888 H876 0.950 . S
C888 C887 1.398 . S
C888 C889 1.391 . S
C889 H877 0.950 . S
C889 C885 1.393 . S
C889 C888 1.391 . S
H890 C898 0.950 . S
H891 C903 0.950 . S
H892 C900 0.950 . S
H893 C902 0.950 . S
H894 C904 0.950 . S
H895 C906 0.950 . S
H896 C908 0.950 . S
H897 C909 0.950 . S
C898 H890 0.950 . S
C898 C899 1.386 . S
C898 C900 1.391 . S
C899 C898 1.386 . S
C899 C903 1.393 . S
C900 H892 0.950 . S
C900 C898 1.391 . S
C900 C901 1.400 . S
C901 C900 1.400 . S
C901 C902 1.398 . S
C901 C907 1.491 . S
C902 H893 0.950 . S
C902 C901 1.398 . S
C902 C903 1.391 . S
C903 H891 0.950 . S
C903 C899 1.393 . S
C903 C902 1.391 . S
C904 H894 0.950 . S
C904 C905 1.386 . S
C904 C906 1.391 . S
C905 C904 1.386 . S
C905 C909 1.393 . S
C906 H895 0.950 . S
C906 C904 1.391 . S
C906 C907 1.400 . S
C907 C901 1.491 . S
C907 C906 1.400 . S
C907 C908 1.398 . S
C908 H896 0.950 . S
C908 C907 1.398 . S
C908 C909 1.391 . S
C909 H897 0.950 . S
C909 C905 1.393 . S
C909 C908 1.391 . S
H910 C918 0.950 . S
H911 C923 0.950 . S
H912 C920 0.950 . S
H913 C922 0.950 . S
H914 C924 0.950 . S
H915 C926 0.950 . S
H916 C928 0.950 . S
H917 C929 0.950 . S
C918 H910 0.950 . S
C918 C919 1.386 . S
C918 C920 1.391 . S
C919 C918 1.386 . S
C919 C923 1.393 . S
C920 H912 0.950 . S
C920 C918 1.391 . S
C920 C921 1.400 . S
C921 C920 1.400 . S
C921 C922 1.398 . S
C921 C927 1.491 . S
C922 H913 0.950 . S
C922 C921 1.398 . S
C922 C923 1.391 . S
C923 H911 0.950 . S
C923 C919 1.393 . S
C923 C922 1.391 . S
C924 H914 0.950 . S
C924 C925 1.386 . S
C924 C926 1.391 . S
C925 C924 1.386 . S
C925 C929 1.393 . S
C926 H915 0.950 . S
C926 C924 1.391 . S
C926 C927 1.400 . S
C927 C921 1.491 . S
C927 C926 1.400 . S
C927 C928 1.398 . S
C928 H916 0.950 . S
C928 C927 1.398 . S
C928 C929 1.391 . S
C929 H917 0.950 . S
C929 C925 1.393 . S
C929 C928 1.391 . S
H930 C938 0.950 . S
H931 C943 0.950 . S
H932 C940 0.950 . S
H933 C942 0.950 . S
H934 C944 0.950 . S
H935 C946 0.950 . S
H936 C948 0.950 . S
H937 C949 0.950 . S
C938 H930 0.950 . S
C938 C939 1.386 . S
C938 C940 1.391 . S
C939 C938 1.386 . S
C939 C943 1.393 . S
C940 H932 0.950 . S
C940 C938 1.391 . S
C940 C941 1.400 . S
C941 C940 1.400 . S
C941 C942 1.398 . S
C941 C947 1.491 . S
C942 H933 0.950 . S
C942 C941 1.398 . S
C942 C943 1.391 . S
C943 H931 0.950 . S
C943 C939 1.393 . S
C943 C942 1.391 . S
C944 H934 0.950 . S
C944 C945 1.386 . S
C944 C946 1.391 . S
C945 C944 1.386 . S
C945 C949 1.393 . S
C946 H935 0.950 . S
C946 C944 1.391 . S
C946 C947 1.400 . S
C947 C941 1.491 . S
C947 C946 1.400 . S
C947 C948 1.398 . S
C948 H936 0.950 . S
C948 C947 1.398 . S
C948 C949 1.391 . S
C949 H937 0.950 . S
C949 C945 1.393 . S
C949 C948 1.391 . S
H950 C958 0.950 . S
H951 C963 0.950 . S
H952 C960 0.950 . S
H953 C962 0.950 . S
H954 C964 0.950 . S
H955 C966 0.950 . S
H956 C968 0.950 . S
H957 C969 0.950 . S
C958 H950 0.950 . S
C958 C959 1.386 . S
C958 C960 1.391 . S
C959 C958 1.386 . S
C959 C963 1.393 . S
C960 H952 0.950 . S
C960 C958 1.391 . S
C960 C961 1.400 . S
C961 C960 1.400 . S
C961 C962 1.398 . S
C961 C967 1.491 . S
C962 H953 0.950 . S
C962 C961 1.398 . S
C962 C963 1.391 . S
C963 H951 0.950 . S
C963 C959 1.393 . S
C963 C962 1.391 . S
C964 H954 0.950 . S
C964 C965 1.386 . S
C964 C966 1.391 . S
C965 C964 1.386 . S
C965 C969 1.393 . S
C966 H955 0.950 . S
C966 C964 1.391 . S
C966 C967 1.400 . S
C967 C961 1.491 . S
C967 C966 1.400 . S
C967 C968 1.398 . S
C968 H956 0.950 . S
C968 C967 1.398 . S
C968 C969 1.391 . S
C969 H957 0.950 . S
C969 C965 1.393 . S
C969 C968 1.391 . S
H970 C978 0.950 . S
H971 C983 0.950 . S
H972 C980 0.950 . S
H973 C982 0.950 . S
H974 C984 0.950 . S
H975 C986 0.950 . S
H976 C988 0.950 . S
H977 C989 0.950 . S
C978 H970 0.950 . S
C978 C979 1.386 . S
C978 C980 1.391 . S
C979 C978 1.386 . S
C979 C983 1.393 . S
C980 H972 0.950 . S
C980 C978 1.391 . S
C980 C981 1.400 . S
C981 C980 1.400 . S
C981 C982 1.398 . S
C981 C987 1.491 . S
C982 H973 0.950 . S
C982 C981 1.398 . S
C982 C983 1.391 . S
C983 H971 0.950 . S
C983 C979 1.393 . S
C983 C982 1.391 . S
C984 H974 0.950 . S
C984 C985 1.386 . S
C984 C986 1.391 . S
C985 C984 1.386 . S
C985 C989 1.393 . S
C986 H975 0.950 . S
C986 C984 1.391 . S
C986 C987 1.400 . S
C987 C981 1.491 . S
C987 C986 1.400 . S
C987 C988 1.398 . S
C988 H976 0.950 . S
C988 C987 1.398 . S
C988 C989 1.391 . S
C989 H977 0.950 . S
C989 C985 1.393 . S
C989 C988 1.391 . S
H990 C998 0.950 . S
H991 C1003 0.950 . S
H992 C1000 0.950 . S
H993 C1002 0.950 . S
H994 C1004 0.950 . S
H995 C1006 0.950 . S
H996 C1008 0.950 . S
H997 C1009 0.950 . S
C998 H990 0.950 . S
C998 C999 1.386 . S
C998 C1000 1.391 . S
C999 C998 1.386 . S
C999 C1003 1.393 . S
C1000 H992 0.950 . S
C1000 C998 1.391 . S
C1000 C1001 1.400 . S
C1001 C1000 1.400 . S
C1001 C1002 1.398 . S
C1001 C1007 1.491 . S
C1002 H993 0.950 . S
C1002 C1001 1.398 . S
C1002 C1003 1.391 . S
C1003 H991 0.950 . S
C1003 C999 1.393 . S
C1003 C1002 1.391 . S
C1004 H994 0.950 . S
C1004 C1005 1.386 . S
C1004 C1006 1.391 . S
C1005 C1004 1.386 . S
C1005 C1009 1.393 . S
C1006 H995 0.950 . S
C1006 C1004 1.391 . S
C1006 C1007 1.400 . S
C1007 C1001 1.491 . S
C1007 C1006 1.400 . S
C1007 C1008 1.398 . S
C1008 H996 0.950 . S
C1008 C1007 1.398 . S
C1008 C1009 1.391 . S
C1009 H997 0.950 . S
C1009 C1005 1.393 . S
C1009 C1008 1.391 . S
H1010 C1018 0.950 . S
H1011 C1023 0.950 . S
H1012 C1020 0.950 . S
H1013 C1022 0.950 . S
H1014 C1024 0.950 . S
H1015 C1026 0.950 . S
H1016 C1028 0.950 . S
H1017 C1029 0.950 . S
C1018 H1010 0.950 . S
C1018 C1019 1.386 . S
C1018 C1020 1.391 . S
C1019 C1018 1.386 . S
C1019 C1023 1.393 . S
C1020 H1012 0.950 . S
C1020 C1018 1.391 . S
C1020 C1021 1.400 . S
C1021 C1020 1.400 . S
C1021 C1022 1.398 . S
C1021 C1027 1.491 . S
C1022 H1013 0.950 . S
C1022 C1021 1.398 . S
C1022 C1023 1.391 . S
C1023 H1011 0.950 . S
C1023 C1019 1.393 . S
C1023 C1022 1.391 . S
C1024 H1014 0.950 . S
C1024 C1025 1.386 . S
C1024 C1026 1.391 . S
C1025 C1024 1.386 . S
C1025 C1029 1.393 . S
C1026 H1015 0.950 . S
C1026 C1024 1.391 . S
C1026 C1027 1.400 . S
C1027 C1021 1.491 . S
C1027 C1026 1.400 . S
C1027 C1028 1.398 . S
C1028 H1016 0.950 . S
C1028 C1027 1.398 . S
C1028 C1029 1.391 . S
C1029 H1017 0.950 . S
C1029 C1025 1.393 . S
C1029 C1028 1.391 . S
H1030 C1038 0.950 . S
H1031 C1043 0.950 . S
H1032 C1040 0.950 . S
H1033 C1042 0.950 . S
H1034 C1044 0.950 . S
H1035 C1046 0.950 . S
H1036 C1048 0.950 . S
H1037 C1049 0.950 . S
C1038 H1030 0.950 . S
C1038 C1039 1.386 . S
C1038 C1040 1.391 . S
C1039 C1038 1.386 . S
C1039 C1043 1.393 . S
C1040 H1032 0.950 . S
C1040 C1038 1.391 . S
C1040 C1041 1.400 . S
C1041 C1040 1.400 . S
C1041 C1042 1.398 . S
C1041 C1047 1.491 . S
C1042 H1033 0.950 . S
C1042 C1041 1.398 . S
C1042 C1043 1.391 . S
C1043 H1031 0.950 . S
C1043 C1039 1.393 . S
C1043 C1042 1.391 . S
C1044 H1034 0.950 . S
C1044 C1045 1.386 . S
C1044 C1046 1.391 . S
C1045 C1044 1.386 . S
C1045 C1049 1.393 . S
C1046 H1035 0.950 . S
C1046 C1044 1.391 . S
C1046 C1047 1.400 . S
C1047 C1041 1.491 . S
C1047 C1046 1.400 . S
C1047 C1048 1.398 . S
C1048 H1036 0.950 . S
C1048 C1047 1.398 . S
C1048 C1049 1.391 . S
C1049 H1037 0.950 . S
C1049 C1045 1.393 . S
C1049 C1048 1.391 . S
H1050 C1058 0.950 . S
H1051 C1063 0.950 . S
H1052 C1060 0.950 . S
H1053 C1062 0.950 . S
H1054 C1064 0.950 . S
H1055 C1066 0.950 . S
H1056 C1068 0.950 . S
H1057 C1069 0.950 . S
C1058 H1050 0.950 . S
C1058 C1059 1.386 . S
C1058 C1060 1.391 . S
C1059 C1058 1.386 . S
C1059 C1063 1.393 . S
C1060 H1052 0.950 . S
C1060 C1058 1.391 . S
C1060 C1061 1.400 . S
C1061 C1060 1.400 . S
C1061 C1062 1.398 . S
C1061 C1067 1.491 . S
C1062 H1053 0.950 . S
C1062 C1061 1.398 . S
C1062 C1063 1.391 . S
C1063 H1051 0.950 . S
C1063 C1059 1.393 . S
C1063 C1062 1.391 . S
C1064 H1054 0.950 . S
C1064 C1065 1.386 . S
C1064 C1066 1.391 . S
C1065 C1064 1.386 . S
C1065 C1069 1.393 . S
C1066 H1055 0.950 . S
C1066 C1064 1.391 . S
C1066 C1067 1.400 . S
C1067 C1061 1.491 . S
C1067 C1066 1.400 . S
C1067 C1068 1.398 . S
C1068 H1056 0.950 . S
C1068 C1067 1.398 . S
C1068 C1069 1.391 . S
C1069 H1057 0.950 . S
C1069 C1065 1.393 . S
C1069 C1068 1.391 . S
H1070 C1078 0.950 . S
H1071 C1083 0.950 . S
H1072 C1080 0.950 . S
H1073 C1082 0.950 . S
H1074 C1084 0.950 . S
H1075 C1086 0.950 . S
H1076 C1088 0.950 . S
H1077 C1089 0.950 . S
C1078 H1070 0.950 . S
C1078 C1079 1.386 . S
C1078 C1080 1.391 . S
C1079 C1078 1.386 . S
C1079 C1083 1.393 . S
C1080 H1072 0.950 . S
C1080 C1078 1.391 . S
C1080 C1081 1.400 . S
C1081 C1080 1.400 . S
C1081 C1082 1.398 . S
C1081 C1087 1.491 . S
C1082 H1073 0.950 . S
C1082 C1081 1.398 . S
C1082 C1083 1.391 . S
C1083 H1071 0.950 . S
C1083 C1079 1.393 . S
C1083 C1082 1.391 . S
C1084 H1074 0.950 . S
C1084 C1085 1.386 . S
C1084 C1086 1.391 . S
C1085 C1084 1.386 . S
C1085 C1089 1.393 . S
C1086 H1075 0.950 . S
C1086 C1084 1.391 . S
C1086 C1087 1.400 . S
C1087 C1081 1.491 . S
C1087 C1086 1.400 . S
C1087 C1088 1.398 . S
C1088 H1076 0.950 . S
C1088 C1087 1.398 . S
C1088 C1089 1.391 . S
C1089 H1077 0.950 . S
C1089 C1085 1.393 . S
C1089 C1088 1.391 . S
H1090 C1098 0.950 . S
H1091 C1103 0.950 . S
H1092 C1100 0.950 . S
H1093 C1102 0.950 . S
H1094 C1104 0.950 . S
H1095 C1106 0.950 . S
H1096 C1108 0.950 . S
H1097 C1109 0.950 . S
C1098 H1090 0.950 . S
C1098 C1099 1.386 . S
C1098 C1100 1.391 . S
C1099 C1098 1.386 . S
C1099 C1103 1.393 . S
C1100 H1092 0.950 . S
C1100 C1098 1.391 . S
C1100 C1101 1.400 . S
C1101 C1100 1.400 . S
C1101 C1102 1.398 . S
C1101 C1107 1.491 . S
C1102 H1093 0.950 . S
C1102 C1101 1.398 . S
C1102 C1103 1.391 . S
C1103 H1091 0.950 . S
C1103 C1099 1.393 . S
C1103 C1102 1.391 . S
C1104 H1094 0.950 . S
C1104 C1105 1.386 . S
C1104 C1106 1.391 . S
C1105 C1104 1.386 . S
C1105 C1109 1.393 . S
C1106 H1095 0.950 . S
C1106 C1104 1.391 . S
C1106 C1107 1.400 . S
C1107 C1101 1.491 . S
C1107 C1106 1.400 . S
C1107 C1108 1.398 . S
C1108 H1096 0.950 . S
C1108 C1107 1.398 . S
C1108 C1109 1.391 . S
C1109 H1097 0.950 . S
C1109 C1105 1.393 . S
C1109 C1108 1.391 . S
H1110 C1118 0.950 . S
H1111 C1123 0.950 . S
H1112 C1120 0.950 . S
H1113 C1122 0.950 . S
H1114 C1124 0.950 . S
H1115 C1126 0.950 . S
H1116 C1128 0.950 . S
H1117 C1129 0.950 . S
C1118 H1110 0.950 . S
C1118 C1119 1.386 . S
C1118 C1120 1.391 . S
C1119 C1118 1.386 . S
C1119 C1123 1.393 . S
C1120 H1112 0.950 . S
C1120 C1118 1.391 . S
C1120 C1121 1.400 . S
C1121 C1120 1.400 . S
C1121 C1122 1.398 . S
C1121 C1127 1.491 . S
C1122 H1113 0.950 . S
C1122 C1121 1.398 . S
C1122 C1123 1.391 . S
C1123 H1111 0.950 . S
C1123 C1119 1.393 . S
C1123 C1122 1.391 . S
C1124 H1114 0.950 . S
C1124 C1125 1.386 . S
C1124 C1126 1.391 . S
C1125 C1124 1.386 . S
C1125 C1129 1.393 . S
C1126 H1115 0.950 . S
C1126 C1124 1.391 . S
C1126 C1127 1.400 . S
C1127 C1121 1.491 . S
C1127 C1126 1.400 . S
C1127 C1128 1.398 . S
C1128 H1116 0.950 . S
C1128 C1127 1.398 . S
C1128 C1129 1.391 . S
C1129 H1117 0.950 . S
C1129 C1125 1.393 . S
C1129 C1128 1.391 . S
H1130 C1138 0.950 . S
H1131 C1143 0.950 . S
H1132 C1140 0.950 . S
H1133 C1142 0.950 . S
H1134 C1144 0.950 . S
H1135 C1146 0.950 . S
H1136 C1148 0.950 . S
H1137 C1149 0.950 . S
C1138 H1130 0.950 . S
C1138 C1139 1.386 . S
C1138 C1140 1.391 . S
C1139 C1138 1.386 . S
C1139 C1143 1.393 . S
C1140 H1132 0.950 . S
C1140 C1138 1.391 . S
C1140 C1141 1.400 . S
C1141 C1140 1.400 . S
C1141 C1142 1.398 . S
C1141 C1147 1.491 . S
C1142 H1133 0.950 . S
C1142 C1141 1.398 . S
C1142 C1143 1.391 . S
C1143 H1131 0.950 . S
C1143 C1139 1.393 . S
C1143 C1142 1.391 . S
C1144 H1134 0.950 . S
C1144 C1145 1.386 . S
C1144 C1146 1.391 . S
C1145 C1144 1.386 . S
C1145 C1149 1.393 . S
C1146 H1135 0.950 . S
C1146 C1144 1.391 . S
C1146 C1147 1.400 . S
C1147 C1141 1.491 . S
C1147 C1146 1.400 . S
C1147 C1148 1.398 . S
C1148 H1136 0.950 . S
C1148 C1147 1.398 . S
C1148 C1149 1.391 . S
C1149 H1137 0.950 . S
C1149 C1145 1.393 . S
C1149 C1148 1.391 . S
H1150 C1158 0.950 . S
H1151 C1163 0.950 . S
H1152 C1160 0.950 . S
H1153 C1162 0.950 . S
H1154 C1164 0.950 . S
H1155 C1166 0.950 . S
H1156 C1168 0.950 . S
H1157 C1169 0.950 . S
C1158 H1150 0.950 . S
C1158 C1159 1.386 . S
C1158 C1160 1.391 . S
C1159 C1158 1.386 . S
C1159 C1163 1.393 . S
C1160 H1152 0.950 . S
C1160 C1158 1.391 . S
C1160 C1161 1.400 . S
C1161 C1160 1.400 . S
C1161 C1162 1.398 . S
C1161 C1167 1.491 . S
C1162 H1153 0.950 . S
C1162 C1161 1.398 . S
C1162 C1163 1.391 . S
C1163 H1151 0.950 . S
C1163 C1159 1.393 . S
C1163 C1162 1.391 . S
C1164 H1154 0.950 . S
C1164 C1165 1.386 . S
C1164 C1166 1.391 . S
C1165 C1164 1.386 . S
C1165 C1169 1.393 . S
C1166 H1155 0.950 . S
C1166 C1164 1.391 . S
C1166 C1167 1.400 . S
C1167 C1161 1.491 . S
C1167 C1166 1.400 . S
C1167 C1168 1.398 . S
C1168 H1156 0.950 . S
C1168 C1167 1.398 . S
C1168 C1169 1.391 . S
C1169 H1157 0.950 . S
C1169 C1165 1.393 . S
C1169 C1168 1.391 . S
H1170 C1178 0.950 . S
H1171 C1183 0.950 . S
H1172 C1180 0.950 . S
H1173 C1182 0.950 . S
H1174 C1184 0.950 . S
H1175 C1186 0.950 . S
H1176 C1188 0.950 . S
H1177 C1189 0.950 . S
C1178 H1170 0.950 . S
C1178 C1179 1.386 . S
C1178 C1180 1.391 . S
C1179 C1178 1.386 . S
C1179 C1183 1.393 . S
C1180 H1172 0.950 . S
C1180 C1178 1.391 . S
C1180 C1181 1.400 . S
C1181 C1180 1.400 . S
C1181 C1182 1.398 . S
C1181 C1187 1.491 . S
C1182 H1173 0.950 . S
C1182 C1181 1.398 . S
C1182 C1183 1.391 . S
C1183 H1171 0.950 . S
C1183 C1179 1.393 . S
C1183 C1182 1.391 . S
C1184 H1174 0.950 . S
C1184 C1185 1.386 . S
C1184 C1186 1.391 . S
C1185 C1184 1.386 . S
C1185 C1189 1.393 . S
C1186 H1175 0.950 . S
C1186 C1184 1.391 . S
C1186 C1187 1.400 . S
C1187 C1181 1.491 . S
C1187 C1186 1.400 . S
C1187 C1188 1.398 . S
C1188 H1176 0.950 . S
C1188 C1187 1.398 . S
C1188 C1189 1.391 . S
C1189 H1177 0.950 . S
C1189 C1185 1.393 . S
C1189 C1188 1.391 . S
H1190 C1198 0.950 . S
H1191 C1203 0.950 . S
H1192 C1200 0.950 . S
H1193 C1202 0.950 . S
H1194 C1204 0.950 . S
H1195 C1206 0.950 . S
H1196 C1208 0.950 . S
H1197 C1209 0.950 . S
C1198 H1190 0.950 . S
C1198 C1199 1.386 . S
C1198 C1200 1.391 . S
C1199 C1198 1.386 . S
C1199 C1203 1.393 . S
C1200 H1192 0.950 . S
C1200 C1198 1.391 . S
C1200 C1201 1.400 . S
C1201 C1200 1.400 . S
C1201 C1202 1.398 . S
C1201 C1207 1.491 . S
C1202 H1193 0.950 . S
C1202 C1201 1.398 . S
C1202 C1203 1.391 . S
C1203 H1191 0.950 . S
C1203 C1199 1.393 . S
C1203 C1202 1.391 . S
C1204 H1194 0.950 . S
C1204 C1205 1.386 . S
C1204 C1206 1.391 . S
C1205 C1204 1.386 . S
C1205 C1209 1.393 . S
C1206 H1195 0.950 . S
C1206 C1204 1.391 . S
C1206 C1207 1.400 . S
C1207 C1201 1.491 . S
C1207 C1206 1.400 . S
C1207 C1208 1.398 . S
C1208 H1196 0.950 . S
C1208 C1207 1.398 . S
C1208 C1209 1.391 . S
C1209 H1197 0.950 . S
C1209 C1205 1.393 . S
C1209 C1208 1.391 . S
H1210 C1218 0.950 . S
H1211 C1223 0.950 . S
H1212 C1220 0.950 . S
H1213 C1222 0.950 . S
H1214 C1224 0.950 . S
H1215 C1226 0.950 . S
H1216 C1228 0.950 . S
H1217 C1229 0.950 . S
C1218 H1210 0.950 . S
C1218 C1219 1.386 . S
C1218 C1220 1.391 . S
C1219 C1218 1.386 . S
C1219 C1223 1.393 . S
C1220 H1212 0.950 . S
C1220 C1218 1.391 . S
C1220 C1221 1.400 . S
C1221 C1220 1.400 . S
C1221 C1222 1.398 . S
C1221 C1227 1.491 . S
C1222 H1213 0.950 . S
C1222 C1221 1.398 . S
C1222 C1223 1.391 . S
C1223 H1211 0.950 . S
C1223 C1219 1.393 . S
C1223 C1222 1.391 . S
C1224 H1214 0.950 . S
C1224 C1225 1.386 . S
C1224 C1226 1.391 . S
C1225 C1224 1.386 . S
C1225 C1229 1.393 . S
C1226 H1215 0.950 . S
C1226 C1224 1.391 . S
C1226 C1227 1.400 . S
C1227 C1221 1.491 . S
C1227 C1226 1.400 . S
C1227 C1228 1.398 . S
C1228 H1216 0.950 . S
C1228 C1227 1.398 . S
C1228 C1229 1.391 . S
C1229 H1217 0.950 . S
C1229 C1225 1.393 . S
C1229 C1228 1.391 . S
H1230 C1238 0.950 . S
H1231 C1243 0.950 . S
H1232 C1240 0.950 . S
H1233 C1242 0.950 . S
H1234 C1244 0.950 . S
H1235 C1246 0.950 . S
H1236 C1248 0.950 . S
H1237 C1249 0.950 . S
C1238 H1230 0.950 . S
C1238 C1239 1.386 . S
C1238 C1240 1.391 . S
C1239 C1238 1.386 . S
C1239 C1243 1.393 . S
C1240 H1232 0.950 . S
C1240 C1238 1.391 . S
C1240 C1241 1.400 . S
C1241 C1240 1.400 . S
C1241 C1242 1.398 . S
C1241 C1247 1.491 . S
C1242 H1233 0.950 . S
C1242 C1241 1.398 . S
C1242 C1243 1.391 . S
C1243 H1231 0.950 . S
C1243 C1239 1.393 . S
C1243 C1242 1.391 . S
C1244 H1234 0.950 . S
C1244 C1245 1.386 . S
C1244 C1246 1.391 . S
C1245 C1244 1.386 . S
C1245 C1249 1.393 . S
C1246 H1235 0.950 . S
C1246 C1244 1.391 . S
C1246 C1247 1.400 . S
C1247 C1241 1.491 . S
C1247 C1246 1.400 . S
C1247 C1248 1.398 . S
C1248 H1236 0.950 . S
C1248 C1247 1.398 . S
C1248 C1249 1.391 . S
C1249 H1237 0.950 . S
C1249 C1245 1.393 . S
C1249 C1248 1.391 . S
H1250 C1258 0.950 . S
H1251 C1263 0.950 . S
H1252 C1260 0.950 . S
H1253 C1262 0.950 . S
H1254 C1264 0.950 . S
H1255 C1266 0.950 . S
H1256 C1268 0.950 . S
H1257 C1269 0.950 . S
C1258 H1250 0.950 . S
C1258 C1259 1.386 . S
C1258 C1260 1.391 . S
C1259 C1258 1.386 . S
C1259 C1263 1.393 . S
C1260 H1252 0.950 . S
C1260 C1258 1.391 . S
C1260 C1261 1.400 . S
C1261 C1260 1.400 . S
C1261 C1262 1.398 . S
C1261 C1267 1.491 . S
C1262 H1253 0.950 . S
C1262 C1261 1.398 . S
C1262 C1263 1.391 . S
C1263 H1251 0.950 . S
C1263 C1259 1.393 . S
C1263 C1262 1.391 . S
C1264 H1254 0.950 . S
C1264 C1265 1.386 . S
C1264 C1266 1.391 . S
C1265 C1264 1.386 . S
C1265 C1269 1.393 . S
C1266 H1255 0.950 . S
C1266 C1264 1.391 . S
C1266 C1267 1.400 . S
C1267 C1261 1.491 . S
C1267 C1266 1.400 . S
C1267 C1268 1.398 . S
C1268 H1256 0.950 . S
C1268 C1267 1.398 . S
C1268 C1269 1.391 . S
C1269 H1257 0.950 . S
C1269 C1265 1.393 . S
C1269 C1268 1.391 . S
H1270 C1278 0.950 . S
H1271 C1283 0.950 . S
H1272 C1280 0.950 . S
H1273 C1282 0.950 . S
H1274 C1284 0.950 . S
H1275 C1286 0.950 . S
H1276 C1288 0.950 . S
H1277 C1289 0.950 . S
C1278 H1270 0.950 . S
C1278 C1279 1.386 . S
C1278 C1280 1.391 . S
C1279 C1278 1.386 . S
C1279 C1283 1.393 . S
C1280 H1272 0.950 . S
C1280 C1278 1.391 . S
C1280 C1281 1.400 . S
C1281 C1280 1.400 . S
C1281 C1282 1.398 . S
C1281 C1287 1.491 . S
C1282 H1273 0.950 . S
C1282 C1281 1.398 . S
C1282 C1283 1.391 . S
C1283 H1271 0.950 . S
C1283 C1279 1.393 . S
C1283 C1282 1.391 . S
C1284 H1274 0.950 . S
C1284 C1285 1.386 . S
C1284 C1286 1.391 . S
C1285 C1284 1.386 . S
C1285 C1289 1.393 . S
C1286 H1275 0.950 . S
C1286 C1284 1.391 . S
C1286 C1287 1.400 . S
C1287 C1281 1.491 . S
C1287 C1286 1.400 . S
C1287 C1288 1.398 . S
C1288 H1276 0.950 . S
C1288 C1287 1.398 . S
C1288 C1289 1.391 . S
C1289 H1277 0.950 . S
C1289 C1285 1.393 . S
C1289 C1288 1.391 . S
H1290 C1298 0.950 . S
H1291 C1303 0.950 . S
H1292 C1300 0.950 . S
H1293 C1302 0.950 . S
H1294 C1304 0.950 . S
H1295 C1306 0.950 . S
H1296 C1308 0.950 . S
H1297 C1309 0.950 . S
C1298 H1290 0.950 . S
C1298 C1299 1.386 . S
C1298 C1300 1.391 . S
C1299 C1298 1.386 . S
C1299 C1303 1.393 . S
C1300 H1292 0.950 . S
C1300 C1298 1.391 . S
C1300 C1301 1.400 . S
C1301 C1300 1.400 . S
C1301 C1302 1.398 . S
C1301 C1307 1.491 . S
C1302 H1293 0.950 . S
C1302 C1301 1.398 . S
C1302 C1303 1.391 . S
C1303 H1291 0.950 . S
C1303 C1299 1.393 . S
C1303 C1302 1.391 . S
C1304 H1294 0.950 . S
C1304 C1305 1.386 . S
C1304 C1306 1.391 . S
C1305 C1304 1.386 . S
C1305 C1309 1.393 . S
C1306 H1295 0.950 . S
C1306 C1304 1.391 . S
C1306 C1307 1.400 . S
C1307 C1301 1.491 . S
C1307 C1306 1.400 . S
C1307 C1308 1.398 . S
C1308 H1296 0.950 . S
C1308 C1307 1.398 . S
C1308 C1309 1.391 . S
C1309 H1297 0.950 . S
C1309 C1305 1.393 . S
C1309 C1308 1.391 . S
H1310 C1318 0.950 . S
H1311 C1323 0.950 . S
H1312 C1320 0.950 . S
H1313 C1322 0.950 . S
H1314 C1324 0.950 . S
H1315 C1326 0.950 . S
H1316 C1328 0.950 . S
H1317 C1329 0.950 . S
C1318 H1310 0.950 . S
C1318 C1319 1.386 . S
C1318 C1320 1.391 . S
C1319 C1318 1.386 . S
C1319 C1323 1.393 . S
C1320 H1312 0.950 . S
C1320 C1318 1.391 . S
C1320 C1321 1.400 . S
C1321 C1320 1.400 . S
C1321 C1322 1.398 . S
C1321 C1327 1.491 . S
C1322 H1313 0.950 . S
C1322 C1321 1.398 . S
C1322 C1323 1.391 . S
C1323 H1311 0.950 . S
C1323 C1319 1.393 . S
C1323 C1322 1.391 . S
C1324 H1314 0.950 . S
C1324 C1325 1.386 . S
C1324 C1326 1.391 . S
C1325 C1324 1.386 . S
C1325 C1329 1.393 . S
C1326 H1315 0.950 . S
C1326 C1324 1.391 . S
C1326 C1327 1.400 . S
C1327 C1321 1.491 . S
C1327 C1326 1.400 . S
C1327 C1328 1.398 . S
C1328 H1316 0.950 . S
C1328 C1327 1.398 . S
C1328 C1329 1.391 . S
C1329 H1317 0.950 . S
C1329 C1325 1.393 . S
C1329 C1328 1.391 . S
H1330 C1338 0.950 . S
H1331 C1343 0.950 . S
H1332 C1340 0.950 . S
H1333 C1342 0.950 . S
H1334 C1344 0.950 . S
H1335 C1346 0.950 . S
H1336 C1348 0.950 . S
H1337 C1349 0.950 . S
C1338 H1330 0.950 . S
C1338 C1339 1.386 . S
C1338 C1340 1.391 . S
C1339 C1338 1.386 . S
C1339 C1343 1.393 . S
C1340 H1332 0.950 . S
C1340 C1338 1.391 . S
C1340 C1341 1.400 . S
C1341 C1340 1.400 . S
C1341 C1342 1.398 . S
C1341 C1347 1.491 . S
C1342 H1333 0.950 . S
C1342 C1341 1.398 . S
C1342 C1343 1.391 . S
C1343 H1331 0.950 . S
C1343 C1339 1.393 . S
C1343 C1342 1.391 . S
C1344 H1334 0.950 . S
C1344 C1345 1.386 . S
C1344 C1346 1.391 . S
C1345 C1344 1.386 . S
C1345 C1349 1.393 . S
C1346 H1335 0.950 . S
C1346 C1344 1.391 . S
C1346 C1347 1.400 . S
C1347 C1341 1.491 . S
C1347 C1346 1.400 . S
C1347 C1348 1.398 . S
C1348 H1336 0.950 . S
C1348 C1347 1.398 . S
C1348 C1349 1.391 . S
C1349 H1337 0.950 . S
C1349 C1345 1.393 . S
C1349 C1348 1.391 . S
H1350 C1358 0.950 . S
H1351 C1363 0.950 . S
H1352 C1360 0.950 . S
H1353 C1362 0.950 . S
H1354 C1364 0.950 . S
H1355 C1366 0.950 . S
H1356 C1368 0.950 . S
H1357 C1369 0.950 . S
C1358 H1350 0.950 . S
C1358 C1359 1.386 . S
C1358 C1360 1.391 . S
C1359 C1358 1.386 . S
C1359 C1363 1.393 . S
C1360 H1352 0.950 . S
C1360 C1358 1.391 . S
C1360 C1361 1.400 . S
C1361 C1360 1.400 . S
C1361 C1362 1.398 . S
C1361 C1367 1.491 . S
C1362 H1353 0.950 . S
C1362 C1361 1.398 . S
C1362 C1363 1.391 . S
C1363 H1351 0.950 . S
C1363 C1359 1.393 . S
C1363 C1362 1.391 . S
C1364 H1354 0.950 . S
C1364 C1365 1.386 . S
C1364 C1366 1.391 . S
C1365 C1364 1.386 . S
C1365 C1369 1.393 . S
C1366 H1355 0.950 . S
C1366 C1364 1.391 . S
C1366 C1367 1.400 . S
C1367 C1361 1.491 . S
C1367 C1366 1.400 . S
C1367 C1368 1.398 . S
C1368 H1356 0.950 . S
C1368 C1367 1.398 . S
C1368 C1369 1.391 . S
C1369 H1357 0.950 . S
C1369 C1365 1.393 . S
C1369 C1368 1.391 . S
H1370 C1378 0.950 . S
H1371 C1383 0.950 . S
H1372 C1380 0.950 . S
H1373 C1382 0.950 . S
H1374 C1384 0.950 . S
H1375 C1386 0.950 . S
H1376 C1388 0.950 . S
H1377 C1389 0.950 . S
C1378 H1370 0.950 . S
C1378 C1379 1.386 . S
C1378 C1380 1.391 . S
C1379 C1378 1.386 . S
C1379 C1383 1.393 . S
C1380 H1372 0.950 . S
C1380 C1378 1.391 . S
C1380 C1381 1.400 . S
C1381 C1380 1.400 . S
C1381 C1382 1.398 . S
C1381 C1387 1.491 . S
C1382 H1373 0.950 . S
C1382 C1381 1.398 . S
C1382 C1383 1.391 . S
C1383 H1371 0.950 . S
C1383 C1379 1.393 . S
C1383 C1382 1.391 . S
C1384 H1374 0.950 . S
C1384 C1385 1.386 . S
C1384 C1386 1.391 . S
C1385 C1384 1.386 . S
C1385 C1389 1.393 . S
C1386 H1375 0.950 . S
C1386 C1384 1.391 . S
C1386 C1387 1.400 . S
C1387 C1381 1.491 . S
C1387 C1386 1.400 . S
C1387 C1388 1.398 . S
C1388 H1376 0.950 . S
C1388 C1387 1.398 . S
C1388 C1389 1.391 . S
C1389 H1377 0.950 . S
C1389 C1385 1.393 . S
C1389 C1388 1.391 . S
H1390 C1398 0.950 . S
H1391 C1403 0.950 . S
H1392 C1400 0.950 . S
H1393 C1402 0.950 . S
H1394 C1404 0.950 . S
H1395 C1406 0.950 . S
H1396 C1408 0.950 . S
H1397 C1409 0.950 . S
C1398 H1390 0.950 . S
C1398 C1399 1.386 . S
C1398 C1400 1.391 . S
C1399 C1398 1.386 . S
C1399 C1403 1.393 . S
C1400 H1392 0.950 . S
C1400 C1398 1.391 . S
C1400 C1401 1.400 . S
C1401 C1400 1.400 . S
C1401 C1402 1.398 . S
C1401 C1407 1.491 . S
C1402 H1393 0.950 . S
C1402 C1401 1.398 . S
C1402 C1403 1.391 . S
C1403 H1391 0.950 . S
C1403 C1399 1.393 . S
C1403 C1402 1.391 . S
C1404 H1394 0.950 . S
C1404 C1405 1.386 . S
C1404 C1406 1.391 . S
C1405 C1404 1.386 . S
C1405 C1409 1.393 . S
C1406 H1395 0.950 . S
C1406 C1404 1.391 . S
C1406 C1407 1.400 . S
C1407 C1401 1.491 . S
C1407 C1406 1.400 . S
C1407 C1408 1.398 . S
C1408 H1396 0.950 . S
C1408 C1407 1.398 . S
C1408 C1409 1.391 . S
C1409 H1397 0.950 . S
C1409 C1405 1.393 . S
C1409 C1408 1.391 . S
H1410 C1418 0.950 . S
H1411 C1423 0.950 1_554 S
H1412 C1420 0.950 . S
H1413 C1422 0.950 . S
H1414 C1424 0.950 . S
H1415 C1426 0.950 . S
H1416 C1428 0.950 . S
H1417 C1429 0.950 . S
C1418 H1410 0.950 . S
C1418 C1419 1.386 . S
C1418 C1420 1.391 . S
C1419 C1418 1.386 . S
C1419 C1423 1.393 . S
C1420 H1412 0.950 . S
C1420 C1418 1.391 . S
C1420 C1421 1.400 . S
C1421 C1420 1.400 . S
C1421 C1422 1.398 . S
C1421 C1427 1.491 . S
C1422 H1413 0.950 . S
C1422 C1421 1.398 . S
C1422 C1423 1.391 . S
C1423 H1411 0.950 1_556 S
C1423 C1419 1.393 . S
C1423 C1422 1.391 . S
C1424 H1414 0.950 . S
C1424 C1425 1.386 . S
C1424 C1426 1.391 . S
C1425 C1424 1.386 . S
C1425 C1429 1.393 . S
C1426 H1415 0.950 . S
C1426 C1424 1.391 . S
C1426 C1427 1.400 . S
C1427 C1421 1.491 . S
C1427 C1426 1.400 . S
C1427 C1428 1.398 . S
C1428 H1416 0.950 . S
C1428 C1427 1.398 . S
C1428 C1429 1.391 . S
C1429 H1417 0.950 . S
C1429 C1425 1.393 . S
C1429 C1428 1.391 . S
H1430 C1438 0.950 . S
H1431 C1443 0.950 . S
H1432 C1440 0.950 . S
H1433 C1442 0.950 . S
H1434 C1444 0.950 . S
H1435 C1446 0.950 . S
H1436 C1448 0.950 . S
H1437 C1449 0.950 . S
C1438 H1430 0.950 . S
C1438 C1439 1.386 . S
C1438 C1440 1.391 . S
C1439 C1438 1.386 . S
C1439 C1443 1.393 . S
C1440 H1432 0.950 . S
C1440 C1438 1.391 . S
C1440 C1441 1.400 . S
C1441 C1440 1.400 . S
C1441 C1442 1.398 . S
C1441 C1447 1.491 . S
C1442 H1433 0.950 . S
C1442 C1441 1.398 . S
C1442 C1443 1.391 . S
C1443 H1431 0.950 . S
C1443 C1439 1.393 . S
C1443 C1442 1.391 . S
C1444 H1434 0.950 . S
C1444 C1445 1.386 . S
C1444 C1446 1.391 . S
C1445 C1444 1.386 . S
C1445 C1449 1.393 . S
C1446 H1435 0.950 . S
C1446 C1444 1.391 . S
C1446 C1447 1.400 . S
C1447 C1441 1.491 . S
C1447 C1446 1.400 . S
C1447 C1448 1.398 . S
C1448 H1436 0.950 . S
C1448 C1447 1.398 . S
C1448 C1449 1.391 . S
C1449 H1437 0.950 . S
C1449 C1445 1.393 . S
C1449 C1448 1.391 . S
H1450 C1458 0.950 1_554 S
H1451 C1463 0.950 . S
H1452 C1460 0.950 . S
H1453 C1462 0.950 . S
H1454 C1464 0.950 . S
H1455 C1466 0.950 . S
H1456 C1468 0.950 . S
H1457 C1469 0.950 . S
C1458 H1450 0.950 1_556 S
C1458 C1459 1.386 . S
C1458 C1460 1.391 . S
C1459 C1458 1.386 . S
C1459 C1463 1.393 . S
C1460 H1452 0.950 . S
C1460 C1458 1.391 . S
C1460 C1461 1.400 . S
C1461 C1460 1.400 . S
C1461 C1462 1.398 . S
C1461 C1467 1.491 . S
C1462 H1453 0.950 . S
C1462 C1461 1.398 . S
C1462 C1463 1.391 . S
C1463 H1451 0.950 . S
C1463 C1459 1.393 . S
C1463 C1462 1.391 . S
C1464 H1454 0.950 . S
C1464 C1465 1.386 . S
C1464 C1466 1.391 . S
C1465 C1464 1.386 . S
C1465 C1469 1.393 . S
C1466 H1455 0.950 . S
C1466 C1464 1.391 . S
C1466 C1467 1.400 . S
C1467 C1461 1.491 . S
C1467 C1466 1.400 . S
C1467 C1468 1.398 . S
C1468 H1456 0.950 . S
C1468 C1467 1.398 . S
C1468 C1469 1.391 . S
C1469 H1457 0.950 . S
C1469 C1465 1.393 . S
C1469 C1468 1.391 . S
H1470 C1478 0.950 . S
H1471 C1483 0.950 1_554 S
H1472 C1480 0.950 . S
H1473 C1482 0.950 . S
H1474 C1484 0.950 . S
H1475 C1486 0.950 . S
H1476 C1488 0.950 . S
H1477 C1489 0.950 . S
C1478 H1470 0.950 . S
C1478 C1479 1.386 . S
C1478 C1480 1.391 . S
C1479 C1478 1.386 . S
C1479 C1483 1.393 . S
C1480 H1472 0.950 . S
C1480 C1478 1.391 . S
C1480 C1481 1.400 . S
C1481 C1480 1.400 . S
C1481 C1482 1.398 . S
C1481 C1487 1.491 . S
C1482 H1473 0.950 . S
C1482 C1481 1.398 . S
C1482 C1483 1.391 . S
C1483 H1471 0.950 1_556 S
C1483 C1479 1.393 . S
C1483 C1482 1.391 . S
C1484 H1474 0.950 . S
C1484 C1485 1.386 . S
C1484 C1486 1.391 . S
C1485 C1484 1.386 . S
C1485 C1489 1.393 . S
C1486 H1475 0.950 . S
C1486 C1484 1.391 . S
C1486 C1487 1.400 . S
C1487 C1481 1.491 . S
C1487 C1486 1.400 . S
C1487 C1488 1.398 . S
C1488 H1476 0.950 . S
C1488 C1487 1.398 . S
C1488 C1489 1.391 . S
C1489 H1477 0.950 . S
C1489 C1485 1.393 . S
C1489 C1488 1.391 . S
H1490 C1498 0.925 1_554 S
H1491 C1503 0.950 . S
H1492 C1500 0.950 . S
H1493 C1502 0.950 . S
H1494 C1504 0.950 . S
H1495 C1506 0.950 . S
H1496 C1508 0.950 . S
H1497 C1509 0.950 . S
C1498 H1490 0.925 1_556 S
C1498 C1499 1.386 . S
C1498 C1500 1.391 . S
C1499 C1498 1.386 . S
C1499 C1503 1.393 . S
C1500 H1492 0.950 . S
C1500 C1498 1.391 . S
C1500 C1501 1.400 . S
C1501 C1500 1.400 . S
C1501 C1502 1.398 . S
C1501 C1507 1.491 . S
C1502 H1493 0.950 . S
C1502 C1501 1.398 . S
C1502 C1503 1.391 . S
C1503 H1491 0.950 . S
C1503 C1499 1.393 . S
C1503 C1502 1.391 . S
C1504 H1494 0.950 . S
C1504 C1505 1.386 . S
C1504 C1506 1.391 . S
C1505 C1504 1.386 . S
C1505 C1509 1.393 . S
C1506 H1495 0.950 . S
C1506 C1504 1.391 . S
C1506 C1507 1.400 . S
C1507 C1501 1.491 . S
C1507 C1506 1.400 . S
C1507 C1508 1.398 . S
C1508 H1496 0.950 . S
C1508 C1507 1.398 . S
C1508 C1509 1.391 . S
C1509 H1497 0.950 . S
C1509 C1505 1.393 . S
C1509 C1508 1.391 . S
H1510 C1518 0.950 1_554 S
H1511 C1523 0.950 . S
H1512 C1520 0.950 . S
H1513 C1522 0.950 . S
H1514 C1524 0.950 . S
H1515 C1526 0.950 . S
H1516 C1528 0.950 . S
H1517 C1529 0.950 . S
C1518 H1510 0.950 1_556 S
C1518 C1519 1.386 . S
C1518 C1520 1.391 . S
C1519 C1518 1.386 . S
C1519 C1523 1.393 . S
C1520 H1512 0.950 . S
C1520 C1518 1.391 . S
C1520 C1521 1.400 . S
C1521 C1520 1.400 . S
C1521 C1522 1.398 . S
C1521 C1527 1.491 . S
C1522 H1513 0.950 . S
C1522 C1521 1.398 . S
C1522 C1523 1.391 . S
C1523 H1511 0.950 . S
C1523 C1519 1.393 . S
C1523 C1522 1.391 . S
C1524 H1514 0.950 . S
C1524 C1525 1.386 . S
C1524 C1526 1.391 . S
C1525 C1524 1.386 . S
C1525 C1529 1.393 . S
C1526 H1515 0.950 . S
C1526 C1524 1.391 . S
C1526 C1527 1.400 . S
C1527 C1521 1.491 . S
C1527 C1526 1.400 . S
C1527 C1528 1.398 . S
C1528 H1516 0.950 . S
C1528 C1527 1.398 . S
C1528 C1529 1.391 . S
C1529 H1517 0.950 . S
C1529 C1525 1.393 . S
C1529 C1528 1.391 . S
H1530 C1538 0.950 . S
H1531 C1543 0.950 . S
H1532 C1540 0.950 . S
H1533 C1542 0.950 . S
H1534 C1544 0.950 . S
H1535 C1546 0.950 . S
H1536 C1548 0.950 . S
H1537 C1549 0.950 . S
C1538 H1530 0.950 . S
C1538 C1539 1.386 . S
C1538 C1540 1.391 . S
C1539 C1538 1.386 . S
C1539 C1543 1.393 . S
C1540 H1532 0.950 . S
C1540 C1538 1.391 . S
C1540 C1541 1.400 . S
C1541 C1540 1.400 . S
C1541 C1542 1.398 . S
C1541 C1547 1.491 . S
C1542 H1533 0.950 . S
C1542 C1541 1.398 . S
C1542 C1543 1.391 . S
C1543 H1531 0.950 . S
C1543 C1539 1.393 . S
C1543 C1542 1.391 . S
C1544 H1534 0.950 . S
C1544 C1545 1.386 . S
C1544 C1546 1.391 . S
C1545 C1544 1.386 . S
C1545 C1549 1.393 . S
C1546 H1535 0.950 . S
C1546 C1544 1.391 . S
C1546 C1547 1.400 . S
C1547 C1541 1.491 . S
C1547 C1546 1.400 . S
C1547 C1548 1.398 . S
C1548 H1536 0.950 . S
C1548 C1547 1.398 . S
C1548 C1549 1.391 . S
C1549 H1537 0.950 . S
C1549 C1545 1.393 . S
C1549 C1548 1.391 . S
H1550 C1558 0.950 . S
H1551 C1563 0.950 . S
H1552 C1560 0.950 . S
H1553 C1562 0.950 . S
H1554 C1564 0.950 . S
H1555 C1566 0.950 . S
H1556 C1568 0.950 . S
H1557 C1569 0.950 . S
C1558 H1550 0.950 . S
C1558 C1559 1.386 . S
C1558 C1560 1.391 . S
C1559 C1558 1.386 . S
C1559 C1563 1.393 . S
C1560 H1552 0.950 . S
C1560 C1558 1.391 . S
C1560 C1561 1.400 . S
C1561 C1560 1.400 . S
C1561 C1562 1.398 . S
C1561 C1567 1.491 . S
C1562 H1553 0.950 . S
C1562 C1561 1.398 . S
C1562 C1563 1.391 . S
C1563 H1551 0.950 . S
C1563 C1559 1.393 . S
C1563 C1562 1.391 . S
C1564 H1554 0.950 . S
C1564 C1565 1.386 . S
C1564 C1566 1.391 . S
C1565 C1564 1.386 . S
C1565 C1569 1.393 . S
C1566 H1555 0.950 . S
C1566 C1564 1.391 . S
C1566 C1567 1.400 . S
C1567 C1561 1.491 . S
C1567 C1566 1.400 . S
C1567 C1568 1.398 . S
C1568 H1556 0.950 . S
C1568 C1567 1.398 . S
C1568 C1569 1.391 . S
C1569 H1557 0.950 . S
C1569 C1565 1.393 . S
C1569 C1568 1.391 . S
H1570 C1578 0.950 . S
H1571 C1583 0.950 . S
H1572 C1580 0.950 . S
H1573 C1582 0.950 . S
H1574 C1584 0.950 . S
H1575 C1586 0.950 . S
H1576 C1588 0.950 . S
H1577 C1589 0.950 . S
C1578 H1570 0.950 . S
C1578 C1579 1.386 . S
C1578 C1580 1.391 . S
C1579 C1578 1.386 . S
C1579 C1583 1.393 . S
C1580 H1572 0.950 . S
C1580 C1578 1.391 . S
C1580 C1581 1.400 . S
C1581 C1580 1.400 . S
C1581 C1582 1.398 . S
C1581 C1587 1.491 . S
C1582 H1573 0.950 . S
C1582 C1581 1.398 . S
C1582 C1583 1.391 . S
C1583 H1571 0.950 . S
C1583 C1579 1.393 . S
C1583 C1582 1.391 . S
C1584 H1574 0.950 . S
C1584 C1585 1.386 . S
C1584 C1586 1.391 . S
C1585 C1584 1.386 . S
C1585 C1589 1.393 . S
C1586 H1575 0.950 . S
C1586 C1584 1.391 . S
C1586 C1587 1.400 . S
C1587 C1581 1.491 . S
C1587 C1586 1.400 . S
C1587 C1588 1.398 . S
C1588 H1576 0.950 . S
C1588 C1587 1.398 . S
C1588 C1589 1.391 . S
C1589 H1577 0.950 . S
C1589 C1585 1.393 . S
C1589 C1588 1.391 . S
H1590 C1598 0.950 . S
H1591 C1603 0.950 . S
H1592 C1600 0.950 . S
H1593 C1602 0.950 . S
H1594 C1604 0.950 . S
H1595 C1606 0.950 . S
H1596 C1608 0.950 . S
H1597 C1609 0.950 . S
C1598 H1590 0.950 . S
C1598 C1599 1.386 . S
C1598 C1600 1.391 . S
C1599 C1598 1.386 . S
C1599 C1603 1.393 . S
C1600 H1592 0.950 . S
C1600 C1598 1.391 . S
C1600 C1601 1.400 . S
C1601 C1600 1.400 . S
C1601 C1602 1.398 . S
C1601 C1607 1.491 . S
C1602 H1593 0.950 . S
C1602 C1601 1.398 . S
C1602 C1603 1.391 . S
C1603 H1591 0.950 . S
C1603 C1599 1.393 . S
C1603 C1602 1.391 . S
C1604 H1594 0.950 . S
C1604 C1605 1.386 . S
C1604 C1606 1.391 . S
C1605 C1604 1.386 . S
C1605 C1609 1.393 . S
C1606 H1595 0.950 . S
C1606 C1604 1.391 . S
C1606 C1607 1.400 . S
C1607 C1601 1.491 . S
C1607 C1606 1.400 . S
C1607 C1608 1.398 . S
C1608 H1596 0.950 . S
C1608 C1607 1.398 . S
C1608 C1609 1.391 . S
C1609 H1597 0.950 . S
C1609 C1605 1.393 . S
C1609 C1608 1.391 . S
H1610 C1618 0.950 . S
H1611 C1623 0.950 . S
H1612 C1620 0.950 . S
H1613 C1622 0.950 . S
H1614 C1624 0.950 . S
H1615 C1626 0.950 . S
H1616 C1628 0.950 . S
H1617 C1629 0.950 . S
C1618 H1610 0.950 . S
C1618 C1619 1.386 . S
C1618 C1620 1.391 . S
C1619 C1618 1.386 . S
C1619 C1623 1.393 . S
C1620 H1612 0.950 . S
C1620 C1618 1.391 . S
C1620 C1621 1.400 . S
C1621 C1620 1.400 . S
C1621 C1622 1.398 . S
C1621 C1627 1.491 . S
C1622 H1613 0.950 . S
C1622 C1621 1.398 . S
C1622 C1623 1.391 . S
C1623 H1611 0.950 . S
C1623 C1619 1.393 . S
C1623 C1622 1.391 . S
C1624 H1614 0.950 . S
C1624 C1625 1.386 . S
C1624 C1626 1.391 . S
C1625 C1624 1.386 . S
C1625 C1629 1.393 . S
C1626 H1615 0.950 . S
C1626 C1624 1.391 . S
C1626 C1627 1.400 . S
C1627 C1621 1.491 . S
C1627 C1626 1.400 . S
C1627 C1628 1.398 . S
C1628 H1616 0.950 . S
C1628 C1627 1.398 . S
C1628 C1629 1.391 . S
C1629 H1617 0.950 . S
C1629 C1625 1.393 . S
C1629 C1628 1.391 . S
H1630 C1638 0.950 . S
H1631 C1643 0.950 . S
H1632 C1640 0.950 . S
H1633 C1642 0.950 . S
H1634 C1644 0.950 . S
H1635 C1646 0.950 . S
H1636 C1648 0.950 . S
H1637 C1649 0.950 . S
C1638 H1630 0.950 . S
C1638 C1639 1.386 . S
C1638 C1640 1.391 . S
C1639 C1638 1.386 . S
C1639 C1643 1.393 . S
C1640 H1632 0.950 . S
C1640 C1638 1.391 . S
C1640 C1641 1.400 . S
C1641 C1640 1.400 . S
C1641 C1642 1.398 . S
C1641 C1647 1.491 . S
C1642 H1633 0.950 . S
C1642 C1641 1.398 . S
C1642 C1643 1.391 . S
C1643 H1631 0.950 . S
C1643 C1639 1.393 . S
C1643 C1642 1.391 . S
C1644 H1634 0.950 . S
C1644 C1645 1.386 . S
C1644 C1646 1.391 . S
C1645 C1644 1.386 . S
C1645 C1649 1.393 . S
C1646 H1635 0.950 . S
C1646 C1644 1.391 . S
C1646 C1647 1.400 . S
C1647 C1641 1.491 . S
C1647 C1646 1.400 . S
C1647 C1648 1.398 . S
C1648 H1636 0.950 . S
C1648 C1647 1.398 . S
C1648 C1649 1.391 . S
C1649 H1637 0.950 . S
C1649 C1645 1.393 . S
C1649 C1648 1.391 . S
H1650 C1658 0.950 . S
H1651 C1663 0.946 1_655 S
H1652 C1660 0.950 . S
H1653 C1662 0.950 . S
H1654 C1664 0.950 . S
H1655 C1666 0.950 . S
H1656 C1668 0.950 . S
H1657 C1669 0.950 . S
C1658 H1650 0.950 . S
C1658 C1659 1.386 . S
C1658 C1660 1.391 . S
C1659 C1658 1.386 . S
C1659 C1663 1.403 . S
C1660 H1652 0.950 . S
C1660 C1658 1.391 . S
C1660 C1661 1.400 . S
C1661 C1660 1.400 . S
C1661 C1662 1.398 1_455 S
C1661 C1667 1.491 . S
C1662 H1653 0.950 . S
C1662 C1661 1.398 1_655 S
C1662 C1663 1.384 1_655 S
C1663 H1651 0.946 1_455 S
C1663 C1659 1.403 . S
C1663 C1662 1.384 1_455 S
C1664 H1654 0.950 . S
C1664 C1665 1.386 1_655 S
C1664 C1666 1.391 . S
C1665 C1664 1.386 1_455 S
C1665 C1669 1.393 . S
C1666 H1655 0.950 . S
C1666 C1664 1.391 . S
C1666 C1667 1.400 1_655 S
C1667 C1661 1.491 . S
C1667 C1666 1.400 1_455 S
C1667 C1668 1.398 . S
C1668 H1656 0.950 . S
C1668 C1667 1.398 . S
C1668 C1669 1.391 . S
C1669 H1657 0.950 . S
C1669 C1665 1.393 . S
C1669 C1668 1.391 . S
H1670 C1678 0.950 . S
H1671 C1683 0.950 . S
H1672 C1680 0.950 . S
H1673 C1682 0.950 . S
H1674 C1684 0.950 . S
H1675 C1686 0.950 . S
H1676 C1688 0.950 . S
H1677 C1689 0.950 . S
C1678 H1670 0.950 . S
C1678 C1679 1.386 . S
C1678 C1680 1.391 . S
C1679 C1678 1.386 . S
C1679 C1683 1.393 . S
C1680 H1672 0.950 . S
C1680 C1678 1.391 . S
C1680 C1681 1.400 . S
C1681 C1680 1.400 . S
C1681 C1682 1.398 . S
C1681 C1687 1.491 . S
C1682 H1673 0.950 . S
C1682 C1681 1.398 . S
C1682 C1683 1.391 . S
C1683 H1671 0.950 . S
C1683 C1679 1.393 . S
C1683 C1682 1.391 . S
C1684 H1674 0.950 . S
C1684 C1685 1.386 . S
C1684 C1686 1.391 . S
C1685 C1684 1.386 . S
C1685 C1689 1.393 . S
C1686 H1675 0.950 . S
C1686 C1684 1.391 . S
C1686 C1687 1.400 . S
C1687 C1681 1.491 . S
C1687 C1686 1.400 . S
C1687 C1688 1.398 . S
C1688 H1676 0.950 . S
C1688 C1687 1.398 . S
C1688 C1689 1.391 . S
C1689 H1677 0.950 . S
C1689 C1685 1.393 . S
C1689 C1688 1.391 . S
H1690 C1698 0.950 . S
H1691 C1703 0.950 . S
H1692 C1700 0.950 . S
H1693 C1702 0.950 . S
H1694 C1704 0.950 . S
H1695 C1706 0.950 . S
H1696 C1708 0.950 . S
H1697 C1709 0.950 . S
C1698 H1690 0.950 . S
C1698 C1699 1.386 1_545 S
C1698 C1700 1.391 . S
C1699 C1698 1.386 1_565 S
C1699 C1703 1.393 . S
C1700 H1692 0.950 . S
C1700 C1698 1.391 . S
C1700 C1701 1.400 1_545 S
C1701 C1700 1.400 1_565 S
C1701 C1702 1.398 . S
C1701 C1707 1.491 . S
C1702 H1693 0.950 . S
C1702 C1701 1.398 . S
C1702 C1703 1.391 . S
C1703 H1691 0.950 . S
C1703 C1699 1.393 . S
C1703 C1702 1.391 . S
C1704 H1694 0.950 . S
C1704 C1705 1.386 . S
C1704 C1706 1.391 . S
C1705 C1704 1.386 . S
C1705 C1709 1.393 1_565 S
C1706 H1695 0.950 . S
C1706 C1704 1.391 . S
C1706 C1707 1.400 . S
C1707 C1701 1.491 . S
C1707 C1706 1.400 . S
C1707 C1708 1.398 1_565 S
C1708 H1696 0.950 . S
C1708 C1707 1.398 1_545 S
C1708 C1709 1.391 . S
C1709 H1697 0.950 . S
C1709 C1705 1.393 1_545 S
C1709 C1708 1.391 . S
H1710 C1718 0.950 1_545 S
H1711 C1723 0.950 . S
H1712 C1720 0.939 1_545 S
H1713 C1722 0.950 . S
H1714 C1724 0.950 . S
H1715 C1726 0.950 . S
H1716 C1728 0.950 . S
H1717 C1729 0.950 . S
C1718 H1710 0.950 1_565 S
C1718 C1719 1.386 . S
C1718 C1720 1.406 . S
C1719 C1718 1.386 . S
C1719 C1723 1.393 . S
C1720 H1712 0.939 1_565 S
C1720 C1718 1.406 . S
C1720 C1721 1.397 . S
C1721 C1720 1.397 . S
C1721 C1722 1.398 . S
C1721 C1727 1.491 . S
C1722 H1713 0.950 . S
C1722 C1721 1.398 . S
C1722 C1723 1.391 . S
C1723 H1711 0.950 . S
C1723 C1719 1.393 . S
C1723 C1722 1.391 . S
C1724 H1714 0.950 . S
C1724 C1725 1.417 . S
C1724 C1726 1.391 . S
C1725 C1724 1.417 . S
C1725 C1729 1.403 1_565 S
C1726 H1715 0.950 . S
C1726 C1724 1.391 . S
C1726 C1727 1.400 . S
C1727 C1721 1.491 . S
C1727 C1726 1.400 . S
C1727 C1728 1.398 1_565 S
C1728 H1716 0.950 . S
C1728 C1727 1.398 1_545 S
C1728 C1729 1.391 . S
C1729 H1717 0.950 . S
C1729 C1725 1.403 1_545 S
C1729 C1728 1.391 . S
H1730 C1738 0.950 . S
H1731 C1743 0.950 . S
H1732 C1740 0.950 . S
H1733 C1742 0.950 . S
H1734 C1744 0.950 1_655 S
H1735 C1746 0.950 . S
H1736 C1748 0.950 . S
H1737 C1749 0.950 . S
C1738 H1730 0.950 . S
C1738 C1739 1.386 . S
C1738 C1740 1.391 . S
C1739 C1738 1.386 . S
C1739 C1743 1.393 . S
C1740 H1732 0.950 . S
C1740 C1738 1.391 . S
C1740 C1741 1.400 . S
C1741 C1740 1.400 . S
C1741 C1742 1.398 . S
C1741 C1747 1.491 . S
C1742 H1733 0.950 . S
C1742 C1741 1.398 . S
C1742 C1743 1.391 . S
C1743 H1731 0.950 . S
C1743 C1739 1.393 . S
C1743 C1742 1.391 . S
C1744 H1734 0.950 1_455 S
C1744 C1745 1.417 . S
C1744 C1746 1.366 . S
C1745 C1744 1.417 . S
C1745 C1749 1.393 . S
C1746 H1735 0.950 . S
C1746 C1744 1.366 . S
C1746 C1747 1.400 . S
C1747 C1741 1.491 . S
C1747 C1746 1.400 . S
C1747 C1748 1.398 . S
C1748 H1736 0.950 . S
C1748 C1747 1.398 . S
C1748 C1749 1.391 . S
C1749 H1737 0.950 . S
C1749 C1745 1.393 . S
C1749 C1748 1.391 . S
H1750 C1758 0.950 . S
H1751 C1763 0.950 . S
H1752 C1760 0.950 . S
H1753 C1762 0.950 . S
H1754 C1764 0.950 . S
H1755 C1766 0.950 . S
H1756 C1768 0.950 . S
H1757 C1769 0.950 . S
C1758 H1750 0.950 . S
C1758 C1759 1.386 . S
C1758 C1760 1.391 . S
C1759 C1758 1.386 . S
C1759 C1763 1.393 . S
C1760 H1752 0.950 . S
C1760 C1758 1.391 . S
C1760 C1761 1.400 . S
C1761 C1760 1.400 . S
C1761 C1762 1.398 . S
C1761 C1767 1.491 . S
C1762 H1753 0.950 . S
C1762 C1761 1.398 . S
C1762 C1763 1.391 . S
C1763 H1751 0.950 . S
C1763 C1759 1.393 . S
C1763 C1762 1.391 . S
C1764 H1754 0.950 . S
C1764 C1765 1.386 . S
C1764 C1766 1.391 . S
C1765 C1764 1.386 . S
C1765 C1769 1.393 . S
C1766 H1755 0.950 . S
C1766 C1764 1.391 . S
C1766 C1767 1.400 . S
C1767 C1761 1.491 . S
C1767 C1766 1.400 . S
C1767 C1768 1.398 . S
C1768 H1756 0.950 . S
C1768 C1767 1.398 . S
C1768 C1769 1.391 . S
C1769 H1757 0.950 . S
C1769 C1765 1.393 . S
C1769 C1768 1.391 . S
H1770 C1778 0.950 . S
H1771 C1783 0.950 . S
H1772 C1780 0.950 . S
H1773 C1782 0.950 . S
H1774 C1784 0.950 . S
H1775 C1786 0.950 . S
H1776 C1788 0.950 . S
H1777 C1789 0.950 . S
C1778 H1770 0.950 . S
C1778 C1779 1.386 . S
C1778 C1780 1.391 . S
C1779 C1778 1.386 . S
C1779 C1783 1.393 . S
C1780 H1772 0.950 . S
C1780 C1778 1.391 . S
C1780 C1781 1.400 . S
C1781 C1780 1.400 . S
C1781 C1782 1.398 . S
C1781 C1787 1.491 . S
C1782 H1773 0.950 . S
C1782 C1781 1.398 . S
C1782 C1783 1.391 . S
C1783 H1771 0.950 . S
C1783 C1779 1.393 . S
C1783 C1782 1.391 . S
C1784 H1774 0.950 . S
C1784 C1785 1.386 . S
C1784 C1786 1.391 . S
C1785 C1784 1.386 . S
C1785 C1789 1.393 . S
C1786 H1775 0.950 . S
C1786 C1784 1.391 . S
C1786 C1787 1.400 . S
C1787 C1781 1.491 . S
C1787 C1786 1.400 . S
C1787 C1788 1.398 . S
C1788 H1776 0.950 . S
C1788 C1787 1.398 . S
C1788 C1789 1.391 . S
C1789 H1777 0.950 . S
C1789 C1785 1.393 . S
C1789 C1788 1.391 . S
H1790 C1798 0.950 . S
H1791 C1803 0.950 . S
H1792 C1800 0.950 . S
H1793 C1802 0.950 . S
H1794 C1804 0.950 . S
H1795 C1806 0.950 . S
H1796 C1808 0.950 . S
H1797 C1809 0.950 . S
C1798 H1790 0.950 . S
C1798 C1799 1.386 . S
C1798 C1800 1.391 . S
C1799 C1798 1.386 . S
C1799 C1803 1.393 . S
C1800 H1792 0.950 . S
C1800 C1798 1.391 . S
C1800 C1801 1.400 . S
C1801 C1800 1.400 . S
C1801 C1802 1.398 . S
C1801 C1807 1.491 . S
C1802 H1793 0.950 . S
C1802 C1801 1.398 . S
C1802 C1803 1.391 . S
C1803 H1791 0.950 . S
C1803 C1799 1.393 . S
C1803 C1802 1.391 . S
C1804 H1794 0.950 . S
C1804 C1805 1.386 . S
C1804 C1806 1.391 . S
C1805 C1804 1.386 . S
C1805 C1809 1.393 . S
C1806 H1795 0.950 . S
C1806 C1804 1.391 . S
C1806 C1807 1.400 . S
C1807 C1801 1.491 . S
C1807 C1806 1.400 . S
C1807 C1808 1.398 . S
C1808 H1796 0.950 . S
C1808 C1807 1.398 . S
C1808 C1809 1.391 . S
C1809 H1797 0.950 . S
C1809 C1805 1.393 . S
C1809 C1808 1.391 . S
H1810 C1818 0.950 . S
H1811 C1823 0.950 . S
H1812 C1820 0.950 . S
H1813 C1822 0.950 . S
H1814 C1824 0.950 . S
H1815 C1826 0.950 . S
H1816 C1828 0.950 . S
H1817 C1829 0.950 . S
C1818 H1810 0.950 . S
C1818 C1819 1.386 . S
C1818 C1820 1.391 . S
C1819 C1818 1.386 . S
C1819 C1823 1.393 . S
C1820 H1812 0.950 . S
C1820 C1818 1.391 . S
C1820 C1821 1.400 . S
C1821 C1820 1.400 . S
C1821 C1822 1.398 . S
C1821 C1827 1.491 . S
C1822 H1813 0.950 . S
C1822 C1821 1.398 . S
C1822 C1823 1.391 . S
C1823 H1811 0.950 . S
C1823 C1819 1.393 . S
C1823 C1822 1.391 . S
C1824 H1814 0.950 . S
C1824 C1825 1.386 . S
C1824 C1826 1.391 . S
C1825 C1824 1.386 . S
C1825 C1829 1.393 . S
C1826 H1815 0.950 . S
C1826 C1824 1.391 . S
C1826 C1827 1.400 . S
C1827 C1821 1.491 . S
C1827 C1826 1.400 . S
C1827 C1828 1.398 . S
C1828 H1816 0.950 . S
C1828 C1827 1.398 . S
C1828 C1829 1.391 . S
C1829 H1817 0.950 . S
C1829 C1825 1.393 . S
C1829 C1828 1.391 . S
H1830 C1838 0.950 . S
H1831 C1843 0.950 . S
H1832 C1840 0.950 . S
H1833 C1842 0.950 . S
H1834 C1844 0.950 . S
H1835 C1846 0.950 . S
H1836 C1848 0.950 . S
H1837 C1849 0.950 . S
C1838 H1830 0.950 . S
C1838 C1839 1.386 1_565 S
C1838 C1840 1.391 . S
C1839 C1838 1.386 1_545 S
C1839 C1843 1.393 . S
C1840 H1832 0.950 . S
C1840 C1838 1.391 . S
C1840 C1841 1.400 1_565 S
C1841 C1840 1.400 1_545 S
C1841 C1842 1.398 . S
C1841 C1847 1.491 . S
C1842 H1833 0.950 . S
C1842 C1841 1.398 . S
C1842 C1843 1.391 . S
C1843 H1831 0.950 . S
C1843 C1839 1.393 . S
C1843 C1842 1.391 . S
C1844 H1834 0.950 . S
C1844 C1845 1.386 . S
C1844 C1846 1.391 . S
C1845 C1844 1.386 . S
C1845 C1849 1.393 1_545 S
C1846 H1835 0.950 . S
C1846 C1844 1.391 . S
C1846 C1847 1.400 . S
C1847 C1841 1.491 . S
C1847 C1846 1.400 . S
C1847 C1848 1.398 1_545 S
C1848 H1836 0.950 . S
C1848 C1847 1.398 1_565 S
C1848 C1849 1.391 . S
C1849 H1837 0.950 . S
C1849 C1845 1.393 1_565 S
C1849 C1848 1.391 . S
H1850 C1858 0.950 . S
H1851 C1863 0.950 . S
H1852 C1860 0.950 . S
H1853 C1862 0.950 . S
H1854 C1864 0.950 . S
H1855 C1866 0.950 . S
H1856 C1868 0.950 . S
H1857 C1869 0.950 . S
C1858 H1850 0.950 . S
C1858 C1859 1.386 . S
C1858 C1860 1.391 . S
C1859 C1858 1.386 . S
C1859 C1863 1.393 . S
C1860 H1852 0.950 . S
C1860 C1858 1.391 . S
C1860 C1861 1.400 . S
C1861 C1860 1.400 . S
C1861 C1862 1.398 . S
C1861 C1867 1.491 . S
C1862 H1853 0.950 . S
C1862 C1861 1.398 . S
C1862 C1863 1.391 . S
C1863 H1851 0.950 . S
C1863 C1859 1.393 . S
C1863 C1862 1.391 . S
C1864 H1854 0.950 . S
C1864 C1865 1.386 . S
C1864 C1866 1.391 . S
C1865 C1864 1.386 . S
C1865 C1869 1.393 . S
C1866 H1855 0.950 . S
C1866 C1864 1.391 . S
C1866 C1867 1.400 . S
C1867 C1861 1.491 . S
C1867 C1866 1.400 . S
C1867 C1868 1.398 . S
C1868 H1856 0.950 . S
C1868 C1867 1.398 . S
C1868 C1869 1.391 . S
C1869 H1857 0.950 . S
C1869 C1865 1.393 . S
C1869 C1868 1.391 . S
H1870 C1878 0.950 . S
H1871 C1883 0.950 . S
H1872 C1880 0.950 . S
H1873 C1882 0.950 . S
H1874 C1884 0.950 . S
H1875 C1886 0.950 . S
H1876 C1888 0.950 . S
H1877 C1889 0.950 . S
C1878 H1870 0.950 . S
C1878 C1879 1.386 . S
C1878 C1880 1.391 . S
C1879 C1878 1.386 . S
C1879 C1883 1.393 . S
C1880 H1872 0.950 . S
C1880 C1878 1.391 . S
C1880 C1881 1.400 . S
C1881 C1880 1.400 . S
C1881 C1882 1.398 . S
C1881 C1887 1.491 . S
C1882 H1873 0.950 . S
C1882 C1881 1.398 . S
C1882 C1883 1.391 . S
C1883 H1871 0.950 . S
C1883 C1879 1.393 . S
C1883 C1882 1.391 . S
C1884 H1874 0.950 . S
C1884 C1885 1.386 . S
C1884 C1886 1.391 . S
C1885 C1884 1.386 . S
C1885 C1889 1.393 . S
C1886 H1875 0.950 . S
C1886 C1884 1.391 . S
C1886 C1887 1.400 . S
C1887 C1881 1.491 . S
C1887 C1886 1.400 . S
C1887 C1888 1.398 . S
C1888 H1876 0.950 . S
C1888 C1887 1.398 . S
C1888 C1889 1.391 . S
C1889 H1877 0.950 . S
C1889 C1885 1.393 . S
C1889 C1888 1.391 . S
H1890 C1898 0.950 . S
H1891 C1903 0.950 . S
H1892 C1900 0.950 . S
H1893 C1902 0.950 . S
H1894 C1904 0.950 . S
H1895 C1906 0.950 . S
H1896 C1908 0.950 . S
H1897 C1909 0.950 . S
C1898 H1890 0.950 . S
C1898 C1899 1.386 . S
C1898 C1900 1.391 . S
C1899 C1898 1.386 . S
C1899 C1903 1.393 . S
C1900 H1892 0.950 . S
C1900 C1898 1.391 . S
C1900 C1901 1.400 . S
C1901 C1900 1.400 . S
C1901 C1902 1.398 . S
C1901 C1907 1.491 . S
C1902 H1893 0.950 . S
C1902 C1901 1.398 . S
C1902 C1903 1.391 . S
C1903 H1891 0.950 . S
C1903 C1899 1.393 . S
C1903 C1902 1.391 . S
C1904 H1894 0.950 . S
C1904 C1905 1.386 . S
C1904 C1906 1.391 . S
C1905 C1904 1.386 . S
C1905 C1909 1.393 . S
C1906 H1895 0.950 . S
C1906 C1904 1.391 . S
C1906 C1907 1.400 . S
C1907 C1901 1.491 . S
C1907 C1906 1.400 . S
C1907 C1908 1.398 . S
C1908 H1896 0.950 . S
C1908 C1907 1.398 . S
C1908 C1909 1.391 . S
C1909 H1897 0.950 . S
C1909 C1905 1.393 . S
C1909 C1908 1.391 . S
H1910 C1918 0.950 . S
H1911 C1923 0.950 . S
H1912 C1920 0.950 . S
H1913 C1922 0.950 . S
H1914 C1924 0.950 . S
H1915 C1926 0.950 . S
H1916 C1928 0.950 . S
H1917 C1929 0.950 . S
C1918 H1910 0.950 . S
C1918 C1919 1.386 . S
C1918 C1920 1.391 . S
C1919 C1918 1.386 . S
C1919 C1923 1.393 . S
C1920 H1912 0.950 . S
C1920 C1918 1.391 . S
C1920 C1921 1.400 . S
C1921 C1920 1.400 . S
C1921 C1922 1.398 . S
C1921 C1927 1.491 . S
C1922 H1913 0.950 . S
C1922 C1921 1.398 . S
C1922 C1923 1.391 . S
C1923 H1911 0.950 . S
C1923 C1919 1.393 . S
C1923 C1922 1.391 . S
C1924 H1914 0.950 . S
C1924 C1925 1.386 . S
C1924 C1926 1.391 . S
C1925 C1924 1.386 . S
C1925 C1929 1.393 . S
C1926 H1915 0.950 . S
C1926 C1924 1.391 . S
C1926 C1927 1.400 . S
C1927 C1921 1.491 . S
C1927 C1926 1.400 . S
C1927 C1928 1.398 . S
C1928 H1916 0.950 . S
C1928 C1927 1.398 . S
C1928 C1929 1.391 . S
C1929 H1917 0.950 . S
C1929 C1925 1.393 . S
C1929 C1928 1.391 . S
H1930 C1938 0.950 . S
H1931 C1943 0.950 . S
H1932 C1940 0.950 . S
H1933 C1942 0.950 . S
H1934 C1944 0.950 . S
H1935 C1946 0.950 . S
H1936 C1948 0.950 . S
H1937 C1949 0.950 . S
C1938 H1930 0.950 . S
C1938 C1939 1.386 . S
C1938 C1940 1.391 . S
C1939 C1938 1.386 . S
C1939 C1943 1.393 . S
C1940 H1932 0.950 . S
C1940 C1938 1.391 . S
C1940 C1941 1.400 . S
C1941 C1940 1.400 . S
C1941 C1942 1.398 . S
C1941 C1947 1.491 . S
C1942 H1933 0.950 . S
C1942 C1941 1.398 . S
C1942 C1943 1.391 . S
C1943 H1931 0.950 . S
C1943 C1939 1.393 . S
C1943 C1942 1.391 . S
C1944 H1934 0.950 . S
C1944 C1945 1.386 . S
C1944 C1946 1.391 . S
C1945 C1944 1.386 . S
C1945 C1949 1.393 . S
C1946 H1935 0.950 . S
C1946 C1944 1.391 . S
C1946 C1947 1.400 . S
C1947 C1941 1.491 . S
C1947 C1946 1.400 . S
C1947 C1948 1.398 . S
C1948 H1936 0.950 . S
C1948 C1947 1.398 . S
C1948 C1949 1.391 . S
C1949 H1937 0.950 . S
C1949 C1945 1.393 . S
C1949 C1948 1.391 . S
H1950 C1958 0.950 . S
H1951 C1963 0.950 . S
H1952 C1960 0.950 . S
H1953 C1962 0.950 . S
H1954 C1964 0.950 . S
H1955 C1966 0.950 . S
H1956 C1968 0.950 . S
H1957 C1969 0.950 . S
C1958 H1950 0.950 . S
C1958 C1959 1.386 . S
C1958 C1960 1.391 . S
C1959 C1958 1.386 . S
C1959 C1963 1.393 . S
C1960 H1952 0.950 . S
C1960 C1958 1.391 . S
C1960 C1961 1.400 . S
C1961 C1960 1.400 . S
C1961 C1962 1.398 . S
C1961 C1967 1.491 . S
C1962 H1953 0.950 . S
C1962 C1961 1.398 . S
C1962 C1963 1.391 . S
C1963 H1951 0.950 . S
C1963 C1959 1.393 . S
C1963 C1962 1.391 . S
C1964 H1954 0.950 . S
C1964 C1965 1.386 . S
C1964 C1966 1.391 . S
C1965 C1964 1.386 . S
C1965 C1969 1.393 . S
C1966 H1955 0.950 . S
C1966 C1964 1.391 . S
C1966 C1967 1.400 . S
C1967 C1961 1.491 . S
C1967 C1966 1.400 . S
C1967 C1968 1.398 . S
C1968 H1956 0.950 . S
C1968 C1967 1.398 . S
C1968 C1969 1.391 . S
C1969 H1957 0.950 . S
C1969 C1965 1.393 . S
C1969 C1968 1.391 . S
H1970 C1978 0.950 . S
H1971 C1983 0.950 . S
H1972 C1980 0.950 . S
H1973 C1982 0.950 . S
H1974 C1984 0.950 . S
H1975 C1986 0.950 . S
H1976 C1988 0.950 . S
H1977 C1989 0.950 . S
C1978 H1970 0.950 . S
C1978 C1979 1.386 . S
C1978 C1980 1.391 . S
C1979 C1978 1.386 . S
C1979 C1983 1.393 . S
C1980 H1972 0.950 . S
C1980 C1978 1.391 . S
C1980 C1981 1.400 . S
C1981 C1980 1.400 . S
C1981 C1982 1.398 . S
C1981 C1987 1.491 . S
C1982 H1973 0.950 . S
C1982 C1981 1.398 . S
C1982 C1983 1.391 . S
C1983 H1971 0.950 . S
C1983 C1979 1.393 . S
C1983 C1982 1.391 . S
C1984 H1974 0.950 . S
C1984 C1985 1.386 . S
C1984 C1986 1.391 . S
C1985 C1984 1.386 . S
C1985 C1989 1.393 . S
C1986 H1975 0.950 . S
C1986 C1984 1.391 . S
C1986 C1987 1.400 . S
C1987 C1981 1.491 . S
C1987 C1986 1.400 . S
C1987 C1988 1.398 . S
C1988 H1976 0.950 . S
C1988 C1987 1.398 . S
C1988 C1989 1.391 . S
C1989 H1977 0.950 . S
C1989 C1985 1.393 . S
C1989 C1988 1.391 . S
H1990 C1998 0.950 . S
H1991 C2003 0.950 . S
H1992 C2000 0.950 . S
H1993 C2002 0.950 . S
H1994 C2004 0.950 . S
H1995 C2006 0.950 . S
H1996 C2008 0.950 . S
H1997 C2009 0.950 . S
C1998 H1990 0.950 . S
C1998 C1999 1.386 . S
C1998 C2000 1.391 . S
C1999 C1998 1.386 . S
C1999 C2003 1.393 . S
C2000 H1992 0.950 . S
C2000 C1998 1.391 . S
C2000 C2001 1.400 . S
C2001 C2000 1.400 . S
C2001 C2002 1.398 . S
C2001 C2007 1.491 . S
C2002 H1993 0.950 . S
C2002 C2001 1.398 . S
C2002 C2003 1.391 . S
C2003 H1991 0.950 . S
C2003 C1999 1.393 . S
C2003 C2002 1.391 . S
C2004 H1994 0.950 . S
C2004 C2005 1.386 . S
C2004 C2006 1.391 . S
C2005 C2004 1.386 . S
C2005 C2009 1.393 . S
C2006 H1995 0.950 . S
C2006 C2004 1.391 . S
C2006 C2007 1.400 . S
C2007 C2001 1.491 . S
C2007 C2006 1.400 . S
C2007 C2008 1.398 . S
C2008 H1996 0.950 . S
C2008 C2007 1.398 . S
C2008 C2009 1.391 . S
C2009 H1997 0.950 . S
C2009 C2005 1.393 . S
C2009 C2008 1.391 . S
H2010 C2018 0.950 . S
H2011 C2023 0.950 . S
H2012 C2020 0.950 . S
H2013 C2022 0.950 . S
H2014 C2024 0.950 . S
H2015 C2026 0.950 . S
H2016 C2028 0.950 . S
H2017 C2029 0.950 . S
C2018 H2010 0.950 . S
C2018 C2019 1.386 . S
C2018 C2020 1.391 . S
C2019 C2018 1.386 . S
C2019 C2023 1.393 1_655 S
C2020 H2012 0.950 . S
C2020 C2018 1.391 . S
C2020 C2021 1.400 . S
C2021 C2020 1.400 . S
C2021 C2022 1.398 1_655 S
C2021 C2027 1.491 . S
C2022 H2013 0.950 . S
C2022 C2021 1.398 1_455 S
C2022 C2023 1.391 . S
C2023 H2011 0.950 . S
C2023 C2019 1.393 1_455 S
C2023 C2022 1.391 . S
C2024 H2014 0.950 . S
C2024 C2025 1.386 1_455 S
C2024 C2026 1.391 . S
C2025 C2024 1.386 1_655 S
C2025 C2029 1.393 . S
C2026 H2015 0.950 . S
C2026 C2024 1.391 . S
C2026 C2027 1.400 1_455 S
C2027 C2021 1.491 . S
C2027 C2026 1.400 1_655 S
C2027 C2028 1.398 . S
C2028 H2016 0.950 . S
C2028 C2027 1.398 . S
C2028 C2029 1.391 . S
C2029 H2017 0.950 . S
C2029 C2025 1.393 . S
C2029 C2028 1.391 . S
H2030 C2038 0.950 . S
H2031 C2043 0.950 . S
H2032 C2040 0.950 . S
H2033 C2042 0.950 . S
H2034 C2044 0.950 . S
H2035 C2046 0.950 . S
H2036 C2048 0.950 . S
H2037 C2049 0.950 . S
C2038 H2030 0.950 . S
C2038 C2039 1.386 . S
C2038 C2040 1.391 . S
C2039 C2038 1.386 . S
C2039 C2043 1.393 . S
C2040 H2032 0.950 . S
C2040 C2038 1.391 . S
C2040 C2041 1.400 . S
C2041 C2040 1.400 . S
C2041 C2042 1.398 . S
C2041 C2047 1.491 . S
C2042 H2033 0.950 . S
C2042 C2041 1.398 . S
C2042 C2043 1.391 . S
C2043 H2031 0.950 . S
C2043 C2039 1.393 . S
C2043 C2042 1.391 . S
C2044 H2034 0.950 . S
C2044 C2045 1.386 . S
C2044 C2046 1.391 . S
C2045 C2044 1.386 . S
C2045 C2049 1.393 . S
C2046 H2035 0.950 . S
C2046 C2044 1.391 . S
C2046 C2047 1.400 . S
C2047 C2041 1.491 . S
C2047 C2046 1.400 . S
C2047 C2048 1.398 . S
C2048 H2036 0.950 . S
C2048 C2047 1.398 . S
C2048 C2049 1.391 . S
C2049 H2037 0.950 . S
C2049 C2045 1.393 . S
C2049 C2048 1.391 . S
H2050 C2058 0.950 . S
H2051 C2063 0.950 . S
H2052 C2060 0.950 . S
H2053 C2062 0.950 . S
H2054 C2064 0.937 . S
H2055 C2066 0.952 . S
H2056 C2068 0.950 . S
H2057 C2069 0.950 . S
C2058 H2050 0.950 . S
C2058 C2059 1.386 . S
C2058 C2060 1.391 . S
C2059 C2058 1.386 . S
C2059 C2063 1.393 . S
C2060 H2052 0.950 . S
C2060 C2058 1.391 . S
C2060 C2061 1.400 . S
C2061 C2060 1.400 . S
C2061 C2062 1.398 . S
C2061 C2067 1.491 . S
C2062 H2053 0.950 . S
C2062 C2061 1.398 . S
C2062 C2063 1.391 . S
C2063 H2051 0.950 . S
C2063 C2059 1.393 . S
C2063 C2062 1.391 . S
C2064 H2054 0.937 . S
C2064 C2065 1.377 1_565 S
C2064 C2066 1.413 1_565 S
C2065 C2064 1.377 1_545 S
C2065 C2069 1.380 . S
C2066 H2055 0.952 . S
C2066 C2064 1.413 1_545 S
C2066 C2067 1.400 . S
C2067 C2061 1.491 . S
C2067 C2066 1.400 . S
C2067 C2068 1.398 . S
C2068 H2056 0.950 . S
C2068 C2067 1.398 . S
C2068 C2069 1.391 . S
C2069 H2057 0.950 . S
C2069 C2065 1.380 . S
C2069 C2068 1.391 . S
C639 C9 1.563 1_655 S
C645 C458 1.502 1_655 S
C659 C19 1.565 . S
C665 C471 1.534 . S
C685 C500 1.495 1_545 S
C679 C33 1.569 . S
C699 C37 1.547 . S
C705 C513 1.500 . S
C719 C5 1.542 . S
C725 C534 1.507 . S
C739 C23 1.592 . S
C745 C563 1.499 . S
C759 C47 1.550 . S
C765 C542 1.484 . S
C785 C555 1.507 . S
C779 C65 1.583 . S
C805 C521 1.493 . S
C799 C75 1.529 . S
C819 C79 1.519 . S
C825 C492 1.468 1_545 S
C845 C450 1.511 1_655 S
C839 C51 1.573 1_655 S
C859 C61 1.560 . S
C865 C479 1.509 . S
C879 C93 1.650 . S
C885 C584 1.565 . S
C899 C103 1.598 . S
C905 C597 1.573 . S
C925 C626 1.525 . S
C919 C117 1.619 . S
C939 C121 1.594 . S
C945 C261 1.560 . S
C959 C89 1.607 . S
C965 C282 1.582 . S
C979 C107 1.608 . S
C985 C311 1.527 . S
C999 C131 1.582 . S
C1005 C290 1.533 . S
C1019 C149 1.599 . S
C1025 C303 1.532 . S
C1045 C269 1.523 . S
C1039 C159 1.571 . S
C1065 C618 1.513 . S
C1059 C163 1.587 . S
C1085 C576 1.543 . S
C1079 C135 1.628 . S
C1105 C605 1.557 . S
C1099 C145 1.598 . S
C1119 C177 1.615 . S
C1125 C332 1.505 . S
C1139 C187 1.574 . S
C1145 C345 1.538 . S
C1159 C201 1.624 . S
C1165 C374 1.544 . S
C1179 C205 1.632 . S
C1185 C387 1.598 . S
C1205 C408 1.576 . S
C1199 C173 1.607 . S
C1225 C437 1.530 . S
C1219 C191 1.627 . S
C1245 C416 1.589 . S
C1239 C215 1.626 . S
C1265 C429 1.563 . S
C1259 C233 1.623 . S
C1279 C243 1.575 . S
C1285 C395 1.540 . S
C1305 C366 1.485 . S
C1299 C247 1.542 . S
C1319 C219 1.622 . S
C1325 C324 1.558 . S
C1345 C353 1.548 . S
C1339 C229 1.588 . S
C1365 C264 1.383 . S
C1359 C11 1.502 . S
C1379 C14 1.466 . S
C1385 C285 1.382 . S
C1405 C313 1.412 . S
C1399 C28 1.542 . S
C1425 C334 1.403 . S
C1419 C39 1.530 . S
C1445 C348 1.419 . S
C1439 C0 1.504 . S
C1465 C376 1.327 . S
C1459 C25 1.434 . S
C1479 C42 1.569 . S
C1485 C369 1.418 . S
C1499 C67 1.495 . S
C1505 C327 1.316 . S
C1519 C70 1.481 . S
C1525 C355 1.389 . S
C1539 C81 1.491 . S
C1545 C292 1.416 . S
C1565 C306 1.380 . S
C1559 C53 1.537 . S
C1579 C56 1.508 . S
C1585 C271 1.418 . S
C1605 C390 1.399 . S
C1599 C95 1.495 . S
C1619 C98 1.531 . S
C1625 C411 1.439 . S
C1639 C112 1.585 . S
C1645 C439 1.467 . S
C1665 C460 1.378 . S
C1659 C123 1.460 . S
C1679 C84 1.502 . S
C1685 C474 1.379 . S
C1699 C109 1.427 . S
C1705 C502 1.331 . S
C1719 C126 1.497 . S
C1725 C495 1.379 . S
C1739 C151 1.460 . S
C1745 C453 1.327 . S
C1765 C481 1.400 . S
C1759 C154 1.487 . S
C1779 C165 1.476 . S
C1785 C418 1.379 . S
C1799 C137 1.573 . S
C1805 C432 1.391 . S
C1825 C397 1.502 . S
C1819 C140 1.575 . S
C1845 C516 1.341 1_545 S
C1839 C179 1.456 . S
C1859 C182 1.435 . S
C1865 C537 1.327 1_655 S
C1879 C196 1.536 . S
C1885 C565 1.447 . S
C1905 C586 1.397 . S
C1899 C207 1.514 . S
C1925 C600 1.447 . S
C1919 C168 1.540 . S
C1939 C193 1.506 . S
C1945 C628 1.420 . S
C1959 C210 1.567 . S
C1965 C621 1.426 . S
C1979 C235 1.558 . S
C1985 C579 1.377 . S
C2005 C607 1.439 . S
C1999 C238 1.531 . S
C2025 C544 1.331 1_655 S
C2019 C249 1.414 . S
C2045 C558 1.355 . S
C2039 C221 1.533 . S
C2059 C224 1.469 . S
C2065 C523 1.403 1_545 S
