# Generated by pormake.
# Topology pth, (4,4)-cn, num edge types: 1
# Building blocks:
#     Node 0, Type 0, BuildingBlock: GALJAG_clean_sbu_0, # of connection points: 4
#     Node 1, Type 0, BuildingBlock: GALJAG_clean_sbu_0, # of connection points: 4
#     Node 2, Type 0, BuildingBlock: GALJAG_clean_sbu_0, # of connection points: 4
#     Node 3, Type 1, BuildingBlock: NAHDIM_clean_linker_0, # of connection points: 4
#     Node 4, Type 1, BuildingBlock: NAHDIM_clean_linker_0, # of connection points: 4
#     Node 5, Type 1, BuildingBlock: NAHDIM_clean_linker_0, # of connection points: 4
#     Edge 6, Type (0, 1), BuildingBlock: ZUJKAS_clean_linker_0, # of connection points: 2
#     Edge 7, Type (0, 1), BuildingBlock: ZUJKAS_clean_linker_0, # of connection points: 2
#     Edge 8, Type (0, 1), BuildingBlock: ZUJKAS_clean_linker_0, # of connection points: 2
#     Edge 9, Type (0, 1), BuildingBlock: ZUJKAS_clean_linker_0, # of connection points: 2
#     Edge 10, Type (0, 1), BuildingBlock: ZUJKAS_clean_linker_0, # of connection points: 2
#     Edge 11, Type (0, 1), BuildingBlock: ZUJKAS_clean_linker_0, # of connection points: 2
#     Edge 12, Type (0, 1), BuildingBlock: ZUJKAS_clean_linker_0, # of connection points: 2
#     Edge 13, Type (0, 1), BuildingBlock: ZUJKAS_clean_linker_0, # of connection points: 2
#     Edge 14, Type (0, 1), BuildingBlock: ZUJKAS_clean_linker_0, # of connection points: 2
#     Edge 15, Type (0, 1), BuildingBlock: ZUJKAS_clean_linker_0, # of connection points: 2
#     Edge 16, Type (0, 1), BuildingBlock: ZUJKAS_clean_linker_0, # of connection points: 2
#     Edge 17, Type (0, 1), BuildingBlock: ZUJKAS_clean_linker_0, # of connection points: 2
# Relax obj value: 0.024
# Max RMSD: 0.067
# Mean RMSD: 0.066
data_MOF--net-pth--node1-GALJAG_clean_sbu_0--node2-NAHDIM_clean_linker_0--edge1-ZUJKAS_clean_linker_0
_symmetry_space_group_name_H-M    P1
_symmetry_Int_Tables_number       1
_symmetry_cell_setting            triclinic
loop_
_symmetry_equiv_pos_as_xyz
'x, y, z'
_cell_length_a     39.452916
_cell_length_b     39.389996
_cell_length_c     95.809949
_cell_angle_alpha  89.848062
_cell_angle_beta   90.778306
_cell_angle_gamma 119.98244
loop_
_atom_site_label
_atom_site_type_symbol
_atom_site_fract_x
_atom_site_fract_y
_atom_site_fract_z
_atom_type_partial_charge
In0 In 0.02198 0.04154 0.04504 0.0
O1 O 0.99733 0.07877 0.05362 0.0
O2 O 0.04265 0.07662 0.06521 0.0
C3 C 0.96658 0.9976 0.02577 0.0
C4 C 0.08131 0.09566 0.02974 0.0
C5 C 0.02179 0.98436 0.06064 0.0
O6 O 0.95862 0.00971 0.03675 0.0
O7 O 0.00222 0.00818 0.02448 0.0
O8 O 0.05089 0.0073 0.05339 0.0
O9 O 0.99341 0.99059 0.06002 0.0
C10 C 0.01966 0.09013 0.06425 0.0
O11 O 0.08213 0.06653 0.03494 0.0
O12 O 0.05091 0.0973 0.03233 0.0
In13 In 0.01269 0.04013 0.368 0.0
O14 O 0.05276 0.10058 0.35878 0.0
O15 O 0.99307 0.07098 0.35237 0.0
C16 C 0.06799 0.03964 0.38473 0.0
C17 C 0.96099 0.03999 0.38632 0.0
C18 C 0.99855 0.98018 0.35075 0.0
O19 O 0.07327 0.07 0.37838 0.0
O20 O 0.03493 0.00964 0.38261 0.0
O21 O 0.97605 0.97679 0.36056 0.0
O22 O 0.02784 0.01403 0.34947 0.0
C23 C 0.02626 0.10133 0.3515 0.0
O24 O 0.95029 0.02054 0.37509 0.0
O25 O 0.99749 0.05919 0.38828 0.0
In26 In 0.01011 0.03452 0.70569 0.0
O27 O 0.98524 0.97411 0.71571 0.0
O28 O 0.9594 0.00843 0.72087 0.0
C29 C 0.05906 0.02918 0.68756 0.0
C30 C 0.964 0.04798 0.68817 0.0
C31 C 0.05918 0.08552 0.72513 0.0
O32 O 0.03112 0.99946 0.69312 0.0
O33 O 0.06183 0.06138 0.69097 0.0
O34 O 0.0351 0.09145 0.71829 0.0
O35 O 0.0583 0.05389 0.72222 0.0
C36 C 0.95957 0.97677 0.72256 0.0
O37 O 0.98961 0.07416 0.69601 0.0
O38 O 0.96188 0.01502 0.68905 0.0
C39 C 0.92487 0.5995 0.29866 0.0
C40 C 0.95416 0.62975 0.28855 0.0
C41 C 0.95613 0.60874 0.26499 0.0
C42 C 0.99632 0.63064 0.26237 0.0
C43 C 0.01365 0.61717 0.25282 0.0
C44 C 0.99027 0.58084 0.24592 0.0
C45 C 0.94937 0.55961 0.24812 0.0
C46 C 0.93271 0.57432 0.25747 0.0
C47 C 0.05714 0.64111 0.25046 0.0
C48 C 0.92354 0.52051 0.24112 0.0
C49 C 0.13682 0.4925 0.30043 0.0
C50 C 0.10347 0.46504 0.2906 0.0
C51 C 0.09856 0.48344 0.26682 0.0
C52 C 0.05792 0.46234 0.26472 0.0
C53 C 0.03984 0.47484 0.25488 0.0
C54 C 0.06294 0.50958 0.24722 0.0
C55 C 0.10417 0.53018 0.24906 0.0
C56 C 0.1215 0.51623 0.25865 0.0
C57 C 0.99597 0.4515 0.25295 0.0
C58 C 0.12982 0.5678 0.24136 0.0
C59 C 0.08766 0.45557 0.15963 0.0
C60 C 0.04853 0.43658 0.16385 0.0
C61 C 0.03246 0.45793 0.16969 0.0
C62 C 0.0562 0.499 0.17145 0.0
C63 C 0.09505 0.51838 0.16654 0.0
C64 C 0.11014 0.49635 0.16051 0.0
C65 C 0.99045 0.43653 0.17433 0.0
C66 C 0.121 0.56215 0.1681 0.0
C67 C 0.90308 0.66341 0.15537 0.0
C68 C 0.9448 0.67194 0.15284 0.0
C69 C 0.96074 0.61986 0.15528 0.0
C70 C 0.94015 0.57912 0.15649 0.0
C71 C 0.95601 0.55951 0.16395 0.0
C72 C 0.99396 0.58129 0.16995 0.0
C73 C 0.01586 0.62241 0.16805 0.0
C74 C 0.99883 0.64135 0.16083 0.0
C75 C 0.93188 0.51564 0.16567 0.0
C76 C 0.05703 0.64639 0.17377 0.0
C77 C 0.00911 0.56302 0.23771 0.0
C78 C 0.02663 0.54522 0.24517 0.0
C79 C 0.04376 0.52635 0.23838 0.0
C80 C 0.04296 0.52458 0.22363 0.0
C81 C 0.05847 0.50449 0.21644 0.0
C82 C 0.05807 0.50342 0.20193 0.0
C83 C 0.04192 0.52223 0.19404 0.0
C84 C 0.04124 0.52115 0.17928 0.0
C85 C 0.02578 0.54087 0.17175 0.0
C86 C 0.01019 0.56122 0.17858 0.0
C87 C 0.0097 0.5618 0.19335 0.0
C88 C 0.99324 0.58103 0.20058 0.0
C89 C 0.99317 0.58167 0.2151 0.0
C90 C 0.00929 0.56286 0.22296 0.0
C91 C 0.02608 0.54333 0.2159 0.0
C92 C 0.02594 0.5425 0.20108 0.0
C93 C 0.13925 0.40769 0.16579 0.0
C94 C 0.09971 0.40066 0.16025 0.0
O95 O 0.93954 0.61963 0.27503 0.0
O96 O 0.9432 0.63752 0.14861 0.0
O97 O 0.10454 0.43536 0.15471 0.0
O98 O 0.11619 0.47336 0.27694 0.0
H99 H 0.9818 0.62876 0.28984 0.0
H100 H 0.92069 0.57009 0.2962 0.0
H101 H 0.89603 0.59799 0.29778 0.0
H102 H 0.93598 0.60715 0.30958 0.0
H103 H 0.01415 0.65793 0.26796 0.0
H104 H 0.90161 0.55796 0.2595 0.0
H105 H 0.07186 0.62663 0.25566 0.0
H106 H 0.06991 0.67131 0.25473 0.0
H107 H 0.06343 0.64283 0.23914 0.0
H108 H 0.89267 0.50674 0.24453 0.0
H109 H 0.9347 0.5002 0.24346 0.0
H110 H 0.9242 0.52436 0.22963 0.0
H111 H 0.07899 0.47099 0.2923 0.0
H112 H 0.12723 0.48655 0.31146 0.0
H113 H 0.14559 0.52342 0.29806 0.0
H114 H 0.16272 0.48875 0.29917 0.0
H115 H 0.04037 0.43634 0.27086 0.0
H116 H 0.15294 0.53201 0.26032 0.0
H117 H 0.98793 0.44819 0.24168 0.0
H118 H 0.98267 0.46736 0.25796 0.0
H119 H 0.98323 0.42193 0.25771 0.0
H120 H 0.16072 0.58238 0.24511 0.0
H121 H 0.11864 0.58848 0.24261 0.0
H122 H 0.12918 0.56151 0.23005 0.0
H123 H 0.07963 0.39112 0.16931 0.0
H124 H 0.03063 0.4051 0.16261 0.0
H125 H 0.14011 0.51071 0.15697 0.0
H126 H 0.9896 0.43703 0.1859 0.0
H127 H 0.97463 0.40551 0.17076 0.0
H128 H 0.97482 0.45148 0.17027 0.0
H129 H 0.15063 0.57277 0.16381 0.0
H130 H 0.12401 0.5704 0.17932 0.0
H131 H 0.10735 0.57732 0.16264 0.0
H132 H 0.96117 0.68257 0.16293 0.0
H133 H 0.90329 0.69017 0.15915 0.0
H134 H 0.88917 0.64033 0.16344 0.0
H135 H 0.8852 0.65299 0.1456 0.0
H136 H 0.91098 0.56284 0.15195 0.0
H137 H 0.0153 0.67282 0.15943 0.0
H138 H 0.92991 0.50792 0.1769 0.0
H139 H 0.94639 0.50145 0.16031 0.0
H140 H 0.9018 0.50344 0.16128 0.0
H141 H 0.07197 0.67687 0.16974 0.0
H142 H 0.07457 0.63244 0.17105 0.0
H143 H 0.05625 0.6476 0.18533 0.0
H144 H 0.02692 0.54603 0.2565 0.0
H145 H 0.07113 0.48938 0.22197 0.0
H146 H 0.07068 0.4877 0.19698 0.0
H147 H 0.02565 0.54014 0.16042 0.0
H148 H 0.9802 0.59583 0.1951 0.0
H149 H 0.98033 0.59709 0.22012 0.0
H150 H 0.13615 0.38041 0.17043 0.0
H151 H 0.15047 0.43073 0.17402 0.0
H152 H 0.16095 0.4175 0.15726 0.0
C153 C 0.39044 0.99803 0.63189 0.0
C154 C 0.377 0.01788 0.62116 0.0
C155 C 0.39483 0.00774 0.59809 0.0
C156 C 0.41616 0.04629 0.59317 0.0
C157 C 0.44553 0.05662 0.58326 0.0
C158 C 0.45355 0.02769 0.57819 0.0
C159 C 0.43048 0.98831 0.58254 0.0
C160 C 0.40098 0.97875 0.59235 0.0
C161 C 0.46887 0.09865 0.57855 0.0
C162 C 0.43814 0.95673 0.57728 0.0
C163 C 0.68731 0.15806 0.6295 0.0
C164 C 0.68204 0.12333 0.62072 0.0
C165 C 0.65884 0.11665 0.59678 0.0
C166 C 0.63612 0.07577 0.59561 0.0
C167 C 0.60482 0.0584 0.58601 0.0
C168 C 0.59587 0.08254 0.57757 0.0
C169 C 0.61994 0.12384 0.57833 0.0
C170 C 0.65171 0.14032 0.58777 0.0
C171 C 0.5805 0.01431 0.58522 0.0
C172 C 0.61103 0.15066 0.56971 0.0
C173 C 0.65893 0.08429 0.48841 0.0
C174 C 0.63563 0.04602 0.49338 0.0
C175 C 0.6003 0.0351 0.50012 0.0
C176 C 0.58827 0.06314 0.50197 0.0
C177 C 0.611 0.10129 0.49646 0.0
C178 C 0.64588 0.1112 0.48957 0.0
C179 C 0.57611 0.99381 0.50548 0.0
C180 C 0.59889 0.13181 0.49813 0.0
C181 C 0.28712 0.98447 0.49964 0.0
C182 C 0.31704 0.01237 0.48914 0.0
C183 C 0.37582 0.00665 0.48999 0.0
C184 C 0.38457 0.97683 0.49235 0.0
C185 C 0.42025 0.98495 0.49861 0.0
C186 C 0.44789 0.02398 0.50239 0.0
C187 C 0.44013 0.05459 0.49925 0.0
C188 C 0.40423 0.04562 0.493 0.0
C189 C 0.42793 0.95177 0.50161 0.0
C190 C 0.46944 0.09668 0.5028 0.0
C191 C 0.48853 0.03934 0.56953 0.0
C192 C 0.52438 0.05353 0.57652 0.0
C193 C 0.55886 0.06493 0.56927 0.0
C194 C 0.5576 0.0612 0.55458 0.0
C195 C 0.5914 0.07078 0.54698 0.0
C196 C 0.58998 0.06798 0.53249 0.0
C197 C 0.55467 0.05551 0.52503 0.0
C198 C 0.55303 0.05318 0.51028 0.0
C199 C 0.51775 0.04202 0.50319 0.0
C200 C 0.48371 0.03266 0.51047 0.0
C201 C 0.48447 0.03354 0.52524 0.0
C202 C 0.45048 0.02325 0.53289 0.0
C203 C 0.45162 0.02474 0.54741 0.0
C204 C 0.48687 0.03705 0.55481 0.0
C205 C 0.52152 0.04773 0.54731 0.0
C206 C 0.52018 0.0454 0.53252 0.0
C207 C 0.75373 0.1255 0.49509 0.0
C208 C 0.72278 0.08894 0.48734 0.0
O209 O 0.36874 0.99798 0.60853 0.0
O210 O 0.33994 0.99693 0.48473 0.0
O211 O 0.69373 0.09587 0.48222 0.0
O212 O 0.68706 0.13394 0.60676 0.0
H213 H 0.40153 0.04854 0.62009 0.0
H214 H 0.41789 0.99959 0.62836 0.0
H215 H 0.36794 0.96668 0.63318 0.0
H216 H 0.39634 0.01316 0.64215 0.0
H217 H 0.41016 0.0684 0.59721 0.0
H218 H 0.38382 0.94894 0.59608 0.0
H219 H 0.49926 0.11182 0.58271 0.0
H220 H 0.45611 0.11657 0.58218 0.0
H221 H 0.47044 0.09994 0.56698 0.0
H222 H 0.41704 0.92737 0.58145 0.0
H223 H 0.46824 0.96387 0.58035 0.0
H224 H 0.43629 0.95549 0.5657 0.0
H225 H 0.65167 0.09893 0.62255 0.0
H226 H 0.68333 0.15019 0.64074 0.0
H227 H 0.6651 0.16615 0.6263 0.0
H228 H 0.71688 0.18393 0.62803 0.0
H229 H 0.64256 0.05754 0.60236 0.0
H230 H 0.66985 0.17188 0.58869 0.0
H231 H 0.55209 0.00453 0.59039 0.0
H232 H 0.59527 -8e-05 0.59048 0.0
H233 H 0.57422 0.00437 0.57417 0.0
H234 H 0.63067 0.18204 0.57241 0.0
H235 H 0.58026 0.14332 0.57126 0.0
H236 H 0.61445 0.14652 0.55848 0.0
H237 H 0.71068 0.06437 0.49493 0.0
H238 H 0.64487 0.02462 0.4919 0.0
H239 H 0.66381 0.14044 0.48544 0.0
H240 H 0.5763 0.99426 0.51706 0.0
H241 H 0.58737 0.97446 0.50198 0.0
H242 H 0.54524 0.98111 0.50187 0.0
H243 H 0.62067 0.16063 0.49377 0.0
H244 H 0.59495 0.13568 0.50936 0.0
H245 H 0.57033 0.12175 0.49274 0.0
H246 H 0.33497 0.04077 0.49468 0.0
H247 H 0.26799 0.99602 0.50307 0.0
H248 H 0.30259 0.98174 0.50898 0.0
H249 H 0.26865 0.95483 0.49502 0.0
H250 H 0.36275 0.94693 0.4897 0.0
H251 H 0.39852 0.06912 0.49047 0.0
H252 H 0.43043 0.94904 0.51307 0.0
H253 H 0.45618 0.95819 0.497 0.0
H254 H 0.40433 0.92331 0.49741 0.0
H255 H 0.45979 0.11729 0.49909 0.0
H256 H 0.49807 0.10498 0.49807 0.0
H257 H 0.47402 0.09998 0.51429 0.0
H258 H 0.52552 0.05621 0.58782 0.0
H259 H 0.61935 0.08063 0.55218 0.0
H260 H 0.61702 0.07602 0.52719 0.0
H261 H 0.51689 0.04113 0.49187 0.0
H262 H 0.42255 0.01382 0.52775 0.0
H263 H 0.4246 0.01648 0.55276 0.0
H264 H 0.77721 0.12055 0.49937 0.0
H265 H 0.74007 0.13226 0.50392 0.0
H266 H 0.76693 0.15115 0.48798 0.0
C267 C 0.64793 0.62159 0.79019 0.0
C268 C 0.65967 0.65723 0.79962 0.0
C269 C 0.64167 0.63072 0.82287 0.0
C270 C 0.61462 0.6423 0.82649 0.0
C271 C 0.5841 0.61972 0.83566 0.0
C272 C 0.58083 0.58504 0.84133 0.0
C273 C 0.60961 0.57473 0.8384 0.0
C274 C 0.64002 0.59804 0.82927 0.0
C275 C 0.55445 0.63207 0.83885 0.0
C276 C 0.60723 0.53821 0.84444 0.0
C277 C 0.323 0.32542 0.80008 0.0
C278 C 0.35699 0.3498 0.80942 0.0
C279 C 0.39029 0.41394 0.82079 0.0
C280 C 0.41588 0.40621 0.82876 0.0
C281 C 0.44447 0.43499 0.83752 0.0
C282 C 0.44727 0.47213 0.8385 0.0
C283 C 0.42124 0.47988 0.83069 0.0
C284 C 0.39307 0.45062 0.8219 0.0
C285 C 0.47197 0.42584 0.84566 0.0
C286 C 0.42336 0.51913 0.83158 0.0
C287 C 0.35117 0.42775 0.92232 0.0
C288 C 0.3803 0.41734 0.92137 0.0
C289 C 0.41787 0.44446 0.91672 0.0
C290 C 0.4264 0.48272 0.91305 0.0
C291 C 0.3979 0.49403 0.91493 0.0
C292 C 0.36064 0.46636 0.91966 0.0
C293 C 0.44799 0.43183 0.91522 0.0
C294 C 0.4063 0.5348 0.91134 0.0
C295 C 0.72502 0.68417 0.92442 0.0
C296 C 0.69867 0.69696 0.93154 0.0
C297 C 0.6338 0.64008 0.93159 0.0
C298 C 0.62188 0.60028 0.93094 0.0
C299 C 0.58797 0.57405 0.92345 0.0
C300 C 0.56508 0.58809 0.91683 0.0
C301 C 0.57577 0.628 0.91826 0.0
C302 C 0.61031 0.6537 0.92555 0.0
C303 C 0.57725 0.53163 0.92226 0.0
C304 C 0.55125 0.64364 0.91181 0.0
C305 C 0.54512 0.55754 0.84901 0.0
C306 C 0.51343 0.52952 0.84113 0.0
C307 C 0.47829 0.50307 0.84742 0.0
C308 C 0.47408 0.50501 0.86196 0.0
C309 C 0.43862 0.47974 0.86854 0.0
C310 C 0.43496 0.48139 0.8829 0.0
C311 C 0.46675 0.50813 0.89126 0.0
C312 C 0.4635 0.50946 0.90591 0.0
C313 C 0.49574 0.53606 0.91394 0.0
C314 C 0.53147 0.56158 0.90771 0.0
C315 C 0.53519 0.56097 0.89304 0.0
C316 C 0.57064 0.58636 0.8864 0.0
C317 C 0.57388 0.58565 0.87197 0.0
C318 C 0.54208 0.55896 0.86365 0.0
C319 C 0.50626 0.53276 0.87013 0.0
C320 C 0.5027 0.53405 0.88482 0.0
C321 C 0.25803 0.35415 0.9128 0.0
C322 C 0.29364 0.36213 0.92179 0.0
O323 O 0.66877 0.64988 0.81291 0.0
O324 O 0.6682 0.66496 0.93803 0.0
O325 O 0.31369 0.40136 0.92564 0.0
O326 O 0.36285 0.38702 0.81193 0.0
H327 H 0.63417 0.662 0.79991 0.0
H328 H 0.62112 0.59586 0.79424 0.0
H329 H 0.67158 0.61411 0.78986 0.0
H330 H 0.64155 0.62756 0.77941 0.0
H331 H 0.61697 0.66861 0.82197 0.0
H332 H 0.6615 0.58978 0.82655 0.0
H333 H 0.52552 0.61026 0.83438 0.0
H334 H 0.5628 0.66136 0.83451 0.0
H335 H 0.55112 0.63279 0.85032 0.0
H336 H 0.63335 0.53576 0.84196 0.0
H337 H 0.58078 0.512 0.8402 0.0
H338 H 0.60426 0.53803 0.85595 0.0
H339 H 0.38445 0.3499 0.80668 0.0
H340 H 0.33617 0.32021 0.79055 0.0
H341 H 0.31501 0.346 0.7947 0.0
H342 H 0.28432 0.2798 0.81303 0.0
H343 H 0.41393 0.37786 0.82815 0.0
H344 H 0.37315 0.45631 0.81578 0.0
H345 H 0.46783 0.42761 0.85701 0.0
H346 H 0.50278 0.44787 0.8433 0.0
H347 H 0.4672 0.39618 0.84324 0.0
H348 H 0.39944 0.51973 0.82553 0.0
H349 H 0.45187 0.54224 0.82751 0.0
H350 H 0.42175 0.52642 0.84266 0.0
H351 H 0.31194 0.3547 0.91511 0.0
H352 H 0.37368 0.38799 0.92412 0.0
H353 H 0.33816 0.4743 0.92073 0.0
H354 H 0.45436 0.43133 0.90399 0.0
H355 H 0.43799 0.40227 0.91964 0.0
H356 H 0.47575 0.45325 0.92052 0.0
H357 H 0.38182 0.53967 0.91413 0.0
H358 H 0.41153 0.53972 0.89996 0.0
H359 H 0.4333 0.55684 0.91687 0.0
H360 H 0.68709 0.70878 0.92336 0.0
H361 H 0.7496 0.70947 0.91914 0.0
H362 H 0.7079 0.66135 0.91643 0.0
H363 H 0.7371 0.67185 0.93218 0.0
H364 H 0.64009 0.59012 0.93585 0.0
H365 H 0.61912 0.68443 0.92651 0.0
H366 H 0.57479 0.5231 0.91109 0.0
H367 H 0.54827 0.51277 0.92704 0.0
H368 H 0.59908 0.52577 0.92751 0.0
H369 H 0.56049 0.67381 0.91548 0.0
H370 H 0.51991 0.62416 0.91431 0.0
H371 H 0.55391 0.64416 0.90028 0.0
H372 H 0.51629 0.52802 0.82992 0.0
H373 H 0.41324 0.45844 0.86264 0.0
H374 H 0.40689 0.4612 0.88735 0.0
H375 H 0.4931 0.53668 0.92518 0.0
H376 H 0.59629 0.60721 0.89227 0.0
H377 H 0.60175 0.60599 0.86741 0.0
H378 H 0.24118 0.32271 0.90974 0.0
H379 H 0.26785 0.372 0.90314 0.0
H380 H 0.23852 0.36196 0.9185 0.0
H381 H 0.05424 0.10756 0.08997 0.0
H382 H 0.06045 0.15829 0.10613 0.0
H383 H 0.99542 0.1894 0.07734 0.0
H384 H 0.98793 0.13762 0.06133 0.0
H385 H 0.09793 0.23465 0.1014 0.0
H386 H 0.94341 0.18673 0.1135 0.0
H387 H 0.95767 0.15512 0.10494 0.0
H388 H 0.95326 0.19182 0.09515 0.0
C389 C 0.04075 0.12482 0.08719 0.0
C390 C 0.02059 0.11867 0.07441 0.0
C391 C 0.04433 0.15381 0.09642 0.0
C392 C 0.02809 0.17744 0.09303 0.0
C393 C 0.00739 0.17095 0.08035 0.0
H394 H 0.11632 0.4066 0.13216 0.0
H395 H 0.09612 0.35327 0.1152 0.0
C396 C 0.00334 0.14153 0.07117 0.0
C397 C 0.03554 0.21061 0.10233 0.0
H398 H 0.99122 0.25077 0.12115 0.0
C399 C 0.07456 0.23809 0.10574 0.0
C400 C 0.00502 0.21494 0.10806 0.0
C401 C 0.96248 0.18539 0.10535 0.0
C402 C 0.08397 0.26965 0.11474 0.0
C403 C 0.05355 0.27462 0.12018 0.0
C404 C 0.01448 0.24716 0.11681 0.0
C405 C 0.06189 0.30719 0.12988 0.0
C406 C 0.12639 0.29673 0.11866 0.0
C407 C 0.04794 0.29905 0.14358 0.0
C408 C 0.05894 0.32948 0.15321 0.0
C409 C 0.08381 0.36862 0.14928 0.0
C410 C 0.09673 0.37677 0.13543 0.0
C411 C 0.08551 0.34633 0.12578 0.0
H412 H 0.14467 0.28318 0.11655 0.0
H413 H 0.13795 0.32392 0.1124 0.0
H414 H 0.12964 0.30494 0.12988 0.0
H415 H 0.02972 0.26904 0.14695 0.0
H416 H 0.04899 0.32237 0.16386 0.0
H417 H 0.88229 0.01069 0.38268 0.0
H418 H 0.83757 0.01654 0.39875 0.0
H419 H 0.93235 0.07692 0.42847 0.0
H420 H 0.97727 0.07213 0.41236 0.0
H421 H 0.81538 0.99062 0.42535 0.0
H422 H 0.89205 0.1528 0.42423 0.0
H423 H 0.90237 0.12446 0.41202 0.0
H424 H 0.92385 0.13447 0.42929 0.0
C425 C 0.89352 0.02519 0.39265 0.0
C426 C 0.93332 0.04133 0.39622 0.0
C427 C 0.86797 0.02848 0.40181 0.0
C428 C 0.88183 0.04792 0.41467 0.0
C429 C 0.92127 0.06278 0.41844 0.0
H430 H 0.75343 0.04019 0.48798 0.0
H431 H 0.78895 0.02829 0.46968 0.0
C432 C 0.94684 0.0598 0.40926 0.0
C433 C 0.85521 0.05281 0.42418 0.0
H434 H 0.84511 0.12179 0.44218 0.0
C435 C 0.82166 0.01929 0.42895 0.0
C436 C 0.86304 0.09028 0.42866 0.0
C437 C 0.89705 0.12756 0.42317 0.0
C438 C 0.79639 0.0222 0.43845 0.0
C439 C 0.80546 0.05957 0.44352 0.0
C440 C 0.83836 0.09311 0.43841 0.0
C441 C 0.7818 0.06475 0.45432 0.0
C442 C 0.76008 0.98524 0.44283 0.0
C443 C 0.76683 0.08999 0.45192 0.0
C444 C 0.74702 0.09724 0.46243 0.0
C445 C 0.74139 0.07899 0.47551 0.0
C446 C 0.75647 0.05381 0.47789 0.0
C447 C 0.77656 0.04683 0.46741 0.0
H448 H 0.75101 0.96158 0.43491 0.0
H449 H 0.76623 0.97465 0.45276 0.0
H450 H 0.73532 0.99056 0.4445 0.0
H451 H 0.77098 0.10455 0.44196 0.0
H452 H 0.73662 0.11757 0.4604 0.0
H453 H 0.95742 0.90824 0.72927 0.0
H454 H 0.90926 0.85502 0.74383 0.0
H455 H 0.85032 0.92058 0.75082 0.0
H456 H 0.89835 0.97399 0.73639 0.0
H457 H 0.8827 0.86635 0.77482 0.0
H458 H 0.77107 0.8046 0.73191 0.0
H459 H 0.82293 0.83183 0.72849 0.0
H460 H 0.79838 0.85702 0.73431 0.0
C461 C 0.93431 0.91138 0.73397 0.0
C462 C 0.9315 0.94517 0.73166 0.0
C463 C 0.90699 0.88108 0.7423 0.0
C464 C 0.87641 0.88406 0.74833 0.0
C465 C 0.87383 0.91791 0.74622 0.0
H466 H 0.66108 0.72187 0.7883 0.0
H467 H 0.7155 0.778 0.77701 0.0
C468 C 0.90122 0.9483 0.73797 0.0
C469 C 0.84615 0.85119 0.7564 0.0
H470 H 0.75236 0.77526 0.75398 0.0
C471 C 0.8542 0.84625 0.77031 0.0
C472 C 0.80915 0.82539 0.75042 0.0
C473 C 0.7996 0.8296 0.73544 0.0
C474 C 0.82564 0.81631 0.77855 0.0
C475 C 0.78852 0.7903 0.77255 0.0
C476 C 0.78078 0.79525 0.75857 0.0
C477 C 0.75692 0.75791 0.78053 0.0
C478 C 0.8351 0.81352 0.79368 0.0
C479 C 0.76222 0.72812 0.78637 0.0
C480 C 0.73123 0.69621 0.79298 0.0
C481 C 0.69429 0.69331 0.79368 0.0
C482 C 0.68925 0.72342 0.78797 0.0
C483 C 0.72028 0.75542 0.78149 0.0
H484 H 0.86002 0.84158 0.79758 0.0
H485 H 0.8094 0.8054 0.80036 0.0
H486 H 0.84343 0.79058 0.79477 0.0
H487 H 0.78995 0.72895 0.78547 0.0
H488 H 0.73579 0.67326 0.79721 0.0
H489 H 0.07412 0.95771 0.06124 0.0
H490 H 0.06914 0.90224 0.07471 0.0
H491 H 0.96189 0.88432 0.09279 0.0
H492 H 0.96612 0.93864 0.0792 0.0
H493 H 0.0671 0.8889 0.10267 0.0
H494 H 0.92905 0.77625 0.07804 0.0
H495 H 0.95758 0.82484 0.07092 0.0
H496 H 0.9239 0.81573 0.08486 0.0
C497 C 0.04948 0.94181 0.06808 0.0
C498 C 0.0203 0.95222 0.06907 0.0
C499 C 0.04667 0.91019 0.07575 0.0
C500 C 0.01464 0.88857 0.0845 0.0
C501 C 0.98622 0.8998 0.0858 0.0
H502 H 0.98071 0.75086 0.15683 0.0
H503 H 0.00332 0.80245 0.13928 0.0
C504 C 0.98884 0.93106 0.07808 0.0
C505 C 0.01084 0.85465 0.09255 0.0
H506 H 0.94491 0.75987 0.10053 0.0
C507 C 0.04067 0.86046 0.10206 0.0
C508 C 0.97686 0.81724 0.0915 0.0
C509 C 0.94526 0.80801 0.08066 0.0
C510 C 0.03632 0.83051 0.11115 0.0
C511 C 0.00074 0.79424 0.11097 0.0
C512 C 0.97199 0.78779 0.10086 0.0
C513 C 0.99135 0.76349 0.12166 0.0
C514 C 0.06985 0.83825 0.12087 0.0
C515 C 0.97626 0.72418 0.11766 0.0
C516 C 0.96242 0.69452 0.12768 0.0
C517 C 0.96402 0.70368 0.14195 0.0
C518 C 0.97997 0.7431 0.14594 0.0
C519 C 0.99321 0.77264 0.13591 0.0
H520 H 0.09838 0.85961 0.11626 0.0
H521 H 0.06693 0.85119 0.13074 0.0
H522 H 0.07028 0.81091 0.12334 0.0
H523 H 0.97409 0.71629 0.10673 0.0
H524 H 0.94955 0.66438 0.12422 0.0
H525 H 0.06559 0.97644 0.39739 0.0
H526 H 0.11351 0.9762 0.41387 0.0
H527 H 0.18491 0.10161 0.41016 0.0
H528 H 0.13727 0.10219 0.39355 0.0
H529 H 0.20866 0.02135 0.40861 0.0
H530 H 0.15044 0.06318 0.45413 0.0
H531 H 0.11923 0.03615 0.43951 0.0
H532 H 0.15537 0.08675 0.43751 0.0
C533 C 0.09159 0.00395 0.40002 0.0
C534 C 0.09767 0.03936 0.39422 0.0
C535 C 0.11891 0.00372 0.40939 0.0
C536 C 0.15253 0.03887 0.41318 0.0
C537 C 0.15904 0.07422 0.4073 0.0
H538 H 0.3155 0.07902 0.48179 0.0
H539 H 0.27946 0.08793 0.46248 0.0
C540 C 0.13184 0.07447 0.39784 0.0
C541 C 0.18009 0.03856 0.42367 0.0
H542 H 0.20191 0.05071 0.45849 0.0
C543 C 0.20746 0.02794 0.41952 0.0
C544 C 0.17843 0.04749 0.43781 0.0
C545 C 0.14932 0.059 0.44264 0.0
C546 C 0.23327 0.02575 0.42924 0.0
C547 C 0.23076 0.03339 0.44351 0.0
C548 C 0.20377 0.04476 0.44757 0.0
C549 C 0.25496 0.02876 0.45451 0.0
C550 C 0.26322 0.01577 0.42409 0.0
C551 C 0.2532 0.99256 0.45645 0.0
C552 C 0.27409 0.98756 0.46738 0.0
C553 C 0.29667 0.01849 0.47671 0.0
C554 C 0.29851 0.05474 0.47472 0.0
C555 C 0.27788 0.05983 0.46372 0.0
H556 H 0.26967 0.02319 0.41288 0.0
H557 H 0.291 0.03148 0.4302 0.0
H558 H 0.25157 0.98379 0.4252 0.0
H559 H 0.2349 0.96785 0.44972 0.0
H560 H 0.27196 0.95925 0.46874 0.0
H561 H 0.11661 0.08073 0.7395 0.0
H562 H 0.16376 0.12797 0.75626 0.0
H563 H 0.11206 0.20122 0.75094 0.0
H564 H 0.06458 0.15398 0.7341 0.0
H565 H 0.21742 0.21163 0.75041 0.0
H566 H 0.1161 0.18555 0.79431 0.0
H567 H 0.10434 0.15 0.78052 0.0
H568 H 0.10195 0.19359 0.77722 0.0
C569 C 0.11511 0.10678 0.74194 0.0
C570 C 0.08689 0.11366 0.73551 0.0
C571 C 0.14207 0.13372 0.7515 0.0
C572 C 0.1411 0.16782 0.75489 0.0
C573 C 0.1129 0.17479 0.74856 0.0
H574 H 0.28906 0.35213 0.82508 0.0
H575 H 0.23118 0.30896 0.80344 0.0
C576 C 0.08596 0.14788 0.73893 0.0
C577 C 0.17054 0.19643 0.76477 0.0
H578 H 0.18262 0.23183 0.79802 0.0
C579 C 0.20987 0.21622 0.76081 0.0
C580 C 0.16038 0.20276 0.7782 0.0
C581 C 0.11846 0.1818 0.78294 0.0
C582 C 0.23956 0.24162 0.77007 0.0
C583 C 0.22962 0.24642 0.78375 0.0
C584 C 0.19014 0.22791 0.78753 0.0
C585 C 0.25966 0.26831 0.79456 0.0
C586 C 0.28108 0.26355 0.76495 0.0
C587 C 0.29687 0.25519 0.7979 0.0
C588 C 0.33292 0.27913 0.81153 0.0
C589 C 0.33335 0.3224 0.81944 0.0
C590 C 0.28974 0.32903 0.81923 0.0
C591 C 0.25506 0.30339 0.80531 0.0
H592 H 0.28192 0.26686 0.75342 0.0
H593 H 0.29755 0.29315 0.76974 0.0
H594 H 0.29609 0.24693 0.76768 0.0
H595 H 0.29715 0.23222 0.79185 0.0
H596 H 0.35712 0.27377 0.81286 0.0
H597 H 0.90436 0.99532 0.67136 0.0
H598 H 0.85735 0.00609 0.6579 0.0
H599 H 0.91638 0.1269 0.67134 0.0
H600 H 0.96317 0.11629 0.68493 0.0
H601 H 0.83579 0.08717 0.67558 0.0
H602 H 0.87051 0.06652 0.62133 0.0
H603 H 0.86178 0.0276 0.63318 0.0
H604 H 0.90354 0.0755 0.6359 0.0
C605 C 0.90757 0.02429 0.67131 0.0
C606 C 0.93738 0.05497 0.67921 0.0
C607 C 0.88084 0.03043 0.66355 0.0
C608 C 0.88368 0.06739 0.66352 0.0
C609 C 0.91383 0.0982 0.6712 0.0
H610 H 0.76081 0.15917 0.61523 0.0
H611 H 0.80894 0.14322 0.62501 0.0
C612 C 0.94052 0.0921 0.67895 0.0
C613 C 0.85373 0.07342 0.65629 0.0
H614 H 0.81407 0.07256 0.62429 0.0
C615 C 0.83105 0.08402 0.66436 0.0
C616 C 0.84784 0.06947 0.64165 0.0
C617 C 0.87238 0.05948 0.63245 0.0
C618 C 0.80248 0.09068 0.65821 0.0
C619 C 0.79605 0.08603 0.64361 0.0
C620 C 0.81889 0.0757 0.6355 0.0
C621 C 0.76648 0.09306 0.63662 0.0
C622 C 0.77992 0.10338 0.66736 0.0
C623 C 0.72666 0.06951 0.63967 0.0
C624 C 0.69923 0.07856 0.63412 0.0
C625 C 0.71111 0.11104 0.62531 0.0
C626 C 0.75086 0.13376 0.62189 0.0
C627 C 0.7783 0.12471 0.62746 0.0
H628 H 0.79437 0.11408 0.67772 0.0
H629 H 0.77663 0.12697 0.66229 0.0
H630 H 0.75023 0.07805 0.66909 0.0
H631 H 0.71696 0.04469 0.6466 0.0
H632 H 0.66883 0.06072 0.63699 0.0
H633 H 0.97856 0.97764 -6e-05 0.0
H634 H 0.92985 0.92934 0.98387 0.0
H635 H 0.83848 0.9077 0.01285 0.0
H636 H 0.88711 0.957 0.02882 0.0
H637 H 0.88462 0.8529 0.98886 0.0
H638 H 0.79069 0.91709 0.97653 0.0
H639 H 0.83805 0.94485 0.98493 0.0
H640 H 0.79605 0.91167 0.9949 0.0
C641 C 0.94801 0.96304 0.00279 0.0
C642 C 0.93658 0.97106 0.01562 0.0
C643 C 0.92022 0.93541 0.99361 0.0
C644 C 0.88047 0.91512 0.99709 0.0
C645 C 0.86885 0.92359 0.0098 0.0
H646 H 0.71553 0.68998 0.95915 0.0
H647 H 0.75748 0.74249 0.97548 0.0
C648 C 0.89667 0.95161 0.01895 0.0
C649 C 0.85188 0.88321 0.98784 0.0
H650 H 0.76693 0.85126 0.96913 0.0
C651 C 0.85894 0.85261 0.98452 0.0
C652 C 0.81859 0.88306 0.98208 0.0
C653 C 0.8105 0.91611 0.98467 0.0
C654 C 0.83367 0.82185 0.97561 0.0
C655 C 0.79974 0.82104 0.97019 0.0
C656 C 0.79272 0.85171 0.97345 0.0
C657 C 0.772 0.78933 0.96071 0.0
C658 C 0.84418 0.7911 0.97182 0.0
C659 C 0.76515 0.79834 0.94716 0.0
C660 C 0.74063 0.76847 0.93791 0.0
C661 C 0.72223 0.72905 0.94207 0.0
C662 C 0.72879 0.72012 0.95572 0.0
C663 C 0.75307 0.75005 0.965 0.0
H664 H 0.87577 0.80164 0.97369 0.0
H665 H 0.82721 0.76478 0.97837 0.0
H666 H 0.83708 0.78225 0.96069 0.0
H667 H 0.77954 0.82846 0.94363 0.0
H668 H 0.73659 0.77609 0.92739 0.0
H669 H 0.939 0.90449 0.3523 0.0
H670 H 0.93248 0.84767 0.33961 0.0
H671 H 0.0383 0.92261 0.31732 0.0
H672 H 0.04487 0.97976 0.32989 0.0
H673 H 0.97619 0.86378 0.30042 0.0
H674 H 0.00566 0.80315 0.34848 0.0
H675 H 0.96645 0.81362 0.34997 0.0
H676 H 0.01556 0.85303 0.34737 0.0
C677 C 0.96068 0.90894 0.3446 0.0
C678 C 0.99263 0.94651 0.34216 0.0
C679 C 0.957 0.87645 0.33741 0.0
C680 C 0.98526 0.88094 0.32771 0.0
C681 C 0.0163 0.91858 0.32482 0.0
H682 H 0.01945 0.68998 0.30098 0.0
H683 H 0.02929 0.75325 0.30902 0.0
C684 C 0.02002 0.95114 0.33202 0.0
C685 C 0.98326 0.84613 0.32103 0.0
H686 H 0.98501 0.76227 0.32842 0.0
C687 C 0.97824 0.84159 0.3065 0.0
C688 C 0.98667 0.81768 0.32899 0.0
C689 C 0.99425 0.82214 0.34455 0.0
C690 C 0.97554 0.80869 0.29973 0.0
C691 C 0.97742 0.77948 0.30778 0.0
C692 C 0.98332 0.78456 0.32228 0.0
C693 C 0.97298 0.7431 0.3015 0.0
C694 C 0.97121 0.80575 0.28405 0.0
C695 C 0.9382 0.71656 0.2945 0.0
C696 C 0.93264 0.68052 0.28981 0.0
C697 C 0.96169 0.67031 0.29215 0.0
C698 C 0.99673 0.69723 0.29894 0.0
C699 C 0.00234 0.7333 0.30356 0.0
H700 H 0.98134 0.83489 0.27922 0.0
H701 H 0.98793 0.79269 0.27955 0.0
H702 H 0.93986 0.78665 0.28121 0.0
H703 H 0.91477 0.7231 0.2931 0.0
H704 H 0.90518 0.66007 0.28476 0.0
H705 H 0.12446 0.08983 0.67634 0.0
H706 H 0.17525 0.08636 0.66311 0.0
H707 H 0.11013 0.9602 0.66533 0.0
H708 H 0.05906 0.96336 0.67859 0.0
H709 H 0.21703 0.04843 0.6741 0.0
H710 H 0.14155 0.98525 0.62335 0.0
H711 H 0.12543 0.00975 0.63521 0.0
H712 H 0.11542 0.96092 0.63887 0.0
C713 C 0.12066 0.06131 0.67385 0.0
C714 C 0.08783 0.02685 0.67852 0.0
C715 C 0.1497 0.05941 0.66631 0.0
C716 C 0.14621 0.02304 0.66317 0.0
C717 C 0.11301 0.98851 0.66749 0.0
H718 H 0.3025 0.9557 0.62476 0.0
H719 H 0.24608 0.95674 0.63475 0.0
C720 C 0.084 0.99039 0.6751 0.0
C721 C 0.17881 0.0215 0.65636 0.0
H722 H 0.20457 0.9929 0.62664 0.0
C723 C 0.21443 0.03644 0.6637 0.0
C724 C 0.175 0.00544 0.64287 0.0
C725 C 0.13742 0.98962 0.63452 0.0
C726 C 0.24643 0.03548 0.65796 0.0
C727 C 0.24297 0.02012 0.64435 0.0
C728 C 0.20718 0.00485 0.63704 0.0
C729 C 0.27629 0.0197 0.63757 0.0
C730 C 0.28331 0.05011 0.66669 0.0
C731 C 0.31156 0.05481 0.63553 0.0
C732 C 0.3438 0.05422 0.62999 0.0
C733 C 0.34118 0.01855 0.62618 0.0
C734 C 0.30533 0.98355 0.62769 0.0
C735 C 0.27314 0.98413 0.63335 0.0
H736 H 0.27745 0.05013 0.678 0.0
H737 H 0.29713 0.03187 0.66503 0.0
H738 H 0.3045 0.08069 0.66368 0.0
H739 H 0.3143 0.08266 0.63839 0.0
H740 H 0.37097 0.08165 0.62885 0.0
H741 H 0.1407 0.09057 0.01727 0.0
H742 H 0.18831 0.13706 0.00065 0.0
H743 H 0.13915 0.21252 0.00536 0.0
H744 H 0.09153 0.16633 0.02178 0.0
H745 H 0.16369 0.16067 0.97502 0.0
H746 H 0.26047 0.28681 0.00921 0.0
H747 H 0.23117 0.2375 0.01574 0.0
H748 H 0.20899 0.26682 0.01199 0.0
C749 C 0.1405 0.11737 0.0149 0.0
C750 C 0.11241 0.12485 0.02077 0.0
C751 C 0.16763 0.14382 0.00543 0.0
C752 C 0.16745 0.17836 0.00194 0.0
C753 C 0.14014 0.18632 0.0081 0.0
H754 H 0.2541 0.36655 0.94445 0.0
H755 H 0.22816 0.32129 0.96414 0.0
C756 C 0.11281 0.15979 0.01741 0.0
C757 C 0.19317 0.2046 0.99093 0.0
H758 H 0.26261 0.29957 0.98474 0.0
C759 C 0.18588 0.19086 0.97712 0.0
C760 C 0.22178 0.24393 0.99377 0.0
C761 C 0.23141 0.25968 0.00849 0.0
C762 C 0.20498 0.21607 0.96594 0.0
C763 C 0.23286 0.25583 0.96873 0.0
C764 C 0.24123 0.26912 0.98262 0.0
C765 C 0.2514 0.28466 0.95736 0.0
C766 C 0.19346 0.20041 0.95123 0.0
C767 C 0.27387 0.27964 0.94721 0.0
C768 C 0.28832 0.30521 0.93588 0.0
C769 C 0.28106 0.33659 0.93464 0.0
C770 C 0.26001 0.34254 0.94514 0.0
C771 C 0.2453 0.31678 0.95639 0.0
H772 H 0.16544 0.17208 0.95087 0.0
H773 H 0.19044 0.22166 0.94444 0.0
H774 H 0.21652 0.19544 0.94684 0.0
H775 H 0.27966 0.25556 0.94792 0.0
H776 H 0.30462 0.30009 0.92797 0.0
H777 H 0.09399 0.17147 0.34956 0.0
H778 H 0.10389 0.23024 0.33726 0.0
H779 H 0.98404 0.16824 0.3226 0.0
H780 H 0.97386 0.1092 0.33485 0.0
H781 H 0.0423 0.21668 0.30186 0.0
H782 H 0.05361 0.29526 0.35133 0.0
H783 H 0.08526 0.27475 0.35034 0.0
H784 H 0.03314 0.24279 0.35047 0.0
C785 C 0.06982 0.17024 0.34363 0.0
C786 C 0.03308 0.13584 0.34323 0.0
C787 C 0.0755 0.20384 0.33666 0.0
C788 C 0.04455 0.20361 0.32919 0.0
C789 C 0.00822 0.16895 0.32836 0.0
H790 H 0.03911 0.41358 0.30533 0.0
H791 H 0.02149 0.3478 0.31337 0.0
C792 C 0.00246 0.13533 0.33537 0.0
C793 C 0.0498 0.23999 0.32269 0.0
H794 H 0.06871 0.33231 0.33053 0.0
C795 C 0.04794 0.24198 0.30809 0.0
C796 C 0.05651 0.2726 0.33089 0.0
C797 C 0.05694 0.27134 0.34663 0.0
C798 C 0.05368 0.27628 0.30145 0.0
C799 C 0.06181 0.30938 0.30966 0.0
C800 C 0.06271 0.30696 0.32426 0.0
C801 C 0.07005 0.34714 0.3034 0.0
C802 C 0.05065 0.27672 0.28575 0.0
C803 C 0.10302 0.36842 0.29505 0.0
C804 C 0.11304 0.40594 0.2904 0.0
C805 C 0.09025 0.42278 0.29406 0.0
C806 C 0.05688 0.40109 0.30221 0.0
C807 C 0.04686 0.36362 0.30683 0.0
H808 H 0.03424 0.24658 0.28133 0.0
H809 H 0.03598 0.29322 0.28235 0.0
H810 H 0.0805 0.2914 0.28134 0.0
H811 H 0.12184 0.35664 0.29255 0.0
H812 H 0.1393 0.42232 0.28434 0.0
loop_
_geom_bond_atom_site_label_1
_geom_bond_atom_site_label_2
_geom_bond_distance
_geom_bond_site_symmetry_2
_ccdc_geom_bond_type
In0 O1 2.294 1_455 S
In0 O2 2.326 . S
In0 O6 2.266 1_445 S
In0 O7 2.326 1_445 S
In0 O8 2.266 1_545 S
In0 O9 2.326 1_445 S
In0 O11 2.294 . S
In0 O12 2.326 . S
O1 In0 2.294 1_655 S
O1 C10 1.240 1_655 S
O2 In0 2.326 . S
O2 C10 1.252 . S
C3 O6 1.252 . S
C3 O7 1.260 . S
C4 O11 1.240 . S
C4 O12 1.252 . S
C5 O8 1.252 . S
C5 O9 1.260 1_455 S
O6 In0 2.266 1_665 S
O6 C3 1.252 . S
O7 In0 2.326 1_665 S
O7 C3 1.260 . S
O8 In0 2.266 1_565 S
O8 C5 1.252 . S
O9 In0 2.326 1_665 S
O9 C5 1.260 1_655 S
C10 O1 1.240 1_455 S
C10 O2 1.252 . S
O11 In0 2.294 . S
O11 C4 1.240 . S
O12 In0 2.326 . S
O12 C4 1.252 . S
In13 O14 2.294 . S
In13 O15 2.326 1_455 S
In13 O19 2.266 . S
In13 O20 2.326 . S
In13 O21 2.266 1_445 S
In13 O22 2.326 . S
In13 O24 2.294 1_455 S
In13 O25 2.326 1_455 S
O14 In13 2.294 . S
O14 C23 1.240 . S
O15 In13 2.326 1_655 S
O15 C23 1.252 1_655 S
C16 O19 1.252 . S
C16 O20 1.260 . S
C17 O24 1.240 . S
C17 O25 1.252 . S
C18 O21 1.252 1_455 S
C18 O22 1.260 1_565 S
O19 In13 2.266 . S
O19 C16 1.252 . S
O20 In13 2.326 . S
O20 C16 1.260 . S
O21 In13 2.266 1_665 S
O21 C18 1.252 1_655 S
O22 In13 2.326 . S
O22 C18 1.260 1_545 S
C23 O14 1.240 . S
C23 O15 1.252 1_455 S
O24 In13 2.294 1_655 S
O24 C17 1.240 . S
O25 In13 2.326 1_655 S
O25 C17 1.252 . S
In26 O27 2.294 1_445 S
In26 O28 2.326 1_455 S
In26 O32 2.266 . S
In26 O33 2.326 . S
In26 O34 2.266 . S
In26 O35 2.326 . S
In26 O37 2.294 1_455 S
In26 O38 2.326 1_455 S
O27 In26 2.294 1_665 S
O27 C36 1.240 . S
O28 In26 2.326 1_655 S
O28 C36 1.252 1_545 S
C29 O32 1.252 . S
C29 O33 1.260 . S
C30 O37 1.240 . S
C30 O38 1.252 . S
C31 O34 1.252 . S
C31 O35 1.260 . S
O32 In26 2.266 . S
O32 C29 1.252 . S
O33 In26 2.326 . S
O33 C29 1.260 . S
O34 In26 2.266 . S
O34 C31 1.252 . S
O35 In26 2.326 . S
O35 C31 1.260 . S
C36 O27 1.240 . S
C36 O28 1.252 1_565 S
O37 In26 2.294 1_655 S
O37 C30 1.240 . S
O38 In26 2.326 1_655 S
O38 C30 1.252 . S
C39 C40 1.560 . S
C39 H100 0.959 . S
C39 H101 0.959 . S
C39 H102 0.960 . S
C40 C39 1.560 . S
C40 O95 1.426 . S
C40 H99 0.980 1_655 S
C41 C42 1.407 1_655 S
C41 C46 1.418 . S
C41 O95 1.334 . S
C42 C41 1.407 1_455 S
C42 C43 1.360 . S
C42 H103 0.929 . S
C43 C42 1.360 . S
C43 C44 1.401 . S
C43 C47 1.527 . S
C44 C43 1.401 . S
C44 C45 1.405 1_455 S
C44 C77 1.587 . S
C45 C44 1.405 1_655 S
C45 C46 1.332 . S
C45 C48 1.496 . S
C46 C41 1.418 . S
C46 C45 1.332 . S
C46 H104 0.929 . S
C47 C43 1.527 . S
C47 H105 0.959 . S
C47 H106 0.961 . S
C47 H107 0.961 . S
C48 C45 1.496 . S
C48 H108 0.960 . S
C48 H109 0.960 . S
C48 H110 0.961 . S
C49 C50 1.517 . S
C49 H112 0.961 . S
C49 H113 0.960 . S
C49 H114 0.959 . S
C50 C49 1.517 . S
C50 O98 1.468 . S
C50 H111 0.980 . S
C51 C52 1.349 . S
C51 C56 1.367 . S
C51 O98 1.408 . S
C52 C51 1.349 . S
C52 C53 1.407 . S
C52 H115 0.930 . S
C53 C52 1.407 . S
C53 C54 1.449 . S
C53 C57 1.535 1_455 S
C54 C53 1.449 . S
C54 C55 1.384 . S
C54 C79 1.553 . S
C55 C54 1.384 . S
C55 C56 1.364 . S
C55 C58 1.450 . S
C56 C51 1.367 . S
C56 C55 1.364 . S
C56 H116 0.931 . S
C57 C53 1.535 1_655 S
C57 H117 0.959 . S
C57 H118 0.961 . S
C57 H119 0.959 . S
C58 C55 1.450 . S
C58 H120 0.960 . S
C58 H121 0.960 . S
C58 H122 0.960 . S
C59 C60 1.309 . S
C59 C64 1.304 . S
C59 O97 1.435 . S
C60 C59 1.309 . S
C60 C61 1.476 . S
C60 H124 0.930 1_455 S
C61 C60 1.476 . S
C61 C62 1.400 . S
C61 C65 1.567 1_455 S
C62 C61 1.400 . S
C62 C63 1.373 . S
C62 C84 1.432 . S
C63 C62 1.373 . S
C63 C64 1.339 . S
C63 C66 1.530 . S
C64 C59 1.304 . S
C64 C63 1.339 . S
C64 H125 0.930 . S
C65 C61 1.567 1_655 S
C65 H126 0.961 . S
C65 H127 0.960 . S
C65 H128 0.958 . S
C66 C63 1.530 . S
C66 H129 0.961 . S
C66 H130 0.960 . S
C66 H131 0.960 . S
C67 C68 1.530 1_655 S
C67 H133 0.961 . S
C67 H134 0.961 . S
C67 H135 0.959 . S
C68 C67 1.530 1_455 S
C68 O96 1.412 1_455 S
C68 H132 0.980 . S
C69 C70 1.288 . S
C69 C74 1.377 1_655 S
C69 O96 1.393 . S
C70 C69 1.288 . S
C70 C71 1.369 . S
C70 H136 0.932 . S
C71 C70 1.369 . S
C71 C72 1.398 1_655 S
C71 C75 1.527 . S
C72 C71 1.398 1_455 S
C72 C73 1.380 . S
C72 C86 1.497 . S
C73 C72 1.380 . S
C73 C74 1.383 . S
C73 C76 1.603 . S
C74 C69 1.377 1_455 S
C74 C73 1.383 . S
C74 H137 0.929 . S
C75 C71 1.527 . S
C75 H138 0.961 . S
C75 H139 0.959 . S
C75 H140 0.959 . S
C76 C73 1.603 . S
C76 H141 0.960 . S
C76 H142 0.962 . S
C76 H143 0.961 . S
C77 C44 1.587 . S
C77 C78 1.360 . S
C77 C90 1.412 . S
C78 C77 1.360 . S
C78 C79 1.365 . S
C78 H144 0.929 . S
C79 C54 1.553 . S
C79 C78 1.365 . S
C79 C80 1.404 . S
C80 C79 1.404 . S
C80 C81 1.395 . S
C80 C91 1.451 . S
C81 C80 1.395 . S
C81 C82 1.322 . S
C81 H145 0.930 . S
C82 C81 1.322 . S
C82 C83 1.459 . S
C82 H146 0.929 . S
C83 C82 1.459 . S
C83 C84 1.445 . S
C83 C92 1.395 . S
C84 C62 1.432 . S
C84 C83 1.445 . S
C84 C85 1.370 . S
C85 C84 1.370 . S
C85 C86 1.438 . S
C85 H147 0.930 . S
C86 C72 1.497 . S
C86 C85 1.438 . S
C86 C87 1.360 . S
C87 C86 1.360 . S
C87 C88 1.401 . S
C87 C92 1.446 . S
C88 C87 1.401 . S
C88 C89 1.347 . S
C88 H148 0.929 . S
C89 C88 1.347 . S
C89 C90 1.455 . S
C89 H149 0.930 . S
C90 C77 1.412 . S
C90 C89 1.455 . S
C90 C91 1.331 . S
C91 C80 1.451 . S
C91 C90 1.331 . S
C91 C92 1.497 . S
C92 C83 1.395 . S
C92 C87 1.446 . S
C92 C91 1.497 . S
C93 C94 1.582 . S
C93 H150 0.962 . S
C93 H151 0.959 . S
C93 H152 0.958 . S
C94 C93 1.582 . S
C94 O97 1.458 . S
C94 H123 0.980 . S
O95 C40 1.426 . S
O95 C41 1.334 . S
O96 C68 1.412 1_655 S
O96 C69 1.393 . S
O97 C59 1.435 . S
O97 C94 1.458 . S
O98 C50 1.468 . S
O98 C51 1.408 . S
H99 C40 0.980 1_455 S
H100 C39 0.959 . S
H101 C39 0.959 . S
H102 C39 0.960 . S
H103 C42 0.929 . S
H104 C46 0.929 . S
H105 C47 0.959 . S
H106 C47 0.961 . S
H107 C47 0.961 . S
H108 C48 0.960 . S
H109 C48 0.960 . S
H110 C48 0.961 . S
H111 C50 0.980 . S
H112 C49 0.961 . S
H113 C49 0.960 . S
H114 C49 0.959 . S
H115 C52 0.930 . S
H116 C56 0.931 . S
H117 C57 0.959 . S
H118 C57 0.961 . S
H119 C57 0.959 . S
H120 C58 0.960 . S
H121 C58 0.960 . S
H122 C58 0.960 . S
H123 C94 0.980 . S
H124 C60 0.930 1_655 S
H125 C64 0.930 . S
H126 C65 0.961 . S
H127 C65 0.960 . S
H128 C65 0.958 . S
H129 C66 0.961 . S
H130 C66 0.960 . S
H131 C66 0.960 . S
H132 C68 0.980 . S
H133 C67 0.961 . S
H134 C67 0.961 . S
H135 C67 0.959 . S
H136 C70 0.932 . S
H137 C74 0.929 . S
H138 C75 0.961 . S
H139 C75 0.959 . S
H140 C75 0.959 . S
H141 C76 0.960 . S
H142 C76 0.962 . S
H143 C76 0.961 . S
H144 C78 0.929 . S
H145 C81 0.930 . S
H146 C82 0.929 . S
H147 C85 0.930 . S
H148 C88 0.929 . S
H149 C89 0.930 . S
H150 C93 0.962 . S
H151 C93 0.959 . S
H152 C93 0.958 . S
C153 C154 1.560 1_565 S
C153 H214 0.959 . S
C153 H215 0.959 . S
C153 H216 0.960 1_565 S
C154 C153 1.560 1_545 S
C154 O209 1.417 1_545 S
C154 H213 0.980 . S
C155 C156 1.407 . S
C155 C160 1.418 1_545 S
C155 O209 1.335 1_545 S
C156 C155 1.407 . S
C156 C157 1.360 . S
C156 H217 0.929 . S
C157 C156 1.360 . S
C157 C158 1.401 . S
C157 C161 1.527 . S
C158 C157 1.401 . S
C158 C159 1.405 . S
C158 C191 1.587 . S
C159 C158 1.405 . S
C159 C160 1.332 1_545 S
C159 C162 1.496 1_545 S
C160 C155 1.418 1_565 S
C160 C159 1.332 1_565 S
C160 H218 0.929 . S
C161 C157 1.527 . S
C161 H219 0.959 . S
C161 H220 0.961 . S
C161 H221 0.961 . S
C162 C159 1.496 1_565 S
C162 H222 0.960 . S
C162 H223 0.960 . S
C162 H224 0.961 . S
C163 C164 1.517 . S
C163 H226 0.961 . S
C163 H227 0.960 . S
C163 H228 0.959 . S
C164 C163 1.517 . S
C164 O212 1.468 . S
C164 H225 0.980 . S
C165 C166 1.349 . S
C165 C170 1.367 . S
C165 O212 1.408 . S
C166 C165 1.349 . S
C166 C167 1.407 . S
C166 H229 0.930 . S
C167 C166 1.407 . S
C167 C168 1.449 . S
C167 C171 1.535 . S
C168 C167 1.449 . S
C168 C169 1.384 . S
C168 C193 1.553 . S
C169 C168 1.384 . S
C169 C170 1.364 . S
C169 C172 1.450 . S
C170 C165 1.367 . S
C170 C169 1.364 . S
C170 H230 0.931 . S
C171 C167 1.535 . S
C171 H231 0.959 . S
C171 H232 0.961 1_545 S
C171 H233 0.959 1_545 S
C172 C169 1.450 . S
C172 H234 0.960 . S
C172 H235 0.960 . S
C172 H236 0.960 . S
C173 C174 1.309 . S
C173 C178 1.304 . S
C173 O211 1.435 . S
C174 C173 1.309 . S
C174 C175 1.476 . S
C174 H238 0.930 . S
C175 C174 1.476 . S
C175 C176 1.400 . S
C175 C179 1.567 1_545 S
C176 C175 1.400 . S
C176 C177 1.373 . S
C176 C198 1.432 . S
C177 C176 1.373 . S
C177 C178 1.339 . S
C177 C180 1.530 . S
C178 C173 1.304 . S
C178 C177 1.339 . S
C178 H239 0.930 . S
C179 C175 1.567 1_565 S
C179 H240 0.961 . S
C179 H241 0.960 . S
C179 H242 0.958 . S
C180 C177 1.530 . S
C180 H243 0.961 . S
C180 H244 0.960 . S
C180 H245 0.960 . S
C181 C182 1.530 . S
C181 H247 0.961 . S
C181 H248 0.961 1_545 S
C181 H249 0.959 1_545 S
C182 C181 1.530 . S
C182 O210 1.412 . S
C182 H246 0.980 . S
C183 C184 1.288 1_545 S
C183 C188 1.377 . S
C183 O210 1.393 . S
C184 C183 1.288 1_565 S
C184 C185 1.369 1_565 S
C184 H250 0.932 . S
C185 C184 1.369 1_545 S
C185 C186 1.398 . S
C185 C189 1.527 1_545 S
C186 C185 1.398 . S
C186 C187 1.380 . S
C186 C200 1.497 . S
C187 C186 1.380 . S
C187 C188 1.383 . S
C187 C190 1.603 . S
C188 C183 1.377 . S
C188 C187 1.383 . S
C188 H251 0.929 . S
C189 C185 1.527 1_565 S
C189 H252 0.961 . S
C189 H253 0.959 . S
C189 H254 0.959 . S
C190 C187 1.603 . S
C190 H255 0.960 . S
C190 H256 0.962 . S
C190 H257 0.961 . S
C191 C158 1.587 . S
C191 C192 1.360 . S
C191 C204 1.412 . S
C192 C191 1.360 . S
C192 C193 1.365 . S
C192 H258 0.929 . S
C193 C168 1.553 . S
C193 C192 1.365 . S
C193 C194 1.404 . S
C194 C193 1.404 . S
C194 C195 1.395 . S
C194 C205 1.451 . S
C195 C194 1.395 . S
C195 C196 1.322 . S
C195 H259 0.930 . S
C196 C195 1.322 . S
C196 C197 1.459 . S
C196 H260 0.929 . S
C197 C196 1.459 . S
C197 C198 1.445 . S
C197 C206 1.395 . S
C198 C176 1.432 . S
C198 C197 1.445 . S
C198 C199 1.370 . S
C199 C198 1.370 . S
C199 C200 1.438 . S
C199 H261 0.930 . S
C200 C186 1.497 . S
C200 C199 1.438 . S
C200 C201 1.360 . S
C201 C200 1.360 . S
C201 C202 1.401 . S
C201 C206 1.446 . S
C202 C201 1.401 . S
C202 C203 1.347 . S
C202 H262 0.929 . S
C203 C202 1.347 . S
C203 C204 1.455 . S
C203 H263 0.930 . S
C204 C191 1.412 . S
C204 C203 1.455 . S
C204 C205 1.331 . S
C205 C194 1.451 . S
C205 C204 1.331 . S
C205 C206 1.497 . S
C206 C197 1.395 . S
C206 C201 1.446 . S
C206 C205 1.497 . S
C207 C208 1.582 . S
C207 H264 0.962 . S
C207 H265 0.959 . S
C207 H266 0.958 . S
C208 C207 1.582 . S
C208 O211 1.458 . S
C208 H237 0.980 . S
O209 C154 1.417 1_565 S
O209 C155 1.335 1_565 S
O210 C182 1.412 . S
O210 C183 1.393 . S
O211 C173 1.435 . S
O211 C208 1.458 . S
O212 C164 1.468 . S
O212 C165 1.408 . S
H213 C154 0.980 . S
H214 C153 0.959 . S
H215 C153 0.959 . S
H216 C153 0.960 1_545 S
H217 C156 0.929 . S
H218 C160 0.929 . S
H219 C161 0.959 . S
H220 C161 0.961 . S
H221 C161 0.961 . S
H222 C162 0.960 . S
H223 C162 0.960 . S
H224 C162 0.961 . S
H225 C164 0.980 . S
H226 C163 0.961 . S
H227 C163 0.960 . S
H228 C163 0.959 . S
H229 C166 0.930 . S
H230 C170 0.931 . S
H231 C171 0.959 . S
H232 C171 0.961 1_565 S
H233 C171 0.959 1_565 S
H234 C172 0.960 . S
H235 C172 0.960 . S
H236 C172 0.960 . S
H237 C208 0.980 . S
H238 C174 0.930 . S
H239 C178 0.930 . S
H240 C179 0.961 . S
H241 C179 0.960 . S
H242 C179 0.958 . S
H243 C180 0.961 . S
H244 C180 0.960 . S
H245 C180 0.960 . S
H246 C182 0.980 . S
H247 C181 0.961 . S
H248 C181 0.961 1_565 S
H249 C181 0.959 1_565 S
H250 C184 0.932 . S
H251 C188 0.929 . S
H252 C189 0.961 . S
H253 C189 0.959 . S
H254 C189 0.959 . S
H255 C190 0.960 . S
H256 C190 0.962 . S
H257 C190 0.961 . S
H258 C192 0.929 . S
H259 C195 0.930 . S
H260 C196 0.929 . S
H261 C199 0.930 . S
H262 C202 0.929 . S
H263 C203 0.930 . S
H264 C207 0.962 . S
H265 C207 0.959 . S
H266 C207 0.958 . S
C267 C268 1.560 . S
C267 H328 0.959 . S
C267 H329 0.959 . S
C267 H330 0.960 . S
C268 C267 1.560 . S
C268 O323 1.426 . S
C268 H327 0.980 . S
C269 C270 1.407 . S
C269 C274 1.418 . S
C269 O323 1.334 . S
C270 C269 1.407 . S
C270 C271 1.360 . S
C270 H331 0.929 . S
C271 C270 1.360 . S
C271 C272 1.401 . S
C271 C275 1.527 . S
C272 C271 1.401 . S
C272 C273 1.405 . S
C272 C305 1.587 . S
C273 C272 1.405 . S
C273 C274 1.332 . S
C273 C276 1.496 . S
C274 C269 1.418 . S
C274 C273 1.332 . S
C274 H332 0.929 . S
C275 C271 1.527 . S
C275 H333 0.959 . S
C275 H334 0.961 . S
C275 H335 0.961 . S
C276 C273 1.496 . S
C276 H336 0.960 . S
C276 H337 0.960 . S
C276 H338 0.961 . S
C277 C278 1.517 . S
C277 H340 0.961 . S
C277 H341 0.960 . S
C277 H342 0.959 . S
C278 C277 1.517 . S
C278 O326 1.468 . S
C278 H339 0.980 . S
C279 C280 1.349 . S
C279 C284 1.367 . S
C279 O326 1.408 . S
C280 C279 1.349 . S
C280 C281 1.407 . S
C280 H343 0.930 . S
C281 C280 1.407 . S
C281 C282 1.449 . S
C281 C285 1.535 . S
C282 C281 1.449 . S
C282 C283 1.384 . S
C282 C307 1.553 . S
C283 C282 1.384 . S
C283 C284 1.364 . S
C283 C286 1.450 . S
C284 C279 1.367 . S
C284 C283 1.364 . S
C284 H344 0.931 . S
C285 C281 1.535 . S
C285 H345 0.959 . S
C285 H346 0.961 . S
C285 H347 0.959 . S
C286 C283 1.450 . S
C286 H348 0.960 . S
C286 H349 0.960 . S
C286 H350 0.960 . S
C287 C288 1.309 . S
C287 C292 1.304 . S
C287 O325 1.435 . S
C288 C287 1.309 . S
C288 C289 1.476 . S
C288 H352 0.930 . S
C289 C288 1.476 . S
C289 C290 1.400 . S
C289 C293 1.567 . S
C290 C289 1.400 . S
C290 C291 1.373 . S
C290 C312 1.432 . S
C291 C290 1.373 . S
C291 C292 1.339 . S
C291 C294 1.530 . S
C292 C287 1.304 . S
C292 C291 1.339 . S
C292 H353 0.930 . S
C293 C289 1.567 . S
C293 H354 0.961 . S
C293 H355 0.960 . S
C293 H356 0.958 . S
C294 C291 1.530 . S
C294 H357 0.961 . S
C294 H358 0.960 . S
C294 H359 0.960 . S
C295 C296 1.530 . S
C295 H361 0.961 . S
C295 H362 0.961 . S
C295 H363 0.959 . S
C296 C295 1.530 . S
C296 O324 1.412 . S
C296 H360 0.980 . S
C297 C298 1.288 . S
C297 C302 1.377 . S
C297 O324 1.393 . S
C298 C297 1.288 . S
C298 C299 1.369 . S
C298 H364 0.932 . S
C299 C298 1.369 . S
C299 C300 1.398 . S
C299 C303 1.527 . S
C300 C299 1.398 . S
C300 C301 1.380 . S
C300 C314 1.497 . S
C301 C300 1.380 . S
C301 C302 1.383 . S
C301 C304 1.603 . S
C302 C297 1.377 . S
C302 C301 1.383 . S
C302 H365 0.929 . S
C303 C299 1.527 . S
C303 H366 0.961 . S
C303 H367 0.959 . S
C303 H368 0.959 . S
C304 C301 1.603 . S
C304 H369 0.960 . S
C304 H370 0.962 . S
C304 H371 0.961 . S
C305 C272 1.587 . S
C305 C306 1.360 . S
C305 C318 1.412 . S
C306 C305 1.360 . S
C306 C307 1.365 . S
C306 H372 0.929 . S
C307 C282 1.553 . S
C307 C306 1.365 . S
C307 C308 1.404 . S
C308 C307 1.404 . S
C308 C309 1.395 . S
C308 C319 1.451 . S
C309 C308 1.395 . S
C309 C310 1.322 . S
C309 H373 0.930 . S
C310 C309 1.322 . S
C310 C311 1.459 . S
C310 H374 0.929 . S
C311 C310 1.459 . S
C311 C312 1.445 . S
C311 C320 1.395 . S
C312 C290 1.432 . S
C312 C311 1.445 . S
C312 C313 1.370 . S
C313 C312 1.370 . S
C313 C314 1.438 . S
C313 H375 0.930 . S
C314 C300 1.497 . S
C314 C313 1.438 . S
C314 C315 1.360 . S
C315 C314 1.360 . S
C315 C316 1.401 . S
C315 C320 1.446 . S
C316 C315 1.401 . S
C316 C317 1.347 . S
C316 H376 0.929 . S
C317 C316 1.347 . S
C317 C318 1.455 . S
C317 H377 0.930 . S
C318 C305 1.412 . S
C318 C317 1.455 . S
C318 C319 1.331 . S
C319 C308 1.451 . S
C319 C318 1.331 . S
C319 C320 1.497 . S
C320 C311 1.395 . S
C320 C315 1.446 . S
C320 C319 1.497 . S
C321 C322 1.582 . S
C321 H378 0.962 . S
C321 H379 0.959 . S
C321 H380 0.958 . S
C322 C321 1.582 . S
C322 O325 1.458 . S
C322 H351 0.980 . S
O323 C268 1.426 . S
O323 C269 1.334 . S
O324 C296 1.412 . S
O324 C297 1.393 . S
O325 C287 1.435 . S
O325 C322 1.458 . S
O326 C278 1.468 . S
O326 C279 1.408 . S
H327 C268 0.980 . S
H328 C267 0.959 . S
H329 C267 0.959 . S
H330 C267 0.960 . S
H331 C270 0.929 . S
H332 C274 0.929 . S
H333 C275 0.959 . S
H334 C275 0.961 . S
H335 C275 0.961 . S
H336 C276 0.960 . S
H337 C276 0.960 . S
H338 C276 0.961 . S
H339 C278 0.980 . S
H340 C277 0.961 . S
H341 C277 0.960 . S
H342 C277 0.959 . S
H343 C280 0.930 . S
H344 C284 0.931 . S
H345 C285 0.959 . S
H346 C285 0.961 . S
H347 C285 0.959 . S
H348 C286 0.960 . S
H349 C286 0.960 . S
H350 C286 0.960 . S
H351 C322 0.980 . S
H352 C288 0.930 . S
H353 C292 0.930 . S
H354 C293 0.961 . S
H355 C293 0.960 . S
H356 C293 0.958 . S
H357 C294 0.961 . S
H358 C294 0.960 . S
H359 C294 0.960 . S
H360 C296 0.980 . S
H361 C295 0.961 . S
H362 C295 0.961 . S
H363 C295 0.959 . S
H364 C298 0.932 . S
H365 C302 0.929 . S
H366 C303 0.961 . S
H367 C303 0.959 . S
H368 C303 0.959 . S
H369 C304 0.960 . S
H370 C304 0.962 . S
H371 C304 0.961 . S
H372 C306 0.929 . S
H373 C309 0.930 . S
H374 C310 0.929 . S
H375 C313 0.930 . S
H376 C316 0.929 . S
H377 C317 0.930 . S
H378 C321 0.962 . S
H379 C321 0.959 . S
H380 C321 0.958 . S
H381 C389 0.929 . S
H382 C391 0.930 . S
H383 C393 0.930 . S
H384 C396 0.929 . S
H385 C399 0.930 . S
H386 C401 0.960 . S
H387 C401 0.960 . S
H388 C401 0.960 . S
C389 H381 0.929 . S
C389 C390 1.377 1_655 S
C389 C391 1.384 . S
C390 C389 1.377 1_455 S
C390 C396 1.390 . S
C391 H382 0.930 . S
C391 C389 1.384 . S
C391 C392 1.372 1_655 S
C392 C391 1.372 1_455 S
C392 C393 1.400 . S
C392 C397 1.490 . S
C393 H383 0.930 . S
C393 C392 1.400 . S
C393 C396 1.386 . S
H394 C410 0.930 . S
H395 C411 0.931 . S
C396 H384 0.929 . S
C396 C390 1.390 . S
C396 C393 1.386 . S
C397 C392 1.490 . S
C397 C399 1.395 . S
C397 C400 1.403 1_455 S
H398 C404 0.930 . S
C399 H385 0.930 . S
C399 C397 1.395 . S
C399 C402 1.403 . S
C400 C397 1.403 1_655 S
C400 C401 1.524 . S
C400 C404 1.400 . S
C401 H386 0.960 . S
C401 H387 0.960 . S
C401 H388 0.960 . S
C401 C400 1.524 . S
C402 C399 1.403 . S
C402 C403 1.392 . S
C402 C406 1.495 . S
C403 C402 1.392 . S
C403 C404 1.385 1_455 S
C403 C405 1.478 . S
C404 H398 0.930 . S
C404 C400 1.400 . S
C404 C403 1.385 1_655 S
C405 C403 1.478 . S
C405 C407 1.381 1_455 S
C405 C411 1.383 . S
C406 C402 1.495 . S
C406 H412 0.959 . S
C406 H413 0.961 . S
C406 H414 0.960 . S
C407 C405 1.381 1_655 S
C407 C408 1.394 . S
C407 H415 0.930 . S
C408 C407 1.394 . S
C408 C409 1.383 1_655 S
C408 H416 0.929 . S
C409 C408 1.383 1_455 S
C409 C410 1.377 . S
C410 H394 0.930 . S
C410 C409 1.377 . S
C410 C411 1.379 . S
C411 H395 0.931 . S
C411 C405 1.383 . S
C411 C410 1.379 . S
H412 C406 0.959 . S
H413 C406 0.961 . S
H414 C406 0.960 . S
H415 C407 0.930 . S
H416 C408 0.929 . S
H417 C425 0.929 . S
H418 C427 0.930 . S
H419 C429 0.930 . S
H420 C432 0.929 . S
H421 C435 0.930 . S
H422 C437 0.960 . S
H423 C437 0.960 . S
H424 C437 0.960 . S
C425 H417 0.929 . S
C425 C426 1.377 . S
C425 C427 1.384 . S
C426 C425 1.377 . S
C426 C432 1.390 . S
C427 H418 0.930 . S
C427 C425 1.384 . S
C427 C428 1.372 . S
C428 C427 1.372 . S
C428 C429 1.400 . S
C428 C433 1.490 . S
C429 H419 0.930 . S
C429 C428 1.400 . S
C429 C432 1.386 . S
H430 C446 0.930 . S
H431 C447 0.931 . S
C432 H420 0.929 . S
C432 C426 1.390 . S
C432 C429 1.386 . S
C433 C428 1.490 . S
C433 C435 1.395 . S
C433 C436 1.403 . S
H434 C440 0.930 . S
C435 H421 0.930 . S
C435 C433 1.395 . S
C435 C438 1.403 . S
C436 C433 1.403 . S
C436 C437 1.524 . S
C436 C440 1.400 . S
C437 H422 0.960 . S
C437 H423 0.960 . S
C437 H424 0.960 . S
C437 C436 1.524 . S
C438 C435 1.403 . S
C438 C439 1.392 . S
C438 C442 1.495 1_545 S
C439 C438 1.392 . S
C439 C440 1.385 . S
C439 C441 1.478 . S
C440 H434 0.930 . S
C440 C436 1.400 . S
C440 C439 1.385 . S
C441 C439 1.478 . S
C441 C443 1.381 . S
C441 C447 1.383 . S
C442 C438 1.495 1_565 S
C442 H448 0.959 . S
C442 H449 0.961 . S
C442 H450 0.960 1_565 S
C443 C441 1.381 . S
C443 C444 1.394 . S
C443 H451 0.930 . S
C444 C443 1.394 . S
C444 C445 1.383 . S
C444 H452 0.929 . S
C445 C444 1.383 . S
C445 C446 1.377 . S
C446 H430 0.930 . S
C446 C445 1.377 . S
C446 C447 1.379 . S
C447 H431 0.931 . S
C447 C441 1.383 . S
C447 C446 1.379 . S
H448 C442 0.959 . S
H449 C442 0.961 . S
H450 C442 0.960 1_545 S
H451 C443 0.930 . S
H452 C444 0.929 . S
H453 C461 0.929 . S
H454 C463 0.930 . S
H455 C465 0.930 . S
H456 C468 0.929 . S
H457 C471 0.930 . S
H458 C473 0.960 . S
H459 C473 0.960 . S
H460 C473 0.960 . S
C461 H453 0.929 . S
C461 C462 1.377 . S
C461 C463 1.384 . S
C462 C461 1.377 . S
C462 C468 1.390 . S
C463 H454 0.930 . S
C463 C461 1.384 . S
C463 C464 1.372 . S
C464 C463 1.372 . S
C464 C465 1.400 . S
C464 C469 1.490 . S
C465 H455 0.930 . S
C465 C464 1.400 . S
C465 C468 1.386 . S
H466 C482 0.930 . S
H467 C483 0.931 . S
C468 H456 0.929 . S
C468 C462 1.390 . S
C468 C465 1.386 . S
C469 C464 1.490 . S
C469 C471 1.395 . S
C469 C472 1.403 . S
H470 C476 0.930 . S
C471 H457 0.930 . S
C471 C469 1.395 . S
C471 C474 1.403 . S
C472 C469 1.403 . S
C472 C473 1.524 . S
C472 C476 1.400 . S
C473 H458 0.960 . S
C473 H459 0.960 . S
C473 H460 0.960 . S
C473 C472 1.524 . S
C474 C471 1.403 . S
C474 C475 1.392 . S
C474 C478 1.495 . S
C475 C474 1.392 . S
C475 C476 1.385 . S
C475 C477 1.478 . S
C476 H470 0.930 . S
C476 C472 1.400 . S
C476 C475 1.385 . S
C477 C475 1.478 . S
C477 C479 1.381 . S
C477 C483 1.383 . S
C478 C474 1.495 . S
C478 H484 0.959 . S
C478 H485 0.961 . S
C478 H486 0.960 . S
C479 C477 1.381 . S
C479 C480 1.394 . S
C479 H487 0.930 . S
C480 C479 1.394 . S
C480 C481 1.383 . S
C480 H488 0.929 . S
C481 C480 1.383 . S
C481 C482 1.377 . S
C482 H466 0.930 . S
C482 C481 1.377 . S
C482 C483 1.379 . S
C483 H467 0.931 . S
C483 C477 1.383 . S
C483 C482 1.379 . S
H484 C478 0.959 . S
H485 C478 0.961 . S
H486 C478 0.960 . S
H487 C479 0.930 . S
H488 C480 0.929 . S
H489 C497 0.929 . S
H490 C499 0.930 . S
H491 C501 0.930 . S
H492 C504 0.929 . S
H493 C507 0.930 . S
H494 C509 0.960 . S
H495 C509 0.960 . S
H496 C509 0.960 . S
C497 H489 0.929 . S
C497 C498 1.377 . S
C497 C499 1.384 . S
C498 C497 1.377 . S
C498 C504 1.390 1_455 S
C499 H490 0.930 . S
C499 C497 1.384 . S
C499 C500 1.372 . S
C500 C499 1.372 . S
C500 C501 1.400 1_455 S
C500 C505 1.490 . S
C501 H491 0.930 . S
C501 C500 1.400 1_655 S
C501 C504 1.386 . S
H502 C518 0.930 . S
H503 C519 0.931 . S
C504 H492 0.929 . S
C504 C498 1.390 1_655 S
C504 C501 1.386 . S
C505 C500 1.490 . S
C505 C507 1.395 . S
C505 C508 1.403 1_455 S
H506 C512 0.930 . S
C507 H493 0.930 . S
C507 C505 1.395 . S
C507 C510 1.403 . S
C508 C505 1.403 1_655 S
C508 C509 1.524 . S
C508 C512 1.400 . S
C509 H494 0.960 . S
C509 H495 0.960 . S
C509 H496 0.960 . S
C509 C508 1.524 . S
C510 C507 1.403 . S
C510 C511 1.392 . S
C510 C514 1.495 . S
C511 C510 1.392 . S
C511 C512 1.385 1_455 S
C511 C513 1.478 . S
C512 H506 0.930 . S
C512 C508 1.400 . S
C512 C511 1.385 1_655 S
C513 C511 1.478 . S
C513 C515 1.381 . S
C513 C519 1.383 1_455 S
C514 C510 1.495 . S
C514 H520 0.959 . S
C514 H521 0.961 . S
C514 H522 0.960 . S
C515 C513 1.381 . S
C515 C516 1.394 . S
C515 H523 0.930 . S
C516 C515 1.394 . S
C516 C517 1.383 . S
C516 H524 0.929 . S
C517 C516 1.383 . S
C517 C518 1.377 1_455 S
C518 H502 0.930 . S
C518 C517 1.377 1_655 S
C518 C519 1.379 . S
C519 H503 0.931 . S
C519 C513 1.383 1_655 S
C519 C518 1.379 . S
H520 C514 0.959 . S
H521 C514 0.961 . S
H522 C514 0.960 . S
H523 C515 0.930 . S
H524 C516 0.929 . S
H525 C533 0.929 1_565 S
H526 C535 0.930 1_565 S
H527 C537 0.930 . S
H528 C540 0.929 . S
H529 C543 0.930 . S
H530 C545 0.960 . S
H531 C545 0.960 . S
H532 C545 0.960 . S
C533 H525 0.929 1_545 S
C533 C534 1.377 . S
C533 C535 1.384 . S
C534 C533 1.377 . S
C534 C540 1.390 . S
C535 H526 0.930 1_545 S
C535 C533 1.384 . S
C535 C536 1.372 . S
C536 C535 1.372 . S
C536 C537 1.400 . S
C536 C541 1.490 . S
C537 H527 0.930 . S
C537 C536 1.400 . S
C537 C540 1.386 . S
H538 C554 0.930 . S
H539 C555 0.931 . S
C540 H528 0.929 . S
C540 C534 1.390 . S
C540 C537 1.386 . S
C541 C536 1.490 . S
C541 C543 1.395 . S
C541 C544 1.403 . S
H542 C548 0.930 . S
C543 H529 0.930 . S
C543 C541 1.395 . S
C543 C546 1.403 . S
C544 C541 1.403 . S
C544 C545 1.524 . S
C544 C548 1.400 . S
C545 H530 0.960 . S
C545 H531 0.960 . S
C545 H532 0.960 . S
C545 C544 1.524 . S
C546 C543 1.403 . S
C546 C547 1.392 . S
C546 C550 1.495 1_545 S
C547 C546 1.392 . S
C547 C548 1.385 . S
C547 C549 1.478 . S
C548 H542 0.930 . S
C548 C544 1.400 . S
C548 C547 1.385 . S
C549 C547 1.478 . S
C549 C551 1.381 . S
C549 C555 1.383 . S
C550 C546 1.495 1_565 S
C550 H556 0.959 . S
C550 H557 0.961 1_565 S
C550 H558 0.960 . S
C551 C549 1.381 . S
C551 C552 1.394 . S
C551 H559 0.930 1_545 S
C552 C551 1.394 . S
C552 C553 1.383 . S
C552 H560 0.929 1_545 S
C553 C552 1.383 . S
C553 C554 1.377 . S
C554 H538 0.930 . S
C554 C553 1.377 . S
C554 C555 1.379 . S
C555 H539 0.931 . S
C555 C549 1.383 . S
C555 C554 1.379 . S
H556 C550 0.959 . S
H557 C550 0.961 1_545 S
H558 C550 0.960 . S
H559 C551 0.930 1_565 S
H560 C552 0.929 1_565 S
H561 C569 0.929 . S
H562 C571 0.930 . S
H563 C573 0.930 . S
H564 C576 0.929 . S
H565 C579 0.930 . S
H566 C581 0.960 . S
H567 C581 0.960 . S
H568 C581 0.960 . S
C569 H561 0.929 . S
C569 C570 1.377 . S
C569 C571 1.384 . S
C570 C569 1.377 . S
C570 C576 1.390 . S
C571 H562 0.930 . S
C571 C569 1.384 . S
C571 C572 1.372 . S
C572 C571 1.372 . S
C572 C573 1.400 . S
C572 C577 1.490 . S
C573 H563 0.930 . S
C573 C572 1.400 . S
C573 C576 1.386 . S
H574 C590 0.930 . S
H575 C591 0.931 . S
C576 H564 0.929 . S
C576 C570 1.390 . S
C576 C573 1.386 . S
C577 C572 1.490 . S
C577 C579 1.395 . S
C577 C580 1.403 . S
H578 C584 0.930 . S
C579 H565 0.930 . S
C579 C577 1.395 . S
C579 C582 1.403 . S
C580 C577 1.403 . S
C580 C581 1.524 . S
C580 C584 1.400 . S
C581 H566 0.960 . S
C581 H567 0.960 . S
C581 H568 0.960 . S
C581 C580 1.524 . S
C582 C579 1.403 . S
C582 C583 1.392 . S
C582 C586 1.495 . S
C583 C582 1.392 . S
C583 C584 1.385 . S
C583 C585 1.478 . S
C584 H578 0.930 . S
C584 C580 1.400 . S
C584 C583 1.385 . S
C585 C583 1.478 . S
C585 C587 1.381 . S
C585 C591 1.383 . S
C586 C582 1.495 . S
C586 H592 0.959 . S
C586 H593 0.961 . S
C586 H594 0.960 . S
C587 C585 1.381 . S
C587 C588 1.394 . S
C587 H595 0.930 . S
C588 C587 1.394 . S
C588 C589 1.383 . S
C588 H596 0.929 . S
C589 C588 1.383 . S
C589 C590 1.377 . S
C590 H574 0.930 . S
C590 C589 1.377 . S
C590 C591 1.379 . S
C591 H575 0.931 . S
C591 C585 1.383 . S
C591 C590 1.379 . S
H592 C586 0.959 . S
H593 C586 0.961 . S
H594 C586 0.960 . S
H595 C587 0.930 . S
H596 C588 0.929 . S
H597 C605 0.929 1_565 S
H598 C607 0.930 1_565 S
H599 C609 0.930 . S
H600 C612 0.929 . S
H601 C615 0.930 . S
H602 C617 0.960 . S
H603 C617 0.960 1_565 S
H604 C617 0.960 . S
C605 H597 0.929 1_545 S
C605 C606 1.377 . S
C605 C607 1.384 . S
C606 C605 1.377 . S
C606 C612 1.390 . S
C607 H598 0.930 1_545 S
C607 C605 1.384 . S
C607 C608 1.372 . S
C608 C607 1.372 . S
C608 C609 1.400 . S
C608 C613 1.490 . S
C609 H599 0.930 . S
C609 C608 1.400 . S
C609 C612 1.386 . S
H610 C626 0.930 . S
H611 C627 0.931 . S
C612 H600 0.929 . S
C612 C606 1.390 . S
C612 C609 1.386 . S
C613 C608 1.490 . S
C613 C615 1.395 . S
C613 C616 1.403 . S
H614 C620 0.930 . S
C615 H601 0.930 . S
C615 C613 1.395 . S
C615 C618 1.403 . S
C616 C613 1.403 . S
C616 C617 1.524 . S
C616 C620 1.400 . S
C617 H602 0.960 . S
C617 H603 0.960 1_545 S
C617 H604 0.960 . S
C617 C616 1.524 . S
C618 C615 1.403 . S
C618 C619 1.392 . S
C618 C622 1.495 . S
C619 C618 1.392 . S
C619 C620 1.385 . S
C619 C621 1.478 . S
C620 H614 0.930 . S
C620 C616 1.400 . S
C620 C619 1.385 . S
C621 C619 1.478 . S
C621 C623 1.381 . S
C621 C627 1.383 . S
C622 C618 1.495 . S
C622 H628 0.959 . S
C622 H629 0.961 . S
C622 H630 0.960 . S
C623 C621 1.381 . S
C623 C624 1.394 . S
C623 H631 0.930 1_545 S
C624 C623 1.394 . S
C624 C625 1.383 . S
C624 H632 0.928 1_545 S
C625 C624 1.383 . S
C625 C626 1.377 . S
C626 H610 0.930 . S
C626 C625 1.377 . S
C626 C627 1.379 . S
C627 H611 0.931 . S
C627 C621 1.383 . S
C627 C626 1.379 . S
H628 C622 0.959 . S
H629 C622 0.961 . S
H630 C622 0.960 . S
H631 C623 0.930 1_565 S
H632 C624 0.928 1_565 S
H633 C641 0.929 . S
H634 C643 0.930 . S
H635 C645 0.930 . S
H636 C648 0.929 . S
H637 C651 0.930 . S
H638 C653 0.960 . S
H639 C653 0.960 . S
H640 C653 0.960 . S
C641 H633 0.929 . S
C641 C642 1.377 . S
C641 C643 1.384 1_554 S
C642 C641 1.377 . S
C642 C648 1.390 . S
C643 H634 0.930 . S
C643 C641 1.384 1_556 S
C643 C644 1.372 . S
C644 C643 1.372 . S
C644 C645 1.400 1_556 S
C644 C649 1.489 . S
C645 H635 0.930 . S
C645 C644 1.400 1_554 S
C645 C648 1.386 . S
H646 C662 0.930 . S
H647 C663 0.931 . S
C648 H636 0.929 . S
C648 C642 1.390 . S
C648 C645 1.386 . S
C649 C644 1.489 . S
C649 C651 1.395 . S
C649 C652 1.403 . S
H650 C656 0.930 . S
C651 H637 0.930 . S
C651 C649 1.395 . S
C651 C654 1.403 . S
C652 C649 1.403 . S
C652 C653 1.524 . S
C652 C656 1.400 . S
C653 H638 0.960 . S
C653 H639 0.960 . S
C653 H640 0.960 . S
C653 C652 1.524 . S
C654 C651 1.403 . S
C654 C655 1.392 . S
C654 C658 1.495 . S
C655 C654 1.392 . S
C655 C656 1.385 . S
C655 C657 1.478 . S
C656 H650 0.930 . S
C656 C652 1.400 . S
C656 C655 1.385 . S
C657 C655 1.478 . S
C657 C659 1.381 . S
C657 C663 1.383 . S
C658 C654 1.495 . S
C658 H664 0.959 . S
C658 H665 0.961 . S
C658 H666 0.960 . S
C659 C657 1.381 . S
C659 C660 1.394 . S
C659 H667 0.930 . S
C660 C659 1.394 . S
C660 C661 1.383 . S
C660 H668 0.929 . S
C661 C660 1.383 . S
C661 C662 1.377 . S
C662 H646 0.930 . S
C662 C661 1.377 . S
C662 C663 1.379 . S
C663 H647 0.931 . S
C663 C657 1.383 . S
C663 C662 1.379 . S
H664 C658 0.959 . S
H665 C658 0.961 . S
H666 C658 0.960 . S
H667 C659 0.930 . S
H668 C660 0.929 . S
H669 C677 0.929 . S
H670 C679 0.930 . S
H671 C681 0.930 . S
H672 C684 0.929 . S
H673 C687 0.930 . S
H674 C689 0.960 . S
H675 C689 0.960 . S
H676 C689 0.960 . S
C677 H669 0.929 . S
C677 C678 1.377 1_655 S
C677 C679 1.384 . S
C678 C677 1.377 1_455 S
C678 C684 1.390 . S
C679 H670 0.930 . S
C679 C677 1.384 . S
C679 C680 1.372 1_655 S
C680 C679 1.372 1_455 S
C680 C681 1.400 . S
C680 C685 1.490 . S
C681 H671 0.930 . S
C681 C680 1.400 . S
C681 C684 1.386 . S
H682 C698 0.930 . S
H683 C699 0.931 . S
C684 H672 0.929 . S
C684 C678 1.390 . S
C684 C681 1.386 . S
C685 C680 1.490 . S
C685 C687 1.395 1_455 S
C685 C688 1.403 . S
H686 C692 0.930 . S
C687 H673 0.930 . S
C687 C685 1.395 1_655 S
C687 C690 1.403 . S
C688 C685 1.403 . S
C688 C689 1.524 . S
C688 C692 1.400 . S
C689 H674 0.960 . S
C689 H675 0.960 . S
C689 H676 0.960 . S
C689 C688 1.524 . S
C690 C687 1.403 . S
C690 C691 1.392 1_655 S
C690 C694 1.495 . S
C691 C690 1.392 1_455 S
C691 C692 1.385 . S
C691 C693 1.478 . S
C692 H686 0.930 . S
C692 C688 1.400 . S
C692 C691 1.385 . S
C693 C691 1.478 . S
C693 C695 1.381 1_455 S
C693 C699 1.383 . S
C694 C690 1.495 . S
C694 H700 0.959 . S
C694 H701 0.961 . S
C694 H702 0.960 . S
C695 C693 1.381 1_655 S
C695 C696 1.394 . S
C695 H703 0.930 . S
C696 C695 1.394 . S
C696 C697 1.383 1_655 S
C696 H704 0.929 . S
C697 C696 1.383 1_455 S
C697 C698 1.377 . S
C698 H682 0.930 . S
C698 C697 1.377 . S
C698 C699 1.379 . S
C699 H683 0.931 . S
C699 C693 1.383 . S
C699 C698 1.379 . S
H700 C694 0.959 . S
H701 C694 0.961 . S
H702 C694 0.960 . S
H703 C695 0.930 . S
H704 C696 0.929 . S
H705 C713 0.929 . S
H706 C715 0.930 . S
H707 C717 0.930 1_565 S
H708 C720 0.929 1_565 S
H709 C723 0.930 . S
H710 C725 0.960 . S
H711 C725 0.960 . S
H712 C725 0.960 . S
C713 H705 0.929 . S
C713 C714 1.377 . S
C713 C715 1.384 . S
C714 C713 1.377 . S
C714 C720 1.390 . S
C715 H706 0.930 . S
C715 C713 1.384 . S
C715 C716 1.372 . S
C716 C715 1.372 . S
C716 C717 1.400 . S
C716 C721 1.490 . S
C717 H707 0.930 1_545 S
C717 C716 1.400 . S
C717 C720 1.386 . S
H718 C734 0.930 1_565 S
H719 C735 0.931 1_565 S
C720 H708 0.929 1_545 S
C720 C714 1.390 . S
C720 C717 1.386 . S
C721 C716 1.490 . S
C721 C723 1.395 . S
C721 C724 1.403 . S
H722 C728 0.930 1_565 S
C723 H709 0.930 . S
C723 C721 1.395 . S
C723 C726 1.403 . S
C724 C721 1.403 . S
C724 C725 1.524 1_545 S
C724 C728 1.400 . S
C725 H710 0.960 . S
C725 H711 0.960 . S
C725 H712 0.960 . S
C725 C724 1.524 1_565 S
C726 C723 1.403 . S
C726 C727 1.392 . S
C726 C730 1.495 . S
C727 C726 1.392 . S
C727 C728 1.385 . S
C727 C729 1.478 . S
C728 H722 0.930 1_545 S
C728 C724 1.400 . S
C728 C727 1.385 . S
C729 C727 1.478 . S
C729 C731 1.381 . S
C729 C735 1.383 . S
C730 C726 1.495 . S
C730 H736 0.959 . S
C730 H737 0.961 . S
C730 H738 0.960 . S
C731 C729 1.381 . S
C731 C732 1.394 . S
C731 H739 0.930 . S
C732 C731 1.394 . S
C732 C733 1.383 . S
C732 H740 0.929 . S
C733 C732 1.383 . S
C733 C734 1.377 . S
C734 H718 0.930 1_545 S
C734 C733 1.377 . S
C734 C735 1.379 . S
C735 H719 0.931 1_545 S
C735 C729 1.383 . S
C735 C734 1.379 . S
H736 C730 0.959 . S
H737 C730 0.961 . S
H738 C730 0.960 . S
H739 C731 0.930 . S
H740 C732 0.929 . S
H741 C749 0.929 . S
H742 C751 0.958 . S
H743 C753 0.930 . S
H744 C756 0.929 . S
H745 C759 0.930 . S
H746 C761 0.960 . S
H747 C761 0.960 . S
H748 C761 0.960 . S
C749 H741 0.929 . S
C749 C750 1.377 . S
C749 C751 1.354 1_554 S
C750 C749 1.377 . S
C750 C756 1.390 . S
C751 H742 0.958 . S
C751 C749 1.354 1_556 S
C751 C752 1.376 . S
C752 C751 1.376 . S
C752 C753 1.400 1_556 S
C752 C757 1.490 . S
C753 H743 0.930 . S
C753 C752 1.400 1_554 S
C753 C756 1.386 . S
H754 C770 0.930 . S
H755 C771 0.931 . S
C756 H744 0.929 . S
C756 C750 1.390 . S
C756 C753 1.386 . S
C757 C752 1.490 . S
C757 C759 1.395 . S
C757 C760 1.403 . S
H758 C764 0.930 . S
C759 H745 0.930 . S
C759 C757 1.395 . S
C759 C762 1.403 . S
C760 C757 1.403 . S
C760 C761 1.524 1_556 S
C760 C764 1.400 . S
C761 H746 0.960 . S
C761 H747 0.960 . S
C761 H748 0.960 . S
C761 C760 1.524 1_554 S
C762 C759 1.403 . S
C762 C763 1.392 . S
C762 C766 1.495 . S
C763 C762 1.392 . S
C763 C764 1.385 . S
C763 C765 1.478 . S
C764 H758 0.930 . S
C764 C760 1.400 . S
C764 C763 1.385 . S
C765 C763 1.478 . S
C765 C767 1.381 . S
C765 C771 1.383 . S
C766 C762 1.495 . S
C766 H772 0.959 . S
C766 H773 0.961 . S
C766 H774 0.960 . S
C767 C765 1.381 . S
C767 C768 1.394 . S
C767 H775 0.930 . S
C768 C767 1.394 . S
C768 C769 1.383 . S
C768 H776 0.929 . S
C769 C768 1.383 . S
C769 C770 1.377 . S
C770 H754 0.930 . S
C770 C769 1.377 . S
C770 C771 1.379 . S
C771 H755 0.931 . S
C771 C765 1.383 . S
C771 C770 1.379 . S
H772 C766 0.959 . S
H773 C766 0.961 . S
H774 C766 0.960 . S
H775 C767 0.930 . S
H776 C768 0.929 . S
H777 C785 0.929 . S
H778 C787 0.930 . S
H779 C789 0.930 . S
H780 C792 0.929 . S
H781 C795 0.930 . S
H782 C797 0.960 . S
H783 C797 0.960 . S
H784 C797 0.960 . S
C785 H777 0.929 . S
C785 C786 1.377 . S
C785 C787 1.384 . S
C786 C785 1.377 . S
C786 C792 1.390 1_455 S
C787 H778 0.930 . S
C787 C785 1.384 . S
C787 C788 1.372 . S
C788 C787 1.372 . S
C788 C789 1.400 1_455 S
C788 C793 1.490 . S
C789 H779 0.930 . S
C789 C788 1.400 1_655 S
C789 C792 1.386 . S
H790 C806 0.930 . S
H791 C807 0.931 . S
C792 H780 0.929 . S
C792 C786 1.390 1_655 S
C792 C789 1.386 . S
C793 C788 1.490 . S
C793 C795 1.395 . S
C793 C796 1.403 . S
H794 C800 0.930 . S
C795 H781 0.930 . S
C795 C793 1.395 . S
C795 C798 1.403 . S
C796 C793 1.403 . S
C796 C797 1.524 . S
C796 C800 1.400 . S
C797 H782 0.960 . S
C797 H783 0.960 . S
C797 H784 0.960 . S
C797 C796 1.524 . S
C798 C795 1.403 . S
C798 C799 1.392 . S
C798 C802 1.495 . S
C799 C798 1.392 . S
C799 C800 1.385 . S
C799 C801 1.478 . S
C800 H794 0.930 . S
C800 C796 1.400 . S
C800 C799 1.385 . S
C801 C799 1.478 . S
C801 C803 1.381 . S
C801 C807 1.383 1_455 S
C802 C798 1.495 . S
C802 H808 0.959 . S
C802 H809 0.961 1_455 S
C802 H810 0.960 . S
C803 C801 1.381 . S
C803 C804 1.394 . S
C803 H811 0.930 . S
C804 C803 1.394 . S
C804 C805 1.383 . S
C804 H812 0.929 . S
C805 C804 1.383 . S
C805 C806 1.377 1_455 S
C806 H790 0.930 . S
C806 C805 1.377 1_655 S
C806 C807 1.379 . S
C807 H791 0.931 . S
C807 C801 1.383 1_655 S
C807 C806 1.379 . S
H808 C802 0.959 . S
H809 C802 0.961 1_655 S
H810 C802 0.960 . S
H811 C803 0.930 . S
H812 C804 0.929 . S
C409 C94 1.105 . S
C390 C10 1.621 . S
C426 C17 1.630 . S
C445 C208 1.241 . S
C462 C36 1.366 . S
C481 C268 1.109 . S
C498 C5 1.462 . S
C517 C68 1.167 . S
C553 C182 1.166 . S
C534 C16 1.471 . S
C570 C31 1.535 . S
C589 C278 0.915 . S
C625 C164 0.897 . S
C606 C30 1.537 . S
C642 C3 1.464 . S
C661 C296 1.123 . S
C697 C40 1.122 1_455 S
C678 C18 1.367 . S
C733 C154 1.089 . S
C714 C29 1.370 . S
C769 C322 1.132 . S
C750 C4 1.626 . S
C786 C23 1.525 . S
C805 C50 1.025 . S
