# Generated by pormake.
# Topology pyr, (3,6)-cn, num edge types: 1
# Building blocks:
#     Node 0, Type 0, BuildingBlock: QEWDON_clean_linker_0, # of connection points: 3
#     Node 1, Type 0, BuildingBlock: QEWDON_clean_linker_0, # of connection points: 3
#     Node 2, Type 0, BuildingBlock: QEWDON_clean_linker_0, # of connection points: 3
#     Node 3, Type 0, BuildingBlock: QEWDON_clean_linker_0, # of connection points: 3
#     Node 4, Type 0, BuildingBlock: QEWDON_clean_linker_0, # of connection points: 3
#     Node 5, Type 0, BuildingBlock: QEWDON_clean_linker_0, # of connection points: 3
#     Node 6, Type 0, BuildingBlock: QEWDON_clean_linker_0, # of connection points: 3
#     Node 7, Type 0, BuildingBlock: QEWDON_clean_linker_0, # of connection points: 3
#     Node 8, Type 1, BuildingBlock: GEDQOX_clean_sbu_0, # of connection points: 6
#     Node 9, Type 1, BuildingBlock: GEDQOX_clean_sbu_0, # of connection points: 6
#     Node 10, Type 1, BuildingBlock: GEDQOX_clean_sbu_0, # of connection points: 6
#     Node 11, Type 1, BuildingBlock: GEDQOX_clean_sbu_0, # of connection points: 6
#     Edge 12, Type (0, 1), BuildingBlock: ZUJKAS_clean_linker_0, # of connection points: 2
#     Edge 13, Type (0, 1), BuildingBlock: ZUJKAS_clean_linker_0, # of connection points: 2
#     Edge 14, Type (0, 1), BuildingBlock: ZUJKAS_clean_linker_0, # of connection points: 2
#     Edge 15, Type (0, 1), BuildingBlock: ZUJKAS_clean_linker_0, # of connection points: 2
#     Edge 16, Type (0, 1), BuildingBlock: ZUJKAS_clean_linker_0, # of connection points: 2
#     Edge 17, Type (0, 1), BuildingBlock: ZUJKAS_clean_linker_0, # of connection points: 2
#     Edge 18, Type (0, 1), BuildingBlock: ZUJKAS_clean_linker_0, # of connection points: 2
#     Edge 19, Type (0, 1), BuildingBlock: ZUJKAS_clean_linker_0, # of connection points: 2
#     Edge 20, Type (0, 1), BuildingBlock: ZUJKAS_clean_linker_0, # of connection points: 2
#     Edge 21, Type (0, 1), BuildingBlock: ZUJKAS_clean_linker_0, # of connection points: 2
#     Edge 22, Type (0, 1), BuildingBlock: ZUJKAS_clean_linker_0, # of connection points: 2
#     Edge 23, Type (0, 1), BuildingBlock: ZUJKAS_clean_linker_0, # of connection points: 2
#     Edge 24, Type (0, 1), BuildingBlock: ZUJKAS_clean_linker_0, # of connection points: 2
#     Edge 25, Type (0, 1), BuildingBlock: ZUJKAS_clean_linker_0, # of connection points: 2
#     Edge 26, Type (0, 1), BuildingBlock: ZUJKAS_clean_linker_0, # of connection points: 2
#     Edge 27, Type (0, 1), BuildingBlock: ZUJKAS_clean_linker_0, # of connection points: 2
#     Edge 28, Type (0, 1), BuildingBlock: ZUJKAS_clean_linker_0, # of connection points: 2
#     Edge 29, Type (0, 1), BuildingBlock: ZUJKAS_clean_linker_0, # of connection points: 2
#     Edge 30, Type (0, 1), BuildingBlock: ZUJKAS_clean_linker_0, # of connection points: 2
#     Edge 31, Type (0, 1), BuildingBlock: ZUJKAS_clean_linker_0, # of connection points: 2
#     Edge 32, Type (0, 1), BuildingBlock: ZUJKAS_clean_linker_0, # of connection points: 2
#     Edge 33, Type (0, 1), BuildingBlock: ZUJKAS_clean_linker_0, # of connection points: 2
#     Edge 34, Type (0, 1), BuildingBlock: ZUJKAS_clean_linker_0, # of connection points: 2
#     Edge 35, Type (0, 1), BuildingBlock: ZUJKAS_clean_linker_0, # of connection points: 2
# Relax obj value: 0.193
# Max RMSD: 0.287
# Mean RMSD: 0.202
data_MOF--net-pyr--node1-GEDQOX_clean_sbu_0--node2-QEWDON_clean_linker_0--edge1-ZUJKAS_clean_linker_0
_symmetry_space_group_name_H-M    P1
_symmetry_Int_Tables_number       1
_symmetry_cell_setting            triclinic
loop_
_symmetry_equiv_pos_as_xyz
'x, y, z'
_cell_length_a     50.765898
_cell_length_b     50.943145
_cell_length_c     49.33872
_cell_angle_alpha  88.926651
_cell_angle_beta   93.552464
_cell_angle_gamma 99.396602
loop_
_atom_site_label
_atom_site_type_symbol
_atom_site_fract_x
_atom_site_fract_y
_atom_site_fract_z
_atom_type_partial_charge
H0 H 0.24763 0.22396 0.17037 0.0
C1 C 0.23677 0.21413 0.18691 0.0
C2 C 0.24513 0.19023 0.19832 0.0
C3 C 0.21601 0.22693 0.19733 0.0
H4 H 0.23708 0.16156 0.23112 0.0
C5 C 0.23115 0.1792 0.2218 0.0
C6 C 0.21 0.19056 0.23364 0.0
C7 C 0.20314 0.21442 0.22047 0.0
C8 C 0.21417 0.25683 0.18929 0.0
H9 H 0.18819 0.22425 0.22879 0.0
C10 C 0.19211 0.26898 0.17567 0.0
C11 C 0.19492 0.29793 0.16967 0.0
C12 C 0.23757 0.27456 0.19664 0.0
H13 H 0.25448 0.26723 0.20689 0.0
C14 C 0.24005 0.3018 0.19158 0.0
H15 H 0.17365 0.25623 0.16935 0.0
C16 C 0.21946 0.31311 0.17851 0.0
H17 H 0.22299 0.33445 0.17515 0.0
H18 H 0.25856 0.31454 0.19788 0.0
H19 H 0.37583 0.82767 0.80844 0.0
C20 C 0.38933 0.81649 0.79923 0.0
C21 C 0.417 0.82198 0.80616 0.0
C22 C 0.37875 0.79604 0.78123 0.0
H23 H 0.45554 0.81115 0.79894 0.0
C24 C 0.43423 0.8073 0.79368 0.0
C25 C 0.42364 0.7865 0.77561 0.0
C26 C 0.39588 0.78111 0.76967 0.0
C27 C 0.34956 0.78876 0.77593 0.0
H28 H 0.38746 0.76519 0.75584 0.0
C29 C 0.33473 0.80587 0.7612 0.0
C30 C 0.30706 0.79807 0.75515 0.0
C31 C 0.33661 0.76402 0.78503 0.0
H32 H 0.34778 0.7506 0.79636 0.0
C33 C 0.30916 0.75647 0.77971 0.0
H34 H 0.34492 0.82471 0.75368 0.0
C35 C 0.29445 0.7733 0.76488 0.0
H36 H 0.27315 0.76694 0.76109 0.0
H37 H 0.29926 0.73744 0.78698 0.0
H38 H 0.73523 0.52203 0.93789 0.0
C39 C 0.72584 0.50132 0.93806 0.0
C40 C 0.74157 0.48132 0.94277 0.0
C41 C 0.69811 0.49478 0.93292 0.0
H42 H 0.74135 0.43918 0.94697 0.0
C43 C 0.72921 0.45462 0.943 0.0
C44 C 0.70143 0.44767 0.93786 0.0
C45 C 0.68599 0.46795 0.93262 0.0
C46 C 0.68222 0.51609 0.92629 0.0
H47 H 0.6646 0.46295 0.92813 0.0
C48 C 0.66748 0.51591 0.90128 0.0
C49 C 0.65445 0.5374 0.89346 0.0
C50 C 0.6833 0.53762 0.9439 0.0
H51 H 0.69469 0.53814 0.96324 0.0
C52 C 0.6698 0.55871 0.93653 0.0
H53 H 0.66733 0.49968 0.88734 0.0
C54 C 0.6556 0.55875 0.91135 0.0
H55 H 0.64559 0.57547 0.90583 0.0
H56 H 0.67067 0.57524 0.95019 0.0
H57 H 0.83787 0.85013 0.29995 0.0
C58 C 0.83173 0.8318 0.31102 0.0
C59 C 0.84066 0.82939 0.33832 0.0
C60 C 0.81469 0.81065 0.29803 0.0
H61 H 0.83863 0.80418 0.3738 0.0
C62 C 0.83219 0.80573 0.35257 0.0
C63 C 0.81519 0.78436 0.33993 0.0
C64 C 0.80679 0.78691 0.31247 0.0
C65 C 0.80453 0.81334 0.26952 0.0
H66 H 0.79367 0.77062 0.30237 0.0
C67 C 0.80666 0.79371 0.25057 0.0
C68 C 0.7961 0.79528 0.22362 0.0
C69 C 0.79203 0.83504 0.26132 0.0
H70 H 0.79005 0.85036 0.27564 0.0
C71 C 0.78137 0.83675 0.23468 0.0
H72 H 0.8172 0.77754 0.25684 0.0
C73 C 0.78325 0.817 0.21595 0.0
H74 H 0.7745 0.81869 0.19555 0.0
H75 H 0.77147 0.85337 0.22857 0.0
H76 H 0.86225 0.86122 0.91247 0.0
C77 C 0.87134 0.87175 0.89529 0.0
C78 C 0.89462 0.86302 0.88512 0.0
C79 C 0.85866 0.89319 0.88344 0.0
H80 H 0.92234 0.87113 0.85324 0.0
C81 C 0.90507 0.87714 0.86145 0.0
C82 C 0.8937 0.89839 0.84771 0.0
C83 C 0.87046 0.90585 0.85953 0.0
C84 C 0.82915 0.8957 0.89108 0.0
H85 H 0.8604 0.92065 0.84916 0.0
C86 C 0.81833 0.91694 0.90516 0.0
C87 C 0.78949 0.91465 0.91066 0.0
C88 C 0.81026 0.87341 0.88339 0.0
H89 H 0.81648 0.85707 0.87302 0.0
C90 C 0.78329 0.87122 0.88847 0.0
H91 H 0.8319 0.93464 0.91161 0.0
C92 C 0.77325 0.89111 0.90162 0.0
H93 H 0.75202 0.88786 0.90484 0.0
H94 H 0.76971 0.8535 0.88201 0.0
H95 H 0.68554 0.25112 0.41012 0.0
C96 C 0.68045 0.24539 0.38917 0.0
C97 C 0.69868 0.23417 0.37433 0.0
C98 C 0.65498 0.24782 0.37758 0.0
H99 H 0.70458 0.21645 0.33617 0.0
C100 C 0.69121 0.22612 0.34736 0.0
C101 C 0.66573 0.22835 0.3355 0.0
C102 C 0.64785 0.23939 0.35081 0.0
C103 C 0.63398 0.25433 0.39467 0.0
H104 H 0.62793 0.24072 0.3422 0.0
C105 C 0.63351 0.28043 0.40358 0.0
C106 C 0.61199 0.28583 0.41833 0.0
C107 C 0.61339 0.23374 0.40126 0.0
H108 H 0.61344 0.21359 0.39463 0.0
C109 C 0.59258 0.23888 0.41639 0.0
H110 H 0.64918 0.29646 0.39828 0.0
C111 C 0.59179 0.26468 0.42478 0.0
H112 H 0.57531 0.26809 0.43648 0.0
H113 H 0.57686 0.22283 0.42146 0.0
H114 H 0.39903 0.6377 0.22171 0.0
C115 C 0.37867 0.638 0.2138 0.0
C116 C 0.37322 0.65837 0.19578 0.0
C117 C 0.35813 0.6173 0.22051 0.0
H118 H 0.34272 0.67405 0.1712 0.0
C119 C 0.34692 0.65834 0.18513 0.0
C120 C 0.32608 0.63818 0.19199 0.0
C121 C 0.33189 0.61768 0.20966 0.0
C122 C 0.36405 0.59461 0.23786 0.0
H123 H 0.3159 0.6021 0.21527 0.0
C124 C 0.38014 0.59881 0.26219 0.0
C125 C 0.3852 0.5771 0.27873 0.0
C126 C 0.35338 0.56845 0.23004 0.0
H127 H 0.34124 0.56462 0.21126 0.0
C128 C 0.35858 0.54691 0.24616 0.0
H129 H 0.38803 0.61894 0.26858 0.0
C130 C 0.37434 0.55114 0.27032 0.0
H131 H 0.37827 0.53401 0.28229 0.0
H132 H 0.35041 0.52684 0.23986 0.0
H133 H 0.25693 0.30711 0.81372 0.0
C134 C 0.24383 0.29256 0.80127 0.0
C135 C 0.24567 0.29362 0.77304 0.0
C136 C 0.22556 0.27266 0.81339 0.0
H137 H 0.23054 0.27555 0.73491 0.0
C138 C 0.22945 0.27446 0.7568 0.0
C139 C 0.21086 0.25475 0.7684 0.0
C140 C 0.20887 0.25398 0.79667 0.0
C141 C 0.22355 0.27186 0.84337 0.0
H142 H 0.19419 0.23893 0.80552 0.0
C143 C 0.22597 0.29565 0.85799 0.0
C144 C 0.22386 0.29526 0.88623 0.0
C145 C 0.21905 0.24748 0.85759 0.0
H146 H 0.21752 0.22878 0.84707 0.0
C147 C 0.21677 0.24701 0.88569 0.0
H148 H 0.22865 0.31461 0.84733 0.0
C149 C 0.219 0.27076 0.89999 0.0
H150 H 0.21714 0.27003 0.92176 0.0
H151 H 0.21326 0.22816 0.89643 0.0
Nd152 Nd 0.061 0.02763 0.53936 0.0
Nd153 Nd 0.02588 0.06725 0.53536 0.0
C154 C 0.09219 0.99119 0.53504 0.0
C155 C 0.10896 0.9763 0.55329 0.0
C156 C 0.09778 0.95329 0.56735 0.0
C157 C 0.11399 0.9396 0.58454 0.0
C158 C 0.14168 0.94864 0.58805 0.0
C159 C 0.15283 0.97148 0.57379 0.0
C160 C 0.1367 0.98505 0.55652 0.0
C161 C 0.0755 0.0674 0.57672 0.0
C162 C 1.01826 0.02186 0.58811 0.0
C163 C 0.99328 0.10257 0.54021 0.0
C164 C 0.97204 0.11426 0.52436 0.0
C165 C 0.97774 0.13918 0.51135 0.0
C166 C 0.95718 0.15084 0.49813 0.0
C167 C 0.93041 0.13798 0.49787 0.0
C168 C 0.92485 0.11291 0.51055 0.0
C169 C 0.94532 0.10127 0.52366 0.0
C170 C 1.01099 0.02718 0.49833 0.0
C171 C 0.07022 0.07313 0.48757 0.0
O172 O 0.06615 0.98531 0.53584 0.0
O173 O 0.10048 0.01675 0.53269 0.0
O174 O 0.07705 0.04266 0.58155 0.0
O175 O 0.06812 0.07107 0.55229 0.0
O176 O 0.03391 1.00878 0.57455 0.0
O177 O 1.01466 0.0459 0.57842 0.0
O178 O 1.01814 0.10924 0.53381 0.0
O179 O 0.98754 0.07749 0.54698 0.0
O180 O 1.01007 0.05197 0.49326 0.0
O181 O 1.01834 0.02375 0.52283 0.0
O182 O 0.05441 0.0863 0.50094 0.0
O183 O 0.07326 0.04894 0.49702 0.0
H184 H 0.07652 0.94588 0.56518 0.0
H185 H 0.10478 0.92213 0.59536 0.0
H186 H 0.17414 0.9787 0.57568 0.0
H187 H 0.14601 1.00247 0.54567 0.0
H188 H 0.99803 0.14988 0.51178 0.0
H189 H 0.96216 0.17027 0.48876 0.0
H190 H 0.90458 0.10221 0.51041 0.0
H191 H 0.94004 0.08216 0.5336 0.0
Nd192 Nd 0.51708 0.03655 0.07639 0.0
Nd193 Nd 0.52312 0.06794 0.04035 0.0
C194 C 0.50554 0.99474 0.1091 0.0
C195 C 0.50826 0.96672 0.11344 0.0
C196 C 0.51134 0.95018 0.09184 0.0
C197 C 0.51066 0.92285 0.09631 0.0
C198 C 0.50688 0.91174 0.12243 0.0
C199 C 0.50501 0.92876 0.14412 0.0
C200 C 0.50572 0.95597 0.13963 0.0
C201 C 0.47909 0.07196 0.08533 0.0
C202 C 0.49235 0.01489 0.01952 0.0
C203 C 0.52433 0.1112 1.00919 0.0
C204 C 0.54201 0.1343 0.99875 0.0
C205 C 0.53132 0.15749 0.99273 0.0
C206 C 0.54743 0.18011 0.98316 0.0
C207 C 0.57462 0.17993 0.97929 0.0
C208 C 0.58532 0.15653 0.98534 0.0
C209 C 0.56911 0.13383 0.99505 0.0
C210 C 0.56333 0.03595 0.02976 0.0
C211 C 0.55888 0.08406 0.09631 0.0
O212 O 0.527 0.01246 0.11258 0.0
O213 O 0.48999 1.00023 0.08849 0.0
O214 O 0.49768 0.06598 0.10234 0.0
O215 O 0.48304 0.06147 0.06258 0.0
O216 O 0.50783 1.00849 0.03983 0.0
O217 O 0.48938 0.03982 0.01779 0.0
O218 O 0.52075 0.11086 0.03509 0.0
O219 O 0.52633 0.08787 1.00001 0.0
O220 O 0.5471 0.04532 1.01227 0.0
O221 O 0.55747 0.04276 0.05365 0.0
O222 O 0.54815 0.09376 0.07424 0.0
O223 O 0.55244 0.05873 0.10118 0.0
H224 H 0.51346 0.95822 0.07147 0.0
H225 H 0.51245 0.91035 0.07923 0.0
H226 H 0.50163 0.92093 0.16438 0.0
H227 H 0.50324 0.96849 0.15651 0.0
H228 H 0.51046 0.15819 0.99567 0.0
H229 H 0.53866 0.19792 0.97934 0.0
H230 H 0.60615 0.15573 0.98246 0.0
H231 H 0.57769 0.11603 0.99973 0.0
Nd232 Nd 0.51029 0.54945 0.57305 0.0
Nd233 Nd 0.56883 0.57471 0.57979 0.0
C234 C 0.46061 0.52701 0.55967 0.0
C235 C 0.43804 0.51708 0.57626 0.0
C236 C 0.41667 0.4985 0.56559 0.0
C237 C 0.39771 0.48536 0.58272 0.0
C238 C 0.40019 0.49044 0.61076 0.0
C239 C 0.42086 0.51008 0.62108 0.0
C240 C 0.43958 0.52338 0.60393 0.0
C241 C 0.53395 0.5394 0.62277 0.0
C242 C 0.52403 0.60248 0.60877 0.0
C243 C 0.61888 0.5969 0.59182 0.0
C244 C 0.64217 0.60276 0.5753 0.0
C245 C 0.66631 0.61708 0.58608 0.0
C246 C 0.6874 0.62517 0.56923 0.0
C247 C 0.68445 0.61929 0.54129 0.0
C248 C 0.66048 0.60388 0.531 0.0
C249 C 0.63964 0.5956 0.54788 0.0
C250 C 0.54359 0.58441 0.53033 0.0
C251 C 0.55601 0.52065 0.54633 0.0
O252 O 0.46845 0.55278 0.55937 0.0
O253 O 0.48056 0.51373 0.56279 0.0
O254 O 0.50903 0.54178 0.61888 0.0
O255 O 0.545 0.5399 0.60055 0.0
O256 O 0.5056 0.58908 0.59196 0.0
O257 O 0.54878 0.59734 0.61068 0.0
O258 O 0.60997 0.57167 0.59596 0.0
O259 O 0.5997 0.61056 0.58527 0.0
O260 O 0.56818 0.58053 0.53315 0.0
O261 O 0.53382 0.58457 0.55307 0.0
O262 O 0.5741 0.53468 0.56289 0.0
O263 O 0.53129 0.52591 0.54342 0.0
H264 H 0.41536 0.49325 0.54432 0.0
H265 H 0.38205 0.47015 0.57434 0.0
H266 H 0.42306 0.51448 0.64258 0.0
H267 H 0.45594 0.53771 0.61252 0.0
H268 H 0.66859 0.62263 0.60729 0.0
H269 H 0.70571 0.6366 0.57796 0.0
H270 H 0.65716 0.59929 0.5096 0.0
H271 H 0.62113 0.58444 0.53926 0.0
Nd272 Nd 1.01835 0.57039 0.04698 0.0
Nd273 Nd 0.06558 0.58637 0.01365 0.0
C274 C 0.96929 0.55884 0.06358 0.0
C275 C 0.95037 0.57594 0.07106 0.0
C276 C 0.9236 0.56533 0.07496 0.0
C277 C 0.90599 0.58191 0.08277 0.0
C278 C 0.91516 0.60916 0.0871 0.0
C279 C 0.94188 0.6197 0.08261 0.0
C280 C 0.95929 0.60326 0.07455 0.0
C281 C 0.06014 0.60164 0.07431 0.0
C282 C 1.02007 0.6273 1.00733 0.0
C283 C 0.11409 0.59552 0.99572 0.0
C284 C 0.13021 0.57577 0.98803 0.0
C285 C 0.15766 0.58263 0.98439 0.0
C286 C 0.1724 0.56308 0.97719 0.0
C287 C 0.15973 0.53656 0.9735 0.0
C288 C 0.13235 0.52987 0.97777 0.0
C289 C 0.11776 0.54925 0.9849 0.0
C290 C 0.02375 0.55361 0.9878 0.0
C291 C 0.06335 0.52897 0.05279 0.0
O292 O 0.9746 0.55971 0.03794 0.0
O293 O 0.99075 0.55991 0.07989 0.0
O294 O 0.04425 0.58265 0.08566 0.0
O295 O 0.05236 0.6051 0.0499 0.0
O296 O 1.00584 0.60821 0.02204 0.0
O297 O 0.04542 0.62491 1.00328 0.0
O298 O 0.10961 0.59563 0.02154 0.0
O299 O 0.09248 0.59629 0.98002 0.0
O300 O 0.03794 0.5734 0.97576 0.0
O301 O 0.03273 0.55126 1.01185 0.0
O302 O 0.07771 0.54799 0.03808 0.0
O303 O 0.03819 0.53175 0.05716 0.0
H304 H 0.91644 0.54427 0.07227 0.0
H305 H 0.88548 0.57334 0.08618 0.0
H306 H 0.94933 0.6407 0.08546 0.0
H307 H 0.97987 0.61181 0.0714 0.0
H308 H 0.16758 0.603 0.98699 0.0
H309 H 0.1935 0.56874 0.97402 0.0
H310 H 0.12215 0.50954 0.97567 0.0
H311 H 0.09663 0.54353 0.9879 0.0
H312 H 0.20726 0.13904 0.2593 0.0
H313 H 0.18505 0.12062 0.29977 0.0
H314 H 0.15683 0.19441 0.31102 0.0
H315 H 0.17901 0.21307 0.27112 0.0
H316 H 0.18681 0.12652 0.35297 0.0
H317 H 0.0873 0.15079 0.32295 0.0
H318 H 0.1137 0.15468 0.2997 0.0
H319 H 0.11238 0.17997 0.32445 0.0
C320 C 0.19651 0.15183 0.27003 0.0
C321 C 0.1956 0.17822 0.26003 0.0
C322 C 0.18334 0.14087 0.29385 0.0
C323 C 0.16784 0.15519 0.30952 0.0
C324 C 0.16726 0.18163 0.29987 0.0
H325 H 0.07039 0.12305 0.46054 0.0
H326 H 0.09317 0.14153 0.42007 0.0
C327 C 0.18049 0.19264 0.27622 0.0
C328 C 0.15316 0.14299 0.33562 0.0
H329 H 0.09354 0.13633 0.36853 0.0
C330 C 0.16631 0.12872 0.35591 0.0
C331 C 0.12611 0.14511 0.34116 0.0
C332 C 0.10891 0.15821 0.32084 0.0
C333 C 0.1543 0.11783 0.38045 0.0
C334 C 0.12719 0.11986 0.38597 0.0
C335 C 0.11404 0.13411 0.36563 0.0
C336 C 0.11245 0.10776 0.41212 0.0
C337 C 0.17172 0.10512 0.40088 0.0
C338 C 0.11409 0.08181 0.42281 0.0
C339 C 0.10084 0.07105 0.44656 0.0
C340 C 0.08459 0.08519 0.46147 0.0
C341 C 0.08248 0.11093 0.45058 0.0
C342 C 0.09578 0.12173 0.4268 0.0
H343 H 0.19326 0.11294 0.39884 0.0
H344 H 0.1668 0.10858 0.42199 0.0
H345 H 0.16872 0.08337 0.39728 0.0
H346 H 0.12541 0.06923 0.41251 0.0
H347 H 0.10334 0.05118 0.45319 0.0
H348 H 0.39661 0.82647 0.85529 0.0
H349 H 0.41045 0.86072 0.8895 0.0
H350 H 0.47398 0.8972 0.84029 0.0
H351 H 0.4603 0.86247 0.80587 0.0
H352 H 0.49052 0.89595 0.89396 0.0
H353 H 0.39557 0.93615 0.88369 0.0
H354 H 0.39018 0.90117 0.89116 0.0
H355 H 0.40413 0.91309 0.85968 0.0
C356 C 0.41347 0.84184 0.85164 0.0
C357 C 0.42709 0.84199 0.82762 0.0
C358 C 0.4213 0.86151 0.8712 0.0
C359 C 0.44276 0.88206 0.86718 0.0
C360 C 0.45714 0.88173 0.84372 0.0
H361 H 0.47039 0.02492 0.96886 0.0
H362 H 0.45932 0.99383 0.93094 0.0
C363 C 0.44939 0.86185 0.82411 0.0
C364 C 0.45011 0.90358 0.8877 0.0
H365 H 0.42395 0.94915 0.92339 0.0
C366 C 0.47603 0.90774 0.90022 0.0
C367 C 0.43142 0.91942 0.89558 0.0
C368 C 0.40387 0.91746 0.88162 0.0
C369 C 0.48343 0.92651 0.92105 0.0
C370 C 0.46419 0.94112 0.93012 0.0
C371 C 0.4386 0.93769 0.91685 0.0
C372 C 0.47013 0.95987 0.95342 0.0
C373 C 0.51191 0.93066 0.93292 0.0
C374 C 0.47909 0.95105 0.97899 0.0
C375 C 0.4855 0.96879 1.00062 0.0
C376 C 0.48272 0.99571 0.99735 0.0
C377 C 0.47269 1.00431 0.97209 0.0
C378 C 0.46646 0.98656 0.95036 0.0
H379 H 0.52574 0.92467 0.91846 0.0
H380 H 0.51888 0.95177 0.9385 0.0
H381 H 0.51311 0.91818 0.95149 0.0
H382 H 0.4813 0.93042 0.9822 0.0
H383 H 0.49299 0.96144 0.01986 0.0
H384 H 0.65941 0.57843 0.85692 0.0
H385 H 0.6396 0.57852 0.81044 0.0
H386 H 0.59967 0.49788 0.82155 0.0
H387 H 0.61987 0.49753 0.86792 0.0
H388 H 0.6239 0.50435 0.77396 0.0
H389 H 0.56353 0.58442 0.7857 0.0
H390 H 0.59839 0.59447 0.79503 0.0
H391 H 0.57887 0.5689 0.81437 0.0
C392 C 0.64607 0.56089 0.84956 0.0
C393 C 0.641 0.53804 0.86603 0.0
C394 C 0.63477 0.56095 0.82303 0.0
C395 C 0.61785 0.53834 0.81269 0.0
C396 C 0.61264 0.51555 0.82917 0.0
H397 H 0.51029 0.53327 0.67058 0.0
H398 H 0.53173 0.53174 0.71607 0.0
C399 C 0.62415 0.51538 0.85561 0.0
C400 C 0.60614 0.53813 0.78444 0.0
H401 H 0.56693 0.56998 0.74077 0.0
C402 C 0.61136 0.51863 0.76669 0.0
C403 C 0.58962 0.55665 0.77512 0.0
C404 C 0.58203 0.57713 0.79361 0.0
C405 C 0.6005 0.51714 0.73979 0.0
C406 C 0.58454 0.53609 0.73029 0.0
C407 C 0.57936 0.5556 0.74806 0.0
C408 C 0.57188 0.53544 0.7024 0.0
C409 C 0.60564 0.49489 0.7221 0.0
C410 C 0.58734 0.53782 0.67955 0.0
C411 C 0.57503 0.53833 0.6534 0.0
C412 C 0.54719 0.53693 0.64986 0.0
C413 C 0.53181 0.53438 0.67273 0.0
C414 C 0.54403 0.53358 0.69873 0.0
H415 H 0.61207 0.47828 0.73436 0.0
H416 H 0.58748 0.48691 0.70922 0.0
H417 H 0.62184 0.50261 0.70855 0.0
H418 H 0.60892 0.53984 0.68193 0.0
H419 H 0.5873 0.5404 0.63607 0.0
H420 H 0.80542 0.80229 0.16947 0.0
H421 H 0.81554 0.76949 0.13802 0.0
H422 H 0.80701 0.70969 0.20138 0.0
H423 H 0.79462 0.74165 0.23217 0.0
H424 H 0.85718 0.74796 0.14168 0.0
H425 H 0.77243 0.66543 0.14035 0.0
H426 H 0.77032 0.69742 0.15442 0.0
H427 H 0.78403 0.67255 0.17484 0.0
C428 C 0.80471 0.78194 0.17648 0.0
C429 C 0.79943 0.77477 0.20354 0.0
C430 C 0.81071 0.76321 0.15847 0.0
C431 C 0.81181 0.73697 0.16715 0.0
C432 C 0.80565 0.72955 0.19385 0.0
H433 H 0.92582 0.64247 0.12994 0.0
H434 H 0.89821 0.67335 0.14579 0.0
C435 C 0.79913 0.7481 0.2117 0.0
C436 C 0.82288 0.71846 0.14973 0.0
H437 H 0.8158 0.65325 0.13135 0.0
C438 C 0.84775 0.72741 0.13894 0.0
C439 C 0.81051 0.69172 0.14555 0.0
C440 C 0.7827 0.68138 0.15417 0.0
C441 C 0.86135 0.71004 0.12575 0.0
C442 C 0.85027 0.68274 0.12418 0.0
C443 C 0.82458 0.67408 0.13318 0.0
C444 C 0.86598 0.6628 0.11514 0.0
C445 C 0.88772 0.72111 0.11407 0.0
C446 C 0.8564 0.6456 0.09352 0.0
C447 C 0.87205 0.62756 0.08468 0.0
C448 C 0.89748 0.62664 0.0973 0.0
C449 C 0.90653 0.64321 0.11951 0.0
C450 C 0.89083 0.66092 0.12849 0.0
H451 H 0.88859 0.7424 0.10825 0.0
H452 H 0.9042 0.71985 0.12965 0.0
H453 H 0.89119 0.70985 0.09593 0.0
H454 H 0.83713 0.64653 0.08316 0.0
H455 H 0.86466 0.61491 0.06754 0.0
H456 H 0.26405 0.19115 0.14463 0.0
H457 H 0.30031 0.17177 0.12627 0.0
H458 H 0.31984 0.14181 0.20571 0.0
H459 H 0.28295 0.16 0.22369 0.0
H460 H 0.34841 0.17294 0.12259 0.0
H461 H 0.33212 0.07695 0.17661 0.0
H462 H 0.3087 0.09978 0.17773 0.0
H463 H 0.33843 0.10361 0.20043 0.0
C464 C 0.27572 0.1803 0.15855 0.0
C465 C 0.26892 0.17757 0.1863 0.0
C466 C 0.29717 0.16885 0.14768 0.0
C467 C 0.31399 0.15369 0.16353 0.0
C468 C 0.30761 0.15164 0.19146 0.0
H469 H 0.46421 0.08055 0.1378 0.0
H470 H 0.42656 0.09893 0.15449 0.0
C471 C 0.2859 0.16271 0.20223 0.0
C472 C 0.33782 0.14107 0.15119 0.0
H473 H 0.37322 0.08748 0.15557 0.0
C474 C 0.35323 0.15405 0.13003 0.0
C475 C 0.34583 0.11605 0.15945 0.0
C476 C 0.33026 0.09813 0.17955 0.0
C477 C 0.3752 0.14393 0.11829 0.0
C478 C 0.38349 0.11928 0.12704 0.0
C479 C 0.36815 0.10628 0.14811 0.0
C480 C 0.40777 0.10711 0.11541 0.0
C481 C 0.39002 0.16061 0.09682 0.0
C482 C 0.41164 0.10412 0.08714 0.0
C483 C 0.43371 0.09282 0.0772 0.0
C484 C 0.45392 0.08384 0.09474 0.0
C485 C 0.44993 0.08683 0.12287 0.0
C486 C 0.42775 0.09764 0.13274 0.0
H487 H 0.38703 0.1817 0.09751 0.0
H488 H 0.4118 0.15994 0.09914 0.0
H489 H 0.3824 0.15273 0.07651 0.0
H490 H 0.39719 0.11019 0.07229 0.0
H491 H 0.43496 0.09133 0.05548 0.0
H492 H 0.30999 0.85242 0.75675 0.0
H493 H 0.28265 0.87992 0.72953 0.0
H494 H 0.2414 0.80993 0.6881 0.0
H495 H 0.26871 0.78244 0.71479 0.0
H496 H 0.27584 0.88502 0.67121 0.0
H497 H 0.18075 0.84439 0.7178 0.0
H498 H 0.21308 0.84037 0.7332 0.0
H499 H 0.19828 0.81956 0.70544 0.0
C500 C 0.29524 0.84293 0.74169 0.0
C501 C 0.29131 0.81517 0.7382 0.0
C502 C 0.27958 0.85864 0.72626 0.0
C503 C 0.25967 0.84686 0.7072 0.0
C504 C 0.25621 0.81932 0.70317 0.0
H505 H 0.14067 0.89486 0.59286 0.0
H506 H 0.16996 0.87138 0.62226 0.0
C507 C 0.27182 0.80364 0.7185 0.0
C508 C 0.24252 0.86321 0.69128 0.0
H509 H 0.17741 0.87096 0.67802 0.0
C510 C 0.25434 0.88217 0.67283 0.0
C511 C 0.2145 0.85936 0.69345 0.0
C512 C 0.20086 0.83999 0.7137 0.0
C513 C 0.23875 0.89679 0.65578 0.0
C514 C 0.21064 0.89267 0.65769 0.0
C515 C 0.19892 0.87401 0.6765 0.0
C516 C 0.19293 0.90712 0.64003 0.0
C517 C 0.25241 0.91583 0.63525 0.0
C518 C 0.19583 0.93498 0.64058 0.0
C519 C 0.17914 0.94844 0.6238 0.0
C520 C 0.15901 0.93427 0.60634 0.0
C521 C 0.15583 0.90633 0.60623 0.0
C522 C 0.17262 0.8929 0.62293 0.0
H523 H 0.27267 0.91158 0.63157 0.0
H524 H 0.2404 0.91488 0.61559 0.0
H525 H 0.25467 0.93642 0.643 0.0
H526 H 0.21089 0.94633 0.65414 0.0
H527 H 0.18179 0.96994 0.6247 0.0
H528 H 0.7748 0.51633 0.91281 0.0
H529 H 0.82366 0.52659 0.91794 0.0
H530 H 0.82366 0.47154 0.98543 0.0
H531 H 0.77474 0.46157 0.98081 0.0
H532 H 0.85555 0.52282 0.99422 0.0
H533 H 0.87649 0.47669 0.89824 0.0
H534 H 0.8532 0.49978 0.89485 0.0
H535 H 0.84454 0.46916 0.91327 0.0
C536 C 0.78521 0.50659 0.92889 0.0
C537 C 0.77102 0.48814 0.94642 0.0
C538 C 0.81308 0.51223 0.93157 0.0
C539 C 0.82715 0.49946 0.95175 0.0
C540 C 0.81306 0.48137 0.96956 0.0
H541 H 0.99261 0.51125 1.0098 0.0
H542 H 0.94484 0.49625 0.99918 0.0
C543 C 0.7852 0.47566 0.96685 0.0
C544 C 0.85657 0.50559 0.95488 0.0
H545 H 0.9136 0.50121 0.92322 0.0
C546 C 0.86828 0.51799 0.97879 0.0
C547 C 0.87296 0.49934 0.93457 0.0
C548 C 0.86126 0.48531 0.90884 0.0
C549 C 0.89609 0.52466 0.98285 0.0
C550 C 0.9125 0.51823 0.96265 0.0
C551 C 0.90084 0.50594 0.93865 0.0
C552 C 0.94187 0.52445 0.96625 0.0
C553 C 0.90771 0.53902 1.00844 0.0
C554 C 0.95607 0.5443 0.95028 0.0
C555 C 0.98336 0.5528 0.9562 0.0
C556 C 0.99662 0.54151 0.97816 0.0
C557 C 0.98273 0.52038 0.99288 0.0
C558 C 0.9555 0.51189 0.98694 0.0
H559 H 0.89234 0.54732 0.01917 0.0
H560 H 0.91629 0.52488 0.02244 0.0
H561 H 0.92403 0.55549 1.0038 0.0
H562 H 0.94579 0.55408 0.93412 0.0
H563 H 0.99369 0.56911 0.94453 0.0
H564 H 0.84204 0.75942 0.38018 0.0
H565 H 0.82278 0.72573 0.41214 0.0
H566 H 0.74621 0.71987 0.3676 0.0
H567 H 0.76476 0.75507 0.33683 0.0
H568 H 0.74093 0.72802 0.41821 0.0
H569 H 0.80091 0.64716 0.41337 0.0
H570 H 0.82186 0.67849 0.42009 0.0
H571 H 0.80231 0.67354 0.38831 0.0
C572 C 0.82111 0.75091 0.37707 0.0
C573 C 0.80488 0.76034 0.35612 0.0
C574 C 0.81023 0.73123 0.39512 0.0
C575 C 0.78308 0.72003 0.39217 0.0
C576 C 0.76725 0.72818 0.37025 0.0
H577 H 0.69995 0.59737 0.49546 0.0
H578 H 0.72563 0.62089 0.45956 0.0
C579 C 0.77798 0.74819 0.35248 0.0
C580 C 0.77041 0.70261 0.41378 0.0
H581 H 0.77604 0.64785 0.45342 0.0
C582 C 0.74846 0.71031 0.42564 0.0
C583 C 0.78008 0.6794 0.42342 0.0
C584 C 0.80241 0.66902 0.41041 0.0
C585 C 0.73619 0.6958 0.44709 0.0
C586 C 0.74681 0.67349 0.45779 0.0
C587 C 0.76833 0.66531 0.44556 0.0
C588 C 0.73509 0.65814 0.48114 0.0
C589 C 0.71166 0.70434 0.45774 0.0
C590 C 0.73308 0.67088 0.50571 0.0
C591 C 0.71785 0.65775 0.52598 0.0
C592 C 0.70479 0.63138 0.52228 0.0
C593 C 0.70905 0.61791 0.49867 0.0
C594 C 0.72395 0.63122 0.47821 0.0
H595 H 0.70179 0.71649 0.44253 0.0
H596 H 0.69684 0.68687 0.46339 0.0
H597 H 0.71761 0.71671 0.47606 0.0
H598 H 0.74217 0.69147 0.50865 0.0
H599 H 0.71507 0.66888 0.54377 0.0
H600 H 0.14499 0.31254 0.18302 0.0
H601 H 0.12212 0.34835 0.16322 0.0
H602 H 0.1808 0.36349 0.10328 0.0
H603 H 0.20237 0.32728 0.122 0.0
H604 H 0.12731 0.39824 0.15777 0.0
H605 H 0.126 0.3742 0.04966 0.0
H606 H 0.13531 0.35154 0.07555 0.0
H607 H 0.15965 0.37873 0.06397 0.0
C608 C 0.15237 0.32246 0.16475 0.0
C609 C 0.17537 0.31495 0.15378 0.0
C610 C 0.13934 0.34387 0.15344 0.0
C611 C 0.14842 0.35962 0.13046 0.0
C612 C 0.17148 0.35205 0.11979 0.0
H613 H 0.11173 0.51075 0.04224 0.0
H614 H 0.13065 0.47191 0.06029 0.0
C615 C 0.18422 0.33066 0.13084 0.0
C616 C 0.13507 0.38414 0.11868 0.0
H617 H 0.11911 0.41809 0.05931 0.0
C618 C 0.12548 0.40202 0.13611 0.0
C619 C 0.13176 0.39075 0.09027 0.0
C620 C 0.13844 0.37266 0.06878 0.0
C621 C 0.11415 0.42518 0.1267 0.0
C622 C 0.11137 0.43198 0.09838 0.0
C623 C 0.12086 0.41414 0.08095 0.0
C624 C 0.09893 0.45694 0.08666 0.0
C625 C 0.10603 0.44282 0.14779 0.0
C626 C 0.07391 0.46304 0.09409 0.0
C627 C 0.06267 0.4856 0.08329 0.0
C628 C 0.0756 0.50402 0.0643 0.0
C629 C 0.10055 0.49788 0.05671 0.0
C630 C 0.11162 0.47509 0.06725 0.0
H631 H 0.1165 0.44031 0.16788 0.0
H632 H 0.11034 0.4641 0.14169 0.0
H633 H 0.08423 0.4374 0.15019 0.0
H634 H 0.06247 0.44998 0.10818 0.0
H635 H 0.04353 0.48862 0.09009 0.0
H636 H 0.65418 0.42581 0.95922 0.0
H637 H 0.63516 0.37867 0.96253 0.0
H638 H 0.70164 0.35802 0.92184 0.0
H639 H 0.72006 0.40514 0.91714 0.0
H640 H 0.65491 0.32833 0.90415 0.0
H641 H 0.66395 0.32814 0.01661 0.0
H642 H 0.6444 0.35215 1.00297 0.0
H643 H 0.67932 0.35571 0.99648 0.0
C644 C 0.66453 0.41128 0.95058 0.0
C645 C 0.68883 0.41924 0.93824 0.0
C646 C 0.65383 0.38433 0.95282 0.0
C647 C 0.66738 0.36484 0.94308 0.0
C648 C 0.69104 0.37273 0.92979 0.0
H649 H 0.62594 0.20023 0.99727 0.0
H650 H 0.65181 0.24332 0.9856 0.0
C651 C 0.70165 0.39967 0.92735 0.0
C652 C 0.65706 0.33622 0.94705 0.0
H653 H 0.63791 0.28982 0.99572 0.0
C654 C 0.65137 0.31983 0.92417 0.0
C655 C 0.65312 0.32503 0.97323 0.0
C656 C 0.66078 0.3411 0.99874 0.0
C657 C 0.64087 0.29271 0.92672 0.0
C658 C 0.63535 0.28192 0.95279 0.0
C659 C 0.64195 0.29813 0.97571 0.0
C660 C 0.62144 0.25435 0.95685 0.0
C661 C 0.636 0.2759 0.90149 0.0
C662 C 0.596 0.24605 0.9442 0.0
C663 C 0.58138 0.22131 0.95051 0.0
C664 C 0.59167 0.20455 0.97 0.0
C665 C 0.61754 0.21252 0.98198 0.0
C666 C 0.63227 0.23722 0.97547 0.0
H667 H 0.6495 0.28423 0.88547 0.0
H668 H 0.63896 0.25509 0.9059 0.0
H669 H 0.61512 0.27565 0.89325 0.0
H670 H 0.58697 0.25911 0.93022 0.0
H671 H 0.56167 0.21561 0.94062 0.0
H672 H 0.88585 0.8595 0.31992 0.0
H673 H 0.91724 0.8937 0.34493 0.0
H674 H 0.86776 0.88259 0.41353 0.0
H675 H 0.83609 0.84903 0.38851 0.0
H676 H 0.88503 0.93581 0.40032 0.0
H677 H 0.96924 0.87812 0.40876 0.0
H678 H 0.95541 0.88257 0.37487 0.0
H679 H 0.93532 0.86309 0.39906 0.0
C680 C 0.88156 0.86462 0.34021 0.0
C681 C 0.85868 0.85146 0.35238 0.0
C682 C 0.89963 0.88389 0.35456 0.0
C683 C 0.89504 0.89023 0.38125 0.0
C684 C 0.87177 0.87776 0.39305 0.0
H685 H 0.99764 0.97394 0.50962 0.0
H686 H 0.97079 0.94014 0.47998 0.0
C687 C 0.85378 0.85854 0.37878 0.0
C688 C 0.91425 0.91 0.39704 0.0
H689 H 0.97778 0.92183 0.42632 0.0
C690 C 0.90534 0.93283 0.40593 0.0
C691 C 0.94058 0.90576 0.40463 0.0
C692 C 0.95075 0.88097 0.39658 0.0
C693 C 0.92208 0.95165 0.42218 0.0
C694 C 0.94859 0.94772 0.42932 0.0
C695 C 0.9575 0.92482 0.42058 0.0
C696 C 0.96711 0.96719 0.44612 0.0
C697 C 0.91107 0.97532 0.43205 0.0
C698 C 0.9746 0.99322 0.43647 0.0
C699 C 0.9897 0.01244 0.4533 0.0
C700 C 0.99774 1.00591 0.48 0.0
C701 C 0.99153 0.97949 0.48917 0.0
C702 C 0.97626 0.96022 0.47229 0.0
H703 H 0.88885 0.97208 0.43032 0.0
H704 H 0.91788 0.97974 0.45355 0.0
H705 H 0.91839 0.99305 0.41956 0.0
H706 H 0.96816 0.99882 0.41614 0.0
H707 H 0.99454 0.0326 0.44561 0.0
H708 H 0.41659 0.73246 0.77516 0.0
H709 H 0.43965 0.70406 0.74887 0.0
H710 H 0.49205 0.77323 0.72099 0.0
H711 H 0.46859 0.80196 0.74722 0.0
H712 H 0.46848 0.74002 0.67898 0.0
H713 H 0.51256 0.6808 0.75963 0.0
H714 H 0.47758 0.68083 0.76305 0.0
H715 H 0.5008 0.71147 0.76651 0.0
C716 C 0.43333 0.74161 0.76379 0.0
C717 C 0.44076 0.76945 0.7632 0.0
C718 C 0.44662 0.72532 0.74889 0.0
C719 C 0.46778 0.73642 0.73311 0.0
C720 C 0.47587 0.7642 0.73314 0.0
H721 H 0.5564 0.63329 0.6465 0.0
H722 H 0.54454 0.66722 0.67578 0.0
C723 C 0.46261 0.78058 0.74825 0.0
C724 C 0.47973 0.71902 0.71503 0.0
H725 H 0.50777 0.6624 0.71477 0.0
C726 C 0.4774 0.72325 0.68683 0.0
C727 C 0.4916 0.69725 0.7252 0.0
C728 C 0.49605 0.69244 0.75527 0.0
C729 C 0.48559 0.70573 0.66855 0.0
C730 C 0.49602 0.68309 0.67869 0.0
C731 C 0.49941 0.6795 0.70692 0.0
C732 C 0.50323 0.66274 0.6604 0.0
C733 C 0.48299 0.71166 0.63852 0.0
C734 C 0.4839 0.64861 0.64215 0.0
C735 C 0.49061 0.62915 0.6253 0.0
C736 C 0.5168 0.62327 0.62645 0.0
C737 C 0.53606 0.63732 0.64493 0.0
C738 C 0.52931 0.65675 0.66175 0.0
H739 H 0.48217 0.73306 0.63452 0.0
H740 H 0.49995 0.70612 0.62795 0.0
H741 H 0.46417 0.69995 0.62967 0.0
H742 H 0.46349 0.6524 0.64114 0.0
H743 H 0.47521 0.61864 0.61151 0.0
H744 H 0.92557 0.87938 0.80879 0.0
H745 H 0.94517 0.90017 0.76823 0.0
H746 H 0.90878 0.96906 0.78071 0.0
H747 H 0.89003 0.94885 0.82218 0.0
H748 H 0.93348 0.91437 0.72008 0.0
H749 H 0.97574 0.01235 0.76282 0.0
H750 H 0.96184 0.98508 0.78405 0.0
H751 H 0.94029 1.00499 0.76564 0.0
C752 C 0.92185 0.89923 0.80376 0.0
C753 C 0.90584 0.91185 0.82069 0.0
C754 C 0.93323 0.91135 0.77958 0.0
C755 C 0.92983 0.93724 0.77018 0.0
C756 C 0.91337 0.94971 0.78668 0.0
H757 H 0.98467 0.04212 0.62397 0.0
H758 H 0.96432 0.02249 0.66531 0.0
C759 C 0.90193 0.93758 0.81092 0.0
C760 C 0.94273 0.95029 0.74339 0.0
H761 H 0.97602 1.00877 0.71504 0.0
C762 C 0.94285 0.93505 0.7195 0.0
C763 C 0.95548 0.97752 0.74075 0.0
C764 C 0.95864 0.99591 0.76471 0.0
C765 C 0.95402 0.94561 0.69445 0.0
C766 C 0.96683 0.97281 0.69183 0.0
C767 C 0.96664 0.9881 0.71567 0.0
C768 C 0.98017 0.98551 0.66515 0.0
C769 C 0.95083 0.92722 0.67049 0.0
C770 C 0.99711 0.97268 0.64963 0.0
C771 C 1.00899 0.98415 0.62542 0.0
C772 C 1.00513 1.00953 0.61478 0.0
C773 C 0.98859 0.02264 0.63047 0.0
C774 C 0.97671 0.01115 0.65475 0.0
H775 H 0.93348 0.911 0.67223 0.0
H776 H 0.94799 0.93809 0.6511 0.0
H777 H 0.969 0.91781 0.66978 0.0
H778 H 1.00176 0.95357 0.65641 0.0
H779 H 1.02153 0.97287 0.61499 0.0
H780 H 0.69385 0.23234 0.2893 0.0
H781 H 0.67937 0.21247 0.24482 0.0
H782 H 0.60368 0.17803 0.27573 0.0
H783 H 0.61787 0.19788 0.31994 0.0
H784 H 0.66564 0.16108 0.23049 0.0
H785 H 0.57906 0.21238 0.20662 0.0
H786 H 0.60371 0.22283 0.23386 0.0
H787 H 0.57683 0.19573 0.23893 0.0
C788 C 0.67407 0.22063 0.28655 0.0
C789 C 0.65691 0.21701 0.30812 0.0
C790 C 0.66579 0.20933 0.26109 0.0
C791 C 0.64018 0.1942 0.25667 0.0
C792 C 0.62318 0.1903 0.27829 0.0
H793 H 0.58112 0.06923 0.14478 0.0
H794 H 0.60353 0.09784 0.18108 0.0
C795 C 0.63136 0.20168 0.30363 0.0
C796 C 0.63156 0.18137 0.22995 0.0
H797 H 0.5801 0.17276 0.18123 0.0
C798 C 0.6471 0.16391 0.21955 0.0
C799 C 0.60765 0.1854 0.21525 0.0
C800 C 0.59102 0.20533 0.22408 0.0
C801 C 0.63876 0.14944 0.19567 0.0
C802 C 0.61388 0.15201 0.18209 0.0
C803 C 0.599 0.17046 0.19175 0.0
C804 C 0.60212 0.1347 0.1589 0.0
C805 C 0.65672 0.1315 0.1853 0.0
C806 C 0.59342 0.14577 0.13428 0.0
C807 C 0.58025 0.12935 0.11342 0.0
C808 C 0.57541 0.10154 0.11686 0.0
C809 C 0.58467 0.09054 0.1413 0.0
C810 C 0.5977 0.10691 0.1621 0.0
H811 H 0.67801 0.13858 0.19178 0.0
H812 H 0.65109 0.1112 0.19384 0.0
H813 H 0.65485 0.13027 0.1628 0.0
H814 H 0.59642 0.16715 0.13136 0.0
H815 H 0.57327 0.13849 0.09492 0.0
H816 H 0.43171 0.6122 0.28927 0.0
H817 H 0.46009 0.61663 0.33156 0.0
H818 H 0.40447 0.55577 0.36907 0.0
H819 H 0.37588 0.55146 0.32719 0.0
H820 H 0.44755 0.62771 0.38658 0.0
H821 H 0.47749 0.5284 0.37668 0.0
H822 H 0.46256 0.54517 0.3486 0.0
H823 H 0.44201 0.52828 0.37402 0.0
C824 C 0.42536 0.60001 0.30663 0.0
C825 C 0.40169 0.58124 0.30475 0.0
C826 C 0.44164 0.60249 0.33072 0.0
C827 C 0.43457 0.58619 0.35322 0.0
C828 C 0.41053 0.56814 0.35172 0.0
H829 H 0.49217 0.59319 0.52175 0.0
H830 H 0.46689 0.59556 0.47809 0.0
C831 C 0.39427 0.56567 0.32775 0.0
C832 C 0.45247 0.58754 0.37819 0.0
H833 H 0.48927 0.55032 0.4188 0.0
C834 C 0.45684 0.61089 0.39359 0.0
C835 C 0.46479 0.56566 0.38704 0.0
C836 C 0.46173 0.54051 0.37064 0.0
C837 C 0.47263 0.61264 0.41812 0.0
C838 C 0.48407 0.59036 0.42749 0.0
C839 C 0.4803 0.5673 0.41167 0.0
C840 C 0.49973 0.5903 0.45386 0.0
C841 C 0.47705 0.63833 0.43371 0.0
C842 C 0.52643 0.58613 0.45472 0.0
C843 C 0.54084 0.58463 0.47962 0.0
C844 C 0.52871 0.58708 0.50406 0.0
C845 C 0.50202 0.59135 0.50319 0.0
C846 C 0.48763 0.59289 0.47828 0.0
H847 H 0.47302 0.65537 0.42058 0.0
H848 H 0.46325 0.63648 0.45047 0.0
H849 H 0.49786 0.64278 0.44273 0.0
H850 H 0.53606 0.58388 0.4361 0.0
H851 H 0.56136 0.58122 0.47974 0.0
H852 H 0.18825 0.30915 0.92015 0.0
H853 H 0.18771 0.35334 0.93861 0.0
H854 H 0.26316 0.38242 0.9041 0.0
H855 H 0.26322 0.33845 0.88477 0.0
H856 H 0.21996 0.38783 0.97237 0.0
H857 H 0.21558 0.43021 0.86775 0.0
H858 H 0.21229 0.39494 0.87421 0.0
H859 H 0.24473 0.41544 0.87662 0.0
C860 C 0.20489 0.3249 0.91691 0.0
C861 C 0.22559 0.32061 0.90081 0.0
C862 C 0.20459 0.35011 0.92743 0.0
C863 C 0.22511 0.37131 0.9222 0.0
C864 C 0.24678 0.36654 0.90774 0.0
H865 H 0.20909 0.52643 0.99276 0.0
H866 H 0.2308 0.48879 0.98086 0.0
C867 C 0.24686 0.34145 0.89684 0.0
C868 C 0.22253 0.39865 0.93013 0.0
H869 H 0.21338 0.45909 0.9036 0.0
C870 C 0.21885 0.40356 0.95743 0.0
C871 C 0.22092 0.41905 0.91049 0.0
C872 C 0.22335 0.41469 0.8806 0.0
C873 C 0.21245 0.42794 0.96547 0.0
C874 C 0.21031 0.44809 0.94572 0.0
C875 C 0.21527 0.44363 0.91868 0.0
C876 C 0.19907 0.47224 0.95172 0.0
C877 C 0.20642 0.43134 0.99466 0.0
C878 C 0.17469 0.47593 0.93847 0.0
C879 C 0.16254 0.49739 0.94493 0.0
C880 C 0.17446 0.51564 0.96486 0.0
C881 C 0.19948 0.51264 0.97733 0.0
C882 C 0.21173 0.49105 0.97078 0.0
H883 H 0.20473 0.4123 1.00629 0.0
H884 H 0.22275 0.4457 1.00467 0.0
H885 H 0.18748 0.43941 0.99576 0.0
H886 H 0.16467 0.46175 0.92358 0.0
H887 H 0.14351 0.49947 0.93461 0.0
H888 H 0.75055 0.94287 0.88776 0.0
H889 H 0.7162 0.96298 0.90881 0.0
H890 H 0.75148 0.94764 0.98771 0.0
H891 H 0.78607 0.92775 0.96641 0.0
H892 H 0.67541 0.94941 0.93608 0.0
H893 H 0.73648 0.01626 1.01052 0.0
H894 H 0.75148 1.00035 0.98449 0.0
H895 H 0.74157 0.98242 0.01504 0.0
C896 C 0.75202 0.9447 0.90965 0.0
C897 C 0.7732 0.93442 0.92459 0.0
C898 C 0.73149 0.95607 0.92207 0.0
C899 C 0.73002 0.95814 0.9507 0.0
C900 C 0.75127 0.94796 0.96579 0.0
H901 H 0.60794 0.01645 0.05928 0.0
H902 H 0.6459 0.99828 0.04161 0.0
C903 C 0.77185 0.93643 0.95328 0.0
C904 C 0.70603 0.96946 0.96394 0.0
H905 H 0.68963 1.0099 0.0148 0.0
C906 C 0.67908 0.96279 0.95321 0.0
C907 C 0.70881 0.98707 0.98683 0.0
C908 C 0.73612 0.99721 0.9998 0.0
C909 C 0.65632 0.97204 0.96413 0.0
C910 C 0.65909 0.98998 0.98675 0.0
C911 C 0.68603 0.99652 0.99768 0.0
C912 C 0.63488 1.00204 0.99869 0.0
C913 C 0.62903 0.96116 0.95149 0.0
C914 C 0.61463 0.01161 0.98179 0.0
C915 C 0.59252 0.02204 0.9921 0.0
C916 C 0.58861 0.02436 0.02031 0.0
C917 C 0.60908 0.01539 0.03751 0.0
C918 C 0.63139 1.00478 0.02708 0.0
H919 H 0.62877 0.9414 0.94222 0.0
H920 H 0.61353 0.95901 0.96664 0.0
H921 H 0.62368 0.97482 0.93503 0.0
H922 H 0.6159 0.0115 0.96001 0.0
H923 H 0.57818 0.02858 0.97739 0.0
H924 H 0.74819 0.23984 0.35317 0.0
H925 H 0.78887 0.22559 0.37362 0.0
H926 H 0.74798 0.20091 0.4461 0.0
H927 H 0.70713 0.21437 0.42563 0.0
H928 H 0.81984 0.24028 0.42303 0.0
H929 H 0.77502 0.13337 0.42262 0.0
H930 H 0.76012 0.15819 0.40328 0.0
H931 H 0.75592 0.15443 0.43914 0.0
C932 C 0.74786 0.23139 0.37348 0.0
C933 C 0.72429 0.22817 0.38768 0.0
C934 C 0.77117 0.22337 0.38518 0.0
C935 C 0.77135 0.21178 0.41121 0.0
C936 C 0.74819 0.20941 0.42581 0.0
H937 H 0.88123 0.1391 0.5172 0.0
H938 H 0.84399 0.15814 0.49557 0.0
C939 C 0.72491 0.21745 0.41417 0.0
C940 C 0.79548 0.20153 0.42292 0.0
H941 H 0.81726 0.14479 0.44639 0.0
C942 C 0.81937 0.21939 0.42801 0.0
C943 C 0.79486 0.17423 0.42929 0.0
C944 C 0.7702 0.15386 0.4231 0.0
C945 C 0.8424 0.21082 0.44012 0.0
C946 C 0.84164 0.18357 0.44685 0.0
C947 C 0.81784 0.16569 0.44136 0.0
C948 C 0.865 0.17311 0.46021 0.0
C949 C 0.86706 0.23115 0.44636 0.0
C950 C 0.88932 0.17511 0.44755 0.0
C951 C 0.91073 0.16413 0.45989 0.0
C952 C 0.90816 0.15068 0.48501 0.0
C953 C 0.88382 0.14893 0.49767 0.0
C954 C 0.86252 0.15994 0.48539 0.0
H955 H 0.86237 0.25171 0.44628 0.0
H956 H 0.87678 0.22709 0.46644 0.0
H957 H 0.8816 0.23016 0.43067 0.0
H958 H 0.89157 0.18466 0.42785 0.0
H959 H 0.92904 0.16556 0.44941 0.0
H960 H 0.29008 0.5959 0.17224 0.0
H961 H 0.24526 0.59646 0.15132 0.0
H962 H 0.25513 0.6813 0.16275 0.0
H963 H 0.29959 0.68077 0.18471 0.0
H964 H 0.20623 0.65615 0.17679 0.0
H965 H 0.22743 0.62308 0.07532 0.0
H966 H 0.23557 0.6007 0.10188 0.0
H967 H 0.25357 0.63419 0.10101 0.0
C968 C 0.28263 0.61464 0.17058 0.0
C969 C 0.29849 0.63831 0.18003 0.0
C970 C 0.25715 0.61499 0.15826 0.0
C971 C 0.24713 0.63903 0.1549 0.0
C972 C 0.26262 0.6626 0.16483 0.0
H973 H 0.09892 0.63846 0.05259 0.0
H974 H 0.14465 0.65291 0.07199 0.0
C975 C 0.28808 0.66226 0.17724 0.0
C976 C 0.22017 0.63937 0.14165 0.0
H977 H 0.18114 0.61997 0.08443 0.0
C978 C 0.20082 0.64856 0.15646 0.0
C979 C 0.21328 0.63005 0.11489 0.0
C980 C 0.23364 0.62172 0.09723 0.0
C981 C 0.17438 0.64732 0.14577 0.0
C982 C 0.16704 0.63615 0.11982 0.0
C983 C 0.18672 0.62831 0.10443 0.0
C984 C 0.13876 0.63015 0.10925 0.0
C985 C 0.1545 0.65773 0.16252 0.0
C986 C 0.12032 0.61276 0.12382 0.0
C987 C 0.09439 0.60452 0.11282 0.0
C988 C 0.08645 0.61329 0.08689 0.0
C989 C 0.10459 0.63137 0.07261 0.0
C990 C 0.13065 0.63962 0.08365 0.0
H991 H 0.16463 0.67343 0.17669 0.0
H992 H 0.13919 0.66602 0.14944 0.0
H993 H 0.1442 0.64121 0.17489 0.0
H994 H 0.12628 0.60469 0.14329 0.0
H995 H 0.08088 0.59049 0.12427 0.0
H996 H 0.2834 0.28922 0.73736 0.0
H997 H 0.3101 0.3252 0.71263 0.0
H998 H 0.27317 0.38281 0.75331 0.0
H999 H 0.24736 0.34686 0.77891 0.0
H1000 H 0.29286 0.35821 0.67733 0.0
H1001 H 0.34952 0.41734 0.76133 0.0
H1002 H 0.33095 0.38451 0.76661 0.0
H1003 H 0.31406 0.413 0.76435 0.0
C1004 C 0.28143 0.30963 0.74131 0.0
C1005 C 0.26357 0.3154 0.76009 0.0
C1006 C 0.29657 0.33015 0.72717 0.0
C1007 C 0.29389 0.35677 0.73131 0.0
C1008 C 0.27617 0.36254 0.7503 0.0
H1009 H 0.34557 0.4775 0.60792 0.0
H1010 H 0.31808 0.44692 0.63793 0.0
C1011 C 0.26136 0.34202 0.76482 0.0
C1012 C 0.3084 0.37816 0.71446 0.0
H1013 H 0.351 0.43739 0.71739 0.0
C1014 C 0.30567 0.37547 0.68611 0.0
C1015 C 0.32522 0.40061 0.72592 0.0
C1016 C 0.33035 0.40395 0.75622 0.0
C1017 C 0.31949 0.39439 0.66888 0.0
C1018 C 0.33573 0.41722 0.68029 0.0
C1019 C 0.33828 0.42005 0.70865 0.0
C1020 C 0.35171 0.43746 0.66332 0.0
C1021 C 0.3173 0.38911 0.63874 0.0
C1022 C 0.37953 0.44329 0.66841 0.0
C1023 C 0.39509 0.46115 0.65176 0.0
C1024 C 0.38314 0.47338 0.62954 0.0
C1025 C 0.35523 0.46809 0.62479 0.0
C1026 C 0.33959 0.45053 0.64179 0.0
H1027 H 0.31032 0.36772 0.63429 0.0
H1028 H 0.30254 0.40056 0.62874 0.0
H1029 H 0.33681 0.39531 0.6296 0.0
H1030 H 0.38934 0.43348 0.68489 0.0
H1031 H 0.4166 0.4647 0.6557 0.0
H1032 H 0.87303 0.81893 0.91872 0.0
H1033 H 0.89315 0.78162 0.93816 0.0
H1034 H 0.9671 0.81301 0.90282 0.0
H1035 H 0.94729 0.85006 0.88336 0.0
H1036 H 0.92883 0.76918 0.97356 0.0
H1037 H 0.97067 0.74123 0.88012 0.0
H1038 H 0.98381 0.77492 0.88913 0.0
H1039 H 0.94864 0.76559 0.87973 0.0
C1040 C 0.89365 0.81835 0.91481 0.0
C1041 C 0.90763 0.83882 0.89838 0.0
C1042 C 0.90546 0.79627 0.92621 0.0
C1043 C 0.93219 0.79259 0.92205 0.0
C1044 C 0.94633 0.81333 0.9062 0.0
H1045 H 0.04148 0.67148 0.97475 0.0
H1046 H 1.02108 0.70907 0.95589 0.0
C1047 C 0.93458 0.83534 0.89479 0.0
C1048 C 0.94506 0.76802 0.93447 0.0
H1049 H 0.9853 0.72101 0.92076 0.0
C1050 C 0.94098 0.7588 0.96157 0.0
C1051 C 0.96147 0.7531 0.92011 0.0
C1052 C 0.96623 0.75897 0.89061 0.0
C1053 C 0.95264 0.73706 0.97421 0.0
C1054 C 0.96911 0.72219 0.95987 0.0
C1055 C 0.97315 0.7314 0.93276 0.0
C1056 C 0.98218 0.69774 0.97226 0.0
C1057 C 0.94781 0.7311 1.00368 0.0
C1058 C 0.96826 0.67685 0.98819 0.0
C1059 C 0.98025 0.65484 0.9993 0.0
C1060 C 1.00712 0.65169 0.99526 0.0
C1061 C 1.02097 0.6723 0.97903 0.0
C1062 C 1.00896 0.69432 0.96789 0.0
H1063 H 0.9432 0.74877 0.01418 0.0
H1064 H 0.93032 0.71504 1.00507 0.0
H1065 H 0.96543 0.72458 0.01461 0.0
H1066 H 0.94752 0.67706 0.99185 0.0
H1067 H 0.96806 0.63997 1.01114 0.0
H1068 H 0.41127 0.6891 0.22847 0.0
H1069 H 0.44173 0.72919 0.21499 0.0
H1070 H 0.41359 0.71609 0.13133 0.0
H1071 H 0.38333 0.67615 0.14456 0.0
H1072 H 0.4827 0.73985 0.16917 0.0
H1073 H 0.39254 0.78925 0.15786 0.0
H1074 H 0.39344 0.75942 0.17802 0.0
H1075 H 0.39 0.75753 0.14166 0.0
C1076 C 0.41212 0.69446 0.20716 0.0
C1077 C 0.39469 0.67983 0.18759 0.0
C1078 C 0.42947 0.71729 0.19951 0.0
C1079 C 0.42963 0.7256 0.17223 0.0
C1080 C 0.41357 0.71001 0.15249 0.0
H1081 H 0.47761 0.8739 0.08935 0.0
H1082 H 0.46307 0.82706 0.1001 0.0
C1083 C 0.39624 0.68734 0.1601 0.0
C1084 C 0.444 0.75201 0.16459 0.0
H1085 H 0.43287 0.81361 0.14369 0.0
C1086 C 0.47194 0.75608 0.16367 0.0
C1087 C 0.42978 0.77301 0.15749 0.0
C1088 C 0.39979 0.76981 0.15894 0.0
C1089 C 0.48602 0.78066 0.15514 0.0
C1090 C 0.47169 0.80159 0.14779 0.0
C1091 C 0.44379 0.79745 0.14906 0.0
C1092 C 0.48491 0.8283 0.13925 0.0
C1093 C 0.51593 0.78384 0.1535 0.0
C1094 C 0.50271 0.84435 0.15734 0.0
C1095 C 0.51134 0.87113 0.15111 0.0
C1096 C 0.50206 0.88243 0.12681 0.0
C1097 C 0.48543 0.86587 0.10809 0.0
C1098 C 0.47693 0.83909 0.11428 0.0
H1099 H 0.52282 0.76428 0.15261 0.0
H1100 H 0.52252 0.79586 0.13541 0.0
H1101 H 0.52581 0.7943 0.17186 0.0
H1102 H 0.5088 0.83658 0.17691 0.0
H1103 H 0.52442 0.88326 0.16582 0.0
H1104 H 0.22551 0.22403 0.72945 0.0
H1105 H 0.19629 0.19517 0.69722 0.0
H1106 H 0.12699 0.21441 0.73405 0.0
H1107 H 0.15635 0.24277 0.767 0.0
H1108 H 0.12037 0.16297 0.72283 0.0
H1109 H 0.15553 0.21959 0.63198 0.0
H1110 H 0.18316 0.20956 0.65156 0.0
H1111 H 0.16399 0.23213 0.6659 0.0
C1112 C 0.20403 0.22199 0.73069 0.0
C1113 C 0.19311 0.23566 0.75052 0.0
C1114 C 0.18736 0.20573 0.71214 0.0
C1115 C 0.15946 0.20331 0.71268 0.0
C1116 C 0.14848 0.21626 0.73308 0.0
H1117 H 0.06994 0.11989 0.57252 0.0
H1118 H 0.08532 0.15483 0.60622 0.0
C1119 C 0.1652 0.2323 0.75193 0.0
C1120 C 0.14197 0.1867 0.69225 0.0
H1121 H 0.13404 0.17414 0.62431 0.0
C1122 C 0.12304 0.16566 0.70125 0.0
C1123 C 0.14478 0.19069 0.66403 0.0
C1124 C 0.16275 0.21443 0.65281 0.0
C1125 C 0.1082 0.14743 0.68291 0.0
C1126 C 0.11309 0.14985 0.65495 0.0
C1127 C 0.13065 0.17194 0.64579 0.0
C1128 C 0.10202 0.12867 0.63525 0.0
C1129 C 0.08764 0.12565 0.69377 0.0
C1130 C 0.10655 0.10252 0.64024 0.0
C1131 C 0.0976 0.08265 0.62126 0.0
C1132 C 0.08449 0.08865 0.5966 0.0
C1133 C 0.08009 0.11483 0.59138 0.0
C1134 C 0.08879 0.13471 0.61061 0.0
H1135 H 0.07914 0.13227 0.71221 0.0
H1136 H 0.07102 0.11928 0.6784 0.0
H1137 H 0.09735 0.10822 0.69966 0.0
H1138 H 0.11752 0.09752 0.65863 0.0
H1139 H 0.1014 0.06266 0.62572 0.0
H1140 H 0.65025 0.32303 0.44435 0.0
H1141 H 0.64344 0.36519 0.46434 0.0
H1142 H 0.56164 0.35226 0.43175 0.0
H1143 H 0.56825 0.31039 0.412 0.0
H1144 H 0.62476 0.4123 0.44237 0.0
H1145 H 0.55492 0.35786 0.51408 0.0
H1146 H 0.57669 0.34154 0.49498 0.0
H1147 H 0.54611 0.34957 0.47912 0.0
C1148 C 0.63099 0.32947 0.4411 0.0
C1149 C 0.60968 0.31321 0.42696 0.0
C1150 C 0.62708 0.35347 0.4526 0.0
C1151 C 0.60182 0.36155 0.4501 0.0
C1152 C 0.58108 0.34613 0.43455 0.0
H1153 H 0.52392 0.48537 0.51218 0.0
H1154 H 0.53632 0.44802 0.48812 0.0
C1155 C 0.58492 0.32223 0.4232 0.0
C1156 C 0.59653 0.3854 0.46455 0.0
H1157 H 0.5569 0.40472 0.51151 0.0
C1158 C 0.61009 0.41067 0.45764 0.0
C1159 C 0.57739 0.38325 0.48453 0.0
C1160 C 0.5631 0.35659 0.49385 0.0
C1161 C 0.6044 0.4339 0.46954 0.0
C1162 C 0.58492 0.43174 0.48918 0.0
C1163 C 0.57167 0.40642 0.49632 0.0
C1164 C 0.57792 0.45538 0.5027 0.0
C1165 C 0.61873 0.4606 0.46045 0.0
C1166 C 0.59712 0.47195 0.51902 0.0
C1167 C 0.59009 0.49332 0.53285 0.0
C1168 C 0.56363 0.49855 0.53078 0.0
C1169 C 0.54448 0.48202 0.51424 0.0
C1170 C 0.55153 0.46062 0.50046 0.0
H1171 H 0.62783 0.45931 0.4407 0.0
H1172 H 0.60487 0.47538 0.45848 0.0
H1173 H 0.63502 0.46798 0.47581 0.0
H1174 H 0.61747 0.46803 0.52153 0.0
H1175 H 0.60539 0.50553 0.54544 0.0
loop_
_geom_bond_atom_site_label_1
_geom_bond_atom_site_label_2
_geom_bond_distance
_geom_bond_site_symmetry_2
_ccdc_geom_bond_type
H0 C1 0.949 . S
C1 H0 0.949 . S
C1 C2 1.395 . S
C1 C3 1.391 . S
C2 C1 1.395 . S
C2 C5 1.390 . S
C3 C1 1.391 . S
C3 C7 1.387 . S
C3 C8 1.491 . S
H4 C5 0.950 . S
C5 C2 1.390 . S
C5 H4 0.950 . S
C5 C6 1.378 . S
C6 C5 1.378 . S
C6 C7 1.409 . S
C7 C3 1.387 . S
C7 C6 1.409 . S
C7 H9 0.951 . S
C8 C3 1.491 . S
C8 C10 1.382 . S
C8 C12 1.404 . S
H9 C7 0.951 . S
C10 C8 1.382 . S
C10 C11 1.390 . S
C10 H15 0.949 . S
C11 C10 1.390 . S
C11 C16 1.399 . S
C12 C8 1.404 . S
C12 H13 0.950 . S
C12 C14 1.375 . S
H13 C12 0.950 . S
C14 C12 1.375 . S
C14 C16 1.382 . S
C14 H18 0.950 . S
H15 C10 0.949 . S
C16 C11 1.399 . S
C16 C14 1.382 . S
C16 H17 0.952 . S
H17 C16 0.952 . S
H18 C14 0.950 . S
H19 C20 0.949 . S
C20 H19 0.949 . S
C20 C21 1.395 . S
C20 C22 1.391 . S
C21 C20 1.395 . S
C21 C24 1.390 . S
C22 C20 1.391 . S
C22 C26 1.387 . S
C22 C27 1.491 . S
H23 C24 0.950 . S
C24 C21 1.390 . S
C24 H23 0.950 . S
C24 C25 1.378 . S
C25 C24 1.378 . S
C25 C26 1.409 . S
C26 C22 1.387 . S
C26 C25 1.409 . S
C26 H28 0.951 . S
C27 C22 1.491 . S
C27 C29 1.382 . S
C27 C31 1.404 . S
H28 C26 0.951 . S
C29 C27 1.382 . S
C29 C30 1.390 . S
C29 H34 0.949 . S
C30 C29 1.390 . S
C30 C35 1.399 . S
C31 C27 1.404 . S
C31 H32 0.950 . S
C31 C33 1.375 . S
H32 C31 0.950 . S
C33 C31 1.375 . S
C33 C35 1.382 . S
C33 H37 0.950 . S
H34 C29 0.949 . S
C35 C30 1.399 . S
C35 C33 1.382 . S
C35 H36 0.952 . S
H36 C35 0.952 . S
H37 C33 0.950 . S
H38 C39 0.949 . S
C39 H38 0.949 . S
C39 C40 1.395 . S
C39 C41 1.391 . S
C40 C39 1.395 . S
C40 C43 1.390 . S
C41 C39 1.391 . S
C41 C45 1.387 . S
C41 C46 1.491 . S
H42 C43 0.950 . S
C43 C40 1.390 . S
C43 H42 0.950 . S
C43 C44 1.378 . S
C44 C43 1.378 . S
C44 C45 1.409 . S
C45 C41 1.387 . S
C45 C44 1.409 . S
C45 H47 0.951 . S
C46 C41 1.491 . S
C46 C48 1.382 . S
C46 C50 1.404 . S
H47 C45 0.951 . S
C48 C46 1.382 . S
C48 C49 1.390 . S
C48 H53 0.949 . S
C49 C48 1.390 . S
C49 C54 1.399 . S
C50 C46 1.404 . S
C50 H51 0.950 . S
C50 C52 1.375 . S
H51 C50 0.950 . S
C52 C50 1.375 . S
C52 C54 1.382 . S
C52 H56 0.950 . S
H53 C48 0.949 . S
C54 C49 1.399 . S
C54 C52 1.382 . S
C54 H55 0.952 . S
H55 C54 0.952 . S
H56 C52 0.950 . S
H57 C58 0.949 . S
C58 H57 0.949 . S
C58 C59 1.395 . S
C58 C60 1.391 . S
C59 C58 1.395 . S
C59 C62 1.390 . S
C60 C58 1.391 . S
C60 C64 1.387 . S
C60 C65 1.491 . S
H61 C62 0.950 . S
C62 C59 1.390 . S
C62 H61 0.950 . S
C62 C63 1.378 . S
C63 C62 1.378 . S
C63 C64 1.409 . S
C64 C60 1.387 . S
C64 C63 1.409 . S
C64 H66 0.951 . S
C65 C60 1.491 . S
C65 C67 1.382 . S
C65 C69 1.404 . S
H66 C64 0.951 . S
C67 C65 1.382 . S
C67 C68 1.390 . S
C67 H72 0.949 . S
C68 C67 1.390 . S
C68 C73 1.399 . S
C69 C65 1.404 . S
C69 H70 0.950 . S
C69 C71 1.375 . S
H70 C69 0.950 . S
C71 C69 1.375 . S
C71 C73 1.382 . S
C71 H75 0.950 . S
H72 C67 0.949 . S
C73 C68 1.399 . S
C73 C71 1.382 . S
C73 H74 0.952 . S
H74 C73 0.952 . S
H75 C71 0.950 . S
H76 C77 0.949 . S
C77 H76 0.949 . S
C77 C78 1.395 . S
C77 C79 1.391 . S
C78 C77 1.395 . S
C78 C81 1.390 . S
C79 C77 1.391 . S
C79 C83 1.387 . S
C79 C84 1.491 . S
H80 C81 0.950 . S
C81 C78 1.390 . S
C81 H80 0.950 . S
C81 C82 1.378 . S
C82 C81 1.378 . S
C82 C83 1.409 . S
C83 C79 1.387 . S
C83 C82 1.409 . S
C83 H85 0.951 . S
C84 C79 1.491 . S
C84 C86 1.382 . S
C84 C88 1.404 . S
H85 C83 0.951 . S
C86 C84 1.382 . S
C86 C87 1.390 . S
C86 H91 0.949 . S
C87 C86 1.390 . S
C87 C92 1.399 . S
C88 C84 1.404 . S
C88 H89 0.950 . S
C88 C90 1.375 . S
H89 C88 0.950 . S
C90 C88 1.375 . S
C90 C92 1.382 . S
C90 H94 0.950 . S
H91 C86 0.949 . S
C92 C87 1.399 . S
C92 C90 1.382 . S
C92 H93 0.952 . S
H93 C92 0.952 . S
H94 C90 0.950 . S
H95 C96 0.949 . S
C96 H95 0.949 . S
C96 C97 1.395 . S
C96 C98 1.391 . S
C97 C96 1.395 . S
C97 C100 1.390 . S
C98 C96 1.391 . S
C98 C102 1.387 . S
C98 C103 1.491 . S
H99 C100 0.950 . S
C100 C97 1.390 . S
C100 H99 0.950 . S
C100 C101 1.378 . S
C101 C100 1.378 . S
C101 C102 1.409 . S
C102 C98 1.387 . S
C102 C101 1.409 . S
C102 H104 0.951 . S
C103 C98 1.491 . S
C103 C105 1.382 . S
C103 C107 1.404 . S
H104 C102 0.951 . S
C105 C103 1.382 . S
C105 C106 1.390 . S
C105 H110 0.949 . S
C106 C105 1.390 . S
C106 C111 1.399 . S
C107 C103 1.404 . S
C107 H108 0.950 . S
C107 C109 1.375 . S
H108 C107 0.950 . S
C109 C107 1.375 . S
C109 C111 1.382 . S
C109 H113 0.950 . S
H110 C105 0.949 . S
C111 C106 1.399 . S
C111 C109 1.382 . S
C111 H112 0.952 . S
H112 C111 0.952 . S
H113 C109 0.950 . S
H114 C115 0.949 . S
C115 H114 0.949 . S
C115 C116 1.395 . S
C115 C117 1.391 . S
C116 C115 1.395 . S
C116 C119 1.390 . S
C117 C115 1.391 . S
C117 C121 1.387 . S
C117 C122 1.491 . S
H118 C119 0.950 . S
C119 C116 1.390 . S
C119 H118 0.950 . S
C119 C120 1.378 . S
C120 C119 1.378 . S
C120 C121 1.409 . S
C121 C117 1.387 . S
C121 C120 1.409 . S
C121 H123 0.951 . S
C122 C117 1.491 . S
C122 C124 1.382 . S
C122 C126 1.404 . S
H123 C121 0.951 . S
C124 C122 1.382 . S
C124 C125 1.390 . S
C124 H129 0.949 . S
C125 C124 1.390 . S
C125 C130 1.399 . S
C126 C122 1.404 . S
C126 H127 0.950 . S
C126 C128 1.375 . S
H127 C126 0.950 . S
C128 C126 1.375 . S
C128 C130 1.382 . S
C128 H132 0.950 . S
H129 C124 0.949 . S
C130 C125 1.399 . S
C130 C128 1.382 . S
C130 H131 0.952 . S
H131 C130 0.952 . S
H132 C128 0.950 . S
H133 C134 0.949 . S
C134 H133 0.949 . S
C134 C135 1.395 . S
C134 C136 1.391 . S
C135 C134 1.395 . S
C135 C138 1.390 . S
C136 C134 1.391 . S
C136 C140 1.387 . S
C136 C141 1.491 . S
H137 C138 0.950 . S
C138 C135 1.390 . S
C138 H137 0.950 . S
C138 C139 1.378 . S
C139 C138 1.378 . S
C139 C140 1.409 . S
C140 C136 1.387 . S
C140 C139 1.409 . S
C140 H142 0.951 . S
C141 C136 1.491 . S
C141 C143 1.382 . S
C141 C145 1.404 . S
H142 C140 0.951 . S
C143 C141 1.382 . S
C143 C144 1.390 . S
C143 H148 0.949 . S
C144 C143 1.390 . S
C144 C149 1.399 . S
C145 C141 1.404 . S
C145 H146 0.950 . S
C145 C147 1.375 . S
H146 C145 0.950 . S
C147 C145 1.375 . S
C147 C149 1.382 . S
C147 H151 0.950 . S
H148 C143 0.949 . S
C149 C144 1.399 . S
C149 C147 1.382 . S
C149 H150 0.952 . S
H150 C149 0.952 . S
H151 C147 0.950 . S
Nd152 C154 2.836 1_545 S
Nd152 O172 2.500 1_545 S
Nd152 O173 2.481 1_545 S
Nd152 O174 2.487 . S
Nd152 O175 2.682 . S
Nd152 O176 2.410 . S
Nd152 O181 2.414 1_445 S
Nd152 O183 2.424 . S
Nd153 C163 2.836 . S
Nd153 O175 2.414 1_655 S
Nd153 O177 2.424 . S
Nd153 O178 2.500 . S
Nd153 O179 2.492 . S
Nd153 O180 2.487 1_545 S
Nd153 O181 2.682 1_545 S
Nd153 O182 2.410 . S
C154 Nd152 2.836 1_565 S
C154 C155 1.498 . S
C154 O172 1.258 . S
C154 O173 1.262 . S
C155 C154 1.498 . S
C155 C156 1.366 . S
C155 C160 1.407 . S
C156 C155 1.366 . S
C156 C157 1.392 . S
C156 H184 0.930 . S
C157 C156 1.392 . S
C157 C158 1.398 . S
C157 H185 0.929 . S
C158 C157 1.398 . S
C158 C159 1.352 . S
C159 C158 1.352 . S
C159 C160 1.384 . S
C159 H186 0.930 . S
C160 C155 1.407 . S
C160 C159 1.384 . S
C160 H187 0.929 . S
C161 O174 1.241 . S
C161 O175 1.273 . S
C162 O176 1.251 1_665 S
C162 O177 1.268 1_565 S
C163 Nd153 2.836 . S
C163 C164 1.498 . S
C163 O178 1.258 . S
C163 O179 1.239 . S
C164 C163 1.498 . S
C164 C165 1.366 . S
C164 C169 1.407 . S
C165 C164 1.366 . S
C165 C166 1.392 . S
C165 H188 0.930 . S
C166 C165 1.392 . S
C166 C167 1.398 . S
C166 H189 0.929 . S
C167 C166 1.398 . S
C167 C168 1.352 . S
C168 C167 1.352 . S
C168 C169 1.384 . S
C168 H190 0.930 . S
C169 C164 1.407 . S
C169 C168 1.384 . S
C169 H191 0.929 . S
C170 O180 1.241 . S
C170 O181 1.273 . S
C171 O182 1.251 1_455 S
C171 O183 1.268 . S
O172 Nd152 2.500 1_565 S
O172 C154 1.258 . S
O173 Nd152 2.481 1_565 S
O173 C154 1.262 . S
O174 Nd152 2.487 . S
O174 C161 1.241 . S
O175 Nd152 2.682 . S
O175 Nd153 2.414 1_455 S
O175 C161 1.273 . S
O176 Nd152 2.410 . S
O176 C162 1.251 1_445 S
O177 Nd153 2.424 . S
O177 C162 1.268 1_545 S
O178 Nd153 2.500 . S
O178 C163 1.258 . S
O179 Nd153 2.492 . S
O179 C163 1.239 . S
O180 Nd153 2.487 1_565 S
O180 C170 1.241 . S
O181 Nd152 2.414 1_665 S
O181 Nd153 2.682 1_565 S
O181 C170 1.273 . S
O182 Nd153 2.410 . S
O182 C171 1.251 1_655 S
O183 Nd152 2.424 . S
O183 C171 1.268 . S
H184 C156 0.930 . S
H185 C157 0.929 . S
H186 C159 0.930 . S
H187 C160 0.929 . S
H188 C165 0.930 . S
H189 C166 0.929 . S
H190 C168 0.930 . S
H191 C169 0.929 . S
Nd192 C194 2.836 1_545 S
Nd192 O212 2.500 1_545 S
Nd192 O213 2.492 1_545 S
Nd192 O214 2.487 . S
Nd192 O215 2.682 . S
Nd192 O216 2.410 1_545 S
Nd192 O221 2.414 . S
Nd192 O223 2.424 . S
Nd193 C203 2.836 . S
Nd193 O215 2.414 . S
Nd193 O217 2.424 . S
Nd193 O218 2.500 . S
Nd193 O219 2.492 . S
Nd193 O220 2.487 . S
Nd193 O221 2.682 . S
Nd193 O222 2.410 . S
C194 Nd192 2.836 1_565 S
C194 C195 1.498 . S
C194 O212 1.258 . S
C194 O213 1.239 . S
C195 C194 1.498 . S
C195 C196 1.366 . S
C195 C200 1.407 . S
C196 C195 1.366 . S
C196 C197 1.392 . S
C196 H224 0.930 . S
C197 C196 1.392 . S
C197 C198 1.398 . S
C197 H225 0.929 . S
C198 C197 1.398 . S
C198 C199 1.352 . S
C199 C198 1.352 . S
C199 C200 1.384 . S
C199 H226 0.930 . S
C200 C195 1.407 . S
C200 C199 1.384 . S
C200 H227 0.929 . S
C201 O214 1.241 . S
C201 O215 1.273 . S
C202 O216 1.251 . S
C202 O217 1.268 1_565 S
C203 Nd193 2.836 . S
C203 C204 1.498 . S
C203 O218 1.258 . S
C203 O219 1.239 . S
C204 C203 1.498 . S
C204 C205 1.366 . S
C204 C209 1.407 . S
C205 C204 1.366 . S
C205 C206 1.392 . S
C205 H228 0.930 . S
C206 C205 1.392 . S
C206 C207 1.398 . S
C206 H229 0.929 . S
C207 C206 1.398 . S
C207 C208 1.352 . S
C208 C207 1.352 . S
C208 C209 1.384 . S
C208 H230 0.930 1_554 S
C209 C204 1.407 . S
C209 C208 1.384 . S
C209 H231 0.929 . S
C210 O220 1.241 . S
C210 O221 1.273 . S
C211 O222 1.251 . S
C211 O223 1.268 . S
O212 Nd192 2.500 1_565 S
O212 C194 1.258 . S
O213 Nd192 2.492 1_565 S
O213 C194 1.239 . S
O214 Nd192 2.487 . S
O214 C201 1.241 . S
O215 Nd192 2.682 . S
O215 Nd193 2.414 . S
O215 C201 1.273 . S
O216 Nd192 2.410 1_565 S
O216 C202 1.251 . S
O217 Nd193 2.424 . S
O217 C202 1.268 1_545 S
O218 Nd193 2.500 . S
O218 C203 1.258 . S
O219 Nd193 2.492 . S
O219 C203 1.239 . S
O220 Nd193 2.487 . S
O220 C210 1.241 . S
O221 Nd192 2.414 . S
O221 Nd193 2.682 . S
O221 C210 1.273 . S
O222 Nd193 2.410 . S
O222 C211 1.251 . S
O223 Nd192 2.424 . S
O223 C211 1.268 . S
H224 C196 0.930 . S
H225 C197 0.929 . S
H226 C199 0.930 . S
H227 C200 0.929 . S
H228 C205 0.930 . S
H229 C206 0.929 . S
H230 C208 0.930 1_556 S
H231 C209 0.929 . S
Nd232 C234 2.836 . S
Nd232 O252 2.500 . S
Nd232 O253 2.492 . S
Nd232 O254 2.487 . S
Nd232 O255 2.682 . S
Nd232 O256 2.410 . S
Nd232 O261 2.414 . S
Nd232 O263 2.424 . S
Nd233 C243 2.836 . S
Nd233 O255 2.414 . S
Nd233 O257 2.424 . S
Nd233 O258 2.500 . S
Nd233 O259 2.492 . S
Nd233 O260 2.487 . S
Nd233 O261 2.682 . S
Nd233 O262 2.410 . S
C234 Nd232 2.836 . S
C234 C235 1.498 . S
C234 O252 1.258 . S
C234 O253 1.239 . S
C235 C234 1.498 . S
C235 C236 1.366 . S
C235 C240 1.407 . S
C236 C235 1.366 . S
C236 C237 1.392 . S
C236 H264 0.930 . S
C237 C236 1.392 . S
C237 C238 1.398 . S
C237 H265 0.929 . S
C238 C237 1.398 . S
C238 C239 1.352 . S
C239 C238 1.352 . S
C239 C240 1.384 . S
C239 H266 0.930 . S
C240 C235 1.407 . S
C240 C239 1.384 . S
C240 H267 0.929 . S
C241 O254 1.241 . S
C241 O255 1.273 . S
C242 O256 1.251 . S
C242 O257 1.268 . S
C243 Nd233 2.836 . S
C243 C244 1.498 . S
C243 O258 1.258 . S
C243 O259 1.239 . S
C244 C243 1.498 . S
C244 C245 1.366 . S
C244 C249 1.407 . S
C245 C244 1.366 . S
C245 C246 1.392 . S
C245 H268 0.930 . S
C246 C245 1.392 . S
C246 C247 1.398 . S
C246 H269 0.929 . S
C247 C246 1.398 . S
C247 C248 1.352 . S
C248 C247 1.352 . S
C248 C249 1.384 . S
C248 H270 0.930 . S
C249 C244 1.407 . S
C249 C248 1.384 . S
C249 H271 0.929 . S
C250 O260 1.241 . S
C250 O261 1.273 . S
C251 O262 1.251 . S
C251 O263 1.268 . S
O252 Nd232 2.500 . S
O252 C234 1.258 . S
O253 Nd232 2.492 . S
O253 C234 1.239 . S
O254 Nd232 2.487 . S
O254 C241 1.241 . S
O255 Nd232 2.682 . S
O255 Nd233 2.414 . S
O255 C241 1.273 . S
O256 Nd232 2.410 . S
O256 C242 1.251 . S
O257 Nd233 2.424 . S
O257 C242 1.268 . S
O258 Nd233 2.500 . S
O258 C243 1.258 . S
O259 Nd233 2.492 . S
O259 C243 1.239 . S
O260 Nd233 2.487 . S
O260 C250 1.241 . S
O261 Nd232 2.414 . S
O261 Nd233 2.682 . S
O261 C250 1.273 . S
O262 Nd233 2.410 . S
O262 C251 1.251 . S
O263 Nd232 2.424 . S
O263 C251 1.268 . S
H264 C236 0.930 . S
H265 C237 0.929 . S
H266 C239 0.930 . S
H267 C240 0.929 . S
H268 C245 0.930 . S
H269 C246 0.929 . S
H270 C248 0.930 . S
H271 C249 0.929 . S
Nd272 C274 2.836 1_455 S
Nd272 O292 2.500 1_455 S
Nd272 O293 2.492 . S
Nd272 O294 2.487 . S
Nd272 O295 2.682 . S
Nd272 O296 2.410 . S
Nd272 O301 2.414 1_455 S
Nd272 O303 2.424 . S
Nd273 C283 2.836 . S
Nd273 O295 2.414 1_556 S
Nd273 O297 2.424 . S
Nd273 O298 2.500 . S
Nd273 O299 2.492 . S
Nd273 O300 2.487 1_455 S
Nd273 O301 2.682 1_456 S
Nd273 O302 2.410 . S
C274 Nd272 2.836 1_655 S
C274 C275 1.498 . S
C274 O292 1.258 . S
C274 O293 1.239 1_655 S
C275 C274 1.498 . S
C275 C276 1.366 . S
C275 C280 1.407 . S
C276 C275 1.366 . S
C276 C277 1.392 . S
C276 H304 0.930 . S
C277 C276 1.392 . S
C277 C278 1.398 . S
C277 H305 0.929 . S
C278 C277 1.398 . S
C278 C279 1.352 . S
C279 C278 1.352 . S
C279 C280 1.384 . S
C279 H306 0.930 . S
C280 C275 1.407 . S
C280 C279 1.384 . S
C280 H307 0.929 1_655 S
C281 O294 1.241 . S
C281 O295 1.273 . S
C282 O296 1.251 . S
C282 O297 1.268 1_554 S
C283 Nd273 2.836 . S
C283 C284 1.498 . S
C283 O298 1.258 . S
C283 O299 1.239 . S
C284 C283 1.498 . S
C284 C285 1.366 . S
C284 C289 1.407 . S
C285 C284 1.366 . S
C285 C286 1.392 . S
C285 H308 0.930 . S
C286 C285 1.392 . S
C286 C287 1.398 . S
C286 H309 0.929 . S
C287 C286 1.398 . S
C287 C288 1.352 . S
C288 C287 1.352 . S
C288 C289 1.384 . S
C288 H310 0.930 . S
C289 C284 1.407 . S
C289 C288 1.384 . S
C289 H311 0.929 . S
C290 O300 1.241 . S
C290 O301 1.273 1_556 S
C291 O302 1.251 1_554 S
C291 O303 1.268 . S
O292 Nd272 2.500 1_655 S
O292 C274 1.258 . S
O293 Nd272 2.492 . S
O293 C274 1.239 1_455 S
O294 Nd272 2.487 . S
O294 C281 1.241 . S
O295 Nd272 2.682 . S
O295 Nd273 2.414 1_554 S
O295 C281 1.273 . S
O296 Nd272 2.410 . S
O296 C282 1.251 . S
O297 Nd273 2.424 . S
O297 C282 1.268 1_556 S
O298 Nd273 2.500 . S
O298 C283 1.258 . S
O299 Nd273 2.492 . S
O299 C283 1.239 . S
O300 Nd273 2.487 1_655 S
O300 C290 1.241 . S
O301 Nd272 2.414 1_655 S
O301 Nd273 2.682 1_654 S
O301 C290 1.273 1_554 S
O302 Nd273 2.410 . S
O302 C291 1.251 1_556 S
O303 Nd272 2.424 . S
O303 C291 1.268 . S
H304 C276 0.930 . S
H305 C277 0.929 . S
H306 C279 0.930 . S
H307 C280 0.929 1_455 S
H308 C285 0.930 . S
H309 C286 0.929 . S
H310 C288 0.930 . S
H311 C289 0.929 . S
H312 C320 0.929 . S
H313 C322 0.930 . S
H314 C324 0.930 . S
H315 C327 0.929 . S
H316 C330 0.930 . S
H317 C332 0.960 . S
H318 C332 0.960 . S
H319 C332 0.960 . S
C320 H312 0.929 . S
C320 C321 1.377 . S
C320 C322 1.384 . S
C321 C320 1.377 . S
C321 C327 1.390 . S
C322 H313 0.930 . S
C322 C320 1.384 . S
C322 C323 1.372 . S
C323 C322 1.372 . S
C323 C324 1.400 . S
C323 C328 1.490 . S
C324 H314 0.930 . S
C324 C323 1.400 . S
C324 C327 1.386 . S
H325 C341 0.930 . S
H326 C342 0.931 . S
C327 H315 0.929 . S
C327 C321 1.390 . S
C327 C324 1.386 . S
C328 C323 1.490 . S
C328 C330 1.395 . S
C328 C331 1.403 . S
H329 C335 0.930 . S
C330 H316 0.930 . S
C330 C328 1.395 . S
C330 C333 1.403 . S
C331 C328 1.403 . S
C331 C332 1.524 . S
C331 C335 1.400 . S
C332 H317 0.960 . S
C332 H318 0.960 . S
C332 H319 0.960 . S
C332 C331 1.524 . S
C333 C330 1.403 . S
C333 C334 1.392 . S
C333 C337 1.495 . S
C334 C333 1.392 . S
C334 C335 1.385 . S
C334 C336 1.478 . S
C335 H329 0.930 . S
C335 C331 1.400 . S
C335 C334 1.385 . S
C336 C334 1.478 . S
C336 C338 1.381 . S
C336 C342 1.383 . S
C337 C333 1.495 . S
C337 H343 0.959 . S
C337 H344 0.961 . S
C337 H345 0.960 . S
C338 C336 1.381 . S
C338 C339 1.394 . S
C338 H346 0.930 . S
C339 C338 1.394 . S
C339 C340 1.383 . S
C339 H347 0.929 . S
C340 C339 1.383 . S
C340 C341 1.377 . S
C341 H325 0.930 . S
C341 C340 1.377 . S
C341 C342 1.379 . S
C342 H326 0.931 . S
C342 C336 1.383 . S
C342 C341 1.379 . S
H343 C337 0.959 . S
H344 C337 0.961 . S
H345 C337 0.960 . S
H346 C338 0.930 . S
H347 C339 0.929 . S
H348 C356 0.929 . S
H349 C358 0.930 . S
H350 C360 0.930 . S
H351 C363 0.929 . S
H352 C366 0.930 . S
H353 C368 0.960 . S
H354 C368 0.960 . S
H355 C368 0.960 . S
C356 H348 0.929 . S
C356 C357 1.377 . S
C356 C358 1.384 . S
C357 C356 1.377 . S
C357 C363 1.390 . S
C358 H349 0.930 . S
C358 C356 1.384 . S
C358 C359 1.372 . S
C359 C358 1.372 . S
C359 C360 1.400 . S
C359 C364 1.490 . S
C360 H350 0.930 . S
C360 C359 1.400 . S
C360 C363 1.386 . S
H361 C377 0.930 . S
H362 C378 0.931 . S
C363 H351 0.929 . S
C363 C357 1.390 . S
C363 C360 1.386 . S
C364 C359 1.490 . S
C364 C366 1.395 . S
C364 C367 1.403 . S
H365 C371 0.930 . S
C366 H352 0.930 . S
C366 C364 1.395 . S
C366 C369 1.403 . S
C367 C364 1.403 . S
C367 C368 1.524 . S
C367 C371 1.400 . S
C368 H353 0.960 . S
C368 H354 0.960 . S
C368 H355 0.960 . S
C368 C367 1.524 . S
C369 C366 1.403 . S
C369 C370 1.392 . S
C369 C373 1.495 . S
C370 C369 1.392 . S
C370 C371 1.385 . S
C370 C372 1.478 . S
C371 H365 0.930 . S
C371 C367 1.400 . S
C371 C370 1.385 . S
C372 C370 1.478 . S
C372 C374 1.381 . S
C372 C378 1.383 . S
C373 C369 1.495 . S
C373 H379 0.959 . S
C373 H380 0.961 . S
C373 H381 0.960 . S
C374 C372 1.381 . S
C374 C375 1.394 1_556 S
C374 H382 0.930 1_556 S
C375 C374 1.394 1_554 S
C375 C376 1.383 . S
C375 H383 0.929 . S
C376 C375 1.383 . S
C376 C377 1.377 1_554 S
C377 H361 0.930 . S
C377 C376 1.377 1_556 S
C377 C378 1.379 . S
C378 H362 0.931 . S
C378 C372 1.383 . S
C378 C377 1.379 . S
H379 C373 0.959 . S
H380 C373 0.961 . S
H381 C373 0.960 . S
H382 C374 0.930 1_554 S
H383 C375 0.929 . S
H384 C392 0.929 . S
H385 C394 0.930 . S
H386 C396 0.930 . S
H387 C399 0.929 . S
H388 C402 0.930 . S
H389 C404 0.960 . S
H390 C404 0.960 . S
H391 C404 0.960 . S
C392 H384 0.929 . S
C392 C393 1.377 . S
C392 C394 1.384 . S
C393 C392 1.377 . S
C393 C399 1.390 . S
C394 H385 0.930 . S
C394 C392 1.384 . S
C394 C395 1.372 . S
C395 C394 1.372 . S
C395 C396 1.400 . S
C395 C400 1.490 . S
C396 H386 0.930 . S
C396 C395 1.400 . S
C396 C399 1.386 . S
H397 C413 0.930 . S
H398 C414 0.931 . S
C399 H387 0.929 . S
C399 C393 1.390 . S
C399 C396 1.386 . S
C400 C395 1.490 . S
C400 C402 1.395 . S
C400 C403 1.403 . S
H401 C407 0.930 . S
C402 H388 0.930 . S
C402 C400 1.395 . S
C402 C405 1.403 . S
C403 C400 1.403 . S
C403 C404 1.524 . S
C403 C407 1.400 . S
C404 H389 0.960 . S
C404 H390 0.960 . S
C404 H391 0.960 . S
C404 C403 1.524 . S
C405 C402 1.403 . S
C405 C406 1.392 . S
C405 C409 1.495 . S
C406 C405 1.392 . S
C406 C407 1.385 . S
C406 C408 1.478 . S
C407 H401 0.930 . S
C407 C403 1.400 . S
C407 C406 1.385 . S
C408 C406 1.478 . S
C408 C410 1.381 . S
C408 C414 1.383 . S
C409 C405 1.495 . S
C409 H415 0.959 . S
C409 H416 0.961 . S
C409 H417 0.960 . S
C410 C408 1.381 . S
C410 C411 1.394 . S
C410 H418 0.930 . S
C411 C410 1.394 . S
C411 C412 1.383 . S
C411 H419 0.929 . S
C412 C411 1.383 . S
C412 C413 1.377 . S
C413 H397 0.930 . S
C413 C412 1.377 . S
C413 C414 1.379 . S
C414 H398 0.931 . S
C414 C408 1.383 . S
C414 C413 1.379 . S
H415 C409 0.959 . S
H416 C409 0.961 . S
H417 C409 0.960 . S
H418 C410 0.930 . S
H419 C411 0.929 . S
H420 C428 0.929 . S
H421 C430 0.930 . S
H422 C432 0.930 . S
H423 C435 0.929 . S
H424 C438 0.930 . S
H425 C440 0.960 . S
H426 C440 0.960 . S
H427 C440 0.960 . S
C428 H420 0.929 . S
C428 C429 1.377 . S
C428 C430 1.384 . S
C429 C428 1.377 . S
C429 C435 1.390 . S
C430 H421 0.930 . S
C430 C428 1.384 . S
C430 C431 1.372 . S
C431 C430 1.372 . S
C431 C432 1.400 . S
C431 C436 1.490 . S
C432 H422 0.930 . S
C432 C431 1.400 . S
C432 C435 1.386 . S
H433 C449 0.930 . S
H434 C450 0.931 . S
C435 H423 0.929 . S
C435 C429 1.390 . S
C435 C432 1.386 . S
C436 C431 1.490 . S
C436 C438 1.395 . S
C436 C439 1.403 . S
H437 C443 0.930 . S
C438 H424 0.930 . S
C438 C436 1.395 . S
C438 C441 1.403 . S
C439 C436 1.403 . S
C439 C440 1.524 . S
C439 C443 1.400 . S
C440 H425 0.960 . S
C440 H426 0.960 . S
C440 H427 0.960 . S
C440 C439 1.524 . S
C441 C438 1.403 . S
C441 C442 1.392 . S
C441 C445 1.495 . S
C442 C441 1.392 . S
C442 C443 1.385 . S
C442 C444 1.478 . S
C443 H437 0.930 . S
C443 C439 1.400 . S
C443 C442 1.385 . S
C444 C442 1.478 . S
C444 C446 1.381 . S
C444 C450 1.383 . S
C445 C441 1.495 . S
C445 H451 0.959 . S
C445 H452 0.961 . S
C445 H453 0.960 . S
C446 C444 1.381 . S
C446 C447 1.394 . S
C446 H454 0.930 . S
C447 C446 1.394 . S
C447 C448 1.383 . S
C447 H455 0.929 . S
C448 C447 1.383 . S
C448 C449 1.377 . S
C449 H433 0.930 . S
C449 C448 1.377 . S
C449 C450 1.379 . S
C450 H434 0.931 . S
C450 C444 1.383 . S
C450 C449 1.379 . S
H451 C445 0.959 . S
H452 C445 0.961 . S
H453 C445 0.960 . S
H454 C446 0.930 . S
H455 C447 0.929 . S
H456 C464 0.929 . S
H457 C466 0.930 . S
H458 C468 0.930 . S
H459 C471 0.929 . S
H460 C474 0.930 . S
H461 C476 0.960 . S
H462 C476 0.960 . S
H463 C476 0.960 . S
C464 H456 0.929 . S
C464 C465 1.377 . S
C464 C466 1.384 . S
C465 C464 1.377 . S
C465 C471 1.390 . S
C466 H457 0.930 . S
C466 C464 1.384 . S
C466 C467 1.372 . S
C467 C466 1.372 . S
C467 C468 1.400 . S
C467 C472 1.490 . S
C468 H458 0.930 . S
C468 C467 1.400 . S
C468 C471 1.386 . S
H469 C485 0.930 . S
H470 C486 0.931 . S
C471 H459 0.929 . S
C471 C465 1.390 . S
C471 C468 1.386 . S
C472 C467 1.490 . S
C472 C474 1.395 . S
C472 C475 1.403 . S
H473 C479 0.930 . S
C474 H460 0.930 . S
C474 C472 1.395 . S
C474 C477 1.403 . S
C475 C472 1.403 . S
C475 C476 1.524 . S
C475 C479 1.400 . S
C476 H461 0.960 . S
C476 H462 0.960 . S
C476 H463 0.960 . S
C476 C475 1.524 . S
C477 C474 1.403 . S
C477 C478 1.392 . S
C477 C481 1.495 . S
C478 C477 1.392 . S
C478 C479 1.385 . S
C478 C480 1.478 . S
C479 H473 0.930 . S
C479 C475 1.400 . S
C479 C478 1.385 . S
C480 C478 1.478 . S
C480 C482 1.381 . S
C480 C486 1.383 . S
C481 C477 1.495 . S
C481 H487 0.959 . S
C481 H488 0.961 . S
C481 H489 0.960 . S
C482 C480 1.381 . S
C482 C483 1.394 . S
C482 H490 0.930 . S
C483 C482 1.394 . S
C483 C484 1.383 . S
C483 H491 0.929 . S
C484 C483 1.383 . S
C484 C485 1.377 . S
C485 H469 0.930 . S
C485 C484 1.377 . S
C485 C486 1.379 . S
C486 H470 0.931 . S
C486 C480 1.383 . S
C486 C485 1.379 . S
H487 C481 0.959 . S
H488 C481 0.961 . S
H489 C481 0.960 . S
H490 C482 0.930 . S
H491 C483 0.929 . S
H492 C500 0.929 . S
H493 C502 0.930 . S
H494 C504 0.930 . S
H495 C507 0.929 . S
H496 C510 0.930 . S
H497 C512 0.960 . S
H498 C512 0.960 . S
H499 C512 0.960 . S
C500 H492 0.929 . S
C500 C501 1.377 . S
C500 C502 1.384 . S
C501 C500 1.377 . S
C501 C507 1.390 . S
C502 H493 0.930 . S
C502 C500 1.384 . S
C502 C503 1.372 . S
C503 C502 1.372 . S
C503 C504 1.400 . S
C503 C508 1.490 . S
C504 H494 0.930 . S
C504 C503 1.400 . S
C504 C507 1.386 . S
H505 C521 0.930 . S
H506 C522 0.931 . S
C507 H495 0.929 . S
C507 C501 1.390 . S
C507 C504 1.386 . S
C508 C503 1.490 . S
C508 C510 1.395 . S
C508 C511 1.403 . S
H509 C515 0.930 . S
C510 H496 0.930 . S
C510 C508 1.395 . S
C510 C513 1.403 . S
C511 C508 1.403 . S
C511 C512 1.524 . S
C511 C515 1.400 . S
C512 H497 0.960 . S
C512 H498 0.960 . S
C512 H499 0.960 . S
C512 C511 1.524 . S
C513 C510 1.403 . S
C513 C514 1.392 . S
C513 C517 1.495 . S
C514 C513 1.392 . S
C514 C515 1.385 . S
C514 C516 1.478 . S
C515 H509 0.930 . S
C515 C511 1.400 . S
C515 C514 1.385 . S
C516 C514 1.478 . S
C516 C518 1.381 . S
C516 C522 1.383 . S
C517 C513 1.495 . S
C517 H523 0.959 . S
C517 H524 0.961 . S
C517 H525 0.960 . S
C518 C516 1.381 . S
C518 C519 1.394 . S
C518 H526 0.930 . S
C519 C518 1.394 . S
C519 C520 1.383 . S
C519 H527 0.929 . S
C520 C519 1.383 . S
C520 C521 1.377 . S
C521 H505 0.930 . S
C521 C520 1.377 . S
C521 C522 1.379 . S
C522 H506 0.931 . S
C522 C516 1.383 . S
C522 C521 1.379 . S
H523 C517 0.959 . S
H524 C517 0.961 . S
H525 C517 0.960 . S
H526 C518 0.930 . S
H527 C519 0.929 . S
H528 C536 0.929 . S
H529 C538 0.930 . S
H530 C540 0.930 . S
H531 C543 0.929 . S
H532 C546 0.930 . S
H533 C548 0.960 . S
H534 C548 0.960 . S
H535 C548 0.960 . S
C536 H528 0.929 . S
C536 C537 1.377 . S
C536 C538 1.384 . S
C537 C536 1.377 . S
C537 C543 1.390 . S
C538 H529 0.930 . S
C538 C536 1.384 . S
C538 C539 1.372 . S
C539 C538 1.372 . S
C539 C540 1.400 . S
C539 C544 1.490 . S
C540 H530 0.930 . S
C540 C539 1.400 . S
C540 C543 1.386 . S
H541 C557 0.930 1_554 S
H542 C558 0.931 . S
C543 H531 0.929 . S
C543 C537 1.390 . S
C543 C540 1.386 . S
C544 C539 1.490 . S
C544 C546 1.395 . S
C544 C547 1.403 . S
H545 C551 0.930 . S
C546 H532 0.930 . S
C546 C544 1.395 . S
C546 C549 1.403 . S
C547 C544 1.403 . S
C547 C548 1.524 . S
C547 C551 1.400 . S
C548 H533 0.960 . S
C548 H534 0.960 . S
C548 H535 0.960 . S
C548 C547 1.524 . S
C549 C546 1.403 . S
C549 C550 1.392 . S
C549 C553 1.495 . S
C550 C549 1.392 . S
C550 C551 1.385 . S
C550 C552 1.478 . S
C551 H545 0.930 . S
C551 C547 1.400 . S
C551 C550 1.385 . S
C552 C550 1.478 . S
C552 C554 1.381 . S
C552 C558 1.383 . S
C553 C549 1.495 . S
C553 H559 0.959 . S
C553 H560 0.961 . S
C553 H561 0.960 . S
C554 C552 1.381 . S
C554 C555 1.394 . S
C554 H562 0.930 . S
C555 C554 1.394 . S
C555 C556 1.383 . S
C555 H563 0.929 . S
C556 C555 1.383 . S
C556 C557 1.377 . S
C557 H541 0.930 1_556 S
C557 C556 1.377 . S
C557 C558 1.379 . S
C558 H542 0.931 . S
C558 C552 1.383 . S
C558 C557 1.379 . S
H559 C553 0.959 . S
H560 C553 0.961 . S
H561 C553 0.960 . S
H562 C554 0.930 . S
H563 C555 0.929 . S
H564 C572 0.929 . S
H565 C574 0.930 . S
H566 C576 0.930 . S
H567 C579 0.929 . S
H568 C582 0.930 . S
H569 C584 0.960 . S
H570 C584 0.960 . S
H571 C584 0.960 . S
C572 H564 0.929 . S
C572 C573 1.377 . S
C572 C574 1.384 . S
C573 C572 1.377 . S
C573 C579 1.390 . S
C574 H565 0.930 . S
C574 C572 1.384 . S
C574 C575 1.372 . S
C575 C574 1.372 . S
C575 C576 1.400 . S
C575 C580 1.490 . S
C576 H566 0.930 . S
C576 C575 1.400 . S
C576 C579 1.386 . S
H577 C593 0.930 . S
H578 C594 0.931 . S
C579 H567 0.929 . S
C579 C573 1.390 . S
C579 C576 1.386 . S
C580 C575 1.490 . S
C580 C582 1.395 . S
C580 C583 1.403 . S
H581 C587 0.930 . S
C582 H568 0.930 . S
C582 C580 1.395 . S
C582 C585 1.403 . S
C583 C580 1.403 . S
C583 C584 1.524 . S
C583 C587 1.400 . S
C584 H569 0.960 . S
C584 H570 0.960 . S
C584 H571 0.960 . S
C584 C583 1.524 . S
C585 C582 1.403 . S
C585 C586 1.392 . S
C585 C589 1.495 . S
C586 C585 1.392 . S
C586 C587 1.385 . S
C586 C588 1.478 . S
C587 H581 0.930 . S
C587 C583 1.400 . S
C587 C586 1.385 . S
C588 C586 1.478 . S
C588 C590 1.381 . S
C588 C594 1.383 . S
C589 C585 1.495 . S
C589 H595 0.959 . S
C589 H596 0.961 . S
C589 H597 0.960 . S
C590 C588 1.381 . S
C590 C591 1.394 . S
C590 H598 0.930 . S
C591 C590 1.394 . S
C591 C592 1.383 . S
C591 H599 0.929 . S
C592 C591 1.383 . S
C592 C593 1.377 . S
C593 H577 0.930 . S
C593 C592 1.377 . S
C593 C594 1.379 . S
C594 H578 0.931 . S
C594 C588 1.383 . S
C594 C593 1.379 . S
H595 C589 0.959 . S
H596 C589 0.961 . S
H597 C589 0.960 . S
H598 C590 0.930 . S
H599 C591 0.929 . S
H600 C608 0.929 . S
H601 C610 0.930 . S
H602 C612 0.930 . S
H603 C615 0.929 . S
H604 C618 0.930 . S
H605 C620 0.960 . S
H606 C620 0.960 . S
H607 C620 0.960 . S
C608 H600 0.929 . S
C608 C609 1.377 . S
C608 C610 1.384 . S
C609 C608 1.377 . S
C609 C615 1.390 . S
C610 H601 0.930 . S
C610 C608 1.384 . S
C610 C611 1.372 . S
C611 C610 1.372 . S
C611 C612 1.400 . S
C611 C616 1.490 . S
C612 H602 0.930 . S
C612 C611 1.400 . S
C612 C615 1.386 . S
H613 C629 0.964 . S
H614 C630 0.931 . S
C615 H603 0.929 . S
C615 C609 1.390 . S
C615 C612 1.386 . S
C616 C611 1.490 . S
C616 C618 1.395 . S
C616 C619 1.403 . S
H617 C623 0.930 . S
C618 H604 0.930 . S
C618 C616 1.395 . S
C618 C621 1.403 . S
C619 C616 1.403 . S
C619 C620 1.524 . S
C619 C623 1.400 . S
C620 H605 0.960 . S
C620 H606 0.960 . S
C620 H607 0.960 . S
C620 C619 1.524 . S
C621 C618 1.403 . S
C621 C622 1.392 . S
C621 C625 1.495 . S
C622 C621 1.392 . S
C622 C623 1.385 . S
C622 C624 1.478 . S
C623 H617 0.930 . S
C623 C619 1.400 . S
C623 C622 1.385 . S
C624 C622 1.478 . S
C624 C626 1.381 . S
C624 C630 1.383 . S
C625 C621 1.495 . S
C625 H631 0.959 . S
C625 H632 0.961 . S
C625 H633 0.960 . S
C626 C624 1.381 . S
C626 C627 1.394 . S
C626 H634 0.930 . S
C627 C626 1.394 . S
C627 C628 1.383 . S
C627 H635 0.929 . S
C628 C627 1.383 . S
C628 C629 1.377 . S
C629 H613 0.964 . S
C629 C628 1.377 . S
C629 C630 1.379 . S
C630 H614 0.931 . S
C630 C624 1.383 . S
C630 C629 1.379 . S
H631 C625 0.959 . S
H632 C625 0.961 . S
H633 C625 0.960 . S
H634 C626 0.930 . S
H635 C627 0.929 . S
H636 C644 0.929 . S
H637 C646 0.930 . S
H638 C648 0.930 . S
H639 C651 0.929 . S
H640 C654 0.930 . S
H641 C656 0.960 1_554 S
H642 C656 0.960 . S
H643 C656 0.960 . S
C644 H636 0.929 . S
C644 C645 1.377 . S
C644 C646 1.384 . S
C645 C644 1.377 . S
C645 C651 1.390 . S
C646 H637 0.930 . S
C646 C644 1.384 . S
C646 C647 1.372 . S
C647 C646 1.372 . S
C647 C648 1.400 . S
C647 C652 1.490 . S
C648 H638 0.930 . S
C648 C647 1.400 . S
C648 C651 1.386 . S
H649 C665 0.930 . S
H650 C666 0.931 . S
C651 H639 0.929 . S
C651 C645 1.390 . S
C651 C648 1.386 . S
C652 C647 1.490 . S
C652 C654 1.395 . S
C652 C655 1.403 . S
H653 C659 0.930 1_554 S
C654 H640 0.930 . S
C654 C652 1.395 . S
C654 C657 1.403 . S
C655 C652 1.403 . S
C655 C656 1.524 . S
C655 C659 1.400 . S
C656 H641 0.960 1_556 S
C656 H642 0.960 . S
C656 H643 0.960 . S
C656 C655 1.524 . S
C657 C654 1.403 . S
C657 C658 1.392 . S
C657 C661 1.495 . S
C658 C657 1.392 . S
C658 C659 1.385 . S
C658 C660 1.478 . S
C659 H653 0.930 1_556 S
C659 C655 1.400 . S
C659 C658 1.385 . S
C660 C658 1.478 . S
C660 C662 1.381 . S
C660 C666 1.383 . S
C661 C657 1.495 . S
C661 H667 0.959 . S
C661 H668 0.961 . S
C661 H669 0.960 . S
C662 C660 1.381 . S
C662 C663 1.394 . S
C662 H670 0.930 . S
C663 C662 1.394 . S
C663 C664 1.383 1_556 S
C663 H671 0.929 . S
C664 C663 1.383 1_554 S
C664 C665 1.377 . S
C665 H649 0.930 . S
C665 C664 1.377 . S
C665 C666 1.379 1_554 S
C666 H650 0.931 . S
C666 C660 1.383 . S
C666 C665 1.379 1_556 S
H667 C661 0.959 . S
H668 C661 0.961 . S
H669 C661 0.960 . S
H670 C662 0.930 . S
H671 C663 0.929 . S
H672 C680 0.929 . S
H673 C682 0.930 . S
H674 C684 0.930 . S
H675 C687 0.929 . S
H676 C690 0.930 . S
H677 C692 0.960 . S
H678 C692 0.960 . S
H679 C692 0.960 . S
C680 H672 0.929 . S
C680 C681 1.377 . S
C680 C682 1.384 . S
C681 C680 1.377 . S
C681 C687 1.390 . S
C682 H673 0.930 . S
C682 C680 1.384 . S
C682 C683 1.372 . S
C683 C682 1.372 . S
C683 C684 1.400 . S
C683 C688 1.490 . S
C684 H674 0.930 . S
C684 C683 1.400 . S
C684 C687 1.386 . S
H685 C701 0.930 . S
H686 C702 0.931 . S
C687 H675 0.929 . S
C687 C681 1.390 . S
C687 C684 1.386 . S
C688 C683 1.490 . S
C688 C690 1.395 . S
C688 C691 1.403 . S
H689 C695 0.930 . S
C690 H676 0.930 . S
C690 C688 1.395 . S
C690 C693 1.403 . S
C691 C688 1.403 . S
C691 C692 1.524 . S
C691 C695 1.400 . S
C692 H677 0.960 . S
C692 H678 0.960 . S
C692 H679 0.960 . S
C692 C691 1.524 . S
C693 C690 1.403 . S
C693 C694 1.392 . S
C693 C697 1.495 . S
C694 C693 1.392 . S
C694 C695 1.385 . S
C694 C696 1.478 . S
C695 H689 0.930 . S
C695 C691 1.400 . S
C695 C694 1.385 . S
C696 C694 1.478 . S
C696 C698 1.381 . S
C696 C702 1.383 . S
C697 C693 1.495 . S
C697 H703 0.959 . S
C697 H704 0.961 . S
C697 H705 0.960 . S
C698 C696 1.381 . S
C698 C699 1.394 . S
C698 H706 0.930 . S
C699 C698 1.394 . S
C699 C700 1.383 . S
C699 H707 0.929 1_655 S
C700 C699 1.383 . S
C700 C701 1.377 . S
C701 H685 0.930 . S
C701 C700 1.377 . S
C701 C702 1.379 . S
C702 H686 0.931 . S
C702 C696 1.383 . S
C702 C701 1.379 . S
H703 C697 0.959 . S
H704 C697 0.961 . S
H705 C697 0.960 . S
H706 C698 0.930 . S
H707 C699 0.929 1_455 S
H708 C716 0.929 . S
H709 C718 0.930 . S
H710 C720 0.930 . S
H711 C723 0.929 . S
H712 C726 0.930 . S
H713 C728 0.960 . S
H714 C728 0.960 . S
H715 C728 0.960 . S
C716 H708 0.929 . S
C716 C717 1.377 . S
C716 C718 1.384 . S
C717 C716 1.377 . S
C717 C723 1.390 . S
C718 H709 0.930 . S
C718 C716 1.384 . S
C718 C719 1.372 . S
C719 C718 1.372 . S
C719 C720 1.400 . S
C719 C724 1.490 . S
C720 H710 0.930 . S
C720 C719 1.400 . S
C720 C723 1.386 . S
H721 C737 0.930 . S
H722 C738 0.931 . S
C723 H711 0.929 . S
C723 C717 1.390 . S
C723 C720 1.386 . S
C724 C719 1.490 . S
C724 C726 1.395 . S
C724 C727 1.403 . S
H725 C731 0.930 . S
C726 H712 0.930 . S
C726 C724 1.395 . S
C726 C729 1.403 . S
C727 C724 1.403 . S
C727 C728 1.524 . S
C727 C731 1.400 . S
C728 H713 0.960 . S
C728 H714 0.960 . S
C728 H715 0.960 . S
C728 C727 1.524 . S
C729 C726 1.403 . S
C729 C730 1.392 . S
C729 C733 1.495 . S
C730 C729 1.392 . S
C730 C731 1.385 . S
C730 C732 1.478 . S
C731 H725 0.930 . S
C731 C727 1.400 . S
C731 C730 1.385 . S
C732 C730 1.478 . S
C732 C734 1.381 . S
C732 C738 1.383 . S
C733 C729 1.495 . S
C733 H739 0.959 . S
C733 H740 0.961 . S
C733 H741 0.960 . S
C734 C732 1.381 . S
C734 C735 1.394 . S
C734 H742 0.930 . S
C735 C734 1.394 . S
C735 C736 1.383 . S
C735 H743 0.929 . S
C736 C735 1.383 . S
C736 C737 1.377 . S
C737 H721 0.930 . S
C737 C736 1.377 . S
C737 C738 1.379 . S
C738 H722 0.931 . S
C738 C732 1.383 . S
C738 C737 1.379 . S
H739 C733 0.959 . S
H740 C733 0.961 . S
H741 C733 0.960 . S
H742 C734 0.930 . S
H743 C735 0.929 . S
H744 C752 0.929 . S
H745 C754 0.930 . S
H746 C756 0.930 . S
H747 C759 0.929 . S
H748 C762 0.930 . S
H749 C764 0.960 . S
H750 C764 0.960 . S
H751 C764 0.960 . S
C752 H744 0.929 . S
C752 C753 1.377 . S
C752 C754 1.384 . S
C753 C752 1.377 . S
C753 C759 1.390 . S
C754 H745 0.930 . S
C754 C752 1.384 . S
C754 C755 1.372 . S
C755 C754 1.372 . S
C755 C756 1.400 . S
C755 C760 1.490 . S
C756 H746 0.930 . S
C756 C755 1.400 . S
C756 C759 1.386 . S
H757 C773 0.930 . S
H758 C774 0.931 . S
C759 H747 0.929 . S
C759 C753 1.390 . S
C759 C756 1.386 . S
C760 C755 1.490 . S
C760 C762 1.395 . S
C760 C763 1.403 . S
H761 C767 0.930 . S
C762 H748 0.930 . S
C762 C760 1.395 . S
C762 C765 1.403 . S
C763 C760 1.403 . S
C763 C764 1.524 . S
C763 C767 1.400 . S
C764 H749 0.960 . S
C764 H750 0.960 . S
C764 H751 0.960 . S
C764 C763 1.524 . S
C765 C762 1.403 . S
C765 C766 1.392 . S
C765 C769 1.495 . S
C766 C765 1.392 . S
C766 C767 1.385 . S
C766 C768 1.478 . S
C767 H761 0.930 . S
C767 C763 1.400 . S
C767 C766 1.385 . S
C768 C766 1.478 . S
C768 C770 1.381 . S
C768 C774 1.383 . S
C769 C765 1.495 . S
C769 H775 0.967 . S
C769 H776 0.961 . S
C769 H777 0.960 . S
C770 C768 1.381 . S
C770 C771 1.394 . S
C770 H778 0.930 . S
C771 C770 1.394 . S
C771 C772 1.383 . S
C771 H779 0.929 1_565 S
C772 C771 1.383 . S
C772 C773 1.377 . S
C773 H757 0.930 . S
C773 C772 1.377 . S
C773 C774 1.379 . S
C774 H758 0.931 . S
C774 C768 1.383 . S
C774 C773 1.379 . S
H775 C769 0.967 . S
H776 C769 0.961 . S
H777 C769 0.960 . S
H778 C770 0.930 . S
H779 C771 0.929 1_545 S
H780 C788 0.929 . S
H781 C790 0.930 . S
H782 C792 0.930 . S
H783 C795 0.929 . S
H784 C798 0.930 . S
H785 C800 0.960 . S
H786 C800 0.960 . S
H787 C800 0.960 . S
C788 H780 0.929 . S
C788 C789 1.377 . S
C788 C790 1.384 . S
C789 C788 1.377 . S
C789 C795 1.390 . S
C790 H781 0.930 . S
C790 C788 1.384 . S
C790 C791 1.372 . S
C791 C790 1.372 . S
C791 C792 1.400 . S
C791 C796 1.490 . S
C792 H782 0.930 . S
C792 C791 1.400 . S
C792 C795 1.386 . S
H793 C809 0.930 . S
H794 C810 0.931 . S
C795 H783 0.929 . S
C795 C789 1.390 . S
C795 C792 1.386 . S
C796 C791 1.490 . S
C796 C798 1.395 . S
C796 C799 1.403 . S
H797 C803 0.930 . S
C798 H784 0.930 . S
C798 C796 1.395 . S
C798 C801 1.403 . S
C799 C796 1.403 . S
C799 C800 1.524 . S
C799 C803 1.400 . S
C800 H785 0.960 . S
C800 H786 0.960 . S
C800 H787 0.960 . S
C800 C799 1.524 . S
C801 C798 1.403 . S
C801 C802 1.392 . S
C801 C805 1.495 . S
C802 C801 1.392 . S
C802 C803 1.385 . S
C802 C804 1.478 . S
C803 H797 0.930 . S
C803 C799 1.400 . S
C803 C802 1.385 . S
C804 C802 1.478 . S
C804 C806 1.381 . S
C804 C810 1.383 . S
C805 C801 1.495 . S
C805 H811 0.959 . S
C805 H812 0.961 . S
C805 H813 0.960 . S
C806 C804 1.381 . S
C806 C807 1.394 . S
C806 H814 0.930 . S
C807 C806 1.394 . S
C807 C808 1.383 . S
C807 H815 0.929 . S
C808 C807 1.383 . S
C808 C809 1.377 . S
C809 H793 0.930 . S
C809 C808 1.377 . S
C809 C810 1.379 . S
C810 H794 0.931 . S
C810 C804 1.383 . S
C810 C809 1.379 . S
H811 C805 0.959 . S
H812 C805 0.961 . S
H813 C805 0.960 . S
H814 C806 0.930 . S
H815 C807 0.929 . S
H816 C824 0.929 . S
H817 C826 0.930 . S
H818 C828 0.930 . S
H819 C831 0.929 . S
H820 C834 0.930 . S
H821 C836 0.960 . S
H822 C836 0.960 . S
H823 C836 0.960 . S
C824 H816 0.929 . S
C824 C825 1.377 . S
C824 C826 1.384 . S
C825 C824 1.377 . S
C825 C831 1.390 . S
C826 H817 0.930 . S
C826 C824 1.384 . S
C826 C827 1.372 . S
C827 C826 1.372 . S
C827 C828 1.400 . S
C827 C832 1.490 . S
C828 H818 0.930 . S
C828 C827 1.400 . S
C828 C831 1.386 . S
H829 C845 0.930 . S
H830 C846 0.931 . S
C831 H819 0.929 . S
C831 C825 1.390 . S
C831 C828 1.386 . S
C832 C827 1.490 . S
C832 C834 1.395 . S
C832 C835 1.403 . S
H833 C839 0.930 . S
C834 H820 0.930 . S
C834 C832 1.395 . S
C834 C837 1.403 . S
C835 C832 1.403 . S
C835 C836 1.524 . S
C835 C839 1.400 . S
C836 H821 0.960 . S
C836 H822 0.960 . S
C836 H823 0.960 . S
C836 C835 1.524 . S
C837 C834 1.403 . S
C837 C838 1.392 . S
C837 C841 1.495 . S
C838 C837 1.392 . S
C838 C839 1.385 . S
C838 C840 1.478 . S
C839 H833 0.930 . S
C839 C835 1.400 . S
C839 C838 1.385 . S
C840 C838 1.478 . S
C840 C842 1.381 . S
C840 C846 1.383 . S
C841 C837 1.495 . S
C841 H847 0.959 . S
C841 H848 0.961 . S
C841 H849 0.960 . S
C842 C840 1.381 . S
C842 C843 1.394 . S
C842 H850 0.930 . S
C843 C842 1.394 . S
C843 C844 1.383 . S
C843 H851 0.929 . S
C844 C843 1.383 . S
C844 C845 1.377 . S
C845 H829 0.930 . S
C845 C844 1.377 . S
C845 C846 1.379 . S
C846 H830 0.931 . S
C846 C840 1.383 . S
C846 C845 1.379 . S
H847 C841 0.959 . S
H848 C841 0.961 . S
H849 C841 0.960 . S
H850 C842 0.930 . S
H851 C843 0.929 . S
H852 C860 0.929 . S
H853 C862 0.930 . S
H854 C864 0.930 . S
H855 C867 0.929 . S
H856 C870 0.930 . S
H857 C872 0.960 . S
H858 C872 0.960 . S
H859 C872 0.960 . S
C860 H852 0.929 . S
C860 C861 1.377 . S
C860 C862 1.384 . S
C861 C860 1.377 . S
C861 C867 1.390 . S
C862 H853 0.930 . S
C862 C860 1.384 . S
C862 C863 1.372 . S
C863 C862 1.372 . S
C863 C864 1.400 . S
C863 C868 1.490 . S
C864 H854 0.930 . S
C864 C863 1.400 . S
C864 C867 1.386 . S
H865 C881 0.930 . S
H866 C882 0.931 . S
C867 H855 0.929 . S
C867 C861 1.390 . S
C867 C864 1.386 . S
C868 C863 1.490 . S
C868 C870 1.395 . S
C868 C871 1.403 . S
H869 C875 0.930 . S
C870 H856 0.930 . S
C870 C868 1.395 . S
C870 C873 1.403 . S
C871 C868 1.403 . S
C871 C872 1.524 . S
C871 C875 1.400 . S
C872 H857 0.960 . S
C872 H858 0.960 . S
C872 H859 0.960 . S
C872 C871 1.524 . S
C873 C870 1.403 . S
C873 C874 1.392 . S
C873 C877 1.495 . S
C874 C873 1.392 . S
C874 C875 1.385 . S
C874 C876 1.478 . S
C875 H869 0.930 . S
C875 C871 1.400 . S
C875 C874 1.385 . S
C876 C874 1.478 . S
C876 C878 1.381 . S
C876 C882 1.383 . S
C877 C873 1.495 . S
C877 H883 0.959 . S
C877 H884 0.961 . S
C877 H885 0.960 . S
C878 C876 1.381 . S
C878 C879 1.394 . S
C878 H886 0.930 . S
C879 C878 1.394 . S
C879 C880 1.383 . S
C879 H887 0.929 . S
C880 C879 1.383 . S
C880 C881 1.377 . S
C881 H865 0.930 . S
C881 C880 1.377 . S
C881 C882 1.379 . S
C882 H866 0.931 . S
C882 C876 1.383 . S
C882 C881 1.379 . S
H883 C877 0.959 . S
H884 C877 0.961 . S
H885 C877 0.960 . S
H886 C878 0.930 . S
H887 C879 0.929 . S
H888 C896 0.929 . S
H889 C898 0.930 . S
H890 C900 0.930 1_554 S
H891 C903 0.929 . S
H892 C906 0.930 . S
H893 C908 0.960 . S
H894 C908 0.960 . S
H895 C908 0.960 . S
C896 H888 0.929 . S
C896 C897 1.377 . S
C896 C898 1.384 . S
C897 C896 1.377 . S
C897 C903 1.390 . S
C898 H889 0.930 . S
C898 C896 1.384 . S
C898 C899 1.372 . S
C899 C898 1.372 . S
C899 C900 1.400 . S
C899 C904 1.490 . S
C900 H890 0.930 1_556 S
C900 C899 1.400 . S
C900 C903 1.386 . S
H901 C917 0.930 . S
H902 C918 0.931 . S
C903 H891 0.929 . S
C903 C897 1.390 . S
C903 C900 1.386 . S
C904 C899 1.490 . S
C904 C906 1.395 . S
C904 C907 1.403 1_556 S
H905 C911 0.930 . S
C906 H892 0.930 . S
C906 C904 1.395 . S
C906 C909 1.403 . S
C907 C904 1.403 1_554 S
C907 C908 1.524 . S
C907 C911 1.400 . S
C908 H893 0.960 . S
C908 H894 0.960 . S
C908 H895 0.960 . S
C908 C907 1.524 . S
C909 C906 1.403 . S
C909 C910 1.392 1_556 S
C909 C913 1.495 . S
C910 C909 1.392 1_554 S
C910 C911 1.385 . S
C910 C912 1.478 . S
C911 H905 0.930 . S
C911 C907 1.400 . S
C911 C910 1.385 . S
C912 C910 1.478 . S
C912 C914 1.381 . S
C912 C918 1.383 . S
C913 C909 1.495 . S
C913 H919 0.959 . S
C913 H920 0.961 . S
C913 H921 0.960 . S
C914 C912 1.381 . S
C914 C915 1.388 1_565 S
C914 H922 0.930 1_554 S
C915 C914 1.388 1_545 S
C915 C916 1.379 1_545 S
C915 H923 0.940 . S
C916 C915 1.379 1_565 S
C916 C917 1.377 . S
C917 H901 0.930 . S
C917 C916 1.377 . S
C917 C918 1.379 . S
C918 H902 0.931 . S
C918 C912 1.383 . S
C918 C917 1.379 . S
H919 C913 0.959 . S
H920 C913 0.961 . S
H921 C913 0.960 . S
H922 C914 0.930 1_556 S
H923 C915 0.940 . S
H924 C932 0.929 . S
H925 C934 0.930 . S
H926 C936 0.930 . S
H927 C939 0.929 . S
H928 C942 0.930 . S
H929 C944 0.960 . S
H930 C944 0.960 . S
H931 C944 0.960 . S
C932 H924 0.929 . S
C932 C933 1.377 . S
C932 C934 1.384 . S
C933 C932 1.377 . S
C933 C939 1.390 . S
C934 H925 0.930 . S
C934 C932 1.384 . S
C934 C935 1.372 . S
C935 C934 1.372 . S
C935 C936 1.400 . S
C935 C940 1.490 . S
C936 H926 0.930 . S
C936 C935 1.400 . S
C936 C939 1.386 . S
H937 C953 0.930 . S
H938 C954 0.931 . S
C939 H927 0.929 . S
C939 C933 1.390 . S
C939 C936 1.386 . S
C940 C935 1.490 . S
C940 C942 1.395 . S
C940 C943 1.403 . S
H941 C947 0.930 . S
C942 H928 0.930 . S
C942 C940 1.395 . S
C942 C945 1.403 . S
C943 C940 1.403 . S
C943 C944 1.524 . S
C943 C947 1.400 . S
C944 H929 0.960 . S
C944 H930 0.960 . S
C944 H931 0.960 . S
C944 C943 1.524 . S
C945 C942 1.403 . S
C945 C946 1.392 . S
C945 C949 1.495 . S
C946 C945 1.392 . S
C946 C947 1.385 . S
C946 C948 1.478 . S
C947 H941 0.930 . S
C947 C943 1.400 . S
C947 C946 1.385 . S
C948 C946 1.478 . S
C948 C950 1.381 . S
C948 C954 1.383 . S
C949 C945 1.495 . S
C949 H955 0.959 . S
C949 H956 0.961 . S
C949 H957 0.960 . S
C950 C948 1.381 . S
C950 C951 1.394 . S
C950 H958 0.930 . S
C951 C950 1.394 . S
C951 C952 1.383 . S
C951 H959 0.929 . S
C952 C951 1.383 . S
C952 C953 1.377 . S
C953 H937 0.930 . S
C953 C952 1.377 . S
C953 C954 1.379 . S
C954 H938 0.931 . S
C954 C948 1.383 . S
C954 C953 1.379 . S
H955 C949 0.959 . S
H956 C949 0.961 . S
H957 C949 0.960 . S
H958 C950 0.930 . S
H959 C951 0.929 . S
H960 C968 0.929 . S
H961 C970 0.930 . S
H962 C972 0.930 . S
H963 C975 0.929 . S
H964 C978 0.930 . S
H965 C980 0.960 . S
H966 C980 0.960 . S
H967 C980 0.960 . S
C968 H960 0.929 . S
C968 C969 1.377 . S
C968 C970 1.384 . S
C969 C968 1.377 . S
C969 C975 1.390 . S
C970 H961 0.930 . S
C970 C968 1.384 . S
C970 C971 1.372 . S
C971 C970 1.372 . S
C971 C972 1.400 . S
C971 C976 1.490 . S
C972 H962 0.930 . S
C972 C971 1.400 . S
C972 C975 1.386 . S
H973 C989 0.930 . S
H974 C990 0.931 . S
C975 H963 0.929 . S
C975 C969 1.390 . S
C975 C972 1.386 . S
C976 C971 1.490 . S
C976 C978 1.395 . S
C976 C979 1.403 . S
H977 C983 0.930 . S
C978 H964 0.930 . S
C978 C976 1.395 . S
C978 C981 1.403 . S
C979 C976 1.403 . S
C979 C980 1.524 . S
C979 C983 1.400 . S
C980 H965 0.960 . S
C980 H966 0.960 . S
C980 H967 0.960 . S
C980 C979 1.524 . S
C981 C978 1.403 . S
C981 C982 1.392 . S
C981 C985 1.495 . S
C982 C981 1.392 . S
C982 C983 1.385 . S
C982 C984 1.478 . S
C983 H977 0.930 . S
C983 C979 1.400 . S
C983 C982 1.385 . S
C984 C982 1.478 . S
C984 C986 1.381 . S
C984 C990 1.383 . S
C985 C981 1.495 . S
C985 H991 0.959 . S
C985 H992 0.961 . S
C985 H993 0.960 . S
C986 C984 1.381 . S
C986 C987 1.394 . S
C986 H994 0.930 . S
C987 C986 1.394 . S
C987 C988 1.383 . S
C987 H995 0.929 . S
C988 C987 1.383 . S
C988 C989 1.377 . S
C989 H973 0.930 . S
C989 C988 1.377 . S
C989 C990 1.379 . S
C990 H974 0.931 . S
C990 C984 1.383 . S
C990 C989 1.379 . S
H991 C985 0.959 . S
H992 C985 0.961 . S
H993 C985 0.960 . S
H994 C986 0.930 . S
H995 C987 0.929 . S
H996 C1004 0.929 . S
H997 C1006 0.930 . S
H998 C1008 0.930 . S
H999 C1011 0.929 . S
H1000 C1014 0.930 . S
H1001 C1016 0.960 . S
H1002 C1016 0.960 . S
H1003 C1016 0.960 . S
C1004 H996 0.929 . S
C1004 C1005 1.377 . S
C1004 C1006 1.384 . S
C1005 C1004 1.377 . S
C1005 C1011 1.390 . S
C1006 H997 0.930 . S
C1006 C1004 1.384 . S
C1006 C1007 1.372 . S
C1007 C1006 1.372 . S
C1007 C1008 1.400 . S
C1007 C1012 1.490 . S
C1008 H998 0.930 . S
C1008 C1007 1.400 . S
C1008 C1011 1.386 . S
H1009 C1025 0.930 . S
H1010 C1026 0.931 . S
C1011 H999 0.929 . S
C1011 C1005 1.390 . S
C1011 C1008 1.386 . S
C1012 C1007 1.490 . S
C1012 C1014 1.395 . S
C1012 C1015 1.403 . S
H1013 C1019 0.930 . S
C1014 H1000 0.930 . S
C1014 C1012 1.395 . S
C1014 C1017 1.403 . S
C1015 C1012 1.403 . S
C1015 C1016 1.524 . S
C1015 C1019 1.400 . S
C1016 H1001 0.960 . S
C1016 H1002 0.960 . S
C1016 H1003 0.960 . S
C1016 C1015 1.524 . S
C1017 C1014 1.403 . S
C1017 C1018 1.392 . S
C1017 C1021 1.495 . S
C1018 C1017 1.392 . S
C1018 C1019 1.385 . S
C1018 C1020 1.478 . S
C1019 H1013 0.930 . S
C1019 C1015 1.400 . S
C1019 C1018 1.385 . S
C1020 C1018 1.478 . S
C1020 C1022 1.381 . S
C1020 C1026 1.383 . S
C1021 C1017 1.495 . S
C1021 H1027 0.959 . S
C1021 H1028 0.961 . S
C1021 H1029 0.960 . S
C1022 C1020 1.381 . S
C1022 C1023 1.394 . S
C1022 H1030 0.930 . S
C1023 C1022 1.394 . S
C1023 C1024 1.383 . S
C1023 H1031 0.929 . S
C1024 C1023 1.383 . S
C1024 C1025 1.377 . S
C1025 H1009 0.930 . S
C1025 C1024 1.377 . S
C1025 C1026 1.379 . S
C1026 H1010 0.931 . S
C1026 C1020 1.383 . S
C1026 C1025 1.379 . S
H1027 C1021 0.959 . S
H1028 C1021 0.961 . S
H1029 C1021 0.960 . S
H1030 C1022 0.930 . S
H1031 C1023 0.929 . S
H1032 C1040 0.929 . S
H1033 C1042 0.930 . S
H1034 C1044 0.930 . S
H1035 C1047 0.929 . S
H1036 C1050 0.930 . S
H1037 C1052 0.960 . S
H1038 C1052 0.960 . S
H1039 C1052 0.960 . S
C1040 H1032 0.929 . S
C1040 C1041 1.377 . S
C1040 C1042 1.384 . S
C1041 C1040 1.377 . S
C1041 C1047 1.390 . S
C1042 H1033 0.930 . S
C1042 C1040 1.384 . S
C1042 C1043 1.372 . S
C1043 C1042 1.372 . S
C1043 C1044 1.400 . S
C1043 C1048 1.490 . S
C1044 H1034 0.930 . S
C1044 C1043 1.400 . S
C1044 C1047 1.386 . S
H1045 C1061 0.930 . S
H1046 C1062 0.931 . S
C1047 H1035 0.929 . S
C1047 C1041 1.390 . S
C1047 C1044 1.386 . S
C1048 C1043 1.490 . S
C1048 C1050 1.395 . S
C1048 C1051 1.403 . S
H1049 C1055 0.930 . S
C1050 H1036 0.930 . S
C1050 C1048 1.395 . S
C1050 C1053 1.403 . S
C1051 C1048 1.403 . S
C1051 C1052 1.524 . S
C1051 C1055 1.400 . S
C1052 H1037 0.960 . S
C1052 H1038 0.960 . S
C1052 H1039 0.960 . S
C1052 C1051 1.524 . S
C1053 C1050 1.403 . S
C1053 C1054 1.392 . S
C1053 C1057 1.495 1_556 S
C1054 C1053 1.392 . S
C1054 C1055 1.385 . S
C1054 C1056 1.478 . S
C1055 H1049 0.930 . S
C1055 C1051 1.400 . S
C1055 C1054 1.385 . S
C1056 C1054 1.478 . S
C1056 C1058 1.381 . S
C1056 C1062 1.383 . S
C1057 C1053 1.495 1_554 S
C1057 H1063 0.959 . S
C1057 H1064 0.961 . S
C1057 H1065 0.960 . S
C1058 C1056 1.381 . S
C1058 C1059 1.397 1_655 S
C1058 H1066 0.929 1_655 S
C1059 C1058 1.397 1_455 S
C1059 C1060 1.388 1_455 S
C1059 H1067 0.922 1_556 S
C1060 C1059 1.388 1_655 S
C1060 C1061 1.377 . S
C1061 H1045 0.930 . S
C1061 C1060 1.377 . S
C1061 C1062 1.379 . S
C1062 H1046 0.931 . S
C1062 C1056 1.383 . S
C1062 C1061 1.379 . S
H1063 C1057 0.959 . S
H1064 C1057 0.961 . S
H1065 C1057 0.960 . S
H1066 C1058 0.929 1_455 S
H1067 C1059 0.922 1_554 S
H1068 C1076 0.929 . S
H1069 C1078 0.930 . S
H1070 C1080 0.930 . S
H1071 C1083 0.929 . S
H1072 C1086 0.930 . S
H1073 C1088 0.960 . S
H1074 C1088 0.960 . S
H1075 C1088 0.960 . S
C1076 H1068 0.929 . S
C1076 C1077 1.377 . S
C1076 C1078 1.384 . S
C1077 C1076 1.377 . S
C1077 C1083 1.390 . S
C1078 H1069 0.930 . S
C1078 C1076 1.384 . S
C1078 C1079 1.372 . S
C1079 C1078 1.372 . S
C1079 C1080 1.400 . S
C1079 C1084 1.490 . S
C1080 H1070 0.930 . S
C1080 C1079 1.400 . S
C1080 C1083 1.386 . S
H1081 C1097 0.930 . S
H1082 C1098 0.931 . S
C1083 H1071 0.929 . S
C1083 C1077 1.390 . S
C1083 C1080 1.386 . S
C1084 C1079 1.490 . S
C1084 C1086 1.395 . S
C1084 C1087 1.403 . S
H1085 C1091 0.930 . S
C1086 H1072 0.930 . S
C1086 C1084 1.395 . S
C1086 C1089 1.403 . S
C1087 C1084 1.403 . S
C1087 C1088 1.524 . S
C1087 C1091 1.400 . S
C1088 H1073 0.960 . S
C1088 H1074 0.960 . S
C1088 H1075 0.960 . S
C1088 C1087 1.524 . S
C1089 C1086 1.403 . S
C1089 C1090 1.392 . S
C1089 C1093 1.495 . S
C1090 C1089 1.392 . S
C1090 C1091 1.385 . S
C1090 C1092 1.478 . S
C1091 H1085 0.930 . S
C1091 C1087 1.400 . S
C1091 C1090 1.385 . S
C1092 C1090 1.478 . S
C1092 C1094 1.381 . S
C1092 C1098 1.383 . S
C1093 C1089 1.495 . S
C1093 H1099 0.959 . S
C1093 H1100 0.961 . S
C1093 H1101 0.960 . S
C1094 C1092 1.381 . S
C1094 C1095 1.394 . S
C1094 H1102 0.930 . S
C1095 C1094 1.394 . S
C1095 C1096 1.383 . S
C1095 H1103 0.929 . S
C1096 C1095 1.383 . S
C1096 C1097 1.377 . S
C1097 H1081 0.930 . S
C1097 C1096 1.377 . S
C1097 C1098 1.379 . S
C1098 H1082 0.931 . S
C1098 C1092 1.383 . S
C1098 C1097 1.379 . S
H1099 C1093 0.959 . S
H1100 C1093 0.961 . S
H1101 C1093 0.960 . S
H1102 C1094 0.930 . S
H1103 C1095 0.929 . S
H1104 C1112 0.929 . S
H1105 C1114 0.930 . S
H1106 C1116 0.930 . S
H1107 C1119 0.929 . S
H1108 C1122 0.930 . S
H1109 C1124 0.960 . S
H1110 C1124 0.960 . S
H1111 C1124 0.960 . S
C1112 H1104 0.929 . S
C1112 C1113 1.377 . S
C1112 C1114 1.384 . S
C1113 C1112 1.377 . S
C1113 C1119 1.390 . S
C1114 H1105 0.930 . S
C1114 C1112 1.384 . S
C1114 C1115 1.372 . S
C1115 C1114 1.372 . S
C1115 C1116 1.400 . S
C1115 C1120 1.490 . S
C1116 H1106 0.930 . S
C1116 C1115 1.400 . S
C1116 C1119 1.386 . S
H1117 C1133 0.930 . S
H1118 C1134 0.931 . S
C1119 H1107 0.929 . S
C1119 C1113 1.390 . S
C1119 C1116 1.386 . S
C1120 C1115 1.490 . S
C1120 C1122 1.395 . S
C1120 C1123 1.403 . S
H1121 C1127 0.930 . S
C1122 H1108 0.930 . S
C1122 C1120 1.395 . S
C1122 C1125 1.403 . S
C1123 C1120 1.403 . S
C1123 C1124 1.524 . S
C1123 C1127 1.400 . S
C1124 H1109 0.960 . S
C1124 H1110 0.960 . S
C1124 H1111 0.960 . S
C1124 C1123 1.524 . S
C1125 C1122 1.403 . S
C1125 C1126 1.392 . S
C1125 C1129 1.495 . S
C1126 C1125 1.392 . S
C1126 C1127 1.385 . S
C1126 C1128 1.478 . S
C1127 H1121 0.930 . S
C1127 C1123 1.400 . S
C1127 C1126 1.385 . S
C1128 C1126 1.478 . S
C1128 C1130 1.381 . S
C1128 C1134 1.383 . S
C1129 C1125 1.495 . S
C1129 H1135 0.959 . S
C1129 H1136 0.961 . S
C1129 H1137 0.960 . S
C1130 C1128 1.381 . S
C1130 C1131 1.394 . S
C1130 H1138 0.930 . S
C1131 C1130 1.394 . S
C1131 C1132 1.383 . S
C1131 H1139 0.929 . S
C1132 C1131 1.383 . S
C1132 C1133 1.377 . S
C1133 H1117 0.930 . S
C1133 C1132 1.377 . S
C1133 C1134 1.379 . S
C1134 H1118 0.931 . S
C1134 C1128 1.383 . S
C1134 C1133 1.379 . S
H1135 C1129 0.959 . S
H1136 C1129 0.961 . S
H1137 C1129 0.960 . S
H1138 C1130 0.930 . S
H1139 C1131 0.929 . S
H1140 C1148 0.929 . S
H1141 C1150 0.930 . S
H1142 C1152 0.930 . S
H1143 C1155 0.929 . S
H1144 C1158 0.930 . S
H1145 C1160 0.960 . S
H1146 C1160 0.960 . S
H1147 C1160 0.960 . S
C1148 H1140 0.929 . S
C1148 C1149 1.377 . S
C1148 C1150 1.384 . S
C1149 C1148 1.377 . S
C1149 C1155 1.390 . S
C1150 H1141 0.930 . S
C1150 C1148 1.384 . S
C1150 C1151 1.372 . S
C1151 C1150 1.372 . S
C1151 C1152 1.400 . S
C1151 C1156 1.490 . S
C1152 H1142 0.930 . S
C1152 C1151 1.400 . S
C1152 C1155 1.386 . S
H1153 C1169 0.930 . S
H1154 C1170 0.931 . S
C1155 H1143 0.929 . S
C1155 C1149 1.390 . S
C1155 C1152 1.386 . S
C1156 C1151 1.490 . S
C1156 C1158 1.395 . S
C1156 C1159 1.403 . S
H1157 C1163 0.930 . S
C1158 H1144 0.930 . S
C1158 C1156 1.395 . S
C1158 C1161 1.403 . S
C1159 C1156 1.403 . S
C1159 C1160 1.524 . S
C1159 C1163 1.400 . S
C1160 H1145 0.960 . S
C1160 H1146 0.960 . S
C1160 H1147 0.960 . S
C1160 C1159 1.524 . S
C1161 C1158 1.403 . S
C1161 C1162 1.392 . S
C1161 C1165 1.495 . S
C1162 C1161 1.392 . S
C1162 C1163 1.385 . S
C1162 C1164 1.478 . S
C1163 H1157 0.930 . S
C1163 C1159 1.400 . S
C1163 C1162 1.385 . S
C1164 C1162 1.478 . S
C1164 C1166 1.381 . S
C1164 C1170 1.383 . S
C1165 C1161 1.495 . S
C1165 H1171 0.959 . S
C1165 H1172 0.961 . S
C1165 H1173 0.960 . S
C1166 C1164 1.381 . S
C1166 C1167 1.394 . S
C1166 H1174 0.930 . S
C1167 C1166 1.394 . S
C1167 C1168 1.383 . S
C1167 H1175 0.929 . S
C1168 C1167 1.383 . S
C1168 C1169 1.377 . S
C1169 H1153 0.930 . S
C1169 C1168 1.377 . S
C1169 C1170 1.379 . S
C1170 H1154 0.931 . S
C1170 C1164 1.383 . S
C1170 C1169 1.379 . S
H1171 C1165 0.959 . S
H1172 C1165 0.961 . S
H1173 C1165 0.960 . S
H1174 C1166 0.930 . S
H1175 C1167 0.929 . S
C321 C6 3.231 . S
C340 C171 3.202 . S
C357 C21 2.763 . S
C376 C202 2.784 . S
C412 C241 0.593 . S
C393 C49 0.574 . S
C429 C68 0.566 . S
C448 C278 0.276 . S
C484 C201 3.756 . S
C465 C2 3.797 . S
C520 C158 1.237 . S
C501 C30 1.207 . S
C556 C290 0.871 . S
C537 C40 0.853 . S
C592 C247 0.712 . S
C573 C63 0.731 . S
C609 C11 2.271 . S
C628 C291 2.514 . S
C664 C207 1.595 . S
C645 C44 1.613 . S
C681 C59 0.313 . S
C700 C170 0.452 . S
C717 C25 2.748 . S
C736 C242 2.775 . S
C772 C162 3.297 . S
C753 C82 3.345 . S
C789 C101 2.380 . S
C808 C211 2.411 . S
C825 C125 0.915 . S
C844 C250 0.916 . S
C861 C144 0.405 . S
C880 C287 0.236 . S
C897 C87 2.520 . S
C916 C210 2.614 1_565 S
C952 C167 2.142 . S
C933 C97 2.103 . S
C988 C281 0.880 . S
C969 C120 0.991 . S
C1024 C238 0.769 . S
C1005 C135 0.808 . S
C1041 C78 2.640 . S
C1060 C282 2.661 1_656 S
C1096 C198 1.272 . S
C1077 C116 1.275 . S
C1132 C161 0.677 . S
C1113 C139 0.709 . S
C1149 C106 2.201 . S
C1168 C251 2.496 . S
