# Generated by pormake.
# Topology eea, (3,6)-cn, num edge types: 1
# Building blocks:
#     Node 0, Type 0, BuildingBlock: BETDAH_clean_linker_0, # of connection points: 3
#     Node 1, Type 0, BuildingBlock: BETDAH_clean_linker_0, # of connection points: 3
#     Node 2, Type 0, BuildingBlock: BETDAH_clean_linker_0, # of connection points: 3
#     Node 3, Type 0, BuildingBlock: BETDAH_clean_linker_0, # of connection points: 3
#     Node 4, Type 0, BuildingBlock: BETDAH_clean_linker_0, # of connection points: 3
#     Node 5, Type 0, BuildingBlock: BETDAH_clean_linker_0, # of connection points: 3
#     Node 6, Type 0, BuildingBlock: BETDAH_clean_linker_0, # of connection points: 3
#     Node 7, Type 0, BuildingBlock: BETDAH_clean_linker_0, # of connection points: 3
#     Node 8, Type 0, BuildingBlock: BETDAH_clean_linker_0, # of connection points: 3
#     Node 9, Type 0, BuildingBlock: BETDAH_clean_linker_0, # of connection points: 3
#     Node 10, Type 0, BuildingBlock: BETDAH_clean_linker_0, # of connection points: 3
#     Node 11, Type 0, BuildingBlock: BETDAH_clean_linker_0, # of connection points: 3
#     Node 12, Type 0, BuildingBlock: BETDAH_clean_linker_0, # of connection points: 3
#     Node 13, Type 0, BuildingBlock: BETDAH_clean_linker_0, # of connection points: 3
#     Node 14, Type 0, BuildingBlock: BETDAH_clean_linker_0, # of connection points: 3
#     Node 15, Type 0, BuildingBlock: BETDAH_clean_linker_0, # of connection points: 3
#     Node 16, Type 0, BuildingBlock: BETDAH_clean_linker_0, # of connection points: 3
#     Node 17, Type 0, BuildingBlock: BETDAH_clean_linker_0, # of connection points: 3
#     Node 18, Type 1, BuildingBlock: HISSIN_clean_sbu_0, # of connection points: 6
#     Node 19, Type 1, BuildingBlock: HISSIN_clean_sbu_0, # of connection points: 6
#     Node 20, Type 1, BuildingBlock: HISSIN_clean_sbu_0, # of connection points: 6
#     Node 21, Type 1, BuildingBlock: HISSIN_clean_sbu_0, # of connection points: 6
#     Node 22, Type 1, BuildingBlock: HISSIN_clean_sbu_0, # of connection points: 6
#     Node 23, Type 1, BuildingBlock: HISSIN_clean_sbu_0, # of connection points: 6
#     Node 24, Type 1, BuildingBlock: HISSIN_clean_sbu_0, # of connection points: 6
#     Node 25, Type 1, BuildingBlock: HISSIN_clean_sbu_0, # of connection points: 6
#     Node 26, Type 1, BuildingBlock: HISSIN_clean_sbu_0, # of connection points: 6
#     Edge 27, Type (0, 1), BuildingBlock: CIFDUS_clean_linker_0, # of connection points: 2
#     Edge 28, Type (0, 1), BuildingBlock: CIFDUS_clean_linker_0, # of connection points: 2
#     Edge 29, Type (0, 1), BuildingBlock: CIFDUS_clean_linker_0, # of connection points: 2
#     Edge 30, Type (0, 1), BuildingBlock: CIFDUS_clean_linker_0, # of connection points: 2
#     Edge 31, Type (0, 1), BuildingBlock: CIFDUS_clean_linker_0, # of connection points: 2
#     Edge 32, Type (0, 1), BuildingBlock: CIFDUS_clean_linker_0, # of connection points: 2
#     Edge 33, Type (0, 1), BuildingBlock: CIFDUS_clean_linker_0, # of connection points: 2
#     Edge 34, Type (0, 1), BuildingBlock: CIFDUS_clean_linker_0, # of connection points: 2
#     Edge 35, Type (0, 1), BuildingBlock: CIFDUS_clean_linker_0, # of connection points: 2
#     Edge 36, Type (0, 1), BuildingBlock: CIFDUS_clean_linker_0, # of connection points: 2
#     Edge 37, Type (0, 1), BuildingBlock: CIFDUS_clean_linker_0, # of connection points: 2
#     Edge 38, Type (0, 1), BuildingBlock: CIFDUS_clean_linker_0, # of connection points: 2
#     Edge 39, Type (0, 1), BuildingBlock: CIFDUS_clean_linker_0, # of connection points: 2
#     Edge 40, Type (0, 1), BuildingBlock: CIFDUS_clean_linker_0, # of connection points: 2
#     Edge 41, Type (0, 1), BuildingBlock: CIFDUS_clean_linker_0, # of connection points: 2
#     Edge 42, Type (0, 1), BuildingBlock: CIFDUS_clean_linker_0, # of connection points: 2
#     Edge 43, Type (0, 1), BuildingBlock: CIFDUS_clean_linker_0, # of connection points: 2
#     Edge 44, Type (0, 1), BuildingBlock: CIFDUS_clean_linker_0, # of connection points: 2
#     Edge 45, Type (0, 1), BuildingBlock: CIFDUS_clean_linker_0, # of connection points: 2
#     Edge 46, Type (0, 1), BuildingBlock: CIFDUS_clean_linker_0, # of connection points: 2
#     Edge 47, Type (0, 1), BuildingBlock: CIFDUS_clean_linker_0, # of connection points: 2
#     Edge 48, Type (0, 1), BuildingBlock: CIFDUS_clean_linker_0, # of connection points: 2
#     Edge 49, Type (0, 1), BuildingBlock: CIFDUS_clean_linker_0, # of connection points: 2
#     Edge 50, Type (0, 1), BuildingBlock: CIFDUS_clean_linker_0, # of connection points: 2
#     Edge 51, Type (0, 1), BuildingBlock: CIFDUS_clean_linker_0, # of connection points: 2
#     Edge 52, Type (0, 1), BuildingBlock: CIFDUS_clean_linker_0, # of connection points: 2
#     Edge 53, Type (0, 1), BuildingBlock: CIFDUS_clean_linker_0, # of connection points: 2
#     Edge 54, Type (0, 1), BuildingBlock: CIFDUS_clean_linker_0, # of connection points: 2
#     Edge 55, Type (0, 1), BuildingBlock: CIFDUS_clean_linker_0, # of connection points: 2
#     Edge 56, Type (0, 1), BuildingBlock: CIFDUS_clean_linker_0, # of connection points: 2
#     Edge 57, Type (0, 1), BuildingBlock: CIFDUS_clean_linker_0, # of connection points: 2
#     Edge 58, Type (0, 1), BuildingBlock: CIFDUS_clean_linker_0, # of connection points: 2
#     Edge 59, Type (0, 1), BuildingBlock: CIFDUS_clean_linker_0, # of connection points: 2
#     Edge 60, Type (0, 1), BuildingBlock: CIFDUS_clean_linker_0, # of connection points: 2
#     Edge 61, Type (0, 1), BuildingBlock: CIFDUS_clean_linker_0, # of connection points: 2
#     Edge 62, Type (0, 1), BuildingBlock: CIFDUS_clean_linker_0, # of connection points: 2
#     Edge 63, Type (0, 1), BuildingBlock: CIFDUS_clean_linker_0, # of connection points: 2
#     Edge 64, Type (0, 1), BuildingBlock: CIFDUS_clean_linker_0, # of connection points: 2
#     Edge 65, Type (0, 1), BuildingBlock: CIFDUS_clean_linker_0, # of connection points: 2
#     Edge 66, Type (0, 1), BuildingBlock: CIFDUS_clean_linker_0, # of connection points: 2
#     Edge 67, Type (0, 1), BuildingBlock: CIFDUS_clean_linker_0, # of connection points: 2
#     Edge 68, Type (0, 1), BuildingBlock: CIFDUS_clean_linker_0, # of connection points: 2
#     Edge 69, Type (0, 1), BuildingBlock: CIFDUS_clean_linker_0, # of connection points: 2
#     Edge 70, Type (0, 1), BuildingBlock: CIFDUS_clean_linker_0, # of connection points: 2
#     Edge 71, Type (0, 1), BuildingBlock: CIFDUS_clean_linker_0, # of connection points: 2
#     Edge 72, Type (0, 1), BuildingBlock: CIFDUS_clean_linker_0, # of connection points: 2
#     Edge 73, Type (0, 1), BuildingBlock: CIFDUS_clean_linker_0, # of connection points: 2
#     Edge 74, Type (0, 1), BuildingBlock: CIFDUS_clean_linker_0, # of connection points: 2
#     Edge 75, Type (0, 1), BuildingBlock: CIFDUS_clean_linker_0, # of connection points: 2
#     Edge 76, Type (0, 1), BuildingBlock: CIFDUS_clean_linker_0, # of connection points: 2
#     Edge 77, Type (0, 1), BuildingBlock: CIFDUS_clean_linker_0, # of connection points: 2
#     Edge 78, Type (0, 1), BuildingBlock: CIFDUS_clean_linker_0, # of connection points: 2
#     Edge 79, Type (0, 1), BuildingBlock: CIFDUS_clean_linker_0, # of connection points: 2
#     Edge 80, Type (0, 1), BuildingBlock: CIFDUS_clean_linker_0, # of connection points: 2
# Relax obj value: 0.058
# Max RMSD: 0.212
# Mean RMSD: 0.151
data_MOF--net-eea--node1-HISSIN_clean_sbu_0--node2-BETDAH_clean_linker_0--edge1-CIFDUS_clean_linker_0
_symmetry_space_group_name_H-M    P1
_symmetry_Int_Tables_number       1
_symmetry_cell_setting            triclinic
loop_
_symmetry_equiv_pos_as_xyz
'x, y, z'
_cell_length_a     47.630819
_cell_length_b     48.04686
_cell_length_c     62.86371
_cell_angle_alpha  93.27153
_cell_angle_beta   93.290697
_cell_angle_gamma 119.95695
loop_
_atom_site_label
_atom_site_type_symbol
_atom_site_fract_x
_atom_site_fract_y
_atom_site_fract_z
_atom_type_partial_charge
H0 H 0.27016 0.08052 0.42919 0.0
H1 H 0.28081 0.17351 0.4203 0.0
H2 H 0.25563 0.10412 0.36613 0.0
C3 C 0.26999 0.09764 0.41876 0.0
C4 C 0.26214 0.08856 0.39665 0.0
C5 C 0.27724 0.1284 0.42756 0.0
C6 C 0.27499 0.14962 0.41391 0.0
C7 C 0.26683 0.14055 0.39177 0.0
C8 C 0.26101 0.11041 0.3833 0.0
N9 N 0.26542 0.16146 0.3773 0.0
C10 C 0.25981 0.18653 0.3828 0.0
H11 H 0.95342 0.20031 0.43484 0.0
H12 H 0.87385 0.10219 0.4277 0.0
H13 H 0.94563 0.13371 0.38281 0.0
C14 C 0.94061 0.17665 0.42596 0.0
C15 C 0.95329 0.17056 0.40768 0.0
C16 C 0.91175 0.15238 0.43321 0.0
C17 C 0.89606 0.12109 0.42236 0.0
C18 C 0.90884 0.11443 0.4044 0.0
C19 C 0.93699 0.13916 0.39714 0.0
N20 N 0.89421 0.08331 0.39296 0.0
C21 C 0.86455 0.05672 0.39627 0.0
H22 H 0.83972 0.76411 0.45003 0.0
H23 H 0.93863 0.78825 0.44259 0.0
H24 H 0.89082 0.82263 0.40072 0.0
C25 C 0.86129 0.77574 0.44161 0.0
C26 C 0.86128 0.79282 0.42418 0.0
C27 C 0.88906 0.77408 0.44862 0.0
C28 C 0.91708 0.78923 0.43744 0.0
C29 C 0.91735 0.80638 0.41993 0.0
C30 C 0.88974 0.80837 0.41373 0.0
N31 N 0.94527 0.82373 0.40876 0.0
C32 C 0.9712 0.81823 0.40724 0.0
H33 H 0.06929 0.25318 0.586 0.0
H34 H 0.1413 0.22355 0.58508 0.0
H35 H 0.06868 0.18637 0.62909 0.0
C36 C 0.0795 0.23912 0.59205 0.0
C37 C 0.06597 0.22029 0.60914 0.0
C38 C 0.10681 0.2406 0.58316 0.0
C39 C 0.12072 0.22319 0.59184 0.0
C40 C 0.10684 0.20375 0.60846 0.0
C41 C 0.07949 0.20214 0.61664 0.0
N42 N 0.11813 0.18373 0.61661 0.0
C43 C 0.15 0.18983 0.6178 0.0
H44 H 0.76842 0.83501 0.60209 0.0
H45 H 0.75096 0.91353 0.61698 0.0
H46 H 0.79314 0.88319 0.66589 0.0
C47 C 0.76976 0.8536 0.6134 0.0
C48 C 0.78318 0.85723 0.63462 0.0
C49 C 0.75769 0.87359 0.60683 0.0
C50 C 0.75972 0.8977 0.6218 0.0
C51 C 0.77259 0.90104 0.64308 0.0
C52 C 0.78388 0.88069 0.64931 0.0
N53 N 0.77388 0.92393 0.65895 0.0
C54 C 0.77114 0.95061 0.65492 0.0
H55 H 0.19723 0.93016 0.58594 0.0
H56 H 0.12337 0.83037 0.58253 0.0
H57 H 0.13426 0.89464 0.63665 0.0
C58 C 0.17694 0.91093 0.59272 0.0
C59 C 0.16801 0.91692 0.61275 0.0
C60 C 0.16053 0.88011 0.58139 0.0
C61 C 0.13534 0.85464 0.59056 0.0
C62 C 0.12576 0.85989 0.61031 0.0
C63 C 0.14168 0.89105 0.62125 0.0
N64 N 0.10296 0.83265 0.61995 0.0
C65 C 0.07477 0.82931 0.62765 0.0
H66 H 0.91738 0.40871 0.76352 0.0
H67 H 0.96415 0.51255 0.76939 0.0
H68 H 0.92327 0.45901 0.70789 0.0
C69 C 0.92423 0.43107 0.75651 0.0
C70 C 0.9177 0.43029 0.73428 0.0
C71 C 0.94073 0.46063 0.7695 0.0
C72 C 0.95096 0.48941 0.75984 0.0
C73 C 0.9443 0.48881 0.73782 0.0
C74 C 0.92723 0.45926 0.72508 0.0
N75 N 0.95809 0.51825 0.72841 0.0
C76 C 0.93915 0.52953 0.71902 0.0
H77 H 0.62718 0.53079 0.77165 0.0
H78 H 0.54061 0.43804 0.75501 0.0
H79 H 0.60819 0.4813 0.70853 0.0
C80 C 0.61185 0.51041 0.75997 0.0
C81 C 0.6218 0.50936 0.73937 0.0
C82 C 0.58254 0.48478 0.76581 0.0
C83 C 0.56327 0.45777 0.7508 0.0
C84 C 0.57295 0.45662 0.73023 0.0
C85 C 0.60177 0.48237 0.72469 0.0
N86 N 0.55454 0.43021 0.71442 0.0
C87 C 0.52494 0.40287 0.71664 0.0
H88 H 0.49084 0.08477 0.77226 0.0
H89 H 0.58336 0.08993 0.78091 0.0
H90 H 0.55767 0.12048 0.72368 0.0
C91 C 0.5139 0.09049 0.76638 0.0
C92 C 0.52103 0.10261 0.74624 0.0
C93 C 0.5361 0.08582 0.77911 0.0
C94 C 0.56616 0.09408 0.7716 0.0
C95 C 0.57437 0.10684 0.75191 0.0
C96 C 0.55182 0.11135 0.73914 0.0
N97 N 0.60514 0.11323 0.74572 0.0
C98 C 0.62091 0.12805 0.72818 0.0
H99 H 0.72922 0.57467 0.90672 0.0
H100 H 0.82622 0.59471 0.92611 0.0
H101 H 0.75761 0.57099 0.97247 0.0
C102 C 0.74708 0.57696 0.91919 0.0
C103 C 0.73845 0.57069 0.94024 0.0
C104 C 0.77888 0.58653 0.91394 0.0
C105 C 0.80158 0.58715 0.92967 0.0
C106 C 0.79332 0.58074 0.95064 0.0
C107 C 0.76244 0.57369 0.95587 0.0
N108 N 0.81662 0.58487 0.96747 0.0
C109 C 0.8371 0.57205 0.96659 0.0
H110 H 0.42355 0.14462 0.92322 0.0
H111 H 0.40567 0.22208 0.94077 0.0
H112 H 0.44134 0.18478 0.98886 0.0
C113 C 0.42422 0.16215 0.93517 0.0
C114 C 0.43458 0.16248 0.95663 0.0
C115 C 0.41354 0.1834 0.92917 0.0
C116 C 0.41361 0.20538 0.94501 0.0
C117 C 0.42318 0.2053 0.96653 0.0
C118 C 0.43335 0.18386 0.97221 0.0
N119 N 0.42183 0.22587 0.98293 0.0
C120 C 0.43427 0.25857 0.9815 0.0
H121 H 0.84969 0.26981 0.91056 0.0
H122 H 0.78214 0.17046 0.9184 0.0
H123 H 0.80861 0.2428 0.97058 0.0
C124 C 0.83295 0.2519 0.92019 0.0
C125 C 0.83109 0.26105 0.94155 0.0
C126 C 0.81501 0.21944 0.91143 0.0
C127 C 0.79533 0.19573 0.92452 0.0
C128 C 0.79328 0.20439 0.9458 0.0
C129 C 0.81065 0.23684 0.95409 0.0
N130 N 0.77825 0.18028 0.95991 0.0
C131 C 0.74534 0.16557 0.96277 0.0
H132 H 0.59031 0.73882 0.10257 0.0
H133 H 0.62055 0.83644 0.08955 0.0
H134 H 0.58461 0.7615 0.03778 0.0
C135 C 0.59286 0.75604 0.09134 0.0
C136 C 0.58488 0.74573 0.06934 0.0
C137 C 0.60572 0.78865 0.09892 0.0
C138 C 0.61042 0.81115 0.08411 0.0
C139 C 0.60298 0.80115 0.06209 0.0
C140 C 0.59044 0.76871 0.05484 0.0
N141 N 0.61015 0.82371 0.04683 0.0
C142 C 0.59563 0.8425 0.04563 0.0
H143 H 0.29141 0.86682 0.1049 0.0
H144 H 0.2088 0.77086 0.0901 0.0
H145 H 0.28881 0.8053 0.05142 0.0
C146 C 0.27896 0.84404 0.09492 0.0
C147 C 0.29368 0.83938 0.07737 0.0
C148 C 0.24838 0.81938 0.09975 0.0
C149 C 0.23243 0.78988 0.08664 0.0
C150 C 0.24708 0.78503 0.0691 0.0
C151 C 0.27756 0.80963 0.06475 0.0
N152 N 0.23234 0.75571 0.05553 0.0
C153 C 0.20042 0.73079 0.05549 0.0
H154 H 0.16699 0.42618 0.11476 0.0
H155 H 0.25097 0.42063 0.09826 0.0
H156 H 0.19699 0.44146 0.05126 0.0
C157 C 0.18389 0.4282 0.1033 0.0
C158 C 0.17933 0.43562 0.08252 0.0
C159 C 0.2094 0.42237 0.10926 0.0
C160 C 0.2313 0.42512 0.0941 0.0
C161 C 0.22684 0.43242 0.07323 0.0
C162 C 0.20076 0.43711 0.06763 0.0
N163 N 0.24602 0.43257 0.05668 0.0
C164 C 0.2787 0.44123 0.05894 0.0
H165 H 0.40298 0.91911 0.25326 0.0
H166 H 0.50236 0.94125 0.26245 0.0
H167 H 0.44289 0.90905 0.31412 0.0
C168 C 0.42262 0.91999 0.26339 0.0
C169 C 0.41841 0.91243 0.28487 0.0
C170 C 0.45252 0.92932 0.25494 0.0
C171 C 0.47869 0.93234 0.26834 0.0
C172 C 0.47513 0.92516 0.28956 0.0
C173 C 0.44499 0.91456 0.29763 0.0
N174 N 0.50328 0.93387 0.30349 0.0
C175 C 0.51042 0.91167 0.31179 0.0
H176 H 0.08632 0.48903 0.27275 0.0
H177 H 0.0555 0.55802 0.28764 0.0
H178 H 0.09665 0.52862 0.33773 0.0
C179 C 0.08385 0.50527 0.28415 0.0
C180 C 0.09447 0.50775 0.30591 0.0
C181 C 0.06941 0.52312 0.27725 0.0
C182 C 0.06633 0.54391 0.2925 0.0
C183 C 0.07601 0.5456 0.31426 0.0
C184 C 0.08976 0.52746 0.32081 0.0
N185 N 0.07023 0.56369 0.33013 0.0
C186 C 0.07855 0.59554 0.32873 0.0
H187 H 0.51895 0.60053 0.25253 0.0
H188 H 0.43338 0.50633 0.24516 0.0
H189 H 0.46464 0.56202 0.30659 0.0
C190 C 0.49824 0.5815 0.2592 0.0
C191 C 0.49459 0.58487 0.28112 0.0
C192 C 0.4764 0.55335 0.24601 0.0
C193 C 0.45031 0.52848 0.25499 0.0
C194 C 0.44547 0.53162 0.27657 0.0
C195 C 0.46746 0.56007 0.28969 0.0
N196 N 0.42021 0.50412 0.28469 0.0
C197 C 0.40184 0.50391 0.30116 0.0
Eu198 Eu 0.50883 0.99554 0.99445 0.0
Eu199 Eu 0.52537 0.0276 0.04532 0.0
C200 C 0.49561 0.05163 0.00862 0.0
C201 C 0.50492 0.99058 0.9338 0.0
C202 C 0.5243 0.02429 0.93457 0.0
C203 C 0.50027 0.98728 0.8949 0.0
C204 C 0.53162 0.0394 0.91562 0.0
C205 C 0.49298 0.9722 0.91388 0.0
C206 C 0.51967 0.02111 0.89551 0.0
C207 C 0.49648 0.97466 0.95371 0.0
O208 O 0.48193 0.97786 0.0447 0.0
O209 O 0.46156 0.97156 0.00971 0.0
C210 C 0.4577 0.96396 0.02952 0.0
O211 O 0.51806 0.96195 0.01341 0.0
O212 O 0.51278 0.04951 0.07178 0.0
O213 O 0.55253 0.04042 0.07699 0.0
O214 O 0.5506 0.99883 0.04163 0.0
C215 C 0.53968 0.97107 0.03013 0.0
O216 O 0.56219 0.03251 0.99872 0.0
O217 O 0.56573 0.06542 0.02817 0.0
O218 O 0.49267 0.04219 0.02794 0.0
O219 O 0.52057 0.97661 0.96599 0.0
O220 O 0.47687 0.97995 0.96465 0.0
O221 O 0.50967 0.04259 0.99476 0.0
C222 C 0.52049 0.03458 0.10573 0.0
C223 C 0.50391 1.00099 0.10658 0.0
C224 C 0.51095 0.04146 0.14275 0.0
C225 C 0.49111 0.98774 0.12546 0.0
C226 C 0.52383 0.05466 0.12392 0.0
C227 C 0.49444 0.00783 0.1438 0.0
C228 C 0.53355 0.04894 0.08588 0.0
C229 C 0.57763 0.05998 0.011 0.0
H230 H 0.53359 0.03892 0.94983 0.0
H231 H 0.49103 0.97239 0.87975 0.0
H232 H 0.54626 0.06548 0.91674 0.0
H233 H 0.47797 0.94616 0.91298 0.0
H234 H 0.50077 0.98502 0.09263 0.0
H235 H 0.51434 0.05768 0.15661 0.0
H236 H 0.47826 0.96175 0.12562 0.0
H237 H 0.53643 0.08063 0.12356 0.0
Eu238 Eu 0.01352 0.50264 0.99901 0.0
Eu239 Eu 0.98785 0.48642 0.04757 0.0
C240 C 0.95332 0.4323 0.00698 0.0
C241 C 0.02491 0.50741 0.93844 0.0
C242 C 0.99336 0.49903 0.93016 0.0
C243 C 0.03884 0.50351 0.90228 0.0
C244 C 0.9848 0.49342 0.90797 0.0
C245 C 0.04735 0.50913 0.92437 0.0
C246 C 1.00766 0.49614 0.89376 0.0
C247 C 0.03558 0.51562 0.96151 0.0
O248 O 0.02257 0.46776 0.04423 0.0
O249 O 0.05285 0.50028 0.01937 0.0
C250 C 0.04916 0.4811 0.03438 0.0
O251 O 0.03421 0.55002 0.01941 0.0
O252 O 0.97077 0.45507 0.07345 0.0
O253 O 0.97681 0.50288 0.0773 0.0
O254 O 0.03654 0.53231 0.05209 0.0
C255 C 0.04635 0.5556 0.03949 0.0
O256 O 0.96522 0.50049 0.99619 0.0
O257 O 0.96179 0.5098 0.03199 0.0
O258 O 0.95019 0.44337 0.02577 0.0
O259 O 0.02534 0.53227 0.97227 0.0
O260 O 0.03564 0.49308 0.9721 0.0
O261 O 0.97758 0.44925 0.99565 0.0
C262 C 0.98643 0.48226 0.10836 0.0
C263 C 0.02025 0.5023 0.11297 0.0
C264 C 0.9818 0.47271 0.14587 0.0
C265 C 0.03472 0.50772 0.13398 0.0
C266 C 0.96739 0.46737 0.1249 0.0
C267 C 0.01563 0.49316 0.15075 0.0
C268 C 0.97057 0.47703 0.08653 0.0
C269 C 0.95265 0.50883 0.01163 0.0
H270 H 0.97561 0.49745 0.94079 0.0
H271 H 0.05684 0.50521 0.89184 0.0
H272 H 0.96065 0.48797 0.90194 0.0
H273 H 0.07173 0.51535 0.93047 0.0
H274 H 0.03537 0.51399 0.10037 0.0
H275 H 0.96641 0.46062 0.15825 0.0
H276 H 0.06077 0.52381 0.13715 0.0
H277 H 0.94128 0.45169 0.12161 0.0
Eu278 Eu 0.51938 0.50227 0.0264 0.0
Eu279 Eu 0.49916 0.51192 0.97686 0.0
C280 C 0.5306 0.56989 0.01419 0.0
C281 C 0.52523 0.49994 0.08734 0.0
C282 C 0.50751 0.51562 0.091 0.0
C283 C 0.52622 0.49138 0.125 0.0
C284 C 0.49923 0.51921 0.11161 0.0
C285 C 0.53454 0.48792 0.10445 0.0
C286 C 0.50838 0.50698 0.12885 0.0
C287 C 0.534 0.49564 0.06583 0.0
O288 O 0.54498 0.50985 0.97446 0.0
O289 O 0.56577 0.52206 0.00996 0.0
C290 C 0.56907 0.51891 0.98944 0.0
O291 O 0.51181 0.45934 1.00532 0.0
O292 O 0.50478 0.54301 0.95138 0.0
O293 O 0.47097 0.49181 0.94566 0.0
O294 O 0.47486 0.45851 0.98008 0.0
C295 C 0.48815 0.44392 0.9899 0.0
O296 O 0.46532 0.48389 0.02404 0.0
O297 O 0.46046 0.51122 0.99647 0.0
O298 O 0.53236 0.56126 0.99436 0.0
O299 O 0.51104 0.47219 0.05274 0.0
O300 O 0.55078 0.52183 0.05645 0.0
O301 O 0.5185 0.54859 0.02808 0.0
C302 C 0.4992 0.51824 0.9167 0.0
C303 C 0.51891 0.50439 0.91441 0.0
C304 C 0.50527 0.53132 0.87983 0.0
C305 C 0.5315 0.50379 0.8949 0.0
C306 C 0.49255 0.53174 0.89931 0.0
C307 C 0.52485 0.51727 0.87736 0.0
C308 C 0.4858 0.51903 0.93715 0.0
C309 C 0.44908 0.4948 0.01308 0.0
H310 H 0.49998 0.52495 0.07791 0.0
H311 H 0.53407 0.4821 0.13794 0.0
H312 H 0.48523 0.53107 0.11398 0.0
H313 H 0.54829 0.47581 0.10192 0.0
H314 H 0.52457 0.49406 0.92772 0.0
H315 H 0.49939 0.54161 0.86661 0.0
H316 H 0.54681 0.49316 0.89363 0.0
H317 H 0.47744 0.54258 0.90077 0.0
Eu318 Eu 0.16781 0.33244 0.3257 0.0
Eu319 Eu 0.1825 0.36129 0.37697 0.0
C320 C 0.14554 0.38151 0.34263 0.0
C321 C 0.16793 0.33112 0.26488 0.0
C322 C 0.18461 0.36497 0.26603 0.0
C323 C 0.16696 0.32899 0.22604 0.0
C324 C 0.19232 0.38071 0.24732 0.0
C325 C 0.15926 0.31328 0.24478 0.0
C326 C 0.1835 0.36295 0.22703 0.0
C327 C 0.16 0.31433 0.28453 0.0
O328 O 0.13008 0.32176 0.37101 0.0
O329 O 0.13302 0.2905 0.34323 0.0
C330 C 0.11827 0.29397 0.35942 0.0
O331 O 0.20664 0.32457 0.34102 0.0
O332 O 0.16848 0.37861 0.40502 0.0
O333 O 0.21035 0.37236 0.40833 0.0
O334 O 0.18997 0.31837 0.37453 0.0
C335 C 0.20579 0.31359 0.35969 0.0
O336 O 0.2054 0.38523 0.32745 0.0
O337 O 0.22901 0.39285 0.36177 0.0
O338 O 0.16841 0.39271 0.35881 0.0
O339 O 0.18477 0.31918 0.29741 0.0
O340 O 0.13764 0.31546 0.29494 0.0
O341 O 0.13626 0.35388 0.33153 0.0
C342 C 0.17756 0.35987 0.43729 0.0
C343 C 0.15077 0.32827 0.43495 0.0
C344 C 0.18024 0.35793 0.47599 0.0
C345 C 0.13863 0.31176 0.45298 0.0
C346 C 0.19229 0.37447 0.45793 0.0
C347 C 0.15307 0.3264 0.4738 0.0
C348 C 0.19001 0.37774 0.41834 0.0
C349 C 0.23026 0.40128 0.34209 0.0
H350 H 0.19172 0.37922 0.28141 0.0
H351 H 0.15935 0.31448 0.21075 0.0
H352 H 0.20541 0.40685 0.24877 0.0
H353 H 0.14641 0.28714 0.24356 0.0
H354 H 0.13913 0.31639 0.41917 0.0
H355 H 0.19182 0.37012 0.49171 0.0
H356 H 0.11802 0.28739 0.45058 0.0
H357 H 0.21299 0.39882 0.46012 0.0
Eu358 Eu 0.67499 0.82129 0.33049 0.0
Eu359 Eu 0.65425 0.81806 0.38005 0.0
C360 C 0.61768 0.75599 0.34539 0.0
C361 C 0.67414 0.81849 0.26878 0.0
C362 C 0.6555 0.78676 0.25889 0.0
C363 C 0.66499 0.83841 0.23585 0.0
C364 C 0.64188 0.78096 0.23765 0.0
C365 C 0.6787 0.8442 0.25702 0.0
C366 C 0.64658 0.80674 0.22582 0.0
C367 C 0.69007 0.82548 0.2909 0.0
O368 O 0.69099 0.80123 0.38008 0.0
O369 O 0.71686 0.82358 0.35053 0.0
C370 C 0.7156 0.81021 0.36837 0.0
O371 O 0.6955 0.87224 0.34544 0.0
O372 O 0.63711 0.79118 0.4079 0.0
O373 O 0.64653 0.84028 0.40866 0.0
O374 O 0.70193 0.86479 0.38052 0.0
C375 C 0.70953 0.88366 0.36499 0.0
O376 O 0.62572 0.8169 0.32774 0.0
O377 O 0.62782 0.83888 0.36156 0.0
O378 O 0.61379 0.77306 0.36079 0.0
O379 O 0.69032 0.84873 0.30278 0.0
O380 O 0.68495 0.80122 0.3017 0.0
O381 O 0.64392 0.76861 0.33515 0.0
C382 C 0.65702 0.82309 0.44107 0.0
C383 C 0.69118 0.84032 0.44397 0.0
C384 C 0.65569 0.8191 0.47938 0.0
C385 C 0.70752 0.84706 0.4645 0.0
C386 C 0.63942 0.81248 0.45887 0.0
C387 C 0.68997 0.83657 0.4825 0.0
C388 C 0.63947 0.81571 0.41961 0.0
C389 C 0.61572 0.83106 0.34132 0.0
H390 H 0.65173 0.7664 0.26743 0.0
H391 H 0.66877 0.85881 0.22736 0.0
H392 H 0.62826 0.75628 0.23035 0.0
H393 H 0.69312 0.86892 0.26418 0.0
H394 H 0.70519 0.84863 0.43036 0.0
H395 H 0.64137 0.81013 0.49276 0.0
H396 H 0.73388 0.86083 0.46629 0.0
H397 H 0.61304 0.79893 0.4569 0.0
Eu398 Eu 0.19635 0.85016 0.35786 0.0
Eu399 Eu 0.16555 0.84763 0.30866 0.0
C400 C 0.20063 0.91199 0.34002 0.0
C401 C 0.20556 0.84854 0.4184 0.0
C402 C 0.17704 0.84943 0.42136 0.0
C403 C 0.21191 0.84327 0.45629 0.0
C404 C 0.16635 0.84789 0.44174 0.0
C405 C 0.22264 0.84495 0.4359 0.0
C406 C 0.18395 0.84532 0.45955 0.0
C407 C 0.21876 0.85347 0.39748 0.0
O408 O 0.21868 0.86508 0.306 0.0
O409 O 0.23371 0.85045 0.33709 0.0
C410 C 0.23923 0.86025 0.31783 0.0
O411 O 0.16058 0.79824 0.34622 0.0
O412 O 0.16733 0.87188 0.28003 0.0
O413 O 0.1301 0.82184 0.2809 0.0
O414 O 0.16762 0.80215 0.31073 0.0
C415 C 0.15839 0.78479 0.32698 0.0
O416 O 0.14892 0.84889 0.36227 0.0
O417 O 0.12255 0.82863 0.32836 0.0
O418 O 0.17422 0.89326 0.32714 0.0
O419 O 0.20801 0.82795 0.38386 0.0
O420 O 0.22052 0.87796 0.38845 0.0
O421 O 0.21823 0.90052 0.34815 0.0
C422 C 0.15342 0.8373 0.2485 0.0
C423 C 0.17219 0.82225 0.24814 0.0
C424 C 0.15397 0.83887 0.20996 0.0
C425 C 0.18171 0.81545 0.22882 0.0
C426 C 0.14433 0.84554 0.22932 0.0
C427 C 0.17281 0.82378 0.20951 0.0
C428 C 0.14458 0.84553 0.26897 0.0
C429 C 0.12223 0.83545 0.34893 0.0
H430 H 0.16358 0.85228 0.40802 0.0
H431 H 0.22572 0.84071 0.46956 0.0
H432 H 0.14496 0.8499 0.44364 0.0
H433 H 0.24466 0.84414 0.43388 0.0
H434 H 0.17977 0.81605 0.26285 0.0
H435 H 0.14655 0.84537 0.19534 0.0
H436 H 0.19662 0.80429 0.22908 0.0
H437 H 0.12998 0.85733 0.22935 0.0
Eu438 Eu 0.83904 0.66596 0.6566 0.0
Eu439 Eu 0.85047 0.6979 0.70697 0.0
C440 C 0.82324 0.722 0.66893 0.0
C441 C 0.838 0.65722 0.59531 0.0
C442 C 0.85464 0.69062 0.59365 0.0
C443 C 0.83201 0.64765 0.55649 0.0
C444 C 0.85985 0.70246 0.57349 0.0
C445 C 0.82689 0.63589 0.57661 0.0
C446 C 0.8484 0.68109 0.55462 0.0
C447 C 0.83253 0.6442 0.61633 0.0
O448 O 0.7972 0.6613 0.69992 0.0
O449 O 0.79954 0.62734 0.67385 0.0
C450 C 0.7846 0.63279 0.68914 0.0
O451 O 0.86716 0.64773 0.67546 0.0
O452 O 0.83487 0.71661 0.73356 0.0
O453 O 0.87849 0.71344 0.73833 0.0
O454 O 0.85097 0.65151 0.7086 0.0
C455 C 0.8636 0.63991 0.6952 0.0
O456 O 0.88255 0.71628 0.65858 0.0
O457 O 0.89969 0.72194 0.69416 0.0
O458 O 0.84393 0.73163 0.68624 0.0
O459 O 0.85849 0.65342 0.62945 0.0
O460 O 0.80896 0.644 0.62606 0.0
O461 O 0.81273 0.69383 0.65816 0.0
C462 C 0.84624 0.70309 0.76734 0.0
C463 C 0.83615 0.67033 0.76853 0.0
C464 C 0.83471 0.70684 0.80425 0.0
C465 C 0.82551 0.65595 0.7875 0.0
C466 C 0.84548 0.7212 0.78535 0.0
C467 C 0.82447 0.674 0.80557 0.0
C468 C 0.85736 0.71857 0.74746 0.0
C469 C 0.90556 0.72999 0.67459 0.0
H470 H 0.86348 0.70751 0.60794 0.0
H471 H 0.82326 0.63048 0.54237 0.0
H472 H 0.87222 0.72831 0.57267 0.0
H473 H 0.81422 0.61004 0.57757 0.0
H474 H 0.83636 0.65583 0.75476 0.0
H475 H 0.83462 0.72157 0.81791 0.0
H476 H 0.81749 0.63057 0.78787 0.0
H477 H 0.8532 0.7465 0.78479 0.0
Eu478 Eu 0.36065 0.16989 0.65457 0.0
Eu479 Eu 0.3325 0.14806 0.70119 0.0
C480 C 0.30038 0.09787 0.65876 0.0
C481 C 0.36995 0.17764 0.59475 0.0
C482 C 0.35561 0.14553 0.58565 0.0
C483 C 0.3611 0.19344 0.56003 0.0
C484 C 0.34463 0.13758 0.56387 0.0
C485 C 0.37241 0.20145 0.58178 0.0
C486 C 0.34745 0.16148 0.55082 0.0
C487 C 0.38271 0.18681 0.61756 0.0
O488 O 0.36834 0.13091 0.69671 0.0
O489 O 0.40061 0.16856 0.67511 0.0
C490 C 0.39623 0.14711 0.68856 0.0
O491 O 0.37667 0.21524 0.67625 0.0
O492 O 0.31678 0.1147 0.72595 0.0
O493 O 0.317 0.1598 0.73064 0.0
O494 O 0.37961 0.19552 0.70795 0.0
C495 C 0.38803 0.21989 0.69642 0.0
O496 O 0.31069 0.16402 0.65093 0.0
O497 O 0.30528 0.17097 0.68655 0.0
O498 O 0.29565 0.10709 0.67764 0.0
O499 O 0.37117 0.20163 0.62897 0.0
O500 O 0.38595 0.16561 0.62791 0.0
O501 O 0.32625 0.11608 0.64899 0.0
C502 C 0.32914 0.14026 0.7611 0.0
C503 C 0.36313 0.15907 0.76521 0.0
C504 C 0.32488 0.13426 0.79902 0.0
C505 C 0.37792 0.16557 0.78616 0.0
C506 C 0.31014 0.12781 0.77807 0.0
C507 C 0.35894 0.15336 0.80334 0.0
C508 C 0.31326 0.13429 0.73929 0.0
C509 C 0.29643 0.1703 0.66621 0.0
H510 H 0.35304 0.12654 0.59528 0.0
H511 H 0.36378 0.21236 0.5503 0.0
H512 H 0.33386 0.11269 0.55722 0.0
H513 H 0.38336 0.22636 0.58846 0.0
H514 H 0.37814 0.16898 0.75223 0.0
H515 H 0.3096 0.12405 0.81181 0.0
H516 H 0.40416 0.18059 0.78895 0.0
H517 H 0.28386 0.11321 0.77513 0.0
Eu518 Eu 0.85719 0.19278 0.68679 0.0
Eu519 Eu 0.83048 0.20015 0.63902 0.0
C520 C 0.87214 0.26093 0.67319 0.0
C521 C 0.86628 0.19421 0.74791 0.0
C522 C 0.87969 0.22564 0.75812 0.0
C523 C 0.83663 0.1731 0.779 0.0
C524 C 0.87152 0.23073 0.77842 0.0
C525 C 0.84486 0.168 0.75868 0.0
C526 C 0.84975 0.20456 0.78911 0.0
C527 C 0.87464 0.18858 0.72627 0.0
O528 O 0.8829 0.21372 0.63729 0.0
O529 O 0.8913 0.18835 0.66487 0.0
C530 C 0.89966 0.20231 0.647 0.0
O531 O 0.81915 0.14326 0.6722 0.0
O532 O 0.83717 0.22735 0.61122 0.0
O533 O 0.79503 0.17959 0.61079 0.0
O534 O 0.82841 0.15212 0.63748 0.0
C535 C 0.8177 0.13233 0.65238 0.0
O536 O 0.81649 0.20299 0.69168 0.0
O537 O 0.7873 0.18304 0.65871 0.0
O538 O 0.84577 0.24688 0.65956 0.0
O539 O 0.85198 0.16413 0.71371 0.0
O540 O 0.89085 0.21373 0.71589 0.0
O541 O 0.88537 0.2445 0.68007 0.0
C542 C 0.82193 0.1927 0.57949 0.0
C543 C 0.83971 0.17663 0.58056 0.0
C544 C 0.82267 0.1901 0.54078 0.0
C545 C 0.84892 0.16738 0.56195 0.0
C546 C 0.81344 0.19938 0.55949 0.0
C547 C 0.84053 0.17396 0.54179 0.0
C548 C 0.81313 0.20286 0.5994 0.0
C549 C 0.78907 0.19139 0.67928 0.0
H550 H 0.89657 0.24642 0.75045 0.0
H551 H 0.8196 0.15239 0.78665 0.0
H552 H 0.8826 0.25525 0.78585 0.0
H553 H 0.83429 0.14348 0.75134 0.0
H554 H 0.8467 0.17142 0.59587 0.0
H555 H 0.81555 0.19531 0.52552 0.0
H556 H 0.86312 0.15554 0.56343 0.0
H557 H 0.79976 0.2118 0.55835 0.0
H558 H 0.31201 0.85781 0.03806 0.0
H559 H 0.34796 0.87881 0.105 0.0
H560 H 0.40182 0.91931 0.09611 0.0
H561 H 0.43893 0.9476 0.06923 0.0
H562 H 0.40285 0.92586 1.00222 0.0
H563 H 0.3489 0.88635 0.01126 0.0
C564 C 0.33168 0.8711 0.05071 0.0
C565 C 0.32599 0.86516 0.07216 0.0
C566 C 0.3626 0.89402 0.04546 0.0
C567 C 0.35158 0.8831 0.08838 0.0
C568 C 0.38244 0.90608 0.08329 0.0
C569 C 0.41934 0.93417 0.05656 0.0
C570 C 0.42507 0.93963 0.03504 0.0
C571 C 0.38828 0.91155 0.06187 0.0
C572 C 0.39923 0.92215 0.0189 0.0
C573 C 0.36832 0.89955 0.02406 0.0
H574 H 0.17924 0.47891 0.05617 0.0
H575 H 0.11673 0.40367 0.09404 0.0
H576 H 0.07145 0.4115 0.08292 0.0
H577 H 0.04908 0.4389 0.06182 0.0
H578 H 0.11111 0.51215 0.02256 0.0
H579 H 0.15667 0.50522 0.03444 0.0
C580 C 0.15565 0.46391 0.06184 0.0
C581 C 0.15166 0.44076 0.07602 0.0
C582 C 0.12942 0.46799 0.05499 0.0
C583 C 0.12091 0.42209 0.08346 0.0
C584 C 0.09481 0.42633 0.07693 0.0
C585 C 0.07254 0.45333 0.05582 0.0
C586 C 0.07651 0.476 0.04126 0.0
C587 C 0.09874 0.44913 0.06264 0.0
C588 C 0.10716 0.49441 0.03367 0.0
C589 C 0.13334 0.49054 0.04052 0.0
H590 H 0.59785 0.72095 0.03347 0.0
H591 H 0.54128 0.69249 0.08771 0.0
H592 H 0.52012 0.63583 0.07563 0.0
H593 H 0.51748 0.59434 0.04971 0.0
H594 H 0.57134 0.62255 0.99432 0.0
H595 H 0.59308 0.6794 0.00658 0.0
C596 C 0.58051 0.70243 0.04251 0.0
C597 C 0.57138 0.71115 0.06157 0.0
C598 C 0.56783 0.66982 0.03524 0.0
C599 C 0.5493 0.68663 0.07322 0.0
C600 C 0.53695 0.65416 0.06625 0.0
C601 C 0.53399 0.61292 0.04031 0.0
C602 C 0.54291 0.60424 0.02119 0.0
C603 C 0.54612 0.6455 0.04732 0.0
C604 C 0.56404 0.62859 0.00908 0.0
C605 C 0.57655 0.6611 0.01611 0.0
H606 H 0.85828 0.28358 0.98311 0.0
H607 H 0.8515 0.31668 0.92149 0.0
H608 H 0.88943 0.37208 0.93606 0.0
H609 H 0.92552 0.41139 0.96619 0.0
H610 H 0.92664 0.37899 0.02859 0.0
H611 H 0.88899 0.32308 0.01393 0.0
C612 C 0.86422 0.30275 0.97285 0.0
C613 C 0.85205 0.29539 0.95101 0.0
C614 C 0.88508 0.33484 0.98151 0.0
C615 C 0.86102 0.32108 0.93815 0.0
C616 C 0.88255 0.35298 0.94652 0.0
C617 C 0.91732 0.39201 0.97653 0.0
C618 C 0.92894 0.39905 0.99834 0.0
C619 C 0.895 0.36011 0.96811 0.0
C620 C 0.91791 0.374 0.01174 0.0
C621 C 0.8965 0.34209 1.00334 0.0
H622 H 0.70512 0.53463 0.97235 0.0
H623 H 0.69574 0.58794 0.92188 0.0
H624 H 0.64211 0.57446 0.93159 0.0
H625 H 0.59825 0.54937 0.9553 0.0
H626 H 0.61139 0.50358 0.00892 0.0
H627 H 0.6637 0.51347 0.99758 0.0
C628 C 0.69196 0.54407 0.96362 0.0
C629 C 0.70513 0.5623 0.94619 0.0
C630 C 0.66169 0.53781 0.97004 0.0
C631 C 0.6865 0.57315 0.93494 0.0
C632 C 0.65575 0.56581 0.94068 0.0
C633 C 0.61264 0.54158 0.96446 0.0
C634 C 0.60101 0.52563 0.98285 0.0
C635 C 0.64318 0.54833 0.95826 0.0
C636 C 0.61996 0.516 0.99477 0.0
C637 C 0.64978 0.52156 0.98823 0.0
H638 H 0.42481 0.13083 0.9926 0.0
H639 H 0.47293 0.1459 0.93464 0.0
H640 H 0.49539 0.11242 0.94541 0.0
H641 H 0.50278 0.08034 0.97173 0.0
H642 H 0.45709 0.06777 0.03058 0.0
H643 H 0.43305 0.09967 0.01922 0.0
C644 C 0.44049 0.12714 0.98239 0.0
C645 C 0.44715 0.14098 0.96283 0.0
C646 C 0.45404 0.10858 0.98893 0.0
C647 C 0.46694 0.1352 0.94962 0.0
C648 C 0.48008 0.1163 0.95586 0.0
C649 C 0.48758 0.08457 0.9821 0.0
C650 C 0.48178 0.07169 1.00199 0.0
C651 C 0.47397 0.10307 0.97554 0.0
C652 C 0.46209 0.0775 0.01524 0.0
C653 C 0.44823 0.09566 0.00872 0.0
H654 H 0.72167 0.16924 0.99994 0.0
H655 H 0.69484 0.12018 0.93624 0.0
H656 H 0.63952 0.08392 0.94537 0.0
H657 H 0.60028 0.06409 0.97208 0.0
H658 H 0.62658 0.11259 0.0361 0.0
H659 H 0.68061 0.15143 0.02625 0.0
C660 C 0.70343 0.15088 0.98805 0.0
C661 C 0.7119 0.14722 0.96746 0.0
C662 C 0.67184 0.12996 0.99353 0.0
C663 C 0.68851 0.12336 0.95212 0.0
C664 C 0.65703 0.1026 0.95738 0.0
C665 C 0.61777 0.08317 0.98393 0.0
C666 C 0.60954 0.08514 1.00492 0.0
C667 C 0.64865 0.1053 0.97815 0.0
C668 C 0.63232 0.11043 0.01988 0.0
C669 C 0.66323 0.1326 0.01426 0.0
H670 H 0.85183 0.55795 1.00432 0.0
H671 H 0.86947 0.55711 0.93796 0.0
H672 H 0.90626 0.53611 0.94587 0.0
H673 H 0.93432 0.51934 0.9721 0.0
H674 H 0.91657 0.52132 0.03865 0.0
H675 H 0.87885 0.54036 0.03024 0.0
C676 C 0.86371 0.55302 0.99162 0.0
C677 C 0.85819 0.55894 0.97064 0.0
C678 C 0.88478 0.54119 0.99635 0.0
C679 C 0.87354 0.55263 0.95423 0.0
C680 C 0.89451 0.54067 0.95878 0.0
C681 C 0.92206 0.52372 0.98476 0.0
C682 C 0.92845 0.51888 0.00603 0.0
C683 C 0.90045 0.535 0.97984 0.0
C684 C 0.91234 0.52487 0.02218 0.0
C685 C 0.8907 0.5358 0.01739 0.0
H686 H 0.41114 0.29339 0.96324 0.0
H687 H 0.49132 0.30045 1.0033 0.0
H688 H 0.51626 0.35922 0.00873 0.0
H689 H 0.51369 0.40795 1.00358 0.0
H690 H 0.43341 0.40145 0.96363 0.0
H691 H 0.41015 0.34318 0.95648 0.0
C692 C 0.43422 0.30803 0.97295 0.0
C693 C 0.44959 0.29314 0.98291 0.0
C694 C 0.44823 0.34173 0.97607 0.0
C695 C 0.47932 0.31182 0.99551 0.0
C696 C 0.49347 0.34528 0.99865 0.0
C697 C 0.49117 0.39387 0.99323 0.0
C698 C 0.47519 0.40903 0.98432 0.0
C699 C 0.47791 0.36044 0.98925 0.0
C700 C 0.44619 0.39039 0.97076 0.0
C701 C 0.43282 0.35704 0.96669 0.0
H702 H 0.17493 0.68106 0.07959 0.0
H703 H 0.15483 0.71823 0.02358 0.0
H704 H 0.10337 0.66745 0.01432 0.0
H705 H 0.06685 0.61107 0.02049 0.0
H706 H 0.08705 0.57336 0.0764 0.0
H707 H 0.13548 0.62576 0.08753 0.0
C708 C 0.15883 0.67806 0.06563 0.0
C709 C 0.16819 0.70297 0.05225 0.0
C710 C 0.12956 0.64868 0.06031 0.0
C711 C 0.14768 0.69916 0.03409 0.0
C712 C 0.11845 0.67015 0.02876 0.0
C713 C 0.08167 0.61435 0.03521 0.0
C714 C 0.07354 0.5882 0.04744 0.0
C715 C 0.10955 0.64448 0.04147 0.0
C716 C 0.0928 0.59303 0.06662 0.0
C717 C 0.12058 0.62298 0.07299 0.0
H718 H 0.31008 0.47524 0.02761 0.0
H719 H 0.32094 0.42822 0.08114 0.0
H720 H 0.37546 0.44135 0.07189 0.0
H721 H 0.41894 0.46452 0.04761 0.0
H722 H 0.40688 0.51076 0.99368 0.0
H723 H 0.35397 0.49964 1.00403 0.0
C724 C 0.32464 0.46822 0.03735 0.0
C725 C 0.31192 0.45107 0.05507 0.0
C726 C 0.35556 0.47549 0.03174 0.0
C727 C 0.33056 0.4417 0.06752 0.0
C728 C 0.36158 0.44908 0.06216 0.0
C729 C 0.4048 0.47221 0.03809 0.0
C730 C 0.417 0.48835 0.01976 0.0
C731 C 0.37419 0.46567 0.04414 0.0
C732 C 0.39825 0.49824 0.00779 0.0
C733 C 0.36791 0.4919 0.01371 0.0
H734 H 0.61184 0.9002 0.06556 0.0
H735 H 0.54573 0.82662 0.01624 0.0
H736 H 0.52178 0.85975 0.00705 0.0
H737 H 0.52102 0.91043 0.01236 0.0
H738 H 0.58749 0.98418 0.06184 0.0
H739 H 0.60983 0.95031 0.07166 0.0
C740 C 0.59198 0.89147 0.05296 0.0
C741 C 0.58029 0.86124 0.04158 0.0
C742 C 0.57856 0.91074 0.04772 0.0
C743 C 0.55481 0.84992 0.0252 0.0
C744 C 0.54125 0.86886 0.01992 0.0
C745 C 0.54035 0.91911 0.0253 0.0
C746 C 0.55261 0.94993 0.03622 0.0
C747 C 0.55314 0.89946 0.03094 0.0
C748 C 0.57758 0.96063 0.05306 0.0
C749 C 0.59043 0.94126 0.05874 0.0
H750 H 1.00075 0.16638 0.3868 0.0
H751 H 0.97258 0.23497 0.40904 0.0
H752 H 0.02074 0.27839 0.39621 0.0
H753 H 0.07084 0.29736 0.37878 0.0
H754 H 0.09723 0.22916 0.3535 0.0
H755 H 0.04893 0.18492 0.36666 0.0
C756 C 1.00465 0.19065 0.38859 0.0
C757 C 0.98285 0.19705 0.39929 0.0
C758 C 0.03196 0.21564 0.3804 0.0
C759 C 0.98911 0.22905 0.40158 0.0
C760 C 0.01656 0.25402 0.39397 0.0
C761 C 0.06598 0.27278 0.37604 0.0
C762 C 0.08767 0.26654 0.36528 0.0
C763 C 0.03815 0.24762 0.38344 0.0
C764 C 0.08081 0.23455 0.36164 0.0
C765 C 0.05332 0.20932 0.36929 0.0
H766 H 0.83813 0.79304 0.38335 0.0
H767 H 0.81813 0.798 0.44918 0.0
H768 H 0.77049 0.80179 0.43771 0.0
H769 H 0.73518 0.80546 0.40904 0.0
H770 H 0.75803 0.80479 0.34363 0.0
H771 H 0.80409 0.79825 0.35498 0.0
C772 C 0.82368 0.79535 0.39529 0.0
C773 C 0.83195 0.79508 0.41715 0.0
C774 C 0.79674 0.79844 0.38865 0.0
C775 C 0.81225 0.79746 0.43222 0.0
C776 C 0.78505 0.79993 0.42569 0.0
C777 C 0.75014 0.80368 0.39726 0.0
C778 C 0.74307 0.80551 0.3755 0.0
C779 C 0.77709 0.80055 0.40395 0.0
C780 C 0.76296 0.80358 0.36049 0.0
C781 C 0.78931 0.79978 0.36696 0.0
H782 H 0.21448 0.04753 0.36564 0.0
H783 H 0.29515 0.05752 0.40703 0.0
H784 H 0.28393 0.00437 0.39253 0.0
H785 H 0.25073 0.95482 0.36872 0.0
H786 H 0.16999 0.94446 0.32717 0.0
H787 H 0.18225 0.99842 0.3408 0.0
C788 C 0.22983 0.03823 0.37131 0.0
C789 C 0.25552 0.05643 0.38748 0.0
C790 C 0.22335 0.0077 0.36282 0.0
C791 C 0.2749 0.04381 0.39486 0.0
C792 C 0.26865 0.01352 0.38647 0.0
C793 C 0.23591 0.96438 0.36248 0.0
C794 C 0.20944 0.94556 0.34694 0.0
C795 C 0.24284 0.9952 0.37054 0.0
C796 C 0.19051 0.95841 0.33912 0.0
C797 C 0.19744 0.98923 0.34695 0.0
H798 H 0.48891 0.62543 0.31104 0.0
H799 H 0.55956 0.60835 0.28203 0.0
H800 H 0.60377 0.65871 0.30028 0.0
H801 H 0.62244 0.70958 0.3221 0.0
H802 H 0.55299 0.72759 0.35193 0.0
H803 H 0.50847 0.67493 0.33608 0.0
C804 C 0.51401 0.63256 0.30903 0.0
C805 C 0.52086 0.61345 0.29483 0.0
C806 C 0.53958 0.66185 0.31962 0.0
C807 C 0.55356 0.62296 0.29246 0.0
C808 C 0.57891 0.65174 0.30294 0.0
C809 C 0.5976 0.70192 0.3253 0.0
C810 C 0.59108 0.72267 0.33801 0.0
C811 C 0.5722 0.67174 0.31612 0.0
C812 C 0.55875 0.71211 0.34221 0.0
C813 C 0.53323 0.68203 0.33306 0.0
H814 H 0.35571 0.88009 0.26493 0.0
H815 H 0.41001 0.92606 0.32645 0.0
H816 H 0.35975 0.9114 0.34225 0.0
H817 H 0.30006 0.88714 0.33873 0.0
H818 H 0.24653 0.8474 0.27653 0.0
H819 H 0.29661 0.85859 0.26095 0.0
C820 C 0.35682 0.88737 0.28173 0.0
C821 C 0.38711 0.90383 0.29436 0.0
C822 C 0.32772 0.88004 0.29071 0.0
C823 C 0.38738 0.91248 0.31624 0.0
C824 C 0.35851 0.90443 0.32537 0.0
C825 C 0.29941 0.88074 0.32181 0.0
C826 C 0.26964 0.86624 0.30884 0.0
C827 C 0.32852 0.88825 0.31279 0.0
C828 C 0.26918 0.8586 0.28685 0.0
C829 C 0.29782 0.86498 0.27793 0.0
H830 H 0.07095 0.44348 0.29783 0.0
H831 H 0.15065 0.53003 0.33188 0.0
H832 H 0.17294 0.49863 0.34727 0.0
H833 H 0.16955 0.44628 0.35114 0.0
H834 H 0.08931 0.35985 0.31704 0.0
H835 H 0.06741 0.39134 0.3018 0.0
C836 C 0.09341 0.45543 0.30839 0.0
C837 C 0.10924 0.48894 0.31364 0.0
C838 C 0.1058 0.43719 0.31741 0.0
C839 C 0.13804 0.50417 0.32765 0.0
C840 C 0.15073 0.48625 0.33649 0.0
C841 C 0.14709 0.43434 0.34058 0.0
C842 C 0.13112 0.40078 0.3353 0.0
C843 C 0.13468 0.45267 0.33162 0.0
C844 C 0.1022 0.38569 0.32137 0.0
C845 C 0.08963 0.40367 0.31256 0.0
H846 H 0.34367 0.49755 0.29138 0.0
H847 H 0.40156 0.48543 0.34104 0.0
H848 H 0.35321 0.45545 0.3602 0.0
H849 H 0.29308 0.42619 0.35991 0.0
H850 H 0.23556 0.43633 0.30863 0.0
H851 H 0.28484 0.47368 0.2932 0.0
C852 C 0.34576 0.48921 0.30676 0.0
C853 C 0.37594 0.49391 0.31503 0.0
C854 C 0.31772 0.47113 0.31721 0.0
C855 C 0.3785 0.48244 0.33464 0.0
C856 C 0.35081 0.46504 0.34545 0.0
C857 C 0.29142 0.43718 0.34565 0.0
C858 C 0.26061 0.42817 0.33535 0.0
C859 C 0.32004 0.45824 0.33649 0.0
C860 C 0.2589 0.4425 0.31678 0.0
C861 C 0.28711 0.46391 0.3079 0.0
H862 H 0.52659 0.87272 0.29032 0.0
H863 H 0.52592 0.91157 0.35358 0.0
H864 H 0.557 0.88809 0.36889 0.0
H865 H 0.58825 0.86036 0.36376 0.0
H866 H 0.58923 0.82217 0.30008 0.0
H867 H 0.55411 0.84123 0.28555 0.0
C868 C 0.53274 0.87538 0.30749 0.0
C869 C 0.52395 0.89348 0.32092 0.0
C870 C 0.55099 0.86223 0.31607 0.0
C871 C 0.53228 0.89735 0.34307 0.0
C872 C 0.5502 0.88413 0.35177 0.0
C873 C 0.58054 0.85591 0.34674 0.0
C874 C 0.59174 0.84007 0.33308 0.0
C875 C 0.56033 0.86711 0.33837 0.0
C876 C 0.58124 0.83441 0.31105 0.0
C877 C 0.56112 0.84534 0.30265 0.0
H878 H 0.10686 0.63719 0.29937 0.0
H879 H 0.07488 0.62916 0.36261 0.0
H880 H 0.09693 0.68756 0.36779 0.0
H881 H 0.12652 0.74075 0.35472 0.0
H882 H 0.1584 0.74942 0.29128 0.0
H883 H 0.13522 0.69095 0.28572 0.0
C884 C 0.10453 0.64841 0.31413 0.0
C885 C 0.08929 0.6294 0.33059 0.0
C886 C 0.11742 0.68198 0.31699 0.0
C887 C 0.08643 0.6437 0.34975 0.0
C888 C 0.09912 0.67697 0.35273 0.0
C889 C 0.12848 0.72992 0.33968 0.0
C890 C 0.14436 0.74945 0.32351 0.0
C891 C 0.11492 0.69637 0.33654 0.0
C892 C 0.14635 0.73493 0.30402 0.0
C893 C 0.1331 0.70149 0.30082 0.0
H894 H 0.81806 0.02962 0.36386 0.0
H895 H 0.84496 0.01574 0.42721 0.0
H896 H 0.79749 0.96078 0.42382 0.0
H897 H 0.75071 0.91541 0.40146 0.0
H898 H 0.72566 0.92996 0.33752 0.0
H899 H 0.76979 0.9858 0.34251 0.0
C900 C 0.81306 0.01466 0.37703 0.0
C901 C 0.83447 0.0264 0.39579 0.0
C902 C 0.78625 0.98311 0.37474 0.0
C903 C 0.82837 0.00699 0.41271 0.0
C904 C 0.80141 0.97561 0.41069 0.0
C905 C 0.75471 0.93089 0.38871 0.0
C906 C 0.73496 0.91829 0.36908 0.0
C907 C 0.78051 0.96316 0.39158 0.0
C908 C 0.74055 0.93878 0.35274 0.0
C909 C 0.76581 0.97083 0.35556 0.0
H910 H 0.98023 0.8026 0.36792 0.0
H911 H 0.02665 0.83488 0.43234 0.0
H912 H 0.07784 0.84223 0.42011 0.0
H913 H 0.11009 0.84271 0.39049 0.0
H914 H 0.06298 0.81115 0.32592 0.0
H915 H 0.01155 0.80036 0.33875 0.0
C916 C 1.00146 0.81063 0.37929 0.0
C917 C 0.99981 0.81782 0.40098 0.0
C918 C 0.03079 0.81536 0.37204 0.0
C919 C 0.02741 0.82879 0.4156 0.0
C920 C 0.05668 0.83322 0.40856 0.0
C921 C 0.08859 0.83335 0.37921 0.0
C922 C 0.09071 0.82802 0.35718 0.0
C923 C 0.05883 0.82714 0.38672 0.0
C924 C 0.06235 0.81569 0.34291 0.0
C925 C 0.03279 0.80944 0.35024 0.0
H926 H 0.27595 0.23208 0.35649 0.0
H927 H 0.22479 0.19596 0.41188 0.0
H928 H 0.20503 0.23443 0.41075 0.0
H929 H 0.19896 0.27529 0.39191 0.0
H930 H 0.24913 0.30921 0.33554 0.0
H931 H 0.27276 0.27486 0.33916 0.0
C932 C 0.26094 0.23316 0.3685 0.0
C933 C 0.25185 0.21172 0.3843 0.0
C934 C 0.24927 0.25469 0.36741 0.0
C935 C 0.23215 0.21268 0.3997 0.0
C936 C 0.22077 0.23448 0.39896 0.0
C937 C 0.21535 0.27541 0.38059 0.0
C938 C 0.22198 0.29458 0.36337 0.0
C939 C 0.22863 0.25517 0.38258 0.0
C940 C 0.24327 0.29445 0.34881 0.0
C941 C 0.25689 0.27484 0.35086 0.0
H942 H 0.66389 0.5051 0.7133 0.0
H943 H 0.64935 0.5746 0.75039 0.0
H944 H 0.69819 0.61855 0.73811 0.0
H945 H 0.7441 0.63735 0.71614 0.0
H946 H 0.75669 0.56797 0.67737 0.0
H947 H 0.70859 0.52387 0.6904 0.0
C948 C 0.67099 0.52983 0.71852 0.0
C949 C 0.65261 0.5363 0.73275 0.0
C950 C 0.69852 0.55506 0.71085 0.0
C951 C 0.66306 0.56865 0.73973 0.0
C952 C 0.69085 0.59389 0.73251 0.0
C953 C 0.7363 0.6126 0.71042 0.0
C954 C 0.75405 0.60604 0.69573 0.0
C955 C 0.7086 0.58737 0.71795 0.0
C956 C 0.74344 0.57378 0.68853 0.0
C957 C 0.71603 0.54853 0.69608 0.0
H958 H 0.52672 0.15241 0.72355 0.0
H959 H 0.45687 0.05712 0.7389 0.0
H960 H 0.41251 0.06213 0.7221 0.0
H961 H 0.39279 0.0947 0.70527 0.0
H962 H 0.46169 0.18918 0.68835 0.0
H963 H 0.50688 0.18326 0.70324 0.0
C964 C 0.50186 0.13257 0.72287 0.0
C965 C 0.49521 0.10469 0.73291 0.0
C966 C 0.47613 0.13553 0.71303 0.0
C967 C 0.46274 0.07917 0.73178 0.0
C968 C 0.43726 0.08195 0.72212 0.0
C969 C 0.41769 0.11394 0.70471 0.0
C970 C 0.42376 0.14244 0.69587 0.0
C971 C 0.44355 0.11027 0.71314 0.0
C972 C 0.45626 0.16694 0.69504 0.0
C973 C 0.48216 0.16361 0.70363 0.0
H974 H 0.94565 0.39411 0.72993 0.0
H975 H 0.86131 0.39888 0.70727 0.0
H976 H 0.84011 0.34748 0.68484 0.0
H977 H 0.8449 0.29979 0.6731 0.0
H978 H 0.93131 0.2978 0.69549 0.0
H979 H 0.9525 0.34954 0.71627 0.0
C980 C 0.92259 0.38377 0.72008 0.0
C981 C 0.90471 0.39969 0.72043 0.0
C982 C 0.91104 0.3548 0.70707 0.0
C983 C 0.87524 0.38667 0.70732 0.0
C984 C 0.86322 0.3574 0.69451 0.0
C985 C 0.86858 0.31097 0.68224 0.0
C986 C 0.88626 0.29466 0.68284 0.0
C987 C 0.88082 0.34106 0.69438 0.0
C988 C 0.91693 0.30952 0.69484 0.0
C989 C 0.92914 0.33917 0.70682 0.0
H990 H 0.19925 0.97607 0.59705 0.0
H991 H 0.18235 0.93193 0.65655 0.0
H992 H 0.21962 0.98433 0.67612 0.0
H993 H 0.26079 0.0422 0.67617 0.0
H994 H 0.28295 0.08369 0.61602 0.0
H995 H 0.24098 0.03256 0.59686 0.0
C996 C 0.20394 0.97752 0.61426 0.0
C997 C 0.18798 0.94954 0.62509 0.0
C998 C 0.22694 0.00736 0.62534 0.0
C999 C 0.19369 0.95277 0.64759 0.0
C1000 C 0.21546 0.98278 0.65886 0.0
C1001 C 0.2563 0.03997 0.65888 0.0
C1002 C 0.27498 0.0666 0.6475 0.0
C1003 C 0.23275 0.01012 0.64787 0.0
C1004 C 0.26912 0.06342 0.6251 0.0
C1005 C 0.24501 0.03425 0.61415 0.0
H1006 H 0.01132 0.21795 0.59002 0.0
H1007 H 0.05718 0.21994 0.65177 0.0
H1008 H 0.00971 0.21296 0.66879 0.0
H1009 H 0.95445 0.20558 0.66633 0.0
H1010 H 0.90997 0.2068 0.60493 0.0
H1011 H 0.95725 0.21327 0.58781 0.0
C1012 C 0.01115 0.2173 0.60723 0.0
C1013 C 0.0378 0.21903 0.61945 0.0
C1014 C 0.98374 0.21361 0.61708 0.0
C1015 C 0.03684 0.21794 0.64178 0.0
C1016 C 0.00968 0.21407 0.65161 0.0
C1017 C 0.95508 0.20711 0.6492 0.0
C1018 C 0.92855 0.20551 0.63698 0.0
C1019 C 0.98279 0.21153 0.63942 0.0
C1020 C 0.93001 0.20799 0.6148 0.0
C1021 C 0.95711 0.21172 0.60494 0.0
H1022 H 0.75631 0.79224 0.62527 0.0
H1023 H 0.83875 0.87539 0.66056 0.0
H1024 H 0.8578 0.84099 0.67497 0.0
H1025 H 0.85085 0.7871 0.67789 0.0
H1026 H 0.76949 0.7043 0.64148 0.0
H1027 H 0.75047 0.73871 0.62713 0.0
C1028 C 0.77869 0.8029 0.63586 0.0
C1029 C 0.79591 0.83633 0.64191 0.0
C1030 C 0.78967 0.78299 0.64403 0.0
C1031 C 0.8247 0.84965 0.65588 0.0
C1032 C 0.8357 0.83002 0.6641 0.0
C1033 C 0.82887 0.7766 0.66691 0.0
C1034 C 0.81157 0.74318 0.66088 0.0
C1035 C 0.81824 0.7966 0.65844 0.0
C1036 C 0.78334 0.72998 0.64641 0.0
C1037 C 0.7724 0.74964 0.63816 0.0
H1038 H 0.05651 0.81543 0.66706 0.0
H1039 H 0.02122 0.81662 0.60271 0.0
H1040 H 0.96492 0.78766 0.61198 0.0
H1041 H 0.92583 0.75739 0.63746 0.0
H1042 H 0.96131 0.7556 0.70185 0.0
H1043 H 0.0173 0.78957 0.69362 0.0
C1044 C 0.03643 0.81 0.6553 0.0
C1045 C 0.04267 0.81823 0.63434 0.0
C1046 C 1.00418 0.79288 0.66069 0.0
C1047 C 0.01673 0.81075 0.61902 0.0
C1048 C 0.98461 0.79399 0.62428 0.0
C1049 C 0.94576 0.76469 0.64978 0.0
C1050 C 0.93926 0.75357 0.67019 0.0
C1051 C 0.97801 0.78417 0.64492 0.0
C1052 C 0.96548 0.7636 0.68598 0.0
C1053 C 0.99759 0.78302 0.68128 0.0
H1054 H 0.17697 0.19374 0.65692 0.0
H1055 H 0.18984 0.18606 0.59005 0.0
H1056 H 0.23739 0.18016 0.59916 0.0
H1057 H 0.27328 0.17425 0.62624 0.0
H1058 H 0.25912 0.18107 0.69319 0.0
H1059 H 0.21417 0.19021 0.684 0.0
C1060 C 0.19061 0.19131 0.64442 0.0
C1061 C 0.18042 0.19065 0.62292 0.0
C1062 C 0.21742 0.18741 0.6498 0.0
C1063 C 0.1977 0.187 0.60673 0.0
C1064 C 0.22467 0.18342 0.61195 0.0
C1065 C 0.26045 0.17783 0.63885 0.0
C1066 C 0.2696 0.17675 0.66041 0.0
C1067 C 0.23445 0.18308 0.63344 0.0
C1068 C 0.25269 0.18163 0.67648 0.0
C1069 C 0.22692 0.18691 0.67124 0.0
H1070 H 0.79535 0.99359 0.62574 0.0
H1071 H 0.74849 0.97479 0.68409 0.0
H1072 H 0.7565 0.02934 0.68764 0.0
H1073 H 0.78141 0.08365 0.67599 0.0
H1074 H 0.82873 0.10329 0.6177 0.0
H1075 H 0.81566 0.04709 0.61205 0.0
C1076 C 0.78638 1.00142 0.63893 0.0
C1077 C 0.77134 0.98062 0.65464 0.0
C1078 C 0.79143 0.03294 0.64096 0.0
C1079 C 0.75996 0.99065 0.6718 0.0
C1080 C 0.76469 0.0218 0.67388 0.0
C1081 C 0.78861 0.07558 0.66194 0.0
C1082 C 0.80638 0.09767 0.64745 0.0
C1083 C 0.78113 0.04339 0.65886 0.0
C1084 C 0.81511 0.08675 0.62914 0.0
C1085 C 0.80775 0.05466 0.62594 0.0
H1086 H 0.50981 0.35051 0.73756 0.0
H1087 H 0.47311 0.38794 0.68956 0.0
H1088 H 0.42543 0.33425 0.67996 0.0
H1089 H 0.39738 0.276 0.68274 0.0
H1090 H 0.43354 0.23789 0.73073 0.0
H1091 H 0.47805 0.29243 0.74304 0.0
C1092 C 0.49088 0.34684 0.72538 0.0
C1093 C 0.49453 0.37276 0.71426 0.0
C1094 C 0.46376 0.31581 0.71981 0.0
C1095 C 0.47037 0.36811 0.69836 0.0
C1096 C 0.4433 0.33745 0.69279 0.0
C1097 C 0.41483 0.27967 0.69602 0.0
C1098 C 0.41248 0.25296 0.70561 0.0
C1099 C 0.44024 0.31099 0.70299 0.0
C1100 C 0.43492 0.25809 0.72304 0.0
C1101 C 0.46043 0.28925 0.73004 0.0
H1102 H 0.68128 0.17627 0.7391 0.0
H1103 H 0.61792 0.10921 0.68607 0.0
H1104 H 0.66467 0.12517 0.665 0.0
H1105 H 0.72461 0.15412 0.6634 0.0
H1106 H 0.78735 0.21879 0.71788 0.0
H1107 H 0.74009 0.20804 0.73652 0.0
C1108 C 0.67768 0.16589 0.72268 0.0
C1109 C 0.64633 0.1421 0.71393 0.0
C1110 C 0.70475 0.1744 0.71106 0.0
C1111 C 0.64186 0.12807 0.69291 0.0
C1112 C 0.66864 0.13697 0.68099 0.0
C1113 C 0.7279 0.16623 0.67921 0.0
C1114 C 0.75966 0.18707 0.68923 0.0
C1115 C 0.70039 0.15949 0.69013 0.0
C1116 C 0.76335 0.2024 0.70979 0.0
C1117 C 0.73627 0.19632 0.72051 0.0
H1118 H 0.91014 0.55471 0.74169 0.0
H1119 H 0.93225 0.5402 0.67798 0.0
H1120 H 0.90943 0.57248 0.66455 0.0
H1121 H 0.88609 0.60721 0.67153 0.0
H1122 H 0.86467 0.62218 0.73563 0.0
H1123 H 0.8842 0.58727 0.74833 0.0
C1124 C 0.90944 0.55834 0.72483 0.0
C1125 C 0.92249 0.54524 0.71071 0.0
C1126 C 0.89672 0.57718 0.71738 0.0
C1127 C 0.92198 0.55007 0.68897 0.0
C1128 C 0.90913 0.56859 0.68137 0.0
C1129 C 0.88557 0.60277 0.68827 0.0
C1130 C 0.87415 0.61755 0.70261 0.0
C1131 C 0.8969 0.58269 0.69551 0.0
C1132 C 0.87343 0.61127 0.72422 0.0
C1133 C 0.88461 0.59129 0.73153 0.0
H1134 H 0.44001 0.97093 0.23404 0.0
H1135 H 0.47733 0.90614 0.22557 0.0
H1136 H 0.49194 0.92327 0.19002 0.0
H1137 H 0.49764 0.95936 0.16235 0.0
H1138 H 0.46175 0.02537 0.17099 0.0
H1139 H 0.44325 0.00528 0.20533 0.0
C1140 C 0.45082 0.96021 0.22422 0.0
C1141 C 0.45758 0.9373 0.23242 0.0
C1142 C 0.45982 0.97071 0.2039 0.0
C1143 C 0.47202 0.92392 0.21965 0.0
C1144 C 0.48043 0.93374 0.19933 0.0
C1145 C 0.48534 0.96903 0.17158 0.0
C1146 C 0.4813 0.994 0.16408 0.0
C1147 C 0.47499 0.95754 0.19143 0.0
C1148 C 0.46565 0.00649 0.17647 0.0
C1149 C 0.45491 0.99489 0.1961 0.0
H1150 H 0.0955 0.51666 0.24075 0.0
H1151 H 0.01233 0.51915 0.26247 0.0
H1152 H 0.98918 0.51119 0.22557 0.0
H1153 H 0.99185 0.50275 0.18714 0.0
H1154 H 0.07356 0.49787 0.16508 0.0
H1155 H 0.09787 0.50758 0.20201 0.0
C1156 C 0.07222 0.51526 0.23743 0.0
C1157 C 0.05588 0.51873 0.25449 0.0
C1158 C 0.05871 0.51025 0.21607 0.0
C1159 C 0.02587 0.51722 0.24976 0.0
C1160 C 0.01241 0.51239 0.22862 0.0
C1161 C 0.01483 0.50347 0.19038 0.0
C1162 C 0.03072 0.49943 0.17327 0.0
C1163 C 0.02853 0.50876 0.21166 0.0
C1164 C 0.06087 0.5012 0.17785 0.0
C1165 C 0.07473 0.50656 0.199 0.0
H1166 H 0.47078 0.49995 0.22404 0.0
H1167 H 0.4948 0.59794 0.21669 0.0
H1168 H 0.50619 0.59217 0.17978 0.0
H1169 H 0.51066 0.55964 0.14981 0.0
H1170 H 0.48569 0.4614 0.15724 0.0
H1171 H 0.47313 0.46689 0.19379 0.0
C1172 C 0.47803 0.51992 0.21429 0.0
C1173 C 0.4819 0.54933 0.22319 0.0
C1174 C 0.48451 0.51644 0.19307 0.0
C1175 C 0.49196 0.57513 0.21037 0.0
C1176 C 0.49834 0.57181 0.18921 0.0
C1177 C 0.50211 0.53932 0.15934 0.0
C1178 C 0.49934 0.51021 0.15078 0.0
C1179 C 0.4949 0.54263 0.18042 0.0
C1180 C 0.48857 0.48425 0.1635 0.0
C1181 C 0.48121 0.4873 0.18438 0.0
H1182 H 0.99735 0.50237 0.79373 0.0
H1183 H 0.90142 0.42129 0.79802 0.0
H1184 H 0.9136 0.42463 0.83675 0.0
H1185 H 0.95133 0.45154 0.86961 0.0
H1186 H 0.04645 0.53375 0.86481 0.0
H1187 H 0.0346 0.52912 0.82616 0.0
C1188 C 0.97894 0.48559 0.80313 0.0
C1189 C 0.94842 0.46178 0.79296 0.0
C1190 C 0.98596 0.48787 0.82536 0.0
C1191 C 0.9252 0.43973 0.80538 0.0
C1192 C 0.93207 0.44176 0.82757 0.0
C1193 C 0.96936 0.46854 0.8601 0.0
C1194 C 0.99981 0.49285 0.87015 0.0
C1195 C 0.96232 0.46589 0.83776 0.0
C1196 C 0.02303 0.51447 0.85753 0.0
C1197 C 0.01622 0.51198 0.8354 0.0
H1198 H 0.58295 0.53571 0.78766 0.0
H1199 H 0.55785 0.4369 0.7926 0.0
H1200 H 0.53842 0.43836 0.82756 0.0
H1201 H 0.52739 0.46731 0.85645 0.0
H1202 H 0.55227 0.56605 0.85143 0.0
H1203 H 0.57292 0.56501 0.81689 0.0
C1204 C 0.57355 0.51461 0.79649 0.0
C1205 C 0.57185 0.48623 0.78747 0.0
C1206 C 0.56222 0.51555 0.81657 0.0
C1207 C 0.55913 0.45895 0.79903 0.0
C1208 C 0.54812 0.4598 0.81908 0.0
C1209 C 0.53764 0.48871 0.8479 0.0
C1210 C 0.53819 0.5167 0.85655 0.0
C1211 C 0.54937 0.48791 0.82796 0.0
C1212 C 0.55115 0.54405 0.84507 0.0
C1213 C 0.56312 0.54354 0.82534 0.0
H1214 H 0.57524 0.10244 0.81672 0.0
H1215 H 0.47753 0.0359 0.78815 0.0
H1216 H 0.46369 0.01071 0.82153 0.0
H1217 H 0.4795 0.00672 0.85868 0.0
H1218 H 0.57782 0.07189 0.88678 0.0
H1219 H 0.59114 0.09826 0.85379 0.0
C1220 C 0.55096 0.08228 0.81771 0.0
C1221 C 0.52751 0.07119 0.79983 0.0
C1222 C 0.54323 0.06757 0.83692 0.0
C1223 C 0.49601 0.04535 0.80165 0.0
C1224 C 0.48811 0.03071 0.82072 0.0
C1225 C 0.50394 0.02651 0.85755 0.0
C1226 C 0.52758 0.03721 0.87529 0.0
C1227 C 0.51156 0.04148 0.83843 0.0
C1228 C 0.55896 0.06333 0.87356 0.0
C1229 C 0.56668 0.07835 0.85462 0.0
H1230 H 0.07373 0.24411 0.54727 0.0
H1231 H 0.17099 0.28008 0.57713 0.0
H1232 H 0.19379 0.3097 0.54631 0.0
H1233 H 0.18627 0.32477 0.51045 0.0
H1234 H 0.08894 0.28885 0.48067 0.0
H1235 H 0.06622 0.25995 0.5117 0.0
C1236 C 0.09992 0.25872 0.54716 0.0
C1237 C 0.12054 0.25976 0.5646 0.0
C1238 C 0.11295 0.27562 0.52926 0.0
C1239 C 0.15446 0.27848 0.56391 0.0
C1240 C 0.16756 0.29556 0.54629 0.0
C1241 C 0.16008 0.31087 0.5108 0.0
C1242 C 0.13945 0.30903 0.49307 0.0
C1243 C 0.14706 0.2942 0.5288 0.0
C1244 C 0.10553 0.29043 0.49383 0.0
C1245 C 0.09245 0.274 0.51169 0.0
H1246 H 0.77671 0.85983 0.56926 0.0
H1247 H 0.7029 0.87578 0.59444 0.0
H1248 H 0.67635 0.86691 0.55839 0.0
H1249 H 0.67339 0.8538 0.51978 0.0
H1250 H 0.7455 0.8352 0.49459 0.0
H1251 H 0.77332 0.84599 0.53052 0.0
C1252 C 0.75468 0.86113 0.5669 0.0
C1253 C 0.74197 0.86859 0.58464 0.0
C1254 C 0.73918 0.85556 0.54609 0.0
C1255 C 0.71363 0.87064 0.58114 0.0
C1256 C 0.69823 0.86532 0.56051 0.0
C1257 C 0.69501 0.85178 0.52213 0.0
C1258 C 0.70721 0.84361 0.50441 0.0
C1259 C 0.7107 0.85763 0.54288 0.0
C1260 C 0.7357 0.84181 0.50782 0.0
C1261 C 0.75155 0.84778 0.52841 0.0
H1262 H 0.12075 0.84448 0.54554 0.0
H1263 H 0.22214 0.90324 0.56954 0.0
H1264 H 0.23815 0.89708 0.5342 0.0
H1265 H 0.22346 0.87687 0.49623 0.0
H1266 H 0.12222 0.81664 0.47225 0.0
H1267 H 0.10611 0.82152 0.50785 0.0
C1268 C 0.14635 0.85557 0.54311 0.0
C1269 C 0.17017 0.87455 0.56016 0.0
C1270 C 0.15544 0.85182 0.52273 0.0
C1271 C 0.20326 0.88902 0.55664 0.0
C1272 C 0.21246 0.88536 0.53645 0.0
C1273 C 0.19787 0.86429 0.49882 0.0
C1274 C 0.17413 0.84645 0.48151 0.0
C1275 C 0.18877 0.86708 0.51934 0.0
C1276 C 0.14104 0.83089 0.48518 0.0
C1277 C 0.13179 0.83354 0.50556 0.0
H1278 H 0.57321 0.7588 0.13251 0.0
H1279 H 0.66179 0.84153 0.11754 0.0
H1280 H 0.68157 0.85523 0.15554 0.0
H1281 H 0.67551 0.84134 0.19265 0.0
H1282 H 0.58702 0.75836 0.20758 0.0
H1283 H 0.56585 0.74665 0.16987 0.0
C1284 C 0.59683 0.77988 0.13757 0.0
C1285 C 0.61605 0.799 0.12217 0.0
C1286 C 0.6083 0.78729 0.1594 0.0
C1287 C 0.64634 0.82656 0.12904 0.0
C1288 C 0.65781 0.83424 0.15076 0.0
C1289 C 0.65136 0.82099 0.18775 0.0
C1290 C 0.63302 0.80065 0.20299 0.0
C1291 C 0.63923 0.81447 0.16604 0.0
C1292 C 0.60196 0.7741 0.1962 0.0
C1293 C 0.58972 0.7675 0.17464 0.0
H1294 H 0.2194 0.77768 0.1296 0.0
H1295 H 0.24427 0.87246 0.11253 0.0
H1296 H 0.22228 0.88184 0.1446 0.0
H1297 H 0.19757 0.86378 0.17811 0.0
H1298 H 0.17277 0.769 0.19516 0.0
H1299 H 0.19302 0.75892 0.16247 0.0
C1300 C 0.21962 0.80022 0.13276 0.0
C1301 C 0.23352 0.82435 0.11871 0.0
C1302 C 0.20708 0.80551 0.15128 0.0
C1303 C 0.23406 0.85363 0.12322 0.0
C1304 C 0.22138 0.85897 0.1415 0.0
C1305 C 0.19622 0.84077 0.17453 0.0
C1306 C 0.18373 0.81722 0.18909 0.0
C1307 C 0.20806 0.83518 0.15574 0.0
C1308 C 0.18261 0.78769 0.18436 0.0
C1309 C 0.19407 0.78185 0.16563 0.0
H1310 H 0.19964 0.44389 0.14786 0.0
H1311 H 0.22232 0.3747 0.11906 0.0
H1312 H 0.21804 0.35134 0.15308 0.0
H1313 H 0.20403 0.34803 0.19041 0.0
H1314 H 0.17866 0.41567 0.21841 0.0
H1315 H 0.18761 0.44186 0.18537 0.0
C1316 C 0.20366 0.42369 0.14897 0.0
C1317 C 0.21107 0.41101 0.13074 0.0
C1318 C 0.2004 0.40984 0.16848 0.0
C1319 C 0.21691 0.38527 0.13276 0.0
C1320 C 0.21412 0.37163 0.15221 0.0
C1321 C 0.20035 0.36843 0.18929 0.0
C1322 C 0.19054 0.37968 0.20699 0.0
C1323 C 0.20522 0.38328 0.17006 0.0
C1324 C 0.18652 0.4066 0.20524 0.0
C1325 C 0.19146 0.42153 0.18626 0.0
H1326 H 0.76381 0.62551 0.89231 0.0
H1327 H 0.81727 0.57507 0.88783 0.0
H1328 H 0.83558 0.59701 0.8538 0.0
H1329 H 0.83739 0.63174 0.82563 0.0
H1330 H 0.78352 0.68177 0.83064 0.0
H1331 H 0.7643 0.65862 0.86401 0.0
C1332 C 0.77904 0.61884 0.88376 0.0
C1333 C 0.78893 0.59844 0.89264 0.0
C1334 C 0.78959 0.63166 0.86429 0.0
C1335 C 0.80938 0.59081 0.88149 0.0
C1336 C 0.81979 0.6033 0.86197 0.0
C1337 C 0.8212 0.63732 0.83392 0.0
C1338 C 0.81213 0.6587 0.82562 0.0
C1339 C 0.81021 0.62392 0.85326 0.0
C1340 C 0.79137 0.66587 0.83676 0.0
C1341 C 0.78019 0.65249 0.85582 0.0
H1342 H 0.43818 0.17488 0.89283 0.0
H1343 H 0.36043 0.18724 0.91467 0.0
H1344 H 0.33768 0.18057 0.87772 0.0
H1345 H 0.33843 0.16887 0.83932 0.0
H1346 H 0.41457 0.15379 0.81756 0.0
H1347 H 0.43929 0.16382 0.85436 0.0
C1348 C 0.41616 0.17597 0.88953 0.0
C1349 C 0.40102 0.18145 0.90657 0.0
C1350 C 0.40284 0.17151 0.86825 0.0
C1351 C 0.37287 0.18345 0.90192 0.0
C1352 C 0.35966 0.17936 0.88078 0.0
C1353 C 0.36031 0.16755 0.84263 0.0
C1354 C 0.37449 0.16041 0.82568 0.0
C1355 C 0.3742 0.17297 0.86385 0.0
C1356 C 0.40327 0.15951 0.83025 0.0
C1357 C 0.41733 0.16506 0.85131 0.0
H1358 H 0.81721 0.2504 0.87601 0.0
H1359 H 0.82166 0.16843 0.89661 0.0
H1360 H 0.83145 0.15584 0.86055 0.0
H1361 H 0.84182 0.16988 0.82361 0.0
H1362 H 0.83751 0.25205 0.80319 0.0
H1363 H 0.82542 0.26316 0.83881 0.0
C1364 C 0.82038 0.2298 0.87263 0.0
C1365 C 0.81876 0.21047 0.88908 0.0
C1366 C 0.82644 0.22293 0.85192 0.0
C1367 C 0.82239 0.18355 0.88427 0.0
C1368 C 0.82827 0.17647 0.86366 0.0
C1369 C 0.83783 0.18998 0.82684 0.0
C1370 C 0.8409 0.21024 0.81069 0.0
C1371 C 0.8307 0.1962 0.8474 0.0
C1372 C 0.83596 0.23639 0.81535 0.0
C1373 C 0.82882 0.24267 0.83571 0.0
H1374 H 0.3169 0.11494 0.45222 0.0
H1375 H 0.26245 0.16459 0.4553 0.0
H1376 H 0.28025 0.18019 0.49353 0.0
H1377 H 0.31016 0.17834 0.52638 0.0
H1378 H 0.36197 0.12612 0.52309 0.0
H1379 H 0.3455 0.11212 0.48471 0.0
C1380 C 0.30844 0.12876 0.46124 0.0
C1381 C 0.28813 0.13834 0.45083 0.0
C1382 C 0.31813 0.137 0.48324 0.0
C1383 C 0.27831 0.15709 0.46279 0.0
C1384 C 0.2883 0.16584 0.4847 0.0
C1385 C 0.31791 0.16402 0.51719 0.0
C1386 C 0.33717 0.15319 0.52753 0.0
C1387 C 0.3081 0.15581 0.49512 0.0
C1388 C 0.34684 0.13441 0.51552 0.0
C1389 C 0.33757 0.12654 0.49358 0.0
H1390 H 0.88494 0.11609 0.46636 0.0
H1391 H 0.90737 0.20638 0.44198 0.0
H1392 H 0.88697 0.22071 0.47296 0.0
H1393 H 0.86404 0.20842 0.50752 0.0
H1394 H 0.84037 0.11766 0.53162 0.0
H1395 H 0.85979 0.10278 0.50027 0.0
C1396 C 0.88503 0.13874 0.4677 0.0
C1397 C 0.89798 0.16019 0.45187 0.0
C1398 C 0.87311 0.14686 0.48559 0.0
C1399 C 0.89815 0.18961 0.45405 0.0
C1400 C 0.88629 0.19778 0.47174 0.0
C1401 C 0.8627 0.18519 0.5058 0.0
C1402 C 0.85085 0.16431 0.52203 0.0
C1403 C 0.8739 0.17671 0.48768 0.0
C1404 C 0.8498 0.13448 0.51959 0.0
C1405 C 0.86078 0.12585 0.50159 0.0
H1406 H 0.84007 0.71754 0.46021 0.0
H1407 H 0.93721 0.79498 0.48183 0.0
H1408 H 0.93386 0.77257 0.5162 0.0
H1409 H 0.90182 0.73279 0.54106 0.0
H1410 H 0.80372 0.65708 0.51949 0.0
H1411 H 0.80892 0.67718 0.48438 0.0
C1412 C 0.86056 0.72957 0.47242 0.0
C1413 C 0.88875 0.75811 0.46841 0.0
C1414 C 0.85818 0.71699 0.49232 0.0
C1415 C 0.91529 0.77287 0.48432 0.0
C1416 C 0.91326 0.76023 0.5041 0.0
C1417 C 0.88154 0.72076 0.52871 0.0
C1418 C 0.85239 0.6934 0.53304 0.0
C1419 C 0.88457 0.73265 0.50845 0.0
C1420 C 0.82658 0.67789 0.51665 0.0
C1421 C 0.82945 0.68948 0.49653 0.0
loop_
_geom_bond_atom_site_label_1
_geom_bond_atom_site_label_2
_geom_bond_distance
_geom_bond_site_symmetry_2
_ccdc_geom_bond_type
H0 C3 0.929 . S
H1 C6 0.929 . S
H2 C8 0.930 . S
C3 H0 0.929 . S
C3 C4 1.398 . S
C3 C5 1.396 . S
C4 C3 1.398 . S
C4 C8 1.407 . S
C5 C3 1.396 . S
C5 C6 1.394 . S
C6 H1 0.929 . S
C6 C5 1.394 . S
C6 C7 1.382 . S
C7 C6 1.382 . S
C7 C8 1.392 . S
C7 N9 1.420 . S
C8 H2 0.930 . S
C8 C4 1.407 . S
C8 C7 1.392 . S
N9 C7 1.420 . S
N9 C10 1.244 . S
C10 N9 1.244 . S
H11 C14 0.929 . S
H12 C17 0.929 . S
H13 C19 0.930 . S
C14 H11 0.929 . S
C14 C15 1.398 . S
C14 C16 1.396 . S
C15 C14 1.398 . S
C15 C19 1.407 . S
C16 C14 1.396 . S
C16 C17 1.394 . S
C17 H12 0.929 . S
C17 C16 1.394 . S
C17 C18 1.382 . S
C18 C17 1.382 . S
C18 C19 1.392 . S
C18 N20 1.420 . S
C19 H13 0.930 . S
C19 C15 1.407 . S
C19 C18 1.392 . S
N20 C18 1.420 . S
N20 C21 1.244 . S
C21 N20 1.244 . S
H22 C25 0.929 . S
H23 C28 0.929 . S
H24 C30 0.930 . S
C25 H22 0.929 . S
C25 C26 1.398 . S
C25 C27 1.396 . S
C26 C25 1.398 . S
C26 C30 1.407 . S
C27 C25 1.396 . S
C27 C28 1.394 . S
C28 H23 0.929 . S
C28 C27 1.394 . S
C28 C29 1.382 . S
C29 C28 1.382 . S
C29 C30 1.392 . S
C29 N31 1.420 . S
C30 H24 0.930 . S
C30 C26 1.407 . S
C30 C29 1.392 . S
N31 C29 1.420 . S
N31 C32 1.244 . S
C32 N31 1.244 . S
H33 C36 0.929 . S
H34 C39 0.929 . S
H35 C41 0.930 . S
C36 H33 0.929 . S
C36 C37 1.398 . S
C36 C38 1.396 . S
C37 C36 1.398 . S
C37 C41 1.407 . S
C38 C36 1.396 . S
C38 C39 1.394 . S
C39 H34 0.929 . S
C39 C38 1.394 . S
C39 C40 1.382 . S
C40 C39 1.382 . S
C40 C41 1.392 . S
C40 N42 1.420 . S
C41 H35 0.930 . S
C41 C37 1.407 . S
C41 C40 1.392 . S
N42 C40 1.420 . S
N42 C43 1.244 . S
C43 N42 1.244 . S
H44 C47 0.929 . S
H45 C50 0.929 . S
H46 C52 0.930 . S
C47 H44 0.929 . S
C47 C48 1.398 . S
C47 C49 1.396 . S
C48 C47 1.398 . S
C48 C52 1.407 . S
C49 C47 1.396 . S
C49 C50 1.394 . S
C50 H45 0.929 . S
C50 C49 1.394 . S
C50 C51 1.382 . S
C51 C50 1.382 . S
C51 C52 1.392 . S
C51 N53 1.420 . S
C52 H46 0.930 . S
C52 C48 1.407 . S
C52 C51 1.392 . S
N53 C51 1.420 . S
N53 C54 1.244 . S
C54 N53 1.244 . S
H55 C58 0.929 . S
H56 C61 0.929 . S
H57 C63 0.930 . S
C58 H55 0.929 . S
C58 C59 1.398 . S
C58 C60 1.396 . S
C59 C58 1.398 . S
C59 C63 1.407 . S
C60 C58 1.396 . S
C60 C61 1.394 . S
C61 H56 0.929 . S
C61 C60 1.394 . S
C61 C62 1.382 . S
C62 C61 1.382 . S
C62 C63 1.392 . S
C62 N64 1.420 . S
C63 H57 0.930 . S
C63 C59 1.407 . S
C63 C62 1.392 . S
N64 C62 1.420 . S
N64 C65 1.244 . S
C65 N64 1.244 . S
H66 C69 0.929 . S
H67 C72 0.929 . S
H68 C74 0.930 . S
C69 H66 0.929 . S
C69 C70 1.398 . S
C69 C71 1.396 . S
C70 C69 1.398 . S
C70 C74 1.407 . S
C71 C69 1.396 . S
C71 C72 1.394 . S
C72 H67 0.929 . S
C72 C71 1.394 . S
C72 C73 1.382 . S
C73 C72 1.382 . S
C73 C74 1.392 . S
C73 N75 1.420 . S
C74 H68 0.930 . S
C74 C70 1.407 . S
C74 C73 1.392 . S
N75 C73 1.420 . S
N75 C76 1.244 . S
C76 N75 1.244 . S
H77 C80 0.929 . S
H78 C83 0.929 . S
H79 C85 0.930 . S
C80 H77 0.929 . S
C80 C81 1.398 . S
C80 C82 1.396 . S
C81 C80 1.398 . S
C81 C85 1.407 . S
C82 C80 1.396 . S
C82 C83 1.394 . S
C83 H78 0.929 . S
C83 C82 1.394 . S
C83 C84 1.382 . S
C84 C83 1.382 . S
C84 C85 1.392 . S
C84 N86 1.420 . S
C85 H79 0.930 . S
C85 C81 1.407 . S
C85 C84 1.392 . S
N86 C84 1.420 . S
N86 C87 1.244 . S
C87 N86 1.244 . S
H88 C91 0.929 . S
H89 C94 0.929 . S
H90 C96 0.930 . S
C91 H88 0.929 . S
C91 C92 1.398 . S
C91 C93 1.396 . S
C92 C91 1.398 . S
C92 C96 1.407 . S
C93 C91 1.396 . S
C93 C94 1.394 . S
C94 H89 0.929 . S
C94 C93 1.394 . S
C94 C95 1.382 . S
C95 C94 1.382 . S
C95 C96 1.392 . S
C95 N97 1.420 . S
C96 H90 0.930 . S
C96 C92 1.407 . S
C96 C95 1.392 . S
N97 C95 1.420 . S
N97 C98 1.244 . S
C98 N97 1.244 . S
H99 C102 0.929 . S
H100 C105 0.929 . S
H101 C107 0.930 . S
C102 H99 0.929 . S
C102 C103 1.398 . S
C102 C104 1.396 . S
C103 C102 1.398 . S
C103 C107 1.407 . S
C104 C102 1.396 . S
C104 C105 1.394 . S
C105 H100 0.929 . S
C105 C104 1.394 . S
C105 C106 1.382 . S
C106 C105 1.382 . S
C106 C107 1.392 . S
C106 N108 1.420 . S
C107 H101 0.930 . S
C107 C103 1.407 . S
C107 C106 1.392 . S
N108 C106 1.420 . S
N108 C109 1.244 . S
C109 N108 1.244 . S
H110 C113 0.929 . S
H111 C116 0.929 . S
H112 C118 0.930 1_554 S
C113 H110 0.929 . S
C113 C114 1.398 . S
C113 C115 1.396 . S
C114 C113 1.398 . S
C114 C118 1.407 . S
C115 C113 1.396 . S
C115 C116 1.394 . S
C116 H111 0.929 . S
C116 C115 1.394 . S
C116 C117 1.382 . S
C117 C116 1.382 . S
C117 C118 1.392 . S
C117 N119 1.420 . S
C118 H112 0.930 1_556 S
C118 C114 1.407 . S
C118 C117 1.392 . S
N119 C117 1.420 . S
N119 C120 1.244 . S
C120 N119 1.244 . S
H121 C124 0.929 . S
H122 C127 0.929 . S
H123 C129 0.930 . S
C124 H121 0.929 . S
C124 C125 1.398 . S
C124 C126 1.396 . S
C125 C124 1.398 . S
C125 C129 1.407 . S
C126 C124 1.396 . S
C126 C127 1.394 . S
C127 H122 0.929 . S
C127 C126 1.394 . S
C127 C128 1.382 . S
C128 C127 1.382 . S
C128 C129 1.392 . S
C128 N130 1.420 . S
C129 H123 0.930 . S
C129 C125 1.407 . S
C129 C128 1.392 . S
N130 C128 1.420 . S
N130 C131 1.244 . S
C131 N130 1.244 . S
H132 C135 0.929 . S
H133 C138 0.929 . S
H134 C140 0.930 . S
C135 H132 0.929 . S
C135 C136 1.398 . S
C135 C137 1.396 . S
C136 C135 1.398 . S
C136 C140 1.407 . S
C137 C135 1.396 . S
C137 C138 1.394 . S
C138 H133 0.929 . S
C138 C137 1.394 . S
C138 C139 1.382 . S
C139 C138 1.382 . S
C139 C140 1.392 . S
C139 N141 1.420 . S
C140 H134 0.930 . S
C140 C136 1.407 . S
C140 C139 1.392 . S
N141 C139 1.420 . S
N141 C142 1.244 . S
C142 N141 1.244 . S
H143 C146 0.929 . S
H144 C149 0.929 . S
H145 C151 0.930 . S
C146 H143 0.929 . S
C146 C147 1.398 . S
C146 C148 1.396 . S
C147 C146 1.398 . S
C147 C151 1.407 . S
C148 C146 1.396 . S
C148 C149 1.394 . S
C149 H144 0.929 . S
C149 C148 1.394 . S
C149 C150 1.382 . S
C150 C149 1.382 . S
C150 C151 1.392 . S
C150 N152 1.420 . S
C151 H145 0.930 . S
C151 C147 1.407 . S
C151 C150 1.392 . S
N152 C150 1.420 . S
N152 C153 1.244 . S
C153 N152 1.244 . S
H154 C157 0.929 . S
H155 C160 0.929 . S
H156 C162 0.930 . S
C157 H154 0.929 . S
C157 C158 1.398 . S
C157 C159 1.396 . S
C158 C157 1.398 . S
C158 C162 1.407 . S
C159 C157 1.396 . S
C159 C160 1.394 . S
C160 H155 0.929 . S
C160 C159 1.394 . S
C160 C161 1.382 . S
C161 C160 1.382 . S
C161 C162 1.392 . S
C161 N163 1.420 . S
C162 H156 0.930 . S
C162 C158 1.407 . S
C162 C161 1.392 . S
N163 C161 1.420 . S
N163 C164 1.244 . S
C164 N163 1.244 . S
H165 C168 0.929 . S
H166 C171 0.929 . S
H167 C173 0.930 . S
C168 H165 0.929 . S
C168 C169 1.398 . S
C168 C170 1.396 . S
C169 C168 1.398 . S
C169 C173 1.407 . S
C170 C168 1.396 . S
C170 C171 1.394 . S
C171 H166 0.929 . S
C171 C170 1.394 . S
C171 C172 1.382 . S
C172 C171 1.382 . S
C172 C173 1.392 . S
C172 N174 1.420 . S
C173 H167 0.930 . S
C173 C169 1.407 . S
C173 C172 1.392 . S
N174 C172 1.420 . S
N174 C175 1.244 . S
C175 N174 1.244 . S
H176 C179 0.929 . S
H177 C182 0.929 . S
H178 C184 0.930 . S
C179 H176 0.929 . S
C179 C180 1.398 . S
C179 C181 1.396 . S
C180 C179 1.398 . S
C180 C184 1.407 . S
C181 C179 1.396 . S
C181 C182 1.394 . S
C182 H177 0.929 . S
C182 C181 1.394 . S
C182 C183 1.382 . S
C183 C182 1.382 . S
C183 C184 1.392 . S
C183 N185 1.420 . S
C184 H178 0.930 . S
C184 C180 1.407 . S
C184 C183 1.392 . S
N185 C183 1.420 . S
N185 C186 1.244 . S
C186 N185 1.244 . S
H187 C190 0.929 . S
H188 C193 0.929 . S
H189 C195 0.930 . S
C190 H187 0.929 . S
C190 C191 1.398 . S
C190 C192 1.396 . S
C191 C190 1.398 . S
C191 C195 1.407 . S
C192 C190 1.396 . S
C192 C193 1.394 . S
C193 H188 0.929 . S
C193 C192 1.394 . S
C193 C194 1.382 . S
C194 C193 1.382 . S
C194 C195 1.392 . S
C194 N196 1.420 . S
C195 H189 0.930 . S
C195 C191 1.407 . S
C195 C194 1.392 . S
N196 C194 1.420 . S
N196 C197 1.244 . S
C197 N196 1.244 . S
Eu198 C207 2.828 1_565 S
Eu198 O209 2.392 . S
Eu198 O211 2.418 . S
Eu198 O216 2.373 1_565 S
Eu198 O219 2.488 . S
Eu198 O220 2.471 1_565 S
Eu198 O221 2.349 1_565 S
Eu199 O208 2.373 1_545 S
Eu199 O212 2.488 . S
Eu199 O213 2.471 1_545 S
Eu199 O214 2.349 1_545 S
Eu199 O217 2.392 . S
Eu199 O218 2.418 . S
Eu199 C228 2.828 . S
C200 O218 1.244 . S
C200 O221 1.265 1_554 S
C201 C202 1.379 . S
C201 C205 1.373 1_545 S
C201 C207 1.505 . S
C202 C201 1.379 . S
C202 C204 1.369 . S
C202 H230 0.930 . S
C203 C205 1.383 1_545 S
C203 C206 1.382 . S
C203 H231 0.930 1_545 S
C204 C202 1.369 . S
C204 C206 1.392 . S
C204 H232 0.930 . S
C205 C201 1.373 1_565 S
C205 C203 1.383 1_565 S
C205 H233 0.931 . S
C206 C203 1.382 . S
C206 C204 1.392 . S
C207 Eu198 2.828 1_545 S
C207 C201 1.505 . S
C207 O219 1.249 1_545 S
C207 O220 1.244 . S
O208 Eu199 2.373 1_565 S
O208 C210 1.258 . S
O209 Eu198 2.392 . S
O209 C210 1.242 1_556 S
C210 O208 1.258 . S
C210 O209 1.242 1_554 S
O211 Eu198 2.418 . S
O211 C215 1.244 1_556 S
O212 Eu199 2.488 . S
O212 C228 1.249 . S
O213 Eu199 2.471 1_565 S
O213 C228 1.244 1_565 S
O214 Eu199 2.349 1_565 S
O214 C215 1.265 . S
C215 O211 1.244 1_554 S
C215 O214 1.265 . S
O216 Eu198 2.373 1_545 S
O216 C229 1.258 . S
O217 Eu199 2.392 . S
O217 C229 1.242 1_554 S
O218 Eu199 2.418 . S
O218 C200 1.244 . S
O219 Eu198 2.488 . S
O219 C207 1.249 1_565 S
O220 Eu198 2.471 1_545 S
O220 C207 1.244 . S
O221 Eu198 2.349 1_545 S
O221 C200 1.265 1_556 S
C222 C223 1.379 . S
C222 C226 1.373 1_565 S
C222 C228 1.505 1_565 S
C223 C222 1.379 . S
C223 C225 1.369 . S
C223 H234 0.930 . S
C224 C226 1.383 . S
C224 C227 1.382 1_545 S
C224 H235 0.930 . S
C225 C223 1.369 . S
C225 C227 1.392 . S
C225 H236 0.930 . S
C226 C222 1.373 1_545 S
C226 C224 1.383 . S
C226 H237 0.931 . S
C227 C224 1.382 1_565 S
C227 C225 1.392 . S
C228 Eu199 2.828 . S
C228 O212 1.249 . S
C228 O213 1.244 1_545 S
C228 C222 1.505 1_545 S
C229 O216 1.258 . S
C229 O217 1.242 1_556 S
H230 C202 0.930 . S
H231 C203 0.930 1_565 S
H232 C204 0.930 . S
H233 C205 0.931 . S
H234 C223 0.930 . S
H235 C224 0.930 . S
H236 C225 0.930 . S
H237 C226 0.931 . S
Eu238 C247 2.826 1_455 S
Eu238 O249 2.392 1_556 S
Eu238 O251 2.418 . S
Eu238 O256 2.373 1_455 S
Eu238 O259 2.488 . S
Eu238 O260 2.471 1_455 S
Eu238 O261 2.349 1_455 S
Eu239 O248 2.373 1_655 S
Eu239 O252 2.488 . S
Eu239 O253 2.471 1_655 S
Eu239 O254 2.349 1_655 S
Eu239 O257 2.392 . S
Eu239 O258 2.418 . S
Eu239 C268 2.828 1_655 S
C240 O258 1.296 . S
C240 O261 1.239 1_554 S
C241 C242 1.379 . S
C241 C245 1.373 1_655 S
C241 C247 1.508 . S
C242 C241 1.379 . S
C242 C244 1.369 . S
C242 H270 0.930 . S
C243 C245 1.383 1_655 S
C243 C246 1.382 . S
C243 H271 0.930 1_655 S
C244 C242 1.369 . S
C244 C246 1.392 . S
C244 H272 0.930 . S
C245 C241 1.373 1_455 S
C245 C243 1.383 1_455 S
C245 H273 0.931 . S
C246 C243 1.382 . S
C246 C244 1.392 . S
C247 Eu238 2.826 1_655 S
C247 C241 1.508 . S
C247 O259 1.246 1_655 S
C247 O260 1.245 . S
O248 Eu239 2.373 1_455 S
O248 C250 1.258 . S
O249 Eu238 2.392 1_554 S
O249 C250 1.242 . S
C250 O248 1.258 . S
C250 O249 1.242 . S
O251 Eu238 2.418 . S
O251 C255 1.244 1_556 S
O252 Eu239 2.488 . S
O252 C268 1.249 1_655 S
O253 Eu239 2.471 1_455 S
O253 C268 1.244 . S
O254 Eu239 2.349 1_455 S
O254 C255 1.265 . S
C255 O251 1.244 1_554 S
C255 O254 1.265 . S
O256 Eu238 2.373 1_655 S
O256 C269 1.258 . S
O257 Eu239 2.392 . S
O257 C269 1.242 1_554 S
O258 Eu239 2.418 . S
O258 C240 1.296 . S
O259 Eu238 2.488 . S
O259 C247 1.246 1_455 S
O260 Eu238 2.471 1_655 S
O260 C247 1.245 . S
O261 Eu238 2.349 1_655 S
O261 C240 1.239 1_556 S
C262 C263 1.379 . S
C262 C266 1.373 1_455 S
C262 C268 1.505 . S
C263 C262 1.379 . S
C263 C265 1.369 . S
C263 H274 0.930 . S
C264 C266 1.383 1_455 S
C264 C267 1.382 . S
C264 H275 0.930 1_455 S
C265 C263 1.369 . S
C265 C267 1.392 . S
C265 H276 0.930 . S
C266 C262 1.373 1_655 S
C266 C264 1.383 1_655 S
C266 H277 0.931 . S
C267 C264 1.382 . S
C267 C265 1.392 . S
C268 Eu239 2.828 1_455 S
C268 O252 1.249 1_455 S
C268 O253 1.244 . S
C268 C262 1.505 . S
C269 O256 1.258 . S
C269 O257 1.242 1_556 S
H270 C242 0.930 . S
H271 C243 0.930 1_455 S
H272 C244 0.930 . S
H273 C245 0.931 . S
H274 C263 0.930 . S
H275 C264 0.930 1_655 S
H276 C265 0.930 . S
H277 C266 0.931 . S
Eu278 C287 2.828 . S
Eu278 O289 2.392 . S
Eu278 O291 2.418 . S
Eu278 O296 2.373 . S
Eu278 O299 2.488 . S
Eu278 O300 2.471 . S
Eu278 O301 2.349 . S
Eu279 O288 2.373 . S
Eu279 O292 2.488 . S
Eu279 O293 2.471 . S
Eu279 O294 2.349 . S
Eu279 O297 2.392 1_556 S
Eu279 O298 2.418 . S
Eu279 C308 2.828 . S
C280 O298 1.244 1_554 S
C280 O301 1.265 . S
C281 C282 1.379 . S
C281 C285 1.373 . S
C281 C287 1.505 . S
C282 C281 1.379 . S
C282 C284 1.369 . S
C282 H310 0.930 . S
C283 C285 1.383 . S
C283 C286 1.382 . S
C283 H311 0.930 . S
C284 C282 1.369 . S
C284 C286 1.392 . S
C284 H312 0.930 . S
C285 C281 1.373 . S
C285 C283 1.383 . S
C285 H313 0.931 . S
C286 C283 1.382 . S
C286 C284 1.392 . S
C287 Eu278 2.828 . S
C287 C281 1.505 . S
C287 O299 1.249 . S
C287 O300 1.244 . S
O288 Eu279 2.373 . S
O288 C290 1.258 . S
O289 Eu278 2.392 . S
O289 C290 1.242 1_554 S
C290 O288 1.258 . S
C290 O289 1.242 1_556 S
O291 Eu278 2.418 . S
O291 C295 1.244 . S
O292 Eu279 2.488 . S
O292 C308 1.249 . S
O293 Eu279 2.471 . S
O293 C308 1.244 . S
O294 Eu279 2.349 . S
O294 C295 1.265 1_556 S
C295 O291 1.244 . S
C295 O294 1.265 1_554 S
O296 Eu278 2.373 . S
O296 C309 1.258 . S
O297 Eu279 2.392 1_554 S
O297 C309 1.242 . S
O298 Eu279 2.418 . S
O298 C280 1.244 1_556 S
O299 Eu278 2.488 . S
O299 C287 1.249 . S
O300 Eu278 2.471 . S
O300 C287 1.244 . S
O301 Eu278 2.349 . S
O301 C280 1.265 . S
C302 C303 1.379 . S
C302 C306 1.373 . S
C302 C308 1.505 . S
C303 C302 1.379 . S
C303 C305 1.369 . S
C303 H314 0.930 . S
C304 C306 1.383 . S
C304 C307 1.382 . S
C304 H315 0.930 . S
C305 C303 1.369 . S
C305 C307 1.392 . S
C305 H316 0.930 . S
C306 C302 1.373 . S
C306 C304 1.383 . S
C306 H317 0.931 . S
C307 C304 1.382 . S
C307 C305 1.392 . S
C308 Eu279 2.828 . S
C308 O292 1.249 . S
C308 O293 1.244 . S
C308 C302 1.505 . S
C309 O296 1.258 . S
C309 O297 1.242 . S
H310 C282 0.930 . S
H311 C283 0.930 . S
H312 C284 0.930 . S
H313 C285 0.931 . S
H314 C303 0.930 . S
H315 C304 0.930 . S
H316 C305 0.930 . S
H317 C306 0.931 . S
Eu318 C327 2.828 . S
Eu318 O329 2.392 . S
Eu318 O331 2.418 . S
Eu318 O336 2.373 . S
Eu318 O339 2.488 . S
Eu318 O340 2.471 . S
Eu318 O341 2.349 . S
Eu319 O328 2.373 . S
Eu319 O332 2.488 . S
Eu319 O333 2.471 . S
Eu319 O334 2.349 . S
Eu319 O337 2.392 . S
Eu319 O338 2.418 . S
Eu319 C348 2.828 . S
C320 O338 1.244 . S
C320 O341 1.265 . S
C321 C322 1.379 . S
C321 C325 1.373 . S
C321 C327 1.505 . S
C322 C321 1.379 . S
C322 C324 1.369 . S
C322 H350 0.930 . S
C323 C325 1.383 . S
C323 C326 1.382 . S
C323 H351 0.930 . S
C324 C322 1.369 . S
C324 C326 1.392 . S
C324 H352 0.930 . S
C325 C321 1.373 . S
C325 C323 1.383 . S
C325 H353 0.931 . S
C326 C323 1.382 . S
C326 C324 1.392 . S
C327 Eu318 2.828 . S
C327 C321 1.505 . S
C327 O339 1.249 . S
C327 O340 1.244 . S
O328 Eu319 2.373 . S
O328 C330 1.258 . S
O329 Eu318 2.392 . S
O329 C330 1.242 . S
C330 O328 1.258 . S
C330 O329 1.242 . S
O331 Eu318 2.418 . S
O331 C335 1.244 . S
O332 Eu319 2.488 . S
O332 C348 1.249 . S
O333 Eu319 2.471 . S
O333 C348 1.244 . S
O334 Eu319 2.349 . S
O334 C335 1.265 . S
C335 O331 1.244 . S
C335 O334 1.265 . S
O336 Eu318 2.373 . S
O336 C349 1.258 . S
O337 Eu319 2.392 . S
O337 C349 1.242 . S
O338 Eu319 2.418 . S
O338 C320 1.244 . S
O339 Eu318 2.488 . S
O339 C327 1.249 . S
O340 Eu318 2.471 . S
O340 C327 1.244 . S
O341 Eu318 2.349 . S
O341 C320 1.265 . S
C342 C343 1.379 . S
C342 C346 1.373 . S
C342 C348 1.505 . S
C343 C342 1.379 . S
C343 C345 1.369 . S
C343 H354 0.930 . S
C344 C346 1.383 . S
C344 C347 1.382 . S
C344 H355 0.930 . S
C345 C343 1.369 . S
C345 C347 1.392 . S
C345 H356 0.930 . S
C346 C342 1.373 . S
C346 C344 1.383 . S
C346 H357 0.931 . S
C347 C344 1.382 . S
C347 C345 1.392 . S
C348 Eu319 2.828 . S
C348 O332 1.249 . S
C348 O333 1.244 . S
C348 C342 1.505 . S
C349 O336 1.258 . S
C349 O337 1.242 . S
H350 C322 0.930 . S
H351 C323 0.930 . S
H352 C324 0.930 . S
H353 C325 0.931 . S
H354 C343 0.930 . S
H355 C344 0.930 . S
H356 C345 0.930 . S
H357 C346 0.931 . S
Eu358 C367 2.828 . S
Eu358 O369 2.392 . S
Eu358 O371 2.418 . S
Eu358 O376 2.373 . S
Eu358 O379 2.488 . S
Eu358 O380 2.471 . S
Eu358 O381 2.349 . S
Eu359 O368 2.373 . S
Eu359 O372 2.488 . S
Eu359 O373 2.471 . S
Eu359 O374 2.349 . S
Eu359 O377 2.392 . S
Eu359 O378 2.418 . S
Eu359 C388 2.828 . S
C360 O378 1.244 . S
C360 O381 1.265 . S
C361 C362 1.379 . S
C361 C365 1.373 . S
C361 C367 1.505 . S
C362 C361 1.379 . S
C362 C364 1.369 . S
C362 H390 0.930 . S
C363 C365 1.383 . S
C363 C366 1.382 . S
C363 H391 0.930 . S
C364 C362 1.369 . S
C364 C366 1.392 . S
C364 H392 0.930 . S
C365 C361 1.373 . S
C365 C363 1.383 . S
C365 H393 0.931 . S
C366 C363 1.382 . S
C366 C364 1.392 . S
C367 Eu358 2.828 . S
C367 C361 1.505 . S
C367 O379 1.249 . S
C367 O380 1.244 . S
O368 Eu359 2.373 . S
O368 C370 1.258 . S
O369 Eu358 2.392 . S
O369 C370 1.242 . S
C370 O368 1.258 . S
C370 O369 1.242 . S
O371 Eu358 2.418 . S
O371 C375 1.244 . S
O372 Eu359 2.488 . S
O372 C388 1.249 . S
O373 Eu359 2.471 . S
O373 C388 1.244 . S
O374 Eu359 2.349 . S
O374 C375 1.265 . S
C375 O371 1.244 . S
C375 O374 1.265 . S
O376 Eu358 2.373 . S
O376 C389 1.258 . S
O377 Eu359 2.392 . S
O377 C389 1.242 . S
O378 Eu359 2.418 . S
O378 C360 1.244 . S
O379 Eu358 2.488 . S
O379 C367 1.249 . S
O380 Eu358 2.471 . S
O380 C367 1.244 . S
O381 Eu358 2.349 . S
O381 C360 1.265 . S
C382 C383 1.379 . S
C382 C386 1.373 . S
C382 C388 1.505 . S
C383 C382 1.379 . S
C383 C385 1.369 . S
C383 H394 0.930 . S
C384 C386 1.383 . S
C384 C387 1.382 . S
C384 H395 0.930 . S
C385 C383 1.369 . S
C385 C387 1.392 . S
C385 H396 0.930 . S
C386 C382 1.373 . S
C386 C384 1.383 . S
C386 H397 0.931 . S
C387 C384 1.382 . S
C387 C385 1.392 . S
C388 Eu359 2.828 . S
C388 O372 1.249 . S
C388 O373 1.244 . S
C388 C382 1.505 . S
C389 O376 1.258 . S
C389 O377 1.242 . S
H390 C362 0.930 . S
H391 C363 0.930 . S
H392 C364 0.930 . S
H393 C365 0.931 . S
H394 C383 0.930 . S
H395 C384 0.930 . S
H396 C385 0.930 . S
H397 C386 0.931 . S
Eu398 C407 2.828 . S
Eu398 O409 2.392 . S
Eu398 O411 2.418 . S
Eu398 O416 2.373 . S
Eu398 O419 2.488 . S
Eu398 O420 2.471 . S
Eu398 O421 2.349 . S
Eu399 O408 2.373 . S
Eu399 O412 2.488 . S
Eu399 O413 2.471 . S
Eu399 O414 2.349 . S
Eu399 O417 2.392 . S
Eu399 O418 2.418 . S
Eu399 C428 2.828 . S
C400 O418 1.244 . S
C400 O421 1.265 . S
C401 C402 1.379 . S
C401 C405 1.373 . S
C401 C407 1.505 . S
C402 C401 1.379 . S
C402 C404 1.369 . S
C402 H430 0.930 . S
C403 C405 1.383 . S
C403 C406 1.382 . S
C403 H431 0.930 . S
C404 C402 1.369 . S
C404 C406 1.392 . S
C404 H432 0.930 . S
C405 C401 1.373 . S
C405 C403 1.383 . S
C405 H433 0.931 . S
C406 C403 1.382 . S
C406 C404 1.392 . S
C407 Eu398 2.828 . S
C407 C401 1.505 . S
C407 O419 1.249 . S
C407 O420 1.244 . S
O408 Eu399 2.373 . S
O408 C410 1.258 . S
O409 Eu398 2.392 . S
O409 C410 1.242 . S
C410 O408 1.258 . S
C410 O409 1.242 . S
O411 Eu398 2.418 . S
O411 C415 1.244 . S
O412 Eu399 2.488 . S
O412 C428 1.249 . S
O413 Eu399 2.471 . S
O413 C428 1.244 . S
O414 Eu399 2.349 . S
O414 C415 1.265 . S
C415 O411 1.244 . S
C415 O414 1.265 . S
O416 Eu398 2.373 . S
O416 C429 1.258 . S
O417 Eu399 2.392 . S
O417 C429 1.242 . S
O418 Eu399 2.418 . S
O418 C400 1.244 . S
O419 Eu398 2.488 . S
O419 C407 1.249 . S
O420 Eu398 2.471 . S
O420 C407 1.244 . S
O421 Eu398 2.349 . S
O421 C400 1.265 . S
C422 C423 1.379 . S
C422 C426 1.373 . S
C422 C428 1.505 . S
C423 C422 1.379 . S
C423 C425 1.369 . S
C423 H434 0.930 . S
C424 C426 1.383 . S
C424 C427 1.382 . S
C424 H435 0.930 . S
C425 C423 1.369 . S
C425 C427 1.392 . S
C425 H436 0.930 . S
C426 C422 1.373 . S
C426 C424 1.383 . S
C426 H437 0.931 . S
C427 C424 1.382 . S
C427 C425 1.392 . S
C428 Eu399 2.828 . S
C428 O412 1.249 . S
C428 O413 1.244 . S
C428 C422 1.505 . S
C429 O416 1.258 . S
C429 O417 1.242 . S
H430 C402 0.930 . S
H431 C403 0.930 . S
H432 C404 0.930 . S
H433 C405 0.931 . S
H434 C423 0.930 . S
H435 C424 0.930 . S
H436 C425 0.930 . S
H437 C426 0.931 . S
Eu438 C447 2.828 . S
Eu438 O449 2.392 . S
Eu438 O451 2.418 . S
Eu438 O456 2.373 . S
Eu438 O459 2.488 . S
Eu438 O460 2.471 . S
Eu438 O461 2.349 . S
Eu439 O448 2.373 . S
Eu439 O452 2.488 . S
Eu439 O453 2.471 . S
Eu439 O454 2.349 . S
Eu439 O457 2.392 . S
Eu439 O458 2.418 . S
Eu439 C468 2.828 . S
C440 O458 1.244 . S
C440 O461 1.265 . S
C441 C442 1.379 . S
C441 C445 1.373 . S
C441 C447 1.505 . S
C442 C441 1.379 . S
C442 C444 1.369 . S
C442 H470 0.930 . S
C443 C445 1.383 . S
C443 C446 1.382 . S
C443 H471 0.930 . S
C444 C442 1.369 . S
C444 C446 1.392 . S
C444 H472 0.930 . S
C445 C441 1.373 . S
C445 C443 1.383 . S
C445 H473 0.931 . S
C446 C443 1.382 . S
C446 C444 1.392 . S
C447 Eu438 2.828 . S
C447 C441 1.505 . S
C447 O459 1.249 . S
C447 O460 1.244 . S
O448 Eu439 2.373 . S
O448 C450 1.258 . S
O449 Eu438 2.392 . S
O449 C450 1.242 . S
C450 O448 1.258 . S
C450 O449 1.242 . S
O451 Eu438 2.418 . S
O451 C455 1.244 . S
O452 Eu439 2.488 . S
O452 C468 1.249 . S
O453 Eu439 2.471 . S
O453 C468 1.244 . S
O454 Eu439 2.349 . S
O454 C455 1.265 . S
C455 O451 1.244 . S
C455 O454 1.265 . S
O456 Eu438 2.373 . S
O456 C469 1.258 . S
O457 Eu439 2.392 . S
O457 C469 1.242 . S
O458 Eu439 2.418 . S
O458 C440 1.244 . S
O459 Eu438 2.488 . S
O459 C447 1.249 . S
O460 Eu438 2.471 . S
O460 C447 1.244 . S
O461 Eu438 2.349 . S
O461 C440 1.265 . S
C462 C463 1.379 . S
C462 C466 1.373 . S
C462 C468 1.505 . S
C463 C462 1.379 . S
C463 C465 1.369 . S
C463 H474 0.930 . S
C464 C466 1.383 . S
C464 C467 1.382 . S
C464 H475 0.930 . S
C465 C463 1.369 . S
C465 C467 1.392 . S
C465 H476 0.930 . S
C466 C462 1.373 . S
C466 C464 1.383 . S
C466 H477 0.931 . S
C467 C464 1.382 . S
C467 C465 1.392 . S
C468 Eu439 2.828 . S
C468 O452 1.249 . S
C468 O453 1.244 . S
C468 C462 1.505 . S
C469 O456 1.258 . S
C469 O457 1.242 . S
H470 C442 0.930 . S
H471 C443 0.930 . S
H472 C444 0.930 . S
H473 C445 0.931 . S
H474 C463 0.930 . S
H475 C464 0.930 . S
H476 C465 0.930 . S
H477 C466 0.931 . S
Eu478 C487 2.828 . S
Eu478 O489 2.392 . S
Eu478 O491 2.418 . S
Eu478 O496 2.373 . S
Eu478 O499 2.488 . S
Eu478 O500 2.471 . S
Eu478 O501 2.349 . S
Eu479 O488 2.373 . S
Eu479 O492 2.488 . S
Eu479 O493 2.471 . S
Eu479 O494 2.349 . S
Eu479 O497 2.392 . S
Eu479 O498 2.418 . S
Eu479 C508 2.828 . S
C480 O498 1.244 . S
C480 O501 1.265 . S
C481 C482 1.379 . S
C481 C485 1.373 . S
C481 C487 1.505 . S
C482 C481 1.379 . S
C482 C484 1.369 . S
C482 H510 0.930 . S
C483 C485 1.383 . S
C483 C486 1.382 . S
C483 H511 0.930 . S
C484 C482 1.369 . S
C484 C486 1.392 . S
C484 H512 0.930 . S
C485 C481 1.373 . S
C485 C483 1.383 . S
C485 H513 0.931 . S
C486 C483 1.382 . S
C486 C484 1.392 . S
C487 Eu478 2.828 . S
C487 C481 1.505 . S
C487 O499 1.249 . S
C487 O500 1.244 . S
O488 Eu479 2.373 . S
O488 C490 1.258 . S
O489 Eu478 2.392 . S
O489 C490 1.242 . S
C490 O488 1.258 . S
C490 O489 1.242 . S
O491 Eu478 2.418 . S
O491 C495 1.244 . S
O492 Eu479 2.488 . S
O492 C508 1.249 . S
O493 Eu479 2.471 . S
O493 C508 1.244 . S
O494 Eu479 2.349 . S
O494 C495 1.265 . S
C495 O491 1.244 . S
C495 O494 1.265 . S
O496 Eu478 2.373 . S
O496 C509 1.258 . S
O497 Eu479 2.392 . S
O497 C509 1.242 . S
O498 Eu479 2.418 . S
O498 C480 1.244 . S
O499 Eu478 2.488 . S
O499 C487 1.249 . S
O500 Eu478 2.471 . S
O500 C487 1.244 . S
O501 Eu478 2.349 . S
O501 C480 1.265 . S
C502 C503 1.379 . S
C502 C506 1.373 . S
C502 C508 1.505 . S
C503 C502 1.379 . S
C503 C505 1.369 . S
C503 H514 0.930 . S
C504 C506 1.383 . S
C504 C507 1.382 . S
C504 H515 0.930 . S
C505 C503 1.369 . S
C505 C507 1.392 . S
C505 H516 0.930 . S
C506 C502 1.373 . S
C506 C504 1.383 . S
C506 H517 0.931 . S
C507 C504 1.382 . S
C507 C505 1.392 . S
C508 Eu479 2.828 . S
C508 O492 1.249 . S
C508 O493 1.244 . S
C508 C502 1.505 . S
C509 O496 1.258 . S
C509 O497 1.242 . S
H510 C482 0.930 . S
H511 C483 0.930 . S
H512 C484 0.930 . S
H513 C485 0.931 . S
H514 C503 0.930 . S
H515 C504 0.930 . S
H516 C505 0.930 . S
H517 C506 0.931 . S
Eu518 C527 2.828 . S
Eu518 O529 2.392 . S
Eu518 O531 2.418 . S
Eu518 O536 2.373 . S
Eu518 O539 2.488 . S
Eu518 O540 2.471 . S
Eu518 O541 2.349 . S
Eu519 O528 2.373 . S
Eu519 O532 2.488 . S
Eu519 O533 2.471 . S
Eu519 O534 2.349 . S
Eu519 O537 2.392 . S
Eu519 O538 2.418 . S
Eu519 C548 2.828 . S
C520 O538 1.244 . S
C520 O541 1.265 . S
C521 C522 1.379 . S
C521 C525 1.373 . S
C521 C527 1.505 . S
C522 C521 1.379 . S
C522 C524 1.369 . S
C522 H550 0.930 . S
C523 C525 1.383 . S
C523 C526 1.382 . S
C523 H551 0.930 . S
C524 C522 1.369 . S
C524 C526 1.392 . S
C524 H552 0.930 . S
C525 C521 1.373 . S
C525 C523 1.383 . S
C525 H553 0.931 . S
C526 C523 1.382 . S
C526 C524 1.392 . S
C527 Eu518 2.828 . S
C527 C521 1.505 . S
C527 O539 1.249 . S
C527 O540 1.244 . S
O528 Eu519 2.373 . S
O528 C530 1.258 . S
O529 Eu518 2.392 . S
O529 C530 1.242 . S
C530 O528 1.258 . S
C530 O529 1.242 . S
O531 Eu518 2.418 . S
O531 C535 1.244 . S
O532 Eu519 2.488 . S
O532 C548 1.249 . S
O533 Eu519 2.471 . S
O533 C548 1.244 . S
O534 Eu519 2.349 . S
O534 C535 1.265 . S
C535 O531 1.244 . S
C535 O534 1.265 . S
O536 Eu518 2.373 . S
O536 C549 1.258 . S
O537 Eu519 2.392 . S
O537 C549 1.242 . S
O538 Eu519 2.418 . S
O538 C520 1.244 . S
O539 Eu518 2.488 . S
O539 C527 1.249 . S
O540 Eu518 2.471 . S
O540 C527 1.244 . S
O541 Eu518 2.349 . S
O541 C520 1.265 . S
C542 C543 1.379 . S
C542 C546 1.373 . S
C542 C548 1.505 . S
C543 C542 1.379 . S
C543 C545 1.369 . S
C543 H554 0.930 . S
C544 C546 1.383 . S
C544 C547 1.382 . S
C544 H555 0.930 . S
C545 C543 1.369 . S
C545 C547 1.392 . S
C545 H556 0.930 . S
C546 C542 1.373 . S
C546 C544 1.383 . S
C546 H557 0.931 . S
C547 C544 1.382 . S
C547 C545 1.392 . S
C548 Eu519 2.828 . S
C548 O532 1.249 . S
C548 O533 1.244 . S
C548 C542 1.505 . S
C549 O536 1.258 . S
C549 O537 1.242 . S
H550 C522 0.930 . S
H551 C523 0.930 . S
H552 C524 0.930 . S
H553 C525 0.931 . S
H554 C543 0.930 . S
H555 C544 0.930 . S
H556 C545 0.930 . S
H557 C546 0.931 . S
H558 C564 0.930 . S
H559 C567 0.930 . S
H560 C568 0.930 . S
H561 C569 0.930 . S
H562 C572 0.930 1_556 S
H563 C573 0.930 1_556 S
C564 H558 0.930 . S
C564 C565 1.355 . S
C564 C566 1.415 . S
C565 C564 1.355 . S
C565 C567 1.419 . S
C566 C564 1.415 . S
C566 C571 1.425 . S
C566 C573 1.409 . S
C567 H559 0.930 . S
C567 C565 1.419 . S
C567 C568 1.362 . S
C568 H560 0.930 . S
C568 C567 1.362 . S
C568 C571 1.409 . S
C569 H561 0.930 . S
C569 C570 1.355 . S
C569 C571 1.415 . S
C570 C569 1.355 . S
C570 C572 1.419 . S
C571 C566 1.425 . S
C571 C568 1.409 . S
C571 C569 1.415 . S
C572 H562 0.930 1_554 S
C572 C570 1.419 . S
C572 C573 1.362 . S
C573 H563 0.930 1_554 S
C573 C566 1.409 . S
C573 C572 1.362 . S
H574 C580 0.930 . S
H575 C583 0.930 . S
H576 C584 0.930 . S
H577 C585 0.930 . S
H578 C588 0.930 . S
H579 C589 0.930 . S
C580 H574 0.930 . S
C580 C581 1.355 . S
C580 C582 1.415 . S
C581 C580 1.355 . S
C581 C583 1.419 . S
C582 C580 1.415 . S
C582 C587 1.425 . S
C582 C589 1.409 . S
C583 H575 0.930 . S
C583 C581 1.419 . S
C583 C584 1.362 . S
C584 H576 0.930 . S
C584 C583 1.362 . S
C584 C587 1.409 . S
C585 H577 0.930 . S
C585 C586 1.355 . S
C585 C587 1.415 . S
C586 C585 1.355 . S
C586 C588 1.419 . S
C587 C582 1.425 . S
C587 C584 1.409 . S
C587 C585 1.415 . S
C588 H578 0.930 . S
C588 C586 1.419 . S
C588 C589 1.362 . S
C589 H579 0.930 . S
C589 C582 1.409 . S
C589 C588 1.362 . S
H590 C596 0.930 . S
H591 C599 0.930 . S
H592 C600 0.930 . S
H593 C601 0.930 . S
H594 C604 0.930 1_556 S
H595 C605 0.930 1_556 S
C596 H590 0.930 . S
C596 C597 1.355 . S
C596 C598 1.415 . S
C597 C596 1.355 . S
C597 C599 1.419 . S
C598 C596 1.415 . S
C598 C603 1.425 . S
C598 C605 1.409 . S
C599 H591 0.930 . S
C599 C597 1.419 . S
C599 C600 1.362 . S
C600 H592 0.930 . S
C600 C599 1.362 . S
C600 C603 1.409 . S
C601 H593 0.930 . S
C601 C602 1.355 . S
C601 C603 1.415 . S
C602 C601 1.355 . S
C602 C604 1.419 . S
C603 C598 1.425 . S
C603 C600 1.409 . S
C603 C601 1.415 . S
C604 H594 0.930 1_554 S
C604 C602 1.419 . S
C604 C605 1.362 . S
C605 H595 0.930 1_554 S
C605 C598 1.409 . S
C605 C604 1.362 . S
H606 C612 0.930 . S
H607 C615 0.930 . S
H608 C616 0.930 . S
H609 C617 0.930 . S
H610 C620 0.930 . S
H611 C621 0.930 . S
C612 H606 0.930 . S
C612 C613 1.355 . S
C612 C614 1.415 . S
C613 C612 1.355 . S
C613 C615 1.419 . S
C614 C612 1.415 . S
C614 C619 1.425 . S
C614 C621 1.409 1_556 S
C615 H607 0.930 . S
C615 C613 1.419 . S
C615 C616 1.362 . S
C616 H608 0.930 . S
C616 C615 1.362 . S
C616 C619 1.409 . S
C617 H609 0.930 . S
C617 C618 1.355 . S
C617 C619 1.415 . S
C618 C617 1.355 . S
C618 C620 1.419 1_556 S
C619 C614 1.425 . S
C619 C616 1.409 . S
C619 C617 1.415 . S
C620 H610 0.930 . S
C620 C618 1.419 1_554 S
C620 C621 1.362 . S
C621 H611 0.930 . S
C621 C614 1.409 1_554 S
C621 C620 1.362 . S
H622 C628 0.930 . S
H623 C631 0.930 . S
H624 C632 0.930 . S
H625 C633 0.930 . S
H626 C636 0.930 1_554 S
H627 C637 0.930 . S
C628 H622 0.930 . S
C628 C629 1.355 . S
C628 C630 1.415 . S
C629 C628 1.355 . S
C629 C631 1.419 . S
C630 C628 1.415 . S
C630 C635 1.425 . S
C630 C637 1.409 . S
C631 H623 0.930 . S
C631 C629 1.419 . S
C631 C632 1.362 . S
C632 H624 0.930 . S
C632 C631 1.362 . S
C632 C635 1.409 . S
C633 H625 0.930 . S
C633 C634 1.355 . S
C633 C635 1.415 . S
C634 C633 1.355 . S
C634 C636 1.419 . S
C635 C630 1.425 . S
C635 C632 1.409 . S
C635 C633 1.415 . S
C636 H626 0.930 1_556 S
C636 C634 1.419 . S
C636 C637 1.362 . S
C637 H627 0.930 . S
C637 C630 1.409 . S
C637 C636 1.362 . S
H638 C644 0.897 1_554 S
H639 C647 0.930 . S
H640 C648 0.930 . S
H641 C649 0.930 . S
H642 C652 0.930 . S
H643 C653 0.930 . S
C644 H638 0.897 1_556 S
C644 C645 1.355 . S
C644 C646 1.415 . S
C645 C644 1.355 . S
C645 C647 1.419 . S
C646 C644 1.415 . S
C646 C651 1.425 . S
C646 C653 1.409 1_556 S
C647 H639 0.930 . S
C647 C645 1.419 . S
C647 C648 1.362 . S
C648 H640 0.930 . S
C648 C647 1.362 . S
C648 C651 1.409 . S
C649 H641 0.930 . S
C649 C650 1.355 . S
C649 C651 1.415 . S
C650 C649 1.355 . S
C650 C652 1.419 1_556 S
C651 C646 1.425 . S
C651 C648 1.409 . S
C651 C649 1.415 . S
C652 H642 0.930 . S
C652 C650 1.419 1_554 S
C652 C653 1.362 . S
C653 H643 0.930 . S
C653 C646 1.409 1_554 S
C653 C652 1.362 . S
H654 C660 0.957 . S
H655 C663 0.930 . S
H656 C664 0.930 . S
H657 C665 0.930 . S
H658 C668 0.930 . S
H659 C669 0.930 . S
C660 H654 0.957 . S
C660 C661 1.355 . S
C660 C662 1.415 . S
C661 C660 1.355 . S
C661 C663 1.419 . S
C662 C660 1.415 . S
C662 C667 1.425 . S
C662 C669 1.409 1_556 S
C663 H655 0.930 . S
C663 C661 1.419 . S
C663 C664 1.362 . S
C664 H656 0.930 . S
C664 C663 1.362 . S
C664 C667 1.409 . S
C665 H657 0.930 . S
C665 C666 1.355 . S
C665 C667 1.415 . S
C666 C665 1.355 . S
C666 C668 1.419 1_556 S
C667 C662 1.425 . S
C667 C664 1.409 . S
C667 C665 1.415 . S
C668 H658 0.930 . S
C668 C666 1.419 1_554 S
C668 C669 1.362 . S
C669 H659 0.930 . S
C669 C662 1.409 1_554 S
C669 C668 1.362 . S
H670 C676 0.930 . S
H671 C679 0.930 . S
H672 C680 0.930 . S
H673 C681 0.930 . S
H674 C684 0.930 1_554 S
H675 C685 0.930 . S
C676 H670 0.930 . S
C676 C677 1.355 . S
C676 C678 1.415 . S
C677 C676 1.355 . S
C677 C679 1.419 . S
C678 C676 1.415 . S
C678 C683 1.425 . S
C678 C685 1.409 . S
C679 H671 0.930 . S
C679 C677 1.419 . S
C679 C680 1.362 . S
C680 H672 0.930 . S
C680 C679 1.362 . S
C680 C683 1.409 . S
C681 H673 0.930 . S
C681 C682 1.355 . S
C681 C683 1.415 . S
C682 C681 1.355 . S
C682 C684 1.419 . S
C683 C678 1.425 . S
C683 C680 1.409 . S
C683 C681 1.415 . S
C684 H674 0.930 1_556 S
C684 C682 1.419 . S
C684 C685 1.362 . S
C685 H675 0.930 . S
C685 C678 1.409 . S
C685 C684 1.362 . S
H686 C692 0.930 . S
H687 C695 0.930 . S
H688 C696 0.928 1_554 S
H689 C697 0.930 . S
H690 C700 0.930 . S
H691 C701 0.930 . S
C692 H686 0.930 . S
C692 C693 1.355 . S
C692 C694 1.415 . S
C693 C692 1.355 . S
C693 C695 1.419 . S
C694 C692 1.415 . S
C694 C699 1.425 . S
C694 C701 1.409 . S
C695 H687 0.930 . S
C695 C693 1.419 . S
C695 C696 1.363 . S
C696 H688 0.928 1_556 S
C696 C695 1.363 . S
C696 C699 1.411 . S
C697 H689 0.930 . S
C697 C698 1.355 1_554 S
C697 C699 1.415 1_554 S
C698 C697 1.355 1_556 S
C698 C700 1.419 . S
C699 C694 1.425 . S
C699 C696 1.411 . S
C699 C697 1.415 1_556 S
C700 H690 0.930 . S
C700 C698 1.419 . S
C700 C701 1.362 . S
C701 H691 0.930 . S
C701 C694 1.409 . S
C701 C700 1.362 . S
H702 C708 0.930 . S
H703 C711 0.930 1_556 S
H704 C712 0.958 . S
H705 C713 0.930 1_556 S
H706 C716 0.930 . S
H707 C717 0.930 . S
C708 H702 0.930 . S
C708 C709 1.355 . S
C708 C710 1.415 . S
C709 C708 1.355 . S
C709 C711 1.419 . S
C710 C708 1.415 . S
C710 C715 1.425 . S
C710 C717 1.409 . S
C711 H703 0.930 1_554 S
C711 C709 1.419 . S
C711 C712 1.356 1_554 S
C712 H704 0.958 . S
C712 C711 1.356 1_556 S
C712 C715 1.388 1_556 S
C713 H705 0.930 1_554 S
C713 C714 1.355 . S
C713 C715 1.415 . S
C714 C713 1.355 . S
C714 C716 1.419 . S
C715 C710 1.425 . S
C715 C712 1.388 1_554 S
C715 C713 1.415 . S
C716 H706 0.930 . S
C716 C714 1.419 . S
C716 C717 1.362 . S
C717 H707 0.930 . S
C717 C710 1.409 . S
C717 C716 1.362 . S
H718 C724 0.930 . S
H719 C727 0.930 . S
H720 C728 0.930 . S
H721 C729 0.930 . S
H722 C732 0.930 . S
H723 C733 0.930 . S
C724 H718 0.930 . S
C724 C725 1.355 . S
C724 C726 1.415 . S
C725 C724 1.355 . S
C725 C727 1.419 . S
C726 C724 1.415 . S
C726 C731 1.425 . S
C726 C733 1.409 . S
C727 H719 0.930 . S
C727 C725 1.419 . S
C727 C728 1.362 . S
C728 H720 0.930 . S
C728 C727 1.362 . S
C728 C731 1.409 . S
C729 H721 0.930 . S
C729 C730 1.355 . S
C729 C731 1.415 . S
C730 C729 1.355 . S
C730 C732 1.419 . S
C731 C726 1.425 . S
C731 C728 1.409 . S
C731 C729 1.415 . S
C732 H722 0.930 . S
C732 C730 1.419 . S
C732 C733 1.362 . S
C733 H723 0.930 . S
C733 C726 1.409 . S
C733 C732 1.362 . S
H734 C740 0.930 . S
H735 C743 0.930 1_556 S
H736 C744 0.971 . S
H737 C745 0.930 1_556 S
H738 C748 0.930 . S
H739 C749 0.930 . S
C740 H734 0.930 . S
C740 C741 1.355 . S
C740 C742 1.415 . S
C741 C740 1.355 . S
C741 C743 1.419 . S
C742 C740 1.415 . S
C742 C747 1.425 . S
C742 C749 1.409 . S
C743 H735 0.930 1_554 S
C743 C741 1.419 . S
C743 C744 1.347 1_554 S
C744 H736 0.971 . S
C744 C743 1.347 1_556 S
C744 C747 1.386 1_556 S
C745 H737 0.930 1_554 S
C745 C746 1.355 . S
C745 C747 1.415 . S
C746 C745 1.355 . S
C746 C748 1.419 . S
C747 C742 1.425 . S
C747 C744 1.386 1_554 S
C747 C745 1.415 . S
C748 H738 0.930 . S
C748 C746 1.419 . S
C748 C749 1.362 . S
C749 H739 0.930 . S
C749 C742 1.409 . S
C749 C748 1.362 . S
H750 C756 0.930 . S
H751 C759 0.930 . S
H752 C760 0.930 . S
H753 C761 0.930 . S
H754 C764 0.930 . S
H755 C765 0.930 . S
C756 H750 0.930 . S
C756 C757 1.355 . S
C756 C758 1.415 . S
C757 C756 1.355 . S
C757 C759 1.419 . S
C758 C756 1.415 . S
C758 C763 1.425 . S
C758 C765 1.409 1_655 S
C759 H751 0.930 . S
C759 C757 1.419 . S
C759 C760 1.362 . S
C760 H752 0.930 . S
C760 C759 1.362 . S
C760 C763 1.409 . S
C761 H753 0.930 . S
C761 C762 1.355 . S
C761 C763 1.415 1_455 S
C762 C761 1.355 . S
C762 C764 1.419 . S
C763 C758 1.425 . S
C763 C760 1.409 . S
C763 C761 1.415 1_655 S
C764 H754 0.930 . S
C764 C762 1.419 . S
C764 C765 1.362 . S
C765 H755 0.930 . S
C765 C758 1.409 1_455 S
C765 C764 1.362 . S
H766 C772 0.930 . S
H767 C775 0.930 . S
H768 C776 0.930 . S
H769 C777 0.930 . S
H770 C780 0.930 . S
H771 C781 0.930 . S
C772 H766 0.930 . S
C772 C773 1.355 . S
C772 C774 1.415 . S
C773 C772 1.355 . S
C773 C775 1.419 . S
C774 C772 1.415 . S
C774 C779 1.425 . S
C774 C781 1.409 . S
C775 H767 0.930 . S
C775 C773 1.419 . S
C775 C776 1.362 . S
C776 H768 0.930 . S
C776 C775 1.362 . S
C776 C779 1.409 . S
C777 H769 0.930 . S
C777 C778 1.355 . S
C777 C779 1.415 . S
C778 C777 1.355 . S
C778 C780 1.419 . S
C779 C774 1.425 . S
C779 C776 1.409 . S
C779 C777 1.415 . S
C780 H770 0.930 . S
C780 C778 1.419 . S
C780 C781 1.362 . S
C781 H771 0.930 . S
C781 C774 1.409 . S
C781 C780 1.362 . S
H782 C788 0.930 . S
H783 C791 0.930 . S
H784 C792 0.930 . S
H785 C793 0.930 . S
H786 C796 0.930 . S
H787 C797 0.930 . S
C788 H782 0.930 . S
C788 C789 1.355 . S
C788 C790 1.415 . S
C789 C788 1.355 . S
C789 C791 1.419 . S
C790 C788 1.415 . S
C790 C795 1.425 . S
C790 C797 1.409 . S
C791 H783 0.930 . S
C791 C789 1.419 . S
C791 C792 1.362 . S
C792 H784 0.930 . S
C792 C791 1.362 . S
C792 C795 1.409 . S
C793 H785 0.930 . S
C793 C794 1.355 . S
C793 C795 1.415 1_565 S
C794 C793 1.355 . S
C794 C796 1.419 . S
C795 C790 1.425 . S
C795 C792 1.409 . S
C795 C793 1.415 1_545 S
C796 H786 0.930 . S
C796 C794 1.419 . S
C796 C797 1.362 1_565 S
C797 H787 0.930 . S
C797 C790 1.409 . S
C797 C796 1.362 1_545 S
H798 C804 0.930 . S
H799 C807 0.930 . S
H800 C808 0.930 . S
H801 C809 0.930 . S
H802 C812 0.930 . S
H803 C813 0.930 . S
C804 H798 0.930 . S
C804 C805 1.355 . S
C804 C806 1.415 . S
C805 C804 1.355 . S
C805 C807 1.419 . S
C806 C804 1.415 . S
C806 C811 1.425 . S
C806 C813 1.409 . S
C807 H799 0.930 . S
C807 C805 1.419 . S
C807 C808 1.362 . S
C808 H800 0.930 . S
C808 C807 1.362 . S
C808 C811 1.409 . S
C809 H801 0.930 . S
C809 C810 1.355 . S
C809 C811 1.415 . S
C810 C809 1.355 . S
C810 C812 1.419 . S
C811 C806 1.425 . S
C811 C808 1.409 . S
C811 C809 1.415 . S
C812 H802 0.930 . S
C812 C810 1.419 . S
C812 C813 1.362 . S
C813 H803 0.930 . S
C813 C806 1.409 . S
C813 C812 1.362 . S
H814 C820 0.930 . S
H815 C823 0.930 . S
H816 C824 0.930 . S
H817 C825 0.930 . S
H818 C828 0.930 . S
H819 C829 0.930 . S
C820 H814 0.930 . S
C820 C821 1.355 . S
C820 C822 1.415 . S
C821 C820 1.355 . S
C821 C823 1.419 . S
C822 C820 1.415 . S
C822 C827 1.425 . S
C822 C829 1.409 . S
C823 H815 0.930 . S
C823 C821 1.419 . S
C823 C824 1.362 . S
C824 H816 0.930 . S
C824 C823 1.362 . S
C824 C827 1.409 . S
C825 H817 0.930 . S
C825 C826 1.355 . S
C825 C827 1.415 . S
C826 C825 1.355 . S
C826 C828 1.419 . S
C827 C822 1.425 . S
C827 C824 1.409 . S
C827 C825 1.415 . S
C828 H818 0.930 . S
C828 C826 1.419 . S
C828 C829 1.362 . S
C829 H819 0.930 . S
C829 C822 1.409 . S
C829 C828 1.362 . S
H830 C836 0.930 . S
H831 C839 0.930 . S
H832 C840 0.930 . S
H833 C841 0.930 . S
H834 C844 0.930 . S
H835 C845 0.930 . S
C836 H830 0.930 . S
C836 C837 1.355 . S
C836 C838 1.415 . S
C837 C836 1.355 . S
C837 C839 1.419 . S
C838 C836 1.415 . S
C838 C843 1.425 . S
C838 C845 1.409 . S
C839 H831 0.930 . S
C839 C837 1.419 . S
C839 C840 1.362 . S
C840 H832 0.930 . S
C840 C839 1.362 . S
C840 C843 1.409 . S
C841 H833 0.930 . S
C841 C842 1.355 . S
C841 C843 1.415 . S
C842 C841 1.355 . S
C842 C844 1.419 . S
C843 C838 1.425 . S
C843 C840 1.409 . S
C843 C841 1.415 . S
C844 H834 0.930 . S
C844 C842 1.419 . S
C844 C845 1.362 . S
C845 H835 0.930 . S
C845 C838 1.409 . S
C845 C844 1.362 . S
H846 C852 0.930 . S
H847 C855 0.930 . S
H848 C856 0.930 . S
H849 C857 0.930 . S
H850 C860 0.930 . S
H851 C861 0.930 . S
C852 H846 0.930 . S
C852 C853 1.355 . S
C852 C854 1.415 . S
C853 C852 1.355 . S
C853 C855 1.419 . S
C854 C852 1.415 . S
C854 C859 1.425 . S
C854 C861 1.409 . S
C855 H847 0.930 . S
C855 C853 1.419 . S
C855 C856 1.362 . S
C856 H848 0.930 . S
C856 C855 1.362 . S
C856 C859 1.409 . S
C857 H849 0.930 . S
C857 C858 1.355 . S
C857 C859 1.415 . S
C858 C857 1.355 . S
C858 C860 1.419 . S
C859 C854 1.425 . S
C859 C856 1.409 . S
C859 C857 1.415 . S
C860 H850 0.930 . S
C860 C858 1.419 . S
C860 C861 1.362 . S
C861 H851 0.930 . S
C861 C854 1.409 . S
C861 C860 1.362 . S
H862 C868 0.930 . S
H863 C871 0.930 . S
H864 C872 0.930 . S
H865 C873 0.930 . S
H866 C876 0.930 . S
H867 C877 0.930 . S
C868 H862 0.930 . S
C868 C869 1.355 . S
C868 C870 1.415 . S
C869 C868 1.355 . S
C869 C871 1.419 . S
C870 C868 1.415 . S
C870 C875 1.425 . S
C870 C877 1.409 . S
C871 H863 0.930 . S
C871 C869 1.419 . S
C871 C872 1.362 . S
C872 H864 0.930 . S
C872 C871 1.362 . S
C872 C875 1.409 . S
C873 H865 0.930 . S
C873 C874 1.355 . S
C873 C875 1.415 . S
C874 C873 1.355 . S
C874 C876 1.419 . S
C875 C870 1.425 . S
C875 C872 1.409 . S
C875 C873 1.415 . S
C876 H866 0.930 . S
C876 C874 1.419 . S
C876 C877 1.362 . S
C877 H867 0.930 . S
C877 C870 1.409 . S
C877 C876 1.362 . S
H878 C884 0.930 . S
H879 C887 0.930 . S
H880 C888 0.930 . S
H881 C889 0.930 . S
H882 C892 0.930 . S
H883 C893 0.930 . S
C884 H878 0.930 . S
C884 C885 1.355 . S
C884 C886 1.415 . S
C885 C884 1.355 . S
C885 C887 1.419 . S
C886 C884 1.415 . S
C886 C891 1.425 . S
C886 C893 1.409 . S
C887 H879 0.930 . S
C887 C885 1.419 . S
C887 C888 1.362 . S
C888 H880 0.930 . S
C888 C887 1.362 . S
C888 C891 1.409 . S
C889 H881 0.930 . S
C889 C890 1.355 . S
C889 C891 1.415 . S
C890 C889 1.355 . S
C890 C892 1.419 . S
C891 C886 1.425 . S
C891 C888 1.409 . S
C891 C889 1.415 . S
C892 H882 0.930 . S
C892 C890 1.419 . S
C892 C893 1.362 . S
C893 H883 0.930 . S
C893 C886 1.409 . S
C893 C892 1.362 . S
H894 C900 0.930 . S
H895 C903 0.930 . S
H896 C904 0.930 . S
H897 C905 0.930 . S
H898 C908 0.930 . S
H899 C909 0.930 . S
C900 H894 0.930 . S
C900 C901 1.355 . S
C900 C902 1.415 1_545 S
C901 C900 1.355 . S
C901 C903 1.419 . S
C902 C900 1.415 1_565 S
C902 C907 1.425 . S
C902 C909 1.409 . S
C903 H895 0.930 . S
C903 C901 1.419 . S
C903 C904 1.362 1_545 S
C904 H896 0.930 . S
C904 C903 1.362 1_565 S
C904 C907 1.409 . S
C905 H897 0.930 . S
C905 C906 1.355 . S
C905 C907 1.415 . S
C906 C905 1.355 . S
C906 C908 1.419 . S
C907 C902 1.425 . S
C907 C904 1.409 . S
C907 C905 1.415 . S
C908 H898 0.930 . S
C908 C906 1.419 . S
C908 C909 1.362 . S
C909 H899 0.930 . S
C909 C902 1.409 . S
C909 C908 1.362 . S
H910 C916 0.930 . S
H911 C919 0.930 . S
H912 C920 0.930 . S
H913 C921 0.930 . S
H914 C924 0.930 . S
H915 C925 0.930 . S
C916 H910 0.930 . S
C916 C917 1.387 . S
C916 C918 1.415 . S
C917 C916 1.387 . S
C917 C919 1.417 . S
C918 C916 1.415 . S
C918 C923 1.425 . S
C918 C925 1.409 . S
C919 H911 0.930 . S
C919 C917 1.417 . S
C919 C920 1.362 . S
C920 H912 0.930 . S
C920 C919 1.362 . S
C920 C923 1.409 . S
C921 H913 0.930 . S
C921 C922 1.355 . S
C921 C923 1.415 . S
C922 C921 1.355 . S
C922 C924 1.419 . S
C923 C918 1.425 . S
C923 C920 1.409 . S
C923 C921 1.415 . S
C924 H914 0.930 . S
C924 C922 1.419 . S
C924 C925 1.362 . S
C925 H915 0.930 . S
C925 C918 1.409 . S
C925 C924 1.362 . S
H926 C932 0.930 . S
H927 C935 0.930 . S
H928 C936 0.930 . S
H929 C937 0.930 . S
H930 C940 0.930 . S
H931 C941 0.930 . S
C932 H926 0.930 . S
C932 C933 1.355 . S
C932 C934 1.415 . S
C933 C932 1.355 . S
C933 C935 1.419 . S
C934 C932 1.415 . S
C934 C939 1.425 . S
C934 C941 1.409 . S
C935 H927 0.930 . S
C935 C933 1.419 . S
C935 C936 1.362 . S
C936 H928 0.930 . S
C936 C935 1.362 . S
C936 C939 1.409 . S
C937 H929 0.930 . S
C937 C938 1.355 . S
C937 C939 1.415 . S
C938 C937 1.355 . S
C938 C940 1.419 . S
C939 C934 1.425 . S
C939 C936 1.409 . S
C939 C937 1.415 . S
C940 H930 0.930 . S
C940 C938 1.419 . S
C940 C941 1.362 . S
C941 H931 0.930 . S
C941 C934 1.409 . S
C941 C940 1.362 . S
H942 C948 0.930 . S
H943 C951 0.930 . S
H944 C952 0.930 . S
H945 C953 0.930 . S
H946 C956 0.930 . S
H947 C957 0.930 . S
C948 H942 0.930 . S
C948 C949 1.355 . S
C948 C950 1.415 . S
C949 C948 1.355 . S
C949 C951 1.419 . S
C950 C948 1.415 . S
C950 C955 1.425 . S
C950 C957 1.409 . S
C951 H943 0.930 . S
C951 C949 1.419 . S
C951 C952 1.362 . S
C952 H944 0.930 . S
C952 C951 1.362 . S
C952 C955 1.409 . S
C953 H945 0.930 . S
C953 C954 1.355 . S
C953 C955 1.415 . S
C954 C953 1.355 . S
C954 C956 1.419 . S
C955 C950 1.425 . S
C955 C952 1.409 . S
C955 C953 1.415 . S
C956 H946 0.930 . S
C956 C954 1.419 . S
C956 C957 1.362 . S
C957 H947 0.930 . S
C957 C950 1.409 . S
C957 C956 1.362 . S
H958 C964 0.930 . S
H959 C967 0.930 . S
H960 C968 0.930 . S
H961 C969 0.930 . S
H962 C972 0.930 . S
H963 C973 0.930 . S
C964 H958 0.930 . S
C964 C965 1.355 . S
C964 C966 1.415 . S
C965 C964 1.355 . S
C965 C967 1.419 . S
C966 C964 1.415 . S
C966 C971 1.425 . S
C966 C973 1.409 . S
C967 H959 0.930 . S
C967 C965 1.419 . S
C967 C968 1.362 . S
C968 H960 0.930 . S
C968 C967 1.362 . S
C968 C971 1.409 . S
C969 H961 0.930 . S
C969 C970 1.355 . S
C969 C971 1.415 . S
C970 C969 1.355 . S
C970 C972 1.419 . S
C971 C966 1.425 . S
C971 C968 1.409 . S
C971 C969 1.415 . S
C972 H962 0.930 . S
C972 C970 1.419 . S
C972 C973 1.362 . S
C973 H963 0.930 . S
C973 C966 1.409 . S
C973 C972 1.362 . S
H974 C980 0.930 . S
H975 C983 0.930 . S
H976 C984 0.930 . S
H977 C985 0.930 . S
H978 C988 0.930 . S
H979 C989 0.930 . S
C980 H974 0.930 . S
C980 C981 1.355 . S
C980 C982 1.415 . S
C981 C980 1.355 . S
C981 C983 1.419 . S
C982 C980 1.415 . S
C982 C987 1.425 . S
C982 C989 1.409 . S
C983 H975 0.930 . S
C983 C981 1.419 . S
C983 C984 1.362 . S
C984 H976 0.930 . S
C984 C983 1.362 . S
C984 C987 1.409 . S
C985 H977 0.930 . S
C985 C986 1.355 . S
C985 C987 1.415 . S
C986 C985 1.355 . S
C986 C988 1.419 . S
C987 C982 1.425 . S
C987 C984 1.409 . S
C987 C985 1.415 . S
C988 H978 0.930 . S
C988 C986 1.419 . S
C988 C989 1.362 . S
C989 H979 0.930 . S
C989 C982 1.409 . S
C989 C988 1.362 . S
H990 C996 0.930 . S
H991 C999 0.930 . S
H992 C1000 0.930 . S
H993 C1001 0.930 . S
H994 C1004 0.930 . S
H995 C1005 0.930 . S
C996 H990 0.930 . S
C996 C997 1.355 . S
C996 C998 1.415 . S
C997 C996 1.355 . S
C997 C999 1.419 . S
C998 C996 1.415 . S
C998 C1003 1.425 . S
C998 C1005 1.409 1_565 S
C999 H991 0.930 . S
C999 C997 1.419 . S
C999 C1000 1.362 . S
C1000 H992 0.930 . S
C1000 C999 1.362 . S
C1000 C1003 1.409 . S
C1001 H993 0.930 . S
C1001 C1002 1.355 . S
C1001 C1003 1.415 1_545 S
C1002 C1001 1.355 . S
C1002 C1004 1.419 . S
C1003 C998 1.425 . S
C1003 C1000 1.409 . S
C1003 C1001 1.415 1_565 S
C1004 H994 0.930 . S
C1004 C1002 1.419 . S
C1004 C1005 1.362 . S
C1005 H995 0.930 . S
C1005 C998 1.409 1_545 S
C1005 C1004 1.362 . S
H1006 C1012 0.930 . S
H1007 C1015 0.930 . S
H1008 C1016 0.930 . S
H1009 C1017 0.930 . S
H1010 C1020 0.930 . S
H1011 C1021 0.930 . S
C1012 H1006 0.930 . S
C1012 C1013 1.355 . S
C1012 C1014 1.415 . S
C1013 C1012 1.355 . S
C1013 C1015 1.419 . S
C1014 C1012 1.415 . S
C1014 C1019 1.425 . S
C1014 C1021 1.409 1_455 S
C1015 H1007 0.930 . S
C1015 C1013 1.419 . S
C1015 C1016 1.362 . S
C1016 H1008 0.930 . S
C1016 C1015 1.362 . S
C1016 C1019 1.409 . S
C1017 H1009 0.930 . S
C1017 C1018 1.355 . S
C1017 C1019 1.415 1_655 S
C1018 C1017 1.355 . S
C1018 C1020 1.419 . S
C1019 C1014 1.425 . S
C1019 C1016 1.409 . S
C1019 C1017 1.415 1_455 S
C1020 H1010 0.930 . S
C1020 C1018 1.419 . S
C1020 C1021 1.362 . S
C1021 H1011 0.930 . S
C1021 C1014 1.409 1_655 S
C1021 C1020 1.362 . S
H1022 C1028 0.930 . S
H1023 C1031 0.930 . S
H1024 C1032 0.930 . S
H1025 C1033 0.930 . S
H1026 C1036 0.930 . S
H1027 C1037 0.930 . S
C1028 H1022 0.930 . S
C1028 C1029 1.355 . S
C1028 C1030 1.415 . S
C1029 C1028 1.355 . S
C1029 C1031 1.419 . S
C1030 C1028 1.415 . S
C1030 C1035 1.425 . S
C1030 C1037 1.409 . S
C1031 H1023 0.930 . S
C1031 C1029 1.419 . S
C1031 C1032 1.362 . S
C1032 H1024 0.930 . S
C1032 C1031 1.362 . S
C1032 C1035 1.409 . S
C1033 H1025 0.930 . S
C1033 C1034 1.355 . S
C1033 C1035 1.415 . S
C1034 C1033 1.355 . S
C1034 C1036 1.419 . S
C1035 C1030 1.425 . S
C1035 C1032 1.409 . S
C1035 C1033 1.415 . S
C1036 H1026 0.930 . S
C1036 C1034 1.419 . S
C1036 C1037 1.362 . S
C1037 H1027 0.930 . S
C1037 C1030 1.409 . S
C1037 C1036 1.362 . S
H1038 C1044 0.930 . S
H1039 C1047 0.930 . S
H1040 C1048 0.930 . S
H1041 C1049 0.930 . S
H1042 C1052 0.930 . S
H1043 C1053 0.930 . S
C1044 H1038 0.930 . S
C1044 C1045 1.355 1_655 S
C1044 C1046 1.415 . S
C1045 C1044 1.355 1_455 S
C1045 C1047 1.419 . S
C1046 C1044 1.415 . S
C1046 C1051 1.425 . S
C1046 C1053 1.409 . S
C1047 H1039 0.930 . S
C1047 C1045 1.419 . S
C1047 C1048 1.362 1_455 S
C1048 H1040 0.930 . S
C1048 C1047 1.362 1_655 S
C1048 C1051 1.409 . S
C1049 H1041 0.930 . S
C1049 C1050 1.355 . S
C1049 C1051 1.415 . S
C1050 C1049 1.355 . S
C1050 C1052 1.419 . S
C1051 C1046 1.425 . S
C1051 C1048 1.409 . S
C1051 C1049 1.415 . S
C1052 H1042 0.930 . S
C1052 C1050 1.419 . S
C1052 C1053 1.362 . S
C1053 H1043 0.930 . S
C1053 C1046 1.409 . S
C1053 C1052 1.362 . S
H1054 C1060 0.930 . S
H1055 C1063 0.930 . S
H1056 C1064 0.930 . S
H1057 C1065 0.930 . S
H1058 C1068 0.930 . S
H1059 C1069 0.930 . S
C1060 H1054 0.930 . S
C1060 C1061 1.355 . S
C1060 C1062 1.415 . S
C1061 C1060 1.355 . S
C1061 C1063 1.419 . S
C1062 C1060 1.415 . S
C1062 C1067 1.425 . S
C1062 C1069 1.409 . S
C1063 H1055 0.930 . S
C1063 C1061 1.419 . S
C1063 C1064 1.362 . S
C1064 H1056 0.930 . S
C1064 C1063 1.362 . S
C1064 C1067 1.409 . S
C1065 H1057 0.930 . S
C1065 C1066 1.355 . S
C1065 C1067 1.415 . S
C1066 C1065 1.355 . S
C1066 C1068 1.419 . S
C1067 C1062 1.425 . S
C1067 C1064 1.409 . S
C1067 C1065 1.415 . S
C1068 H1058 0.930 . S
C1068 C1066 1.419 . S
C1068 C1069 1.362 . S
C1069 H1059 0.930 . S
C1069 C1062 1.409 . S
C1069 C1068 1.362 . S
H1070 C1076 0.930 1_565 S
H1071 C1079 0.930 . S
H1072 C1080 0.930 . S
H1073 C1081 0.930 . S
H1074 C1084 0.930 . S
H1075 C1085 0.930 . S
C1076 H1070 0.930 1_545 S
C1076 C1077 1.355 1_545 S
C1076 C1078 1.415 . S
C1077 C1076 1.355 1_565 S
C1077 C1079 1.419 . S
C1078 C1076 1.415 . S
C1078 C1083 1.425 . S
C1078 C1085 1.409 . S
C1079 H1071 0.930 . S
C1079 C1077 1.419 . S
C1079 C1080 1.362 1_565 S
C1080 H1072 0.930 . S
C1080 C1079 1.362 1_545 S
C1080 C1083 1.409 . S
C1081 H1073 0.930 . S
C1081 C1082 1.355 . S
C1081 C1083 1.415 . S
C1082 C1081 1.355 . S
C1082 C1084 1.419 . S
C1083 C1078 1.425 . S
C1083 C1080 1.409 . S
C1083 C1081 1.415 . S
C1084 H1074 0.930 . S
C1084 C1082 1.419 . S
C1084 C1085 1.362 . S
C1085 H1075 0.930 . S
C1085 C1078 1.409 . S
C1085 C1084 1.362 . S
H1086 C1092 0.930 . S
H1087 C1095 0.930 . S
H1088 C1096 0.930 . S
H1089 C1097 0.930 . S
H1090 C1100 0.930 . S
H1091 C1101 0.930 . S
C1092 H1086 0.930 . S
C1092 C1093 1.355 . S
C1092 C1094 1.415 . S
C1093 C1092 1.355 . S
C1093 C1095 1.419 . S
C1094 C1092 1.415 . S
C1094 C1099 1.425 . S
C1094 C1101 1.409 . S
C1095 H1087 0.930 . S
C1095 C1093 1.419 . S
C1095 C1096 1.362 . S
C1096 H1088 0.930 . S
C1096 C1095 1.362 . S
C1096 C1099 1.409 . S
C1097 H1089 0.930 . S
C1097 C1098 1.355 . S
C1097 C1099 1.415 . S
C1098 C1097 1.355 . S
C1098 C1100 1.419 . S
C1099 C1094 1.425 . S
C1099 C1096 1.409 . S
C1099 C1097 1.415 . S
C1100 H1090 0.930 . S
C1100 C1098 1.419 . S
C1100 C1101 1.362 . S
C1101 H1091 0.930 . S
C1101 C1094 1.409 . S
C1101 C1100 1.362 . S
H1102 C1108 0.930 . S
H1103 C1111 0.930 . S
H1104 C1112 0.930 . S
H1105 C1113 0.930 . S
H1106 C1116 0.930 . S
H1107 C1117 0.930 . S
C1108 H1102 0.930 . S
C1108 C1109 1.355 . S
C1108 C1110 1.415 . S
C1109 C1108 1.355 . S
C1109 C1111 1.419 . S
C1110 C1108 1.415 . S
C1110 C1115 1.425 . S
C1110 C1117 1.409 . S
C1111 H1103 0.930 . S
C1111 C1109 1.419 . S
C1111 C1112 1.362 . S
C1112 H1104 0.930 . S
C1112 C1111 1.362 . S
C1112 C1115 1.409 . S
C1113 H1105 0.930 . S
C1113 C1114 1.355 . S
C1113 C1115 1.415 . S
C1114 C1113 1.355 . S
C1114 C1116 1.419 . S
C1115 C1110 1.425 . S
C1115 C1112 1.409 . S
C1115 C1113 1.415 . S
C1116 H1106 0.930 . S
C1116 C1114 1.419 . S
C1116 C1117 1.362 . S
C1117 H1107 0.930 . S
C1117 C1110 1.409 . S
C1117 C1116 1.362 . S
H1118 C1124 0.930 . S
H1119 C1127 0.930 . S
H1120 C1128 0.930 . S
H1121 C1129 0.930 . S
H1122 C1132 0.930 . S
H1123 C1133 0.930 . S
C1124 H1118 0.930 . S
C1124 C1125 1.355 . S
C1124 C1126 1.415 . S
C1125 C1124 1.355 . S
C1125 C1127 1.419 . S
C1126 C1124 1.415 . S
C1126 C1131 1.425 . S
C1126 C1133 1.409 . S
C1127 H1119 0.930 . S
C1127 C1125 1.419 . S
C1127 C1128 1.362 . S
C1128 H1120 0.930 . S
C1128 C1127 1.362 . S
C1128 C1131 1.409 . S
C1129 H1121 0.930 . S
C1129 C1130 1.355 . S
C1129 C1131 1.415 . S
C1130 C1129 1.355 . S
C1130 C1132 1.419 . S
C1131 C1126 1.425 . S
C1131 C1128 1.409 . S
C1131 C1129 1.415 . S
C1132 H1122 0.930 . S
C1132 C1130 1.419 . S
C1132 C1133 1.362 . S
C1133 H1123 0.930 . S
C1133 C1126 1.409 . S
C1133 C1132 1.362 . S
H1134 C1140 0.930 . S
H1135 C1143 0.930 . S
H1136 C1144 0.930 . S
H1137 C1145 0.930 . S
H1138 C1148 0.930 1_545 S
H1139 C1149 0.930 1_545 S
C1140 H1134 0.930 . S
C1140 C1141 1.355 . S
C1140 C1142 1.415 . S
C1141 C1140 1.355 . S
C1141 C1143 1.419 . S
C1142 C1140 1.415 . S
C1142 C1147 1.425 . S
C1142 C1149 1.409 . S
C1143 H1135 0.930 . S
C1143 C1141 1.419 . S
C1143 C1144 1.362 . S
C1144 H1136 0.930 . S
C1144 C1143 1.362 . S
C1144 C1147 1.409 . S
C1145 H1137 0.930 . S
C1145 C1146 1.355 . S
C1145 C1147 1.415 . S
C1146 C1145 1.355 . S
C1146 C1148 1.419 . S
C1147 C1142 1.425 . S
C1147 C1144 1.409 . S
C1147 C1145 1.415 . S
C1148 H1138 0.930 1_565 S
C1148 C1146 1.419 . S
C1148 C1149 1.362 . S
C1149 H1139 0.930 1_565 S
C1149 C1142 1.409 . S
C1149 C1148 1.362 . S
H1150 C1156 0.930 . S
H1151 C1159 0.930 . S
H1152 C1160 0.930 1_655 S
H1153 C1161 0.930 . S
H1154 C1164 0.930 . S
H1155 C1165 0.930 . S
C1156 H1150 0.930 . S
C1156 C1157 1.355 . S
C1156 C1158 1.415 . S
C1157 C1156 1.355 . S
C1157 C1159 1.419 . S
C1158 C1156 1.415 . S
C1158 C1163 1.425 . S
C1158 C1165 1.409 . S
C1159 H1151 0.930 . S
C1159 C1157 1.419 . S
C1159 C1160 1.362 . S
C1160 H1152 0.930 1_455 S
C1160 C1159 1.362 . S
C1160 C1163 1.409 . S
C1161 H1153 0.930 . S
C1161 C1162 1.355 . S
C1161 C1163 1.415 . S
C1162 C1161 1.355 . S
C1162 C1164 1.419 . S
C1163 C1158 1.425 . S
C1163 C1160 1.409 . S
C1163 C1161 1.415 . S
C1164 H1154 0.930 . S
C1164 C1162 1.419 . S
C1164 C1165 1.362 . S
C1165 H1155 0.930 . S
C1165 C1158 1.409 . S
C1165 C1164 1.362 . S
H1166 C1172 0.930 . S
H1167 C1175 0.930 . S
H1168 C1176 0.930 . S
H1169 C1177 0.930 . S
H1170 C1180 0.930 . S
H1171 C1181 0.930 . S
C1172 H1166 0.930 . S
C1172 C1173 1.355 . S
C1172 C1174 1.415 . S
C1173 C1172 1.355 . S
C1173 C1175 1.419 . S
C1174 C1172 1.415 . S
C1174 C1179 1.425 . S
C1174 C1181 1.409 . S
C1175 H1167 0.930 . S
C1175 C1173 1.419 . S
C1175 C1176 1.362 . S
C1176 H1168 0.930 . S
C1176 C1175 1.362 . S
C1176 C1179 1.409 . S
C1177 H1169 0.930 . S
C1177 C1178 1.355 . S
C1177 C1179 1.415 . S
C1178 C1177 1.355 . S
C1178 C1180 1.419 . S
C1179 C1174 1.425 . S
C1179 C1176 1.409 . S
C1179 C1177 1.415 . S
C1180 H1170 0.930 . S
C1180 C1178 1.419 . S
C1180 C1181 1.362 . S
C1181 H1171 0.930 . S
C1181 C1174 1.409 . S
C1181 C1180 1.362 . S
H1182 C1188 0.930 . S
H1183 C1191 0.930 . S
H1184 C1192 0.930 . S
H1185 C1193 0.930 . S
H1186 C1196 0.930 . S
H1187 C1197 0.930 . S
C1188 H1182 0.930 . S
C1188 C1189 1.355 . S
C1188 C1190 1.415 . S
C1189 C1188 1.355 . S
C1189 C1191 1.419 . S
C1190 C1188 1.415 . S
C1190 C1195 1.425 . S
C1190 C1197 1.409 . S
C1191 H1183 0.930 . S
C1191 C1189 1.419 . S
C1191 C1192 1.362 . S
C1192 H1184 0.930 . S
C1192 C1191 1.362 . S
C1192 C1195 1.409 . S
C1193 H1185 0.930 . S
C1193 C1194 1.355 . S
C1193 C1195 1.415 . S
C1194 C1193 1.355 . S
C1194 C1196 1.419 . S
C1195 C1190 1.425 . S
C1195 C1192 1.409 . S
C1195 C1193 1.415 . S
C1196 H1186 0.930 . S
C1196 C1194 1.419 . S
C1196 C1197 1.362 . S
C1197 H1187 0.930 . S
C1197 C1190 1.409 . S
C1197 C1196 1.362 . S
H1198 C1204 0.930 . S
H1199 C1207 0.930 . S
H1200 C1208 0.930 . S
H1201 C1209 0.930 . S
H1202 C1212 0.930 . S
H1203 C1213 0.930 . S
C1204 H1198 0.930 . S
C1204 C1205 1.355 . S
C1204 C1206 1.415 . S
C1205 C1204 1.355 . S
C1205 C1207 1.419 . S
C1206 C1204 1.415 . S
C1206 C1211 1.425 . S
C1206 C1213 1.409 . S
C1207 H1199 0.930 . S
C1207 C1205 1.419 . S
C1207 C1208 1.362 . S
C1208 H1200 0.930 . S
C1208 C1207 1.362 . S
C1208 C1211 1.409 . S
C1209 H1201 0.930 . S
C1209 C1210 1.355 . S
C1209 C1211 1.415 . S
C1210 C1209 1.355 . S
C1210 C1212 1.419 . S
C1211 C1206 1.425 . S
C1211 C1208 1.409 . S
C1211 C1209 1.415 . S
C1212 H1202 0.930 . S
C1212 C1210 1.419 . S
C1212 C1213 1.362 . S
C1213 H1203 0.930 . S
C1213 C1206 1.409 . S
C1213 C1212 1.362 . S
H1214 C1220 0.930 . S
H1215 C1223 0.930 . S
H1216 C1224 0.930 . S
H1217 C1225 0.930 . S
H1218 C1228 0.930 . S
H1219 C1229 0.930 . S
C1220 H1214 0.930 . S
C1220 C1221 1.355 . S
C1220 C1222 1.415 . S
C1221 C1220 1.355 . S
C1221 C1223 1.419 . S
C1222 C1220 1.415 . S
C1222 C1227 1.425 . S
C1222 C1229 1.409 . S
C1223 H1215 0.930 . S
C1223 C1221 1.419 . S
C1223 C1224 1.362 . S
C1224 H1216 0.930 . S
C1224 C1223 1.362 . S
C1224 C1227 1.409 . S
C1225 H1217 0.930 . S
C1225 C1226 1.355 . S
C1225 C1227 1.415 . S
C1226 C1225 1.355 . S
C1226 C1228 1.419 . S
C1227 C1222 1.425 . S
C1227 C1224 1.409 . S
C1227 C1225 1.415 . S
C1228 H1218 0.930 . S
C1228 C1226 1.419 . S
C1228 C1229 1.362 . S
C1229 H1219 0.930 . S
C1229 C1222 1.409 . S
C1229 C1228 1.362 . S
H1230 C1236 0.930 . S
H1231 C1239 0.930 . S
H1232 C1240 0.930 . S
H1233 C1241 0.930 . S
H1234 C1244 0.930 . S
H1235 C1245 0.930 . S
C1236 H1230 0.930 . S
C1236 C1237 1.355 . S
C1236 C1238 1.415 . S
C1237 C1236 1.355 . S
C1237 C1239 1.419 . S
C1238 C1236 1.415 . S
C1238 C1243 1.425 . S
C1238 C1245 1.409 . S
C1239 H1231 0.930 . S
C1239 C1237 1.419 . S
C1239 C1240 1.362 . S
C1240 H1232 0.930 . S
C1240 C1239 1.362 . S
C1240 C1243 1.409 . S
C1241 H1233 0.930 . S
C1241 C1242 1.355 . S
C1241 C1243 1.415 . S
C1242 C1241 1.355 . S
C1242 C1244 1.419 . S
C1243 C1238 1.425 . S
C1243 C1240 1.409 . S
C1243 C1241 1.415 . S
C1244 H1234 0.930 . S
C1244 C1242 1.419 . S
C1244 C1245 1.362 . S
C1245 H1235 0.930 . S
C1245 C1238 1.409 . S
C1245 C1244 1.362 . S
H1246 C1252 0.930 . S
H1247 C1255 0.930 . S
H1248 C1256 0.930 . S
H1249 C1257 0.930 . S
H1250 C1260 0.930 . S
H1251 C1261 0.930 . S
C1252 H1246 0.930 . S
C1252 C1253 1.355 . S
C1252 C1254 1.415 . S
C1253 C1252 1.355 . S
C1253 C1255 1.419 . S
C1254 C1252 1.415 . S
C1254 C1259 1.425 . S
C1254 C1261 1.409 . S
C1255 H1247 0.930 . S
C1255 C1253 1.419 . S
C1255 C1256 1.362 . S
C1256 H1248 0.930 . S
C1256 C1255 1.362 . S
C1256 C1259 1.409 . S
C1257 H1249 0.930 . S
C1257 C1258 1.355 . S
C1257 C1259 1.415 . S
C1258 C1257 1.355 . S
C1258 C1260 1.419 . S
C1259 C1254 1.425 . S
C1259 C1256 1.409 . S
C1259 C1257 1.415 . S
C1260 H1250 0.930 . S
C1260 C1258 1.419 . S
C1260 C1261 1.362 . S
C1261 H1251 0.930 . S
C1261 C1254 1.409 . S
C1261 C1260 1.362 . S
H1262 C1268 0.930 . S
H1263 C1271 0.930 . S
H1264 C1272 0.930 . S
H1265 C1273 0.930 . S
H1266 C1276 0.930 . S
H1267 C1277 0.930 . S
C1268 H1262 0.930 . S
C1268 C1269 1.355 . S
C1268 C1270 1.415 . S
C1269 C1268 1.355 . S
C1269 C1271 1.419 . S
C1270 C1268 1.415 . S
C1270 C1275 1.425 . S
C1270 C1277 1.409 . S
C1271 H1263 0.930 . S
C1271 C1269 1.419 . S
C1271 C1272 1.362 . S
C1272 H1264 0.930 . S
C1272 C1271 1.362 . S
C1272 C1275 1.409 . S
C1273 H1265 0.930 . S
C1273 C1274 1.355 . S
C1273 C1275 1.415 . S
C1274 C1273 1.355 . S
C1274 C1276 1.419 . S
C1275 C1270 1.425 . S
C1275 C1272 1.409 . S
C1275 C1273 1.415 . S
C1276 H1266 0.930 . S
C1276 C1274 1.419 . S
C1276 C1277 1.362 . S
C1277 H1267 0.930 . S
C1277 C1270 1.409 . S
C1277 C1276 1.362 . S
H1278 C1284 0.930 . S
H1279 C1287 0.930 . S
H1280 C1288 0.930 . S
H1281 C1289 0.930 . S
H1282 C1292 0.930 . S
H1283 C1293 0.930 . S
C1284 H1278 0.930 . S
C1284 C1285 1.355 . S
C1284 C1286 1.415 . S
C1285 C1284 1.355 . S
C1285 C1287 1.419 . S
C1286 C1284 1.415 . S
C1286 C1291 1.425 . S
C1286 C1293 1.409 . S
C1287 H1279 0.930 . S
C1287 C1285 1.419 . S
C1287 C1288 1.362 . S
C1288 H1280 0.930 . S
C1288 C1287 1.362 . S
C1288 C1291 1.409 . S
C1289 H1281 0.930 . S
C1289 C1290 1.355 . S
C1289 C1291 1.415 . S
C1290 C1289 1.355 . S
C1290 C1292 1.419 . S
C1291 C1286 1.425 . S
C1291 C1288 1.409 . S
C1291 C1289 1.415 . S
C1292 H1282 0.930 . S
C1292 C1290 1.419 . S
C1292 C1293 1.362 . S
C1293 H1283 0.930 . S
C1293 C1286 1.409 . S
C1293 C1292 1.362 . S
H1294 C1300 0.930 . S
H1295 C1303 0.930 . S
H1296 C1304 0.930 . S
H1297 C1305 0.930 . S
H1298 C1308 0.930 . S
H1299 C1309 0.930 . S
C1300 H1294 0.930 . S
C1300 C1301 1.355 . S
C1300 C1302 1.415 . S
C1301 C1300 1.355 . S
C1301 C1303 1.419 . S
C1302 C1300 1.415 . S
C1302 C1307 1.425 . S
C1302 C1309 1.409 . S
C1303 H1295 0.930 . S
C1303 C1301 1.419 . S
C1303 C1304 1.362 . S
C1304 H1296 0.930 . S
C1304 C1303 1.362 . S
C1304 C1307 1.409 . S
C1305 H1297 0.930 . S
C1305 C1306 1.355 . S
C1305 C1307 1.415 . S
C1306 C1305 1.355 . S
C1306 C1308 1.419 . S
C1307 C1302 1.425 . S
C1307 C1304 1.409 . S
C1307 C1305 1.415 . S
C1308 H1298 0.930 . S
C1308 C1306 1.419 . S
C1308 C1309 1.362 . S
C1309 H1299 0.930 . S
C1309 C1302 1.409 . S
C1309 C1308 1.362 . S
H1310 C1316 0.930 . S
H1311 C1319 0.930 . S
H1312 C1320 0.930 . S
H1313 C1321 0.930 . S
H1314 C1324 0.930 . S
H1315 C1325 0.930 . S
C1316 H1310 0.930 . S
C1316 C1317 1.355 . S
C1316 C1318 1.415 . S
C1317 C1316 1.355 . S
C1317 C1319 1.419 . S
C1318 C1316 1.415 . S
C1318 C1323 1.425 . S
C1318 C1325 1.409 . S
C1319 H1311 0.930 . S
C1319 C1317 1.419 . S
C1319 C1320 1.362 . S
C1320 H1312 0.930 . S
C1320 C1319 1.362 . S
C1320 C1323 1.409 . S
C1321 H1313 0.930 . S
C1321 C1322 1.355 . S
C1321 C1323 1.415 . S
C1322 C1321 1.355 . S
C1322 C1324 1.419 . S
C1323 C1318 1.425 . S
C1323 C1320 1.409 . S
C1323 C1321 1.415 . S
C1324 H1314 0.930 . S
C1324 C1322 1.419 . S
C1324 C1325 1.362 . S
C1325 H1315 0.930 . S
C1325 C1318 1.409 . S
C1325 C1324 1.362 . S
H1326 C1332 0.930 . S
H1327 C1335 0.930 . S
H1328 C1336 0.930 . S
H1329 C1337 0.930 . S
H1330 C1340 0.930 . S
H1331 C1341 0.930 . S
C1332 H1326 0.930 . S
C1332 C1333 1.355 . S
C1332 C1334 1.415 . S
C1333 C1332 1.355 . S
C1333 C1335 1.419 . S
C1334 C1332 1.415 . S
C1334 C1339 1.425 . S
C1334 C1341 1.409 . S
C1335 H1327 0.930 . S
C1335 C1333 1.419 . S
C1335 C1336 1.362 . S
C1336 H1328 0.930 . S
C1336 C1335 1.362 . S
C1336 C1339 1.409 . S
C1337 H1329 0.930 . S
C1337 C1338 1.355 . S
C1337 C1339 1.415 . S
C1338 C1337 1.355 . S
C1338 C1340 1.419 . S
C1339 C1334 1.425 . S
C1339 C1336 1.409 . S
C1339 C1337 1.415 . S
C1340 H1330 0.930 . S
C1340 C1338 1.419 . S
C1340 C1341 1.362 . S
C1341 H1331 0.930 . S
C1341 C1334 1.409 . S
C1341 C1340 1.362 . S
H1342 C1348 0.930 . S
H1343 C1351 0.930 . S
H1344 C1352 0.930 . S
H1345 C1353 0.930 . S
H1346 C1356 0.930 . S
H1347 C1357 0.930 . S
C1348 H1342 0.930 . S
C1348 C1349 1.355 . S
C1348 C1350 1.415 . S
C1349 C1348 1.355 . S
C1349 C1351 1.419 . S
C1350 C1348 1.415 . S
C1350 C1355 1.425 . S
C1350 C1357 1.409 . S
C1351 H1343 0.930 . S
C1351 C1349 1.419 . S
C1351 C1352 1.362 . S
C1352 H1344 0.930 . S
C1352 C1351 1.362 . S
C1352 C1355 1.409 . S
C1353 H1345 0.930 . S
C1353 C1354 1.355 . S
C1353 C1355 1.415 . S
C1354 C1353 1.355 . S
C1354 C1356 1.419 . S
C1355 C1350 1.425 . S
C1355 C1352 1.409 . S
C1355 C1353 1.415 . S
C1356 H1346 0.930 . S
C1356 C1354 1.419 . S
C1356 C1357 1.362 . S
C1357 H1347 0.930 . S
C1357 C1350 1.409 . S
C1357 C1356 1.362 . S
H1358 C1364 0.930 . S
H1359 C1367 0.930 . S
H1360 C1368 0.930 . S
H1361 C1369 0.930 . S
H1362 C1372 0.930 . S
H1363 C1373 0.930 . S
C1364 H1358 0.930 . S
C1364 C1365 1.355 . S
C1364 C1366 1.415 . S
C1365 C1364 1.355 . S
C1365 C1367 1.419 . S
C1366 C1364 1.415 . S
C1366 C1371 1.425 . S
C1366 C1373 1.409 . S
C1367 H1359 0.930 . S
C1367 C1365 1.419 . S
C1367 C1368 1.362 . S
C1368 H1360 0.930 . S
C1368 C1367 1.362 . S
C1368 C1371 1.409 . S
C1369 H1361 0.930 . S
C1369 C1370 1.355 . S
C1369 C1371 1.415 . S
C1370 C1369 1.355 . S
C1370 C1372 1.419 . S
C1371 C1366 1.425 . S
C1371 C1368 1.409 . S
C1371 C1369 1.415 . S
C1372 H1362 0.930 . S
C1372 C1370 1.419 . S
C1372 C1373 1.362 . S
C1373 H1363 0.930 . S
C1373 C1366 1.409 . S
C1373 C1372 1.362 . S
H1374 C1380 0.930 . S
H1375 C1383 0.930 . S
H1376 C1384 0.930 . S
H1377 C1385 0.930 . S
H1378 C1388 0.930 . S
H1379 C1389 0.930 . S
C1380 H1374 0.930 . S
C1380 C1381 1.355 . S
C1380 C1382 1.415 . S
C1381 C1380 1.355 . S
C1381 C1383 1.419 . S
C1382 C1380 1.415 . S
C1382 C1387 1.425 . S
C1382 C1389 1.409 . S
C1383 H1375 0.930 . S
C1383 C1381 1.419 . S
C1383 C1384 1.362 . S
C1384 H1376 0.930 . S
C1384 C1383 1.362 . S
C1384 C1387 1.409 . S
C1385 H1377 0.930 . S
C1385 C1386 1.355 . S
C1385 C1387 1.415 . S
C1386 C1385 1.355 . S
C1386 C1388 1.419 . S
C1387 C1382 1.425 . S
C1387 C1384 1.409 . S
C1387 C1385 1.415 . S
C1388 H1378 0.930 . S
C1388 C1386 1.419 . S
C1388 C1389 1.362 . S
C1389 H1379 0.930 . S
C1389 C1382 1.409 . S
C1389 C1388 1.362 . S
H1390 C1396 0.930 . S
H1391 C1399 0.930 . S
H1392 C1400 0.930 . S
H1393 C1401 0.930 . S
H1394 C1404 0.930 . S
H1395 C1405 0.930 . S
C1396 H1390 0.930 . S
C1396 C1397 1.355 . S
C1396 C1398 1.415 . S
C1397 C1396 1.355 . S
C1397 C1399 1.419 . S
C1398 C1396 1.415 . S
C1398 C1403 1.425 . S
C1398 C1405 1.409 . S
C1399 H1391 0.930 . S
C1399 C1397 1.419 . S
C1399 C1400 1.362 . S
C1400 H1392 0.930 . S
C1400 C1399 1.362 . S
C1400 C1403 1.409 . S
C1401 H1393 0.930 . S
C1401 C1402 1.355 . S
C1401 C1403 1.415 . S
C1402 C1401 1.355 . S
C1402 C1404 1.419 . S
C1403 C1398 1.425 . S
C1403 C1400 1.409 . S
C1403 C1401 1.415 . S
C1404 H1394 0.930 . S
C1404 C1402 1.419 . S
C1404 C1405 1.362 . S
C1405 H1395 0.930 . S
C1405 C1398 1.409 . S
C1405 C1404 1.362 . S
H1406 C1412 0.930 . S
H1407 C1415 0.930 . S
H1408 C1416 0.930 . S
H1409 C1417 0.930 . S
H1410 C1420 0.930 . S
H1411 C1421 0.930 . S
C1412 H1406 0.930 . S
C1412 C1413 1.355 . S
C1412 C1414 1.415 . S
C1413 C1412 1.355 . S
C1413 C1415 1.419 . S
C1414 C1412 1.415 . S
C1414 C1419 1.425 . S
C1414 C1421 1.409 . S
C1415 H1407 0.930 . S
C1415 C1413 1.419 . S
C1415 C1416 1.362 . S
C1416 H1408 0.930 . S
C1416 C1415 1.362 . S
C1416 C1419 1.409 . S
C1417 H1409 0.930 . S
C1417 C1418 1.355 . S
C1417 C1419 1.415 . S
C1418 C1417 1.355 . S
C1418 C1420 1.419 . S
C1419 C1414 1.425 . S
C1419 C1416 1.409 . S
C1419 C1417 1.415 . S
C1420 H1410 0.930 . S
C1420 C1418 1.419 . S
C1420 C1421 1.362 . S
C1421 H1411 0.930 . S
C1421 C1414 1.409 . S
C1421 C1420 1.362 . S
C565 C147 1.640 . S
C570 C210 1.658 . S
C581 C158 1.757 . S
C586 C250 1.751 . S
C597 C136 1.570 . S
C602 C280 1.575 . S
C613 C125 1.466 . S
C618 C240 1.446 1_556 S
C634 C290 1.498 . S
C629 C103 1.505 . S
C645 C114 1.356 . S
C650 C200 1.371 1_556 S
C666 C229 1.669 . S
C661 C131 1.643 . S
C682 C269 1.655 . S
C677 C109 1.641 . S
C693 C120 1.622 . S
C698 C295 1.658 1_556 S
C709 C153 1.530 . S
C714 C255 1.540 . S
C725 C164 1.472 . S
C730 C309 1.479 . S
C746 C215 1.496 . S
C741 C142 1.465 . S
C762 C330 1.661 . S
C757 C15 1.656 . S
C773 C26 1.760 . S
C778 C370 1.765 . S
C789 C4 1.611 . S
C794 C400 1.594 . S
C805 C191 1.476 . S
C810 C360 1.432 . S
C821 C169 1.507 . S
C826 C410 1.498 . S
C837 C180 1.372 . S
C842 C320 1.389 . S
C853 C197 1.662 . S
C858 C349 1.670 . S
C869 C175 1.654 . S
C874 C389 1.660 . S
C890 C415 1.658 . S
C885 C186 1.622 . S
C901 C21 1.472 . S
C906 C375 1.484 . S
C922 C429 1.453 . S
C917 C32 1.413 1_455 S
C933 C10 1.490 . S
C938 C335 1.498 . S
C954 C450 1.661 . S
C949 C81 1.657 . S
C965 C92 1.759 . S
C970 C490 1.752 . S
C986 C520 1.592 . S
C981 C70 1.584 . S
C1002 C480 1.445 . S
C997 C59 1.488 . S
C1018 C530 1.503 . S
C1013 C37 1.507 . S
C1029 C48 1.376 . S
C1034 C440 1.392 . S
C1045 C65 1.630 . S
C1050 C469 1.647 . S
C1061 C43 1.648 . S
C1066 C509 1.661 . S
C1082 C535 1.688 . S
C1077 C54 1.662 . S
C1093 C87 1.531 . S
C1098 C495 1.527 . S
C1109 C98 1.469 . S
C1114 C549 1.468 . S
C1125 C76 1.459 . S
C1130 C455 1.491 . S
C1141 C170 1.532 . S
C1146 C227 1.497 . S
C1162 C267 1.888 . S
C1157 C181 1.923 . S
C1173 C192 1.525 . S
C1178 C286 1.552 . S
C1189 C71 1.730 . S
C1194 C246 1.743 . S
C1205 C82 1.663 . S
C1210 C307 1.639 . S
C1226 C206 1.342 . S
C1221 C93 1.324 . S
C1237 C38 1.545 . S
C1242 C347 1.528 . S
C1253 C49 1.923 . S
C1258 C387 1.887 . S
C1269 C60 1.536 . S
C1274 C406 1.568 . S
C1285 C137 1.764 . S
C1290 C366 1.761 . S
C1306 C427 1.638 . S
C1301 C148 1.661 . S
C1317 C159 1.342 . S
C1322 C326 1.334 . S
C1333 C104 1.548 . S
C1338 C467 1.522 . S
C1349 C115 1.934 . S
C1354 C507 1.902 . S
C1370 C526 1.578 . S
C1365 C126 1.560 . S
C1381 C5 1.744 . S
C1386 C486 1.726 . S
C1397 C16 1.670 . S
C1402 C547 1.650 . S
C1413 C27 1.334 . S
C1418 C446 1.329 . S
