# Generated by pormake.
# Topology rtl, (3,6)-cn, num edge types: 1
# Building blocks:
#     Node 0, Type 0, BuildingBlock: BELTOD_clean_linker_0, # of connection points: 3
#     Node 1, Type 0, BuildingBlock: BELTOD_clean_linker_0, # of connection points: 3
#     Node 2, Type 0, BuildingBlock: BELTOD_clean_linker_0, # of connection points: 3
#     Node 3, Type 0, BuildingBlock: BELTOD_clean_linker_0, # of connection points: 3
#     Node 4, Type 1, BuildingBlock: FUNLAD_clean_sbu_0, # of connection points: 6
#     Node 5, Type 1, BuildingBlock: FUNLAD_clean_sbu_0, # of connection points: 6
#     Edge 6, Type (0, 1), BuildingBlock: FUNLAD_clean_linker_1, # of connection points: 2
#     Edge 7, Type (0, 1), BuildingBlock: FUNLAD_clean_linker_1, # of connection points: 2
#     Edge 8, Type (0, 1), BuildingBlock: FUNLAD_clean_linker_1, # of connection points: 2
#     Edge 9, Type (0, 1), BuildingBlock: FUNLAD_clean_linker_1, # of connection points: 2
#     Edge 10, Type (0, 1), BuildingBlock: FUNLAD_clean_linker_1, # of connection points: 2
#     Edge 11, Type (0, 1), BuildingBlock: FUNLAD_clean_linker_1, # of connection points: 2
#     Edge 12, Type (0, 1), BuildingBlock: FUNLAD_clean_linker_1, # of connection points: 2
#     Edge 13, Type (0, 1), BuildingBlock: FUNLAD_clean_linker_1, # of connection points: 2
#     Edge 14, Type (0, 1), BuildingBlock: FUNLAD_clean_linker_1, # of connection points: 2
#     Edge 15, Type (0, 1), BuildingBlock: FUNLAD_clean_linker_1, # of connection points: 2
#     Edge 16, Type (0, 1), BuildingBlock: FUNLAD_clean_linker_1, # of connection points: 2
#     Edge 17, Type (0, 1), BuildingBlock: FUNLAD_clean_linker_1, # of connection points: 2
# Relax obj value: 0.023
# Max RMSD: 0.087
# Mean RMSD: 0.074
data_MOF--net-rtl--node1-FUNLAD_clean_sbu_0--node2-BELTOD_clean_linker_0--edge1-FUNLAD_clean_linker_1
_symmetry_space_group_name_H-M    P1
_symmetry_Int_Tables_number       1
_symmetry_cell_setting            triclinic
loop_
_symmetry_equiv_pos_as_xyz
'x, y, z'
_cell_length_a     47.431201
_cell_length_b     39.100386
_cell_length_c     26.939967
_cell_angle_alpha  89.067208
_cell_angle_beta   91.019182
_cell_angle_gamma 90.356744
loop_
_atom_site_label
_atom_site_type_symbol
_atom_site_fract_x
_atom_site_fract_y
_atom_site_fract_z
_atom_type_partial_charge
P0 P 0.15677 0.8034 0.02318 0.0
H1 H 0.16753 0.82007 0.12674 0.0
H2 H 0.13654 0.82778 0.19684 0.0
H3 H 0.06514 0.79624 0.10637 0.0
H4 H 0.09659 0.7877 0.0365 0.0
H5 H 0.19335 0.77752 0.94743 0.0
H6 H 0.22359 0.72748 0.94401 0.0
H7 H 0.19267 0.69254 0.08616 0.0
H8 H 0.16192 0.74248 0.08873 0.0
H9 H 0.13517 0.86777 0.98478 0.0
H10 H 0.1317 0.76189 0.94293 0.0
O11 O 0.18117 0.83398 0.03004 0.0
H12 H 0.10613 0.88335 0.91296 0.0
H13 H 0.10313 0.7774 0.86926 0.0
C14 C 0.13421 0.80441 0.07609 0.0
C15 C 0.14523 0.8147 0.12206 0.0
C16 C 0.12738 0.8194 0.162 0.0
C17 C 0.09811 0.81397 0.15645 0.0
C18 C 0.0875 0.8012 0.11137 0.0
C19 C 0.10543 0.79644 0.07141 0.0
C20 C 0.17535 0.76368 0.01817 0.0
C21 C 0.19281 0.75883 0.97753 0.0
C22 C 0.21042 0.73038 0.97603 0.0
C23 C 0.21117 0.7065 0.01572 0.0
C24 C 0.1927 0.71068 0.05533 0.0
C25 C 0.17508 0.73921 0.05678 0.0
C26 C 0.13635 0.81391 0.96822 0.0
C27 C 0.12861 0.84796 0.95932 0.0
C28 C 0.1121 0.85685 0.91777 0.0
C29 C 0.10308 0.83169 0.88406 0.0
C30 C 0.11018 0.79738 0.89405 0.0
C31 C 0.12664 0.78851 0.93592 0.0
P32 P 0.6469 0.70243 0.51151 0.0
H33 H 0.66333 0.66537 0.42368 0.0
H34 H 0.63883 0.65302 0.34631 0.0
H35 H 0.57105 0.72005 0.38685 0.0
H36 H 0.59598 0.73207 0.46519 0.0
H37 H 0.6965 0.71825 0.57156 0.0
H38 H 0.72747 0.76797 0.5759 0.0
H39 H 0.67467 0.82083 0.46744 0.0
H40 H 0.64318 0.77094 0.46434 0.0
H41 H 0.59284 0.66651 0.51485 0.0
H42 H 0.64334 0.72962 0.61231 0.0
O43 O 0.66805 0.66891 0.52092 0.0
H44 H 0.55966 0.65572 0.5814 0.0
H45 H 0.61043 0.71811 0.67951 0.0
C46 C 0.63117 0.69903 0.45051 0.0
C47 C 0.64347 0.67794 0.41556 0.0
C48 C 0.62943 0.67119 0.3708 0.0
C49 C 0.60288 0.6858 0.36005 0.0
C50 C 0.59145 0.70851 0.39408 0.0
C51 C 0.60563 0.71535 0.4388 0.0
C52 C 0.66804 0.74055 0.5166 0.0
C53 C 0.69161 0.7405 0.54862 0.0
C54 C 0.70946 0.76894 0.55071 0.0
C55 C 0.7041 0.79793 0.52041 0.0
C56 C 0.67954 0.79861 0.4905 0.0
C57 C 0.6616 0.77009 0.48858 0.0
C58 C 0.62027 0.69959 0.55813 0.0
C59 C 0.59644 0.67886 0.55008 0.0
C60 C 0.5775 0.67255 0.58821 0.0
C61 C 0.58263 0.68574 0.63559 0.0
C62 C 0.60615 0.70721 0.64345 0.0
C63 C 0.62487 0.71401 0.60492 0.0
P64 P 0.90783 0.27406 0.99177 0.0
H65 H 0.92675 0.28029 0.88935 0.0
H66 H 0.93007 0.23941 0.82243 0.0
H67 H 0.89533 0.1604 0.91778 0.0
H68 H 0.89169 0.20183 0.98458 0.0
H69 H 0.88655 0.32969 0.05008 0.0
H70 H 0.84024 0.35662 0.05498 0.0
H71 H 0.80704 0.28529 0.94739 0.0
H72 H 0.85299 0.25852 0.9433 0.0
H73 H 0.96286 0.26113 0.0373 0.0
H74 H 0.87594 0.23969 0.07085 0.0
O75 O 0.93048 0.306 0.98068 0.0
H76 H 0.9779 0.23002 0.11262 0.0
H77 H 0.89062 0.20904 0.14638 0.0
C78 C 0.9097 0.24384 0.94229 0.0
C79 C 0.92008 0.2541 0.89601 0.0
C80 C 0.92217 0.23054 0.85783 0.0
C81 C 0.91379 0.19625 0.86539 0.0
C82 C 0.90233 0.18649 0.91122 0.0
C83 C 0.90035 0.21007 0.94943 0.0
C84 C 0.87323 0.29222 0.9963 0.0
C85 C 0.86917 0.31975 0.02792 0.0
C86 C 0.84272 0.33507 0.03069 0.0
C87 C 0.81977 0.32292 0.00226 0.0
C88 C 0.82389 0.29497 0.97088 0.0
C89 C 0.8504 0.2797 0.96811 0.0
C90 C 0.91831 0.2531 0.04898 0.0
C91 C 0.947 0.24998 0.06117 0.0
C92 C 0.95556 0.23213 0.1041 0.0
C93 C 0.93561 0.21653 0.13516 0.0
C94 C 0.90673 0.21993 0.12291 0.0
C95 C 0.89821 0.23789 0.07995 0.0
P96 P 0.40282 0.22786 0.50703 0.0
H97 H 0.42462 0.20511 0.60402 0.0
H98 H 0.44019 0.23617 0.67805 0.0
H99 H 0.4215 0.33188 0.60194 0.0
H100 H 0.4055 0.30087 0.52957 0.0
H101 H 0.36972 0.17577 0.4567 0.0
H102 H 0.3199 0.16062 0.45746 0.0
H103 H 0.30577 0.23793 0.56718 0.0
H104 H 0.35576 0.2534 0.56526 0.0
H105 H 0.45179 0.24514 0.44799 0.0
H106 H 0.36374 0.27178 0.44962 0.0
O107 O 0.42264 0.19306 0.50148 0.0
H108 H 0.45912 0.28529 0.37937 0.0
H109 H 0.37069 0.3116 0.38012 0.0
C110 C 0.41435 0.2507 0.56114 0.0
C111 C 0.42386 0.23279 0.60357 0.0
C112 C 0.43267 0.25054 0.64579 0.0
C113 C 0.43171 0.28644 0.64648 0.0
C114 C 0.42192 0.30425 0.60375 0.0
C115 C 0.41309 0.28648 0.5617 0.0
C116 C 0.36655 0.21497 0.51191 0.0
C117 C 0.35596 0.18898 0.4816 0.0
C118 C 0.32738 0.18024 0.48234 0.0
C119 C 0.30888 0.19749 0.51359 0.0
C120 C 0.31959 0.22391 0.5433 0.0
C121 C 0.34818 0.23263 0.54245 0.0
C122 C 0.40712 0.25476 0.45294 0.0
C123 C 0.43389 0.25905 0.43264 0.0
C124 C 0.43797 0.282 0.39309 0.0
C125 C 0.41521 0.30111 0.37324 0.0
C126 C 0.38849 0.2969 0.39417 0.0
C127 C 0.38447 0.27397 0.43371 0.0
C128 C 0.02013 0.96141 0.43231 0.0
N129 N 0.06071 0.04526 0.49613 0.0
C130 C 0.08426 0.02563 0.4955 0.0
C131 C 0.11088 0.0408 0.49402 0.0
C132 C 0.11345 0.07651 0.49369 0.0
C133 C 0.08876 0.09632 0.49352 0.0
C134 C 0.06245 0.08001 0.49479 0.0
Zn135 Zn 0.02271 0.02071 0.50045 0.0
C136 C 0.98015 0.0477 0.42905 0.0
N137 N 0.9447 0.96641 0.51071 0.0
C138 C 0.94451 0.93165 0.51231 0.0
C139 C 0.92031 0.98449 0.51172 0.0
C140 C 0.89434 0.96756 0.51399 0.0
C141 C 0.89349 0.93156 0.51498 0.0
C142 C 0.91905 0.9137 0.51454 0.0
Zn143 Zn 0.98234 0.99164 0.50618 0.0
O144 O 0.03558 0.98609 0.44645 0.0
C145 C 0.02498 0.96474 0.57764 0.0
O146 O 0.99598 0.95695 0.45117 0.0
H147 H 0.92099 0.01215 0.51068 0.0
H148 H 0.08246 0.99805 0.49657 0.0
H149 H 0.96415 0.91777 0.51163 0.0
O150 O 0.03938 0.98851 0.55764 0.0
O151 O 0.99967 0.95967 0.5632 0.0
H152 H 0.04342 0.0951 0.49494 0.0
O153 O 0.96944 0.02672 0.56106 0.0
O154 O 0.00931 0.05524 0.5543 0.0
O155 O 0.96553 0.02407 0.44904 0.0
O156 O 0.00551 0.0525 0.44351 0.0
C157 C 0.9854 0.05137 0.57411 0.0
H158 H 0.12937 0.02466 0.49392 0.0
H159 H 0.08954 0.12396 0.49201 0.0
H160 H 0.87544 0.98277 0.51525 0.0
H161 H 0.91936 0.88599 0.51549 0.0
C162 C 0.48242 0.4516 0.93376 0.0
N163 N 0.56328 0.45245 -0.00072 0.0
C164 C 0.56274 0.4177 0.99752 0.0
C165 C 0.58783 0.39933 0.99526 0.0
C166 C 0.61376 0.41677 0.99518 0.0
C167 C 0.61368 0.45274 0.99632 0.0
C168 C 0.58808 0.47009 0.99851 0.0
Zn169 Zn 0.52617 0.47866 0.00319 0.0
C170 C 0.52396 0.53744 0.93244 0.0
N171 N 0.44855 0.53339 0.01142 0.0
C172 C 0.42366 0.51605 0.01432 0.0
C173 C 0.44931 0.56817 0.01054 0.0
C174 C 0.42438 0.58686 0.01205 0.0
C175 C 0.39832 0.56976 0.01439 0.0
C176 C 0.39818 0.53374 0.01602 0.0
Zn177 Zn 0.48562 0.50711 0.00762 0.0
O178 O 0.50794 0.44758 0.94773 0.0
C179 C 0.48824 0.44808 0.07841 0.0
O180 O 0.46769 0.47472 0.95308 0.0
H181 H 0.46931 0.5815 0.00843 0.0
H182 H 0.54279 0.40415 0.99798 0.0
H183 H 0.42354 0.48838 0.01524 0.0
O184 O 0.51203 0.44435 0.05849 0.0
O185 O 0.4724 0.47271 0.06459 0.0
H186 H 0.58804 0.49773 -0.00054 0.0
O187 O 0.50419 0.53915 0.06183 0.0
O188 O 0.54373 0.51031 0.05868 0.0
O189 O 0.49963 0.54093 0.95068 0.0
O190 O 0.53979 0.51334 0.94786 0.0
C191 C 0.52948 0.5344 0.07659 0.0
H192 H 0.58697 0.37166 0.994 0.0
H193 H 0.63295 0.4676 0.99475 0.0
H194 H 0.42549 0.61455 0.01104 0.0
H195 H 0.37888 0.51909 0.01889 0.0
H196 H 0.26426 0.20863 0.52979 0.0
C197 C 0.27824 0.18951 0.51492 0.0
H198 H 0.28042 0.13876 0.4889 0.0
H199 H 0.16654 0.09217 0.58716 0.0
H200 H 0.20035 0.06708 0.64553 0.0
H201 H 0.25107 0.08071 0.63995 0.0
H202 H 0.26824 0.11968 0.57615 0.0
C203 C 0.26711 0.15956 0.50033 0.0
C204 C 0.23645 0.15241 0.5043 0.0
C205 C 0.22686 0.12928 0.54141 0.0
C206 C 0.19772 0.12103 0.54417 0.0
C207 C 0.18857 0.0986 0.58252 0.0
C208 C 0.20772 0.08421 0.6165 0.0
C209 C 0.23627 0.09191 0.6134 0.0
C210 C 0.24585 0.11425 0.57649 0.0
H211 H 0.15947 0.075 0.48347 0.0
C212 C 0.1422 0.09162 0.49342 0.0
H213 H 0.13233 0.14123 0.51883 0.0
H214 H 0.24789 0.19771 0.42839 0.0
H215 H 0.21389 0.22357 0.37116 0.0
H216 H 0.16323 0.20963 0.37659 0.0
H217 H 0.14627 0.16959 0.43928 0.0
C218 C 0.14851 0.12355 0.50787 0.0
C219 C 0.17834 0.13539 0.50907 0.0
C220 C 0.18776 0.15952 0.47317 0.0
C221 C 0.21692 0.16786 0.47047 0.0
C222 C 0.22592 0.19097 0.43286 0.0
C223 C 0.20664 0.20588 0.39957 0.0
C224 C 0.17811 0.198 0.40259 0.0
C225 C 0.16867 0.175 0.43875 0.0
H226 H 0.22661 0.65562 0.04123 0.0
C227 C 0.23148 0.67769 0.01776 0.0
H228 H 0.26272 0.70119 0.97314 0.0
H229 H 0.34339 0.59493 0.10214 0.0
H230 H 0.33228 0.62959 0.17298 0.0
H231 H 0.29676 0.67529 0.16566 0.0
H232 H 0.27178 0.68618 0.08786 0.0
C233 C 0.25671 0.6792 0.99573 0.0
C234 C 0.27763 0.65114 0.00117 0.0
C235 C 0.29259 0.64586 0.04671 0.0
C236 C 0.31396 0.62053 0.05038 0.0
C237 C 0.32775 0.61473 0.0968 0.0
C238 C 0.32144 0.63429 0.13785 0.0
C239 C 0.30138 0.65994 0.13377 0.0
C240 C 0.28708 0.6658 0.08886 0.0
H241 H 0.37473 0.61812 0.01959 0.0
C242 C 0.37218 0.59063 0.01537 0.0
H243 H 0.34196 0.5513 0.00264 0.0
H244 H 0.25177 0.65342 0.90965 0.0
H245 H 0.26335 0.61923 0.83851 0.0
H246 H 0.30157 0.57675 0.84399 0.0
H247 H 0.32835 0.56805 0.92062 0.0
C248 C 0.34582 0.57813 0.00977 0.0
C249 C 0.32117 0.6016 0.00798 0.0
C250 C 0.30566 0.60621 0.96293 0.0
C251 C 0.28385 0.631 0.95956 0.0
C252 C 0.26874 0.63519 0.91407 0.0
C253 C 0.27513 0.61569 0.87298 0.0
C254 C 0.29662 0.59175 0.87609 0.0
C255 C 0.31182 0.587 0.92037 0.0
H256 H 0.71615 0.85207 0.50571 0.0
C257 C 0.72405 0.82731 0.51837 0.0
H258 H 0.76074 0.79871 0.53579 0.0
H259 H 0.84488 0.89533 0.42384 0.0
H260 H 0.83784 0.85166 0.36176 0.0
H261 H 0.80062 0.80778 0.37118 0.0
H262 H 0.7701 0.80746 0.44256 0.0
C263 C 0.75184 0.8237 0.52745 0.0
C264 C 0.7721 0.85225 0.51964 0.0
C265 C 0.78984 0.85189 0.4779 0.0
C266 C 0.81152 0.87684 0.47282 0.0
C267 C 0.82856 0.87639 0.43018 0.0
C268 C 0.82461 0.85162 0.39409 0.0
C269 C 0.80364 0.82694 0.39937 0.0
C270 C 0.78635 0.82698 0.44063 0.0
H271 H 0.86854 0.88401 0.52322 0.0
C272 C 0.86681 0.91147 0.51663 0.0
H273 H 0.83751 0.95158 0.50203 0.0
H274 H 0.74073 0.86117 0.60282 0.0
H275 H 0.74692 0.90593 0.66349 0.0
H276 H 0.78449 0.9494 0.65441 0.0
H277 H 0.81618 0.9483 0.58464 0.0
C278 C 0.84089 0.92451 0.50873 0.0
C279 C 0.81574 0.90165 0.51005 0.0
C280 C 0.79696 0.90327 0.55024 0.0
C281 C 0.77516 0.87837 0.55524 0.0
C282 C 0.75739 0.87971 0.59683 0.0
C283 C 0.76077 0.90521 0.63201 0.0
C284 C 0.78193 0.92968 0.62692 0.0
C285 C 0.79996 0.92877 0.5867 0.0
H286 H 0.79267 0.36682 0.01972 0.0
C287 C 0.79243 0.34116 0.00465 0.0
H288 H 0.76577 0.30151 0.9779 0.0
H289 H 0.65831 0.36509 0.07853 0.0
H290 H 0.667 0.31608 0.1328 0.0
H291 H 0.70956 0.28094 0.12377 0.0
H292 H 0.74379 0.29474 0.06051 0.0
C293 C 0.76751 0.32779 0.98995 0.0
C294 C 0.7411 0.3479 0.9933 0.0
C295 C 0.72101 0.33902 0.02969 0.0
C296 C 0.69627 0.35901 0.03444 0.0
C297 C 0.6771 0.35034 0.07242 0.0
C298 C 0.68192 0.32237 0.10406 0.0
C299 C 0.7059 0.30261 0.09901 0.0
C300 C 0.72534 0.31078 0.06247 0.0
H301 H 0.63854 0.37034 0.98026 0.0
C302 C 0.64018 0.39662 0.99272 0.0
H303 H 0.66846 0.43445 0.02003 0.0
H304 H 0.77408 0.36997 0.91647 0.0
H305 H 0.76531 0.41883 0.86195 0.0
H306 H 0.72276 0.454 0.87097 0.0
H307 H 0.68864 0.44038 0.93444 0.0
C308 C 0.66571 0.40862 0.00668 0.0
C309 C 0.69147 0.38747 0.00212 0.0
C310 C 0.71145 0.39616 0.96545 0.0
C311 C 0.73618 0.37618 0.9607 0.0
C312 C 0.7553 0.38476 0.92259 0.0
C313 C 0.75044 0.41263 0.8908 0.0
C314 C 0.72647 0.4324 0.89584 0.0
C315 C 0.70708 0.42433 0.93253 0.0
H316 H 0.05741 0.81076 0.19595 0.0
C317 C 0.0781 0.82291 0.19598 0.0
H318 H 0.10296 0.86285 0.22605 0.0
H319 H 0.00426 0.95208 0.29983 0.0
H320 H 0.01132 0.97915 0.21914 0.0
H321 H 0.04138 0.95228 0.15712 0.0
H322 H 0.0645 0.89814 0.17533 0.0
C323 C 0.08352 0.84816 0.22812 0.0
C324 C 0.06184 0.861 0.26213 0.0
C325 C 0.04841 0.89249 0.25074 0.0
C326 C 0.03135 0.90815 0.2866 0.0
C327 C 0.01797 0.9395 0.27422 0.0
C328 C 0.02168 0.95517 0.22797 0.0
C329 C 0.0386 0.94003 0.19305 0.0
C330 C 0.05183 0.90904 0.20405 0.0
H331 H 0.0509 0.94577 0.3775 0.0
C332 C 0.03051 0.93928 0.39309 0.0
H333 H 0.99602 0.9046 0.39065 0.0
H334 H 0.08215 0.79883 0.29361 0.0
H335 H 0.07357 0.77087 0.37315 0.0
H336 H 0.04388 0.79814 0.43538 0.0
H337 H 0.02259 0.85362 0.41845 0.0
C338 C 0.01606 0.91245 0.37508 0.0
C339 C 0.02822 0.89257 0.33407 0.0
C340 C 0.03967 0.85974 0.34392 0.0
C341 C 0.05666 0.84395 0.30792 0.0
C342 C 0.06888 0.81181 0.31947 0.0
C343 C 0.06415 0.79552 0.36499 0.0
C344 C 0.04744 0.81089 0.40005 0.0
C345 C 0.03538 0.8427 0.38992 0.0
H346 H 0.54281 0.66669 0.66765 0.0
C347 C 0.56443 0.67408 0.67664 0.0
H348 H 0.59688 0.67199 0.73156 0.0
H349 H 0.51981 0.64448 0.91604 0.0
H350 H 0.5327 0.7038 0.92985 0.0
H351 H 0.55701 0.7377 0.86528 0.0
H352 H 0.56881 0.71239 0.78662 0.0
C353 C 0.57508 0.66612 0.72187 0.0
C354 C 0.55834 0.64648 0.75885 0.0
C355 C 0.55114 0.66184 0.80414 0.0
C356 C 0.53683 0.64244 0.84112 0.0
C357 C 0.5305 0.65814 0.88656 0.0
C358 C 0.53777 0.69217 0.89495 0.0
C359 C 0.55147 0.71125 0.8586 0.0
C360 C 0.55815 0.6964 0.81366 0.0
H361 H 0.55485 0.55581 0.87828 0.0
C362 C 0.53401 0.56049 0.89289 0.0
H363 H 0.49788 0.59199 0.88841 0.0
H364 H 0.5712 0.60759 0.67793 0.0
H365 H 0.55562 0.54968 0.66239 0.0
H366 H 0.52656 0.51819 0.72313 0.0
H367 H 0.51362 0.54435 0.80045 0.0
C368 C 0.51842 0.58615 0.87357 0.0
C369 C 0.52967 0.60779 0.83252 0.0
C370 C 0.53539 0.593 0.78609 0.0
C371 C 0.55062 0.61192 0.74985 0.0
C372 C 0.55832 0.59529 0.70575 0.0
C373 C 0.54973 0.56182 0.69648 0.0
C374 C 0.5335 0.54404 0.73075 0.0
C375 C 0.52639 0.55929 0.77513 0.0
H376 H 0.9674 0.20194 0.19266 0.0
C377 C 0.94586 0.19722 0.17984 0.0
H378 H 0.90995 0.16548 0.18978 0.0
H379 H 0.98105 0.04813 0.29606 0.0
H380 H 0.97013 0.02248 0.21669 0.0
H381 H 0.94687 0.05591 0.14939 0.0
H382 H 0.93443 0.11526 0.16108 0.0
C383 C 0.93071 0.17295 0.20342 0.0
C384 C 0.94335 0.15254 0.24518 0.0
C385 C 0.94995 0.11766 0.23806 0.0
C386 C 0.96303 0.09825 0.27708 0.0
C387 C 0.9704 0.06384 0.26825 0.0
C388 C 0.96445 0.04884 0.22268 0.0
C389 C 0.95137 0.06767 0.18478 0.0
C390 C 0.94427 0.10171 0.19207 0.0
H391 H 0.94597 0.06319 0.37706 0.0
C392 C 0.96761 0.06864 0.38854 0.0
H393 H 0.00351 0.09984 0.3766 0.0
H394 H 0.93131 0.21798 0.27252 0.0
H395 H 0.9421 0.24362 0.35205 0.0
H396 H 0.96539 0.21017 0.41934 0.0
H397 H 0.97791 0.15082 0.40756 0.0
C398 C 0.98213 0.09335 0.36483 0.0
C399 C 0.96898 0.11363 0.32348 0.0
C400 C 0.96232 0.14847 0.33064 0.0
C401 C 0.94926 0.16788 0.29161 0.0
C402 C 0.94192 0.20229 0.30041 0.0
C403 C 0.94782 0.21727 0.34603 0.0
C404 C 0.9609 0.19843 0.38393 0.0
C405 C 0.96803 0.16439 0.37663 0.0
H406 H 0.45561 0.29024 0.71754 0.0
C407 C 0.44206 0.30435 0.69154 0.0
H408 H 0.42161 0.35182 0.67787 0.0
H409 H 0.45293 0.3639 0.91701 0.0
H410 H 0.4165 0.32081 0.92868 0.0
H411 H 0.39366 0.29306 0.85672 0.0
H412 H 0.40734 0.30794 0.7727 0.0
C413 C 0.43538 0.33677 0.70207 0.0
C414 C 0.44817 0.35415 0.74563 0.0
C415 C 0.43944 0.34562 0.79437 0.0
C416 C 0.45199 0.36235 0.83576 0.0
C417 C 0.44356 0.35264 0.88417 0.0
C418 C 0.42276 0.32783 0.89142 0.0
C419 C 0.40995 0.31215 0.85091 0.0
C420 C 0.41809 0.32084 0.80287 0.0
H421 H 0.44802 0.43453 0.88371 0.0
C422 C 0.46994 0.43029 0.8945 0.0
H423 H 0.50725 0.4032 0.87978 0.0
H424 H 0.4697 0.37627 0.65697 0.0
H425 H 0.50544 0.4202 0.64525 0.0
H426 H 0.52654 0.45004 0.71698 0.0
H427 H 0.51209 0.4361 0.80086 0.0
C428 C 0.48503 0.40687 0.87081 0.0
C429 C 0.47269 0.38812 0.82811 0.0
C430 C 0.48143 0.3966 0.77939 0.0
C431 C 0.46911 0.37963 0.73807 0.0
C432 C 0.47822 0.38855 0.68973 0.0
C433 C 0.49874 0.4137 0.68246 0.0
C434 C 0.51063 0.43049 0.72283 0.0
C435 C 0.50216 0.42218 0.77081 0.0
H436 H 0.56245 0.67738 0.31976 0.0
C437 C 0.58519 0.67464 0.31718 0.0
H438 H 0.61806 0.657 0.27192 0.0
H439 H 0.52137 0.54537 0.20931 0.0
H440 H 0.53011 0.52137 0.29173 0.0
H441 H 0.5609 0.55135 0.35188 0.0
H442 H 0.5827 0.60565 0.33031 0.0
C443 C 0.59555 0.65876 0.27766 0.0
C444 C 0.57658 0.64108 0.24185 0.0
C445 C 0.56458 0.60891 0.25494 0.0
C446 C 0.5477 0.59101 0.21975 0.0
C447 C 0.53513 0.55949 0.23414 0.0
C448 C 0.53984 0.54552 0.28142 0.0
C449 C 0.5571 0.56245 0.31532 0.0
C450 C 0.5694 0.59373 0.30246 0.0
H451 H 0.56334 0.54934 0.12884 0.0
C452 C 0.54248 0.55619 0.11468 0.0
H453 H 0.50925 0.59201 0.11748 0.0
H454 H 0.5952 0.70291 0.20633 0.0
H455 H 0.5864 0.7268 0.12366 0.0
H456 H 0.55799 0.69505 0.06189 0.0
H457 H 0.5381 0.63929 0.0824 0.0
C458 C 0.52962 0.58385 0.13232 0.0
C459 C 0.54377 0.60471 0.17111 0.0
C460 C 0.55493 0.63735 0.1586 0.0
C461 C 0.57144 0.65555 0.19406 0.0
C462 C 0.58263 0.68796 0.18059 0.0
C463 C 0.57771 0.70196 0.13334 0.0
C464 C 0.5617 0.68409 0.09857 0.0
C465 C 0.55043 0.65211 0.1108 0.0
H466 H 0.90284 0.14774 0.82798 0.0
C467 C 0.9165 0.17016 0.82631 0.0
H468 H 0.95067 0.19354 0.7889 0.0
H469 H 0.96503 0.03454 0.71517 0.0
H470 H 0.97646 0.02095 0.80142 0.0
H471 H 0.97128 0.06415 0.86625 0.0
H472 H 0.95459 0.12112 0.84542 0.0
C473 C 0.93625 0.17195 0.79113 0.0
C474 C 0.93869 0.14521 0.75283 0.0
C475 C 0.94863 0.11202 0.76585 0.0
C476 C 0.95214 0.08727 0.72837 0.0
C477 C 0.96213 0.05434 0.74218 0.0
C478 C 0.96876 0.04619 0.79152 0.0
C479 C 0.96582 0.07052 0.82803 0.0
C480 C 0.95601 0.10311 0.81556 0.0
H481 H 0.99047 0.09743 0.61935 0.0
C482 C 0.97674 0.07562 0.61208 0.0
H483 H 0.93966 0.04923 0.63339 0.0
H484 H 0.91844 0.20602 0.71555 0.0
H485 H 0.90755 0.21958 0.62912 0.0
H486 H 0.91392 0.17665 0.56421 0.0
H487 H 0.93124 0.11987 0.58535 0.0
C488 C 0.95321 0.07144 0.6385 0.0
C489 C 0.94645 0.09604 0.67797 0.0
C490 C 0.93603 0.12894 0.66506 0.0
C491 C 0.93225 0.1536 0.70252 0.0
C492 C 0.92188 0.18634 0.68856 0.0
C493 C 0.91547 0.19444 0.6391 0.0
C494 C 0.91907 0.17028 0.60255 0.0
C495 C 0.92915 0.13784 0.61516 0.0
H496 H 0.40248 0.34613 0.32743 0.0
C497 C 0.41869 0.32676 0.33252 0.0
H498 H 0.45599 0.30672 0.30237 0.0
H499 H 0.43759 0.37582 0.09144 0.0
H500 H 0.42487 0.31704 0.07338 0.0
H501 H 0.42001 0.27415 0.14095 0.0
H502 H 0.42778 0.28979 0.22695 0.0
C503 C 0.44043 0.32695 0.30122 0.0
C504 C 0.44261 0.35316 0.26094 0.0
C505 C 0.43816 0.34348 0.21094 0.0
C506 C 0.4412 0.36809 0.172 0.0
C507 C 0.43612 0.35795 0.12238 0.0
C508 C 0.42864 0.32435 0.11153 0.0
C509 C 0.42589 0.30021 0.14957 0.0
C510 C 0.43048 0.30952 0.19877 0.0
H511 H 0.49363 0.40245 0.12624 0.0
C512 C 0.47959 0.42366 0.11735 0.0
H513 H 0.44173 0.44848 0.13573 0.0
H514 H 0.45361 0.38004 0.35283 0.0
H515 H 0.46577 0.43894 0.3706 0.0
H516 H 0.47016 0.48182 0.30292 0.0
H517 H 0.46243 0.46596 0.21701 0.0
C518 C 0.45564 0.42686 0.14253 0.0
C519 C 0.44904 0.40218 0.18318 0.0
C520 C 0.45266 0.41214 0.2332 0.0
C521 C 0.44973 0.38752 0.27221 0.0
C522 C 0.45484 0.39781 0.32176 0.0
C523 C 0.46201 0.43153 0.33249 0.0
C524 C 0.46451 0.45567 0.2944 0.0
C525 C 0.46001 0.44622 0.24525 0.0
H526 H 0.0737 0.81986 0.82151 0.0
C527 C 0.08578 0.84026 0.83899 0.0
H528 H 0.09751 0.89259 0.83319 0.0
H529 H 0.05715 0.87799 0.602 0.0
H530 H 0.0985 0.84232 0.5937 0.0
H531 H 0.12633 0.8239 0.66754 0.0
H532 H 0.11283 0.84064 0.75006 0.0
C533 C 0.08526 0.87166 0.81785 0.0
C534 C 0.06732 0.87976 0.77351 0.0
C535 C 0.07578 0.86999 0.72559 0.0
C536 C 0.06025 0.88144 0.68291 0.0
C537 C 0.06872 0.87079 0.6355 0.0
C538 C 0.09229 0.85018 0.63025 0.0
C539 C 0.10792 0.83974 0.67184 0.0
C540 C 0.0999 0.84949 0.71903 0.0
H541 H 0.05952 0.94997 0.62891 0.0
C542 C 0.03779 0.94425 0.61832 0.0
H543 H 0.00145 0.915 0.63525 0.0
H544 H 0.04405 0.90021 0.86024 0.0
H545 H 0.00234 0.93526 0.86842 0.0
H546 H 0.97587 0.95589 0.79429 0.0
H547 H 0.99097 0.94183 0.71157 0.0
C548 C 0.02351 0.92022 0.64389 0.0
C549 C 0.03682 0.90335 0.68824 0.0
C550 C 0.02745 0.9115 0.73625 0.0
C551 C 0.04279 0.89975 0.77895 0.0
C552 C 0.03328 0.9087 0.82653 0.0
C553 C 0.00935 0.92873 0.83176 0.0
C554 C 0.99445 0.94037 0.79002 0.0
C555 C 0.00334 0.93205 0.74274 0.0
loop_
_geom_bond_atom_site_label_1
_geom_bond_atom_site_label_2
_geom_bond_distance
_geom_bond_site_symmetry_2
_ccdc_geom_bond_type
P0 O11 1.490 . S
P0 C14 1.812 . S
P0 C20 1.803 . S
P0 C26 1.819 1_554 S
H1 C15 0.941 . S
H2 C16 0.939 . S
H3 C18 0.940 . S
H4 C19 0.940 . S
H5 C21 0.939 . S
H6 C22 0.942 . S
H7 C24 0.940 . S
H8 C25 0.939 . S
H9 C27 0.941 . S
H10 C31 0.939 . S
O11 P0 1.490 . S
H12 C28 0.939 . S
H13 C30 0.940 . S
C14 P0 1.812 . S
C14 C15 1.389 . S
C14 C19 1.391 . S
C15 H1 0.941 . S
C15 C14 1.389 . S
C15 C16 1.397 . S
C16 H2 0.939 . S
C16 C15 1.397 . S
C16 C17 1.378 . S
C17 C16 1.378 . S
C17 C18 1.378 . S
C18 H3 0.940 . S
C18 C17 1.378 . S
C18 C19 1.396 . S
C19 H4 0.940 . S
C19 C14 1.391 . S
C19 C18 1.396 . S
C20 P0 1.803 . S
C20 C21 1.378 1_554 S
C20 C25 1.400 . S
C21 H5 0.939 . S
C21 C20 1.378 1_556 S
C21 C22 1.361 . S
C22 H6 0.942 . S
C22 C21 1.361 . S
C22 C23 1.369 1_556 S
C23 C22 1.369 1_554 S
C23 C24 1.404 . S
C24 H7 0.940 . S
C24 C23 1.404 . S
C24 C25 1.389 . S
C25 H8 0.939 . S
C25 C20 1.400 . S
C25 C24 1.389 . S
C26 P0 1.819 1_556 S
C26 C27 1.391 . S
C26 C31 1.391 . S
C27 H9 0.941 . S
C27 C26 1.391 . S
C27 C28 1.396 . S
C28 H12 0.939 . S
C28 C27 1.396 . S
C28 C29 1.397 . S
C29 C28 1.397 . S
C29 C30 1.385 . S
C30 H13 0.940 . S
C30 C29 1.385 . S
C30 C31 1.388 . S
C31 H10 0.939 . S
C31 C26 1.391 . S
C31 C30 1.388 . S
P32 O43 1.490 . S
P32 C46 1.812 . S
P32 C52 1.803 . S
P32 C58 1.819 . S
H33 C47 0.941 . S
H34 C48 0.939 . S
H35 C50 0.940 . S
H36 C51 0.940 . S
H37 C53 0.939 . S
H38 C54 0.942 . S
H39 C56 0.940 . S
H40 C57 0.939 . S
H41 C59 0.941 . S
H42 C63 0.939 . S
O43 P32 1.490 . S
H44 C60 0.939 . S
H45 C62 0.940 . S
C46 P32 1.812 . S
C46 C47 1.389 . S
C46 C51 1.391 . S
C47 H33 0.941 . S
C47 C46 1.389 . S
C47 C48 1.397 . S
C48 H34 0.939 . S
C48 C47 1.397 . S
C48 C49 1.378 . S
C49 C48 1.378 . S
C49 C50 1.378 . S
C50 H35 0.940 . S
C50 C49 1.378 . S
C50 C51 1.396 . S
C51 H36 0.940 . S
C51 C46 1.391 . S
C51 C50 1.396 . S
C52 P32 1.803 . S
C52 C53 1.378 . S
C52 C57 1.400 . S
C53 H37 0.939 . S
C53 C52 1.378 . S
C53 C54 1.361 . S
C54 H38 0.942 . S
C54 C53 1.361 . S
C54 C55 1.369 . S
C55 C54 1.369 . S
C55 C56 1.404 . S
C56 H39 0.940 . S
C56 C55 1.404 . S
C56 C57 1.389 . S
C57 H40 0.939 . S
C57 C52 1.400 . S
C57 C56 1.389 . S
C58 P32 1.819 . S
C58 C59 1.391 . S
C58 C63 1.391 . S
C59 H41 0.941 . S
C59 C58 1.391 . S
C59 C60 1.396 . S
C60 H44 0.939 . S
C60 C59 1.396 . S
C60 C61 1.397 . S
C61 C60 1.397 . S
C61 C62 1.385 . S
C62 H45 0.940 . S
C62 C61 1.385 . S
C62 C63 1.388 . S
C63 H42 0.939 . S
C63 C58 1.391 . S
C63 C62 1.388 . S
P64 O75 1.490 . S
P64 C78 1.812 . S
P64 C84 1.803 . S
P64 C90 1.819 1_556 S
H65 C79 0.941 . S
H66 C80 0.939 . S
H67 C82 0.940 . S
H68 C83 0.940 . S
H69 C85 0.939 . S
H70 C86 0.942 . S
H71 C88 0.940 . S
H72 C89 0.939 . S
H73 C91 0.941 . S
H74 C95 0.939 . S
O75 P64 1.490 . S
H76 C92 0.939 . S
H77 C94 0.940 . S
C78 P64 1.812 . S
C78 C79 1.389 . S
C78 C83 1.391 . S
C79 H65 0.941 . S
C79 C78 1.389 . S
C79 C80 1.397 . S
C80 H66 0.939 . S
C80 C79 1.397 . S
C80 C81 1.378 . S
C81 C80 1.378 . S
C81 C82 1.378 . S
C82 H67 0.940 . S
C82 C81 1.378 . S
C82 C83 1.396 . S
C83 H68 0.940 . S
C83 C78 1.391 . S
C83 C82 1.396 . S
C84 P64 1.803 . S
C84 C85 1.378 1_556 S
C84 C89 1.400 . S
C85 H69 0.939 . S
C85 C84 1.378 1_554 S
C85 C86 1.361 . S
C86 H70 0.942 . S
C86 C85 1.361 . S
C86 C87 1.369 . S
C87 C86 1.369 . S
C87 C88 1.404 1_554 S
C88 H71 0.940 . S
C88 C87 1.404 1_556 S
C88 C89 1.389 . S
C89 H72 0.939 . S
C89 C84 1.400 . S
C89 C88 1.389 . S
C90 P64 1.819 1_554 S
C90 C91 1.391 . S
C90 C95 1.391 . S
C91 H73 0.941 . S
C91 C90 1.391 . S
C91 C92 1.396 . S
C92 H76 0.939 . S
C92 C91 1.396 . S
C92 C93 1.397 . S
C93 C92 1.397 . S
C93 C94 1.385 . S
C94 H77 0.940 . S
C94 C93 1.385 . S
C94 C95 1.388 . S
C95 H74 0.939 . S
C95 C90 1.391 . S
C95 C94 1.388 . S
P96 O107 1.490 . S
P96 C110 1.812 . S
P96 C116 1.803 . S
P96 C122 1.819 . S
H97 C111 0.941 . S
H98 C112 0.939 . S
H99 C114 0.940 . S
H100 C115 0.940 . S
H101 C117 0.939 . S
H102 C118 0.942 . S
H103 C120 0.940 . S
H104 C121 0.939 . S
H105 C123 0.941 . S
H106 C127 0.939 . S
O107 P96 1.490 . S
H108 C124 0.939 . S
H109 C126 0.940 . S
C110 P96 1.812 . S
C110 C111 1.389 . S
C110 C115 1.391 . S
C111 H97 0.941 . S
C111 C110 1.389 . S
C111 C112 1.397 . S
C112 H98 0.939 . S
C112 C111 1.397 . S
C112 C113 1.378 . S
C113 C112 1.378 . S
C113 C114 1.378 . S
C114 H99 0.940 . S
C114 C113 1.378 . S
C114 C115 1.396 . S
C115 H100 0.940 . S
C115 C110 1.391 . S
C115 C114 1.396 . S
C116 P96 1.803 . S
C116 C117 1.378 . S
C116 C121 1.400 . S
C117 H101 0.939 . S
C117 C116 1.378 . S
C117 C118 1.361 . S
C118 H102 0.942 . S
C118 C117 1.361 . S
C118 C119 1.369 . S
C119 C118 1.369 . S
C119 C120 1.404 . S
C120 H103 0.940 . S
C120 C119 1.404 . S
C120 C121 1.389 . S
C121 H104 0.939 . S
C121 C116 1.400 . S
C121 C120 1.389 . S
C122 P96 1.819 . S
C122 C123 1.391 . S
C122 C127 1.391 . S
C123 H105 0.941 . S
C123 C122 1.391 . S
C123 C124 1.396 . S
C124 H108 0.939 . S
C124 C123 1.396 . S
C124 C125 1.397 . S
C125 C124 1.397 . S
C125 C126 1.385 . S
C126 H109 0.940 . S
C126 C125 1.385 . S
C126 C127 1.388 . S
C127 H106 0.939 . S
C127 C122 1.391 . S
C127 C126 1.388 . S
C128 O144 1.251 . S
C128 O146 1.254 1_455 S
N129 C130 1.333 . S
N129 C134 1.307 . S
N129 Zn135 2.020 . S
C130 N129 1.333 . S
C130 C131 1.379 . S
C130 H148 0.952 . S
C131 C130 1.379 . S
C131 C132 1.390 . S
C131 H158 0.949 . S
C132 C131 1.390 . S
C132 C133 1.357 . S
C133 C132 1.357 . S
C133 C134 1.370 . S
C133 H159 0.950 . S
C134 N129 1.307 . S
C134 C133 1.370 . S
C134 H152 0.948 . S
Zn135 N129 2.020 . S
Zn135 O144 2.039 1_545 S
Zn135 O150 2.034 1_545 S
Zn135 O154 2.025 . S
Zn135 O156 2.024 . S
C136 O155 1.246 . S
C136 O156 1.249 1_655 S
N137 C138 1.307 . S
N137 C139 1.333 . S
N137 Zn143 2.020 . S
C138 N137 1.307 . S
C138 C142 1.370 . S
C138 H149 0.948 . S
C139 N137 1.333 . S
C139 C140 1.379 . S
C139 H147 0.952 . S
C140 C139 1.379 . S
C140 C141 1.390 . S
C140 H160 0.949 . S
C141 C140 1.390 . S
C141 C142 1.357 . S
C142 C138 1.370 . S
C142 C141 1.357 . S
C142 H161 0.950 . S
Zn143 N137 2.020 . S
Zn143 O146 2.025 . S
Zn143 O151 2.024 . S
Zn143 O153 2.039 1_565 S
Zn143 O155 2.034 1_565 S
O144 C128 1.251 . S
O144 Zn135 2.039 1_565 S
C145 O150 1.246 . S
C145 O151 1.249 1_455 S
O146 C128 1.254 1_655 S
O146 Zn143 2.025 . S
H147 C139 0.952 . S
H148 C130 0.952 . S
H149 C138 0.948 . S
O150 Zn135 2.034 1_565 S
O150 C145 1.246 . S
O151 Zn143 2.024 . S
O151 C145 1.249 1_655 S
H152 C134 0.948 . S
O153 Zn143 2.039 1_545 S
O153 C157 1.251 . S
O154 Zn135 2.025 . S
O154 C157 1.254 1_455 S
O155 C136 1.246 . S
O155 Zn143 2.034 1_545 S
O156 Zn135 2.024 . S
O156 C136 1.249 1_455 S
C157 O153 1.251 . S
C157 O154 1.254 1_655 S
H158 C131 0.949 . S
H159 C133 0.950 . S
H160 C140 0.949 . S
H161 C142 0.950 . S
C162 O178 1.251 . S
C162 O180 1.254 . S
N163 C164 1.333 1_554 S
N163 C168 1.307 . S
N163 Zn169 2.020 . S
C164 N163 1.333 1_556 S
C164 C165 1.379 . S
C164 H182 0.952 . S
C165 C164 1.379 . S
C165 C166 1.390 1_556 S
C165 H192 0.949 . S
C166 C165 1.390 1_554 S
C166 C167 1.357 . S
C167 C166 1.357 . S
C167 C168 1.370 . S
C167 H193 0.950 . S
C168 N163 1.307 . S
C168 C167 1.370 . S
C168 H186 0.948 . S
Zn169 N163 2.020 . S
Zn169 O178 2.039 1_554 S
Zn169 O184 2.034 . S
Zn169 O188 2.025 . S
Zn169 O190 2.024 1_554 S
C170 O189 1.246 . S
C170 O190 1.249 . S
N171 C172 1.307 1_554 S
N171 C173 1.333 . S
N171 Zn177 2.020 . S
C172 N171 1.307 1_556 S
C172 C176 1.370 . S
C172 H183 0.948 . S
C173 N171 1.333 . S
C173 C174 1.379 . S
C173 H181 0.952 . S
C174 C173 1.379 . S
C174 C175 1.390 . S
C174 H194 0.949 . S
C175 C174 1.390 . S
C175 C176 1.357 1_554 S
C176 C172 1.370 . S
C176 C175 1.357 1_556 S
C176 H195 0.950 . S
Zn177 N171 2.020 . S
Zn177 O180 2.025 1_554 S
Zn177 O185 2.024 . S
Zn177 O187 2.039 . S
Zn177 O189 2.034 1_554 S
O178 C162 1.251 . S
O178 Zn169 2.039 1_556 S
C179 O184 1.246 . S
C179 O185 1.249 . S
O180 C162 1.254 . S
O180 Zn177 2.025 1_556 S
H181 C173 0.952 . S
H182 C164 0.952 . S
H183 C172 0.948 . S
O184 Zn169 2.034 . S
O184 C179 1.246 . S
O185 Zn177 2.024 . S
O185 C179 1.249 . S
H186 C168 0.948 . S
O187 Zn177 2.039 . S
O187 C191 1.251 . S
O188 Zn169 2.025 . S
O188 C191 1.254 . S
O189 C170 1.246 . S
O189 Zn177 2.034 1_556 S
O190 Zn169 2.024 1_556 S
O190 C170 1.249 . S
C191 O187 1.251 . S
C191 O188 1.254 . S
H192 C165 0.949 . S
H193 C167 0.950 . S
H194 C174 0.949 . S
H195 C176 0.950 . S
H196 C197 0.951 . S
C197 H196 0.951 . S
C197 C203 1.265 . S
H198 C203 0.950 . S
H199 C207 0.949 . S
H200 C208 0.950 . S
H201 C209 0.951 . S
H202 C210 0.951 . S
C203 C197 1.265 . S
C203 H198 0.950 . S
C203 C204 1.478 . S
C204 C203 1.478 . S
C204 C205 1.397 . S
C204 C221 1.394 . S
C205 C204 1.397 . S
C205 C206 1.438 . S
C205 C210 1.429 . S
C206 C205 1.438 . S
C206 C207 1.428 . S
C206 C219 1.394 . S
C207 H199 0.949 . S
C207 C206 1.428 . S
C207 C208 1.345 . S
C208 H200 0.950 . S
C208 C207 1.345 . S
C208 C209 1.424 . S
C209 H201 0.951 . S
C209 C208 1.424 . S
C209 C210 1.347 . S
C210 H202 0.951 . S
C210 C205 1.429 . S
C210 C209 1.347 . S
H211 C212 0.951 . S
C212 H211 0.951 . S
C212 C218 1.265 . S
H213 C218 0.950 . S
H214 C222 0.949 . S
H215 C223 0.950 . S
H216 C224 0.951 . S
H217 C225 0.951 . S
C218 C212 1.265 . S
C218 H213 0.950 . S
C218 C219 1.478 . S
C219 C206 1.394 . S
C219 C218 1.478 . S
C219 C220 1.397 . S
C220 C219 1.397 . S
C220 C221 1.438 . S
C220 C225 1.429 . S
C221 C204 1.394 . S
C221 C220 1.438 . S
C221 C222 1.428 . S
C222 H214 0.949 . S
C222 C221 1.428 . S
C222 C223 1.345 . S
C223 H215 0.950 . S
C223 C222 1.345 . S
C223 C224 1.424 . S
C224 H216 0.951 . S
C224 C223 1.424 . S
C224 C225 1.347 . S
C225 H217 0.951 . S
C225 C220 1.429 . S
C225 C224 1.347 . S
H226 C227 0.951 . S
C227 H226 0.951 . S
C227 C233 1.265 . S
H228 C233 0.950 . S
H229 C237 0.949 . S
H230 C238 0.950 . S
H231 C239 0.951 . S
H232 C240 0.951 . S
C233 C227 1.265 . S
C233 H228 0.950 . S
C233 C234 1.478 . S
C234 C233 1.478 . S
C234 C235 1.397 . S
C234 C251 1.394 1_554 S
C235 C234 1.397 . S
C235 C236 1.438 . S
C235 C240 1.429 . S
C236 C235 1.438 . S
C236 C237 1.428 . S
C236 C249 1.394 . S
C237 H229 0.949 . S
C237 C236 1.428 . S
C237 C238 1.345 . S
C238 H230 0.950 . S
C238 C237 1.345 . S
C238 C239 1.424 . S
C239 H231 0.951 . S
C239 C238 1.424 . S
C239 C240 1.347 . S
C240 H232 0.951 . S
C240 C235 1.429 . S
C240 C239 1.347 . S
H241 C242 0.951 . S
C242 H241 0.951 . S
C242 C248 1.265 . S
H243 C248 0.950 . S
H244 C252 0.949 . S
H245 C253 0.950 . S
H246 C254 0.951 . S
H247 C255 0.951 . S
C248 C242 1.265 . S
C248 H243 0.950 . S
C248 C249 1.478 . S
C249 C236 1.394 . S
C249 C248 1.478 . S
C249 C250 1.397 1_554 S
C250 C249 1.397 1_556 S
C250 C251 1.438 . S
C250 C255 1.429 . S
C251 C234 1.394 1_556 S
C251 C250 1.438 . S
C251 C252 1.428 . S
C252 H244 0.949 . S
C252 C251 1.428 . S
C252 C253 1.345 . S
C253 H245 0.950 . S
C253 C252 1.345 . S
C253 C254 1.424 . S
C254 H246 0.951 . S
C254 C253 1.424 . S
C254 C255 1.347 . S
C255 H247 0.951 . S
C255 C250 1.429 . S
C255 C254 1.347 . S
H256 C257 0.951 . S
C257 H256 0.951 . S
C257 C263 1.265 . S
H258 C263 0.950 . S
H259 C267 0.949 . S
H260 C268 0.950 . S
H261 C269 0.951 . S
H262 C270 0.951 . S
C263 C257 1.265 . S
C263 H258 0.950 . S
C263 C264 1.478 . S
C264 C263 1.478 . S
C264 C265 1.397 . S
C264 C281 1.394 . S
C265 C264 1.397 . S
C265 C266 1.438 . S
C265 C270 1.429 . S
C266 C265 1.438 . S
C266 C267 1.428 . S
C266 C279 1.394 . S
C267 H259 0.949 . S
C267 C266 1.428 . S
C267 C268 1.345 . S
C268 H260 0.950 . S
C268 C267 1.345 . S
C268 C269 1.424 . S
C269 H261 0.951 . S
C269 C268 1.424 . S
C269 C270 1.347 . S
C270 H262 0.951 . S
C270 C265 1.429 . S
C270 C269 1.347 . S
H271 C272 0.951 . S
C272 H271 0.951 . S
C272 C278 1.265 . S
H273 C278 0.950 . S
H274 C282 0.949 . S
H275 C283 0.950 . S
H276 C284 0.951 . S
H277 C285 0.951 . S
C278 C272 1.265 . S
C278 H273 0.950 . S
C278 C279 1.478 . S
C279 C266 1.394 . S
C279 C278 1.478 . S
C279 C280 1.397 . S
C280 C279 1.397 . S
C280 C281 1.438 . S
C280 C285 1.429 . S
C281 C264 1.394 . S
C281 C280 1.438 . S
C281 C282 1.428 . S
C282 H274 0.949 . S
C282 C281 1.428 . S
C282 C283 1.345 . S
C283 H275 0.950 . S
C283 C282 1.345 . S
C283 C284 1.424 . S
C284 H276 0.951 . S
C284 C283 1.424 . S
C284 C285 1.347 . S
C285 H277 0.951 . S
C285 C280 1.429 . S
C285 C284 1.347 . S
H286 C287 0.950 1_556 S
C287 H286 0.950 1_554 S
C287 C293 1.265 . S
H288 C293 0.950 . S
H289 C297 0.949 . S
H290 C298 0.950 . S
H291 C299 0.951 . S
H292 C300 0.951 . S
C293 C287 1.265 . S
C293 H288 0.950 . S
C293 C294 1.478 . S
C294 C293 1.478 . S
C294 C295 1.397 . S
C294 C311 1.394 1_554 S
C295 C294 1.397 . S
C295 C296 1.438 . S
C295 C300 1.429 . S
C296 C295 1.438 . S
C296 C297 1.428 . S
C296 C309 1.394 . S
C297 H289 0.949 . S
C297 C296 1.428 . S
C297 C298 1.345 . S
C298 H290 0.950 . S
C298 C297 1.345 . S
C298 C299 1.424 . S
C299 H291 0.951 . S
C299 C298 1.424 . S
C299 C300 1.347 . S
C300 H292 0.951 . S
C300 C295 1.429 . S
C300 C299 1.347 . S
H301 C302 0.951 . S
C302 H301 0.951 . S
C302 C308 1.265 . S
H303 C308 0.950 1_556 S
H304 C312 0.949 . S
H305 C313 0.950 . S
H306 C314 0.951 . S
H307 C315 0.951 . S
C308 C302 1.265 . S
C308 H303 0.950 1_554 S
C308 C309 1.478 . S
C309 C296 1.394 . S
C309 C308 1.478 . S
C309 C310 1.397 1_554 S
C310 C309 1.397 1_556 S
C310 C311 1.438 . S
C310 C315 1.429 . S
C311 C294 1.394 1_556 S
C311 C310 1.438 . S
C311 C312 1.428 . S
C312 H304 0.949 . S
C312 C311 1.428 . S
C312 C313 1.345 . S
C313 H305 0.950 . S
C313 C312 1.345 . S
C313 C314 1.424 . S
C314 H306 0.951 . S
C314 C313 1.424 . S
C314 C315 1.347 . S
C315 H307 0.951 . S
C315 C310 1.429 . S
C315 C314 1.347 . S
H316 C317 0.951 . S
C317 H316 0.951 . S
C317 C323 1.265 . S
H318 C323 0.950 . S
H319 C327 0.949 . S
H320 C328 0.950 . S
H321 C329 0.951 . S
H322 C330 0.951 . S
C323 C317 1.265 . S
C323 H318 0.950 . S
C323 C324 1.478 . S
C324 C323 1.478 . S
C324 C325 1.397 . S
C324 C341 1.394 . S
C325 C324 1.397 . S
C325 C326 1.438 . S
C325 C330 1.429 . S
C326 C325 1.438 . S
C326 C327 1.428 . S
C326 C339 1.394 . S
C327 H319 0.949 . S
C327 C326 1.428 . S
C327 C328 1.345 . S
C328 H320 0.950 . S
C328 C327 1.345 . S
C328 C329 1.424 . S
C329 H321 0.951 . S
C329 C328 1.424 . S
C329 C330 1.347 . S
C330 H322 0.951 . S
C330 C325 1.429 . S
C330 C329 1.347 . S
H331 C332 0.951 . S
C332 H331 0.951 . S
C332 C338 1.265 . S
H333 C338 0.950 . S
H334 C342 0.949 . S
H335 C343 0.950 . S
H336 C344 0.951 . S
H337 C345 0.951 . S
C338 C332 1.265 . S
C338 H333 0.950 . S
C338 C339 1.478 . S
C339 C326 1.394 . S
C339 C338 1.478 . S
C339 C340 1.397 . S
C340 C339 1.397 . S
C340 C341 1.438 . S
C340 C345 1.429 . S
C341 C324 1.394 . S
C341 C340 1.438 . S
C341 C342 1.428 . S
C342 H334 0.949 . S
C342 C341 1.428 . S
C342 C343 1.345 . S
C343 H335 0.950 . S
C343 C342 1.345 . S
C343 C344 1.424 . S
C344 H336 0.951 . S
C344 C343 1.424 . S
C344 C345 1.347 . S
C345 H337 0.951 . S
C345 C340 1.429 . S
C345 C344 1.347 . S
H346 C347 0.951 . S
C347 H346 0.951 . S
C347 C353 1.265 . S
H348 C353 0.950 . S
H349 C357 0.949 . S
H350 C358 0.950 . S
H351 C359 0.951 . S
H352 C360 0.951 . S
C353 C347 1.265 . S
C353 H348 0.950 . S
C353 C354 1.478 . S
C354 C353 1.478 . S
C354 C355 1.397 . S
C354 C371 1.394 . S
C355 C354 1.397 . S
C355 C356 1.438 . S
C355 C360 1.429 . S
C356 C355 1.438 . S
C356 C357 1.428 . S
C356 C369 1.394 . S
C357 H349 0.949 . S
C357 C356 1.428 . S
C357 C358 1.345 . S
C358 H350 0.950 . S
C358 C357 1.345 . S
C358 C359 1.424 . S
C359 H351 0.951 . S
C359 C358 1.424 . S
C359 C360 1.347 . S
C360 H352 0.951 . S
C360 C355 1.429 . S
C360 C359 1.347 . S
H361 C362 0.951 . S
C362 H361 0.951 . S
C362 C368 1.265 . S
H363 C368 0.950 . S
H364 C372 0.949 . S
H365 C373 0.950 . S
H366 C374 0.951 . S
H367 C375 0.951 . S
C368 C362 1.265 . S
C368 H363 0.950 . S
C368 C369 1.478 . S
C369 C356 1.394 . S
C369 C368 1.478 . S
C369 C370 1.397 . S
C370 C369 1.397 . S
C370 C371 1.438 . S
C370 C375 1.429 . S
C371 C354 1.394 . S
C371 C370 1.438 . S
C371 C372 1.428 . S
C372 H364 0.949 . S
C372 C371 1.428 . S
C372 C373 1.345 . S
C373 H365 0.950 . S
C373 C372 1.345 . S
C373 C374 1.424 . S
C374 H366 0.951 . S
C374 C373 1.424 . S
C374 C375 1.347 . S
C375 H367 0.951 . S
C375 C370 1.429 . S
C375 C374 1.347 . S
H376 C377 0.951 . S
C377 H376 0.951 . S
C377 C383 1.265 . S
H378 C383 0.950 . S
H379 C387 0.949 . S
H380 C388 0.950 . S
H381 C389 0.951 . S
H382 C390 0.951 . S
C383 C377 1.265 . S
C383 H378 0.950 . S
C383 C384 1.478 . S
C384 C383 1.478 . S
C384 C385 1.397 . S
C384 C401 1.394 . S
C385 C384 1.397 . S
C385 C386 1.438 . S
C385 C390 1.429 . S
C386 C385 1.438 . S
C386 C387 1.428 . S
C386 C399 1.394 . S
C387 H379 0.949 . S
C387 C386 1.428 . S
C387 C388 1.345 . S
C388 H380 0.950 . S
C388 C387 1.345 . S
C388 C389 1.424 . S
C389 H381 0.951 . S
C389 C388 1.424 . S
C389 C390 1.347 . S
C390 H382 0.951 . S
C390 C385 1.429 . S
C390 C389 1.347 . S
H391 C392 0.951 . S
C392 H391 0.951 . S
C392 C398 1.265 . S
H393 C398 0.950 . S
H394 C402 0.949 . S
H395 C403 0.950 . S
H396 C404 0.951 . S
H397 C405 0.951 . S
C398 C392 1.265 . S
C398 H393 0.950 . S
C398 C399 1.478 . S
C399 C386 1.394 . S
C399 C398 1.478 . S
C399 C400 1.397 . S
C400 C399 1.397 . S
C400 C401 1.438 . S
C400 C405 1.429 . S
C401 C384 1.394 . S
C401 C400 1.438 . S
C401 C402 1.428 . S
C402 H394 0.949 . S
C402 C401 1.428 . S
C402 C403 1.345 . S
C403 H395 0.950 . S
C403 C402 1.345 . S
C403 C404 1.424 . S
C404 H396 0.951 . S
C404 C403 1.424 . S
C404 C405 1.347 . S
C405 H397 0.951 . S
C405 C400 1.429 . S
C405 C404 1.347 . S
H406 C407 0.951 . S
C407 H406 0.951 . S
C407 C413 1.265 . S
H408 C413 0.950 . S
H409 C417 0.949 . S
H410 C418 0.950 . S
H411 C419 0.951 . S
H412 C420 0.951 . S
C413 C407 1.265 . S
C413 H408 0.950 . S
C413 C414 1.478 . S
C414 C413 1.478 . S
C414 C415 1.397 . S
C414 C431 1.394 . S
C415 C414 1.397 . S
C415 C416 1.438 . S
C415 C420 1.429 . S
C416 C415 1.438 . S
C416 C417 1.428 . S
C416 C429 1.394 . S
C417 H409 0.949 . S
C417 C416 1.428 . S
C417 C418 1.345 . S
C418 H410 0.950 . S
C418 C417 1.345 . S
C418 C419 1.424 . S
C419 H411 0.951 . S
C419 C418 1.424 . S
C419 C420 1.347 . S
C420 H412 0.951 . S
C420 C415 1.429 . S
C420 C419 1.347 . S
H421 C422 0.951 . S
C422 H421 0.951 . S
C422 C428 1.265 . S
H423 C428 0.950 . S
H424 C432 0.949 . S
H425 C433 0.950 . S
H426 C434 0.951 . S
H427 C435 0.951 . S
C428 C422 1.265 . S
C428 H423 0.950 . S
C428 C429 1.478 . S
C429 C416 1.394 . S
C429 C428 1.478 . S
C429 C430 1.397 . S
C430 C429 1.397 . S
C430 C431 1.438 . S
C430 C435 1.429 . S
C431 C414 1.394 . S
C431 C430 1.438 . S
C431 C432 1.428 . S
C432 H424 0.949 . S
C432 C431 1.428 . S
C432 C433 1.345 . S
C433 H425 0.950 . S
C433 C432 1.345 . S
C433 C434 1.424 . S
C434 H426 0.951 . S
C434 C433 1.424 . S
C434 C435 1.347 . S
C435 H427 0.951 . S
C435 C430 1.429 . S
C435 C434 1.347 . S
H436 C437 0.951 . S
C437 H436 0.951 . S
C437 C443 1.265 . S
H438 C443 0.950 . S
H439 C447 0.949 . S
H440 C448 0.950 . S
H441 C449 0.951 . S
H442 C450 0.951 . S
C443 C437 1.265 . S
C443 H438 0.950 . S
C443 C444 1.478 . S
C444 C443 1.478 . S
C444 C445 1.397 . S
C444 C461 1.394 . S
C445 C444 1.397 . S
C445 C446 1.438 . S
C445 C450 1.429 . S
C446 C445 1.438 . S
C446 C447 1.428 . S
C446 C459 1.394 . S
C447 H439 0.949 . S
C447 C446 1.428 . S
C447 C448 1.345 . S
C448 H440 0.950 . S
C448 C447 1.345 . S
C448 C449 1.424 . S
C449 H441 0.951 . S
C449 C448 1.424 . S
C449 C450 1.347 . S
C450 H442 0.951 . S
C450 C445 1.429 . S
C450 C449 1.347 . S
H451 C452 0.951 . S
C452 H451 0.951 . S
C452 C458 1.265 . S
H453 C458 0.950 . S
H454 C462 0.949 . S
H455 C463 0.950 . S
H456 C464 0.951 . S
H457 C465 0.951 . S
C458 C452 1.265 . S
C458 H453 0.950 . S
C458 C459 1.478 . S
C459 C446 1.394 . S
C459 C458 1.478 . S
C459 C460 1.397 . S
C460 C459 1.397 . S
C460 C461 1.438 . S
C460 C465 1.429 . S
C461 C444 1.394 . S
C461 C460 1.438 . S
C461 C462 1.428 . S
C462 H454 0.949 . S
C462 C461 1.428 . S
C462 C463 1.345 . S
C463 H455 0.950 . S
C463 C462 1.345 . S
C463 C464 1.424 . S
C464 H456 0.951 . S
C464 C463 1.424 . S
C464 C465 1.347 . S
C465 H457 0.951 . S
C465 C460 1.429 . S
C465 C464 1.347 . S
H466 C467 0.951 . S
C467 H466 0.951 . S
C467 C473 1.265 . S
H468 C473 0.950 . S
H469 C477 0.949 . S
H470 C478 0.950 . S
H471 C479 0.951 . S
H472 C480 0.951 . S
C473 C467 1.265 . S
C473 H468 0.950 . S
C473 C474 1.478 . S
C474 C473 1.478 . S
C474 C475 1.397 . S
C474 C491 1.394 . S
C475 C474 1.397 . S
C475 C476 1.438 . S
C475 C480 1.429 . S
C476 C475 1.438 . S
C476 C477 1.428 . S
C476 C489 1.394 . S
C477 H469 0.949 . S
C477 C476 1.428 . S
C477 C478 1.345 . S
C478 H470 0.950 . S
C478 C477 1.345 . S
C478 C479 1.424 . S
C479 H471 0.951 . S
C479 C478 1.424 . S
C479 C480 1.347 . S
C480 H472 0.951 . S
C480 C475 1.429 . S
C480 C479 1.347 . S
H481 C482 0.951 . S
C482 H481 0.951 . S
C482 C488 1.265 . S
H483 C488 0.950 . S
H484 C492 0.949 . S
H485 C493 0.950 . S
H486 C494 0.951 . S
H487 C495 0.951 . S
C488 C482 1.265 . S
C488 H483 0.950 . S
C488 C489 1.478 . S
C489 C476 1.394 . S
C489 C488 1.478 . S
C489 C490 1.397 . S
C490 C489 1.397 . S
C490 C491 1.438 . S
C490 C495 1.429 . S
C491 C474 1.394 . S
C491 C490 1.438 . S
C491 C492 1.428 . S
C492 H484 0.949 . S
C492 C491 1.428 . S
C492 C493 1.345 . S
C493 H485 0.950 . S
C493 C492 1.345 . S
C493 C494 1.424 . S
C494 H486 0.951 . S
C494 C493 1.424 . S
C494 C495 1.347 . S
C495 H487 0.951 . S
C495 C490 1.429 . S
C495 C494 1.347 . S
H496 C497 0.951 . S
C497 H496 0.951 . S
C497 C503 1.265 . S
H498 C503 0.950 . S
H499 C507 0.949 . S
H500 C508 0.950 . S
H501 C509 0.951 . S
H502 C510 0.951 . S
C503 C497 1.265 . S
C503 H498 0.950 . S
C503 C504 1.478 . S
C504 C503 1.478 . S
C504 C505 1.397 . S
C504 C521 1.394 . S
C505 C504 1.397 . S
C505 C506 1.438 . S
C505 C510 1.429 . S
C506 C505 1.438 . S
C506 C507 1.428 . S
C506 C519 1.394 . S
C507 H499 0.949 . S
C507 C506 1.428 . S
C507 C508 1.345 . S
C508 H500 0.950 . S
C508 C507 1.345 . S
C508 C509 1.424 . S
C509 H501 0.951 . S
C509 C508 1.424 . S
C509 C510 1.347 . S
C510 H502 0.951 . S
C510 C505 1.429 . S
C510 C509 1.347 . S
H511 C512 0.951 . S
C512 H511 0.951 . S
C512 C518 1.265 . S
H513 C518 0.950 . S
H514 C522 0.949 . S
H515 C523 0.950 . S
H516 C524 0.951 . S
H517 C525 0.951 . S
C518 C512 1.265 . S
C518 H513 0.950 . S
C518 C519 1.478 . S
C519 C506 1.394 . S
C519 C518 1.478 . S
C519 C520 1.397 . S
C520 C519 1.397 . S
C520 C521 1.438 . S
C520 C525 1.429 . S
C521 C504 1.394 . S
C521 C520 1.438 . S
C521 C522 1.428 . S
C522 H514 0.949 . S
C522 C521 1.428 . S
C522 C523 1.345 . S
C523 H515 0.950 . S
C523 C522 1.345 . S
C523 C524 1.424 . S
C524 H516 0.951 . S
C524 C523 1.424 . S
C524 C525 1.347 . S
C525 H517 0.951 . S
C525 C520 1.429 . S
C525 C524 1.347 . S
H526 C527 0.951 . S
C527 H526 0.951 . S
C527 C533 1.265 . S
H528 C533 0.950 . S
H529 C537 0.949 . S
H530 C538 0.950 . S
H531 C539 0.951 . S
H532 C540 0.951 . S
C533 C527 1.265 . S
C533 H528 0.950 . S
C533 C534 1.478 . S
C534 C533 1.478 . S
C534 C535 1.397 . S
C534 C551 1.394 . S
C535 C534 1.397 . S
C535 C536 1.438 . S
C535 C540 1.429 . S
C536 C535 1.438 . S
C536 C537 1.428 . S
C536 C549 1.394 . S
C537 H529 0.949 . S
C537 C536 1.428 . S
C537 C538 1.345 . S
C538 H530 0.950 . S
C538 C537 1.345 . S
C538 C539 1.424 . S
C539 H531 0.951 . S
C539 C538 1.424 . S
C539 C540 1.347 . S
C540 H532 0.951 . S
C540 C535 1.429 . S
C540 C539 1.347 . S
H541 C542 0.951 . S
C542 H541 0.951 . S
C542 C548 1.265 . S
H543 C548 0.950 . S
H544 C552 0.949 . S
H545 C553 0.950 . S
H546 C554 0.951 1_655 S
H547 C555 0.951 . S
C548 C542 1.265 . S
C548 H543 0.950 . S
C548 C549 1.478 . S
C549 C536 1.394 . S
C549 C548 1.478 . S
C549 C550 1.397 . S
C550 C549 1.397 . S
C550 C551 1.438 . S
C550 C555 1.429 . S
C551 C534 1.394 . S
C551 C550 1.438 . S
C551 C552 1.428 . S
C552 H544 0.949 . S
C552 C551 1.428 . S
C552 C553 1.345 . S
C553 H545 0.950 . S
C553 C552 1.345 . S
C553 C554 1.424 . S
C554 H546 0.951 1_455 S
C554 C553 1.424 . S
C554 C555 1.347 . S
C555 H547 0.951 . S
C555 C550 1.429 . S
C555 C554 1.347 . S
C212 C132 1.587 . S
C197 C119 1.593 . S
C227 C23 1.510 . S
C242 C175 1.543 . S
C257 C55 1.551 . S
C272 C141 1.595 . S
C287 C87 1.524 . S
C302 C166 1.543 . S
C332 C128 1.576 . S
C317 C17 1.529 . S
C362 C170 1.635 . S
C347 C61 1.523 . S
C377 C93 1.556 . S
C392 C136 1.573 . S
C407 C113 1.645 . S
C422 C162 1.648 . S
C452 C191 1.639 . S
C437 C49 1.522 . S
C482 C157 1.559 . S
C467 C81 1.573 . S
C512 C179 1.635 . S
C497 C125 1.647 . S
C527 C29 1.512 . S
C542 C145 1.568 . S
