# Generated by pormake.
# Topology eea, (3,6)-cn, num edge types: 1
# Building blocks:
#     Node 0, Type 0, BuildingBlock: BELTOD_clean_linker_0, # of connection points: 3
#     Node 1, Type 0, BuildingBlock: BELTOD_clean_linker_0, # of connection points: 3
#     Node 2, Type 0, BuildingBlock: BELTOD_clean_linker_0, # of connection points: 3
#     Node 3, Type 0, BuildingBlock: BELTOD_clean_linker_0, # of connection points: 3
#     Node 4, Type 0, BuildingBlock: BELTOD_clean_linker_0, # of connection points: 3
#     Node 5, Type 0, BuildingBlock: BELTOD_clean_linker_0, # of connection points: 3
#     Node 6, Type 0, BuildingBlock: BELTOD_clean_linker_0, # of connection points: 3
#     Node 7, Type 0, BuildingBlock: BELTOD_clean_linker_0, # of connection points: 3
#     Node 8, Type 0, BuildingBlock: BELTOD_clean_linker_0, # of connection points: 3
#     Node 9, Type 0, BuildingBlock: BELTOD_clean_linker_0, # of connection points: 3
#     Node 10, Type 0, BuildingBlock: BELTOD_clean_linker_0, # of connection points: 3
#     Node 11, Type 0, BuildingBlock: BELTOD_clean_linker_0, # of connection points: 3
#     Node 12, Type 0, BuildingBlock: BELTOD_clean_linker_0, # of connection points: 3
#     Node 13, Type 0, BuildingBlock: BELTOD_clean_linker_0, # of connection points: 3
#     Node 14, Type 0, BuildingBlock: BELTOD_clean_linker_0, # of connection points: 3
#     Node 15, Type 0, BuildingBlock: BELTOD_clean_linker_0, # of connection points: 3
#     Node 16, Type 0, BuildingBlock: BELTOD_clean_linker_0, # of connection points: 3
#     Node 17, Type 0, BuildingBlock: BELTOD_clean_linker_0, # of connection points: 3
#     Node 18, Type 1, BuildingBlock: KUMJIN_clean_sbu_0, # of connection points: 6
#     Node 19, Type 1, BuildingBlock: KUMJIN_clean_sbu_0, # of connection points: 6
#     Node 20, Type 1, BuildingBlock: KUMJIN_clean_sbu_0, # of connection points: 6
#     Node 21, Type 1, BuildingBlock: KUMJIN_clean_sbu_0, # of connection points: 6
#     Node 22, Type 1, BuildingBlock: KUMJIN_clean_sbu_0, # of connection points: 6
#     Node 23, Type 1, BuildingBlock: KUMJIN_clean_sbu_0, # of connection points: 6
#     Node 24, Type 1, BuildingBlock: KUMJIN_clean_sbu_0, # of connection points: 6
#     Node 25, Type 1, BuildingBlock: KUMJIN_clean_sbu_0, # of connection points: 6
#     Node 26, Type 1, BuildingBlock: KUMJIN_clean_sbu_0, # of connection points: 6
#     Edge 27, Type (0, 1), BuildingBlock: ZUJKAS_clean_linker_0, # of connection points: 2
#     Edge 28, Type (0, 1), BuildingBlock: ZUJKAS_clean_linker_0, # of connection points: 2
#     Edge 29, Type (0, 1), BuildingBlock: ZUJKAS_clean_linker_0, # of connection points: 2
#     Edge 30, Type (0, 1), BuildingBlock: ZUJKAS_clean_linker_0, # of connection points: 2
#     Edge 31, Type (0, 1), BuildingBlock: ZUJKAS_clean_linker_0, # of connection points: 2
#     Edge 32, Type (0, 1), BuildingBlock: ZUJKAS_clean_linker_0, # of connection points: 2
#     Edge 33, Type (0, 1), BuildingBlock: ZUJKAS_clean_linker_0, # of connection points: 2
#     Edge 34, Type (0, 1), BuildingBlock: ZUJKAS_clean_linker_0, # of connection points: 2
#     Edge 35, Type (0, 1), BuildingBlock: ZUJKAS_clean_linker_0, # of connection points: 2
#     Edge 36, Type (0, 1), BuildingBlock: ZUJKAS_clean_linker_0, # of connection points: 2
#     Edge 37, Type (0, 1), BuildingBlock: ZUJKAS_clean_linker_0, # of connection points: 2
#     Edge 38, Type (0, 1), BuildingBlock: ZUJKAS_clean_linker_0, # of connection points: 2
#     Edge 39, Type (0, 1), BuildingBlock: ZUJKAS_clean_linker_0, # of connection points: 2
#     Edge 40, Type (0, 1), BuildingBlock: ZUJKAS_clean_linker_0, # of connection points: 2
#     Edge 41, Type (0, 1), BuildingBlock: ZUJKAS_clean_linker_0, # of connection points: 2
#     Edge 42, Type (0, 1), BuildingBlock: ZUJKAS_clean_linker_0, # of connection points: 2
#     Edge 43, Type (0, 1), BuildingBlock: ZUJKAS_clean_linker_0, # of connection points: 2
#     Edge 44, Type (0, 1), BuildingBlock: ZUJKAS_clean_linker_0, # of connection points: 2
#     Edge 45, Type (0, 1), BuildingBlock: ZUJKAS_clean_linker_0, # of connection points: 2
#     Edge 46, Type (0, 1), BuildingBlock: ZUJKAS_clean_linker_0, # of connection points: 2
#     Edge 47, Type (0, 1), BuildingBlock: ZUJKAS_clean_linker_0, # of connection points: 2
#     Edge 48, Type (0, 1), BuildingBlock: ZUJKAS_clean_linker_0, # of connection points: 2
#     Edge 49, Type (0, 1), BuildingBlock: ZUJKAS_clean_linker_0, # of connection points: 2
#     Edge 50, Type (0, 1), BuildingBlock: ZUJKAS_clean_linker_0, # of connection points: 2
#     Edge 51, Type (0, 1), BuildingBlock: ZUJKAS_clean_linker_0, # of connection points: 2
#     Edge 52, Type (0, 1), BuildingBlock: ZUJKAS_clean_linker_0, # of connection points: 2
#     Edge 53, Type (0, 1), BuildingBlock: ZUJKAS_clean_linker_0, # of connection points: 2
#     Edge 54, Type (0, 1), BuildingBlock: ZUJKAS_clean_linker_0, # of connection points: 2
#     Edge 55, Type (0, 1), BuildingBlock: ZUJKAS_clean_linker_0, # of connection points: 2
#     Edge 56, Type (0, 1), BuildingBlock: ZUJKAS_clean_linker_0, # of connection points: 2
#     Edge 57, Type (0, 1), BuildingBlock: ZUJKAS_clean_linker_0, # of connection points: 2
#     Edge 58, Type (0, 1), BuildingBlock: ZUJKAS_clean_linker_0, # of connection points: 2
#     Edge 59, Type (0, 1), BuildingBlock: ZUJKAS_clean_linker_0, # of connection points: 2
#     Edge 60, Type (0, 1), BuildingBlock: ZUJKAS_clean_linker_0, # of connection points: 2
#     Edge 61, Type (0, 1), BuildingBlock: ZUJKAS_clean_linker_0, # of connection points: 2
#     Edge 62, Type (0, 1), BuildingBlock: ZUJKAS_clean_linker_0, # of connection points: 2
#     Edge 63, Type (0, 1), BuildingBlock: ZUJKAS_clean_linker_0, # of connection points: 2
#     Edge 64, Type (0, 1), BuildingBlock: ZUJKAS_clean_linker_0, # of connection points: 2
#     Edge 65, Type (0, 1), BuildingBlock: ZUJKAS_clean_linker_0, # of connection points: 2
#     Edge 66, Type (0, 1), BuildingBlock: ZUJKAS_clean_linker_0, # of connection points: 2
#     Edge 67, Type (0, 1), BuildingBlock: ZUJKAS_clean_linker_0, # of connection points: 2
#     Edge 68, Type (0, 1), BuildingBlock: ZUJKAS_clean_linker_0, # of connection points: 2
#     Edge 69, Type (0, 1), BuildingBlock: ZUJKAS_clean_linker_0, # of connection points: 2
#     Edge 70, Type (0, 1), BuildingBlock: ZUJKAS_clean_linker_0, # of connection points: 2
#     Edge 71, Type (0, 1), BuildingBlock: ZUJKAS_clean_linker_0, # of connection points: 2
#     Edge 72, Type (0, 1), BuildingBlock: ZUJKAS_clean_linker_0, # of connection points: 2
#     Edge 73, Type (0, 1), BuildingBlock: ZUJKAS_clean_linker_0, # of connection points: 2
#     Edge 74, Type (0, 1), BuildingBlock: ZUJKAS_clean_linker_0, # of connection points: 2
#     Edge 75, Type (0, 1), BuildingBlock: ZUJKAS_clean_linker_0, # of connection points: 2
#     Edge 76, Type (0, 1), BuildingBlock: ZUJKAS_clean_linker_0, # of connection points: 2
#     Edge 77, Type (0, 1), BuildingBlock: ZUJKAS_clean_linker_0, # of connection points: 2
#     Edge 78, Type (0, 1), BuildingBlock: ZUJKAS_clean_linker_0, # of connection points: 2
#     Edge 79, Type (0, 1), BuildingBlock: ZUJKAS_clean_linker_0, # of connection points: 2
#     Edge 80, Type (0, 1), BuildingBlock: ZUJKAS_clean_linker_0, # of connection points: 2
# Relax obj value: 0.009
# Max RMSD: 0.092
# Mean RMSD: 0.060
data_MOF--net-eea--node1-KUMJIN_clean_sbu_0--node2-BELTOD_clean_linker_0--edge1-ZUJKAS_clean_linker_0
_symmetry_space_group_name_H-M    P1
_symmetry_Int_Tables_number       1
_symmetry_cell_setting            triclinic
loop_
_symmetry_equiv_pos_as_xyz
'x, y, z'
_cell_length_a     74.621546
_cell_length_b     75.597775
_cell_length_c     100.41932
_cell_angle_alpha  90.733161
_cell_angle_beta   90.286927
_cell_angle_gamma 120.0776
loop_
_atom_site_label
_atom_site_type_symbol
_atom_site_fract_x
_atom_site_fract_y
_atom_site_fract_z
_atom_type_partial_charge
P0 P 0.28677 0.14601 0.41344 0.0
H1 H 0.28503 0.1287 0.38718 0.0
H2 H 0.26726 0.0937 0.37825 0.0
H3 H 0.24072 0.07149 0.41687 0.0
H4 H 0.25821 0.10661 0.42563 0.0
H5 H 0.30145 0.18856 0.40722 0.0
H6 H 0.28394 0.20654 0.39952 0.0
H7 H 0.22499 0.15048 0.40157 0.0
H8 H 0.24279 0.13249 0.409 0.0
H9 H 0.31474 0.1397 0.43023 0.0
H10 H 0.26549 0.15313 0.43579 0.0
O11 O 0.3103 0.15777 0.40675 0.0
H12 H 0.3201 0.14102 0.45432 0.0
H13 H 0.27102 0.15489 0.45992 0.0
C14 C 0.2733 0.12015 0.40712 0.0
C15 C 0.27542 0.11627 0.39372 0.0
C16 C 0.2653 0.09626 0.38865 0.0
C17 C 0.25276 0.07978 0.39689 0.0
C18 C 0.2502 0.08384 0.41025 0.0
C19 C 0.26035 0.1039 0.41531 0.0
C20 C 0.27345 0.15915 0.40839 0.0
C21 C 0.28476 0.18014 0.40599 0.0
C22 C 0.27469 0.19043 0.40169 0.0
C23 C 0.25304 0.17993 0.39987 0.0
C24 C 0.2417 0.15894 0.40265 0.0
C25 C 0.25184 0.14865 0.40694 0.0
C26 C 0.29004 0.14673 0.43123 0.0
C27 C 0.30518 0.14307 0.43665 0.0
C28 C 0.30827 0.14391 0.45042 0.0
C29 C 0.29616 0.14832 0.45904 0.0
C30 C 0.28056 0.1514 0.45356 0.0
C31 C 0.27749 0.15056 0.43975 0.0
P32 P 0.90868 0.10611 0.43567 0.0
H33 H 0.90366 0.06937 0.42233 0.0
H34 H 0.87506 0.04167 0.40985 0.0
H35 H 0.83982 0.0726 0.41387 0.0
H36 H 0.86846 0.10008 0.42673 0.0
H37 H 0.95027 0.13953 0.44116 0.0
H38 H 0.97591 0.1672 0.42765 0.0
H39 H 0.93203 0.14711 0.39482 0.0
H40 H 0.90646 0.11934 0.4084 0.0
H41 H 0.87839 0.0824 0.45552 0.0
H42 H 0.91577 0.14612 0.44587 0.0
O43 O 0.92194 0.09603 0.44245 0.0
H44 H 0.86532 0.09164 0.47506 0.0
H45 H 0.90326 0.15555 0.46564 0.0
C46 C 0.88799 0.08653 0.42567 0.0
C47 C 0.88978 0.07019 0.42053 0.0
C48 C 0.87345 0.05443 0.41327 0.0
C49 C 0.85505 0.05483 0.41088 0.0
C50 C 0.8536 0.07163 0.41572 0.0
C51 C 0.86998 0.08738 0.42302 0.0
C52 C 0.92654 0.12732 0.42577 0.0
C53 C 0.94612 0.14118 0.43108 0.0
C54 C 0.96072 0.15705 0.42336 0.0
C55 C 0.95602 0.15934 0.41014 0.0
C56 C 0.93619 0.14561 0.40492 0.0
C57 C 0.92152 0.12978 0.4127 0.0
C58 C 0.89802 0.11353 0.44924 0.0
C59 C 0.88371 0.09839 0.45759 0.0
C60 C 0.87639 0.10372 0.46883 0.0
C61 C 0.88339 0.12436 0.47201 0.0
C62 C 0.89742 0.1395 0.46343 0.0
C63 C 0.9047 0.13412 0.45214 0.0
P64 P 0.8738 0.75019 0.41862 0.0
H65 H 0.84601 0.73794 0.39553 0.0
H66 H 0.82423 0.75036 0.38635 0.0
H67 H 0.8485 0.79925 0.41591 0.0
H68 H 0.86976 0.78605 0.4254 0.0
H69 H 0.90489 0.738 0.42035 0.0
H70 H 0.93957 0.75179 0.41128 0.0
H71 H 0.93546 0.8022 0.39484 0.0
H72 H 0.90058 0.78816 0.40392 0.0
H73 H 0.83859 0.7355 0.43616 0.0
H74 H 0.90488 0.76374 0.4406 0.0
O75 O 0.86241 0.72568 0.41378 0.0
H76 H 0.83472 0.72978 0.46011 0.0
H77 H 0.90115 0.75819 0.46458 0.0
C78 C 0.85926 0.76087 0.41128 0.0
C79 C 0.84668 0.75135 0.40005 0.0
C80 C 0.83433 0.75863 0.39471 0.0
C81 C 0.83447 0.77584 0.40036 0.0
C82 C 0.84766 0.78576 0.41141 0.0
C83 C 0.85995 0.77833 0.41681 0.0
C84 C 0.90013 0.76201 0.41282 0.0
C85 C 0.91153 0.75213 0.4149 0.0
C86 C 0.93142 0.76011 0.40976 0.0
C87 C 0.94034 0.77813 0.40232 0.0
C88 C 0.92897 0.78819 0.40041 0.0
C89 C 0.90905 0.78023 0.40566 0.0
C90 C 0.87198 0.75003 0.43655 0.0
C91 C 0.85236 0.74088 0.44234 0.0
C92 C 0.85017 0.73766 0.45606 0.0
C93 C 0.86762 0.74341 0.46429 0.0
C94 C 0.88737 0.7533 0.45851 0.0
C95 C 0.88953 0.75658 0.44477 0.0
P96 P 0.12326 0.2512 0.59483 0.0
H97 H 0.10862 0.24793 0.62194 0.0
H98 H 0.07419 0.23454 0.63139 0.0
H99 H 0.04673 0.21263 0.59234 0.0
H100 H 0.0813 0.22629 0.58295 0.0
H101 H 0.16684 0.26489 0.59161 0.0
H102 H 0.18927 0.25227 0.5996 0.0
H103 H 0.13646 0.20065 0.61708 0.0
H104 H 0.11407 0.21346 0.60905 0.0
H105 H 0.10907 0.27316 0.57836 0.0
H106 H 0.13667 0.23553 0.57201 0.0
O107 O 0.13508 0.27486 0.60132 0.0
H108 H 0.11187 0.28074 0.55464 0.0
H109 H 0.14032 0.24366 0.54836 0.0
C110 C 0.09756 0.23832 0.60173 0.0
C111 C 0.09516 0.24001 0.61544 0.0
C112 C 0.07543 0.23225 0.62085 0.0
C113 C 0.05763 0.22263 0.61262 0.0
C114 C 0.06009 0.22025 0.59893 0.0
C115 C 0.07988 0.22797 0.59354 0.0
C116 C 0.13881 0.24016 0.59973 0.0
C117 C 0.16005 0.25073 0.59704 0.0
C118 C 0.17285 0.24344 0.60157 0.0
C119 C 0.16469 0.22544 0.609 0.0
C120 C 0.14327 0.21467 0.6115 0.0
C121 C 0.13042 0.22193 0.60686 0.0
C122 C 0.12289 0.25402 0.577 0.0
C123 C 0.11564 0.26644 0.57183 0.0
C124 C 0.11743 0.2709 0.55827 0.0
C125 C 0.12666 0.26311 0.54956 0.0
C126 C 0.13306 0.24988 0.55471 0.0
C127 C 0.13113 0.24533 0.5683 0.0
P128 P 0.80372 0.9028 0.57385 0.0
H129 H 0.83532 0.93953 0.58759 0.0
H130 H 0.83386 0.96595 0.60092 0.0
H131 H 0.76733 0.9344 0.59563 0.0
H132 H 0.76902 0.90813 0.58202 0.0
H133 H 0.79888 0.86318 0.56695 0.0
H134 H 0.79595 0.83511 0.58037 0.0
H135 H 0.79563 0.86731 0.61615 0.0
H136 H 0.79879 0.89538 0.60271 0.0
H137 H 0.80693 0.92161 0.54832 0.0
H138 H 0.76153 0.8683 0.56889 0.0
O139 O 0.82765 0.91261 0.56793 0.0
H140 H 0.7838 0.91187 0.52896 0.0
H141 H 0.73848 0.85802 0.54938 0.0
C142 C 0.80234 0.92217 0.58359 0.0
C143 C 0.82043 0.93836 0.58922 0.0
C144 C 0.81954 0.95334 0.59697 0.0
C145 C 0.80046 0.95229 0.59934 0.0
C146 C 0.78228 0.9358 0.59383 0.0
C147 C 0.78321 0.92079 0.58607 0.0
C148 C 0.79886 0.88125 0.5838 0.0
C149 C 0.79783 0.86402 0.57767 0.0
C150 C 0.79608 0.84796 0.58535 0.0
C151 C 0.79555 0.84899 0.59933 0.0
C152 C 0.79617 0.86615 0.60542 0.0
C153 C 0.79786 0.88217 0.59771 0.0
C154 C 0.78615 0.89539 0.55987 0.0
C155 C 0.79203 0.90768 0.5486 0.0
C156 C 0.77882 0.90203 0.53752 0.0
C157 C 0.7594 0.88398 0.53753 0.0
C158 C 0.7533 0.87203 0.54905 0.0
C159 C 0.76654 0.87777 0.56017 0.0
P160 P 0.12553 0.85982 0.59655 0.0
H161 H 0.14154 0.87707 0.62288 0.0
H162 H 0.1616 0.91211 0.63153 0.0
H163 H 0.16011 0.9348 0.59248 0.0
H164 H 0.13953 0.89964 0.58402 0.0
H165 H 0.09273 0.81754 0.59379 0.0
H166 H 0.05755 0.7987 0.60237 0.0
H167 H 0.06409 0.85507 0.61827 0.0
H168 H 0.09936 0.87374 0.6098 0.0
H169 H 0.16081 0.86633 0.58099 0.0
H170 H 0.09803 0.852 0.57321 0.0
O171 O 0.13606 0.84731 0.60371 0.0
H172 H 0.16617 0.86463 0.55717 0.0
H173 H 0.10309 0.84977 0.54928 0.0
C174 C 0.13943 0.88579 0.60277 0.0
C175 C 0.14552 0.88961 0.6162 0.0
C176 C 0.15708 0.90965 0.6211 0.0
C177 C 0.16273 0.9263 0.61266 0.0
C178 C 0.15597 0.92236 0.59927 0.0
C179 C 0.14433 0.90225 0.59439 0.0
C180 C 0.09869 0.84698 0.60121 0.0
C181 C 0.08646 0.82586 0.59897 0.0
C182 C 0.06632 0.81513 0.60384 0.0
C183 C 0.05801 0.82535 0.61108 0.0
C184 C 0.07012 0.84669 0.61291 0.0
C185 C 0.09028 0.85741 0.608 0.0
C186 C 0.12893 0.85889 0.57887 0.0
C187 C 0.14812 0.86267 0.57413 0.0
C188 C 0.15113 0.8616 0.5605 0.0
C189 C 0.13497 0.85676 0.5513 0.0
C190 C 0.11587 0.85356 0.55608 0.0
C191 C 0.1129 0.85468 0.56977 0.0
P192 P 0.94837 0.47762 0.74806 0.0
H193 H 0.95296 0.45981 0.72335 0.0
H194 H 0.93545 0.42496 0.7142 0.0
H195 H 0.89603 0.40429 0.74864 0.0
H196 H 0.91388 0.43921 0.75781 0.0
H197 H 0.96482 0.51841 0.73715 0.0
H198 H 0.94833 0.53682 0.72848 0.0
H199 H 0.88819 0.48533 0.73728 0.0
H200 H 0.9049 0.46683 0.74574 0.0
H201 H 0.95999 0.45599 0.76673 0.0
H202 H 0.93929 0.49995 0.76876 0.0
O203 O 0.9728 0.48908 0.74284 0.0
H204 H 0.96398 0.45769 0.79095 0.0
H205 H 0.94285 0.50145 0.793 0.0
C206 C 0.93505 0.45194 0.74139 0.0
C207 C 0.9406 0.44775 0.72895 0.0
C208 C 0.93044 0.42786 0.72368 0.0
C209 C 0.91441 0.41183 0.73073 0.0
C210 C 0.90855 0.41624 0.74307 0.0
C211 C 0.91872 0.43617 0.74832 0.0
C212 C 0.93605 0.49114 0.74186 0.0
C213 C 0.94809 0.51104 0.73717 0.0
C214 C 0.93863 0.52162 0.73231 0.0
C215 C 0.91693 0.51253 0.73216 0.0
C216 C 0.90492 0.49264 0.73707 0.0
C217 C 0.91443 0.48207 0.74194 0.0
C218 C 0.94913 0.47764 0.76596 0.0
C219 C 0.95597 0.46575 0.77242 0.0
C220 C 0.95814 0.46667 0.78628 0.0
C221 C 0.95366 0.47966 0.79392 0.0
C222 C 0.94658 0.49141 0.78739 0.0
C223 C 0.94439 0.49045 0.77352 0.0
P224 P 0.57679 0.43685 0.76937 0.0
H225 H 0.57074 0.39976 0.75607 0.0
H226 H 0.5421 0.37292 0.74311 0.0
H227 H 0.50903 0.40615 0.74621 0.0
H228 H 0.53772 0.43279 0.75953 0.0
H229 H 0.62101 0.45273 0.76548 0.0
H230 H 0.6468 0.47993 0.75193 0.0
H231 H 0.60018 0.49326 0.73759 0.0
H232 H 0.57417 0.46537 0.75098 0.0
H233 H 0.54483 0.41526 0.78878 0.0
H234 H 0.58672 0.47807 0.77885 0.0
O235 O 0.58814 0.42544 0.77697 0.0
H236 H 0.53252 0.42645 0.80775 0.0
H237 H 0.57391 0.48946 0.79749 0.0
C238 C 0.55614 0.41802 0.75897 0.0
C239 C 0.55734 0.40129 0.75395 0.0
C240 C 0.54099 0.38601 0.74643 0.0
C241 C 0.52317 0.38729 0.74364 0.0
C242 C 0.52236 0.4045 0.74835 0.0
C243 C 0.53876 0.41978 0.75591 0.0
C244 C 0.59567 0.45706 0.75926 0.0
C245 C 0.61627 0.46144 0.75941 0.0
C246 C 0.63108 0.47714 0.7517 0.0
C247 C 0.62565 0.48895 0.74372 0.0
C248 C 0.60488 0.48437 0.74351 0.0
C249 C 0.59001 0.46852 0.7512 0.0
C250 C 0.5665 0.44579 0.78231 0.0
C251 C 0.55109 0.43149 0.79054 0.0
C252 C 0.54398 0.43794 0.80136 0.0
C253 C 0.55215 0.4589 0.80418 0.0
C254 C 0.56743 0.47321 0.79574 0.0
C255 C 0.57463 0.46671 0.78495 0.0
P256 P 0.5376 0.08084 0.752 0.0
H257 H 0.51351 0.0709 0.72739 0.0
H258 H 0.49231 0.08356 0.71743 0.0
H259 H 0.51104 0.129 0.74899 0.0
H260 H 0.53256 0.11629 0.75887 0.0
H261 H 0.5629 0.06242 0.74629 0.0
H262 H 0.59748 0.07561 0.73731 0.0
H263 H 0.60492 0.13602 0.73576 0.0
H264 H 0.57006 0.12261 0.74492 0.0
H265 H 0.5057 0.07748 0.77026 0.0
H266 H 0.56598 0.08304 0.77323 0.0
O267 O 0.52485 0.05612 0.74758 0.0
H268 H 0.50099 0.07149 0.79412 0.0
H269 H 0.5611 0.07632 0.79703 0.0
C270 C 0.52417 0.09229 0.74407 0.0
C271 C 0.51316 0.08365 0.73216 0.0
C272 C 0.50096 0.09086 0.72649 0.0
C273 C 0.49964 0.10704 0.73254 0.0
C274 C 0.51168 0.11649 0.74408 0.0
C275 C 0.52389 0.10918 0.74978 0.0
C276 C 0.56372 0.09144 0.74601 0.0
C277 C 0.5719 0.0785 0.74399 0.0
C278 C 0.59169 0.08606 0.7388 0.0
C279 C 0.60388 0.10682 0.7356 0.0
C280 C 0.59594 0.11995 0.7381 0.0
C281 C 0.57599 0.1123 0.74328 0.0
C282 C 0.53642 0.08126 0.76996 0.0
C283 C 0.51818 0.07796 0.7761 0.0
C284 C 0.51537 0.07421 0.78975 0.0
C285 C 0.53059 0.07324 0.79755 0.0
C286 C 0.54916 0.07722 0.79143 0.0
C287 C 0.55198 0.08109 0.77776 0.0
P288 P 0.7921 0.58681 0.92692 0.0
H289 H 0.77681 0.59713 0.95065 0.0
H290 H 0.74255 0.58375 0.96 0.0
H291 H 0.71738 0.5361 0.92957 0.0
H292 H 0.75194 0.55038 0.9199 0.0
H293 H 0.83644 0.6058 0.93148 0.0
H294 H 0.85862 0.59343 0.9402 0.0
H295 H 0.80525 0.53314 0.94414 0.0
H296 H 0.78298 0.54574 0.93528 0.0
H297 H 0.77292 0.60189 0.90858 0.0
H298 H 0.8082 0.57106 0.90578 0.0
O299 O 0.80406 0.61154 0.93132 0.0
H300 H 0.77547 0.60695 0.88459 0.0
H301 H 0.81029 0.57545 0.88168 0.0
C302 C 0.76687 0.57498 0.93444 0.0
C303 C 0.76395 0.58377 0.94599 0.0
C304 C 0.74426 0.57591 0.95142 0.0
C305 C 0.72699 0.55879 0.94557 0.0
C306 C 0.73017 0.54951 0.93424 0.0
C307 C 0.74995 0.55755 0.92873 0.0
C308 C 0.808 0.57682 0.93305 0.0
C309 C 0.82944 0.58994 0.93429 0.0
C310 C 0.84213 0.58285 0.9393 0.0
C311 C 0.83368 0.56237 0.94306 0.0
C312 C 0.81222 0.54901 0.94135 0.0
C313 C 0.79947 0.5562 0.93637 0.0
C314 C 0.79038 0.58615 0.90899 0.0
C315 C 0.78076 0.59573 0.90273 0.0
C316 C 0.78218 0.59854 0.88896 0.0
C317 C 0.79324 0.59176 0.88112 0.0
C318 C 0.80198 0.58122 0.88739 0.0
C319 C 0.80064 0.57852 0.90121 0.0
P320 P 0.46896 0.23398 0.90636 0.0
H321 H 0.50151 0.27251 0.91788 0.0
H322 H 0.50075 0.29963 0.93081 0.0
H323 H 0.43381 0.26551 0.92975 0.0
H324 H 0.43475 0.23853 0.91653 0.0
H325 H 0.46197 0.19351 0.89957 0.0
H326 H 0.45899 0.16546 0.91301 0.0
H327 H 0.46347 0.19978 0.94885 0.0
H328 H 0.46676 0.22786 0.93536 0.0
H329 H 0.47126 0.25159 0.88049 0.0
H330 H 0.42593 0.20044 0.90278 0.0
O331 O 0.4925 0.24333 0.8999 0.0
H332 H 0.44677 0.24183 0.86185 0.0
H333 H 0.40122 0.19059 0.88416 0.0
C334 C 0.46819 0.25374 0.91604 0.0
C335 C 0.48667 0.27089 0.92038 0.0
C336 C 0.4862 0.28631 0.92789 0.0
C337 C 0.46721 0.28476 0.93131 0.0
C338 C 0.44868 0.26731 0.92712 0.0
C339 C 0.44919 0.25187 0.91959 0.0
C340 C 0.46431 0.21263 0.91644 0.0
C341 C 0.46198 0.19484 0.91032 0.0
C342 C 0.46021 0.1788 0.91802 0.0
C343 C 0.46095 0.18038 0.93201 0.0
C344 C 0.463 0.19817 0.9381 0.0
C345 C 0.46473 0.21419 0.93038 0.0
C346 C 0.45058 0.22643 0.89284 0.0
C347 C 0.45604 0.2382 0.88134 0.0
C348 C 0.44195 0.23271 0.87075 0.0
C349 C 0.42208 0.21539 0.87152 0.0
C350 C 0.41652 0.20383 0.8832 0.0
C351 C 0.43062 0.20943 0.89383 0.0
P352 P 0.79353 0.19312 0.93112 0.0
H353 H 0.81166 0.21083 0.957 0.0
H354 H 0.83188 0.246 0.96537 0.0
H355 H 0.8263 0.26793 0.92689 0.0
H356 H 0.80555 0.23261 0.91873 0.0
H357 H 0.7598 0.15173 0.92623 0.0
H358 H 0.72492 0.13215 0.93521 0.0
H359 H 0.73414 0.18597 0.95679 0.0
H360 H 0.76875 0.20554 0.94751 0.0
H361 H 0.82812 0.19895 0.91507 0.0
H362 H 0.76562 0.18605 0.90814 0.0
O363 O 0.80444 0.18079 0.93803 0.0
H364 H 0.83279 0.19729 0.89115 0.0
H365 H 0.76994 0.18378 0.88411 0.0
C366 C 0.8075 0.21916 0.93719 0.0
C367 C 0.81479 0.22322 0.95038 0.0
C368 C 0.82643 0.24335 0.95513 0.0
C369 C 0.83099 0.25983 0.94675 0.0
C370 C 0.82303 0.25562 0.93363 0.0
C371 C 0.81129 0.23543 0.92891 0.0
C372 C 0.76686 0.18007 0.93615 0.0
C373 C 0.75415 0.15938 0.93271 0.0
C374 C 0.7343 0.14817 0.93795 0.0
C375 C 0.72681 0.15743 0.94685 0.0
C376 C 0.73935 0.1784 0.9499 0.0
C377 C 0.75922 0.18961 0.94462 0.0
C378 C 0.7964 0.19215 0.91337 0.0
C379 C 0.81533 0.19558 0.90837 0.0
C380 C 0.81793 0.19453 0.89469 0.0
C381 C 0.80163 0.19007 0.8857 0.0
C382 C 0.78282 0.18726 0.89075 0.0
C383 C 0.78026 0.18838 0.90449 0.0
P384 P 0.61726 0.81102 0.07927 0.0
H385 H 0.61748 0.79199 0.05399 0.0
H386 H 0.59911 0.75667 0.04575 0.0
H387 H 0.56685 0.73748 0.0831 0.0
H388 H 0.5857 0.77288 0.09136 0.0
H389 H 0.63283 0.85345 0.07226 0.0
H390 H 0.61589 0.872 0.06458 0.0
H391 H 0.55624 0.81698 0.06771 0.0
H392 H 0.57344 0.79842 0.07507 0.0
H393 H 0.64587 0.80618 0.09643 0.0
H394 H 0.59518 0.81767 0.10128 0.0
O395 O 0.64078 0.82216 0.07257 0.0
H396 H 0.65105 0.80814 0.12056 0.0
H397 H 0.6005 0.82002 0.12544 0.0
C398 C 0.60328 0.78494 0.07337 0.0
C399 C 0.60652 0.78015 0.06042 0.0
C400 C 0.59584 0.75997 0.05568 0.0
C401 C 0.58154 0.74421 0.06378 0.0
C402 C 0.57801 0.74919 0.07669 0.0
C403 C 0.58875 0.76942 0.08142 0.0
C404 C 0.60442 0.8245 0.07395 0.0
C405 C 0.61611 0.84537 0.07123 0.0
C406 C 0.60637 0.856 0.06696 0.0
C407 C 0.58468 0.84596 0.06548 0.0
C408 C 0.57298 0.82508 0.06851 0.0
C409 C 0.58278 0.81446 0.07276 0.0
C410 C 0.62047 0.81223 0.09707 0.0
C411 C 0.63595 0.80927 0.1027 0.0
C412 C 0.63893 0.81047 0.11649 0.0
C413 C 0.62635 0.81449 0.12492 0.0
C414 C 0.61041 0.81685 0.11923 0.0
C415 C 0.60747 0.81567 0.10541 0.0
P416 P 0.24197 0.76971 0.10281 0.0
H417 H 0.23815 0.74654 0.07866 0.0
H418 H 0.20827 0.7206 0.06593 0.0
H419 H 0.16752 0.73078 0.09126 0.0
H420 H 0.19741 0.75647 0.10401 0.0
H421 H 0.28659 0.78666 0.10071 0.0
H422 H 0.31301 0.81368 0.08741 0.0
H423 H 0.2669 0.82632 0.07109 0.0
H424 H 0.24023 0.79829 0.08401 0.0
H425 H 0.22389 0.7499 0.12765 0.0
H426 H 0.24219 0.80802 0.10981 0.0
O427 O 0.2519 0.75552 0.10807 0.0
H428 H 0.21211 0.7602 0.14733 0.0
H429 H 0.23009 0.81835 0.12943 0.0
C430 C 0.22003 0.75331 0.09233 0.0
C431 C 0.22279 0.74339 0.08133 0.0
C432 C 0.20569 0.72863 0.07403 0.0
C433 C 0.18548 0.7235 0.07764 0.0
C434 C 0.18286 0.73415 0.08835 0.0
C435 C 0.19999 0.74894 0.09563 0.0
C436 C 0.26144 0.79043 0.09331 0.0
C437 C 0.28211 0.79518 0.09424 0.0
C438 C 0.29729 0.81083 0.08668 0.0
C439 C 0.29221 0.82237 0.07817 0.0
C440 C 0.2714 0.81762 0.07736 0.0
C441 C 0.25614 0.80173 0.08483 0.0
C442 C 0.23425 0.7783 0.11736 0.0
C443 C 0.22548 0.76495 0.12801 0.0
C444 C 0.21856 0.77079 0.13921 0.0
C445 C 0.22012 0.7901 0.13996 0.0
C446 C 0.2289 0.80347 0.12923 0.0
C447 C 0.23579 0.79756 0.11798 0.0
P448 P 0.20633 0.41669 0.08542 0.0
H449 H 0.18771 0.41322 0.05939 0.0
H450 H 0.16742 0.42733 0.04996 0.0
H451 H 0.17737 0.46303 0.08602 0.0
H452 H 0.19778 0.4488 0.09541 0.0
H453 H 0.22978 0.39684 0.07808 0.0
H454 H 0.26394 0.40919 0.06858 0.0
H455 H 0.2742 0.47075 0.06915 0.0
H456 H 0.23979 0.45816 0.07884 0.0
H457 H 0.17439 0.4103 0.10457 0.0
H458 H 0.23664 0.42049 0.10583 0.0
O459 O 0.19238 0.39225 0.0805 0.0
H460 H 0.17141 0.40434 0.12852 0.0
H461 H 0.23368 0.41435 0.12978 0.0
C462 C 0.1938 0.42955 0.07822 0.0
C463 C 0.18568 0.42423 0.06523 0.0
C464 C 0.17417 0.43241 0.05982 0.0
C465 C 0.17056 0.44617 0.06728 0.0
C466 C 0.17954 0.45219 0.0801 0.0
C467 C 0.19124 0.44409 0.08548 0.0
C468 C 0.23207 0.42651 0.07891 0.0
C469 C 0.23931 0.41299 0.07612 0.0
C470 C 0.25886 0.42008 0.07063 0.0
C471 C 0.27173 0.44093 0.0679 0.0
C472 C 0.26469 0.4546 0.07113 0.0
C473 C 0.245 0.44743 0.07661 0.0
C474 C 0.20593 0.41642 0.10342 0.0
C475 C 0.18765 0.41187 0.11005 0.0
C476 C 0.18593 0.40838 0.12377 0.0
C477 C 0.20232 0.40889 0.13108 0.0
C478 C 0.22075 0.41376 0.12443 0.0
C479 C 0.22252 0.41746 0.11073 0.0
P480 P 0.45817 0.92036 0.26063 0.0
H481 H 0.4434 0.91869 0.28756 0.0
H482 H 0.40891 0.90515 0.29691 0.0
H483 H 0.38162 0.88112 0.2581 0.0
H484 H 0.4163 0.89486 0.24879 0.0
H485 H 0.49933 0.92893 0.25337 0.0
H486 H 0.52209 0.91691 0.26163 0.0
H487 H 0.47383 0.87566 0.28787 0.0
H488 H 0.45089 0.88718 0.27913 0.0
H489 H 0.45179 0.94806 0.24409 0.0
H490 H 0.46332 0.89814 0.23786 0.0
O491 O 0.47048 0.94403 0.26709 0.0
H492 H 0.45462 0.95442 0.22021 0.0
H493 H 0.46606 0.9043 0.21386 0.0
C494 C 0.43244 0.90792 0.26747 0.0
C495 C 0.42998 0.9103 0.28109 0.0
C496 C 0.41022 0.90245 0.28644 0.0
C497 C 0.39245 0.89212 0.27825 0.0
C498 C 0.39498 0.88924 0.26465 0.0
C499 C 0.41481 0.897 0.25932 0.0
C500 C 0.47334 0.90888 0.26552 0.0
C501 C 0.4935 0.91699 0.26071 0.0
C502 C 0.5066 0.91026 0.26558 0.0
C503 C 0.49994 0.89545 0.27556 0.0
C504 C 0.47947 0.88693 0.28011 0.0
C505 C 0.46631 0.89361 0.27514 0.0
C506 C 0.45781 0.92295 0.24278 0.0
C507 C 0.45475 0.93834 0.23754 0.0
C508 C 0.45625 0.94187 0.22385 0.0
C509 C 0.46077 0.92999 0.21509 0.0
C510 C 0.46293 0.91396 0.22034 0.0
C511 C 0.46132 0.91038 0.23407 0.0
P512 P 0.13909 0.56943 0.24174 0.0
H513 H 0.17028 0.60455 0.25701 0.0
H514 H 0.16912 0.63166 0.26979 0.0
H515 H 0.10373 0.60402 0.26073 0.0
H516 H 0.10495 0.57666 0.24824 0.0
H517 H 0.13388 0.52976 0.23468 0.0
H518 H 0.13052 0.5014 0.24795 0.0
H519 H 0.13045 0.53341 0.2839 0.0
H520 H 0.13407 0.56181 0.27059 0.0
H521 H 0.14281 0.58737 0.21578 0.0
H522 H 0.09628 0.53595 0.23728 0.0
O523 O 0.16301 0.57916 0.23583 0.0
H524 H 0.1192 0.57804 0.19669 0.0
H525 H 0.07241 0.52658 0.21824 0.0
C526 C 0.13783 0.58893 0.25141 0.0
C527 C 0.15571 0.60436 0.25776 0.0
C528 C 0.15503 0.61988 0.26503 0.0
C529 C 0.13639 0.62016 0.26613 0.0
C530 C 0.11832 0.60422 0.26012 0.0
C531 C 0.11903 0.58867 0.25287 0.0
C532 C 0.13405 0.54778 0.25162 0.0
C533 C 0.13283 0.53051 0.24541 0.0
C534 C 0.13082 0.51429 0.25301 0.0
C535 C 0.1302 0.51515 0.26699 0.0
C536 C 0.13106 0.53237 0.27316 0.0
C537 C 0.13301 0.54858 0.26554 0.0
C538 C 0.12146 0.56206 0.22778 0.0
C539 C 0.12751 0.574 0.21635 0.0
C540 C 0.11393 0.56876 0.2055 0.0
C541 C 0.09394 0.55152 0.20593 0.0
C542 C 0.08781 0.53976 0.21753 0.0
C543 C 0.10143 0.54508 0.22841 0.0
P544 P 0.46061 0.52785 0.26225 0.0
H545 H 0.49018 0.54634 0.28434 0.0
H546 H 0.51012 0.58132 0.29307 0.0
H547 H 0.47982 0.6005 0.2647 0.0
H548 H 0.45986 0.56533 0.25596 0.0
H549 H 0.43585 0.48542 0.27016 0.0
H550 H 0.4014 0.46566 0.27956 0.0
H551 H 0.39359 0.51847 0.27751 0.0
H552 H 0.42805 0.53809 0.26784 0.0
H553 H 0.49057 0.55664 0.24361 0.0
H554 H 0.43261 0.49966 0.2415 0.0
O555 O 0.47367 0.51626 0.26676 0.0
H556 H 0.49401 0.55544 0.21957 0.0
H557 H 0.43633 0.49792 0.21742 0.0
C558 C 0.47378 0.55332 0.26937 0.0
C559 C 0.48776 0.55803 0.28001 0.0
C560 C 0.4992 0.57805 0.28497 0.0
C561 C 0.4967 0.59369 0.27947 0.0
C562 C 0.48203 0.58876 0.26916 0.0
C563 C 0.47067 0.5687 0.26414 0.0
C564 C 0.43472 0.51336 0.26858 0.0
C565 C 0.42677 0.49279 0.27175 0.0
C566 C 0.40708 0.48152 0.27719 0.0
C567 C 0.39486 0.49057 0.2795 0.0
C568 C 0.4026 0.51104 0.27586 0.0
C569 C 0.42237 0.52232 0.27041 0.0
C570 C 0.46106 0.52852 0.24433 0.0
C571 C 0.47833 0.54407 0.23794 0.0
C572 C 0.48042 0.54322 0.22418 0.0
C573 C 0.46552 0.52652 0.21654 0.0
C574 C 0.44796 0.51116 0.22295 0.0
C575 C 0.44582 0.51211 0.23675 0.0
Eu576 Eu 0.48777 0.98494 0.99037 0.0
C577 C 0.53527 0.06429 0.02637 0.0
C578 C 0.57143 0.07391 0.02525 0.0
C579 C 0.56196 0.10007 0.02858 0.0
C580 C 0.55025 0.05886 0.02471 0.0
C581 C 0.54093 0.0849 0.02862 0.0
C582 C 0.57718 0.09458 0.02688 0.0
C583 C 0.50475 0.07378 0.03186 0.0
N584 N 0.51515 0.04925 0.02648 0.0
C585 C 0.49994 0.05356 0.02964 0.0
C586 C 0.52532 0.08956 0.03119 0.0
Eu587 Eu 0.50796 0.01548 0.02197 0.0
N588 N 0.54414 0.03875 0.02325 0.0
C589 C 0.55845 0.03252 0.02327 0.0
C590 C 0.58617 0.06769 0.02447 0.0
C591 C 0.57964 0.04687 0.02368 0.0
H592 H 0.484 0.04141 0.03007 0.0
H593 H 0.5909 0.04186 0.02332 0.0
H594 H 0.59337 0.10638 0.02718 0.0
H595 H 0.4926 0.07719 0.03406 0.0
H596 H 0.55368 0.01652 0.02257 0.0
H597 H 0.40469 0.95771 0.99028 0.0
H598 H 0.60259 0.07877 0.02478 0.0
H599 H 0.51181 0.95947 0.98125 0.0
H600 H 0.44187 0.98339 0.99028 0.0
H601 H 0.50347 0.92379 0.97719 0.0
H602 H 0.56662 0.11602 0.03016 0.0
H603 H 0.39337 0.92085 0.98925 0.0
H604 H 0.40293 0.89347 0.98672 0.0
H605 H 0.52903 0.10521 0.03296 0.0
H606 H 0.42983 0.88422 0.98303 0.0
N607 N 0.45167 0.96137 0.98961 0.0
C608 C 0.43721 0.96739 0.98976 0.0
C609 C 0.40975 0.93208 0.98923 0.0
C610 C 0.42463 0.92605 0.98821 0.0
C611 C 0.41607 0.95286 0.98977 0.0
C612 C 0.44574 0.94128 0.98831 0.0
H613 H 0.46733 0.89545 0.97919 0.0
N614 N 0.48081 0.95128 0.98572 0.0
C615 C 0.49133 0.92702 0.97979 0.0
C616 C 0.4608 0.93607 0.98627 0.0
C617 C 0.49599 0.94719 0.98205 0.0
C618 C 0.47092 0.91106 0.98097 0.0
C619 C 0.45529 0.9155 0.98405 0.0
O620 O 0.50227 0.98977 0.97088 0.0
O621 O 0.51369 0.01189 1.00066 0.0
O622 O 0.50334 0.03486 0.00691 0.0
O623 O 0.47847 0.0094 0.99289 0.0
O624 O 0.52198 0.99627 0.98737 0.0
O625 O 0.4756 0.99353 0.97332 0.0
O626 O 0.49349 0.01146 0.04143 0.0
O627 O 0.48206 0.9885 0.01169 0.0
O628 O 0.49319 0.96568 0.00513 0.0
O629 O 0.51741 0.99116 0.01948 0.0
O630 O 0.47371 0.00435 0.02469 0.0
O631 O 0.51906 0.00591 0.03906 0.0
C632 C 0.52893 0.01179 0.99541 0.0
C633 C 0.48053 0.98288 0.95211 0.0
C634 C 0.47902 0.98407 0.92779 0.0
C635 C 0.4868 0.99397 0.94023 0.0
C636 C 0.46499 0.96285 0.92751 0.0
C637 C 0.46647 0.96182 0.95156 0.0
C638 C 0.45878 0.95188 0.93931 0.0
C639 C 0.48876 0.02852 0.99754 0.0
C640 C 0.48889 0.99342 0.96498 0.0
C641 C 0.43437 0.90014 0.98457 0.0
C642 C 0.41906 0.90541 0.98667 0.0
C643 C 0.46676 0.98865 0.0168 0.0
C644 C 0.51496 0.01733 0.06022 0.0
C645 C 0.50754 0.00662 0.07215 0.0
C646 C 0.51567 0.01642 0.08458 0.0
C647 C 0.53143 0.0371 0.08477 0.0
C648 C 0.5306 0.03792 0.06069 0.0
C649 C 0.53878 0.04772 0.07292 0.0
C650 C 0.5077 0.97218 0.01457 0.0
C651 C 0.5062 0.00692 0.04737 0.0
H652 H 0.4975 0.01031 0.94072 0.0
H653 H 0.45899 0.95463 0.91815 0.0
H654 H 0.46149 0.95307 0.96058 0.0
H655 H 0.44801 0.93558 0.93894 0.0
H656 H 0.49526 0.99076 0.07174 0.0
H657 H 0.53831 0.04505 0.0941 0.0
H658 H 0.53649 0.04638 0.05163 0.0
H659 H 0.55093 0.0636 0.07322 0.0
Eu660 Eu 0.01477 0.50558 0.9913 0.0
C661 C 0.93307 0.47352 0.02433 0.0
C662 C 0.92391 0.50003 0.02427 0.0
C663 C 0.8971 0.46456 0.02681 0.0
C664 C 0.93883 0.49389 0.0231 0.0
C665 C 0.91218 0.45865 0.02639 0.0
C666 C 0.90297 0.48523 0.02584 0.0
C667 C 0.92296 0.4336 0.02902 0.0
N668 N 0.94811 0.46844 0.02441 0.0
C669 C 0.9435 0.44896 0.0272 0.0
C670 C 0.90719 0.43842 0.02848 0.0
Eu671 Eu 0.98251 0.49523 0.02132 0.0
N672 N 0.95921 0.50784 0.02171 0.0
C673 C 0.96579 0.52827 0.02187 0.0
C674 C 0.93058 0.52092 0.02436 0.0
C675 C 0.95159 0.5351 0.02308 0.0
H676 H 0.95565 0.44518 0.02767 0.0
H677 H 0.95689 0.55131 0.02318 0.0
H678 H 0.89127 0.48967 0.0266 0.0
H679 H 0.91932 0.41809 0.0309 0.0
H680 H 0.982 0.53943 0.02108 0.0
H681 H 0.04131 0.45011 0.99145 0.0
H682 H 0.91967 0.52627 0.02568 0.0
H683 H 0.04158 0.55542 0.98424 0.0
H684 H 0.0157 0.46156 0.99141 0.0
H685 H 0.07802 0.58276 0.98179 0.0
H686 H 0.88095 0.45335 0.0283 0.0
H687 H 0.07877 0.47554 0.99117 0.0
H688 H 0.1069 0.51229 0.99005 0.0
H689 H 0.89132 0.42654 0.03006 0.0
H690 H 0.11691 0.54842 0.98748 0.0
N691 N 0.03832 0.49322 0.99143 0.0
C692 C 0.03196 0.47284 0.99129 0.0
C693 C 0.06757 0.48066 0.9912 0.0
C694 C 0.07397 0.50148 0.99075 0.0
C695 C 0.04645 0.46627 0.99132 0.0
C696 C 0.05877 0.50735 0.99074 0.0
H697 H 0.10624 0.5748 0.9842 0.0
N698 N 0.04922 0.53245 0.98836 0.0
C699 C 0.07441 0.56733 0.98392 0.0
C700 C 0.0644 0.52762 0.9892 0.0
C701 C 0.05381 0.55182 0.98528 0.0
C702 C 0.0903 0.56279 0.98533 0.0
C703 C 0.08538 0.54267 0.98778 0.0
O704 O 0.01259 0.51585 0.97143 0.0
O705 O 0.98685 0.50441 1.00011 0.0
O706 O 0.96331 0.47164 0.00549 0.0
O707 O 0.98955 0.47192 0.99281 0.0
O708 O 0.00381 0.52834 0.9876 0.0
O709 O 0.00668 0.485 0.97406 0.0
O710 O 0.98506 0.48477 0.04103 0.0
O711 O 0.01036 0.4964 0.01251 0.0
O712 O 0.03391 0.52927 0.00705 0.0
O713 O 0.00777 0.52893 0.01986 0.0
O714 O 0.99344 0.47243 0.02499 0.0
O715 O 0.99073 0.51561 0.03869 0.0
C716 C 0.98746 0.51972 0.99481 0.0
C717 C 0.02104 0.5008 0.95368 0.0
C718 C 0.02349 0.50006 0.92946 0.0
C719 C 0.01199 0.49812 0.94099 0.0
C720 C 0.04421 0.50478 0.93089 0.0
C721 C 0.04167 0.50543 0.95487 0.0
C722 C 0.05318 0.50741 0.94352 0.0
C723 C 0.96996 0.46321 0.99661 0.0
C724 C 0.00881 0.49881 0.96556 0.0
C725 C 0.10068 0.53706 0.98844 0.0
C726 C 0.09498 0.51649 0.98991 0.0
C727 C 0.00982 0.48114 0.01784 0.0
C728 C 0.97737 0.49969 0.05923 0.0
C729 C 0.98759 0.50383 0.07161 0.0
C730 C 0.97682 0.50172 0.0835 0.0
C731 C 0.95561 0.49544 0.08277 0.0
C732 C 0.95625 0.49347 0.05871 0.0
C733 C 0.94545 0.49137 0.07043 0.0
C734 C 0.02732 0.53765 0.01598 0.0
C735 C 0.98899 0.50175 0.04703 0.0
H736 H 0.99595 0.4943 0.94012 0.0
H737 H 0.0536 0.50671 0.92224 0.0
H738 H 0.04888 0.50751 0.96453 0.0
H739 H 0.06914 0.51108 0.94452 0.0
H740 H 0.004 0.5089 0.07193 0.0
H741 H 0.94681 0.49342 0.09173 0.0
H742 H 0.94812 0.49022 0.0493 0.0
H743 H 0.92912 0.48649 0.06996 0.0
Eu744 Eu 0.50881 0.49751 0.02062 0.0
C745 C 0.46203 0.52999 0.9853 0.0
C746 C 0.42588 0.50363 0.98522 0.0
C747 C 0.43532 0.53911 0.98232 0.0
C748 C 0.44702 0.50967 0.98653 0.0
C749 C 0.45637 0.54491 0.98295 0.0
C750 C 0.42009 0.51849 0.9834 0.0
C751 C 0.49268 0.56982 0.9807 0.0
N752 N 0.4822 0.535 0.98561 0.0
C753 C 0.4975 0.55443 0.98287 0.0
C754 C 0.47204 0.56509 0.98088 0.0
Eu755 Eu 0.4892 0.50825 0.98956 0.0
N756 N 0.45311 0.49567 0.98819 0.0
C757 C 0.43889 0.47526 0.98797 0.0
C758 C 0.41122 0.48276 0.98533 0.0
C759 C 0.41775 0.46852 0.98669 0.0
H760 H 0.51349 0.55815 0.98273 0.0
H761 H 0.40653 0.45233 0.98666 0.0
H762 H 0.40391 0.51414 0.98253 0.0
H763 H 0.50489 0.58529 0.97886 0.0
H764 H 0.44371 0.46406 0.9889 0.0
H765 H 0.59138 0.55407 0.02303 0.0
H766 H 0.39488 0.47749 0.98403 0.0
H767 H 0.48534 0.44775 0.02766 0.0
H768 H 0.55408 0.54201 0.02167 0.0
H769 H 0.49443 0.42081 0.03099 0.0
H770 H 0.43065 0.55037 0.98062 0.0
H771 H 0.60358 0.52917 0.02426 0.0
H772 H 0.5949 0.49254 0.02556 0.0
H773 H 0.46833 0.57701 0.97908 0.0
H774 H 0.56851 0.45623 0.02757 0.0
N775 N 0.54502 0.51046 0.02164 0.0
C776 C 0.55908 0.53091 0.02212 0.0
C777 C 0.58712 0.52374 0.02353 0.0
C778 C 0.57262 0.50281 0.02361 0.0
C779 C 0.58031 0.53784 0.0229 0.0
C780 C 0.55139 0.49657 0.02274 0.0
H781 H 0.53103 0.42937 0.02982 0.0
N782 N 0.51638 0.47104 0.02422 0.0
C783 C 0.50643 0.43631 0.02899 0.0
C784 C 0.53659 0.4762 0.02403 0.0
C785 C 0.50134 0.45158 0.02714 0.0
C786 C 0.5271 0.44119 0.02828 0.0
C787 C 0.54253 0.46141 0.02602 0.0
O788 O 0.49464 0.48666 0.04001 0.0
O789 O 0.48271 0.49881 0.01072 0.0
O790 O 0.4931 0.53193 0.005 0.0
O791 O 0.51771 0.53113 0.01903 0.0
O792 O 0.4746 0.47443 0.02302 0.0
O793 O 0.52017 0.51762 0.0382 0.0
O794 O 0.50413 0.51865 0.97034 0.0
O795 O 0.51512 0.50689 0.99954 0.0
O796 O 0.505 0.47405 0.00507 0.0
O797 O 0.48019 0.47457 0.99113 0.0
O798 O 0.52357 0.53114 0.98713 0.0
O799 O 0.47749 0.48826 0.97193 0.0
C800 C 0.46746 0.48326 0.01553 0.0
C801 C 0.51684 0.50126 0.05864 0.0
C802 C 0.51851 0.50188 0.08296 0.0
C803 C 0.50991 0.50414 0.07101 0.0
C804 C 0.53409 0.49658 0.08225 0.0
C805 C 0.53244 0.49611 0.05819 0.0
C806 C 0.54099 0.49376 0.06994 0.0
C807 C 0.50761 0.54013 0.01441 0.0
C808 C 0.5076 0.50355 0.04629 0.0
C809 C 0.56364 0.46738 0.02616 0.0
C810 C 0.57866 0.48806 0.02501 0.0
C811 C 0.53052 0.52226 0.99474 0.0
C812 C 0.48283 0.5047 0.95127 0.0
C813 C 0.49033 0.50135 0.93927 0.0
C814 C 0.48338 0.50453 0.92695 0.0
C815 C 0.46872 0.51105 0.92685 0.0
C816 C 0.46814 0.51107 0.95096 0.0
C817 C 0.46113 0.51422 0.93879 0.0
C818 C 0.49065 0.46585 0.99557 0.0
C819 C 0.49089 0.50196 0.96398 0.0
H820 H 0.49802 0.50838 0.07131 0.0
H821 H 0.54078 0.49435 0.09122 0.0
H822 H 0.538 0.49389 0.04878 0.0
H823 H 0.55295 0.48967 0.06951 0.0
H824 H 0.50185 0.49662 0.93954 0.0
H825 H 0.46294 0.51344 0.91753 0.0
H826 H 0.46215 0.51367 0.96008 0.0
H827 H 0.44978 0.51914 0.93861 0.0
Eu828 Eu 0.15662 0.31891 0.32379 0.0
C829 C 0.20284 0.39657 0.36142 0.0
C830 C 0.23896 0.4059 0.36154 0.0
C831 C 0.22956 0.43203 0.3652 0.0
C832 C 0.21783 0.3911 0.35993 0.0
C833 C 0.2085 0.41704 0.3643 0.0
C834 C 0.24477 0.42646 0.36387 0.0
C835 C 0.17216 0.40602 0.36651 0.0
N836 N 0.18267 0.38165 0.36083 0.0
C837 C 0.16735 0.38591 0.36378 0.0
C838 C 0.19283 0.4217 0.36662 0.0
Eu839 Eu 0.17558 0.34805 0.35588 0.0
N840 N 0.21169 0.37107 0.35782 0.0
C841 C 0.22586 0.36467 0.35794 0.0
C842 C 0.25357 0.39948 0.36126 0.0
C843 C 0.24699 0.37877 0.35948 0.0
H844 H 0.15135 0.37382 0.36368 0.0
H845 H 0.25816 0.37362 0.3594 0.0
H846 H 0.26094 0.43807 0.36497 0.0
H847 H 0.15995 0.40939 0.36854 0.0
H848 H 0.22103 0.34872 0.35666 0.0
H849 H 0.07359 0.29202 0.32299 0.0
H850 H 0.26989 0.41031 0.36276 0.0
H851 H 0.18086 0.29373 0.31443 0.0
H852 H 0.1108 0.31756 0.32378 0.0
H853 H 0.1725 0.25826 0.30947 0.0
H854 H 0.23423 0.44787 0.3673 0.0
H855 H 0.06216 0.25523 0.32071 0.0
H856 H 0.07163 0.22793 0.31734 0.0
H857 H 0.19654 0.43725 0.36884 0.0
H858 H 0.09855 0.21872 0.31361 0.0
N859 N 0.12051 0.29551 0.32236 0.0
C860 C 0.1061 0.3016 0.32274 0.0
C861 C 0.07855 0.26639 0.32105 0.0
C862 C 0.0934 0.26035 0.31984 0.0
C863 C 0.08495 0.28714 0.3223 0.0
C864 C 0.11454 0.2755 0.32045 0.0
H865 H 0.13618 0.22996 0.31043 0.0
N866 N 0.14969 0.28546 0.31843 0.0
C867 C 0.16029 0.26142 0.31203 0.0
C868 C 0.12962 0.2703 0.31842 0.0
C869 C 0.16497 0.28148 0.31482 0.0
C870 C 0.13978 0.24548 0.31262 0.0
C871 C 0.12409 0.24985 0.31564 0.0
O872 O 0.17238 0.32533 0.30467 0.0
O873 O 0.18232 0.34553 0.33461 0.0
O874 O 0.17178 0.36816 0.34101 0.0
O875 O 0.14724 0.34325 0.32659 0.0
O876 O 0.19085 0.32988 0.3215 0.0
O877 O 0.14482 0.32766 0.30661 0.0
O878 O 0.1609 0.34397 0.37529 0.0
O879 O 0.15006 0.32146 0.34509 0.0
O880 O 0.1614 0.29884 0.33821 0.0
O881 O 0.1848 0.32357 0.3533 0.0
O882 O 0.14123 0.33673 0.35822 0.0
O883 O 0.18589 0.33756 0.37289 0.0
C884 C 0.19768 0.34528 0.32965 0.0
C885 C 0.15165 0.31854 0.28541 0.0
C886 C 0.15277 0.32056 0.26111 0.0
C887 C 0.15883 0.33012 0.27378 0.0
C888 C 0.13928 0.29929 0.26031 0.0
C889 C 0.13813 0.29738 0.28436 0.0
C890 C 0.13197 0.28784 0.27186 0.0
C891 C 0.15747 0.36221 0.33149 0.0
C892 C 0.15889 0.32858 0.29855 0.0
C893 C 0.10311 0.23456 0.31559 0.0
C894 C 0.08779 0.2398 0.31771 0.0
C895 C 0.13456 0.32129 0.35012 0.0
C896 C 0.18211 0.349 0.39412 0.0
C897 C 0.17424 0.33835 0.40603 0.0
C898 C 0.18267 0.34793 0.41847 0.0
C899 C 0.19918 0.36828 0.41871 0.0
C900 C 0.19847 0.36927 0.39465 0.0
C901 C 0.20695 0.37882 0.40689 0.0
C902 C 0.17536 0.30484 0.34797 0.0
C903 C 0.1732 0.33886 0.3812 0.0
H904 H 0.16942 0.34647 0.27459 0.0
H905 H 0.13417 0.29152 0.25072 0.0
H906 H 0.13242 0.28825 0.29319 0.0
H907 H 0.12153 0.27149 0.27112 0.0
H908 H 0.16144 0.32274 0.40559 0.0
H909 H 0.20632 0.37601 0.42804 0.0
H910 H 0.20474 0.37768 0.38563 0.0
H911 H 0.21967 0.39444 0.40721 0.0
Eu912 Eu 0.68152 0.83923 0.32361 0.0
C913 C 0.5993 0.80644 0.35543 0.0
C914 C 0.59006 0.83288 0.35462 0.0
C915 C 0.56309 0.79726 0.35624 0.0
C916 C 0.60513 0.82684 0.35436 0.0
C917 C 0.57825 0.79144 0.35664 0.0
C918 C 0.56899 0.81795 0.35526 0.0
C919 C 0.58886 0.76635 0.35976 0.0
N920 N 0.61434 0.80139 0.35602 0.0
C921 C 0.60953 0.7818 0.35866 0.0
C922 C 0.57312 0.77114 0.3586 0.0
Eu923 Eu 0.6489 0.82823 0.35355 0.0
N924 N 0.62562 0.84088 0.35384 0.0
C925 C 0.63217 0.86129 0.35444 0.0
C926 C 0.59665 0.85376 0.35465 0.0
C927 C 0.61781 0.86803 0.3547 0.0
H928 H 0.62166 0.77803 0.3595 0.0
H929 H 0.62308 0.88423 0.35494 0.0
H930 H 0.55718 0.82229 0.35533 0.0
H931 H 0.58509 0.75077 0.36152 0.0
H932 H 0.64847 0.87246 0.35447 0.0
H933 H 0.70581 0.78205 0.32226 0.0
H934 H 0.58555 0.85901 0.35493 0.0
H935 H 0.70941 0.88919 0.31731 0.0
H936 H 0.68107 0.79451 0.32312 0.0
H937 H 0.74608 0.91589 0.31476 0.0
H938 H 0.54682 0.78595 0.35705 0.0
H939 H 0.7434 0.80664 0.32154 0.0
H940 H 0.77227 0.84315 0.32064 0.0
H941 H 0.55712 0.75917 0.35954 0.0
H942 H 0.78328 0.87962 0.31885 0.0
N943 N 0.70433 0.82597 0.32343 0.0
C944 C 0.6974 0.80548 0.32293 0.0
C945 C 0.7326 0.81224 0.32207 0.0
C946 C 0.7396 0.83322 0.32206 0.0
C947 C 0.7114 0.79832 0.32243 0.0
C948 C 0.72487 0.83969 0.32267 0.0
H949 H 0.77361 0.90686 0.31647 0.0
N950 N 0.71626 0.86554 0.32092 0.0
C951 C 0.74208 0.90029 0.31668 0.0
C952 C 0.73105 0.86015 0.32145 0.0
C953 C 0.72135 0.88514 0.3181 0.0
C954 C 0.75758 0.89514 0.3177 0.0
C955 C 0.75214 0.8748 0.31986 0.0
O956 O 0.67986 0.85041 0.30395 0.0
O957 O 0.65386 0.83838 0.33252 0.0
O958 O 0.62971 0.80544 0.33737 0.0
O959 O 0.6559 0.80565 0.3247 0.0
O960 O 0.67137 0.86268 0.32037 0.0
O961 O 0.67279 0.81909 0.30609 0.0
O962 O 0.65058 0.81697 0.37316 0.0
O963 O 0.67666 0.82941 0.34464 0.0
O964 O 0.70065 0.86228 0.33969 0.0
O965 O 0.67462 0.86187 0.35272 0.0
O966 O 0.65972 0.80521 0.35689 0.0
O967 O 0.65676 0.84806 0.37117 0.0
C968 C 0.65495 0.85407 0.32751 0.0
C969 C 0.68733 0.83519 0.28583 0.0
C970 C 0.689 0.83362 0.2616 0.0
C971 C 0.67783 0.83191 0.27325 0.0
C972 C 0.70986 0.83872 0.2628 0.0
C973 C 0.7081 0.8402 0.2868 0.0
C974 C 0.7193 0.84197 0.27533 0.0
C975 C 0.63629 0.79707 0.32843 0.0
C976 C 0.67539 0.83335 0.29783 0.0
C977 C 0.76699 0.86858 0.31997 0.0
C978 C 0.76072 0.84781 0.321 0.0
C979 C 0.67607 0.81399 0.3497 0.0
C980 C 0.64243 0.83153 0.39137 0.0
C981 C 0.65211 0.83507 0.4039 0.0
C982 C 0.641 0.83308 0.4156 0.0
C983 C 0.61999 0.82746 0.41456 0.0
C984 C 0.62147 0.8259 0.39051 0.0
C985 C 0.61033 0.82387 0.40207 0.0
C986 C 0.6942 0.87046 0.34888 0.0
C987 C 0.65449 0.83383 0.37936 0.0
H988 H 0.66169 0.82779 0.27256 0.0
H989 H 0.71899 0.84048 0.25404 0.0
H990 H 0.71566 0.84276 0.29638 0.0
H991 H 0.73536 0.84593 0.27615 0.0
H992 H 0.6684 0.83968 0.40449 0.0
H993 H 0.61099 0.82562 0.42339 0.0
H994 H 0.61376 0.8231 0.38096 0.0
H995 H 0.59414 0.81949 0.40135 0.0
Eu996 Eu 0.17711 0.83271 0.35441 0.0
C997 C 0.12807 0.86356 0.31956 0.0
C998 C 0.09187 0.83771 0.32105 0.0
C999 C 0.10156 0.87312 0.31743 0.0
C1000 C 0.113 0.84345 0.32148 0.0
C1001 C 0.12253 0.87857 0.31727 0.0
C1002 C 0.08625 0.85271 0.3193 0.0
C1003 C 0.15869 0.90286 0.3137 0.0
N1004 N 0.14813 0.86824 0.31928 0.0
C1005 C 0.16338 0.88739 0.31592 0.0
C1006 C 0.1382 0.89849 0.31452 0.0
Eu1007 Eu 0.15501 0.84148 0.32359 0.0
N1008 N 0.11895 0.82933 0.32307 0.0
C1009 C 0.10451 0.80901 0.32341 0.0
C1010 C 0.07701 0.81699 0.32201 0.0
C1011 C 0.08337 0.80256 0.32304 0.0
H1012 H 0.17926 0.89087 0.31533 0.0
H1013 H 0.07201 0.78645 0.32356 0.0
H1014 H 0.0701 0.84861 0.31908 0.0
H1015 H 0.17088 0.91813 0.31136 0.0
H1016 H 0.10919 0.79768 0.32423 0.0
H1017 H 0.25997 0.88838 0.35304 0.0
H1018 H 0.06063 0.81196 0.32166 0.0
H1019 H 0.15381 0.78349 0.3629 0.0
H1020 H 0.22273 0.87687 0.35364 0.0
H1021 H 0.16271 0.75642 0.36619 0.0
H1022 H 0.097 0.88446 0.31579 0.0
H1023 H 0.27173 0.86309 0.35378 0.0
H1024 H 0.26271 0.82648 0.35615 0.0
H1025 H 0.13459 0.91047 0.31272 0.0
H1026 H 0.23626 0.79056 0.35977 0.0
N1027 N 0.21329 0.84527 0.35439 0.0
C1028 C 0.22757 0.86564 0.35404 0.0
C1029 C 0.25533 0.85793 0.35408 0.0
C1030 C 0.24067 0.83717 0.35522 0.0
C1031 C 0.24875 0.87225 0.35369 0.0
C1032 C 0.2195 0.83126 0.35546 0.0
H1033 H 0.19897 0.76434 0.36372 0.0
N1034 N 0.1846 0.80626 0.35834 0.0
C1035 C 0.17466 0.77172 0.3637 0.0
C1036 C 0.20468 0.81111 0.3575 0.0
C1037 C 0.16968 0.78707 0.36188 0.0
C1038 C 0.19513 0.77624 0.36227 0.0
C1039 C 0.2105 0.79621 0.35933 0.0
O1040 O 0.1643 0.82352 0.3743 0.0
O1041 O 0.1504 0.83343 0.34503 0.0
O1042 O 0.16034 0.86621 0.33861 0.0
O1043 O 0.1861 0.86619 0.35189 0.0
O1044 O 0.1431 0.81023 0.35827 0.0
O1045 O 0.18999 0.85409 0.3713 0.0
O1046 O 0.16859 0.85033 0.30387 0.0
O1047 O 0.18162 0.84068 0.333 0.0
O1048 O 0.1716 0.80801 0.33937 0.0
O1049 O 0.14571 0.80787 0.32616 0.0
O1050 O 0.18906 0.86394 0.31983 0.0
O1051 O 0.14209 0.82016 0.30667 0.0
C1052 C 0.13552 0.81848 0.35061 0.0
C1053 C 0.18769 0.83931 0.39225 0.0
C1054 C 0.18968 0.84037 0.41657 0.0
C1055 C 0.18056 0.84189 0.40464 0.0
C1056 C 0.20602 0.83616 0.41585 0.0
C1057 C 0.204 0.83517 0.39177 0.0
C1058 C 0.2131 0.8336 0.40352 0.0
C1059 C 0.17559 0.87491 0.34752 0.0
C1060 C 0.17783 0.84079 0.37994 0.0
C1061 C 0.23148 0.80182 0.35851 0.0
C1062 C 0.24654 0.82227 0.35645 0.0
C1063 C 0.19656 0.85558 0.32744 0.0
C1064 C 0.14609 0.83488 0.28548 0.0
C1065 C 0.15379 0.83178 0.27349 0.0
C1066 C 0.14586 0.83363 0.26115 0.0
C1067 C 0.13008 0.83867 0.26106 0.0
C1068 C 0.13036 0.83987 0.28519 0.0
C1069 C 0.12241 0.84174 0.27301 0.0
C1070 C 0.15638 0.79928 0.33045 0.0
C1071 C 0.15495 0.83318 0.29816 0.0
H1072 H 0.16808 0.84531 0.40495 0.0
H1073 H 0.21317 0.83455 0.42481 0.0
H1074 H 0.20967 0.83313 0.38233 0.0
H1075 H 0.22563 0.83032 0.40309 0.0
H1076 H 0.16617 0.82823 0.2738 0.0
H1077 H 0.12346 0.83996 0.25175 0.0
H1078 H 0.12427 0.84232 0.29433 0.0
H1079 H 0.11023 0.84555 0.27282 0.0
Eu1080 Eu 0.82137 0.65229 0.65629 0.0
C1081 C 0.86709 0.72983 0.69409 0.0
C1082 C 0.90338 0.73985 0.69349 0.0
C1083 C 0.89343 0.76552 0.69748 0.0
C1084 C 0.88229 0.72471 0.69236 0.0
C1085 C 0.87246 0.75022 0.69694 0.0
C1086 C 0.90887 0.76034 0.69576 0.0
C1087 C 0.83606 0.73857 0.69967 0.0
N1088 N 0.84701 0.71465 0.69368 0.0
C1089 C 0.83154 0.71857 0.69687 0.0
C1090 C 0.8566 0.75452 0.69955 0.0
Eu1091 Eu 0.84042 0.68127 0.68843 0.0
N1092 N 0.87645 0.70475 0.69031 0.0
C1093 C 0.8909 0.69871 0.6902 0.0
C1094 C 0.9183 0.73386 0.69271 0.0
C1095 C 0.91201 0.71316 0.69121 0.0
H1096 H 0.81562 0.70631 0.6969 0.0
H1097 H 0.92341 0.70832 0.69081 0.0
H1098 H 0.92499 0.77221 0.69653 0.0
H1099 H 0.82372 0.74168 0.7019 0.0
H1100 H 0.88628 0.68279 0.68901 0.0
H1101 H 0.73909 0.62841 0.65393 0.0
H1102 H 0.93466 0.74502 0.69356 0.0
H1103 H 0.84419 0.6255 0.64769 0.0
H1104 H 0.7765 0.65283 0.65553 0.0
H1105 H 0.83461 0.58954 0.64316 0.0
H1106 H 0.89787 0.78131 0.69955 0.0
H1107 H 0.72635 0.59137 0.65174 0.0
H1108 H 0.73447 0.56297 0.64942 0.0
H1109 H 0.86008 0.76999 0.70178 0.0
H1110 H 0.76049 0.55234 0.64656 0.0
N1111 N 0.78508 0.62989 0.6547 0.0
C1112 C 0.77126 0.63674 0.65462 0.0
C1113 C 0.74285 0.60202 0.65254 0.0
C1114 C 0.75711 0.59516 0.65199 0.0
C1115 C 0.74998 0.62292 0.65372 0.0
C1116 C 0.77841 0.60969 0.65297 0.0
H1117 H 0.79786 0.56218 0.64397 0.0
N1118 N 0.81327 0.61836 0.65138 0.0
C1119 C 0.82275 0.5933 0.64549 0.0
C1120 C 0.79299 0.60372 0.6513 0.0
C1121 C 0.82812 0.61362 0.64802 0.0
C1122 C 0.802 0.5779 0.64601 0.0
C1123 C 0.78677 0.58305 0.6487 0.0
O1124 O 0.83627 0.65654 0.63698 0.0
O1125 O 0.84716 0.67867 0.66713 0.0
O1126 O 0.83698 0.70176 0.67375 0.0
O1127 O 0.81286 0.67735 0.65885 0.0
O1128 O 0.85557 0.66311 0.65387 0.0
O1129 O 0.81096 0.66251 0.63917 0.0
O1130 O 0.82495 0.6755 0.70763 0.0
O1131 O 0.8148 0.65483 0.67754 0.0
O1132 O 0.82575 0.6322 0.67094 0.0
O1133 O 0.84987 0.65703 0.68564 0.0
O1134 O 0.80607 0.6702 0.69064 0.0
O1135 O 0.85172 0.67182 0.70549 0.0
C1136 C 0.86247 0.67846 0.66206 0.0
C1137 C 0.81535 0.65136 0.618 0.0
C1138 C 0.81391 0.65326 0.59373 0.0
C1139 C 0.82187 0.66274 0.60626 0.0
C1140 C 0.79939 0.63217 0.59323 0.0
C1141 C 0.8008 0.63042 0.61724 0.0
C1142 C 0.7929 0.6209 0.6049 0.0
C1143 C 0.82305 0.69617 0.66402 0.0
C1144 C 0.8239 0.66146 0.63096 0.0
C1145 C 0.76558 0.56834 0.64842 0.0
C1146 C 0.75077 0.57439 0.65004 0.0
C1147 C 0.79934 0.65488 0.68244 0.0
C1148 C 0.84597 0.68182 0.72669 0.0
C1149 C 0.83853 0.67059 0.73844 0.0
C1150 C 0.84542 0.68029 0.75101 0.0
C1151 C 0.86002 0.70134 0.7516 0.0
C1152 C 0.86055 0.70275 0.72753 0.0
C1153 C 0.86753 0.71242 0.73993 0.0
C1154 C 0.84005 0.6382 0.68048 0.0
C1155 C 0.8381 0.67166 0.71365 0.0
H1156 H 0.83294 0.67898 0.60693 0.0
H1157 H 0.79323 0.62426 0.5838 0.0
H1158 H 0.7956 0.62145 0.62615 0.0
H1159 H 0.78175 0.6047 0.60437 0.0
H1160 H 0.82712 0.65444 0.73778 0.0
H1161 H 0.86582 0.70919 0.7611 0.0
H1162 H 0.86648 0.7116 0.71862 0.0
H1163 H 0.87881 0.72859 0.74051 0.0
Eu1164 Eu 0.3481 0.17062 0.6576 0.0
C1165 C 0.26552 0.14184 0.68885 0.0
C1166 C 0.25711 0.16872 0.6867 0.0
C1167 C 0.22958 0.13358 0.68941 0.0
C1168 C 0.27181 0.1622 0.68698 0.0
C1169 C 0.24437 0.12734 0.69035 0.0
C1170 C 0.23594 0.15425 0.68761 0.0
C1171 C 0.2542 0.102 0.69488 0.0
N1172 N 0.28023 0.1364 0.68996 0.0
C1173 C 0.27499 0.11698 0.69343 0.0
C1174 C 0.23879 0.10714 0.69317 0.0
Eu1175 Eu 0.31504 0.16243 0.68707 0.0
N1176 N 0.29239 0.17581 0.68621 0.0
C1177 C 0.2994 0.19631 0.68602 0.0
C1178 C 0.26418 0.18966 0.68594 0.0
C1179 C 0.28544 0.20352 0.68576 0.0
H1180 H 0.28686 0.11293 0.69471 0.0
H1181 H 0.2911 0.21978 0.68542 0.0
H1182 H 0.22441 0.15895 0.68727 0.0
H1183 H 0.25009 0.08652 0.6973 0.0
H1184 H 0.31578 0.20719 0.68586 0.0
H1185 H 0.3718 0.11309 0.66094 0.0
H1186 H 0.25338 0.19528 0.68579 0.0
H1187 H 0.37663 0.2197 0.64917 0.0
H1188 H 0.34721 0.12567 0.65909 0.0
H1189 H 0.41354 0.24597 0.64685 0.0
H1190 H 0.21323 0.12265 0.69043 0.0
H1191 H 0.4095 0.13754 0.66151 0.0
H1192 H 0.43862 0.17385 0.65993 0.0
H1193 H 0.2227 0.09554 0.69438 0.0
H1194 H 0.45001 0.21004 0.65602 0.0
N1195 N 0.37063 0.15706 0.65892 0.0
C1196 C 0.36358 0.13655 0.65926 0.0
C1197 C 0.39876 0.14317 0.66068 0.0
C1198 C 0.4059 0.16409 0.65955 0.0
C1199 C 0.3775 0.12933 0.66033 0.0
C1200 C 0.39125 0.17062 0.65855 0.0
H1201 H 0.44076 0.23701 0.65087 0.0
N1202 N 0.38303 0.19635 0.65468 0.0
C1203 C 0.40929 0.23056 0.64958 0.0
C1204 C 0.39766 0.19092 0.65635 0.0
C1205 C 0.38843 0.21566 0.65086 0.0
C1206 C 0.42461 0.22546 0.65189 0.0
C1207 C 0.41889 0.20535 0.65512 0.0
O1208 O 0.34654 0.1802 0.63741 0.0
O1209 O 0.32049 0.1708 0.66572 0.0
O1210 O 0.29592 0.13826 0.67149 0.0
O1211 O 0.32214 0.13735 0.6595 0.0
O1212 O 0.33822 0.19392 0.65283 0.0
O1213 O 0.33989 0.14926 0.64079 0.0
O1214 O 0.31651 0.15257 0.70719 0.0
O1215 O 0.34266 0.16242 0.67895 0.0
O1216 O 0.36718 0.19496 0.67303 0.0
O1217 O 0.34116 0.19578 0.68538 0.0
O1218 O 0.32512 0.13928 0.69186 0.0
O1219 O 0.32317 0.18359 0.70398 0.0
C1220 C 0.32174 0.18604 0.65991 0.0
C1221 C 0.35459 0.16398 0.62023 0.0
C1222 C 0.35721 0.16277 0.59605 0.0
C1223 C 0.3458 0.1615 0.60748 0.0
C1224 C 0.37761 0.16658 0.59763 0.0
C1225 C 0.37491 0.16773 0.6216 0.0
C1226 C 0.38634 0.16902 0.61033 0.0
C1227 C 0.30248 0.12922 0.66304 0.0
C1228 C 0.34242 0.1628 0.63196 0.0
C1229 C 0.43361 0.19914 0.65678 0.0
C1230 C 0.42713 0.17854 0.659 0.0
C1231 C 0.34162 0.1473 0.68479 0.0
C1232 C 0.30876 0.16874 0.72459 0.0
C1233 C 0.31817 0.17203 0.73718 0.0
C1234 C 0.30718 0.17096 0.74879 0.0
C1235 C 0.28649 0.16638 0.74755 0.0
C1236 C 0.28815 0.16424 0.72354 0.0
C1237 C 0.27708 0.16305 0.73499 0.0
C1238 C 0.36078 0.20388 0.68171 0.0
C1239 C 0.32069 0.16994 0.71272 0.0
H1240 H 0.32999 0.15837 0.6065 0.0
H1241 H 0.38693 0.16796 0.58905 0.0
H1242 H 0.38193 0.16968 0.63133 0.0
H1243 H 0.40206 0.172 0.61144 0.0
H1244 H 0.33402 0.17521 0.73793 0.0
H1245 H 0.27767 0.16566 0.75626 0.0
H1246 H 0.28065 0.16168 0.71393 0.0
H1247 H 0.26119 0.15962 0.73412 0.0
Eu1248 Eu 0.84237 0.16565 0.68849 0.0
C1249 C 0.79304 0.195 0.65254 0.0
C1250 C 0.75699 0.1685 0.65317 0.0
C1251 C 0.76604 0.20362 0.6491 0.0
C1252 C 0.7782 0.17479 0.65443 0.0
C1253 C 0.78715 0.2096 0.64965 0.0
C1254 C 0.75099 0.18307 0.65079 0.0
C1255 C 0.8233 0.23448 0.64669 0.0
N1256 N 0.81325 0.20015 0.65273 0.0
C1257 C 0.82834 0.21938 0.64939 0.0
C1258 C 0.80262 0.22963 0.64695 0.0
Eu1259 Eu 0.82066 0.17387 0.65739 0.0
N1260 N 0.78449 0.16104 0.6566 0.0
C1261 C 0.77038 0.14063 0.65701 0.0
C1262 C 0.74248 0.14764 0.65383 0.0
C1263 C 0.7492 0.13365 0.65579 0.0
H1264 H 0.84435 0.22319 0.64916 0.0
H1265 H 0.73808 0.11747 0.65621 0.0
H1266 H 0.73475 0.17854 0.64994 0.0
H1267 H 0.83535 0.24981 0.64436 0.0
H1268 H 0.77534 0.1296 0.65836 0.0
H1269 H 0.9252 0.22148 0.687 0.0
H1270 H 0.7261 0.14216 0.65252 0.0
H1271 H 0.81927 0.11681 0.69778 0.0
H1272 H 0.88794 0.20989 0.68748 0.0
H1273 H 0.82832 0.09 0.70178 0.0
H1274 H 0.7612 0.21463 0.64698 0.0
H1275 H 0.93708 0.19632 0.68822 0.0
H1276 H 0.92819 0.15984 0.69113 0.0
H1277 H 0.79873 0.2413 0.64473 0.0
H1278 H 0.90183 0.12404 0.69523 0.0
N1279 N 0.87859 0.17833 0.6886 0.0
C1280 C 0.89283 0.1987 0.68808 0.0
C1281 C 0.92066 0.19111 0.68845 0.0
C1282 C 0.90606 0.17038 0.6898 0.0
C1283 C 0.91402 0.20537 0.68779 0.0
C1284 C 0.88487 0.16441 0.68994 0.0
H1285 H 0.8646 0.09793 0.69946 0.0
N1286 N 0.85001 0.13945 0.69299 0.0
C1287 C 0.84021 0.1052 0.69905 0.0
C1288 C 0.8701 0.14433 0.69222 0.0
C1289 C 0.83515 0.1204 0.69682 0.0
C1290 C 0.8607 0.10972 0.69769 0.0
C1291 C 0.87601 0.12956 0.69443 0.0
O1292 O 0.82934 0.15685 0.70837 0.0
O1293 O 0.81564 0.16618 0.67887 0.0
O1294 O 0.82562 0.19875 0.67219 0.0
O1295 O 0.85132 0.19905 0.68568 0.0
O1296 O 0.80836 0.14295 0.69206 0.0
O1297 O 0.85511 0.1873 0.70524 0.0
O1298 O 0.83417 0.18299 0.63766 0.0
O1299 O 0.84721 0.17326 0.66702 0.0
O1300 O 0.83719 0.14065 0.67381 0.0
O1301 O 0.81179 0.14039 0.66001 0.0
O1302 O 0.85474 0.19644 0.65378 0.0
O1303 O 0.80842 0.15239 0.64053 0.0
C1304 C 0.80075 0.1511 0.68434 0.0
C1305 C 0.8527 0.1728 0.7263 0.0
C1306 C 0.8546 0.17399 0.75063 0.0
C1307 C 0.84549 0.1754 0.73865 0.0
C1308 C 0.87099 0.16984 0.74998 0.0
C1309 C 0.86908 0.16875 0.7259 0.0
C1310 C 0.87815 0.16727 0.7377 0.0
C1311 C 0.84082 0.20766 0.68112 0.0
C1312 C 0.84289 0.17417 0.71394 0.0
C1313 C 0.897 0.13521 0.69369 0.0
C1314 C 0.912 0.15558 0.69136 0.0
C1315 C 0.8622 0.18814 0.66148 0.0
C1316 C 0.81174 0.16681 0.6193 0.0
C1317 C 0.81987 0.16437 0.6073 0.0
C1318 C 0.81146 0.16556 0.59497 0.0
C1319 C 0.79479 0.16931 0.5949 0.0
C1320 C 0.79513 0.17052 0.61902 0.0
C1321 C 0.78672 0.17177 0.60686 0.0
C1322 C 0.82236 0.13188 0.66463 0.0
C1323 C 0.82095 0.16562 0.63199 0.0
H1324 H 0.83297 0.17875 0.7389 0.0
H1325 H 0.87812 0.1683 0.75898 0.0
H1326 H 0.87485 0.16673 0.71651 0.0
H1327 H 0.89074 0.16405 0.73732 0.0
H1328 H 0.8329 0.16179 0.60758 0.0
H1329 H 0.78776 0.17004 0.58562 0.0
H1330 H 0.78866 0.17241 0.62815 0.0
H1331 H 0.77385 0.17457 0.6067 0.0
H1332 H 0.2894 0.83429 0.05276 0.0
H1333 H 0.31661 0.8621 0.04008 0.0
H1334 H 0.3597 0.87579 0.07269 0.0
H1335 H 0.33239 0.84912 0.08574 0.0
H1336 H 0.36307 0.90945 0.06356 0.0
H1337 H 0.36379 0.86298 0.02058 0.0
H1338 H 0.33906 0.86094 0.02323 0.0
H1339 H 0.34969 0.85161 0.03557 0.0
C1340 C 0.3046 0.84335 0.05731 0.0
C1341 C 0.30865 0.83927 0.07029 0.0
C1342 C 0.32026 0.85905 0.04993 0.0
C1343 C 0.34036 0.87077 0.05529 0.0
C1344 C 0.34437 0.86685 0.06826 0.0
H1345 H 0.4578 0.94904 0.01885 0.0
H1346 H 0.42548 0.92015 0.0267 0.0
C1347 C 0.32873 0.8514 0.07569 0.0
C1348 C 0.3572 0.88768 0.04772 0.0
H1349 H 0.38514 0.89896 0.01906 0.0
C1350 C 0.36785 0.90713 0.05382 0.0
C1351 C 0.3636 0.88463 0.03506 0.0
C1352 C 0.35359 0.86388 0.02826 0.0
C1353 C 0.3849 0.9235 0.04778 0.0
C1354 C 0.39102 0.9206 0.03499 0.0
C1355 C 0.38025 0.90122 0.02878 0.0
C1356 C 0.40938 0.93723 0.02834 0.0
C1357 C 0.39667 0.94347 0.05547 0.0
C1358 C 0.4108 0.95619 0.02612 0.0
C1359 C 0.42934 0.97276 0.02182 0.0
C1360 C 0.4465 0.97043 0.01919 0.0
C1361 C 0.44469 0.95115 0.02061 0.0
C1362 C 0.42624 0.93465 0.02512 0.0
H1363 H 0.39351 0.94143 0.06631 0.0
H1364 H 0.41363 0.9505 0.05406 0.0
H1365 H 0.39181 0.95427 0.05188 0.0
H1366 H 0.39782 0.9584 0.02819 0.0
H1367 H 0.43042 0.98751 0.02079 0.0
H1368 H 0.16896 0.45842 0.0419 0.0
H1369 H 0.14402 0.46714 0.03264 0.0
H1370 H 0.11528 0.45809 0.07101 0.0
H1371 H 0.14023 0.4495 0.08035 0.0
H1372 H 0.10265 0.44307 0.03067 0.0
H1373 H 0.12077 0.51205 0.06074 0.0
H1374 H 0.13771 0.50144 0.06028 0.0
H1375 H 0.11539 0.49055 0.07082 0.0
C1376 C 0.15743 0.45844 0.0484 0.0
C1377 C 0.15664 0.4533 0.06189 0.0
C1378 C 0.1432 0.46348 0.04309 0.0
C1379 C 0.12789 0.46355 0.05114 0.0
C1380 C 0.12725 0.45868 0.06466 0.0
H1381 H 0.00934 0.44635 0.02447 0.0
H1382 H 0.03843 0.44244 0.03186 0.0
C1383 C 0.14153 0.45374 0.06999 0.0
C1384 C 0.11182 0.46736 0.04521 0.0
H1385 H 0.08868 0.49633 0.04861 0.0
C1386 C 0.09973 0.45487 0.03451 0.0
C1387 C 0.10813 0.48289 0.05009 0.0
C1388 C 0.12132 0.49764 0.06103 0.0
C1389 C 0.08375 0.45707 0.02878 0.0
C1390 C 0.07936 0.47195 0.03408 0.0
C1391 C 0.09184 0.48482 0.04456 0.0
C1392 C 0.0617 0.47419 0.02914 0.0
C1393 C 0.0719 0.44342 0.01706 0.0
C1394 C 0.06481 0.49346 0.02558 0.0
C1395 C 0.04806 0.49577 0.02164 0.0
C1396 C 0.02793 0.47878 0.0209 0.0
C1397 C 0.02479 0.45959 0.02459 0.0
C1398 C 0.04145 0.45733 0.02872 0.0
H1399 H 0.08166 0.43886 0.01129 0.0
H1400 H 0.05841 0.42924 0.02075 0.0
H1401 H 0.06618 0.45096 0.01026 0.0
H1402 H 0.08019 0.50678 0.02596 0.0
H1403 H 0.05088 0.51088 0.01935 0.0
H1404 H 0.56528 0.7296 0.03886 0.0
H1405 H 0.54991 0.69445 0.03036 0.0
H1406 H 0.55807 0.67491 0.06894 0.0
H1407 H 0.57374 0.71004 0.07749 0.0
H1408 H 0.56993 0.67119 0.02992 0.0
H1409 H 0.49728 0.63328 0.05883 0.0
H1410 H 0.51227 0.66067 0.05697 0.0
H1411 H 0.52034 0.64823 0.06872 0.0
C1412 C 0.5638 0.71783 0.04555 0.0
C1413 C 0.5708 0.72265 0.05885 0.0
C1414 C 0.5549 0.69775 0.04069 0.0
C1415 C 0.55266 0.68207 0.04906 0.0
C1416 C 0.55928 0.68672 0.0624 0.0
H1417 H 0.54166 0.56586 0.02953 0.0
H1418 H 0.55181 0.60028 0.03759 0.0
C1419 C 0.56823 0.70682 0.06726 0.0
C1420 C 0.54468 0.66113 0.04362 0.0
H1421 H 0.50645 0.61145 0.04704 0.0
C1422 C 0.55598 0.65814 0.0336 0.0
C1423 C 0.52638 0.64419 0.04837 0.0
C1424 C 0.51322 0.64669 0.05873 0.0
C1425 C 0.54976 0.63856 0.02843 0.0
C1426 C 0.5319 0.62155 0.03351 0.0
C1427 C 0.52025 0.62456 0.04327 0.0
C1428 C 0.52532 0.60048 0.02893 0.0
C1429 C 0.56232 0.63617 0.01755 0.0
C1430 C 0.50682 0.58908 0.02164 0.0
C1431 C 0.50094 0.56937 0.017 0.0
C1432 C 0.51344 0.56072 0.01965 0.0
C1433 C 0.53172 0.57207 0.02724 0.0
C1434 C 0.53761 0.59178 0.03182 0.0
H1435 H 0.57277 0.65095 0.01274 0.0
H1436 H 0.57199 0.63029 0.02189 0.0
H1437 H 0.55203 0.62502 0.00981 0.0
H1438 H 0.49708 0.59553 0.0194 0.0
H1439 H 0.48661 0.56094 0.01136 0.0
H1440 H 0.86592 0.275 0.96234 0.0
H1441 H 0.88787 0.31003 0.97058 0.0
H1442 H 0.849 0.32844 0.95023 0.0
H1443 H 0.82666 0.29326 0.94208 0.0
H1444 H 0.89247 0.35464 0.94644 0.0
H1445 H 0.87279 0.33915 0.99985 0.0
H1446 H 0.88074 0.32268 0.9921 0.0
H1447 H 0.85721 0.32157 0.98666 0.0
C1448 C 0.86182 0.2864 0.95976 0.0
C1449 C 0.84439 0.28125 0.95165 0.0
C1450 C 0.87443 0.30643 0.96445 0.0
C1451 C 0.86987 0.32173 0.96117 0.0
C1452 C 0.85271 0.31679 0.95291 0.0
H1453 H 0.92774 0.44264 0.9989 0.0
H1454 H 0.90297 0.4088 0.98987 0.0
C1455 C 0.84003 0.29671 0.94822 0.0
C1456 C 0.88331 0.34294 0.96619 0.0
H1457 H 0.9016 0.37164 0.9948 0.0
C1458 C 0.89438 0.35842 0.957 0.0
C1459 C 0.88556 0.34784 0.97997 0.0
C1460 C 0.87331 0.332 0.99024 0.0
C1461 C 0.90815 0.37859 0.96126 0.0
C1462 C 0.91104 0.3833 0.97506 0.0
C1463 C 0.8995 0.36794 0.98423 0.0
C1464 C 0.9261 0.40402 0.98024 0.0
C1465 C 0.91941 0.39473 0.95097 0.0
C1466 C 0.94735 0.41247 0.97791 0.0
C1467 C 0.9616 0.43176 0.98314 0.0
C1468 C 0.95487 0.4429 0.99089 0.0
C1469 C 0.93353 0.43439 0.99314 0.0
C1470 C 0.91931 0.41508 0.98794 0.0
H1471 H 0.91162 0.38995 0.94105 0.0
H1472 H 0.92052 0.40942 0.954 0.0
H1473 H 0.93537 0.39738 0.94994 0.0
H1474 H 0.95295 0.40401 0.97219 0.0
H1475 H 0.9779 0.4378 0.98123 0.0
H1476 H 0.68989 0.54292 0.9318 0.0
H1477 H 0.65586 0.53339 0.94063 0.0
H1478 H 0.68198 0.54948 0.98033 0.0
H1479 H 0.71572 0.55765 0.97175 0.0
H1480 H 0.64509 0.51634 0.98094 0.0
H1481 H 0.63908 0.57417 0.95089 0.0
H1482 H 0.64154 0.55569 0.9409 0.0
H1483 H 0.6625 0.57285 0.95181 0.0
C1484 C 0.6884 0.54406 0.94245 0.0
C1485 C 0.70579 0.55138 0.951 0.0
C1486 C 0.66891 0.5389 0.94747 0.0
C1487 C 0.6664 0.5413 0.96111 0.0
C1488 C 0.6835 0.54774 0.96974 0.0
H1489 H 0.56719 0.55719 0.99217 0.0
H1490 H 0.60027 0.56086 0.98528 0.0
C1491 C 0.70291 0.55263 0.96477 0.0
C1492 C 0.64618 0.53756 0.96644 0.0
H1493 H 0.60959 0.55179 0.9632 0.0
C1494 C 0.63734 0.52414 0.97709 0.0
C1495 C 0.63616 0.54793 0.96156 0.0
C1496 C 0.64539 0.56361 0.95076 0.0
C1497 C 0.61889 0.52086 0.98304 0.0
C1498 C 0.60856 0.53084 0.97795 0.0
C1499 C 0.61737 0.54411 0.96719 0.0
C1500 C 0.58894 0.5283 0.98368 0.0
C1501 C 0.6112 0.50727 0.99499 0.0
C1502 C 0.57147 0.50882 0.98541 0.0
C1503 C 0.55272 0.50677 0.98978 0.0
C1504 C 0.55091 0.52415 0.99222 0.0
C1505 C 0.56828 0.54358 0.99051 0.0
C1506 C 0.58715 0.54564 0.9865 0.0
H1507 H 0.62398 0.50658 1.00022 0.0
H1508 H 0.60379 0.51276 0.00215 0.0
H1509 H 0.59966 0.4915 0.99169 0.0
H1510 H 0.57204 0.49515 0.9829 0.0
H1511 H 0.53941 0.4916 0.99063 0.0
H1512 H 0.4365 0.13892 0.92855 0.0
H1513 H 0.43822 0.11212 0.94096 0.0
H1514 H 0.48688 0.15803 0.96599 0.0
H1515 H 0.48529 0.18486 0.95365 0.0
H1516 H 0.47232 0.1073 0.94294 0.0
H1517 H 0.44813 0.11769 0.99318 0.0
H1518 H 0.4438 0.12862 0.97848 0.0
H1519 H 0.46884 0.14082 0.98654 0.0
C1520 C 0.44747 0.14329 0.93676 0.0
C1521 C 0.46074 0.16401 0.94014 0.0
C1522 C 0.44837 0.12797 0.94386 0.0
C1523 C 0.46247 0.13308 0.95451 0.0
C1524 C 0.47552 0.15372 0.95803 0.0
H1525 H 0.50938 0.07005 1.00155 0.0
H1526 H 0.50177 0.0948 0.99139 0.0
C1527 C 0.4746 0.16904 0.95095 0.0
C1528 C 0.46467 0.11695 0.96126 0.0
H1529 H 0.46386 0.09692 0.9917 0.0
C1530 C 0.47025 0.10487 0.95358 0.0
C1531 C 0.46205 0.1139 0.97515 0.0
C1532 C 0.45518 0.12581 0.98381 0.0
C1533 C 0.47381 0.09017 0.95945 0.0
C1534 C 0.47145 0.0873 0.97335 0.0
C1535 C 0.46569 0.09922 0.98104 0.0
C1536 C 0.47521 0.07215 0.98007 0.0
C1537 C 0.48065 0.07821 0.9508 0.0
C1538 C 0.46253 0.05122 0.97725 0.0
C1539 C 0.46674 0.03701 0.98308 0.0
C1540 C 0.48369 0.04349 0.9919 0.0
C1541 C 0.4961 0.06449 0.99492 0.0
C1542 C 0.49182 0.07868 0.98909 0.0
H1543 H 0.48605 0.08529 0.94092 0.0
H1544 H 0.49334 0.077 0.95574 0.0
H1545 H 0.46742 0.06249 0.94914 0.0
H1546 H 0.44946 0.04589 0.97043 0.0
H1547 H 0.4568 0.02097 0.98058 0.0
H1548 H 0.69691 0.16768 0.95185 0.0
H1549 H 0.6637 0.14705 0.96296 0.0
H1550 H 0.67739 0.09837 0.96747 0.0
H1551 H 0.71072 0.11902 0.95681 0.0
H1552 H 0.63128 0.10925 0.95511 0.0
H1553 H 0.66027 0.1043 0.00493 0.0
H1554 H 0.67659 0.12272 0.99281 0.0
H1555 H 0.67146 0.09679 0.99183 0.0
C1556 C 0.69295 0.15268 0.95536 0.0
C1557 C 0.70648 0.145 0.95342 0.0
C1558 C 0.67395 0.1409 0.96167 0.0
C1559 C 0.66824 0.12133 0.96627 0.0
C1560 C 0.68166 0.11361 0.96428 0.0
H1561 H 0.56448 0.01155 0.99131 0.0
H1562 H 0.59833 0.04055 0.98562 0.0
C1563 C 0.70059 0.12533 0.95798 0.0
C1564 C 0.6478 0.10839 0.97249 0.0
H1565 H 0.62487 0.07918 0.99969 0.0
C1566 C 0.62983 0.10295 0.96495 0.0
C1567 C 0.64596 0.10027 0.98536 0.0
C1568 C 0.6646 0.10648 0.99426 0.0
C1569 C 0.61015 0.08869 0.96961 0.0
C1570 C 0.60842 0.07985 0.98222 0.0
C1571 C 0.62629 0.08593 0.99 0.0
C1572 C 0.58842 0.06295 0.98691 0.0
C1573 C 0.59143 0.08237 0.96075 0.0
C1574 C 0.5718 0.06606 0.98978 0.0
C1575 C 0.55248 0.04951 0.99305 0.0
C1576 C 0.54965 0.02971 0.99367 0.0
C1577 C 0.56641 0.02673 0.99105 0.0
C1578 C 0.58569 0.04325 0.98783 0.0
H1579 H 0.59578 0.08823 0.95049 0.0
H1580 H 0.5817 0.06545 0.96019 0.0
H1581 H 0.58189 0.08848 0.96501 0.0
H1582 H 0.57365 0.08119 0.98922 0.0
H1583 H 0.53967 0.05213 0.99472 0.0
H1584 H 0.86411 0.58194 0.96191 0.0
H1585 H 0.88774 0.57144 0.97095 0.0
H1586 H 0.85781 0.51626 0.94688 0.0
H1587 H 0.83415 0.52683 0.93761 0.0
H1588 H 0.87755 0.53429 0.98474 0.0
H1589 H 0.92091 0.54351 0.93796 0.0
H1590 H 0.90511 0.55514 0.94046 0.0
H1591 H 0.89311 0.52822 0.93695 0.0
C1592 C 0.8626 0.56762 0.95846 0.0
C1593 C 0.84735 0.55531 0.94894 0.0
C1594 C 0.87606 0.56159 0.9637 0.0
C1595 C 0.8747 0.5432 0.95948 0.0
C1596 C 0.85929 0.53064 0.95015 0.0
H1597 H 0.94608 0.49046 0.99386 0.0
H1598 H 0.91728 0.49478 0.9861 0.0
C1599 C 0.84568 0.53662 0.94495 0.0
C1600 C 0.88953 0.53738 0.96494 0.0
H1601 H 0.9316 0.53295 0.9569 0.0
C1602 C 0.8892 0.53372 0.97863 0.0
C1603 C 0.90488 0.53692 0.95697 0.0
C1604 C 0.90625 0.54127 0.94228 0.0
C1605 C 0.90395 0.52984 0.98458 0.0
C1606 C 0.91945 0.52965 0.97667 0.0
C1607 C 0.91963 0.53302 0.96294 0.0
C1608 C 0.93636 0.52716 0.98256 0.0
C1609 C 0.90356 0.52699 0.99938 0.0
C1610 C 0.95657 0.54395 0.98332 0.0
C1611 C 0.97294 0.54158 0.98793 0.0
C1612 C 0.96947 0.52236 0.99188 0.0
C1613 C 0.94917 0.50556 0.99126 0.0
C1614 C 0.93272 0.50799 0.98673 0.0
H1615 H 0.89073 0.52799 0.00422 0.0
H1616 H 0.90182 0.51185 1.00152 0.0
H1617 H 0.91848 0.53898 0.0038 0.0
H1618 H 0.95972 0.55886 0.9801 0.0
H1619 H 0.98846 0.5547 0.98812 0.0
H1620 H 0.49179 0.30665 0.95255 0.0
H1621 H 0.49322 0.33613 0.96392 0.0
H1622 H 0.44341 0.33034 0.93887 0.0
H1623 H 0.44205 0.30099 0.92728 0.0
H1624 H 0.50098 0.37255 0.95055 0.0
H1625 H 0.42602 0.33622 0.97723 0.0
H1626 H 0.43775 0.32184 0.97115 0.0
H1627 H 0.42474 0.32994 0.95979 0.0
C1628 C 0.48111 0.31161 0.94946 0.0
C1629 C 0.46688 0.30154 0.93896 0.0
C1630 C 0.48187 0.32837 0.95603 0.0
C1631 C 0.46831 0.33527 0.9523 0.0
C1632 C 0.45375 0.325 0.94204 0.0
H1633 H 0.45959 0.44132 0.9779 0.0
H1634 H 0.45375 0.40954 0.9672 0.0
C1635 C 0.453 0.30824 0.93544 0.0
C1636 C 0.47048 0.35408 0.95853 0.0
H1637 H 0.44594 0.37236 0.97818 0.0
C1638 C 0.48898 0.37252 0.95662 0.0
C1639 C 0.45469 0.35396 0.96631 0.0
C1640 C 0.43471 0.33444 0.96887 0.0
C1641 C 0.49213 0.39093 0.96226 0.0
C1642 C 0.47653 0.39078 0.97029 0.0
C1643 C 0.45788 0.37238 0.97205 0.0
C1644 C 0.47954 0.40956 0.97713 0.0
C1645 C 0.51202 0.41043 0.95941 0.0
C1646 C 0.49575 0.41985 0.98643 0.0
C1647 C 0.49924 0.43805 0.99247 0.0
C1648 C 0.48638 0.44616 0.98949 0.0
C1649 C 0.46982 0.43553 0.9804 0.0
C1650 C 0.46641 0.41735 0.9743 0.0
H1651 H 0.51949 0.40889 0.95026 0.0
H1652 H 0.50925 0.42345 0.9582 0.0
H1653 H 0.52303 0.41409 0.96786 0.0
H1654 H 0.50585 0.41391 0.98893 0.0
H1655 H 0.51226 0.44588 0.9993 0.0
H1656 H 0.17956 0.71382 0.05093 0.0
H1657 H 0.15096 0.68332 0.04026 0.0
H1658 H 0.12169 0.66345 0.07834 0.0
H1659 H 0.1504 0.69357 0.08912 0.0
H1660 H 0.12604 0.6337 0.06415 0.0
H1661 H 0.09042 0.66801 0.03263 0.0
H1662 H 0.11792 0.67909 0.03082 0.0
H1663 H 0.10773 0.68166 0.04644 0.0
C1664 C 0.16696 0.70301 0.05702 0.0
C1665 C 0.16726 0.70615 0.07088 0.0
C1666 C 0.15054 0.68571 0.05089 0.0
C1667 C 0.1341 0.67125 0.0585 0.0
C1668 C 0.13416 0.67451 0.07228 0.0
H1669 H 0.01989 0.56371 0.03111 0.0
H1670 H 0.04551 0.59634 0.04144 0.0
C1671 C 0.15052 0.69181 0.07841 0.0
C1672 C 0.11762 0.652 0.05228 0.0
H1673 H 0.07886 0.63273 0.02879 0.0
C1674 C 0.11566 0.63348 0.05646 0.0
C1675 C 0.10401 0.65176 0.04233 0.0
C1676 C 0.10493 0.67116 0.03784 0.0
C1677 C 0.1007 0.61472 0.05079 0.0
C1678 C 0.08751 0.61453 0.04057 0.0
C1679 C 0.08914 0.63299 0.03656 0.0
C1680 C 0.07203 0.59522 0.0339 0.0
C1681 C 0.09903 0.59523 0.05582 0.0
C1682 C 0.0785 0.58399 0.02611 0.0
C1683 C 0.06396 0.56538 0.02021 0.0
C1684 C 0.04263 0.55768 0.02194 0.0
C1685 C 0.03618 0.56915 0.02961 0.0
C1686 C 0.05078 0.58783 0.03548 0.0
H1687 H 0.10698 0.5976 0.06562 0.0
H1688 H 0.08256 0.58315 0.0568 0.0
H1689 H 0.10636 0.58965 0.04859 0.0
H1690 H 0.09484 0.58956 0.02467 0.0
H1691 H 0.06951 0.5569 0.01447 0.0
H1692 H 0.28087 0.42277 0.04738 0.0
H1693 H 0.31468 0.43325 0.03775 0.0
H1694 H 0.34285 0.48602 0.06406 0.0
H1695 H 0.30901 0.47538 0.07398 0.0
H1696 H 0.34311 0.47014 0.02506 0.0
H1697 H 0.37647 0.45692 0.07099 0.0
H1698 H 0.34901 0.44692 0.06873 0.0
H1699 H 0.36578 0.47348 0.07282 0.0
C1700 C 0.29426 0.43655 0.05119 0.0
C1701 C 0.29224 0.4481 0.06157 0.0
C1702 C 0.31356 0.4426 0.0456 0.0
C1703 C 0.33135 0.46027 0.05029 0.0
C1704 C 0.32938 0.47217 0.06041 0.0
H1705 H 0.45599 0.51267 0.01619 0.0
H1706 H 0.42275 0.5084 0.02359 0.0
C1707 C 0.31 0.46616 0.06599 0.0
C1708 C 0.3519 0.46584 0.04468 0.0
H1709 H 0.39811 0.46896 0.05232 0.0
C1710 C 0.35524 0.47013 0.03105 0.0
C1711 C 0.36759 0.46552 0.05247 0.0
C1712 C 0.3646 0.46032 0.06704 0.0
C1713 C 0.3738 0.47397 0.02501 0.0
C1714 C 0.38938 0.47347 0.03276 0.0
C1715 C 0.38615 0.46943 0.04641 0.0
C1716 C 0.40867 0.4759 0.02681 0.0
C1717 C 0.37626 0.47748 0.01025 0.0
C1718 C 0.41167 0.45903 0.02598 0.0
C1719 C 0.4305 0.46139 0.02161 0.0
C1720 C 0.44674 0.48068 0.01799 0.0
C1721 C 0.4436 0.49753 0.01858 0.0
C1722 C 0.42466 0.49513 0.02288 0.0
H1723 H 0.36253 0.47702 0.00553 0.0
H1724 H 0.3901 0.49256 0.00831 0.0
H1725 H 0.37868 0.46552 0.0055 0.0
H1726 H 0.39958 0.44409 0.02902 0.0
H1727 H 0.4326 0.44821 0.02142 0.0
H1728 H 0.59414 0.885 0.07203 0.0
H1729 H 0.57883 0.9043 0.06286 0.0
H1730 H 0.53668 0.8519 0.03886 0.0
H1731 H 0.55218 0.83255 0.04776 0.0
H1732 H 0.57689 0.91112 0.03439 0.0
H1733 H 0.49947 0.87119 0.05813 0.0
H1734 H 0.52145 0.87003 0.06468 0.0
H1735 H 0.5081 0.85546 0.05002 0.0
C1736 C 0.58165 0.87757 0.06477 0.0
C1737 C 0.57445 0.85724 0.06059 0.0
C1738 C 0.57285 0.88858 0.05961 0.0
C1739 C 0.55656 0.87945 0.05028 0.0
C1740 C 0.54905 0.85909 0.04622 0.0
H1741 H 0.48944 0.93087 0.00959 0.0
H1742 H 0.50108 0.90768 0.01736 0.0
C1743 C 0.5579 0.84806 0.05134 0.0
C1744 C 0.54823 0.89168 0.0443 0.0
H1745 H 0.50571 0.89744 0.04317 0.0
C1746 C 0.56132 0.90813 0.03628 0.0
C1747 C 0.52785 0.88755 0.04669 0.0
C1748 C 0.51336 0.87019 0.05541 0.0
C1749 C 0.55462 0.92072 0.03063 0.0
C1750 C 0.53445 0.91703 0.03336 0.0
C1751 C 0.52118 0.90026 0.04114 0.0
C1752 C 0.52724 0.93094 0.02869 0.0
C1753 C 0.56915 0.93775 0.02169 0.0
C1754 C 0.53785 0.95159 0.03268 0.0
C1755 C 0.53143 0.9649 0.02814 0.0
C1756 C 0.51412 0.95782 0.01957 0.0
C1757 C 0.50312 0.93696 0.0159 0.0
C1758 C 0.50964 0.92364 0.02042 0.0
H1759 H 0.58108 0.93472 0.01743 0.0
H1760 H 0.56059 0.93992 0.01339 0.0
H1761 H 0.57728 0.95222 0.0276 0.0
H1762 H 0.55115 0.95742 0.03934 0.0
H1763 H 0.54014 0.98078 0.03133 0.0
H1764 H 0.98294 0.19915 0.41726 0.0
H1765 H 0.01128 0.22511 0.40422 0.0
H1766 H 0.99405 0.18239 0.3712 0.0
H1767 H 0.9656 0.15629 0.38421 0.0
H1768 H 0.04396 0.22179 0.39442 0.0
H1769 H 0.00143 0.23405 0.35332 0.0
H1770 H 0.98902 0.22137 0.3685 0.0
H1771 H 0.99456 0.20791 0.3558 0.0
C1772 C 0.9851 0.1953 0.4072 0.0
C1773 C 0.97205 0.17563 0.40179 0.0
C1774 C 0.00125 0.21017 0.39974 0.0
C1775 C 0.00468 0.20575 0.3867 0.0
C1776 C 0.99144 0.18628 0.38114 0.0
H1777 H 0.12532 0.28136 0.34992 0.0
H1778 H 0.09285 0.2516 0.35672 0.0
C1779 C 0.9752 0.17137 0.3886 0.0
C1780 C 0.02299 0.22115 0.37937 0.0
H1781 H 0.03801 0.25106 0.3518 0.0
C1782 C 0.04266 0.22814 0.38508 0.0
C1783 C 0.02123 0.22945 0.36721 0.0
C1784 C 1.00043 0.22298 0.36086 0.0
C1785 C 0.06062 0.2434 0.37907 0.0
C1786 C 0.05891 0.25164 0.36688 0.0
C1787 C 0.03926 0.24453 0.36107 0.0
C1788 C 0.07727 0.26874 0.36063 0.0
C1789 C 0.08122 0.25109 0.3861 0.0
C1790 C 0.07891 0.28803 0.35996 0.0
C1791 C 0.09734 0.30497 0.3559 0.0
C1792 C 0.11432 0.30285 0.35227 0.0
C1793 C 0.11237 0.28338 0.35242 0.0
C1794 C 0.09389 0.26641 0.35643 0.0
H1795 H 0.07933 0.24627 0.39665 0.0
H1796 H 0.09002 0.24482 0.38096 0.0
H1797 H 0.09057 0.26803 0.38587 0.0
H1798 H 0.06627 0.29015 0.36318 0.0
H1799 H 0.09856 0.31987 0.35597 0.0
H1800 H 0.81344 0.79138 0.41416 0.0
H1801 H 0.78884 0.80079 0.40533 0.0
H1802 H 0.798 0.78458 0.36565 0.0
H1803 H 0.82354 0.77636 0.37424 0.0
H1804 H 0.7957 0.81859 0.3654 0.0
H1805 H 0.73028 0.76031 0.39456 0.0
H1806 H 0.75168 0.77838 0.40472 0.0
H1807 H 0.75486 0.76125 0.39366 0.0
C1808 C 0.81054 0.79014 0.40352 0.0
C1809 C 0.82039 0.78284 0.39496 0.0
C1810 C 0.79618 0.79524 0.39851 0.0
C1811 C 0.7911 0.79287 0.38486 0.0
C1812 C 0.80145 0.78632 0.37624 0.0
H1813 H 0.67675 0.77879 0.3525 0.0
H1814 H 0.70573 0.77469 0.35995 0.0
C1815 C 0.81594 0.78142 0.38121 0.0
C1816 C 0.77487 0.79696 0.3795 0.0
H1817 H 0.72388 0.783 0.3822 0.0
C1818 C 0.77996 0.81077 0.36904 0.0
C1819 C 0.75426 0.78661 0.38414 0.0
C1820 C 0.74735 0.77067 0.39479 0.0
C1821 C 0.76507 0.81442 0.36303 0.0
C1822 C 0.74449 0.80436 0.36782 0.0
C1823 C 0.73953 0.79072 0.37842 0.0
C1824 C 0.72762 0.80717 0.36193 0.0
C1825 C 0.77156 0.82849 0.35132 0.0
C1826 C 0.73015 0.82675 0.36026 0.0
C1827 C 0.71373 0.82905 0.35555 0.0
C1828 C 0.69428 0.81182 0.35273 0.0
C1829 C 0.69168 0.79229 0.35445 0.0
C1830 C 0.70823 0.78999 0.35878 0.0
H1831 H 0.78505 0.82919 0.34617 0.0
H1832 H 0.75872 0.82343 0.34402 0.0
H1833 H 0.77619 0.84418 0.35486 0.0
H1834 H 0.74458 0.84031 0.36303 0.0
H1835 H 0.71601 0.8443 0.35471 0.0
H1836 H 0.21339 0.04822 0.40129 0.0
H1837 H 0.19759 0.01291 0.39289 0.0
H1838 H 0.25381 0.02787 0.37218 0.0
H1839 H 0.26976 0.06307 0.38059 0.0
H1840 H 0.21746 0.00508 0.35666 0.0
H1841 H 0.21232 0.97023 0.40597 0.0
H1842 H 0.20051 0.98585 0.40486 0.0
H1843 H 0.22807 0.99735 0.40332 0.0
C1844 C 0.22243 0.04394 0.39503 0.0
C1845 C 0.24285 0.05844 0.39163 0.0
C1846 C 0.21337 0.02379 0.39023 0.0
C1847 C 0.22462 0.01777 0.38203 0.0
C1848 C 0.24487 0.03224 0.37848 0.0
H1849 H 0.20971 0.9005 0.36261 0.0
H1850 H 0.22006 0.93488 0.37075 0.0
C1851 C 0.25392 0.05236 0.38326 0.0
C1852 C 0.21547 0.99637 0.37716 0.0
H1853 H 0.19852 0.94769 0.38744 0.0
C1854 C 0.21319 0.99249 0.36337 0.0
C1855 C 0.21013 0.98006 0.38597 0.0
C1856 C 0.213 0.9835 0.40085 0.0
C1857 C 0.20588 0.97271 0.35813 0.0
C1858 C 0.20047 0.9564 0.36694 0.0
C1859 C 0.20256 0.96025 0.38073 0.0
C1860 C 0.19376 0.93542 0.36204 0.0
C1861 C 0.20465 0.96954 0.34321 0.0
C1862 C 0.17539 0.92423 0.35457 0.0
C1863 C 0.16941 0.90452 0.34987 0.0
C1864 C 0.18169 0.89566 0.35259 0.0
C1865 C 0.19991 0.90684 0.36027 0.0
C1866 C 0.20586 0.9265 0.36495 0.0
H1867 H 0.21344 0.98421 0.33789 0.0
H1868 H 0.21073 0.95935 0.34025 0.0
H1869 H 0.18822 0.96215 0.33989 0.0
H1870 H 0.16563 0.93069 0.35244 0.0
H1871 H 0.15508 0.8962 0.34421 0.0
H1872 H 0.53839 0.61399 0.28408 0.0
H1873 H 0.56039 0.64933 0.29192 0.0
H1874 H 0.5072 0.65742 0.29317 0.0
H1875 H 0.48497 0.62193 0.28535 0.0
H1876 H 0.56234 0.68708 0.27868 0.0
H1877 H 0.53794 0.674 0.33171 0.0
H1878 H 0.53587 0.65366 0.32099 0.0
H1879 H 0.5183 0.66309 0.3188 0.0
C1880 C 0.53134 0.62323 0.28612 0.0
C1881 C 0.50993 0.61516 0.28418 0.0
C1882 C 0.54394 0.64342 0.29051 0.0
C1883 C 0.53536 0.65585 0.29317 0.0
C1884 C 0.51404 0.64796 0.29121 0.0
H1885 H 0.59403 0.77815 0.32907 0.0
H1886 H 0.56898 0.7445 0.31989 0.0
C1887 C 0.50141 0.62777 0.2867 0.0
C1888 C 0.54886 0.67712 0.29797 0.0
H1889 H 0.56322 0.70735 0.32598 0.0
C1890 C 0.56252 0.6916 0.289 0.0
C1891 C 0.54887 0.68287 0.3114 0.0
C1892 C 0.53456 0.66766 0.32137 0.0
C1893 C 0.57633 0.71182 0.29314 0.0
C1894 C 0.57685 0.71746 0.3067 0.0
C1895 C 0.56286 0.703 0.3156 0.0
C1896 C 0.5921 0.73811 0.31195 0.0
C1897 C 0.59001 0.72696 0.28291 0.0
C1898 C 0.61344 0.74563 0.31066 0.0
C1899 C 0.62781 0.76489 0.31586 0.0
C1900 C 0.62111 0.77687 0.32265 0.0
C1901 C 0.59972 0.76925 0.32399 0.0
C1902 C 0.58537 0.75003 0.31872 0.0
H1903 H 0.5833 0.7222 0.27271 0.0
H1904 H 0.59246 0.74246 0.28511 0.0
H1905 H 0.60531 0.72784 0.283 0.0
H1906 H 0.61901 0.73648 0.30579 0.0
H1907 H 0.64415 0.77022 0.31473 0.0
H1908 H 0.3607 0.89526 0.26695 0.0
H1909 H 0.32736 0.8865 0.27671 0.0
H1910 H 0.34337 0.86501 0.31188 0.0
H1911 H 0.37683 0.87381 0.30219 0.0
H1912 H 0.29499 0.8503 0.28535 0.0
H1913 H 0.32896 0.90616 0.32746 0.0
H1914 H 0.34404 0.90637 0.31341 0.0
H1915 H 0.33787 0.8881 0.32639 0.0
C1916 C 0.35705 0.88844 0.27669 0.0
C1917 C 0.37153 0.88536 0.28381 0.0
C1918 C 0.338 0.88352 0.2823 0.0
C1919 C 0.33299 0.87545 0.29514 0.0
C1920 C 0.34709 0.87171 0.3021 0.0
H1921 H 0.20675 0.82539 0.32621 0.0
H1922 H 0.23996 0.82897 0.31956 0.0
C1923 C 0.3662 0.8767 0.29653 0.0
C1924 C 0.31307 0.87118 0.30122 0.0
H1925 H 0.29259 0.88465 0.32718 0.0
C1926 C 0.29446 0.85774 0.29452 0.0
C1927 C 0.31239 0.88105 0.31314 0.0
C1928 C 0.33186 0.89637 0.32048 0.0
C1929 C 0.27523 0.85404 0.29933 0.0
C1930 C 0.27455 0.86378 0.3113 0.0
C1931 C 0.29313 0.87706 0.31807 0.0
C1932 C 0.25487 0.86158 0.31641 0.0
C1933 C 0.25589 0.8403 0.29129 0.0
C1934 C 0.25241 0.87879 0.31731 0.0
C1935 C 0.23357 0.8768 0.32129 0.0
C1936 C 0.21694 0.85764 0.32468 0.0
C1937 C 0.21946 0.84043 0.32396 0.0
C1938 C 0.23834 0.84242 0.31999 0.0
H1939 H 0.2595 0.8377 0.28098 0.0
H1940 H 0.24731 0.82524 0.29615 0.0
H1941 H 0.24555 0.84691 0.29078 0.0
H1942 H 0.26492 0.89371 0.31459 0.0
H1943 H 0.23191 0.89024 0.32159 0.0
H1944 H 0.10713 0.47377 0.26257 0.0
H1945 H 0.10891 0.4469 0.27485 0.0
H1946 H 0.15452 0.4924 0.30166 0.0
H1947 H 0.15284 0.5193 0.28947 0.0
H1948 H 0.14356 0.44341 0.27776 0.0
H1949 H 0.11472 0.4498 0.32734 0.0
H1950 H 0.11105 0.46125 0.31266 0.0
H1951 H 0.13545 0.47362 0.32151 0.0
C1952 C 0.11742 0.47803 0.27115 0.0
C1953 C 0.12983 0.49866 0.27506 0.0
C1954 C 0.11835 0.46267 0.27818 0.0
C1955 C 0.13164 0.46763 0.28927 0.0
C1956 C 0.14378 0.48817 0.29334 0.0
H1957 H 0.17775 0.40359 0.33631 0.0
H1958 H 0.17041 0.4287 0.3264 0.0
C1959 C 0.14282 0.50353 0.28634 0.0
C1960 C 0.13402 0.45154 0.29593 0.0
H1961 H 0.13147 0.42996 0.32605 0.0
C1962 C 0.14072 0.44032 0.28829 0.0
C1963 C 0.1304 0.44763 0.30969 0.0
C1964 C 0.12232 0.45857 0.31827 0.0
C1965 C 0.14433 0.4256 0.29408 0.0
C1966 C 0.14091 0.42185 0.30785 0.0
C1967 C 0.13411 0.43295 0.3155 0.0
C1968 C 0.14447 0.40649 0.31443 0.0
C1969 C 0.15225 0.4145 0.28551 0.0
C1970 C 0.13204 0.38568 0.31116 0.0
C1971 C 0.13607 0.37126 0.31686 0.0
C1972 C 0.1526 0.37741 0.32598 0.0
C1973 C 0.16477 0.39828 0.32944 0.0
C1974 C 0.16066 0.41267 0.32376 0.0
H1975 H 0.15814 0.42211 0.27583 0.0
H1976 H 0.16486 0.41351 0.29074 0.0
H1977 H 0.13946 0.39869 0.28343 0.0
H1978 H 0.11932 0.38062 0.30408 0.0
H1979 H 0.12632 0.35533 0.314 0.0
H1980 H 0.38459 0.46469 0.30044 0.0
H1981 H 0.35044 0.4435 0.31006 0.0
H1982 H 0.32446 0.46873 0.28296 0.0
H1983 H 0.35857 0.48962 0.27297 0.0
H1984 H 0.323 0.45417 0.3222 0.0
H1985 H 0.2892 0.40651 0.27625 0.0
H1986 H 0.31673 0.42318 0.27862 0.0
H1987 H 0.30056 0.43363 0.27433 0.0
C1988 C 0.3716 0.46565 0.29645 0.0
C1989 C 0.37426 0.47865 0.28581 0.0
C1990 C 0.35213 0.45366 0.30205 0.0
C1991 C 0.33489 0.45436 0.29712 0.0
C1992 C 0.33753 0.46776 0.28678 0.0
H1993 H 0.20925 0.38596 0.32981 0.0
H1994 H 0.24292 0.41453 0.32319 0.0
C1995 C 0.35705 0.4798 0.28116 0.0
C1996 C 0.31412 0.44048 0.30259 0.0
H1997 H 0.26746 0.3984 0.29479 0.0
C1998 C 0.31073 0.44214 0.31618 0.0
C1999 C 0.29828 0.42463 0.29474 0.0
C2000 C 0.30131 0.42168 0.2802 0.0
C2001 C 0.29199 0.42817 0.32216 0.0
C2002 C 0.27633 0.41218 0.31435 0.0
C2003 C 0.27954 0.41077 0.30072 0.0
C2004 C 0.25703 0.39582 0.32022 0.0
C2005 C 0.28946 0.42979 0.33691 0.0
C2006 C 0.254 0.376 0.32096 0.0
C2007 C 0.23492 0.35978 0.32481 0.0
C2008 C 0.21855 0.3631 0.32804 0.0
C2009 C 0.22176 0.38307 0.3277 0.0
C2010 C 0.24094 0.39936 0.32386 0.0
H2011 H 0.30301 0.44329 0.34159 0.0
H2012 H 0.27538 0.43083 0.33883 0.0
H2013 H 0.28743 0.41577 0.3417 0.0
H2014 H 0.2662 0.37297 0.31811 0.0
H2015 H 0.23272 0.34448 0.32485 0.0
H2016 H 0.54116 0.92042 0.28145 0.0
H2017 H 0.56528 0.91123 0.29124 0.0
H2018 H 0.51611 0.8486 0.29402 0.0
H2019 H 0.49198 0.85747 0.28362 0.0
H2020 H 0.56461 0.89565 0.31556 0.0
H2021 H 0.56083 0.84179 0.27604 0.0
H2022 H 0.55042 0.85854 0.27369 0.0
H2023 H 0.53621 0.83544 0.28294 0.0
C2024 C 0.53549 0.90458 0.28387 0.0
C2025 C 0.5146 0.88966 0.28156 0.0
C2026 C 0.5493 0.89939 0.28961 0.0
C2027 C 0.54263 0.87916 0.2932 0.0
C2028 C 0.52175 0.86423 0.29108 0.0
H2029 H 0.61369 0.82528 0.3252 0.0
H2030 H 0.5853 0.83085 0.31852 0.0
C2031 C 0.5079 0.8694 0.28528 0.0
C2032 C 0.55755 0.87401 0.29944 0.0
H2033 H 0.58064 0.8451 0.29529 0.0
C2034 C 0.56807 0.88455 0.31114 0.0
C2035 C 0.56206 0.8595 0.2937 0.0
C2036 C 0.55195 0.84828 0.28084 0.0
C2037 C 0.58301 0.8811 0.31722 0.0
C2038 C 0.58779 0.86682 0.31138 0.0
C2039 C 0.57694 0.85595 0.29983 0.0
C2040 C 0.60466 0.86363 0.31663 0.0
C2041 C 0.59345 0.89283 0.32987 0.0
C2042 C 0.62502 0.88015 0.31784 0.0
C2043 C 0.64116 0.877 0.32188 0.0
C2044 C 0.63732 0.8573 0.32477 0.0
C2045 C 0.61701 0.84072 0.32346 0.0
C2046 C 0.60081 0.84388 0.31951 0.0
H2047 H 0.58322 0.89691 0.33551 0.0
H2048 H 0.59793 0.88399 0.33643 0.0
H2049 H 0.60764 0.90727 0.3273 0.0
H2050 H 0.62857 0.89543 0.31529 0.0
H2051 H 0.65677 0.88996 0.3225 0.0
H2052 H 0.10679 0.61841 0.28308 0.0
H2053 H 0.10615 0.64706 0.29432 0.0
H2054 H 0.16469 0.68916 0.27679 0.0
H2055 H 0.16514 0.66082 0.2652 0.0
H2056 H 0.1346 0.67571 0.31251 0.0
H2057 H 0.12831 0.71349 0.26725 0.0
H2058 H 0.12343 0.68755 0.26702 0.0
H2059 H 0.14956 0.70872 0.26671 0.0
C2060 C 0.1194 0.6338 0.2815 0.0
C2061 C 0.13599 0.63734 0.27321 0.0
C2062 C 0.11906 0.65012 0.28798 0.0
C2063 C 0.13521 0.67024 0.28621 0.0
C2064 C 0.15188 0.67378 0.27809 0.0
H2065 H 0.17869 0.7798 0.33292 0.0
H2066 H 0.17106 0.74716 0.32296 0.0
C2067 C 0.15224 0.65753 0.27161 0.0
C2068 C 0.135 0.68759 0.29306 0.0
H2069 H 0.13843 0.73359 0.2874 0.0
C2070 C 0.1352 0.68827 0.30704 0.0
C2071 C 0.13542 0.70378 0.2859 0.0
C2072 C 0.13395 0.7033 0.27089 0.0
C2073 C 0.13674 0.70518 0.31405 0.0
C2074 C 0.13846 0.72193 0.30686 0.0
C2075 C 0.13734 0.72083 0.29289 0.0
C2076 C 0.14231 0.74111 0.31356 0.0
C2077 C 0.13656 0.70496 0.32907 0.0
C2078 C 0.12889 0.74878 0.31139 0.0
C2079 C 0.13326 0.76756 0.31702 0.0
C2080 C 0.15119 0.77902 0.32491 0.0
C2081 C 0.16456 0.77123 0.3271 0.0
C2082 C 0.16018 0.75251 0.32145 0.0
H2083 H 0.12879 0.68909 0.33283 0.0
H2084 H 0.15274 0.71297 0.33292 0.0
H2085 H 0.12858 0.71287 0.33314 0.0
H2086 H 0.11509 0.7403 0.30524 0.0
H2087 H 0.12267 0.77312 0.31511 0.0
H2088 H 0.85621 0.03292 0.38926 0.0
H2089 H 0.82735 0.00246 0.37885 0.0
H2090 H 0.78485 0.0069 0.40572 0.0
H2091 H 0.81368 0.0371 0.41645 0.0
H2092 H 0.79945 0.96558 0.39394 0.0
H2093 H 0.7586 0.9996 0.36733 0.0
H2094 H 0.78559 0.01445 0.37221 0.0
H2095 H 0.76584 0.0072 0.38448 0.0
C2096 C 0.84074 0.02744 0.39298 0.0
C2097 C 0.8373 0.03743 0.40375 0.0
C2098 C 0.82426 0.01012 0.38696 0.0
C2099 C 0.804 0.00256 0.39147 0.0
C2100 C 0.80037 0.01271 0.40198 0.0
H2101 H 0.68756 0.89502 0.36614 0.0
H2102 H 0.71368 0.9269 0.37702 0.0
C2103 C 0.81687 0.03 0.40807 0.0
C2104 C 0.78692 0.9833 0.3857 0.0
H2105 H 0.74307 0.96365 0.36641 0.0
C2106 C 0.78711 0.96512 0.38791 0.0
C2107 C 0.77076 0.9828 0.37801 0.0
C2108 C 0.7701 0.00203 0.37524 0.0
C2109 C 0.77155 0.94637 0.3826 0.0
C2110 C 0.75569 0.94591 0.37454 0.0
C2111 C 0.75529 0.96406 0.37254 0.0
C2112 C 0.73979 0.92682 0.3678 0.0
C2113 C 0.77212 0.92721 0.38582 0.0
C2114 C 0.74578 0.91638 0.35886 0.0
C2115 C 0.73097 0.89812 0.35275 0.0
C2116 C 0.70976 0.89007 0.35524 0.0
C2117 C 0.70374 0.90076 0.36401 0.0
C2118 C 0.71864 0.91901 0.3702 0.0
H2119 H 0.78109 0.92916 0.39513 0.0
H2120 H 0.75626 0.91395 0.38694 0.0
H2121 H 0.77978 0.92367 0.3776 0.0
H2122 H 0.76198 0.92233 0.35664 0.0
H2123 H 0.73625 0.89025 0.34619 0.0
H2124 H 0.9749 0.7802 0.41359 0.0
H2125 H 0.00798 0.7901 0.40303 0.0
H2126 H 0.98614 0.80352 0.36684 0.0
H2127 H 0.95274 0.79315 0.37725 0.0
H2128 H 0.00363 0.77902 0.36264 0.0
H2129 H 0.0558 0.84669 0.39388 0.0
H2130 H 0.03972 0.82441 0.40343 0.0
H2131 H 0.02803 0.83578 0.39362 0.0
C2132 C 0.97713 0.78533 0.4034 0.0
C2133 C 0.96112 0.78586 0.39627 0.0
C2134 C 0.99616 0.79119 0.39741 0.0
C2135 C 0.99966 0.79781 0.38419 0.0
C2136 C 0.98383 0.79861 0.37709 0.0
H2137 H 0.12396 0.84771 0.35079 0.0
H2138 H 0.09026 0.84329 0.35704 0.0
C2139 C 0.9648 0.79281 0.38308 0.0
C2140 C 0.01938 0.80266 0.37759 0.0
H2141 H 0.07196 0.83233 0.38054 0.0
C2142 C 0.01857 0.79084 0.36646 0.0
C2143 C 0.03887 0.81823 0.38245 0.0
C2144 C 0.04072 0.83215 0.39392 0.0
C2145 C 0.03672 0.79363 0.36038 0.0
C2146 C 0.05628 0.80848 0.36568 0.0
C2147 C 0.05704 0.82084 0.3765 0.0
C2148 C 0.0761 0.81085 0.36063 0.0
C2149 C 0.03463 0.7805 0.34838 0.0
C2150 C 0.07945 0.79413 0.3605 0.0
C2151 C 0.09857 0.7966 0.35672 0.0
C2152 C 0.11479 0.81581 0.353 0.0
C2153 C 0.11155 0.8326 0.35319 0.0
C2154 C 0.09234 0.83011 0.35689 0.0
H2155 H 0.01994 0.77572 0.34283 0.0
H2156 H 0.04772 0.7886 0.34149 0.0
H2157 H 0.03438 0.76644 0.35172 0.0
H2158 H 0.06747 0.77927 0.36372 0.0
H2159 H 0.10083 0.78352 0.35695 0.0
H2160 H 0.2213 0.16619 0.38152 0.0
H2161 H 0.20568 0.18517 0.37214 0.0
H2162 H 0.24559 0.23731 0.39707 0.0
H2163 H 0.261 0.21839 0.40671 0.0
H2164 H 0.18622 0.20624 0.38591 0.0
H2165 H 0.25684 0.25795 0.35769 0.0
H2166 H 0.25212 0.23376 0.36405 0.0
H2167 H 0.26112 0.25558 0.37505 0.0
C2168 C 0.22653 0.18158 0.38517 0.0
C2169 C 0.24254 0.19084 0.39479 0.0
C2170 C 0.21766 0.19241 0.37975 0.0
C2171 C 0.22473 0.21269 0.38379 0.0
C2172 C 0.2402 0.22176 0.39367 0.0
H2173 H 0.20668 0.31257 0.36548 0.0
H2174 H 0.21699 0.28875 0.37362 0.0
C2175 C 0.24902 0.21095 0.39913 0.0
C2176 C 0.21638 0.22468 0.37749 0.0
H2177 H 0.23059 0.26686 0.35871 0.0
C2178 C 0.19579 0.21939 0.37986 0.0
C2179 C 0.22896 0.24173 0.36957 0.0
C2180 C 0.25095 0.24756 0.36631 0.0
C2181 C 0.18768 0.23131 0.37494 0.0
C2182 C 0.20045 0.24868 0.36728 0.0
C2183 C 0.22087 0.25358 0.36463 0.0
C2184 C 0.19343 0.26267 0.36247 0.0
C2185 C 0.16583 0.22569 0.37842 0.0
C2186 C 0.17673 0.25591 0.35347 0.0
C2187 C 0.17067 0.26952 0.34881 0.0
C2188 C 0.18139 0.29019 0.35296 0.0
C2189 C 0.19808 0.29682 0.36201 0.0
C2190 C 0.20404 0.28322 0.36668 0.0
H2191 H 0.15977 0.21477 0.38676 0.0
H2192 H 0.165 0.23952 0.38121 0.0
H2193 H 0.15557 0.21837 0.36961 0.0
H2194 H 0.16853 0.24018 0.34993 0.0
H2195 H 0.15759 0.26382 0.34199 0.0
H2196 H 0.66566 0.51621 0.75118 0.0
H2197 H 0.69242 0.54358 0.73815 0.0
H2198 H 0.649 0.52866 0.70559 0.0
H2199 H 0.62223 0.50048 0.71838 0.0
H2200 H 0.68677 0.53536 0.69709 0.0
H2201 H 0.69747 0.59835 0.7309 0.0
H2202 H 0.7005 0.57932 0.73946 0.0
H2203 H 0.67578 0.57272 0.73217 0.0
C2204 C 0.66178 0.51857 0.7412 0.0
C2205 C 0.64174 0.50608 0.73584 0.0
C2206 C 0.67706 0.53444 0.73382 0.0
C2207 C 0.67263 0.53842 0.72098 0.0
C2208 C 0.65271 0.52595 0.71553 0.0
H2209 H 0.76297 0.65382 0.68611 0.0
H2210 H 0.73006 0.62461 0.69295 0.0
C2211 C 0.63739 0.50997 0.7229 0.0
C2212 C 0.68899 0.5554 0.71325 0.0
H2213 H 0.72435 0.60635 0.71519 0.0
C2214 C 0.69485 0.55095 0.70095 0.0
C2215 C 0.69928 0.57579 0.71816 0.0
C2216 C 0.69279 0.58189 0.73083 0.0
C2217 C 0.71126 0.56622 0.69368 0.0
C2218 C 0.72239 0.5864 0.69901 0.0
C2219 C 0.71599 0.59091 0.71109 0.0
C2220 C 0.74114 0.60305 0.6926 0.0
C2221 C 0.71631 0.56056 0.68034 0.0
C2222 C 0.75823 0.60062 0.68977 0.0
C2223 C 0.7769 0.61723 0.6856 0.0
C2224 C 0.77888 0.63661 0.68436 0.0
C2225 C 0.76171 0.63895 0.68687 0.0
C2226 C 0.74295 0.62229 0.69081 0.0
H2227 H 0.70256 0.54715 0.67574 0.0
H2228 H 0.72204 0.57349 0.67339 0.0
H2229 H 0.72851 0.55641 0.68166 0.0
H2230 H 0.75755 0.58619 0.69146 0.0
H2231 H 0.79006 0.61512 0.68406 0.0
H2232 H 0.4599 0.08203 0.72384 0.0
H2233 H 0.43537 0.09162 0.71515 0.0
H2234 H 0.48099 0.15535 0.72062 0.0
H2235 H 0.50586 0.14585 0.72923 0.0
H2236 H 0.42202 0.11692 0.72953 0.0
H2237 H 0.45901 0.14948 0.68104 0.0
H2238 H 0.4644 0.13216 0.69015 0.0
H2239 H 0.4752 0.15817 0.69578 0.0
C2240 C 0.46487 0.09811 0.72303 0.0
C2241 C 0.48493 0.11318 0.72714 0.0
C2242 C 0.45077 0.10355 0.71813 0.0
C2243 C 0.45642 0.12418 0.71709 0.0
C2244 C 0.47641 0.13933 0.72117 0.0
H2245 H 0.38251 0.17681 0.68776 0.0
H2246 H 0.41106 0.17218 0.69558 0.0
C2247 C 0.49053 0.13388 0.72619 0.0
C2248 C 0.44094 0.12957 0.71226 0.0
H2249 H 0.42821 0.14957 0.68594 0.0
C2250 C 0.42339 0.12411 0.72002 0.0
C2251 C 0.44286 0.13912 0.69991 0.0
C2252 C 0.46129 0.14503 0.69114 0.0
C2253 C 0.40763 0.12779 0.71573 0.0
C2254 C 0.40914 0.13666 0.70314 0.0
C2255 C 0.42696 0.14261 0.69552 0.0
C2256 C 0.39214 0.1394 0.69766 0.0
C2257 C 0.38961 0.12234 0.72482 0.0
C2258 C 0.37212 0.12249 0.69592 0.0
C2259 C 0.35584 0.12512 0.69147 0.0
C2260 C 0.35936 0.14463 0.68831 0.0
C2261 C 0.37945 0.16153 0.68981 0.0
C2262 C 0.39575 0.15891 0.69435 0.0
H2263 H 0.39377 0.12174 0.73538 0.0
H2264 H 0.38416 0.13353 0.72409 0.0
H2265 H 0.37661 0.107 0.72195 0.0
H2266 H 0.36903 0.10724 0.69813 0.0
H2267 H 0.34045 0.11189 0.69049 0.0
H2268 H 0.90377 0.37687 0.74434 0.0
H2269 H 0.88909 0.3421 0.73525 0.0
H2270 H 0.88767 0.36381 0.69598 0.0
H2271 H 0.90222 0.39864 0.70499 0.0
H2272 H 0.85191 0.31698 0.72064 0.0
H2273 H 0.92217 0.33531 0.69155 0.0
H2274 H 0.92211 0.35208 0.70449 0.0
H2275 H 0.91116 0.35125 0.68836 0.0
C2276 C 0.90007 0.37422 0.7338 0.0
C2277 C 0.9043 0.39054 0.72536 0.0
C2278 C 0.89176 0.35436 0.72862 0.0
C2279 C 0.8876 0.35048 0.71493 0.0
C2280 C 0.89116 0.36659 0.70654 0.0
H2281 H 0.82048 0.22901 0.6772 0.0
H2282 H 0.8311 0.26371 0.685 0.0
C2283 C 0.89949 0.38646 0.7117 0.0
C2284 C 0.88006 0.32964 0.70942 0.0
H2285 H 0.89351 0.30195 0.68891 0.0
C2286 C 0.86093 0.31366 0.71367 0.0
C2287 C 0.89203 0.3254 0.70045 0.0
C2288 C 0.91309 0.34184 0.696 0.0
C2289 C 0.85343 0.29346 0.70916 0.0
C2290 C 0.8653 0.28927 0.70006 0.0
C2291 C 0.8844 0.30527 0.69581 0.0
C2292 C 0.85868 0.26825 0.69529 0.0
C2293 C 0.83318 0.2767 0.71444 0.0
C2294 C 0.87088 0.25948 0.69828 0.0
C2295 C 0.86501 0.23978 0.69372 0.0
C2296 C 0.84687 0.22849 0.68599 0.0
C2297 C 0.83465 0.23733 0.68301 0.0
C2298 C 0.84057 0.25709 0.68757 0.0
H2299 H 0.82829 0.28174 0.72347 0.0
H2300 H 0.82092 0.27212 0.70668 0.0
H2301 H 0.83434 0.26302 0.7169 0.0
H2302 H 0.88494 0.26789 0.7042 0.0
H2303 H 0.8748 0.23349 0.69622 0.0
H2304 H 0.19621 0.94077 0.62953 0.0
H2305 H 0.2181 0.97569 0.63798 0.0
H2306 H 0.18188 0.99526 0.61559 0.0
H2307 H 0.15962 0.96021 0.6072 0.0
H2308 H 0.22529 0.02066 0.61298 0.0
H2309 H 0.20252 0.00587 0.66597 0.0
H2310 H 0.21057 0.98905 0.65892 0.0
H2311 H 0.18756 0.98823 0.65264 0.0
C2312 C 0.19266 0.95241 0.62655 0.0
C2313 C 0.17602 0.94762 0.61777 0.0
C2314 C 0.20523 0.97237 0.63137 0.0
C2315 C 0.20141 0.98798 0.62757 0.0
C2316 C 0.18501 0.98338 0.61869 0.0
H2317 H 0.26019 0.1095 0.66476 0.0
H2318 H 0.23511 0.0757 0.6558 0.0
C2319 C 0.17238 0.96338 0.61386 0.0
C2320 C 0.21492 0.00917 0.63264 0.0
H2321 H 0.23223 0.03798 0.66127 0.0
C2322 C 0.22672 0.0245 0.62352 0.0
C2323 C 0.21654 0.01417 0.64638 0.0
C2324 C 0.20349 0.99853 0.65655 0.0
C2325 C 0.24061 0.04462 0.62784 0.0
C2326 C 0.24288 0.0494 0.64163 0.0
C2327 C 0.23061 0.03421 0.65071 0.0
C2328 C 0.25813 0.07002 0.64688 0.0
C2329 C 0.25265 0.06059 0.6176 0.0
C2330 C 0.2794 0.07794 0.64496 0.0
C2331 C 0.2938 0.09719 0.65016 0.0
C2332 C 0.28721 0.10885 0.65747 0.0
C2333 C 0.26585 0.10085 0.65936 0.0
C2334 C 0.25147 0.08156 0.65418 0.0
H2335 H 0.24527 0.05591 0.60756 0.0
H2336 H 0.25407 0.07549 0.62044 0.0
H2337 H 0.26848 0.06279 0.61694 0.0
H2338 H 0.28488 0.06911 0.63956 0.0
H2339 H 0.3101 0.10282 0.64853 0.0
H2340 H 0.02638 0.22682 0.6015 0.0
H2341 H 0.99315 0.21843 0.61125 0.0
H2342 H 0.00832 0.19572 0.64617 0.0
H2343 H 0.04164 0.20404 0.63647 0.0
H2344 H 0.96034 0.18194 0.61968 0.0
H2345 H 0.99457 0.23744 0.66199 0.0
H2346 H 0.00959 0.23772 0.64788 0.0
H2347 H 0.00327 0.21923 0.66072 0.0
C2348 C 0.02258 0.21979 0.61118 0.0
C2349 C 0.03678 0.2162 0.61821 0.0
C2350 C 0.00359 0.2151 0.61678 0.0
C2351 C 0.99836 0.20678 0.62955 0.0
C2352 C 0.0122 0.20259 0.63644 0.0
H2353 H 0.87226 0.15784 0.66058 0.0
H2354 H 0.9054 0.16115 0.65402 0.0
C2355 C 0.03124 0.20733 0.63087 0.0
C2356 C 0.97848 0.20269 0.63559 0.0
H2357 H 0.95815 0.21646 0.66149 0.0
C2358 C 0.95985 0.18941 0.62886 0.0
C2359 C 0.97786 0.21258 0.64752 0.0
C2360 C 0.99737 0.22768 0.65492 0.0
C2361 C 0.94067 0.18591 0.63362 0.0
C2362 C 0.94005 0.19571 0.64558 0.0
C2363 C 0.95864 0.20882 0.65239 0.0
C2364 C 0.92042 0.1937 0.65063 0.0
C2365 C 0.9213 0.1723 0.62557 0.0
C2366 C 0.91804 0.21097 0.65135 0.0
C2367 C 0.89923 0.20914 0.65525 0.0
C2368 C 0.88254 0.19007 0.65875 0.0
C2369 C 0.88499 0.17281 0.65823 0.0
C2370 C 0.90385 0.17465 0.65432 0.0
H2371 H 0.9249 0.16952 0.61529 0.0
H2372 H 0.9125 0.15731 0.63048 0.0
H2373 H 0.91118 0.17914 0.62495 0.0
H2374 H 0.93059 0.22582 0.64853 0.0
H2375 H 0.89762 0.22261 0.6554 0.0
H2376 H 0.77298 0.80748 0.59531 0.0
H2377 H 0.77574 0.78122 0.60771 0.0
H2378 H 0.82114 0.8277 0.63411 0.0
H2379 H 0.81881 0.85405 0.62164 0.0
H2380 H 0.83307 0.80068 0.62226 0.0
H2381 H 0.7556 0.75862 0.64552 0.0
H2382 H 0.75547 0.76276 0.62794 0.0
H2383 H 0.76616 0.78424 0.63932 0.0
C2384 C 0.78345 0.81208 0.60381 0.0
C2385 C 0.79567 0.83283 0.6075 0.0
C2386 C 0.78485 0.79706 0.61096 0.0
C2387 C 0.79848 0.80254 0.6219 0.0
C2388 C 0.81042 0.82318 0.62575 0.0
H2389 H 0.84307 0.73721 0.66987 0.0
H2390 H 0.83648 0.76295 0.66035 0.0
C2391 C 0.80897 0.83819 0.61866 0.0
C2392 C 0.80149 0.78696 0.6287 0.0
H2393 H 0.77699 0.74378 0.64717 0.0
C2394 C 0.82088 0.7883 0.62779 0.0
C2395 C 0.78546 0.7708 0.63579 0.0
C2396 C 0.76452 0.76901 0.63733 0.0
C2397 C 0.8246 0.77366 0.63359 0.0
C2398 C 0.80862 0.75753 0.64077 0.0
C2399 C 0.78921 0.7562 0.6417 0.0
C2400 C 0.81171 0.74172 0.6472 0.0
C2401 C 0.84543 0.77529 0.63165 0.0
C2402 C 0.79944 0.72111 0.64334 0.0
C2403 C 0.80291 0.70625 0.64894 0.0
C2404 C 0.8187 0.71174 0.65855 0.0
C2405 C 0.83067 0.73237 0.66258 0.0
C2406 C 0.82709 0.74718 0.65704 0.0
H2407 H 0.85374 0.78504 0.62307 0.0
H2408 H 0.85516 0.78233 0.64071 0.0
H2409 H 0.84376 0.75998 0.63002 0.0
H2410 H 0.78743 0.71658 0.63579 0.0
H2411 H 0.79334 0.69052 0.64561 0.0
H2412 H 0.02273 0.79311 0.60029 0.0
H2413 H 0.98961 0.772 0.6112 0.0
H2414 H 0.01299 0.80986 0.64667 0.0
H2415 H 0.04642 0.83068 0.63598 0.0
H2416 H 0.9946 0.76901 0.65198 0.0
H2417 H 0.94309 0.78345 0.61973 0.0
H2418 H 0.95834 0.77544 0.61042 0.0
H2419 H 0.97095 0.79933 0.61958 0.0
C2420 C 0.02082 0.797 0.6104 0.0
C2421 C 0.03725 0.8136 0.61725 0.0
C2422 C 0.00178 0.78506 0.61657 0.0
C2423 C 0.99871 0.78953 0.62969 0.0
C2424 C 0.01496 0.80624 0.6365 0.0
H2425 H 0.87389 0.71906 0.66249 0.0
H2426 H 0.90786 0.74801 0.65696 0.0
C2427 C 0.03401 0.81821 0.63034 0.0
C2428 C 0.97902 0.77591 0.63654 0.0
H2429 H 0.92652 0.75385 0.63346 0.0
C2430 C 0.97972 0.7659 0.64804 0.0
C2431 C 0.95962 0.7721 0.63153 0.0
C2432 C 0.95791 0.78331 0.61971 0.0
C2433 C 0.96151 0.75144 0.65429 0.0
C2434 C 0.94206 0.74663 0.64877 0.0
C2435 C 0.9414 0.75738 0.63765 0.0
C2436 C 0.92226 0.72959 0.65375 0.0
C2437 C 0.96338 0.74137 0.66668 0.0
C2438 C 0.91907 0.70964 0.6539 0.0
C2439 C 0.8998 0.69318 0.65724 0.0
C2440 C 0.88333 0.69633 0.66048 0.0
C2441 C 0.88649 0.71628 0.66042 0.0
C2442 C 0.90584 0.73279 0.65715 0.0
H2443 H 0.97804 0.75154 0.6722 0.0
H2444 H 0.95021 0.7372 0.67345 0.0
H2445 H 0.96356 0.72724 0.66381 0.0
H2446 H 0.93125 0.70665 0.65094 0.0
H2447 H 0.89759 0.67788 0.65695 0.0
H2448 H 0.19692 0.2246 0.5966 0.0
H2449 H 0.22159 0.21583 0.60622 0.0
H2450 H 0.18902 0.20184 0.64341 0.0
H2451 H 0.16448 0.21099 0.63393 0.0
H2452 H 0.23211 0.22804 0.64607 0.0
H2453 H 0.21382 0.15947 0.61529 0.0
H2454 H 0.21875 0.18144 0.60584 0.0
H2455 H 0.19656 0.16967 0.61643 0.0
C2456 C 0.19494 0.21958 0.60681 0.0
C2457 C 0.1787 0.2185 0.61449 0.0
C2458 C 0.20895 0.21438 0.61226 0.0
C2459 C 0.20702 0.20795 0.62549 0.0
C2460 C 0.19072 0.20663 0.63314 0.0
H2461 H 0.28033 0.15754 0.65847 0.0
H2462 H 0.25194 0.16291 0.65152 0.0
C2463 C 0.17662 0.21173 0.62768 0.0
C2464 C 0.2227 0.20373 0.63154 0.0
H2465 H 0.24481 0.17382 0.62835 0.0
C2466 C 0.23478 0.21607 0.64229 0.0
C2467 C 0.22608 0.18803 0.62666 0.0
C2468 C 0.21301 0.17375 0.6155 0.0
C2469 C 0.25048 0.21348 0.64809 0.0
C2470 C 0.2544 0.19822 0.64291 0.0
C2471 C 0.24193 0.18556 0.63234 0.0
C2472 C 0.27153 0.1953 0.64806 0.0
C2473 C 0.26258 0.22718 0.65972 0.0
C2474 C 0.29207 0.21163 0.64843 0.0
C2475 C 0.30822 0.20865 0.65271 0.0
C2476 C 0.30423 0.18926 0.65664 0.0
C2477 C 0.28379 0.1728 0.65598 0.0
C2478 C 0.26758 0.17583 0.65186 0.0
H2479 H 0.25316 0.23226 0.6654 0.0
H2480 H 0.26794 0.21946 0.66662 0.0
H2481 H 0.27633 0.24105 0.65594 0.0
H2482 H 0.29571 0.22664 0.64514 0.0
H2483 H 0.32392 0.22147 0.65278 0.0
H2484 H 0.77736 0.97056 0.59445 0.0
H2485 H 0.77855 0.99944 0.60663 0.0
H2486 H 0.82335 5e-05 0.63418 0.0
H2487 H 0.82203 0.97101 0.62225 0.0
H2488 H 0.7726 0.0047 0.63552 0.0
H2489 H 0.85151 0.05817 0.61695 0.0
H2490 H 0.83475 0.03353 0.60918 0.0
H2491 H 0.8482 0.03527 0.62445 0.0
C2492 C 0.78719 0.9766 0.60324 0.0
C2493 C 0.79978 0.96863 0.6073 0.0
C2494 C 0.7879 0.99313 0.61014 0.0
C2495 C 0.80124 0.00198 0.62116 0.0
C2496 C 0.81319 0.99358 0.62556 0.0
H2497 H 0.8434 0.11149 0.66907 0.0
H2498 H 0.83655 0.07902 0.65926 0.0
C2499 C 0.81247 0.97706 0.6187 0.0
C2500 C 0.80346 0.02061 0.62771 0.0
H2501 H 0.83791 0.0713 0.6329 0.0
C2502 C 0.78682 0.01931 0.63494 0.0
C2503 C 0.82204 0.03957 0.62689 0.0
C2504 C 0.84013 0.04188 0.61887 0.0
C2505 C 0.78848 0.03649 0.64168 0.0
C2506 C 0.80712 0.05547 0.64088 0.0
C2507 C 0.82366 0.05672 0.63354 0.0
C2508 C 0.81 0.0743 0.64759 0.0
C2509 C 0.77049 0.03405 0.64985 0.0
C2510 C 0.79731 0.08244 0.64431 0.0
C2511 C 0.80102 0.10095 0.65005 0.0
C2512 C 0.81763 0.11174 0.65908 0.0
C2513 C 0.83026 0.10347 0.66235 0.0
C2514 C 0.82645 0.08494 0.65668 0.0
H2515 H 0.75984 0.01781 0.65237 0.0
H2516 H 0.77597 0.04325 0.65923 0.0
H2517 H 0.76153 0.03946 0.64404 0.0
H2518 H 0.78484 0.07474 0.63707 0.0
H2519 H 0.79108 0.10693 0.64723 0.0
H2520 H 0.52416 0.365 0.72219 0.0
H2521 H 0.49505 0.33503 0.71155 0.0
H2522 H 0.45265 0.3412 0.73755 0.0
H2523 H 0.48171 0.37093 0.74851 0.0
H2524 H 0.46612 0.2987 0.72659 0.0
H2525 H 0.42741 0.33392 0.69887 0.0
H2526 H 0.45432 0.34831 0.70401 0.0
H2527 H 0.43434 0.34162 0.71604 0.0
C2528 C 0.50866 0.36003 0.72566 0.0
C2529 C 0.50532 0.37034 0.73627 0.0
C2530 C 0.49204 0.34298 0.71951 0.0
C2531 C 0.47173 0.33601 0.72371 0.0
C2532 C 0.46821 0.34654 0.73403 0.0
H2533 H 0.35447 0.22953 0.69817 0.0
H2534 H 0.38084 0.26153 0.70879 0.0
C2535 C 0.48485 0.36357 0.74026 0.0
C2536 C 0.45446 0.31689 0.71792 0.0
H2537 H 0.4111 0.29789 0.69818 0.0
C2538 C 0.45408 0.29849 0.72037 0.0
C2539 C 0.43869 0.31671 0.70997 0.0
C2540 C 0.43863 0.33617 0.70695 0.0
C2541 C 0.43834 0.27984 0.71505 0.0
C2542 C 0.42287 0.27968 0.70675 0.0
C2543 C 0.42303 0.29806 0.7045 0.0
C2544 C 0.4068 0.26064 0.70002 0.0
C2545 C 0.43829 0.26046 0.71856 0.0
C2546 C 0.41263 0.24973 0.69138 0.0
C2547 C 0.39768 0.23139 0.68542 0.0
C2548 C 0.37648 0.22372 0.68775 0.0
C2549 C 0.37063 0.23495 0.69616 0.0
C2550 C 0.38568 0.25328 0.70222 0.0
H2551 H 0.44697 0.26233 0.72799 0.0
H2552 H 0.42226 0.24746 0.7196 0.0
H2553 H 0.44594 0.25655 0.71053 0.0
H2554 H 0.42882 0.25533 0.68931 0.0
H2555 H 0.40284 0.22312 0.67914 0.0
H2556 H 0.61423 0.08843 0.71591 0.0
H2557 H 0.64839 0.0996 0.70662 0.0
H2558 H 0.67459 0.15371 0.73173 0.0
H2559 H 0.64038 0.14239 0.74132 0.0
H2560 H 0.67569 0.13624 0.69329 0.0
H2561 H 0.71034 0.12718 0.74008 0.0
H2562 H 0.68273 0.11599 0.7377 0.0
H2563 H 0.69857 0.14288 0.74119 0.0
C2564 C 0.62726 0.10265 0.71954 0.0
C2565 C 0.62459 0.11439 0.72948 0.0
C2566 C 0.64676 0.10909 0.71414 0.0
C2567 C 0.6641 0.12735 0.71859 0.0
C2568 C 0.66147 0.13941 0.72828 0.0
H2569 H 0.78873 0.1801 0.68402 0.0
H2570 H 0.75547 0.17587 0.6914 0.0
C2571 C 0.64189 0.13302 0.73366 0.0
C2572 C 0.68485 0.1334 0.71313 0.0
H2573 H 0.7317 0.13831 0.72127 0.0
C2574 C 0.68805 0.13698 0.69943 0.0
C2575 C 0.70084 0.13405 0.72114 0.0
C2576 C 0.69803 0.12969 0.73583 0.0
C2577 C 0.70672 0.14096 0.6935 0.0
C2578 C 0.72259 0.14134 0.70146 0.0
C2579 C 0.71953 0.13809 0.7152 0.0
C2580 C 0.74193 0.14371 0.69563 0.0
C2581 C 0.70896 0.14354 0.67867 0.0
C2582 C 0.74525 0.12701 0.6954 0.0
C2583 C 0.76408 0.12934 0.69105 0.0
C2584 C 0.78 0.14842 0.68685 0.0
C2585 C 0.77657 0.1651 0.68686 0.0
C2586 C 0.75762 0.16272 0.69115 0.0
H2587 H 0.69511 0.14264 0.67382 0.0
H2588 H 0.72268 0.15854 0.67639 0.0
H2589 H 0.71143 0.13136 0.67436 0.0
H2590 H 0.73339 0.11224 0.69886 0.0
H2591 H 0.76641 0.11631 0.69131 0.0
H2592 H 0.88227 0.49766 0.71618 0.0
H2593 H 0.86701 0.51682 0.70654 0.0
H2594 H 0.91382 0.57185 0.72626 0.0
H2595 H 0.92901 0.55286 0.73606 0.0
H2596 H 0.85203 0.54114 0.71949 0.0
H2597 H 0.91836 0.58681 0.6864 0.0
H2598 H 0.9143 0.5637 0.69419 0.0
H2599 H 0.92554 0.58734 0.70356 0.0
C2600 C 0.88918 0.5138 0.71858 0.0
C2601 C 0.90698 0.52379 0.72679 0.0
C2602 C 0.8805 0.52471 0.71302 0.0
C2603 C 0.88953 0.54578 0.71551 0.0
C2604 C 0.90691 0.55567 0.72399 0.0
H2605 H 0.87289 0.6462 0.69663 0.0
H2606 H 0.88317 0.62222 0.70454 0.0
C2607 C 0.91558 0.5448 0.72956 0.0
C2608 C 0.88096 0.55761 0.70924 0.0
H2609 H 0.89381 0.59792 0.68887 0.0
C2610 C 0.86102 0.55341 0.71268 0.0
C2611 C 0.89274 0.57351 0.70031 0.0
C2612 C 0.91385 0.57803 0.69577 0.0
C2613 C 0.8529 0.56538 0.70788 0.0
C2614 C 0.86497 0.58169 0.69926 0.0
C2615 C 0.88465 0.58545 0.69552 0.0
C2616 C 0.85805 0.59581 0.69458 0.0
C2617 C 0.83187 0.56102 0.71247 0.0
C2618 C 0.84049 0.5889 0.68632 0.0
C2619 C 0.83447 0.6026 0.68179 0.0
C2620 C 0.84605 0.62348 0.68535 0.0
C2621 C 0.8636 0.63027 0.69366 0.0
C2622 C 0.86955 0.61658 0.69819 0.0
H2623 H 0.82647 0.55072 0.72114 0.0
H2624 H 0.83215 0.57543 0.71522 0.0
H2625 H 0.82044 0.5535 0.70422 0.0
H2626 H 0.83156 0.57296 0.68328 0.0
H2627 H 0.82074 0.59681 0.67555 0.0
H2628 H 0.43887 0.94113 0.19848 0.0
H2629 H 0.44681 0.95271 0.1755 0.0
H2630 H 0.49835 0.94197 0.17602 0.0
H2631 H 0.49086 0.93088 0.19912 0.0
H2632 H 0.50886 0.98034 0.16714 0.0
H2633 H 0.43858 0.92113 0.14047 0.0
H2634 H 0.43313 0.93273 0.1544 0.0
H2635 H 0.44535 0.91775 0.15716 0.0
C2636 C 0.45184 0.94112 0.19369 0.0
C2637 C 0.46424 0.93508 0.20068 0.0
C2638 C 0.45622 0.94754 0.18049 0.0
C2639 C 0.47303 0.94798 0.17396 0.0
C2640 C 0.48521 0.94161 0.18082 0.0
H2641 H 0.5057 0.97699 0.09015 0.0
H2642 H 0.49501 0.95963 0.11155 0.0
C2643 C 0.48081 0.93514 0.194 0.0
C2644 C 0.47884 0.9565 0.16037 0.0
H2645 H 0.46077 0.9512 0.12835 0.0
C2646 C 0.49839 0.97387 0.15864 0.0
C2647 C 0.46527 0.94795 0.14925 0.0
C2648 C 0.44448 0.92874 0.15034 0.0
C2649 C 0.50453 0.98324 0.14621 0.0
C2650 C 0.49064 0.97521 0.13521 0.0
C2651 C 0.47131 0.95748 0.13682 0.0
C2652 C 0.49591 0.98524 0.12204 0.0
C2653 C 0.5259 0.00163 0.14494 0.0
C2654 C 0.49944 0.00519 0.12075 0.0
C2655 C 0.50543 0.0151 0.10855 0.0
C2656 C 0.50799 0.00527 0.09733 0.0
C2657 C 0.50377 0.985 0.09855 0.0
C2658 C 0.49774 0.97507 0.11078 0.0
H2659 H 0.53639 0.00262 0.15317 0.0
H2660 H 0.53293 0.0012 0.1353 0.0
H2661 H 0.52479 0.01572 0.14531 0.0
H2662 H 0.49767 0.01317 0.12922 0.0
H2663 H 0.50808 0.03052 0.10792 0.0
H2664 H 0.08711 0.57686 0.19018 0.0
H2665 H 0.06539 0.56773 0.1701 0.0
H2666 H 0.04703 0.50431 0.17509 0.0
H2667 H 0.06881 0.51333 0.19516 0.0
H2668 H 0.06965 0.54912 0.14721 0.0
H2669 H 0.99162 0.50237 0.1689 0.0
H2670 H 0.0142 0.51916 0.17889 0.0
H2671 H 0.00993 0.49459 0.17346 0.0
C2672 C 0.07843 0.56096 0.18701 0.0
C2673 C 0.07972 0.54582 0.19424 0.0
C2674 C 0.06596 0.55577 0.17558 0.0
C2675 C 0.05445 0.53534 0.17119 0.0
C2676 C 0.05546 0.52012 0.17846 0.0
H2677 H 0.00565 0.49163 0.09152 0.0
H2678 H 0.02431 0.4998 0.11285 0.0
C2679 C 0.06792 0.5253 0.18992 0.0
C2680 C 0.04238 0.53017 0.15857 0.0
H2681 H 0.99362 0.50209 0.14527 0.0
C2682 C 0.05302 0.53889 0.14679 0.0
C2683 C 0.02067 0.51696 0.15808 0.0
C2684 C 0.00835 0.50785 0.17051 0.0
C2685 C 0.04257 0.53452 0.13448 0.0
C2686 C 0.02096 0.52088 0.13394 0.0
C2687 C 0.01024 0.5124 0.14574 0.0
C2688 C 0.00923 0.51543 0.12119 0.0
C2689 C 0.05469 0.54474 0.12217 0.0
C2690 C 0.99428 0.52115 0.11895 0.0
C2691 C 0.98366 0.5166 0.10675 0.0
C2692 C 0.98772 0.50613 0.0966 0.0
C2693 C 0.00244 0.50006 0.09902 0.0
C2694 C 0.01307 0.50466 0.11121 0.0
H2695 H 0.07006 0.55819 0.12469 0.0
H2696 H 0.05727 0.53365 0.11635 0.0
H2697 H 0.04599 0.54978 0.11573 0.0
H2698 H 0.9911 0.52946 0.12656 0.0
H2699 H 0.97258 0.52167 0.10518 0.0
H2700 H 0.50195 0.53547 0.20475 0.0
H2701 H 0.50796 0.53126 0.1814 0.0
H2702 H 0.44322 0.50749 0.17243 0.0
H2703 H 0.43715 0.5124 0.19581 0.0
H2704 H 0.49013 0.49488 0.16701 0.0
H2705 H 0.47189 0.55044 0.14366 0.0
H2706 H 0.47647 0.55054 0.16134 0.0
H2707 H 0.4521 0.53179 0.15408 0.0
C2708 C 0.48903 0.52977 0.1978 0.0
C2709 C 0.46909 0.52447 0.20217 0.0
C2710 C 0.49247 0.52721 0.18445 0.0
C2711 C 0.4761 0.51929 0.17514 0.0
C2712 C 0.45615 0.51397 0.1794 0.0
H2713 H 0.47872 0.4897 0.0906 0.0
H2714 H 0.46703 0.49347 0.11269 0.0
C2715 C 0.45268 0.51658 0.1928 0.0
C2716 C 0.48 0.5158 0.16115 0.0
H2717 H 0.48026 0.53083 0.12915 0.0
C2718 C 0.48791 0.5027 0.15873 0.0
C2719 C 0.47696 0.52593 0.15036 0.0
C2720 C 0.46904 0.5406 0.15243 0.0
C2721 C 0.49316 0.49966 0.14586 0.0
C2722 C 0.49067 0.51019 0.13513 0.0
C2723 C 0.48218 0.52283 0.13744 0.0
C2724 C 0.49771 0.50891 0.12158 0.0
C2725 C 0.5014 0.48523 0.14382 0.0
C2726 C 0.51886 0.51679 0.11923 0.0
C2727 C 0.5256 0.51482 0.10665 0.0
C2728 C 0.51131 0.50491 0.09614 0.0
C2729 C 0.49015 0.49753 0.09844 0.0
C2730 C 0.48342 0.49958 0.11106 0.0
H2731 H 0.49764 0.47468 0.15229 0.0
H2732 H 0.495 0.47603 0.1345 0.0
H2733 H 0.51851 0.49424 0.14297 0.0
H2734 H 0.53016 0.52437 0.12718 0.0
H2735 H 0.54204 0.52108 0.10516 0.0
H2736 H 0.94504 0.44928 0.81171 0.0
H2737 H 0.95428 0.45314 0.8354 0.0
H2738 H 0.97979 0.51832 0.83298 0.0
H2739 H 0.97121 0.51469 0.80921 0.0
H2740 H 0.00653 0.50761 0.84458 0.0
H2741 H 0.92913 0.46584 0.86772 0.0
H2742 H 0.93317 0.45145 0.85492 0.0
H2743 H 0.93271 0.47426 0.85069 0.0
C2744 C 0.95253 0.46443 0.81624 0.0
C2745 C 0.95742 0.48168 0.80856 0.0
C2746 C 0.95758 0.46658 0.82981 0.0
C2747 C 0.96748 0.48599 0.83598 0.0
C2748 C 0.972 0.50319 0.82842 0.0
H2749 H 0.99772 0.51364 0.92059 0.0
H2750 H 0.98344 0.51026 0.89807 0.0
C2751 C 0.96696 0.50106 0.81486 0.0
C2752 C 0.97462 0.48855 0.85003 0.0
H2753 H 0.95824 0.4739 0.8818 0.0
C2754 C 0.99595 0.50037 0.85273 0.0
C2755 C 0.96078 0.47922 0.86065 0.0
C2756 C 0.93765 0.46714 0.8584 0.0
C2757 C 0.00388 0.50269 0.86572 0.0
C2758 C 0.99013 0.49271 0.87626 0.0
C2759 C 0.96874 0.48135 0.87365 0.0
C2760 C 0.9978 0.49377 0.89003 0.0
C2761 C 0.02692 0.51588 0.86808 0.0
C2762 C 0.01021 0.48522 0.89299 0.0
C2763 C 0.01828 0.48699 0.90583 0.0
C2764 C 0.01405 0.49734 0.91598 0.0
C2765 C 0.00114 0.50543 0.91304 0.0
C2766 C 0.99304 0.5036 0.90018 0.0
H2767 H 0.03464 0.52629 0.85966 0.0
H2768 H 0.03026 0.52519 0.87738 0.0
H2769 H 0.03381 0.50593 0.86917 0.0
H2770 H 0.01374 0.47724 0.88533 0.0
H2771 H 0.0278 0.48022 0.90781 0.0
H2772 H 0.51302 0.44175 0.81448 0.0
H2773 H 0.50239 0.45131 0.83499 0.0
H2774 H 0.56466 0.50137 0.84132 0.0
H2775 H 0.57572 0.49122 0.8212 0.0
H2776 H 0.54967 0.48053 0.86361 0.0
H2777 H 0.49148 0.49739 0.84223 0.0
H2778 H 0.48614 0.47211 0.83787 0.0
H2779 H 0.50938 0.49396 0.83202 0.0
C2780 C 0.52452 0.45476 0.82024 0.0
C2781 C 0.54527 0.46568 0.81614 0.0
C2782 C 0.51832 0.4604 0.83189 0.0
C2783 C 0.53263 0.47729 0.8396 0.0
C2784 C 0.5533 0.48837 0.83548 0.0
H2785 H 0.49629 0.52906 0.90519 0.0
H2786 H 0.5093 0.52332 0.8842 0.0
C2787 C 0.55956 0.48265 0.82389 0.0
C2788 C 0.52628 0.48275 0.8523 0.0
H2789 H 0.49081 0.49343 0.86586 0.0
C2790 C 0.5369 0.48351 0.86408 0.0
C2791 C 0.50983 0.48696 0.85292 0.0
C2792 C 0.4987 0.48778 0.84056 0.0
C2793 C 0.53122 0.48787 0.87647 0.0
C2794 C 0.51406 0.49101 0.87717 0.0
C2795 C 0.50378 0.49076 0.86535 0.0
C2796 C 0.50652 0.49459 0.89003 0.0
C2797 C 0.54387 0.48936 0.88865 0.0
C2798 C 0.50044 0.48027 0.90026 0.0
C2799 C 0.49313 0.48359 0.91229 0.0
C2800 C 0.49143 0.50114 0.91425 0.0
C2801 C 0.49728 0.51533 0.90394 0.0
C2802 C 0.50477 0.51209 0.89195 0.0
H2803 H 0.55974 0.49289 0.88596 0.0
H2804 H 0.54511 0.50132 0.89575 0.0
H2805 H 0.53629 0.47447 0.89378 0.0
H2806 H 0.50109 0.46637 0.89889 0.0
H2807 H 0.48842 0.47222 0.91997 0.0
H2808 H 0.4942 0.04364 0.8081 0.0
H2809 H 0.48756 0.03146 0.8309 0.0
H2810 H 0.55099 0.07429 0.84181 0.0
H2811 H 0.55763 0.0872 0.81906 0.0
H2812 H 0.50628 0.01347 0.84426 0.0
H2813 H 0.51939 0.0834 0.87164 0.0
H2814 H 0.51598 0.0806 0.85377 0.0
H2815 H 0.54038 0.08673 0.86128 0.0
C2816 C 0.50667 0.05087 0.81538 0.0
C2817 C 0.52644 0.06658 0.8117 0.0
C2818 C 0.50287 0.04373 0.82842 0.0
C2819 C 0.51868 0.05209 0.83814 0.0
C2820 C 0.53842 0.06784 0.83457 0.0
H2821 H 0.51777 0.01494 0.92084 0.0
H2822 H 0.5284 0.03227 0.89942 0.0
C2823 C 0.54225 0.07505 0.8215 0.0
C2824 C 0.51458 0.04347 0.85176 0.0
H2825 H 0.51304 0.05496 0.88466 0.0
C2826 C 0.50776 0.02257 0.85308 0.0
C2827 C 0.51667 0.05536 0.86331 0.0
C2828 C 0.52334 0.07773 0.86249 0.0
C2829 C 0.50284 0.01321 0.86556 0.0
C2830 C 0.50447 0.02497 0.87706 0.0
C2831 C 0.51176 0.04597 0.87582 0.0
C2832 C 0.49791 0.01544 0.89032 0.0
C2833 C 0.49603 0.99079 0.86635 0.0
C2834 C 0.47716 0.00063 0.89243 0.0
C2835 C 0.47101 0.99082 0.90465 0.0
C2836 C 0.48548 0.99559 0.91508 0.0
C2837 C 0.50618 0.01095 0.91308 0.0
C2838 C 0.51231 0.02081 0.90082 0.0
H2839 H 0.5007 0.98533 0.85742 0.0
H2840 H 0.50263 0.98768 0.87536 0.0
H2841 H 0.47889 0.9818 0.86697 0.0
H2842 H 0.46569 0.99655 0.88456 0.0
H2843 H 0.45487 0.97944 0.90591 0.0
H2844 H 0.13915 0.30118 0.53984 0.0
H2845 H 0.14651 0.31245 0.51688 0.0
H2846 H 0.13189 0.25193 0.50418 0.0
H2847 H 0.12363 0.24022 0.52715 0.0
H2848 H 0.17632 0.31281 0.50093 0.0
H2849 H 0.09856 0.26459 0.4776 0.0
H2850 H 0.10246 0.26784 0.49542 0.0
H2851 H 0.10852 0.2508 0.48648 0.0
C2852 C 0.13703 0.29008 0.53217 0.0
C2853 C 0.13058 0.2697 0.5354 0.0
C2854 C 0.14144 0.29663 0.51902 0.0
C2855 C 0.13951 0.28301 0.50875 0.0
C2856 C 0.13311 0.26264 0.51189 0.0
H2857 H 0.17068 0.30796 0.42411 0.0
H2858 H 0.15972 0.29097 0.44564 0.0
C2859 C 0.12863 0.25603 0.52507 0.0
C2860 C 0.14517 0.29056 0.49492 0.0
H2861 H 0.12599 0.28528 0.46319 0.0
C2862 C 0.1653 0.30675 0.49269 0.0
C2863 C 0.13084 0.28257 0.48413 0.0
C2864 C 0.10883 0.26561 0.48599 0.0
C2865 C 0.17143 0.3153 0.48004 0.0
C2866 C 0.15698 0.30767 0.46933 0.0
C2867 C 0.13701 0.29112 0.47144 0.0
C2868 C 0.1622 0.31734 0.45606 0.0
C2869 C 0.19338 0.33246 0.47822 0.0
C2870 C 0.16664 0.33758 0.4547 0.0
C2871 C 0.17276 0.34726 0.44244 0.0
C2872 C 0.17457 0.33692 0.43123 0.0
C2873 C 0.16936 0.31636 0.4325 0.0
C2874 C 0.16318 0.30665 0.44481 0.0
H2875 H 0.20382 0.33299 0.48634 0.0
H2876 H 0.19956 0.33085 0.46853 0.0
H2877 H 0.19361 0.34726 0.47834 0.0
H2878 H 0.16557 0.34598 0.46318 0.0
H2879 H 0.17616 0.36293 0.44177 0.0
H2880 H 0.71716 0.86721 0.53617 0.0
H2881 H 0.69514 0.85717 0.51613 0.0
H2882 H 0.74887 0.87653 0.49162 0.0
H2883 H 0.77093 0.88623 0.51153 0.0
H2884 H 0.72209 0.89187 0.4841 0.0
H2885 H 0.67997 0.80757 0.49054 0.0
H2886 H 0.68027 0.82265 0.50464 0.0
H2887 H 0.704 0.82446 0.4992 0.0
C2888 C 0.72426 0.86908 0.52653 0.0
C2889 C 0.74582 0.87758 0.52546 0.0
C2890 C 0.71166 0.86337 0.51509 0.0
C2891 C 0.7204 0.86599 0.50243 0.0
C2892 C 0.74186 0.87442 0.50132 0.0
H2893 H 0.6678 0.82082 0.42431 0.0
H2894 H 0.68619 0.82878 0.44575 0.0
C2895 C 0.75444 0.88007 0.51271 0.0
C2896 C 0.70736 0.86054 0.49024 0.0
H2897 H 0.66975 0.82013 0.47232 0.0
C2898 C 0.71058 0.87621 0.48153 0.0
C2899 C 0.69253 0.84006 0.48691 0.0
C2900 C 0.689 0.82263 0.49573 0.0
C2901 C 0.69934 0.87195 0.46954 0.0
C2902 C 0.68437 0.85149 0.46625 0.0
C2903 C 0.68114 0.83581 0.47495 0.0
C2904 C 0.67251 0.84606 0.45355 0.0
C2905 C 0.70394 0.88928 0.4603 0.0
C2906 C 0.65852 0.8529 0.45095 0.0
C2907 C 0.64807 0.84846 0.43869 0.0
C2908 C 0.65142 0.83708 0.42884 0.0
C2909 C 0.66513 0.82988 0.43162 0.0
C2910 C 0.67552 0.83428 0.44389 0.0
H2911 H 0.71873 0.90335 0.46298 0.0
H2912 H 0.70478 0.88488 0.44983 0.0
H2913 H 0.69129 0.89291 0.46089 0.0
H2914 H 0.65583 0.86181 0.45836 0.0
H2915 H 0.63771 0.85432 0.43683 0.0
H2916 H 0.15507 0.83873 0.53981 0.0
H2917 H 0.16165 0.83668 0.51622 0.0
H2918 H 0.12788 0.86733 0.50632 0.0
H2919 H 0.12179 0.87009 0.53003 0.0
H2920 H 0.13407 0.81813 0.49513 0.0
H2921 H 0.18338 0.9018 0.48774 0.0
H2922 H 0.17672 0.89075 0.50406 0.0
H2923 H 0.15811 0.89364 0.49432 0.0
C2924 C 0.14922 0.84526 0.53265 0.0
C2925 C 0.13811 0.8548 0.53684 0.0
C2926 C 0.15286 0.84392 0.51915 0.0
C2927 C 0.14552 0.85211 0.50952 0.0
C2928 C 0.134 0.86123 0.5136 0.0
H2929 H 0.14954 0.82618 0.42429 0.0
H2930 H 0.13736 0.82958 0.44625 0.0
C2931 C 0.13035 0.86259 0.52715 0.0
C2932 C 0.1501 0.85102 0.49526 0.0
H2933 H 0.17679 0.88036 0.46889 0.0
C2934 C 0.14329 0.83172 0.48935 0.0
C2935 C 0.1623 0.8688 0.4878 0.0
C2936 C 0.17074 0.88995 0.49379 0.0
C2937 C 0.1486 0.8297 0.47624 0.0
C2938 C 0.16077 0.84747 0.46877 0.0
C2939 C 0.16734 0.86677 0.47461 0.0
C2940 C 0.16798 0.84639 0.45519 0.0
C2941 C 0.1418 0.80858 0.4707 0.0
C2942 C 0.18926 0.85531 0.4528 0.0
C2943 C 0.19628 0.85361 0.44023 0.0
C2944 C 0.18216 0.84299 0.42976 0.0
C2945 C 0.16084 0.83454 0.4321 0.0
C2946 C 0.15384 0.83628 0.44468 0.0
H2947 H 0.13662 0.79702 0.47866 0.0
H2948 H 0.12862 0.80397 0.46366 0.0
H2949 H 0.15455 0.80838 0.46518 0.0
H2950 H 0.20046 0.8633 0.46073 0.0
H2951 H 0.2128 0.86064 0.43873 0.0
H2952 H 0.59772 0.79926 0.14485 0.0
H2953 H 0.60436 0.80257 0.16896 0.0
H2954 H 0.67008 0.83706 0.16205 0.0
H2955 H 0.66361 0.83434 0.13806 0.0
H2956 H 0.62677 0.78903 0.18363 0.0
H2957 H 0.66158 0.87291 0.18913 0.0
H2958 H 0.64701 0.85887 0.17448 0.0
H2959 H 0.67374 0.86578 0.17644 0.0
C2960 C 0.61357 0.80779 0.14849 0.0
C2961 C 0.63014 0.81655 0.13954 0.0
C2962 C 0.61733 0.80957 0.16224 0.0
C2963 C 0.63769 0.82031 0.16728 0.0
C2964 C 0.65423 0.82904 0.15838 0.0
H2965 H 0.69292 0.81322 0.24014 0.0
H2966 H 0.67805 0.80922 0.21783 0.0
C2967 C 0.65051 0.82725 0.14467 0.0
C2968 C 0.64186 0.82174 0.18181 0.0
H2969 H 0.66774 0.85595 0.2071 0.0
C2970 C 0.6355 0.80364 0.18882 0.0
C2971 C 0.65293 0.8408 0.18861 0.0
C2972 C 0.65903 0.86069 0.18181 0.0
C2973 C 0.6408 0.80414 0.20231 0.0
C2974 C 0.65308 0.82325 0.20886 0.0
C2975 C 0.65855 0.84131 0.20202 0.0
C2976 C 0.66126 0.82492 0.22258 0.0
C2977 C 0.6333 0.7842 0.20938 0.0
C2978 C 0.65713 0.83546 0.23259 0.0
C2979 C 0.66587 0.83804 0.24532 0.0
C2980 C 0.67904 0.83024 0.24824 0.0
C2981 C 0.68301 0.81958 0.23819 0.0
C2982 C 0.67429 0.81703 0.22548 0.0
H2983 H 0.61915 0.77164 0.20451 0.0
H2984 H 0.64551 0.77993 0.20905 0.0
H2985 H 0.62988 0.78552 0.21998 0.0
H2986 H 0.64727 0.84184 0.23052 0.0
H2987 H 0.66271 0.84656 0.25278 0.0
H2988 H 0.23843 0.82715 0.15323 0.0
H2989 H 0.22632 0.83636 0.17338 0.0
H2990 H 0.17288 0.77576 0.17399 0.0
H2991 H 0.18452 0.76662 0.15369 0.0
H2992 H 0.1635 0.80677 0.17869 0.0
H2993 H 0.22868 0.81643 0.21092 0.0
H2994 H 0.23619 0.83139 0.19609 0.0
H2995 H 0.22319 0.80399 0.19475 0.0
C2996 C 0.22399 0.81585 0.15758 0.0
C2997 C 0.21253 0.79609 0.15191 0.0
C2998 C 0.21721 0.82107 0.16917 0.0
C2999 C 0.19888 0.80663 0.1753 0.0
C3000 C 0.18715 0.78709 0.16948 0.0
H3001 H 0.15557 0.80395 0.25528 0.0
H3002 H 0.16866 0.79827 0.23433 0.0
C3003 C 0.19391 0.78185 0.15792 0.0
C3004 C 0.19184 0.81172 0.18782 0.0
H3005 H 0.20476 0.82444 0.22064 0.0
C3006 C 0.17254 0.8107 0.18786 0.0
C3007 C 0.20355 0.81658 0.1998 0.0
C3008 C 0.22398 0.81702 0.2005 0.0
C3009 C 0.16462 0.81446 0.19955 0.0
C3010 C 0.17648 0.81964 0.21148 0.0
C3011 C 0.19577 0.82062 0.21145 0.0
C3012 C 0.16884 0.82344 0.2242 0.0
C3013 C 0.1434 0.8123 0.1991 0.0
C3014 C 0.16486 0.83966 0.22552 0.0
C3015 C 0.15743 0.84299 0.2375 0.0
C3016 C 0.15397 0.83024 0.24844 0.0
C3017 C 0.15826 0.81418 0.24712 0.0
C3018 C 0.16567 0.81086 0.23513 0.0
H3019 H 0.13439 0.80356 0.19012 0.0
H3020 H 0.13447 0.80452 0.2081 0.0
H3021 H 0.14507 0.82773 0.19882 0.0
H3022 H 0.16763 0.84983 0.21731 0.0
H3023 H 0.15465 0.85571 0.23826 0.0
H3024 H 0.21302 0.38344 0.14346 0.0
H3025 H 0.20622 0.37163 0.16642 0.0
H3026 H 0.17892 0.40928 0.17401 0.0
H3027 H 0.1853 0.42082 0.15094 0.0
H3028 H 0.21845 0.39055 0.1903 0.0
H3029 H 0.13305 0.35458 0.18555 0.0
H3030 H 0.14983 0.36377 0.17137 0.0
H3031 H 0.14668 0.38135 0.18199 0.0
C3032 C 0.20574 0.38936 0.15005 0.0
C3033 C 0.19959 0.40298 0.14534 0.0
C3034 C 0.20179 0.38254 0.16318 0.0
C3035 C 0.19165 0.3892 0.17191 0.0
C3036 C 0.1862 0.40342 0.16738 0.0
H3037 H 0.15442 0.3566 0.25498 0.0
H3038 H 0.16512 0.37504 0.23389 0.0
C3039 C 0.18995 0.41009 0.15421 0.0
C3040 C 0.18663 0.38102 0.18566 0.0
H3041 H 0.14649 0.35483 0.20699 0.0
C3042 C 0.20271 0.38277 0.19394 0.0
C3043 C 0.16606 0.37079 0.19044 0.0
C3044 C 0.14788 0.36731 0.18184 0.0
C3045 C 0.19879 0.37456 0.20678 0.0
C3046 C 0.17827 0.36431 0.21149 0.0
C3047 C 0.16223 0.36285 0.20336 0.0
C3048 C 0.17294 0.35392 0.22452 0.0
C3049 C 0.21658 0.37682 0.21527 0.0
C3050 C 0.1738 0.33598 0.22621 0.0
C3051 C 0.16757 0.32536 0.23816 0.0
C3052 C 0.16045 0.33255 0.2487 0.0
C3053 C 0.15999 0.35078 0.24708 0.0
C3054 C 0.16601 0.36128 0.23504 0.0
H3055 H 0.23181 0.3884 0.21129 0.0
H3056 H 0.21524 0.38123 0.22565 0.0
H3057 H 0.2161 0.36192 0.21556 0.0
H3058 H 0.17894 0.32996 0.21817 0.0
H3059 H 0.16826 0.31146 0.23914 0.0
H3060 H 0.82855 0.60291 0.86688 0.0
H3061 H 0.83572 0.61471 0.84399 0.0
H3062 H 0.77416 0.60575 0.83995 0.0
H3063 H 0.76643 0.59292 0.86267 0.0
H3064 H 0.78634 0.59412 0.81723 0.0
H3065 H 0.8473 0.67134 0.8343 0.0
H3066 H 0.85181 0.65129 0.83956 0.0
H3067 H 0.8297 0.65232 0.84564 0.0
C3068 C 0.81632 0.60298 0.86107 0.0
C3069 C 0.79693 0.59709 0.86673 0.0
C3070 C 0.82057 0.61003 0.84801 0.0
C3071 C 0.80566 0.61161 0.84035 0.0
C3072 C 0.78599 0.60488 0.84572 0.0
H3073 H 0.83255 0.6916 0.77329 0.0
H3074 H 0.82165 0.67374 0.79441 0.0
C3075 C 0.78166 0.5977 0.85876 0.0
C3076 C 0.81082 0.621 0.82697 0.0
H3077 H 0.84397 0.66498 0.81102 0.0
C3078 C 0.79892 0.60962 0.81585 0.0
C3079 C 0.82703 0.64136 0.82521 0.0
C3080 C 0.83958 0.65488 0.83681 0.0
C3081 C 0.80294 0.61795 0.80302 0.0
C3082 C 0.81956 0.63809 0.80122 0.0
C3083 C 0.83133 0.64949 0.81237 0.0
C3084 C 0.82481 0.64801 0.78798 0.0
C3085 C 0.78902 0.60528 0.7916 0.0
C3086 C 0.83013 0.63947 0.77726 0.0
C3087 C 0.83627 0.64964 0.76511 0.0
C3088 C 0.83753 0.66869 0.76353 0.0
C3089 C 0.83197 0.67706 0.77423 0.0
C3090 C 0.82567 0.66683 0.7863 0.0
H3091 H 0.77389 0.59284 0.79516 0.0
H3092 H 0.78611 0.61488 0.78463 0.0
H3093 H 0.7966 0.59811 0.78601 0.0
H3094 H 0.83008 0.62522 0.77839 0.0
H3095 H 0.8407 0.64293 0.75711 0.0
H3096 H 0.39735 0.17697 0.86098 0.0
H3097 H 0.37509 0.16738 0.84107 0.0
H3098 H 0.39189 0.23038 0.83606 0.0
H3099 H 0.41383 0.24004 0.85608 0.0
H3100 H 0.34833 0.20094 0.83233 0.0
H3101 H 0.39996 0.18218 0.80306 0.0
H3102 H 0.39144 0.16963 0.81876 0.0
H3103 H 0.40822 0.19686 0.81845 0.0
C3104 C 0.39606 0.18872 0.85575 0.0
C3105 C 0.40747 0.20929 0.86003 0.0
C3106 C 0.38348 0.18325 0.84433 0.0
C3107 C 0.3821 0.19823 0.83703 0.0
C3108 C 0.39286 0.21863 0.84154 0.0
H3109 H 0.34665 0.2002 0.75585 0.0
H3110 H 0.3637 0.20586 0.7776 0.0
C3111 C 0.40549 0.22413 0.85291 0.0
C3112 C 0.37007 0.19286 0.82441 0.0
H3113 H 0.3695 0.17706 0.79234 0.0
C3114 C 0.35284 0.1956 0.82359 0.0
C3115 C 0.37621 0.18613 0.81302 0.0
C3116 C 0.39505 0.18364 0.81325 0.0
C3117 C 0.34157 0.19183 0.81163 0.0
C3118 C 0.34766 0.18501 0.80027 0.0
C3119 C 0.36484 0.18219 0.80111 0.0
C3120 C 0.337 0.18154 0.78722 0.0
C3121 C 0.32362 0.1957 0.81112 0.0
C3122 C 0.31637 0.1659 0.78544 0.0
C3123 C 0.3066 0.16252 0.77299 0.0
C3124 C 0.31735 0.17469 0.7621 0.0
C3125 C 0.33802 0.19037 0.76397 0.0
C3126 C 0.34776 0.1937 0.7764 0.0
H3127 H 0.32353 0.20475 0.81989 0.0
H3128 H 0.3241 0.20393 0.80192 0.0
H3129 H 0.30889 0.18085 0.81095 0.0
H3130 H 0.30792 0.15613 0.79363 0.0
H3131 H 0.29078 0.15013 0.77183 0.0
H3132 H 0.82096 0.17163 0.87371 0.0
H3133 H 0.82694 0.16966 0.85001 0.0
H3134 H 0.79363 0.20107 0.84094 0.0
H3135 H 0.78821 0.2038 0.86476 0.0
H3136 H 0.79916 0.15157 0.82915 0.0
H3137 H 0.84858 0.23528 0.82193 0.0
H3138 H 0.8421 0.22414 0.83822 0.0
H3139 H 0.82343 0.22717 0.82867 0.0
C3140 C 0.81509 0.17835 0.86671 0.0
C3141 C 0.80433 0.18811 0.87117 0.0
C3142 C 0.81837 0.17705 0.85314 0.0
C3143 C 0.811 0.18547 0.84371 0.0
C3144 C 0.79978 0.19478 0.84806 0.0
H3145 H 0.81443 0.15978 0.7583 0.0
H3146 H 0.80221 0.16318 0.78025 0.0
C3147 C 0.79651 0.19613 0.86167 0.0
C3148 C 0.81527 0.18447 0.82938 0.0
H3149 H 0.84168 0.21395 0.803 0.0
C3150 C 0.80832 0.1652 0.82339 0.0
C3151 C 0.8274 0.20229 0.82194 0.0
C3152 C 0.83599 0.22342 0.828 0.0
C3153 C 0.81348 0.16324 0.81023 0.0
C3154 C 0.82561 0.18105 0.80279 0.0
C3155 C 0.83226 0.20032 0.8087 0.0
C3156 C 0.83282 0.18005 0.78919 0.0
C3157 C 0.8066 0.14214 0.80462 0.0
C3158 C 0.85411 0.18903 0.7868 0.0
C3159 C 0.86115 0.18735 0.77425 0.0
C3160 C 0.84704 0.17667 0.76378 0.0
C3161 C 0.82572 0.16818 0.7661 0.0
C3162 C 0.81869 0.16992 0.77869 0.0
H3163 H 0.80145 0.13052 0.81254 0.0
H3164 H 0.7934 0.1376 0.79762 0.0
H3165 H 0.81932 0.14194 0.79904 0.0
H3166 H 0.8653 0.19704 0.79474 0.0
H3167 H 0.87768 0.19441 0.77275 0.0
H3168 H 0.26773 0.13369 0.47913 0.0
H3169 H 0.27464 0.13645 0.50319 0.0
H3170 H 0.34032 0.16891 0.49595 0.0
H3171 H 0.3336 0.16678 0.47201 0.0
H3172 H 0.29598 0.12149 0.51754 0.0
H3173 H 0.33405 0.20563 0.52343 0.0
H3174 H 0.31909 0.1921 0.50877 0.0
H3175 H 0.34549 0.19787 0.51061 0.0
C3176 C 0.28364 0.14167 0.48268 0.0
C3177 C 0.30012 0.15003 0.47365 0.0
C3178 C 0.28755 0.14313 0.49641 0.0
C3179 C 0.30799 0.15314 0.50135 0.0
C3180 C 0.32444 0.16145 0.49237 0.0
H3181 H 0.36071 0.14216 0.57452 0.0
H3182 H 0.34671 0.13926 0.55205 0.0
C3183 C 0.32056 0.15999 0.47867 0.0
C3184 C 0.31228 0.15426 0.51586 0.0
H3185 H 0.33922 0.1878 0.54126 0.0
C3186 C 0.30523 0.13598 0.52278 0.0
C3187 C 0.32404 0.17318 0.52272 0.0
C3188 C 0.33093 0.19331 0.51604 0.0
C3189 C 0.31042 0.13611 0.53625 0.0
C3190 C 0.32331 0.15501 0.54288 0.0
C3191 C 0.32956 0.1733 0.53612 0.0
C3192 C 0.33115 0.15621 0.55665 0.0
C3193 C 0.30208 0.11599 0.54324 0.0
C3194 C 0.32748 0.16712 0.56663 0.0
C3195 C 0.33574 0.16908 0.57946 0.0
C3196 C 0.34795 0.16026 0.58252 0.0
C3197 C 0.35154 0.14929 0.57248 0.0
C3198 C 0.3433 0.14738 0.55967 0.0
H3199 H 0.28773 0.10383 0.53829 0.0
H3200 H 0.31381 0.11106 0.54292 0.0
H3201 H 0.2987 0.11738 0.55383 0.0
H3202 H 0.31831 0.17423 0.56448 0.0
H3203 H 0.33292 0.17788 0.58689 0.0
H3204 H 0.87847 0.10742 0.49658 0.0
H3205 H 0.8667 0.11614 0.51697 0.0
H3206 H 0.862 0.16337 0.49635 0.0
H3207 H 0.87308 0.15425 0.47572 0.0
H3208 H 0.88453 0.15308 0.53102 0.0
H3209 H 0.80512 0.13075 0.5134 0.0
H3210 H 0.8214 0.12327 0.50463 0.0
H3211 H 0.82563 0.14874 0.5031 0.0
C3212 C 0.87464 0.11947 0.4963 0.0
C3213 C 0.87651 0.12998 0.48446 0.0
C3214 C 0.86808 0.12454 0.508 0.0
C3215 C 0.86319 0.1402 0.50813 0.0
C3216 C 0.86533 0.15098 0.49641 0.0
H3217 H 0.8183 0.18695 0.5719 0.0
H3218 H 0.83164 0.1818 0.55086 0.0
C3219 C 0.87188 0.14589 0.48466 0.0
C3220 C 0.85614 0.14532 0.52064 0.0
H3221 H 0.81507 0.1462 0.53481 0.0
C3222 C 0.86935 0.15159 0.53185 0.0
C3223 C 0.83634 0.1434 0.52168 0.0
C3224 C 0.82119 0.13601 0.51011 0.0
C3225 C 0.86332 0.15602 0.54409 0.0
C3226 C 0.84341 0.15382 0.54518 0.0
C3227 C 0.83032 0.14787 0.53392 0.0
C3228 C 0.83566 0.15712 0.55801 0.0
C3229 C 0.87839 0.16324 0.5557 0.0
C3230 C 0.83328 0.1448 0.56895 0.0
C3231 C 0.82555 0.14761 0.58095 0.0
C3232 C 0.81994 0.16275 0.58224 0.0
C3233 C 0.82226 0.17501 0.57122 0.0
C3234 C 0.82998 0.17217 0.55921 0.0
H3235 H 0.89458 0.16938 0.55236 0.0
H3236 H 0.8775 0.17527 0.56163 0.0
H3237 H 0.87448 0.15016 0.56229 0.0
H3238 H 0.83712 0.13278 0.56814 0.0
H3239 H 0.8236 0.13765 0.58915 0.0
H3240 H 0.84094 0.74532 0.48226 0.0
H3241 H 0.8344 0.73282 0.50509 0.0
H3242 H 0.88175 0.7163 0.50165 0.0
H3243 H 0.88803 0.72827 0.47872 0.0
H3244 H 0.84438 0.68488 0.51083 0.0
H3245 H 0.86826 0.75653 0.53968 0.0
H3246 H 0.85029 0.75191 0.5263 0.0
H3247 H 0.87577 0.7564 0.52262 0.0
C3248 C 0.85006 0.73914 0.48638 0.0
C3249 C 0.86503 0.73782 0.47863 0.0
C3250 C 0.84645 0.7322 0.4995 0.0
C3251 C 0.85775 0.72384 0.50515 0.0
C3252 C 0.87295 0.72284 0.49753 0.0
H3253 H 0.85306 0.68365 0.58713 0.0
H3254 H 0.8643 0.70157 0.56596 0.0
C3255 C 0.87662 0.72983 0.48445 0.0
C3256 C 0.85267 0.71473 0.51861 0.0
H3257 H 0.84944 0.72532 0.55143 0.0
C3258 C 0.84562 0.69376 0.51971 0.0
C3259 C 0.85445 0.72635 0.53022 0.0
C3260 C 0.86278 0.74909 0.52972 0.0
C3261 C 0.83982 0.684 0.53204 0.0
C3262 C 0.84088 0.69546 0.54357 0.0
C3263 C 0.84845 0.71654 0.54255 0.0
C3264 C 0.83389 0.68562 0.55669 0.0
C3265 C 0.83266 0.66149 0.53265 0.0
C3266 C 0.81299 0.67109 0.55861 0.0
C3267 C 0.80649 0.66096 0.5707 0.0
C3268 C 0.82075 0.6651 0.58117 0.0
C3269 C 0.84161 0.68016 0.57935 0.0
C3270 C 0.84809 0.69036 0.56723 0.0
H3271 H 0.83729 0.65604 0.52369 0.0
H3272 H 0.83906 0.65811 0.54164 0.0
H3273 H 0.81551 0.6527 0.53322 0.0
H3274 H 0.80171 0.66747 0.55068 0.0
H3275 H 0.79023 0.64982 0.57183 0.0
loop_
_geom_bond_atom_site_label_1
_geom_bond_atom_site_label_2
_geom_bond_distance
_geom_bond_site_symmetry_2
_ccdc_geom_bond_type
P0 O11 1.490 . S
P0 C14 1.812 . S
P0 C20 1.803 . S
P0 C26 1.819 . S
H1 C15 0.941 . S
H2 C16 0.939 . S
H3 C18 0.940 . S
H4 C19 0.940 . S
H5 C21 0.939 . S
H6 C22 0.942 . S
H7 C24 0.940 . S
H8 C25 0.939 . S
H9 C27 0.941 . S
H10 C31 0.939 . S
O11 P0 1.490 . S
H12 C28 0.939 . S
H13 C30 0.940 . S
C14 P0 1.812 . S
C14 C15 1.389 . S
C14 C19 1.391 . S
C15 H1 0.941 . S
C15 C14 1.389 . S
C15 C16 1.397 . S
C16 H2 0.939 . S
C16 C15 1.397 . S
C16 C17 1.378 . S
C17 C16 1.378 . S
C17 C18 1.378 . S
C18 H3 0.940 . S
C18 C17 1.378 . S
C18 C19 1.396 . S
C19 H4 0.940 . S
C19 C14 1.391 . S
C19 C18 1.396 . S
C20 P0 1.803 . S
C20 C21 1.378 . S
C20 C25 1.400 . S
C21 H5 0.939 . S
C21 C20 1.378 . S
C21 C22 1.361 . S
C22 H6 0.942 . S
C22 C21 1.361 . S
C22 C23 1.369 . S
C23 C22 1.369 . S
C23 C24 1.404 . S
C24 H7 0.940 . S
C24 C23 1.404 . S
C24 C25 1.389 . S
C25 H8 0.939 . S
C25 C20 1.400 . S
C25 C24 1.389 . S
C26 P0 1.819 . S
C26 C27 1.391 . S
C26 C31 1.391 . S
C27 H9 0.941 . S
C27 C26 1.391 . S
C27 C28 1.396 . S
C28 H12 0.939 . S
C28 C27 1.396 . S
C28 C29 1.397 . S
C29 C28 1.397 . S
C29 C30 1.385 . S
C30 H13 0.940 . S
C30 C29 1.385 . S
C30 C31 1.388 . S
C31 H10 0.939 . S
C31 C26 1.391 . S
C31 C30 1.388 . S
P32 O43 1.490 . S
P32 C46 1.812 . S
P32 C52 1.803 . S
P32 C58 1.819 . S
H33 C47 0.941 . S
H34 C48 0.939 . S
H35 C50 0.940 . S
H36 C51 0.940 . S
H37 C53 0.939 . S
H38 C54 0.942 . S
H39 C56 0.940 . S
H40 C57 0.939 . S
H41 C59 0.941 . S
H42 C63 0.939 . S
O43 P32 1.490 . S
H44 C60 0.939 . S
H45 C62 0.940 . S
C46 P32 1.812 . S
C46 C47 1.389 . S
C46 C51 1.391 . S
C47 H33 0.941 . S
C47 C46 1.389 . S
C47 C48 1.397 . S
C48 H34 0.939 . S
C48 C47 1.397 . S
C48 C49 1.378 . S
C49 C48 1.378 . S
C49 C50 1.378 . S
C50 H35 0.940 . S
C50 C49 1.378 . S
C50 C51 1.396 . S
C51 H36 0.940 . S
C51 C46 1.391 . S
C51 C50 1.396 . S
C52 P32 1.803 . S
C52 C53 1.378 . S
C52 C57 1.400 . S
C53 H37 0.939 . S
C53 C52 1.378 . S
C53 C54 1.361 . S
C54 H38 0.942 . S
C54 C53 1.361 . S
C54 C55 1.369 . S
C55 C54 1.369 . S
C55 C56 1.404 . S
C56 H39 0.940 . S
C56 C55 1.404 . S
C56 C57 1.389 . S
C57 H40 0.939 . S
C57 C52 1.400 . S
C57 C56 1.389 . S
C58 P32 1.819 . S
C58 C59 1.391 . S
C58 C63 1.391 . S
C59 H41 0.941 . S
C59 C58 1.391 . S
C59 C60 1.396 . S
C60 H44 0.939 . S
C60 C59 1.396 . S
C60 C61 1.397 . S
C61 C60 1.397 . S
C61 C62 1.385 . S
C62 H45 0.940 . S
C62 C61 1.385 . S
C62 C63 1.388 . S
C63 H42 0.939 . S
C63 C58 1.391 . S
C63 C62 1.388 . S
P64 O75 1.490 . S
P64 C78 1.812 . S
P64 C84 1.803 . S
P64 C90 1.819 . S
H65 C79 0.941 . S
H66 C80 0.939 . S
H67 C82 0.940 . S
H68 C83 0.940 . S
H69 C85 0.939 . S
H70 C86 0.942 . S
H71 C88 0.940 . S
H72 C89 0.939 . S
H73 C91 0.941 . S
H74 C95 0.939 . S
O75 P64 1.490 . S
H76 C92 0.939 . S
H77 C94 0.940 . S
C78 P64 1.812 . S
C78 C79 1.389 . S
C78 C83 1.391 . S
C79 H65 0.941 . S
C79 C78 1.389 . S
C79 C80 1.397 . S
C80 H66 0.939 . S
C80 C79 1.397 . S
C80 C81 1.378 . S
C81 C80 1.378 . S
C81 C82 1.378 . S
C82 H67 0.940 . S
C82 C81 1.378 . S
C82 C83 1.396 . S
C83 H68 0.940 . S
C83 C78 1.391 . S
C83 C82 1.396 . S
C84 P64 1.803 . S
C84 C85 1.378 . S
C84 C89 1.400 . S
C85 H69 0.939 . S
C85 C84 1.378 . S
C85 C86 1.361 . S
C86 H70 0.942 . S
C86 C85 1.361 . S
C86 C87 1.369 . S
C87 C86 1.369 . S
C87 C88 1.404 . S
C88 H71 0.940 . S
C88 C87 1.404 . S
C88 C89 1.389 . S
C89 H72 0.939 . S
C89 C84 1.400 . S
C89 C88 1.389 . S
C90 P64 1.819 . S
C90 C91 1.391 . S
C90 C95 1.391 . S
C91 H73 0.941 . S
C91 C90 1.391 . S
C91 C92 1.396 . S
C92 H76 0.939 . S
C92 C91 1.396 . S
C92 C93 1.397 . S
C93 C92 1.397 . S
C93 C94 1.385 . S
C94 H77 0.940 . S
C94 C93 1.385 . S
C94 C95 1.388 . S
C95 H74 0.939 . S
C95 C90 1.391 . S
C95 C94 1.388 . S
P96 O107 1.490 . S
P96 C110 1.812 . S
P96 C116 1.803 . S
P96 C122 1.819 . S
H97 C111 0.941 . S
H98 C112 0.939 . S
H99 C114 0.940 . S
H100 C115 0.940 . S
H101 C117 0.939 . S
H102 C118 0.942 . S
H103 C120 0.940 . S
H104 C121 0.939 . S
H105 C123 0.941 . S
H106 C127 0.939 . S
O107 P96 1.490 . S
H108 C124 0.939 . S
H109 C126 0.940 . S
C110 P96 1.812 . S
C110 C111 1.389 . S
C110 C115 1.391 . S
C111 H97 0.941 . S
C111 C110 1.389 . S
C111 C112 1.397 . S
C112 H98 0.939 . S
C112 C111 1.397 . S
C112 C113 1.378 . S
C113 C112 1.378 . S
C113 C114 1.378 . S
C114 H99 0.940 . S
C114 C113 1.378 . S
C114 C115 1.396 . S
C115 H100 0.940 . S
C115 C110 1.391 . S
C115 C114 1.396 . S
C116 P96 1.803 . S
C116 C117 1.378 . S
C116 C121 1.400 . S
C117 H101 0.939 . S
C117 C116 1.378 . S
C117 C118 1.361 . S
C118 H102 0.942 . S
C118 C117 1.361 . S
C118 C119 1.369 . S
C119 C118 1.369 . S
C119 C120 1.404 . S
C120 H103 0.940 . S
C120 C119 1.404 . S
C120 C121 1.389 . S
C121 H104 0.939 . S
C121 C116 1.400 . S
C121 C120 1.389 . S
C122 P96 1.819 . S
C122 C123 1.391 . S
C122 C127 1.391 . S
C123 H105 0.941 . S
C123 C122 1.391 . S
C123 C124 1.396 . S
C124 H108 0.939 . S
C124 C123 1.396 . S
C124 C125 1.397 . S
C125 C124 1.397 . S
C125 C126 1.385 . S
C126 H109 0.940 . S
C126 C125 1.385 . S
C126 C127 1.388 . S
C127 H106 0.939 . S
C127 C122 1.391 . S
C127 C126 1.388 . S
P128 O139 1.490 . S
P128 C142 1.812 . S
P128 C148 1.803 . S
P128 C154 1.819 . S
H129 C143 0.941 . S
H130 C144 0.939 . S
H131 C146 0.940 . S
H132 C147 0.940 . S
H133 C149 0.939 . S
H134 C150 0.942 . S
H135 C152 0.940 . S
H136 C153 0.939 . S
H137 C155 0.941 . S
H138 C159 0.939 . S
O139 P128 1.490 . S
H140 C156 0.939 . S
H141 C158 0.940 . S
C142 P128 1.812 . S
C142 C143 1.389 . S
C142 C147 1.391 . S
C143 H129 0.941 . S
C143 C142 1.389 . S
C143 C144 1.397 . S
C144 H130 0.939 . S
C144 C143 1.397 . S
C144 C145 1.378 . S
C145 C144 1.378 . S
C145 C146 1.378 . S
C146 H131 0.940 . S
C146 C145 1.378 . S
C146 C147 1.396 . S
C147 H132 0.940 . S
C147 C142 1.391 . S
C147 C146 1.396 . S
C148 P128 1.803 . S
C148 C149 1.378 . S
C148 C153 1.400 . S
C149 H133 0.939 . S
C149 C148 1.378 . S
C149 C150 1.361 . S
C150 H134 0.942 . S
C150 C149 1.361 . S
C150 C151 1.369 . S
C151 C150 1.369 . S
C151 C152 1.404 . S
C152 H135 0.940 . S
C152 C151 1.404 . S
C152 C153 1.389 . S
C153 H136 0.939 . S
C153 C148 1.400 . S
C153 C152 1.389 . S
C154 P128 1.819 . S
C154 C155 1.391 . S
C154 C159 1.391 . S
C155 H137 0.941 . S
C155 C154 1.391 . S
C155 C156 1.396 . S
C156 H140 0.939 . S
C156 C155 1.396 . S
C156 C157 1.397 . S
C157 C156 1.397 . S
C157 C158 1.385 . S
C158 H141 0.940 . S
C158 C157 1.385 . S
C158 C159 1.388 . S
C159 H138 0.939 . S
C159 C154 1.391 . S
C159 C158 1.388 . S
P160 O171 1.490 . S
P160 C174 1.812 . S
P160 C180 1.803 . S
P160 C186 1.819 . S
H161 C175 0.941 . S
H162 C176 0.939 . S
H163 C178 0.940 . S
H164 C179 0.940 . S
H165 C181 0.939 . S
H166 C182 0.942 . S
H167 C184 0.940 . S
H168 C185 0.939 . S
H169 C187 0.941 . S
H170 C191 0.939 . S
O171 P160 1.490 . S
H172 C188 0.939 . S
H173 C190 0.940 . S
C174 P160 1.812 . S
C174 C175 1.389 . S
C174 C179 1.391 . S
C175 H161 0.941 . S
C175 C174 1.389 . S
C175 C176 1.397 . S
C176 H162 0.939 . S
C176 C175 1.397 . S
C176 C177 1.378 . S
C177 C176 1.378 . S
C177 C178 1.378 . S
C178 H163 0.940 . S
C178 C177 1.378 . S
C178 C179 1.396 . S
C179 H164 0.940 . S
C179 C174 1.391 . S
C179 C178 1.396 . S
C180 P160 1.803 . S
C180 C181 1.378 . S
C180 C185 1.400 . S
C181 H165 0.939 . S
C181 C180 1.378 . S
C181 C182 1.361 . S
C182 H166 0.942 . S
C182 C181 1.361 . S
C182 C183 1.369 . S
C183 C182 1.369 . S
C183 C184 1.404 . S
C184 H167 0.940 . S
C184 C183 1.404 . S
C184 C185 1.389 . S
C185 H168 0.939 . S
C185 C180 1.400 . S
C185 C184 1.389 . S
C186 P160 1.819 . S
C186 C187 1.391 . S
C186 C191 1.391 . S
C187 H169 0.941 . S
C187 C186 1.391 . S
C187 C188 1.396 . S
C188 H172 0.939 . S
C188 C187 1.396 . S
C188 C189 1.397 . S
C189 C188 1.397 . S
C189 C190 1.385 . S
C190 H173 0.940 . S
C190 C189 1.385 . S
C190 C191 1.388 . S
C191 H170 0.939 . S
C191 C186 1.391 . S
C191 C190 1.388 . S
P192 O203 1.490 . S
P192 C206 1.812 . S
P192 C212 1.803 . S
P192 C218 1.819 . S
H193 C207 0.941 . S
H194 C208 0.939 . S
H195 C210 0.940 . S
H196 C211 0.940 . S
H197 C213 0.939 . S
H198 C214 0.942 . S
H199 C216 0.940 . S
H200 C217 0.939 . S
H201 C219 0.941 . S
H202 C223 0.939 . S
O203 P192 1.490 . S
H204 C220 0.939 . S
H205 C222 0.940 . S
C206 P192 1.812 . S
C206 C207 1.389 . S
C206 C211 1.391 . S
C207 H193 0.941 . S
C207 C206 1.389 . S
C207 C208 1.397 . S
C208 H194 0.939 . S
C208 C207 1.397 . S
C208 C209 1.378 . S
C209 C208 1.378 . S
C209 C210 1.378 . S
C210 H195 0.940 . S
C210 C209 1.378 . S
C210 C211 1.396 . S
C211 H196 0.940 . S
C211 C206 1.391 . S
C211 C210 1.396 . S
C212 P192 1.803 . S
C212 C213 1.378 . S
C212 C217 1.400 . S
C213 H197 0.939 . S
C213 C212 1.378 . S
C213 C214 1.361 . S
C214 H198 0.942 . S
C214 C213 1.361 . S
C214 C215 1.369 . S
C215 C214 1.369 . S
C215 C216 1.404 . S
C216 H199 0.940 . S
C216 C215 1.404 . S
C216 C217 1.389 . S
C217 H200 0.939 . S
C217 C212 1.400 . S
C217 C216 1.389 . S
C218 P192 1.819 . S
C218 C219 1.391 . S
C218 C223 1.391 . S
C219 H201 0.941 . S
C219 C218 1.391 . S
C219 C220 1.396 . S
C220 H204 0.939 . S
C220 C219 1.396 . S
C220 C221 1.397 . S
C221 C220 1.397 . S
C221 C222 1.385 . S
C222 H205 0.940 . S
C222 C221 1.385 . S
C222 C223 1.388 . S
C223 H202 0.939 . S
C223 C218 1.391 . S
C223 C222 1.388 . S
P224 O235 1.490 . S
P224 C238 1.812 . S
P224 C244 1.803 . S
P224 C250 1.819 . S
H225 C239 0.941 . S
H226 C240 0.939 . S
H227 C242 0.940 . S
H228 C243 0.940 . S
H229 C245 0.939 . S
H230 C246 0.942 . S
H231 C248 0.940 . S
H232 C249 0.939 . S
H233 C251 0.941 . S
H234 C255 0.939 . S
O235 P224 1.490 . S
H236 C252 0.939 . S
H237 C254 0.940 . S
C238 P224 1.812 . S
C238 C239 1.389 . S
C238 C243 1.391 . S
C239 H225 0.941 . S
C239 C238 1.389 . S
C239 C240 1.397 . S
C240 H226 0.939 . S
C240 C239 1.397 . S
C240 C241 1.378 . S
C241 C240 1.378 . S
C241 C242 1.378 . S
C242 H227 0.940 . S
C242 C241 1.378 . S
C242 C243 1.396 . S
C243 H228 0.940 . S
C243 C238 1.391 . S
C243 C242 1.396 . S
C244 P224 1.803 . S
C244 C245 1.378 . S
C244 C249 1.400 . S
C245 H229 0.939 . S
C245 C244 1.378 . S
C245 C246 1.361 . S
C246 H230 0.942 . S
C246 C245 1.361 . S
C246 C247 1.369 . S
C247 C246 1.369 . S
C247 C248 1.404 . S
C248 H231 0.940 . S
C248 C247 1.404 . S
C248 C249 1.389 . S
C249 H232 0.939 . S
C249 C244 1.400 . S
C249 C248 1.389 . S
C250 P224 1.819 . S
C250 C251 1.391 . S
C250 C255 1.391 . S
C251 H233 0.941 . S
C251 C250 1.391 . S
C251 C252 1.396 . S
C252 H236 0.939 . S
C252 C251 1.396 . S
C252 C253 1.397 . S
C253 C252 1.397 . S
C253 C254 1.385 . S
C254 H237 0.940 . S
C254 C253 1.385 . S
C254 C255 1.388 . S
C255 H234 0.939 . S
C255 C250 1.391 . S
C255 C254 1.388 . S
P256 O267 1.490 . S
P256 C270 1.812 . S
P256 C276 1.803 . S
P256 C282 1.819 . S
H257 C271 0.941 . S
H258 C272 0.939 . S
H259 C274 0.940 . S
H260 C275 0.940 . S
H261 C277 0.939 . S
H262 C278 0.942 . S
H263 C280 0.940 . S
H264 C281 0.939 . S
H265 C283 0.941 . S
H266 C287 0.939 . S
O267 P256 1.490 . S
H268 C284 0.939 . S
H269 C286 0.940 . S
C270 P256 1.812 . S
C270 C271 1.389 . S
C270 C275 1.391 . S
C271 H257 0.941 . S
C271 C270 1.389 . S
C271 C272 1.397 . S
C272 H258 0.939 . S
C272 C271 1.397 . S
C272 C273 1.378 . S
C273 C272 1.378 . S
C273 C274 1.378 . S
C274 H259 0.940 . S
C274 C273 1.378 . S
C274 C275 1.396 . S
C275 H260 0.940 . S
C275 C270 1.391 . S
C275 C274 1.396 . S
C276 P256 1.803 . S
C276 C277 1.378 . S
C276 C281 1.400 . S
C277 H261 0.939 . S
C277 C276 1.378 . S
C277 C278 1.361 . S
C278 H262 0.942 . S
C278 C277 1.361 . S
C278 C279 1.369 . S
C279 C278 1.369 . S
C279 C280 1.404 . S
C280 H263 0.940 . S
C280 C279 1.404 . S
C280 C281 1.389 . S
C281 H264 0.939 . S
C281 C276 1.400 . S
C281 C280 1.389 . S
C282 P256 1.819 . S
C282 C283 1.391 . S
C282 C287 1.391 . S
C283 H265 0.941 . S
C283 C282 1.391 . S
C283 C284 1.396 . S
C284 H268 0.939 . S
C284 C283 1.396 . S
C284 C285 1.397 . S
C285 C284 1.397 . S
C285 C286 1.385 . S
C286 H269 0.940 . S
C286 C285 1.385 . S
C286 C287 1.388 . S
C287 H266 0.939 . S
C287 C282 1.391 . S
C287 C286 1.388 . S
P288 O299 1.490 . S
P288 C302 1.812 . S
P288 C308 1.803 . S
P288 C314 1.819 . S
H289 C303 0.941 . S
H290 C304 0.939 . S
H291 C306 0.940 . S
H292 C307 0.940 . S
H293 C309 0.939 . S
H294 C310 0.942 . S
H295 C312 0.940 . S
H296 C313 0.939 . S
H297 C315 0.941 . S
H298 C319 0.939 . S
O299 P288 1.490 . S
H300 C316 0.939 . S
H301 C318 0.940 . S
C302 P288 1.812 . S
C302 C303 1.389 . S
C302 C307 1.391 . S
C303 H289 0.941 . S
C303 C302 1.389 . S
C303 C304 1.397 . S
C304 H290 0.939 . S
C304 C303 1.397 . S
C304 C305 1.378 . S
C305 C304 1.378 . S
C305 C306 1.378 . S
C306 H291 0.940 . S
C306 C305 1.378 . S
C306 C307 1.396 . S
C307 H292 0.940 . S
C307 C302 1.391 . S
C307 C306 1.396 . S
C308 P288 1.803 . S
C308 C309 1.378 . S
C308 C313 1.400 . S
C309 H293 0.939 . S
C309 C308 1.378 . S
C309 C310 1.361 . S
C310 H294 0.942 . S
C310 C309 1.361 . S
C310 C311 1.369 . S
C311 C310 1.369 . S
C311 C312 1.404 . S
C312 H295 0.940 . S
C312 C311 1.404 . S
C312 C313 1.389 . S
C313 H296 0.939 . S
C313 C308 1.400 . S
C313 C312 1.389 . S
C314 P288 1.819 . S
C314 C315 1.391 . S
C314 C319 1.391 . S
C315 H297 0.941 . S
C315 C314 1.391 . S
C315 C316 1.396 . S
C316 H300 0.939 . S
C316 C315 1.396 . S
C316 C317 1.397 . S
C317 C316 1.397 . S
C317 C318 1.385 . S
C318 H301 0.940 . S
C318 C317 1.385 . S
C318 C319 1.388 . S
C319 H298 0.939 . S
C319 C314 1.391 . S
C319 C318 1.388 . S
P320 O331 1.490 . S
P320 C334 1.812 . S
P320 C340 1.803 . S
P320 C346 1.819 . S
H321 C335 0.941 . S
H322 C336 0.939 . S
H323 C338 0.940 . S
H324 C339 0.940 . S
H325 C341 0.939 . S
H326 C342 0.942 . S
H327 C344 0.940 . S
H328 C345 0.939 . S
H329 C347 0.941 . S
H330 C351 0.939 . S
O331 P320 1.490 . S
H332 C348 0.939 . S
H333 C350 0.940 . S
C334 P320 1.812 . S
C334 C335 1.389 . S
C334 C339 1.391 . S
C335 H321 0.941 . S
C335 C334 1.389 . S
C335 C336 1.397 . S
C336 H322 0.939 . S
C336 C335 1.397 . S
C336 C337 1.378 . S
C337 C336 1.378 . S
C337 C338 1.378 . S
C338 H323 0.940 . S
C338 C337 1.378 . S
C338 C339 1.396 . S
C339 H324 0.940 . S
C339 C334 1.391 . S
C339 C338 1.396 . S
C340 P320 1.803 . S
C340 C341 1.378 . S
C340 C345 1.400 . S
C341 H325 0.939 . S
C341 C340 1.378 . S
C341 C342 1.361 . S
C342 H326 0.942 . S
C342 C341 1.361 . S
C342 C343 1.369 . S
C343 C342 1.369 . S
C343 C344 1.404 . S
C344 H327 0.940 . S
C344 C343 1.404 . S
C344 C345 1.389 . S
C345 H328 0.939 . S
C345 C340 1.400 . S
C345 C344 1.389 . S
C346 P320 1.819 . S
C346 C347 1.391 . S
C346 C351 1.391 . S
C347 H329 0.941 . S
C347 C346 1.391 . S
C347 C348 1.396 . S
C348 H332 0.939 . S
C348 C347 1.396 . S
C348 C349 1.397 . S
C349 C348 1.397 . S
C349 C350 1.385 . S
C350 H333 0.940 . S
C350 C349 1.385 . S
C350 C351 1.388 . S
C351 H330 0.939 . S
C351 C346 1.391 . S
C351 C350 1.388 . S
P352 O363 1.490 . S
P352 C366 1.812 . S
P352 C372 1.803 . S
P352 C378 1.819 . S
H353 C367 0.941 . S
H354 C368 0.939 . S
H355 C370 0.940 . S
H356 C371 0.940 . S
H357 C373 0.939 . S
H358 C374 0.942 . S
H359 C376 0.940 . S
H360 C377 0.939 . S
H361 C379 0.941 . S
H362 C383 0.939 . S
O363 P352 1.490 . S
H364 C380 0.939 . S
H365 C382 0.940 . S
C366 P352 1.812 . S
C366 C367 1.389 . S
C366 C371 1.391 . S
C367 H353 0.941 . S
C367 C366 1.389 . S
C367 C368 1.397 . S
C368 H354 0.939 . S
C368 C367 1.397 . S
C368 C369 1.378 . S
C369 C368 1.378 . S
C369 C370 1.378 . S
C370 H355 0.940 . S
C370 C369 1.378 . S
C370 C371 1.396 . S
C371 H356 0.940 . S
C371 C366 1.391 . S
C371 C370 1.396 . S
C372 P352 1.803 . S
C372 C373 1.378 . S
C372 C377 1.400 . S
C373 H357 0.939 . S
C373 C372 1.378 . S
C373 C374 1.361 . S
C374 H358 0.942 . S
C374 C373 1.361 . S
C374 C375 1.369 . S
C375 C374 1.369 . S
C375 C376 1.404 . S
C376 H359 0.940 . S
C376 C375 1.404 . S
C376 C377 1.389 . S
C377 H360 0.939 . S
C377 C372 1.400 . S
C377 C376 1.389 . S
C378 P352 1.819 . S
C378 C379 1.391 . S
C378 C383 1.391 . S
C379 H361 0.941 . S
C379 C378 1.391 . S
C379 C380 1.396 . S
C380 H364 0.939 . S
C380 C379 1.396 . S
C380 C381 1.397 . S
C381 C380 1.397 . S
C381 C382 1.385 . S
C382 H365 0.940 . S
C382 C381 1.385 . S
C382 C383 1.388 . S
C383 H362 0.939 . S
C383 C378 1.391 . S
C383 C382 1.388 . S
P384 O395 1.490 . S
P384 C398 1.812 . S
P384 C404 1.803 . S
P384 C410 1.819 . S
H385 C399 0.941 . S
H386 C400 0.939 . S
H387 C402 0.940 . S
H388 C403 0.940 . S
H389 C405 0.939 . S
H390 C406 0.942 . S
H391 C408 0.940 . S
H392 C409 0.939 . S
H393 C411 0.941 . S
H394 C415 0.939 . S
O395 P384 1.490 . S
H396 C412 0.939 . S
H397 C414 0.940 . S
C398 P384 1.812 . S
C398 C399 1.389 . S
C398 C403 1.391 . S
C399 H385 0.941 . S
C399 C398 1.389 . S
C399 C400 1.397 . S
C400 H386 0.939 . S
C400 C399 1.397 . S
C400 C401 1.378 . S
C401 C400 1.378 . S
C401 C402 1.378 . S
C402 H387 0.940 . S
C402 C401 1.378 . S
C402 C403 1.396 . S
C403 H388 0.940 . S
C403 C398 1.391 . S
C403 C402 1.396 . S
C404 P384 1.803 . S
C404 C405 1.378 . S
C404 C409 1.400 . S
C405 H389 0.939 . S
C405 C404 1.378 . S
C405 C406 1.361 . S
C406 H390 0.942 . S
C406 C405 1.361 . S
C406 C407 1.369 . S
C407 C406 1.369 . S
C407 C408 1.404 . S
C408 H391 0.940 . S
C408 C407 1.404 . S
C408 C409 1.389 . S
C409 H392 0.939 . S
C409 C404 1.400 . S
C409 C408 1.389 . S
C410 P384 1.819 . S
C410 C411 1.391 . S
C410 C415 1.391 . S
C411 H393 0.941 . S
C411 C410 1.391 . S
C411 C412 1.396 . S
C412 H396 0.939 . S
C412 C411 1.396 . S
C412 C413 1.397 . S
C413 C412 1.397 . S
C413 C414 1.385 . S
C414 H397 0.940 . S
C414 C413 1.385 . S
C414 C415 1.388 . S
C415 H394 0.939 . S
C415 C410 1.391 . S
C415 C414 1.388 . S
P416 O427 1.490 . S
P416 C430 1.812 . S
P416 C436 1.803 . S
P416 C442 1.819 . S
H417 C431 0.941 . S
H418 C432 0.939 . S
H419 C434 0.940 . S
H420 C435 0.940 . S
H421 C437 0.939 . S
H422 C438 0.942 . S
H423 C440 0.940 . S
H424 C441 0.939 . S
H425 C443 0.941 . S
H426 C447 0.939 . S
O427 P416 1.490 . S
H428 C444 0.939 . S
H429 C446 0.940 . S
C430 P416 1.812 . S
C430 C431 1.389 . S
C430 C435 1.391 . S
C431 H417 0.941 . S
C431 C430 1.389 . S
C431 C432 1.397 . S
C432 H418 0.939 . S
C432 C431 1.397 . S
C432 C433 1.378 . S
C433 C432 1.378 . S
C433 C434 1.378 . S
C434 H419 0.940 . S
C434 C433 1.378 . S
C434 C435 1.396 . S
C435 H420 0.940 . S
C435 C430 1.391 . S
C435 C434 1.396 . S
C436 P416 1.803 . S
C436 C437 1.378 . S
C436 C441 1.400 . S
C437 H421 0.939 . S
C437 C436 1.378 . S
C437 C438 1.361 . S
C438 H422 0.942 . S
C438 C437 1.361 . S
C438 C439 1.369 . S
C439 C438 1.369 . S
C439 C440 1.404 . S
C440 H423 0.940 . S
C440 C439 1.404 . S
C440 C441 1.389 . S
C441 H424 0.939 . S
C441 C436 1.400 . S
C441 C440 1.389 . S
C442 P416 1.819 . S
C442 C443 1.391 . S
C442 C447 1.391 . S
C443 H425 0.941 . S
C443 C442 1.391 . S
C443 C444 1.396 . S
C444 H428 0.939 . S
C444 C443 1.396 . S
C444 C445 1.397 . S
C445 C444 1.397 . S
C445 C446 1.385 . S
C446 H429 0.940 . S
C446 C445 1.385 . S
C446 C447 1.388 . S
C447 H426 0.939 . S
C447 C442 1.391 . S
C447 C446 1.388 . S
P448 O459 1.490 . S
P448 C462 1.812 . S
P448 C468 1.803 . S
P448 C474 1.819 . S
H449 C463 0.941 . S
H450 C464 0.939 . S
H451 C466 0.940 . S
H452 C467 0.940 . S
H453 C469 0.939 . S
H454 C470 0.942 . S
H455 C472 0.940 . S
H456 C473 0.939 . S
H457 C475 0.941 . S
H458 C479 0.939 . S
O459 P448 1.490 . S
H460 C476 0.939 . S
H461 C478 0.940 . S
C462 P448 1.812 . S
C462 C463 1.389 . S
C462 C467 1.391 . S
C463 H449 0.941 . S
C463 C462 1.389 . S
C463 C464 1.397 . S
C464 H450 0.939 . S
C464 C463 1.397 . S
C464 C465 1.378 . S
C465 C464 1.378 . S
C465 C466 1.378 . S
C466 H451 0.940 . S
C466 C465 1.378 . S
C466 C467 1.396 . S
C467 H452 0.940 . S
C467 C462 1.391 . S
C467 C466 1.396 . S
C468 P448 1.803 . S
C468 C469 1.378 . S
C468 C473 1.400 . S
C469 H453 0.939 . S
C469 C468 1.378 . S
C469 C470 1.361 . S
C470 H454 0.942 . S
C470 C469 1.361 . S
C470 C471 1.369 . S
C471 C470 1.369 . S
C471 C472 1.404 . S
C472 H455 0.940 . S
C472 C471 1.404 . S
C472 C473 1.389 . S
C473 H456 0.939 . S
C473 C468 1.400 . S
C473 C472 1.389 . S
C474 P448 1.819 . S
C474 C475 1.391 . S
C474 C479 1.391 . S
C475 H457 0.941 . S
C475 C474 1.391 . S
C475 C476 1.396 . S
C476 H460 0.939 . S
C476 C475 1.396 . S
C476 C477 1.397 . S
C477 C476 1.397 . S
C477 C478 1.385 . S
C478 H461 0.940 . S
C478 C477 1.385 . S
C478 C479 1.388 . S
C479 H458 0.939 . S
C479 C474 1.391 . S
C479 C478 1.388 . S
P480 O491 1.490 . S
P480 C494 1.812 . S
P480 C500 1.803 . S
P480 C506 1.819 . S
H481 C495 0.941 . S
H482 C496 0.939 . S
H483 C498 0.940 . S
H484 C499 0.940 . S
H485 C501 0.939 . S
H486 C502 0.942 . S
H487 C504 0.940 . S
H488 C505 0.939 . S
H489 C507 0.941 . S
H490 C511 0.939 . S
O491 P480 1.490 . S
H492 C508 0.939 . S
H493 C510 0.940 . S
C494 P480 1.812 . S
C494 C495 1.389 . S
C494 C499 1.391 . S
C495 H481 0.941 . S
C495 C494 1.389 . S
C495 C496 1.397 . S
C496 H482 0.939 . S
C496 C495 1.397 . S
C496 C497 1.378 . S
C497 C496 1.378 . S
C497 C498 1.378 . S
C498 H483 0.940 . S
C498 C497 1.378 . S
C498 C499 1.396 . S
C499 H484 0.940 . S
C499 C494 1.391 . S
C499 C498 1.396 . S
C500 P480 1.803 . S
C500 C501 1.378 . S
C500 C505 1.400 . S
C501 H485 0.939 . S
C501 C500 1.378 . S
C501 C502 1.361 . S
C502 H486 0.942 . S
C502 C501 1.361 . S
C502 C503 1.369 . S
C503 C502 1.369 . S
C503 C504 1.404 . S
C504 H487 0.940 . S
C504 C503 1.404 . S
C504 C505 1.389 . S
C505 H488 0.939 . S
C505 C500 1.400 . S
C505 C504 1.389 . S
C506 P480 1.819 . S
C506 C507 1.391 . S
C506 C511 1.391 . S
C507 H489 0.941 . S
C507 C506 1.391 . S
C507 C508 1.396 . S
C508 H492 0.939 . S
C508 C507 1.396 . S
C508 C509 1.397 . S
C509 C508 1.397 . S
C509 C510 1.385 . S
C510 H493 0.940 . S
C510 C509 1.385 . S
C510 C511 1.388 . S
C511 H490 0.939 . S
C511 C506 1.391 . S
C511 C510 1.388 . S
P512 O523 1.490 . S
P512 C526 1.812 . S
P512 C532 1.803 . S
P512 C538 1.819 . S
H513 C527 0.941 . S
H514 C528 0.939 . S
H515 C530 0.940 . S
H516 C531 0.940 . S
H517 C533 0.939 . S
H518 C534 0.942 . S
H519 C536 0.940 . S
H520 C537 0.939 . S
H521 C539 0.941 . S
H522 C543 0.939 . S
O523 P512 1.490 . S
H524 C540 0.939 . S
H525 C542 0.940 . S
C526 P512 1.812 . S
C526 C527 1.389 . S
C526 C531 1.391 . S
C527 H513 0.941 . S
C527 C526 1.389 . S
C527 C528 1.397 . S
C528 H514 0.939 . S
C528 C527 1.397 . S
C528 C529 1.378 . S
C529 C528 1.378 . S
C529 C530 1.378 . S
C530 H515 0.940 . S
C530 C529 1.378 . S
C530 C531 1.396 . S
C531 H516 0.940 . S
C531 C526 1.391 . S
C531 C530 1.396 . S
C532 P512 1.803 . S
C532 C533 1.378 . S
C532 C537 1.400 . S
C533 H517 0.939 . S
C533 C532 1.378 . S
C533 C534 1.361 . S
C534 H518 0.942 . S
C534 C533 1.361 . S
C534 C535 1.369 . S
C535 C534 1.369 . S
C535 C536 1.404 . S
C536 H519 0.940 . S
C536 C535 1.404 . S
C536 C537 1.389 . S
C537 H520 0.939 . S
C537 C532 1.400 . S
C537 C536 1.389 . S
C538 P512 1.819 . S
C538 C539 1.391 . S
C538 C543 1.391 . S
C539 H521 0.941 . S
C539 C538 1.391 . S
C539 C540 1.396 . S
C540 H524 0.939 . S
C540 C539 1.396 . S
C540 C541 1.397 . S
C541 C540 1.397 . S
C541 C542 1.385 . S
C542 H525 0.940 . S
C542 C541 1.385 . S
C542 C543 1.388 . S
C543 H522 0.939 . S
C543 C538 1.391 . S
C543 C542 1.388 . S
P544 O555 1.490 . S
P544 C558 1.812 . S
P544 C564 1.803 . S
P544 C570 1.819 . S
H545 C559 0.941 . S
H546 C560 0.939 . S
H547 C562 0.940 . S
H548 C563 0.940 . S
H549 C565 0.939 . S
H550 C566 0.942 . S
H551 C568 0.940 . S
H552 C569 0.939 . S
H553 C571 0.941 . S
H554 C575 0.939 . S
O555 P544 1.490 . S
H556 C572 0.939 . S
H557 C574 0.940 . S
C558 P544 1.812 . S
C558 C559 1.389 . S
C558 C563 1.391 . S
C559 H545 0.941 . S
C559 C558 1.389 . S
C559 C560 1.397 . S
C560 H546 0.939 . S
C560 C559 1.397 . S
C560 C561 1.378 . S
C561 C560 1.378 . S
C561 C562 1.378 . S
C562 H547 0.940 . S
C562 C561 1.378 . S
C562 C563 1.396 . S
C563 H548 0.940 . S
C563 C558 1.391 . S
C563 C562 1.396 . S
C564 P544 1.803 . S
C564 C565 1.378 . S
C564 C569 1.400 . S
C565 H549 0.939 . S
C565 C564 1.378 . S
C565 C566 1.361 . S
C566 H550 0.942 . S
C566 C565 1.361 . S
C566 C567 1.369 . S
C567 C566 1.369 . S
C567 C568 1.404 . S
C568 H551 0.940 . S
C568 C567 1.404 . S
C568 C569 1.389 . S
C569 H552 0.939 . S
C569 C564 1.400 . S
C569 C568 1.389 . S
C570 P544 1.819 . S
C570 C571 1.391 . S
C570 C575 1.391 . S
C571 H553 0.941 . S
C571 C570 1.391 . S
C571 C572 1.396 . S
C572 H556 0.939 . S
C572 C571 1.396 . S
C572 C573 1.397 . S
C573 C572 1.397 . S
C573 C574 1.385 . S
C574 H557 0.940 . S
C574 C573 1.385 . S
C574 C575 1.388 . S
C575 H554 0.939 . S
C575 C570 1.391 . S
C575 C574 1.388 . S
Eu576 N607 2.657 . S
Eu576 N614 2.609 . S
Eu576 O620 2.558 . S
Eu576 O621 2.577 1_566 S
Eu576 O623 2.339 1_565 S
Eu576 O624 2.563 1_565 S
Eu576 O625 2.419 . S
Eu576 O627 2.380 1_556 S
Eu576 O628 2.474 . S
Eu576 C640 2.848 . S
C577 C580 1.429 . S
C577 C581 1.411 . S
C577 N584 1.377 . S
C578 C580 1.420 . S
C578 C582 1.423 . S
C578 C590 1.392 . S
C579 C581 1.420 . S
C579 C582 1.351 . S
C579 H602 0.931 . S
C580 C577 1.429 . S
C580 C578 1.420 . S
C580 N588 1.362 . S
C581 C577 1.411 . S
C581 C579 1.420 . S
C581 C586 1.395 . S
C582 C578 1.423 . S
C582 C579 1.351 . S
C582 H594 0.930 . S
C583 C585 1.400 . S
C583 C586 1.386 . S
C583 H595 0.930 . S
N584 C577 1.377 . S
N584 C585 1.321 . S
N584 Eu587 2.609 . S
C585 C583 1.400 . S
C585 N584 1.321 . S
C585 H592 0.930 . S
C586 C581 1.395 . S
C586 C583 1.386 . S
C586 H605 0.930 . S
Eu587 N584 2.609 . S
Eu587 N588 2.657 . S
Eu587 O621 2.439 . S
Eu587 O622 2.432 . S
Eu587 O626 2.558 . S
Eu587 O627 2.612 1_545 S
Eu587 O629 2.339 1_545 S
Eu587 O630 2.563 1_545 S
Eu587 O631 2.419 . S
Eu587 C651 2.848 . S
N588 C580 1.362 . S
N588 Eu587 2.657 . S
N588 C589 1.334 . S
C589 N588 1.334 . S
C589 C591 1.413 . S
C589 H596 0.929 . S
C590 C578 1.392 . S
C590 C591 1.367 . S
C590 H598 0.930 . S
C591 C589 1.413 . S
C591 C590 1.367 . S
C591 H593 0.930 . S
H592 C585 0.930 . S
H593 C591 0.930 . S
H594 C582 0.930 . S
H595 C583 0.930 . S
H596 C589 0.929 . S
H597 C611 0.930 . S
H598 C590 0.930 . S
H599 C617 0.930 . S
H600 C608 0.929 . S
H601 C615 0.930 . S
H602 C579 0.931 . S
H603 C609 0.930 . S
H604 C642 0.930 . S
H605 C586 0.930 . S
H606 C641 0.931 . S
N607 Eu576 2.657 . S
N607 C608 1.334 . S
N607 C612 1.362 . S
C608 H600 0.929 . S
C608 N607 1.334 . S
C608 C611 1.413 . S
C609 H603 0.930 . S
C609 C610 1.392 . S
C609 C611 1.367 . S
C610 C609 1.392 . S
C610 C612 1.420 . S
C610 C642 1.423 . S
C611 H597 0.930 . S
C611 C608 1.413 . S
C611 C609 1.367 . S
C612 N607 1.362 . S
C612 C610 1.420 . S
C612 C616 1.429 . S
H613 C618 0.930 . S
N614 Eu576 2.609 . S
N614 C616 1.377 . S
N614 C617 1.321 . S
C615 H601 0.930 . S
C615 C617 1.400 . S
C615 C618 1.386 . S
C616 C612 1.429 . S
C616 N614 1.377 . S
C616 C619 1.411 . S
C617 H599 0.930 . S
C617 N614 1.321 . S
C617 C615 1.400 . S
C618 H613 0.930 . S
C618 C615 1.386 . S
C618 C619 1.395 . S
C619 C616 1.411 . S
C619 C618 1.395 . S
C619 C641 1.420 . S
O620 Eu576 2.558 . S
O620 C640 1.257 . S
O621 Eu576 2.577 1_544 S
O621 Eu587 2.439 . S
O621 C632 1.229 1_554 S
O622 Eu587 2.432 . S
O622 C639 1.264 1_554 S
O623 Eu576 2.339 1_545 S
O623 C639 1.254 . S
O624 Eu576 2.563 1_545 S
O624 C632 1.235 . S
O625 Eu576 2.419 . S
O625 C640 1.249 . S
O626 Eu587 2.558 . S
O626 C651 1.257 . S
O627 Eu576 2.380 1_554 S
O627 Eu587 2.612 1_565 S
O627 C643 1.276 . S
O628 Eu576 2.474 . S
O628 C650 1.191 1_556 S
O629 Eu587 2.339 1_565 S
O629 C650 1.254 . S
O630 Eu587 2.563 1_565 S
O630 C643 1.235 . S
O631 Eu587 2.419 . S
O631 C651 1.249 . S
C632 O621 1.229 1_556 S
C632 O624 1.235 . S
C633 C635 1.393 1_565 S
C633 C637 1.395 . S
C633 C640 1.492 . S
C634 C635 1.392 . S
C634 C636 1.386 1_545 S
C635 C633 1.393 1_545 S
C635 C634 1.392 . S
C635 H652 0.930 . S
C636 C634 1.386 1_565 S
C636 C638 1.395 . S
C636 H653 0.932 . S
C637 C633 1.395 . S
C637 C638 1.379 . S
C637 H654 0.930 . S
C638 C636 1.395 . S
C638 C637 1.379 . S
C638 H655 0.930 . S
C639 O622 1.264 1_556 S
C639 O623 1.254 . S
C640 Eu576 2.848 . S
C640 O620 1.257 . S
C640 O625 1.249 . S
C640 C633 1.492 . S
C641 H606 0.931 . S
C641 C619 1.420 . S
C641 C642 1.351 . S
C642 H604 0.930 . S
C642 C610 1.423 . S
C642 C641 1.351 . S
C643 O627 1.276 . S
C643 O630 1.235 . S
C644 C645 1.393 1_545 S
C644 C648 1.395 . S
C644 C651 1.492 . S
C645 C644 1.393 1_565 S
C645 C646 1.392 . S
C645 H656 0.930 . S
C646 C645 1.392 . S
C646 C647 1.386 1_565 S
C647 C646 1.386 1_545 S
C647 C649 1.395 . S
C647 H657 0.930 . S
C648 C644 1.395 . S
C648 C649 1.379 . S
C648 H658 0.930 . S
C649 C647 1.395 . S
C649 C648 1.379 . S
C649 H659 0.930 . S
C650 O628 1.191 1_554 S
C650 O629 1.254 . S
C651 Eu587 2.848 . S
C651 O626 1.257 . S
C651 O631 1.249 . S
C651 C644 1.492 . S
H652 C635 0.930 . S
H653 C636 0.932 . S
H654 C637 0.930 . S
H655 C638 0.930 . S
H656 C645 0.930 . S
H657 C647 0.930 . S
H658 C648 0.930 . S
H659 C649 0.930 . S
Eu660 N691 2.657 . S
Eu660 N698 2.609 . S
Eu660 O704 2.558 . S
Eu660 O705 2.576 1_456 S
Eu660 O707 2.339 1_455 S
Eu660 O708 2.563 1_455 S
Eu660 O709 2.419 . S
Eu660 O711 2.380 1_556 S
Eu660 O712 2.413 1_556 S
Eu660 C724 2.848 . S
C661 C664 1.429 . S
C661 C665 1.411 . S
C661 N668 1.377 . S
C662 C664 1.420 . S
C662 C666 1.423 . S
C662 C674 1.392 . S
C663 C665 1.420 . S
C663 C666 1.351 . S
C663 H686 0.931 . S
C664 C661 1.429 . S
C664 C662 1.420 . S
C664 N672 1.362 . S
C665 C661 1.411 . S
C665 C663 1.420 . S
C665 C670 1.395 . S
C666 C662 1.423 . S
C666 C663 1.351 . S
C666 H678 0.930 . S
C667 C669 1.400 . S
C667 C670 1.386 . S
C667 H679 0.930 . S
N668 C661 1.377 . S
N668 C669 1.321 . S
N668 Eu671 2.609 . S
C669 C667 1.400 . S
C669 N668 1.321 . S
C669 H676 0.930 . S
C670 C665 1.395 . S
C670 C667 1.386 . S
C670 H689 0.930 . S
Eu671 N668 2.609 . S
Eu671 N672 2.657 . S
Eu671 O705 2.442 . S
Eu671 O706 2.432 . S
Eu671 O710 2.558 . S
Eu671 O711 2.612 1_655 S
Eu671 O713 2.339 1_655 S
Eu671 O714 2.563 1_655 S
Eu671 O715 2.419 . S
Eu671 C735 2.848 . S
N672 C664 1.362 . S
N672 Eu671 2.657 . S
N672 C673 1.334 . S
C673 N672 1.334 . S
C673 C675 1.413 . S
C673 H680 0.929 . S
C674 C662 1.392 . S
C674 C675 1.367 . S
C674 H682 0.930 . S
C675 C673 1.413 . S
C675 C674 1.367 . S
C675 H677 0.930 . S
H676 C669 0.930 . S
H677 C675 0.930 . S
H678 C666 0.930 . S
H679 C667 0.930 . S
H680 C673 0.929 . S
H681 C695 0.930 . S
H682 C674 0.930 . S
H683 C701 0.930 . S
H684 C692 0.929 . S
H685 C699 0.930 . S
H686 C663 0.931 . S
H687 C693 0.930 . S
H688 C726 0.930 . S
H689 C670 0.930 . S
H690 C725 0.931 . S
N691 Eu660 2.657 . S
N691 C692 1.334 . S
N691 C696 1.362 . S
C692 H684 0.929 . S
C692 N691 1.334 . S
C692 C695 1.413 . S
C693 H687 0.930 . S
C693 C694 1.392 . S
C693 C695 1.367 . S
C694 C693 1.392 . S
C694 C696 1.420 . S
C694 C726 1.423 . S
C695 H681 0.930 . S
C695 C692 1.413 . S
C695 C693 1.367 . S
C696 N691 1.362 . S
C696 C694 1.420 . S
C696 C700 1.429 . S
H697 C702 0.930 . S
N698 Eu660 2.609 . S
N698 C700 1.377 . S
N698 C701 1.321 . S
C699 H685 0.930 . S
C699 C701 1.400 . S
C699 C702 1.386 . S
C700 C696 1.429 . S
C700 N698 1.377 . S
C700 C703 1.411 . S
C701 H683 0.930 . S
C701 N698 1.321 . S
C701 C699 1.400 . S
C702 H697 0.930 . S
C702 C699 1.386 . S
C702 C703 1.395 . S
C703 C700 1.411 . S
C703 C702 1.395 . S
C703 C725 1.420 . S
O704 Eu660 2.558 . S
O704 C724 1.257 . S
O705 Eu660 2.576 1_654 S
O705 Eu671 2.442 . S
O705 C716 1.227 1_554 S
O706 Eu671 2.432 . S
O706 C723 1.264 1_554 S
O707 Eu660 2.339 1_655 S
O707 C723 1.254 . S
O708 Eu660 2.563 1_655 S
O708 C716 1.235 . S
O709 Eu660 2.419 . S
O709 C724 1.249 . S
O710 Eu671 2.558 . S
O710 C735 1.257 . S
O711 Eu660 2.380 1_554 S
O711 Eu671 2.612 1_455 S
O711 C727 1.276 . S
O712 Eu660 2.413 1_554 S
O712 C734 1.300 . S
O713 Eu671 2.339 1_455 S
O713 C734 1.254 . S
O714 Eu671 2.563 1_455 S
O714 C727 1.235 . S
O715 Eu671 2.419 . S
O715 C735 1.249 . S
C716 O705 1.227 1_556 S
C716 O708 1.235 . S
C717 C719 1.393 1_455 S
C717 C721 1.395 . S
C717 C724 1.492 . S
C718 C719 1.392 . S
C718 C720 1.386 1_655 S
C719 C717 1.393 1_655 S
C719 C718 1.392 . S
C719 H736 0.930 . S
C720 C718 1.386 1_455 S
C720 C722 1.395 . S
C720 H737 0.930 . S
C721 C717 1.395 . S
C721 C722 1.379 . S
C721 H738 0.930 . S
C722 C720 1.395 . S
C722 C721 1.379 . S
C722 H739 0.930 . S
C723 O706 1.264 1_556 S
C723 O707 1.254 . S
C724 Eu660 2.848 . S
C724 O704 1.257 . S
C724 O709 1.249 . S
C724 C717 1.492 . S
C725 H690 0.931 . S
C725 C703 1.420 . S
C725 C726 1.351 . S
C726 H688 0.930 . S
C726 C694 1.423 . S
C726 C725 1.351 . S
C727 O711 1.276 . S
C727 O714 1.235 . S
C728 C729 1.393 1_655 S
C728 C732 1.395 . S
C728 C735 1.492 . S
C729 C728 1.393 1_455 S
C729 C730 1.392 . S
C729 H740 0.930 . S
C730 C729 1.392 . S
C730 C731 1.386 1_455 S
C731 C730 1.386 1_655 S
C731 C733 1.395 . S
C731 H741 0.930 . S
C732 C728 1.395 . S
C732 C733 1.379 . S
C732 H742 0.930 . S
C733 C731 1.395 . S
C733 C732 1.379 . S
C733 H743 0.930 . S
C734 O712 1.300 . S
C734 O713 1.254 . S
C735 Eu671 2.848 . S
C735 O710 1.257 . S
C735 O715 1.249 . S
C735 C728 1.492 . S
H736 C719 0.930 . S
H737 C720 0.930 . S
H738 C721 0.930 . S
H739 C722 0.930 . S
H740 C729 0.930 . S
H741 C731 0.930 . S
H742 C732 0.930 . S
H743 C733 0.930 . S
Eu744 N775 2.657 . S
Eu744 N782 2.609 . S
Eu744 O788 2.558 . S
Eu744 O789 2.612 . S
Eu744 O791 2.339 . S
Eu744 O792 2.563 . S
Eu744 O793 2.419 . S
Eu744 O795 2.376 . S
Eu744 O796 2.432 . S
Eu744 C808 2.848 . S
C745 C748 1.429 . S
C745 C749 1.411 . S
C745 N752 1.377 . S
C746 C748 1.420 . S
C746 C750 1.423 . S
C746 C758 1.392 . S
C747 C749 1.420 . S
C747 C750 1.351 . S
C747 H770 0.931 . S
C748 C745 1.429 . S
C748 C746 1.420 . S
C748 N756 1.362 . S
C749 C745 1.411 . S
C749 C747 1.420 . S
C749 C754 1.395 . S
C750 C746 1.423 . S
C750 C747 1.351 . S
C750 H762 0.930 . S
C751 C753 1.400 . S
C751 C754 1.386 . S
C751 H763 0.930 . S
N752 C745 1.377 . S
N752 C753 1.321 . S
N752 Eu755 2.609 . S
C753 C751 1.400 . S
C753 N752 1.321 . S
C753 H760 0.930 . S
C754 C749 1.395 . S
C754 C751 1.386 . S
C754 H773 0.930 . S
Eu755 N752 2.609 . S
Eu755 N756 2.657 . S
Eu755 O789 2.380 1_556 S
Eu755 O790 2.473 . S
Eu755 O794 2.558 . S
Eu755 O795 2.615 1_556 S
Eu755 O797 2.339 . S
Eu755 O798 2.563 . S
Eu755 O799 2.419 . S
Eu755 C819 2.848 . S
N756 C748 1.362 . S
N756 Eu755 2.657 . S
N756 C757 1.334 . S
C757 N756 1.334 . S
C757 C759 1.413 . S
C757 H764 0.929 . S
C758 C746 1.392 . S
C758 C759 1.367 . S
C758 H766 0.930 . S
C759 C757 1.413 . S
C759 C758 1.367 . S
C759 H761 0.930 . S
H760 C753 0.930 . S
H761 C759 0.930 . S
H762 C750 0.930 . S
H763 C751 0.930 . S
H764 C757 0.929 . S
H765 C779 0.930 . S
H766 C758 0.930 . S
H767 C785 0.930 . S
H768 C776 0.929 . S
H769 C783 0.930 . S
H770 C747 0.931 . S
H771 C777 0.930 . S
H772 C810 0.930 . S
H773 C754 0.930 . S
H774 C809 0.931 . S
N775 Eu744 2.657 . S
N775 C776 1.334 . S
N775 C780 1.362 . S
C776 H768 0.929 . S
C776 N775 1.334 . S
C776 C779 1.413 . S
C777 H771 0.930 . S
C777 C778 1.392 . S
C777 C779 1.367 . S
C778 C777 1.392 . S
C778 C780 1.420 . S
C778 C810 1.423 . S
C779 H765 0.930 . S
C779 C776 1.413 . S
C779 C777 1.367 . S
C780 N775 1.362 . S
C780 C778 1.420 . S
C780 C784 1.429 . S
H781 C786 0.930 . S
N782 Eu744 2.609 . S
N782 C784 1.377 . S
N782 C785 1.321 . S
C783 H769 0.930 . S
C783 C785 1.400 . S
C783 C786 1.386 . S
C784 C780 1.429 . S
C784 N782 1.377 . S
C784 C787 1.411 . S
C785 H767 0.930 . S
C785 N782 1.321 . S
C785 C783 1.400 . S
C786 H781 0.930 . S
C786 C783 1.386 . S
C786 C787 1.395 . S
C787 C784 1.411 . S
C787 C786 1.395 . S
C787 C809 1.420 . S
O788 Eu744 2.558 . S
O788 C808 1.257 . S
O789 Eu744 2.612 . S
O789 Eu755 2.380 1_554 S
O789 C800 1.276 . S
O790 Eu755 2.473 . S
O790 C807 1.192 1_556 S
O791 Eu744 2.339 . S
O791 C807 1.254 . S
O792 Eu744 2.563 . S
O792 C800 1.235 . S
O793 Eu744 2.419 . S
O793 C808 1.249 . S
O794 Eu755 2.558 . S
O794 C819 1.257 . S
O795 Eu744 2.376 . S
O795 Eu755 2.615 1_554 S
O795 C811 1.279 1_554 S
O796 Eu744 2.432 . S
O796 C818 1.264 1_554 S
O797 Eu755 2.339 . S
O797 C818 1.254 . S
O798 Eu755 2.563 . S
O798 C811 1.235 . S
O799 Eu755 2.419 . S
O799 C819 1.249 . S
C800 O789 1.276 . S
C800 O792 1.235 . S
C801 C803 1.393 . S
C801 C805 1.395 . S
C801 C808 1.492 . S
C802 C803 1.392 . S
C802 C804 1.386 . S
C803 C801 1.393 . S
C803 C802 1.392 . S
C803 H820 0.930 . S
C804 C802 1.386 . S
C804 C806 1.395 . S
C804 H821 0.930 . S
C805 C801 1.395 . S
C805 C806 1.379 . S
C805 H822 0.930 . S
C806 C804 1.395 . S
C806 C805 1.379 . S
C806 H823 0.930 . S
C807 O790 1.192 1_554 S
C807 O791 1.254 . S
C808 Eu744 2.848 . S
C808 O788 1.257 . S
C808 O793 1.249 . S
C808 C801 1.492 . S
C809 H774 0.931 . S
C809 C787 1.420 . S
C809 C810 1.351 . S
C810 H772 0.930 . S
C810 C778 1.423 . S
C810 C809 1.351 . S
C811 O795 1.279 1_556 S
C811 O798 1.235 . S
C812 C813 1.393 . S
C812 C816 1.395 . S
C812 C819 1.492 . S
C813 C812 1.393 . S
C813 C814 1.392 . S
C813 H824 0.930 . S
C814 C813 1.392 . S
C814 C815 1.386 . S
C815 C814 1.386 . S
C815 C817 1.395 . S
C815 H825 0.930 . S
C816 C812 1.395 . S
C816 C817 1.379 . S
C816 H826 0.930 . S
C817 C815 1.395 . S
C817 C816 1.379 . S
C817 H827 0.930 . S
C818 O796 1.264 1_556 S
C818 O797 1.254 . S
C819 Eu755 2.848 . S
C819 O794 1.257 . S
C819 O799 1.249 . S
C819 C812 1.492 . S
H820 C803 0.930 . S
H821 C804 0.930 . S
H822 C805 0.930 . S
H823 C806 0.930 . S
H824 C813 0.930 . S
H825 C815 0.930 . S
H826 C816 0.930 . S
H827 C817 0.930 . S
Eu828 N859 2.657 . S
Eu828 N866 2.609 . S
Eu828 O872 2.558 . S
Eu828 O873 2.612 . S
Eu828 O875 2.339 . S
Eu828 O876 2.563 . S
Eu828 O877 2.419 . S
Eu828 O879 2.380 . S
Eu828 O880 2.432 . S
Eu828 C892 2.848 . S
C829 C832 1.429 . S
C829 C833 1.411 . S
C829 N836 1.377 . S
C830 C832 1.420 . S
C830 C834 1.423 . S
C830 C842 1.392 . S
C831 C833 1.420 . S
C831 C834 1.351 . S
C831 H854 0.931 . S
C832 C829 1.429 . S
C832 C830 1.420 . S
C832 N840 1.362 . S
C833 C829 1.411 . S
C833 C831 1.420 . S
C833 C838 1.395 . S
C834 C830 1.423 . S
C834 C831 1.351 . S
C834 H846 0.930 . S
C835 C837 1.400 . S
C835 C838 1.386 . S
C835 H847 0.930 . S
N836 C829 1.377 . S
N836 C837 1.321 . S
N836 Eu839 2.609 . S
C837 C835 1.400 . S
C837 N836 1.321 . S
C837 H844 0.930 . S
C838 C833 1.395 . S
C838 C835 1.386 . S
C838 H857 0.930 . S
Eu839 N836 2.609 . S
Eu839 N840 2.657 . S
Eu839 O873 2.380 . S
Eu839 O874 2.432 . S
Eu839 O878 2.558 . S
Eu839 O879 2.612 . S
Eu839 O881 2.339 . S
Eu839 O882 2.563 . S
Eu839 O883 2.419 . S
Eu839 C903 2.848 . S
N840 C832 1.362 . S
N840 Eu839 2.657 . S
N840 C841 1.334 . S
C841 N840 1.334 . S
C841 C843 1.413 . S
C841 H848 0.929 . S
C842 C830 1.392 . S
C842 C843 1.367 . S
C842 H850 0.930 . S
C843 C841 1.413 . S
C843 C842 1.367 . S
C843 H845 0.930 . S
H844 C837 0.930 . S
H845 C843 0.930 . S
H846 C834 0.930 . S
H847 C835 0.930 . S
H848 C841 0.929 . S
H849 C863 0.930 . S
H850 C842 0.930 . S
H851 C869 0.930 . S
H852 C860 0.929 . S
H853 C867 0.930 . S
H854 C831 0.931 . S
H855 C861 0.930 . S
H856 C894 0.930 . S
H857 C838 0.930 . S
H858 C893 0.931 . S
N859 Eu828 2.657 . S
N859 C860 1.334 . S
N859 C864 1.362 . S
C860 H852 0.929 . S
C860 N859 1.334 . S
C860 C863 1.413 . S
C861 H855 0.930 . S
C861 C862 1.392 . S
C861 C863 1.367 . S
C862 C861 1.392 . S
C862 C864 1.420 . S
C862 C894 1.423 . S
C863 H849 0.930 . S
C863 C860 1.413 . S
C863 C861 1.367 . S
C864 N859 1.362 . S
C864 C862 1.420 . S
C864 C868 1.429 . S
H865 C870 0.930 . S
N866 Eu828 2.609 . S
N866 C868 1.377 . S
N866 C869 1.321 . S
C867 H853 0.930 . S
C867 C869 1.400 . S
C867 C870 1.386 . S
C868 C864 1.429 . S
C868 N866 1.377 . S
C868 C871 1.411 . S
C869 H851 0.930 . S
C869 N866 1.321 . S
C869 C867 1.400 . S
C870 H865 0.930 . S
C870 C867 1.386 . S
C870 C871 1.395 . S
C871 C868 1.411 . S
C871 C870 1.395 . S
C871 C893 1.420 . S
O872 Eu828 2.558 . S
O872 C892 1.257 . S
O873 Eu828 2.612 . S
O873 Eu839 2.380 . S
O873 C884 1.276 . S
O874 Eu839 2.432 . S
O874 C891 1.264 . S
O875 Eu828 2.339 . S
O875 C891 1.254 . S
O876 Eu828 2.563 . S
O876 C884 1.235 . S
O877 Eu828 2.419 . S
O877 C892 1.249 . S
O878 Eu839 2.558 . S
O878 C903 1.257 . S
O879 Eu828 2.380 . S
O879 Eu839 2.612 . S
O879 C895 1.276 . S
O880 Eu828 2.432 . S
O880 C902 1.264 . S
O881 Eu839 2.339 . S
O881 C902 1.254 . S
O882 Eu839 2.563 . S
O882 C895 1.235 . S
O883 Eu839 2.419 . S
O883 C903 1.249 . S
C884 O873 1.276 . S
C884 O876 1.235 . S
C885 C887 1.393 . S
C885 C889 1.395 . S
C885 C892 1.492 . S
C886 C887 1.392 . S
C886 C888 1.386 . S
C887 C885 1.393 . S
C887 C886 1.392 . S
C887 H904 0.930 . S
C888 C886 1.386 . S
C888 C890 1.395 . S
C888 H905 0.930 . S
C889 C885 1.395 . S
C889 C890 1.379 . S
C889 H906 0.930 . S
C890 C888 1.395 . S
C890 C889 1.379 . S
C890 H907 0.930 . S
C891 O874 1.264 . S
C891 O875 1.254 . S
C892 Eu828 2.848 . S
C892 O872 1.257 . S
C892 O877 1.249 . S
C892 C885 1.492 . S
C893 H858 0.931 . S
C893 C871 1.420 . S
C893 C894 1.351 . S
C894 H856 0.930 . S
C894 C862 1.423 . S
C894 C893 1.351 . S
C895 O879 1.276 . S
C895 O882 1.235 . S
C896 C897 1.393 . S
C896 C900 1.395 . S
C896 C903 1.492 . S
C897 C896 1.393 . S
C897 C898 1.392 . S
C897 H908 0.930 . S
C898 C897 1.392 . S
C898 C899 1.386 . S
C899 C898 1.386 . S
C899 C901 1.395 . S
C899 H909 0.930 . S
C900 C896 1.395 . S
C900 C901 1.379 . S
C900 H910 0.930 . S
C901 C899 1.395 . S
C901 C900 1.379 . S
C901 H911 0.930 . S
C902 O880 1.264 . S
C902 O881 1.254 . S
C903 Eu839 2.848 . S
C903 O878 1.257 . S
C903 O883 1.249 . S
C903 C896 1.492 . S
H904 C887 0.930 . S
H905 C888 0.930 . S
H906 C889 0.930 . S
H907 C890 0.930 . S
H908 C897 0.930 . S
H909 C899 0.930 . S
H910 C900 0.930 . S
H911 C901 0.930 . S
Eu912 N943 2.657 . S
Eu912 N950 2.609 . S
Eu912 O956 2.558 . S
Eu912 O957 2.612 . S
Eu912 O959 2.339 . S
Eu912 O960 2.563 . S
Eu912 O961 2.419 . S
Eu912 O963 2.380 . S
Eu912 O964 2.432 . S
Eu912 C976 2.848 . S
C913 C916 1.429 . S
C913 C917 1.411 . S
C913 N920 1.377 . S
C914 C916 1.420 . S
C914 C918 1.423 . S
C914 C926 1.392 . S
C915 C917 1.420 . S
C915 C918 1.351 . S
C915 H938 0.931 . S
C916 C913 1.429 . S
C916 C914 1.420 . S
C916 N924 1.362 . S
C917 C913 1.411 . S
C917 C915 1.420 . S
C917 C922 1.395 . S
C918 C914 1.423 . S
C918 C915 1.351 . S
C918 H930 0.930 . S
C919 C921 1.400 . S
C919 C922 1.386 . S
C919 H931 0.930 . S
N920 C913 1.377 . S
N920 C921 1.321 . S
N920 Eu923 2.609 . S
C921 C919 1.400 . S
C921 N920 1.321 . S
C921 H928 0.930 . S
C922 C917 1.395 . S
C922 C919 1.386 . S
C922 H941 0.930 . S
Eu923 N920 2.609 . S
Eu923 N924 2.657 . S
Eu923 O957 2.380 . S
Eu923 O958 2.432 . S
Eu923 O962 2.558 . S
Eu923 O963 2.612 . S
Eu923 O965 2.339 . S
Eu923 O966 2.563 . S
Eu923 O967 2.419 . S
Eu923 C987 2.848 . S
N924 C916 1.362 . S
N924 Eu923 2.657 . S
N924 C925 1.334 . S
C925 N924 1.334 . S
C925 C927 1.413 . S
C925 H932 0.929 . S
C926 C914 1.392 . S
C926 C927 1.367 . S
C926 H934 0.930 . S
C927 C925 1.413 . S
C927 C926 1.367 . S
C927 H929 0.930 . S
H928 C921 0.930 . S
H929 C927 0.930 . S
H930 C918 0.930 . S
H931 C919 0.930 . S
H932 C925 0.929 . S
H933 C947 0.930 . S
H934 C926 0.930 . S
H935 C953 0.930 . S
H936 C944 0.929 . S
H937 C951 0.930 . S
H938 C915 0.931 . S
H939 C945 0.930 . S
H940 C978 0.930 . S
H941 C922 0.930 . S
H942 C977 0.931 . S
N943 Eu912 2.657 . S
N943 C944 1.334 . S
N943 C948 1.362 . S
C944 H936 0.929 . S
C944 N943 1.334 . S
C944 C947 1.413 . S
C945 H939 0.930 . S
C945 C946 1.392 . S
C945 C947 1.367 . S
C946 C945 1.392 . S
C946 C948 1.420 . S
C946 C978 1.423 . S
C947 H933 0.930 . S
C947 C944 1.413 . S
C947 C945 1.367 . S
C948 N943 1.362 . S
C948 C946 1.420 . S
C948 C952 1.429 . S
H949 C954 0.930 . S
N950 Eu912 2.609 . S
N950 C952 1.377 . S
N950 C953 1.321 . S
C951 H937 0.930 . S
C951 C953 1.400 . S
C951 C954 1.386 . S
C952 C948 1.429 . S
C952 N950 1.377 . S
C952 C955 1.411 . S
C953 H935 0.930 . S
C953 N950 1.321 . S
C953 C951 1.400 . S
C954 H949 0.930 . S
C954 C951 1.386 . S
C954 C955 1.395 . S
C955 C952 1.411 . S
C955 C954 1.395 . S
C955 C977 1.420 . S
O956 Eu912 2.558 . S
O956 C976 1.257 . S
O957 Eu912 2.612 . S
O957 Eu923 2.380 . S
O957 C968 1.276 . S
O958 Eu923 2.432 . S
O958 C975 1.264 . S
O959 Eu912 2.339 . S
O959 C975 1.254 . S
O960 Eu912 2.563 . S
O960 C968 1.235 . S
O961 Eu912 2.419 . S
O961 C976 1.249 . S
O962 Eu923 2.558 . S
O962 C987 1.257 . S
O963 Eu912 2.380 . S
O963 Eu923 2.612 . S
O963 C979 1.276 . S
O964 Eu912 2.432 . S
O964 C986 1.264 . S
O965 Eu923 2.339 . S
O965 C986 1.254 . S
O966 Eu923 2.563 . S
O966 C979 1.235 . S
O967 Eu923 2.419 . S
O967 C987 1.249 . S
C968 O957 1.276 . S
C968 O960 1.235 . S
C969 C971 1.393 . S
C969 C973 1.395 . S
C969 C976 1.492 . S
C970 C971 1.392 . S
C970 C972 1.386 . S
C971 C969 1.393 . S
C971 C970 1.392 . S
C971 H988 0.930 . S
C972 C970 1.386 . S
C972 C974 1.395 . S
C972 H989 0.930 . S
C973 C969 1.395 . S
C973 C974 1.379 . S
C973 H990 0.930 . S
C974 C972 1.395 . S
C974 C973 1.379 . S
C974 H991 0.930 . S
C975 O958 1.264 . S
C975 O959 1.254 . S
C976 Eu912 2.848 . S
C976 O956 1.257 . S
C976 O961 1.249 . S
C976 C969 1.492 . S
C977 H942 0.931 . S
C977 C955 1.420 . S
C977 C978 1.351 . S
C978 H940 0.930 . S
C978 C946 1.423 . S
C978 C977 1.351 . S
C979 O963 1.276 . S
C979 O966 1.235 . S
C980 C981 1.393 . S
C980 C984 1.395 . S
C980 C987 1.492 . S
C981 C980 1.393 . S
C981 C982 1.392 . S
C981 H992 0.930 . S
C982 C981 1.392 . S
C982 C983 1.386 . S
C983 C982 1.386 . S
C983 C985 1.395 . S
C983 H993 0.930 . S
C984 C980 1.395 . S
C984 C985 1.379 . S
C984 H994 0.930 . S
C985 C983 1.395 . S
C985 C984 1.379 . S
C985 H995 0.930 . S
C986 O964 1.264 . S
C986 O965 1.254 . S
C987 Eu923 2.848 . S
C987 O962 1.257 . S
C987 O967 1.249 . S
C987 C980 1.492 . S
H988 C971 0.930 . S
H989 C972 0.930 . S
H990 C973 0.930 . S
H991 C974 0.930 . S
H992 C981 0.930 . S
H993 C983 0.930 . S
H994 C984 0.930 . S
H995 C985 0.930 . S
Eu996 N1027 2.657 . S
Eu996 N1034 2.609 . S
Eu996 O1040 2.558 . S
Eu996 O1041 2.612 . S
Eu996 O1043 2.339 . S
Eu996 O1044 2.563 . S
Eu996 O1045 2.419 . S
Eu996 O1047 2.380 . S
Eu996 O1048 2.432 . S
Eu996 C1060 2.848 . S
C997 C1000 1.429 . S
C997 C1001 1.411 . S
C997 N1004 1.377 . S
C998 C1000 1.420 . S
C998 C1002 1.423 . S
C998 C1010 1.392 . S
C999 C1001 1.420 . S
C999 C1002 1.351 . S
C999 H1022 0.931 . S
C1000 C997 1.429 . S
C1000 C998 1.420 . S
C1000 N1008 1.362 . S
C1001 C997 1.411 . S
C1001 C999 1.420 . S
C1001 C1006 1.395 . S
C1002 C998 1.423 . S
C1002 C999 1.351 . S
C1002 H1014 0.930 . S
C1003 C1005 1.400 . S
C1003 C1006 1.386 . S
C1003 H1015 0.930 . S
N1004 C997 1.377 . S
N1004 C1005 1.321 . S
N1004 Eu1007 2.609 . S
C1005 C1003 1.400 . S
C1005 N1004 1.321 . S
C1005 H1012 0.930 . S
C1006 C1001 1.395 . S
C1006 C1003 1.386 . S
C1006 H1025 0.930 . S
Eu1007 N1004 2.609 . S
Eu1007 N1008 2.657 . S
Eu1007 O1041 2.380 . S
Eu1007 O1042 2.432 . S
Eu1007 O1046 2.558 . S
Eu1007 O1047 2.612 . S
Eu1007 O1049 2.339 . S
Eu1007 O1050 2.563 . S
Eu1007 O1051 2.419 . S
Eu1007 C1071 2.848 . S
N1008 C1000 1.362 . S
N1008 Eu1007 2.657 . S
N1008 C1009 1.334 . S
C1009 N1008 1.334 . S
C1009 C1011 1.413 . S
C1009 H1016 0.929 . S
C1010 C998 1.392 . S
C1010 C1011 1.367 . S
C1010 H1018 0.930 . S
C1011 C1009 1.413 . S
C1011 C1010 1.367 . S
C1011 H1013 0.930 . S
H1012 C1005 0.930 . S
H1013 C1011 0.930 . S
H1014 C1002 0.930 . S
H1015 C1003 0.930 . S
H1016 C1009 0.929 . S
H1017 C1031 0.930 . S
H1018 C1010 0.930 . S
H1019 C1037 0.930 . S
H1020 C1028 0.929 . S
H1021 C1035 0.930 . S
H1022 C999 0.931 . S
H1023 C1029 0.930 . S
H1024 C1062 0.930 . S
H1025 C1006 0.930 . S
H1026 C1061 0.931 . S
N1027 Eu996 2.657 . S
N1027 C1028 1.334 . S
N1027 C1032 1.362 . S
C1028 H1020 0.929 . S
C1028 N1027 1.334 . S
C1028 C1031 1.413 . S
C1029 H1023 0.930 . S
C1029 C1030 1.392 . S
C1029 C1031 1.367 . S
C1030 C1029 1.392 . S
C1030 C1032 1.420 . S
C1030 C1062 1.423 . S
C1031 H1017 0.930 . S
C1031 C1028 1.413 . S
C1031 C1029 1.367 . S
C1032 N1027 1.362 . S
C1032 C1030 1.420 . S
C1032 C1036 1.429 . S
H1033 C1038 0.930 . S
N1034 Eu996 2.609 . S
N1034 C1036 1.377 . S
N1034 C1037 1.321 . S
C1035 H1021 0.930 . S
C1035 C1037 1.400 . S
C1035 C1038 1.386 . S
C1036 C1032 1.429 . S
C1036 N1034 1.377 . S
C1036 C1039 1.411 . S
C1037 H1019 0.930 . S
C1037 N1034 1.321 . S
C1037 C1035 1.400 . S
C1038 H1033 0.930 . S
C1038 C1035 1.386 . S
C1038 C1039 1.395 . S
C1039 C1036 1.411 . S
C1039 C1038 1.395 . S
C1039 C1061 1.420 . S
O1040 Eu996 2.558 . S
O1040 C1060 1.257 . S
O1041 Eu996 2.612 . S
O1041 Eu1007 2.380 . S
O1041 C1052 1.276 . S
O1042 Eu1007 2.432 . S
O1042 C1059 1.264 . S
O1043 Eu996 2.339 . S
O1043 C1059 1.254 . S
O1044 Eu996 2.563 . S
O1044 C1052 1.235 . S
O1045 Eu996 2.419 . S
O1045 C1060 1.249 . S
O1046 Eu1007 2.558 . S
O1046 C1071 1.257 . S
O1047 Eu996 2.380 . S
O1047 Eu1007 2.612 . S
O1047 C1063 1.276 . S
O1048 Eu996 2.432 . S
O1048 C1070 1.264 . S
O1049 Eu1007 2.339 . S
O1049 C1070 1.254 . S
O1050 Eu1007 2.563 . S
O1050 C1063 1.235 . S
O1051 Eu1007 2.419 . S
O1051 C1071 1.249 . S
C1052 O1041 1.276 . S
C1052 O1044 1.235 . S
C1053 C1055 1.393 . S
C1053 C1057 1.395 . S
C1053 C1060 1.492 . S
C1054 C1055 1.392 . S
C1054 C1056 1.386 . S
C1055 C1053 1.393 . S
C1055 C1054 1.392 . S
C1055 H1072 0.930 . S
C1056 C1054 1.386 . S
C1056 C1058 1.395 . S
C1056 H1073 0.930 . S
C1057 C1053 1.395 . S
C1057 C1058 1.379 . S
C1057 H1074 0.930 . S
C1058 C1056 1.395 . S
C1058 C1057 1.379 . S
C1058 H1075 0.930 . S
C1059 O1042 1.264 . S
C1059 O1043 1.254 . S
C1060 Eu996 2.848 . S
C1060 O1040 1.257 . S
C1060 O1045 1.249 . S
C1060 C1053 1.492 . S
C1061 H1026 0.931 . S
C1061 C1039 1.420 . S
C1061 C1062 1.351 . S
C1062 H1024 0.930 . S
C1062 C1030 1.423 . S
C1062 C1061 1.351 . S
C1063 O1047 1.276 . S
C1063 O1050 1.235 . S
C1064 C1065 1.393 . S
C1064 C1068 1.395 . S
C1064 C1071 1.492 . S
C1065 C1064 1.393 . S
C1065 C1066 1.392 . S
C1065 H1076 0.930 . S
C1066 C1065 1.392 . S
C1066 C1067 1.386 . S
C1067 C1066 1.386 . S
C1067 C1069 1.395 . S
C1067 H1077 0.930 . S
C1068 C1064 1.395 . S
C1068 C1069 1.379 . S
C1068 H1078 0.930 . S
C1069 C1067 1.395 . S
C1069 C1068 1.379 . S
C1069 H1079 0.930 . S
C1070 O1048 1.264 . S
C1070 O1049 1.254 . S
C1071 Eu1007 2.848 . S
C1071 O1046 1.257 . S
C1071 O1051 1.249 . S
C1071 C1064 1.492 . S
H1072 C1055 0.930 . S
H1073 C1056 0.930 . S
H1074 C1057 0.930 . S
H1075 C1058 0.930 . S
H1076 C1065 0.930 . S
H1077 C1067 0.930 . S
H1078 C1068 0.930 . S
H1079 C1069 0.930 . S
Eu1080 N1111 2.657 . S
Eu1080 N1118 2.609 . S
Eu1080 O1124 2.558 . S
Eu1080 O1125 2.612 . S
Eu1080 O1127 2.339 . S
Eu1080 O1128 2.563 . S
Eu1080 O1129 2.419 . S
Eu1080 O1131 2.380 . S
Eu1080 O1132 2.432 . S
Eu1080 C1144 2.848 . S
C1081 C1084 1.429 . S
C1081 C1085 1.411 . S
C1081 N1088 1.377 . S
C1082 C1084 1.420 . S
C1082 C1086 1.423 . S
C1082 C1094 1.392 . S
C1083 C1085 1.420 . S
C1083 C1086 1.351 . S
C1083 H1106 0.931 . S
C1084 C1081 1.429 . S
C1084 C1082 1.420 . S
C1084 N1092 1.362 . S
C1085 C1081 1.411 . S
C1085 C1083 1.420 . S
C1085 C1090 1.395 . S
C1086 C1082 1.423 . S
C1086 C1083 1.351 . S
C1086 H1098 0.930 . S
C1087 C1089 1.400 . S
C1087 C1090 1.386 . S
C1087 H1099 0.930 . S
N1088 C1081 1.377 . S
N1088 C1089 1.321 . S
N1088 Eu1091 2.609 . S
C1089 C1087 1.400 . S
C1089 N1088 1.321 . S
C1089 H1096 0.930 . S
C1090 C1085 1.395 . S
C1090 C1087 1.386 . S
C1090 H1109 0.930 . S
Eu1091 N1088 2.609 . S
Eu1091 N1092 2.657 . S
Eu1091 O1125 2.380 . S
Eu1091 O1126 2.432 . S
Eu1091 O1130 2.558 . S
Eu1091 O1131 2.612 . S
Eu1091 O1133 2.339 . S
Eu1091 O1134 2.563 . S
Eu1091 O1135 2.419 . S
Eu1091 C1155 2.848 . S
N1092 C1084 1.362 . S
N1092 Eu1091 2.657 . S
N1092 C1093 1.334 . S
C1093 N1092 1.334 . S
C1093 C1095 1.413 . S
C1093 H1100 0.929 . S
C1094 C1082 1.392 . S
C1094 C1095 1.367 . S
C1094 H1102 0.930 . S
C1095 C1093 1.413 . S
C1095 C1094 1.367 . S
C1095 H1097 0.930 . S
H1096 C1089 0.930 . S
H1097 C1095 0.930 . S
H1098 C1086 0.930 . S
H1099 C1087 0.930 . S
H1100 C1093 0.929 . S
H1101 C1115 0.930 . S
H1102 C1094 0.930 . S
H1103 C1121 0.930 . S
H1104 C1112 0.929 . S
H1105 C1119 0.930 . S
H1106 C1083 0.931 . S
H1107 C1113 0.930 . S
H1108 C1146 0.930 . S
H1109 C1090 0.930 . S
H1110 C1145 0.931 . S
N1111 Eu1080 2.657 . S
N1111 C1112 1.334 . S
N1111 C1116 1.362 . S
C1112 H1104 0.929 . S
C1112 N1111 1.334 . S
C1112 C1115 1.413 . S
C1113 H1107 0.930 . S
C1113 C1114 1.392 . S
C1113 C1115 1.367 . S
C1114 C1113 1.392 . S
C1114 C1116 1.420 . S
C1114 C1146 1.423 . S
C1115 H1101 0.930 . S
C1115 C1112 1.413 . S
C1115 C1113 1.367 . S
C1116 N1111 1.362 . S
C1116 C1114 1.420 . S
C1116 C1120 1.429 . S
H1117 C1122 0.930 . S
N1118 Eu1080 2.609 . S
N1118 C1120 1.377 . S
N1118 C1121 1.321 . S
C1119 H1105 0.930 . S
C1119 C1121 1.400 . S
C1119 C1122 1.386 . S
C1120 C1116 1.429 . S
C1120 N1118 1.377 . S
C1120 C1123 1.411 . S
C1121 H1103 0.930 . S
C1121 N1118 1.321 . S
C1121 C1119 1.400 . S
C1122 H1117 0.930 . S
C1122 C1119 1.386 . S
C1122 C1123 1.395 . S
C1123 C1120 1.411 . S
C1123 C1122 1.395 . S
C1123 C1145 1.420 . S
O1124 Eu1080 2.558 . S
O1124 C1144 1.257 . S
O1125 Eu1080 2.612 . S
O1125 Eu1091 2.380 . S
O1125 C1136 1.276 . S
O1126 Eu1091 2.432 . S
O1126 C1143 1.264 . S
O1127 Eu1080 2.339 . S
O1127 C1143 1.254 . S
O1128 Eu1080 2.563 . S
O1128 C1136 1.235 . S
O1129 Eu1080 2.419 . S
O1129 C1144 1.249 . S
O1130 Eu1091 2.558 . S
O1130 C1155 1.257 . S
O1131 Eu1080 2.380 . S
O1131 Eu1091 2.612 . S
O1131 C1147 1.276 . S
O1132 Eu1080 2.432 . S
O1132 C1154 1.264 . S
O1133 Eu1091 2.339 . S
O1133 C1154 1.254 . S
O1134 Eu1091 2.563 . S
O1134 C1147 1.235 . S
O1135 Eu1091 2.419 . S
O1135 C1155 1.249 . S
C1136 O1125 1.276 . S
C1136 O1128 1.235 . S
C1137 C1139 1.393 . S
C1137 C1141 1.395 . S
C1137 C1144 1.492 . S
C1138 C1139 1.392 . S
C1138 C1140 1.386 . S
C1139 C1137 1.393 . S
C1139 C1138 1.392 . S
C1139 H1156 0.930 . S
C1140 C1138 1.386 . S
C1140 C1142 1.395 . S
C1140 H1157 0.930 . S
C1141 C1137 1.395 . S
C1141 C1142 1.379 . S
C1141 H1158 0.930 . S
C1142 C1140 1.395 . S
C1142 C1141 1.379 . S
C1142 H1159 0.930 . S
C1143 O1126 1.264 . S
C1143 O1127 1.254 . S
C1144 Eu1080 2.848 . S
C1144 O1124 1.257 . S
C1144 O1129 1.249 . S
C1144 C1137 1.492 . S
C1145 H1110 0.931 . S
C1145 C1123 1.420 . S
C1145 C1146 1.351 . S
C1146 H1108 0.930 . S
C1146 C1114 1.423 . S
C1146 C1145 1.351 . S
C1147 O1131 1.276 . S
C1147 O1134 1.235 . S
C1148 C1149 1.393 . S
C1148 C1152 1.395 . S
C1148 C1155 1.492 . S
C1149 C1148 1.393 . S
C1149 C1150 1.392 . S
C1149 H1160 0.930 . S
C1150 C1149 1.392 . S
C1150 C1151 1.386 . S
C1151 C1150 1.386 . S
C1151 C1153 1.395 . S
C1151 H1161 0.930 . S
C1152 C1148 1.395 . S
C1152 C1153 1.379 . S
C1152 H1162 0.930 . S
C1153 C1151 1.395 . S
C1153 C1152 1.379 . S
C1153 H1163 0.930 . S
C1154 O1132 1.264 . S
C1154 O1133 1.254 . S
C1155 Eu1091 2.848 . S
C1155 O1130 1.257 . S
C1155 O1135 1.249 . S
C1155 C1148 1.492 . S
H1156 C1139 0.930 . S
H1157 C1140 0.930 . S
H1158 C1141 0.930 . S
H1159 C1142 0.930 . S
H1160 C1149 0.930 . S
H1161 C1151 0.930 . S
H1162 C1152 0.930 . S
H1163 C1153 0.930 . S
Eu1164 N1195 2.657 . S
Eu1164 N1202 2.609 . S
Eu1164 O1208 2.558 . S
Eu1164 O1209 2.612 . S
Eu1164 O1211 2.339 . S
Eu1164 O1212 2.563 . S
Eu1164 O1213 2.419 . S
Eu1164 O1215 2.380 . S
Eu1164 O1216 2.432 . S
Eu1164 C1228 2.848 . S
C1165 C1168 1.429 . S
C1165 C1169 1.411 . S
C1165 N1172 1.377 . S
C1166 C1168 1.420 . S
C1166 C1170 1.423 . S
C1166 C1178 1.392 . S
C1167 C1169 1.420 . S
C1167 C1170 1.351 . S
C1167 H1190 0.931 . S
C1168 C1165 1.429 . S
C1168 C1166 1.420 . S
C1168 N1176 1.362 . S
C1169 C1165 1.411 . S
C1169 C1167 1.420 . S
C1169 C1174 1.395 . S
C1170 C1166 1.423 . S
C1170 C1167 1.351 . S
C1170 H1182 0.930 . S
C1171 C1173 1.400 . S
C1171 C1174 1.386 . S
C1171 H1183 0.930 . S
N1172 C1165 1.377 . S
N1172 C1173 1.321 . S
N1172 Eu1175 2.609 . S
C1173 C1171 1.400 . S
C1173 N1172 1.321 . S
C1173 H1180 0.930 . S
C1174 C1169 1.395 . S
C1174 C1171 1.386 . S
C1174 H1193 0.930 . S
Eu1175 N1172 2.609 . S
Eu1175 N1176 2.657 . S
Eu1175 O1209 2.380 . S
Eu1175 O1210 2.432 . S
Eu1175 O1214 2.558 . S
Eu1175 O1215 2.612 . S
Eu1175 O1217 2.339 . S
Eu1175 O1218 2.563 . S
Eu1175 O1219 2.419 . S
Eu1175 C1239 2.848 . S
N1176 C1168 1.362 . S
N1176 Eu1175 2.657 . S
N1176 C1177 1.334 . S
C1177 N1176 1.334 . S
C1177 C1179 1.413 . S
C1177 H1184 0.929 . S
C1178 C1166 1.392 . S
C1178 C1179 1.367 . S
C1178 H1186 0.930 . S
C1179 C1177 1.413 . S
C1179 C1178 1.367 . S
C1179 H1181 0.930 . S
H1180 C1173 0.930 . S
H1181 C1179 0.930 . S
H1182 C1170 0.930 . S
H1183 C1171 0.930 . S
H1184 C1177 0.929 . S
H1185 C1199 0.930 . S
H1186 C1178 0.930 . S
H1187 C1205 0.930 . S
H1188 C1196 0.929 . S
H1189 C1203 0.930 . S
H1190 C1167 0.931 . S
H1191 C1197 0.930 . S
H1192 C1230 0.930 . S
H1193 C1174 0.930 . S
H1194 C1229 0.931 . S
N1195 Eu1164 2.657 . S
N1195 C1196 1.334 . S
N1195 C1200 1.362 . S
C1196 H1188 0.929 . S
C1196 N1195 1.334 . S
C1196 C1199 1.413 . S
C1197 H1191 0.930 . S
C1197 C1198 1.392 . S
C1197 C1199 1.367 . S
C1198 C1197 1.392 . S
C1198 C1200 1.420 . S
C1198 C1230 1.423 . S
C1199 H1185 0.930 . S
C1199 C1196 1.413 . S
C1199 C1197 1.367 . S
C1200 N1195 1.362 . S
C1200 C1198 1.420 . S
C1200 C1204 1.429 . S
H1201 C1206 0.930 . S
N1202 Eu1164 2.609 . S
N1202 C1204 1.377 . S
N1202 C1205 1.321 . S
C1203 H1189 0.930 . S
C1203 C1205 1.400 . S
C1203 C1206 1.386 . S
C1204 C1200 1.429 . S
C1204 N1202 1.377 . S
C1204 C1207 1.411 . S
C1205 H1187 0.930 . S
C1205 N1202 1.321 . S
C1205 C1203 1.400 . S
C1206 H1201 0.930 . S
C1206 C1203 1.386 . S
C1206 C1207 1.395 . S
C1207 C1204 1.411 . S
C1207 C1206 1.395 . S
C1207 C1229 1.420 . S
O1208 Eu1164 2.558 . S
O1208 C1228 1.257 . S
O1209 Eu1164 2.612 . S
O1209 Eu1175 2.380 . S
O1209 C1220 1.276 . S
O1210 Eu1175 2.432 . S
O1210 C1227 1.264 . S
O1211 Eu1164 2.339 . S
O1211 C1227 1.254 . S
O1212 Eu1164 2.563 . S
O1212 C1220 1.235 . S
O1213 Eu1164 2.419 . S
O1213 C1228 1.249 . S
O1214 Eu1175 2.558 . S
O1214 C1239 1.257 . S
O1215 Eu1164 2.380 . S
O1215 Eu1175 2.612 . S
O1215 C1231 1.276 . S
O1216 Eu1164 2.432 . S
O1216 C1238 1.264 . S
O1217 Eu1175 2.339 . S
O1217 C1238 1.254 . S
O1218 Eu1175 2.563 . S
O1218 C1231 1.235 . S
O1219 Eu1175 2.419 . S
O1219 C1239 1.249 . S
C1220 O1209 1.276 . S
C1220 O1212 1.235 . S
C1221 C1223 1.393 . S
C1221 C1225 1.395 . S
C1221 C1228 1.492 . S
C1222 C1223 1.392 . S
C1222 C1224 1.386 . S
C1223 C1221 1.393 . S
C1223 C1222 1.392 . S
C1223 H1240 0.930 . S
C1224 C1222 1.386 . S
C1224 C1226 1.395 . S
C1224 H1241 0.930 . S
C1225 C1221 1.395 . S
C1225 C1226 1.379 . S
C1225 H1242 0.930 . S
C1226 C1224 1.395 . S
C1226 C1225 1.379 . S
C1226 H1243 0.930 . S
C1227 O1210 1.264 . S
C1227 O1211 1.254 . S
C1228 Eu1164 2.848 . S
C1228 O1208 1.257 . S
C1228 O1213 1.249 . S
C1228 C1221 1.492 . S
C1229 H1194 0.931 . S
C1229 C1207 1.420 . S
C1229 C1230 1.351 . S
C1230 H1192 0.930 . S
C1230 C1198 1.423 . S
C1230 C1229 1.351 . S
C1231 O1215 1.276 . S
C1231 O1218 1.235 . S
C1232 C1233 1.393 . S
C1232 C1236 1.395 . S
C1232 C1239 1.492 . S
C1233 C1232 1.393 . S
C1233 C1234 1.392 . S
C1233 H1244 0.930 . S
C1234 C1233 1.392 . S
C1234 C1235 1.386 . S
C1235 C1234 1.386 . S
C1235 C1237 1.395 . S
C1235 H1245 0.930 . S
C1236 C1232 1.395 . S
C1236 C1237 1.379 . S
C1236 H1246 0.930 . S
C1237 C1235 1.395 . S
C1237 C1236 1.379 . S
C1237 H1247 0.930 . S
C1238 O1216 1.264 . S
C1238 O1217 1.254 . S
C1239 Eu1175 2.848 . S
C1239 O1214 1.257 . S
C1239 O1219 1.249 . S
C1239 C1232 1.492 . S
H1240 C1223 0.930 . S
H1241 C1224 0.930 . S
H1242 C1225 0.930 . S
H1243 C1226 0.930 . S
H1244 C1233 0.930 . S
H1245 C1235 0.930 . S
H1246 C1236 0.930 . S
H1247 C1237 0.930 . S
Eu1248 N1279 2.657 . S
Eu1248 N1286 2.609 . S
Eu1248 O1292 2.558 . S
Eu1248 O1293 2.612 . S
Eu1248 O1295 2.339 . S
Eu1248 O1296 2.563 . S
Eu1248 O1297 2.419 . S
Eu1248 O1299 2.380 . S
Eu1248 O1300 2.432 . S
Eu1248 C1312 2.848 . S
C1249 C1252 1.429 . S
C1249 C1253 1.411 . S
C1249 N1256 1.377 . S
C1250 C1252 1.420 . S
C1250 C1254 1.423 . S
C1250 C1262 1.392 . S
C1251 C1253 1.420 . S
C1251 C1254 1.351 . S
C1251 H1274 0.931 . S
C1252 C1249 1.429 . S
C1252 C1250 1.420 . S
C1252 N1260 1.362 . S
C1253 C1249 1.411 . S
C1253 C1251 1.420 . S
C1253 C1258 1.395 . S
C1254 C1250 1.423 . S
C1254 C1251 1.351 . S
C1254 H1266 0.930 . S
C1255 C1257 1.400 . S
C1255 C1258 1.386 . S
C1255 H1267 0.930 . S
N1256 C1249 1.377 . S
N1256 C1257 1.321 . S
N1256 Eu1259 2.609 . S
C1257 C1255 1.400 . S
C1257 N1256 1.321 . S
C1257 H1264 0.930 . S
C1258 C1253 1.395 . S
C1258 C1255 1.386 . S
C1258 H1277 0.930 . S
Eu1259 N1256 2.609 . S
Eu1259 N1260 2.657 . S
Eu1259 O1293 2.380 . S
Eu1259 O1294 2.432 . S
Eu1259 O1298 2.558 . S
Eu1259 O1299 2.612 . S
Eu1259 O1301 2.339 . S
Eu1259 O1302 2.563 . S
Eu1259 O1303 2.419 . S
Eu1259 C1323 2.848 . S
N1260 C1252 1.362 . S
N1260 Eu1259 2.657 . S
N1260 C1261 1.334 . S
C1261 N1260 1.334 . S
C1261 C1263 1.413 . S
C1261 H1268 0.929 . S
C1262 C1250 1.392 . S
C1262 C1263 1.367 . S
C1262 H1270 0.930 . S
C1263 C1261 1.413 . S
C1263 C1262 1.367 . S
C1263 H1265 0.930 . S
H1264 C1257 0.930 . S
H1265 C1263 0.930 . S
H1266 C1254 0.930 . S
H1267 C1255 0.930 . S
H1268 C1261 0.929 . S
H1269 C1283 0.930 . S
H1270 C1262 0.930 . S
H1271 C1289 0.930 . S
H1272 C1280 0.929 . S
H1273 C1287 0.930 . S
H1274 C1251 0.931 . S
H1275 C1281 0.930 . S
H1276 C1314 0.930 . S
H1277 C1258 0.930 . S
H1278 C1313 0.931 . S
N1279 Eu1248 2.657 . S
N1279 C1280 1.334 . S
N1279 C1284 1.362 . S
C1280 H1272 0.929 . S
C1280 N1279 1.334 . S
C1280 C1283 1.413 . S
C1281 H1275 0.930 . S
C1281 C1282 1.392 . S
C1281 C1283 1.367 . S
C1282 C1281 1.392 . S
C1282 C1284 1.420 . S
C1282 C1314 1.423 . S
C1283 H1269 0.930 . S
C1283 C1280 1.413 . S
C1283 C1281 1.367 . S
C1284 N1279 1.362 . S
C1284 C1282 1.420 . S
C1284 C1288 1.429 . S
H1285 C1290 0.930 . S
N1286 Eu1248 2.609 . S
N1286 C1288 1.377 . S
N1286 C1289 1.321 . S
C1287 H1273 0.930 . S
C1287 C1289 1.400 . S
C1287 C1290 1.386 . S
C1288 C1284 1.429 . S
C1288 N1286 1.377 . S
C1288 C1291 1.411 . S
C1289 H1271 0.930 . S
C1289 N1286 1.321 . S
C1289 C1287 1.400 . S
C1290 H1285 0.930 . S
C1290 C1287 1.386 . S
C1290 C1291 1.395 . S
C1291 C1288 1.411 . S
C1291 C1290 1.395 . S
C1291 C1313 1.420 . S
O1292 Eu1248 2.558 . S
O1292 C1312 1.257 . S
O1293 Eu1248 2.612 . S
O1293 Eu1259 2.380 . S
O1293 C1304 1.276 . S
O1294 Eu1259 2.432 . S
O1294 C1311 1.264 . S
O1295 Eu1248 2.339 . S
O1295 C1311 1.254 . S
O1296 Eu1248 2.563 . S
O1296 C1304 1.235 . S
O1297 Eu1248 2.419 . S
O1297 C1312 1.249 . S
O1298 Eu1259 2.558 . S
O1298 C1323 1.257 . S
O1299 Eu1248 2.380 . S
O1299 Eu1259 2.612 . S
O1299 C1315 1.276 . S
O1300 Eu1248 2.432 . S
O1300 C1322 1.264 . S
O1301 Eu1259 2.339 . S
O1301 C1322 1.254 . S
O1302 Eu1259 2.563 . S
O1302 C1315 1.235 . S
O1303 Eu1259 2.419 . S
O1303 C1323 1.249 . S
C1304 O1293 1.276 . S
C1304 O1296 1.235 . S
C1305 C1307 1.393 . S
C1305 C1309 1.395 . S
C1305 C1312 1.492 . S
C1306 C1307 1.392 . S
C1306 C1308 1.386 . S
C1307 C1305 1.393 . S
C1307 C1306 1.392 . S
C1307 H1324 0.930 . S
C1308 C1306 1.386 . S
C1308 C1310 1.395 . S
C1308 H1325 0.930 . S
C1309 C1305 1.395 . S
C1309 C1310 1.379 . S
C1309 H1326 0.930 . S
C1310 C1308 1.395 . S
C1310 C1309 1.379 . S
C1310 H1327 0.930 . S
C1311 O1294 1.264 . S
C1311 O1295 1.254 . S
C1312 Eu1248 2.848 . S
C1312 O1292 1.257 . S
C1312 O1297 1.249 . S
C1312 C1305 1.492 . S
C1313 H1278 0.931 . S
C1313 C1291 1.420 . S
C1313 C1314 1.351 . S
C1314 H1276 0.930 . S
C1314 C1282 1.423 . S
C1314 C1313 1.351 . S
C1315 O1299 1.276 . S
C1315 O1302 1.235 . S
C1316 C1317 1.393 . S
C1316 C1320 1.395 . S
C1316 C1323 1.492 . S
C1317 C1316 1.393 . S
C1317 C1318 1.392 . S
C1317 H1328 0.930 . S
C1318 C1317 1.392 . S
C1318 C1319 1.386 . S
C1319 C1318 1.386 . S
C1319 C1321 1.395 . S
C1319 H1329 0.930 . S
C1320 C1316 1.395 . S
C1320 C1321 1.379 . S
C1320 H1330 0.930 . S
C1321 C1319 1.395 . S
C1321 C1320 1.379 . S
C1321 H1331 0.930 . S
C1322 O1300 1.264 . S
C1322 O1301 1.254 . S
C1323 Eu1259 2.848 . S
C1323 O1298 1.257 . S
C1323 O1303 1.249 . S
C1323 C1316 1.492 . S
H1324 C1307 0.930 . S
H1325 C1308 0.930 . S
H1326 C1309 0.930 . S
H1327 C1310 0.930 . S
H1328 C1317 0.930 . S
H1329 C1319 0.930 . S
H1330 C1320 0.930 . S
H1331 C1321 0.930 . S
H1332 C1340 0.929 . S
H1333 C1342 0.930 . S
H1334 C1344 0.930 . S
H1335 C1347 0.929 . S
H1336 C1350 0.930 . S
H1337 C1352 0.960 . S
H1338 C1352 0.960 . S
H1339 C1352 0.960 . S
C1340 H1332 0.929 . S
C1340 C1341 1.377 . S
C1340 C1342 1.384 . S
C1341 C1340 1.377 . S
C1341 C1347 1.390 . S
C1342 H1333 0.930 . S
C1342 C1340 1.384 . S
C1342 C1343 1.372 . S
C1343 C1342 1.372 . S
C1343 C1344 1.400 . S
C1343 C1348 1.490 . S
C1344 H1334 0.930 . S
C1344 C1343 1.400 . S
C1344 C1347 1.386 . S
H1345 C1361 0.930 . S
H1346 C1362 0.931 . S
C1347 H1335 0.929 . S
C1347 C1341 1.390 . S
C1347 C1344 1.386 . S
C1348 C1343 1.490 . S
C1348 C1350 1.395 . S
C1348 C1351 1.403 . S
H1349 C1355 0.930 . S
C1350 H1336 0.930 . S
C1350 C1348 1.395 . S
C1350 C1353 1.403 . S
C1351 C1348 1.403 . S
C1351 C1352 1.524 . S
C1351 C1355 1.400 . S
C1352 H1337 0.960 . S
C1352 H1338 0.960 . S
C1352 H1339 0.960 . S
C1352 C1351 1.524 . S
C1353 C1350 1.403 . S
C1353 C1354 1.392 . S
C1353 C1357 1.495 . S
C1354 C1353 1.392 . S
C1354 C1355 1.385 . S
C1354 C1356 1.478 . S
C1355 H1349 0.930 . S
C1355 C1351 1.400 . S
C1355 C1354 1.385 . S
C1356 C1354 1.478 . S
C1356 C1358 1.381 . S
C1356 C1362 1.383 . S
C1357 C1353 1.495 . S
C1357 H1363 0.959 . S
C1357 H1364 0.961 . S
C1357 H1365 0.960 . S
C1358 C1356 1.381 . S
C1358 C1359 1.394 . S
C1358 H1366 0.930 . S
C1359 C1358 1.394 . S
C1359 C1360 1.383 . S
C1359 H1367 0.929 . S
C1360 C1359 1.383 . S
C1360 C1361 1.377 . S
C1361 H1345 0.930 . S
C1361 C1360 1.377 . S
C1361 C1362 1.379 . S
C1362 H1346 0.931 . S
C1362 C1356 1.383 . S
C1362 C1361 1.379 . S
H1363 C1357 0.959 . S
H1364 C1357 0.961 . S
H1365 C1357 0.960 . S
H1366 C1358 0.930 . S
H1367 C1359 0.929 . S
H1368 C1376 0.929 . S
H1369 C1378 0.930 . S
H1370 C1380 0.930 . S
H1371 C1383 0.929 . S
H1372 C1386 0.930 . S
H1373 C1388 0.960 . S
H1374 C1388 0.960 . S
H1375 C1388 0.960 . S
C1376 H1368 0.929 . S
C1376 C1377 1.377 . S
C1376 C1378 1.384 . S
C1377 C1376 1.377 . S
C1377 C1383 1.390 . S
C1378 H1369 0.930 . S
C1378 C1376 1.384 . S
C1378 C1379 1.372 . S
C1379 C1378 1.372 . S
C1379 C1380 1.400 . S
C1379 C1384 1.490 . S
C1380 H1370 0.930 . S
C1380 C1379 1.400 . S
C1380 C1383 1.386 . S
H1381 C1397 0.930 . S
H1382 C1398 0.931 . S
C1383 H1371 0.929 . S
C1383 C1377 1.390 . S
C1383 C1380 1.386 . S
C1384 C1379 1.490 . S
C1384 C1386 1.395 . S
C1384 C1387 1.403 . S
H1385 C1391 0.930 . S
C1386 H1372 0.930 . S
C1386 C1384 1.395 . S
C1386 C1389 1.403 . S
C1387 C1384 1.403 . S
C1387 C1388 1.524 . S
C1387 C1391 1.400 . S
C1388 H1373 0.960 . S
C1388 H1374 0.960 . S
C1388 H1375 0.960 . S
C1388 C1387 1.524 . S
C1389 C1386 1.403 . S
C1389 C1390 1.392 . S
C1389 C1393 1.495 . S
C1390 C1389 1.392 . S
C1390 C1391 1.385 . S
C1390 C1392 1.478 . S
C1391 H1385 0.930 . S
C1391 C1387 1.400 . S
C1391 C1390 1.385 . S
C1392 C1390 1.478 . S
C1392 C1394 1.381 . S
C1392 C1398 1.383 . S
C1393 C1389 1.495 . S
C1393 H1399 0.959 . S
C1393 H1400 0.961 . S
C1393 H1401 0.960 . S
C1394 C1392 1.381 . S
C1394 C1395 1.394 . S
C1394 H1402 0.930 . S
C1395 C1394 1.394 . S
C1395 C1396 1.383 . S
C1395 H1403 0.929 . S
C1396 C1395 1.383 . S
C1396 C1397 1.377 . S
C1397 H1381 0.930 . S
C1397 C1396 1.377 . S
C1397 C1398 1.379 . S
C1398 H1382 0.931 . S
C1398 C1392 1.383 . S
C1398 C1397 1.379 . S
H1399 C1393 0.959 . S
H1400 C1393 0.961 . S
H1401 C1393 0.960 . S
H1402 C1394 0.930 . S
H1403 C1395 0.929 . S
H1404 C1412 0.929 . S
H1405 C1414 0.930 . S
H1406 C1416 0.930 . S
H1407 C1419 0.929 . S
H1408 C1422 0.930 . S
H1409 C1424 0.960 . S
H1410 C1424 0.960 . S
H1411 C1424 0.960 . S
C1412 H1404 0.929 . S
C1412 C1413 1.377 . S
C1412 C1414 1.384 . S
C1413 C1412 1.377 . S
C1413 C1419 1.390 . S
C1414 H1405 0.930 . S
C1414 C1412 1.384 . S
C1414 C1415 1.372 . S
C1415 C1414 1.372 . S
C1415 C1416 1.400 . S
C1415 C1420 1.490 . S
C1416 H1406 0.930 . S
C1416 C1415 1.400 . S
C1416 C1419 1.386 . S
H1417 C1433 0.930 . S
H1418 C1434 0.931 . S
C1419 H1407 0.929 . S
C1419 C1413 1.390 . S
C1419 C1416 1.386 . S
C1420 C1415 1.490 . S
C1420 C1422 1.395 . S
C1420 C1423 1.403 . S
H1421 C1427 0.930 . S
C1422 H1408 0.930 . S
C1422 C1420 1.395 . S
C1422 C1425 1.403 . S
C1423 C1420 1.403 . S
C1423 C1424 1.524 . S
C1423 C1427 1.400 . S
C1424 H1409 0.960 . S
C1424 H1410 0.960 . S
C1424 H1411 0.960 . S
C1424 C1423 1.524 . S
C1425 C1422 1.403 . S
C1425 C1426 1.392 . S
C1425 C1429 1.495 . S
C1426 C1425 1.392 . S
C1426 C1427 1.385 . S
C1426 C1428 1.478 . S
C1427 H1421 0.930 . S
C1427 C1423 1.400 . S
C1427 C1426 1.385 . S
C1428 C1426 1.478 . S
C1428 C1430 1.381 . S
C1428 C1434 1.383 . S
C1429 C1425 1.495 . S
C1429 H1435 0.959 . S
C1429 H1436 0.961 . S
C1429 H1437 0.960 . S
C1430 C1428 1.381 . S
C1430 C1431 1.394 . S
C1430 H1438 0.930 . S
C1431 C1430 1.394 . S
C1431 C1432 1.383 . S
C1431 H1439 0.929 . S
C1432 C1431 1.383 . S
C1432 C1433 1.377 . S
C1433 H1417 0.930 . S
C1433 C1432 1.377 . S
C1433 C1434 1.379 . S
C1434 H1418 0.931 . S
C1434 C1428 1.383 . S
C1434 C1433 1.379 . S
H1435 C1429 0.959 . S
H1436 C1429 0.961 . S
H1437 C1429 0.960 . S
H1438 C1430 0.930 . S
H1439 C1431 0.929 . S
H1440 C1448 0.929 . S
H1441 C1450 0.930 . S
H1442 C1452 0.930 . S
H1443 C1455 0.929 . S
H1444 C1458 0.930 . S
H1445 C1460 0.960 . S
H1446 C1460 0.960 . S
H1447 C1460 0.960 . S
C1448 H1440 0.929 . S
C1448 C1449 1.377 . S
C1448 C1450 1.384 . S
C1449 C1448 1.377 . S
C1449 C1455 1.390 . S
C1450 H1441 0.930 . S
C1450 C1448 1.384 . S
C1450 C1451 1.372 . S
C1451 C1450 1.372 . S
C1451 C1452 1.400 . S
C1451 C1456 1.490 . S
C1452 H1442 0.930 . S
C1452 C1451 1.400 . S
C1452 C1455 1.386 . S
H1453 C1469 0.930 . S
H1454 C1470 0.931 . S
C1455 H1443 0.929 . S
C1455 C1449 1.390 . S
C1455 C1452 1.386 . S
C1456 C1451 1.490 . S
C1456 C1458 1.395 . S
C1456 C1459 1.403 . S
H1457 C1463 0.930 . S
C1458 H1444 0.930 . S
C1458 C1456 1.395 . S
C1458 C1461 1.403 . S
C1459 C1456 1.403 . S
C1459 C1460 1.524 . S
C1459 C1463 1.400 . S
C1460 H1445 0.960 . S
C1460 H1446 0.960 . S
C1460 H1447 0.960 . S
C1460 C1459 1.524 . S
C1461 C1458 1.403 . S
C1461 C1462 1.392 . S
C1461 C1465 1.495 . S
C1462 C1461 1.392 . S
C1462 C1463 1.385 . S
C1462 C1464 1.478 . S
C1463 H1457 0.930 . S
C1463 C1459 1.400 . S
C1463 C1462 1.385 . S
C1464 C1462 1.478 . S
C1464 C1466 1.381 . S
C1464 C1470 1.383 . S
C1465 C1461 1.495 . S
C1465 H1471 0.959 . S
C1465 H1472 0.961 . S
C1465 H1473 0.960 . S
C1466 C1464 1.381 . S
C1466 C1467 1.394 . S
C1466 H1474 0.930 . S
C1467 C1466 1.394 . S
C1467 C1468 1.383 . S
C1467 H1475 0.929 . S
C1468 C1467 1.383 . S
C1468 C1469 1.377 . S
C1469 H1453 0.930 . S
C1469 C1468 1.377 . S
C1469 C1470 1.379 . S
C1470 H1454 0.931 . S
C1470 C1464 1.383 . S
C1470 C1469 1.379 . S
H1471 C1465 0.959 . S
H1472 C1465 0.961 . S
H1473 C1465 0.960 . S
H1474 C1466 0.930 . S
H1475 C1467 0.929 . S
H1476 C1484 0.929 . S
H1477 C1486 0.930 . S
H1478 C1488 0.930 . S
H1479 C1491 0.929 . S
H1480 C1494 0.930 . S
H1481 C1496 0.960 . S
H1482 C1496 0.960 . S
H1483 C1496 0.960 . S
C1484 H1476 0.929 . S
C1484 C1485 1.377 . S
C1484 C1486 1.384 . S
C1485 C1484 1.377 . S
C1485 C1491 1.390 . S
C1486 H1477 0.930 . S
C1486 C1484 1.384 . S
C1486 C1487 1.372 . S
C1487 C1486 1.372 . S
C1487 C1488 1.400 . S
C1487 C1492 1.490 . S
C1488 H1478 0.930 . S
C1488 C1487 1.400 . S
C1488 C1491 1.386 . S
H1489 C1505 0.930 1_554 S
H1490 C1506 0.931 . S
C1491 H1479 0.929 . S
C1491 C1485 1.390 . S
C1491 C1488 1.386 . S
C1492 C1487 1.490 . S
C1492 C1494 1.395 . S
C1492 C1495 1.403 . S
H1493 C1499 0.930 . S
C1494 H1480 0.930 . S
C1494 C1492 1.395 . S
C1494 C1497 1.403 . S
C1495 C1492 1.403 . S
C1495 C1496 1.524 . S
C1495 C1499 1.400 . S
C1496 H1481 0.960 . S
C1496 H1482 0.960 . S
C1496 H1483 0.960 . S
C1496 C1495 1.524 . S
C1497 C1494 1.403 . S
C1497 C1498 1.392 . S
C1497 C1501 1.495 . S
C1498 C1497 1.392 . S
C1498 C1499 1.385 . S
C1498 C1500 1.478 . S
C1499 H1493 0.930 . S
C1499 C1495 1.400 . S
C1499 C1498 1.385 . S
C1500 C1498 1.478 . S
C1500 C1502 1.381 . S
C1500 C1506 1.383 . S
C1501 C1497 1.495 . S
C1501 H1507 0.959 . S
C1501 H1508 0.961 . S
C1501 H1509 0.960 . S
C1502 C1500 1.381 . S
C1502 C1503 1.394 . S
C1502 H1510 0.930 . S
C1503 C1502 1.394 . S
C1503 C1504 1.383 . S
C1503 H1511 0.929 . S
C1504 C1503 1.383 . S
C1504 C1505 1.377 . S
C1505 H1489 0.930 1_556 S
C1505 C1504 1.377 . S
C1505 C1506 1.379 . S
C1506 H1490 0.931 . S
C1506 C1500 1.383 . S
C1506 C1505 1.379 . S
H1507 C1501 0.959 . S
H1508 C1501 0.961 . S
H1509 C1501 0.960 . S
H1510 C1502 0.930 . S
H1511 C1503 0.929 . S
H1512 C1520 0.929 . S
H1513 C1522 0.930 . S
H1514 C1524 0.930 . S
H1515 C1527 0.929 . S
H1516 C1530 0.930 . S
H1517 C1532 0.960 . S
H1518 C1532 0.960 . S
H1519 C1532 0.960 . S
C1520 H1512 0.929 . S
C1520 C1521 1.377 . S
C1520 C1522 1.384 . S
C1521 C1520 1.377 . S
C1521 C1527 1.390 . S
C1522 H1513 0.930 . S
C1522 C1520 1.384 . S
C1522 C1523 1.372 . S
C1523 C1522 1.372 . S
C1523 C1524 1.400 . S
C1523 C1528 1.490 . S
C1524 H1514 0.930 . S
C1524 C1523 1.400 . S
C1524 C1527 1.386 . S
H1525 C1541 0.930 . S
H1526 C1542 0.931 . S
C1527 H1515 0.929 . S
C1527 C1521 1.390 . S
C1527 C1524 1.386 . S
C1528 C1523 1.490 . S
C1528 C1530 1.395 . S
C1528 C1531 1.403 . S
H1529 C1535 0.930 . S
C1530 H1516 0.930 . S
C1530 C1528 1.395 . S
C1530 C1533 1.403 . S
C1531 C1528 1.403 . S
C1531 C1532 1.524 . S
C1531 C1535 1.400 . S
C1532 H1517 0.960 . S
C1532 H1518 0.960 . S
C1532 H1519 0.960 . S
C1532 C1531 1.524 . S
C1533 C1530 1.403 . S
C1533 C1534 1.392 . S
C1533 C1537 1.495 . S
C1534 C1533 1.392 . S
C1534 C1535 1.385 . S
C1534 C1536 1.478 . S
C1535 H1529 0.930 . S
C1535 C1531 1.400 . S
C1535 C1534 1.385 . S
C1536 C1534 1.478 . S
C1536 C1538 1.381 . S
C1536 C1542 1.383 . S
C1537 C1533 1.495 . S
C1537 H1543 0.959 . S
C1537 H1544 0.961 . S
C1537 H1545 0.960 . S
C1538 C1536 1.381 . S
C1538 C1539 1.394 . S
C1538 H1546 0.930 . S
C1539 C1538 1.394 . S
C1539 C1540 1.383 . S
C1539 H1547 0.929 . S
C1540 C1539 1.383 . S
C1540 C1541 1.377 . S
C1541 H1525 0.930 . S
C1541 C1540 1.377 . S
C1541 C1542 1.379 . S
C1542 H1526 0.931 . S
C1542 C1536 1.383 . S
C1542 C1541 1.379 . S
H1543 C1537 0.959 . S
H1544 C1537 0.961 . S
H1545 C1537 0.960 . S
H1546 C1538 0.930 . S
H1547 C1539 0.929 . S
H1548 C1556 0.929 . S
H1549 C1558 0.930 . S
H1550 C1560 0.930 . S
H1551 C1563 0.929 . S
H1552 C1566 0.930 . S
H1553 C1568 0.960 . S
H1554 C1568 0.960 . S
H1555 C1568 0.960 . S
C1556 H1548 0.929 . S
C1556 C1557 1.377 . S
C1556 C1558 1.384 . S
C1557 C1556 1.377 . S
C1557 C1563 1.390 . S
C1558 H1549 0.930 . S
C1558 C1556 1.384 . S
C1558 C1559 1.372 . S
C1559 C1558 1.372 . S
C1559 C1560 1.400 . S
C1559 C1564 1.490 . S
C1560 H1550 0.930 . S
C1560 C1559 1.400 . S
C1560 C1563 1.386 . S
H1561 C1577 0.930 . S
H1562 C1578 0.931 . S
C1563 H1551 0.929 . S
C1563 C1557 1.390 . S
C1563 C1560 1.386 . S
C1564 C1559 1.490 . S
C1564 C1566 1.395 . S
C1564 C1567 1.403 . S
H1565 C1571 0.930 . S
C1566 H1552 0.930 . S
C1566 C1564 1.395 . S
C1566 C1569 1.403 . S
C1567 C1564 1.403 . S
C1567 C1568 1.524 . S
C1567 C1571 1.400 . S
C1568 H1553 0.960 . S
C1568 H1554 0.960 . S
C1568 H1555 0.960 . S
C1568 C1567 1.524 . S
C1569 C1566 1.403 . S
C1569 C1570 1.392 . S
C1569 C1573 1.495 . S
C1570 C1569 1.392 . S
C1570 C1571 1.385 . S
C1570 C1572 1.478 . S
C1571 H1565 0.930 . S
C1571 C1567 1.400 . S
C1571 C1570 1.385 . S
C1572 C1570 1.478 . S
C1572 C1574 1.381 . S
C1572 C1578 1.383 . S
C1573 C1569 1.495 . S
C1573 H1579 0.959 . S
C1573 H1580 0.961 . S
C1573 H1581 0.960 . S
C1574 C1572 1.381 . S
C1574 C1575 1.394 . S
C1574 H1582 0.930 . S
C1575 C1574 1.394 . S
C1575 C1576 1.383 . S
C1575 H1583 0.929 . S
C1576 C1575 1.383 . S
C1576 C1577 1.377 . S
C1577 H1561 0.930 . S
C1577 C1576 1.377 . S
C1577 C1578 1.379 . S
C1578 H1562 0.931 . S
C1578 C1572 1.383 . S
C1578 C1577 1.379 . S
H1579 C1573 0.959 . S
H1580 C1573 0.961 . S
H1581 C1573 0.960 . S
H1582 C1574 0.930 . S
H1583 C1575 0.929 . S
H1584 C1592 0.929 . S
H1585 C1594 0.930 . S
H1586 C1596 0.930 . S
H1587 C1599 0.929 . S
H1588 C1602 0.930 . S
H1589 C1604 0.960 . S
H1590 C1604 0.960 . S
H1591 C1604 0.960 . S
C1592 H1584 0.929 . S
C1592 C1593 1.377 . S
C1592 C1594 1.384 . S
C1593 C1592 1.377 . S
C1593 C1599 1.390 . S
C1594 H1585 0.930 . S
C1594 C1592 1.384 . S
C1594 C1595 1.372 . S
C1595 C1594 1.372 . S
C1595 C1596 1.400 . S
C1595 C1600 1.490 . S
C1596 H1586 0.930 . S
C1596 C1595 1.400 . S
C1596 C1599 1.386 . S
H1597 C1613 0.930 . S
H1598 C1614 0.931 . S
C1599 H1587 0.929 . S
C1599 C1593 1.390 . S
C1599 C1596 1.386 . S
C1600 C1595 1.490 . S
C1600 C1602 1.395 . S
C1600 C1603 1.403 . S
H1601 C1607 0.930 . S
C1602 H1588 0.930 . S
C1602 C1600 1.395 . S
C1602 C1605 1.403 . S
C1603 C1600 1.403 . S
C1603 C1604 1.524 . S
C1603 C1607 1.400 . S
C1604 H1589 0.960 . S
C1604 H1590 0.960 . S
C1604 H1591 0.960 . S
C1604 C1603 1.524 . S
C1605 C1602 1.403 . S
C1605 C1606 1.392 . S
C1605 C1609 1.495 . S
C1606 C1605 1.392 . S
C1606 C1607 1.385 . S
C1606 C1608 1.478 . S
C1607 H1601 0.930 . S
C1607 C1603 1.400 . S
C1607 C1606 1.385 . S
C1608 C1606 1.478 . S
C1608 C1610 1.381 . S
C1608 C1614 1.383 . S
C1609 C1605 1.495 . S
C1609 H1615 0.959 1_556 S
C1609 H1616 0.961 1_556 S
C1609 H1617 0.960 1_556 S
C1610 C1608 1.381 . S
C1610 C1611 1.394 . S
C1610 H1618 0.930 . S
C1611 C1610 1.394 . S
C1611 C1612 1.383 . S
C1611 H1619 0.929 . S
C1612 C1611 1.383 . S
C1612 C1613 1.377 . S
C1613 H1597 0.930 . S
C1613 C1612 1.377 . S
C1613 C1614 1.379 . S
C1614 H1598 0.931 . S
C1614 C1608 1.383 . S
C1614 C1613 1.379 . S
H1615 C1609 0.959 1_554 S
H1616 C1609 0.961 1_554 S
H1617 C1609 0.960 1_554 S
H1618 C1610 0.930 . S
H1619 C1611 0.929 . S
H1620 C1628 0.929 . S
H1621 C1630 0.930 . S
H1622 C1632 0.930 . S
H1623 C1635 0.929 . S
H1624 C1638 0.930 . S
H1625 C1640 0.960 . S
H1626 C1640 0.960 . S
H1627 C1640 0.960 . S
C1628 H1620 0.929 . S
C1628 C1629 1.377 . S
C1628 C1630 1.384 . S
C1629 C1628 1.377 . S
C1629 C1635 1.390 . S
C1630 H1621 0.930 . S
C1630 C1628 1.384 . S
C1630 C1631 1.372 . S
C1631 C1630 1.372 . S
C1631 C1632 1.400 . S
C1631 C1636 1.490 . S
C1632 H1622 0.930 . S
C1632 C1631 1.400 . S
C1632 C1635 1.386 . S
H1633 C1649 0.930 . S
H1634 C1650 0.931 . S
C1635 H1623 0.929 . S
C1635 C1629 1.390 . S
C1635 C1632 1.386 . S
C1636 C1631 1.490 . S
C1636 C1638 1.395 . S
C1636 C1639 1.403 . S
H1637 C1643 0.930 . S
C1638 H1624 0.930 . S
C1638 C1636 1.395 . S
C1638 C1641 1.403 . S
C1639 C1636 1.403 . S
C1639 C1640 1.524 . S
C1639 C1643 1.400 . S
C1640 H1625 0.960 . S
C1640 H1626 0.960 . S
C1640 H1627 0.960 . S
C1640 C1639 1.524 . S
C1641 C1638 1.403 . S
C1641 C1642 1.392 . S
C1641 C1645 1.495 . S
C1642 C1641 1.392 . S
C1642 C1643 1.385 . S
C1642 C1644 1.478 . S
C1643 H1637 0.930 . S
C1643 C1639 1.400 . S
C1643 C1642 1.385 . S
C1644 C1642 1.478 . S
C1644 C1646 1.381 . S
C1644 C1650 1.383 . S
C1645 C1641 1.495 . S
C1645 H1651 0.959 . S
C1645 H1652 0.961 . S
C1645 H1653 0.960 . S
C1646 C1644 1.381 . S
C1646 C1647 1.394 . S
C1646 H1654 0.930 . S
C1647 C1646 1.394 . S
C1647 C1648 1.383 . S
C1647 H1655 0.929 . S
C1648 C1647 1.383 . S
C1648 C1649 1.377 . S
C1649 H1633 0.930 . S
C1649 C1648 1.377 . S
C1649 C1650 1.379 . S
C1650 H1634 0.931 . S
C1650 C1644 1.383 . S
C1650 C1649 1.379 . S
H1651 C1645 0.959 . S
H1652 C1645 0.961 . S
H1653 C1645 0.960 . S
H1654 C1646 0.930 . S
H1655 C1647 0.929 . S
H1656 C1664 0.929 . S
H1657 C1666 0.930 . S
H1658 C1668 0.930 . S
H1659 C1671 0.929 . S
H1660 C1674 0.930 . S
H1661 C1676 0.960 . S
H1662 C1676 0.960 . S
H1663 C1676 0.960 . S
C1664 H1656 0.929 . S
C1664 C1665 1.377 . S
C1664 C1666 1.384 . S
C1665 C1664 1.377 . S
C1665 C1671 1.390 . S
C1666 H1657 0.930 . S
C1666 C1664 1.384 . S
C1666 C1667 1.372 . S
C1667 C1666 1.372 . S
C1667 C1668 1.400 . S
C1667 C1672 1.490 . S
C1668 H1658 0.930 . S
C1668 C1667 1.400 . S
C1668 C1671 1.386 . S
H1669 C1685 0.930 . S
H1670 C1686 0.931 . S
C1671 H1659 0.929 . S
C1671 C1665 1.390 . S
C1671 C1668 1.386 . S
C1672 C1667 1.490 . S
C1672 C1674 1.395 . S
C1672 C1675 1.403 . S
H1673 C1679 0.930 . S
C1674 H1660 0.930 . S
C1674 C1672 1.395 . S
C1674 C1677 1.403 . S
C1675 C1672 1.403 . S
C1675 C1676 1.524 . S
C1675 C1679 1.400 . S
C1676 H1661 0.960 . S
C1676 H1662 0.960 . S
C1676 H1663 0.960 . S
C1676 C1675 1.524 . S
C1677 C1674 1.403 . S
C1677 C1678 1.392 . S
C1677 C1681 1.495 . S
C1678 C1677 1.392 . S
C1678 C1679 1.385 . S
C1678 C1680 1.478 . S
C1679 H1673 0.930 . S
C1679 C1675 1.400 . S
C1679 C1678 1.385 . S
C1680 C1678 1.478 . S
C1680 C1682 1.381 . S
C1680 C1686 1.383 . S
C1681 C1677 1.495 . S
C1681 H1687 0.959 . S
C1681 H1688 0.961 . S
C1681 H1689 0.960 . S
C1682 C1680 1.381 . S
C1682 C1683 1.394 . S
C1682 H1690 0.930 . S
C1683 C1682 1.394 . S
C1683 C1684 1.383 . S
C1683 H1691 0.929 . S
C1684 C1683 1.383 . S
C1684 C1685 1.377 . S
C1685 H1669 0.930 . S
C1685 C1684 1.377 . S
C1685 C1686 1.379 . S
C1686 H1670 0.931 . S
C1686 C1680 1.383 . S
C1686 C1685 1.379 . S
H1687 C1681 0.959 . S
H1688 C1681 0.961 . S
H1689 C1681 0.960 . S
H1690 C1682 0.930 . S
H1691 C1683 0.929 . S
H1692 C1700 0.929 . S
H1693 C1702 0.930 . S
H1694 C1704 0.930 . S
H1695 C1707 0.929 . S
H1696 C1710 0.930 . S
H1697 C1712 0.960 . S
H1698 C1712 0.960 . S
H1699 C1712 0.960 . S
C1700 H1692 0.929 . S
C1700 C1701 1.377 . S
C1700 C1702 1.384 . S
C1701 C1700 1.377 . S
C1701 C1707 1.390 . S
C1702 H1693 0.930 . S
C1702 C1700 1.384 . S
C1702 C1703 1.372 . S
C1703 C1702 1.372 . S
C1703 C1704 1.400 . S
C1703 C1708 1.490 . S
C1704 H1694 0.930 . S
C1704 C1703 1.400 . S
C1704 C1707 1.386 . S
H1705 C1721 0.930 . S
H1706 C1722 0.931 . S
C1707 H1695 0.929 . S
C1707 C1701 1.390 . S
C1707 C1704 1.386 . S
C1708 C1703 1.490 . S
C1708 C1710 1.395 . S
C1708 C1711 1.403 . S
H1709 C1715 0.930 . S
C1710 H1696 0.930 . S
C1710 C1708 1.395 . S
C1710 C1713 1.403 . S
C1711 C1708 1.403 . S
C1711 C1712 1.524 . S
C1711 C1715 1.400 . S
C1712 H1697 0.960 . S
C1712 H1698 0.960 . S
C1712 H1699 0.960 . S
C1712 C1711 1.524 . S
C1713 C1710 1.403 . S
C1713 C1714 1.392 . S
C1713 C1717 1.495 . S
C1714 C1713 1.392 . S
C1714 C1715 1.385 . S
C1714 C1716 1.478 . S
C1715 H1709 0.930 . S
C1715 C1711 1.400 . S
C1715 C1714 1.385 . S
C1716 C1714 1.478 . S
C1716 C1718 1.381 . S
C1716 C1722 1.383 . S
C1717 C1713 1.495 . S
C1717 H1723 0.959 . S
C1717 H1724 0.961 . S
C1717 H1725 0.960 . S
C1718 C1716 1.381 . S
C1718 C1719 1.394 . S
C1718 H1726 0.930 . S
C1719 C1718 1.394 . S
C1719 C1720 1.383 . S
C1719 H1727 0.929 . S
C1720 C1719 1.383 . S
C1720 C1721 1.377 . S
C1721 H1705 0.930 . S
C1721 C1720 1.377 . S
C1721 C1722 1.379 . S
C1722 H1706 0.931 . S
C1722 C1716 1.383 . S
C1722 C1721 1.379 . S
H1723 C1717 0.959 . S
H1724 C1717 0.961 . S
H1725 C1717 0.960 . S
H1726 C1718 0.930 . S
H1727 C1719 0.929 . S
H1728 C1736 0.929 . S
H1729 C1738 0.930 . S
H1730 C1740 0.930 . S
H1731 C1743 0.929 . S
H1732 C1746 0.930 . S
H1733 C1748 0.960 . S
H1734 C1748 0.960 . S
H1735 C1748 0.960 . S
C1736 H1728 0.929 . S
C1736 C1737 1.377 . S
C1736 C1738 1.384 . S
C1737 C1736 1.377 . S
C1737 C1743 1.390 . S
C1738 H1729 0.930 . S
C1738 C1736 1.384 . S
C1738 C1739 1.372 . S
C1739 C1738 1.372 . S
C1739 C1740 1.400 . S
C1739 C1744 1.490 . S
C1740 H1730 0.930 . S
C1740 C1739 1.400 . S
C1740 C1743 1.386 . S
H1741 C1757 0.930 . S
H1742 C1758 0.931 . S
C1743 H1731 0.929 . S
C1743 C1737 1.390 . S
C1743 C1740 1.386 . S
C1744 C1739 1.490 . S
C1744 C1746 1.395 . S
C1744 C1747 1.403 . S
H1745 C1751 0.930 . S
C1746 H1732 0.930 . S
C1746 C1744 1.395 . S
C1746 C1749 1.403 . S
C1747 C1744 1.403 . S
C1747 C1748 1.524 . S
C1747 C1751 1.400 . S
C1748 H1733 0.960 . S
C1748 H1734 0.960 . S
C1748 H1735 0.960 . S
C1748 C1747 1.524 . S
C1749 C1746 1.403 . S
C1749 C1750 1.392 . S
C1749 C1753 1.495 . S
C1750 C1749 1.392 . S
C1750 C1751 1.385 . S
C1750 C1752 1.478 . S
C1751 H1745 0.930 . S
C1751 C1747 1.400 . S
C1751 C1750 1.385 . S
C1752 C1750 1.478 . S
C1752 C1754 1.381 . S
C1752 C1758 1.383 . S
C1753 C1749 1.495 . S
C1753 H1759 0.959 . S
C1753 H1760 0.961 . S
C1753 H1761 0.960 . S
C1754 C1752 1.381 . S
C1754 C1755 1.394 . S
C1754 H1762 0.930 . S
C1755 C1754 1.394 . S
C1755 C1756 1.383 . S
C1755 H1763 0.929 . S
C1756 C1755 1.383 . S
C1756 C1757 1.377 . S
C1757 H1741 0.930 . S
C1757 C1756 1.377 . S
C1757 C1758 1.379 . S
C1758 H1742 0.931 . S
C1758 C1752 1.383 . S
C1758 C1757 1.379 . S
H1759 C1753 0.959 . S
H1760 C1753 0.961 . S
H1761 C1753 0.960 . S
H1762 C1754 0.930 . S
H1763 C1755 0.929 . S
H1764 C1772 0.929 . S
H1765 C1774 0.930 1_455 S
H1766 C1776 0.930 . S
H1767 C1779 0.929 . S
H1768 C1782 0.930 . S
H1769 C1784 0.960 . S
H1770 C1784 0.960 . S
H1771 C1784 0.960 1_655 S
C1772 H1764 0.929 . S
C1772 C1773 1.377 . S
C1772 C1774 1.384 . S
C1773 C1772 1.377 . S
C1773 C1779 1.390 . S
C1774 H1765 0.930 1_655 S
C1774 C1772 1.384 . S
C1774 C1775 1.372 . S
C1775 C1774 1.372 . S
C1775 C1776 1.400 . S
C1775 C1780 1.490 1_655 S
C1776 H1766 0.930 . S
C1776 C1775 1.400 . S
C1776 C1779 1.386 . S
H1777 C1793 0.930 . S
H1778 C1794 0.931 . S
C1779 H1767 0.929 . S
C1779 C1773 1.390 . S
C1779 C1776 1.386 . S
C1780 C1775 1.490 1_455 S
C1780 C1782 1.395 . S
C1780 C1783 1.403 . S
H1781 C1787 0.930 . S
C1782 H1768 0.930 . S
C1782 C1780 1.395 . S
C1782 C1785 1.403 . S
C1783 C1780 1.403 . S
C1783 C1784 1.524 . S
C1783 C1787 1.400 . S
C1784 H1769 0.960 . S
C1784 H1770 0.960 . S
C1784 H1771 0.960 1_455 S
C1784 C1783 1.524 . S
C1785 C1782 1.403 . S
C1785 C1786 1.392 . S
C1785 C1789 1.495 . S
C1786 C1785 1.392 . S
C1786 C1787 1.385 . S
C1786 C1788 1.478 . S
C1787 H1781 0.930 . S
C1787 C1783 1.400 . S
C1787 C1786 1.385 . S
C1788 C1786 1.478 . S
C1788 C1790 1.381 . S
C1788 C1794 1.383 . S
C1789 C1785 1.495 . S
C1789 H1795 0.959 . S
C1789 H1796 0.961 . S
C1789 H1797 0.960 . S
C1790 C1788 1.381 . S
C1790 C1791 1.394 . S
C1790 H1798 0.930 . S
C1791 C1790 1.394 . S
C1791 C1792 1.383 . S
C1791 H1799 0.929 . S
C1792 C1791 1.383 . S
C1792 C1793 1.377 . S
C1793 H1777 0.930 . S
C1793 C1792 1.377 . S
C1793 C1794 1.379 . S
C1794 H1778 0.931 . S
C1794 C1788 1.383 . S
C1794 C1793 1.379 . S
H1795 C1789 0.959 . S
H1796 C1789 0.961 . S
H1797 C1789 0.960 . S
H1798 C1790 0.930 . S
H1799 C1791 0.929 . S
H1800 C1808 0.929 . S
H1801 C1810 0.930 . S
H1802 C1812 0.930 . S
H1803 C1815 0.929 . S
H1804 C1818 0.930 . S
H1805 C1820 0.960 . S
H1806 C1820 0.960 . S
H1807 C1820 0.960 . S
C1808 H1800 0.929 . S
C1808 C1809 1.377 . S
C1808 C1810 1.384 . S
C1809 C1808 1.377 . S
C1809 C1815 1.390 . S
C1810 H1801 0.930 . S
C1810 C1808 1.384 . S
C1810 C1811 1.372 . S
C1811 C1810 1.372 . S
C1811 C1812 1.400 . S
C1811 C1816 1.490 . S
C1812 H1802 0.930 . S
C1812 C1811 1.400 . S
C1812 C1815 1.386 . S
H1813 C1829 0.930 . S
H1814 C1830 0.931 . S
C1815 H1803 0.929 . S
C1815 C1809 1.390 . S
C1815 C1812 1.386 . S
C1816 C1811 1.490 . S
C1816 C1818 1.395 . S
C1816 C1819 1.403 . S
H1817 C1823 0.930 . S
C1818 H1804 0.930 . S
C1818 C1816 1.395 . S
C1818 C1821 1.403 . S
C1819 C1816 1.403 . S
C1819 C1820 1.524 . S
C1819 C1823 1.400 . S
C1820 H1805 0.960 . S
C1820 H1806 0.960 . S
C1820 H1807 0.960 . S
C1820 C1819 1.524 . S
C1821 C1818 1.403 . S
C1821 C1822 1.392 . S
C1821 C1825 1.495 . S
C1822 C1821 1.392 . S
C1822 C1823 1.385 . S
C1822 C1824 1.478 . S
C1823 H1817 0.930 . S
C1823 C1819 1.400 . S
C1823 C1822 1.385 . S
C1824 C1822 1.478 . S
C1824 C1826 1.381 . S
C1824 C1830 1.383 . S
C1825 C1821 1.495 . S
C1825 H1831 0.959 . S
C1825 H1832 0.961 . S
C1825 H1833 0.960 . S
C1826 C1824 1.381 . S
C1826 C1827 1.394 . S
C1826 H1834 0.930 . S
C1827 C1826 1.394 . S
C1827 C1828 1.383 . S
C1827 H1835 0.929 . S
C1828 C1827 1.383 . S
C1828 C1829 1.377 . S
C1829 H1813 0.930 . S
C1829 C1828 1.377 . S
C1829 C1830 1.379 . S
C1830 H1814 0.931 . S
C1830 C1824 1.383 . S
C1830 C1829 1.379 . S
H1831 C1825 0.959 . S
H1832 C1825 0.961 . S
H1833 C1825 0.960 . S
H1834 C1826 0.930 . S
H1835 C1827 0.929 . S
H1836 C1844 0.929 . S
H1837 C1846 0.930 . S
H1838 C1848 0.930 . S
H1839 C1851 0.929 . S
H1840 C1854 0.930 . S
H1841 C1856 0.960 . S
H1842 C1856 0.960 . S
H1843 C1856 0.960 . S
C1844 H1836 0.929 . S
C1844 C1845 1.377 . S
C1844 C1846 1.384 . S
C1845 C1844 1.377 . S
C1845 C1851 1.390 . S
C1846 H1837 0.930 . S
C1846 C1844 1.384 . S
C1846 C1847 1.372 . S
C1847 C1846 1.372 . S
C1847 C1848 1.400 . S
C1847 C1852 1.490 1_545 S
C1848 H1838 0.930 . S
C1848 C1847 1.400 . S
C1848 C1851 1.386 . S
H1849 C1865 0.930 . S
H1850 C1866 0.931 . S
C1851 H1839 0.929 . S
C1851 C1845 1.390 . S
C1851 C1848 1.386 . S
C1852 C1847 1.490 1_565 S
C1852 C1854 1.395 . S
C1852 C1855 1.403 . S
H1853 C1859 0.930 . S
C1854 H1840 0.930 . S
C1854 C1852 1.395 . S
C1854 C1857 1.403 . S
C1855 C1852 1.403 . S
C1855 C1856 1.524 . S
C1855 C1859 1.400 . S
C1856 H1841 0.960 . S
C1856 H1842 0.960 . S
C1856 H1843 0.960 . S
C1856 C1855 1.524 . S
C1857 C1854 1.403 . S
C1857 C1858 1.392 . S
C1857 C1861 1.495 . S
C1858 C1857 1.392 . S
C1858 C1859 1.385 . S
C1858 C1860 1.478 . S
C1859 H1853 0.930 . S
C1859 C1855 1.400 . S
C1859 C1858 1.385 . S
C1860 C1858 1.478 . S
C1860 C1862 1.381 . S
C1860 C1866 1.383 . S
C1861 C1857 1.495 . S
C1861 H1867 0.959 . S
C1861 H1868 0.961 . S
C1861 H1869 0.960 . S
C1862 C1860 1.381 . S
C1862 C1863 1.394 . S
C1862 H1870 0.930 . S
C1863 C1862 1.394 . S
C1863 C1864 1.383 . S
C1863 H1871 0.929 . S
C1864 C1863 1.383 . S
C1864 C1865 1.377 . S
C1865 H1849 0.930 . S
C1865 C1864 1.377 . S
C1865 C1866 1.379 . S
C1866 H1850 0.931 . S
C1866 C1860 1.383 . S
C1866 C1865 1.379 . S
H1867 C1861 0.959 . S
H1868 C1861 0.961 . S
H1869 C1861 0.960 . S
H1870 C1862 0.930 . S
H1871 C1863 0.929 . S
H1872 C1880 0.929 . S
H1873 C1882 0.930 . S
H1874 C1884 0.930 . S
H1875 C1887 0.929 . S
H1876 C1890 0.930 . S
H1877 C1892 0.960 . S
H1878 C1892 0.960 . S
H1879 C1892 0.960 . S
C1880 H1872 0.929 . S
C1880 C1881 1.377 . S
C1880 C1882 1.384 . S
C1881 C1880 1.377 . S
C1881 C1887 1.390 . S
C1882 H1873 0.930 . S
C1882 C1880 1.384 . S
C1882 C1883 1.372 . S
C1883 C1882 1.372 . S
C1883 C1884 1.400 . S
C1883 C1888 1.490 . S
C1884 H1874 0.930 . S
C1884 C1883 1.400 . S
C1884 C1887 1.386 . S
H1885 C1901 0.930 . S
H1886 C1902 0.931 . S
C1887 H1875 0.929 . S
C1887 C1881 1.390 . S
C1887 C1884 1.386 . S
C1888 C1883 1.490 . S
C1888 C1890 1.395 . S
C1888 C1891 1.403 . S
H1889 C1895 0.930 . S
C1890 H1876 0.930 . S
C1890 C1888 1.395 . S
C1890 C1893 1.403 . S
C1891 C1888 1.403 . S
C1891 C1892 1.524 . S
C1891 C1895 1.400 . S
C1892 H1877 0.960 . S
C1892 H1878 0.960 . S
C1892 H1879 0.960 . S
C1892 C1891 1.524 . S
C1893 C1890 1.403 . S
C1893 C1894 1.392 . S
C1893 C1897 1.495 . S
C1894 C1893 1.392 . S
C1894 C1895 1.385 . S
C1894 C1896 1.478 . S
C1895 H1889 0.930 . S
C1895 C1891 1.400 . S
C1895 C1894 1.385 . S
C1896 C1894 1.478 . S
C1896 C1898 1.381 . S
C1896 C1902 1.383 . S
C1897 C1893 1.495 . S
C1897 H1903 0.959 . S
C1897 H1904 0.961 . S
C1897 H1905 0.960 . S
C1898 C1896 1.381 . S
C1898 C1899 1.394 . S
C1898 H1906 0.930 . S
C1899 C1898 1.394 . S
C1899 C1900 1.383 . S
C1899 H1907 0.929 . S
C1900 C1899 1.383 . S
C1900 C1901 1.377 . S
C1901 H1885 0.930 . S
C1901 C1900 1.377 . S
C1901 C1902 1.379 . S
C1902 H1886 0.931 . S
C1902 C1896 1.383 . S
C1902 C1901 1.379 . S
H1903 C1897 0.959 . S
H1904 C1897 0.961 . S
H1905 C1897 0.960 . S
H1906 C1898 0.930 . S
H1907 C1899 0.929 . S
H1908 C1916 0.929 . S
H1909 C1918 0.930 . S
H1910 C1920 0.930 . S
H1911 C1923 0.929 . S
H1912 C1926 0.930 . S
H1913 C1928 0.960 . S
H1914 C1928 0.960 . S
H1915 C1928 0.960 . S
C1916 H1908 0.929 . S
C1916 C1917 1.377 . S
C1916 C1918 1.384 . S
C1917 C1916 1.377 . S
C1917 C1923 1.390 . S
C1918 H1909 0.930 . S
C1918 C1916 1.384 . S
C1918 C1919 1.372 . S
C1919 C1918 1.372 . S
C1919 C1920 1.400 . S
C1919 C1924 1.490 . S
C1920 H1910 0.930 . S
C1920 C1919 1.400 . S
C1920 C1923 1.386 . S
H1921 C1937 0.930 . S
H1922 C1938 0.931 . S
C1923 H1911 0.929 . S
C1923 C1917 1.390 . S
C1923 C1920 1.386 . S
C1924 C1919 1.490 . S
C1924 C1926 1.395 . S
C1924 C1927 1.403 . S
H1925 C1931 0.930 . S
C1926 H1912 0.930 . S
C1926 C1924 1.395 . S
C1926 C1929 1.403 . S
C1927 C1924 1.403 . S
C1927 C1928 1.524 . S
C1927 C1931 1.400 . S
C1928 H1913 0.960 . S
C1928 H1914 0.960 . S
C1928 H1915 0.960 . S
C1928 C1927 1.524 . S
C1929 C1926 1.403 . S
C1929 C1930 1.392 . S
C1929 C1933 1.495 . S
C1930 C1929 1.392 . S
C1930 C1931 1.385 . S
C1930 C1932 1.478 . S
C1931 H1925 0.930 . S
C1931 C1927 1.400 . S
C1931 C1930 1.385 . S
C1932 C1930 1.478 . S
C1932 C1934 1.381 . S
C1932 C1938 1.383 . S
C1933 C1929 1.495 . S
C1933 H1939 0.959 . S
C1933 H1940 0.961 . S
C1933 H1941 0.960 . S
C1934 C1932 1.381 . S
C1934 C1935 1.394 . S
C1934 H1942 0.930 . S
C1935 C1934 1.394 . S
C1935 C1936 1.383 . S
C1935 H1943 0.929 . S
C1936 C1935 1.383 . S
C1936 C1937 1.377 . S
C1937 H1921 0.930 . S
C1937 C1936 1.377 . S
C1937 C1938 1.379 . S
C1938 H1922 0.931 . S
C1938 C1932 1.383 . S
C1938 C1937 1.379 . S
H1939 C1933 0.959 . S
H1940 C1933 0.961 . S
H1941 C1933 0.960 . S
H1942 C1934 0.930 . S
H1943 C1935 0.929 . S
H1944 C1952 0.929 . S
H1945 C1954 0.930 . S
H1946 C1956 0.930 . S
H1947 C1959 0.929 . S
H1948 C1962 0.930 . S
H1949 C1964 0.960 . S
H1950 C1964 0.960 . S
H1951 C1964 0.960 . S
C1952 H1944 0.929 . S
C1952 C1953 1.377 . S
C1952 C1954 1.384 . S
C1953 C1952 1.377 . S
C1953 C1959 1.390 . S
C1954 H1945 0.930 . S
C1954 C1952 1.384 . S
C1954 C1955 1.372 . S
C1955 C1954 1.372 . S
C1955 C1956 1.400 . S
C1955 C1960 1.490 . S
C1956 H1946 0.930 . S
C1956 C1955 1.400 . S
C1956 C1959 1.386 . S
H1957 C1973 0.930 . S
H1958 C1974 0.931 . S
C1959 H1947 0.929 . S
C1959 C1953 1.390 . S
C1959 C1956 1.386 . S
C1960 C1955 1.490 . S
C1960 C1962 1.395 . S
C1960 C1963 1.403 . S
H1961 C1967 0.930 . S
C1962 H1948 0.930 . S
C1962 C1960 1.395 . S
C1962 C1965 1.403 . S
C1963 C1960 1.403 . S
C1963 C1964 1.524 . S
C1963 C1967 1.400 . S
C1964 H1949 0.960 . S
C1964 H1950 0.960 . S
C1964 H1951 0.960 . S
C1964 C1963 1.524 . S
C1965 C1962 1.403 . S
C1965 C1966 1.392 . S
C1965 C1969 1.495 . S
C1966 C1965 1.392 . S
C1966 C1967 1.385 . S
C1966 C1968 1.478 . S
C1967 H1961 0.930 . S
C1967 C1963 1.400 . S
C1967 C1966 1.385 . S
C1968 C1966 1.478 . S
C1968 C1970 1.381 . S
C1968 C1974 1.383 . S
C1969 C1965 1.495 . S
C1969 H1975 0.959 . S
C1969 H1976 0.961 . S
C1969 H1977 0.960 . S
C1970 C1968 1.381 . S
C1970 C1971 1.394 . S
C1970 H1978 0.930 . S
C1971 C1970 1.394 . S
C1971 C1972 1.383 . S
C1971 H1979 0.929 . S
C1972 C1971 1.383 . S
C1972 C1973 1.377 . S
C1973 H1957 0.930 . S
C1973 C1972 1.377 . S
C1973 C1974 1.379 . S
C1974 H1958 0.931 . S
C1974 C1968 1.383 . S
C1974 C1973 1.379 . S
H1975 C1969 0.959 . S
H1976 C1969 0.961 . S
H1977 C1969 0.960 . S
H1978 C1970 0.930 . S
H1979 C1971 0.929 . S
H1980 C1988 0.929 . S
H1981 C1990 0.930 . S
H1982 C1992 0.930 . S
H1983 C1995 0.929 . S
H1984 C1998 0.930 . S
H1985 C2000 0.960 . S
H1986 C2000 0.960 . S
H1987 C2000 0.960 . S
C1988 H1980 0.929 . S
C1988 C1989 1.377 . S
C1988 C1990 1.384 . S
C1989 C1988 1.377 . S
C1989 C1995 1.390 . S
C1990 H1981 0.930 . S
C1990 C1988 1.384 . S
C1990 C1991 1.372 . S
C1991 C1990 1.372 . S
C1991 C1992 1.400 . S
C1991 C1996 1.490 . S
C1992 H1982 0.930 . S
C1992 C1991 1.400 . S
C1992 C1995 1.386 . S
H1993 C2009 0.930 . S
H1994 C2010 0.931 . S
C1995 H1983 0.929 . S
C1995 C1989 1.390 . S
C1995 C1992 1.386 . S
C1996 C1991 1.490 . S
C1996 C1998 1.395 . S
C1996 C1999 1.403 . S
H1997 C2003 0.930 . S
C1998 H1984 0.930 . S
C1998 C1996 1.395 . S
C1998 C2001 1.403 . S
C1999 C1996 1.403 . S
C1999 C2000 1.524 . S
C1999 C2003 1.400 . S
C2000 H1985 0.960 . S
C2000 H1986 0.960 . S
C2000 H1987 0.960 . S
C2000 C1999 1.524 . S
C2001 C1998 1.403 . S
C2001 C2002 1.392 . S
C2001 C2005 1.495 . S
C2002 C2001 1.392 . S
C2002 C2003 1.385 . S
C2002 C2004 1.478 . S
C2003 H1997 0.930 . S
C2003 C1999 1.400 . S
C2003 C2002 1.385 . S
C2004 C2002 1.478 . S
C2004 C2006 1.381 . S
C2004 C2010 1.383 . S
C2005 C2001 1.495 . S
C2005 H2011 0.959 . S
C2005 H2012 0.961 . S
C2005 H2013 0.960 . S
C2006 C2004 1.381 . S
C2006 C2007 1.394 . S
C2006 H2014 0.930 . S
C2007 C2006 1.394 . S
C2007 C2008 1.383 . S
C2007 H2015 0.929 . S
C2008 C2007 1.383 . S
C2008 C2009 1.377 . S
C2009 H1993 0.930 . S
C2009 C2008 1.377 . S
C2009 C2010 1.379 . S
C2010 H1994 0.931 . S
C2010 C2004 1.383 . S
C2010 C2009 1.379 . S
H2011 C2005 0.959 . S
H2012 C2005 0.961 . S
H2013 C2005 0.960 . S
H2014 C2006 0.930 . S
H2015 C2007 0.929 . S
H2016 C2024 0.929 . S
H2017 C2026 0.930 . S
H2018 C2028 0.930 . S
H2019 C2031 0.929 . S
H2020 C2034 0.930 . S
H2021 C2036 0.960 . S
H2022 C2036 0.960 . S
H2023 C2036 0.960 . S
C2024 H2016 0.929 . S
C2024 C2025 1.377 . S
C2024 C2026 1.384 . S
C2025 C2024 1.377 . S
C2025 C2031 1.390 . S
C2026 H2017 0.930 . S
C2026 C2024 1.384 . S
C2026 C2027 1.372 . S
C2027 C2026 1.372 . S
C2027 C2028 1.400 . S
C2027 C2032 1.490 . S
C2028 H2018 0.930 . S
C2028 C2027 1.400 . S
C2028 C2031 1.386 . S
H2029 C2045 0.930 . S
H2030 C2046 0.931 . S
C2031 H2019 0.929 . S
C2031 C2025 1.390 . S
C2031 C2028 1.386 . S
C2032 C2027 1.490 . S
C2032 C2034 1.395 . S
C2032 C2035 1.403 . S
H2033 C2039 0.930 . S
C2034 H2020 0.930 . S
C2034 C2032 1.395 . S
C2034 C2037 1.403 . S
C2035 C2032 1.403 . S
C2035 C2036 1.524 . S
C2035 C2039 1.400 . S
C2036 H2021 0.960 . S
C2036 H2022 0.960 . S
C2036 H2023 0.960 . S
C2036 C2035 1.524 . S
C2037 C2034 1.403 . S
C2037 C2038 1.392 . S
C2037 C2041 1.495 . S
C2038 C2037 1.392 . S
C2038 C2039 1.385 . S
C2038 C2040 1.478 . S
C2039 H2033 0.930 . S
C2039 C2035 1.400 . S
C2039 C2038 1.385 . S
C2040 C2038 1.478 . S
C2040 C2042 1.381 . S
C2040 C2046 1.383 . S
C2041 C2037 1.495 . S
C2041 H2047 0.959 . S
C2041 H2048 0.961 . S
C2041 H2049 0.960 . S
C2042 C2040 1.381 . S
C2042 C2043 1.394 . S
C2042 H2050 0.930 . S
C2043 C2042 1.394 . S
C2043 C2044 1.383 . S
C2043 H2051 0.929 . S
C2044 C2043 1.383 . S
C2044 C2045 1.377 . S
C2045 H2029 0.930 . S
C2045 C2044 1.377 . S
C2045 C2046 1.379 . S
C2046 H2030 0.931 . S
C2046 C2040 1.383 . S
C2046 C2045 1.379 . S
H2047 C2041 0.959 . S
H2048 C2041 0.961 . S
H2049 C2041 0.960 . S
H2050 C2042 0.930 . S
H2051 C2043 0.929 . S
H2052 C2060 0.929 . S
H2053 C2062 0.930 . S
H2054 C2064 0.930 . S
H2055 C2067 0.929 . S
H2056 C2070 0.930 . S
H2057 C2072 0.960 . S
H2058 C2072 0.960 . S
H2059 C2072 0.960 . S
C2060 H2052 0.929 . S
C2060 C2061 1.377 . S
C2060 C2062 1.384 . S
C2061 C2060 1.377 . S
C2061 C2067 1.390 . S
C2062 H2053 0.930 . S
C2062 C2060 1.384 . S
C2062 C2063 1.372 . S
C2063 C2062 1.372 . S
C2063 C2064 1.400 . S
C2063 C2068 1.490 . S
C2064 H2054 0.930 . S
C2064 C2063 1.400 . S
C2064 C2067 1.386 . S
H2065 C2081 0.930 . S
H2066 C2082 0.931 . S
C2067 H2055 0.929 . S
C2067 C2061 1.390 . S
C2067 C2064 1.386 . S
C2068 C2063 1.490 . S
C2068 C2070 1.395 . S
C2068 C2071 1.403 . S
H2069 C2075 0.930 . S
C2070 H2056 0.930 . S
C2070 C2068 1.395 . S
C2070 C2073 1.403 . S
C2071 C2068 1.403 . S
C2071 C2072 1.524 . S
C2071 C2075 1.400 . S
C2072 H2057 0.960 . S
C2072 H2058 0.960 . S
C2072 H2059 0.960 . S
C2072 C2071 1.524 . S
C2073 C2070 1.403 . S
C2073 C2074 1.392 . S
C2073 C2077 1.495 . S
C2074 C2073 1.392 . S
C2074 C2075 1.385 . S
C2074 C2076 1.478 . S
C2075 H2069 0.930 . S
C2075 C2071 1.400 . S
C2075 C2074 1.385 . S
C2076 C2074 1.478 . S
C2076 C2078 1.381 . S
C2076 C2082 1.383 . S
C2077 C2073 1.495 . S
C2077 H2083 0.959 . S
C2077 H2084 0.961 . S
C2077 H2085 0.960 . S
C2078 C2076 1.381 . S
C2078 C2079 1.394 . S
C2078 H2086 0.930 . S
C2079 C2078 1.394 . S
C2079 C2080 1.383 . S
C2079 H2087 0.929 . S
C2080 C2079 1.383 . S
C2080 C2081 1.377 . S
C2081 H2065 0.930 . S
C2081 C2080 1.377 . S
C2081 C2082 1.379 . S
C2082 H2066 0.931 . S
C2082 C2076 1.383 . S
C2082 C2081 1.379 . S
H2083 C2077 0.959 . S
H2084 C2077 0.961 . S
H2085 C2077 0.960 . S
H2086 C2078 0.930 . S
H2087 C2079 0.929 . S
H2088 C2096 0.929 . S
H2089 C2098 0.930 . S
H2090 C2100 0.930 . S
H2091 C2103 0.929 . S
H2092 C2106 0.930 . S
H2093 C2108 0.960 . S
H2094 C2108 0.945 1_545 S
H2095 C2108 0.945 1_545 S
C2096 H2088 0.929 . S
C2096 C2097 1.377 . S
C2096 C2098 1.384 . S
C2097 C2096 1.377 . S
C2097 C2103 1.390 . S
C2098 H2089 0.930 . S
C2098 C2096 1.384 . S
C2098 C2099 1.372 . S
C2099 C2098 1.372 . S
C2099 C2100 1.400 . S
C2099 C2104 1.490 1_545 S
C2100 H2090 0.930 . S
C2100 C2099 1.400 . S
C2100 C2103 1.386 . S
H2101 C2117 0.930 . S
H2102 C2118 0.931 . S
C2103 H2091 0.929 . S
C2103 C2097 1.390 . S
C2103 C2100 1.386 . S
C2104 C2099 1.490 1_565 S
C2104 C2106 1.395 . S
C2104 C2107 1.403 . S
H2105 C2111 0.930 . S
C2106 H2092 0.930 . S
C2106 C2104 1.395 . S
C2106 C2109 1.403 . S
C2107 C2104 1.403 . S
C2107 C2108 1.556 . S
C2107 C2111 1.400 . S
C2108 H2093 0.960 . S
C2108 H2094 0.945 1_565 S
C2108 H2095 0.945 1_565 S
C2108 C2107 1.556 . S
C2109 C2106 1.403 . S
C2109 C2110 1.392 . S
C2109 C2113 1.495 . S
C2110 C2109 1.392 . S
C2110 C2111 1.385 . S
C2110 C2112 1.478 . S
C2111 H2105 0.930 . S
C2111 C2107 1.400 . S
C2111 C2110 1.385 . S
C2112 C2110 1.478 . S
C2112 C2114 1.381 . S
C2112 C2118 1.383 . S
C2113 C2109 1.495 . S
C2113 H2119 0.959 . S
C2113 H2120 0.961 . S
C2113 H2121 0.960 . S
C2114 C2112 1.381 . S
C2114 C2115 1.394 . S
C2114 H2122 0.930 . S
C2115 C2114 1.394 . S
C2115 C2116 1.383 . S
C2115 H2123 0.929 . S
C2116 C2115 1.383 . S
C2116 C2117 1.377 . S
C2117 H2101 0.930 . S
C2117 C2116 1.377 . S
C2117 C2118 1.379 . S
C2118 H2102 0.931 . S
C2118 C2112 1.383 . S
C2118 C2117 1.379 . S
H2119 C2113 0.959 . S
H2120 C2113 0.961 . S
H2121 C2113 0.960 . S
H2122 C2114 0.930 . S
H2123 C2115 0.929 . S
H2124 C2132 0.929 . S
H2125 C2134 0.930 1_455 S
H2126 C2136 0.930 . S
H2127 C2139 0.929 . S
H2128 C2142 0.930 . S
H2129 C2144 0.960 . S
H2130 C2144 0.960 . S
H2131 C2144 0.960 . S
C2132 H2124 0.929 . S
C2132 C2133 1.377 . S
C2132 C2134 1.384 . S
C2133 C2132 1.377 . S
C2133 C2139 1.390 . S
C2134 H2125 0.930 1_655 S
C2134 C2132 1.384 . S
C2134 C2135 1.372 1_655 S
C2135 C2134 1.372 1_455 S
C2135 C2136 1.400 1_455 S
C2135 C2140 1.490 . S
C2136 H2126 0.930 . S
C2136 C2135 1.400 1_655 S
C2136 C2139 1.386 . S
H2137 C2153 0.930 . S
H2138 C2154 0.931 . S
C2139 H2127 0.929 . S
C2139 C2133 1.390 . S
C2139 C2136 1.386 . S
C2140 C2135 1.490 . S
C2140 C2142 1.395 . S
C2140 C2143 1.403 . S
H2141 C2147 0.930 . S
C2142 H2128 0.930 . S
C2142 C2140 1.395 . S
C2142 C2145 1.403 . S
C2143 C2140 1.403 . S
C2143 C2144 1.524 . S
C2143 C2147 1.400 . S
C2144 H2129 0.960 . S
C2144 H2130 0.960 . S
C2144 H2131 0.960 . S
C2144 C2143 1.524 . S
C2145 C2142 1.403 . S
C2145 C2146 1.392 . S
C2145 C2149 1.495 . S
C2146 C2145 1.392 . S
C2146 C2147 1.385 . S
C2146 C2148 1.478 . S
C2147 H2141 0.930 . S
C2147 C2143 1.400 . S
C2147 C2146 1.385 . S
C2148 C2146 1.478 . S
C2148 C2150 1.381 . S
C2148 C2154 1.383 . S
C2149 C2145 1.495 . S
C2149 H2155 0.959 . S
C2149 H2156 0.961 . S
C2149 H2157 0.960 . S
C2150 C2148 1.381 . S
C2150 C2151 1.394 . S
C2150 H2158 0.930 . S
C2151 C2150 1.394 . S
C2151 C2152 1.383 . S
C2151 H2159 0.929 . S
C2152 C2151 1.383 . S
C2152 C2153 1.377 . S
C2153 H2137 0.930 . S
C2153 C2152 1.377 . S
C2153 C2154 1.379 . S
C2154 H2138 0.931 . S
C2154 C2148 1.383 . S
C2154 C2153 1.379 . S
H2155 C2149 0.959 . S
H2156 C2149 0.961 . S
H2157 C2149 0.960 . S
H2158 C2150 0.930 . S
H2159 C2151 0.929 . S
H2160 C2168 0.929 . S
H2161 C2170 0.930 . S
H2162 C2172 0.930 . S
H2163 C2175 0.929 . S
H2164 C2178 0.930 . S
H2165 C2180 0.960 . S
H2166 C2180 0.960 . S
H2167 C2180 0.960 . S
C2168 H2160 0.929 . S
C2168 C2169 1.377 . S
C2168 C2170 1.384 . S
C2169 C2168 1.377 . S
C2169 C2175 1.390 . S
C2170 H2161 0.930 . S
C2170 C2168 1.384 . S
C2170 C2171 1.372 . S
C2171 C2170 1.372 . S
C2171 C2172 1.400 . S
C2171 C2176 1.490 . S
C2172 H2162 0.930 . S
C2172 C2171 1.400 . S
C2172 C2175 1.386 . S
H2173 C2189 0.930 . S
H2174 C2190 0.931 . S
C2175 H2163 0.929 . S
C2175 C2169 1.390 . S
C2175 C2172 1.386 . S
C2176 C2171 1.490 . S
C2176 C2178 1.395 . S
C2176 C2179 1.403 . S
H2177 C2183 0.930 . S
C2178 H2164 0.930 . S
C2178 C2176 1.395 . S
C2178 C2181 1.403 . S
C2179 C2176 1.403 . S
C2179 C2180 1.524 . S
C2179 C2183 1.400 . S
C2180 H2165 0.960 . S
C2180 H2166 0.960 . S
C2180 H2167 0.960 . S
C2180 C2179 1.524 . S
C2181 C2178 1.403 . S
C2181 C2182 1.392 . S
C2181 C2185 1.495 . S
C2182 C2181 1.392 . S
C2182 C2183 1.385 . S
C2182 C2184 1.478 . S
C2183 H2177 0.930 . S
C2183 C2179 1.400 . S
C2183 C2182 1.385 . S
C2184 C2182 1.478 . S
C2184 C2186 1.381 . S
C2184 C2190 1.383 . S
C2185 C2181 1.495 . S
C2185 H2191 0.959 . S
C2185 H2192 0.961 . S
C2185 H2193 0.960 . S
C2186 C2184 1.381 . S
C2186 C2187 1.394 . S
C2186 H2194 0.930 . S
C2187 C2186 1.394 . S
C2187 C2188 1.383 . S
C2187 H2195 0.929 . S
C2188 C2187 1.383 . S
C2188 C2189 1.377 . S
C2189 H2173 0.930 . S
C2189 C2188 1.377 . S
C2189 C2190 1.379 . S
C2190 H2174 0.931 . S
C2190 C2184 1.383 . S
C2190 C2189 1.379 . S
H2191 C2185 0.959 . S
H2192 C2185 0.961 . S
H2193 C2185 0.960 . S
H2194 C2186 0.930 . S
H2195 C2187 0.929 . S
H2196 C2204 0.929 . S
H2197 C2206 0.930 . S
H2198 C2208 0.930 . S
H2199 C2211 0.929 . S
H2200 C2214 0.930 . S
H2201 C2216 0.960 . S
H2202 C2216 0.960 . S
H2203 C2216 0.960 . S
C2204 H2196 0.929 . S
C2204 C2205 1.377 . S
C2204 C2206 1.384 . S
C2205 C2204 1.377 . S
C2205 C2211 1.390 . S
C2206 H2197 0.930 . S
C2206 C2204 1.384 . S
C2206 C2207 1.372 . S
C2207 C2206 1.372 . S
C2207 C2208 1.400 . S
C2207 C2212 1.490 . S
C2208 H2198 0.930 . S
C2208 C2207 1.400 . S
C2208 C2211 1.386 . S
H2209 C2225 0.930 . S
H2210 C2226 0.931 . S
C2211 H2199 0.929 . S
C2211 C2205 1.390 . S
C2211 C2208 1.386 . S
C2212 C2207 1.490 . S
C2212 C2214 1.395 . S
C2212 C2215 1.403 . S
H2213 C2219 0.930 . S
C2214 H2200 0.930 . S
C2214 C2212 1.395 . S
C2214 C2217 1.403 . S
C2215 C2212 1.403 . S
C2215 C2216 1.524 . S
C2215 C2219 1.400 . S
C2216 H2201 0.960 . S
C2216 H2202 0.960 . S
C2216 H2203 0.960 . S
C2216 C2215 1.524 . S
C2217 C2214 1.403 . S
C2217 C2218 1.392 . S
C2217 C2221 1.495 . S
C2218 C2217 1.392 . S
C2218 C2219 1.385 . S
C2218 C2220 1.478 . S
C2219 H2213 0.930 . S
C2219 C2215 1.400 . S
C2219 C2218 1.385 . S
C2220 C2218 1.478 . S
C2220 C2222 1.381 . S
C2220 C2226 1.383 . S
C2221 C2217 1.495 . S
C2221 H2227 0.959 . S
C2221 H2228 0.961 . S
C2221 H2229 0.960 . S
C2222 C2220 1.381 . S
C2222 C2223 1.394 . S
C2222 H2230 0.930 . S
C2223 C2222 1.394 . S
C2223 C2224 1.383 . S
C2223 H2231 0.929 . S
C2224 C2223 1.383 . S
C2224 C2225 1.377 . S
C2225 H2209 0.930 . S
C2225 C2224 1.377 . S
C2225 C2226 1.379 . S
C2226 H2210 0.931 . S
C2226 C2220 1.383 . S
C2226 C2225 1.379 . S
H2227 C2221 0.959 . S
H2228 C2221 0.961 . S
H2229 C2221 0.960 . S
H2230 C2222 0.930 . S
H2231 C2223 0.929 . S
H2232 C2240 0.929 . S
H2233 C2242 0.930 . S
H2234 C2244 0.930 . S
H2235 C2247 0.929 . S
H2236 C2250 0.930 . S
H2237 C2252 0.960 . S
H2238 C2252 0.960 . S
H2239 C2252 0.960 . S
C2240 H2232 0.929 . S
C2240 C2241 1.377 . S
C2240 C2242 1.384 . S
C2241 C2240 1.377 . S
C2241 C2247 1.390 . S
C2242 H2233 0.930 . S
C2242 C2240 1.384 . S
C2242 C2243 1.372 . S
C2243 C2242 1.372 . S
C2243 C2244 1.400 . S
C2243 C2248 1.490 . S
C2244 H2234 0.930 . S
C2244 C2243 1.400 . S
C2244 C2247 1.386 . S
H2245 C2261 0.930 . S
H2246 C2262 0.931 . S
C2247 H2235 0.929 . S
C2247 C2241 1.390 . S
C2247 C2244 1.386 . S
C2248 C2243 1.490 . S
C2248 C2250 1.395 . S
C2248 C2251 1.403 . S
H2249 C2255 0.930 . S
C2250 H2236 0.930 . S
C2250 C2248 1.395 . S
C2250 C2253 1.403 . S
C2251 C2248 1.403 . S
C2251 C2252 1.524 . S
C2251 C2255 1.400 . S
C2252 H2237 0.960 . S
C2252 H2238 0.960 . S
C2252 H2239 0.960 . S
C2252 C2251 1.524 . S
C2253 C2250 1.403 . S
C2253 C2254 1.392 . S
C2253 C2257 1.495 . S
C2254 C2253 1.392 . S
C2254 C2255 1.385 . S
C2254 C2256 1.478 . S
C2255 H2249 0.930 . S
C2255 C2251 1.400 . S
C2255 C2254 1.385 . S
C2256 C2254 1.478 . S
C2256 C2258 1.381 . S
C2256 C2262 1.383 . S
C2257 C2253 1.495 . S
C2257 H2263 0.959 . S
C2257 H2264 0.961 . S
C2257 H2265 0.960 . S
C2258 C2256 1.381 . S
C2258 C2259 1.394 . S
C2258 H2266 0.930 . S
C2259 C2258 1.394 . S
C2259 C2260 1.383 . S
C2259 H2267 0.929 . S
C2260 C2259 1.383 . S
C2260 C2261 1.377 . S
C2261 H2245 0.930 . S
C2261 C2260 1.377 . S
C2261 C2262 1.379 . S
C2262 H2246 0.931 . S
C2262 C2256 1.383 . S
C2262 C2261 1.379 . S
H2263 C2257 0.959 . S
H2264 C2257 0.961 . S
H2265 C2257 0.960 . S
H2266 C2258 0.930 . S
H2267 C2259 0.929 . S
H2268 C2276 0.929 . S
H2269 C2278 0.930 . S
H2270 C2280 0.930 . S
H2271 C2283 0.929 . S
H2272 C2286 0.930 . S
H2273 C2288 0.960 . S
H2274 C2288 0.960 . S
H2275 C2288 0.960 . S
C2276 H2268 0.929 . S
C2276 C2277 1.377 . S
C2276 C2278 1.384 . S
C2277 C2276 1.377 . S
C2277 C2283 1.390 . S
C2278 H2269 0.930 . S
C2278 C2276 1.384 . S
C2278 C2279 1.372 . S
C2279 C2278 1.372 . S
C2279 C2280 1.400 . S
C2279 C2284 1.490 . S
C2280 H2270 0.930 . S
C2280 C2279 1.400 . S
C2280 C2283 1.386 . S
H2281 C2297 0.930 . S
H2282 C2298 0.931 . S
C2283 H2271 0.929 . S
C2283 C2277 1.390 . S
C2283 C2280 1.386 . S
C2284 C2279 1.490 . S
C2284 C2286 1.395 . S
C2284 C2287 1.403 . S
H2285 C2291 0.930 . S
C2286 H2272 0.930 . S
C2286 C2284 1.395 . S
C2286 C2289 1.403 . S
C2287 C2284 1.403 . S
C2287 C2288 1.524 . S
C2287 C2291 1.400 . S
C2288 H2273 0.960 . S
C2288 H2274 0.960 . S
C2288 H2275 0.960 . S
C2288 C2287 1.524 . S
C2289 C2286 1.403 . S
C2289 C2290 1.392 . S
C2289 C2293 1.495 . S
C2290 C2289 1.392 . S
C2290 C2291 1.385 . S
C2290 C2292 1.478 . S
C2291 H2285 0.930 . S
C2291 C2287 1.400 . S
C2291 C2290 1.385 . S
C2292 C2290 1.478 . S
C2292 C2294 1.381 . S
C2292 C2298 1.383 . S
C2293 C2289 1.495 . S
C2293 H2299 0.959 . S
C2293 H2300 0.961 . S
C2293 H2301 0.960 . S
C2294 C2292 1.381 . S
C2294 C2295 1.394 . S
C2294 H2302 0.930 . S
C2295 C2294 1.394 . S
C2295 C2296 1.383 . S
C2295 H2303 0.929 . S
C2296 C2295 1.383 . S
C2296 C2297 1.377 . S
C2297 H2281 0.930 . S
C2297 C2296 1.377 . S
C2297 C2298 1.379 . S
C2298 H2282 0.931 . S
C2298 C2292 1.383 . S
C2298 C2297 1.379 . S
H2299 C2293 0.959 . S
H2300 C2293 0.961 . S
H2301 C2293 0.960 . S
H2302 C2294 0.930 . S
H2303 C2295 0.929 . S
H2304 C2312 0.929 . S
H2305 C2314 0.930 . S
H2306 C2316 0.967 . S
H2307 C2319 0.929 . S
H2308 C2322 0.930 . S
H2309 C2324 0.960 . S
H2310 C2324 0.960 1_565 S
H2311 C2324 0.960 . S
C2312 H2304 0.929 . S
C2312 C2313 1.377 . S
C2312 C2314 1.384 . S
C2313 C2312 1.377 . S
C2313 C2319 1.390 . S
C2314 H2305 0.930 . S
C2314 C2312 1.384 . S
C2314 C2315 1.372 . S
C2315 C2314 1.372 . S
C2315 C2316 1.400 . S
C2315 C2320 1.490 1_565 S
C2316 H2306 0.967 . S
C2316 C2315 1.400 . S
C2316 C2319 1.386 . S
H2317 C2333 0.930 . S
H2318 C2334 0.931 . S
C2319 H2307 0.929 . S
C2319 C2313 1.390 . S
C2319 C2316 1.386 . S
C2320 C2315 1.490 1_545 S
C2320 C2322 1.395 . S
C2320 C2323 1.403 . S
H2321 C2327 0.930 . S
C2322 H2308 0.930 . S
C2322 C2320 1.395 . S
C2322 C2325 1.403 . S
C2323 C2320 1.403 . S
C2323 C2324 1.524 . S
C2323 C2327 1.400 . S
C2324 H2309 0.960 . S
C2324 H2310 0.960 1_545 S
C2324 H2311 0.960 . S
C2324 C2323 1.524 . S
C2325 C2322 1.403 . S
C2325 C2326 1.392 . S
C2325 C2329 1.495 . S
C2326 C2325 1.392 . S
C2326 C2327 1.385 . S
C2326 C2328 1.478 . S
C2327 H2321 0.930 . S
C2327 C2323 1.400 . S
C2327 C2326 1.385 . S
C2328 C2326 1.478 . S
C2328 C2330 1.381 . S
C2328 C2334 1.383 . S
C2329 C2325 1.495 . S
C2329 H2335 0.959 . S
C2329 H2336 0.961 . S
C2329 H2337 0.960 . S
C2330 C2328 1.381 . S
C2330 C2331 1.394 . S
C2330 H2338 0.930 . S
C2331 C2330 1.394 . S
C2331 C2332 1.383 . S
C2331 H2339 0.929 . S
C2332 C2331 1.383 . S
C2332 C2333 1.377 . S
C2333 H2317 0.930 . S
C2333 C2332 1.377 . S
C2333 C2334 1.379 . S
C2334 H2318 0.931 . S
C2334 C2328 1.383 . S
C2334 C2333 1.379 . S
H2335 C2329 0.959 . S
H2336 C2329 0.961 . S
H2337 C2329 0.960 . S
H2338 C2330 0.930 . S
H2339 C2331 0.929 . S
H2340 C2348 0.929 . S
H2341 C2350 0.930 . S
H2342 C2352 0.930 . S
H2343 C2355 0.929 . S
H2344 C2358 0.930 . S
H2345 C2360 0.979 . S
H2346 C2360 0.953 1_455 S
H2347 C2360 0.925 1_455 S
C2348 H2340 0.929 . S
C2348 C2349 1.377 . S
C2348 C2350 1.384 . S
C2349 C2348 1.377 . S
C2349 C2355 1.390 . S
C2350 H2341 0.930 . S
C2350 C2348 1.384 . S
C2350 C2351 1.372 . S
C2351 C2350 1.372 . S
C2351 C2352 1.400 . S
C2351 C2356 1.490 1_455 S
C2352 H2342 0.930 . S
C2352 C2351 1.400 . S
C2352 C2355 1.386 . S
H2353 C2369 0.930 . S
H2354 C2370 0.931 . S
C2355 H2343 0.929 . S
C2355 C2349 1.390 . S
C2355 C2352 1.386 . S
C2356 C2351 1.490 1_655 S
C2356 C2358 1.395 . S
C2356 C2359 1.403 . S
H2357 C2363 0.930 . S
C2358 H2344 0.930 . S
C2358 C2356 1.395 . S
C2358 C2361 1.403 . S
C2359 C2356 1.403 . S
C2359 C2360 1.549 . S
C2359 C2363 1.400 . S
C2360 H2345 0.979 . S
C2360 H2346 0.953 1_655 S
C2360 H2347 0.925 1_655 S
C2360 C2359 1.549 . S
C2361 C2358 1.403 . S
C2361 C2362 1.392 . S
C2361 C2365 1.495 . S
C2362 C2361 1.392 . S
C2362 C2363 1.385 . S
C2362 C2364 1.478 . S
C2363 H2357 0.930 . S
C2363 C2359 1.400 . S
C2363 C2362 1.385 . S
C2364 C2362 1.478 . S
C2364 C2366 1.381 . S
C2364 C2370 1.383 . S
C2365 C2361 1.495 . S
C2365 H2371 0.959 . S
C2365 H2372 0.961 . S
C2365 H2373 0.960 . S
C2366 C2364 1.381 . S
C2366 C2367 1.394 . S
C2366 H2374 0.930 . S
C2367 C2366 1.394 . S
C2367 C2368 1.383 . S
C2367 H2375 0.929 . S
C2368 C2367 1.383 . S
C2368 C2369 1.377 . S
C2369 H2353 0.930 . S
C2369 C2368 1.377 . S
C2369 C2370 1.379 . S
C2370 H2354 0.931 . S
C2370 C2364 1.383 . S
C2370 C2369 1.379 . S
H2371 C2365 0.959 . S
H2372 C2365 0.961 . S
H2373 C2365 0.960 . S
H2374 C2366 0.930 . S
H2375 C2367 0.929 . S
H2376 C2384 0.929 . S
H2377 C2386 0.930 . S
H2378 C2388 0.930 . S
H2379 C2391 0.929 . S
H2380 C2394 0.930 . S
H2381 C2396 0.960 . S
H2382 C2396 0.960 . S
H2383 C2396 0.960 . S
C2384 H2376 0.929 . S
C2384 C2385 1.377 . S
C2384 C2386 1.384 . S
C2385 C2384 1.377 . S
C2385 C2391 1.390 . S
C2386 H2377 0.930 . S
C2386 C2384 1.384 . S
C2386 C2387 1.372 . S
C2387 C2386 1.372 . S
C2387 C2388 1.400 . S
C2387 C2392 1.490 . S
C2388 H2378 0.930 . S
C2388 C2387 1.400 . S
C2388 C2391 1.386 . S
H2389 C2405 0.930 . S
H2390 C2406 0.931 . S
C2391 H2379 0.929 . S
C2391 C2385 1.390 . S
C2391 C2388 1.386 . S
C2392 C2387 1.490 . S
C2392 C2394 1.395 . S
C2392 C2395 1.403 . S
H2393 C2399 0.930 . S
C2394 H2380 0.930 . S
C2394 C2392 1.395 . S
C2394 C2397 1.403 . S
C2395 C2392 1.403 . S
C2395 C2396 1.524 . S
C2395 C2399 1.400 . S
C2396 H2381 0.960 . S
C2396 H2382 0.960 . S
C2396 H2383 0.960 . S
C2396 C2395 1.524 . S
C2397 C2394 1.403 . S
C2397 C2398 1.392 . S
C2397 C2401 1.495 . S
C2398 C2397 1.392 . S
C2398 C2399 1.385 . S
C2398 C2400 1.478 . S
C2399 H2393 0.930 . S
C2399 C2395 1.400 . S
C2399 C2398 1.385 . S
C2400 C2398 1.478 . S
C2400 C2402 1.381 . S
C2400 C2406 1.383 . S
C2401 C2397 1.495 . S
C2401 H2407 0.959 . S
C2401 H2408 0.961 . S
C2401 H2409 0.960 . S
C2402 C2400 1.381 . S
C2402 C2403 1.394 . S
C2402 H2410 0.930 . S
C2403 C2402 1.394 . S
C2403 C2404 1.383 . S
C2403 H2411 0.929 . S
C2404 C2403 1.383 . S
C2404 C2405 1.377 . S
C2405 H2389 0.930 . S
C2405 C2404 1.377 . S
C2405 C2406 1.379 . S
C2406 H2390 0.931 . S
C2406 C2400 1.383 . S
C2406 C2405 1.379 . S
H2407 C2401 0.959 . S
H2408 C2401 0.961 . S
H2409 C2401 0.960 . S
H2410 C2402 0.930 . S
H2411 C2403 0.929 . S
H2412 C2420 0.929 . S
H2413 C2422 0.930 . S
H2414 C2424 0.930 . S
H2415 C2427 0.929 . S
H2416 C2430 0.930 . S
H2417 C2432 0.960 . S
H2418 C2432 0.960 . S
H2419 C2432 0.960 . S
C2420 H2412 0.929 . S
C2420 C2421 1.377 . S
C2420 C2422 1.384 . S
C2421 C2420 1.377 . S
C2421 C2427 1.390 . S
C2422 H2413 0.930 . S
C2422 C2420 1.384 . S
C2422 C2423 1.372 . S
C2423 C2422 1.372 . S
C2423 C2424 1.400 . S
C2423 C2428 1.490 1_455 S
C2424 H2414 0.930 . S
C2424 C2423 1.400 . S
C2424 C2427 1.386 . S
H2425 C2441 0.930 . S
H2426 C2442 0.931 . S
C2427 H2415 0.929 . S
C2427 C2421 1.390 . S
C2427 C2424 1.386 . S
C2428 C2423 1.490 1_655 S
C2428 C2430 1.395 . S
C2428 C2431 1.403 . S
H2429 C2435 0.930 . S
C2430 H2416 0.930 . S
C2430 C2428 1.395 . S
C2430 C2433 1.403 . S
C2431 C2428 1.403 . S
C2431 C2432 1.524 . S
C2431 C2435 1.400 . S
C2432 H2417 0.960 . S
C2432 H2418 0.960 . S
C2432 H2419 0.960 . S
C2432 C2431 1.524 . S
C2433 C2430 1.403 . S
C2433 C2434 1.392 . S
C2433 C2437 1.495 . S
C2434 C2433 1.392 . S
C2434 C2435 1.385 . S
C2434 C2436 1.478 . S
C2435 H2429 0.930 . S
C2435 C2431 1.400 . S
C2435 C2434 1.385 . S
C2436 C2434 1.478 . S
C2436 C2438 1.381 . S
C2436 C2442 1.383 . S
C2437 C2433 1.495 . S
C2437 H2443 0.959 . S
C2437 H2444 0.961 . S
C2437 H2445 0.960 . S
C2438 C2436 1.381 . S
C2438 C2439 1.394 . S
C2438 H2446 0.930 . S
C2439 C2438 1.394 . S
C2439 C2440 1.383 . S
C2439 H2447 0.929 . S
C2440 C2439 1.383 . S
C2440 C2441 1.377 . S
C2441 H2425 0.930 . S
C2441 C2440 1.377 . S
C2441 C2442 1.379 . S
C2442 H2426 0.931 . S
C2442 C2436 1.383 . S
C2442 C2441 1.379 . S
H2443 C2437 0.959 . S
H2444 C2437 0.961 . S
H2445 C2437 0.960 . S
H2446 C2438 0.930 . S
H2447 C2439 0.929 . S
H2448 C2456 0.929 . S
H2449 C2458 0.930 . S
H2450 C2460 0.930 . S
H2451 C2463 0.929 . S
H2452 C2466 0.930 . S
H2453 C2468 0.960 . S
H2454 C2468 0.960 . S
H2455 C2468 0.960 . S
C2456 H2448 0.929 . S
C2456 C2457 1.377 . S
C2456 C2458 1.384 . S
C2457 C2456 1.377 . S
C2457 C2463 1.390 . S
C2458 H2449 0.930 . S
C2458 C2456 1.384 . S
C2458 C2459 1.372 . S
C2459 C2458 1.372 . S
C2459 C2460 1.400 . S
C2459 C2464 1.490 . S
C2460 H2450 0.930 . S
C2460 C2459 1.400 . S
C2460 C2463 1.386 . S
H2461 C2477 0.930 . S
H2462 C2478 0.931 . S
C2463 H2451 0.929 . S
C2463 C2457 1.390 . S
C2463 C2460 1.386 . S
C2464 C2459 1.490 . S
C2464 C2466 1.395 . S
C2464 C2467 1.403 . S
H2465 C2471 0.930 . S
C2466 H2452 0.930 . S
C2466 C2464 1.395 . S
C2466 C2469 1.403 . S
C2467 C2464 1.403 . S
C2467 C2468 1.524 . S
C2467 C2471 1.400 . S
C2468 H2453 0.960 . S
C2468 H2454 0.960 . S
C2468 H2455 0.960 . S
C2468 C2467 1.524 . S
C2469 C2466 1.403 . S
C2469 C2470 1.392 . S
C2469 C2473 1.495 . S
C2470 C2469 1.392 . S
C2470 C2471 1.385 . S
C2470 C2472 1.478 . S
C2471 H2465 0.930 . S
C2471 C2467 1.400 . S
C2471 C2470 1.385 . S
C2472 C2470 1.478 . S
C2472 C2474 1.381 . S
C2472 C2478 1.383 . S
C2473 C2469 1.495 . S
C2473 H2479 0.959 . S
C2473 H2480 0.961 . S
C2473 H2481 0.960 . S
C2474 C2472 1.381 . S
C2474 C2475 1.394 . S
C2474 H2482 0.930 . S
C2475 C2474 1.394 . S
C2475 C2476 1.383 . S
C2475 H2483 0.929 . S
C2476 C2475 1.383 . S
C2476 C2477 1.377 . S
C2477 H2461 0.930 . S
C2477 C2476 1.377 . S
C2477 C2478 1.379 . S
C2478 H2462 0.931 . S
C2478 C2472 1.383 . S
C2478 C2477 1.379 . S
H2479 C2473 0.959 . S
H2480 C2473 0.961 . S
H2481 C2473 0.960 . S
H2482 C2474 0.930 . S
H2483 C2475 0.929 . S
H2484 C2492 0.929 . S
H2485 C2494 0.930 . S
H2486 C2496 0.930 . S
H2487 C2499 0.929 . S
H2488 C2502 0.930 . S
H2489 C2504 0.960 . S
H2490 C2504 0.960 . S
H2491 C2504 0.960 . S
C2492 H2484 0.929 . S
C2492 C2493 1.377 . S
C2492 C2494 1.384 . S
C2493 C2492 1.377 . S
C2493 C2499 1.390 . S
C2494 H2485 0.930 . S
C2494 C2492 1.384 . S
C2494 C2495 1.372 . S
C2495 C2494 1.372 . S
C2495 C2496 1.400 . S
C2495 C2500 1.490 1_565 S
C2496 H2486 0.930 . S
C2496 C2495 1.400 . S
C2496 C2499 1.386 . S
H2497 C2513 0.930 . S
H2498 C2514 0.931 . S
C2499 H2487 0.929 . S
C2499 C2493 1.390 . S
C2499 C2496 1.386 . S
C2500 C2495 1.490 1_545 S
C2500 C2502 1.395 . S
C2500 C2503 1.403 . S
H2501 C2507 0.930 . S
C2502 H2488 0.930 . S
C2502 C2500 1.395 . S
C2502 C2505 1.403 . S
C2503 C2500 1.403 . S
C2503 C2504 1.524 . S
C2503 C2507 1.400 . S
C2504 H2489 0.960 . S
C2504 H2490 0.960 . S
C2504 H2491 0.960 . S
C2504 C2503 1.524 . S
C2505 C2502 1.403 . S
C2505 C2506 1.392 . S
C2505 C2509 1.495 . S
C2506 C2505 1.392 . S
C2506 C2507 1.385 . S
C2506 C2508 1.478 . S
C2507 H2501 0.930 . S
C2507 C2503 1.400 . S
C2507 C2506 1.385 . S
C2508 C2506 1.478 . S
C2508 C2510 1.381 . S
C2508 C2514 1.383 . S
C2509 C2505 1.495 . S
C2509 H2515 0.959 . S
C2509 H2516 0.961 . S
C2509 H2517 0.960 . S
C2510 C2508 1.381 . S
C2510 C2511 1.394 . S
C2510 H2518 0.930 . S
C2511 C2510 1.394 . S
C2511 C2512 1.383 . S
C2511 H2519 0.929 . S
C2512 C2511 1.383 . S
C2512 C2513 1.377 . S
C2513 H2497 0.930 . S
C2513 C2512 1.377 . S
C2513 C2514 1.379 . S
C2514 H2498 0.931 . S
C2514 C2508 1.383 . S
C2514 C2513 1.379 . S
H2515 C2509 0.959 . S
H2516 C2509 0.961 . S
H2517 C2509 0.960 . S
H2518 C2510 0.930 . S
H2519 C2511 0.929 . S
H2520 C2528 0.929 . S
H2521 C2530 0.930 . S
H2522 C2532 0.930 . S
H2523 C2535 0.929 . S
H2524 C2538 0.930 . S
H2525 C2540 0.960 . S
H2526 C2540 0.960 . S
H2527 C2540 0.960 . S
C2528 H2520 0.929 . S
C2528 C2529 1.377 . S
C2528 C2530 1.384 . S
C2529 C2528 1.377 . S
C2529 C2535 1.390 . S
C2530 H2521 0.930 . S
C2530 C2528 1.384 . S
C2530 C2531 1.372 . S
C2531 C2530 1.372 . S
C2531 C2532 1.400 . S
C2531 C2536 1.490 . S
C2532 H2522 0.930 . S
C2532 C2531 1.400 . S
C2532 C2535 1.386 . S
H2533 C2549 0.930 . S
H2534 C2550 0.931 . S
C2535 H2523 0.929 . S
C2535 C2529 1.390 . S
C2535 C2532 1.386 . S
C2536 C2531 1.490 . S
C2536 C2538 1.395 . S
C2536 C2539 1.403 . S
H2537 C2543 0.930 . S
C2538 H2524 0.930 . S
C2538 C2536 1.395 . S
C2538 C2541 1.403 . S
C2539 C2536 1.403 . S
C2539 C2540 1.524 . S
C2539 C2543 1.400 . S
C2540 H2525 0.960 . S
C2540 H2526 0.960 . S
C2540 H2527 0.960 . S
C2540 C2539 1.524 . S
C2541 C2538 1.403 . S
C2541 C2542 1.392 . S
C2541 C2545 1.495 . S
C2542 C2541 1.392 . S
C2542 C2543 1.385 . S
C2542 C2544 1.478 . S
C2543 H2537 0.930 . S
C2543 C2539 1.400 . S
C2543 C2542 1.385 . S
C2544 C2542 1.478 . S
C2544 C2546 1.381 . S
C2544 C2550 1.383 . S
C2545 C2541 1.495 . S
C2545 H2551 0.959 . S
C2545 H2552 0.961 . S
C2545 H2553 0.960 . S
C2546 C2544 1.381 . S
C2546 C2547 1.394 . S
C2546 H2554 0.930 . S
C2547 C2546 1.394 . S
C2547 C2548 1.383 . S
C2547 H2555 0.929 . S
C2548 C2547 1.383 . S
C2548 C2549 1.377 . S
C2549 H2533 0.930 . S
C2549 C2548 1.377 . S
C2549 C2550 1.379 . S
C2550 H2534 0.931 . S
C2550 C2544 1.383 . S
C2550 C2549 1.379 . S
H2551 C2545 0.959 . S
H2552 C2545 0.961 . S
H2553 C2545 0.960 . S
H2554 C2546 0.930 . S
H2555 C2547 0.929 . S
H2556 C2564 0.929 . S
H2557 C2566 0.930 . S
H2558 C2568 0.930 . S
H2559 C2571 0.929 . S
H2560 C2574 0.930 . S
H2561 C2576 0.960 . S
H2562 C2576 0.960 . S
H2563 C2576 0.960 . S
C2564 H2556 0.929 . S
C2564 C2565 1.377 . S
C2564 C2566 1.384 . S
C2565 C2564 1.377 . S
C2565 C2571 1.390 . S
C2566 H2557 0.930 . S
C2566 C2564 1.384 . S
C2566 C2567 1.372 . S
C2567 C2566 1.372 . S
C2567 C2568 1.400 . S
C2567 C2572 1.490 . S
C2568 H2558 0.930 . S
C2568 C2567 1.400 . S
C2568 C2571 1.386 . S
H2569 C2585 0.930 . S
H2570 C2586 0.931 . S
C2571 H2559 0.929 . S
C2571 C2565 1.390 . S
C2571 C2568 1.386 . S
C2572 C2567 1.490 . S
C2572 C2574 1.395 . S
C2572 C2575 1.403 . S
H2573 C2579 0.930 . S
C2574 H2560 0.930 . S
C2574 C2572 1.395 . S
C2574 C2577 1.403 . S
C2575 C2572 1.403 . S
C2575 C2576 1.524 . S
C2575 C2579 1.400 . S
C2576 H2561 0.960 . S
C2576 H2562 0.960 . S
C2576 H2563 0.960 . S
C2576 C2575 1.524 . S
C2577 C2574 1.403 . S
C2577 C2578 1.392 . S
C2577 C2581 1.495 . S
C2578 C2577 1.392 . S
C2578 C2579 1.385 . S
C2578 C2580 1.478 . S
C2579 H2573 0.930 . S
C2579 C2575 1.400 . S
C2579 C2578 1.385 . S
C2580 C2578 1.478 . S
C2580 C2582 1.381 . S
C2580 C2586 1.383 . S
C2581 C2577 1.495 . S
C2581 H2587 0.959 . S
C2581 H2588 0.961 . S
C2581 H2589 0.960 . S
C2582 C2580 1.381 . S
C2582 C2583 1.394 . S
C2582 H2590 0.930 . S
C2583 C2582 1.394 . S
C2583 C2584 1.383 . S
C2583 H2591 0.929 . S
C2584 C2583 1.383 . S
C2584 C2585 1.377 . S
C2585 H2569 0.930 . S
C2585 C2584 1.377 . S
C2585 C2586 1.379 . S
C2586 H2570 0.931 . S
C2586 C2580 1.383 . S
C2586 C2585 1.379 . S
H2587 C2581 0.959 . S
H2588 C2581 0.961 . S
H2589 C2581 0.960 . S
H2590 C2582 0.930 . S
H2591 C2583 0.929 . S
H2592 C2600 0.929 . S
H2593 C2602 0.930 . S
H2594 C2604 0.930 . S
H2595 C2607 0.929 . S
H2596 C2610 0.930 . S
H2597 C2612 0.960 . S
H2598 C2612 0.960 . S
H2599 C2612 0.960 . S
C2600 H2592 0.929 . S
C2600 C2601 1.377 . S
C2600 C2602 1.384 . S
C2601 C2600 1.377 . S
C2601 C2607 1.390 . S
C2602 H2593 0.930 . S
C2602 C2600 1.384 . S
C2602 C2603 1.372 . S
C2603 C2602 1.372 . S
C2603 C2604 1.400 . S
C2603 C2608 1.490 . S
C2604 H2594 0.930 . S
C2604 C2603 1.400 . S
C2604 C2607 1.386 . S
H2605 C2621 0.930 . S
H2606 C2622 0.931 . S
C2607 H2595 0.929 . S
C2607 C2601 1.390 . S
C2607 C2604 1.386 . S
C2608 C2603 1.490 . S
C2608 C2610 1.395 . S
C2608 C2611 1.403 . S
H2609 C2615 0.930 . S
C2610 H2596 0.930 . S
C2610 C2608 1.395 . S
C2610 C2613 1.403 . S
C2611 C2608 1.403 . S
C2611 C2612 1.524 . S
C2611 C2615 1.400 . S
C2612 H2597 0.960 . S
C2612 H2598 0.960 . S
C2612 H2599 0.960 . S
C2612 C2611 1.524 . S
C2613 C2610 1.403 . S
C2613 C2614 1.392 . S
C2613 C2617 1.495 . S
C2614 C2613 1.392 . S
C2614 C2615 1.385 . S
C2614 C2616 1.478 . S
C2615 H2609 0.930 . S
C2615 C2611 1.400 . S
C2615 C2614 1.385 . S
C2616 C2614 1.478 . S
C2616 C2618 1.381 . S
C2616 C2622 1.383 . S
C2617 C2613 1.495 . S
C2617 H2623 0.959 . S
C2617 H2624 0.961 . S
C2617 H2625 0.960 . S
C2618 C2616 1.381 . S
C2618 C2619 1.394 . S
C2618 H2626 0.930 . S
C2619 C2618 1.394 . S
C2619 C2620 1.383 . S
C2619 H2627 0.929 . S
C2620 C2619 1.383 . S
C2620 C2621 1.377 . S
C2621 H2605 0.930 . S
C2621 C2620 1.377 . S
C2621 C2622 1.379 . S
C2622 H2606 0.931 . S
C2622 C2616 1.383 . S
C2622 C2621 1.379 . S
H2623 C2617 0.959 . S
H2624 C2617 0.961 . S
H2625 C2617 0.960 . S
H2626 C2618 0.930 . S
H2627 C2619 0.929 . S
H2628 C2636 0.929 . S
H2629 C2638 0.930 . S
H2630 C2640 0.930 . S
H2631 C2643 0.929 . S
H2632 C2646 0.930 . S
H2633 C2648 0.960 . S
H2634 C2648 0.960 . S
H2635 C2648 0.960 . S
C2636 H2628 0.929 . S
C2636 C2637 1.377 . S
C2636 C2638 1.384 . S
C2637 C2636 1.377 . S
C2637 C2643 1.390 . S
C2638 H2629 0.930 . S
C2638 C2636 1.384 . S
C2638 C2639 1.372 . S
C2639 C2638 1.372 . S
C2639 C2640 1.400 . S
C2639 C2644 1.490 . S
C2640 H2630 0.930 . S
C2640 C2639 1.400 . S
C2640 C2643 1.386 . S
H2641 C2657 0.930 . S
H2642 C2658 0.931 . S
C2643 H2631 0.929 . S
C2643 C2637 1.390 . S
C2643 C2640 1.386 . S
C2644 C2639 1.490 . S
C2644 C2646 1.395 . S
C2644 C2647 1.403 . S
H2645 C2651 0.930 . S
C2646 H2632 0.930 . S
C2646 C2644 1.395 . S
C2646 C2649 1.403 . S
C2647 C2644 1.403 . S
C2647 C2648 1.524 . S
C2647 C2651 1.400 . S
C2648 H2633 0.960 . S
C2648 H2634 0.960 . S
C2648 H2635 0.960 . S
C2648 C2647 1.524 . S
C2649 C2646 1.403 . S
C2649 C2650 1.392 . S
C2649 C2653 1.495 . S
C2650 C2649 1.392 . S
C2650 C2651 1.385 . S
C2650 C2652 1.478 . S
C2651 H2645 0.930 . S
C2651 C2647 1.400 . S
C2651 C2650 1.385 . S
C2652 C2650 1.478 . S
C2652 C2654 1.381 . S
C2652 C2658 1.383 . S
C2653 C2649 1.495 . S
C2653 H2659 0.959 1_565 S
C2653 H2660 0.961 1_565 S
C2653 H2661 0.960 1_565 S
C2654 C2652 1.381 . S
C2654 C2655 1.394 . S
C2654 H2662 0.930 . S
C2655 C2654 1.394 . S
C2655 C2656 1.383 . S
C2655 H2663 0.929 . S
C2656 C2655 1.383 . S
C2656 C2657 1.377 . S
C2657 H2641 0.930 . S
C2657 C2656 1.377 . S
C2657 C2658 1.379 . S
C2658 H2642 0.931 . S
C2658 C2652 1.383 . S
C2658 C2657 1.379 . S
H2659 C2653 0.959 1_545 S
H2660 C2653 0.961 1_545 S
H2661 C2653 0.960 1_545 S
H2662 C2654 0.930 . S
H2663 C2655 0.929 . S
H2664 C2672 0.929 . S
H2665 C2674 0.930 . S
H2666 C2676 0.930 . S
H2667 C2679 0.929 . S
H2668 C2682 0.930 . S
H2669 C2684 0.960 . S
H2670 C2684 0.960 . S
H2671 C2684 0.960 . S
C2672 H2664 0.929 . S
C2672 C2673 1.377 . S
C2672 C2674 1.384 . S
C2673 C2672 1.377 . S
C2673 C2679 1.390 . S
C2674 H2665 0.930 . S
C2674 C2672 1.384 . S
C2674 C2675 1.372 . S
C2675 C2674 1.372 . S
C2675 C2676 1.400 . S
C2675 C2680 1.490 . S
C2676 H2666 0.930 . S
C2676 C2675 1.400 . S
C2676 C2679 1.386 . S
H2677 C2693 0.930 . S
H2678 C2694 0.931 . S
C2679 H2667 0.929 . S
C2679 C2673 1.390 . S
C2679 C2676 1.386 . S
C2680 C2675 1.490 . S
C2680 C2682 1.395 . S
C2680 C2683 1.403 . S
H2681 C2687 0.930 . S
C2682 H2668 0.930 . S
C2682 C2680 1.395 . S
C2682 C2685 1.403 . S
C2683 C2680 1.403 . S
C2683 C2684 1.524 . S
C2683 C2687 1.400 . S
C2684 H2669 0.960 . S
C2684 H2670 0.960 . S
C2684 H2671 0.960 . S
C2684 C2683 1.524 . S
C2685 C2682 1.403 . S
C2685 C2686 1.392 . S
C2685 C2689 1.495 . S
C2686 C2685 1.392 . S
C2686 C2687 1.385 . S
C2686 C2688 1.478 . S
C2687 H2681 0.930 . S
C2687 C2683 1.400 . S
C2687 C2686 1.385 . S
C2688 C2686 1.478 . S
C2688 C2690 1.381 . S
C2688 C2694 1.383 . S
C2689 C2685 1.495 . S
C2689 H2695 0.959 . S
C2689 H2696 0.961 . S
C2689 H2697 0.960 . S
C2690 C2688 1.381 . S
C2690 C2691 1.394 . S
C2690 H2698 0.930 . S
C2691 C2690 1.394 . S
C2691 C2692 1.383 . S
C2691 H2699 0.929 . S
C2692 C2691 1.383 . S
C2692 C2693 1.377 . S
C2693 H2677 0.930 . S
C2693 C2692 1.377 . S
C2693 C2694 1.379 . S
C2694 H2678 0.931 . S
C2694 C2688 1.383 . S
C2694 C2693 1.379 . S
H2695 C2689 0.959 . S
H2696 C2689 0.961 . S
H2697 C2689 0.960 . S
H2698 C2690 0.930 . S
H2699 C2691 0.929 . S
H2700 C2708 0.929 . S
H2701 C2710 0.930 . S
H2702 C2712 0.930 . S
H2703 C2715 0.929 . S
H2704 C2718 0.930 . S
H2705 C2720 0.960 . S
H2706 C2720 0.960 . S
H2707 C2720 0.960 . S
C2708 H2700 0.929 . S
C2708 C2709 1.377 . S
C2708 C2710 1.384 . S
C2709 C2708 1.377 . S
C2709 C2715 1.390 . S
C2710 H2701 0.930 . S
C2710 C2708 1.384 . S
C2710 C2711 1.372 . S
C2711 C2710 1.372 . S
C2711 C2712 1.400 . S
C2711 C2716 1.490 . S
C2712 H2702 0.930 . S
C2712 C2711 1.400 . S
C2712 C2715 1.386 . S
H2713 C2729 0.930 . S
H2714 C2730 0.931 . S
C2715 H2703 0.929 . S
C2715 C2709 1.390 . S
C2715 C2712 1.386 . S
C2716 C2711 1.490 . S
C2716 C2718 1.395 . S
C2716 C2719 1.403 . S
H2717 C2723 0.930 . S
C2718 H2704 0.930 . S
C2718 C2716 1.395 . S
C2718 C2721 1.403 . S
C2719 C2716 1.403 . S
C2719 C2720 1.524 . S
C2719 C2723 1.400 . S
C2720 H2705 0.960 . S
C2720 H2706 0.960 . S
C2720 H2707 0.960 . S
C2720 C2719 1.524 . S
C2721 C2718 1.403 . S
C2721 C2722 1.392 . S
C2721 C2725 1.495 . S
C2722 C2721 1.392 . S
C2722 C2723 1.385 . S
C2722 C2724 1.478 . S
C2723 H2717 0.930 . S
C2723 C2719 1.400 . S
C2723 C2722 1.385 . S
C2724 C2722 1.478 . S
C2724 C2726 1.381 . S
C2724 C2730 1.383 . S
C2725 C2721 1.495 . S
C2725 H2731 0.959 . S
C2725 H2732 0.961 . S
C2725 H2733 0.960 . S
C2726 C2724 1.381 . S
C2726 C2727 1.394 . S
C2726 H2734 0.930 . S
C2727 C2726 1.394 . S
C2727 C2728 1.383 . S
C2727 H2735 0.929 . S
C2728 C2727 1.383 . S
C2728 C2729 1.377 . S
C2729 H2713 0.930 . S
C2729 C2728 1.377 . S
C2729 C2730 1.379 . S
C2730 H2714 0.931 . S
C2730 C2724 1.383 . S
C2730 C2729 1.379 . S
H2731 C2725 0.959 . S
H2732 C2725 0.961 . S
H2733 C2725 0.960 . S
H2734 C2726 0.930 . S
H2735 C2727 0.929 . S
H2736 C2744 0.929 . S
H2737 C2746 0.930 . S
H2738 C2748 0.930 . S
H2739 C2751 0.929 . S
H2740 C2754 0.930 . S
H2741 C2756 0.960 . S
H2742 C2756 0.960 . S
H2743 C2756 0.960 . S
C2744 H2736 0.929 . S
C2744 C2745 1.377 . S
C2744 C2746 1.384 . S
C2745 C2744 1.377 . S
C2745 C2751 1.390 . S
C2746 H2737 0.930 . S
C2746 C2744 1.384 . S
C2746 C2747 1.372 . S
C2747 C2746 1.372 . S
C2747 C2748 1.400 . S
C2747 C2752 1.490 . S
C2748 H2738 0.930 . S
C2748 C2747 1.400 . S
C2748 C2751 1.386 . S
H2749 C2765 0.930 . S
H2750 C2766 0.931 . S
C2751 H2739 0.929 . S
C2751 C2745 1.390 . S
C2751 C2748 1.386 . S
C2752 C2747 1.490 . S
C2752 C2754 1.395 . S
C2752 C2755 1.403 . S
H2753 C2759 0.930 . S
C2754 H2740 0.930 . S
C2754 C2752 1.395 . S
C2754 C2757 1.403 . S
C2755 C2752 1.403 . S
C2755 C2756 1.524 . S
C2755 C2759 1.400 . S
C2756 H2741 0.960 . S
C2756 H2742 0.960 . S
C2756 H2743 0.960 . S
C2756 C2755 1.524 . S
C2757 C2754 1.403 . S
C2757 C2758 1.392 . S
C2757 C2761 1.495 1_655 S
C2758 C2757 1.392 . S
C2758 C2759 1.385 . S
C2758 C2760 1.478 . S
C2759 H2753 0.930 . S
C2759 C2755 1.400 . S
C2759 C2758 1.385 . S
C2760 C2758 1.478 . S
C2760 C2762 1.381 . S
C2760 C2766 1.383 . S
C2761 C2757 1.495 1_455 S
C2761 H2767 0.959 . S
C2761 H2768 0.961 . S
C2761 H2769 0.960 . S
C2762 C2760 1.381 . S
C2762 C2763 1.394 . S
C2762 H2770 0.930 . S
C2763 C2762 1.394 . S
C2763 C2764 1.383 . S
C2763 H2771 0.929 . S
C2764 C2763 1.383 . S
C2764 C2765 1.377 . S
C2765 H2749 0.930 . S
C2765 C2764 1.377 . S
C2765 C2766 1.379 . S
C2766 H2750 0.931 . S
C2766 C2760 1.383 . S
C2766 C2765 1.379 . S
H2767 C2761 0.959 . S
H2768 C2761 0.961 . S
H2769 C2761 0.960 . S
H2770 C2762 0.930 . S
H2771 C2763 0.929 . S
H2772 C2780 0.929 . S
H2773 C2782 0.930 . S
H2774 C2784 0.930 . S
H2775 C2787 0.929 . S
H2776 C2790 0.930 . S
H2777 C2792 0.960 . S
H2778 C2792 0.960 . S
H2779 C2792 0.960 . S
C2780 H2772 0.929 . S
C2780 C2781 1.377 . S
C2780 C2782 1.384 . S
C2781 C2780 1.377 . S
C2781 C2787 1.390 . S
C2782 H2773 0.930 . S
C2782 C2780 1.384 . S
C2782 C2783 1.372 . S
C2783 C2782 1.372 . S
C2783 C2784 1.400 . S
C2783 C2788 1.490 . S
C2784 H2774 0.930 . S
C2784 C2783 1.400 . S
C2784 C2787 1.386 . S
H2785 C2801 0.930 . S
H2786 C2802 0.931 . S
C2787 H2775 0.929 . S
C2787 C2781 1.390 . S
C2787 C2784 1.386 . S
C2788 C2783 1.490 . S
C2788 C2790 1.395 . S
C2788 C2791 1.403 . S
H2789 C2795 0.930 . S
C2790 H2776 0.930 . S
C2790 C2788 1.395 . S
C2790 C2793 1.403 . S
C2791 C2788 1.403 . S
C2791 C2792 1.524 . S
C2791 C2795 1.400 . S
C2792 H2777 0.960 . S
C2792 H2778 0.960 . S
C2792 H2779 0.960 . S
C2792 C2791 1.524 . S
C2793 C2790 1.403 . S
C2793 C2794 1.392 . S
C2793 C2797 1.495 . S
C2794 C2793 1.392 . S
C2794 C2795 1.385 . S
C2794 C2796 1.478 . S
C2795 H2789 0.930 . S
C2795 C2791 1.400 . S
C2795 C2794 1.385 . S
C2796 C2794 1.478 . S
C2796 C2798 1.381 . S
C2796 C2802 1.383 . S
C2797 C2793 1.495 . S
C2797 H2803 0.959 . S
C2797 H2804 0.961 . S
C2797 H2805 0.960 . S
C2798 C2796 1.381 . S
C2798 C2799 1.394 . S
C2798 H2806 0.930 . S
C2799 C2798 1.394 . S
C2799 C2800 1.383 . S
C2799 H2807 0.929 . S
C2800 C2799 1.383 . S
C2800 C2801 1.377 . S
C2801 H2785 0.930 . S
C2801 C2800 1.377 . S
C2801 C2802 1.379 . S
C2802 H2786 0.931 . S
C2802 C2796 1.383 . S
C2802 C2801 1.379 . S
H2803 C2797 0.959 . S
H2804 C2797 0.961 . S
H2805 C2797 0.960 . S
H2806 C2798 0.930 . S
H2807 C2799 0.929 . S
H2808 C2816 0.929 . S
H2809 C2818 0.930 . S
H2810 C2820 0.930 . S
H2811 C2823 0.929 . S
H2812 C2826 0.930 . S
H2813 C2828 0.960 . S
H2814 C2828 0.960 . S
H2815 C2828 0.960 . S
C2816 H2808 0.929 . S
C2816 C2817 1.377 . S
C2816 C2818 1.384 . S
C2817 C2816 1.377 . S
C2817 C2823 1.390 . S
C2818 H2809 0.930 . S
C2818 C2816 1.384 . S
C2818 C2819 1.372 . S
C2819 C2818 1.372 . S
C2819 C2820 1.400 . S
C2819 C2824 1.490 . S
C2820 H2810 0.930 . S
C2820 C2819 1.400 . S
C2820 C2823 1.386 . S
H2821 C2837 0.930 . S
H2822 C2838 0.931 . S
C2823 H2811 0.929 . S
C2823 C2817 1.390 . S
C2823 C2820 1.386 . S
C2824 C2819 1.490 . S
C2824 C2826 1.395 . S
C2824 C2827 1.403 . S
H2825 C2831 0.930 . S
C2826 H2812 0.930 . S
C2826 C2824 1.395 . S
C2826 C2829 1.403 . S
C2827 C2824 1.403 . S
C2827 C2828 1.524 . S
C2827 C2831 1.400 . S
C2828 H2813 0.960 . S
C2828 H2814 0.960 . S
C2828 H2815 0.960 . S
C2828 C2827 1.524 . S
C2829 C2826 1.403 . S
C2829 C2830 1.392 . S
C2829 C2833 1.495 . S
C2830 C2829 1.392 . S
C2830 C2831 1.385 . S
C2830 C2832 1.478 . S
C2831 H2825 0.930 . S
C2831 C2827 1.400 . S
C2831 C2830 1.385 . S
C2832 C2830 1.478 . S
C2832 C2834 1.381 . S
C2832 C2838 1.383 . S
C2833 C2829 1.495 . S
C2833 H2839 0.959 . S
C2833 H2840 0.961 . S
C2833 H2841 0.960 . S
C2834 C2832 1.381 . S
C2834 C2835 1.394 . S
C2834 H2842 0.930 . S
C2835 C2834 1.394 . S
C2835 C2836 1.383 . S
C2835 H2843 0.929 . S
C2836 C2835 1.383 . S
C2836 C2837 1.377 . S
C2837 H2821 0.930 . S
C2837 C2836 1.377 . S
C2837 C2838 1.379 . S
C2838 H2822 0.931 . S
C2838 C2832 1.383 . S
C2838 C2837 1.379 . S
H2839 C2833 0.959 . S
H2840 C2833 0.961 . S
H2841 C2833 0.960 . S
H2842 C2834 0.930 . S
H2843 C2835 0.929 . S
H2844 C2852 0.929 . S
H2845 C2854 0.930 . S
H2846 C2856 0.930 . S
H2847 C2859 0.929 . S
H2848 C2862 0.930 . S
H2849 C2864 0.960 . S
H2850 C2864 0.960 . S
H2851 C2864 0.960 . S
C2852 H2844 0.929 . S
C2852 C2853 1.377 . S
C2852 C2854 1.384 . S
C2853 C2852 1.377 . S
C2853 C2859 1.390 . S
C2854 H2845 0.930 . S
C2854 C2852 1.384 . S
C2854 C2855 1.372 . S
C2855 C2854 1.372 . S
C2855 C2856 1.400 . S
C2855 C2860 1.490 . S
C2856 H2846 0.930 . S
C2856 C2855 1.400 . S
C2856 C2859 1.386 . S
H2857 C2873 0.930 . S
H2858 C2874 0.931 . S
C2859 H2847 0.929 . S
C2859 C2853 1.390 . S
C2859 C2856 1.386 . S
C2860 C2855 1.490 . S
C2860 C2862 1.395 . S
C2860 C2863 1.403 . S
H2861 C2867 0.930 . S
C2862 H2848 0.930 . S
C2862 C2860 1.395 . S
C2862 C2865 1.403 . S
C2863 C2860 1.403 . S
C2863 C2864 1.524 . S
C2863 C2867 1.400 . S
C2864 H2849 0.960 . S
C2864 H2850 0.960 . S
C2864 H2851 0.960 . S
C2864 C2863 1.524 . S
C2865 C2862 1.403 . S
C2865 C2866 1.392 . S
C2865 C2869 1.495 . S
C2866 C2865 1.392 . S
C2866 C2867 1.385 . S
C2866 C2868 1.478 . S
C2867 H2861 0.930 . S
C2867 C2863 1.400 . S
C2867 C2866 1.385 . S
C2868 C2866 1.478 . S
C2868 C2870 1.381 . S
C2868 C2874 1.383 . S
C2869 C2865 1.495 . S
C2869 H2875 0.959 . S
C2869 H2876 0.961 . S
C2869 H2877 0.960 . S
C2870 C2868 1.381 . S
C2870 C2871 1.394 . S
C2870 H2878 0.930 . S
C2871 C2870 1.394 . S
C2871 C2872 1.383 . S
C2871 H2879 0.929 . S
C2872 C2871 1.383 . S
C2872 C2873 1.377 . S
C2873 H2857 0.930 . S
C2873 C2872 1.377 . S
C2873 C2874 1.379 . S
C2874 H2858 0.931 . S
C2874 C2868 1.383 . S
C2874 C2873 1.379 . S
H2875 C2869 0.959 . S
H2876 C2869 0.961 . S
H2877 C2869 0.960 . S
H2878 C2870 0.930 . S
H2879 C2871 0.929 . S
H2880 C2888 0.929 . S
H2881 C2890 0.930 . S
H2882 C2892 0.930 . S
H2883 C2895 0.929 . S
H2884 C2898 0.930 . S
H2885 C2900 0.960 . S
H2886 C2900 0.960 . S
H2887 C2900 0.960 . S
C2888 H2880 0.929 . S
C2888 C2889 1.377 . S
C2888 C2890 1.384 . S
C2889 C2888 1.377 . S
C2889 C2895 1.390 . S
C2890 H2881 0.930 . S
C2890 C2888 1.384 . S
C2890 C2891 1.372 . S
C2891 C2890 1.372 . S
C2891 C2892 1.400 . S
C2891 C2896 1.490 . S
C2892 H2882 0.930 . S
C2892 C2891 1.400 . S
C2892 C2895 1.386 . S
H2893 C2909 0.930 . S
H2894 C2910 0.931 . S
C2895 H2883 0.929 . S
C2895 C2889 1.390 . S
C2895 C2892 1.386 . S
C2896 C2891 1.490 . S
C2896 C2898 1.395 . S
C2896 C2899 1.403 . S
H2897 C2903 0.930 . S
C2898 H2884 0.930 . S
C2898 C2896 1.395 . S
C2898 C2901 1.403 . S
C2899 C2896 1.403 . S
C2899 C2900 1.524 . S
C2899 C2903 1.400 . S
C2900 H2885 0.960 . S
C2900 H2886 0.960 . S
C2900 H2887 0.960 . S
C2900 C2899 1.524 . S
C2901 C2898 1.403 . S
C2901 C2902 1.392 . S
C2901 C2905 1.495 . S
C2902 C2901 1.392 . S
C2902 C2903 1.385 . S
C2902 C2904 1.478 . S
C2903 H2897 0.930 . S
C2903 C2899 1.400 . S
C2903 C2902 1.385 . S
C2904 C2902 1.478 . S
C2904 C2906 1.381 . S
C2904 C2910 1.383 . S
C2905 C2901 1.495 . S
C2905 H2911 0.959 . S
C2905 H2912 0.961 . S
C2905 H2913 0.960 . S
C2906 C2904 1.381 . S
C2906 C2907 1.394 . S
C2906 H2914 0.930 . S
C2907 C2906 1.394 . S
C2907 C2908 1.383 . S
C2907 H2915 0.929 . S
C2908 C2907 1.383 . S
C2908 C2909 1.377 . S
C2909 H2893 0.930 . S
C2909 C2908 1.377 . S
C2909 C2910 1.379 . S
C2910 H2894 0.931 . S
C2910 C2904 1.383 . S
C2910 C2909 1.379 . S
H2911 C2905 0.959 . S
H2912 C2905 0.961 . S
H2913 C2905 0.960 . S
H2914 C2906 0.930 . S
H2915 C2907 0.929 . S
H2916 C2924 0.929 . S
H2917 C2926 0.930 . S
H2918 C2928 0.930 . S
H2919 C2931 0.929 . S
H2920 C2934 0.930 . S
H2921 C2936 0.960 . S
H2922 C2936 0.960 . S
H2923 C2936 0.960 . S
C2924 H2916 0.929 . S
C2924 C2925 1.377 . S
C2924 C2926 1.384 . S
C2925 C2924 1.377 . S
C2925 C2931 1.390 . S
C2926 H2917 0.930 . S
C2926 C2924 1.384 . S
C2926 C2927 1.372 . S
C2927 C2926 1.372 . S
C2927 C2928 1.400 . S
C2927 C2932 1.490 . S
C2928 H2918 0.930 . S
C2928 C2927 1.400 . S
C2928 C2931 1.386 . S
H2929 C2945 0.930 . S
H2930 C2946 0.931 . S
C2931 H2919 0.929 . S
C2931 C2925 1.390 . S
C2931 C2928 1.386 . S
C2932 C2927 1.490 . S
C2932 C2934 1.395 . S
C2932 C2935 1.403 . S
H2933 C2939 0.930 . S
C2934 H2920 0.930 . S
C2934 C2932 1.395 . S
C2934 C2937 1.403 . S
C2935 C2932 1.403 . S
C2935 C2936 1.524 . S
C2935 C2939 1.400 . S
C2936 H2921 0.960 . S
C2936 H2922 0.960 . S
C2936 H2923 0.960 . S
C2936 C2935 1.524 . S
C2937 C2934 1.403 . S
C2937 C2938 1.392 . S
C2937 C2941 1.495 . S
C2938 C2937 1.392 . S
C2938 C2939 1.385 . S
C2938 C2940 1.478 . S
C2939 H2933 0.930 . S
C2939 C2935 1.400 . S
C2939 C2938 1.385 . S
C2940 C2938 1.478 . S
C2940 C2942 1.381 . S
C2940 C2946 1.383 . S
C2941 C2937 1.495 . S
C2941 H2947 0.959 . S
C2941 H2948 0.961 . S
C2941 H2949 0.960 . S
C2942 C2940 1.381 . S
C2942 C2943 1.394 . S
C2942 H2950 0.930 . S
C2943 C2942 1.394 . S
C2943 C2944 1.383 . S
C2943 H2951 0.929 . S
C2944 C2943 1.383 . S
C2944 C2945 1.377 . S
C2945 H2929 0.930 . S
C2945 C2944 1.377 . S
C2945 C2946 1.379 . S
C2946 H2930 0.931 . S
C2946 C2940 1.383 . S
C2946 C2945 1.379 . S
H2947 C2941 0.959 . S
H2948 C2941 0.961 . S
H2949 C2941 0.960 . S
H2950 C2942 0.930 . S
H2951 C2943 0.929 . S
H2952 C2960 0.929 . S
H2953 C2962 0.930 . S
H2954 C2964 0.930 . S
H2955 C2967 0.929 . S
H2956 C2970 0.930 . S
H2957 C2972 0.960 . S
H2958 C2972 0.960 . S
H2959 C2972 0.960 . S
C2960 H2952 0.929 . S
C2960 C2961 1.377 . S
C2960 C2962 1.384 . S
C2961 C2960 1.377 . S
C2961 C2967 1.390 . S
C2962 H2953 0.930 . S
C2962 C2960 1.384 . S
C2962 C2963 1.372 . S
C2963 C2962 1.372 . S
C2963 C2964 1.400 . S
C2963 C2968 1.490 . S
C2964 H2954 0.930 . S
C2964 C2963 1.400 . S
C2964 C2967 1.386 . S
H2965 C2981 0.930 . S
H2966 C2982 0.931 . S
C2967 H2955 0.929 . S
C2967 C2961 1.390 . S
C2967 C2964 1.386 . S
C2968 C2963 1.490 . S
C2968 C2970 1.395 . S
C2968 C2971 1.403 . S
H2969 C2975 0.930 . S
C2970 H2956 0.930 . S
C2970 C2968 1.395 . S
C2970 C2973 1.403 . S
C2971 C2968 1.403 . S
C2971 C2972 1.524 . S
C2971 C2975 1.400 . S
C2972 H2957 0.960 . S
C2972 H2958 0.960 . S
C2972 H2959 0.960 . S
C2972 C2971 1.524 . S
C2973 C2970 1.403 . S
C2973 C2974 1.392 . S
C2973 C2977 1.495 . S
C2974 C2973 1.392 . S
C2974 C2975 1.385 . S
C2974 C2976 1.478 . S
C2975 H2969 0.930 . S
C2975 C2971 1.400 . S
C2975 C2974 1.385 . S
C2976 C2974 1.478 . S
C2976 C2978 1.381 . S
C2976 C2982 1.383 . S
C2977 C2973 1.495 . S
C2977 H2983 0.959 . S
C2977 H2984 0.961 . S
C2977 H2985 0.960 . S
C2978 C2976 1.381 . S
C2978 C2979 1.394 . S
C2978 H2986 0.930 . S
C2979 C2978 1.394 . S
C2979 C2980 1.383 . S
C2979 H2987 0.929 . S
C2980 C2979 1.383 . S
C2980 C2981 1.377 . S
C2981 H2965 0.930 . S
C2981 C2980 1.377 . S
C2981 C2982 1.379 . S
C2982 H2966 0.931 . S
C2982 C2976 1.383 . S
C2982 C2981 1.379 . S
H2983 C2977 0.959 . S
H2984 C2977 0.961 . S
H2985 C2977 0.960 . S
H2986 C2978 0.930 . S
H2987 C2979 0.929 . S
H2988 C2996 0.929 . S
H2989 C2998 0.930 . S
H2990 C3000 0.930 . S
H2991 C3003 0.929 . S
H2992 C3006 0.930 . S
H2993 C3008 0.960 . S
H2994 C3008 0.960 . S
H2995 C3008 0.960 . S
C2996 H2988 0.929 . S
C2996 C2997 1.377 . S
C2996 C2998 1.384 . S
C2997 C2996 1.377 . S
C2997 C3003 1.390 . S
C2998 H2989 0.930 . S
C2998 C2996 1.384 . S
C2998 C2999 1.372 . S
C2999 C2998 1.372 . S
C2999 C3000 1.400 . S
C2999 C3004 1.490 . S
C3000 H2990 0.930 . S
C3000 C2999 1.400 . S
C3000 C3003 1.386 . S
H3001 C3017 0.930 . S
H3002 C3018 0.931 . S
C3003 H2991 0.929 . S
C3003 C2997 1.390 . S
C3003 C3000 1.386 . S
C3004 C2999 1.490 . S
C3004 C3006 1.395 . S
C3004 C3007 1.403 . S
H3005 C3011 0.930 . S
C3006 H2992 0.930 . S
C3006 C3004 1.395 . S
C3006 C3009 1.403 . S
C3007 C3004 1.403 . S
C3007 C3008 1.524 . S
C3007 C3011 1.400 . S
C3008 H2993 0.960 . S
C3008 H2994 0.960 . S
C3008 H2995 0.960 . S
C3008 C3007 1.524 . S
C3009 C3006 1.403 . S
C3009 C3010 1.392 . S
C3009 C3013 1.495 . S
C3010 C3009 1.392 . S
C3010 C3011 1.385 . S
C3010 C3012 1.478 . S
C3011 H3005 0.930 . S
C3011 C3007 1.400 . S
C3011 C3010 1.385 . S
C3012 C3010 1.478 . S
C3012 C3014 1.381 . S
C3012 C3018 1.383 . S
C3013 C3009 1.495 . S
C3013 H3019 0.959 . S
C3013 H3020 0.961 . S
C3013 H3021 0.960 . S
C3014 C3012 1.381 . S
C3014 C3015 1.394 . S
C3014 H3022 0.930 . S
C3015 C3014 1.394 . S
C3015 C3016 1.383 . S
C3015 H3023 0.929 . S
C3016 C3015 1.383 . S
C3016 C3017 1.377 . S
C3017 H3001 0.930 . S
C3017 C3016 1.377 . S
C3017 C3018 1.379 . S
C3018 H3002 0.931 . S
C3018 C3012 1.383 . S
C3018 C3017 1.379 . S
H3019 C3013 0.959 . S
H3020 C3013 0.961 . S
H3021 C3013 0.960 . S
H3022 C3014 0.930 . S
H3023 C3015 0.929 . S
H3024 C3032 0.929 . S
H3025 C3034 0.930 . S
H3026 C3036 0.930 . S
H3027 C3039 0.929 . S
H3028 C3042 0.930 . S
H3029 C3044 0.960 . S
H3030 C3044 0.960 . S
H3031 C3044 0.960 . S
C3032 H3024 0.929 . S
C3032 C3033 1.377 . S
C3032 C3034 1.384 . S
C3033 C3032 1.377 . S
C3033 C3039 1.390 . S
C3034 H3025 0.930 . S
C3034 C3032 1.384 . S
C3034 C3035 1.372 . S
C3035 C3034 1.372 . S
C3035 C3036 1.400 . S
C3035 C3040 1.490 . S
C3036 H3026 0.930 . S
C3036 C3035 1.400 . S
C3036 C3039 1.386 . S
H3037 C3053 0.930 . S
H3038 C3054 0.931 . S
C3039 H3027 0.929 . S
C3039 C3033 1.390 . S
C3039 C3036 1.386 . S
C3040 C3035 1.490 . S
C3040 C3042 1.395 . S
C3040 C3043 1.403 . S
H3041 C3047 0.930 . S
C3042 H3028 0.930 . S
C3042 C3040 1.395 . S
C3042 C3045 1.403 . S
C3043 C3040 1.403 . S
C3043 C3044 1.524 . S
C3043 C3047 1.400 . S
C3044 H3029 0.960 . S
C3044 H3030 0.960 . S
C3044 H3031 0.960 . S
C3044 C3043 1.524 . S
C3045 C3042 1.403 . S
C3045 C3046 1.392 . S
C3045 C3049 1.495 . S
C3046 C3045 1.392 . S
C3046 C3047 1.385 . S
C3046 C3048 1.478 . S
C3047 H3041 0.930 . S
C3047 C3043 1.400 . S
C3047 C3046 1.385 . S
C3048 C3046 1.478 . S
C3048 C3050 1.381 . S
C3048 C3054 1.383 . S
C3049 C3045 1.495 . S
C3049 H3055 0.959 . S
C3049 H3056 0.961 . S
C3049 H3057 0.960 . S
C3050 C3048 1.381 . S
C3050 C3051 1.394 . S
C3050 H3058 0.930 . S
C3051 C3050 1.394 . S
C3051 C3052 1.383 . S
C3051 H3059 0.929 . S
C3052 C3051 1.383 . S
C3052 C3053 1.377 . S
C3053 H3037 0.930 . S
C3053 C3052 1.377 . S
C3053 C3054 1.379 . S
C3054 H3038 0.931 . S
C3054 C3048 1.383 . S
C3054 C3053 1.379 . S
H3055 C3049 0.959 . S
H3056 C3049 0.961 . S
H3057 C3049 0.960 . S
H3058 C3050 0.930 . S
H3059 C3051 0.929 . S
H3060 C3068 0.929 . S
H3061 C3070 0.930 . S
H3062 C3072 0.930 . S
H3063 C3075 0.929 . S
H3064 C3078 0.930 . S
H3065 C3080 0.960 . S
H3066 C3080 0.960 . S
H3067 C3080 0.960 . S
C3068 H3060 0.929 . S
C3068 C3069 1.377 . S
C3068 C3070 1.384 . S
C3069 C3068 1.377 . S
C3069 C3075 1.390 . S
C3070 H3061 0.930 . S
C3070 C3068 1.384 . S
C3070 C3071 1.372 . S
C3071 C3070 1.372 . S
C3071 C3072 1.400 . S
C3071 C3076 1.490 . S
C3072 H3062 0.930 . S
C3072 C3071 1.400 . S
C3072 C3075 1.386 . S
H3073 C3089 0.930 . S
H3074 C3090 0.931 . S
C3075 H3063 0.929 . S
C3075 C3069 1.390 . S
C3075 C3072 1.386 . S
C3076 C3071 1.490 . S
C3076 C3078 1.395 . S
C3076 C3079 1.403 . S
H3077 C3083 0.930 . S
C3078 H3064 0.930 . S
C3078 C3076 1.395 . S
C3078 C3081 1.403 . S
C3079 C3076 1.403 . S
C3079 C3080 1.524 . S
C3079 C3083 1.400 . S
C3080 H3065 0.960 . S
C3080 H3066 0.960 . S
C3080 H3067 0.960 . S
C3080 C3079 1.524 . S
C3081 C3078 1.403 . S
C3081 C3082 1.392 . S
C3081 C3085 1.495 . S
C3082 C3081 1.392 . S
C3082 C3083 1.385 . S
C3082 C3084 1.478 . S
C3083 H3077 0.930 . S
C3083 C3079 1.400 . S
C3083 C3082 1.385 . S
C3084 C3082 1.478 . S
C3084 C3086 1.381 . S
C3084 C3090 1.383 . S
C3085 C3081 1.495 . S
C3085 H3091 0.959 . S
C3085 H3092 0.961 . S
C3085 H3093 0.960 . S
C3086 C3084 1.381 . S
C3086 C3087 1.394 . S
C3086 H3094 0.930 . S
C3087 C3086 1.394 . S
C3087 C3088 1.383 . S
C3087 H3095 0.929 . S
C3088 C3087 1.383 . S
C3088 C3089 1.377 . S
C3089 H3073 0.930 . S
C3089 C3088 1.377 . S
C3089 C3090 1.379 . S
C3090 H3074 0.931 . S
C3090 C3084 1.383 . S
C3090 C3089 1.379 . S
H3091 C3085 0.959 . S
H3092 C3085 0.961 . S
H3093 C3085 0.960 . S
H3094 C3086 0.930 . S
H3095 C3087 0.929 . S
H3096 C3104 0.929 . S
H3097 C3106 0.930 . S
H3098 C3108 0.930 . S
H3099 C3111 0.929 . S
H3100 C3114 0.930 . S
H3101 C3116 0.960 . S
H3102 C3116 0.960 . S
H3103 C3116 0.960 . S
C3104 H3096 0.929 . S
C3104 C3105 1.377 . S
C3104 C3106 1.384 . S
C3105 C3104 1.377 . S
C3105 C3111 1.390 . S
C3106 H3097 0.930 . S
C3106 C3104 1.384 . S
C3106 C3107 1.372 . S
C3107 C3106 1.372 . S
C3107 C3108 1.400 . S
C3107 C3112 1.490 . S
C3108 H3098 0.930 . S
C3108 C3107 1.400 . S
C3108 C3111 1.386 . S
H3109 C3125 0.930 . S
H3110 C3126 0.931 . S
C3111 H3099 0.929 . S
C3111 C3105 1.390 . S
C3111 C3108 1.386 . S
C3112 C3107 1.490 . S
C3112 C3114 1.395 . S
C3112 C3115 1.403 . S
H3113 C3119 0.930 . S
C3114 H3100 0.930 . S
C3114 C3112 1.395 . S
C3114 C3117 1.403 . S
C3115 C3112 1.403 . S
C3115 C3116 1.524 . S
C3115 C3119 1.400 . S
C3116 H3101 0.960 . S
C3116 H3102 0.960 . S
C3116 H3103 0.960 . S
C3116 C3115 1.524 . S
C3117 C3114 1.403 . S
C3117 C3118 1.392 . S
C3117 C3121 1.495 . S
C3118 C3117 1.392 . S
C3118 C3119 1.385 . S
C3118 C3120 1.478 . S
C3119 H3113 0.930 . S
C3119 C3115 1.400 . S
C3119 C3118 1.385 . S
C3120 C3118 1.478 . S
C3120 C3122 1.381 . S
C3120 C3126 1.383 . S
C3121 C3117 1.495 . S
C3121 H3127 0.959 . S
C3121 H3128 0.961 . S
C3121 H3129 0.960 . S
C3122 C3120 1.381 . S
C3122 C3123 1.394 . S
C3122 H3130 0.930 . S
C3123 C3122 1.394 . S
C3123 C3124 1.383 . S
C3123 H3131 0.929 . S
C3124 C3123 1.383 . S
C3124 C3125 1.377 . S
C3125 H3109 0.930 . S
C3125 C3124 1.377 . S
C3125 C3126 1.379 . S
C3126 H3110 0.931 . S
C3126 C3120 1.383 . S
C3126 C3125 1.379 . S
H3127 C3121 0.959 . S
H3128 C3121 0.961 . S
H3129 C3121 0.960 . S
H3130 C3122 0.930 . S
H3131 C3123 0.929 . S
H3132 C3140 0.929 . S
H3133 C3142 0.930 . S
H3134 C3144 0.930 . S
H3135 C3147 0.929 . S
H3136 C3150 0.930 . S
H3137 C3152 0.960 . S
H3138 C3152 0.960 . S
H3139 C3152 0.960 . S
C3140 H3132 0.929 . S
C3140 C3141 1.377 . S
C3140 C3142 1.384 . S
C3141 C3140 1.377 . S
C3141 C3147 1.390 . S
C3142 H3133 0.930 . S
C3142 C3140 1.384 . S
C3142 C3143 1.372 . S
C3143 C3142 1.372 . S
C3143 C3144 1.400 . S
C3143 C3148 1.490 . S
C3144 H3134 0.930 . S
C3144 C3143 1.400 . S
C3144 C3147 1.386 . S
H3145 C3161 0.930 . S
H3146 C3162 0.931 . S
C3147 H3135 0.929 . S
C3147 C3141 1.390 . S
C3147 C3144 1.386 . S
C3148 C3143 1.490 . S
C3148 C3150 1.395 . S
C3148 C3151 1.403 . S
H3149 C3155 0.930 . S
C3150 H3136 0.930 . S
C3150 C3148 1.395 . S
C3150 C3153 1.403 . S
C3151 C3148 1.403 . S
C3151 C3152 1.524 . S
C3151 C3155 1.400 . S
C3152 H3137 0.960 . S
C3152 H3138 0.960 . S
C3152 H3139 0.960 . S
C3152 C3151 1.524 . S
C3153 C3150 1.403 . S
C3153 C3154 1.392 . S
C3153 C3157 1.495 . S
C3154 C3153 1.392 . S
C3154 C3155 1.385 . S
C3154 C3156 1.478 . S
C3155 H3149 0.930 . S
C3155 C3151 1.400 . S
C3155 C3154 1.385 . S
C3156 C3154 1.478 . S
C3156 C3158 1.381 . S
C3156 C3162 1.383 . S
C3157 C3153 1.495 . S
C3157 H3163 0.959 . S
C3157 H3164 0.961 . S
C3157 H3165 0.960 . S
C3158 C3156 1.381 . S
C3158 C3159 1.394 . S
C3158 H3166 0.930 . S
C3159 C3158 1.394 . S
C3159 C3160 1.383 . S
C3159 H3167 0.929 . S
C3160 C3159 1.383 . S
C3160 C3161 1.377 . S
C3161 H3145 0.930 . S
C3161 C3160 1.377 . S
C3161 C3162 1.379 . S
C3162 H3146 0.931 . S
C3162 C3156 1.383 . S
C3162 C3161 1.379 . S
H3163 C3157 0.959 . S
H3164 C3157 0.961 . S
H3165 C3157 0.960 . S
H3166 C3158 0.930 . S
H3167 C3159 0.929 . S
H3168 C3176 0.929 . S
H3169 C3178 0.930 . S
H3170 C3180 0.930 . S
H3171 C3183 0.929 . S
H3172 C3186 0.930 . S
H3173 C3188 0.960 . S
H3174 C3188 0.960 . S
H3175 C3188 0.960 . S
C3176 H3168 0.929 . S
C3176 C3177 1.377 . S
C3176 C3178 1.384 . S
C3177 C3176 1.377 . S
C3177 C3183 1.390 . S
C3178 H3169 0.930 . S
C3178 C3176 1.384 . S
C3178 C3179 1.372 . S
C3179 C3178 1.372 . S
C3179 C3180 1.400 . S
C3179 C3184 1.490 . S
C3180 H3170 0.930 . S
C3180 C3179 1.400 . S
C3180 C3183 1.386 . S
H3181 C3197 0.930 . S
H3182 C3198 0.931 . S
C3183 H3171 0.929 . S
C3183 C3177 1.390 . S
C3183 C3180 1.386 . S
C3184 C3179 1.490 . S
C3184 C3186 1.395 . S
C3184 C3187 1.403 . S
H3185 C3191 0.930 . S
C3186 H3172 0.930 . S
C3186 C3184 1.395 . S
C3186 C3189 1.403 . S
C3187 C3184 1.403 . S
C3187 C3188 1.524 . S
C3187 C3191 1.400 . S
C3188 H3173 0.960 . S
C3188 H3174 0.960 . S
C3188 H3175 0.960 . S
C3188 C3187 1.524 . S
C3189 C3186 1.403 . S
C3189 C3190 1.392 . S
C3189 C3193 1.495 . S
C3190 C3189 1.392 . S
C3190 C3191 1.385 . S
C3190 C3192 1.478 . S
C3191 H3185 0.930 . S
C3191 C3187 1.400 . S
C3191 C3190 1.385 . S
C3192 C3190 1.478 . S
C3192 C3194 1.381 . S
C3192 C3198 1.383 . S
C3193 C3189 1.495 . S
C3193 H3199 0.959 . S
C3193 H3200 0.961 . S
C3193 H3201 0.960 . S
C3194 C3192 1.381 . S
C3194 C3195 1.394 . S
C3194 H3202 0.930 . S
C3195 C3194 1.394 . S
C3195 C3196 1.383 . S
C3195 H3203 0.929 . S
C3196 C3195 1.383 . S
C3196 C3197 1.377 . S
C3197 H3181 0.930 . S
C3197 C3196 1.377 . S
C3197 C3198 1.379 . S
C3198 H3182 0.931 . S
C3198 C3192 1.383 . S
C3198 C3197 1.379 . S
H3199 C3193 0.959 . S
H3200 C3193 0.961 . S
H3201 C3193 0.960 . S
H3202 C3194 0.930 . S
H3203 C3195 0.929 . S
H3204 C3212 0.929 . S
H3205 C3214 0.930 . S
H3206 C3216 0.930 . S
H3207 C3219 0.929 . S
H3208 C3222 0.930 . S
H3209 C3224 0.960 . S
H3210 C3224 0.960 . S
H3211 C3224 0.960 . S
C3212 H3204 0.929 . S
C3212 C3213 1.377 . S
C3212 C3214 1.384 . S
C3213 C3212 1.377 . S
C3213 C3219 1.390 . S
C3214 H3205 0.930 . S
C3214 C3212 1.384 . S
C3214 C3215 1.372 . S
C3215 C3214 1.372 . S
C3215 C3216 1.400 . S
C3215 C3220 1.490 . S
C3216 H3206 0.930 . S
C3216 C3215 1.400 . S
C3216 C3219 1.386 . S
H3217 C3233 0.930 . S
H3218 C3234 0.931 . S
C3219 H3207 0.929 . S
C3219 C3213 1.390 . S
C3219 C3216 1.386 . S
C3220 C3215 1.490 . S
C3220 C3222 1.395 . S
C3220 C3223 1.403 . S
H3221 C3227 0.930 . S
C3222 H3208 0.930 . S
C3222 C3220 1.395 . S
C3222 C3225 1.403 . S
C3223 C3220 1.403 . S
C3223 C3224 1.524 . S
C3223 C3227 1.400 . S
C3224 H3209 0.960 . S
C3224 H3210 0.960 . S
C3224 H3211 0.960 . S
C3224 C3223 1.524 . S
C3225 C3222 1.403 . S
C3225 C3226 1.392 . S
C3225 C3229 1.495 . S
C3226 C3225 1.392 . S
C3226 C3227 1.385 . S
C3226 C3228 1.478 . S
C3227 H3221 0.930 . S
C3227 C3223 1.400 . S
C3227 C3226 1.385 . S
C3228 C3226 1.478 . S
C3228 C3230 1.381 . S
C3228 C3234 1.383 . S
C3229 C3225 1.495 . S
C3229 H3235 0.959 . S
C3229 H3236 0.961 . S
C3229 H3237 0.960 . S
C3230 C3228 1.381 . S
C3230 C3231 1.394 . S
C3230 H3238 0.930 . S
C3231 C3230 1.394 . S
C3231 C3232 1.383 . S
C3231 H3239 0.929 . S
C3232 C3231 1.383 . S
C3232 C3233 1.377 . S
C3233 H3217 0.930 . S
C3233 C3232 1.377 . S
C3233 C3234 1.379 . S
C3234 H3218 0.931 . S
C3234 C3228 1.383 . S
C3234 C3233 1.379 . S
H3235 C3229 0.959 . S
H3236 C3229 0.961 . S
H3237 C3229 0.960 . S
H3238 C3230 0.930 . S
H3239 C3231 0.929 . S
H3240 C3248 0.929 . S
H3241 C3250 0.930 . S
H3242 C3252 0.930 . S
H3243 C3255 0.929 . S
H3244 C3258 0.930 . S
H3245 C3260 0.960 . S
H3246 C3260 0.960 . S
H3247 C3260 0.960 . S
C3248 H3240 0.929 . S
C3248 C3249 1.377 . S
C3248 C3250 1.384 . S
C3249 C3248 1.377 . S
C3249 C3255 1.390 . S
C3250 H3241 0.930 . S
C3250 C3248 1.384 . S
C3250 C3251 1.372 . S
C3251 C3250 1.372 . S
C3251 C3252 1.400 . S
C3251 C3256 1.490 . S
C3252 H3242 0.930 . S
C3252 C3251 1.400 . S
C3252 C3255 1.386 . S
H3253 C3269 0.930 . S
H3254 C3270 0.931 . S
C3255 H3243 0.929 . S
C3255 C3249 1.390 . S
C3255 C3252 1.386 . S
C3256 C3251 1.490 . S
C3256 C3258 1.395 . S
C3256 C3259 1.403 . S
H3257 C3263 0.930 . S
C3258 H3244 0.930 . S
C3258 C3256 1.395 . S
C3258 C3261 1.403 . S
C3259 C3256 1.403 . S
C3259 C3260 1.524 . S
C3259 C3263 1.400 . S
C3260 H3245 0.960 . S
C3260 H3246 0.960 . S
C3260 H3247 0.960 . S
C3260 C3259 1.524 . S
C3261 C3258 1.403 . S
C3261 C3262 1.392 . S
C3261 C3265 1.495 . S
C3262 C3261 1.392 . S
C3262 C3263 1.385 . S
C3262 C3264 1.478 . S
C3263 H3257 0.930 . S
C3263 C3259 1.400 . S
C3263 C3262 1.385 . S
C3264 C3262 1.478 . S
C3264 C3266 1.381 . S
C3264 C3270 1.383 . S
C3265 C3261 1.495 . S
C3265 H3271 0.959 . S
C3265 H3272 0.961 . S
C3265 H3273 0.960 . S
C3266 C3264 1.381 . S
C3266 C3267 1.394 . S
C3266 H3274 0.930 . S
C3267 C3266 1.394 . S
C3267 C3268 1.383 . S
C3267 H3275 0.929 . S
C3268 C3267 1.383 . S
C3268 C3269 1.377 . S
C3269 H3253 0.930 . S
C3269 C3268 1.377 . S
C3269 C3270 1.379 . S
C3270 H3254 0.931 . S
C3270 C3264 1.383 . S
C3270 C3269 1.379 . S
H3271 C3265 0.959 . S
H3272 C3265 0.961 . S
H3273 C3265 0.960 . S
H3274 C3266 0.930 . S
H3275 C3267 0.929 . S
C1341 C439 1.329 . S
C1360 C643 1.274 . S
C1377 C465 1.494 . S
C1396 C727 1.446 . S
C1413 C401 1.444 . S
C1432 C807 1.384 . S
C1449 C369 1.394 . S
C1468 C723 1.358 . S
C1504 C811 1.369 . S
C1485 C305 1.424 . S
C1521 C343 1.295 . S
C1540 C639 1.307 . S
C1576 C632 1.316 . S
C1557 C375 1.405 . S
C1612 C716 1.419 . S
C1593 C311 1.452 . S
C1629 C337 1.403 . S
C1648 C818 1.427 . S
C1665 C433 1.365 . S
C1684 C734 1.387 . S
C1701 C471 1.383 . S
C1720 C800 1.357 . S
C1756 C650 1.310 . S
C1737 C407 1.372 . S
C1792 C895 1.309 . S
C1773 C55 1.331 . S
C1809 C81 1.493 . S
C1828 C979 1.451 . S
C1845 C17 1.444 . S
C1864 C1059 1.404 . S
C1881 C561 1.393 . S
C1900 C975 1.372 . S
C1917 C497 1.423 . S
C1936 C1063 1.363 . S
C1953 C535 1.295 . S
C1972 C891 1.308 . S
C1989 C567 1.402 . S
C2008 C884 1.365 . S
C2025 C503 1.453 . S
C2044 C968 1.414 . S
C2080 C1070 1.385 . S
C2061 C529 1.404 . S
C2097 C49 1.368 . S
C2116 C986 1.389 . S
C2152 C1052 1.295 . S
C2133 C87 1.389 . S
C2169 C23 1.371 . S
C2188 C902 1.362 . S
C2224 C1147 1.310 . S
C2205 C247 1.331 . S
C2241 C273 1.489 . S
C2260 C1231 1.397 . S
C2296 C1311 1.427 . S
C2277 C209 1.443 . S
C2332 C1227 1.362 . S
C2313 C177 1.393 . S
C2368 C1315 1.341 . S
C2349 C113 1.422 . S
C2385 C151 1.289 . S
C2404 C1143 1.320 . S
C2421 C183 1.406 . S
C2440 C1136 1.322 . S
C2457 C119 1.455 . S
C2476 C1220 1.395 . S
C2512 C1322 1.379 . S
C2493 C145 1.400 . S
C2529 C241 1.367 . S
C2548 C1238 1.389 . S
C2565 C279 1.383 . S
C2584 C1304 1.357 . S
C2601 C215 1.369 . S
C2620 C1154 1.362 . S
C2637 C509 1.429 . S
C2656 C646 1.298 . S
C2692 C730 1.373 . S
C2673 C541 1.437 . S
C2709 C573 1.442 . S
C2728 C802 1.286 . S
C2745 C221 1.487 . S
C2764 C718 1.315 . S
C2781 C253 1.401 . S
C2800 C814 1.336 . S
C2836 C634 1.293 . S
C2817 C285 1.426 . S
C2853 C125 1.427 . S
C2872 C898 1.314 . S
C2889 C157 1.435 . S
C2908 C982 1.336 . S
C2925 C189 1.437 . S
C2944 C1054 1.312 . S
C2961 C413 1.487 . S
C2980 C970 1.376 . S
C3016 C1066 1.264 . S
C2997 C445 1.397 . S
C3033 C477 1.421 . S
C3052 C886 1.356 . S
C3069 C317 1.424 . S
C3088 C1150 1.370 . S
C3105 C349 1.430 . S
C3124 C1234 1.297 . S
C3160 C1306 1.292 . S
C3141 C381 1.439 . S
C3177 C29 1.487 . S
C3196 C1222 1.384 . S
C3213 C61 1.400 . S
C3232 C1318 1.327 . S
C3249 C93 1.427 . S
C3268 C1138 1.291 . S
