# Generated by pormake.
# Topology pyr, (3,6)-cn, num edge types: 1
# Building blocks:
#     Node 0, Type 0, BuildingBlock: QEWDON_clean_linker_0, # of connection points: 3
#     Node 1, Type 0, BuildingBlock: QEWDON_clean_linker_0, # of connection points: 3
#     Node 2, Type 0, BuildingBlock: QEWDON_clean_linker_0, # of connection points: 3
#     Node 3, Type 0, BuildingBlock: QEWDON_clean_linker_0, # of connection points: 3
#     Node 4, Type 0, BuildingBlock: QEWDON_clean_linker_0, # of connection points: 3
#     Node 5, Type 0, BuildingBlock: QEWDON_clean_linker_0, # of connection points: 3
#     Node 6, Type 0, BuildingBlock: QEWDON_clean_linker_0, # of connection points: 3
#     Node 7, Type 0, BuildingBlock: QEWDON_clean_linker_0, # of connection points: 3
#     Node 8, Type 1, BuildingBlock: PAMTOO_clean_sbu_0, # of connection points: 6
#     Node 9, Type 1, BuildingBlock: PAMTOO_clean_sbu_0, # of connection points: 6
#     Node 10, Type 1, BuildingBlock: PAMTOO_clean_sbu_0, # of connection points: 6
#     Node 11, Type 1, BuildingBlock: PAMTOO_clean_sbu_0, # of connection points: 6
#     Edge 12, Type (0, 1), BuildingBlock: ZUJKAS_clean_linker_0, # of connection points: 2
#     Edge 13, Type (0, 1), BuildingBlock: ZUJKAS_clean_linker_0, # of connection points: 2
#     Edge 14, Type (0, 1), BuildingBlock: ZUJKAS_clean_linker_0, # of connection points: 2
#     Edge 15, Type (0, 1), BuildingBlock: ZUJKAS_clean_linker_0, # of connection points: 2
#     Edge 16, Type (0, 1), BuildingBlock: ZUJKAS_clean_linker_0, # of connection points: 2
#     Edge 17, Type (0, 1), BuildingBlock: ZUJKAS_clean_linker_0, # of connection points: 2
#     Edge 18, Type (0, 1), BuildingBlock: ZUJKAS_clean_linker_0, # of connection points: 2
#     Edge 19, Type (0, 1), BuildingBlock: ZUJKAS_clean_linker_0, # of connection points: 2
#     Edge 20, Type (0, 1), BuildingBlock: ZUJKAS_clean_linker_0, # of connection points: 2
#     Edge 21, Type (0, 1), BuildingBlock: ZUJKAS_clean_linker_0, # of connection points: 2
#     Edge 22, Type (0, 1), BuildingBlock: ZUJKAS_clean_linker_0, # of connection points: 2
#     Edge 23, Type (0, 1), BuildingBlock: ZUJKAS_clean_linker_0, # of connection points: 2
#     Edge 24, Type (0, 1), BuildingBlock: ZUJKAS_clean_linker_0, # of connection points: 2
#     Edge 25, Type (0, 1), BuildingBlock: ZUJKAS_clean_linker_0, # of connection points: 2
#     Edge 26, Type (0, 1), BuildingBlock: ZUJKAS_clean_linker_0, # of connection points: 2
#     Edge 27, Type (0, 1), BuildingBlock: ZUJKAS_clean_linker_0, # of connection points: 2
#     Edge 28, Type (0, 1), BuildingBlock: ZUJKAS_clean_linker_0, # of connection points: 2
#     Edge 29, Type (0, 1), BuildingBlock: ZUJKAS_clean_linker_0, # of connection points: 2
#     Edge 30, Type (0, 1), BuildingBlock: ZUJKAS_clean_linker_0, # of connection points: 2
#     Edge 31, Type (0, 1), BuildingBlock: ZUJKAS_clean_linker_0, # of connection points: 2
#     Edge 32, Type (0, 1), BuildingBlock: ZUJKAS_clean_linker_0, # of connection points: 2
#     Edge 33, Type (0, 1), BuildingBlock: ZUJKAS_clean_linker_0, # of connection points: 2
#     Edge 34, Type (0, 1), BuildingBlock: ZUJKAS_clean_linker_0, # of connection points: 2
#     Edge 35, Type (0, 1), BuildingBlock: ZUJKAS_clean_linker_0, # of connection points: 2
# Relax obj value: 0.120
# Max RMSD: 0.248
# Mean RMSD: 0.180
data_MOF--net-pyr--node1-PAMTOO_clean_sbu_0--node2-QEWDON_clean_linker_0--edge1-ZUJKAS_clean_linker_0
_symmetry_space_group_name_H-M    P1
_symmetry_Int_Tables_number       1
_symmetry_cell_setting            triclinic
loop_
_symmetry_equiv_pos_as_xyz
'x, y, z'
_cell_length_a     47.846775
_cell_length_b     50.57631
_cell_length_c     54.094035
_cell_angle_alpha  90.155586
_cell_angle_beta   90.395511
_cell_angle_gamma 111.649
loop_
_atom_site_label
_atom_site_type_symbol
_atom_site_fract_x
_atom_site_fract_y
_atom_site_fract_z
_atom_type_partial_charge
H0 H 0.3599 0.29637 0.17163 0.0
C1 C 0.34364 0.28718 0.18607 0.0
C2 C 0.33912 0.25977 0.19475 0.0
C3 C 0.32665 0.30247 0.19534 0.0
H4 H 0.31441 0.22692 0.22024 0.0
C5 C 0.31739 0.24772 0.21294 0.0
C6 C 0.30037 0.26274 0.22255 0.0
C7 C 0.3051 0.29009 0.21364 0.0
C8 C 0.33145 0.33134 0.1859 0.0
H9 H 0.29209 0.30183 0.22107 0.0
C10 C 0.30678 0.33902 0.17999 0.0
C11 C 0.31119 0.36626 0.17076 0.0
C12 C 0.36073 0.35129 0.18257 0.0
H13 H 0.38014 0.34606 0.18721 0.0
C14 C 0.36526 0.37837 0.17355 0.0
H15 H 0.28415 0.32351 0.18192 0.0
C16 C 0.34072 0.38586 0.16766 0.0
H17 H 0.34487 0.40712 0.16093 0.0
H18 H 0.3879 0.39366 0.17119 0.0
H19 H 0.20334 0.83391 0.74628 0.0
C20 C 0.218 0.82502 0.73713 0.0
C21 C 0.24691 0.83028 0.74673 0.0
C22 C 0.20783 0.80819 0.7158 0.0
H23 H 0.28782 0.8223 0.74211 0.0
C24 C 0.26572 0.8189 0.73451 0.0
C25 C 0.25604 0.8023 0.71305 0.0
C26 C 0.22684 0.79664 0.70396 0.0
C27 C 0.17748 0.80302 0.70566 0.0
H28 H 0.21922 0.78398 0.6873 0.0
C29 C 0.16865 0.826 0.70034 0.0
C30 C 0.14002 0.82132 0.69023 0.0
C31 C 0.15736 0.77516 0.701 0.0
H32 H 0.16373 0.75715 0.70499 0.0
C33 C 0.12872 0.77033 0.69143 0.0
H34 H 0.18424 0.84754 0.70378 0.0
C35 C 0.12004 0.79321 0.68605 0.0
H36 H 0.09797 0.78894 0.67806 0.0
H37 H 0.11327 0.74879 0.68795 0.0
H38 H 0.68005 0.45515 0.88589 0.0
C39 C 0.67104 0.43232 0.88861 0.0
C40 C 0.68726 0.41946 0.9028 0.0
C41 C 0.64197 0.41614 0.87981 0.0
H42 H 0.68704 0.38005 0.91793 0.0
C43 C 0.67465 0.39 0.90694 0.0
C44 C 0.64566 0.37351 0.89837 0.0
C45 C 0.62937 0.38683 0.88487 0.0
C46 C 0.62281 0.43051 0.86911 0.0
H47 H 0.60663 0.37458 0.87873 0.0
C48 C 0.62837 0.44333 0.84559 0.0
C49 C 0.60982 0.45729 0.83628 0.0
C50 C 0.59866 0.43162 0.88309 0.0
H51 H 0.59407 0.42191 0.90119 0.0
C52 C 0.58048 0.44554 0.87403 0.0
H53 H 0.64689 0.44242 0.83466 0.0
C54 C 0.586 0.45832 0.85085 0.0
H55 H 0.57119 0.46858 0.84408 0.0
H56 H 0.56195 0.44633 0.88498 0.0
H57 H 0.89804 0.77194 0.34163 0.0
C58 C 0.88185 0.75845 0.35457 0.0
C59 C 0.88362 0.76622 0.37973 0.0
C60 C 0.85813 0.73419 0.34582 0.0
H61 H 0.86249 0.75538 0.41531 0.0
C62 C 0.86167 0.74914 0.39605 0.0
C63 C 0.83757 0.72514 0.38757 0.0
C64 C 0.83622 0.7176 0.36246 0.0
C65 C 0.85312 0.72868 0.31891 0.0
H66 H 0.81717 0.69971 0.3555 0.0
C67 C 0.87349 0.72163 0.30399 0.0
C68 C 0.86755 0.71615 0.27844 0.0
C69 C 0.82706 0.73036 0.30813 0.0
H70 H 0.81118 0.73582 0.31924 0.0
C71 C 0.82126 0.7252 0.28297 0.0
H72 H 0.8936 0.72025 0.31224 0.0
C73 C 0.84123 0.71809 0.26824 0.0
H74 H 0.83571 0.71354 0.24884 0.0
H75 H 0.80106 0.7265 0.27487 0.0
H76 H 0.7237 0.79602 0.92391 0.0
C77 C 0.73317 0.80747 0.90717 0.0
C78 C 0.7628 0.81157 0.90051 0.0
C79 C 0.71575 0.81836 0.89237 0.0
H80 H 0.79716 0.82887 0.87315 0.0
C81 C 0.77448 0.82608 0.87857 0.0
C82 C 0.75703 0.83639 0.86323 0.0
C83 C 0.72776 0.83293 0.87054 0.0
C84 C 0.68427 0.81293 0.89888 0.0
H85 H 0.71383 0.84045 0.85879 0.0
C86 C 0.67589 0.83493 0.90807 0.0
C87 C 0.64571 0.82966 0.91421 0.0
C88 C 0.66247 0.78558 0.89572 0.0
H89 H 0.66863 0.76843 0.88865 0.0
C90 C 0.6325 0.78028 0.90133 0.0
H91 H 0.69306 0.85584 0.91097 0.0
C92 C 0.62409 0.8021 0.91042 0.0
H93 H 0.60058 0.79737 0.91432 0.0
H94 H 0.61568 0.75919 0.89858 0.0
H95 H 0.8387 0.26607 0.46098 0.0
C96 C 0.8248 0.25928 0.44454 0.0
C97 C 0.8326 0.2433 0.42646 0.0
C98 C 0.79904 0.26615 0.44183 0.0
H99 H 0.82079 0.2229 0.39079 0.0
C100 C 0.81514 0.23542 0.40479 0.0
C101 C 0.78986 0.24287 0.40133 0.0
C102 C 0.7819 0.25816 0.41993 0.0
C103 C 0.78902 0.2798 0.46263 0.0
H104 H 0.76154 0.26261 0.41775 0.0
C105 C 0.77518 0.2996 0.45818 0.0
C106 C 0.76457 0.31143 0.47791 0.0
C107 C 0.79235 0.27226 0.48721 0.0
H108 H 0.80211 0.25656 0.49137 0.0
C109 C 0.78235 0.28428 0.50681 0.0
H110 H 0.77288 0.30598 0.43942 0.0
C111 C 0.76846 0.30363 0.50226 0.0
H112 H 0.76005 0.3119 0.51783 0.0
H113 H 0.78487 0.27815 0.5256 0.0
H114 H 0.42623 0.75976 0.25247 0.0
C115 C 0.40327 0.74919 0.24599 0.0
C116 C 0.38922 0.76443 0.23225 0.0
C117 C 0.38831 0.71996 0.25022 0.0
H118 H 0.34989 0.76164 0.21126 0.0
C119 C 0.35999 0.75015 0.22294 0.0
C120 C 0.34489 0.7208 0.2266 0.0
C121 C 0.35922 0.70594 0.24053 0.0
C122 C 0.40478 0.70303 0.26093 0.0
H123 H 0.34819 0.68322 0.24328 0.0
C124 C 0.41048 0.70295 0.28654 0.0
C125 C 0.42619 0.68633 0.29603 0.0
C126 C 0.4147 0.68648 0.24497 0.0
H127 H 0.41042 0.68628 0.22525 0.0
C128 C 0.43029 0.67017 0.25424 0.0
H129 H 0.40276 0.71567 0.2989 0.0
C130 C 0.43599 0.67004 0.27953 0.0
H131 H 0.44764 0.65671 0.28624 0.0
H132 H 0.43782 0.65743 0.24178 0.0
H133 H 0.20708 0.44261 0.75991 0.0
C134 C 0.19313 0.42416 0.74935 0.0
C135 C 0.19961 0.42131 0.72434 0.0
C136 C 0.16977 0.40237 0.76115 0.0
H137 H 0.18848 0.39364 0.69255 0.0
C138 C 0.18225 0.39654 0.71129 0.0
C139 C 0.15876 0.37451 0.72272 0.0
C140 C 0.1525 0.37788 0.74765 0.0
C141 C 0.1665 0.40252 0.78838 0.0
H142 H 0.13475 0.36105 0.75696 0.0
C143 C 0.1574 0.42259 0.80082 0.0
C144 C 0.15288 0.42063 0.82667 0.0
C145 C 0.17199 0.38134 0.80204 0.0
H146 H 0.17915 0.36585 0.79287 0.0
C147 C 0.16841 0.3799 0.82756 0.0
H148 H 0.1528 0.43881 0.79038 0.0
C149 C 0.15885 0.39927 0.83979 0.0
H150 H 0.15615 0.39756 0.85966 0.0
H151 H 0.17286 0.36356 0.8379 0.0
Dy152 Dy 0.06432 0.08071 0.53602 0.0
Dy153 Dy 0.99857 0.05634 0.56404 0.0
C154 C 0.05027 0.11395 0.58012 0.0
O155 O 0.06741 0.0475 0.56166 0.0
O156 O 0.02803 0.04175 0.58819 0.0
O157 O 0.10462 0.11634 0.527 0.0
O158 O 0.09886 0.07393 0.51438 0.0
O159 O 1.00186 0.02028 0.54189 0.0
O160 O 0.03264 0.04688 0.51164 0.0
O161 O 0.99012 0.07433 0.52849 0.0
O162 O 0.03804 0.1051 0.52003 0.0
O163 O 0.95157 0.02914 0.56602 0.0
O164 O 0.9717 0.0611 0.5943 0.0
C165 C 0.05249 0.03731 0.58201 0.0
O166 O 0.06984 0.10344 0.57219 0.0
O167 O 0.02197 0.10239 0.57337 0.0
C168 C 0.12532 0.11247 0.48865 0.0
C169 C 0.14538 0.13646 0.44209 0.0
C170 C 0.16569 0.14088 0.462 0.0
C171 C 0.15572 0.12895 0.48507 0.0
C172 C 0.10488 0.10793 0.4689 0.0
C173 C 0.11486 0.11974 0.44573 0.0
C174 C 0.11517 0.10102 0.51326 0.0
C175 C 0.01297 0.02261 0.51949 0.0
C176 C 0.00881 0.09626 0.51661 0.0
C177 C 0.93126 0.0204 0.60648 0.0
C178 C 0.90148 0.98577 0.64615 0.0
C179 C 0.92082 0.9777 0.63101 0.0
C180 C 0.93581 0.99503 0.61136 0.0
C181 C 0.91155 0.02814 0.62123 0.0
C182 C 0.89683 0.01103 0.64091 0.0
C183 C 0.94773 0.04003 0.58702 0.0
H184 H 0.18938 0.15335 0.45968 0.0
H185 H 0.17175 0.13271 0.50017 0.0
H186 H 0.08122 0.09545 0.47146 0.0
H187 H 0.09867 0.11619 0.4308 0.0
H188 H 0.92496 0.95843 0.63477 0.0
H189 H 0.95121 0.98887 0.60028 0.0
H190 H 0.90785 0.04769 0.61773 0.0
H191 H 0.88179 0.01759 0.65207 0.0
Dy192 Dy 0.49095 0.05204 0.04721 0.0
Dy193 Dy 0.55583 0.08059 0.0763 0.0
C194 C 0.50747 0.02161 0.09269 0.0
O195 O 0.48117 0.07082 0.08179 0.0
O196 O 0.52778 0.10483 0.0891 0.0
O197 O 0.44411 0.02378 0.04652 0.0
O198 O 0.46325 0.05203 0.01577 0.0
O199 O 0.56079 0.10035 0.03895 0.0
O200 O 0.51247 0.09775 0.03643 0.0
O201 O 0.56194 0.0478 0.05151 0.0
O202 O 0.52176 0.03799 0.02447 0.0
O203 O 0.59401 0.11822 0.08636 0.0
O204 O 0.59163 0.07663 0.09858 0.0
C205 C 0.49855 0.09468 0.09227 0.0
O206 O 0.4976 0.01793 0.06976 0.0
O207 O 0.52488 0.0469 0.10077 0.0
C208 C 0.42275 0.00916 1.00673 0.0
C209 C 0.3881 0.97191 0.9697 0.0
C210 C 0.37425 0.9782 0.99056 0.0
C211 C 0.39144 0.99674 1.00885 0.0
C212 C 0.4369 1.00179 0.98665 0.0
C213 C 0.4197 0.98336 0.96825 0.0
C214 C 0.43972 0.0316 0.02434 0.0
C215 C 0.54068 0.10964 0.02988 0.0
C216 C 0.54731 0.03584 0.03124 0.0
C217 C 0.616 0.11605 0.12505 0.0
C218 C 0.63692 0.13956 0.17203 0.0
C219 C 0.65093 0.15355 0.15047 0.0
C220 C 0.6406 0.14183 0.12721 0.0
C221 C 0.60159 0.10221 0.14652 0.0
C222 C 0.61208 0.11381 0.16983 0.0
C223 C 0.60595 0.1041 0.10026 0.0
H224 H 0.35003 0.9693 0.9925 0.0
H225 H 0.38017 1.00211 0.02428 0.0
H226 H 0.46111 0.01108 0.9847 0.0
H227 H 0.43111 0.97916 0.95237 0.0
H228 H 0.67031 0.17324 0.15159 0.0
H229 H 0.65199 0.15283 0.11085 0.0
H230 H 0.58234 0.08241 0.14532 0.0
H231 H 0.60068 0.10272 0.18614 0.0
Dy232 Dy 0.5188 0.54976 0.55253 0.0
Dy233 Dy 0.53325 0.61121 0.58092 0.0
C234 C 0.55366 0.56377 0.6049 0.0
O235 O 0.47438 0.54726 0.56743 0.0
O236 O 0.49212 0.5804 0.59848 0.0
O237 O 0.50792 0.50427 0.5532 0.0
O238 O 0.51287 0.52613 0.51836 0.0
O239 O 0.49916 0.60838 0.55149 0.0
O240 O 0.51248 0.57998 0.52504 0.0
O241 O 0.56947 0.61884 0.55288 0.0
O242 O 0.56815 0.57331 0.54801 0.0
O243 O 0.54433 0.65657 0.5791 0.0
O244 O 0.53754 0.63556 0.61457 0.0
C245 C 0.4704 0.55896 0.58818 0.0
O246 O 0.53364 0.54466 0.59091 0.0
O247 O 0.56146 0.59115 0.60082 0.0
C248 C 0.53079 0.489 0.52079 0.0
C249 C 0.57083 0.46386 0.50387 0.0
C250 C 0.58176 0.49111 0.51476 0.0
C251 C 0.56192 0.50346 0.52325 0.0
C252 C 0.51965 0.46195 0.50984 0.0
C253 C 0.53951 0.44942 0.50148 0.0
C254 C 0.51017 0.50245 0.52933 0.0
C255 C 0.49996 0.59866 0.52912 0.0
C256 C 0.58147 0.60087 0.54489 0.0
C257 C 0.51817 0.67141 0.60924 0.0
C258 C 0.47441 0.69336 0.62343 0.0
C259 C 0.46754 0.67134 0.6058 0.0
C260 C 0.48918 0.66039 0.59887 0.0
C261 C 0.52534 0.69353 0.62662 0.0
C262 C 0.50363 0.70446 0.63367 0.0
C263 C 0.54024 0.65876 0.60272 0.0
H264 H 0.60569 0.50304 0.51658 0.0
H265 H 0.57087 0.52435 0.5317 0.0
H266 H 0.49564 0.45051 0.50784 0.0
H267 H 0.53031 0.42825 0.49351 0.0
H268 H 0.44545 0.66258 0.59728 0.0
H269 H 0.48319 0.64314 0.58552 0.0
H270 H 0.54755 0.70205 0.63498 0.0
H271 H 0.50954 0.72115 0.64754 0.0
Dy272 Dy 0.03163 0.61198 0.03689 0.0
Dy273 Dy 0.01834 0.55149 0.06585 0.0
C274 C 0.99806 0.60014 0.0884 0.0
O275 O 0.0673 0.6205 0.06604 0.0
O276 O 0.06779 0.57559 0.06905 0.0
O277 O 0.04332 0.65748 0.03818 0.0
O278 O 0.03409 0.63532 1.00303 0.0
O279 O 0.03176 0.54569 0.02731 0.0
O280 O 0.06011 0.59185 0.01757 0.0
O281 O 0.97335 0.54854 0.05148 0.0
O282 O 0.99033 0.58016 0.01964 0.0
O283 O 0.00388 0.50561 0.06578 0.0
O284 O 0.01915 0.52935 0.09972 0.0
C285 C 0.08024 0.60302 0.07336 0.0
O286 O 0.99776 0.6097 0.06591 0.0
O287 O 0.01 0.58111 0.09307 0.0
C288 C 0.01586 0.672 1.00866 0.0
C289 C 0.97245 0.69524 0.99597 0.0
C290 C 0.96579 0.67297 0.01315 0.0
C291 C 0.98724 0.6614 0.01935 0.0
C292 C 0.02282 0.69432 0.9917 0.0
C293 C 1.00129 0.70588 0.98538 0.0
C294 C 0.03789 0.65901 0.01468 0.0
C295 C 0.05193 0.56438 0.01345 0.0
C296 C 0.96883 0.55921 0.03036 0.0
C297 C 0.0328 0.49005 0.09333 0.0
C298 C 0.07489 0.46503 0.10523 0.0
C299 C 0.08209 0.48749 0.08819 0.0
C300 C 0.06124 0.4999 0.08232 0.0
C301 C 0.02521 0.46732 0.10992 0.0
C302 C 0.04607 0.45483 0.11579 0.0
C303 C 0.01197 0.50476 0.08873 0.0
H304 H 0.94401 0.66452 0.02192 0.0
H305 H 0.98142 0.64405 0.03242 0.0
H306 H 0.04474 0.70258 0.98314 0.0
H307 H 0.00703 0.72274 0.97184 0.0
H308 H 0.10392 0.49557 0.07947 0.0
H309 H 0.06749 0.51753 0.0695 0.0
H310 H 0.00341 0.45964 0.11871 0.0
H311 H 0.03994 0.43777 0.12916 0.0
H312 H 0.25865 0.20865 0.225 0.0
H313 H 0.22566 0.18659 0.25961 0.0
H314 H 0.26052 0.26586 0.30007 0.0
H315 H 0.29325 0.28807 0.26544 0.0
H316 H 0.24394 0.1797 0.30546 0.0
H317 H 0.17131 0.24304 0.31097 0.0
H318 H 0.19421 0.24389 0.28437 0.0
H319 H 0.21057 0.26487 0.31141 0.0
C320 C 0.25901 0.22142 0.24119 0.0
C321 C 0.2785 0.25008 0.24255 0.0
C322 C 0.2401 0.20884 0.26089 0.0
C323 C 0.2403 0.22467 0.28229 0.0
C324 C 0.25937 0.25343 0.2835 0.0
H325 H 0.18405 0.19053 0.43253 0.0
H326 H 0.20443 0.21073 0.39249 0.0
C327 C 0.27815 0.26608 0.26373 0.0
C328 C 0.22263 0.21049 0.30414 0.0
H329 H 0.1722 0.21522 0.34667 0.0
C330 C 0.22792 0.18721 0.31425 0.0
C331 C 0.20176 0.22034 0.31561 0.0
C332 C 0.19388 0.24423 0.30489 0.0
C333 C 0.21376 0.17416 0.33601 0.0
C334 C 0.19358 0.18452 0.34783 0.0
C335 C 0.18777 0.20741 0.33752 0.0
C336 C 0.17952 0.17268 0.37161 0.0
C337 C 0.22127 0.15003 0.34672 0.0
C338 C 0.15838 0.14478 0.37297 0.0
C339 C 0.14676 0.13315 0.39582 0.0
C340 C 0.15618 0.14925 0.41765 0.0
C341 C 0.17674 0.17747 0.41607 0.0
C342 C 0.18821 0.1891 0.39323 0.0
H343 H 0.24105 0.14777 0.33765 0.0
H344 H 0.22595 0.15331 0.36687 0.0
H345 H 0.20174 0.1298 0.34417 0.0
H346 H 0.15125 0.13189 0.3564 0.0
H347 H 0.13106 0.11132 0.39647 0.0
H348 H 0.30209 0.8712 0.75601 0.0
H349 H 0.32163 0.89464 0.79541 0.0
H350 H 0.2353 0.85134 0.82897 0.0
H351 H 0.21582 0.82693 0.78972 0.0
H352 H 0.30389 0.92976 0.82526 0.0
H353 H 0.29285 0.82951 0.87348 0.0
H354 H 0.28931 0.83139 0.84036 0.0
H355 H 0.25869 0.83011 0.85997 0.0
C356 C 0.28726 0.8666 0.77179 0.0
C357 C 0.25753 0.84693 0.76986 0.0
C358 C 0.29841 0.88013 0.79424 0.0
C359 C 0.28008 0.87429 0.81519 0.0
C360 C 0.24998 0.85567 0.81311 0.0
H361 H 0.33606 0.97458 0.95075 0.0
H362 H 0.30758 0.94971 0.91458 0.0
C363 C 0.23879 0.84203 0.79062 0.0
C364 C 0.29295 0.88736 0.83923 0.0
H365 H 0.31073 0.87178 0.89724 0.0
C366 C 0.30525 0.91712 0.84106 0.0
C367 C 0.29506 0.87074 0.85965 0.0
C368 C 0.28354 0.83867 0.85832 0.0
C369 C 0.3198 0.93079 0.86274 0.0
C370 C 0.32154 0.91418 0.88328 0.0
C371 C 0.30911 0.88441 0.88151 0.0
C372 C 0.33728 0.92738 0.90641 0.0
C373 C 0.33407 0.96285 0.86315 0.0
C374 C 0.36268 0.9221 0.91442 0.0
C375 C 0.37877 0.93591 0.93537 0.0
C376 C 0.36967 0.95522 0.94873 0.0
C377 C 0.34357 0.95966 0.94108 0.0
C378 C 0.32745 0.94575 0.92021 0.0
H379 H 0.33717 0.97188 0.84421 0.0
H380 H 0.31931 0.97156 0.87335 0.0
H381 H 0.35628 0.97013 0.87267 0.0
H382 H 0.37047 0.90779 0.9041 0.0
H383 H 0.39848 0.93168 0.94098 0.0
H384 H 0.61255 0.5103 0.82354 0.0
H385 H 0.61038 0.52836 0.78188 0.0
H386 H 0.61312 0.45093 0.75054 0.0
H387 H 0.61538 0.4327 0.79232 0.0
H388 H 0.65002 0.53243 0.73589 0.0
H389 H 0.53012 0.45927 0.72863 0.0
H390 H 0.54913 0.46944 0.75809 0.0
H391 H 0.55747 0.4447 0.73851 0.0
C392 C 0.61324 0.49733 0.80776 0.0
C393 C 0.61397 0.47002 0.81117 0.0
C394 C 0.61207 0.50771 0.78399 0.0
C395 C 0.61132 0.49089 0.76317 0.0
C396 C 0.61358 0.46419 0.76641 0.0
H397 H 0.55282 0.51026 0.61356 0.0
H398 H 0.57021 0.49293 0.65044 0.0
C399 C 0.61505 0.45388 0.79025 0.0
C400 C 0.60558 0.50042 0.73836 0.0
H401 H 0.54977 0.49017 0.69552 0.0
C402 C 0.62821 0.52311 0.7269 0.0
C403 C 0.57711 0.48821 0.72674 0.0
C404 C 0.55188 0.46414 0.73855 0.0
C405 C 0.62311 0.53387 0.70403 0.0
C406 C 0.59429 0.52218 0.6927 0.0
C407 C 0.57185 0.49919 0.7041 0.0
C408 C 0.58647 0.53364 0.66934 0.0
C409 C 0.64881 0.55734 0.69211 0.0
C410 C 0.58996 0.56242 0.66744 0.0
C411 C 0.58033 0.5725 0.64616 0.0
C412 C 0.56644 0.55389 0.62652 0.0
C413 C 0.56332 0.52519 0.62835 0.0
C414 C 0.57326 0.51522 0.64947 0.0
H415 H 0.67089 0.55724 0.6985 0.0
H416 H 0.64766 0.55542 0.67164 0.0
H417 H 0.64778 0.57818 0.69734 0.0
H418 H 0.59926 0.57695 0.68271 0.0
H419 H 0.5828 0.59465 0.64549 0.0
H420 H 0.88632 0.73492 0.2319 0.0
H421 H 0.91204 0.71518 0.20254 0.0
H422 H 0.92066 0.65807 0.25852 0.0
H423 H 0.89393 0.67719 0.2879 0.0
H424 H 0.9674 0.71048 0.20171 0.0
H425 H 0.87638 0.60341 0.2033 0.0
H426 H 0.8722 0.63424 0.21708 0.0
H427 H 0.89341 0.61644 0.2328 0.0
C428 C 0.89377 0.71821 0.23803 0.0
C429 C 0.88763 0.70733 0.26216 0.0
C430 C 0.90861 0.70702 0.22123 0.0
C431 C 0.91768 0.68466 0.22809 0.0
C432 C 0.91323 0.67486 0.25261 0.0
H433 H 0.99252 0.58385 0.13699 0.0
H434 H 0.97439 0.60446 0.17141 0.0
C435 C 0.8983 0.68606 0.26949 0.0
C436 C 0.93071 0.67118 0.20917 0.0
H437 H 0.91781 0.60896 0.17771 0.0
C438 C 0.95662 0.68825 0.19654 0.0
C439 C 0.91659 0.64217 0.20233 0.0
C440 C 0.88797 0.62298 0.21439 0.0
C441 C 0.96873 0.67717 0.1773 0.0
C442 C 0.95432 0.64832 0.1702 0.0
C443 C 0.92879 0.63108 0.18313 0.0
C444 C 0.96508 0.63573 0.14913 0.0
C445 C 0.99701 0.69639 0.16484 0.0
C446 C 0.96533 0.64608 0.12502 0.0
C447 C 0.97558 0.63427 0.10523 0.0
C448 C 0.98575 0.6118 0.10913 0.0
C449 C 0.98495 0.60117 0.13326 0.0
C450 C 0.9746 0.61293 0.153 0.0
H451 H 0.00948 0.7153 0.17643 0.0
H452 H 0.01215 0.68481 0.16066 0.0
H453 H 0.99093 0.70403 0.14713 0.0
H454 H 0.95752 0.66328 0.12149 0.0
H455 H 0.97578 0.64297 0.08693 0.0
H456 H 0.31917 0.20371 0.18132 0.0
H457 H 0.34889 0.17691 0.16592 0.0
H458 H 0.42916 0.25261 0.17007 0.0
H459 H 0.39967 0.27949 0.186 0.0
H460 H 0.38511 0.18915 0.12251 0.0
H461 H 0.45179 0.1918 0.20778 0.0
H462 H 0.41763 0.19922 0.20807 0.0
H463 H 0.45199 0.22556 0.19723 0.0
C464 C 0.3432 0.21459 0.1792 0.0
C465 C 0.35711 0.24368 0.18497 0.0
C466 C 0.3601 0.19929 0.17031 0.0
C467 C 0.39124 0.21272 0.16719 0.0
C468 C 0.40522 0.24178 0.17273 0.0
H469 H 0.52496 0.14907 0.11042 0.0
H470 H 0.49975 0.17827 0.12931 0.0
C471 C 0.3883 0.25716 0.18156 0.0
C472 C 0.40879 0.19637 0.15735 0.0
H473 H 0.46365 0.17088 0.17219 0.0
C474 C 0.40227 0.18512 0.13336 0.0
C475 C 0.43127 0.19136 0.17154 0.0
C476 C 0.43855 0.2024 0.19767 0.0
C477 C 0.41769 0.169 0.12309 0.0
C478 C 0.43975 0.16347 0.13743 0.0
C479 C 0.44664 0.17509 0.16131 0.0
C480 C 0.45543 0.1452 0.12798 0.0
C481 C 0.41047 0.15831 0.09684 0.0
C482 C 0.43899 0.1167 0.1218 0.0
C483 C 0.45323 0.10002 0.11098 0.0
C484 C 0.48429 0.11146 0.10631 0.0
C485 C 0.501 0.13963 0.11368 0.0
C486 C 0.48665 0.15636 0.12446 0.0
H487 H 0.39936 0.17064 0.08635 0.0
H488 H 0.43112 0.1595 0.08689 0.0
H489 H 0.39487 0.13575 0.09707 0.0
H490 H 0.41497 0.10751 0.12491 0.0
H491 H 0.43972 0.07832 0.10581 0.0
H492 H 0.17424 0.86933 0.66571 0.0
H493 H 0.15937 0.90814 0.65147 0.0
H494 H 0.07164 0.86689 0.68327 0.0
H495 H 0.08648 0.82808 0.69793 0.0
H496 H 0.1078 0.89867 0.61881 0.0
H497 H 0.10008 0.95192 0.70728 0.0
H498 H 0.12192 0.92958 0.70434 0.0
H499 H 0.0817 0.91381 0.706 0.0
C500 C 0.15197 0.86877 0.67011 0.0
C501 C 0.13154 0.84567 0.68298 0.0
C502 C 0.14349 0.89088 0.66186 0.0
C503 C 0.11454 0.89047 0.66655 0.0
C504 C 0.09423 0.86775 0.67978 0.0
H505 H 0.02114 1.00038 0.61804 0.0
H506 H 0.03618 0.9652 0.63974 0.0
C507 C 0.10264 0.8455 0.68792 0.0
C508 C 0.105 0.91277 0.65595 0.0
H509 H 0.08472 0.96883 0.67089 0.0
C510 C 0.10282 0.91407 0.63017 0.0
C511 C 0.09823 0.93255 0.67089 0.0
C512 C 0.10073 0.93218 0.69868 0.0
C513 C 0.09392 0.93463 0.61884 0.0
C514 C 0.08782 0.95491 0.63371 0.0
C515 C 0.08959 0.95337 0.65956 0.0
C516 C 0.07985 0.97795 0.62256 0.0
C517 C 0.09061 0.93408 0.59104 0.0
C518 C 0.09985 0.99741 0.60643 0.0
C519 C 0.0913 0.01734 0.59391 0.0
C520 C 0.06269 0.01848 0.59754 0.0
C521 C 0.04332 1.00004 0.61481 0.0
C522 C 0.05185 0.97991 0.62721 0.0
H523 H 0.08775 0.91291 0.58319 0.0
H524 H 0.07106 0.93952 0.5853 0.0
H525 H 0.11119 0.94996 0.58293 0.0
H526 H 0.12187 0.99673 0.60307 0.0
H527 H 0.10693 0.03148 0.581 0.0
H528 H 0.73562 0.46351 0.88391 0.0
H529 H 0.78388 0.48974 0.90477 0.0
H530 H 0.75181 0.44065 0.97078 0.0
H531 H 0.70378 0.41485 0.95042 0.0
H532 H 0.79569 0.52162 0.95217 0.0
H533 H 0.83116 0.42873 0.95326 0.0
H534 H 0.8019 0.43073 0.93294 0.0
H535 H 0.79408 0.42185 0.96494 0.0
C536 C 0.73883 0.4585 0.90292 0.0
C537 C 0.71608 0.4367 0.91533 0.0
C538 C 0.76638 0.47342 0.91477 0.0
C539 C 0.77156 0.46669 0.93914 0.0
C540 C 0.74851 0.44571 0.95179 0.0
H541 H 0.91829 0.51507 0.04549 0.0
H542 H 0.87019 0.49416 0.02342 0.0
C543 C 0.7211 0.43092 0.94006 0.0
C544 C 0.80103 0.48122 0.95155 0.0
H545 H 0.86017 0.46868 0.97754 0.0
C546 C 0.80998 0.51019 0.95755 0.0
C547 C 0.81946 0.46613 0.95865 0.0
C548 C 0.81138 0.43519 0.95197 0.0
C549 C 0.83655 0.52431 0.97111 0.0
C550 C 0.85488 0.50914 0.9784 0.0
C551 C 0.84603 0.48024 0.9721 0.0
C552 C 0.88354 0.52281 0.99231 0.0
C553 C 0.84425 0.5551 0.97814 0.0
C554 C 0.90707 0.54577 0.98213 0.0
C555 C 0.9345 0.55782 0.99472 0.0
C556 C 0.93916 0.54697 0.01768 0.0
C557 C 0.9155 0.524 0.02789 0.0
C558 C 0.888 0.51199 0.01528 0.0
H559 H 0.82416 0.56115 0.97737 0.0
H560 H 0.85414 0.55957 0.99704 0.0
H561 H 0.861 0.5688 0.96497 0.0
H562 H 0.90444 0.55406 0.96419 0.0
H563 H 0.95221 0.57541 0.9862 0.0
H564 H 0.8101 0.7485 0.42039 0.0
H565 H 0.76787 0.72408 0.44743 0.0
H566 H 0.76444 0.64306 0.41939 0.0
H567 H 0.80731 0.66745 0.39241 0.0
H568 H 0.70956 0.6858 0.43106 0.0
H569 H 0.7647 0.63488 0.49633 0.0
H570 H 0.78593 0.66459 0.47713 0.0
H571 H 0.76886 0.62971 0.46383 0.0
C572 C 0.80077 0.72546 0.42025 0.0
C573 C 0.81232 0.7099 0.40443 0.0
C574 C 0.77648 0.71155 0.43561 0.0
C575 C 0.76326 0.68178 0.43563 0.0
C576 C 0.77463 0.66606 0.41991 0.0
H577 H 0.61012 0.57046 0.52053 0.0
H578 H 0.65412 0.58897 0.49386 0.0
C579 C 0.79894 0.68001 0.40439 0.0
C580 C 0.73675 0.66754 0.45142 0.0
H581 H 0.71322 0.62582 0.50251 0.0
C582 C 0.71031 0.67262 0.44665 0.0
C583 C 0.73776 0.65021 0.47161 0.0
C584 C 0.76584 0.64456 0.47777 0.0
C585 C 0.68488 0.66098 0.4616 0.0
C586 C 0.68615 0.64437 0.4823 0.0
C587 C 0.71236 0.63871 0.48675 0.0
C588 C 0.66062 0.63318 0.4997 0.0
C589 C 0.65676 0.66635 0.45491 0.0
C590 C 0.65019 0.6519 0.51245 0.0
C591 C 0.62499 0.64142 0.52764 0.0
C592 C 0.60982 0.61195 0.53061 0.0
C593 C 0.62112 0.59326 0.51864 0.0
C594 C 0.6463 0.6038 0.50336 0.0
H595 H 0.65654 0.67211 0.43512 0.0
H596 H 0.63626 0.64738 0.45866 0.0
H597 H 0.6558 0.68436 0.46618 0.0
H598 H 0.66134 0.67469 0.51039 0.0
H599 H 0.61715 0.65647 0.53672 0.0
H600 H 0.25885 0.35456 0.19641 0.0
H601 H 0.21598 0.3678 0.18557 0.0
H602 H 0.26201 0.40985 0.12014 0.0
H603 H 0.30452 0.39599 0.1304 0.0
H604 H 0.21554 0.4222 0.17965 0.0
H605 H 0.17936 0.35909 0.09328 0.0
H606 H 0.20466 0.35284 0.1154 0.0
H607 H 0.21846 0.38158 0.09373 0.0
C608 C 0.25966 0.36627 0.17952 0.0
C609 C 0.28506 0.37415 0.16422 0.0
C610 C 0.23523 0.37395 0.17344 0.0
C611 C 0.23565 0.38944 0.15188 0.0
C612 C 0.26099 0.39743 0.13663 0.0
H613 H 0.13461 0.49388 0.11496 0.0
H614 H 0.17231 0.47424 0.1269 0.0
C615 C 0.28542 0.38979 0.14268 0.0
C616 C 0.21013 0.39825 0.1458 0.0
H617 H 0.15835 0.39444 0.10081 0.0
C618 C 0.20287 0.41596 0.16251 0.0
C619 C 0.19338 0.38976 0.12358 0.0
C620 C 0.19911 0.36954 0.10556 0.0
C621 C 0.17992 0.42617 0.15722 0.0
C622 C 0.16414 0.41877 0.13447 0.0
C623 C 0.17072 0.40031 0.11812 0.0
C624 C 0.14119 0.4305 0.12706 0.0
C625 C 0.1727 0.44471 0.17607 0.0
C626 C 0.11134 0.41233 0.12256 0.0
C627 C 0.08975 0.42347 0.11546 0.0
C628 C 0.09773 0.45298 0.11252 0.0
C629 C 0.12777 0.47104 0.11681 0.0
C630 C 0.14928 0.4599 0.12393 0.0
H631 H 0.18071 0.44192 0.19485 0.0
H632 H 0.18406 0.46735 0.17086 0.0
H633 H 0.14812 0.43992 0.17677 0.0
H634 H 0.10472 0.38954 0.12469 0.0
H635 H 0.0669 0.40897 0.11201 0.0
H636 H 0.58868 0.34502 0.91568 0.0
H637 H 0.56901 0.29751 0.9341 0.0
H638 H 0.65188 0.28622 0.91748 0.0
H639 H 0.67154 0.33341 0.89864 0.0
H640 H 0.56454 0.23992 0.91485 0.0
H641 H 0.64211 0.28072 0.9951 0.0
H642 H 0.6328 0.30399 0.9741 0.0
H643 H 0.65889 0.28788 0.965 0.0
C644 C 0.60243 0.33214 0.91534 0.0
C645 C 0.63181 0.34313 0.90589 0.0
C646 C 0.59121 0.30507 0.92601 0.0
C647 C 0.60919 0.2886 0.92747 0.0
C648 C 0.63783 0.2988 0.91683 0.0
H649 H 0.59622 0.13733 1.00981 0.0
H650 H 0.61193 0.17936 0.98337 0.0
C651 C 0.64902 0.32578 0.90612 0.0
C652 C 0.59891 0.26164 0.94157 0.0
H653 H 0.61286 0.23169 0.99442 0.0
C654 C 0.57502 0.23804 0.93226 0.0
C655 C 0.61271 0.25933 0.96424 0.0
C656 C 0.63792 0.28433 0.9754 0.0
C657 C 0.56486 0.21194 0.94487 0.0
C658 C 0.57853 0.20967 0.96768 0.0
C659 C 0.60244 0.23337 0.97692 0.0
C660 C 0.56831 0.18313 0.98252 0.0
C661 C 0.54007 0.1869 0.93336 0.0
C662 C 0.53859 0.17127 0.99097 0.0
C663 C 0.5295 0.14713 1.00598 0.0
C664 C 0.55005 0.13455 0.01315 0.0
C665 C 0.5798 0.14645 1.00466 0.0
C666 C 0.58882 0.17049 0.98952 0.0
H667 H 0.53838 0.18957 0.91309 0.0
H668 H 0.54367 0.16675 0.93678 0.0
H669 H 0.51826 0.18506 0.94161 0.0
H670 H 0.52254 0.18103 0.98639 0.0
H671 H 0.50647 0.13866 0.01233 0.0
H672 H 0.89793 0.81876 0.35897 0.0
H673 H 0.92641 0.86492 0.37819 0.0
H674 H 0.94594 0.82232 0.44114 0.0
H675 H 0.918 0.77621 0.42185 0.0
H676 H 0.90942 0.88126 0.42283 0.0
H677 H 0.02696 0.88643 0.42899 0.0
H678 H 0.9994 0.86223 0.40835 0.0
H679 H 1.00002 0.85381 0.44058 0.0
C680 C 0.90917 0.81925 0.37651 0.0
C681 C 0.90574 0.79384 0.3889 0.0
C682 C 0.92524 0.84564 0.38757 0.0
C683 C 0.93847 0.84711 0.41105 0.0
C684 C 0.93638 0.82178 0.42286 0.0
H685 H 0.96893 0.97053 0.52766 0.0
H686 H 0.95192 0.9293 0.49995 0.0
C687 C 0.92024 0.79542 0.41188 0.0
C688 C 0.95141 0.87474 0.42445 0.0
H689 H 0.01416 0.91859 0.45513 0.0
C690 C 0.93244 0.88959 0.42963 0.0
C691 C 0.98148 0.8857 0.43322 0.0
C692 C 1.00326 0.87138 0.42732 0.0
C693 C 0.94237 0.91452 0.44406 0.0
C694 C 0.97198 0.92474 0.4538 0.0
C695 C 0.99135 0.91054 0.44787 0.0
C696 C 0.98287 0.94973 0.47068 0.0
C697 C 0.92103 0.92966 0.4489 0.0
C698 C 0.00634 0.97476 0.46362 0.0
C699 C 0.01613 0.99847 0.47943 0.0
C700 C 1.00282 0.99747 0.50272 0.0
C701 C 0.97964 0.97215 0.50985 0.0
C702 C 0.96978 0.94855 0.49399 0.0
H703 H 0.90211 0.92334 0.43536 0.0
H704 H 0.91145 0.92413 0.46766 0.0
H705 H 0.93295 0.95309 0.44815 0.0
H706 H 0.01683 0.97606 0.44575 0.0
H707 H 0.03414 0.01756 0.47338 0.0
H708 H 0.24409 0.7481 0.69607 0.0
H709 H 0.28016 0.72882 0.67908 0.0
H710 H 0.35049 0.81186 0.6846 0.0
H711 H 0.31476 0.83113 0.70168 0.0
H712 H 0.31804 0.74369 0.63759 0.0
H713 H 0.38388 0.76175 0.72505 0.0
H714 H 0.34696 0.76359 0.72328 0.0
H715 H 0.3794 0.79314 0.71336 0.0
C716 C 0.26717 0.76225 0.69337 0.0
C717 C 0.27676 0.791 0.70049 0.0
C718 C 0.28773 0.75123 0.68376 0.0
C719 C 0.3181 0.76881 0.68115 0.0
C720 C 0.32733 0.79779 0.6871 0.0
H721 H 0.48092 0.74865 0.63275 0.0
H722 H 0.44223 0.76638 0.64612 0.0
C723 C 0.3069 0.80876 0.6968 0.0
C724 C 0.34039 0.75687 0.67271 0.0
H725 H 0.40554 0.74873 0.68989 0.0
C726 C 0.33707 0.7446 0.64905 0.0
C727 C 0.36512 0.75803 0.68778 0.0
C728 C 0.36898 0.76958 0.71387 0.0
C729 C 0.35835 0.73411 0.63979 0.0
C730 C 0.38331 0.73574 0.65473 0.0
C731 C 0.38645 0.74774 0.67846 0.0
C732 C 0.40641 0.72495 0.64618 0.0
C733 C 0.35439 0.72195 0.61394 0.0
C734 C 0.39907 0.69577 0.64214 0.0
C735 C 0.42114 0.68554 0.63477 0.0
C736 C 0.451 0.70433 0.63131 0.0
C737 C 0.45825 0.73358 0.63549 0.0
C738 C 0.43616 0.74377 0.64296 0.0
H739 H 0.33771 0.72771 0.60306 0.0
H740 H 0.37614 0.72954 0.60399 0.0
H741 H 0.34634 0.69841 0.61494 0.0
H742 H 0.37634 0.68086 0.64504 0.0
H743 H 0.41489 0.66283 0.6322 0.0
H744 H 0.7527 0.88417 0.84234 0.0
H745 H 0.77521 0.90705 0.80359 0.0
H746 H 0.8116 0.84183 0.7914 0.0
H747 H 0.7889 0.81864 0.82974 0.0
H748 H 0.85403 0.89857 0.78789 0.0
H749 H 0.75144 0.88063 0.73092 0.0
H750 H 0.75157 0.89575 0.76107 0.0
H751 H 0.75125 0.86025 0.75834 0.0
C752 C 0.7651 0.87448 0.8312 0.0
C753 C 0.76923 0.84973 0.83922 0.0
C754 C 0.77792 0.88755 0.80909 0.0
C755 C 0.79489 0.87599 0.79461 0.0
C756 C 0.79861 0.85108 0.80235 0.0
H757 H 0.8714 0.92808 0.64825 0.0
H758 H 0.84567 0.90005 0.6841 0.0
C759 C 0.78579 0.83799 0.82435 0.0
C760 C 0.81023 0.89064 0.77208 0.0
H761 H 0.79788 0.91148 0.71436 0.0
C762 C 0.84178 0.9013 0.77177 0.0
C763 C 0.79411 0.89386 0.75103 0.0
C764 C 0.76021 0.88184 0.75013 0.0
C765 C 0.85769 0.91573 0.75112 0.0
C766 C 0.84161 0.91966 0.73037 0.0
C767 C 0.81007 0.90846 0.73041 0.0
C768 C 0.85729 0.93628 0.70881 0.0
C769 C 0.89161 0.92672 0.75158 0.0
C770 C 0.87217 0.9658 0.71098 0.0
C771 C 0.8867 0.98177 0.69065 0.0
C772 C 0.88667 0.96846 0.66778 0.0
C773 C 0.87195 0.93881 0.66571 0.0
C774 C 0.85715 0.92285 0.68606 0.0
H775 H 0.9004 0.91718 0.7668 0.0
H776 H 0.90032 0.92218 0.73373 0.0
H777 H 0.90046 0.95014 0.75429 0.0
H778 H 0.87236 0.97651 0.72839 0.0
H779 H 0.8981 0.00454 0.69284 0.0
H780 H 0.76818 0.27452 0.37143 0.0
H781 H 0.7381 0.25898 0.3334 0.0
H782 H 0.73914 0.17467 0.34244 0.0
H783 H 0.76899 0.18995 0.3804 0.0
H784 H 0.7568 0.23296 0.29034 0.0
H785 H 0.64831 0.16377 0.33122 0.0
H786 H 0.67666 0.19155 0.3486 0.0
H787 H 0.68121 0.15843 0.34266 0.0
C788 C 0.7617 0.25261 0.36539 0.0
C789 C 0.77098 0.23345 0.37877 0.0
C790 C 0.74464 0.24382 0.3437 0.0
C791 C 0.73622 0.21564 0.33534 0.0
C792 C 0.74516 0.19641 0.3488 0.0
H793 H 0.64704 0.11122 0.21188 0.0
H794 H 0.6699 0.13135 0.25161 0.0
C795 C 0.76241 0.20523 0.37032 0.0
C796 C 0.71936 0.20651 0.31187 0.0
H797 H 0.65317 0.16045 0.28776 0.0
C798 C 0.73401 0.21736 0.28969 0.0
C799 C 0.68976 0.18606 0.31125 0.0
C800 C 0.67286 0.17436 0.33468 0.0
C801 C 0.72021 0.20748 0.26673 0.0
C802 C 0.69066 0.18672 0.26606 0.0
C803 C 0.67579 0.17635 0.28832 0.0
C804 C 0.67532 0.17459 0.24245 0.0
C805 C 0.73791 0.21847 0.24348 0.0
C806 C 0.67014 0.19212 0.22434 0.0
C807 C 0.65724 0.18069 0.20159 0.0
C808 C 0.64888 0.15145 0.19668 0.0
C809 C 0.65307 0.13379 0.21519 0.0
C810 C 0.6662 0.14527 0.23786 0.0
H811 H 0.76243 0.22851 0.24734 0.0
H812 H 0.7341 0.20107 0.22978 0.0
H813 H 0.73051 0.23479 0.23504 0.0
H814 H 0.67628 0.21468 0.22774 0.0
H815 H 0.65381 0.19472 0.1878 0.0
H816 H 0.47836 0.68914 0.31864 0.0
H817 H 0.48573 0.67893 0.36176 0.0
H818 H 0.39462 0.67018 0.3779 0.0
H819 H 0.38682 0.67974 0.33439 0.0
H820 H 0.48052 0.7033 0.4071 0.0
H821 H 0.39711 0.59267 0.39753 0.0
H822 H 0.41139 0.61534 0.3712 0.0
H823 H 0.38361 0.62064 0.39065 0.0
C824 C 0.45992 0.68524 0.33139 0.0
C825 C 0.43186 0.68483 0.32301 0.0
C826 C 0.46422 0.67955 0.35608 0.0
C827 C 0.44058 0.67326 0.37299 0.0
C828 C 0.41303 0.67448 0.36507 0.0
H829 H 0.47664 0.64099 0.52882 0.0
H830 H 0.45925 0.66034 0.49285 0.0
C831 C 0.40869 0.68024 0.34027 0.0
C832 C 0.44463 0.66373 0.39831 0.0
H833 H 0.42316 0.60502 0.43531 0.0
C834 C 0.46771 0.68196 0.41346 0.0
C835 C 0.4281 0.63573 0.40644 0.0
C836 C 0.4038 0.6148 0.39062 0.0
C837 C 0.47527 0.67271 0.43617 0.0
C838 C 0.45907 0.64457 0.44408 0.0
C839 C 0.43542 0.62663 0.42928 0.0
C840 C 0.46822 0.6324 0.46633 0.0
C841 C 0.5015 0.69265 0.45093 0.0
C842 C 0.47827 0.60979 0.46349 0.0
C843 C 0.48806 0.59864 0.48392 0.0
C844 C 0.48792 0.60974 0.50779 0.0
C845 C 0.47716 0.63199 0.51072 0.0
C846 C 0.46737 0.64319 0.49016 0.0
H847 H 0.51494 0.71174 0.44017 0.0
H848 H 0.49298 0.6999 0.46764 0.0
H849 H 0.51651 0.68162 0.45711 0.0
H850 H 0.47906 0.60107 0.4453 0.0
H851 H 0.49607 0.58147 0.48091 0.0
H852 H 0.10717 0.4055 0.85963 0.0
H853 H 0.09329 0.43631 0.8878 0.0
H854 H 0.15867 0.51022 0.85404 0.0
H855 H 0.17288 0.4792 0.82561 0.0
H856 H 0.13829 0.47549 0.92087 0.0
H857 H 0.08004 0.52921 0.86129 0.0
H858 H 0.08264 0.49568 0.85256 0.0
H859 H 0.11519 0.52782 0.85093 0.0
C860 C 0.11835 0.42834 0.85794 0.0
C861 C 0.14135 0.43992 0.84056 0.0
C862 C 0.11035 0.44592 0.87404 0.0
C863 C 0.12495 0.47555 0.87309 0.0
C864 C 0.14691 0.4874 0.85495 0.0
H865 H 0.09205 0.59533 0.97819 0.0
H866 H 0.11283 0.57682 0.94371 0.0
C867 C 0.15497 0.46969 0.8387 0.0
C868 C 0.11874 0.49334 0.89265 0.0
H869 H 0.08269 0.53922 0.90402 0.0
C870 C 0.12639 0.48964 0.91714 0.0
C871 C 0.10351 0.51201 0.88775 0.0
C872 C 0.09465 0.5165 0.86176 0.0
C873 C 0.11846 0.5034 0.93694 0.0
C874 C 0.10182 0.52092 0.93224 0.0
C875 C 0.0953 0.52567 0.90763 0.0
C876 C 0.08914 0.53255 0.95278 0.0
C877 C 0.12774 0.49878 0.96279 0.0
C878 C 0.06863 0.51387 0.96911 0.0
C879 C 0.05683 0.52429 0.98875 0.0
C880 C 0.06506 0.55376 0.99253 0.0
C881 C 0.08534 0.57253 0.97595 0.0
C882 C 0.09717 0.562 0.95618 0.0
H883 H 0.14765 0.49245 0.96266 0.0
H884 H 0.13308 0.51826 0.97431 0.0
H885 H 0.10898 0.48139 0.97159 0.0
H886 H 0.06163 0.49107 0.96661 0.0
H887 H 0.04116 0.50912 1.00097 0.0
H888 H 0.60417 0.82459 0.95031 0.0
H889 H 0.58849 0.86149 0.96733 0.0
H890 H 0.65257 0.92393 0.92121 0.0
H891 H 0.66711 0.88674 0.90285 0.0
H892 H 0.61932 0.90729 0.99333 0.0
H893 H 0.57825 0.94078 0.90734 0.0
H894 H 0.58714 0.90913 0.90886 0.0
H895 H 0.61664 0.94349 0.90561 0.0
C896 C 0.61454 0.84603 0.94333 0.0
C897 C 0.63671 0.85252 0.92493 0.0
C898 C 0.60573 0.8672 0.9533 0.0
C899 C 0.61895 0.89544 0.94528 0.0
C900 C 0.64149 0.90219 0.92728 0.0
H901 H 0.60417 0.03519 0.03239 0.0
H902 H 0.62278 1.00284 1.01038 0.0
C903 C 0.65012 0.88092 0.91706 0.0
C904 C 0.60967 0.91777 0.9565 0.0
H905 H 0.58139 0.9691 0.94314 0.0
C906 C 0.611 0.92078 0.98234 0.0
C907 C 0.59843 0.93513 0.94219 0.0
C908 C 0.59471 0.93184 0.91449 0.0
C909 C 0.6014 0.94056 0.99428 0.0
C910 C 0.59106 0.95855 0.97993 0.0
C911 C 0.58966 0.95554 0.95409 0.0
C912 C 0.58067 0.97993 0.99153 0.0
C913 C 0.60156 0.94129 0.02219 0.0
C914 C 0.55128 0.97884 0.98725 0.0
C915 C 0.54071 0.99768 0.99947 0.0
C916 C 0.55932 0.01787 0.01632 0.0
C917 C 0.58911 0.01963 0.01981 0.0
C918 C 0.59975 1.00103 1.00735 0.0
H919 H 0.60178 0.92114 0.03016 0.0
H920 H 0.6221 0.95882 0.02881 0.0
H921 H 0.58163 0.94503 0.02936 0.0
H922 H 0.53621 0.96286 0.97499 0.0
H923 H 0.51765 0.99575 0.99635 0.0
H924 H 0.84608 0.22294 0.46971 0.0
H925 H 0.88511 0.20383 0.47743 0.0
H926 H 0.91376 0.21956 0.40169 0.0
H927 H 0.87488 0.23947 0.3938 0.0
H928 H 0.90396 0.16382 0.4184 0.0
H929 H 0.97683 0.24486 0.48356 0.0
H930 H 0.9379 0.23287 0.49191 0.0
H931 H 0.95 0.25152 0.46328 0.0
C932 C 0.8611 0.22306 0.45478 0.0
C933 C 0.85751 0.23302 0.43118 0.0
C934 C 0.88339 0.21206 0.45924 0.0
C935 C 0.90263 0.21076 0.44025 0.0
C936 C 0.89925 0.22063 0.41663 0.0
H937 H 0.03929 0.14552 0.4916 0.0
H938 H 0.01768 0.17427 0.46742 0.0
C939 C 0.87695 0.23183 0.41215 0.0
C940 C 0.92471 0.1972 0.44504 0.0
H941 H 0.9795 0.19816 0.48604 0.0
C942 C 0.92097 0.17161 0.4328 0.0
C943 C 0.94721 0.20765 0.46349 0.0
C944 C 0.95347 0.2359 0.47614 0.0
C945 C 0.9376 0.15507 0.43992 0.0
C946 C 0.9581 0.16427 0.45997 0.0
C947 C 0.9635 0.19094 0.47086 0.0
C948 C 0.97162 0.14538 0.47176 0.0
C949 C 0.93241 0.12753 0.4264 0.0
C950 C 0.95288 0.11958 0.48211 0.0
C951 C 0.96508 0.10317 0.49595 0.0
C952 C 0.99631 0.11235 0.49992 0.0
C953 C 0.01514 0.13783 0.48893 0.0
C954 C 1.00286 0.15429 0.47508 0.0
H955 H 0.92482 0.12838 0.40706 0.0
H956 H 0.95311 0.12247 0.42612 0.0
H957 H 0.91448 0.10998 0.43585 0.0
H958 H 0.92867 0.11263 0.4803 0.0
H959 H 0.94989 0.0837 0.50413 0.0
H960 H 0.32593 0.66846 0.20376 0.0
H961 H 0.28024 0.64567 0.17924 0.0
H962 H 0.25281 0.71632 0.19404 0.0
H963 H 0.29764 0.73857 0.21976 0.0
H964 H 0.20576 0.66622 0.19614 0.0
H965 H 0.26962 0.67012 0.11008 0.0
H966 H 0.27893 0.65096 0.13463 0.0
H967 H 0.28728 0.68852 0.13799 0.0
C968 C 0.30991 0.67892 0.2023 0.0
C969 C 0.31567 0.70552 0.21366 0.0
C970 C 0.28399 0.66604 0.18789 0.0
C971 C 0.26349 0.67964 0.18421 0.0
C972 C 0.26849 0.70557 0.19636 0.0
H973 H 0.10807 0.65685 0.09191 0.0
H974 H 0.15239 0.67434 0.11891 0.0
C975 C 0.29425 0.71836 0.21094 0.0
C976 C 0.23707 0.66719 0.16742 0.0
H977 H 0.21677 0.64579 0.10773 0.0
C978 C 0.2082 0.66179 0.17682 0.0
C979 C 0.24025 0.6615 0.14213 0.0
C980 C 0.27069 0.66831 0.13051 0.0
C981 C 0.18248 0.65074 0.16168 0.0
C982 C 0.18572 0.64503 0.13649 0.0
C983 C 0.21445 0.6501 0.1271 0.0
C984 C 0.15949 0.63453 0.11948 0.0
C985 C 0.15194 0.64509 0.17267 0.0
C986 C 0.14925 0.60652 0.11044 0.0
C987 C 0.12383 0.59637 0.09504 0.0
C988 C 0.10843 0.61421 0.08818 0.0
C989 C 0.11935 0.64253 0.09677 0.0
C990 C 0.1446 0.65255 0.11231 0.0
H991 H 0.15275 0.64582 0.1932 0.0
H992 H 0.14334 0.66145 0.16607 0.0
H993 H 0.13574 0.62397 0.1666 0.0
H994 H 0.16059 0.59236 0.1157 0.0
H995 H 0.11606 0.57446 0.08876 0.0
H996 H 0.20319 0.44362 0.67797 0.0
H997 H 0.24885 0.47056 0.6552 0.0
H998 H 0.30248 0.47293 0.72014 0.0
H999 H 0.25693 0.44547 0.7429 0.0
H1000 H 0.29707 0.52378 0.6632 0.0
H1001 H 0.33424 0.43192 0.66722 0.0
H1002 H 0.2965 0.42887 0.67482 0.0
H1003 H 0.32666 0.44428 0.69666 0.0
C1004 C 0.22469 0.45021 0.68749 0.0
C1005 C 0.22647 0.44221 0.71218 0.0
C1006 C 0.25073 0.46565 0.67447 0.0
C1007 C 0.27908 0.47326 0.68583 0.0
C1008 C 0.28084 0.46685 0.71091 0.0
H1009 H 0.4527 0.58098 0.62872 0.0
H1010 H 0.40566 0.56089 0.6513 0.0
C1011 C 0.25476 0.45145 0.72399 0.0
C1012 C 0.30673 0.4863 0.67098 0.0
H1013 H 0.36767 0.47404 0.64902 0.0
C1014 C 0.31256 0.51296 0.66012 0.0
C1015 C 0.32658 0.47187 0.66657 0.0
C1016 C 0.32067 0.44254 0.67671 0.0
C1017 C 0.33803 0.52583 0.64534 0.0
C1018 C 0.3583 0.51173 0.64152 0.0
C1019 C 0.35219 0.48487 0.65206 0.0
C1020 C 0.38626 0.52458 0.62697 0.0
C1021 C 0.34276 0.55417 0.63362 0.0
C1022 C 0.39124 0.51066 0.60591 0.0
C1023 C 0.41828 0.52203 0.59293 0.0
C1024 C 0.441 0.54742 0.60096 0.0
C1025 C 0.43577 0.56139 0.62197 0.0
C1026 C 0.40875 0.55005 0.63485 0.0
H1027 H 0.32158 0.55841 0.6328 0.0
H1028 H 0.35937 0.57133 0.64478 0.0
H1029 H 0.35167 0.5552 0.6146 0.0
H1030 H 0.37424 0.49088 0.59959 0.0
H1031 H 0.42156 0.51068 0.57689 0.0
H1032 H 0.82158 0.83802 0.91431 0.0
H1033 H 0.8541 0.81673 0.93444 0.0
H1034 H 0.77879 0.73731 0.94109 0.0
H1035 H 0.74617 0.75834 0.92048 0.0
H1036 H 0.8498 0.78836 0.98142 0.0
H1037 H 0.84219 0.71775 0.9005 0.0
H1038 H 0.83082 0.748 0.89885 0.0
H1039 H 0.80705 0.71586 0.91355 0.0
C1040 C 0.81192 0.81606 0.92018 0.0
C1041 C 0.78141 0.79974 0.91558 0.0
C1042 C 0.83047 0.80399 0.93178 0.0
C1043 C 0.81892 0.77537 0.93888 0.0
C1044 C 0.78818 0.75936 0.93542 0.0
H1045 H 0.91235 0.66592 0.98774 0.0
H1046 H 0.87412 0.68506 0.9762 0.0
C1047 C 0.76954 0.77145 0.92386 0.0
C1048 C 0.8395 0.76206 0.94873 0.0
H1049 H 0.87153 0.7139 0.93436 0.0
C1050 C 0.85449 0.77198 0.97124 0.0
C1051 C 0.84555 0.74076 0.93531 0.0
C1052 C 0.83079 0.73002 0.91061 0.0
C1053 C 0.87539 0.76106 0.98077 0.0
C1054 C 0.88188 0.74014 0.96711 0.0
C1055 C 0.86652 0.72994 0.94478 0.0
C1056 C 0.90497 0.72888 0.9753 0.0
C1057 C 0.89004 0.77179 1.00549 0.0
C1058 C 0.93507 0.74715 0.97843 0.0
C1059 C 0.95697 0.7363 0.98526 0.0
C1060 C 0.94922 0.70693 0.98889 0.0
C1061 C 0.91903 0.68869 0.98554 0.0
C1062 C 0.89717 0.69957 0.97879 0.0
H1063 H 0.87648 0.78107 0.01665 0.0
H1064 H 0.89332 0.75447 0.01624 0.0
H1065 H 0.91241 0.78871 1.00248 0.0
H1066 H 0.94173 0.76977 0.97528 0.0
H1067 H 0.97993 0.75096 0.98784 0.0
H1068 H 0.37137 0.80964 0.23648 0.0
H1069 H 0.39464 0.85657 0.2175 0.0
H1070 H 0.46678 0.83279 0.19053 0.0
H1071 H 0.44408 0.78622 0.21023 0.0
H1072 H 0.48741 0.88817 0.20413 0.0
H1073 H 0.38651 0.86428 0.14413 0.0
H1074 H 0.3783 0.86383 0.17646 0.0
H1075 H 0.392 0.83794 0.16388 0.0
C1076 C 0.3925 0.81471 0.2269 0.0
C1077 C 0.40586 0.7943 0.2247 0.0
C1078 C 0.40566 0.8414 0.21589 0.0
C1079 C 0.43201 0.84793 0.20195 0.0
C1080 C 0.44635 0.8282 0.20104 0.0
H1081 H 0.48272 0.96539 0.08021 0.0
H1082 H 0.46648 0.92449 0.10774 0.0
C1083 C 0.43343 0.80163 0.21237 0.0
C1084 C 0.44356 0.87441 0.18704 0.0
H1085 H 0.4238 0.9103 0.14093 0.0
C1086 C 0.47352 0.89306 0.19032 0.0
C1087 C 0.4256 0.88053 0.16867 0.0
C1088 C 0.39393 0.86047 0.16285 0.0
C1089 C 0.48597 0.91763 0.17581 0.0
C1090 C 0.46772 0.92412 0.15792 0.0
C1091 C 0.43776 0.90549 0.15474 0.0
C1092 C 0.47934 0.94934 0.14146 0.0
C1093 C 0.51879 0.93583 0.17924 0.0
C1094 C 0.4921 0.97709 0.15115 0.0
C1095 C 0.50181 1.00062 0.13535 0.0
C1096 C 0.49839 0.99686 0.10958 0.0
C1097 C 0.48557 0.96908 0.09996 0.0
C1098 C 0.47626 0.94563 0.1157 0.0
H1099 H 0.53138 0.92388 0.18831 0.0
H1100 H 0.52955 0.94399 0.16126 0.0
H1101 H 0.52083 0.9543 0.19123 0.0
H1102 H 0.49403 0.98063 0.17094 0.0
H1103 H 0.51138 0.02175 0.14336 0.0
H1104 H 0.13881 0.31989 0.74102 0.0
H1105 H 0.11718 0.27534 0.71807 0.0
H1106 H 0.12363 0.32199 0.65038 0.0
H1107 H 0.14297 0.36667 0.67344 0.0
H1108 H 0.07394 0.27769 0.64986 0.0
H1109 H 0.1655 0.24181 0.67833 0.0
H1110 H 0.14526 0.24744 0.70429 0.0
H1111 H 0.16649 0.27704 0.68514 0.0
C1112 C 0.13501 0.32082 0.72135 0.0
C1113 C 0.14304 0.34713 0.70914 0.0
C1114 C 0.12313 0.29519 0.70814 0.0
C1115 C 0.11969 0.2952 0.68233 0.0
C1116 C 0.12645 0.32134 0.67023 0.0
H1117 H 0.10722 0.15361 0.58548 0.0
H1118 H 0.12317 0.19759 0.60986 0.0
C1119 C 0.13781 0.34695 0.68347 0.0
C1120 C 0.10938 0.26813 0.66782 0.0
H1121 H 0.12419 0.20801 0.65688 0.0
C1122 C 0.08501 0.2625 0.65136 0.0
C1123 C 0.12414 0.24849 0.66933 0.0
C1124 C 0.15199 0.25411 0.68502 0.0
C1125 C 0.07489 0.23783 0.63653 0.0
C1126 C 0.08877 0.21757 0.63888 0.0
C1127 C 0.11326 0.22329 0.65524 0.0
C1128 C 0.07885 0.19067 0.62415 0.0
C1129 C 0.05005 0.23431 0.61796 0.0
C1130 C 0.04872 0.17178 0.62429 0.0
C1131 C 0.03947 0.14688 0.60999 0.0
C1132 C 0.06031 0.13993 0.59577 0.0
C1133 C 0.09063 0.15834 0.59627 0.0
C1134 C 0.09976 0.18351 0.61021 0.0
H1135 H 0.04876 0.25513 0.61298 0.0
H1136 H 0.05331 0.22379 0.60078 0.0
H1137 H 0.02817 0.22105 0.62613 0.0
H1138 H 0.0323 0.17622 0.6355 0.0
H1139 H 0.01601 0.13294 0.61026 0.0
H1140 H 0.76891 0.35932 0.50388 0.0
H1141 H 0.73684 0.38709 0.49999 0.0
H1142 H 0.69192 0.33623 0.43705 0.0
H1143 H 0.72295 0.30739 0.44153 0.0
H1144 H 0.72537 0.41916 0.46279 0.0
H1145 H 0.62305 0.32481 0.4846 0.0
H1146 H 0.66047 0.32468 0.4883 0.0
H1147 H 0.64365 0.3211 0.45805 0.0
C1148 C 0.75218 0.35398 0.48922 0.0
C1149 C 0.74812 0.3308 0.47331 0.0
C1150 C 0.73405 0.37004 0.48689 0.0
C1151 C 0.71159 0.36332 0.46856 0.0
C1152 C 0.70871 0.34136 0.45165 0.0
H1153 H 0.56703 0.43131 0.4623 0.0
H1154 H 0.60153 0.40811 0.44969 0.0
C1155 C 0.72671 0.32512 0.45407 0.0
C1156 C 0.69019 0.37828 0.46838 0.0
H1157 H 0.61676 0.36829 0.47918 0.0
C1158 C 0.70156 0.40802 0.46611 0.0
C1159 C 0.65912 0.36367 0.4727 0.0
C1160 C 0.64577 0.33184 0.47626 0.0
C1161 C 0.68282 0.42361 0.46872 0.0
C1162 C 0.65205 0.40906 0.47394 0.0
C1163 C 0.6404 0.37929 0.47512 0.0
C1164 C 0.63212 0.42438 0.48055 0.0
C1165 C 0.69615 0.45554 0.46628 0.0
C1166 C 0.63777 0.44083 0.50223 0.0
C1167 C 0.61797 0.45372 0.50967 0.0
C1168 C 0.59207 0.45044 0.49557 0.0
C1169 C 0.58656 0.43401 0.47374 0.0
C1170 C 0.60635 0.42095 0.46638 0.0
H1171 H 0.71736 0.46258 0.45557 0.0
H1172 H 0.68006 0.46363 0.45712 0.0
H1173 H 0.70137 0.46529 0.48498 0.0
H1174 H 0.65715 0.44311 0.51374 0.0
H1175 H 0.62261 0.4657 0.52683 0.0
loop_
_geom_bond_atom_site_label_1
_geom_bond_atom_site_label_2
_geom_bond_distance
_geom_bond_site_symmetry_2
_ccdc_geom_bond_type
H0 C1 0.949 . S
C1 H0 0.949 . S
C1 C2 1.395 . S
C1 C3 1.391 . S
C2 C1 1.395 . S
C2 C5 1.390 . S
C3 C1 1.391 . S
C3 C7 1.387 . S
C3 C8 1.491 . S
H4 C5 0.950 . S
C5 C2 1.390 . S
C5 H4 0.950 . S
C5 C6 1.378 . S
C6 C5 1.378 . S
C6 C7 1.409 . S
C7 C3 1.387 . S
C7 C6 1.409 . S
C7 H9 0.951 . S
C8 C3 1.491 . S
C8 C10 1.382 . S
C8 C12 1.404 . S
H9 C7 0.951 . S
C10 C8 1.382 . S
C10 C11 1.390 . S
C10 H15 0.949 . S
C11 C10 1.390 . S
C11 C16 1.399 . S
C12 C8 1.404 . S
C12 H13 0.950 . S
C12 C14 1.375 . S
H13 C12 0.950 . S
C14 C12 1.375 . S
C14 C16 1.382 . S
C14 H18 0.950 . S
H15 C10 0.949 . S
C16 C11 1.399 . S
C16 C14 1.382 . S
C16 H17 0.952 . S
H17 C16 0.952 . S
H18 C14 0.950 . S
H19 C20 0.949 . S
C20 H19 0.949 . S
C20 C21 1.395 . S
C20 C22 1.391 . S
C21 C20 1.395 . S
C21 C24 1.390 . S
C22 C20 1.391 . S
C22 C26 1.387 . S
C22 C27 1.491 . S
H23 C24 0.950 . S
C24 C21 1.390 . S
C24 H23 0.950 . S
C24 C25 1.378 . S
C25 C24 1.378 . S
C25 C26 1.409 . S
C26 C22 1.387 . S
C26 C25 1.409 . S
C26 H28 0.951 . S
C27 C22 1.491 . S
C27 C29 1.382 . S
C27 C31 1.404 . S
H28 C26 0.951 . S
C29 C27 1.382 . S
C29 C30 1.390 . S
C29 H34 0.949 . S
C30 C29 1.390 . S
C30 C35 1.399 . S
C31 C27 1.404 . S
C31 H32 0.950 . S
C31 C33 1.375 . S
H32 C31 0.950 . S
C33 C31 1.375 . S
C33 C35 1.382 . S
C33 H37 0.950 . S
H34 C29 0.949 . S
C35 C30 1.399 . S
C35 C33 1.382 . S
C35 H36 0.952 . S
H36 C35 0.952 . S
H37 C33 0.950 . S
H38 C39 0.949 . S
C39 H38 0.949 . S
C39 C40 1.395 . S
C39 C41 1.391 . S
C40 C39 1.395 . S
C40 C43 1.390 . S
C41 C39 1.391 . S
C41 C45 1.387 . S
C41 C46 1.491 . S
H42 C43 0.950 . S
C43 C40 1.390 . S
C43 H42 0.950 . S
C43 C44 1.378 . S
C44 C43 1.378 . S
C44 C45 1.409 . S
C45 C41 1.387 . S
C45 C44 1.409 . S
C45 H47 0.951 . S
C46 C41 1.491 . S
C46 C48 1.382 . S
C46 C50 1.404 . S
H47 C45 0.951 . S
C48 C46 1.382 . S
C48 C49 1.390 . S
C48 H53 0.949 . S
C49 C48 1.390 . S
C49 C54 1.399 . S
C50 C46 1.404 . S
C50 H51 0.950 . S
C50 C52 1.375 . S
H51 C50 0.950 . S
C52 C50 1.375 . S
C52 C54 1.382 . S
C52 H56 0.950 . S
H53 C48 0.949 . S
C54 C49 1.399 . S
C54 C52 1.382 . S
C54 H55 0.952 . S
H55 C54 0.952 . S
H56 C52 0.950 . S
H57 C58 0.949 . S
C58 H57 0.949 . S
C58 C59 1.395 . S
C58 C60 1.391 . S
C59 C58 1.395 . S
C59 C62 1.390 . S
C60 C58 1.391 . S
C60 C64 1.387 . S
C60 C65 1.491 . S
H61 C62 0.950 . S
C62 C59 1.390 . S
C62 H61 0.950 . S
C62 C63 1.378 . S
C63 C62 1.378 . S
C63 C64 1.409 . S
C64 C60 1.387 . S
C64 C63 1.409 . S
C64 H66 0.951 . S
C65 C60 1.491 . S
C65 C67 1.382 . S
C65 C69 1.404 . S
H66 C64 0.951 . S
C67 C65 1.382 . S
C67 C68 1.390 . S
C67 H72 0.949 . S
C68 C67 1.390 . S
C68 C73 1.399 . S
C69 C65 1.404 . S
C69 H70 0.950 . S
C69 C71 1.375 . S
H70 C69 0.950 . S
C71 C69 1.375 . S
C71 C73 1.382 . S
C71 H75 0.950 . S
H72 C67 0.949 . S
C73 C68 1.399 . S
C73 C71 1.382 . S
C73 H74 0.952 . S
H74 C73 0.952 . S
H75 C71 0.950 . S
H76 C77 0.949 . S
C77 H76 0.949 . S
C77 C78 1.395 . S
C77 C79 1.391 . S
C78 C77 1.395 . S
C78 C81 1.390 . S
C79 C77 1.391 . S
C79 C83 1.387 . S
C79 C84 1.491 . S
H80 C81 0.950 . S
C81 C78 1.390 . S
C81 H80 0.950 . S
C81 C82 1.378 . S
C82 C81 1.378 . S
C82 C83 1.409 . S
C83 C79 1.387 . S
C83 C82 1.409 . S
C83 H85 0.951 . S
C84 C79 1.491 . S
C84 C86 1.382 . S
C84 C88 1.404 . S
H85 C83 0.951 . S
C86 C84 1.382 . S
C86 C87 1.390 . S
C86 H91 0.949 . S
C87 C86 1.390 . S
C87 C92 1.399 . S
C88 C84 1.404 . S
C88 H89 0.950 . S
C88 C90 1.375 . S
H89 C88 0.950 . S
C90 C88 1.375 . S
C90 C92 1.382 . S
C90 H94 0.950 . S
H91 C86 0.949 . S
C92 C87 1.399 . S
C92 C90 1.382 . S
C92 H93 0.952 . S
H93 C92 0.952 . S
H94 C90 0.950 . S
H95 C96 0.949 . S
C96 H95 0.949 . S
C96 C97 1.395 . S
C96 C98 1.391 . S
C97 C96 1.395 . S
C97 C100 1.390 . S
C98 C96 1.391 . S
C98 C102 1.387 . S
C98 C103 1.491 . S
H99 C100 0.950 . S
C100 C97 1.390 . S
C100 H99 0.950 . S
C100 C101 1.378 . S
C101 C100 1.378 . S
C101 C102 1.409 . S
C102 C98 1.387 . S
C102 C101 1.409 . S
C102 H104 0.951 . S
C103 C98 1.491 . S
C103 C105 1.382 . S
C103 C107 1.404 . S
H104 C102 0.951 . S
C105 C103 1.382 . S
C105 C106 1.390 . S
C105 H110 0.949 . S
C106 C105 1.390 . S
C106 C111 1.399 . S
C107 C103 1.404 . S
C107 H108 0.950 . S
C107 C109 1.375 . S
H108 C107 0.950 . S
C109 C107 1.375 . S
C109 C111 1.382 . S
C109 H113 0.950 . S
H110 C105 0.949 . S
C111 C106 1.399 . S
C111 C109 1.382 . S
C111 H112 0.952 . S
H112 C111 0.952 . S
H113 C109 0.950 . S
H114 C115 0.949 . S
C115 H114 0.949 . S
C115 C116 1.395 . S
C115 C117 1.391 . S
C116 C115 1.395 . S
C116 C119 1.390 . S
C117 C115 1.391 . S
C117 C121 1.387 . S
C117 C122 1.491 . S
H118 C119 0.950 . S
C119 C116 1.390 . S
C119 H118 0.950 . S
C119 C120 1.378 . S
C120 C119 1.378 . S
C120 C121 1.409 . S
C121 C117 1.387 . S
C121 C120 1.409 . S
C121 H123 0.951 . S
C122 C117 1.491 . S
C122 C124 1.382 . S
C122 C126 1.404 . S
H123 C121 0.951 . S
C124 C122 1.382 . S
C124 C125 1.390 . S
C124 H129 0.949 . S
C125 C124 1.390 . S
C125 C130 1.399 . S
C126 C122 1.404 . S
C126 H127 0.950 . S
C126 C128 1.375 . S
H127 C126 0.950 . S
C128 C126 1.375 . S
C128 C130 1.382 . S
C128 H132 0.950 . S
H129 C124 0.949 . S
C130 C125 1.399 . S
C130 C128 1.382 . S
C130 H131 0.952 . S
H131 C130 0.952 . S
H132 C128 0.950 . S
H133 C134 0.949 . S
C134 H133 0.949 . S
C134 C135 1.395 . S
C134 C136 1.391 . S
C135 C134 1.395 . S
C135 C138 1.390 . S
C136 C134 1.391 . S
C136 C140 1.387 . S
C136 C141 1.491 . S
H137 C138 0.950 . S
C138 C135 1.390 . S
C138 H137 0.950 . S
C138 C139 1.378 . S
C139 C138 1.378 . S
C139 C140 1.409 . S
C140 C136 1.387 . S
C140 C139 1.409 . S
C140 H142 0.951 . S
C141 C136 1.491 . S
C141 C143 1.382 . S
C141 C145 1.404 . S
H142 C140 0.951 . S
C143 C141 1.382 . S
C143 C144 1.390 . S
C143 H148 0.949 . S
C144 C143 1.390 . S
C144 C149 1.399 . S
C145 C141 1.404 . S
C145 H146 0.950 . S
C145 C147 1.375 . S
H146 C145 0.950 . S
C147 C145 1.375 . S
C147 C149 1.382 . S
C147 H151 0.950 . S
H148 C143 0.949 . S
C149 C144 1.399 . S
C149 C147 1.382 . S
C149 H150 0.952 . S
H150 C149 0.952 . S
H151 C147 0.950 . S
Dy152 O155 2.307 . S
Dy152 O157 2.395 . S
Dy152 O158 2.379 . S
Dy152 O160 2.339 . S
Dy152 O162 2.298 . S
Dy152 O166 2.275 . S
Dy152 C174 2.738 . S
Dy153 O156 2.298 1_655 S
Dy153 O159 2.275 . S
Dy153 O161 2.307 . S
Dy153 O163 2.395 1_545 S
Dy153 O164 2.379 . S
Dy153 O167 2.339 1_655 S
Dy153 C183 2.738 1_545 S
C154 O166 1.254 . S
C154 O167 1.257 . S
O155 Dy152 2.307 . S
O155 C165 1.266 . S
O156 Dy153 2.298 1_455 S
O156 C165 1.236 . S
O157 Dy152 2.395 . S
O157 C174 1.255 . S
O158 Dy152 2.379 . S
O158 C174 1.249 . S
O159 Dy153 2.275 . S
O159 C175 1.254 1_545 S
O160 Dy152 2.339 . S
O160 C175 1.257 1_445 S
O161 Dy153 2.307 . S
O161 C176 1.266 . S
O162 Dy152 2.298 . S
O162 C176 1.236 1_455 S
O163 Dy153 2.395 1_565 S
O163 C183 1.255 . S
O164 Dy153 2.379 . S
O164 C183 1.249 1_545 S
C165 O155 1.266 . S
C165 O156 1.236 . S
O166 Dy152 2.275 . S
O166 C154 1.254 . S
O167 Dy153 2.339 1_455 S
O167 C154 1.257 . S
C168 C171 1.344 . S
C168 C172 1.328 . S
C168 C174 1.516 . S
C169 C170 1.304 . S
C169 C173 1.323 . S
C170 C169 1.304 . S
C170 C171 1.371 . S
C170 H184 0.930 . S
C171 C168 1.344 . S
C171 C170 1.371 . S
C171 H185 0.931 . S
C172 C168 1.328 . S
C172 C173 1.433 . S
C172 H186 0.931 . S
C173 C169 1.323 . S
C173 C172 1.433 . S
C173 H187 0.933 . S
C174 Dy152 2.738 . S
C174 O157 1.255 . S
C174 O158 1.249 . S
C174 C168 1.516 . S
C175 O159 1.254 1_565 S
C175 O160 1.257 1_665 S
C176 O161 1.266 . S
C176 O162 1.236 1_655 S
C177 C180 1.344 . S
C177 C181 1.328 . S
C177 C183 1.516 . S
C178 C179 1.304 . S
C178 C182 1.323 . S
C179 C178 1.304 . S
C179 C180 1.371 . S
C179 H188 0.930 . S
C180 C177 1.344 . S
C180 C179 1.371 . S
C180 H189 0.931 . S
C181 C177 1.328 . S
C181 C182 1.433 . S
C181 H190 0.931 . S
C182 C178 1.323 . S
C182 C181 1.433 . S
C182 H191 0.933 . S
C183 Dy153 2.738 1_565 S
C183 O163 1.255 . S
C183 O164 1.249 1_565 S
C183 C177 1.516 . S
H184 C170 0.930 . S
H185 C171 0.931 . S
H186 C172 0.931 . S
H187 C173 0.933 . S
H188 C179 0.930 . S
H189 C180 0.931 . S
H190 C181 0.931 . S
H191 C182 0.933 . S
Dy192 O195 2.307 . S
Dy192 O197 2.395 1_545 S
Dy192 O198 2.379 . S
Dy192 O200 2.339 . S
Dy192 O202 2.298 . S
Dy192 O206 2.275 . S
Dy192 C214 2.738 1_545 S
Dy193 O196 2.298 . S
Dy193 O199 2.275 . S
Dy193 O201 2.307 . S
Dy193 O203 2.395 . S
Dy193 O204 2.379 . S
Dy193 O207 2.321 1_545 S
Dy193 C223 2.738 . S
C194 O206 1.254 1_565 S
C194 O207 1.259 . S
O195 Dy192 2.307 . S
O195 C205 1.266 . S
O196 Dy193 2.298 . S
O196 C205 1.236 . S
O197 Dy192 2.395 1_565 S
O197 C214 1.255 . S
O198 Dy192 2.379 . S
O198 C214 1.249 1_545 S
O199 Dy193 2.275 . S
O199 C215 1.254 . S
O200 Dy192 2.339 . S
O200 C215 1.257 . S
O201 Dy193 2.307 . S
O201 C216 1.266 . S
O202 Dy192 2.298 . S
O202 C216 1.236 . S
O203 Dy193 2.395 . S
O203 C223 1.255 . S
O204 Dy193 2.379 . S
O204 C223 1.249 . S
C205 O195 1.266 . S
C205 O196 1.236 . S
O206 Dy192 2.275 . S
O206 C194 1.254 1_545 S
O207 Dy193 2.321 1_565 S
O207 C194 1.259 . S
C208 C211 1.344 . S
C208 C212 1.328 . S
C208 C214 1.516 1_556 S
C209 C210 1.304 . S
C209 C213 1.323 . S
C210 C209 1.304 . S
C210 C211 1.371 . S
C210 H224 0.930 . S
C211 C208 1.344 . S
C211 C210 1.371 . S
C211 H225 0.931 1_556 S
C212 C208 1.328 . S
C212 C213 1.433 . S
C212 H226 0.931 . S
C213 C209 1.323 . S
C213 C212 1.433 . S
C213 H227 0.933 . S
C214 Dy192 2.738 1_565 S
C214 O197 1.255 . S
C214 O198 1.249 1_565 S
C214 C208 1.516 1_554 S
C215 O199 1.254 . S
C215 O200 1.257 . S
C216 O201 1.266 . S
C216 O202 1.236 . S
C217 C220 1.344 . S
C217 C221 1.328 . S
C217 C223 1.516 . S
C218 C219 1.304 . S
C218 C222 1.323 . S
C219 C218 1.304 . S
C219 C220 1.371 . S
C219 H228 0.930 . S
C220 C217 1.344 . S
C220 C219 1.371 . S
C220 H229 0.931 . S
C221 C217 1.328 . S
C221 C222 1.433 . S
C221 H230 0.931 . S
C222 C218 1.323 . S
C222 C221 1.433 . S
C222 H231 0.933 . S
C223 Dy193 2.738 . S
C223 O203 1.255 . S
C223 O204 1.249 . S
C223 C217 1.516 . S
H224 C210 0.930 . S
H225 C211 0.931 1_554 S
H226 C212 0.931 . S
H227 C213 0.933 . S
H228 C219 0.930 . S
H229 C220 0.931 . S
H230 C221 0.931 . S
H231 C222 0.933 . S
Dy232 O235 2.307 . S
Dy232 O237 2.395 . S
Dy232 O238 2.379 . S
Dy232 O240 2.339 . S
Dy232 O242 2.298 . S
Dy232 O246 2.275 . S
Dy232 C254 2.738 . S
Dy233 O236 2.298 . S
Dy233 O239 2.275 . S
Dy233 O241 2.307 . S
Dy233 O243 2.395 . S
Dy233 O244 2.379 . S
Dy233 O247 2.339 . S
Dy233 C263 2.738 . S
C234 O246 1.254 . S
C234 O247 1.257 . S
O235 Dy232 2.307 . S
O235 C245 1.266 . S
O236 Dy233 2.298 . S
O236 C245 1.236 . S
O237 Dy232 2.395 . S
O237 C254 1.255 . S
O238 Dy232 2.379 . S
O238 C254 1.249 . S
O239 Dy233 2.275 . S
O239 C255 1.254 . S
O240 Dy232 2.339 . S
O240 C255 1.257 . S
O241 Dy233 2.307 . S
O241 C256 1.266 . S
O242 Dy232 2.298 . S
O242 C256 1.236 . S
O243 Dy233 2.395 . S
O243 C263 1.255 . S
O244 Dy233 2.379 . S
O244 C263 1.249 . S
C245 O235 1.266 . S
C245 O236 1.236 . S
O246 Dy232 2.275 . S
O246 C234 1.254 . S
O247 Dy233 2.339 . S
O247 C234 1.257 . S
C248 C251 1.344 . S
C248 C252 1.328 . S
C248 C254 1.516 . S
C249 C250 1.304 . S
C249 C253 1.323 . S
C250 C249 1.304 . S
C250 C251 1.371 . S
C250 H264 0.930 . S
C251 C248 1.344 . S
C251 C250 1.371 . S
C251 H265 0.931 . S
C252 C248 1.328 . S
C252 C253 1.433 . S
C252 H266 0.931 . S
C253 C249 1.323 . S
C253 C252 1.433 . S
C253 H267 0.933 . S
C254 Dy232 2.738 . S
C254 O237 1.255 . S
C254 O238 1.249 . S
C254 C248 1.516 . S
C255 O239 1.254 . S
C255 O240 1.257 . S
C256 O241 1.266 . S
C256 O242 1.236 . S
C257 C260 1.344 . S
C257 C261 1.328 . S
C257 C263 1.516 . S
C258 C259 1.304 . S
C258 C262 1.323 . S
C259 C258 1.304 . S
C259 C260 1.371 . S
C259 H268 0.930 . S
C260 C257 1.344 . S
C260 C259 1.371 . S
C260 H269 0.931 . S
C261 C257 1.328 . S
C261 C262 1.433 . S
C261 H270 0.931 . S
C262 C258 1.323 . S
C262 C261 1.433 . S
C262 H271 0.933 . S
C263 Dy233 2.738 . S
C263 O243 1.255 . S
C263 O244 1.249 . S
C263 C257 1.516 . S
H264 C250 0.930 . S
H265 C251 0.931 . S
H266 C252 0.931 . S
H267 C253 0.933 . S
H268 C259 0.930 . S
H269 C260 0.931 . S
H270 C261 0.931 . S
H271 C262 0.933 . S
Dy272 O275 2.307 1_556 S
Dy272 O277 2.395 . S
Dy272 O278 2.379 . S
Dy272 O280 2.339 . S
Dy272 O282 2.298 . S
Dy272 O286 2.275 1_556 S
Dy272 C294 2.738 . S
Dy273 O276 2.298 . S
Dy273 O279 2.275 1_554 S
Dy273 O281 2.310 1_455 S
Dy273 O283 2.395 . S
Dy273 O284 2.379 . S
Dy273 O287 2.339 . S
Dy273 C303 2.738 . S
C274 O286 1.254 . S
C274 O287 1.257 . S
O275 Dy272 2.307 1_554 S
O275 C285 1.266 . S
O276 Dy273 2.298 . S
O276 C285 1.236 . S
O277 Dy272 2.395 . S
O277 C294 1.255 . S
O278 Dy272 2.379 . S
O278 C294 1.249 . S
O279 Dy273 2.275 1_556 S
O279 C295 1.254 . S
O280 Dy272 2.339 . S
O280 C295 1.257 . S
O281 Dy273 2.310 1_655 S
O281 C296 1.264 1_554 S
O282 Dy272 2.298 . S
O282 C296 1.236 1_455 S
O283 Dy273 2.395 . S
O283 C303 1.255 . S
O284 Dy273 2.379 . S
O284 C303 1.249 . S
C285 O275 1.266 . S
C285 O276 1.236 . S
O286 Dy272 2.275 1_554 S
O286 C274 1.254 . S
O287 Dy273 2.339 . S
O287 C274 1.257 . S
C288 C291 1.344 . S
C288 C292 1.328 . S
C288 C294 1.516 1_655 S
C289 C290 1.304 . S
C289 C293 1.323 . S
C290 C289 1.304 . S
C290 C291 1.371 . S
C290 H304 0.930 . S
C291 C288 1.344 . S
C291 C290 1.371 . S
C291 H305 0.931 . S
C292 C288 1.328 . S
C292 C293 1.433 . S
C292 H306 0.931 1_655 S
C293 C289 1.323 . S
C293 C292 1.433 . S
C293 H307 0.933 . S
C294 Dy272 2.738 . S
C294 O277 1.255 . S
C294 O278 1.249 . S
C294 C288 1.516 1_455 S
C295 O279 1.254 . S
C295 O280 1.257 . S
C296 O281 1.264 1_556 S
C296 O282 1.236 1_655 S
C297 C300 1.344 . S
C297 C301 1.328 . S
C297 C303 1.516 . S
C298 C299 1.304 . S
C298 C302 1.323 . S
C299 C298 1.304 . S
C299 C300 1.371 . S
C299 H308 0.930 . S
C300 C297 1.344 . S
C300 C299 1.371 . S
C300 H309 0.931 . S
C301 C297 1.328 . S
C301 C302 1.433 . S
C301 H310 0.931 . S
C302 C298 1.323 . S
C302 C301 1.433 . S
C302 H311 0.933 . S
C303 Dy273 2.738 . S
C303 O283 1.255 . S
C303 O284 1.249 . S
C303 C297 1.516 . S
H304 C290 0.930 . S
H305 C291 0.931 . S
H306 C292 0.931 1_455 S
H307 C293 0.933 . S
H308 C299 0.930 . S
H309 C300 0.931 . S
H310 C301 0.931 . S
H311 C302 0.933 . S
H312 C320 0.929 . S
H313 C322 0.930 . S
H314 C324 0.930 . S
H315 C327 0.929 . S
H316 C330 0.930 . S
H317 C332 0.960 . S
H318 C332 0.960 . S
H319 C332 0.960 . S
C320 H312 0.929 . S
C320 C321 1.377 . S
C320 C322 1.384 . S
C321 C320 1.377 . S
C321 C327 1.390 . S
C322 H313 0.930 . S
C322 C320 1.384 . S
C322 C323 1.372 . S
C323 C322 1.372 . S
C323 C324 1.400 . S
C323 C328 1.490 . S
C324 H314 0.930 . S
C324 C323 1.400 . S
C324 C327 1.386 . S
H325 C341 0.930 . S
H326 C342 0.931 . S
C327 H315 0.929 . S
C327 C321 1.390 . S
C327 C324 1.386 . S
C328 C323 1.490 . S
C328 C330 1.395 . S
C328 C331 1.403 . S
H329 C335 0.930 . S
C330 H316 0.930 . S
C330 C328 1.395 . S
C330 C333 1.403 . S
C331 C328 1.403 . S
C331 C332 1.524 . S
C331 C335 1.400 . S
C332 H317 0.960 . S
C332 H318 0.960 . S
C332 H319 0.960 . S
C332 C331 1.524 . S
C333 C330 1.403 . S
C333 C334 1.392 . S
C333 C337 1.495 . S
C334 C333 1.392 . S
C334 C335 1.385 . S
C334 C336 1.478 . S
C335 H329 0.930 . S
C335 C331 1.400 . S
C335 C334 1.385 . S
C336 C334 1.478 . S
C336 C338 1.381 . S
C336 C342 1.383 . S
C337 C333 1.495 . S
C337 H343 0.959 . S
C337 H344 0.961 . S
C337 H345 0.960 . S
C338 C336 1.381 . S
C338 C339 1.394 . S
C338 H346 0.930 . S
C339 C338 1.394 . S
C339 C340 1.383 . S
C339 H347 0.929 . S
C340 C339 1.383 . S
C340 C341 1.377 . S
C341 H325 0.930 . S
C341 C340 1.377 . S
C341 C342 1.379 . S
C342 H326 0.931 . S
C342 C336 1.383 . S
C342 C341 1.379 . S
H343 C337 0.959 . S
H344 C337 0.961 . S
H345 C337 0.960 . S
H346 C338 0.930 . S
H347 C339 0.929 . S
H348 C356 0.929 . S
H349 C358 0.930 . S
H350 C360 0.930 . S
H351 C363 0.929 . S
H352 C366 0.930 . S
H353 C368 0.960 . S
H354 C368 0.960 . S
H355 C368 0.960 . S
C356 H348 0.929 . S
C356 C357 1.377 . S
C356 C358 1.384 . S
C357 C356 1.377 . S
C357 C363 1.390 . S
C358 H349 0.930 . S
C358 C356 1.384 . S
C358 C359 1.372 . S
C359 C358 1.372 . S
C359 C360 1.400 . S
C359 C364 1.490 . S
C360 H350 0.930 . S
C360 C359 1.400 . S
C360 C363 1.386 . S
H361 C377 0.930 . S
H362 C378 0.931 . S
C363 H351 0.929 . S
C363 C357 1.390 . S
C363 C360 1.386 . S
C364 C359 1.490 . S
C364 C366 1.395 . S
C364 C367 1.403 . S
H365 C371 0.930 . S
C366 H352 0.930 . S
C366 C364 1.395 . S
C366 C369 1.403 . S
C367 C364 1.403 . S
C367 C368 1.524 . S
C367 C371 1.400 . S
C368 H353 0.960 . S
C368 H354 0.960 . S
C368 H355 0.960 . S
C368 C367 1.524 . S
C369 C366 1.403 . S
C369 C370 1.392 . S
C369 C373 1.495 . S
C370 C369 1.392 . S
C370 C371 1.385 . S
C370 C372 1.478 . S
C371 H365 0.930 . S
C371 C367 1.400 . S
C371 C370 1.385 . S
C372 C370 1.478 . S
C372 C374 1.381 . S
C372 C378 1.383 . S
C373 C369 1.495 . S
C373 H379 0.959 . S
C373 H380 0.961 . S
C373 H381 0.960 . S
C374 C372 1.381 . S
C374 C375 1.394 . S
C374 H382 0.930 . S
C375 C374 1.394 . S
C375 C376 1.383 . S
C375 H383 0.929 . S
C376 C375 1.383 . S
C376 C377 1.377 . S
C377 H361 0.930 . S
C377 C376 1.377 . S
C377 C378 1.379 . S
C378 H362 0.931 . S
C378 C372 1.383 . S
C378 C377 1.379 . S
H379 C373 0.959 . S
H380 C373 0.961 . S
H381 C373 0.960 . S
H382 C374 0.930 . S
H383 C375 0.929 . S
H384 C392 0.929 . S
H385 C394 0.930 . S
H386 C396 0.930 . S
H387 C399 0.929 . S
H388 C402 0.930 . S
H389 C404 0.960 . S
H390 C404 0.960 . S
H391 C404 0.960 . S
C392 H384 0.929 . S
C392 C393 1.377 . S
C392 C394 1.384 . S
C393 C392 1.377 . S
C393 C399 1.390 . S
C394 H385 0.930 . S
C394 C392 1.384 . S
C394 C395 1.372 . S
C395 C394 1.372 . S
C395 C396 1.400 . S
C395 C400 1.490 . S
C396 H386 0.930 . S
C396 C395 1.400 . S
C396 C399 1.386 . S
H397 C413 0.930 . S
H398 C414 0.931 . S
C399 H387 0.929 . S
C399 C393 1.390 . S
C399 C396 1.386 . S
C400 C395 1.490 . S
C400 C402 1.395 . S
C400 C403 1.403 . S
H401 C407 0.930 . S
C402 H388 0.930 . S
C402 C400 1.395 . S
C402 C405 1.403 . S
C403 C400 1.403 . S
C403 C404 1.524 . S
C403 C407 1.400 . S
C404 H389 0.960 . S
C404 H390 0.960 . S
C404 H391 0.960 . S
C404 C403 1.524 . S
C405 C402 1.403 . S
C405 C406 1.392 . S
C405 C409 1.495 . S
C406 C405 1.392 . S
C406 C407 1.385 . S
C406 C408 1.478 . S
C407 H401 0.930 . S
C407 C403 1.400 . S
C407 C406 1.385 . S
C408 C406 1.478 . S
C408 C410 1.381 . S
C408 C414 1.383 . S
C409 C405 1.495 . S
C409 H415 0.959 . S
C409 H416 0.961 . S
C409 H417 0.960 . S
C410 C408 1.381 . S
C410 C411 1.394 . S
C410 H418 0.930 . S
C411 C410 1.394 . S
C411 C412 1.383 . S
C411 H419 0.929 . S
C412 C411 1.383 . S
C412 C413 1.377 . S
C413 H397 0.930 . S
C413 C412 1.377 . S
C413 C414 1.379 . S
C414 H398 0.931 . S
C414 C408 1.383 . S
C414 C413 1.379 . S
H415 C409 0.959 . S
H416 C409 0.961 . S
H417 C409 0.960 . S
H418 C410 0.930 . S
H419 C411 0.929 . S
H420 C428 0.929 . S
H421 C430 0.930 . S
H422 C432 0.930 . S
H423 C435 0.929 . S
H424 C438 0.930 . S
H425 C440 0.960 . S
H426 C440 0.960 . S
H427 C440 0.960 . S
C428 H420 0.929 . S
C428 C429 1.377 . S
C428 C430 1.384 . S
C429 C428 1.377 . S
C429 C435 1.390 . S
C430 H421 0.930 . S
C430 C428 1.384 . S
C430 C431 1.372 . S
C431 C430 1.372 . S
C431 C432 1.400 . S
C431 C436 1.490 . S
C432 H422 0.930 . S
C432 C431 1.400 . S
C432 C435 1.386 . S
H433 C449 0.930 . S
H434 C450 0.931 . S
C435 H423 0.929 . S
C435 C429 1.390 . S
C435 C432 1.386 . S
C436 C431 1.490 . S
C436 C438 1.395 . S
C436 C439 1.403 . S
H437 C443 0.930 . S
C438 H424 0.930 . S
C438 C436 1.395 . S
C438 C441 1.403 . S
C439 C436 1.403 . S
C439 C440 1.524 . S
C439 C443 1.400 . S
C440 H425 0.960 . S
C440 H426 0.960 . S
C440 H427 0.960 . S
C440 C439 1.524 . S
C441 C438 1.403 . S
C441 C442 1.392 . S
C441 C445 1.495 . S
C442 C441 1.392 . S
C442 C443 1.385 . S
C442 C444 1.478 . S
C443 H437 0.930 . S
C443 C439 1.400 . S
C443 C442 1.385 . S
C444 C442 1.478 . S
C444 C446 1.381 . S
C444 C450 1.383 1_655 S
C445 C441 1.495 . S
C445 H451 0.959 . S
C445 H452 0.961 . S
C445 H453 0.960 . S
C446 C444 1.381 . S
C446 C447 1.394 . S
C446 H454 0.930 . S
C447 C446 1.394 . S
C447 C448 1.383 . S
C447 H455 0.929 . S
C448 C447 1.383 . S
C448 C449 1.377 1_655 S
C449 H433 0.930 . S
C449 C448 1.377 1_455 S
C449 C450 1.379 . S
C450 H434 0.931 . S
C450 C444 1.383 1_455 S
C450 C449 1.379 . S
H451 C445 0.959 . S
H452 C445 0.961 . S
H453 C445 0.960 . S
H454 C446 0.930 . S
H455 C447 0.929 . S
H456 C464 0.929 . S
H457 C466 0.930 . S
H458 C468 0.930 . S
H459 C471 0.929 . S
H460 C474 0.930 . S
H461 C476 0.960 . S
H462 C476 0.960 . S
H463 C476 0.960 . S
C464 H456 0.929 . S
C464 C465 1.377 . S
C464 C466 1.384 . S
C465 C464 1.377 . S
C465 C471 1.390 . S
C466 H457 0.930 . S
C466 C464 1.384 . S
C466 C467 1.372 . S
C467 C466 1.372 . S
C467 C468 1.400 . S
C467 C472 1.490 . S
C468 H458 0.930 . S
C468 C467 1.400 . S
C468 C471 1.386 . S
H469 C485 0.930 . S
H470 C486 0.931 . S
C471 H459 0.929 . S
C471 C465 1.390 . S
C471 C468 1.386 . S
C472 C467 1.490 . S
C472 C474 1.395 . S
C472 C475 1.403 . S
H473 C479 0.930 . S
C474 H460 0.930 . S
C474 C472 1.395 . S
C474 C477 1.403 . S
C475 C472 1.403 . S
C475 C476 1.524 . S
C475 C479 1.400 . S
C476 H461 0.960 . S
C476 H462 0.960 . S
C476 H463 0.960 . S
C476 C475 1.524 . S
C477 C474 1.403 . S
C477 C478 1.392 . S
C477 C481 1.495 . S
C478 C477 1.392 . S
C478 C479 1.385 . S
C478 C480 1.478 . S
C479 H473 0.930 . S
C479 C475 1.400 . S
C479 C478 1.385 . S
C480 C478 1.478 . S
C480 C482 1.381 . S
C480 C486 1.383 . S
C481 C477 1.495 . S
C481 H487 0.959 . S
C481 H488 0.961 . S
C481 H489 0.960 . S
C482 C480 1.381 . S
C482 C483 1.394 . S
C482 H490 0.930 . S
C483 C482 1.394 . S
C483 C484 1.383 . S
C483 H491 0.929 . S
C484 C483 1.383 . S
C484 C485 1.377 . S
C485 H469 0.930 . S
C485 C484 1.377 . S
C485 C486 1.379 . S
C486 H470 0.931 . S
C486 C480 1.383 . S
C486 C485 1.379 . S
H487 C481 0.959 . S
H488 C481 0.961 . S
H489 C481 0.960 . S
H490 C482 0.930 . S
H491 C483 0.929 . S
H492 C500 0.929 . S
H493 C502 0.930 . S
H494 C504 0.930 . S
H495 C507 0.929 . S
H496 C510 0.930 . S
H497 C512 0.960 . S
H498 C512 0.960 . S
H499 C512 0.960 . S
C500 H492 0.929 . S
C500 C501 1.377 . S
C500 C502 1.384 . S
C501 C500 1.377 . S
C501 C507 1.390 . S
C502 H493 0.930 . S
C502 C500 1.384 . S
C502 C503 1.372 . S
C503 C502 1.372 . S
C503 C504 1.400 . S
C503 C508 1.490 . S
C504 H494 0.930 . S
C504 C503 1.400 . S
C504 C507 1.386 . S
H505 C521 0.939 . S
H506 C522 0.931 . S
C507 H495 0.929 . S
C507 C501 1.390 . S
C507 C504 1.386 . S
C508 C503 1.490 . S
C508 C510 1.395 . S
C508 C511 1.403 . S
H509 C515 0.930 . S
C510 H496 0.930 . S
C510 C508 1.395 . S
C510 C513 1.403 . S
C511 C508 1.403 . S
C511 C512 1.524 . S
C511 C515 1.400 . S
C512 H497 0.960 . S
C512 H498 0.960 . S
C512 H499 0.960 . S
C512 C511 1.524 . S
C513 C510 1.403 . S
C513 C514 1.392 . S
C513 C517 1.495 . S
C514 C513 1.392 . S
C514 C515 1.385 . S
C514 C516 1.478 . S
C515 H509 0.930 . S
C515 C511 1.400 . S
C515 C514 1.385 . S
C516 C514 1.478 . S
C516 C518 1.381 . S
C516 C522 1.383 . S
C517 C513 1.495 . S
C517 H523 0.959 . S
C517 H524 0.961 . S
C517 H525 0.960 . S
C518 C516 1.381 . S
C518 C519 1.394 . S
C518 H526 0.930 . S
C519 C518 1.394 . S
C519 C520 1.383 . S
C519 H527 0.929 1_565 S
C520 C519 1.383 . S
C520 C521 1.377 . S
C521 H505 0.939 . S
C521 C520 1.377 . S
C521 C522 1.379 . S
C522 H506 0.931 . S
C522 C516 1.383 . S
C522 C521 1.379 . S
H523 C517 0.959 . S
H524 C517 0.961 . S
H525 C517 0.960 . S
H526 C518 0.930 . S
H527 C519 0.929 1_545 S
H528 C536 0.929 . S
H529 C538 0.930 . S
H530 C540 0.930 . S
H531 C543 0.929 . S
H532 C546 0.930 . S
H533 C548 0.960 . S
H534 C548 0.960 . S
H535 C548 0.960 . S
C536 H528 0.929 . S
C536 C537 1.377 . S
C536 C538 1.384 . S
C537 C536 1.377 . S
C537 C543 1.390 . S
C538 H529 0.930 . S
C538 C536 1.384 . S
C538 C539 1.372 . S
C539 C538 1.372 . S
C539 C540 1.400 . S
C539 C544 1.490 . S
C540 H530 0.930 . S
C540 C539 1.400 . S
C540 C543 1.386 . S
H541 C557 0.886 1_554 S
H542 C558 0.931 . S
C543 H531 0.929 . S
C543 C537 1.390 . S
C543 C540 1.386 . S
C544 C539 1.490 . S
C544 C546 1.395 . S
C544 C547 1.403 . S
H545 C551 0.930 . S
C546 H532 0.930 . S
C546 C544 1.395 . S
C546 C549 1.403 . S
C547 C544 1.403 . S
C547 C548 1.524 . S
C547 C551 1.400 . S
C548 H533 0.960 . S
C548 H534 0.960 . S
C548 H535 0.960 . S
C548 C547 1.524 . S
C549 C546 1.403 . S
C549 C550 1.392 . S
C549 C553 1.495 . S
C550 C549 1.392 . S
C550 C551 1.385 . S
C550 C552 1.478 . S
C551 H545 0.930 . S
C551 C547 1.400 . S
C551 C550 1.385 . S
C552 C550 1.478 . S
C552 C554 1.381 . S
C552 C558 1.383 . S
C553 C549 1.495 . S
C553 H559 0.959 . S
C553 H560 0.961 . S
C553 H561 0.960 . S
C554 C552 1.381 . S
C554 C555 1.394 . S
C554 H562 0.930 . S
C555 C554 1.394 . S
C555 C556 1.383 . S
C555 H563 0.929 . S
C556 C555 1.383 . S
C556 C557 1.401 . S
C557 H541 0.886 1_556 S
C557 C556 1.401 . S
C557 C558 1.399 . S
C558 H542 0.931 . S
C558 C552 1.383 . S
C558 C557 1.399 . S
H559 C553 0.959 . S
H560 C553 0.961 . S
H561 C553 0.960 . S
H562 C554 0.930 . S
H563 C555 0.929 . S
H564 C572 0.929 . S
H565 C574 0.930 . S
H566 C576 0.930 . S
H567 C579 0.929 . S
H568 C582 0.930 . S
H569 C584 0.960 . S
H570 C584 0.960 . S
H571 C584 0.960 . S
C572 H564 0.929 . S
C572 C573 1.377 . S
C572 C574 1.384 . S
C573 C572 1.377 . S
C573 C579 1.390 . S
C574 H565 0.930 . S
C574 C572 1.384 . S
C574 C575 1.372 . S
C575 C574 1.372 . S
C575 C576 1.400 . S
C575 C580 1.490 . S
C576 H566 0.930 . S
C576 C575 1.400 . S
C576 C579 1.386 . S
H577 C593 0.930 . S
H578 C594 0.931 . S
C579 H567 0.929 . S
C579 C573 1.390 . S
C579 C576 1.386 . S
C580 C575 1.490 . S
C580 C582 1.395 . S
C580 C583 1.403 . S
H581 C587 0.930 . S
C582 H568 0.930 . S
C582 C580 1.395 . S
C582 C585 1.403 . S
C583 C580 1.403 . S
C583 C584 1.524 . S
C583 C587 1.400 . S
C584 H569 0.960 . S
C584 H570 0.960 . S
C584 H571 0.960 . S
C584 C583 1.524 . S
C585 C582 1.403 . S
C585 C586 1.392 . S
C585 C589 1.495 . S
C586 C585 1.392 . S
C586 C587 1.385 . S
C586 C588 1.478 . S
C587 H581 0.930 . S
C587 C583 1.400 . S
C587 C586 1.385 . S
C588 C586 1.478 . S
C588 C590 1.381 . S
C588 C594 1.383 . S
C589 C585 1.495 . S
C589 H595 0.959 . S
C589 H596 0.961 . S
C589 H597 0.960 . S
C590 C588 1.381 . S
C590 C591 1.394 . S
C590 H598 0.930 . S
C591 C590 1.394 . S
C591 C592 1.383 . S
C591 H599 0.929 . S
C592 C591 1.383 . S
C592 C593 1.377 . S
C593 H577 0.930 . S
C593 C592 1.377 . S
C593 C594 1.379 . S
C594 H578 0.931 . S
C594 C588 1.383 . S
C594 C593 1.379 . S
H595 C589 0.959 . S
H596 C589 0.961 . S
H597 C589 0.960 . S
H598 C590 0.930 . S
H599 C591 0.929 . S
H600 C608 0.929 . S
H601 C610 0.930 . S
H602 C612 0.930 . S
H603 C615 0.929 . S
H604 C618 0.930 . S
H605 C620 0.960 . S
H606 C620 0.960 . S
H607 C620 0.960 . S
C608 H600 0.929 . S
C608 C609 1.377 . S
C608 C610 1.384 . S
C609 C608 1.377 . S
C609 C615 1.390 . S
C610 H601 0.930 . S
C610 C608 1.384 . S
C610 C611 1.372 . S
C611 C610 1.372 . S
C611 C612 1.400 . S
C611 C616 1.490 . S
C612 H602 0.930 . S
C612 C611 1.400 . S
C612 C615 1.386 . S
H613 C629 0.930 . S
H614 C630 0.931 . S
C615 H603 0.929 . S
C615 C609 1.390 . S
C615 C612 1.386 . S
C616 C611 1.490 . S
C616 C618 1.395 . S
C616 C619 1.403 . S
H617 C623 0.930 . S
C618 H604 0.930 . S
C618 C616 1.395 . S
C618 C621 1.403 . S
C619 C616 1.403 . S
C619 C620 1.524 . S
C619 C623 1.400 . S
C620 H605 0.960 . S
C620 H606 0.960 . S
C620 H607 0.960 . S
C620 C619 1.524 . S
C621 C618 1.403 . S
C621 C622 1.392 . S
C621 C625 1.495 . S
C622 C621 1.392 . S
C622 C623 1.385 . S
C622 C624 1.478 . S
C623 H617 0.930 . S
C623 C619 1.400 . S
C623 C622 1.385 . S
C624 C622 1.478 . S
C624 C626 1.381 . S
C624 C630 1.383 . S
C625 C621 1.495 . S
C625 H631 0.959 . S
C625 H632 0.961 . S
C625 H633 0.960 . S
C626 C624 1.381 . S
C626 C627 1.394 . S
C626 H634 0.930 . S
C627 C626 1.394 . S
C627 C628 1.383 . S
C627 H635 0.929 . S
C628 C627 1.383 . S
C628 C629 1.377 . S
C629 H613 0.930 . S
C629 C628 1.377 . S
C629 C630 1.379 . S
C630 H614 0.931 . S
C630 C624 1.383 . S
C630 C629 1.379 . S
H631 C625 0.959 . S
H632 C625 0.961 . S
H633 C625 0.960 . S
H634 C626 0.930 . S
H635 C627 0.929 . S
H636 C644 0.929 . S
H637 C646 0.930 . S
H638 C648 0.930 . S
H639 C651 0.929 . S
H640 C654 0.930 . S
H641 C656 0.960 . S
H642 C656 0.960 . S
H643 C656 0.960 . S
C644 H636 0.929 . S
C644 C645 1.377 . S
C644 C646 1.384 . S
C645 C644 1.377 . S
C645 C651 1.390 . S
C646 H637 0.930 . S
C646 C644 1.384 . S
C646 C647 1.372 . S
C647 C646 1.372 . S
C647 C648 1.400 . S
C647 C652 1.490 . S
C648 H638 0.930 . S
C648 C647 1.400 . S
C648 C651 1.386 . S
H649 C665 0.930 . S
H650 C666 0.931 . S
C651 H639 0.929 . S
C651 C645 1.390 . S
C651 C648 1.386 . S
C652 C647 1.490 . S
C652 C654 1.395 . S
C652 C655 1.403 . S
H653 C659 0.933 . S
C654 H640 0.930 . S
C654 C652 1.395 . S
C654 C657 1.403 . S
C655 C652 1.403 . S
C655 C656 1.524 . S
C655 C659 1.400 . S
C656 H641 0.960 . S
C656 H642 0.960 . S
C656 H643 0.960 . S
C656 C655 1.524 . S
C657 C654 1.403 . S
C657 C658 1.392 . S
C657 C661 1.495 . S
C658 C657 1.392 . S
C658 C659 1.385 . S
C658 C660 1.478 . S
C659 H653 0.933 . S
C659 C655 1.400 . S
C659 C658 1.385 . S
C660 C658 1.478 . S
C660 C662 1.381 1_556 S
C660 C666 1.383 . S
C661 C657 1.495 . S
C661 H667 0.959 . S
C661 H668 0.961 . S
C661 H669 0.960 . S
C662 C660 1.381 1_554 S
C662 C663 1.394 . S
C662 H670 0.930 . S
C663 C662 1.394 . S
C663 C664 1.383 . S
C663 H671 0.929 . S
C664 C663 1.383 . S
C664 C665 1.377 . S
C665 H649 0.930 . S
C665 C664 1.377 . S
C665 C666 1.379 1_554 S
C666 H650 0.931 . S
C666 C660 1.383 . S
C666 C665 1.379 1_556 S
H667 C661 0.959 . S
H668 C661 0.961 . S
H669 C661 0.960 . S
H670 C662 0.930 . S
H671 C663 0.929 . S
H672 C680 0.929 . S
H673 C682 0.930 . S
H674 C684 0.930 . S
H675 C687 0.929 . S
H676 C690 0.930 . S
H677 C692 0.960 . S
H678 C692 0.960 . S
H679 C692 0.960 . S
C680 H672 0.929 . S
C680 C681 1.377 . S
C680 C682 1.384 . S
C681 C680 1.377 . S
C681 C687 1.390 . S
C682 H673 0.930 . S
C682 C680 1.384 . S
C682 C683 1.372 . S
C683 C682 1.372 . S
C683 C684 1.400 . S
C683 C688 1.490 . S
C684 H674 0.930 . S
C684 C683 1.400 . S
C684 C687 1.386 . S
H685 C701 0.930 . S
H686 C702 0.931 . S
C687 H675 0.929 . S
C687 C681 1.390 . S
C687 C684 1.386 . S
C688 C683 1.490 . S
C688 C690 1.395 . S
C688 C691 1.403 . S
H689 C695 0.930 . S
C690 H676 0.930 . S
C690 C688 1.395 . S
C690 C693 1.403 . S
C691 C688 1.403 . S
C691 C692 1.524 . S
C691 C695 1.400 . S
C692 H677 0.960 . S
C692 H678 0.960 . S
C692 H679 0.960 . S
C692 C691 1.524 . S
C693 C690 1.403 . S
C693 C694 1.392 . S
C693 C697 1.495 . S
C694 C693 1.392 . S
C694 C695 1.385 . S
C694 C696 1.478 . S
C695 H689 0.930 . S
C695 C691 1.400 . S
C695 C694 1.385 . S
C696 C694 1.478 . S
C696 C698 1.381 . S
C696 C702 1.383 . S
C697 C693 1.495 . S
C697 H703 0.959 . S
C697 H704 0.961 . S
C697 H705 0.960 . S
C698 C696 1.381 . S
C698 C699 1.394 . S
C698 H706 0.930 . S
C699 C698 1.394 . S
C699 C700 1.383 . S
C699 H707 0.929 . S
C700 C699 1.383 . S
C700 C701 1.377 . S
C701 H685 0.930 . S
C701 C700 1.377 . S
C701 C702 1.379 . S
C702 H686 0.931 . S
C702 C696 1.383 . S
C702 C701 1.379 . S
H703 C697 0.959 . S
H704 C697 0.961 . S
H705 C697 0.960 . S
H706 C698 0.930 . S
H707 C699 0.929 . S
H708 C716 0.929 . S
H709 C718 0.930 . S
H710 C720 0.930 . S
H711 C723 0.929 . S
H712 C726 0.930 . S
H713 C728 0.960 . S
H714 C728 0.960 . S
H715 C728 0.960 . S
C716 H708 0.929 . S
C716 C717 1.377 . S
C716 C718 1.384 . S
C717 C716 1.377 . S
C717 C723 1.390 . S
C718 H709 0.930 . S
C718 C716 1.384 . S
C718 C719 1.372 . S
C719 C718 1.372 . S
C719 C720 1.400 . S
C719 C724 1.490 . S
C720 H710 0.930 . S
C720 C719 1.400 . S
C720 C723 1.386 . S
H721 C737 0.930 . S
H722 C738 0.931 . S
C723 H711 0.929 . S
C723 C717 1.390 . S
C723 C720 1.386 . S
C724 C719 1.490 . S
C724 C726 1.395 . S
C724 C727 1.403 . S
H725 C731 0.930 . S
C726 H712 0.930 . S
C726 C724 1.395 . S
C726 C729 1.403 . S
C727 C724 1.403 . S
C727 C728 1.524 . S
C727 C731 1.400 . S
C728 H713 0.960 . S
C728 H714 0.960 . S
C728 H715 0.960 . S
C728 C727 1.524 . S
C729 C726 1.403 . S
C729 C730 1.392 . S
C729 C733 1.495 . S
C730 C729 1.392 . S
C730 C731 1.385 . S
C730 C732 1.478 . S
C731 H725 0.930 . S
C731 C727 1.400 . S
C731 C730 1.385 . S
C732 C730 1.478 . S
C732 C734 1.381 . S
C732 C738 1.383 . S
C733 C729 1.495 . S
C733 H739 0.959 . S
C733 H740 0.961 . S
C733 H741 0.960 . S
C734 C732 1.381 . S
C734 C735 1.394 . S
C734 H742 0.930 . S
C735 C734 1.394 . S
C735 C736 1.383 . S
C735 H743 0.929 . S
C736 C735 1.383 . S
C736 C737 1.377 . S
C737 H721 0.930 . S
C737 C736 1.377 . S
C737 C738 1.379 . S
C738 H722 0.931 . S
C738 C732 1.383 . S
C738 C737 1.379 . S
H739 C733 0.959 . S
H740 C733 0.961 . S
H741 C733 0.960 . S
H742 C734 0.930 . S
H743 C735 0.929 . S
H744 C752 0.929 . S
H745 C754 0.930 . S
H746 C756 0.930 . S
H747 C759 0.929 . S
H748 C762 0.930 . S
H749 C764 0.960 . S
H750 C764 0.960 . S
H751 C764 0.960 . S
C752 H744 0.929 . S
C752 C753 1.377 . S
C752 C754 1.384 . S
C753 C752 1.377 . S
C753 C759 1.390 . S
C754 H745 0.930 . S
C754 C752 1.384 . S
C754 C755 1.372 . S
C755 C754 1.372 . S
C755 C756 1.400 . S
C755 C760 1.490 . S
C756 H746 0.930 . S
C756 C755 1.400 . S
C756 C759 1.386 . S
H757 C773 0.930 . S
H758 C774 0.931 . S
C759 H747 0.929 . S
C759 C753 1.390 . S
C759 C756 1.386 . S
C760 C755 1.490 . S
C760 C762 1.395 . S
C760 C763 1.403 . S
H761 C767 0.930 . S
C762 H748 0.930 . S
C762 C760 1.395 . S
C762 C765 1.403 . S
C763 C760 1.403 . S
C763 C764 1.524 . S
C763 C767 1.400 . S
C764 H749 0.960 . S
C764 H750 0.960 . S
C764 H751 0.960 . S
C764 C763 1.524 . S
C765 C762 1.403 . S
C765 C766 1.392 . S
C765 C769 1.495 . S
C766 C765 1.392 . S
C766 C767 1.385 . S
C766 C768 1.478 . S
C767 H761 0.930 . S
C767 C763 1.400 . S
C767 C766 1.385 . S
C768 C766 1.478 . S
C768 C770 1.381 . S
C768 C774 1.383 . S
C769 C765 1.495 . S
C769 H775 0.959 . S
C769 H776 0.961 . S
C769 H777 0.960 . S
C770 C768 1.381 . S
C770 C771 1.394 . S
C770 H778 0.930 . S
C771 C770 1.394 . S
C771 C772 1.383 . S
C771 H779 0.929 . S
C772 C771 1.383 . S
C772 C773 1.377 . S
C773 H757 0.930 . S
C773 C772 1.377 . S
C773 C774 1.379 . S
C774 H758 0.931 . S
C774 C768 1.383 . S
C774 C773 1.379 . S
H775 C769 0.959 . S
H776 C769 0.961 . S
H777 C769 0.960 . S
H778 C770 0.930 . S
H779 C771 0.929 . S
H780 C788 0.929 . S
H781 C790 0.930 . S
H782 C792 0.930 . S
H783 C795 0.929 . S
H784 C798 0.930 . S
H785 C800 0.960 . S
H786 C800 0.960 . S
H787 C800 0.960 . S
C788 H780 0.929 . S
C788 C789 1.377 . S
C788 C790 1.384 . S
C789 C788 1.377 . S
C789 C795 1.390 . S
C790 H781 0.930 . S
C790 C788 1.384 . S
C790 C791 1.372 . S
C791 C790 1.372 . S
C791 C792 1.400 . S
C791 C796 1.490 . S
C792 H782 0.930 . S
C792 C791 1.400 . S
C792 C795 1.386 . S
H793 C809 0.930 . S
H794 C810 0.931 . S
C795 H783 0.929 . S
C795 C789 1.390 . S
C795 C792 1.386 . S
C796 C791 1.490 . S
C796 C798 1.395 . S
C796 C799 1.403 . S
H797 C803 0.930 . S
C798 H784 0.930 . S
C798 C796 1.395 . S
C798 C801 1.403 . S
C799 C796 1.403 . S
C799 C800 1.524 . S
C799 C803 1.400 . S
C800 H785 0.960 . S
C800 H786 0.960 . S
C800 H787 0.960 . S
C800 C799 1.524 . S
C801 C798 1.403 . S
C801 C802 1.392 . S
C801 C805 1.495 . S
C802 C801 1.392 . S
C802 C803 1.385 . S
C802 C804 1.478 . S
C803 H797 0.930 . S
C803 C799 1.400 . S
C803 C802 1.385 . S
C804 C802 1.478 . S
C804 C806 1.381 . S
C804 C810 1.383 . S
C805 C801 1.495 . S
C805 H811 0.959 . S
C805 H812 0.961 . S
C805 H813 0.960 . S
C806 C804 1.381 . S
C806 C807 1.394 . S
C806 H814 0.930 . S
C807 C806 1.394 . S
C807 C808 1.383 . S
C807 H815 0.929 . S
C808 C807 1.383 . S
C808 C809 1.377 . S
C809 H793 0.930 . S
C809 C808 1.377 . S
C809 C810 1.379 . S
C810 H794 0.931 . S
C810 C804 1.383 . S
C810 C809 1.379 . S
H811 C805 0.959 . S
H812 C805 0.961 . S
H813 C805 0.960 . S
H814 C806 0.930 . S
H815 C807 0.929 . S
H816 C824 0.929 . S
H817 C826 0.930 . S
H818 C828 0.930 . S
H819 C831 0.929 . S
H820 C834 0.930 . S
H821 C836 0.960 . S
H822 C836 0.960 . S
H823 C836 0.960 . S
C824 H816 0.929 . S
C824 C825 1.377 . S
C824 C826 1.384 . S
C825 C824 1.377 . S
C825 C831 1.390 . S
C826 H817 0.930 . S
C826 C824 1.384 . S
C826 C827 1.372 . S
C827 C826 1.372 . S
C827 C828 1.400 . S
C827 C832 1.490 . S
C828 H818 0.930 . S
C828 C827 1.400 . S
C828 C831 1.386 . S
H829 C845 0.930 . S
H830 C846 0.931 . S
C831 H819 0.929 . S
C831 C825 1.390 . S
C831 C828 1.386 . S
C832 C827 1.490 . S
C832 C834 1.395 . S
C832 C835 1.403 . S
H833 C839 0.930 . S
C834 H820 0.930 . S
C834 C832 1.395 . S
C834 C837 1.403 . S
C835 C832 1.403 . S
C835 C836 1.524 . S
C835 C839 1.400 . S
C836 H821 0.960 . S
C836 H822 0.960 . S
C836 H823 0.960 . S
C836 C835 1.524 . S
C837 C834 1.403 . S
C837 C838 1.392 . S
C837 C841 1.495 . S
C838 C837 1.392 . S
C838 C839 1.385 . S
C838 C840 1.478 . S
C839 H833 0.930 . S
C839 C835 1.400 . S
C839 C838 1.385 . S
C840 C838 1.478 . S
C840 C842 1.381 . S
C840 C846 1.383 . S
C841 C837 1.495 . S
C841 H847 0.959 . S
C841 H848 0.961 . S
C841 H849 0.960 . S
C842 C840 1.381 . S
C842 C843 1.394 . S
C842 H850 0.930 . S
C843 C842 1.394 . S
C843 C844 1.383 . S
C843 H851 0.929 . S
C844 C843 1.383 . S
C844 C845 1.377 . S
C845 H829 0.930 . S
C845 C844 1.377 . S
C845 C846 1.379 . S
C846 H830 0.931 . S
C846 C840 1.383 . S
C846 C845 1.379 . S
H847 C841 0.959 . S
H848 C841 0.961 . S
H849 C841 0.960 . S
H850 C842 0.930 . S
H851 C843 0.929 . S
H852 C860 0.929 . S
H853 C862 0.930 . S
H854 C864 0.930 . S
H855 C867 0.929 . S
H856 C870 0.930 . S
H857 C872 0.960 . S
H858 C872 0.960 . S
H859 C872 0.960 . S
C860 H852 0.929 . S
C860 C861 1.377 . S
C860 C862 1.384 . S
C861 C860 1.377 . S
C861 C867 1.390 . S
C862 H853 0.930 . S
C862 C860 1.384 . S
C862 C863 1.372 . S
C863 C862 1.372 . S
C863 C864 1.400 . S
C863 C868 1.490 . S
C864 H854 0.930 . S
C864 C863 1.400 . S
C864 C867 1.386 . S
H865 C881 0.930 . S
H866 C882 0.931 . S
C867 H855 0.929 . S
C867 C861 1.390 . S
C867 C864 1.386 . S
C868 C863 1.490 . S
C868 C870 1.395 . S
C868 C871 1.403 . S
H869 C875 0.930 . S
C870 H856 0.930 . S
C870 C868 1.395 . S
C870 C873 1.403 . S
C871 C868 1.403 . S
C871 C872 1.524 . S
C871 C875 1.400 . S
C872 H857 0.960 . S
C872 H858 0.960 . S
C872 H859 0.960 . S
C872 C871 1.524 . S
C873 C870 1.403 . S
C873 C874 1.392 . S
C873 C877 1.495 . S
C874 C873 1.392 . S
C874 C875 1.385 . S
C874 C876 1.478 . S
C875 H869 0.930 . S
C875 C871 1.400 . S
C875 C874 1.385 . S
C876 C874 1.478 . S
C876 C878 1.381 . S
C876 C882 1.383 . S
C877 C873 1.495 . S
C877 H883 0.959 . S
C877 H884 0.961 . S
C877 H885 0.960 . S
C878 C876 1.381 . S
C878 C879 1.394 . S
C878 H886 0.930 . S
C879 C878 1.394 . S
C879 C880 1.383 . S
C879 H887 0.929 . S
C880 C879 1.383 . S
C880 C881 1.377 . S
C881 H865 0.930 . S
C881 C880 1.377 . S
C881 C882 1.379 . S
C882 H866 0.931 . S
C882 C876 1.383 . S
C882 C881 1.379 . S
H883 C877 0.959 . S
H884 C877 0.961 . S
H885 C877 0.960 . S
H886 C878 0.930 . S
H887 C879 0.929 . S
H888 C896 0.929 . S
H889 C898 0.930 . S
H890 C900 0.930 . S
H891 C903 0.929 . S
H892 C906 0.930 . S
H893 C908 0.960 . S
H894 C908 0.960 . S
H895 C908 0.960 . S
C896 H888 0.929 . S
C896 C897 1.377 . S
C896 C898 1.384 . S
C897 C896 1.377 . S
C897 C903 1.390 . S
C898 H889 0.930 . S
C898 C896 1.384 . S
C898 C899 1.372 . S
C899 C898 1.372 . S
C899 C900 1.400 . S
C899 C904 1.490 . S
C900 H890 0.930 . S
C900 C899 1.400 . S
C900 C903 1.386 . S
H901 C917 0.930 . S
H902 C918 0.931 . S
C903 H891 0.929 . S
C903 C897 1.390 . S
C903 C900 1.386 . S
C904 C899 1.490 . S
C904 C906 1.395 . S
C904 C907 1.403 . S
H905 C911 0.930 . S
C906 H892 0.930 . S
C906 C904 1.395 . S
C906 C909 1.403 . S
C907 C904 1.403 . S
C907 C908 1.524 . S
C907 C911 1.400 . S
C908 H893 0.960 . S
C908 H894 0.960 . S
C908 H895 0.960 . S
C908 C907 1.524 . S
C909 C906 1.403 . S
C909 C910 1.392 . S
C909 C913 1.495 1_556 S
C910 C909 1.392 . S
C910 C911 1.385 . S
C910 C912 1.478 1_556 S
C911 H905 0.930 . S
C911 C907 1.400 . S
C911 C910 1.385 . S
C912 C910 1.478 1_554 S
C912 C914 1.381 . S
C912 C918 1.383 . S
C913 C909 1.495 1_554 S
C913 H919 0.959 . S
C913 H920 0.961 . S
C913 H921 0.960 . S
C914 C912 1.381 . S
C914 C915 1.394 . S
C914 H922 0.938 . S
C915 C914 1.394 . S
C915 C916 1.383 . S
C915 H923 0.929 . S
C916 C915 1.383 . S
C916 C917 1.377 . S
C917 H901 0.930 . S
C917 C916 1.377 . S
C917 C918 1.379 . S
C918 H902 0.931 . S
C918 C912 1.383 . S
C918 C917 1.379 . S
H919 C913 0.959 . S
H920 C913 0.961 . S
H921 C913 0.960 . S
H922 C914 0.938 . S
H923 C915 0.929 . S
H924 C932 0.929 . S
H925 C934 0.930 . S
H926 C936 0.930 . S
H927 C939 0.929 . S
H928 C942 0.930 . S
H929 C944 0.960 . S
H930 C944 0.960 . S
H931 C944 0.960 . S
C932 H924 0.929 . S
C932 C933 1.377 . S
C932 C934 1.384 . S
C933 C932 1.377 . S
C933 C939 1.390 . S
C934 H925 0.930 . S
C934 C932 1.384 . S
C934 C935 1.372 . S
C935 C934 1.372 . S
C935 C936 1.400 . S
C935 C940 1.490 . S
C936 H926 0.930 . S
C936 C935 1.400 . S
C936 C939 1.386 . S
H937 C953 0.930 . S
H938 C954 0.931 . S
C939 H927 0.929 . S
C939 C933 1.390 . S
C939 C936 1.386 . S
C940 C935 1.490 . S
C940 C942 1.395 . S
C940 C943 1.403 . S
H941 C947 0.930 . S
C942 H928 0.930 . S
C942 C940 1.395 . S
C942 C945 1.403 . S
C943 C940 1.403 . S
C943 C944 1.524 . S
C943 C947 1.400 . S
C944 H929 0.960 . S
C944 H930 0.960 . S
C944 H931 0.960 . S
C944 C943 1.524 . S
C945 C942 1.403 . S
C945 C946 1.392 . S
C945 C949 1.495 . S
C946 C945 1.392 . S
C946 C947 1.385 . S
C946 C948 1.478 . S
C947 H941 0.930 . S
C947 C943 1.400 . S
C947 C946 1.385 . S
C948 C946 1.478 . S
C948 C950 1.381 . S
C948 C954 1.383 . S
C949 C945 1.495 . S
C949 H955 0.959 . S
C949 H956 0.961 . S
C949 H957 0.960 . S
C950 C948 1.381 . S
C950 C951 1.394 . S
C950 H958 0.930 . S
C951 C950 1.394 . S
C951 C952 1.383 . S
C951 H959 0.929 . S
C952 C951 1.383 . S
C952 C953 1.377 . S
C953 H937 0.930 . S
C953 C952 1.377 . S
C953 C954 1.379 . S
C954 H938 0.931 . S
C954 C948 1.383 . S
C954 C953 1.379 . S
H955 C949 0.959 . S
H956 C949 0.961 . S
H957 C949 0.960 . S
H958 C950 0.930 . S
H959 C951 0.929 . S
H960 C968 0.929 . S
H961 C970 0.930 . S
H962 C972 0.930 . S
H963 C975 0.929 . S
H964 C978 0.930 . S
H965 C980 0.960 . S
H966 C980 0.960 . S
H967 C980 0.960 . S
C968 H960 0.929 . S
C968 C969 1.377 . S
C968 C970 1.384 . S
C969 C968 1.377 . S
C969 C975 1.390 . S
C970 H961 0.930 . S
C970 C968 1.384 . S
C970 C971 1.372 . S
C971 C970 1.372 . S
C971 C972 1.400 . S
C971 C976 1.490 . S
C972 H962 0.930 . S
C972 C971 1.400 . S
C972 C975 1.386 . S
H973 C989 0.930 . S
H974 C990 0.931 . S
C975 H963 0.929 . S
C975 C969 1.390 . S
C975 C972 1.386 . S
C976 C971 1.490 . S
C976 C978 1.395 . S
C976 C979 1.403 . S
H977 C983 0.930 . S
C978 H964 0.930 . S
C978 C976 1.395 . S
C978 C981 1.403 . S
C979 C976 1.403 . S
C979 C980 1.524 . S
C979 C983 1.400 . S
C980 H965 0.960 . S
C980 H966 0.960 . S
C980 H967 0.960 . S
C980 C979 1.524 . S
C981 C978 1.403 . S
C981 C982 1.392 . S
C981 C985 1.495 . S
C982 C981 1.392 . S
C982 C983 1.385 . S
C982 C984 1.478 . S
C983 H977 0.930 . S
C983 C979 1.400 . S
C983 C982 1.385 . S
C984 C982 1.478 . S
C984 C986 1.381 . S
C984 C990 1.383 . S
C985 C981 1.495 . S
C985 H991 0.959 . S
C985 H992 0.961 . S
C985 H993 0.960 . S
C986 C984 1.381 . S
C986 C987 1.394 . S
C986 H994 0.930 . S
C987 C986 1.394 . S
C987 C988 1.383 . S
C987 H995 0.929 . S
C988 C987 1.383 . S
C988 C989 1.377 . S
C989 H973 0.930 . S
C989 C988 1.377 . S
C989 C990 1.379 . S
C990 H974 0.931 . S
C990 C984 1.383 . S
C990 C989 1.379 . S
H991 C985 0.959 . S
H992 C985 0.961 . S
H993 C985 0.960 . S
H994 C986 0.930 . S
H995 C987 0.929 . S
H996 C1004 0.929 . S
H997 C1006 0.930 . S
H998 C1008 0.930 . S
H999 C1011 0.929 . S
H1000 C1014 0.930 . S
H1001 C1016 0.960 . S
H1002 C1016 0.960 . S
H1003 C1016 0.960 . S
C1004 H996 0.929 . S
C1004 C1005 1.377 . S
C1004 C1006 1.384 . S
C1005 C1004 1.377 . S
C1005 C1011 1.390 . S
C1006 H997 0.930 . S
C1006 C1004 1.384 . S
C1006 C1007 1.372 . S
C1007 C1006 1.372 . S
C1007 C1008 1.400 . S
C1007 C1012 1.490 . S
C1008 H998 0.930 . S
C1008 C1007 1.400 . S
C1008 C1011 1.386 . S
H1009 C1025 0.930 . S
H1010 C1026 0.931 . S
C1011 H999 0.929 . S
C1011 C1005 1.390 . S
C1011 C1008 1.386 . S
C1012 C1007 1.490 . S
C1012 C1014 1.395 . S
C1012 C1015 1.403 . S
H1013 C1019 0.930 . S
C1014 H1000 0.930 . S
C1014 C1012 1.395 . S
C1014 C1017 1.403 . S
C1015 C1012 1.403 . S
C1015 C1016 1.524 . S
C1015 C1019 1.400 . S
C1016 H1001 0.960 . S
C1016 H1002 0.960 . S
C1016 H1003 0.960 . S
C1016 C1015 1.524 . S
C1017 C1014 1.403 . S
C1017 C1018 1.392 . S
C1017 C1021 1.495 . S
C1018 C1017 1.392 . S
C1018 C1019 1.385 . S
C1018 C1020 1.478 . S
C1019 H1013 0.930 . S
C1019 C1015 1.400 . S
C1019 C1018 1.385 . S
C1020 C1018 1.478 . S
C1020 C1022 1.381 . S
C1020 C1026 1.383 . S
C1021 C1017 1.495 . S
C1021 H1027 0.959 . S
C1021 H1028 0.961 . S
C1021 H1029 0.960 . S
C1022 C1020 1.381 . S
C1022 C1023 1.394 . S
C1022 H1030 0.930 . S
C1023 C1022 1.394 . S
C1023 C1024 1.383 . S
C1023 H1031 0.929 . S
C1024 C1023 1.383 . S
C1024 C1025 1.377 . S
C1025 H1009 0.930 . S
C1025 C1024 1.377 . S
C1025 C1026 1.379 . S
C1026 H1010 0.931 . S
C1026 C1020 1.383 . S
C1026 C1025 1.379 . S
H1027 C1021 0.959 . S
H1028 C1021 0.961 . S
H1029 C1021 0.960 . S
H1030 C1022 0.930 . S
H1031 C1023 0.929 . S
H1032 C1040 0.929 . S
H1033 C1042 0.930 . S
H1034 C1044 0.930 . S
H1035 C1047 0.929 . S
H1036 C1050 0.930 . S
H1037 C1052 0.960 . S
H1038 C1052 0.960 . S
H1039 C1052 0.960 . S
C1040 H1032 0.929 . S
C1040 C1041 1.377 . S
C1040 C1042 1.384 . S
C1041 C1040 1.377 . S
C1041 C1047 1.390 . S
C1042 H1033 0.930 . S
C1042 C1040 1.384 . S
C1042 C1043 1.372 . S
C1043 C1042 1.372 . S
C1043 C1044 1.400 . S
C1043 C1048 1.490 . S
C1044 H1034 0.930 . S
C1044 C1043 1.400 . S
C1044 C1047 1.386 . S
H1045 C1061 0.930 . S
H1046 C1062 0.931 . S
C1047 H1035 0.929 . S
C1047 C1041 1.390 . S
C1047 C1044 1.386 . S
C1048 C1043 1.490 . S
C1048 C1050 1.395 . S
C1048 C1051 1.403 . S
H1049 C1055 0.930 . S
C1050 H1036 0.930 . S
C1050 C1048 1.395 . S
C1050 C1053 1.403 . S
C1051 C1048 1.403 . S
C1051 C1052 1.524 . S
C1051 C1055 1.400 . S
C1052 H1037 0.960 . S
C1052 H1038 0.960 . S
C1052 H1039 0.960 . S
C1052 C1051 1.524 . S
C1053 C1050 1.403 . S
C1053 C1054 1.392 . S
C1053 C1057 1.495 . S
C1054 C1053 1.392 . S
C1054 C1055 1.385 . S
C1054 C1056 1.478 . S
C1055 H1049 0.930 . S
C1055 C1051 1.400 . S
C1055 C1054 1.385 . S
C1056 C1054 1.478 . S
C1056 C1058 1.381 . S
C1056 C1062 1.383 . S
C1057 C1053 1.495 . S
C1057 H1063 0.959 . S
C1057 H1064 0.961 . S
C1057 H1065 0.960 . S
C1058 C1056 1.381 . S
C1058 C1059 1.394 . S
C1058 H1066 0.930 . S
C1059 C1058 1.394 . S
C1059 C1060 1.383 . S
C1059 H1067 0.929 . S
C1060 C1059 1.383 . S
C1060 C1061 1.377 . S
C1061 H1045 0.930 . S
C1061 C1060 1.377 . S
C1061 C1062 1.379 . S
C1062 H1046 0.931 . S
C1062 C1056 1.383 . S
C1062 C1061 1.379 . S
H1063 C1057 0.959 . S
H1064 C1057 0.961 . S
H1065 C1057 0.960 . S
H1066 C1058 0.930 . S
H1067 C1059 0.929 . S
H1068 C1076 0.929 . S
H1069 C1078 0.930 . S
H1070 C1080 0.930 . S
H1071 C1083 0.929 . S
H1072 C1086 0.930 . S
H1073 C1088 0.960 . S
H1074 C1088 0.960 . S
H1075 C1088 0.960 . S
C1076 H1068 0.929 . S
C1076 C1077 1.377 . S
C1076 C1078 1.384 . S
C1077 C1076 1.377 . S
C1077 C1083 1.390 . S
C1078 H1069 0.930 . S
C1078 C1076 1.384 . S
C1078 C1079 1.372 . S
C1079 C1078 1.372 . S
C1079 C1080 1.400 . S
C1079 C1084 1.490 . S
C1080 H1070 0.930 . S
C1080 C1079 1.400 . S
C1080 C1083 1.386 . S
H1081 C1097 0.930 . S
H1082 C1098 0.931 . S
C1083 H1071 0.929 . S
C1083 C1077 1.390 . S
C1083 C1080 1.386 . S
C1084 C1079 1.490 . S
C1084 C1086 1.395 . S
C1084 C1087 1.403 . S
H1085 C1091 0.930 . S
C1086 H1072 0.930 . S
C1086 C1084 1.395 . S
C1086 C1089 1.403 . S
C1087 C1084 1.403 . S
C1087 C1088 1.524 . S
C1087 C1091 1.400 . S
C1088 H1073 0.960 . S
C1088 H1074 0.960 . S
C1088 H1075 0.960 . S
C1088 C1087 1.524 . S
C1089 C1086 1.403 . S
C1089 C1090 1.392 . S
C1089 C1093 1.495 . S
C1090 C1089 1.392 . S
C1090 C1091 1.385 . S
C1090 C1092 1.478 . S
C1091 H1085 0.930 . S
C1091 C1087 1.400 . S
C1091 C1090 1.385 . S
C1092 C1090 1.478 . S
C1092 C1094 1.381 . S
C1092 C1098 1.383 . S
C1093 C1089 1.495 . S
C1093 H1099 0.959 . S
C1093 H1100 0.961 . S
C1093 H1101 0.960 . S
C1094 C1092 1.381 . S
C1094 C1095 1.394 . S
C1094 H1102 0.930 . S
C1095 C1094 1.394 . S
C1095 C1096 1.383 . S
C1095 H1103 0.929 . S
C1096 C1095 1.383 . S
C1096 C1097 1.377 . S
C1097 H1081 0.930 . S
C1097 C1096 1.377 . S
C1097 C1098 1.379 . S
C1098 H1082 0.931 . S
C1098 C1092 1.383 . S
C1098 C1097 1.379 . S
H1099 C1093 0.959 . S
H1100 C1093 0.961 . S
H1101 C1093 0.960 . S
H1102 C1094 0.930 . S
H1103 C1095 0.929 . S
H1104 C1112 0.929 . S
H1105 C1114 0.930 . S
H1106 C1116 0.930 . S
H1107 C1119 0.929 . S
H1108 C1122 0.930 . S
H1109 C1124 0.960 . S
H1110 C1124 0.960 . S
H1111 C1124 0.960 . S
C1112 H1104 0.929 . S
C1112 C1113 1.377 . S
C1112 C1114 1.384 . S
C1113 C1112 1.377 . S
C1113 C1119 1.390 . S
C1114 H1105 0.930 . S
C1114 C1112 1.384 . S
C1114 C1115 1.372 . S
C1115 C1114 1.372 . S
C1115 C1116 1.400 . S
C1115 C1120 1.490 . S
C1116 H1106 0.930 . S
C1116 C1115 1.400 . S
C1116 C1119 1.386 . S
H1117 C1133 0.930 . S
H1118 C1134 0.931 . S
C1119 H1107 0.929 . S
C1119 C1113 1.390 . S
C1119 C1116 1.386 . S
C1120 C1115 1.490 . S
C1120 C1122 1.395 . S
C1120 C1123 1.403 . S
H1121 C1127 0.930 . S
C1122 H1108 0.930 . S
C1122 C1120 1.395 . S
C1122 C1125 1.403 . S
C1123 C1120 1.403 . S
C1123 C1124 1.524 . S
C1123 C1127 1.400 . S
C1124 H1109 0.960 . S
C1124 H1110 0.960 . S
C1124 H1111 0.960 . S
C1124 C1123 1.524 . S
C1125 C1122 1.403 . S
C1125 C1126 1.392 . S
C1125 C1129 1.495 . S
C1126 C1125 1.392 . S
C1126 C1127 1.385 . S
C1126 C1128 1.478 . S
C1127 H1121 0.930 . S
C1127 C1123 1.400 . S
C1127 C1126 1.385 . S
C1128 C1126 1.478 . S
C1128 C1130 1.381 . S
C1128 C1134 1.383 . S
C1129 C1125 1.495 . S
C1129 H1135 0.959 . S
C1129 H1136 0.961 . S
C1129 H1137 0.960 . S
C1130 C1128 1.381 . S
C1130 C1131 1.394 . S
C1130 H1138 0.930 . S
C1131 C1130 1.394 . S
C1131 C1132 1.383 . S
C1131 H1139 0.929 . S
C1132 C1131 1.383 . S
C1132 C1133 1.377 . S
C1133 H1117 0.930 . S
C1133 C1132 1.377 . S
C1133 C1134 1.379 . S
C1134 H1118 0.931 . S
C1134 C1128 1.383 . S
C1134 C1133 1.379 . S
H1135 C1129 0.959 . S
H1136 C1129 0.961 . S
H1137 C1129 0.960 . S
H1138 C1130 0.930 . S
H1139 C1131 0.929 . S
H1140 C1148 0.929 . S
H1141 C1150 0.930 . S
H1142 C1152 0.930 . S
H1143 C1155 0.929 . S
H1144 C1158 0.930 . S
H1145 C1160 0.960 . S
H1146 C1160 0.960 . S
H1147 C1160 0.960 . S
C1148 H1140 0.929 . S
C1148 C1149 1.377 . S
C1148 C1150 1.384 . S
C1149 C1148 1.377 . S
C1149 C1155 1.390 . S
C1150 H1141 0.930 . S
C1150 C1148 1.384 . S
C1150 C1151 1.372 . S
C1151 C1150 1.372 . S
C1151 C1152 1.400 . S
C1151 C1156 1.490 . S
C1152 H1142 0.930 . S
C1152 C1151 1.400 . S
C1152 C1155 1.386 . S
H1153 C1169 0.930 . S
H1154 C1170 0.931 . S
C1155 H1143 0.929 . S
C1155 C1149 1.390 . S
C1155 C1152 1.386 . S
C1156 C1151 1.490 . S
C1156 C1158 1.395 . S
C1156 C1159 1.403 . S
H1157 C1163 0.930 . S
C1158 H1144 0.930 . S
C1158 C1156 1.395 . S
C1158 C1161 1.403 . S
C1159 C1156 1.403 . S
C1159 C1160 1.524 . S
C1159 C1163 1.400 . S
C1160 H1145 0.960 . S
C1160 H1146 0.960 . S
C1160 H1147 0.960 . S
C1160 C1159 1.524 . S
C1161 C1158 1.403 . S
C1161 C1162 1.392 . S
C1161 C1165 1.495 . S
C1162 C1161 1.392 . S
C1162 C1163 1.385 . S
C1162 C1164 1.478 . S
C1163 H1157 0.930 . S
C1163 C1159 1.400 . S
C1163 C1162 1.385 . S
C1164 C1162 1.478 . S
C1164 C1166 1.381 . S
C1164 C1170 1.383 . S
C1165 C1161 1.495 . S
C1165 H1171 0.959 . S
C1165 H1172 0.961 . S
C1165 H1173 0.960 . S
C1166 C1164 1.381 . S
C1166 C1167 1.394 . S
C1166 H1174 0.930 . S
C1167 C1166 1.394 . S
C1167 C1168 1.383 . S
C1167 H1175 0.929 . S
C1168 C1167 1.383 . S
C1168 C1169 1.377 . S
C1169 H1153 0.930 . S
C1169 C1168 1.377 . S
C1169 C1170 1.379 . S
C1170 H1154 0.931 . S
C1170 C1164 1.383 . S
C1170 C1169 1.379 . S
H1171 C1165 0.959 . S
H1172 C1165 0.961 . S
H1173 C1165 0.960 . S
H1174 C1166 0.930 . S
H1175 C1167 0.929 . S
C321 C6 1.194 . S
C340 C169 1.207 . S
C357 C21 1.556 . S
C376 C209 1.604 . S
C412 C234 1.639 . S
C393 C49 1.576 . S
C429 C68 2.047 . S
C448 C274 2.127 1_655 S
C484 C205 2.687 . S
C465 C2 2.625 . S
C520 C165 1.410 1_565 S
C501 C30 1.362 . S
C556 C296 1.425 . S
C537 C40 1.426 . S
C592 C256 1.315 . S
C573 C63 1.371 . S
C609 C11 1.109 . S
C628 C298 1.214 . S
C664 C215 2.408 . S
C645 C44 2.471 . S
C681 C59 1.637 . S
C700 C175 1.629 . S
C717 C25 1.743 . S
C736 C258 1.716 . S
C772 C178 1.536 . S
C753 C82 1.517 . S
C789 C101 1.178 . S
C808 C218 1.196 . S
C825 C125 2.068 . S
C844 C255 2.098 . S
C861 C144 1.663 . S
C880 C295 1.719 . S
C897 C87 1.379 . S
C916 C216 1.467 1_565 S
C952 C176 2.632 . S
C933 C97 2.571 . S
C988 C285 1.261 . S
C969 C120 1.336 . S
C1024 C245 1.462 . S
C1005 C135 1.452 . S
C1041 C78 1.772 . S
C1060 C289 1.816 . S
C1096 C194 1.573 . S
C1077 C116 1.606 . S
C1132 C154 2.383 . S
C1113 C139 2.446 . S
C1149 C106 0.987 . S
C1168 C249 1.170 . S
