# Generated by pormake.
# Topology tsx, (6,3)-cn, num edge types: 1
# Building blocks:
#     Node 0, Type 0, BuildingBlock: JUFBIX_clean_sbu_0, # of connection points: 6
#     Node 1, Type 0, BuildingBlock: JUFBIX_clean_sbu_0, # of connection points: 6
#     Node 2, Type 1, BuildingBlock: QEWDON_clean_linker_0, # of connection points: 3
#     Node 3, Type 1, BuildingBlock: QEWDON_clean_linker_0, # of connection points: 3
#     Node 4, Type 1, BuildingBlock: QEWDON_clean_linker_0, # of connection points: 3
#     Node 5, Type 1, BuildingBlock: QEWDON_clean_linker_0, # of connection points: 3
#     Edge 6, Type (0, 1), BuildingBlock: XIVTED_clean_linker_0, # of connection points: 2
#     Edge 7, Type (0, 1), BuildingBlock: XIVTED_clean_linker_0, # of connection points: 2
#     Edge 8, Type (0, 1), BuildingBlock: XIVTED_clean_linker_0, # of connection points: 2
#     Edge 9, Type (0, 1), BuildingBlock: XIVTED_clean_linker_0, # of connection points: 2
#     Edge 10, Type (0, 1), BuildingBlock: XIVTED_clean_linker_0, # of connection points: 2
#     Edge 11, Type (0, 1), BuildingBlock: XIVTED_clean_linker_0, # of connection points: 2
#     Edge 12, Type (0, 1), BuildingBlock: XIVTED_clean_linker_0, # of connection points: 2
#     Edge 13, Type (0, 1), BuildingBlock: XIVTED_clean_linker_0, # of connection points: 2
#     Edge 14, Type (0, 1), BuildingBlock: XIVTED_clean_linker_0, # of connection points: 2
#     Edge 15, Type (0, 1), BuildingBlock: XIVTED_clean_linker_0, # of connection points: 2
#     Edge 16, Type (0, 1), BuildingBlock: XIVTED_clean_linker_0, # of connection points: 2
#     Edge 17, Type (0, 1), BuildingBlock: XIVTED_clean_linker_0, # of connection points: 2
# Relax obj value: 0.110
# Max RMSD: 0.169
# Mean RMSD: 0.146
data_MOF--net-tsx--node1-JUFBIX_clean_sbu_0--node2-QEWDON_clean_linker_0--edge1-XIVTED_clean_linker_0
_symmetry_space_group_name_H-M    P1
_symmetry_Int_Tables_number       1
_symmetry_cell_setting            triclinic
loop_
_symmetry_equiv_pos_as_xyz
'x, y, z'
_cell_length_a     21.28588
_cell_length_b     26.238093
_cell_length_c     32.323456
_cell_angle_alpha  93.366479
_cell_angle_beta   105.55882
_cell_angle_gamma 98.461305
loop_
_atom_site_label
_atom_site_type_symbol
_atom_site_fract_x
_atom_site_fract_y
_atom_site_fract_z
_atom_type_partial_charge
Co0 Co 0.07643 0.96915 0.00811 0.0
C1 C 0.99296 0.00057 0.93341 0.0
Co2 Co 1.00939 0.02281 0.01835 0.0
C3 C 0.15698 0.88787 0.01291 0.0
C4 C 0.15764 0.93233 0.95947 0.0
N5 N 0.13273 0.92801 0.9936 0.0
N6 N 0.1951 0.86681 0.99167 0.0
C7 C 0.19545 0.89453 0.95801 0.0
H8 H 0.14588 0.8737 0.04139 0.0
H9 H 0.14879 0.96111 0.93692 0.0
C10 C 0.09398 -0.0083 0.09308 0.0
N11 N 0.95275 0.06323 0.03403 0.0
C12 C 0.9244 0.10225 0.01554 0.0
C13 C 0.92964 0.05672 0.06876 0.0
N14 N 0.88549 0.12046 0.0379 0.0
C15 C 0.88895 0.09194 0.07139 0.0
C16 C 0.95599 0.91644 0.00816 0.0
O17 O 0.11354 0.96387 0.06727 0.0
O18 O 0.05006 0.01885 0.07806 0.0
O19 O 0.94557 0.96214 0.01587 0.0
O20 O 0.01224 0.91006 0.00435 0.0
O21 O 0.97045 0.02705 0.95855 0.0
H22 H 0.94066 0.02746 0.09058 0.0
H23 H 0.93207 0.11698 0.98637 0.0
O24 O 0.03808 0.97463 0.94904 0.0
O25 O 0.14047 0.02866 0.01162 0.0
O26 O 0.07333 0.08224 0.01994 0.0
C27 C 0.1296 0.07464 0.01659 0.0
H28 H 0.22176 0.88812 0.93429 0.0
H29 H 0.86225 0.09526 0.09534 0.0
Co30 Co 0.56631 0.4739 0.49825 0.0
C31 C 0.48522 0.51109 0.42577 0.0
Co32 Co 0.50031 0.52669 0.51146 0.0
C33 C 0.6533 0.39668 0.50312 0.0
C34 C 0.64812 0.44041 0.44877 0.0
N35 N 0.62311 0.43383 0.48264 0.0
N36 N 0.69659 0.38049 0.48351 0.0
C37 C 0.69276 0.40768 0.44909 0.0
H38 H 0.64595 0.38346 0.53283 0.0
H39 H 0.63658 0.46855 0.42596 0.0
C40 C 0.58341 0.49199 0.58435 0.0
N41 N 0.44431 0.5664 0.5287 0.0
C42 C 0.4144 0.60487 0.51051 0.0
C43 C 0.4226 0.55945 0.56394 0.0
N44 N 0.37574 0.62225 0.53343 0.0
C45 C 0.38109 0.59384 0.5671 0.0
C46 C 0.44584 0.42118 0.49755 0.0
O47 O 0.60077 0.46388 0.5575 0.0
O48 O 0.54192 0.52139 0.57045 0.0
O49 O 0.43749 0.4664 0.50874 0.0
O50 O 0.50037 0.41483 0.49071 0.0
O51 O 0.46015 0.5325 0.45227 0.0
H52 H 0.43485 0.53028 0.58564 0.0
H53 H 0.42053 0.61962 0.481 0.0
O54 O 0.53118 0.48518 0.43941 0.0
O55 O 0.63163 0.53318 0.50543 0.0
O56 O 0.56376 0.58628 0.51333 0.0
C57 C 0.62034 0.579 0.51043 0.0
H58 H 0.72113 0.40487 0.42608 0.0
H59 H 0.35494 0.59648 0.59141 0.0
H60 H 0.13736 0.04258 0.42049 0.0
C61 C 0.12676 0.00346 0.42751 0.0
C62 C 0.14478 0.96497 0.40294 0.0
C63 C 0.09668 -0.00912 0.46074 0.0
H64 H 0.1697 0.88861 0.40317 0.0
C65 C 0.1477 0.9165 0.41825 0.0
C66 C 0.1257 0.90405 0.4539 0.0
C67 C 0.0976 0.94021 0.47365 0.0
C68 C 0.07308 0.03003 0.48854 0.0
H69 H 0.07955 0.92936 0.50066 0.0
C70 C 0.98695 0.08918 0.48284 0.0
C71 C 0.98473 0.11216 0.53192 0.0
C72 C 0.11217 0.02515 0.54225 0.0
H73 H 0.15034 0.00145 0.55074 0.0
C74 C 0.09231 0.05708 0.58266 0.0
H75 H 1.00765 0.07216 0.47839 0.0
C76 C 0.03498 0.0968 0.57762 0.0
H77 H 0.03249 0.11626 0.60746 0.0
H78 H 0.11978 0.05238 0.61519 0.0
H79 H 0.96023 0.03979 0.60384 0.0
C80 C 0.9629 0.00081 0.59345 0.0
C81 C 0.95079 0.9632 0.62087 0.0
C82 C 0.97732 -0.01345 0.55414 0.0
H83 H 0.92312 0.88178 0.62467 0.0
C84 C 0.93953 0.91084 0.60556 0.0
C85 C 0.94514 0.89566 0.56498 0.0
C86 C 0.96818 0.93291 0.54107 0.0
C87 C 0.99685 0.02326 0.52235 0.0
H88 H 0.97623 0.91896 0.51114 0.0
C89 C 0.09063 0.10669 0.52298 0.0
C90 C 0.09352 0.11648 0.46989 0.0
C91 C 0.95821 -0.00407 0.46718 0.0
H92 H 0.91919 0.96257 0.46013 0.0
C93 C 0.98042 0.0219 0.42296 0.0
H94 H 0.1265 0.13236 0.54946 0.0
C95 C 0.04078 0.07661 0.42427 0.0
H96 H 0.04503 0.08728 0.39318 0.0
H97 H 0.95345 0.00257 0.39136 0.0
H98 H 0.63734 0.53783 0.91372 0.0
C99 C 0.6289 0.49913 0.92223 0.0
C100 C 0.64424 0.45995 0.89675 0.0
C101 C 0.60371 0.48757 0.95786 0.0
H102 H 0.67005 0.3839 0.89669 0.0
C103 C 0.64998 0.41216 0.9129 0.0
C104 C 0.63312 0.40083 0.95055 0.0
C105 C 0.60696 0.43735 0.97149 0.0
C106 C 0.58086 0.52681 0.98632 0.0
H107 H 0.59155 0.42699 -0.00039 0.0
C108 C 0.49167 0.58316 0.98195 0.0
C109 C 0.49072 0.60573 0.03168 0.0
C110 C 0.62256 0.52299 0.03966 0.0
H111 H 0.66193 0.50031 0.04752 0.0
C112 C 0.60338 0.55392 0.0807 0.0
H113 H 0.51283 0.56695 0.97706 0.0
C114 C 0.54458 0.59198 0.07691 0.0
H115 H 0.54144 0.6093 0.10734 0.0
H116 H 0.63223 0.54948 0.11295 0.0
H117 H 0.45101 0.54226 0.09228 0.0
C118 C 0.45988 0.50316 0.0884 0.0
C119 C 0.44195 0.46982 0.11728 0.0
C120 C 0.48466 0.48488 0.05465 0.0
H121 H 0.41844 0.39001 0.12828 0.0
C122 C 0.43657 0.41643 0.10789 0.0
C123 C 0.44988 0.39664 0.07068 0.0
C124 C 0.47795 0.43065 0.04611 0.0
C125 C 0.50675 0.51807 0.02183 0.0
H126 H 0.4906 0.4142 0.01855 0.0
C127 C 0.59604 0.60346 0.02044 0.0
C128 C 0.59632 0.61316 0.96699 0.0
C129 C 0.46727 0.48951 0.96728 0.0
H130 H 0.42997 0.4551 0.96138 0.0
C131 C 0.48579 0.51604 0.92207 0.0
H132 H 0.63067 0.63083 0.04628 0.0
C133 C 0.54349 0.5722 0.92207 0.0
H134 H 0.54597 0.58292 0.89066 0.0
H135 H 0.45838 0.49601 0.8908 0.0
H136 H 0.26215 0.07629 0.04713 0.0
H137 H 0.36214 0.36354 0.99299 0.0
H138 H 0.11865 0.17178 0.99229 0.0
H139 H 0.46758 0.30798 0.11034 0.0
H140 H 0.28768 0.27992 0.97384 0.0
H141 H 0.3511 0.14992 0.0535 0.0
C142 C 0.24948 0.11264 0.03608 0.0
C143 C 0.1831 0.11834 0.01949 0.0
C144 C 0.32824 0.28571 0.0032 0.0
C145 C 0.28418 0.2015 0.02555 0.0
C146 C 0.37123 0.33297 0.01386 0.0
C147 C 0.42082 0.34247 0.05333 0.0
C148 C 0.33577 0.24758 0.03189 0.0
C149 C 0.42979 0.30197 0.07965 0.0
C150 C 0.30013 0.15438 0.03973 0.0
C151 C 0.16921 0.16611 0.00569 0.0
N152 N 0.38714 0.2562 0.06862 0.0
N153 N 0.21948 0.20595 0.00885 0.0
H154 H 0.19703 0.78775 0.93579 0.0
H155 H 0.49744 0.68748 0.09174 0.0
H156 H 0.26947 0.84795 0.06981 0.0
H157 H 0.3687 0.59811 0.97574 0.0
H158 H 0.41713 0.74695 0.08669 0.0
H159 H 0.26253 0.71858 0.95072 0.0
C160 C 0.22656 0.78593 0.96849 0.0
C161 C 0.22827 0.82335 0.0016 0.0
C162 C 0.4063 0.71382 0.06278 0.0
C163 C 0.3043 0.74495 0.01908 0.0
C164 C 0.45194 0.67976 0.06574 0.0
C165 C 0.4403 0.63825 0.03371 0.0
C166 C 0.34928 0.70626 0.02741 0.0
C167 C 0.38074 0.63038 0.00054 0.0
C168 C 0.26376 0.74645 0.97712 0.0
C169 C 0.2669 0.81942 0.04357 0.0
N170 N 0.338 0.66433 -0.00201 0.0
N171 N 0.30441 0.78127 0.0511 0.0
H172 H 0.95501 0.81661 0.97766 0.0
H173 H 0.59475 0.71063 -0.00329 0.0
H174 H 0.83217 0.91457 0.0187 0.0
H175 H 0.69772 0.62162 0.92887 0.0
H176 H 0.68011 0.78636 0.00354 0.0
H177 H 0.86221 0.74448 0.96016 0.0
C178 C 0.90868 0.8229 0.98328 0.0
C179 C 0.90153 0.87169 -2e-05 0.0
C180 C 0.68367 0.75059 0.98649 0.0
C181 C 0.79491 0.78931 0.97958 0.0
C182 C 0.63479 0.70751 0.98238 0.0
C183 C 0.63925 0.66018 0.96196 0.0
C184 C 0.73825 0.74594 0.97085 0.0
C185 C 0.69217 0.65766 0.94435 0.0
C186 C 0.85554 0.78178 0.97289 0.0
C187 C 0.84008 0.87762 0.00611 0.0
N188 N 0.74031 0.69988 0.94971 0.0
N189 N 0.78929 0.83689 0.99609 0.0
H190 H 0.86094 0.18987 0.0942 0.0
H191 H 0.60387 0.30285 0.90919 0.0
H192 H 0.81669 0.13987 0.95858 0.0
H193 H 0.70296 0.38948 0.03286 0.0
H194 H 0.66093 0.23076 0.93264 0.0
H195 H 0.78648 0.2534 0.07677 0.0
C196 C 0.83541 0.19233 0.06074 0.0
C197 C 0.84504 0.15985 0.02769 0.0
C198 C 0.66935 0.2652 0.95491 0.0
C199 C 0.75915 0.23149 0.00766 0.0
C200 C 0.63634 0.30608 0.94175 0.0
C201 C 0.64956 0.35242 0.96894 0.0
C202 C 0.7155 0.27049 0.9957 0.0
C203 C 0.69147 0.35443 0.01092 0.0
C204 C 0.79302 0.22846 0.05087 0.0
C205 C 0.81119 0.16467 0.98488 0.0
N206 N 0.72381 0.31426 0.02287 0.0
N207 N 0.76943 0.19967 0.97609 0.0
H208 H 0.60637 0.6766 0.48899 0.0
H209 H 0.97056 0.804 0.59683 0.0
H210 H 0.75337 0.58039 0.53472 0.0
H211 H 0.84881 0.86774 0.49001 0.0
H212 H 0.89508 0.72082 0.57551 0.0
H213 H 0.69524 0.7487 0.49174 0.0
C214 C 0.65735 0.67079 0.49967 0.0
C215 C 0.67282 0.62287 0.51206 0.0
C216 C 0.88606 0.75261 0.55603 0.0
C217 C 0.77414 0.70462 0.51523 0.0
C218 C 0.92918 0.79981 0.56804 0.0
C219 C 0.91534 0.84254 0.54523 0.0
C220 C 0.82817 0.749 0.52186 0.0
C221 C 0.86105 0.83554 0.50832 0.0
C222 C 0.70789 0.71159 0.50072 0.0
C223 C 0.73957 0.61695 0.52508 0.0
N224 N 0.81827 0.78997 0.4984 0.0
N225 N 0.78801 0.65768 0.52699 0.0
H226 H 0.81729 0.38378 0.47083 0.0
H227 H 0.89963 0.12725 0.58129 0.0
H228 H 0.68132 0.2977 0.52958 0.0
H229 H 0.98246 0.19237 0.48416 0.0
H230 H 0.83053 0.19616 0.57559 0.0
H231 H 0.8909 0.32129 0.48938 0.0
C232 C 0.80266 0.35148 0.48747 0.0
C233 C 0.74222 0.34534 0.49771 0.0
C234 C 0.86422 0.19521 0.55582 0.0
C235 C 0.82725 0.27334 0.51966 0.0
C236 C 0.90367 0.15628 0.55923 0.0
C237 C 0.94607 0.1541 0.53284 0.0
C238 C 0.86889 0.2323 0.52655 0.0
C239 C 0.94971 0.19222 0.50466 0.0
C240 C 0.84501 0.31585 0.49832 0.0
C241 C 0.72729 0.30362 0.52083 0.0
N242 N 0.91178 0.22959 0.50232 0.0
N243 N 0.76933 0.26873 0.53074 0.0
H244 H 0.33047 0.41955 0.51928 0.0
H245 H 0.17574 0.12844 0.41685 0.0
H246 H 0.43566 0.32323 0.45883 0.0
H247 H 0.11022 0.21119 0.51229 0.0
H248 H 0.2599 0.2045 0.41968 0.0
H249 H 0.23857 0.34763 0.50565 0.0
C250 C 0.3343 0.38321 0.5032 0.0
C251 C 0.39106 0.37718 0.49054 0.0
C252 C 0.22673 0.20587 0.43978 0.0
C253 C 0.28562 0.29484 0.47441 0.0
C254 C 0.17861 0.16263 0.43801 0.0
C255 C 0.13737 0.1632 0.46522 0.0
C256 C 0.23215 0.2499 0.46831 0.0
C257 C 0.14236 0.20874 0.49162 0.0
C258 C 0.28175 0.3422 0.49535 0.0
C259 C 0.39306 0.32929 0.46954 0.0
N260 N 0.1891 0.25017 0.49267 0.0
N261 N 0.34098 0.28982 0.4621 0.0
H262 H 0.30671 0.64126 0.45412 0.0
H263 H 0.18974 0.89053 0.5368 0.0
H264 H 0.34751 0.68942 0.58984 0.0
H265 H 0.09676 0.80699 0.41113 0.0
H266 H 0.24454 0.81664 0.55899 0.0
H267 H 0.23075 0.7037 0.43801 0.0
C268 C 0.29993 0.66529 0.48045 0.0
C269 C 0.33344 0.66043 0.52329 0.0
C270 C 0.21089 0.81401 0.52689 0.0
C271 C 0.24637 0.73145 0.50536 0.0
C272 C 0.17898 0.85588 0.51444 0.0
C273 C 0.13947 0.85497 0.47193 0.0
C274 C 0.2036 0.77153 0.49637 0.0
C275 C 0.12768 0.80938 0.44404 0.0
C276 C 0.256 0.7004 0.47136 0.0
C277 C 0.32221 0.69189 0.55637 0.0
N278 N 0.16078 0.76993 0.45641 0.0
N279 N 0.28003 0.72642 0.54673 0.0
H280 H 0.15044 0.91692 0.13764 0.0
H281 H 0.19352 0.05571 0.37198 0.0
H282 H 0.097 0.06749 0.15528 0.0
H283 H 0.11902 0.89229 0.33355 0.0
H284 H 0.19591 0.06628 0.29759 0.0
H285 H 0.18066 0.91425 0.21617 0.0
C286 C 0.14619 0.94973 0.15808 0.0
C287 C 0.12014 -0.00795 0.14012 0.0
C288 C 0.18038 0.02813 0.30619 0.0
C289 C 0.1555 -0.01039 0.22933 0.0
C290 C 0.17823 0.02198 0.34854 0.0
C291 C 0.15584 0.97294 0.35982 0.0
C292 C 0.16167 -0.01518 0.27531 0.0
C293 C 0.13848 0.93072 0.32755 0.0
C294 C 0.16335 0.94817 0.2027 0.0
C295 C 0.11583 0.03374 0.16798 0.0
N296 N 0.14185 0.93767 0.28702 0.0
N297 N 0.133 0.0314 0.21134 0.0
H298 H 0.96815 0.91482 0.87862 0.0
H299 H 0.89381 0.0381 0.65589 0.0
H300 H 0.96097 0.07836 0.88142 0.0
H301 H 0.01318 0.91914 0.68987 0.0
H302 H 0.89178 0.05062 0.73207 0.0
H303 H 0.94864 0.90969 0.80079 0.0
C304 C 0.96144 0.94958 0.86257 0.0
C305 C 0.96718 -0.00281 0.88625 0.0
C306 C 0.91829 0.02198 0.72241 0.0
C307 C 0.94645 -0.0081 0.7973 0.0
C308 C 0.9198 0.01499 0.67925 0.0
C309 C 0.95246 0.97666 0.66641 0.0
C310 C 0.94894 -0.01009 0.75208 0.0
C311 C 0.98566 0.94798 0.69794 0.0
C312 C 0.95064 0.94671 0.81825 0.0
C313 C 0.95708 0.041 0.86396 0.0
N314 N 0.98236 0.95478 0.73897 0.0
N315 N 0.94823 0.03759 0.82039 0.0
H316 H 0.59649 0.56936 0.64732 0.0
H317 H 0.61008 0.38557 0.82784 0.0
H318 H 0.62831 0.41212 0.62815 0.0
H319 H 0.68846 0.54902 0.86184 0.0
H320 H 0.61268 0.39504 0.7545 0.0
H321 H 0.62626 0.56418 0.72534 0.0
C322 C 0.61044 0.53389 0.65964 0.0
C323 C 0.60929 0.49082 0.63134 0.0
C324 C 0.63031 0.42867 0.77816 0.0
C325 C 0.64239 0.48458 0.72028 0.0
C326 C 0.62945 0.42341 0.82052 0.0
C327 C 0.65003 0.46642 0.85211 0.0
C328 C 0.64969 0.47759 0.76631 0.0
C329 C 0.67128 0.51469 0.83906 0.0
C330 C 0.62777 0.53115 0.70411 0.0
C331 C 0.62839 0.44607 0.6489 0.0
N332 N 0.66971 0.51908 0.79699 0.0
N333 N 0.64296 0.44374 0.69231 0.0
H334 H 0.56316 0.56367 0.38405 0.0
H335 H 0.34348 0.43493 0.15451 0.0
H336 H 0.36757 0.4768 0.36418 0.0
H337 H 0.51777 0.55081 0.17391 0.0
H338 H 0.34338 0.45702 0.22909 0.0
H339 H 0.54086 0.56718 0.30616 0.0
C340 C 0.51499 0.54612 0.36304 0.0
C341 C 0.46703 0.51994 0.38006 0.0
C342 C 0.38088 0.47834 0.2168 0.0
C343 C 0.44155 0.52235 0.291 0.0
C344 C 0.38109 0.46562 0.17427 0.0
C345 C 0.43154 0.49038 0.15828 0.0
C346 C 0.43194 0.51561 0.24365 0.0
C347 C 0.47816 0.53057 0.18496 0.0
C348 C 0.50218 0.54809 0.31865 0.0
C349 C 0.4055 0.49754 0.35193 0.0
N350 N 0.47798 0.54124 0.22656 0.0
N351 N 0.39481 0.49844 0.30852 0.0
loop_
_geom_bond_atom_site_label_1
_geom_bond_atom_site_label_2
_geom_bond_distance
_geom_bond_site_symmetry_2
_ccdc_geom_bond_type
Co0 N5 2.057 . S
Co0 O17 2.021 . S
Co0 O20 2.062 . S
Co0 O24 2.117 1_554 S
Co0 O25 2.020 1_565 S
C1 O21 1.259 1_455 S
C1 O24 1.258 1_545 S
Co2 N11 2.057 . S
Co2 O18 2.117 1_655 S
Co2 O19 2.018 1_545 S
Co2 O21 2.021 1_554 S
Co2 O26 2.062 1_655 S
C3 N5 1.316 . S
C3 N6 1.347 . S
C3 H8 0.931 . S
C4 N5 1.375 1_556 S
C4 C7 1.350 . S
C4 H9 0.930 . S
N5 Co0 2.057 . S
N5 C3 1.316 . S
N5 C4 1.375 1_554 S
N6 C3 1.347 . S
N6 C7 1.373 1_554 S
C7 C4 1.350 . S
C7 N6 1.373 1_556 S
C7 H28 0.931 . S
H8 C3 0.931 . S
H9 C4 0.930 . S
C10 O17 1.262 . S
C10 O18 1.256 1_565 S
N11 Co2 2.057 . S
N11 C12 1.316 1_554 S
N11 C13 1.375 . S
C12 N11 1.316 1_556 S
C12 N14 1.347 1_556 S
C12 H23 0.931 . S
C13 N11 1.375 . S
C13 C15 1.350 . S
C13 H22 0.930 . S
N14 C12 1.347 1_554 S
N14 C15 1.373 . S
C15 C13 1.350 . S
C15 N14 1.373 . S
C15 H29 0.931 . S
C16 O19 1.257 . S
C16 O20 1.255 1_655 S
O17 Co0 2.021 . S
O17 C10 1.262 . S
O18 Co2 2.117 1_455 S
O18 C10 1.256 1_545 S
O19 Co2 2.018 1_565 S
O19 C16 1.257 . S
O20 Co0 2.062 . S
O20 C16 1.255 1_455 S
O21 C1 1.259 1_655 S
O21 Co2 2.021 1_556 S
H22 C13 0.930 . S
H23 C12 0.931 . S
O24 Co0 2.117 1_556 S
O24 C1 1.258 1_565 S
O25 Co0 2.020 1_545 S
O25 C27 1.256 . S
O26 Co2 2.062 1_455 S
O26 C27 1.255 . S
C27 O25 1.256 . S
C27 O26 1.255 . S
H28 C7 0.931 . S
H29 C15 0.931 . S
Co30 N35 2.057 . S
Co30 O47 2.021 . S
Co30 O50 2.062 . S
Co30 O54 2.117 . S
Co30 O55 2.020 . S
C31 O51 1.259 . S
C31 O54 1.258 . S
Co32 N41 2.057 . S
Co32 O48 2.117 . S
Co32 O49 2.020 . S
Co32 O51 2.021 . S
Co32 O56 2.062 . S
C33 N35 1.316 . S
C33 N36 1.347 . S
C33 H38 0.931 . S
C34 N35 1.375 . S
C34 C37 1.350 . S
C34 H39 0.930 . S
N35 Co30 2.057 . S
N35 C33 1.316 . S
N35 C34 1.375 . S
N36 C33 1.347 . S
N36 C37 1.373 . S
C37 C34 1.350 . S
C37 N36 1.373 . S
C37 H58 0.931 . S
H38 C33 0.931 . S
H39 C34 0.930 . S
C40 O47 1.259 . S
C40 O48 1.258 . S
N41 Co32 2.057 . S
N41 C42 1.316 . S
N41 C43 1.375 . S
C42 N41 1.316 . S
C42 N44 1.347 . S
C42 H53 0.931 . S
C43 N41 1.375 . S
C43 C45 1.350 . S
C43 H52 0.930 . S
N44 C42 1.347 . S
N44 C45 1.373 . S
C45 C43 1.350 . S
C45 N44 1.373 . S
C45 H59 0.931 . S
C46 O49 1.256 . S
C46 O50 1.255 . S
O47 Co30 2.021 . S
O47 C40 1.259 . S
O48 Co32 2.117 . S
O48 C40 1.258 . S
O49 Co32 2.020 . S
O49 C46 1.256 . S
O50 Co30 2.062 . S
O50 C46 1.255 . S
O51 C31 1.259 . S
O51 Co32 2.021 . S
H52 C43 0.930 . S
H53 C42 0.931 . S
O54 Co30 2.117 . S
O54 C31 1.258 . S
O55 Co30 2.020 . S
O55 C57 1.256 . S
O56 Co32 2.062 . S
O56 C57 1.255 . S
C57 O55 1.256 . S
C57 O56 1.255 . S
H58 C37 0.931 . S
H59 C45 0.931 . S
H60 C61 0.949 . S
C61 H60 0.949 . S
C61 C62 1.395 1_545 S
C61 C63 1.391 . S
C62 C61 1.395 1_565 S
C62 C65 1.390 . S
C63 C61 1.391 . S
C63 C67 1.387 1_545 S
C63 C68 1.491 . S
H64 C65 0.950 . S
C65 C62 1.390 . S
C65 H64 0.950 . S
C65 C66 1.378 . S
C66 C65 1.378 . S
C66 C67 1.409 . S
C67 C63 1.387 1_565 S
C67 C66 1.409 . S
C67 H69 0.951 . S
C68 C63 1.491 . S
C68 C70 1.382 1_455 S
C68 C72 1.404 . S
H69 C67 0.951 . S
C70 C68 1.382 1_655 S
C70 C71 1.390 . S
C70 H75 0.949 . S
C71 C70 1.390 . S
C71 C76 1.399 1_655 S
C72 C68 1.404 . S
C72 H73 0.950 . S
C72 C74 1.375 . S
H73 C72 0.950 . S
C74 C72 1.375 . S
C74 C76 1.382 . S
C74 H78 0.950 . S
H75 C70 0.949 . S
C76 C71 1.399 1_455 S
C76 C74 1.382 . S
C76 H77 0.952 . S
H77 C76 0.952 . S
H78 C74 0.950 . S
H79 C80 0.956 . S
C80 H79 0.956 . S
C80 C81 1.388 1_445 S
C80 C82 1.392 1_455 S
C81 C80 1.388 1_665 S
C81 C84 1.390 . S
C82 C80 1.392 1_655 S
C82 C86 1.387 1_545 S
C82 C87 1.491 1_655 S
H83 C84 0.950 . S
C84 C81 1.390 . S
C84 H83 0.950 . S
C84 C85 1.378 . S
C85 C84 1.378 . S
C85 C86 1.409 . S
C86 C82 1.387 1_565 S
C86 C85 1.409 . S
C86 H88 0.951 . S
C87 C82 1.491 1_455 S
C87 C89 1.382 . S
C87 C91 1.404 1_455 S
H88 C86 0.951 . S
C89 C87 1.382 . S
C89 C90 1.390 . S
C89 H94 0.949 . S
C90 C89 1.390 . S
C90 C95 1.399 . S
C91 C87 1.404 1_655 S
C91 H92 0.950 . S
C91 C93 1.375 . S
H92 C91 0.950 . S
C93 C91 1.375 . S
C93 C95 1.382 1_655 S
C93 H97 0.950 . S
H94 C89 0.949 . S
C95 C90 1.399 . S
C95 C93 1.382 1_455 S
C95 H96 0.952 . S
H96 C95 0.952 . S
H97 C93 0.950 . S
H98 C99 0.949 . S
C99 H98 0.949 . S
C99 C100 1.395 . S
C99 C101 1.391 . S
C100 C99 1.395 . S
C100 C103 1.390 . S
C101 C99 1.391 . S
C101 C105 1.387 . S
C101 C106 1.491 1_556 S
H102 C103 0.950 . S
C103 C100 1.390 . S
C103 H102 0.950 . S
C103 C104 1.378 . S
C104 C103 1.378 . S
C104 C105 1.409 . S
C105 C101 1.387 . S
C105 C104 1.409 . S
C105 H107 0.951 1_556 S
C106 C101 1.491 1_554 S
C106 C108 1.382 1_554 S
C106 C110 1.404 . S
H107 C105 0.951 1_554 S
C108 C106 1.382 1_556 S
C108 C109 1.390 1_556 S
C108 H113 0.949 . S
C109 C108 1.390 1_554 S
C109 C114 1.399 . S
C110 C106 1.404 . S
C110 H111 0.950 . S
C110 C112 1.375 . S
H111 C110 0.950 . S
C112 C110 1.375 . S
C112 C114 1.382 . S
C112 H116 0.950 . S
H113 C108 0.949 . S
C114 C109 1.399 . S
C114 C112 1.382 . S
C114 H115 0.952 . S
H115 C114 0.952 . S
H116 C112 0.950 . S
H117 C118 0.949 . S
C118 H117 0.949 . S
C118 C119 1.395 . S
C118 C120 1.391 . S
C119 C118 1.395 . S
C119 C122 1.390 . S
C120 C118 1.391 . S
C120 C124 1.387 . S
C120 C125 1.491 . S
H121 C122 0.950 . S
C122 C119 1.390 . S
C122 H121 0.950 . S
C122 C123 1.378 . S
C123 C122 1.378 . S
C123 C124 1.409 . S
C124 C120 1.387 . S
C124 C123 1.409 . S
C124 H126 0.951 1_554 S
C125 C120 1.491 . S
C125 C127 1.382 . S
C125 C129 1.404 1_554 S
H126 C124 0.951 1_556 S
C127 C125 1.382 . S
C127 C128 1.390 1_554 S
C127 H132 0.949 . S
C128 C127 1.390 1_556 S
C128 C133 1.399 . S
C129 C125 1.404 1_556 S
C129 H130 0.950 . S
C129 C131 1.375 . S
H130 C129 0.950 . S
C131 C129 1.375 . S
C131 C133 1.382 . S
C131 H135 0.950 . S
H132 C127 0.949 . S
C133 C128 1.399 . S
C133 C131 1.382 . S
C133 H134 0.952 . S
H134 C133 0.952 . S
H135 C131 0.950 . S
H136 C142 0.930 . S
H137 C146 0.930 . S
H138 C151 0.929 . S
H139 C149 0.929 . S
H140 C144 0.929 . S
H141 C150 0.929 . S
C142 H136 0.930 . S
C142 C143 1.367 . S
C142 C150 1.378 . S
C143 C142 1.367 . S
C143 C151 1.433 1_554 S
C144 H140 0.929 . S
C144 C146 1.378 . S
C144 C148 1.350 1_556 S
C145 C148 1.463 . S
C145 C150 1.350 . S
C145 N153 1.427 1_554 S
C146 H137 0.930 . S
C146 C144 1.378 . S
C146 C147 1.367 1_556 S
C147 C146 1.367 1_554 S
C147 C149 1.433 . S
C148 C144 1.350 1_554 S
C148 C145 1.463 . S
C148 N152 1.427 . S
C149 H139 0.929 . S
C149 C147 1.433 . S
C149 N152 1.384 . S
C150 H141 0.929 . S
C150 C142 1.378 . S
C150 C145 1.350 . S
C151 H138 0.929 . S
C151 C143 1.433 1_556 S
C151 N153 1.384 . S
N152 C148 1.427 . S
N152 C149 1.384 . S
N153 C145 1.427 1_556 S
N153 C151 1.384 . S
H154 C160 0.930 . S
H155 C164 0.930 . S
H156 C169 0.929 . S
H157 C167 0.929 . S
H158 C162 0.929 . S
H159 C168 0.929 . S
C160 H154 0.930 . S
C160 C161 1.367 1_556 S
C160 C168 1.378 . S
C161 C160 1.367 1_554 S
C161 C169 1.433 . S
C162 H158 0.929 . S
C162 C164 1.378 . S
C162 C166 1.350 . S
C163 C166 1.463 . S
C163 C168 1.350 1_554 S
C163 N171 1.427 . S
C164 H155 0.930 . S
C164 C162 1.378 . S
C164 C165 1.367 . S
C165 C164 1.367 . S
C165 C167 1.433 1_554 S
C166 C162 1.350 . S
C166 C163 1.463 . S
C166 N170 1.427 1_554 S
C167 H157 0.929 . S
C167 C165 1.433 1_556 S
C167 N170 1.384 . S
C168 H159 0.929 . S
C168 C160 1.378 . S
C168 C163 1.350 1_556 S
C169 H156 0.929 . S
C169 C161 1.433 . S
C169 N171 1.384 . S
N170 C166 1.427 1_556 S
N170 C167 1.384 . S
N171 C163 1.427 . S
N171 C169 1.384 . S
H172 C178 0.930 . S
H173 C182 0.930 . S
H174 C187 0.929 . S
H175 C185 0.929 . S
H176 C180 0.929 . S
H177 C186 0.929 . S
C178 H172 0.930 . S
C178 C179 1.367 1_556 S
C178 C186 1.378 . S
C179 C178 1.367 1_554 S
C179 C187 1.433 . S
C180 H176 0.929 . S
C180 C182 1.378 . S
C180 C184 1.350 . S
C181 C184 1.463 . S
C181 C186 1.350 1_554 S
C181 N189 1.427 . S
C182 H173 0.930 . S
C182 C180 1.378 . S
C182 C183 1.367 . S
C183 C182 1.367 . S
C183 C185 1.433 1_554 S
C184 C180 1.350 . S
C184 C181 1.463 . S
C184 N188 1.427 1_554 S
C185 H175 0.929 . S
C185 C183 1.433 1_556 S
C185 N188 1.384 . S
C186 H177 0.929 . S
C186 C178 1.378 . S
C186 C181 1.350 1_556 S
C187 H174 0.929 . S
C187 C179 1.433 . S
C187 N189 1.384 . S
N188 C184 1.427 1_556 S
N188 C185 1.384 . S
N189 C181 1.427 . S
N189 C187 1.384 . S
H190 C196 0.930 . S
H191 C200 0.930 . S
H192 C205 0.929 . S
H193 C203 0.929 . S
H194 C198 0.929 . S
H195 C204 0.929 . S
C196 H190 0.930 . S
C196 C197 1.367 1_554 S
C196 C204 1.378 . S
C197 C196 1.367 1_556 S
C197 C205 1.433 . S
C198 H194 0.929 . S
C198 C200 1.378 . S
C198 C202 1.350 . S
C199 C202 1.463 . S
C199 C204 1.350 1_556 S
C199 N207 1.427 . S
C200 H191 0.930 . S
C200 C198 1.378 . S
C200 C201 1.367 . S
C201 C200 1.367 . S
C201 C203 1.433 1_556 S
C202 C198 1.350 . S
C202 C199 1.463 . S
C202 N206 1.427 1_556 S
C203 H193 0.929 . S
C203 C201 1.433 1_554 S
C203 N206 1.384 . S
C204 H195 0.929 . S
C204 C196 1.378 . S
C204 C199 1.350 1_554 S
C205 H192 0.929 . S
C205 C197 1.433 . S
C205 N207 1.384 . S
N206 C202 1.427 1_554 S
N206 C203 1.384 . S
N207 C199 1.427 . S
N207 C205 1.384 . S
H208 C214 0.930 . S
H209 C218 0.930 . S
H210 C223 0.929 . S
H211 C221 0.929 . S
H212 C216 0.929 . S
H213 C222 0.929 . S
C214 H208 0.930 . S
C214 C215 1.367 . S
C214 C222 1.378 . S
C215 C214 1.367 . S
C215 C223 1.433 . S
C216 H212 0.929 . S
C216 C218 1.378 . S
C216 C220 1.350 . S
C217 C220 1.463 . S
C217 C222 1.350 . S
C217 N225 1.427 . S
C218 H209 0.930 . S
C218 C216 1.378 . S
C218 C219 1.367 . S
C219 C218 1.367 . S
C219 C221 1.433 . S
C220 C216 1.350 . S
C220 C217 1.463 . S
C220 N224 1.427 . S
C221 H211 0.929 . S
C221 C219 1.433 . S
C221 N224 1.384 . S
C222 H213 0.929 . S
C222 C214 1.378 . S
C222 C217 1.350 . S
C223 H210 0.929 . S
C223 C215 1.433 . S
C223 N225 1.384 . S
N224 C220 1.427 . S
N224 C221 1.384 . S
N225 C217 1.427 . S
N225 C223 1.384 . S
H226 C232 0.930 . S
H227 C236 0.930 . S
H228 C241 0.929 . S
H229 C239 0.929 . S
H230 C234 0.929 . S
H231 C240 0.929 . S
C232 H226 0.930 . S
C232 C233 1.367 . S
C232 C240 1.378 . S
C233 C232 1.367 . S
C233 C241 1.433 . S
C234 H230 0.929 . S
C234 C236 1.378 . S
C234 C238 1.350 . S
C235 C238 1.463 . S
C235 C240 1.350 . S
C235 N243 1.427 . S
C236 H227 0.930 . S
C236 C234 1.378 . S
C236 C237 1.367 . S
C237 C236 1.367 . S
C237 C239 1.433 . S
C238 C234 1.350 . S
C238 C235 1.463 . S
C238 N242 1.427 . S
C239 H229 0.929 . S
C239 C237 1.433 . S
C239 N242 1.384 . S
C240 H231 0.929 . S
C240 C232 1.378 . S
C240 C235 1.350 . S
C241 H228 0.929 . S
C241 C233 1.433 . S
C241 N243 1.384 . S
N242 C238 1.427 . S
N242 C239 1.384 . S
N243 C235 1.427 . S
N243 C241 1.384 . S
H244 C250 0.930 . S
H245 C254 0.930 . S
H246 C259 0.929 . S
H247 C257 0.929 . S
H248 C252 0.929 . S
H249 C258 0.929 . S
C250 H244 0.930 . S
C250 C251 1.367 . S
C250 C258 1.378 . S
C251 C250 1.367 . S
C251 C259 1.433 . S
C252 H248 0.929 . S
C252 C254 1.378 . S
C252 C256 1.350 . S
C253 C256 1.463 . S
C253 C258 1.350 . S
C253 N261 1.427 . S
C254 H245 0.930 . S
C254 C252 1.378 . S
C254 C255 1.367 . S
C255 C254 1.367 . S
C255 C257 1.433 . S
C256 C252 1.350 . S
C256 C253 1.463 . S
C256 N260 1.427 . S
C257 H247 0.929 . S
C257 C255 1.433 . S
C257 N260 1.384 . S
C258 H249 0.929 . S
C258 C250 1.378 . S
C258 C253 1.350 . S
C259 H246 0.929 . S
C259 C251 1.433 . S
C259 N261 1.384 . S
N260 C256 1.427 . S
N260 C257 1.384 . S
N261 C253 1.427 . S
N261 C259 1.384 . S
H262 C268 0.930 . S
H263 C272 0.930 . S
H264 C277 0.929 . S
H265 C275 0.929 . S
H266 C270 0.929 . S
H267 C276 0.929 . S
C268 H262 0.930 . S
C268 C269 1.367 . S
C268 C276 1.378 . S
C269 C268 1.367 . S
C269 C277 1.433 . S
C270 H266 0.929 . S
C270 C272 1.378 . S
C270 C274 1.350 . S
C271 C274 1.463 . S
C271 C276 1.350 . S
C271 N279 1.427 . S
C272 H263 0.930 . S
C272 C270 1.378 . S
C272 C273 1.367 . S
C273 C272 1.367 . S
C273 C275 1.433 . S
C274 C270 1.350 . S
C274 C271 1.463 . S
C274 N278 1.427 . S
C275 H265 0.929 . S
C275 C273 1.433 . S
C275 N278 1.384 . S
C276 H267 0.929 . S
C276 C268 1.378 . S
C276 C271 1.350 . S
C277 H264 0.929 . S
C277 C269 1.433 . S
C277 N279 1.384 . S
N278 C274 1.427 . S
N278 C275 1.384 . S
N279 C271 1.427 . S
N279 C277 1.384 . S
H280 C286 0.930 . S
H281 C290 0.930 . S
H282 C295 0.929 . S
H283 C293 0.929 . S
H284 C288 0.929 . S
H285 C294 0.929 . S
C286 H280 0.930 . S
C286 C287 1.376 . S
C286 C294 1.378 . S
C287 C286 1.376 . S
C287 C295 1.424 1_565 S
C288 H284 0.929 . S
C288 C290 1.378 . S
C288 C292 1.350 1_545 S
C289 C292 1.463 . S
C289 C294 1.350 . S
C289 N297 1.427 1_565 S
C290 H281 0.930 . S
C290 C288 1.378 . S
C290 C291 1.367 1_545 S
C291 C290 1.367 1_565 S
C291 C293 1.433 . S
C292 C288 1.350 1_565 S
C292 C289 1.463 . S
C292 N296 1.427 . S
C293 H283 0.929 . S
C293 C291 1.433 . S
C293 N296 1.384 . S
C294 H285 0.929 . S
C294 C286 1.378 . S
C294 C289 1.350 . S
C295 H282 0.929 . S
C295 C287 1.424 1_545 S
C295 N297 1.384 . S
N296 C292 1.427 . S
N296 C293 1.384 . S
N297 C289 1.427 1_545 S
N297 C295 1.384 . S
H298 C304 0.930 . S
H299 C308 0.930 . S
H300 C313 0.929 . S
H301 C311 0.929 . S
H302 C306 0.929 1_455 S
H303 C312 0.929 . S
C304 H298 0.930 . S
C304 C305 1.370 1_655 S
C304 C312 1.378 . S
C305 C304 1.370 1_455 S
C305 C313 1.430 1_565 S
C306 H302 0.929 1_655 S
C306 C308 1.378 . S
C306 C310 1.355 . S
C307 C310 1.462 1_565 S
C307 C312 1.350 . S
C307 N315 1.427 1_665 S
C308 H299 0.930 . S
C308 C306 1.378 . S
C308 C309 1.367 1_545 S
C309 C308 1.367 1_565 S
C309 C311 1.433 . S
C310 C306 1.355 . S
C310 C307 1.462 1_545 S
C310 N314 1.422 1_545 S
C311 H301 0.929 . S
C311 C309 1.433 . S
C311 N314 1.384 . S
C312 H303 0.929 . S
C312 C304 1.378 . S
C312 C307 1.350 . S
C313 H300 0.929 . S
C313 C305 1.430 1_545 S
C313 N315 1.384 . S
N314 C310 1.422 1_565 S
N314 C311 1.384 . S
N315 C307 1.427 1_445 S
N315 C313 1.384 . S
H316 C322 0.930 . S
H317 C326 0.930 . S
H318 C331 0.929 . S
H319 C329 0.929 . S
H320 C324 0.929 . S
H321 C330 0.929 . S
C322 H316 0.930 . S
C322 C323 1.367 . S
C322 C330 1.378 . S
C323 C322 1.367 . S
C323 C331 1.433 . S
C324 H320 0.929 . S
C324 C326 1.378 . S
C324 C328 1.350 . S
C325 C328 1.463 . S
C325 C330 1.350 . S
C325 N333 1.427 . S
C326 H317 0.930 . S
C326 C324 1.378 . S
C326 C327 1.367 . S
C327 C326 1.367 . S
C327 C329 1.433 . S
C328 C324 1.350 . S
C328 C325 1.463 . S
C328 N332 1.427 . S
C329 H319 0.929 . S
C329 C327 1.433 . S
C329 N332 1.384 . S
C330 H321 0.929 . S
C330 C322 1.378 . S
C330 C325 1.350 . S
C331 H318 0.929 . S
C331 C323 1.433 . S
C331 N333 1.384 . S
N332 C328 1.427 . S
N332 C329 1.384 . S
N333 C325 1.427 . S
N333 C331 1.384 . S
H334 C340 0.930 . S
H335 C344 0.930 . S
H336 C349 0.929 . S
H337 C347 0.929 . S
H338 C342 0.929 . S
H339 C348 0.929 . S
C340 H334 0.930 . S
C340 C341 1.367 . S
C340 C348 1.378 . S
C341 C340 1.367 . S
C341 C349 1.433 . S
C342 H338 0.929 . S
C342 C344 1.378 . S
C342 C346 1.350 . S
C343 C346 1.463 . S
C343 C348 1.350 . S
C343 N351 1.427 . S
C344 H335 0.930 . S
C344 C342 1.378 . S
C344 C345 1.367 . S
C345 C344 1.367 . S
C345 C347 1.433 . S
C346 C342 1.350 . S
C346 C343 1.463 . S
C346 N350 1.427 . S
C347 H337 0.929 . S
C347 C345 1.433 . S
C347 N350 1.384 . S
C348 H339 0.929 . S
C348 C340 1.378 . S
C348 C343 1.350 . S
C349 H336 0.929 . S
C349 C341 1.433 . S
C349 N351 1.384 . S
N350 C346 1.427 . S
N350 C347 1.384 . S
N351 C343 1.427 . S
N351 C349 1.384 . S
C147 C123 1.522 . S
C143 C27 1.544 . S
C161 N6 1.376 . S
C165 C109 1.388 . S
C179 C16 1.451 . S
C183 C128 1.409 1_554 S
C197 N14 1.495 1_556 S
C201 C104 1.504 . S
C215 C57 1.542 . S
C219 C85 1.512 . S
C233 N36 1.371 . S
C237 C71 1.395 . S
C255 C90 1.409 . S
C251 C46 1.447 . S
C273 C66 1.513 . S
C269 N44 1.503 . S
C287 C10 1.524 . S
C291 C62 1.521 . S
C305 C1 1.564 1_565 S
C309 C81 1.556 . S
C327 C100 1.517 . S
C323 C40 1.526 . S
C341 C31 1.564 . S
C345 C119 1.551 . S
