# Generated by pormake.
# Topology cml, (3,6)-cn, num edge types: 1
# Building blocks:
#     Node 0, Type 0, BuildingBlock: ESEHIV_clean_linker_0, # of connection points: 3
#     Node 1, Type 0, BuildingBlock: ESEHIV_clean_linker_0, # of connection points: 3
#     Node 2, Type 0, BuildingBlock: ESEHIV_clean_linker_0, # of connection points: 3
#     Node 3, Type 0, BuildingBlock: ESEHIV_clean_linker_0, # of connection points: 3
#     Node 4, Type 0, BuildingBlock: ESEHIV_clean_linker_0, # of connection points: 3
#     Node 5, Type 0, BuildingBlock: ESEHIV_clean_linker_0, # of connection points: 3
#     Node 6, Type 0, BuildingBlock: ESEHIV_clean_linker_0, # of connection points: 3
#     Node 7, Type 0, BuildingBlock: ESEHIV_clean_linker_0, # of connection points: 3
#     Node 8, Type 1, BuildingBlock: OJICUG_clean_sbu_0, # of connection points: 6
#     Node 9, Type 1, BuildingBlock: OJICUG_clean_sbu_0, # of connection points: 6
#     Node 10, Type 1, BuildingBlock: OJICUG_clean_sbu_0, # of connection points: 6
#     Node 11, Type 1, BuildingBlock: OJICUG_clean_sbu_0, # of connection points: 6
#     Edge 12, Type (0, 1), BuildingBlock: XIVTED_clean_linker_0, # of connection points: 2
#     Edge 13, Type (0, 1), BuildingBlock: XIVTED_clean_linker_0, # of connection points: 2
#     Edge 14, Type (0, 1), BuildingBlock: XIVTED_clean_linker_0, # of connection points: 2
#     Edge 15, Type (0, 1), BuildingBlock: XIVTED_clean_linker_0, # of connection points: 2
#     Edge 16, Type (0, 1), BuildingBlock: XIVTED_clean_linker_0, # of connection points: 2
#     Edge 17, Type (0, 1), BuildingBlock: XIVTED_clean_linker_0, # of connection points: 2
#     Edge 18, Type (0, 1), BuildingBlock: XIVTED_clean_linker_0, # of connection points: 2
#     Edge 19, Type (0, 1), BuildingBlock: XIVTED_clean_linker_0, # of connection points: 2
#     Edge 20, Type (0, 1), BuildingBlock: XIVTED_clean_linker_0, # of connection points: 2
#     Edge 21, Type (0, 1), BuildingBlock: XIVTED_clean_linker_0, # of connection points: 2
#     Edge 22, Type (0, 1), BuildingBlock: XIVTED_clean_linker_0, # of connection points: 2
#     Edge 23, Type (0, 1), BuildingBlock: XIVTED_clean_linker_0, # of connection points: 2
#     Edge 24, Type (0, 1), BuildingBlock: XIVTED_clean_linker_0, # of connection points: 2
#     Edge 25, Type (0, 1), BuildingBlock: XIVTED_clean_linker_0, # of connection points: 2
#     Edge 26, Type (0, 1), BuildingBlock: XIVTED_clean_linker_0, # of connection points: 2
#     Edge 27, Type (0, 1), BuildingBlock: XIVTED_clean_linker_0, # of connection points: 2
#     Edge 28, Type (0, 1), BuildingBlock: XIVTED_clean_linker_0, # of connection points: 2
#     Edge 29, Type (0, 1), BuildingBlock: XIVTED_clean_linker_0, # of connection points: 2
#     Edge 30, Type (0, 1), BuildingBlock: XIVTED_clean_linker_0, # of connection points: 2
#     Edge 31, Type (0, 1), BuildingBlock: XIVTED_clean_linker_0, # of connection points: 2
#     Edge 32, Type (0, 1), BuildingBlock: XIVTED_clean_linker_0, # of connection points: 2
#     Edge 33, Type (0, 1), BuildingBlock: XIVTED_clean_linker_0, # of connection points: 2
#     Edge 34, Type (0, 1), BuildingBlock: XIVTED_clean_linker_0, # of connection points: 2
#     Edge 35, Type (0, 1), BuildingBlock: XIVTED_clean_linker_0, # of connection points: 2
# Relax obj value: 0.072
# Max RMSD: 0.084
# Mean RMSD: 0.079
data_MOF--net-cml--node1-OJICUG_clean_sbu_0--node2-ESEHIV_clean_linker_0--edge1-XIVTED_clean_linker_0
_symmetry_space_group_name_H-M    P1
_symmetry_Int_Tables_number       1
_symmetry_cell_setting            triclinic
loop_
_symmetry_equiv_pos_as_xyz
'x, y, z'
_cell_length_a     37.058754
_cell_length_b     37.659754
_cell_length_c     35.06986
_cell_angle_alpha  89.965052
_cell_angle_beta   90.021251
_cell_angle_gamma 89.836279
loop_
_atom_site_label
_atom_site_type_symbol
_atom_site_fract_x
_atom_site_fract_y
_atom_site_fract_z
_atom_type_partial_charge
H0 H 0.30038 0.43503 0.04279 0.0
H1 H 0.23009 0.41739 0.94733 0.0
H2 H 0.22584 0.34809 0.04495 0.0
C3 C 0.27815 0.42077 0.02983 0.0
C4 C 0.26385 0.39102 0.04845 0.0
C5 C 0.26623 0.43033 0.99327 0.0
C6 C 0.23887 0.41049 0.97587 0.0
C7 C 0.22423 0.38069 0.99415 0.0
C8 C 0.23678 0.37116 0.03059 0.0
H9 H 0.68933 0.54962 0.54433 0.0
H10 H 0.75691 0.56446 0.4462 0.0
H11 H 0.76242 0.63765 0.54033 0.0
C12 C 0.71107 0.56357 0.53011 0.0
C13 C 0.72547 0.59414 0.54699 0.0
C14 C 0.72204 0.55288 0.49361 0.0
C15 C 0.74879 0.57229 0.47467 0.0
C16 C 0.76341 0.60297 0.49114 0.0
C17 C 0.75163 0.61377 0.52744 0.0
H18 H 0.6866 0.4356 0.04243 0.0
H19 H 0.75343 0.34237 0.0439 0.0
H20 H 0.76367 0.41866 0.953 0.0
C21 C 0.70869 0.42035 0.03042 0.0
C22 C 0.72394 0.43084 0.99563 0.0
C23 C 0.71955 0.38873 0.04826 0.0
C24 C 0.74596 0.36744 0.03089 0.0
C25 C 0.76184 0.37795 0.99627 0.0
C26 C 0.75126 0.4101 0.97942 0.0
H27 H 0.29431 0.5378 0.53642 0.0
H28 H 0.21524 0.55631 0.44944 0.0
H29 H 0.2351 0.63583 0.53532 0.0
C30 C 0.27322 0.55431 0.52431 0.0
C31 C 0.26697 0.58817 0.53962 0.0
C32 C 0.25494 0.54273 0.49167 0.0
C33 C 0.2285 0.56472 0.47543 0.0
C34 C 0.22083 0.59832 0.49104 0.0
C35 C 0.24 0.60968 0.52354 0.0
H36 H 0.79854 0.93501 0.0371 0.0
H37 H 0.7287 0.91806 0.94118 0.0
H38 H 0.72796 0.8449 0.03569 0.0
C39 C 0.77687 0.92032 0.02364 0.0
C40 C 0.76404 0.88927 0.04096 0.0
C41 C 0.76438 0.93075 0.98758 0.0
C42 C 0.73785 0.91045 0.96939 0.0
C43 C 0.72459 0.8794 0.98641 0.0
C44 C 0.73779 0.86896 0.02233 0.0
H45 H 0.17923 0.05369 0.53989 0.0
H46 H 0.25512 0.06114 0.44757 0.0
H47 H 0.25702 0.13785 0.53855 0.0
C48 C 0.20237 0.06628 0.52674 0.0
C49 C 0.2174 0.09649 0.54378 0.0
C50 C 0.21539 0.05375 0.49167 0.0
C51 C 0.24444 0.07112 0.47428 0.0
C52 C 0.2597 0.10135 0.49101 0.0
C53 C 0.24593 0.11406 0.52576 0.0
H54 H 0.18991 0.93451 0.0403 0.0
H55 H 0.25718 0.84175 0.037 0.0
H56 H 0.26574 0.92106 0.94892 0.0
C57 C 0.21192 0.91986 0.0273 0.0
C58 C 0.2265 0.93156 0.99262 0.0
C59 C 0.22327 0.88776 0.04372 0.0
C60 C 0.24949 0.86723 0.0251 0.0
C61 C 0.26485 0.87898 0.99067 0.0
C62 C 0.2538 0.91158 0.97522 0.0
H63 H 0.80328 0.04265 0.53045 0.0
H64 H 0.72464 0.06335 0.44366 0.0
H65 H 0.74427 0.14092 0.53158 0.0
C66 C 0.78235 0.05958 0.51869 0.0
C67 C 0.77609 0.09311 0.53485 0.0
C68 C 0.76412 0.04882 0.48571 0.0
C69 C 0.73783 0.07118 0.4699 0.0
C70 C 0.73009 0.10435 0.48643 0.0
C71 C 0.74922 0.11502 0.51919 0.0
Sc72 Sc 0.99296 0.77966 0.29023 0.0
Sc73 Sc 0.9921 0.87321 0.30007 0.0
Sc74 Sc 0.99074 0.82001 0.38149 0.0
O75 O 0.99201 0.82415 0.32386 0.0
C76 C 0.93766 0.75825 0.35554 0.0
C77 C 0.93925 0.83076 0.24471 0.0
C78 C 0.93529 0.88328 0.36717 0.0
C79 C 0.04852 0.83128 0.24821 0.0
C80 C 0.04551 0.75822 0.35863 0.0
C81 C 0.04432 0.88483 0.37104 0.0
O82 O 0.95064 0.75391 0.3223 0.0
O83 O 0.952 0.85884 0.25934 0.0
O84 O 0.94819 0.85842 0.38752 0.0
O85 O 0.0358 0.80045 0.25457 0.0
O86 O 0.03267 0.78098 0.38163 0.0
O87 O 0.03232 0.89333 0.33837 0.0
O88 O 0.03389 0.75405 0.32477 0.0
O89 O 0.03529 0.85935 0.26262 0.0
O90 O 0.03186 0.85904 0.39015 0.0
O91 O 0.95142 0.79993 0.25236 0.0
O92 O 0.94965 0.78074 0.37919 0.0
O93 O 0.94854 0.89194 0.33512 0.0
Sc94 Sc 0.99357 0.20166 0.79754 0.0
Sc95 Sc -0.00189 0.10787 0.80359 0.0
Sc96 Sc -0.00478 0.15816 0.8869 0.0
O97 O -0.00451 0.15603 0.82923 0.0
C98 C 0.04689 0.22223 0.86537 0.0
C99 C 0.05238 0.154 0.75418 0.0
C100 C 0.05079 0.09549 0.87412 0.0
C101 C 0.94454 0.15015 0.74812 0.0
C102 C 0.93951 0.21947 0.86549 0.0
C103 C 0.9418 0.09391 0.87008 0.0
O104 O 0.03408 0.2275 0.83217 0.0
O105 O 0.04158 0.12492 0.76844 0.0
O106 O 0.03795 0.12072 0.89368 0.0
O107 O 0.95274 0.1812 0.75934 0.0
O108 O 0.95328 0.19647 0.88749 0.0
O109 O 0.95449 0.08702 0.83721 0.0
O110 O 0.9506 0.22467 0.83159 0.0
O111 O 0.95934 0.12225 0.76114 0.0
O112 O 0.95448 0.11806 0.89148 0.0
O113 O 0.03688 0.18374 0.76028 0.0
O114 O 0.03555 0.19823 0.88768 0.0
O115 O 0.03833 0.08701 0.84172 0.0
Sc116 Sc 0.49134 0.28278 0.29824 0.0
Sc117 Sc 0.48817 0.37596 0.30962 0.0
Sc118 Sc 0.49266 0.32154 0.39003 0.0
O119 O 0.4907 0.32663 0.33254 0.0
C120 C 0.44325 0.25565 0.3667 0.0
C121 C 0.43411 0.33293 0.25632 0.0
C122 C 0.43311 0.38133 0.37948 0.0
C123 C 0.54314 0.33636 0.25394 0.0
C124 C 0.54932 0.26385 0.36305 0.0
C125 C 0.54202 0.38962 0.37811 0.0
O126 O 0.45087 0.25546 0.33136 0.0
O127 O 0.44591 0.36108 0.27167 0.0
O128 O 0.44631 0.35532 0.398 0.0
O129 O 0.53242 0.30505 0.26153 0.0
O130 O 0.53853 0.2873 0.38647 0.0
O131 O 0.53042 0.39662 0.34494 0.0
O132 O 0.53405 0.25791 0.33112 0.0
O133 O 0.52911 0.36395 0.2686 0.0
O134 O 0.52955 0.36451 0.39815 0.0
O135 O 0.44822 0.30253 0.26204 0.0
O136 O 0.45714 0.27724 0.39014 0.0
O137 O 0.44659 0.39261 0.34844 0.0
Sc138 Sc 0.49291 0.69799 0.7929 0.0
Sc139 Sc 0.49745 0.60429 0.80184 0.0
Sc140 Sc 0.49634 0.65698 0.88348 0.0
O141 O 0.49541 0.6532 0.82594 0.0
C142 C 0.54748 0.72042 0.85891 0.0
C143 C 0.55101 0.64917 0.74998 0.0
C144 C 0.55168 0.59396 0.87142 0.0
C145 C 0.44284 0.64498 0.74623 0.0
C146 C 0.43981 0.71733 0.86104 0.0
C147 C 0.44274 0.5922 0.87035 0.0
O148 O 0.53368 0.72512 0.82607 0.0
O149 O 0.53993 0.6204 0.76475 0.0
O150 O 0.53902 0.61958 0.89053 0.0
O151 O 0.45177 0.67631 0.7558 0.0
O152 O 0.45446 0.69535 0.8836 0.0
O153 O 0.45484 0.58418 0.83751 0.0
O154 O 0.45011 0.7216 0.82672 0.0
O155 O 0.45746 0.61739 0.7602 0.0
O156 O 0.45563 0.61722 0.89038 0.0
O157 O 0.53605 0.67918 0.75599 0.0
O158 O 0.53687 0.69678 0.88203 0.0
O159 O 0.53877 0.58468 0.83947 0.0
H160 H 0.16716 0.40128 0.94922 0.0
H161 H 0.09888 0.20394 0.91594 0.0
H162 H 0.22255 0.30828 0.99176 0.0
H163 H 0.06086 0.29196 0.84787 0.0
H164 H 0.14323 0.24265 0.94536 0.0
H165 H 0.12625 0.36266 0.91352 0.0
C166 C 0.17074 0.37277 0.95101 0.0
C167 C 0.19813 0.35794 0.97373 0.0
C168 C 0.12545 0.25354 0.92378 0.0
C169 C 0.15149 0.31385 0.93324 0.0
C170 C 0.10007 0.23147 0.90703 0.0
C171 C 0.07606 0.24493 0.87969 0.0
C172 C 0.12657 0.28951 0.91354 0.0
C173 C 0.07899 0.28064 0.86885 0.0
C174 C 0.14744 0.35081 0.93063 0.0
C175 C 0.20136 0.32087 0.9753 0.0
N176 N 0.1036 0.30194 0.8862 0.0
N177 N 0.17825 0.30012 0.95542 0.0
H178 H 0.81994 0.58159 0.44606 0.0
H179 H 0.88254 0.77859 0.40084 0.0
H180 H 0.76291 0.67513 0.4844 0.0
H181 H 0.92502 0.68792 0.34041 0.0
H182 H 0.83779 0.74061 0.43077 0.0
H183 H 0.8589 0.61934 0.40703 0.0
C184 C 0.81561 0.61005 0.44622 0.0
C185 C 0.78838 0.62531 0.46877 0.0
C186 C 0.85656 0.72894 0.41067 0.0
C187 C 0.83271 0.66844 0.42436 0.0
C188 C 0.88208 0.75062 0.3936 0.0
C189 C 0.90754 0.73616 0.36847 0.0
C190 C 0.85686 0.69239 0.40307 0.0
C191 C 0.90571 0.69993 0.35967 0.0
C192 C 0.83777 0.63151 0.4239 0.0
C193 C 0.78407 0.66229 0.46814 0.0
N194 N 0.88103 0.67904 0.37747 0.0
N195 N 0.80608 0.68258 0.44639 0.0
H196 H 0.8161 0.33802 0.02765 0.0
H197 H 0.89992 0.27289 0.83086 0.0
H198 H 0.76692 0.36467 0.91958 0.0
H199 H 0.91398 0.21776 0.93811 0.0
H200 H 0.85576 0.31216 0.86201 0.0
H201 H 0.85816 0.29903 0.99426 0.0
C202 C 0.81404 0.33558 0.99696 0.0
C203 C 0.78797 0.35464 0.97643 0.0
C204 C 0.86854 0.29124 0.87841 0.0
C205 C 0.8363 0.31058 0.93802 0.0
C206 C 0.89365 0.26889 0.86071 0.0
C207 C 0.91087 0.2421 0.88186 0.0
C208 C 0.86119 0.28689 0.91744 0.0
C209 C 0.90166 0.23808 0.92052 0.0
C210 C 0.83811 0.31345 0.9779 0.0
C211 C 0.78701 0.35095 0.93651 0.0
N212 N 0.87772 0.26037 0.93704 0.0
N213 N 0.81094 0.32938 0.91854 0.0
H214 H 0.22689 0.67038 0.48093 0.0
H215 H 0.05895 0.68865 0.34052 0.0
H216 H 0.15742 0.58176 0.45436 0.0
H217 H 0.09723 0.77508 0.41027 0.0
H218 H 0.10301 0.64913 0.37154 0.0
H219 H 0.18624 0.70943 0.44575 0.0
C220 C 0.20291 0.6591 0.46818 0.0
C221 C 0.19548 0.62264 0.47103 0.0
C222 C 0.10181 0.67683 0.37974 0.0
C223 C 0.14963 0.66718 0.42945 0.0
C224 C 0.077 0.69937 0.36188 0.0
C225 C 0.07444 0.73501 0.37309 0.0
C226 C 0.12447 0.69037 0.40833 0.0
C227 C 0.09819 0.74764 0.4011 0.0
C228 C 0.17995 0.68142 0.44773 0.0
C229 C 0.1645 0.60958 0.45265 0.0
N230 N 0.12226 0.72533 0.41776 0.0
N231 N 0.14276 0.63182 0.4325 0.0
H232 H 0.66629 0.8997 0.94316 0.0
H233 H 0.60246 0.70181 0.9055 0.0
H234 H 0.72554 0.80712 0.98061 0.0
H235 H 0.55942 0.79069 0.84225 0.0
H236 H 0.64741 0.74067 0.93367 0.0
H237 H 0.62593 0.86109 0.90679 0.0
C238 C 0.67086 0.87129 0.94365 0.0
C239 C 0.69912 0.85655 0.96523 0.0
C240 C 0.62843 0.75174 0.91337 0.0
C241 C 0.65311 0.81244 0.92394 0.0
C242 C 0.60272 0.72958 0.89734 0.0
C243 C 0.5771 0.74325 0.87182 0.0
C244 C 0.62822 0.788 0.90431 0.0
C245 C 0.57882 0.77924 0.86184 0.0
C246 C 0.64787 0.84933 0.92288 0.0
C247 C 0.70364 0.81959 0.96511 0.0
N248 N 0.60374 0.80062 0.87857 0.0
N249 N 0.68078 0.79882 0.94491 0.0
H250 H 0.32122 0.12789 0.52255 0.0
H251 H 0.39308 0.21487 0.32863 0.0
H252 H 0.26515 0.11783 0.4152 0.0
H253 H 0.43639 0.23605 0.44071 0.0
H254 H 0.35011 0.17322 0.35758 0.0
H255 H 0.36821 0.16186 0.49058 0.0
C256 C 0.31884 0.1329 0.49223 0.0
C257 C 0.28919 0.12036 0.47153 0.0
C258 C 0.36918 0.18699 0.37565 0.0
C259 C 0.34283 0.15902 0.43465 0.0
C260 C 0.39367 0.21065 0.35918 0.0
C261 C 0.41798 0.22927 0.38234 0.0
C262 C 0.36945 0.18188 0.41538 0.0
C263 C 0.41776 0.22275 0.42175 0.0
C264 C 0.3457 0.15214 0.47393 0.0
C265 C 0.28773 0.12693 0.43213 0.0
N266 N 0.39385 0.19971 0.43696 0.0
N267 N 0.31412 0.14605 0.41494 0.0
H268 H 0.2693 0.8686 0.91326 0.0
H269 H 0.40986 0.71166 0.93149 0.0
H270 H 0.31891 0.83727 0.0197 0.0
H271 H 0.40366 0.77397 0.82802 0.0
H272 H 0.36718 0.75149 0.96138 0.0
H273 H 0.31105 0.82949 0.87924 0.0
C274 C 0.28919 0.85386 0.9295 0.0
C275 C 0.29062 0.85627 0.96951 0.0
C276 C 0.37515 0.75649 0.93214 0.0
C277 C 0.3374 0.81087 0.93075 0.0
C278 C 0.39947 0.73367 0.91484 0.0
C279 C 0.41088 0.73974 0.87719 0.0
C280 C 0.36166 0.78552 0.91173 0.0
C281 C 0.39581 0.76846 0.85715 0.0
C282 C 0.31277 0.83144 0.91001 0.0
C283 C 0.31637 0.83586 0.98899 0.0
N284 N 0.37188 0.79049 0.87477 0.0
N285 N 0.33859 0.81384 0.96941 0.0
H286 H 0.73574 0.17655 0.47744 0.0
H287 H 0.56258 0.19461 0.34383 0.0
H288 H 0.66629 0.08797 0.45078 0.0
H289 H 0.60438 0.28153 0.41061 0.0
H290 H 0.60849 0.1555 0.372 0.0
H291 H 0.69426 0.21591 0.44362 0.0
C292 C 0.71162 0.16537 0.4649 0.0
C293 C 0.7044 0.12884 0.46729 0.0
C294 C 0.60769 0.18323 0.38016 0.0
C295 C 0.65758 0.17367 0.42741 0.0
C296 C 0.5818 0.20556 0.36388 0.0
C297 C 0.57962 0.2412 0.37519 0.0
C298 C 0.63175 0.19691 0.40734 0.0
C299 C 0.60497 0.25408 0.40146 0.0
C300 C 0.68818 0.18783 0.44526 0.0
C301 C 0.67319 0.11585 0.44937 0.0
N302 N 0.62998 0.23191 0.41672 0.0
N303 N 0.65096 0.13824 0.43007 0.0
H304 H 0.28821 0.42824 0.91895 0.0
H305 H 0.40719 0.60332 0.9377 0.0
H306 H 0.28881 0.49541 0.01867 0.0
H307 H 0.40873 0.5344 0.83921 0.0
H308 H 0.35887 0.56775 0.96483 0.0
H309 H 0.32642 0.47098 0.88613 0.0
C310 C 0.2958 0.45235 0.93371 0.0
C311 C 0.28546 0.45823 0.97169 0.0
C312 C 0.36965 0.5605 0.9372 0.0
C313 C 0.32994 0.50684 0.93455 0.0
C314 C 0.39736 0.58075 0.92168 0.0
C315 C 0.41242 0.57159 0.88626 0.0
C316 C 0.3569 0.53079 0.91728 0.0
C317 C 0.3982 0.54228 0.86672 0.0
C318 C 0.3179 0.47659 0.91505 0.0
C319 C 0.29662 0.48963 0.98958 0.0
N320 N 0.37138 0.52278 0.88263 0.0
N321 N 0.31854 0.51265 0.97094 0.0
H322 H 0.69857 0.55312 0.41981 0.0
H323 H 0.57574 0.38167 0.4471 0.0
H324 H 0.69897 0.48886 0.52183 0.0
H325 H 0.5766 0.44603 0.34502 0.0
H326 H 0.62452 0.41758 0.47292 0.0
H327 H 0.65878 0.51034 0.38951 0.0
C328 C 0.6909 0.5296 0.43561 0.0
C329 C 0.70202 0.52459 0.47349 0.0
C330 C 0.61412 0.42376 0.44482 0.0
C331 C 0.65556 0.47598 0.43925 0.0
C332 C 0.58614 0.40335 0.43007 0.0
C333 C 0.57174 0.41106 0.39394 0.0
C334 C 0.62778 0.45214 0.42336 0.0
C335 C 0.58661 0.43927 0.37311 0.0
C336 C 0.66785 0.50534 0.41838 0.0
C337 C 0.69061 0.49396 0.49275 0.0
N338 N 0.61371 0.4589 0.38822 0.0
N339 N 0.66771 0.47094 0.47551 0.0
H340 H 0.70878 0.43291 0.91957 0.0
H341 H 0.58702 0.60624 0.93862 0.0
H342 H 0.70161 0.49586 0.0222 0.0
H343 H 0.58772 0.53744 0.84001 0.0
H344 H 0.63652 0.57191 0.96571 0.0
H345 H 0.67338 0.47749 0.88599 0.0
C346 C 0.70047 0.45654 0.93486 0.0
C347 C 0.70785 0.46055 0.97388 0.0
C348 C 0.62599 0.56448 0.93805 0.0
C349 C 0.6664 0.51118 0.93578 0.0
C350 C 0.59761 0.58397 0.92257 0.0
C351 C 0.58273 0.57432 0.88723 0.0
C352 C 0.63958 0.53508 0.91812 0.0
C353 C 0.59797 0.54554 0.86756 0.0
C354 C 0.67992 0.48182 0.91572 0.0
C355 C 0.69592 0.49146 0.99229 0.0
N356 N 0.6254 0.52675 0.88345 0.0
N357 N 0.67536 0.51544 0.97317 0.0
H358 H 0.26729 0.53526 0.41529 0.0
H359 H 0.39866 0.37079 0.44801 0.0
H360 H 0.27465 0.47808 0.52177 0.0
H361 H 0.39211 0.43187 0.34388 0.0
H362 H 0.34587 0.40273 0.47214 0.0
H363 H 0.30341 0.48935 0.38489 0.0
C364 C 0.27559 0.51251 0.43209 0.0
C365 C 0.26843 0.51084 0.47134 0.0
C366 C 0.35585 0.40888 0.44388 0.0
C367 C 0.31105 0.45875 0.43692 0.0
C368 C 0.38609 0.39077 0.43014 0.0
C369 C 0.40032 0.39912 0.39414 0.0
C370 C 0.33976 0.43548 0.42145 0.0
C371 C 0.38258 0.42495 0.37209 0.0
C372 C 0.29666 0.48646 0.41478 0.0
C373 C 0.28029 0.48082 0.49162 0.0
N374 N 0.35345 0.44236 0.38623 0.0
N375 N 0.30163 0.45626 0.47435 0.0
H376 H 0.78371 -0.00405 0.01534 0.0
H377 H 0.90659 0.03919 0.8344 0.0
H378 H 0.78726 0.93154 0.91364 0.0
H379 H 0.90613 0.10137 0.93795 0.0
H380 H 0.85708 0.00379 0.85976 0.0
H381 H 0.82231 0.03962 0.98394 0.0
C382 C 0.79226 -0.00873 0.98624 0.0
C383 C 0.78255 0.96001 0.96716 0.0
C384 C 0.8677 0.02533 0.87682 0.0
C385 C 0.82678 0.00954 0.93119 0.0
C386 C 0.89606 0.0455 0.8624 0.0
C387 C 0.91092 0.07302 0.88426 0.0
C388 C 0.85416 0.03267 0.91338 0.0
C389 C 0.89586 0.08017 0.92021 0.0
C390 C 0.81425 0.01615 0.96832 0.0
C391 C 0.79392 0.95539 0.92932 0.0
N392 N 0.86848 0.05995 0.93373 0.0
N393 N 0.8158 0.9797 0.91272 0.0
H394 H 0.1982 0.0498 0.41612 0.0
H395 H 0.07544 0.87775 0.44159 0.0
H396 H 0.18908 -0.0082 0.52191 0.0
H397 H 0.08078 0.9401 0.33824 0.0
H398 H 0.12236 0.91496 0.46935 0.0
H399 H 0.16138 0.005 0.38487 0.0
C400 C 0.18896 0.02729 0.43265 0.0
C401 C 0.19652 0.02461 0.47175 0.0
C402 C 0.11337 0.92035 0.44054 0.0
C403 C 0.15364 0.97363 0.43631 0.0
C404 C 0.08653 0.89916 0.42465 0.0
C405 C 0.0738 0.90607 0.38766 0.0
C406 C 0.12757 0.94863 0.41929 0.0
C407 C 0.08943 0.93399 0.367 0.0
C408 C 0.16766 0.00185 0.41485 0.0
C409 C 0.18337 -0.00486 0.49184 0.0
N410 N 0.11535 0.95436 0.3832 0.0
N411 N 0.16229 0.9709 0.47394 0.0
H412 H 0.21064 0.93567 0.91679 0.0
H413 H 0.08477 0.1054 0.9426 0.0
H414 H 0.20294 -0.0047 0.02165 0.0
H415 H 0.08799 0.04064 0.84093 0.0
H416 H 0.13472 0.07097 0.96874 0.0
H417 H 0.17393 0.98037 0.88514 0.0
C418 C 0.20194 0.95861 0.933 0.0
C419 C 0.2096 0.9616 0.97207 0.0
C420 C 0.12462 0.06444 0.94063 0.0
C421 C 0.16655 0.01236 0.93616 0.0
C422 C 0.09598 0.08399 0.9257 0.0
C423 C 0.08174 0.07553 0.88971 0.0
C424 C 0.1391 0.03621 0.91949 0.0
C425 C 0.09774 0.04781 0.86898 0.0
C426 C 0.18062 0.98397 0.91495 0.0
C427 C 0.19707 -0.00834 0.99166 0.0
N428 N 0.12541 0.02898 0.88431 0.0
N429 N 0.17575 0.01571 0.97358 0.0
H430 H 0.78046 0.9829 0.51428 0.0
H431 H 0.89642 0.93497 0.33038 0.0
H432 H 0.77887 0.04342 0.40976 0.0
H433 H 0.90081 0.87578 0.43589 0.0
H434 H 0.84564 0.96889 0.35543 0.0
H435 H 0.81571 0.93682 0.48212 0.0
C436 C 0.78692 0.98611 0.48435 0.0
C437 C 0.77721 0.01721 0.46479 0.0
C438 C 0.85753 0.9483 0.373 0.0
C439 C 0.81779 0.965 0.42801 0.0
C440 C 0.8867 0.92902 0.35879 0.0
C441 C 0.9034 0.9029 0.38133 0.0
C442 C 0.84506 0.94161 0.41011 0.0
C443 C 0.88915 0.89599 0.41767 0.0
C444 C 0.80707 0.95987 0.46603 0.0
C445 C 0.78576 0.01986 0.42593 0.0
N446 N 0.86103 0.9155 0.43108 0.0
N447 N 0.8061 -0.00562 0.40898 0.0
H448 H 0.27695 0.43035 0.1121 0.0
H449 H 0.40834 0.28531 0.20309 0.0
H450 H 0.28846 0.32463 0.06648 0.0
H451 H 0.38815 0.38913 0.25098 0.0
H452 H 0.35973 0.2959 0.15686 0.0
H453 H 0.31242 0.4126 0.16758 0.0
C454 C 0.28661 0.40323 0.11413 0.0
C455 C 0.28009 0.37898 0.08471 0.0
C456 C 0.36578 0.31615 0.1778 0.0
C457 C 0.32121 0.35849 0.14767 0.0
C458 C 0.3935 0.31011 0.20416 0.0
C459 C 0.40281 0.33663 0.23045 0.0
C460 C 0.34736 0.34886 0.17793 0.0
C461 C 0.38251 0.36818 0.23074 0.0
C462 C 0.30686 0.39305 0.14574 0.0
C463 C 0.2929 0.34406 0.08872 0.0
N464 N 0.35604 0.37349 0.20471 0.0
N465 N 0.31336 0.33495 0.11939 0.0
H466 H 0.71676 0.55763 0.61325 0.0
H467 H 0.57511 0.69715 0.69619 0.0
H468 H 0.69757 0.6599 0.56171 0.0
H469 H 0.60027 0.59569 0.74732 0.0
H470 H 0.62548 0.6885 0.6516 0.0
H471 H 0.68063 0.57569 0.66807 0.0
C472 C 0.70536 0.58415 0.61392 0.0
C473 C 0.7098 0.60724 0.58301 0.0
C474 C 0.62011 0.66838 0.6729 0.0
C475 C 0.66771 0.62795 0.64505 0.0
C476 C 0.59139 0.67329 0.69829 0.0
C477 C 0.58299 0.64678 0.72495 0.0
C478 C 0.64047 0.63682 0.67445 0.0
C479 C 0.60515 0.61651 0.72667 0.0
C480 C 0.68467 0.59449 0.6451 0.0
C481 C 0.69473 0.6414 0.58516 0.0
N482 N 0.63258 0.61228 0.7016 0.0
N483 N 0.67377 0.65058 0.61542 0.0
H484 H 0.69172 0.32297 0.06429 0.0
H485 H 0.58334 0.39609 0.24424 0.0
H486 H 0.70397 0.42807 0.11134 0.0
H487 H 0.57285 0.28843 0.20338 0.0
H488 H 0.63158 0.40591 0.19877 0.0
H489 H 0.65303 0.30718 0.11833 0.0
C490 C 0.68684 0.34248 0.0864 0.0
C491 C 0.70073 0.37699 0.08325 0.0
C492 C 0.61893 0.38004 0.19975 0.0
C493 C 0.65621 0.35936 0.14459 0.0
C494 C 0.59117 0.37443 0.22566 0.0
C495 C 0.57361 0.34149 0.22731 0.0
C496 C 0.62922 0.35266 0.17488 0.0
C497 C 0.58547 0.31431 0.2029 0.0
C498 C 0.66457 0.33354 0.11705 0.0
C499 C 0.69331 0.40135 0.11242 0.0
N500 N 0.61235 0.32061 0.17737 0.0
N501 N 0.67131 0.39216 0.14165 0.0
H502 H 0.25076 0.62784 0.60391 0.0
H503 H 0.43947 0.58974 0.69726 0.0
H504 H 0.33992 0.58093 0.5425 0.0
H505 H 0.38512 0.6877 0.72597 0.0
H506 H 0.39582 0.57981 0.64673 0.0
H507 H 0.29327 0.64594 0.65445 0.0
C508 C 0.27915 0.62154 0.60093 0.0
C509 C 0.29165 0.60193 0.56948 0.0
C510 C 0.39344 0.60354 0.66401 0.0
C511 C 0.33972 0.62207 0.62681 0.0
C512 C 0.4182 0.60914 0.69302 0.0
C513 C 0.41591 0.63962 0.71581 0.0
C514 C 0.36568 0.62822 0.65795 0.0
C515 C 0.38786 0.66397 0.70879 0.0
C516 C 0.30325 0.63186 0.62966 0.0
C517 C 0.32875 0.59474 0.56688 0.0
N518 N 0.36345 0.65761 0.68051 0.0
N519 N 0.3513 0.60434 0.59536 0.0
H520 H 0.776 0.9269 0.10599 0.0
H521 H 0.91167 0.78262 0.19295 0.0
H522 H 0.79169 0.82335 0.05617 0.0
H523 H 0.89579 0.88855 0.23715 0.0
H524 H 0.8622 0.79311 0.14759 0.0
H525 H 0.8134 0.90912 0.15999 0.0
C526 C 0.78699 0.90021 0.10679 0.0
C527 C 0.78111 0.87665 0.07658 0.0
C528 C 0.86948 0.81387 0.16748 0.0
C529 C 0.82449 0.85619 0.13784 0.0
C530 C 0.89769 0.80791 0.1933 0.0
C531 C 0.90833 0.83495 0.21841 0.0
C532 C 0.8518 0.84698 0.1671 0.0
C533 C 0.8891 0.86713 0.21785 0.0
C534 C 0.80839 0.89004 0.13753 0.0
C535 C 0.79561 0.84225 0.07905 0.0
N536 N 0.86201 0.87225 0.19252 0.0
N537 N 0.81714 0.83316 0.10893 0.0
H538 H 0.19304 0.16382 0.55808 0.0
H539 H 0.1057 0.10466 0.75604 0.0
H540 H 0.20531 0.06054 0.60967 0.0
H541 H 0.07168 0.19873 0.69532 0.0
H542 H 0.15332 0.09562 0.70948 0.0
H543 H 0.15915 0.18368 0.61446 0.0
C544 C 0.18916 0.14561 0.58165 0.0
C545 C 0.20157 0.11045 0.57934 0.0
C546 C 0.13568 0.11842 0.70639 0.0
C547 C 0.16313 0.13278 0.64335 0.0
C548 C 0.10842 0.12361 0.73295 0.0
C549 C 0.08419 0.15206 0.72901 0.0
C550 C 0.13869 0.14164 0.67531 0.0
C551 C 0.0896 0.17625 0.69912 0.0
C552 C 0.16974 0.15686 0.6136 0.0
C553 C 0.19577 0.08774 0.61031 0.0
N554 N 0.11602 0.17017 0.67292 0.0
N555 N 0.17679 0.09924 0.64094 0.0
H556 H 0.19519 0.82164 0.05712 0.0
H557 H 0.0946 0.88721 0.24538 0.0
H558 H 0.20961 0.92443 0.10905 0.0
H559 H 0.0747 0.78501 0.19382 0.0
H560 H 0.14323 0.89715 0.20039 0.0
H561 H 0.15788 0.8037 0.1115 0.0
C562 C 0.19107 0.84016 0.08035 0.0
C563 C 0.20516 0.87468 0.07855 0.0
C564 C 0.12846 0.87242 0.19891 0.0
C565 C 0.16234 0.85457 0.14035 0.0
C566 C 0.10052 0.86675 0.22458 0.0
C567 C 0.08009 0.83547 0.22292 0.0
C568 C 0.136 0.84683 0.17097 0.0
C569 C 0.08959 0.80963 0.19587 0.0
C570 C 0.16961 0.83 0.11121 0.0
C571 C 0.19878 0.89776 0.10913 0.0
N572 N 0.11664 0.81608 0.17055 0.0
N573 N 0.17762 0.88738 0.13859 0.0
H574 H 0.84899 0.08534 0.53851 0.0
H575 H 0.88648 0.19268 0.72859 0.0
H576 H 0.75942 0.13191 0.59957 0.0
H577 H 0.94345 0.09716 0.69628 0.0
H578 H 0.84378 0.18243 0.67558 0.0
H579 H 0.88906 0.10254 0.59002 0.0
C580 C 0.83763 0.09897 0.56293 0.0
C581 C 0.80053 0.10617 0.56527 0.0
C582 C 0.86569 0.16388 0.68041 0.0
C583 C 0.84674 0.12694 0.62391 0.0
C584 C 0.89004 0.16974 0.71034 0.0
C585 C 0.91838 0.14563 0.71683 0.0
C586 C 0.87063 0.13435 0.65653 0.0
C587 C 0.92183 0.11626 0.69255 0.0
C588 C 0.86062 0.109 0.59216 0.0
C589 C 0.78779 0.12549 0.59685 0.0
N590 N 0.89844 0.11162 0.66338 0.0
N591 N 0.81091 0.13511 0.62525 0.0
loop_
_geom_bond_atom_site_label_1
_geom_bond_atom_site_label_2
_geom_bond_distance
_geom_bond_site_symmetry_2
_ccdc_geom_bond_type
H0 C3 0.931 . S
H1 C6 0.928 . S
H2 C8 0.930 . S
C3 H0 0.931 . S
C3 C4 1.413 . S
C3 C5 1.360 1_554 S
C4 C3 1.413 . S
C4 C8 1.429 . S
C5 C3 1.360 1_556 S
C5 C6 1.372 . S
C6 H1 0.928 . S
C6 C5 1.372 . S
C6 C7 1.404 . S
C7 C6 1.404 . S
C7 C8 1.391 1_556 S
C8 H2 0.930 . S
C8 C4 1.429 . S
C8 C7 1.391 1_554 S
H9 C12 0.931 . S
H10 C15 0.928 . S
H11 C17 0.930 . S
C12 H9 0.931 . S
C12 C13 1.413 . S
C12 C14 1.360 . S
C13 C12 1.413 . S
C13 C17 1.429 . S
C14 C12 1.360 . S
C14 C15 1.372 . S
C15 H10 0.928 . S
C15 C14 1.372 . S
C15 C16 1.404 . S
C16 C15 1.404 . S
C16 C17 1.391 . S
C17 H11 0.930 . S
C17 C13 1.429 . S
C17 C16 1.391 . S
H18 C21 0.931 . S
H19 C24 0.928 . S
H20 C26 0.930 . S
C21 H18 0.931 . S
C21 C22 1.413 1_554 S
C21 C23 1.360 . S
C22 C21 1.413 1_556 S
C22 C26 1.429 . S
C23 C21 1.360 . S
C23 C24 1.372 . S
C24 H19 0.928 . S
C24 C23 1.372 . S
C24 C25 1.404 1_554 S
C25 C24 1.404 1_556 S
C25 C26 1.391 . S
C26 H20 0.930 . S
C26 C22 1.429 . S
C26 C25 1.391 . S
H27 C30 0.931 . S
H28 C33 0.928 . S
H29 C35 0.930 . S
C30 H27 0.931 . S
C30 C31 1.413 . S
C30 C32 1.360 . S
C31 C30 1.413 . S
C31 C35 1.429 . S
C32 C30 1.360 . S
C32 C33 1.372 . S
C33 H28 0.928 . S
C33 C32 1.372 . S
C33 C34 1.404 . S
C34 C33 1.404 . S
C34 C35 1.391 . S
C35 H29 0.930 . S
C35 C31 1.429 . S
C35 C34 1.391 . S
H36 C39 0.931 . S
H37 C42 0.928 . S
H38 C44 0.930 . S
C39 H36 0.931 . S
C39 C40 1.413 . S
C39 C41 1.360 1_554 S
C40 C39 1.413 . S
C40 C44 1.429 . S
C41 C39 1.360 1_556 S
C41 C42 1.372 . S
C42 H37 0.928 . S
C42 C41 1.372 . S
C42 C43 1.404 . S
C43 C42 1.404 . S
C43 C44 1.391 1_556 S
C44 H38 0.930 . S
C44 C40 1.429 . S
C44 C43 1.391 1_554 S
H45 C48 0.931 . S
H46 C51 0.928 . S
H47 C53 0.930 . S
C48 H45 0.931 . S
C48 C49 1.413 . S
C48 C50 1.360 . S
C49 C48 1.413 . S
C49 C53 1.429 . S
C50 C48 1.360 . S
C50 C51 1.372 . S
C51 H46 0.928 . S
C51 C50 1.372 . S
C51 C52 1.404 . S
C52 C51 1.404 . S
C52 C53 1.391 . S
C53 H47 0.930 . S
C53 C49 1.429 . S
C53 C52 1.391 . S
H54 C57 0.931 . S
H55 C60 0.928 . S
H56 C62 0.930 . S
C57 H54 0.931 . S
C57 C58 1.413 1_554 S
C57 C59 1.360 . S
C58 C57 1.413 1_556 S
C58 C62 1.429 . S
C59 C57 1.360 . S
C59 C60 1.372 . S
C60 H55 0.928 . S
C60 C59 1.372 . S
C60 C61 1.404 1_554 S
C61 C60 1.404 1_556 S
C61 C62 1.391 . S
C62 H56 0.930 . S
C62 C58 1.429 . S
C62 C61 1.391 . S
H63 C66 0.931 . S
H64 C69 0.928 . S
H65 C71 0.930 . S
C66 H63 0.931 . S
C66 C67 1.413 . S
C66 C68 1.360 . S
C67 C66 1.413 . S
C67 C71 1.429 . S
C68 C66 1.360 . S
C68 C69 1.372 . S
C69 H64 0.928 . S
C69 C68 1.372 . S
C69 C70 1.404 . S
C70 C69 1.404 . S
C70 C71 1.391 . S
C71 H65 0.930 . S
C71 C67 1.429 . S
C71 C70 1.391 . S
Sc72 O75 2.025 . S
Sc72 O82 2.093 1_455 S
Sc72 O85 2.117 . S
Sc72 O88 2.117 . S
Sc72 O91 2.093 1_455 S
Sc73 O75 2.025 . S
Sc73 O83 2.093 1_455 S
Sc73 O87 2.117 . S
Sc73 O89 2.117 . S
Sc73 O93 2.093 1_455 S
Sc74 O75 2.025 . S
Sc74 O84 2.093 1_455 S
Sc74 O86 2.117 . S
Sc74 O90 2.117 . S
Sc74 O92 2.093 1_455 S
O75 Sc72 2.025 . S
O75 Sc73 2.025 . S
O75 Sc74 2.025 . S
C76 O82 1.268 . S
C76 O92 1.268 . S
C77 O83 1.268 . S
C77 O91 1.268 . S
C78 O84 1.268 . S
C78 O93 1.268 . S
C79 O85 1.268 . S
C79 O89 1.268 . S
C80 O86 1.268 . S
C80 O88 1.268 . S
C81 O87 1.268 . S
C81 O90 1.268 . S
O82 Sc72 2.093 1_655 S
O82 C76 1.268 . S
O83 Sc73 2.093 1_655 S
O83 C77 1.268 . S
O84 Sc74 2.093 1_655 S
O84 C78 1.268 . S
O85 Sc72 2.117 . S
O85 C79 1.268 . S
O86 Sc74 2.117 . S
O86 C80 1.268 . S
O87 Sc73 2.117 . S
O87 C81 1.268 . S
O88 Sc72 2.117 . S
O88 C80 1.268 . S
O89 Sc73 2.117 . S
O89 C79 1.268 . S
O90 Sc74 2.117 . S
O90 C81 1.268 . S
O91 Sc72 2.093 1_655 S
O91 C77 1.268 . S
O92 Sc74 2.093 1_655 S
O92 C76 1.268 . S
O93 Sc73 2.093 1_655 S
O93 C78 1.268 . S
Sc94 O97 2.025 . S
Sc94 O104 2.112 . S
Sc94 O107 2.098 1_455 S
Sc94 O110 2.098 1_455 S
Sc94 O113 2.112 . S
Sc95 O97 2.025 . S
Sc95 O105 2.111 . S
Sc95 O109 2.098 1_455 S
Sc95 O111 2.098 1_455 S
Sc95 O115 2.111 . S
Sc96 O97 2.025 . S
Sc96 O106 2.111 . S
Sc96 O108 2.099 1_455 S
Sc96 O112 2.099 1_455 S
Sc96 O114 2.111 . S
O97 Sc94 2.025 . S
O97 Sc95 2.025 . S
O97 Sc96 2.025 . S
C98 O104 1.268 . S
C98 O114 1.268 . S
C99 O105 1.268 . S
C99 O113 1.268 . S
C100 O106 1.268 . S
C100 O115 1.268 . S
C101 O107 1.268 . S
C101 O111 1.268 . S
C102 O108 1.268 . S
C102 O110 1.268 . S
C103 O109 1.268 . S
C103 O112 1.268 . S
O104 Sc94 2.112 . S
O104 C98 1.268 . S
O105 Sc95 2.111 . S
O105 C99 1.268 . S
O106 Sc96 2.111 . S
O106 C100 1.268 . S
O107 Sc94 2.098 1_655 S
O107 C101 1.268 . S
O108 Sc96 2.099 1_655 S
O108 C102 1.268 . S
O109 Sc95 2.098 1_655 S
O109 C103 1.268 . S
O110 Sc94 2.098 1_655 S
O110 C102 1.268 . S
O111 Sc95 2.098 1_655 S
O111 C101 1.268 . S
O112 Sc96 2.099 1_655 S
O112 C103 1.268 . S
O113 Sc94 2.112 . S
O113 C99 1.268 . S
O114 Sc96 2.111 . S
O114 C98 1.268 . S
O115 Sc95 2.111 . S
O115 C100 1.268 . S
Sc116 O119 2.025 . S
Sc116 O126 2.105 . S
Sc116 O129 2.105 . S
Sc116 O132 2.105 . S
Sc116 O135 2.105 . S
Sc117 O119 2.025 . S
Sc117 O127 2.105 . S
Sc117 O131 2.105 . S
Sc117 O133 2.105 . S
Sc117 O137 2.105 . S
Sc118 O119 2.025 . S
Sc118 O128 2.105 . S
Sc118 O130 2.105 . S
Sc118 O134 2.105 . S
Sc118 O136 2.105 . S
O119 Sc116 2.025 . S
O119 Sc117 2.025 . S
O119 Sc118 2.025 . S
C120 O126 1.268 . S
C120 O136 1.268 . S
C121 O127 1.268 . S
C121 O135 1.268 . S
C122 O128 1.268 . S
C122 O137 1.268 . S
C123 O129 1.268 . S
C123 O133 1.268 . S
C124 O130 1.268 . S
C124 O132 1.268 . S
C125 O131 1.268 . S
C125 O134 1.268 . S
O126 Sc116 2.105 . S
O126 C120 1.268 . S
O127 Sc117 2.105 . S
O127 C121 1.268 . S
O128 Sc118 2.105 . S
O128 C122 1.268 . S
O129 Sc116 2.105 . S
O129 C123 1.268 . S
O130 Sc118 2.105 . S
O130 C124 1.268 . S
O131 Sc117 2.105 . S
O131 C125 1.268 . S
O132 Sc116 2.105 . S
O132 C124 1.268 . S
O133 Sc117 2.105 . S
O133 C123 1.268 . S
O134 Sc118 2.105 . S
O134 C125 1.268 . S
O135 Sc116 2.105 . S
O135 C121 1.268 . S
O136 Sc118 2.105 . S
O136 C120 1.268 . S
O137 Sc117 2.105 . S
O137 C122 1.268 . S
Sc138 O141 2.025 . S
Sc138 O148 2.105 . S
Sc138 O151 2.105 . S
Sc138 O154 2.105 . S
Sc138 O157 2.105 . S
Sc139 O141 2.025 . S
Sc139 O149 2.105 . S
Sc139 O153 2.105 . S
Sc139 O155 2.105 . S
Sc139 O159 2.105 . S
Sc140 O141 2.025 . S
Sc140 O150 2.105 . S
Sc140 O152 2.105 . S
Sc140 O156 2.105 . S
Sc140 O158 2.105 . S
O141 Sc138 2.025 . S
O141 Sc139 2.025 . S
O141 Sc140 2.025 . S
C142 O148 1.268 . S
C142 O158 1.268 . S
C143 O149 1.268 . S
C143 O157 1.268 . S
C144 O150 1.268 . S
C144 O159 1.268 . S
C145 O151 1.268 . S
C145 O155 1.268 . S
C146 O152 1.268 . S
C146 O154 1.268 . S
C147 O153 1.268 . S
C147 O156 1.268 . S
O148 Sc138 2.105 . S
O148 C142 1.268 . S
O149 Sc139 2.105 . S
O149 C143 1.268 . S
O150 Sc140 2.105 . S
O150 C144 1.268 . S
O151 Sc138 2.105 . S
O151 C145 1.268 . S
O152 Sc140 2.105 . S
O152 C146 1.268 . S
O153 Sc139 2.105 . S
O153 C147 1.268 . S
O154 Sc138 2.105 . S
O154 C146 1.268 . S
O155 Sc139 2.105 . S
O155 C145 1.268 . S
O156 Sc140 2.105 . S
O156 C147 1.268 . S
O157 Sc138 2.105 . S
O157 C143 1.268 . S
O158 Sc140 2.105 . S
O158 C142 1.268 . S
O159 Sc139 2.105 . S
O159 C144 1.268 . S
H160 C166 0.930 . S
H161 C170 0.930 . S
H162 C175 0.929 . S
H163 C173 0.929 . S
H164 C168 0.929 . S
H165 C174 0.929 . S
C166 H160 0.930 . S
C166 C167 1.367 . S
C166 C174 1.378 . S
C167 C166 1.367 . S
C167 C175 1.433 . S
C168 H164 0.929 . S
C168 C170 1.378 . S
C168 C172 1.350 . S
C169 C172 1.463 . S
C169 C174 1.350 . S
C169 N177 1.427 . S
C170 H161 0.930 . S
C170 C168 1.378 . S
C170 C171 1.367 . S
C171 C170 1.367 . S
C171 C173 1.433 . S
C172 C168 1.350 . S
C172 C169 1.463 . S
C172 N176 1.427 . S
C173 H163 0.929 . S
C173 C171 1.433 . S
C173 N176 1.384 . S
C174 H165 0.929 . S
C174 C166 1.378 . S
C174 C169 1.350 . S
C175 H162 0.929 . S
C175 C167 1.433 . S
C175 N177 1.384 . S
N176 C172 1.427 . S
N176 C173 1.384 . S
N177 C169 1.427 . S
N177 C175 1.384 . S
H178 C184 0.930 . S
H179 C188 0.930 . S
H180 C193 0.929 . S
H181 C191 0.929 . S
H182 C186 0.929 . S
H183 C192 0.929 . S
C184 H178 0.930 . S
C184 C185 1.367 . S
C184 C192 1.378 . S
C185 C184 1.367 . S
C185 C193 1.433 . S
C186 H182 0.929 . S
C186 C188 1.378 . S
C186 C190 1.350 . S
C187 C190 1.463 . S
C187 C192 1.350 . S
C187 N195 1.427 . S
C188 H179 0.930 . S
C188 C186 1.378 . S
C188 C189 1.367 . S
C189 C188 1.367 . S
C189 C191 1.433 . S
C190 C186 1.350 . S
C190 C187 1.463 . S
C190 N194 1.427 . S
C191 H181 0.929 . S
C191 C189 1.433 . S
C191 N194 1.384 . S
C192 H183 0.929 . S
C192 C184 1.378 . S
C192 C187 1.350 . S
C193 H180 0.929 . S
C193 C185 1.433 . S
C193 N195 1.384 . S
N194 C190 1.427 . S
N194 C191 1.384 . S
N195 C187 1.427 . S
N195 C193 1.384 . S
H196 C202 0.930 1_554 S
H197 C206 0.930 . S
H198 C211 0.929 . S
H199 C209 0.929 . S
H200 C204 0.929 . S
H201 C210 0.929 . S
C202 H196 0.930 1_556 S
C202 C203 1.367 . S
C202 C210 1.378 . S
C203 C202 1.367 . S
C203 C211 1.433 . S
C204 H200 0.929 . S
C204 C206 1.378 . S
C204 C208 1.350 . S
C205 C208 1.463 . S
C205 C210 1.350 . S
C205 N213 1.427 . S
C206 H197 0.930 . S
C206 C204 1.378 . S
C206 C207 1.367 . S
C207 C206 1.367 . S
C207 C209 1.433 . S
C208 C204 1.350 . S
C208 C205 1.463 . S
C208 N212 1.427 . S
C209 H199 0.929 . S
C209 C207 1.433 . S
C209 N212 1.384 . S
C210 H201 0.929 . S
C210 C202 1.378 . S
C210 C205 1.350 . S
C211 H198 0.929 . S
C211 C203 1.433 . S
C211 N213 1.384 . S
N212 C208 1.427 . S
N212 C209 1.384 . S
N213 C205 1.427 . S
N213 C211 1.384 . S
H214 C220 0.930 . S
H215 C224 0.930 . S
H216 C229 0.929 . S
H217 C227 0.929 . S
H218 C222 0.929 . S
H219 C228 0.929 . S
C220 H214 0.930 . S
C220 C221 1.367 . S
C220 C228 1.378 . S
C221 C220 1.367 . S
C221 C229 1.433 . S
C222 H218 0.929 . S
C222 C224 1.378 . S
C222 C226 1.350 . S
C223 C226 1.463 . S
C223 C228 1.350 . S
C223 N231 1.427 . S
C224 H215 0.930 . S
C224 C222 1.378 . S
C224 C225 1.367 . S
C225 C224 1.367 . S
C225 C227 1.433 . S
C226 C222 1.350 . S
C226 C223 1.463 . S
C226 N230 1.427 . S
C227 H217 0.929 . S
C227 C225 1.433 . S
C227 N230 1.384 . S
C228 H219 0.929 . S
C228 C220 1.378 . S
C228 C223 1.350 . S
C229 H216 0.929 . S
C229 C221 1.433 . S
C229 N231 1.384 . S
N230 C226 1.427 . S
N230 C227 1.384 . S
N231 C223 1.427 . S
N231 C229 1.384 . S
H232 C238 0.930 . S
H233 C242 0.930 . S
H234 C247 0.929 1_554 S
H235 C245 0.929 . S
H236 C240 0.929 . S
H237 C246 0.929 . S
C238 H232 0.930 . S
C238 C239 1.367 . S
C238 C246 1.378 . S
C239 C238 1.367 . S
C239 C247 1.433 . S
C240 H236 0.929 . S
C240 C242 1.378 . S
C240 C244 1.350 . S
C241 C244 1.463 . S
C241 C246 1.350 . S
C241 N249 1.427 . S
C242 H233 0.930 . S
C242 C240 1.378 . S
C242 C243 1.367 . S
C243 C242 1.367 . S
C243 C245 1.433 . S
C244 C240 1.350 . S
C244 C241 1.463 . S
C244 N248 1.427 . S
C245 H235 0.929 . S
C245 C243 1.433 . S
C245 N248 1.384 . S
C246 H237 0.929 . S
C246 C238 1.378 . S
C246 C241 1.350 . S
C247 H234 0.929 1_556 S
C247 C239 1.433 . S
C247 N249 1.384 . S
N248 C244 1.427 . S
N248 C245 1.384 . S
N249 C241 1.427 . S
N249 C247 1.384 . S
H250 C256 0.930 . S
H251 C260 0.930 . S
H252 C265 0.929 . S
H253 C263 0.929 . S
H254 C258 0.929 . S
H255 C264 0.929 . S
C256 H250 0.930 . S
C256 C257 1.367 . S
C256 C264 1.378 . S
C257 C256 1.367 . S
C257 C265 1.433 . S
C258 H254 0.929 . S
C258 C260 1.378 . S
C258 C262 1.350 . S
C259 C262 1.463 . S
C259 C264 1.350 . S
C259 N267 1.427 . S
C260 H251 0.930 . S
C260 C258 1.378 . S
C260 C261 1.367 . S
C261 C260 1.367 . S
C261 C263 1.433 . S
C262 C258 1.350 . S
C262 C259 1.463 . S
C262 N266 1.427 . S
C263 H253 0.929 . S
C263 C261 1.433 . S
C263 N266 1.384 . S
C264 H255 0.929 . S
C264 C256 1.378 . S
C264 C259 1.350 . S
C265 H252 0.929 . S
C265 C257 1.433 . S
C265 N267 1.384 . S
N266 C262 1.427 . S
N266 C263 1.384 . S
N267 C259 1.427 . S
N267 C265 1.384 . S
H268 C274 0.930 . S
H269 C278 0.930 . S
H270 C283 0.929 1_554 S
H271 C281 0.929 . S
H272 C276 0.929 . S
H273 C282 0.929 . S
C274 H268 0.930 . S
C274 C275 1.367 . S
C274 C282 1.378 . S
C275 C274 1.367 . S
C275 C283 1.433 . S
C276 H272 0.929 . S
C276 C278 1.378 . S
C276 C280 1.350 . S
C277 C280 1.463 . S
C277 C282 1.350 . S
C277 N285 1.427 . S
C278 H269 0.930 . S
C278 C276 1.378 . S
C278 C279 1.367 . S
C279 C278 1.367 . S
C279 C281 1.433 . S
C280 C276 1.350 . S
C280 C277 1.463 . S
C280 N284 1.427 . S
C281 H271 0.929 . S
C281 C279 1.433 . S
C281 N284 1.384 . S
C282 H273 0.929 . S
C282 C274 1.378 . S
C282 C277 1.350 . S
C283 H270 0.929 1_556 S
C283 C275 1.433 . S
C283 N285 1.384 . S
N284 C280 1.427 . S
N284 C281 1.384 . S
N285 C277 1.427 . S
N285 C283 1.384 . S
H286 C292 0.930 . S
H287 C296 0.930 . S
H288 C301 0.929 . S
H289 C299 0.929 . S
H290 C294 0.929 . S
H291 C300 0.929 . S
C292 H286 0.930 . S
C292 C293 1.367 . S
C292 C300 1.378 . S
C293 C292 1.367 . S
C293 C301 1.433 . S
C294 H290 0.929 . S
C294 C296 1.378 . S
C294 C298 1.350 . S
C295 C298 1.463 . S
C295 C300 1.350 . S
C295 N303 1.427 . S
C296 H287 0.930 . S
C296 C294 1.378 . S
C296 C297 1.367 . S
C297 C296 1.367 . S
C297 C299 1.433 . S
C298 C294 1.350 . S
C298 C295 1.463 . S
C298 N302 1.427 . S
C299 H289 0.929 . S
C299 C297 1.433 . S
C299 N302 1.384 . S
C300 H291 0.929 . S
C300 C292 1.378 . S
C300 C295 1.350 . S
C301 H288 0.929 . S
C301 C293 1.433 . S
C301 N303 1.384 . S
N302 C298 1.427 . S
N302 C299 1.384 . S
N303 C295 1.427 . S
N303 C301 1.384 . S
H304 C310 0.930 . S
H305 C314 0.930 . S
H306 C319 0.929 1_554 S
H307 C317 0.929 . S
H308 C312 0.929 . S
H309 C318 0.929 . S
C310 H304 0.930 . S
C310 C311 1.367 . S
C310 C318 1.378 . S
C311 C310 1.367 . S
C311 C319 1.433 . S
C312 H308 0.929 . S
C312 C314 1.378 . S
C312 C316 1.350 . S
C313 C316 1.463 . S
C313 C318 1.350 . S
C313 N321 1.427 . S
C314 H305 0.930 . S
C314 C312 1.378 . S
C314 C315 1.367 . S
C315 C314 1.367 . S
C315 C317 1.433 . S
C316 C312 1.350 . S
C316 C313 1.463 . S
C316 N320 1.427 . S
C317 H307 0.929 . S
C317 C315 1.433 . S
C317 N320 1.384 . S
C318 H309 0.929 . S
C318 C310 1.378 . S
C318 C313 1.350 . S
C319 H306 0.929 1_556 S
C319 C311 1.433 . S
C319 N321 1.384 . S
N320 C316 1.427 . S
N320 C317 1.384 . S
N321 C313 1.427 . S
N321 C319 1.384 . S
H322 C328 0.930 . S
H323 C332 0.930 . S
H324 C337 0.929 . S
H325 C335 0.929 . S
H326 C330 0.929 . S
H327 C336 0.929 . S
C328 H322 0.930 . S
C328 C329 1.367 . S
C328 C336 1.378 . S
C329 C328 1.367 . S
C329 C337 1.433 . S
C330 H326 0.929 . S
C330 C332 1.378 . S
C330 C334 1.350 . S
C331 C334 1.463 . S
C331 C336 1.350 . S
C331 N339 1.427 . S
C332 H323 0.930 . S
C332 C330 1.378 . S
C332 C333 1.367 . S
C333 C332 1.367 . S
C333 C335 1.433 . S
C334 C330 1.350 . S
C334 C331 1.463 . S
C334 N338 1.427 . S
C335 H325 0.929 . S
C335 C333 1.433 . S
C335 N338 1.384 . S
C336 H327 0.929 . S
C336 C328 1.378 . S
C336 C331 1.350 . S
C337 H324 0.929 . S
C337 C329 1.433 . S
C337 N339 1.384 . S
N338 C334 1.427 . S
N338 C335 1.384 . S
N339 C331 1.427 . S
N339 C337 1.384 . S
H340 C346 0.930 . S
H341 C350 0.930 . S
H342 C355 0.929 . S
H343 C353 0.929 . S
H344 C348 0.929 . S
H345 C354 0.929 . S
C346 H340 0.930 . S
C346 C347 1.367 . S
C346 C354 1.378 . S
C347 C346 1.367 . S
C347 C355 1.433 . S
C348 H344 0.929 . S
C348 C350 1.378 . S
C348 C352 1.350 . S
C349 C352 1.463 . S
C349 C354 1.350 . S
C349 N357 1.427 . S
C350 H341 0.930 . S
C350 C348 1.378 . S
C350 C351 1.367 . S
C351 C350 1.367 . S
C351 C353 1.433 . S
C352 C348 1.350 . S
C352 C349 1.463 . S
C352 N356 1.427 . S
C353 H343 0.929 . S
C353 C351 1.433 . S
C353 N356 1.384 . S
C354 H345 0.929 . S
C354 C346 1.378 . S
C354 C349 1.350 . S
C355 H342 0.929 . S
C355 C347 1.433 . S
C355 N357 1.384 . S
N356 C352 1.427 . S
N356 C353 1.384 . S
N357 C349 1.427 . S
N357 C355 1.384 . S
H358 C364 0.930 . S
H359 C368 0.930 . S
H360 C373 0.929 . S
H361 C371 0.929 . S
H362 C366 0.929 . S
H363 C372 0.929 . S
C364 H358 0.930 . S
C364 C365 1.367 . S
C364 C372 1.378 . S
C365 C364 1.367 . S
C365 C373 1.433 . S
C366 H362 0.929 . S
C366 C368 1.378 . S
C366 C370 1.350 . S
C367 C370 1.463 . S
C367 C372 1.350 . S
C367 N375 1.427 . S
C368 H359 0.930 . S
C368 C366 1.378 . S
C368 C369 1.367 . S
C369 C368 1.367 . S
C369 C371 1.433 . S
C370 C366 1.350 . S
C370 C367 1.463 . S
C370 N374 1.427 . S
C371 H361 0.929 . S
C371 C369 1.433 . S
C371 N374 1.384 . S
C372 H363 0.929 . S
C372 C364 1.378 . S
C372 C367 1.350 . S
C373 H360 0.929 . S
C373 C365 1.433 . S
C373 N375 1.384 . S
N374 C370 1.427 . S
N374 C371 1.384 . S
N375 C367 1.427 . S
N375 C373 1.384 . S
H376 C382 0.930 1_554 S
H377 C386 0.930 . S
H378 C391 0.929 . S
H379 C389 0.929 . S
H380 C384 0.929 . S
H381 C390 0.929 . S
C382 H376 0.930 1_556 S
C382 C383 1.367 . S
C382 C390 1.378 1_565 S
C383 C382 1.367 . S
C383 C391 1.433 . S
C384 H380 0.929 . S
C384 C386 1.378 . S
C384 C388 1.350 . S
C385 C388 1.463 . S
C385 C390 1.350 . S
C385 N393 1.427 1_545 S
C386 H377 0.930 . S
C386 C384 1.378 . S
C386 C387 1.367 . S
C387 C386 1.367 . S
C387 C389 1.433 . S
C388 C384 1.350 . S
C388 C385 1.463 . S
C388 N392 1.427 . S
C389 H379 0.929 . S
C389 C387 1.433 . S
C389 N392 1.384 . S
C390 H381 0.929 . S
C390 C382 1.378 1_545 S
C390 C385 1.350 . S
C391 H378 0.929 . S
C391 C383 1.433 . S
C391 N393 1.384 . S
N392 C388 1.427 . S
N392 C389 1.384 . S
N393 C385 1.427 1_565 S
N393 C391 1.384 . S
H394 C400 0.930 . S
H395 C404 0.930 . S
H396 C409 0.929 . S
H397 C407 0.929 . S
H398 C402 0.929 . S
H399 C408 0.933 . S
C400 H394 0.930 . S
C400 C401 1.367 . S
C400 C408 1.378 . S
C401 C400 1.367 . S
C401 C409 1.433 . S
C402 H398 0.929 . S
C402 C404 1.378 . S
C402 C406 1.350 . S
C403 C406 1.463 . S
C403 C408 1.350 1_565 S
C403 N411 1.427 . S
C404 H395 0.930 . S
C404 C402 1.378 . S
C404 C405 1.367 . S
C405 C404 1.367 . S
C405 C407 1.433 . S
C406 C402 1.350 . S
C406 C403 1.463 . S
C406 N410 1.427 . S
C407 H397 0.929 . S
C407 C405 1.433 . S
C407 N410 1.384 . S
C408 H399 0.933 . S
C408 C400 1.378 . S
C408 C403 1.350 1_545 S
C409 H396 0.929 . S
C409 C401 1.433 . S
C409 N411 1.384 1_545 S
N410 C406 1.427 . S
N410 C407 1.384 . S
N411 C403 1.427 . S
N411 C409 1.384 1_565 S
H412 C418 0.930 . S
H413 C422 0.930 . S
H414 C427 0.929 . S
H415 C425 0.929 . S
H416 C420 0.929 . S
H417 C426 0.929 . S
C418 H412 0.930 . S
C418 C419 1.367 . S
C418 C426 1.378 . S
C419 C418 1.367 . S
C419 C427 1.433 1_565 S
C420 H416 0.929 . S
C420 C422 1.378 . S
C420 C424 1.350 . S
C421 C424 1.463 . S
C421 C426 1.350 1_545 S
C421 N429 1.427 . S
C422 H413 0.930 . S
C422 C420 1.378 . S
C422 C423 1.367 . S
C423 C422 1.367 . S
C423 C425 1.433 . S
C424 C420 1.350 . S
C424 C421 1.463 . S
C424 N428 1.427 . S
C425 H415 0.929 . S
C425 C423 1.433 . S
C425 N428 1.384 . S
C426 H417 0.929 . S
C426 C418 1.378 . S
C426 C421 1.350 1_565 S
C427 H414 0.929 . S
C427 C419 1.433 1_545 S
C427 N429 1.384 . S
N428 C424 1.427 . S
N428 C425 1.384 . S
N429 C421 1.427 . S
N429 C427 1.384 . S
H430 C436 0.930 1_565 S
H431 C440 0.930 . S
H432 C445 0.929 . S
H433 C443 0.929 . S
H434 C438 0.929 . S
H435 C444 0.929 . S
C436 H430 0.930 1_545 S
C436 C437 1.367 . S
C436 C444 1.378 1_545 S
C437 C436 1.367 . S
C437 C445 1.433 . S
C438 H434 0.929 . S
C438 C440 1.378 . S
C438 C442 1.350 . S
C439 C442 1.463 . S
C439 C444 1.350 . S
C439 N447 1.427 1_565 S
C440 H431 0.930 . S
C440 C438 1.378 . S
C440 C441 1.367 . S
C441 C440 1.367 . S
C441 C443 1.433 . S
C442 C438 1.350 . S
C442 C439 1.463 . S
C442 N446 1.427 . S
C443 H433 0.929 . S
C443 C441 1.433 . S
C443 N446 1.384 . S
C444 H435 0.929 . S
C444 C436 1.378 1_565 S
C444 C439 1.350 . S
C445 H432 0.929 . S
C445 C437 1.433 . S
C445 N447 1.384 . S
N446 C442 1.427 . S
N446 C443 1.384 . S
N447 C439 1.427 1_545 S
N447 C445 1.384 . S
H448 C454 0.930 . S
H449 C458 0.930 . S
H450 C463 0.929 . S
H451 C461 0.929 . S
H452 C456 0.929 . S
H453 C462 0.929 . S
C454 H448 0.930 . S
C454 C455 1.367 . S
C454 C462 1.378 . S
C455 C454 1.367 . S
C455 C463 1.433 . S
C456 H452 0.929 . S
C456 C458 1.378 . S
C456 C460 1.350 . S
C457 C460 1.463 . S
C457 C462 1.350 . S
C457 N465 1.427 . S
C458 H449 0.930 . S
C458 C456 1.378 . S
C458 C459 1.367 . S
C459 C458 1.367 . S
C459 C461 1.433 . S
C460 C456 1.350 . S
C460 C457 1.463 . S
C460 N464 1.427 . S
C461 H451 0.929 . S
C461 C459 1.433 . S
C461 N464 1.384 . S
C462 H453 0.929 . S
C462 C454 1.378 . S
C462 C457 1.350 . S
C463 H450 0.929 . S
C463 C455 1.433 . S
C463 N465 1.384 . S
N464 C460 1.427 . S
N464 C461 1.384 . S
N465 C457 1.427 . S
N465 C463 1.384 . S
H466 C472 0.930 . S
H467 C476 0.930 . S
H468 C481 0.929 . S
H469 C479 0.929 . S
H470 C474 0.929 . S
H471 C480 0.929 . S
C472 H466 0.930 . S
C472 C473 1.367 . S
C472 C480 1.378 . S
C473 C472 1.367 . S
C473 C481 1.433 . S
C474 H470 0.929 . S
C474 C476 1.378 . S
C474 C478 1.350 . S
C475 C478 1.463 . S
C475 C480 1.350 . S
C475 N483 1.427 . S
C476 H467 0.930 . S
C476 C474 1.378 . S
C476 C477 1.367 . S
C477 C476 1.367 . S
C477 C479 1.433 . S
C478 C474 1.350 . S
C478 C475 1.463 . S
C478 N482 1.427 . S
C479 H469 0.929 . S
C479 C477 1.433 . S
C479 N482 1.384 . S
C480 H471 0.929 . S
C480 C472 1.378 . S
C480 C475 1.350 . S
C481 H468 0.929 . S
C481 C473 1.433 . S
C481 N483 1.384 . S
N482 C478 1.427 . S
N482 C479 1.384 . S
N483 C475 1.427 . S
N483 C481 1.384 . S
H484 C490 0.930 . S
H485 C494 0.930 . S
H486 C499 0.929 . S
H487 C497 0.929 . S
H488 C492 0.929 . S
H489 C498 0.929 . S
C490 H484 0.930 . S
C490 C491 1.367 . S
C490 C498 1.378 . S
C491 C490 1.367 . S
C491 C499 1.433 . S
C492 H488 0.929 . S
C492 C494 1.378 . S
C492 C496 1.350 . S
C493 C496 1.463 . S
C493 C498 1.350 . S
C493 N501 1.427 . S
C494 H485 0.930 . S
C494 C492 1.378 . S
C494 C495 1.367 . S
C495 C494 1.367 . S
C495 C497 1.433 . S
C496 C492 1.350 . S
C496 C493 1.463 . S
C496 N500 1.427 . S
C497 H487 0.929 . S
C497 C495 1.433 . S
C497 N500 1.384 . S
C498 H489 0.929 . S
C498 C490 1.378 . S
C498 C493 1.350 . S
C499 H486 0.929 . S
C499 C491 1.433 . S
C499 N501 1.384 . S
N500 C496 1.427 . S
N500 C497 1.384 . S
N501 C493 1.427 . S
N501 C499 1.384 . S
H502 C508 0.930 . S
H503 C512 0.930 . S
H504 C517 0.929 . S
H505 C515 0.929 . S
H506 C510 0.929 . S
H507 C516 0.929 . S
C508 H502 0.930 . S
C508 C509 1.367 . S
C508 C516 1.378 . S
C509 C508 1.367 . S
C509 C517 1.433 . S
C510 H506 0.929 . S
C510 C512 1.378 . S
C510 C514 1.350 . S
C511 C514 1.463 . S
C511 C516 1.350 . S
C511 N519 1.427 . S
C512 H503 0.930 . S
C512 C510 1.378 . S
C512 C513 1.367 . S
C513 C512 1.367 . S
C513 C515 1.433 . S
C514 C510 1.350 . S
C514 C511 1.463 . S
C514 N518 1.427 . S
C515 H505 0.929 . S
C515 C513 1.433 . S
C515 N518 1.384 . S
C516 H507 0.929 . S
C516 C508 1.378 . S
C516 C511 1.350 . S
C517 H504 0.929 . S
C517 C509 1.433 . S
C517 N519 1.384 . S
N518 C514 1.427 . S
N518 C515 1.384 . S
N519 C511 1.427 . S
N519 C517 1.384 . S
H520 C526 0.930 . S
H521 C530 0.930 . S
H522 C535 0.929 . S
H523 C533 0.929 . S
H524 C528 0.929 . S
H525 C534 0.929 . S
C526 H520 0.930 . S
C526 C527 1.367 . S
C526 C534 1.378 . S
C527 C526 1.367 . S
C527 C535 1.433 . S
C528 H524 0.929 . S
C528 C530 1.378 . S
C528 C532 1.350 . S
C529 C532 1.463 . S
C529 C534 1.350 . S
C529 N537 1.427 . S
C530 H521 0.930 . S
C530 C528 1.378 . S
C530 C531 1.367 . S
C531 C530 1.367 . S
C531 C533 1.433 . S
C532 C528 1.350 . S
C532 C529 1.463 . S
C532 N536 1.427 . S
C533 H523 0.929 . S
C533 C531 1.433 . S
C533 N536 1.384 . S
C534 H525 0.929 . S
C534 C526 1.378 . S
C534 C529 1.350 . S
C535 H522 0.929 . S
C535 C527 1.433 . S
C535 N537 1.384 . S
N536 C532 1.427 . S
N536 C533 1.384 . S
N537 C529 1.427 . S
N537 C535 1.384 . S
H538 C544 0.930 . S
H539 C548 0.930 . S
H540 C553 0.929 . S
H541 C551 0.929 . S
H542 C546 0.929 . S
H543 C552 0.929 . S
C544 H538 0.930 . S
C544 C545 1.367 . S
C544 C552 1.378 . S
C545 C544 1.367 . S
C545 C553 1.433 . S
C546 H542 0.929 . S
C546 C548 1.378 . S
C546 C550 1.350 . S
C547 C550 1.463 . S
C547 C552 1.350 . S
C547 N555 1.427 . S
C548 H539 0.930 . S
C548 C546 1.378 . S
C548 C549 1.367 . S
C549 C548 1.367 . S
C549 C551 1.433 . S
C550 C546 1.350 . S
C550 C547 1.463 . S
C550 N554 1.427 . S
C551 H541 0.929 . S
C551 C549 1.433 . S
C551 N554 1.384 . S
C552 H543 0.929 . S
C552 C544 1.378 . S
C552 C547 1.350 . S
C553 H540 0.929 . S
C553 C545 1.433 . S
C553 N555 1.384 . S
N554 C550 1.427 . S
N554 C551 1.384 . S
N555 C547 1.427 . S
N555 C553 1.384 . S
H556 C562 0.930 . S
H557 C566 0.930 . S
H558 C571 0.929 . S
H559 C569 0.929 . S
H560 C564 0.929 . S
H561 C570 0.929 . S
C562 H556 0.930 . S
C562 C563 1.367 . S
C562 C570 1.378 . S
C563 C562 1.367 . S
C563 C571 1.433 . S
C564 H560 0.929 . S
C564 C566 1.378 . S
C564 C568 1.350 . S
C565 C568 1.463 . S
C565 C570 1.350 . S
C565 N573 1.427 . S
C566 H557 0.930 . S
C566 C564 1.378 . S
C566 C567 1.367 . S
C567 C566 1.367 . S
C567 C569 1.433 . S
C568 C564 1.350 . S
C568 C565 1.463 . S
C568 N572 1.427 . S
C569 H559 0.929 . S
C569 C567 1.433 . S
C569 N572 1.384 . S
C570 H561 0.929 . S
C570 C562 1.378 . S
C570 C565 1.350 . S
C571 H558 0.929 . S
C571 C563 1.433 . S
C571 N573 1.384 . S
N572 C568 1.427 . S
N572 C569 1.384 . S
N573 C565 1.427 . S
N573 C571 1.384 . S
H574 C580 0.930 . S
H575 C584 0.930 . S
H576 C589 0.929 . S
H577 C587 0.929 . S
H578 C582 0.929 . S
H579 C588 0.929 . S
C580 H574 0.930 . S
C580 C581 1.367 . S
C580 C588 1.378 . S
C581 C580 1.367 . S
C581 C589 1.433 . S
C582 H578 0.929 . S
C582 C584 1.378 . S
C582 C586 1.350 . S
C583 C586 1.463 . S
C583 C588 1.350 . S
C583 N591 1.427 . S
C584 H575 0.930 . S
C584 C582 1.378 . S
C584 C585 1.367 . S
C585 C584 1.367 . S
C585 C587 1.433 . S
C586 C582 1.350 . S
C586 C583 1.463 . S
C586 N590 1.427 . S
C587 H577 0.929 . S
C587 C585 1.433 . S
C587 N590 1.384 . S
C588 H579 0.929 . S
C588 C580 1.378 . S
C588 C583 1.350 . S
C589 H576 0.929 . S
C589 C581 1.433 . S
C589 N591 1.384 . S
N590 C586 1.427 . S
N590 C587 1.384 . S
N591 C583 1.427 . S
N591 C589 1.384 . S
C167 C7 1.512 . S
C171 C98 1.491 . S
C189 C76 1.487 . S
C185 C16 1.510 . S
C207 C102 1.490 . S
C203 C25 1.511 . S
C225 C80 1.485 . S
C221 C34 1.507 . S
C243 C142 1.487 . S
C239 C43 1.510 . S
C261 C120 1.492 . S
C257 C52 1.513 . S
C275 C61 1.508 . S
C279 C146 1.482 . S
C297 C124 1.490 . S
C293 C70 1.510 . S
C311 C5 1.481 . S
C315 C147 1.461 . S
C333 C125 1.460 . S
C329 C14 1.483 . S
C347 C22 1.475 . S
C351 C144 1.464 . S
C365 C32 1.475 . S
C369 C122 1.469 . S
C387 C103 1.463 . S
C383 C41 1.479 . S
C401 C50 1.483 . S
C405 C81 1.460 . S
C423 C100 1.465 . S
C419 C58 1.475 . S
C441 C78 1.459 . S
C437 C68 1.482 . S
C459 C121 1.446 . S
C455 C4 1.465 . S
C477 C143 1.444 . S
C473 C13 1.467 . S
C491 C23 1.466 . S
C495 C123 1.441 . S
C513 C145 1.439 . S
C509 C31 1.467 . S
C531 C77 1.442 . S
C527 C40 1.468 . S
C545 C49 1.462 . S
C549 C99 1.450 . S
C563 C59 1.466 . S
C567 C79 1.442 . S
C581 C67 1.460 . S
C585 C101 1.451 . S
