# Generated by pormake.
# Topology eea, (3,6)-cn, num edge types: 1
# Building blocks:
#     Node 0, Type 0, BuildingBlock: QEWDON_clean_linker_0, # of connection points: 3
#     Node 1, Type 0, BuildingBlock: QEWDON_clean_linker_0, # of connection points: 3
#     Node 2, Type 0, BuildingBlock: QEWDON_clean_linker_0, # of connection points: 3
#     Node 3, Type 0, BuildingBlock: QEWDON_clean_linker_0, # of connection points: 3
#     Node 4, Type 0, BuildingBlock: QEWDON_clean_linker_0, # of connection points: 3
#     Node 5, Type 0, BuildingBlock: QEWDON_clean_linker_0, # of connection points: 3
#     Node 6, Type 0, BuildingBlock: QEWDON_clean_linker_0, # of connection points: 3
#     Node 7, Type 0, BuildingBlock: QEWDON_clean_linker_0, # of connection points: 3
#     Node 8, Type 0, BuildingBlock: QEWDON_clean_linker_0, # of connection points: 3
#     Node 9, Type 0, BuildingBlock: QEWDON_clean_linker_0, # of connection points: 3
#     Node 10, Type 0, BuildingBlock: QEWDON_clean_linker_0, # of connection points: 3
#     Node 11, Type 0, BuildingBlock: QEWDON_clean_linker_0, # of connection points: 3
#     Node 12, Type 0, BuildingBlock: QEWDON_clean_linker_0, # of connection points: 3
#     Node 13, Type 0, BuildingBlock: QEWDON_clean_linker_0, # of connection points: 3
#     Node 14, Type 0, BuildingBlock: QEWDON_clean_linker_0, # of connection points: 3
#     Node 15, Type 0, BuildingBlock: QEWDON_clean_linker_0, # of connection points: 3
#     Node 16, Type 0, BuildingBlock: QEWDON_clean_linker_0, # of connection points: 3
#     Node 17, Type 0, BuildingBlock: QEWDON_clean_linker_0, # of connection points: 3
#     Node 18, Type 1, BuildingBlock: LEVNOQ01_clean_sbu_1, # of connection points: 6
#     Node 19, Type 1, BuildingBlock: LEVNOQ01_clean_sbu_1, # of connection points: 6
#     Node 20, Type 1, BuildingBlock: LEVNOQ01_clean_sbu_1, # of connection points: 6
#     Node 21, Type 1, BuildingBlock: LEVNOQ01_clean_sbu_1, # of connection points: 6
#     Node 22, Type 1, BuildingBlock: LEVNOQ01_clean_sbu_1, # of connection points: 6
#     Node 23, Type 1, BuildingBlock: LEVNOQ01_clean_sbu_1, # of connection points: 6
#     Node 24, Type 1, BuildingBlock: LEVNOQ01_clean_sbu_1, # of connection points: 6
#     Node 25, Type 1, BuildingBlock: LEVNOQ01_clean_sbu_1, # of connection points: 6
#     Node 26, Type 1, BuildingBlock: LEVNOQ01_clean_sbu_1, # of connection points: 6
#     Edge 27, Type (0, 1), BuildingBlock: UVAHIK_clean_linker_0, # of connection points: 2
#     Edge 28, Type (0, 1), BuildingBlock: UVAHIK_clean_linker_0, # of connection points: 2
#     Edge 29, Type (0, 1), BuildingBlock: UVAHIK_clean_linker_0, # of connection points: 2
#     Edge 30, Type (0, 1), BuildingBlock: UVAHIK_clean_linker_0, # of connection points: 2
#     Edge 31, Type (0, 1), BuildingBlock: UVAHIK_clean_linker_0, # of connection points: 2
#     Edge 32, Type (0, 1), BuildingBlock: UVAHIK_clean_linker_0, # of connection points: 2
#     Edge 33, Type (0, 1), BuildingBlock: UVAHIK_clean_linker_0, # of connection points: 2
#     Edge 34, Type (0, 1), BuildingBlock: UVAHIK_clean_linker_0, # of connection points: 2
#     Edge 35, Type (0, 1), BuildingBlock: UVAHIK_clean_linker_0, # of connection points: 2
#     Edge 36, Type (0, 1), BuildingBlock: UVAHIK_clean_linker_0, # of connection points: 2
#     Edge 37, Type (0, 1), BuildingBlock: UVAHIK_clean_linker_0, # of connection points: 2
#     Edge 38, Type (0, 1), BuildingBlock: UVAHIK_clean_linker_0, # of connection points: 2
#     Edge 39, Type (0, 1), BuildingBlock: UVAHIK_clean_linker_0, # of connection points: 2
#     Edge 40, Type (0, 1), BuildingBlock: UVAHIK_clean_linker_0, # of connection points: 2
#     Edge 41, Type (0, 1), BuildingBlock: UVAHIK_clean_linker_0, # of connection points: 2
#     Edge 42, Type (0, 1), BuildingBlock: UVAHIK_clean_linker_0, # of connection points: 2
#     Edge 43, Type (0, 1), BuildingBlock: UVAHIK_clean_linker_0, # of connection points: 2
#     Edge 44, Type (0, 1), BuildingBlock: UVAHIK_clean_linker_0, # of connection points: 2
#     Edge 45, Type (0, 1), BuildingBlock: UVAHIK_clean_linker_0, # of connection points: 2
#     Edge 46, Type (0, 1), BuildingBlock: UVAHIK_clean_linker_0, # of connection points: 2
#     Edge 47, Type (0, 1), BuildingBlock: UVAHIK_clean_linker_0, # of connection points: 2
#     Edge 48, Type (0, 1), BuildingBlock: UVAHIK_clean_linker_0, # of connection points: 2
#     Edge 49, Type (0, 1), BuildingBlock: UVAHIK_clean_linker_0, # of connection points: 2
#     Edge 50, Type (0, 1), BuildingBlock: UVAHIK_clean_linker_0, # of connection points: 2
#     Edge 51, Type (0, 1), BuildingBlock: UVAHIK_clean_linker_0, # of connection points: 2
#     Edge 52, Type (0, 1), BuildingBlock: UVAHIK_clean_linker_0, # of connection points: 2
#     Edge 53, Type (0, 1), BuildingBlock: UVAHIK_clean_linker_0, # of connection points: 2
#     Edge 54, Type (0, 1), BuildingBlock: UVAHIK_clean_linker_0, # of connection points: 2
#     Edge 55, Type (0, 1), BuildingBlock: UVAHIK_clean_linker_0, # of connection points: 2
#     Edge 56, Type (0, 1), BuildingBlock: UVAHIK_clean_linker_0, # of connection points: 2
#     Edge 57, Type (0, 1), BuildingBlock: UVAHIK_clean_linker_0, # of connection points: 2
#     Edge 58, Type (0, 1), BuildingBlock: UVAHIK_clean_linker_0, # of connection points: 2
#     Edge 59, Type (0, 1), BuildingBlock: UVAHIK_clean_linker_0, # of connection points: 2
#     Edge 60, Type (0, 1), BuildingBlock: UVAHIK_clean_linker_0, # of connection points: 2
#     Edge 61, Type (0, 1), BuildingBlock: UVAHIK_clean_linker_0, # of connection points: 2
#     Edge 62, Type (0, 1), BuildingBlock: UVAHIK_clean_linker_0, # of connection points: 2
#     Edge 63, Type (0, 1), BuildingBlock: UVAHIK_clean_linker_0, # of connection points: 2
#     Edge 64, Type (0, 1), BuildingBlock: UVAHIK_clean_linker_0, # of connection points: 2
#     Edge 65, Type (0, 1), BuildingBlock: UVAHIK_clean_linker_0, # of connection points: 2
#     Edge 66, Type (0, 1), BuildingBlock: UVAHIK_clean_linker_0, # of connection points: 2
#     Edge 67, Type (0, 1), BuildingBlock: UVAHIK_clean_linker_0, # of connection points: 2
#     Edge 68, Type (0, 1), BuildingBlock: UVAHIK_clean_linker_0, # of connection points: 2
#     Edge 69, Type (0, 1), BuildingBlock: UVAHIK_clean_linker_0, # of connection points: 2
#     Edge 70, Type (0, 1), BuildingBlock: UVAHIK_clean_linker_0, # of connection points: 2
#     Edge 71, Type (0, 1), BuildingBlock: UVAHIK_clean_linker_0, # of connection points: 2
#     Edge 72, Type (0, 1), BuildingBlock: UVAHIK_clean_linker_0, # of connection points: 2
#     Edge 73, Type (0, 1), BuildingBlock: UVAHIK_clean_linker_0, # of connection points: 2
#     Edge 74, Type (0, 1), BuildingBlock: UVAHIK_clean_linker_0, # of connection points: 2
#     Edge 75, Type (0, 1), BuildingBlock: UVAHIK_clean_linker_0, # of connection points: 2
#     Edge 76, Type (0, 1), BuildingBlock: UVAHIK_clean_linker_0, # of connection points: 2
#     Edge 77, Type (0, 1), BuildingBlock: UVAHIK_clean_linker_0, # of connection points: 2
#     Edge 78, Type (0, 1), BuildingBlock: UVAHIK_clean_linker_0, # of connection points: 2
#     Edge 79, Type (0, 1), BuildingBlock: UVAHIK_clean_linker_0, # of connection points: 2
#     Edge 80, Type (0, 1), BuildingBlock: UVAHIK_clean_linker_0, # of connection points: 2
# Relax obj value: 0.092
# Max RMSD: 0.151
# Mean RMSD: 0.126
data_MOF--net-eea--node1-LEVNOQ01_clean_sbu_1--node2-QEWDON_clean_linker_0--edge1-UVAHIK_clean_linker_0
_symmetry_space_group_name_H-M    P1
_symmetry_Int_Tables_number       1
_symmetry_cell_setting            triclinic
loop_
_symmetry_equiv_pos_as_xyz
'x, y, z'
_cell_length_a     78.719769
_cell_length_b     78.537756
_cell_length_c     53.339901
_cell_angle_alpha  90.294187
_cell_angle_beta   90.384452
_cell_angle_gamma 119.9447
loop_
_atom_site_label
_atom_site_type_symbol
_atom_site_fract_x
_atom_site_fract_y
_atom_site_fract_z
_atom_type_partial_charge
H0 H 0.22601 0.13509 0.37434 0.0
C1 C 0.22976 0.12537 0.36441 0.0
C2 C 0.24149 0.119 0.3765 0.0
C3 C 0.22121 0.11744 0.34075 0.0
H4 H 0.25182 0.09829 0.37556 0.0
C5 C 0.24451 0.10466 0.36509 0.0
C6 C 0.23546 0.09615 0.34223 0.0
C7 C 0.22508 0.10353 0.32933 0.0
C8 C 0.20557 0.12073 0.33001 0.0
H9 H 0.21809 0.09666 0.31165 0.0
C10 C 0.20658 0.13912 0.33195 0.0
C11 C 0.19122 0.14163 0.32251 0.0
C12 C 0.18883 0.10489 0.31873 0.0
H13 H 0.187 0.0903 0.31786 0.0
C14 C 0.1738 0.10743 0.30905 0.0
H15 H 0.21927 0.15145 0.34063 0.0
C16 C 0.17494 0.12562 0.3109 0.0
H17 H 0.16272 0.12699 0.30392 0.0
H18 H 0.16103 0.09511 0.30053 0.0
H19 H 0.86047 0.0839 0.36189 0.0
C20 C 0.87193 0.097 0.3532 0.0
C21 C 0.87816 0.11541 0.36463 0.0
C22 C 0.88094 0.09544 0.33124 0.0
H23 H 0.89973 0.14629 0.36399 0.0
C24 C 0.8939 0.1323 0.35427 0.0
C25 C 0.90319 0.13098 0.33262 0.0
C26 C 0.896 0.11271 0.32064 0.0
C27 C 0.87602 0.07587 0.32051 0.0
H28 H 0.90277 0.11197 0.30337 0.0
C29 C 0.85697 0.05946 0.32221 0.0
C30 C 0.85286 0.04094 0.31304 0.0
C31 C 0.8908 0.07331 0.30933 0.0
H32 H 0.90581 0.08521 0.30852 0.0
C33 C 0.88662 0.05513 0.29961 0.0
H34 H 0.8453 0.06098 0.33059 0.0
C35 C 0.86782 0.03903 0.30145 0.0
H36 H 0.86519 0.0249 0.2946 0.0
H37 H 0.89813 0.05339 0.29114 0.0
H38 H 0.90809 0.7705 0.37633 0.0
C39 C 0.89548 0.76871 0.36578 0.0
C40 C 0.87645 0.75624 0.37481 0.0
C41 C 0.89814 0.77958 0.34377 0.0
H42 H 0.84571 0.7464 0.36982 0.0
C43 C 0.86022 0.75491 0.36189 0.0
C44 C 0.86273 0.76603 0.34039 0.0
C45 C 0.88161 0.77767 0.33095 0.0
C46 C 0.91793 0.79449 0.33509 0.0
H47 H 0.88349 0.78601 0.31404 0.0
C48 C 0.93334 0.79031 0.33316 0.0
C49 C 0.95139 0.80427 0.3228 0.0
C50 C 0.92117 0.81305 0.32764 0.0
H51 H 0.9098 0.8169 0.3295 0.0
C52 C 0.93905 0.82688 0.31762 0.0
H53 H 0.93113 0.77613 0.33888 0.0
C54 C 0.95402 0.82249 0.315 0.0
H55 H 0.96787 0.83354 0.30731 0.0
H56 H 0.9413 0.84105 0.31185 0.0
H57 H 0.13953 0.22439 0.64427 0.0
C58 C 0.12823 0.22682 0.65204 0.0
C59 C 0.1226 0.23878 0.639 0.0
C60 C 0.11866 0.21736 0.67434 0.0
H61 H 0.10156 0.24872 0.63694 0.0
C62 C 0.10697 0.24078 0.6479 0.0
C63 C 0.09708 0.23116 0.66959 0.0
C64 C 0.10344 0.22025 0.6833 0.0
C65 C 0.12301 0.20302 0.68702 0.0
H66 H 0.0956 0.213 0.70014 0.0
C67 C 0.14211 0.20562 0.68754 0.0
C68 C 0.14581 0.19176 0.69936 0.0
C69 C 0.10773 0.18612 0.69823 0.0
H70 H 0.09271 0.18302 0.69737 0.0
C71 C 0.11144 0.17261 0.71028 0.0
H72 H 0.15413 0.21843 0.67904 0.0
C73 C 0.13032 0.17539 0.71092 0.0
H74 H 0.13268 0.16435 0.71978 0.0
H75 H 0.09953 0.15972 0.71878 0.0
H76 H 0.76804 0.90846 0.64588 0.0
C77 C 0.76691 0.89485 0.65203 0.0
C78 C 0.75563 0.87789 0.63735 0.0
C79 C 0.77692 0.89421 0.67383 0.0
H80 H 0.74738 0.84758 0.63153 0.0
C81 C 0.75523 0.8604 0.64358 0.0
C82 C 0.76592 0.85963 0.66417 0.0
C83 C 0.77564 0.87615 0.67997 0.0
C84 C 0.78974 0.91243 0.68915 0.0
H85 H 0.78302 0.87501 0.69643 0.0
C86 C 0.78731 0.92905 0.68807 0.0
C87 C 0.80037 0.94662 0.70066 0.0
C88 C 0.80529 0.91382 0.70418 0.0
H89 H 0.80875 0.90216 0.70499 0.0
C90 C 0.8174 0.9308 0.71801 0.0
H91 H 0.77555 0.92875 0.67713 0.0
C92 C 0.81506 0.94717 0.71621 0.0
H93 H 0.8254 0.96057 0.72596 0.0
H94 H 0.82919 0.93154 0.72941 0.0
H95 H 0.08643 0.85535 0.62894 0.0
C96 C 0.0997 0.86539 0.63915 0.0
C97 C 0.11808 0.87226 0.62782 0.0
C98 C 0.09851 0.87329 0.66246 0.0
H99 H 0.14895 0.8934 0.63015 0.0
C100 C 0.13508 0.88678 0.63993 0.0
C101 C 0.13388 0.8951 0.66254 0.0
C102 C 0.11583 0.88756 0.67437 0.0
C103 C 0.07951 0.86984 0.67248 0.0
H104 H 0.11507 0.89449 0.69165 0.0
C105 C 0.06332 0.85081 0.67508 0.0
C106 C 0.04602 0.84817 0.68635 0.0
C107 C 0.07782 0.88613 0.68019 0.0
H108 H 0.08981 0.901 0.67772 0.0
C109 C 0.06073 0.88352 0.69118 0.0
H110 H 0.06432 0.83815 0.66902 0.0
C111 C 0.04497 0.86468 0.69445 0.0
H112 H 0.03171 0.86301 0.70278 0.0
H113 H 0.05968 0.89616 0.69713 0.0
H114 H 0.8883 0.4646 0.70539 0.0
C115 C 0.89331 0.45648 0.69413 0.0
C116 C 0.90557 0.45034 0.70528 0.0
C117 C 0.88569 0.45002 0.66966 0.0
H118 H 0.91804 0.43154 0.70143 0.0
C119 C 0.91031 0.4379 0.69192 0.0
C120 C 0.90204 0.43063 0.66834 0.0
C121 C 0.89122 0.43799 0.65648 0.0
C122 C 0.86927 0.45248 0.65968 0.0
H123 H 0.88507 0.43219 0.63809 0.0
C124 C 0.86798 0.46935 0.66528 0.0
C125 C 0.85154 0.47064 0.65747 0.0
C126 C 0.85388 0.4371 0.64575 0.0
H127 H 0.85367 0.42346 0.64192 0.0
C128 C 0.838 0.43871 0.63719 0.0
H129 H 0.87945 0.48124 0.67622 0.0
C130 C 0.83676 0.45533 0.64305 0.0
H131 H 0.82415 0.45615 0.63646 0.0
H132 H 0.82639 0.42683 0.62642 0.0
H133 H 0.52885 0.41725 0.69496 0.0
C134 C 0.54041 0.43026 0.68625 0.0
C135 C 0.54706 0.44862 0.69806 0.0
C136 C 0.54905 0.42877 0.66383 0.0
H137 H 0.5691 0.4794 0.69798 0.0
C138 C 0.563 0.46546 0.68801 0.0
C139 C 0.57218 0.46406 0.66638 0.0
C140 C 0.56453 0.44604 0.65377 0.0
C141 C 0.54299 0.40932 0.65159 0.0
H142 H 0.57134 0.4456 0.6364 0.0
C143 C 0.52379 0.39327 0.65394 0.0
C144 C 0.51847 0.37502 0.64269 0.0
C145 C 0.55667 0.40653 0.63775 0.0
H146 H 0.57184 0.41794 0.63638 0.0
C147 C 0.55116 0.38867 0.62582 0.0
H148 H 0.51288 0.39478 0.66443 0.0
C149 C 0.53218 0.373 0.6282 0.0
H150 H 0.52847 0.35902 0.61958 0.0
H151 H 0.56182 0.38683 0.61521 0.0
H152 H 0.57456 0.10416 0.71128 0.0
C153 C 0.56206 0.10244 0.70053 0.0
C154 C 0.54292 0.09009 0.70935 0.0
C155 C 0.56499 0.11332 0.67848 0.0
H156 H 0.51228 0.08049 0.70379 0.0
C157 C 0.52687 0.08888 0.69607 0.0
C158 C 0.52964 0.09994 0.67442 0.0
C159 C 0.54864 0.1115 0.66529 0.0
C160 C 0.58488 0.1283 0.67021 0.0
H161 H 0.5508 0.11987 0.64833 0.0
C162 C 0.60016 0.12399 0.66776 0.0
C163 C 0.61827 0.13807 0.65765 0.0
C164 C 0.58828 0.14707 0.66355 0.0
H165 H 0.57695 0.15095 0.66575 0.0
C166 C 0.60623 0.16103 0.65386 0.0
H167 H 0.59779 0.10963 0.67285 0.0
C168 C 0.62109 0.15654 0.65071 0.0
H169 H 0.63498 0.16768 0.64324 0.0
H170 H 0.60862 0.17537 0.64871 0.0
H171 H 0.80585 0.55906 0.97723 0.0
C172 C 0.79484 0.56161 0.98575 0.0
C173 C 0.78923 0.57392 0.97365 0.0
C174 C 0.78527 0.55159 0.00774 0.0
H175 H 0.76849 0.58421 0.97282 0.0
C176 C 0.77384 0.57598 0.98326 0.0
C177 C 0.76391 0.5658 0.00468 0.0
C178 C 0.7701 0.55428 0.01736 0.0
C179 C 0.78934 0.5366 0.01904 0.0
H180 H 0.76214 0.5464 0.03384 0.0
C181 C 0.80844 0.53922 0.01979 0.0
C182 C 0.81186 0.52476 0.03035 0.0
C183 C 0.77376 0.5191 0.02862 0.0
H184 H 0.75877 0.51609 0.02752 0.0
C185 C 0.77715 0.5049 0.03926 0.0
H186 H 0.82065 0.55252 0.01249 0.0
C187 C 0.79603 0.50769 0.04021 0.0
H188 H 0.79817 0.49618 0.04803 0.0
H189 H 0.76501 0.49152 0.04648 0.0
H190 H 0.43289 0.24158 0.97955 0.0
C191 C 0.43221 0.22809 0.98537 0.0
C192 C 0.42082 0.21101 0.97093 0.0
C193 C 0.4432 0.22782 0.00635 0.0
H194 H 0.41382 0.18107 0.96438 0.0
C195 C 0.42129 0.19385 0.97659 0.0
C196 C 0.43254 0.19345 0.99669 0.0
C197 C 0.44232 0.20993 0.0124 0.0
C198 C 0.4571 0.24639 0.02021 0.0
H199 H 0.45032 0.20896 0.02837 0.0
C200 C 0.45451 0.26294 0.02016 0.0
C201 C 0.4688 0.28098 0.03069 0.0
C202 C 0.47404 0.24824 0.03216 0.0
H203 H 0.47745 0.23652 0.03188 0.0
C204 C 0.48758 0.26572 0.04395 0.0
H205 H 0.44164 0.26211 0.01155 0.0
C206 C 0.48512 0.28204 0.04308 0.0
H207 H 0.49654 0.29576 0.05106 0.0
H208 H 0.5005 0.26687 0.05291 0.0
H209 H 0.75562 0.19102 0.95895 0.0
C210 C 0.7675 0.19985 0.97194 0.0
C211 C 0.78707 0.2069 0.96474 0.0
C212 C 0.76352 0.2064 0.99462 0.0
H213 H 0.81742 0.22552 0.9751 0.0
C214 C 0.80236 0.21942 0.9811 0.0
C215 C 0.79853 0.22706 0.00263 0.0
C216 C 0.77912 0.21973 0.00998 0.0
C217 C 0.74377 0.20324 0.99997 0.0
H218 H 0.77616 0.22604 0.02637 0.0
C219 C 0.72787 0.18443 0.00471 0.0
C220 C 0.70986 0.18231 0.01254 0.0
C221 C 0.74129 0.21972 0.00207 0.0
H222 H 0.75334 0.23433 0.99831 0.0
C223 C 0.72341 0.2176 0.0094 0.0
H224 H 0.7297 0.17167 0.00323 0.0
C225 C 0.70781 0.19904 0.01481 0.0
H226 H 0.694 0.19772 0.02043 0.0
H227 H 0.72167 0.23039 0.01105 0.0
H228 H 0.55672 0.80203 0.04343 0.0
C229 C 0.56067 0.79217 0.03427 0.0
C230 C 0.57268 0.78656 0.04713 0.0
C231 C 0.55259 0.78379 0.01057 0.0
H232 H 0.58437 0.76701 0.04756 0.0
C233 C 0.57627 0.77232 0.0367 0.0
C234 C 0.56733 0.76295 0.01413 0.0
C235 C 0.55669 0.76965 1.00034 0.0
C236 C 0.53783 0.78763 0.99807 0.0
H237 H 0.55021 0.76255 0.98258 0.0
C238 C 0.53903 0.80611 1.00006 0.0
C239 C 0.52445 0.80922 0.98927 0.0
C240 C 0.52178 0.77238 0.98493 0.0
H241 H 0.51973 0.75771 0.9838 0.0
C242 C 0.50765 0.77558 0.97364 0.0
H243 H 0.55125 0.81807 0.00997 0.0
C244 C 0.50889 0.79382 0.97581 0.0
H245 H 0.49726 0.79563 0.96766 0.0
H246 H 0.49539 0.7637 0.96369 0.0
H247 H 0.19255 0.75038 0.02769 0.0
C248 C 0.20427 0.76333 0.01904 0.0
C249 C 0.21033 0.78188 0.02992 0.0
C250 C 0.21378 0.7615 0.99772 0.0
H251 H 0.23212 0.81274 0.0292 0.0
C252 C 0.22644 0.79861 0.01985 0.0
C253 C 0.23633 0.79693 0.99915 0.0
C254 C 0.22935 0.77861 0.98751 0.0
C255 C 0.20872 0.74187 0.98712 0.0
H256 H 0.23673 0.77776 0.97089 0.0
C257 C 0.18948 0.72574 0.98822 0.0
C258 C 0.18514 0.70719 0.9789 0.0
C259 C 0.22346 0.73899 0.97638 0.0
H260 H 0.23861 0.75063 0.97609 0.0
C261 C 0.21903 0.72082 0.96639 0.0
H262 H 0.17785 0.72747 0.9963 0.0
C263 C 0.20003 0.705 0.96763 0.0
H264 H 0.19719 0.69082 0.96066 0.0
H265 H 0.2305 0.71885 0.95822 0.0
H266 H 0.23956 0.43753 0.04439 0.0
C267 C 0.22711 0.43535 0.03312 0.0
C268 C 0.20792 0.42295 0.04176 0.0
C269 C 0.23013 0.44561 0.01047 0.0
H270 H 0.1773 0.41289 0.03545 0.0
C271 C 0.19191 0.42119 0.02779 0.0
C272 C 0.19469 0.43157 0.00549 0.0
C273 C 0.21378 0.44306 0.99651 0.0
C274 C 0.25008 0.46057 0.00217 0.0
H275 H 0.21597 0.4508 0.979 0.0
C276 C 0.26584 0.45684 0.00203 0.0
C277 C 0.28405 0.47079 0.99204 0.0
C278 C 0.25316 0.47878 0.99335 0.0
H279 H 0.24153 0.48235 0.99384 0.0
C280 C 0.27121 0.4926 0.9837 0.0
H281 H 0.26382 0.44298 0.00886 0.0
C282 C 0.28652 0.48858 0.98279 0.0
H283 H 0.30047 0.49953 0.97522 0.0
H284 H 0.27332 0.50647 0.97683 0.0
H285 H 0.47215 0.89222 0.30813 0.0
C286 C 0.46023 0.89346 0.31625 0.0
C287 C 0.45393 0.90547 0.30465 0.0
C288 C 0.45066 0.88248 0.33766 0.0
H289 H 0.43191 0.91425 0.3047 0.0
C290 C 0.43774 0.90617 0.31446 0.0
C291 C 0.42794 0.89513 0.33549 0.0
C292 C 0.43497 0.88406 0.34751 0.0
C293 C 0.45568 0.86812 0.3488 0.0
H294 H 0.42762 0.87606 0.36423 0.0
C295 C 0.47516 0.87183 0.34987 0.0
C296 C 0.47946 0.85816 0.36101 0.0
C297 C 0.44064 0.85026 0.35843 0.0
H298 H 0.4254 0.8464 0.35704 0.0
C299 C 0.44493 0.83689 0.3697 0.0
H300 H 0.48699 0.88536 0.34246 0.0
C301 C 0.4642 0.84082 0.37113 0.0
H302 H 0.4671 0.82996 0.37946 0.0
H303 H 0.43322 0.82328 0.37707 0.0
H304 H 0.10126 0.57633 0.31369 0.0
C305 C 0.09982 0.56262 0.31998 0.0
C306 C 0.08878 0.54583 0.30499 0.0
C307 C 0.10934 0.56164 0.34214 0.0
H308 H 0.08101 0.51573 0.29835 0.0
C309 C 0.08826 0.52829 0.31098 0.0
C310 C 0.0983 0.52721 0.33201 0.0
C311 C 0.10765 0.54338 0.34833 0.0
C312 C 0.12234 0.57979 0.35746 0.0
H313 H 0.11456 0.54175 0.365 0.0
C314 C 0.12046 0.59674 0.35597 0.0
C315 C 0.13395 0.61434 0.36817 0.0
C316 C 0.13766 0.58084 0.37262 0.0
H317 H 0.14061 0.56884 0.37379 0.0
C318 C 0.15024 0.5979 0.38602 0.0
H319 H 0.10881 0.59663 0.34502 0.0
C320 C 0.14852 0.61461 0.38373 0.0
H321 H 0.15921 0.62801 0.39317 0.0
H322 H 0.16189 0.59841 0.39748 0.0
H323 H 0.42326 0.52505 0.29777 0.0
C324 C 0.4355 0.53448 0.30997 0.0
C325 C 0.45485 0.54213 0.30144 0.0
C326 C 0.43205 0.54107 0.33299 0.0
H327 H 0.48541 0.5621 0.30973 0.0
C328 C 0.47056 0.55548 0.31672 0.0
C329 C 0.46717 0.56299 0.33869 0.0
C330 C 0.44803 0.55487 0.34748 0.0
C331 C 0.4122 0.53707 0.33986 0.0
H332 H 0.44547 0.56098 0.36437 0.0
C333 C 0.39632 0.51781 0.34191 0.0
C334 C 0.37814 0.51467 0.35068 0.0
C335 C 0.40942 0.55305 0.3455 0.0
H336 H 0.42131 0.56804 0.34356 0.0
C337 C 0.3914 0.54994 0.35386 0.0
H338 H 0.39825 0.50539 0.33752 0.0
C339 C 0.37588 0.53088 0.35666 0.0
H340 H 0.36194 0.52879 0.36309 0.0
H341 H 0.38949 0.56234 0.35825 0.0
O342 O 0.46212 0.98592 0.9426 0.0
Mg343 Mg 0.48452 0.99081 0.96857 0.0
O344 O 0.47047 0.01156 0.96577 0.0
Mg345 Mg 0.46944 -0.00291 0.00586 0.0
O346 O 0.47781 0.97215 0.99749 0.0
O347 O 0.49198 0.97035 0.96177 0.0
O348 O 0.46891 0.98607 0.04691 0.0
O349 O 0.43726 0.97273 0.9975 0.0
Mg350 Mg 0.4382 0.00118 0.04062 0.0
O351 O 0.46066 0.01943 0.01794 0.0
O352 O 0.45006 -0.00697 0.07067 0.0
O353 O 0.4162 0.9785 0.01807 0.0
O354 O 0.44291 0.02943 0.03898 0.0
C355 C 0.51453 0.02707 0.9957 0.0
C356 C 0.4647 0.003 0.94453 0.0
C357 C 0.48501 0.96364 0.9836 0.0
C358 C 0.46186 0.98657 0.06827 0.0
C359 C 0.41974 0.96843 0.00247 0.0
C360 C 0.45682 0.03317 0.02349 0.0
O361 O 0.51048 0.01876 0.97427 0.0
O362 O 0.50158 0.02067 0.01273 0.0
O363 O 0.00624 0.46834 0.94388 0.0
Mg364 Mg 0.00306 0.48788 0.96827 0.0
O365 O 0.98027 0.45348 0.96604 0.0
Mg366 Mg -0.00368 0.46682 0.00554 0.0
O367 O 0.02228 0.49949 0.9971 0.0
O368 O 0.02467 0.51499 0.96073 0.0
O369 O 0.01122 0.48179 0.04532 0.0
O370 O 0.01903 0.45705 0.99654 0.0
Mg371 Mg -0.0069 0.44543 0.04093 0.0
O372 O 0.97079 0.43399 0.01505 0.0
O373 O 0.98946 0.4606 0.07046 0.0
O374 O 0.02079 0.44767 0.03453 0.0
O375 O 0.97413 0.41719 0.04702 0.0
C376 C 0.96823 0.48446 0.99542 0.0
C377 C 0.98841 0.4556 0.9449 0.0
C378 C 0.03134 0.51477 0.98279 0.0
C379 C 0.00354 0.47761 0.06702 0.0
C380 C 0.02732 0.45152 0.01246 0.0
C381 C 0.96425 0.41801 0.0282 0.0
O382 O 0.97612 0.48806 0.97395 0.0
O383 O 0.97427 0.47741 0.01247 0.0
O384 O 0.5318 0.52133 0.06206 0.0
Mg385 Mg 0.51076 0.50109 0.03621 0.0
O386 O 0.5214 0.53585 0.03751 0.0
Mg387 Mg 0.52511 0.52288 0.99863 0.0
O388 O 0.51969 0.49067 0.00764 0.0
O389 O 0.50734 0.47469 0.04385 0.0
O390 O 0.52569 0.50758 0.95899 0.0
O391 O 0.55764 0.53348 0.00925 0.0
Mg392 Mg 0.54145 0.54239 0.96475 0.0
O393 O 0.53169 0.55577 0.98882 0.0
O394 O 0.52224 0.52784 0.93504 0.0
O395 O 0.56662 0.53911 0.97024 0.0
O396 O 0.55242 0.57075 0.95707 0.0
C397 C 0.47892 0.50303 0.00688 0.0
C398 C 0.52721 0.53438 0.05926 0.0
C399 C 0.51429 0.47541 0.02183 0.0
C400 C 0.52116 0.51146 0.93759 0.0
C401 C 0.57047 0.53712 0.99269 0.0
C402 C 0.54174 0.57119 0.97492 0.0
O403 O 0.48288 0.49851 0.0281 0.0
O404 O 0.49234 0.51171 0.99071 0.0
O405 O 0.12826 0.31942 0.27568 0.0
Mg406 Mg 0.15079 0.32309 0.30058 0.0
O407 O 0.13752 0.34483 0.29971 0.0
Mg408 Mg 0.1368 0.33 0.33944 0.0
O409 O 0.14389 0.30445 0.32961 0.0
O410 O 0.15685 0.30164 0.29334 0.0
O411 O 0.1371 0.31816 0.37999 0.0
O412 O 0.1041 0.30647 0.33194 0.0
Mg413 Mg 0.10841 0.33458 0.37654 0.0
O414 O 0.1296 0.35364 0.35276 0.0
O415 O 0.12056 0.32647 0.40601 0.0
O416 O 0.08459 0.31231 0.3558 0.0
O417 O 0.11229 0.36226 0.37753 0.0
C418 C 0.18196 0.35885 0.32764 0.0
C419 C 0.1314 0.33666 0.2783 0.0
C420 C 0.15025 0.29532 0.31543 0.0
C421 C 0.13134 0.31903 0.40208 0.0
C422 C 0.08697 0.30241 0.33874 0.0
C423 C 0.12537 0.36676 0.3605 0.0
O424 O 0.17733 0.3506 0.30617 0.0
O425 O 0.16938 0.3527 0.34511 0.0
O426 O 0.67256 0.80081 0.2772 0.0
Mg427 Mg 0.66891 0.81998 0.30175 0.0
O428 O 0.64803 0.78508 0.30187 0.0
Mg429 Mg 0.66353 0.80009 0.34089 0.0
O430 O 0.6883 0.83283 0.33039 0.0
O431 O 0.68947 0.84749 0.29372 0.0
O432 O 0.67577 0.81312 0.38107 0.0
O433 O 0.68768 0.79166 0.33306 0.0
Mg434 Mg 0.66148 0.76877 0.37688 0.0
O435 O 0.64036 0.76898 0.35437 0.0
O436 O 0.67009 0.78886 0.40675 0.0
O437 O 0.68279 0.76636 0.35621 0.0
O438 O 0.63501 0.74424 0.38002 0.0
C439 C 0.63362 0.81541 0.32883 0.0
C440 C 0.65551 0.7867 0.28032 0.0
C441 C 0.6966 0.84799 0.31572 0.0
C442 C 0.67612 0.80687 0.40302 0.0
C443 C 0.69217 0.77873 0.33933 0.0
C444 C 0.62868 0.75166 0.36336 0.0
O445 O 0.64128 0.81861 0.30724 0.0
O446 O 0.64043 0.80952 0.34641 0.0
O447 O 0.19938 0.8535 0.39421 0.0
Mg448 Mg 0.17732 0.83639 0.36753 0.0
O449 O 0.19171 0.87119 0.37087 0.0
Mg450 Mg 0.1922 0.85813 0.33026 0.0
O451 O 0.18415 0.82497 0.33767 0.0
O452 O 0.16832 0.80785 0.37197 0.0
O453 O 0.19165 0.84686 0.28904 0.0
O454 O 0.22482 0.86619 0.33836 0.0
Mg455 Mg 0.22133 0.89073 0.29726 0.0
O456 O 0.19949 0.88972 0.319 0.0
O457 O 0.21101 0.87237 0.26574 0.0
O458 O 0.24513 0.8931 0.31798 0.0
O459 O 0.21942 0.91527 0.29482 0.0
C460 C 0.14712 0.84283 0.34203 0.0
C461 C 0.19701 0.86814 0.39223 0.0
C462 C 0.17578 0.8087 0.35028 0.0
C463 C 0.19882 0.85425 0.26778 0.0
C464 C 0.24221 0.87977 0.33341 0.0
C465 C 0.2053 0.90731 0.31066 0.0
O466 O 0.15171 0.83901 0.36327 0.0
O467 O 0.15963 0.84897 0.32446 0.0
O468 O 0.79961 0.65194 0.60935 0.0
Mg469 Mg 0.82133 0.65901 0.63716 0.0
O470 O 0.80543 0.67753 0.63145 0.0
Mg471 Mg 0.80414 0.66362 0.67218 0.0
O472 O 0.81487 0.64018 0.66578 0.0
O473 O 0.83355 0.64208 0.63294 0.0
O474 O 0.80217 0.65235 0.71321 0.0
O475 O 0.77276 0.63776 0.66091 0.0
Mg476 Mg 0.76938 0.66393 0.7005 0.0
O477 O 0.79419 0.68532 0.68394 0.0
O478 O 0.7765 0.65168 0.73127 0.0
O479 O 0.74996 0.64446 0.67339 0.0
O480 O 0.77275 0.69146 0.70329 0.0
C481 C 0.84843 0.69627 0.66416 0.0
C482 C 0.80073 0.66847 0.61039 0.0
C483 C 0.82525 0.63413 0.65377 0.0
C484 C 0.79089 0.64864 0.73197 0.0
C485 C 0.75496 0.63392 0.66097 0.0
C486 C 0.7886 0.69763 0.69057 0.0
O487 O 0.84491 0.68837 0.64254 0.0
O488 O 0.83561 0.68846 0.6812 0.0
O489 O 0.3411 0.1383 0.61042 0.0
Mg490 Mg 0.33605 0.1552 0.63704 0.0
O491 O 0.31641 0.11993 0.63397 0.0
Mg492 Mg 0.3301 0.13295 0.67447 0.0
O493 O 0.35454 0.16622 0.66696 0.0
O494 O 0.3554 0.18385 0.63325 0.0
O495 O 0.34107 0.1443 0.71544 0.0
O496 O 0.35477 0.12518 0.66647 0.0
Mg497 Mg 0.32749 0.10058 0.70881 0.0
O498 O 0.3068 0.10127 0.68588 0.0
O499 O 0.3353 0.11945 0.73997 0.0
O500 O 0.34941 0.09915 0.68837 0.0
O501 O 0.30111 0.07577 0.71026 0.0
C502 C 0.2996 0.1479 0.66318 0.0
C503 C 0.3245 0.12324 0.61256 0.0
C504 C 0.36227 0.18268 0.65476 0.0
C505 C 0.34119 0.13752 0.7371 0.0
C506 C 0.35914 0.11205 0.67219 0.0
C507 C 0.29508 0.08361 0.69384 0.0
O508 O 0.30771 0.15212 0.64189 0.0
O509 O 0.30635 0.14163 0.68038 0.0
O510 O 0.86652 0.18512 0.7244 0.0
Mg511 Mg 0.84335 0.16808 0.69904 0.0
O512 O 0.85761 0.2028 0.70353 0.0
Mg513 Mg 0.85863 0.19072 0.66247 0.0
O514 O 0.8499 0.15719 0.66863 0.0
O515 O 0.83457 0.13957 0.70288 0.0
O516 O 0.85812 0.17987 0.6212 0.0
O517 O 0.89078 0.19775 0.67079 0.0
Mg518 Mg 0.88802 0.22262 0.62952 0.0
O519 O 0.86717 0.22294 0.65232 0.0
O520 O 0.87693 0.20503 0.59723 0.0
O521 O 0.91172 0.2236 0.64911 0.0
O522 O 0.88789 0.24809 0.62807 0.0
C523 C 0.81358 0.1756 0.67393 0.0
C524 C 0.86315 0.19916 0.7243 0.0
C525 C 0.84183 0.14078 0.68094 0.0
C526 C 0.86481 0.18694 0.59967 0.0
C527 C 0.90829 0.21054 0.66519 0.0
C528 C 0.87393 0.24076 0.64419 0.0
O529 O 0.81796 0.17114 0.69489 0.0
O530 O 0.82624 0.18223 0.65651 0.0
C531 C 0.27179 0.81057 0.99066 0.0
C532 C 0.25561 0.8135 0.992 0.0
C533 C 0.29044 0.82622 0.98579 0.0
C534 C 0.31722 0.87656 0.9611 0.0
H535 H 0.3583 0.88265 0.00713 0.0
C536 C 0.38519 0.95005 0.9871 0.0
C537 C 0.40308 0.95065 0.99144 0.0
C538 C 0.36846 0.93241 0.98051 0.0
C539 C 0.34713 0.88093 0.99373 0.0
H540 H 0.24607 0.83492 0.98891 0.0
H541 H 0.27887 0.86251 0.98016 0.0
H542 H 0.32602 0.85334 0.00907 0.0
H543 H 0.41789 0.93365 0.991 0.0
H544 H 0.38836 0.90253 0.9801 0.0
H545 H 0.33823 0.90463 0.94649 0.0
C546 C 0.27703 0.84801 0.98273 0.0
C547 C 0.32862 0.86418 0.9949 0.0
C548 C 0.25834 0.83233 0.9879 0.0
C549 C 0.40424 0.93355 0.9877 0.0
C550 C 0.38737 0.91577 0.98159 0.0
C551 C 0.33576 0.89336 0.95996 0.0
C552 C 0.2933 0.84514 0.98201 0.0
C553 C 0.31337 0.86202 0.97896 0.0
C554 C 0.36923 0.91497 0.97859 0.0
C555 C 0.35075 0.8959 0.97666 0.0
H556 H 0.27011 0.79622 0.99413 0.0
H557 H 0.30267 0.82356 0.98526 0.0
H558 H 0.3058 0.8751 0.94833 0.0
H559 H 0.38398 0.96309 0.98969 0.0
H560 H 0.35466 0.93222 0.97848 0.0
C561 C 0.15899 0.41673 0.99357 0.0
C562 C 0.17813 0.433 0.99413 0.0
C563 C 0.14297 0.41919 0.98789 0.0
C564 C 0.13008 0.4572 0.99649 0.0
H565 H 0.08104 0.42022 0.96379 0.0
C566 C 0.05673 0.44923 0.02469 0.0
C567 C 0.04462 0.44985 0.00568 0.0
C568 C 0.07327 0.44798 0.0187 0.0
C569 C 0.09475 0.43078 0.9727 0.0
H570 H 0.19546 0.46434 0.98725 0.0
H571 H 0.16767 0.46845 0.97681 0.0
H572 H 0.10991 0.41625 0.95911 0.0
H573 H 0.04015 0.44927 0.96544 0.0
H574 H 0.06912 0.44662 0.95497 0.0
H575 H 0.11485 0.47127 0.01087 0.0
C576 C 0.16502 0.45386 0.98113 0.0
C577 C 0.11118 0.42844 0.97017 0.0
C578 C 0.18099 0.45143 0.98686 0.0
C579 C 0.04928 0.44891 0.98047 0.0
C580 C 0.06574 0.44731 0.97448 0.0
C581 C 0.11368 0.45937 0.99923 0.0
C582 C 0.1458 0.43796 0.98266 0.0
C583 C 0.12894 0.44147 0.9824 0.0
C584 C 0.07797 0.44705 0.99359 0.0
C585 C 0.09577 0.44597 0.98782 0.0
H586 H 0.15632 0.40228 0.99872 0.0
H587 H 0.12832 0.40665 0.98924 0.0
H588 H 0.14344 0.46734 0.00644 0.0
H589 H 0.05357 0.44995 0.04428 0.0
H590 H 0.08237 0.4476 0.03378 0.0
C591 C 0.56737 0.73805 0.9842 0.0
C592 C 0.5649 0.7434 0.00848 0.0
C593 C 0.56322 0.71882 0.97915 0.0
C594 C 0.53503 0.66821 0.00313 0.0
H595 H 0.57305 0.65988 0.96754 0.0
C596 C 0.53552 0.59426 1.00116 0.0
C597 C 0.54064 0.58927 0.97823 0.0
C598 C 0.53638 0.61244 0.00402 0.0
C599 C 0.56215 0.66194 0.97723 0.0
H600 H 0.55558 0.73281 0.04623 0.0
H601 H 0.54869 0.69959 0.03752 0.0
H602 H 0.5787 0.69313 0.97288 0.0
H603 H 0.54917 0.59859 0.93986 0.0
H604 H 0.55035 0.62981 0.94477 0.0
H605 H 0.51858 0.63695 0.0077 0.0
C606 C 0.55381 0.71011 0.02241 0.0
C607 C 0.56539 0.68098 0.98021 0.0
C608 C 0.5581 0.72924 0.02748 0.0
C609 C 0.54558 0.6022 0.95796 0.0
C610 C 0.5463 0.62014 0.96075 0.0
C611 C 0.53176 0.64912 1.00011 0.0
C612 C 0.55624 0.70466 0.99822 0.0
C613 C 0.55196 0.68433 0.99337 0.0
C614 C 0.54226 0.62573 0.98395 0.0
C615 C 0.54535 0.64582 0.9872 0.0
H616 H 0.57238 0.74867 0.96921 0.0
H617 H 0.56514 0.71494 0.96029 0.0
H618 H 0.52433 0.67039 0.01314 0.0
H619 H 0.53157 0.58449 0.01703 0.0
H620 H 0.53319 0.61641 0.02215 0.0
C621 C 0.83289 0.25049 0.01718 0.0
C622 C 0.81385 0.24664 0.01153 0.0
C623 C 0.84836 0.26988 0.01898 0.0
C624 C 0.85961 0.32165 0.02404 0.0
H625 H 0.90837 0.33289 0.99251 0.0
C626 C 0.93842 0.39395 0.99847 0.0
C627 C 0.945 0.4007 0.023 0.0
C628 C 0.92117 0.37589 0.99454 0.0
C629 C 0.89469 0.32993 1.00094 0.0
H630 H 0.79593 0.25989 0.00386 0.0
H631 H 0.82272 0.29347 0.00676 0.0
H632 H 0.88098 0.29904 0.99336 0.0
H633 H 0.93847 0.39475 0.06248 0.0
H634 H 0.90823 0.36381 0.0556 0.0
H635 H 0.87351 0.35252 0.03195 0.0
C636 C 0.82578 0.28171 0.01044 0.0
C637 C 0.87917 0.31057 0.00188 0.0
C638 C 0.81037 0.26243 0.00896 0.0
C639 C 0.93371 0.38979 0.04338 0.0
C640 C 0.9164 0.37216 0.03948 0.0
C641 C 0.87513 0.34094 0.02319 0.0
C642 C 0.84503 0.28568 0.0148 0.0
C643 C 0.86155 0.3062 0.01376 0.0
C644 C 0.91018 0.36486 0.01512 0.0
C645 C 0.89286 0.34517 0.01197 0.0
H646 H 0.83591 0.23852 0.01901 0.0
H647 H 0.86299 0.2725 0.02289 0.0
H648 H 0.84628 0.3188 0.03338 0.0
H649 H 0.94701 0.40213 0.98251 0.0
H650 H 0.91654 0.37043 0.97559 0.0
C651 C 0.72866 0.54967 0.99437 0.0
C652 C 0.7443 0.56307 0.00952 0.0
C653 C 0.71015 0.54759 0.99684 0.0
C654 C 0.6758 0.55257 0.03591 0.0
H655 H 0.6563 0.56032 0.97253 0.0
C656 C 0.59917 0.54723 0.02207 0.0
C657 C 0.58965 0.53908 0.99907 0.0
C658 C 0.6183 0.55081 0.02651 0.0
C659 C 0.66136 0.55788 0.99035 0.0
H660 H 0.75302 0.58434 0.03978 0.0
H661 H 0.72009 0.58067 0.04425 0.0
H662 H 0.68933 0.56548 0.97529 0.0
H663 H 0.59188 0.52685 0.9636 0.0
H664 H 0.62458 0.53219 0.97165 0.0
H665 H 0.64738 0.5442 0.05071 0.0
C666 C 0.72232 0.57178 0.03052 0.0
C667 C 0.68037 0.56102 0.99194 0.0
C668 C 0.74105 0.57393 0.02794 0.0
C669 C 0.59905 0.53355 0.98126 0.0
C670 C 0.61787 0.53675 0.98585 0.0
C671 C 0.65653 0.54919 0.03426 0.0
C672 C 0.70686 0.55889 0.01455 0.0
C673 C 0.68762 0.55796 0.01451 0.0
C674 C 0.62803 0.54603 0.00813 0.0
C675 C 0.64893 0.55129 0.01121 0.0
H676 H 0.73091 0.54107 0.98018 0.0
H677 H 0.69841 0.53741 0.98451 0.0
H678 H 0.68114 0.55013 0.05353 0.0
H679 H 0.59219 0.5516 0.03613 0.0
H680 H 0.62568 0.55795 0.04388 0.0
C681 C 0.43564 0.16777 0.02097 0.0
C682 C 0.43715 0.17742 0.99832 0.0
C683 C 0.44154 0.15368 0.02234 0.0
C684 C 0.47369 0.13827 0.99296 0.0
H685 H 0.43668 0.08624 0.01684 0.0
C686 C 0.45779 0.05446 0.98952 0.0
C687 C 0.46644 0.05231 0.01143 0.0
C688 C 0.45937 0.07257 0.98413 0.0
C689 C 0.44711 0.10075 0.01014 0.0
H690 H 0.4464 0.18041 0.95961 0.0
H691 H 0.45676 0.15592 0.96207 0.0
H692 H 0.428 0.11211 0.01804 0.0
H693 H 0.48528 0.06738 0.04325 0.0
H694 H 0.48864 0.09932 0.03328 0.0
H695 H 0.49285 0.12672 0.98535 0.0
C696 C 0.45094 0.15913 0.97866 0.0
C697 C 0.44224 0.11553 0.01105 0.0
C698 C 0.44476 0.1729 0.97718 0.0
C699 C 0.47883 0.06891 0.026 0.0
C700 C 0.48065 0.0871 0.02039 0.0
C701 C 0.47869 0.1235 0.99243 0.0
C702 C 0.44941 0.14942 1.00121 0.0
C703 C 0.45537 0.13434 0.00218 0.0
C704 C 0.46986 0.08864 1.00042 0.0
C705 C 0.46527 0.10461 1.00067 0.0
H706 H 0.42995 0.17116 0.03753 0.0
H707 H 0.44023 0.14633 0.03995 0.0
H708 H 0.48408 0.15275 0.98616 0.0
H709 H 0.44785 0.0417 0.97839 0.0
H710 H 0.45079 0.07349 0.96878 0.0
C711 C 0.682 0.15998 0.03982 0.0
C712 C 0.69282 0.16281 0.01787 0.0
C713 C 0.66384 0.14301 0.04277 0.0
C714 C 0.6296 0.09384 0.01465 0.0
H715 H 0.58984 0.10633 0.03525 0.0
C716 C 0.54945 0.04801 0.98323 0.0
C717 C 0.53479 0.04291 1.00126 0.0
C718 C 0.56898 0.06143 0.98902 0.0
C719 C 0.60078 0.10253 0.02984 0.0
H720 H 0.69395 0.14965 0.98264 0.0
H721 H 0.66205 0.12013 0.98745 0.0
H722 H 0.62438 0.131 0.03977 0.0
H723 H 0.52906 0.04852 0.03928 0.0
H724 H 0.56336 0.07237 0.04924 0.0
H725 H 0.60583 0.06563 0.00367 0.0
C726 C 0.66762 0.13083 0.00259 0.0
C727 C 0.6206 0.11661 0.03252 0.0
C728 C 0.68588 0.14776 0.99976 0.0
C729 C 0.54002 0.05211 0.02499 0.0
C730 C 0.55962 0.06573 0.03071 0.0
C731 C 0.60977 0.07981 0.01181 0.0
C732 C 0.65606 0.12861 0.02371 0.0
C733 C 0.63525 0.11261 0.02438 0.0
C734 C 0.57431 0.07022 0.0129 0.0
C735 C 0.59519 0.08421 0.01878 0.0
H736 H 0.68724 0.17129 0.05424 0.0
H737 H 0.65555 0.14154 0.05954 0.0
H738 H 0.64049 0.09015 0.00863 0.0
H739 H 0.54596 0.0413 0.96473 0.0
H740 H 0.57994 0.06496 0.97474 0.0
C741 C 0.84244 0.53139 0.00787 0.0
C742 C 0.83157 0.5266 0.03007 0.0
C743 C 0.85929 0.52971 0.00642 0.0
C744 C 0.87985 0.50143 0.03524 0.0
H745 H 0.92552 0.53493 0.99566 0.0
C746 C 0.94507 0.48739 0.02497 0.0
C747 C 0.95287 0.48959 1.0008 0.0
C748 C 0.93138 0.49332 0.03021 0.0
C749 C 0.91279 0.52537 0.00665 0.0
H750 H 0.83071 0.51794 0.06876 0.0
H751 H 0.86024 0.51527 0.06636 0.0
H752 H 0.90049 0.54416 0.00238 0.0
H753 H 0.95214 0.49948 0.96307 0.0
H754 H 0.92815 0.50953 0.97214 0.0
H755 H 0.89192 0.48247 0.03917 0.0
C756 C 0.85547 0.51979 0.04986 0.0
C757 C 0.89847 0.53068 0.01053 0.0
C758 C 0.83862 0.5214 0.05127 0.0
C759 C 0.94649 0.49762 0.98193 0.0
C760 C 0.93286 0.50356 0.98717 0.0
C761 C 0.89414 0.49614 0.03138 0.0
C762 C 0.86564 0.52328 0.02718 0.0
C763 C 0.88172 0.51865 0.02463 0.0
C764 C 0.92523 0.50161 0.01139 0.0
C765 C 0.91066 0.5079 0.01677 0.0
H766 H 0.83728 0.53531 0.99119 0.0
H767 H 0.86671 0.53242 0.98862 0.0
H768 H 0.86697 0.49164 0.04584 0.0
H769 H 0.94973 0.48135 0.03996 0.0
H770 H 0.92587 0.49173 0.04911 0.0
C771 C 0.47494 0.3141 0.04469 0.0
C772 C 0.46827 0.29933 0.02613 0.0
C773 C 0.47915 0.33303 0.03859 0.0
C774 C 0.47303 0.36535 0.99707 0.0
H775 H 0.52818 0.40105 0.01138 0.0
C776 C 0.50694 0.44937 0.98969 0.0
C777 C 0.51512 0.45816 0.01297 0.0
C778 C 0.50311 0.43026 0.9844 0.0
C779 C 0.51281 0.39126 0.00705 0.0
H780 H 0.45893 0.2924 0.98719 0.0
H781 H 0.46586 0.32556 0.97681 0.0
H782 H 0.51437 0.36586 0.01775 0.0
H783 H 0.52729 0.45503 0.04798 0.0
H784 H 0.52118 0.42216 0.03865 0.0
H785 H 0.47122 0.39095 0.98789 0.0
C786 C 0.46804 0.32239 0.99593 0.0
C787 C 0.50492 0.37119 0.01079 0.0
C788 C 0.46399 0.30342 0.00196 0.0
C789 C 0.52099 0.44847 0.02989 0.0
C790 C 0.51754 0.42968 0.02447 0.0
C791 C 0.48091 0.38557 0.99356 0.0
C792 C 0.47652 0.33748 0.01393 0.0
C793 C 0.48487 0.3582 0.00669 0.0
C794 C 0.50786 0.42005 0.00214 0.0
C795 C 0.50073 0.39875 0.99946 0.0
H796 H 0.47797 0.31129 0.0636 0.0
H797 H 0.48539 0.34447 0.05285 0.0
H798 H 0.45753 0.35549 0.99365 0.0
H799 H 0.50217 0.45661 0.97649 0.0
H800 H 0.49572 0.42318 0.96701 0.0
C801 C 0.15726 0.68562 0.00686 0.0
C802 C 0.16576 0.68956 0.98293 0.0
C803 C 0.14165 0.66694 0.01236 0.0
C804 C 0.12763 0.61775 0.99616 0.0
H805 H 0.07459 0.59989 0.01828 0.0
C806 C 0.06434 0.54232 0.97413 0.0
C807 C 0.04926 0.53234 0.99134 0.0
C808 C 0.0799 0.56089 0.97988 0.0
C809 C 0.08954 0.60474 0.01282 0.0
H810 H 0.16317 0.67795 0.94526 0.0
H811 H 0.13609 0.64531 0.95499 0.0
H812 H 0.0976 0.63526 0.01379 0.0
H813 H 0.03883 0.53324 0.02851 0.0
H814 H 0.06616 0.5664 0.03853 0.0
H815 H 0.11964 0.58747 0.99435 0.0
C816 C 0.14171 0.65655 0.96952 0.0
C817 C 0.10257 0.62489 0.01005 0.0
C818 C 0.15717 0.67517 0.96399 0.0
C819 C 0.05045 0.54073 0.01505 0.0
C820 C 0.06593 0.55965 0.02068 0.0
C821 C 0.11475 0.59775 0.99911 0.0
C822 C 0.13448 0.65207 0.99401 0.0
C823 C 0.12142 0.63138 1.0007 0.0
C824 C 0.08054 0.57002 0.00285 0.0
C825 C 0.09534 0.591 0.0064 0.0
H826 H 0.16362 0.69645 0.02182 0.0
H827 H 0.13617 0.66374 0.03133 0.0
H828 H 0.14228 0.62255 0.98939 0.0
H829 H 0.06368 0.53606 0.95574 0.0
H830 H 0.09081 0.56859 0.96566 0.0
C831 C 0.3099 0.46677 0.01391 0.0
C832 C 0.30092 0.46748 0.99148 0.0
C833 C 0.3281 0.46768 0.01353 0.0
C834 C 0.37145 0.48444 0.97222 0.0
H835 H 0.38852 0.46287 0.02536 0.0
C836 C 0.45354 0.51027 0.98968 0.0
C837 C 0.45842 0.4972 1.001 0.0
C838 C 0.43382 0.50501 0.98643 0.0
C839 C 0.38403 0.46875 0.01002 0.0
H840 H 0.30305 0.46842 0.95105 0.0
H841 H 0.33427 0.46887 0.95015 0.0
H842 H 0.35457 0.45462 0.0231 0.0
H843 H 0.44691 0.46808 0.01634 0.0
H844 H 0.41272 0.45834 0.00918 0.0
H845 H 0.40073 0.49786 0.95847 0.0
C846 C 0.3278 0.46841 0.96815 0.0
C847 C 0.36449 0.46427 0.00901 0.0
C848 C 0.30979 0.46788 0.96859 0.0
C849 C 0.44343 0.47852 0.0079 0.0
C850 C 0.42381 0.47303 0.004 0.0
C851 C 0.39092 0.48861 0.97292 0.0
C852 C 0.33755 0.46901 0.99065 0.0
C853 C 0.35796 0.47232 0.99037 0.0
C854 C 0.41865 0.48636 0.99385 0.0
C855 C 0.3976 0.48107 0.99206 0.0
H856 H 0.3034 0.46672 0.03177 0.0
H857 H 0.33515 0.46836 0.03129 0.0
H858 H 0.36716 0.49121 0.95775 0.0
H859 H 0.46492 0.52482 0.98434 0.0
H860 H 0.43057 0.51584 0.97888 0.0
C861 C 0.51851 0.83584 0.97393 0.0
C862 C 0.52438 0.82787 0.9934 0.0
C863 C 0.51461 0.85098 0.97885 0.0
C864 C 0.52168 0.89103 0.01873 0.0
H865 H 0.46884 0.8758 0.99665 0.0
C866 C 0.49072 0.94471 0.01703 0.0
C867 C 0.4854 0.94615 0.99228 0.0
C868 C 0.4939 0.92926 0.02368 0.0
C869 C 0.48352 0.88016 0.00324 0.0
H870 H 0.53239 0.83067 0.03285 0.0
H871 H 0.52592 0.85764 0.04124 0.0
H872 H 0.48012 0.85201 0.99466 0.0
H873 H 0.47811 0.93233 0.95553 0.0
H874 H 0.48305 0.90526 0.96719 0.0
H875 H 0.52538 0.91964 0.02585 0.0
C876 C 0.52414 0.85187 0.02232 0.0
C877 C 0.48999 0.86662 0.00197 0.0
C878 C 0.52791 0.83653 0.01745 0.0
C879 C 0.48224 0.93151 0.97472 0.0
C880 C 0.48497 0.91598 0.98144 0.0
C881 C 0.5152 0.90471 0.01987 0.0
C882 C 0.51669 0.85859 0.00324 0.0
C883 C 0.50934 0.87217 0.00873 0.0
C884 C 0.49122 0.9149 0.00578 0.0
C885 C 0.49633 0.89955 0.01113 0.0
H886 H 0.51613 0.82981 0.95509 0.0
H887 H 0.50924 0.85627 0.96374 0.0
H888 H 0.53664 0.89553 0.02415 0.0
H889 H 0.49337 0.956 0.03078 0.0
H890 H 0.49877 0.92872 0.04255 0.0
C891 C 0.93787 0.14531 0.31871 0.0
C892 C 0.92195 0.148 0.32442 0.0
C893 C 0.95619 0.16134 0.31333 0.0
C894 C 0.98206 0.21405 0.29675 0.0
H895 H 0.02526 0.21545 0.33396 0.0
C896 C 0.05144 0.2848 0.32738 0.0
C897 C 0.06951 0.28529 0.32772 0.0
C898 C 0.03433 0.26775 0.3201 0.0
C899 C 0.01348 0.21513 0.32297 0.0
H900 H 0.91259 0.16956 0.32818 0.0
H901 H 0.94478 0.19774 0.31901 0.0
H902 H -0.00687 0.18593 0.33453 0.0
H903 H 0.08408 0.26868 0.31958 0.0
H904 H 0.05395 0.23857 0.30735 0.0
H905 H 0.00236 0.24365 0.28612 0.0
C906 C 0.94298 0.18314 0.31844 0.0
C907 C -0.00496 0.19822 0.32333 0.0
C908 C 0.92461 0.16706 0.32392 0.0
C909 C 0.07032 0.26869 0.31947 0.0
C910 C 0.05311 0.25147 0.31259 0.0
C911 C 0.00053 0.231 0.29645 0.0
C912 C 0.95905 0.18047 0.31356 0.0
C913 C 0.97902 0.19764 0.3107 0.0
C914 C 0.03489 0.25072 0.31338 0.0
C915 C 0.01629 0.23187 0.31006 0.0
H916 H 0.93639 0.13084 0.31931 0.0
H917 H 0.96822 0.15878 0.30945 0.0
H918 H 0.97007 0.21391 0.28649 0.0
H919 H 0.05043 0.29745 0.33345 0.0
H920 H 0.02051 0.26758 0.3211 0.0
C921 C 0.82732 0.75153 0.32761 0.0
C922 C 0.84618 0.76797 0.33032 0.0
C923 C 0.81136 0.75394 0.32142 0.0
C924 C 0.79572 0.79032 0.32895 0.0
H925 H 0.75187 0.7547 0.2866 0.0
C926 C 0.72614 0.79641 0.32226 0.0
C927 C 0.70923 0.7787 0.32823 0.0
C928 C 0.74344 0.79651 0.3161 0.0
C929 C 0.76407 0.76481 0.29838 0.0
H930 H 0.86317 0.79977 0.32807 0.0
H931 H 0.83544 0.80391 0.31698 0.0
H932 H 0.7815 0.75193 0.28805 0.0
H933 H 0.69654 0.74712 0.33052 0.0
H934 H 0.72654 0.74723 0.31932 0.0
H935 H 0.77814 0.80277 0.33997 0.0
C936 C 0.83296 0.78918 0.3197 0.0
C937 C 0.78096 0.76318 0.29928 0.0
C938 C 0.84887 0.78677 0.32577 0.0
C939 C 0.70945 0.76099 0.32616 0.0
C940 C 0.72659 0.76104 0.31958 0.0
C941 C 0.77888 0.79197 0.32802 0.0
C942 C 0.81397 0.77285 0.31804 0.0
C943 C 0.79681 0.77569 0.31494 0.0
C944 C 0.74393 0.77885 0.31534 0.0
C945 C 0.76274 0.77898 0.31312 0.0
H946 H 0.82485 0.73687 0.33095 0.0
H947 H 0.79687 0.74108 0.32045 0.0
H948 H 0.80754 0.79997 0.34154 0.0
H949 H 0.72633 0.81027 0.32382 0.0
H950 H 0.75659 0.81043 0.31277 0.0
C951 C 0.21653 0.06115 0.35276 0.0
C952 C 0.23044 0.07574 0.33724 0.0
C953 C 0.21059 0.04149 0.34852 0.0
C954 C 0.22734 0.00968 0.3263 0.0
H955 H 0.17223 0.96954 0.32492 0.0
C956 C 0.18776 0.92518 0.30186 0.0
C957 C 0.19699 0.91919 0.31947 0.0
C958 C 0.1875 0.94265 0.30558 0.0
C959 C 0.18762 0.98064 0.3254 0.0
H960 H 0.24891 0.08155 0.30489 0.0
H961 H 0.23892 0.04663 0.29784 0.0
H962 H 0.18165 0.00446 0.32491 0.0
H963 H 0.21169 0.92549 0.35553 0.0
H964 H 0.21146 0.95629 0.36198 0.0
H965 H 0.23334 0.98594 0.32751 0.0
C966 C 0.23258 0.05061 0.31316 0.0
C967 C 0.19301 0.00051 0.32524 0.0
C968 C 0.23832 0.07044 0.31718 0.0
C969 C 0.20415 0.9297 0.342 0.0
C970 C 0.20423 0.94737 0.34552 0.0
C971 C 0.22196 0.98987 0.32696 0.0
C972 C 0.21859 0.03602 0.32881 0.0
C973 C 0.21291 0.01516 0.32587 0.0
C974 C 0.19685 0.95443 0.32669 0.0
C975 C 0.20208 0.97524 0.3268 0.0
H976 H 0.21017 0.06502 0.36818 0.0
H977 H 0.20001 0.03056 0.36101 0.0
H978 H 0.24275 0.02072 0.32702 0.0
H979 H 0.18253 0.91741 0.28412 0.0
H980 H 0.1818 0.94789 0.29081 0.0
C981 C 0.47734 0.59802 0.34429 0.0
C982 C 0.48203 0.58305 0.34669 0.0
C983 C 0.49193 0.61767 0.34548 0.0
C984 C 0.54541 0.64923 0.33723 0.0
H985 H 0.53509 0.68974 0.36172 0.0
C986 C 0.59357 0.73277 0.3724 0.0
C987 C 0.60846 0.73951 0.35457 0.0
C988 C 0.57588 0.7155 0.36808 0.0
C989 C 0.53821 0.67861 0.35476 0.0
H990 H 0.50546 0.57675 0.35338 0.0
H991 H 0.53111 0.61136 0.35711 0.0
H992 H 0.51009 0.65541 0.3655 0.0
H993 H 0.61626 0.73477 0.31744 0.0
H994 H 0.58501 0.70456 0.30948 0.0
H995 H 0.574 0.67247 0.32789 0.0
C996 C 0.51616 0.60787 0.35343 0.0
C997 C 0.52381 0.65888 0.35678 0.0
C998 C 0.5015 0.58808 0.35173 0.0
C999 C 0.60477 0.72993 0.33126 0.0
C1000 C 0.58705 0.71249 0.32694 0.0
C1001 C 0.55991 0.66897 0.33551 0.0
C1002 C 0.51161 0.62291 0.34952 0.0
C1003 C 0.52724 0.6439 0.34816 0.0
C1004 C 0.57288 0.70455 0.34591 0.0
C1005 C 0.55654 0.6839 0.34447 0.0
H1006 H 0.46252 0.59456 0.33964 0.0
H1007 H 0.48782 0.62869 0.34183 0.0
H1008 H 0.54847 0.63817 0.3299 0.0
H1009 H 0.59633 0.73984 0.39066 0.0
H1010 H 0.56539 0.70983 0.38316 0.0
C1011 C 0.39265 0.8739 0.34586 0.0
C1012 C 0.40879 0.89285 0.3428 0.0
C1013 C 0.37409 0.87123 0.35061 0.0
C1014 C 0.34744 0.896 0.37199 0.0
H1015 H 0.30573 0.85773 0.32899 0.0
C1016 C 0.27695 0.89741 0.34799 0.0
C1017 C 0.25939 0.87959 0.34424 0.0
C1018 C 0.29426 0.89751 0.35401 0.0
C1019 C 0.31708 0.86814 0.34156 0.0
H1020 H 0.41832 0.92392 0.34293 0.0
H1021 H 0.38568 0.91927 0.35141 0.0
H1022 H 0.33824 0.86129 0.32707 0.0
H1023 H 0.24583 0.84788 0.34523 0.0
H1024 H 0.27633 0.84802 0.35542 0.0
H1025 H 0.32631 0.90323 0.38591 0.0
C1026 C 0.38749 0.90649 0.35023 0.0
C1027 C 0.33573 0.87024 0.34039 0.0
C1028 C 0.4061 0.90917 0.34521 0.0
C1029 C 0.25919 0.86182 0.34809 0.0
C1030 C 0.27663 0.86191 0.35374 0.0
C1031 C 0.32873 0.89388 0.37319 0.0
C1032 C 0.37124 0.88746 0.35252 0.0
C1033 C 0.35118 0.8844 0.35529 0.0
C1034 C 0.29444 0.87979 0.35605 0.0
C1035 C 0.31345 0.88016 0.35766 0.0
H1036 H 0.39424 0.86103 0.34374 0.0
H1037 H 0.36188 0.85641 0.35245 0.0
H1038 H 0.35902 0.90684 0.38392 0.0
H1039 H 0.27745 0.91132 0.3453 0.0
H1040 H 0.30773 0.91151 0.35552 0.0
C1041 C 0.09808 0.49948 0.35564 0.0
C1042 C 0.10243 0.5109 0.33396 0.0
C1043 C 0.10324 0.48483 0.35726 0.0
C1044 C 0.13834 0.47129 0.3351 0.0
H1045 H 0.09783 0.41698 0.34365 0.0
C1046 C 0.12406 0.38738 0.32707 0.0
C1047 C 0.13331 0.38599 0.34886 0.0
C1048 C 0.12407 0.40479 0.32186 0.0
C1049 C 0.10924 0.4321 0.3411 0.0
H1050 H 0.11592 0.51654 0.29738 0.0
H1051 H 0.12525 0.49127 0.30045 0.0
H1052 H 0.08914 0.44289 0.34463 0.0
H1053 H 0.1515 0.40187 0.38083 0.0
H1054 H 0.15241 0.43273 0.37098 0.0
H1055 H 0.15851 0.46045 0.33228 0.0
C1056 C 0.11768 0.49342 0.31597 0.0
C1057 C 0.10431 0.44686 0.34197 0.0
C1058 C 0.11217 0.50768 0.31414 0.0
C1059 C 0.14462 0.40282 0.36365 0.0
C1060 C 0.145 0.42037 0.35814 0.0
C1061 C 0.14335 0.45653 0.33479 0.0
C1062 C 0.11326 0.48189 0.33749 0.0
C1063 C 0.11878 0.46653 0.33872 0.0
C1064 C 0.13368 0.42103 0.33816 0.0
C1065 C 0.12876 0.43682 0.33741 0.0
H1066 H 0.09071 0.50187 0.37119 0.0
H1067 H 0.0997 0.47602 0.37402 0.0
H1068 H 0.14971 0.48643 0.33258 0.0
H1069 H 0.11492 0.37441 0.31576 0.0
H1070 H 0.11525 0.40505 0.30635 0.0
C1071 C 0.35014 0.48939 0.37527 0.0
C1072 C 0.36108 0.4947 0.35313 0.0
C1073 C 0.33188 0.47228 0.37609 0.0
C1074 C 0.29763 0.42659 0.34091 0.0
H1075 H 0.25798 0.43643 0.36914 0.0
C1076 C 0.21633 0.3806 0.3134 0.0
C1077 C 0.2024 0.37456 0.33259 0.0
C1078 C 0.236 0.39411 0.31835 0.0
C1079 C 0.26888 0.43333 0.36151 0.0
H1080 H 0.36232 0.48575 0.31507 0.0
H1081 H 0.33023 0.45594 0.31623 0.0
H1082 H 0.2925 0.46091 0.37428 0.0
H1083 H 0.19812 0.37847 0.3719 0.0
H1084 H 0.2326 0.40227 0.38049 0.0
H1085 H 0.27385 0.39924 0.32745 0.0
C1086 C 0.33579 0.46482 0.33311 0.0
C1087 C 0.2887 0.44732 0.36453 0.0
C1088 C 0.35416 0.48189 0.33238 0.0
C1089 C 0.20849 0.38281 0.3567 0.0
C1090 C 0.22822 0.39643 0.36163 0.0
C1091 C 0.2778 0.41263 0.33781 0.0
C1092 C 0.32413 0.46023 0.35467 0.0
C1093 C 0.3033 0.44427 0.3539 0.0
C1094 C 0.2422 0.40198 0.34257 0.0
C1095 C 0.26322 0.41603 0.34768 0.0
H1096 H 0.35535 0.49895 0.39163 0.0
H1097 H 0.3235 0.46891 0.39318 0.0
H1098 H 0.30851 0.42366 0.33283 0.0
H1099 H 0.21214 0.37466 0.29457 0.0
H1100 H 0.24637 0.39844 0.30316 0.0
C1101 C 0.50739 0.85749 0.38259 0.0
C1102 C 0.49949 0.86095 0.36082 0.0
C1103 C 0.5243 0.85598 0.38139 0.0
C1104 C 0.56521 0.86292 0.34014 0.0
H1105 H 0.5591 0.81683 0.37461 0.0
C1106 C 0.61023 0.82616 0.31414 0.0
C1107 C 0.61792 0.82009 0.3338 0.0
C1108 C 0.5968 0.83242 0.31897 0.0
C1109 C 0.56119 0.8299 0.36515 0.0
H1110 H 0.5037 0.86687 0.32107 0.0
H1111 H 0.53314 0.864 0.3188 0.0
H1112 H 0.5352 0.82745 0.38093 0.0
H1113 H 0.61706 0.81534 0.37392 0.0
H1114 H 0.59355 0.82629 0.38234 0.0
H1115 H 0.59098 0.86502 0.32389 0.0
C1116 C 0.52644 0.86265 0.33689 0.0
C1117 C 0.54753 0.83606 0.36883 0.0
C1118 C 0.50959 0.86431 0.33815 0.0
C1119 C 0.61139 0.81987 0.35834 0.0
C1120 C 0.59792 0.82614 0.36316 0.0
C1121 C 0.57886 0.85673 0.33641 0.0
C1122 C 0.53356 0.85773 0.35833 0.0
C1123 C 0.54923 0.8525 0.35614 0.0
C1124 C 0.59071 0.83276 0.34356 0.0
C1125 C 0.57684 0.83998 0.34861 0.0
H1126 H 0.49999 0.8551 0.40037 0.0
H1127 H 0.5297 0.85269 0.39835 0.0
H1128 H 0.56708 0.87578 0.33034 0.0
H1129 H 0.61481 0.82637 0.29498 0.0
H1130 H 0.59117 0.837 0.30339 0.0
C1131 C 0.13799 0.64688 0.38127 0.0
C1132 C 0.13449 0.63302 0.3623 0.0
C1133 C 0.14193 0.66575 0.37513 0.0
C1134 C 0.13996 0.6966 0.32431 0.0
H1135 H 0.18326 0.73814 0.36202 0.0
C1136 C 0.15374 0.77488 0.33561 0.0
C1137 C 0.17295 0.79038 0.33927 0.0
C1138 C 0.15018 0.75589 0.33111 0.0
C1139 C 0.17142 0.72675 0.35092 0.0
H1140 H 0.13143 0.6277 0.32214 0.0
H1141 H 0.13834 0.66068 0.31144 0.0
H1142 H 0.17315 0.70405 0.37061 0.0
H1143 H 0.20364 0.7989 0.33946 0.0
H1144 H 0.19748 0.7654 0.33174 0.0
H1145 H 0.13817 0.71946 0.30482 0.0
C1146 C 0.1379 0.65694 0.33103 0.0
C1147 C 0.16537 0.70719 0.3562 0.0
C1148 C 0.13388 0.63803 0.33717 0.0
C1149 C 0.18873 0.78705 0.33652 0.0
C1150 C 0.18517 0.76793 0.33228 0.0
C1151 C 0.14601 0.71623 0.31905 0.0
C1152 C 0.14259 0.67117 0.3499 0.0
C1153 C 0.14932 0.6919 0.34335 0.0
C1154 C 0.1658 0.75206 0.33063 0.0
C1155 C 0.16157 0.7315 0.33266 0.0
H1156 H 0.13828 0.6433 0.4008 0.0
H1157 H 0.14496 0.67628 0.39012 0.0
H1158 H 0.12758 0.68512 0.31404 0.0
H1159 H 0.1414 0.77726 0.33777 0.0
H1160 H 0.13512 0.74403 0.33011 0.0
C1161 C 0.82507 0.00877 0.29812 0.0
C1162 C 0.83358 0.02312 0.31713 0.0
C1163 C 0.80943 0.99021 0.30345 0.0
C1164 C 0.7695 0.95903 0.34361 0.0
H1165 H 0.78439 0.92027 0.32594 0.0
C1166 C 0.7159 0.87442 0.34757 0.0
C1167 C 0.71427 0.86615 0.32364 0.0
C1168 C 0.73134 0.89343 0.35302 0.0
C1169 C 0.7801 0.93092 0.33125 0.0
H1170 H 0.83124 0.02991 0.35599 0.0
H1171 H 0.80347 -0.00274 0.36515 0.0
H1172 H 0.80813 0.95516 0.322 0.0
H1173 H 0.72775 0.87042 0.28725 0.0
H1174 H 0.75482 0.90307 0.29686 0.0
H1175 H 0.74102 0.93458 0.35147 0.0
C1176 C 0.80915 0.00048 0.34627 0.0
C1177 C 0.79362 0.95083 0.32888 0.0
C1178 C 0.82495 0.01912 0.34098 0.0
C1179 C 0.72874 0.87653 0.30583 0.0
C1180 C 0.74426 0.89518 0.31138 0.0
C1181 C 0.75583 0.93897 0.34583 0.0
C1182 C 0.80192 0.98567 0.3278 0.0
C1183 C 0.78822 0.96499 0.33411 0.0
C1184 C 0.7455 0.90402 0.33478 0.0
C1185 C 0.76084 0.92478 0.3387 0.0
H1186 H 0.83115 0.01159 0.27944 0.0
H1187 H 0.80378 0.97906 0.2888 0.0
H1188 H 0.76513 0.96979 0.34787 0.0
H1189 H 0.70473 0.86667 0.36149 0.0
H1190 H 0.73202 0.89998 0.37118 0.0
C1191 C 0.97543 0.79605 0.34201 0.0
C1192 C 0.968 0.80058 0.32067 0.0
C1193 C -0.00637 0.79697 0.34122 0.0
C1194 C 0.03977 0.82365 0.30682 0.0
H1195 H 0.05532 0.79286 0.34746 0.0
C1196 C 0.12002 0.8392 0.3133 0.0
C1197 C 0.12672 0.83838 0.33752 0.0
C1198 C 0.10019 0.833 0.30895 0.0
C1199 C 0.05119 0.80163 0.33609 0.0
H1200 H 0.97262 0.80768 0.28123 0.0
H1201 H 0.00414 0.80878 0.27961 0.0
H1202 H 0.02062 0.78271 0.34318 0.0
H1203 H 0.11798 0.83113 0.37631 0.0
H1204 H 0.08365 0.8206 0.36874 0.0
H1205 H 0.07035 0.84276 0.30012 0.0
C1206 C -0.0037 0.80514 0.29716 0.0
C1207 C 0.03132 0.7958 0.33362 0.0
C1208 C 0.97822 0.80439 0.29802 0.0
C1209 C 0.11332 0.83182 0.35737 0.0
C1210 C 0.09358 0.8256 0.35302 0.0
C1211 C 0.05962 0.82944 0.30924 0.0
C1212 C 0.00462 0.8023 0.31901 0.0
C1213 C 0.0254 0.80695 0.31933 0.0
C1214 C 0.08672 0.82583 0.32873 0.0
C1215 C 0.06557 0.81873 0.32432 0.0
H1216 H 0.96785 0.79317 0.35971 0.0
H1217 H -0.00037 0.79477 0.35843 0.0
H1218 H 0.0358 0.83279 0.296 0.0
H1219 H 0.12996 0.84414 0.2976 0.0
H1220 H 0.09532 0.83335 0.29002 0.0
C1221 C 0.19593 0.17014 0.34927 0.0
C1222 C 0.19125 0.16039 0.32586 0.0
C1223 C 0.1922 0.18556 0.35368 0.0
C1224 C 0.15671 0.19902 0.33452 0.0
H1225 H 0.19258 0.25286 0.355 0.0
C1226 C 0.14638 0.26261 0.30725 0.0
C1227 C 0.1506 0.27786 0.32433 0.0
C1228 C 0.14954 0.24731 0.31384 0.0
C1229 C 0.1823 0.23773 0.34995 0.0
H1230 H 0.181 0.16047 0.28805 0.0
H1231 H 0.1742 0.18708 0.29591 0.0
H1232 H 0.20412 0.22899 0.35329 0.0
H1233 H 0.16087 0.289 0.36191 0.0
H1234 H 0.16699 0.26216 0.37339 0.0
H1235 H 0.1351 0.20772 0.33021 0.0
C1236 C 0.18042 0.18258 0.31091 0.0
C1237 C 0.18893 0.22417 0.34882 0.0
C1238 C 0.18429 0.16737 0.30644 0.0
C1239 C 0.15736 0.27723 0.34856 0.0
C1240 C 0.16097 0.26203 0.35502 0.0
C1241 C 0.15009 0.21245 0.33578 0.0
C1242 C 0.18364 0.19128 0.3348 0.0
C1243 C 0.17635 0.20495 0.34011 0.0
C1244 C 0.15733 0.2471 0.33752 0.0
C1245 C 0.16301 0.23211 0.34248 0.0
H1246 H 0.2013 0.16506 0.36459 0.0
H1247 H 0.19488 0.19219 0.3722 0.0
H1248 H 0.14666 0.18414 0.32822 0.0
H1249 H 0.14118 0.26284 0.28845 0.0
H1250 H 0.14683 0.23614 0.29987 0.0
C1251 C 0.59444 0.49925 0.65436 0.0
C1252 C 0.59151 0.48042 0.65909 0.0
C1253 C 0.61313 0.51456 0.64827 0.0
C1254 C 0.66472 0.53053 0.65879 0.0
H1255 H 0.67399 0.56761 0.60566 0.0
C1256 C 0.74037 0.59857 0.64847 0.0
C1257 C 0.73932 0.61589 0.64894 0.0
C1258 C 0.7236 0.58054 0.64287 0.0
C1259 C 0.67163 0.55732 0.6205 0.0
H1260 H 0.60554 0.46275 0.66165 0.0
H1261 H 0.63816 0.4895 0.65144 0.0
H1262 H 0.64126 0.539 0.61065 0.0
H1263 H 0.72073 0.62838 0.64137 0.0
H1264 H 0.69166 0.59715 0.6315 0.0
H1265 H 0.6947 0.54916 0.66948 0.0
C1266 C 0.62609 0.49242 0.65206 0.0
C1267 C 0.65292 0.54103 0.6234 0.0
C1268 C 0.60745 0.47713 0.65775 0.0
C1269 C 0.72186 0.61518 0.64138 0.0
C1270 C 0.70523 0.59728 0.63555 0.0
C1271 C 0.68337 0.54684 0.656 0.0
C1272 C 0.62915 0.5113 0.64736 0.0
C1273 C 0.64922 0.52772 0.64289 0.0
C1274 C 0.70566 0.57966 0.63737 0.0
C1275 C 0.68694 0.56066 0.63718 0.0
H1276 H 0.58233 0.50208 0.6554 0.0
H1277 H 0.61518 0.52907 0.64498 0.0
H1278 H 0.66222 0.52058 0.67413 0.0
H1279 H 0.75367 0.59873 0.65422 0.0
H1280 H 0.72442 0.5672 0.6441 0.0
C1281 C 0.49427 0.0854 0.66133 0.0
C1282 C 0.51319 0.10181 0.66374 0.0
C1283 C 0.47839 0.0878 0.65462 0.0
C1284 C 0.46317 0.1247 0.65995 0.0
H1285 H 0.4186 0.08764 0.6197 0.0
C1286 C 0.39299 0.12986 0.65445 0.0
C1287 C 0.37628 0.11216 0.66105 0.0
C1288 C 0.41028 0.13004 0.64794 0.0
C1289 C 0.431 0.09816 0.63088 0.0
H1290 H 0.53034 0.13353 0.66025 0.0
H1291 H 0.50278 0.13762 0.64814 0.0
H1292 H 0.44825 0.08495 0.62122 0.0
H1293 H 0.36397 0.08065 0.66406 0.0
H1294 H 0.39394 0.08093 0.65246 0.0
H1295 H 0.44576 0.13746 0.67039 0.0
C1296 C 0.50018 0.12293 0.65159 0.0
C1297 C 0.44792 0.09658 0.63182 0.0
C1298 C 0.51601 0.12054 0.65824 0.0
C1299 C 0.37672 0.09453 0.65928 0.0
C1300 C 0.39384 0.09468 0.65243 0.0
C1301 C 0.4463 0.12629 0.65899 0.0
C1302 C 0.48112 0.10667 0.65032 0.0
C1303 C 0.46402 0.10957 0.64681 0.0
C1304 C 0.41099 0.11249 0.64751 0.0
C1305 C 0.42987 0.11276 0.64493 0.0
H1306 H 0.49168 0.07079 0.66534 0.0
H1307 H 0.46386 0.07499 0.65397 0.0
H1308 H 0.4752 0.13475 0.672 0.0
H1309 H 0.39302 0.14365 0.65569 0.0
H1310 H 0.42327 0.14397 0.64406 0.0
C1311 C 0.91008 0.40583 0.65021 0.0
C1312 C 0.8971 0.41039 0.66231 0.0
C1313 C 0.90525 0.38612 0.64756 0.0
C1314 C 0.86333 0.33498 0.65214 0.0
H1315 H 0.90366 0.32208 0.66811 0.0
C1316 C 0.87555 0.26493 0.67497 0.0
C1317 C 0.8668 0.25355 0.6534 0.0
C1318 C 0.87615 0.28288 0.67825 0.0
C1319 C 0.89218 0.32547 0.66398 0.0
H1320 H 0.86932 0.39861 0.68131 0.0
H1321 H 0.86111 0.36456 0.67728 0.0
H1322 H 0.91214 0.35645 0.66614 0.0
H1323 H 0.85041 0.25078 0.61947 0.0
H1324 H 0.85087 0.28182 0.62546 0.0
H1325 H 0.84333 0.30397 0.65033 0.0
C1326 C 0.8746 0.37578 0.66904 0.0
C1327 C 0.89713 0.34515 0.66235 0.0
C1328 C 0.87931 0.39526 0.67144 0.0
C1329 C 0.85686 0.25921 0.63652 0.0
C1330 C 0.85729 0.27705 0.63987 0.0
C1331 C 0.85839 0.31531 0.65376 0.0
C1332 C 0.88752 0.37093 0.65726 0.0
C1333 C 0.88272 0.35012 0.65662 0.0
C1334 C 0.86795 0.28957 0.65997 0.0
C1335 C 0.87274 0.31035 0.65986 0.0
H1336 H 0.92394 0.41741 0.64328 0.0
H1337 H 0.91543 0.38278 0.63823 0.0
H1338 H 0.85193 0.33834 0.64744 0.0
H1339 H 0.88365 0.26095 0.68791 0.0
H1340 H 0.88419 0.29213 0.69413 0.0
C1341 C 0.14592 0.93052 0.66015 0.0
C1342 C 0.14909 0.9154 0.66835 0.0
C1343 C 0.1605 0.95005 0.6629 0.0
C1344 C 0.21371 0.98096 0.66909 0.0
H1345 H 0.20105 0.02171 0.68436 0.0
C1346 C 0.25959 0.06527 0.70085 0.0
C1347 C 0.27516 0.07156 0.68406 0.0
C1348 C 0.24205 0.04786 0.69625 0.0
C1349 C 0.20476 0.01048 0.67997 0.0
H1350 H 0.16957 0.90843 0.6862 0.0
H1351 H 0.19531 0.94304 0.69182 0.0
H1352 H 0.17538 0.98722 0.68564 0.0
H1353 H 0.28437 0.06586 0.64842 0.0
H1354 H 0.25352 0.03535 0.64011 0.0
H1355 H 0.24318 0.0042 0.66405 0.0
C1356 C 0.18158 0.93971 0.68289 0.0
C1357 C 0.1901 0.99075 0.68067 0.0
C1358 C 0.16693 0.92 0.67988 0.0
C1359 C 0.27236 0.06138 0.66137 0.0
C1360 C 0.25487 0.04381 0.65686 0.0
C1361 C 0.22835 0.00068 0.66835 0.0
C1362 C 0.17857 0.95492 0.6741 0.0
C1363 C 0.1944 0.97577 0.67515 0.0
C1364 C 0.24002 0.03636 0.67495 0.0
C1365 C 0.22401 0.01564 0.6737 0.0
H1366 H 0.1323 0.92715 0.65082 0.0
H1367 H 0.15784 0.96131 0.65543 0.0
H1368 H 0.21747 0.9698 0.66448 0.0
H1369 H 0.26168 0.07279 0.71867 0.0
H1370 H 0.23088 0.04248 0.71053 0.0
C1371 C 0.07394 0.23802 0.69423 0.0
C1372 C 0.07754 0.22862 0.67423 0.0
C1373 C 0.05517 0.23559 0.69732 0.0
C1374 C 0.01009 0.22125 0.66008 0.0
H1375 H 0.98474 0.21478 0.72424 0.0
C1376 C 0.92872 0.19482 0.66502 0.0
C1377 C 0.92489 0.20905 0.67508 0.0
C1378 C 0.94685 0.19615 0.66931 0.0
C1379 C 0.99175 0.2166 0.70627 0.0
H1380 H 0.06466 0.20869 0.64268 0.0
H1381 H 0.03198 0.20396 0.64835 0.0
H1382 H 0.01824 0.21996 0.72277 0.0
H1383 H 0.9361 0.23505 0.69859 0.0
H1384 H 0.96778 0.23697 0.70693 0.0
H1385 H 0.9836 0.21744 0.64354 0.0
C1386 C 0.04353 0.21372 0.66118 0.0
C1387 C 0.0109 0.21969 0.70541 0.0
C1388 C 0.06218 0.21632 0.65797 0.0
C1389 C 0.9388 0.22382 0.69093 0.0
C1390 C 0.95682 0.22491 0.69568 0.0
C1391 C 0.99101 0.21789 0.66095 0.0
C1392 C 0.03984 0.22364 0.68051 0.0
C1393 C 0.02014 0.22173 0.68221 0.0
C1394 C 0.96125 0.21155 0.68403 0.0
C1395 C 0.98158 0.21528 0.68396 0.0
H1396 H 0.08568 0.24746 0.70704 0.0
H1397 H 0.05278 0.24342 0.7124 0.0
H1398 H 0.01695 0.22338 0.64196 0.0
H1399 H 0.91826 0.18353 0.65241 0.0
H1400 H 0.95002 0.18574 0.66008 0.0
C1401 C 0.77339 0.83473 0.64582 0.0
C1402 C 0.76945 0.84282 0.66707 0.0
C1403 C 0.77951 0.82095 0.64837 0.0
C1404 C 0.78197 0.78668 0.69368 0.0
H1405 H 0.81981 0.78748 0.64665 0.0
C1406 C 0.8069 0.73186 0.70524 0.0
C1407 C 0.79997 0.71857 0.68501 0.0
C1408 C 0.80995 0.7508 0.70237 0.0
C1409 C 0.80938 0.78726 0.65999 0.0
H1410 H 0.76801 0.842 0.70767 0.0
H1411 H 0.77945 0.81856 0.7122 0.0
H1412 H 0.80979 0.81235 0.64387 0.0
H1413 H 0.79284 0.71493 0.64542 0.0
H1414 H 0.79816 0.74823 0.64029 0.0
H1415 H 0.78161 0.76169 0.70982 0.0
C1416 C 0.77756 0.82268 0.69349 0.0
C1417 C 0.80345 0.80131 0.65829 0.0
C1418 C 0.77116 0.83627 0.69092 0.0
C1419 C 0.79847 0.72512 0.66114 0.0
C1420 C 0.80145 0.74412 0.65826 0.0
C1421 C 0.78813 0.77292 0.69562 0.0
C1422 C 0.78211 0.81507 0.67223 0.0
C1423 C 0.7894 0.80096 0.67487 0.0
C1424 C 0.80586 0.75655 0.67929 0.0
C1425 C 0.80169 0.77291 0.67864 0.0
H1426 H 0.77253 0.83961 0.62714 0.0
H1427 H 0.78239 0.81506 0.63155 0.0
H1428 H 0.77087 0.78566 0.70645 0.0
H1429 H 0.80798 0.72696 0.72384 0.0
H1430 H 0.81358 0.76024 0.71877 0.0
C1431 C 0.0183 0.82304 0.71155 0.0
C1432 C 0.0285 0.82849 0.68882 0.0
C1433 C -0.00036 0.80647 0.71266 0.0
C1434 C 0.96294 0.76247 0.6766 0.0
H1435 H 0.92549 0.7733 0.70963 0.0
C1436 C 0.8818 0.7212 0.65017 0.0
C1437 C 0.86824 0.71295 0.6697 0.0
C1438 C 0.90141 0.73462 0.65534 0.0
C1439 C 0.9358 0.76997 0.70064 0.0
H1440 H 0.02794 0.82028 0.64991 0.0
H1441 H -0.00477 0.79146 0.65163 0.0
H1442 H 0.96054 0.7965 0.71415 0.0
H1443 H 0.86439 0.71337 0.70989 0.0
H1444 H 0.89891 0.73729 0.7189 0.0
H1445 H 0.93808 0.73633 0.66227 0.0
C1446 C 0.00165 0.79979 0.66872 0.0
C1447 C 0.95589 0.78318 0.70329 0.0
C1448 C 0.02039 0.8163 0.66768 0.0
C1449 C 0.87451 0.71942 0.69445 0.0
C1450 C 0.89423 0.73304 0.69962 0.0
C1451 C 0.94288 0.74937 0.6738 0.0
C1452 C 0.99077 0.79511 0.691 0.0
C1453 C 0.96968 0.77979 0.69086 0.0
C1454 C 0.90794 0.74026 0.68013 0.0
C1455 C 0.92912 0.75323 0.68532 0.0
H1456 H 0.02441 0.83211 0.7282 0.0
H1457 H 0.99186 0.803 0.73025 0.0
H1458 H 0.97315 0.75923 0.66717 0.0
H1459 H 0.87744 0.71677 0.63084 0.0
H1460 H 0.91159 0.74036 0.63991 0.0
C1461 C 0.1751 0.19646 0.67544 0.0
C1462 C 0.16536 0.19332 0.69837 0.0
C1463 C 0.19162 0.19425 0.67356 0.0
C1464 C 0.21255 0.16694 0.70402 0.0
H1465 H 0.25627 0.19678 0.65979 0.0
C1466 C 0.2767 0.15119 0.6928 0.0
C1467 C 0.28357 0.15208 0.66832 0.0
C1468 C 0.26305 0.15721 0.69783 0.0
C1469 C 0.24406 0.18822 0.67208 0.0
H1470 H 0.16622 0.18714 0.73776 0.0
H1471 H 0.19522 0.18359 0.7346 0.0
H1472 H 0.23227 0.20735 0.66671 0.0
H1473 H 0.28091 0.15929 0.62977 0.0
H1474 H 0.25698 0.16945 0.63851 0.0
H1475 H 0.22413 0.14765 0.7091 0.0
C1476 C 0.1898 0.1872 0.71791 0.0
C1477 C 0.23035 0.19431 0.67608 0.0
C1478 C 0.17326 0.18932 0.71975 0.0
C1479 C 0.27605 0.15853 0.64889 0.0
C1480 C 0.26245 0.16454 0.65392 0.0
C1481 C 0.22625 0.16087 0.70004 0.0
C1482 C 0.19875 0.18895 0.69462 0.0
C1483 C 0.21431 0.1836 0.69188 0.0
C1484 C 0.25601 0.16425 0.67849 0.0
C1485 C 0.24202 0.17128 0.68377 0.0
H1486 H 0.16925 0.19941 0.65862 0.0
H1487 H 0.19809 0.19561 0.65531 0.0
H1488 H 0.20018 0.15814 0.71597 0.0
H1489 H 0.28226 0.14637 0.7082 0.0
H1490 H 0.25842 0.15687 0.71699 0.0
C1491 C 0.80058 0.97049 0.6699 0.0
C1492 C 0.80049 0.9651 0.69499 0.0
C1493 C 0.80443 0.98937 0.66403 0.0
C1494 C 0.83004 0.0392 0.69103 0.0
H1495 H 0.80598 0.05176 0.63588 0.0
C1496 C 0.85525 0.11914 0.66989 0.0
C1497 C 0.83957 0.12279 0.66968 0.0
C1498 C 0.85168 0.09996 0.66646 0.0
C1499 C 0.8129 0.04846 0.65124 0.0
H1500 H 0.80281 0.97459 0.73367 0.0
H1501 H 0.80899 0.00749 0.72349 0.0
H1502 H 0.79482 0.01741 0.64554 0.0
H1503 H 0.80835 0.11019 0.66393 0.0
H1504 H 0.80203 0.07678 0.65776 0.0
H1505 H 0.84751 0.0701 0.6975 0.0
C1506 C 0.80671 -0.00267 0.70832 0.0
C1507 C 0.80655 0.02881 0.65674 0.0
C1508 C 0.80303 0.97849 0.71417 0.0
C1509 C 0.82062 0.10756 0.66389 0.0
C1510 C 0.81705 0.08847 0.66032 0.0
C1511 C 0.83635 0.05879 0.68558 0.0
C1512 C 0.80816 0.00319 0.68317 0.0
C1513 C 0.81486 0.02398 0.67696 0.0
C1514 C 0.83238 0.0843 0.66287 0.0
C1515 C 0.82768 0.06365 0.66585 0.0
H1516 H 0.79889 0.96052 0.65473 0.0
H1517 H 0.80554 -0.00656 0.64449 0.0
H1518 H 0.83705 0.036 0.70639 0.0
H1519 H 0.86993 0.13077 0.67464 0.0
H1520 H 0.86381 0.0972 0.66818 0.0
C1521 C 0.48832 0.3445 0.62838 0.0
C1522 C 0.49939 0.35741 0.64792 0.0
C1523 C 0.47258 0.32596 0.63372 0.0
C1524 C 0.43956 0.29422 0.68344 0.0
H1525 H 0.44 0.25316 0.6432 0.0
C1526 C 0.37439 0.21633 0.67047 0.0
C1527 C 0.37794 0.2008 0.666 0.0
C1528 C 0.38991 0.23521 0.67522 0.0
C1529 C 0.4399 0.26439 0.65497 0.0
H1530 H 0.502 0.36171 0.68821 0.0
H1531 H 0.47454 0.32916 0.6976 0.0
H1532 H 0.4643 0.28727 0.63587 0.0
H1533 H 0.4 0.19211 0.66454 0.0
H1534 H 0.4275 0.2254 0.67269 0.0
H1535 H 0.41495 0.27115 0.70239 0.0
C1536 C 0.47791 0.3334 0.67818 0.0
C1537 C 0.45358 0.28399 0.65042 0.0
C1538 C 0.49359 0.35203 0.67282 0.0
C1539 C 0.39704 0.20397 0.66814 0.0
C1540 C 0.41269 0.22298 0.67261 0.0
C1541 C 0.42578 0.27454 0.68796 0.0
C1542 C 0.46776 0.31991 0.65869 0.0
C1543 C 0.45335 0.29914 0.66426 0.0
C1544 C 0.4093 0.23891 0.67513 0.0
C1545 C 0.42564 0.25945 0.67349 0.0
H1546 H 0.49238 0.34845 0.60901 0.0
H1547 H 0.46463 0.31607 0.61829 0.0
H1548 H 0.43907 0.30559 0.69446 0.0
H1549 H 0.35967 0.21407 0.66878 0.0
H1550 H 0.3868 0.24714 0.67689 0.0
C1551 C 0.64484 0.13846 0.63198 0.0
C1552 C 0.63473 0.13422 0.65476 0.0
C1553 C 0.66282 0.13906 0.63053 0.0
C1554 C 0.69777 0.12854 0.66523 0.0
H1555 H 0.7369 0.17628 0.63325 0.0
C1556 C 0.77966 0.16405 0.68916 0.0
C1557 C 0.7932 0.17123 0.66947 0.0
C1558 C 0.75992 0.15782 0.68479 0.0
C1559 C 0.72614 0.16274 0.64191 0.0
H1560 H 0.63465 0.12584 0.69335 0.0
H1561 H 0.66627 0.12714 0.69104 0.0
H1562 H 0.70238 0.16653 0.62957 0.0
H1563 H 0.79665 0.17802 0.62983 0.0
H1564 H 0.76201 0.16724 0.62223 0.0
H1565 H 0.72171 0.12516 0.67822 0.0
C1566 C 0.66026 0.12982 0.67418 0.0
C1567 C 0.70631 0.15708 0.63975 0.0
C1568 C 0.64215 0.12907 0.67556 0.0
C1569 C 0.78661 0.17263 0.64541 0.0
C1570 C 0.76678 0.16642 0.64105 0.0
C1571 C 0.71762 0.13424 0.66745 0.0
C1572 C 0.67116 0.1356 0.6519 0.0
C1573 C 0.6919 0.14011 0.65177 0.0
C1574 C 0.75318 0.15865 0.66064 0.0
C1575 C 0.73204 0.15163 0.65625 0.0
H1576 H 0.63924 0.14222 0.61558 0.0
H1577 H 0.67059 0.14305 0.61293 0.0
H1578 H 0.68704 0.11524 0.67439 0.0
H1579 H 0.78421 0.16289 0.70798 0.0
H1580 H 0.7499 0.15236 0.7004 0.0
C1581 C 0.83126 0.48422 0.67458 0.0
C1582 C 0.84923 0.48751 0.66504 0.0
C1583 C 0.8285 0.49997 0.6805 0.0
C1584 C 0.85463 0.55405 0.69069 0.0
H1585 H 0.80591 0.54914 0.66591 0.0
C1586 C 0.84556 0.61835 0.65864 0.0
C1587 C 0.82815 0.6184 0.66394 0.0
C1588 C 0.84799 0.60272 0.66603 0.0
C1589 C 0.81938 0.5506 0.67349 0.0
H1590 H 0.87857 0.5098 0.65477 0.0
H1591 H 0.87366 0.53746 0.66461 0.0
H1592 H 0.81064 0.52082 0.66436 0.0
H1593 H 0.79995 0.60272 0.68205 0.0
H1594 H 0.80394 0.57479 0.69439 0.0
H1595 H 0.8637 0.58423 0.69845 0.0
C1596 C 0.8618 0.52269 0.66798 0.0
C1597 C 0.82214 0.53438 0.67257 0.0
C1598 C 0.86461 0.50688 0.66223 0.0
C1599 C 0.81348 0.60294 0.67772 0.0
C1600 C 0.81575 0.58702 0.68472 0.0
C1601 C 0.85191 0.57032 0.69143 0.0
C1602 C 0.8436 0.51939 0.67684 0.0
C1603 C 0.83997 0.53604 0.6806 0.0
C1604 C 0.83291 0.58666 0.67852 0.0
C1605 C 0.83445 0.56884 0.68226 0.0
H1606 H 0.81928 0.4694 0.67737 0.0
H1607 H 0.81443 0.49692 0.68771 0.0
H1608 H 0.86838 0.55571 0.69745 0.0
H1609 H 0.8572 0.63024 0.64829 0.0
H1610 H 0.86127 0.60274 0.6608 0.0
C1611 C 0.46621 0.90607 0.2611 0.0
C1612 C 0.46267 0.91579 0.28083 0.0
C1613 C 0.47154 0.91467 0.23744 0.0
C1614 C 0.48779 0.96159 0.20315 0.0
H1615 H 0.45823 0.92685 0.14785 0.0
C1616 C 0.46661 0.98757 0.11451 0.0
C1617 C 0.46753 0.97987 0.09105 0.0
C1618 C 0.47053 0.98061 0.13649 0.0
C1619 C 0.4669 0.93668 0.16298 0.0
H1620 H 0.46318 0.94268 0.29164 0.0
H1621 H 0.47201 0.9575 0.25043 0.0
H1622 H 0.45717 0.91315 0.18909 0.0
H1623 H 0.47372 0.95911 0.07214 0.0
H1624 H 0.48019 0.94648 0.11099 0.0
H1625 H 0.49662 0.98521 0.17721 0.0
C1626 C 0.47089 0.94331 0.25313 0.0
C1627 C 0.46634 0.92885 0.18664 0.0
C1628 C 0.46562 0.93474 0.27675 0.0
C1629 C 0.47294 0.96532 0.08998 0.0
C1630 C 0.47655 0.95807 0.11215 0.0
C1631 C 0.48822 0.96942 0.17955 0.0
C1632 C 0.47343 0.93319 0.233 0.0
C1633 C 0.47637 0.94126 0.20718 0.0
C1634 C 0.47524 0.96559 0.13562 0.0
C1635 C 0.47738 0.95709 0.15939 0.0
H1636 H 0.46394 0.8914 0.26357 0.0
H1637 H 0.47365 0.90659 0.22245 0.0
H1638 H 0.496 0.97155 0.2184 0.0
H1639 H 0.46261 -0.00111 0.11594 0.0
H1640 H 0.46917 0.98653 0.15428 0.0
C1641 C 0.05909 0.53368 0.27802 0.0
C1642 C 0.07924 0.54651 0.28142 0.0
C1643 C 0.05065 0.53038 0.25415 0.0
C1644 C 0.05875 0.54597 0.1875 0.0
H1645 H 0.02482 0.49005 0.176 0.0
C1646 C 0.03171 0.50612 0.08957 0.0
C1647 C 0.01202 0.49096 0.08888 0.0
C1648 C 0.0402 0.51612 0.11217 0.0
C1649 C 0.03409 0.50573 0.17894 0.0
H1650 H 0.10625 0.56691 0.26316 0.0
H1651 H 0.09156 0.56091 0.22107 0.0
H1652 H 0.03856 0.50192 0.21746 0.0
H1653 H 0.98535 0.47568 0.11051 0.0
H1654 H 2e-05 0.49309 0.14946 0.0
H1655 H 0.0544 0.54947 0.14841 0.0
C1656 C 0.0822 0.55362 0.23686 0.0
C1657 C 0.04191 0.51257 0.20276 0.0
C1658 C 0.09061 0.55709 0.2609 0.0
C1659 C 0.00066 0.48704 0.11054 0.0
C1660 C 0.00906 0.49698 0.13289 0.0
C1661 C 0.05092 0.53905 0.16344 0.0
C1662 C 0.06229 0.53957 0.23312 0.0
C1663 C 0.0541 0.53278 0.20748 0.0
C1664 C 0.02906 0.51108 0.13422 0.0
C1665 C 0.03829 0.51887 0.15909 0.0
H1666 H 0.05008 0.52538 0.29365 0.0
H1667 H 0.03517 0.51984 0.25198 0.0
H1668 H 0.06816 0.56161 0.19054 0.0
H1669 H 0.04079 0.50947 0.07311 0.0
H1670 H 0.05567 0.52698 0.11272 0.0
C1671 C 0.45104 0.52169 0.26268 0.0
C1672 C 0.45903 0.54006 0.27485 0.0
C1673 C 0.45677 0.52044 0.23816 0.0
C1674 C 0.49835 0.5443 0.19781 0.0
H1675 H 0.46348 0.52673 0.14003 0.0
C1676 C 0.52929 0.55355 0.09807 0.0
C1677 C 0.51833 0.5382 0.08108 0.0
C1678 C 0.52106 0.55441 0.12096 0.0
C1679 C 0.47343 0.53141 0.15596 0.0
H1680 H 0.47781 0.57154 0.27015 0.0
H1681 H 0.48817 0.56917 0.22815 0.0
H1682 H 0.45011 0.52446 0.18186 0.0
H1683 H 0.49051 0.51177 0.07434 0.0
H1684 H 0.47643 0.51276 0.11408 0.0
H1685 H 0.52163 0.55078 0.17248 0.0
C1686 C 0.47781 0.55581 0.23757 0.0
C1687 C 0.4657 0.53007 0.17987 0.0
C1688 C 0.47194 0.55709 0.26165 0.0
C1689 C 0.49903 0.52404 0.08692 0.0
C1690 C 0.49096 0.52465 0.1098 0.0
C1691 C 0.50605 0.5453 0.17403 0.0
C1692 C 0.47058 0.53751 0.22579 0.0
C1693 C 0.47815 0.5367 0.20089 0.0
C1694 C 0.50192 0.53964 0.12737 0.0
C1695 C 0.49374 0.53905 0.1527 0.0
H1696 H 0.44092 0.50838 0.27235 0.0
H1697 H 0.45094 0.50617 0.22919 0.0
H1698 H 0.5082 0.54953 0.21389 0.0
H1699 H 0.54431 0.56446 0.09401 0.0
H1700 H 0.52984 0.5664 0.1338 0.0
C1701 C 0.92298 0.4702 0.74381 0.0
C1702 C 0.9094 0.45225 0.73256 0.0
C1703 C 0.92909 0.47062 0.76871 0.0
C1704 C 0.93713 0.43955 0.81108 0.0
H1705 H 0.93908 0.47374 0.86499 0.0
C1706 C 0.96407 0.43521 0.91101 0.0
C1707 C 0.9767 0.45344 0.92228 0.0
C1708 C 0.95382 0.43434 0.88893 0.0
C1709 C 0.93879 0.46419 0.85006 0.0
H1710 H 0.89051 0.42106 0.73854 0.0
H1711 H 0.90127 0.42179 0.78171 0.0
H1712 H 0.92553 0.47505 0.82409 0.0
H1713 H 0.98806 0.48485 0.9203 0.0
H1714 H 0.97056 0.48341 0.8821 0.0
H1715 H 0.95096 0.42912 0.83649 0.0
C1716 C 0.90731 0.43543 0.77145 0.0
C1717 C 0.93103 0.46498 0.82672 0.0
C1718 C 0.90112 0.43504 0.74687 0.0
C1719 C 0.97852 0.47061 0.91174 0.0
C1720 C 0.9683 0.46976 0.88998 0.0
C1721 C 0.9451 0.43892 0.83428 0.0
C1722 C 0.92177 0.45308 0.78234 0.0
C1723 C 0.93013 0.45265 0.80707 0.0
C1724 C 0.95594 0.45167 0.87813 0.0
C1725 C 0.94611 0.45128 0.85405 0.0
H1726 H 0.92958 0.48359 0.73301 0.0
H1727 H 0.94028 0.48442 0.77681 0.0
H1728 H 0.93677 0.43003 0.79606 0.0
H1729 H 0.96239 0.42181 0.91898 0.0
H1730 H 0.94426 0.42014 0.88033 0.0
C1731 C 0.53788 0.43881 0.74273 0.0
C1732 C 0.53872 0.45026 0.72214 0.0
C1733 C 0.53279 0.44246 0.76643 0.0
C1734 C 0.53296 0.48322 0.80157 0.0
H1735 H 0.50531 0.44376 0.85217 0.0
C1736 C 0.51092 0.50359 0.89296 0.0
C1737 C 0.51772 0.4991 0.915 0.0
C1738 C 0.51091 0.49488 0.87019 0.0
C1739 C 0.51313 0.45488 0.83821 0.0
H1740 H 0.53361 0.47351 0.70961 0.0
H1741 H 0.52398 0.47943 0.75064 0.0
H1742 H 0.5093 0.43361 0.81005 0.0
H1743 H 0.5284 0.48077 0.93078 0.0
H1744 H 0.52823 0.46526 0.89049 0.0
H1745 H 0.53659 0.50442 0.82946 0.0
C1746 C 0.52793 0.4681 0.74884 0.0
C1747 C 0.51546 0.44912 0.81413 0.0
C1748 C 0.53328 0.46464 0.72529 0.0
C1749 C 0.52313 0.48454 0.91408 0.0
C1750 C 0.52303 0.47569 0.89109 0.0
C1751 C 0.53047 0.4889 0.8254 0.0
C1752 C 0.52827 0.45754 0.7699 0.0
C1753 C 0.52532 0.46325 0.79547 0.0
C1754 C 0.51758 0.48136 0.86884 0.0
C1755 C 0.52044 0.47483 0.84391 0.0
H1756 H 0.54217 0.42773 0.74078 0.0
H1757 H 0.53333 0.43412 0.7822 0.0
H1758 H 0.54116 0.49458 0.78803 0.0
H1759 H 0.50637 0.51453 0.89304 0.0
H1760 H 0.50631 0.49926 0.85339 0.0
C1761 C 0.54809 0.09153 0.75584 0.0
C1762 C 0.53923 0.08038 0.73406 0.0
C1763 C 0.54112 0.08359 0.77952 0.0
C1764 C 0.50929 0.03707 0.81301 0.0
H1765 H 0.4994 0.07043 0.85736 0.0
C1766 C 0.46068 0.00431 0.89837 0.0
C1767 C 0.46825 0.01437 0.92121 0.0
C1768 C 0.46862 0.01346 0.87564 0.0
C1769 C 0.5022 0.06098 0.84529 0.0
H1770 H 0.5172 0.05185 0.71987 0.0
H1771 H 0.50515 0.03791 0.76106 0.0
H1772 H 0.51707 0.08372 0.81834 0.0
H1773 H 0.48883 0.04253 0.93801 0.0
H1774 H 0.50272 0.05855 0.89827 0.0
H1775 H 0.49441 0.01433 0.8398 0.0
C1776 C 0.51741 0.05277 0.76002 0.0
C1777 C 0.51242 0.06862 0.823 0.0
C1778 C 0.52429 0.06073 0.73641 0.0
C1779 C 0.4826 0.0344 0.92073 0.0
C1780 C 0.49065 0.04356 0.89792 0.0
C1781 C 0.4991 0.02946 0.83526 0.0
C1782 C 0.52528 0.06432 0.78182 0.0
C1783 C 0.51593 0.05669 0.80649 0.0
C1784 C 0.48438 0.03288 0.87522 0.0
C1785 C 0.49521 0.04123 0.85155 0.0
H1786 H 0.55952 0.10677 0.75454 0.0
H1787 H 0.54769 0.09275 0.796 0.0
H1788 H 0.51198 0.02757 0.8009 0.0
H1789 H 0.44951 0.9889 0.89814 0.0
H1790 H 0.46303 0.00501 0.85844 0.0
C1791 C 0.13055 0.23547 0.5945 0.0
C1792 C 0.13109 0.24746 0.61445 0.0
C1793 C 0.13499 0.24291 0.57015 0.0
C1794 C 0.1573 0.28923 0.5337 0.0
H1795 H 0.11896 0.25735 0.48271 0.0
C1796 C 0.1406 0.32128 0.44702 0.0
C1797 C 0.1371 0.31147 0.42385 0.0
C1798 C 0.1437 0.31328 0.46864 0.0
C1799 C 0.13003 0.26627 0.49658 0.0
H1800 H 0.13758 0.27677 0.625 0.0
H1801 H 0.14551 0.28986 0.58269 0.0
H1802 H 0.11761 0.24364 0.52412 0.0
H1803 H 0.13457 0.28585 0.40487 0.0
H1804 H 0.13957 0.27146 0.44314 0.0
H1805 H 0.16915 0.31214 0.50647 0.0
C1806 C 0.14175 0.27475 0.58568 0.0
C1807 C 0.12927 0.25843 0.52031 0.0
C1808 C 0.13716 0.26727 0.60991 0.0
C1809 C 0.13737 0.29374 0.42252 0.0
C1810 C 0.14009 0.28548 0.44438 0.0
C1811 C 0.158 0.29708 0.51003 0.0
C1812 C 0.14023 0.26254 0.5654 0.0
C1813 C 0.14264 0.26997 0.53932 0.0
C1814 C 0.14305 0.2951 0.4677 0.0
C1815 C 0.14412 0.28583 0.4914 0.0
H1816 H 0.12566 0.22007 0.59749 0.0
H1817 H 0.13383 0.23318 0.55495 0.0
H1818 H 0.16798 0.2984 0.5478 0.0
H1819 H 0.14052 0.33501 0.44852 0.0
H1820 H 0.14574 0.32095 0.48633 0.0
C1821 C 0.72644 0.86349 0.60868 0.0
C1822 C 0.74569 0.87849 0.61395 0.0
C1823 C 0.71819 0.86175 0.58492 0.0
C1824 C 0.73383 0.87222 0.51984 0.0
H1825 H 0.67798 0.84913 0.5076 0.0
C1826 C 0.69764 0.84011 0.42286 0.0
C1827 C 0.68287 0.82034 0.42487 0.0
C1828 C 0.70492 0.852 0.44442 0.0
C1829 C 0.69364 0.85576 0.51069 0.0
H1830 H 0.77101 0.90412 0.59901 0.0
H1831 H 0.75649 0.90122 0.55737 0.0
H1832 H 0.69151 0.86224 0.54918 0.0
H1833 H 0.66338 0.79783 0.45057 0.0
H1834 H 0.67575 0.81854 0.48782 0.0
H1835 H 0.73578 0.865 0.48157 0.0
C1836 C 0.74785 0.8907 0.57159 0.0
C1837 C 0.70138 0.86321 0.53449 0.0
C1838 C 0.75609 0.89248 0.59547 0.0
C1839 C 0.6749 0.81297 0.44849 0.0
C1840 C 0.68185 0.82488 0.46981 0.0
C1841 C 0.72609 0.86488 0.49598 0.0
C1842 C 0.72903 0.87496 0.56584 0.0
C1843 C 0.72145 0.87084 0.5396 0.0
C1844 C 0.69716 0.8444 0.46811 0.0
C1845 C 0.70582 0.85592 0.49146 0.0
H1846 H 0.71808 0.85257 0.62266 0.0
H1847 H 0.70375 0.84933 0.58113 0.0
H1848 H 0.74931 0.87778 0.52317 0.0
H1849 H 0.70403 0.84613 0.40485 0.0
H1850 H 0.71675 0.86702 0.44265 0.0
C1851 C 0.12371 0.88377 0.58414 0.0
C1852 C 0.11982 0.86865 0.60107 0.0
C1853 C 0.13105 0.8838 0.56043 0.0
C1854 C 0.13547 0.85797 0.50913 0.0
H1855 H 0.18999 0.89908 0.50418 0.0
C1856 C 0.17662 0.87892 0.41544 0.0
C1857 C 0.19261 0.87561 0.41532 0.0
C1858 C 0.16817 0.87968 0.43808 0.0
C1859 C 0.17478 0.88761 0.50533 0.0
H1860 H 0.11953 0.84121 0.6063 0.0
H1861 H 0.13169 0.8408 0.5639 0.0
H1862 H 0.17218 0.89499 0.54336 0.0
H1863 H 0.21336 0.87231 0.43873 0.0
H1864 H 0.19915 0.8747 0.47841 0.0
H1865 H 0.13791 0.85087 0.47091 0.0
C1866 C 0.12914 0.85265 0.56928 0.0
C1867 C 0.16464 0.88525 0.52763 0.0
C1868 C 0.12207 0.85279 0.59331 0.0
C1869 C 0.20113 0.87499 0.4383 0.0
C1870 C 0.19294 0.87622 0.46096 0.0
C1871 C 0.14549 0.86059 0.48663 0.0
C1872 C 0.13434 0.86855 0.5531 0.0
C1873 C 0.14495 0.8704 0.52968 0.0
C1874 C 0.17588 0.87768 0.46096 0.0
C1875 C 0.16522 0.87543 0.48457 0.0
H1876 H 0.12238 0.8963 0.58996 0.0
H1877 H 0.13498 0.89617 0.5482 0.0
H1878 H 0.12028 0.84646 0.51039 0.0
H1879 H 0.16957 0.87922 0.39807 0.0
H1880 H 0.15512 0.88101 0.4377 0.0
C1881 C 0.59729 0.80508 0.08073 0.0
C1882 C 0.57792 0.79146 0.07374 0.0
C1883 C 0.60408 0.8048 0.10497 0.0
C1884 C 0.60426 0.77231 0.14627 0.0
H1885 H 0.61175 0.8044 0.20534 0.0
C1886 C 0.65098 0.77881 0.23458 0.0
C1887 C 0.64275 0.7788 0.25789 0.0
C1888 C 0.64106 0.77783 0.2123 0.0
C1889 C 0.60956 0.79524 0.18901 0.0
H1890 H 0.55027 0.76746 0.08635 0.0
H1891 H 0.56221 0.76688 0.12869 0.0
H1892 H 0.59886 0.81059 0.16647 0.0
H1893 H 0.61698 0.77614 0.27614 0.0
H1894 H 0.59983 0.77468 0.23718 0.0
H1895 H 0.61537 0.75724 0.16849 0.0
C1896 C 0.57194 0.77797 0.11568 0.0
C1897 C 0.60235 0.79889 0.16687 0.0
C1898 C 0.56509 0.77845 0.09166 0.0
C1899 C 0.62367 0.77603 0.2585 0.0
C1900 C 0.61394 0.77546 0.23623 0.0
C1901 C 0.61174 0.76885 0.16828 0.0
C1902 C 0.59161 0.79069 0.12217 0.0
C1903 C 0.59961 0.78739 0.14545 0.0
C1904 C 0.6229 0.77715 0.21301 0.0
C1905 C 0.61434 0.7802 0.18988 0.0
H1906 H 0.6075 0.81487 0.06696 0.0
H1907 H 0.61936 0.81463 0.10971 0.0
H1908 H 0.60218 0.7633 0.12982 0.0
H1909 H 0.6657 0.78102 0.23358 0.0
H1910 H 0.64824 0.7791 0.19458 0.0
C1911 C 0.19719 0.79926 0.05575 0.0
C1912 C 0.20138 0.78394 0.05328 0.0
C1913 C 0.19215 0.80358 0.07897 0.0
C1914 C 0.17779 0.78697 0.14419 0.0
H1915 H 0.20995 0.84267 0.15874 0.0
C1916 C 0.19039 0.82322 0.244 0.0
C1917 C 0.19274 0.84216 0.24473 0.0
C1918 C 0.18793 0.81356 0.22088 0.0
C1919 C 0.20058 0.82712 0.15493 0.0
H1920 H 0.20233 0.76027 0.07278 0.0
H1921 H 0.19359 0.76792 0.11359 0.0
H1922 H 0.21121 0.83021 0.11763 0.0
H1923 H 0.19246 0.86505 0.22257 0.0
H1924 H 0.18746 0.84808 0.18271 0.0
H1925 H 0.16733 0.78405 0.18193 0.0
C1926 C 0.19407 0.77649 0.09748 0.0
C1927 C 0.20131 0.81997 0.13131 0.0
C1928 C 0.19907 0.77211 0.07414 0.0
C1929 C 0.19107 0.8506 0.22243 0.0
C1930 C 0.18831 0.84091 0.19959 0.0
C1931 C 0.17696 0.7942 0.168 0.0
C1932 C 0.19132 0.79274 0.10029 0.0
C1933 C 0.18984 0.79987 0.12554 0.0
C1934 C 0.18757 0.82269 0.19837 0.0
C1935 C 0.18823 0.81442 0.1735 0.0
H1936 H 0.19857 0.80841 0.03988 0.0
H1937 H 0.18968 0.81593 0.08047 0.0
H1938 H 0.16885 0.77139 0.14026 0.0
H1939 H 0.19161 0.81642 0.26102 0.0
H1940 H 0.18738 0.79951 0.22055 0.0
C1941 C 0.18899 0.39397 0.06932 0.0
C1942 C 0.20401 0.41357 0.06675 0.0
C1943 C 0.18176 0.38634 0.09294 0.0
C1944 C 0.19046 0.3947 0.16149 0.0
H1945 H 0.13362 0.36544 0.16345 0.0
C1946 C 0.14958 0.36843 0.25522 0.0
C1947 C 0.135 0.34847 0.25535 0.0
C1948 C 0.15725 0.37802 0.23251 0.0
C1949 C 0.14949 0.37349 0.16325 0.0
H1950 H 0.22416 0.44015 0.08701 0.0
H1951 H 0.21159 0.42678 0.12848 0.0
H1952 H 0.15004 0.37769 0.12365 0.0
H1953 H 0.11583 0.32349 0.23182 0.0
H1954 H 0.12895 0.34016 0.19241 0.0
H1955 H 0.18986 0.39028 0.20114 0.0
C1956 C 0.20541 0.41729 0.11219 0.0
C1957 C 0.15893 0.38044 0.14039 0.0
C1958 C 0.21269 0.42493 0.08846 0.0
C1959 C 0.12704 0.33888 0.23234 0.0
C1960 C 0.13461 0.34846 0.20971 0.0
C1961 C 0.18099 0.3877 0.18441 0.0
C1962 C 0.18934 0.39815 0.11459 0.0
C1963 C 0.17953 0.39094 0.13915 0.0
C1964 C 0.15035 0.3679 0.20951 0.0
C1965 C 0.16038 0.37685 0.18554 0.0
H1966 H 0.18214 0.38485 0.05288 0.0
H1967 H 0.16974 0.37137 0.09418 0.0
H1968 H 0.20633 0.40266 0.16118 0.0
H1969 H 0.15611 0.37623 0.27261 0.0
H1970 H 0.16911 0.39312 0.23298 0.0
C1971 C 0.80855 0.60222 0.94525 0.0
C1972 C 0.79658 0.58189 0.94858 0.0
C1973 C 0.81176 0.61018 0.92116 0.0
C1974 C 0.78624 0.6078 0.86873 0.0
H1975 H 0.82916 0.62321 0.82243 0.0
C1976 C 0.77785 0.62529 0.76725 0.0
C1977 C 0.79406 0.64033 0.75503 0.0
C1978 C 0.78014 0.61838 0.79031 0.0
C1979 C 0.81717 0.61925 0.83523 0.0
H1980 H 0.77885 0.5539 0.92981 0.0
H1981 H 0.7842 0.5679 0.88764 0.0
H1982 H 0.83103 0.61135 0.86428 0.0
H1983 H 0.82546 0.65984 0.75694 0.0
H1984 H 0.82948 0.64842 0.79806 0.0
H1985 H 0.77245 0.61603 0.8406 0.0
C1986 C 0.79149 0.57753 0.90354 0.0
C1987 C 0.81825 0.61238 0.85907 0.0
C1988 C 0.78852 0.56955 0.92753 0.0
C1989 C 0.81276 0.64809 0.76599 0.0
C1990 C 0.81502 0.6415 0.7895 0.0
C1991 C 0.78525 0.61487 0.84517 0.0
C1992 C 0.80278 0.59791 0.90028 0.0
C1993 C 0.80264 0.60637 0.87575 0.0
C1994 C 0.79865 0.62674 0.80216 0.0
C1995 C 0.8005 0.62032 0.82783 0.0
H1996 H 0.81457 0.61197 0.96135 0.0
H1997 H 0.82029 0.62597 0.91897 0.0
H1998 H 0.77412 0.60335 0.8815 0.0
H1999 H 0.7633 0.61891 0.75898 0.0
H2000 H 0.76726 0.60654 0.79893 0.0
C2001 C 0.39114 0.19548 0.94322 0.0
C2002 C 0.41011 0.21117 0.94807 0.0
C2003 C 0.38244 0.19315 0.91965 0.0
C2004 C 0.39733 0.2042 0.85427 0.0
H2005 H 0.3411 0.17672 0.84292 0.0
C2006 C 0.36118 0.17073 0.7576 0.0
C2007 C 0.34772 0.15051 0.75942 0.0
C2008 C 0.36807 0.18246 0.77931 0.0
C2009 C 0.35685 0.18458 0.84578 0.0
H2010 H 0.43434 0.23752 0.93268 0.0
H2011 H 0.41895 0.2337 0.89146 0.0
H2012 H 0.35436 0.19076 0.88425 0.0
H2013 H 0.33027 0.12692 0.7851 0.0
H2014 H 0.34199 0.14737 0.82268 0.0
H2015 H 0.39969 0.19743 0.81593 0.0
C2016 C 0.41093 0.22301 0.90581 0.0
C2017 C 0.36444 0.19255 0.86944 0.0
C2018 C 0.41965 0.22534 0.92948 0.0
C2019 C 0.34075 0.14242 0.78312 0.0
C2020 C 0.34732 0.15416 0.80463 0.0
C2021 C 0.38972 0.19638 0.83053 0.0
C2022 C 0.3925 0.20651 0.90037 0.0
C2023 C 0.38473 0.20179 0.87423 0.0
C2024 C 0.36122 0.17422 0.80301 0.0
C2025 C 0.36938 0.18587 0.82635 0.0
H2026 H 0.38343 0.18441 0.9573 0.0
H2027 H 0.36834 0.18016 0.91615 0.0
H2028 H 0.41301 0.21099 0.85733 0.0
H2029 H 0.36679 0.17732 0.73954 0.0
H2030 H 0.37883 0.19791 0.77762 0.0
C2031 C 0.7844 0.18742 0.9255 0.0
C2032 C 0.79218 0.20544 0.93841 0.0
C2033 C 0.79094 0.18673 0.90128 0.0
C2034 C 0.8339 0.21397 0.86159 0.0
H2035 H 0.79904 0.18728 0.80537 0.0
C2036 C 0.86304 0.21971 0.76071 0.0
C2037 C 0.85466 0.20189 0.74737 0.0
C2038 C 0.85472 0.22091 0.7834 0.0
C2039 C 0.80899 0.19467 0.82094 0.0
H2040 H 0.81153 0.23697 0.93536 0.0
H2041 H 0.82308 0.23565 0.8938 0.0
H2042 H 0.78533 0.18623 0.84669 0.0
H2043 H 0.83093 0.17169 0.74634 0.0
H2044 H 0.81663 0.17366 0.78557 0.0
H2045 H 0.85758 0.22213 0.83617 0.0
C2046 C 0.81237 0.22205 0.90241 0.0
C2047 C 0.8011 0.194 0.84456 0.0
C2048 C 0.80576 0.22275 0.92624 0.0
C2049 C 0.83768 0.18558 0.75646 0.0
C2050 C 0.82938 0.18677 0.77883 0.0
C2051 C 0.84179 0.21451 0.83806 0.0
C2052 C 0.80534 0.20405 0.88984 0.0
C2053 C 0.8135 0.2037 0.86506 0.0
C2054 C 0.83785 0.20435 0.79277 0.0
C2055 C 0.82944 0.20486 0.81744 0.0
H2056 H 0.77379 0.17391 0.93438 0.0
H2057 H 0.78523 0.17266 0.89181 0.0
H2058 H 0.84379 0.22145 0.87721 0.0
H2059 H 0.8761 0.23246 0.75391 0.0
H2060 H 0.86148 0.23473 0.79363 0.0
C2061 C 0.23473 0.108 0.42029 0.0
C2062 C 0.24642 0.12282 0.40336 0.0
C2063 C 0.24172 0.1079 0.44433 0.0
C2064 C 0.27185 0.13288 0.49613 0.0
H2065 H 0.28547 0.09174 0.50076 0.0
C2066 C 0.29297 0.11166 0.58954 0.0
C2067 C 0.31241 0.11541 0.58959 0.0
C2068 C 0.28345 0.11072 0.56694 0.0
C2069 C 0.28165 0.1032 0.4997 0.0
H2070 H 0.27399 0.14971 0.39838 0.0
H2071 H 0.28601 0.15002 0.44129 0.0
H2072 H 0.27163 0.09613 0.46154 0.0
H2073 H 0.33641 0.11926 0.56613 0.0
H2074 H 0.31929 0.11657 0.5265 0.0
H2075 H 0.28151 0.13972 0.53444 0.0
C2076 C 0.27151 0.13847 0.43571 0.0
C2077 C 0.2738 0.10572 0.47739 0.0
C2078 C 0.26462 0.13839 0.41137 0.0
C2079 C 0.3214 0.11623 0.56659 0.0
C2080 C 0.31167 0.11483 0.54398 0.0
C2081 C 0.27932 0.13009 0.51864 0.0
C2082 C 0.26038 0.1228 0.45191 0.0
C2083 C 0.26893 0.1206 0.47546 0.0
C2084 C 0.293 0.11299 0.54406 0.0
C2085 C 0.28431 0.11525 0.52056 0.0
H2086 H 0.22081 0.09567 0.41424 0.0
H2087 H 0.23298 0.09569 0.45657 0.0
H2088 H 0.26815 0.14441 0.49493 0.0
H2089 H 0.28574 0.1112 0.60695 0.0
H2090 H 0.26896 0.10911 0.56737 0.0
C2091 C 0.86597 0.13263 0.39272 0.0
C2092 C 0.86953 0.117 0.38861 0.0
C2093 C 0.85983 0.1354 0.41612 0.0
C2094 C 0.86282 0.12521 0.48255 0.0
H2095 H 0.82973 0.14841 0.49058 0.0
C2096 C 0.8538 0.1544 0.57841 0.0
C2097 C 0.85864 0.17419 0.57713 0.0
C2098 C 0.85022 0.14326 0.55638 0.0
C2099 C 0.83889 0.1418 0.48863 0.0
H2100 H 0.8688 0.09163 0.40567 0.0
H2101 H 0.85767 0.09623 0.4464 0.0
H2102 H 0.83228 0.1361 0.44946 0.0
H2103 H 0.86229 0.19745 0.55217 0.0
H2104 H 0.85576 0.17802 0.51397 0.0
H2105 H 0.86987 0.13148 0.52157 0.0
C2106 C 0.85986 0.10648 0.43157 0.0
C2107 C 0.84042 0.13483 0.46509 0.0
C2108 C 0.86602 0.10372 0.40814 0.0
C2109 C 0.85877 0.18228 0.55368 0.0
C2110 C 0.85486 0.1711 0.53181 0.0
C2111 C 0.86118 0.13207 0.50612 0.0
C2112 C 0.85706 0.12258 0.43599 0.0
C2113 C 0.85291 0.12704 0.4616 0.0
C2114 C 0.851 0.15163 0.53285 0.0
C2115 C 0.8497 0.14101 0.50921 0.0
H2116 H 0.86836 0.143 0.37797 0.0
H2117 H 0.85805 0.14809 0.41891 0.0
H2118 H 0.87274 0.11951 0.4805 0.0
H2119 H 0.8536 0.14782 0.59628 0.0
H2120 H 0.84722 0.12825 0.55767 0.0
C2121 C 0.88117 0.75791 0.42131 0.0
C2122 C 0.87304 0.74656 0.39947 0.0
C2123 C 0.87417 0.74981 0.44489 0.0
C2124 C 0.84447 0.70301 0.47847 0.0
H2125 H 0.83056 0.73417 0.52132 0.0
C2126 C 0.79672 0.66835 0.56405 0.0
C2127 C 0.80346 0.67909 0.58661 0.0
C2128 C 0.80413 0.67742 0.54112 0.0
C2129 C 0.8345 0.72535 0.50968 0.0
H2130 H 0.85226 0.71763 0.38506 0.0
H2131 H 0.84028 0.70333 0.42617 0.0
H2132 H 0.84815 0.74807 0.48242 0.0
H2133 H 0.82189 0.70814 0.60265 0.0
H2134 H 0.8349 0.72398 0.56257 0.0
H2135 H 0.83094 0.68032 0.50562 0.0
C2136 C 0.85197 0.71848 0.4252 0.0
C2137 C 0.84466 0.73334 0.48746 0.0
C2138 C 0.85882 0.72663 0.40167 0.0
C2139 C 0.81634 0.69948 0.58558 0.0
C2140 C 0.82387 0.70855 0.56258 0.0
C2141 C 0.83438 0.69505 0.50068 0.0
C2142 C 0.85906 0.73016 0.44702 0.0
C2143 C 0.84963 0.72221 0.47152 0.0
C2144 C 0.81854 0.6974 0.54022 0.0
C2145 C 0.82909 0.70603 0.51646 0.0
H2146 H 0.89198 0.77338 0.42007 0.0
H2147 H 0.8801 0.75908 0.46141 0.0
H2148 H 0.84829 0.69415 0.46674 0.0
H2149 H 0.78667 0.65264 0.56424 0.0
H2150 H 0.79924 0.66853 0.52417 0.0
loop_
_geom_bond_atom_site_label_1
_geom_bond_atom_site_label_2
_geom_bond_distance
_geom_bond_site_symmetry_2
_ccdc_geom_bond_type
H0 C1 0.949 . S
C1 H0 0.949 . S
C1 C2 1.395 . S
C1 C3 1.391 . S
C2 C1 1.395 . S
C2 C5 1.390 . S
C3 C1 1.391 . S
C3 C7 1.387 . S
C3 C8 1.491 . S
H4 C5 0.950 . S
C5 C2 1.390 . S
C5 H4 0.950 . S
C5 C6 1.378 . S
C6 C5 1.378 . S
C6 C7 1.409 . S
C7 C3 1.387 . S
C7 C6 1.409 . S
C7 H9 0.951 . S
C8 C3 1.491 . S
C8 C10 1.382 . S
C8 C12 1.404 . S
H9 C7 0.951 . S
C10 C8 1.382 . S
C10 C11 1.390 . S
C10 H15 0.949 . S
C11 C10 1.390 . S
C11 C16 1.399 . S
C12 C8 1.404 . S
C12 H13 0.950 . S
C12 C14 1.375 . S
H13 C12 0.950 . S
C14 C12 1.375 . S
C14 C16 1.382 . S
C14 H18 0.950 . S
H15 C10 0.949 . S
C16 C11 1.399 . S
C16 C14 1.382 . S
C16 H17 0.952 . S
H17 C16 0.952 . S
H18 C14 0.950 . S
H19 C20 0.949 . S
C20 H19 0.949 . S
C20 C21 1.395 . S
C20 C22 1.391 . S
C21 C20 1.395 . S
C21 C24 1.390 . S
C22 C20 1.391 . S
C22 C26 1.387 . S
C22 C27 1.491 . S
H23 C24 0.950 . S
C24 C21 1.390 . S
C24 H23 0.950 . S
C24 C25 1.378 . S
C25 C24 1.378 . S
C25 C26 1.409 . S
C26 C22 1.387 . S
C26 C25 1.409 . S
C26 H28 0.951 . S
C27 C22 1.491 . S
C27 C29 1.382 . S
C27 C31 1.404 . S
H28 C26 0.951 . S
C29 C27 1.382 . S
C29 C30 1.390 . S
C29 H34 0.949 . S
C30 C29 1.390 . S
C30 C35 1.399 . S
C31 C27 1.404 . S
C31 H32 0.950 . S
C31 C33 1.375 . S
H32 C31 0.950 . S
C33 C31 1.375 . S
C33 C35 1.382 . S
C33 H37 0.950 . S
H34 C29 0.949 . S
C35 C30 1.399 . S
C35 C33 1.382 . S
C35 H36 0.952 . S
H36 C35 0.952 . S
H37 C33 0.950 . S
H38 C39 0.949 . S
C39 H38 0.949 . S
C39 C40 1.395 . S
C39 C41 1.391 . S
C40 C39 1.395 . S
C40 C43 1.390 . S
C41 C39 1.391 . S
C41 C45 1.387 . S
C41 C46 1.491 . S
H42 C43 0.950 . S
C43 C40 1.390 . S
C43 H42 0.950 . S
C43 C44 1.378 . S
C44 C43 1.378 . S
C44 C45 1.409 . S
C45 C41 1.387 . S
C45 C44 1.409 . S
C45 H47 0.951 . S
C46 C41 1.491 . S
C46 C48 1.382 . S
C46 C50 1.404 . S
H47 C45 0.951 . S
C48 C46 1.382 . S
C48 C49 1.390 . S
C48 H53 0.949 . S
C49 C48 1.390 . S
C49 C54 1.399 . S
C50 C46 1.404 . S
C50 H51 0.950 . S
C50 C52 1.375 . S
H51 C50 0.950 . S
C52 C50 1.375 . S
C52 C54 1.382 . S
C52 H56 0.950 . S
H53 C48 0.949 . S
C54 C49 1.399 . S
C54 C52 1.382 . S
C54 H55 0.952 . S
H55 C54 0.952 . S
H56 C52 0.950 . S
H57 C58 0.949 . S
C58 H57 0.949 . S
C58 C59 1.395 . S
C58 C60 1.391 . S
C59 C58 1.395 . S
C59 C62 1.390 . S
C60 C58 1.391 . S
C60 C64 1.387 . S
C60 C65 1.491 . S
H61 C62 0.950 . S
C62 C59 1.390 . S
C62 H61 0.950 . S
C62 C63 1.378 . S
C63 C62 1.378 . S
C63 C64 1.409 . S
C64 C60 1.387 . S
C64 C63 1.409 . S
C64 H66 0.951 . S
C65 C60 1.491 . S
C65 C67 1.382 . S
C65 C69 1.404 . S
H66 C64 0.951 . S
C67 C65 1.382 . S
C67 C68 1.390 . S
C67 H72 0.949 . S
C68 C67 1.390 . S
C68 C73 1.399 . S
C69 C65 1.404 . S
C69 H70 0.950 . S
C69 C71 1.375 . S
H70 C69 0.950 . S
C71 C69 1.375 . S
C71 C73 1.382 . S
C71 H75 0.950 . S
H72 C67 0.949 . S
C73 C68 1.399 . S
C73 C71 1.382 . S
C73 H74 0.952 . S
H74 C73 0.952 . S
H75 C71 0.950 . S
H76 C77 0.949 . S
C77 H76 0.949 . S
C77 C78 1.395 . S
C77 C79 1.391 . S
C78 C77 1.395 . S
C78 C81 1.390 . S
C79 C77 1.391 . S
C79 C83 1.387 . S
C79 C84 1.491 . S
H80 C81 0.950 . S
C81 C78 1.390 . S
C81 H80 0.950 . S
C81 C82 1.378 . S
C82 C81 1.378 . S
C82 C83 1.409 . S
C83 C79 1.387 . S
C83 C82 1.409 . S
C83 H85 0.951 . S
C84 C79 1.491 . S
C84 C86 1.382 . S
C84 C88 1.404 . S
H85 C83 0.951 . S
C86 C84 1.382 . S
C86 C87 1.390 . S
C86 H91 0.949 . S
C87 C86 1.390 . S
C87 C92 1.399 . S
C88 C84 1.404 . S
C88 H89 0.950 . S
C88 C90 1.375 . S
H89 C88 0.950 . S
C90 C88 1.375 . S
C90 C92 1.382 . S
C90 H94 0.950 . S
H91 C86 0.949 . S
C92 C87 1.399 . S
C92 C90 1.382 . S
C92 H93 0.952 . S
H93 C92 0.952 . S
H94 C90 0.950 . S
H95 C96 0.949 . S
C96 H95 0.949 . S
C96 C97 1.395 . S
C96 C98 1.391 . S
C97 C96 1.395 . S
C97 C100 1.390 . S
C98 C96 1.391 . S
C98 C102 1.387 . S
C98 C103 1.491 . S
H99 C100 0.950 . S
C100 C97 1.390 . S
C100 H99 0.950 . S
C100 C101 1.378 . S
C101 C100 1.378 . S
C101 C102 1.409 . S
C102 C98 1.387 . S
C102 C101 1.409 . S
C102 H104 0.951 . S
C103 C98 1.491 . S
C103 C105 1.382 . S
C103 C107 1.404 . S
H104 C102 0.951 . S
C105 C103 1.382 . S
C105 C106 1.390 . S
C105 H110 0.949 . S
C106 C105 1.390 . S
C106 C111 1.399 . S
C107 C103 1.404 . S
C107 H108 0.950 . S
C107 C109 1.375 . S
H108 C107 0.950 . S
C109 C107 1.375 . S
C109 C111 1.382 . S
C109 H113 0.950 . S
H110 C105 0.949 . S
C111 C106 1.399 . S
C111 C109 1.382 . S
C111 H112 0.952 . S
H112 C111 0.952 . S
H113 C109 0.950 . S
H114 C115 0.949 . S
C115 H114 0.949 . S
C115 C116 1.395 . S
C115 C117 1.391 . S
C116 C115 1.395 . S
C116 C119 1.390 . S
C117 C115 1.391 . S
C117 C121 1.387 . S
C117 C122 1.491 . S
H118 C119 0.950 . S
C119 C116 1.390 . S
C119 H118 0.950 . S
C119 C120 1.378 . S
C120 C119 1.378 . S
C120 C121 1.409 . S
C121 C117 1.387 . S
C121 C120 1.409 . S
C121 H123 0.951 . S
C122 C117 1.491 . S
C122 C124 1.382 . S
C122 C126 1.404 . S
H123 C121 0.951 . S
C124 C122 1.382 . S
C124 C125 1.390 . S
C124 H129 0.949 . S
C125 C124 1.390 . S
C125 C130 1.399 . S
C126 C122 1.404 . S
C126 H127 0.950 . S
C126 C128 1.375 . S
H127 C126 0.950 . S
C128 C126 1.375 . S
C128 C130 1.382 . S
C128 H132 0.950 . S
H129 C124 0.949 . S
C130 C125 1.399 . S
C130 C128 1.382 . S
C130 H131 0.952 . S
H131 C130 0.952 . S
H132 C128 0.950 . S
H133 C134 0.949 . S
C134 H133 0.949 . S
C134 C135 1.395 . S
C134 C136 1.391 . S
C135 C134 1.395 . S
C135 C138 1.390 . S
C136 C134 1.391 . S
C136 C140 1.387 . S
C136 C141 1.491 . S
H137 C138 0.950 . S
C138 C135 1.390 . S
C138 H137 0.950 . S
C138 C139 1.378 . S
C139 C138 1.378 . S
C139 C140 1.409 . S
C140 C136 1.387 . S
C140 C139 1.409 . S
C140 H142 0.951 . S
C141 C136 1.491 . S
C141 C143 1.382 . S
C141 C145 1.404 . S
H142 C140 0.951 . S
C143 C141 1.382 . S
C143 C144 1.390 . S
C143 H148 0.949 . S
C144 C143 1.390 . S
C144 C149 1.399 . S
C145 C141 1.404 . S
C145 H146 0.950 . S
C145 C147 1.375 . S
H146 C145 0.950 . S
C147 C145 1.375 . S
C147 C149 1.382 . S
C147 H151 0.950 . S
H148 C143 0.949 . S
C149 C144 1.399 . S
C149 C147 1.382 . S
C149 H150 0.952 . S
H150 C149 0.952 . S
H151 C147 0.950 . S
H152 C153 0.949 . S
C153 H152 0.949 . S
C153 C154 1.395 . S
C153 C155 1.391 . S
C154 C153 1.395 . S
C154 C157 1.390 . S
C155 C153 1.391 . S
C155 C159 1.387 . S
C155 C160 1.491 . S
H156 C157 0.950 . S
C157 C154 1.390 . S
C157 H156 0.950 . S
C157 C158 1.378 . S
C158 C157 1.378 . S
C158 C159 1.409 . S
C159 C155 1.387 . S
C159 C158 1.409 . S
C159 H161 0.951 . S
C160 C155 1.491 . S
C160 C162 1.382 . S
C160 C164 1.404 . S
H161 C159 0.951 . S
C162 C160 1.382 . S
C162 C163 1.390 . S
C162 H167 0.949 . S
C163 C162 1.390 . S
C163 C168 1.399 . S
C164 C160 1.404 . S
C164 H165 0.950 . S
C164 C166 1.375 . S
H165 C164 0.950 . S
C166 C164 1.375 . S
C166 C168 1.382 . S
C166 H170 0.950 . S
H167 C162 0.949 . S
C168 C163 1.399 . S
C168 C166 1.382 . S
C168 H169 0.952 . S
H169 C168 0.952 . S
H170 C166 0.950 . S
H171 C172 0.949 . S
C172 H171 0.949 . S
C172 C173 1.395 . S
C172 C174 1.391 1_556 S
C173 C172 1.395 . S
C173 C176 1.390 . S
C174 C172 1.391 1_554 S
C174 C178 1.387 . S
C174 C179 1.491 . S
H175 C176 0.950 . S
C176 C173 1.390 . S
C176 H175 0.950 . S
C176 C177 1.378 1_556 S
C177 C176 1.378 1_554 S
C177 C178 1.409 . S
C178 C174 1.387 . S
C178 C177 1.409 . S
C178 H180 0.951 . S
C179 C174 1.491 . S
C179 C181 1.382 . S
C179 C183 1.404 . S
H180 C178 0.951 . S
C181 C179 1.382 . S
C181 C182 1.390 . S
C181 H186 0.949 . S
C182 C181 1.390 . S
C182 C187 1.399 . S
C183 C179 1.404 . S
C183 H184 0.950 . S
C183 C185 1.375 . S
H184 C183 0.950 . S
C185 C183 1.375 . S
C185 C187 1.382 . S
C185 H189 0.950 . S
H186 C181 0.949 . S
C187 C182 1.399 . S
C187 C185 1.382 . S
C187 H188 0.952 . S
H188 C187 0.952 . S
H189 C185 0.950 . S
H190 C191 0.949 . S
C191 H190 0.949 . S
C191 C192 1.395 . S
C191 C193 1.391 1_556 S
C192 C191 1.395 . S
C192 C195 1.390 . S
C193 C191 1.391 1_554 S
C193 C197 1.387 . S
C193 C198 1.491 . S
H194 C195 0.950 . S
C195 C192 1.390 . S
C195 H194 0.950 . S
C195 C196 1.378 1_556 S
C196 C195 1.378 1_554 S
C196 C197 1.409 . S
C197 C193 1.387 . S
C197 C196 1.409 . S
C197 H199 0.951 . S
C198 C193 1.491 . S
C198 C200 1.382 . S
C198 C202 1.404 . S
H199 C197 0.951 . S
C200 C198 1.382 . S
C200 C201 1.390 . S
C200 H205 0.949 . S
C201 C200 1.390 . S
C201 C206 1.399 . S
C202 C198 1.404 . S
C202 H203 0.950 . S
C202 C204 1.375 . S
H203 C202 0.950 . S
C204 C202 1.375 . S
C204 C206 1.382 . S
C204 H208 0.950 . S
H205 C200 0.949 . S
C206 C201 1.399 . S
C206 C204 1.382 . S
C206 H207 0.952 . S
H207 C206 0.952 . S
H208 C204 0.950 . S
H209 C210 0.949 . S
C210 H209 0.949 . S
C210 C211 1.395 . S
C210 C212 1.391 . S
C211 C210 1.395 . S
C211 C214 1.390 . S
C212 C210 1.391 . S
C212 C216 1.387 1_556 S
C212 C217 1.491 1_556 S
H213 C214 0.950 . S
C214 C211 1.390 . S
C214 H213 0.950 . S
C214 C215 1.378 . S
C215 C214 1.378 . S
C215 C216 1.409 1_556 S
C216 C212 1.387 1_554 S
C216 C215 1.409 1_554 S
C216 H218 0.951 . S
C217 C212 1.491 1_554 S
C217 C219 1.382 . S
C217 C221 1.404 . S
H218 C216 0.951 . S
C219 C217 1.382 . S
C219 C220 1.390 . S
C219 H224 0.949 . S
C220 C219 1.390 . S
C220 C225 1.399 . S
C221 C217 1.404 . S
C221 H222 0.950 . S
C221 C223 1.375 . S
H222 C221 0.950 . S
C223 C221 1.375 . S
C223 C225 1.382 . S
C223 H227 0.950 . S
H224 C219 0.949 . S
C225 C220 1.399 . S
C225 C223 1.382 . S
C225 H226 0.952 . S
H226 C225 0.952 . S
H227 C223 0.950 . S
H228 C229 0.949 . S
C229 H228 0.949 . S
C229 C230 1.395 . S
C229 C231 1.391 . S
C230 C229 1.395 . S
C230 C233 1.390 . S
C231 C229 1.391 . S
C231 C235 1.387 1_554 S
C231 C236 1.491 1_554 S
H232 C233 0.950 . S
C233 C230 1.390 . S
C233 H232 0.950 . S
C233 C234 1.415 . S
C234 C233 1.415 . S
C234 C235 1.392 1_554 S
C235 C231 1.387 1_556 S
C235 C234 1.392 1_556 S
C235 H237 0.951 . S
C236 C231 1.491 1_556 S
C236 C238 1.382 . S
C236 C240 1.404 . S
H237 C235 0.951 . S
C238 C236 1.382 . S
C238 C239 1.390 . S
C238 H243 0.949 . S
C239 C238 1.390 . S
C239 C244 1.399 . S
C240 C236 1.404 . S
C240 H241 0.950 . S
C240 C242 1.375 . S
H241 C240 0.950 . S
C242 C240 1.375 . S
C242 C244 1.382 . S
C242 H246 0.950 . S
H243 C238 0.949 . S
C244 C239 1.399 . S
C244 C242 1.382 . S
C244 H245 0.952 . S
H245 C244 0.952 . S
H246 C242 0.950 . S
H247 C248 0.949 . S
C248 H247 0.949 . S
C248 C249 1.395 . S
C248 C250 1.391 1_554 S
C249 C248 1.395 . S
C249 C252 1.390 . S
C250 C248 1.391 1_556 S
C250 C254 1.387 . S
C250 C255 1.491 . S
H251 C252 0.950 . S
C252 C249 1.390 . S
C252 H251 0.950 . S
C252 C253 1.378 1_554 S
C253 C252 1.378 1_556 S
C253 C254 1.409 . S
C254 C250 1.387 . S
C254 C253 1.409 . S
C254 H256 0.951 . S
C255 C250 1.491 . S
C255 C257 1.382 . S
C255 C259 1.404 . S
H256 C254 0.951 . S
C257 C255 1.382 . S
C257 C258 1.390 . S
C257 H262 0.949 . S
C258 C257 1.390 . S
C258 C263 1.399 . S
C259 C255 1.404 . S
C259 H260 0.950 . S
C259 C261 1.375 . S
H260 C259 0.950 . S
C261 C259 1.375 . S
C261 C263 1.382 . S
C261 H265 0.950 . S
H262 C257 0.949 . S
C263 C258 1.399 . S
C263 C261 1.382 . S
C263 H264 0.952 . S
H264 C263 0.952 . S
H265 C261 0.950 . S
H266 C267 0.949 . S
C267 H266 0.949 . S
C267 C268 1.395 . S
C267 C269 1.391 . S
C268 C267 1.395 . S
C268 C271 1.390 . S
C269 C267 1.391 . S
C269 C273 1.387 1_554 S
C269 C274 1.491 1_554 S
H270 C271 0.950 . S
C271 C268 1.390 . S
C271 H270 0.950 . S
C271 C272 1.378 . S
C272 C271 1.378 . S
C272 C273 1.409 1_554 S
C273 C269 1.387 1_556 S
C273 C272 1.409 1_556 S
C273 H275 0.951 . S
C274 C269 1.491 1_556 S
C274 C276 1.382 . S
C274 C278 1.404 . S
H275 C273 0.951 . S
C276 C274 1.382 . S
C276 C277 1.390 . S
C276 H281 0.937 1_556 S
C277 C276 1.390 . S
C277 C282 1.399 . S
C278 C274 1.404 . S
C278 H279 0.950 . S
C278 C280 1.375 . S
H279 C278 0.950 . S
C280 C278 1.375 . S
C280 C282 1.382 . S
C280 H284 0.950 . S
H281 C276 0.937 1_554 S
C282 C277 1.399 . S
C282 C280 1.382 . S
C282 H283 0.952 . S
H283 C282 0.952 . S
H284 C280 0.950 . S
H285 C286 0.949 . S
C286 H285 0.949 . S
C286 C287 1.395 . S
C286 C288 1.391 . S
C287 C286 1.395 . S
C287 C290 1.390 . S
C288 C286 1.391 . S
C288 C292 1.387 . S
C288 C293 1.491 . S
H289 C290 0.950 . S
C290 C287 1.390 . S
C290 H289 0.950 . S
C290 C291 1.378 . S
C291 C290 1.378 . S
C291 C292 1.409 . S
C292 C288 1.387 . S
C292 C291 1.409 . S
C292 H294 0.951 . S
C293 C288 1.491 . S
C293 C295 1.382 . S
C293 C297 1.404 . S
H294 C292 0.951 . S
C295 C293 1.382 . S
C295 C296 1.390 . S
C295 H300 0.949 . S
C296 C295 1.390 . S
C296 C301 1.399 . S
C297 C293 1.404 . S
C297 H298 0.950 . S
C297 C299 1.375 . S
H298 C297 0.950 . S
C299 C297 1.375 . S
C299 C301 1.382 . S
C299 H303 0.950 . S
H300 C295 0.949 . S
C301 C296 1.399 . S
C301 C299 1.382 . S
C301 H302 0.952 . S
H302 C301 0.952 . S
H303 C299 0.950 . S
H304 C305 0.949 . S
C305 H304 0.949 . S
C305 C306 1.395 . S
C305 C307 1.391 . S
C306 C305 1.395 . S
C306 C309 1.390 . S
C307 C305 1.391 . S
C307 C311 1.387 . S
C307 C312 1.491 . S
H308 C309 0.950 . S
C309 C306 1.390 . S
C309 H308 0.950 . S
C309 C310 1.378 . S
C310 C309 1.378 . S
C310 C311 1.409 . S
C311 C307 1.387 . S
C311 C310 1.409 . S
C311 H313 0.951 . S
C312 C307 1.491 . S
C312 C314 1.382 . S
C312 C316 1.404 . S
H313 C311 0.951 . S
C314 C312 1.382 . S
C314 C315 1.390 . S
C314 H319 0.949 . S
C315 C314 1.390 . S
C315 C320 1.399 . S
C316 C312 1.404 . S
C316 H317 0.950 . S
C316 C318 1.375 . S
H317 C316 0.950 . S
C318 C316 1.375 . S
C318 C320 1.382 . S
C318 H322 0.950 . S
H319 C314 0.949 . S
C320 C315 1.399 . S
C320 C318 1.382 . S
C320 H321 0.952 . S
H321 C320 0.952 . S
H322 C318 0.950 . S
H323 C324 0.949 . S
C324 H323 0.949 . S
C324 C325 1.395 . S
C324 C326 1.391 . S
C325 C324 1.395 . S
C325 C328 1.390 . S
C326 C324 1.391 . S
C326 C330 1.387 . S
C326 C331 1.491 . S
H327 C328 0.950 . S
C328 C325 1.390 . S
C328 H327 0.950 . S
C328 C329 1.378 . S
C329 C328 1.378 . S
C329 C330 1.409 . S
C330 C326 1.387 . S
C330 C329 1.409 . S
C330 H332 0.951 . S
C331 C326 1.491 . S
C331 C333 1.382 . S
C331 C335 1.404 . S
H332 C330 0.951 . S
C333 C331 1.382 . S
C333 C334 1.390 . S
C333 H338 0.949 . S
C334 C333 1.390 . S
C334 C339 1.399 . S
C335 C331 1.404 . S
C335 H336 0.950 . S
C335 C337 1.375 . S
H336 C335 0.950 . S
C337 C335 1.375 . S
C337 C339 1.382 . S
C337 H341 0.950 . S
H338 C333 0.949 . S
C339 C334 1.399 . S
C339 C337 1.382 . S
C339 H340 0.952 . S
H340 C339 0.952 . S
H341 C337 0.950 . S
O342 Mg343 1.990 . S
O342 C356 1.253 . S
Mg343 O342 1.990 . S
Mg343 O346 2.180 1_545 S
Mg343 O347 2.117 1_545 S
Mg343 O361 2.030 . S
O344 Mg345 2.072 1_556 S
O344 C356 1.260 . S
Mg345 O344 2.072 1_554 S
Mg345 O346 2.099 1_544 S
Mg345 O348 2.072 1_545 S
Mg345 O349 2.071 1_544 S
Mg345 O351 2.099 . S
Mg345 O362 2.079 . S
O346 Mg343 2.180 1_565 S
O346 Mg345 2.099 1_566 S
O346 C357 1.279 . S
O347 Mg343 2.117 1_565 S
O347 C357 1.250 . S
O348 Mg345 2.072 1_565 S
O348 C358 1.264 . S
O349 Mg345 2.071 1_566 S
O349 C359 1.259 1_556 S
Mg350 O351 2.180 . S
Mg350 O352 2.030 1_545 S
Mg350 O353 1.990 1_545 S
Mg350 O354 2.117 . S
O351 Mg345 2.099 . S
O351 Mg350 2.180 . S
O351 C360 1.279 . S
O352 Mg350 2.030 1_565 S
O352 C358 1.248 . S
O353 Mg350 1.990 1_565 S
O353 C359 1.253 . S
O354 Mg350 2.117 . S
O354 C360 1.250 . S
C355 O361 1.213 1_554 S
C355 O362 1.286 . S
C356 O342 1.253 . S
C356 O344 1.260 . S
C357 O346 1.279 . S
C357 O347 1.250 . S
C358 O348 1.264 . S
C358 O352 1.248 . S
C359 O349 1.259 1_554 S
C359 O353 1.253 . S
C360 O351 1.279 . S
C360 O354 1.250 . S
O361 Mg343 2.030 . S
O361 C355 1.213 1_556 S
O362 Mg345 2.079 . S
O362 C355 1.286 . S
O363 Mg364 1.983 . S
O363 C377 1.256 1_455 S
Mg364 O363 1.983 . S
Mg364 O367 2.180 . S
Mg364 O368 2.117 . S
Mg364 O382 2.030 1_455 S
O365 Mg366 2.072 1_656 S
O365 C377 1.260 . S
Mg366 O365 2.072 1_454 S
Mg366 O367 2.099 1_554 S
Mg366 O369 2.079 . S
Mg366 O370 2.074 . S
Mg366 O372 2.099 1_455 S
Mg366 O383 2.079 1_455 S
O367 Mg364 2.180 . S
O367 Mg366 2.099 1_556 S
O367 C378 1.279 . S
O368 Mg364 2.117 . S
O368 C378 1.250 . S
O369 Mg366 2.079 . S
O369 C379 1.264 . S
O370 Mg366 2.074 . S
O370 C380 1.263 . S
Mg371 O372 2.180 1_455 S
Mg371 O373 2.030 . S
Mg371 O374 1.990 . S
Mg371 O375 2.117 1_455 S
O372 Mg366 2.099 1_655 S
O372 Mg371 2.180 1_655 S
O372 C381 1.279 . S
O373 Mg371 2.030 . S
O373 C379 1.248 . S
O374 Mg371 1.990 . S
O374 C380 1.253 . S
O375 Mg371 2.117 1_655 S
O375 C381 1.250 . S
C376 O382 1.226 1_554 S
C376 O383 1.277 . S
C377 O363 1.256 1_655 S
C377 O365 1.260 . S
C378 O367 1.279 . S
C378 O368 1.250 . S
C379 O369 1.264 . S
C379 O373 1.248 . S
C380 O370 1.263 . S
C380 O374 1.253 . S
C381 O372 1.279 . S
C381 O375 1.250 . S
O382 Mg364 2.030 1_655 S
O382 C376 1.226 1_556 S
O383 Mg366 2.079 1_655 S
O383 C376 1.277 . S
O384 Mg385 1.990 . S
O384 C398 1.253 . S
Mg385 O384 1.990 . S
Mg385 O388 2.180 . S
Mg385 O389 2.117 . S
Mg385 O403 2.030 . S
O386 Mg387 2.072 1_554 S
O386 C398 1.260 . S
Mg387 O386 2.072 1_556 S
Mg387 O388 2.099 1_556 S
Mg387 O390 2.079 . S
Mg387 O391 2.072 1_556 S
Mg387 O393 2.099 . S
Mg387 O404 2.079 . S
O388 Mg385 2.180 . S
O388 Mg387 2.099 1_554 S
O388 C399 1.279 . S
O389 Mg385 2.117 . S
O389 C399 1.250 . S
O390 Mg387 2.079 . S
O390 C400 1.264 . S
O391 Mg387 2.072 1_554 S
O391 C401 1.260 1_554 S
Mg392 O393 2.180 . S
Mg392 O394 2.030 . S
Mg392 O395 1.990 . S
Mg392 O396 2.117 . S
O393 Mg387 2.099 . S
O393 Mg392 2.180 . S
O393 C402 1.279 . S
O394 Mg392 2.030 . S
O394 C400 1.248 . S
O395 Mg392 1.990 . S
O395 C401 1.253 . S
O396 Mg392 2.117 . S
O396 C402 1.250 . S
C397 O403 1.248 . S
C397 O404 1.264 1_554 S
C398 O384 1.253 . S
C398 O386 1.260 . S
C399 O388 1.279 . S
C399 O389 1.250 . S
C400 O390 1.264 . S
C400 O394 1.248 . S
C401 O391 1.260 1_556 S
C401 O395 1.253 . S
C402 O393 1.279 . S
C402 O396 1.250 . S
O403 Mg385 2.030 . S
O403 C397 1.248 . S
O404 Mg387 2.079 . S
O404 C397 1.264 1_556 S
O405 Mg406 1.990 . S
O405 C419 1.253 . S
Mg406 O405 1.990 . S
Mg406 O409 2.180 . S
Mg406 O410 2.117 . S
Mg406 O424 2.030 . S
O407 Mg408 2.072 . S
O407 C419 1.260 . S
Mg408 O407 2.072 . S
Mg408 O409 2.099 . S
Mg408 O411 2.079 . S
Mg408 O412 2.072 . S
Mg408 O414 2.099 . S
Mg408 O425 2.079 . S
O409 Mg406 2.180 . S
O409 Mg408 2.099 . S
O409 C420 1.279 . S
O410 Mg406 2.117 . S
O410 C420 1.250 . S
O411 Mg408 2.079 . S
O411 C421 1.264 . S
O412 Mg408 2.072 . S
O412 C422 1.260 . S
Mg413 O414 2.180 . S
Mg413 O415 2.030 . S
Mg413 O416 1.990 . S
Mg413 O417 2.117 . S
O414 Mg408 2.099 . S
O414 Mg413 2.180 . S
O414 C423 1.279 . S
O415 Mg413 2.030 . S
O415 C421 1.248 . S
O416 Mg413 1.990 . S
O416 C422 1.253 . S
O417 Mg413 2.117 . S
O417 C423 1.250 . S
C418 O424 1.248 . S
C418 O425 1.264 . S
C419 O405 1.253 . S
C419 O407 1.260 . S
C420 O409 1.279 . S
C420 O410 1.250 . S
C421 O411 1.264 . S
C421 O415 1.248 . S
C422 O412 1.260 . S
C422 O416 1.253 . S
C423 O414 1.279 . S
C423 O417 1.250 . S
O424 Mg406 2.030 . S
O424 C418 1.248 . S
O425 Mg408 2.079 . S
O425 C418 1.264 . S
O426 Mg427 1.990 . S
O426 C440 1.253 . S
Mg427 O426 1.990 . S
Mg427 O430 2.180 . S
Mg427 O431 2.117 . S
Mg427 O445 2.030 . S
O428 Mg429 2.072 . S
O428 C440 1.260 . S
Mg429 O428 2.072 . S
Mg429 O430 2.099 . S
Mg429 O432 2.079 . S
Mg429 O433 2.072 . S
Mg429 O435 2.099 . S
Mg429 O446 2.079 . S
O430 Mg427 2.180 . S
O430 Mg429 2.099 . S
O430 C441 1.279 . S
O431 Mg427 2.117 . S
O431 C441 1.250 . S
O432 Mg429 2.079 . S
O432 C442 1.264 . S
O433 Mg429 2.072 . S
O433 C443 1.260 . S
Mg434 O435 2.180 . S
Mg434 O436 2.030 . S
Mg434 O437 1.990 . S
Mg434 O438 2.117 . S
O435 Mg429 2.099 . S
O435 Mg434 2.180 . S
O435 C444 1.279 . S
O436 Mg434 2.030 . S
O436 C442 1.248 . S
O437 Mg434 1.990 . S
O437 C443 1.253 . S
O438 Mg434 2.117 . S
O438 C444 1.250 . S
C439 O445 1.248 . S
C439 O446 1.264 . S
C440 O426 1.253 . S
C440 O428 1.260 . S
C441 O430 1.279 . S
C441 O431 1.250 . S
C442 O432 1.264 . S
C442 O436 1.248 . S
C443 O433 1.260 . S
C443 O437 1.253 . S
C444 O435 1.279 . S
C444 O438 1.250 . S
O445 Mg427 2.030 . S
O445 C439 1.248 . S
O446 Mg429 2.079 . S
O446 C439 1.264 . S
O447 Mg448 1.990 . S
O447 C461 1.253 . S
Mg448 O447 1.990 . S
Mg448 O451 2.180 . S
Mg448 O452 2.117 . S
Mg448 O466 2.030 . S
O449 Mg450 2.072 . S
O449 C461 1.260 . S
Mg450 O449 2.072 . S
Mg450 O451 2.099 . S
Mg450 O453 2.079 . S
Mg450 O454 2.072 . S
Mg450 O456 2.099 . S
Mg450 O467 2.079 . S
O451 Mg448 2.180 . S
O451 Mg450 2.099 . S
O451 C462 1.279 . S
O452 Mg448 2.117 . S
O452 C462 1.250 . S
O453 Mg450 2.079 . S
O453 C463 1.264 . S
O454 Mg450 2.072 . S
O454 C464 1.260 . S
Mg455 O456 2.180 . S
Mg455 O457 2.030 . S
Mg455 O458 1.990 . S
Mg455 O459 2.117 . S
O456 Mg450 2.099 . S
O456 Mg455 2.180 . S
O456 C465 1.279 . S
O457 Mg455 2.030 . S
O457 C463 1.248 . S
O458 Mg455 1.990 . S
O458 C464 1.253 . S
O459 Mg455 2.117 . S
O459 C465 1.250 . S
C460 O466 1.248 . S
C460 O467 1.264 . S
C461 O447 1.253 . S
C461 O449 1.260 . S
C462 O451 1.279 . S
C462 O452 1.250 . S
C463 O453 1.264 . S
C463 O457 1.248 . S
C464 O454 1.260 . S
C464 O458 1.253 . S
C465 O456 1.279 . S
C465 O459 1.250 . S
O466 Mg448 2.030 . S
O466 C460 1.248 . S
O467 Mg450 2.079 . S
O467 C460 1.264 . S
O468 Mg469 1.990 . S
O468 C482 1.253 . S
Mg469 O468 1.990 . S
Mg469 O472 2.180 . S
Mg469 O473 2.117 . S
Mg469 O487 2.030 . S
O470 Mg471 2.072 . S
O470 C482 1.260 . S
Mg471 O470 2.072 . S
Mg471 O472 2.099 . S
Mg471 O474 2.079 . S
Mg471 O475 2.072 . S
Mg471 O477 2.099 . S
Mg471 O488 2.079 . S
O472 Mg469 2.180 . S
O472 Mg471 2.099 . S
O472 C483 1.279 . S
O473 Mg469 2.117 . S
O473 C483 1.250 . S
O474 Mg471 2.079 . S
O474 C484 1.264 . S
O475 Mg471 2.072 . S
O475 C485 1.260 . S
Mg476 O477 2.180 . S
Mg476 O478 2.030 . S
Mg476 O479 1.990 . S
Mg476 O480 2.117 . S
O477 Mg471 2.099 . S
O477 Mg476 2.180 . S
O477 C486 1.279 . S
O478 Mg476 2.030 . S
O478 C484 1.248 . S
O479 Mg476 1.990 . S
O479 C485 1.253 . S
O480 Mg476 2.117 . S
O480 C486 1.250 . S
C481 O487 1.248 . S
C481 O488 1.264 . S
C482 O468 1.253 . S
C482 O470 1.260 . S
C483 O472 1.279 . S
C483 O473 1.250 . S
C484 O474 1.264 . S
C484 O478 1.248 . S
C485 O475 1.260 . S
C485 O479 1.253 . S
C486 O477 1.279 . S
C486 O480 1.250 . S
O487 Mg469 2.030 . S
O487 C481 1.248 . S
O488 Mg471 2.079 . S
O488 C481 1.264 . S
O489 Mg490 1.990 . S
O489 C503 1.253 . S
Mg490 O489 1.990 . S
Mg490 O493 2.180 . S
Mg490 O494 2.117 . S
Mg490 O508 2.030 . S
O491 Mg492 2.072 . S
O491 C503 1.260 . S
Mg492 O491 2.072 . S
Mg492 O493 2.099 . S
Mg492 O495 2.079 . S
Mg492 O496 2.072 . S
Mg492 O498 2.099 . S
Mg492 O509 2.079 . S
O493 Mg490 2.180 . S
O493 Mg492 2.099 . S
O493 C504 1.279 . S
O494 Mg490 2.117 . S
O494 C504 1.250 . S
O495 Mg492 2.079 . S
O495 C505 1.264 . S
O496 Mg492 2.072 . S
O496 C506 1.260 . S
Mg497 O498 2.180 . S
Mg497 O499 2.030 . S
Mg497 O500 1.990 . S
Mg497 O501 2.117 . S
O498 Mg492 2.099 . S
O498 Mg497 2.180 . S
O498 C507 1.279 . S
O499 Mg497 2.030 . S
O499 C505 1.248 . S
O500 Mg497 1.990 . S
O500 C506 1.253 . S
O501 Mg497 2.117 . S
O501 C507 1.250 . S
C502 O508 1.248 . S
C502 O509 1.264 . S
C503 O489 1.253 . S
C503 O491 1.260 . S
C504 O493 1.279 . S
C504 O494 1.250 . S
C505 O495 1.264 . S
C505 O499 1.248 . S
C506 O496 1.260 . S
C506 O500 1.253 . S
C507 O498 1.279 . S
C507 O501 1.250 . S
O508 Mg490 2.030 . S
O508 C502 1.248 . S
O509 Mg492 2.079 . S
O509 C502 1.264 . S
O510 Mg511 1.990 . S
O510 C524 1.253 . S
Mg511 O510 1.990 . S
Mg511 O514 2.180 . S
Mg511 O515 2.117 . S
Mg511 O529 2.030 . S
O512 Mg513 2.072 . S
O512 C524 1.260 . S
Mg513 O512 2.072 . S
Mg513 O514 2.099 . S
Mg513 O516 2.079 . S
Mg513 O517 2.072 . S
Mg513 O519 2.099 . S
Mg513 O530 2.079 . S
O514 Mg511 2.180 . S
O514 Mg513 2.099 . S
O514 C525 1.279 . S
O515 Mg511 2.117 . S
O515 C525 1.250 . S
O516 Mg513 2.079 . S
O516 C526 1.264 . S
O517 Mg513 2.072 . S
O517 C527 1.260 . S
Mg518 O519 2.180 . S
Mg518 O520 2.030 . S
Mg518 O521 1.990 . S
Mg518 O522 2.117 . S
O519 Mg513 2.099 . S
O519 Mg518 2.180 . S
O519 C528 1.279 . S
O520 Mg518 2.030 . S
O520 C526 1.248 . S
O521 Mg518 1.990 . S
O521 C527 1.253 . S
O522 Mg518 2.117 . S
O522 C528 1.250 . S
C523 O529 1.248 . S
C523 O530 1.264 . S
C524 O510 1.253 . S
C524 O512 1.260 . S
C525 O514 1.279 . S
C525 O515 1.250 . S
C526 O516 1.264 . S
C526 O520 1.248 . S
C527 O517 1.260 . S
C527 O521 1.253 . S
C528 O519 1.279 . S
C528 O522 1.250 . S
O529 Mg511 2.030 . S
O529 C523 1.248 . S
O530 Mg513 2.079 . S
O530 C523 1.264 . S
C531 C532 1.349 1_554 S
C531 C533 1.327 . S
C531 H556 0.950 . S
C532 C531 1.349 1_556 S
C532 C548 1.349 . S
C533 C531 1.327 . S
C533 C552 1.429 1_554 S
C533 H557 0.950 . S
C534 C551 1.574 . S
C534 C553 1.368 . S
C534 H558 0.949 . S
H535 C539 0.949 . S
C536 C537 1.323 1_556 S
C536 C538 1.327 . S
C536 H559 0.950 . S
C537 C536 1.323 1_554 S
C537 C549 1.374 . S
C538 C536 1.327 . S
C538 C554 1.429 . S
C538 H560 0.950 . S
C539 H535 0.949 . S
C539 C547 1.574 . S
C539 C555 1.368 1_554 S
H540 C548 0.950 . S
H541 C546 0.950 . S
H542 C547 0.949 . S
H543 C549 0.950 . S
H544 C550 0.950 . S
H545 C551 0.949 . S
C546 H541 0.950 . S
C546 C548 1.327 . S
C546 C552 1.429 . S
C547 C539 1.574 . S
C547 H542 0.949 . S
C547 C553 1.368 1_554 S
C548 C532 1.349 . S
C548 H540 0.950 . S
C548 C546 1.327 . S
C549 C537 1.374 . S
C549 H543 0.950 . S
C549 C550 1.327 . S
C550 H544 0.950 . S
C550 C549 1.327 . S
C550 C554 1.429 1_554 S
C551 C534 1.574 . S
C551 H545 0.949 . S
C551 C555 1.368 . S
C552 C533 1.429 1_556 S
C552 C546 1.429 . S
C552 C553 1.523 . S
C553 C534 1.368 . S
C553 C547 1.368 1_556 S
C553 C552 1.523 . S
C554 C538 1.429 . S
C554 C550 1.429 1_556 S
C554 C555 1.523 . S
C555 C539 1.368 1_556 S
C555 C551 1.368 . S
C555 C554 1.523 . S
H556 C531 0.950 . S
H557 C533 0.950 . S
H558 C534 0.949 . S
H559 C536 0.950 . S
H560 C538 0.950 . S
C561 C562 1.347 1_556 S
C561 C563 1.327 . S
C561 H586 0.950 . S
C562 C561 1.347 1_554 S
C562 C578 1.350 . S
C563 C561 1.327 . S
C563 C582 1.415 1_556 S
C563 H587 0.950 . S
C564 C581 1.574 . S
C564 C583 1.391 . S
C564 H588 0.949 . S
H565 C569 0.949 . S
C566 C567 1.349 . S
C566 C568 1.327 . S
C566 H589 0.950 . S
C567 C566 1.349 . S
C567 C579 1.349 1_554 S
C568 C566 1.327 . S
C568 C584 1.429 . S
C568 H590 0.950 . S
C569 H565 0.949 . S
C569 C577 1.574 . S
C569 C585 1.368 1_556 S
H570 C578 0.950 . S
H571 C576 0.950 . S
H572 C577 0.949 . S
H573 C579 0.950 . S
H574 C580 0.950 . S
H575 C581 0.949 . S
C576 H571 0.950 . S
C576 C578 1.327 . S
C576 C582 1.442 . S
C577 C569 1.574 . S
C577 H572 0.949 . S
C577 C583 1.347 1_556 S
C578 C562 1.350 . S
C578 H570 0.950 . S
C578 C576 1.327 . S
C579 C567 1.349 1_556 S
C579 H573 0.950 . S
C579 C580 1.327 . S
C580 H574 0.950 . S
C580 C579 1.327 . S
C580 C584 1.429 1_556 S
C581 C564 1.574 . S
C581 H575 0.949 . S
C581 C585 1.368 . S
C582 C563 1.415 1_554 S
C582 C576 1.442 . S
C582 C583 1.523 . S
C583 C564 1.391 . S
C583 C577 1.347 1_554 S
C583 C582 1.523 . S
C584 C568 1.429 . S
C584 C580 1.429 1_554 S
C584 C585 1.523 . S
C585 C569 1.368 1_554 S
C585 C581 1.368 . S
C585 C584 1.523 . S
H586 C561 0.950 . S
H587 C563 0.950 . S
H588 C564 0.949 . S
H589 C566 0.950 . S
H590 C568 0.950 . S
C591 C592 1.349 . S
C591 C593 1.327 . S
C591 H616 0.950 . S
C592 C591 1.349 . S
C592 C608 1.349 1_556 S
C593 C591 1.327 . S
C593 C612 1.429 . S
C593 H617 0.950 . S
C594 C611 1.574 . S
C594 C613 1.368 1_554 S
C594 H618 0.949 . S
H595 C599 0.949 . S
C596 C597 1.372 . S
C596 C598 1.327 . S
C596 H619 0.950 . S
C597 C596 1.372 . S
C597 C609 1.325 1_554 S
C598 C596 1.327 . S
C598 C614 1.411 1_554 S
C598 H620 0.950 . S
C599 H595 0.949 . S
C599 C607 1.574 . S
C599 C615 1.368 . S
H600 C608 0.950 . S
H601 C606 0.950 . S
H602 C607 0.949 . S
H603 C609 0.950 . S
H604 C610 0.950 . S
H605 C611 0.949 . S
C606 H601 0.950 . S
C606 C608 1.327 . S
C606 C612 1.429 1_554 S
C607 C599 1.574 . S
C607 H602 0.949 . S
C607 C613 1.368 . S
C608 C592 1.349 1_554 S
C608 H600 0.950 . S
C608 C606 1.327 . S
C609 C597 1.325 1_556 S
C609 H603 0.950 . S
C609 C610 1.327 . S
C610 H604 0.950 . S
C610 C609 1.327 . S
C610 C614 1.445 . S
C611 C594 1.574 . S
C611 H605 0.949 . S
C611 C615 1.368 1_554 S
C612 C593 1.429 . S
C612 C606 1.429 1_556 S
C612 C613 1.523 . S
C613 C594 1.368 1_556 S
C613 C607 1.368 . S
C613 C612 1.523 . S
C614 C598 1.411 1_556 S
C614 C610 1.445 . S
C614 C615 1.524 . S
C615 C599 1.368 . S
C615 C611 1.368 1_556 S
C615 C614 1.524 . S
H616 C591 0.950 . S
H617 C593 0.950 . S
H618 C594 0.949 . S
H619 C596 0.950 . S
H620 C598 0.950 . S
C621 C622 1.349 . S
C621 C623 1.327 . S
C621 H646 0.950 . S
C622 C621 1.349 . S
C622 C638 1.349 1_554 S
C623 C621 1.327 . S
C623 C642 1.429 . S
C623 H647 0.950 . S
C624 C641 1.574 . S
C624 C643 1.368 1_556 S
C624 H648 0.949 . S
H625 C629 0.949 . S
C626 C627 1.349 1_556 S
C626 C628 1.327 . S
C626 H649 0.950 . S
C627 C626 1.349 1_554 S
C627 C639 1.349 . S
C628 C626 1.327 . S
C628 C644 1.429 1_556 S
C628 H650 0.950 . S
C629 H625 0.949 . S
C629 C637 1.574 . S
C629 C645 1.368 . S
H630 C638 0.950 . S
H631 C636 0.950 . S
H632 C637 0.949 . S
H633 C639 0.950 . S
H634 C640 0.950 . S
H635 C641 0.949 . S
C636 H631 0.950 . S
C636 C638 1.327 . S
C636 C642 1.429 1_556 S
C637 C629 1.574 . S
C637 H632 0.949 . S
C637 C643 1.368 . S
C638 C622 1.349 1_556 S
C638 H630 0.950 . S
C638 C636 1.327 . S
C639 C627 1.349 . S
C639 H633 0.950 . S
C639 C640 1.327 . S
C640 H634 0.950 . S
C640 C639 1.327 . S
C640 C644 1.429 . S
C641 C624 1.574 . S
C641 H635 0.949 . S
C641 C645 1.368 1_556 S
C642 C623 1.429 . S
C642 C636 1.429 1_554 S
C642 C643 1.523 . S
C643 C624 1.368 1_554 S
C643 C637 1.368 . S
C643 C642 1.523 . S
C644 C628 1.429 1_554 S
C644 C640 1.429 . S
C644 C645 1.523 . S
C645 C629 1.368 . S
C645 C641 1.368 1_554 S
C645 C644 1.523 . S
H646 C621 0.950 . S
H647 C623 0.950 . S
H648 C624 0.949 . S
H649 C626 0.950 . S
H650 C628 0.950 . S
C651 C652 1.349 1_556 S
C651 C653 1.327 . S
C651 H676 0.950 . S
C652 C651 1.349 1_554 S
C652 C668 1.349 . S
C653 C651 1.327 . S
C653 C672 1.429 1_556 S
C653 H677 0.950 . S
C654 C671 1.574 . S
C654 C673 1.368 . S
C654 H678 0.949 . S
H655 C659 0.949 . S
C656 C657 1.349 . S
C656 C658 1.327 . S
C656 H679 0.950 . S
C657 C656 1.349 . S
C657 C669 1.349 1_554 S
C658 C656 1.327 . S
C658 C674 1.429 . S
C658 H680 0.950 . S
C659 H655 0.949 . S
C659 C667 1.574 . S
C659 C675 1.368 1_556 S
H660 C668 0.950 . S
H661 C666 0.950 . S
H662 C667 0.949 . S
H663 C669 0.950 . S
H664 C670 0.950 . S
H665 C671 0.949 . S
C666 H661 0.950 . S
C666 C668 1.327 . S
C666 C672 1.429 . S
C667 C659 1.574 . S
C667 H662 0.949 . S
C667 C673 1.368 1_556 S
C668 C652 1.349 . S
C668 H660 0.950 . S
C668 C666 1.327 . S
C669 C657 1.349 1_556 S
C669 H663 0.950 . S
C669 C670 1.327 . S
C670 H664 0.950 . S
C670 C669 1.327 . S
C670 C674 1.429 1_556 S
C671 C654 1.574 . S
C671 H665 0.949 . S
C671 C675 1.368 . S
C672 C653 1.429 1_554 S
C672 C666 1.429 . S
C672 C673 1.523 . S
C673 C654 1.368 . S
C673 C667 1.368 1_554 S
C673 C672 1.523 . S
C674 C658 1.429 . S
C674 C670 1.429 1_554 S
C674 C675 1.523 . S
C675 C659 1.368 1_554 S
C675 C671 1.368 . S
C675 C674 1.523 . S
H676 C651 0.950 . S
H677 C653 0.950 . S
H678 C654 0.949 . S
H679 C656 0.950 . S
H680 C658 0.950 . S
C681 C682 1.349 . S
C681 C683 1.327 . S
C681 H706 0.950 . S
C682 C681 1.349 . S
C682 C698 1.349 1_554 S
C683 C681 1.327 . S
C683 C702 1.429 . S
C683 H707 0.950 . S
C684 C701 1.574 . S
C684 C703 1.368 1_556 S
C684 H708 0.949 . S
H685 C689 0.949 . S
C686 C687 1.349 1_556 S
C686 C688 1.327 . S
C686 H709 0.950 . S
C687 C686 1.349 1_554 S
C687 C699 1.349 . S
C688 C686 1.327 . S
C688 C704 1.429 1_556 S
C688 H710 0.950 . S
C689 H685 0.949 . S
C689 C697 1.574 . S
C689 C705 1.368 . S
H690 C698 0.950 . S
H691 C696 0.950 . S
H692 C697 0.949 . S
H693 C699 0.950 . S
H694 C700 0.950 . S
H695 C701 0.949 . S
C696 H691 0.950 . S
C696 C698 1.327 . S
C696 C702 1.429 1_556 S
C697 C689 1.574 . S
C697 H692 0.949 . S
C697 C703 1.368 . S
C698 C682 1.349 1_556 S
C698 H690 0.950 . S
C698 C696 1.327 . S
C699 C687 1.349 . S
C699 H693 0.950 . S
C699 C700 1.327 . S
C700 H694 0.950 . S
C700 C699 1.327 . S
C700 C704 1.429 . S
C701 C684 1.574 . S
C701 H695 0.949 . S
C701 C705 1.368 1_556 S
C702 C683 1.429 . S
C702 C696 1.429 1_554 S
C702 C703 1.523 . S
C703 C684 1.368 1_554 S
C703 C697 1.368 . S
C703 C702 1.523 . S
C704 C688 1.429 1_554 S
C704 C700 1.429 . S
C704 C705 1.523 . S
C705 C689 1.368 . S
C705 C701 1.368 1_554 S
C705 C704 1.523 . S
H706 C681 0.950 . S
H707 C683 0.950 . S
H708 C684 0.949 . S
H709 C686 0.950 . S
H710 C688 0.950 . S
C711 C712 1.349 . S
C711 C713 1.327 . S
C711 H736 0.950 . S
C712 C711 1.349 . S
C712 C728 1.349 . S
C713 C711 1.327 . S
C713 C732 1.429 . S
C713 H737 0.950 . S
C714 C731 1.574 . S
C714 C733 1.368 1_556 S
C714 H738 0.949 . S
H715 C719 0.949 . S
C716 C717 1.349 1_556 S
C716 C718 1.327 . S
C716 H739 0.950 . S
C717 C716 1.349 1_554 S
C717 C729 1.349 . S
C718 C716 1.327 . S
C718 C734 1.429 1_556 S
C718 H740 0.950 . S
C719 H715 0.949 . S
C719 C727 1.574 . S
C719 C735 1.368 . S
H720 C728 0.950 1_556 S
H721 C726 0.932 1_556 S
H722 C727 0.949 . S
H723 C729 0.950 . S
H724 C730 0.950 . S
H725 C731 0.949 . S
C726 H721 0.932 1_554 S
C726 C728 1.329 . S
C726 C732 1.445 . S
C727 C719 1.574 . S
C727 H722 0.949 . S
C727 C733 1.368 . S
C728 C712 1.349 . S
C728 H720 0.950 1_554 S
C728 C726 1.329 . S
C729 C717 1.349 . S
C729 H723 0.950 . S
C729 C730 1.327 . S
C730 H724 0.950 . S
C730 C729 1.327 . S
C730 C734 1.429 . S
C731 C714 1.574 . S
C731 H725 0.949 . S
C731 C735 1.368 1_556 S
C732 C713 1.429 . S
C732 C726 1.445 . S
C732 C733 1.523 . S
C733 C714 1.368 1_554 S
C733 C727 1.368 . S
C733 C732 1.523 . S
C734 C718 1.429 1_554 S
C734 C730 1.429 . S
C734 C735 1.523 . S
C735 C719 1.368 . S
C735 C731 1.368 1_554 S
C735 C734 1.523 . S
H736 C711 0.950 . S
H737 C713 0.950 . S
H738 C714 0.949 . S
H739 C716 0.950 . S
H740 C718 0.950 . S
C741 C742 1.349 . S
C741 C743 1.327 . S
C741 H766 0.950 1_554 S
C742 C741 1.349 . S
C742 C758 1.349 . S
C743 C741 1.327 . S
C743 C762 1.429 . S
C743 H767 0.950 1_554 S
C744 C761 1.574 . S
C744 C763 1.368 . S
C744 H768 0.949 . S
H745 C749 0.949 . S
C746 C747 1.349 . S
C746 C748 1.327 . S
C746 H769 0.950 . S
C747 C746 1.349 . S
C747 C759 1.349 1_554 S
C748 C746 1.327 . S
C748 C764 1.429 . S
C748 H770 0.950 . S
C749 H745 0.949 . S
C749 C757 1.574 . S
C749 C765 1.368 1_556 S
H750 C758 0.950 . S
H751 C756 0.950 . S
H752 C757 0.949 . S
H753 C759 0.950 . S
H754 C760 0.950 . S
H755 C761 0.949 . S
C756 H751 0.950 . S
C756 C758 1.327 . S
C756 C762 1.429 . S
C757 C749 1.574 . S
C757 H752 0.949 . S
C757 C763 1.368 1_556 S
C758 C742 1.349 . S
C758 H750 0.950 . S
C758 C756 1.327 . S
C759 C747 1.349 1_556 S
C759 H753 0.950 . S
C759 C760 1.327 . S
C760 H754 0.950 . S
C760 C759 1.327 . S
C760 C764 1.429 1_556 S
C761 C744 1.574 . S
C761 H755 0.949 . S
C761 C765 1.368 . S
C762 C743 1.429 . S
C762 C756 1.429 . S
C762 C763 1.523 . S
C763 C744 1.368 . S
C763 C757 1.368 1_554 S
C763 C762 1.523 . S
C764 C748 1.429 . S
C764 C760 1.429 1_554 S
C764 C765 1.523 . S
C765 C749 1.368 1_554 S
C765 C761 1.368 . S
C765 C764 1.523 . S
H766 C741 0.950 1_556 S
H767 C743 0.950 1_556 S
H768 C744 0.949 . S
H769 C746 0.950 . S
H770 C748 0.950 . S
C771 C772 1.349 . S
C771 C773 1.327 . S
C771 H796 0.950 . S
C772 C771 1.349 . S
C772 C788 1.349 . S
C773 C771 1.327 . S
C773 C792 1.429 . S
C773 H797 0.950 . S
C774 C791 1.578 . S
C774 C793 1.336 1_556 S
C774 H798 0.975 . S
H775 C779 0.949 . S
C776 C777 1.349 1_556 S
C776 C778 1.327 . S
C776 H799 0.950 . S
C777 C776 1.349 1_554 S
C777 C789 1.349 . S
C778 C776 1.327 . S
C778 C794 1.429 1_556 S
C778 H800 0.950 . S
C779 H775 0.949 . S
C779 C787 1.574 . S
C779 C795 1.368 . S
H780 C788 0.950 1_556 S
H781 C786 0.950 1_556 S
H782 C787 0.949 . S
H783 C789 0.950 . S
H784 C790 0.950 . S
H785 C791 0.949 . S
C786 H781 0.950 1_554 S
C786 C788 1.327 . S
C786 C792 1.429 . S
C787 C779 1.574 . S
C787 H782 0.949 . S
C787 C793 1.368 . S
C788 C772 1.349 . S
C788 H780 0.950 1_554 S
C788 C786 1.327 . S
C789 C777 1.349 . S
C789 H783 0.950 . S
C789 C790 1.327 . S
C790 H784 0.950 . S
C790 C789 1.327 . S
C790 C794 1.429 . S
C791 C774 1.578 . S
C791 H785 0.949 . S
C791 C795 1.368 1_556 S
C792 C773 1.429 . S
C792 C786 1.429 . S
C792 C793 1.523 . S
C793 C774 1.336 1_554 S
C793 C787 1.368 . S
C793 C792 1.523 . S
C794 C778 1.429 1_554 S
C794 C790 1.429 . S
C794 C795 1.523 . S
C795 C779 1.368 . S
C795 C791 1.368 1_554 S
C795 C794 1.523 . S
H796 C771 0.950 . S
H797 C773 0.950 . S
H798 C774 0.975 . S
H799 C776 0.950 . S
H800 C778 0.950 . S
C801 C802 1.349 . S
C801 C803 1.332 . S
C801 H826 0.950 1_556 S
C802 C801 1.349 . S
C802 C818 1.349 . S
C803 C801 1.332 . S
C803 C822 1.452 . S
C803 H827 0.922 1_556 S
C804 C821 1.574 . S
C804 C823 1.368 . S
C804 H828 0.949 . S
H805 C809 0.949 . S
C806 C807 1.349 . S
C806 C808 1.327 . S
C806 H829 0.950 . S
C807 C806 1.349 . S
C807 C819 1.349 1_556 S
C808 C806 1.327 . S
C808 C824 1.429 . S
C808 H830 0.950 . S
C809 H805 0.949 . S
C809 C817 1.574 . S
C809 C825 1.368 1_554 S
H810 C818 0.950 . S
H811 C816 0.950 . S
H812 C817 0.949 . S
H813 C819 0.950 . S
H814 C820 0.950 . S
H815 C821 0.949 . S
C816 H811 0.950 . S
C816 C818 1.327 . S
C816 C822 1.429 . S
C817 C809 1.574 . S
C817 H812 0.949 . S
C817 C823 1.368 1_554 S
C818 C802 1.349 . S
C818 H810 0.950 . S
C818 C816 1.327 . S
C819 C807 1.349 1_554 S
C819 H813 0.950 . S
C819 C820 1.327 . S
C820 H814 0.950 . S
C820 C819 1.327 . S
C820 C824 1.429 1_554 S
C821 C804 1.574 . S
C821 H815 0.949 . S
C821 C825 1.368 . S
C822 C803 1.452 . S
C822 C816 1.429 . S
C822 C823 1.523 . S
C823 C804 1.368 . S
C823 C817 1.368 1_556 S
C823 C822 1.523 . S
C824 C808 1.429 . S
C824 C820 1.429 1_556 S
C824 C825 1.523 . S
C825 C809 1.368 1_556 S
C825 C821 1.368 . S
C825 C824 1.523 . S
H826 C801 0.950 1_554 S
H827 C803 0.922 1_554 S
H828 C804 0.949 . S
H829 C806 0.950 . S
H830 C808 0.950 . S
C831 C832 1.357 . S
C831 C833 1.327 1_556 S
C831 H856 0.942 1_556 S
C832 C831 1.357 . S
C832 C848 1.349 . S
C833 C831 1.327 1_554 S
C833 C852 1.429 1_554 S
C833 H857 0.950 . S
C834 C851 1.574 . S
C834 C853 1.368 . S
C834 H858 0.949 . S
H835 C839 0.949 . S
C836 C837 1.349 . S
C836 C838 1.327 . S
C836 H859 0.950 . S
C837 C836 1.349 . S
C837 C849 1.349 1_556 S
C838 C836 1.327 . S
C838 C854 1.429 . S
C838 H860 0.950 . S
C839 H835 0.949 . S
C839 C847 1.574 . S
C839 C855 1.368 1_554 S
H840 C848 0.950 . S
H841 C846 0.950 . S
H842 C847 0.949 . S
H843 C849 0.950 . S
H844 C850 0.950 . S
H845 C851 0.949 . S
C846 H841 0.950 . S
C846 C848 1.327 . S
C846 C852 1.429 . S
C847 C839 1.574 . S
C847 H842 0.949 . S
C847 C853 1.368 1_554 S
C848 C832 1.349 . S
C848 H840 0.950 . S
C848 C846 1.327 . S
C849 C837 1.349 1_554 S
C849 H843 0.950 . S
C849 C850 1.327 . S
C850 H844 0.950 . S
C850 C849 1.327 . S
C850 C854 1.429 1_554 S
C851 C834 1.574 . S
C851 H845 0.949 . S
C851 C855 1.368 . S
C852 C833 1.429 1_556 S
C852 C846 1.429 . S
C852 C853 1.523 . S
C853 C834 1.368 . S
C853 C847 1.368 1_556 S
C853 C852 1.523 . S
C854 C838 1.429 . S
C854 C850 1.429 1_556 S
C854 C855 1.523 . S
C855 C839 1.368 1_556 S
C855 C851 1.368 . S
C855 C854 1.523 . S
H856 C831 0.942 1_554 S
H857 C833 0.950 . S
H858 C834 0.949 . S
H859 C836 0.950 . S
H860 C838 0.950 . S
C861 C862 1.349 . S
C861 C863 1.327 . S
C861 H886 0.950 . S
C862 C861 1.349 . S
C862 C878 1.349 1_556 S
C863 C861 1.327 . S
C863 C882 1.429 . S
C863 H887 0.950 . S
C864 C881 1.574 . S
C864 C883 1.368 1_554 S
C864 H888 0.949 . S
H865 C869 0.949 . S
C866 C867 1.349 1_554 S
C866 C868 1.327 . S
C866 H889 0.950 . S
C867 C866 1.349 1_556 S
C867 C879 1.349 . S
C868 C866 1.327 . S
C868 C884 1.429 1_554 S
C868 H890 0.950 . S
C869 H865 0.949 . S
C869 C877 1.574 . S
C869 C885 1.368 . S
H870 C878 0.950 . S
H871 C876 0.950 . S
H872 C877 0.949 . S
H873 C879 0.950 . S
H874 C880 0.950 . S
H875 C881 0.949 . S
C876 H871 0.950 . S
C876 C878 1.327 . S
C876 C882 1.429 1_554 S
C877 C869 1.574 . S
C877 H872 0.949 . S
C877 C883 1.368 . S
C878 C862 1.349 1_554 S
C878 H870 0.950 . S
C878 C876 1.327 . S
C879 C867 1.349 . S
C879 H873 0.950 . S
C879 C880 1.327 . S
C880 H874 0.950 . S
C880 C879 1.327 . S
C880 C884 1.429 . S
C881 C864 1.574 . S
C881 H875 0.949 . S
C881 C885 1.368 1_554 S
C882 C863 1.429 . S
C882 C876 1.429 1_556 S
C882 C883 1.523 . S
C883 C864 1.368 1_556 S
C883 C877 1.368 . S
C883 C882 1.523 . S
C884 C868 1.429 1_556 S
C884 C880 1.429 . S
C884 C885 1.523 . S
C885 C869 1.368 . S
C885 C881 1.368 1_556 S
C885 C884 1.523 . S
H886 C861 0.950 . S
H887 C863 0.950 . S
H888 C864 0.949 . S
H889 C866 0.950 . S
H890 C868 0.950 . S
C891 C892 1.349 . S
C891 C893 1.327 . S
C891 H916 0.950 . S
C892 C891 1.349 . S
C892 C908 1.349 . S
C893 C891 1.327 . S
C893 C912 1.429 . S
C893 H917 0.950 . S
C894 C911 1.574 1_655 S
C894 C913 1.368 . S
C894 H918 0.949 . S
H895 C899 0.949 . S
C896 C897 1.349 . S
C896 C898 1.327 . S
C896 H919 0.950 . S
C897 C896 1.349 . S
C897 C909 1.349 . S
C898 C896 1.327 . S
C898 C914 1.429 . S
C898 H920 0.950 . S
C899 H895 0.949 . S
C899 C907 1.574 1_455 S
C899 C915 1.368 . S
H900 C908 0.950 . S
H901 C906 0.950 . S
H902 C907 0.949 . S
H903 C909 0.950 . S
H904 C910 0.950 . S
H905 C911 0.949 . S
C906 H901 0.950 . S
C906 C908 1.327 . S
C906 C912 1.429 . S
C907 C899 1.574 1_655 S
C907 H902 0.949 . S
C907 C913 1.368 . S
C908 C892 1.349 . S
C908 H900 0.950 . S
C908 C906 1.327 . S
C909 C897 1.349 . S
C909 H903 0.950 . S
C909 C910 1.327 . S
C910 H904 0.950 . S
C910 C909 1.327 . S
C910 C914 1.429 . S
C911 C894 1.574 1_455 S
C911 H905 0.949 . S
C911 C915 1.368 . S
C912 C893 1.429 . S
C912 C906 1.429 . S
C912 C913 1.523 . S
C913 C894 1.368 . S
C913 C907 1.368 . S
C913 C912 1.523 . S
C914 C898 1.429 . S
C914 C910 1.429 . S
C914 C915 1.523 . S
C915 C899 1.368 . S
C915 C911 1.368 . S
C915 C914 1.523 . S
H916 C891 0.950 . S
H917 C893 0.950 . S
H918 C894 0.949 . S
H919 C896 0.950 . S
H920 C898 0.950 . S
C921 C922 1.349 . S
C921 C923 1.327 . S
C921 H946 0.950 . S
C922 C921 1.349 . S
C922 C938 1.349 . S
C923 C921 1.327 . S
C923 C942 1.429 . S
C923 H947 0.950 . S
C924 C941 1.574 . S
C924 C943 1.368 . S
C924 H948 0.949 . S
H925 C929 0.949 . S
C926 C927 1.349 . S
C926 C928 1.327 . S
C926 H949 0.950 . S
C927 C926 1.349 . S
C927 C939 1.349 . S
C928 C926 1.327 . S
C928 C944 1.429 . S
C928 H950 0.950 . S
C929 H925 0.949 . S
C929 C937 1.574 . S
C929 C945 1.368 . S
H930 C938 0.950 . S
H931 C936 0.950 . S
H932 C937 0.949 . S
H933 C939 0.950 . S
H934 C940 0.950 . S
H935 C941 0.949 . S
C936 H931 0.950 . S
C936 C938 1.327 . S
C936 C942 1.429 . S
C937 C929 1.574 . S
C937 H932 0.949 . S
C937 C943 1.368 . S
C938 C922 1.349 . S
C938 H930 0.950 . S
C938 C936 1.327 . S
C939 C927 1.349 . S
C939 H933 0.950 . S
C939 C940 1.327 . S
C940 H934 0.950 . S
C940 C939 1.327 . S
C940 C944 1.429 . S
C941 C924 1.574 . S
C941 H935 0.949 . S
C941 C945 1.368 . S
C942 C923 1.429 . S
C942 C936 1.429 . S
C942 C943 1.523 . S
C943 C924 1.368 . S
C943 C937 1.368 . S
C943 C942 1.523 . S
C944 C928 1.429 . S
C944 C940 1.429 . S
C944 C945 1.523 . S
C945 C929 1.368 . S
C945 C941 1.368 . S
C945 C944 1.523 . S
H946 C921 0.950 . S
H947 C923 0.950 . S
H948 C924 0.949 . S
H949 C926 0.950 . S
H950 C928 0.950 . S
C951 C952 1.349 . S
C951 C953 1.327 . S
C951 H976 0.950 . S
C952 C951 1.349 . S
C952 C968 1.349 . S
C953 C951 1.327 . S
C953 C972 1.429 . S
C953 H977 0.950 . S
C954 C971 1.574 1_545 S
C954 C973 1.368 . S
C954 H978 0.949 . S
H955 C959 0.949 . S
C956 C957 1.349 . S
C956 C958 1.327 . S
C956 H979 0.950 . S
C957 C956 1.349 . S
C957 C969 1.349 . S
C958 C956 1.327 . S
C958 C974 1.429 . S
C958 H980 0.950 . S
C959 H955 0.949 . S
C959 C967 1.574 1_565 S
C959 C975 1.368 . S
H960 C968 0.950 . S
H961 C966 0.950 . S
H962 C967 0.949 . S
H963 C969 0.950 . S
H964 C970 0.950 . S
H965 C971 0.949 . S
C966 H961 0.950 . S
C966 C968 1.327 . S
C966 C972 1.429 . S
C967 C959 1.574 1_545 S
C967 H962 0.949 . S
C967 C973 1.368 . S
C968 C952 1.349 . S
C968 H960 0.950 . S
C968 C966 1.327 . S
C969 C957 1.349 . S
C969 H963 0.950 . S
C969 C970 1.327 . S
C970 H964 0.950 . S
C970 C969 1.327 . S
C970 C974 1.429 . S
C971 C954 1.574 1_565 S
C971 H965 0.949 . S
C971 C975 1.368 . S
C972 C953 1.429 . S
C972 C966 1.429 . S
C972 C973 1.523 . S
C973 C954 1.368 . S
C973 C967 1.368 . S
C973 C972 1.523 . S
C974 C958 1.429 . S
C974 C970 1.429 . S
C974 C975 1.523 . S
C975 C959 1.368 . S
C975 C971 1.368 . S
C975 C974 1.523 . S
H976 C951 0.950 . S
H977 C953 0.950 . S
H978 C954 0.949 . S
H979 C956 0.950 . S
H980 C958 0.950 . S
C981 C982 1.349 . S
C981 C983 1.327 . S
C981 H1006 0.950 . S
C982 C981 1.349 . S
C982 C998 1.349 . S
C983 C981 1.327 . S
C983 C1002 1.429 . S
C983 H1007 0.950 . S
C984 C1001 1.574 . S
C984 C1003 1.368 . S
C984 H1008 0.949 . S
H985 C989 0.949 . S
C986 C987 1.349 . S
C986 C988 1.327 . S
C986 H1009 0.950 . S
C987 C986 1.349 . S
C987 C999 1.349 . S
C988 C986 1.327 . S
C988 C1004 1.429 . S
C988 H1010 0.950 . S
C989 H985 0.949 . S
C989 C997 1.574 . S
C989 C1005 1.368 . S
H990 C998 0.950 . S
H991 C996 0.950 . S
H992 C997 0.949 . S
H993 C999 0.950 . S
H994 C1000 0.950 . S
H995 C1001 0.949 . S
C996 H991 0.950 . S
C996 C998 1.327 . S
C996 C1002 1.429 . S
C997 C989 1.574 . S
C997 H992 0.949 . S
C997 C1003 1.368 . S
C998 C982 1.349 . S
C998 H990 0.950 . S
C998 C996 1.327 . S
C999 C987 1.349 . S
C999 H993 0.950 . S
C999 C1000 1.327 . S
C1000 H994 0.950 . S
C1000 C999 1.327 . S
C1000 C1004 1.429 . S
C1001 C984 1.574 . S
C1001 H995 0.949 . S
C1001 C1005 1.368 . S
C1002 C983 1.429 . S
C1002 C996 1.429 . S
C1002 C1003 1.523 . S
C1003 C984 1.368 . S
C1003 C997 1.368 . S
C1003 C1002 1.523 . S
C1004 C988 1.429 . S
C1004 C1000 1.429 . S
C1004 C1005 1.523 . S
C1005 C989 1.368 . S
C1005 C1001 1.368 . S
C1005 C1004 1.523 . S
H1006 C981 0.950 . S
H1007 C983 0.950 . S
H1008 C984 0.949 . S
H1009 C986 0.950 . S
H1010 C988 0.950 . S
C1011 C1012 1.349 . S
C1011 C1013 1.327 . S
C1011 H1036 0.950 . S
C1012 C1011 1.349 . S
C1012 C1028 1.349 . S
C1013 C1011 1.327 . S
C1013 C1032 1.429 . S
C1013 H1037 0.950 . S
C1014 C1031 1.574 . S
C1014 C1033 1.368 . S
C1014 H1038 0.949 . S
H1015 C1019 0.949 . S
C1016 C1017 1.349 . S
C1016 C1018 1.327 . S
C1016 H1039 0.950 . S
C1017 C1016 1.349 . S
C1017 C1029 1.349 . S
C1018 C1016 1.327 . S
C1018 C1034 1.429 . S
C1018 H1040 0.950 . S
C1019 H1015 0.949 . S
C1019 C1027 1.574 . S
C1019 C1035 1.368 . S
H1020 C1028 0.950 . S
H1021 C1026 0.950 . S
H1022 C1027 0.949 . S
H1023 C1029 0.950 . S
H1024 C1030 0.950 . S
H1025 C1031 0.949 . S
C1026 H1021 0.950 . S
C1026 C1028 1.327 . S
C1026 C1032 1.429 . S
C1027 C1019 1.574 . S
C1027 H1022 0.949 . S
C1027 C1033 1.368 . S
C1028 C1012 1.349 . S
C1028 H1020 0.950 . S
C1028 C1026 1.327 . S
C1029 C1017 1.349 . S
C1029 H1023 0.950 . S
C1029 C1030 1.327 . S
C1030 H1024 0.950 . S
C1030 C1029 1.327 . S
C1030 C1034 1.429 . S
C1031 C1014 1.574 . S
C1031 H1025 0.949 . S
C1031 C1035 1.368 . S
C1032 C1013 1.429 . S
C1032 C1026 1.429 . S
C1032 C1033 1.523 . S
C1033 C1014 1.368 . S
C1033 C1027 1.368 . S
C1033 C1032 1.523 . S
C1034 C1018 1.429 . S
C1034 C1030 1.429 . S
C1034 C1035 1.523 . S
C1035 C1019 1.368 . S
C1035 C1031 1.368 . S
C1035 C1034 1.523 . S
H1036 C1011 0.950 . S
H1037 C1013 0.950 . S
H1038 C1014 0.949 . S
H1039 C1016 0.950 . S
H1040 C1018 0.950 . S
C1041 C1042 1.349 . S
C1041 C1043 1.327 . S
C1041 H1066 0.950 . S
C1042 C1041 1.349 . S
C1042 C1058 1.349 . S
C1043 C1041 1.327 . S
C1043 C1062 1.429 . S
C1043 H1067 0.950 . S
C1044 C1061 1.574 . S
C1044 C1063 1.368 . S
C1044 H1068 0.949 . S
H1045 C1049 0.949 . S
C1046 C1047 1.349 . S
C1046 C1048 1.327 . S
C1046 H1069 0.950 . S
C1047 C1046 1.349 . S
C1047 C1059 1.349 . S
C1048 C1046 1.327 . S
C1048 C1064 1.429 . S
C1048 H1070 0.950 . S
C1049 H1045 0.949 . S
C1049 C1057 1.574 . S
C1049 C1065 1.368 . S
H1050 C1058 0.950 . S
H1051 C1056 0.950 . S
H1052 C1057 0.949 . S
H1053 C1059 0.950 . S
H1054 C1060 0.950 . S
H1055 C1061 0.949 . S
C1056 H1051 0.950 . S
C1056 C1058 1.327 . S
C1056 C1062 1.429 . S
C1057 C1049 1.574 . S
C1057 H1052 0.949 . S
C1057 C1063 1.368 . S
C1058 C1042 1.349 . S
C1058 H1050 0.950 . S
C1058 C1056 1.327 . S
C1059 C1047 1.349 . S
C1059 H1053 0.950 . S
C1059 C1060 1.327 . S
C1060 H1054 0.950 . S
C1060 C1059 1.327 . S
C1060 C1064 1.429 . S
C1061 C1044 1.574 . S
C1061 H1055 0.949 . S
C1061 C1065 1.368 . S
C1062 C1043 1.429 . S
C1062 C1056 1.429 . S
C1062 C1063 1.523 . S
C1063 C1044 1.368 . S
C1063 C1057 1.368 . S
C1063 C1062 1.523 . S
C1064 C1048 1.429 . S
C1064 C1060 1.429 . S
C1064 C1065 1.523 . S
C1065 C1049 1.368 . S
C1065 C1061 1.368 . S
C1065 C1064 1.523 . S
H1066 C1041 0.950 . S
H1067 C1043 0.950 . S
H1068 C1044 0.949 . S
H1069 C1046 0.950 . S
H1070 C1048 0.950 . S
C1071 C1072 1.349 . S
C1071 C1073 1.327 . S
C1071 H1096 0.950 . S
C1072 C1071 1.349 . S
C1072 C1088 1.349 . S
C1073 C1071 1.327 . S
C1073 C1092 1.429 . S
C1073 H1097 0.950 . S
C1074 C1091 1.574 . S
C1074 C1093 1.368 . S
C1074 H1098 0.949 . S
H1075 C1079 0.949 . S
C1076 C1077 1.349 . S
C1076 C1078 1.327 . S
C1076 H1099 0.950 . S
C1077 C1076 1.349 . S
C1077 C1089 1.349 . S
C1078 C1076 1.327 . S
C1078 C1094 1.429 . S
C1078 H1100 0.950 . S
C1079 H1075 0.949 . S
C1079 C1087 1.574 . S
C1079 C1095 1.368 . S
H1080 C1088 0.950 . S
H1081 C1086 0.950 . S
H1082 C1087 0.949 . S
H1083 C1089 0.950 . S
H1084 C1090 0.950 . S
H1085 C1091 0.949 . S
C1086 H1081 0.950 . S
C1086 C1088 1.327 . S
C1086 C1092 1.429 . S
C1087 C1079 1.574 . S
C1087 H1082 0.949 . S
C1087 C1093 1.368 . S
C1088 C1072 1.349 . S
C1088 H1080 0.950 . S
C1088 C1086 1.327 . S
C1089 C1077 1.349 . S
C1089 H1083 0.950 . S
C1089 C1090 1.327 . S
C1090 H1084 0.950 . S
C1090 C1089 1.327 . S
C1090 C1094 1.429 . S
C1091 C1074 1.574 . S
C1091 H1085 0.949 . S
C1091 C1095 1.368 . S
C1092 C1073 1.429 . S
C1092 C1086 1.429 . S
C1092 C1093 1.523 . S
C1093 C1074 1.368 . S
C1093 C1087 1.368 . S
C1093 C1092 1.523 . S
C1094 C1078 1.429 . S
C1094 C1090 1.429 . S
C1094 C1095 1.523 . S
C1095 C1079 1.368 . S
C1095 C1091 1.368 . S
C1095 C1094 1.523 . S
H1096 C1071 0.950 . S
H1097 C1073 0.950 . S
H1098 C1074 0.949 . S
H1099 C1076 0.950 . S
H1100 C1078 0.950 . S
C1101 C1102 1.349 . S
C1101 C1103 1.327 . S
C1101 H1126 0.950 . S
C1102 C1101 1.349 . S
C1102 C1118 1.349 . S
C1103 C1101 1.327 . S
C1103 C1122 1.429 . S
C1103 H1127 0.950 . S
C1104 C1121 1.574 . S
C1104 C1123 1.368 . S
C1104 H1128 0.949 . S
H1105 C1109 0.949 . S
C1106 C1107 1.349 . S
C1106 C1108 1.327 . S
C1106 H1129 0.950 . S
C1107 C1106 1.349 . S
C1107 C1119 1.349 . S
C1108 C1106 1.327 . S
C1108 C1124 1.429 . S
C1108 H1130 0.950 . S
C1109 H1105 0.949 . S
C1109 C1117 1.574 . S
C1109 C1125 1.368 . S
H1110 C1118 0.950 . S
H1111 C1116 0.950 . S
H1112 C1117 0.949 . S
H1113 C1119 0.950 . S
H1114 C1120 0.950 . S
H1115 C1121 0.949 . S
C1116 H1111 0.950 . S
C1116 C1118 1.327 . S
C1116 C1122 1.429 . S
C1117 C1109 1.574 . S
C1117 H1112 0.949 . S
C1117 C1123 1.368 . S
C1118 C1102 1.349 . S
C1118 H1110 0.950 . S
C1118 C1116 1.327 . S
C1119 C1107 1.349 . S
C1119 H1113 0.950 . S
C1119 C1120 1.327 . S
C1120 H1114 0.950 . S
C1120 C1119 1.327 . S
C1120 C1124 1.429 . S
C1121 C1104 1.574 . S
C1121 H1115 0.949 . S
C1121 C1125 1.368 . S
C1122 C1103 1.429 . S
C1122 C1116 1.429 . S
C1122 C1123 1.523 . S
C1123 C1104 1.368 . S
C1123 C1117 1.368 . S
C1123 C1122 1.523 . S
C1124 C1108 1.429 . S
C1124 C1120 1.429 . S
C1124 C1125 1.523 . S
C1125 C1109 1.368 . S
C1125 C1121 1.368 . S
C1125 C1124 1.523 . S
H1126 C1101 0.950 . S
H1127 C1103 0.950 . S
H1128 C1104 0.949 . S
H1129 C1106 0.950 . S
H1130 C1108 0.950 . S
C1131 C1132 1.349 . S
C1131 C1133 1.327 . S
C1131 H1156 0.950 . S
C1132 C1131 1.349 . S
C1132 C1148 1.349 . S
C1133 C1131 1.327 . S
C1133 C1152 1.429 . S
C1133 H1157 0.950 . S
C1134 C1151 1.574 . S
C1134 C1153 1.368 . S
C1134 H1158 0.949 . S
H1135 C1139 0.949 . S
C1136 C1137 1.349 . S
C1136 C1138 1.327 . S
C1136 H1159 0.950 . S
C1137 C1136 1.349 . S
C1137 C1149 1.349 . S
C1138 C1136 1.327 . S
C1138 C1154 1.429 . S
C1138 H1160 0.950 . S
C1139 H1135 0.949 . S
C1139 C1147 1.574 . S
C1139 C1155 1.368 . S
H1140 C1148 0.950 . S
H1141 C1146 0.950 . S
H1142 C1147 0.949 . S
H1143 C1149 0.950 . S
H1144 C1150 0.950 . S
H1145 C1151 0.949 . S
C1146 H1141 0.950 . S
C1146 C1148 1.327 . S
C1146 C1152 1.429 . S
C1147 C1139 1.574 . S
C1147 H1142 0.949 . S
C1147 C1153 1.368 . S
C1148 C1132 1.349 . S
C1148 H1140 0.950 . S
C1148 C1146 1.327 . S
C1149 C1137 1.349 . S
C1149 H1143 0.950 . S
C1149 C1150 1.327 . S
C1150 H1144 0.950 . S
C1150 C1149 1.327 . S
C1150 C1154 1.429 . S
C1151 C1134 1.574 . S
C1151 H1145 0.949 . S
C1151 C1155 1.368 . S
C1152 C1133 1.429 . S
C1152 C1146 1.429 . S
C1152 C1153 1.523 . S
C1153 C1134 1.368 . S
C1153 C1147 1.368 . S
C1153 C1152 1.523 . S
C1154 C1138 1.429 . S
C1154 C1150 1.429 . S
C1154 C1155 1.523 . S
C1155 C1139 1.368 . S
C1155 C1151 1.368 . S
C1155 C1154 1.523 . S
H1156 C1131 0.950 . S
H1157 C1133 0.950 . S
H1158 C1134 0.949 . S
H1159 C1136 0.950 . S
H1160 C1138 0.950 . S
C1161 C1162 1.349 . S
C1161 C1163 1.327 1_545 S
C1161 H1186 0.950 . S
C1162 C1161 1.349 . S
C1162 C1178 1.349 . S
C1163 C1161 1.327 1_565 S
C1163 C1182 1.429 . S
C1163 H1187 0.950 . S
C1164 C1181 1.574 . S
C1164 C1183 1.368 . S
C1164 H1188 0.949 . S
H1165 C1169 0.949 . S
C1166 C1167 1.349 . S
C1166 C1168 1.327 . S
C1166 H1189 0.950 . S
C1167 C1166 1.349 . S
C1167 C1179 1.349 . S
C1168 C1166 1.327 . S
C1168 C1184 1.429 . S
C1168 H1190 0.950 . S
C1169 H1165 0.949 . S
C1169 C1177 1.574 . S
C1169 C1185 1.368 . S
H1170 C1178 0.950 . S
H1171 C1176 0.950 1_565 S
H1172 C1177 0.949 . S
H1173 C1179 0.950 . S
H1174 C1180 0.950 . S
H1175 C1181 0.949 . S
C1176 H1171 0.950 1_545 S
C1176 C1178 1.327 . S
C1176 C1182 1.429 1_545 S
C1177 C1169 1.574 . S
C1177 H1172 0.949 . S
C1177 C1183 1.368 . S
C1178 C1162 1.349 . S
C1178 H1170 0.950 . S
C1178 C1176 1.327 . S
C1179 C1167 1.349 . S
C1179 H1173 0.950 . S
C1179 C1180 1.327 . S
C1180 H1174 0.950 . S
C1180 C1179 1.327 . S
C1180 C1184 1.429 . S
C1181 C1164 1.574 . S
C1181 H1175 0.949 . S
C1181 C1185 1.368 . S
C1182 C1163 1.429 . S
C1182 C1176 1.429 1_565 S
C1182 C1183 1.523 . S
C1183 C1164 1.368 . S
C1183 C1177 1.368 . S
C1183 C1182 1.523 . S
C1184 C1168 1.429 . S
C1184 C1180 1.429 . S
C1184 C1185 1.523 . S
C1185 C1169 1.368 . S
C1185 C1181 1.368 . S
C1185 C1184 1.523 . S
H1186 C1161 0.950 . S
H1187 C1163 0.950 . S
H1188 C1164 0.949 . S
H1189 C1166 0.950 . S
H1190 C1168 0.950 . S
C1191 C1192 1.349 . S
C1191 C1193 1.291 1_655 S
C1191 H1216 0.950 . S
C1192 C1191 1.349 . S
C1192 C1208 1.349 . S
C1193 C1191 1.291 1_455 S
C1193 C1212 1.445 . S
C1193 H1217 0.970 . S
C1194 C1211 1.574 . S
C1194 C1213 1.368 . S
C1194 H1218 0.949 . S
H1195 C1199 0.949 . S
C1196 C1197 1.349 . S
C1196 C1198 1.327 . S
C1196 H1219 0.950 . S
C1197 C1196 1.349 . S
C1197 C1209 1.349 . S
C1198 C1196 1.327 . S
C1198 C1214 1.429 . S
C1198 H1220 0.950 . S
C1199 H1195 0.949 . S
C1199 C1207 1.574 . S
C1199 C1215 1.368 . S
H1200 C1208 0.950 . S
H1201 C1206 0.950 . S
H1202 C1207 0.949 . S
H1203 C1209 0.950 . S
H1204 C1210 0.950 . S
H1205 C1211 0.949 . S
C1206 H1201 0.950 . S
C1206 C1208 1.327 1_455 S
C1206 C1212 1.429 . S
C1207 C1199 1.574 . S
C1207 H1202 0.949 . S
C1207 C1213 1.368 . S
C1208 C1192 1.349 . S
C1208 H1200 0.950 . S
C1208 C1206 1.327 1_655 S
C1209 C1197 1.349 . S
C1209 H1203 0.950 . S
C1209 C1210 1.327 . S
C1210 H1204 0.950 . S
C1210 C1209 1.327 . S
C1210 C1214 1.429 . S
C1211 C1194 1.574 . S
C1211 H1205 0.949 . S
C1211 C1215 1.368 . S
C1212 C1193 1.445 . S
C1212 C1206 1.429 . S
C1212 C1213 1.523 . S
C1213 C1194 1.368 . S
C1213 C1207 1.368 . S
C1213 C1212 1.523 . S
C1214 C1198 1.429 . S
C1214 C1210 1.429 . S
C1214 C1215 1.523 . S
C1215 C1199 1.368 . S
C1215 C1211 1.368 . S
C1215 C1214 1.523 . S
H1216 C1191 0.950 . S
H1217 C1193 0.970 . S
H1218 C1194 0.949 . S
H1219 C1196 0.950 . S
H1220 C1198 0.950 . S
C1221 C1222 1.349 . S
C1221 C1223 1.327 . S
C1221 H1246 0.950 . S
C1222 C1221 1.349 . S
C1222 C1238 1.349 . S
C1223 C1221 1.327 . S
C1223 C1242 1.429 . S
C1223 H1247 0.950 . S
C1224 C1241 1.574 . S
C1224 C1243 1.368 . S
C1224 H1248 0.949 . S
H1225 C1229 0.949 . S
C1226 C1227 1.349 . S
C1226 C1228 1.327 . S
C1226 H1249 0.950 . S
C1227 C1226 1.349 . S
C1227 C1239 1.349 . S
C1228 C1226 1.327 . S
C1228 C1244 1.429 . S
C1228 H1250 0.950 . S
C1229 H1225 0.949 . S
C1229 C1237 1.574 . S
C1229 C1245 1.368 . S
H1230 C1238 0.950 . S
H1231 C1236 0.950 . S
H1232 C1237 0.949 . S
H1233 C1239 0.950 . S
H1234 C1240 0.950 . S
H1235 C1241 0.949 . S
C1236 H1231 0.950 . S
C1236 C1238 1.327 . S
C1236 C1242 1.429 . S
C1237 C1229 1.574 . S
C1237 H1232 0.949 . S
C1237 C1243 1.368 . S
C1238 C1222 1.349 . S
C1238 H1230 0.950 . S
C1238 C1236 1.327 . S
C1239 C1227 1.349 . S
C1239 H1233 0.950 . S
C1239 C1240 1.327 . S
C1240 H1234 0.950 . S
C1240 C1239 1.327 . S
C1240 C1244 1.429 . S
C1241 C1224 1.574 . S
C1241 H1235 0.949 . S
C1241 C1245 1.368 . S
C1242 C1223 1.429 . S
C1242 C1236 1.429 . S
C1242 C1243 1.523 . S
C1243 C1224 1.368 . S
C1243 C1237 1.368 . S
C1243 C1242 1.523 . S
C1244 C1228 1.429 . S
C1244 C1240 1.429 . S
C1244 C1245 1.523 . S
C1245 C1229 1.368 . S
C1245 C1241 1.368 . S
C1245 C1244 1.523 . S
H1246 C1221 0.950 . S
H1247 C1223 0.950 . S
H1248 C1224 0.949 . S
H1249 C1226 0.950 . S
H1250 C1228 0.950 . S
C1251 C1252 1.349 . S
C1251 C1253 1.327 . S
C1251 H1276 0.950 . S
C1252 C1251 1.349 . S
C1252 C1268 1.349 . S
C1253 C1251 1.327 . S
C1253 C1272 1.429 . S
C1253 H1277 0.950 . S
C1254 C1271 1.574 . S
C1254 C1273 1.368 . S
C1254 H1278 0.949 . S
H1255 C1259 0.949 . S
C1256 C1257 1.349 . S
C1256 C1258 1.327 . S
C1256 H1279 0.950 . S
C1257 C1256 1.349 . S
C1257 C1269 1.349 . S
C1258 C1256 1.327 . S
C1258 C1274 1.429 . S
C1258 H1280 0.950 . S
C1259 H1255 0.949 . S
C1259 C1267 1.574 . S
C1259 C1275 1.368 . S
H1260 C1268 0.950 . S
H1261 C1266 0.950 . S
H1262 C1267 0.949 . S
H1263 C1269 0.950 . S
H1264 C1270 0.950 . S
H1265 C1271 0.949 . S
C1266 H1261 0.950 . S
C1266 C1268 1.327 . S
C1266 C1272 1.429 . S
C1267 C1259 1.574 . S
C1267 H1262 0.949 . S
C1267 C1273 1.368 . S
C1268 C1252 1.349 . S
C1268 H1260 0.950 . S
C1268 C1266 1.327 . S
C1269 C1257 1.349 . S
C1269 H1263 0.950 . S
C1269 C1270 1.327 . S
C1270 H1264 0.950 . S
C1270 C1269 1.327 . S
C1270 C1274 1.429 . S
C1271 C1254 1.574 . S
C1271 H1265 0.949 . S
C1271 C1275 1.368 . S
C1272 C1253 1.429 . S
C1272 C1266 1.429 . S
C1272 C1273 1.523 . S
C1273 C1254 1.368 . S
C1273 C1267 1.368 . S
C1273 C1272 1.523 . S
C1274 C1258 1.429 . S
C1274 C1270 1.429 . S
C1274 C1275 1.523 . S
C1275 C1259 1.368 . S
C1275 C1271 1.368 . S
C1275 C1274 1.523 . S
H1276 C1251 0.950 . S
H1277 C1253 0.950 . S
H1278 C1254 0.949 . S
H1279 C1256 0.950 . S
H1280 C1258 0.950 . S
C1281 C1282 1.349 . S
C1281 C1283 1.327 . S
C1281 H1306 0.950 . S
C1282 C1281 1.349 . S
C1282 C1298 1.349 . S
C1283 C1281 1.327 . S
C1283 C1302 1.429 . S
C1283 H1307 0.950 . S
C1284 C1301 1.574 . S
C1284 C1303 1.368 . S
C1284 H1308 0.949 . S
H1285 C1289 0.949 . S
C1286 C1287 1.349 . S
C1286 C1288 1.327 . S
C1286 H1309 0.950 . S
C1287 C1286 1.349 . S
C1287 C1299 1.349 . S
C1288 C1286 1.327 . S
C1288 C1304 1.429 . S
C1288 H1310 0.950 . S
C1289 H1285 0.949 . S
C1289 C1297 1.574 . S
C1289 C1305 1.368 . S
H1290 C1298 0.950 . S
H1291 C1296 0.950 . S
H1292 C1297 0.949 . S
H1293 C1299 0.950 . S
H1294 C1300 0.950 . S
H1295 C1301 0.949 . S
C1296 H1291 0.950 . S
C1296 C1298 1.327 . S
C1296 C1302 1.429 . S
C1297 C1289 1.574 . S
C1297 H1292 0.949 . S
C1297 C1303 1.368 . S
C1298 C1282 1.349 . S
C1298 H1290 0.950 . S
C1298 C1296 1.327 . S
C1299 C1287 1.349 . S
C1299 H1293 0.950 . S
C1299 C1300 1.327 . S
C1300 H1294 0.950 . S
C1300 C1299 1.327 . S
C1300 C1304 1.429 . S
C1301 C1284 1.574 . S
C1301 H1295 0.949 . S
C1301 C1305 1.368 . S
C1302 C1283 1.429 . S
C1302 C1296 1.429 . S
C1302 C1303 1.523 . S
C1303 C1284 1.368 . S
C1303 C1297 1.368 . S
C1303 C1302 1.523 . S
C1304 C1288 1.429 . S
C1304 C1300 1.429 . S
C1304 C1305 1.523 . S
C1305 C1289 1.368 . S
C1305 C1301 1.368 . S
C1305 C1304 1.523 . S
H1306 C1281 0.950 . S
H1307 C1283 0.950 . S
H1308 C1284 0.949 . S
H1309 C1286 0.950 . S
H1310 C1288 0.950 . S
C1311 C1312 1.349 . S
C1311 C1313 1.327 . S
C1311 H1336 0.950 . S
C1312 C1311 1.349 . S
C1312 C1328 1.349 . S
C1313 C1311 1.327 . S
C1313 C1332 1.429 . S
C1313 H1337 0.950 . S
C1314 C1331 1.574 . S
C1314 C1333 1.368 . S
C1314 H1338 0.949 . S
H1315 C1319 0.949 . S
C1316 C1317 1.349 . S
C1316 C1318 1.327 . S
C1316 H1339 0.950 . S
C1317 C1316 1.349 . S
C1317 C1329 1.349 . S
C1318 C1316 1.327 . S
C1318 C1334 1.429 . S
C1318 H1340 0.950 . S
C1319 H1315 0.949 . S
C1319 C1327 1.574 . S
C1319 C1335 1.368 . S
H1320 C1328 0.950 . S
H1321 C1326 0.950 . S
H1322 C1327 0.949 . S
H1323 C1329 0.950 . S
H1324 C1330 0.950 . S
H1325 C1331 0.949 . S
C1326 H1321 0.950 . S
C1326 C1328 1.327 . S
C1326 C1332 1.429 . S
C1327 C1319 1.574 . S
C1327 H1322 0.949 . S
C1327 C1333 1.368 . S
C1328 C1312 1.349 . S
C1328 H1320 0.950 . S
C1328 C1326 1.327 . S
C1329 C1317 1.349 . S
C1329 H1323 0.950 . S
C1329 C1330 1.327 . S
C1330 H1324 0.950 . S
C1330 C1329 1.327 . S
C1330 C1334 1.429 . S
C1331 C1314 1.574 . S
C1331 H1325 0.949 . S
C1331 C1335 1.368 . S
C1332 C1313 1.429 . S
C1332 C1326 1.429 . S
C1332 C1333 1.523 . S
C1333 C1314 1.368 . S
C1333 C1327 1.368 . S
C1333 C1332 1.523 . S
C1334 C1318 1.429 . S
C1334 C1330 1.429 . S
C1334 C1335 1.523 . S
C1335 C1319 1.368 . S
C1335 C1331 1.368 . S
C1335 C1334 1.523 . S
H1336 C1311 0.950 . S
H1337 C1313 0.950 . S
H1338 C1314 0.949 . S
H1339 C1316 0.950 . S
H1340 C1318 0.950 . S
C1341 C1342 1.349 . S
C1341 C1343 1.327 . S
C1341 H1366 0.950 . S
C1342 C1341 1.349 . S
C1342 C1358 1.349 . S
C1343 C1341 1.327 . S
C1343 C1362 1.429 . S
C1343 H1367 0.950 . S
C1344 C1361 1.574 1_565 S
C1344 C1363 1.368 . S
C1344 H1368 0.949 . S
H1345 C1349 0.949 . S
C1346 C1347 1.349 . S
C1346 C1348 1.327 . S
C1346 H1369 0.950 . S
C1347 C1346 1.349 . S
C1347 C1359 1.349 . S
C1348 C1346 1.327 . S
C1348 C1364 1.429 . S
C1348 H1370 0.950 . S
C1349 H1345 0.949 . S
C1349 C1357 1.574 1_545 S
C1349 C1365 1.368 . S
H1350 C1358 0.950 . S
H1351 C1356 0.950 . S
H1352 C1357 0.949 . S
H1353 C1359 0.950 . S
H1354 C1360 0.950 . S
H1355 C1361 0.949 . S
C1356 H1351 0.950 . S
C1356 C1358 1.327 . S
C1356 C1362 1.429 . S
C1357 C1349 1.574 1_565 S
C1357 H1352 0.949 . S
C1357 C1363 1.368 . S
C1358 C1342 1.349 . S
C1358 H1350 0.950 . S
C1358 C1356 1.327 . S
C1359 C1347 1.349 . S
C1359 H1353 0.950 . S
C1359 C1360 1.327 . S
C1360 H1354 0.950 . S
C1360 C1359 1.327 . S
C1360 C1364 1.429 . S
C1361 C1344 1.574 1_545 S
C1361 H1355 0.949 . S
C1361 C1365 1.368 . S
C1362 C1343 1.429 . S
C1362 C1356 1.429 . S
C1362 C1363 1.523 . S
C1363 C1344 1.368 . S
C1363 C1357 1.368 . S
C1363 C1362 1.523 . S
C1364 C1348 1.429 . S
C1364 C1360 1.429 . S
C1364 C1365 1.523 . S
C1365 C1349 1.368 . S
C1365 C1361 1.368 . S
C1365 C1364 1.523 . S
H1366 C1341 0.950 . S
H1367 C1343 0.950 . S
H1368 C1344 0.949 . S
H1369 C1346 0.950 . S
H1370 C1348 0.950 . S
C1371 C1372 1.349 . S
C1371 C1373 1.327 . S
C1371 H1396 0.950 . S
C1372 C1371 1.349 . S
C1372 C1388 1.349 . S
C1373 C1371 1.327 . S
C1373 C1392 1.429 . S
C1373 H1397 0.950 . S
C1374 C1391 1.574 1_455 S
C1374 C1393 1.368 . S
C1374 H1398 0.949 . S
H1375 C1379 0.949 . S
C1376 C1377 1.349 . S
C1376 C1378 1.327 . S
C1376 H1399 0.950 . S
C1377 C1376 1.349 . S
C1377 C1389 1.349 . S
C1378 C1376 1.327 . S
C1378 C1394 1.429 . S
C1378 H1400 0.950 . S
C1379 H1375 0.949 . S
C1379 C1387 1.574 1_655 S
C1379 C1395 1.368 . S
H1380 C1388 0.950 . S
H1381 C1386 0.950 . S
H1382 C1387 0.949 . S
H1383 C1389 0.950 . S
H1384 C1390 0.950 . S
H1385 C1391 0.949 . S
C1386 H1381 0.950 . S
C1386 C1388 1.327 . S
C1386 C1392 1.429 . S
C1387 C1379 1.574 1_455 S
C1387 H1382 0.949 . S
C1387 C1393 1.368 . S
C1388 C1372 1.349 . S
C1388 H1380 0.950 . S
C1388 C1386 1.327 . S
C1389 C1377 1.349 . S
C1389 H1383 0.950 . S
C1389 C1390 1.327 . S
C1390 H1384 0.950 . S
C1390 C1389 1.327 . S
C1390 C1394 1.429 . S
C1391 C1374 1.574 1_655 S
C1391 H1385 0.949 . S
C1391 C1395 1.368 . S
C1392 C1373 1.429 . S
C1392 C1386 1.429 . S
C1392 C1393 1.523 . S
C1393 C1374 1.368 . S
C1393 C1387 1.368 . S
C1393 C1392 1.523 . S
C1394 C1378 1.429 . S
C1394 C1390 1.429 . S
C1394 C1395 1.523 . S
C1395 C1379 1.368 . S
C1395 C1391 1.368 . S
C1395 C1394 1.523 . S
H1396 C1371 0.950 . S
H1397 C1373 0.950 . S
H1398 C1374 0.949 . S
H1399 C1376 0.950 . S
H1400 C1378 0.950 . S
C1401 C1402 1.349 . S
C1401 C1403 1.327 . S
C1401 H1426 0.950 . S
C1402 C1401 1.349 . S
C1402 C1418 1.349 . S
C1403 C1401 1.327 . S
C1403 C1422 1.429 . S
C1403 H1427 0.950 . S
C1404 C1421 1.574 . S
C1404 C1423 1.368 . S
C1404 H1428 0.949 . S
H1405 C1409 0.949 . S
C1406 C1407 1.349 . S
C1406 C1408 1.327 . S
C1406 H1429 0.950 . S
C1407 C1406 1.349 . S
C1407 C1419 1.349 . S
C1408 C1406 1.327 . S
C1408 C1424 1.429 . S
C1408 H1430 0.950 . S
C1409 H1405 0.949 . S
C1409 C1417 1.574 . S
C1409 C1425 1.368 . S
H1410 C1418 0.950 . S
H1411 C1416 0.950 . S
H1412 C1417 0.949 . S
H1413 C1419 0.950 . S
H1414 C1420 0.950 . S
H1415 C1421 0.949 . S
C1416 H1411 0.950 . S
C1416 C1418 1.327 . S
C1416 C1422 1.429 . S
C1417 C1409 1.574 . S
C1417 H1412 0.949 . S
C1417 C1423 1.368 . S
C1418 C1402 1.349 . S
C1418 H1410 0.950 . S
C1418 C1416 1.327 . S
C1419 C1407 1.349 . S
C1419 H1413 0.950 . S
C1419 C1420 1.327 . S
C1420 H1414 0.950 . S
C1420 C1419 1.327 . S
C1420 C1424 1.429 . S
C1421 C1404 1.574 . S
C1421 H1415 0.949 . S
C1421 C1425 1.368 . S
C1422 C1403 1.429 . S
C1422 C1416 1.429 . S
C1422 C1423 1.523 . S
C1423 C1404 1.368 . S
C1423 C1417 1.368 . S
C1423 C1422 1.523 . S
C1424 C1408 1.429 . S
C1424 C1420 1.429 . S
C1424 C1425 1.523 . S
C1425 C1409 1.368 . S
C1425 C1421 1.368 . S
C1425 C1424 1.523 . S
H1426 C1401 0.950 . S
H1427 C1403 0.950 . S
H1428 C1404 0.949 . S
H1429 C1406 0.950 . S
H1430 C1408 0.950 . S
C1431 C1432 1.349 . S
C1431 C1433 1.327 . S
C1431 H1456 0.950 . S
C1432 C1431 1.349 . S
C1432 C1448 1.349 . S
C1433 C1431 1.327 . S
C1433 C1452 1.429 1_455 S
C1433 H1457 0.935 1_455 S
C1434 C1451 1.574 . S
C1434 C1453 1.368 . S
C1434 H1458 0.949 . S
H1435 C1439 0.949 . S
C1436 C1437 1.349 . S
C1436 C1438 1.327 . S
C1436 H1459 0.950 . S
C1437 C1436 1.349 . S
C1437 C1449 1.349 . S
C1438 C1436 1.327 . S
C1438 C1454 1.429 . S
C1438 H1460 0.950 . S
C1439 H1435 0.949 . S
C1439 C1447 1.574 . S
C1439 C1455 1.368 . S
H1440 C1448 0.950 . S
H1441 C1446 0.950 . S
H1442 C1447 0.949 . S
H1443 C1449 0.950 . S
H1444 C1450 0.950 . S
H1445 C1451 0.949 . S
C1446 H1441 0.950 . S
C1446 C1448 1.327 . S
C1446 C1452 1.429 1_455 S
C1447 C1439 1.574 . S
C1447 H1442 0.949 . S
C1447 C1453 1.368 . S
C1448 C1432 1.349 . S
C1448 H1440 0.950 . S
C1448 C1446 1.327 . S
C1449 C1437 1.349 . S
C1449 H1443 0.950 . S
C1449 C1450 1.327 . S
C1450 H1444 0.950 . S
C1450 C1449 1.327 . S
C1450 C1454 1.429 . S
C1451 C1434 1.574 . S
C1451 H1445 0.949 . S
C1451 C1455 1.368 . S
C1452 C1433 1.429 1_655 S
C1452 C1446 1.429 1_655 S
C1452 C1453 1.523 . S
C1453 C1434 1.368 . S
C1453 C1447 1.368 . S
C1453 C1452 1.523 . S
C1454 C1438 1.429 . S
C1454 C1450 1.429 . S
C1454 C1455 1.523 . S
C1455 C1439 1.368 . S
C1455 C1451 1.368 . S
C1455 C1454 1.523 . S
H1456 C1431 0.950 . S
H1457 C1433 0.935 1_655 S
H1458 C1434 0.949 . S
H1459 C1436 0.950 . S
H1460 C1438 0.950 . S
C1461 C1462 1.349 . S
C1461 C1463 1.327 . S
C1461 H1486 0.950 . S
C1462 C1461 1.349 . S
C1462 C1478 1.349 . S
C1463 C1461 1.327 . S
C1463 C1482 1.429 . S
C1463 H1487 0.950 . S
C1464 C1481 1.574 . S
C1464 C1483 1.368 . S
C1464 H1488 0.949 . S
H1465 C1469 0.949 . S
C1466 C1467 1.349 . S
C1466 C1468 1.327 . S
C1466 H1489 0.950 . S
C1467 C1466 1.349 . S
C1467 C1479 1.349 . S
C1468 C1466 1.327 . S
C1468 C1484 1.429 . S
C1468 H1490 0.950 . S
C1469 H1465 0.949 . S
C1469 C1477 1.574 . S
C1469 C1485 1.368 . S
H1470 C1478 0.950 . S
H1471 C1476 0.950 . S
H1472 C1477 0.949 . S
H1473 C1479 0.950 . S
H1474 C1480 0.950 . S
H1475 C1481 0.949 . S
C1476 H1471 0.950 . S
C1476 C1478 1.327 . S
C1476 C1482 1.429 . S
C1477 C1469 1.574 . S
C1477 H1472 0.949 . S
C1477 C1483 1.368 . S
C1478 C1462 1.349 . S
C1478 H1470 0.950 . S
C1478 C1476 1.327 . S
C1479 C1467 1.349 . S
C1479 H1473 0.950 . S
C1479 C1480 1.327 . S
C1480 H1474 0.950 . S
C1480 C1479 1.327 . S
C1480 C1484 1.429 . S
C1481 C1464 1.574 . S
C1481 H1475 0.949 . S
C1481 C1485 1.368 . S
C1482 C1463 1.429 . S
C1482 C1476 1.429 . S
C1482 C1483 1.523 . S
C1483 C1464 1.368 . S
C1483 C1477 1.368 . S
C1483 C1482 1.523 . S
C1484 C1468 1.429 . S
C1484 C1480 1.429 . S
C1484 C1485 1.523 . S
C1485 C1469 1.368 . S
C1485 C1481 1.368 . S
C1485 C1484 1.523 . S
H1486 C1461 0.950 . S
H1487 C1463 0.950 . S
H1488 C1464 0.949 . S
H1489 C1466 0.950 . S
H1490 C1468 0.950 . S
C1491 C1492 1.349 . S
C1491 C1493 1.327 1_565 S
C1491 H1516 0.950 . S
C1492 C1491 1.349 . S
C1492 C1508 1.349 . S
C1493 C1491 1.327 1_545 S
C1493 C1512 1.429 . S
C1493 H1517 0.950 . S
C1494 C1511 1.574 . S
C1494 C1513 1.368 . S
C1494 H1518 0.949 . S
H1495 C1499 0.949 . S
C1496 C1497 1.349 . S
C1496 C1498 1.327 . S
C1496 H1519 0.950 . S
C1497 C1496 1.349 . S
C1497 C1509 1.349 . S
C1498 C1496 1.327 . S
C1498 C1514 1.429 . S
C1498 H1520 0.950 . S
C1499 H1495 0.949 . S
C1499 C1507 1.574 . S
C1499 C1515 1.368 . S
H1500 C1508 0.950 . S
H1501 C1506 0.950 . S
H1502 C1507 0.949 . S
H1503 C1509 0.950 . S
H1504 C1510 0.950 . S
H1505 C1511 0.949 . S
C1506 H1501 0.950 . S
C1506 C1508 1.327 1_545 S
C1506 C1512 1.429 . S
C1507 C1499 1.574 . S
C1507 H1502 0.949 . S
C1507 C1513 1.368 . S
C1508 C1492 1.349 . S
C1508 H1500 0.950 . S
C1508 C1506 1.327 1_565 S
C1509 C1497 1.349 . S
C1509 H1503 0.950 . S
C1509 C1510 1.327 . S
C1510 H1504 0.950 . S
C1510 C1509 1.327 . S
C1510 C1514 1.429 . S
C1511 C1494 1.574 . S
C1511 H1505 0.949 . S
C1511 C1515 1.368 . S
C1512 C1493 1.429 . S
C1512 C1506 1.429 . S
C1512 C1513 1.523 . S
C1513 C1494 1.368 . S
C1513 C1507 1.368 . S
C1513 C1512 1.523 . S
C1514 C1498 1.429 . S
C1514 C1510 1.429 . S
C1514 C1515 1.523 . S
C1515 C1499 1.368 . S
C1515 C1511 1.368 . S
C1515 C1514 1.523 . S
H1516 C1491 0.950 . S
H1517 C1493 0.950 . S
H1518 C1494 0.949 . S
H1519 C1496 0.950 . S
H1520 C1498 0.950 . S
C1521 C1522 1.349 . S
C1521 C1523 1.327 . S
C1521 H1546 0.950 . S
C1522 C1521 1.349 . S
C1522 C1538 1.349 . S
C1523 C1521 1.327 . S
C1523 C1542 1.429 . S
C1523 H1547 0.950 . S
C1524 C1541 1.574 . S
C1524 C1543 1.368 . S
C1524 H1548 0.949 . S
H1525 C1529 0.949 . S
C1526 C1527 1.349 . S
C1526 C1528 1.327 . S
C1526 H1549 0.950 . S
C1527 C1526 1.349 . S
C1527 C1539 1.349 . S
C1528 C1526 1.327 . S
C1528 C1544 1.429 . S
C1528 H1550 0.950 . S
C1529 H1525 0.949 . S
C1529 C1537 1.574 . S
C1529 C1545 1.368 . S
H1530 C1538 0.950 . S
H1531 C1536 0.950 . S
H1532 C1537 0.949 . S
H1533 C1539 0.950 . S
H1534 C1540 0.950 . S
H1535 C1541 0.949 . S
C1536 H1531 0.950 . S
C1536 C1538 1.327 . S
C1536 C1542 1.429 . S
C1537 C1529 1.574 . S
C1537 H1532 0.949 . S
C1537 C1543 1.368 . S
C1538 C1522 1.349 . S
C1538 H1530 0.950 . S
C1538 C1536 1.327 . S
C1539 C1527 1.349 . S
C1539 H1533 0.950 . S
C1539 C1540 1.327 . S
C1540 H1534 0.950 . S
C1540 C1539 1.327 . S
C1540 C1544 1.429 . S
C1541 C1524 1.574 . S
C1541 H1535 0.949 . S
C1541 C1545 1.368 . S
C1542 C1523 1.429 . S
C1542 C1536 1.429 . S
C1542 C1543 1.523 . S
C1543 C1524 1.368 . S
C1543 C1537 1.368 . S
C1543 C1542 1.523 . S
C1544 C1528 1.429 . S
C1544 C1540 1.429 . S
C1544 C1545 1.523 . S
C1545 C1529 1.368 . S
C1545 C1541 1.368 . S
C1545 C1544 1.523 . S
H1546 C1521 0.950 . S
H1547 C1523 0.950 . S
H1548 C1524 0.949 . S
H1549 C1526 0.950 . S
H1550 C1528 0.950 . S
C1551 C1552 1.349 . S
C1551 C1553 1.327 . S
C1551 H1576 0.950 . S
C1552 C1551 1.349 . S
C1552 C1568 1.349 . S
C1553 C1551 1.327 . S
C1553 C1572 1.429 . S
C1553 H1577 0.950 . S
C1554 C1571 1.574 . S
C1554 C1573 1.368 . S
C1554 H1578 0.949 . S
H1555 C1559 0.949 . S
C1556 C1557 1.349 . S
C1556 C1558 1.327 . S
C1556 H1579 0.950 . S
C1557 C1556 1.349 . S
C1557 C1569 1.349 . S
C1558 C1556 1.327 . S
C1558 C1574 1.429 . S
C1558 H1580 0.950 . S
C1559 H1555 0.949 . S
C1559 C1567 1.574 . S
C1559 C1575 1.368 . S
H1560 C1568 0.950 . S
H1561 C1566 0.950 . S
H1562 C1567 0.949 . S
H1563 C1569 0.950 . S
H1564 C1570 0.950 . S
H1565 C1571 0.949 . S
C1566 H1561 0.950 . S
C1566 C1568 1.327 . S
C1566 C1572 1.429 . S
C1567 C1559 1.574 . S
C1567 H1562 0.949 . S
C1567 C1573 1.368 . S
C1568 C1552 1.349 . S
C1568 H1560 0.950 . S
C1568 C1566 1.327 . S
C1569 C1557 1.349 . S
C1569 H1563 0.950 . S
C1569 C1570 1.327 . S
C1570 H1564 0.950 . S
C1570 C1569 1.327 . S
C1570 C1574 1.429 . S
C1571 C1554 1.574 . S
C1571 H1565 0.949 . S
C1571 C1575 1.368 . S
C1572 C1553 1.429 . S
C1572 C1566 1.429 . S
C1572 C1573 1.523 . S
C1573 C1554 1.368 . S
C1573 C1567 1.368 . S
C1573 C1572 1.523 . S
C1574 C1558 1.429 . S
C1574 C1570 1.429 . S
C1574 C1575 1.523 . S
C1575 C1559 1.368 . S
C1575 C1571 1.368 . S
C1575 C1574 1.523 . S
H1576 C1551 0.950 . S
H1577 C1553 0.950 . S
H1578 C1554 0.949 . S
H1579 C1556 0.950 . S
H1580 C1558 0.950 . S
C1581 C1582 1.349 . S
C1581 C1583 1.327 . S
C1581 H1606 0.950 . S
C1582 C1581 1.349 . S
C1582 C1598 1.349 . S
C1583 C1581 1.327 . S
C1583 C1602 1.429 . S
C1583 H1607 0.950 . S
C1584 C1601 1.574 . S
C1584 C1603 1.368 . S
C1584 H1608 0.949 . S
H1585 C1589 0.949 . S
C1586 C1587 1.349 . S
C1586 C1588 1.327 . S
C1586 H1609 0.950 . S
C1587 C1586 1.349 . S
C1587 C1599 1.349 . S
C1588 C1586 1.327 . S
C1588 C1604 1.429 . S
C1588 H1610 0.950 . S
C1589 H1585 0.949 . S
C1589 C1597 1.574 . S
C1589 C1605 1.368 . S
H1590 C1598 0.950 . S
H1591 C1596 0.950 . S
H1592 C1597 0.949 . S
H1593 C1599 0.950 . S
H1594 C1600 0.950 . S
H1595 C1601 0.949 . S
C1596 H1591 0.950 . S
C1596 C1598 1.327 . S
C1596 C1602 1.429 . S
C1597 C1589 1.574 . S
C1597 H1592 0.949 . S
C1597 C1603 1.368 . S
C1598 C1582 1.349 . S
C1598 H1590 0.950 . S
C1598 C1596 1.327 . S
C1599 C1587 1.349 . S
C1599 H1593 0.950 . S
C1599 C1600 1.327 . S
C1600 H1594 0.950 . S
C1600 C1599 1.327 . S
C1600 C1604 1.429 . S
C1601 C1584 1.574 . S
C1601 H1595 0.949 . S
C1601 C1605 1.368 . S
C1602 C1583 1.429 . S
C1602 C1596 1.429 . S
C1602 C1603 1.523 . S
C1603 C1584 1.368 . S
C1603 C1597 1.368 . S
C1603 C1602 1.523 . S
C1604 C1588 1.429 . S
C1604 C1600 1.429 . S
C1604 C1605 1.523 . S
C1605 C1589 1.368 . S
C1605 C1601 1.368 . S
C1605 C1604 1.523 . S
H1606 C1581 0.950 . S
H1607 C1583 0.950 . S
H1608 C1584 0.949 . S
H1609 C1586 0.950 . S
H1610 C1588 0.950 . S
C1611 C1612 1.349 . S
C1611 C1613 1.327 . S
C1611 H1636 0.950 . S
C1612 C1611 1.349 . S
C1612 C1628 1.349 . S
C1613 C1611 1.327 . S
C1613 C1632 1.429 . S
C1613 H1637 0.950 . S
C1614 C1631 1.574 . S
C1614 C1633 1.368 . S
C1614 H1638 0.949 . S
H1615 C1619 0.949 . S
C1616 C1617 1.349 . S
C1616 C1618 1.327 . S
C1616 H1639 0.950 1_565 S
C1617 C1616 1.349 . S
C1617 C1629 1.349 . S
C1618 C1616 1.327 . S
C1618 C1634 1.429 . S
C1618 H1640 0.950 1_565 S
C1619 H1615 0.949 . S
C1619 C1627 1.574 . S
C1619 C1635 1.368 . S
H1620 C1628 0.950 . S
H1621 C1626 0.950 . S
H1622 C1627 0.949 . S
H1623 C1629 0.950 . S
H1624 C1630 0.950 . S
H1625 C1631 0.949 . S
C1626 H1621 0.950 . S
C1626 C1628 1.327 . S
C1626 C1632 1.429 . S
C1627 C1619 1.574 . S
C1627 H1622 0.949 . S
C1627 C1633 1.368 . S
C1628 C1612 1.349 . S
C1628 H1620 0.950 . S
C1628 C1626 1.327 . S
C1629 C1617 1.349 . S
C1629 H1623 0.950 . S
C1629 C1630 1.327 . S
C1630 H1624 0.950 . S
C1630 C1629 1.327 . S
C1630 C1634 1.429 . S
C1631 C1614 1.574 . S
C1631 H1625 0.949 . S
C1631 C1635 1.368 . S
C1632 C1613 1.429 . S
C1632 C1626 1.429 . S
C1632 C1633 1.523 . S
C1633 C1614 1.368 . S
C1633 C1627 1.368 . S
C1633 C1632 1.523 . S
C1634 C1618 1.429 . S
C1634 C1630 1.429 . S
C1634 C1635 1.523 . S
C1635 C1619 1.368 . S
C1635 C1631 1.368 . S
C1635 C1634 1.523 . S
H1636 C1611 0.950 . S
H1637 C1613 0.950 . S
H1638 C1614 0.949 . S
H1639 C1616 0.950 1_545 S
H1640 C1618 0.950 1_545 S
C1641 C1642 1.349 . S
C1641 C1643 1.327 . S
C1641 H1666 0.950 . S
C1642 C1641 1.349 . S
C1642 C1658 1.349 . S
C1643 C1641 1.327 . S
C1643 C1662 1.429 . S
C1643 H1667 0.950 . S
C1644 C1661 1.574 . S
C1644 C1663 1.368 . S
C1644 H1668 0.949 . S
H1645 C1649 0.949 . S
C1646 C1647 1.349 . S
C1646 C1648 1.327 . S
C1646 H1669 0.950 . S
C1647 C1646 1.349 . S
C1647 C1659 1.349 . S
C1648 C1646 1.327 . S
C1648 C1664 1.429 . S
C1648 H1670 0.950 . S
C1649 H1645 0.949 . S
C1649 C1657 1.574 . S
C1649 C1665 1.368 . S
H1650 C1658 0.950 . S
H1651 C1656 0.950 . S
H1652 C1657 0.949 . S
H1653 C1659 0.950 . S
H1654 C1660 0.950 . S
H1655 C1661 0.949 . S
C1656 H1651 0.950 . S
C1656 C1658 1.327 . S
C1656 C1662 1.429 . S
C1657 C1649 1.574 . S
C1657 H1652 0.949 . S
C1657 C1663 1.368 . S
C1658 C1642 1.349 . S
C1658 H1650 0.950 . S
C1658 C1656 1.327 . S
C1659 C1647 1.349 . S
C1659 H1653 0.950 . S
C1659 C1660 1.327 . S
C1660 H1654 0.950 . S
C1660 C1659 1.327 . S
C1660 C1664 1.429 . S
C1661 C1644 1.574 . S
C1661 H1655 0.949 . S
C1661 C1665 1.368 . S
C1662 C1643 1.429 . S
C1662 C1656 1.429 . S
C1662 C1663 1.523 . S
C1663 C1644 1.368 . S
C1663 C1657 1.368 . S
C1663 C1662 1.523 . S
C1664 C1648 1.429 . S
C1664 C1660 1.429 . S
C1664 C1665 1.523 . S
C1665 C1649 1.368 . S
C1665 C1661 1.368 . S
C1665 C1664 1.523 . S
H1666 C1641 0.950 . S
H1667 C1643 0.950 . S
H1668 C1644 0.949 . S
H1669 C1646 0.950 . S
H1670 C1648 0.950 . S
C1671 C1672 1.349 . S
C1671 C1673 1.327 . S
C1671 H1696 0.950 . S
C1672 C1671 1.349 . S
C1672 C1688 1.349 . S
C1673 C1671 1.327 . S
C1673 C1692 1.429 . S
C1673 H1697 0.950 . S
C1674 C1691 1.574 . S
C1674 C1693 1.368 . S
C1674 H1698 0.949 . S
H1675 C1679 0.949 . S
C1676 C1677 1.349 . S
C1676 C1678 1.327 . S
C1676 H1699 0.950 . S
C1677 C1676 1.349 . S
C1677 C1689 1.349 . S
C1678 C1676 1.327 . S
C1678 C1694 1.429 . S
C1678 H1700 0.950 . S
C1679 H1675 0.949 . S
C1679 C1687 1.574 . S
C1679 C1695 1.368 . S
H1680 C1688 0.950 . S
H1681 C1686 0.950 . S
H1682 C1687 0.949 . S
H1683 C1689 0.950 . S
H1684 C1690 0.950 . S
H1685 C1691 0.949 . S
C1686 H1681 0.950 . S
C1686 C1688 1.327 . S
C1686 C1692 1.429 . S
C1687 C1679 1.574 . S
C1687 H1682 0.949 . S
C1687 C1693 1.368 . S
C1688 C1672 1.349 . S
C1688 H1680 0.950 . S
C1688 C1686 1.327 . S
C1689 C1677 1.349 . S
C1689 H1683 0.950 . S
C1689 C1690 1.327 . S
C1690 H1684 0.950 . S
C1690 C1689 1.327 . S
C1690 C1694 1.429 . S
C1691 C1674 1.574 . S
C1691 H1685 0.949 . S
C1691 C1695 1.368 . S
C1692 C1673 1.429 . S
C1692 C1686 1.429 . S
C1692 C1693 1.523 . S
C1693 C1674 1.368 . S
C1693 C1687 1.368 . S
C1693 C1692 1.523 . S
C1694 C1678 1.429 . S
C1694 C1690 1.429 . S
C1694 C1695 1.523 . S
C1695 C1679 1.368 . S
C1695 C1691 1.368 . S
C1695 C1694 1.523 . S
H1696 C1671 0.950 . S
H1697 C1673 0.950 . S
H1698 C1674 0.949 . S
H1699 C1676 0.950 . S
H1700 C1678 0.950 . S
C1701 C1702 1.349 . S
C1701 C1703 1.327 . S
C1701 H1726 0.950 . S
C1702 C1701 1.349 . S
C1702 C1718 1.349 . S
C1703 C1701 1.327 . S
C1703 C1722 1.429 . S
C1703 H1727 0.950 . S
C1704 C1721 1.574 . S
C1704 C1723 1.368 . S
C1704 H1728 0.949 . S
H1705 C1709 0.949 . S
C1706 C1707 1.349 . S
C1706 C1708 1.327 . S
C1706 H1729 0.950 . S
C1707 C1706 1.349 . S
C1707 C1719 1.349 . S
C1708 C1706 1.327 . S
C1708 C1724 1.429 . S
C1708 H1730 0.950 . S
C1709 H1705 0.949 . S
C1709 C1717 1.574 . S
C1709 C1725 1.368 . S
H1710 C1718 0.950 . S
H1711 C1716 0.950 . S
H1712 C1717 0.949 . S
H1713 C1719 0.950 . S
H1714 C1720 0.950 . S
H1715 C1721 0.949 . S
C1716 H1711 0.950 . S
C1716 C1718 1.327 . S
C1716 C1722 1.429 . S
C1717 C1709 1.574 . S
C1717 H1712 0.949 . S
C1717 C1723 1.368 . S
C1718 C1702 1.349 . S
C1718 H1710 0.950 . S
C1718 C1716 1.327 . S
C1719 C1707 1.349 . S
C1719 H1713 0.950 . S
C1719 C1720 1.327 . S
C1720 H1714 0.950 . S
C1720 C1719 1.327 . S
C1720 C1724 1.429 . S
C1721 C1704 1.574 . S
C1721 H1715 0.949 . S
C1721 C1725 1.368 . S
C1722 C1703 1.429 . S
C1722 C1716 1.429 . S
C1722 C1723 1.523 . S
C1723 C1704 1.368 . S
C1723 C1717 1.368 . S
C1723 C1722 1.523 . S
C1724 C1708 1.429 . S
C1724 C1720 1.429 . S
C1724 C1725 1.523 . S
C1725 C1709 1.368 . S
C1725 C1721 1.368 . S
C1725 C1724 1.523 . S
H1726 C1701 0.950 . S
H1727 C1703 0.950 . S
H1728 C1704 0.949 . S
H1729 C1706 0.950 . S
H1730 C1708 0.950 . S
C1731 C1732 1.349 . S
C1731 C1733 1.327 . S
C1731 H1756 0.950 . S
C1732 C1731 1.349 . S
C1732 C1748 1.349 . S
C1733 C1731 1.327 . S
C1733 C1752 1.429 . S
C1733 H1757 0.950 . S
C1734 C1751 1.574 . S
C1734 C1753 1.368 . S
C1734 H1758 0.949 . S
H1735 C1739 0.949 . S
C1736 C1737 1.349 . S
C1736 C1738 1.327 . S
C1736 H1759 0.950 . S
C1737 C1736 1.349 . S
C1737 C1749 1.349 . S
C1738 C1736 1.327 . S
C1738 C1754 1.429 . S
C1738 H1760 0.950 . S
C1739 H1735 0.949 . S
C1739 C1747 1.574 . S
C1739 C1755 1.368 . S
H1740 C1748 0.950 . S
H1741 C1746 0.950 . S
H1742 C1747 0.949 . S
H1743 C1749 0.950 . S
H1744 C1750 0.950 . S
H1745 C1751 0.949 . S
C1746 H1741 0.950 . S
C1746 C1748 1.327 . S
C1746 C1752 1.429 . S
C1747 C1739 1.574 . S
C1747 H1742 0.949 . S
C1747 C1753 1.368 . S
C1748 C1732 1.349 . S
C1748 H1740 0.950 . S
C1748 C1746 1.327 . S
C1749 C1737 1.349 . S
C1749 H1743 0.950 . S
C1749 C1750 1.327 . S
C1750 H1744 0.950 . S
C1750 C1749 1.327 . S
C1750 C1754 1.429 . S
C1751 C1734 1.574 . S
C1751 H1745 0.949 . S
C1751 C1755 1.368 . S
C1752 C1733 1.429 . S
C1752 C1746 1.429 . S
C1752 C1753 1.523 . S
C1753 C1734 1.368 . S
C1753 C1747 1.368 . S
C1753 C1752 1.523 . S
C1754 C1738 1.429 . S
C1754 C1750 1.429 . S
C1754 C1755 1.523 . S
C1755 C1739 1.368 . S
C1755 C1751 1.368 . S
C1755 C1754 1.523 . S
H1756 C1731 0.950 . S
H1757 C1733 0.950 . S
H1758 C1734 0.949 . S
H1759 C1736 0.950 . S
H1760 C1738 0.950 . S
C1761 C1762 1.349 . S
C1761 C1763 1.327 . S
C1761 H1786 0.950 . S
C1762 C1761 1.349 . S
C1762 C1778 1.349 . S
C1763 C1761 1.327 . S
C1763 C1782 1.429 . S
C1763 H1787 0.950 . S
C1764 C1781 1.574 . S
C1764 C1783 1.368 . S
C1764 H1788 0.949 . S
H1765 C1769 0.949 . S
C1766 C1767 1.349 . S
C1766 C1768 1.327 . S
C1766 H1789 0.948 1_545 S
C1767 C1766 1.349 . S
C1767 C1779 1.349 . S
C1768 C1766 1.327 . S
C1768 C1784 1.429 . S
C1768 H1790 0.950 . S
C1769 H1765 0.949 . S
C1769 C1777 1.574 . S
C1769 C1785 1.368 . S
H1770 C1778 0.950 . S
H1771 C1776 0.950 . S
H1772 C1777 0.949 . S
H1773 C1779 0.950 . S
H1774 C1780 0.950 . S
H1775 C1781 0.949 . S
C1776 H1771 0.950 . S
C1776 C1778 1.327 . S
C1776 C1782 1.429 . S
C1777 C1769 1.574 . S
C1777 H1772 0.949 . S
C1777 C1783 1.368 . S
C1778 C1762 1.349 . S
C1778 H1770 0.950 . S
C1778 C1776 1.327 . S
C1779 C1767 1.349 . S
C1779 H1773 0.950 . S
C1779 C1780 1.327 . S
C1780 H1774 0.950 . S
C1780 C1779 1.327 . S
C1780 C1784 1.429 . S
C1781 C1764 1.574 . S
C1781 H1775 0.949 . S
C1781 C1785 1.368 . S
C1782 C1763 1.429 . S
C1782 C1776 1.429 . S
C1782 C1783 1.523 . S
C1783 C1764 1.368 . S
C1783 C1777 1.368 . S
C1783 C1782 1.523 . S
C1784 C1768 1.429 . S
C1784 C1780 1.429 . S
C1784 C1785 1.523 . S
C1785 C1769 1.368 . S
C1785 C1781 1.368 . S
C1785 C1784 1.523 . S
H1786 C1761 0.950 . S
H1787 C1763 0.950 . S
H1788 C1764 0.949 . S
H1789 C1766 0.948 1_565 S
H1790 C1768 0.950 . S
C1791 C1792 1.349 . S
C1791 C1793 1.327 . S
C1791 H1816 0.950 . S
C1792 C1791 1.349 . S
C1792 C1808 1.349 . S
C1793 C1791 1.327 . S
C1793 C1812 1.429 . S
C1793 H1817 0.950 . S
C1794 C1811 1.574 . S
C1794 C1813 1.368 . S
C1794 H1818 0.949 . S
H1795 C1799 0.949 . S
C1796 C1797 1.349 . S
C1796 C1798 1.327 . S
C1796 H1819 0.950 . S
C1797 C1796 1.349 . S
C1797 C1809 1.349 . S
C1798 C1796 1.327 . S
C1798 C1814 1.429 . S
C1798 H1820 0.950 . S
C1799 H1795 0.949 . S
C1799 C1807 1.574 . S
C1799 C1815 1.368 . S
H1800 C1808 0.950 . S
H1801 C1806 0.950 . S
H1802 C1807 0.949 . S
H1803 C1809 0.950 . S
H1804 C1810 0.950 . S
H1805 C1811 0.949 . S
C1806 H1801 0.950 . S
C1806 C1808 1.327 . S
C1806 C1812 1.429 . S
C1807 C1799 1.574 . S
C1807 H1802 0.949 . S
C1807 C1813 1.368 . S
C1808 C1792 1.349 . S
C1808 H1800 0.950 . S
C1808 C1806 1.327 . S
C1809 C1797 1.349 . S
C1809 H1803 0.950 . S
C1809 C1810 1.327 . S
C1810 H1804 0.950 . S
C1810 C1809 1.327 . S
C1810 C1814 1.429 . S
C1811 C1794 1.574 . S
C1811 H1805 0.949 . S
C1811 C1815 1.368 . S
C1812 C1793 1.429 . S
C1812 C1806 1.429 . S
C1812 C1813 1.523 . S
C1813 C1794 1.368 . S
C1813 C1807 1.368 . S
C1813 C1812 1.523 . S
C1814 C1798 1.429 . S
C1814 C1810 1.429 . S
C1814 C1815 1.523 . S
C1815 C1799 1.368 . S
C1815 C1811 1.368 . S
C1815 C1814 1.523 . S
H1816 C1791 0.950 . S
H1817 C1793 0.950 . S
H1818 C1794 0.949 . S
H1819 C1796 0.950 . S
H1820 C1798 0.950 . S
C1821 C1822 1.349 . S
C1821 C1823 1.327 . S
C1821 H1846 0.950 . S
C1822 C1821 1.349 . S
C1822 C1838 1.349 . S
C1823 C1821 1.327 . S
C1823 C1842 1.429 . S
C1823 H1847 0.950 . S
C1824 C1841 1.574 . S
C1824 C1843 1.368 . S
C1824 H1848 0.949 . S
H1825 C1829 0.949 . S
C1826 C1827 1.349 . S
C1826 C1828 1.327 . S
C1826 H1849 0.950 . S
C1827 C1826 1.349 . S
C1827 C1839 1.349 . S
C1828 C1826 1.327 . S
C1828 C1844 1.429 . S
C1828 H1850 0.950 . S
C1829 H1825 0.949 . S
C1829 C1837 1.574 . S
C1829 C1845 1.368 . S
H1830 C1838 0.950 . S
H1831 C1836 0.950 . S
H1832 C1837 0.949 . S
H1833 C1839 0.950 . S
H1834 C1840 0.950 . S
H1835 C1841 0.949 . S
C1836 H1831 0.950 . S
C1836 C1838 1.327 . S
C1836 C1842 1.429 . S
C1837 C1829 1.574 . S
C1837 H1832 0.949 . S
C1837 C1843 1.368 . S
C1838 C1822 1.349 . S
C1838 H1830 0.950 . S
C1838 C1836 1.327 . S
C1839 C1827 1.349 . S
C1839 H1833 0.950 . S
C1839 C1840 1.327 . S
C1840 H1834 0.950 . S
C1840 C1839 1.327 . S
C1840 C1844 1.429 . S
C1841 C1824 1.574 . S
C1841 H1835 0.949 . S
C1841 C1845 1.368 . S
C1842 C1823 1.429 . S
C1842 C1836 1.429 . S
C1842 C1843 1.523 . S
C1843 C1824 1.368 . S
C1843 C1837 1.368 . S
C1843 C1842 1.523 . S
C1844 C1828 1.429 . S
C1844 C1840 1.429 . S
C1844 C1845 1.523 . S
C1845 C1829 1.368 . S
C1845 C1841 1.368 . S
C1845 C1844 1.523 . S
H1846 C1821 0.950 . S
H1847 C1823 0.950 . S
H1848 C1824 0.949 . S
H1849 C1826 0.950 . S
H1850 C1828 0.950 . S
C1851 C1852 1.349 . S
C1851 C1853 1.327 . S
C1851 H1876 0.950 . S
C1852 C1851 1.349 . S
C1852 C1868 1.349 . S
C1853 C1851 1.327 . S
C1853 C1872 1.429 . S
C1853 H1877 0.950 . S
C1854 C1871 1.574 . S
C1854 C1873 1.368 . S
C1854 H1878 0.949 . S
H1855 C1859 0.949 . S
C1856 C1857 1.349 . S
C1856 C1858 1.327 . S
C1856 H1879 0.950 . S
C1857 C1856 1.349 . S
C1857 C1869 1.349 . S
C1858 C1856 1.327 . S
C1858 C1874 1.429 . S
C1858 H1880 0.950 . S
C1859 H1855 0.949 . S
C1859 C1867 1.574 . S
C1859 C1875 1.368 . S
H1860 C1868 0.950 . S
H1861 C1866 0.950 . S
H1862 C1867 0.949 . S
H1863 C1869 0.950 . S
H1864 C1870 0.950 . S
H1865 C1871 0.949 . S
C1866 H1861 0.950 . S
C1866 C1868 1.327 . S
C1866 C1872 1.429 . S
C1867 C1859 1.574 . S
C1867 H1862 0.949 . S
C1867 C1873 1.368 . S
C1868 C1852 1.349 . S
C1868 H1860 0.950 . S
C1868 C1866 1.327 . S
C1869 C1857 1.349 . S
C1869 H1863 0.950 . S
C1869 C1870 1.327 . S
C1870 H1864 0.950 . S
C1870 C1869 1.327 . S
C1870 C1874 1.429 . S
C1871 C1854 1.574 . S
C1871 H1865 0.949 . S
C1871 C1875 1.368 . S
C1872 C1853 1.429 . S
C1872 C1866 1.429 . S
C1872 C1873 1.523 . S
C1873 C1854 1.368 . S
C1873 C1867 1.368 . S
C1873 C1872 1.523 . S
C1874 C1858 1.429 . S
C1874 C1870 1.429 . S
C1874 C1875 1.523 . S
C1875 C1859 1.368 . S
C1875 C1871 1.368 . S
C1875 C1874 1.523 . S
H1876 C1851 0.950 . S
H1877 C1853 0.950 . S
H1878 C1854 0.949 . S
H1879 C1856 0.950 . S
H1880 C1858 0.950 . S
C1881 C1882 1.349 . S
C1881 C1883 1.327 . S
C1881 H1906 0.950 . S
C1882 C1881 1.349 . S
C1882 C1898 1.349 . S
C1883 C1881 1.327 . S
C1883 C1902 1.429 . S
C1883 H1907 0.950 . S
C1884 C1901 1.574 . S
C1884 C1903 1.368 . S
C1884 H1908 0.949 . S
H1885 C1889 0.949 . S
C1886 C1887 1.349 . S
C1886 C1888 1.327 . S
C1886 H1909 0.950 . S
C1887 C1886 1.349 . S
C1887 C1899 1.349 . S
C1888 C1886 1.327 . S
C1888 C1904 1.429 . S
C1888 H1910 0.950 . S
C1889 H1885 0.949 . S
C1889 C1897 1.574 . S
C1889 C1905 1.368 . S
H1890 C1898 0.950 . S
H1891 C1896 0.950 . S
H1892 C1897 0.949 . S
H1893 C1899 0.950 . S
H1894 C1900 0.950 . S
H1895 C1901 0.949 . S
C1896 H1891 0.950 . S
C1896 C1898 1.327 . S
C1896 C1902 1.429 . S
C1897 C1889 1.574 . S
C1897 H1892 0.949 . S
C1897 C1903 1.368 . S
C1898 C1882 1.349 . S
C1898 H1890 0.950 . S
C1898 C1896 1.327 . S
C1899 C1887 1.349 . S
C1899 H1893 0.950 . S
C1899 C1900 1.327 . S
C1900 H1894 0.950 . S
C1900 C1899 1.327 . S
C1900 C1904 1.429 . S
C1901 C1884 1.574 . S
C1901 H1895 0.949 . S
C1901 C1905 1.368 . S
C1902 C1883 1.429 . S
C1902 C1896 1.429 . S
C1902 C1903 1.523 . S
C1903 C1884 1.368 . S
C1903 C1897 1.368 . S
C1903 C1902 1.523 . S
C1904 C1888 1.429 . S
C1904 C1900 1.429 . S
C1904 C1905 1.523 . S
C1905 C1889 1.368 . S
C1905 C1901 1.368 . S
C1905 C1904 1.523 . S
H1906 C1881 0.950 . S
H1907 C1883 0.950 . S
H1908 C1884 0.949 . S
H1909 C1886 0.950 . S
H1910 C1888 0.950 . S
C1911 C1912 1.349 . S
C1911 C1913 1.327 . S
C1911 H1936 0.950 . S
C1912 C1911 1.349 . S
C1912 C1928 1.349 . S
C1913 C1911 1.327 . S
C1913 C1932 1.429 . S
C1913 H1937 0.950 . S
C1914 C1931 1.574 . S
C1914 C1933 1.368 . S
C1914 H1938 0.949 . S
H1915 C1919 0.949 . S
C1916 C1917 1.349 . S
C1916 C1918 1.327 . S
C1916 H1939 0.950 . S
C1917 C1916 1.349 . S
C1917 C1929 1.349 . S
C1918 C1916 1.327 . S
C1918 C1934 1.429 . S
C1918 H1940 0.950 . S
C1919 H1915 0.949 . S
C1919 C1927 1.574 . S
C1919 C1935 1.368 . S
H1920 C1928 0.950 . S
H1921 C1926 0.950 . S
H1922 C1927 0.949 . S
H1923 C1929 0.950 . S
H1924 C1930 0.950 . S
H1925 C1931 0.949 . S
C1926 H1921 0.950 . S
C1926 C1928 1.327 . S
C1926 C1932 1.429 . S
C1927 C1919 1.574 . S
C1927 H1922 0.949 . S
C1927 C1933 1.368 . S
C1928 C1912 1.349 . S
C1928 H1920 0.950 . S
C1928 C1926 1.327 . S
C1929 C1917 1.349 . S
C1929 H1923 0.950 . S
C1929 C1930 1.327 . S
C1930 H1924 0.950 . S
C1930 C1929 1.327 . S
C1930 C1934 1.429 . S
C1931 C1914 1.574 . S
C1931 H1925 0.949 . S
C1931 C1935 1.368 . S
C1932 C1913 1.429 . S
C1932 C1926 1.429 . S
C1932 C1933 1.523 . S
C1933 C1914 1.368 . S
C1933 C1927 1.368 . S
C1933 C1932 1.523 . S
C1934 C1918 1.429 . S
C1934 C1930 1.429 . S
C1934 C1935 1.523 . S
C1935 C1919 1.368 . S
C1935 C1931 1.368 . S
C1935 C1934 1.523 . S
H1936 C1911 0.950 . S
H1937 C1913 0.950 . S
H1938 C1914 0.949 . S
H1939 C1916 0.950 . S
H1940 C1918 0.950 . S
C1941 C1942 1.349 . S
C1941 C1943 1.327 . S
C1941 H1966 0.950 . S
C1942 C1941 1.349 . S
C1942 C1958 1.349 . S
C1943 C1941 1.327 . S
C1943 C1962 1.429 . S
C1943 H1967 0.950 . S
C1944 C1961 1.574 . S
C1944 C1963 1.368 . S
C1944 H1968 0.949 . S
H1945 C1949 0.949 . S
C1946 C1947 1.349 . S
C1946 C1948 1.327 . S
C1946 H1969 0.950 . S
C1947 C1946 1.349 . S
C1947 C1959 1.349 . S
C1948 C1946 1.327 . S
C1948 C1964 1.429 . S
C1948 H1970 0.950 . S
C1949 H1945 0.949 . S
C1949 C1957 1.574 . S
C1949 C1965 1.368 . S
H1950 C1958 0.950 . S
H1951 C1956 0.950 . S
H1952 C1957 0.949 . S
H1953 C1959 0.950 . S
H1954 C1960 0.950 . S
H1955 C1961 0.949 . S
C1956 H1951 0.950 . S
C1956 C1958 1.327 . S
C1956 C1962 1.429 . S
C1957 C1949 1.574 . S
C1957 H1952 0.949 . S
C1957 C1963 1.368 . S
C1958 C1942 1.349 . S
C1958 H1950 0.950 . S
C1958 C1956 1.327 . S
C1959 C1947 1.349 . S
C1959 H1953 0.950 . S
C1959 C1960 1.327 . S
C1960 H1954 0.950 . S
C1960 C1959 1.327 . S
C1960 C1964 1.429 . S
C1961 C1944 1.574 . S
C1961 H1955 0.949 . S
C1961 C1965 1.368 . S
C1962 C1943 1.429 . S
C1962 C1956 1.429 . S
C1962 C1963 1.523 . S
C1963 C1944 1.368 . S
C1963 C1957 1.368 . S
C1963 C1962 1.523 . S
C1964 C1948 1.429 . S
C1964 C1960 1.429 . S
C1964 C1965 1.523 . S
C1965 C1949 1.368 . S
C1965 C1961 1.368 . S
C1965 C1964 1.523 . S
H1966 C1941 0.950 . S
H1967 C1943 0.950 . S
H1968 C1944 0.949 . S
H1969 C1946 0.950 . S
H1970 C1948 0.950 . S
C1971 C1972 1.349 . S
C1971 C1973 1.327 . S
C1971 H1996 0.950 . S
C1972 C1971 1.349 . S
C1972 C1988 1.349 . S
C1973 C1971 1.327 . S
C1973 C1992 1.429 . S
C1973 H1997 0.950 . S
C1974 C1991 1.574 . S
C1974 C1993 1.368 . S
C1974 H1998 0.949 . S
H1975 C1979 0.949 . S
C1976 C1977 1.349 . S
C1976 C1978 1.327 . S
C1976 H1999 0.950 . S
C1977 C1976 1.349 . S
C1977 C1989 1.349 . S
C1978 C1976 1.327 . S
C1978 C1994 1.429 . S
C1978 H2000 0.950 . S
C1979 H1975 0.949 . S
C1979 C1987 1.574 . S
C1979 C1995 1.368 . S
H1980 C1988 0.950 . S
H1981 C1986 0.950 . S
H1982 C1987 0.949 . S
H1983 C1989 0.950 . S
H1984 C1990 0.950 . S
H1985 C1991 0.949 . S
C1986 H1981 0.950 . S
C1986 C1988 1.327 . S
C1986 C1992 1.429 . S
C1987 C1979 1.574 . S
C1987 H1982 0.949 . S
C1987 C1993 1.368 . S
C1988 C1972 1.349 . S
C1988 H1980 0.950 . S
C1988 C1986 1.327 . S
C1989 C1977 1.349 . S
C1989 H1983 0.950 . S
C1989 C1990 1.327 . S
C1990 H1984 0.950 . S
C1990 C1989 1.327 . S
C1990 C1994 1.429 . S
C1991 C1974 1.574 . S
C1991 H1985 0.949 . S
C1991 C1995 1.368 . S
C1992 C1973 1.429 . S
C1992 C1986 1.429 . S
C1992 C1993 1.523 . S
C1993 C1974 1.368 . S
C1993 C1987 1.368 . S
C1993 C1992 1.523 . S
C1994 C1978 1.429 . S
C1994 C1990 1.429 . S
C1994 C1995 1.523 . S
C1995 C1979 1.368 . S
C1995 C1991 1.368 . S
C1995 C1994 1.523 . S
H1996 C1971 0.950 . S
H1997 C1973 0.950 . S
H1998 C1974 0.949 . S
H1999 C1976 0.950 . S
H2000 C1978 0.950 . S
C2001 C2002 1.349 . S
C2001 C2003 1.327 . S
C2001 H2026 0.950 . S
C2002 C2001 1.349 . S
C2002 C2018 1.349 . S
C2003 C2001 1.327 . S
C2003 C2022 1.429 . S
C2003 H2027 0.950 . S
C2004 C2021 1.574 . S
C2004 C2023 1.368 . S
C2004 H2028 0.949 . S
H2005 C2009 0.949 . S
C2006 C2007 1.349 . S
C2006 C2008 1.327 . S
C2006 H2029 0.950 . S
C2007 C2006 1.349 . S
C2007 C2019 1.349 . S
C2008 C2006 1.327 . S
C2008 C2024 1.429 . S
C2008 H2030 0.950 . S
C2009 H2005 0.949 . S
C2009 C2017 1.574 . S
C2009 C2025 1.368 . S
H2010 C2018 0.950 . S
H2011 C2016 0.950 . S
H2012 C2017 0.949 . S
H2013 C2019 0.950 . S
H2014 C2020 0.950 . S
H2015 C2021 0.949 . S
C2016 H2011 0.950 . S
C2016 C2018 1.327 . S
C2016 C2022 1.429 . S
C2017 C2009 1.574 . S
C2017 H2012 0.949 . S
C2017 C2023 1.368 . S
C2018 C2002 1.349 . S
C2018 H2010 0.950 . S
C2018 C2016 1.327 . S
C2019 C2007 1.349 . S
C2019 H2013 0.950 . S
C2019 C2020 1.327 . S
C2020 H2014 0.950 . S
C2020 C2019 1.327 . S
C2020 C2024 1.429 . S
C2021 C2004 1.574 . S
C2021 H2015 0.949 . S
C2021 C2025 1.368 . S
C2022 C2003 1.429 . S
C2022 C2016 1.429 . S
C2022 C2023 1.523 . S
C2023 C2004 1.368 . S
C2023 C2017 1.368 . S
C2023 C2022 1.523 . S
C2024 C2008 1.429 . S
C2024 C2020 1.429 . S
C2024 C2025 1.523 . S
C2025 C2009 1.368 . S
C2025 C2021 1.368 . S
C2025 C2024 1.523 . S
H2026 C2001 0.950 . S
H2027 C2003 0.950 . S
H2028 C2004 0.949 . S
H2029 C2006 0.950 . S
H2030 C2008 0.950 . S
C2031 C2032 1.349 . S
C2031 C2033 1.327 . S
C2031 H2056 0.950 . S
C2032 C2031 1.349 . S
C2032 C2048 1.349 . S
C2033 C2031 1.327 . S
C2033 C2052 1.429 . S
C2033 H2057 0.950 . S
C2034 C2051 1.574 . S
C2034 C2053 1.368 . S
C2034 H2058 0.949 . S
H2035 C2039 0.949 . S
C2036 C2037 1.349 . S
C2036 C2038 1.327 . S
C2036 H2059 0.950 . S
C2037 C2036 1.349 . S
C2037 C2049 1.349 . S
C2038 C2036 1.327 . S
C2038 C2054 1.429 . S
C2038 H2060 0.950 . S
C2039 H2035 0.949 . S
C2039 C2047 1.574 . S
C2039 C2055 1.368 . S
H2040 C2048 0.950 . S
H2041 C2046 0.950 . S
H2042 C2047 0.949 . S
H2043 C2049 0.950 . S
H2044 C2050 0.950 . S
H2045 C2051 0.949 . S
C2046 H2041 0.950 . S
C2046 C2048 1.327 . S
C2046 C2052 1.429 . S
C2047 C2039 1.574 . S
C2047 H2042 0.949 . S
C2047 C2053 1.368 . S
C2048 C2032 1.349 . S
C2048 H2040 0.950 . S
C2048 C2046 1.327 . S
C2049 C2037 1.349 . S
C2049 H2043 0.950 . S
C2049 C2050 1.327 . S
C2050 H2044 0.950 . S
C2050 C2049 1.327 . S
C2050 C2054 1.429 . S
C2051 C2034 1.574 . S
C2051 H2045 0.949 . S
C2051 C2055 1.368 . S
C2052 C2033 1.429 . S
C2052 C2046 1.429 . S
C2052 C2053 1.523 . S
C2053 C2034 1.368 . S
C2053 C2047 1.368 . S
C2053 C2052 1.523 . S
C2054 C2038 1.429 . S
C2054 C2050 1.429 . S
C2054 C2055 1.523 . S
C2055 C2039 1.368 . S
C2055 C2051 1.368 . S
C2055 C2054 1.523 . S
H2056 C2031 0.950 . S
H2057 C2033 0.950 . S
H2058 C2034 0.949 . S
H2059 C2036 0.950 . S
H2060 C2038 0.950 . S
C2061 C2062 1.349 . S
C2061 C2063 1.327 . S
C2061 H2086 0.950 . S
C2062 C2061 1.349 . S
C2062 C2078 1.349 . S
C2063 C2061 1.327 . S
C2063 C2082 1.429 . S
C2063 H2087 0.950 . S
C2064 C2081 1.574 . S
C2064 C2083 1.368 . S
C2064 H2088 0.949 . S
H2065 C2069 0.949 . S
C2066 C2067 1.349 . S
C2066 C2068 1.327 . S
C2066 H2089 0.950 . S
C2067 C2066 1.349 . S
C2067 C2079 1.349 . S
C2068 C2066 1.327 . S
C2068 C2084 1.429 . S
C2068 H2090 0.950 . S
C2069 H2065 0.949 . S
C2069 C2077 1.574 . S
C2069 C2085 1.368 . S
H2070 C2078 0.950 . S
H2071 C2076 0.950 . S
H2072 C2077 0.949 . S
H2073 C2079 0.950 . S
H2074 C2080 0.950 . S
H2075 C2081 0.949 . S
C2076 H2071 0.950 . S
C2076 C2078 1.327 . S
C2076 C2082 1.429 . S
C2077 C2069 1.574 . S
C2077 H2072 0.949 . S
C2077 C2083 1.368 . S
C2078 C2062 1.349 . S
C2078 H2070 0.950 . S
C2078 C2076 1.327 . S
C2079 C2067 1.349 . S
C2079 H2073 0.950 . S
C2079 C2080 1.327 . S
C2080 H2074 0.950 . S
C2080 C2079 1.327 . S
C2080 C2084 1.429 . S
C2081 C2064 1.574 . S
C2081 H2075 0.949 . S
C2081 C2085 1.368 . S
C2082 C2063 1.429 . S
C2082 C2076 1.429 . S
C2082 C2083 1.523 . S
C2083 C2064 1.368 . S
C2083 C2077 1.368 . S
C2083 C2082 1.523 . S
C2084 C2068 1.429 . S
C2084 C2080 1.429 . S
C2084 C2085 1.523 . S
C2085 C2069 1.368 . S
C2085 C2081 1.368 . S
C2085 C2084 1.523 . S
H2086 C2061 0.950 . S
H2087 C2063 0.950 . S
H2088 C2064 0.949 . S
H2089 C2066 0.950 . S
H2090 C2068 0.950 . S
C2091 C2092 1.349 . S
C2091 C2093 1.327 . S
C2091 H2116 0.950 . S
C2092 C2091 1.349 . S
C2092 C2108 1.349 . S
C2093 C2091 1.327 . S
C2093 C2112 1.429 . S
C2093 H2117 0.950 . S
C2094 C2111 1.574 . S
C2094 C2113 1.368 . S
C2094 H2118 0.949 . S
H2095 C2099 0.949 . S
C2096 C2097 1.349 . S
C2096 C2098 1.327 . S
C2096 H2119 0.950 . S
C2097 C2096 1.349 . S
C2097 C2109 1.349 . S
C2098 C2096 1.327 . S
C2098 C2114 1.429 . S
C2098 H2120 0.950 . S
C2099 H2095 0.949 . S
C2099 C2107 1.574 . S
C2099 C2115 1.368 . S
H2100 C2108 0.950 . S
H2101 C2106 0.950 . S
H2102 C2107 0.949 . S
H2103 C2109 0.950 . S
H2104 C2110 0.950 . S
H2105 C2111 0.949 . S
C2106 H2101 0.950 . S
C2106 C2108 1.327 . S
C2106 C2112 1.429 . S
C2107 C2099 1.574 . S
C2107 H2102 0.949 . S
C2107 C2113 1.368 . S
C2108 C2092 1.349 . S
C2108 H2100 0.950 . S
C2108 C2106 1.327 . S
C2109 C2097 1.349 . S
C2109 H2103 0.950 . S
C2109 C2110 1.327 . S
C2110 H2104 0.950 . S
C2110 C2109 1.327 . S
C2110 C2114 1.429 . S
C2111 C2094 1.574 . S
C2111 H2105 0.949 . S
C2111 C2115 1.368 . S
C2112 C2093 1.429 . S
C2112 C2106 1.429 . S
C2112 C2113 1.523 . S
C2113 C2094 1.368 . S
C2113 C2107 1.368 . S
C2113 C2112 1.523 . S
C2114 C2098 1.429 . S
C2114 C2110 1.429 . S
C2114 C2115 1.523 . S
C2115 C2099 1.368 . S
C2115 C2111 1.368 . S
C2115 C2114 1.523 . S
H2116 C2091 0.950 . S
H2117 C2093 0.950 . S
H2118 C2094 0.949 . S
H2119 C2096 0.950 . S
H2120 C2098 0.950 . S
C2121 C2122 1.349 . S
C2121 C2123 1.327 . S
C2121 H2146 0.950 . S
C2122 C2121 1.349 . S
C2122 C2138 1.349 . S
C2123 C2121 1.327 . S
C2123 C2142 1.429 . S
C2123 H2147 0.950 . S
C2124 C2141 1.574 . S
C2124 C2143 1.368 . S
C2124 H2148 0.949 . S
H2125 C2129 0.949 . S
C2126 C2127 1.349 . S
C2126 C2128 1.327 . S
C2126 H2149 0.950 . S
C2127 C2126 1.349 . S
C2127 C2139 1.349 . S
C2128 C2126 1.327 . S
C2128 C2144 1.429 . S
C2128 H2150 0.950 . S
C2129 H2125 0.949 . S
C2129 C2137 1.574 . S
C2129 C2145 1.368 . S
H2130 C2138 0.950 . S
H2131 C2136 0.950 . S
H2132 C2137 0.949 . S
H2133 C2139 0.950 . S
H2134 C2140 0.950 . S
H2135 C2141 0.949 . S
C2136 H2131 0.950 . S
C2136 C2138 1.327 . S
C2136 C2142 1.429 . S
C2137 C2129 1.574 . S
C2137 H2132 0.949 . S
C2137 C2143 1.368 . S
C2138 C2122 1.349 . S
C2138 H2130 0.950 . S
C2138 C2136 1.327 . S
C2139 C2127 1.349 . S
C2139 H2133 0.950 . S
C2139 C2140 1.327 . S
C2140 H2134 0.950 . S
C2140 C2139 1.327 . S
C2140 C2144 1.429 . S
C2141 C2124 1.574 . S
C2141 H2135 0.949 . S
C2141 C2145 1.368 . S
C2142 C2123 1.429 . S
C2142 C2136 1.429 . S
C2142 C2143 1.523 . S
C2143 C2124 1.368 . S
C2143 C2137 1.368 . S
C2143 C2142 1.523 . S
C2144 C2128 1.429 . S
C2144 C2140 1.429 . S
C2144 C2145 1.523 . S
C2145 C2129 1.368 . S
C2145 C2141 1.368 . S
C2145 C2144 1.523 . S
H2146 C2121 0.950 . S
H2147 C2123 0.950 . S
H2148 C2124 0.949 . S
H2149 C2126 0.950 . S
H2150 C2128 0.950 . S
C532 C253 1.450 . S
C537 C359 1.448 . S
C562 C272 1.423 . S
C567 C380 1.410 . S
C592 C234 1.374 1_556 S
C597 C402 1.249 1_554 S
C622 C215 1.362 1_554 S
C627 C381 1.236 . S
C657 C401 1.416 1_554 S
C652 C177 1.429 . S
C682 C196 1.388 . S
C687 C360 1.262 . S
C717 C355 1.473 . S
C712 C220 1.422 . S
C747 C376 1.481 . S
C742 C182 1.428 . S
C772 C201 1.495 . S
C777 C399 1.345 . S
C802 C258 1.477 . S
C807 C378 1.328 . S
C832 C277 1.400 . S
C837 C397 1.442 1_556 S
C867 C357 1.327 . S
C862 C239 1.470 . S
C897 C422 1.444 . S
C892 C25 1.450 . S
C922 C44 1.422 . S
C927 C443 1.410 . S
C952 C6 1.382 . S
C957 C465 1.259 . S
C982 C329 1.363 . S
C987 C444 1.236 . S
C1012 C291 1.428 . S
C1017 C464 1.417 . S
C1042 C310 1.389 . S
C1047 C423 1.261 . S
C1072 C334 1.421 . S
C1077 C418 1.464 . S
C1102 C296 1.429 . S
C1107 C439 1.476 . S
C1137 C462 1.345 . S
C1132 C315 1.498 . S
C1162 C30 1.477 . S
C1167 C441 1.329 . S
C1197 C460 1.440 . S
C1192 C49 1.400 . S
C1222 C11 1.470 . S
C1227 C420 1.326 . S
C1257 C485 1.443 . S
C1252 C139 1.450 . S
C1282 C158 1.423 . S
C1287 C506 1.411 . S
C1317 C528 1.259 . S
C1312 C120 1.382 . S
C1347 C507 1.235 . S
C1342 C101 1.361 . S
C1377 C527 1.416 . S
C1372 C63 1.428 . S
C1402 C82 1.390 . S
C1407 C486 1.261 . S
C1432 C106 1.421 . S
C1437 C481 1.464 . S
C1462 C68 1.428 . S
C1467 C502 1.475 . S
C1497 C525 1.344 . S
C1492 C87 1.497 . S
C1522 C144 1.478 . S
C1527 C504 1.330 . S
C1552 C163 1.400 . S
C1557 C523 1.440 . S
C1582 C125 1.471 . S
C1587 C483 1.327 . S
C1612 C287 1.537 . S
C1617 C358 1.542 . S
C1647 C379 1.601 . S
C1642 C306 1.595 . S
C1672 C325 1.605 . S
C1677 C398 1.535 . S
C1702 C116 1.699 . S
C1707 C377 1.631 . S
C1732 C135 1.631 . S
C1737 C400 1.639 . S
C1767 C356 1.573 . S
C1762 C154 1.637 . S
C1792 C59 1.535 . S
C1797 C421 1.540 . S
C1822 C78 1.595 . S
C1827 C442 1.601 . S
C1852 C97 1.608 . S
C1857 C461 1.542 . S
C1882 C230 1.698 . S
C1887 C440 1.629 . S
C1917 C463 1.629 . S
C1912 C249 1.626 . S
C1942 C268 1.634 . S
C1947 C419 1.570 . S
C1972 C173 1.537 . S
C1977 C484 1.543 . S
C2002 C192 1.586 . S
C2007 C505 1.587 . S
C2037 C524 1.542 . S
C2032 C211 1.608 . S
C2062 C2 1.698 . S
C2067 C503 1.629 . S
C2092 C21 1.625 . S
C2097 C526 1.629 . S
C2122 C40 1.637 . S
C2127 C482 1.573 . S
