# Generated by pormake.
# Topology tsx, (6,3)-cn, num edge types: 1
# Building blocks:
#     Node 0, Type 0, BuildingBlock: FUNLAD_clean_sbu_0, # of connection points: 6
#     Node 1, Type 0, BuildingBlock: FUNLAD_clean_sbu_0, # of connection points: 6
#     Node 2, Type 1, BuildingBlock: INOVEN_clean_linker_0, # of connection points: 3
#     Node 3, Type 1, BuildingBlock: INOVEN_clean_linker_0, # of connection points: 3
#     Node 4, Type 1, BuildingBlock: INOVEN_clean_linker_0, # of connection points: 3
#     Node 5, Type 1, BuildingBlock: INOVEN_clean_linker_0, # of connection points: 3
#     Edge 6, Type (0, 1), BuildingBlock: KIFKEQ_clean_linker_1, # of connection points: 2
#     Edge 7, Type (0, 1), BuildingBlock: KIFKEQ_clean_linker_1, # of connection points: 2
#     Edge 8, Type (0, 1), BuildingBlock: KIFKEQ_clean_linker_1, # of connection points: 2
#     Edge 9, Type (0, 1), BuildingBlock: KIFKEQ_clean_linker_1, # of connection points: 2
#     Edge 10, Type (0, 1), BuildingBlock: KIFKEQ_clean_linker_1, # of connection points: 2
#     Edge 11, Type (0, 1), BuildingBlock: KIFKEQ_clean_linker_1, # of connection points: 2
#     Edge 12, Type (0, 1), BuildingBlock: KIFKEQ_clean_linker_1, # of connection points: 2
#     Edge 13, Type (0, 1), BuildingBlock: KIFKEQ_clean_linker_1, # of connection points: 2
#     Edge 14, Type (0, 1), BuildingBlock: KIFKEQ_clean_linker_1, # of connection points: 2
#     Edge 15, Type (0, 1), BuildingBlock: KIFKEQ_clean_linker_1, # of connection points: 2
#     Edge 16, Type (0, 1), BuildingBlock: KIFKEQ_clean_linker_1, # of connection points: 2
#     Edge 17, Type (0, 1), BuildingBlock: KIFKEQ_clean_linker_1, # of connection points: 2
# Relax obj value: 0.103
# Max RMSD: 0.111
# Mean RMSD: 0.105
data_MOF--net-tsx--node1-FUNLAD_clean_sbu_0--node2-INOVEN_clean_linker_0--edge1-KIFKEQ_clean_linker_1
_symmetry_space_group_name_H-M    P1
_symmetry_Int_Tables_number       1
_symmetry_cell_setting            triclinic
loop_
_symmetry_equiv_pos_as_xyz
'x, y, z'
_cell_length_a     19.751013
_cell_length_b     21.727615
_cell_length_c     40.059073
_cell_angle_alpha  91.009094
_cell_angle_beta   101.30473
_cell_angle_gamma 90.042996
loop_
_atom_site_label
_atom_site_type_symbol
_atom_site_fract_x
_atom_site_fract_y
_atom_site_fract_z
_atom_type_partial_charge
C0 C 0.90973 0.93258 0.0046 0.0
N1 N 0.04124 0.03643 0.07922 0.0
C2 C 0.99053 0.03558 0.09779 0.0
C3 C 0.00708 0.03954 0.13323 0.0
C4 C 0.07653 0.04416 0.14978 0.0
C5 C 0.12788 0.04478 0.13001 0.0
C6 C 0.10897 0.04103 0.09455 0.0
Zn7 Zn 0.01413 0.0318 0.02743 0.0
C8 C 0.1023 0.94807 -0.0041 0.0
N9 N 0.95445 0.02396 0.91929 0.0
C10 C 0.88837 0.01699 0.9018 0.0
C11 C 0.0082 0.02782 0.90277 0.0
C12 C 0.99696 0.02367 0.86746 0.0
C13 C 0.92967 0.01549 0.84866 0.0
C14 C 0.87467 0.0129 0.86616 0.0
Zn15 Zn 0.97922 0.02807 0.97122 0.0
O16 O 0.94728 0.95806 0.03053 0.0
C17 C 0.89114 0.11206 0.00176 0.0
O18 O 0.91217 0.95215 0.97508 0.0
H19 H 0.06028 0.0338 0.91704 0.0
H20 H 0.93706 0.03166 0.08509 0.0
H21 H 0.84642 0.01411 0.91548 0.0
O22 O 0.9325 0.09612 0.02869 0.0
O23 O 0.89816 0.08941 0.97319 0.0
H24 H 0.14841 0.04192 0.07927 0.0
O25 O 0.04648 0.10509 0.96848 0.0
O26 O 0.07972 0.10554 0.024 0.0
O27 O 0.06045 0.96632 0.9698 0.0
O28 O 0.09588 0.96797 0.02515 0.0
C29 C 0.08263 0.12865 -0.00454 0.0
H30 H 0.96596 0.03787 0.14754 0.0
H31 H 0.18199 0.04867 0.14179 0.0
H32 H 0.0407 0.02714 0.85495 0.0
H33 H 0.82203 0.00654 0.85252 0.0
C34 C 0.43093 0.38974 0.50693 0.0
N35 N 0.56736 0.48812 0.58265 0.0
C36 C 0.51252 0.49645 0.59812 0.0
C37 C 0.52276 0.50663 0.63313 0.0
C38 C 0.59006 0.50773 0.65256 0.0
C39 C 0.6458 0.49728 0.63622 0.0
C40 C 0.63321 0.4879 0.60091 0.0
Zn41 Zn 0.54727 0.48003 0.53092 0.0
C42 C 0.62802 0.38327 0.50461 0.0
N43 N 0.49679 0.46587 0.42289 0.0
C44 C 0.43123 0.46967 0.40457 0.0
C45 C 0.55192 0.46166 0.40728 0.0
C46 C 0.54246 0.462 0.37192 0.0
C47 C 0.47564 0.46726 0.35235 0.0
C48 C 0.41943 0.47072 0.36902 0.0
Zn49 Zn 0.51647 0.47178 0.47468 0.0
O50 O 0.4687 0.41468 0.53303 0.0
C51 C 0.43573 0.56876 0.50055 0.0
O52 O 0.43995 0.40413 0.47746 0.0
H53 H 0.60366 0.45945 0.42231 0.0
H54 H 0.46059 0.49603 0.5832 0.0
H55 H 0.38819 0.47302 0.41754 0.0
O56 O 0.4741 0.5532 0.52839 0.0
O57 O 0.44177 0.54115 0.47312 0.0
H58 H 0.67602 0.48136 0.58802 0.0
O59 O 0.59304 0.54133 0.47267 0.0
O60 O 0.62469 0.54464 0.5283 0.0
O61 O 0.59113 0.40135 0.47693 0.0
O62 O 0.62082 0.40821 0.53263 0.0
C63 C 0.63166 0.56346 0.49936 0.0
H64 H 0.47839 0.51343 0.64494 0.0
H65 H 0.69843 0.49786 0.65044 0.0
H66 H 0.58724 0.46015 0.36007 0.0
H67 H 0.36706 0.4744 0.35474 0.0
H68 H 0.08091 0.95693 0.48932 0.0
H69 H 0.19656 0.93082 0.40981 0.0
H70 H 0.04278 0.07299 0.40194 0.0
N71 N 0.00841 0.05282 0.46204 0.0
N72 N 0.00016 0.10918 0.4576 0.0
C73 C 0.09259 0.97026 0.46511 0.0
C74 C 0.14362 0.93898 0.45174 0.0
C75 C 0.05824 0.02019 0.44777 0.0
C76 C 0.07234 0.03655 0.41603 0.0
C77 C 0.12088 0.0035 0.40158 0.0
C78 C 0.15786 0.95602 0.42023 0.0
H79 H 0.96098 0.97165 0.5068 0.0
H80 H 0.85351 0.92784 0.58689 0.0
H81 H 0.99364 0.08151 0.59909 0.0
N82 N 0.0303 0.06851 0.53823 0.0
N83 N 0.04886 0.11975 0.55144 0.0
C84 C 0.94929 0.98202 0.5316 0.0
C85 C 0.90136 0.9457 0.54414 0.0
C86 C 0.98162 0.03205 0.551 0.0
C87 C 0.96752 0.04394 0.5836 0.0
C88 C 0.92216 0.00613 0.597 0.0
C89 C 0.88783 0.9581 0.57668 0.0
H90 H 0.55102 0.51407 0.99349 0.0
H91 H 0.6503 0.45467 0.91238 0.0
H92 H 0.52117 0.61486 0.9001 0.0
N93 N 0.48657 0.61113 0.96176 0.0
N94 N 0.4662 0.65932 0.94654 0.0
C95 C 0.56166 0.52092 0.96835 0.0
C96 C 0.60565 0.48019 0.95546 0.0
C97 C 0.53154 0.57023 0.94867 0.0
C98 C 0.5448 0.5774 0.91567 0.0
C99 C 0.58711 0.53575 0.90223 0.0
C100 C 0.61829 0.48781 0.92257 0.0
H101 H 0.42573 0.53044 0.0019 0.0
H102 H 0.35215 0.45397 0.08645 0.0
H103 H 0.52416 0.57928 0.10474 0.0
N104 N 0.52637 0.59859 0.03888 0.0
N105 N 0.58491 0.61057 0.05595 0.0
C106 C 0.42907 0.52685 0.0291 0.0
C107 C 0.38285 0.48867 0.04161 0.0
C108 C 0.48009 0.55984 0.0518 0.0
C109 C 0.48462 0.55422 0.08713 0.0
C110 C 0.43868 0.51596 0.09978 0.0
C111 C 0.38781 0.48374 0.07684 0.0
H112 H 0.1268 0.17915 0.94066 0.0
H113 H 0.13158 0.20595 0.04831 0.0
H114 H 0.19381 0.27502 0.9407 0.0
H115 H 0.19625 0.30074 0.04799 0.0
H116 H 0.24434 0.49212 0.03615 0.0
H117 H 0.1644 0.40772 0.0157 0.0
H118 H 0.32556 0.31149 0.97771 0.0
H119 H 0.40587 0.39655 -0.00181 0.0
C120 C 0.1419 0.20544 0.96418 0.0
C121 C 0.12406 0.18502 -0.0055 0.0
C122 C 0.18 0.26004 0.96415 0.0
C123 C 0.19897 0.29542 -0.00578 0.0
C124 C 0.18116 0.27476 0.02434 0.0
C125 C 0.1446 0.22014 0.02455 0.0
C126 C 0.26169 0.45421 0.02206 0.0
C127 C 0.33106 0.45025 0.01894 0.0
C128 C 0.21617 0.40596 0.01047 0.0
C129 C 0.23936 0.35299 -0.00436 0.0
C130 C 0.30656 0.35208 0.98895 0.0
C131 C 0.35235 0.40064 0.00058 0.0
H132 H 0.12758 0.90124 0.93628 0.0
H133 H 0.2024 0.89644 0.04512 0.0
H134 H 0.21854 0.83178 0.92751 0.0
H135 H 0.2951 0.82662 0.03608 0.0
H136 H 0.39917 0.64748 -0.00019 0.0
H137 H 0.31313 0.71892 0.01452 0.0
H138 H 0.34383 0.83735 0.93317 0.0
H139 H 0.42869 0.7653 0.91842 0.0
C140 C 0.16358 0.88548 0.95843 0.0
C141 C 0.15783 0.90472 0.99144 0.0
C142 C 0.21611 0.84585 0.95333 0.0
C143 C 0.26454 0.82429 0.98106 0.0
C144 C 0.25838 0.84244 0.01422 0.0
C145 C 0.20556 0.88254 0.01938 0.0
C146 C 0.38786 0.68904 0.98539 0.0
C147 C 0.41993 0.70113 0.95777 0.0
C148 C 0.33887 0.73006 -0.00613 0.0
C149 C 0.32115 0.78343 0.97476 0.0
C150 C 0.35537 0.7961 0.94799 0.0
C151 C 0.40404 0.75525 0.93961 0.0
H152 H 0.8166 0.86879 0.95606 0.0
H153 H 0.89735 0.88088 0.06439 0.0
H154 H 0.73878 0.78576 0.96553 0.0
H155 H 0.81955 0.79962 0.07373 0.0
H156 H 0.71899 0.61698 0.07997 0.0
H157 H 0.80108 0.69037 0.06444 0.0
H158 H 0.63619 0.77132 0.99155 0.0
H159 H 0.5549 0.69738 0.00717 0.0
C160 C 0.8179 0.85371 0.9818 0.0
C161 C 0.86328 0.88139 0.00944 0.0
C162 C 0.77316 0.80641 0.98724 0.0
C163 C 0.77331 0.78581 0.02036 0.0
C164 C 0.81898 0.81346 0.04784 0.0
C165 C 0.86334 0.86051 0.04246 0.0
C166 C 0.70095 0.6501 0.06035 0.0
C167 C 0.63135 0.65115 0.04446 0.0
C168 C 0.74755 0.69223 0.05153 0.0
C169 C 0.7251 0.73692 0.02685 0.0
C170 C 0.65537 0.73694 0.01027 0.0
C171 C 0.60879 0.69453 0.0191 0.0
H172 H 0.77725 0.13566 0.95345 0.0
H173 H 0.88657 0.19679 0.05267 0.0
H174 H 0.69922 0.22271 0.95159 0.0
H175 H 0.8082 0.28459 0.05066 0.0
H176 H 0.54735 0.36851 0.95941 0.0
H177 H 0.60836 0.27341 0.97871 0.0
H178 H 0.79631 0.37782 0.01245 0.0
H179 H 0.73496 0.47247 0.99305 0.0
C180 C 0.78385 0.16716 0.97513 0.0
C181 C 0.83837 0.15973 0.00306 0.0
C182 C 0.73877 0.21677 0.9742 0.0
C183 C 0.74766 0.26046 0.001 0.0
C184 C 0.80035 0.25165 0.02963 0.0
C185 C 0.84497 0.20136 0.0308 0.0
C186 C 0.60106 0.37102 0.9721 0.0
C187 C 0.63677 0.42722 0.97504 0.0
C188 C 0.63603 0.31681 0.98289 0.0
C189 C 0.70716 0.31821 -0.00317 0.0
C190 C 0.74139 0.37538 0.00214 0.0
C191 C 0.7065 0.42947 0.99106 0.0
H192 H 0.62442 0.64915 0.44962 0.0
H193 H 0.74878 0.59217 0.54499 0.0
H194 H 0.69629 0.74176 0.45132 0.0
H195 H 0.8211 0.68362 0.54623 0.0
H196 H 0.76596 0.93063 0.51589 0.0
H197 H 0.70714 0.83352 0.49632 0.0
H198 H 0.90362 0.74044 0.51272 0.0
H199 H 0.96244 0.83821 0.53162 0.0
C200 C 0.66811 0.65562 0.47044 0.0
C201 C 0.68085 0.6138 0.49731 0.0
C202 C 0.70899 0.70857 0.47143 0.0
C203 C 0.76421 0.71963 0.49885 0.0
C204 C 0.77934 0.67586 0.52461 0.0
C205 C 0.73768 0.62377 0.52401 0.0
C206 C 0.79649 0.88974 0.51406 0.0
C207 C 0.86842 0.89146 0.525 0.0
C208 C 0.76302 0.83432 0.50286 0.0
C209 C 0.80093 0.77956 0.50316 0.0
C210 C 0.87335 0.78208 0.51229 0.0
C211 C 0.90693 0.83782 0.52289 0.0
H212 H 0.62423 0.29135 0.45748 0.0
H213 H 0.75081 0.36838 0.54892 0.0
H214 H 0.71593 0.21859 0.45197 0.0
H215 H 0.84362 0.29643 0.5427 0.0
H216 H 0.0038 0.22873 0.47122 0.0
H217 H 0.91301 0.29078 0.48926 0.0
H218 H 0.78914 0.12708 0.48937 0.0
H219 H 0.8808 0.06502 0.47221 0.0
C220 C 0.67141 0.29221 0.47658 0.0
C221 C 0.68061 0.33549 0.50357 0.0
C222 C 0.72359 0.25044 0.47351 0.0
C223 C 0.7865 0.25211 0.49694 0.0
C224 C 0.79532 0.29436 0.52441 0.0
C225 C 0.74233 0.33524 0.52798 0.0
C226 C 0.95746 0.20627 0.47565 0.0
C227 C 0.94897 0.14266 0.47042 0.0
C228 C 0.906 0.24141 0.48615 0.0
C229 C 0.84443 0.21347 0.49071 0.0
C230 C 0.83636 0.14946 0.48608 0.0
C231 C 0.88862 0.1141 0.47634 0.0
H232 H 0.39221 0.35979 0.56615 0.0
H233 H 0.34358 0.32218 0.45772 0.0
H234 H 0.2978 0.29335 0.5739 0.0
H235 H 0.24815 0.25524 0.4657 0.0
H236 H 0.07772 0.23413 0.57156 0.0
H237 H 0.16951 0.29948 0.55834 0.0
H238 H 0.22688 0.15411 0.49447 0.0
H239 H 0.13499 0.08879 0.50808 0.0
C240 C 0.36155 0.33717 0.54392 0.0
C241 C 0.37534 0.34656 0.51127 0.0
C242 C 0.3071 0.29936 0.54838 0.0
C243 C 0.26513 0.26966 0.52036 0.0
C244 C 0.27979 0.27754 0.48775 0.0
C245 C 0.33422 0.31596 0.4832 0.0
C246 C 0.10976 0.21666 0.55448 0.0
C247 C 0.09935 0.15703 0.54079 0.0
C248 C 0.16231 0.2537 0.54701 0.0
C249 C 0.20574 0.23166 0.52561 0.0
C250 C 0.1939 0.17241 0.51087 0.0
C251 C 0.14133 0.1351 0.51859 0.0
H252 H 0.43723 0.66169 0.54762 0.0
H253 H 0.32253 0.59115 0.45151 0.0
H254 H 0.36085 0.7513 0.54324 0.0
H255 H 0.24581 0.67988 0.44757 0.0
H256 H 0.27991 0.93247 0.47946 0.0
H257 H 0.34578 0.8396 0.49812 0.0
H258 H 0.15693 0.73325 0.47958 0.0
H259 H 0.09097 0.82678 0.46157 0.0
C260 C 0.39508 0.66482 0.52589 0.0
C261 C 0.3861 0.61976 0.49975 0.0
C262 C 0.35156 0.71601 0.5234 0.0
C263 C 0.29744 0.72222 0.49515 0.0
C264 C 0.28668 0.67581 0.46981 0.0
C265 C 0.33092 0.62534 0.47194 0.0
C266 C 0.25255 0.8895 0.48045 0.0
C267 C 0.18073 0.88632 0.46931 0.0
C268 C 0.29003 0.83653 0.49113 0.0
C269 C 0.25633 0.77939 0.49013 0.0
C270 C 0.18398 0.77683 0.4805 0.0
C271 C 0.14634 0.83012 0.47042 0.0
H272 H 0.01486 0.11151 0.19364 0.0
H273 H 0.17942 0.98173 0.19106 0.0
H274 H 0.03685 0.1068 0.25562 0.0
H275 H 0.20261 0.97825 0.25315 0.0
H276 H 0.13543 0.91779 0.35291 0.0
H277 H 0.13636 0.93408 0.29325 0.0
H278 H 0.12125 0.13033 0.309 0.0
H279 H 0.12154 0.11419 0.3693 0.0
C280 C 0.0562 0.08248 0.20637 0.0
C281 C 0.0949 0.04646 0.18749 0.0
C282 C 0.06934 0.08035 0.24187 0.0
C283 C 0.12126 0.04194 0.25923 0.0
C284 C 0.16182 0.00783 0.24042 0.0
C285 C 0.14889 0.01018 0.20491 0.0
C286 C 0.1342 0.96462 0.344 0.0
C287 C 0.12838 0.0147 0.36598 0.0
C288 C 0.13463 0.97391 0.3097 0.0
C289 C 0.1288 0.03347 0.29642 0.0
C290 C 0.12507 0.08384 0.31849 0.0
C291 C 0.12507 0.07456 0.35296 0.0
H292 H 0.0033 0.9461 0.8115 0.0
H293 H 0.83078 0.07112 0.80095 0.0
H294 H 0.99564 0.94538 0.75015 0.0
H295 H 0.82289 0.07014 0.73902 0.0
H296 H 0.80572 0.99982 0.62495 0.0
H297 H 0.80051 1.00004 0.68566 0.0
H298 H 0.02142 0.02664 0.71133 0.0
H299 H 0.02696 0.02492 0.6513 0.0
C300 C 0.96356 0.97332 0.796 0.0
C301 C 0.91842 0.00953 0.81105 0.0
C302 C 0.95922 0.97294 0.76089 0.0
C303 C 0.90954 0.00864 0.73993 0.0
C304 C 0.86174 0.04225 0.75465 0.0
C305 C 0.86618 0.04273 0.79 0.0
C306 C 0.85299 0.00595 0.64365 0.0
C307 C 0.91674 0.01238 0.63335 0.0
C308 C 0.84993 0.00643 0.6783 0.0
C309 C 0.91066 0.01262 0.70315 0.0
C310 C 0.9739 0.02083 0.69275 0.0
C311 C 0.97693 0.02068 0.65831 0.0
H312 H 0.53363 0.59929 0.68507 0.0
H313 H 0.67094 0.44378 0.70352 0.0
H314 H 0.54068 0.61339 0.74612 0.0
H315 H 0.677 0.45689 0.7648 0.0
H316 H 0.70446 0.52164 0.87582 0.0
H317 H 0.7136 0.52154 0.81577 0.0
H318 H 0.49457 0.5563 0.78758 0.0
H319 H 0.48567 0.55668 0.84714 0.0
C320 C 0.56552 0.56826 0.70229 0.0
C321 C 0.601 0.51995 0.68966 0.0
C322 C 0.56947 0.57621 0.73722 0.0
C323 C 0.60854 0.53569 0.76029 0.0
C324 C 0.64683 0.48915 0.74772 0.0
C325 C 0.64326 0.48149 0.71267 0.0
C326 C 0.65846 0.5295 0.85671 0.0
C327 C 0.59441 0.5395 0.86619 0.0
C328 C 0.66366 0.52938 0.82238 0.0
C329 C 0.6049 0.5392 0.79692 0.0
C330 C 0.54116 0.54994 0.80655 0.0
C331 C 0.53601 0.55015 0.84074 0.0
H332 H 0.53547 0.39685 0.30919 0.0
H333 H 0.39403 0.54783 0.31106 0.0
H334 H 0.52626 0.40897 0.24804 0.0
H335 H 0.38368 0.55916 0.24965 0.0
H336 H 0.45393 0.60586 0.14934 0.0
H337 H 0.46027 0.59279 0.21043 0.0
H338 H 0.44009 0.39592 0.19452 0.0
H339 H 0.43527 0.40889 0.13375 0.0
C340 C 0.50212 0.43239 0.29645 0.0
C341 C 0.46558 0.47148 0.31486 0.0
C342 C 0.49648 0.43905 0.26144 0.0
C343 C 0.45446 0.48517 0.24414 0.0
C344 C 0.41703 0.52367 0.26243 0.0
C345 C 0.42232 0.51672 0.29745 0.0
C346 C 0.45142 0.55985 0.15902 0.0
C347 C 0.44405 0.50841 0.13687 0.0
C348 C 0.45428 0.5524 0.19385 0.0
C349 C 0.45041 0.49334 0.20717 0.0
C350 C 0.44362 0.44194 0.18501 0.0
C351 C 0.44034 0.4494 0.15022 0.0
loop_
_geom_bond_atom_site_label_1
_geom_bond_atom_site_label_2
_geom_bond_distance
_geom_bond_site_symmetry_2
_ccdc_geom_bond_type
C0 O16 1.251 . S
C0 O18 1.254 1_554 S
N1 C2 1.333 1_445 S
N1 C6 1.307 . S
N1 Zn7 2.020 . S
C2 N1 1.333 1_665 S
C2 C3 1.379 . S
C2 H20 0.952 . S
C3 C2 1.379 . S
C3 C4 1.390 1_665 S
C3 H30 0.949 . S
C4 C3 1.390 1_445 S
C4 C5 1.357 . S
C5 C4 1.357 . S
C5 C6 1.370 . S
C5 H31 0.950 . S
C6 N1 1.307 . S
C6 C5 1.370 . S
C6 H24 0.948 . S
Zn7 N1 2.020 . S
Zn7 O16 2.039 1_445 S
Zn7 O22 2.034 1_455 S
Zn7 O26 2.025 . S
Zn7 O28 2.024 1_545 S
C8 O27 1.246 1_554 S
C8 O28 1.249 . S
N9 C10 1.318 1_545 S
N9 C11 1.320 1_655 S
N9 Zn15 2.022 1_655 S
C10 N9 1.318 1_565 S
C10 C14 1.370 . S
C10 H21 0.948 . S
C11 N9 1.320 1_455 S
C11 C12 1.379 . S
C11 H19 0.952 . S
C12 C11 1.379 . S
C12 C13 1.390 1_455 S
C12 H32 0.949 . S
C13 C12 1.390 1_655 S
C13 C14 1.357 1_545 S
C14 C10 1.370 . S
C14 C13 1.357 1_565 S
C14 H33 0.950 . S
Zn15 N9 2.022 1_455 S
Zn15 O18 2.025 1_445 S
Zn15 O23 2.024 1_455 S
Zn15 O25 2.039 . S
Zn15 O27 2.034 1_545 S
O16 C0 1.251 . S
O16 Zn7 2.039 1_665 S
C17 O22 1.246 . S
C17 O23 1.249 1_554 S
O18 C0 1.254 1_556 S
O18 Zn15 2.025 1_665 S
H19 C11 0.952 . S
H20 C2 0.952 . S
H21 C10 0.948 . S
O22 Zn7 2.034 1_655 S
O22 C17 1.246 . S
O23 Zn15 2.024 1_655 S
O23 C17 1.249 1_556 S
H24 C6 0.948 . S
O25 Zn15 2.039 . S
O25 C29 1.251 1_556 S
O26 Zn7 2.025 . S
O26 C29 1.254 . S
O27 C8 1.246 1_556 S
O27 Zn15 2.034 1_565 S
O28 Zn7 2.024 1_565 S
O28 C8 1.249 . S
C29 O25 1.251 1_554 S
C29 O26 1.254 . S
H30 C3 0.949 . S
H31 C5 0.950 . S
H32 C12 0.949 . S
H33 C14 0.950 . S
C34 O50 1.251 . S
C34 O52 1.254 . S
N35 C36 1.333 . S
N35 C40 1.307 . S
N35 Zn41 2.020 . S
C36 N35 1.333 . S
C36 C37 1.379 . S
C36 H54 0.952 . S
C37 C36 1.379 . S
C37 C38 1.390 . S
C37 H64 0.949 . S
C38 C37 1.390 . S
C38 C39 1.357 . S
C39 C38 1.357 . S
C39 C40 1.370 . S
C39 H65 0.950 . S
C40 N35 1.307 . S
C40 C39 1.370 . S
C40 H58 0.948 . S
Zn41 N35 2.020 . S
Zn41 O50 2.039 . S
Zn41 O56 2.034 . S
Zn41 O60 2.025 . S
Zn41 O62 2.024 . S
C42 O61 1.246 . S
C42 O62 1.249 . S
N43 C44 1.307 . S
N43 C45 1.333 . S
N43 Zn49 2.020 . S
C44 N43 1.307 . S
C44 C48 1.370 . S
C44 H55 0.948 . S
C45 N43 1.333 . S
C45 C46 1.379 . S
C45 H53 0.952 . S
C46 C45 1.379 . S
C46 C47 1.390 . S
C46 H66 0.949 . S
C47 C46 1.390 . S
C47 C48 1.357 . S
C48 C44 1.370 . S
C48 C47 1.357 . S
C48 H67 0.950 . S
Zn49 N43 2.020 . S
Zn49 O52 2.025 . S
Zn49 O57 2.024 . S
Zn49 O59 2.039 . S
Zn49 O61 2.034 . S
O50 C34 1.251 . S
O50 Zn41 2.039 . S
C51 O56 1.246 . S
C51 O57 1.249 . S
O52 C34 1.254 . S
O52 Zn49 2.025 . S
H53 C45 0.952 . S
H54 C36 0.952 . S
H55 C44 0.948 . S
O56 Zn41 2.034 . S
O56 C51 1.246 . S
O57 Zn49 2.024 . S
O57 C51 1.249 . S
H58 C40 0.948 . S
O59 Zn49 2.039 . S
O59 C63 1.251 . S
O60 Zn41 2.025 . S
O60 C63 1.254 . S
O61 C42 1.246 . S
O61 Zn49 2.034 . S
O62 Zn41 2.024 . S
O62 C42 1.249 . S
C63 O59 1.251 . S
C63 O60 1.254 . S
H64 C37 0.949 . S
H65 C39 0.950 . S
H66 C46 0.949 . S
H67 C48 0.950 . S
H68 C73 0.929 . S
H69 C78 0.931 . S
H70 C76 0.930 1_655 S
N71 N72 1.234 . S
N71 C75 1.453 1_655 S
N72 N71 1.234 . S
C73 H68 0.929 . S
C73 C74 1.373 . S
C73 C75 1.368 1_565 S
C74 C73 1.373 . S
C74 C78 1.397 . S
C75 N71 1.453 1_455 S
C75 C73 1.368 1_545 S
C75 C76 1.373 . S
C76 H70 0.930 1_455 S
C76 C75 1.373 . S
C76 C77 1.371 . S
C77 C76 1.371 . S
C77 C78 1.383 1_545 S
C78 H69 0.931 . S
C78 C74 1.397 . S
C78 C77 1.383 1_565 S
H79 C84 0.929 . S
H80 C89 0.931 . S
H81 C87 0.930 . S
N82 N83 1.234 . S
N82 C86 1.453 . S
N83 N82 1.234 . S
C84 H79 0.929 . S
C84 C85 1.373 . S
C84 C86 1.368 1_665 S
C85 C84 1.373 . S
C85 C89 1.397 . S
C86 N82 1.453 . S
C86 C84 1.368 1_445 S
C86 C87 1.373 . S
C87 H81 0.930 . S
C87 C86 1.373 . S
C87 C88 1.371 1_455 S
C88 C87 1.371 1_655 S
C88 C89 1.383 1_545 S
C89 H80 0.931 . S
C89 C85 1.397 . S
C89 C88 1.383 1_565 S
H90 C95 0.929 1_554 S
H91 C100 0.931 . S
H92 C98 0.930 . S
N93 N94 1.234 . S
N93 C97 1.453 . S
N94 N93 1.234 . S
C95 H90 0.929 1_556 S
C95 C96 1.373 . S
C95 C97 1.368 . S
C96 C95 1.373 . S
C96 C100 1.397 . S
C97 N93 1.453 . S
C97 C95 1.368 . S
C97 C98 1.373 . S
C98 H92 0.930 . S
C98 C97 1.373 . S
C98 C99 1.371 . S
C99 C98 1.371 . S
C99 C100 1.383 . S
C100 H91 0.931 . S
C100 C96 1.397 . S
C100 C99 1.383 . S
H101 C106 0.929 1_556 S
H102 C111 0.931 . S
H103 C109 0.930 . S
N104 N105 1.234 . S
N104 C108 1.453 . S
N105 N104 1.234 . S
C106 H101 0.929 1_554 S
C106 C107 1.373 . S
C106 C108 1.368 . S
C107 C106 1.373 . S
C107 C111 1.397 . S
C108 N104 1.453 . S
C108 C106 1.368 . S
C108 C109 1.373 . S
C109 H103 0.930 . S
C109 C108 1.373 . S
C109 C110 1.371 . S
C110 C109 1.371 . S
C110 C111 1.383 . S
C111 H102 0.931 . S
C111 C107 1.397 . S
C111 C110 1.383 . S
H112 C120 0.950 . S
H113 C125 0.950 . S
H114 C122 0.950 . S
H115 C124 0.950 . S
H116 C126 0.950 . S
H117 C128 0.950 . S
H118 C130 0.950 . S
H119 C131 0.950 . S
C120 H112 0.950 . S
C120 C121 1.386 . S
C120 C122 1.391 . S
C121 C120 1.386 . S
C121 C125 1.393 . S
C122 H114 0.950 . S
C122 C120 1.391 . S
C122 C123 1.400 . S
C123 C122 1.400 . S
C123 C124 1.398 . S
C123 C129 1.491 . S
C124 H115 0.950 . S
C124 C123 1.398 . S
C124 C125 1.391 . S
C125 H113 0.950 . S
C125 C121 1.393 . S
C125 C124 1.391 . S
C126 H116 0.950 . S
C126 C127 1.386 . S
C126 C128 1.391 . S
C127 C126 1.386 . S
C127 C131 1.393 . S
C128 H117 0.950 . S
C128 C126 1.391 . S
C128 C129 1.400 . S
C129 C123 1.491 . S
C129 C128 1.400 . S
C129 C130 1.398 . S
C130 H118 0.950 . S
C130 C129 1.398 . S
C130 C131 1.391 . S
C131 H119 0.950 . S
C131 C127 1.393 . S
C131 C130 1.391 . S
H132 C140 0.950 . S
H133 C145 0.950 . S
H134 C142 0.950 . S
H135 C144 0.950 . S
H136 C146 0.950 . S
H137 C148 0.950 . S
H138 C150 0.950 . S
H139 C151 0.950 . S
C140 H132 0.950 . S
C140 C141 1.386 1_556 S
C140 C142 1.391 . S
C141 C140 1.386 1_554 S
C141 C145 1.393 . S
C142 H134 0.950 . S
C142 C140 1.391 . S
C142 C143 1.400 1_556 S
C143 C142 1.400 1_554 S
C143 C144 1.398 . S
C143 C149 1.491 . S
C144 H135 0.950 . S
C144 C143 1.398 . S
C144 C145 1.391 . S
C145 H133 0.950 . S
C145 C141 1.393 . S
C145 C144 1.391 . S
C146 H136 0.950 . S
C146 C147 1.386 1_554 S
C146 C148 1.391 . S
C147 C146 1.386 1_556 S
C147 C151 1.393 . S
C148 H137 0.950 . S
C148 C146 1.391 . S
C148 C149 1.400 . S
C149 C143 1.491 . S
C149 C148 1.400 . S
C149 C150 1.398 1_554 S
C150 H138 0.950 . S
C150 C149 1.398 1_556 S
C150 C151 1.391 . S
C151 H139 0.950 . S
C151 C147 1.393 . S
C151 C150 1.391 . S
H152 C160 0.950 . S
H153 C165 0.950 . S
H154 C162 0.950 . S
H155 C164 0.950 . S
H156 C166 0.950 . S
H157 C168 0.950 . S
H158 C170 0.950 . S
H159 C171 0.950 . S
C160 H152 0.950 . S
C160 C161 1.386 1_556 S
C160 C162 1.391 . S
C161 C160 1.386 1_554 S
C161 C165 1.393 . S
C162 H154 0.950 . S
C162 C160 1.391 . S
C162 C163 1.400 1_556 S
C163 C162 1.400 1_554 S
C163 C164 1.398 . S
C163 C169 1.491 . S
C164 H155 0.950 . S
C164 C163 1.398 . S
C164 C165 1.391 . S
C165 H153 0.950 . S
C165 C161 1.393 . S
C165 C164 1.391 . S
C166 H156 0.950 . S
C166 C167 1.386 . S
C166 C168 1.391 . S
C167 C166 1.386 . S
C167 C171 1.393 1_554 S
C168 H157 0.950 . S
C168 C166 1.391 . S
C168 C169 1.400 . S
C169 C163 1.491 . S
C169 C168 1.400 . S
C169 C170 1.398 1_554 S
C170 H158 0.950 . S
C170 C169 1.398 1_556 S
C170 C171 1.391 . S
C171 H159 0.950 . S
C171 C167 1.393 1_556 S
C171 C170 1.391 . S
H172 C180 0.950 . S
H173 C185 0.950 . S
H174 C182 0.950 . S
H175 C184 0.950 . S
H176 C186 0.950 . S
H177 C188 0.941 1_554 S
H178 C190 0.950 . S
H179 C191 0.950 . S
C180 H172 0.950 . S
C180 C181 1.385 . S
C180 C182 1.391 . S
C181 C180 1.385 . S
C181 C185 1.394 1_556 S
C182 H174 0.950 . S
C182 C180 1.391 . S
C182 C183 1.400 . S
C183 C182 1.400 . S
C183 C184 1.398 1_556 S
C183 C189 1.491 . S
C184 H175 0.950 . S
C184 C183 1.398 1_554 S
C184 C185 1.391 . S
C185 H173 0.950 . S
C185 C181 1.394 1_554 S
C185 C184 1.391 . S
C186 H176 0.950 . S
C186 C187 1.386 . S
C186 C188 1.391 . S
C187 C186 1.386 . S
C187 C191 1.393 . S
C188 H177 0.941 1_556 S
C188 C186 1.391 . S
C188 C189 1.400 . S
C189 C183 1.491 . S
C189 C188 1.400 . S
C189 C190 1.398 . S
C190 H178 0.950 . S
C190 C189 1.398 . S
C190 C191 1.391 . S
C191 H179 0.950 . S
C191 C187 1.393 . S
C191 C190 1.391 . S
H192 C200 0.950 . S
H193 C205 0.950 . S
H194 C202 0.950 . S
H195 C204 0.950 . S
H196 C206 0.950 . S
H197 C208 0.950 . S
H198 C210 0.950 . S
H199 C211 0.950 . S
C200 H192 0.950 . S
C200 C201 1.386 . S
C200 C202 1.391 . S
C201 C200 1.386 . S
C201 C205 1.393 . S
C202 H194 0.950 . S
C202 C200 1.391 . S
C202 C203 1.400 . S
C203 C202 1.400 . S
C203 C204 1.398 . S
C203 C209 1.491 . S
C204 H195 0.950 . S
C204 C203 1.398 . S
C204 C205 1.391 . S
C205 H193 0.950 . S
C205 C201 1.393 . S
C205 C204 1.391 . S
C206 H196 0.950 . S
C206 C207 1.386 . S
C206 C208 1.391 . S
C207 C206 1.386 . S
C207 C211 1.393 . S
C208 H197 0.950 . S
C208 C206 1.391 . S
C208 C209 1.400 . S
C209 C203 1.491 . S
C209 C208 1.400 . S
C209 C210 1.398 . S
C210 H198 0.950 . S
C210 C209 1.398 . S
C210 C211 1.391 . S
C211 H199 0.950 . S
C211 C207 1.393 . S
C211 C210 1.391 . S
H212 C220 0.950 . S
H213 C225 0.950 . S
H214 C222 0.950 . S
H215 C224 0.950 . S
H216 C226 0.950 . S
H217 C228 0.950 . S
H218 C230 0.950 . S
H219 C231 0.950 . S
C220 H212 0.950 . S
C220 C221 1.386 . S
C220 C222 1.391 . S
C221 C220 1.386 . S
C221 C225 1.393 . S
C222 H214 0.950 . S
C222 C220 1.391 . S
C222 C223 1.400 . S
C223 C222 1.400 . S
C223 C224 1.398 . S
C223 C229 1.491 . S
C224 H215 0.950 . S
C224 C223 1.398 . S
C224 C225 1.391 . S
C225 H213 0.950 . S
C225 C221 1.393 . S
C225 C224 1.391 . S
C226 H216 0.950 . S
C226 C227 1.386 . S
C226 C228 1.391 . S
C227 C226 1.386 . S
C227 C231 1.393 . S
C228 H217 0.950 . S
C228 C226 1.391 . S
C228 C229 1.400 . S
C229 C223 1.491 . S
C229 C228 1.400 . S
C229 C230 1.398 . S
C230 H218 0.950 . S
C230 C229 1.398 . S
C230 C231 1.391 . S
C231 H219 0.950 . S
C231 C227 1.393 . S
C231 C230 1.391 . S
H232 C240 0.950 . S
H233 C245 0.950 . S
H234 C242 0.950 . S
H235 C244 0.950 . S
H236 C246 0.950 . S
H237 C248 0.950 . S
H238 C250 0.950 . S
H239 C251 0.950 . S
C240 H232 0.950 . S
C240 C241 1.386 . S
C240 C242 1.391 . S
C241 C240 1.386 . S
C241 C245 1.393 . S
C242 H234 0.950 . S
C242 C240 1.391 . S
C242 C243 1.400 . S
C243 C242 1.400 . S
C243 C244 1.398 . S
C243 C249 1.491 . S
C244 H235 0.950 . S
C244 C243 1.398 . S
C244 C245 1.391 . S
C245 H233 0.950 . S
C245 C241 1.393 . S
C245 C244 1.391 . S
C246 H236 0.950 . S
C246 C247 1.386 . S
C246 C248 1.391 . S
C247 C246 1.386 . S
C247 C251 1.393 . S
C248 H237 0.950 . S
C248 C246 1.391 . S
C248 C249 1.400 . S
C249 C243 1.491 . S
C249 C248 1.400 . S
C249 C250 1.398 . S
C250 H238 0.950 . S
C250 C249 1.398 . S
C250 C251 1.391 . S
C251 H239 0.950 . S
C251 C247 1.393 . S
C251 C250 1.391 . S
H252 C260 0.950 . S
H253 C265 0.950 . S
H254 C262 0.950 . S
H255 C264 0.950 . S
H256 C266 0.950 . S
H257 C268 0.950 . S
H258 C270 0.950 . S
H259 C271 0.950 . S
C260 H252 0.950 . S
C260 C261 1.386 . S
C260 C262 1.391 . S
C261 C260 1.386 . S
C261 C265 1.393 . S
C262 H254 0.950 . S
C262 C260 1.391 . S
C262 C263 1.400 . S
C263 C262 1.400 . S
C263 C264 1.398 . S
C263 C269 1.491 . S
C264 H255 0.950 . S
C264 C263 1.398 . S
C264 C265 1.391 . S
C265 H253 0.950 . S
C265 C261 1.393 . S
C265 C264 1.391 . S
C266 H256 0.950 . S
C266 C267 1.386 . S
C266 C268 1.391 . S
C267 C266 1.386 . S
C267 C271 1.393 . S
C268 H257 0.950 . S
C268 C266 1.391 . S
C268 C269 1.400 . S
C269 C263 1.491 . S
C269 C268 1.400 . S
C269 C270 1.398 . S
C270 H258 0.950 . S
C270 C269 1.398 . S
C270 C271 1.391 . S
C271 H259 0.950 . S
C271 C267 1.393 . S
C271 C270 1.391 . S
H272 C280 0.953 . S
H273 C285 0.950 . S
H274 C282 0.950 . S
H275 C284 0.950 . S
H276 C286 0.950 . S
H277 C288 0.950 . S
H278 C290 0.950 . S
H279 C291 0.950 . S
C280 H272 0.953 . S
C280 C281 1.386 . S
C280 C282 1.391 . S
C281 C280 1.386 . S
C281 C285 1.393 1_545 S
C282 H274 0.950 . S
C282 C280 1.391 . S
C282 C283 1.400 . S
C283 C282 1.400 . S
C283 C284 1.398 1_545 S
C283 C289 1.491 . S
C284 H275 0.950 . S
C284 C283 1.398 1_565 S
C284 C285 1.391 . S
C285 H273 0.950 . S
C285 C281 1.393 1_565 S
C285 C284 1.391 . S
C286 H276 0.950 . S
C286 C287 1.386 1_565 S
C286 C288 1.391 . S
C287 C286 1.386 1_545 S
C287 C291 1.393 . S
C288 H277 0.950 . S
C288 C286 1.391 . S
C288 C289 1.400 1_565 S
C289 C283 1.491 . S
C289 C288 1.400 1_545 S
C289 C290 1.398 . S
C290 H278 0.950 . S
C290 C289 1.398 . S
C290 C291 1.391 . S
C291 H279 0.950 . S
C291 C287 1.393 . S
C291 C290 1.391 . S
H292 C300 0.950 . S
H293 C305 0.950 . S
H294 C302 0.950 . S
H295 C304 0.950 . S
H296 C306 0.950 . S
H297 C308 0.950 . S
H298 C310 0.950 . S
H299 C311 0.950 . S
C300 H292 0.950 . S
C300 C301 1.386 1_455 S
C300 C302 1.391 . S
C301 C300 1.386 1_655 S
C301 C305 1.393 . S
C302 H294 0.950 . S
C302 C300 1.391 . S
C302 C303 1.400 1_455 S
C303 C302 1.400 1_655 S
C303 C304 1.398 . S
C303 C309 1.491 . S
C304 H295 0.950 . S
C304 C303 1.398 . S
C304 C305 1.391 . S
C305 H293 0.950 . S
C305 C301 1.393 . S
C305 C304 1.391 . S
C306 H296 0.950 . S
C306 C307 1.386 . S
C306 C308 1.391 . S
C307 C306 1.386 . S
C307 C311 1.393 1_655 S
C308 H297 0.950 . S
C308 C306 1.391 . S
C308 C309 1.400 . S
C309 C303 1.491 . S
C309 C308 1.400 . S
C309 C310 1.398 1_655 S
C310 H298 0.950 . S
C310 C309 1.398 1_455 S
C310 C311 1.391 . S
C311 H299 0.950 . S
C311 C307 1.393 1_455 S
C311 C310 1.391 . S
H312 C320 0.950 . S
H313 C325 0.950 . S
H314 C322 0.950 . S
H315 C324 0.950 . S
H316 C326 0.950 . S
H317 C328 0.950 . S
H318 C330 0.950 . S
H319 C331 0.950 . S
C320 H312 0.950 . S
C320 C321 1.386 . S
C320 C322 1.391 . S
C321 C320 1.386 . S
C321 C325 1.393 . S
C322 H314 0.950 . S
C322 C320 1.391 . S
C322 C323 1.400 . S
C323 C322 1.400 . S
C323 C324 1.398 . S
C323 C329 1.491 . S
C324 H315 0.950 . S
C324 C323 1.398 . S
C324 C325 1.391 . S
C325 H313 0.950 . S
C325 C321 1.393 . S
C325 C324 1.391 . S
C326 H316 0.950 . S
C326 C327 1.386 . S
C326 C328 1.391 . S
C327 C326 1.386 . S
C327 C331 1.393 . S
C328 H317 0.950 . S
C328 C326 1.391 . S
C328 C329 1.400 . S
C329 C323 1.491 . S
C329 C328 1.400 . S
C329 C330 1.398 . S
C330 H318 0.950 . S
C330 C329 1.398 . S
C330 C331 1.391 . S
C331 H319 0.950 . S
C331 C327 1.393 . S
C331 C330 1.391 . S
H332 C340 0.950 . S
H333 C345 0.950 . S
H334 C342 0.950 . S
H335 C344 0.950 . S
H336 C346 0.950 . S
H337 C348 0.950 . S
H338 C350 0.950 . S
H339 C351 0.950 . S
C340 H332 0.950 . S
C340 C341 1.386 . S
C340 C342 1.391 . S
C341 C340 1.386 . S
C341 C345 1.393 . S
C342 H334 0.950 . S
C342 C340 1.391 . S
C342 C343 1.400 . S
C343 C342 1.400 . S
C343 C344 1.398 . S
C343 C349 1.491 . S
C344 H335 0.950 . S
C344 C343 1.398 . S
C344 C345 1.391 . S
C345 H333 0.950 . S
C345 C341 1.393 . S
C345 C344 1.391 . S
C346 H336 0.950 . S
C346 C347 1.386 . S
C346 C348 1.391 . S
C347 C346 1.386 . S
C347 C351 1.393 . S
C348 H337 0.950 . S
C348 C346 1.391 . S
C348 C349 1.400 . S
C349 C343 1.491 . S
C349 C348 1.400 . S
C349 C350 1.398 . S
C350 H338 0.950 . S
C350 C349 1.398 . S
C350 C351 1.391 . S
C351 H339 0.950 . S
C351 C347 1.393 . S
C351 C350 1.391 . S
C127 C107 1.443 . S
C121 C29 1.483 . S
C141 C8 1.403 . S
C147 N94 1.341 . S
C161 C0 1.410 . S
C167 N105 1.357 . S
C181 C17 1.481 1_556 S
C187 C96 1.467 . S
C201 C63 1.481 . S
C207 C85 1.449 . S
C221 C42 1.398 . S
C227 N72 1.364 . S
C247 N83 1.371 . S
C241 C34 1.405 . S
C267 C74 1.448 . S
C261 C51 1.486 . S
C281 C4 1.516 . S
C287 C77 1.509 . S
C301 C13 1.507 . S
C307 C88 1.506 . S
C327 C99 1.512 . S
C321 C38 1.517 . S
C341 C47 1.508 . S
C347 C110 1.505 . S
