# Generated by pormake.
# Topology pyr, (3,6)-cn, num edge types: 1
# Building blocks:
#     Node 0, Type 0, BuildingBlock: PAMTOO_clean_linker_0, # of connection points: 3
#     Node 1, Type 0, BuildingBlock: PAMTOO_clean_linker_0, # of connection points: 3
#     Node 2, Type 0, BuildingBlock: PAMTOO_clean_linker_0, # of connection points: 3
#     Node 3, Type 0, BuildingBlock: PAMTOO_clean_linker_0, # of connection points: 3
#     Node 4, Type 0, BuildingBlock: PAMTOO_clean_linker_0, # of connection points: 3
#     Node 5, Type 0, BuildingBlock: PAMTOO_clean_linker_0, # of connection points: 3
#     Node 6, Type 0, BuildingBlock: PAMTOO_clean_linker_0, # of connection points: 3
#     Node 7, Type 0, BuildingBlock: PAMTOO_clean_linker_0, # of connection points: 3
#     Node 8, Type 1, BuildingBlock: BETFAJ_clean_sbu_0, # of connection points: 6
#     Node 9, Type 1, BuildingBlock: BETFAJ_clean_sbu_0, # of connection points: 6
#     Node 10, Type 1, BuildingBlock: BETFAJ_clean_sbu_0, # of connection points: 6
#     Node 11, Type 1, BuildingBlock: BETFAJ_clean_sbu_0, # of connection points: 6
#     Edge 12, Type (0, 1), BuildingBlock: XIVTED_clean_linker_0, # of connection points: 2
#     Edge 13, Type (0, 1), BuildingBlock: XIVTED_clean_linker_0, # of connection points: 2
#     Edge 14, Type (0, 1), BuildingBlock: XIVTED_clean_linker_0, # of connection points: 2
#     Edge 15, Type (0, 1), BuildingBlock: XIVTED_clean_linker_0, # of connection points: 2
#     Edge 16, Type (0, 1), BuildingBlock: XIVTED_clean_linker_0, # of connection points: 2
#     Edge 17, Type (0, 1), BuildingBlock: XIVTED_clean_linker_0, # of connection points: 2
#     Edge 18, Type (0, 1), BuildingBlock: XIVTED_clean_linker_0, # of connection points: 2
#     Edge 19, Type (0, 1), BuildingBlock: XIVTED_clean_linker_0, # of connection points: 2
#     Edge 20, Type (0, 1), BuildingBlock: XIVTED_clean_linker_0, # of connection points: 2
#     Edge 21, Type (0, 1), BuildingBlock: XIVTED_clean_linker_0, # of connection points: 2
#     Edge 22, Type (0, 1), BuildingBlock: XIVTED_clean_linker_0, # of connection points: 2
#     Edge 23, Type (0, 1), BuildingBlock: XIVTED_clean_linker_0, # of connection points: 2
#     Edge 24, Type (0, 1), BuildingBlock: XIVTED_clean_linker_0, # of connection points: 2
#     Edge 25, Type (0, 1), BuildingBlock: XIVTED_clean_linker_0, # of connection points: 2
#     Edge 26, Type (0, 1), BuildingBlock: XIVTED_clean_linker_0, # of connection points: 2
#     Edge 27, Type (0, 1), BuildingBlock: XIVTED_clean_linker_0, # of connection points: 2
#     Edge 28, Type (0, 1), BuildingBlock: XIVTED_clean_linker_0, # of connection points: 2
#     Edge 29, Type (0, 1), BuildingBlock: XIVTED_clean_linker_0, # of connection points: 2
#     Edge 30, Type (0, 1), BuildingBlock: XIVTED_clean_linker_0, # of connection points: 2
#     Edge 31, Type (0, 1), BuildingBlock: XIVTED_clean_linker_0, # of connection points: 2
#     Edge 32, Type (0, 1), BuildingBlock: XIVTED_clean_linker_0, # of connection points: 2
#     Edge 33, Type (0, 1), BuildingBlock: XIVTED_clean_linker_0, # of connection points: 2
#     Edge 34, Type (0, 1), BuildingBlock: XIVTED_clean_linker_0, # of connection points: 2
#     Edge 35, Type (0, 1), BuildingBlock: XIVTED_clean_linker_0, # of connection points: 2
# Relax obj value: 0.177
# Max RMSD: 0.226
# Mean RMSD: 0.149
data_MOF--net-pyr--node1-BETFAJ_clean_sbu_0--node2-PAMTOO_clean_linker_0--edge1-XIVTED_clean_linker_0
_symmetry_space_group_name_H-M    P1
_symmetry_Int_Tables_number       1
_symmetry_cell_setting            triclinic
loop_
_symmetry_equiv_pos_as_xyz
'x, y, z'
_cell_length_a     37.166169
_cell_length_b     41.705425
_cell_length_c     37.269291
_cell_angle_alpha  91.732362
_cell_angle_beta   89.702667
_cell_angle_gamma 105.46659
loop_
_atom_site_label
_atom_site_type_symbol
_atom_site_fract_x
_atom_site_fract_y
_atom_site_fract_z
_atom_type_partial_charge
H0 H 0.34479 0.33314 0.29699 0.0
H1 H 0.37008 0.24067 0.2682 0.0
H2 H 0.36895 0.31052 0.18774 0.0
H3 H 0.44332 0.27572 0.22081 0.0
C4 C 0.42705 0.26329 0.19683 0.0
O5 O 0.3892 0.25722 0.20316 0.0
H6 H 0.43471 0.28033 0.17402 0.0
C7 C 0.35119 0.31607 0.27715 0.0
C8 C 0.35291 0.32459 0.24085 0.0
C9 C 0.35306 0.28432 0.28728 0.0
C10 C 0.36708 0.26496 0.26195 0.0
C11 C 0.3753 0.27588 0.22694 0.0
C12 C 0.36651 0.30472 0.2159 0.0
H13 H 0.30953 0.92397 0.65814 0.0
H14 H 0.27788 0.87516 0.55503 0.0
H15 H 0.36269 0.85052 0.61722 0.0
H16 H 0.36301 0.87384 0.52996 0.0
C17 C 0.34816 0.8468 0.52918 0.0
O18 O 0.32351 0.83842 0.55732 0.0
H19 H 0.33234 0.84146 0.50349 0.0
C20 C 0.31274 0.90654 0.63698 0.0
C21 C 0.33922 0.88837 0.64105 0.0
C22 C 0.28993 0.90175 0.60633 0.0
C23 C 0.29421 0.87871 0.57953 0.0
C24 C 0.32016 0.86036 0.58354 0.0
C25 C 0.34245 0.86479 0.61443 0.0
H26 H 0.73383 0.32328 0.92938 0.0
H27 H 0.65214 0.31075 0.84471 0.0
H28 H 0.74365 0.39905 0.85093 0.0
H29 H 0.66527 0.40629 0.83607 0.0
C30 C 0.65872 0.38755 0.81347 0.0
O31 O 0.68407 0.3682 0.81392 0.0
H32 H 0.63026 0.37129 0.81836 0.0
C33 C 0.72374 0.33221 0.90547 0.0
C34 C 0.74334 0.36359 0.89245 0.0
C35 C 0.69076 0.3125 0.88882 0.0
C36 C 0.677 0.32539 0.85841 0.0
C37 C 0.6959 0.35682 0.84479 0.0
C38 C 0.72884 0.37551 0.86204 0.0
H39 H 0.8831 0.73593 0.43202 0.0
H40 H 0.88312 0.65802 0.35345 0.0
H41 H 0.9709 0.7495 0.3533 0.0
H42 H 0.94809 0.71626 0.27736 0.0
C43 C 0.93825 0.69002 0.28583 0.0
O44 O 0.94599 0.68892 0.32231 0.0
H45 H 0.90749 0.68216 0.28157 0.0
C46 C 0.89599 0.72655 0.40933 0.0
C47 C 0.92917 0.74701 0.39495 0.0
C48 C 0.87869 0.69455 0.39465 0.0
C49 C 0.89532 0.68284 0.36452 0.0
C50 C 0.92856 0.70238 0.34928 0.0
C51 C 0.94507 0.73465 0.36445 0.0
H52 H 0.76099 0.86695 0.87713 0.0
H53 H 0.69058 0.79841 0.94903 0.0
H54 H 0.78769 0.77633 0.90341 0.0
H55 H 0.70757 0.72449 0.90414 0.0
C56 C 0.71724 0.72418 0.93236 0.0
O57 O 0.73112 0.75598 0.94671 0.0
H58 H 0.69257 0.7111 0.94821 0.0
C59 C 0.75441 0.8438 0.89132 0.0
C60 C 0.77763 0.82238 0.8871 0.0
C61 C 0.72291 0.83564 0.91368 0.0
C62 C 0.71421 0.80501 0.93101 0.0
C63 C 0.73753 0.7837 0.92721 0.0
C64 C 0.76924 0.79249 0.90544 0.0
H65 H 0.81851 0.15479 0.4424 0.0
H66 H 0.7928 0.24941 0.45181 0.0
H67 H 0.8608 0.22258 0.53148 0.0
H68 H 0.82626 0.2944 0.55633 0.0
C69 C 0.8103 0.27317 0.53921 0.0
O70 O 0.83239 0.26878 0.51058 0.0
H71 H 0.80356 0.2508 0.55617 0.0
C72 C 0.82038 0.17794 0.45717 0.0
C73 C 0.84191 0.18544 0.48877 0.0
C74 C 0.80221 0.20065 0.44369 0.0
C75 C 0.80639 0.23148 0.46179 0.0
C76 C 0.82788 0.23913 0.49318 0.0
C77 C 0.84522 0.21622 0.50662 0.0
H78 H 0.37967 0.74963 0.15279 0.0
H79 H 0.37812 0.67013 0.22507 0.0
H80 H 0.46265 0.76263 0.23617 0.0
H81 H 0.49023 0.70597 0.259 0.0
C82 C 0.46323 0.68739 0.26406 0.0
O83 O 0.43479 0.70348 0.26435 0.0
H84 H 0.45841 0.66886 0.24126 0.0
C85 C 0.39143 0.73977 0.17505 0.0
C86 C 0.42375 0.76025 0.19219 0.0
C87 C 0.37418 0.70697 0.18616 0.0
C88 C 0.39015 0.69503 0.2158 0.0
C89 C 0.42186 0.71491 0.23405 0.0
C90 C 0.43854 0.74733 0.2219 0.0
H91 H 0.12761 0.33354 0.76897 0.0
H92 H 0.22047 0.4216 0.75979 0.0
H93 H 0.20963 0.34024 0.68489 0.0
H94 H 0.28627 0.37238 0.70681 0.0
C95 C 0.28486 0.39861 0.71019 0.0
O96 O 0.24891 0.40036 0.70267 0.0
H97 H 0.2915 0.40653 0.73872 0.0
C98 C 0.15305 0.34713 0.75606 0.0
C99 C 0.16643 0.33228 0.72546 0.0
C100 C 0.17158 0.38021 0.76863 0.0
C101 C 0.20473 0.39699 0.75069 0.0
C102 C 0.21827 0.3827 0.7207 0.0
C103 C 0.19895 0.35077 0.70825 0.0
Sm104 Sm 0.05081 0.05317 0.53038 0.0
Sm105 Sm 0.05041 1.02063 0.60159 0.0
C106 C 0.05094 0.09109 0.4751 0.0
C107 C 0.08217 0.11722 0.46084 0.0
C108 C 0.10482 0.14158 0.48393 0.0
C109 C 0.13864 0.16189 0.47179 0.0
C110 C 0.15068 0.15784 0.43659 0.0
C111 C 0.1274 0.13435 0.41316 0.0
C112 C 0.09336 0.11433 0.42515 0.0
C113 C 0.11552 0.03641 0.54616 0.0
C114 C 0.07649 0.10148 0.604 0.0
C115 C 0.05978 0.98483 0.65657 0.0
C116 C 0.03725 0.95669 0.6763 0.0
C117 C 0.05071 0.94853 0.70883 0.0
C118 C 0.02702 0.92635 0.73148 0.0
C119 C 0.98946 0.91213 0.72191 0.0
C120 C 0.97682 0.91869 0.6881 0.0
C121 C 1.00055 0.94094 0.66548 0.0
C122 C 0.98534 0.03705 0.58622 0.0
C123 C 0.02146 0.97269 0.52761 0.0
O124 O 0.03762 0.09702 0.50649 0.0
O125 O 0.05535 0.06111 0.47186 0.0
O126 O 0.09707 0.04922 0.5678 0.0
O127 O 0.10131 0.03389 0.51434 0.0
O128 O 0.06126 0.09862 0.57151 0.0
O129 O 0.08148 0.07478 0.61942 0.0
O130 O 0.06916 0.97873 0.62369 0.0
O131 O 0.04883 1.01203 0.65984 0.0
O132 O 1.00402 1.02461 0.56444 0.0
O133 O 0.99915 0.03891 0.61829 0.0
O134 O 0.03623 0.97491 0.56035 0.0
O135 O 0.01785 0.99985 0.5121 0.0
H136 H 0.09728 0.14401 0.51179 0.0
H137 H 0.1561 0.17981 0.49037 0.0
H138 H 0.13577 0.13114 0.38569 0.0
H139 H 0.07658 0.09549 0.40701 0.0
H140 H 0.07899 0.96059 0.71755 0.0
H141 H 0.03762 0.92144 0.75718 0.0
H142 H 0.94796 0.90838 0.68013 0.0
H143 H 0.98972 0.94724 0.64047 0.0
Sm144 Sm 0.58865 0.04974 0.06534 0.0
Sm145 Sm 0.52122 1.0294 0.02695 0.0
C146 C 0.64948 0.08244 0.1014 0.0
C147 C 0.65965 0.0973 0.13729 0.0
C148 C 0.69597 0.11717 0.14355 0.0
C149 C 0.70655 0.13095 0.17774 0.0
C150 C 0.68094 0.125 0.20628 0.0
C151 C 0.6443 0.10536 0.19972 0.0
C152 C 0.6337 0.09168 0.16541 0.0
C153 C 0.54665 0.98726 0.08689 0.0
C154 C 0.51684 0.0744 0.09529 0.0
C155 C 0.46208 0.9965 0.98881 0.0
C156 C 0.45663 0.98082 0.95284 0.0
C157 C 0.42161 0.96035 0.94274 0.0
C158 C 0.41596 0.94615 0.9081 0.0
C159 C 0.4453 0.95234 0.88307 0.0
C160 C 0.48065 0.97227 0.89369 0.0
C161 C 0.4863 0.98633 0.92837 0.0
C162 C 0.5639 0.09153 1.00499 0.0
C163 C 0.59247 1.00429 0.99749 0.0
O164 O 0.63006 0.09699 0.08157 0.0
O165 O 0.63768 0.05005 0.09923 0.0
O166 O 0.53355 1.01201 0.08171 0.0
O167 O 0.58224 0.99544 0.08097 0.0
O168 O 0.55346 0.08092 0.0938 0.0
O169 O 0.49591 0.05044 0.075 0.0
O170 O 0.47884 0.98239 1.01181 0.0
O171 O 0.47435 1.02887 0.99006 0.0
O172 O 0.57648 0.06652 1.01029 0.0
O173 O 0.52841 0.08393 1.01144 0.0
O174 O 0.55593 0.99697 1.00015 0.0
O175 O 0.61325 1.02947 1.0163 0.0
H176 H 0.71629 0.12172 0.12207 0.0
H177 H 0.7351 0.14555 0.18202 0.0
H178 H 0.62386 0.1006 0.22108 0.0
H179 H 0.6054 0.07654 0.16086 0.0
H180 H 0.3985 0.95579 0.96144 0.0
H181 H 0.38831 0.93125 0.90056 0.0
H182 H 0.50383 0.97721 0.87508 0.0
H183 H 0.51366 1.00187 0.93595 0.0
Sm184 Sm 0.56778 0.51384 0.51364 0.0
Sm185 Sm 0.57613 0.57034 0.56003 0.0
C186 C 0.575 0.46316 0.47216 0.0
C187 C 0.58141 0.43037 0.4759 0.0
C188 C 0.58986 0.42005 0.5095 0.0
C189 C 0.60247 0.39156 0.51198 0.0
C190 C 0.60669 0.37298 0.48084 0.0
C191 C 0.59517 0.382 0.44759 0.0
C192 C 0.58278 0.41065 0.44515 0.0
C193 C 0.50317 0.5104 0.55296 0.0
C194 C 0.60163 0.50987 0.59595 0.0
C195 C 0.56644 0.62147 0.59914 0.0
C196 C 0.5447 0.64537 0.59308 0.0
C197 C 0.51492 0.63723 0.56863 0.0
C198 C 0.4949 0.66011 0.56151 0.0
C199 C 0.50382 0.69147 0.5792 0.0
C200 C 0.53365 0.69956 0.6039 0.0
C201 C 0.55407 0.67664 0.61069 0.0
C202 C 0.64163 0.57343 0.52297 0.0
C203 C 0.54125 0.57318 0.47835 0.0
O204 O 0.60292 0.4884 0.48169 0.0
O205 O 0.54279 0.4666 0.48304 0.0
O206 O 0.53615 0.51932 0.56505 0.0
O207 O 0.50359 0.50371 0.51877 0.0
O208 O 0.59646 0.49638 0.56303 0.0
O209 O 0.59402 0.5386 0.60276 0.0
O210 O 0.54681 0.5908 0.60327 0.0
O211 O 0.59492 0.6236 0.57787 0.0
O212 O 0.60911 0.56496 0.50923 0.0
O213 O 0.6397 0.57892 0.55731 0.0
O214 O 0.54236 0.58428 0.51211 0.0
O215 O 0.55405 0.54729 0.47062 0.0
H216 H 0.58866 0.435 0.53348 0.0
H217 H 0.61142 0.38557 0.53796 0.0
H218 H 0.59757 0.36789 0.42323 0.0
H219 H 0.57603 0.41825 0.41904 0.0
H220 H 0.50706 0.61314 0.55493 0.0
H221 H 0.47264 0.65325 0.54181 0.0
H222 H 0.54095 0.7234 0.61823 0.0
H223 H 0.57706 0.68328 0.62964 0.0
Sm224 Sm 0.06197 0.50549 0.05616 0.0
Sm225 Sm 0.06115 0.55945 1.0129 0.0
C226 C 0.08055 0.45585 0.08728 0.0
C227 C 0.11334 0.45124 0.10616 0.0
C228 C 0.14962 0.4696 0.09718 0.0
C229 C 0.18065 0.46337 0.1137 0.0
C230 C 0.17588 0.43887 0.13966 0.0
C231 C 0.13945 0.4211 0.14912 0.0
C232 C 0.10848 0.42723 0.13247 0.0
C233 C 0.02665 0.54809 0.0924 0.0
C234 C 0.13628 0.57124 0.06004 0.0
C235 C 0.04326 0.60852 0.97948 0.0
C236 C 1.00822 0.61736 0.97284 0.0
C237 C 0.97563 0.60166 0.99135 0.0
C238 C 0.94252 0.61058 0.98563 0.0
C239 C 0.9414 0.63555 0.96143 0.0
C240 C 0.97412 0.65096 0.94263 0.0
C241 C 1.00724 0.64189 0.9483 0.0
C242 C 0.0945 0.51524 0.97641 0.0
C243 C 0.98649 0.49527 1.01141 0.0
O244 O 0.08501 0.46179 0.05313 0.0
O245 O 0.06157 0.47411 0.10368 0.0
O246 O 0.05643 0.55718 0.07403 0.0
O247 O 1.01429 0.51582 0.09087 0.0
O248 O 0.12189 0.53971 0.06783 0.0
O249 O 0.11763 0.58621 0.03928 0.0
O250 O 0.05405 0.61062 1.01292 0.0
O251 O 0.047 0.58158 0.96298 0.0
O252 O 0.06503 0.5073 0.99519 0.0
O253 O 0.10772 0.54742 0.97752 0.0
O254 O 0.99887 0.52792 1.00904 0.0
O255 O 1.00791 0.47874 1.02613 0.0
H256 H 0.15402 0.48836 0.07696 0.0
H257 H 0.20834 0.47765 0.10613 0.0
H258 H 0.13486 0.40175 0.16868 0.0
H259 H 0.08072 0.41277 0.13964 0.0
H260 H 0.97584 0.58271 1.0105 0.0
H261 H 0.91777 0.59784 1.00015 0.0
H262 H 0.97439 0.67056 0.92414 0.0
H263 H 0.0322 0.65431 0.93385 0.0
H264 H 0.36079 0.22952 0.32541 0.0
H265 H 0.18087 0.2249 0.44517 0.0
H266 H 0.29883 0.3042 0.32681 0.0
H267 H 0.20436 0.13607 0.40038 0.0
H268 H 0.23916 0.25814 0.41932 0.0
H269 H 0.31728 0.19917 0.36986 0.0
C270 C 0.33877 0.24005 0.33497 0.0
C271 C 0.33365 0.26953 0.32083 0.0
C272 C 0.23176 0.2313 0.41567 0.0
C273 C 0.28487 0.23532 0.37321 0.0
C274 C 0.1986 0.21238 0.43038 0.0
C275 C 0.18754 0.17783 0.42424 0.0
C276 C 0.25412 0.21551 0.395 0.0
C277 C 0.21157 0.16278 0.40495 0.0
C278 C 0.31414 0.22268 0.36069 0.0
C279 C 0.30512 0.28209 0.33617 0.0
N280 N 0.24368 0.18176 0.39069 0.0
N281 N 0.28187 0.26484 0.36113 0.0
H282 H 0.34876 0.84349 0.68977 0.0
H283 H 0.4686 0.98646 0.82212 0.0
H284 H 0.38363 0.9476 0.66543 0.0
H285 H 0.40546 0.89046 0.85822 0.0
H286 H 0.45064 0.96824 0.76038 0.0
H287 H 0.38212 0.85644 0.74747 0.0
C288 C 0.36404 0.86893 0.69637 0.0
C289 C 0.36328 0.89463 0.67325 0.0
C290 C 0.44105 0.95103 0.78178 0.0
C291 C 0.40122 0.90954 0.73857 0.0
C292 C 0.45149 0.96132 0.817 0.0
C293 C 0.43819 0.94003 0.84536 0.0
C294 C 0.41719 0.91919 0.77481 0.0
C295 C 0.41578 0.90783 0.83715 0.0
C296 C 0.38284 0.87633 0.72923 0.0
C297 C 0.3833 0.92721 0.68286 0.0
N298 N 0.40574 0.89843 0.80259 0.0
N299 N 0.40131 0.93378 0.71489 0.0
H300 H 0.64157 0.36099 0.74387 0.0
H301 H 0.6232 0.53383 0.66441 0.0
H302 H 0.67104 0.4549 0.80246 0.0
H303 H 0.60881 0.44496 0.59786 0.0
H304 H 0.64082 0.50469 0.71458 0.0
H305 H 0.63039 0.39013 0.68997 0.0
C306 C 0.6465 0.38779 0.74526 0.0
C307 C 0.65791 0.4054 0.77792 0.0
C308 C 0.634 0.49145 0.68903 0.0
C309 C 0.64397 0.4391 0.71622 0.0
C310 C 0.62383 0.50819 0.66013 0.0
C311 C 0.61436 0.49211 0.62635 0.0
C312 C 0.63456 0.4579 0.68485 0.0
C313 C 0.6159 0.45866 0.62309 0.0
C314 C 0.63979 0.40444 0.71448 0.0
C315 C 0.66282 0.44012 0.77802 0.0
N316 N 0.6255 0.44274 0.65181 0.0
N317 N 0.65567 0.45558 0.74805 0.0
H318 H 1.0032 0.70746 0.24511 0.0
H319 H 0.96751 0.52974 0.13888 0.0
H320 H 0.9129 0.62218 0.26923 0.0
H321 H 0.05733 0.61479 0.11255 0.0
H322 H 0.94852 0.56277 0.18731 0.0
H323 H 0.02532 0.67382 0.19893 0.0
C324 C 0.98835 0.68148 0.2412 0.0
C325 C 0.95606 0.6678 0.26148 0.0
C326 C 0.9724 0.57437 0.17104 0.0
C327 C 0.9811 0.62881 0.20755 0.0
C328 C 0.98329 0.55543 0.14313 0.0
C329 C 1.01421 0.56925 0.12118 0.0
C330 C 0.9924 0.60778 0.17766 0.0
C331 C 0.03332 0.60286 0.12846 0.0
C332 C 1.00086 0.66227 0.21448 0.0
C333 C 0.93796 0.63392 0.25461 0.0
N334 N 0.0222 0.6208 0.15588 0.0
N335 N 0.95049 0.61584 0.22833 0.0
H336 H 0.48687 0.24284 0.22044 0.0
H337 H 0.44456 0.07884 0.09306 0.0
H338 H 0.39104 0.21226 0.15048 0.0
H339 H 0.55031 0.12167 0.14589 0.0
H340 H 0.41975 0.12181 0.12213 0.0
H341 H 0.50595 0.19326 0.201 0.0
C342 C 0.46957 0.22538 0.20136 0.0
C343 C 0.43706 0.23135 0.1874 0.0
C344 C 0.44827 0.12158 0.12761 0.0
C345 C 0.45892 0.17481 0.16465 0.0
C346 C 0.46239 0.09693 0.11121 0.0
C347 C 0.49969 0.09683 0.11678 0.0
C348 C 0.47154 0.14618 0.1499 0.0
C349 C 0.52149 0.12095 0.14054 0.0
C350 C 0.48051 0.19716 0.19018 0.0
C351 C 0.41601 0.20827 0.16224 0.0
N352 N 0.50717 0.14476 0.15603 0.0
N353 N 0.4273 0.18101 0.15164 0.0
H354 H 0.22027 0.88027 0.57623 0.0
H355 H 0.15701 0.04525 0.6077 0.0
H356 H 0.29585 0.96705 0.6263 0.0
H357 H 0.13314 0.98566 0.50965 0.0
H358 H 0.19902 1.01186 0.62609 0.0
H359 H 0.17742 0.91373 0.56342 0.0
C360 C 0.22794 0.90632 0.58452 0.0
C361 C 0.26213 0.921 0.60174 0.0
C362 C 0.18457 1.00636 0.60055 0.0
C363 C 0.21263 0.95891 0.58814 0.0
C364 C 0.1608 1.02526 0.59009 0.0
C365 C 0.14209 1.01821 0.55705 0.0
C366 C 0.18849 0.97987 0.57817 0.0
C367 C 0.14746 0.99203 0.53516 0.0
C368 C 0.20337 0.92526 0.57738 0.0
C369 C 0.2698 0.95462 0.61307 0.0
N370 N 0.16997 0.97354 0.54628 0.0
N371 N 0.2452 0.97256 0.60599 0.0
H372 H 0.79874 0.34048 0.92355 0.0
H373 H 0.93356 0.52059 0.9788 0.0
H374 H 0.77095 0.43222 0.9024 0.0
H375 H 0.95431 0.42764 1.00728 0.0
H376 H 0.8746 0.48941 0.95034 0.0
H377 H 0.85587 0.37238 0.95346 0.0
C378 C 0.80429 0.36732 0.92535 0.0
C379 C 0.77924 0.38337 0.91038 0.0
C380 C 0.89198 0.47583 0.96294 0.0
C381 C 0.84604 0.42058 0.94459 0.0
C382 C 0.92574 0.49367 0.97932 0.0
C383 C 0.94925 0.47688 0.9957 0.0
C384 C 0.88144 0.44078 0.96261 0.0
C385 C 0.93733 0.44186 0.99521 0.0
C386 C 0.83731 0.38562 0.94237 0.0
C387 C 0.78919 0.41847 0.91307 0.0
N388 N 0.90457 0.42514 0.97894 0.0
N389 N 0.82158 0.43576 0.92976 0.0
H390 H 0.81427 0.65468 0.36238 0.0
H391 H 0.71158 0.59962 0.55034 0.0
H392 H 0.86321 0.68593 0.46657 0.0
H393 H 0.65285 0.57956 0.44925 0.0
H394 H 0.76872 0.6266 0.51866 0.0
H395 H 0.75693 0.62286 0.39198 0.0
C396 C 0.81318 0.65472 0.39142 0.0
C397 C 0.84385 0.67342 0.41185 0.0
C398 C 0.74348 0.61625 0.5032 0.0
C399 C 0.77795 0.63682 0.44605 0.0
C400 C 0.71068 0.60066 0.52136 0.0
C401 C 0.67704 0.58728 0.50259 0.0
C402 C 0.74323 0.61865 0.46565 0.0
C403 C 0.67801 0.58947 0.46493 0.0
C404 C 0.78027 0.63665 0.40832 0.0
C405 C 0.84035 0.67249 0.44948 0.0
N406 N 0.71044 0.60491 0.44775 0.0
N407 N 0.8083 0.65466 0.46516 0.0
H408 H 0.29346 0.34144 0.27265 0.0
H409 H 0.23964 0.43168 0.10649 0.0
H410 H 0.36678 0.36482 0.18099 0.0
H411 H 0.18644 0.42742 0.21007 0.0
H412 H 0.28925 0.41128 0.13316 0.0
H413 H 0.25767 0.3768 0.25087 0.0
C414 C 0.30301 0.35464 0.24839 0.0
C415 C 0.33396 0.35 0.22902 0.0
C416 C 0.267 0.4153 0.1501 0.0
C417 C 0.29066 0.38988 0.20257 0.0
C418 C 0.23874 0.42702 0.13496 0.0
C419 C 0.20854 0.43072 0.15602 0.0
C420 C 0.26486 0.40717 0.18647 0.0
C421 C 0.20869 0.42417 0.19266 0.0
C422 C 0.28189 0.37472 0.23564 0.0
C423 C 0.34304 0.36708 0.19678 0.0
N424 N 0.23614 0.41242 0.20658 0.0
N425 N 0.32116 0.38591 0.1843 0.0
H426 H 0.61485 0.28206 0.89605 0.0
H427 H 0.63916 0.11506 0.987 0.0
H428 H 0.72226 0.26486 0.91582 0.0
H429 H 0.53462 0.14096 0.98167 0.0
H430 H 0.6699 0.16765 0.95772 0.0
H431 H 0.58486 0.22855 0.92311 0.0
C432 C 0.63225 0.26705 0.90574 0.0
C433 C 0.67142 0.27862 0.9036 0.0
C434 C 0.6402 0.1618 0.96291 0.0
C435 C 0.63683 0.21654 0.93515 0.0
C436 C 0.62261 0.13166 0.97965 0.0
C437 C 0.58408 0.12325 0.98695 0.0
C438 C 0.61922 0.18384 0.95299 0.0
C439 C 0.56431 0.14609 0.97672 0.0
C440 C 0.61502 0.23643 0.92151 0.0
C441 C 0.69209 0.25765 0.91719 0.0
N442 N 0.58191 0.17497 0.96035 0.0
N443 N 0.67471 0.22794 0.9322 0.0
H444 H 0.95768 0.80897 0.36465 0.0
H445 H 1.01204 0.90966 0.55411 0.0
H446 H 0.94035 0.76241 0.46723 0.0
H447 H 1.00208 0.95868 0.45592 0.0
H448 H 0.99198 0.85571 0.52169 0.0
H449 H 0.9806 0.86358 0.39604 0.0
C450 C 0.95904 0.81006 0.39369 0.0
C451 C 0.94672 0.78066 0.41308 0.0
C452 C 0.99415 0.87823 0.50715 0.0
C453 C 0.97317 0.84363 0.44954 0.0
C454 C 1.00569 0.90923 0.52574 0.0
C455 C 1.00873 0.9392 0.50804 0.0
C456 C 0.98592 0.87668 0.47014 0.0
C457 C 1.00002 0.93651 0.47103 0.0
C458 C 0.9719 0.84139 0.41168 0.0
C459 C 0.94904 0.78413 0.45088 0.0
N460 N 0.98927 0.90607 0.45345 0.0
N461 N 0.9619 0.81468 0.46764 0.0
H462 H 0.41975 0.86473 0.55569 0.0
H463 H 0.42852 0.67781 0.56832 0.0
H464 H 0.33631 0.78157 0.50945 0.0
H465 H 0.5286 0.75942 0.57319 0.0
H466 H 0.39289 0.71647 0.55239 0.0
H467 H 0.45954 0.82754 0.5669 0.0
C468 C 0.41031 0.83877 0.54718 0.0
C469 C 0.37523 0.82609 0.53103 0.0
C470 C 0.42269 0.7259 0.55678 0.0
C471 C 0.41952 0.78357 0.54481 0.0
C472 C 0.4431 0.70384 0.56581 0.0
C473 C 0.48174 0.7153 0.57168 0.0
C474 C 0.44083 0.75981 0.5541 0.0
C475 C 0.49883 0.74952 0.56915 0.0
C476 C 0.43281 0.81761 0.55373 0.0
C477 C 0.36353 0.79221 0.52141 0.0
N478 N 0.47821 0.77066 0.56058 0.0
N479 N 0.38554 0.77201 0.5287 0.0
H480 H 0.80007 0.78588 0.83335 0.0
H481 H 0.98445 0.92976 0.7923 0.0
H482 H 0.83187 0.88088 0.89017 0.0
H483 H 0.93247 0.85475 0.71252 0.0
H484 H 0.9357 0.9047 0.83471 0.0
H485 H 0.85505 0.80423 0.79453 0.0
C486 C 0.81883 0.81046 0.83777 0.0
C487 C 0.81144 0.83209 0.86465 0.0
C488 C 0.93514 0.89352 0.80803 0.0
C489 C 0.87407 0.85292 0.82101 0.0
C490 C 0.96318 0.90758 0.7839 0.0
C491 C 0.96251 0.89432 0.74879 0.0
C492 C 0.9062 0.86587 0.79712 0.0
C493 C 0.9338 0.86591 0.73925 0.0
C494 C 0.84998 0.82091 0.81563 0.0
C495 C 0.83642 0.86367 0.8694 0.0
N496 N 0.90662 0.85264 0.76329 0.0
N497 N 0.86664 0.87312 0.8478 0.0
H498 H 0.80084 0.2401 0.38636 0.0
H499 H 0.6651 0.09285 0.26977 0.0
H500 H 0.75193 0.14165 0.42527 0.0
H501 H 0.72478 0.18688 0.22633 0.0
H502 H 0.68984 0.11316 0.32924 0.0
H503 H 0.76652 0.22377 0.32991 0.0
C504 C 0.78256 0.21518 0.38317 0.0
C505 C 0.77952 0.19208 0.41039 0.0
C506 C 0.69735 0.12945 0.30675 0.0
C507 C 0.74041 0.17316 0.34587 0.0
C508 C 0.683 0.11795 0.27282 0.0
C509 C 0.69311 0.13811 0.24298 0.0
C510 C 0.72195 0.16139 0.31092 0.0
C511 C 0.71677 0.17029 0.2485 0.0
C512 C 0.76314 0.20581 0.35089 0.0
C513 C 0.75561 0.16005 0.40473 0.0
N514 N 0.73053 0.18088 0.28176 0.0
N515 N 0.73712 0.1515 0.37307 0.0
H516 H 0.47628 0.71366 0.33437 0.0
H517 H 0.52587 0.5508 0.40853 0.0
H518 H 0.46217 0.62173 0.27355 0.0
H519 H 0.52208 0.63371 0.479 0.0
H520 H 0.50335 0.57765 0.35933 0.0
H521 H 0.49272 0.68643 0.38762 0.0
C522 C 0.47579 0.68759 0.33235 0.0
C523 C 0.46706 0.66997 0.29927 0.0
C524 C 0.50725 0.59009 0.3855 0.0
C525 C 0.48719 0.63868 0.36018 0.0
C526 C 0.52029 0.57469 0.41385 0.0
C527 C 0.52612 0.58977 0.44843 0.0
C528 C 0.50006 0.62136 0.39101 0.0
C529 C 0.51807 0.62089 0.45304 0.0
C530 C 0.48551 0.67208 0.36276 0.0
C531 C 0.46804 0.63639 0.29834 0.0
N532 N 0.50577 0.63565 0.42479 0.0
N533 N 0.47803 0.62212 0.32793 0.0
H534 H 0.17594 0.44742 0.77624 0.0
H535 H 0.06931 0.44638 0.96507 0.0
H536 H 0.13243 0.35581 0.83158 0.0
H537 H 0.1437 0.53349 0.92058 0.0
H538 H 0.08608 0.41217 0.9156 0.0
H539 H 0.15798 0.47799 0.82663 0.0
C540 C 0.16296 0.43344 0.79905 0.0
C541 C 0.1569 0.39852 0.79928 0.0
C542 C 0.09879 0.43875 0.91674 0.0
C543 C 0.13462 0.43447 0.85811 0.0
C544 C 0.08921 0.45839 0.94506 0.0
C545 C 0.10503 0.49314 0.94736 0.0
C546 C 0.12404 0.45387 0.8899 0.0
C547 C 0.13065 0.50698 0.92033 0.0
C548 C 0.15237 0.45121 0.82802 0.0
C549 C 0.13809 0.38252 0.82966 0.0
N550 N 0.139 0.48754 0.89297 0.0
N551 N 0.12778 0.40049 0.85765 0.0
H552 H 0.64672 0.82424 0.91974 0.0
H553 H 0.55792 0.94902 0.95665 0.0
H554 H 0.74921 0.90298 0.92455 0.0
H555 H 0.66681 1.00717 0.99218 0.0
H556 H 0.58632 0.90737 0.93066 0.0
H557 H 0.61207 0.86492 0.93471 0.0
C558 C 0.66188 0.85016 0.92357 0.0
C559 C 0.70093 0.86017 0.9207 0.0
C560 C 0.60406 0.92899 0.9444 0.0
C561 C 0.66137 0.90732 0.93689 0.0
C562 C 0.58787 0.95309 0.95888 0.0
C563 C 0.60995 0.98143 0.97713 0.0
C564 C 0.64263 0.93315 0.94845 0.0
C565 C 0.64863 0.98559 0.97867 0.0
C566 C 0.642 0.87358 0.93162 0.0
C567 C 0.7191 0.89413 0.92585 0.0
N568 N 0.66366 0.9616 0.96477 0.0
N569 N 0.69922 0.91636 0.93393 0.0
H570 H 0.81878 0.11674 0.48607 0.0
H571 H 0.97146 0.09114 0.61989 0.0
H572 H 0.90911 0.19914 0.52442 0.0
H573 H 0.94141 1.0258 0.52656 0.0
H574 H 0.93411 0.12634 0.59655 0.0
H575 H 0.85106 0.07827 0.51086 0.0
C576 C 0.84534 0.12687 0.49945 0.0
C577 C 0.86105 0.16145 0.50319 0.0
C578 C 0.9354 0.10402 0.58153 0.0
C579 C 0.89688 0.11751 0.53277 0.0
C580 C 0.95634 0.08388 0.59488 0.0
C581 C 0.95928 0.05568 0.575 0.0
C582 C 0.91673 0.09533 0.54862 0.0
C583 C 0.93967 0.04746 0.54252 0.0
C584 C 0.86346 0.10485 0.5138 0.0
C585 C 0.89523 0.17287 0.5216 0.0
N586 N 0.91897 0.06723 0.53027 0.0
N587 N 0.91181 0.15096 0.53599 0.0
H588 H 0.3159 0.65653 0.21319 0.0
H589 H 0.18313 0.63156 0.04054 0.0
H590 H 0.35162 0.70768 0.11479 0.0
H591 H 0.17284 0.55525 0.11838 0.0
H592 H 0.24112 0.66351 0.07021 0.0
H593 H 0.26035 0.62286 0.18197 0.0
C594 C 0.31261 0.66077 0.18506 0.0
C595 C 0.33942 0.68558 0.1671 0.0
C596 C 0.22625 0.63971 0.08072 0.0
C597 C 0.27402 0.64706 0.13111 0.0
C598 C 0.19302 0.62141 0.06378 0.0
C599 C 0.1728 0.59044 0.07674 0.0
C600 C 0.23928 0.62751 0.11151 0.0
C601 C 0.18733 0.57882 0.10714 0.0
C602 C 0.28042 0.64148 0.16726 0.0
C603 C 0.332 0.68977 0.13059 0.0
N604 N 0.21926 0.5974 0.12358 0.0
N605 N 0.30018 0.67106 0.1141 0.0
H606 H 0.28658 0.39939 0.63577 0.0
H607 H 0.49778 0.51519 0.62641 0.0
H608 H 0.35079 0.44474 0.72868 0.0
H609 H 0.4317 0.47679 0.5322 0.0
H610 H 0.44345 0.49116 0.66396 0.0
H611 H 0.338 0.42894 0.59712 0.0
C612 C 0.31119 0.41604 0.64799 0.0
C613 C 0.31399 0.41998 0.68555 0.0
C614 C 0.44067 0.4881 0.63507 0.0
C615 C 0.37361 0.45335 0.64148 0.0
C616 C 0.47177 0.5019 0.61357 0.0
C617 C 0.46948 0.498 0.576 0.0
C618 C 0.40679 0.47 0.61908 0.0
C619 C 0.43489 0.48045 0.56101 0.0
C620 C 0.34069 0.43277 0.62594 0.0
C621 C 0.34705 0.44127 0.6999 0.0
N622 N 0.40511 0.46699 0.5825 0.0
N623 N 0.37542 0.45696 0.67799 0.0
H624 H 0.76392 0.71258 0.87887 0.0
H625 H 0.89116 0.64327 1.0129 0.0
H626 H 0.73975 0.69702 0.99116 0.0
H627 H 0.91211 0.65205 0.89909 0.0
H628 H 0.83457 0.66127 1.00488 0.0
H629 H 0.8172 0.68884 0.88497 0.0
C630 C 0.76955 0.70359 0.90465 0.0
C631 C 0.74723 0.70619 0.93447 0.0
C632 C 0.85143 0.65914 0.9816 0.0
C633 C 0.80838 0.67974 0.94192 0.0
C634 C 0.88371 0.64867 0.98613 0.0
C635 C 0.90652 0.64606 0.95662 0.0
C636 C 0.84178 0.66725 0.94731 0.0
C637 C 0.8957 0.65409 0.9227 0.0
C638 C 0.80001 0.69023 0.9082 0.0
C639 C 0.75607 0.69494 0.96748 0.0
N640 N 0.86416 0.66438 0.91899 0.0
N641 N 0.78601 0.68229 0.97036 0.0
H642 H 0.49896 0.79295 0.18644 0.0
H643 H 0.47091 0.96148 0.10243 0.0
H644 H 0.39027 0.80743 0.16654 0.0
H645 H 0.57678 0.93811 0.10903 0.0
H646 H 0.44066 0.90727 0.12887 0.0
H647 H 0.5276 0.84782 0.1621 0.0
C648 C 0.48097 0.80763 0.17729 0.0
C649 C 0.44187 0.79491 0.17867 0.0
C650 C 0.47053 0.91406 0.12458 0.0
C651 C 0.47498 0.85867 0.15013 0.0
C652 C 0.48785 0.94512 0.1095 0.0
C653 C 0.52662 0.95472 0.10341 0.0
C654 C 0.49205 0.8923 0.13401 0.0
C655 C 0.5469 0.93211 0.11312 0.0
C656 C 0.49745 0.83908 0.16306 0.0
C657 C 0.42044 0.81554 0.16572 0.0
N658 N 0.52956 0.90236 0.12785 0.0
N659 N 0.43714 0.84611 0.15218 0.0
H660 H 0.14402 0.31568 0.65578 0.0
H661 H 0.10063 0.11698 0.67436 0.0
H662 H 0.14615 0.27053 0.75783 0.0
H663 H 0.07886 0.16366 0.57822 0.0
H664 H 0.11878 0.17198 0.70512 0.0
H665 H 0.12111 0.26029 0.62737 0.0
C666 C 0.13924 0.29409 0.6724 0.0
C667 C 0.14698 0.29817 0.7095 0.0
C668 C 0.10998 0.17023 0.67732 0.0
C669 C 0.12112 0.23361 0.67649 0.0
C670 C 0.09969 0.13869 0.65956 0.0
C671 C 0.08813 0.1352 0.62331 0.0
C672 C 0.10921 0.19903 0.65886 0.0
C673 C 0.0875 0.16467 0.60601 0.0
C674 C 0.12619 0.26228 0.65603 0.0
C675 C 0.14025 0.26889 0.72933 0.0
N676 N 0.09797 0.195 0.62374 0.0
N677 N 0.12814 0.23805 0.71262 0.0
H678 H 0.73858 0.25035 0.56424 0.0
H679 H 0.66004 0.36427 0.43393 0.0
H680 H 0.80376 0.31464 0.48556 0.0
H681 H 0.60445 0.32607 0.5319 0.0
H682 H 0.7052 0.3326 0.44331 0.0
H683 H 0.68298 0.26649 0.54473 0.0
C684 C 0.74098 0.26749 0.54255 0.0
C685 C 0.77552 0.28095 0.52613 0.0
C686 C 0.6828 0.33074 0.4625 0.0
C687 C 0.71259 0.29935 0.50382 0.0
C688 C 0.65665 0.34851 0.45695 0.0
C689 C 0.62864 0.34818 0.48245 0.0
C690 C 0.68111 0.31263 0.49383 0.0
C691 C 0.62609 0.32756 0.51198 0.0
C692 C 0.70939 0.27664 0.53146 0.0
C693 C 0.77749 0.30344 0.49856 0.0
N694 N 0.65238 0.31091 0.51717 0.0
N695 N 0.74643 0.3119 0.48823 0.0
loop_
_geom_bond_atom_site_label_1
_geom_bond_atom_site_label_2
_geom_bond_distance
_geom_bond_site_symmetry_2
_ccdc_geom_bond_type
H0 C7 0.929 . S
H1 C10 0.930 . S
H2 C12 0.929 . S
H3 C4 0.969 . S
C4 H3 0.969 . S
C4 O5 1.550 . S
C4 H6 0.973 . S
O5 C4 1.550 . S
O5 C11 1.412 . S
H6 C4 0.973 . S
C7 H0 0.929 . S
C7 C8 1.400 . S
C7 C9 1.364 . S
C8 C7 1.400 . S
C8 C12 1.377 . S
C9 C7 1.364 . S
C9 C10 1.374 . S
C10 H1 0.930 . S
C10 C9 1.374 . S
C10 C11 1.383 . S
C11 O5 1.412 . S
C11 C10 1.383 . S
C11 C12 1.394 . S
C12 H2 0.929 . S
C12 C8 1.377 . S
C12 C11 1.394 . S
H13 C20 0.929 . S
H14 C23 0.930 . S
H15 C25 0.929 . S
H16 C17 0.969 . S
C17 H16 0.969 . S
C17 O18 1.550 . S
C17 H19 0.973 . S
O18 C17 1.550 . S
O18 C24 1.412 . S
H19 C17 0.973 . S
C20 H13 0.929 . S
C20 C21 1.400 . S
C20 C22 1.364 . S
C21 C20 1.400 . S
C21 C25 1.377 . S
C22 C20 1.364 . S
C22 C23 1.374 . S
C23 H14 0.930 . S
C23 C22 1.374 . S
C23 C24 1.383 . S
C24 O18 1.412 . S
C24 C23 1.383 . S
C24 C25 1.394 . S
C25 H15 0.929 . S
C25 C21 1.377 . S
C25 C24 1.394 . S
H26 C33 0.929 . S
H27 C36 0.930 . S
H28 C38 0.929 . S
H29 C30 0.969 . S
C30 H29 0.969 . S
C30 O31 1.550 . S
C30 H32 0.973 . S
O31 C30 1.550 . S
O31 C37 1.412 . S
H32 C30 0.973 . S
C33 H26 0.929 . S
C33 C34 1.400 . S
C33 C35 1.364 . S
C34 C33 1.400 . S
C34 C38 1.377 . S
C35 C33 1.364 . S
C35 C36 1.374 . S
C36 H27 0.930 . S
C36 C35 1.374 . S
C36 C37 1.383 . S
C37 O31 1.412 . S
C37 C36 1.383 . S
C37 C38 1.394 . S
C38 H28 0.929 . S
C38 C34 1.377 . S
C38 C37 1.394 . S
H39 C46 0.929 . S
H40 C49 0.930 . S
H41 C51 0.929 . S
H42 C43 0.969 . S
C43 H42 0.969 . S
C43 O44 1.550 . S
C43 H45 0.973 . S
O44 C43 1.550 . S
O44 C50 1.412 . S
H45 C43 0.973 . S
C46 H39 0.929 . S
C46 C47 1.400 . S
C46 C48 1.364 . S
C47 C46 1.400 . S
C47 C51 1.377 . S
C48 C46 1.364 . S
C48 C49 1.374 . S
C49 H40 0.930 . S
C49 C48 1.374 . S
C49 C50 1.383 . S
C50 O44 1.412 . S
C50 C49 1.383 . S
C50 C51 1.394 . S
C51 H41 0.929 . S
C51 C47 1.377 . S
C51 C50 1.394 . S
H52 C59 0.929 . S
H53 C62 0.930 . S
H54 C64 0.929 . S
H55 C56 0.969 . S
C56 H55 0.969 . S
C56 O57 1.550 . S
C56 H58 0.973 . S
O57 C56 1.550 . S
O57 C63 1.412 . S
H58 C56 0.973 . S
C59 H52 0.929 . S
C59 C60 1.400 . S
C59 C61 1.364 . S
C60 C59 1.400 . S
C60 C64 1.377 . S
C61 C59 1.364 . S
C61 C62 1.374 . S
C62 H53 0.930 . S
C62 C61 1.374 . S
C62 C63 1.383 . S
C63 O57 1.412 . S
C63 C62 1.383 . S
C63 C64 1.394 . S
C64 H54 0.929 . S
C64 C60 1.377 . S
C64 C63 1.394 . S
H65 C72 0.929 . S
H66 C75 0.930 . S
H67 C77 0.929 . S
H68 C69 0.969 . S
C69 H68 0.969 . S
C69 O70 1.550 . S
C69 H71 0.973 . S
O70 C69 1.550 . S
O70 C76 1.412 . S
H71 C69 0.973 . S
C72 H65 0.929 . S
C72 C73 1.400 . S
C72 C74 1.364 . S
C73 C72 1.400 . S
C73 C77 1.377 . S
C74 C72 1.364 . S
C74 C75 1.374 . S
C75 H66 0.930 . S
C75 C74 1.374 . S
C75 C76 1.383 . S
C76 O70 1.412 . S
C76 C75 1.383 . S
C76 C77 1.394 . S
C77 H67 0.929 . S
C77 C73 1.377 . S
C77 C76 1.394 . S
H78 C85 0.929 . S
H79 C88 0.930 . S
H80 C90 0.929 . S
H81 C82 0.969 . S
C82 H81 0.969 . S
C82 O83 1.550 . S
C82 H84 0.973 . S
O83 C82 1.550 . S
O83 C89 1.412 . S
H84 C82 0.973 . S
C85 H78 0.929 . S
C85 C86 1.400 . S
C85 C87 1.364 . S
C86 C85 1.400 . S
C86 C90 1.377 . S
C87 C85 1.364 . S
C87 C88 1.374 . S
C88 H79 0.930 . S
C88 C87 1.374 . S
C88 C89 1.383 . S
C89 O83 1.412 . S
C89 C88 1.383 . S
C89 C90 1.394 . S
C90 H80 0.929 . S
C90 C86 1.377 . S
C90 C89 1.394 . S
H91 C98 0.929 . S
H92 C101 0.930 . S
H93 C103 0.929 . S
H94 C95 0.969 . S
C95 H94 0.969 . S
C95 O96 1.550 . S
C95 H97 0.973 . S
O96 C95 1.550 . S
O96 C102 1.412 . S
H97 C95 0.973 . S
C98 H91 0.929 . S
C98 C99 1.400 . S
C98 C100 1.364 . S
C99 C98 1.400 . S
C99 C103 1.377 . S
C100 C98 1.364 . S
C100 C101 1.374 . S
C101 H92 0.930 . S
C101 C100 1.374 . S
C101 C102 1.383 . S
C102 O96 1.412 . S
C102 C101 1.383 . S
C102 C103 1.394 . S
C103 H93 0.929 . S
C103 C99 1.377 . S
C103 C102 1.394 . S
Sm104 C106 2.846 . S
Sm104 O124 2.543 . S
Sm104 O125 2.450 . S
Sm104 O126 2.681 1_545 S
Sm104 O127 2.464 . S
Sm104 O128 2.396 . S
Sm104 O132 2.386 . S
Sm104 O135 2.408 1_545 S
Sm105 C115 2.846 1_545 S
Sm105 O126 2.386 1_645 S
Sm105 O129 2.408 1_655 S
Sm105 O130 2.543 1_545 S
Sm105 O131 2.450 1_545 S
Sm105 O132 2.681 1_655 S
Sm105 O133 2.464 . S
Sm105 O134 2.396 1_545 S
C106 Sm104 2.846 . S
C106 C107 1.506 . S
C106 O124 1.261 . S
C106 O125 1.242 . S
C107 C106 1.506 . S
C107 C108 1.358 . S
C107 C112 1.382 . S
C108 C107 1.358 . S
C108 C109 1.385 . S
C108 H136 0.930 . S
C109 C108 1.385 . S
C109 C110 1.395 . S
C109 H137 0.929 . S
C110 C109 1.395 . S
C110 C111 1.335 . S
C111 C110 1.335 . S
C111 C112 1.398 . S
C111 H138 0.930 . S
C112 C107 1.382 . S
C112 C111 1.398 . S
C112 H139 0.929 . S
C113 O126 1.271 . S
C113 O127 1.251 1_565 S
C114 O128 1.252 . S
C114 O129 1.272 . S
C115 Sm105 2.846 1_565 S
C115 C116 1.506 . S
C115 O130 1.261 . S
C115 O131 1.242 . S
C116 C115 1.506 . S
C116 C117 1.358 . S
C116 C121 1.382 . S
C117 C116 1.358 . S
C117 C118 1.385 . S
C117 H140 0.930 . S
C118 C117 1.385 . S
C118 C119 1.395 . S
C118 H141 0.929 . S
C119 C118 1.395 . S
C119 C120 1.335 . S
C120 C119 1.335 . S
C120 C121 1.398 . S
C120 H142 0.930 . S
C121 C116 1.382 . S
C121 C120 1.398 . S
C121 H143 0.929 . S
C122 O132 1.271 1_655 S
C122 O133 1.251 . S
C123 O134 1.252 . S
C123 O135 1.272 1_655 S
O124 Sm104 2.543 . S
O124 C106 1.261 . S
O125 Sm104 2.450 . S
O125 C106 1.242 . S
O126 Sm104 2.681 1_565 S
O126 Sm105 2.386 1_465 S
O126 C113 1.271 . S
O127 Sm104 2.464 . S
O127 C113 1.251 1_545 S
O128 Sm104 2.396 . S
O128 C114 1.252 . S
O129 Sm105 2.408 1_455 S
O129 C114 1.272 . S
O130 Sm105 2.543 1_565 S
O130 C115 1.261 . S
O131 Sm105 2.450 1_565 S
O131 C115 1.242 . S
O132 Sm104 2.386 . S
O132 Sm105 2.681 1_455 S
O132 C122 1.271 1_455 S
O133 Sm105 2.464 . S
O133 C122 1.251 . S
O134 Sm105 2.396 1_565 S
O134 C123 1.252 . S
O135 Sm104 2.408 1_565 S
O135 C123 1.272 1_455 S
H136 C108 0.930 . S
H137 C109 0.929 . S
H138 C111 0.930 . S
H139 C112 0.929 . S
H140 C117 0.930 . S
H141 C118 0.929 . S
H142 C120 0.930 . S
H143 C121 0.929 . S
Sm144 C146 2.846 . S
Sm144 O164 2.543 . S
Sm144 O165 2.450 . S
Sm144 O166 2.681 1_545 S
Sm144 O167 2.464 1_545 S
Sm144 O168 2.396 . S
Sm144 O172 2.388 . S
Sm144 O175 2.408 1_544 S
Sm145 C155 2.846 1_545 S
Sm145 O166 2.386 1_546 S
Sm145 O169 2.408 1_556 S
Sm145 O170 2.543 1_545 S
Sm145 O171 2.450 1_545 S
Sm145 O172 2.681 1_556 S
Sm145 O173 2.464 . S
Sm145 O174 2.396 1_545 S
C146 Sm144 2.846 . S
C146 C147 1.506 . S
C146 O164 1.261 . S
C146 O165 1.242 . S
C147 C146 1.506 . S
C147 C148 1.358 . S
C147 C152 1.382 . S
C148 C147 1.358 . S
C148 C149 1.385 . S
C148 H176 0.930 . S
C149 C148 1.385 . S
C149 C150 1.395 . S
C149 H177 0.929 . S
C150 C149 1.395 . S
C150 C151 1.335 . S
C151 C150 1.335 . S
C151 C152 1.398 . S
C151 H178 0.930 . S
C152 C147 1.382 . S
C152 C151 1.398 . S
C152 H179 0.929 . S
C153 O166 1.271 . S
C153 O167 1.251 . S
C154 O168 1.252 . S
C154 O169 1.272 . S
C155 Sm145 2.846 1_565 S
C155 C156 1.506 . S
C155 O170 1.261 . S
C155 O171 1.242 . S
C156 C155 1.506 . S
C156 C157 1.358 . S
C156 C161 1.382 . S
C157 C156 1.358 . S
C157 C158 1.385 . S
C157 H180 0.930 . S
C158 C157 1.385 . S
C158 C159 1.395 . S
C158 H181 0.929 . S
C159 C158 1.395 . S
C159 C160 1.335 . S
C160 C159 1.335 . S
C160 C161 1.398 . S
C160 H182 0.930 . S
C161 C156 1.382 . S
C161 C160 1.398 . S
C161 H183 0.929 . S
C162 O172 1.270 1_556 S
C162 O173 1.251 . S
C163 O174 1.252 . S
C163 O175 1.272 . S
O164 Sm144 2.543 . S
O164 C146 1.261 . S
O165 Sm144 2.450 . S
O165 C146 1.242 . S
O166 Sm144 2.681 1_565 S
O166 Sm145 2.386 1_564 S
O166 C153 1.271 . S
O167 Sm144 2.464 1_565 S
O167 C153 1.251 . S
O168 Sm144 2.396 . S
O168 C154 1.252 . S
O169 Sm145 2.408 1_554 S
O169 C154 1.272 . S
O170 Sm145 2.543 1_565 S
O170 C155 1.261 . S
O171 Sm145 2.450 1_565 S
O171 C155 1.242 . S
O172 Sm144 2.388 . S
O172 Sm145 2.681 1_554 S
O172 C162 1.270 1_554 S
O173 Sm145 2.464 . S
O173 C162 1.251 . S
O174 Sm145 2.396 1_565 S
O174 C163 1.252 . S
O175 Sm144 2.408 1_566 S
O175 C163 1.272 . S
H176 C148 0.930 . S
H177 C149 0.929 . S
H178 C151 0.930 . S
H179 C152 0.929 . S
H180 C157 0.930 . S
H181 C158 0.929 . S
H182 C160 0.930 . S
H183 C161 0.929 . S
Sm184 C186 2.846 . S
Sm184 O204 2.543 . S
Sm184 O205 2.450 . S
Sm184 O206 2.681 . S
Sm184 O207 2.464 . S
Sm184 O208 2.396 . S
Sm184 O212 2.386 . S
Sm184 O215 2.408 . S
Sm185 C195 2.846 . S
Sm185 O206 2.386 . S
Sm185 O209 2.408 . S
Sm185 O210 2.543 . S
Sm185 O211 2.450 . S
Sm185 O212 2.681 . S
Sm185 O213 2.464 . S
Sm185 O214 2.396 . S
C186 Sm184 2.846 . S
C186 C187 1.506 . S
C186 O204 1.261 . S
C186 O205 1.242 . S
C187 C186 1.506 . S
C187 C188 1.358 . S
C187 C192 1.382 . S
C188 C187 1.358 . S
C188 C189 1.385 . S
C188 H216 0.930 . S
C189 C188 1.385 . S
C189 C190 1.395 . S
C189 H217 0.929 . S
C190 C189 1.395 . S
C190 C191 1.335 . S
C191 C190 1.335 . S
C191 C192 1.398 . S
C191 H218 0.930 . S
C192 C187 1.382 . S
C192 C191 1.398 . S
C192 H219 0.929 . S
C193 O206 1.271 . S
C193 O207 1.251 . S
C194 O208 1.252 . S
C194 O209 1.272 . S
C195 Sm185 2.846 . S
C195 C196 1.506 . S
C195 O210 1.261 . S
C195 O211 1.242 . S
C196 C195 1.506 . S
C196 C197 1.358 . S
C196 C201 1.382 . S
C197 C196 1.358 . S
C197 C198 1.385 . S
C197 H220 0.930 . S
C198 C197 1.385 . S
C198 C199 1.395 . S
C198 H221 0.929 . S
C199 C198 1.395 . S
C199 C200 1.335 . S
C200 C199 1.335 . S
C200 C201 1.398 . S
C200 H222 0.930 . S
C201 C196 1.382 . S
C201 C200 1.398 . S
C201 H223 0.929 . S
C202 O212 1.271 . S
C202 O213 1.251 . S
C203 O214 1.252 . S
C203 O215 1.272 . S
O204 Sm184 2.543 . S
O204 C186 1.261 . S
O205 Sm184 2.450 . S
O205 C186 1.242 . S
O206 Sm184 2.681 . S
O206 Sm185 2.386 . S
O206 C193 1.271 . S
O207 Sm184 2.464 . S
O207 C193 1.251 . S
O208 Sm184 2.396 . S
O208 C194 1.252 . S
O209 Sm185 2.408 . S
O209 C194 1.272 . S
O210 Sm185 2.543 . S
O210 C195 1.261 . S
O211 Sm185 2.450 . S
O211 C195 1.242 . S
O212 Sm184 2.386 . S
O212 Sm185 2.681 . S
O212 C202 1.271 . S
O213 Sm185 2.464 . S
O213 C202 1.251 . S
O214 Sm185 2.396 . S
O214 C203 1.252 . S
O215 Sm184 2.408 . S
O215 C203 1.272 . S
H216 C188 0.930 . S
H217 C189 0.929 . S
H218 C191 0.930 . S
H219 C192 0.929 . S
H220 C197 0.930 . S
H221 C198 0.929 . S
H222 C200 0.930 . S
H223 C201 0.929 . S
Sm224 C226 2.846 . S
Sm224 O244 2.543 . S
Sm224 O245 2.450 . S
Sm224 O246 2.681 . S
Sm224 O247 2.464 . S
Sm224 O248 2.396 . S
Sm224 O252 2.386 . S
Sm224 O255 2.408 1_455 S
Sm225 C235 2.846 1_454 S
Sm225 O246 2.386 . S
Sm225 O249 2.408 . S
Sm225 O250 2.543 1_455 S
Sm225 O251 2.450 1_554 S
Sm225 O252 2.681 . S
Sm225 O253 2.464 1_554 S
Sm225 O254 2.396 1_454 S
C226 Sm224 2.846 . S
C226 C227 1.506 . S
C226 O244 1.261 . S
C226 O245 1.242 . S
C227 C226 1.506 . S
C227 C228 1.358 . S
C227 C232 1.382 . S
C228 C227 1.358 . S
C228 C229 1.385 . S
C228 H256 0.930 . S
C229 C228 1.385 . S
C229 C230 1.395 . S
C229 H257 0.929 . S
C230 C229 1.395 . S
C230 C231 1.335 . S
C231 C230 1.335 . S
C231 C232 1.398 . S
C231 H258 0.930 . S
C232 C227 1.382 . S
C232 C231 1.398 . S
C232 H259 0.929 . S
C233 O246 1.271 . S
C233 O247 1.251 . S
C234 O248 1.252 . S
C234 O249 1.272 . S
C235 Sm225 2.846 1_656 S
C235 C236 1.506 . S
C235 O250 1.261 1_556 S
C235 O251 1.242 1_655 S
C236 C235 1.506 . S
C236 C237 1.358 . S
C236 C241 1.382 . S
C237 C236 1.358 . S
C237 C238 1.385 . S
C237 H260 0.930 1_556 S
C238 C237 1.385 . S
C238 C239 1.395 . S
C238 H261 0.929 . S
C239 C238 1.395 . S
C239 C240 1.335 . S
C240 C239 1.335 . S
C240 C241 1.398 . S
C240 H262 0.930 . S
C241 C236 1.382 . S
C241 C240 1.398 . S
C241 H263 0.929 . S
C242 O252 1.271 1_556 S
C242 O253 1.251 . S
C243 O254 1.252 1_554 S
C243 O255 1.272 . S
O244 Sm224 2.543 . S
O244 C226 1.261 . S
O245 Sm224 2.450 . S
O245 C226 1.242 . S
O246 Sm224 2.681 . S
O246 Sm225 2.386 . S
O246 C233 1.271 . S
O247 Sm224 2.464 . S
O247 C233 1.251 . S
O248 Sm224 2.396 . S
O248 C234 1.252 . S
O249 Sm225 2.408 . S
O249 C234 1.272 . S
O250 Sm225 2.543 1_655 S
O250 C235 1.261 1_554 S
O251 Sm225 2.450 1_556 S
O251 C235 1.242 1_455 S
O252 Sm224 2.386 . S
O252 Sm225 2.681 . S
O252 C242 1.271 1_554 S
O253 Sm225 2.464 1_556 S
O253 C242 1.251 . S
O254 Sm225 2.396 1_656 S
O254 C243 1.252 1_556 S
O255 Sm224 2.408 1_655 S
O255 C243 1.272 . S
H256 C228 0.930 . S
H257 C229 0.929 . S
H258 C231 0.930 . S
H259 C232 0.929 . S
H260 C237 0.930 1_554 S
H261 C238 0.929 . S
H262 C240 0.930 . S
H263 C241 0.929 . S
H264 C270 0.930 . S
H265 C274 0.930 . S
H266 C279 0.929 . S
H267 C277 0.929 . S
H268 C272 0.929 . S
H269 C278 0.929 . S
C270 H264 0.930 . S
C270 C271 1.367 . S
C270 C278 1.378 . S
C271 C270 1.367 . S
C271 C279 1.433 . S
C272 H268 0.929 . S
C272 C274 1.378 . S
C272 C276 1.350 . S
C273 C276 1.463 . S
C273 C278 1.350 . S
C273 N281 1.427 . S
C274 H265 0.930 . S
C274 C272 1.378 . S
C274 C275 1.367 . S
C275 C274 1.367 . S
C275 C277 1.433 . S
C276 C272 1.350 . S
C276 C273 1.463 . S
C276 N280 1.427 . S
C277 H267 0.929 . S
C277 C275 1.433 . S
C277 N280 1.384 . S
C278 H269 0.929 . S
C278 C270 1.378 . S
C278 C273 1.350 . S
C279 H266 0.929 . S
C279 C271 1.433 . S
C279 N281 1.384 . S
N280 C276 1.427 . S
N280 C277 1.384 . S
N281 C273 1.427 . S
N281 C279 1.384 . S
H282 C288 0.930 . S
H283 C292 0.930 . S
H284 C297 0.929 . S
H285 C295 0.929 . S
H286 C290 0.929 . S
H287 C296 0.929 . S
C288 H282 0.930 . S
C288 C289 1.367 . S
C288 C296 1.378 . S
C289 C288 1.367 . S
C289 C297 1.433 . S
C290 H286 0.929 . S
C290 C292 1.378 . S
C290 C294 1.350 . S
C291 C294 1.463 . S
C291 C296 1.350 . S
C291 N299 1.427 . S
C292 H283 0.930 . S
C292 C290 1.378 . S
C292 C293 1.367 . S
C293 C292 1.367 . S
C293 C295 1.433 . S
C294 C290 1.350 . S
C294 C291 1.463 . S
C294 N298 1.427 . S
C295 H285 0.929 . S
C295 C293 1.433 . S
C295 N298 1.384 . S
C296 H287 0.929 . S
C296 C288 1.378 . S
C296 C291 1.350 . S
C297 H284 0.929 . S
C297 C289 1.433 . S
C297 N299 1.384 . S
N298 C294 1.427 . S
N298 C295 1.384 . S
N299 C291 1.427 . S
N299 C297 1.384 . S
H300 C306 0.930 . S
H301 C310 0.930 . S
H302 C315 0.929 . S
H303 C313 0.929 . S
H304 C308 0.929 . S
H305 C314 0.929 . S
C306 H300 0.930 . S
C306 C307 1.367 . S
C306 C314 1.378 . S
C307 C306 1.367 . S
C307 C315 1.433 . S
C308 H304 0.929 . S
C308 C310 1.378 . S
C308 C312 1.350 . S
C309 C312 1.463 . S
C309 C314 1.350 . S
C309 N317 1.427 . S
C310 H301 0.930 . S
C310 C308 1.378 . S
C310 C311 1.367 . S
C311 C310 1.367 . S
C311 C313 1.433 . S
C312 C308 1.350 . S
C312 C309 1.463 . S
C312 N316 1.427 . S
C313 H303 0.929 . S
C313 C311 1.433 . S
C313 N316 1.384 . S
C314 H305 0.929 . S
C314 C306 1.378 . S
C314 C309 1.350 . S
C315 H302 0.929 . S
C315 C307 1.433 . S
C315 N317 1.384 . S
N316 C312 1.427 . S
N316 C313 1.384 . S
N317 C309 1.427 . S
N317 C315 1.384 . S
H318 C324 0.930 . S
H319 C328 0.930 . S
H320 C333 0.929 . S
H321 C331 0.929 . S
H322 C326 0.929 . S
H323 C332 0.929 . S
C324 H318 0.930 . S
C324 C325 1.367 . S
C324 C332 1.378 . S
C325 C324 1.367 . S
C325 C333 1.433 . S
C326 H322 0.929 . S
C326 C328 1.378 . S
C326 C330 1.350 . S
C327 C330 1.463 . S
C327 C332 1.350 . S
C327 N335 1.427 . S
C328 H319 0.930 . S
C328 C326 1.378 . S
C328 C329 1.367 . S
C329 C328 1.367 . S
C329 C331 1.433 . S
C330 C326 1.350 . S
C330 C327 1.463 . S
C330 N334 1.427 . S
C331 H321 0.929 . S
C331 C329 1.433 . S
C331 N334 1.384 . S
C332 H323 0.929 . S
C332 C324 1.378 . S
C332 C327 1.350 . S
C333 H320 0.929 . S
C333 C325 1.433 . S
C333 N335 1.384 . S
N334 C330 1.427 . S
N334 C331 1.384 . S
N335 C327 1.427 . S
N335 C333 1.384 . S
H336 C342 0.930 . S
H337 C346 0.930 . S
H338 C351 0.929 . S
H339 C349 0.929 . S
H340 C344 0.929 . S
H341 C350 0.929 . S
C342 H336 0.930 . S
C342 C343 1.367 . S
C342 C350 1.378 . S
C343 C342 1.367 . S
C343 C351 1.433 . S
C344 H340 0.929 . S
C344 C346 1.378 . S
C344 C348 1.350 . S
C345 C348 1.463 . S
C345 C350 1.350 . S
C345 N353 1.427 . S
C346 H337 0.930 . S
C346 C344 1.378 . S
C346 C347 1.367 . S
C347 C346 1.367 . S
C347 C349 1.433 . S
C348 C344 1.350 . S
C348 C345 1.463 . S
C348 N352 1.427 . S
C349 H339 0.929 . S
C349 C347 1.433 . S
C349 N352 1.384 . S
C350 H341 0.929 . S
C350 C342 1.378 . S
C350 C345 1.350 . S
C351 H338 0.929 . S
C351 C343 1.433 . S
C351 N353 1.384 . S
N352 C348 1.427 . S
N352 C349 1.384 . S
N353 C345 1.427 . S
N353 C351 1.384 . S
H354 C360 0.930 . S
H355 C364 0.930 1_545 S
H356 C369 0.929 . S
H357 C367 0.929 . S
H358 C362 0.929 . S
H359 C368 0.929 . S
C360 H354 0.930 . S
C360 C361 1.367 . S
C360 C368 1.378 . S
C361 C360 1.367 . S
C361 C369 1.433 . S
C362 H358 0.929 . S
C362 C364 1.378 . S
C362 C366 1.350 . S
C363 C366 1.463 . S
C363 C368 1.350 . S
C363 N371 1.427 . S
C364 H355 0.930 1_565 S
C364 C362 1.378 . S
C364 C365 1.367 . S
C365 C364 1.367 . S
C365 C367 1.433 . S
C366 C362 1.350 . S
C366 C363 1.463 . S
C366 N370 1.427 . S
C367 H357 0.929 . S
C367 C365 1.433 . S
C367 N370 1.384 . S
C368 H359 0.929 . S
C368 C360 1.378 . S
C368 C363 1.350 . S
C369 H356 0.929 . S
C369 C361 1.433 . S
C369 N371 1.384 . S
N370 C366 1.427 . S
N370 C367 1.384 . S
N371 C363 1.427 . S
N371 C369 1.384 . S
H372 C378 0.930 . S
H373 C382 0.930 . S
H374 C387 0.929 . S
H375 C385 0.929 1_554 S
H376 C380 0.929 . S
H377 C386 0.929 . S
C378 H372 0.930 . S
C378 C379 1.367 . S
C378 C386 1.378 . S
C379 C378 1.367 . S
C379 C387 1.433 . S
C380 H376 0.929 . S
C380 C382 1.378 . S
C380 C384 1.350 . S
C381 C384 1.463 . S
C381 C386 1.350 . S
C381 N389 1.427 . S
C382 H373 0.930 . S
C382 C380 1.378 . S
C382 C383 1.367 . S
C383 C382 1.367 . S
C383 C385 1.433 . S
C384 C380 1.350 . S
C384 C381 1.463 . S
C384 N388 1.427 . S
C385 H375 0.929 1_556 S
C385 C383 1.433 . S
C385 N388 1.384 . S
C386 H377 0.929 . S
C386 C378 1.378 . S
C386 C381 1.350 . S
C387 H374 0.929 . S
C387 C379 1.433 . S
C387 N389 1.384 . S
N388 C384 1.427 . S
N388 C385 1.384 . S
N389 C381 1.427 . S
N389 C387 1.384 . S
H390 C396 0.930 . S
H391 C400 0.930 . S
H392 C405 0.929 . S
H393 C403 0.929 . S
H394 C398 0.929 . S
H395 C404 0.929 . S
C396 H390 0.930 . S
C396 C397 1.367 . S
C396 C404 1.378 . S
C397 C396 1.367 . S
C397 C405 1.433 . S
C398 H394 0.929 . S
C398 C400 1.378 . S
C398 C402 1.350 . S
C399 C402 1.463 . S
C399 C404 1.350 . S
C399 N407 1.427 . S
C400 H391 0.930 . S
C400 C398 1.378 . S
C400 C401 1.367 . S
C401 C400 1.367 . S
C401 C403 1.433 . S
C402 C398 1.350 . S
C402 C399 1.463 . S
C402 N406 1.427 . S
C403 H393 0.929 . S
C403 C401 1.433 . S
C403 N406 1.384 . S
C404 H395 0.929 . S
C404 C396 1.378 . S
C404 C399 1.350 . S
C405 H392 0.929 . S
C405 C397 1.433 . S
C405 N407 1.384 . S
N406 C402 1.427 . S
N406 C403 1.384 . S
N407 C399 1.427 . S
N407 C405 1.384 . S
H408 C414 0.930 . S
H409 C418 0.930 . S
H410 C423 0.929 . S
H411 C421 0.929 . S
H412 C416 0.929 . S
H413 C422 0.929 . S
C414 H408 0.930 . S
C414 C415 1.367 . S
C414 C422 1.378 . S
C415 C414 1.367 . S
C415 C423 1.433 . S
C416 H412 0.929 . S
C416 C418 1.378 . S
C416 C420 1.350 . S
C417 C420 1.463 . S
C417 C422 1.350 . S
C417 N425 1.427 . S
C418 H409 0.930 . S
C418 C416 1.378 . S
C418 C419 1.367 . S
C419 C418 1.367 . S
C419 C421 1.433 . S
C420 C416 1.350 . S
C420 C417 1.463 . S
C420 N424 1.427 . S
C421 H411 0.929 . S
C421 C419 1.433 . S
C421 N424 1.384 . S
C422 H413 0.929 . S
C422 C414 1.378 . S
C422 C417 1.350 . S
C423 H410 0.929 . S
C423 C415 1.433 . S
C423 N425 1.384 . S
N424 C420 1.427 . S
N424 C421 1.384 . S
N425 C417 1.427 . S
N425 C423 1.384 . S
H426 C432 0.930 . S
H427 C436 0.930 . S
H428 C441 0.929 . S
H429 C439 0.929 . S
H430 C434 0.929 . S
H431 C440 0.929 . S
C432 H426 0.930 . S
C432 C433 1.367 . S
C432 C440 1.378 . S
C433 C432 1.367 . S
C433 C441 1.433 . S
C434 H430 0.929 . S
C434 C436 1.378 . S
C434 C438 1.350 . S
C435 C438 1.463 . S
C435 C440 1.350 . S
C435 N443 1.427 . S
C436 H427 0.930 . S
C436 C434 1.378 . S
C436 C437 1.367 . S
C437 C436 1.367 . S
C437 C439 1.433 . S
C438 C434 1.350 . S
C438 C435 1.463 . S
C438 N442 1.427 . S
C439 H429 0.929 . S
C439 C437 1.433 . S
C439 N442 1.384 . S
C440 H431 0.929 . S
C440 C432 1.378 . S
C440 C435 1.350 . S
C441 H428 0.929 . S
C441 C433 1.433 . S
C441 N443 1.384 . S
N442 C438 1.427 . S
N442 C439 1.384 . S
N443 C435 1.427 . S
N443 C441 1.384 . S
H444 C450 0.930 . S
H445 C454 0.930 . S
H446 C459 0.929 . S
H447 C457 0.929 1_455 S
H448 C452 0.929 . S
H449 C458 0.929 . S
C450 H444 0.930 . S
C450 C451 1.367 . S
C450 C458 1.378 . S
C451 C450 1.367 . S
C451 C459 1.433 . S
C452 H448 0.929 . S
C452 C454 1.378 . S
C452 C456 1.350 . S
C453 C456 1.463 . S
C453 C458 1.350 . S
C453 N461 1.427 . S
C454 H445 0.930 . S
C454 C452 1.378 . S
C454 C455 1.367 . S
C455 C454 1.367 . S
C455 C457 1.433 . S
C456 C452 1.350 . S
C456 C453 1.463 . S
C456 N460 1.427 . S
C457 H447 0.929 1_655 S
C457 C455 1.433 . S
C457 N460 1.384 . S
C458 H449 0.929 . S
C458 C450 1.378 . S
C458 C453 1.350 . S
C459 H446 0.929 . S
C459 C451 1.433 . S
C459 N461 1.384 . S
N460 C456 1.427 . S
N460 C457 1.384 . S
N461 C453 1.427 . S
N461 C459 1.384 . S
H462 C468 0.930 . S
H463 C472 0.930 . S
H464 C477 0.929 . S
H465 C475 0.929 . S
H466 C470 0.929 . S
H467 C476 0.929 . S
C468 H462 0.930 . S
C468 C469 1.367 . S
C468 C476 1.378 . S
C469 C468 1.367 . S
C469 C477 1.433 . S
C470 H466 0.929 . S
C470 C472 1.378 . S
C470 C474 1.350 . S
C471 C474 1.463 . S
C471 C476 1.350 . S
C471 N479 1.427 . S
C472 H463 0.930 . S
C472 C470 1.378 . S
C472 C473 1.367 . S
C473 C472 1.367 . S
C473 C475 1.433 . S
C474 C470 1.350 . S
C474 C471 1.463 . S
C474 N478 1.427 . S
C475 H465 0.929 . S
C475 C473 1.433 . S
C475 N478 1.384 . S
C476 H467 0.929 . S
C476 C468 1.378 . S
C476 C471 1.350 . S
C477 H464 0.929 . S
C477 C469 1.433 . S
C477 N479 1.384 . S
N478 C474 1.427 . S
N478 C475 1.384 . S
N479 C471 1.427 . S
N479 C477 1.384 . S
H480 C486 0.930 . S
H481 C490 0.930 . S
H482 C495 0.929 . S
H483 C493 0.929 . S
H484 C488 0.929 . S
H485 C494 0.929 . S
C486 H480 0.930 . S
C486 C487 1.367 . S
C486 C494 1.378 . S
C487 C486 1.367 . S
C487 C495 1.433 . S
C488 H484 0.929 . S
C488 C490 1.378 . S
C488 C492 1.350 . S
C489 C492 1.463 . S
C489 C494 1.350 . S
C489 N497 1.427 . S
C490 H481 0.930 . S
C490 C488 1.378 . S
C490 C491 1.367 . S
C491 C490 1.367 . S
C491 C493 1.433 . S
C492 C488 1.350 . S
C492 C489 1.463 . S
C492 N496 1.427 . S
C493 H483 0.929 . S
C493 C491 1.433 . S
C493 N496 1.384 . S
C494 H485 0.929 . S
C494 C486 1.378 . S
C494 C489 1.350 . S
C495 H482 0.929 . S
C495 C487 1.433 . S
C495 N497 1.384 . S
N496 C492 1.427 . S
N496 C493 1.384 . S
N497 C489 1.427 . S
N497 C495 1.384 . S
H498 C504 0.930 . S
H499 C508 0.930 . S
H500 C513 0.929 . S
H501 C511 0.929 . S
H502 C506 0.929 . S
H503 C512 0.929 . S
C504 H498 0.930 . S
C504 C505 1.367 . S
C504 C512 1.378 . S
C505 C504 1.367 . S
C505 C513 1.433 . S
C506 H502 0.929 . S
C506 C508 1.378 . S
C506 C510 1.350 . S
C507 C510 1.463 . S
C507 C512 1.350 . S
C507 N515 1.427 . S
C508 H499 0.930 . S
C508 C506 1.378 . S
C508 C509 1.367 . S
C509 C508 1.367 . S
C509 C511 1.433 . S
C510 C506 1.350 . S
C510 C507 1.463 . S
C510 N514 1.427 . S
C511 H501 0.929 . S
C511 C509 1.433 . S
C511 N514 1.384 . S
C512 H503 0.929 . S
C512 C504 1.378 . S
C512 C507 1.350 . S
C513 H500 0.929 . S
C513 C505 1.433 . S
C513 N515 1.384 . S
N514 C510 1.427 . S
N514 C511 1.384 . S
N515 C507 1.427 . S
N515 C513 1.384 . S
H516 C522 0.930 . S
H517 C526 0.930 . S
H518 C531 0.929 . S
H519 C529 0.929 . S
H520 C524 0.929 . S
H521 C530 0.929 . S
C522 H516 0.930 . S
C522 C523 1.367 . S
C522 C530 1.378 . S
C523 C522 1.367 . S
C523 C531 1.433 . S
C524 H520 0.929 . S
C524 C526 1.378 . S
C524 C528 1.350 . S
C525 C528 1.463 . S
C525 C530 1.350 . S
C525 N533 1.427 . S
C526 H517 0.930 . S
C526 C524 1.378 . S
C526 C527 1.367 . S
C527 C526 1.367 . S
C527 C529 1.433 . S
C528 C524 1.350 . S
C528 C525 1.463 . S
C528 N532 1.427 . S
C529 H519 0.929 . S
C529 C527 1.433 . S
C529 N532 1.384 . S
C530 H521 0.929 . S
C530 C522 1.378 . S
C530 C525 1.350 . S
C531 H518 0.929 . S
C531 C523 1.433 . S
C531 N533 1.384 . S
N532 C528 1.427 . S
N532 C529 1.384 . S
N533 C525 1.427 . S
N533 C531 1.384 . S
H534 C540 0.930 . S
H535 C544 0.930 . S
H536 C549 0.929 . S
H537 C547 0.929 . S
H538 C542 0.929 . S
H539 C548 0.929 . S
C540 H534 0.930 . S
C540 C541 1.367 . S
C540 C548 1.378 . S
C541 C540 1.367 . S
C541 C549 1.433 . S
C542 H538 0.929 . S
C542 C544 1.378 . S
C542 C546 1.350 . S
C543 C546 1.463 . S
C543 C548 1.350 . S
C543 N551 1.427 . S
C544 H535 0.930 . S
C544 C542 1.378 . S
C544 C545 1.367 . S
C545 C544 1.367 . S
C545 C547 1.433 . S
C546 C542 1.350 . S
C546 C543 1.463 . S
C546 N550 1.427 . S
C547 H537 0.929 . S
C547 C545 1.433 . S
C547 N550 1.384 . S
C548 H539 0.929 . S
C548 C540 1.378 . S
C548 C543 1.350 . S
C549 H536 0.929 . S
C549 C541 1.433 . S
C549 N551 1.384 . S
N550 C546 1.427 . S
N550 C547 1.384 . S
N551 C543 1.427 . S
N551 C549 1.384 . S
H552 C558 0.930 . S
H553 C562 0.930 . S
H554 C567 0.929 . S
H555 C565 0.929 . S
H556 C560 0.929 . S
H557 C566 0.929 . S
C558 H552 0.930 . S
C558 C559 1.367 . S
C558 C566 1.378 . S
C559 C558 1.367 . S
C559 C567 1.433 . S
C560 H556 0.929 . S
C560 C562 1.378 . S
C560 C564 1.350 . S
C561 C564 1.463 . S
C561 C566 1.350 . S
C561 N569 1.427 . S
C562 H553 0.930 . S
C562 C560 1.378 . S
C562 C563 1.367 . S
C563 C562 1.367 . S
C563 C565 1.433 . S
C564 C560 1.350 . S
C564 C561 1.463 . S
C564 N568 1.427 . S
C565 H555 0.929 . S
C565 C563 1.433 . S
C565 N568 1.384 . S
C566 H557 0.929 . S
C566 C558 1.378 . S
C566 C561 1.350 . S
C567 H554 0.929 . S
C567 C559 1.433 . S
C567 N569 1.384 . S
N568 C564 1.427 . S
N568 C565 1.384 . S
N569 C561 1.427 . S
N569 C567 1.384 . S
H570 C576 0.930 . S
H571 C580 0.930 . S
H572 C585 0.929 . S
H573 C583 0.929 . S
H574 C578 0.929 . S
H575 C584 0.929 . S
C576 H570 0.930 . S
C576 C577 1.367 . S
C576 C584 1.378 . S
C577 C576 1.367 . S
C577 C585 1.433 . S
C578 H574 0.929 . S
C578 C580 1.378 . S
C578 C582 1.350 . S
C579 C582 1.463 . S
C579 C584 1.350 . S
C579 N587 1.427 . S
C580 H571 0.930 . S
C580 C578 1.378 . S
C580 C581 1.367 . S
C581 C580 1.367 . S
C581 C583 1.433 . S
C582 C578 1.350 . S
C582 C579 1.463 . S
C582 N586 1.427 . S
C583 H573 0.929 . S
C583 C581 1.433 . S
C583 N586 1.384 . S
C584 H575 0.929 . S
C584 C576 1.378 . S
C584 C579 1.350 . S
C585 H572 0.929 . S
C585 C577 1.433 . S
C585 N587 1.384 . S
N586 C582 1.427 . S
N586 C583 1.384 . S
N587 C579 1.427 . S
N587 C585 1.384 . S
H588 C594 0.930 . S
H589 C598 0.930 . S
H590 C603 0.929 . S
H591 C601 0.929 . S
H592 C596 0.929 . S
H593 C602 0.929 . S
C594 H588 0.930 . S
C594 C595 1.367 . S
C594 C602 1.378 . S
C595 C594 1.367 . S
C595 C603 1.433 . S
C596 H592 0.929 . S
C596 C598 1.378 . S
C596 C600 1.350 . S
C597 C600 1.463 . S
C597 C602 1.350 . S
C597 N605 1.427 . S
C598 H589 0.930 . S
C598 C596 1.378 . S
C598 C599 1.367 . S
C599 C598 1.367 . S
C599 C601 1.433 . S
C600 C596 1.350 . S
C600 C597 1.463 . S
C600 N604 1.427 . S
C601 H591 0.929 . S
C601 C599 1.433 . S
C601 N604 1.384 . S
C602 H593 0.929 . S
C602 C594 1.378 . S
C602 C597 1.350 . S
C603 H590 0.929 . S
C603 C595 1.433 . S
C603 N605 1.384 . S
N604 C600 1.427 . S
N604 C601 1.384 . S
N605 C597 1.427 . S
N605 C603 1.384 . S
H606 C612 0.930 . S
H607 C616 0.930 . S
H608 C621 0.929 . S
H609 C619 0.929 . S
H610 C614 0.929 . S
H611 C620 0.929 . S
C612 H606 0.930 . S
C612 C613 1.367 . S
C612 C620 1.378 . S
C613 C612 1.367 . S
C613 C621 1.433 . S
C614 H610 0.929 . S
C614 C616 1.378 . S
C614 C618 1.350 . S
C615 C618 1.463 . S
C615 C620 1.350 . S
C615 N623 1.427 . S
C616 H607 0.930 . S
C616 C614 1.378 . S
C616 C617 1.367 . S
C617 C616 1.367 . S
C617 C619 1.433 . S
C618 C614 1.350 . S
C618 C615 1.463 . S
C618 N622 1.427 . S
C619 H609 0.929 . S
C619 C617 1.433 . S
C619 N622 1.384 . S
C620 H611 0.929 . S
C620 C612 1.378 . S
C620 C615 1.350 . S
C621 H608 0.929 . S
C621 C613 1.433 . S
C621 N623 1.384 . S
N622 C618 1.427 . S
N622 C619 1.384 . S
N623 C615 1.427 . S
N623 C621 1.384 . S
H624 C630 0.930 . S
H625 C634 0.930 . S
H626 C639 0.929 . S
H627 C637 0.929 . S
H628 C632 0.929 . S
H629 C638 0.929 . S
C630 H624 0.930 . S
C630 C631 1.367 . S
C630 C638 1.378 . S
C631 C630 1.367 . S
C631 C639 1.433 . S
C632 H628 0.929 . S
C632 C634 1.378 . S
C632 C636 1.350 . S
C633 C636 1.463 . S
C633 C638 1.350 . S
C633 N641 1.427 . S
C634 H625 0.930 . S
C634 C632 1.378 . S
C634 C635 1.367 . S
C635 C634 1.367 . S
C635 C637 1.433 . S
C636 C632 1.350 . S
C636 C633 1.463 . S
C636 N640 1.427 . S
C637 H627 0.929 . S
C637 C635 1.433 . S
C637 N640 1.384 . S
C638 H629 0.929 . S
C638 C630 1.378 . S
C638 C633 1.350 . S
C639 H626 0.929 . S
C639 C631 1.433 . S
C639 N641 1.384 . S
N640 C636 1.427 . S
N640 C637 1.384 . S
N641 C633 1.427 . S
N641 C639 1.384 . S
H642 C648 0.930 . S
H643 C652 0.930 . S
H644 C657 0.929 . S
H645 C655 0.929 . S
H646 C650 0.929 . S
H647 C656 0.929 . S
C648 H642 0.930 . S
C648 C649 1.367 . S
C648 C656 1.378 . S
C649 C648 1.367 . S
C649 C657 1.433 . S
C650 H646 0.929 . S
C650 C652 1.378 . S
C650 C654 1.350 . S
C651 C654 1.463 . S
C651 C656 1.350 . S
C651 N659 1.427 . S
C652 H643 0.930 . S
C652 C650 1.378 . S
C652 C653 1.367 . S
C653 C652 1.367 . S
C653 C655 1.433 . S
C654 C650 1.350 . S
C654 C651 1.463 . S
C654 N658 1.427 . S
C655 H645 0.929 . S
C655 C653 1.433 . S
C655 N658 1.384 . S
C656 H647 0.929 . S
C656 C648 1.378 . S
C656 C651 1.350 . S
C657 H644 0.929 . S
C657 C649 1.433 . S
C657 N659 1.384 . S
N658 C654 1.427 . S
N658 C655 1.384 . S
N659 C651 1.427 . S
N659 C657 1.384 . S
H660 C666 0.930 . S
H661 C670 0.930 . S
H662 C675 0.929 . S
H663 C673 0.929 . S
H664 C668 0.929 . S
H665 C674 0.929 . S
C666 H660 0.930 . S
C666 C667 1.367 . S
C666 C674 1.378 . S
C667 C666 1.367 . S
C667 C675 1.433 . S
C668 H664 0.929 . S
C668 C670 1.378 . S
C668 C672 1.350 . S
C669 C672 1.463 . S
C669 C674 1.350 . S
C669 N677 1.427 . S
C670 H661 0.930 . S
C670 C668 1.378 . S
C670 C671 1.367 . S
C671 C670 1.367 . S
C671 C673 1.433 . S
C672 C668 1.350 . S
C672 C669 1.463 . S
C672 N676 1.427 . S
C673 H663 0.929 . S
C673 C671 1.433 . S
C673 N676 1.384 . S
C674 H665 0.929 . S
C674 C666 1.378 . S
C674 C669 1.350 . S
C675 H662 0.929 . S
C675 C667 1.433 . S
C675 N677 1.384 . S
N676 C672 1.427 . S
N676 C673 1.384 . S
N677 C669 1.427 . S
N677 C675 1.384 . S
H678 C684 0.930 . S
H679 C688 0.930 . S
H680 C693 0.929 . S
H681 C691 0.929 . S
H682 C686 0.929 . S
H683 C692 0.929 . S
C684 H678 0.930 . S
C684 C685 1.367 . S
C684 C692 1.378 . S
C685 C684 1.367 . S
C685 C693 1.433 . S
C686 H682 0.929 . S
C686 C688 1.378 . S
C686 C690 1.350 . S
C687 C690 1.463 . S
C687 C692 1.350 . S
C687 N695 1.427 . S
C688 H679 0.930 . S
C688 C686 1.378 . S
C688 C689 1.367 . S
C689 C688 1.367 . S
C689 C691 1.433 . S
C690 C686 1.350 . S
C690 C687 1.463 . S
C690 N694 1.427 . S
C691 H681 0.929 . S
C691 C689 1.433 . S
C691 N694 1.384 . S
C692 H683 0.929 . S
C692 C684 1.378 . S
C692 C687 1.350 . S
C693 H680 0.929 . S
C693 C685 1.433 . S
C693 N695 1.384 . S
N694 C690 1.427 . S
N694 C691 1.384 . S
N695 C687 1.427 . S
N695 C693 1.384 . S
C271 C9 1.432 . S
C275 C110 1.463 . S
C289 C21 1.092 . S
C293 C159 1.094 . S
C311 C194 2.206 . S
C307 C30 2.220 . S
C325 C43 2.186 . S
C329 C233 2.260 1_655 S
C347 C154 2.098 . S
C343 C4 1.835 . S
C365 C113 1.522 . S
C361 C22 1.581 . S
C383 C243 1.579 1_556 S
C379 C34 1.629 . S
C401 C202 1.540 . S
C397 C48 1.570 . S
C415 C8 1.554 . S
C419 C230 1.605 . S
C437 C162 2.269 . S
C433 C35 2.347 . S
C451 C47 2.573 . S
C455 C123 2.567 . S
C469 C17 0.848 . S
C473 C199 0.853 . S
C491 C119 1.024 . S
C487 C60 1.021 . S
C505 C74 1.113 . S
C509 C150 1.099 . S
C523 C82 1.953 . S
C527 C203 1.992 . S
C541 C100 2.762 . S
C545 C242 2.695 . S
C559 C61 2.421 . S
C563 C163 2.526 . S
C581 C122 0.751 . S
C577 C73 0.752 . S
C599 C234 2.144 . S
C595 C87 2.200 . S
C617 C193 1.318 . S
C613 C95 1.316 . S
C631 C56 1.499 . S
C635 C239 1.495 . S
C653 C153 2.473 . S
C649 C86 2.538 . S
C671 C114 2.360 . S
C667 C99 2.365 . S
C685 C69 0.736 . S
C689 C190 0.716 . S
