# Generated by pormake.
# Topology anh, (6,3)-cn, num edge types: 1
# Building blocks:
#     Node 0, Type 0, BuildingBlock: PAMTOO_clean_sbu_0, # of connection points: 6
#     Node 1, Type 0, BuildingBlock: PAMTOO_clean_sbu_0, # of connection points: 6
#     Node 2, Type 0, BuildingBlock: PAMTOO_clean_sbu_0, # of connection points: 6
#     Node 3, Type 1, BuildingBlock: ESEHIV_clean_linker_0, # of connection points: 3
#     Node 4, Type 1, BuildingBlock: ESEHIV_clean_linker_0, # of connection points: 3
#     Node 5, Type 1, BuildingBlock: ESEHIV_clean_linker_0, # of connection points: 3
#     Node 6, Type 1, BuildingBlock: ESEHIV_clean_linker_0, # of connection points: 3
#     Node 7, Type 1, BuildingBlock: ESEHIV_clean_linker_0, # of connection points: 3
#     Node 8, Type 1, BuildingBlock: ESEHIV_clean_linker_0, # of connection points: 3
#     Edge 9, Type (0, 1), BuildingBlock: OJICUG_clean_linker_0, # of connection points: 2
#     Edge 10, Type (0, 1), BuildingBlock: OJICUG_clean_linker_0, # of connection points: 2
#     Edge 11, Type (0, 1), BuildingBlock: OJICUG_clean_linker_0, # of connection points: 2
#     Edge 12, Type (0, 1), BuildingBlock: OJICUG_clean_linker_0, # of connection points: 2
#     Edge 13, Type (0, 1), BuildingBlock: OJICUG_clean_linker_0, # of connection points: 2
#     Edge 14, Type (0, 1), BuildingBlock: OJICUG_clean_linker_0, # of connection points: 2
#     Edge 15, Type (0, 1), BuildingBlock: OJICUG_clean_linker_0, # of connection points: 2
#     Edge 16, Type (0, 1), BuildingBlock: OJICUG_clean_linker_0, # of connection points: 2
#     Edge 17, Type (0, 1), BuildingBlock: OJICUG_clean_linker_0, # of connection points: 2
#     Edge 18, Type (0, 1), BuildingBlock: OJICUG_clean_linker_0, # of connection points: 2
#     Edge 19, Type (0, 1), BuildingBlock: OJICUG_clean_linker_0, # of connection points: 2
#     Edge 20, Type (0, 1), BuildingBlock: OJICUG_clean_linker_0, # of connection points: 2
#     Edge 21, Type (0, 1), BuildingBlock: OJICUG_clean_linker_0, # of connection points: 2
#     Edge 22, Type (0, 1), BuildingBlock: OJICUG_clean_linker_0, # of connection points: 2
#     Edge 23, Type (0, 1), BuildingBlock: OJICUG_clean_linker_0, # of connection points: 2
#     Edge 24, Type (0, 1), BuildingBlock: OJICUG_clean_linker_0, # of connection points: 2
#     Edge 25, Type (0, 1), BuildingBlock: OJICUG_clean_linker_0, # of connection points: 2
#     Edge 26, Type (0, 1), BuildingBlock: OJICUG_clean_linker_0, # of connection points: 2
# Relax obj value: 0.291
# Max RMSD: 0.240
# Mean RMSD: 0.181
data_MOF--net-anh--node1-PAMTOO_clean_sbu_0--node2-ESEHIV_clean_linker_0--edge1-OJICUG_clean_linker_0
_symmetry_space_group_name_H-M    P1
_symmetry_Int_Tables_number       1
_symmetry_cell_setting            triclinic
loop_
_symmetry_equiv_pos_as_xyz
'x, y, z'
_cell_length_a     19.38119
_cell_length_b     18.895611
_cell_length_c     38.68997
_cell_angle_alpha  90.610496
_cell_angle_beta   94.357938
_cell_angle_gamma 91.880553
loop_
_atom_site_label
_atom_site_type_symbol
_atom_site_fract_x
_atom_site_fract_y
_atom_site_fract_z
_atom_type_partial_charge
Dy0 Dy 1.09308 0.6842 0.13222 0.0
Dy1 Dy 1.07184 0.51436 0.11299 0.0
C2 C 1.10698 0.62786 0.05453 0.0
O3 O 0.97938 0.67197 0.11331 0.0
O4 O 0.96645 0.5534 0.12405 0.0
O5 O 1.09576 0.79662 0.12146 0.0
O6 O 1.12125 0.75965 0.17344 0.0
O7 O 1.10212 0.52368 0.16937 0.0
O8 O 1.05282 0.62917 0.17762 0.0
O9 O 0.18391 0.53654 0.10395 0.0
O10 O 0.20165 0.64023 0.13551 0.0
O11 O 1.09876 0.40555 0.12129 0.0
O12 O 1.01088 0.42999 0.08597 0.0
C13 C 0.93912 0.61505 0.11695 0.0
O14 O 1.11958 0.67866 0.07764 0.0
O15 O 1.0811 0.56494 0.06171 0.0
C16 C 0.18877 0.85418 0.15504 0.0
C17 C 0.32115 0.91788 0.17083 0.0
C18 C 0.31311 0.85622 0.1501 0.0
C19 C 0.24743 0.82495 0.14208 0.0
C20 C 0.19613 0.91751 0.17437 0.0
C21 C 0.26186 0.94954 0.18197 0.0
C22 C 1.12259 0.81329 0.15258 0.0
C23 C 1.07638 0.56964 0.18984 0.0
C24 C 0.22597 0.58702 0.11807 0.0
C25 C 0.99824 0.33007 0.12137 0.0
C26 C 0.90418 0.24316 0.15583 0.0
C27 C 0.96192 0.27651 0.17428 0.0
C28 C 1.00815 0.31971 0.15732 0.0
C29 C 0.94204 0.29502 0.10268 0.0
C30 C 0.8954 0.25217 0.1197 0.0
C31 C 1.04297 0.38076 0.10359 0.0
H32 H 0.35788 0.83104 0.14097 0.0
H33 H 0.24273 0.77618 0.12703 0.0
H34 H 0.15153 0.94047 0.18485 0.0
H35 H 0.26672 0.99679 0.1982 0.0
H36 H 0.97123 0.26974 0.20198 0.0
H37 H 1.05088 0.34599 0.17258 0.0
H38 H 0.93312 0.30235 0.07498 0.0
H39 H 0.85125 0.22801 0.10466 0.0
Dy40 Dy 0.60975 0.99801 0.50214 0.0
Dy41 Dy 0.77866 1.02747 0.50862 0.0
C42 C 0.69408 1.00975 0.57526 0.0
O43 O 0.63068 0.11368 0.51433 0.0
O44 O 0.73399 0.12864 0.49027 0.0
O45 O 0.51986 0.95387 0.52463 0.0
O46 O 0.50746 1.01735 0.47853 0.0
O47 O 0.75293 1.02309 0.45132 0.0
O48 O 0.63494 0.99771 0.44703 0.0
O49 O 0.75941 0.91226 0.51948 0.0
O50 O 0.65305 0.89331 0.49013 0.0
O51 O 0.88171 1.00022 0.49673 0.0
O52 O 0.8671 0.08565 0.53309 0.0
C53 C 0.67837 0.1551 0.50177 0.0
O54 O 0.64751 0.97249 0.55606 0.0
O55 O 0.74165 0.04825 0.56115 0.0
C56 C 0.43253 0.91829 0.48287 0.0
C57 C 0.34856 0.80567 0.45364 0.0
C58 C 0.42036 0.80772 0.45038 0.0
C59 C 0.46193 0.86363 0.46481 0.0
C60 C 0.36113 0.91677 0.48631 0.0
C61 C 0.31929 0.86079 0.47175 0.0
C62 C 0.47726 0.97469 0.49943 0.0
C63 C 0.69376 1.00999 0.4331 0.0
C64 C 0.71026 0.86907 0.50531 0.0
C65 C 0.95363 0.10349 0.49498 0.0
C66 C 1.02242 0.213 0.46109 0.0
C67 C 0.97196 0.16926 0.44271 0.0
C68 C 0.93752 0.11528 0.45955 0.0
C69 C 1.00586 0.1452 0.51309 0.0
C70 C 1.03994 0.19972 0.4963 0.0
C71 C 0.91029 0.05471 0.51407 0.0
H72 H 0.44464 0.76559 0.43706 0.0
H73 H 0.5172 0.86385 0.46221 0.0
H74 H 0.33788 0.95858 0.50035 0.0
H75 H 0.26404 0.86103 0.47433 0.0
H76 H 0.95671 0.17893 0.41569 0.0
H77 H 0.89644 0.08467 0.44516 0.0
H78 H 1.01841 0.13736 0.54052 0.0
H79 H 1.07892 0.23245 0.511 0.0
Dy80 Dy 0.71398 0.50884 0.82466 0.0
Dy81 Dy 0.55058 0.51949 0.79619 0.0
C82 C 0.66725 0.50074 0.74495 0.0
O83 O 0.69049 0.62208 0.83457 0.0
O84 O 0.60166 0.62639 0.7923 0.0
O85 O 0.82007 0.5472 0.82895 0.0
O86 O 0.79131 0.44937 0.85399 0.0
O87 O 0.5516 0.54848 0.8529 0.0
O88 O 0.6544 0.49882 0.87126 0.0
O89 O 0.55933 0.40496 0.8104 0.0
O90 O 0.6774 0.40011 0.80718 0.0
O91 O 0.43966 0.52946 0.79819 0.0
O92 O 0.48599 0.53446 0.74916 0.0
C93 C 0.64772 0.65814 0.81424 0.0
O94 O 0.71289 0.53003 0.76788 0.0
O95 O 0.60879 0.47382 0.75447 0.0
C96 C 0.90438 0.4597 0.83537 0.0
C97 C 1.0409 0.43455 0.82021 0.0
C98 C 0.99012 0.44832 0.79329 0.0
C99 C 0.92229 0.46175 0.80091 0.0
C100 C 0.95153 0.43469 0.8611 0.0
C101 C 1.01912 0.42171 0.85362 0.0
C102 C 0.84162 0.49211 0.84615 0.0
C103 C 0.59572 0.52685 0.87785 0.0
C104 C 0.61628 0.36878 0.80937 0.0
C105 C 0.4017 0.61702 0.75878 0.0
C106 C 0.35185 0.7529 0.76902 0.0
C107 C 0.4203 0.74498 0.76039 0.0
C108 C 0.44531 0.6773 0.75572 0.0
C109 C 0.33069 0.62574 0.7602 0.0
C110 C 0.30549 0.69361 0.76419 0.0
C111 C 0.43158 0.54732 0.76561 0.0
H112 H 1.00439 0.45626 0.76705 0.0
H113 H 0.88567 0.47911 0.78043 0.0
H114 H 0.93801 0.43143 0.88773 0.0
H115 H 1.05572 0.41046 0.87523 0.0
H116 H 0.45668 0.78984 0.76199 0.0
H117 H 0.50001 0.67215 0.75291 0.0
H118 H 0.29571 0.58008 0.76144 0.0
H119 H 0.25147 0.69741 0.76897 0.0
H120 H 0.5611 0.98664 0.27994 0.0
H121 H 0.76379 0.08678 0.27721 0.0
H122 H 0.62659 0.06914 0.18459 0.0
C123 C 0.60131 1.0119 0.26597 0.0
C124 C 0.58801 1.02289 0.2303 0.0
C125 C 0.66427 0.03539 0.28365 0.0
C126 C 0.71401 0.07029 0.26458 0.0
C127 C 0.70074 0.08347 0.229 0.0
C128 C 0.6375 0.05937 0.21199 0.0
H129 H 0.71649 0.62086 0.59676 0.0
H130 H 0.68192 0.39567 0.59038 0.0
H131 H 0.69738 0.51487 0.49693 0.0
C132 C 0.71036 0.5725 0.58133 0.0
C133 C 0.70963 0.57592 0.54497 0.0
C134 C 0.69918 0.50793 0.59778 0.0
C135 C 0.68893 0.44603 0.57767 0.0
C136 C 0.688 0.44769 0.54145 0.0
C137 C 0.6984 0.51299 0.52495 0.0
H138 H 0.19999 0.55444 0.9115 0.0
H139 H 0.25356 0.77631 0.92721 0.0
H140 H 0.28972 0.67134 0.83158 0.0
C141 C 0.22519 0.60255 0.90302 0.0
C142 C 0.24628 0.60512 0.86926 0.0
C143 C 0.22881 0.66318 0.92461 0.0
C144 C 0.2527 0.72828 0.91163 0.0
C145 C 0.27415 0.73114 0.8779 0.0
C146 C 0.27368 0.66888 0.85766 0.0
H147 H 1.06418 0.42698 0.3416 0.0
H148 H 0.16795 0.63089 0.34053 0.0
H149 H 0.17674 0.51083 0.43431 0.0
C150 C 1.09599 0.46843 0.35503 0.0
C151 C 1.11758 0.46147 0.39036 0.0
C152 C 1.11391 0.52949 0.33702 0.0
C153 C 0.15365 0.58385 0.35449 0.0
C154 C 0.17653 0.57758 0.38952 0.0
C155 C 0.15794 0.51647 0.40742 0.0
H156 H 0.64608 0.12249 0.7242 0.0
H157 H 0.68561 0.90038 0.73035 0.0
H158 H 0.63119 1.01409 0.82092 0.0
C159 C 0.65008 0.07441 0.73919 0.0
C160 C 0.6371 0.07609 0.77439 0.0
C161 C 0.66771 1.0114 0.72312 0.0
C162 C 0.67262 0.94949 0.74269 0.0
C163 C 0.65938 0.94973 0.77786 0.0
C164 C 0.64164 1.0134 0.7938 0.0
H165 H 0.4635 0.57262 0.02596 0.0
H166 H 0.68443 0.59884 0.03024 0.0
H167 H 0.58012 0.61338 0.12448 0.0
C168 C 0.51221 0.58318 0.0411 0.0
C169 C 0.51273 0.59353 0.07734 0.0
C170 C 0.57364 0.58392 0.02415 0.0
C171 C 0.63697 0.59791 0.04343 0.0
C172 C 0.64093 0.60879 0.07945 0.0
C173 C 0.57809 0.60641 0.09661 0.0
C174 C 0.32771 0.53016 0.09245 0.0
C175 C 0.30241 0.5855 0.11211 0.0
H176 H 0.4127 0.48835 0.0673 0.0
C177 C 0.35025 0.64049 0.12374 0.0
H178 H 0.29357 0.4865 0.08302 0.0
C179 C 0.41983 0.6415 0.11455 0.0
C180 C 0.44371 0.58763 0.0934 0.0
H181 H 0.3335 0.68403 0.13907 0.0
H182 H 0.4539 0.68619 0.12261 0.0
C183 C 0.39666 0.53119 0.08337 0.0
C184 C 1.07415 0.2697 0.41037 0.0
C185 C 1.05254 0.27536 0.44408 0.0
H186 H 1.11328 0.32367 0.36728 0.0
C187 C 1.05548 0.34203 0.46064 0.0
H188 H 1.07307 0.21878 0.39716 0.0
C189 C 1.07765 0.40223 0.44342 0.0
C190 C 1.09772 0.39695 0.40935 0.0
H191 H 1.03814 0.3481 0.48644 0.0
H192 H 1.0769 0.4532 0.45643 0.0
C193 C 1.09679 0.3298 0.39323 0.0
C194 C 0.59332 0.77563 0.81082 0.0
C195 C 0.6537 0.73628 0.81325 0.0
H196 H 0.54836 0.8757 0.7989 0.0
C197 C 0.71773 0.7711 0.80947 0.0
H198 H 0.54354 0.74964 0.81373 0.0
C199 C 0.72041 0.84285 0.80049 0.0
C200 C 0.65936 0.88116 0.79613 0.0
H201 H 0.76489 0.7417 0.81083 0.0
H202 H 0.76962 0.86742 0.79503 0.0
C203 C 0.59614 0.84762 0.80266 0.0
C204 C 0.82809 0.67767 0.09737 0.0
C205 C 0.86086 0.61876 0.11248 0.0
H206 H 0.73313 0.72126 0.07577 0.0
C207 C 0.81771 0.56093 0.12137 0.0
H208 H 0.85879 0.72316 0.08996 0.0
C209 C 0.74512 0.56064 0.11392 0.0
C210 C 0.71291 0.61802 0.09722 0.0
H211 H 0.84027 0.51439 0.13306 0.0
H212 H 0.71468 0.51346 0.11924 0.0
C213 C 0.75559 0.67695 0.08956 0.0
C214 C 0.25091 0.7152 0.45536 0.0
C215 C 0.30463 0.74657 0.4377 0.0
H216 H 0.16812 0.63684 0.45394 0.0
C217 C 0.31662 0.72088 0.40458 0.0
H218 H 0.24097 0.73338 0.4811 0.0
C219 C 0.27573 0.66534 0.38933 0.0
C220 C 0.22154 0.63442 0.40674 0.0
H221 H 0.35713 0.74433 0.39015 0.0
H222 H 0.28662 0.64654 0.36383 0.0
C223 C 0.2098 0.65947 0.44003 0.0
C224 C 0.55915 0.25481 0.78629 0.0
C225 C 0.61273 0.29046 0.80666 0.0
H226 H 0.52518 0.1577 0.7599 0.0
C227 C 0.66868 0.25157 0.82069 0.0
H228 H 0.51582 0.28355 0.77489 0.0
C229 C 0.67317 0.17949 0.81282 0.0
C230 C 0.62247 0.14524 0.79023 0.0
H231 H 0.7107 0.27775 0.83652 0.0
H232 H 0.71879 0.15187 0.82232 0.0
C233 C 0.56447 0.18294 0.77776 0.0
C234 C 0.77079 0.76512 0.53186 0.0
C235 C 0.71586 0.79139 0.51039 0.0
H236 H 0.81213 0.67603 0.55919 0.0
C237 C 0.6636 0.74329 0.4965 0.0
H238 H 0.81215 0.80025 0.54292 0.0
C239 C 0.66421 0.67156 0.50559 0.0
C240 C 0.7167 0.64673 0.52896 0.0
H241 H 0.62063 0.7615 0.47975 0.0
H242 H 0.62141 0.63656 0.49607 0.0
C243 C 0.77097 0.69382 0.54116 0.0
C244 C 0.16661 0.43085 0.84077 0.0
C245 C 1.11476 0.45641 0.81708 0.0
H246 H 0.25225 0.46028 0.87693 0.0
C247 C 1.12843 0.52076 0.8005 0.0
H248 H 0.15992 0.37964 0.85262 0.0
C249 C 0.18147 0.56662 0.81423 0.0
C250 C 0.2219 0.54796 0.84421 0.0
H251 H 1.0916 0.54178 0.78115 0.0
H252 H 0.18265 0.62034 0.80482 0.0
C253 C 0.21963 0.47703 0.85473 0.0
C254 C 0.43872 0.89842 0.19955 0.0
C255 C 0.39134 0.94492 0.18358 0.0
H256 H 0.5379 0.88718 0.2271 0.0
C257 C 0.41038 1.01713 0.18162 0.0
H258 H 0.42514 0.84265 0.20173 0.0
C259 C 0.47548 0.04236 0.19567 0.0
C260 C 0.52176 0.99601 0.21257 0.0
H261 H 0.37476 0.05398 0.16942 0.0
H262 H 0.48883 0.09833 0.19432 0.0
C263 C 0.50299 0.92383 0.21418 0.0
C264 C 0.72914 0.27859 0.49596 0.0
C265 C 0.67403 0.23337 0.50482 0.0
H266 H 0.77606 0.38338 0.50005 0.0
C267 C 0.61779 0.26333 0.51981 0.0
H268 H 0.77315 0.25751 0.48414 0.0
C269 C 0.61941 0.33538 0.52854 0.0
C270 C 0.67711 0.37922 0.52238 0.0
H271 H 0.57417 0.23049 0.52665 0.0
H272 H 0.57758 0.35599 0.5423 0.0
C273 C 0.73065 0.35092 0.50469 0.0
C274 C 0.385 0.81752 0.82395 0.0
C275 C 0.33667 0.80848 0.79491 0.0
H276 H 0.40001 0.80074 0.87849 0.0
C277 C 0.26719 0.82227 0.79989 0.0
H278 H 0.43984 0.81323 0.82143 0.0
C279 C 0.24447 0.81715 0.83331 0.0
C280 C 0.29167 0.79798 0.86079 0.0
H281 H 0.22876 0.82109 0.77803 0.0
H282 H 0.1893 0.81111 0.83586 0.0
C283 C 0.36222 0.81125 0.85722 0.0
C284 C 0.81962 0.13944 0.15964 0.0
C285 C 0.85219 0.20147 0.17445 0.0
H286 H 0.74653 0.05332 0.16528 0.0
C287 C 0.83396 0.22422 0.20719 0.0
H288 H 0.8329 0.11981 0.13469 0.0
C289 C 0.78508 0.1858 0.22476 0.0
C290 C 0.75265 0.12389 0.20999 0.0
H291 H 0.85661 0.27254 0.2191 0.0
H292 H 0.77181 0.20526 0.24977 0.0
C293 C 0.7702 0.10124 0.17716 0.0
C294 C 0.17605 0.58457 0.00833 0.0
C295 C 1.13539 0.63751 0.02089 0.0
H296 H 0.24156 0.55342 0.96954 0.0
C297 C 1.12929 0.70165 0.00317 0.0
H298 H 0.18367 0.53578 0.02239 0.0
C299 C 0.16103 0.71131 0.9722 0.0
C300 C 0.20099 0.65765 0.9592 0.0
H301 H 1.09918 0.74369 0.013 0.0
H302 H 0.1528 0.75989 0.95812 0.0
C303 C 0.20949 0.595 -0.02182 0.0
C304 C 0.65164 0.96257 0.37464 0.0
C305 C 0.692 1.01248 0.395 0.0
H306 H 0.6148 0.92759 0.3238 0.0
C307 C 0.72657 0.06766 0.37874 0.0
H308 H 0.62495 0.91915 0.38668 0.0
C309 C 0.71822 0.07479 0.34271 0.0
C310 C 0.6768 1.02549 0.32199 0.0
H311 H 0.7574 0.10727 0.39402 0.0
H312 H 0.74249 0.12052 0.33145 0.0
C313 C 0.6452 0.96815 0.33855 0.0
C314 C 0.73396 0.53975 0.69484 0.0
C315 C 0.67929 0.49977 0.70771 0.0
H316 H 0.78321 0.57394 0.64972 0.0
C317 C 0.6327 0.4617 0.68428 0.0
H318 H 0.77047 0.56992 0.71226 0.0
C319 C 0.63977 0.46428 0.64879 0.0
C320 C 0.69366 0.50493 0.63575 0.0
H321 H 0.58985 0.43049 0.69325 0.0
H322 H 0.60196 0.43551 0.63146 0.0
C323 C 0.74091 0.54256 0.65909 0.0
C324 C 0.72576 0.06123 0.63472 0.0
C325 C 0.69109 1.00871 0.61334 0.0
H326 H 0.74532 0.10342 0.68639 0.0
C327 C 0.65087 0.95597 0.62853 0.0
H328 H 0.75698 0.10264 0.62376 0.0
C329 C 0.64459 0.95621 0.66421 0.0
C330 C 0.67783 1.00956 0.68551 0.0
H331 H 0.62366 0.91457 0.61282 0.0
H332 H 0.61219 0.91559 0.67503 0.0
C333 C 0.71877 0.06193 0.67048 0.0
C334 C 0.62566 0.50319 0.94044 0.0
C335 C 0.58277 0.53659 0.91501 0.0
H336 H 0.65562 0.49129 -0.00573 0.0
C337 C 0.5325 0.58233 0.92587 0.0
H338 H 0.66433 0.46677 0.93327 0.0
C339 C 0.52768 0.59658 0.96139 0.0
C340 C 0.57325 0.56557 -0.01346 0.0
H341 H 0.49863 0.60891 0.90699 0.0
H342 H 0.4901 0.63369 0.96909 0.0
C343 C 0.62098 0.51746 0.97557 0.0
C344 C 1.09952 0.49091 0.24072 0.0
C345 C 1.07772 0.55612 0.22738 0.0
H346 H 1.1276 0.43125 0.28611 0.0
C347 C 1.06098 0.60972 0.25043 0.0
H348 H 1.11223 0.44832 0.22359 0.0
C349 C 1.06959 0.59975 0.28614 0.0
C350 C 1.09476 0.53591 0.29948 0.0
H351 H 1.04354 0.66036 0.24098 0.0
H352 H 1.05836 0.64272 0.30338 0.0
C353 C 1.1078 0.48084 0.27648 0.0
loop_
_geom_bond_atom_site_label_1
_geom_bond_atom_site_label_2
_geom_bond_distance
_geom_bond_site_symmetry_2
_ccdc_geom_bond_type
Dy0 O3 2.307 1_455 S
Dy0 O5 2.395 . S
Dy0 O6 2.379 . S
Dy0 O8 2.339 . S
Dy0 O10 2.298 . S
Dy0 O14 2.275 . S
Dy0 C22 2.738 . S
Dy1 O4 2.298 . S
Dy1 O7 2.275 . S
Dy1 O9 2.307 1_655 S
Dy1 O11 2.395 . S
Dy1 O12 2.379 . S
Dy1 O15 2.339 . S
Dy1 C31 2.738 . S
C2 O14 1.254 . S
C2 O15 1.257 1_455 S
O3 Dy0 2.307 1_655 S
O3 C13 1.266 . S
O4 Dy1 2.298 . S
O4 C13 1.236 . S
O5 Dy0 2.395 . S
O5 C22 1.255 . S
O6 Dy0 2.379 . S
O6 C22 1.249 . S
O7 Dy1 2.275 . S
O7 C23 1.254 1_655 S
O8 Dy0 2.339 . S
O8 C23 1.257 . S
O9 Dy1 2.307 1_455 S
O9 C24 1.266 . S
O10 Dy0 2.298 . S
O10 C24 1.236 . S
O11 Dy1 2.395 . S
O11 C31 1.255 . S
O12 Dy1 2.379 . S
O12 C31 1.249 . S
C13 O3 1.266 . S
C13 O4 1.236 . S
O14 Dy0 2.275 . S
O14 C2 1.254 . S
O15 Dy1 2.339 . S
O15 C2 1.257 1_655 S
C16 C19 1.344 . S
C16 C20 1.328 . S
C16 C22 1.516 . S
C17 C18 1.304 . S
C17 C21 1.323 . S
C18 C17 1.304 . S
C18 C19 1.371 . S
C18 H32 0.930 . S
C19 C16 1.344 . S
C19 C18 1.371 . S
C19 H33 0.931 . S
C20 C16 1.328 . S
C20 C21 1.433 . S
C20 H34 0.931 . S
C21 C17 1.323 . S
C21 C20 1.433 . S
C21 H35 0.933 . S
C22 Dy0 2.738 . S
C22 O5 1.255 . S
C22 O6 1.249 . S
C22 C16 1.516 . S
C23 O7 1.254 1_455 S
C23 O8 1.257 . S
C24 O9 1.266 . S
C24 O10 1.236 . S
C25 C28 1.344 . S
C25 C29 1.328 . S
C25 C31 1.516 . S
C26 C27 1.304 . S
C26 C30 1.323 . S
C27 C26 1.304 . S
C27 C28 1.371 . S
C27 H36 0.930 . S
C28 C25 1.344 . S
C28 C27 1.371 . S
C28 H37 0.931 . S
C29 C25 1.328 . S
C29 C30 1.433 . S
C29 H38 0.931 . S
C30 C26 1.323 . S
C30 C29 1.433 . S
C30 H39 0.933 . S
C31 Dy1 2.738 . S
C31 O11 1.255 . S
C31 O12 1.249 . S
C31 C25 1.516 . S
H32 C18 0.930 . S
H33 C19 0.931 . S
H34 C20 0.931 . S
H35 C21 0.933 . S
H36 C27 0.930 . S
H37 C28 0.931 . S
H38 C29 0.931 . S
H39 C30 0.933 . S
Dy40 O43 2.307 1_565 S
Dy40 O45 2.395 . S
Dy40 O46 2.379 . S
Dy40 O48 2.339 . S
Dy40 O50 2.298 . S
Dy40 O54 2.275 1_565 S
Dy40 C62 2.738 . S
Dy41 O44 2.298 . S
Dy41 O47 2.275 . S
Dy41 O49 2.307 1_545 S
Dy41 O51 2.395 . S
Dy41 O52 2.379 . S
Dy41 O55 2.339 . S
Dy41 C71 2.738 . S
C42 O54 1.254 . S
C42 O55 1.257 . S
O43 Dy40 2.307 1_545 S
O43 C53 1.266 . S
O44 Dy41 2.298 . S
O44 C53 1.236 . S
O45 Dy40 2.395 . S
O45 C62 1.255 . S
O46 Dy40 2.379 . S
O46 C62 1.249 . S
O47 Dy41 2.275 . S
O47 C63 1.254 . S
O48 Dy40 2.339 . S
O48 C63 1.257 1_565 S
O49 Dy41 2.307 1_565 S
O49 C64 1.266 . S
O50 Dy40 2.298 . S
O50 C64 1.236 . S
O51 Dy41 2.395 . S
O51 C71 1.255 . S
O52 Dy41 2.379 . S
O52 C71 1.249 . S
C53 O43 1.266 . S
C53 O44 1.236 . S
O54 Dy40 2.275 1_545 S
O54 C42 1.254 . S
O55 Dy41 2.339 . S
O55 C42 1.257 . S
C56 C59 1.344 . S
C56 C60 1.328 . S
C56 C62 1.516 . S
C57 C58 1.304 . S
C57 C61 1.323 . S
C58 C57 1.304 . S
C58 C59 1.371 . S
C58 H72 0.930 . S
C59 C56 1.344 . S
C59 C58 1.371 . S
C59 H73 0.931 . S
C60 C56 1.328 . S
C60 C61 1.433 . S
C60 H74 0.931 . S
C61 C57 1.323 . S
C61 C60 1.433 . S
C61 H75 0.933 . S
C62 Dy40 2.738 . S
C62 O45 1.255 . S
C62 O46 1.249 . S
C62 C56 1.516 . S
C63 O47 1.254 . S
C63 O48 1.257 1_545 S
C64 O49 1.266 . S
C64 O50 1.236 . S
C65 C68 1.344 . S
C65 C69 1.328 . S
C65 C71 1.516 . S
C66 C67 1.304 . S
C66 C70 1.323 . S
C67 C66 1.304 . S
C67 C68 1.371 . S
C67 H76 0.930 . S
C68 C65 1.344 . S
C68 C67 1.371 . S
C68 H77 0.931 . S
C69 C65 1.328 . S
C69 C70 1.433 . S
C69 H78 0.931 . S
C70 C66 1.323 . S
C70 C69 1.433 . S
C70 H79 0.933 . S
C71 Dy41 2.738 . S
C71 O51 1.255 . S
C71 O52 1.249 . S
C71 C65 1.516 . S
H72 C58 0.930 . S
H73 C59 0.931 . S
H74 C60 0.931 . S
H75 C61 0.933 . S
H76 C67 0.930 . S
H77 C68 0.931 . S
H78 C69 0.931 . S
H79 C70 0.933 . S
Dy80 O83 2.307 . S
Dy80 O85 2.395 . S
Dy80 O86 2.379 . S
Dy80 O88 2.339 . S
Dy80 O90 2.298 . S
Dy80 O94 2.275 . S
Dy80 C102 2.738 . S
Dy81 O84 2.298 . S
Dy81 O87 2.275 . S
Dy81 O89 2.307 . S
Dy81 O91 2.395 . S
Dy81 O92 2.379 . S
Dy81 O95 2.339 . S
Dy81 C111 2.738 . S
C82 O94 1.254 . S
C82 O95 1.257 . S
O83 Dy80 2.307 . S
O83 C93 1.266 . S
O84 Dy81 2.298 . S
O84 C93 1.236 . S
O85 Dy80 2.395 . S
O85 C102 1.255 . S
O86 Dy80 2.379 . S
O86 C102 1.249 . S
O87 Dy81 2.275 . S
O87 C103 1.254 . S
O88 Dy80 2.339 . S
O88 C103 1.257 . S
O89 Dy81 2.307 . S
O89 C104 1.266 . S
O90 Dy80 2.298 . S
O90 C104 1.236 . S
O91 Dy81 2.395 . S
O91 C111 1.255 . S
O92 Dy81 2.379 . S
O92 C111 1.249 . S
C93 O83 1.266 . S
C93 O84 1.236 . S
O94 Dy80 2.275 . S
O94 C82 1.254 . S
O95 Dy81 2.339 . S
O95 C82 1.257 . S
C96 C99 1.344 . S
C96 C100 1.328 . S
C96 C102 1.516 . S
C97 C98 1.304 . S
C97 C101 1.323 . S
C98 C97 1.304 . S
C98 C99 1.371 . S
C98 H112 0.930 . S
C99 C96 1.344 . S
C99 C98 1.371 . S
C99 H113 0.931 . S
C100 C96 1.328 . S
C100 C101 1.433 . S
C100 H114 0.931 . S
C101 C97 1.323 . S
C101 C100 1.433 . S
C101 H115 0.933 . S
C102 Dy80 2.738 . S
C102 O85 1.255 . S
C102 O86 1.249 . S
C102 C96 1.516 . S
C103 O87 1.254 . S
C103 O88 1.257 . S
C104 O89 1.266 . S
C104 O90 1.236 . S
C105 C108 1.344 . S
C105 C109 1.328 . S
C105 C111 1.516 . S
C106 C107 1.304 . S
C106 C110 1.323 . S
C107 C106 1.304 . S
C107 C108 1.371 . S
C107 H116 0.930 . S
C108 C105 1.344 . S
C108 C107 1.371 . S
C108 H117 0.931 . S
C109 C105 1.328 . S
C109 C110 1.433 . S
C109 H118 0.931 . S
C110 C106 1.323 . S
C110 C109 1.433 . S
C110 H119 0.933 . S
C111 Dy81 2.738 . S
C111 O91 1.255 . S
C111 O92 1.249 . S
C111 C105 1.516 . S
H112 C98 0.930 . S
H113 C99 0.931 . S
H114 C100 0.931 . S
H115 C101 0.933 . S
H116 C107 0.930 . S
H117 C108 0.931 . S
H118 C109 0.931 . S
H119 C110 0.933 . S
H120 C123 0.931 1_565 S
H121 C126 0.928 . S
H122 C128 0.930 . S
C123 H120 0.931 1_545 S
C123 C124 1.413 . S
C123 C125 1.360 . S
C124 C123 1.413 . S
C124 C128 1.429 . S
C125 C123 1.360 . S
C125 C126 1.372 . S
C126 H121 0.928 . S
C126 C125 1.372 . S
C126 C127 1.404 . S
C127 C126 1.404 . S
C127 C128 1.391 . S
C128 H122 0.930 . S
C128 C124 1.429 . S
C128 C127 1.391 . S
H129 C132 0.931 . S
H130 C135 0.928 . S
H131 C137 0.930 . S
C132 H129 0.931 . S
C132 C133 1.413 . S
C132 C134 1.360 . S
C133 C132 1.413 . S
C133 C137 1.429 . S
C134 C132 1.360 . S
C134 C135 1.372 . S
C135 H130 0.928 . S
C135 C134 1.372 . S
C135 C136 1.404 . S
C136 C135 1.404 . S
C136 C137 1.391 . S
C137 H131 0.930 . S
C137 C133 1.429 . S
C137 C136 1.391 . S
H138 C141 0.931 . S
H139 C144 0.928 . S
H140 C146 0.930 . S
C141 H138 0.931 . S
C141 C142 1.413 . S
C141 C143 1.360 1_655 S
C142 C141 1.413 . S
C142 C146 1.429 1_655 S
C143 C141 1.360 1_455 S
C143 C144 1.372 . S
C144 H139 0.928 . S
C144 C143 1.372 . S
C144 C145 1.404 . S
C145 C144 1.404 . S
C145 C146 1.391 . S
C146 H140 0.930 . S
C146 C142 1.429 1_455 S
C146 C145 1.391 . S
H147 C150 0.931 . S
H148 C153 0.928 . S
H149 C155 0.930 . S
C150 H147 0.931 . S
C150 C151 1.413 . S
C150 C152 1.360 1_655 S
C151 C150 1.413 . S
C151 C155 1.429 1_655 S
C152 C150 1.360 1_455 S
C152 C153 1.372 . S
C153 H148 0.928 . S
C153 C152 1.372 . S
C153 C154 1.404 . S
C154 C153 1.404 . S
C154 C155 1.391 . S
C155 H149 0.930 . S
C155 C151 1.429 1_455 S
C155 C154 1.391 . S
H156 C159 0.931 . S
H157 C162 0.928 . S
H158 C164 0.930 . S
C159 H156 0.931 . S
C159 C160 1.413 . S
C159 C161 1.360 . S
C160 C159 1.413 . S
C160 C164 1.439 . S
C161 C159 1.360 . S
C161 C162 1.372 1_545 S
C162 H157 0.928 . S
C162 C161 1.372 1_565 S
C162 C163 1.404 . S
C163 C162 1.404 . S
C163 C164 1.381 1_565 S
C164 H158 0.930 . S
C164 C160 1.439 . S
C164 C163 1.381 1_545 S
H165 C168 0.931 . S
H166 C171 0.928 . S
H167 C173 0.930 . S
C168 H165 0.931 . S
C168 C169 1.413 . S
C168 C170 1.360 . S
C169 C168 1.413 . S
C169 C173 1.429 . S
C170 C168 1.360 . S
C170 C171 1.372 . S
C171 H166 0.928 . S
C171 C170 1.372 . S
C171 C172 1.404 . S
C172 C171 1.404 . S
C172 C173 1.391 . S
C173 H167 0.930 . S
C173 C169 1.429 . S
C173 C172 1.391 . S
C174 C175 1.387 . S
C174 H178 0.950 . S
C174 C183 1.390 . S
C175 C174 1.387 . S
C175 C177 1.387 . S
H176 C183 0.950 . S
C177 C175 1.387 . S
C177 C179 1.390 . S
C177 H181 0.950 . S
H178 C174 0.950 . S
C179 C177 1.390 . S
C179 C180 1.387 . S
C179 H182 0.950 . S
C180 C179 1.387 . S
C180 C183 1.387 . S
H181 C177 0.950 . S
H182 C179 0.950 . S
C183 C174 1.390 . S
C183 H176 0.950 . S
C183 C180 1.387 . S
C184 C185 1.387 . S
C184 H188 0.950 . S
C184 C193 1.390 . S
C185 C184 1.387 . S
C185 C187 1.387 . S
H186 C193 0.950 . S
C187 C185 1.387 . S
C187 C189 1.390 . S
C187 H191 0.950 . S
H188 C184 0.950 . S
C189 C187 1.390 . S
C189 C190 1.387 . S
C189 H192 0.950 . S
C190 C189 1.387 . S
C190 C193 1.387 . S
H191 C187 0.950 . S
H192 C189 0.950 . S
C193 C184 1.390 . S
C193 H186 0.950 . S
C193 C190 1.387 . S
C194 C195 1.387 . S
C194 H198 0.950 . S
C194 C203 1.390 . S
C195 C194 1.387 . S
C195 C197 1.387 . S
H196 C203 0.950 . S
C197 C195 1.387 . S
C197 C199 1.390 . S
C197 H201 0.950 . S
H198 C194 0.950 . S
C199 C197 1.390 . S
C199 C200 1.387 . S
C199 H202 0.950 . S
C200 C199 1.387 . S
C200 C203 1.387 . S
H201 C197 0.950 . S
H202 C199 0.950 . S
C203 C194 1.390 . S
C203 H196 0.950 . S
C203 C200 1.387 . S
C204 C205 1.387 . S
C204 H208 0.950 . S
C204 C213 1.390 . S
C205 C204 1.387 . S
C205 C207 1.387 . S
H206 C213 0.950 . S
C207 C205 1.387 . S
C207 C209 1.390 . S
C207 H211 0.950 . S
H208 C204 0.950 . S
C209 C207 1.390 . S
C209 C210 1.387 . S
C209 H212 0.950 . S
C210 C209 1.387 . S
C210 C213 1.387 . S
H211 C207 0.950 . S
H212 C209 0.950 . S
C213 C204 1.390 . S
C213 H206 0.950 . S
C213 C210 1.387 . S
C214 C215 1.387 . S
C214 H218 0.950 . S
C214 C223 1.390 . S
C215 C214 1.387 . S
C215 C217 1.387 . S
H216 C223 0.950 . S
C217 C215 1.387 . S
C217 C219 1.390 . S
C217 H221 0.950 . S
H218 C214 0.950 . S
C219 C217 1.390 . S
C219 C220 1.387 . S
C219 H222 0.950 . S
C220 C219 1.387 . S
C220 C223 1.387 . S
H221 C217 0.950 . S
H222 C219 0.950 . S
C223 C214 1.390 . S
C223 H216 0.950 . S
C223 C220 1.387 . S
C224 C225 1.387 . S
C224 H228 0.950 . S
C224 C233 1.390 . S
C225 C224 1.387 . S
C225 C227 1.387 . S
H226 C233 0.950 . S
C227 C225 1.387 . S
C227 C229 1.390 . S
C227 H231 0.950 . S
H228 C224 0.950 . S
C229 C227 1.390 . S
C229 C230 1.387 . S
C229 H232 0.950 . S
C230 C229 1.387 . S
C230 C233 1.387 . S
H231 C227 0.950 . S
H232 C229 0.950 . S
C233 C224 1.390 . S
C233 H226 0.950 . S
C233 C230 1.387 . S
C234 C235 1.387 . S
C234 H238 0.950 . S
C234 C243 1.390 . S
C235 C234 1.387 . S
C235 C237 1.387 . S
H236 C243 0.950 . S
C237 C235 1.387 . S
C237 C239 1.390 . S
C237 H241 0.950 . S
H238 C234 0.950 . S
C239 C237 1.390 . S
C239 C240 1.387 . S
C239 H242 0.950 . S
C240 C239 1.387 . S
C240 C243 1.387 . S
H241 C237 0.950 . S
H242 C239 0.950 . S
C243 C234 1.390 . S
C243 H236 0.950 . S
C243 C240 1.387 . S
C244 C245 1.387 . S
C244 H248 0.950 . S
C244 C253 1.390 . S
C245 C244 1.387 . S
C245 C247 1.387 . S
H246 C253 0.950 . S
C247 C245 1.387 . S
C247 C249 1.390 . S
C247 H251 0.950 . S
H248 C244 0.950 . S
C249 C247 1.390 . S
C249 C250 1.387 . S
C249 H252 0.950 . S
C250 C249 1.387 . S
C250 C253 1.387 . S
H251 C247 0.950 . S
H252 C249 0.950 . S
C253 C244 1.390 . S
C253 H246 0.950 . S
C253 C250 1.387 . S
C254 C255 1.387 . S
C254 H258 0.950 . S
C254 C263 1.390 . S
C255 C254 1.387 . S
C255 C257 1.387 . S
H256 C263 0.950 . S
C257 C255 1.387 . S
C257 C259 1.390 1_565 S
C257 H261 0.950 1_565 S
H258 C254 0.950 . S
C259 C257 1.390 1_545 S
C259 C260 1.387 1_545 S
C259 H262 0.950 . S
C260 C259 1.387 1_565 S
C260 C263 1.387 . S
H261 C257 0.950 1_545 S
H262 C259 0.950 . S
C263 C254 1.390 . S
C263 H256 0.950 . S
C263 C260 1.387 . S
C264 C265 1.387 . S
C264 H268 0.950 . S
C264 C273 1.390 . S
C265 C264 1.387 . S
C265 C267 1.387 . S
H266 C273 0.950 . S
C267 C265 1.387 . S
C267 C269 1.390 . S
C267 H271 0.950 . S
H268 C264 0.950 . S
C269 C267 1.390 . S
C269 C270 1.387 . S
C269 H272 0.950 . S
C270 C269 1.387 . S
C270 C273 1.387 . S
H271 C267 0.950 . S
H272 C269 0.950 . S
C273 C264 1.390 . S
C273 H266 0.950 . S
C273 C270 1.387 . S
C274 C275 1.387 . S
C274 H278 0.950 . S
C274 C283 1.390 . S
C275 C274 1.387 . S
C275 C277 1.387 . S
H276 C283 0.950 . S
C277 C275 1.387 . S
C277 C279 1.390 . S
C277 H281 0.950 . S
H278 C274 0.950 . S
C279 C277 1.390 . S
C279 C280 1.387 . S
C279 H282 0.950 . S
C280 C279 1.387 . S
C280 C283 1.387 . S
H281 C277 0.950 . S
H282 C279 0.950 . S
C283 C274 1.390 . S
C283 H276 0.950 . S
C283 C280 1.387 . S
C284 C285 1.387 . S
C284 H288 0.950 . S
C284 C293 1.390 . S
C285 C284 1.387 . S
C285 C287 1.387 . S
H286 C293 0.950 . S
C287 C285 1.387 . S
C287 C289 1.390 . S
C287 H291 0.950 . S
H288 C284 0.950 . S
C289 C287 1.390 . S
C289 C290 1.387 . S
C289 H292 0.950 . S
C290 C289 1.387 . S
C290 C293 1.387 . S
H291 C287 0.950 . S
H292 C289 0.950 . S
C293 C284 1.390 . S
C293 H286 0.950 . S
C293 C290 1.387 . S
C294 C295 1.387 1_655 S
C294 H298 0.950 . S
C294 C303 1.390 1_554 S
C295 C294 1.387 1_455 S
C295 C297 1.387 . S
H296 C303 0.950 . S
C297 C295 1.387 . S
C297 C299 1.390 . S
C297 H301 0.950 . S
H298 C294 0.950 . S
C299 C297 1.390 . S
C299 C300 1.387 1_554 S
C299 H302 0.950 . S
C300 C299 1.387 1_556 S
C300 C303 1.387 1_455 S
H301 C297 0.950 . S
H302 C299 0.950 . S
C303 C294 1.390 1_556 S
C303 H296 0.950 . S
C303 C300 1.387 1_655 S
C304 C305 1.387 1_565 S
C304 H308 0.950 . S
C304 C313 1.390 . S
C305 C304 1.387 1_545 S
C305 C307 1.387 . S
H306 C313 0.950 . S
C307 C305 1.387 . S
C307 C309 1.390 . S
C307 H311 0.950 . S
H308 C304 0.950 . S
C309 C307 1.390 . S
C309 C310 1.387 . S
C309 H312 0.950 . S
C310 C309 1.387 . S
C310 C313 1.387 1_545 S
H311 C307 0.950 . S
H312 C309 0.950 . S
C313 C304 1.390 . S
C313 H306 0.950 . S
C313 C310 1.387 1_565 S
C314 C315 1.387 . S
C314 H318 0.950 . S
C314 C323 1.390 . S
C315 C314 1.387 . S
C315 C317 1.387 . S
H316 C323 0.950 . S
C317 C315 1.387 . S
C317 C319 1.390 . S
C317 H321 0.950 . S
H318 C314 0.950 . S
C319 C317 1.390 . S
C319 C320 1.387 . S
C319 H322 0.950 . S
C320 C319 1.387 . S
C320 C323 1.387 . S
H321 C317 0.950 . S
H322 C319 0.950 . S
C323 C314 1.390 . S
C323 H316 0.950 . S
C323 C320 1.387 . S
C324 C325 1.391 . S
C324 H328 0.950 . S
C324 C333 1.390 . S
C325 C324 1.391 . S
C325 C327 1.384 1_545 S
H326 C333 0.950 . S
C327 C325 1.384 1_565 S
C327 C329 1.390 . S
C327 H331 0.950 . S
H328 C324 0.950 . S
C329 C327 1.390 . S
C329 C330 1.387 1_565 S
C329 H332 0.950 . S
C330 C329 1.387 1_545 S
C330 C333 1.387 . S
H331 C327 0.950 . S
H332 C329 0.950 . S
C333 C324 1.390 . S
C333 H326 0.950 . S
C333 C330 1.387 . S
C334 C335 1.387 . S
C334 H338 0.950 . S
C334 C343 1.390 . S
C335 C334 1.387 . S
C335 C337 1.387 . S
H336 C343 0.950 1_554 S
C337 C335 1.387 . S
C337 C339 1.390 . S
C337 H341 0.950 . S
H338 C334 0.950 . S
C339 C337 1.390 . S
C339 C340 1.387 1_556 S
C339 H342 0.950 . S
C340 C339 1.387 1_554 S
C340 C343 1.387 1_554 S
H341 C337 0.950 . S
H342 C339 0.950 . S
C343 C334 1.390 . S
C343 H336 0.950 1_556 S
C343 C340 1.387 1_556 S
C344 C345 1.389 . S
C344 H348 0.950 . S
C344 C353 1.390 . S
C345 C344 1.389 . S
C345 C347 1.387 1_655 S
H346 C353 0.950 . S
C347 C345 1.387 1_455 S
C347 C349 1.390 . S
C347 H351 0.950 . S
H348 C344 0.950 . S
C349 C347 1.390 . S
C349 C350 1.387 1_455 S
C349 H352 0.950 . S
C350 C349 1.387 1_655 S
C350 C353 1.388 . S
H351 C347 0.950 . S
H352 C349 0.950 . S
C353 C344 1.390 . S
C353 H346 0.950 . S
C353 C350 1.388 . S
C175 C24 2.991 . S
C180 C169 2.969 . S
C185 C66 1.480 . S
C190 C151 1.638 . S
C195 C93 1.827 . S
C200 C163 1.821 . S
C205 C13 3.024 . S
C210 C172 3.011 . S
C220 C154 1.592 . S
C215 C57 1.511 . S
C230 C160 1.858 . S
C225 C104 1.889 . S
C235 C64 1.862 . S
C240 C133 1.822 . S
C245 C97 1.201 . S
C250 C142 1.339 . S
C255 C17 1.635 . S
C260 C124 1.760 1_565 S
C270 C136 1.804 . S
C265 C53 1.828 . S
C280 C145 1.017 . S
C275 C106 0.889 . S
C285 C26 1.522 . S
C290 C127 1.698 . S
C300 C143 0.915 . S
C295 C2 0.917 . S
C305 C63 1.413 . S
C310 C125 1.465 . S
C315 C82 1.324 . S
C320 C134 1.337 . S
C330 C161 1.369 . S
C325 C42 1.352 . S
C340 C170 1.824 . S
C335 C103 1.763 . S
C345 C23 1.437 1_655 S
C350 C152 1.479 1_655 S
