# Generated by pormake.
# Topology rtl, (3,6)-cn, num edge types: 1
# Building blocks:
#     Node 0, Type 0, BuildingBlock: BELTOD_clean_linker_0, # of connection points: 3
#     Node 1, Type 0, BuildingBlock: BELTOD_clean_linker_0, # of connection points: 3
#     Node 2, Type 0, BuildingBlock: BELTOD_clean_linker_0, # of connection points: 3
#     Node 3, Type 0, BuildingBlock: BELTOD_clean_linker_0, # of connection points: 3
#     Node 4, Type 1, BuildingBlock: FUNLAD_clean_sbu_0, # of connection points: 6
#     Node 5, Type 1, BuildingBlock: FUNLAD_clean_sbu_0, # of connection points: 6
#     Edge 6, Type (0, 1), BuildingBlock: XIVTED_clean_linker_0, # of connection points: 2
#     Edge 7, Type (0, 1), BuildingBlock: XIVTED_clean_linker_0, # of connection points: 2
#     Edge 8, Type (0, 1), BuildingBlock: XIVTED_clean_linker_0, # of connection points: 2
#     Edge 9, Type (0, 1), BuildingBlock: XIVTED_clean_linker_0, # of connection points: 2
#     Edge 10, Type (0, 1), BuildingBlock: XIVTED_clean_linker_0, # of connection points: 2
#     Edge 11, Type (0, 1), BuildingBlock: XIVTED_clean_linker_0, # of connection points: 2
#     Edge 12, Type (0, 1), BuildingBlock: XIVTED_clean_linker_0, # of connection points: 2
#     Edge 13, Type (0, 1), BuildingBlock: XIVTED_clean_linker_0, # of connection points: 2
#     Edge 14, Type (0, 1), BuildingBlock: XIVTED_clean_linker_0, # of connection points: 2
#     Edge 15, Type (0, 1), BuildingBlock: XIVTED_clean_linker_0, # of connection points: 2
#     Edge 16, Type (0, 1), BuildingBlock: XIVTED_clean_linker_0, # of connection points: 2
#     Edge 17, Type (0, 1), BuildingBlock: XIVTED_clean_linker_0, # of connection points: 2
# Relax obj value: 0.023
# Max RMSD: 0.088
# Mean RMSD: 0.075
data_MOF--net-rtl--node1-FUNLAD_clean_sbu_0--node2-BELTOD_clean_linker_0--edge1-XIVTED_clean_linker_0
_symmetry_space_group_name_H-M    P1
_symmetry_Int_Tables_number       1
_symmetry_cell_setting            triclinic
loop_
_symmetry_equiv_pos_as_xyz
'x, y, z'
_cell_length_a     46.147994
_cell_length_b     37.769508
_cell_length_c     26.133063
_cell_angle_alpha  89.056958
_cell_angle_beta   90.971089
_cell_angle_gamma 90.430225
loop_
_atom_site_label
_atom_site_type_symbol
_atom_site_fract_x
_atom_site_fract_y
_atom_site_fract_z
_atom_type_partial_charge
P0 P 0.14504 0.80113 0.02183 0.0
H1 H 0.16359 0.82817 0.12042 0.0
H2 H 0.1376 0.84013 0.19821 0.0
H3 H 0.06144 0.78801 0.13553 0.0
H4 H 0.08776 0.77685 0.05675 0.0
H5 H 0.19675 0.78836 0.96433 0.0
H6 H 0.22803 0.73731 0.95637 0.0
H7 H 0.17199 0.67637 0.05595 0.0
H8 H 0.14079 0.72832 0.06436 0.0
H9 H 0.0961 0.84823 0.00686 0.0
H10 H 0.13878 0.76775 0.921 0.0
O11 O 0.1673 0.83611 0.0187 0.0
H12 H 0.06684 0.86416 0.93148 0.0
H13 H 0.10957 0.78365 0.8454 0.0
C14 C 0.12733 0.80254 0.08247 0.0
C15 C 0.14144 0.81884 0.12367 0.0
C16 C 0.12654 0.82539 0.16844 0.0
C17 C 0.09723 0.81538 0.17305 0.0
C18 C 0.08379 0.79667 0.13286 0.0
C19 C 0.09882 0.79014 0.08794 0.0
C20 C 0.16681 0.76225 0.01562 0.0
C21 C 0.19117 0.76403 0.98449 0.0
C22 C 0.20887 0.73463 0.97953 0.0
C23 C 0.20248 0.70266 0.0054 0.0
C24 C 0.17763 0.70072 0.03592 0.0
C25 C 0.15979 0.73032 0.04071 0.0
C26 C 0.11939 0.80656 0.9698 0.0
C27 C 0.09854 0.83323 0.97225 0.0
C28 C 0.08176 0.84228 0.92912 0.0
C29 C 0.08595 0.82518 0.8825 0.0
C30 C 0.10601 0.7974 0.88077 0.0
C31 C 0.12265 0.78821 0.92409 0.0
P32 P 0.64381 0.70244 0.51049 0.0
H33 H 0.66302 0.67415 0.41445 0.0
H34 H 0.63792 0.66183 0.33414 0.0
H35 H 0.56138 0.71351 0.38905 0.0
H36 H 0.58677 0.72511 0.47032 0.0
H37 H 0.69622 0.7175 0.56858 0.0
H38 H 0.7277 0.76922 0.57418 0.0
H39 H 0.66989 0.82701 0.47173 0.0
H40 H 0.63854 0.77438 0.46563 0.0
H41 H 0.59425 0.65561 0.52386 0.0
H42 H 0.63795 0.73738 0.60967 0.0
O43 O 0.66605 0.66794 0.51682 0.0
H44 H 0.56508 0.64052 0.59814 0.0
H45 H 0.60879 0.72239 0.68417 0.0
C46 C 0.62645 0.69958 0.44866 0.0
C47 C 0.64095 0.6832 0.40902 0.0
C48 C 0.62659 0.67648 0.36282 0.0
C49 C 0.59747 0.68639 0.35523 0.0
C50 C 0.58361 0.70497 0.39403 0.0
C51 C 0.59809 0.71169 0.44038 0.0
C52 C 0.66544 0.74195 0.51592 0.0
C53 C 0.69028 0.74129 0.54735 0.0
C54 C 0.70809 0.7711 0.55097 0.0
C55 C 0.7013 0.80234 0.52345 0.0
C56 C 0.67586 0.80323 0.49296 0.0
C57 C 0.65793 0.77323 0.48949 0.0
C58 C 0.61803 0.69787 0.56096 0.0
C59 C 0.5969 0.67111 0.55815 0.0
C60 C 0.58018 0.66255 0.60065 0.0
C61 C 0.5847 0.68024 0.64703 0.0
C62 C 0.60497 0.70818 0.64899 0.0
C63 C 0.62158 0.71687 0.6063 0.0
P64 P 0.91088 0.29946 -0.00184 0.0
H65 H 0.88862 0.29961 0.89228 0.0
H66 H 0.89842 0.26204 0.8191 0.0
H67 H 0.95819 0.2007 0.91281 0.0
H68 H 0.94828 0.23792 0.98552 0.0
H69 H 0.88691 0.3682 0.02365 0.0
H70 H 0.83736 0.39069 0.02492 0.0
H71 H 0.8051 0.28959 0.97284 0.0
H72 H 0.85473 0.26727 0.9717 0.0
H73 H 0.963 0.28952 0.06131 0.0
H74 H 0.8738 0.25479 0.06356 0.0
O75 O 0.93413 0.33341 0.99422 0.0
H76 H 0.97374 0.25194 0.13593 0.0
H77 H 0.88391 0.21857 0.1394 0.0
C78 C 0.91707 0.27101 0.94484 0.0
C79 C 0.90349 0.27774 0.89728 0.0
C80 C 0.90911 0.2563 0.85549 0.0
C81 C 0.92898 0.22838 0.86036 0.0
C82 C 0.94287 0.22213 0.90786 0.0
C83 C 0.93702 0.2433 0.94965 0.0
C84 C 0.87448 0.31629 -0.00321 0.0
C85 C 0.8692 0.351 0.01201 0.0
C86 C 0.84089 0.36384 0.01265 0.0
C87 C 0.81738 0.34193 -0.0012 0.0
C88 C 0.82277 0.30701 0.984 0.0
C89 C 0.85111 0.29432 0.98297 0.0
C90 C 0.91753 0.27544 0.05725 0.0
C91 C 0.94556 0.27447 0.07862 0.0
C92 C 0.95163 0.25299 0.12146 0.0
C93 C 0.9297 0.23213 0.14388 0.0
C94 C 0.90147 0.23379 0.12279 0.0
C95 C 0.89554 0.25494 0.0796 0.0
P96 P 0.41644 0.199 0.51831 0.0
H97 H 0.45166 0.18998 0.61203 0.0
H98 H 0.46255 0.22883 0.68339 0.0
H99 H 0.40694 0.30885 0.61429 0.0
H100 H 0.39853 0.27115 0.54146 0.0
H101 H 0.39079 0.13256 0.48396 0.0
H102 H 0.34122 0.10938 0.48324 0.0
H103 H 0.31201 0.20577 0.55235 0.0
H104 H 0.36142 0.22783 0.55494 0.0
H105 H 0.46606 0.20715 0.45142 0.0
H106 H 0.37884 0.24673 0.45797 0.0
O107 O 0.43945 0.16509 0.52035 0.0
H108 H 0.47498 0.24455 0.37632 0.0
H109 H 0.38795 0.28561 0.38464 0.0
C110 C 0.42423 0.22758 0.57138 0.0
C111 C 0.44207 0.21604 0.61211 0.0
C112 C 0.44801 0.23827 0.65333 0.0
C113 C 0.43562 0.27223 0.65517 0.0
C114 C 0.41752 0.28338 0.61417 0.0
C115 C 0.4123 0.26153 0.57247 0.0
C116 C 0.38001 0.18167 0.52033 0.0
C117 C 0.37374 0.14845 0.49961 0.0
C118 C 0.34531 0.13539 0.49874 0.0
C119 C 0.32255 0.15564 0.5179 0.0
C120 C 0.32901 0.18907 0.53828 0.0
C121 C 0.35743 0.20189 0.53953 0.0
C122 C 0.4217 0.22384 0.45989 0.0
C123 C 0.44874 0.22372 0.43644 0.0
C124 C 0.45391 0.24549 0.39381 0.0
C125 C 0.43226 0.2684 0.37447 0.0
C126 C 0.405 0.268 0.39783 0.0
C127 C 0.39978 0.24585 0.44006 0.0
C128 C 0.01163 0.96487 0.43817 0.0
N129 N 0.05913 0.04604 0.50728 0.0
C130 C 0.08153 0.02284 0.50656 0.0
C131 C 0.11008 0.03514 0.50645 0.0
C132 C 0.11567 0.07167 0.50767 0.0
C133 C 0.0922 0.09508 0.50865 0.0
C134 C 0.06392 0.08162 0.50816 0.0
Zn135 Zn 0.01787 0.02625 0.50779 0.0
C136 C 0.97996 0.06099 0.42918 0.0
N137 N 0.93224 0.98303 0.50869 0.0
C138 C 0.929 0.94763 0.51736 0.0
C139 C 0.90882 0.0045 0.50231 0.0
C140 C 0.88076 0.99045 0.50503 0.0
C141 C 0.87695 0.95418 0.51538 0.0
C142 C 0.90144 0.93265 0.5213 0.0
Zn143 Zn 0.97327 0.00355 0.5076 0.0
O144 O 0.02922 0.98848 0.45377 0.0
C145 C 0.01187 0.96903 0.58597 0.0
O146 O 0.98572 0.96459 0.45396 0.0
H147 H 0.9119 0.03261 0.4957 0.0
H148 H 0.07729 0.99464 0.50637 0.0
H149 H 0.94785 0.93096 0.52174 0.0
O150 O 0.02996 0.99061 0.56655 0.0
O151 O 0.9858 0.96897 0.56955 0.0
H152 H 0.04579 0.09959 0.50858 0.0
O153 O 0.96145 0.04265 0.56121 0.0
O154 O 0.00601 0.06339 0.5626 0.0
O155 O 0.96173 0.03842 0.44606 0.0
O156 O 0.0054 0.06191 0.44854 0.0
C157 C 0.98016 0.06454 0.5784 0.0
H158 H 0.12761 0.01623 0.50635 0.0
H159 H 0.09568 0.12347 0.50924 0.0
H160 H 0.86229 0.0078 0.50039 0.0
H161 H 0.89926 0.90445 0.52868 0.0
C162 C 0.47693 0.43863 0.94228 0.0
N163 N 0.55705 0.45767 0.01492 0.0
C164 C 0.56127 0.42206 0.0156 0.0
C165 C 0.5893 0.40839 0.01463 0.0
C166 C 0.61325 0.43159 0.01321 0.0
C167 C 0.60818 0.46823 0.01314 0.0
C168 C 0.57982 0.48074 0.01381 0.0
Zn169 Zn 0.51588 0.47725 0.01422 0.0
C170 C 0.50875 0.53443 0.93597 0.0
N171 N 0.43009 0.51906 0.01184 0.0
C172 C 0.40652 0.49746 0.01718 0.0
C173 C 0.4271 0.55464 0.00509 0.0
C174 C 0.39965 0.56973 0.00231 0.0
C175 C 0.375 0.54812 0.00744 0.0
C176 C 0.37858 0.51159 0.01557 0.0
Zn177 Zn 0.47108 0.49884 0.01294 0.0
O178 O 0.50253 0.43874 0.96092 0.0
C179 C 0.47911 0.44156 0.09171 0.0
O180 O 0.45882 0.46143 0.95684 0.0
H181 H 0.44607 0.57143 0.00162 0.0
H182 H 0.54286 0.40418 0.01644 0.0
H183 H 0.40937 0.46923 0.02236 0.0
O184 O 0.50473 0.44284 0.07474 0.0
O185 O 0.45992 0.46204 0.07242 0.0
H186 H 0.57602 0.50896 0.01326 0.0
O187 O 0.48412 0.5365 0.06889 0.0
O188 O 0.52849 0.51606 0.06686 0.0
O189 O 0.4832 0.53493 0.95329 0.0
O190 O 0.52679 0.51216 0.95417 0.0
C191 C 0.51046 0.53803 0.0838 0.0
H192 H 0.59208 0.37997 0.01406 0.0
H193 H 0.62592 0.48715 0.01294 0.0
H194 H 0.39771 0.5981 -0.00332 0.0
H195 H 0.35998 0.49415 0.01956 0.0
H196 H 0.29542 0.11744 0.44206 0.0
H197 H 0.1394 0.12255 0.56911 0.0
H198 H 0.2801 0.16373 0.58915 0.0
H199 H 0.16062 0.05114 0.44836 0.0
H200 H 0.18985 0.14308 0.57152 0.0
H201 H 0.24511 0.09701 0.43914 0.0
C202 C 0.28162 0.12308 0.47397 0.0
C203 C 0.29213 0.14238 0.51595 0.0
C204 C 0.18345 0.12291 0.54452 0.0
C205 C 0.23428 0.11969 0.51219 0.0
C206 C 0.15466 0.11139 0.54289 0.0
C207 C 0.1459 0.0851 0.50854 0.0
C208 C 0.20352 0.10829 0.51119 0.0
C209 C 0.16659 0.07122 0.47576 0.0
C210 C 0.25282 0.11159 0.47207 0.0
C211 C 0.27292 0.14949 0.5556 0.0
N212 N 0.19444 0.08306 0.47778 0.0
N213 N 0.24493 0.13825 0.55265 0.0
H214 H 0.23005 0.67916 0.92059 0.0
H215 H 0.33029 0.54055 0.07454 0.0
H216 H 0.22103 0.65714 0.08217 0.0
H217 H 0.35373 0.59197 0.93248 0.0
H218 H 0.28388 0.57221 0.07142 0.0
H219 H 0.26888 0.63576 0.91805 0.0
C220 C 0.2361 0.66502 0.9555 0.0
C221 C 0.22265 0.67235 0.0019 0.0
C222 C 0.2991 0.57622 0.04075 0.0
C223 C 0.26694 0.62235 -0.00092 0.0
C224 C 0.32544 0.55812 0.0424 0.0
C225 C 0.34584 0.56403 0.00395 0.0
C226 C 0.29311 0.59989 -4e-05 0.0
C227 C 0.33867 0.58709 0.96319 0.0
C228 C 0.25821 0.64019 0.95397 0.0
C229 C 0.23082 0.65241 0.04559 0.0
N230 N 0.31294 0.60424 0.96232 0.0
N231 N 0.2527 0.62855 0.04326 0.0
H232 H 0.71813 0.8457 0.4437 0.0
H233 H 0.85711 0.91341 0.5941 0.0
H234 H 0.73153 0.82825 0.60603 0.0
H235 H 0.83069 0.95924 0.44868 0.0
H236 H 0.81034 0.883 0.59936 0.0
H237 H 0.75761 0.8893 0.44457 0.0
C238 C 0.72895 0.85152 0.47971 0.0
C239 C 0.72182 0.83281 0.52472 0.0
C240 C 0.81455 0.90002 0.56653 0.0
C241 C 0.76734 0.88209 0.5257 0.0
C242 C 0.84128 0.91719 0.56344 0.0
C243 C 0.84771 0.93852 0.52072 0.0
C244 C 0.79428 0.90367 0.52612 0.0
C245 C 0.82644 0.94294 0.48222 0.0
C246 C 0.7516 0.87629 0.48011 0.0
C247 C 0.73679 0.84131 0.57016 0.0
N248 N 0.80075 0.9252 0.48544 0.0
N249 N 0.75908 0.86492 0.56933 0.0
H250 H 0.79701 0.40587 0.96369 0.0
H251 H 0.63589 0.37288 0.06256 0.0
H252 H 0.7694 0.3086 0.03744 0.0
H253 H 0.65931 0.45863 0.95959 0.0
H254 H 0.68533 0.35063 0.05846 0.0
H255 H 0.74735 0.42776 0.96727 0.0
C256 C 0.78049 0.38918 0.98079 0.0
C257 C 0.78731 0.35537 0.00028 0.0
C258 C 0.67961 0.3743 0.03673 0.0
C259 C 0.73046 0.38017 0.00441 0.0
C260 C 0.65132 0.38694 0.03883 0.0
C261 C 0.64331 0.41774 0.01138 0.0
C262 C 0.70016 0.39265 0.00724 0.0
C263 C 0.66451 0.43515 0.98209 0.0
C264 C 0.75213 0.40159 0.98257 0.0
C265 C 0.765 0.33468 0.0215 0.0
N266 N 0.69194 0.4224 0.98088 0.0
N267 N 0.73759 0.34746 0.02319 0.0
H268 H 0.04134 0.84005 0.1732 0.0
H269 H 0.06685 0.94222 0.4288 0.0
H270 H 0.11481 0.81983 0.27373 0.0
H271 H 0.98016 0.92498 0.36941 0.0
H272 H 0.08484 0.8986 0.36974 0.0
H273 H 0.01768 0.87064 0.24266 0.0
C274 C 0.05226 0.84125 0.21013 0.0
C275 C 0.0804 0.82781 0.21726 0.0
C276 C 0.06183 0.90405 0.36986 0.0
C277 C 0.05369 0.86365 0.29629 0.0
C278 C 0.05158 0.92917 0.40326 0.0
C279 C 0.02201 0.93741 0.40359 0.0
C280 C 0.04252 0.8875 0.33565 0.0
C281 C 0.00314 0.91939 0.37016 0.0
C282 C 0.03876 0.85895 0.24966 0.0
C283 C 0.0935 0.83062 0.26594 0.0
N284 N 0.01378 0.89558 0.33684 0.0
N285 N 0.08026 0.84875 0.30326 0.0
H286 H 0.61079 0.66907 0.74008 0.0
H287 H 0.47465 0.57381 0.86962 0.0
H288 H 0.52826 0.6587 0.66135 0.0
H289 H 0.56387 0.55341 0.91203 0.0
H290 H 0.49136 0.61503 0.80234 0.0
H291 H 0.5907 0.63806 0.81408 0.0
C292 C 0.58824 0.66095 0.73875 0.0
C293 C 0.57119 0.66635 0.6944 0.0
C294 C 0.50717 0.60156 0.82662 0.0
C295 C 0.54824 0.63023 0.77871 0.0
C296 C 0.49769 0.57813 0.86493 0.0
C297 C 0.51794 0.55996 0.89604 0.0
C298 C 0.53701 0.60721 0.82025 0.0
C299 C 0.54753 0.56655 0.88852 0.0
C300 C 0.57688 0.6429 0.78082 0.0
C301 C 0.54221 0.6547 0.69464 0.0
N302 N 0.55615 0.58966 0.85148 0.0
N303 N 0.53164 0.63697 0.73611 0.0
H304 H 0.96758 0.24288 0.22474 0.0
H305 H 0.93146 0.05957 0.36727 0.0
H306 H 0.90733 0.1657 0.16353 0.0
H307 H 0.00951 0.12008 0.39712 0.0
H308 H 0.91842 0.10185 0.29883 0.0
H309 H 0.97955 0.20152 0.29461 0.0
C310 C 0.95691 0.21726 0.22578 0.0
C311 C 0.93643 0.20785 0.18789 0.0
C312 C 0.93841 0.1058 0.32037 0.0
C313 C 0.94972 0.16063 0.26848 0.0
C314 C 0.94583 0.08175 0.35948 0.0
C315 C 0.97166 0.08624 0.3878 0.0
C316 C 0.95676 0.13476 0.30996 0.0
C317 C 0.98946 0.11548 0.37606 0.0
C318 C 0.96369 0.19373 0.26586 0.0
C319 C 0.9229 0.17447 0.19213 0.0
N320 N 0.98163 0.13869 0.33815 0.0
N321 N 0.92976 0.15211 0.23167 0.0
H322 H 0.44613 0.25377 0.75661 0.0
H323 H 0.43694 0.44705 0.8651 0.0
H324 H 0.43845 0.34524 0.65555 0.0
H325 H 0.49871 0.37253 0.92877 0.0
H326 H 0.42622 0.40574 0.7956 0.0
H327 H 0.4557 0.29346 0.82794 0.0
C328 C 0.44658 0.28201 0.74903 0.0
C329 C 0.44142 0.29592 0.69943 0.0
C330 C 0.44198 0.39849 0.82505 0.0
C331 C 0.45116 0.34129 0.78167 0.0
C332 C 0.44796 0.42183 0.86473 0.0
C333 C 0.46879 0.41312 0.90244 0.0
C334 C 0.45638 0.36594 0.82399 0.0
C335 C 0.48263 0.38024 0.90013 0.0
C336 C 0.45182 0.30458 0.78999 0.0
C337 C 0.44157 0.333 0.69291 0.0
N338 N 0.47604 0.35764 0.86164 0.0
N339 N 0.44611 0.35436 0.7336 0.0
H340 H 0.61641 0.68317 0.2564 0.0
H341 H 0.47843 0.57571 0.15153 0.0
H342 H 0.54158 0.66115 0.34903 0.0
H343 H 0.56541 0.563 0.09683 0.0
H344 H 0.49691 0.61929 0.21319 0.0
H345 H 0.59285 0.6522 0.18554 0.0
C346 C 0.59491 0.67218 0.26172 0.0
C347 C 0.58123 0.67416 0.30915 0.0
C348 C 0.5118 0.60707 0.18732 0.0
C349 C 0.55407 0.63906 0.22799 0.0
C350 C 0.50132 0.5823 0.15224 0.0
C351 C 0.52051 0.56547 0.11958 0.0
C352 C 0.54151 0.61543 0.1888 0.0
C353 C 0.54994 0.57499 0.12184 0.0
C354 C 0.58148 0.65458 0.22123 0.0
C355 C 0.55298 0.6603 0.31323 0.0
N356 N 0.55952 0.59933 0.15586 0.0
N357 N 0.54044 0.64296 0.27332 0.0
H358 H 0.89102 0.19814 0.79171 0.0
H359 H 0.01627 0.10966 0.62999 0.0
H360 H 0.98221 0.208 0.82824 0.0
H361 H 0.92623 0.07886 0.61554 0.0
H362 H 0.00345 0.15117 0.69621 0.0
H363 H 0.90288 0.15969 0.72038 0.0
C364 C 0.91352 0.19239 0.78447 0.0
C365 C 0.93567 0.20607 0.81603 0.0
C366 C 0.98647 0.13537 0.67855 0.0
C367 C 0.94936 0.16225 0.73482 0.0
C368 C 0.99376 0.1117 0.6406 0.0
C369 C 0.9723 0.0906 0.61733 0.0
C370 C 0.95748 0.13823 0.69323 0.0
C371 C 0.94349 0.09448 0.63265 0.0
C372 C 0.92026 0.17032 0.74402 0.0
C373 C 0.96445 0.19761 0.80526 0.0
N374 N 0.9369 0.11785 0.66969 0.0
N375 N 0.97046 0.17629 0.76556 0.0
H376 H 0.39577 0.29042 0.29573 0.0
H377 H 0.5168 0.40459 0.15324 0.0
H378 H 0.48294 0.30435 0.35536 0.0
H379 H 0.42536 0.42079 0.12502 0.0
H380 H 0.50511 0.3623 0.22144 0.0
H381 H 0.40651 0.33319 0.22721 0.0
C382 C 0.41711 0.30248 0.29465 0.0
C383 C 0.43849 0.29357 0.33154 0.0
C384 C 0.48759 0.37516 0.20044 0.0
C385 C 0.45097 0.34205 0.2526 0.0
C386 C 0.49423 0.39924 0.16138 0.0
C387 C 0.472 0.41629 0.13346 0.0
C388 C 0.4585 0.36767 0.21136 0.0
C389 C 0.44316 0.40834 0.14578 0.0
C390 C 0.42322 0.3268 0.25538 0.0
C391 C 0.46591 0.3097 0.3274 0.0
N392 N 0.43721 0.38442 0.18373 0.0
N393 N 0.47136 0.33302 0.28863 0.0
H394 H 0.0295 0.84609 0.86638 0.0
H395 H 0.06723 0.95018 0.61005 0.0
H396 H 0.11152 0.83778 0.79075 0.0
H397 H 0.97869 0.9308 0.65397 0.0
H398 H 0.08361 0.91016 0.67836 0.0
H399 H 0.00981 0.87756 0.79072 0.0
C400 C 0.04322 0.85049 0.83362 0.0
C401 C 0.0722 0.8394 0.83487 0.0
C402 C 0.06057 0.91442 0.67294 0.0
C403 C 0.05001 0.87557 0.74884 0.0
C404 C 0.0512 0.93747 0.63413 0.0
C405 C 0.02156 0.944 0.62658 0.0
C406 C 0.04021 0.89812 0.70511 0.0
C407 C 0.00176 0.92651 0.65862 0.0
C408 C 0.03197 0.86832 0.7905 0.0
C409 C 0.08899 0.84555 0.79132 0.0
N410 N 0.01146 0.90459 0.69696 0.0
N411 N 0.07777 0.86359 0.75039 0.0
loop_
_geom_bond_atom_site_label_1
_geom_bond_atom_site_label_2
_geom_bond_distance
_geom_bond_site_symmetry_2
_ccdc_geom_bond_type
P0 O11 1.490 . S
P0 C14 1.812 . S
P0 C20 1.803 . S
P0 C26 1.819 1_554 S
H1 C15 0.941 . S
H2 C16 0.939 . S
H3 C18 0.940 . S
H4 C19 0.940 . S
H5 C21 0.939 1_556 S
H6 C22 0.942 1_556 S
H7 C24 0.940 . S
H8 C25 0.939 . S
H9 C27 0.941 . S
H10 C31 0.939 . S
O11 P0 1.490 . S
H12 C28 0.939 . S
H13 C30 0.940 . S
C14 P0 1.812 . S
C14 C15 1.389 . S
C14 C19 1.391 . S
C15 H1 0.941 . S
C15 C14 1.389 . S
C15 C16 1.397 . S
C16 H2 0.939 . S
C16 C15 1.397 . S
C16 C17 1.378 . S
C17 C16 1.378 . S
C17 C18 1.378 . S
C18 H3 0.940 . S
C18 C17 1.378 . S
C18 C19 1.396 . S
C19 H4 0.940 . S
C19 C14 1.391 . S
C19 C18 1.396 . S
C20 P0 1.803 . S
C20 C21 1.378 . S
C20 C25 1.400 . S
C21 H5 0.939 1_554 S
C21 C20 1.378 . S
C21 C22 1.361 . S
C22 H6 0.942 1_554 S
C22 C21 1.361 . S
C22 C23 1.369 . S
C23 C22 1.369 . S
C23 C24 1.404 . S
C24 H7 0.940 . S
C24 C23 1.404 . S
C24 C25 1.389 . S
C25 H8 0.939 . S
C25 C20 1.400 . S
C25 C24 1.389 . S
C26 P0 1.819 1_556 S
C26 C27 1.391 . S
C26 C31 1.391 . S
C27 H9 0.941 . S
C27 C26 1.391 . S
C27 C28 1.396 . S
C28 H12 0.939 . S
C28 C27 1.396 . S
C28 C29 1.397 . S
C29 C28 1.397 . S
C29 C30 1.385 . S
C30 H13 0.940 . S
C30 C29 1.385 . S
C30 C31 1.388 . S
C31 H10 0.939 . S
C31 C26 1.391 . S
C31 C30 1.388 . S
P32 O43 1.490 . S
P32 C46 1.812 . S
P32 C52 1.803 . S
P32 C58 1.819 . S
H33 C47 0.941 . S
H34 C48 0.939 . S
H35 C50 0.940 . S
H36 C51 0.940 . S
H37 C53 0.939 . S
H38 C54 0.942 . S
H39 C56 0.940 . S
H40 C57 0.939 . S
H41 C59 0.941 . S
H42 C63 0.939 . S
O43 P32 1.490 . S
H44 C60 0.939 . S
H45 C62 0.940 . S
C46 P32 1.812 . S
C46 C47 1.389 . S
C46 C51 1.391 . S
C47 H33 0.941 . S
C47 C46 1.389 . S
C47 C48 1.397 . S
C48 H34 0.939 . S
C48 C47 1.397 . S
C48 C49 1.378 . S
C49 C48 1.378 . S
C49 C50 1.378 . S
C50 H35 0.940 . S
C50 C49 1.378 . S
C50 C51 1.396 . S
C51 H36 0.940 . S
C51 C46 1.391 . S
C51 C50 1.396 . S
C52 P32 1.803 . S
C52 C53 1.378 . S
C52 C57 1.400 . S
C53 H37 0.939 . S
C53 C52 1.378 . S
C53 C54 1.361 . S
C54 H38 0.942 . S
C54 C53 1.361 . S
C54 C55 1.369 . S
C55 C54 1.369 . S
C55 C56 1.404 . S
C56 H39 0.940 . S
C56 C55 1.404 . S
C56 C57 1.389 . S
C57 H40 0.939 . S
C57 C52 1.400 . S
C57 C56 1.389 . S
C58 P32 1.819 . S
C58 C59 1.391 . S
C58 C63 1.391 . S
C59 H41 0.941 . S
C59 C58 1.391 . S
C59 C60 1.396 . S
C60 H44 0.939 . S
C60 C59 1.396 . S
C60 C61 1.397 . S
C61 C60 1.397 . S
C61 C62 1.385 . S
C62 H45 0.940 . S
C62 C61 1.385 . S
C62 C63 1.388 . S
C63 H42 0.939 . S
C63 C58 1.391 . S
C63 C62 1.388 . S
P64 O75 1.490 . S
P64 C78 1.812 1_554 S
P64 C84 1.803 . S
P64 C90 1.819 . S
H65 C79 0.941 . S
H66 C80 0.939 . S
H67 C82 0.940 . S
H68 C83 0.940 . S
H69 C85 0.939 . S
H70 C86 0.942 . S
H71 C88 0.940 . S
H72 C89 0.939 . S
H73 C91 0.941 . S
H74 C95 0.939 . S
O75 P64 1.490 . S
H76 C92 0.939 . S
H77 C94 0.940 . S
C78 P64 1.812 1_556 S
C78 C79 1.389 . S
C78 C83 1.391 . S
C79 H65 0.941 . S
C79 C78 1.389 . S
C79 C80 1.397 . S
C80 H66 0.939 . S
C80 C79 1.397 . S
C80 C81 1.378 . S
C81 C80 1.378 . S
C81 C82 1.378 . S
C82 H67 0.940 . S
C82 C81 1.378 . S
C82 C83 1.396 . S
C83 H68 0.940 . S
C83 C78 1.391 . S
C83 C82 1.396 . S
C84 P64 1.803 . S
C84 C85 1.378 . S
C84 C89 1.400 1_554 S
C85 H69 0.939 . S
C85 C84 1.378 . S
C85 C86 1.361 . S
C86 H70 0.942 . S
C86 C85 1.361 . S
C86 C87 1.369 . S
C87 C86 1.369 . S
C87 C88 1.404 1_554 S
C88 H71 0.940 . S
C88 C87 1.404 1_556 S
C88 C89 1.389 . S
C89 H72 0.939 . S
C89 C84 1.400 1_556 S
C89 C88 1.389 . S
C90 P64 1.819 . S
C90 C91 1.391 . S
C90 C95 1.391 . S
C91 H73 0.941 . S
C91 C90 1.391 . S
C91 C92 1.396 . S
C92 H76 0.939 . S
C92 C91 1.396 . S
C92 C93 1.397 . S
C93 C92 1.397 . S
C93 C94 1.385 . S
C94 H77 0.940 . S
C94 C93 1.385 . S
C94 C95 1.388 . S
C95 H74 0.939 . S
C95 C90 1.391 . S
C95 C94 1.388 . S
P96 O107 1.490 . S
P96 C110 1.812 . S
P96 C116 1.803 . S
P96 C122 1.819 . S
H97 C111 0.941 . S
H98 C112 0.939 . S
H99 C114 0.940 . S
H100 C115 0.940 . S
H101 C117 0.939 . S
H102 C118 0.942 . S
H103 C120 0.940 . S
H104 C121 0.939 . S
H105 C123 0.941 . S
H106 C127 0.939 . S
O107 P96 1.490 . S
H108 C124 0.939 . S
H109 C126 0.940 . S
C110 P96 1.812 . S
C110 C111 1.389 . S
C110 C115 1.391 . S
C111 H97 0.941 . S
C111 C110 1.389 . S
C111 C112 1.397 . S
C112 H98 0.939 . S
C112 C111 1.397 . S
C112 C113 1.378 . S
C113 C112 1.378 . S
C113 C114 1.378 . S
C114 H99 0.940 . S
C114 C113 1.378 . S
C114 C115 1.396 . S
C115 H100 0.940 . S
C115 C110 1.391 . S
C115 C114 1.396 . S
C116 P96 1.803 . S
C116 C117 1.378 . S
C116 C121 1.400 . S
C117 H101 0.939 . S
C117 C116 1.378 . S
C117 C118 1.361 . S
C118 H102 0.942 . S
C118 C117 1.361 . S
C118 C119 1.369 . S
C119 C118 1.369 . S
C119 C120 1.404 . S
C120 H103 0.940 . S
C120 C119 1.404 . S
C120 C121 1.389 . S
C121 H104 0.939 . S
C121 C116 1.400 . S
C121 C120 1.389 . S
C122 P96 1.819 . S
C122 C123 1.391 . S
C122 C127 1.391 . S
C123 H105 0.941 . S
C123 C122 1.391 . S
C123 C124 1.396 . S
C124 H108 0.939 . S
C124 C123 1.396 . S
C124 C125 1.397 . S
C125 C124 1.397 . S
C125 C126 1.385 . S
C126 H109 0.940 . S
C126 C125 1.385 . S
C126 C127 1.388 . S
C127 H106 0.939 . S
C127 C122 1.391 . S
C127 C126 1.388 . S
C128 O144 1.251 . S
C128 O146 1.254 1_455 S
N129 C130 1.333 . S
N129 C134 1.307 . S
N129 Zn135 2.020 . S
C130 N129 1.333 . S
C130 C131 1.379 . S
C130 H148 0.952 . S
C131 C130 1.379 . S
C131 C132 1.390 . S
C131 H158 0.949 . S
C132 C131 1.390 . S
C132 C133 1.357 . S
C133 C132 1.357 . S
C133 C134 1.370 . S
C133 H159 0.950 . S
C134 N129 1.307 . S
C134 C133 1.370 . S
C134 H152 0.948 . S
Zn135 N129 2.020 . S
Zn135 O144 2.039 1_545 S
Zn135 O150 2.034 1_545 S
Zn135 O154 2.025 . S
Zn135 O156 2.024 . S
C136 O155 1.246 . S
C136 O156 1.249 1_655 S
N137 C138 1.307 . S
N137 C139 1.333 . S
N137 Zn143 2.020 . S
C138 N137 1.307 . S
C138 C142 1.370 . S
C138 H149 0.948 . S
C139 N137 1.333 . S
C139 C140 1.379 . S
C139 H147 0.952 . S
C140 C139 1.379 . S
C140 C141 1.390 . S
C140 H160 0.949 . S
C141 C140 1.390 . S
C141 C142 1.357 . S
C142 C138 1.370 . S
C142 C141 1.357 . S
C142 H161 0.950 . S
Zn143 N137 2.020 . S
Zn143 O146 2.025 . S
Zn143 O151 2.024 . S
Zn143 O153 2.039 1_565 S
Zn143 O155 2.034 1_565 S
O144 C128 1.251 . S
O144 Zn135 2.039 1_565 S
C145 O150 1.246 . S
C145 O151 1.249 1_455 S
O146 C128 1.254 1_655 S
O146 Zn143 2.025 . S
H147 C139 0.952 . S
H148 C130 0.952 . S
H149 C138 0.948 . S
O150 Zn135 2.034 1_565 S
O150 C145 1.246 . S
O151 Zn143 2.024 . S
O151 C145 1.249 1_655 S
H152 C134 0.948 . S
O153 Zn143 2.039 1_545 S
O153 C157 1.251 . S
O154 Zn135 2.025 . S
O154 C157 1.254 1_455 S
O155 C136 1.246 . S
O155 Zn143 2.034 1_545 S
O156 Zn135 2.024 . S
O156 C136 1.249 1_455 S
C157 O153 1.251 . S
C157 O154 1.254 1_655 S
H158 C131 0.949 . S
H159 C133 0.950 . S
H160 C140 0.949 . S
H161 C142 0.950 . S
C162 O178 1.251 . S
C162 O180 1.254 . S
N163 C164 1.333 . S
N163 C168 1.307 . S
N163 Zn169 2.020 . S
C164 N163 1.333 . S
C164 C165 1.379 . S
C164 H182 0.952 1_554 S
C165 C164 1.379 . S
C165 C166 1.390 . S
C165 H192 0.949 1_554 S
C166 C165 1.390 . S
C166 C167 1.357 . S
C167 C166 1.357 . S
C167 C168 1.370 . S
C167 H193 0.950 . S
C168 N163 1.307 . S
C168 C167 1.370 . S
C168 H186 0.948 . S
Zn169 N163 2.020 . S
Zn169 O178 2.039 1_554 S
Zn169 O184 2.034 . S
Zn169 O188 2.025 . S
Zn169 O190 2.024 1_554 S
C170 O189 1.246 . S
C170 O190 1.249 . S
N171 C172 1.307 . S
N171 C173 1.333 . S
N171 Zn177 2.020 . S
C172 N171 1.307 . S
C172 C176 1.370 . S
C172 H183 0.948 1_554 S
C173 N171 1.333 . S
C173 C174 1.379 . S
C173 H181 0.952 . S
C174 C173 1.379 . S
C174 C175 1.390 . S
C174 H194 0.949 . S
C175 C174 1.390 . S
C175 C176 1.357 . S
C176 C172 1.370 . S
C176 C175 1.357 . S
C176 H195 0.950 1_554 S
Zn177 N171 2.020 . S
Zn177 O180 2.025 1_554 S
Zn177 O185 2.024 . S
Zn177 O187 2.039 . S
Zn177 O189 2.034 1_554 S
O178 C162 1.251 . S
O178 Zn169 2.039 1_556 S
C179 O184 1.246 . S
C179 O185 1.249 . S
O180 C162 1.254 . S
O180 Zn177 2.025 1_556 S
H181 C173 0.952 . S
H182 C164 0.952 1_556 S
H183 C172 0.948 1_556 S
O184 Zn169 2.034 . S
O184 C179 1.246 . S
O185 Zn177 2.024 . S
O185 C179 1.249 . S
H186 C168 0.948 . S
O187 Zn177 2.039 . S
O187 C191 1.251 . S
O188 Zn169 2.025 . S
O188 C191 1.254 . S
O189 C170 1.246 . S
O189 Zn177 2.034 1_556 S
O190 Zn169 2.024 1_556 S
O190 C170 1.249 . S
C191 O187 1.251 . S
C191 O188 1.254 . S
H192 C165 0.949 1_556 S
H193 C167 0.950 . S
H194 C174 0.949 . S
H195 C176 0.950 1_556 S
H196 C202 0.930 . S
H197 C206 0.930 . S
H198 C211 0.929 . S
H199 C209 0.929 . S
H200 C204 0.929 . S
H201 C210 0.929 . S
C202 H196 0.930 . S
C202 C203 1.367 . S
C202 C210 1.378 . S
C203 C202 1.367 . S
C203 C211 1.433 . S
C204 H200 0.929 . S
C204 C206 1.378 . S
C204 C208 1.350 . S
C205 C208 1.463 . S
C205 C210 1.350 . S
C205 N213 1.427 . S
C206 H197 0.930 . S
C206 C204 1.378 . S
C206 C207 1.367 . S
C207 C206 1.367 . S
C207 C209 1.433 . S
C208 C204 1.350 . S
C208 C205 1.463 . S
C208 N212 1.427 . S
C209 H199 0.929 . S
C209 C207 1.433 . S
C209 N212 1.384 . S
C210 H201 0.929 . S
C210 C202 1.378 . S
C210 C205 1.350 . S
C211 H198 0.929 . S
C211 C203 1.433 . S
C211 N213 1.384 . S
N212 C208 1.427 . S
N212 C209 1.384 . S
N213 C205 1.427 . S
N213 C211 1.384 . S
H214 C220 0.930 . S
H215 C224 0.930 . S
H216 C229 0.929 . S
H217 C227 0.929 . S
H218 C222 0.929 . S
H219 C228 0.929 . S
C220 H214 0.930 . S
C220 C221 1.367 1_556 S
C220 C228 1.378 . S
C221 C220 1.367 1_554 S
C221 C229 1.433 . S
C222 H218 0.929 . S
C222 C224 1.378 . S
C222 C226 1.350 . S
C223 C226 1.463 . S
C223 C228 1.350 1_554 S
C223 N231 1.427 . S
C224 H215 0.930 . S
C224 C222 1.378 . S
C224 C225 1.367 . S
C225 C224 1.367 . S
C225 C227 1.433 1_554 S
C226 C222 1.350 . S
C226 C223 1.463 . S
C226 N230 1.427 1_554 S
C227 H217 0.929 . S
C227 C225 1.433 1_556 S
C227 N230 1.384 . S
C228 H219 0.929 . S
C228 C220 1.378 . S
C228 C223 1.350 1_556 S
C229 H216 0.929 . S
C229 C221 1.433 . S
C229 N231 1.384 . S
N230 C226 1.427 1_556 S
N230 C227 1.384 . S
N231 C223 1.427 . S
N231 C229 1.384 . S
H232 C238 0.930 . S
H233 C242 0.930 . S
H234 C247 0.929 . S
H235 C245 0.929 . S
H236 C240 0.929 . S
H237 C246 0.929 . S
C238 H232 0.930 . S
C238 C239 1.367 . S
C238 C246 1.378 . S
C239 C238 1.367 . S
C239 C247 1.433 . S
C240 H236 0.929 . S
C240 C242 1.378 . S
C240 C244 1.350 . S
C241 C244 1.463 . S
C241 C246 1.350 . S
C241 N249 1.427 . S
C242 H233 0.930 . S
C242 C240 1.378 . S
C242 C243 1.367 . S
C243 C242 1.367 . S
C243 C245 1.433 . S
C244 C240 1.350 . S
C244 C241 1.463 . S
C244 N248 1.427 . S
C245 H235 0.929 . S
C245 C243 1.433 . S
C245 N248 1.384 . S
C246 H237 0.929 . S
C246 C238 1.378 . S
C246 C241 1.350 . S
C247 H234 0.929 . S
C247 C239 1.433 . S
C247 N249 1.384 . S
N248 C244 1.427 . S
N248 C245 1.384 . S
N249 C241 1.427 . S
N249 C247 1.384 . S
H250 C256 0.930 . S
H251 C260 0.930 . S
H252 C265 0.929 . S
H253 C263 0.929 . S
H254 C258 0.929 . S
H255 C264 0.929 . S
C256 H250 0.930 . S
C256 C257 1.367 1_556 S
C256 C264 1.378 . S
C257 C256 1.367 1_554 S
C257 C265 1.433 . S
C258 H254 0.929 . S
C258 C260 1.378 . S
C258 C262 1.350 . S
C259 C262 1.463 . S
C259 C264 1.350 1_554 S
C259 N267 1.427 . S
C260 H251 0.930 . S
C260 C258 1.378 . S
C260 C261 1.367 . S
C261 C260 1.367 . S
C261 C263 1.433 1_554 S
C262 C258 1.350 . S
C262 C259 1.463 . S
C262 N266 1.427 1_554 S
C263 H253 0.929 . S
C263 C261 1.433 1_556 S
C263 N266 1.384 . S
C264 H255 0.929 . S
C264 C256 1.378 . S
C264 C259 1.350 1_556 S
C265 H252 0.929 . S
C265 C257 1.433 . S
C265 N267 1.384 . S
N266 C262 1.427 1_556 S
N266 C263 1.384 . S
N267 C259 1.427 . S
N267 C265 1.384 . S
H268 C274 0.930 . S
H269 C278 0.930 . S
H270 C283 0.929 . S
H271 C281 0.929 . S
H272 C276 0.929 . S
H273 C282 0.929 . S
C274 H268 0.930 . S
C274 C275 1.367 . S
C274 C282 1.378 . S
C275 C274 1.367 . S
C275 C283 1.433 . S
C276 H272 0.929 . S
C276 C278 1.378 . S
C276 C280 1.350 . S
C277 C280 1.463 . S
C277 C282 1.350 . S
C277 N285 1.427 . S
C278 H269 0.930 . S
C278 C276 1.378 . S
C278 C279 1.367 . S
C279 C278 1.367 . S
C279 C281 1.433 . S
C280 C276 1.350 . S
C280 C277 1.463 . S
C280 N284 1.427 . S
C281 H271 0.929 . S
C281 C279 1.433 . S
C281 N284 1.384 . S
C282 H273 0.929 . S
C282 C274 1.378 . S
C282 C277 1.350 . S
C283 H270 0.929 . S
C283 C275 1.433 . S
C283 N285 1.384 . S
N284 C280 1.427 . S
N284 C281 1.384 . S
N285 C277 1.427 . S
N285 C283 1.384 . S
H286 C292 0.930 . S
H287 C296 0.930 . S
H288 C301 0.929 . S
H289 C299 0.929 . S
H290 C294 0.929 . S
H291 C300 0.929 . S
C292 H286 0.930 . S
C292 C293 1.367 . S
C292 C300 1.378 . S
C293 C292 1.367 . S
C293 C301 1.433 . S
C294 H290 0.929 . S
C294 C296 1.378 . S
C294 C298 1.350 . S
C295 C298 1.463 . S
C295 C300 1.350 . S
C295 N303 1.427 . S
C296 H287 0.930 . S
C296 C294 1.378 . S
C296 C297 1.367 . S
C297 C296 1.367 . S
C297 C299 1.433 . S
C298 C294 1.350 . S
C298 C295 1.463 . S
C298 N302 1.427 . S
C299 H289 0.929 . S
C299 C297 1.433 . S
C299 N302 1.384 . S
C300 H291 0.929 . S
C300 C292 1.378 . S
C300 C295 1.350 . S
C301 H288 0.929 . S
C301 C293 1.433 . S
C301 N303 1.384 . S
N302 C298 1.427 . S
N302 C299 1.384 . S
N303 C295 1.427 . S
N303 C301 1.384 . S
H304 C310 0.930 . S
H305 C314 0.930 . S
H306 C319 0.929 . S
H307 C317 0.929 . S
H308 C312 0.929 . S
H309 C318 0.929 . S
C310 H304 0.930 . S
C310 C311 1.367 . S
C310 C318 1.378 . S
C311 C310 1.367 . S
C311 C319 1.433 . S
C312 H308 0.929 . S
C312 C314 1.378 . S
C312 C316 1.350 . S
C313 C316 1.463 . S
C313 C318 1.350 . S
C313 N321 1.427 . S
C314 H305 0.930 . S
C314 C312 1.378 . S
C314 C315 1.367 . S
C315 C314 1.367 . S
C315 C317 1.433 . S
C316 C312 1.350 . S
C316 C313 1.463 . S
C316 N320 1.427 . S
C317 H307 0.929 . S
C317 C315 1.433 . S
C317 N320 1.384 . S
C318 H309 0.929 . S
C318 C310 1.378 . S
C318 C313 1.350 . S
C319 H306 0.929 . S
C319 C311 1.433 . S
C319 N321 1.384 . S
N320 C316 1.427 . S
N320 C317 1.384 . S
N321 C313 1.427 . S
N321 C319 1.384 . S
H322 C328 0.930 . S
H323 C332 0.930 . S
H324 C337 0.929 . S
H325 C335 0.929 . S
H326 C330 0.929 . S
H327 C336 0.929 . S
C328 H322 0.930 . S
C328 C329 1.367 . S
C328 C336 1.378 . S
C329 C328 1.367 . S
C329 C337 1.433 . S
C330 H326 0.929 . S
C330 C332 1.378 . S
C330 C334 1.350 . S
C331 C334 1.463 . S
C331 C336 1.350 . S
C331 N339 1.427 . S
C332 H323 0.930 . S
C332 C330 1.378 . S
C332 C333 1.367 . S
C333 C332 1.367 . S
C333 C335 1.433 . S
C334 C330 1.350 . S
C334 C331 1.463 . S
C334 N338 1.427 . S
C335 H325 0.929 . S
C335 C333 1.433 . S
C335 N338 1.384 . S
C336 H327 0.929 . S
C336 C328 1.378 . S
C336 C331 1.350 . S
C337 H324 0.929 . S
C337 C329 1.433 . S
C337 N339 1.384 . S
N338 C334 1.427 . S
N338 C335 1.384 . S
N339 C331 1.427 . S
N339 C337 1.384 . S
H340 C346 0.930 . S
H341 C350 0.930 . S
H342 C355 0.929 . S
H343 C353 0.929 . S
H344 C348 0.929 . S
H345 C354 0.929 . S
C346 H340 0.930 . S
C346 C347 1.367 . S
C346 C354 1.378 . S
C347 C346 1.367 . S
C347 C355 1.433 . S
C348 H344 0.929 . S
C348 C350 1.378 . S
C348 C352 1.350 . S
C349 C352 1.463 . S
C349 C354 1.350 . S
C349 N357 1.427 . S
C350 H341 0.930 . S
C350 C348 1.378 . S
C350 C351 1.367 . S
C351 C350 1.367 . S
C351 C353 1.433 . S
C352 C348 1.350 . S
C352 C349 1.463 . S
C352 N356 1.427 . S
C353 H343 0.929 . S
C353 C351 1.433 . S
C353 N356 1.384 . S
C354 H345 0.929 . S
C354 C346 1.378 . S
C354 C349 1.350 . S
C355 H342 0.929 . S
C355 C347 1.433 . S
C355 N357 1.384 . S
N356 C352 1.427 . S
N356 C353 1.384 . S
N357 C349 1.427 . S
N357 C355 1.384 . S
H358 C364 0.930 . S
H359 C368 0.930 1_455 S
H360 C373 0.929 . S
H361 C371 0.929 . S
H362 C366 0.929 . S
H363 C372 0.929 . S
C364 H358 0.930 . S
C364 C365 1.367 . S
C364 C372 1.378 . S
C365 C364 1.367 . S
C365 C373 1.433 . S
C366 H362 0.929 . S
C366 C368 1.378 . S
C366 C370 1.350 . S
C367 C370 1.463 . S
C367 C372 1.350 . S
C367 N375 1.427 . S
C368 H359 0.930 1_655 S
C368 C366 1.378 . S
C368 C369 1.367 . S
C369 C368 1.367 . S
C369 C371 1.433 . S
C370 C366 1.350 . S
C370 C367 1.463 . S
C370 N374 1.427 . S
C371 H361 0.929 . S
C371 C369 1.433 . S
C371 N374 1.384 . S
C372 H363 0.929 . S
C372 C364 1.378 . S
C372 C367 1.350 . S
C373 H360 0.929 . S
C373 C365 1.433 . S
C373 N375 1.384 . S
N374 C370 1.427 . S
N374 C371 1.384 . S
N375 C367 1.427 . S
N375 C373 1.384 . S
H376 C382 0.930 . S
H377 C386 0.930 . S
H378 C391 0.929 . S
H379 C389 0.929 . S
H380 C384 0.929 . S
H381 C390 0.929 . S
C382 H376 0.930 . S
C382 C383 1.367 . S
C382 C390 1.378 . S
C383 C382 1.367 . S
C383 C391 1.433 . S
C384 H380 0.929 . S
C384 C386 1.378 . S
C384 C388 1.350 . S
C385 C388 1.463 . S
C385 C390 1.350 . S
C385 N393 1.427 . S
C386 H377 0.930 . S
C386 C384 1.378 . S
C386 C387 1.367 . S
C387 C386 1.367 . S
C387 C389 1.433 . S
C388 C384 1.350 . S
C388 C385 1.463 . S
C388 N392 1.427 . S
C389 H379 0.929 . S
C389 C387 1.433 . S
C389 N392 1.384 . S
C390 H381 0.929 . S
C390 C382 1.378 . S
C390 C385 1.350 . S
C391 H378 0.929 . S
C391 C383 1.433 . S
C391 N393 1.384 . S
N392 C388 1.427 . S
N392 C389 1.384 . S
N393 C385 1.427 . S
N393 C391 1.384 . S
H394 C400 0.930 . S
H395 C404 0.930 . S
H396 C409 0.929 . S
H397 C407 0.929 . S
H398 C402 0.929 . S
H399 C408 0.929 . S
C400 H394 0.930 . S
C400 C401 1.367 . S
C400 C408 1.378 . S
C401 C400 1.367 . S
C401 C409 1.433 . S
C402 H398 0.929 . S
C402 C404 1.378 . S
C402 C406 1.350 . S
C403 C406 1.463 . S
C403 C408 1.350 . S
C403 N411 1.427 . S
C404 H395 0.930 . S
C404 C402 1.378 . S
C404 C405 1.367 . S
C405 C404 1.367 . S
C405 C407 1.433 . S
C406 C402 1.350 . S
C406 C403 1.463 . S
C406 N410 1.427 . S
C407 H397 0.929 . S
C407 C405 1.433 . S
C407 N410 1.384 . S
C408 H399 0.929 . S
C408 C400 1.378 . S
C408 C403 1.350 . S
C409 H396 0.929 . S
C409 C401 1.433 . S
C409 N411 1.384 . S
N410 C406 1.427 . S
N410 C407 1.384 . S
N411 C403 1.427 . S
N411 C409 1.384 . S
C207 C132 1.602 . S
C203 C119 1.603 . S
C221 C23 1.464 . S
C225 C175 1.541 . S
C239 C55 1.507 . S
C243 C141 1.603 . S
C257 C87 1.544 . S
C261 C166 1.542 . S
C279 C128 1.581 . S
C275 C17 1.493 . S
C297 C170 1.656 . S
C293 C61 1.521 . S
C311 C93 1.576 . S
C315 C136 1.575 . S
C329 C113 1.656 . S
C333 C162 1.655 . S
C351 C191 1.654 . S
C347 C49 1.545 . S
C369 C157 1.579 . S
C365 C81 1.584 . S
C387 C179 1.656 . S
C383 C125 1.660 . S
C401 C29 1.483 . S
C405 C145 1.575 . S
