# Generated by pormake.
# Topology zzz, (3,6)-cn, num edge types: 1
# Building blocks:
#     Node 0, Type 0, BuildingBlock: CUQRIR_clean_linker_1, # of connection points: 3
#     Node 1, Type 0, BuildingBlock: CUQRIR_clean_linker_1, # of connection points: 3
#     Node 2, Type 0, BuildingBlock: CUQRIR_clean_linker_1, # of connection points: 3
#     Node 3, Type 0, BuildingBlock: CUQRIR_clean_linker_1, # of connection points: 3
#     Node 4, Type 0, BuildingBlock: CUQRIR_clean_linker_1, # of connection points: 3
#     Node 5, Type 0, BuildingBlock: CUQRIR_clean_linker_1, # of connection points: 3
#     Node 6, Type 0, BuildingBlock: CUQRIR_clean_linker_1, # of connection points: 3
#     Node 7, Type 0, BuildingBlock: CUQRIR_clean_linker_1, # of connection points: 3
#     Node 8, Type 1, BuildingBlock: JUFBIX_clean_sbu_0, # of connection points: 6
#     Node 9, Type 1, BuildingBlock: JUFBIX_clean_sbu_0, # of connection points: 6
#     Node 10, Type 1, BuildingBlock: JUFBIX_clean_sbu_0, # of connection points: 6
#     Node 11, Type 1, BuildingBlock: JUFBIX_clean_sbu_0, # of connection points: 6
#     Edge 12, Type (0, 1), BuildingBlock: EZIPEK_clean_linker_0, # of connection points: 2
#     Edge 13, Type (0, 1), BuildingBlock: EZIPEK_clean_linker_0, # of connection points: 2
#     Edge 14, Type (0, 1), BuildingBlock: EZIPEK_clean_linker_0, # of connection points: 2
#     Edge 15, Type (0, 1), BuildingBlock: EZIPEK_clean_linker_0, # of connection points: 2
#     Edge 16, Type (0, 1), BuildingBlock: EZIPEK_clean_linker_0, # of connection points: 2
#     Edge 17, Type (0, 1), BuildingBlock: EZIPEK_clean_linker_0, # of connection points: 2
#     Edge 18, Type (0, 1), BuildingBlock: EZIPEK_clean_linker_0, # of connection points: 2
#     Edge 19, Type (0, 1), BuildingBlock: EZIPEK_clean_linker_0, # of connection points: 2
#     Edge 20, Type (0, 1), BuildingBlock: EZIPEK_clean_linker_0, # of connection points: 2
#     Edge 21, Type (0, 1), BuildingBlock: EZIPEK_clean_linker_0, # of connection points: 2
#     Edge 22, Type (0, 1), BuildingBlock: EZIPEK_clean_linker_0, # of connection points: 2
#     Edge 23, Type (0, 1), BuildingBlock: EZIPEK_clean_linker_0, # of connection points: 2
#     Edge 24, Type (0, 1), BuildingBlock: EZIPEK_clean_linker_0, # of connection points: 2
#     Edge 25, Type (0, 1), BuildingBlock: EZIPEK_clean_linker_0, # of connection points: 2
#     Edge 26, Type (0, 1), BuildingBlock: EZIPEK_clean_linker_0, # of connection points: 2
#     Edge 27, Type (0, 1), BuildingBlock: EZIPEK_clean_linker_0, # of connection points: 2
#     Edge 28, Type (0, 1), BuildingBlock: EZIPEK_clean_linker_0, # of connection points: 2
#     Edge 29, Type (0, 1), BuildingBlock: EZIPEK_clean_linker_0, # of connection points: 2
#     Edge 30, Type (0, 1), BuildingBlock: EZIPEK_clean_linker_0, # of connection points: 2
#     Edge 31, Type (0, 1), BuildingBlock: EZIPEK_clean_linker_0, # of connection points: 2
#     Edge 32, Type (0, 1), BuildingBlock: EZIPEK_clean_linker_0, # of connection points: 2
#     Edge 33, Type (0, 1), BuildingBlock: EZIPEK_clean_linker_0, # of connection points: 2
#     Edge 34, Type (0, 1), BuildingBlock: EZIPEK_clean_linker_0, # of connection points: 2
#     Edge 35, Type (0, 1), BuildingBlock: EZIPEK_clean_linker_0, # of connection points: 2
# Relax obj value: 0.126
# Max RMSD: 0.173
# Mean RMSD: 0.097
data_MOF--net-zzz--node1-JUFBIX_clean_sbu_0--node2-CUQRIR_clean_linker_1--edge1-EZIPEK_clean_linker_0
_symmetry_space_group_name_H-M    P1
_symmetry_Int_Tables_number       1
_symmetry_cell_setting            triclinic
loop_
_symmetry_equiv_pos_as_xyz
'x, y, z'
_cell_length_a     35.10718
_cell_length_b     34.955839
_cell_length_c     11.434455
_cell_angle_alpha  76.605856
_cell_angle_beta   89.502039
_cell_angle_gamma 90.885836
loop_
_atom_site_label
_atom_site_type_symbol
_atom_site_fract_x
_atom_site_fract_y
_atom_site_fract_z
_atom_type_partial_charge
C0 C 0.80158 0.50212 0.39825 0.0
N1 N 0.84023 0.50561 0.40296 0.0
N2 N 0.79056 0.49895 0.28656 0.0
C3 C 0.77484 0.50271 0.50092 0.0
C4 C 0.82373 0.50067 0.22452 0.0
N5 N 0.85355 0.50416 0.29498 0.0
C6 C 0.82693 0.49845 0.09406 0.0
H7 H 0.78611 0.48505 0.58642 0.0
H8 H 0.74608 0.49153 0.48473 0.0
H9 H 0.77257 0.53342 0.51094 0.0
H10 H 0.85118 0.51601 0.04648 0.0
H11 H 0.80074 0.50903 0.04416 0.0
H12 H 0.83149 0.46746 0.08993 0.0
C13 C 1.00957 0.74337 0.34838 0.0
N14 N 1.00893 0.78291 0.33651 0.0
N15 N 0.99848 0.73389 0.24467 0.0
C16 C 0.02285 0.71435 0.45778 0.0
C17 C 0.98911 0.76877 0.17258 0.0
N18 N 0.99763 0.79847 0.225 0.0
C19 C 0.97762 0.7744 0.04274 0.0
H20 H 0.04583 0.72742 0.50292 0.0
H21 H 0.03266 0.68692 0.4349 0.0
H22 H 0.99844 0.70651 0.52134 0.0
H23 H 0.95271 0.75511 0.03645 0.0
H24 H 1.00133 0.7659 0.98965 0.0
H25 H 0.9699 0.80527 1.00257 0.0
C26 C 0.80457 1.01092 0.16121 0.0
N27 N 0.76648 0.01711 0.16948 0.0
N28 N 0.81596 0.01617 0.04474 0.0
C29 C 0.83063 0.99832 0.26588 0.0
C30 C 0.78351 0.0248 0.98233 0.0
N31 N 0.75357 0.02785 0.05669 0.0
C32 C 0.78081 0.02303 0.85195 0.0
H33 H 0.8534 0.02103 0.26103 0.0
H34 H 0.84468 0.97063 0.25966 0.0
H35 H 0.81521 0.9939 0.35317 0.0
H36 H 0.80069 1.00091 0.83231 0.0
H37 H 0.7897 0.05177 0.79342 0.0
H38 H 0.75177 0.01469 0.82858 0.0
C39 C 0.55491 0.74654 0.23589 0.0
N40 N 0.54667 0.70708 0.24401 0.0
N41 N 0.55467 0.76772 0.11984 0.0
C42 C 0.57296 0.76423 0.3306 0.0
C43 C 0.5502 0.74025 0.05568 0.0
N44 N 0.54546 0.70374 0.12889 0.0
C45 C 0.55282 0.74943 0.92026 0.0
H46 H 0.5509 0.77677 0.37991 0.0
H47 H 0.59201 0.78929 0.28794 0.0
H48 H 0.59092 0.74282 0.39165 0.0
H49 H 0.57283 0.77448 0.88635 0.0
H50 H 0.52445 0.75829 0.88245 0.0
H51 H 0.56253 0.7238 0.88695 0.0
C52 C 0.25048 0.50809 0.28781 0.0
N53 N 0.21185 0.50832 0.27879 0.0
N54 N 0.2611 0.50426 0.40431 0.0
C55 C 0.27756 0.51486 0.18255 0.0
C56 C 0.22747 0.50259 0.46456 0.0
N57 N 0.19789 0.50618 0.38865 0.0
C58 C 0.22342 0.4993 0.59773 0.0
H59 H 0.28422 0.48615 0.16223 0.0
H60 H 0.30459 0.52867 0.20309 0.0
H61 H 0.26442 0.53364 0.10181 0.0
H62 H 0.22226 0.52921 0.61503 0.0
H63 H 0.248 0.48382 0.64654 0.0
H64 H 0.19659 0.48336 0.63278 0.0
C65 C 0.02006 0.27156 0.31107 0.0
N66 N 0.04898 0.23491 0.26504 0.0
N67 N 0.04604 0.28351 0.4354 0.0
C68 C 0.98827 0.2938 0.24277 0.0
C69 C 0.08937 0.25531 0.46193 0.0
N70 N 0.0879 0.22504 0.35066 0.0
C71 C 0.11129 0.24713 0.57607 0.0
H72 H 0.98613 0.32303 0.26448 0.0
H73 H 0.96106 0.27729 0.26766 0.0
H74 H 0.99331 0.29696 0.14505 0.0
H75 H 0.13033 0.27264 0.57718 0.0
H76 H 0.12861 0.22043 0.58321 0.0
H77 H 0.09122 0.24336 0.65355 0.0
C78 C 0.27571 1.00566 0.44332 0.0
N79 N 0.31444 1.00424 0.44068 0.0
N80 N 0.26265 1.00371 0.55717 0.0
C81 C 0.25055 1.00892 0.33642 0.0
C82 C 0.29464 1.00062 0.6234 0.0
N83 N 0.32581 1.00051 0.55324 0.0
C84 C 0.29508 0.99797 0.75639 0.0
H85 H 0.23549 0.03731 0.32018 0.0
H86 H 0.22856 0.98508 0.35593 0.0
H87 H 0.26714 1.00721 0.25483 0.0
H88 H 0.2794 0.97089 0.80347 0.0
H89 H 0.27987 0.02338 0.77621 0.0
H90 H 0.32448 0.99749 0.79136 0.0
C91 C 0.51041 0.27651 0.39444 0.0
N92 N 0.51211 0.31569 0.3929 0.0
N93 N 0.51906 0.25419 0.5049 0.0
C94 C 0.50084 0.25981 0.28847 0.0
C95 C 0.52578 0.28121 0.5707 0.0
N96 N 0.52113 0.31836 0.50373 0.0
C97 C 0.53615 0.27106 0.70137 0.0
H98 H 0.48175 0.23365 0.31722 0.0
H99 H 0.52742 0.24997 0.25212 0.0
H100 H 0.48706 0.28194 0.21668 0.0
H101 H 0.55678 0.24673 0.7193 0.0
H102 H 0.51012 0.26075 0.75599 0.0
H103 H 0.54851 0.29683 0.72974 0.0
Co104 Co 0.04581 0.02873 0.85525 0.0
C105 C 0.96546 0.02075 0.81673 0.0
Co106 Co 0.0292 1.00008 0.70847 0.0
C107 C 0.04074 0.09254 0.97167 0.0
C108 C 0.07489 0.04642 0.07291 0.0
N109 N 0.05403 0.05646 0.97215 0.0
N110 N 0.05263 0.10536 0.06753 0.0
C111 C 0.07407 0.07662 0.132 0.0
H112 H 0.02301 0.10934 0.90187 0.0
H113 H 0.09006 0.01917 0.10069 0.0
C114 C 0.10973 1.00667 0.75286 0.0
N115 N 0.02458 0.97242 0.58459 0.0
C116 C 0.0125 0.93518 0.5852 0.0
C117 C 0.05206 0.97979 0.4993 0.0
N118 N 0.03406 0.91809 0.51142 0.0
C119 C 0.06003 0.94639 0.46397 0.0
C120 C 0.04418 0.07858 0.62556 0.0
O121 O 0.10014 0.02231 0.83843 0.0
O122 O 0.08344 0.99504 0.69387 0.0
O123 O 0.03253 0.04848 0.59128 0.0
O124 O 0.0498 0.07637 0.73622 0.0
O125 O 0.97481 1.00567 0.72859 0.0
H126 H 0.06992 1.00581 0.47809 0.0
H127 H 0.9897 0.92066 0.64357 0.0
O128 O 0.99174 0.03404 0.8737 0.0
O129 O 0.04188 0.98145 0.97187 0.0
O130 O 0.02613 0.95252 0.8266 0.0
C131 C 0.03101 0.95112 0.93751 0.0
H132 H 0.08842 0.07772 0.21459 0.0
H133 H 0.08563 0.94298 0.41466 0.0
Co134 Co 0.52536 0.01558 0.88147 0.0
C135 C 0.54706 0.93637 0.90156 0.0
Co136 Co 0.55662 1.00598 0.72007 0.0
C137 C 0.45978 1.00842 0.04782 0.0
C138 C 0.50555 0.04221 0.09794 0.0
N139 N 0.49597 0.02151 0.01607 0.0
N140 N 0.44665 0.02026 0.14517 0.0
C141 C 0.47543 0.04147 0.17699 0.0
H142 H 0.44292 0.99106 0.99968 0.0
H143 H 0.53239 0.05773 0.09877 0.0
C144 C 0.53321 0.08543 0.70376 0.0
N145 N 0.58671 1.00021 0.5888 0.0
C146 C 0.62446 0.99188 0.58529 0.0
C147 C 0.5765 1.01019 0.47282 0.0
N148 N 0.63814 0.997 0.47164 0.0
C149 C 0.60773 1.00825 0.40142 0.0
C150 C 0.4799 0.99693 0.70128 0.0
O151 O 0.51903 0.07035 0.80738 0.0
O152 O 0.55183 0.06316 0.64957 0.0
O153 O 0.51095 0.99617 0.64425 0.0
O154 O 0.48022 1.00354 0.80599 0.0
O155 O 0.56018 0.9498 0.79478 0.0
H156 H 0.54867 0.02052 0.4416 0.0
H157 H 0.64221 0.98427 0.66392 0.0
O158 O 0.53186 0.96041 0.95603 0.0
O159 O 0.57247 0.02843 0.95002 0.0
O160 O 0.60106 0.01566 0.79298 0.0
C161 C 0.60297 0.02671 0.8897 0.0
H162 H 0.4744 0.05605 0.25078 0.0
H163 H 0.60788 0.01672 0.30503 0.0
Co164 Co 0.56241 0.50746 0.82666 0.0
C165 C 0.51325 0.45538 1.00043 0.0
Co166 Co 0.49975 0.51424 0.80416 0.0
C167 C 0.63997 0.50937 0.92843 0.0
C168 C 0.62233 0.45458 0.89252 0.0
N169 N 0.61309 0.49291 0.8693 0.0
N170 N 0.66411 0.48224 0.99197 0.0
C171 C 0.6522 0.44786 0.96968 0.0
H172 H 0.63998 0.54 0.93236 0.0
H173 H 0.60589 0.43169 0.86651 0.0
C174 C 0.54847 0.56594 0.62967 0.0
N175 N 0.44917 0.52687 0.76371 0.0
C176 C 0.42075 0.50533 0.72874 0.0
C177 C 0.4388 0.56449 0.72224 0.0
N178 N 0.39429 0.52847 0.66231 0.0
C179 C 0.40609 0.56558 0.65838 0.0
C180 C 0.53362 0.56349 0.93927 0.0
O181 O 0.57709 0.54841 0.6854 0.0
O182 O 0.51514 0.55428 0.66691 0.0
O183 O 0.50206 0.55275 0.90115 0.0
O184 O 0.56398 0.54628 0.92028 0.0
O185 O 0.48512 0.47309 0.94298 0.0
H186 H 0.45582 0.58988 0.72692 0.0
H187 H 0.4209 0.47359 0.74429 0.0
O188 O 0.54679 0.46738 0.96601 0.0
O189 O 0.5595 0.46865 0.72998 0.0
O190 O 0.49807 0.47663 0.70819 0.0
C191 C 0.52794 0.45878 0.69016 0.0
H192 H 0.66311 0.41918 0.01136 0.0
H193 H 0.39264 0.59194 0.60834 0.0
Co194 Co 0.0286 0.54572 0.81232 0.0
C195 C 0.08889 0.50882 0.95139 0.0
Co196 Co 0.02622 0.48164 0.84378 0.0
C197 C 0.03018 0.61156 0.91213 0.0
C198 C 0.02018 0.63148 0.72419 0.0
N199 N 0.02804 0.59894 0.80968 0.0
N200 N 0.0235 0.64983 0.89609 0.0
C201 C 0.01727 0.66316 0.7778 0.0
H202 H 0.03355 0.59272 0.99988 0.0
H203 H 0.01471 0.63168 0.63113 0.0
C204 C 0.96581 0.5185 0.70659 0.0
N205 N 0.02669 0.42846 0.8519 0.0
C206 C 0.02083 0.41295 0.7562 0.0
C207 C 0.03704 0.3979 0.94094 0.0
N208 N 0.02789 0.3744 0.78025 0.0
C209 C 0.03803 0.36435 0.89645 0.0
C210 C 0.98656 0.50483 0.01546 0.0
O211 O 0.98105 0.54952 0.72735 0.0
O212 O 0.98214 0.48599 0.74592 0.0
O213 O 0.99371 0.47343 0.98229 0.0
O214 O 1.00172 0.53661 0.95844 0.0
O215 O 0.07094 0.47754 0.94398 0.0
H216 H 0.04529 0.40027 0.02996 0.0
H217 H 0.01349 0.42994 0.66815 0.0
O218 O 0.07575 0.54169 0.89631 0.0
O219 O 0.05524 0.55452 0.66598 0.0
O220 O 0.05774 0.49038 0.70208 0.0
C221 C 0.06527 0.52387 0.63304 0.0
H222 H 1.00919 0.69284 0.73543 0.0
H223 H 0.04746 0.33556 0.94318 0.0
C224 C 0.20257 0.9693 0.63874 0.0
C225 C 0.22389 1.00468 0.60147 0.0
C226 C 0.17312 0.04071 0.67803 0.0
C227 C 0.15039 1.00541 0.71003 0.0
N228 N 0.14207 0.93693 0.70297 0.0
N229 N 0.22897 0.07455 0.57098 0.0
C230 C 0.16474 0.96998 0.685 0.0
C231 C 0.20901 0.04048 0.61767 0.0
N232 N 0.21924 0.93469 0.63323 0.0
N233 N 0.16026 0.07479 0.70258 0.0
H234 H 0.25534 0.07485 0.52788 0.0
H235 H 0.21857 0.10254 0.56656 0.0
H236 H 0.1328 0.07822 0.73284 0.0
H237 H 0.17725 0.09982 0.69667 0.0
H238 H 0.20752 0.90711 0.67243 0.0
H239 H 0.24637 0.93356 0.59629 0.0
H240 H 0.14882 0.91229 0.67086 0.0
H241 H 0.11529 0.93458 0.74358 0.0
C242 C 0.48885 0.18796 0.58486 0.0
C243 C 0.52181 0.21152 0.54496 0.0
C244 C 0.56166 0.15404 0.6217 0.0
C245 C 0.52887 0.12908 0.64944 0.0
N246 N 0.46026 0.12263 0.65335 0.0
N247 N 0.58923 0.21588 0.50844 0.0
C248 C 0.49211 0.14621 0.62987 0.0
C249 C 0.55805 0.19398 0.55718 0.0
N250 N 0.45456 0.20595 0.58359 0.0
N251 N 0.59587 0.14078 0.66833 0.0
H252 H 0.58733 0.24532 0.46286 0.0
H253 H 0.61608 0.20393 0.50434 0.0
H254 H 0.59782 0.11417 0.73142 0.0
H255 H 0.62053 0.15822 0.65939 0.0
H256 H 0.42977 0.19175 0.62299 0.0
H257 H 0.45153 0.23611 0.54932 0.0
H258 H 0.43295 0.13227 0.62863 0.0
H259 H 0.46125 0.09258 0.69154 0.0
C260 C 0.30169 0.54356 0.5067 0.0
C261 C 0.29788 0.51141 0.45276 0.0
C262 C 0.36149 0.49067 0.52672 0.0
C263 C 0.36089 0.51853 0.60063 0.0
N264 N 0.32206 0.5619 0.68616 0.0
N265 N 0.3227 0.45043 0.42449 0.0
C266 C 0.32823 0.54188 0.5988 0.0
C267 C 0.32735 0.48354 0.46681 0.0
N268 N 0.28062 0.57619 0.46729 0.0
N269 N 0.39453 0.47306 0.50674 0.0
H270 H 0.29809 0.44498 0.38001 0.0
H271 H 0.342 0.42749 0.44159 0.0
H272 H 0.42075 0.48027 0.53828 0.0
H273 H 0.39646 0.45473 0.44692 0.0
H274 H 0.28343 0.60121 0.50183 0.0
H275 H 0.26538 0.57976 0.3879 0.0
H276 H 0.29726 0.57764 0.69023 0.0
H277 H 0.3394 0.55858 0.76141 0.0
C278 C 1.00247 0.30988 0.57072 0.0
C279 C 0.03713 0.31207 0.50391 0.0
C280 C 0.06578 0.35444 0.62369 0.0
C281 C 0.03144 0.3519 0.69081 0.0
N282 N 0.96505 0.33487 0.71588 0.0
N283 N 0.09753 0.34352 0.44482 0.0
C284 C 0.99913 0.3319 0.66034 0.0
C285 C 0.06741 0.33684 0.52378 0.0
N286 N 0.97337 0.2857 0.55287 0.0
N287 N 0.09663 0.37373 0.65631 0.0
H288 H 0.09728 0.3337 0.3653 0.0
H289 H 0.12158 0.3603 0.45308 0.0
H290 H 0.09575 0.38768 0.72759 0.0
H291 H 0.12367 0.37412 0.61815 0.0
H292 H 0.95 0.27827 0.6108 0.0
H293 H 0.97274 0.27222 0.48132 0.0
H294 H 0.93919 0.32498 0.68892 0.0
H295 H 0.96235 0.34976 0.78473 0.0
C296 C 0.8696 0.98179 0.97153 0.0
C297 C 0.85413 0.0167 0.99315 0.0
C298 C 0.90966 0.05464 0.89089 0.0
C299 C 0.925 0.01987 0.86472 0.0
N300 N 0.91788 0.95007 0.87512 0.0
N301 N 0.85643 0.08673 0.96451 0.0
C302 C 0.90429 0.98339 0.90288 0.0
C303 C 0.87349 0.05316 0.95053 0.0
N304 N 0.85114 0.94691 0.01955 0.0
N305 N 0.92996 0.08924 0.85974 0.0
H306 H 0.83112 0.08633 0.01331 0.0
H307 H 0.866 0.115 0.9233 0.0
H308 H 0.95432 0.09277 0.80565 0.0
H309 H 0.92364 0.1142 0.89067 0.0
H310 H 0.86198 0.91939 0.0197 0.0
H311 H 0.82539 0.94545 0.0668 0.0
H312 H 0.90247 0.92378 0.88748 0.0
H313 H 0.94438 0.94848 0.83549 0.0
C314 C 0.58701 0.83224 0.02816 0.0
C315 C 0.55352 0.81047 0.07406 0.0
C316 C 0.51587 0.87105 0.0126 0.0
C317 C 0.54933 0.89295 0.96288 0.0
N318 N 0.61791 0.89587 0.94668 0.0
N319 N 0.48572 0.80737 0.10005 0.0
C320 C 0.58523 0.8738 0.97636 0.0
C321 C 0.51797 0.82963 0.06466 0.0
N322 N 0.62042 0.81257 0.03134 0.0
N323 N 0.48198 0.88987 0.01203 0.0
H324 H 0.48644 0.77745 0.14098 0.0
H325 H 0.45817 0.81751 0.08289 0.0
H326 H 0.47795 0.91905 0.96811 0.0
H327 H 0.45786 0.87735 0.06031 0.0
H328 H 0.64545 0.82482 0.9882 0.0
H329 H 0.62244 0.78272 0.07243 0.0
H330 H 0.64517 0.88495 0.96415 0.0
H331 H 0.61799 0.92626 0.91313 0.0
C332 C 0.7252 0.51999 0.217 0.0
C333 C 0.75373 0.49111 0.23996 0.0
C334 C 0.72605 0.46078 0.08861 0.0
C335 C 0.69441 0.4863 0.07532 0.0
N336 N 0.6589 0.53026 0.16889 0.0
N337 N 0.77244 0.42639 0.22748 0.0
C338 C 0.69236 0.51326 0.15152 0.0
C339 C 0.75026 0.45834 0.18807 0.0
N340 N 0.72978 0.55426 0.25305 0.0
N341 N 0.73549 0.44183 1.001 0.0
H342 H 0.79074 0.42453 0.30007 0.0
H343 H 0.76972 0.40098 0.19487 0.0
H344 H 0.72223 0.44763 0.91765 0.0
H345 H 0.75992 0.42499 1.00499 0.0
H346 H 0.71088 0.57743 0.22908 0.0
H347 H 0.75404 0.56057 0.29751 0.0
H348 H 0.65617 0.54836 0.22916 0.0
H349 H 0.63331 0.52118 0.13811 0.0
C350 C 0.97692 0.68154 0.15368 0.0
C351 C 1.00772 0.70043 0.19648 0.0
C352 C 0.05035 0.67988 0.05171 0.0
C353 C 0.01805 0.66867 0.99378 0.0
N354 N 0.95042 0.65794 0.98788 0.0
N355 N 0.0754 0.71363 0.19758 0.0
C356 C 0.98126 0.66871 0.04536 0.0
C357 C 0.04517 0.69751 0.15087 0.0
N358 N 0.94309 0.67785 0.21511 0.0
N359 N 0.08589 0.67354 0.01111 0.0
H360 H 0.07325 0.72466 0.27414 0.0
H361 H 0.10249 0.71744 0.15854 0.0
H362 H 0.09027 0.66284 0.93418 0.0
H363 H 0.11088 0.67673 0.05647 0.0
H364 H 0.91968 0.66201 0.19486 0.0
H365 H 0.94011 0.68799 0.29375 0.0
H366 H 0.92245 0.66223 0.01213 0.0
H367 H 0.95288 0.64755 0.90979 0.0
C368 C 0.10294 0.15306 0.39463 0.0
C369 C 0.08567 0.18626 0.41565 0.0
C370 C 0.03607 0.15035 0.54021 0.0
C371 C 0.05555 0.11503 0.53821 0.0
N372 N 0.10926 0.08288 0.46695 0.0
N373 N 0.03821 0.22345 0.44858 0.0
C374 C 0.08929 0.11615 0.46437 0.0
C375 C 0.05287 0.18578 0.47575 0.0
N376 N 0.13122 0.15696 0.31045 0.0
N377 N 1.0023 0.14954 0.60026 0.0
H378 H 0.07252 0.275 0.30844 0.0
H379 H 0.01299 0.22534 0.49712 0.0
H380 H 0.98852 0.12314 0.64085 0.0
H381 H 0.98789 0.17476 0.60708 0.0
H382 H 0.14322 0.13327 0.28354 0.0
H383 H 0.14077 0.18478 0.26332 0.0
H384 H 0.1352 0.08267 0.42227 0.0
H385 H 0.10123 0.05584 0.5211 0.0
C386 C 0.38858 0.03224 0.55435 0.0
C387 C 0.36501 0.99841 0.58976 0.0
C388 C 0.41934 0.96039 0.68272 0.0
C389 C 0.4429 0.99429 0.64362 0.0
N390 N 0.45263 0.05801 0.50979 0.0
N391 N 0.3575 0.929 0.6732 0.0
C392 C 0.42839 0.0288 0.56856 0.0
C393 C 0.38029 0.96195 0.6499 0.0
N394 N 0.37248 0.06803 0.51291 0.0
N395 N 0.43456 0.92693 0.75075 0.0
H396 H 0.32864 0.92977 0.65213 0.0
H397 H 0.36736 0.90072 0.70709 0.0
H398 H 0.46383 0.92413 0.76442 0.0
H399 H 0.4185 0.90242 0.79439 0.0
H400 H 0.38799 0.09444 0.4952 0.0
H401 H 0.34301 0.07138 0.50801 0.0
H402 H 0.44357 0.08219 0.44504 0.0
H403 H 0.48214 0.05624 0.5177 0.0
C404 C 0.55192 0.38253 0.50948 0.0
C405 C 0.52231 0.35426 0.54696 0.0
C406 C 0.49767 0.3931 0.6833 0.0
C407 C 0.52509 0.42355 0.63693 0.0
N408 N 0.57342 0.45013 0.4875 0.0
N409 N 0.46323 0.33551 0.65434 0.0
C410 C 0.55086 0.41909 0.54457 0.0
C411 C 0.494 0.36057 0.62895 0.0
N412 N 0.58195 0.37359 0.44484 0.0
N413 N 0.47668 0.3936 0.78422 0.0
H414 H 0.46004 0.31076 0.61881 0.0
H415 H 0.43929 0.34117 0.70164 0.0
H416 H 0.47886 0.41564 0.83114 0.0
H417 H 0.45989 0.36987 0.82965 0.0
H418 H 0.60623 0.39145 0.42345 0.0
H419 H 0.58406 0.3463 0.42335 0.0
H420 H 0.59005 0.44973 0.41189 0.0
H421 H 0.57262 0.47764 0.50822 0.0
C422 C 0.15088 0.55221 0.43977 0.0
C423 C 0.15932 0.51478 0.418 0.0
C424 C 0.09449 0.49214 0.47931 0.0
C425 C 0.08972 0.52621 0.52438 0.0
N426 N 0.10197 0.59599 0.47817 0.0
N427 N 0.13876 0.4501 0.40605 0.0
C428 C 0.11432 0.55882 0.48304 0.0
C429 C 0.13058 0.48528 0.43154 0.0
N430 N 0.17837 0.58087 0.42402 0.0
N431 N 0.06391 0.46762 0.47905 0.0
H432 H 0.16571 0.44392 0.377 0.0
H433 H 0.11952 0.42665 0.41864 0.0
H434 H 0.03681 0.47517 0.50345 0.0
H435 H 0.06424 0.44294 0.44278 0.0
H436 H 0.17565 0.60678 0.45338 0.0
H437 H 0.20466 0.57758 0.38626 0.0
H438 H 0.11798 0.62124 0.4405 0.0
H439 H 0.07361 0.6017 0.49472 0.0
C440 C 0.03955 0.84444 0.08126 0.0
C441 C 1.00694 0.83783 0.15866 0.0
C442 C 0.99204 0.90768 0.10151 0.0
C443 C 0.02472 0.91376 0.02485 0.0
N444 N 0.0852 0.89174 0.96988 0.0
N445 N 0.95416 0.86192 0.2529 0.0
C446 C 0.04989 0.88312 0.02158 0.0
C447 C 0.98382 0.86926 0.17228 0.0
N448 N 0.061 0.81374 0.06583 0.0
N449 N 0.96873 0.93841 0.10434 0.0
H450 H 0.94684 0.83353 0.30087 0.0
H451 H 0.9378 0.88358 0.2764 0.0
H452 H 0.97508 0.96716 0.05796 0.0
H453 H 0.9426 0.93563 0.1493 0.0
H454 H 0.08116 0.81597 0.9971 0.0
H455 H 0.05779 0.78552 0.11906 0.0
H456 H 0.10661 0.87121 0.97404 0.0
H457 H 0.09474 0.92061 0.93599 0.0
C458 C 0.70642 0.0627 0.90394 0.0
C459 C 0.71482 0.03978 0.01935 0.0
C460 C 0.65016 0.01877 0.05343 0.0
C461 C 0.6411 0.03482 0.93284 0.0
N462 N 0.66275 0.0739 0.73748 0.0
N463 N 0.68024 0.05602 0.17416 0.0
C464 C 0.66963 0.05809 0.85577 0.0
C465 C 0.6836 0.03204 0.0975 0.0
N466 N 0.7316 0.09136 0.84835 0.0
N467 N 0.62873 0.9897 0.12488 0.0
H468 H 0.65437 0.06066 0.21388 0.0
H469 H 0.65437 0.06066 0.21388 0.0
H470 H 0.60486 0.97684 0.09482 0.0
H471 H 0.63777 0.976 0.21047 0.0
H472 H 0.72593 0.11177 0.76873 0.0
H473 H 0.75654 0.09716 0.89082 0.0
H474 H 0.68364 0.08838 0.67757 0.0
H475 H 0.63705 0.07045 0.69655 0.0
C476 C 0.51358 0.66424 1.00093 0.0
C477 C 0.54219 0.66779 0.08497 0.0
C478 C 0.5598 0.59973 0.09113 0.0
C479 C 0.53576 0.59884 0.99264 0.0
N480 N 0.50112 0.63846 0.82741 0.0
N481 N 0.59843 0.63899 0.19043 0.0
C482 C 0.5155 0.63331 0.94017 0.0
C483 C 0.5673 0.63593 0.12313 0.0
N484 N 0.48427 0.68998 0.97984 0.0
N485 N 0.57488 0.56606 0.15726 0.0
H486 H 0.60698 0.66508 0.21289 0.0
H487 H 0.60698 0.66508 0.21289 0.0
H488 H 0.56792 0.5384 0.1429 0.0
H489 H 0.59102 0.56599 0.23355 0.0
H490 H 0.46148 0.68658 0.92498 0.0
H491 H 0.48095 0.712 0.02686 0.0
H492 H 0.48826 0.66446 0.78328 0.0
H493 H 0.5076 0.61959 0.77209 0.0
C494 C 0.90311 0.54214 0.16817 0.0
C495 C 0.89257 0.508 0.25467 0.0
C496 C 0.9509 0.47647 0.20975 0.0
C497 C 0.95619 0.50689 0.10454 0.0
N498 N 0.92897 0.5643 0.97005 0.0
N499 N 0.90405 0.44048 0.35116 0.0
C500 C 0.93084 0.53932 0.08121 0.0
C501 C 0.91619 0.47468 0.27569 0.0
N502 N 0.88251 0.57548 0.15773 0.0
N503 N 0.97868 0.44961 0.24663 0.0
H504 H 0.87776 0.43798 0.39529 0.0
H505 H 0.91849 0.41412 0.36117 0.0
H506 H 1.00493 0.45104 0.20218 0.0
H507 H 0.97711 0.42868 0.32803 0.0
H508 H 0.89133 0.60253 0.10425 0.0
H509 H 0.85751 0.57625 0.20649 0.0
H510 H 0.90838 0.58579 0.94685 0.0
H511 H 0.94346 0.56019 0.89484 0.0
C512 C 0.06779 0.20953 0.09384 0.0
C513 C 0.03964 0.21131 0.1811 0.0
C514 C 0.0133 0.14761 0.1626 0.0
C515 C 0.04562 0.14297 0.09316 0.0
N516 N 0.1023 0.16919 0.98301 0.0
N517 N 0.98288 0.18449 0.29153 0.0
C518 C 0.07215 0.17425 0.05385 0.0
C519 C 1.01085 0.18156 0.21082 0.0
N520 N 0.091 0.24164 0.05339 0.0
N521 N 0.98538 0.1191 0.18309 0.0
H522 H 0.97892 0.20986 0.32222 0.0
H523 H 0.96409 0.1617 0.33042 0.0
H524 H 0.98737 0.09358 0.15097 0.0
H525 H 0.95932 0.12165 0.22436 0.0
H526 H 0.11132 0.24393 0.98528 0.0
H527 H 0.08759 0.26747 0.08329 0.0
H528 H 0.12479 0.18927 0.95898 0.0
H529 H 0.1054 0.14375 0.95105 0.0
C530 C 0.35088 0.04321 0.26335 0.0
C531 C 0.34063 1.00631 0.33971 0.0
C532 C 0.39792 0.97711 0.27329 0.0
C533 C 0.40894 0.01426 0.20027 0.0
N534 N 0.3921 0.08003 0.10241 0.0
N535 N 0.34778 0.93657 0.39161 0.0
C536 C 0.38399 0.04647 0.18771 0.0
C537 C 0.36206 0.9727 0.33527 0.0
N538 N 0.33007 0.07546 0.26823 0.0
N539 N 0.42271 0.94671 0.28852 0.0
H540 H 0.32124 0.93327 0.43511 0.0
H541 H 0.36023 0.91022 0.38597 0.0
H542 H 0.44908 0.94922 0.24448 0.0
H543 H 0.4183 0.91998 0.35029 0.0
H544 H 0.3382 0.10411 0.22586 0.0
H545 H 0.30543 0.07368 0.32085 0.0
H546 H 0.37381 0.10371 0.08061 0.0
H547 H 0.416 0.08273 0.04598 0.0
C548 C 0.5364 0.3541 0.19396 0.0
C549 C 0.5094 0.34898 0.2892 0.0
C550 C 0.48342 0.41416 0.19655 0.0
C551 C 0.50869 0.41779 0.09652 0.0
N552 N 0.54924 0.38325 0.98484 0.0
N553 N 0.45047 0.3692 0.36178 0.0
C554 C 0.53223 0.38538 0.09081 0.0
C555 C 0.48083 0.37762 0.28467 0.0
N556 N 0.56698 0.33 0.20308 0.0
N557 N 0.46305 0.44574 0.21069 0.0
H558 H 0.44688 0.34161 0.41997 0.0
H559 H 0.42718 0.38756 0.3579 0.0
H560 H 0.46464 0.473 0.14977 0.0
H561 H 0.44722 0.44574 0.28821 0.0
H562 H 0.58953 0.33513 0.14118 0.0
H563 H 0.57177 0.30738 0.27835 0.0
H564 H 0.56382 0.3586 0.97337 0.0
H565 H 0.54463 0.40387 0.90499 0.0
C566 C 0.16506 0.54378 0.13853 0.0
C567 C 0.18846 0.51103 0.17321 0.0
C568 C 0.15194 0.47883 0.03871 0.0
C569 C 0.1235 0.50808 0.02855 0.0
N570 N 0.09933 0.56022 0.11359 0.0
N571 N 0.20268 0.44479 0.1621 0.0
C572 C 0.12918 0.53879 0.08942 0.0
C573 C 0.18175 0.47778 0.12407 0.0
N574 N 0.17657 0.57923 0.15669 0.0
N575 N 0.15144 0.45301 0.96564 0.0
H576 H 0.22456 0.44331 0.22398 0.0
H577 H 0.19635 0.4183 0.13886 0.0
H578 H 0.13151 0.45415 0.89797 0.0
H579 H 0.17327 0.43328 0.96383 0.0
H580 H 0.16056 0.60457 0.12894 0.0
H581 H 0.20409 0.58345 0.18579 0.0
H582 H 0.1022 0.58176 0.16285 0.0
H583 H 0.07143 0.55105 0.10392 0.0
C584 C 0.05516 0.83074 0.37802 0.0
C585 C 0.02352 0.8061 0.41692 0.0
C586 C 1.01045 0.84686 0.55987 0.0
C587 C 0.03213 0.87865 0.48671 0.0
N588 N 0.06548 0.89882 0.29287 0.0
N589 N 0.96974 0.79072 0.55257 0.0
C590 C 0.053 0.87007 0.38782 0.0
C591 C 1.00072 0.8139 0.51118 0.0
N592 N 0.08426 0.81823 0.31806 0.0
N593 N 1.00206 0.846 0.67689 0.0
H594 H 0.96232 0.76649 0.51824 0.0
H595 H 0.95074 0.7973 0.61549 0.0
H596 H 0.01554 0.86496 0.72226 0.0
H597 H 0.98747 0.82238 0.7327 0.0
H598 H 0.10845 0.83567 0.28876 0.0
H599 H 0.08513 0.78916 0.30962 0.0
H600 H 0.0828 0.89308 0.22477 0.0
H601 H 0.05302 0.92641 0.27137 0.0
C602 C 0.73646 0.0328 0.35097 0.0
C603 C 0.74269 1.00578 0.27785 0.0
C604 C 0.68941 0.96459 0.38202 0.0
C605 C 0.67747 0.9962 0.43066 0.0
N606 N 0.69019 0.06 0.46758 0.0
N607 N 0.72902 0.94321 0.23393 0.0
C608 C 0.70209 0.0295 0.42161 0.0
C609 C 0.72095 0.97019 0.29938 0.0
N610 N 0.76178 0.06319 0.34472 0.0
N611 N 0.66948 0.92983 0.41226 0.0
H612 H 0.75254 0.9465 0.17574 0.0
H613 H 0.71203 0.91857 0.23393 0.0
H614 H 0.6461 0.92597 0.47118 0.0
H615 H 0.67754 0.9044 0.38667 0.0
H616 H 0.76071 0.08256 0.40141 0.0
H617 H 0.78567 0.06703 0.28803 0.0
H618 H 0.70451 0.08698 0.45417 0.0
H619 H 0.66417 0.0591 0.51256 0.0
C620 C 0.5204 0.63903 0.34387 0.0
C621 C 0.5406 0.67375 0.35155 0.0
C622 C 0.56366 0.63853 0.54915 0.0
C623 C 0.55137 0.60182 0.52728 0.0
N624 N 0.51752 0.56786 0.39728 0.0
N625 N 0.54015 0.70375 0.51902 0.0
C626 C 0.52947 0.60236 0.4226 0.0
C627 C 0.55236 0.67424 0.46953 0.0
N628 N 0.48877 0.64217 0.27452 0.0
N629 N 0.58315 0.63999 0.65064 0.0
H630 H 0.52017 0.72362 0.47473 0.0
H631 H 0.54423 0.70395 0.60919 0.0
H632 H 0.59077 0.61493 0.71445 0.0
H633 H 0.59363 0.66651 0.66587 0.0
H634 H 0.4705 0.61849 0.27307 0.0
H635 H 0.47886 0.6697 0.23031 0.0
H636 H 0.50403 0.56672 0.31722 0.0
H637 H 0.52441 0.54045 0.45091 0.0
C638 C 0.88319 0.54855 0.48732 0.0
C639 C 0.86401 0.51203 0.50022 0.0
C640 C 0.90273 0.4863 0.67709 0.0
C641 C 0.92866 0.51893 0.64211 0.0
N642 N 0.94407 0.58022 0.49763 0.0
N643 N 0.85566 0.44488 0.61007 0.0
C644 C 0.91889 0.55024 0.54364 0.0
C645 C 0.8736 0.48053 0.59665 0.0
N646 N 0.86669 0.58171 0.42332 0.0
N647 N 0.90473 0.46188 0.78888 0.0
H648 H 0.83376 0.44006 0.55386 0.0
H649 H 0.86445 0.4197 0.67129 0.0
H650 H 0.9232 0.46725 0.85446 0.0
H651 H 0.88474 0.4395 0.8214 0.0
H652 H 0.87829 0.60979 0.41668 0.0
H653 H 0.8391 0.58085 0.39041 0.0
H654 H 0.93864 0.60153 0.41952 0.0
H655 H 0.97178 0.58159 0.52806 0.0
loop_
_geom_bond_atom_site_label_1
_geom_bond_atom_site_label_2
_geom_bond_distance
_geom_bond_site_symmetry_2
_ccdc_geom_bond_type
C0 N1 1.317 . S
C0 N2 1.348 . S
C0 C3 1.485 . S
N1 C0 1.317 . S
N1 N5 1.370 . S
N2 C0 1.348 . S
N2 C4 1.346 . S
C3 C0 1.485 . S
C3 H7 0.960 . S
C3 H8 0.961 . S
C3 H9 0.960 . S
C4 N2 1.346 . S
C4 N5 1.307 . S
C4 C6 1.486 1_554 S
N5 N1 1.370 . S
N5 C4 1.307 . S
C6 C4 1.486 1_556 S
C6 H10 0.960 . S
C6 H11 0.960 . S
C6 H12 0.959 . S
H7 C3 0.960 . S
H8 C3 0.961 . S
H9 C3 0.960 . S
H10 C6 0.960 . S
H11 C6 0.960 . S
H12 C6 0.959 . S
C13 N14 1.317 . S
C13 N15 1.348 . S
C13 C16 1.485 . S
N14 C13 1.317 . S
N14 N18 1.370 . S
N15 C13 1.348 . S
N15 C17 1.346 1_554 S
C16 C13 1.485 . S
C16 H20 0.960 . S
C16 H21 0.961 . S
C16 H22 0.960 . S
C17 N15 1.346 1_556 S
C17 N18 1.307 1_556 S
C17 C19 1.486 . S
N18 N14 1.370 . S
N18 C17 1.307 1_554 S
C19 C17 1.486 . S
C19 H23 0.960 . S
C19 H24 0.960 . S
C19 H25 0.959 . S
H20 C16 0.960 . S
H21 C16 0.961 . S
H22 C16 0.960 . S
H23 C19 0.960 . S
H24 C19 0.960 . S
H25 C19 0.959 . S
C26 N27 1.317 . S
C26 N28 1.348 . S
C26 C29 1.485 . S
N27 C26 1.317 . S
N27 N31 1.368 1_554 S
N28 C26 1.348 . S
N28 C30 1.346 1_564 S
C29 C26 1.485 . S
C29 H33 0.960 1_565 S
C29 H34 0.961 . S
C29 H35 0.960 . S
C30 N28 1.346 1_546 S
C30 N31 1.309 1_545 S
C30 C32 1.485 . S
N31 N27 1.368 1_556 S
N31 C30 1.309 1_565 S
C32 C30 1.485 . S
C32 H36 0.960 1_545 S
C32 H37 0.960 . S
C32 H38 0.959 . S
H33 C29 0.960 1_545 S
H34 C29 0.961 . S
H35 C29 0.960 . S
H36 C32 0.960 1_565 S
H37 C32 0.960 . S
H38 C32 0.959 . S
C39 N40 1.317 . S
C39 N41 1.348 . S
C39 C42 1.485 . S
N40 C39 1.317 . S
N40 N44 1.370 . S
N41 C39 1.348 . S
N41 C43 1.346 . S
C42 C39 1.485 . S
C42 H46 0.960 . S
C42 H47 0.961 . S
C42 H48 0.960 . S
C43 N41 1.346 . S
C43 N44 1.307 . S
C43 C45 1.486 1_554 S
N44 N40 1.370 . S
N44 C43 1.307 . S
C45 C43 1.486 1_556 S
C45 H49 0.960 . S
C45 H50 0.960 . S
C45 H51 0.959 . S
H46 C42 0.960 . S
H47 C42 0.961 . S
H48 C42 0.960 . S
H49 C45 0.960 . S
H50 C45 0.960 . S
H51 C45 0.959 . S
C52 N53 1.317 . S
C52 N54 1.348 . S
C52 C55 1.485 . S
N53 C52 1.317 . S
N53 N57 1.370 . S
N54 C52 1.348 . S
N54 C56 1.346 . S
C55 C52 1.485 . S
C55 H59 0.960 . S
C55 H60 0.961 . S
C55 H61 0.960 . S
C56 N54 1.346 . S
C56 N57 1.307 . S
C56 C58 1.486 . S
N57 N53 1.370 . S
N57 C56 1.307 . S
C58 C56 1.486 . S
C58 H62 0.960 . S
C58 H63 0.960 . S
C58 H64 0.959 . S
H59 C55 0.960 . S
H60 C55 0.961 . S
H61 C55 0.960 . S
H62 C58 0.960 . S
H63 C58 0.960 . S
H64 C58 0.959 . S
C65 N66 1.317 . S
C65 N67 1.348 . S
C65 C68 1.485 . S
N66 C65 1.317 . S
N66 N70 1.370 . S
N67 C65 1.348 . S
N67 C69 1.346 . S
C68 C65 1.485 . S
C68 H72 0.960 . S
C68 H73 0.961 . S
C68 H74 0.960 . S
C69 N67 1.346 . S
C69 N70 1.307 . S
C69 C71 1.486 . S
N70 N66 1.370 . S
N70 C69 1.307 . S
C71 C69 1.486 . S
C71 H75 0.960 . S
C71 H76 0.960 . S
C71 H77 0.959 . S
H72 C68 0.960 . S
H73 C68 0.961 . S
H74 C68 0.960 . S
H75 C71 0.960 . S
H76 C71 0.960 . S
H77 C71 0.959 . S
C78 N79 1.317 . S
C78 N80 1.348 . S
C78 C81 1.485 . S
N79 C78 1.317 . S
N79 N83 1.372 . S
N80 C78 1.348 . S
N80 C82 1.345 1_565 S
C81 C78 1.485 . S
C81 H85 0.960 1_565 S
C81 H86 0.961 . S
C81 H87 0.960 . S
C82 N80 1.345 1_545 S
C82 N83 1.305 1_545 S
C82 C84 1.489 . S
N83 N79 1.372 . S
N83 C82 1.305 1_565 S
C84 C82 1.489 . S
C84 H88 0.960 1_545 S
C84 H89 0.960 . S
C84 H90 0.959 . S
H85 C81 0.960 1_545 S
H86 C81 0.961 . S
H87 C81 0.960 . S
H88 C84 0.960 1_565 S
H89 C84 0.960 . S
H90 C84 0.959 . S
C91 N92 1.317 . S
C91 N93 1.348 . S
C91 C94 1.485 . S
N92 C91 1.317 . S
N92 N96 1.370 . S
N93 C91 1.348 . S
N93 C95 1.346 . S
C94 C91 1.485 . S
C94 H98 0.960 . S
C94 H99 0.961 . S
C94 H100 0.960 . S
C95 N93 1.346 . S
C95 N96 1.307 . S
C95 C97 1.486 . S
N96 N92 1.370 . S
N96 C95 1.307 . S
C97 C95 1.486 . S
C97 H101 0.960 . S
C97 H102 0.960 . S
C97 H103 0.959 . S
H98 C94 0.960 . S
H99 C94 0.961 . S
H100 C94 0.960 . S
H101 C97 0.960 . S
H102 C97 0.960 . S
H103 C97 0.959 . S
Co104 N109 2.057 1_556 S
Co104 O121 2.021 . S
Co104 O124 2.062 . S
Co104 O128 2.117 1_455 S
Co104 O129 2.020 1_545 S
C105 O125 1.259 1_545 S
C105 O128 1.258 . S
Co106 N115 2.057 . S
Co106 O122 2.117 . S
Co106 O123 2.020 1_565 S
Co106 O125 2.021 1_455 S
Co106 O130 2.062 . S
C107 N109 1.316 . S
C107 N110 1.347 . S
C107 H112 0.931 . S
C108 N109 1.375 . S
C108 C111 1.350 . S
C108 H113 0.930 1_455 S
N109 Co104 2.057 1_554 S
N109 C107 1.316 . S
N109 C108 1.375 . S
N110 C107 1.347 . S
N110 C111 1.373 . S
C111 C108 1.350 . S
C111 N110 1.373 . S
C111 H132 0.931 1_455 S
H112 C107 0.931 . S
H113 C108 0.930 1_655 S
C114 O121 1.259 1_565 S
C114 O122 1.258 . S
N115 Co106 2.057 . S
N115 C116 1.316 1_455 S
N115 C117 1.375 . S
C116 N115 1.316 1_655 S
C116 N118 1.347 . S
C116 H127 0.931 . S
C117 N115 1.375 . S
C117 C119 1.350 . S
C117 H126 0.930 . S
N118 C116 1.347 . S
N118 C119 1.373 1_655 S
C119 C117 1.350 . S
C119 N118 1.373 1_455 S
C119 H133 0.931 . S
C120 O123 1.256 . S
C120 O124 1.255 . S
O121 Co104 2.021 . S
O121 C114 1.259 1_545 S
O122 Co106 2.117 . S
O122 C114 1.258 . S
O123 Co106 2.020 1_545 S
O123 C120 1.256 . S
O124 Co104 2.062 . S
O124 C120 1.255 . S
O125 C105 1.259 1_565 S
O125 Co106 2.021 1_655 S
H126 C117 0.930 . S
H127 C116 0.931 . S
O128 Co104 2.117 1_655 S
O128 C105 1.258 . S
O129 Co104 2.020 1_565 S
O129 C131 1.256 . S
O130 Co106 2.062 . S
O130 C131 1.255 . S
C131 O129 1.256 . S
C131 O130 1.255 . S
H132 C111 0.931 1_655 S
H133 C119 0.931 . S
Co134 N139 2.057 1_546 S
Co134 O151 2.021 . S
Co134 O154 2.062 . S
Co134 O158 2.117 1_545 S
Co134 O159 2.020 . S
C135 O155 1.259 . S
C135 O158 1.258 . S
Co136 N145 2.057 1_565 S
Co136 O152 2.117 1_565 S
Co136 O153 2.020 . S
Co136 O155 2.021 . S
Co136 O160 2.062 . S
C137 N139 1.316 1_545 S
C137 N140 1.347 . S
C137 H142 0.931 . S
C138 N139 1.375 . S
C138 C141 1.350 . S
C138 H143 0.930 . S
N139 Co134 2.057 1_564 S
N139 C137 1.316 1_565 S
N139 C138 1.375 . S
N140 C137 1.347 . S
N140 C141 1.373 1_545 S
C141 C138 1.350 . S
C141 N140 1.373 1_565 S
C141 H162 0.931 . S
H142 C137 0.931 . S
H143 C138 0.930 . S
C144 O151 1.259 . S
C144 O152 1.258 . S
N145 Co136 2.057 1_545 S
N145 C146 1.316 1_545 S
N145 C147 1.375 . S
C146 N145 1.316 1_565 S
C146 N148 1.347 . S
C146 H157 0.931 . S
C147 N145 1.375 . S
C147 C149 1.350 . S
C147 H156 0.930 . S
N148 C146 1.347 . S
N148 C149 1.373 1_565 S
C149 C147 1.350 . S
C149 N148 1.373 1_545 S
C149 H163 0.931 . S
C150 O153 1.256 . S
C150 O154 1.255 1_565 S
O151 Co134 2.021 . S
O151 C144 1.259 . S
O152 Co136 2.117 1_545 S
O152 C144 1.258 . S
O153 Co136 2.020 . S
O153 C150 1.256 . S
O154 Co134 2.062 . S
O154 C150 1.255 1_545 S
O155 C135 1.259 . S
O155 Co136 2.021 . S
H156 C147 0.930 . S
H157 C146 0.931 . S
O158 Co134 2.117 1_565 S
O158 C135 1.258 . S
O159 Co134 2.020 . S
O159 C161 1.256 . S
O160 Co136 2.062 . S
O160 C161 1.255 1_565 S
C161 O159 1.256 . S
C161 O160 1.255 1_545 S
H162 C141 0.931 . S
H163 C149 0.931 . S
Co164 N169 2.057 . S
Co164 O181 2.021 . S
Co164 O184 2.062 . S
Co164 O188 2.117 . S
Co164 O189 2.020 . S
C165 O185 1.259 . S
C165 O188 1.258 . S
Co166 N175 2.057 . S
Co166 O182 2.117 . S
Co166 O183 2.020 . S
Co166 O185 2.021 . S
Co166 O190 2.062 . S
C167 N169 1.316 . S
C167 N170 1.347 . S
C167 H172 0.931 . S
C168 N169 1.375 . S
C168 C171 1.350 1_556 S
C168 H173 0.930 1_556 S
N169 Co164 2.057 . S
N169 C167 1.316 . S
N169 C168 1.375 . S
N170 C167 1.347 . S
N170 C171 1.373 1_556 S
C171 C168 1.350 1_554 S
C171 N170 1.373 1_554 S
C171 H192 0.931 . S
H172 C167 0.931 . S
H173 C168 0.930 1_554 S
C174 O181 1.259 . S
C174 O182 1.258 . S
N175 Co166 2.057 . S
N175 C176 1.316 . S
N175 C177 1.375 . S
C176 N175 1.316 . S
C176 N178 1.347 . S
C176 H187 0.931 . S
C177 N175 1.375 . S
C177 C179 1.350 . S
C177 H186 0.930 . S
N178 C176 1.347 . S
N178 C179 1.373 . S
C179 C177 1.350 . S
C179 N178 1.373 . S
C179 H193 0.931 . S
C180 O183 1.256 . S
C180 O184 1.255 . S
O181 Co164 2.021 . S
O181 C174 1.259 . S
O182 Co166 2.117 . S
O182 C174 1.258 . S
O183 Co166 2.020 . S
O183 C180 1.256 . S
O184 Co164 2.062 . S
O184 C180 1.255 . S
O185 C165 1.259 . S
O185 Co166 2.021 . S
H186 C177 0.930 . S
H187 C176 0.931 . S
O188 Co164 2.117 . S
O188 C165 1.258 . S
O189 Co164 2.020 . S
O189 C191 1.256 . S
O190 Co166 2.062 . S
O190 C191 1.255 . S
C191 O189 1.256 . S
C191 O190 1.255 . S
H192 C171 0.931 . S
H193 C179 0.931 . S
Co194 N199 2.057 . S
Co194 O211 2.021 1_455 S
Co194 O214 2.062 1_455 S
Co194 O218 2.117 . S
Co194 O219 2.020 . S
C195 O215 1.259 . S
C195 O218 1.258 . S
Co196 N205 2.057 . S
Co196 O212 2.117 1_455 S
Co196 O213 2.020 1_455 S
Co196 O215 2.021 . S
Co196 O220 2.062 . S
C197 N199 1.316 . S
C197 N200 1.347 . S
C197 H202 0.931 1_455 S
C198 N199 1.375 . S
C198 C201 1.350 . S
C198 H203 0.930 . S
N199 Co194 2.057 . S
N199 C197 1.316 . S
N199 C198 1.375 . S
N200 C197 1.347 . S
N200 C201 1.373 . S
C201 C198 1.350 . S
C201 N200 1.373 . S
C201 H222 0.931 . S
H202 C197 0.931 1_655 S
H203 C198 0.930 . S
C204 O211 1.259 . S
C204 O212 1.258 . S
N205 Co196 2.057 . S
N205 C206 1.316 . S
N205 C207 1.375 1_455 S
C206 N205 1.316 . S
C206 N208 1.347 . S
C206 H217 0.931 . S
C207 N205 1.375 1_655 S
C207 C209 1.350 1_655 S
C207 H216 0.930 . S
N208 C206 1.347 . S
N208 C209 1.373 . S
C209 C207 1.350 1_455 S
C209 N208 1.373 . S
C209 H223 0.931 1_455 S
C210 O213 1.256 . S
C210 O214 1.255 . S
O211 Co194 2.021 1_655 S
O211 C204 1.259 . S
O212 Co196 2.117 1_655 S
O212 C204 1.258 . S
O213 Co196 2.020 1_655 S
O213 C210 1.256 . S
O214 Co194 2.062 1_655 S
O214 C210 1.255 . S
O215 C195 1.259 . S
O215 Co196 2.021 . S
H216 C207 0.930 . S
H217 C206 0.931 . S
O218 Co194 2.117 . S
O218 C195 1.258 . S
O219 Co194 2.020 . S
O219 C221 1.256 . S
O220 Co196 2.062 . S
O220 C221 1.255 . S
C221 O219 1.256 . S
C221 O220 1.255 . S
H222 C201 0.931 . S
H223 C209 0.931 1_655 S
C224 C225 1.363 . S
C224 C230 1.379 . S
C224 N232 1.356 . S
C225 C224 1.363 . S
C225 C231 1.363 1_565 S
C226 C227 1.363 1_545 S
C226 C231 1.379 . S
C226 N233 1.356 . S
C227 C226 1.363 1_565 S
C227 C230 1.363 . S
N228 C230 1.356 . S
N228 H240 0.984 . S
N228 H241 0.985 . S
N229 C231 1.356 . S
N229 H234 0.984 . S
N229 H235 0.985 . S
C230 C224 1.379 . S
C230 C227 1.363 . S
C230 N228 1.356 . S
C231 C225 1.363 1_545 S
C231 C226 1.379 . S
C231 N229 1.356 . S
N232 C224 1.356 . S
N232 H238 0.984 . S
N232 H239 0.984 . S
N233 C226 1.356 . S
N233 H236 0.984 . S
N233 H237 0.985 . S
H234 N229 0.984 . S
H235 N229 0.985 . S
H236 N233 0.984 . S
H237 N233 0.985 . S
H238 N232 0.984 . S
H239 N232 0.984 . S
H240 N228 0.984 . S
H241 N228 0.985 . S
C242 C243 1.363 . S
C242 C248 1.379 . S
C242 N250 1.356 . S
C243 C242 1.363 . S
C243 C249 1.363 . S
C244 C245 1.363 . S
C244 C249 1.379 . S
C244 N251 1.356 . S
C245 C244 1.363 . S
C245 C248 1.363 . S
N246 C248 1.356 . S
N246 H258 0.984 . S
N246 H259 0.985 . S
N247 C249 1.356 . S
N247 H252 0.984 . S
N247 H253 0.985 . S
C248 C242 1.379 . S
C248 C245 1.363 . S
C248 N246 1.356 . S
C249 C243 1.363 . S
C249 C244 1.379 . S
C249 N247 1.356 . S
N250 C242 1.356 . S
N250 H256 0.984 . S
N250 H257 0.984 . S
N251 C244 1.356 . S
N251 H254 0.984 . S
N251 H255 0.985 . S
H252 N247 0.984 . S
H253 N247 0.985 . S
H254 N251 0.984 . S
H255 N251 0.985 . S
H256 N250 0.984 . S
H257 N250 0.984 . S
H258 N246 0.984 . S
H259 N246 0.985 . S
C260 C261 1.363 . S
C260 C266 1.379 . S
C260 N268 1.356 . S
C261 C260 1.363 . S
C261 C267 1.363 . S
C262 C263 1.363 . S
C262 C267 1.379 . S
C262 N269 1.356 . S
C263 C262 1.363 . S
C263 C266 1.363 . S
N264 C266 1.356 . S
N264 H276 0.984 . S
N264 H277 0.985 . S
N265 C267 1.356 . S
N265 H270 0.984 . S
N265 H271 0.985 . S
C266 C260 1.379 . S
C266 C263 1.363 . S
C266 N264 1.356 . S
C267 C261 1.363 . S
C267 C262 1.379 . S
C267 N265 1.356 . S
N268 C260 1.356 . S
N268 H274 0.984 . S
N268 H275 0.984 . S
N269 C262 1.356 . S
N269 H272 0.984 . S
N269 H273 0.985 . S
H270 N265 0.984 . S
H271 N265 0.985 . S
H272 N269 0.984 . S
H273 N269 0.985 . S
H274 N268 0.984 . S
H275 N268 0.984 . S
H276 N264 0.984 . S
H277 N264 0.985 . S
C278 C279 1.363 . S
C278 C284 1.379 . S
C278 N286 1.356 . S
C279 C278 1.363 . S
C279 C285 1.363 . S
C280 C281 1.363 . S
C280 C285 1.379 . S
C280 N287 1.356 . S
C281 C280 1.363 . S
C281 C284 1.363 . S
N282 C284 1.356 . S
N282 H294 0.984 . S
N282 H295 0.985 . S
N283 C285 1.356 . S
N283 H288 0.984 . S
N283 H289 0.985 . S
C284 C278 1.379 . S
C284 C281 1.363 . S
C284 N282 1.356 . S
C285 C279 1.363 . S
C285 C280 1.379 . S
C285 N283 1.356 . S
N286 C278 1.356 . S
N286 H292 0.984 . S
N286 H293 0.984 . S
N287 C280 1.356 . S
N287 H290 0.984 . S
N287 H291 0.985 . S
H288 N283 0.984 . S
H289 N283 0.985 . S
H290 N287 0.984 . S
H291 N287 0.985 . S
H292 N286 0.984 . S
H293 N286 0.984 . S
H294 N282 0.984 . S
H295 N282 0.985 . S
C296 C297 1.363 1_565 S
C296 C302 1.379 . S
C296 N304 1.356 1_556 S
C297 C296 1.363 1_545 S
C297 C303 1.363 . S
C298 C299 1.363 . S
C298 C303 1.379 . S
C298 N305 1.356 . S
C299 C298 1.363 . S
C299 C302 1.363 1_545 S
N300 C302 1.356 . S
N300 H312 0.984 1_556 S
N300 H313 0.985 . S
N301 C303 1.356 . S
N301 H306 0.984 . S
N301 H307 0.985 . S
C302 C296 1.379 . S
C302 C299 1.363 1_565 S
C302 N300 1.356 . S
C303 C297 1.363 . S
C303 C298 1.379 . S
C303 N301 1.356 . S
N304 C296 1.356 1_554 S
N304 H310 0.984 . S
N304 H311 0.984 . S
N305 C298 1.356 . S
N305 H308 0.984 . S
N305 H309 0.985 . S
H306 N301 0.984 . S
H307 N301 0.985 . S
H308 N305 0.984 . S
H309 N305 0.985 . S
H310 N304 0.984 . S
H311 N304 0.984 . S
H312 N300 0.984 1_554 S
H313 N300 0.985 . S
C314 C315 1.363 1_556 S
C314 C320 1.379 . S
C314 N322 1.356 . S
C315 C314 1.363 1_554 S
C315 C321 1.363 . S
C316 C317 1.363 1_554 S
C316 C321 1.379 . S
C316 N323 1.356 . S
C317 C316 1.363 1_556 S
C317 C320 1.363 . S
N318 C320 1.356 . S
N318 H330 0.984 . S
N318 H331 0.985 . S
N319 C321 1.356 . S
N319 H324 0.984 . S
N319 H325 0.985 . S
C320 C314 1.379 . S
C320 C317 1.363 . S
C320 N318 1.356 . S
C321 C315 1.363 . S
C321 C316 1.379 . S
C321 N319 1.356 . S
N322 C314 1.356 . S
N322 H328 0.984 . S
N322 H329 0.984 . S
N323 C316 1.356 . S
N323 H326 0.984 1_554 S
N323 H327 0.985 . S
H324 N319 0.984 . S
H325 N319 0.985 . S
H326 N323 0.984 1_556 S
H327 N323 0.985 . S
H328 N322 0.984 . S
H329 N322 0.984 . S
H330 N318 0.984 . S
H331 N318 0.985 . S
C332 C333 1.363 . S
C332 C338 1.379 . S
C332 N340 1.356 . S
C333 C332 1.363 . S
C333 C339 1.363 . S
C334 C335 1.363 . S
C334 C339 1.379 1_556 S
C334 N341 1.356 . S
C335 C334 1.363 . S
C335 C338 1.363 1_556 S
N336 C338 1.356 1_556 S
N336 H348 0.984 1_556 S
N336 H349 0.985 . S
N337 C339 1.356 . S
N337 H342 0.984 . S
N337 H343 0.985 . S
C338 C332 1.379 . S
C338 C335 1.363 1_554 S
C338 N336 1.356 1_554 S
C339 C333 1.363 . S
C339 C334 1.379 1_554 S
C339 N337 1.356 . S
N340 C332 1.356 . S
N340 H346 0.984 . S
N340 H347 0.984 . S
N341 C334 1.356 . S
N341 H344 0.984 . S
N341 H345 0.985 . S
H342 N337 0.984 . S
H343 N337 0.985 . S
H344 N341 0.984 . S
H345 N341 0.985 . S
H346 N340 0.984 . S
H347 N340 0.984 . S
H348 N336 0.984 1_554 S
H349 N336 0.985 . S
C350 C351 1.363 1_556 S
C350 C356 1.379 . S
C350 N358 1.356 . S
C351 C350 1.363 1_554 S
C351 C357 1.363 1_655 S
C352 C353 1.363 1_455 S
C352 C357 1.379 1_556 S
C352 N359 1.356 . S
C353 C352 1.363 1_655 S
C353 C356 1.363 . S
N354 C356 1.356 . S
N354 H366 0.984 . S
N354 H367 0.985 . S
N355 C357 1.356 . S
N355 H360 0.984 . S
N355 H361 0.985 . S
C356 C350 1.379 . S
C356 C353 1.363 . S
C356 N354 1.356 . S
C357 C351 1.363 1_455 S
C357 C352 1.379 1_554 S
C357 N355 1.356 . S
N358 C350 1.356 . S
N358 H364 0.984 . S
N358 H365 0.984 1_556 S
N359 C352 1.356 . S
N359 H362 0.984 . S
N359 H363 0.985 . S
H360 N355 0.984 . S
H361 N355 0.985 . S
H362 N359 0.984 . S
H363 N359 0.985 . S
H364 N358 0.984 . S
H365 N358 0.984 1_554 S
H366 N354 0.984 . S
H367 N354 0.985 . S
C368 C369 1.363 . S
C368 C374 1.379 . S
C368 N376 1.356 . S
C369 C368 1.363 . S
C369 C375 1.363 . S
C370 C371 1.363 . S
C370 C375 1.379 . S
C370 N377 1.356 . S
C371 C370 1.363 . S
C371 C374 1.363 . S
N372 C374 1.356 . S
N372 H384 0.984 . S
N372 H385 0.985 . S
N373 C375 1.356 . S
N373 H378 0.984 . S
N373 H379 0.985 . S
C374 C368 1.379 . S
C374 C371 1.363 . S
C374 N372 1.356 . S
C375 C369 1.363 . S
C375 C370 1.379 . S
C375 N373 1.356 . S
N376 C368 1.356 . S
N376 H382 0.984 . S
N376 H383 0.984 . S
N377 C370 1.356 . S
N377 H380 0.984 1_455 S
N377 H381 0.985 1_455 S
H378 N373 0.984 . S
H379 N373 0.985 . S
H380 N377 0.984 1_655 S
H381 N377 0.985 1_655 S
H382 N376 0.984 . S
H383 N376 0.984 . S
H384 N372 0.984 . S
H385 N372 0.985 . S
C386 C387 1.357 1_545 S
C386 C392 1.379 . S
C386 N394 1.356 . S
C387 C386 1.357 1_565 S
C387 C393 1.371 . S
C388 C389 1.363 . S
C388 C393 1.379 . S
C388 N395 1.356 . S
C389 C388 1.363 . S
C389 C392 1.363 1_565 S
N390 C392 1.356 . S
N390 H402 0.984 . S
N390 H403 0.985 . S
N391 C393 1.356 . S
N391 H396 0.984 . S
N391 H397 0.985 . S
C392 C386 1.379 . S
C392 C389 1.363 1_545 S
C392 N390 1.356 . S
C393 C387 1.371 . S
C393 C388 1.379 . S
C393 N391 1.356 . S
N394 C386 1.356 . S
N394 H400 0.984 . S
N394 H401 0.984 . S
N395 C388 1.356 . S
N395 H398 0.984 . S
N395 H399 0.985 . S
H396 N391 0.984 . S
H397 N391 0.985 . S
H398 N395 0.984 . S
H399 N395 0.985 . S
H400 N394 0.984 . S
H401 N394 0.984 . S
H402 N390 0.984 . S
H403 N390 0.985 . S
C404 C405 1.363 . S
C404 C410 1.379 . S
C404 N412 1.356 . S
C405 C404 1.363 . S
C405 C411 1.363 . S
C406 C407 1.363 . S
C406 C411 1.379 . S
C406 N413 1.356 . S
C407 C406 1.363 . S
C407 C410 1.363 . S
N408 C410 1.356 . S
N408 H420 0.984 . S
N408 H421 0.985 . S
N409 C411 1.356 . S
N409 H414 0.984 . S
N409 H415 0.985 . S
C410 C404 1.379 . S
C410 C407 1.363 . S
C410 N408 1.356 . S
C411 C405 1.363 . S
C411 C406 1.379 . S
C411 N409 1.356 . S
N412 C404 1.356 . S
N412 H418 0.984 . S
N412 H419 0.984 . S
N413 C406 1.356 . S
N413 H416 0.984 . S
N413 H417 0.985 . S
H414 N409 0.984 . S
H415 N409 0.985 . S
H416 N413 0.984 . S
H417 N413 0.985 . S
H418 N412 0.984 . S
H419 N412 0.984 . S
H420 N408 0.984 . S
H421 N408 0.985 . S
C422 C423 1.363 . S
C422 C428 1.379 . S
C422 N430 1.356 . S
C423 C422 1.363 . S
C423 C429 1.363 . S
C424 C425 1.363 . S
C424 C429 1.379 . S
C424 N431 1.356 . S
C425 C424 1.363 . S
C425 C428 1.363 . S
N426 C428 1.356 . S
N426 H438 0.984 . S
N426 H439 0.985 . S
N427 C429 1.356 . S
N427 H432 0.984 . S
N427 H433 0.985 . S
C428 C422 1.379 . S
C428 C425 1.363 . S
C428 N426 1.356 . S
C429 C423 1.363 . S
C429 C424 1.379 . S
C429 N427 1.356 . S
N430 C422 1.356 . S
N430 H436 0.984 . S
N430 H437 0.984 . S
N431 C424 1.356 . S
N431 H434 0.984 . S
N431 H435 0.985 . S
H432 N427 0.984 . S
H433 N427 0.985 . S
H434 N431 0.984 . S
H435 N431 0.985 . S
H436 N430 0.984 . S
H437 N430 0.984 . S
H438 N426 0.984 . S
H439 N426 0.985 . S
C440 C441 1.363 . S
C440 C446 1.379 1_655 S
C440 N448 1.356 . S
C441 C440 1.363 . S
C441 C447 1.363 1_556 S
C442 C443 1.363 1_654 S
C442 C447 1.379 . S
C442 N449 1.356 . S
C443 C442 1.363 1_456 S
C443 C446 1.363 . S
N444 C446 1.356 . S
N444 H456 0.984 . S
N444 H457 0.985 . S
N445 C447 1.356 . S
N445 H450 0.984 . S
N445 H451 0.985 . S
C446 C440 1.379 1_455 S
C446 C443 1.363 . S
C446 N444 1.356 . S
C447 C441 1.363 1_554 S
C447 C442 1.379 . S
C447 N445 1.356 . S
N448 C440 1.356 . S
N448 H454 0.984 . S
N448 H455 0.984 . S
N449 C442 1.356 . S
N449 H452 0.984 1_655 S
N449 H453 0.985 . S
H450 N445 0.984 . S
H451 N445 0.985 . S
H452 N449 0.984 1_455 S
H453 N449 0.985 . S
H454 N448 0.984 . S
H455 N448 0.984 . S
H456 N444 0.984 . S
H457 N444 0.985 . S
C458 C459 1.362 . S
C458 C464 1.379 . S
C458 N466 1.356 . S
C459 C458 1.362 . S
C459 C465 1.366 1_546 S
C460 C461 1.363 1_554 S
C460 C465 1.379 1_545 S
C460 N467 1.356 1_545 S
C461 C460 1.363 1_556 S
C461 C464 1.363 . S
N462 C464 1.356 . S
N462 H474 0.984 . S
N462 H475 0.985 . S
N463 C465 1.356 . S
N463 H468 0.984 . S
N463 H469 0.985 . S
C464 C458 1.379 . S
C464 C461 1.363 . S
C464 N462 1.356 . S
C465 C459 1.366 1_564 S
C465 C460 1.379 1_565 S
C465 N463 1.356 . S
N466 C458 1.356 . S
N466 H472 0.984 . S
N466 H473 0.984 . S
N467 C460 1.356 1_565 S
N467 H470 0.984 1_565 S
N467 H471 0.985 . S
H468 N463 0.984 . S
H469 N463 0.985 . S
H470 N467 0.984 1_545 S
H471 N467 0.985 . S
H472 N466 0.984 . S
H473 N466 0.984 . S
H474 N462 0.984 . S
H475 N462 0.985 . S
C476 C477 1.363 1_556 S
C476 C482 1.379 . S
C476 N484 1.356 . S
C477 C476 1.363 1_554 S
C477 C483 1.363 . S
C478 C479 1.363 1_554 S
C478 C483 1.379 . S
C478 N485 1.356 . S
C479 C478 1.363 1_556 S
C479 C482 1.363 . S
N480 C482 1.356 . S
N480 H492 0.984 . S
N480 H493 0.985 . S
N481 C483 1.356 . S
N481 H486 0.984 . S
N481 H487 0.985 . S
C482 C476 1.379 . S
C482 C479 1.363 . S
C482 N480 1.356 . S
C483 C477 1.363 . S
C483 C478 1.379 . S
C483 N481 1.356 . S
N484 C476 1.356 . S
N484 H490 0.984 . S
N484 H491 0.984 . S
N485 C478 1.356 . S
N485 H488 0.984 . S
N485 H489 0.985 . S
H486 N481 0.984 . S
H487 N481 0.985 . S
H488 N485 0.984 . S
H489 N485 0.985 . S
H490 N484 0.984 . S
H491 N484 0.984 . S
H492 N480 0.984 . S
H493 N480 0.985 . S
C494 C495 1.363 . S
C494 C500 1.379 1_554 S
C494 N502 1.356 1_554 S
C495 C494 1.363 . S
C495 C501 1.363 . S
C496 C497 1.363 1_554 S
C496 C501 1.379 . S
C496 N503 1.356 . S
C497 C496 1.363 1_556 S
C497 C500 1.363 . S
N498 C500 1.356 . S
N498 H510 0.984 . S
N498 H511 0.985 . S
N499 C501 1.356 . S
N499 H504 0.984 . S
N499 H505 0.985 . S
C500 C494 1.379 1_556 S
C500 C497 1.363 . S
C500 N498 1.356 . S
C501 C495 1.363 . S
C501 C496 1.379 . S
C501 N499 1.356 . S
N502 C494 1.356 1_556 S
N502 H508 0.984 . S
N502 H509 0.984 1_556 S
N503 C496 1.356 . S
N503 H506 0.984 1_655 S
N503 H507 0.985 . S
H504 N499 0.984 . S
H505 N499 0.985 . S
H506 N503 0.984 1_455 S
H507 N503 0.985 . S
H508 N502 0.984 . S
H509 N502 0.984 1_554 S
H510 N498 0.984 . S
H511 N498 0.985 . S
C512 C513 1.363 . S
C512 C518 1.379 . S
C512 N520 1.356 . S
C513 C512 1.363 . S
C513 C519 1.363 . S
C514 C515 1.363 . S
C514 C519 1.379 . S
C514 N521 1.356 . S
C515 C514 1.363 . S
C515 C518 1.363 . S
N516 C518 1.356 . S
N516 H528 0.984 . S
N516 H529 0.985 . S
N517 C519 1.356 . S
N517 H522 0.984 . S
N517 H523 0.985 . S
C518 C512 1.379 . S
C518 C515 1.363 . S
C518 N516 1.356 . S
C519 C513 1.363 . S
C519 C514 1.379 . S
C519 N517 1.356 . S
N520 C512 1.356 . S
N520 H526 0.984 . S
N520 H527 0.984 . S
N521 C514 1.356 . S
N521 H524 0.984 . S
N521 H525 0.985 . S
H522 N517 0.984 . S
H523 N517 0.985 . S
H524 N521 0.984 . S
H525 N521 0.985 . S
H526 N520 0.984 . S
H527 N520 0.984 . S
H528 N516 0.984 . S
H529 N516 0.985 . S
C530 C531 1.363 . S
C530 C536 1.379 . S
C530 N538 1.356 . S
C531 C530 1.363 . S
C531 C537 1.363 1_545 S
C532 C533 1.363 1_565 S
C532 C537 1.379 . S
C532 N539 1.356 . S
C533 C532 1.363 1_545 S
C533 C536 1.363 . S
N534 C536 1.356 . S
N534 H546 0.984 . S
N534 H547 0.985 . S
N535 C537 1.356 . S
N535 H540 0.984 . S
N535 H541 0.985 . S
C536 C530 1.379 . S
C536 C533 1.363 . S
C536 N534 1.356 . S
C537 C531 1.363 1_565 S
C537 C532 1.379 . S
C537 N535 1.356 . S
N538 C530 1.356 . S
N538 H544 0.984 . S
N538 H545 0.984 . S
N539 C532 1.356 . S
N539 H542 0.984 . S
N539 H543 0.985 . S
H540 N535 0.984 . S
H541 N535 0.985 . S
H542 N539 0.984 . S
H543 N539 0.985 . S
H544 N538 0.984 . S
H545 N538 0.984 . S
H546 N534 0.984 . S
H547 N534 0.985 . S
C548 C549 1.363 . S
C548 C554 1.379 . S
C548 N556 1.356 . S
C549 C548 1.363 . S
C549 C555 1.363 . S
C550 C551 1.363 . S
C550 C555 1.379 . S
C550 N557 1.356 . S
C551 C550 1.363 . S
C551 C554 1.363 . S
N552 C554 1.356 1_556 S
N552 H564 0.984 . S
N552 H565 0.985 . S
N553 C555 1.356 . S
N553 H558 0.984 . S
N553 H559 0.985 . S
C554 C548 1.379 . S
C554 C551 1.363 . S
C554 N552 1.356 1_554 S
C555 C549 1.363 . S
C555 C550 1.379 . S
C555 N553 1.356 . S
N556 C548 1.356 . S
N556 H562 0.984 . S
N556 H563 0.984 . S
N557 C550 1.356 . S
N557 H560 0.984 . S
N557 H561 0.985 . S
H558 N553 0.984 . S
H559 N553 0.985 . S
H560 N557 0.984 . S
H561 N557 0.985 . S
H562 N556 0.984 . S
H563 N556 0.984 . S
H564 N552 0.984 . S
H565 N552 0.985 . S
C566 C567 1.363 . S
C566 C572 1.379 . S
C566 N574 1.356 . S
C567 C566 1.363 . S
C567 C573 1.363 . S
C568 C569 1.363 . S
C568 C573 1.379 . S
C568 N575 1.356 . S
C569 C568 1.363 . S
C569 C572 1.363 . S
N570 C572 1.356 . S
N570 H582 0.984 . S
N570 H583 0.985 . S
N571 C573 1.356 . S
N571 H576 0.984 . S
N571 H577 0.985 . S
C572 C566 1.379 . S
C572 C569 1.363 . S
C572 N570 1.356 . S
C573 C567 1.363 . S
C573 C568 1.379 . S
C573 N571 1.356 . S
N574 C566 1.356 . S
N574 H580 0.984 . S
N574 H581 0.984 . S
N575 C568 1.356 . S
N575 H578 0.984 1_554 S
N575 H579 0.985 . S
H576 N571 0.984 . S
H577 N571 0.985 . S
H578 N575 0.984 1_556 S
H579 N575 0.985 . S
H580 N574 0.984 . S
H581 N574 0.984 . S
H582 N570 0.984 . S
H583 N570 0.985 . S
C584 C585 1.363 . S
C584 C590 1.377 1_655 S
C584 N592 1.356 1_655 S
C585 C584 1.363 . S
C585 C591 1.363 . S
C586 C587 1.363 . S
C586 C591 1.379 . S
C586 N593 1.356 . S
C587 C586 1.363 . S
C587 C590 1.353 1_655 S
N588 C590 1.366 . S
N588 H600 0.984 . S
N588 H601 0.985 . S
N589 C591 1.356 . S
N589 H594 0.984 . S
N589 H595 0.985 . S
C590 C584 1.377 1_455 S
C590 C587 1.353 1_455 S
C590 N588 1.366 . S
C591 C585 1.363 . S
C591 C586 1.379 . S
C591 N589 1.356 . S
N592 C584 1.356 1_455 S
N592 H598 0.984 . S
N592 H599 0.994 . S
N593 C586 1.356 . S
N593 H596 0.984 . S
N593 H597 0.985 . S
H594 N589 0.984 . S
H595 N589 0.985 . S
H596 N593 0.984 . S
H597 N593 0.985 . S
H598 N592 0.984 . S
H599 N592 0.994 . S
H600 N588 0.984 . S
H601 N588 0.985 . S
C602 C603 1.363 1_545 S
C602 C608 1.379 . S
C602 N610 1.356 . S
C603 C602 1.363 1_565 S
C603 C609 1.363 . S
C604 C605 1.363 . S
C604 C609 1.379 . S
C604 N611 1.356 . S
C605 C604 1.363 . S
C605 C608 1.363 1_565 S
N606 C608 1.356 . S
N606 H618 0.984 . S
N606 H619 0.985 . S
N607 C609 1.356 . S
N607 H612 0.984 . S
N607 H613 0.985 . S
C608 C602 1.379 . S
C608 C605 1.363 1_545 S
C608 N606 1.356 . S
C609 C603 1.363 . S
C609 C604 1.379 . S
C609 N607 1.356 . S
N610 C602 1.356 . S
N610 H616 0.984 . S
N610 H617 0.984 . S
N611 C604 1.356 . S
N611 H614 0.984 . S
N611 H615 0.985 . S
H612 N607 0.984 . S
H613 N607 0.985 . S
H614 N611 0.984 . S
H615 N611 0.985 . S
H616 N610 0.984 . S
H617 N610 0.984 . S
H618 N606 0.984 . S
H619 N606 0.985 . S
C620 C621 1.363 . S
C620 C626 1.379 . S
C620 N628 1.356 . S
C621 C620 1.363 . S
C621 C627 1.363 . S
C622 C623 1.363 . S
C622 C627 1.379 . S
C622 N629 1.356 . S
C623 C622 1.363 . S
C623 C626 1.363 . S
N624 C626 1.356 . S
N624 H636 0.984 . S
N624 H637 0.985 . S
N625 C627 1.356 . S
N625 H630 0.984 . S
N625 H631 0.985 . S
C626 C620 1.379 . S
C626 C623 1.363 . S
C626 N624 1.356 . S
C627 C621 1.363 . S
C627 C622 1.379 . S
C627 N625 1.356 . S
N628 C620 1.356 . S
N628 H634 0.984 . S
N628 H635 0.984 . S
N629 C622 1.356 . S
N629 H632 0.984 . S
N629 H633 0.985 . S
H630 N625 0.984 . S
H631 N625 0.985 . S
H632 N629 0.984 . S
H633 N629 0.985 . S
H634 N628 0.984 . S
H635 N628 0.984 . S
H636 N624 0.984 . S
H637 N624 0.985 . S
C638 C639 1.363 . S
C638 C644 1.379 . S
C638 N646 1.356 . S
C639 C638 1.363 . S
C639 C645 1.363 . S
C640 C641 1.363 . S
C640 C645 1.379 . S
C640 N647 1.356 . S
C641 C640 1.363 . S
C641 C644 1.363 . S
N642 C644 1.356 . S
N642 H654 0.984 . S
N642 H655 0.985 . S
N643 C645 1.356 . S
N643 H648 0.984 . S
N643 H649 0.985 . S
C644 C638 1.379 . S
C644 C641 1.363 . S
C644 N642 1.356 . S
C645 C639 1.363 . S
C645 C640 1.379 . S
C645 N643 1.356 . S
N646 C638 1.356 . S
N646 H652 0.984 . S
N646 H653 0.984 . S
N647 C640 1.356 . S
N647 H650 0.984 . S
N647 H651 0.985 . S
H648 N643 0.984 . S
H649 N643 0.985 . S
H650 N647 0.984 . S
H651 N647 0.985 . S
H652 N646 0.984 . S
H653 N646 0.984 . S
H654 N642 0.984 . S
H655 N642 0.985 . S
C225 N80 1.747 . S
C227 C114 1.745 . S
C245 C144 1.814 . S
C243 N93 1.801 . S
C263 N178 1.372 . S
C261 N54 1.420 . S
C281 N208 1.446 . S
C279 N67 1.467 . S
C299 C105 1.744 . S
C297 N28 1.749 1_546 S
C315 N41 1.811 . S
C317 C135 1.817 . S
C333 N2 1.422 . S
C335 N170 1.372 . S
C351 N15 1.481 . S
C353 N200 1.446 1_655 S
C371 C120 0.685 . S
C369 N70 0.688 . S
C389 C150 1.105 . S
C387 N83 1.109 . S
C407 C191 1.363 . S
C405 N96 1.368 . S
C423 N57 0.870 . S
C425 C221 0.870 . S
C441 N18 0.689 1_556 S
C443 C131 0.688 . S
C461 C161 1.105 . S
C459 N31 1.110 1_545 S
C479 C180 1.364 . S
C477 N44 1.371 . S
C495 N5 0.871 . S
C497 C210 0.869 . S
C513 N66 1.502 . S
C515 N110 1.478 . S
C531 N79 1.481 1_545 S
C533 N140 1.446 . S
C551 C165 1.669 1_554 S
C549 N92 1.666 . S
C569 C195 1.596 1_554 S
C567 N53 1.594 . S
C585 N14 1.514 . S
C587 N118 1.483 . S
C605 N148 1.446 . S
C603 N27 1.476 . S
C623 C174 1.670 . S
C621 N40 1.671 . S
C639 N1 1.593 . S
C641 C204 1.596 . S
