# Generated by pormake.
# Topology ssb, (4,4)-cn, num edge types: 1
# Building blocks:
#     Node 0, Type 0, BuildingBlock: MUDLON_clean_linker_0, # of connection points: 4
#     Node 1, Type 0, BuildingBlock: MUDLON_clean_linker_0, # of connection points: 4
#     Node 2, Type 0, BuildingBlock: MUDLON_clean_linker_0, # of connection points: 4
#     Node 3, Type 0, BuildingBlock: MUDLON_clean_linker_0, # of connection points: 4
#     Node 4, Type 0, BuildingBlock: MUDLON_clean_linker_0, # of connection points: 4
#     Node 5, Type 0, BuildingBlock: MUDLON_clean_linker_0, # of connection points: 4
#     Node 6, Type 0, BuildingBlock: MUDLON_clean_linker_0, # of connection points: 4
#     Node 7, Type 0, BuildingBlock: MUDLON_clean_linker_0, # of connection points: 4
#     Node 8, Type 1, BuildingBlock: KOZSID_clean_sbu_0, # of connection points: 4
#     Node 9, Type 1, BuildingBlock: KOZSID_clean_sbu_0, # of connection points: 4
#     Node 10, Type 1, BuildingBlock: KOZSID_clean_sbu_0, # of connection points: 4
#     Node 11, Type 1, BuildingBlock: KOZSID_clean_sbu_0, # of connection points: 4
#     Node 12, Type 1, BuildingBlock: KOZSID_clean_sbu_0, # of connection points: 4
#     Node 13, Type 1, BuildingBlock: KOZSID_clean_sbu_0, # of connection points: 4
#     Node 14, Type 1, BuildingBlock: KOZSID_clean_sbu_0, # of connection points: 4
#     Node 15, Type 1, BuildingBlock: KOZSID_clean_sbu_0, # of connection points: 4
#     Edge 16, Type (0, 1), BuildingBlock: ZUJKAS_clean_linker_0, # of connection points: 2
#     Edge 17, Type (0, 1), BuildingBlock: ZUJKAS_clean_linker_0, # of connection points: 2
#     Edge 18, Type (0, 1), BuildingBlock: ZUJKAS_clean_linker_0, # of connection points: 2
#     Edge 19, Type (0, 1), BuildingBlock: ZUJKAS_clean_linker_0, # of connection points: 2
#     Edge 20, Type (0, 1), BuildingBlock: ZUJKAS_clean_linker_0, # of connection points: 2
#     Edge 21, Type (0, 1), BuildingBlock: ZUJKAS_clean_linker_0, # of connection points: 2
#     Edge 22, Type (0, 1), BuildingBlock: ZUJKAS_clean_linker_0, # of connection points: 2
#     Edge 23, Type (0, 1), BuildingBlock: ZUJKAS_clean_linker_0, # of connection points: 2
#     Edge 24, Type (0, 1), BuildingBlock: ZUJKAS_clean_linker_0, # of connection points: 2
#     Edge 25, Type (0, 1), BuildingBlock: ZUJKAS_clean_linker_0, # of connection points: 2
#     Edge 26, Type (0, 1), BuildingBlock: ZUJKAS_clean_linker_0, # of connection points: 2
#     Edge 27, Type (0, 1), BuildingBlock: ZUJKAS_clean_linker_0, # of connection points: 2
#     Edge 28, Type (0, 1), BuildingBlock: ZUJKAS_clean_linker_0, # of connection points: 2
#     Edge 29, Type (0, 1), BuildingBlock: ZUJKAS_clean_linker_0, # of connection points: 2
#     Edge 30, Type (0, 1), BuildingBlock: ZUJKAS_clean_linker_0, # of connection points: 2
#     Edge 31, Type (0, 1), BuildingBlock: ZUJKAS_clean_linker_0, # of connection points: 2
#     Edge 32, Type (0, 1), BuildingBlock: ZUJKAS_clean_linker_0, # of connection points: 2
#     Edge 33, Type (0, 1), BuildingBlock: ZUJKAS_clean_linker_0, # of connection points: 2
#     Edge 34, Type (0, 1), BuildingBlock: ZUJKAS_clean_linker_0, # of connection points: 2
#     Edge 35, Type (0, 1), BuildingBlock: ZUJKAS_clean_linker_0, # of connection points: 2
#     Edge 36, Type (0, 1), BuildingBlock: ZUJKAS_clean_linker_0, # of connection points: 2
#     Edge 37, Type (0, 1), BuildingBlock: ZUJKAS_clean_linker_0, # of connection points: 2
#     Edge 38, Type (0, 1), BuildingBlock: ZUJKAS_clean_linker_0, # of connection points: 2
#     Edge 39, Type (0, 1), BuildingBlock: ZUJKAS_clean_linker_0, # of connection points: 2
#     Edge 40, Type (0, 1), BuildingBlock: ZUJKAS_clean_linker_0, # of connection points: 2
#     Edge 41, Type (0, 1), BuildingBlock: ZUJKAS_clean_linker_0, # of connection points: 2
#     Edge 42, Type (0, 1), BuildingBlock: ZUJKAS_clean_linker_0, # of connection points: 2
#     Edge 43, Type (0, 1), BuildingBlock: ZUJKAS_clean_linker_0, # of connection points: 2
#     Edge 44, Type (0, 1), BuildingBlock: ZUJKAS_clean_linker_0, # of connection points: 2
#     Edge 45, Type (0, 1), BuildingBlock: ZUJKAS_clean_linker_0, # of connection points: 2
#     Edge 46, Type (0, 1), BuildingBlock: ZUJKAS_clean_linker_0, # of connection points: 2
#     Edge 47, Type (0, 1), BuildingBlock: ZUJKAS_clean_linker_0, # of connection points: 2
# Relax obj value: 0.003
# Max RMSD: 0.054
# Mean RMSD: 0.023
data_MOF--net-ssb--node1-KOZSID_clean_sbu_0--node2-MUDLON_clean_linker_0--edge1-ZUJKAS_clean_linker_0
_symmetry_space_group_name_H-M    P1
_symmetry_Int_Tables_number       1
_symmetry_cell_setting            triclinic
loop_
_symmetry_equiv_pos_as_xyz
'x, y, z'
_cell_length_a     84.513005
_cell_length_b     84.484326
_cell_length_c     62.280786
_cell_angle_alpha  91.778217
_cell_angle_beta   93.542947
_cell_angle_gamma 89.97233
loop_
_atom_site_label
_atom_site_type_symbol
_atom_site_fract_x
_atom_site_fract_y
_atom_site_fract_z
_atom_type_partial_charge
H0 H 0.29708 0.30106 0.20092 0.0
N1 N 0.30831 0.30007 0.24318 0.0
H2 H 0.28904 0.32456 0.18174 0.0
H3 H 0.30262 0.3286 0.2603 0.0
H4 H 0.29359 0.35225 0.24141 0.0
H5 H 0.33793 0.31041 0.24918 0.0
H6 H 0.36055 0.30296 0.22836 0.0
H7 H 0.30897 0.2756 0.21324 0.0
H8 H 0.33153 0.26795 0.1925 0.0
H9 H 0.28131 0.28562 0.22501 0.0
H10 H 0.31258 0.28876 0.28231 0.0
H11 H 0.2646 0.26686 0.24218 0.0
H12 H 0.29632 0.26943 0.29939 0.0
H13 H 0.20865 0.22479 0.29569 0.0
H14 H 0.18517 0.2327 0.3145 0.0
H15 H 0.21507 0.24409 0.37174 0.0
H16 H 0.23816 0.23545 0.35325 0.0
H17 H 0.26162 0.22119 0.34467 0.0
H18 H 0.26904 0.19757 0.36454 0.0
H19 H 0.23782 0.16941 0.32101 0.0
H20 H 0.23002 0.19327 0.30182 0.0
H21 H 0.24603 0.22226 0.27143 0.0
H22 H 0.26338 0.2405 0.2541 0.0
H23 H 0.27158 0.26658 0.31459 0.0
N24 N 0.23835 0.22289 0.31207 0.0
H25 H 0.25489 0.248 0.3318 0.0
C26 C 0.30072 0.3131 0.23212 0.0
C27 C 0.29623 0.31211 0.20998 0.0
C28 C 0.29147 0.32565 0.19899 0.0
C29 C 0.29082 0.34046 0.2099 0.0
C30 C 0.29432 0.34116 0.23232 0.0
C31 C 0.29929 0.32764 0.24324 0.0
C32 C 0.3218 0.29362 0.23282 0.0
C33 C 0.33659 0.3009 0.23713 0.0
C34 C 0.34948 0.2966 0.22524 0.0
C35 C 0.34781 0.28492 0.20868 0.0
C36 C 0.33314 0.27713 0.20497 0.0
C37 C 0.32025 0.28141 0.21694 0.0
C38 C 0.29814 0.2888 0.25255 0.0
C39 C 0.28462 0.28227 0.24129 0.0
C40 C 0.27513 0.27137 0.2511 0.0
C41 C 0.27903 0.26661 0.27226 0.0
C42 C 0.29272 0.27301 0.28327 0.0
C43 C 0.30211 0.28399 0.27351 0.0
C44 C 0.22518 0.22961 0.32287 0.0
C45 C 0.21009 0.22922 0.3122 0.0
C46 C 0.19671 0.23381 0.32298 0.0
C47 C 0.19819 0.23896 0.34473 0.0
C48 C 0.21343 0.23992 0.35513 0.0
C49 C 0.22675 0.23519 0.34441 0.0
C50 C 0.24512 0.20899 0.32181 0.0
C51 C 0.25651 0.20993 0.33924 0.0
C52 C 0.26082 0.19635 0.35055 0.0
C53 C 0.25387 0.18158 0.34458 0.0
C54 C 0.24316 0.18062 0.32637 0.0
C55 C 0.23881 0.19418 0.31521 0.0
C56 C 0.24901 0.23373 0.30282 0.0
C57 C 0.25168 0.23188 0.28091 0.0
C58 C 0.26149 0.24241 0.27102 0.0
C59 C 0.26884 0.25513 0.28287 0.0
C60 C 0.2663 0.25685 0.30496 0.0
C61 C 0.25658 0.24623 0.31486 0.0
H62 H 0.70797 0.34196 0.25485 0.0
N63 N 0.71521 0.31155 0.25044 0.0
H64 H 0.71951 0.36432 0.2372 0.0
H65 H 0.74032 0.31021 0.22438 0.0
H66 H 0.75217 0.33238 0.20729 0.0
H67 H 0.71611 0.29686 0.21068 0.0
H68 H 0.69324 0.28831 0.1874 0.0
H69 H 0.68527 0.31056 0.26058 0.0
H70 H 0.66224 0.30165 0.23757 0.0
H71 H 0.7177 0.31319 0.29294 0.0
H72 H 0.73378 0.2865 0.23843 0.0
H73 H 0.73432 0.29717 0.31716 0.0
H74 H 0.75152 0.27134 0.26218 0.0
H75 H 0.80072 0.25701 0.38805 0.0
H76 H 0.82898 0.26279 0.39433 0.0
H77 H 0.83514 0.25583 0.3263 0.0
H78 H 0.80672 0.24995 0.32026 0.0
H79 H 0.79674 0.22356 0.32788 0.0
H80 H 0.7937 0.19552 0.33524 0.0
H81 H 0.7643 0.20806 0.38751 0.0
H82 H 0.76731 0.2361 0.37986 0.0
H83 H 0.77693 0.27869 0.35454 0.0
H84 H 0.76026 0.29377 0.32932 0.0
H85 H 0.75431 0.25202 0.28754 0.0
N86 N 0.78526 0.24855 0.35126 0.0
H87 H 0.77201 0.2375 0.31197 0.0
C88 C 0.72322 0.32444 0.24106 0.0
C89 C 0.71772 0.33987 0.24464 0.0
C90 C 0.7244 0.35261 0.23464 0.0
C91 C 0.73677 0.35013 0.22082 0.0
C92 C 0.74253 0.33467 0.21764 0.0
C93 C 0.7358 0.32194 0.22758 0.0
C94 C 0.70233 0.30447 0.23736 0.0
C95 C 0.70445 0.29773 0.21681 0.0
C96 C 0.69132 0.29278 0.20352 0.0
C97 C 0.67589 0.29444 0.21055 0.0
C98 C 0.67394 0.30047 0.23152 0.0
C99 C 0.68705 0.30544 0.24474 0.0
C100 C 0.72471 0.30129 0.26396 0.0
C101 C 0.72498 0.30395 0.28624 0.0
C102 C 0.73466 0.29488 0.3 0.0
C103 C 0.74461 0.28311 0.29171 0.0
C104 C 0.74402 0.28021 0.26927 0.0
C105 C 0.73401 0.28907 0.25555 0.0
C106 C 0.8017 0.25305 0.35381 0.0
C107 C 0.80817 0.25694 0.37451 0.0
C108 C 0.82428 0.26031 0.378 0.0
C109 C 0.83429 0.25983 0.36078 0.0
C110 C 0.82773 0.25619 0.33989 0.0
C111 C 0.81153 0.25287 0.33641 0.0
C112 C 0.7823 0.23191 0.35351 0.0
C113 C 0.78952 0.22027 0.34078 0.0
C114 C 0.7878 0.20424 0.34502 0.0
C115 C 0.77883 0.19957 0.36202 0.0
C116 C 0.77112 0.21124 0.37413 0.0
C117 C 0.77287 0.22725 0.36988 0.0
C118 C 0.77563 0.25695 0.33543 0.0
C119 C 0.77211 0.27287 0.33982 0.0
C120 C 0.7624 0.2814 0.32546 0.0
C121 C 0.75561 0.27409 0.30645 0.0
C122 C 0.75938 0.25815 0.30186 0.0
C123 C 0.76944 0.24971 0.31605 0.0
H124 H 0.78662 0.77829 0.3745 0.0
N125 N 0.78108 0.79146 0.33666 0.0
H126 H 0.8123 0.77084 0.39162 0.0
H127 H 0.80965 0.79121 0.31771 0.0
H128 H 0.83521 0.78435 0.33478 0.0
H129 H 0.79858 0.81689 0.32518 0.0
H130 H 0.79624 0.84409 0.33879 0.0
H131 H 0.75831 0.80341 0.35976 0.0
H132 H 0.75593 0.83072 0.37362 0.0
H133 H 0.75937 0.76895 0.33021 0.0
H134 H 0.78855 0.80037 0.29641 0.0
H135 H 0.74847 0.75753 0.29595 0.0
H136 H 0.77877 0.78831 0.26226 0.0
H137 H 0.72592 0.71622 0.20605 0.0
H138 H 0.73173 0.68956 0.19281 0.0
H139 H 0.76854 0.7083 0.15556 0.0
H140 H 0.76293 0.73497 0.16955 0.0
H141 H 0.73085 0.75588 0.15688 0.0
H142 H 0.70383 0.76141 0.14271 0.0
H143 H 0.68575 0.7464 0.20223 0.0
H144 H 0.71289 0.74084 0.2162 0.0
H145 H 0.74379 0.72889 0.23336 0.0
H146 H 0.75396 0.74079 0.26731 0.0
H147 H 0.75761 0.78596 0.2371 0.0
N148 N 0.73983 0.74374 0.19442 0.0
H149 H 0.74844 0.77358 0.20268 0.0
C150 C 0.79611 0.78531 0.34488 0.0
C151 C 0.79718 0.77931 0.36564 0.0
C152 C 0.81187 0.77522 0.37544 0.0
C153 C 0.82586 0.77713 0.36466 0.0
C154 C 0.82469 0.78255 0.34349 0.0
C155 C 0.80998 0.78658 0.33369 0.0
C156 C 0.7786 0.80803 0.34155 0.0
C157 C 0.78903 0.81979 0.33536 0.0
C158 C 0.78776 0.83537 0.34329 0.0
C159 C 0.776 0.83952 0.35744 0.0
C160 C 0.76504 0.82793 0.36262 0.0
C161 C 0.76639 0.81234 0.35477 0.0
C162 C 0.77489 0.78533 0.31598 0.0
C163 C 0.76353 0.77325 0.31536 0.0
C164 C 0.75745 0.76664 0.29572 0.0
C165 C 0.76281 0.77181 0.27614 0.0
C166 C 0.77415 0.78408 0.27686 0.0
C167 C 0.77998 0.7909 0.29653 0.0
C168 C 0.74408 0.72765 0.18882 0.0
C169 C 0.73542 0.7146 0.19533 0.0
C170 C 0.73867 0.69933 0.18757 0.0
C171 C 0.75052 0.69675 0.17294 0.0
C172 C 0.75947 0.70978 0.16699 0.0
C173 C 0.75627 0.72504 0.1749 0.0
C174 C 0.72385 0.74796 0.18747 0.0
C175 C 0.72104 0.75398 0.16691 0.0
C176 C 0.70562 0.75718 0.15892 0.0
C177 C 0.69265 0.75435 0.17136 0.0
C178 C 0.69549 0.74856 0.19219 0.0
C179 C 0.71098 0.74543 0.20022 0.0
C180 C 0.74557 0.7503 0.21516 0.0
C181 C 0.74691 0.74129 0.23382 0.0
C182 C 0.75259 0.74823 0.25349 0.0
C183 C 0.7567 0.76441 0.25515 0.0
C184 C 0.75498 0.77341 0.23651 0.0
C185 C 0.7496 0.76639 0.21679 0.0
H186 H 0.28572 0.76022 0.13623 0.0
N187 N 0.28024 0.74985 0.17478 0.0
H188 H 0.31116 0.76815 0.1232 0.0
H189 H 0.30793 0.75534 0.19991 0.0
H190 H 0.33311 0.7636 0.18722 0.0
H191 H 0.30124 0.72668 0.18753 0.0
H192 H 0.30021 0.69888 0.176 0.0
H193 H 0.25732 0.73521 0.15076 0.0
H194 H 0.25608 0.70719 0.13927 0.0
H195 H 0.25688 0.77043 0.17925 0.0
H196 H 0.28903 0.74033 0.21562 0.0
H197 H 0.24488 0.77897 0.21239 0.0
H198 H 0.2781 0.74959 0.24877 0.0
H199 H 0.22355 0.81546 0.30873 0.0
H200 H 0.23252 0.84115 0.32325 0.0
H201 H 0.27541 0.81967 0.35031 0.0
H202 H 0.26589 0.79371 0.33641 0.0
H203 H 0.231 0.7746 0.35131 0.0
H204 H 0.20454 0.7706 0.36392 0.0
H205 H 0.18381 0.78711 0.30349 0.0
H206 H 0.21043 0.79128 0.29116 0.0
H207 H 0.23852 0.80369 0.2775 0.0
H208 H 0.24852 0.79448 0.24361 0.0
H209 H 0.25665 0.74811 0.26978 0.0
N210 N 0.2385 0.78697 0.31475 0.0
H211 H 0.24776 0.75792 0.30427 0.0
C212 C 0.29476 0.75715 0.16897 0.0
C213 C 0.29597 0.76129 0.14752 0.0
C214 C 0.31051 0.76585 0.14013 0.0
C215 C 0.32422 0.76637 0.15414 0.0
C216 C 0.32284 0.76305 0.17593 0.0
C217 C 0.3083 0.75844 0.18328 0.0
C218 C 0.27931 0.73307 0.16992 0.0
C219 C 0.29121 0.72254 0.17728 0.0
C220 C 0.29059 0.70658 0.17071 0.0
C221 C 0.2781 0.70084 0.15665 0.0
C222 C 0.26597 0.7113 0.14989 0.0
C223 C 0.26659 0.72725 0.1565 0.0
C224 C 0.27398 0.75496 0.19487 0.0
C225 C 0.2615 0.76587 0.19444 0.0
C226 C 0.25474 0.7708 0.21345 0.0
C227 C 0.2605 0.76505 0.23343 0.0
C228 C 0.27308 0.7541 0.23376 0.0
C229 C 0.27959 0.74895 0.21471 0.0
C230 C 0.24398 0.80256 0.32181 0.0
C231 C 0.23486 0.81621 0.31781 0.0
C232 C 0.24012 0.83099 0.32594 0.0
C233 C 0.25469 0.83252 0.33804 0.0
C234 C 0.26402 0.8189 0.34138 0.0
C235 C 0.25867 0.80409 0.33337 0.0
C236 C 0.22269 0.78318 0.3204 0.0
C237 C 0.22072 0.7771 0.3407 0.0
C238 C 0.20559 0.77478 0.34781 0.0
C239 C 0.19205 0.77853 0.3347 0.0
C240 C 0.19401 0.78424 0.31404 0.0
C241 C 0.20921 0.78653 0.30691 0.0
C242 C 0.24278 0.78155 0.2937 0.0
C243 C 0.24255 0.79158 0.27606 0.0
C244 C 0.24813 0.7862 0.25647 0.0
C245 C 0.25365 0.77056 0.25388 0.0
C246 C 0.25301 0.76036 0.27126 0.0
C247 C 0.24775 0.76586 0.29096 0.0
H248 H 0.22412 0.84601 0.72549 0.0
N249 N 0.22975 0.8153 0.72121 0.0
H250 H 0.23492 0.86737 0.70518 0.0
H251 H 0.2536 0.81225 0.6936 0.0
H252 H 0.26454 0.83357 0.67306 0.0
H253 H 0.22897 0.79905 0.68246 0.0
H254 H 0.20533 0.79016 0.66105 0.0
H255 H 0.19993 0.817 0.73218 0.0
H256 H 0.17606 0.80851 0.7106 0.0
H257 H 0.23675 0.82083 0.76275 0.0
H258 H 0.24343 0.7867 0.7113 0.0
H259 H 0.25057 0.80348 0.78827 0.0
H260 H 0.25654 0.76882 0.73683 0.0
H261 H 0.29511 0.76575 0.86159 0.0
H262 H 0.32249 0.77131 0.87479 0.0
H263 H 0.33929 0.74156 0.82327 0.0
H264 H 0.31192 0.73584 0.81059 0.0
H265 H 0.28934 0.71907 0.80531 0.0
H266 H 0.28517 0.69196 0.81704 0.0
H267 H 0.26663 0.71078 0.87569 0.0
H268 H 0.27106 0.73769 0.86393 0.0
H269 H 0.25964 0.76373 0.83322 0.0
H270 H 0.24615 0.77993 0.80596 0.0
H271 H 0.27938 0.76388 0.75987 0.0
N272 N 0.2853 0.74615 0.82937 0.0
H273 H 0.29218 0.74704 0.78708 0.0
C274 C 0.238 0.82762 0.71101 0.0
C275 C 0.23317 0.8433 0.71436 0.0
C276 C 0.23939 0.85547 0.70277 0.0
C277 C 0.25057 0.85217 0.68744 0.0
C278 C 0.25582 0.83646 0.68459 0.0
C279 C 0.24963 0.82428 0.69636 0.0
C280 C 0.21618 0.80867 0.70901 0.0
C281 C 0.21752 0.80094 0.68889 0.0
C282 C 0.20394 0.79598 0.67656 0.0
C283 C 0.18877 0.7987 0.68404 0.0
C284 C 0.18754 0.80604 0.70445 0.0
C285 C 0.20113 0.81096 0.71678 0.0
C286 C 0.23886 0.80503 0.73525 0.0
C287 C 0.24119 0.80954 0.75701 0.0
C288 C 0.24894 0.79949 0.77159 0.0
C289 C 0.25443 0.78454 0.76476 0.0
C290 C 0.25253 0.78023 0.74271 0.0
C291 C 0.24491 0.79043 0.72806 0.0
C292 C 0.30149 0.75043 0.83519 0.0
C293 C 0.30475 0.76064 0.85304 0.0
C294 C 0.32039 0.76384 0.86046 0.0
C295 C 0.3331 0.75684 0.85011 0.0
C296 C 0.32978 0.74698 0.83176 0.0
C297 C 0.31412 0.74379 0.82438 0.0
C298 C 0.2806 0.73032 0.83392 0.0
C299 C 0.28422 0.7173 0.82054 0.0
C300 C 0.28186 0.70185 0.82729 0.0
C301 C 0.27564 0.69923 0.84734 0.0
C302 C 0.27127 0.71236 0.86007 0.0
C303 C 0.2738 0.72773 0.85342 0.0
C304 C 0.27696 0.75437 0.81228 0.0
C305 C 0.26384 0.76359 0.81713 0.0
C306 C 0.25629 0.77299 0.80157 0.0
C307 C 0.26186 0.77353 0.78075 0.0
C308 C 0.27472 0.76377 0.77567 0.0
C309 C 0.28215 0.75419 0.79128 0.0
H310 H 0.29009 0.27218 0.89888 0.0
N311 N 0.2766 0.28226 0.86234 0.0
H312 H 0.3183 0.26776 0.90762 0.0
H313 H 0.3001 0.28249 0.83376 0.0
H314 H 0.32816 0.27766 0.84208 0.0
H315 H 0.28601 0.30711 0.83899 0.0
H316 H 0.28344 0.33516 0.84882 0.0
H317 H 0.26033 0.29467 0.8937 0.0
H318 H 0.2574 0.32277 0.90348 0.0
H319 H 0.25511 0.26085 0.87022 0.0
H320 H 0.27529 0.28498 0.81847 0.0
H321 H 0.2374 0.2462 0.84432 0.0
H322 H 0.2587 0.26954 0.79231 0.0
H323 H 0.19825 0.18911 0.7528 0.0
H324 H 0.21091 0.16739 0.7334 0.0
H325 H 0.24667 0.1998 0.71439 0.0
H326 H 0.23385 0.22145 0.73379 0.0
H327 H 0.21057 0.23437 0.71753 0.0
H328 H 0.18961 0.24461 0.69321 0.0
H329 H 0.15473 0.23111 0.73718 0.0
H330 H 0.17596 0.22123 0.76177 0.0
H331 H 0.21892 0.21071 0.79328 0.0
H332 H 0.23642 0.22579 0.81885 0.0
H333 H 0.23331 0.26574 0.77698 0.0
N334 N 0.20669 0.21938 0.7553 0.0
H335 H 0.21689 0.25024 0.75095 0.0
C336 C 0.29292 0.27759 0.86574 0.0
C337 C 0.29834 0.27309 0.88635 0.0
C338 C 0.31446 0.27053 0.89125 0.0
C339 C 0.32553 0.2724 0.87555 0.0
C340 C 0.31998 0.27632 0.85462 0.0
C341 C 0.30384 0.27896 0.84977 0.0
C342 C 0.2734 0.29882 0.86577 0.0
C343 C 0.27951 0.31042 0.85285 0.0
C344 C 0.27799 0.32648 0.85846 0.0
C345 C 0.27036 0.33117 0.87706 0.0
C346 C 0.26358 0.31952 0.88927 0.0
C347 C 0.26512 0.30351 0.88365 0.0
C348 C 0.26672 0.27373 0.84633 0.0
C349 C 0.25588 0.26275 0.8532 0.0
C350 C 0.24587 0.2543 0.83831 0.0
C351 C 0.24668 0.25647 0.81607 0.0
C352 C 0.25756 0.26761 0.80925 0.0
C353 C 0.26733 0.27631 0.82424 0.0
C354 C 0.21505 0.20682 0.74467 0.0
C355 C 0.2089 0.19144 0.74458 0.0
C356 C 0.2162 0.17908 0.73361 0.0
C357 C 0.22981 0.18189 0.7224 0.0
C358 C 0.23612 0.19731 0.72273 0.0
C359 C 0.22883 0.20967 0.73383 0.0
C360 C 0.1948 0.22699 0.74155 0.0
C361 C 0.19846 0.23377 0.7221 0.0
C362 C 0.18642 0.23955 0.70811 0.0
C363 C 0.17046 0.23856 0.71313 0.0
C364 C 0.1669 0.23223 0.7329 0.0
C365 C 0.17897 0.22652 0.74694 0.0
C366 C 0.21639 0.22922 0.77024 0.0
C367 C 0.22205 0.22273 0.78967 0.0
C368 C 0.23196 0.23146 0.80435 0.0
C369 C 0.23626 0.24711 0.80017 0.0
C370 C 0.23051 0.25366 0.78069 0.0
C371 C 0.22086 0.24478 0.76577 0.0
H372 H 0.79067 0.26055 0.66122 0.0
N373 N 0.78715 0.24598 0.69771 0.0
H374 H 0.81553 0.26819 0.6461 0.0
H375 H 0.8168 0.24539 0.71857 0.0
H376 H 0.84154 0.25308 0.70376 0.0
H377 H 0.80414 0.22031 0.71207 0.0
H378 H 0.80139 0.19318 0.69797 0.0
H379 H 0.76442 0.23448 0.67035 0.0
H380 H 0.76129 0.20716 0.6564 0.0
H381 H 0.76407 0.26693 0.70128 0.0
H382 H 0.79672 0.23828 0.73907 0.0
H383 H 0.75318 0.27758 0.73416 0.0
H384 H 0.78686 0.24963 0.77195 0.0
H385 H 0.73064 0.31776 0.82316 0.0
H386 H 0.73596 0.34425 0.83855 0.0
H387 H 0.77569 0.32604 0.8772 0.0
H388 H 0.77029 0.29945 0.86156 0.0
H389 H 0.73753 0.27883 0.87155 0.0
H390 H 0.71069 0.27409 0.88244 0.0
H391 H 0.6917 0.2875 0.81958 0.0
H392 H 0.71866 0.29243 0.80898 0.0
H393 H 0.74749 0.30561 0.79645 0.0
H394 H 0.75785 0.29473 0.76364 0.0
H395 H 0.76589 0.24989 0.79419 0.0
N396 N 0.74595 0.29042 0.83488 0.0
H397 H 0.75647 0.26132 0.82752 0.0
C398 C 0.80178 0.2524 0.69096 0.0
C399 C 0.80173 0.2592 0.67073 0.0
C400 C 0.81594 0.26357 0.66216 0.0
C401 C 0.83052 0.26114 0.67369 0.0
C402 C 0.83051 0.2549 0.69436 0.0
C403 C 0.81629 0.25058 0.70293 0.0
C404 C 0.78446 0.22948 0.69218 0.0
C405 C 0.79458 0.21755 0.70024 0.0
C406 C 0.79296 0.20196 0.69216 0.0
C407 C 0.78121 0.198 0.67589 0.0
C408 C 0.77065 0.20985 0.66865 0.0
C409 C 0.7723 0.22542 0.67671 0.0
C410 C 0.78133 0.25201 0.71762 0.0
C411 C 0.76903 0.26312 0.71673 0.0
C412 C 0.76293 0.26929 0.73559 0.0
C413 C 0.76917 0.26462 0.7559 0.0
C414 C 0.78154 0.2534 0.7567 0.0
C415 C 0.78743 0.24704 0.73779 0.0
C416 C 0.75006 0.30654 0.84133 0.0
C417 C 0.74062 0.31944 0.8347 0.0
C418 C 0.74363 0.3346 0.84361 0.0
C419 C 0.75614 0.33721 0.85926 0.0
C420 C 0.76603 0.32445 0.86507 0.0
C421 C 0.76296 0.30926 0.85621 0.0
C422 C 0.7301 0.28594 0.83955 0.0
C423 C 0.72756 0.28047 0.86005 0.0
C424 C 0.71222 0.27773 0.86618 0.0
C425 C 0.69903 0.28043 0.85188 0.0
C426 C 0.7016 0.28547 0.83104 0.0
C427 C 0.717 0.28818 0.82491 0.0
C428 C 0.75146 0.28434 0.81474 0.0
C429 C 0.75162 0.2935 0.79627 0.0
C430 C 0.75742 0.28715 0.77728 0.0
C431 C 0.76285 0.27139 0.77611 0.0
C432 C 0.76224 0.26217 0.7945 0.0
C433 C 0.75671 0.26863 0.81356 0.0
H434 H 0.76499 0.79164 0.66232 0.0
N435 N 0.78642 0.77956 0.69008 0.0
H436 H 0.75918 0.81966 0.6568 0.0
H437 H 0.7981 0.80452 0.71539 0.0
H438 H 0.79213 0.83242 0.71039 0.0
H439 H 0.81306 0.78103 0.71736 0.0
H440 H 0.84042 0.77944 0.7066 0.0
H441 H 0.79584 0.77016 0.65207 0.0
H442 H 0.82304 0.76759 0.6413 0.0
H443 H 0.77111 0.7527 0.68092 0.0
H444 H 0.78534 0.78479 0.73367 0.0
H445 H 0.75653 0.73676 0.70513 0.0
H446 H 0.77005 0.76957 0.75779 0.0
H447 H 0.693 0.70653 0.78432 0.0
H448 H 0.67112 0.71762 0.80382 0.0
H449 H 0.70219 0.75455 0.8313 0.0
H450 H 0.72404 0.74324 0.81186 0.0
H451 H 0.73656 0.71954 0.82773 0.0
H452 H 0.74767 0.69855 0.84998 0.0
H453 H 0.7382 0.66463 0.79741 0.0
H454 H 0.72717 0.68585 0.77507 0.0
H455 H 0.71686 0.72268 0.74585 0.0
H456 H 0.73293 0.73821 0.72296 0.0
H457 H 0.76761 0.74586 0.77631 0.0
N458 N 0.72294 0.71598 0.78673 0.0
H459 H 0.751 0.73112 0.79929 0.0
C460 C 0.78196 0.79598 0.68913 0.0
C461 C 0.77073 0.80052 0.67305 0.0
C462 C 0.76739 0.81651 0.67003 0.0
C463 C 0.77525 0.82828 0.68312 0.0
C464 C 0.78602 0.82365 0.69987 0.0
C465 C 0.78938 0.80765 0.70283 0.0
C466 C 0.80248 0.776 0.68533 0.0
C467 C 0.8152 0.77805 0.70077 0.0
C468 C 0.83084 0.777 0.69461 0.0
C469 C 0.83396 0.77371 0.67296 0.0
C470 C 0.82111 0.77061 0.65796 0.0
C471 C 0.80557 0.77187 0.66408 0.0
C472 C 0.77908 0.77 0.70535 0.0
C473 C 0.77104 0.75628 0.69776 0.0
C474 C 0.76258 0.74732 0.7116 0.0
C475 C 0.76181 0.75203 0.73338 0.0
C476 C 0.7704 0.76553 0.74116 0.0
C477 C 0.77908 0.77436 0.7273 0.0
C478 C 0.71009 0.724 0.79663 0.0
C479 C 0.69498 0.71716 0.79429 0.0
C480 C 0.6825 0.72356 0.80538 0.0
C481 C 0.68492 0.73696 0.81914 0.0
C482 C 0.7 0.74412 0.82099 0.0
C483 C 0.71248 0.73772 0.8098 0.0
C484 C 0.73088 0.7042 0.79971 0.0
C485 C 0.73698 0.70765 0.82086 0.0
C486 C 0.74331 0.69562 0.83362 0.0
C487 C 0.7437 0.67992 0.82549 0.0
C488 C 0.73819 0.67662 0.80406 0.0
C489 C 0.73182 0.68868 0.79133 0.0
C490 C 0.73275 0.72552 0.77411 0.0
C491 C 0.7279 0.72779 0.75256 0.0
C492 C 0.73721 0.73654 0.73948 0.0
C493 C 0.75175 0.7431 0.74765 0.0
C494 C 0.75647 0.74107 0.76946 0.0
C495 C 0.74701 0.73248 0.78263 0.0
C496 C 0.03722 0.27829 0.54683 0.0
C497 C 0.04268 0.29282 0.55531 0.0
C498 C 0.03549 0.30414 0.54299 0.0
C499 C 0.02612 0.29594 0.52774 0.0
N500 N 0.02681 0.28003 0.5296 0.0
Co501 Co 0.0152 0.26362 0.51065 0.0
N502 N 0.00538 0.28028 0.49177 0.0
C503 C 0.00795 0.29609 0.49352 0.0
C504 C 0.99937 0.30454 0.4784 0.0
C505 C 0.99071 0.29349 0.46635 0.0
C506 C 0.99454 0.27888 0.47485 0.0
N507 N 0.00329 0.24724 0.49203 0.0
C508 C 0.99246 0.24904 0.47533 0.0
C509 C 0.98667 0.23456 0.46712 0.0
C510 C 0.99388 0.2232 0.47932 0.0
C511 C 0.00364 0.23135 0.49417 0.0
N512 N 0.02527 0.24693 0.52921 0.0
C513 C 0.02326 0.23106 0.52687 0.0
C514 C 0.03194 0.2226 0.54185 0.0
C515 C 0.04015 0.23369 0.5544 0.0
C516 C 0.03601 0.24834 0.54624 0.0
N517 N 0.99699 0.26509 0.52934 0.0
C518 C 0.97041 0.26705 0.55461 0.0
C519 C 0.97722 0.25244 0.54949 0.0
C520 C 0.99035 0.25174 0.53694 0.0
C521 C 0.97732 0.28068 0.5471 0.0
C522 C 0.99049 0.27944 0.53465 0.0
N523 N 0.03339 0.26216 0.49191 0.0
C524 C 0.05112 0.24648 0.47083 0.0
C525 C 0.05945 0.25999 0.46576 0.0
C526 C 0.05449 0.27462 0.47394 0.0
C527 C 0.04151 0.27543 0.48677 0.0
C528 C 0.0383 0.24781 0.48388 0.0
H529 H 0.0383 0.28694 0.49237 0.0
H530 H 0.03265 0.23703 0.48736 0.0
H531 H 0.99486 0.24024 0.53352 0.0
H532 H 0.9951 0.29026 0.52932 0.0
C533 C 0.01743 0.30275 0.51061 0.0
C534 C 0.04282 0.26319 0.55505 0.0
C535 C 0.98692 0.26415 0.46711 0.0
C536 C 0.0131 0.22444 0.51049 0.0
H537 H 0.05122 0.29501 0.56874 0.0
H538 H 0.03721 0.31683 0.54461 0.0
H539 H 0.99907 0.31725 0.47678 0.0
H540 H 0.98224 0.29596 0.45314 0.0
H541 H 0.97796 0.23247 0.45385 0.0
H542 H 0.99207 0.21052 0.47774 0.0
H543 H 0.03232 0.20987 0.5434 0.0
H544 H 0.04834 0.23126 0.56794 0.0
H545 H 0.97251 0.24154 0.55522 0.0
H546 H 0.97241 0.29229 0.55041 0.0
H547 H 0.05466 0.23485 0.4651 0.0
H548 H 0.0605 0.28544 0.47027 0.0
C549 C 0.76607 0.04067 0.5542 0.0
C550 C 0.75164 0.04703 0.55959 0.0
C551 C 0.74014 0.03851 0.54808 0.0
C552 C 0.74816 0.02746 0.53643 0.0
N553 N 0.76411 0.02826 0.53994 0.0
Co554 Co 0.78031 0.01472 0.52589 0.0
N555 N 0.76339 0.00274 0.50807 0.0
C556 C 0.74752 0.00476 0.50847 0.0
C557 C 0.73885 0.99445 0.49505 0.0
C558 C 0.7498 0.9852 0.48553 0.0
C559 C 0.76461 0.9905 0.49364 0.0
N560 N 0.79653 0.00132 0.51163 0.0
C561 C 0.79462 0.98941 0.49659 0.0
C562 C 0.8091 0.98345 0.49069 0.0
C563 C 0.82056 0.9917 0.50267 0.0
C564 C 0.81248 0.00225 0.51503 0.0
N565 N 0.79722 0.02659 0.54388 0.0
C566 C 0.81305 0.02415 0.54416 0.0
C567 C 0.82169 0.03432 0.55785 0.0
C568 C 0.81075 0.04393 0.56679 0.0
C569 C 0.796 0.03902 0.558 0.0
N570 N 0.77917 0.99896 0.54875 0.0
C571 C 0.7774 0.97494 0.57889 0.0
C572 C 0.79201 0.98003 0.57238 0.0
C573 C 0.79263 0.992 0.5575 0.0
C574 C 0.76373 0.98246 0.57066 0.0
C575 C 0.76488 0.99434 0.55577 0.0
N576 N 0.78145 0.03043 0.50304 0.0
C577 C 0.79674 0.04764 0.48193 0.0
C578 C 0.78292 0.05402 0.47225 0.0
C579 C 0.76837 0.04807 0.47781 0.0
C580 C 0.76791 0.03637 0.49308 0.0
C581 C 0.79574 0.03594 0.49713 0.0
H582 H 0.75645 0.03251 0.4968 0.0
H583 H 0.80669 0.03168 0.50404 0.0
H584 H 0.80411 0.99524 0.55313 0.0
H585 H 0.754 0.99937 0.54989 0.0
C586 C 0.74108 0.01638 0.52177 0.0
C587 C 0.78128 0.04701 0.56282 0.0
C588 C 0.77943 0.98323 0.48757 0.0
C589 C 0.81952 0.01288 0.53037 0.0
H590 H 0.74965 0.05692 0.57056 0.0
H591 H 0.72745 0.04028 0.54803 0.0
H592 H 0.72608 0.99364 0.49264 0.0
H593 H 0.74714 0.97552 0.47411 0.0
H594 H 0.81118 0.97404 0.47902 0.0
H595 H 0.83326 0.99011 0.5025 0.0
H596 H 0.83445 0.03493 0.56059 0.0
H597 H 0.81337 0.05367 0.57815 0.0
H598 H 0.80297 0.97474 0.57862 0.0
H599 H 0.7521 0.97885 0.57511 0.0
H600 H 0.80832 0.0517 0.4779 0.0
H601 H 0.75731 0.05275 0.47094 0.0
C602 C 0.03924 0.7928 0.53974 0.0
C603 C 0.04425 0.80775 0.54721 0.0
C604 C 0.03483 0.81841 0.53652 0.0
C605 C 0.02461 0.80943 0.5233 0.0
N606 N 0.02684 0.79363 0.52494 0.0
Co607 Co 0.01443 0.77628 0.50885 0.0
N608 N 0.00073 0.79202 0.49296 0.0
C609 C 0.002 0.80799 0.4943 0.0
C610 C 0.99083 0.81566 0.48157 0.0
C611 C 0.98175 0.80391 0.47168 0.0
C612 C 0.98789 0.7897 0.47908 0.0
N613 N 0.00187 0.75893 0.49291 0.0
C614 C 0.98878 0.75977 0.47925 0.0
C615 C 0.98326 0.74481 0.47261 0.0
C616 C 0.99316 0.73415 0.48244 0.0
C617 C 0.00407 0.74313 0.49456 0.0
N618 N 0.0282 0.76053 0.52465 0.0
C619 C 0.02746 0.74455 0.52242 0.0
C620 C 0.03872 0.73686 0.53495 0.0
C621 C 0.04724 0.7486 0.54579 0.0
C622 C 0.04061 0.76285 0.53928 0.0
N623 N 0.9993 0.77613 0.53197 0.0
C624 C 0.97662 0.77568 0.56322 0.0
C625 C 0.98316 0.76164 0.55538 0.0
C626 C 0.99446 0.76214 0.54002 0.0
C627 C 0.98188 0.78998 0.55555 0.0
C628 C 0.99309 0.78994 0.53997 0.0
N629 N 0.02962 0.77642 0.48569 0.0
C630 C 0.04652 0.76229 0.46168 0.0
C631 C 0.05286 0.77645 0.45503 0.0
C632 C 0.04696 0.79063 0.46345 0.0
C633 C 0.0354 0.79034 0.47854 0.0
C634 C 0.03504 0.76254 0.47686 0.0
H635 H 0.03154 0.80155 0.48444 0.0
H636 H 0.03092 0.75132 0.48135 0.0
H637 H 0.99901 0.75103 0.53475 0.0
H638 H 0.99639 0.80119 0.53442 0.0
C639 C 0.01309 0.81546 0.50874 0.0
C640 C 0.0468 0.77824 0.54703 0.0
C641 C 0.98079 0.77436 0.47295 0.0
C642 C 0.01608 0.73709 0.50838 0.0
H643 H 0.0538 0.81066 0.55905 0.0
H644 H 0.03546 0.8312 0.53807 0.0
H645 H 0.98923 0.8283 0.48008 0.0
H646 H 0.97157 0.8056 0.46057 0.0
H647 H 0.97294 0.74187 0.4621 0.0
H648 H 0.99229 0.72137 0.4813 0.0
H649 H 0.04059 0.72422 0.53596 0.0
H650 H 0.05731 0.74686 0.55706 0.0
H651 H 0.97958 0.75028 0.5611 0.0
H652 H 0.97704 0.80116 0.56108 0.0
H653 H 0.05042 0.75097 0.45529 0.0
H654 H 0.05153 0.80195 0.45893 0.0
C655 C 0.28413 0.99299 0.54993 0.0
C656 C 0.29856 0.98843 0.5597 0.0
C657 C 0.30985 0.99786 0.55197 0.0
C658 C 0.30173 0.00761 0.538 0.0
N659 N 0.2859 0.00502 0.53634 0.0
Co660 Co 0.26966 0.01666 0.51796 0.0
N661 N 0.28643 0.02978 0.50549 0.0
C662 C 0.3023 0.02854 0.50942 0.0
C663 C 0.31088 0.03881 0.4981 0.0
C664 C 0.29984 0.04713 0.48619 0.0
C665 C 0.2851 0.04151 0.4911 0.0
N666 N 0.25336 0.02871 0.5002 0.0
C667 C 0.25511 0.04092 0.48691 0.0
C668 C 0.24055 0.04647 0.47872 0.0
C669 C 0.22921 0.03738 0.48697 0.0
C670 C 0.23742 0.02693 0.49982 0.0
N671 N 0.25293 0.00313 0.5298 0.0
C672 C 0.23713 0.00363 0.52482 0.0
C673 C 0.22866 0.99253 0.53486 0.0
C674 C 0.23971 0.98428 0.54683 0.0
C675 C 0.25435 0.99088 0.54336 0.0
N676 N 0.26781 0.03259 0.54178 0.0
C677 C 0.26491 0.05613 0.57437 0.0
C678 C 0.25162 0.04806 0.56524 0.0
C679 C 0.25332 0.03644 0.54915 0.0
C680 C 0.27975 0.05198 0.56723 0.0
C681 C 0.28092 0.04028 0.55106 0.0
N682 N 0.27149 0.00072 0.49416 0.0
C683 C 0.25914 0.98407 0.46562 0.0
C684 C 0.27354 0.97659 0.46227 0.0
C685 C 0.28699 0.98166 0.47469 0.0
C686 C 0.28575 0.99377 0.49029 0.0
C687 C 0.25838 0.99596 0.48156 0.0
H688 H 0.29644 0.99716 0.49917 0.0
H689 H 0.24698 0.00091 0.48362 0.0
H690 H 0.2427 0.03081 0.5429 0.0
H691 H 0.29253 0.03776 0.5462 0.0
C692 C 0.30873 0.01835 0.52487 0.0
C693 C 0.26921 0.98509 0.55337 0.0
C694 C 0.27021 0.04781 0.4818 0.0
C695 C 0.23055 0.015 0.51115 0.0
H696 H 0.30073 0.97902 0.57092 0.0
H697 H 0.32253 0.99737 0.55564 0.0
H698 H 0.32362 0.04024 0.49868 0.0
H699 H 0.30236 0.05639 0.47527 0.0
H700 H 0.2383 0.05613 0.46795 0.0
H701 H 0.2165 0.03827 0.48397 0.0
H702 H 0.21596 0.99067 0.53367 0.0
H703 H 0.23728 0.97451 0.55698 0.0
H704 H 0.23989 0.05062 0.57054 0.0
H705 H 0.2904 0.05796 0.57375 0.0
H706 H 0.24837 0.98043 0.45646 0.0
H707 H 0.29844 0.97629 0.47243 0.0
C708 C 0.53875 0.78306 0.04033 0.0
C709 C 0.54459 0.79759 0.04826 0.0
C710 C 0.53703 0.80888 0.03628 0.0
C711 C 0.52702 0.80064 0.02181 0.0
N712 N 0.52759 0.78476 0.02397 0.0
Co713 Co 0.51533 0.76827 0.00598 0.0
N714 N 0.50486 0.78484 0.98758 0.0
C715 C 0.50729 0.80068 0.98916 0.0
C716 C 0.49807 0.80904 0.97461 0.0
C717 C 0.48903 0.79791 0.96324 0.0
C718 C 0.49327 0.78337 0.97161 0.0
N719 N 0.50306 0.75178 0.98798 0.0
C720 C 0.49167 0.75349 0.97192 0.0
C721 C 0.48571 0.73895 0.96418 0.0
C722 C 0.49351 0.72766 0.97588 0.0
C723 C 0.50371 0.73589 0.99007 0.0
N724 N 0.52578 0.75169 0.02442 0.0
C725 C 0.52352 0.73583 0.02261 0.0
C726 C 0.53263 0.72746 0.03723 0.0
C727 C 0.54139 0.73859 0.04897 0.0
C728 C 0.53705 0.75318 0.04081 0.0
N729 N 0.4977 0.76989 0.02558 0.0
C730 C 0.47128 0.77213 0.05102 0.0
C731 C 0.47748 0.75741 0.04509 0.0
C732 C 0.49058 0.75658 0.03251 0.0
C733 C 0.47878 0.78572 0.04442 0.0
C734 C 0.49189 0.78434 0.03189 0.0
N735 N 0.53294 0.76666 0.98629 0.0
C736 C 0.55098 0.75077 0.96602 0.0
C737 C 0.55822 0.76432 0.95883 0.0
C738 C 0.55254 0.77906 0.96556 0.0
C739 C 0.54002 0.77995 0.97918 0.0
C740 C 0.53849 0.7522 0.97959 0.0
H741 H 0.53638 0.79154 0.98383 0.0
H742 H 0.53354 0.74142 0.98444 0.0
H743 H 0.49456 0.74501 0.02832 0.0
H744 H 0.49701 0.79514 0.02732 0.0
C745 C 0.51754 0.80742 0.00537 0.0
C746 C 0.54455 0.76801 0.04844 0.0
C747 C 0.48549 0.76859 0.96442 0.0
C748 C 0.51326 0.72911 0.0064 0.0
H749 H 0.55358 0.79976 0.06116 0.0
H750 H 0.53885 0.82156 0.03764 0.0
H751 H 0.49765 0.82174 0.97289 0.0
H752 H 0.48009 0.80024 0.95053 0.0
H753 H 0.47639 0.73672 0.95176 0.0
H754 H 0.49161 0.71498 0.97464 0.0
H755 H 0.53312 0.71474 0.03883 0.0
H756 H 0.5502 0.7362 0.06181 0.0
H757 H 0.47201 0.74652 0.04964 0.0
H758 H 0.47457 0.7974 0.04891 0.0
H759 H 0.55481 0.73906 0.96102 0.0
H760 H 0.55788 0.78991 0.96062 0.0
C761 C 0.26713 0.53875 0.05069 0.0
C762 C 0.25291 0.54442 0.0579 0.0
C763 C 0.24113 0.53607 0.04669 0.0
C764 C 0.24881 0.52584 0.03338 0.0
N765 N 0.2648 0.52692 0.03566 0.0
Co766 Co 0.28059 0.5148 0.01887 0.0
N767 N 0.26325 0.50337 0.0012 0.0
C768 C 0.24745 0.50482 0.0031 0.0
C769 C 0.23849 0.49499 0.98932 0.0
C770 C 0.24919 0.4866 0.97807 0.0
C771 C 0.26413 0.49188 0.98563 0.0
N772 N 0.29639 0.50297 0.00174 0.0
C773 C 0.29408 0.49174 0.98586 0.0
C774 C 0.3083 0.48662 0.97805 0.0
C775 C 0.32006 0.49472 0.98966 0.0
C776 C 0.31237 0.50434 0.00375 0.0
N777 N 0.29793 0.526 0.03683 0.0
C778 C 0.31374 0.52385 0.03584 0.0
C779 C 0.32269 0.53348 0.04993 0.0
C780 C 0.31198 0.54245 0.0604 0.0
C781 C 0.29706 0.53773 0.05205 0.0
N782 N 0.28092 0.49753 0.03995 0.0
C783 C 0.28137 0.47273 0.06934 0.0
C784 C 0.29523 0.47756 0.06038 0.0
C785 C 0.29477 0.48994 0.04598 0.0
C786 C 0.26728 0.48053 0.06343 0.0
C787 C 0.2673 0.49269 0.04872 0.0
N788 N 0.28027 0.53205 0.99785 0.0
C789 C 0.29412 0.55104 0.97752 0.0
C790 C 0.2798 0.55733 0.96917 0.0
C791 C 0.26573 0.55056 0.97525 0.0
C792 C 0.26623 0.53803 0.98942 0.0
C793 C 0.29408 0.53855 0.99171 0.0
H794 H 0.25509 0.5335 0.99352 0.0
H795 H 0.30538 0.53442 0.99761 0.0
H796 H 0.30579 0.49313 0.03996 0.0
H797 H 0.25611 0.49791 0.04462 0.0
C798 C 0.24136 0.51539 0.01816 0.0
C799 C 0.28247 0.54543 0.05802 0.0
C800 C 0.27877 0.4851 0.97826 0.0
C801 C 0.31983 0.51392 0.02003 0.0
H802 H 0.25125 0.55381 0.06977 0.0
H803 H 0.22848 0.53752 0.0478 0.0
H804 H 0.22571 0.49389 0.98785 0.0
H805 H 0.24632 0.47744 0.96593 0.0
H806 H 0.31 0.47772 0.96552 0.0
H807 H 0.33272 0.49347 0.98835 0.0
H808 H 0.33548 0.53432 0.05177 0.0
H809 H 0.31486 0.55174 0.07235 0.0
H810 H 0.30647 0.47195 0.06467 0.0
H811 H 0.2562 0.47707 0.06983 0.0
H812 H 0.30537 0.55567 0.97309 0.0
H813 H 0.2543 0.55509 0.96949 0.0
C814 C 0.48996 0.29072 0.98106 0.0
C815 C 0.48449 0.30515 0.97356 0.0
C816 C 0.49328 0.31659 0.98465 0.0
C817 C 0.50359 0.30852 0.99818 0.0
N818 N 0.50205 0.29259 0.99624 0.0
Co819 Co 0.51439 0.27631 0.01304 0.0
N820 N 0.52621 0.29317 0.03091 0.0
C821 C 0.5245 0.30904 0.02947 0.0
C822 C 0.53425 0.31761 0.04388 0.0
C823 C 0.54275 0.30657 0.0552 0.0
C824 C 0.53766 0.29185 0.04696 0.0
N825 N 0.52684 0.26002 0.02971 0.0
C826 C 0.53838 0.26187 0.0457 0.0
C827 C 0.54415 0.24742 0.05272 0.0
C828 C 0.53603 0.23599 0.04066 0.0
C829 C 0.52582 0.24408 0.02703 0.0
N830 N 0.50242 0.25945 0.99535 0.0
C831 C 0.50416 0.24358 0.9967 0.0
C832 C 0.49386 0.23503 0.98301 0.0
C833 C 0.48484 0.24607 0.97245 0.0
C834 C 0.49023 0.26078 0.98032 0.0
N835 N 0.53104 0.27646 0.99179 0.0
C836 C 0.5558 0.27659 0.96333 0.0
C837 C 0.54913 0.2624 0.96935 0.0
C838 C 0.53688 0.2626 0.98342 0.0
C839 C 0.5496 0.29073 0.97145 0.0
C840 C 0.53734 0.29039 0.98548 0.0
N841 N 0.49782 0.27616 0.03429 0.0
C842 C 0.48075 0.26188 0.05677 0.0
C843 C 0.4741 0.276 0.06425 0.0
C844 C 0.47956 0.2902 0.05645 0.0
C845 C 0.49132 0.29001 0.04163 0.0
C846 C 0.49247 0.26223 0.04192 0.0
H847 H 0.49489 0.30123 0.03627 0.0
H848 H 0.49704 0.25107 0.03685 0.0
H849 H 0.53245 0.25137 0.98739 0.0
H850 H 0.53332 0.30158 0.99119 0.0
C851 C 0.514 0.31556 0.01395 0.0
C852 C 0.48288 0.27562 0.97382 0.0
C853 C 0.54437 0.27701 0.05459 0.0
C854 C 0.51512 0.23706 0.0116 0.0
H855 H 0.47491 0.30718 0.9616 0.0
H856 H 0.49201 0.32929 0.98345 0.0
H857 H 0.5352 0.33036 0.04576 0.0
H858 H 0.55179 0.30907 0.06792 0.0
H859 H 0.55332 0.24536 0.06522 0.0
H860 H 0.53743 0.22329 0.04165 0.0
H861 H 0.49279 0.22228 0.98128 0.0
H862 H 0.47517 0.24357 0.96062 0.0
H863 H 0.55331 0.25111 0.96321 0.0
H864 H 0.55444 0.30207 0.96745 0.0
H865 H 0.47708 0.25056 0.0625 0.0
H866 H 0.47464 0.30146 0.06147 0.0
C867 C 0.75025 0.53915 0.05283 0.0
C868 C 0.73551 0.54501 0.05781 0.0
C869 C 0.72443 0.53588 0.04645 0.0
C870 C 0.73296 0.52506 0.03513 0.0
N871 N 0.74887 0.5266 0.0387 0.0
Co872 Co 0.76568 0.51385 0.02463 0.0
N873 N 0.74932 0.50105 0.00694 0.0
C874 C 0.73337 0.50254 0.00699 0.0
C875 C 0.72519 0.49213 0.99313 0.0
C876 C 0.73656 0.48334 0.98377 0.0
C877 C 0.7511 0.48886 0.9926 0.0
N878 N 0.78248 0.50116 0.01046 0.0
C879 C 0.78112 0.48895 0.99579 0.0
C880 C 0.79586 0.48321 0.99063 0.0
C881 C 0.80692 0.49213 0.00236 0.0
C882 C 0.79837 0.50271 0.01405 0.0
N883 N 0.78202 0.5266 0.04239 0.0
C884 C 0.79795 0.52488 0.04271 0.0
C885 C 0.80612 0.53539 0.05644 0.0
C886 C 0.79475 0.54451 0.06529 0.0
C887 C 0.78024 0.53904 0.05631 0.0
N888 N 0.76532 0.49813 0.04766 0.0
C889 C 0.76452 0.47507 0.07934 0.0
C890 C 0.77893 0.48061 0.07267 0.0
C891 C 0.77906 0.49207 0.05696 0.0
C892 C 0.75056 0.48147 0.07014 0.0
C893 C 0.75122 0.49283 0.05448 0.0
N894 N 0.76602 0.52956 0.00165 0.0
C895 C 0.78039 0.54719 0.97992 0.0
C896 C 0.76622 0.55317 0.97076 0.0
C897 C 0.75199 0.54684 0.97688 0.0
C898 C 0.75217 0.53513 0.99213 0.0
C899 C 0.78003 0.53549 0.99527 0.0
H900 H 0.74092 0.53088 0.99605 0.0
H901 H 0.7912 0.53156 0.00194 0.0
H902 H 0.79041 0.49571 0.05249 0.0
H903 H 0.74014 0.49708 0.0481 0.0
C904 C 0.7264 0.51378 0.02032 0.0
C905 C 0.76518 0.54632 0.06119 0.0
C906 C 0.7662 0.48201 0.98696 0.0
C907 C 0.80491 0.51377 0.02919 0.0
H908 H 0.73297 0.55506 0.06822 0.0
H909 H 0.71168 0.53721 0.04609 0.0
H910 H 0.71247 0.49102 0.99025 0.0
H911 H 0.7344 0.47387 0.97185 0.0
H912 H 0.7984 0.47342 0.97978 0.0
H913 H 0.81968 0.49085 0.00266 0.0
H914 H 0.81883 0.53648 0.05937 0.0
H915 H 0.79689 0.55422 0.07684 0.0
H916 H 0.79009 0.47594 0.07921 0.0
H917 H 0.73908 0.47781 0.07507 0.0
H918 H 0.79172 0.55178 0.97566 0.0
H919 H 0.7407 0.55089 0.96988 0.0
H920 H 0.17056 0.25364 0.33053 0.0
H921 H 0.14666 0.25794 0.35017 0.0
H922 H 0.16962 0.23698 0.40614 0.0
H923 H 0.19317 0.23186 0.38636 0.0
H924 H 0.14035 0.2254 0.39781 0.0
H925 H 0.13845 0.29099 0.39643 0.0
H926 H 0.13872 0.28164 0.37018 0.0
H927 H 0.15555 0.27974 0.38905 0.0
C928 C 0.17052 0.24989 0.347 0.0
C929 C 0.18387 0.24247 0.35686 0.0
C930 C 0.1569 0.25256 0.3583 0.0
C931 C 0.15644 0.24804 0.37976 0.0
C932 C 0.16975 0.24068 0.38965 0.0
H933 H 0.08811 0.27491 0.4725 0.0
H934 H 0.11134 0.27203 0.4511 0.0
C935 C 0.18329 0.23791 0.37835 0.0
C936 C 0.14191 0.25029 0.39173 0.0
H937 H 0.11602 0.27818 0.40929 0.0
C938 C 0.13505 0.23695 0.40035 0.0
C939 C 0.13511 0.26539 0.39525 0.0
C940 C 0.14241 0.28028 0.38743 0.0
C941 C 0.12156 0.23826 0.41234 0.0
C942 C 0.11447 0.25329 0.41531 0.0
C943 C 0.12137 0.26665 0.4068 0.0
C944 C 0.10015 0.25542 0.42773 0.0
C945 C 0.11531 0.22358 0.42217 0.0
C946 C 0.08605 0.24729 0.42147 0.0
C947 C 0.07281 0.24884 0.43374 0.0
C948 C 0.07333 0.25876 0.45232 0.0
C949 C 0.08731 0.26726 0.45819 0.0
C950 C 0.1006 0.2656 0.44601 0.0
H951 H 0.12446 0.21416 0.42348 0.0
H952 H 0.11115 0.22628 0.43845 0.0
H953 H 0.10515 0.21883 0.41181 0.0
H954 H 0.0853 0.2397 0.40711 0.0
H955 H 0.06211 0.24236 0.42861 0.0
H956 H 0.75341 0.18254 0.37397 0.0
H957 H 0.7538 0.15605 0.38889 0.0
H958 H 0.80377 0.15225 0.37931 0.0
H959 H 0.80354 0.17872 0.36454 0.0
H960 H 0.78568 0.12367 0.36903 0.0
H961 H 0.77542 0.15023 0.44982 0.0
H962 H 0.76105 0.15534 0.42871 0.0
H963 H 0.78121 0.16188 0.4278 0.0
C964 C 0.76445 0.17601 0.37491 0.0
C965 C 0.77848 0.18278 0.36828 0.0
C966 C 0.76464 0.16089 0.38337 0.0
C967 C 0.77886 0.15234 0.38546 0.0
C968 C 0.79268 0.15869 0.37781 0.0
H969 H 0.80254 0.07976 0.47601 0.0
H970 H 0.80232 0.1027 0.4531 0.0
C971 C 0.79251 0.1738 0.36932 0.0
C972 C 0.77962 0.13735 0.39708 0.0
H973 H 0.77623 0.12235 0.44681 0.0
C974 C 0.78358 0.12332 0.38602 0.0
C975 C 0.77713 0.13706 0.41931 0.0
C976 C 0.7736 0.15193 0.43222 0.0
C977 C 0.78496 0.10891 0.39663 0.0
C978 C 0.78216 0.10859 0.41876 0.0
C979 C 0.7783 0.12265 0.4298 0.0
C980 C 0.78333 0.09389 0.43104 0.0
C981 C 0.78972 0.09422 0.38424 0.0
C982 C 0.77282 0.08127 0.42608 0.0
C983 C 0.77299 0.06807 0.43907 0.0
C984 C 0.78361 0.06732 0.45732 0.0
C985 C 0.79437 0.07985 0.46191 0.0
C986 C 0.79419 0.09301 0.44892 0.0
H987 H 0.79507 0.09714 0.369 0.0
H988 H 0.79831 0.08708 0.39406 0.0
H989 H 0.77905 0.08682 0.38013 0.0
H990 H 0.76418 0.08184 0.41254 0.0
H991 H 0.76465 0.05856 0.435 0.0
H992 H 0.85234 0.76372 0.34818 0.0
H993 H 0.87884 0.76147 0.3661 0.0
H994 H 0.86169 0.7824 0.42423 0.0
H995 H 0.83531 0.785 0.40643 0.0
H996 H 0.89731 0.78739 0.38481 0.0
H997 H 0.88548 0.74227 0.44478 0.0
H998 H 0.87245 0.74531 0.42117 0.0
H999 H 0.8719 0.75864 0.44416 0.0
C1000 C 0.85419 0.76782 0.36479 0.0
C1001 C 0.84166 0.7745 0.37587 0.0
C1002 C 0.86931 0.76645 0.37502 0.0
C1003 C 0.87215 0.77159 0.39654 0.0
C1004 C 0.85966 0.77806 0.40774 0.0
H1005 H 0.95246 0.78232 0.4884 0.0
H1006 H 0.92624 0.78151 0.46901 0.0
C1007 C 0.84457 0.77949 0.39753 0.0
C1008 C 0.88835 0.77106 0.40699 0.0
H1009 H 0.91014 0.75587 0.44949 0.0
C1010 C 0.90019 0.78039 0.39883 0.0
C1011 C 0.89199 0.76199 0.42533 0.0
C1012 C 0.87984 0.75137 0.43432 0.0
C1013 C 0.9155 0.78125 0.40891 0.0
C1014 C 0.91913 0.77226 0.42737 0.0
C1015 C 0.90732 0.76277 0.43535 0.0
C1016 C 0.935 0.77277 0.43892 0.0
C1017 C 0.92748 0.7922 0.40016 0.0
C1018 C 0.94856 0.76802 0.42847 0.0
C1019 C 0.96348 0.76858 0.43949 0.0
C1020 C 0.965 0.7737 0.46116 0.0
C1021 C 0.95146 0.77833 0.47167 0.0
C1022 C 0.93656 0.77783 0.46064 0.0
H1023 H 0.92171 0.80119 0.38964 0.0
H1024 H 0.93462 0.79842 0.4134 0.0
H1025 H 0.93567 0.78516 0.39039 0.0
H1026 H 0.94759 0.76379 0.41185 0.0
H1027 H 0.97384 0.76498 0.43116 0.0
H1028 H 0.25113 0.86195 0.32083 0.0
H1029 H 0.25681 0.88765 0.33885 0.0
H1030 H 0.27541 0.8642 0.39546 0.0
H1031 H 0.26931 0.83847 0.37796 0.0
H1032 H 0.24341 0.89633 0.3808 0.0
H1033 H 0.30922 0.89916 0.38264 0.0
H1034 H 0.29758 0.88705 0.36312 0.0
H1035 H 0.30073 0.88079 0.39032 0.0
C1036 C 0.25645 0.86223 0.3371 0.0
C1037 C 0.25968 0.84811 0.34797 0.0
C1038 C 0.2598 0.87692 0.34728 0.0
C1039 C 0.26665 0.87776 0.36835 0.0
C1040 C 0.27036 0.86375 0.37903 0.0
H1041 H 0.28784 0.94803 0.46848 0.0
H1042 H 0.28667 0.92475 0.44404 0.0
C1043 C 0.2669 0.84905 0.36895 0.0
C1044 C 0.26862 0.89321 0.37994 0.0
H1045 H 0.29634 0.91855 0.40371 0.0
C1046 C 0.25496 0.90132 0.38563 0.0
C1047 C 0.28372 0.8995 0.38633 0.0
C1048 C 0.2987 0.89128 0.38021 0.0
C1049 C 0.25597 0.91538 0.39821 0.0
C1050 C 0.27109 0.92173 0.40468 0.0
C1051 C 0.28477 0.91371 0.39866 0.0
C1052 C 0.27291 0.93626 0.41855 0.0
C1053 C 0.24083 0.92291 0.40518 0.0
C1054 C 0.26596 0.95058 0.41207 0.0
C1055 C 0.26649 0.96383 0.42607 0.0
C1056 C 0.27423 0.96307 0.44664 0.0
C1057 C 0.28187 0.94897 0.45267 0.0
C1058 C 0.28118 0.93567 0.43875 0.0
H1059 H 0.23075 0.91443 0.40375 0.0
H1060 H 0.24224 0.92746 0.42211 0.0
H1061 H 0.23772 0.93299 0.39475 0.0
H1062 H 0.25989 0.95142 0.39632 0.0
H1063 H 0.26071 0.97464 0.42092 0.0
H1064 H 0.1609 0.78593 0.69604 0.0
H1065 H 0.13664 0.7807 0.67335 0.0
H1066 H 0.15953 0.79714 0.61821 0.0
H1067 H 0.18371 0.80261 0.64073 0.0
H1068 H 0.1189 0.80304 0.64908 0.0
H1069 H 0.14053 0.75429 0.59681 0.0
H1070 H 0.15077 0.76038 0.62203 0.0
H1071 H 0.15287 0.77164 0.59834 0.0
C1072 C 0.16078 0.78842 0.67908 0.0
C1073 C 0.17429 0.79463 0.67019 0.0
C1074 C 0.14694 0.78536 0.66614 0.0
C1075 C 0.14638 0.78832 0.64406 0.0
C1076 C 0.15984 0.79443 0.63511 0.0
H1077 H 0.07627 0.78723 0.53731 0.0
H1078 H 0.10023 0.78937 0.56167 0.0
C1079 C 0.17366 0.79752 0.64802 0.0
C1080 C 0.1315 0.7858 0.63054 0.0
H1081 H 0.11576 0.76583 0.58573 0.0
C1082 C 0.11814 0.79479 0.63535 0.0
C1083 C 0.1306 0.77508 0.61261 0.0
C1084 C 0.1444 0.76468 0.6072 0.0
C1085 C 0.104 0.7937 0.6223 0.0
C1086 C 0.10316 0.78311 0.60422 0.0
C1087 C 0.11646 0.77396 0.59959 0.0
C1088 C 0.08869 0.78162 0.5896 0.0
C1089 C 0.09029 0.80428 0.62756 0.0
C1090 C 0.07435 0.77637 0.5972 0.0
C1091 C 0.06072 0.77521 0.58334 0.0
C1092 C 0.0613 0.77915 0.56169 0.0
C1093 C 0.07565 0.78417 0.554 0.0
C1094 C 0.08927 0.78536 0.56785 0.0
H1095 H 0.0941 0.81432 0.63863 0.0
H1096 H 0.08445 0.80913 0.61271 0.0
H1097 H 0.08137 0.79728 0.63555 0.0
H1098 H 0.07373 0.77315 0.61382 0.0
H1099 H 0.04971 0.77128 0.58948 0.0
H1100 H 0.23526 0.15133 0.7341 0.0
H1101 H 0.24454 0.12932 0.71169 0.0
H1102 H 0.24923 0.16096 0.6594 0.0
H1103 H 0.24001 0.18299 0.6817 0.0
H1104 H 0.22955 0.11831 0.67445 0.0
H1105 H 0.29067 0.13659 0.65925 0.0
H1106 H 0.27965 0.14566 0.68031 0.0
H1107 H 0.27628 0.15164 0.65293 0.0
C1108 C 0.23841 0.15361 0.71789 0.0
C1109 C 0.23689 0.16888 0.70965 0.0
C1110 C 0.24378 0.14105 0.70515 0.0
C1111 C 0.24777 0.14354 0.68398 0.0
C1112 C 0.2466 0.15884 0.67587 0.0
H1113 H 0.24231 0.0792 0.575 0.0
H1114 H 0.23891 0.09972 0.6028 0.0
C1115 C 0.2413 0.17142 0.68862 0.0
C1116 C 0.25171 0.12992 0.66973 0.0
H1117 H 0.27905 0.11619 0.63559 0.0
C1118 C 0.24047 0.11775 0.66616 0.0
C1119 C 0.26602 0.12912 0.65911 0.0
C1120 C 0.27892 0.14137 0.66324 0.0
C1121 C 0.24288 0.10511 0.65163 0.0
C1122 C 0.25677 0.10479 0.64009 0.0
C1123 C 0.26832 0.1166 0.64427 0.0
C1124 C 0.2592 0.09256 0.62309 0.0
C1125 C 0.23049 0.09224 0.64869 0.0
C1126 C 0.27201 0.08203 0.62502 0.0
C1127 C 0.27399 0.07025 0.60913 0.0
C1128 C 0.2632 0.06887 0.59103 0.0
C1129 C 0.25061 0.07971 0.58897 0.0
C1130 C 0.24866 0.09146 0.60482 0.0
H1131 H 0.223 0.09184 0.66272 0.0
H1132 H 0.22261 0.09459 0.63422 0.0
H1133 H 0.23605 0.08045 0.64633 0.0
H1134 H 0.28031 0.08276 0.63899 0.0
H1135 H 0.28375 0.06202 0.61124 0.0
H1136 H 0.85678 0.24229 0.67426 0.0
H1137 H 0.88098 0.24601 0.65556 0.0
H1138 H 0.86276 0.29006 0.63108 0.0
H1139 H 0.83839 0.28636 0.64972 0.0
H1140 H 0.87417 0.27129 0.59969 0.0
H1141 H 0.91841 0.27519 0.66897 0.0
H1142 H 0.90638 0.25772 0.66922 0.0
H1143 H 0.89737 0.27692 0.67206 0.0
C1144 C 0.85804 0.25295 0.66528 0.0
C1145 C 0.84569 0.26408 0.66358 0.0
C1146 C 0.87191 0.25506 0.65461 0.0
C1147 C 0.87381 0.26844 0.64221 0.0
C1148 C 0.86157 0.27968 0.64065 0.0
H1149 H 0.96369 0.28913 0.58605 0.0
H1150 H 0.94 0.29079 0.60668 0.0
C1151 C 0.84765 0.27753 0.65125 0.0
C1152 C 0.88811 0.27012 0.62976 0.0
H1153 H 0.92858 0.26985 0.63436 0.0
C1154 C 0.88607 0.27115 0.6073 0.0
C1155 C 0.90363 0.27016 0.6397 0.0
C1156 C 0.9066 0.27011 0.66383 0.0
C1157 C 0.89912 0.27166 0.59445 0.0
C1158 C 0.91463 0.27075 0.60429 0.0
C1159 C 0.91668 0.27032 0.62681 0.0
C1160 C 0.92886 0.26991 0.59148 0.0
C1161 C 0.89615 0.27322 0.57047 0.0
C1162 C 0.93055 0.25753 0.57625 0.0
C1163 C 0.94398 0.25664 0.56427 0.0
C1164 C 0.95613 0.26802 0.56745 0.0
C1165 C 0.95448 0.28031 0.58293 0.0
C1166 C 0.94099 0.28122 0.59486 0.0
H1167 H 0.88438 0.27859 0.5664 0.0
H1168 H 0.90543 0.28056 0.56373 0.0
H1169 H 0.8963 0.26128 0.56254 0.0
H1170 H 0.9215 0.24848 0.57369 0.0
H1171 H 0.94476 0.24711 0.55236 0.0
H1172 H 0.79827 0.8509 0.68304 0.0
H1173 H 0.79562 0.87787 0.67055 0.0
H1174 H 0.74525 0.87101 0.65852 0.0
H1175 H 0.74778 0.84392 0.67121 0.0
H1176 H 0.75982 0.88122 0.62344 0.0
H1177 H 0.77792 0.91907 0.69486 0.0
H1178 H 0.79192 0.90358 0.69003 0.0
H1179 H 0.77218 0.8986 0.69683 0.0
C1180 C 0.78654 0.85525 0.67837 0.0
C1181 C 0.77323 0.84525 0.67812 0.0
C1182 C 0.78505 0.87071 0.67125 0.0
C1183 C 0.77021 0.87651 0.66388 0.0
C1184 C 0.7568 0.86676 0.66427 0.0
H1185 H 0.75841 0.97185 0.61269 0.0
H1186 H 0.75537 0.94842 0.63439 0.0
C1187 C 0.75828 0.85128 0.6714 0.0
C1188 C 0.76911 0.89199 0.65341 0.0
H1189 H 0.77937 0.93099 0.66033 0.0
C1190 C 0.76385 0.89215 0.63161 0.0
C1191 C 0.77426 0.90625 0.66414 0.0
C1192 C 0.77924 0.90693 0.68782 0.0
C1193 C 0.76432 0.90604 0.61996 0.0
C1194 C 0.7704 0.92006 0.63034 0.0
C1195 C 0.77492 0.92013 0.65239 0.0
C1196 C 0.77279 0.93451 0.61818 0.0
C1197 C 0.75855 0.90555 0.59653 0.0
C1198 C 0.78383 0.93447 0.60229 0.0
C1199 C 0.78558 0.94775 0.5899 0.0
C1200 C 0.77632 0.96134 0.59322 0.0
C1201 C 0.76557 0.96149 0.6096 0.0
C1202 C 0.76387 0.94818 0.62206 0.0
H1203 H 0.75062 0.89526 0.5925 0.0
H1204 H 0.75209 0.91658 0.59227 0.0
H1205 H 0.76889 0.9045 0.58643 0.0
H1206 H 0.79094 0.92406 0.59926 0.0
H1207 H 0.79384 0.9472 0.57728 0.0
H1208 H 0.86171 0.76351 0.69371 0.0
H1209 H 0.8886 0.76513 0.68125 0.0
H1210 H 0.87004 0.78639 0.62287 0.0
H1211 H 0.84347 0.78567 0.63561 0.0
H1212 H 0.9009 0.75149 0.64695 0.0
H1213 H 0.9056 0.81621 0.6403 0.0
H1214 H 0.89005 0.80712 0.65426 0.0
H1215 H 0.8881 0.80901 0.62546 0.0
C1216 C 0.8634 0.76877 0.67839 0.0
C1217 C 0.85038 0.77441 0.66565 0.0
C1218 C 0.87877 0.76962 0.67125 0.0
C1219 C 0.88139 0.77618 0.65132 0.0
C1220 C 0.8684 0.78167 0.63855 0.0
H1221 H 0.9504 0.75688 0.56094 0.0
H1222 H 0.92894 0.75685 0.5854 0.0
C1223 C 0.85313 0.78096 0.64572 0.0
C1224 C 0.89748 0.77655 0.64308 0.0
H1225 H 0.92271 0.80049 0.61822 0.0
C1226 C 0.90582 0.76226 0.64102 0.0
C1227 C 0.90413 0.79064 0.63582 0.0
C1228 C 0.89657 0.80662 0.63931 0.0
C1229 C 0.92008 0.76152 0.63062 0.0
C1230 C 0.9259 0.77534 0.62149 0.0
C1231 C 0.91812 0.78981 0.62482 0.0
C1232 C 0.9394 0.77491 0.60731 0.0
C1233 C 0.92867 0.74589 0.62943 0.0
C1234 C 0.95221 0.78545 0.61102 0.0
C1235 C 0.96438 0.78568 0.59679 0.0
C1236 C 0.96398 0.77532 0.57866 0.0
C1237 C 0.95118 0.76477 0.57502 0.0
C1238 C 0.93894 0.76468 0.58907 0.0
H1239 H 0.92626 0.73852 0.64334 0.0
H1240 H 0.92439 0.73921 0.61457 0.0
H1241 H 0.94168 0.74758 0.6291 0.0
H1242 H 0.95274 0.79355 0.62488 0.0
H1243 H 0.97413 0.79389 0.6 0.0
H1244 H 0.25385 0.85073 0.64398 0.0
H1245 H 0.25972 0.87254 0.62071 0.0
H1246 H 0.26424 0.90449 0.6761 0.0
H1247 H 0.25875 0.88269 0.69952 0.0
H1248 H 0.24122 0.89996 0.61681 0.0
H1249 H 0.30339 0.91505 0.64346 0.0
H1250 H 0.29434 0.89644 0.64932 0.0
H1251 H 0.29026 0.91404 0.66497 0.0
C1252 C 0.25649 0.86231 0.65128 0.0
C1253 C 0.25585 0.86497 0.67362 0.0
C1254 C 0.25973 0.87478 0.63794 0.0
C1255 C 0.26256 0.8901 0.64668 0.0
C1256 C 0.26235 0.89271 0.66903 0.0
H1257 H 0.27171 0.98414 0.59709 0.0
H1258 H 0.27043 0.96068 0.61934 0.0
C1259 C 0.25906 0.88027 0.68237 0.0
C1260 C 0.26446 0.90358 0.63234 0.0
H1261 H 0.28948 0.9336 0.62127 0.0
C1262 C 0.25183 0.90723 0.61762 0.0
C1263 C 0.27827 0.91311 0.63356 0.0
C1264 C 0.29241 0.90942 0.64854 0.0
C1265 C 0.25247 0.92038 0.60445 0.0
C1266 C 0.26625 0.92996 0.60572 0.0
C1267 C 0.27893 0.92624 0.62033 0.0
C1268 C 0.26759 0.94402 0.59224 0.0
C1269 C 0.23816 0.92418 0.5898 0.0
C1270 C 0.26669 0.9424 0.56968 0.0
C1271 C 0.26737 0.95576 0.55705 0.0
C1272 C 0.26911 0.97089 0.56682 0.0
C1273 C 0.27037 0.97253 0.58933 0.0
C1274 C 0.26965 0.95917 0.60197 0.0
H1275 H 0.22729 0.91827 0.59476 0.0
H1276 H 0.23603 0.93715 0.58958 0.0
H1277 H 0.24025 0.91997 0.57317 0.0
H1278 H 0.26541 0.93082 0.56184 0.0
H1279 H 0.26645 0.95432 0.53967 0.0
H1280 H 0.16884 0.23322 0.66956 0.0
H1281 H 0.14722 0.23969 0.64356 0.0
H1282 H 0.12081 0.26003 0.69466 0.0
H1283 H 0.14271 0.25414 0.72078 0.0
H1284 H 0.11664 0.22833 0.64343 0.0
H1285 H 0.11719 0.29409 0.64941 0.0
H1286 H 0.13353 0.28223 0.65982 0.0
H1287 H 0.11602 0.28449 0.6746 0.0
C1288 C 0.15861 0.2394 0.67526 0.0
C1289 C 0.15756 0.24324 0.69727 0.0
C1290 C 0.1462 0.24298 0.66037 0.0
C1291 C 0.13249 0.2505 0.66713 0.0
C1292 C 0.13141 0.25448 0.68904 0.0
H1293 H 0.04223 0.27094 0.5978 0.0
H1294 H 0.06401 0.26837 0.62562 0.0
C1295 C 0.14386 0.25093 0.70397 0.0
C1296 C 0.11901 0.25325 0.65134 0.0
H1297 H 0.09593 0.28206 0.6282 0.0
C1298 C 0.11214 0.24009 0.64006 0.0
C1299 C 0.11312 0.26859 0.64708 0.0
C1300 C 0.12041 0.2832 0.65821 0.0
C1301 C 0.09951 0.24183 0.62465 0.0
C1302 C 0.09375 0.25716 0.6202 0.0
C1303 C 0.10043 0.27033 0.63167 0.0
C1304 C 0.08094 0.25968 0.60339 0.0
C1305 C 0.0923 0.22722 0.61339 0.0
C1306 C 0.08342 0.25596 0.58173 0.0
C1307 C 0.07109 0.25746 0.56597 0.0
C1308 C 0.05614 0.26276 0.57164 0.0
C1309 C 0.05374 0.26687 0.59319 0.0
C1310 C 0.06611 0.26541 0.60898 0.0
H1311 H 0.09547 0.21631 0.62218 0.0
H1312 H 0.07918 0.22818 0.61163 0.0
H1313 H 0.09678 0.22597 0.59705 0.0
H1314 H 0.09486 0.25171 0.57709 0.0
H1315 H 0.07311 0.25425 0.54938 0.0
H1316 H 0.78519 0.16927 0.69506 0.0
H1317 H 0.78591 0.14298 0.67731 0.0
H1318 H 0.77642 0.164 0.61564 0.0
H1319 H 0.77617 0.19026 0.63308 0.0
H1320 H 0.76245 0.12694 0.6504 0.0
H1321 H 0.81668 0.13794 0.60728 0.0
H1322 H 0.81083 0.15053 0.62937 0.0
H1323 H 0.80152 0.15258 0.60286 0.0
C1324 C 0.78335 0.16829 0.67771 0.0
C1325 C 0.78067 0.18189 0.6655 0.0
C1326 C 0.78368 0.15327 0.66762 0.0
C1327 C 0.78148 0.15159 0.64514 0.0
C1328 C 0.77843 0.16507 0.63298 0.0
H1329 H 0.77667 0.07661 0.54805 0.0
H1330 H 0.77685 0.10168 0.56914 0.0
C1331 C 0.77809 0.18006 0.64302 0.0
C1332 C 0.7823 0.13576 0.63429 0.0
H1333 H 0.80187 0.11478 0.59641 0.0
C1334 C 0.77115 0.1242 0.63874 0.0
C1335 C 0.7937 0.13224 0.61914 0.0
C1336 C 0.80647 0.14391 0.61449 0.0
C1337 C 0.77073 0.10937 0.62785 0.0
C1338 C 0.78193 0.10599 0.61237 0.0
C1339 C 0.79326 0.11745 0.60822 0.0
C1340 C 0.78184 0.09078 0.59982 0.0
C1341 C 0.75801 0.09765 0.63247 0.0
C1342 C 0.78476 0.0764 0.61008 0.0
C1343 C 0.78466 0.06214 0.59806 0.0
C1344 C 0.78174 0.06211 0.57564 0.0
C1345 C 0.77896 0.07646 0.56535 0.0
C1346 C 0.77907 0.09071 0.57736 0.0
H1347 H 0.74829 0.10333 0.64112 0.0
H1348 H 0.75289 0.09191 0.61732 0.0
H1349 H 0.76329 0.08825 0.6427 0.0
H1350 H 0.78719 0.07624 0.62735 0.0
H1351 H 0.78683 0.05113 0.6062 0.0
H1352 H 0.84919 0.28221 0.38745 0.0
H1353 H 0.87732 0.28362 0.3988 0.0
H1354 H 0.88678 0.2446 0.35515 0.0
H1355 H 0.85849 0.24276 0.34423 0.0
H1356 H 0.89854 0.23952 0.39553 0.0
H1357 H 0.91674 0.29913 0.37245 0.0
H1358 H 0.89929 0.29996 0.38742 0.0
H1359 H 0.89865 0.28979 0.36153 0.0
C1360 C 0.85729 0.27404 0.38007 0.0
C1361 C 0.8516 0.2623 0.36506 0.0
C1362 C 0.8734 0.275 0.38636 0.0
C1363 C 0.88419 0.26435 0.37762 0.0
C1364 C 0.87867 0.25302 0.36196 0.0
H1365 H 0.98482 0.26923 0.42397 0.0
H1366 H 0.96067 0.26869 0.39967 0.0
C1367 C 0.86252 0.25204 0.35565 0.0
C1368 C 0.90078 0.26387 0.3868 0.0
H1369 H 0.93287 0.28727 0.40118 0.0
C1370 C 0.90615 0.24988 0.39641 0.0
C1371 C 0.91081 0.27732 0.38774 0.0
C1372 C 0.90614 0.29234 0.37652 0.0
C1373 C 0.92089 0.24926 0.40798 0.0
C1374 C 0.93036 0.26306 0.41031 0.0
C1375 C 0.92545 0.27678 0.39965 0.0
C1376 C 0.94493 0.2637 0.42476 0.0
C1377 C 0.92607 0.23388 0.41791 0.0
C1378 C 0.94398 0.26138 0.44687 0.0
C1379 C 0.95765 0.26173 0.46062 0.0
C1380 C 0.97245 0.26453 0.45248 0.0
C1381 C 0.97344 0.26711 0.43046 0.0
C1382 C 0.95973 0.26678 0.41667 0.0
H1383 H 0.92005 0.22356 0.40946 0.0
H1384 H 0.9391 0.23226 0.41756 0.0
H1385 H 0.92291 0.234 0.43495 0.0
H1386 H 0.93263 0.2593 0.45349 0.0
H1387 H 0.95672 0.25974 0.4776 0.0
H1388 H 0.80138 0.85626 0.37523 0.0
H1389 H 0.80123 0.88147 0.39551 0.0
H1390 H 0.75043 0.88414 0.38429 0.0
H1391 H 0.75048 0.85875 0.36414 0.0
H1392 H 0.79166 0.91114 0.38521 0.0
H1393 H 0.75583 0.88829 0.44932 0.0
H1394 H 0.76426 0.87546 0.42936 0.0
H1395 H 0.74636 0.88627 0.42278 0.0
C1396 C 0.79019 0.86231 0.37682 0.0
C1397 C 0.77592 0.85548 0.36815 0.0
C1398 C 0.79012 0.87669 0.3885 0.0
C1399 C 0.77579 0.88455 0.39176 0.0
C1400 C 0.76158 0.87808 0.38244 0.0
H1401 H 0.77055 0.98155 0.44472 0.0
H1402 H 0.7694 0.95787 0.42075 0.0
C1403 C 0.76163 0.86362 0.37087 0.0
C1404 C 0.77582 0.89933 0.40529 0.0
H1405 H 0.7617 0.9157 0.45113 0.0
C1406 C 0.78509 0.91216 0.39961 0.0
C1407 C 0.76745 0.90054 0.42427 0.0
C1408 C 0.75803 0.88687 0.43196 0.0
C1409 C 0.7862 0.92617 0.41236 0.0
C1410 C 0.77751 0.92752 0.43103 0.0
C1411 C 0.76825 0.91469 0.43672 0.0
C1412 C 0.7782 0.94193 0.44532 0.0
C1413 C 0.79704 0.9392 0.40603 0.0
C1414 C 0.78312 0.94078 0.46718 0.0
C1415 C 0.78354 0.95421 0.48087 0.0
C1416 C 0.77905 0.96901 0.47291 0.0
C1417 C 0.77411 0.97021 0.45109 0.0
C1418 C 0.77357 0.95674 0.43742 0.0
H1419 H 0.80598 0.93469 0.39501 0.0
H1420 H 0.78989 0.94836 0.39752 0.0
H1421 H 0.80334 0.94491 0.42041 0.0
H1422 H 0.78668 0.92947 0.47364 0.0
H1423 H 0.78734 0.95308 0.49768 0.0
H1424 H 0.1674 0.79952 0.33044 0.0
H1425 H 0.14229 0.79893 0.34809 0.0
H1426 H 0.15559 0.75452 0.37625 0.0
H1427 H 0.18058 0.75485 0.35844 0.0
H1428 H 0.11709 0.77425 0.34813 0.0
H1429 H 0.14873 0.78656 0.42782 0.0
H1430 H 0.15761 0.79001 0.40273 0.0
H1431 H 0.15634 0.77025 0.41235 0.0
C1432 C 0.16484 0.78945 0.34001 0.0
C1433 C 0.17606 0.7773 0.34322 0.0
C1434 C 0.15053 0.78918 0.35015 0.0
C1435 C 0.14725 0.77681 0.36369 0.0
C1436 C 0.15805 0.76429 0.3661 0.0
H1437 H 0.07813 0.75627 0.45444 0.0
H1438 H 0.10004 0.75642 0.43075 0.0
C1439 C 0.17233 0.76453 0.35597 0.0
C1440 C 0.13298 0.77735 0.37629 0.0
H1441 H 0.12144 0.78049 0.42777 0.0
C1442 C 0.11797 0.77569 0.36553 0.0
C1443 C 0.13425 0.77931 0.39895 0.0
C1444 C 0.15007 0.78177 0.41121 0.0
C1445 C 0.10415 0.77541 0.37699 0.0
C1446 C 0.10545 0.77714 0.39971 0.0
C1447 C 0.12048 0.77908 0.41037 0.0
C1448 C 0.09148 0.77661 0.41294 0.0
C1449 C 0.08836 0.77278 0.36475 0.0
C1450 C 0.07937 0.78793 0.41079 0.0
C1451 C 0.06668 0.78778 0.4242 0.0
C1452 C 0.06596 0.77636 0.44011 0.0
C1453 C 0.07813 0.76504 0.44213 0.0
C1454 C 0.09074 0.76518 0.4287 0.0
H1455 H 0.08976 0.76778 0.34826 0.0
H1456 H 0.08079 0.76466 0.37336 0.0
H1457 H 0.0821 0.78428 0.36326 0.0
H1458 H 0.07986 0.79706 0.39902 0.0
H1459 H 0.05747 0.7966 0.42212 0.0
H1460 H 0.28203 0.17207 0.36483 0.0
H1461 H 0.28641 0.1495 0.38823 0.0
H1462 H 0.23713 0.1365 0.37785 0.0
H1463 H 0.23251 0.1593 0.35525 0.0
H1464 H 0.24729 0.13658 0.42033 0.0
H1465 H 0.289 0.10258 0.37115 0.0
H1466 H 0.29496 0.12263 0.37776 0.0
H1467 H 0.27736 0.11886 0.36069 0.0
C1468 C 0.27212 0.16442 0.36756 0.0
C1469 C 0.25694 0.16747 0.35799 0.0
C1470 C 0.27469 0.15142 0.38075 0.0
C1471 C 0.26215 0.14117 0.38453 0.0
C1472 C 0.24701 0.14418 0.37503 0.0
H1473 H 0.26286 0.04798 0.43862 0.0
H1474 H 0.2616 0.07096 0.41533 0.0
C1475 C 0.24443 0.15716 0.36192 0.0
C1476 C 0.26452 0.12761 0.39901 0.0
H1477 H 0.28457 0.09278 0.40553 0.0
C1478 C 0.25546 0.12702 0.41712 0.0
C1479 C 0.27506 0.11505 0.39465 0.0
C1480 C 0.28456 0.11467 0.37491 0.0
C1481 C 0.25662 0.11422 0.43098 0.0
C1482 C 0.26739 0.10182 0.42688 0.0
C1483 C 0.27644 0.10238 0.40875 0.0
C1484 C 0.26896 0.08789 0.4408 0.0
C1485 C 0.24597 0.1139 0.44955 0.0
C1486 C 0.27382 0.08974 0.46272 0.0
C1487 C 0.27444 0.07667 0.47598 0.0
C1488 C 0.27036 0.06155 0.46747 0.0
C1489 C 0.26599 0.05959 0.44545 0.0
C1490 C 0.26531 0.07267 0.4322 0.0
H1491 H 0.23578 0.12212 0.44731 0.0
H1492 H 0.24133 0.10178 0.4516 0.0
H1493 H 0.25287 0.11761 0.4646 0.0
H1494 H 0.27698 0.10132 0.4696 0.0
H1495 H 0.27792 0.07837 0.49294 0.0
H1496 H 0.68715 0.74637 0.86164 0.0
H1497 H 0.66547 0.75306 0.88455 0.0
H1498 H 0.63182 0.74701 0.83 0.0
H1499 H 0.65344 0.74039 0.80692 0.0
H1500 H 0.64137 0.77654 0.88229 0.0
H1501 H 0.61699 0.71543 0.87381 0.0
H1502 H 0.6365 0.72041 0.86585 0.0
H1503 H 0.61927 0.72505 0.84886 0.0
C1504 C 0.67517 0.74675 0.85442 0.0
C1505 C 0.672 0.74272 0.83249 0.0
C1506 C 0.6628 0.75051 0.86755 0.0
C1507 C 0.64705 0.75025 0.85903 0.0
C1508 C 0.64388 0.74696 0.83697 0.0
H1509 H 0.56348 0.78195 0.92375 0.0
H1510 H 0.58523 0.7793 0.8997 0.0
C1511 C 0.65624 0.74317 0.82382 0.0
C1512 C 0.63391 0.75275 0.87343 0.0
H1513 H 0.60225 0.7342 0.89314 0.0
C1514 C 0.63278 0.76732 0.88466 0.0
C1515 C 0.62289 0.74058 0.87669 0.0
C1516 C 0.62399 0.72443 0.86584 0.0
C1517 C 0.6208 0.77011 0.89898 0.0
C1518 C 0.60959 0.75805 0.90189 0.0
C1519 C 0.6108 0.74345 0.89075 0.0
C1520 C 0.59672 0.76013 0.91682 0.0
C1521 C 0.62045 0.78578 0.91123 0.0
C1522 C 0.59585 0.75007 0.93421 0.0
C1523 C 0.58344 0.75152 0.94794 0.0
C1524 C 0.5716 0.76303 0.94448 0.0
C1525 C 0.57254 0.77313 0.92705 0.0
C1526 C 0.58496 0.77165 0.9133 0.0
H1527 H 0.63193 0.79218 0.91111 0.0
H1528 H 0.6111 0.79336 0.90362 0.0
H1529 H 0.61764 0.7841 0.92819 0.0
H1530 H 0.6048 0.74108 0.93717 0.0
H1531 H 0.58318 0.7437 0.96136 0.0
H1532 H 0.25138 0.686 0.86787 0.0
H1533 H 0.25156 0.66075 0.88614 0.0
H1534 H 0.29826 0.65078 0.865 0.0
H1535 H 0.29812 0.67595 0.84653 0.0
H1536 H 0.27884 0.62421 0.86276 0.0
H1537 H 0.27772 0.6551 0.94259 0.0
H1538 H 0.26145 0.66015 0.9242 0.0
H1539 H 0.28134 0.66535 0.91839 0.0
C1540 C 0.26164 0.67837 0.86698 0.0
C1541 C 0.27479 0.68304 0.85592 0.0
C1542 C 0.26175 0.66398 0.87748 0.0
C1543 C 0.27507 0.65406 0.87735 0.0
C1544 C 0.28789 0.65829 0.8654 0.0
H1545 H 0.29938 0.58326 0.97162 0.0
H1546 H 0.29871 0.60593 0.9482 0.0
C1547 C 0.28776 0.67265 0.85478 0.0
C1548 C 0.27595 0.63963 0.89041 0.0
H1549 H 0.27515 0.62718 0.94198 0.0
C1550 C 0.27804 0.62483 0.88008 0.0
C1551 C 0.27521 0.64051 0.91306 0.0
C1552 C 0.27396 0.65613 0.92528 0.0
C1553 C 0.27916 0.61086 0.89177 0.0
C1554 C 0.27788 0.6117 0.91434 0.0
C1555 C 0.27599 0.62652 0.92466 0.0
C1556 C 0.2787 0.59742 0.92771 0.0
C1557 C 0.28207 0.59539 0.87991 0.0
C1558 C 0.26765 0.58508 0.92405 0.0
C1559 C 0.26812 0.57198 0.93729 0.0
C1560 C 0.27955 0.57102 0.95462 0.0
C1561 C 0.29059 0.58344 0.95823 0.0
C1562 C 0.29015 0.59648 0.94494 0.0
H1563 H 0.28713 0.59729 0.86414 0.0
H1564 H 0.29026 0.58772 0.88956 0.0
H1565 H 0.27064 0.58901 0.8768 0.0
H1566 H 0.2585 0.58568 0.91114 0.0
H1567 H 0.25952 0.5626 0.9339 0.0
H1568 H 0.34921 0.29136 0.86273 0.0
H1569 H 0.37724 0.29113 0.87486 0.0
H1570 H 0.36886 0.25165 0.91496 0.0
H1571 H 0.34094 0.25133 0.90218 0.0
H1572 H 0.38884 0.29654 0.91559 0.0
H1573 H 0.40862 0.23754 0.88697 0.0
H1574 H 0.39017 0.2463 0.87717 0.0
H1575 H 0.39145 0.2364 0.9024 0.0
C1576 C 0.35339 0.28233 0.87366 0.0
C1577 C 0.34281 0.27134 0.88145 0.0
C1578 C 0.36941 0.2823 0.8807 0.0
C1579 C 0.37519 0.27127 0.89563 0.0
C1580 C 0.36474 0.26007 0.9031 0.0
H1581 H 0.45396 0.28054 0.98911 0.0
H1582 H 0.42815 0.28 0.96873 0.0
C1583 C 0.34873 0.26004 0.89599 0.0
C1584 C 0.39179 0.27231 0.90474 0.0
H1585 H 0.42543 0.25064 0.91451 0.0
C1586 C 0.3969 0.28656 0.91513 0.0
C1587 C 0.40238 0.25936 0.90389 0.0
C1588 C 0.39794 0.24409 0.89181 0.0
C1589 C 0.41209 0.28802 0.92538 0.0
C1590 C 0.42233 0.27477 0.92564 0.0
C1591 C 0.41747 0.26072 0.91454 0.0
C1592 C 0.43792 0.27513 0.93787 0.0
C1593 C 0.41704 0.30375 0.93583 0.0
C1594 C 0.45191 0.27218 0.92735 0.0
C1595 C 0.46659 0.27237 0.93901 0.0
C1596 C 0.46741 0.27541 0.96132 0.0
C1597 C 0.45348 0.27826 0.97187 0.0
C1598 C 0.43881 0.27804 0.96024 0.0
H1599 H 0.41003 0.31366 0.92876 0.0
H1600 H 0.41497 0.30361 0.95324 0.0
H1601 H 0.42982 0.30611 0.93412 0.0
H1602 H 0.45145 0.26983 0.91012 0.0
H1603 H 0.47729 0.27015 0.93069 0.0
H1604 H 0.78377 0.3536 0.86946 0.0
H1605 H 0.78694 0.37891 0.88962 0.0
H1606 H 0.73635 0.38135 0.89498 0.0
H1607 H 0.73309 0.35624 0.87471 0.0
H1608 H 0.74854 0.40966 0.88476 0.0
H1609 H 0.78374 0.38486 0.95405 0.0
H1610 H 0.79222 0.3815 0.92858 0.0
H1611 H 0.77356 0.37249 0.93348 0.0
C1612 C 0.77334 0.35954 0.87498 0.0
C1613 C 0.75818 0.35291 0.87052 0.0
C1614 C 0.77517 0.37397 0.88654 0.0
C1615 C 0.7619 0.38189 0.89412 0.0
C1616 C 0.74675 0.37544 0.88931 0.0
H1617 H 0.75699 0.45243 0.99666 0.0
H1618 H 0.75634 0.42846 0.97331 0.0
C1619 C 0.74491 0.36111 0.87764 0.0
C1620 C 0.76367 0.39684 0.90722 0.0
H1621 H 0.78015 0.41262 0.95457 0.0
C1622 C 0.75549 0.41034 0.9 0.0
C1623 C 0.77256 0.39763 0.92724 0.0
C1624 C 0.78091 0.38333 0.93645 0.0
C1625 C 0.75589 0.42457 0.91228 0.0
C1626 C 0.76503 0.42544 0.93211 0.0
C1627 C 0.77327 0.41197 0.93928 0.0
C1628 C 0.76564 0.43998 0.94615 0.0
C1629 C 0.7461 0.43836 0.90424 0.0
C1630 C 0.77123 0.45435 0.93873 0.0
C1631 C 0.77145 0.46803 0.95199 0.0
C1632 C 0.7663 0.46747 0.97294 0.0
C1633 C 0.76099 0.45307 0.98051 0.0
C1634 C 0.76066 0.43943 0.96722 0.0
H1635 H 0.7367 0.43452 0.89191 0.0
H1636 H 0.74042 0.44465 0.91766 0.0
H1637 H 0.75391 0.44687 0.89672 0.0
H1638 H 0.77545 0.45499 0.92271 0.0
H1639 H 0.77562 0.47906 0.94592 0.0
H1640 H 0.64877 0.31183 0.20545 0.0
H1641 H 0.62618 0.30706 0.17972 0.0
H1642 H 0.64885 0.26509 0.15522 0.0
H1643 H 0.67138 0.2695 0.18143 0.0
H1644 H 0.62746 0.30574 0.13501 0.0
H1645 H 0.60359 0.24991 0.16522 0.0
H1646 H 0.61726 0.26253 0.18127 0.0
H1647 H 0.62437 0.24961 0.16055 0.0
C1648 C 0.64883 0.30138 0.19493 0.0
C1649 C 0.66184 0.29098 0.1956 0.0
C1650 C 0.63596 0.29875 0.18012 0.0
C1651 C 0.63578 0.28565 0.16573 0.0
C1652 C 0.64866 0.27514 0.16643 0.0
H1653 H 0.57565 0.27625 0.04732 0.0
H1654 H 0.59821 0.27776 0.07422 0.0
C1655 C 0.66158 0.27776 0.18126 0.0
C1656 C 0.62246 0.28356 0.14931 0.0
H1657 H 0.59198 0.25885 0.13213 0.0
C1658 C 0.6197 0.29549 0.13436 0.0
C1659 C 0.6123 0.27023 0.14867 0.0
C1660 C 0.61439 0.25738 0.16487 0.0
C1661 C 0.60708 0.29444 0.11868 0.0
C1662 C 0.5971 0.28098 0.11777 0.0
C1663 C 0.59977 0.26908 0.1328 0.0
C1664 C 0.5836 0.27927 0.10158 0.0
C1665 C 0.60432 0.30788 0.10349 0.0
C1666 C 0.568 0.27923 0.10814 0.0
C1667 C 0.5552 0.27834 0.09283 0.0
C1668 C 0.55789 0.27736 0.07085 0.0
C1669 C 0.57345 0.27705 0.06427 0.0
C1670 C 0.58625 0.27797 0.07956 0.0
H1671 H 0.61073 0.3188 0.10939 0.0
H1672 H 0.60865 0.30438 0.08757 0.0
H1673 H 0.59148 0.31062 0.1012 0.0
H1674 H 0.56575 0.2802 0.12506 0.0
H1675 H 0.54322 0.27857 0.09809 0.0
H1676 H 0.77858 0.68239 0.16351 0.0
H1677 H 0.78214 0.65681 0.1449 0.0
H1678 H 0.73164 0.64898 0.14207 0.0
H1679 H 0.72788 0.67475 0.15973 0.0
H1680 H 0.77439 0.6264 0.15533 0.0
H1681 H 0.74177 0.64306 0.07943 0.0
H1682 H 0.74785 0.65744 0.10034 0.0
H1683 H 0.73032 0.64568 0.1026 0.0
C1684 C 0.76821 0.67529 0.15877 0.0
C1685 C 0.75293 0.68072 0.16301 0.0
C1686 C 0.77028 0.66062 0.14828 0.0
C1687 C 0.75713 0.65112 0.14176 0.0
C1688 C 0.74193 0.65626 0.14656 0.0
H1689 H 0.7558 0.55158 0.10192 0.0
H1690 H 0.75466 0.57703 0.12192 0.0
C1691 C 0.73983 0.67093 0.15695 0.0
C1692 C 0.75926 0.63588 0.12978 0.0
H1693 H 0.7481 0.61578 0.08289 0.0
C1694 C 0.76871 0.62409 0.13945 0.0
C1695 C 0.75205 0.63298 0.10891 0.0
C1696 C 0.74256 0.64551 0.09709 0.0
C1697 C 0.77086 0.60933 0.129 0.0
C1698 C 0.76309 0.6062 0.10851 0.0
C1699 C 0.75392 0.61813 0.09868 0.0
C1700 C 0.7643 0.59068 0.09689 0.0
C1701 C 0.78162 0.59733 0.13986 0.0
C1702 C 0.76977 0.58994 0.07603 0.0
C1703 C 0.77018 0.57548 0.06455 0.0
C1704 C 0.7651 0.56156 0.07372 0.0
C1705 C 0.75978 0.56223 0.09463 0.0
C1706 C 0.75926 0.57671 0.10607 0.0
H1707 H 0.7901 0.60306 0.15204 0.0
H1708 H 0.77434 0.58884 0.14826 0.0
H1709 H 0.78843 0.59058 0.12795 0.0
H1710 H 0.77364 0.60057 0.06859 0.0
H1711 H 0.77432 0.57516 0.04842 0.0
H1712 H 0.33235 0.78764 0.12417 0.0
H1713 H 0.35789 0.78992 0.10785 0.0
H1714 H 0.37737 0.75363 0.14882 0.0
H1715 H 0.35187 0.75089 0.1647 0.0
H1716 H 0.38917 0.79647 0.12676 0.0
H1717 H 0.38435 0.73664 0.08734 0.0
H1718 H 0.36764 0.74663 0.09834 0.0
H1719 H 0.38208 0.737 0.11584 0.0
C1720 C 0.34208 0.78014 0.12969 0.0
C1721 C 0.34003 0.76903 0.14567 0.0
C1722 C 0.35666 0.78153 0.12044 0.0
C1723 C 0.36941 0.77177 0.12692 0.0
C1724 C 0.3676 0.7611 0.14339 0.0
H1725 H 0.46379 0.75444 0.08509 0.0
H1726 H 0.43934 0.75527 0.10417 0.0
C1727 C 0.35305 0.7597 0.15263 0.0
C1728 C 0.38447 0.77236 0.11605 0.0
H1729 H 0.40885 0.74999 0.08569 0.0
C1730 C 0.39347 0.78635 0.1177 0.0
C1731 C 0.39 0.75913 0.10422 0.0
C1732 C 0.38047 0.74403 0.10111 0.0
C1733 C 0.40809 0.78733 0.10821 0.0
C1734 C 0.41365 0.77405 0.09652 0.0
C1735 C 0.40458 0.76011 0.09478 0.0
C1736 C 0.4288 0.77431 0.08576 0.0
C1737 C 0.41761 0.80243 0.11118 0.0
C1738 C 0.43095 0.78471 0.06906 0.0
C1739 C 0.44488 0.78423 0.05807 0.0
C1740 C 0.45687 0.77323 0.06349 0.0
C1741 C 0.45472 0.76292 0.08038 0.0
C1742 C 0.4408 0.76344 0.09136 0.0
H1743 H 0.41376 0.80986 0.12494 0.0
H1744 H 0.43045 0.79983 0.1139 0.0
H1745 H 0.41595 0.80941 0.09642 0.0
H1746 H 0.42168 0.79294 0.06415 0.0
H1747 H 0.44604 0.79213 0.0449 0.0
H1748 H 0.30407 0.36991 0.21778 0.0
H1749 H 0.30055 0.39341 0.19634 0.0
H1750 H 0.26826 0.36771 0.15164 0.0
H1751 H 0.27077 0.34448 0.17384 0.0
H1752 H 0.30869 0.39725 0.15735 0.0
H1753 H 0.24418 0.40791 0.15787 0.0
H1754 H 0.25429 0.39424 0.17566 0.0
H1755 H 0.24837 0.38821 0.14833 0.0
C1756 C 0.29579 0.36934 0.2038 0.0
C1757 C 0.28767 0.3552 0.19768 0.0
C1758 C 0.29394 0.38279 0.19138 0.0
C1759 C 0.284 0.38245 0.17245 0.0
C1760 C 0.27571 0.36845 0.16641 0.0
H1761 H 0.29549 0.44382 0.06525 0.0
H1762 H 0.29597 0.42221 0.09053 0.0
C1763 C 0.27738 0.35504 0.17899 0.0
C1764 C 0.28326 0.39635 0.1583 0.0
H1765 H 0.25781 0.42105 0.13084 0.0
C1766 C 0.29755 0.40254 0.15173 0.0
C1767 C 0.26877 0.40344 0.15116 0.0
C1768 C 0.25306 0.39821 0.15882 0.0
C1769 C 0.29776 0.41536 0.13795 0.0
C1770 C 0.28323 0.42186 0.12983 0.0
C1771 C 0.26894 0.41593 0.13678 0.0
C1772 C 0.2826 0.43484 0.11419 0.0
C1773 C 0.31359 0.42195 0.13259 0.0
C1774 C 0.27438 0.44891 0.1186 0.0
C1775 C 0.27385 0.46117 0.10397 0.0
C1776 C 0.28161 0.45962 0.08469 0.0
C1777 C 0.28965 0.44545 0.08016 0.0
C1778 C 0.28999 0.43313 0.09465 0.0
H1779 H 0.32301 0.41926 0.14518 0.0
H1780 H 0.31708 0.41643 0.1172 0.0
H1781 H 0.31306 0.43498 0.13083 0.0
H1782 H 0.26853 0.45049 0.13351 0.0
H1783 H 0.26762 0.47197 0.1079 0.0
H1784 H 0.37954 0.28203 0.22006 0.0
H1785 H 0.40135 0.27948 0.196 0.0
H1786 H 0.36772 0.27808 0.14103 0.0
H1787 H 0.3459 0.28096 0.16487 0.0
H1788 H 0.4074 0.25561 0.16306 0.0
H1789 H 0.39783 0.31567 0.13069 0.0
H1790 H 0.38946 0.30953 0.15509 0.0
H1791 H 0.38057 0.30317 0.12932 0.0
C1792 C 0.3768 0.28115 0.20285 0.0
C1793 C 0.36099 0.28177 0.19438 0.0
C1794 C 0.38925 0.27962 0.18915 0.0
C1795 C 0.38613 0.27881 0.16676 0.0
C1796 C 0.37037 0.27889 0.15827 0.0
H1797 H 0.44912 0.2554 0.0655 0.0
H1798 H 0.4283 0.25561 0.09109 0.0
C1799 C 0.35791 0.28037 0.17194 0.0
C1800 C 0.39936 0.27836 0.15223 0.0
H1801 H 0.41665 0.29941 0.11402 0.0
C1802 C 0.40946 0.26518 0.15234 0.0
C1803 C 0.40211 0.29097 0.13851 0.0
C1804 C 0.39203 0.30572 0.13844 0.0
C1805 C 0.42211 0.26414 0.13874 0.0
C1806 C 0.42459 0.27656 0.12459 0.0
C1807 C 0.41464 0.28986 0.12478 0.0
C1808 C 0.43749 0.27608 0.10952 0.0
C1809 C 0.43286 0.24989 0.13983 0.0
C1810 C 0.44943 0.28766 0.11121 0.0
C1811 C 0.46137 0.28756 0.09665 0.0
C1812 C 0.46155 0.27593 0.07999 0.0
C1813 C 0.44952 0.26435 0.07835 0.0
C1814 C 0.4376 0.26445 0.09295 0.0
H1815 H 0.43174 0.24339 0.1549 0.0
H1816 H 0.42963 0.24166 0.12603 0.0
H1817 H 0.44544 0.25343 0.1388 0.0
H1818 H 0.44953 0.29676 0.12387 0.0
H1819 H 0.47054 0.29653 0.09857 0.0
H1820 H 0.7444 0.35 0.17881 0.0
H1821 H 0.75282 0.37233 0.15838 0.0
H1822 H 0.75122 0.40295 0.2149 0.0
H1823 H 0.74298 0.38055 0.23565 0.0
H1824 H 0.73421 0.41421 0.17876 0.0
H1825 H 0.79493 0.39663 0.15899 0.0
H1826 H 0.78043 0.38138 0.15277 0.0
H1827 H 0.78474 0.38781 0.18031 0.0
C1828 C 0.74621 0.36138 0.18708 0.0
C1829 C 0.74304 0.36348 0.20889 0.0
C1830 C 0.75104 0.37414 0.17536 0.0
C1831 C 0.75286 0.38923 0.18522 0.0
C1832 C 0.74997 0.39135 0.20706 0.0
H1833 H 0.78375 0.47179 0.11613 0.0
H1834 H 0.78196 0.45161 0.14337 0.0
C1835 C 0.74517 0.37858 0.21883 0.0
C1836 C 0.75636 0.40298 0.17217 0.0
H1837 H 0.7825 0.41685 0.13752 0.0
C1838 C 0.74488 0.41492 0.16999 0.0
C1839 C 0.77034 0.40393 0.1609 0.0
C1840 C 0.78339 0.39183 0.16349 0.0
C1841 C 0.74667 0.4274 0.15604 0.0
C1842 C 0.7602 0.42784 0.14384 0.0
C1843 C 0.77206 0.41635 0.14677 0.0
C1844 C 0.76177 0.43967 0.12714 0.0
C1845 C 0.73393 0.4399 0.15417 0.0
C1846 C 0.75123 0.43935 0.10886 0.0
C1847 C 0.75229 0.4507 0.09324 0.0
C1848 C 0.76392 0.46264 0.09562 0.0
C1849 C 0.77472 0.4627 0.11376 0.0
C1850 C 0.77368 0.45126 0.12937 0.0
H1851 H 0.72648 0.44013 0.16826 0.0
H1852 H 0.73921 0.45182 0.15269 0.0
H1853 H 0.72611 0.43731 0.13951 0.0
H1854 H 0.74215 0.43029 0.1067 0.0
H1855 H 0.74402 0.45008 0.07925 0.0
H1856 H 0.66689 0.73502 0.17395 0.0
H1857 H 0.6405 0.73793 0.15593 0.0
H1858 H 0.65502 0.78177 0.1294 0.0
H1859 H 0.68131 0.77916 0.14774 0.0
H1860 H 0.62378 0.7822 0.14555 0.0
H1861 H 0.63359 0.73094 0.08971 0.0
H1862 H 0.63651 0.72712 0.11791 0.0
H1863 H 0.64957 0.74049 0.10577 0.0
C1864 C 0.66438 0.74543 0.1646 0.0
C1865 C 0.67623 0.7568 0.16213 0.0
C1866 C 0.64935 0.74699 0.15417 0.0
C1867 C 0.64592 0.75993 0.1411 0.0
C1868 C 0.65748 0.77164 0.13933 0.0
H1869 H 0.57485 0.77076 0.03729 0.0
H1870 H 0.5992 0.76924 0.06083 0.0
C1871 C 0.67251 0.77008 0.14969 0.0
C1872 C 0.63055 0.76097 0.12846 0.0
H1873 H 0.60856 0.74329 0.08657 0.0
C1874 C 0.62038 0.77367 0.13271 0.0
C1875 C 0.6263 0.74992 0.11157 0.0
C1876 C 0.63708 0.7364 0.10576 0.0
C1877 C 0.606 0.77559 0.1205 0.0
C1878 C 0.6017 0.76444 0.10375 0.0
C1879 C 0.61188 0.75175 0.09952 0.0
C1880 C 0.58694 0.76597 0.08989 0.0
C1881 C 0.59572 0.78971 0.12523 0.0
C1882 C 0.57203 0.76461 0.09846 0.0
C1883 C 0.55818 0.76547 0.08504 0.0
C1884 C 0.55912 0.76765 0.06292 0.0
C1885 C 0.57398 0.76912 0.05436 0.0
C1886 C 0.58781 0.76822 0.06775 0.0
H1887 H 0.60222 0.79886 0.13549 0.0
H1888 H 0.59117 0.79517 0.11006 0.0
H1889 H 0.58537 0.7858 0.13384 0.0
H1890 H 0.57113 0.76261 0.11543 0.0
H1891 H 0.54676 0.76425 0.09182 0.0
H1892 H 0.28561 0.67393 0.17859 0.0
H1893 H 0.28744 0.64682 0.16368 0.0
H1894 H 0.27261 0.66318 0.10071 0.0
H1895 H 0.2711 0.69027 0.1153 0.0
H1896 H 0.2634 0.62786 0.14037 0.0
H1897 H 0.3148 0.63965 0.09185 0.0
H1898 H 0.30919 0.65281 0.11348 0.0
H1899 H 0.29855 0.65314 0.0876 0.0
C1900 C 0.2828 0.67174 0.16155 0.0
C1901 C 0.27826 0.68425 0.1481 0.0
C1902 C 0.28378 0.65627 0.1531 0.0
C1903 C 0.28039 0.65309 0.13107 0.0
C1904 C 0.2755 0.66546 0.11771 0.0
H1905 H 0.27625 0.57407 0.04127 0.0
H1906 H 0.27621 0.59991 0.06044 0.0
C1907 C 0.27447 0.6809 0.12613 0.0
C1908 C 0.28193 0.63685 0.1219 0.0
H1909 H 0.30138 0.61512 0.08469 0.0
C1910 C 0.2718 0.62499 0.12836 0.0
C1911 C 0.29295 0.6332 0.10629 0.0
C1912 C 0.30461 0.64532 0.0995 0.0
C1913 C 0.27195 0.60967 0.11895 0.0
C1914 C 0.28272 0.60614 0.10297 0.0
C1915 C 0.29311 0.61791 0.0969 0.0
C1916 C 0.28295 0.5905 0.09162 0.0
C1917 C 0.26021 0.59758 0.12559 0.0
C1918 C 0.28694 0.57673 0.10281 0.0
C1919 C 0.28695 0.56202 0.09188 0.0
C1920 C 0.2831 0.56098 0.06965 0.0
C1921 C 0.27929 0.57473 0.05844 0.0
C1922 C 0.27927 0.58941 0.06934 0.0
H1923 H 0.25056 0.60313 0.13452 0.0
H1924 H 0.25485 0.59091 0.11131 0.0
H1925 H 0.26644 0.58899 0.13624 0.0
H1926 H 0.29007 0.57738 0.11994 0.0
H1927 H 0.28987 0.55146 0.10072 0.0
H1928 H 0.35651 0.73456 0.85404 0.0
H1929 H 0.38307 0.73773 0.87147 0.0
H1930 H 0.37359 0.78706 0.88508 0.0
H1931 H 0.34713 0.78414 0.86703 0.0
H1932 H 0.40431 0.78104 0.87048 0.0
H1933 H 0.39016 0.7425 0.93738 0.0
H1934 H 0.38665 0.73353 0.91099 0.0
H1935 H 0.37508 0.75035 0.91888 0.0
C1936 C 0.36015 0.74616 0.86038 0.0
C1937 C 0.34965 0.75908 0.85924 0.0
C1938 C 0.37528 0.74791 0.87054 0.0
C1939 C 0.38016 0.76256 0.87988 0.0
C1940 C 0.36998 0.77562 0.8781 0.0
H1941 H 0.45676 0.77739 0.97761 0.0
H1942 H 0.43127 0.77706 0.9564 0.0
C1943 C 0.35483 0.7739 0.86792 0.0
C1944 C 0.3957 0.76411 0.89213 0.0
H1945 H 0.41688 0.75072 0.93633 0.0
C1946 C 0.40709 0.77444 0.88489 0.0
C1947 C 0.39916 0.75566 0.91109 0.0
C1948 C 0.38709 0.74499 0.92021 0.0
C1949 C 0.42199 0.77634 0.89597 0.0
C1950 C 0.4256 0.76753 0.91459 0.0
C1951 C 0.41411 0.75738 0.92196 0.0
C1952 C 0.44116 0.7687 0.92687 0.0
C1953 C 0.43364 0.78794 0.88788 0.0
C1954 C 0.45514 0.76413 0.91727 0.0
C1955 C 0.46965 0.76437 0.92936 0.0
C1956 C 0.47031 0.76903 0.9512 0.0
C1957 C 0.45641 0.77377 0.96075 0.0
C1958 C 0.44192 0.77356 0.94868 0.0
H1959 H 0.42769 0.79659 0.877 0.0
H1960 H 0.44003 0.79453 0.90148 0.0
H1961 H 0.44252 0.78137 0.87871 0.0
H1962 H 0.45477 0.76005 0.90059 0.0
H1963 H 0.4803 0.76066 0.9218 0.0
H1964 H 0.27649 0.34262 0.91807 0.0
H1965 H 0.27773 0.37021 0.93083 0.0
H1966 H 0.26667 0.38549 0.86622 0.0
H1967 H 0.26508 0.35774 0.85327 0.0
H1968 H 0.29861 0.39418 0.91515 0.0
H1969 H 0.23445 0.4093 0.90451 0.0
H1970 H 0.24129 0.38907 0.90588 0.0
H1971 H 0.24365 0.40001 0.88206 0.0
C1972 C 0.27404 0.35181 0.90659 0.0
C1973 C 0.27053 0.34799 0.88468 0.0
C1974 C 0.27489 0.36757 0.9139 0.0
C1975 C 0.27218 0.37983 0.89949 0.0
C1976 C 0.26863 0.37615 0.8776 0.0
H1977 H 0.27032 0.48125 0.93544 0.0
H1978 H 0.26946 0.45631 0.91383 0.0
C1979 C 0.26783 0.36033 0.87023 0.0
C1980 C 0.27352 0.39643 0.9076 0.0
H1981 H 0.25161 0.42904 0.91988 0.0
C1982 C 0.28838 0.40188 0.91602 0.0
C1983 C 0.26016 0.40643 0.9085 0.0
C1984 C 0.24393 0.40097 0.89989 0.0
C1985 C 0.29016 0.41697 0.92586 0.0
C1986 C 0.27666 0.42669 0.92772 0.0
C1987 C 0.26192 0.42151 0.9185 0.0
C1988 C 0.27742 0.44179 0.94042 0.0
C1989 C 0.30647 0.42231 0.93433 0.0
C1990 C 0.28198 0.44179 0.96249 0.0
C1991 C 0.28245 0.45592 0.97471 0.0
C1992 C 0.27824 0.47021 0.96507 0.0
C1993 C 0.27359 0.47027 0.94306 0.0
C1994 C 0.27311 0.45611 0.9308 0.0
H1995 H 0.3159 0.4159 0.92595 0.0
H1996 H 0.30806 0.43523 0.93247 0.0
H1997 H 0.30805 0.41977 0.95171 0.0
H1998 H 0.28501 0.43083 0.97031 0.0
H1999 H 0.28599 0.45571 0.99172 0.0
H2000 H 0.68749 0.25736 0.87667 0.0
H2001 H 0.66159 0.25646 0.892 0.0
H2002 H 0.64764 0.29888 0.85905 0.0
H2003 H 0.67373 0.30018 0.84423 0.0
H2004 H 0.64224 0.30055 0.90207 0.0
H2005 H 0.61798 0.24439 0.86541 0.0
H2006 H 0.63733 0.24217 0.87852 0.0
H2007 H 0.6348 0.25432 0.85534 0.0
C2008 C 0.67888 0.26645 0.87258 0.0
C2009 C 0.6827 0.27885 0.85924 0.0
C2010 C 0.66401 0.26582 0.88115 0.0
C2011 C 0.6526 0.27748 0.87643 0.0
C2012 C 0.65623 0.28969 0.86276 0.0
H2013 H 0.56098 0.29667 0.93065 0.0
H2014 H 0.58386 0.29725 0.90841 0.0
C2015 C 0.67111 0.29034 0.85418 0.0
C2016 C 0.63738 0.2776 0.88711 0.0
H2017 H 0.60495 0.25508 0.89568 0.0
C2018 C 0.63398 0.2907 0.90046 0.0
C2019 C 0.62665 0.26472 0.88503 0.0
C2020 C 0.62927 0.25067 0.87013 0.0
C2021 C 0.62041 0.29104 0.91238 0.0
C2022 C 0.60986 0.27801 0.91065 0.0
C2023 C 0.6131 0.26503 0.897 0.0
C2024 C 0.59571 0.27739 0.9235 0.0
C2025 C 0.61777 0.30507 0.92732 0.0
C2026 C 0.59463 0.26581 0.93899 0.0
C2027 C 0.58161 0.26546 0.95175 0.0
C2028 C 0.56935 0.27665 0.94918 0.0
C2029 C 0.57034 0.28805 0.93331 0.0
C2030 C 0.58338 0.28839 0.92056 0.0
H2031 H 0.62862 0.31244 0.93024 0.0
H2032 H 0.60826 0.31263 0.92003 0.0
H2033 H 0.61393 0.30114 0.94303 0.0
H2034 H 0.60403 0.25722 0.94151 0.0
H2035 H 0.58135 0.25664 0.96398 0.0
H2036 H 0.73579 0.67568 0.86664 0.0
H2037 H 0.74256 0.65339 0.88953 0.0
H2038 H 0.76936 0.63214 0.8395 0.0
H2039 H 0.76276 0.65457 0.81643 0.0
H2040 H 0.7354 0.61902 0.87297 0.0
H2041 H 0.79826 0.63254 0.89979 0.0
H2042 H 0.7844 0.64803 0.89237 0.0
H2043 H 0.7916 0.63496 0.872 0.0
C2044 C 0.74338 0.66644 0.86064 0.0
C2045 C 0.74879 0.6669 0.83976 0.0
C2046 C 0.74716 0.65369 0.87368 0.0
C2047 C 0.75651 0.64125 0.86618 0.0
C2048 C 0.76222 0.64174 0.84555 0.0
H2049 H 0.78472 0.55621 0.93646 0.0
H2050 H 0.78315 0.57699 0.90968 0.0
C2051 C 0.75836 0.65448 0.8324 0.0
C2052 C 0.75933 0.62731 0.87957 0.0
H2053 H 0.78665 0.61015 0.91413 0.0
C2054 C 0.74663 0.61698 0.88186 0.0
C2055 C 0.77404 0.62468 0.89088 0.0
C2056 C 0.78793 0.6356 0.88881 0.0
C2057 C 0.74815 0.60418 0.8956 0.0
C2058 C 0.76263 0.60195 0.90776 0.0
C2059 C 0.77554 0.61197 0.90488 0.0
C2060 C 0.76424 0.58981 0.92436 0.0
C2061 C 0.73419 0.5932 0.89703 0.0
C2062 C 0.75445 0.59044 0.94174 0.0
C2063 C 0.75529 0.57866 0.95693 0.0
C2064 C 0.76607 0.56608 0.95517 0.0
C2065 C 0.77632 0.56578 0.93822 0.0
C2066 C 0.77541 0.57759 0.92291 0.0
H2067 H 0.72604 0.59355 0.88235 0.0
H2068 H 0.73814 0.58079 0.8993 0.0
H2069 H 0.72739 0.59696 0.91098 0.0
H2070 H 0.74605 0.60002 0.94346 0.0
H2071 H 0.7475 0.57939 0.9701 0.0
loop_
_geom_bond_atom_site_label_1
_geom_bond_atom_site_label_2
_geom_bond_distance
_geom_bond_site_symmetry_2
_ccdc_geom_bond_type
H0 C27 0.929 . S
N1 C26 1.433 . S
N1 C32 1.435 . S
N1 C38 1.423 . S
H2 C28 0.930 . S
H3 C31 0.931 . S
H4 C30 0.929 . S
H5 C33 0.930 . S
H6 C34 0.932 . S
H7 C37 0.929 . S
H8 C36 0.931 . S
H9 C39 0.929 . S
H10 C43 0.932 . S
H11 C40 0.931 . S
H12 C42 0.929 . S
H13 C45 0.929 . S
H14 C46 0.930 . S
H15 C48 0.929 . S
H16 C49 0.931 . S
H17 C51 0.930 . S
H18 C52 0.932 . S
H19 C54 0.931 . S
H20 C55 0.929 . S
H21 C57 0.929 . S
H22 C58 0.931 . S
H23 C60 0.929 . S
N24 C44 1.433 . S
N24 C50 1.435 . S
N24 C56 1.423 . S
H25 C61 0.932 . S
C26 N1 1.433 . S
C26 C27 1.363 . S
C26 C31 1.370 . S
C27 H0 0.929 . S
C27 C26 1.363 . S
C27 C28 1.385 . S
C28 H2 0.930 . S
C28 C27 1.385 . S
C28 C29 1.357 . S
C29 C28 1.357 . S
C29 C30 1.406 . S
C30 H4 0.929 . S
C30 C29 1.406 . S
C30 C31 1.391 . S
C31 H3 0.931 . S
C31 C26 1.370 . S
C31 C30 1.391 . S
C32 N1 1.435 . S
C32 C33 1.358 . S
C32 C37 1.371 . S
C33 H5 0.930 . S
C33 C32 1.358 . S
C33 C34 1.405 . S
C34 H6 0.932 . S
C34 C33 1.405 . S
C34 C35 1.383 . S
C35 C34 1.383 . S
C35 C36 1.393 . S
C36 H8 0.931 . S
C36 C35 1.393 . S
C36 C37 1.382 . S
C37 H7 0.929 . S
C37 C32 1.371 . S
C37 C36 1.382 . S
C38 N1 1.423 . S
C38 C39 1.362 . S
C38 C43 1.388 . S
C39 H9 0.929 . S
C39 C38 1.362 . S
C39 C40 1.376 . S
C40 H11 0.931 . S
C40 C39 1.376 . S
C40 C41 1.396 . S
C41 C40 1.396 . S
C41 C42 1.348 . S
C41 C59 1.472 . S
C42 H12 0.929 . S
C42 C41 1.348 . S
C42 C43 1.443 . S
C43 H10 0.932 . S
C43 C38 1.388 . S
C43 C42 1.443 . S
C44 N24 1.433 . S
C44 C45 1.363 . S
C44 C49 1.370 . S
C45 H13 0.929 . S
C45 C44 1.363 . S
C45 C46 1.385 . S
C46 H14 0.930 . S
C46 C45 1.385 . S
C46 C47 1.357 . S
C47 C46 1.357 . S
C47 C48 1.406 . S
C48 H15 0.929 . S
C48 C47 1.406 . S
C48 C49 1.391 . S
C49 H16 0.931 . S
C49 C44 1.370 . S
C49 C48 1.391 . S
C50 N24 1.435 . S
C50 C51 1.358 . S
C50 C55 1.371 . S
C51 H17 0.930 . S
C51 C50 1.358 . S
C51 C52 1.405 . S
C52 H18 0.932 . S
C52 C51 1.405 . S
C52 C53 1.383 . S
C53 C52 1.383 . S
C53 C54 1.393 . S
C54 H19 0.931 . S
C54 C53 1.393 . S
C54 C55 1.382 . S
C55 H20 0.929 . S
C55 C50 1.371 . S
C55 C54 1.382 . S
C56 N24 1.423 . S
C56 C57 1.362 . S
C56 C61 1.388 . S
C57 H21 0.929 . S
C57 C56 1.362 . S
C57 C58 1.376 . S
C58 H22 0.931 . S
C58 C57 1.376 . S
C58 C59 1.396 . S
C59 C41 1.472 . S
C59 C58 1.396 . S
C59 C60 1.348 . S
C60 H23 0.929 . S
C60 C59 1.348 . S
C60 C61 1.443 . S
C61 H25 0.932 . S
C61 C56 1.388 . S
C61 C60 1.443 . S
H62 C89 0.929 . S
N63 C88 1.433 . S
N63 C94 1.435 . S
N63 C100 1.423 . S
H64 C90 0.930 . S
H65 C93 0.931 . S
H66 C92 0.929 . S
H67 C95 0.930 . S
H68 C96 0.932 . S
H69 C99 0.929 . S
H70 C98 0.931 . S
H71 C101 0.929 . S
H72 C105 0.932 . S
H73 C102 0.931 . S
H74 C104 0.929 . S
H75 C107 0.929 . S
H76 C108 0.930 . S
H77 C110 0.929 . S
H78 C111 0.931 . S
H79 C113 0.930 . S
H80 C114 0.932 . S
H81 C116 0.931 . S
H82 C117 0.929 . S
H83 C119 0.929 . S
H84 C120 0.931 . S
H85 C122 0.929 . S
N86 C106 1.433 . S
N86 C112 1.435 . S
N86 C118 1.423 . S
H87 C123 0.932 . S
C88 N63 1.433 . S
C88 C89 1.363 . S
C88 C93 1.370 . S
C89 H62 0.929 . S
C89 C88 1.363 . S
C89 C90 1.385 . S
C90 H64 0.930 . S
C90 C89 1.385 . S
C90 C91 1.357 . S
C91 C90 1.357 . S
C91 C92 1.406 . S
C92 H66 0.929 . S
C92 C91 1.406 . S
C92 C93 1.391 . S
C93 H65 0.931 . S
C93 C88 1.370 . S
C93 C92 1.391 . S
C94 N63 1.435 . S
C94 C95 1.358 . S
C94 C99 1.371 . S
C95 H67 0.930 . S
C95 C94 1.358 . S
C95 C96 1.405 . S
C96 H68 0.932 . S
C96 C95 1.405 . S
C96 C97 1.383 . S
C97 C96 1.383 . S
C97 C98 1.393 . S
C98 H70 0.931 . S
C98 C97 1.393 . S
C98 C99 1.382 . S
C99 H69 0.929 . S
C99 C94 1.371 . S
C99 C98 1.382 . S
C100 N63 1.423 . S
C100 C101 1.362 . S
C100 C105 1.388 . S
C101 H71 0.929 . S
C101 C100 1.362 . S
C101 C102 1.376 . S
C102 H73 0.931 . S
C102 C101 1.376 . S
C102 C103 1.396 . S
C103 C102 1.396 . S
C103 C104 1.348 . S
C103 C121 1.472 . S
C104 H74 0.929 . S
C104 C103 1.348 . S
C104 C105 1.443 . S
C105 H72 0.932 . S
C105 C100 1.388 . S
C105 C104 1.443 . S
C106 N86 1.433 . S
C106 C107 1.363 . S
C106 C111 1.370 . S
C107 H75 0.929 . S
C107 C106 1.363 . S
C107 C108 1.385 . S
C108 H76 0.930 . S
C108 C107 1.385 . S
C108 C109 1.357 . S
C109 C108 1.357 . S
C109 C110 1.406 . S
C110 H77 0.929 . S
C110 C109 1.406 . S
C110 C111 1.391 . S
C111 H78 0.931 . S
C111 C106 1.370 . S
C111 C110 1.391 . S
C112 N86 1.435 . S
C112 C113 1.358 . S
C112 C117 1.371 . S
C113 H79 0.930 . S
C113 C112 1.358 . S
C113 C114 1.405 . S
C114 H80 0.932 . S
C114 C113 1.405 . S
C114 C115 1.383 . S
C115 C114 1.383 . S
C115 C116 1.393 . S
C116 H81 0.931 . S
C116 C115 1.393 . S
C116 C117 1.382 . S
C117 H82 0.929 . S
C117 C112 1.371 . S
C117 C116 1.382 . S
C118 N86 1.423 . S
C118 C119 1.362 . S
C118 C123 1.388 . S
C119 H83 0.929 . S
C119 C118 1.362 . S
C119 C120 1.376 . S
C120 H84 0.931 . S
C120 C119 1.376 . S
C120 C121 1.396 . S
C121 C103 1.472 . S
C121 C120 1.396 . S
C121 C122 1.348 . S
C122 H85 0.929 . S
C122 C121 1.348 . S
C122 C123 1.443 . S
C123 H87 0.932 . S
C123 C118 1.388 . S
C123 C122 1.443 . S
H124 C151 0.929 . S
N125 C150 1.433 . S
N125 C156 1.435 . S
N125 C162 1.423 . S
H126 C152 0.930 . S
H127 C155 0.931 . S
H128 C154 0.929 . S
H129 C157 0.930 . S
H130 C158 0.932 . S
H131 C161 0.929 . S
H132 C160 0.931 . S
H133 C163 0.929 . S
H134 C167 0.932 . S
H135 C164 0.931 . S
H136 C166 0.929 . S
H137 C169 0.929 . S
H138 C170 0.930 . S
H139 C172 0.929 . S
H140 C173 0.931 . S
H141 C175 0.930 . S
H142 C176 0.932 . S
H143 C178 0.931 . S
H144 C179 0.929 . S
H145 C181 0.929 . S
H146 C182 0.931 . S
H147 C184 0.929 . S
N148 C168 1.433 . S
N148 C174 1.435 . S
N148 C180 1.423 . S
H149 C185 0.932 . S
C150 N125 1.433 . S
C150 C151 1.363 . S
C150 C155 1.370 . S
C151 H124 0.929 . S
C151 C150 1.363 . S
C151 C152 1.385 . S
C152 H126 0.930 . S
C152 C151 1.385 . S
C152 C153 1.357 . S
C153 C152 1.357 . S
C153 C154 1.406 . S
C154 H128 0.929 . S
C154 C153 1.406 . S
C154 C155 1.391 . S
C155 H127 0.931 . S
C155 C150 1.370 . S
C155 C154 1.391 . S
C156 N125 1.435 . S
C156 C157 1.358 . S
C156 C161 1.371 . S
C157 H129 0.930 . S
C157 C156 1.358 . S
C157 C158 1.405 . S
C158 H130 0.932 . S
C158 C157 1.405 . S
C158 C159 1.383 . S
C159 C158 1.383 . S
C159 C160 1.393 . S
C160 H132 0.931 . S
C160 C159 1.393 . S
C160 C161 1.382 . S
C161 H131 0.929 . S
C161 C156 1.371 . S
C161 C160 1.382 . S
C162 N125 1.423 . S
C162 C163 1.362 . S
C162 C167 1.388 . S
C163 H133 0.929 . S
C163 C162 1.362 . S
C163 C164 1.376 . S
C164 H135 0.931 . S
C164 C163 1.376 . S
C164 C165 1.396 . S
C165 C164 1.396 . S
C165 C166 1.348 . S
C165 C183 1.472 . S
C166 H136 0.929 . S
C166 C165 1.348 . S
C166 C167 1.443 . S
C167 H134 0.932 . S
C167 C162 1.388 . S
C167 C166 1.443 . S
C168 N148 1.433 . S
C168 C169 1.363 . S
C168 C173 1.370 . S
C169 H137 0.929 . S
C169 C168 1.363 . S
C169 C170 1.385 . S
C170 H138 0.930 . S
C170 C169 1.385 . S
C170 C171 1.357 . S
C171 C170 1.357 . S
C171 C172 1.406 . S
C172 H139 0.929 . S
C172 C171 1.406 . S
C172 C173 1.391 . S
C173 H140 0.931 . S
C173 C168 1.370 . S
C173 C172 1.391 . S
C174 N148 1.435 . S
C174 C175 1.358 . S
C174 C179 1.371 . S
C175 H141 0.930 . S
C175 C174 1.358 . S
C175 C176 1.405 . S
C176 H142 0.932 . S
C176 C175 1.405 . S
C176 C177 1.383 . S
C177 C176 1.383 . S
C177 C178 1.393 . S
C178 H143 0.931 . S
C178 C177 1.393 . S
C178 C179 1.382 . S
C179 H144 0.929 . S
C179 C174 1.371 . S
C179 C178 1.382 . S
C180 N148 1.423 . S
C180 C181 1.362 . S
C180 C185 1.388 . S
C181 H145 0.929 . S
C181 C180 1.362 . S
C181 C182 1.376 . S
C182 H146 0.931 . S
C182 C181 1.376 . S
C182 C183 1.396 . S
C183 C165 1.472 . S
C183 C182 1.396 . S
C183 C184 1.348 . S
C184 H147 0.929 . S
C184 C183 1.348 . S
C184 C185 1.443 . S
C185 H149 0.932 . S
C185 C180 1.388 . S
C185 C184 1.443 . S
H186 C213 0.929 . S
N187 C212 1.433 . S
N187 C218 1.435 . S
N187 C224 1.423 . S
H188 C214 0.930 . S
H189 C217 0.931 . S
H190 C216 0.929 . S
H191 C219 0.930 . S
H192 C220 0.932 . S
H193 C223 0.929 . S
H194 C222 0.931 . S
H195 C225 0.929 . S
H196 C229 0.932 . S
H197 C226 0.931 . S
H198 C228 0.929 . S
H199 C231 0.929 . S
H200 C232 0.930 . S
H201 C234 0.929 . S
H202 C235 0.931 . S
H203 C237 0.930 . S
H204 C238 0.932 . S
H205 C240 0.931 . S
H206 C241 0.929 . S
H207 C243 0.929 . S
H208 C244 0.931 . S
H209 C246 0.929 . S
N210 C230 1.433 . S
N210 C236 1.435 . S
N210 C242 1.423 . S
H211 C247 0.932 . S
C212 N187 1.433 . S
C212 C213 1.363 . S
C212 C217 1.370 . S
C213 H186 0.929 . S
C213 C212 1.363 . S
C213 C214 1.385 . S
C214 H188 0.930 . S
C214 C213 1.385 . S
C214 C215 1.357 . S
C215 C214 1.357 . S
C215 C216 1.406 . S
C216 H190 0.929 . S
C216 C215 1.406 . S
C216 C217 1.391 . S
C217 H189 0.931 . S
C217 C212 1.370 . S
C217 C216 1.391 . S
C218 N187 1.435 . S
C218 C219 1.358 . S
C218 C223 1.371 . S
C219 H191 0.930 . S
C219 C218 1.358 . S
C219 C220 1.405 . S
C220 H192 0.932 . S
C220 C219 1.405 . S
C220 C221 1.383 . S
C221 C220 1.383 . S
C221 C222 1.393 . S
C222 H194 0.931 . S
C222 C221 1.393 . S
C222 C223 1.382 . S
C223 H193 0.929 . S
C223 C218 1.371 . S
C223 C222 1.382 . S
C224 N187 1.423 . S
C224 C225 1.362 . S
C224 C229 1.388 . S
C225 H195 0.929 . S
C225 C224 1.362 . S
C225 C226 1.376 . S
C226 H197 0.931 . S
C226 C225 1.376 . S
C226 C227 1.396 . S
C227 C226 1.396 . S
C227 C228 1.348 . S
C227 C245 1.472 . S
C228 H198 0.929 . S
C228 C227 1.348 . S
C228 C229 1.443 . S
C229 H196 0.932 . S
C229 C224 1.388 . S
C229 C228 1.443 . S
C230 N210 1.433 . S
C230 C231 1.363 . S
C230 C235 1.370 . S
C231 H199 0.929 . S
C231 C230 1.363 . S
C231 C232 1.385 . S
C232 H200 0.930 . S
C232 C231 1.385 . S
C232 C233 1.357 . S
C233 C232 1.357 . S
C233 C234 1.406 . S
C234 H201 0.929 . S
C234 C233 1.406 . S
C234 C235 1.391 . S
C235 H202 0.931 . S
C235 C230 1.370 . S
C235 C234 1.391 . S
C236 N210 1.435 . S
C236 C237 1.358 . S
C236 C241 1.371 . S
C237 H203 0.930 . S
C237 C236 1.358 . S
C237 C238 1.405 . S
C238 H204 0.932 . S
C238 C237 1.405 . S
C238 C239 1.383 . S
C239 C238 1.383 . S
C239 C240 1.393 . S
C240 H205 0.931 . S
C240 C239 1.393 . S
C240 C241 1.382 . S
C241 H206 0.929 . S
C241 C236 1.371 . S
C241 C240 1.382 . S
C242 N210 1.423 . S
C242 C243 1.362 . S
C242 C247 1.388 . S
C243 H207 0.929 . S
C243 C242 1.362 . S
C243 C244 1.376 . S
C244 H208 0.931 . S
C244 C243 1.376 . S
C244 C245 1.396 . S
C245 C227 1.472 . S
C245 C244 1.396 . S
C245 C246 1.348 . S
C246 H209 0.929 . S
C246 C245 1.348 . S
C246 C247 1.443 . S
C247 H211 0.932 . S
C247 C242 1.388 . S
C247 C246 1.443 . S
H248 C275 0.929 . S
N249 C274 1.433 . S
N249 C280 1.435 . S
N249 C286 1.423 . S
H250 C276 0.930 . S
H251 C279 0.931 . S
H252 C278 0.929 . S
H253 C281 0.930 . S
H254 C282 0.932 . S
H255 C285 0.929 . S
H256 C284 0.931 . S
H257 C287 0.929 . S
H258 C291 0.932 . S
H259 C288 0.931 . S
H260 C290 0.929 . S
H261 C293 0.929 . S
H262 C294 0.930 . S
H263 C296 0.929 . S
H264 C297 0.931 . S
H265 C299 0.930 . S
H266 C300 0.932 . S
H267 C302 0.931 . S
H268 C303 0.929 . S
H269 C305 0.929 . S
H270 C306 0.931 . S
H271 C308 0.929 . S
N272 C292 1.433 . S
N272 C298 1.435 . S
N272 C304 1.423 . S
H273 C309 0.932 . S
C274 N249 1.433 . S
C274 C275 1.363 . S
C274 C279 1.370 . S
C275 H248 0.929 . S
C275 C274 1.363 . S
C275 C276 1.385 . S
C276 H250 0.930 . S
C276 C275 1.385 . S
C276 C277 1.357 . S
C277 C276 1.357 . S
C277 C278 1.406 . S
C278 H252 0.929 . S
C278 C277 1.406 . S
C278 C279 1.391 . S
C279 H251 0.931 . S
C279 C274 1.370 . S
C279 C278 1.391 . S
C280 N249 1.435 . S
C280 C281 1.358 . S
C280 C285 1.371 . S
C281 H253 0.930 . S
C281 C280 1.358 . S
C281 C282 1.405 . S
C282 H254 0.932 . S
C282 C281 1.405 . S
C282 C283 1.383 . S
C283 C282 1.383 . S
C283 C284 1.393 . S
C284 H256 0.931 . S
C284 C283 1.393 . S
C284 C285 1.382 . S
C285 H255 0.929 . S
C285 C280 1.371 . S
C285 C284 1.382 . S
C286 N249 1.423 . S
C286 C287 1.362 . S
C286 C291 1.388 . S
C287 H257 0.929 . S
C287 C286 1.362 . S
C287 C288 1.376 . S
C288 H259 0.931 . S
C288 C287 1.376 . S
C288 C289 1.396 . S
C289 C288 1.396 . S
C289 C290 1.348 . S
C289 C307 1.472 . S
C290 H260 0.929 . S
C290 C289 1.348 . S
C290 C291 1.443 . S
C291 H258 0.932 . S
C291 C286 1.388 . S
C291 C290 1.443 . S
C292 N272 1.433 . S
C292 C293 1.363 . S
C292 C297 1.370 . S
C293 H261 0.929 . S
C293 C292 1.363 . S
C293 C294 1.385 . S
C294 H262 0.930 . S
C294 C293 1.385 . S
C294 C295 1.357 . S
C295 C294 1.357 . S
C295 C296 1.406 . S
C296 H263 0.929 . S
C296 C295 1.406 . S
C296 C297 1.391 . S
C297 H264 0.931 . S
C297 C292 1.370 . S
C297 C296 1.391 . S
C298 N272 1.435 . S
C298 C299 1.358 . S
C298 C303 1.371 . S
C299 H265 0.930 . S
C299 C298 1.358 . S
C299 C300 1.405 . S
C300 H266 0.932 . S
C300 C299 1.405 . S
C300 C301 1.383 . S
C301 C300 1.383 . S
C301 C302 1.393 . S
C302 H267 0.931 . S
C302 C301 1.393 . S
C302 C303 1.382 . S
C303 H268 0.929 . S
C303 C298 1.371 . S
C303 C302 1.382 . S
C304 N272 1.423 . S
C304 C305 1.362 . S
C304 C309 1.388 . S
C305 H269 0.929 . S
C305 C304 1.362 . S
C305 C306 1.376 . S
C306 H270 0.931 . S
C306 C305 1.376 . S
C306 C307 1.396 . S
C307 C289 1.472 . S
C307 C306 1.396 . S
C307 C308 1.348 . S
C308 H271 0.929 . S
C308 C307 1.348 . S
C308 C309 1.443 . S
C309 H273 0.932 . S
C309 C304 1.388 . S
C309 C308 1.443 . S
H310 C337 0.929 . S
N311 C336 1.433 . S
N311 C342 1.435 . S
N311 C348 1.423 . S
H312 C338 0.930 . S
H313 C341 0.931 . S
H314 C340 0.929 . S
H315 C343 0.930 . S
H316 C344 0.932 . S
H317 C347 0.929 . S
H318 C346 0.931 . S
H319 C349 0.929 . S
H320 C353 0.932 . S
H321 C350 0.931 . S
H322 C352 0.929 . S
H323 C355 0.929 . S
H324 C356 0.930 . S
H325 C358 0.929 . S
H326 C359 0.931 . S
H327 C361 0.930 . S
H328 C362 0.932 . S
H329 C364 0.931 . S
H330 C365 0.929 . S
H331 C367 0.929 . S
H332 C368 0.931 . S
H333 C370 0.929 . S
N334 C354 1.433 . S
N334 C360 1.435 . S
N334 C366 1.423 . S
H335 C371 0.932 . S
C336 N311 1.433 . S
C336 C337 1.363 . S
C336 C341 1.370 . S
C337 H310 0.929 . S
C337 C336 1.363 . S
C337 C338 1.385 . S
C338 H312 0.930 . S
C338 C337 1.385 . S
C338 C339 1.357 . S
C339 C338 1.357 . S
C339 C340 1.406 . S
C340 H314 0.929 . S
C340 C339 1.406 . S
C340 C341 1.391 . S
C341 H313 0.931 . S
C341 C336 1.370 . S
C341 C340 1.391 . S
C342 N311 1.435 . S
C342 C343 1.358 . S
C342 C347 1.371 . S
C343 H315 0.930 . S
C343 C342 1.358 . S
C343 C344 1.405 . S
C344 H316 0.932 . S
C344 C343 1.405 . S
C344 C345 1.383 . S
C345 C344 1.383 . S
C345 C346 1.393 . S
C346 H318 0.931 . S
C346 C345 1.393 . S
C346 C347 1.382 . S
C347 H317 0.929 . S
C347 C342 1.371 . S
C347 C346 1.382 . S
C348 N311 1.423 . S
C348 C349 1.362 . S
C348 C353 1.388 . S
C349 H319 0.929 . S
C349 C348 1.362 . S
C349 C350 1.376 . S
C350 H321 0.931 . S
C350 C349 1.376 . S
C350 C351 1.396 . S
C351 C350 1.396 . S
C351 C352 1.348 . S
C351 C369 1.472 . S
C352 H322 0.929 . S
C352 C351 1.348 . S
C352 C353 1.443 . S
C353 H320 0.932 . S
C353 C348 1.388 . S
C353 C352 1.443 . S
C354 N334 1.433 . S
C354 C355 1.363 . S
C354 C359 1.370 . S
C355 H323 0.929 . S
C355 C354 1.363 . S
C355 C356 1.385 . S
C356 H324 0.930 . S
C356 C355 1.385 . S
C356 C357 1.357 . S
C357 C356 1.357 . S
C357 C358 1.406 . S
C358 H325 0.929 . S
C358 C357 1.406 . S
C358 C359 1.391 . S
C359 H326 0.931 . S
C359 C354 1.370 . S
C359 C358 1.391 . S
C360 N334 1.435 . S
C360 C361 1.358 . S
C360 C365 1.371 . S
C361 H327 0.930 . S
C361 C360 1.358 . S
C361 C362 1.405 . S
C362 H328 0.932 . S
C362 C361 1.405 . S
C362 C363 1.383 . S
C363 C362 1.383 . S
C363 C364 1.393 . S
C364 H329 0.931 . S
C364 C363 1.393 . S
C364 C365 1.382 . S
C365 H330 0.929 . S
C365 C360 1.371 . S
C365 C364 1.382 . S
C366 N334 1.423 . S
C366 C367 1.362 . S
C366 C371 1.388 . S
C367 H331 0.929 . S
C367 C366 1.362 . S
C367 C368 1.376 . S
C368 H332 0.931 . S
C368 C367 1.376 . S
C368 C369 1.396 . S
C369 C351 1.472 . S
C369 C368 1.396 . S
C369 C370 1.348 . S
C370 H333 0.929 . S
C370 C369 1.348 . S
C370 C371 1.443 . S
C371 H335 0.932 . S
C371 C366 1.388 . S
C371 C370 1.443 . S
H372 C399 0.929 . S
N373 C398 1.433 . S
N373 C404 1.435 . S
N373 C410 1.423 . S
H374 C400 0.930 . S
H375 C403 0.931 . S
H376 C402 0.929 . S
H377 C405 0.930 . S
H378 C406 0.932 . S
H379 C409 0.929 . S
H380 C408 0.931 . S
H381 C411 0.929 . S
H382 C415 0.932 . S
H383 C412 0.931 . S
H384 C414 0.929 . S
H385 C417 0.929 . S
H386 C418 0.930 . S
H387 C420 0.929 . S
H388 C421 0.931 . S
H389 C423 0.930 . S
H390 C424 0.932 . S
H391 C426 0.931 . S
H392 C427 0.929 . S
H393 C429 0.929 . S
H394 C430 0.931 . S
H395 C432 0.929 . S
N396 C416 1.433 . S
N396 C422 1.435 . S
N396 C428 1.423 . S
H397 C433 0.932 . S
C398 N373 1.433 . S
C398 C399 1.363 . S
C398 C403 1.370 . S
C399 H372 0.929 . S
C399 C398 1.363 . S
C399 C400 1.385 . S
C400 H374 0.930 . S
C400 C399 1.385 . S
C400 C401 1.357 . S
C401 C400 1.357 . S
C401 C402 1.406 . S
C402 H376 0.929 . S
C402 C401 1.406 . S
C402 C403 1.391 . S
C403 H375 0.931 . S
C403 C398 1.370 . S
C403 C402 1.391 . S
C404 N373 1.435 . S
C404 C405 1.358 . S
C404 C409 1.371 . S
C405 H377 0.930 . S
C405 C404 1.358 . S
C405 C406 1.405 . S
C406 H378 0.932 . S
C406 C405 1.405 . S
C406 C407 1.383 . S
C407 C406 1.383 . S
C407 C408 1.393 . S
C408 H380 0.931 . S
C408 C407 1.393 . S
C408 C409 1.382 . S
C409 H379 0.929 . S
C409 C404 1.371 . S
C409 C408 1.382 . S
C410 N373 1.423 . S
C410 C411 1.362 . S
C410 C415 1.388 . S
C411 H381 0.929 . S
C411 C410 1.362 . S
C411 C412 1.376 . S
C412 H383 0.931 . S
C412 C411 1.376 . S
C412 C413 1.396 . S
C413 C412 1.396 . S
C413 C414 1.348 . S
C413 C431 1.472 . S
C414 H384 0.929 . S
C414 C413 1.348 . S
C414 C415 1.443 . S
C415 H382 0.932 . S
C415 C410 1.388 . S
C415 C414 1.443 . S
C416 N396 1.433 . S
C416 C417 1.363 . S
C416 C421 1.370 . S
C417 H385 0.929 . S
C417 C416 1.363 . S
C417 C418 1.385 . S
C418 H386 0.930 . S
C418 C417 1.385 . S
C418 C419 1.357 . S
C419 C418 1.357 . S
C419 C420 1.406 . S
C420 H387 0.929 . S
C420 C419 1.406 . S
C420 C421 1.391 . S
C421 H388 0.931 . S
C421 C416 1.370 . S
C421 C420 1.391 . S
C422 N396 1.435 . S
C422 C423 1.358 . S
C422 C427 1.371 . S
C423 H389 0.930 . S
C423 C422 1.358 . S
C423 C424 1.405 . S
C424 H390 0.932 . S
C424 C423 1.405 . S
C424 C425 1.383 . S
C425 C424 1.383 . S
C425 C426 1.393 . S
C426 H391 0.931 . S
C426 C425 1.393 . S
C426 C427 1.382 . S
C427 H392 0.929 . S
C427 C422 1.371 . S
C427 C426 1.382 . S
C428 N396 1.423 . S
C428 C429 1.362 . S
C428 C433 1.388 . S
C429 H393 0.929 . S
C429 C428 1.362 . S
C429 C430 1.376 . S
C430 H394 0.931 . S
C430 C429 1.376 . S
C430 C431 1.396 . S
C431 C413 1.472 . S
C431 C430 1.396 . S
C431 C432 1.348 . S
C432 H395 0.929 . S
C432 C431 1.348 . S
C432 C433 1.443 . S
C433 H397 0.932 . S
C433 C428 1.388 . S
C433 C432 1.443 . S
H434 C461 0.929 . S
N435 C460 1.433 . S
N435 C466 1.435 . S
N435 C472 1.423 . S
H436 C462 0.930 . S
H437 C465 0.931 . S
H438 C464 0.929 . S
H439 C467 0.930 . S
H440 C468 0.932 . S
H441 C471 0.929 . S
H442 C470 0.931 . S
H443 C473 0.929 . S
H444 C477 0.932 . S
H445 C474 0.931 . S
H446 C476 0.929 . S
H447 C479 0.929 . S
H448 C480 0.930 . S
H449 C482 0.929 . S
H450 C483 0.931 . S
H451 C485 0.930 . S
H452 C486 0.932 . S
H453 C488 0.931 . S
H454 C489 0.929 . S
H455 C491 0.929 . S
H456 C492 0.931 . S
H457 C494 0.929 . S
N458 C478 1.433 . S
N458 C484 1.435 . S
N458 C490 1.423 . S
H459 C495 0.932 . S
C460 N435 1.433 . S
C460 C461 1.363 . S
C460 C465 1.370 . S
C461 H434 0.929 . S
C461 C460 1.363 . S
C461 C462 1.385 . S
C462 H436 0.930 . S
C462 C461 1.385 . S
C462 C463 1.357 . S
C463 C462 1.357 . S
C463 C464 1.406 . S
C464 H438 0.929 . S
C464 C463 1.406 . S
C464 C465 1.391 . S
C465 H437 0.931 . S
C465 C460 1.370 . S
C465 C464 1.391 . S
C466 N435 1.435 . S
C466 C467 1.358 . S
C466 C471 1.371 . S
C467 H439 0.930 . S
C467 C466 1.358 . S
C467 C468 1.405 . S
C468 H440 0.932 . S
C468 C467 1.405 . S
C468 C469 1.383 . S
C469 C468 1.383 . S
C469 C470 1.393 . S
C470 H442 0.931 . S
C470 C469 1.393 . S
C470 C471 1.382 . S
C471 H441 0.929 . S
C471 C466 1.371 . S
C471 C470 1.382 . S
C472 N435 1.423 . S
C472 C473 1.362 . S
C472 C477 1.388 . S
C473 H443 0.929 . S
C473 C472 1.362 . S
C473 C474 1.376 . S
C474 H445 0.931 . S
C474 C473 1.376 . S
C474 C475 1.396 . S
C475 C474 1.396 . S
C475 C476 1.348 . S
C475 C493 1.472 . S
C476 H446 0.929 . S
C476 C475 1.348 . S
C476 C477 1.443 . S
C477 H444 0.932 . S
C477 C472 1.388 . S
C477 C476 1.443 . S
C478 N458 1.433 . S
C478 C479 1.363 . S
C478 C483 1.370 . S
C479 H447 0.929 . S
C479 C478 1.363 . S
C479 C480 1.385 . S
C480 H448 0.930 . S
C480 C479 1.385 . S
C480 C481 1.357 . S
C481 C480 1.357 . S
C481 C482 1.406 . S
C482 H449 0.929 . S
C482 C481 1.406 . S
C482 C483 1.391 . S
C483 H450 0.931 . S
C483 C478 1.370 . S
C483 C482 1.391 . S
C484 N458 1.435 . S
C484 C485 1.358 . S
C484 C489 1.371 . S
C485 H451 0.930 . S
C485 C484 1.358 . S
C485 C486 1.405 . S
C486 H452 0.932 . S
C486 C485 1.405 . S
C486 C487 1.383 . S
C487 C486 1.383 . S
C487 C488 1.393 . S
C488 H453 0.931 . S
C488 C487 1.393 . S
C488 C489 1.382 . S
C489 H454 0.929 . S
C489 C484 1.371 . S
C489 C488 1.382 . S
C490 N458 1.423 . S
C490 C491 1.362 . S
C490 C495 1.388 . S
C491 H455 0.929 . S
C491 C490 1.362 . S
C491 C492 1.376 . S
C492 H456 0.931 . S
C492 C491 1.376 . S
C492 C493 1.396 . S
C493 C475 1.472 . S
C493 C492 1.396 . S
C493 C494 1.348 . S
C494 H457 0.929 . S
C494 C493 1.348 . S
C494 C495 1.443 . S
C495 H459 0.932 . S
C495 C490 1.388 . S
C495 C494 1.443 . S
C496 C497 1.443 . S
C496 N500 1.376 . S
C496 C534 1.389 . S
C497 C496 1.443 . S
C497 C498 1.340 . S
C497 H537 0.951 . S
C498 C497 1.340 . S
C498 C499 1.439 . S
C498 H538 0.950 . S
C499 C498 1.439 . S
C499 N500 1.374 . S
C499 C533 1.395 . S
N500 C496 1.376 . S
N500 C499 1.374 . S
N500 Co501 2.008 . S
Co501 N500 2.008 . S
Co501 N502 1.992 . S
Co501 N507 2.008 1_455 S
Co501 N512 1.995 . S
Co501 N517 2.282 1_455 S
Co501 N523 2.282 . S
N502 Co501 1.992 . S
N502 C503 1.375 . S
N502 C506 1.387 1_455 S
C503 N502 1.375 . S
C503 C504 1.446 1_455 S
C503 C533 1.391 . S
C504 C503 1.446 1_655 S
C504 C505 1.339 . S
C504 H539 0.949 . S
C505 C504 1.339 . S
C505 C506 1.439 . S
C505 H540 0.950 . S
C506 N502 1.387 1_655 S
C506 C505 1.439 . S
C506 C535 1.392 . S
N507 Co501 2.008 1_655 S
N507 C508 1.376 . S
N507 C511 1.374 . S
C508 N507 1.376 . S
C508 C509 1.443 . S
C508 C535 1.389 . S
C509 C508 1.443 . S
C509 C510 1.340 . S
C509 H541 0.951 . S
C510 C509 1.340 . S
C510 C511 1.439 . S
C510 H542 0.950 . S
C511 N507 1.374 . S
C511 C510 1.439 . S
C511 C536 1.395 1_655 S
N512 Co501 1.995 . S
N512 C513 1.376 . S
N512 C516 1.383 . S
C513 N512 1.376 . S
C513 C514 1.446 . S
C513 C536 1.391 . S
C514 C513 1.446 . S
C514 C515 1.339 . S
C514 H543 0.949 . S
C515 C514 1.339 . S
C515 C516 1.439 . S
C515 H544 0.950 . S
C516 N512 1.383 . S
C516 C515 1.439 . S
C516 C534 1.392 . S
N517 Co501 2.282 1_655 S
N517 C520 1.332 . S
N517 C522 1.332 . S
C518 C519 1.386 . S
C518 C521 1.388 . S
C519 C518 1.386 . S
C519 C520 1.382 . S
C519 H545 0.950 . S
C520 N517 1.332 . S
C520 C519 1.382 . S
C520 H531 0.952 . S
C521 C518 1.388 . S
C521 C522 1.382 . S
C521 H546 0.950 . S
C522 N517 1.332 . S
C522 C521 1.382 . S
C522 H532 0.948 . S
N523 Co501 2.282 . S
N523 C527 1.332 . S
N523 C528 1.332 . S
C524 C525 1.388 . S
C524 C528 1.382 . S
C524 H547 0.950 . S
C525 C524 1.388 . S
C525 C526 1.386 . S
C526 C525 1.386 . S
C526 C527 1.382 . S
C526 H548 0.950 . S
C527 N523 1.332 . S
C527 C526 1.382 . S
C527 H529 0.952 . S
C528 N523 1.332 . S
C528 C524 1.382 . S
C528 H530 0.948 . S
H529 C527 0.952 . S
H530 C528 0.948 . S
H531 C520 0.952 . S
H532 C522 0.948 . S
C533 C499 1.395 . S
C533 C503 1.391 . S
C534 C496 1.389 . S
C534 C516 1.392 . S
C535 C506 1.392 . S
C535 C508 1.389 . S
C536 C511 1.395 1_455 S
C536 C513 1.391 . S
H537 C497 0.951 . S
H538 C498 0.950 . S
H539 C504 0.949 . S
H540 C505 0.950 . S
H541 C509 0.951 . S
H542 C510 0.950 . S
H543 C514 0.949 . S
H544 C515 0.950 . S
H545 C519 0.950 . S
H546 C521 0.950 . S
H547 C524 0.950 . S
H548 C526 0.950 . S
C549 C550 1.443 . S
C549 N553 1.376 . S
C549 C587 1.389 . S
C550 C549 1.443 . S
C550 C551 1.340 . S
C550 H590 0.951 . S
C551 C550 1.340 . S
C551 C552 1.439 . S
C551 H591 0.950 . S
C552 C551 1.439 . S
C552 N553 1.374 . S
C552 C586 1.395 . S
N553 C549 1.376 . S
N553 C552 1.374 . S
N553 Co554 2.008 . S
Co554 N553 2.008 . S
Co554 N555 2.032 . S
Co554 N560 1.971 1_545 S
Co554 N565 1.995 . S
Co554 N570 2.282 1_545 S
Co554 N576 2.282 . S
N555 Co554 2.032 . S
N555 C556 1.389 . S
N555 C559 1.323 1_545 S
C556 N555 1.389 . S
C556 C557 1.446 1_545 S
C556 C586 1.391 . S
C557 C556 1.446 1_565 S
C557 C558 1.339 . S
C557 H592 0.949 . S
C558 C557 1.339 . S
C558 C559 1.439 . S
C558 H593 0.950 . S
C559 N555 1.323 1_565 S
C559 C558 1.439 . S
C559 C588 1.392 . S
N560 Co554 1.971 1_565 S
N560 C561 1.432 . S
N560 C564 1.374 . S
C561 N560 1.432 . S
C561 C562 1.443 . S
C561 C588 1.389 . S
C562 C561 1.443 . S
C562 C563 1.340 . S
C562 H594 0.951 . S
C563 C562 1.340 . S
C563 C564 1.470 . S
C563 H595 0.950 . S
C564 N560 1.374 . S
C564 C563 1.470 . S
C564 C589 1.370 1_565 S
N565 Co554 1.995 . S
N565 C566 1.376 . S
N565 C569 1.383 . S
C566 N565 1.376 . S
C566 C567 1.446 . S
C566 C589 1.391 . S
C567 C566 1.446 . S
C567 C568 1.339 . S
C567 H596 0.949 . S
C568 C567 1.339 . S
C568 C569 1.439 . S
C568 H597 0.950 . S
C569 N565 1.383 . S
C569 C568 1.439 . S
C569 C587 1.392 . S
N570 Co554 2.282 1_565 S
N570 C573 1.332 . S
N570 C575 1.332 . S
C571 C572 1.386 . S
C571 C574 1.388 . S
C572 C571 1.386 . S
C572 C573 1.382 . S
C572 H598 0.950 . S
C573 N570 1.332 . S
C573 C572 1.382 . S
C573 H584 0.952 . S
C574 C571 1.388 . S
C574 C575 1.382 . S
C574 H599 0.950 . S
C575 N570 1.332 . S
C575 C574 1.382 . S
C575 H585 0.948 . S
N576 Co554 2.282 . S
N576 C580 1.332 . S
N576 C581 1.332 . S
C577 C578 1.388 . S
C577 C581 1.382 . S
C577 H600 0.950 . S
C578 C577 1.388 . S
C578 C579 1.386 . S
C579 C578 1.386 . S
C579 C580 1.382 . S
C579 H601 0.950 . S
C580 N576 1.332 . S
C580 C579 1.382 . S
C580 H582 0.952 . S
C581 N576 1.332 . S
C581 C577 1.382 . S
C581 H583 0.948 . S
H582 C580 0.952 . S
H583 C581 0.948 . S
H584 C573 0.952 . S
H585 C575 0.948 . S
C586 C552 1.395 . S
C586 C556 1.391 . S
C587 C549 1.389 . S
C587 C569 1.392 . S
C588 C559 1.392 . S
C588 C561 1.389 . S
C589 C564 1.370 1_545 S
C589 C566 1.391 . S
H590 C550 0.951 . S
H591 C551 0.950 . S
H592 C557 0.949 . S
H593 C558 0.950 . S
H594 C562 0.951 . S
H595 C563 0.950 . S
H596 C567 0.949 . S
H597 C568 0.950 . S
H598 C572 0.950 . S
H599 C574 0.950 . S
H600 C577 0.950 . S
H601 C579 0.950 . S
C602 C603 1.443 . S
C602 N606 1.376 . S
C602 C640 1.389 . S
C603 C602 1.443 . S
C603 C604 1.340 . S
C603 H643 0.951 . S
C604 C603 1.340 . S
C604 C605 1.439 . S
C604 H644 0.950 . S
C605 C604 1.439 . S
C605 N606 1.374 . S
C605 C639 1.395 . S
N606 C602 1.376 . S
N606 C605 1.374 . S
N606 Co607 2.008 . S
Co607 N606 2.008 . S
Co607 N608 1.995 1_455 S
Co607 N613 2.008 1_455 S
Co607 N618 1.995 . S
Co607 N623 2.282 1_455 S
Co607 N629 2.282 . S
N608 Co607 1.995 1_655 S
N608 C609 1.370 1_655 S
N608 C612 1.383 . S
C609 N608 1.370 1_455 S
C609 C610 1.405 1_455 S
C609 C639 1.433 . S
C610 C609 1.405 1_655 S
C610 C611 1.339 . S
C610 H645 0.949 . S
C611 C610 1.339 . S
C611 C612 1.439 . S
C611 H646 0.950 . S
C612 N608 1.383 . S
C612 C611 1.439 . S
C612 C641 1.392 . S
N613 Co607 2.008 1_655 S
N613 C614 1.376 . S
N613 C617 1.374 . S
C614 N613 1.376 . S
C614 C615 1.443 . S
C614 C641 1.389 . S
C615 C614 1.443 . S
C615 C616 1.340 . S
C615 H647 0.951 . S
C616 C615 1.340 . S
C616 C617 1.439 . S
C616 H648 0.950 . S
C617 N613 1.374 . S
C617 C616 1.439 . S
C617 C642 1.395 1_655 S
N618 Co607 1.995 . S
N618 C619 1.376 . S
N618 C622 1.383 . S
C619 N618 1.376 . S
C619 C620 1.446 . S
C619 C642 1.391 . S
C620 C619 1.446 . S
C620 C621 1.339 . S
C620 H649 0.949 . S
C621 C620 1.339 . S
C621 C622 1.439 . S
C621 H650 0.950 . S
C622 N618 1.383 . S
C622 C621 1.439 . S
C622 C640 1.392 . S
N623 Co607 2.282 1_655 S
N623 C626 1.332 . S
N623 C628 1.332 . S
C624 C625 1.386 . S
C624 C627 1.388 . S
C625 C624 1.386 . S
C625 C626 1.382 . S
C625 H651 0.950 . S
C626 N623 1.332 . S
C626 C625 1.382 . S
C626 H637 0.952 . S
C627 C624 1.388 . S
C627 C628 1.382 . S
C627 H652 0.950 . S
C628 N623 1.332 . S
C628 C627 1.382 . S
C628 H638 0.948 . S
N629 Co607 2.282 . S
N629 C633 1.332 . S
N629 C634 1.332 . S
C630 C631 1.388 . S
C630 C634 1.382 . S
C630 H653 0.950 . S
C631 C630 1.388 . S
C631 C632 1.386 . S
C632 C631 1.386 . S
C632 C633 1.382 . S
C632 H654 0.950 . S
C633 N629 1.332 . S
C633 C632 1.382 . S
C633 H635 0.952 . S
C634 N629 1.332 . S
C634 C630 1.382 . S
C634 H636 0.948 . S
H635 C633 0.952 . S
H636 C634 0.948 . S
H637 C626 0.952 . S
H638 C628 0.948 . S
C639 C605 1.395 . S
C639 C609 1.433 . S
C640 C602 1.389 . S
C640 C622 1.392 . S
C641 C612 1.392 . S
C641 C614 1.389 . S
C642 C617 1.395 1_455 S
C642 C619 1.391 . S
H643 C603 0.951 . S
H644 C604 0.950 . S
H645 C610 0.949 . S
H646 C611 0.950 . S
H647 C615 0.951 . S
H648 C616 0.950 . S
H649 C620 0.949 . S
H650 C621 0.950 . S
H651 C625 0.950 . S
H652 C627 0.950 . S
H653 C630 0.950 . S
H654 C632 0.950 . S
C655 C656 1.443 . S
C655 N659 1.371 . S
C655 C693 1.389 . S
C656 C655 1.443 . S
C656 C657 1.340 . S
C656 H696 0.951 . S
C657 C656 1.340 . S
C657 C658 1.415 1_565 S
C657 H697 0.950 . S
C658 C657 1.415 1_545 S
C658 N659 1.373 1_545 S
C658 C692 1.416 . S
N659 C655 1.371 . S
N659 C658 1.373 1_565 S
N659 Co660 2.012 1_565 S
Co660 N659 2.012 1_545 S
Co660 N661 1.995 . S
Co660 N666 2.008 . S
Co660 N671 1.995 . S
Co660 N676 2.282 . S
Co660 N682 2.282 1_545 S
N661 Co660 1.995 . S
N661 C662 1.376 . S
N661 C665 1.383 . S
C662 N661 1.376 . S
C662 C663 1.446 . S
C662 C692 1.391 . S
C663 C662 1.446 . S
C663 C664 1.339 . S
C663 H698 0.949 . S
C664 C663 1.339 . S
C664 C665 1.439 . S
C664 H699 0.950 . S
C665 N661 1.383 . S
C665 C664 1.439 . S
C665 C694 1.392 . S
N666 Co660 2.008 . S
N666 C667 1.376 . S
N666 C670 1.374 . S
C667 N666 1.376 . S
C667 C668 1.443 . S
C667 C694 1.389 . S
C668 C667 1.443 . S
C668 C669 1.340 . S
C668 H700 0.951 . S
C669 C668 1.340 . S
C669 C670 1.439 . S
C669 H701 0.950 . S
C670 N666 1.374 . S
C670 C669 1.439 . S
C670 C695 1.395 . S
N671 Co660 1.995 . S
N671 C672 1.376 . S
N671 C675 1.383 1_545 S
C672 N671 1.376 . S
C672 C673 1.446 1_545 S
C672 C695 1.391 . S
C673 C672 1.446 1_565 S
C673 C674 1.339 . S
C673 H702 0.949 . S
C674 C673 1.339 . S
C674 C675 1.439 . S
C674 H703 0.950 . S
C675 N671 1.383 1_565 S
C675 C674 1.439 . S
C675 C693 1.392 . S
N676 Co660 2.282 . S
N676 C679 1.332 . S
N676 C681 1.332 . S
C677 C678 1.386 . S
C677 C680 1.388 . S
C678 C677 1.386 . S
C678 C679 1.382 . S
C678 H704 0.950 . S
C679 N676 1.332 . S
C679 C678 1.382 . S
C679 H690 0.952 . S
C680 C677 1.388 . S
C680 C681 1.382 . S
C680 H705 0.950 . S
C681 N676 1.332 . S
C681 C680 1.382 . S
C681 H691 0.948 . S
N682 Co660 2.282 1_565 S
N682 C686 1.332 . S
N682 C687 1.332 . S
C683 C684 1.388 . S
C683 C687 1.382 . S
C683 H706 0.950 . S
C684 C683 1.388 . S
C684 C685 1.386 . S
C685 C684 1.386 . S
C685 C686 1.382 . S
C685 H707 0.950 . S
C686 N682 1.332 . S
C686 C685 1.382 . S
C686 H688 0.952 . S
C687 N682 1.332 . S
C687 C683 1.382 . S
C687 H689 0.948 . S
H688 C686 0.952 . S
H689 C687 0.948 . S
H690 C679 0.952 . S
H691 C681 0.948 . S
C692 C658 1.416 . S
C692 C662 1.391 . S
C693 C655 1.389 . S
C693 C675 1.392 . S
C694 C665 1.392 . S
C694 C667 1.389 . S
C695 C670 1.395 . S
C695 C672 1.391 . S
H696 C656 0.951 . S
H697 C657 0.950 . S
H698 C663 0.949 . S
H699 C664 0.950 . S
H700 C668 0.951 . S
H701 C669 0.950 . S
H702 C673 0.949 . S
H703 C674 0.950 . S
H704 C678 0.950 . S
H705 C680 0.950 . S
H706 C683 0.950 . S
H707 C685 0.950 . S
C708 C709 1.443 . S
C708 N712 1.376 . S
C708 C746 1.389 . S
C709 C708 1.443 . S
C709 C710 1.340 . S
C709 H749 0.951 . S
C710 C709 1.340 . S
C710 C711 1.439 . S
C710 H750 0.950 . S
C711 C710 1.439 . S
C711 N712 1.374 . S
C711 C745 1.395 1_554 S
N712 C708 1.376 . S
N712 C711 1.374 . S
N712 Co713 2.023 . S
Co713 N712 2.023 . S
Co713 N714 1.977 1_554 S
Co713 N719 1.994 1_554 S
Co713 N724 2.013 . S
Co713 N729 2.308 . S
Co713 N735 2.257 1_554 S
N714 Co713 1.977 1_556 S
N714 C715 1.376 . S
N714 C718 1.383 . S
C715 N714 1.376 . S
C715 C716 1.446 . S
C715 C745 1.391 . S
C716 C715 1.446 . S
C716 C717 1.339 . S
C716 H751 0.949 . S
C717 C716 1.339 . S
C717 C718 1.439 . S
C717 H752 0.950 . S
C718 N714 1.383 . S
C718 C717 1.439 . S
C718 C747 1.392 . S
N719 Co713 1.994 1_556 S
N719 C720 1.376 . S
N719 C723 1.374 . S
C720 N719 1.376 . S
C720 C721 1.443 . S
C720 C747 1.389 . S
C721 C720 1.443 . S
C721 C722 1.340 . S
C721 H753 0.951 . S
C722 C721 1.340 . S
C722 C723 1.439 . S
C722 H754 0.950 . S
C723 N719 1.374 . S
C723 C722 1.439 . S
C723 C748 1.395 1_556 S
N724 Co713 2.013 . S
N724 C725 1.376 . S
N724 C728 1.383 . S
C725 N724 1.376 . S
C725 C726 1.446 . S
C725 C748 1.391 . S
C726 C725 1.446 . S
C726 C727 1.339 . S
C726 H755 0.949 . S
C727 C726 1.339 . S
C727 C728 1.439 . S
C727 H756 0.950 . S
C728 N724 1.383 . S
C728 C727 1.439 . S
C728 C746 1.392 . S
N729 Co713 2.308 . S
N729 C732 1.332 . S
N729 C734 1.332 . S
C730 C731 1.386 . S
C730 C733 1.388 . S
C731 C730 1.386 . S
C731 C732 1.382 . S
C731 H757 0.950 . S
C732 N729 1.332 . S
C732 C731 1.382 . S
C732 H743 0.952 . S
C733 C730 1.388 . S
C733 C734 1.382 . S
C733 H758 0.950 . S
C734 N729 1.332 . S
C734 C733 1.382 . S
C734 H744 0.948 . S
N735 Co713 2.257 1_556 S
N735 C739 1.332 . S
N735 C740 1.332 . S
C736 C737 1.388 . S
C736 C740 1.382 . S
C736 H759 0.950 . S
C737 C736 1.388 . S
C737 C738 1.386 . S
C738 C737 1.386 . S
C738 C739 1.382 . S
C738 H760 0.950 . S
C739 N735 1.332 . S
C739 C738 1.382 . S
C739 H741 0.952 . S
C740 N735 1.332 . S
C740 C736 1.382 . S
C740 H742 0.948 . S
H741 C739 0.952 . S
H742 C740 0.948 . S
H743 C732 0.952 . S
H744 C734 0.948 . S
C745 C711 1.395 1_556 S
C745 C715 1.391 . S
C746 C708 1.389 . S
C746 C728 1.392 . S
C747 C718 1.392 . S
C747 C720 1.389 . S
C748 C723 1.395 1_554 S
C748 C725 1.391 . S
H749 C709 0.951 . S
H750 C710 0.950 . S
H751 C716 0.949 . S
H752 C717 0.950 . S
H753 C721 0.951 . S
H754 C722 0.950 . S
H755 C726 0.949 . S
H756 C727 0.950 . S
H757 C731 0.950 . S
H758 C733 0.950 . S
H759 C736 0.950 . S
H760 C738 0.950 . S
C761 C762 1.443 . S
C761 N765 1.376 . S
C761 C799 1.389 . S
C762 C761 1.443 . S
C762 C763 1.340 . S
C762 H802 0.951 . S
C763 C762 1.340 . S
C763 C764 1.439 . S
C763 H803 0.950 . S
C764 C763 1.439 . S
C764 N765 1.374 . S
C764 C798 1.395 . S
N765 C761 1.376 . S
N765 C764 1.374 . S
N765 Co766 2.008 . S
Co766 N765 2.008 . S
Co766 N767 1.995 . S
Co766 N772 2.008 . S
Co766 N777 1.995 . S
Co766 N782 2.282 . S
Co766 N788 2.282 . S
N767 Co766 1.995 . S
N767 C768 1.376 . S
N767 C771 1.366 1_554 S
C768 N767 1.376 . S
C768 C769 1.446 1_554 S
C768 C798 1.391 . S
C769 C768 1.446 1_556 S
C769 C770 1.339 . S
C769 H804 0.949 . S
C770 C769 1.339 . S
C770 C771 1.449 . S
C770 H805 0.950 . S
C771 N767 1.366 1_556 S
C771 C770 1.449 . S
C771 C800 1.397 . S
N772 Co766 2.008 . S
N772 C773 1.376 . S
N772 C776 1.374 . S
C773 N772 1.376 . S
C773 C774 1.443 . S
C773 C800 1.389 1_554 S
C774 C773 1.443 . S
C774 C775 1.340 . S
C774 H806 0.951 1_554 S
C775 C774 1.340 . S
C775 C776 1.439 . S
C775 H807 0.950 . S
C776 N772 1.374 . S
C776 C775 1.439 . S
C776 C801 1.395 . S
N777 Co766 1.995 . S
N777 C778 1.376 . S
N777 C781 1.383 . S
C778 N777 1.376 . S
C778 C779 1.446 . S
C778 C801 1.391 . S
C779 C778 1.446 . S
C779 C780 1.339 . S
C779 H808 0.949 . S
C780 C779 1.339 . S
C780 C781 1.439 . S
C780 H809 0.950 . S
C781 N777 1.383 . S
C781 C780 1.439 . S
C781 C799 1.392 . S
N782 Co766 2.282 . S
N782 C785 1.332 . S
N782 C787 1.332 . S
C783 C784 1.386 . S
C783 C786 1.388 . S
C784 C783 1.386 . S
C784 C785 1.382 . S
C784 H810 0.950 . S
C785 N782 1.332 . S
C785 C784 1.382 . S
C785 H796 0.952 . S
C786 C783 1.388 . S
C786 C787 1.382 . S
C786 H811 0.950 . S
C787 N782 1.332 . S
C787 C786 1.382 . S
C787 H797 0.948 . S
N788 Co766 2.282 . S
N788 C792 1.332 1_554 S
N788 C793 1.332 . S
C789 C790 1.388 . S
C789 C793 1.382 1_556 S
C789 H812 0.950 . S
C790 C789 1.388 . S
C790 C791 1.386 . S
C791 C790 1.386 . S
C791 C792 1.382 . S
C791 H813 0.950 . S
C792 N788 1.332 1_556 S
C792 C791 1.382 . S
C792 H794 0.952 . S
C793 N788 1.332 . S
C793 C789 1.382 1_554 S
C793 H795 0.948 . S
H794 C792 0.952 . S
H795 C793 0.948 . S
H796 C785 0.952 . S
H797 C787 0.948 . S
C798 C764 1.395 . S
C798 C768 1.391 . S
C799 C761 1.389 . S
C799 C781 1.392 . S
C800 C771 1.397 . S
C800 C773 1.389 1_556 S
C801 C776 1.395 . S
C801 C778 1.391 . S
H802 C762 0.951 . S
H803 C763 0.950 . S
H804 C769 0.949 . S
H805 C770 0.950 . S
H806 C774 0.951 1_556 S
H807 C775 0.950 . S
H808 C779 0.949 . S
H809 C780 0.950 . S
H810 C784 0.950 . S
H811 C786 0.950 . S
H812 C789 0.950 . S
H813 C791 0.950 . S
C814 C815 1.443 . S
C814 N818 1.376 1_556 S
C814 C852 1.389 . S
C815 C814 1.443 . S
C815 C816 1.340 1_556 S
C815 H855 0.951 . S
C816 C815 1.340 1_554 S
C816 C817 1.439 . S
C816 H856 0.950 . S
C817 C816 1.439 . S
C817 N818 1.374 . S
C817 C851 1.395 . S
N818 C814 1.376 1_554 S
N818 C817 1.374 . S
N818 Co819 2.008 . S
Co819 N818 2.008 . S
Co819 N820 1.995 . S
Co819 N825 2.008 . S
Co819 N830 1.995 . S
Co819 N835 2.282 1_554 S
Co819 N841 2.282 . S
N820 Co819 1.995 . S
N820 C821 1.376 . S
N820 C824 1.383 . S
C821 N820 1.376 . S
C821 C822 1.446 . S
C821 C851 1.391 . S
C822 C821 1.446 . S
C822 C823 1.339 . S
C822 H857 0.949 . S
C823 C822 1.339 . S
C823 C824 1.439 . S
C823 H858 0.950 . S
C824 N820 1.383 . S
C824 C823 1.439 . S
C824 C853 1.392 . S
N825 Co819 2.008 . S
N825 C826 1.376 . S
N825 C829 1.374 . S
C826 N825 1.376 . S
C826 C827 1.443 . S
C826 C853 1.389 . S
C827 C826 1.443 . S
C827 C828 1.340 . S
C827 H859 0.951 . S
C828 C827 1.340 . S
C828 C829 1.439 . S
C828 H860 0.950 . S
C829 N825 1.374 . S
C829 C828 1.439 . S
C829 C854 1.395 . S
N830 Co819 1.995 . S
N830 C831 1.376 . S
N830 C834 1.383 1_554 S
C831 N830 1.376 . S
C831 C832 1.446 1_554 S
C831 C854 1.391 . S
C832 C831 1.446 1_556 S
C832 C833 1.339 . S
C832 H861 0.949 . S
C833 C832 1.339 . S
C833 C834 1.439 . S
C833 H862 0.950 . S
C834 N830 1.383 1_556 S
C834 C833 1.439 . S
C834 C852 1.392 . S
N835 Co819 2.282 1_556 S
N835 C838 1.332 . S
N835 C840 1.332 . S
C836 C837 1.386 . S
C836 C839 1.388 . S
C837 C836 1.386 . S
C837 C838 1.382 . S
C837 H863 0.950 . S
C838 N835 1.332 . S
C838 C837 1.382 . S
C838 H849 0.952 . S
C839 C836 1.388 . S
C839 C840 1.382 . S
C839 H864 0.950 . S
C840 N835 1.332 . S
C840 C839 1.382 . S
C840 H850 0.948 1_556 S
N841 Co819 2.282 . S
N841 C845 1.332 . S
N841 C846 1.332 . S
C842 C843 1.388 . S
C842 C846 1.382 . S
C842 H865 0.950 . S
C843 C842 1.388 . S
C843 C844 1.386 . S
C844 C843 1.386 . S
C844 C845 1.382 . S
C844 H866 0.950 . S
C845 N841 1.332 . S
C845 C844 1.382 . S
C845 H847 0.952 . S
C846 N841 1.332 . S
C846 C842 1.382 . S
C846 H848 0.948 . S
H847 C845 0.952 . S
H848 C846 0.948 . S
H849 C838 0.952 . S
H850 C840 0.948 1_554 S
C851 C817 1.395 . S
C851 C821 1.391 . S
C852 C814 1.389 . S
C852 C834 1.392 . S
C853 C824 1.392 . S
C853 C826 1.389 . S
C854 C829 1.395 . S
C854 C831 1.391 . S
H855 C815 0.951 . S
H856 C816 0.950 . S
H857 C822 0.949 . S
H858 C823 0.950 . S
H859 C827 0.951 . S
H860 C828 0.950 . S
H861 C832 0.949 . S
H862 C833 0.950 . S
H863 C837 0.950 . S
H864 C839 0.950 . S
H865 C842 0.950 . S
H866 C844 0.950 . S
C867 C868 1.443 . S
C867 N871 1.376 . S
C867 C905 1.389 . S
C868 C867 1.443 . S
C868 C869 1.340 . S
C868 H908 0.951 . S
C869 C868 1.340 . S
C869 C870 1.439 . S
C869 H909 0.950 . S
C870 C869 1.439 . S
C870 N871 1.374 . S
C870 C904 1.395 . S
N871 C867 1.376 . S
N871 C870 1.374 . S
N871 Co872 2.008 . S
Co872 N871 2.008 . S
Co872 N873 1.995 . S
Co872 N878 2.008 . S
Co872 N883 1.995 . S
Co872 N888 2.282 . S
Co872 N894 2.282 1_554 S
N873 Co872 1.995 . S
N873 C874 1.376 . S
N873 C877 1.383 1_554 S
C874 N873 1.376 . S
C874 C875 1.446 1_554 S
C874 C904 1.391 . S
C875 C874 1.446 1_556 S
C875 C876 1.339 . S
C875 H910 0.949 . S
C876 C875 1.339 . S
C876 C877 1.439 . S
C876 H911 0.950 . S
C877 N873 1.383 1_556 S
C877 C876 1.439 . S
C877 C906 1.392 . S
N878 Co872 2.008 . S
N878 C879 1.376 1_554 S
N878 C882 1.374 . S
C879 N878 1.376 1_556 S
C879 C880 1.443 . S
C879 C906 1.389 . S
C880 C879 1.443 . S
C880 C881 1.340 1_556 S
C880 H912 0.951 . S
C881 C880 1.340 1_554 S
C881 C882 1.439 . S
C881 H913 0.950 . S
C882 N878 1.374 . S
C882 C881 1.439 . S
C882 C907 1.395 . S
N883 Co872 1.995 . S
N883 C884 1.376 . S
N883 C887 1.383 . S
C884 N883 1.376 . S
C884 C885 1.446 . S
C884 C907 1.391 . S
C885 C884 1.446 . S
C885 C886 1.339 . S
C885 H914 0.949 . S
C886 C885 1.339 . S
C886 C887 1.439 . S
C886 H915 0.950 . S
C887 N883 1.383 . S
C887 C886 1.439 . S
C887 C905 1.392 . S
N888 Co872 2.282 . S
N888 C891 1.332 . S
N888 C893 1.332 . S
C889 C890 1.386 . S
C889 C892 1.388 . S
C890 C889 1.386 . S
C890 C891 1.382 . S
C890 H916 0.950 . S
C891 N888 1.332 . S
C891 C890 1.382 . S
C891 H902 0.952 . S
C892 C889 1.388 . S
C892 C893 1.382 . S
C892 H917 0.950 . S
C893 N888 1.332 . S
C893 C892 1.382 . S
C893 H903 0.948 . S
N894 Co872 2.282 1_556 S
N894 C898 1.332 . S
N894 C899 1.332 . S
C895 C896 1.388 . S
C895 C899 1.382 . S
C895 H918 0.950 . S
C896 C895 1.388 . S
C896 C897 1.386 . S
C897 C896 1.386 . S
C897 C898 1.382 . S
C897 H919 0.950 . S
C898 N894 1.332 . S
C898 C897 1.382 . S
C898 H900 0.952 . S
C899 N894 1.332 . S
C899 C895 1.382 . S
C899 H901 0.948 1_556 S
H900 C898 0.952 . S
H901 C899 0.948 1_554 S
H902 C891 0.952 . S
H903 C893 0.948 . S
C904 C870 1.395 . S
C904 C874 1.391 . S
C905 C867 1.389 . S
C905 C887 1.392 . S
C906 C877 1.392 . S
C906 C879 1.389 . S
C907 C882 1.395 . S
C907 C884 1.391 . S
H908 C868 0.951 . S
H909 C869 0.950 . S
H910 C875 0.949 . S
H911 C876 0.950 . S
H912 C880 0.951 . S
H913 C881 0.950 . S
H914 C885 0.949 . S
H915 C886 0.950 . S
H916 C890 0.950 . S
H917 C892 0.950 . S
H918 C895 0.950 . S
H919 C897 0.950 . S
H920 C928 0.929 . S
H921 C930 0.930 . S
H922 C932 0.930 . S
H923 C935 0.929 . S
H924 C938 0.930 . S
H925 C940 0.960 . S
H926 C940 0.960 . S
H927 C940 0.960 . S
C928 H920 0.929 . S
C928 C929 1.377 . S
C928 C930 1.384 . S
C929 C928 1.377 . S
C929 C935 1.390 . S
C930 H921 0.930 . S
C930 C928 1.384 . S
C930 C931 1.372 . S
C931 C930 1.372 . S
C931 C932 1.400 . S
C931 C936 1.490 . S
C932 H922 0.930 . S
C932 C931 1.400 . S
C932 C935 1.386 . S
H933 C949 0.930 . S
H934 C950 0.931 . S
C935 H923 0.929 . S
C935 C929 1.390 . S
C935 C932 1.386 . S
C936 C931 1.490 . S
C936 C938 1.395 . S
C936 C939 1.403 . S
H937 C943 0.930 . S
C938 H924 0.930 . S
C938 C936 1.395 . S
C938 C941 1.403 . S
C939 C936 1.403 . S
C939 C940 1.524 . S
C939 C943 1.400 . S
C940 H925 0.960 . S
C940 H926 0.960 . S
C940 H927 0.960 . S
C940 C939 1.524 . S
C941 C938 1.403 . S
C941 C942 1.392 . S
C941 C945 1.495 . S
C942 C941 1.392 . S
C942 C943 1.385 . S
C942 C944 1.478 . S
C943 H937 0.930 . S
C943 C939 1.400 . S
C943 C942 1.385 . S
C944 C942 1.478 . S
C944 C946 1.381 . S
C944 C950 1.383 . S
C945 C941 1.495 . S
C945 H951 0.959 . S
C945 H952 0.961 . S
C945 H953 0.960 . S
C946 C944 1.381 . S
C946 C947 1.394 . S
C946 H954 0.930 . S
C947 C946 1.394 . S
C947 C948 1.383 . S
C947 H955 0.929 . S
C948 C947 1.383 . S
C948 C949 1.377 . S
C949 H933 0.930 . S
C949 C948 1.377 . S
C949 C950 1.379 . S
C950 H934 0.931 . S
C950 C944 1.383 . S
C950 C949 1.379 . S
H951 C945 0.959 . S
H952 C945 0.961 . S
H953 C945 0.960 . S
H954 C946 0.930 . S
H955 C947 0.929 . S
H956 C964 0.929 . S
H957 C966 0.930 . S
H958 C968 0.930 . S
H959 C971 0.929 . S
H960 C974 0.930 . S
H961 C976 0.960 . S
H962 C976 0.960 . S
H963 C976 0.960 . S
C964 H956 0.929 . S
C964 C965 1.377 . S
C964 C966 1.384 . S
C965 C964 1.377 . S
C965 C971 1.390 . S
C966 H957 0.930 . S
C966 C964 1.384 . S
C966 C967 1.372 . S
C967 C966 1.372 . S
C967 C968 1.400 . S
C967 C972 1.490 . S
C968 H958 0.930 . S
C968 C967 1.400 . S
C968 C971 1.386 . S
H969 C985 0.930 . S
H970 C986 0.931 . S
C971 H959 0.929 . S
C971 C965 1.390 . S
C971 C968 1.386 . S
C972 C967 1.490 . S
C972 C974 1.395 . S
C972 C975 1.403 . S
H973 C979 0.930 . S
C974 H960 0.930 . S
C974 C972 1.395 . S
C974 C977 1.403 . S
C975 C972 1.403 . S
C975 C976 1.524 . S
C975 C979 1.400 . S
C976 H961 0.960 . S
C976 H962 0.960 . S
C976 H963 0.960 . S
C976 C975 1.524 . S
C977 C974 1.403 . S
C977 C978 1.392 . S
C977 C981 1.495 . S
C978 C977 1.392 . S
C978 C979 1.385 . S
C978 C980 1.478 . S
C979 H973 0.930 . S
C979 C975 1.400 . S
C979 C978 1.385 . S
C980 C978 1.478 . S
C980 C982 1.381 . S
C980 C986 1.383 . S
C981 C977 1.495 . S
C981 H987 0.959 . S
C981 H988 0.961 . S
C981 H989 0.960 . S
C982 C980 1.381 . S
C982 C983 1.394 . S
C982 H990 0.930 . S
C983 C982 1.394 . S
C983 C984 1.383 . S
C983 H991 0.929 . S
C984 C983 1.383 . S
C984 C985 1.377 . S
C985 H969 0.930 . S
C985 C984 1.377 . S
C985 C986 1.379 . S
C986 H970 0.931 . S
C986 C980 1.383 . S
C986 C985 1.379 . S
H987 C981 0.959 . S
H988 C981 0.961 . S
H989 C981 0.960 . S
H990 C982 0.930 . S
H991 C983 0.929 . S
H992 C1000 0.929 . S
H993 C1002 0.930 . S
H994 C1004 0.930 . S
H995 C1007 0.929 . S
H996 C1010 0.930 . S
H997 C1012 0.960 . S
H998 C1012 0.960 . S
H999 C1012 0.960 . S
C1000 H992 0.929 . S
C1000 C1001 1.377 . S
C1000 C1002 1.384 . S
C1001 C1000 1.377 . S
C1001 C1007 1.390 . S
C1002 H993 0.930 . S
C1002 C1000 1.384 . S
C1002 C1003 1.372 . S
C1003 C1002 1.372 . S
C1003 C1004 1.400 . S
C1003 C1008 1.490 . S
C1004 H994 0.930 . S
C1004 C1003 1.400 . S
C1004 C1007 1.386 . S
H1005 C1021 0.930 . S
H1006 C1022 0.931 . S
C1007 H995 0.929 . S
C1007 C1001 1.390 . S
C1007 C1004 1.386 . S
C1008 C1003 1.490 . S
C1008 C1010 1.395 . S
C1008 C1011 1.403 . S
H1009 C1015 0.930 . S
C1010 H996 0.930 . S
C1010 C1008 1.395 . S
C1010 C1013 1.403 . S
C1011 C1008 1.403 . S
C1011 C1012 1.524 . S
C1011 C1015 1.400 . S
C1012 H997 0.960 . S
C1012 H998 0.960 . S
C1012 H999 0.960 . S
C1012 C1011 1.524 . S
C1013 C1010 1.403 . S
C1013 C1014 1.392 . S
C1013 C1017 1.495 . S
C1014 C1013 1.392 . S
C1014 C1015 1.385 . S
C1014 C1016 1.478 . S
C1015 H1009 0.930 . S
C1015 C1011 1.400 . S
C1015 C1014 1.385 . S
C1016 C1014 1.478 . S
C1016 C1018 1.381 . S
C1016 C1022 1.383 . S
C1017 C1013 1.495 . S
C1017 H1023 0.959 . S
C1017 H1024 0.961 . S
C1017 H1025 0.960 . S
C1018 C1016 1.381 . S
C1018 C1019 1.394 . S
C1018 H1026 0.930 . S
C1019 C1018 1.394 . S
C1019 C1020 1.383 . S
C1019 H1027 0.929 . S
C1020 C1019 1.383 . S
C1020 C1021 1.377 . S
C1021 H1005 0.930 . S
C1021 C1020 1.377 . S
C1021 C1022 1.379 . S
C1022 H1006 0.931 . S
C1022 C1016 1.383 . S
C1022 C1021 1.379 . S
H1023 C1017 0.959 . S
H1024 C1017 0.961 . S
H1025 C1017 0.960 . S
H1026 C1018 0.930 . S
H1027 C1019 0.929 . S
H1028 C1036 0.929 . S
H1029 C1038 0.930 . S
H1030 C1040 0.930 . S
H1031 C1043 0.929 . S
H1032 C1046 0.930 . S
H1033 C1048 0.960 . S
H1034 C1048 0.960 . S
H1035 C1048 0.960 . S
C1036 H1028 0.929 . S
C1036 C1037 1.377 . S
C1036 C1038 1.384 . S
C1037 C1036 1.377 . S
C1037 C1043 1.390 . S
C1038 H1029 0.930 . S
C1038 C1036 1.384 . S
C1038 C1039 1.372 . S
C1039 C1038 1.372 . S
C1039 C1040 1.400 . S
C1039 C1044 1.490 . S
C1040 H1030 0.930 . S
C1040 C1039 1.400 . S
C1040 C1043 1.386 . S
H1041 C1057 0.930 . S
H1042 C1058 0.931 . S
C1043 H1031 0.929 . S
C1043 C1037 1.390 . S
C1043 C1040 1.386 . S
C1044 C1039 1.490 . S
C1044 C1046 1.395 . S
C1044 C1047 1.403 . S
H1045 C1051 0.930 . S
C1046 H1032 0.930 . S
C1046 C1044 1.395 . S
C1046 C1049 1.403 . S
C1047 C1044 1.403 . S
C1047 C1048 1.524 . S
C1047 C1051 1.400 . S
C1048 H1033 0.960 . S
C1048 H1034 0.960 . S
C1048 H1035 0.960 . S
C1048 C1047 1.524 . S
C1049 C1046 1.403 . S
C1049 C1050 1.392 . S
C1049 C1053 1.495 . S
C1050 C1049 1.392 . S
C1050 C1051 1.385 . S
C1050 C1052 1.478 . S
C1051 H1045 0.930 . S
C1051 C1047 1.400 . S
C1051 C1050 1.385 . S
C1052 C1050 1.478 . S
C1052 C1054 1.381 . S
C1052 C1058 1.383 . S
C1053 C1049 1.495 . S
C1053 H1059 0.959 . S
C1053 H1060 0.961 . S
C1053 H1061 0.960 . S
C1054 C1052 1.381 . S
C1054 C1055 1.394 . S
C1054 H1062 0.930 . S
C1055 C1054 1.394 . S
C1055 C1056 1.383 . S
C1055 H1063 0.929 . S
C1056 C1055 1.383 . S
C1056 C1057 1.377 . S
C1057 H1041 0.930 . S
C1057 C1056 1.377 . S
C1057 C1058 1.379 . S
C1058 H1042 0.931 . S
C1058 C1052 1.383 . S
C1058 C1057 1.379 . S
H1059 C1053 0.959 . S
H1060 C1053 0.961 . S
H1061 C1053 0.960 . S
H1062 C1054 0.930 . S
H1063 C1055 0.929 . S
H1064 C1072 0.929 . S
H1065 C1074 0.930 . S
H1066 C1076 0.930 . S
H1067 C1079 0.929 . S
H1068 C1082 0.930 . S
H1069 C1084 0.960 . S
H1070 C1084 0.960 . S
H1071 C1084 0.960 . S
C1072 H1064 0.929 . S
C1072 C1073 1.377 . S
C1072 C1074 1.384 . S
C1073 C1072 1.377 . S
C1073 C1079 1.390 . S
C1074 H1065 0.930 . S
C1074 C1072 1.384 . S
C1074 C1075 1.372 . S
C1075 C1074 1.372 . S
C1075 C1076 1.400 . S
C1075 C1080 1.490 . S
C1076 H1066 0.930 . S
C1076 C1075 1.400 . S
C1076 C1079 1.386 . S
H1077 C1093 0.930 . S
H1078 C1094 0.931 . S
C1079 H1067 0.929 . S
C1079 C1073 1.390 . S
C1079 C1076 1.386 . S
C1080 C1075 1.490 . S
C1080 C1082 1.395 . S
C1080 C1083 1.403 . S
H1081 C1087 0.930 . S
C1082 H1068 0.930 . S
C1082 C1080 1.395 . S
C1082 C1085 1.403 . S
C1083 C1080 1.403 . S
C1083 C1084 1.524 . S
C1083 C1087 1.400 . S
C1084 H1069 0.960 . S
C1084 H1070 0.960 . S
C1084 H1071 0.960 . S
C1084 C1083 1.524 . S
C1085 C1082 1.403 . S
C1085 C1086 1.392 . S
C1085 C1089 1.495 . S
C1086 C1085 1.392 . S
C1086 C1087 1.385 . S
C1086 C1088 1.478 . S
C1087 H1081 0.930 . S
C1087 C1083 1.400 . S
C1087 C1086 1.385 . S
C1088 C1086 1.478 . S
C1088 C1090 1.381 . S
C1088 C1094 1.383 . S
C1089 C1085 1.495 . S
C1089 H1095 0.959 . S
C1089 H1096 0.961 . S
C1089 H1097 0.960 . S
C1090 C1088 1.381 . S
C1090 C1091 1.394 . S
C1090 H1098 0.930 . S
C1091 C1090 1.394 . S
C1091 C1092 1.383 . S
C1091 H1099 0.929 . S
C1092 C1091 1.383 . S
C1092 C1093 1.377 . S
C1093 H1077 0.930 . S
C1093 C1092 1.377 . S
C1093 C1094 1.379 . S
C1094 H1078 0.931 . S
C1094 C1088 1.383 . S
C1094 C1093 1.379 . S
H1095 C1089 0.959 . S
H1096 C1089 0.961 . S
H1097 C1089 0.960 . S
H1098 C1090 0.930 . S
H1099 C1091 0.929 . S
H1100 C1108 0.929 . S
H1101 C1110 0.930 . S
H1102 C1112 0.930 . S
H1103 C1115 0.929 . S
H1104 C1118 0.930 . S
H1105 C1120 0.960 . S
H1106 C1120 0.960 . S
H1107 C1120 0.960 . S
C1108 H1100 0.929 . S
C1108 C1109 1.377 . S
C1108 C1110 1.384 . S
C1109 C1108 1.377 . S
C1109 C1115 1.390 . S
C1110 H1101 0.930 . S
C1110 C1108 1.384 . S
C1110 C1111 1.372 . S
C1111 C1110 1.372 . S
C1111 C1112 1.400 . S
C1111 C1116 1.490 . S
C1112 H1102 0.930 . S
C1112 C1111 1.400 . S
C1112 C1115 1.386 . S
H1113 C1129 0.930 . S
H1114 C1130 0.931 . S
C1115 H1103 0.929 . S
C1115 C1109 1.390 . S
C1115 C1112 1.386 . S
C1116 C1111 1.490 . S
C1116 C1118 1.395 . S
C1116 C1119 1.403 . S
H1117 C1123 0.930 . S
C1118 H1104 0.930 . S
C1118 C1116 1.395 . S
C1118 C1121 1.403 . S
C1119 C1116 1.403 . S
C1119 C1120 1.524 . S
C1119 C1123 1.400 . S
C1120 H1105 0.960 . S
C1120 H1106 0.960 . S
C1120 H1107 0.960 . S
C1120 C1119 1.524 . S
C1121 C1118 1.403 . S
C1121 C1122 1.392 . S
C1121 C1125 1.495 . S
C1122 C1121 1.392 . S
C1122 C1123 1.385 . S
C1122 C1124 1.478 . S
C1123 H1117 0.930 . S
C1123 C1119 1.400 . S
C1123 C1122 1.385 . S
C1124 C1122 1.478 . S
C1124 C1126 1.381 . S
C1124 C1130 1.383 . S
C1125 C1121 1.495 . S
C1125 H1131 0.959 . S
C1125 H1132 0.961 . S
C1125 H1133 0.960 . S
C1126 C1124 1.381 . S
C1126 C1127 1.394 . S
C1126 H1134 0.930 . S
C1127 C1126 1.394 . S
C1127 C1128 1.383 . S
C1127 H1135 0.929 . S
C1128 C1127 1.383 . S
C1128 C1129 1.377 . S
C1129 H1113 0.930 . S
C1129 C1128 1.377 . S
C1129 C1130 1.379 . S
C1130 H1114 0.931 . S
C1130 C1124 1.383 . S
C1130 C1129 1.379 . S
H1131 C1125 0.959 . S
H1132 C1125 0.961 . S
H1133 C1125 0.960 . S
H1134 C1126 0.930 . S
H1135 C1127 0.929 . S
H1136 C1144 0.929 . S
H1137 C1146 0.930 . S
H1138 C1148 0.930 . S
H1139 C1151 0.929 . S
H1140 C1154 0.930 . S
H1141 C1156 0.960 . S
H1142 C1156 0.960 . S
H1143 C1156 0.960 . S
C1144 H1136 0.929 . S
C1144 C1145 1.377 . S
C1144 C1146 1.384 . S
C1145 C1144 1.377 . S
C1145 C1151 1.390 . S
C1146 H1137 0.930 . S
C1146 C1144 1.384 . S
C1146 C1147 1.372 . S
C1147 C1146 1.372 . S
C1147 C1148 1.400 . S
C1147 C1152 1.490 . S
C1148 H1138 0.930 . S
C1148 C1147 1.400 . S
C1148 C1151 1.386 . S
H1149 C1165 0.930 . S
H1150 C1166 0.931 . S
C1151 H1139 0.929 . S
C1151 C1145 1.390 . S
C1151 C1148 1.386 . S
C1152 C1147 1.490 . S
C1152 C1154 1.395 . S
C1152 C1155 1.403 . S
H1153 C1159 0.930 . S
C1154 H1140 0.930 . S
C1154 C1152 1.395 . S
C1154 C1157 1.403 . S
C1155 C1152 1.403 . S
C1155 C1156 1.524 . S
C1155 C1159 1.400 . S
C1156 H1141 0.960 . S
C1156 H1142 0.960 . S
C1156 H1143 0.960 . S
C1156 C1155 1.524 . S
C1157 C1154 1.403 . S
C1157 C1158 1.392 . S
C1157 C1161 1.495 . S
C1158 C1157 1.392 . S
C1158 C1159 1.385 . S
C1158 C1160 1.478 . S
C1159 H1153 0.930 . S
C1159 C1155 1.400 . S
C1159 C1158 1.385 . S
C1160 C1158 1.478 . S
C1160 C1162 1.381 . S
C1160 C1166 1.383 . S
C1161 C1157 1.495 . S
C1161 H1167 0.959 . S
C1161 H1168 0.961 . S
C1161 H1169 0.960 . S
C1162 C1160 1.381 . S
C1162 C1163 1.394 . S
C1162 H1170 0.930 . S
C1163 C1162 1.394 . S
C1163 C1164 1.383 . S
C1163 H1171 0.929 . S
C1164 C1163 1.383 . S
C1164 C1165 1.377 . S
C1165 H1149 0.930 . S
C1165 C1164 1.377 . S
C1165 C1166 1.379 . S
C1166 H1150 0.931 . S
C1166 C1160 1.383 . S
C1166 C1165 1.379 . S
H1167 C1161 0.959 . S
H1168 C1161 0.961 . S
H1169 C1161 0.960 . S
H1170 C1162 0.930 . S
H1171 C1163 0.929 . S
H1172 C1180 0.929 . S
H1173 C1182 0.930 . S
H1174 C1184 0.930 . S
H1175 C1187 0.929 . S
H1176 C1190 0.930 . S
H1177 C1192 0.960 . S
H1178 C1192 0.960 . S
H1179 C1192 0.960 . S
C1180 H1172 0.929 . S
C1180 C1181 1.377 . S
C1180 C1182 1.384 . S
C1181 C1180 1.377 . S
C1181 C1187 1.390 . S
C1182 H1173 0.930 . S
C1182 C1180 1.384 . S
C1182 C1183 1.372 . S
C1183 C1182 1.372 . S
C1183 C1184 1.400 . S
C1183 C1188 1.490 . S
C1184 H1174 0.930 . S
C1184 C1183 1.400 . S
C1184 C1187 1.386 . S
H1185 C1201 0.930 . S
H1186 C1202 0.931 . S
C1187 H1175 0.929 . S
C1187 C1181 1.390 . S
C1187 C1184 1.386 . S
C1188 C1183 1.490 . S
C1188 C1190 1.395 . S
C1188 C1191 1.403 . S
H1189 C1195 0.930 . S
C1190 H1176 0.930 . S
C1190 C1188 1.395 . S
C1190 C1193 1.403 . S
C1191 C1188 1.403 . S
C1191 C1192 1.524 . S
C1191 C1195 1.400 . S
C1192 H1177 0.960 . S
C1192 H1178 0.960 . S
C1192 H1179 0.960 . S
C1192 C1191 1.524 . S
C1193 C1190 1.403 . S
C1193 C1194 1.392 . S
C1193 C1197 1.495 . S
C1194 C1193 1.392 . S
C1194 C1195 1.385 . S
C1194 C1196 1.478 . S
C1195 H1189 0.930 . S
C1195 C1191 1.400 . S
C1195 C1194 1.385 . S
C1196 C1194 1.478 . S
C1196 C1198 1.381 . S
C1196 C1202 1.383 . S
C1197 C1193 1.495 . S
C1197 H1203 0.959 . S
C1197 H1204 0.961 . S
C1197 H1205 0.960 . S
C1198 C1196 1.381 . S
C1198 C1199 1.394 . S
C1198 H1206 0.930 . S
C1199 C1198 1.394 . S
C1199 C1200 1.383 . S
C1199 H1207 0.929 . S
C1200 C1199 1.383 . S
C1200 C1201 1.377 . S
C1201 H1185 0.930 . S
C1201 C1200 1.377 . S
C1201 C1202 1.379 . S
C1202 H1186 0.931 . S
C1202 C1196 1.383 . S
C1202 C1201 1.379 . S
H1203 C1197 0.959 . S
H1204 C1197 0.961 . S
H1205 C1197 0.960 . S
H1206 C1198 0.930 . S
H1207 C1199 0.929 . S
H1208 C1216 0.929 . S
H1209 C1218 0.930 . S
H1210 C1220 0.930 . S
H1211 C1223 0.929 . S
H1212 C1226 0.930 . S
H1213 C1228 0.960 . S
H1214 C1228 0.960 . S
H1215 C1228 0.960 . S
C1216 H1208 0.929 . S
C1216 C1217 1.377 . S
C1216 C1218 1.384 . S
C1217 C1216 1.377 . S
C1217 C1223 1.390 . S
C1218 H1209 0.930 . S
C1218 C1216 1.384 . S
C1218 C1219 1.372 . S
C1219 C1218 1.372 . S
C1219 C1220 1.400 . S
C1219 C1224 1.490 . S
C1220 H1210 0.930 . S
C1220 C1219 1.400 . S
C1220 C1223 1.386 . S
H1221 C1237 0.930 . S
H1222 C1238 0.931 . S
C1223 H1211 0.929 . S
C1223 C1217 1.390 . S
C1223 C1220 1.386 . S
C1224 C1219 1.490 . S
C1224 C1226 1.395 . S
C1224 C1227 1.403 . S
H1225 C1231 0.930 . S
C1226 H1212 0.930 . S
C1226 C1224 1.395 . S
C1226 C1229 1.403 . S
C1227 C1224 1.403 . S
C1227 C1228 1.524 . S
C1227 C1231 1.400 . S
C1228 H1213 0.960 . S
C1228 H1214 0.960 . S
C1228 H1215 0.960 . S
C1228 C1227 1.524 . S
C1229 C1226 1.403 . S
C1229 C1230 1.392 . S
C1229 C1233 1.495 . S
C1230 C1229 1.392 . S
C1230 C1231 1.385 . S
C1230 C1232 1.478 . S
C1231 H1225 0.930 . S
C1231 C1227 1.400 . S
C1231 C1230 1.385 . S
C1232 C1230 1.478 . S
C1232 C1234 1.381 . S
C1232 C1238 1.383 . S
C1233 C1229 1.495 . S
C1233 H1239 0.959 . S
C1233 H1240 0.961 . S
C1233 H1241 0.960 . S
C1234 C1232 1.381 . S
C1234 C1235 1.394 . S
C1234 H1242 0.930 . S
C1235 C1234 1.394 . S
C1235 C1236 1.383 . S
C1235 H1243 0.929 . S
C1236 C1235 1.383 . S
C1236 C1237 1.377 . S
C1237 H1221 0.930 . S
C1237 C1236 1.377 . S
C1237 C1238 1.379 . S
C1238 H1222 0.931 . S
C1238 C1232 1.383 . S
C1238 C1237 1.379 . S
H1239 C1233 0.959 . S
H1240 C1233 0.961 . S
H1241 C1233 0.960 . S
H1242 C1234 0.930 . S
H1243 C1235 0.929 . S
H1244 C1252 0.929 . S
H1245 C1254 0.930 . S
H1246 C1256 0.930 . S
H1247 C1259 0.929 . S
H1248 C1262 0.930 . S
H1249 C1264 0.960 . S
H1250 C1264 0.960 . S
H1251 C1264 0.960 . S
C1252 H1244 0.929 . S
C1252 C1253 1.377 . S
C1252 C1254 1.384 . S
C1253 C1252 1.377 . S
C1253 C1259 1.390 . S
C1254 H1245 0.930 . S
C1254 C1252 1.384 . S
C1254 C1255 1.372 . S
C1255 C1254 1.372 . S
C1255 C1256 1.400 . S
C1255 C1260 1.490 . S
C1256 H1246 0.930 . S
C1256 C1255 1.400 . S
C1256 C1259 1.386 . S
H1257 C1273 0.930 . S
H1258 C1274 0.931 . S
C1259 H1247 0.929 . S
C1259 C1253 1.390 . S
C1259 C1256 1.386 . S
C1260 C1255 1.490 . S
C1260 C1262 1.395 . S
C1260 C1263 1.403 . S
H1261 C1267 0.930 . S
C1262 H1248 0.930 . S
C1262 C1260 1.395 . S
C1262 C1265 1.403 . S
C1263 C1260 1.403 . S
C1263 C1264 1.524 . S
C1263 C1267 1.400 . S
C1264 H1249 0.960 . S
C1264 H1250 0.960 . S
C1264 H1251 0.960 . S
C1264 C1263 1.524 . S
C1265 C1262 1.403 . S
C1265 C1266 1.392 . S
C1265 C1269 1.495 . S
C1266 C1265 1.392 . S
C1266 C1267 1.385 . S
C1266 C1268 1.478 . S
C1267 H1261 0.930 . S
C1267 C1263 1.400 . S
C1267 C1266 1.385 . S
C1268 C1266 1.478 . S
C1268 C1270 1.381 . S
C1268 C1274 1.383 . S
C1269 C1265 1.495 . S
C1269 H1275 0.959 . S
C1269 H1276 0.961 . S
C1269 H1277 0.960 . S
C1270 C1268 1.381 . S
C1270 C1271 1.394 . S
C1270 H1278 0.930 . S
C1271 C1270 1.394 . S
C1271 C1272 1.383 . S
C1271 H1279 0.929 . S
C1272 C1271 1.383 . S
C1272 C1273 1.377 . S
C1273 H1257 0.930 . S
C1273 C1272 1.377 . S
C1273 C1274 1.379 . S
C1274 H1258 0.931 . S
C1274 C1268 1.383 . S
C1274 C1273 1.379 . S
H1275 C1269 0.959 . S
H1276 C1269 0.961 . S
H1277 C1269 0.960 . S
H1278 C1270 0.930 . S
H1279 C1271 0.929 . S
H1280 C1288 0.929 . S
H1281 C1290 0.930 . S
H1282 C1292 0.930 . S
H1283 C1295 0.929 . S
H1284 C1298 0.930 . S
H1285 C1300 0.960 . S
H1286 C1300 0.960 . S
H1287 C1300 0.960 . S
C1288 H1280 0.929 . S
C1288 C1289 1.377 . S
C1288 C1290 1.384 . S
C1289 C1288 1.377 . S
C1289 C1295 1.390 . S
C1290 H1281 0.930 . S
C1290 C1288 1.384 . S
C1290 C1291 1.372 . S
C1291 C1290 1.372 . S
C1291 C1292 1.400 . S
C1291 C1296 1.490 . S
C1292 H1282 0.930 . S
C1292 C1291 1.400 . S
C1292 C1295 1.386 . S
H1293 C1309 0.930 . S
H1294 C1310 0.931 . S
C1295 H1283 0.929 . S
C1295 C1289 1.390 . S
C1295 C1292 1.386 . S
C1296 C1291 1.490 . S
C1296 C1298 1.395 . S
C1296 C1299 1.403 . S
H1297 C1303 0.930 . S
C1298 H1284 0.930 . S
C1298 C1296 1.395 . S
C1298 C1301 1.403 . S
C1299 C1296 1.403 . S
C1299 C1300 1.524 . S
C1299 C1303 1.400 . S
C1300 H1285 0.960 . S
C1300 H1286 0.960 . S
C1300 H1287 0.960 . S
C1300 C1299 1.524 . S
C1301 C1298 1.403 . S
C1301 C1302 1.392 . S
C1301 C1305 1.495 . S
C1302 C1301 1.392 . S
C1302 C1303 1.385 . S
C1302 C1304 1.478 . S
C1303 H1297 0.930 . S
C1303 C1299 1.400 . S
C1303 C1302 1.385 . S
C1304 C1302 1.478 . S
C1304 C1306 1.381 . S
C1304 C1310 1.383 . S
C1305 C1301 1.495 . S
C1305 H1311 0.959 . S
C1305 H1312 0.961 . S
C1305 H1313 0.960 . S
C1306 C1304 1.381 . S
C1306 C1307 1.394 . S
C1306 H1314 0.930 . S
C1307 C1306 1.394 . S
C1307 C1308 1.383 . S
C1307 H1315 0.929 . S
C1308 C1307 1.383 . S
C1308 C1309 1.377 . S
C1309 H1293 0.930 . S
C1309 C1308 1.377 . S
C1309 C1310 1.379 . S
C1310 H1294 0.931 . S
C1310 C1304 1.383 . S
C1310 C1309 1.379 . S
H1311 C1305 0.959 . S
H1312 C1305 0.961 . S
H1313 C1305 0.960 . S
H1314 C1306 0.930 . S
H1315 C1307 0.929 . S
H1316 C1324 0.929 . S
H1317 C1326 0.930 . S
H1318 C1328 0.930 . S
H1319 C1331 0.929 . S
H1320 C1334 0.930 . S
H1321 C1336 0.960 . S
H1322 C1336 0.960 . S
H1323 C1336 0.960 . S
C1324 H1316 0.929 . S
C1324 C1325 1.377 . S
C1324 C1326 1.384 . S
C1325 C1324 1.377 . S
C1325 C1331 1.390 . S
C1326 H1317 0.930 . S
C1326 C1324 1.384 . S
C1326 C1327 1.372 . S
C1327 C1326 1.372 . S
C1327 C1328 1.400 . S
C1327 C1332 1.490 . S
C1328 H1318 0.930 . S
C1328 C1327 1.400 . S
C1328 C1331 1.386 . S
H1329 C1345 0.930 . S
H1330 C1346 0.931 . S
C1331 H1319 0.929 . S
C1331 C1325 1.390 . S
C1331 C1328 1.386 . S
C1332 C1327 1.490 . S
C1332 C1334 1.395 . S
C1332 C1335 1.403 . S
H1333 C1339 0.930 . S
C1334 H1320 0.930 . S
C1334 C1332 1.395 . S
C1334 C1337 1.403 . S
C1335 C1332 1.403 . S
C1335 C1336 1.524 . S
C1335 C1339 1.400 . S
C1336 H1321 0.960 . S
C1336 H1322 0.960 . S
C1336 H1323 0.960 . S
C1336 C1335 1.524 . S
C1337 C1334 1.403 . S
C1337 C1338 1.392 . S
C1337 C1341 1.495 . S
C1338 C1337 1.392 . S
C1338 C1339 1.385 . S
C1338 C1340 1.478 . S
C1339 H1333 0.930 . S
C1339 C1335 1.400 . S
C1339 C1338 1.385 . S
C1340 C1338 1.478 . S
C1340 C1342 1.381 . S
C1340 C1346 1.383 . S
C1341 C1337 1.495 . S
C1341 H1347 0.959 . S
C1341 H1348 0.961 . S
C1341 H1349 0.960 . S
C1342 C1340 1.381 . S
C1342 C1343 1.394 . S
C1342 H1350 0.930 . S
C1343 C1342 1.394 . S
C1343 C1344 1.383 . S
C1343 H1351 0.929 . S
C1344 C1343 1.383 . S
C1344 C1345 1.377 . S
C1345 H1329 0.930 . S
C1345 C1344 1.377 . S
C1345 C1346 1.379 . S
C1346 H1330 0.931 . S
C1346 C1340 1.383 . S
C1346 C1345 1.379 . S
H1347 C1341 0.959 . S
H1348 C1341 0.961 . S
H1349 C1341 0.960 . S
H1350 C1342 0.930 . S
H1351 C1343 0.929 . S
H1352 C1360 0.929 . S
H1353 C1362 0.930 . S
H1354 C1364 0.930 . S
H1355 C1367 0.929 . S
H1356 C1370 0.930 . S
H1357 C1372 0.960 . S
H1358 C1372 0.960 . S
H1359 C1372 0.960 . S
C1360 H1352 0.929 . S
C1360 C1361 1.377 . S
C1360 C1362 1.384 . S
C1361 C1360 1.377 . S
C1361 C1367 1.390 . S
C1362 H1353 0.930 . S
C1362 C1360 1.384 . S
C1362 C1363 1.372 . S
C1363 C1362 1.372 . S
C1363 C1364 1.400 . S
C1363 C1368 1.490 . S
C1364 H1354 0.930 . S
C1364 C1363 1.400 . S
C1364 C1367 1.386 . S
H1365 C1381 0.930 . S
H1366 C1382 0.931 . S
C1367 H1355 0.929 . S
C1367 C1361 1.390 . S
C1367 C1364 1.386 . S
C1368 C1363 1.490 . S
C1368 C1370 1.395 . S
C1368 C1371 1.403 . S
H1369 C1375 0.930 . S
C1370 H1356 0.930 . S
C1370 C1368 1.395 . S
C1370 C1373 1.403 . S
C1371 C1368 1.403 . S
C1371 C1372 1.524 . S
C1371 C1375 1.400 . S
C1372 H1357 0.960 . S
C1372 H1358 0.960 . S
C1372 H1359 0.960 . S
C1372 C1371 1.524 . S
C1373 C1370 1.403 . S
C1373 C1374 1.392 . S
C1373 C1377 1.495 . S
C1374 C1373 1.392 . S
C1374 C1375 1.385 . S
C1374 C1376 1.478 . S
C1375 H1369 0.930 . S
C1375 C1371 1.400 . S
C1375 C1374 1.385 . S
C1376 C1374 1.478 . S
C1376 C1378 1.381 . S
C1376 C1382 1.383 . S
C1377 C1373 1.495 . S
C1377 H1383 0.959 . S
C1377 H1384 0.961 . S
C1377 H1385 0.960 . S
C1378 C1376 1.381 . S
C1378 C1379 1.394 . S
C1378 H1386 0.930 . S
C1379 C1378 1.394 . S
C1379 C1380 1.383 . S
C1379 H1387 0.929 . S
C1380 C1379 1.383 . S
C1380 C1381 1.377 . S
C1381 H1365 0.930 . S
C1381 C1380 1.377 . S
C1381 C1382 1.379 . S
C1382 H1366 0.931 . S
C1382 C1376 1.383 . S
C1382 C1381 1.379 . S
H1383 C1377 0.959 . S
H1384 C1377 0.961 . S
H1385 C1377 0.960 . S
H1386 C1378 0.930 . S
H1387 C1379 0.929 . S
H1388 C1396 0.929 . S
H1389 C1398 0.930 . S
H1390 C1400 0.930 . S
H1391 C1403 0.929 . S
H1392 C1406 0.930 . S
H1393 C1408 0.960 . S
H1394 C1408 0.960 . S
H1395 C1408 0.960 . S
C1396 H1388 0.929 . S
C1396 C1397 1.377 . S
C1396 C1398 1.384 . S
C1397 C1396 1.377 . S
C1397 C1403 1.390 . S
C1398 H1389 0.930 . S
C1398 C1396 1.384 . S
C1398 C1399 1.372 . S
C1399 C1398 1.372 . S
C1399 C1400 1.400 . S
C1399 C1404 1.490 . S
C1400 H1390 0.930 . S
C1400 C1399 1.400 . S
C1400 C1403 1.386 . S
H1401 C1417 0.930 . S
H1402 C1418 0.931 . S
C1403 H1391 0.929 . S
C1403 C1397 1.390 . S
C1403 C1400 1.386 . S
C1404 C1399 1.490 . S
C1404 C1406 1.395 . S
C1404 C1407 1.403 . S
H1405 C1411 0.930 . S
C1406 H1392 0.930 . S
C1406 C1404 1.395 . S
C1406 C1409 1.403 . S
C1407 C1404 1.403 . S
C1407 C1408 1.524 . S
C1407 C1411 1.400 . S
C1408 H1393 0.960 . S
C1408 H1394 0.960 . S
C1408 H1395 0.960 . S
C1408 C1407 1.524 . S
C1409 C1406 1.403 . S
C1409 C1410 1.392 . S
C1409 C1413 1.495 . S
C1410 C1409 1.392 . S
C1410 C1411 1.385 . S
C1410 C1412 1.478 . S
C1411 H1405 0.930 . S
C1411 C1407 1.400 . S
C1411 C1410 1.385 . S
C1412 C1410 1.478 . S
C1412 C1414 1.381 . S
C1412 C1418 1.383 . S
C1413 C1409 1.495 . S
C1413 H1419 0.959 . S
C1413 H1420 0.961 . S
C1413 H1421 0.960 . S
C1414 C1412 1.381 . S
C1414 C1415 1.394 . S
C1414 H1422 0.930 . S
C1415 C1414 1.394 . S
C1415 C1416 1.383 . S
C1415 H1423 0.929 . S
C1416 C1415 1.383 . S
C1416 C1417 1.377 . S
C1417 H1401 0.930 . S
C1417 C1416 1.377 . S
C1417 C1418 1.379 . S
C1418 H1402 0.931 . S
C1418 C1412 1.383 . S
C1418 C1417 1.379 . S
H1419 C1413 0.959 . S
H1420 C1413 0.961 . S
H1421 C1413 0.960 . S
H1422 C1414 0.930 . S
H1423 C1415 0.929 . S
H1424 C1432 0.929 . S
H1425 C1434 0.930 . S
H1426 C1436 0.930 . S
H1427 C1439 0.929 . S
H1428 C1442 0.930 . S
H1429 C1444 0.960 . S
H1430 C1444 0.960 . S
H1431 C1444 0.960 . S
C1432 H1424 0.929 . S
C1432 C1433 1.377 . S
C1432 C1434 1.384 . S
C1433 C1432 1.377 . S
C1433 C1439 1.390 . S
C1434 H1425 0.930 . S
C1434 C1432 1.384 . S
C1434 C1435 1.372 . S
C1435 C1434 1.372 . S
C1435 C1436 1.400 . S
C1435 C1440 1.490 . S
C1436 H1426 0.930 . S
C1436 C1435 1.400 . S
C1436 C1439 1.386 . S
H1437 C1453 0.930 . S
H1438 C1454 0.931 . S
C1439 H1427 0.929 . S
C1439 C1433 1.390 . S
C1439 C1436 1.386 . S
C1440 C1435 1.490 . S
C1440 C1442 1.395 . S
C1440 C1443 1.403 . S
H1441 C1447 0.930 . S
C1442 H1428 0.930 . S
C1442 C1440 1.395 . S
C1442 C1445 1.403 . S
C1443 C1440 1.403 . S
C1443 C1444 1.524 . S
C1443 C1447 1.400 . S
C1444 H1429 0.960 . S
C1444 H1430 0.960 . S
C1444 H1431 0.960 . S
C1444 C1443 1.524 . S
C1445 C1442 1.403 . S
C1445 C1446 1.392 . S
C1445 C1449 1.495 . S
C1446 C1445 1.392 . S
C1446 C1447 1.385 . S
C1446 C1448 1.478 . S
C1447 H1441 0.930 . S
C1447 C1443 1.400 . S
C1447 C1446 1.385 . S
C1448 C1446 1.478 . S
C1448 C1450 1.381 . S
C1448 C1454 1.383 . S
C1449 C1445 1.495 . S
C1449 H1455 0.959 . S
C1449 H1456 0.961 . S
C1449 H1457 0.960 . S
C1450 C1448 1.381 . S
C1450 C1451 1.394 . S
C1450 H1458 0.930 . S
C1451 C1450 1.394 . S
C1451 C1452 1.383 . S
C1451 H1459 0.929 . S
C1452 C1451 1.383 . S
C1452 C1453 1.377 . S
C1453 H1437 0.930 . S
C1453 C1452 1.377 . S
C1453 C1454 1.379 . S
C1454 H1438 0.931 . S
C1454 C1448 1.383 . S
C1454 C1453 1.379 . S
H1455 C1449 0.959 . S
H1456 C1449 0.961 . S
H1457 C1449 0.960 . S
H1458 C1450 0.930 . S
H1459 C1451 0.929 . S
H1460 C1468 0.929 . S
H1461 C1470 0.930 . S
H1462 C1472 0.930 . S
H1463 C1475 0.929 . S
H1464 C1478 0.930 . S
H1465 C1480 0.960 . S
H1466 C1480 0.960 . S
H1467 C1480 0.960 . S
C1468 H1460 0.929 . S
C1468 C1469 1.377 . S
C1468 C1470 1.384 . S
C1469 C1468 1.377 . S
C1469 C1475 1.390 . S
C1470 H1461 0.930 . S
C1470 C1468 1.384 . S
C1470 C1471 1.372 . S
C1471 C1470 1.372 . S
C1471 C1472 1.400 . S
C1471 C1476 1.490 . S
C1472 H1462 0.930 . S
C1472 C1471 1.400 . S
C1472 C1475 1.386 . S
H1473 C1489 0.930 . S
H1474 C1490 0.931 . S
C1475 H1463 0.929 . S
C1475 C1469 1.390 . S
C1475 C1472 1.386 . S
C1476 C1471 1.490 . S
C1476 C1478 1.395 . S
C1476 C1479 1.403 . S
H1477 C1483 0.930 . S
C1478 H1464 0.930 . S
C1478 C1476 1.395 . S
C1478 C1481 1.403 . S
C1479 C1476 1.403 . S
C1479 C1480 1.524 . S
C1479 C1483 1.400 . S
C1480 H1465 0.960 . S
C1480 H1466 0.960 . S
C1480 H1467 0.960 . S
C1480 C1479 1.524 . S
C1481 C1478 1.403 . S
C1481 C1482 1.392 . S
C1481 C1485 1.495 . S
C1482 C1481 1.392 . S
C1482 C1483 1.385 . S
C1482 C1484 1.478 . S
C1483 H1477 0.930 . S
C1483 C1479 1.400 . S
C1483 C1482 1.385 . S
C1484 C1482 1.478 . S
C1484 C1486 1.381 . S
C1484 C1490 1.383 . S
C1485 C1481 1.495 . S
C1485 H1491 0.959 . S
C1485 H1492 0.961 . S
C1485 H1493 0.960 . S
C1486 C1484 1.381 . S
C1486 C1487 1.394 . S
C1486 H1494 0.930 . S
C1487 C1486 1.394 . S
C1487 C1488 1.383 . S
C1487 H1495 0.929 . S
C1488 C1487 1.383 . S
C1488 C1489 1.377 . S
C1489 H1473 0.930 . S
C1489 C1488 1.377 . S
C1489 C1490 1.379 . S
C1490 H1474 0.931 . S
C1490 C1484 1.383 . S
C1490 C1489 1.379 . S
H1491 C1485 0.959 . S
H1492 C1485 0.961 . S
H1493 C1485 0.960 . S
H1494 C1486 0.930 . S
H1495 C1487 0.929 . S
H1496 C1504 0.929 . S
H1497 C1506 0.930 . S
H1498 C1508 0.930 . S
H1499 C1511 0.929 . S
H1500 C1514 0.930 . S
H1501 C1516 0.960 . S
H1502 C1516 0.960 . S
H1503 C1516 0.960 . S
C1504 H1496 0.929 . S
C1504 C1505 1.377 . S
C1504 C1506 1.384 . S
C1505 C1504 1.377 . S
C1505 C1511 1.390 . S
C1506 H1497 0.930 . S
C1506 C1504 1.384 . S
C1506 C1507 1.372 . S
C1507 C1506 1.372 . S
C1507 C1508 1.400 . S
C1507 C1512 1.490 . S
C1508 H1498 0.930 . S
C1508 C1507 1.400 . S
C1508 C1511 1.386 . S
H1509 C1525 0.930 . S
H1510 C1526 0.931 . S
C1511 H1499 0.929 . S
C1511 C1505 1.390 . S
C1511 C1508 1.386 . S
C1512 C1507 1.490 . S
C1512 C1514 1.395 . S
C1512 C1515 1.403 . S
H1513 C1519 0.930 . S
C1514 H1500 0.930 . S
C1514 C1512 1.395 . S
C1514 C1517 1.403 . S
C1515 C1512 1.403 . S
C1515 C1516 1.524 . S
C1515 C1519 1.400 . S
C1516 H1501 0.960 . S
C1516 H1502 0.960 . S
C1516 H1503 0.960 . S
C1516 C1515 1.524 . S
C1517 C1514 1.403 . S
C1517 C1518 1.392 . S
C1517 C1521 1.495 . S
C1518 C1517 1.392 . S
C1518 C1519 1.385 . S
C1518 C1520 1.478 . S
C1519 H1513 0.930 . S
C1519 C1515 1.400 . S
C1519 C1518 1.385 . S
C1520 C1518 1.478 . S
C1520 C1522 1.381 . S
C1520 C1526 1.383 . S
C1521 C1517 1.495 . S
C1521 H1527 0.959 . S
C1521 H1528 0.961 . S
C1521 H1529 0.960 . S
C1522 C1520 1.381 . S
C1522 C1523 1.394 . S
C1522 H1530 0.930 . S
C1523 C1522 1.394 . S
C1523 C1524 1.383 . S
C1523 H1531 0.929 . S
C1524 C1523 1.383 . S
C1524 C1525 1.377 . S
C1525 H1509 0.930 . S
C1525 C1524 1.377 . S
C1525 C1526 1.379 . S
C1526 H1510 0.931 . S
C1526 C1520 1.383 . S
C1526 C1525 1.379 . S
H1527 C1521 0.959 . S
H1528 C1521 0.961 . S
H1529 C1521 0.960 . S
H1530 C1522 0.930 . S
H1531 C1523 0.929 . S
H1532 C1540 0.929 . S
H1533 C1542 0.930 . S
H1534 C1544 0.930 . S
H1535 C1547 0.929 . S
H1536 C1550 0.930 . S
H1537 C1552 0.960 . S
H1538 C1552 0.960 . S
H1539 C1552 0.960 . S
C1540 H1532 0.929 . S
C1540 C1541 1.377 . S
C1540 C1542 1.384 . S
C1541 C1540 1.377 . S
C1541 C1547 1.390 . S
C1542 H1533 0.930 . S
C1542 C1540 1.384 . S
C1542 C1543 1.372 . S
C1543 C1542 1.372 . S
C1543 C1544 1.400 . S
C1543 C1548 1.490 . S
C1544 H1534 0.930 . S
C1544 C1543 1.400 . S
C1544 C1547 1.386 . S
H1545 C1561 0.930 . S
H1546 C1562 0.931 . S
C1547 H1535 0.929 . S
C1547 C1541 1.390 . S
C1547 C1544 1.386 . S
C1548 C1543 1.490 . S
C1548 C1550 1.395 . S
C1548 C1551 1.403 . S
H1549 C1555 0.930 . S
C1550 H1536 0.930 . S
C1550 C1548 1.395 . S
C1550 C1553 1.403 . S
C1551 C1548 1.403 . S
C1551 C1552 1.524 . S
C1551 C1555 1.400 . S
C1552 H1537 0.960 . S
C1552 H1538 0.960 . S
C1552 H1539 0.960 . S
C1552 C1551 1.524 . S
C1553 C1550 1.403 . S
C1553 C1554 1.392 . S
C1553 C1557 1.495 . S
C1554 C1553 1.392 . S
C1554 C1555 1.385 . S
C1554 C1556 1.478 . S
C1555 H1549 0.930 . S
C1555 C1551 1.400 . S
C1555 C1554 1.385 . S
C1556 C1554 1.478 . S
C1556 C1558 1.381 . S
C1556 C1562 1.383 . S
C1557 C1553 1.495 . S
C1557 H1563 0.959 . S
C1557 H1564 0.961 . S
C1557 H1565 0.960 . S
C1558 C1556 1.381 . S
C1558 C1559 1.394 . S
C1558 H1566 0.930 . S
C1559 C1558 1.394 . S
C1559 C1560 1.383 . S
C1559 H1567 0.929 . S
C1560 C1559 1.383 . S
C1560 C1561 1.377 . S
C1561 H1545 0.930 . S
C1561 C1560 1.377 . S
C1561 C1562 1.379 . S
C1562 H1546 0.931 . S
C1562 C1556 1.383 . S
C1562 C1561 1.379 . S
H1563 C1557 0.959 . S
H1564 C1557 0.961 . S
H1565 C1557 0.960 . S
H1566 C1558 0.930 . S
H1567 C1559 0.929 . S
H1568 C1576 0.929 . S
H1569 C1578 0.930 . S
H1570 C1580 0.930 . S
H1571 C1583 0.929 . S
H1572 C1586 0.930 . S
H1573 C1588 0.960 . S
H1574 C1588 0.960 . S
H1575 C1588 0.960 . S
C1576 H1568 0.929 . S
C1576 C1577 1.377 . S
C1576 C1578 1.384 . S
C1577 C1576 1.377 . S
C1577 C1583 1.390 . S
C1578 H1569 0.930 . S
C1578 C1576 1.384 . S
C1578 C1579 1.372 . S
C1579 C1578 1.372 . S
C1579 C1580 1.400 . S
C1579 C1584 1.490 . S
C1580 H1570 0.930 . S
C1580 C1579 1.400 . S
C1580 C1583 1.386 . S
H1581 C1597 0.930 . S
H1582 C1598 0.931 . S
C1583 H1571 0.929 . S
C1583 C1577 1.390 . S
C1583 C1580 1.386 . S
C1584 C1579 1.490 . S
C1584 C1586 1.395 . S
C1584 C1587 1.403 . S
H1585 C1591 0.930 . S
C1586 H1572 0.930 . S
C1586 C1584 1.395 . S
C1586 C1589 1.403 . S
C1587 C1584 1.403 . S
C1587 C1588 1.524 . S
C1587 C1591 1.400 . S
C1588 H1573 0.960 . S
C1588 H1574 0.960 . S
C1588 H1575 0.960 . S
C1588 C1587 1.524 . S
C1589 C1586 1.403 . S
C1589 C1590 1.392 . S
C1589 C1593 1.495 . S
C1590 C1589 1.392 . S
C1590 C1591 1.385 . S
C1590 C1592 1.478 . S
C1591 H1585 0.930 . S
C1591 C1587 1.400 . S
C1591 C1590 1.385 . S
C1592 C1590 1.478 . S
C1592 C1594 1.381 . S
C1592 C1598 1.383 . S
C1593 C1589 1.495 . S
C1593 H1599 0.959 . S
C1593 H1600 0.961 . S
C1593 H1601 0.960 . S
C1594 C1592 1.381 . S
C1594 C1595 1.394 . S
C1594 H1602 0.930 . S
C1595 C1594 1.394 . S
C1595 C1596 1.383 . S
C1595 H1603 0.929 . S
C1596 C1595 1.383 . S
C1596 C1597 1.377 . S
C1597 H1581 0.930 . S
C1597 C1596 1.377 . S
C1597 C1598 1.379 . S
C1598 H1582 0.931 . S
C1598 C1592 1.383 . S
C1598 C1597 1.379 . S
H1599 C1593 0.959 . S
H1600 C1593 0.961 . S
H1601 C1593 0.960 . S
H1602 C1594 0.930 . S
H1603 C1595 0.929 . S
H1604 C1612 0.929 . S
H1605 C1614 0.930 . S
H1606 C1616 0.930 . S
H1607 C1619 0.929 . S
H1608 C1622 0.930 . S
H1609 C1624 0.960 . S
H1610 C1624 0.960 . S
H1611 C1624 0.960 . S
C1612 H1604 0.929 . S
C1612 C1613 1.377 . S
C1612 C1614 1.384 . S
C1613 C1612 1.377 . S
C1613 C1619 1.390 . S
C1614 H1605 0.930 . S
C1614 C1612 1.384 . S
C1614 C1615 1.372 . S
C1615 C1614 1.372 . S
C1615 C1616 1.400 . S
C1615 C1620 1.490 . S
C1616 H1606 0.930 . S
C1616 C1615 1.400 . S
C1616 C1619 1.386 . S
H1617 C1633 0.930 . S
H1618 C1634 0.931 . S
C1619 H1607 0.929 . S
C1619 C1613 1.390 . S
C1619 C1616 1.386 . S
C1620 C1615 1.490 . S
C1620 C1622 1.395 . S
C1620 C1623 1.403 . S
H1621 C1627 0.930 . S
C1622 H1608 0.930 . S
C1622 C1620 1.395 . S
C1622 C1625 1.403 . S
C1623 C1620 1.403 . S
C1623 C1624 1.524 . S
C1623 C1627 1.400 . S
C1624 H1609 0.960 . S
C1624 H1610 0.960 . S
C1624 H1611 0.960 . S
C1624 C1623 1.524 . S
C1625 C1622 1.403 . S
C1625 C1626 1.392 . S
C1625 C1629 1.495 . S
C1626 C1625 1.392 . S
C1626 C1627 1.385 . S
C1626 C1628 1.478 . S
C1627 H1621 0.930 . S
C1627 C1623 1.400 . S
C1627 C1626 1.385 . S
C1628 C1626 1.478 . S
C1628 C1630 1.381 . S
C1628 C1634 1.383 . S
C1629 C1625 1.495 . S
C1629 H1635 0.959 . S
C1629 H1636 0.961 . S
C1629 H1637 0.960 . S
C1630 C1628 1.381 . S
C1630 C1631 1.394 . S
C1630 H1638 0.930 . S
C1631 C1630 1.394 . S
C1631 C1632 1.383 . S
C1631 H1639 0.929 . S
C1632 C1631 1.383 . S
C1632 C1633 1.377 . S
C1633 H1617 0.930 . S
C1633 C1632 1.377 . S
C1633 C1634 1.379 . S
C1634 H1618 0.931 . S
C1634 C1628 1.383 . S
C1634 C1633 1.379 . S
H1635 C1629 0.959 . S
H1636 C1629 0.961 . S
H1637 C1629 0.960 . S
H1638 C1630 0.930 . S
H1639 C1631 0.929 . S
H1640 C1648 0.929 . S
H1641 C1650 0.930 . S
H1642 C1652 0.930 . S
H1643 C1655 0.929 . S
H1644 C1658 0.930 . S
H1645 C1660 0.960 . S
H1646 C1660 0.960 . S
H1647 C1660 0.960 . S
C1648 H1640 0.929 . S
C1648 C1649 1.377 . S
C1648 C1650 1.384 . S
C1649 C1648 1.377 . S
C1649 C1655 1.390 . S
C1650 H1641 0.930 . S
C1650 C1648 1.384 . S
C1650 C1651 1.372 . S
C1651 C1650 1.372 . S
C1651 C1652 1.400 . S
C1651 C1656 1.490 . S
C1652 H1642 0.930 . S
C1652 C1651 1.400 . S
C1652 C1655 1.386 . S
H1653 C1669 0.930 . S
H1654 C1670 0.931 . S
C1655 H1643 0.929 . S
C1655 C1649 1.390 . S
C1655 C1652 1.386 . S
C1656 C1651 1.490 . S
C1656 C1658 1.395 . S
C1656 C1659 1.403 . S
H1657 C1663 0.930 . S
C1658 H1644 0.930 . S
C1658 C1656 1.395 . S
C1658 C1661 1.403 . S
C1659 C1656 1.403 . S
C1659 C1660 1.524 . S
C1659 C1663 1.400 . S
C1660 H1645 0.960 . S
C1660 H1646 0.960 . S
C1660 H1647 0.960 . S
C1660 C1659 1.524 . S
C1661 C1658 1.403 . S
C1661 C1662 1.392 . S
C1661 C1665 1.495 . S
C1662 C1661 1.392 . S
C1662 C1663 1.385 . S
C1662 C1664 1.478 . S
C1663 H1657 0.930 . S
C1663 C1659 1.400 . S
C1663 C1662 1.385 . S
C1664 C1662 1.478 . S
C1664 C1666 1.381 . S
C1664 C1670 1.383 . S
C1665 C1661 1.495 . S
C1665 H1671 0.959 . S
C1665 H1672 0.961 . S
C1665 H1673 0.960 . S
C1666 C1664 1.381 . S
C1666 C1667 1.394 . S
C1666 H1674 0.930 . S
C1667 C1666 1.394 . S
C1667 C1668 1.383 . S
C1667 H1675 0.929 . S
C1668 C1667 1.383 . S
C1668 C1669 1.377 . S
C1669 H1653 0.930 . S
C1669 C1668 1.377 . S
C1669 C1670 1.379 . S
C1670 H1654 0.931 . S
C1670 C1664 1.383 . S
C1670 C1669 1.379 . S
H1671 C1665 0.959 . S
H1672 C1665 0.961 . S
H1673 C1665 0.960 . S
H1674 C1666 0.930 . S
H1675 C1667 0.929 . S
H1676 C1684 0.929 . S
H1677 C1686 0.930 . S
H1678 C1688 0.930 . S
H1679 C1691 0.929 . S
H1680 C1694 0.930 . S
H1681 C1696 0.960 . S
H1682 C1696 0.960 . S
H1683 C1696 0.960 . S
C1684 H1676 0.929 . S
C1684 C1685 1.377 . S
C1684 C1686 1.384 . S
C1685 C1684 1.377 . S
C1685 C1691 1.390 . S
C1686 H1677 0.930 . S
C1686 C1684 1.384 . S
C1686 C1687 1.372 . S
C1687 C1686 1.372 . S
C1687 C1688 1.400 . S
C1687 C1692 1.490 . S
C1688 H1678 0.930 . S
C1688 C1687 1.400 . S
C1688 C1691 1.386 . S
H1689 C1705 0.930 . S
H1690 C1706 0.931 . S
C1691 H1679 0.929 . S
C1691 C1685 1.390 . S
C1691 C1688 1.386 . S
C1692 C1687 1.490 . S
C1692 C1694 1.395 . S
C1692 C1695 1.403 . S
H1693 C1699 0.930 . S
C1694 H1680 0.930 . S
C1694 C1692 1.395 . S
C1694 C1697 1.403 . S
C1695 C1692 1.403 . S
C1695 C1696 1.524 . S
C1695 C1699 1.400 . S
C1696 H1681 0.960 . S
C1696 H1682 0.960 . S
C1696 H1683 0.960 . S
C1696 C1695 1.524 . S
C1697 C1694 1.403 . S
C1697 C1698 1.392 . S
C1697 C1701 1.495 . S
C1698 C1697 1.392 . S
C1698 C1699 1.385 . S
C1698 C1700 1.478 . S
C1699 H1693 0.930 . S
C1699 C1695 1.400 . S
C1699 C1698 1.385 . S
C1700 C1698 1.478 . S
C1700 C1702 1.381 . S
C1700 C1706 1.383 . S
C1701 C1697 1.495 . S
C1701 H1707 0.959 . S
C1701 H1708 0.961 . S
C1701 H1709 0.960 . S
C1702 C1700 1.381 . S
C1702 C1703 1.394 . S
C1702 H1710 0.930 . S
C1703 C1702 1.394 . S
C1703 C1704 1.383 . S
C1703 H1711 0.929 . S
C1704 C1703 1.383 . S
C1704 C1705 1.377 . S
C1705 H1689 0.930 . S
C1705 C1704 1.377 . S
C1705 C1706 1.379 . S
C1706 H1690 0.931 . S
C1706 C1700 1.383 . S
C1706 C1705 1.379 . S
H1707 C1701 0.959 . S
H1708 C1701 0.961 . S
H1709 C1701 0.960 . S
H1710 C1702 0.930 . S
H1711 C1703 0.929 . S
H1712 C1720 0.929 . S
H1713 C1722 0.930 . S
H1714 C1724 0.930 . S
H1715 C1727 0.929 . S
H1716 C1730 0.930 . S
H1717 C1732 0.960 . S
H1718 C1732 0.960 . S
H1719 C1732 0.960 . S
C1720 H1712 0.929 . S
C1720 C1721 1.377 . S
C1720 C1722 1.384 . S
C1721 C1720 1.377 . S
C1721 C1727 1.390 . S
C1722 H1713 0.930 . S
C1722 C1720 1.384 . S
C1722 C1723 1.372 . S
C1723 C1722 1.372 . S
C1723 C1724 1.400 . S
C1723 C1728 1.490 . S
C1724 H1714 0.930 . S
C1724 C1723 1.400 . S
C1724 C1727 1.386 . S
H1725 C1741 0.930 . S
H1726 C1742 0.931 . S
C1727 H1715 0.929 . S
C1727 C1721 1.390 . S
C1727 C1724 1.386 . S
C1728 C1723 1.490 . S
C1728 C1730 1.395 . S
C1728 C1731 1.403 . S
H1729 C1735 0.930 . S
C1730 H1716 0.930 . S
C1730 C1728 1.395 . S
C1730 C1733 1.403 . S
C1731 C1728 1.403 . S
C1731 C1732 1.524 . S
C1731 C1735 1.400 . S
C1732 H1717 0.960 . S
C1732 H1718 0.960 . S
C1732 H1719 0.960 . S
C1732 C1731 1.524 . S
C1733 C1730 1.403 . S
C1733 C1734 1.392 . S
C1733 C1737 1.495 . S
C1734 C1733 1.392 . S
C1734 C1735 1.385 . S
C1734 C1736 1.478 . S
C1735 H1729 0.930 . S
C1735 C1731 1.400 . S
C1735 C1734 1.385 . S
C1736 C1734 1.478 . S
C1736 C1738 1.381 . S
C1736 C1742 1.383 . S
C1737 C1733 1.495 . S
C1737 H1743 0.959 . S
C1737 H1744 0.961 . S
C1737 H1745 0.960 . S
C1738 C1736 1.381 . S
C1738 C1739 1.394 . S
C1738 H1746 0.930 . S
C1739 C1738 1.394 . S
C1739 C1740 1.383 . S
C1739 H1747 0.929 . S
C1740 C1739 1.383 . S
C1740 C1741 1.377 . S
C1741 H1725 0.930 . S
C1741 C1740 1.377 . S
C1741 C1742 1.379 . S
C1742 H1726 0.931 . S
C1742 C1736 1.383 . S
C1742 C1741 1.379 . S
H1743 C1737 0.959 . S
H1744 C1737 0.961 . S
H1745 C1737 0.960 . S
H1746 C1738 0.930 . S
H1747 C1739 0.929 . S
H1748 C1756 0.929 . S
H1749 C1758 0.930 . S
H1750 C1760 0.930 . S
H1751 C1763 0.929 . S
H1752 C1766 0.930 . S
H1753 C1768 0.960 . S
H1754 C1768 0.960 . S
H1755 C1768 0.960 . S
C1756 H1748 0.929 . S
C1756 C1757 1.377 . S
C1756 C1758 1.384 . S
C1757 C1756 1.377 . S
C1757 C1763 1.390 . S
C1758 H1749 0.930 . S
C1758 C1756 1.384 . S
C1758 C1759 1.372 . S
C1759 C1758 1.372 . S
C1759 C1760 1.400 . S
C1759 C1764 1.490 . S
C1760 H1750 0.930 . S
C1760 C1759 1.400 . S
C1760 C1763 1.386 . S
H1761 C1777 0.930 . S
H1762 C1778 0.931 . S
C1763 H1751 0.929 . S
C1763 C1757 1.390 . S
C1763 C1760 1.386 . S
C1764 C1759 1.490 . S
C1764 C1766 1.395 . S
C1764 C1767 1.403 . S
H1765 C1771 0.930 . S
C1766 H1752 0.930 . S
C1766 C1764 1.395 . S
C1766 C1769 1.403 . S
C1767 C1764 1.403 . S
C1767 C1768 1.524 . S
C1767 C1771 1.400 . S
C1768 H1753 0.960 . S
C1768 H1754 0.960 . S
C1768 H1755 0.960 . S
C1768 C1767 1.524 . S
C1769 C1766 1.403 . S
C1769 C1770 1.392 . S
C1769 C1773 1.495 . S
C1770 C1769 1.392 . S
C1770 C1771 1.385 . S
C1770 C1772 1.478 . S
C1771 H1765 0.930 . S
C1771 C1767 1.400 . S
C1771 C1770 1.385 . S
C1772 C1770 1.478 . S
C1772 C1774 1.381 . S
C1772 C1778 1.383 . S
C1773 C1769 1.495 . S
C1773 H1779 0.959 . S
C1773 H1780 0.961 . S
C1773 H1781 0.960 . S
C1774 C1772 1.381 . S
C1774 C1775 1.394 . S
C1774 H1782 0.930 . S
C1775 C1774 1.394 . S
C1775 C1776 1.383 . S
C1775 H1783 0.929 . S
C1776 C1775 1.383 . S
C1776 C1777 1.377 . S
C1777 H1761 0.930 . S
C1777 C1776 1.377 . S
C1777 C1778 1.379 . S
C1778 H1762 0.931 . S
C1778 C1772 1.383 . S
C1778 C1777 1.379 . S
H1779 C1773 0.959 . S
H1780 C1773 0.961 . S
H1781 C1773 0.960 . S
H1782 C1774 0.930 . S
H1783 C1775 0.929 . S
H1784 C1792 0.929 . S
H1785 C1794 0.930 . S
H1786 C1796 0.930 . S
H1787 C1799 0.929 . S
H1788 C1802 0.930 . S
H1789 C1804 0.960 . S
H1790 C1804 0.960 . S
H1791 C1804 0.960 . S
C1792 H1784 0.929 . S
C1792 C1793 1.377 . S
C1792 C1794 1.384 . S
C1793 C1792 1.377 . S
C1793 C1799 1.390 . S
C1794 H1785 0.930 . S
C1794 C1792 1.384 . S
C1794 C1795 1.372 . S
C1795 C1794 1.372 . S
C1795 C1796 1.400 . S
C1795 C1800 1.490 . S
C1796 H1786 0.930 . S
C1796 C1795 1.400 . S
C1796 C1799 1.386 . S
H1797 C1813 0.930 . S
H1798 C1814 0.931 . S
C1799 H1787 0.929 . S
C1799 C1793 1.390 . S
C1799 C1796 1.386 . S
C1800 C1795 1.490 . S
C1800 C1802 1.395 . S
C1800 C1803 1.403 . S
H1801 C1807 0.930 . S
C1802 H1788 0.930 . S
C1802 C1800 1.395 . S
C1802 C1805 1.403 . S
C1803 C1800 1.403 . S
C1803 C1804 1.524 . S
C1803 C1807 1.400 . S
C1804 H1789 0.960 . S
C1804 H1790 0.960 . S
C1804 H1791 0.960 . S
C1804 C1803 1.524 . S
C1805 C1802 1.403 . S
C1805 C1806 1.392 . S
C1805 C1809 1.495 . S
C1806 C1805 1.392 . S
C1806 C1807 1.385 . S
C1806 C1808 1.478 . S
C1807 H1801 0.930 . S
C1807 C1803 1.400 . S
C1807 C1806 1.385 . S
C1808 C1806 1.478 . S
C1808 C1810 1.381 . S
C1808 C1814 1.383 . S
C1809 C1805 1.495 . S
C1809 H1815 0.959 . S
C1809 H1816 0.961 . S
C1809 H1817 0.960 . S
C1810 C1808 1.381 . S
C1810 C1811 1.394 . S
C1810 H1818 0.930 . S
C1811 C1810 1.394 . S
C1811 C1812 1.383 . S
C1811 H1819 0.929 . S
C1812 C1811 1.383 . S
C1812 C1813 1.377 . S
C1813 H1797 0.930 . S
C1813 C1812 1.377 . S
C1813 C1814 1.379 . S
C1814 H1798 0.931 . S
C1814 C1808 1.383 . S
C1814 C1813 1.379 . S
H1815 C1809 0.959 . S
H1816 C1809 0.961 . S
H1817 C1809 0.960 . S
H1818 C1810 0.930 . S
H1819 C1811 0.929 . S
H1820 C1828 0.929 . S
H1821 C1830 0.930 . S
H1822 C1832 0.930 . S
H1823 C1835 0.929 . S
H1824 C1838 0.930 . S
H1825 C1840 0.960 . S
H1826 C1840 0.960 . S
H1827 C1840 0.960 . S
C1828 H1820 0.929 . S
C1828 C1829 1.377 . S
C1828 C1830 1.384 . S
C1829 C1828 1.377 . S
C1829 C1835 1.390 . S
C1830 H1821 0.930 . S
C1830 C1828 1.384 . S
C1830 C1831 1.372 . S
C1831 C1830 1.372 . S
C1831 C1832 1.400 . S
C1831 C1836 1.490 . S
C1832 H1822 0.930 . S
C1832 C1831 1.400 . S
C1832 C1835 1.386 . S
H1833 C1849 0.930 . S
H1834 C1850 0.931 . S
C1835 H1823 0.929 . S
C1835 C1829 1.390 . S
C1835 C1832 1.386 . S
C1836 C1831 1.490 . S
C1836 C1838 1.395 . S
C1836 C1839 1.403 . S
H1837 C1843 0.930 . S
C1838 H1824 0.930 . S
C1838 C1836 1.395 . S
C1838 C1841 1.403 . S
C1839 C1836 1.403 . S
C1839 C1840 1.524 . S
C1839 C1843 1.400 . S
C1840 H1825 0.960 . S
C1840 H1826 0.960 . S
C1840 H1827 0.960 . S
C1840 C1839 1.524 . S
C1841 C1838 1.403 . S
C1841 C1842 1.392 . S
C1841 C1845 1.495 . S
C1842 C1841 1.392 . S
C1842 C1843 1.385 . S
C1842 C1844 1.478 . S
C1843 H1837 0.930 . S
C1843 C1839 1.400 . S
C1843 C1842 1.385 . S
C1844 C1842 1.478 . S
C1844 C1846 1.381 . S
C1844 C1850 1.383 . S
C1845 C1841 1.495 . S
C1845 H1851 0.959 . S
C1845 H1852 0.961 . S
C1845 H1853 0.960 . S
C1846 C1844 1.381 . S
C1846 C1847 1.394 . S
C1846 H1854 0.930 . S
C1847 C1846 1.394 . S
C1847 C1848 1.383 . S
C1847 H1855 0.929 . S
C1848 C1847 1.383 . S
C1848 C1849 1.377 . S
C1849 H1833 0.930 . S
C1849 C1848 1.377 . S
C1849 C1850 1.379 . S
C1850 H1834 0.931 . S
C1850 C1844 1.383 . S
C1850 C1849 1.379 . S
H1851 C1845 0.959 . S
H1852 C1845 0.961 . S
H1853 C1845 0.960 . S
H1854 C1846 0.930 . S
H1855 C1847 0.929 . S
H1856 C1864 0.929 . S
H1857 C1866 0.930 . S
H1858 C1868 0.930 . S
H1859 C1871 0.929 . S
H1860 C1874 0.930 . S
H1861 C1876 0.960 . S
H1862 C1876 0.960 . S
H1863 C1876 0.960 . S
C1864 H1856 0.929 . S
C1864 C1865 1.377 . S
C1864 C1866 1.384 . S
C1865 C1864 1.377 . S
C1865 C1871 1.390 . S
C1866 H1857 0.930 . S
C1866 C1864 1.384 . S
C1866 C1867 1.372 . S
C1867 C1866 1.372 . S
C1867 C1868 1.400 . S
C1867 C1872 1.490 . S
C1868 H1858 0.930 . S
C1868 C1867 1.400 . S
C1868 C1871 1.386 . S
H1869 C1885 0.930 . S
H1870 C1886 0.931 . S
C1871 H1859 0.929 . S
C1871 C1865 1.390 . S
C1871 C1868 1.386 . S
C1872 C1867 1.490 . S
C1872 C1874 1.395 . S
C1872 C1875 1.403 . S
H1873 C1879 0.930 . S
C1874 H1860 0.930 . S
C1874 C1872 1.395 . S
C1874 C1877 1.403 . S
C1875 C1872 1.403 . S
C1875 C1876 1.524 . S
C1875 C1879 1.400 . S
C1876 H1861 0.960 . S
C1876 H1862 0.960 . S
C1876 H1863 0.960 . S
C1876 C1875 1.524 . S
C1877 C1874 1.403 . S
C1877 C1878 1.392 . S
C1877 C1881 1.495 . S
C1878 C1877 1.392 . S
C1878 C1879 1.385 . S
C1878 C1880 1.478 . S
C1879 H1873 0.930 . S
C1879 C1875 1.400 . S
C1879 C1878 1.385 . S
C1880 C1878 1.478 . S
C1880 C1882 1.381 . S
C1880 C1886 1.383 . S
C1881 C1877 1.495 . S
C1881 H1887 0.959 . S
C1881 H1888 0.961 . S
C1881 H1889 0.960 . S
C1882 C1880 1.381 . S
C1882 C1883 1.394 . S
C1882 H1890 0.930 . S
C1883 C1882 1.394 . S
C1883 C1884 1.383 . S
C1883 H1891 0.929 . S
C1884 C1883 1.383 . S
C1884 C1885 1.377 . S
C1885 H1869 0.930 . S
C1885 C1884 1.377 . S
C1885 C1886 1.379 . S
C1886 H1870 0.931 . S
C1886 C1880 1.383 . S
C1886 C1885 1.379 . S
H1887 C1881 0.959 . S
H1888 C1881 0.961 . S
H1889 C1881 0.960 . S
H1890 C1882 0.930 . S
H1891 C1883 0.929 . S
H1892 C1900 0.929 . S
H1893 C1902 0.930 . S
H1894 C1904 0.930 . S
H1895 C1907 0.929 . S
H1896 C1910 0.930 . S
H1897 C1912 0.960 . S
H1898 C1912 0.960 . S
H1899 C1912 0.960 . S
C1900 H1892 0.929 . S
C1900 C1901 1.377 . S
C1900 C1902 1.384 . S
C1901 C1900 1.377 . S
C1901 C1907 1.390 . S
C1902 H1893 0.930 . S
C1902 C1900 1.384 . S
C1902 C1903 1.372 . S
C1903 C1902 1.372 . S
C1903 C1904 1.400 . S
C1903 C1908 1.490 . S
C1904 H1894 0.930 . S
C1904 C1903 1.400 . S
C1904 C1907 1.386 . S
H1905 C1921 0.930 . S
H1906 C1922 0.931 . S
C1907 H1895 0.929 . S
C1907 C1901 1.390 . S
C1907 C1904 1.386 . S
C1908 C1903 1.490 . S
C1908 C1910 1.395 . S
C1908 C1911 1.403 . S
H1909 C1915 0.930 . S
C1910 H1896 0.930 . S
C1910 C1908 1.395 . S
C1910 C1913 1.403 . S
C1911 C1908 1.403 . S
C1911 C1912 1.524 . S
C1911 C1915 1.400 . S
C1912 H1897 0.960 . S
C1912 H1898 0.960 . S
C1912 H1899 0.960 . S
C1912 C1911 1.524 . S
C1913 C1910 1.403 . S
C1913 C1914 1.392 . S
C1913 C1917 1.495 . S
C1914 C1913 1.392 . S
C1914 C1915 1.385 . S
C1914 C1916 1.478 . S
C1915 H1909 0.930 . S
C1915 C1911 1.400 . S
C1915 C1914 1.385 . S
C1916 C1914 1.478 . S
C1916 C1918 1.381 . S
C1916 C1922 1.383 . S
C1917 C1913 1.495 . S
C1917 H1923 0.959 . S
C1917 H1924 0.961 . S
C1917 H1925 0.960 . S
C1918 C1916 1.381 . S
C1918 C1919 1.394 . S
C1918 H1926 0.930 . S
C1919 C1918 1.394 . S
C1919 C1920 1.383 . S
C1919 H1927 0.929 . S
C1920 C1919 1.383 . S
C1920 C1921 1.377 . S
C1921 H1905 0.930 . S
C1921 C1920 1.377 . S
C1921 C1922 1.379 . S
C1922 H1906 0.931 . S
C1922 C1916 1.383 . S
C1922 C1921 1.379 . S
H1923 C1917 0.959 . S
H1924 C1917 0.961 . S
H1925 C1917 0.960 . S
H1926 C1918 0.930 . S
H1927 C1919 0.929 . S
H1928 C1936 0.929 . S
H1929 C1938 0.930 . S
H1930 C1940 0.930 . S
H1931 C1943 0.929 . S
H1932 C1946 0.930 . S
H1933 C1948 0.960 . S
H1934 C1948 0.960 . S
H1935 C1948 0.960 . S
C1936 H1928 0.929 . S
C1936 C1937 1.377 . S
C1936 C1938 1.384 . S
C1937 C1936 1.377 . S
C1937 C1943 1.390 . S
C1938 H1929 0.930 . S
C1938 C1936 1.384 . S
C1938 C1939 1.372 . S
C1939 C1938 1.372 . S
C1939 C1940 1.400 . S
C1939 C1944 1.490 . S
C1940 H1930 0.930 . S
C1940 C1939 1.400 . S
C1940 C1943 1.386 . S
H1941 C1957 0.930 . S
H1942 C1958 0.931 . S
C1943 H1931 0.929 . S
C1943 C1937 1.390 . S
C1943 C1940 1.386 . S
C1944 C1939 1.490 . S
C1944 C1946 1.395 . S
C1944 C1947 1.403 . S
H1945 C1951 0.930 . S
C1946 H1932 0.930 . S
C1946 C1944 1.395 . S
C1946 C1949 1.403 . S
C1947 C1944 1.403 . S
C1947 C1948 1.524 . S
C1947 C1951 1.400 . S
C1948 H1933 0.960 . S
C1948 H1934 0.960 . S
C1948 H1935 0.960 . S
C1948 C1947 1.524 . S
C1949 C1946 1.403 . S
C1949 C1950 1.392 . S
C1949 C1953 1.495 . S
C1950 C1949 1.392 . S
C1950 C1951 1.385 . S
C1950 C1952 1.478 . S
C1951 H1945 0.930 . S
C1951 C1947 1.400 . S
C1951 C1950 1.385 . S
C1952 C1950 1.478 . S
C1952 C1954 1.381 . S
C1952 C1958 1.383 . S
C1953 C1949 1.495 . S
C1953 H1959 0.959 . S
C1953 H1960 0.961 . S
C1953 H1961 0.960 . S
C1954 C1952 1.381 . S
C1954 C1955 1.394 . S
C1954 H1962 0.930 . S
C1955 C1954 1.394 . S
C1955 C1956 1.383 . S
C1955 H1963 0.929 . S
C1956 C1955 1.383 . S
C1956 C1957 1.377 . S
C1957 H1941 0.930 . S
C1957 C1956 1.377 . S
C1957 C1958 1.379 . S
C1958 H1942 0.931 . S
C1958 C1952 1.383 . S
C1958 C1957 1.379 . S
H1959 C1953 0.959 . S
H1960 C1953 0.961 . S
H1961 C1953 0.960 . S
H1962 C1954 0.930 . S
H1963 C1955 0.929 . S
H1964 C1972 0.929 . S
H1965 C1974 0.930 . S
H1966 C1976 0.930 . S
H1967 C1979 0.929 . S
H1968 C1982 0.930 . S
H1969 C1984 0.960 . S
H1970 C1984 0.960 . S
H1971 C1984 0.960 . S
C1972 H1964 0.929 . S
C1972 C1973 1.377 . S
C1972 C1974 1.384 . S
C1973 C1972 1.377 . S
C1973 C1979 1.390 . S
C1974 H1965 0.930 . S
C1974 C1972 1.384 . S
C1974 C1975 1.372 . S
C1975 C1974 1.372 . S
C1975 C1976 1.400 . S
C1975 C1980 1.490 . S
C1976 H1966 0.930 . S
C1976 C1975 1.400 . S
C1976 C1979 1.386 . S
H1977 C1993 0.930 . S
H1978 C1994 0.931 . S
C1979 H1967 0.929 . S
C1979 C1973 1.390 . S
C1979 C1976 1.386 . S
C1980 C1975 1.490 . S
C1980 C1982 1.395 . S
C1980 C1983 1.403 . S
H1981 C1987 0.930 . S
C1982 H1968 0.930 . S
C1982 C1980 1.395 . S
C1982 C1985 1.403 . S
C1983 C1980 1.403 . S
C1983 C1984 1.524 . S
C1983 C1987 1.400 . S
C1984 H1969 0.960 . S
C1984 H1970 0.960 . S
C1984 H1971 0.960 . S
C1984 C1983 1.524 . S
C1985 C1982 1.403 . S
C1985 C1986 1.392 . S
C1985 C1989 1.495 . S
C1986 C1985 1.392 . S
C1986 C1987 1.385 . S
C1986 C1988 1.478 . S
C1987 H1981 0.930 . S
C1987 C1983 1.400 . S
C1987 C1986 1.385 . S
C1988 C1986 1.478 . S
C1988 C1990 1.381 . S
C1988 C1994 1.383 . S
C1989 C1985 1.495 . S
C1989 H1995 0.959 . S
C1989 H1996 0.961 . S
C1989 H1997 0.960 . S
C1990 C1988 1.381 . S
C1990 C1991 1.394 . S
C1990 H1998 0.930 . S
C1991 C1990 1.394 . S
C1991 C1992 1.383 . S
C1991 H1999 0.929 . S
C1992 C1991 1.383 . S
C1992 C1993 1.377 . S
C1993 H1977 0.930 . S
C1993 C1992 1.377 . S
C1993 C1994 1.379 . S
C1994 H1978 0.931 . S
C1994 C1988 1.383 . S
C1994 C1993 1.379 . S
H1995 C1989 0.959 . S
H1996 C1989 0.961 . S
H1997 C1989 0.960 . S
H1998 C1990 0.930 . S
H1999 C1991 0.929 . S
H2000 C2008 0.929 . S
H2001 C2010 0.930 . S
H2002 C2012 0.930 . S
H2003 C2015 0.929 . S
H2004 C2018 0.930 . S
H2005 C2020 0.960 . S
H2006 C2020 0.960 . S
H2007 C2020 0.960 . S
C2008 H2000 0.929 . S
C2008 C2009 1.377 . S
C2008 C2010 1.384 . S
C2009 C2008 1.377 . S
C2009 C2015 1.390 . S
C2010 H2001 0.930 . S
C2010 C2008 1.384 . S
C2010 C2011 1.372 . S
C2011 C2010 1.372 . S
C2011 C2012 1.400 . S
C2011 C2016 1.490 . S
C2012 H2002 0.930 . S
C2012 C2011 1.400 . S
C2012 C2015 1.386 . S
H2013 C2029 0.930 . S
H2014 C2030 0.931 . S
C2015 H2003 0.929 . S
C2015 C2009 1.390 . S
C2015 C2012 1.386 . S
C2016 C2011 1.490 . S
C2016 C2018 1.395 . S
C2016 C2019 1.403 . S
H2017 C2023 0.930 . S
C2018 H2004 0.930 . S
C2018 C2016 1.395 . S
C2018 C2021 1.403 . S
C2019 C2016 1.403 . S
C2019 C2020 1.524 . S
C2019 C2023 1.400 . S
C2020 H2005 0.960 . S
C2020 H2006 0.960 . S
C2020 H2007 0.960 . S
C2020 C2019 1.524 . S
C2021 C2018 1.403 . S
C2021 C2022 1.392 . S
C2021 C2025 1.495 . S
C2022 C2021 1.392 . S
C2022 C2023 1.385 . S
C2022 C2024 1.478 . S
C2023 H2017 0.930 . S
C2023 C2019 1.400 . S
C2023 C2022 1.385 . S
C2024 C2022 1.478 . S
C2024 C2026 1.381 . S
C2024 C2030 1.383 . S
C2025 C2021 1.495 . S
C2025 H2031 0.959 . S
C2025 H2032 0.961 . S
C2025 H2033 0.960 . S
C2026 C2024 1.381 . S
C2026 C2027 1.394 . S
C2026 H2034 0.930 . S
C2027 C2026 1.394 . S
C2027 C2028 1.383 . S
C2027 H2035 0.929 . S
C2028 C2027 1.383 . S
C2028 C2029 1.377 . S
C2029 H2013 0.930 . S
C2029 C2028 1.377 . S
C2029 C2030 1.379 . S
C2030 H2014 0.931 . S
C2030 C2024 1.383 . S
C2030 C2029 1.379 . S
H2031 C2025 0.959 . S
H2032 C2025 0.961 . S
H2033 C2025 0.960 . S
H2034 C2026 0.930 . S
H2035 C2027 0.929 . S
H2036 C2044 0.929 . S
H2037 C2046 0.930 . S
H2038 C2048 0.930 . S
H2039 C2051 0.929 . S
H2040 C2054 0.930 . S
H2041 C2056 0.960 . S
H2042 C2056 0.960 . S
H2043 C2056 0.960 . S
C2044 H2036 0.929 . S
C2044 C2045 1.377 . S
C2044 C2046 1.384 . S
C2045 C2044 1.377 . S
C2045 C2051 1.390 . S
C2046 H2037 0.930 . S
C2046 C2044 1.384 . S
C2046 C2047 1.372 . S
C2047 C2046 1.372 . S
C2047 C2048 1.400 . S
C2047 C2052 1.490 . S
C2048 H2038 0.930 . S
C2048 C2047 1.400 . S
C2048 C2051 1.386 . S
H2049 C2065 0.930 . S
H2050 C2066 0.931 . S
C2051 H2039 0.929 . S
C2051 C2045 1.390 . S
C2051 C2048 1.386 . S
C2052 C2047 1.490 . S
C2052 C2054 1.395 . S
C2052 C2055 1.403 . S
H2053 C2059 0.930 . S
C2054 H2040 0.930 . S
C2054 C2052 1.395 . S
C2054 C2057 1.403 . S
C2055 C2052 1.403 . S
C2055 C2056 1.524 . S
C2055 C2059 1.400 . S
C2056 H2041 0.960 . S
C2056 H2042 0.960 . S
C2056 H2043 0.960 . S
C2056 C2055 1.524 . S
C2057 C2054 1.403 . S
C2057 C2058 1.392 . S
C2057 C2061 1.495 . S
C2058 C2057 1.392 . S
C2058 C2059 1.385 . S
C2058 C2060 1.478 . S
C2059 H2053 0.930 . S
C2059 C2055 1.400 . S
C2059 C2058 1.385 . S
C2060 C2058 1.478 . S
C2060 C2062 1.381 . S
C2060 C2066 1.383 . S
C2061 C2057 1.495 . S
C2061 H2067 0.959 . S
C2061 H2068 0.961 . S
C2061 H2069 0.960 . S
C2062 C2060 1.381 . S
C2062 C2063 1.394 . S
C2062 H2070 0.930 . S
C2063 C2062 1.394 . S
C2063 C2064 1.383 . S
C2063 H2071 0.929 . S
C2064 C2063 1.383 . S
C2064 C2065 1.377 . S
C2065 H2049 0.930 . S
C2065 C2064 1.377 . S
C2065 C2066 1.379 . S
C2066 H2050 0.931 . S
C2066 C2060 1.383 . S
C2066 C2065 1.379 . S
H2067 C2061 0.959 . S
H2068 C2061 0.961 . S
H2069 C2061 0.960 . S
H2070 C2062 0.930 . S
H2071 C2063 0.929 . S
C948 C525 1.604 . S
C929 C47 1.494 . S
C984 C578 1.329 . S
C965 C115 1.305 . S
C1020 C641 1.574 . S
C1001 C153 1.462 . S
C1056 C684 1.440 . S
C1037 C233 1.333 . S
C1073 C283 1.528 . S
C1092 C640 1.556 . S
C1128 C677 1.438 . S
C1109 C357 1.355 . S
C1164 C518 1.641 . S
C1145 C401 1.516 . S
C1200 C571 1.306 . S
C1181 C463 1.197 . S
C1236 C624 1.411 . S
C1217 C469 1.369 . S
C1272 C693 1.806 . S
C1253 C277 1.688 . S
C1308 C534 1.571 . S
C1289 C363 1.549 . S
C1344 C587 1.609 . S
C1325 C407 1.579 . S
C1380 C535 1.568 . S
C1361 C109 1.456 . S
C1416 C588 1.678 . S
C1397 C159 1.637 . S
C1452 C631 1.390 . S
C1433 C239 1.351 . S
C1488 C694 1.728 . S
C1469 C53 1.703 . S
C1524 C737 1.581 . S
C1505 C481 1.464 . S
C1541 C301 1.662 . S
C1560 C790 1.698 . S
C1577 C339 1.482 . S
C1596 C852 1.602 . S
C1613 C419 1.724 . S
C1632 C906 1.840 . S
C1649 C97 1.494 . S
C1668 C853 1.529 . S
C1685 C171 1.759 . S
C1704 C905 1.865 . S
C1721 C215 1.525 . S
C1740 C730 1.645 . S
C1776 C783 1.711 . S
C1757 C29 1.567 . S
C1812 C843 1.375 . S
C1793 C35 1.345 . S
C1829 C91 1.260 . S
C1848 C889 1.357 . S
C1865 C177 1.581 . S
C1884 C746 1.599 . S
C1901 C221 1.216 . S
C1920 C799 1.240 . S
C1956 C747 1.542 . S
C1937 C295 1.426 . S
C1992 C800 1.302 . S
C1973 C345 1.277 . S
C2009 C425 1.380 . S
C2028 C836 1.415 . S
C2064 C896 1.298 . S
C2045 C487 1.274 . S
