# Generated by pormake.
# Topology anh, (6,3)-cn, num edge types: 1
# Building blocks:
#     Node 0, Type 0, BuildingBlock: CUWYAW_clean_sbu_0, # of connection points: 6
#     Node 1, Type 0, BuildingBlock: CUWYAW_clean_sbu_0, # of connection points: 6
#     Node 2, Type 0, BuildingBlock: CUWYAW_clean_sbu_0, # of connection points: 6
#     Node 3, Type 1, BuildingBlock: ESEHIV_clean_linker_0, # of connection points: 3
#     Node 4, Type 1, BuildingBlock: ESEHIV_clean_linker_0, # of connection points: 3
#     Node 5, Type 1, BuildingBlock: ESEHIV_clean_linker_0, # of connection points: 3
#     Node 6, Type 1, BuildingBlock: ESEHIV_clean_linker_0, # of connection points: 3
#     Node 7, Type 1, BuildingBlock: ESEHIV_clean_linker_0, # of connection points: 3
#     Node 8, Type 1, BuildingBlock: ESEHIV_clean_linker_0, # of connection points: 3
#     Edge 9, Type (0, 1), BuildingBlock: CIFDUS_clean_linker_0, # of connection points: 2
#     Edge 10, Type (0, 1), BuildingBlock: CIFDUS_clean_linker_0, # of connection points: 2
#     Edge 11, Type (0, 1), BuildingBlock: CIFDUS_clean_linker_0, # of connection points: 2
#     Edge 12, Type (0, 1), BuildingBlock: CIFDUS_clean_linker_0, # of connection points: 2
#     Edge 13, Type (0, 1), BuildingBlock: CIFDUS_clean_linker_0, # of connection points: 2
#     Edge 14, Type (0, 1), BuildingBlock: CIFDUS_clean_linker_0, # of connection points: 2
#     Edge 15, Type (0, 1), BuildingBlock: CIFDUS_clean_linker_0, # of connection points: 2
#     Edge 16, Type (0, 1), BuildingBlock: CIFDUS_clean_linker_0, # of connection points: 2
#     Edge 17, Type (0, 1), BuildingBlock: CIFDUS_clean_linker_0, # of connection points: 2
#     Edge 18, Type (0, 1), BuildingBlock: CIFDUS_clean_linker_0, # of connection points: 2
#     Edge 19, Type (0, 1), BuildingBlock: CIFDUS_clean_linker_0, # of connection points: 2
#     Edge 20, Type (0, 1), BuildingBlock: CIFDUS_clean_linker_0, # of connection points: 2
#     Edge 21, Type (0, 1), BuildingBlock: CIFDUS_clean_linker_0, # of connection points: 2
#     Edge 22, Type (0, 1), BuildingBlock: CIFDUS_clean_linker_0, # of connection points: 2
#     Edge 23, Type (0, 1), BuildingBlock: CIFDUS_clean_linker_0, # of connection points: 2
#     Edge 24, Type (0, 1), BuildingBlock: CIFDUS_clean_linker_0, # of connection points: 2
#     Edge 25, Type (0, 1), BuildingBlock: CIFDUS_clean_linker_0, # of connection points: 2
#     Edge 26, Type (0, 1), BuildingBlock: CIFDUS_clean_linker_0, # of connection points: 2
# Relax obj value: 0.363
# Max RMSD: 0.201
# Mean RMSD: 0.170
data_MOF--net-anh--node1-CUWYAW_clean_sbu_0--node2-ESEHIV_clean_linker_0--edge1-CIFDUS_clean_linker_0
_symmetry_space_group_name_H-M    P1
_symmetry_Int_Tables_number       1
_symmetry_cell_setting            triclinic
loop_
_symmetry_equiv_pos_as_xyz
'x, y, z'
_cell_length_a     25.395484
_cell_length_b     25.323117
_cell_length_c     45.861097
_cell_angle_alpha  90.196738
_cell_angle_beta   90.357151
_cell_angle_gamma 119.56235
loop_
_atom_site_label
_atom_site_type_symbol
_atom_site_fract_x
_atom_site_fract_y
_atom_site_fract_z
_atom_type_partial_charge
C0 C 1.04753 0.40896 0.14744 0.0
Eu1 Eu 0.123 0.52498 0.14916 0.0
C2 C 0.98113 0.37657 0.14806 0.0
C3 C 0.9509 0.33005 0.16828 0.0
C4 C 0.88929 0.30716 0.17321 0.0
C5 C 0.85747 0.33113 0.15822 0.0
C6 C 0.88702 0.37564 0.13701 0.0
C7 C 0.94828 0.3977 0.1317 0.0
C8 C 0.15856 0.5861 0.20156 0.0
C9 C 1.0329 0.59019 0.13688 0.0
C10 C 0.24965 0.76316 0.13917 0.0
Eu11 Eu 0.17921 0.64661 0.13824 0.0
C12 C 0.24523 0.81689 0.14611 0.0
C13 C 0.28215 0.8706 0.13123 0.0
C14 C 0.28533 0.92461 0.1402 0.0
C15 C 0.25173 0.92529 0.16429 0.0
C16 C 0.21044 0.8702 0.17738 0.0
C17 C 0.20719 0.81611 0.16832 0.0
C18 C 0.13858 0.57967 0.08936 0.0
C19 C 0.26972 0.5829 0.1349 0.0
O20 O 1.07228 0.44115 0.12422 0.0
O21 O 1.07406 0.43809 0.17142 0.0
O22 O 0.16656 0.54131 0.19375 0.0
O23 O 0.13464 0.5999 0.18036 0.0
O24 O 1.03646 0.53903 0.13966 0.0
O25 O 1.08543 0.64184 0.13835 0.0
O26 O 0.22006 0.73322 0.11593 0.0
O27 O 0.24487 0.72805 0.16107 0.0
O28 O 0.12961 0.62474 0.09493 0.0
O29 O 0.16781 0.57233 0.10959 0.0
O30 O 0.26473 0.63306 0.13381 0.0
O31 O 0.2184 0.5313 0.14041 0.0
H32 H 0.97557 0.31363 0.18126 0.0
H33 H 0.86732 0.27322 0.18992 0.0
H34 H 0.86315 0.39455 0.12521 0.0
H35 H 0.97033 0.43323 0.11573 0.0
H36 H 0.31103 0.87136 0.11374 0.0
H37 H 0.31801 0.9664 0.1299 0.0
H38 H 0.18386 0.86963 0.19589 0.0
H39 H 0.17747 0.77444 0.17962 0.0
C40 C 0.56755 0.20733 0.49075 0.0
Eu41 Eu 0.61134 0.13497 0.48239 0.0
C42 C 0.59941 0.27362 0.48906 0.0
C43 C 0.59854 0.30666 0.51341 0.0
C44 C 0.64299 0.36715 0.51686 0.0
C45 C 0.68827 0.39509 0.49589 0.0
C46 C 0.68633 0.36397 0.47033 0.0
C47 C 0.64184 0.30334 0.46683 0.0
C48 C 0.6355 0.0891 0.53193 0.0
C49 C 0.76307 0.23256 0.46948 0.0
C50 C 0.7217 1.01436 0.4632 0.0
Eu51 Eu 0.67764 0.08718 0.46746 0.0
C52 C 0.76986 1.00624 0.47565 0.0
C53 C 0.79767 0.98173 0.45822 0.0
C54 C 0.83718 0.9649 0.47082 0.0
C55 C 0.84858 0.97235 0.50092 0.0
C56 C 0.82413 1.00121 0.51785 0.0
C57 C 0.78497 1.0182 0.50526 0.0
C58 C 0.6541 0.13357 0.41974 0.0
C59 C 0.52453 0.99192 0.4636 0.0
O60 O 0.56037 0.17779 0.46641 0.0
O61 O 0.58672 0.18664 0.51182 0.0
O62 O 0.58215 1.07507 0.52232 0.0
O63 O 0.67472 0.1217 0.51294 0.0
O64 O 0.70625 0.22386 0.46996 0.0
O65 O 0.76613 0.18199 0.47276 0.0
O66 O 0.73848 1.06141 0.44654 0.0
O67 O 0.67789 1.0055 0.48084 0.0
O68 O 0.70598 0.13802 0.42526 0.0
O69 O 0.61558 0.10245 0.43871 0.0
O70 O 0.58031 0.99997 0.45992 0.0
O71 O 0.52279 1.04115 0.47256 0.0
H72 H 0.56677 0.28432 0.53089 0.0
H73 H 0.64439 0.391 0.53678 0.0
H74 H 0.72129 0.38528 0.45407 0.0
H75 H 0.64374 0.27867 0.44789 0.0
H76 H 0.78647 0.97283 0.43523 0.0
H77 H 0.85536 0.94235 0.4575 0.0
H78 H 0.83276 1.00756 0.54113 0.0
H79 H 0.76428 1.03783 0.51892 0.0
C80 C 0.84144 0.67649 0.81621 0.0
Eu81 Eu 0.72503 0.63191 0.81626 0.0
C82 C 0.87763 0.64824 0.80862 0.0
C83 C 0.92385 0.65637 0.82788 0.0
C84 C 0.94092 0.6121 0.82982 0.0
C85 C 0.91229 0.55944 0.81222 0.0
C86 C 0.8727 0.55621 0.78994 0.0
C87 C 0.85513 0.60032 0.78826 0.0
C88 C 0.66695 0.61898 0.86898 0.0
C89 C 0.66419 0.47996 0.80383 0.0
C90 C 0.48511 0.50201 0.81323 0.0
Eu91 Eu 0.59997 0.56805 0.80844 0.0
C92 C 0.42012 0.46474 0.81594 0.0
C93 C 0.39253 0.40149 0.81306 0.0
C94 C 0.3306 0.36565 0.81783 0.0
C95 C 0.29614 0.39325 0.82479 0.0
C96 C 0.32389 0.45675 0.82691 0.0
C97 C 0.38573 0.49231 0.82271 0.0
C98 C 0.65992 0.60505 0.75784 0.0
C99 C 0.66378 0.71885 0.80059 0.0
O100 O 0.81221 0.68548 0.79495 0.0
O101 O 0.80783 0.65234 0.83912 0.0
O102 O 0.71088 0.66917 0.85918 0.0
O103 O 0.65278 0.57829 0.84953 0.0
O104 O 0.7145 0.53429 0.80715 0.0
O105 O 0.61163 0.48034 0.80499 0.0
O106 O 0.51741 0.54603 0.83171 0.0
O107 O 0.51467 0.49409 0.79202 0.0
O108 O 0.61322 0.61121 0.76332 0.0
O109 O 0.67143 0.58095 0.77871 0.0
O110 O 0.61294 0.66842 0.80827 0.0
O111 O 0.71325 0.71309 0.79875 0.0
H112 H 0.94132 0.69285 0.84387 0.0
H113 H 0.97139 0.61621 0.8474 0.0
H114 H 0.85136 0.51701 0.77559 0.0
H115 H 0.81943 0.5934 0.77318 0.0
H116 H 0.41913 0.37988 0.80802 0.0
H117 H 0.30975 0.31668 0.81637 0.0
H118 H 0.29802 0.4787 0.83277 0.0
H119 H 0.40679 0.5412 0.82504 0.0
H120 H 0.44849 0.19837 0.29967 0.0
H121 H 0.63133 0.32886 0.27749 0.0
H122 H 0.50172 0.23319 0.20998 0.0
C123 C 0.4818 0.22512 0.28349 0.0
C124 C 0.46648 0.21276 0.25383 0.0
C125 C 0.54186 0.26435 0.29228 0.0
C126 C 0.58459 0.29901 0.27107 0.0
C127 C 0.56987 0.28797 0.24137 0.0
C128 C 0.5109 0.24517 0.23288 0.0
H129 H 0.92934 0.79212 0.63951 0.0
H130 H 0.88651 0.60811 0.62403 0.0
H131 H 0.95143 0.73678 0.55441 0.0
C132 C 0.93142 0.75846 0.6256 0.0
C133 C 0.9413 0.77027 0.59578 0.0
C134 C 0.90933 0.69929 0.63586 0.0
C135 C 0.90823 0.65495 0.61698 0.0
C136 C 0.92432 0.66838 0.58752 0.0
C137 C 0.94428 0.72754 0.57755 0.0
H138 H 0.97046 0.39757 0.95093 0.0
H139 H 1.0586 0.29104 0.95784 0.0
H140 H 0.94996 0.27517 0.88251 0.0
C141 C 0.97524 0.35941 0.94361 0.0
C142 C 0.95668 0.33805 0.91522 0.0
C143 C 1.00955 0.34029 0.96013 0.0
C144 C 1.02656 0.30069 0.94686 0.0
C145 C 1.00916 0.28087 0.9178 0.0
C146 C 0.96508 0.29124 0.90458 0.0
H147 H 1.06068 0.5196 0.38388 0.0
H148 H 0.22772 0.68876 0.38134 0.0
H149 H 0.14292 0.61519 0.46471 0.0
C150 C 1.09572 0.55816 0.39575 0.0
C151 C 1.09188 0.55899 0.42659 0.0
C152 C 0.14424 0.60399 0.37952 0.0
C153 C 0.19169 0.65456 0.39437 0.0
C154 C 0.19446 0.66186 0.42524 0.0
C155 C 0.14303 0.61234 0.44117 0.0
H156 H 0.6697 0.18917 0.71501 0.0
H157 H 0.66702 1.01817 0.71225 0.0
H158 H 0.64943 0.09128 0.7952 0.0
C159 C 0.66781 0.15124 0.72673 0.0
C160 C 0.66075 0.14975 0.75747 0.0
C161 C 0.66925 0.10424 0.71019 0.0
C162 C 0.66553 1.05324 0.72517 0.0
C163 C 0.65941 1.04592 0.75605 0.0
C164 C 0.65535 0.09499 0.77182 0.0
H165 H 0.57026 0.59321 0.04929 0.0
H166 H 0.7417 0.59863 0.05127 0.0
H167 H 0.64062 0.56685 0.13134 0.0
C168 C 0.60479 0.59043 0.06207 0.0
C169 C 0.59665 0.58101 0.0927 0.0
C170 C 0.65634 0.59654 0.04717 0.0
C171 C 0.70297 0.59386 0.06324 0.0
C172 C 0.70037 0.58287 0.09368 0.0
C173 C 0.64511 0.57538 0.10814 0.0
H174 H 0.33312 0.51627 0.15297 0.0
H175 H 0.35319 0.65932 0.09551 0.0
H176 H 0.44944 0.67163 0.07865 0.0
H177 H 0.53161 0.64379 0.07869 0.0
H178 H 0.51911 0.5065 0.13786 0.0
H179 H 0.42109 0.49208 0.15498 0.0
C180 C 0.35803 0.55028 0.1367 0.0
C181 C 0.33209 0.58642 0.12579 0.0
C182 C 0.41715 0.559 0.12713 0.0
C183 C 0.36878 0.63023 0.1049 0.0
C184 C 0.42516 0.63751 0.095 0.0
C185 C 0.50827 0.61033 0.09542 0.0
C186 C 0.5363 0.57628 0.10631 0.0
C187 C 0.45051 0.60247 0.10575 0.0
C188 C 0.50215 0.53445 0.1285 0.0
C189 C 0.44456 0.52574 0.13835 0.0
H190 H 0.89294 0.29582 0.48676 0.0
H191 H 0.76869 0.32092 0.43197 0.0
H192 H 0.85213 0.41762 0.41525 0.0
H193 H 0.96351 0.49807 0.41377 0.0
H194 H 1.08773 0.48049 0.47174 0.0
H195 H 1.00448 0.38282 0.48874 0.0
C196 C 0.88318 0.32203 0.47124 0.0
C197 C 0.82073 0.29701 0.46104 0.0
C198 C 0.93332 0.38148 0.46188 0.0
C199 C 0.81335 0.33556 0.44097 0.0
C200 C 0.86233 0.39223 0.43109 0.0
C201 C 0.97318 0.47405 0.43057 0.0
C202 C 1.03532 0.50086 0.44116 0.0
C203 C 0.92305 0.41639 0.4411 0.0
C204 C 1.04283 0.46509 0.46288 0.0
C205 C 0.99406 0.40752 0.47262 0.0
H206 H 0.60258 0.7866 0.82039 0.0
H207 H 0.73231 0.79703 0.75722 0.0
H208 H 0.74256 0.89211 0.73904 0.0
H209 H 0.71674 0.97622 0.73958 0.0
H210 H 0.59304 0.97304 0.80427 0.0
H211 H 0.58047 0.87618 0.82254 0.0
C212 C 0.63322 0.80908 0.80256 0.0
C213 C 0.66627 0.78073 0.79053 0.0
C214 C 0.6408 0.86757 0.79213 0.0
C215 C 0.70578 0.8145 0.7676 0.0
C216 C 0.71182 0.87022 0.75692 0.0
C217 C 0.6866 0.95518 0.75774 0.0
C218 C 0.65579 0.98566 0.7698 0.0
C219 C 0.6799 0.89797 0.7688 0.0
C220 C 0.61837 0.95429 0.79385 0.0
C221 C 0.61072 0.89729 0.80442 0.0
H222 H 0.90187 0.5153 0.1515 0.0
H223 H 1.02336 0.67189 0.10138 0.0
H224 H 0.93848 0.68407 0.08519 0.0
H225 H 0.82804 0.65259 0.08361 0.0
H226 H 0.70389 0.50144 0.13558 0.0
H227 H 0.78846 0.48683 0.15202 0.0
C228 C 0.91053 0.55234 0.13701 0.0
C229 C 0.97274 0.59244 0.12801 0.0
C230 C 0.85932 0.56094 0.12787 0.0
C231 C 0.97884 0.63974 0.10933 0.0
C232 C 0.92915 0.64699 0.09981 0.0
C233 C 0.81838 0.61626 0.09876 0.0
C234 C 0.75618 0.57848 0.10782 0.0
C235 C 0.86881 0.6083 0.10876 0.0
C236 C 0.74889 0.53259 0.12783 0.0
C237 C 0.79839 0.52378 0.13727 0.0
H238 H 0.39778 0.92765 0.48433 0.0
H239 H 0.51402 0.90659 0.42291 0.0
H240 H 0.42939 0.80943 0.40692 0.0
H241 H 0.32015 0.72674 0.40867 0.0
H242 H 0.2029 0.74063 0.47191 0.0
H243 H 0.28725 0.83928 0.4882 0.0
C244 C 0.40533 0.90235 0.46737 0.0
C245 C 0.46577 0.9285 0.45505 0.0
C246 C 0.35457 0.84268 0.45831 0.0
C247 C 0.47077 0.89111 0.43336 0.0
C248 C 0.4212 0.83413 0.42397 0.0
C249 C 0.3119 0.75042 0.42619 0.0
C250 C 0.25149 0.72234 0.43848 0.0
C251 C 0.36242 0.80871 0.43605 0.0
C252 C 0.24635 0.75728 0.4615 0.0
C253 C 0.2957 0.81534 0.47087 0.0
H254 H 0.59614 0.34962 0.81965 0.0
H255 H 0.74315 0.47286 0.76534 0.0
H256 H 0.75646 0.38888 0.74803 0.0
H257 H 0.72696 0.27806 0.74619 0.0
H258 H 0.5847 0.15303 0.80206 0.0
H259 H 0.57056 0.23699 0.82006 0.0
C260 C 0.63143 0.35888 0.80405 0.0
C261 C 0.66883 0.42126 0.79438 0.0
C262 C 0.64021 0.30824 0.79406 0.0
C263 C 0.71375 0.42823 0.77411 0.0
C264 C 0.72132 0.37898 0.76384 0.0
C265 C 0.69274 0.26812 0.76251 0.0
C266 C 0.6572 0.20574 0.77218 0.0
C267 C 0.68508 0.31834 0.77341 0.0
C268 C 0.61401 0.19811 0.79372 0.0
C269 C 0.60544 0.24726 0.80406 0.0
H270 H 0.80261 0.89613 0.54519 0.0
H271 H 0.95618 0.97727 0.48804 0.0
H272 H 1.00135 0.92364 0.51344 0.0
H273 H 0.99615 0.85364 0.55252 0.0
H274 H 0.83786 0.771 0.6069 0.0
H275 H 0.79627 0.82664 0.58257 0.0
C276 C 0.84657 0.90296 0.53867 0.0
C277 C 0.87718 0.94153 0.51554 0.0
C278 C 0.87171 0.87254 0.55319 0.0
C279 C 0.93261 0.94816 0.50624 0.0
C280 C 0.9583 0.91775 0.52074 0.0
C281 C 0.95334 0.84919 0.55933 0.0
C282 C 0.92187 0.81092 0.58258 0.0
C283 C 0.9284 0.88015 0.54446 0.0
C284 C 0.86498 0.80316 0.59044 0.0
C285 C 0.84038 0.83398 0.5761 0.0
H286 H 1.00951 0.55336 0.83208 0.0
H287 H 0.81828 0.44239 0.81427 0.0
H288 H 0.81539 0.36022 0.843 0.0
H289 H 0.86428 0.32625 0.8798 0.0
H290 H 1.05225 0.44459 0.90181 0.0
H291 H 1.05884 0.51839 0.86607 0.0
C292 C 0.96734 0.51092 0.83423 0.0
C293 C 0.91427 0.50455 0.82149 0.0
C294 C 0.96492 0.46592 0.85254 0.0
C295 C 0.86018 0.44859 0.82369 0.0
C296 C 0.85813 0.40187 0.84063 0.0
C297 C 0.90629 0.36833 0.87665 0.0
C298 C 0.9571 0.38123 0.89379 0.0
C299 C 0.90959 0.41119 0.8563 0.0
C300 C 1.0121 0.43501 0.8893 0.0
C301 C 1.01614 0.47679 0.8687 0.0
H302 H 0.27573 0.94706 0.22131 0.0
H303 H 0.27413 1.03378 0.1408 0.0
H304 H 0.33313 0.13361 0.16402 0.0
H305 H 0.39769 0.19473 0.20483 0.0
H306 H 0.40958 0.10359 0.28216 0.0
H307 H 0.33133 1.00757 0.26316 0.0
C308 C 0.286 0.98767 0.20914 0.0
C309 C 0.2706 0.98333 0.17947 0.0
C310 C 0.32199 1.04435 0.22216 0.0
C311 C 0.28564 1.03634 0.16374 0.0
C312 C 0.31959 0.09325 0.17695 0.0
C313 C 0.38265 0.15399 0.21768 0.0
C314 C 0.40996 0.15708 0.24489 0.0
C315 C 0.34021 0.0977 0.20579 0.0
C316 C 0.38899 0.10372 0.26145 0.0
C317 C 0.34463 1.04814 0.2504 0.0
H318 H 0.78337 0.41313 0.52844 0.0
H319 H 0.70854 0.50618 0.47978 0.0
H320 H 0.78536 0.60358 0.50053 0.0
H321 H 0.85978 0.65706 0.53861 0.0
H322 H 0.93243 0.56433 0.58962 0.0
H323 H 0.87024 0.47099 0.56161 0.0
C324 C 0.78536 0.45523 0.52191 0.0
C325 C 0.7411 0.45361 0.5029 0.0
C326 C 0.8284 0.51029 0.53452 0.0
C327 C 0.74279 0.50737 0.4944 0.0
C328 C 0.78631 0.56262 0.50636 0.0
C329 C 0.86441 0.61744 0.54286 0.0
C330 C 0.9009 0.61766 0.56616 0.0
C331 C 0.82764 0.5641 0.52729 0.0
C332 C 0.90454 0.56508 0.57183 0.0
C333 C 0.86884 0.5118 0.55594 0.0
H334 H 0.2477 0.30757 0.86637 0.0
H335 H 0.20316 0.40049 0.80041 0.0
H336 H 1.10253 0.36161 0.82091 0.0
H337 H 1.03888 0.32066 0.86209 0.0
H338 H 1.08043 0.22827 0.93005 0.0
H339 H 0.17192 0.24797 0.90389 0.0
C340 C 0.21487 0.31716 0.85598 0.0
C341 C 0.23212 0.35688 0.83219 0.0
C342 C 0.15775 0.29604 0.86843 0.0
C343 C 0.19025 0.37009 0.81887 0.0
C344 C 0.13307 0.34812 0.83064 0.0
C345 C 1.06527 0.30141 0.87094 0.0
C346 C 1.05218 0.27326 0.89851 0.0
C347 C 0.11763 0.3135 0.85615 0.0
C348 C 1.08957 0.25109 0.90926 0.0
C349 C 0.14198 0.26236 0.8943 0.0
H350 H 0.81661 0.40633 0.17521 0.0
H351 H 0.76099 0.21737 0.16152 0.0
H352 H 0.66185 0.18792 0.18236 0.0
H353 H 0.59656 0.21575 0.20956 0.0
H354 H 0.65549 0.40387 0.22785 0.0
H355 H 0.74794 0.43452 0.19978 0.0
C356 C 0.78208 0.35884 0.17622 0.0
C357 C 0.79539 0.31385 0.16689 0.0
C358 C 0.72626 0.34242 0.18911 0.0
C359 C 0.75124 0.25244 0.1687 0.0
C360 C 0.69483 0.23573 0.1806 0.0
C361 C 0.62892 0.26351 0.2066 0.0
C362 C 0.61943 0.30777 0.22026 0.0
C363 C 0.68255 0.28027 0.19156 0.0
C364 C 0.66209 0.3694 0.21716 0.0
C365 C 0.71483 0.38672 0.20127 0.0
H366 H 0.17873 0.51521 0.05966 0.0
H367 H 1.0238 0.53998 0.07049 0.0
H368 H 0.96603 0.45826 0.0353 0.0
H369 H 0.96155 0.38362 0.00021 0.0
H370 H 0.12368 0.3739 0.98238 0.0
H371 H 0.17528 0.44275 0.02276 0.0
C372 C 0.13238 0.50262 0.05409 0.0
C373 C 1.10538 0.53335 0.06714 0.0
C374 C 1.10041 0.45738 0.03313 0.0
C375 C 1.04548 0.51722 0.06014 0.0
C376 C 1.01241 0.47029 0.0403 0.0
C377 C 1.00833 0.39667 0.00492 0.0
C378 C 1.03817 0.37328 0.98787 0.0
C379 C 1.03974 0.44061 0.02643 0.0
C380 C 1.09836 0.38957 -0.00484 0.0
C381 C 0.12865 0.43015 0.01802 0.0
H382 H 0.5609 0.15586 0.41186 0.0
H383 H 0.72372 0.17782 0.3719 0.0
H384 H 0.70749 0.22801 0.33028 0.0
H385 H 0.64334 0.25807 0.30407 0.0
H386 H 0.4847 0.24474 0.34528 0.0
H387 H 0.50404 0.19985 0.38826 0.0
C388 C 0.59298 0.17216 0.39416 0.0
C389 C 0.64293 0.16266 0.39468 0.0
C390 C 0.58451 0.20286 0.3708 0.0
C391 C 0.6845 0.18411 0.37173 0.0
C392 C 0.67549 0.21311 0.34805 0.0
C393 C 0.61407 0.24787 0.32277 0.0
C394 C 0.56224 0.25453 0.32121 0.0
C395 C 0.62538 0.22223 0.34729 0.0
C396 C 0.52446 0.23941 0.34568 0.0
C397 C 0.53529 0.21344 0.3702 0.0
H398 H 0.73863 0.57011 0.74179 0.0
H399 H 0.66822 0.68768 0.71716 0.0
H400 H 0.743 0.73007 0.67798 0.0
H401 H 0.82786 0.73355 0.65202 0.0
H402 H 0.90133 0.61894 0.6779 0.0
H403 H 0.82631 0.5764 0.71676 0.0
C404 C 0.7402 0.60554 0.72801 0.0
C405 C 0.6989 0.62652 0.73231 0.0
C406 C 0.78407 0.63055 0.70644 0.0
C407 C 0.69961 0.67087 0.71395 0.0
C408 C 0.74262 0.69537 0.69189 0.0
C409 C 0.82876 0.70033 0.6664 0.0
C410 C 0.87079 0.67991 0.66216 0.0
C411 C 0.78538 0.67591 0.68825 0.0
C412 C 0.86972 0.63555 0.68079 0.0
C413 C 0.82672 0.61109 0.70283 0.0
H414 H 0.71256 0.17539 0.57359 0.0
H415 H 0.57656 0.98731 0.564 0.0
H416 H 0.57635 0.97369 0.61675 0.0
H417 H 0.6095 1.01583 0.66682 0.0
H418 H 0.74195 0.20515 0.67711 0.0
H419 H 0.74828 0.21714 0.62416 0.0
C420 C 0.68396 0.13105 0.58294 0.0
C421 C 0.6455 0.08199 0.56416 0.0
C422 C 0.68251 0.12376 0.61404 0.0
C423 C 0.60742 1.0257 0.57738 0.0
C424 C 0.60693 1.01792 0.60783 0.0
C425 C 0.6404 1.05969 0.65763 0.0
C426 C 0.67492 0.10948 0.67679 0.0
C427 C 0.64351 1.06669 0.6266 0.0
C428 C 0.71392 0.16582 0.66362 0.0
C429 C 0.71787 0.17277 0.633 0.0
H430 H 0.7353 0.68726 0.91601 0.0
H431 H 0.57017 0.52236 0.89556 0.0
H432 H 0.55018 0.50184 0.94787 0.0
H433 H 0.58065 0.53006 0.00043 0.0
H434 H 0.75012 0.69136 0.01971 0.0
H435 H 0.76695 0.71353 0.96767 0.0
C436 C 0.69466 0.64688 0.92288 0.0
C437 C 0.65408 0.6068 0.90135 0.0
C438 C 0.68418 0.6345 0.95324 0.0
C439 C 0.60227 0.55434 0.91122 0.0
C440 C 0.59081 0.54255 0.94133 0.0
C441 C 0.62112 0.57025 -0.00674 0.0
C442 C 0.66394 0.60912 0.0145 0.0
C443 C 0.63148 0.58218 0.96272 0.0
C444 C 0.71634 0.66046 0.0043 0.0
C445 C 0.72602 0.67327 0.97434 0.0
H446 H 0.15825 0.52074 0.24919 0.0
H447 H 0.15314 0.68334 0.22709 0.0
H448 H 0.15068 0.70516 0.27931 0.0
H449 H 0.14946 0.67723 0.33234 0.0
H450 H 0.14735 0.51007 0.35251 0.0
H451 H 0.15325 0.49136 0.30068 0.0
C452 C 0.1567 0.56119 0.25561 0.0
C453 C 0.15634 0.60045 0.23367 0.0
C454 C 0.15392 0.57271 0.2858 0.0
C455 C 0.15358 0.65211 0.24304 0.0
C456 C 0.15221 0.66463 0.27311 0.0
C457 C 0.15034 0.63674 0.32537 0.0
C458 C 0.14793 0.59507 0.34683 0.0
C459 C 0.15233 0.62525 0.29487 0.0
C460 C 0.14876 0.54281 0.33693 0.0
C461 C 0.15226 0.53208 0.3071 0.0
loop_
_geom_bond_atom_site_label_1
_geom_bond_atom_site_label_2
_geom_bond_distance
_geom_bond_site_symmetry_2
_ccdc_geom_bond_type
C0 Eu1 2.835 . S
C0 C2 1.500 . S
C0 O20 1.257 . S
C0 O21 1.260 . S
Eu1 C0 2.835 . S
Eu1 O20 2.473 . S
Eu1 O21 2.480 . S
Eu1 O22 2.431 1_655 S
Eu1 O23 2.670 1_655 S
Eu1 O24 2.394 . S
Eu1 O29 2.355 1_655 S
Eu1 O31 2.374 1_655 S
C2 C0 1.500 . S
C2 C3 1.377 . S
C2 C7 1.377 . S
C3 C2 1.377 . S
C3 C4 1.395 . S
C3 H32 0.931 . S
C4 C3 1.395 . S
C4 C5 1.383 . S
C4 H33 0.931 . S
C5 C4 1.383 . S
C5 C6 1.394 . S
C6 C5 1.394 . S
C6 C7 1.378 . S
C6 H34 0.931 . S
C7 C2 1.377 . S
C7 C6 1.378 . S
C7 H35 0.931 . S
C8 O22 1.261 . S
C8 O23 1.270 . S
C9 O24 1.251 . S
C9 O25 1.251 . S
C10 Eu11 2.835 . S
C10 C12 1.500 . S
C10 O26 1.257 . S
C10 O27 1.260 . S
Eu11 C10 2.835 . S
Eu11 O23 2.355 . S
Eu11 O25 2.374 1_455 S
Eu11 O26 2.473 . S
Eu11 O27 2.480 . S
Eu11 O28 2.430 . S
Eu11 O29 2.670 . S
Eu11 O30 2.394 . S
C12 C10 1.500 . S
C12 C13 1.377 . S
C12 C17 1.377 . S
C13 C12 1.377 . S
C13 C14 1.395 . S
C13 H36 0.931 . S
C14 C13 1.395 . S
C14 C15 1.383 . S
C14 H37 0.931 . S
C15 C14 1.383 . S
C15 C16 1.394 . S
C16 C15 1.394 . S
C16 C17 1.378 . S
C16 H38 0.931 . S
C17 C12 1.377 . S
C17 C16 1.378 . S
C17 H39 0.931 . S
C18 O28 1.259 . S
C18 O29 1.270 . S
C19 O30 1.251 . S
C19 O31 1.251 . S
O20 C0 1.257 . S
O20 Eu1 2.473 . S
O21 C0 1.260 . S
O21 Eu1 2.480 . S
O22 Eu1 2.431 1_455 S
O22 C8 1.261 . S
O23 Eu1 2.670 1_455 S
O23 C8 1.270 . S
O23 Eu11 2.355 . S
O24 Eu1 2.394 . S
O24 C9 1.251 . S
O25 C9 1.251 . S
O25 Eu11 2.374 1_655 S
O26 C10 1.257 . S
O26 Eu11 2.473 . S
O27 C10 1.260 . S
O27 Eu11 2.480 . S
O28 Eu11 2.430 . S
O28 C18 1.259 . S
O29 Eu1 2.355 1_455 S
O29 Eu11 2.670 . S
O29 C18 1.270 . S
O30 Eu11 2.394 . S
O30 C19 1.251 . S
O31 Eu1 2.374 1_455 S
O31 C19 1.251 . S
H32 C3 0.931 . S
H33 C4 0.931 . S
H34 C6 0.931 . S
H35 C7 0.931 . S
H36 C13 0.931 . S
H37 C14 0.931 . S
H38 C16 0.931 . S
H39 C17 0.931 . S
C40 Eu41 2.835 . S
C40 C42 1.500 . S
C40 O60 1.257 . S
C40 O61 1.260 . S
Eu41 C40 2.835 . S
Eu41 O60 2.473 . S
Eu41 O61 2.480 . S
Eu41 O62 2.430 . S
Eu41 O63 2.670 . S
Eu41 O64 2.394 . S
Eu41 O69 2.355 . S
Eu41 O71 2.374 1_545 S
C42 C40 1.500 . S
C42 C43 1.377 . S
C42 C47 1.377 . S
C43 C42 1.377 . S
C43 C44 1.395 . S
C43 H72 0.931 . S
C44 C43 1.395 . S
C44 C45 1.383 . S
C44 H73 0.931 . S
C45 C44 1.383 . S
C45 C46 1.394 . S
C46 C45 1.394 . S
C46 C47 1.378 . S
C46 H74 0.931 . S
C47 C42 1.377 . S
C47 C46 1.378 . S
C47 H75 0.931 . S
C48 O62 1.259 . S
C48 O63 1.270 . S
C49 O64 1.251 . S
C49 O65 1.251 . S
C50 Eu51 2.835 . S
C50 C52 1.500 . S
C50 O66 1.257 . S
C50 O67 1.260 . S
Eu51 C50 2.835 . S
Eu51 O63 2.355 1_565 S
Eu51 O65 2.374 1_565 S
Eu51 O66 2.473 . S
Eu51 O67 2.480 . S
Eu51 O68 2.430 1_565 S
Eu51 O69 2.670 1_565 S
Eu51 O70 2.394 . S
C52 C50 1.500 . S
C52 C53 1.377 . S
C52 C57 1.377 . S
C53 C52 1.377 . S
C53 C54 1.395 . S
C53 H76 0.931 . S
C54 C53 1.395 . S
C54 C55 1.383 . S
C54 H77 0.931 . S
C55 C54 1.383 . S
C55 C56 1.394 . S
C56 C55 1.394 . S
C56 C57 1.378 . S
C56 H78 0.931 . S
C57 C52 1.377 . S
C57 C56 1.378 . S
C57 H79 0.931 . S
C58 O68 1.259 . S
C58 O69 1.270 . S
C59 O70 1.251 . S
C59 O71 1.251 . S
O60 C40 1.257 . S
O60 Eu41 2.473 . S
O61 C40 1.260 . S
O61 Eu41 2.480 . S
O62 Eu41 2.430 . S
O62 C48 1.259 . S
O63 Eu41 2.670 . S
O63 C48 1.270 . S
O63 Eu51 2.355 1_545 S
O64 Eu41 2.394 . S
O64 C49 1.251 . S
O65 C49 1.251 . S
O65 Eu51 2.374 1_545 S
O66 C50 1.257 . S
O66 Eu51 2.473 . S
O67 C50 1.260 . S
O67 Eu51 2.480 . S
O68 Eu51 2.430 1_545 S
O68 C58 1.259 . S
O69 Eu41 2.355 . S
O69 Eu51 2.670 1_545 S
O69 C58 1.270 . S
O70 Eu51 2.394 . S
O70 C59 1.251 . S
O71 Eu41 2.374 1_565 S
O71 C59 1.251 . S
H72 C43 0.931 . S
H73 C44 0.931 . S
H74 C46 0.931 . S
H75 C47 0.931 . S
H76 C53 0.931 . S
H77 C54 0.931 . S
H78 C56 0.931 . S
H79 C57 0.931 . S
C80 Eu81 2.835 . S
C80 C82 1.500 . S
C80 O100 1.257 . S
C80 O101 1.260 . S
Eu81 C80 2.835 . S
Eu81 O100 2.473 . S
Eu81 O101 2.480 . S
Eu81 O102 2.430 . S
Eu81 O103 2.670 . S
Eu81 O104 2.394 . S
Eu81 O109 2.355 . S
Eu81 O111 2.374 . S
C82 C80 1.500 . S
C82 C83 1.377 . S
C82 C87 1.377 . S
C83 C82 1.377 . S
C83 C84 1.395 . S
C83 H112 0.931 . S
C84 C83 1.395 . S
C84 C85 1.383 . S
C84 H113 0.931 . S
C85 C84 1.383 . S
C85 C86 1.394 . S
C86 C85 1.394 . S
C86 C87 1.378 . S
C86 H114 0.931 . S
C87 C82 1.377 . S
C87 C86 1.378 . S
C87 H115 0.931 . S
C88 O102 1.259 . S
C88 O103 1.270 . S
C89 O104 1.251 . S
C89 O105 1.251 . S
C90 Eu91 2.835 . S
C90 C92 1.500 . S
C90 O106 1.257 . S
C90 O107 1.260 . S
Eu91 C90 2.835 . S
Eu91 O103 2.355 . S
Eu91 O105 2.374 . S
Eu91 O106 2.473 . S
Eu91 O107 2.480 . S
Eu91 O108 2.430 . S
Eu91 O109 2.670 . S
Eu91 O110 2.394 . S
C92 C90 1.500 . S
C92 C93 1.377 . S
C92 C97 1.377 . S
C93 C92 1.377 . S
C93 C94 1.395 . S
C93 H116 0.931 . S
C94 C93 1.395 . S
C94 C95 1.383 . S
C94 H117 0.931 . S
C95 C94 1.383 . S
C95 C96 1.394 . S
C96 C95 1.394 . S
C96 C97 1.378 . S
C96 H118 0.931 . S
C97 C92 1.377 . S
C97 C96 1.378 . S
C97 H119 0.931 . S
C98 O108 1.259 . S
C98 O109 1.270 . S
C99 O110 1.251 . S
C99 O111 1.251 . S
O100 C80 1.257 . S
O100 Eu81 2.473 . S
O101 C80 1.260 . S
O101 Eu81 2.480 . S
O102 Eu81 2.430 . S
O102 C88 1.259 . S
O103 Eu81 2.670 . S
O103 C88 1.270 . S
O103 Eu91 2.355 . S
O104 Eu81 2.394 . S
O104 C89 1.251 . S
O105 C89 1.251 . S
O105 Eu91 2.374 . S
O106 C90 1.257 . S
O106 Eu91 2.473 . S
O107 C90 1.260 . S
O107 Eu91 2.480 . S
O108 Eu91 2.430 . S
O108 C98 1.259 . S
O109 Eu81 2.355 . S
O109 Eu91 2.670 . S
O109 C98 1.270 . S
O110 Eu91 2.394 . S
O110 C99 1.251 . S
O111 Eu81 2.374 . S
O111 C99 1.251 . S
H112 C83 0.931 . S
H113 C84 0.931 . S
H114 C86 0.931 . S
H115 C87 0.931 . S
H116 C93 0.931 . S
H117 C94 0.931 . S
H118 C96 0.931 . S
H119 C97 0.931 . S
H120 C123 0.931 1_565 S
H121 C126 0.928 . S
H122 C128 0.930 . S
C123 H120 0.931 1_545 S
C123 C124 1.413 . S
C123 C125 1.360 . S
C124 C123 1.413 . S
C124 C128 1.429 . S
C125 C123 1.360 . S
C125 C126 1.372 . S
C126 H121 0.928 . S
C126 C125 1.372 . S
C126 C127 1.404 . S
C127 C126 1.404 . S
C127 C128 1.391 . S
C128 H122 0.930 . S
C128 C124 1.429 . S
C128 C127 1.391 . S
H129 C132 0.931 . S
H130 C135 0.928 . S
H131 C137 0.930 . S
C132 H129 0.931 . S
C132 C133 1.413 . S
C132 C134 1.360 . S
C133 C132 1.413 . S
C133 C137 1.429 . S
C134 C132 1.360 . S
C134 C135 1.372 . S
C135 H130 0.928 . S
C135 C134 1.372 . S
C135 C136 1.404 . S
C136 C135 1.404 . S
C136 C137 1.391 . S
C137 H131 0.930 . S
C137 C133 1.429 . S
C137 C136 1.391 . S
H138 C141 0.931 . S
H139 C144 0.928 . S
H140 C146 0.930 . S
C141 H138 0.931 . S
C141 C142 1.413 . S
C141 C143 1.360 1_655 S
C142 C141 1.413 . S
C142 C146 1.429 1_655 S
C143 C141 1.360 1_455 S
C143 C144 1.372 . S
C144 H139 0.928 . S
C144 C143 1.372 . S
C144 C145 1.404 . S
C145 C144 1.404 . S
C145 C146 1.391 . S
C146 H140 0.930 . S
C146 C142 1.429 1_455 S
C146 C145 1.391 . S
H147 C150 0.931 1_655 S
H148 C153 0.928 . S
H149 C155 0.930 . S
C150 H147 0.931 1_455 S
C150 C151 1.413 . S
C150 C152 1.360 . S
C151 C150 1.413 . S
C151 C155 1.429 . S
C152 C150 1.360 . S
C152 C153 1.372 . S
C153 H148 0.928 . S
C153 C152 1.372 . S
C153 C154 1.404 . S
C154 C153 1.404 . S
C154 C155 1.391 . S
C155 H149 0.930 . S
C155 C151 1.429 . S
C155 C154 1.391 . S
H156 C159 0.931 . S
H157 C162 0.928 . S
H158 C164 0.931 . S
C159 H156 0.931 . S
C159 C160 1.413 . S
C159 C161 1.360 . S
C160 C159 1.413 . S
C160 C164 1.429 . S
C161 C159 1.360 . S
C161 C162 1.372 1_545 S
C162 H157 0.928 . S
C162 C161 1.372 1_565 S
C162 C163 1.404 . S
C163 C162 1.404 . S
C163 C164 1.391 1_565 S
C164 H158 0.931 . S
C164 C160 1.429 . S
C164 C163 1.391 1_545 S
H165 C168 0.931 . S
H166 C171 0.928 . S
H167 C173 0.930 . S
C168 H165 0.931 . S
C168 C169 1.413 . S
C168 C170 1.360 . S
C169 C168 1.413 . S
C169 C173 1.429 . S
C170 C168 1.360 . S
C170 C171 1.372 . S
C171 H166 0.928 . S
C171 C170 1.372 . S
C171 C172 1.404 . S
C172 C171 1.404 . S
C172 C173 1.391 . S
C173 H167 0.930 . S
C173 C169 1.429 . S
C173 C172 1.391 . S
H174 C180 0.930 . S
H175 C183 0.930 . S
H176 C184 0.930 . S
H177 C185 0.930 . S
H178 C188 0.930 . S
H179 C189 0.930 . S
C180 H174 0.930 . S
C180 C181 1.355 . S
C180 C182 1.415 . S
C181 C180 1.355 . S
C181 C183 1.419 . S
C182 C180 1.415 . S
C182 C187 1.425 . S
C182 C189 1.409 . S
C183 H175 0.930 . S
C183 C181 1.419 . S
C183 C184 1.362 . S
C184 H176 0.930 . S
C184 C183 1.362 . S
C184 C187 1.409 . S
C185 H177 0.930 . S
C185 C186 1.355 . S
C185 C187 1.415 . S
C186 C185 1.355 . S
C186 C188 1.419 . S
C187 C182 1.425 . S
C187 C184 1.409 . S
C187 C185 1.415 . S
C188 H178 0.930 . S
C188 C186 1.419 . S
C188 C189 1.362 . S
C189 H179 0.930 . S
C189 C182 1.409 . S
C189 C188 1.362 . S
H190 C196 0.930 . S
H191 C199 0.930 . S
H192 C200 0.930 . S
H193 C201 0.930 . S
H194 C204 0.930 . S
H195 C205 0.930 . S
C196 H190 0.930 . S
C196 C197 1.355 . S
C196 C198 1.415 . S
C197 C196 1.355 . S
C197 C199 1.419 . S
C198 C196 1.415 . S
C198 C203 1.425 . S
C198 C205 1.409 . S
C199 H191 0.930 . S
C199 C197 1.419 . S
C199 C200 1.362 . S
C200 H192 0.930 . S
C200 C199 1.362 . S
C200 C203 1.409 . S
C201 H193 0.930 . S
C201 C202 1.355 . S
C201 C203 1.415 . S
C202 C201 1.355 . S
C202 C204 1.419 . S
C203 C198 1.425 . S
C203 C200 1.409 . S
C203 C201 1.415 . S
C204 H194 0.930 . S
C204 C202 1.419 . S
C204 C205 1.362 . S
C205 H195 0.930 . S
C205 C198 1.409 . S
C205 C204 1.362 . S
H206 C212 0.930 . S
H207 C215 0.930 . S
H208 C216 0.930 . S
H209 C217 0.930 . S
H210 C220 0.930 . S
H211 C221 0.930 . S
C212 H206 0.930 . S
C212 C213 1.355 . S
C212 C214 1.415 . S
C213 C212 1.355 . S
C213 C215 1.419 . S
C214 C212 1.415 . S
C214 C219 1.425 . S
C214 C221 1.409 . S
C215 H207 0.930 . S
C215 C213 1.419 . S
C215 C216 1.362 . S
C216 H208 0.930 . S
C216 C215 1.362 . S
C216 C219 1.409 . S
C217 H209 0.930 . S
C217 C218 1.355 . S
C217 C219 1.415 . S
C218 C217 1.355 . S
C218 C220 1.419 . S
C219 C214 1.425 . S
C219 C216 1.409 . S
C219 C217 1.415 . S
C220 H210 0.930 . S
C220 C218 1.419 . S
C220 C221 1.362 . S
C221 H211 0.930 . S
C221 C214 1.409 . S
C221 C220 1.362 . S
H222 C228 0.930 . S
H223 C231 0.930 . S
H224 C232 0.930 . S
H225 C233 0.930 . S
H226 C236 0.930 . S
H227 C237 0.930 . S
C228 H222 0.930 . S
C228 C229 1.355 . S
C228 C230 1.415 . S
C229 C228 1.355 . S
C229 C231 1.419 . S
C230 C228 1.415 . S
C230 C235 1.425 . S
C230 C237 1.409 . S
C231 H223 0.930 . S
C231 C229 1.419 . S
C231 C232 1.362 . S
C232 H224 0.930 . S
C232 C231 1.362 . S
C232 C235 1.409 . S
C233 H225 0.930 . S
C233 C234 1.355 . S
C233 C235 1.415 . S
C234 C233 1.355 . S
C234 C236 1.419 . S
C235 C230 1.425 . S
C235 C232 1.409 . S
C235 C233 1.415 . S
C236 H226 0.930 . S
C236 C234 1.419 . S
C236 C237 1.362 . S
C237 H227 0.930 . S
C237 C230 1.409 . S
C237 C236 1.362 . S
H238 C244 0.930 . S
H239 C247 0.930 . S
H240 C248 0.930 . S
H241 C249 0.930 . S
H242 C252 0.930 . S
H243 C253 0.930 . S
C244 H238 0.930 . S
C244 C245 1.355 . S
C244 C246 1.415 . S
C245 C244 1.355 . S
C245 C247 1.419 . S
C246 C244 1.415 . S
C246 C251 1.425 . S
C246 C253 1.409 . S
C247 H239 0.930 . S
C247 C245 1.419 . S
C247 C248 1.362 . S
C248 H240 0.930 . S
C248 C247 1.362 . S
C248 C251 1.409 . S
C249 H241 0.930 . S
C249 C250 1.355 . S
C249 C251 1.415 . S
C250 C249 1.355 . S
C250 C252 1.419 . S
C251 C246 1.425 . S
C251 C248 1.409 . S
C251 C249 1.415 . S
C252 H242 0.930 . S
C252 C250 1.419 . S
C252 C253 1.362 . S
C253 H243 0.930 . S
C253 C246 1.409 . S
C253 C252 1.362 . S
H254 C260 0.930 . S
H255 C263 0.930 . S
H256 C264 0.930 . S
H257 C265 0.930 . S
H258 C268 0.930 . S
H259 C269 0.930 . S
C260 H254 0.930 . S
C260 C261 1.355 . S
C260 C262 1.415 . S
C261 C260 1.355 . S
C261 C263 1.419 . S
C262 C260 1.415 . S
C262 C267 1.425 . S
C262 C269 1.409 . S
C263 H255 0.930 . S
C263 C261 1.419 . S
C263 C264 1.362 . S
C264 H256 0.930 . S
C264 C263 1.362 . S
C264 C267 1.409 . S
C265 H257 0.930 . S
C265 C266 1.355 . S
C265 C267 1.415 . S
C266 C265 1.355 . S
C266 C268 1.419 . S
C267 C262 1.425 . S
C267 C264 1.409 . S
C267 C265 1.415 . S
C268 H258 0.930 . S
C268 C266 1.419 . S
C268 C269 1.362 . S
C269 H259 0.930 . S
C269 C262 1.409 . S
C269 C268 1.362 . S
H270 C276 0.930 . S
H271 C279 0.930 . S
H272 C280 0.930 . S
H273 C281 0.930 . S
H274 C284 0.930 . S
H275 C285 0.930 . S
C276 H270 0.930 . S
C276 C277 1.355 . S
C276 C278 1.415 . S
C277 C276 1.355 . S
C277 C279 1.419 . S
C278 C276 1.415 . S
C278 C283 1.425 . S
C278 C285 1.409 . S
C279 H271 0.930 . S
C279 C277 1.419 . S
C279 C280 1.362 . S
C280 H272 0.930 . S
C280 C279 1.362 . S
C280 C283 1.409 . S
C281 H273 0.930 . S
C281 C282 1.355 . S
C281 C283 1.415 . S
C282 C281 1.355 . S
C282 C284 1.419 . S
C283 C278 1.425 . S
C283 C280 1.409 . S
C283 C281 1.415 . S
C284 H274 0.930 . S
C284 C282 1.419 . S
C284 C285 1.362 . S
C285 H275 0.930 . S
C285 C278 1.409 . S
C285 C284 1.362 . S
H286 C292 0.930 . S
H287 C295 0.930 . S
H288 C296 0.930 . S
H289 C297 0.930 . S
H290 C300 0.930 1_455 S
H291 C301 0.930 . S
C292 H286 0.930 . S
C292 C293 1.355 . S
C292 C294 1.415 . S
C293 C292 1.355 . S
C293 C295 1.419 . S
C294 C292 1.415 . S
C294 C299 1.425 . S
C294 C301 1.409 . S
C295 H287 0.930 . S
C295 C293 1.419 . S
C295 C296 1.362 . S
C296 H288 0.930 . S
C296 C295 1.362 . S
C296 C299 1.409 . S
C297 H289 0.930 . S
C297 C298 1.355 . S
C297 C299 1.415 . S
C298 C297 1.355 . S
C298 C300 1.419 . S
C299 C294 1.425 . S
C299 C296 1.409 . S
C299 C297 1.415 . S
C300 H290 0.930 1_655 S
C300 C298 1.419 . S
C300 C301 1.362 . S
C301 H291 0.930 . S
C301 C294 1.409 . S
C301 C300 1.362 . S
H302 C308 0.930 . S
H303 C311 0.930 . S
H304 C312 0.930 . S
H305 C313 0.930 . S
H306 C316 0.930 1_545 S
H307 C317 0.930 . S
C308 H302 0.930 . S
C308 C309 1.355 . S
C308 C310 1.415 . S
C309 C308 1.355 . S
C309 C311 1.419 . S
C310 C308 1.415 . S
C310 C315 1.425 . S
C310 C317 1.409 . S
C311 H303 0.930 . S
C311 C309 1.419 . S
C311 C312 1.362 . S
C312 H304 0.930 . S
C312 C311 1.362 . S
C312 C315 1.409 . S
C313 H305 0.930 . S
C313 C314 1.355 . S
C313 C315 1.415 . S
C314 C313 1.355 . S
C314 C316 1.419 . S
C315 C310 1.425 . S
C315 C312 1.409 . S
C315 C313 1.415 . S
C316 H306 0.930 1_565 S
C316 C314 1.419 . S
C316 C317 1.362 . S
C317 H307 0.930 . S
C317 C310 1.409 . S
C317 C316 1.362 . S
H318 C324 0.930 . S
H319 C327 0.930 . S
H320 C328 0.930 . S
H321 C329 0.930 . S
H322 C332 0.930 . S
H323 C333 0.930 . S
C324 H318 0.930 . S
C324 C325 1.355 . S
C324 C326 1.415 . S
C325 C324 1.355 . S
C325 C327 1.419 . S
C326 C324 1.415 . S
C326 C331 1.425 . S
C326 C333 1.409 . S
C327 H319 0.930 . S
C327 C325 1.419 . S
C327 C328 1.362 . S
C328 H320 0.930 . S
C328 C327 1.362 . S
C328 C331 1.409 . S
C329 H321 0.930 . S
C329 C330 1.355 . S
C329 C331 1.415 . S
C330 C329 1.355 . S
C330 C332 1.419 . S
C331 C326 1.425 . S
C331 C328 1.409 . S
C331 C329 1.415 . S
C332 H322 0.930 . S
C332 C330 1.419 . S
C332 C333 1.362 . S
C333 H323 0.930 . S
C333 C326 1.409 . S
C333 C332 1.362 . S
H334 C340 0.930 . S
H335 C343 0.930 . S
H336 C344 0.930 . S
H337 C345 0.930 . S
H338 C348 0.930 . S
H339 C349 0.930 . S
C340 H334 0.930 . S
C340 C341 1.355 . S
C340 C342 1.415 . S
C341 C340 1.355 . S
C341 C343 1.419 . S
C342 C340 1.415 . S
C342 C347 1.425 . S
C342 C349 1.409 . S
C343 H335 0.930 . S
C343 C341 1.419 . S
C343 C344 1.362 . S
C344 H336 0.930 . S
C344 C343 1.362 . S
C344 C347 1.409 . S
C345 H337 0.930 . S
C345 C346 1.355 . S
C345 C347 1.415 . S
C346 C345 1.355 . S
C346 C348 1.419 . S
C347 C342 1.425 . S
C347 C344 1.409 . S
C347 C345 1.415 . S
C348 H338 0.930 . S
C348 C346 1.419 . S
C348 C349 1.362 . S
C349 H339 0.930 . S
C349 C342 1.409 . S
C349 C348 1.362 . S
H350 C356 0.930 . S
H351 C359 0.930 . S
H352 C360 0.930 . S
H353 C361 0.930 . S
H354 C364 0.930 . S
H355 C365 0.930 . S
C356 H350 0.930 . S
C356 C357 1.355 . S
C356 C358 1.415 . S
C357 C356 1.355 . S
C357 C359 1.419 . S
C358 C356 1.415 . S
C358 C363 1.425 . S
C358 C365 1.409 . S
C359 H351 0.930 . S
C359 C357 1.419 . S
C359 C360 1.362 . S
C360 H352 0.930 . S
C360 C359 1.362 . S
C360 C363 1.409 . S
C361 H353 0.930 . S
C361 C362 1.355 . S
C361 C363 1.415 . S
C362 C361 1.355 . S
C362 C364 1.419 . S
C363 C358 1.425 . S
C363 C360 1.409 . S
C363 C361 1.415 . S
C364 H354 0.930 . S
C364 C362 1.419 . S
C364 C365 1.362 . S
C365 H355 0.930 . S
C365 C358 1.409 . S
C365 C364 1.362 . S
H366 C372 0.930 . S
H367 C375 0.930 . S
H368 C376 0.930 . S
H369 C377 0.930 . S
H370 C380 0.930 . S
H371 C381 0.930 . S
C372 H366 0.930 . S
C372 C373 1.355 . S
C372 C374 1.415 . S
C373 C372 1.355 . S
C373 C375 1.419 1_455 S
C374 C372 1.415 . S
C374 C379 1.425 1_455 S
C374 C381 1.409 . S
C375 H367 0.930 . S
C375 C373 1.419 1_655 S
C375 C376 1.362 . S
C376 H368 0.930 . S
C376 C375 1.362 . S
C376 C379 1.409 . S
C377 H369 0.930 . S
C377 C378 1.355 1_655 S
C377 C379 1.415 1_556 S
C378 C377 1.355 1_455 S
C378 C380 1.419 . S
C379 C374 1.425 1_655 S
C379 C376 1.409 . S
C379 C377 1.415 1_554 S
C380 H370 0.930 . S
C380 C378 1.419 . S
C380 C381 1.362 1_556 S
C381 H371 0.930 . S
C381 C374 1.409 . S
C381 C380 1.362 1_554 S
H382 C388 0.930 . S
H383 C391 0.930 1_565 S
H384 C392 0.930 1_565 S
H385 C393 0.930 . S
H386 C396 0.930 . S
H387 C397 0.930 . S
C388 H382 0.930 . S
C388 C389 1.355 . S
C388 C390 1.415 . S
C389 C388 1.355 . S
C389 C391 1.419 . S
C390 C388 1.415 . S
C390 C395 1.425 . S
C390 C397 1.409 . S
C391 H383 0.930 1_545 S
C391 C389 1.419 . S
C391 C392 1.362 . S
C392 H384 0.930 1_545 S
C392 C391 1.362 . S
C392 C395 1.409 . S
C393 H385 0.930 . S
C393 C394 1.355 . S
C393 C395 1.415 . S
C394 C393 1.355 . S
C394 C396 1.419 . S
C395 C390 1.425 . S
C395 C392 1.409 . S
C395 C393 1.415 . S
C396 H386 0.930 . S
C396 C394 1.419 . S
C396 C397 1.362 . S
C397 H387 0.930 . S
C397 C390 1.409 . S
C397 C396 1.362 . S
H398 C404 0.930 . S
H399 C407 0.930 . S
H400 C408 0.930 . S
H401 C409 0.930 . S
H402 C412 0.930 . S
H403 C413 0.930 . S
C404 H398 0.930 . S
C404 C405 1.355 . S
C404 C406 1.415 . S
C405 C404 1.355 . S
C405 C407 1.419 . S
C406 C404 1.415 . S
C406 C411 1.425 . S
C406 C413 1.409 . S
C407 H399 0.930 . S
C407 C405 1.419 . S
C407 C408 1.362 . S
C408 H400 0.930 . S
C408 C407 1.362 . S
C408 C411 1.409 . S
C409 H401 0.930 . S
C409 C410 1.355 . S
C409 C411 1.415 . S
C410 C409 1.355 . S
C410 C412 1.419 . S
C411 C406 1.425 . S
C411 C408 1.409 . S
C411 C409 1.415 . S
C412 H402 0.930 . S
C412 C410 1.419 . S
C412 C413 1.362 . S
C413 H403 0.930 . S
C413 C406 1.409 . S
C413 C412 1.362 . S
H414 C420 0.930 . S
H415 C423 0.930 . S
H416 C424 0.930 . S
H417 C425 0.930 . S
H418 C428 0.930 . S
H419 C429 0.930 . S
C420 H414 0.930 . S
C420 C421 1.355 . S
C420 C422 1.415 . S
C421 C420 1.355 . S
C421 C423 1.419 1_545 S
C422 C420 1.415 . S
C422 C427 1.425 1_545 S
C422 C429 1.409 . S
C423 H415 0.930 . S
C423 C421 1.419 1_565 S
C423 C424 1.362 . S
C424 H416 0.930 . S
C424 C423 1.362 . S
C424 C427 1.409 . S
C425 H417 0.930 . S
C425 C426 1.355 1_565 S
C425 C427 1.415 . S
C426 C425 1.355 1_545 S
C426 C428 1.419 . S
C427 C422 1.425 1_565 S
C427 C424 1.409 . S
C427 C425 1.415 . S
C428 H418 0.930 . S
C428 C426 1.419 . S
C428 C429 1.362 . S
C429 H419 0.930 . S
C429 C422 1.409 . S
C429 C428 1.362 . S
H430 C436 0.930 . S
H431 C439 0.930 . S
H432 C440 0.930 . S
H433 C441 0.930 . S
H434 C444 0.930 . S
H435 C445 0.930 . S
C436 H430 0.930 . S
C436 C437 1.355 . S
C436 C438 1.415 . S
C437 C436 1.355 . S
C437 C439 1.419 . S
C438 C436 1.415 . S
C438 C443 1.425 . S
C438 C445 1.409 . S
C439 H431 0.930 . S
C439 C437 1.419 . S
C439 C440 1.362 . S
C440 H432 0.930 . S
C440 C439 1.362 . S
C440 C443 1.409 . S
C441 H433 0.930 . S
C441 C442 1.355 . S
C441 C443 1.415 1_554 S
C442 C441 1.355 . S
C442 C444 1.419 . S
C443 C438 1.425 . S
C443 C440 1.409 . S
C443 C441 1.415 1_556 S
C444 H434 0.930 . S
C444 C442 1.419 . S
C444 C445 1.362 1_554 S
C445 H435 0.930 . S
C445 C438 1.409 . S
C445 C444 1.362 1_556 S
H446 C452 0.930 . S
H447 C455 0.930 . S
H448 C456 0.930 . S
H449 C457 0.930 . S
H450 C460 0.930 . S
H451 C461 0.930 . S
C452 H446 0.930 . S
C452 C453 1.355 . S
C452 C454 1.415 . S
C453 C452 1.355 . S
C453 C455 1.419 . S
C454 C452 1.415 . S
C454 C459 1.425 . S
C454 C461 1.409 . S
C455 H447 0.930 . S
C455 C453 1.419 . S
C455 C456 1.362 . S
C456 H448 0.930 . S
C456 C455 1.362 . S
C456 C459 1.409 . S
C457 H449 0.930 . S
C457 C458 1.355 . S
C457 C459 1.415 . S
C458 C457 1.355 . S
C458 C460 1.419 . S
C459 C454 1.425 . S
C459 C456 1.409 . S
C459 C457 1.415 . S
C460 H450 0.930 . S
C460 C458 1.419 . S
C460 C461 1.362 . S
C461 H451 0.930 . S
C461 C454 1.409 . S
C461 C460 1.362 . S
C181 C19 2.889 . S
C186 C169 2.920 . S
C197 C49 3.001 . S
C202 C151 2.962 1_655 S
C213 C99 2.876 . S
C218 C163 2.895 . S
C229 C9 2.983 . S
C234 C172 2.944 . S
C250 C154 2.891 . S
C245 C59 2.889 . S
C266 C160 2.964 . S
C261 C89 3.002 . S
C277 C55 0.570 . S
C282 C133 0.591 . S
C293 C85 0.700 . S
C298 C142 0.697 . S
C309 C15 0.566 . S
C314 C124 0.590 1_565 S
C330 C136 0.712 . S
C325 C45 0.678 . S
C346 C145 0.682 . S
C341 C95 0.726 . S
C357 C5 0.833 . S
C362 C127 0.762 . S
C378 C143 0.949 . S
C373 C18 0.970 . S
C389 C58 0.912 . S
C394 C125 0.973 . S
C405 C98 0.909 . S
C410 C134 0.975 . S
C426 C161 1.825 . S
C421 C48 1.730 . S
C442 C170 1.827 . S
C437 C88 1.742 . S
C453 C8 1.762 . S
C458 C152 1.825 . S
