# Generated by pormake.
# Topology sqc, (4,8)-cn, num edge types: 1
# Building blocks:
#     Node 0, Type 0, BuildingBlock: MUDLON_clean_linker_0, # of connection points: 4
#     Node 1, Type 0, BuildingBlock: MUDLON_clean_linker_0, # of connection points: 4
#     Node 2, Type 0, BuildingBlock: MUDLON_clean_linker_0, # of connection points: 4
#     Node 3, Type 0, BuildingBlock: MUDLON_clean_linker_0, # of connection points: 4
#     Node 4, Type 0, BuildingBlock: MUDLON_clean_linker_0, # of connection points: 4
#     Node 5, Type 0, BuildingBlock: MUDLON_clean_linker_0, # of connection points: 4
#     Node 6, Type 0, BuildingBlock: MUDLON_clean_linker_0, # of connection points: 4
#     Node 7, Type 0, BuildingBlock: MUDLON_clean_linker_0, # of connection points: 4
#     Node 8, Type 1, BuildingBlock: TAGTUT_clean_sbu_3, # of connection points: 8
#     Node 9, Type 1, BuildingBlock: TAGTUT_clean_sbu_3, # of connection points: 8
#     Node 10, Type 1, BuildingBlock: TAGTUT_clean_sbu_3, # of connection points: 8
#     Node 11, Type 1, BuildingBlock: TAGTUT_clean_sbu_3, # of connection points: 8
#     Edge 12, Type (0, 1), BuildingBlock: TEMPAE_clean_linker_10, # of connection points: 2
#     Edge 13, Type (0, 1), BuildingBlock: TEMPAE_clean_linker_10, # of connection points: 2
#     Edge 14, Type (0, 1), BuildingBlock: TEMPAE_clean_linker_10, # of connection points: 2
#     Edge 15, Type (0, 1), BuildingBlock: TEMPAE_clean_linker_10, # of connection points: 2
#     Edge 16, Type (0, 1), BuildingBlock: TEMPAE_clean_linker_10, # of connection points: 2
#     Edge 17, Type (0, 1), BuildingBlock: TEMPAE_clean_linker_10, # of connection points: 2
#     Edge 18, Type (0, 1), BuildingBlock: TEMPAE_clean_linker_10, # of connection points: 2
#     Edge 19, Type (0, 1), BuildingBlock: TEMPAE_clean_linker_10, # of connection points: 2
#     Edge 20, Type (0, 1), BuildingBlock: TEMPAE_clean_linker_10, # of connection points: 2
#     Edge 21, Type (0, 1), BuildingBlock: TEMPAE_clean_linker_10, # of connection points: 2
#     Edge 22, Type (0, 1), BuildingBlock: TEMPAE_clean_linker_10, # of connection points: 2
#     Edge 23, Type (0, 1), BuildingBlock: TEMPAE_clean_linker_10, # of connection points: 2
#     Edge 24, Type (0, 1), BuildingBlock: TEMPAE_clean_linker_10, # of connection points: 2
#     Edge 25, Type (0, 1), BuildingBlock: TEMPAE_clean_linker_10, # of connection points: 2
#     Edge 26, Type (0, 1), BuildingBlock: TEMPAE_clean_linker_10, # of connection points: 2
#     Edge 27, Type (0, 1), BuildingBlock: TEMPAE_clean_linker_10, # of connection points: 2
#     Edge 28, Type (0, 1), BuildingBlock: TEMPAE_clean_linker_10, # of connection points: 2
#     Edge 29, Type (0, 1), BuildingBlock: TEMPAE_clean_linker_10, # of connection points: 2
#     Edge 30, Type (0, 1), BuildingBlock: TEMPAE_clean_linker_10, # of connection points: 2
#     Edge 31, Type (0, 1), BuildingBlock: TEMPAE_clean_linker_10, # of connection points: 2
#     Edge 32, Type (0, 1), BuildingBlock: TEMPAE_clean_linker_10, # of connection points: 2
#     Edge 33, Type (0, 1), BuildingBlock: TEMPAE_clean_linker_10, # of connection points: 2
#     Edge 34, Type (0, 1), BuildingBlock: TEMPAE_clean_linker_10, # of connection points: 2
#     Edge 35, Type (0, 1), BuildingBlock: TEMPAE_clean_linker_10, # of connection points: 2
#     Edge 36, Type (0, 1), BuildingBlock: TEMPAE_clean_linker_10, # of connection points: 2
#     Edge 37, Type (0, 1), BuildingBlock: TEMPAE_clean_linker_10, # of connection points: 2
#     Edge 38, Type (0, 1), BuildingBlock: TEMPAE_clean_linker_10, # of connection points: 2
#     Edge 39, Type (0, 1), BuildingBlock: TEMPAE_clean_linker_10, # of connection points: 2
#     Edge 40, Type (0, 1), BuildingBlock: TEMPAE_clean_linker_10, # of connection points: 2
#     Edge 41, Type (0, 1), BuildingBlock: TEMPAE_clean_linker_10, # of connection points: 2
#     Edge 42, Type (0, 1), BuildingBlock: TEMPAE_clean_linker_10, # of connection points: 2
#     Edge 43, Type (0, 1), BuildingBlock: TEMPAE_clean_linker_10, # of connection points: 2
# Relax obj value: 0.179
# Max RMSD: 0.279
# Mean RMSD: 0.216
data_MOF--net-sqc--node1-TAGTUT_clean_sbu_3--node2-MUDLON_clean_linker_0--edge1-TEMPAE_clean_linker_10
_symmetry_space_group_name_H-M    P1
_symmetry_Int_Tables_number       1
_symmetry_cell_setting            triclinic
loop_
_symmetry_equiv_pos_as_xyz
'x, y, z'
_cell_length_a     32.071055
_cell_length_b     32.039593
_cell_length_c     90.908556
_cell_angle_alpha  90.680646
_cell_angle_beta   89.882957
_cell_angle_gamma 89.912919
loop_
_atom_site_label
_atom_site_type_symbol
_atom_site_fract_x
_atom_site_fract_y
_atom_site_fract_z
_atom_type_partial_charge
H0 H 0.87639 0.93229 0.55955 0.0
N1 N 0.89538 0.95015 0.53185 0.0
H2 H 0.82339 0.96617 0.57515 0.0
H3 H 0.85346 0.02267 0.52573 0.0
H4 H 0.8016 0.05683 0.54121 0.0
H5 H 0.89096 0.98814 0.50492 0.0
H6 H 0.84494 0.96842 0.48473 0.0
H7 H 0.84931 0.88176 0.52955 0.0
H8 H 0.80249 0.86212 0.50941 0.0
H9 H 0.96219 0.90171 0.53379 0.0
H10 H 0.92526 0.02855 0.52521 0.0
H11 H 0.03518 0.92036 0.52934 0.0
H12 H 0.99767 0.04738 0.52092 0.0
H13 H 0.23657 0.9969 0.53466 0.0
H14 H 0.28101 0.03408 0.55206 0.0
H15 H 0.24378 0.15143 0.53311 0.0
H16 H 0.19955 0.11355 0.51547 0.0
H17 H 0.23697 0.05374 0.4892 0.0
H18 H 0.28796 0.01195 0.47556 0.0
H19 H 0.25599 0.90463 0.50164 0.0
H20 H 0.20617 0.94719 0.51556 0.0
H21 H 0.16465 0.98118 0.53461 0.0
H22 H 0.09246 0.96234 0.53983 0.0
H23 H 0.05195 0.03358 0.5024 0.0
N24 N 0.19206 0.03134 0.51221 0.0
H25 H 0.12448 0.05262 0.49733 0.0
C26 C 0.86938 0.97496 0.54155 0.0
C27 C 0.8607 0.95997 0.55565 0.0
C28 C 0.83031 0.97921 0.56449 0.0
C29 C 0.80788 0.01378 0.55931 0.0
C30 C 0.81771 0.02971 0.54539 0.0
C31 C 0.84803 0.01053 0.5366 0.0
C32 C 0.87385 0.93612 0.51879 0.0
C33 C 0.8725 0.96013 0.50593 0.0
C34 C 0.8457 0.94913 0.49443 0.0
C35 C 0.81974 0.914 0.49555 0.0
C36 C 0.82229 0.88921 0.50817 0.0
C37 C 0.84907 0.90025 0.51966 0.0
C38 C 0.93806 0.96345 0.52989 0.0
C39 C 0.96986 0.93362 0.53109 0.0
C40 C 0.01151 0.94438 0.52859 0.0
C41 C 0.02225 0.98535 0.52473 0.0
C42 C 0.9904 0.01541 0.52369 0.0
C43 C 0.94878 0.00465 0.52626 0.0
C44 C 0.21447 0.05258 0.52379 0.0
C45 C 0.23722 0.03061 0.5344 0.0
C46 C 0.2627 0.052 0.54437 0.0
C47 C 0.26602 0.09575 0.54396 0.0
C48 C 0.24228 0.11771 0.5336 0.0
C49 C 0.21674 0.09624 0.52363 0.0
C50 C 0.21739 0.00374 0.50327 0.0
C51 C 0.24053 0.02102 0.49179 0.0
C52 C 0.26963 0.99699 0.484 0.0
C53 C 0.27613 0.95479 0.48747 0.0
C54 C 0.25218 0.93713 0.49879 0.0
C55 C 0.2232 0.96138 0.50666 0.0
C56 C 0.15003 0.01842 0.51551 0.0
C57 C 0.14042 0.99268 0.52748 0.0
C58 C 0.09901 0.98178 0.53044 0.0
C59 C 0.06638 0.99657 0.52157 0.0
C60 C 0.07622 0.02214 0.50958 0.0
C61 C 0.1176 0.03281 0.5066 0.0
H62 H 0.42227 0.53073 0.80409 0.0
N63 N 0.38629 0.57427 0.78292 0.0
H64 H 0.39089 0.47614 0.81923 0.0
H65 H 0.30275 0.55275 0.78387 0.0
H66 H 0.27164 0.49961 0.79893 0.0
H67 H 0.3444 0.52913 0.76183 0.0
H68 H 0.37497 0.49313 0.74069 0.0
H69 H 0.46633 0.5714 0.77525 0.0
H70 H 0.49749 0.5335 0.7542 0.0
H71 H 0.41262 0.64638 0.79421 0.0
H72 H 0.31926 0.59438 0.76531 0.0
H73 H 0.38696 0.71651 0.78897 0.0
H74 H 0.29094 0.66277 0.76127 0.0
H75 H 0.32571 0.91385 0.77532 0.0
H76 H 0.29976 0.9677 0.79221 0.0
H77 H 0.17368 0.92574 0.78464 0.0
H78 H 0.1999 0.87209 0.76742 0.0
H79 H 0.24982 0.89429 0.73429 0.0
H80 H 0.28999 0.92985 0.71526 0.0
H81 H 0.40383 0.90231 0.73861 0.0
H82 H 0.36327 0.86738 0.75769 0.0
H83 H 0.31383 0.83698 0.78525 0.0
H84 H 0.33692 0.76753 0.79189 0.0
H85 H 0.30225 0.7219 0.74861 0.0
N86 N 0.27833 0.85984 0.75873 0.0
H87 H 0.27584 0.79062 0.7426 0.0
C88 C 0.36523 0.54638 0.79286 0.0
C89 C 0.38924 0.52439 0.80309 0.0
C90 C 0.37133 0.49314 0.81167 0.0
C91 C 0.32891 0.48313 0.81011 0.0
C92 C 0.30465 0.50588 0.80014 0.0
C93 C 0.32253 0.53699 0.79159 0.0
C94 C 0.40311 0.55381 0.77001 0.0
C95 C 0.37764 0.53147 0.76011 0.0
C96 C 0.39515 0.51067 0.74803 0.0
C97 C 0.43845 0.51096 0.74581 0.0
C98 C 0.46397 0.53307 0.7557 0.0
C99 C 0.4463 0.55464 0.76764 0.0
C100 C 0.36774 0.61473 0.78045 0.0
C101 C 0.38594 0.64997 0.78705 0.0
C102 C 0.37093 0.69008 0.7841 0.0
C103 C 0.33671 0.69581 0.77462 0.0
C104 C 0.31791 0.66017 0.76833 0.0
C105 C 0.33371 0.62036 0.77094 0.0
C106 C 0.26455 0.88912 0.76993 0.0
C107 C 0.29251 0.91613 0.77723 0.0
C108 C 0.27765 0.94701 0.78687 0.0
C109 C 0.23469 0.95118 0.78958 0.0
C110 C 0.20694 0.92318 0.78274 0.0
C111 C 0.22181 0.89258 0.77295 0.0
C112 C 0.30343 0.87837 0.74736 0.0
C113 C 0.28346 0.89569 0.73519 0.0
C114 C 0.30649 0.91569 0.72431 0.0
C115 C 0.35011 0.9188 0.72542 0.0
C116 C 0.37024 0.90071 0.73752 0.0
C117 C 0.34714 0.88064 0.74839 0.0
C118 C 0.2923 0.81913 0.76339 0.0
C119 C 0.31044 0.81203 0.77724 0.0
C120 C 0.32427 0.77205 0.78099 0.0
C121 C 0.3214 0.7385 0.77087 0.0
C122 C 0.30395 0.74618 0.75695 0.0
C123 C 0.28914 0.78571 0.75339 0.0
H124 H 0.8251 0.08643 0.05292 0.0
N125 N 0.77129 0.06641 0.03183 0.0
H126 H 0.86368 0.03955 0.06895 0.0
H127 H 0.76584 0.98004 0.03226 0.0
H128 H 0.80152 0.93378 0.0488 0.0
H129 H 0.82439 0.02089 0.01413 0.0
H130 H 0.86284 0.04635 0.99298 0.0
H131 H 0.77291 0.14374 0.02164 0.0
H132 H 0.81017 0.1693 -1e-05 0.0
H133 H 0.70255 0.09084 0.04587 0.0
H134 H 0.74511 0.01648 0.00893 0.0
H135 H 0.63058 0.07016 0.04062 0.0
H136 H 0.6742 0.99432 0.00402 0.0
H137 H 0.44074 0.01567 0.0322 0.0
H138 H 0.40373 0.99151 0.05396 0.0
H139 H 0.42977 0.86376 0.04135 0.0
H140 H 0.46713 0.88825 0.01946 0.0
H141 H 0.44096 0.93688 0.98823 0.0
H142 H 0.40208 0.97625 0.96979 0.0
H143 H 0.42913 0.09083 0.99341 0.0
H144 H 0.46789 0.05127 0.01175 0.0
H145 H 0.51917 0.98313 0.0387 0.0
H146 H 0.5883 0.00976 0.04255 0.0
H147 H 0.60793 0.01458 0.99557 0.0
N148 N 0.48089 0.96673 0.01164 0.0
H149 H 0.53863 0.98581 0.99157 0.0
C150 C 0.79211 0.03737 0.04146 0.0
C151 C 0.81986 0.05312 0.05201 0.0
C152 C 0.84156 0.0262 0.06125 0.0
C153 C 0.83554 0.98271 0.06028 0.0
C154 C 0.80744 0.96695 0.04977 0.0
C155 C 0.78641 0.99379 0.04034 0.0
C156 C 0.79609 0.0807 0.01962 0.0
C157 C 0.82149 0.05345 0.01129 0.0
C158 C 0.84306 0.06796 -0.00097 0.0
C159 C 0.83936 0.10983 0.99471 0.0
C160 C 0.81407 0.13701 0.0031 0.0
C161 C 0.79273 0.12251 0.01543 0.0
C162 C 0.72917 0.05532 0.02788 0.0
C163 C 0.69629 0.07018 0.03662 0.0
C164 C 0.65534 0.05804 0.03366 0.0
C165 C 0.6466 0.03033 0.02194 0.0
C166 C 0.67959 0.01619 0.01298 0.0
C167 C 0.72038 0.02876 0.01583 0.0
C168 C 0.45661 0.95358 0.02414 0.0
C169 C 0.43808 0.98249 0.03395 0.0
C170 C 0.41742 0.96868 0.0465 0.0
C171 C 0.4143 0.92583 0.04936 0.0
C172 C 0.43181 0.89697 0.03937 0.0
C173 C 0.453 0.91083 0.0269 0.0
C174 C 0.45696 0.99096 0.00136 0.0
C175 C 0.43827 0.97044 0.98941 0.0
C176 C 0.41646 0.993 0.97887 0.0
C177 C 0.41282 0.03663 0.98014 0.0
C178 C 0.43118 0.05721 0.99222 0.0
C179 C 0.45317 0.03462 0.00273 0.0
C180 C 0.52223 0.98331 0.01465 0.0
C181 C 0.53742 0.99019 0.02906 0.0
C182 C 0.57748 0.00577 0.03135 0.0
C183 C 0.60357 0.01491 0.0194 0.0
C184 C 0.58879 0.00767 0.00506 0.0
C185 C 0.54894 0.99153 0.00275 0.0
H186 H 0.25733 0.50432 0.30371 0.0
N187 N 0.27411 0.45437 0.28107 0.0
H188 H 0.30641 0.53489 0.32125 0.0
H189 H 0.35803 0.43596 0.28308 0.0
H190 H 0.40673 0.46463 0.3009 0.0
H191 H 0.33419 0.48981 0.26366 0.0
H192 H 0.32278 0.54256 0.24491 0.0
H193 H 0.20179 0.48245 0.27132 0.0
H194 H 0.18972 0.53346 0.25206 0.0
H195 H 0.22147 0.39893 0.2919 0.0
H196 H 0.32451 0.41132 0.26185 0.0
H197 H 0.22146 0.3235 0.28785 0.0
H198 H 0.3278 0.33597 0.25878 0.0
H199 H 0.27686 0.11948 0.29801 0.0
H200 H 0.31463 0.08915 0.31838 0.0
H201 H 0.43104 0.11025 0.29565 0.0
H202 H 0.39246 0.14027 0.27498 0.0
H203 H 0.3329 0.11536 0.24643 0.0
H204 H 0.29821 0.06099 0.23219 0.0
H205 H 0.20176 0.05447 0.26553 0.0
H206 H 0.23431 0.11277 0.27858 0.0
H207 H 0.26979 0.19121 0.29405 0.0
H208 H 0.25726 0.26559 0.29464 0.0
H209 H 0.30259 0.27426 0.24988 0.0
N210 N 0.31018 0.14723 0.27217 0.0
H211 H 0.31882 0.19987 0.25002 0.0
C212 C 0.30358 0.46774 0.29212 0.0
C213 C 0.28982 0.49516 0.3032 0.0
C214 C 0.31794 0.51231 0.31326 0.0
C215 C 0.3606 0.50211 0.31252 0.0
C216 C 0.3742 0.47349 0.30169 0.0
C217 C 0.34608 0.45668 0.29153 0.0
C218 C 0.26865 0.48256 0.26901 0.0
C219 C 0.3026 0.49925 0.26122 0.0
C220 C 0.296 0.52938 0.25044 0.0
C221 C 0.25536 0.54291 0.24712 0.0
C222 C 0.22154 0.52488 0.25462 0.0
C223 C 0.22822 0.49526 0.26548 0.0
C224 C 0.27349 0.41051 0.27749 0.0
C225 C 0.24427 0.38516 0.28449 0.0
C226 C 0.2447 0.34197 0.28226 0.0
C227 C 0.27522 0.32303 0.27322 0.0
C228 C 0.30349 0.34898 0.26573 0.0
C229 C 0.30217 0.39229 0.26764 0.0
C230 C 0.33191 0.13203 0.28488 0.0
C231 C 0.31043 0.11796 0.29736 0.0
C232 C 0.33218 0.10094 0.30912 0.0
C233 C 0.37583 0.09743 0.30865 0.0
C234 C 0.39737 0.11235 0.29629 0.0
C235 C 0.3755 0.12956 0.28453 0.0
C236 C 0.28691 0.11717 0.26371 0.0
C237 C 0.30395 0.10243 0.2505 0.0
C238 C 0.28431 0.0707 0.24253 0.0
C239 C 0.24771 0.05177 0.24789 0.0
C240 C 0.22987 0.06781 0.26098 0.0
C241 C 0.24888 0.10079 0.26866 0.0
C242 C 0.29637 0.18999 0.27209 0.0
C243 C 0.27722 0.20891 0.28436 0.0
C244 C 0.26945 0.25182 0.28459 0.0
C245 C 0.27936 0.27662 0.27236 0.0
C246 C 0.29574 0.25679 0.2597 0.0
C247 C 0.30458 0.21409 0.25966 0.0
H248 H 0.9183 0.03152 0.30064 0.0
N249 N 0.88216 0.07796 0.28026 0.0
H250 H 0.88611 0.97707 0.31561 0.0
H251 H 0.79769 0.06167 0.28264 0.0
H252 H 0.76579 0.00832 0.29753 0.0
H253 H 0.83959 0.02588 0.26145 0.0
H254 H 0.86889 0.9856 0.2411 0.0
H255 H 0.96011 0.08042 0.2701 0.0
H256 H 0.98996 0.03947 0.24958 0.0
H257 H 0.90528 0.15058 0.29203 0.0
H258 H 0.81776 0.09639 0.26141 0.0
H259 H 0.87897 0.22019 0.28632 0.0
H260 H 0.78932 0.16479 0.25646 0.0
H261 H 0.81931 0.41016 0.27347 0.0
H262 H 0.79369 0.46444 0.29027 0.0
H263 H 0.66714 0.43593 0.27751 0.0
H264 H 0.69322 0.38159 0.26056 0.0
H265 H 0.7435 0.39622 0.23028 0.0
H266 H 0.78295 0.43448 0.21174 0.0
H267 H 0.89689 0.40967 0.23543 0.0
H268 H 0.85694 0.37207 0.25404 0.0
H269 H 0.80111 0.33734 0.2822 0.0
H270 H 0.82495 0.26837 0.28873 0.0
H271 H 0.80332 0.22543 0.24412 0.0
N272 N 0.77225 0.3621 0.25473 0.0
H273 H 0.7768 0.29409 0.23786 0.0
C274 C 0.86081 0.05111 0.29051 0.0
C275 C 0.88487 0.02705 0.30013 0.0
C276 C 0.86649 0.99585 0.30861 0.0
C277 C 0.82351 0.98793 0.30756 0.0
C278 C 0.79916 0.013 0.29833 0.0
C279 C 0.81749 0.04417 0.2899 0.0
C280 C 0.89784 0.05612 0.26742 0.0
C281 C 0.87232 0.02954 0.25893 0.0
C282 C 0.88916 0.00625 0.24732 0.0
C283 C 0.93177 0.00908 0.24388 0.0
C284 C 0.95698 0.03681 0.25198 0.0
C285 C 0.94008 0.06005 0.26369 0.0
C286 C 0.86346 0.11809 0.27734 0.0
C287 C 0.87983 0.15365 0.2843 0.0
C288 C 0.86449 0.19342 0.28107 0.0
C289 C 0.83188 0.19848 0.27087 0.0
C290 C 0.81497 0.16253 0.26412 0.0
C291 C 0.83091 0.12297 0.26714 0.0
C292 C 0.75801 0.39147 0.26583 0.0
C293 C 0.78606 0.41526 0.27436 0.0
C294 C 0.77135 0.44625 0.28399 0.0
C295 C 0.7284 0.45451 0.28518 0.0
C296 C 0.70043 0.43054 0.27672 0.0
C297 C 0.71517 0.39926 0.26717 0.0
C298 C 0.79717 0.38145 0.24349 0.0
C299 C 0.77703 0.39874 0.23134 0.0
C300 C 0.79968 0.42034 0.22075 0.0
C301 C 0.84309 0.4251 0.22211 0.0
C302 C 0.86343 0.40692 0.23416 0.0
C303 C 0.8407 0.3853 0.24476 0.0
C304 C 0.78693 0.32147 0.25937 0.0
C305 C 0.80112 0.31342 0.27374 0.0
C306 C 0.81523 0.27358 0.2775 0.0
C307 C 0.81621 0.24092 0.267 0.0
C308 C 0.80227 0.24923 0.25266 0.0
C309 C 0.78742 0.28873 0.24899 0.0
H310 H 0.78568 0.98676 0.7983 0.0
N311 N 0.80608 0.95142 0.77281 0.0
H312 H 0.83269 0.01689 0.81676 0.0
H313 H 0.89176 0.94704 0.77246 0.0
H314 H 0.93867 0.97671 0.7908 0.0
H315 H 0.86146 0.98619 0.75341 0.0
H316 H 0.84579 0.04006 0.73549 0.0
H317 H 0.73208 0.98216 0.76616 0.0
H318 H 0.71552 0.03436 0.74772 0.0
H319 H 0.75135 0.89601 0.78217 0.0
H320 H 0.85969 0.90877 0.75457 0.0
H321 H 0.75227 0.8206 0.77811 0.0
H322 H 0.86378 0.8334 0.7516 0.0
H323 H 0.79746 0.61246 0.78757 0.0
H324 H 0.82591 0.58122 0.80966 0.0
H325 H 0.95067 0.60906 0.79471 0.0
H326 H 0.92172 0.63993 0.77234 0.0
H327 H 0.86853 0.58731 0.74523 0.0
H328 H 0.82765 0.53348 0.73266 0.0
H329 H 0.71587 0.58035 0.75382 0.0
H330 H 0.75714 0.635 0.76602 0.0
H331 H 0.79966 0.68903 0.78575 0.0
H332 H 0.78776 0.76343 0.78599 0.0
H333 H 0.83987 0.77128 0.74214 0.0
N334 N 0.84204 0.64394 0.76446 0.0
H335 H 0.85511 0.6966 0.74262 0.0
C336 C 0.83495 0.96494 0.78398 0.0
C337 C 0.81907 0.98396 0.79675 0.0
C338 C 0.84595 0.00085 0.80729 0.0
C339 C 0.88936 0.99911 0.80519 0.0
C340 C 0.90534 0.97872 0.79263 0.0
C341 C 0.8784 0.96167 0.78213 0.0
C342 C 0.7978 0.98047 0.76124 0.0
C343 C 0.8296 0.99662 0.75229 0.0
C344 C 0.82054 0.02741 0.74197 0.0
C345 C 0.77948 0.04217 0.74029 0.0
C346 C 0.74771 0.02481 0.749 0.0
C347 C 0.7569 0.99453 0.75939 0.0
C348 C 0.806 0.90775 0.76905 0.0
C349 C 0.77551 0.88232 0.7753 0.0
C350 C 0.77647 0.83916 0.77309 0.0
C351 C 0.80873 0.82035 0.76481 0.0
C352 C 0.83827 0.84637 0.75799 0.0
C353 C 0.83652 0.88969 0.7599 0.0
C354 C 0.85764 0.62831 0.77821 0.0
C355 C 0.8309 0.6122 0.78904 0.0
C356 C 0.84721 0.59466 0.80176 0.0
C357 C 0.89053 0.59268 0.80391 0.0
C358 C 0.91716 0.60985 0.79328 0.0
C359 C 0.90077 0.62757 0.78056 0.0
C360 C 0.81597 0.61504 0.75648 0.0
C361 C 0.83515 0.58612 0.74701 0.0
C362 C 0.81179 0.55512 0.74002 0.0
C363 C 0.76856 0.55218 0.74244 0.0
C364 C 0.74908 0.58181 0.75172 0.0
C365 C 0.7726 0.61303 0.7587 0.0
C366 C 0.82953 0.6872 0.76428 0.0
C367 C 0.80882 0.70651 0.77619 0.0
C368 C 0.80138 0.74944 0.77621 0.0
C369 C 0.81318 0.77397 0.76413 0.0
C370 C 0.83142 0.75392 0.75184 0.0
C371 C 0.8398 0.71112 0.752 0.0
H372 H 0.37662 0.49485 0.00901 0.0
N373 N 0.39819 0.44454 0.03198 0.0
H374 H 0.32645 0.47854 0.98964 0.0
H375 H 0.3602 0.37212 0.02702 0.0
H376 H 0.30894 0.35581 0.00792 0.0
H377 H 0.35569 0.41369 0.05453 0.0
H378 H 0.30261 0.44947 0.06947 0.0
H379 H 0.38255 0.52867 0.03229 0.0
H380 H 0.32992 0.56466 0.0472 0.0
H381 H 0.44409 0.43724 0.00632 0.0
H382 H 0.45056 0.48391 0.05114 0.0
H383 H 0.51435 0.46139 0.00198 0.0
H384 H 0.52153 0.5076 0.04664 0.0
H385 H 0.73772 0.55762 0.98877 0.0
H386 H 0.78604 0.51336 0.9749 0.0
H387 H 0.74857 0.40739 0.0008 0.0
H388 H 0.70155 0.45257 0.01502 0.0
H389 H 0.73644 0.50042 0.0339 0.0
H390 H 0.78549 0.53495 0.05041 0.0
H391 H 0.75414 0.65395 0.03147 0.0
H392 H 0.70483 0.61883 0.01483 0.0
H393 H 0.62547 0.55009 0.99532 0.0
H394 H 0.55328 0.52927 0.00016 0.0
H395 H 0.59168 0.47536 0.04129 0.0
N396 N 0.69208 0.53721 0.01185 0.0
H397 H 0.6635 0.49588 0.03636 0.0
C398 C 0.37252 0.43435 0.01939 0.0
C399 C 0.36232 0.4643 0.00875 0.0
C400 C 0.33329 0.45506 0.99777 0.0
C401 C 0.31344 0.41596 0.99728 0.0
C402 C 0.32403 0.38602 0.00784 0.0
C403 C 0.35333 0.39518 0.01875 0.0
C404 C 0.37315 0.46835 0.04234 0.0
C405 C 0.35076 0.44684 0.05312 0.0
C406 C 0.32033 0.46726 0.06157 0.0
C407 C 0.31162 0.50971 0.05933 0.0
C408 C 0.33525 0.5317 0.04893 0.0
C409 C 0.36569 0.51127 0.04051 0.0
C410 C 0.43961 0.46126 0.02885 0.0
C411 C 0.45954 0.45392 0.01516 0.0
C412 C 0.5003 0.46744 0.01265 0.0
C413 C 0.5232 0.48717 0.02386 0.0
C414 C 0.50448 0.49288 0.03772 0.0
C415 C 0.46348 0.47978 0.04021 0.0
C416 C 0.71574 0.50849 0.00278 0.0
C417 C 0.73952 0.52469 0.99127 0.0
C418 C 0.76704 0.49924 0.98335 0.0
C419 C 0.7712 0.45665 0.98669 0.0
C420 C 0.74655 0.44011 -0.00196 0.0
C421 C 0.7192 0.46582 0.00607 0.0
C422 C 0.71646 0.55723 0.02321 0.0
C423 C 0.7392 0.53402 0.03351 0.0
C424 C 0.76742 0.55383 0.04294 0.0
C425 C 0.77379 0.59716 0.0422 0.0
C426 C 0.7502 0.62046 0.03219 0.0
C427 C 0.72174 0.6006 0.02281 0.0
C428 C 0.64997 0.52503 0.01545 0.0
C429 C 0.61821 0.53391 0.00539 0.0
C430 C 0.5771 0.52186 0.00815 0.0
C431 C 0.5668 0.50079 0.02113 0.0
C432 C 0.59857 0.49205 0.03129 0.0
C433 C 0.63983 0.50376 0.02844 0.0
H434 H 0.3229 0.57106 0.54799 0.0
N435 N 0.26882 0.55033 0.52709 0.0
H436 H 0.36267 0.52425 0.56395 0.0
H437 H 0.26567 0.4638 0.52709 0.0
H438 H 0.30393 0.41773 0.54331 0.0
H439 H 0.32043 0.50685 0.50831 0.0
H440 H 0.35965 0.53532 0.48778 0.0
H441 H 0.27035 0.62896 0.5182 0.0
H442 H 0.30838 0.65765 0.49723 0.0
H443 H 0.20063 0.57483 0.54141 0.0
H444 H 0.24195 0.49997 0.50444 0.0
H445 H 0.12835 0.55521 0.53624 0.0
H446 H 0.17062 0.47868 0.49961 0.0
H447 H 0.93758 0.51343 0.52582 0.0
H448 H 0.89467 0.49457 0.54689 0.0
H449 H 0.91213 0.36398 0.53616 0.0
H450 H 0.95467 0.38325 0.51484 0.0
H451 H 0.93615 0.42865 0.48287 0.0
H452 H 0.89983 0.46743 0.46364 0.0
H453 H 0.93056 0.58334 0.48581 0.0
H454 H 0.96686 0.5444 0.50492 0.0
H455 H 0.0132 0.47358 0.53355 0.0
H456 H 0.08353 0.49668 0.53784 0.0
H457 H 0.10547 0.50106 0.49097 0.0
N458 N 0.97543 0.45945 0.50628 0.0
H459 H 0.03515 0.47582 0.48655 0.0
C460 C 0.29076 0.52148 0.53646 0.0
C461 C 0.3186 0.53764 0.54693 0.0
C462 C 0.34126 0.51099 0.55597 0.0
C463 C 0.33596 0.46759 0.55483 0.0
C464 C 0.30809 0.45117 0.54444 0.0
C465 C 0.28609 0.47776 0.53518 0.0
C466 C 0.29281 0.56605 0.51493 0.0
C467 C 0.31786 0.53984 0.50606 0.0
C468 C 0.33991 0.55612 0.49419 0.0
C469 C 0.33707 0.59878 0.49082 0.0
C470 C 0.31171 0.62479 0.49963 0.0
C471 C 0.28988 0.60851 0.51157 0.0
C472 C 0.22661 0.53897 0.52339 0.0
C473 C 0.19402 0.55414 0.53221 0.0
C474 C 0.15287 0.54259 0.52929 0.0
C475 C 0.14361 0.51517 0.51754 0.0
C476 C 0.17641 0.50038 0.50859 0.0
C477 C 0.21741 0.51239 0.5114 0.0
C478 C 0.94911 0.44956 0.51866 0.0
C479 C 0.93177 0.48079 0.52784 0.0
C480 C 0.90768 0.46995 0.54001 0.0
C481 C 0.9002 0.42781 0.5432 0.0
C482 C 0.91714 0.39672 0.53391 0.0
C483 C 0.94145 0.40759 0.52178 0.0
C484 C 0.95378 0.48347 0.49534 0.0
C485 C 0.93492 0.4624 0.48354 0.0
C486 C 0.91458 0.48459 0.47255 0.0
C487 C 0.91256 0.5284 0.47322 0.0
C488 C 0.93137 0.54958 0.48509 0.0
C489 C 0.95192 0.52736 0.49604 0.0
C490 C 0.01736 0.47416 0.50953 0.0
C491 C 0.03229 0.47988 0.52403 0.0
C492 C 0.07303 0.49335 0.52657 0.0
C493 C 0.1001 0.50136 0.51478 0.0
C494 C 0.08562 0.495 0.50035 0.0
C495 C 0.04511 0.48097 0.4978 0.0
C496 C 0.13035 0.68717 0.16234 0.0
C497 C 0.97853 0.63485 0.15585 0.0
C498 C 0.98367 0.70106 0.11454 0.0
Mg499 Mg 0.17623 0.76998 0.14996 0.0
Mg500 Mg 0.12565 0.85264 0.13831 0.0
O501 O 0.13112 0.79483 0.13758 0.0
Mg502 Mg 0.08448 0.75694 0.14284 0.0
O503 O 0.04127 0.71545 0.14818 0.0
Mg504 Mg 0.06249 0.66657 0.13632 0.0
Mg505 Mg 0.9845 0.72828 0.14699 0.0
C506 C 0.0421 0.82979 0.12166 0.0
O507 O 0.0553 0.80134 0.15994 0.0
O508 O 0.22218 0.81406 0.13752 0.0
O509 O 0.9863 0.78748 0.15918 0.0
O510 O 0.16779 0.81976 0.16886 0.0
O511 O 0.18446 0.86729 0.12868 0.0
O512 O 0.12634 0.87072 0.16078 0.0
O513 O 0.11166 0.71041 0.12595 0.0
O514 O 0.17894 0.72222 0.13134 0.0
C515 C 0.15074 0.70292 0.12394 0.0
C516 C 0.21903 0.84765 0.12998 0.0
O517 O 0.04306 0.79156 0.12586 0.0
O518 O 0.01255 0.62756 0.14873 0.0
O519 O 0.06899 0.85713 0.12577 0.0
O520 O 0.01506 0.67761 0.11732 0.0
O521 O 0.96251 0.6715 0.15685 0.0
O522 O 0.96873 0.7262 0.12418 0.0
O523 O 0.12648 0.7264 0.1599 0.0
O524 O 0.10874 0.6601 0.15517 0.0
C525 C 0.14767 0.85397 0.17094 0.0
C526 C 0.01751 0.80912 0.16378 0.0
C527 C 0.65441 0.80993 0.41078 0.0
C528 C 0.71226 0.65917 0.40317 0.0
C529 C 0.64162 0.662 0.36249 0.0
Mg530 Mg 0.56933 0.85269 0.39939 0.0
Mg531 Mg 0.48672 0.79924 0.38888 0.0
O532 O 0.54423 0.80629 0.38732 0.0
Mg533 Mg 0.58444 0.76087 0.39199 0.0
O534 O 0.62851 0.71933 0.39667 0.0
Mg535 Mg 0.67546 0.74206 0.38445 0.0
Mg536 Mg 0.61825 0.66219 0.39512 0.0
C537 C 0.51111 0.71551 0.37183 0.0
O538 O 0.54204 0.72907 0.40911 0.0
O539 O 0.52293 0.89686 0.38753 0.0
O540 O 0.56197 0.66132 0.40839 0.0
O541 O 0.5214 0.84527 0.4186 0.0
O542 O 0.46933 0.85783 0.3794 0.0
O543 O 0.47123 0.80106 0.41172 0.0
O544 O 0.62861 0.78937 0.37482 0.0
O545 O 0.61533 0.85636 0.38042 0.0
C546 C 0.63495 0.82856 0.37285 0.0
C547 C 0.48838 0.89287 0.3805 0.0
O548 O 0.54986 0.7184 0.37533 0.0
O549 O 0.71798 0.69368 0.39635 0.0
O550 O 0.48314 0.74133 0.3764 0.0
O551 O 0.66447 0.69396 0.36526 0.0
O552 O 0.67633 0.64201 0.40414 0.0
O553 O 0.61782 0.6465 0.37226 0.0
O554 O 0.61511 0.80406 0.40897 0.0
O555 O 0.6817 0.78933 0.4033 0.0
C556 C 0.48815 0.82462 0.4214 0.0
C557 C 0.53804 0.69085 0.41304 0.0
C558 C 0.63121 0.18643 0.66051 0.0
C559 C 0.47871 0.12826 0.65798 0.0
C560 C 0.47296 0.19912 0.61758 0.0
Mg561 Mg 0.67118 0.27088 0.64648 0.0
Mg562 Mg 0.61465 0.35318 0.63744 0.0
O563 O 0.62118 0.29533 0.6366 0.0
Mg564 Mg 0.57773 0.25543 0.64319 0.0
O565 O 0.5377 0.2118 0.6497 0.0
Mg566 Mg 0.55711 0.16443 0.63673 0.0
Mg567 Mg 0.48041 0.22244 0.65007 0.0
C568 C 0.52625 0.327 0.62455 0.0
O569 O 0.55032 0.29874 0.66142 0.0
O570 O 0.71078 0.31661 0.63235 0.0
O571 O 0.48289 0.27923 0.66328 0.0
O572 O 0.66919 0.31968 0.66569 0.0
O573 O 0.66866 0.36802 0.62459 0.0
O574 O 0.62724 0.37243 0.65945 0.0
O575 O 0.60151 0.21035 0.62531 0.0
O576 O 0.66968 0.22408 0.62759 0.0
C577 C 0.63963 0.20401 0.62155 0.0
C578 C 0.70412 0.34952 0.62471 0.0
O579 O 0.53156 0.2883 0.62765 0.0
O580 O 0.51172 0.12246 0.65015 0.0
O581 O 0.55206 0.35582 0.62835 0.0
O582 O 0.50497 0.17569 0.61938 0.0
O583 O 0.46175 0.16429 0.65956 0.0
O584 O 0.45985 0.22351 0.62777 0.0
O585 O 0.62581 0.22572 0.65844 0.0
O586 O 0.60838 0.15901 0.65398 0.0
C587 C 0.65094 0.35437 0.66862 0.0
C588 C 0.51344 0.30314 0.66687 0.0
C589 C 0.14816 0.31334 0.91352 0.0
C590 C 0.21259 0.1653 0.9092 0.0
C591 C 0.15232 0.16158 0.86673 0.0
Mg592 Mg 0.06487 0.35242 0.89997 0.0
Mg593 Mg 0.98525 0.29639 0.88857 0.0
O594 O 0.04274 0.30478 0.88775 0.0
Mg595 Mg 0.08336 0.26061 0.89347 0.0
O596 O 0.12792 0.22077 0.89937 0.0
Mg597 Mg 0.17693 0.2448 0.88855 0.0
Mg598 Mg 0.12064 0.16312 0.89845 0.0
C599 C 0.01385 0.21293 0.87207 0.0
O600 O 0.03939 0.22835 0.90994 0.0
O601 O 0.01922 0.39475 0.88704 0.0
O602 O 0.06189 0.1614 0.91036 0.0
O603 O 0.01477 0.34475 0.91836 0.0
O604 O 0.96752 0.35404 0.87842 0.0
O605 O 0.96672 0.29872 0.91114 0.0
O606 O 0.12999 0.28928 0.87721 0.0
O607 O 0.11377 0.35622 0.88183 0.0
C608 C 0.13548 0.32845 0.87498 0.0
C609 C 0.98563 0.38958 0.87955 0.0
O610 O 0.05217 0.21685 0.87613 0.0
O611 O 0.21853 0.19931 0.9021 0.0
O612 O 0.98484 0.238 0.87636 0.0
O613 O 0.1729 0.19477 0.86979 0.0
O614 O 0.17721 0.14682 0.90943 0.0
O615 O 0.1273 0.14504 0.87587 0.0
O616 O 0.1097 0.30557 0.91082 0.0
O617 O 0.17772 0.29359 0.90695 0.0
C618 C 0.98187 0.32332 0.92086 0.0
C619 C 0.03619 0.19036 0.91421 0.0
C620 C 0.33429 0.90171 0.48691 0.0
C621 C 0.30848 0.92993 0.47945 0.0
C622 C 0.36618 0.87976 0.47948 0.0
C623 C 0.37271 0.88659 0.4643 0.0
C624 C 0.34629 0.91438 0.45668 0.0
C625 C 0.31445 0.93546 0.46431 0.0
C626 C 0.39295 0.84942 0.48783 0.0
C627 C 0.35145 0.92165 0.44039 0.0
C628 C 0.47419 0.86893 0.44379 0.0
C629 C 0.4643 0.83389 0.43508 0.0
C630 C 0.44584 0.88459 0.45429 0.0
C631 C 0.40675 0.86473 0.45612 0.0
C632 C 0.39831 0.82714 0.44836 0.0
C633 C 0.42741 0.81198 0.43805 0.0
C634 C 0.45625 0.92445 0.46249 0.0
C635 C 0.35774 0.8039 0.4503 0.0
H636 H 0.33016 0.89737 0.49862 0.0
H637 H 0.29407 0.9563 0.45836 0.0
H638 H 0.38985 0.81773 0.4829 0.0
H639 H 0.42625 0.85841 0.48695 0.0
H640 H 0.38429 0.84801 0.49965 0.0
H641 H 0.32865 0.94465 0.43612 0.0
H642 H 0.38339 0.93315 0.43806 0.0
H643 H 0.34742 0.89177 0.43425 0.0
H644 H 0.50277 0.88592 0.44172 0.0
H645 H 0.41994 0.78435 0.43163 0.0
H646 H 0.44828 0.92175 0.47432 0.0
H647 H 0.43743 0.95044 0.45799 0.0
H648 H 0.48977 0.93265 0.46148 0.0
H649 H 0.35986 0.7844 0.46028 0.0
H650 H 0.35103 0.78309 0.44075 0.0
H651 H 0.33091 0.82543 0.45176 0.0
C652 C 0.40442 0.97163 0.71908 0.0
C653 C 0.374 0.94303 0.71443 0.0
C654 C 0.42401 0.99814 0.70904 0.0
C655 C 0.41288 0.996 0.69399 0.0
C656 C 0.38371 0.96579 0.68911 0.0
C657 C 0.36456 0.93969 0.6994 0.0
C658 C 0.45496 0.02997 0.71469 0.0
C659 C 0.3713 0.96234 0.67313 0.0
C660 C 0.42238 0.09781 0.67353 0.0
C661 C 0.46051 0.09277 0.66612 0.0
C662 C 0.40612 0.06607 0.6823 0.0
C663 C 0.42847 0.02823 0.68373 0.0
C664 C 0.46629 0.02228 0.67592 0.0
C665 C 0.48189 0.05465 0.66718 0.0
C666 C 0.36554 0.07356 0.6904 0.0
C667 C 0.49089 0.98227 0.67716 0.0
H668 H 0.41159 0.97467 0.73069 0.0
H669 H 0.34154 0.91715 0.69571 0.0
H670 H 0.48395 0.02886 0.70802 0.0
H671 H 0.44161 0.06176 0.71364 0.0
H672 H 0.46316 0.02497 0.72641 0.0
H673 H 0.35179 0.93438 0.67087 0.0
H674 H 0.35337 0.99051 0.67 0.0
H675 H 0.39938 0.9609 0.66599 0.0
H676 H 0.4054 0.12696 0.67271 0.0
H677 H 0.51137 0.05043 0.6615 0.0
H678 H 0.37102 0.0729 0.70244 0.0
H679 H 0.34299 0.04837 0.68773 0.0
H680 H 0.35115 0.10403 0.68763 0.0
H681 H 0.50255 0.97902 0.68857 0.0
H682 H 0.51796 0.98127 0.66952 0.0
H683 H 0.4706 0.95499 0.67481 0.0
C684 C 0.36004 0.09061 0.97338 0.0
C685 C 0.38923 0.06033 0.96898 0.0
C686 C 0.33488 0.11065 0.96301 0.0
C687 C 0.3392 0.1002 0.94791 0.0
C688 C 0.37004 0.07116 0.94334 0.0
C689 C 0.39461 0.05145 0.95395 0.0
C690 C 0.3022 0.14134 0.96831 0.0
C691 C 0.37583 0.05955 0.92733 0.0
C692 C 0.2411 0.10922 0.92514 0.0
C693 C 0.24682 0.14759 0.91812 0.0
C694 C 0.27133 0.09325 0.93462 0.0
C695 C 0.3084 0.11605 0.93715 0.0
C696 C 0.3151 0.15417 0.9298 0.0
C697 C 0.28416 0.16956 0.92035 0.0
C698 C 0.26303 0.0524 0.94224 0.0
C699 C 0.35441 0.17916 0.93219 0.0
H700 H 0.35563 0.0974 0.98499 0.0
H701 H 0.4177 0.02857 0.95051 0.0
H702 H 0.3041 0.17068 0.96199 0.0
H703 H 0.27071 0.128 0.96644 0.0
H704 H 0.30547 0.14897 0.9802 0.0
H705 H 0.40408 0.04006 0.92546 0.0
H706 H 0.34825 0.04183 0.92338 0.0
H707 H 0.37827 0.08802 0.92055 0.0
H708 H 0.21254 0.0918 0.92344 0.0
H709 H 0.28887 0.19923 0.915 0.0
H710 H 0.26217 0.05755 0.95433 0.0
H711 H 0.28858 0.02993 0.93986 0.0
H712 H 0.23306 0.03802 0.93878 0.0
H713 H 0.35578 0.1903 0.94378 0.0
H714 H 0.35616 0.20663 0.92488 0.0
H715 H 0.38225 0.15924 0.93024 0.0
C716 C 0.25424 0.98852 0.23143 0.0
C717 C 0.22874 0.0157 0.23973 0.0
C718 C 0.23713 0.95813 0.22205 0.0
C719 C 0.19338 0.9529 0.22155 0.0
C720 C 0.16759 0.97698 0.23103 0.0
C721 C 0.18541 0.00882 0.23974 0.0
C722 C 0.26589 0.93334 0.21206 0.0
C723 C 0.12107 0.96994 0.23162 0.0
C724 C 0.15241 0.9219 0.18411 0.0
C725 C 0.15365 0.87822 0.18469 0.0
C726 C 0.16383 0.94649 0.19624 0.0
C727 C 0.17489 0.92698 0.20957 0.0
C728 C 0.17298 0.88288 0.21059 0.0
C729 C 0.16355 0.85888 0.19797 0.0
C730 C 0.16687 0.99324 0.19441 0.0
C731 C 0.18207 0.86069 0.22477 0.0
H732 H 0.28782 0.99167 0.23187 0.0
H733 H 0.16506 0.02904 0.24612 0.0
H734 H 0.26271 0.89956 0.21427 0.0
H735 H 0.25721 0.9383 0.20039 0.0
H736 H 0.29913 0.94215 0.2135 0.0
H737 H 0.10627 0.98692 0.241 0.0
H738 H 0.10636 0.98063 0.2213 0.0
H739 H 0.11437 0.93611 0.23264 0.0
H740 H 0.145 0.93704 0.17384 0.0
H741 H 0.16397 0.82509 0.19851 0.0
H742 H 0.19933 0.00365 0.19654 0.0
H743 H 0.14642 0.00953 0.20247 0.0
H744 H 0.15786 0.00329 0.1832 0.0
H745 H 0.21543 0.85158 0.22501 0.0
H746 H 0.16336 0.83163 0.22555 0.0
H747 H 0.17537 0.88067 0.23455 0.0
C748 C 0.29909 0.10591 0.56865 0.0
C749 C 0.29544 0.11795 0.55394 0.0
C750 C 0.32897 0.12411 0.57793 0.0
C751 C 0.35581 0.15532 0.5724 0.0
C752 C 0.35141 0.16871 0.55771 0.0
C753 C 0.32132 0.14976 0.54863 0.0
C754 C 0.33238 0.10925 0.5936 0.0
C755 C 0.37938 0.20197 0.55145 0.0
C756 C 0.41013 0.21681 0.60256 0.0
C757 C 0.44717 0.19386 0.60416 0.0
C758 C 0.38107 0.20634 0.59162 0.0
C759 C 0.38941 0.17235 0.58198 0.0
C760 C 0.42821 0.15135 0.58274 0.0
C761 C 0.45667 0.16239 0.59382 0.0
C762 C 0.34041 0.23006 0.59092 0.0
C763 C 0.43843 0.11516 0.57257 0.0
H764 H 0.27871 0.08191 0.57289 0.0
H765 H 0.31899 0.15893 0.53722 0.0
H766 H 0.36362 0.09531 0.59541 0.0
H767 H 0.3291 0.13603 0.60136 0.0
H768 H 0.30834 0.08561 0.59631 0.0
H769 H 0.36901 0.21208 0.5404 0.0
H770 H 0.38038 0.22964 0.5589 0.0
H771 H 0.41168 0.18977 0.55051 0.0
H772 H 0.40283 0.24176 0.61031 0.0
H773 H 0.48536 0.14475 0.59484 0.0
H774 H 0.3139 0.20854 0.5928 0.0
H775 H 0.33636 0.24349 0.57983 0.0
H776 H 0.33875 0.2557 0.59923 0.0
H777 H 0.4185 0.08809 0.57537 0.0
H778 H 0.47161 0.10546 0.57341 0.0
H779 H 0.43174 0.12334 0.56099 0.0
C780 C 0.19076 0.97617 0.81074 0.0
C781 C 0.21908 0.98498 0.79944 0.0
C782 C 0.17786 0.00747 0.8207 0.0
C783 C 0.19328 0.04862 0.81918 0.0
C784 C 0.22038 0.05805 0.80738 0.0
C785 C 0.23326 0.02603 0.79772 0.0
C786 C 0.14901 0.9962 0.83318 0.0
C787 C 0.23646 0.10179 0.80514 0.0
C788 C 0.13731 0.1328 0.84164 0.0
C789 C 0.16407 0.13687 0.85369 0.0
C790 C 0.14734 0.10558 0.82989 0.0
C791 C 0.18392 0.08077 0.83066 0.0
C792 C 0.21111 0.08537 0.84283 0.0
C793 C 0.20106 0.1138 0.85411 0.0
C794 C 0.1183 0.10271 0.81689 0.0
C795 C 0.25006 0.05914 0.84421 0.0
H796 H 0.17981 0.94444 0.81209 0.0
H797 H 0.25457 0.03304 0.78882 0.0
H798 H 0.16503 0.00149 0.84385 0.0
H799 H 0.12102 0.01657 0.8331 0.0
H800 H 0.13876 0.96312 0.83254 0.0
H801 H 0.25411 0.10475 0.79468 0.0
H802 H 0.21014 0.12431 0.80512 0.0
H803 H 0.25729 0.11076 0.81438 0.0
H804 H 0.10851 0.15057 0.84146 0.0
H805 H 0.22131 0.1168 0.86361 0.0
H806 H 0.09831 0.0747 0.81796 0.0
H807 H 0.13595 0.09952 0.80643 0.0
H808 H 0.09789 0.13065 0.81622 0.0
H809 H 0.24152 0.0256 0.84453 0.0
H810 H 0.26813 0.06699 0.85428 0.0
H811 H 0.27049 0.0635 0.8345 0.0
C812 C 0.4012 0.92921 0.07646 0.0
C813 C 0.39219 0.91147 0.06266 0.0
C814 C 0.37836 0.91803 0.08898 0.0
C815 C 0.34531 0.88906 0.08756 0.0
C816 C 0.33707 0.87002 0.07373 0.0
C817 C 0.36085 0.88127 0.06145 0.0
C818 C 0.38858 0.93833 0.1036 0.0
C819 C 0.30175 0.83935 0.07173 0.0
C820 C 0.29139 0.8377 0.11985 0.0
C821 C 0.25491 0.8618 0.12103 0.0
C822 C 0.3224 0.84744 0.10951 0.0
C823 C 0.3165 0.88179 0.10008 0.0
C824 C 0.28096 0.90757 0.1018 0.0
C825 C 0.2508 0.89745 0.11231 0.0
C826 C 0.36037 0.81976 0.10817 0.0
C827 C 0.27345 0.94448 0.09194 0.0
H828 H 0.42587 0.95217 0.07741 0.0
H829 H 0.35379 0.86773 0.05075 0.0
H830 H 0.36314 0.96008 0.10685 0.0
H831 H 0.39095 0.91443 0.1123 0.0
H832 H 0.41825 0.95614 0.10322 0.0
H833 H 0.30112 0.82545 0.06048 0.0
H834 H 0.30439 0.8138 0.0798 0.0
H835 H 0.27157 0.85538 0.0738 0.0
H836 H 0.29501 0.81022 0.12658 0.0
H837 H 0.223 0.9166 0.1132 0.0
H838 H 0.38913 0.83886 0.10747 0.0
H839 H 0.35834 0.80083 0.0979 0.0
H840 H 0.36325 0.79821 0.1176 0.0
H841 H 0.30087 0.96551 0.09203 0.0
H842 H 0.2455 0.96281 0.09529 0.0
H843 H 0.26905 0.93336 0.08044 0.0
C844 C 0.38699 0.08195 0.33531 0.0
C845 C 0.39809 0.0753 0.32053 0.0
C846 C 0.4036 0.05699 0.34644 0.0
C847 C 0.4318 0.02458 0.34267 0.0
C848 C 0.4449 0.01928 0.32788 0.0
C849 C 0.42789 0.04474 0.31698 0.0
C850 C 0.38927 0.06388 0.36212 0.0
C851 C 0.47495 0.98504 0.32341 0.0
C852 C 0.49475 0.96595 0.37111 0.0
C853 C 0.47162 0.92897 0.37234 0.0
C854 C 0.48141 0.99825 0.36192 0.0
C855 C 0.44415 0.99333 0.35378 0.0
C856 C 0.41972 0.95696 0.3555 0.0
C857 C 0.4337 0.9253 0.36477 0.0
C858 C 0.50805 0.03678 0.36044 0.0
C859 C 0.37966 0.95064 0.34704 0.0
H860 H 0.36443 0.106 0.33812 0.0
H861 H 0.4363 0.0392 0.30557 0.0
H862 H 0.36891 0.03765 0.36545 0.0
H863 H 0.41633 0.06443 0.3697 0.0
H864 H 0.37152 0.09347 0.3635 0.0
H865 H 0.48499 0.9876 0.31175 0.0
H866 H 0.50301 0.98583 0.33052 0.0
H867 H 0.45986 0.95422 0.32488 0.0
H868 H 0.52404 0.96919 0.37694 0.0
H869 H 0.41538 0.89706 0.36572 0.0
H870 H 0.48873 0.06535 0.36168 0.0
H871 H 0.52218 0.03733 0.3493 0.0
H872 H 0.53352 0.03788 0.3687 0.0
H873 H 0.35841 0.97755 0.34887 0.0
H874 H 0.36315 0.92166 0.35025 0.0
H875 H 0.38653 0.94883 0.33508 0.0
C876 C 0.73693 0.04615 0.5617 0.0
C877 C 0.77437 0.03353 0.5683 0.0
C878 C 0.70695 0.06906 0.56966 0.0
C879 C 0.71471 0.07972 0.58454 0.0
C880 C 0.75112 0.06461 0.59152 0.0
C881 C 0.78053 0.04169 0.58331 0.0
C882 C 0.66832 0.08411 0.56187 0.0
C883 C 0.76052 0.07522 0.6074 0.0
C884 C 0.68232 0.18445 0.60006 0.0
C885 C 0.651 0.17349 0.61003 0.0
C886 C 0.70138 0.15443 0.59102 0.0
C887 C 0.68902 0.1122 0.59208 0.0
C888 C 0.65526 0.10134 0.60138 0.0
C889 C 0.63641 0.13235 0.61029 0.0
C890 C 0.7368 0.16762 0.58112 0.0
C891 C 0.641 0.05671 0.6027 0.0
H892 H 0.73154 0.03901 0.55017 0.0
H893 H 0.80935 0.03203 0.58847 0.0
H894 H 0.64031 0.07995 0.56888 0.0
H895 H 0.67132 0.11795 0.55965 0.0
H896 H 0.66342 0.06745 0.55123 0.0
H897 H 0.78728 0.05697 0.61167 0.0
H898 H 0.76807 0.10892 0.60843 0.0
H899 H 0.73288 0.06926 0.61442 0.0
H900 H 0.69333 0.21644 0.59983 0.0
H901 H 0.61239 0.12391 0.61811 0.0
H902 H 0.73193 0.15554 0.56978 0.0
H903 H 0.76652 0.15426 0.58518 0.0
H904 H 0.74015 0.2021 0.5807 0.0
H905 H 0.63939 0.04128 0.59173 0.0
H906 H 0.60998 0.05457 0.60811 0.0
H907 H 0.66384 0.03914 0.60938 0.0
C908 C 0.813 0.94856 0.33098 0.0
C909 C 0.80367 0.95391 0.31606 0.0
C910 C 0.79021 0.92042 0.33957 0.0
C911 C 0.75733 0.89722 0.33307 0.0
C912 C 0.75021 0.89994 0.31775 0.0
C913 C 0.77343 0.9283 0.30944 0.0
C914 C 0.79897 0.91827 0.35584 0.0
C915 C 0.71576 0.87551 0.31035 0.0
C916 C 0.69801 0.81859 0.35646 0.0
C917 C 0.66538 0.84365 0.36186 0.0
C918 C 0.72822 0.83517 0.34687 0.0
C919 C 0.72536 0.87755 0.34262 0.0
C920 C 0.6917 0.90237 0.34772 0.0
C921 C 0.66231 0.88516 0.35722 0.0
C922 C 0.76364 0.80778 0.3416 0.0
C923 C 0.68698 0.94756 0.34336 0.0
H924 H 0.83643 0.96812 0.33616 0.0
H925 H 0.76687 0.93148 0.29781 0.0
H926 H 0.77416 0.93528 0.36199 0.0
H927 H 0.7987 0.88544 0.35958 0.0
H928 H 0.82951 0.93249 0.35873 0.0
H929 H 0.71903 0.87529 0.29818 0.0
H930 H 0.71529 0.84282 0.31423 0.0
H931 H 0.68524 0.88982 0.31323 0.0
H932 H 0.70056 0.78651 0.36 0.0
H933 H 0.63683 0.90465 0.36113 0.0
H934 H 0.79315 0.81851 0.34674 0.0
H935 H 0.76756 0.81019 0.32952 0.0
H936 H 0.75873 0.7745 0.34443 0.0
H937 H 0.71445 0.96573 0.34714 0.0
H938 H 0.65849 0.96226 0.34809 0.0
H939 H 0.68553 0.94999 0.33121 0.0
C940 C 0.8694 0.96563 0.08437 0.0
C941 C 0.85955 0.95394 0.06986 0.0
C942 C 0.89555 0.94088 0.09301 0.0
C943 C 0.91158 0.90304 0.08711 0.0
C944 C 0.89954 0.88956 0.07288 0.0
C945 C 0.87413 0.91541 0.06435 0.0
C946 C 0.90786 0.95643 0.10813 0.0
C947 C 0.91526 0.84887 0.06639 0.0
C948 C 0.01838 0.8738 0.10113 0.0
C949 C 0.00887 0.84398 0.11175 0.0
C950 C 0.98701 0.89208 0.0927 0.0
C951 C 0.94499 0.88055 0.09507 0.0
C952 C 0.93522 0.8495 0.10549 0.0
C953 C 0.96746 0.8313 0.11369 0.0
C954 C 0.99878 0.92498 0.08166 0.0
C955 C 0.89066 0.83707 0.10844 0.0
H956 H 0.85737 0.99467 0.08891 0.0
H957 H 0.86711 0.90603 0.05314 0.0
H958 H 0.90365 0.93155 0.11638 0.0
H959 H 0.94138 0.96497 0.10812 0.0
H960 H 0.88948 0.98422 0.11167 0.0
H961 H 0.89893 0.84037 0.05601 0.0
H962 H 0.94911 0.85143 0.06403 0.0
H963 H 0.91116 0.82317 0.07434 0.0
H964 H 0.05048 0.88347 0.09961 0.0
H965 H 0.96007 0.80887 0.12212 0.0
H966 H 0.98464 0.95535 0.08492 0.0
H967 H 0.9864 0.91651 0.07064 0.0
H968 H 0.03307 0.92912 0.08076 0.0
H969 H 0.87394 0.86339 0.11388 0.0
H970 H 0.8885 0.80947 0.11568 0.0
H971 H 0.87426 0.83024 0.09796 0.0
C972 C 0.91094 0.02052 0.83061 0.0
C973 C 0.91735 0.02205 0.81538 0.0
C974 C 0.93252 0.04749 0.84017 0.0
C975 C 0.96083 0.07679 0.83429 0.0
C976 C 0.96968 0.07629 0.81903 0.0
C977 C 0.94779 0.04888 0.80975 0.0
C978 C 0.9227 0.04669 0.85641 0.0
C979 C 0.99937 0.10704 0.81221 0.0
C980 C 0.96451 0.18117 0.85406 0.0
C981 C 0.00184 0.17841 0.862 0.0
C982 C 0.95125 0.14844 0.8449 0.0
C983 C 0.97584 0.11186 0.84366 0.0
C984 C 0.01395 0.10903 0.8514 0.0
C985 C 0.02642 0.14238 0.86054 0.0
C986 C 0.91071 0.15296 0.83662 0.0
C987 C 0.04117 0.07067 0.85018 0.0
H988 H 0.88789 0.9993 0.83501 0.0
H989 H 0.95268 0.05044 0.79796 0.0
H990 H 0.95182 0.04756 0.86297 0.0
H991 H 0.90417 0.07477 0.85946 0.0
H992 H 0.90458 0.01855 0.85946 0.0
H993 H 0.01361 0.09404 0.80199 0.0
H994 H 0.98188 0.13566 0.80928 0.0
H995 H 0.02458 0.11618 0.81991 0.0
H996 H 0.94546 0.20905 0.855 0.0
H997 H 0.05484 0.13981 0.86678 0.0
H998 H 0.88872 0.12801 0.83989 0.0
H999 H 0.91639 0.14938 0.82463 0.0
H1000 H 0.89554 0.18368 0.83868 0.0
H1001 H 0.07159 0.07488 0.85583 0.0
H1002 H 0.04706 0.06268 0.83845 0.0
H1003 H 0.02484 0.04373 0.85511 0.0
C1004 C 0.78482 0.86216 0.4789 0.0
C1005 C 0.78965 0.90359 0.48369 0.0
C1006 C 0.75749 0.85194 0.4674 0.0
C1007 C 0.73441 0.88397 0.46052 0.0
C1008 C 0.73815 0.9257 0.46558 0.0
C1009 C 0.76582 0.93504 0.47711 0.0
C1010 C 0.7545 0.80702 0.46228 0.0
C1011 C 0.71389 0.96059 0.45856 0.0
C1012 C 0.70989 0.85499 0.4212 0.0
C1013 C 0.66993 0.83781 0.42255 0.0
C1014 C 0.73004 0.87311 0.43331 0.0
C1015 C 0.70975 0.87386 0.44714 0.0
C1016 C 0.66795 0.85991 0.44829 0.0
C1017 C 0.64836 0.84209 0.4359 0.0
C1018 C 0.77435 0.88821 0.43153 0.0
C1019 C 0.64515 0.86063 0.46282 0.0
H1020 H 0.80335 0.83778 0.48387 0.0
H1021 H 0.76886 0.96703 0.48096 0.0
H1022 H 0.72144 0.79688 0.46207 0.0
H1023 H 0.76678 0.80402 0.45089 0.0
H1024 H 0.77234 0.78554 0.46943 0.0
H1025 H 0.71712 0.99056 0.46472 0.0
H1026 H 0.72516 0.96516 0.44715 0.0
H1027 H 0.68034 0.95243 0.45789 0.0
H1028 H 0.72638 0.85227 0.4108 0.0
H1029 H 0.61742 0.82884 0.43697 0.0
H1030 H 0.7959 0.86638 0.4371 0.0
H1031 H 0.77833 0.91939 0.43675 0.0
H1032 H 0.78371 0.89015 0.41978 0.0
H1033 H 0.6573 0.83526 0.46983 0.0
H1034 H 0.61107 0.85599 0.46139 0.0
H1035 H 0.65044 0.89058 0.46877 0.0
C1036 C 0.97616 0.9978 0.2214 0.0
C1037 C 0.94973 0.98171 0.23225 0.0
C1038 C 0.99102 0.97217 0.20988 0.0
C1039 C 0.9793 0.9296 0.20933 0.0
C1040 C 0.95418 0.9129 0.22063 0.0
C1041 C 0.93954 0.9392 0.2319 0.0
C1042 C 0.01845 0.9907 0.19815 0.0
C1043 C 0.94256 0.86722 0.22078 0.0
C1044 C 0.9731 0.86647 0.17395 0.0
C1045 C 0.00982 0.84293 0.17457 0.0
C1046 C 0.96407 0.89668 0.18478 0.0
C1047 C 0.9918 0.90238 0.19675 0.0
C1048 C 0.02933 0.87913 0.19727 0.0
C1049 C 0.03829 0.85024 0.18599 0.0
C1050 C 0.92416 0.9215 0.18369 0.0
C1051 C 0.05967 0.88389 0.20986 0.0
H1052 H 0.98422 0.03065 0.2217 0.0
H1053 H 0.91999 0.92649 0.2405 0.0
H1054 H 0.0489 0.97423 0.19783 0.0
H1055 H 0.00376 0.98639 0.18719 0.0
H1056 H 0.02422 0.02452 0.20005 0.0
H1057 H 0.9246 0.85878 0.23077 0.0
H1058 H 0.92351 0.85941 0.21095 0.0
H1059 H 0.97116 0.84769 0.22024 0.0
H1060 H 0.95132 0.86109 0.16502 0.0
H1061 H 0.06667 0.8319 0.1865 0.0
H1062 H 0.93071 0.95533 0.18507 0.0
H1063 H 0.9026 0.91243 0.19266 0.0
H1064 H 0.90816 0.91638 0.17299 0.0
H1065 H 0.07936 0.91169 0.20794 0.0
H1066 H 0.08042 0.85627 0.21075 0.0
H1067 H 0.04342 0.88848 0.22054 0.0
C1068 C 0.86571 0.09956 0.96896 0.0
C1069 C 0.86226 0.12493 0.98159 0.0
C1070 C 0.89034 0.11162 0.957 0.0
C1071 C 0.91184 0.15011 0.95765 0.0
C1072 C 0.90658 0.17701 0.96998 0.0
C1073 C 0.88201 0.16399 0.98186 0.0
C1074 C 0.89486 0.08226 0.94397 0.0
C1075 C 0.92853 0.21864 0.97094 0.0
C1076 C 0.01434 0.15565 0.93711 0.0
C1077 C 0.00373 0.17991 0.92498 0.0
C1078 C 0.98471 0.14612 0.94787 0.0
C1079 C 0.94317 0.16022 0.94621 0.0
C1080 C 0.93199 0.18387 0.93375 0.0
C1081 C 0.96271 0.19417 0.92337 0.0
C1082 C 0.99799 0.12125 0.96108 0.0
C1083 C 0.88753 0.19752 0.93132 0.0
H1084 H 0.84966 0.06982 0.96852 0.0
H1085 H 0.87962 0.18376 0.99158 0.0
H1086 H 0.89069 0.09927 0.93352 0.0
H1087 H 0.92675 0.06878 0.94384 0.0
H1088 H 0.87206 0.05622 0.94432 0.0
H1089 H 0.91839 0.23737 0.98067 0.0
H1090 H 0.9627 0.21354 0.97165 0.0
H1091 H 0.92259 0.23699 0.96089 0.0
H1092 H 0.04622 0.14493 0.93836 0.0
H1093 H 0.95454 0.21248 0.91385 0.0
H1094 H 0.97959 0.09203 0.96169 0.0
H1095 H 0.99172 0.13943 0.97132 0.0
H1096 H 0.03164 0.11299 0.96076 0.0
H1097 H 0.8673 0.1697 0.92995 0.0
H1098 H 0.88415 0.21722 0.92142 0.0
H1099 H 0.87591 0.21502 0.94109 0.0
C1100 C 0.73786 0.1041 0.73223 0.0
C1101 C 0.76904 0.07439 0.72921 0.0
C1102 C 0.72199 0.1295 0.72111 0.0
C1103 C 0.73831 0.12576 0.70668 0.0
C1104 C 0.77298 0.09936 0.70396 0.0
C1105 C 0.78766 0.07357 0.71522 0.0
C1106 C 0.685 0.15722 0.72451 0.0
C1107 C 0.79216 0.09556 0.68883 0.0
C1108 C 0.65743 0.13035 0.67667 0.0
C1109 C 0.66111 0.17144 0.67166 0.0
C1110 C 0.68281 0.1153 0.68788 0.0
C1111 C 0.71354 0.14165 0.69414 0.0
C1112 C 0.71865 0.18277 0.68883 0.0
C1113 C 0.6919 0.19745 0.67775 0.0
C1114 C 0.67576 0.0714 0.6933 0.0
C1115 C 0.75164 0.21148 0.69502 0.0
H1116 H 0.72435 0.10611 0.74315 0.0
H1117 H 0.81195 0.05101 0.71274 0.0
H1118 H 0.68918 0.18845 0.71961 0.0
H1119 H 0.65653 0.14322 0.71959 0.0
H1120 H 0.67983 0.16114 0.73653 0.0
H1121 H 0.82365 0.08111 0.68921 0.0
H1122 H 0.77199 0.07573 0.68174 0.0
H1123 H 0.7946 0.12661 0.68363 0.0
H1124 H 0.63366 0.10996 0.67213 0.0
H1125 H 0.69503 0.22918 0.67389 0.0
H1126 H 0.66777 0.07221 0.70519 0.0
H1127 H 0.70468 0.05268 0.69201 0.0
H1128 H 0.65027 0.05514 0.6873 0.0
H1129 H 0.74139 0.22361 0.70592 0.0
H1130 H 0.75737 0.23853 0.68776 0.0
H1131 H 0.78142 0.19448 0.69664 0.0
C1132 C 0.82631 0.40044 0.98586 0.0
C1133 C 0.80205 0.43028 0.97854 0.0
C1134 C 0.85732 0.37747 0.97836 0.0
C1135 C 0.86461 0.38498 0.96327 0.0
C1136 C 0.83958 0.41426 0.95576 0.0
C1137 C 0.80847 0.43622 0.96344 0.0
C1138 C 0.88253 0.34551 0.98656 0.0
C1139 C 0.84573 0.42252 0.93957 0.0
C1140 C 0.96697 0.36623 0.9435 0.0
C1141 C 0.9567 0.33242 0.93425 0.0
C1142 C 0.93829 0.38175 0.9539 0.0
C1143 C 0.89852 0.3629 0.95512 0.0
C1144 C 0.88948 0.32647 0.94678 0.0
C1145 C 0.91883 0.31153 0.93653 0.0
C1146 C 0.94921 0.42054 0.96265 0.0
C1147 C 0.84803 0.30444 0.94808 0.0
H1148 H 0.82181 0.39573 0.99754 0.0
H1149 H 0.78918 0.45828 0.95759 0.0
H1150 H 0.87878 0.31438 0.98125 0.0
H1151 H 0.91615 0.35348 0.98605 0.0
H1152 H 0.87304 0.34332 -0.00171 0.0
H1153 H 0.8239 0.44657 0.9354 0.0
H1154 H 0.87814 0.43312 0.93753 0.0
H1155 H 0.84102 0.39325 0.93314 0.0
H1156 H 0.99629 0.3824 0.94197 0.0
H1157 H 0.91091 0.28499 0.92962 0.0
H1158 H 0.94053 0.4169 0.97438 0.0
H1159 H 0.93128 0.44742 0.95835 0.0
H1160 H 0.98298 0.42802 0.96196 0.0
H1161 H 0.84767 0.28613 0.95836 0.0
H1162 H 0.84236 0.28278 0.93868 0.0
H1163 H 0.82176 0.32697 0.94865 0.0
C1164 C 0.89619 0.47984 0.21642 0.0
C1165 C 0.86647 0.45093 0.21143 0.0
C1166 C 0.91588 0.5071 0.20666 0.0
C1167 C 0.90553 0.50549 0.19153 0.0
C1168 C 0.87666 0.47542 0.18632 0.0
C1169 C 0.85747 0.44848 0.19634 0.0
C1170 C 0.94655 0.53872 0.21263 0.0
C1171 C 0.86503 0.47261 0.17026 0.0
C1172 C 0.9198 0.60672 0.17094 0.0
C1173 C 0.95833 0.6003 0.16392 0.0
C1174 C 0.90181 0.57566 0.17963 0.0
C1175 C 0.92285 0.53718 0.18139 0.0
C1176 C 0.96111 0.52993 0.174 0.0
C1177 C 0.97839 0.56156 0.16533 0.0
C1178 C 0.8608 0.58449 0.18727 0.0
C1179 C 0.98442 0.48926 0.17561 0.0
H1180 H 0.90295 0.48227 0.22808 0.0
H1181 H 0.83498 0.42578 0.19238 0.0
H1182 H 0.97625 0.53699 0.20638 0.0
H1183 H 0.93381 0.57066 0.21127 0.0
H1184 H 0.95336 0.53399 0.22447 0.0
H1185 H 0.84441 0.44558 0.16782 0.0
H1186 H 0.84868 0.50159 0.16699 0.0
H1187 H 0.89348 0.46988 0.16335 0.0
H1188 H 0.90387 0.63639 0.16987 0.0
H1189 H 0.00817 0.55623 0.15997 0.0
H1190 H 0.86527 0.5841 0.19937 0.0
H1191 H 0.83782 0.55981 0.18448 0.0
H1192 H 0.8475 0.61523 0.18423 0.0
H1193 H 0.99459 0.48574 0.18719 0.0
H1194 H 0.01234 0.48745 0.16838 0.0
H1195 H 0.96367 0.46255 0.17297 0.0
C1196 C 0.86122 0.58299 0.46586 0.0
C1197 C 0.88969 0.5517 0.46178 0.0
C1198 C 0.83645 0.60263 0.4553 0.0
C1199 C 0.84047 0.5908 0.4403 0.0
C1200 C 0.87066 0.56073 0.43603 0.0
C1201 C 0.8948 0.54136 0.44685 0.0
C1202 C 0.80442 0.6344 0.46029 0.0
C1203 C 0.87619 0.54772 0.42013 0.0
C1204 C 0.74149 0.60132 0.41813 0.0
C1205 C 0.74738 0.63975 0.41117 0.0
C1206 C 0.77217 0.58452 0.42725 0.0
C1207 C 0.80992 0.60648 0.42942 0.0
C1208 C 0.81704 0.64426 0.42191 0.0
C1209 C 0.7856 0.66055 0.41287 0.0
C1210 C 0.76338 0.54407 0.43506 0.0
C1211 C 0.85715 0.66825 0.42386 0.0
H1212 H 0.857 0.59086 0.4774 0.0
H1213 H 0.91731 0.51763 0.44366 0.0
H1214 H 0.80717 0.66328 0.45375 0.0
H1215 H 0.77265 0.62173 0.45845 0.0
H1216 H 0.80767 0.64269 0.47213 0.0
H1217 H 0.9042 0.52777 0.41845 0.0
H1218 H 0.84839 0.53 0.4164 0.0
H1219 H 0.8789 0.57557 0.41306 0.0
H1220 H 0.71228 0.58474 0.41682 0.0
H1221 H 0.79051 0.6902 0.40752 0.0
H1222 H 0.76247 0.54976 0.44712 0.0
H1223 H 0.78868 0.5212 0.43283 0.0
H1224 H 0.73326 0.52991 0.43165 0.0
H1225 H 0.85881 0.68105 0.43523 0.0
H1226 H 0.85971 0.69455 0.41605 0.0
H1227 H 0.8844 0.64727 0.42228 0.0
C1228 C 0.70586 0.52743 0.72835 0.0
C1229 C 0.7443 0.51864 0.73497 0.0
C1230 C 0.68581 0.49749 0.71946 0.0
C1231 C 0.70482 0.45805 0.7171 0.0
C1232 C 0.74194 0.44797 0.72466 0.0
C1233 C 0.76112 0.47833 0.73355 0.0
C1234 C 0.64563 0.50892 0.71188 0.0
C1235 C 0.76318 0.40624 0.72247 0.0
C1236 C 0.64883 0.37222 0.69549 0.0
C1237 C 0.66469 0.37895 0.68138 0.0
C1238 C 0.66136 0.39785 0.70737 0.0
C1239 C 0.69027 0.43049 0.7049 0.0
C1240 C 0.70637 0.43686 0.69058 0.0
C1241 C 0.69313 0.41112 0.679 0.0
C1242 C 0.64336 0.39045 0.72245 0.0
C1243 C 0.73759 0.47094 0.68746 0.0
H1244 H 0.69255 0.55842 0.72945 0.0
H1245 H 0.79021 0.47094 0.73899 0.0
H1246 H 0.65031 0.50883 0.69978 0.0
H1247 H 0.62138 0.48537 0.71433 0.0
H1248 H 0.63392 0.54016 0.71536 0.0
H1249 H 0.78837 0.40117 0.73063 0.0
H1250 H 0.74033 0.38042 0.7233 0.0
H1251 H 0.77705 0.40465 0.71128 0.0
H1252 H 0.62629 0.34752 0.69716 0.0
H1253 H 0.70505 0.41612 0.66798 0.0
H1254 H 0.62292 0.41704 0.72561 0.0
H1255 H 0.66853 0.3888 0.73077 0.0
H1256 H 0.62484 0.36121 0.72285 0.0
H1257 H 0.72396 0.50184 0.69032 0.0
H1258 H 0.74741 0.47125 0.67574 0.0
H1259 H 0.76573 0.46677 0.69438 0.0
C1260 C 0.83406 0.6463 0.04548 0.0
C1261 C 0.80607 0.61749 0.05152 0.0
C1262 C 0.86608 0.66401 0.05404 0.0
C1263 C 0.87004 0.65266 0.06896 0.0
C1264 C 0.84149 0.62405 0.07515 0.0
C1265 C 0.80993 0.60681 0.06635 0.0
C1266 C 0.89605 0.69423 0.04706 0.0
C1267 C 0.84427 0.61159 0.0911 0.0
C1268 C 0.96933 0.66072 0.0913 0.0
C1269 C 0.95997 0.69452 0.1007 0.0
C1270 C 0.94162 0.64849 0.08011 0.0
C1271 C 0.9037 0.67054 0.07833 0.0
C1272 C 0.89578 0.70674 0.08695 0.0
C1273 C 0.92418 0.71848 0.09795 0.0
C1274 C 0.95146 0.61004 0.07099 0.0
C1275 C 0.85595 0.73142 0.08524 0.0
H1276 H 0.83154 0.65425 0.03396 0.0
H1277 H 0.78806 0.58498 0.07111 0.0
H1278 H 0.89607 0.72424 0.05327 0.0
H1279 H 0.92821 0.68151 0.04752 0.0
H1280 H 0.88816 0.70051 0.0354 0.0
H1281 H 0.81947 0.58919 0.09423 0.0
H1282 H 0.87504 0.59708 0.09327 0.0
H1283 H 0.84164 0.63968 0.0983 0.0
H1284 H 0.99708 0.64221 0.09321 0.0
H1285 H 0.91699 0.74504 0.10498 0.0
H1286 H 0.94503 0.61561 0.05919 0.0
H1287 H 0.93116 0.58398 0.07453 0.0
H1288 H 0.9845 0.60017 0.07218 0.0
H1289 H 0.85382 0.74364 0.0739 0.0
H1290 H 0.8539 0.75803 0.09313 0.0
H1291 H 0.82856 0.71092 0.08698 0.0
C1292 C 0.68272 0.51668 0.29047 0.0
C1293 C 0.71298 0.48814 0.29519 0.0
C1294 C 0.66824 0.54876 0.29986 0.0
C1295 C 0.68413 0.55205 0.31434 0.0
C1296 C 0.7147 0.52331 0.31914 0.0
C1297 C 0.72883 0.49185 0.3095 0.0
C1298 C 0.636 0.57909 0.2943 0.0
C1299 C 0.73198 0.52532 0.33458 0.0
C1300 C 0.6786 0.64946 0.33845 0.0
C1301 C 0.64694 0.63869 0.34838 0.0
C1302 C 0.68928 0.62278 0.32664 0.0
C1303 C 0.66799 0.58437 0.3248 0.0
C1304 C 0.63406 0.57482 0.33413 0.0
C1305 C 0.62373 0.60224 0.34571 0.0
C1306 C 0.72514 0.63445 0.31674 0.0
C1307 C 0.61041 0.5343 0.33248 0.0
H1308 H 0.67075 0.51423 0.27935 0.0
H1309 H 0.75186 0.46959 0.31325 0.0
H1310 H 0.60703 0.57659 0.30091 0.0
H1311 H 0.6475 0.61157 0.2956 0.0
H1312 H 0.6282 0.57341 0.28255 0.0
H1313 H 0.7559 0.5009 0.33654 0.0
H1314 H 0.7462 0.55634 0.33671 0.0
H1315 H 0.70635 0.52138 0.34267 0.0
H1316 H 0.69651 0.6777 0.3403 0.0
H1317 H 0.59882 0.59388 0.35317 0.0
H1318 H 0.71694 0.62888 0.30503 0.0
H1319 H 0.7525 0.61454 0.31924 0.0
H1320 H 0.73435 0.66765 0.31822 0.0
H1321 H 0.59672 0.53184 0.32132 0.0
H1322 H 0.58499 0.53143 0.34071 0.0
H1323 H 0.632 0.5075 0.33378 0.0
C1324 C 0.88075 0.43626 0.56977 0.0
C1325 C 0.87454 0.41638 0.55612 0.0
C1326 C 0.85593 0.42645 0.58198 0.0
C1327 C 0.82403 0.39626 0.58044 0.0
C1328 C 0.81797 0.37573 0.56673 0.0
C1329 C 0.84339 0.38597 0.55474 0.0
C1330 C 0.8635 0.4487 0.59646 0.0
C1331 C 0.78403 0.34357 0.56463 0.0
C1332 C 0.77524 0.34303 0.61333 0.0
C1333 C 0.73722 0.36454 0.61466 0.0
C1334 C 0.80462 0.35405 0.60259 0.0
C1335 C 0.79569 0.38722 0.59294 0.0
C1336 C 0.75825 0.41019 0.59464 0.0
C1337 C 0.72955 0.39866 0.6055 0.0
C1338 C 0.84445 0.32912 0.60118 0.0
C1339 C 0.74762 0.44581 0.58456 0.0
H1340 H 0.90519 0.4594 0.57091 0.0
H1341 H 0.83823 0.37086 0.54417 0.0
H1342 H 0.83553 0.46716 0.59962 0.0
H1343 H 0.86887 0.42564 0.60527 0.0
H1344 H 0.89072 0.47005 0.59599 0.0
H1345 H 0.7842 0.32964 0.55338 0.0
H1346 H 0.78774 0.31816 0.57271 0.0
H1347 H 0.75312 0.35816 0.56665 0.0
H1348 H 0.7816 0.31675 0.62038 0.0
H1349 H 0.70043 0.41569 0.60646 0.0
H1350 H 0.87179 0.35027 0.60092 0.0
H1351 H 0.84429 0.31117 0.59067 0.0
H1352 H 0.84847 0.30689 0.61036 0.0
H1353 H 0.77342 0.46882 0.58438 0.0
H1354 H 0.7185 0.46217 0.58793 0.0
H1355 H 0.74368 0.43374 0.57316 0.0
C1356 C 0.93993 0.54088 0.81452 0.0
C1357 C 0.90765 0.56987 0.81665 0.0
C1358 C 0.95323 0.51533 0.826 0.0
C1359 C 0.93383 0.51895 0.83996 0.0
C1360 C 0.9026 0.54952 0.84239 0.0
C1361 C 0.88976 0.57457 0.83067 0.0
C1362 C 0.98658 0.48299 0.82296 0.0
C1363 C 0.88157 0.55458 0.85718 0.0
C1364 C 0.93451 0.419 0.8617 0.0
C1365 C 0.96919 0.42487 0.87088 0.0
C1366 C 0.92168 0.45013 0.85201 0.0
C1367 C 0.94387 0.48823 0.85153 0.0
C1368 C 0.97747 0.49533 0.8613 0.0
C1369 C 0.98982 0.46351 0.87085 0.0
C1370 C 0.8856 0.4414 0.84176 0.0
C1371 C 0.00155 0.53578 0.8612 0.0
H1372 H 0.95352 0.53678 0.80367 0.0
H1373 H 0.86514 0.59734 0.8324 0.0
H1374 H 0.01175 0.48545 0.83128 0.0
H1375 H 0.97296 0.45128 0.8238 0.0
H1376 H 0.00058 0.48623 0.81185 0.0
H1377 H 0.86124 0.58267 0.8577 0.0
H1378 H 0.86219 0.52671 0.85941 0.0
H1379 H 0.90518 0.5569 0.86605 0.0
H1380 H 0.91813 0.38943 0.86168 0.0
H1381 H 0.01649 0.46852 0.87795 0.0
H1382 H 0.89698 0.44027 0.83023 0.0
H1383 H 0.8622 0.46686 0.84256 0.0
H1384 H 0.86993 0.41135 0.84419 0.0
H1385 H 0.01959 0.53794 0.85081 0.0
H1386 H 0.0236 0.53829 0.87058 0.0
H1387 H 0.97991 0.56282 0.86163 0.0
C1388 C 0.27419 0.52541 0.08298 0.0
C1389 C 0.27806 0.53121 0.06778 0.0
C1390 C 0.24571 0.54909 0.09134 0.0
C1391 C 0.22059 0.5793 0.08432 0.0
C1392 C 0.22208 0.58294 0.06884 0.0
C1393 C 0.25091 0.55893 0.06075 0.0
C1394 C 0.24504 0.54419 0.10784 0.0
C1395 C 0.19552 0.6144 0.06091 0.0
C1396 C 0.14139 0.63838 0.10812 0.0
C1397 C 0.16537 0.67272 0.11264 0.0
C1398 C 0.15831 0.6079 0.09849 0.0
C1399 C 0.19985 0.61231 0.09334 0.0
C1400 C 0.22322 0.64801 0.09738 0.0
C1401 C 0.20571 0.67762 0.10693 0.0
C1402 C 0.1324 0.57039 0.0943 0.0
C1403 C 0.26743 0.6544 0.09203 0.0
H1404 H 0.295 0.50398 0.08849 0.0
H1405 H 0.25301 0.56272 0.04894 0.0
H1406 H 0.26061 0.57144 0.11309 0.0
H1407 H 0.21251 0.54332 0.11198 0.0
H1408 H 0.26141 0.51539 0.11133 0.0
H1409 H 0.19466 0.60821 0.04887 0.0
H1410 H 0.16315 0.61436 0.06524 0.0
H1411 H 0.20843 0.64614 0.06278 0.0
H1412 H 0.11017 0.63456 0.11248 0.0
H1413 H 0.22416 0.70455 0.11014 0.0
H1414 H 0.14449 0.54253 0.10004 0.0
H1415 H 0.13463 0.56391 0.08231 0.0
H1416 H 0.09906 0.57464 0.09732 0.0
H1417 H 0.2877 0.62893 0.0961 0.0
H1418 H 0.2807 0.68469 0.09581 0.0
H1419 H 0.26851 0.65327 0.07984 0.0
C1420 C 0.2803 0.42247 0.81245 0.0
C1421 C 0.30935 0.44968 0.81895 0.0
C1422 C 0.25661 0.39515 0.82101 0.0
C1423 C 0.26218 0.39497 0.83645 0.0
C1424 C 0.29405 0.41963 0.8429 0.0
C1425 C 0.31723 0.44682 0.83407 0.0
C1426 C 0.22313 0.36925 0.81367 0.0
C1427 C 0.30122 0.42008 0.85931 0.0
C1428 C 0.16465 0.38441 0.85943 0.0
C1429 C 0.16752 0.34337 0.86456 0.0
C1430 C 0.19506 0.40106 0.8502 0.0
C1431 C 0.2296 0.37619 0.84595 0.0
C1432 C 0.23253 0.33441 0.85082 0.0
C1433 C 0.20123 0.31834 0.86006 0.0
C1434 C 0.19029 0.44561 0.84513 0.0
C1435 C 0.26902 0.3071 0.84652 0.0
H1436 H 0.27489 0.42372 0.8007 0.0
H1437 H 0.3397 0.46764 0.83917 0.0
H1438 H 0.2226 0.33719 0.81814 0.0
H1439 H 0.19222 0.38359 0.81593 0.0
H1440 H 0.22755 0.36727 0.80156 0.0
H1441 H 0.33145 0.43482 0.86226 0.0
H1442 H 0.27583 0.43797 0.86481 0.0
H1443 H 0.30061 0.38792 0.86369 0.0
H1444 H 0.13843 0.40386 0.86268 0.0
H1445 H 0.20364 0.28664 0.864 0.0
H1446 H 0.19016 0.44658 0.83293 0.0
H1447 H 0.21709 0.46459 0.84901 0.0
H1448 H 0.16111 0.46043 0.84925 0.0
H1449 H 0.27309 0.30666 0.8344 0.0
H1450 H 0.26522 0.27451 0.85034 0.0
H1451 H 0.29805 0.3201 0.85134 0.0
C1452 C 0.33957 0.41191 0.57379 0.0
C1453 C 0.36003 0.43958 0.56439 0.0
C1454 C 0.36221 0.38759 0.58375 0.0
C1455 C 0.40623 0.39077 0.58409 0.0
C1456 C 0.427 0.41711 0.57403 0.0
C1457 C 0.40357 0.44159 0.56442 0.0
C1458 C 0.33875 0.36065 0.59445 0.0
C1459 C 0.47396 0.42063 0.5738 0.0
C1460 C 0.47108 0.37801 0.61829 0.0
C1461 C 0.49011 0.33932 0.61564 0.0
C1462 C 0.44103 0.39357 0.60865 0.0
C1463 C 0.43075 0.37034 0.59583 0.0
C1464 C 0.44801 0.33004 0.59355 0.0
C1465 C 0.47727 0.31471 0.60363 0.0
C1466 C 0.42215 0.43599 0.61176 0.0
C1467 C 0.4376 0.30439 0.58002 0.0
H1468 H 0.30579 0.41056 0.57374 0.0
H1469 H 0.41925 0.46269 0.55699 0.0
H1470 H 0.35577 0.33128 0.59669 0.0
H1471 H 0.33534 0.37788 0.60505 0.0
H1472 H 0.30707 0.35284 0.59034 0.0
H1473 H 0.48534 0.43898 0.56431 0.0
H1474 H 0.48481 0.43609 0.58408 0.0
H1475 H 0.48839 0.38914 0.57328 0.0
H1476 H 0.48059 0.39669 0.62773 0.0
H1477 H 0.49202 0.28471 0.60161 0.0
H1478 H 0.38779 0.43488 0.6104 0.0
H1479 H 0.43447 0.45883 0.60377 0.0
H1480 H 0.42933 0.44749 0.62305 0.0
H1481 H 0.40333 0.30072 0.57901 0.0
H1482 H 0.45217 0.27292 0.58021 0.0
H1483 H 0.44859 0.3208 0.57006 0.0
C1484 C 0.42905 0.53816 0.31663 0.0
C1485 C 0.3909 0.5239 0.32227 0.0
C1486 C 0.45492 0.56443 0.32502 0.0
C1487 C 0.44189 0.5773 0.33923 0.0
C1488 C 0.40506 0.56056 0.34539 0.0
C1489 C 0.38015 0.53381 0.33687 0.0
C1490 C 0.49464 0.58078 0.31826 0.0
C1491 C 0.3903 0.5733 0.36058 0.0
C1492 C 0.51235 0.64003 0.36472 0.0
C1493 C 0.49726 0.68051 0.36247 0.0
C1494 C 0.49537 0.60588 0.35699 0.0
C1495 C 0.46301 0.61276 0.34672 0.0
C1496 C 0.44886 0.65387 0.34406 0.0
C1497 C 0.46596 0.68719 0.35207 0.0
C1498 C 0.51044 0.56241 0.36037 0.0
C1499 C 0.4146 0.66255 0.33312 0.0
H1500 H 0.43769 0.53082 0.30537 0.0
H1501 H 0.35134 0.52196 0.34145 0.0
H1502 H 0.49014 0.61388 0.31517 0.0
H1503 H 0.52063 0.57973 0.32629 0.0
H1504 H 0.50381 0.56273 0.30825 0.0
H1505 H 0.36417 0.55352 0.36447 0.0
H1506 H 0.41618 0.57144 0.36861 0.0
H1507 H 0.3795 0.60622 0.36043 0.0
H1508 H 0.53587 0.63483 0.37304 0.0
H1509 H 0.4544 0.71859 0.35034 0.0
H1510 H 0.51473 0.54381 0.35011 0.0
H1511 H 0.48665 0.54625 0.36709 0.0
H1512 H 0.54015 0.56275 0.36662 0.0
H1513 H 0.42298 0.64931 0.32218 0.0
H1514 H 0.40848 0.69648 0.33192 0.0
H1515 H 0.38533 0.64724 0.3367 0.0
C1516 C 0.25303 0.43651 0.98132 0.0
C1517 C 0.28208 0.40628 0.98573 0.0
C1518 C 0.22443 0.42806 0.96999 0.0
C1519 C 0.22484 0.38842 0.96298 0.0
C1520 C 0.25321 0.35741 0.96769 0.0
C1521 C 0.28158 0.3668 0.97893 0.0
C1522 C 0.19471 0.46186 0.96523 0.0
C1523 C 0.25461 0.31463 0.96051 0.0
C1524 C 0.14038 0.34151 0.93902 0.0
C1525 C 0.16004 0.34284 0.92527 0.0
C1526 C 0.1594 0.35964 0.95145 0.0
C1527 C 0.19843 0.37983 0.9499 0.0
C1528 C 0.21568 0.38533 0.93572 0.0
C1529 C 0.19641 0.3664 0.92358 0.0
C1530 C 0.13988 0.35334 0.96637 0.0
C1531 C 0.25673 0.40746 0.93351 0.0
H1532 H 0.25272 0.46687 0.9867 0.0
H1533 H 0.30422 0.34345 0.98212 0.0
H1534 H 0.20307 0.47216 0.954 0.0
H1535 H 0.16236 0.44972 0.96474 0.0
H1536 H 0.19543 0.48945 0.97275 0.0
H1537 H 0.27645 0.29318 0.96615 0.0
H1538 H 0.2231 0.30039 0.9605 0.0
H1539 H 0.26465 0.3174 0.94887 0.0
H1540 H 0.11224 0.32316 0.94031 0.0
H1541 H 0.21129 0.36774 0.91286 0.0
H1542 H 0.14301 0.38175 0.97337 0.0
H1543 H 0.15625 0.32753 0.97201 0.0
H1544 H 0.10633 0.34509 0.96549 0.0
H1545 H 0.25788 0.43677 0.9401 0.0
H1546 H 0.26226 0.41501 0.92177 0.0
H1547 H 0.28254 0.38714 0.93728 0.0
C1548 C 0.4418 0.49085 0.71927 0.0
C1549 C 0.45664 0.48606 0.73362 0.0
C1550 C 0.45484 0.46385 0.70791 0.0
C1551 C 0.48265 0.43084 0.71111 0.0
C1552 C 0.49913 0.42704 0.72548 0.0
C1553 C 0.48607 0.45496 0.73657 0.0
C1554 C 0.43734 0.46945 0.69265 0.0
C1555 C 0.52809 0.39182 0.72949 0.0
C1556 C 0.47139 0.33315 0.68758 0.0
C1557 C 0.50578 0.33612 0.6781 0.0
C1558 C 0.46387 0.36358 0.69846 0.0
C1559 C 0.49113 0.39809 0.6998 0.0
C1560 C 0.52592 0.40133 0.69029 0.0
C1561 C 0.53281 0.37023 0.67956 0.0
C1562 C 0.42686 0.35862 0.7086 0.0
C1563 C 0.55591 0.43745 0.69153 0.0
H1564 H 0.41922 0.51517 0.71702 0.0
H1565 H 0.49719 0.45105 0.74772 0.0
H1566 H 0.46286 0.46912 0.68439 0.0
H1567 H 0.41619 0.44311 0.68993 0.0
H1568 H 0.4196 0.49908 0.69165 0.0
H1569 H 0.54699 0.39979 0.73936 0.0
H1570 H 0.50926 0.36376 0.73201 0.0
H1571 H 0.5494 0.38352 0.72029 0.0
H1572 H 0.45051 0.30668 0.68664 0.0
H1573 H 0.55901 0.37293 0.67219 0.0
H1574 H 0.40543 0.3856 0.70747 0.0
H1575 H 0.4375 0.35816 0.7202 0.0
H1576 H 0.40913 0.32952 0.70628 0.0
H1577 H 0.53889 0.4674 0.69035 0.0
H1578 H 0.58106 0.43581 0.68312 0.0
H1579 H 0.57041 0.43773 0.7026 0.0
C1580 C 0.38148 0.6547 0.47974 0.0
C1581 C 0.36123 0.61605 0.47832 0.0
C1582 C 0.40707 0.66975 0.46845 0.0
C1583 C 0.41291 0.64532 0.45553 0.0
C1584 C 0.39112 0.60724 0.45375 0.0
C1585 C 0.36544 0.59313 0.46515 0.0
C1586 C 0.42938 0.71084 0.47064 0.0
C1587 C 0.39624 0.58052 0.44007 0.0
C1588 C 0.46504 0.69529 0.42254 0.0
C1589 C 0.50585 0.68026 0.42389 0.0
C1590 C 0.43406 0.68366 0.43264 0.0
C1591 C 0.44475 0.65764 0.44455 0.0
C1592 C 0.48618 0.64298 0.44602 0.0
C1593 C 0.51608 0.65402 0.43553 0.0
C1594 C 0.38979 0.69818 0.43039 0.0
C1595 C 0.49892 0.61558 0.45865 0.0
H1596 H 0.37863 0.67253 0.48989 0.0
H1597 H 0.3491 0.56375 0.46383 0.0
H1598 H 0.46328 0.70503 0.47196 0.0
H1599 H 0.42545 0.73082 0.46085 0.0
H1600 H 0.41789 0.72824 0.48049 0.0
H1601 H 0.37376 0.55418 0.43971 0.0
H1602 H 0.39201 0.59956 0.43007 0.0
H1603 H 0.4283 0.56751 0.43967 0.0
H1604 H 0.45712 0.71503 0.41335 0.0
H1605 H 0.54779 0.64259 0.43655 0.0
H1606 H 0.37732 0.71233 0.44069 0.0
H1607 H 0.36978 0.67099 0.42766 0.0
H1608 H 0.38717 0.7211 0.42137 0.0
H1609 H 0.49211 0.63167 0.46927 0.0
H1610 H 0.5326 0.60747 0.45832 0.0
H1611 H 0.48058 0.58625 0.45842 0.0
C1612 C 0.21505 0.60376 0.23741 0.0
C1613 C 0.24761 0.57478 0.23564 0.0
C1614 C 0.20234 0.62901 0.22576 0.0
C1615 C 0.22328 0.62588 0.21208 0.0
C1616 C 0.25904 0.60016 0.21072 0.0
C1617 C 0.27053 0.5745 0.22246 0.0
C1618 C 0.16406 0.65602 0.2277 0.0
C1619 C 0.28306 0.5971 0.19646 0.0
C1620 C 0.15254 0.63053 0.17902 0.0
C1621 C 0.15706 0.67195 0.17442 0.0
C1622 C 0.17448 0.61535 0.19108 0.0
C1623 C 0.20258 0.64188 0.19866 0.0
C1624 C 0.2087 0.68331 0.19379 0.0
C1625 C 0.18538 0.6981 0.18181 0.0
C1626 C 0.16641 0.57111 0.19598 0.0
C1627 C 0.23896 0.71233 0.20141 0.0
H1628 H 0.19815 0.60539 0.24774 0.0
H1629 H 0.29593 0.55252 0.22095 0.0
H1630 H 0.16951 0.68759 0.22324 0.0
H1631 H 0.13774 0.64196 0.22148 0.0
H1632 H 0.15465 0.65918 0.23943 0.0
H1633 H 0.31435 0.58292 0.19804 0.0
H1634 H 0.26552 0.5774 0.18849 0.0
H1635 H 0.28689 0.6284 0.19153 0.0
H1636 H 0.13068 0.60999 0.17346 0.0
H1637 H 0.18916 0.7301 0.1783 0.0
H1638 H 0.15455 0.57131 0.20745 0.0
H1639 H 0.19585 0.55291 0.1958 0.0
H1640 H 0.14334 0.55469 0.18889 0.0
H1641 H 0.22458 0.72471 0.21168 0.0
H1642 H 0.24727 0.73924 0.1944 0.0
H1643 H 0.26794 0.6956 0.20448 0.0
loop_
_geom_bond_atom_site_label_1
_geom_bond_atom_site_label_2
_geom_bond_distance
_geom_bond_site_symmetry_2
_ccdc_geom_bond_type
H0 C27 0.929 1_565 S
N1 C26 1.433 1_565 S
N1 C32 1.435 . S
N1 C38 1.423 . S
H2 C28 0.930 . S
H3 C31 0.931 . S
H4 C30 0.929 . S
H5 C33 0.930 1_545 S
H6 C34 0.940 . S
H7 C37 0.929 . S
H8 C36 0.931 . S
H9 C39 0.929 . S
H10 C43 0.932 . S
H11 C40 0.931 . S
H12 C42 0.929 . S
H13 C45 0.929 1_565 S
H14 C46 0.930 . S
H15 C48 0.929 . S
H16 C49 0.931 . S
H17 C51 0.930 1_545 S
H18 C52 0.944 . S
H19 C54 0.931 . S
H20 C55 0.929 . S
H21 C57 0.929 . S
H22 C58 0.931 . S
H23 C60 0.929 . S
N24 C44 1.433 1_565 S
N24 C50 1.435 . S
N24 C56 1.423 . S
H25 C61 0.932 . S
C26 N1 1.433 1_545 S
C26 C27 1.363 . S
C26 C31 1.370 . S
C27 H0 0.929 1_545 S
C27 C26 1.363 . S
C27 C28 1.385 . S
C28 H2 0.930 . S
C28 C27 1.385 . S
C28 C29 1.357 . S
C29 C28 1.357 . S
C29 C30 1.406 . S
C30 H4 0.929 . S
C30 C29 1.406 . S
C30 C31 1.391 . S
C31 H3 0.931 . S
C31 C26 1.370 . S
C31 C30 1.391 . S
C32 N1 1.435 . S
C32 C33 1.358 . S
C32 C37 1.371 . S
C33 H5 0.930 1_565 S
C33 C32 1.358 . S
C33 C34 1.405 . S
C34 H6 0.940 . S
C34 C33 1.405 . S
C34 C35 1.383 . S
C35 C34 1.383 . S
C35 C36 1.393 . S
C36 H8 0.931 . S
C36 C35 1.393 . S
C36 C37 1.382 . S
C37 H7 0.929 . S
C37 C32 1.371 . S
C37 C36 1.382 . S
C38 N1 1.423 . S
C38 C39 1.362 . S
C38 C43 1.388 . S
C39 H9 0.929 . S
C39 C38 1.362 . S
C39 C40 1.376 . S
C40 H11 0.931 . S
C40 C39 1.376 . S
C40 C41 1.396 1_655 S
C41 C40 1.396 1_455 S
C41 C42 1.348 1_455 S
C41 C59 1.472 . S
C42 H12 0.929 . S
C42 C41 1.348 1_655 S
C42 C43 1.443 . S
C43 H10 0.932 . S
C43 C38 1.388 . S
C43 C42 1.443 . S
C44 N24 1.433 1_545 S
C44 C45 1.363 . S
C44 C49 1.370 . S
C45 H13 0.929 1_545 S
C45 C44 1.363 . S
C45 C46 1.385 . S
C46 H14 0.930 . S
C46 C45 1.385 . S
C46 C47 1.357 . S
C47 C46 1.357 . S
C47 C48 1.406 . S
C48 H15 0.929 . S
C48 C47 1.406 . S
C48 C49 1.391 . S
C49 H16 0.931 . S
C49 C44 1.370 . S
C49 C48 1.391 . S
C50 N24 1.435 . S
C50 C51 1.358 . S
C50 C55 1.371 . S
C51 H17 0.930 1_565 S
C51 C50 1.358 . S
C51 C52 1.405 . S
C52 H18 0.944 . S
C52 C51 1.405 . S
C52 C53 1.383 . S
C53 C52 1.383 . S
C53 C54 1.393 . S
C54 H19 0.931 . S
C54 C53 1.393 . S
C54 C55 1.382 . S
C55 H20 0.929 . S
C55 C50 1.371 . S
C55 C54 1.382 . S
C56 N24 1.423 . S
C56 C57 1.362 . S
C56 C61 1.388 . S
C57 H21 0.929 . S
C57 C56 1.362 . S
C57 C58 1.376 . S
C58 H22 0.931 . S
C58 C57 1.376 . S
C58 C59 1.396 . S
C59 C41 1.472 . S
C59 C58 1.396 . S
C59 C60 1.348 . S
C60 H23 0.929 . S
C60 C59 1.348 . S
C60 C61 1.443 . S
C61 H25 0.932 . S
C61 C56 1.388 . S
C61 C60 1.443 . S
H62 C89 0.929 . S
N63 C88 1.433 . S
N63 C94 1.435 . S
N63 C100 1.423 . S
H64 C90 0.930 . S
H65 C93 0.931 . S
H66 C92 0.929 . S
H67 C95 0.930 . S
H68 C96 0.932 . S
H69 C99 0.929 . S
H70 C98 0.931 . S
H71 C101 0.929 . S
H72 C105 0.932 . S
H73 C102 0.931 . S
H74 C104 0.929 . S
H75 C107 0.929 . S
H76 C108 0.930 . S
H77 C110 0.929 . S
H78 C111 0.931 . S
H79 C113 0.930 . S
H80 C114 0.932 . S
H81 C116 0.931 . S
H82 C117 0.929 . S
H83 C119 0.929 . S
H84 C120 0.931 . S
H85 C122 0.929 . S
N86 C106 1.433 . S
N86 C112 1.435 . S
N86 C118 1.423 . S
H87 C123 0.932 . S
C88 N63 1.433 . S
C88 C89 1.363 . S
C88 C93 1.370 . S
C89 H62 0.929 . S
C89 C88 1.363 . S
C89 C90 1.385 . S
C90 H64 0.930 . S
C90 C89 1.385 . S
C90 C91 1.357 . S
C91 C90 1.357 . S
C91 C92 1.406 . S
C92 H66 0.929 . S
C92 C91 1.406 . S
C92 C93 1.391 . S
C93 H65 0.931 . S
C93 C88 1.370 . S
C93 C92 1.391 . S
C94 N63 1.435 . S
C94 C95 1.358 . S
C94 C99 1.371 . S
C95 H67 0.930 . S
C95 C94 1.358 . S
C95 C96 1.405 . S
C96 H68 0.932 . S
C96 C95 1.405 . S
C96 C97 1.383 . S
C97 C96 1.383 . S
C97 C98 1.393 . S
C98 H70 0.931 . S
C98 C97 1.393 . S
C98 C99 1.382 . S
C99 H69 0.929 . S
C99 C94 1.371 . S
C99 C98 1.382 . S
C100 N63 1.423 . S
C100 C101 1.362 . S
C100 C105 1.388 . S
C101 H71 0.929 . S
C101 C100 1.362 . S
C101 C102 1.376 . S
C102 H73 0.931 . S
C102 C101 1.376 . S
C102 C103 1.396 . S
C103 C102 1.396 . S
C103 C104 1.348 . S
C103 C121 1.472 . S
C104 H74 0.929 . S
C104 C103 1.348 . S
C104 C105 1.443 . S
C105 H72 0.932 . S
C105 C100 1.388 . S
C105 C104 1.443 . S
C106 N86 1.433 . S
C106 C107 1.363 . S
C106 C111 1.370 . S
C107 H75 0.929 . S
C107 C106 1.363 . S
C107 C108 1.385 . S
C108 H76 0.930 . S
C108 C107 1.385 . S
C108 C109 1.357 . S
C109 C108 1.357 . S
C109 C110 1.406 . S
C110 H77 0.929 . S
C110 C109 1.406 . S
C110 C111 1.391 . S
C111 H78 0.931 . S
C111 C106 1.370 . S
C111 C110 1.391 . S
C112 N86 1.435 . S
C112 C113 1.358 . S
C112 C117 1.371 . S
C113 H79 0.930 . S
C113 C112 1.358 . S
C113 C114 1.405 . S
C114 H80 0.932 . S
C114 C113 1.405 . S
C114 C115 1.383 . S
C115 C114 1.383 . S
C115 C116 1.393 . S
C116 H81 0.931 . S
C116 C115 1.393 . S
C116 C117 1.382 . S
C117 H82 0.929 . S
C117 C112 1.371 . S
C117 C116 1.382 . S
C118 N86 1.423 . S
C118 C119 1.362 . S
C118 C123 1.388 . S
C119 H83 0.929 . S
C119 C118 1.362 . S
C119 C120 1.376 . S
C120 H84 0.931 . S
C120 C119 1.376 . S
C120 C121 1.396 . S
C121 C103 1.472 . S
C121 C120 1.396 . S
C121 C122 1.348 . S
C122 H85 0.929 . S
C122 C121 1.348 . S
C122 C123 1.443 . S
C123 H87 0.932 . S
C123 C118 1.388 . S
C123 C122 1.443 . S
H124 C151 0.929 . S
N125 C150 1.415 1_545 S
N125 C156 1.435 . S
N125 C162 1.423 . S
H126 C152 0.930 . S
H127 C155 0.931 . S
H128 C154 0.929 . S
H129 C157 0.930 1_565 S
H130 C158 0.932 . S
H131 C161 0.929 . S
H132 C160 0.931 . S
H133 C163 0.929 . S
H134 C167 0.932 . S
H135 C164 0.931 . S
H136 C166 0.929 . S
H137 C169 0.929 . S
H138 C170 0.930 . S
H139 C172 0.929 . S
H140 C173 0.931 . S
H141 C175 0.930 1_565 S
H142 C176 0.932 . S
H143 C178 0.931 . S
H144 C179 0.929 . S
H145 C181 0.929 . S
H146 C182 0.931 . S
H147 C184 0.929 . S
N148 C168 1.416 1_545 S
N148 C174 1.435 . S
N148 C180 1.423 . S
H149 C185 0.932 . S
C150 N125 1.415 1_565 S
C150 C151 1.359 1_565 S
C150 C155 1.393 . S
C151 H124 0.929 . S
C151 C150 1.359 1_545 S
C151 C152 1.385 1_545 S
C152 H126 0.930 . S
C152 C151 1.385 1_565 S
C152 C153 1.357 . S
C153 C152 1.357 . S
C153 C154 1.406 . S
C154 H128 0.929 . S
C154 C153 1.406 . S
C154 C155 1.391 . S
C155 H127 0.931 . S
C155 C150 1.393 . S
C155 C154 1.391 . S
C156 N125 1.435 . S
C156 C157 1.358 . S
C156 C161 1.371 . S
C157 H129 0.930 1_545 S
C157 C156 1.358 . S
C157 C158 1.405 1_554 S
C158 H130 0.932 . S
C158 C157 1.405 1_556 S
C158 C159 1.383 . S
C159 C158 1.383 . S
C159 C160 1.393 . S
C160 H132 0.931 . S
C160 C159 1.393 . S
C160 C161 1.382 1_556 S
C161 H131 0.929 . S
C161 C156 1.371 . S
C161 C160 1.382 1_554 S
C162 N125 1.423 . S
C162 C163 1.362 . S
C162 C167 1.388 . S
C163 H133 0.929 . S
C163 C162 1.362 . S
C163 C164 1.376 . S
C164 H135 0.931 . S
C164 C163 1.376 . S
C164 C165 1.396 . S
C165 C164 1.396 . S
C165 C166 1.348 . S
C165 C183 1.472 . S
C166 H136 0.929 . S
C166 C165 1.348 . S
C166 C167 1.443 . S
C167 H134 0.932 . S
C167 C162 1.388 . S
C167 C166 1.443 . S
C168 N148 1.416 1_565 S
C168 C169 1.359 1_565 S
C168 C173 1.392 . S
C169 H137 0.929 . S
C169 C168 1.359 1_545 S
C169 C170 1.385 1_545 S
C170 H138 0.930 . S
C170 C169 1.385 1_565 S
C170 C171 1.357 . S
C171 C170 1.357 . S
C171 C172 1.406 . S
C172 H139 0.929 . S
C172 C171 1.406 . S
C172 C173 1.391 . S
C173 H140 0.931 . S
C173 C168 1.392 . S
C173 C172 1.391 . S
C174 N148 1.435 . S
C174 C175 1.358 . S
C174 C179 1.371 . S
C175 H141 0.930 1_545 S
C175 C174 1.358 . S
C175 C176 1.405 1_554 S
C176 H142 0.932 . S
C176 C175 1.405 1_556 S
C176 C177 1.383 . S
C177 C176 1.383 . S
C177 C178 1.393 . S
C178 H143 0.931 . S
C178 C177 1.393 . S
C178 C179 1.382 1_556 S
C179 H144 0.929 . S
C179 C174 1.371 . S
C179 C178 1.382 1_554 S
C180 N148 1.423 . S
C180 C181 1.362 . S
C180 C185 1.388 . S
C181 H145 0.929 . S
C181 C180 1.362 . S
C181 C182 1.376 . S
C182 H146 0.931 . S
C182 C181 1.376 . S
C182 C183 1.396 . S
C183 C165 1.472 . S
C183 C182 1.396 . S
C183 C184 1.348 . S
C184 H147 0.929 . S
C184 C183 1.348 . S
C184 C185 1.443 . S
C185 H149 0.932 . S
C185 C180 1.388 . S
C185 C184 1.443 . S
H186 C213 0.929 . S
N187 C212 1.433 . S
N187 C218 1.435 . S
N187 C224 1.423 . S
H188 C214 0.930 . S
H189 C217 0.931 . S
H190 C216 0.929 . S
H191 C219 0.930 . S
H192 C220 0.932 . S
H193 C223 0.929 . S
H194 C222 0.931 . S
H195 C225 0.929 . S
H196 C229 0.932 . S
H197 C226 0.931 . S
H198 C228 0.929 . S
H199 C231 0.929 . S
H200 C232 0.930 . S
H201 C234 0.929 . S
H202 C235 0.931 . S
H203 C237 0.930 . S
H204 C238 0.932 . S
H205 C240 0.931 . S
H206 C241 0.929 . S
H207 C243 0.929 . S
H208 C244 0.931 . S
H209 C246 0.929 . S
N210 C230 1.433 . S
N210 C236 1.435 . S
N210 C242 1.423 . S
H211 C247 0.932 . S
C212 N187 1.433 . S
C212 C213 1.363 . S
C212 C217 1.370 . S
C213 H186 0.929 . S
C213 C212 1.363 . S
C213 C214 1.385 . S
C214 H188 0.930 . S
C214 C213 1.385 . S
C214 C215 1.357 . S
C215 C214 1.357 . S
C215 C216 1.406 . S
C216 H190 0.929 . S
C216 C215 1.406 . S
C216 C217 1.391 . S
C217 H189 0.931 . S
C217 C212 1.370 . S
C217 C216 1.391 . S
C218 N187 1.435 . S
C218 C219 1.358 . S
C218 C223 1.371 . S
C219 H191 0.930 . S
C219 C218 1.358 . S
C219 C220 1.405 . S
C220 H192 0.932 . S
C220 C219 1.405 . S
C220 C221 1.383 . S
C221 C220 1.383 . S
C221 C222 1.393 . S
C222 H194 0.931 . S
C222 C221 1.393 . S
C222 C223 1.382 . S
C223 H193 0.929 . S
C223 C218 1.371 . S
C223 C222 1.382 . S
C224 N187 1.423 . S
C224 C225 1.362 . S
C224 C229 1.388 . S
C225 H195 0.929 . S
C225 C224 1.362 . S
C225 C226 1.376 . S
C226 H197 0.931 . S
C226 C225 1.376 . S
C226 C227 1.396 . S
C227 C226 1.396 . S
C227 C228 1.348 . S
C227 C245 1.472 . S
C228 H198 0.929 . S
C228 C227 1.348 . S
C228 C229 1.443 . S
C229 H196 0.932 . S
C229 C224 1.388 . S
C229 C228 1.443 . S
C230 N210 1.433 . S
C230 C231 1.363 . S
C230 C235 1.370 . S
C231 H199 0.929 . S
C231 C230 1.363 . S
C231 C232 1.385 . S
C232 H200 0.930 . S
C232 C231 1.385 . S
C232 C233 1.357 . S
C233 C232 1.357 . S
C233 C234 1.406 . S
C234 H201 0.929 . S
C234 C233 1.406 . S
C234 C235 1.391 . S
C235 H202 0.931 . S
C235 C230 1.370 . S
C235 C234 1.391 . S
C236 N210 1.435 . S
C236 C237 1.358 . S
C236 C241 1.371 . S
C237 H203 0.930 . S
C237 C236 1.358 . S
C237 C238 1.405 . S
C238 H204 0.932 . S
C238 C237 1.405 . S
C238 C239 1.383 . S
C239 C238 1.383 . S
C239 C240 1.393 . S
C240 H205 0.931 . S
C240 C239 1.393 . S
C240 C241 1.382 . S
C241 H206 0.929 . S
C241 C236 1.371 . S
C241 C240 1.382 . S
C242 N210 1.423 . S
C242 C243 1.362 . S
C242 C247 1.388 . S
C243 H207 0.929 . S
C243 C242 1.362 . S
C243 C244 1.376 . S
C244 H208 0.931 . S
C244 C243 1.376 . S
C244 C245 1.396 . S
C245 C227 1.472 . S
C245 C244 1.396 . S
C245 C246 1.348 . S
C246 H209 0.929 . S
C246 C245 1.348 . S
C246 C247 1.443 . S
C247 H211 0.932 . S
C247 C242 1.388 . S
C247 C246 1.443 . S
H248 C275 0.929 . S
N249 C274 1.433 . S
N249 C280 1.435 . S
N249 C286 1.423 . S
H250 C276 0.930 . S
H251 C279 0.931 . S
H252 C278 0.929 . S
H253 C281 0.930 . S
H254 C282 0.932 . S
H255 C285 0.929 . S
H256 C284 0.931 . S
H257 C287 0.929 . S
H258 C291 0.932 . S
H259 C288 0.931 . S
H260 C290 0.929 . S
H261 C293 0.929 . S
H262 C294 0.930 . S
H263 C296 0.929 . S
H264 C297 0.931 . S
H265 C299 0.930 . S
H266 C300 0.932 . S
H267 C302 0.931 . S
H268 C303 0.929 . S
H269 C305 0.929 . S
H270 C306 0.931 . S
H271 C308 0.929 . S
N272 C292 1.433 . S
N272 C298 1.435 . S
N272 C304 1.423 . S
H273 C309 0.932 . S
C274 N249 1.433 . S
C274 C275 1.363 1_545 S
C274 C279 1.370 . S
C275 H248 0.929 . S
C275 C274 1.363 1_565 S
C275 C276 1.385 . S
C276 H250 0.930 . S
C276 C275 1.385 . S
C276 C277 1.357 . S
C277 C276 1.357 . S
C277 C278 1.406 1_565 S
C278 H252 0.929 . S
C278 C277 1.406 1_545 S
C278 C279 1.391 . S
C279 H251 0.931 . S
C279 C274 1.370 . S
C279 C278 1.391 . S
C280 N249 1.435 . S
C280 C281 1.358 1_545 S
C280 C285 1.371 . S
C281 H253 0.930 . S
C281 C280 1.358 1_565 S
C281 C282 1.405 . S
C282 H254 0.932 . S
C282 C281 1.405 . S
C282 C283 1.383 . S
C283 C282 1.383 . S
C283 C284 1.393 . S
C284 H256 0.931 . S
C284 C283 1.393 . S
C284 C285 1.382 1_565 S
C285 H255 0.929 . S
C285 C280 1.371 . S
C285 C284 1.382 1_545 S
C286 N249 1.423 . S
C286 C287 1.362 . S
C286 C291 1.388 . S
C287 H257 0.929 . S
C287 C286 1.362 . S
C287 C288 1.376 . S
C288 H259 0.931 . S
C288 C287 1.376 . S
C288 C289 1.396 . S
C289 C288 1.396 . S
C289 C290 1.348 . S
C289 C307 1.472 . S
C290 H260 0.929 . S
C290 C289 1.348 . S
C290 C291 1.443 . S
C291 H258 0.932 . S
C291 C286 1.388 . S
C291 C290 1.443 . S
C292 N272 1.433 . S
C292 C293 1.363 . S
C292 C297 1.370 . S
C293 H261 0.929 . S
C293 C292 1.363 . S
C293 C294 1.385 . S
C294 H262 0.930 . S
C294 C293 1.385 . S
C294 C295 1.357 . S
C295 C294 1.357 . S
C295 C296 1.406 . S
C296 H263 0.929 . S
C296 C295 1.406 . S
C296 C297 1.391 . S
C297 H264 0.931 . S
C297 C292 1.370 . S
C297 C296 1.391 . S
C298 N272 1.435 . S
C298 C299 1.358 . S
C298 C303 1.371 . S
C299 H265 0.930 . S
C299 C298 1.358 . S
C299 C300 1.405 . S
C300 H266 0.932 . S
C300 C299 1.405 . S
C300 C301 1.383 . S
C301 C300 1.383 . S
C301 C302 1.393 . S
C302 H267 0.931 . S
C302 C301 1.393 . S
C302 C303 1.382 . S
C303 H268 0.929 . S
C303 C298 1.371 . S
C303 C302 1.382 . S
C304 N272 1.423 . S
C304 C305 1.362 . S
C304 C309 1.388 . S
C305 H269 0.929 . S
C305 C304 1.362 . S
C305 C306 1.376 . S
C306 H270 0.931 . S
C306 C305 1.376 . S
C306 C307 1.396 . S
C307 C289 1.472 . S
C307 C306 1.396 . S
C307 C308 1.348 . S
C308 H271 0.929 . S
C308 C307 1.348 . S
C308 C309 1.443 . S
C309 H273 0.932 . S
C309 C304 1.388 . S
C309 C308 1.443 . S
H310 C337 0.929 . S
N311 C336 1.433 . S
N311 C342 1.435 . S
N311 C348 1.423 . S
H312 C338 0.930 . S
H313 C341 0.931 . S
H314 C340 0.929 . S
H315 C343 0.930 . S
H316 C344 0.932 . S
H317 C347 0.929 . S
H318 C346 0.931 . S
H319 C349 0.929 . S
H320 C353 0.932 . S
H321 C350 0.931 . S
H322 C352 0.929 . S
H323 C355 0.929 . S
H324 C356 0.930 . S
H325 C358 0.929 . S
H326 C359 0.931 . S
H327 C361 0.930 . S
H328 C362 0.932 . S
H329 C364 0.931 . S
H330 C365 0.929 . S
H331 C367 0.929 . S
H332 C368 0.931 . S
H333 C370 0.929 . S
N334 C354 1.433 . S
N334 C360 1.435 . S
N334 C366 1.423 . S
H335 C371 0.932 . S
C336 N311 1.433 . S
C336 C337 1.363 1_565 S
C336 C341 1.370 . S
C337 H310 0.929 . S
C337 C336 1.363 1_545 S
C337 C338 1.385 . S
C338 H312 0.930 . S
C338 C337 1.385 . S
C338 C339 1.357 . S
C339 C338 1.357 . S
C339 C340 1.406 1_545 S
C340 H314 0.929 . S
C340 C339 1.406 1_565 S
C340 C341 1.391 . S
C341 H313 0.931 . S
C341 C336 1.370 . S
C341 C340 1.391 . S
C342 N311 1.435 . S
C342 C343 1.358 1_565 S
C342 C347 1.371 . S
C343 H315 0.930 . S
C343 C342 1.358 1_545 S
C343 C344 1.405 . S
C344 H316 0.932 . S
C344 C343 1.405 . S
C344 C345 1.383 . S
C345 C344 1.383 . S
C345 C346 1.393 . S
C346 H318 0.931 . S
C346 C345 1.393 . S
C346 C347 1.382 1_545 S
C347 H317 0.929 . S
C347 C342 1.371 . S
C347 C346 1.382 1_565 S
C348 N311 1.423 . S
C348 C349 1.362 . S
C348 C353 1.388 . S
C349 H319 0.929 . S
C349 C348 1.362 . S
C349 C350 1.376 . S
C350 H321 0.931 . S
C350 C349 1.376 . S
C350 C351 1.396 . S
C351 C350 1.396 . S
C351 C352 1.348 . S
C351 C369 1.472 . S
C352 H322 0.929 . S
C352 C351 1.348 . S
C352 C353 1.443 . S
C353 H320 0.932 . S
C353 C348 1.388 . S
C353 C352 1.443 . S
C354 N334 1.433 . S
C354 C355 1.363 . S
C354 C359 1.370 . S
C355 H323 0.929 . S
C355 C354 1.363 . S
C355 C356 1.385 . S
C356 H324 0.930 . S
C356 C355 1.385 . S
C356 C357 1.357 . S
C357 C356 1.357 . S
C357 C358 1.406 . S
C358 H325 0.929 . S
C358 C357 1.406 . S
C358 C359 1.391 . S
C359 H326 0.931 . S
C359 C354 1.370 . S
C359 C358 1.391 . S
C360 N334 1.435 . S
C360 C361 1.358 . S
C360 C365 1.371 . S
C361 H327 0.930 . S
C361 C360 1.358 . S
C361 C362 1.405 . S
C362 H328 0.932 . S
C362 C361 1.405 . S
C362 C363 1.383 . S
C363 C362 1.383 . S
C363 C364 1.393 . S
C364 H329 0.931 . S
C364 C363 1.393 . S
C364 C365 1.382 . S
C365 H330 0.929 . S
C365 C360 1.371 . S
C365 C364 1.382 . S
C366 N334 1.423 . S
C366 C367 1.362 . S
C366 C371 1.388 . S
C367 H331 0.929 . S
C367 C366 1.362 . S
C367 C368 1.376 . S
C368 H332 0.931 . S
C368 C367 1.376 . S
C368 C369 1.396 . S
C369 C351 1.472 . S
C369 C368 1.396 . S
C369 C370 1.348 . S
C370 H333 0.929 . S
C370 C369 1.348 . S
C370 C371 1.443 . S
C371 H335 0.932 . S
C371 C366 1.388 . S
C371 C370 1.443 . S
H372 C399 0.941 . S
N373 C398 1.433 . S
N373 C404 1.435 . S
N373 C410 1.423 . S
H374 C400 0.930 . S
H375 C403 0.936 . S
H376 C402 0.929 . S
H377 C405 0.930 . S
H378 C406 0.932 . S
H379 C409 0.929 . S
H380 C408 0.931 . S
H381 C411 0.929 1_556 S
H382 C415 0.932 . S
H383 C412 0.931 1_556 S
H384 C414 0.929 . S
H385 C417 0.942 . S
H386 C418 0.930 . S
H387 C420 0.929 . S
H388 C421 0.934 . S
H389 C423 0.930 . S
H390 C424 0.932 . S
H391 C426 0.931 . S
H392 C427 0.929 . S
H393 C429 0.929 1_556 S
H394 C430 0.931 1_556 S
H395 C432 0.929 . S
N396 C416 1.433 . S
N396 C422 1.435 . S
N396 C428 1.423 . S
H397 C433 0.932 . S
C398 N373 1.433 . S
C398 C399 1.363 1_554 S
C398 C403 1.372 . S
C399 H372 0.941 . S
C399 C398 1.363 1_556 S
C399 C400 1.385 . S
C400 H374 0.930 . S
C400 C399 1.385 . S
C400 C401 1.357 . S
C401 C400 1.357 . S
C401 C402 1.406 . S
C402 H376 0.929 . S
C402 C401 1.406 . S
C402 C403 1.384 1_556 S
C403 H375 0.936 . S
C403 C398 1.372 . S
C403 C402 1.384 1_554 S
C404 N373 1.435 . S
C404 C405 1.358 . S
C404 C409 1.371 . S
C405 H377 0.930 . S
C405 C404 1.358 . S
C405 C406 1.405 . S
C406 H378 0.932 . S
C406 C405 1.405 . S
C406 C407 1.383 . S
C407 C406 1.383 . S
C407 C408 1.393 . S
C408 H380 0.931 . S
C408 C407 1.393 . S
C408 C409 1.382 . S
C409 H379 0.929 . S
C409 C404 1.371 . S
C409 C408 1.382 . S
C410 N373 1.423 . S
C410 C411 1.362 . S
C410 C415 1.388 . S
C411 H381 0.929 1_554 S
C411 C410 1.362 . S
C411 C412 1.376 . S
C412 H383 0.931 1_554 S
C412 C411 1.376 . S
C412 C413 1.396 . S
C413 C412 1.396 . S
C413 C414 1.348 . S
C413 C431 1.472 . S
C414 H384 0.929 . S
C414 C413 1.348 . S
C414 C415 1.443 . S
C415 H382 0.932 . S
C415 C410 1.388 . S
C415 C414 1.443 . S
C416 N396 1.433 . S
C416 C417 1.363 1_554 S
C416 C421 1.372 . S
C417 H385 0.942 . S
C417 C416 1.363 1_556 S
C417 C418 1.385 . S
C418 H386 0.930 . S
C418 C417 1.385 . S
C418 C419 1.357 . S
C419 C418 1.357 . S
C419 C420 1.406 . S
C420 H387 0.929 . S
C420 C419 1.406 . S
C420 C421 1.387 1_556 S
C421 H388 0.934 . S
C421 C416 1.372 . S
C421 C420 1.387 1_554 S
C422 N396 1.435 . S
C422 C423 1.358 . S
C422 C427 1.371 . S
C423 H389 0.930 . S
C423 C422 1.358 . S
C423 C424 1.405 . S
C424 H390 0.932 . S
C424 C423 1.405 . S
C424 C425 1.383 . S
C425 C424 1.383 . S
C425 C426 1.393 . S
C426 H391 0.931 . S
C426 C425 1.393 . S
C426 C427 1.382 . S
C427 H392 0.929 . S
C427 C422 1.371 . S
C427 C426 1.382 . S
C428 N396 1.423 . S
C428 C429 1.362 . S
C428 C433 1.388 . S
C429 H393 0.929 1_554 S
C429 C428 1.362 . S
C429 C430 1.376 . S
C430 H394 0.931 1_554 S
C430 C429 1.376 . S
C430 C431 1.396 . S
C431 C413 1.472 . S
C431 C430 1.396 . S
C431 C432 1.348 . S
C432 H395 0.929 . S
C432 C431 1.348 . S
C432 C433 1.443 . S
C433 H397 0.932 . S
C433 C428 1.388 . S
C433 C432 1.443 . S
H434 C461 0.929 . S
N435 C460 1.433 . S
N435 C466 1.435 . S
N435 C472 1.423 . S
H436 C462 0.930 . S
H437 C465 0.931 . S
H438 C464 0.929 . S
H439 C467 0.930 . S
H440 C468 0.932 . S
H441 C471 0.929 . S
H442 C470 0.931 . S
H443 C473 0.929 . S
H444 C477 0.932 . S
H445 C474 0.931 . S
H446 C476 0.929 . S
H447 C479 0.929 . S
H448 C480 0.930 . S
H449 C482 0.929 . S
H450 C483 0.931 1_455 S
H451 C485 0.930 . S
H452 C486 0.932 . S
H453 C488 0.931 . S
H454 C489 0.929 . S
H455 C491 0.929 . S
H456 C492 0.931 . S
H457 C494 0.929 . S
N458 C478 1.433 . S
N458 C484 1.435 . S
N458 C490 1.423 1_655 S
H459 C495 0.932 . S
C460 N435 1.433 . S
C460 C461 1.363 . S
C460 C465 1.370 . S
C461 H434 0.929 . S
C461 C460 1.363 . S
C461 C462 1.385 . S
C462 H436 0.930 . S
C462 C461 1.385 . S
C462 C463 1.357 . S
C463 C462 1.357 . S
C463 C464 1.406 . S
C464 H438 0.929 . S
C464 C463 1.406 . S
C464 C465 1.391 . S
C465 H437 0.931 . S
C465 C460 1.370 . S
C465 C464 1.391 . S
C466 N435 1.435 . S
C466 C467 1.358 . S
C466 C471 1.371 . S
C467 H439 0.930 . S
C467 C466 1.358 . S
C467 C468 1.405 . S
C468 H440 0.932 . S
C468 C467 1.405 . S
C468 C469 1.383 . S
C469 C468 1.383 . S
C469 C470 1.393 . S
C470 H442 0.931 . S
C470 C469 1.393 . S
C470 C471 1.382 . S
C471 H441 0.929 . S
C471 C466 1.371 . S
C471 C470 1.382 . S
C472 N435 1.423 . S
C472 C473 1.362 . S
C472 C477 1.388 . S
C473 H443 0.929 . S
C473 C472 1.362 . S
C473 C474 1.376 . S
C474 H445 0.931 . S
C474 C473 1.376 . S
C474 C475 1.396 . S
C475 C474 1.396 . S
C475 C476 1.348 . S
C475 C493 1.472 . S
C476 H446 0.929 . S
C476 C475 1.348 . S
C476 C477 1.443 . S
C477 H444 0.932 . S
C477 C472 1.388 . S
C477 C476 1.443 . S
C478 N458 1.433 . S
C478 C479 1.363 . S
C478 C483 1.370 . S
C479 H447 0.929 . S
C479 C478 1.363 . S
C479 C480 1.385 . S
C480 H448 0.930 . S
C480 C479 1.385 . S
C480 C481 1.357 . S
C481 C480 1.357 . S
C481 C482 1.406 . S
C482 H449 0.929 . S
C482 C481 1.406 . S
C482 C483 1.391 . S
C483 H450 0.931 1_655 S
C483 C478 1.370 . S
C483 C482 1.391 . S
C484 N458 1.435 . S
C484 C485 1.358 . S
C484 C489 1.371 . S
C485 H451 0.930 . S
C485 C484 1.358 . S
C485 C486 1.405 . S
C486 H452 0.932 . S
C486 C485 1.405 . S
C486 C487 1.383 . S
C487 C486 1.383 . S
C487 C488 1.393 . S
C488 H453 0.931 . S
C488 C487 1.393 . S
C488 C489 1.382 . S
C489 H454 0.929 . S
C489 C484 1.371 . S
C489 C488 1.382 . S
C490 N458 1.423 1_455 S
C490 C491 1.362 . S
C490 C495 1.388 . S
C491 H455 0.929 . S
C491 C490 1.362 . S
C491 C492 1.376 . S
C492 H456 0.931 . S
C492 C491 1.376 . S
C492 C493 1.396 . S
C493 C475 1.472 . S
C493 C492 1.396 . S
C493 C494 1.348 . S
C494 H457 0.929 . S
C494 C493 1.348 . S
C494 C495 1.443 . S
C495 H459 0.932 . S
C495 C490 1.388 . S
C495 C494 1.443 . S
C496 O523 1.312 . S
C496 O524 1.208 . S
C497 O518 1.331 1_655 S
C497 O521 1.244 . S
C498 O520 1.264 1_655 S
C498 O522 1.273 . S
Mg499 O501 1.936 . S
Mg499 O508 2.081 . S
Mg499 O510 2.023 . S
Mg499 O514 2.031 . S
Mg499 O523 2.291 . S
Mg500 O501 1.963 . S
Mg500 O511 1.942 . S
Mg500 O512 1.955 . S
Mg500 O519 1.986 . S
O501 Mg499 1.936 . S
O501 Mg500 1.963 . S
O501 Mg502 1.915 . S
Mg502 O501 1.915 . S
Mg502 O503 1.915 . S
Mg502 O507 2.013 . S
Mg502 O513 2.114 . S
Mg502 O517 2.013 . S
Mg502 O523 2.114 . S
O503 Mg502 1.915 . S
O503 Mg504 1.936 . S
O503 Mg505 1.963 1_455 S
Mg504 O503 1.936 . S
Mg504 O513 2.291 . S
Mg504 O518 2.081 . S
Mg504 O520 2.023 . S
Mg504 O524 2.031 . S
Mg505 O503 1.963 1_655 S
Mg505 O509 1.986 . S
Mg505 O521 1.942 . S
Mg505 O522 1.955 . S
C506 O517 1.191 . S
C506 O519 1.307 . S
O507 Mg502 2.013 . S
O507 C526 1.191 . S
O508 Mg499 2.081 . S
O508 C516 1.331 . S
O509 Mg505 1.986 . S
O509 C526 1.307 1_655 S
O510 Mg499 2.023 . S
O510 C525 1.264 . S
O511 Mg500 1.942 . S
O511 C516 1.244 . S
O512 Mg500 1.955 . S
O512 C525 1.273 . S
O513 Mg502 2.114 . S
O513 Mg504 2.291 . S
O513 C515 1.312 . S
O514 Mg499 2.031 . S
O514 C515 1.208 . S
C515 O513 1.312 . S
C515 O514 1.208 . S
C516 O508 1.331 . S
C516 O511 1.244 . S
O517 Mg502 2.013 . S
O517 C506 1.191 . S
O518 C497 1.331 1_455 S
O518 Mg504 2.081 . S
O519 Mg500 1.986 . S
O519 C506 1.307 . S
O520 C498 1.264 1_455 S
O520 Mg504 2.023 . S
O521 C497 1.244 . S
O521 Mg505 1.942 . S
O522 C498 1.273 . S
O522 Mg505 1.955 . S
O523 C496 1.312 . S
O523 Mg499 2.291 . S
O523 Mg502 2.114 . S
O524 C496 1.208 . S
O524 Mg504 2.031 . S
C525 O510 1.264 . S
C525 O512 1.273 . S
C526 O507 1.191 . S
C526 O509 1.307 1_455 S
C527 O554 1.312 . S
C527 O555 1.208 . S
C528 O549 1.331 . S
C528 O552 1.244 . S
C529 O551 1.264 . S
C529 O553 1.273 . S
Mg530 O532 1.936 . S
Mg530 O539 2.081 . S
Mg530 O541 2.023 . S
Mg530 O545 2.031 . S
Mg530 O554 2.291 . S
Mg531 O532 1.963 . S
Mg531 O542 1.942 . S
Mg531 O543 1.955 . S
Mg531 O550 1.986 . S
O532 Mg530 1.936 . S
O532 Mg531 1.963 . S
O532 Mg533 1.915 . S
Mg533 O532 1.915 . S
Mg533 O534 1.915 . S
Mg533 O538 2.013 . S
Mg533 O544 2.114 . S
Mg533 O548 2.013 . S
Mg533 O554 2.114 . S
O534 Mg533 1.915 . S
O534 Mg535 1.936 . S
O534 Mg536 1.963 . S
Mg535 O534 1.936 . S
Mg535 O544 2.291 . S
Mg535 O549 2.081 . S
Mg535 O551 2.023 . S
Mg535 O555 2.031 . S
Mg536 O534 1.963 . S
Mg536 O540 1.986 . S
Mg536 O552 1.942 . S
Mg536 O553 1.955 . S
C537 O548 1.191 . S
C537 O550 1.307 . S
O538 Mg533 2.013 . S
O538 C557 1.191 . S
O539 Mg530 2.081 . S
O539 C547 1.331 . S
O540 Mg536 1.986 . S
O540 C557 1.307 . S
O541 Mg530 2.023 . S
O541 C556 1.264 . S
O542 Mg531 1.942 . S
O542 C547 1.244 . S
O543 Mg531 1.955 . S
O543 C556 1.273 . S
O544 Mg533 2.114 . S
O544 Mg535 2.291 . S
O544 C546 1.312 . S
O545 Mg530 2.031 . S
O545 C546 1.208 . S
C546 O544 1.312 . S
C546 O545 1.208 . S
C547 O539 1.331 . S
C547 O542 1.244 . S
O548 Mg533 2.013 . S
O548 C537 1.191 . S
O549 C528 1.331 . S
O549 Mg535 2.081 . S
O550 Mg531 1.986 . S
O550 C537 1.307 . S
O551 C529 1.264 . S
O551 Mg535 2.023 . S
O552 C528 1.244 . S
O552 Mg536 1.942 . S
O553 C529 1.273 . S
O553 Mg536 1.955 . S
O554 C527 1.312 . S
O554 Mg530 2.291 . S
O554 Mg533 2.114 . S
O555 C527 1.208 . S
O555 Mg535 2.031 . S
C556 O541 1.264 . S
C556 O543 1.273 . S
C557 O538 1.191 . S
C557 O540 1.307 . S
C558 O585 1.312 . S
C558 O586 1.208 . S
C559 O580 1.331 . S
C559 O583 1.244 . S
C560 O582 1.264 . S
C560 O584 1.273 . S
Mg561 O563 1.936 . S
Mg561 O570 2.081 . S
Mg561 O572 2.023 . S
Mg561 O576 2.031 . S
Mg561 O585 2.291 . S
Mg562 O563 1.963 . S
Mg562 O573 1.942 . S
Mg562 O574 1.955 . S
Mg562 O581 1.986 . S
O563 Mg561 1.936 . S
O563 Mg562 1.963 . S
O563 Mg564 1.915 . S
Mg564 O563 1.915 . S
Mg564 O565 1.915 . S
Mg564 O569 2.013 . S
Mg564 O575 2.114 . S
Mg564 O579 2.013 . S
Mg564 O585 2.114 . S
O565 Mg564 1.915 . S
O565 Mg566 1.936 . S
O565 Mg567 1.963 . S
Mg566 O565 1.936 . S
Mg566 O575 2.291 . S
Mg566 O580 2.081 . S
Mg566 O582 2.023 . S
Mg566 O586 2.031 . S
Mg567 O565 1.963 . S
Mg567 O571 1.986 . S
Mg567 O583 1.942 . S
Mg567 O584 1.955 . S
C568 O579 1.191 . S
C568 O581 1.307 . S
O569 Mg564 2.013 . S
O569 C588 1.191 . S
O570 Mg561 2.081 . S
O570 C578 1.331 . S
O571 Mg567 1.986 . S
O571 C588 1.307 . S
O572 Mg561 2.023 . S
O572 C587 1.264 . S
O573 Mg562 1.942 . S
O573 C578 1.244 . S
O574 Mg562 1.955 . S
O574 C587 1.273 . S
O575 Mg564 2.114 . S
O575 Mg566 2.291 . S
O575 C577 1.312 . S
O576 Mg561 2.031 . S
O576 C577 1.208 . S
C577 O575 1.312 . S
C577 O576 1.208 . S
C578 O570 1.331 . S
C578 O573 1.244 . S
O579 Mg564 2.013 . S
O579 C568 1.191 . S
O580 C559 1.331 . S
O580 Mg566 2.081 . S
O581 Mg562 1.986 . S
O581 C568 1.307 . S
O582 C560 1.264 . S
O582 Mg566 2.023 . S
O583 C559 1.244 . S
O583 Mg567 1.942 . S
O584 C560 1.273 . S
O584 Mg567 1.955 . S
O585 C558 1.312 . S
O585 Mg561 2.291 . S
O585 Mg564 2.114 . S
O586 C558 1.208 . S
O586 Mg566 2.031 . S
C587 O572 1.264 . S
C587 O574 1.273 . S
C588 O569 1.191 . S
C588 O571 1.307 . S
C589 O616 1.312 . S
C589 O617 1.208 . S
C590 O611 1.331 . S
C590 O614 1.244 . S
C591 O613 1.264 . S
C591 O615 1.273 . S
Mg592 O594 1.936 . S
Mg592 O601 2.081 . S
Mg592 O603 2.023 . S
Mg592 O607 2.031 . S
Mg592 O616 2.291 . S
Mg593 O594 1.963 1_655 S
Mg593 O604 1.942 . S
Mg593 O605 1.955 . S
Mg593 O612 1.986 . S
O594 Mg592 1.936 . S
O594 Mg593 1.963 1_455 S
O594 Mg595 1.915 . S
Mg595 O594 1.915 . S
Mg595 O596 1.915 . S
Mg595 O600 2.013 . S
Mg595 O606 2.114 . S
Mg595 O610 2.013 . S
Mg595 O616 2.114 . S
O596 Mg595 1.915 . S
O596 Mg597 1.936 . S
O596 Mg598 1.963 . S
Mg597 O596 1.936 . S
Mg597 O606 2.291 . S
Mg597 O611 2.081 . S
Mg597 O613 2.023 . S
Mg597 O617 2.031 . S
Mg598 O596 1.963 . S
Mg598 O602 1.986 . S
Mg598 O614 1.942 . S
Mg598 O615 1.955 . S
C599 O610 1.191 . S
C599 O612 1.307 1_455 S
O600 Mg595 2.013 . S
O600 C619 1.191 . S
O601 Mg592 2.081 . S
O601 C609 1.331 1_455 S
O602 Mg598 1.986 . S
O602 C619 1.307 . S
O603 Mg592 2.023 . S
O603 C618 1.264 1_455 S
O604 Mg593 1.942 . S
O604 C609 1.244 . S
O605 Mg593 1.955 . S
O605 C618 1.273 . S
O606 Mg595 2.114 . S
O606 Mg597 2.291 . S
O606 C608 1.312 . S
O607 Mg592 2.031 . S
O607 C608 1.208 . S
C608 O606 1.312 . S
C608 O607 1.208 . S
C609 O601 1.331 1_655 S
C609 O604 1.244 . S
O610 Mg595 2.013 . S
O610 C599 1.191 . S
O611 C590 1.331 . S
O611 Mg597 2.081 . S
O612 Mg593 1.986 . S
O612 C599 1.307 1_655 S
O613 C591 1.264 . S
O613 Mg597 2.023 . S
O614 C590 1.244 . S
O614 Mg598 1.942 . S
O615 C591 1.273 . S
O615 Mg598 1.955 . S
O616 C589 1.312 . S
O616 Mg592 2.291 . S
O616 Mg595 2.114 . S
O617 C589 1.208 . S
O617 Mg597 2.031 . S
C618 O603 1.264 1_655 S
C618 O605 1.273 . S
C619 O600 1.191 . S
C619 O602 1.307 . S
C620 C621 1.391 . S
C620 C622 1.394 . S
C620 H636 0.931 . S
C621 C620 1.391 . S
C621 C625 1.376 . S
C622 C620 1.394 . S
C622 C623 1.369 . S
C622 C626 1.531 . S
C623 C622 1.369 . S
C623 C624 1.410 . S
C623 C631 1.503 . S
C624 C623 1.410 . S
C624 C625 1.392 . S
C624 C627 1.511 . S
C625 C621 1.376 . S
C625 C624 1.392 . S
C625 H637 0.929 . S
C626 C622 1.531 . S
C626 H638 0.960 . S
C626 H639 0.962 . S
C626 H640 0.960 . S
C627 C624 1.511 . S
C627 H641 0.961 . S
C627 H642 0.961 . S
C627 H643 0.961 . S
C628 C629 1.370 . S
C628 C630 1.363 . S
C628 H644 0.931 . S
C629 C628 1.370 . S
C629 C633 1.408 . S
C630 C628 1.363 . S
C630 C631 1.370 . S
C630 C634 1.524 . S
C631 C623 1.503 . S
C631 C630 1.370 . S
C631 C632 1.403 . S
C632 C631 1.403 . S
C632 C633 1.404 . S
C632 C635 1.539 . S
C633 C629 1.408 . S
C633 C632 1.404 . S
C633 H645 0.930 . S
C634 C630 1.524 . S
C634 H646 0.956 . S
C634 H647 0.961 . S
C634 H648 0.961 . S
C635 C632 1.539 . S
C635 H649 0.958 . S
C635 H650 0.961 . S
C635 H651 0.960 . S
H636 C620 0.931 . S
H637 C625 0.929 . S
H638 C626 0.960 . S
H639 C626 0.962 . S
H640 C626 0.960 . S
H641 C627 0.961 . S
H642 C627 0.961 . S
H643 C627 0.961 . S
H644 C628 0.931 . S
H645 C633 0.930 . S
H646 C634 0.956 . S
H647 C634 0.961 . S
H648 C634 0.961 . S
H649 C635 0.958 . S
H650 C635 0.961 . S
H651 C635 0.960 . S
C652 C653 1.391 1_545 S
C652 C654 1.394 . S
C652 H668 0.931 . S
C653 C652 1.391 1_565 S
C653 C657 1.376 . S
C654 C652 1.394 . S
C654 C655 1.369 . S
C654 C658 1.531 . S
C655 C654 1.369 . S
C655 C656 1.410 1_545 S
C655 C663 1.503 . S
C656 C655 1.410 1_565 S
C656 C657 1.392 . S
C656 C659 1.511 . S
C657 C653 1.376 . S
C657 C656 1.392 . S
C657 H669 0.929 . S
C658 C654 1.531 . S
C658 H670 0.960 . S
C658 H671 0.962 . S
C658 H672 0.960 . S
C659 C656 1.511 . S
C659 H673 0.961 . S
C659 H674 0.961 . S
C659 H675 0.961 . S
C660 C661 1.370 . S
C660 C662 1.363 . S
C660 H676 0.931 . S
C661 C660 1.370 . S
C661 C665 1.408 . S
C662 C660 1.363 . S
C662 C663 1.370 . S
C662 C666 1.524 . S
C663 C655 1.503 . S
C663 C662 1.370 . S
C663 C664 1.403 . S
C664 C663 1.403 . S
C664 C665 1.404 . S
C664 C667 1.539 . S
C665 C661 1.408 . S
C665 C664 1.404 . S
C665 H677 0.930 . S
C666 C662 1.524 . S
C666 H678 0.956 . S
C666 H679 0.961 . S
C666 H680 0.961 . S
C667 C664 1.539 . S
C667 H681 0.958 . S
C667 H682 0.961 . S
C667 H683 0.960 . S
H668 C652 0.931 . S
H669 C657 0.929 . S
H670 C658 0.960 . S
H671 C658 0.962 . S
H672 C658 0.960 . S
H673 C659 0.961 . S
H674 C659 0.961 . S
H675 C659 0.961 . S
H676 C660 0.931 . S
H677 C665 0.930 . S
H678 C666 0.956 . S
H679 C666 0.961 . S
H680 C666 0.961 . S
H681 C667 0.958 . S
H682 C667 0.961 . S
H683 C667 0.960 . S
C684 C685 1.391 . S
C684 C686 1.394 . S
C684 H700 0.931 . S
C685 C684 1.391 . S
C685 C689 1.376 . S
C686 C684 1.394 . S
C686 C687 1.369 . S
C686 C690 1.531 . S
C687 C686 1.369 . S
C687 C688 1.410 . S
C687 C695 1.503 . S
C688 C687 1.410 . S
C688 C689 1.392 . S
C688 C691 1.511 . S
C689 C685 1.376 . S
C689 C688 1.392 . S
C689 H701 0.929 . S
C690 C686 1.531 . S
C690 H702 0.960 . S
C690 H703 0.962 . S
C690 H704 0.960 . S
C691 C688 1.511 . S
C691 H705 0.961 . S
C691 H706 0.961 . S
C691 H707 0.961 . S
C692 C693 1.370 . S
C692 C694 1.363 . S
C692 H708 0.931 . S
C693 C692 1.370 . S
C693 C697 1.408 . S
C694 C692 1.363 . S
C694 C695 1.370 . S
C694 C698 1.524 . S
C695 C687 1.503 . S
C695 C694 1.370 . S
C695 C696 1.403 . S
C696 C695 1.403 . S
C696 C697 1.404 . S
C696 C699 1.539 . S
C697 C693 1.408 . S
C697 C696 1.404 . S
C697 H709 0.930 . S
C698 C694 1.524 . S
C698 H710 0.956 . S
C698 H711 0.961 . S
C698 H712 0.961 . S
C699 C696 1.539 . S
C699 H713 0.958 . S
C699 H714 0.961 . S
C699 H715 0.960 . S
H700 C684 0.931 . S
H701 C689 0.929 . S
H702 C690 0.960 . S
H703 C690 0.962 . S
H704 C690 0.960 . S
H705 C691 0.961 . S
H706 C691 0.961 . S
H707 C691 0.961 . S
H708 C692 0.931 . S
H709 C697 0.930 . S
H710 C698 0.956 . S
H711 C698 0.961 . S
H712 C698 0.961 . S
H713 C699 0.958 . S
H714 C699 0.961 . S
H715 C699 0.960 . S
C716 C717 1.401 . S
C716 C718 1.386 1_545 S
C716 H732 0.929 1_545 S
C717 C716 1.401 . S
C717 C721 1.376 . S
C718 C716 1.386 1_565 S
C718 C719 1.369 . S
C718 C722 1.531 . S
C719 C718 1.369 . S
C719 C720 1.410 1_565 S
C719 C727 1.503 . S
C720 C719 1.410 1_545 S
C720 C721 1.392 . S
C720 C723 1.511 . S
C721 C717 1.376 . S
C721 C720 1.392 . S
C721 H733 0.929 . S
C722 C718 1.531 . S
C722 H734 0.960 . S
C722 H735 0.962 . S
C722 H736 0.960 . S
C723 C720 1.511 . S
C723 H737 0.961 . S
C723 H738 0.961 . S
C723 H739 0.961 . S
C724 C725 1.370 . S
C724 C726 1.363 . S
C724 H740 0.931 . S
C725 C724 1.370 . S
C725 C729 1.408 . S
C726 C724 1.363 . S
C726 C727 1.370 . S
C726 C730 1.524 . S
C727 C719 1.503 . S
C727 C726 1.370 . S
C727 C728 1.403 . S
C728 C727 1.403 . S
C728 C729 1.404 . S
C728 C731 1.539 . S
C729 C725 1.408 . S
C729 C728 1.404 . S
C729 H741 0.930 . S
C730 C726 1.524 . S
C730 H742 0.956 . S
C730 H743 0.961 . S
C730 H744 0.961 . S
C731 C728 1.539 . S
C731 H745 0.958 . S
C731 H746 0.961 . S
C731 H747 0.960 . S
H732 C716 0.929 1_565 S
H733 C721 0.929 . S
H734 C722 0.960 . S
H735 C722 0.962 . S
H736 C722 0.960 . S
H737 C723 0.961 . S
H738 C723 0.961 . S
H739 C723 0.961 . S
H740 C724 0.931 . S
H741 C729 0.930 . S
H742 C730 0.956 . S
H743 C730 0.961 . S
H744 C730 0.961 . S
H745 C731 0.958 . S
H746 C731 0.961 . S
H747 C731 0.960 . S
C748 C749 1.391 . S
C748 C750 1.394 . S
C748 H764 0.931 . S
C749 C748 1.391 . S
C749 C753 1.376 . S
C750 C748 1.394 . S
C750 C751 1.369 . S
C750 C754 1.531 . S
C751 C750 1.369 . S
C751 C752 1.410 . S
C751 C759 1.503 . S
C752 C751 1.410 . S
C752 C753 1.392 . S
C752 C755 1.511 . S
C753 C749 1.376 . S
C753 C752 1.392 . S
C753 H765 0.929 . S
C754 C750 1.531 . S
C754 H766 0.960 . S
C754 H767 0.962 . S
C754 H768 0.960 . S
C755 C752 1.511 . S
C755 H769 0.961 . S
C755 H770 0.961 . S
C755 H771 0.961 . S
C756 C757 1.370 . S
C756 C758 1.363 . S
C756 H772 0.931 . S
C757 C756 1.370 . S
C757 C761 1.408 . S
C758 C756 1.363 . S
C758 C759 1.370 . S
C758 C762 1.524 . S
C759 C751 1.503 . S
C759 C758 1.370 . S
C759 C760 1.403 . S
C760 C759 1.403 . S
C760 C761 1.404 . S
C760 C763 1.539 . S
C761 C757 1.408 . S
C761 C760 1.404 . S
C761 H773 0.930 . S
C762 C758 1.524 . S
C762 H774 0.956 . S
C762 H775 0.961 . S
C762 H776 0.961 . S
C763 C760 1.539 . S
C763 H777 0.958 . S
C763 H778 0.961 . S
C763 H779 0.960 . S
H764 C748 0.931 . S
H765 C753 0.929 . S
H766 C754 0.960 . S
H767 C754 0.962 . S
H768 C754 0.960 . S
H769 C755 0.961 . S
H770 C755 0.961 . S
H771 C755 0.961 . S
H772 C756 0.931 . S
H773 C761 0.930 . S
H774 C762 0.956 . S
H775 C762 0.961 . S
H776 C762 0.961 . S
H777 C763 0.958 . S
H778 C763 0.961 . S
H779 C763 0.960 . S
C780 C781 1.391 . S
C780 C782 1.394 . S
C780 H796 0.931 . S
C781 C780 1.391 . S
C781 C785 1.376 . S
C782 C780 1.394 . S
C782 C783 1.369 1_565 S
C782 C786 1.531 . S
C783 C782 1.369 1_545 S
C783 C784 1.410 . S
C783 C791 1.503 . S
C784 C783 1.410 . S
C784 C785 1.392 1_545 S
C784 C787 1.511 . S
C785 C781 1.376 . S
C785 C784 1.392 1_565 S
C785 H797 0.929 . S
C786 C782 1.531 . S
C786 H798 0.960 . S
C786 H799 0.962 . S
C786 H800 0.960 . S
C787 C784 1.511 . S
C787 H801 0.961 . S
C787 H802 0.961 . S
C787 H803 0.961 . S
C788 C789 1.370 . S
C788 C790 1.363 . S
C788 H804 0.931 . S
C789 C788 1.370 . S
C789 C793 1.408 . S
C790 C788 1.363 . S
C790 C791 1.370 . S
C790 C794 1.524 . S
C791 C783 1.503 . S
C791 C790 1.370 . S
C791 C792 1.403 . S
C792 C791 1.403 . S
C792 C793 1.404 . S
C792 C795 1.539 . S
C793 C789 1.408 . S
C793 C792 1.404 . S
C793 H805 0.930 . S
C794 C790 1.524 . S
C794 H806 0.956 . S
C794 H807 0.961 . S
C794 H808 0.961 . S
C795 C792 1.539 . S
C795 H809 0.958 . S
C795 H810 0.961 . S
C795 H811 0.960 . S
H796 C780 0.931 . S
H797 C785 0.929 . S
H798 C786 0.960 . S
H799 C786 0.962 . S
H800 C786 0.960 . S
H801 C787 0.961 . S
H802 C787 0.961 . S
H803 C787 0.961 . S
H804 C788 0.931 . S
H805 C793 0.930 . S
H806 C794 0.956 . S
H807 C794 0.961 . S
H808 C794 0.961 . S
H809 C795 0.958 . S
H810 C795 0.961 . S
H811 C795 0.960 . S
C812 C813 1.391 . S
C812 C814 1.394 . S
C812 H828 0.931 . S
C813 C812 1.391 . S
C813 C817 1.376 . S
C814 C812 1.394 . S
C814 C815 1.369 . S
C814 C818 1.531 . S
C815 C814 1.369 . S
C815 C816 1.410 . S
C815 C823 1.503 . S
C816 C815 1.410 . S
C816 C817 1.392 . S
C816 C819 1.511 . S
C817 C813 1.376 . S
C817 C816 1.392 . S
C817 H829 0.929 . S
C818 C814 1.531 . S
C818 H830 0.960 . S
C818 H831 0.962 . S
C818 H832 0.960 . S
C819 C816 1.511 . S
C819 H833 0.961 . S
C819 H834 0.961 . S
C819 H835 0.961 . S
C820 C821 1.370 . S
C820 C822 1.363 . S
C820 H836 0.931 . S
C821 C820 1.370 . S
C821 C825 1.408 . S
C822 C820 1.363 . S
C822 C823 1.370 . S
C822 C826 1.524 . S
C823 C815 1.503 . S
C823 C822 1.370 . S
C823 C824 1.403 . S
C824 C823 1.403 . S
C824 C825 1.404 . S
C824 C827 1.539 . S
C825 C821 1.408 . S
C825 C824 1.404 . S
C825 H837 0.930 . S
C826 C822 1.524 . S
C826 H838 0.956 . S
C826 H839 0.961 . S
C826 H840 0.961 . S
C827 C824 1.539 . S
C827 H841 0.958 . S
C827 H842 0.961 . S
C827 H843 0.960 . S
H828 C812 0.931 . S
H829 C817 0.929 . S
H830 C818 0.960 . S
H831 C818 0.962 . S
H832 C818 0.960 . S
H833 C819 0.961 . S
H834 C819 0.961 . S
H835 C819 0.961 . S
H836 C820 0.931 . S
H837 C825 0.930 . S
H838 C826 0.956 . S
H839 C826 0.961 . S
H840 C826 0.961 . S
H841 C827 0.958 . S
H842 C827 0.961 . S
H843 C827 0.960 . S
C844 C845 1.391 . S
C844 C846 1.394 . S
C844 H860 0.931 . S
C845 C844 1.391 . S
C845 C849 1.376 . S
C846 C844 1.394 . S
C846 C847 1.369 . S
C846 C850 1.531 . S
C847 C846 1.369 . S
C847 C848 1.410 . S
C847 C855 1.503 1_545 S
C848 C847 1.410 . S
C848 C849 1.392 . S
C848 C851 1.511 1_545 S
C849 C845 1.376 . S
C849 C848 1.392 . S
C849 H861 0.929 . S
C850 C846 1.531 . S
C850 H862 0.959 . S
C850 H863 0.962 . S
C850 H864 0.960 . S
C851 C848 1.511 1_565 S
C851 H865 0.961 . S
C851 H866 0.961 . S
C851 H867 0.961 . S
C852 C853 1.370 . S
C852 C854 1.363 . S
C852 H868 0.931 . S
C853 C852 1.370 . S
C853 C857 1.408 . S
C854 C852 1.363 . S
C854 C855 1.370 . S
C854 C858 1.524 1_565 S
C855 C847 1.503 1_565 S
C855 C854 1.370 . S
C855 C856 1.403 . S
C856 C855 1.403 . S
C856 C857 1.404 . S
C856 C859 1.539 . S
C857 C853 1.408 . S
C857 C856 1.404 . S
C857 H869 0.930 . S
C858 C854 1.524 1_545 S
C858 H870 0.956 . S
C858 H871 0.961 . S
C858 H872 0.961 . S
C859 C856 1.539 . S
C859 H873 0.958 . S
C859 H874 0.961 . S
C859 H875 0.960 . S
H860 C844 0.931 . S
H861 C849 0.929 . S
H862 C850 0.959 . S
H863 C850 0.962 . S
H864 C850 0.960 . S
H865 C851 0.961 . S
H866 C851 0.961 . S
H867 C851 0.961 . S
H868 C852 0.931 . S
H869 C857 0.930 . S
H870 C858 0.956 . S
H871 C858 0.961 . S
H872 C858 0.961 . S
H873 C859 0.958 . S
H874 C859 0.961 . S
H875 C859 0.960 . S
C876 C877 1.391 . S
C876 C878 1.394 . S
C876 H892 0.931 . S
C877 C876 1.391 . S
C877 C881 1.376 . S
C878 C876 1.394 . S
C878 C879 1.369 . S
C878 C882 1.531 . S
C879 C878 1.369 . S
C879 C880 1.410 . S
C879 C887 1.503 . S
C880 C879 1.410 . S
C880 C881 1.392 . S
C880 C883 1.511 . S
C881 C877 1.376 . S
C881 C880 1.392 . S
C881 H893 0.929 . S
C882 C878 1.531 . S
C882 H894 0.960 . S
C882 H895 0.962 . S
C882 H896 0.960 . S
C883 C880 1.511 . S
C883 H897 0.961 . S
C883 H898 0.961 . S
C883 H899 0.961 . S
C884 C885 1.370 . S
C884 C886 1.363 . S
C884 H900 0.931 . S
C885 C884 1.370 . S
C885 C889 1.408 . S
C886 C884 1.363 . S
C886 C887 1.370 . S
C886 C890 1.524 . S
C887 C879 1.503 . S
C887 C886 1.370 . S
C887 C888 1.403 . S
C888 C887 1.403 . S
C888 C889 1.404 . S
C888 C891 1.539 . S
C889 C885 1.408 . S
C889 C888 1.404 . S
C889 H901 0.930 . S
C890 C886 1.524 . S
C890 H902 0.956 . S
C890 H903 0.961 . S
C890 H904 0.961 . S
C891 C888 1.539 . S
C891 H905 0.958 . S
C891 H906 0.961 . S
C891 H907 0.960 . S
H892 C876 0.931 . S
H893 C881 0.929 . S
H894 C882 0.960 . S
H895 C882 0.962 . S
H896 C882 0.960 . S
H897 C883 0.961 . S
H898 C883 0.961 . S
H899 C883 0.961 . S
H900 C884 0.931 . S
H901 C889 0.930 . S
H902 C890 0.956 . S
H903 C890 0.961 . S
H904 C890 0.961 . S
H905 C891 0.958 . S
H906 C891 0.961 . S
H907 C891 0.960 . S
C908 C909 1.391 . S
C908 C910 1.394 . S
C908 H924 0.931 . S
C909 C908 1.391 . S
C909 C913 1.376 . S
C910 C908 1.394 . S
C910 C911 1.369 . S
C910 C914 1.531 . S
C911 C910 1.369 . S
C911 C912 1.410 . S
C911 C919 1.503 . S
C912 C911 1.410 . S
C912 C913 1.392 . S
C912 C915 1.511 . S
C913 C909 1.376 . S
C913 C912 1.392 . S
C913 H925 0.929 . S
C914 C910 1.531 . S
C914 H926 0.960 . S
C914 H927 0.962 . S
C914 H928 0.960 . S
C915 C912 1.511 . S
C915 H929 0.961 . S
C915 H930 0.961 . S
C915 H931 0.961 . S
C916 C917 1.370 . S
C916 C918 1.363 . S
C916 H932 0.931 . S
C917 C916 1.370 . S
C917 C921 1.408 . S
C918 C916 1.363 . S
C918 C919 1.370 . S
C918 C922 1.524 . S
C919 C911 1.503 . S
C919 C918 1.370 . S
C919 C920 1.403 . S
C920 C919 1.403 . S
C920 C921 1.404 . S
C920 C923 1.539 . S
C921 C917 1.408 . S
C921 C920 1.404 . S
C921 H933 0.930 . S
C922 C918 1.524 . S
C922 H934 0.956 . S
C922 H935 0.961 . S
C922 H936 0.961 . S
C923 C920 1.539 . S
C923 H937 0.958 . S
C923 H938 0.961 . S
C923 H939 0.960 . S
H924 C908 0.931 . S
H925 C913 0.929 . S
H926 C914 0.960 . S
H927 C914 0.962 . S
H928 C914 0.960 . S
H929 C915 0.961 . S
H930 C915 0.961 . S
H931 C915 0.961 . S
H932 C916 0.931 . S
H933 C921 0.930 . S
H934 C922 0.956 . S
H935 C922 0.961 . S
H936 C922 0.961 . S
H937 C923 0.958 . S
H938 C923 0.961 . S
H939 C923 0.960 . S
C940 C941 1.391 . S
C940 C942 1.394 . S
C940 H956 0.931 . S
C941 C940 1.391 . S
C941 C945 1.376 . S
C942 C940 1.394 . S
C942 C943 1.369 . S
C942 C946 1.531 . S
C943 C942 1.369 . S
C943 C944 1.410 . S
C943 C951 1.503 . S
C944 C943 1.410 . S
C944 C945 1.392 . S
C944 C947 1.511 . S
C945 C941 1.376 . S
C945 C944 1.392 . S
C945 H957 0.929 . S
C946 C942 1.531 . S
C946 H958 0.960 . S
C946 H959 0.962 . S
C946 H960 0.960 . S
C947 C944 1.511 . S
C947 H961 0.961 . S
C947 H962 0.961 . S
C947 H963 0.961 . S
C948 C949 1.370 . S
C948 C950 1.363 1_455 S
C948 H964 0.931 . S
C949 C948 1.370 . S
C949 C953 1.408 1_455 S
C950 C948 1.363 1_655 S
C950 C951 1.370 . S
C950 C954 1.524 1_655 S
C951 C943 1.503 . S
C951 C950 1.370 . S
C951 C952 1.403 . S
C952 C951 1.403 . S
C952 C953 1.404 . S
C952 C955 1.539 . S
C953 C949 1.408 1_655 S
C953 C952 1.404 . S
C953 H965 0.930 . S
C954 C950 1.524 1_455 S
C954 H966 0.956 1_455 S
C954 H967 0.961 1_455 S
C954 H968 0.961 . S
C955 C952 1.539 . S
C955 H969 0.958 . S
C955 H970 0.961 . S
C955 H971 0.960 . S
H956 C940 0.931 . S
H957 C945 0.929 . S
H958 C946 0.960 . S
H959 C946 0.962 . S
H960 C946 0.960 . S
H961 C947 0.961 . S
H962 C947 0.961 . S
H963 C947 0.961 . S
H964 C948 0.931 . S
H965 C953 0.930 . S
H966 C954 0.956 1_655 S
H967 C954 0.961 1_655 S
H968 C954 0.961 . S
H969 C955 0.958 . S
H970 C955 0.961 . S
H971 C955 0.960 . S
C972 C973 1.391 . S
C972 C974 1.394 . S
C972 H988 0.930 1_545 S
C973 C972 1.391 . S
C973 C977 1.376 . S
C974 C972 1.394 . S
C974 C975 1.369 . S
C974 C978 1.531 . S
C975 C974 1.369 . S
C975 C976 1.410 . S
C975 C983 1.503 . S
C976 C975 1.410 . S
C976 C977 1.392 . S
C976 C979 1.511 . S
C977 C973 1.376 . S
C977 C976 1.392 . S
C977 H989 0.929 . S
C978 C974 1.531 . S
C978 H990 0.960 . S
C978 H991 0.962 . S
C978 H992 0.960 . S
C979 C976 1.511 . S
C979 H993 0.961 . S
C979 H994 0.961 . S
C979 H995 0.961 1_655 S
C980 C981 1.370 1_655 S
C980 C982 1.363 . S
C980 H996 0.931 . S
C981 C980 1.370 1_455 S
C981 C985 1.408 . S
C982 C980 1.363 . S
C982 C983 1.370 . S
C982 C986 1.524 . S
C983 C975 1.503 . S
C983 C982 1.370 . S
C983 C984 1.403 1_655 S
C984 C983 1.403 1_455 S
C984 C985 1.404 . S
C984 C987 1.539 . S
C985 C981 1.408 . S
C985 C984 1.404 . S
C985 H997 0.930 . S
C986 C982 1.524 . S
C986 H998 0.956 . S
C986 H999 0.961 . S
C986 H1000 0.961 . S
C987 C984 1.539 . S
C987 H1001 0.958 . S
C987 H1002 0.961 . S
C987 H1003 0.960 . S
H988 C972 0.930 1_565 S
H989 C977 0.929 . S
H990 C978 0.960 . S
H991 C978 0.962 . S
H992 C978 0.960 . S
H993 C979 0.961 . S
H994 C979 0.961 . S
H995 C979 0.961 1_455 S
H996 C980 0.931 . S
H997 C985 0.930 . S
H998 C986 0.956 . S
H999 C986 0.961 . S
H1000 C986 0.961 . S
H1001 C987 0.958 . S
H1002 C987 0.961 . S
H1003 C987 0.960 . S
C1004 C1005 1.391 . S
C1004 C1006 1.394 . S
C1004 H1020 0.931 . S
C1005 C1004 1.391 . S
C1005 C1009 1.376 . S
C1006 C1004 1.394 . S
C1006 C1007 1.369 . S
C1006 C1010 1.531 . S
C1007 C1006 1.369 . S
C1007 C1008 1.410 . S
C1007 C1015 1.503 . S
C1008 C1007 1.410 . S
C1008 C1009 1.392 . S
C1008 C1011 1.511 . S
C1009 C1005 1.376 . S
C1009 C1008 1.392 . S
C1009 H1021 0.929 . S
C1010 C1006 1.531 . S
C1010 H1022 0.960 . S
C1010 H1023 0.962 . S
C1010 H1024 0.960 . S
C1011 C1008 1.511 . S
C1011 H1025 0.961 . S
C1011 H1026 0.961 . S
C1011 H1027 0.961 . S
C1012 C1013 1.370 . S
C1012 C1014 1.363 . S
C1012 H1028 0.931 . S
C1013 C1012 1.370 . S
C1013 C1017 1.408 . S
C1014 C1012 1.363 . S
C1014 C1015 1.370 . S
C1014 C1018 1.524 . S
C1015 C1007 1.503 . S
C1015 C1014 1.370 . S
C1015 C1016 1.403 . S
C1016 C1015 1.403 . S
C1016 C1017 1.404 . S
C1016 C1019 1.539 . S
C1017 C1013 1.408 . S
C1017 C1016 1.404 . S
C1017 H1029 0.930 . S
C1018 C1014 1.524 . S
C1018 H1030 0.956 . S
C1018 H1031 0.961 . S
C1018 H1032 0.961 . S
C1019 C1016 1.539 . S
C1019 H1033 0.958 . S
C1019 H1034 0.961 . S
C1019 H1035 0.960 . S
H1020 C1004 0.931 . S
H1021 C1009 0.929 . S
H1022 C1010 0.960 . S
H1023 C1010 0.962 . S
H1024 C1010 0.960 . S
H1025 C1011 0.961 . S
H1026 C1011 0.961 . S
H1027 C1011 0.961 . S
H1028 C1012 0.931 . S
H1029 C1017 0.930 . S
H1030 C1018 0.956 . S
H1031 C1018 0.961 . S
H1032 C1018 0.961 . S
H1033 C1019 0.958 . S
H1034 C1019 0.961 . S
H1035 C1019 0.960 . S
C1036 C1037 1.391 . S
C1036 C1038 1.394 . S
C1036 H1052 0.931 . S
C1037 C1036 1.391 . S
C1037 C1041 1.376 . S
C1038 C1036 1.394 . S
C1038 C1039 1.369 . S
C1038 C1042 1.531 . S
C1039 C1038 1.369 . S
C1039 C1040 1.410 . S
C1039 C1047 1.503 . S
C1040 C1039 1.410 . S
C1040 C1041 1.392 . S
C1040 C1043 1.511 . S
C1041 C1037 1.376 . S
C1041 C1040 1.392 . S
C1041 H1053 0.929 . S
C1042 C1038 1.531 . S
C1042 H1054 0.960 . S
C1042 H1055 0.962 . S
C1042 H1056 0.960 . S
C1043 C1040 1.511 . S
C1043 H1057 0.961 . S
C1043 H1058 0.961 . S
C1043 H1059 0.961 . S
C1044 C1045 1.370 1_655 S
C1044 C1046 1.363 . S
C1044 H1060 0.931 . S
C1045 C1044 1.370 1_455 S
C1045 C1049 1.408 . S
C1046 C1044 1.363 . S
C1046 C1047 1.370 . S
C1046 C1050 1.524 . S
C1047 C1039 1.503 . S
C1047 C1046 1.370 . S
C1047 C1048 1.403 1_655 S
C1048 C1047 1.403 1_455 S
C1048 C1049 1.404 . S
C1048 C1051 1.539 . S
C1049 C1045 1.408 . S
C1049 C1048 1.404 . S
C1049 H1061 0.930 . S
C1050 C1046 1.524 . S
C1050 H1062 0.956 . S
C1050 H1063 0.961 . S
C1050 H1064 0.961 . S
C1051 C1048 1.539 . S
C1051 H1065 0.958 . S
C1051 H1066 0.961 . S
C1051 H1067 0.960 . S
H1052 C1036 0.931 . S
H1053 C1041 0.929 . S
H1054 C1042 0.960 . S
H1055 C1042 0.962 . S
H1056 C1042 0.960 . S
H1057 C1043 0.961 . S
H1058 C1043 0.961 . S
H1059 C1043 0.961 . S
H1060 C1044 0.931 . S
H1061 C1049 0.930 . S
H1062 C1050 0.956 . S
H1063 C1050 0.961 . S
H1064 C1050 0.961 . S
H1065 C1051 0.958 . S
H1066 C1051 0.961 . S
H1067 C1051 0.960 . S
C1068 C1069 1.391 . S
C1068 C1070 1.394 . S
C1068 H1084 0.931 . S
C1069 C1068 1.391 . S
C1069 C1073 1.376 . S
C1070 C1068 1.394 . S
C1070 C1071 1.369 . S
C1070 C1074 1.531 . S
C1071 C1070 1.369 . S
C1071 C1072 1.410 . S
C1071 C1079 1.503 . S
C1072 C1071 1.410 . S
C1072 C1073 1.392 . S
C1072 C1075 1.511 . S
C1073 C1069 1.376 . S
C1073 C1072 1.392 . S
C1073 H1085 0.929 . S
C1074 C1070 1.531 . S
C1074 H1086 0.960 . S
C1074 H1087 0.962 . S
C1074 H1088 0.960 . S
C1075 C1072 1.511 . S
C1075 H1089 0.961 . S
C1075 H1090 0.961 . S
C1075 H1091 0.961 . S
C1076 C1077 1.370 . S
C1076 C1078 1.363 . S
C1076 H1092 0.931 . S
C1077 C1076 1.370 . S
C1077 C1081 1.408 1_455 S
C1078 C1076 1.363 . S
C1078 C1079 1.370 1_455 S
C1078 C1082 1.524 . S
C1079 C1071 1.503 . S
C1079 C1078 1.370 1_655 S
C1079 C1080 1.403 . S
C1080 C1079 1.403 . S
C1080 C1081 1.404 . S
C1080 C1083 1.539 . S
C1081 C1077 1.408 1_655 S
C1081 C1080 1.404 . S
C1081 H1093 0.930 . S
C1082 C1078 1.524 . S
C1082 H1094 0.956 . S
C1082 H1095 0.961 . S
C1082 H1096 0.961 . S
C1083 C1080 1.539 . S
C1083 H1097 0.958 . S
C1083 H1098 0.961 . S
C1083 H1099 0.960 . S
H1084 C1068 0.931 . S
H1085 C1073 0.929 . S
H1086 C1074 0.960 . S
H1087 C1074 0.962 . S
H1088 C1074 0.960 . S
H1089 C1075 0.961 . S
H1090 C1075 0.961 . S
H1091 C1075 0.961 . S
H1092 C1076 0.931 . S
H1093 C1081 0.930 . S
H1094 C1082 0.956 . S
H1095 C1082 0.961 . S
H1096 C1082 0.961 . S
H1097 C1083 0.958 . S
H1098 C1083 0.961 . S
H1099 C1083 0.960 . S
C1100 C1101 1.391 . S
C1100 C1102 1.394 . S
C1100 H1116 0.931 . S
C1101 C1100 1.391 . S
C1101 C1105 1.376 . S
C1102 C1100 1.394 . S
C1102 C1103 1.369 . S
C1102 C1106 1.531 . S
C1103 C1102 1.369 . S
C1103 C1104 1.410 . S
C1103 C1111 1.503 . S
C1104 C1103 1.410 . S
C1104 C1105 1.392 . S
C1104 C1107 1.511 . S
C1105 C1101 1.376 . S
C1105 C1104 1.392 . S
C1105 H1117 0.929 . S
C1106 C1102 1.531 . S
C1106 H1118 0.960 . S
C1106 H1119 0.962 . S
C1106 H1120 0.960 . S
C1107 C1104 1.511 . S
C1107 H1121 0.961 . S
C1107 H1122 0.961 . S
C1107 H1123 0.961 . S
C1108 C1109 1.370 . S
C1108 C1110 1.363 . S
C1108 H1124 0.931 . S
C1109 C1108 1.370 . S
C1109 C1113 1.408 . S
C1110 C1108 1.363 . S
C1110 C1111 1.370 . S
C1110 C1114 1.524 . S
C1111 C1103 1.503 . S
C1111 C1110 1.370 . S
C1111 C1112 1.403 . S
C1112 C1111 1.403 . S
C1112 C1113 1.404 . S
C1112 C1115 1.539 . S
C1113 C1109 1.408 . S
C1113 C1112 1.404 . S
C1113 H1125 0.930 . S
C1114 C1110 1.524 . S
C1114 H1126 0.956 . S
C1114 H1127 0.961 . S
C1114 H1128 0.961 . S
C1115 C1112 1.539 . S
C1115 H1129 0.958 . S
C1115 H1130 0.961 . S
C1115 H1131 0.960 . S
H1116 C1100 0.931 . S
H1117 C1105 0.929 . S
H1118 C1106 0.960 . S
H1119 C1106 0.962 . S
H1120 C1106 0.960 . S
H1121 C1107 0.961 . S
H1122 C1107 0.961 . S
H1123 C1107 0.961 . S
H1124 C1108 0.931 . S
H1125 C1113 0.930 . S
H1126 C1114 0.956 . S
H1127 C1114 0.961 . S
H1128 C1114 0.961 . S
H1129 C1115 0.958 . S
H1130 C1115 0.961 . S
H1131 C1115 0.960 . S
C1132 C1133 1.391 . S
C1132 C1134 1.394 . S
C1132 H1148 0.931 . S
C1133 C1132 1.391 . S
C1133 C1137 1.376 . S
C1134 C1132 1.394 . S
C1134 C1135 1.369 . S
C1134 C1138 1.531 . S
C1135 C1134 1.369 . S
C1135 C1136 1.410 . S
C1135 C1143 1.503 . S
C1136 C1135 1.410 . S
C1136 C1137 1.392 . S
C1136 C1139 1.511 . S
C1137 C1133 1.376 . S
C1137 C1136 1.392 . S
C1137 H1149 0.929 . S
C1138 C1134 1.531 . S
C1138 H1150 0.960 . S
C1138 H1151 0.962 . S
C1138 H1152 0.960 . S
C1139 C1136 1.511 . S
C1139 H1153 0.961 . S
C1139 H1154 0.961 . S
C1139 H1155 0.961 . S
C1140 C1141 1.370 . S
C1140 C1142 1.363 . S
C1140 H1156 0.931 . S
C1141 C1140 1.370 . S
C1141 C1145 1.408 . S
C1142 C1140 1.363 . S
C1142 C1143 1.370 . S
C1142 C1146 1.524 . S
C1143 C1135 1.503 . S
C1143 C1142 1.370 . S
C1143 C1144 1.403 . S
C1144 C1143 1.403 . S
C1144 C1145 1.404 . S
C1144 C1147 1.539 . S
C1145 C1141 1.408 . S
C1145 C1144 1.404 . S
C1145 H1157 0.930 . S
C1146 C1142 1.524 . S
C1146 H1158 0.956 . S
C1146 H1159 0.961 . S
C1146 H1160 0.961 . S
C1147 C1144 1.539 . S
C1147 H1161 0.958 . S
C1147 H1162 0.961 . S
C1147 H1163 0.960 . S
H1148 C1132 0.931 . S
H1149 C1137 0.929 . S
H1150 C1138 0.960 . S
H1151 C1138 0.962 . S
H1152 C1138 0.960 . S
H1153 C1139 0.961 . S
H1154 C1139 0.961 . S
H1155 C1139 0.961 . S
H1156 C1140 0.931 . S
H1157 C1145 0.930 . S
H1158 C1146 0.956 . S
H1159 C1146 0.961 . S
H1160 C1146 0.961 . S
H1161 C1147 0.958 . S
H1162 C1147 0.961 . S
H1163 C1147 0.960 . S
C1164 C1165 1.391 . S
C1164 C1166 1.394 . S
C1164 H1180 0.931 . S
C1165 C1164 1.391 . S
C1165 C1169 1.376 . S
C1166 C1164 1.394 . S
C1166 C1167 1.369 . S
C1166 C1170 1.531 . S
C1167 C1166 1.369 . S
C1167 C1168 1.410 . S
C1167 C1175 1.503 . S
C1168 C1167 1.410 . S
C1168 C1169 1.392 . S
C1168 C1171 1.511 . S
C1169 C1165 1.376 . S
C1169 C1168 1.392 . S
C1169 H1181 0.929 . S
C1170 C1166 1.531 . S
C1170 H1182 0.960 . S
C1170 H1183 0.962 . S
C1170 H1184 0.960 . S
C1171 C1168 1.511 . S
C1171 H1185 0.961 . S
C1171 H1186 0.961 . S
C1171 H1187 0.961 1_655 S
C1172 C1173 1.370 . S
C1172 C1174 1.363 . S
C1172 H1188 0.931 . S
C1173 C1172 1.370 . S
C1173 C1177 1.408 1_655 S
C1174 C1172 1.363 . S
C1174 C1175 1.370 . S
C1174 C1178 1.524 . S
C1175 C1167 1.503 . S
C1175 C1174 1.370 . S
C1175 C1176 1.403 . S
C1176 C1175 1.403 . S
C1176 C1177 1.404 1_655 S
C1176 C1179 1.539 1_655 S
C1177 C1173 1.408 1_455 S
C1177 C1176 1.404 1_455 S
C1177 H1189 0.930 . S
C1178 C1174 1.524 . S
C1178 H1190 0.956 . S
C1178 H1191 0.961 . S
C1178 H1192 0.961 . S
C1179 C1176 1.539 1_455 S
C1179 H1193 0.958 . S
C1179 H1194 0.961 . S
C1179 H1195 0.960 . S
H1180 C1164 0.931 . S
H1181 C1169 0.929 . S
H1182 C1170 0.960 . S
H1183 C1170 0.962 . S
H1184 C1170 0.960 . S
H1185 C1171 0.961 . S
H1186 C1171 0.961 . S
H1187 C1171 0.961 1_455 S
H1188 C1172 0.931 . S
H1189 C1177 0.930 . S
H1190 C1178 0.956 . S
H1191 C1178 0.961 . S
H1192 C1178 0.961 . S
H1193 C1179 0.958 . S
H1194 C1179 0.961 . S
H1195 C1179 0.960 . S
C1196 C1197 1.391 . S
C1196 C1198 1.394 . S
C1196 H1212 0.931 . S
C1197 C1196 1.391 . S
C1197 C1201 1.376 . S
C1198 C1196 1.394 . S
C1198 C1199 1.369 . S
C1198 C1202 1.531 . S
C1199 C1198 1.369 . S
C1199 C1200 1.410 . S
C1199 C1207 1.503 . S
C1200 C1199 1.410 . S
C1200 C1201 1.392 . S
C1200 C1203 1.511 . S
C1201 C1197 1.376 . S
C1201 C1200 1.392 . S
C1201 H1213 0.929 . S
C1202 C1198 1.531 . S
C1202 H1214 0.960 . S
C1202 H1215 0.962 . S
C1202 H1216 0.960 . S
C1203 C1200 1.511 . S
C1203 H1217 0.961 . S
C1203 H1218 0.961 . S
C1203 H1219 0.961 . S
C1204 C1205 1.370 . S
C1204 C1206 1.363 . S
C1204 H1220 0.931 . S
C1205 C1204 1.370 . S
C1205 C1209 1.408 . S
C1206 C1204 1.363 . S
C1206 C1207 1.370 . S
C1206 C1210 1.524 . S
C1207 C1199 1.503 . S
C1207 C1206 1.370 . S
C1207 C1208 1.403 . S
C1208 C1207 1.403 . S
C1208 C1209 1.404 . S
C1208 C1211 1.539 . S
C1209 C1205 1.408 . S
C1209 C1208 1.404 . S
C1209 H1221 0.930 . S
C1210 C1206 1.524 . S
C1210 H1222 0.956 . S
C1210 H1223 0.961 . S
C1210 H1224 0.961 . S
C1211 C1208 1.539 . S
C1211 H1225 0.958 . S
C1211 H1226 0.961 . S
C1211 H1227 0.960 . S
H1212 C1196 0.931 . S
H1213 C1201 0.929 . S
H1214 C1202 0.960 . S
H1215 C1202 0.962 . S
H1216 C1202 0.960 . S
H1217 C1203 0.961 . S
H1218 C1203 0.961 . S
H1219 C1203 0.961 . S
H1220 C1204 0.931 . S
H1221 C1209 0.930 . S
H1222 C1210 0.956 . S
H1223 C1210 0.961 . S
H1224 C1210 0.961 . S
H1225 C1211 0.958 . S
H1226 C1211 0.961 . S
H1227 C1211 0.960 . S
C1228 C1229 1.391 . S
C1228 C1230 1.394 . S
C1228 H1244 0.931 . S
C1229 C1228 1.391 . S
C1229 C1233 1.376 . S
C1230 C1228 1.394 . S
C1230 C1231 1.369 . S
C1230 C1234 1.531 . S
C1231 C1230 1.369 . S
C1231 C1232 1.410 . S
C1231 C1239 1.503 . S
C1232 C1231 1.410 . S
C1232 C1233 1.392 . S
C1232 C1235 1.511 . S
C1233 C1229 1.376 . S
C1233 C1232 1.392 . S
C1233 H1245 0.929 . S
C1234 C1230 1.531 . S
C1234 H1246 0.960 . S
C1234 H1247 0.962 . S
C1234 H1248 0.960 . S
C1235 C1232 1.511 . S
C1235 H1249 0.961 . S
C1235 H1250 0.961 . S
C1235 H1251 0.961 . S
C1236 C1237 1.370 . S
C1236 C1238 1.363 . S
C1236 H1252 0.931 . S
C1237 C1236 1.370 . S
C1237 C1241 1.408 . S
C1238 C1236 1.363 . S
C1238 C1239 1.370 . S
C1238 C1242 1.524 . S
C1239 C1231 1.503 . S
C1239 C1238 1.370 . S
C1239 C1240 1.403 . S
C1240 C1239 1.403 . S
C1240 C1241 1.404 . S
C1240 C1243 1.539 . S
C1241 C1237 1.408 . S
C1241 C1240 1.404 . S
C1241 H1253 0.930 . S
C1242 C1238 1.524 . S
C1242 H1254 0.956 . S
C1242 H1255 0.961 . S
C1242 H1256 0.961 . S
C1243 C1240 1.539 . S
C1243 H1257 0.958 . S
C1243 H1258 0.961 . S
C1243 H1259 0.960 . S
H1244 C1228 0.931 . S
H1245 C1233 0.929 . S
H1246 C1234 0.960 . S
H1247 C1234 0.962 . S
H1248 C1234 0.960 . S
H1249 C1235 0.961 . S
H1250 C1235 0.961 . S
H1251 C1235 0.961 . S
H1252 C1236 0.931 . S
H1253 C1241 0.930 . S
H1254 C1242 0.956 . S
H1255 C1242 0.961 . S
H1256 C1242 0.961 . S
H1257 C1243 0.958 . S
H1258 C1243 0.961 . S
H1259 C1243 0.960 . S
C1260 C1261 1.391 . S
C1260 C1262 1.394 . S
C1260 H1276 0.931 . S
C1261 C1260 1.391 . S
C1261 C1265 1.376 . S
C1262 C1260 1.394 . S
C1262 C1263 1.369 . S
C1262 C1266 1.531 . S
C1263 C1262 1.369 . S
C1263 C1264 1.410 . S
C1263 C1271 1.503 . S
C1264 C1263 1.410 . S
C1264 C1265 1.392 . S
C1264 C1267 1.511 . S
C1265 C1261 1.376 . S
C1265 C1264 1.392 . S
C1265 H1277 0.929 . S
C1266 C1262 1.531 . S
C1266 H1278 0.960 . S
C1266 H1279 0.962 . S
C1266 H1280 0.960 . S
C1267 C1264 1.511 . S
C1267 H1281 0.961 . S
C1267 H1282 0.961 . S
C1267 H1283 0.961 . S
C1268 C1269 1.370 . S
C1268 C1270 1.363 . S
C1268 H1284 0.931 . S
C1269 C1268 1.370 . S
C1269 C1273 1.408 . S
C1270 C1268 1.363 . S
C1270 C1271 1.370 . S
C1270 C1274 1.524 . S
C1271 C1263 1.503 . S
C1271 C1270 1.370 . S
C1271 C1272 1.403 . S
C1272 C1271 1.403 . S
C1272 C1273 1.404 . S
C1272 C1275 1.539 . S
C1273 C1269 1.408 . S
C1273 C1272 1.404 . S
C1273 H1285 0.930 . S
C1274 C1270 1.524 . S
C1274 H1286 0.956 . S
C1274 H1287 0.961 . S
C1274 H1288 0.961 . S
C1275 C1272 1.539 . S
C1275 H1289 0.958 . S
C1275 H1290 0.961 . S
C1275 H1291 0.960 . S
H1276 C1260 0.931 . S
H1277 C1265 0.929 . S
H1278 C1266 0.960 . S
H1279 C1266 0.962 . S
H1280 C1266 0.960 . S
H1281 C1267 0.961 . S
H1282 C1267 0.961 . S
H1283 C1267 0.961 . S
H1284 C1268 0.931 . S
H1285 C1273 0.930 . S
H1286 C1274 0.956 . S
H1287 C1274 0.961 . S
H1288 C1274 0.961 . S
H1289 C1275 0.958 . S
H1290 C1275 0.961 . S
H1291 C1275 0.960 . S
C1292 C1293 1.391 . S
C1292 C1294 1.394 . S
C1292 H1308 0.931 . S
C1293 C1292 1.391 . S
C1293 C1297 1.376 . S
C1294 C1292 1.394 . S
C1294 C1295 1.369 . S
C1294 C1298 1.531 . S
C1295 C1294 1.369 . S
C1295 C1296 1.410 . S
C1295 C1303 1.503 . S
C1296 C1295 1.410 . S
C1296 C1297 1.392 . S
C1296 C1299 1.511 . S
C1297 C1293 1.376 . S
C1297 C1296 1.392 . S
C1297 H1309 0.929 . S
C1298 C1294 1.531 . S
C1298 H1310 0.960 . S
C1298 H1311 0.962 . S
C1298 H1312 0.960 . S
C1299 C1296 1.511 . S
C1299 H1313 0.961 . S
C1299 H1314 0.961 . S
C1299 H1315 0.961 . S
C1300 C1301 1.370 . S
C1300 C1302 1.363 . S
C1300 H1316 0.931 . S
C1301 C1300 1.370 . S
C1301 C1305 1.408 . S
C1302 C1300 1.363 . S
C1302 C1303 1.370 . S
C1302 C1306 1.524 . S
C1303 C1295 1.503 . S
C1303 C1302 1.370 . S
C1303 C1304 1.403 . S
C1304 C1303 1.403 . S
C1304 C1305 1.404 . S
C1304 C1307 1.539 . S
C1305 C1301 1.408 . S
C1305 C1304 1.404 . S
C1305 H1317 0.930 . S
C1306 C1302 1.524 . S
C1306 H1318 0.956 . S
C1306 H1319 0.961 . S
C1306 H1320 0.961 . S
C1307 C1304 1.539 . S
C1307 H1321 0.958 . S
C1307 H1322 0.961 . S
C1307 H1323 0.960 . S
H1308 C1292 0.931 . S
H1309 C1297 0.929 . S
H1310 C1298 0.960 . S
H1311 C1298 0.962 . S
H1312 C1298 0.960 . S
H1313 C1299 0.961 . S
H1314 C1299 0.961 . S
H1315 C1299 0.961 . S
H1316 C1300 0.931 . S
H1317 C1305 0.930 . S
H1318 C1306 0.956 . S
H1319 C1306 0.961 . S
H1320 C1306 0.961 . S
H1321 C1307 0.958 . S
H1322 C1307 0.961 . S
H1323 C1307 0.960 . S
C1324 C1325 1.391 . S
C1324 C1326 1.394 . S
C1324 H1340 0.931 . S
C1325 C1324 1.391 . S
C1325 C1329 1.376 . S
C1326 C1324 1.394 . S
C1326 C1327 1.369 . S
C1326 C1330 1.531 . S
C1327 C1326 1.369 . S
C1327 C1328 1.410 . S
C1327 C1335 1.503 . S
C1328 C1327 1.410 . S
C1328 C1329 1.392 . S
C1328 C1331 1.511 . S
C1329 C1325 1.376 . S
C1329 C1328 1.392 . S
C1329 H1341 0.929 . S
C1330 C1326 1.531 . S
C1330 H1342 0.960 . S
C1330 H1343 0.962 . S
C1330 H1344 0.960 . S
C1331 C1328 1.511 . S
C1331 H1345 0.961 . S
C1331 H1346 0.961 . S
C1331 H1347 0.961 . S
C1332 C1333 1.370 . S
C1332 C1334 1.363 . S
C1332 H1348 0.931 . S
C1333 C1332 1.370 . S
C1333 C1337 1.408 . S
C1334 C1332 1.363 . S
C1334 C1335 1.370 . S
C1334 C1338 1.524 . S
C1335 C1327 1.503 . S
C1335 C1334 1.370 . S
C1335 C1336 1.403 . S
C1336 C1335 1.403 . S
C1336 C1337 1.404 . S
C1336 C1339 1.539 . S
C1337 C1333 1.408 . S
C1337 C1336 1.404 . S
C1337 H1349 0.930 . S
C1338 C1334 1.524 . S
C1338 H1350 0.956 . S
C1338 H1351 0.961 . S
C1338 H1352 0.961 . S
C1339 C1336 1.539 . S
C1339 H1353 0.958 . S
C1339 H1354 0.961 . S
C1339 H1355 0.960 . S
H1340 C1324 0.931 . S
H1341 C1329 0.929 . S
H1342 C1330 0.960 . S
H1343 C1330 0.962 . S
H1344 C1330 0.960 . S
H1345 C1331 0.961 . S
H1346 C1331 0.961 . S
H1347 C1331 0.961 . S
H1348 C1332 0.931 . S
H1349 C1337 0.930 . S
H1350 C1338 0.956 . S
H1351 C1338 0.961 . S
H1352 C1338 0.961 . S
H1353 C1339 0.958 . S
H1354 C1339 0.961 . S
H1355 C1339 0.960 . S
C1356 C1357 1.391 . S
C1356 C1358 1.394 . S
C1356 H1372 0.931 . S
C1357 C1356 1.391 . S
C1357 C1361 1.376 . S
C1358 C1356 1.394 . S
C1358 C1359 1.369 . S
C1358 C1362 1.531 1_655 S
C1359 C1358 1.369 . S
C1359 C1360 1.410 . S
C1359 C1367 1.503 . S
C1360 C1359 1.410 . S
C1360 C1361 1.392 . S
C1360 C1363 1.511 . S
C1361 C1357 1.376 . S
C1361 C1360 1.392 . S
C1361 H1373 0.929 . S
C1362 C1358 1.531 1_455 S
C1362 H1374 0.960 . S
C1362 H1375 0.962 . S
C1362 H1376 0.960 . S
C1363 C1360 1.511 . S
C1363 H1377 0.961 . S
C1363 H1378 0.961 . S
C1363 H1379 0.961 . S
C1364 C1365 1.370 . S
C1364 C1366 1.363 . S
C1364 H1380 0.931 . S
C1365 C1364 1.370 . S
C1365 C1369 1.408 . S
C1366 C1364 1.363 . S
C1366 C1367 1.370 . S
C1366 C1370 1.524 . S
C1367 C1359 1.503 . S
C1367 C1366 1.370 . S
C1367 C1368 1.403 . S
C1368 C1367 1.403 . S
C1368 C1369 1.404 . S
C1368 C1371 1.539 . S
C1369 C1365 1.408 . S
C1369 C1368 1.404 . S
C1369 H1381 0.930 . S
C1370 C1366 1.524 . S
C1370 H1382 0.956 . S
C1370 H1383 0.961 . S
C1370 H1384 0.961 . S
C1371 C1368 1.539 . S
C1371 H1385 0.958 . S
C1371 H1386 0.961 . S
C1371 H1387 0.960 . S
H1372 C1356 0.931 . S
H1373 C1361 0.929 . S
H1374 C1362 0.960 . S
H1375 C1362 0.962 . S
H1376 C1362 0.960 . S
H1377 C1363 0.961 . S
H1378 C1363 0.961 . S
H1379 C1363 0.961 . S
H1380 C1364 0.931 . S
H1381 C1369 0.930 . S
H1382 C1370 0.956 . S
H1383 C1370 0.961 . S
H1384 C1370 0.961 . S
H1385 C1371 0.958 . S
H1386 C1371 0.961 . S
H1387 C1371 0.960 . S
C1388 C1389 1.391 . S
C1388 C1390 1.394 . S
C1388 H1404 0.931 . S
C1389 C1388 1.391 . S
C1389 C1393 1.376 . S
C1390 C1388 1.394 . S
C1390 C1391 1.369 . S
C1390 C1394 1.531 . S
C1391 C1390 1.369 . S
C1391 C1392 1.410 . S
C1391 C1399 1.503 . S
C1392 C1391 1.410 . S
C1392 C1393 1.392 . S
C1392 C1395 1.511 . S
C1393 C1389 1.376 . S
C1393 C1392 1.392 . S
C1393 H1405 0.929 . S
C1394 C1390 1.531 . S
C1394 H1406 0.960 . S
C1394 H1407 0.962 . S
C1394 H1408 0.960 . S
C1395 C1392 1.511 . S
C1395 H1409 0.961 . S
C1395 H1410 0.961 . S
C1395 H1411 0.961 . S
C1396 C1397 1.370 . S
C1396 C1398 1.363 . S
C1396 H1412 0.931 . S
C1397 C1396 1.370 . S
C1397 C1401 1.408 . S
C1398 C1396 1.363 . S
C1398 C1399 1.370 . S
C1398 C1402 1.524 . S
C1399 C1391 1.503 . S
C1399 C1398 1.370 . S
C1399 C1400 1.403 . S
C1400 C1399 1.403 . S
C1400 C1401 1.404 . S
C1400 C1403 1.539 . S
C1401 C1397 1.408 . S
C1401 C1400 1.404 . S
C1401 H1413 0.930 . S
C1402 C1398 1.524 . S
C1402 H1414 0.956 . S
C1402 H1415 0.961 . S
C1402 H1416 0.961 . S
C1403 C1400 1.539 . S
C1403 H1417 0.958 . S
C1403 H1418 0.961 . S
C1403 H1419 0.960 . S
H1404 C1388 0.931 . S
H1405 C1393 0.929 . S
H1406 C1394 0.960 . S
H1407 C1394 0.962 . S
H1408 C1394 0.960 . S
H1409 C1395 0.961 . S
H1410 C1395 0.961 . S
H1411 C1395 0.961 . S
H1412 C1396 0.931 . S
H1413 C1401 0.930 . S
H1414 C1402 0.956 . S
H1415 C1402 0.961 . S
H1416 C1402 0.961 . S
H1417 C1403 0.958 . S
H1418 C1403 0.961 . S
H1419 C1403 0.960 . S
C1420 C1421 1.391 . S
C1420 C1422 1.394 . S
C1420 H1436 0.931 . S
C1421 C1420 1.391 . S
C1421 C1425 1.376 . S
C1422 C1420 1.394 . S
C1422 C1423 1.369 . S
C1422 C1426 1.531 . S
C1423 C1422 1.369 . S
C1423 C1424 1.410 . S
C1423 C1431 1.503 . S
C1424 C1423 1.410 . S
C1424 C1425 1.392 . S
C1424 C1427 1.511 . S
C1425 C1421 1.376 . S
C1425 C1424 1.392 . S
C1425 H1437 0.929 . S
C1426 C1422 1.531 . S
C1426 H1438 0.960 . S
C1426 H1439 0.962 . S
C1426 H1440 0.960 . S
C1427 C1424 1.511 . S
C1427 H1441 0.961 . S
C1427 H1442 0.961 . S
C1427 H1443 0.961 . S
C1428 C1429 1.370 . S
C1428 C1430 1.363 . S
C1428 H1444 0.931 . S
C1429 C1428 1.370 . S
C1429 C1433 1.408 . S
C1430 C1428 1.363 . S
C1430 C1431 1.370 . S
C1430 C1434 1.524 . S
C1431 C1423 1.503 . S
C1431 C1430 1.370 . S
C1431 C1432 1.403 . S
C1432 C1431 1.403 . S
C1432 C1433 1.404 . S
C1432 C1435 1.539 . S
C1433 C1429 1.408 . S
C1433 C1432 1.404 . S
C1433 H1445 0.930 . S
C1434 C1430 1.524 . S
C1434 H1446 0.956 . S
C1434 H1447 0.961 . S
C1434 H1448 0.961 . S
C1435 C1432 1.539 . S
C1435 H1449 0.958 . S
C1435 H1450 0.961 . S
C1435 H1451 0.960 . S
H1436 C1420 0.931 . S
H1437 C1425 0.929 . S
H1438 C1426 0.960 . S
H1439 C1426 0.962 . S
H1440 C1426 0.960 . S
H1441 C1427 0.961 . S
H1442 C1427 0.961 . S
H1443 C1427 0.961 . S
H1444 C1428 0.931 . S
H1445 C1433 0.930 . S
H1446 C1434 0.956 . S
H1447 C1434 0.961 . S
H1448 C1434 0.961 . S
H1449 C1435 0.958 . S
H1450 C1435 0.961 . S
H1451 C1435 0.960 . S
C1452 C1453 1.391 . S
C1452 C1454 1.394 . S
C1452 H1468 0.931 . S
C1453 C1452 1.391 . S
C1453 C1457 1.376 . S
C1454 C1452 1.394 . S
C1454 C1455 1.369 . S
C1454 C1458 1.531 . S
C1455 C1454 1.369 . S
C1455 C1456 1.410 . S
C1455 C1463 1.503 . S
C1456 C1455 1.410 . S
C1456 C1457 1.392 . S
C1456 C1459 1.511 . S
C1457 C1453 1.376 . S
C1457 C1456 1.392 . S
C1457 H1469 0.929 . S
C1458 C1454 1.531 . S
C1458 H1470 0.960 . S
C1458 H1471 0.962 . S
C1458 H1472 0.960 . S
C1459 C1456 1.511 . S
C1459 H1473 0.961 . S
C1459 H1474 0.961 . S
C1459 H1475 0.961 . S
C1460 C1461 1.370 . S
C1460 C1462 1.363 . S
C1460 H1476 0.931 . S
C1461 C1460 1.370 . S
C1461 C1465 1.408 . S
C1462 C1460 1.363 . S
C1462 C1463 1.370 . S
C1462 C1466 1.524 . S
C1463 C1455 1.503 . S
C1463 C1462 1.370 . S
C1463 C1464 1.403 . S
C1464 C1463 1.403 . S
C1464 C1465 1.404 . S
C1464 C1467 1.539 . S
C1465 C1461 1.408 . S
C1465 C1464 1.404 . S
C1465 H1477 0.930 . S
C1466 C1462 1.524 . S
C1466 H1478 0.956 . S
C1466 H1479 0.961 . S
C1466 H1480 0.961 . S
C1467 C1464 1.539 . S
C1467 H1481 0.958 . S
C1467 H1482 0.961 . S
C1467 H1483 0.960 . S
H1468 C1452 0.931 . S
H1469 C1457 0.929 . S
H1470 C1458 0.960 . S
H1471 C1458 0.962 . S
H1472 C1458 0.960 . S
H1473 C1459 0.961 . S
H1474 C1459 0.961 . S
H1475 C1459 0.961 . S
H1476 C1460 0.931 . S
H1477 C1465 0.930 . S
H1478 C1466 0.956 . S
H1479 C1466 0.961 . S
H1480 C1466 0.961 . S
H1481 C1467 0.958 . S
H1482 C1467 0.961 . S
H1483 C1467 0.960 . S
C1484 C1485 1.391 . S
C1484 C1486 1.394 . S
C1484 H1500 0.931 . S
C1485 C1484 1.391 . S
C1485 C1489 1.376 . S
C1486 C1484 1.394 . S
C1486 C1487 1.369 . S
C1486 C1490 1.531 . S
C1487 C1486 1.369 . S
C1487 C1488 1.410 . S
C1487 C1495 1.503 . S
C1488 C1487 1.410 . S
C1488 C1489 1.392 . S
C1488 C1491 1.511 . S
C1489 C1485 1.376 . S
C1489 C1488 1.392 . S
C1489 H1501 0.929 . S
C1490 C1486 1.531 . S
C1490 H1502 0.960 . S
C1490 H1503 0.962 . S
C1490 H1504 0.960 . S
C1491 C1488 1.511 . S
C1491 H1505 0.961 . S
C1491 H1506 0.961 . S
C1491 H1507 0.961 . S
C1492 C1493 1.370 . S
C1492 C1494 1.363 . S
C1492 H1508 0.931 . S
C1493 C1492 1.370 . S
C1493 C1497 1.408 . S
C1494 C1492 1.363 . S
C1494 C1495 1.370 . S
C1494 C1498 1.524 . S
C1495 C1487 1.503 . S
C1495 C1494 1.370 . S
C1495 C1496 1.403 . S
C1496 C1495 1.403 . S
C1496 C1497 1.404 . S
C1496 C1499 1.539 . S
C1497 C1493 1.408 . S
C1497 C1496 1.404 . S
C1497 H1509 0.930 . S
C1498 C1494 1.524 . S
C1498 H1510 0.956 . S
C1498 H1511 0.961 . S
C1498 H1512 0.961 . S
C1499 C1496 1.539 . S
C1499 H1513 0.958 . S
C1499 H1514 0.961 . S
C1499 H1515 0.960 . S
H1500 C1484 0.931 . S
H1501 C1489 0.929 . S
H1502 C1490 0.960 . S
H1503 C1490 0.962 . S
H1504 C1490 0.960 . S
H1505 C1491 0.961 . S
H1506 C1491 0.961 . S
H1507 C1491 0.961 . S
H1508 C1492 0.931 . S
H1509 C1497 0.930 . S
H1510 C1498 0.956 . S
H1511 C1498 0.961 . S
H1512 C1498 0.961 . S
H1513 C1499 0.958 . S
H1514 C1499 0.961 . S
H1515 C1499 0.960 . S
C1516 C1517 1.391 . S
C1516 C1518 1.394 . S
C1516 H1532 0.931 . S
C1517 C1516 1.391 . S
C1517 C1521 1.376 . S
C1518 C1516 1.394 . S
C1518 C1519 1.369 . S
C1518 C1522 1.531 . S
C1519 C1518 1.369 . S
C1519 C1520 1.410 . S
C1519 C1527 1.503 . S
C1520 C1519 1.410 . S
C1520 C1521 1.392 . S
C1520 C1523 1.511 . S
C1521 C1517 1.376 . S
C1521 C1520 1.392 . S
C1521 H1533 0.929 . S
C1522 C1518 1.531 . S
C1522 H1534 0.960 . S
C1522 H1535 0.962 . S
C1522 H1536 0.960 . S
C1523 C1520 1.511 . S
C1523 H1537 0.961 . S
C1523 H1538 0.961 . S
C1523 H1539 0.961 . S
C1524 C1525 1.370 . S
C1524 C1526 1.363 . S
C1524 H1540 0.931 . S
C1525 C1524 1.370 . S
C1525 C1529 1.408 . S
C1526 C1524 1.363 . S
C1526 C1527 1.370 . S
C1526 C1530 1.524 . S
C1527 C1519 1.503 . S
C1527 C1526 1.370 . S
C1527 C1528 1.403 . S
C1528 C1527 1.403 . S
C1528 C1529 1.404 . S
C1528 C1531 1.539 . S
C1529 C1525 1.408 . S
C1529 C1528 1.404 . S
C1529 H1541 0.930 . S
C1530 C1526 1.524 . S
C1530 H1542 0.956 . S
C1530 H1543 0.961 . S
C1530 H1544 0.961 . S
C1531 C1528 1.539 . S
C1531 H1545 0.958 . S
C1531 H1546 0.961 . S
C1531 H1547 0.960 . S
H1532 C1516 0.931 . S
H1533 C1521 0.929 . S
H1534 C1522 0.960 . S
H1535 C1522 0.962 . S
H1536 C1522 0.960 . S
H1537 C1523 0.961 . S
H1538 C1523 0.961 . S
H1539 C1523 0.961 . S
H1540 C1524 0.931 . S
H1541 C1529 0.930 . S
H1542 C1530 0.956 . S
H1543 C1530 0.961 . S
H1544 C1530 0.961 . S
H1545 C1531 0.958 . S
H1546 C1531 0.961 . S
H1547 C1531 0.960 . S
C1548 C1549 1.391 . S
C1548 C1550 1.394 . S
C1548 H1564 0.931 . S
C1549 C1548 1.391 . S
C1549 C1553 1.376 . S
C1550 C1548 1.394 . S
C1550 C1551 1.369 . S
C1550 C1554 1.531 . S
C1551 C1550 1.369 . S
C1551 C1552 1.410 . S
C1551 C1559 1.503 . S
C1552 C1551 1.410 . S
C1552 C1553 1.392 . S
C1552 C1555 1.511 . S
C1553 C1549 1.376 . S
C1553 C1552 1.392 . S
C1553 H1565 0.929 . S
C1554 C1550 1.531 . S
C1554 H1566 0.960 . S
C1554 H1567 0.962 . S
C1554 H1568 0.960 . S
C1555 C1552 1.511 . S
C1555 H1569 0.961 . S
C1555 H1570 0.961 . S
C1555 H1571 0.961 . S
C1556 C1557 1.370 . S
C1556 C1558 1.363 . S
C1556 H1572 0.931 . S
C1557 C1556 1.370 . S
C1557 C1561 1.408 . S
C1558 C1556 1.363 . S
C1558 C1559 1.370 . S
C1558 C1562 1.524 . S
C1559 C1551 1.503 . S
C1559 C1558 1.370 . S
C1559 C1560 1.403 . S
C1560 C1559 1.403 . S
C1560 C1561 1.404 . S
C1560 C1563 1.539 . S
C1561 C1557 1.408 . S
C1561 C1560 1.404 . S
C1561 H1573 0.930 . S
C1562 C1558 1.524 . S
C1562 H1574 0.956 . S
C1562 H1575 0.961 . S
C1562 H1576 0.961 . S
C1563 C1560 1.539 . S
C1563 H1577 0.958 . S
C1563 H1578 0.961 . S
C1563 H1579 0.960 . S
H1564 C1548 0.931 . S
H1565 C1553 0.929 . S
H1566 C1554 0.960 . S
H1567 C1554 0.962 . S
H1568 C1554 0.960 . S
H1569 C1555 0.961 . S
H1570 C1555 0.961 . S
H1571 C1555 0.961 . S
H1572 C1556 0.931 . S
H1573 C1561 0.930 . S
H1574 C1562 0.956 . S
H1575 C1562 0.961 . S
H1576 C1562 0.961 . S
H1577 C1563 0.958 . S
H1578 C1563 0.961 . S
H1579 C1563 0.960 . S
C1580 C1581 1.391 . S
C1580 C1582 1.394 . S
C1580 H1596 0.931 . S
C1581 C1580 1.391 . S
C1581 C1585 1.376 . S
C1582 C1580 1.394 . S
C1582 C1583 1.369 . S
C1582 C1586 1.531 . S
C1583 C1582 1.369 . S
C1583 C1584 1.410 . S
C1583 C1591 1.503 . S
C1584 C1583 1.410 . S
C1584 C1585 1.392 . S
C1584 C1587 1.511 . S
C1585 C1581 1.376 . S
C1585 C1584 1.392 . S
C1585 H1597 0.929 . S
C1586 C1582 1.531 . S
C1586 H1598 0.960 . S
C1586 H1599 0.962 . S
C1586 H1600 0.960 . S
C1587 C1584 1.511 . S
C1587 H1601 0.961 . S
C1587 H1602 0.961 . S
C1587 H1603 0.961 . S
C1588 C1589 1.370 . S
C1588 C1590 1.363 . S
C1588 H1604 0.931 . S
C1589 C1588 1.370 . S
C1589 C1593 1.408 . S
C1590 C1588 1.363 . S
C1590 C1591 1.370 . S
C1590 C1594 1.524 . S
C1591 C1583 1.503 . S
C1591 C1590 1.370 . S
C1591 C1592 1.403 . S
C1592 C1591 1.403 . S
C1592 C1593 1.404 . S
C1592 C1595 1.539 . S
C1593 C1589 1.408 . S
C1593 C1592 1.404 . S
C1593 H1605 0.930 . S
C1594 C1590 1.524 . S
C1594 H1606 0.956 . S
C1594 H1607 0.961 . S
C1594 H1608 0.961 . S
C1595 C1592 1.539 . S
C1595 H1609 0.958 . S
C1595 H1610 0.961 . S
C1595 H1611 0.960 . S
H1596 C1580 0.931 . S
H1597 C1585 0.929 . S
H1598 C1586 0.960 . S
H1599 C1586 0.962 . S
H1600 C1586 0.960 . S
H1601 C1587 0.961 . S
H1602 C1587 0.961 . S
H1603 C1587 0.961 . S
H1604 C1588 0.931 . S
H1605 C1593 0.930 . S
H1606 C1594 0.956 . S
H1607 C1594 0.961 . S
H1608 C1594 0.961 . S
H1609 C1595 0.958 . S
H1610 C1595 0.961 . S
H1611 C1595 0.960 . S
C1612 C1613 1.391 . S
C1612 C1614 1.394 . S
C1612 H1628 0.931 . S
C1613 C1612 1.391 . S
C1613 C1617 1.376 . S
C1614 C1612 1.394 . S
C1614 C1615 1.369 . S
C1614 C1618 1.531 . S
C1615 C1614 1.369 . S
C1615 C1616 1.410 . S
C1615 C1623 1.503 . S
C1616 C1615 1.410 . S
C1616 C1617 1.392 . S
C1616 C1619 1.511 . S
C1617 C1613 1.376 . S
C1617 C1616 1.392 . S
C1617 H1629 0.929 . S
C1618 C1614 1.531 . S
C1618 H1630 0.960 . S
C1618 H1631 0.962 . S
C1618 H1632 0.960 . S
C1619 C1616 1.511 . S
C1619 H1633 0.961 . S
C1619 H1634 0.961 . S
C1619 H1635 0.961 . S
C1620 C1621 1.370 . S
C1620 C1622 1.363 . S
C1620 H1636 0.931 . S
C1621 C1620 1.370 . S
C1621 C1625 1.408 . S
C1622 C1620 1.363 . S
C1622 C1623 1.370 . S
C1622 C1626 1.524 . S
C1623 C1615 1.503 . S
C1623 C1622 1.370 . S
C1623 C1624 1.403 . S
C1624 C1623 1.403 . S
C1624 C1625 1.404 . S
C1624 C1627 1.539 . S
C1625 C1621 1.408 . S
C1625 C1624 1.404 . S
C1625 H1637 0.930 . S
C1626 C1622 1.524 . S
C1626 H1638 0.956 . S
C1626 H1639 0.961 . S
C1626 H1640 0.961 . S
C1627 C1624 1.539 . S
C1627 H1641 0.958 . S
C1627 H1642 0.961 . S
C1627 H1643 0.960 . S
H1628 C1612 0.931 . S
H1629 C1617 0.929 . S
H1630 C1618 0.960 . S
H1631 C1618 0.962 . S
H1632 C1618 0.960 . S
H1633 C1619 0.961 . S
H1634 C1619 0.961 . S
H1635 C1619 0.961 . S
H1636 C1620 0.931 . S
H1637 C1625 0.930 . S
H1638 C1626 0.956 . S
H1639 C1626 0.961 . S
H1640 C1626 0.961 . S
H1641 C1627 0.958 . S
H1642 C1627 0.961 . S
H1643 C1627 0.960 . S
C629 C556 1.719 . S
C621 C53 1.759 . S
C653 C115 1.697 . S
C661 C559 1.690 . S
C685 C177 1.672 . S
C693 C590 1.653 . S
C725 C525 1.732 . S
C717 C239 1.752 . S
C757 C560 1.997 . S
C749 C47 1.915 . S
C789 C591 1.938 . S
C781 C109 1.876 . S
C821 C516 1.893 . S
C813 C171 1.808 . S
C853 C547 1.919 . S
C845 C233 1.816 . S
C877 C29 1.401 . S
C885 C577 1.379 . S
C909 C277 1.445 . S
C917 C546 1.351 . S
C941 C153 1.363 . S
C949 C506 1.348 . S
C981 C599 1.380 . S
C973 C339 1.377 . S
C1013 C527 1.292 . S
C1005 C35 1.329 . S
C1037 C283 1.275 . S
C1045 C526 1.275 . S
C1069 C159 1.266 . S
C1077 C619 1.255 . S
C1109 C558 1.275 . S
C1101 C345 1.315 . S
C1133 C419 1.910 . S
C1141 C618 1.931 . S
C1165 C301 1.695 . S
C1173 C497 1.686 . S
C1197 C487 1.660 . S
C1205 C528 1.633 . S
C1229 C363 1.727 . S
C1237 C587 1.694 . S
C1269 C498 1.782 . S
C1261 C425 1.822 . S
C1293 C295 1.928 . S
C1301 C529 1.968 . S
C1325 C481 1.813 . S
C1333 C578 1.909 . S
C1365 C609 1.910 . S
C1357 C357 1.856 . S
C1389 C407 1.388 . S
C1397 C515 1.330 . S
C1421 C91 1.377 . S
C1429 C608 1.370 . S
C1453 C463 1.351 . S
C1461 C568 1.373 . S
C1493 C537 1.359 . S
C1485 C215 1.318 . S
C1525 C589 1.326 . S
C1517 C401 1.360 . S
C1557 C588 1.278 . S
C1549 C97 1.283 . S
C1589 C557 1.226 . S
C1581 C469 1.261 . S
C1621 C496 1.295 . S
C1613 C221 1.332 . S
