# Generated by pormake.
# Topology zzz, (3,6)-cn, num edge types: 1
# Building blocks:
#     Node 0, Type 0, BuildingBlock: BETDIP_clean_linker_0, # of connection points: 3
#     Node 1, Type 0, BuildingBlock: BETDIP_clean_linker_0, # of connection points: 3
#     Node 2, Type 0, BuildingBlock: BETDIP_clean_linker_0, # of connection points: 3
#     Node 3, Type 0, BuildingBlock: BETDIP_clean_linker_0, # of connection points: 3
#     Node 4, Type 0, BuildingBlock: BETDIP_clean_linker_0, # of connection points: 3
#     Node 5, Type 0, BuildingBlock: BETDIP_clean_linker_0, # of connection points: 3
#     Node 6, Type 0, BuildingBlock: BETDIP_clean_linker_0, # of connection points: 3
#     Node 7, Type 0, BuildingBlock: BETDIP_clean_linker_0, # of connection points: 3
#     Node 8, Type 1, BuildingBlock: BETFEN_clean_sbu_0, # of connection points: 6
#     Node 9, Type 1, BuildingBlock: BETFEN_clean_sbu_0, # of connection points: 6
#     Node 10, Type 1, BuildingBlock: BETFEN_clean_sbu_0, # of connection points: 6
#     Node 11, Type 1, BuildingBlock: BETFEN_clean_sbu_0, # of connection points: 6
#     Edge 12, Type (0, 1), BuildingBlock: EZIPEK_clean_linker_0, # of connection points: 2
#     Edge 13, Type (0, 1), BuildingBlock: EZIPEK_clean_linker_0, # of connection points: 2
#     Edge 14, Type (0, 1), BuildingBlock: EZIPEK_clean_linker_0, # of connection points: 2
#     Edge 15, Type (0, 1), BuildingBlock: EZIPEK_clean_linker_0, # of connection points: 2
#     Edge 16, Type (0, 1), BuildingBlock: EZIPEK_clean_linker_0, # of connection points: 2
#     Edge 17, Type (0, 1), BuildingBlock: EZIPEK_clean_linker_0, # of connection points: 2
#     Edge 18, Type (0, 1), BuildingBlock: EZIPEK_clean_linker_0, # of connection points: 2
#     Edge 19, Type (0, 1), BuildingBlock: EZIPEK_clean_linker_0, # of connection points: 2
#     Edge 20, Type (0, 1), BuildingBlock: EZIPEK_clean_linker_0, # of connection points: 2
#     Edge 21, Type (0, 1), BuildingBlock: EZIPEK_clean_linker_0, # of connection points: 2
#     Edge 22, Type (0, 1), BuildingBlock: EZIPEK_clean_linker_0, # of connection points: 2
#     Edge 23, Type (0, 1), BuildingBlock: EZIPEK_clean_linker_0, # of connection points: 2
#     Edge 24, Type (0, 1), BuildingBlock: EZIPEK_clean_linker_0, # of connection points: 2
#     Edge 25, Type (0, 1), BuildingBlock: EZIPEK_clean_linker_0, # of connection points: 2
#     Edge 26, Type (0, 1), BuildingBlock: EZIPEK_clean_linker_0, # of connection points: 2
#     Edge 27, Type (0, 1), BuildingBlock: EZIPEK_clean_linker_0, # of connection points: 2
#     Edge 28, Type (0, 1), BuildingBlock: EZIPEK_clean_linker_0, # of connection points: 2
#     Edge 29, Type (0, 1), BuildingBlock: EZIPEK_clean_linker_0, # of connection points: 2
#     Edge 30, Type (0, 1), BuildingBlock: EZIPEK_clean_linker_0, # of connection points: 2
#     Edge 31, Type (0, 1), BuildingBlock: EZIPEK_clean_linker_0, # of connection points: 2
#     Edge 32, Type (0, 1), BuildingBlock: EZIPEK_clean_linker_0, # of connection points: 2
#     Edge 33, Type (0, 1), BuildingBlock: EZIPEK_clean_linker_0, # of connection points: 2
#     Edge 34, Type (0, 1), BuildingBlock: EZIPEK_clean_linker_0, # of connection points: 2
#     Edge 35, Type (0, 1), BuildingBlock: EZIPEK_clean_linker_0, # of connection points: 2
# Relax obj value: 0.374
# Max RMSD: 0.213
# Mean RMSD: 0.160
data_MOF--net-zzz--node1-BETFEN_clean_sbu_0--node2-BETDIP_clean_linker_0--edge1-EZIPEK_clean_linker_0
_symmetry_space_group_name_H-M    P1
_symmetry_Int_Tables_number       1
_symmetry_cell_setting            triclinic
loop_
_symmetry_equiv_pos_as_xyz
'x, y, z'
_cell_length_a     37.817427
_cell_length_b     37.979854
_cell_length_c     10.247968
_cell_angle_alpha  89.862408
_cell_angle_beta   89.765166
_cell_angle_gamma 90.297905
loop_
_atom_site_label
_atom_site_type_symbol
_atom_site_fract_x
_atom_site_fract_y
_atom_site_fract_z
_atom_type_partial_charge
H0 H 0.79237 0.52581 0.59829 0.0
H1 H 0.76449 0.59383 0.27719 0.0
H2 H 0.86994 0.59449 0.42893 0.0
H3 H 0.71004 0.59511 0.4131 0.0
C4 C 0.70931 0.56707 0.3918 0.0
C5 C 0.7993 0.54637 0.5293 0.0
C6 C 0.83457 0.5594 0.52331 0.0
C7 C 0.77324 0.55998 0.44325 0.0
C8 C 0.7834 0.58509 0.34885 0.0
C9 C 0.81834 0.59676 0.33809 0.0
C10 C 0.84282 0.58545 0.43207 0.0
N11 N 0.73787 0.54622 0.44064 0.0
H12 H 0.05112 0.76996 0.54152 0.0
H13 H 0.9731 0.74232 0.25219 0.0
H14 H 0.96955 0.84271 0.44107 0.0
H15 H 0.98592 0.68506 0.33496 0.0
C16 C 1.01369 0.68929 0.31182 0.0
C17 C 1.02741 0.77612 0.48739 0.0
C18 C 1.01087 0.80936 0.5043 0.0
C19 C 1.01333 0.75118 0.39759 0.0
C20 C 0.98309 0.76017 0.32537 0.0
C21 C 0.9677 0.7934 0.33635 0.0
C22 C 0.9809 0.81681 0.43053 0.0
N23 N 1.03147 0.71903 0.36827 0.0
H24 H 0.79768 0.03354 0.54898 0.0
H25 H 0.79935 0.95853 0.23252 0.0
H26 H 0.70934 0.96549 0.48389 0.0
H27 H 0.82116 1.00876 0.13 0.0
C28 C 0.84227 1.01459 0.1984 0.0
C29 C 0.78534 1.01233 0.49509 0.0
C30 C 0.75112 1.00018 0.5307 0.0
C31 C 0.80264 0.99792 0.38411 0.0
C32 C 0.78617 0.9702 0.31522 0.0
C33 C 0.75194 0.95892 0.34719 0.0
C34 C 0.73584 0.97332 0.45762 0.0
N35 N 0.83504 1.01279 0.33564 0.0
H36 H 0.55329 0.78083 0.53657 0.0
H37 H 0.46606 0.80541 0.28193 0.0
H38 H 0.47339 0.703 0.45333 0.0
H39 H 0.51672 0.82449 0.15614 0.0
C40 C 0.52729 0.84177 0.23096 0.0
C41 C 0.52905 0.7732 0.4881 0.0
C42 C 0.5145 0.73916 0.50916 0.0
C43 C 0.51266 0.79675 0.39978 0.0
C44 C 0.48009 0.78712 0.34371 0.0
C45 C 0.46645 0.75315 0.35996 0.0
C46 C 0.484 0.7294 0.44102 0.0
N47 N 0.52937 0.82916 0.36243 0.0
H48 H 0.29866 0.49719 0.1192 0.0
H49 H 0.33236 0.59556 0.29285 0.0
H50 H 0.2295 0.58664 0.12961 0.0
H51 H 0.38514 0.57412 0.26459 0.0
C52 C 0.38266 0.54707 0.29627 0.0
C53 C 0.29419 0.52464 0.14194 0.0
C54 C 0.2616 0.54058 0.10787 0.0
C55 C 0.32057 0.54427 0.20897 0.0
C56 C 0.31358 0.57975 0.23985 0.0
C57 C 0.28033 0.59423 0.21813 0.0
C58 C 0.25521 0.57515 0.14766 0.0
N59 N 0.35192 0.52755 0.25751 0.0
H60 H 0.07146 0.27491 0.04245 0.0
H61 H 0.99349 0.31592 0.31019 0.0
H62 H 0.98102 0.21248 0.1531 0.0
H63 H 1.01664 0.37125 0.14583 0.0
C64 C 0.03853 0.36534 0.21026 0.0
C65 C 0.0467 0.27204 0.09488 0.0
C66 C 1.02683 0.24019 0.08417 0.0
C67 C 0.03415 0.30016 0.17465 0.0
C68 C 1.0023 0.29574 0.24373 0.0
C69 C 0.98341 0.26421 0.2372 0.0
C70 C 0.99547 0.23718 0.1559 0.0
N71 N 0.05466 0.33141 0.19655 0.0
H72 H 0.29928 0.06724 0.15431 0.0
H73 H 0.25328 0.97789 0.3523 0.0
H74 H 0.35756 0.97105 0.18671 0.0
H75 H 0.20121 1.01718 0.21072 0.0
C76 C 0.20808 0.03317 0.29472 0.0
C77 C 0.30061 0.0399 0.18413 0.0
C78 C 0.33067 1.01966 0.15224 0.0
C79 C 0.2725 1.0247 0.25674 0.0
C80 C 0.275 0.98953 0.29851 0.0
C81 C 0.30631 0.97059 0.28018 0.0
C82 C 0.33321 0.98542 0.2022 0.0
N83 N 0.24367 0.04555 0.30144 0.0
H84 H 0.52559 0.28128 0.06952 0.0
H85 H 0.59653 0.24656 0.37253 0.0
H86 H 0.60699 0.35044 0.21407 0.0
H87 H 0.52773 0.2368 0.44959 0.0
C88 C 0.53089 0.217 0.37398 0.0
C89 C 0.54811 0.28605 0.13206 0.0
C90 C 0.56588 0.31903 0.12768 0.0
C91 C 0.55846 0.26014 0.22404 0.0
C92 C 0.58801 0.26643 0.30357 0.0
C93 C 0.60539 0.29883 0.29995 0.0
C94 C 0.59418 0.32479 0.21264 0.0
N95 N 0.5383 0.22872 0.24406 0.0
Pr96 Pr 0.05328 1.01542 0.91558 0.0
Pr97 Pr 1.01575 0.03275 0.67155 0.0
C98 C 0.06425 0.9882 0.14987 0.0
C99 C 0.03744 0.96325 0.19948 0.0
C100 C 0.04725 0.93047 0.25048 0.0
C101 C 1.02262 0.9029 0.255 0.0
C102 C 0.98853 0.90724 0.2028 0.0
C103 C 0.97835 0.94034 0.15812 0.0
C104 C 1.00214 0.96836 0.16058 0.0
C105 C 0.09952 0.03359 0.7066 0.0
C106 C 1.03127 0.9476 0.72565 0.0
C107 C 0.98843 0.04743 0.43802 0.0
C108 C 0.96731 0.0782 0.40158 0.0
C109 C 0.9399 0.08994 0.48407 0.0
C110 C 0.92792 0.12458 0.47556 0.0
C111 C 0.94311 0.14758 0.38412 0.0
C112 C 0.96816 0.13499 0.29455 0.0
C113 C 0.98019 0.10049 0.30322 0.0
C114 C 0.97025 0.03361 0.88895 0.0
C115 C 0.03896 0.09937 0.8617 0.0
O116 O 0.0533 1.02066 0.1361 0.0
O117 O 0.08173 0.97688 0.04781 0.0
O118 O 0.07236 1.01451 0.7027 0.0
O119 O 0.1056 0.04193 0.82778 0.0
O120 O 1.02044 0.97119 0.63989 0.0
O121 O 0.04283 0.95732 0.84149 0.0
O122 O 1.02124 0.05498 0.4683 0.0
O123 O 0.97355 1.02489 0.51838 0.0
O124 O 0.99373 1.01067 0.86698 0.0
O125 O 0.9698 0.05667 0.79607 0.0
O126 O 0.04081 0.07522 0.95403 0.0
O127 O 0.03569 0.08962 0.73813 0.0
H128 H 0.07442 0.92525 0.27668 0.0
H129 H 1.03105 0.8772 0.28781 0.0
H130 H 0.95265 0.94394 0.11502 0.0
H131 H 0.99376 0.99324 0.12013 0.0
H132 H 0.92984 0.07345 0.56232 0.0
H133 H 0.90905 0.13417 0.54672 0.0
H134 H 0.98046 0.15258 0.22435 0.0
H135 H 1.00159 0.09215 0.23992 0.0
Pr136 Pr 0.55144 0.0575 0.93222 0.0
Pr137 Pr 0.5353 1.01129 0.72035 0.0
C138 C 0.57541 0.07932 0.16369 0.0
C139 C 0.59207 0.05473 0.25596 0.0
C140 C 0.627 0.0608 0.29537 0.0
C141 C 0.64911 0.03226 0.32092 0.0
C142 C 0.6368 0.99761 0.30055 0.0
C143 C 0.60042 0.99196 0.28705 0.0
C144 C 0.57803 1.02039 0.26624 0.0
C145 C 0.53845 0.09672 0.70429 0.0
C146 C 0.61855 1.02732 0.76209 0.0
C147 C 0.51197 0.97636 0.5092 0.0
C148 C 0.4826 0.95208 0.4816 0.0
C149 C 0.47163 0.92622 0.57189 0.0
C150 C 0.43895 0.9092 0.55641 0.0
C151 C 0.41634 0.91948 0.45502 0.0
C152 C 0.42914 0.9426 0.35846 0.0
C153 C 0.46231 0.95814 0.37058 0.0
C154 C 0.54821 0.97157 0.94583 0.0
C155 C 0.4675 0.04175 0.90498 0.0
O156 O 0.54185 0.07383 0.14214 0.0
O157 O 0.5933 0.08444 0.05568 0.0
O158 O 0.55582 0.06842 0.70858 0.0
O159 O 0.52942 0.10664 0.8207 0.0
O160 O 0.59504 1.02262 0.66943 0.0
O161 O 0.60778 0.03425 0.88149 0.0
O162 O 0.50288 1.00884 0.53553 0.0
O163 O 0.53709 0.96459 0.58432 0.0
O164 O 0.53054 0.99989 0.94277 0.0
O165 O 0.5612 0.9646 0.83179 0.0
O166 O 0.49113 0.06111 0.96471 0.0
O167 O 0.4771 1.02126 0.80643 0.0
H168 H 0.63847 0.08694 0.28904 0.0
H169 H 0.67705 0.03727 0.33557 0.0
H170 H 0.58975 0.96575 0.27796 0.0
H171 H 0.55088 1.01477 0.23976 0.0
H172 H 0.48721 0.92066 0.65792 0.0
H173 H 0.43002 0.89057 0.6298 0.0
H174 H 0.41261 0.95034 0.27743 0.0
H175 H 0.47127 0.97661 0.29738 0.0
Pr176 Pr 0.52132 0.53747 0.93649 0.0
Pr177 Pr 0.57307 0.52979 0.74571 0.0
C178 C 0.47703 0.55739 0.12893 0.0
C179 C 0.45223 0.58655 0.14967 0.0
C180 C 0.42682 0.59581 0.05583 0.0
C181 C 0.40617 0.62598 0.07249 0.0
C182 C 0.41108 0.64768 0.18195 0.0
C183 C 0.43518 0.63694 0.27882 0.0
C184 C 0.45543 0.60676 0.26282 0.0
C185 C 0.48977 0.52267 0.69314 0.0
C186 C 0.54483 0.60889 0.77088 0.0
C187 C 0.61788 0.51276 0.55076 0.0
C188 C 0.64035 0.48248 0.52123 0.0
C189 C 0.6588 0.46507 0.62111 0.0
C190 C 0.6694 0.43022 0.60396 0.0
C191 C 0.66092 0.4127 0.48789 0.0
C192 C 0.64738 0.43174 0.382 0.0
C193 C 0.63716 0.46661 0.39863 0.0
C194 C 0.60339 0.54594 0.98941 0.0
C195 C 0.54824 0.45787 0.90746 0.0
O196 O 0.51044 0.56613 0.1256 0.0
O197 O 0.46865 0.53391 0.0415 0.0
O198 O 0.51461 0.54456 0.7114 0.0
O199 O 0.4821 0.50659 0.80113 0.0
O200 O 0.55561 0.58615 0.68335 0.0
O201 O 0.53629 0.59715 0.88811 0.0
O202 O 0.58393 0.50625 0.54746 0.0
O203 O 0.62701 0.53242 0.64937 0.0
O204 O 0.57959 0.52296 0.97129 0.0
O205 O 0.61111 0.5621 0.88151 0.0
O206 O 0.53667 0.48021 0.99528 0.0
O207 O 0.55904 0.46985 0.79277 0.0
H208 H 0.42337 0.5802 0.96856 0.0
H209 H 0.38711 0.63258 0.99824 0.0
H210 H 0.43995 0.65291 0.36433 0.0
H211 H 0.47459 0.5999 0.33695 0.0
H212 H 0.66183 0.47699 0.71626 0.0
H213 H 0.67995 0.41577 0.6862 0.0
H214 H 0.64089 0.41853 0.29148 0.0
H215 H 0.62328 0.4798 0.32031 0.0
Pr216 Pr 0.04061 0.50075 0.87725 0.0
Pr217 Pr 0.0616 0.54859 0.68371 0.0
C218 C 1.00165 0.47731 0.07712 0.0
C219 C 0.97543 0.50275 0.12517 0.0
C220 C 0.94294 0.49324 0.1814 0.0
C221 C 0.91626 0.51874 0.19387 0.0
C222 C 0.92164 0.55338 0.14638 0.0
C223 C 0.95413 0.56234 0.09177 0.0
C224 C 0.98064 0.53761 0.08498 0.0
C225 C 0.05701 0.46348 0.64746 0.0
C226 C 0.97773 0.53578 0.69482 0.0
C227 C 0.09 0.58552 0.48411 0.0
C228 C 0.11827 0.6106 0.45048 0.0
C229 C 0.13703 0.60572 0.33436 0.0
C230 C 0.16626 0.62678 0.30565 0.0
C231 C 0.17724 0.65349 0.3922 0.0
C232 C 0.15623 0.66049 0.50247 0.0
C233 C 0.12712 0.63897 0.53211 0.0
C234 C 0.04671 0.58603 0.91428 0.0
C235 C 0.12506 0.51365 0.87895 0.0
O236 O 0.03455 0.48713 0.09304 0.0
O237 O 0.99567 0.4669 0.95789 0.0
O238 O 0.03982 0.49207 0.65219 0.0
O239 O 0.06533 0.45306 0.76417 0.0
O240 O 1.00309 0.54092 0.60887 0.0
O241 O 0.98652 0.52701 0.81392 0.0
O242 O 0.09914 0.55307 0.51048 0.0
O243 O 0.06449 0.59706 0.55823 0.0
O244 O 0.06381 0.55741 0.90809 0.0
O245 O 0.03453 0.5943 0.80025 0.0
O246 O 0.09972 0.4951 0.9346 0.0
O247 O 0.11759 0.5347 0.77925 0.0
H248 H 0.93769 0.46621 0.20953 0.0
H249 H 0.8908 0.51109 0.23342 0.0
H250 H 0.9588 0.58829 0.05089 0.0
H251 H 1.00447 0.54488 0.03548 0.0
H252 H 0.12995 0.58464 0.26827 0.0
H253 H 0.18158 0.62052 0.21947 0.0
H254 H 0.16295 0.68159 0.56854 0.0
H255 H 0.11231 0.64385 0.62065 0.0
C256 C 0.17741 0.06508 0.48587 0.0
C257 C 0.18212 0.03466 0.40658 0.0
C258 C 0.1272 1.01038 0.49689 0.0
C259 C 0.12591 0.03679 0.59511 0.0
N260 N 0.15053 0.09114 0.67825 0.0
N261 N 0.16592 0.9738 0.36959 0.0
C262 C 0.15161 0.06446 0.5894 0.0
C263 C 0.15856 1.00587 0.4232 0.0
N264 N 0.19543 0.09539 0.45714 0.0
N265 N 0.09802 0.9911 0.46476 0.0
H266 H 0.18934 0.9685 0.31954 0.0
H267 H 0.15064 0.95144 0.38921 0.0
H268 H 0.0725 0.99796 0.49217 0.0
H269 H 0.09846 0.97237 0.39098 0.0
H270 H 0.19048 0.11933 0.50288 0.0
H271 H 0.21278 0.09771 0.37849 0.0
H272 H 0.17121 0.10904 0.69076 0.0
H273 H 0.12918 0.09509 0.74082 0.0
C274 C 0.49931 0.16837 0.49254 0.0
C275 C 0.52901 0.17935 0.41745 0.0
C276 C 0.56334 0.12981 0.50499 0.0
C277 C 0.53429 0.12028 0.58724 0.0
N278 N 0.47149 0.12266 0.62427 0.0
N279 N 0.58513 0.16414 0.32108 0.0
C280 C 0.50123 0.13711 0.56937 0.0
C281 C 0.55956 0.15784 0.41282 0.0
N282 N 0.46953 0.1886 0.49346 0.0
N283 N 0.5953 0.11384 0.51966 0.0
H284 H 0.5834 0.18414 0.25207 0.0
H285 H 0.60632 0.14735 0.30426 0.0
H286 H 0.59881 0.09096 0.57323 0.0
H287 H 0.61879 0.12401 0.48149 0.0
H288 H 0.44866 0.18488 0.55873 0.0
H289 H 0.46636 0.21016 0.43128 0.0
H290 H 0.44603 0.13167 0.60602 0.0
H291 H 0.47202 0.09924 0.67772 0.0
C292 C 0.40894 0.5591 0.51591 0.0
C293 C 0.40674 0.5366 0.40563 0.0
C294 C 0.45747 0.50287 0.48941 0.0
C295 C 0.46186 0.52778 0.59166 0.0
N296 N 0.44354 0.58167 0.69593 0.0
N297 N 0.43081 0.48896 0.27967 0.0
C298 C 0.43813 0.55652 0.60275 0.0
C299 C 0.43134 0.50873 0.39083 0.0
N300 N 0.38208 0.58211 0.54087 0.0
N301 N 0.47817 0.4735 0.48708 0.0
H302 H 0.4117 0.4921 0.20756 0.0
H303 H 0.45046 0.47105 0.25481 0.0
H304 H 0.49828 0.46911 0.55457 0.0
H305 H 0.47405 0.45247 0.42385 0.0
H306 H 0.38004 0.59688 0.62597 0.0
H307 H 0.35964 0.58364 0.48285 0.0
H308 H 0.43038 0.60569 0.69748 0.0
H309 H 0.46281 0.5797 0.76776 0.0
C310 C 0.07821 0.40412 0.3526 0.0
C311 C 0.04433 0.38919 0.32628 0.0
C312 C 1.02033 0.42003 0.51907 0.0
C313 C 0.05308 0.43763 0.53759 0.0
N314 N 0.11245 0.44946 0.46447 0.0
N315 N 0.98132 0.38938 0.37144 0.0
C316 C 0.0819 0.43037 0.4525 0.0
C317 C 1.0149 0.39911 0.40545 0.0
N318 N 0.10682 0.39369 0.28089 0.0
N319 N 0.99462 0.42209 0.61288 0.0
H320 H 0.97538 0.37338 0.29217 0.0
H321 H 0.95884 0.39972 0.41594 0.0
H322 H 0.99729 0.4372 0.69715 0.0
H323 H 0.97188 0.40649 0.61263 0.0
H324 H 0.13277 0.40041 0.30377 0.0
H325 H 0.10485 0.3766 0.20183 0.0
H326 H 0.13319 0.4486 0.39749 0.0
H327 H 0.1161 0.46827 0.53735 0.0
C328 C 0.89575 0.05156 0.13737 0.0
C329 C 0.87847 1.01834 0.14051 0.0
C330 C 0.91959 0.99611 0.97418 0.0
C331 C 0.93891 1.02827 0.97741 0.0
N332 N 0.94182 0.08898 0.04375 0.0
N333 N 0.87826 0.95695 0.08363 0.0
C334 C 0.9261 0.05664 0.05489 0.0
C335 C 0.89184 0.99004 0.06568 0.0
N336 N 0.88337 0.07801 0.21499 0.0
N337 N 0.92517 0.9727 0.87528 0.0
H338 H 0.85848 0.95145 0.152 0.0
H339 H 0.88919 0.93453 0.04154 0.0
H340 H 0.94264 0.97751 0.79834 0.0
H341 H 0.90939 0.95052 0.86038 0.0
H342 H 0.89565 0.10235 0.22511 0.0
H343 H 0.86133 0.07502 0.27551 0.0
H344 H 0.93043 0.11225 0.076 0.0
H345 H 0.96599 0.09295 0.99676 0.0
C346 C 0.5029 0.89899 0.15128 0.0
C347 C 0.53274 0.87939 0.19187 0.0
C348 C 0.57224 0.92269 0.08666 0.0
C349 C 0.54239 0.94206 0.04209 0.0
N350 N 0.47869 0.94852 0.03288 0.0
N351 N 0.59548 0.87406 0.21605 0.0
C352 C 0.50754 0.93047 0.07632 0.0
C353 C 0.56734 0.89187 0.16535 0.0
N354 N 0.46988 0.88604 0.17874 0.0
N355 N 0.60543 0.93398 0.05301 0.0
H356 H 0.59239 0.85181 0.27497 0.0
H357 H 0.62171 0.882 0.20692 0.0
H358 H 0.61017 0.95889 0.0137 0.0
H359 H 0.62828 0.91921 0.06448 0.0
H360 H 0.44659 0.89509 0.13723 0.0
H361 H 0.46575 0.86536 0.24406 0.0
H362 H 0.45315 0.94502 0.06865 0.0
H363 H 0.47969 0.96729 0.95941 0.0
C364 C 0.64667 0.57121 0.31359 0.0
C365 C 0.68037 0.55484 0.3012 0.0
C366 C 0.65899 0.52547 0.10153 0.0
C367 C 0.62791 0.54625 0.10374 0.0
N368 N 0.59366 0.59185 0.20552 0.0
N369 N 0.7201 0.52042 0.16601 0.0
C370 C 0.62204 0.56974 0.20861 0.0
C371 C 0.68685 0.53251 0.19183 0.0
N372 N 0.63794 0.58797 0.42707 0.0
N373 N 0.66214 0.49915 0.01172 0.0
H374 H 0.74198 0.52576 0.22346 0.0
H375 H 0.72687 0.50779 0.07938 0.0
H376 H 0.6429 0.49418 0.94156 0.0
H377 H 0.68216 0.48042 0.01443 0.0
H378 H 0.61258 0.59708 0.44729 0.0
H379 H 0.65483 0.58923 0.50717 0.0
H380 H 0.5901 0.61248 0.27097 0.0
H381 H 0.57503 0.59135 0.13086 0.0
C382 C 1.02938 0.62704 0.24981 0.0
C383 C 1.03063 0.66358 0.2195 0.0
C384 C 0.05245 0.64875 0.99882 0.0
C385 C 0.04798 0.61222 0.02608 0.0
N386 N 0.04903 0.56831 0.19627 0.0
N387 N 0.04077 0.70937 0.05991 0.0
C388 C 0.04166 0.60182 0.15736 0.0
C389 C 0.04222 0.67454 0.09337 0.0
N390 N 1.01473 0.61609 0.36511 0.0
N391 N 0.0689 0.65865 0.88549 0.0
H392 H 0.03383 0.72911 0.12535 0.0
H393 H 0.04401 0.71866 0.96496 0.0
H394 H 0.07936 0.64035 0.82046 0.0
H395 H 0.07617 0.68445 0.86331 0.0
H396 H 1.0079 0.58993 0.38377 0.0
H397 H 1.00726 0.63336 0.43915 0.0
H398 H 0.04662 0.55947 0.29209 0.0
H399 H 0.06064 0.55004 0.13465 0.0
C400 C 0.96986 0.24099 0.44961 0.0
C401 C 0.95578 0.25514 0.33442 0.0
C402 C 0.91622 0.20469 0.31691 0.0
C403 C 0.93963 0.18598 0.39876 0.0
N404 N 0.9894 0.18661 0.54649 0.0
N405 N 0.90576 0.25691 0.19106 0.0
C406 C 0.96586 0.20443 0.47081 0.0
C407 C 0.92466 0.23986 0.28378 0.0
N408 N 0.99022 0.26157 0.52814 0.0
N409 N 0.88787 0.18823 0.26223 0.0
H410 H 0.91216 0.28243 0.16029 0.0
H411 H 0.91216 0.28243 0.16029 0.0
H412 H 0.88106 0.16231 0.28582 0.0
H413 H 0.87091 0.20113 0.19791 0.0
H414 H 1.00084 0.25272 0.61582 0.0
H415 H 0.99329 0.28847 0.51017 0.0
H416 H 1.0116 0.19848 0.58768 0.0
H417 H 0.98805 0.15945 0.56037 0.0
C418 C 0.32248 0.94327 0.49177 0.0
C419 C 0.31491 0.9384 0.35789 0.0
C420 C 0.36311 0.89605 0.34411 0.0
C421 C 0.37777 0.91186 0.45651 0.0
N422 N 0.36809 0.94398 0.65657 0.0
N423 N 0.31913 0.90095 0.1716 0.0
C424 C 0.35589 0.93242 0.53896 0.0
C425 C 0.33159 0.91045 0.29111 0.0
N426 N 0.29824 0.95862 0.57201 0.0
N427 N 0.38103 0.86939 0.28503 0.0
H428 H 0.29601 0.91205 0.13448 0.0
H429 H 0.33133 0.88278 0.11066 0.0
H430 H 0.40416 0.85934 0.32584 0.0
H431 H 0.37204 0.856 0.20306 0.0
H432 H 0.30152 0.96101 0.67243 0.0
H433 H 0.27287 0.96471 0.54098 0.0
H434 H 0.35538 0.96295 0.71239 0.0
H435 H 0.39133 0.93491 0.69839 0.0
C436 C 0.61661 0.32399 0.51312 0.0
C437 C 0.63144 0.30924 0.40003 0.0
C438 C 0.67844 0.35352 0.40477 0.0
C439 C 0.65648 0.37408 0.48656 0.0
N440 N 0.6022 0.37926 0.61259 0.0
N441 N 0.68082 0.3037 0.25563 0.0
C442 C 0.62547 0.35909 0.5435 0.0
C443 C 0.66472 0.32133 0.35499 0.0
N444 N 0.59163 0.3058 0.58228 0.0
N445 N 0.71115 0.36579 0.37041 0.0
H446 H 0.67042 0.27998 0.22081 0.0
H447 H 0.70337 0.31268 0.20715 0.0
H448 H 0.72102 0.38961 0.40611 0.0
H449 H 0.7292 0.35139 0.31556 0.0
H450 H 0.58109 0.31491 0.67001 0.0
H451 H 0.58467 0.28001 0.5586 0.0
H452 H 0.57742 0.37012 0.64242 0.0
H453 H 0.60603 0.40595 0.63038 0.0
C454 C 0.26241 0.6279 0.41934 0.0
C455 C 0.26899 0.62735 0.28234 0.0
C456 C 0.22613 0.67448 0.25156 0.0
C457 C 0.21399 0.66753 0.37947 0.0
N458 N 0.23606 0.66085 0.59696 0.0
N459 N 0.2683 0.65946 0.07998 0.0
C460 C 0.23809 0.65279 0.46785 0.0
C461 C 0.25517 0.65464 0.20288 0.0
N462 N 0.27607 0.60304 0.501 0.0
N463 N 0.20664 0.6961 0.17423 0.0
H464 H 0.28946 0.64454 0.0452 0.0
H465 H 0.26006 0.67938 0.01737 0.0
H466 H 0.18485 0.7095 0.21234 0.0
H467 H 0.21157 0.70026 0.0754 0.0
H468 H 0.26825 0.6006 0.59829 0.0
H469 H 0.2935 0.58357 0.47129 0.0
H470 H 0.25428 0.65178 0.66517 0.0
H471 H 0.21875 0.68005 0.63109 0.0
C472 C 0.92207 0.83454 0.26422 0.0
C473 C 0.94556 0.80763 0.22826 0.0
C474 C 0.98012 0.84822 0.09982 0.0
C475 C 0.96612 0.8758 0.17836 0.0
N476 N 0.91759 0.89696 0.3126 0.0
N477 N 0.97372 0.78683 0.03458 0.0
C478 C 0.93388 0.87004 0.24859 0.0
C479 C 0.96583 0.81399 0.11578 0.0
N480 N 0.89189 0.82557 0.32898 0.0
N481 N 1.00833 0.85424 0.01928 0.0
H482 H 0.96231 0.76201 0.04849 0.0
H483 H 0.98888 0.78964 0.95017 0.0
H484 H 1.0187 0.87942 0.00362 0.0
H485 H 1.02189 0.83422 0.9715 0.0
H486 H 0.87264 0.84361 0.35667 0.0
H487 H 0.88572 0.7991 0.34638 0.0
H488 H 0.89582 0.89343 0.37377 0.0
H489 H 0.92645 0.92291 0.30787 0.0
C490 C 0.71972 0.96312 0.14703 0.0
C491 C 0.72872 0.94063 0.25038 0.0
C492 C 0.66766 0.93805 0.32296 0.0
C493 C 0.66263 0.97057 0.25623 0.0
N494 N 0.67708 1.00544 0.0657 0.0
N495 N 0.70783 0.88864 0.35701 0.0
C496 C 0.68628 0.97987 0.15268 0.0
C497 C 0.70068 0.9207 0.30463 0.0
N498 N 0.74465 0.97107 0.0553 0.0
N499 N 0.64425 0.92676 0.41577 0.0
H500 H 0.73331 0.87821 0.35108 0.0
H501 H 0.68839 0.87209 0.39586 0.0
H502 H 0.62124 0.94034 0.43882 0.0
H503 H 0.64878 0.90497 0.47513 0.0
H504 H 0.74198 0.99057 0.98487 0.0
H505 H 0.76809 0.95677 0.04943 0.0
H506 H 0.69412 1.01606 0.9961 0.0
H507 H 0.65162 1.01584 0.06352 0.0
C508 C 0.43645 0.73367 0.15323 0.0
C509 C 0.43463 0.7405 0.28929 0.0
C510 C 0.38729 0.69683 0.31198 0.0
C511 C 0.39695 0.68428 0.18746 0.0
N512 N 0.40697 0.70582 0.97049 0.0
N513 N 0.39935 0.73917 0.48505 0.0
C514 C 0.41313 0.70822 0.10084 0.0
C515 C 0.40616 0.72618 0.36362 0.0
N516 N 0.46198 0.74865 0.0766 0.0
N517 N 0.36378 0.67762 0.38415 0.0
H518 H 0.41348 0.7606 0.52211 0.0
H519 H 0.3788 0.73032 0.54469 0.0
H520 H 0.35106 0.65574 0.34379 0.0
H521 H 0.35711 0.68304 0.48059 0.0
H522 H 0.46629 0.74098 0.9806 0.0
H523 H 0.47998 0.76733 0.10966 0.0
H524 H 0.41659 0.72425 0.90351 0.0
H525 H 0.38867 0.68788 0.93331 0.0
C526 C 0.82956 0.58961 0.10782 0.0
C527 C 0.83133 0.61299 0.21358 0.0
C528 C 0.89494 0.61282 0.20436 0.0
C529 C 0.89235 0.57919 0.14185 0.0
N530 N 0.85909 0.54201 0.99427 0.0
N531 N 0.86238 0.66509 0.27326 0.0
C532 C 0.86024 0.5698 0.07833 0.0
C533 C 0.86312 0.63191 0.22393 0.0
N534 N 0.79882 0.58631 0.04039 0.0
N535 N 0.92559 0.62396 0.26115 0.0
H536 H 0.83829 0.67689 0.29695 0.0
H537 H 0.88476 0.68109 0.28022 0.0
H538 H 0.94856 0.60909 0.26269 0.0
H539 H 0.92736 0.64681 0.31676 0.0
H540 H 0.79605 0.57062 0.95783 0.0
H541 H 0.77709 0.60208 0.06268 0.0
H542 H 0.83572 0.53211 0.95513 0.0
H543 H 0.88189 0.52894 0.96385 0.0
C544 C 1.01168 0.19664 0.90786 0.0
C545 C 0.03661 0.20844 1.002 0.0
C546 C 0.06754 0.15147 0.97886 0.0
C547 C 0.03959 0.13795 0.90009 0.0
N548 N 0.98157 0.14707 0.80931 0.0
N549 N 0.08632 0.19476 0.13899 0.0
C550 C 1.01091 0.16053 0.86862 0.0
C551 C 0.06431 0.18537 0.03951 0.0
N552 N 0.98808 0.22017 0.85786 0.0
N553 N 0.09753 0.13207 0.99465 0.0
H554 H 0.08522 0.21924 0.18447 0.0
H555 H 0.10402 0.17742 0.18238 0.0
H556 H 0.10088 0.10739 0.95229 0.0
H557 H 0.12026 0.14179 0.03931 0.0
H558 H 0.97017 0.21409 0.78432 0.0
H559 H 0.98864 0.24685 0.88207 0.0
H560 H 0.95787 0.16073 0.80128 0.0
H561 H 0.97995 0.12137 0.77529 0.0
C562 C 0.36595 0.03277 0.94561 0.0
C563 C 0.36266 0.03441 0.08363 0.0
C564 C 0.42692 0.04033 0.10292 0.0
C565 C 0.43081 0.03985 0.96393 0.0
N566 N 0.4025 0.04416 0.75372 0.0
N567 N 0.38832 0.05074 0.28866 0.0
C568 C 0.39981 0.03861 0.88516 0.0
C569 C 0.39266 0.04237 0.15995 0.0
N570 N 0.33678 1.02502 0.87282 0.0
N571 N 0.45562 0.03581 0.18182 0.0
H572 H 0.36346 0.05184 0.33305 0.0
H573 H 0.40869 0.06029 0.34709 0.0
H574 H 0.48018 1.02756 0.14763 0.0
H575 H 0.45415 0.0353 0.28323 0.0
H576 H 0.33749 1.02051 0.77275 0.0
H577 H 0.3117 1.02192 0.9143 0.0
H578 H 0.38077 0.04649 0.69236 0.0
H579 H 0.42642 0.04982 0.70724 0.0
C580 C 0.58267 0.36379 0.9585 0.0
C581 C 0.55593 0.34939 0.04071 0.0
C582 C 0.52032 0.40242 1.00046 0.0
C583 C 0.54996 0.41937 0.94102 0.0
N584 N 0.61213 0.41694 0.88594 0.0
N585 N 0.5001 0.35741 0.1517 0.0
C586 C 0.5818 0.40014 0.92427 0.0
C587 C 0.52468 0.36913 0.06357 0.0
N588 N 0.60956 0.34275 0.91639 0.0
N589 N 0.48782 0.41789 0.99533 0.0
H590 H 0.50206 0.33335 0.2 0.0
H591 H 0.47909 0.3728 0.18395 0.0
H592 H 0.48343 0.44165 0.94689 0.0
H593 H 0.46472 0.40538 0.02679 0.0
H594 H 0.62864 0.35101 0.84917 0.0
H595 H 0.61051 0.31594 0.9389 0.0
H596 H 0.63685 0.40495 0.88737 0.0
H597 H 0.61327 0.44362 0.86325 0.0
C598 C 0.20225 0.51195 0.12562 0.0
C599 C 0.2311 0.5217 0.04492 0.0
C600 C 0.19233 0.51532 0.85328 0.0
C601 C 0.16198 0.5133 0.93619 0.0
N602 N 0.13936 0.51599 0.15874 0.0
N603 N 0.25364 0.5341 0.82999 0.0
C604 C 0.16725 0.51259 0.07455 0.0
C605 C 0.22622 0.52343 0.90784 0.0
N606 N 0.20827 0.50361 0.25329 0.0
N607 N 0.1891 0.50848 0.72308 0.0
H608 H 0.27898 0.53863 0.8665 0.0
H609 H 0.25072 0.54012 0.73138 0.0
H610 H 0.16533 0.50046 0.6811 0.0
H611 H 0.21068 0.50686 0.65989 0.0
H612 H 0.18885 0.49316 0.3148 0.0
H613 H 0.23365 0.5036 0.29299 0.0
H614 H 0.14232 0.51865 0.25926 0.0
H615 H 0.11363 0.52078 0.12922 0.0
C616 C 0.99919 0.85183 0.68699 0.0
C617 C 1.02346 0.83892 0.59203 0.0
C618 C 0.05783 0.8942 0.61393 0.0
C619 C 1.0303 0.90908 0.69054 0.0
N620 N 0.97526 0.90188 0.80551 0.0
N621 N 0.07598 0.8485 0.46244 0.0
C622 C 1.00126 0.88766 0.72954 0.0
C623 C 0.05324 0.86004 0.55674 0.0
N624 N 0.97376 0.82951 0.73468 0.0
N625 N 0.08866 0.91261 0.59754 0.0
H626 H 0.07406 0.82363 0.42052 0.0
H627 H 0.09542 0.86431 0.41971 0.0
H628 H 0.09288 0.93719 0.64014 0.0
H629 H 0.11109 0.90234 0.55279 0.0
H630 H 0.95603 0.83595 0.80859 0.0
H631 H 0.97239 0.80309 0.70712 0.0
H632 H 0.95116 0.88964 0.82542 0.0
H633 H 0.97771 0.9267 0.84761 0.0
C634 C 0.71149 0.98903 0.7196 0.0
C635 C 0.72738 1.01463 0.6363 0.0
C636 C 0.67659 0.05317 0.68148 0.0
C637 C 0.65726 1.02402 0.73215 0.0
N638 N 0.65613 0.96239 0.78802 0.0
N639 N 0.72378 0.07217 0.53663 0.0
C640 C 0.67481 0.99149 0.74993 0.0
C641 C 0.70997 0.04743 0.61923 0.0
N642 N 0.73083 0.96051 0.75684 0.0
N643 N 0.66324 0.08629 0.69358 0.0
H644 H 0.74841 0.06953 0.49219 0.0
H645 H 0.70985 0.09443 0.50743 0.0
H646 H 0.63968 0.09121 0.74354 0.0
H647 H 0.67733 0.10886 0.66687 0.0
H648 H 0.72144 0.94126 0.82088 0.0
H649 H 0.75761 0.95833 0.73272 0.0
H650 H 0.66681 0.9372 0.79165 0.0
H651 H 0.62895 0.96298 0.80376 0.0
C652 C 0.55984 0.69325 0.57549 0.0
C653 C 0.52878 0.71263 0.6042 0.0
C654 C 0.51098 0.66722 0.76466 0.0
C655 C 0.54147 0.64707 0.73254 0.0
N656 N 0.60076 0.64802 0.64508 0.0
N657 N 0.47817 0.72052 0.7463 0.0
C658 C 0.56774 0.66239 0.6497 0.0
C659 C 0.50615 0.70081 0.7066 0.0
N660 N 0.58064 0.7028 0.47196 0.0
N661 N 0.48543 0.65442 0.847 0.0
H662 H 0.47289 0.74585 0.71195 0.0
H663 H 0.47289 0.74585 0.71195 0.0
H664 H 0.48597 0.62977 0.89064 0.0
H665 H 0.46269 0.66859 0.86984 0.0
H666 H 0.60094 0.68708 0.43594 0.0
H667 H 0.57612 0.72533 0.4164 0.0
H668 H 0.62193 0.65966 0.59563 0.0
H669 H 0.60796 0.6266 0.70297 0.0
C670 C 0.8853 0.51703 0.55041 0.0
C671 C 0.86565 0.54583 0.60039 0.0
C672 C 0.91868 0.56678 0.71784 0.0
C673 C 0.93912 0.53941 0.66058 0.0
N674 N 0.94221 0.48755 0.52657 0.0
N675 N 0.86069 0.59339 0.75184 0.0
C676 C 0.92236 0.51405 0.57881 0.0
C677 C 0.88156 0.56898 0.69171 0.0
N678 N 0.86824 0.49287 0.47425 0.0
N679 N 0.93532 0.59192 0.79091 0.0
H680 H 0.83351 0.59466 0.7351 0.0
H681 H 0.86916 0.61029 0.8251 0.0
H682 H 0.96246 0.59182 0.80798 0.0
H683 H 0.92305 0.6141 0.82882 0.0
H684 H 0.87983 0.47065 0.43398 0.0
H685 H 0.84127 0.49436 0.45476 0.0
H686 H 0.93265 0.46794 0.46555 0.0
H687 H 0.96927 0.48529 0.54271 0.0
loop_
_geom_bond_atom_site_label_1
_geom_bond_atom_site_label_2
_geom_bond_distance
_geom_bond_site_symmetry_2
_ccdc_geom_bond_type
H0 C5 0.930 . S
H1 C8 0.930 . S
H2 C10 0.930 . S
H3 C4 1.016 . S
C4 H3 1.016 . S
C4 N11 1.286 . S
C5 H0 0.930 . S
C5 C6 1.397 . S
C5 C7 1.361 . S
C6 C5 1.397 . S
C6 C10 1.390 . S
C7 C5 1.361 . S
C7 C8 1.393 . S
C7 N11 1.413 . S
C8 H1 0.930 . S
C8 C7 1.393 . S
C8 C9 1.399 . S
C9 C8 1.399 . S
C9 C10 1.381 . S
C10 H2 0.930 . S
C10 C6 1.390 . S
C10 C9 1.381 . S
N11 C4 1.286 . S
N11 C7 1.413 . S
H12 C17 0.930 . S
H13 C20 0.930 . S
H14 C22 0.930 . S
H15 C16 1.016 . S
C16 H15 1.016 . S
C16 N23 1.286 1_655 S
C17 H12 0.930 . S
C17 C18 1.397 . S
C17 C19 1.361 . S
C18 C17 1.397 . S
C18 C22 1.390 1_455 S
C19 C17 1.361 . S
C19 C20 1.393 . S
C19 N23 1.413 . S
C20 H13 0.930 . S
C20 C19 1.393 . S
C20 C21 1.403 . S
C21 C20 1.403 . S
C21 C22 1.379 1_455 S
C22 H14 0.930 . S
C22 C18 1.390 1_655 S
C22 C21 1.379 1_655 S
N23 C16 1.286 1_455 S
N23 C19 1.413 . S
H24 C29 0.930 . S
H25 C32 0.930 . S
H26 C34 0.930 . S
H27 C28 1.016 . S
C28 H27 1.016 . S
C28 N35 1.286 1_565 S
C29 H24 0.930 . S
C29 C30 1.397 . S
C29 C31 1.361 . S
C30 C29 1.397 . S
C30 C34 1.390 1_545 S
C31 C29 1.361 . S
C31 C32 1.393 . S
C31 N35 1.413 . S
C32 H25 0.930 . S
C32 C31 1.393 . S
C32 C33 1.403 . S
C33 C32 1.403 . S
C33 C34 1.379 1_545 S
C34 H26 0.930 . S
C34 C30 1.390 1_565 S
C34 C33 1.379 1_565 S
N35 C28 1.286 1_545 S
N35 C31 1.413 . S
H36 C41 0.930 . S
H37 C44 0.930 . S
H38 C46 0.930 . S
H39 C40 1.016 . S
C40 H39 1.016 . S
C40 N47 1.286 . S
C41 H36 0.930 . S
C41 C42 1.397 . S
C41 C43 1.361 . S
C42 C41 1.397 . S
C42 C46 1.390 . S
C43 C41 1.361 . S
C43 C44 1.393 . S
C43 N47 1.413 . S
C44 H37 0.930 . S
C44 C43 1.393 . S
C44 C45 1.399 . S
C45 C44 1.399 . S
C45 C46 1.381 . S
C46 H38 0.930 . S
C46 C42 1.390 . S
C46 C45 1.381 . S
N47 C40 1.286 . S
N47 C43 1.413 . S
H48 C53 0.930 . S
H49 C56 0.930 . S
H50 C58 0.930 1_556 S
H51 C52 1.016 . S
C52 H51 1.016 . S
C52 N59 1.286 . S
C53 H48 0.930 . S
C53 C54 1.397 . S
C53 C55 1.361 1_556 S
C54 C53 1.397 . S
C54 C58 1.390 1_556 S
C55 C53 1.361 1_554 S
C55 C56 1.393 . S
C55 N59 1.413 . S
C56 H49 0.930 . S
C56 C55 1.393 . S
C56 C57 1.399 . S
C57 C56 1.399 . S
C57 C58 1.381 . S
C58 H50 0.930 1_554 S
C58 C54 1.390 1_554 S
C58 C57 1.381 . S
N59 C52 1.286 . S
N59 C55 1.413 . S
H60 C65 0.930 . S
H61 C68 0.930 . S
H62 C70 0.930 . S
H63 C64 1.026 . S
C64 H63 1.026 . S
C64 N71 1.272 1_655 S
C65 H60 0.930 . S
C65 C66 1.397 . S
C65 C67 1.361 1_556 S
C66 C65 1.397 . S
C66 C70 1.390 1_456 S
C67 C65 1.361 1_554 S
C67 C68 1.393 . S
C67 N71 1.413 . S
C68 H61 0.930 . S
C68 C67 1.393 . S
C68 C69 1.404 . S
C69 C68 1.404 . S
C69 C70 1.378 1_455 S
C70 H62 0.930 . S
C70 C66 1.390 1_654 S
C70 C69 1.378 1_655 S
N71 C64 1.272 1_455 S
N71 C67 1.413 . S
H72 C77 0.930 . S
H73 C80 0.930 . S
H74 C82 0.930 . S
H75 C76 1.026 . S
C76 H75 1.026 . S
C76 N83 1.272 1_565 S
C77 H72 0.930 . S
C77 C78 1.397 . S
C77 C79 1.361 1_556 S
C78 C77 1.397 . S
C78 C82 1.390 1_546 S
C79 C77 1.361 1_554 S
C79 C80 1.393 . S
C79 N83 1.413 . S
C80 H73 0.930 . S
C80 C79 1.393 . S
C80 C81 1.404 . S
C81 C80 1.404 . S
C81 C82 1.378 1_545 S
C82 H74 0.930 . S
C82 C78 1.390 1_564 S
C82 C81 1.378 1_565 S
N83 C76 1.272 1_545 S
N83 C79 1.413 . S
H84 C89 0.930 . S
H85 C92 0.930 . S
H86 C94 0.930 1_556 S
H87 C88 1.016 . S
C88 H87 1.016 . S
C88 N95 1.286 . S
C89 H84 0.930 . S
C89 C90 1.397 . S
C89 C91 1.361 1_556 S
C90 C89 1.397 . S
C90 C94 1.390 1_556 S
C91 C89 1.361 1_554 S
C91 C92 1.393 . S
C91 N95 1.413 . S
C92 H85 0.930 . S
C92 C91 1.393 . S
C92 C93 1.399 . S
C93 C92 1.399 . S
C93 C94 1.381 . S
C94 H86 0.930 1_554 S
C94 C90 1.390 1_554 S
C94 C93 1.381 . S
N95 C88 1.286 . S
N95 C91 1.413 . S
Pr96 C98 2.880 1_556 S
Pr96 O116 2.562 1_556 S
Pr96 O117 2.490 1_556 S
Pr96 O118 2.695 1_565 S
Pr96 O119 2.512 . S
Pr96 O121 2.437 . S
Pr96 O124 2.436 1_455 S
Pr96 O126 2.438 1_565 S
Pr97 C107 2.880 . S
Pr97 O118 2.436 1_655 S
Pr97 O120 2.438 1_545 S
Pr97 O122 2.562 . S
Pr97 O123 2.490 . S
Pr97 O124 2.695 1_545 S
Pr97 O125 2.512 . S
Pr97 O127 2.437 . S
C98 Pr96 2.880 1_554 S
C98 C99 1.491 . S
C98 O116 1.254 . S
C98 O117 1.225 . S
C99 C98 1.491 . S
C99 C100 1.392 . S
C99 C104 1.356 . S
C100 C99 1.392 . S
C100 C101 1.368 . S
C100 H128 0.929 . S
C101 C100 1.368 . S
C101 C102 1.386 . S
C101 H129 0.929 . S
C102 C101 1.386 . S
C102 C103 1.373 . S
C103 C102 1.373 . S
C103 C104 1.409 . S
C103 H130 0.931 . S
C104 C99 1.356 . S
C104 C103 1.409 . S
C104 H131 0.930 1_455 S
C105 O118 1.270 1_565 S
C105 O119 1.248 . S
C106 O120 1.267 . S
C106 O121 1.278 1_655 S
C107 Pr97 2.880 . S
C107 C108 1.491 . S
C107 O122 1.254 . S
C107 O123 1.225 . S
C108 C107 1.491 . S
C108 C109 1.392 . S
C108 C113 1.356 . S
C109 C108 1.392 . S
C109 C110 1.368 . S
C109 H132 0.929 . S
C110 C109 1.368 . S
C110 C111 1.386 . S
C110 H133 0.929 . S
C111 C110 1.386 . S
C111 C112 1.373 . S
C112 C111 1.373 . S
C112 C113 1.409 . S
C112 H134 0.931 . S
C113 C108 1.356 . S
C113 C112 1.409 . S
C113 H135 0.930 1_655 S
C114 O124 1.270 1_545 S
C114 O125 1.248 . S
C115 O126 1.267 . S
C115 O127 1.278 1_455 S
O116 Pr96 2.562 1_554 S
O116 C98 1.254 . S
O117 Pr96 2.490 1_554 S
O117 C98 1.225 . S
O118 Pr96 2.695 1_545 S
O118 Pr97 2.436 1_455 S
O118 C105 1.270 1_545 S
O119 Pr96 2.512 . S
O119 C105 1.248 . S
O120 Pr97 2.438 1_565 S
O120 C106 1.267 . S
O121 Pr96 2.437 . S
O121 C106 1.278 1_455 S
O122 Pr97 2.562 . S
O122 C107 1.254 . S
O123 Pr97 2.490 . S
O123 C107 1.225 . S
O124 Pr96 2.436 1_655 S
O124 Pr97 2.695 1_565 S
O124 C114 1.270 1_565 S
O125 Pr97 2.512 . S
O125 C114 1.248 . S
O126 Pr96 2.438 1_545 S
O126 C115 1.267 . S
O127 Pr97 2.437 . S
O127 C115 1.278 1_655 S
H128 C100 0.929 . S
H129 C101 0.929 . S
H130 C103 0.931 . S
H131 C104 0.930 1_655 S
H132 C109 0.929 . S
H133 C110 0.929 . S
H134 C112 0.931 . S
H135 C113 0.930 1_455 S
Pr136 C138 2.880 1_556 S
Pr136 O156 2.562 1_556 S
Pr136 O157 2.490 1_556 S
Pr136 O158 2.695 . S
Pr136 O159 2.512 . S
Pr136 O161 2.437 . S
Pr136 O164 2.436 1_545 S
Pr136 O166 2.438 . S
Pr137 C147 2.880 . S
Pr137 O158 2.436 1_565 S
Pr137 O160 2.438 . S
Pr137 O162 2.562 . S
Pr137 O163 2.490 . S
Pr137 O164 2.695 . S
Pr137 O165 2.512 . S
Pr137 O167 2.437 . S
C138 Pr136 2.880 1_554 S
C138 C139 1.491 . S
C138 O156 1.254 . S
C138 O157 1.225 . S
C139 C138 1.491 . S
C139 C140 1.392 . S
C139 C144 1.356 . S
C140 C139 1.392 . S
C140 C141 1.368 . S
C140 H168 0.929 . S
C141 C140 1.368 . S
C141 C142 1.386 . S
C141 H169 0.929 . S
C142 C141 1.386 . S
C142 C143 1.373 . S
C143 C142 1.373 . S
C143 C144 1.409 . S
C143 H170 0.925 1_545 S
C144 C139 1.356 . S
C144 C143 1.409 . S
C144 H171 0.930 1_545 S
C145 O158 1.270 . S
C145 O159 1.248 . S
C146 O160 1.267 . S
C146 O161 1.278 1_565 S
C147 Pr137 2.880 . S
C147 C148 1.491 . S
C147 O162 1.254 . S
C147 O163 1.225 . S
C148 C147 1.491 . S
C148 C149 1.392 . S
C148 C153 1.356 . S
C149 C148 1.392 . S
C149 C150 1.368 . S
C149 H172 0.929 . S
C150 C149 1.368 . S
C150 C151 1.386 . S
C150 H173 0.929 . S
C151 C150 1.386 . S
C151 C152 1.373 . S
C152 C151 1.373 . S
C152 C153 1.409 . S
C152 H174 0.919 1_565 S
C153 C148 1.356 . S
C153 C152 1.409 . S
C153 H175 0.930 1_565 S
C154 O164 1.270 . S
C154 O165 1.248 . S
C155 O166 1.267 . S
C155 O167 1.278 1_545 S
O156 Pr136 2.562 1_554 S
O156 C138 1.254 . S
O157 Pr136 2.490 1_554 S
O157 C138 1.225 . S
O158 Pr136 2.695 . S
O158 Pr137 2.436 1_545 S
O158 C145 1.270 . S
O159 Pr136 2.512 . S
O159 C145 1.248 . S
O160 Pr137 2.438 . S
O160 C146 1.267 . S
O161 Pr136 2.437 . S
O161 C146 1.278 1_545 S
O162 Pr137 2.562 . S
O162 C147 1.254 . S
O163 Pr137 2.490 . S
O163 C147 1.225 . S
O164 Pr136 2.436 1_565 S
O164 Pr137 2.695 . S
O164 C154 1.270 . S
O165 Pr137 2.512 . S
O165 C154 1.248 . S
O166 Pr136 2.438 . S
O166 C155 1.267 . S
O167 Pr137 2.437 . S
O167 C155 1.278 1_565 S
H168 C140 0.929 . S
H169 C141 0.929 . S
H170 C143 0.925 1_565 S
H171 C144 0.930 1_565 S
H172 C149 0.929 . S
H173 C150 0.929 . S
H174 C152 0.919 1_545 S
H175 C153 0.930 1_545 S
Pr176 C178 2.880 1_556 S
Pr176 O196 2.562 1_556 S
Pr176 O197 2.490 1_556 S
Pr176 O198 2.695 . S
Pr176 O199 2.512 . S
Pr176 O201 2.437 . S
Pr176 O204 2.436 . S
Pr176 O206 2.438 . S
Pr177 C187 2.880 . S
Pr177 O198 2.436 . S
Pr177 O200 2.438 . S
Pr177 O202 2.562 . S
Pr177 O203 2.490 . S
Pr177 O204 2.695 . S
Pr177 O205 2.512 . S
Pr177 O207 2.437 . S
C178 Pr176 2.880 1_554 S
C178 C179 1.491 . S
C178 O196 1.254 . S
C178 O197 1.225 . S
C179 C178 1.491 . S
C179 C180 1.392 . S
C179 C184 1.356 . S
C180 C179 1.392 . S
C180 C181 1.368 . S
C180 H208 0.929 . S
C181 C180 1.368 . S
C181 C182 1.386 . S
C181 H209 0.929 . S
C182 C181 1.386 . S
C182 C183 1.373 . S
C183 C182 1.373 . S
C183 C184 1.409 . S
C183 H210 0.931 . S
C184 C179 1.356 . S
C184 C183 1.409 . S
C184 H211 0.930 . S
C185 O198 1.270 . S
C185 O199 1.248 . S
C186 O200 1.267 . S
C186 O201 1.278 . S
C187 Pr177 2.880 . S
C187 C188 1.491 . S
C187 O202 1.254 . S
C187 O203 1.225 . S
C188 C187 1.491 . S
C188 C189 1.392 . S
C188 C193 1.356 . S
C189 C188 1.392 . S
C189 C190 1.368 . S
C189 H212 0.929 . S
C190 C189 1.368 . S
C190 C191 1.386 . S
C190 H213 0.929 . S
C191 C190 1.386 . S
C191 C192 1.373 . S
C192 C191 1.373 . S
C192 C193 1.409 . S
C192 H214 0.931 . S
C193 C188 1.356 . S
C193 C192 1.409 . S
C193 H215 0.930 . S
C194 O204 1.270 . S
C194 O205 1.248 . S
C195 O206 1.267 . S
C195 O207 1.278 . S
O196 Pr176 2.562 1_554 S
O196 C178 1.254 . S
O197 Pr176 2.490 1_554 S
O197 C178 1.225 . S
O198 Pr176 2.695 . S
O198 Pr177 2.436 . S
O198 C185 1.270 . S
O199 Pr176 2.512 . S
O199 C185 1.248 . S
O200 Pr177 2.438 . S
O200 C186 1.267 . S
O201 Pr176 2.437 . S
O201 C186 1.278 . S
O202 Pr177 2.562 . S
O202 C187 1.254 . S
O203 Pr177 2.490 . S
O203 C187 1.225 . S
O204 Pr176 2.436 . S
O204 Pr177 2.695 . S
O204 C194 1.270 . S
O205 Pr177 2.512 . S
O205 C194 1.248 . S
O206 Pr176 2.438 . S
O206 C195 1.267 . S
O207 Pr177 2.437 . S
O207 C195 1.278 . S
H208 C180 0.929 . S
H209 C181 0.929 . S
H210 C183 0.931 . S
H211 C184 0.930 . S
H212 C189 0.929 . S
H213 C190 0.929 . S
H214 C192 0.931 . S
H215 C193 0.930 . S
Pr216 C218 2.880 1_556 S
Pr216 O236 2.562 1_556 S
Pr216 O237 2.490 1_556 S
Pr216 O238 2.695 1_655 S
Pr216 O239 2.512 . S
Pr216 O241 2.437 . S
Pr216 O244 2.436 . S
Pr216 O246 2.438 1_655 S
Pr217 C227 2.880 . S
Pr217 O238 2.436 . S
Pr217 O240 2.438 1_455 S
Pr217 O242 2.562 . S
Pr217 O243 2.490 . S
Pr217 O244 2.695 1_455 S
Pr217 O245 2.512 . S
Pr217 O247 2.437 . S
C218 Pr216 2.880 1_554 S
C218 C219 1.491 . S
C218 O236 1.254 . S
C218 O237 1.225 . S
C219 C218 1.491 . S
C219 C220 1.392 . S
C219 C224 1.356 . S
C220 C219 1.392 . S
C220 C221 1.368 . S
C220 H248 0.929 . S
C221 C220 1.368 . S
C221 C222 1.386 . S
C221 H249 0.929 . S
C222 C221 1.386 . S
C222 C223 1.373 . S
C223 C222 1.373 . S
C223 C224 1.409 . S
C223 H250 0.931 . S
C224 C219 1.356 . S
C224 C223 1.409 . S
C224 H251 0.930 . S
C225 O238 1.264 1_655 S
C225 O239 1.258 . S
C226 O240 1.267 . S
C226 O241 1.278 . S
C227 Pr217 2.880 . S
C227 C228 1.491 . S
C227 O242 1.254 . S
C227 O243 1.225 . S
C228 C227 1.491 . S
C228 C229 1.392 . S
C228 C233 1.356 . S
C229 C228 1.392 . S
C229 C230 1.368 . S
C229 H252 0.929 . S
C230 C229 1.368 . S
C230 C231 1.386 . S
C230 H253 0.929 . S
C231 C230 1.386 . S
C231 C232 1.373 . S
C232 C231 1.373 . S
C232 C233 1.409 . S
C232 H254 0.931 . S
C233 C228 1.356 . S
C233 C232 1.409 . S
C233 H255 0.930 . S
C234 O244 1.262 1_455 S
C234 O245 1.262 . S
C235 O246 1.267 . S
C235 O247 1.278 . S
O236 Pr216 2.562 1_554 S
O236 C218 1.254 . S
O237 Pr216 2.490 1_554 S
O237 C218 1.225 . S
O238 Pr216 2.695 1_455 S
O238 Pr217 2.436 . S
O238 C225 1.264 1_455 S
O239 Pr216 2.512 . S
O239 C225 1.258 . S
O240 Pr217 2.438 1_655 S
O240 C226 1.267 . S
O241 Pr216 2.437 . S
O241 C226 1.278 . S
O242 Pr217 2.562 . S
O242 C227 1.254 . S
O243 Pr217 2.490 . S
O243 C227 1.225 . S
O244 Pr216 2.436 . S
O244 Pr217 2.695 1_655 S
O244 C234 1.262 1_655 S
O245 Pr217 2.512 . S
O245 C234 1.262 . S
O246 Pr216 2.438 1_455 S
O246 C235 1.267 . S
O247 Pr217 2.437 . S
O247 C235 1.278 . S
H248 C220 0.929 . S
H249 C221 0.929 . S
H250 C223 0.931 . S
H251 C224 0.930 . S
H252 C229 0.929 . S
H253 C230 0.929 . S
H254 C232 0.931 . S
H255 C233 0.930 . S
C256 C257 1.367 . S
C256 C262 1.379 . S
C256 N264 1.356 . S
C257 C256 1.367 . S
C257 C263 1.359 1_545 S
C258 C259 1.351 1_565 S
C258 C263 1.379 . S
C258 N265 1.356 . S
C259 C258 1.351 1_545 S
C259 C262 1.374 . S
N260 C262 1.356 . S
N260 H272 0.984 . S
N260 H273 0.985 . S
N261 C263 1.356 . S
N261 H266 0.984 . S
N261 H267 0.985 . S
C262 C256 1.379 . S
C262 C259 1.374 . S
C262 N260 1.356 . S
C263 C257 1.359 1_565 S
C263 C258 1.379 . S
C263 N261 1.356 . S
N264 C256 1.356 . S
N264 H270 0.984 . S
N264 H271 0.984 . S
N265 C258 1.356 . S
N265 H268 0.984 . S
N265 H269 0.985 . S
H266 N261 0.984 . S
H267 N261 0.985 . S
H268 N265 0.984 . S
H269 N265 0.985 . S
H270 N264 0.984 . S
H271 N264 0.984 . S
H272 N260 0.984 . S
H273 N260 0.985 . S
C274 C275 1.363 . S
C274 C280 1.379 . S
C274 N282 1.356 . S
C275 C274 1.363 . S
C275 C281 1.363 . S
C276 C277 1.363 . S
C276 C281 1.379 . S
C276 N283 1.356 . S
C277 C276 1.363 . S
C277 C280 1.363 . S
N278 C280 1.356 . S
N278 H290 0.984 . S
N278 H291 0.985 . S
N279 C281 1.356 . S
N279 H284 0.984 . S
N279 H285 0.985 . S
C280 C274 1.379 . S
C280 C277 1.363 . S
C280 N278 1.356 . S
C281 C275 1.363 . S
C281 C276 1.379 . S
C281 N279 1.356 . S
N282 C274 1.356 . S
N282 H288 0.984 . S
N282 H289 0.984 . S
N283 C276 1.356 . S
N283 H286 0.984 . S
N283 H287 0.985 . S
H284 N279 0.984 . S
H285 N279 0.985 . S
H286 N283 0.984 . S
H287 N283 0.985 . S
H288 N282 0.984 . S
H289 N282 0.984 . S
H290 N278 0.984 . S
H291 N278 0.985 . S
C292 C293 1.363 . S
C292 C298 1.379 . S
C292 N300 1.356 . S
C293 C292 1.363 . S
C293 C299 1.363 . S
C294 C295 1.363 . S
C294 C299 1.379 . S
C294 N301 1.356 . S
C295 C294 1.363 . S
C295 C298 1.363 . S
N296 C298 1.356 . S
N296 H308 0.984 . S
N296 H309 0.985 . S
N297 C299 1.356 . S
N297 H302 0.984 . S
N297 H303 0.985 . S
C298 C292 1.379 . S
C298 C295 1.363 . S
C298 N296 1.356 . S
C299 C293 1.363 . S
C299 C294 1.379 . S
C299 N297 1.356 . S
N300 C292 1.356 . S
N300 H306 0.984 . S
N300 H307 0.984 . S
N301 C294 1.356 . S
N301 H304 0.984 . S
N301 H305 0.985 . S
H302 N297 0.984 . S
H303 N297 0.985 . S
H304 N301 0.984 . S
H305 N301 0.985 . S
H306 N300 0.984 . S
H307 N300 0.984 . S
H308 N296 0.984 . S
H309 N296 0.985 . S
C310 C311 1.381 . S
C310 C316 1.379 . S
C310 N318 1.356 . S
C311 C310 1.381 . S
C311 C317 1.346 1_455 S
C312 C313 1.363 1_655 S
C312 C317 1.379 . S
C312 N319 1.356 . S
C313 C312 1.363 1_455 S
C313 C316 1.363 . S
N314 C316 1.356 . S
N314 H326 0.984 . S
N314 H327 0.985 . S
N315 C317 1.356 . S
N315 H320 0.984 . S
N315 H321 0.985 . S
C316 C310 1.379 . S
C316 C313 1.363 . S
C316 N314 1.356 . S
C317 C311 1.346 1_655 S
C317 C312 1.379 . S
C317 N315 1.356 . S
N318 C310 1.356 . S
N318 H324 0.984 . S
N318 H325 0.984 . S
N319 C312 1.356 . S
N319 H322 0.984 . S
N319 H323 0.985 . S
H320 N315 0.984 . S
H321 N315 0.985 . S
H322 N319 0.984 . S
H323 N319 0.985 . S
H324 N318 0.984 . S
H325 N318 0.984 . S
H326 N314 0.984 . S
H327 N314 0.985 . S
C328 C329 1.364 1_545 S
C328 C334 1.379 . S
C328 N336 1.356 . S
C329 C328 1.364 1_565 S
C329 C335 1.362 . S
C330 C331 1.369 . S
C330 C335 1.379 . S
C330 N337 1.356 . S
C331 C330 1.369 . S
C331 C334 1.357 1_565 S
N332 C334 1.356 . S
N332 H344 0.984 . S
N332 H345 0.985 1_554 S
N333 C335 1.356 . S
N333 H338 0.984 . S
N333 H339 0.985 . S
C334 C328 1.379 . S
C334 C331 1.357 1_545 S
C334 N332 1.356 . S
C335 C329 1.362 . S
C335 C330 1.379 . S
C335 N333 1.356 . S
N336 C328 1.356 . S
N336 H342 0.984 . S
N336 H343 0.984 . S
N337 C330 1.356 . S
N337 H340 0.984 . S
N337 H341 0.985 . S
H338 N333 0.984 . S
H339 N333 0.985 . S
H340 N337 0.984 . S
H341 N337 0.985 . S
H342 N336 0.984 . S
H343 N336 0.984 . S
H344 N332 0.984 . S
H345 N332 0.985 1_556 S
C346 C347 1.363 . S
C346 C352 1.379 . S
C346 N354 1.356 . S
C347 C346 1.363 . S
C347 C353 1.363 . S
C348 C349 1.363 . S
C348 C353 1.379 . S
C348 N355 1.356 . S
C349 C348 1.363 . S
C349 C352 1.363 . S
N350 C352 1.356 . S
N350 H362 0.984 . S
N350 H363 0.985 1_554 S
N351 C353 1.356 . S
N351 H356 0.984 . S
N351 H357 0.985 . S
C352 C346 1.379 . S
C352 C349 1.363 . S
C352 N350 1.356 . S
C353 C347 1.363 . S
C353 C348 1.379 . S
C353 N351 1.356 . S
N354 C346 1.356 . S
N354 H360 0.984 . S
N354 H361 0.984 . S
N355 C348 1.356 . S
N355 H358 0.984 . S
N355 H359 0.985 . S
H356 N351 0.984 . S
H357 N351 0.985 . S
H358 N355 0.984 . S
H359 N355 0.985 . S
H360 N354 0.984 . S
H361 N354 0.984 . S
H362 N350 0.984 . S
H363 N350 0.985 1_556 S
C364 C365 1.363 . S
C364 C370 1.379 . S
C364 N372 1.356 . S
C365 C364 1.363 . S
C365 C371 1.363 . S
C366 C367 1.363 . S
C366 C371 1.379 . S
C366 N373 1.356 . S
C367 C366 1.363 . S
C367 C370 1.363 . S
N368 C370 1.356 . S
N368 H380 0.984 . S
N368 H381 0.985 . S
N369 C371 1.356 . S
N369 H374 0.984 . S
N369 H375 0.985 . S
C370 C364 1.379 . S
C370 C367 1.363 . S
C370 N368 1.356 . S
C371 C365 1.363 . S
C371 C366 1.379 . S
C371 N369 1.356 . S
N372 C364 1.356 . S
N372 H378 0.984 . S
N372 H379 0.984 . S
N373 C366 1.356 . S
N373 H376 0.984 1_554 S
N373 H377 0.985 . S
H374 N369 0.984 . S
H375 N369 0.985 . S
H376 N373 0.984 1_556 S
H377 N373 0.985 . S
H378 N372 0.984 . S
H379 N372 0.984 . S
H380 N368 0.984 . S
H381 N368 0.985 . S
C382 C383 1.354 1_455 S
C382 C388 1.379 . S
C382 N390 1.356 . S
C383 C382 1.354 1_655 S
C383 C389 1.373 . S
C384 C385 1.363 . S
C384 C389 1.379 . S
C384 N391 1.359 . S
C385 C384 1.363 . S
C385 C388 1.363 1_655 S
N386 C388 1.356 . S
N386 H398 0.984 . S
N386 H399 0.985 . S
N387 C389 1.356 . S
N387 H392 0.984 . S
N387 H393 0.985 . S
C388 C382 1.379 . S
C388 C385 1.363 1_455 S
C388 N386 1.356 . S
C389 C383 1.373 . S
C389 C384 1.379 . S
C389 N387 1.356 . S
N390 C382 1.356 . S
N390 H396 0.984 . S
N390 H397 0.984 . S
N391 C384 1.359 . S
N391 H394 0.982 1_554 S
N391 H395 0.984 1_554 S
H392 N387 0.984 . S
H393 N387 0.985 . S
H394 N391 0.982 1_556 S
H395 N391 0.984 1_556 S
H396 N390 0.984 . S
H397 N390 0.984 . S
H398 N386 0.984 . S
H399 N386 0.985 . S
C400 C401 1.363 1_455 S
C400 C406 1.379 1_455 S
C400 N408 1.356 . S
C401 C400 1.363 1_655 S
C401 C407 1.363 . S
C402 C403 1.363 . S
C402 C407 1.379 . S
C402 N409 1.356 . S
C403 C402 1.363 . S
C403 C406 1.363 . S
N404 C406 1.356 . S
N404 H416 0.984 . S
N404 H417 0.985 . S
N405 C407 1.356 . S
N405 H410 0.984 . S
N405 H411 0.985 1_554 S
C406 C400 1.379 1_655 S
C406 C403 1.363 . S
C406 N404 1.356 . S
C407 C401 1.363 . S
C407 C402 1.379 . S
C407 N405 1.356 . S
N408 C400 1.356 . S
N408 H414 0.984 . S
N408 H415 0.984 . S
N409 C402 1.356 . S
N409 H412 0.984 . S
N409 H413 0.985 . S
H410 N405 0.984 . S
H411 N405 0.985 1_556 S
H412 N409 0.984 . S
H413 N409 0.985 . S
H414 N408 0.984 . S
H415 N408 0.984 . S
H416 N404 0.984 . S
H417 N404 0.985 . S
C418 C419 1.363 1_545 S
C418 C424 1.379 1_545 S
C418 N426 1.356 . S
C419 C418 1.363 1_565 S
C419 C425 1.363 . S
C420 C421 1.363 . S
C420 C425 1.379 . S
C420 N427 1.356 . S
C421 C420 1.363 . S
C421 C424 1.363 . S
N422 C424 1.356 . S
N422 H434 0.984 . S
N422 H435 0.985 . S
N423 C425 1.356 . S
N423 H428 0.984 . S
N423 H429 0.985 1_554 S
C424 C418 1.379 1_565 S
C424 C421 1.363 . S
C424 N422 1.356 . S
C425 C419 1.363 . S
C425 C420 1.379 . S
C425 N423 1.356 . S
N426 C418 1.356 . S
N426 H432 0.984 . S
N426 H433 0.984 . S
N427 C420 1.356 . S
N427 H430 0.984 . S
N427 H431 0.985 . S
H428 N423 0.984 . S
H429 N423 0.985 1_556 S
H430 N427 0.984 . S
H431 N427 0.985 . S
H432 N426 0.984 . S
H433 N426 0.984 . S
H434 N422 0.984 . S
H435 N422 0.985 . S
C436 C437 1.363 . S
C436 C442 1.379 . S
C436 N444 1.356 . S
C437 C436 1.363 . S
C437 C443 1.363 . S
C438 C439 1.363 . S
C438 C443 1.379 . S
C438 N445 1.356 . S
C439 C438 1.363 . S
C439 C442 1.363 . S
N440 C442 1.356 . S
N440 H452 0.984 . S
N440 H453 0.985 . S
N441 C443 1.356 . S
N441 H446 0.984 1_554 S
N441 H447 0.985 1_554 S
C442 C436 1.379 . S
C442 C439 1.363 . S
C442 N440 1.356 . S
C443 C437 1.363 . S
C443 C438 1.379 . S
C443 N441 1.356 . S
N444 C436 1.356 . S
N444 H450 0.984 . S
N444 H451 0.984 . S
N445 C438 1.356 . S
N445 H448 0.984 . S
N445 H449 0.985 . S
H446 N441 0.984 1_556 S
H447 N441 0.985 1_556 S
H448 N445 0.984 . S
H449 N445 0.985 . S
H450 N444 0.984 . S
H451 N444 0.984 . S
H452 N440 0.984 . S
H453 N440 0.985 . S
C454 C455 1.363 . S
C454 C460 1.379 . S
C454 N462 1.356 . S
C455 C454 1.363 . S
C455 C461 1.363 . S
C456 C457 1.363 . S
C456 C461 1.379 . S
C456 N463 1.356 . S
C457 C456 1.363 . S
C457 C460 1.363 . S
N458 C460 1.356 . S
N458 H470 0.984 . S
N458 H471 0.985 . S
N459 C461 1.356 . S
N459 H464 0.984 1_554 S
N459 H465 0.985 1_554 S
C460 C454 1.379 . S
C460 C457 1.363 . S
C460 N458 1.356 . S
C461 C455 1.363 . S
C461 C456 1.379 . S
C461 N459 1.356 . S
N462 C454 1.356 . S
N462 H468 0.984 . S
N462 H469 0.984 . S
N463 C456 1.356 . S
N463 H466 0.984 . S
N463 H467 0.985 . S
H464 N459 0.984 1_556 S
H465 N459 0.985 1_556 S
H466 N463 0.984 . S
H467 N463 0.985 . S
H468 N462 0.984 . S
H469 N462 0.984 . S
H470 N458 0.984 . S
H471 N458 0.985 . S
C472 C473 1.363 1_655 S
C472 C478 1.379 1_655 S
C472 N480 1.356 . S
C473 C472 1.363 1_455 S
C473 C479 1.363 . S
C474 C475 1.363 . S
C474 C479 1.379 . S
C474 N481 1.356 . S
C475 C474 1.363 . S
C475 C478 1.363 . S
N476 C478 1.356 . S
N476 H488 0.984 . S
N476 H489 0.985 . S
N477 C479 1.356 . S
N477 H482 0.984 . S
N477 H483 0.985 . S
C478 C472 1.379 1_455 S
C478 C475 1.363 . S
C478 N476 1.356 . S
C479 C473 1.363 . S
C479 C474 1.379 . S
C479 N477 1.356 . S
N480 C472 1.356 . S
N480 H486 0.984 . S
N480 H487 0.984 . S
N481 C474 1.356 . S
N481 H484 0.984 . S
N481 H485 0.985 . S
H482 N477 0.984 . S
H483 N477 0.985 . S
H484 N481 0.984 . S
H485 N481 0.985 . S
H486 N480 0.984 . S
H487 N480 0.984 . S
H488 N476 0.984 . S
H489 N476 0.985 . S
C490 C491 1.363 . S
C490 C496 1.379 . S
C490 N498 1.356 . S
C491 C490 1.363 . S
C491 C497 1.363 1_545 S
C492 C493 1.363 . S
C492 C497 1.379 1_545 S
C492 N499 1.356 . S
C493 C492 1.363 . S
C493 C496 1.363 . S
N494 C496 1.356 . S
N494 H506 0.984 . S
N494 H507 0.985 . S
N495 C497 1.356 . S
N495 H500 0.984 . S
N495 H501 0.985 . S
C496 C490 1.379 . S
C496 C493 1.363 . S
C496 N494 1.356 . S
C497 C491 1.363 1_565 S
C497 C492 1.379 1_565 S
C497 N495 1.356 . S
N498 C490 1.356 . S
N498 H504 0.984 . S
N498 H505 0.984 . S
N499 C492 1.356 . S
N499 H502 0.984 . S
N499 H503 0.985 . S
H500 N495 0.984 . S
H501 N495 0.985 . S
H502 N499 0.984 . S
H503 N499 0.985 . S
H504 N498 0.984 . S
H505 N498 0.984 . S
H506 N494 0.984 . S
H507 N494 0.985 . S
C508 C509 1.363 . S
C508 C514 1.379 . S
C508 N516 1.356 . S
C509 C508 1.363 . S
C509 C515 1.363 . S
C510 C511 1.363 . S
C510 C515 1.379 . S
C510 N517 1.356 . S
C511 C510 1.363 . S
C511 C514 1.363 . S
N512 C514 1.356 . S
N512 H524 0.984 . S
N512 H525 0.985 . S
N513 C515 1.356 . S
N513 H518 0.984 . S
N513 H519 0.985 . S
C514 C508 1.379 . S
C514 C511 1.363 . S
C514 N512 1.356 . S
C515 C509 1.363 . S
C515 C510 1.379 . S
C515 N513 1.356 . S
N516 C508 1.356 . S
N516 H522 0.984 . S
N516 H523 0.984 . S
N517 C510 1.356 . S
N517 H520 0.984 . S
N517 H521 0.985 . S
H518 N513 0.984 . S
H519 N513 0.985 . S
H520 N517 0.984 . S
H521 N517 0.985 . S
H522 N516 0.984 . S
H523 N516 0.984 . S
H524 N512 0.984 . S
H525 N512 0.985 . S
C526 C527 1.363 . S
C526 C532 1.379 . S
C526 N534 1.356 . S
C527 C526 1.363 . S
C527 C533 1.363 . S
C528 C529 1.363 . S
C528 C533 1.379 . S
C528 N535 1.356 . S
C529 C528 1.363 . S
C529 C532 1.363 . S
N530 C532 1.356 . S
N530 H542 0.984 . S
N530 H543 0.985 . S
N531 C533 1.356 . S
N531 H536 0.984 . S
N531 H537 0.985 . S
C532 C526 1.379 . S
C532 C529 1.363 . S
C532 N530 1.356 . S
C533 C527 1.363 . S
C533 C528 1.379 . S
C533 N531 1.356 . S
N534 C526 1.356 . S
N534 H540 0.984 . S
N534 H541 0.984 . S
N535 C528 1.356 . S
N535 H538 0.984 . S
N535 H539 0.985 . S
H536 N531 0.984 . S
H537 N531 0.985 . S
H538 N535 0.984 . S
H539 N535 0.985 . S
H540 N534 0.984 . S
H541 N534 0.984 . S
H542 N530 0.984 . S
H543 N530 0.985 . S
C544 C545 1.363 1_655 S
C544 C550 1.379 . S
C544 N552 1.356 . S
C545 C544 1.363 1_455 S
C545 C551 1.363 . S
C546 C547 1.363 . S
C546 C551 1.379 . S
C546 N553 1.356 1_556 S
C547 C546 1.363 . S
C547 C550 1.363 1_455 S
N548 C550 1.356 . S
N548 H560 0.984 . S
N548 H561 0.985 . S
N549 C551 1.356 1_554 S
N549 H554 0.984 1_554 S
N549 H555 0.985 . S
C550 C544 1.379 . S
C550 C547 1.363 1_655 S
C550 N548 1.356 . S
C551 C545 1.363 . S
C551 C546 1.379 . S
C551 N549 1.356 1_556 S
N552 C544 1.356 . S
N552 H558 0.984 . S
N552 H559 0.984 . S
N553 C546 1.356 1_554 S
N553 H556 0.984 . S
N553 H557 0.985 . S
H554 N549 0.984 1_556 S
H555 N549 0.985 . S
H556 N553 0.984 . S
H557 N553 0.985 . S
H558 N552 0.984 . S
H559 N552 0.984 . S
H560 N548 0.984 . S
H561 N548 0.985 . S
C562 C563 1.363 . S
C562 C568 1.379 . S
C562 N570 1.356 . S
C563 C562 1.363 . S
C563 C569 1.363 . S
C564 C565 1.363 . S
C564 C569 1.379 . S
C564 N571 1.356 1_556 S
C565 C564 1.363 . S
C565 C568 1.363 . S
N566 C568 1.356 . S
N566 H578 0.984 . S
N566 H579 0.985 . S
N567 C569 1.356 1_554 S
N567 H572 0.984 . S
N567 H573 0.985 . S
C568 C562 1.379 . S
C568 C565 1.363 . S
C568 N566 1.356 . S
C569 C563 1.363 . S
C569 C564 1.379 . S
C569 N567 1.356 1_556 S
N570 C562 1.356 . S
N570 H576 0.984 1_545 S
N570 H577 0.985 1_545 S
N571 C564 1.356 1_554 S
N571 H574 0.984 . S
N571 H575 0.985 . S
H572 N567 0.984 . S
H573 N567 0.985 . S
H574 N571 0.984 . S
H575 N571 0.985 . S
H576 N570 0.984 1_565 S
H577 N570 0.985 1_565 S
H578 N566 0.984 . S
H579 N566 0.985 . S
C580 C581 1.363 . S
C580 C586 1.379 . S
C580 N588 1.356 . S
C581 C580 1.363 . S
C581 C587 1.363 . S
C582 C583 1.363 . S
C582 C587 1.379 . S
C582 N589 1.356 1_556 S
C583 C582 1.363 . S
C583 C586 1.363 . S
N584 C586 1.356 . S
N584 H596 0.984 . S
N584 H597 0.985 . S
N585 C587 1.356 1_554 S
N585 H590 0.984 1_554 S
N585 H591 0.985 . S
C586 C580 1.379 . S
C586 C583 1.363 . S
C586 N584 1.356 . S
C587 C581 1.363 . S
C587 C582 1.379 . S
C587 N585 1.356 1_556 S
N588 C580 1.356 . S
N588 H594 0.984 . S
N588 H595 0.984 . S
N589 C582 1.356 1_554 S
N589 H592 0.984 . S
N589 H593 0.985 . S
H590 N585 0.984 1_556 S
H591 N585 0.985 . S
H592 N589 0.984 . S
H593 N589 0.985 . S
H594 N588 0.984 . S
H595 N588 0.984 . S
H596 N584 0.984 . S
H597 N584 0.985 . S
C598 C599 1.363 . S
C598 C604 1.379 . S
C598 N606 1.356 1_556 S
C599 C598 1.363 . S
C599 C605 1.363 . S
C600 C601 1.363 . S
C600 C605 1.379 . S
C600 N607 1.356 . S
C601 C600 1.363 . S
C601 C604 1.363 . S
N602 C604 1.356 1_554 S
N602 H614 0.984 . S
N602 H615 0.985 . S
N603 C605 1.356 . S
N603 H608 0.984 . S
N603 H609 0.985 . S
C604 C598 1.379 . S
C604 C601 1.363 . S
C604 N602 1.356 1_556 S
C605 C599 1.363 . S
C605 C600 1.379 . S
C605 N603 1.356 . S
N606 C598 1.356 1_554 S
N606 H612 0.984 . S
N606 H613 0.984 1_554 S
N607 C600 1.356 . S
N607 H610 0.984 . S
N607 H611 0.985 . S
H608 N603 0.984 . S
H609 N603 0.985 . S
H610 N607 0.984 . S
H611 N607 0.985 . S
H612 N606 0.984 . S
H613 N606 0.984 1_556 S
H614 N602 0.984 . S
H615 N602 0.985 . S
C616 C617 1.363 . S
C616 C622 1.379 . S
C616 N624 1.356 . S
C617 C616 1.363 . S
C617 C623 1.363 1_655 S
C618 C619 1.363 1_455 S
C618 C623 1.379 . S
C618 N625 1.356 . S
C619 C618 1.363 1_655 S
C619 C622 1.363 . S
N620 C622 1.356 . S
N620 H632 0.984 . S
N620 H633 0.985 . S
N621 C623 1.356 . S
N621 H626 0.984 . S
N621 H627 0.985 . S
C622 C616 1.379 . S
C622 C619 1.363 . S
C622 N620 1.356 . S
C623 C617 1.363 1_455 S
C623 C618 1.379 . S
C623 N621 1.356 . S
N624 C616 1.356 . S
N624 H630 0.984 1_556 S
N624 H631 0.984 . S
N625 C618 1.356 . S
N625 H628 0.984 . S
N625 H629 0.985 . S
H626 N621 0.984 . S
H627 N621 0.985 . S
H628 N625 0.984 . S
H629 N625 0.985 . S
H630 N624 0.984 1_554 S
H631 N624 0.984 . S
H632 N620 0.984 . S
H633 N620 0.985 . S
C634 C635 1.363 . S
C634 C640 1.379 . S
C634 N642 1.356 . S
C635 C634 1.363 . S
C635 C641 1.363 1_565 S
C636 C637 1.363 1_545 S
C636 C641 1.379 . S
C636 N643 1.356 . S
C637 C636 1.363 1_565 S
C637 C640 1.363 . S
N638 C640 1.356 . S
N638 H650 0.984 . S
N638 H651 0.985 . S
N639 C641 1.356 . S
N639 H644 0.984 . S
N639 H645 0.985 . S
C640 C634 1.379 . S
C640 C637 1.363 . S
C640 N638 1.356 . S
C641 C635 1.363 1_545 S
C641 C636 1.379 . S
C641 N639 1.356 . S
N642 C634 1.356 . S
N642 H648 0.984 . S
N642 H649 0.984 . S
N643 C636 1.356 . S
N643 H646 0.984 . S
N643 H647 0.985 . S
H644 N639 0.984 . S
H645 N639 0.985 . S
H646 N643 0.984 . S
H647 N643 0.985 . S
H648 N642 0.984 . S
H649 N642 0.984 . S
H650 N638 0.984 . S
H651 N638 0.985 . S
C652 C653 1.363 . S
C652 C658 1.379 . S
C652 N660 1.356 . S
C653 C652 1.363 . S
C653 C659 1.363 . S
C654 C655 1.363 . S
C654 C659 1.379 . S
C654 N661 1.356 . S
C655 C654 1.363 . S
C655 C658 1.363 . S
N656 C658 1.356 . S
N656 H668 0.984 . S
N656 H669 0.985 . S
N657 C659 1.356 . S
N657 H662 0.984 . S
N657 H663 0.985 . S
C658 C652 1.379 . S
C658 C655 1.363 . S
C658 N656 1.356 . S
C659 C653 1.363 . S
C659 C654 1.379 . S
C659 N657 1.356 . S
N660 C652 1.356 . S
N660 H666 0.984 1_556 S
N660 H667 0.984 . S
N661 C654 1.356 . S
N661 H664 0.984 . S
N661 H665 0.985 . S
H662 N657 0.984 . S
H663 N657 0.985 . S
H664 N661 0.984 . S
H665 N661 0.985 . S
H666 N660 0.984 1_554 S
H667 N660 0.984 . S
H668 N656 0.984 . S
H669 N656 0.985 . S
C670 C671 1.363 . S
C670 C676 1.379 . S
C670 N678 1.356 . S
C671 C670 1.363 . S
C671 C677 1.363 . S
C672 C673 1.363 . S
C672 C677 1.379 . S
C672 N679 1.356 . S
C673 C672 1.363 . S
C673 C676 1.363 . S
N674 C676 1.356 . S
N674 H686 0.984 . S
N674 H687 0.985 . S
N675 C677 1.356 . S
N675 H680 0.984 . S
N675 H681 0.985 . S
C676 C670 1.379 . S
C676 C673 1.363 . S
C676 N674 1.356 . S
C677 C671 1.363 . S
C677 C672 1.379 . S
C677 N675 1.356 . S
N678 C670 1.356 . S
N678 H684 0.984 . S
N678 H685 0.984 . S
N679 C672 1.356 . S
N679 H682 0.984 . S
N679 H683 0.985 . S
H680 N675 0.984 . S
H681 N675 0.985 . S
H682 N679 0.984 . S
H683 N679 0.985 . S
H684 N678 0.984 . S
H685 N678 0.984 . S
H686 N674 0.984 . S
H687 N674 0.985 . S
C257 C76 1.923 1_545 S
C259 C105 2.206 1_545 S
C277 C145 2.227 . S
C275 C88 1.945 . S
C295 C185 2.238 . S
C293 C52 1.962 . S
C313 C225 2.219 1_455 S
C311 C64 1.938 1_455 S
C331 C114 2.209 1_564 S
C329 C28 1.927 . S
C347 C40 1.942 . S
C349 C154 2.228 1_554 S
C365 C4 1.955 . S
C367 C194 2.237 1_554 S
C383 C16 1.939 . S
C385 C234 2.219 1_654 S
C403 C111 0.827 . S
C401 C69 0.834 1_655 S
C421 C151 0.825 . S
C419 C81 0.832 1_565 S
C439 C191 0.815 . S
C437 C93 0.824 . S
C455 C57 0.826 . S
C457 C231 0.813 . S
C473 C21 0.835 . S
C475 C102 0.830 . S
C493 C142 0.826 . S
C491 C33 0.831 . S
C511 C182 0.815 . S
C509 C45 0.820 . S
C527 C9 0.821 . S
C529 C222 0.818 . S
C545 C66 2.263 . S
C547 C115 2.588 . S
C563 C78 2.222 . S
C565 C155 2.550 . S
C583 C195 2.537 . S
C581 C90 2.207 . S
C601 C235 2.579 . S
C599 C54 2.245 . S
C617 C18 2.275 1_655 S
C619 C106 2.596 . S
C637 C146 2.550 . S
C635 C30 2.234 1_565 S
C655 C186 2.537 . S
C653 C42 2.226 . S
C671 C6 2.266 . S
C673 C226 2.581 . S
