# Generated by pormake.
# Topology zzz, (3,6)-cn, num edge types: 1
# Building blocks:
#     Node 0, Type 0, BuildingBlock: VETTIZ_charged_linker_0, # of connection points: 3
#     Node 1, Type 0, BuildingBlock: VETTIZ_charged_linker_0, # of connection points: 3
#     Node 2, Type 0, BuildingBlock: VETTIZ_charged_linker_0, # of connection points: 3
#     Node 3, Type 0, BuildingBlock: VETTIZ_charged_linker_0, # of connection points: 3
#     Node 4, Type 0, BuildingBlock: VETTIZ_charged_linker_0, # of connection points: 3
#     Node 5, Type 0, BuildingBlock: VETTIZ_charged_linker_0, # of connection points: 3
#     Node 6, Type 0, BuildingBlock: VETTIZ_charged_linker_0, # of connection points: 3
#     Node 7, Type 0, BuildingBlock: VETTIZ_charged_linker_0, # of connection points: 3
#     Node 8, Type 1, BuildingBlock: BETGAK_clean_sbu_0, # of connection points: 6
#     Node 9, Type 1, BuildingBlock: BETGAK_clean_sbu_0, # of connection points: 6
#     Node 10, Type 1, BuildingBlock: BETGAK_clean_sbu_0, # of connection points: 6
#     Node 11, Type 1, BuildingBlock: BETGAK_clean_sbu_0, # of connection points: 6
#     Edge 12, Type (0, 1), BuildingBlock: TEMPAE_clean_linker_10, # of connection points: 2
#     Edge 13, Type (0, 1), BuildingBlock: TEMPAE_clean_linker_10, # of connection points: 2
#     Edge 14, Type (0, 1), BuildingBlock: TEMPAE_clean_linker_10, # of connection points: 2
#     Edge 15, Type (0, 1), BuildingBlock: TEMPAE_clean_linker_10, # of connection points: 2
#     Edge 16, Type (0, 1), BuildingBlock: TEMPAE_clean_linker_10, # of connection points: 2
#     Edge 17, Type (0, 1), BuildingBlock: TEMPAE_clean_linker_10, # of connection points: 2
#     Edge 18, Type (0, 1), BuildingBlock: TEMPAE_clean_linker_10, # of connection points: 2
#     Edge 19, Type (0, 1), BuildingBlock: TEMPAE_clean_linker_10, # of connection points: 2
#     Edge 20, Type (0, 1), BuildingBlock: TEMPAE_clean_linker_10, # of connection points: 2
#     Edge 21, Type (0, 1), BuildingBlock: TEMPAE_clean_linker_10, # of connection points: 2
#     Edge 22, Type (0, 1), BuildingBlock: TEMPAE_clean_linker_10, # of connection points: 2
#     Edge 23, Type (0, 1), BuildingBlock: TEMPAE_clean_linker_10, # of connection points: 2
#     Edge 24, Type (0, 1), BuildingBlock: TEMPAE_clean_linker_10, # of connection points: 2
#     Edge 25, Type (0, 1), BuildingBlock: TEMPAE_clean_linker_10, # of connection points: 2
#     Edge 26, Type (0, 1), BuildingBlock: TEMPAE_clean_linker_10, # of connection points: 2
#     Edge 27, Type (0, 1), BuildingBlock: TEMPAE_clean_linker_10, # of connection points: 2
#     Edge 28, Type (0, 1), BuildingBlock: TEMPAE_clean_linker_10, # of connection points: 2
#     Edge 29, Type (0, 1), BuildingBlock: TEMPAE_clean_linker_10, # of connection points: 2
#     Edge 30, Type (0, 1), BuildingBlock: TEMPAE_clean_linker_10, # of connection points: 2
#     Edge 31, Type (0, 1), BuildingBlock: TEMPAE_clean_linker_10, # of connection points: 2
#     Edge 32, Type (0, 1), BuildingBlock: TEMPAE_clean_linker_10, # of connection points: 2
#     Edge 33, Type (0, 1), BuildingBlock: TEMPAE_clean_linker_10, # of connection points: 2
#     Edge 34, Type (0, 1), BuildingBlock: TEMPAE_clean_linker_10, # of connection points: 2
#     Edge 35, Type (0, 1), BuildingBlock: TEMPAE_clean_linker_10, # of connection points: 2
# Relax obj value: 0.459
# Max RMSD: 0.272
# Mean RMSD: 0.256
data_MOF--net-zzz--node1-BETGAK_clean_sbu_0--node2-VETTIZ_charged_linker_0--edge1-TEMPAE_clean_linker_10
_symmetry_space_group_name_H-M    P1
_symmetry_Int_Tables_number       1
_symmetry_cell_setting            triclinic
loop_
_symmetry_equiv_pos_as_xyz
'x, y, z'
_cell_length_a     59.547211
_cell_length_b     59.557307
_cell_length_c     18.528388
_cell_angle_alpha  89.968303
_cell_angle_beta   89.915677
_cell_angle_gamma 90.003472
loop_
_atom_site_label
_atom_site_type_symbol
_atom_site_fract_x
_atom_site_fract_y
_atom_site_fract_z
_atom_type_partial_charge
C0 C 0.77824 0.50494 0.49693 0.0
C1 C 0.7972 0.51833 0.51955 0.0
C2 C 0.7976 0.54116 0.49886 0.0
C3 C 0.76633 0.53517 0.41988 0.0
C4 C 0.76188 0.51462 0.44907 0.0
C5 C 0.73989 0.50579 0.41409 0.0
H6 H 0.67316 0.51775 0.10488 0.0
C7 C 0.75379 0.53793 0.35368 0.0
C8 C 0.73506 0.52356 0.35422 0.0
H9 H 0.64221 0.50387 0.31031 0.0
H10 H 0.67922 0.50935 0.37096 0.0
H11 H 0.69512 0.55982 0.16238 0.0
H12 H 0.71537 0.49399 0.11151 0.0
H13 H 0.74186 0.50694 0.11516 0.0
H14 H 0.72131 0.51618 0.05002 0.0
H15 H 0.69999 0.54871 0.07366 0.0
H16 H 0.7218 0.56298 0.1232 0.0
C17 C 0.72114 0.50528 0.47104 0.0
C18 C 0.74362 0.48239 0.38138 0.0
C19 C 0.80673 0.54112 0.1434 0.0
C20 C 0.80327 0.53797 0.069 0.0
C21 C 0.78157 0.54116 0.04076 0.0
C22 C 0.76332 0.54443 0.08708 0.0
C23 C 0.76686 0.5443 0.16208 0.0
C24 C 0.78837 0.54425 0.1889 0.0
C25 C 0.78901 0.54422 0.26988 0.0
C26 C 0.7638 0.54369 0.28703 0.0
C27 C 0.7514 0.54173 0.22352 0.0
C28 C 0.80108 0.56576 0.29566 0.0
C29 C 0.80124 0.52264 0.29573 0.0
C30 C 0.67411 0.51487 0.16258 0.0
C31 C 0.65474 0.50949 0.20149 0.0
C32 C 0.65693 0.50741 0.27788 0.0
C33 C 0.67829 0.51014 0.3129 0.0
C34 C 0.69759 0.51511 0.27136 0.0
C35 C 0.6946 0.51824 0.19772 0.0
C36 C 0.71458 0.52817 0.16157 0.0
C37 C 0.72992 0.53171 0.22525 0.0
C38 C 0.72111 0.52276 0.28999 0.0
C39 C 0.70763 0.55104 0.12777 0.0
C40 C 0.72381 0.5106 0.10663 0.0
H41 H 0.78322 0.56689 0.43179 0.0
H42 H 0.77661 0.48769 0.51449 0.0
H43 H 0.75755 0.48282 0.34139 0.0
H44 H 0.72817 0.47654 0.35354 0.0
H45 H 0.74793 0.47004 0.42417 0.0
H46 H 0.7172 0.52253 0.49012 0.0
H47 H 0.72639 0.49506 0.51834 0.0
H48 H 0.70569 0.49763 0.44878 0.0
H49 H 0.82315 0.53905 0.16726 0.0
H50 H 0.77849 0.53978 0.98335 0.0
H51 H 0.74708 0.54572 0.0628 0.0
H52 H 0.81439 0.57108 0.25715 0.0
H53 H 0.80998 0.56309 0.34737 0.0
H54 H 0.78907 0.57993 0.30135 0.0
H55 H 0.79208 0.50737 0.27764 0.0
H56 H 0.80292 0.52188 0.35498 0.0
H57 H 0.81866 0.52178 0.27465 0.0
H58 H 0.81097 0.55216 0.51682 0.0
C59 C 0.78215 0.54963 0.44938 0.0
C60 C 0.01319 0.77751 0.03575 0.0
C61 C 0.01874 0.80032 0.03162 0.0
C62 C 0.02786 0.81136 0.09198 0.0
C63 C 0.02416 0.77776 0.16163 0.0
C64 C 0.01625 0.76644 0.10183 0.0
C65 C 0.01346 0.74183 0.11719 0.0
H66 H 0.9877 0.65672 0.30658 0.0
C67 C 0.02412 0.76253 0.22319 0.0
C68 C 0.02021 0.74119 0.19723 0.0
H69 H 0.03375 0.65857 0.12418 0.0
H70 H 0.04236 0.69728 0.15319 0.0
H71 H 0.02963 0.69662 0.4044 0.0
H72 H 0.96502 0.71347 0.30933 0.0
H73 H 0.97022 0.72062 0.40222 0.0
H74 H 0.96653 0.69165 0.37666 0.0
H75 H 1.00488 0.68154 0.43262 0.0
H76 H 1.00878 0.71041 0.45918 0.0
C77 C 0.0289 0.72854 0.06563 0.0
C78 C 0.98868 0.73504 0.10717 0.0
C79 C 0.01871 0.80211 0.45861 0.0
C80 C 1.00575 0.80022 0.52076 0.0
C81 C 0.99418 0.77939 0.53115 0.0
C82 C 0.99616 0.76121 0.47975 0.0
C83 C 1.00892 0.76427 0.41584 0.0
C84 C 0.01892 0.78517 0.40677 0.0
C85 C 0.0257 0.78979 0.33155 0.0
C86 C 0.02101 0.76746 0.297 0.0
C87 C 1.01188 0.75133 0.34534 0.0
C88 C 0.05121 0.7952 0.33062 0.0
C89 C 1.01019 0.80903 0.30236 0.0
C90 C 0.99867 0.66578 0.27022 0.0
C91 C 1.00853 0.65464 0.20826 0.0
C92 C 0.02462 0.66656 0.16785 0.0
C93 C 0.02877 0.68906 0.18106 0.0
C94 C 0.01576 0.7004 0.2314 0.0
C95 C 1.00372 0.68916 0.28285 0.0
C96 C 0.99905 0.7059 0.34624 0.0
C97 C 1.00909 0.72842 0.31785 0.0
C98 C 0.01638 0.72399 0.24715 0.0
C99 C 1.0113 0.69816 0.41474 0.0
C100 C 0.9737 0.70804 0.35946 0.0
H101 H 0.03954 0.80888 0.19853 0.0
H102 H 1.00734 0.76856 0.98852 0.0
H103 H 0.97755 0.74522 0.14262 0.0
H104 H 0.98621 0.71705 0.12094 0.0
H105 H 0.98334 0.73755 0.05028 0.0
H106 H 0.02818 0.73524 0.00976 0.0
H107 H 0.0234 0.71086 0.06032 0.0
H108 H 0.04668 0.72946 0.08356 0.0
H109 H 0.02672 0.81796 0.44551 0.0
H110 H 0.98361 0.77722 0.5782 0.0
H111 H 0.98702 0.74577 0.48854 0.0
H112 H 0.06042 0.78458 0.3702 0.0
H113 H 0.05434 0.81305 0.34473 0.0
H114 H 0.05914 0.79154 0.27786 0.0
H115 H 0.99683 0.81413 0.34106 0.0
H116 H 1.00054 0.80395 0.25403 0.0
H117 H 0.01987 0.82453 0.29043 0.0
H118 H 0.03334 0.82865 0.08844 0.0
C119 C 0.03127 0.8 0.15606 0.0
C120 C 0.85579 0.01678 0.27014 0.0
C121 C 0.86495 0.01907 0.19848 0.0
C122 C 0.84996 0.02121 0.14064 0.0
C123 C 0.81833 0.01483 0.21908 0.0
C124 C 0.8318 0.01544 0.27929 0.0
C125 C 0.81674 0.01335 0.34742 0.0
H126 H 0.70796 0.98274 0.45927 0.0
C127 C 0.79563 1.00799 0.23969 0.0
C128 C 0.79307 1.00906 0.31502 0.0
H129 H 0.73985 0.04172 0.54514 0.0
H130 H 0.77185 0.03622 0.46076 0.0
H131 H 0.71415 1.00755 0.31646 0.0
H132 H 0.74534 0.94971 0.40977 0.0
H133 H 0.7464 0.94458 0.31623 0.0
H134 H 0.71952 0.94752 0.36075 0.0
H135 H 0.70028 0.98115 0.33083 0.0
H136 H 0.71481 0.98728 0.24895 0.0
C137 C 0.81762 0.03532 0.3906 0.0
C138 C 0.82434 0.9934 0.39402 0.0
C139 C 0.74569 0.97805 0.04484 0.0
C140 C 0.72365 0.9704 0.05222 0.0
C141 C 0.71792 0.95745 0.11311 0.0
C142 C 0.73179 0.95784 0.174 0.0
C143 C 0.75083 0.97173 0.17251 0.0
C144 C 0.75871 0.97963 0.10716 0.0
C145 C 0.77894 0.99426 0.11555 0.0
C146 C 0.78054 0.99541 0.19731 0.0
C147 C 0.76345 0.98312 0.2302 0.0
C148 C 0.77359 0.01786 0.08365 0.0
C149 C 0.79915 0.98196 0.07955 0.0
C150 C 0.72235 0.99377 0.46407 0.0
C151 C 0.72149 1.01197 0.51178 0.0
C152 C 0.74008 0.02704 0.5107 0.0
C153 C 0.75883 0.02367 0.46312 0.0
C154 C 0.75899 1.0053 0.41483 0.0
C155 C 0.74 0.99167 0.414 0.0
C156 C 0.7373 0.97969 0.34363 0.0
C157 C 0.75828 0.98699 0.3038 0.0
C158 C 0.77217 1.00094 0.34634 0.0
C159 C 0.71556 0.9891 0.30772 0.0
C160 C 0.73698 0.95404 0.35794 0.0
H161 H 0.81689 0.02132 0.10364 0.0
H162 H 0.8668 0.01591 0.31645 0.0
H163 H 0.82423 0.97763 0.36196 0.0
H164 H 0.81287 0.9912 0.44089 0.0
H165 H 0.84162 0.99618 0.41476 0.0
H166 H 0.80975 0.04927 0.35977 0.0
H167 H 0.83532 0.03998 0.4024 0.0
H168 H 0.80886 0.03345 0.44303 0.0
H169 H 0.75054 0.98744 0.99716 0.0
H170 H 0.70108 0.95074 0.11859 0.0
H171 H 0.72553 0.95017 0.22238 0.0
H172 H 0.7556 0.0223 0.0917 0.0
H173 H 0.77715 0.01849 0.02483 0.0
H174 H 0.78287 0.03158 0.11075 0.0
H175 H 0.79441 0.96542 0.0561 0.0
H176 H 0.81265 0.97818 0.11896 0.0
H177 H 0.80636 0.99182 0.03425 0.0
H178 H 0.85612 0.02358 0.08602 0.0
C179 C 0.82703 0.01943 0.15064 0.0
C180 C 0.50336 0.74379 0.48717 0.0
C181 C 0.51704 0.72452 0.50461 0.0
C182 C 0.53954 0.72456 0.4804 0.0
C183 C 0.53223 0.7569 0.40625 0.0
C184 C 0.51223 0.76085 0.44008 0.0
C185 C 0.50281 0.78338 0.4108 0.0
H186 H 0.50383 0.85459 0.11272 0.0
C187 C 0.53385 0.77081 0.34183 0.0
C188 C 0.51954 0.78948 0.34919 0.0
H189 H 0.50996 0.88395 0.32382 0.0
H190 H 0.51326 0.84559 0.3778 0.0
H191 H 0.54493 0.83343 0.1346 0.0
H192 H 0.47896 0.80484 0.15089 0.0
H193 H 0.4954 0.78508 0.10482 0.0
H194 H 0.49187 0.81277 0.06714 0.0
H195 H 0.53004 0.82396 0.05623 0.0
H196 H 0.5486 0.80576 0.1065 0.0
C197 C 0.50313 0.80123 0.47052 0.0
C198 C 0.47891 0.78008 0.38139 0.0
C199 C 0.54083 0.72149 0.1222 0.0
C200 C 0.53404 0.72494 0.05056 0.0
C201 C 0.53122 0.74696 0.02504 0.0
C202 C 0.53227 0.76503 0.07272 0.0
C203 C 0.53611 0.76098 0.14654 0.0
C204 C 0.54135 0.73962 0.16969 0.0
C205 C 0.54288 0.73788 0.25044 0.0
C206 C 0.53848 0.76232 0.27194 0.0
C207 C 0.53308 0.77509 0.21101 0.0
C208 C 0.56653 0.72932 0.27142 0.0
C209 C 0.52393 0.72191 0.27673 0.0
C210 C 0.50463 0.85305 0.17099 0.0
C211 C 0.50562 0.87236 0.21348 0.0
C212 C 0.50844 0.86937 0.28933 0.0
C213 C 0.50998 0.84735 0.32072 0.0
C214 C 0.50924 0.8282 0.27582 0.0
C215 C 0.5079 0.83181 0.20184 0.0
C216 C 0.51531 0.81191 0.15934 0.0
C217 C 0.52241 0.7961 0.21881 0.0
C218 C 0.51665 0.80423 0.28761 0.0
C219 C 0.53562 0.81897 0.11112 0.0
C220 C 0.49449 0.80313 0.11776 0.0
H221 H 0.56431 0.74026 0.41242 0.0
H222 H 0.48645 0.74517 0.50809 0.0
H223 H 0.47878 0.76697 0.33868 0.0
H224 H 0.4725 0.79598 0.35773 0.0
H225 H 0.4673 0.77481 0.42524 0.0
H226 H 0.52057 0.80418 0.48965 0.0
H227 H 0.4928 0.79568 0.51726 0.0
H228 H 0.49618 0.81734 0.45039 0.0
H229 H 0.54303 0.70468 0.14329 0.0
H230 H 0.52635 0.75002 0.96957 0.0
H231 H 0.52842 0.78118 0.0506 0.0
H232 H 0.5745 0.71951 0.22725 0.0
H233 H 0.56582 0.71765 0.31798 0.0
H234 H 0.57798 0.7435 0.28436 0.0
H235 H 0.50716 0.72856 0.26121 0.0
H236 H 0.52394 0.71939 0.33561 0.0
H237 H 0.52579 0.70487 0.2533 0.0
H238 H 0.55084 0.71108 0.49534 0.0
C239 C 0.54723 0.7408 0.43171 0.0
C240 C 0.35721 0.50466 0.14284 0.0
C241 C 0.36386 0.49403 0.2089 0.0
C242 C 0.34895 0.47844 0.24045 0.0
C243 C 0.31999 0.48915 0.1567 0.0
C244 C 0.33502 0.50095 0.11571 0.0
C245 C 0.32224 0.51129 0.05195 0.0
H246 H 0.20969 0.54101 0.97772 0.0
C247 C 0.29729 0.49668 0.13907 0.0
C248 C 0.2973 0.50503 0.06741 0.0
H249 H 0.23632 0.48599 0.85258 0.0
H250 H 0.27174 0.48771 0.92383 0.0
H251 H 0.22725 0.52323 0.14943 0.0
H252 H 0.23427 0.57465 0.02419 0.0
H253 H 0.26389 0.57007 0.01047 0.0
H254 H 0.25355 0.57889 0.09676 0.0
H255 H 0.21043 0.54214 0.09723 0.0
H256 H 0.2266 0.5531 0.16697 0.0
C257 C 0.32996 0.50056 0.98081 0.0
C258 C 0.32593 0.53693 0.04993 0.0
C259 C 0.25223 0.52742 0.34937 0.0
C260 C 0.24026 0.54776 0.35457 0.0
C261 C 0.24625 0.56587 0.30895 0.0
C262 C 0.25941 0.56188 0.2479 0.0
C263 C 0.26626 0.53991 0.235 0.0
C264 C 0.26576 0.5241 0.2888 0.0
C265 C 0.28006 0.5041 0.27015 0.0
C266 C 0.28532 0.50945 0.19103 0.0
C267 C 0.27545 0.52982 0.17075 0.0
C268 C 0.26659 0.48213 0.27703 0.0
C269 C 0.30071 0.50456 0.32095 0.0
C270 C 0.22299 0.52947 0.9637 0.0
C271 C 0.2197 0.5136 0.90822 0.0
C272 C 0.23788 0.49854 0.89446 0.0
C273 C 0.25837 0.49953 0.9348 0.0
C274 C 0.26079 0.51552 0.99018 0.0
C275 C 0.24294 0.52975 1.00465 0.0
C276 C 0.24693 0.54339 0.07163 0.0
C277 C 0.26903 0.53313 0.09821 0.0
C278 C 0.27875 0.51907 0.04606 0.0
C279 C 0.22688 0.54019 0.12436 0.0
C280 C 0.24986 0.56816 0.04971 0.0
H281 H 0.31544 0.46479 0.24145 0.0
H282 H 0.3684 0.5163 0.11597 0.0
H283 H 0.32058 0.54472 0.10168 0.0
H284 H 0.31612 0.54467 1.00542 0.0
H285 H 0.34394 0.54097 0.04094 0.0
H286 H 0.32758 0.48205 0.98242 0.0
H287 H 0.34805 0.50408 0.97096 0.0
H288 H 0.32009 0.50736 0.93486 0.0
H289 H 0.24912 0.51364 0.38618 0.0
H290 H 0.23826 0.58211 0.31489 0.0
H291 H 0.26258 0.57516 0.20975 0.0
H292 H 0.2507 0.48318 0.24574 0.0
H293 H 0.2624 0.47859 0.33435 0.0
H294 H 0.27642 0.46775 0.25583 0.0
H295 H 0.31444 0.51504 0.29814 0.0
H296 H 0.30704 0.48751 0.33308 0.0
H297 H 0.29639 0.51162 0.37477 0.0
H298 H 0.35371 0.46948 0.28901 0.0
C299 C 0.32706 0.47584 0.21415 0.0
C300 C 0.0331 0.25284 0.37785 0.0
C301 C 0.03445 0.2294 0.38563 0.0
C302 C 0.04688 0.21686 0.33448 0.0
C303 C 0.04744 0.24894 0.25713 0.0
C304 C 0.04049 0.26239 0.31295 0.0
C305 C 0.03989 0.28657 0.29034 0.0
H306 H 0.99578 0.35995 0.13876 0.0
C307 C 0.04599 0.26167 0.19022 0.0
C308 C 0.04526 0.2842 0.2092 0.0
H309 H 0.05577 0.36738 0.27044 0.0
H310 H 0.0686 0.3305 0.23002 0.0
H311 H 0.03361 0.32595 0.99132 0.0
H312 H 0.98471 0.30255 0.14919 0.0
H313 H 0.98166 0.29526 0.05533 0.0
H314 H 0.97631 0.32363 0.08469 0.0
H315 H 1.00709 0.34042 0.9973 0.0
H316 H 1.00802 0.31249 0.96238 0.0
C317 C 0.05793 0.29933 0.33377 0.0
C318 C 0.01619 0.29634 0.30392 0.0
C319 C 0.01332 0.21649 0.98751 0.0
C320 C 1.00987 0.22055 0.9144 0.0
C321 C 1.00955 0.24333 0.89106 0.0
C322 C 0.01304 0.2614 0.94104 0.0
C323 C 0.0172 0.25665 0.0146 0.0
C324 C 0.01828 0.23418 0.03461 0.0
C325 C 0.029 0.23074 0.10626 0.0
C326 C 0.03557 0.25464 0.12526 0.0
C327 C 0.02669 0.27048 0.0758 0.0
C328 C 0.04984 0.21511 0.09811 0.0
C329 C 1.01065 0.22116 0.15707 0.0
C330 C 1.01159 0.35365 0.15913 0.0
C331 C 0.02421 0.36631 0.21174 0.0
C332 C 0.04537 0.35804 0.23307 0.0
C333 C 0.05262 0.3369 0.21158 0.0
C334 C 0.03853 0.32381 0.16941 0.0
C335 C 0.02009 0.33232 0.13546 0.0
C336 C 1.01193 0.3146 0.07974 0.0
C337 C 0.02747 0.29411 0.09559 0.0
C338 C 0.04041 0.30015 0.15569 0.0
C339 C 0.01543 0.32382 1.00314 0.0
C340 C 0.98716 0.30867 0.09304 0.0
H341 H 0.06237 0.21669 0.23104 0.0
H342 H 0.02484 0.26299 0.41841 0.0
H343 H 1.00333 0.28685 0.27297 0.0
H344 H 0.01521 0.31424 0.2879 0.0
H345 H 1.01174 0.29563 0.36208 0.0
H346 H 0.05839 0.29351 0.39079 0.0
H347 H 0.05425 0.31752 0.33697 0.0
H348 H 0.0749 0.29672 0.31016 0.0
H349 H 0.01457 0.19932 1.00669 0.0
H350 H 1.0076 0.24707 0.83424 0.0
H351 H 0.0141 0.27833 0.92089 0.0
H352 H 0.05332 0.21013 0.0414 0.0
H353 H 0.04768 0.1993 0.12921 0.0
H354 H 0.06552 0.2236 0.1155 0.0
H355 H 0.9967 0.23341 0.16384 0.0
H356 H 0.01696 0.21688 0.21112 0.0
H357 H 1.00349 0.20541 0.13466 0.0
H358 H 0.04903 0.19888 0.33991 0.0
C359 C 0.05376 0.22679 0.27013 0.0
C360 C 0.27974 0.02219 0.91549 0.0
C361 C 0.2993 1.00792 0.90872 0.0
C362 C 0.2987 0.98694 0.94439 0.0
C363 C 0.26615 0.99851 0.01128 0.0
C364 C 0.26225 0.01603 0.96569 0.0
C365 C 0.24 0.02727 0.99072 0.0
H366 H 0.17115 0.03788 0.29705 0.0
C367 C 0.25324 1.0018 0.07706 0.0
C368 C 0.23376 0.01426 0.06124 0.0
H369 H 0.14001 1.01135 0.10544 0.0
H370 H 0.17754 1.01081 0.04412 0.0
H371 H 0.19989 1.00161 0.29987 0.0
H372 H 0.21338 0.06855 0.22632 0.0
H373 H 0.23738 0.06006 0.27424 0.0
H374 H 0.21051 0.06113 0.31975 0.0
H375 H 0.20667 0.0238 0.36144 0.0
H376 H 0.22783 1.00586 0.32272 0.0
C377 C 0.2217 0.02408 0.93341 0.0
C378 C 0.24385 0.05236 1.00604 0.0
C379 C 0.30559 1.00874 0.29046 0.0
C380 C 0.30187 0.01506 0.36217 0.0
C381 C 0.28169 0.02526 0.38253 0.0
C382 C 0.26463 0.02797 0.33155 0.0
C383 C 0.26766 0.01926 0.26143 0.0
C384 C 0.288 1.01011 0.24161 0.0
C385 C 0.28831 1.00174 0.16524 0.0
C386 C 0.26374 1.00531 0.14478 0.0
C387 C 0.25245 0.01671 0.19975 0.0
C388 C 0.29553 0.9767 0.16262 0.0
C389 C 0.30441 0.01721 0.12242 0.0
C390 C 0.17163 0.03311 0.24065 0.0
C391 C 0.15208 0.02563 0.20631 0.0
C392 C 0.15453 0.01775 0.13383 0.0
C393 C 0.176 0.01766 0.09798 0.0
C394 C 0.19532 0.02508 0.13516 0.0
C395 C 0.19259 0.0317 0.20652 0.0
C396 C 0.21421 0.03203 0.24693 0.0
C397 C 0.23023 0.02387 0.18964 0.0
C398 C 0.2202 0.02209 0.12138 0.0
C399 C 0.21222 0.01518 0.31135 0.0
C400 C 0.2192 0.05665 0.26867 0.0
H401 H 0.28291 0.96677 0.02633 0.0
H402 H 0.27886 0.03795 0.88661 0.0
H403 H 0.25715 0.05458 0.04747 0.0
H404 H 0.22817 0.0603 0.02632 0.0
H405 H 0.24913 0.06129 0.95614 0.0
H406 H 0.21896 1.00593 0.92255 0.0
H407 H 0.22664 0.03236 0.88202 0.0
H408 H 0.20557 0.03147 0.9521 0.0
H409 H 0.32132 1.00099 0.27459 0.0
H410 H 0.27875 0.03 0.43818 0.0
H411 H 0.24931 0.03542 0.35017 0.0
H412 H 0.30459 0.97122 0.21186 0.0
H413 H 0.30728 0.97346 0.11728 0.0
H414 H 0.28076 0.96543 0.15722 0.0
H415 H 0.29829 0.03486 0.12293 0.0
H416 H 0.30629 1.01206 0.06573 0.0
H417 H 0.32152 0.01687 0.14627 0.0
H418 H 0.31228 0.97502 0.93742 0.0
C419 C 0.28225 0.98224 0.99608 0.0
C420 C 0.5078 0.28337 0.92229 0.0
C421 C 0.49767 0.30532 0.92149 0.0
C422 C 0.48085 0.30983 0.97295 0.0
C423 C 0.48865 0.27499 0.03472 0.0
C424 C 0.50198 0.26782 0.97869 0.0
C425 C 0.50933 0.24337 0.99392 0.0
H426 H 0.53418 0.16766 0.26162 0.0
C427 C 0.49063 0.25936 0.09571 0.0
C428 C 0.49994 0.239 0.07064 0.0
H429 H 0.48601 0.14604 0.10358 0.0
H430 H 0.48745 0.18396 0.04628 0.0
H431 H 0.55889 0.21349 0.2031 0.0
H432 H 0.49509 0.19431 0.29207 0.0
H433 H 0.50049 0.22 0.33104 0.0
H434 H 0.5198 0.19725 0.34708 0.0
H435 H 0.55498 0.20818 0.29757 0.0
H436 H 0.55106 0.23587 0.25938 0.0
C437 C 0.5351 0.24151 0.99262 0.0
C438 C 0.49872 0.22731 0.93892 0.0
C439 C 0.50323 0.29996 0.33274 0.0
C440 C 0.51771 0.29478 0.39015 0.0
C441 C 0.52582 0.27287 0.39831 0.0
C442 C 0.52165 0.25691 0.34544 0.0
C443 C 0.50888 0.26281 0.28445 0.0
C444 C 0.49971 0.28396 0.27889 0.0
C445 C 0.48846 0.28783 0.20709 0.0
C446 C 0.49313 0.26543 0.16958 0.0
C447 C 0.50466 0.25104 0.21631 0.0
C448 C 0.49956 0.30831 0.16875 0.0
C449 C 0.46312 0.2911 0.22127 0.0
C450 C 0.52483 0.17033 0.21216 0.0
C451 C 0.5103 0.15359 0.18757 0.0
C452 C 0.4977 0.1584 0.12408 0.0
C453 C 0.49857 0.18019 0.09077 0.0
C454 C 0.5113 0.19756 0.12291 0.0
C455 C 0.52254 0.19231 0.1865 0.0
C456 C 0.52325 0.21186 0.23707 0.0
C457 C 0.51156 0.22964 0.1932 0.0
C458 C 0.50703 0.22247 0.12298 0.0
C459 C 0.54828 0.21769 0.25073 0.0
C460 C 0.50925 0.2057 0.30582 0.0
H461 H 0.46344 0.29909 0.06721 0.0
H462 H 0.51995 0.27874 0.88144 0.0
H463 H 0.4801 0.2285 0.94075 0.0
H464 H 0.50363 0.2097 0.95067 0.0
H465 H 0.50438 0.23154 0.88336 0.0
H466 H 0.54268 0.25322 0.03246 0.0
H467 H 0.54177 0.2457 0.93822 0.0
H468 H 0.54047 0.22416 1.00634 0.0
H469 H 0.497 0.31691 0.3255 0.0
H470 H 0.53711 0.26873 0.4422 0.0
H471 H 0.52957 0.24097 0.35305 0.0
H472 H 0.50788 0.32004 0.20668 0.0
H473 H 0.48704 0.3188 0.1403 0.0
H474 H 0.51279 0.3029 0.13015 0.0
H475 H 0.45677 0.27835 0.2602 0.0
H476 H 0.45297 0.28905 0.17193 0.0
H477 H 0.45982 0.30802 0.24425 0.0
H478 H 0.47202 0.32574 0.97224 0.0
C479 C 0.47616 0.29473 0.02865 0.0
La480 La 0.02606 1.00793 0.76683 0.0
La481 La 0.98864 0.01533 0.66291 0.0
C482 C 0.04686 0.99995 0.88167 0.0
C483 C 0.06243 0.98238 0.90421 0.0
C484 C 0.07734 0.97279 0.85432 0.0
C485 C 0.08526 0.95104 0.86541 0.0
C486 C 0.07754 0.93849 0.92477 0.0
C487 C 0.0656 0.94956 0.9799 0.0
C488 C 0.05817 0.97147 0.96965 0.0
C489 C 0.04455 1.01055 0.6338 0.0
C490 C 1.00516 0.96549 0.68232 0.0
C491 C 0.9623 0.0286 0.56576 0.0
C492 C 0.95858 0.05082 0.53283 0.0
C493 C 0.94016 0.06393 0.55479 0.0
C494 C 0.93855 0.08639 0.5339 0.0
C495 C 0.95517 0.09596 0.48989 0.0
C496 C 0.97276 0.08242 0.46406 0.0
C497 C 0.97446 0.06006 0.48524 0.0
C498 C 0.9758 1.00549 0.79818 0.0
C499 C 1.01078 0.05813 0.73966 0.0
O500 O 0.054 0.01422 0.83285 0.0
O501 O 0.02661 0.99244 0.86773 0.0
O502 O 0.05527 1.00702 0.69338 0.0
O503 O 0.02397 1.01215 0.6512 0.0
O504 O 0.01596 0.97271 0.74092 0.0
O505 O 0.99515 0.97988 0.63833 0.0
O506 O 0.95675 0.02704 0.63381 0.0
O507 O 0.9816 0.01886 0.55252 0.0
O508 O 0.96658 0.99777 0.7399 0.0
O509 O 0.99177 0.01814 0.77852 0.0
O510 O 0.9992 0.05055 0.68347 0.0
O511 O 0.02115 0.04405 0.78357 0.0
H512 H 0.08099 0.98104 0.80353 0.0
H513 H 0.09512 0.94318 0.82322 0.0
H514 H 0.05938 0.94056 0.02662 0.0
H515 H 0.04675 0.97876 0.00879 0.0
H516 H 0.92757 0.05712 0.59099 0.0
H517 H 0.92479 0.09648 0.5542 0.0
H518 H 0.98602 0.08945 0.43091 0.0
H519 H 0.98881 0.05042 0.46707 0.0
La520 La 0.51111 0.03486 0.74449 0.0
La521 La 0.50939 0.99515 0.6676 0.0
C522 C 0.52257 0.06432 0.83359 0.0
C523 C 0.54193 0.0613 0.88111 0.0
C524 C 0.5574 0.07864 0.89302 0.0
C525 C 0.57852 0.07373 0.92241 0.0
C526 C 0.58445 0.05136 0.93845 0.0
C527 C 0.56843 0.03434 0.92827 0.0
C528 C 0.54744 0.0393 0.90117 0.0
C529 C 0.50017 0.04263 0.60613 0.0
C530 C 0.5571 0.01531 0.6812 0.0
C531 C 0.50388 0.96295 0.58059 0.0
C532 C 0.48619 0.95635 0.53022 0.0
C533 C 0.47412 0.93655 0.5432 0.0
C534 C 0.45343 0.93328 0.51002 0.0
C535 C 0.4448 0.94985 0.46391 0.0
C536 C 0.45848 0.96784 0.44254 0.0
C537 C 0.47907 0.97116 0.47585 0.0
C538 C 0.52062 0.98683 0.8056 0.0
C539 C 0.46275 0.01628 0.72639 0.0
O540 O 0.52777 0.06535 0.76525 0.0
O541 O 0.50603 0.05035 0.84511 0.0
O542 O 0.49175 0.0528 0.66153 0.0
O543 O 0.51466 0.02895 0.6298 0.0
O544 O 0.54769 0.02643 0.73527 0.0
O545 O 0.54416 1.00292 0.64014 0.0
O546 O 0.49847 0.9621 0.64881 0.0
O547 O 0.51459 0.9814 0.56509 0.0
O548 O 0.52994 0.97831 0.74896 0.0
O549 O 0.50605 1.00082 0.7833 0.0
O550 O 0.47245 1.00251 0.67883 0.0
O551 O 0.47533 0.03021 0.76392 0.0
H552 H 0.5536 0.09565 0.87632 0.0
H553 H 0.59039 0.08728 0.93005 0.0
H554 H 0.57239 0.0168 0.9368 0.0
H555 H 0.53615 0.02545 0.89054 0.0
H556 H 0.47962 0.92474 0.58401 0.0
H557 H 0.44312 0.9192 0.52657 0.0
H558 H 0.45216 0.98087 0.40714 0.0
H559 H 0.48828 0.9864 0.46371 0.0
La560 La 0.4879 0.51456 0.7523 0.0
La561 La 0.52637 0.51272 0.66909 0.0
C562 C 0.45819 0.52171 0.847 0.0
C563 C 0.45011 0.54219 0.88249 0.0
C564 C 0.43963 0.5592 0.84226 0.0
C565 C 0.43964 0.58114 0.86793 0.0
C566 C 0.45039 0.58618 0.93329 0.0
C567 C 0.45743 0.56869 0.97856 0.0
C568 C 0.45716 0.54669 0.95331 0.0
C569 C 0.47801 0.50247 0.61688 0.0
C570 C 0.50621 0.56093 0.68247 0.0
C571 C 0.55713 0.50606 0.57793 0.0
C572 C 0.56299 0.48732 0.5308 0.0
C573 C 0.58441 0.47771 0.53596 0.0
C574 C 0.58867 0.45697 0.50407 0.0
C575 C 0.57153 0.44584 0.46655 0.0
C576 C 0.55082 0.45657 0.45559 0.0
C577 C 0.54653 0.47713 0.48779 0.0
C578 C 0.5362 0.52312 0.80645 0.0
C579 C 0.50781 0.46651 0.73539 0.0
O580 O 0.45387 0.5195 0.7783 0.0
O581 O 0.47907 0.51673 0.86129 0.0
O582 O 0.47003 0.49339 0.67494 0.0
O583 O 0.49188 0.51757 0.63604 0.0
O584 O 0.49292 0.55156 0.73199 0.0
O585 O 0.5204 0.54813 0.64697 0.0
O586 O 0.55928 0.5021 0.64682 0.0
O587 O 0.5383 0.5163 0.56345 0.0
O588 O 0.54416 0.53296 0.74981 0.0
O589 O 0.52221 0.50861 0.78452 0.0
O590 O 0.51923 0.47579 0.68114 0.0
O591 O 0.49553 0.4796 0.77683 0.0
H592 H 0.43356 0.55612 0.78809 0.0
H593 H 0.43381 0.59447 0.83282 0.0
H594 H 0.46575 0.57221 0.02929 0.0
H595 H 0.46492 0.53369 0.98576 0.0
H596 H 0.5973 0.48546 0.56881 0.0
H597 H 0.60474 0.44893 0.51297 0.0
H598 H 0.53719 0.44817 0.42785 0.0
H599 H 0.52982 0.48418 0.48302 0.0
La600 La 1.00634 0.48711 0.76238 0.0
La601 La 1.00889 0.52554 0.66928 0.0
C602 C 0.99862 0.45728 0.85614 0.0
C603 C 0.97787 0.44875 0.88911 0.0
C604 C 0.96226 0.43668 0.8475 0.0
C605 C 0.93993 0.4356 0.86929 0.0
C606 C 0.93322 0.44636 0.93287 0.0
C607 C 0.9494 0.4551 0.97997 0.0
C608 C 0.97174 0.45626 0.95815 0.0
C609 C 0.01826 0.47648 0.62739 0.0
C610 C 0.96015 0.50688 0.69427 0.0
C611 C 0.01539 0.54693 0.55465 0.0
C612 C 0.03361 0.54317 0.50364 0.0
C613 C 0.045 0.5617 0.47525 0.0
C614 C 0.06728 0.55941 0.4535 0.0
C615 C 0.07831 0.53866 0.46133 0.0
C616 C 0.06596 0.51961 0.48118 0.0
C617 C 0.04367 0.52187 0.50188 0.0
C618 C 1.00317 0.54335 0.80046 0.0
C619 C 0.05391 0.50791 0.74361 0.0
O620 O 1.00131 0.45317 0.78754 0.0
O621 O 1.00356 0.47812 0.87149 0.0
O622 O 0.02776 0.46892 0.68528 0.0
O623 O 1.00348 0.49048 0.64727 0.0
O624 O 0.96977 0.49136 0.73612 0.0
O625 O 0.97243 0.52292 0.66481 0.0
O626 O 0.02248 0.55368 0.61767 0.0
O627 O 1.00068 0.53073 0.56024 0.0
O628 O 1.0038 0.55415 0.74019 0.0
O629 O 1.00435 0.52237 0.78636 0.0
O630 O 0.04515 0.517 0.68455 0.0
O631 O 0.04051 0.49754 0.78938 0.0
H632 H 0.96663 0.43019 0.79473 0.0
H633 H 0.92752 0.42894 0.8323 0.0
H634 H 0.94437 0.46372 0.02891 0.0
H635 H 0.98361 0.46528 0.99165 0.0
H636 H 0.03751 0.57828 0.47681 0.0
H637 H 0.07639 0.57423 0.4363 0.0
H638 H 0.074 0.50342 0.4877 0.0
H639 H 0.03522 0.5074 0.5243 0.0
C640 C 0.11641 1.0057 0.25309 0.0
C641 C 0.13056 0.02466 0.25155 0.0
C642 C 0.09933 1.00311 0.30667 0.0
C643 C 0.09629 0.01963 0.36158 0.0
C644 C 0.10964 0.03933 0.35739 0.0
C645 C 0.12611 0.04169 0.30267 0.0
C646 C 0.08529 0.98206 0.30656 0.0
C647 C 0.10756 0.05752 0.41373 0.0
C648 C 0.04635 0.02103 0.49835 0.0
C649 C 0.05597 1.01139 0.56046 0.0
C650 C 0.0588 0.0232 0.43265 0.0
C651 C 0.08145 0.01543 0.42796 0.0
C652 C 0.09076 1.00501 0.48999 0.0
C653 C 0.07812 1.00326 0.55452 0.0
C654 C 0.04788 0.03438 0.36872 0.0
C655 C 0.11454 0.99622 0.48917 0.0
H656 H 0.11939 0.99228 0.21479 0.0
H657 H 0.13638 0.05672 0.30206 0.0
H658 H 0.09119 0.97066 0.34993 0.0
H659 H 0.06742 0.98607 0.31769 0.0
H660 H 0.08643 0.97302 0.25425 0.0
H661 H 0.11776 0.07257 0.40031 0.0
H662 H 0.08977 0.0627 0.41988 0.0
H663 H 0.11322 0.05092 0.46671 0.0
H664 H 0.02937 0.02749 0.50161 0.0
H665 H 0.08588 0.99565 0.60141 0.0
H666 H 0.05011 0.02395 0.3196 0.0
H667 H 0.05611 0.05077 0.35825 0.0
H668 H 0.02966 0.03733 0.37756 0.0
H669 H 0.11681 0.98424 0.44392 0.0
H670 H 0.11908 0.9876 0.5403 0.0
H671 H 0.12642 1.01031 0.48038 0.0
C672 C 0.5018 0.13914 0.31268 0.0
C673 C 0.50563 0.13425 0.23917 0.0
C674 C 0.50088 0.12234 0.36624 0.0
C675 C 0.50314 0.09943 0.34713 0.0
C676 C 0.5059 0.09408 0.27255 0.0
C677 C 0.50725 0.11148 0.21966 0.0
C678 C 0.49814 0.12934 0.44414 0.0
C679 C 0.50791 0.06998 0.24874 0.0
C680 C 0.52188 0.0609 0.50374 0.0
C681 C 0.50127 0.0541 0.53376 0.0
C682 C 0.52282 0.07477 0.44144 0.0
C683 C 0.50272 0.08158 0.40616 0.0
C684 C 0.48197 0.07352 0.43405 0.0
C685 C 0.48148 0.0604 0.49792 0.0
C686 C 0.54535 0.08325 0.41598 0.0
C687 C 0.46009 0.07946 0.39788 0.0
H688 H 0.50014 0.15648 0.32913 0.0
H689 H 0.51028 0.10728 0.1636 0.0
H690 H 0.48264 0.12186 0.46704 0.0
H691 H 0.51249 0.12303 0.47649 0.0
H692 H 0.4972 0.14786 0.45057 0.0
H693 H 0.50732 0.06829 0.18907 0.0
H694 H 0.52403 0.06291 0.2682 0.0
H695 H 0.4942 0.05977 0.27274 0.0
H696 H 0.53728 0.05641 0.53133 0.0
H697 H 0.46548 0.05527 0.52051 0.0
H698 H 0.54625 0.1017 0.4239 0.0
H699 H 0.54748 0.07999 0.35746 0.0
H700 H 0.5595 0.07532 0.44555 0.0
H701 H 0.45625 0.09745 0.40712 0.0
H702 H 0.44587 0.06929 0.4189 0.0
H703 H 0.46138 0.07689 0.33869 0.0
C704 C 0.38186 0.51376 0.31398 0.0
C705 C 0.38443 0.50025 0.25226 0.0
C706 C 0.39888 0.51554 0.36705 0.0
C707 C 0.41932 0.50345 0.35943 0.0
C708 C 0.42246 0.49063 0.29528 0.0
C709 C 0.405 0.48902 0.24314 0.0
C710 C 0.39435 0.52935 0.43373 0.0
C711 C 0.44384 0.47758 0.28342 0.0
C712 C 0.46771 0.51809 0.49202 0.0
C713 C 0.46489 0.50195 0.54687 0.0
C714 C 0.45359 0.51847 0.42998 0.0
C715 C 0.43607 0.50238 0.42181 0.0
C716 C 0.43371 0.48571 0.47615 0.0
C717 C 0.44799 0.4857 0.53718 0.0
C718 C 0.45709 0.53648 0.37389 0.0
C719 C 0.41556 0.46809 0.471 0.0
H720 H 0.36588 0.52207 0.32272 0.0
H721 H 0.40706 0.47807 0.19689 0.0
H722 H 0.3928 0.51808 0.48119 0.0
H723 H 0.40855 0.54094 0.44429 0.0
H724 H 0.37867 0.53936 0.42903 0.0
H725 H 0.44518 0.47113 0.22733 0.0
H726 H 0.45869 0.48823 0.29505 0.0
H727 H 0.44435 0.4631 0.32108 0.0
H728 H 0.48059 0.53079 0.49837 0.0
H729 H 0.44557 0.47306 0.57856 0.0
H730 H 0.44233 0.54785 0.373 0.0
H731 H 0.45851 0.52884 0.31947 0.0
H732 H 0.47237 0.54665 0.38453 0.0
H733 H 0.39882 0.47627 0.47182 0.0
H734 H 0.41634 0.45577 0.51595 0.0
H735 H 0.41701 0.45889 0.41917 0.0
C736 C 0.02999 0.40639 0.25103 0.0
C737 C 0.01637 0.38704 0.25144 0.0
C738 C 0.0287 0.42283 0.30616 0.0
C739 C 0.01342 0.42014 0.36446 0.0
C740 C 0.99846 0.40149 0.36231 0.0
C741 C 1.00016 0.38524 0.30638 0.0
C742 C 0.04501 0.44222 0.30467 0.0
C743 C 0.98171 0.39775 0.4222 0.0
C744 C 0.03073 0.44356 0.55058 0.0
C745 C 0.01759 0.46306 0.55796 0.0
C746 C 0.02947 0.42968 0.48863 0.0
C747 C 0.01481 0.43526 0.43085 0.0
C748 C 1.00182 0.45523 0.43716 0.0
C749 C 1.00325 0.46873 0.50036 0.0
C750 C 0.04377 0.40877 0.48544 0.0
C751 C 0.98627 0.46227 0.37715 0.0
H752 H 0.04297 0.40781 0.21017 0.0
H753 H 0.98997 0.37018 0.30898 0.0
H754 H 0.03629 0.45822 0.31695 0.0
H755 H 0.058 0.43967 0.34676 0.0
H756 H 0.05355 0.44381 0.25156 0.0
H757 H 0.96945 0.38433 0.40876 0.0
H758 H 0.99073 0.39288 0.47216 0.0
H759 H 0.9724 0.41347 0.43393 0.0
H760 H 0.0419 0.43885 0.59416 0.0
H761 H 0.993 0.4837 0.50483 0.0
H762 H 0.05502 0.40947 0.43772 0.0
H763 H 0.0329 0.39376 0.47916 0.0
H764 H 0.05422 0.40659 0.53457 0.0
H765 H 0.99586 0.46419 0.32613 0.0
H766 H 0.97757 0.47835 0.38914 0.0
H767 H 0.97346 0.44905 0.36797 0.0
C768 C 0.89752 0.03785 0.13814 0.0
C769 C 0.88936 0.01906 0.17632 0.0
C770 C 0.91452 0.03593 0.08499 0.0
C771 C 0.92453 0.01477 0.0704 0.0
C772 C 0.9184 0.99633 0.11526 0.0
C773 C 0.90071 0.99857 0.16645 0.0
C774 C 0.91986 0.05615 0.03901 0.0
C775 C 0.92928 0.97369 0.10535 0.0
C776 C 0.94045 1.00184 0.87295 0.0
C777 C 0.96347 1.00702 0.86947 0.0
C778 C 0.92789 1.00424 0.93739 0.0
C779 C 0.9385 1.01133 1.00215 0.0
C780 C 0.96197 0.0159 0.99971 0.0
C781 C 0.97401 0.01415 0.93348 0.0
C782 C 0.90296 0.99965 0.93552 0.0
C783 C 0.97443 0.02273 0.06701 0.0
H784 H 0.88866 0.05366 0.14376 0.0
H785 H 0.89448 0.98377 0.19403 0.0
H786 H 0.93825 0.05818 0.03256 0.0
H787 H 0.91265 0.05372 0.98436 0.0
H788 H 0.91286 0.07187 0.06215 0.0
H789 H 0.92661 0.96271 0.15309 0.0
H790 H 0.92194 0.96525 0.05752 0.0
H791 H 0.94759 0.97552 0.09573 0.0
H792 H 0.93196 0.99644 0.82428 0.0
H793 H 0.99174 0.01823 0.932 0.0
H794 H 0.89358 0.01468 0.95419 0.0
H795 H 0.89879 0.98568 0.97279 0.0
H796 H 0.89699 0.99514 0.88064 0.0
H797 H 0.96995 0.04023 0.08154 0.0
H798 H 0.99292 0.02182 0.05961 0.0
H799 H 0.96957 1.01183 0.11309 0.0
C800 C 0.526 0.90709 0.16673 0.0
C801 C 0.50601 0.89467 0.17388 0.0
C802 C 0.52836 0.9243 0.11384 0.0
C803 C 0.51037 0.92945 0.06599 0.0
C804 C 0.48977 0.91777 0.07598 0.0
C805 C 0.48794 0.9006 0.12878 0.0
C806 C 0.55066 0.93607 0.10643 0.0
C807 C 0.46995 0.92236 0.02758 0.0
C808 C 0.51041 0.98181 0.93972 0.0
C809 C 0.51848 0.97296 0.87416 0.0
C810 C 0.50835 0.96823 1.00289 0.0
C811 C 0.51372 0.94491 1.00077 0.0
C812 C 0.52171 0.93599 0.93446 0.0
C813 C 0.52426 0.95 0.87319 0.0
C814 C 0.50037 0.97888 0.07211 0.0
C815 C 0.52723 0.91134 0.92759 0.0
H816 H 0.54032 0.9024 0.19945 0.0
H817 H 0.47257 0.89092 0.13236 0.0
H818 H 0.5592 0.93026 0.05656 0.0
H819 H 0.5482 0.95447 0.10139 0.0
H820 H 0.56187 0.93269 0.15307 0.0
H821 H 0.45446 0.91383 0.04679 0.0
H822 H 0.46666 0.94066 0.0242 0.0
H823 H 0.47376 0.91639 0.97218 0.0
H824 H 0.50587 0.99941 0.94189 0.0
H825 H 0.53036 0.94267 0.82337 0.0
H826 H 0.51259 0.97552 0.11597 0.0
H827 H 0.48414 0.97132 0.08872 0.0
H828 H 0.49813 0.99732 0.06675 0.0
H829 H 0.54046 0.90668 0.96693 0.0
H830 H 0.53312 0.90683 0.87256 0.0
H831 H 0.51216 0.90111 0.9404 0.0
C832 C 0.61405 0.52082 0.17413 0.0
C833 C 0.63302 0.50752 0.15894 0.0
C834 C 0.59597 0.52278 0.12416 0.0
C835 C 0.59672 0.51135 0.05659 0.0
C836 C 0.61527 0.49698 0.04316 0.0
C837 C 0.63289 0.4952 0.09399 0.0
C838 C 0.57657 0.53802 0.1423 0.0
C839 C 0.61724 0.48435 0.97283 0.0
C840 C 0.54589 0.50455 0.92734 0.0
C841 C 0.5499 0.52129 0.87514 0.0
C842 C 0.5603 0.50166 0.98794 0.0
C843 C 0.57944 0.5157 0.99725 0.0
C844 C 0.58308 0.53302 0.94575 0.0
C845 C 0.5684 0.5356 0.88617 0.0
C846 C 0.55535 0.48313 0.04111 0.0
C847 C 0.60306 0.54849 0.95213 0.0
H848 H 0.61388 0.53069 0.22325 0.0
H849 H 0.64731 0.48483 0.08115 0.0
H850 H 0.5776 0.55345 0.10889 0.0
H851 H 0.56037 0.5297 0.12967 0.0
H852 H 0.57658 0.54298 0.20009 0.0
H853 H 0.63176 0.47263 0.97236 0.0
H854 H 0.6017 0.47461 0.96239 0.0
H855 H 0.61928 0.49645 0.92774 0.0
H856 H 0.53176 0.49331 0.91999 0.0
H857 H 0.57182 0.54863 0.84681 0.0
H858 H 0.55532 0.48986 0.09695 0.0
H859 H 0.56873 0.47021 0.0382 0.0
H860 H 0.53893 0.47493 0.03052 0.0
H861 H 0.60316 0.55666 1.0059 0.0
H862 H 0.60312 0.56175 0.90994 0.0
H863 H 0.6188 0.53862 0.94739 0.0
C864 C 0.0213 0.61635 0.16702 0.0
C865 C 1.00335 0.63133 0.17959 0.0
C866 C 0.02022 0.5992 0.11402 0.0
C867 C 1.00044 0.59617 0.07236 0.0
C868 C 0.98147 0.60973 0.08992 0.0
C869 C 0.98321 0.62718 0.14223 0.0
C870 C 0.04117 0.58587 0.0978 0.0
C871 C 0.95974 0.60702 0.0493 0.0
C872 C 1.00735 0.57872 0.87315 0.0
C873 C 1.00258 0.55553 0.87251 0.0
C874 C 1.0068 0.59172 0.93696 0.0
C875 C 1.00086 0.58175 1.00387 0.0
C876 C 0.99593 0.55827 1.00412 0.0
C877 C 0.99705 0.54544 0.93895 0.0
C878 C 0.01279 0.61633 0.93245 0.0
C879 C 0.98925 0.54675 0.07329 0.0
H880 H 0.03715 0.6195 0.19393 0.0
H881 H 0.96934 0.63875 0.14941 0.0
H882 H 0.03718 0.56782 0.09091 0.0
H883 H 0.0486 0.59191 0.04635 0.0
H884 H 0.05397 0.58763 0.141 0.0
H885 H 0.94556 0.61548 0.07724 0.0
H886 H 0.96151 0.61445 0.99467 0.0
H887 H 0.95561 0.58897 0.04245 0.0
H888 H 1.0118 0.58693 0.8229 0.0
H889 H 0.99323 0.52765 0.93989 0.0
H890 H 0.02697 0.62008 0.96931 0.0
H891 H 0.99832 0.62671 0.95005 0.0
H892 H 0.01761 0.62154 0.87697 0.0
H893 H 1.00311 0.54792 0.11304 0.0
H894 H 0.98509 0.52876 0.06485 0.0
H895 H 0.97448 0.55533 0.09727 0.0
C896 C 0.02569 0.19683 0.46289 0.0
C897 C 0.01878 0.21721 0.43325 0.0
C898 C 1.0102 0.17973 0.4756 0.0
C899 C 0.98697 0.18397 0.46525 0.0
C900 C 0.97964 0.20571 0.44576 0.0
C901 C 0.99573 0.22212 0.42918 0.0
C902 C 0.01954 0.15652 0.48825 0.0
C903 C 0.95518 0.21093 0.4326 0.0
C904 C 0.96244 0.1289 0.41062 0.0
C905 C 0.95615 0.12046 0.47821 0.0
C906 C 0.96998 0.15102 0.40347 0.0
C907 C 0.97123 0.16479 0.46555 0.0
C908 C 0.96194 0.15736 0.53156 0.0
C909 C 0.95459 0.13508 0.53737 0.0
C910 C 0.97897 0.15874 0.33138 0.0
C911 C 0.96193 0.17221 0.59757 0.0
H912 H 0.0435 0.19313 0.46649 0.0
H913 H 0.99022 0.23785 0.40561 0.0
H914 H 1.00705 0.14456 0.51 0.0
H915 H 0.02566 0.1497 0.43604 0.0
H916 H 0.03427 0.15734 0.52486 0.0
H917 H 0.95159 0.22896 0.44279 0.0
H918 H 0.95116 0.2074 0.37524 0.0
H919 H 0.94388 0.20057 0.46664 0.0
H920 H 0.96307 0.11772 0.36448 0.0
H921 H 0.94955 0.12864 0.58969 0.0
H922 H 0.9976 0.15835 0.33239 0.0
H923 H 0.97374 0.17628 0.32013 0.0
H924 H 0.97315 0.14782 0.28657 0.0
H925 H 0.97943 0.1752 0.61569 0.0
H926 H 0.95224 0.16469 0.64275 0.0
H927 H 0.9546 0.18883 0.58447 0.0
C928 C 0.31648 0.98284 0.42629 0.0
C929 C 0.31731 1.00606 0.41529 0.0
C930 C 0.33587 0.9711 0.44448 0.0
C931 C 0.35596 0.98322 0.45475 0.0
C932 C 0.35587 1.007 0.45515 0.0
C933 C 0.33643 0.01828 0.43351 0.0
C934 C 0.33547 0.94575 0.44438 0.0
C935 C 0.3768 0.02033 0.47141 0.0
C936 C 0.40764 0.95345 0.52037 0.0
C937 C 0.42044 0.95254 0.4569 0.0
C938 C 0.38618 0.96273 0.52023 0.0
C939 C 0.3774 0.97109 0.45501 0.0
C940 C 0.38948 0.96857 0.38954 0.0
C941 C 0.41108 0.95941 0.39139 0.0
C942 C 0.37423 0.96544 0.59144 0.0
C943 C 0.38015 0.97671 0.31837 0.0
H944 H 0.30147 0.97362 0.41129 0.0
H945 H 0.33682 0.03626 0.42438 0.0
H946 H 0.34533 0.93942 0.39771 0.0
H947 H 0.34343 0.93913 0.49414 0.0
H948 H 0.31813 0.93897 0.44056 0.0
H949 H 0.373 0.03837 0.48061 0.0
H950 H 0.38532 0.01348 0.51992 0.0
H951 H 0.38867 0.01902 0.42539 0.0
H952 H 0.41509 0.94873 0.57159 0.0
H953 H 0.42114 0.95881 0.34259 0.0
H954 H 0.37701 0.95047 0.62605 0.0
H955 H 0.35591 0.96822 0.58604 0.0
H956 H 0.38162 0.98012 0.61931 0.0
H957 H 0.36283 0.97028 0.31045 0.0
H958 H 0.39067 0.97138 0.27187 0.0
H959 H 0.37925 0.99532 0.31849 0.0
C960 C 0.5175 0.33145 0.45283 0.0
C961 C 0.52951 0.31322 0.42558 0.0
C962 C 0.52829 0.35187 0.46523 0.0
C963 C 0.55145 0.35391 0.44836 0.0
C964 C 0.56395 0.33504 0.4259 0.0
C965 C 0.55282 0.31471 0.41601 0.0
C966 C 0.51418 0.37155 0.48946 0.0
C967 C 0.58868 0.33638 0.40762 0.0
C968 C 0.56398 0.41276 0.38936 0.0
C969 C 0.57296 0.42164 0.45295 0.0
C970 C 0.55832 0.39007 0.38534 0.0
C971 C 0.56175 0.37627 0.44648 0.0
C972 C 0.57303 0.38458 0.50777 0.0
C973 C 0.57859 0.40733 0.51027 0.0
C974 C 0.54722 0.38128 0.31774 0.0
C975 C 0.57799 0.36982 0.57213 0.0
H976 H 0.49945 0.33016 0.45968 0.0
H977 H 0.56204 0.30056 0.39413 0.0
H978 H 0.52424 0.38482 0.51596 0.0
H979 H 0.50579 0.37903 0.44171 0.0
H980 H 0.50079 0.36595 0.52727 0.0
H981 H 0.59355 0.32334 0.36771 0.0
H982 H 0.59351 0.35302 0.3856 0.0
H983 H 0.59858 0.33338 0.45734 0.0
H984 H 0.55993 0.42388 0.34487 0.0
H985 H 0.58553 0.41424 0.55955 0.0
H986 H 0.5291 0.37843 0.32824 0.0
H987 H 0.55471 0.36495 0.30178 0.0
H988 H 0.54881 0.39321 0.27189 0.0
H989 H 0.56309 0.35963 0.58707 0.0
H990 H 0.58334 0.37971 0.61993 0.0
H991 H 0.5917 0.35801 0.55806 0.0
C992 C 0.19967 0.55468 0.34439 0.0
C993 C 0.2177 0.54739 0.38702 0.0
C994 C 0.1776 0.55111 0.36577 0.0
C995 C 0.17338 0.53985 0.43149 0.0
C996 C 0.19134 0.53244 0.47534 0.0
C997 C 0.21346 0.53637 0.45251 0.0
C998 C 0.15881 0.55899 0.31696 0.0
C999 C 0.18719 0.52023 0.54549 0.0
C1000 C 0.11552 0.55449 0.49294 0.0
C1001 C 0.10298 0.53756 0.45935 0.0
C1002 C 0.1389 0.55435 0.4901 0.0
C1003 C 0.14989 0.53668 0.45367 0.0
C1004 C 0.13746 0.51851 0.42513 0.0
C1005 C 0.114 0.51927 0.42765 0.0
C1006 C 0.15171 0.57404 0.52081 0.0
C1007 C 0.14878 0.49914 0.3872 0.0
H1008 H 0.20275 0.56229 0.29214 0.0
H1009 H 0.2274 0.53039 0.4848 0.0
H1010 H 0.14853 0.54446 0.29939 0.0
H1011 H 0.14756 0.57064 0.34663 0.0
H1012 H 0.16513 0.56774 0.268 0.0
H1013 H 0.20277 0.51253 0.56726 0.0
H1014 H 0.18057 0.53219 0.58613 0.0
H1015 H 0.17438 0.50688 0.53829 0.0
H1016 H 0.10702 0.56814 0.52039 0.0
H1017 H 0.10433 0.50597 0.40268 0.0
H1018 H 0.15841 0.58443 0.47591 0.0
H1019 H 0.16623 0.56815 0.55306 0.0
H1020 H 0.14097 0.58486 0.5554 0.0
H1021 H 0.15383 0.50444 0.33209 0.0
H1022 H 0.13744 0.48441 0.3823 0.0
H1023 H 0.16421 0.49394 0.4163 0.0
C1024 C 1.00863 0.83298 0.96119 0.0
C1025 C 0.0199 0.81242 0.96328 0.0
C1026 C 0.02017 0.85236 0.94039 0.0
C1027 C 0.04274 0.85037 0.91663 0.0
C1028 C 0.05207 0.82893 0.90359 0.0
C1029 C 0.04011 0.80991 0.92572 0.0
C1030 C 1.00915 0.87472 0.95543 0.0
C1031 C 0.07582 0.8262 0.87672 0.0
C1032 C 0.06924 0.90419 0.8535 0.0
C1033 C 0.0758 0.91374 0.91947 0.0
C1034 C 0.05995 0.88271 0.85065 0.0
C1035 C 0.05726 0.87045 0.91509 0.0
C1036 C 0.06624 0.87886 0.9805 0.0
C1037 C 0.07552 0.90045 0.98185 0.0
C1038 C 0.05221 0.87403 0.7786 0.0
C1039 C 0.06445 0.8659 0.05027 0.0
H1040 H 0.99271 0.83465 0.98928 0.0
H1041 H 0.04848 0.79373 0.9262 0.0
H1042 H 1.00867 0.87752 0.01466 0.0
H1043 H 0.01801 0.88908 0.93021 0.0
H1044 H 0.99147 0.87449 0.93636 0.0
H1045 H 0.07996 0.8084 0.86479 0.0
H1046 H 0.07847 0.8363 0.82717 0.0
H1047 H 0.08767 0.83248 0.91831 0.0
H1048 H 0.0694 0.91413 0.8045 0.0
H1049 H 0.08106 0.9075 0.03272 0.0
H1050 H 0.06721 0.86866 0.7476 0.0
H1051 H 0.04408 0.88777 0.7479 0.0
H1052 H 0.04047 0.85964 0.78208 0.0
H1053 H 0.04705 0.8673 0.07132 0.0
H1054 H 0.07605 0.87251 0.09207 0.0
H1055 H 0.06818 0.84785 0.04144 0.0
C1056 C 0.69716 0.98407 0.95754 0.0
C1057 C 0.70656 0.98597 0.02603 0.0
C1058 C 0.68019 0.99897 0.9362 0.0
C1059 C 0.67288 0.01587 0.98484 0.0
C1060 C 0.68422 0.01924 0.05066 0.0
C1061 C 0.70083 1.00407 0.07085 0.0
C1062 C 0.66957 0.99619 0.86302 0.0
C1063 C 0.67772 0.03788 0.10192 0.0
C1064 C 0.62636 0.0557 0.92894 0.0
C1065 C 0.60761 0.04487 0.95907 0.0
C1066 C 0.64801 0.04679 0.93753 0.0
C1067 C 0.65068 0.02636 0.97544 0.0
C1068 C 0.63197 0.01594 0.00853 0.0
C1069 C 0.61088 0.0258 1.00217 0.0
C1070 C 0.66773 0.05937 0.90595 0.0
C1071 C 0.63409 0.99412 0.0499 0.0
H1072 H 0.70261 0.97068 0.922 0.0
H1073 H 0.70908 1.00601 0.12267 0.0
H1074 H 0.65124 0.9933 0.86875 0.0
H1075 H 0.67201 1.01184 0.83161 0.0
H1076 H 0.677 0.98204 0.83208 0.0
H1077 H 0.69058 0.04053 0.14446 0.0
H1078 H 0.67526 0.05384 0.07201 0.0
H1079 H 0.66157 0.03365 0.12865 0.0
H1080 H 0.62415 0.07057 0.89602 0.0
H1081 H 0.59672 0.01795 0.02896 0.0
H1082 H 0.68208 0.0482 0.89305 0.0
H1083 H 0.67353 0.07199 0.94586 0.0
H1084 H 0.6628 0.06857 0.85627 0.0
H1085 H 0.64302 0.98139 0.01685 0.0
H1086 H 0.61751 0.98711 0.06575 0.0
H1087 H 0.64407 0.99687 0.09962 0.0
C1088 C 0.50284 0.70794 0.98123 0.0
C1089 C 0.52442 0.70582 0.01089 0.0
C1090 C 0.4903 0.68896 0.96332 0.0
C1091 C 0.49947 0.66753 0.97682 0.0
C1092 C 0.52181 0.66524 1.00147 0.0
C1093 C 0.5342 0.68453 0.0171 0.0
C1094 C 0.46682 0.69178 0.93388 0.0
C1095 C 0.5322 0.64247 0.01455 0.0
C1096 C 0.45954 0.61933 0.01035 0.0
C1097 C 0.4602 0.60856 0.94336 0.0
C1098 C 0.4721 0.63889 0.02193 0.0
C1099 C 0.48563 0.64742 0.96528 0.0
C1100 C 0.48633 0.63656 0.89785 0.0
C1101 C 0.47346 0.61732 0.88757 0.0
C1102 C 0.47146 0.65001 0.09509 0.0
C1103 C 0.50085 0.64493 0.8367 0.0
H1104 H 0.49503 0.72433 0.97696 0.0
H1105 H 0.55101 0.68293 0.0389 0.0
H1106 H 0.46491 0.68202 0.88325 0.0
H1107 H 0.45444 0.68509 0.97322 0.0
H1108 H 0.46268 0.70963 0.92265 0.0
H1109 H 0.54998 0.64368 0.03223 0.0
H1110 H 0.52251 0.6334 0.05667 0.0
H1111 H 0.53149 0.63222 0.96462 0.0
H1112 H 0.44965 0.61216 0.05382 0.0
H1113 H 0.4747 0.60844 0.83675 0.0
H1114 H 0.46586 0.6677 0.08954 0.0
H1115 H 0.48859 0.65033 0.11863 0.0
H1116 H 0.46003 0.64124 0.13326 0.0
H1117 H 0.49188 0.65862 0.80812 0.0
H1118 H 0.5046 0.63134 0.79765 0.0
H1119 H 0.51705 0.65179 0.85605 0.0
C1120 C 0.84378 0.53102 0.04391 0.0
C1121 C 0.82125 0.52734 0.02558 0.0
C1122 C 0.86044 0.51601 0.02231 0.0
C1123 C 0.8547 0.49809 0.97588 0.0
C1124 C 0.83262 0.49594 0.94934 0.0
C1125 C 0.81594 0.51029 0.97595 0.0
C1126 C 0.88393 0.51874 0.05205 0.0
C1127 C 0.82651 0.47798 0.89527 0.0
C1128 C 0.90647 0.47438 0.89079 0.0
C1129 C 0.91077 0.45605 0.93586 0.0
C1130 C 0.88726 0.48735 0.9 0.0
C1131 C 0.87214 0.48177 0.95575 0.0
C1132 C 0.87583 0.46254 0.99931 0.0
C1133 C 0.89543 0.44989 0.98918 0.0
C1134 C 0.88375 0.5077 0.85285 0.0
C1135 C 0.86008 0.45641 0.06005 0.0
H1136 H 0.84822 0.54478 0.07935 0.0
H1137 H 0.79864 0.5072 0.961 0.0
H1138 H 0.88919 0.50311 0.07995 0.0
H1139 H 0.896 0.52174 1.00746 0.0
H1140 H 0.8852 0.5329 0.09086 0.0
H1141 H 0.80852 0.47868 0.87966 0.0
H1142 H 0.83692 0.47994 0.84593 0.0
H1143 H 0.83016 0.46111 0.91776 0.0
H1144 H 0.91893 0.4794 0.85134 0.0
H1145 H 0.89924 0.43591 0.0246 0.0
H1146 H 0.88186 0.52309 0.88593 0.0
H1147 H 0.86797 0.50549 0.82221 0.0
H1148 H 0.89782 0.51044 0.81451 0.0
H1149 H 0.86118 0.46932 0.1031 0.0
H1150 H 0.86413 0.43978 0.08387 0.0
H1151 H 0.84246 0.45614 0.04069 0.0
C1152 C 0.03042 0.18852 0.85555 0.0
C1153 C 1.01011 0.20022 0.86571 0.0
C1154 C 0.03093 0.16615 0.82959 0.0
C1155 C 1.01063 0.15471 0.8135 0.0
C1156 C 0.99016 0.1669 0.81943 0.0
C1157 C 0.9901 0.18927 0.84618 0.0
C1158 C 0.05327 0.15447 0.82155 0.0
C1159 C 0.96812 0.15589 0.80111 0.0
C1160 C 1.01148 0.0993 0.70383 0.0
C1161 C 1.01085 0.08281 0.75781 0.0
C1162 C 1.01211 0.12249 0.721 0.0
C1163 C 1.0108 0.12983 0.79387 0.0
C1164 C 1.0098 0.11313 0.8486 0.0
C1165 C 1.01025 0.09003 0.83013 0.0
C1166 C 0.01408 0.13878 0.65966 0.0
C1167 C 1.00815 0.11969 0.92706 0.0
H1168 H 0.04595 0.19653 0.87185 0.0
H1169 H 0.97427 0.19778 0.85541 0.0
H1170 H 0.0539 0.13957 0.85748 0.0
H1171 H 0.05526 0.14838 0.76527 0.0
H1172 H 0.06762 0.16565 0.83478 0.0
H1173 H 0.95429 0.16832 0.79643 0.0
H1174 H 0.96949 0.14647 0.74963 0.0
H1175 H 0.96372 0.14364 0.84403 0.0
H1176 H 1.01206 0.0941 0.64776 0.0
H1177 H 1.00961 0.07752 0.87262 0.0
H1178 H 0.01914 0.15591 0.67642 0.0
H1179 H 0.9976 0.13966 0.63224 0.0
H1180 H 0.02657 0.13235 0.62026 0.0
H1181 H 0.02301 0.12983 0.94256 0.0
H1182 H 1.00708 0.10486 0.96331 0.0
H1183 H 0.99307 0.13031 0.93569 0.0
C1184 C 0.32519 0.01765 0.80084 0.0
C1185 C 0.32185 0.01439 0.87538 0.0
C1186 C 0.34723 0.01889 0.77021 0.0
C1187 C 0.36674 0.01674 0.81462 0.0
C1188 C 0.36328 0.01424 0.89003 0.0
C1189 C 0.34126 0.01316 0.91889 0.0
C1190 C 0.34958 0.02232 0.68996 0.0
C1191 C 0.38297 1.01198 0.94075 0.0
C1192 C 0.42468 0.99654 0.74121 0.0
C1193 C 0.43752 0.01639 0.74007 0.0
C1194 C 0.40176 0.99644 0.76382 0.0
C1195 C 0.3907 0.01679 0.78357 0.0
C1196 C 0.40342 0.03696 0.77954 0.0
C1197 C 0.42646 0.03646 0.75929 0.0
C1198 C 0.3898 0.97424 0.77066 0.0
C1199 C 0.39286 0.05916 0.79907 0.0
H1200 H 0.3106 0.01835 0.766 0.0
H1201 H 0.33917 1.01049 0.97639 0.0
H1202 H 0.35521 0.03978 0.67936 0.0
H1203 H 0.36249 1.01094 0.66728 0.0
H1204 H 0.33349 0.01952 0.66106 0.0
H1205 H 0.37766 1.01074 0.99811 0.0
H1206 H 0.3928 0.99675 0.92686 0.0
H1207 H 0.39436 0.02661 0.93486 0.0
H1208 H 0.43287 0.98081 0.72799 0.0
H1209 H 0.43597 0.05198 0.75905 0.0
H1210 H 0.3723 0.97547 0.75051 0.0
H1211 H 0.38893 0.96943 0.82844 0.0
H1212 H 0.39869 0.96067 0.74102 0.0
H1213 H 0.37715 0.06163 0.76795 0.0
H1214 H 0.40427 0.07355 0.78842 0.0
H1215 H 0.38829 0.05922 0.85714 0.0
C1216 C 0.52312 0.33786 0.8869 0.0
C1217 C 0.50404 0.32469 0.87215 0.0
C1218 C 0.52575 0.35989 0.85805 0.0
C1219 C 0.50891 0.36941 0.81287 0.0
C1220 C 0.4903 0.3556 0.79435 0.0
C1221 C 0.488 0.33377 0.82451 0.0
C1222 C 0.5459 0.37356 0.88023 0.0
C1223 C 0.47196 0.3644 0.74593 0.0
C1224 C 0.49846 0.43352 0.81707 0.0
C1225 C 0.50865 0.44152 0.75319 0.0
C1226 C 0.49874 0.41053 0.83691 0.0
C1227 C 0.50934 0.39436 0.79203 0.0
C1228 C 0.51978 0.40224 0.72753 0.0
C1229 C 0.51939 0.42552 0.70904 0.0
C1230 C 0.48757 0.40354 0.9066 0.0
C1231 C 0.53132 0.386 0.67759 0.0
H1232 H 0.53532 0.33155 0.92524 0.0
H1233 H 0.47288 0.3242 0.81392 0.0
H1234 H 0.55353 0.38194 0.83269 0.0
H1235 H 0.54051 0.38692 0.91822 0.0
H1236 H 0.55889 0.36312 0.90712 0.0
H1237 H 0.46001 0.35101 0.72968 0.0
H1238 H 0.46246 0.37774 0.7745 0.0
H1239 H 0.4793 0.37204 0.6966 0.0
H1240 H 0.49018 0.44537 0.85261 0.0
H1241 H 0.5274 0.43115 0.65968 0.0
H1242 H 0.49983 0.39471 0.94162 0.0
H1243 H 0.47372 0.39161 0.89516 0.0
H1244 H 0.48061 0.41806 0.93688 0.0
H1245 H 0.54409 0.37616 0.70751 0.0
H1246 H 0.53965 0.39473 0.63191 0.0
H1247 H 0.51889 0.37389 0.65594 0.0
C1248 C 0.18735 0.49225 0.84542 0.0
C1249 C 0.19691 0.5126 0.86944 0.0
C1250 C 0.1651 0.49116 0.81724 0.0
C1251 C 0.15141 0.51076 0.81359 0.0
C1252 C 0.16127 0.53143 0.83474 0.0
C1253 C 0.18364 0.53213 0.86093 0.0
C1254 C 0.15601 0.46883 0.79264 0.0
C1255 C 0.14786 0.55291 0.83195 0.0
C1256 C 0.0952 0.51351 0.70612 0.0
C1257 C 0.07899 0.50874 0.75952 0.0
C1258 C 0.11865 0.5136 0.72183 0.0
C1259 C 0.12646 0.5095 0.79343 0.0
C1260 C 0.11008 0.50494 0.84736 0.0
C1261 C 0.08691 0.50435 0.82978 0.0
C1262 C 0.13496 0.51829 0.66132 0.0
C1263 C 0.117 0.50104 0.92469 0.0
H1264 H 0.19696 0.4769 0.85073 0.0
H1265 H 0.19061 0.54826 0.87587 0.0
H1266 H 0.14242 0.4633 0.82962 0.0
H1267 H 0.14858 0.47046 0.73795 0.0
H1268 H 0.16919 0.45564 0.79128 0.0
H1269 H 0.15771 0.56768 0.8503 0.0
H1270 H 0.14203 0.55605 0.77604 0.0
H1271 H 0.13271 0.55133 0.86655 0.0
H1272 H 0.08961 0.51687 0.65151 0.0
H1273 H 0.07484 0.50075 0.87206 0.0
H1274 H 0.15034 0.5079 0.66668 0.0
H1275 H 0.14007 0.53619 0.66312 0.0
H1276 H 0.12733 0.51503 0.60765 0.0
H1277 H 0.12844 0.48637 0.92799 0.0
H1278 H 0.1024 0.49798 0.96076 0.0
H1279 H 0.12638 0.51585 0.94502 0.0
C1280 C 0.02359 0.83416 0.57925 0.0
C1281 C 1.00396 0.82151 0.56637 0.0
C1282 C 0.02305 0.85713 0.5986 0.0
C1283 C 1.00221 0.86819 0.61082 0.0
C1284 C 0.98223 0.85519 0.60224 0.0
C1285 C 0.98331 0.83226 0.5798 0.0
C1286 C 0.04515 0.86953 0.59866 0.0
C1287 C 0.95956 0.86595 0.61243 0.0
C1288 C 1.00145 0.92422 0.71883 0.0
C1289 C 1.00405 0.9406 0.66474 0.0
C1290 C 0.99973 0.90095 0.70222 0.0
C1291 C 1.00146 0.89329 0.62953 0.0
C1292 C 1.00375 0.9099 0.57469 0.0
C1293 C 1.0048 0.93308 0.59274 0.0
C1294 C 0.99558 0.8849 0.76366 0.0
C1295 C 1.00536 0.90326 0.49632 0.0
H1296 H 0.03976 0.82647 0.5683 0.0
H1297 H 0.96794 0.82318 0.56857 0.0
H1298 H 0.05092 0.87155 0.54204 0.0
H1299 H 0.04427 0.88642 0.62337 0.0
H1300 H 0.05817 0.8594 0.62648 0.0
H1301 H 0.95736 0.8707 0.66987 0.0
H1302 H 0.95842 0.88157 0.57984 0.0
H1303 H 0.9456 0.85458 0.59685 0.0
H1304 H 1.00023 0.92963 0.77457 0.0
H1305 H 1.00667 0.94539 0.55004 0.0
H1306 H 1.00032 0.86735 0.75093 0.0
H1307 H 0.97747 0.88526 0.77782 0.0
H1308 H 1.00498 0.89043 0.81195 0.0
H1309 H 0.02243 0.89665 0.4852 0.0
H1310 H 1.00235 0.91773 0.45973 0.0
H1311 H 0.99312 0.88979 0.48347 0.0
C1312 C 0.6878 0.03597 0.55111 0.0
C1313 C 0.69979 0.0156 0.55413 0.0
C1314 C 0.66536 0.03775 0.57752 0.0
C1315 C 0.65431 0.01882 0.60837 0.0
C1316 C 0.66697 0.99876 0.61626 0.0
C1317 C 0.68916 0.99733 0.58869 0.0
C1318 C 0.65314 0.05978 0.57031 0.0
C1319 C 0.65682 0.97847 0.65252 0.0
C1320 C 0.5978 0.0256 0.71284 0.0
C1321 C 0.582 0.01694 0.66382 0.0
C1322 C 0.62112 0.02668 0.69586 0.0
C1323 C 0.62925 0.01925 0.62745 0.0
C1324 C 0.61316 1.01127 0.57703 0.0
C1325 C 0.59011 1.00994 0.59592 0.0
C1326 C 0.6366 0.03591 0.75255 0.0
C1327 C 0.62028 1.00423 0.50216 0.0
H1328 H 0.6955 0.05025 0.52459 0.0
H1329 H 0.69809 0.98151 0.59242 0.0
H1330 H 0.63811 0.05756 0.53564 0.0
H1331 H 0.64718 0.06539 0.62416 0.0
H1332 H 0.66392 0.07314 0.54674 0.0
H1333 H 0.66939 0.96499 0.66178 0.0
H1334 H 0.64934 0.98333 0.70517 0.0
H1335 H 0.64312 0.97161 0.61854 0.0
H1336 H 0.59206 0.03132 0.76528 0.0
H1337 H 0.57828 1.00358 0.55651 0.0
H1338 H 0.63232 0.05378 0.76253 0.0
H1339 H 0.65462 0.03482 0.73796 0.0
H1340 H 0.63374 0.02672 0.80383 0.0
H1341 H 0.63024 0.01782 0.4764 0.0
H1342 H 0.60572 1.00026 0.46699 0.0
H1343 H 0.63121 0.98918 0.50541 0.0
C1344 C 0.52041 0.69605 0.60607 0.0
C1345 C 0.5092 0.70337 0.54346 0.0
C1346 C 0.51844 0.67377 0.63277 0.0
C1347 C 0.50486 0.65763 0.59631 0.0
C1348 C 0.49304 0.66512 0.53381 0.0
C1349 C 0.49521 0.68769 0.50877 0.0
C1350 C 0.53214 0.66786 0.69852 0.0
C1351 C 0.47913 0.64889 0.49031 0.0
C1352 C 0.52288 0.59551 0.62179 0.0
C1353 C 0.5055 0.58591 0.66352 0.0
C1354 C 0.52262 0.61832 0.59947 0.0
C1355 C 0.50461 0.63276 0.61924 0.0
C1356 C 0.48685 0.62319 0.6611 0.0
C1357 C 0.48749 0.60011 0.68236 0.0
C1358 C 0.54181 0.62695 0.55392 0.0
C1359 C 0.46685 0.63706 0.68353 0.0
H1360 H 0.53181 0.70758 0.63266 0.0
H1361 H 0.48706 0.69265 0.45897 0.0
H1362 H 0.53095 0.65 0.71449 0.0
H1363 H 0.55007 0.6719 0.68832 0.0
H1364 H 0.52666 0.67849 0.74449 0.0
H1365 H 0.4733 0.65632 0.43861 0.0
H1366 H 0.48897 0.6335 0.47829 0.0
H1367 H 0.46419 0.64377 0.522 0.0
H1368 H 0.53694 0.58507 0.6059 0.0
H1369 H 0.47363 0.59314 0.71302 0.0
H1370 H 0.55197 0.63896 0.58594 0.0
H1371 H 0.53528 0.63609 0.50609 0.0
H1372 H 0.55302 0.61323 0.5351 0.0
H1373 H 0.47104 0.65514 0.68869 0.0
H1374 H 0.45981 0.63107 0.73559 0.0
H1375 H 0.45346 0.63526 0.64242 0.0
C1376 C 0.82555 0.52179 0.6205 0.0
C1377 C 0.81782 0.50994 0.55966 0.0
C1378 C 0.84785 0.51981 0.64638 0.0
C1379 C 0.86347 0.50521 0.61169 0.0
C1380 C 0.85544 0.49239 0.55187 0.0
C1381 C 0.83288 0.49479 0.52725 0.0
C1382 C 0.85441 0.5348 0.70851 0.0
C1383 C 0.87083 0.47688 0.51058 0.0
C1384 C 0.92568 0.52304 0.63182 0.0
C1385 C 0.93522 0.50613 0.67546 0.0
C1386 C 0.90289 0.52256 0.60987 0.0
C1387 C 0.88836 0.50506 0.63322 0.0
C1388 C 0.8978 0.48787 0.67736 0.0
C1389 C 0.92099 0.48839 0.69663 0.0
C1390 C 0.89437 0.54097 0.56101 0.0
C1391 C 0.88339 0.4689 0.70491 0.0
H1392 H 0.81443 0.53392 0.64559 0.0
H1393 H 0.82754 0.48592 0.47917 0.0
H1394 H 0.87216 0.53308 0.72514 0.0
H1395 H 0.85139 0.55259 0.69343 0.0
H1396 H 0.84341 0.53117 0.75555 0.0
H1397 H 0.86528 0.47495 0.4537 0.0
H1398 H 0.88847 0.48287 0.5106 0.0
H1399 H 0.87037 0.46002 0.53592 0.0
H1400 H 0.93618 0.53679 0.6136 0.0
H1401 H 0.92798 0.47481 0.72834 0.0
H1402 H 0.88295 0.55214 0.59183 0.0
H1403 H 0.88464 0.53372 0.51554 0.0
H1404 H 0.90823 0.55134 0.53858 0.0
H1405 H 0.86712 0.47537 0.72554 0.0
H1406 H 0.89183 0.45927 0.74845 0.0
H1407 H 0.87971 0.45718 0.66006 0.0
loop_
_geom_bond_atom_site_label_1
_geom_bond_atom_site_label_2
_geom_bond_distance
_geom_bond_site_symmetry_2
_ccdc_geom_bond_type
C0 C1 1.391 . S
C0 C4 1.391 . S
C0 H42 0.948 . S
C1 C0 1.391 . S
C1 C2 1.391 . S
C2 C1 1.391 . S
C2 H58 0.947 . S
C2 C59 1.392 . S
C3 C4 1.391 . S
C3 C7 1.397 . S
C3 C59 1.419 . S
C4 C0 1.391 . S
C4 C3 1.391 . S
C4 C5 1.399 . S
C5 C4 1.399 . S
C5 C8 1.396 . S
C5 C17 1.453 . S
C5 C18 1.684 . S
H6 C30 0.948 . S
C7 C3 1.397 . S
C7 C8 1.394 . S
C7 C26 1.723 . S
C8 C5 1.396 . S
C8 C7 1.394 . S
C8 C38 1.723 . S
H9 C32 0.947 . S
H10 C33 0.948 . S
H11 C39 0.982 . S
H12 C40 0.979 . S
H13 C40 0.980 . S
H14 C40 0.983 . S
H15 C39 0.979 . S
H16 C39 0.977 . S
C17 C5 1.453 . S
C17 H46 0.982 . S
C17 H47 0.979 . S
C17 H48 0.977 . S
C18 C5 1.684 . S
C18 H43 0.979 . S
C18 H44 0.980 . S
C18 H45 0.983 . S
C19 C20 1.391 . S
C19 C24 1.391 . S
C19 H49 0.948 . S
C20 C19 1.391 . S
C20 C21 1.391 . S
C21 C20 1.391 . S
C21 C22 1.392 . S
C21 H50 0.947 . S
C22 C21 1.392 . S
C22 C23 1.419 . S
C22 H51 0.948 . S
C23 C22 1.419 . S
C23 C24 1.391 . S
C23 C27 1.397 . S
C24 C19 1.391 . S
C24 C23 1.391 . S
C24 C25 1.399 . S
C25 C24 1.399 . S
C25 C26 1.396 . S
C25 C28 1.453 . S
C25 C29 1.684 . S
C26 C7 1.723 . S
C26 C25 1.396 . S
C26 C27 1.394 . S
C27 C23 1.397 . S
C27 C26 1.394 . S
C27 C37 1.723 . S
C28 C25 1.453 . S
C28 H52 0.982 . S
C28 H53 0.979 . S
C28 H54 0.977 . S
C29 C25 1.684 . S
C29 H55 0.979 . S
C29 H56 0.980 . S
C29 H57 0.983 . S
C30 H6 0.948 . S
C30 C31 1.391 . S
C30 C35 1.391 . S
C31 C30 1.391 . S
C31 C32 1.391 . S
C32 H9 0.947 . S
C32 C31 1.391 . S
C32 C33 1.392 . S
C33 H10 0.948 . S
C33 C32 1.392 . S
C33 C34 1.419 . S
C34 C33 1.419 . S
C34 C35 1.391 . S
C34 C38 1.397 . S
C35 C30 1.391 . S
C35 C34 1.391 . S
C35 C36 1.399 . S
C36 C35 1.399 . S
C36 C37 1.396 . S
C36 C39 1.453 . S
C36 C40 1.684 . S
C37 C27 1.723 . S
C37 C36 1.396 . S
C37 C38 1.394 . S
C38 C8 1.723 . S
C38 C34 1.397 . S
C38 C37 1.394 . S
C39 H11 0.982 . S
C39 H15 0.979 . S
C39 H16 0.977 . S
C39 C36 1.453 . S
C40 H12 0.979 . S
C40 H13 0.980 . S
C40 H14 0.983 . S
C40 C36 1.684 . S
H41 C59 0.948 . S
H42 C0 0.948 . S
H43 C18 0.979 . S
H44 C18 0.980 . S
H45 C18 0.983 . S
H46 C17 0.982 . S
H47 C17 0.979 . S
H48 C17 0.977 . S
H49 C19 0.948 . S
H50 C21 0.947 . S
H51 C22 0.948 . S
H52 C28 0.982 . S
H53 C28 0.979 . S
H54 C28 0.977 . S
H55 C29 0.979 . S
H56 C29 0.980 . S
H57 C29 0.983 . S
H58 C2 0.947 . S
C59 C2 1.392 . S
C59 C3 1.419 . S
C59 H41 0.948 . S
C60 C61 1.391 . S
C60 C64 1.391 . S
C60 H102 0.948 . S
C61 C60 1.391 . S
C61 C62 1.391 . S
C62 C61 1.391 . S
C62 H118 0.947 . S
C62 C119 1.392 . S
C63 C64 1.391 . S
C63 C67 1.397 1_655 S
C63 C119 1.419 . S
C64 C60 1.391 . S
C64 C63 1.391 . S
C64 C65 1.399 . S
C65 C64 1.399 . S
C65 C68 1.396 1_655 S
C65 C77 1.453 1_655 S
C65 C78 1.684 . S
H66 C90 0.948 . S
C67 C63 1.397 1_455 S
C67 C68 1.394 . S
C67 C86 1.723 . S
C68 C65 1.396 1_455 S
C68 C67 1.394 . S
C68 C98 1.723 . S
H69 C92 0.947 . S
H70 C93 0.948 . S
H71 C99 0.982 . S
H72 C100 0.979 . S
H73 C100 0.980 . S
H74 C100 0.983 . S
H75 C99 0.979 . S
H76 C99 0.977 . S
C77 C65 1.453 1_455 S
C77 H106 0.982 . S
C77 H107 0.979 . S
C77 H108 0.977 . S
C78 C65 1.684 . S
C78 H103 0.979 . S
C78 H104 0.980 . S
C78 H105 0.983 . S
C79 C80 1.391 . S
C79 C84 1.391 . S
C79 H109 0.948 . S
C80 C79 1.391 . S
C80 C81 1.391 . S
C81 C80 1.391 . S
C81 C82 1.392 . S
C81 H110 0.947 . S
C82 C81 1.392 . S
C82 C83 1.419 . S
C82 H111 0.948 . S
C83 C82 1.419 . S
C83 C84 1.391 . S
C83 C87 1.397 1_655 S
C84 C79 1.391 . S
C84 C83 1.391 . S
C84 C85 1.399 . S
C85 C84 1.399 . S
C85 C86 1.396 1_655 S
C85 C88 1.453 1_655 S
C85 C89 1.684 . S
C86 C67 1.723 . S
C86 C85 1.396 1_455 S
C86 C87 1.394 . S
C87 C83 1.397 1_455 S
C87 C86 1.394 . S
C87 C97 1.723 . S
C88 C85 1.453 1_455 S
C88 H112 0.982 . S
C88 H113 0.979 . S
C88 H114 0.977 . S
C89 C85 1.684 . S
C89 H115 0.979 . S
C89 H116 0.980 . S
C89 H117 0.983 . S
C90 H66 0.948 . S
C90 C91 1.391 . S
C90 C95 1.391 . S
C91 C90 1.391 . S
C91 C92 1.391 . S
C92 H69 0.947 . S
C92 C91 1.391 . S
C92 C93 1.392 . S
C93 H70 0.948 . S
C93 C92 1.392 . S
C93 C94 1.419 . S
C94 C93 1.419 . S
C94 C95 1.391 . S
C94 C98 1.397 1_655 S
C95 C90 1.391 . S
C95 C94 1.391 . S
C95 C96 1.399 . S
C96 C95 1.399 . S
C96 C97 1.396 1_655 S
C96 C99 1.453 1_655 S
C96 C100 1.684 . S
C97 C87 1.723 . S
C97 C96 1.396 1_455 S
C97 C98 1.394 . S
C98 C68 1.723 . S
C98 C94 1.397 1_455 S
C98 C97 1.394 . S
C99 H71 0.982 . S
C99 H75 0.979 . S
C99 H76 0.977 . S
C99 C96 1.453 1_455 S
C100 H72 0.979 . S
C100 H73 0.980 . S
C100 H74 0.983 . S
C100 C96 1.684 . S
H101 C119 0.948 . S
H102 C60 0.948 . S
H103 C78 0.979 . S
H104 C78 0.980 . S
H105 C78 0.983 . S
H106 C77 0.982 . S
H107 C77 0.979 . S
H108 C77 0.977 . S
H109 C79 0.948 . S
H110 C81 0.947 . S
H111 C82 0.948 . S
H112 C88 0.982 . S
H113 C88 0.979 . S
H114 C88 0.977 . S
H115 C89 0.979 . S
H116 C89 0.980 . S
H117 C89 0.983 . S
H118 C62 0.947 . S
C119 C62 1.392 . S
C119 C63 1.419 . S
C119 H101 0.948 . S
C120 C121 1.391 . S
C120 C124 1.391 . S
C120 H162 0.948 . S
C121 C120 1.391 . S
C121 C122 1.391 . S
C122 C121 1.391 . S
C122 H178 0.947 . S
C122 C179 1.392 . S
C123 C124 1.391 . S
C123 C127 1.397 1_565 S
C123 C179 1.419 . S
C124 C120 1.391 . S
C124 C123 1.391 . S
C124 C125 1.399 . S
C125 C124 1.399 . S
C125 C128 1.396 1_565 S
C125 C137 1.453 1_565 S
C125 C138 1.684 . S
H126 C150 0.948 . S
C127 C123 1.397 1_545 S
C127 C128 1.394 . S
C127 C146 1.723 . S
C128 C125 1.396 1_545 S
C128 C127 1.394 . S
C128 C158 1.723 . S
H129 C152 0.947 . S
H130 C153 0.948 . S
H131 C159 0.982 . S
H132 C160 0.979 . S
H133 C160 0.980 . S
H134 C160 0.983 . S
H135 C159 0.979 . S
H136 C159 0.977 . S
C137 C125 1.453 1_545 S
C137 H166 0.982 . S
C137 H167 0.979 . S
C137 H168 0.977 . S
C138 C125 1.684 . S
C138 H163 0.979 . S
C138 H164 0.980 . S
C138 H165 0.983 . S
C139 C140 1.391 . S
C139 C144 1.391 . S
C139 H169 0.948 . S
C140 C139 1.391 . S
C140 C141 1.391 . S
C141 C140 1.391 . S
C141 C142 1.392 . S
C141 H170 0.947 . S
C142 C141 1.392 . S
C142 C143 1.419 . S
C142 H171 0.948 . S
C143 C142 1.419 . S
C143 C144 1.391 . S
C143 C147 1.397 1_565 S
C144 C139 1.391 . S
C144 C143 1.391 . S
C144 C145 1.399 . S
C145 C144 1.399 . S
C145 C146 1.396 1_565 S
C145 C148 1.453 1_565 S
C145 C149 1.684 . S
C146 C127 1.723 . S
C146 C145 1.396 1_545 S
C146 C147 1.394 . S
C147 C143 1.397 1_545 S
C147 C146 1.394 . S
C147 C157 1.723 . S
C148 C145 1.453 1_545 S
C148 H172 0.982 . S
C148 H173 0.979 . S
C148 H174 0.977 . S
C149 C145 1.684 . S
C149 H175 0.979 . S
C149 H176 0.980 . S
C149 H177 0.983 . S
C150 H126 0.948 . S
C150 C151 1.391 . S
C150 C155 1.391 . S
C151 C150 1.391 . S
C151 C152 1.391 . S
C152 H129 0.947 . S
C152 C151 1.391 . S
C152 C153 1.392 . S
C153 H130 0.948 . S
C153 C152 1.392 . S
C153 C154 1.419 . S
C154 C153 1.419 . S
C154 C155 1.391 . S
C154 C158 1.397 1_565 S
C155 C150 1.391 . S
C155 C154 1.391 . S
C155 C156 1.399 . S
C156 C155 1.399 . S
C156 C157 1.396 1_565 S
C156 C159 1.453 1_565 S
C156 C160 1.684 . S
C157 C147 1.723 . S
C157 C156 1.396 1_545 S
C157 C158 1.394 . S
C158 C128 1.723 . S
C158 C154 1.397 1_545 S
C158 C157 1.394 . S
C159 H131 0.982 . S
C159 H135 0.979 . S
C159 H136 0.977 . S
C159 C156 1.453 1_545 S
C160 H132 0.979 . S
C160 H133 0.980 . S
C160 H134 0.983 . S
C160 C156 1.684 . S
H161 C179 0.948 . S
H162 C120 0.948 . S
H163 C138 0.979 . S
H164 C138 0.980 . S
H165 C138 0.983 . S
H166 C137 0.982 . S
H167 C137 0.979 . S
H168 C137 0.977 . S
H169 C139 0.948 . S
H170 C141 0.947 . S
H171 C142 0.948 . S
H172 C148 0.982 . S
H173 C148 0.979 . S
H174 C148 0.977 . S
H175 C149 0.979 . S
H176 C149 0.980 . S
H177 C149 0.983 . S
H178 C122 0.947 . S
C179 C122 1.392 . S
C179 C123 1.419 . S
C179 H161 0.948 . S
C180 C181 1.391 . S
C180 C184 1.391 . S
C180 H222 0.948 . S
C181 C180 1.391 . S
C181 C182 1.391 . S
C182 C181 1.391 . S
C182 H238 0.947 . S
C182 C239 1.392 . S
C183 C184 1.391 . S
C183 C187 1.397 . S
C183 C239 1.419 . S
C184 C180 1.391 . S
C184 C183 1.391 . S
C184 C185 1.399 . S
C185 C184 1.399 . S
C185 C188 1.396 . S
C185 C197 1.453 . S
C185 C198 1.684 . S
H186 C210 0.948 . S
C187 C183 1.397 . S
C187 C188 1.394 . S
C187 C206 1.723 . S
C188 C185 1.396 . S
C188 C187 1.394 . S
C188 C218 1.723 . S
H189 C212 0.947 . S
H190 C213 0.948 . S
H191 C219 0.982 . S
H192 C220 0.979 . S
H193 C220 0.980 . S
H194 C220 0.983 . S
H195 C219 0.979 . S
H196 C219 0.977 . S
C197 C185 1.453 . S
C197 H226 0.982 . S
C197 H227 0.979 . S
C197 H228 0.977 . S
C198 C185 1.684 . S
C198 H223 0.979 . S
C198 H224 0.980 . S
C198 H225 0.983 . S
C199 C200 1.391 . S
C199 C204 1.391 . S
C199 H229 0.948 . S
C200 C199 1.391 . S
C200 C201 1.391 . S
C201 C200 1.391 . S
C201 C202 1.392 . S
C201 H230 0.947 . S
C202 C201 1.392 . S
C202 C203 1.419 . S
C202 H231 0.948 . S
C203 C202 1.419 . S
C203 C204 1.391 . S
C203 C207 1.397 . S
C204 C199 1.391 . S
C204 C203 1.391 . S
C204 C205 1.399 . S
C205 C204 1.399 . S
C205 C206 1.396 . S
C205 C208 1.453 . S
C205 C209 1.684 . S
C206 C187 1.723 . S
C206 C205 1.396 . S
C206 C207 1.394 . S
C207 C203 1.397 . S
C207 C206 1.394 . S
C207 C217 1.723 . S
C208 C205 1.453 . S
C208 H232 0.982 . S
C208 H233 0.979 . S
C208 H234 0.977 . S
C209 C205 1.684 . S
C209 H235 0.979 . S
C209 H236 0.980 . S
C209 H237 0.983 . S
C210 H186 0.948 . S
C210 C211 1.391 . S
C210 C215 1.391 . S
C211 C210 1.391 . S
C211 C212 1.391 . S
C212 H189 0.947 . S
C212 C211 1.391 . S
C212 C213 1.392 . S
C213 H190 0.948 . S
C213 C212 1.392 . S
C213 C214 1.419 . S
C214 C213 1.419 . S
C214 C215 1.391 . S
C214 C218 1.397 . S
C215 C210 1.391 . S
C215 C214 1.391 . S
C215 C216 1.399 . S
C216 C215 1.399 . S
C216 C217 1.396 . S
C216 C219 1.453 . S
C216 C220 1.684 . S
C217 C207 1.723 . S
C217 C216 1.396 . S
C217 C218 1.394 . S
C218 C188 1.723 . S
C218 C214 1.397 . S
C218 C217 1.394 . S
C219 H191 0.982 . S
C219 H195 0.979 . S
C219 H196 0.977 . S
C219 C216 1.453 . S
C220 H192 0.979 . S
C220 H193 0.980 . S
C220 H194 0.983 . S
C220 C216 1.684 . S
H221 C239 0.948 . S
H222 C180 0.948 . S
H223 C198 0.979 . S
H224 C198 0.980 . S
H225 C198 0.983 . S
H226 C197 0.982 . S
H227 C197 0.979 . S
H228 C197 0.977 . S
H229 C199 0.948 . S
H230 C201 0.947 . S
H231 C202 0.948 . S
H232 C208 0.982 . S
H233 C208 0.979 . S
H234 C208 0.977 . S
H235 C209 0.979 . S
H236 C209 0.980 . S
H237 C209 0.983 . S
H238 C182 0.947 . S
C239 C182 1.392 . S
C239 C183 1.419 . S
C239 H221 0.948 . S
C240 C241 1.391 . S
C240 C244 1.391 . S
C240 H282 0.948 . S
C241 C240 1.391 . S
C241 C242 1.391 . S
C242 C241 1.391 . S
C242 H298 0.947 . S
C242 C299 1.392 . S
C243 C244 1.391 . S
C243 C247 1.397 . S
C243 C299 1.419 . S
C244 C240 1.391 . S
C244 C243 1.391 . S
C244 C245 1.399 1_554 S
C245 C244 1.399 1_556 S
C245 C248 1.396 . S
C245 C257 1.453 . S
C245 C258 1.684 . S
H246 C270 0.948 . S
C247 C243 1.397 . S
C247 C248 1.394 1_554 S
C247 C266 1.723 . S
C248 C245 1.396 . S
C248 C247 1.394 1_556 S
C248 C278 1.723 . S
H249 C272 0.947 . S
H250 C273 0.948 . S
H251 C279 0.982 . S
H252 C280 0.979 . S
H253 C280 0.980 1_554 S
H254 C280 0.983 . S
H255 C279 0.979 . S
H256 C279 0.977 1_554 S
C257 C245 1.453 . S
C257 H286 0.982 . S
C257 H287 0.979 . S
C257 H288 0.977 . S
C258 C245 1.684 . S
C258 H283 0.979 . S
C258 H284 0.980 . S
C258 H285 0.983 . S
C259 C260 1.391 . S
C259 C264 1.391 . S
C259 H289 0.948 . S
C260 C259 1.391 . S
C260 C261 1.391 . S
C261 C260 1.391 . S
C261 C262 1.392 . S
C261 H290 0.947 . S
C262 C261 1.392 . S
C262 C263 1.419 . S
C262 H291 0.948 . S
C263 C262 1.419 . S
C263 C264 1.391 . S
C263 C267 1.397 . S
C264 C259 1.391 . S
C264 C263 1.391 . S
C264 C265 1.399 . S
C265 C264 1.399 . S
C265 C266 1.396 . S
C265 C268 1.453 . S
C265 C269 1.684 . S
C266 C247 1.723 . S
C266 C265 1.396 . S
C266 C267 1.394 . S
C267 C263 1.397 . S
C267 C266 1.394 . S
C267 C277 1.723 1_554 S
C268 C265 1.453 . S
C268 H292 0.982 . S
C268 H293 0.979 . S
C268 H294 0.977 . S
C269 C265 1.684 . S
C269 H295 0.979 . S
C269 H296 0.980 . S
C269 H297 0.983 . S
C270 H246 0.948 . S
C270 C271 1.391 . S
C270 C275 1.391 . S
C271 C270 1.391 . S
C271 C272 1.391 . S
C272 H249 0.947 . S
C272 C271 1.391 . S
C272 C273 1.392 . S
C273 H250 0.948 . S
C273 C272 1.392 . S
C273 C274 1.419 . S
C274 C273 1.419 . S
C274 C275 1.391 . S
C274 C278 1.397 . S
C275 C270 1.391 . S
C275 C274 1.391 . S
C275 C276 1.399 . S
C276 C275 1.399 . S
C276 C277 1.397 . S
C276 C279 1.453 . S
C276 C280 1.684 . S
C277 C267 1.723 1_556 S
C277 C276 1.397 . S
C277 C278 1.394 . S
C278 C248 1.723 . S
C278 C274 1.397 . S
C278 C277 1.394 . S
C279 H251 0.982 . S
C279 H255 0.979 . S
C279 H256 0.977 1_556 S
C279 C276 1.453 . S
C280 H252 0.979 . S
C280 H253 0.980 1_556 S
C280 H254 0.983 . S
C280 C276 1.684 . S
H281 C299 0.948 . S
H282 C240 0.948 . S
H283 C258 0.979 . S
H284 C258 0.980 . S
H285 C258 0.983 . S
H286 C257 0.982 . S
H287 C257 0.979 . S
H288 C257 0.977 . S
H289 C259 0.948 . S
H290 C261 0.947 . S
H291 C262 0.948 . S
H292 C268 0.982 . S
H293 C268 0.979 . S
H294 C268 0.977 . S
H295 C269 0.979 . S
H296 C269 0.980 . S
H297 C269 0.983 . S
H298 C242 0.947 . S
C299 C242 1.392 . S
C299 C243 1.419 . S
C299 H281 0.948 . S
C300 C301 1.391 . S
C300 C304 1.391 . S
C300 H342 0.948 . S
C301 C300 1.391 . S
C301 C302 1.391 . S
C302 C301 1.391 . S
C302 H358 0.947 . S
C302 C359 1.392 . S
C303 C304 1.398 . S
C303 C307 1.395 1_655 S
C303 C359 1.424 . S
C304 C300 1.391 . S
C304 C303 1.398 . S
C304 C305 1.399 . S
C305 C304 1.399 . S
C305 C308 1.396 1_655 S
C305 C317 1.453 1_655 S
C305 C318 1.684 . S
H306 C330 0.948 . S
C307 C303 1.395 1_455 S
C307 C308 1.395 . S
C307 C326 1.723 . S
C308 C305 1.396 1_455 S
C308 C307 1.395 . S
C308 C338 1.723 . S
H309 C332 0.947 . S
H310 C333 0.948 . S
H311 C339 0.982 . S
H312 C340 0.979 . S
H313 C340 0.980 . S
H314 C340 0.983 . S
H315 C339 0.979 . S
H316 C339 0.977 . S
C317 C305 1.453 1_455 S
C317 H346 0.982 . S
C317 H347 0.979 . S
C317 H348 0.977 . S
C318 C305 1.684 . S
C318 H343 0.979 . S
C318 H344 0.980 . S
C318 H345 0.983 . S
C319 C320 1.391 . S
C319 C324 1.391 . S
C319 H349 0.948 . S
C320 C319 1.391 . S
C320 C321 1.391 . S
C321 C320 1.391 . S
C321 C322 1.392 . S
C321 H350 0.947 . S
C322 C321 1.392 . S
C322 C323 1.424 . S
C322 H351 0.948 . S
C323 C322 1.424 . S
C323 C324 1.398 . S
C323 C327 1.395 1_655 S
C324 C319 1.391 . S
C324 C323 1.398 . S
C324 C325 1.399 . S
C325 C324 1.399 . S
C325 C326 1.396 1_656 S
C325 C328 1.453 1_655 S
C325 C329 1.684 . S
C326 C307 1.723 . S
C326 C325 1.396 1_454 S
C326 C327 1.395 1_554 S
C327 C323 1.395 1_455 S
C327 C326 1.395 1_556 S
C327 C337 1.724 . S
C328 C325 1.453 1_455 S
C328 H352 0.982 . S
C328 H353 0.979 . S
C328 H354 0.977 1_556 S
C329 C325 1.684 . S
C329 H355 0.979 . S
C329 H356 0.980 1_556 S
C329 H357 0.983 . S
C330 H306 0.948 . S
C330 C331 1.391 . S
C330 C335 1.391 . S
C331 C330 1.391 . S
C331 C332 1.391 . S
C332 H309 0.947 . S
C332 C331 1.391 . S
C332 C333 1.392 . S
C333 H310 0.948 . S
C333 C332 1.392 . S
C333 C334 1.424 . S
C334 C333 1.424 . S
C334 C335 1.398 . S
C334 C338 1.395 1_655 S
C335 C330 1.391 . S
C335 C334 1.398 . S
C335 C336 1.399 1_554 S
C336 C335 1.399 1_556 S
C336 C337 1.397 1_655 S
C336 C339 1.453 1_655 S
C336 C340 1.684 . S
C337 C327 1.724 . S
C337 C336 1.397 1_455 S
C337 C338 1.393 1_556 S
C338 C308 1.723 . S
C338 C334 1.395 1_455 S
C338 C337 1.393 1_554 S
C339 H311 0.982 . S
C339 H315 0.979 . S
C339 H316 0.977 . S
C339 C336 1.453 1_455 S
C340 H312 0.979 . S
C340 H313 0.980 . S
C340 H314 0.983 . S
C340 C336 1.684 . S
H341 C359 0.948 . S
H342 C300 0.948 . S
H343 C318 0.979 . S
H344 C318 0.980 . S
H345 C318 0.983 . S
H346 C317 0.982 . S
H347 C317 0.979 . S
H348 C317 0.977 . S
H349 C319 0.948 . S
H350 C321 0.947 . S
H351 C322 0.948 . S
H352 C328 0.982 . S
H353 C328 0.979 . S
H354 C328 0.977 1_554 S
H355 C329 0.979 . S
H356 C329 0.980 1_554 S
H357 C329 0.983 . S
H358 C302 0.947 . S
C359 C302 1.392 . S
C359 C303 1.424 . S
C359 H341 0.948 . S
C360 C361 1.391 . S
C360 C364 1.391 . S
C360 H402 0.948 . S
C361 C360 1.391 . S
C361 C362 1.391 . S
C362 C361 1.391 . S
C362 H418 0.947 . S
C362 C419 1.392 . S
C363 C364 1.391 . S
C363 C367 1.397 1_545 S
C363 C419 1.419 . S
C364 C360 1.391 . S
C364 C363 1.391 . S
C364 C365 1.399 . S
C365 C364 1.399 . S
C365 C368 1.396 1_545 S
C365 C377 1.453 1_545 S
C365 C378 1.684 . S
H366 C390 0.948 . S
C367 C363 1.397 1_565 S
C367 C368 1.394 . S
C367 C386 1.723 1_556 S
C368 C365 1.396 1_565 S
C368 C367 1.394 . S
C368 C398 1.723 1_556 S
H369 C392 0.947 1_556 S
H370 C393 0.948 1_556 S
H371 C399 0.982 . S
H372 C400 0.979 . S
H373 C400 0.980 . S
H374 C400 0.983 . S
H375 C399 0.979 . S
H376 C399 0.977 . S
C377 C365 1.453 1_565 S
C377 H406 0.982 . S
C377 H407 0.979 . S
C377 H408 0.977 . S
C378 C365 1.684 . S
C378 H403 0.979 . S
C378 H404 0.980 . S
C378 H405 0.983 . S
C379 C380 1.391 . S
C379 C384 1.391 . S
C379 H409 0.948 . S
C380 C379 1.391 . S
C380 C381 1.391 . S
C381 C380 1.391 . S
C381 C382 1.392 . S
C381 H410 0.947 . S
C382 C381 1.392 . S
C382 C383 1.419 . S
C382 H411 0.948 . S
C383 C382 1.419 . S
C383 C384 1.391 . S
C383 C387 1.397 1_545 S
C384 C379 1.391 . S
C384 C383 1.391 . S
C384 C385 1.399 . S
C385 C384 1.399 . S
C385 C386 1.396 1_545 S
C385 C388 1.453 1_545 S
C385 C389 1.684 . S
C386 C367 1.723 1_554 S
C386 C385 1.396 1_565 S
C386 C387 1.394 . S
C387 C383 1.397 1_565 S
C387 C386 1.394 . S
C387 C397 1.723 . S
C388 C385 1.453 1_565 S
C388 H412 0.982 . S
C388 H413 0.979 . S
C388 H414 0.977 1_554 S
C389 C385 1.684 . S
C389 H415 0.979 . S
C389 H416 0.980 1_554 S
C389 H417 0.983 . S
C390 H366 0.948 . S
C390 C391 1.391 . S
C390 C395 1.391 . S
C391 C390 1.391 . S
C391 C392 1.391 . S
C392 H369 0.947 1_554 S
C392 C391 1.391 . S
C392 C393 1.392 . S
C393 H370 0.948 1_554 S
C393 C392 1.392 . S
C393 C394 1.419 . S
C394 C393 1.419 . S
C394 C395 1.391 . S
C394 C398 1.397 1_545 S
C395 C390 1.391 . S
C395 C394 1.391 . S
C395 C396 1.399 . S
C396 C395 1.399 . S
C396 C397 1.396 1_545 S
C396 C399 1.453 1_545 S
C396 C400 1.684 . S
C397 C387 1.723 . S
C397 C396 1.396 1_565 S
C397 C398 1.394 . S
C398 C368 1.723 1_554 S
C398 C394 1.397 1_565 S
C398 C397 1.394 . S
C399 H371 0.982 . S
C399 H375 0.979 . S
C399 H376 0.977 . S
C399 C396 1.453 1_565 S
C400 H372 0.979 . S
C400 H373 0.980 . S
C400 H374 0.983 . S
C400 C396 1.684 . S
H401 C419 0.948 . S
H402 C360 0.948 . S
H403 C378 0.979 . S
H404 C378 0.980 . S
H405 C378 0.983 . S
H406 C377 0.982 . S
H407 C377 0.979 . S
H408 C377 0.977 . S
H409 C379 0.948 . S
H410 C381 0.947 . S
H411 C382 0.948 . S
H412 C388 0.982 . S
H413 C388 0.979 . S
H414 C388 0.977 1_556 S
H415 C389 0.979 . S
H416 C389 0.980 1_556 S
H417 C389 0.983 . S
H418 C362 0.947 . S
C419 C362 1.392 . S
C419 C363 1.419 . S
C419 H401 0.948 . S
C420 C421 1.391 . S
C420 C424 1.391 . S
C420 H462 0.948 . S
C421 C420 1.391 . S
C421 C422 1.391 . S
C422 C421 1.391 . S
C422 H478 0.947 . S
C422 C479 1.392 . S
C423 C424 1.391 . S
C423 C427 1.397 . S
C423 C479 1.419 . S
C424 C420 1.391 . S
C424 C423 1.391 . S
C424 C425 1.399 . S
C425 C424 1.399 . S
C425 C428 1.396 . S
C425 C437 1.453 . S
C425 C438 1.684 . S
H426 C450 0.948 . S
C427 C423 1.397 . S
C427 C428 1.394 . S
C427 C446 1.723 1_556 S
C428 C425 1.396 . S
C428 C427 1.394 . S
C428 C458 1.723 1_556 S
H429 C452 0.947 1_556 S
H430 C453 0.950 . S
H431 C459 0.982 . S
H432 C460 0.979 . S
H433 C460 0.980 . S
H434 C460 0.983 . S
H435 C459 0.979 . S
H436 C459 0.977 . S
C437 C425 1.453 . S
C437 H466 0.982 . S
C437 H467 0.979 . S
C437 H468 0.977 . S
C438 C425 1.684 . S
C438 H463 0.979 . S
C438 H464 0.980 . S
C438 H465 0.983 . S
C439 C440 1.391 . S
C439 C444 1.391 . S
C439 H469 0.948 . S
C440 C439 1.391 . S
C440 C441 1.391 . S
C441 C440 1.391 . S
C441 C442 1.392 . S
C441 H470 0.947 . S
C442 C441 1.392 . S
C442 C443 1.419 . S
C442 H471 0.948 . S
C443 C442 1.419 . S
C443 C444 1.391 . S
C443 C447 1.397 . S
C444 C439 1.391 . S
C444 C443 1.391 . S
C444 C445 1.399 . S
C445 C444 1.399 . S
C445 C446 1.396 . S
C445 C448 1.453 . S
C445 C449 1.684 . S
C446 C427 1.723 1_554 S
C446 C445 1.396 . S
C446 C447 1.394 . S
C447 C443 1.397 . S
C447 C446 1.394 . S
C447 C457 1.723 . S
C448 C445 1.453 . S
C448 H472 0.982 . S
C448 H473 0.979 . S
C448 H474 0.977 1_554 S
C449 C445 1.684 . S
C449 H475 0.979 . S
C449 H476 0.980 1_554 S
C449 H477 0.983 . S
C450 H426 0.948 . S
C450 C451 1.391 . S
C450 C455 1.391 . S
C451 C450 1.391 . S
C451 C452 1.391 . S
C452 H429 0.947 1_554 S
C452 C451 1.391 . S
C452 C453 1.391 1_554 S
C453 H430 0.950 . S
C453 C452 1.391 1_556 S
C453 C454 1.417 1_556 S
C454 C453 1.417 1_554 S
C454 C455 1.391 . S
C454 C458 1.397 . S
C455 C450 1.391 . S
C455 C454 1.391 . S
C455 C456 1.399 . S
C456 C455 1.399 . S
C456 C457 1.396 . S
C456 C459 1.453 . S
C456 C460 1.684 . S
C457 C447 1.723 . S
C457 C456 1.396 . S
C457 C458 1.394 . S
C458 C428 1.723 1_554 S
C458 C454 1.397 . S
C458 C457 1.394 . S
C459 H431 0.982 . S
C459 H435 0.979 . S
C459 H436 0.977 . S
C459 C456 1.453 . S
C460 H432 0.979 . S
C460 H433 0.980 . S
C460 H434 0.983 . S
C460 C456 1.684 . S
H461 C479 0.948 . S
H462 C420 0.948 . S
H463 C438 0.979 . S
H464 C438 0.980 . S
H465 C438 0.983 . S
H466 C437 0.982 . S
H467 C437 0.979 . S
H468 C437 0.977 . S
H469 C439 0.948 . S
H470 C441 0.947 . S
H471 C442 0.948 . S
H472 C448 0.982 . S
H473 C448 0.979 . S
H474 C448 0.977 1_556 S
H475 C449 0.979 . S
H476 C449 0.980 1_556 S
H477 C449 0.983 . S
H478 C422 0.947 . S
C479 C422 1.392 . S
C479 C423 1.419 . S
C479 H461 0.948 . S
La480 C482 2.928 . S
La480 O500 2.521 . S
La480 O501 2.628 . S
La480 O502 2.554 . S
La480 O503 2.757 1_565 S
La480 O504 2.470 . S
La480 O509 2.482 1_455 S
La480 O511 2.503 1_565 S
La481 C491 2.928 . S
La481 O503 2.482 1_655 S
La481 O505 2.503 1_545 S
La481 O506 2.521 . S
La481 O507 2.628 . S
La481 O508 2.554 . S
La481 O509 2.757 1_545 S
La481 O510 2.470 . S
C482 La480 2.928 . S
C482 C483 1.503 . S
C482 O500 1.261 . S
C482 O501 1.243 . S
C483 C482 1.503 . S
C483 C484 1.394 . S
C483 C488 1.373 . S
C484 C483 1.394 . S
C484 C485 1.380 . S
C484 H512 0.930 . S
C485 C484 1.380 . S
C485 C486 1.376 . S
C485 H513 0.930 . S
C486 C485 1.376 . S
C486 C487 1.370 . S
C487 C486 1.370 . S
C487 C488 1.396 . S
C487 H514 0.936 . S
C488 C483 1.373 . S
C488 C487 1.396 . S
C488 H515 0.929 1_455 S
C489 O502 1.270 . S
C489 O503 1.272 1_565 S
C490 O504 1.258 1_655 S
C490 O505 1.256 . S
C491 La481 2.928 . S
C491 C492 1.503 . S
C491 O506 1.261 . S
C491 O507 1.243 . S
C492 C491 1.503 . S
C492 C493 1.394 . S
C492 C497 1.373 . S
C493 C492 1.394 . S
C493 C494 1.380 . S
C493 H516 0.930 . S
C494 C493 1.380 . S
C494 C495 1.376 . S
C494 H517 0.930 . S
C495 C494 1.376 . S
C495 C496 1.370 . S
C496 C495 1.370 . S
C496 C497 1.396 . S
C496 H518 0.926 . S
C497 C492 1.373 . S
C497 C496 1.396 . S
C497 H519 0.929 1_655 S
C498 O508 1.240 . S
C498 O509 1.289 1_545 S
C499 O510 1.258 1_455 S
C499 O511 1.256 . S
O500 La480 2.521 . S
O500 C482 1.261 . S
O501 La480 2.628 . S
O501 C482 1.243 . S
O502 La480 2.554 . S
O502 C489 1.270 . S
O503 La480 2.757 1_545 S
O503 La481 2.482 1_455 S
O503 C489 1.272 1_545 S
O504 La480 2.470 . S
O504 C490 1.258 1_455 S
O505 La481 2.503 1_565 S
O505 C490 1.256 . S
O506 La481 2.521 . S
O506 C491 1.261 . S
O507 La481 2.628 . S
O507 C491 1.243 . S
O508 La481 2.554 . S
O508 C498 1.240 . S
O509 La480 2.482 1_655 S
O509 La481 2.757 1_565 S
O509 C498 1.289 1_565 S
O510 La481 2.470 . S
O510 C499 1.258 1_655 S
O511 La480 2.503 1_545 S
O511 C499 1.256 . S
H512 C484 0.930 . S
H513 C485 0.930 . S
H514 C487 0.936 . S
H515 C488 0.929 1_655 S
H516 C493 0.930 . S
H517 C494 0.930 . S
H518 C496 0.926 . S
H519 C497 0.929 1_455 S
La520 C522 2.928 . S
La520 O540 2.521 . S
La520 O541 2.628 . S
La520 O542 2.554 . S
La520 O543 2.757 . S
La520 O544 2.470 . S
La520 O549 2.482 1_545 S
La520 O551 2.503 . S
La521 C531 2.928 . S
La521 O543 2.482 1_565 S
La521 O545 2.503 . S
La521 O546 2.521 . S
La521 O547 2.628 . S
La521 O548 2.554 . S
La521 O549 2.757 . S
La521 O550 2.470 . S
C522 La520 2.928 . S
C522 C523 1.503 . S
C522 O540 1.261 . S
C522 O541 1.243 . S
C523 C522 1.503 . S
C523 C524 1.394 . S
C523 C528 1.373 . S
C524 C523 1.394 . S
C524 C525 1.380 . S
C524 H552 0.930 . S
C525 C524 1.380 . S
C525 C526 1.376 . S
C525 H553 0.930 . S
C526 C525 1.376 . S
C526 C527 1.370 . S
C527 C526 1.370 . S
C527 C528 1.396 . S
C527 H554 0.925 1_545 S
C528 C523 1.373 . S
C528 C527 1.396 . S
C528 H555 0.929 1_545 S
C529 O542 1.240 . S
C529 O543 1.289 . S
C530 O544 1.258 1_565 S
C530 O545 1.256 . S
C531 La521 2.928 . S
C531 C532 1.503 . S
C531 O546 1.261 . S
C531 O547 1.243 . S
C532 C531 1.503 . S
C532 C533 1.394 . S
C532 C537 1.373 . S
C533 C532 1.394 . S
C533 C534 1.380 . S
C533 H556 0.930 . S
C534 C533 1.380 . S
C534 C535 1.376 . S
C534 H557 0.930 . S
C535 C534 1.376 . S
C535 C536 1.370 . S
C536 C535 1.370 . S
C536 C537 1.396 . S
C536 H558 0.915 1_565 S
C537 C532 1.373 . S
C537 C536 1.396 . S
C537 H559 0.929 1_565 S
C538 O548 1.240 . S
C538 O549 1.289 . S
C539 O550 1.258 1_545 S
C539 O551 1.256 . S
O540 La520 2.521 . S
O540 C522 1.261 . S
O541 La520 2.628 . S
O541 C522 1.243 . S
O542 La520 2.554 . S
O542 C529 1.240 . S
O543 La520 2.757 . S
O543 La521 2.482 1_545 S
O543 C529 1.289 . S
O544 La520 2.470 . S
O544 C530 1.258 1_545 S
O545 La521 2.503 . S
O545 C530 1.256 . S
O546 La521 2.521 . S
O546 C531 1.261 . S
O547 La521 2.628 . S
O547 C531 1.243 . S
O548 La521 2.554 . S
O548 C538 1.240 . S
O549 La520 2.482 1_565 S
O549 La521 2.757 . S
O549 C538 1.289 . S
O550 La521 2.470 . S
O550 C539 1.258 1_565 S
O551 La520 2.503 . S
O551 C539 1.256 . S
H552 C524 0.930 . S
H553 C525 0.930 . S
H554 C527 0.925 1_565 S
H555 C528 0.929 1_565 S
H556 C533 0.930 . S
H557 C534 0.930 . S
H558 C536 0.915 1_545 S
H559 C537 0.929 1_545 S
La560 C562 2.928 . S
La560 O580 2.521 . S
La560 O581 2.628 . S
La560 O582 2.554 . S
La560 O583 2.757 . S
La560 O584 2.470 . S
La560 O589 2.482 . S
La560 O591 2.503 . S
La561 C571 2.928 . S
La561 O583 2.482 . S
La561 O585 2.503 . S
La561 O586 2.521 . S
La561 O587 2.628 . S
La561 O588 2.554 . S
La561 O589 2.757 . S
La561 O590 2.470 . S
C562 La560 2.928 . S
C562 C563 1.503 . S
C562 O580 1.261 . S
C562 O581 1.243 . S
C563 C562 1.503 . S
C563 C564 1.394 . S
C563 C568 1.373 . S
C564 C563 1.394 . S
C564 C565 1.380 . S
C564 H592 0.930 . S
C565 C564 1.380 . S
C565 C566 1.376 . S
C565 H593 0.930 . S
C566 C565 1.376 . S
C566 C567 1.370 . S
C567 C566 1.370 . S
C567 C568 1.396 . S
C567 H594 0.929 . S
C568 C563 1.373 . S
C568 C567 1.396 . S
C568 H595 0.929 . S
C569 O582 1.240 . S
C569 O583 1.289 . S
C570 O584 1.258 . S
C570 O585 1.256 . S
C571 La561 2.928 . S
C571 C572 1.503 . S
C571 O586 1.261 . S
C571 O587 1.243 . S
C572 C571 1.503 . S
C572 C573 1.394 . S
C572 C577 1.373 . S
C573 C572 1.394 . S
C573 C574 1.380 . S
C573 H596 0.930 . S
C574 C573 1.380 . S
C574 C575 1.376 . S
C574 H597 0.930 . S
C575 C574 1.376 . S
C575 C576 1.370 . S
C576 C575 1.370 . S
C576 C577 1.396 . S
C576 H598 0.929 . S
C577 C572 1.373 . S
C577 C576 1.396 . S
C577 H599 0.929 . S
C578 O588 1.240 . S
C578 O589 1.289 . S
C579 O590 1.258 . S
C579 O591 1.256 . S
O580 La560 2.521 . S
O580 C562 1.261 . S
O581 La560 2.628 . S
O581 C562 1.243 . S
O582 La560 2.554 . S
O582 C569 1.240 . S
O583 La560 2.757 . S
O583 La561 2.482 . S
O583 C569 1.289 . S
O584 La560 2.470 . S
O584 C570 1.258 . S
O585 La561 2.503 . S
O585 C570 1.256 . S
O586 La561 2.521 . S
O586 C571 1.261 . S
O587 La561 2.628 . S
O587 C571 1.243 . S
O588 La561 2.554 . S
O588 C578 1.240 . S
O589 La560 2.482 . S
O589 La561 2.757 . S
O589 C578 1.289 . S
O590 La561 2.470 . S
O590 C579 1.258 . S
O591 La560 2.503 . S
O591 C579 1.256 . S
H592 C564 0.930 . S
H593 C565 0.930 . S
H594 C567 0.929 . S
H595 C568 0.929 . S
H596 C573 0.930 . S
H597 C574 0.930 . S
H598 C576 0.929 . S
H599 C577 0.929 . S
La600 C602 2.928 . S
La600 O620 2.521 . S
La600 O621 2.628 . S
La600 O622 2.554 . S
La600 O623 2.757 1_655 S
La600 O624 2.470 . S
La600 O629 2.482 . S
La600 O631 2.503 1_655 S
La601 C611 2.928 . S
La601 O623 2.482 . S
La601 O625 2.503 1_455 S
La601 O626 2.521 . S
La601 O627 2.628 . S
La601 O628 2.554 . S
La601 O629 2.757 1_455 S
La601 O630 2.470 . S
C602 La600 2.928 . S
C602 C603 1.503 . S
C602 O620 1.261 . S
C602 O621 1.243 . S
C603 C602 1.503 . S
C603 C604 1.394 . S
C603 C608 1.373 . S
C604 C603 1.394 . S
C604 C605 1.380 . S
C604 H632 0.930 . S
C605 C604 1.380 . S
C605 C606 1.376 . S
C605 H633 0.930 . S
C606 C605 1.376 . S
C606 C607 1.370 . S
C607 C606 1.370 . S
C607 C608 1.396 . S
C607 H634 0.929 . S
C608 C603 1.373 . S
C608 C607 1.396 . S
C608 H635 0.929 . S
C609 O622 1.257 . S
C609 O623 1.279 1_655 S
C610 O624 1.258 . S
C610 O625 1.256 . S
C611 La601 2.928 . S
C611 C612 1.503 . S
C611 O626 1.261 . S
C611 O627 1.243 . S
C612 C611 1.503 . S
C612 C613 1.394 . S
C612 C617 1.373 . S
C613 C612 1.394 . S
C613 C614 1.380 . S
C613 H636 0.930 . S
C614 C613 1.380 . S
C614 C615 1.376 . S
C614 H637 0.930 . S
C615 C614 1.376 . S
C615 C616 1.370 . S
C616 C615 1.370 . S
C616 C617 1.396 . S
C616 H638 0.929 . S
C617 C612 1.373 . S
C617 C616 1.396 . S
C617 H639 0.929 . S
C618 O628 1.264 . S
C618 O629 1.275 1_455 S
C619 O630 1.258 . S
C619 O631 1.256 . S
O620 La600 2.521 . S
O620 C602 1.261 . S
O621 La600 2.628 . S
O621 C602 1.243 . S
O622 La600 2.554 . S
O622 C609 1.257 . S
O623 La600 2.757 1_455 S
O623 La601 2.482 . S
O623 C609 1.279 1_455 S
O624 La600 2.470 . S
O624 C610 1.258 . S
O625 La601 2.503 1_655 S
O625 C610 1.256 . S
O626 La601 2.521 . S
O626 C611 1.261 . S
O627 La601 2.628 . S
O627 C611 1.243 . S
O628 La601 2.554 . S
O628 C618 1.264 . S
O629 La600 2.482 . S
O629 La601 2.757 1_655 S
O629 C618 1.275 1_655 S
O630 La601 2.470 . S
O630 C619 1.258 . S
O631 La600 2.503 1_455 S
O631 C619 1.256 . S
H632 C604 0.930 . S
H633 C605 0.930 . S
H634 C607 0.929 . S
H635 C608 0.929 . S
H636 C613 0.930 . S
H637 C614 0.930 . S
H638 C616 0.929 . S
H639 C617 0.929 . S
C640 C641 1.391 . S
C640 C642 1.394 . S
C640 H656 0.931 . S
C641 C640 1.391 . S
C641 C645 1.376 1_565 S
C642 C640 1.394 . S
C642 C643 1.369 . S
C642 C646 1.531 . S
C643 C642 1.369 . S
C643 C644 1.410 1_565 S
C643 C651 1.503 . S
C644 C643 1.410 1_545 S
C644 C645 1.392 . S
C644 C647 1.511 . S
C645 C641 1.376 1_545 S
C645 C644 1.392 . S
C645 H657 0.929 . S
C646 C642 1.531 . S
C646 H658 0.960 . S
C646 H659 0.962 . S
C646 H660 0.960 . S
C647 C644 1.511 . S
C647 H661 0.961 . S
C647 H662 0.961 . S
C647 H663 0.961 1_545 S
C648 C649 1.389 . S
C648 C650 1.363 . S
C648 H664 0.931 . S
C649 C648 1.389 . S
C649 C653 1.388 1_545 S
C650 C648 1.363 . S
C650 C651 1.370 1_545 S
C650 C654 1.524 . S
C651 C643 1.503 . S
C651 C650 1.370 1_565 S
C651 C652 1.403 . S
C652 C651 1.403 . S
C652 C653 1.404 . S
C652 C655 1.539 . S
C653 C649 1.388 1_565 S
C653 C652 1.404 . S
C653 H665 0.930 . S
C654 C650 1.524 . S
C654 H666 0.956 . S
C654 H667 0.961 . S
C654 H668 0.961 . S
C655 C652 1.539 . S
C655 H669 0.958 . S
C655 H670 0.961 . S
C655 H671 0.960 . S
H656 C640 0.931 . S
H657 C645 0.929 . S
H658 C646 0.960 . S
H659 C646 0.962 . S
H660 C646 0.960 . S
H661 C647 0.961 . S
H662 C647 0.961 . S
H663 C647 0.961 1_565 S
H664 C648 0.931 . S
H665 C653 0.930 . S
H666 C654 0.956 . S
H667 C654 0.961 . S
H668 C654 0.961 . S
H669 C655 0.958 . S
H670 C655 0.961 . S
H671 C655 0.960 . S
C672 C673 1.391 . S
C672 C674 1.394 . S
C672 H688 0.931 . S
C673 C672 1.391 . S
C673 C677 1.376 . S
C674 C672 1.394 . S
C674 C675 1.369 . S
C674 C678 1.531 . S
C675 C674 1.369 . S
C675 C676 1.410 . S
C675 C683 1.503 . S
C676 C675 1.410 . S
C676 C677 1.392 . S
C676 C679 1.511 . S
C677 C673 1.376 . S
C677 C676 1.392 . S
C677 H689 0.929 . S
C678 C674 1.531 . S
C678 H690 0.960 . S
C678 H691 0.962 . S
C678 H692 0.960 . S
C679 C676 1.511 . S
C679 H693 0.961 . S
C679 H694 0.961 . S
C679 H695 0.961 . S
C680 C681 1.370 . S
C680 C682 1.363 . S
C680 H696 0.931 . S
C681 C680 1.370 . S
C681 C685 1.408 . S
C682 C680 1.363 . S
C682 C683 1.370 . S
C682 C686 1.524 . S
C683 C675 1.503 . S
C683 C682 1.370 . S
C683 C684 1.403 . S
C684 C683 1.403 . S
C684 C685 1.404 . S
C684 C687 1.539 . S
C685 C681 1.408 . S
C685 C684 1.404 . S
C685 H697 0.930 . S
C686 C682 1.524 . S
C686 H698 0.956 . S
C686 H699 0.961 . S
C686 H700 0.961 . S
C687 C684 1.539 . S
C687 H701 0.958 . S
C687 H702 0.961 . S
C687 H703 0.960 . S
H688 C672 0.931 . S
H689 C677 0.929 . S
H690 C678 0.960 . S
H691 C678 0.962 . S
H692 C678 0.960 . S
H693 C679 0.961 . S
H694 C679 0.961 . S
H695 C679 0.961 . S
H696 C680 0.931 . S
H697 C685 0.930 . S
H698 C686 0.956 . S
H699 C686 0.961 . S
H700 C686 0.961 . S
H701 C687 0.958 . S
H702 C687 0.961 . S
H703 C687 0.960 . S
C704 C705 1.391 . S
C704 C706 1.394 . S
C704 H720 0.931 . S
C705 C704 1.391 . S
C705 C709 1.376 . S
C706 C704 1.394 . S
C706 C707 1.369 . S
C706 C710 1.531 . S
C707 C706 1.369 . S
C707 C708 1.410 . S
C707 C715 1.503 . S
C708 C707 1.410 . S
C708 C709 1.392 . S
C708 C711 1.511 . S
C709 C705 1.376 . S
C709 C708 1.392 . S
C709 H721 0.929 . S
C710 C706 1.531 . S
C710 H722 0.960 . S
C710 H723 0.962 . S
C710 H724 0.960 . S
C711 C708 1.511 . S
C711 H725 0.961 . S
C711 H726 0.961 . S
C711 H727 0.961 . S
C712 C713 1.370 . S
C712 C714 1.363 . S
C712 H728 0.931 . S
C713 C712 1.370 . S
C713 C717 1.408 . S
C714 C712 1.363 . S
C714 C715 1.370 . S
C714 C718 1.524 . S
C715 C707 1.503 . S
C715 C714 1.370 . S
C715 C716 1.403 . S
C716 C715 1.403 . S
C716 C717 1.404 . S
C716 C719 1.539 . S
C717 C713 1.408 . S
C717 C716 1.404 . S
C717 H729 0.930 . S
C718 C714 1.524 . S
C718 H730 0.956 . S
C718 H731 0.961 . S
C718 H732 0.961 . S
C719 C716 1.539 . S
C719 H733 0.958 . S
C719 H734 0.961 . S
C719 H735 0.960 . S
H720 C704 0.931 . S
H721 C709 0.929 . S
H722 C710 0.960 . S
H723 C710 0.962 . S
H724 C710 0.960 . S
H725 C711 0.961 . S
H726 C711 0.961 . S
H727 C711 0.961 . S
H728 C712 0.931 . S
H729 C717 0.930 . S
H730 C718 0.956 . S
H731 C718 0.961 . S
H732 C718 0.961 . S
H733 C719 0.958 . S
H734 C719 0.961 . S
H735 C719 0.960 . S
C736 C737 1.360 1_455 S
C736 C738 1.394 . S
C736 H752 0.931 . S
C737 C736 1.360 1_655 S
C737 C741 1.410 . S
C738 C736 1.394 . S
C738 C739 1.369 1_455 S
C738 C742 1.531 . S
C739 C738 1.369 1_655 S
C739 C740 1.410 . S
C739 C747 1.503 . S
C740 C739 1.410 . S
C740 C741 1.392 . S
C740 C743 1.511 . S
C741 C737 1.410 . S
C741 C740 1.392 . S
C741 H753 0.929 . S
C742 C738 1.531 . S
C742 H754 0.960 . S
C742 H755 0.962 . S
C742 H756 0.960 . S
C743 C740 1.511 . S
C743 H757 0.961 . S
C743 H758 0.961 . S
C743 H759 0.961 . S
C744 C745 1.397 . S
C744 C746 1.363 . S
C744 H760 0.931 . S
C745 C744 1.397 . S
C745 C749 1.380 1_455 S
C746 C744 1.363 . S
C746 C747 1.370 1_455 S
C746 C750 1.524 . S
C747 C739 1.503 . S
C747 C746 1.370 1_655 S
C747 C748 1.403 . S
C748 C747 1.403 . S
C748 C749 1.404 . S
C748 C751 1.539 . S
C749 C745 1.380 1_655 S
C749 C748 1.404 . S
C749 H761 0.930 . S
C750 C746 1.524 . S
C750 H762 0.956 . S
C750 H763 0.961 . S
C750 H764 0.961 . S
C751 C748 1.539 . S
C751 H765 0.958 . S
C751 H766 0.961 . S
C751 H767 0.960 . S
H752 C736 0.931 . S
H753 C741 0.929 . S
H754 C742 0.960 . S
H755 C742 0.962 . S
H756 C742 0.960 . S
H757 C743 0.961 . S
H758 C743 0.961 . S
H759 C743 0.961 . S
H760 C744 0.931 . S
H761 C749 0.930 . S
H762 C750 0.956 . S
H763 C750 0.961 . S
H764 C750 0.961 . S
H765 C751 0.958 . S
H766 C751 0.961 . S
H767 C751 0.960 . S
C768 C769 1.417 . S
C768 C770 1.394 . S
C768 H784 0.931 . S
C769 C768 1.417 . S
C769 C773 1.351 1_545 S
C770 C768 1.394 . S
C770 C771 1.369 . S
C770 C774 1.531 . S
C771 C770 1.369 . S
C771 C772 1.410 1_545 S
C771 C779 1.506 . S
C772 C771 1.410 1_565 S
C772 C773 1.392 . S
C772 C775 1.511 . S
C773 C769 1.351 1_565 S
C773 C772 1.392 . S
C773 H785 0.929 . S
C774 C770 1.531 . S
C774 H786 0.960 . S
C774 H787 0.962 . S
C774 H788 0.960 . S
C775 C772 1.511 . S
C775 H789 0.961 . S
C775 H790 0.961 . S
C775 H791 0.961 . S
C776 C777 1.383 . S
C776 C778 1.363 . S
C776 H792 0.931 . S
C777 C776 1.383 . S
C777 C781 1.393 1_565 S
C778 C776 1.363 . S
C778 C779 1.354 1_566 S
C778 C782 1.524 . S
C779 C771 1.506 . S
C779 C778 1.354 1_544 S
C779 C780 1.419 1_554 S
C780 C779 1.419 1_556 S
C780 C781 1.404 . S
C780 C783 1.539 1_556 S
C781 C777 1.393 1_545 S
C781 C780 1.404 . S
C781 H793 0.930 . S
C782 C778 1.524 . S
C782 H794 0.956 . S
C782 H795 0.961 1_556 S
C782 H796 0.961 . S
C783 C780 1.539 1_554 S
C783 H797 0.958 . S
C783 H798 0.961 . S
C783 H799 0.960 . S
H784 C768 0.931 . S
H785 C773 0.929 . S
H786 C774 0.960 . S
H787 C774 0.962 . S
H788 C774 0.960 . S
H789 C775 0.961 . S
H790 C775 0.961 . S
H791 C775 0.961 . S
H792 C776 0.931 . S
H793 C781 0.930 . S
H794 C782 0.956 . S
H795 C782 0.961 1_554 S
H796 C782 0.961 . S
H797 C783 0.958 . S
H798 C783 0.961 . S
H799 C783 0.960 . S
C800 C801 1.391 . S
C800 C802 1.394 . S
C800 H816 0.931 . S
C801 C800 1.391 . S
C801 C805 1.376 . S
C802 C800 1.394 . S
C802 C803 1.369 . S
C802 C806 1.531 . S
C803 C802 1.369 . S
C803 C804 1.410 . S
C803 C811 1.503 1_554 S
C804 C803 1.410 . S
C804 C805 1.392 . S
C804 C807 1.511 . S
C805 C801 1.376 . S
C805 C804 1.392 . S
C805 H817 0.929 . S
C806 C802 1.531 . S
C806 H818 0.960 . S
C806 H819 0.962 . S
C806 H820 0.960 . S
C807 C804 1.511 . S
C807 H821 0.961 . S
C807 H822 0.961 . S
C807 H823 0.961 . S
C808 C809 1.370 . S
C808 C810 1.363 . S
C808 H824 0.931 . S
C809 C808 1.370 . S
C809 C813 1.408 . S
C810 C808 1.363 . S
C810 C811 1.370 . S
C810 C814 1.524 1_556 S
C811 C803 1.503 1_556 S
C811 C810 1.370 . S
C811 C812 1.403 . S
C812 C811 1.403 . S
C812 C813 1.404 . S
C812 C815 1.539 . S
C813 C809 1.408 . S
C813 C812 1.404 . S
C813 H825 0.930 . S
C814 C810 1.524 1_554 S
C814 H826 0.956 . S
C814 H827 0.961 . S
C814 H828 0.961 . S
C815 C812 1.539 . S
C815 H829 0.958 . S
C815 H830 0.961 . S
C815 H831 0.960 . S
H816 C800 0.931 . S
H817 C805 0.929 . S
H818 C806 0.960 . S
H819 C806 0.962 . S
H820 C806 0.960 . S
H821 C807 0.961 . S
H822 C807 0.961 . S
H823 C807 0.961 . S
H824 C808 0.931 . S
H825 C813 0.930 . S
H826 C814 0.956 . S
H827 C814 0.961 . S
H828 C814 0.961 . S
H829 C815 0.958 . S
H830 C815 0.961 . S
H831 C815 0.960 . S
C832 C833 1.391 . S
C832 C834 1.394 . S
C832 H848 0.931 . S
C833 C832 1.391 . S
C833 C837 1.376 . S
C834 C832 1.394 . S
C834 C835 1.369 . S
C834 C838 1.531 . S
C835 C834 1.369 . S
C835 C836 1.410 . S
C835 C843 1.503 . S
C836 C835 1.410 . S
C836 C837 1.392 . S
C836 C839 1.511 . S
C837 C833 1.376 . S
C837 C836 1.392 . S
C837 H849 0.929 . S
C838 C834 1.531 . S
C838 H850 0.960 . S
C838 H851 0.962 . S
C838 H852 0.960 . S
C839 C836 1.511 . S
C839 H853 0.961 . S
C839 H854 0.961 1_554 S
C839 H855 0.958 1_554 S
C840 C841 1.370 . S
C840 C842 1.363 . S
C840 H856 0.931 . S
C841 C840 1.370 . S
C841 C845 1.408 . S
C842 C840 1.363 . S
C842 C843 1.370 1_556 S
C842 C846 1.524 1_556 S
C843 C835 1.503 . S
C843 C842 1.370 1_554 S
C843 C844 1.403 1_554 S
C844 C843 1.403 1_556 S
C844 C845 1.404 . S
C844 C847 1.539 . S
C845 C841 1.408 . S
C845 C844 1.404 . S
C845 H857 0.930 . S
C846 C842 1.524 1_554 S
C846 H858 0.956 . S
C846 H859 0.961 . S
C846 H860 0.961 1_554 S
C847 C844 1.539 . S
C847 H861 0.958 1_556 S
C847 H862 0.961 . S
C847 H863 0.960 1_556 S
H848 C832 0.931 . S
H849 C837 0.929 . S
H850 C838 0.960 . S
H851 C838 0.962 . S
H852 C838 0.960 . S
H853 C839 0.961 . S
H854 C839 0.961 1_556 S
H855 C839 0.958 1_556 S
H856 C840 0.931 . S
H857 C845 0.930 . S
H858 C846 0.956 . S
H859 C846 0.961 . S
H860 C846 0.961 1_556 S
H861 C847 0.958 1_554 S
H862 C847 0.961 . S
H863 C847 0.960 1_554 S
C864 C865 1.391 1_455 S
C864 C866 1.394 . S
C864 H880 0.931 . S
C865 C864 1.391 1_655 S
C865 C869 1.376 . S
C866 C864 1.394 . S
C866 C867 1.369 1_455 S
C866 C870 1.531 . S
C867 C866 1.369 1_655 S
C867 C868 1.410 . S
C867 C875 1.503 . S
C868 C867 1.410 . S
C868 C869 1.392 . S
C868 C871 1.511 . S
C869 C865 1.376 . S
C869 C868 1.392 . S
C869 H881 0.929 . S
C870 C866 1.531 . S
C870 H882 0.960 . S
C870 H883 0.962 . S
C870 H884 0.960 . S
C871 C868 1.511 . S
C871 H885 0.961 . S
C871 H886 0.961 . S
C871 H887 0.961 . S
C872 C873 1.370 1_455 S
C872 C874 1.363 . S
C872 H888 0.931 . S
C873 C872 1.370 1_655 S
C873 C877 1.408 . S
C874 C872 1.363 . S
C874 C875 1.370 1_456 S
C874 C878 1.524 . S
C875 C867 1.503 . S
C875 C874 1.370 1_654 S
C875 C876 1.403 1_554 S
C876 C875 1.403 1_556 S
C876 C877 1.404 . S
C876 C879 1.539 1_556 S
C877 C873 1.408 . S
C877 C876 1.404 . S
C877 H889 0.930 . S
C878 C874 1.524 . S
C878 H890 0.956 . S
C878 H891 0.961 . S
C878 H892 0.961 . S
C879 C876 1.539 1_554 S
C879 H893 0.958 . S
C879 H894 0.961 . S
C879 H895 0.960 . S
H880 C864 0.931 . S
H881 C869 0.929 . S
H882 C870 0.960 . S
H883 C870 0.962 . S
H884 C870 0.960 . S
H885 C871 0.961 . S
H886 C871 0.961 . S
H887 C871 0.961 . S
H888 C872 0.931 . S
H889 C877 0.930 . S
H890 C878 0.956 . S
H891 C878 0.961 . S
H892 C878 0.961 . S
H893 C879 0.958 . S
H894 C879 0.961 . S
H895 C879 0.960 . S
C896 C897 1.391 . S
C896 C898 1.394 . S
C896 H912 0.931 . S
C897 C896 1.391 . S
C897 C901 1.376 1_455 S
C898 C896 1.394 . S
C898 C899 1.369 1_455 S
C898 C902 1.531 . S
C899 C898 1.369 1_655 S
C899 C900 1.410 . S
C899 C907 1.503 . S
C900 C899 1.410 . S
C900 C901 1.392 . S
C900 C903 1.511 . S
C901 C897 1.376 1_655 S
C901 C900 1.392 . S
C901 H913 0.929 . S
C902 C898 1.531 . S
C902 H914 0.960 . S
C902 H915 0.962 . S
C902 H916 0.960 . S
C903 C900 1.511 . S
C903 H917 0.961 . S
C903 H918 0.961 . S
C903 H919 0.961 . S
C904 C905 1.370 . S
C904 C906 1.363 . S
C904 H920 0.931 . S
C905 C904 1.370 . S
C905 C909 1.408 . S
C906 C904 1.363 . S
C906 C907 1.370 . S
C906 C910 1.524 . S
C907 C899 1.503 . S
C907 C906 1.370 . S
C907 C908 1.403 . S
C908 C907 1.403 . S
C908 C909 1.404 . S
C908 C911 1.539 . S
C909 C905 1.408 . S
C909 C908 1.404 . S
C909 H921 0.930 . S
C910 C906 1.524 . S
C910 H922 0.956 . S
C910 H923 0.961 . S
C910 H924 0.961 . S
C911 C908 1.539 . S
C911 H925 0.958 . S
C911 H926 0.961 . S
C911 H927 0.960 . S
H912 C896 0.931 . S
H913 C901 0.929 . S
H914 C902 0.960 . S
H915 C902 0.962 . S
H916 C902 0.960 . S
H917 C903 0.961 . S
H918 C903 0.961 . S
H919 C903 0.961 . S
H920 C904 0.931 . S
H921 C909 0.930 . S
H922 C910 0.956 . S
H923 C910 0.961 . S
H924 C910 0.961 . S
H925 C911 0.958 . S
H926 C911 0.961 . S
H927 C911 0.960 . S
C928 C929 1.391 1_565 S
C928 C930 1.394 . S
C928 H944 0.931 . S
C929 C928 1.391 1_545 S
C929 C933 1.376 . S
C930 C928 1.394 . S
C930 C931 1.369 . S
C930 C934 1.531 . S
C931 C930 1.369 . S
C931 C932 1.410 1_565 S
C931 C939 1.503 . S
C932 C931 1.410 1_545 S
C932 C933 1.392 . S
C932 C935 1.511 . S
C933 C929 1.376 . S
C933 C932 1.392 . S
C933 H945 0.929 . S
C934 C930 1.531 . S
C934 H946 0.960 . S
C934 H947 0.962 . S
C934 H948 0.960 . S
C935 C932 1.511 . S
C935 H949 0.961 . S
C935 H950 0.961 . S
C935 H951 0.961 . S
C936 C937 1.370 . S
C936 C938 1.363 . S
C936 H952 0.931 . S
C937 C936 1.370 . S
C937 C941 1.408 . S
C938 C936 1.363 . S
C938 C939 1.370 . S
C938 C942 1.524 . S
C939 C931 1.503 . S
C939 C938 1.370 . S
C939 C940 1.403 . S
C940 C939 1.403 . S
C940 C941 1.404 . S
C940 C943 1.539 . S
C941 C937 1.408 . S
C941 C940 1.404 . S
C941 H953 0.930 . S
C942 C938 1.524 . S
C942 H954 0.956 . S
C942 H955 0.961 . S
C942 H956 0.961 . S
C943 C940 1.539 . S
C943 H957 0.958 . S
C943 H958 0.961 . S
C943 H959 0.960 . S
H944 C928 0.931 . S
H945 C933 0.929 . S
H946 C934 0.960 . S
H947 C934 0.962 . S
H948 C934 0.960 . S
H949 C935 0.961 . S
H950 C935 0.961 . S
H951 C935 0.961 . S
H952 C936 0.931 . S
H953 C941 0.930 . S
H954 C942 0.956 . S
H955 C942 0.961 . S
H956 C942 0.961 . S
H957 C943 0.958 . S
H958 C943 0.961 . S
H959 C943 0.960 . S
C960 C961 1.391 . S
C960 C962 1.394 . S
C960 H976 0.931 . S
C961 C960 1.391 . S
C961 C965 1.376 . S
C962 C960 1.394 . S
C962 C963 1.369 . S
C962 C966 1.531 . S
C963 C962 1.369 . S
C963 C964 1.410 . S
C963 C971 1.503 . S
C964 C963 1.410 . S
C964 C965 1.392 . S
C964 C967 1.511 . S
C965 C961 1.376 . S
C965 C964 1.392 . S
C965 H977 0.929 . S
C966 C962 1.531 . S
C966 H978 0.960 . S
C966 H979 0.962 . S
C966 H980 0.960 . S
C967 C964 1.511 . S
C967 H981 0.961 . S
C967 H982 0.961 . S
C967 H983 0.961 . S
C968 C969 1.370 . S
C968 C970 1.363 . S
C968 H984 0.931 . S
C969 C968 1.370 . S
C969 C973 1.408 . S
C970 C968 1.363 . S
C970 C971 1.370 . S
C970 C974 1.524 . S
C971 C963 1.503 . S
C971 C970 1.370 . S
C971 C972 1.403 . S
C972 C971 1.403 . S
C972 C973 1.404 . S
C972 C975 1.539 . S
C973 C969 1.408 . S
C973 C972 1.404 . S
C973 H985 0.930 . S
C974 C970 1.524 . S
C974 H986 0.956 . S
C974 H987 0.961 . S
C974 H988 0.961 . S
C975 C972 1.539 . S
C975 H989 0.958 . S
C975 H990 0.961 . S
C975 H991 0.960 . S
H976 C960 0.931 . S
H977 C965 0.929 . S
H978 C966 0.960 . S
H979 C966 0.962 . S
H980 C966 0.960 . S
H981 C967 0.961 . S
H982 C967 0.961 . S
H983 C967 0.961 . S
H984 C968 0.931 . S
H985 C973 0.930 . S
H986 C974 0.956 . S
H987 C974 0.961 . S
H988 C974 0.961 . S
H989 C975 0.958 . S
H990 C975 0.961 . S
H991 C975 0.960 . S
C992 C993 1.391 . S
C992 C994 1.394 . S
C992 H1008 0.931 . S
C993 C992 1.391 . S
C993 C997 1.376 . S
C994 C992 1.394 . S
C994 C995 1.369 . S
C994 C998 1.531 . S
C995 C994 1.369 . S
C995 C996 1.410 . S
C995 C1003 1.503 . S
C996 C995 1.410 . S
C996 C997 1.392 . S
C996 C999 1.511 . S
C997 C993 1.376 . S
C997 C996 1.392 . S
C997 H1009 0.929 . S
C998 C994 1.531 . S
C998 H1010 0.960 . S
C998 H1011 0.962 . S
C998 H1012 0.960 . S
C999 C996 1.511 . S
C999 H1013 0.961 . S
C999 H1014 0.961 . S
C999 H1015 0.961 . S
C1000 C1001 1.370 . S
C1000 C1002 1.363 . S
C1000 H1016 0.931 . S
C1001 C1000 1.370 . S
C1001 C1005 1.408 . S
C1002 C1000 1.363 . S
C1002 C1003 1.370 . S
C1002 C1006 1.524 . S
C1003 C995 1.503 . S
C1003 C1002 1.370 . S
C1003 C1004 1.403 . S
C1004 C1003 1.403 . S
C1004 C1005 1.404 . S
C1004 C1007 1.539 . S
C1005 C1001 1.408 . S
C1005 C1004 1.404 . S
C1005 H1017 0.930 . S
C1006 C1002 1.524 . S
C1006 H1018 0.956 . S
C1006 H1019 0.961 . S
C1006 H1020 0.961 . S
C1007 C1004 1.539 . S
C1007 H1021 0.958 . S
C1007 H1022 0.961 . S
C1007 H1023 0.960 . S
H1008 C992 0.931 . S
H1009 C997 0.929 . S
H1010 C998 0.960 . S
H1011 C998 0.962 . S
H1012 C998 0.960 . S
H1013 C999 0.961 . S
H1014 C999 0.961 . S
H1015 C999 0.961 . S
H1016 C1000 0.931 . S
H1017 C1005 0.930 . S
H1018 C1006 0.956 . S
H1019 C1006 0.961 . S
H1020 C1006 0.961 . S
H1021 C1007 0.958 . S
H1022 C1007 0.961 . S
H1023 C1007 0.960 . S
C1024 C1025 1.399 . S
C1024 C1026 1.394 1_655 S
C1024 H1040 0.931 . S
C1025 C1024 1.399 . S
C1025 C1029 1.348 1_655 S
C1026 C1024 1.394 1_455 S
C1026 C1027 1.369 . S
C1026 C1030 1.531 . S
C1027 C1026 1.369 . S
C1027 C1028 1.410 . S
C1027 C1035 1.503 . S
C1028 C1027 1.410 . S
C1028 C1029 1.392 . S
C1028 C1031 1.511 1_554 S
C1029 C1025 1.348 1_455 S
C1029 C1028 1.392 . S
C1029 H1041 0.929 . S
C1030 C1026 1.531 . S
C1030 H1042 0.960 . S
C1030 H1043 0.962 1_455 S
C1030 H1044 0.962 . S
C1031 C1028 1.511 1_556 S
C1031 H1045 0.961 . S
C1031 H1046 0.961 . S
C1031 H1047 0.961 . S
C1032 C1033 1.370 . S
C1032 C1034 1.363 . S
C1032 H1048 0.931 . S
C1033 C1032 1.370 . S
C1033 C1037 1.408 1_556 S
C1034 C1032 1.363 . S
C1034 C1035 1.370 1_556 S
C1034 C1038 1.524 1_455 S
C1035 C1027 1.503 . S
C1035 C1034 1.370 1_554 S
C1035 C1036 1.403 . S
C1036 C1035 1.403 . S
C1036 C1037 1.404 . S
C1036 C1039 1.539 . S
C1037 C1033 1.408 1_554 S
C1037 C1036 1.404 . S
C1037 H1049 0.930 . S
C1038 C1034 1.524 1_655 S
C1038 H1050 0.946 1_556 S
C1038 H1051 0.961 . S
C1038 H1052 0.961 . S
C1039 C1036 1.539 . S
C1039 H1053 0.958 . S
C1039 H1054 0.961 . S
C1039 H1055 0.960 . S
H1040 C1024 0.931 . S
H1041 C1029 0.929 . S
H1042 C1030 0.960 . S
H1043 C1030 0.962 1_655 S
H1044 C1030 0.962 . S
H1045 C1031 0.961 . S
H1046 C1031 0.961 . S
H1047 C1031 0.961 . S
H1048 C1032 0.931 . S
H1049 C1037 0.930 . S
H1050 C1038 0.946 1_554 S
H1051 C1038 0.961 . S
H1052 C1038 0.961 . S
H1053 C1039 0.958 . S
H1054 C1039 0.961 . S
H1055 C1039 0.960 . S
C1056 C1057 1.391 . S
C1056 C1058 1.383 1_565 S
C1056 H1072 0.931 . S
C1057 C1056 1.391 . S
C1057 C1061 1.376 1_565 S
C1058 C1056 1.383 1_545 S
C1058 C1059 1.382 . S
C1058 C1062 1.527 1_544 S
C1059 C1058 1.382 . S
C1059 C1060 1.410 . S
C1059 C1067 1.503 . S
C1060 C1059 1.410 . S
C1060 C1061 1.392 . S
C1060 C1063 1.511 . S
C1061 C1057 1.376 1_545 S
C1061 C1060 1.392 . S
C1061 H1073 0.929 . S
C1062 C1058 1.527 1_566 S
C1062 H1074 0.969 . S
C1062 H1075 0.918 1_565 S
C1062 H1076 1.000 . S
C1063 C1060 1.511 . S
C1063 H1077 0.961 . S
C1063 H1078 0.961 . S
C1063 H1079 0.961 . S
C1064 C1065 1.370 . S
C1064 C1066 1.363 1_556 S
C1064 H1080 0.931 . S
C1065 C1064 1.370 . S
C1065 C1069 1.408 . S
C1066 C1064 1.363 1_554 S
C1066 C1067 1.370 . S
C1066 C1070 1.524 . S
C1067 C1059 1.503 . S
C1067 C1066 1.370 . S
C1067 C1068 1.403 . S
C1068 C1067 1.403 . S
C1068 C1069 1.404 1_554 S
C1068 C1071 1.539 1_545 S
C1069 C1065 1.408 . S
C1069 C1068 1.404 1_556 S
C1069 H1081 0.930 . S
C1070 C1066 1.524 . S
C1070 H1082 0.956 1_554 S
C1070 H1083 0.961 . S
C1070 H1084 0.961 . S
C1071 C1068 1.539 1_565 S
C1071 H1085 0.958 1_554 S
C1071 H1086 0.961 . S
C1071 H1087 0.960 . S
H1072 C1056 0.931 . S
H1073 C1061 0.929 . S
H1074 C1062 0.969 . S
H1075 C1062 0.918 1_545 S
H1076 C1062 1.000 . S
H1077 C1063 0.961 . S
H1078 C1063 0.961 . S
H1079 C1063 0.961 . S
H1080 C1064 0.931 . S
H1081 C1069 0.930 . S
H1082 C1070 0.956 1_556 S
H1083 C1070 0.961 . S
H1084 C1070 0.961 . S
H1085 C1071 0.958 1_556 S
H1086 C1071 0.961 . S
H1087 C1071 0.960 . S
C1088 C1089 1.391 . S
C1088 C1090 1.394 . S
C1088 H1104 0.931 . S
C1089 C1088 1.391 . S
C1089 C1093 1.376 . S
C1090 C1088 1.394 . S
C1090 C1091 1.369 . S
C1090 C1094 1.531 . S
C1091 C1090 1.369 . S
C1091 C1092 1.410 . S
C1091 C1099 1.503 . S
C1092 C1091 1.410 . S
C1092 C1093 1.392 . S
C1092 C1095 1.511 . S
C1093 C1089 1.376 . S
C1093 C1092 1.392 . S
C1093 H1105 0.929 . S
C1094 C1090 1.531 . S
C1094 H1106 0.960 1_554 S
C1094 H1107 0.962 . S
C1094 H1108 0.960 1_554 S
C1095 C1092 1.511 . S
C1095 H1109 0.961 . S
C1095 H1110 0.961 . S
C1095 H1111 0.961 . S
C1096 C1097 1.370 1_554 S
C1096 C1098 1.363 . S
C1096 H1112 0.931 . S
C1097 C1096 1.370 1_556 S
C1097 C1101 1.408 . S
C1098 C1096 1.363 . S
C1098 C1099 1.370 . S
C1098 C1102 1.524 . S
C1099 C1091 1.503 . S
C1099 C1098 1.370 . S
C1099 C1100 1.403 1_554 S
C1100 C1099 1.403 1_556 S
C1100 C1101 1.404 . S
C1100 C1103 1.539 . S
C1101 C1097 1.408 . S
C1101 C1100 1.404 . S
C1101 H1113 0.930 . S
C1102 C1098 1.524 . S
C1102 H1114 0.956 . S
C1102 H1115 0.961 . S
C1102 H1116 0.961 . S
C1103 C1100 1.539 . S
C1103 H1117 0.958 . S
C1103 H1118 0.961 . S
C1103 H1119 0.960 . S
H1104 C1088 0.931 . S
H1105 C1093 0.929 . S
H1106 C1094 0.960 1_556 S
H1107 C1094 0.962 . S
H1108 C1094 0.960 1_556 S
H1109 C1095 0.961 . S
H1110 C1095 0.961 . S
H1111 C1095 0.961 . S
H1112 C1096 0.931 . S
H1113 C1101 0.930 . S
H1114 C1102 0.956 . S
H1115 C1102 0.961 . S
H1116 C1102 0.961 . S
H1117 C1103 0.958 . S
H1118 C1103 0.961 . S
H1119 C1103 0.960 . S
C1120 C1121 1.391 . S
C1120 C1122 1.394 . S
C1120 H1136 0.931 . S
C1121 C1120 1.391 . S
C1121 C1125 1.376 . S
C1122 C1120 1.394 . S
C1122 C1123 1.369 . S
C1122 C1126 1.531 . S
C1123 C1122 1.369 . S
C1123 C1124 1.410 . S
C1123 C1131 1.503 . S
C1124 C1123 1.410 . S
C1124 C1125 1.392 . S
C1124 C1127 1.511 1_554 S
C1125 C1121 1.376 . S
C1125 C1124 1.392 . S
C1125 H1137 0.929 . S
C1126 C1122 1.531 . S
C1126 H1138 0.960 . S
C1126 H1139 0.962 . S
C1126 H1140 0.960 . S
C1127 C1124 1.511 1_556 S
C1127 H1141 0.961 . S
C1127 H1142 0.961 . S
C1127 H1143 0.961 . S
C1128 C1129 1.370 . S
C1128 C1130 1.363 . S
C1128 H1144 0.931 . S
C1129 C1128 1.370 . S
C1129 C1133 1.408 . S
C1130 C1128 1.363 . S
C1130 C1131 1.370 1_556 S
C1130 C1134 1.524 . S
C1131 C1123 1.503 . S
C1131 C1130 1.370 1_554 S
C1131 C1132 1.403 . S
C1132 C1131 1.403 . S
C1132 C1133 1.404 1_554 S
C1132 C1135 1.539 . S
C1133 C1129 1.408 . S
C1133 C1132 1.404 1_556 S
C1133 H1145 0.930 . S
C1134 C1130 1.524 . S
C1134 H1146 0.956 1_556 S
C1134 H1147 0.961 . S
C1134 H1148 0.961 . S
C1135 C1132 1.539 . S
C1135 H1149 0.958 . S
C1135 H1150 0.961 . S
C1135 H1151 0.960 . S
H1136 C1120 0.931 . S
H1137 C1125 0.929 . S
H1138 C1126 0.960 . S
H1139 C1126 0.962 . S
H1140 C1126 0.960 . S
H1141 C1127 0.961 . S
H1142 C1127 0.961 . S
H1143 C1127 0.961 . S
H1144 C1128 0.931 . S
H1145 C1133 0.930 . S
H1146 C1134 0.956 1_554 S
H1147 C1134 0.961 . S
H1148 C1134 0.961 . S
H1149 C1135 0.958 . S
H1150 C1135 0.961 . S
H1151 C1135 0.960 . S
C1152 C1153 1.391 . S
C1152 C1154 1.394 . S
C1152 H1168 0.931 . S
C1153 C1152 1.391 . S
C1153 C1157 1.376 1_455 S
C1154 C1152 1.394 . S
C1154 C1155 1.369 . S
C1154 C1158 1.531 . S
C1155 C1154 1.369 . S
C1155 C1156 1.410 1_455 S
C1155 C1163 1.503 . S
C1156 C1155 1.410 1_655 S
C1156 C1157 1.392 . S
C1156 C1159 1.511 . S
C1157 C1153 1.376 1_655 S
C1157 C1156 1.392 . S
C1157 H1169 0.929 . S
C1158 C1154 1.531 . S
C1158 H1170 0.960 . S
C1158 H1171 0.962 . S
C1158 H1172 0.960 . S
C1159 C1156 1.511 . S
C1159 H1173 0.961 . S
C1159 H1174 0.961 . S
C1159 H1175 0.961 . S
C1160 C1161 1.370 . S
C1160 C1162 1.363 . S
C1160 H1176 0.931 . S
C1161 C1160 1.370 . S
C1161 C1165 1.408 1_455 S
C1162 C1160 1.363 . S
C1162 C1163 1.370 . S
C1162 C1166 1.524 . S
C1163 C1155 1.503 . S
C1163 C1162 1.370 . S
C1163 C1164 1.403 1_455 S
C1164 C1163 1.403 1_655 S
C1164 C1165 1.404 . S
C1164 C1167 1.539 . S
C1165 C1161 1.408 1_655 S
C1165 C1164 1.404 . S
C1165 H1177 0.930 . S
C1166 C1162 1.524 . S
C1166 H1178 0.956 . S
C1166 H1179 0.961 . S
C1166 H1180 0.961 . S
C1167 C1164 1.539 . S
C1167 H1181 0.958 . S
C1167 H1182 0.961 . S
C1167 H1183 0.960 . S
H1168 C1152 0.931 . S
H1169 C1157 0.929 . S
H1170 C1158 0.960 . S
H1171 C1158 0.962 . S
H1172 C1158 0.960 . S
H1173 C1159 0.961 . S
H1174 C1159 0.961 . S
H1175 C1159 0.961 . S
H1176 C1160 0.931 . S
H1177 C1165 0.930 . S
H1178 C1166 0.956 . S
H1179 C1166 0.961 . S
H1180 C1166 0.961 . S
H1181 C1167 0.958 . S
H1182 C1167 0.961 . S
H1183 C1167 0.960 . S
C1184 C1185 1.391 . S
C1184 C1186 1.394 . S
C1184 H1200 0.931 . S
C1185 C1184 1.391 . S
C1185 C1189 1.376 . S
C1186 C1184 1.394 . S
C1186 C1187 1.369 . S
C1186 C1190 1.531 . S
C1187 C1186 1.369 . S
C1187 C1188 1.410 . S
C1187 C1195 1.503 . S
C1188 C1187 1.410 . S
C1188 C1189 1.392 . S
C1188 C1191 1.511 . S
C1189 C1185 1.376 . S
C1189 C1188 1.392 . S
C1189 H1201 0.922 1_545 S
C1190 C1186 1.531 . S
C1190 H1202 0.960 . S
C1190 H1203 0.962 . S
C1190 H1204 0.960 . S
C1191 C1188 1.511 . S
C1191 H1205 0.961 1_545 S
C1191 H1206 0.961 1_545 S
C1191 H1207 0.961 . S
C1192 C1193 1.370 1_565 S
C1192 C1194 1.363 . S
C1192 H1208 0.931 . S
C1193 C1192 1.370 1_545 S
C1193 C1197 1.408 . S
C1194 C1192 1.363 . S
C1194 C1195 1.370 1_565 S
C1194 C1198 1.524 . S
C1195 C1187 1.503 . S
C1195 C1194 1.370 1_545 S
C1195 C1196 1.403 . S
C1196 C1195 1.403 . S
C1196 C1197 1.404 . S
C1196 C1199 1.539 . S
C1197 C1193 1.408 . S
C1197 C1196 1.404 . S
C1197 H1209 0.930 . S
C1198 C1194 1.524 . S
C1198 H1210 0.956 . S
C1198 H1211 0.961 . S
C1198 H1212 0.961 . S
C1199 C1196 1.539 . S
C1199 H1213 0.958 . S
C1199 H1214 0.961 . S
C1199 H1215 0.960 . S
H1200 C1184 0.931 . S
H1201 C1189 0.922 1_565 S
H1202 C1190 0.960 . S
H1203 C1190 0.962 . S
H1204 C1190 0.960 . S
H1205 C1191 0.961 1_565 S
H1206 C1191 0.961 1_565 S
H1207 C1191 0.961 . S
H1208 C1192 0.931 . S
H1209 C1197 0.930 . S
H1210 C1198 0.956 . S
H1211 C1198 0.961 . S
H1212 C1198 0.961 . S
H1213 C1199 0.958 . S
H1214 C1199 0.961 . S
H1215 C1199 0.960 . S
C1216 C1217 1.391 . S
C1216 C1218 1.394 . S
C1216 H1232 0.931 . S
C1217 C1216 1.391 . S
C1217 C1221 1.376 . S
C1218 C1216 1.394 . S
C1218 C1219 1.369 . S
C1218 C1222 1.531 . S
C1219 C1218 1.369 . S
C1219 C1220 1.410 . S
C1219 C1227 1.503 . S
C1220 C1219 1.410 . S
C1220 C1221 1.392 . S
C1220 C1223 1.511 . S
C1221 C1217 1.376 . S
C1221 C1220 1.392 . S
C1221 H1233 0.929 . S
C1222 C1218 1.531 . S
C1222 H1234 0.960 . S
C1222 H1235 0.962 . S
C1222 H1236 0.960 . S
C1223 C1220 1.511 . S
C1223 H1237 0.961 . S
C1223 H1238 0.961 . S
C1223 H1239 0.961 . S
C1224 C1225 1.370 . S
C1224 C1226 1.363 . S
C1224 H1240 0.931 . S
C1225 C1224 1.370 . S
C1225 C1229 1.408 . S
C1226 C1224 1.363 . S
C1226 C1227 1.370 . S
C1226 C1230 1.524 . S
C1227 C1219 1.503 . S
C1227 C1226 1.370 . S
C1227 C1228 1.403 . S
C1228 C1227 1.403 . S
C1228 C1229 1.404 . S
C1228 C1231 1.539 . S
C1229 C1225 1.408 . S
C1229 C1228 1.404 . S
C1229 H1241 0.930 . S
C1230 C1226 1.524 . S
C1230 H1242 0.956 . S
C1230 H1243 0.961 . S
C1230 H1244 0.961 . S
C1231 C1228 1.539 . S
C1231 H1245 0.958 . S
C1231 H1246 0.961 . S
C1231 H1247 0.960 . S
H1232 C1216 0.931 . S
H1233 C1221 0.929 . S
H1234 C1222 0.960 . S
H1235 C1222 0.962 . S
H1236 C1222 0.960 . S
H1237 C1223 0.961 . S
H1238 C1223 0.961 . S
H1239 C1223 0.961 . S
H1240 C1224 0.931 . S
H1241 C1229 0.930 . S
H1242 C1230 0.956 . S
H1243 C1230 0.961 . S
H1244 C1230 0.961 . S
H1245 C1231 0.958 . S
H1246 C1231 0.961 . S
H1247 C1231 0.960 . S
C1248 C1249 1.391 . S
C1248 C1250 1.394 . S
C1248 H1264 0.931 . S
C1249 C1248 1.391 . S
C1249 C1253 1.376 . S
C1250 C1248 1.394 . S
C1250 C1251 1.369 . S
C1250 C1254 1.531 . S
C1251 C1250 1.369 . S
C1251 C1252 1.410 . S
C1251 C1259 1.503 . S
C1252 C1251 1.410 . S
C1252 C1253 1.392 . S
C1252 C1255 1.511 . S
C1253 C1249 1.376 . S
C1253 C1252 1.392 . S
C1253 H1265 0.929 . S
C1254 C1250 1.531 . S
C1254 H1266 0.960 . S
C1254 H1267 0.962 . S
C1254 H1268 0.960 . S
C1255 C1252 1.511 . S
C1255 H1269 0.961 . S
C1255 H1270 0.961 . S
C1255 H1271 0.961 . S
C1256 C1257 1.370 . S
C1256 C1258 1.363 . S
C1256 H1272 0.931 . S
C1257 C1256 1.370 . S
C1257 C1261 1.408 . S
C1258 C1256 1.363 . S
C1258 C1259 1.370 . S
C1258 C1262 1.524 . S
C1259 C1251 1.503 . S
C1259 C1258 1.370 . S
C1259 C1260 1.403 . S
C1260 C1259 1.403 . S
C1260 C1261 1.404 . S
C1260 C1263 1.539 . S
C1261 C1257 1.408 . S
C1261 C1260 1.404 . S
C1261 H1273 0.930 . S
C1262 C1258 1.524 . S
C1262 H1274 0.956 . S
C1262 H1275 0.961 . S
C1262 H1276 0.961 . S
C1263 C1260 1.539 . S
C1263 H1277 0.958 . S
C1263 H1278 0.961 . S
C1263 H1279 0.960 . S
H1264 C1248 0.931 . S
H1265 C1253 0.929 . S
H1266 C1254 0.960 . S
H1267 C1254 0.962 . S
H1268 C1254 0.960 . S
H1269 C1255 0.961 . S
H1270 C1255 0.961 . S
H1271 C1255 0.961 . S
H1272 C1256 0.931 . S
H1273 C1261 0.930 . S
H1274 C1262 0.956 . S
H1275 C1262 0.961 . S
H1276 C1262 0.961 . S
H1277 C1263 0.958 . S
H1278 C1263 0.961 . S
H1279 C1263 0.960 . S
C1280 C1281 1.391 1_455 S
C1280 C1282 1.394 . S
C1280 H1296 0.931 . S
C1281 C1280 1.391 1_655 S
C1281 C1285 1.376 . S
C1282 C1280 1.394 . S
C1282 C1283 1.369 1_455 S
C1282 C1286 1.531 . S
C1283 C1282 1.369 1_655 S
C1283 C1284 1.410 . S
C1283 C1291 1.503 . S
C1284 C1283 1.410 . S
C1284 C1285 1.392 . S
C1284 C1287 1.511 . S
C1285 C1281 1.376 . S
C1285 C1284 1.392 . S
C1285 H1297 0.929 . S
C1286 C1282 1.531 . S
C1286 H1298 0.960 . S
C1286 H1299 0.962 . S
C1286 H1300 0.960 . S
C1287 C1284 1.511 . S
C1287 H1301 0.961 . S
C1287 H1302 0.961 . S
C1287 H1303 0.961 . S
C1288 C1289 1.370 . S
C1288 C1290 1.363 . S
C1288 H1304 0.931 . S
C1289 C1288 1.370 . S
C1289 C1293 1.408 . S
C1290 C1288 1.363 . S
C1290 C1291 1.370 . S
C1290 C1294 1.524 . S
C1291 C1283 1.503 . S
C1291 C1290 1.370 . S
C1291 C1292 1.403 . S
C1292 C1291 1.403 . S
C1292 C1293 1.404 . S
C1292 C1295 1.539 . S
C1293 C1289 1.408 . S
C1293 C1292 1.404 . S
C1293 H1305 0.930 . S
C1294 C1290 1.524 . S
C1294 H1306 0.956 1_655 S
C1294 H1307 0.961 . S
C1294 H1308 0.961 . S
C1295 C1292 1.539 . S
C1295 H1309 0.958 1_655 S
C1295 H1310 0.961 . S
C1295 H1311 0.960 . S
H1296 C1280 0.931 . S
H1297 C1285 0.929 . S
H1298 C1286 0.960 . S
H1299 C1286 0.962 . S
H1300 C1286 0.960 . S
H1301 C1287 0.961 . S
H1302 C1287 0.961 . S
H1303 C1287 0.961 . S
H1304 C1288 0.931 . S
H1305 C1293 0.930 . S
H1306 C1294 0.956 1_455 S
H1307 C1294 0.961 . S
H1308 C1294 0.961 . S
H1309 C1295 0.958 1_455 S
H1310 C1295 0.961 . S
H1311 C1295 0.960 . S
C1312 C1313 1.391 1_545 S
C1312 C1314 1.394 . S
C1312 H1328 0.931 . S
C1313 C1312 1.391 1_565 S
C1313 C1317 1.376 . S
C1314 C1312 1.394 . S
C1314 C1315 1.369 1_545 S
C1314 C1318 1.531 . S
C1315 C1314 1.369 1_565 S
C1315 C1316 1.410 . S
C1315 C1323 1.503 . S
C1316 C1315 1.410 . S
C1316 C1317 1.392 . S
C1316 C1319 1.511 . S
C1317 C1313 1.376 . S
C1317 C1316 1.392 . S
C1317 H1329 0.929 . S
C1318 C1314 1.531 . S
C1318 H1330 0.960 . S
C1318 H1331 0.962 . S
C1318 H1332 0.960 . S
C1319 C1316 1.511 . S
C1319 H1333 0.961 . S
C1319 H1334 0.961 . S
C1319 H1335 0.961 . S
C1320 C1321 1.370 . S
C1320 C1322 1.363 . S
C1320 H1336 0.931 . S
C1321 C1320 1.370 . S
C1321 C1325 1.408 . S
C1322 C1320 1.363 . S
C1322 C1323 1.370 . S
C1322 C1326 1.524 . S
C1323 C1315 1.503 . S
C1323 C1322 1.370 . S
C1323 C1324 1.413 . S
C1324 C1323 1.413 . S
C1324 C1325 1.408 . S
C1324 C1327 1.529 1_565 S
C1325 C1321 1.408 . S
C1325 C1324 1.408 . S
C1325 H1337 0.930 1_565 S
C1326 C1322 1.524 . S
C1326 H1338 0.956 . S
C1326 H1339 0.961 . S
C1326 H1340 0.961 . S
C1327 C1324 1.529 1_545 S
C1327 H1341 0.958 . S
C1327 H1342 0.955 1_545 S
C1327 H1343 0.960 1_545 S
H1328 C1312 0.931 . S
H1329 C1317 0.929 . S
H1330 C1318 0.960 . S
H1331 C1318 0.962 . S
H1332 C1318 0.960 . S
H1333 C1319 0.961 . S
H1334 C1319 0.961 . S
H1335 C1319 0.961 . S
H1336 C1320 0.931 . S
H1337 C1325 0.930 1_545 S
H1338 C1326 0.956 . S
H1339 C1326 0.961 . S
H1340 C1326 0.961 . S
H1341 C1327 0.958 . S
H1342 C1327 0.955 1_565 S
H1343 C1327 0.960 1_565 S
C1344 C1345 1.391 . S
C1344 C1346 1.394 . S
C1344 H1360 0.931 . S
C1345 C1344 1.391 . S
C1345 C1349 1.376 . S
C1346 C1344 1.394 . S
C1346 C1347 1.369 . S
C1346 C1350 1.531 . S
C1347 C1346 1.369 . S
C1347 C1348 1.410 . S
C1347 C1355 1.503 . S
C1348 C1347 1.410 . S
C1348 C1349 1.392 . S
C1348 C1351 1.511 . S
C1349 C1345 1.376 . S
C1349 C1348 1.392 . S
C1349 H1361 0.929 . S
C1350 C1346 1.531 . S
C1350 H1362 0.960 . S
C1350 H1363 0.962 . S
C1350 H1364 0.960 . S
C1351 C1348 1.511 . S
C1351 H1365 0.961 . S
C1351 H1366 0.961 . S
C1351 H1367 0.961 . S
C1352 C1353 1.370 . S
C1352 C1354 1.363 . S
C1352 H1368 0.931 . S
C1353 C1352 1.370 . S
C1353 C1357 1.408 . S
C1354 C1352 1.363 . S
C1354 C1355 1.370 . S
C1354 C1358 1.524 . S
C1355 C1347 1.503 . S
C1355 C1354 1.370 . S
C1355 C1356 1.403 . S
C1356 C1355 1.403 . S
C1356 C1357 1.404 . S
C1356 C1359 1.539 . S
C1357 C1353 1.408 . S
C1357 C1356 1.404 . S
C1357 H1369 0.930 . S
C1358 C1354 1.524 . S
C1358 H1370 0.956 . S
C1358 H1371 0.961 . S
C1358 H1372 0.961 . S
C1359 C1356 1.539 . S
C1359 H1373 0.958 . S
C1359 H1374 0.961 . S
C1359 H1375 0.960 . S
H1360 C1344 0.931 . S
H1361 C1349 0.929 . S
H1362 C1350 0.960 . S
H1363 C1350 0.962 . S
H1364 C1350 0.960 . S
H1365 C1351 0.961 . S
H1366 C1351 0.961 . S
H1367 C1351 0.961 . S
H1368 C1352 0.931 . S
H1369 C1357 0.930 . S
H1370 C1358 0.956 . S
H1371 C1358 0.961 . S
H1372 C1358 0.961 . S
H1373 C1359 0.958 . S
H1374 C1359 0.961 . S
H1375 C1359 0.960 . S
C1376 C1377 1.391 . S
C1376 C1378 1.394 . S
C1376 H1392 0.931 . S
C1377 C1376 1.391 . S
C1377 C1381 1.376 . S
C1378 C1376 1.394 . S
C1378 C1379 1.369 . S
C1378 C1382 1.531 . S
C1379 C1378 1.369 . S
C1379 C1380 1.410 . S
C1379 C1387 1.503 . S
C1380 C1379 1.410 . S
C1380 C1381 1.392 . S
C1380 C1383 1.511 . S
C1381 C1377 1.376 . S
C1381 C1380 1.392 . S
C1381 H1393 0.929 . S
C1382 C1378 1.531 . S
C1382 H1394 0.960 . S
C1382 H1395 0.962 . S
C1382 H1396 0.960 . S
C1383 C1380 1.511 . S
C1383 H1397 0.961 . S
C1383 H1398 0.961 . S
C1383 H1399 0.961 . S
C1384 C1385 1.370 . S
C1384 C1386 1.363 . S
C1384 H1400 0.931 . S
C1385 C1384 1.370 . S
C1385 C1389 1.408 . S
C1386 C1384 1.363 . S
C1386 C1387 1.370 . S
C1386 C1390 1.524 . S
C1387 C1379 1.503 . S
C1387 C1386 1.370 . S
C1387 C1388 1.403 . S
C1388 C1387 1.403 . S
C1388 C1389 1.404 . S
C1388 C1391 1.539 . S
C1389 C1385 1.408 . S
C1389 C1388 1.404 . S
C1389 H1401 0.930 . S
C1390 C1386 1.524 . S
C1390 H1402 0.956 . S
C1390 H1403 0.961 . S
C1390 H1404 0.961 . S
C1391 C1388 1.539 . S
C1391 H1405 0.958 . S
C1391 H1406 0.961 . S
C1391 H1407 0.960 . S
H1392 C1376 0.931 . S
H1393 C1381 0.929 . S
H1394 C1382 0.960 . S
H1395 C1382 0.962 . S
H1396 C1382 0.960 . S
H1397 C1383 0.961 . S
H1398 C1383 0.961 . S
H1399 C1383 0.961 . S
H1400 C1384 0.931 . S
H1401 C1389 0.930 . S
H1402 C1390 0.956 . S
H1403 C1390 0.961 . S
H1404 C1390 0.961 . S
H1405 C1391 0.958 . S
H1406 C1391 0.961 . S
H1407 C1391 0.960 . S
C641 C391 2.258 1_565 S
C649 C489 2.349 1_545 S
C681 C529 2.366 . S
C673 C451 2.259 . S
C713 C569 2.369 . S
C705 C241 1.994 . S
C745 C609 2.353 1_455 S
C737 C331 2.020 . S
C777 C498 2.352 1_565 S
C769 C121 2.031 1_545 S
C801 C211 2.250 . S
C809 C538 2.367 . S
C833 C31 2.273 . S
C841 C578 2.369 . S
C865 C91 2.022 . S
C873 C618 2.356 1_655 S
C905 C495 0.450 . S
C897 C301 0.666 1_455 S
C937 C535 0.443 . S
C929 C380 0.347 . S
C969 C575 0.460 . S
C961 C440 0.345 . S
C993 C260 0.618 . S
C1001 C615 0.392 . S
C1025 C61 0.447 . S
C1033 C486 0.484 . S
C1065 C526 0.408 . S
C1057 C140 0.488 . S
C1097 C566 0.411 . S
C1089 C200 0.495 . S
C1121 C20 0.331 . S
C1129 C606 0.485 . S
C1153 C320 2.972 1_455 S
C1161 C499 3.204 . S
C1185 C361 2.560 . S
C1193 C539 3.202 . S
C1225 C579 3.189 . S
C1217 C421 2.598 . S
C1257 C619 3.207 . S
C1249 C271 2.959 . S
C1281 C80 2.956 . S
C1289 C490 3.220 . S
C1321 C530 3.197 . S
C1313 C151 2.942 . S
C1353 C570 3.186 . S
C1345 C181 2.602 . S
C1377 C1 2.624 . S
C1385 C610 3.208 . S
