# Generated by pormake.
# Topology ptr, (4,4)-cn, num edge types: 1
# Building blocks:
#     Node 0, Type 0, BuildingBlock: NAHDIM_clean_sbu_0, # of connection points: 4
#     Node 1, Type 0, BuildingBlock: NAHDIM_clean_sbu_0, # of connection points: 4
#     Node 2, Type 0, BuildingBlock: NAHDIM_clean_sbu_0, # of connection points: 4
#     Node 3, Type 0, BuildingBlock: NAHDIM_clean_sbu_0, # of connection points: 4
#     Node 4, Type 0, BuildingBlock: NAHDIM_clean_sbu_0, # of connection points: 4
#     Node 5, Type 0, BuildingBlock: NAHDIM_clean_sbu_0, # of connection points: 4
#     Node 6, Type 0, BuildingBlock: NAHDIM_clean_sbu_0, # of connection points: 4
#     Node 7, Type 0, BuildingBlock: NAHDIM_clean_sbu_0, # of connection points: 4
#     Node 8, Type 0, BuildingBlock: NAHDIM_clean_sbu_0, # of connection points: 4
#     Node 9, Type 0, BuildingBlock: NAHDIM_clean_sbu_0, # of connection points: 4
#     Node 10, Type 0, BuildingBlock: NAHDIM_clean_sbu_0, # of connection points: 4
#     Node 11, Type 0, BuildingBlock: NAHDIM_clean_sbu_0, # of connection points: 4
#     Node 12, Type 0, BuildingBlock: NAHDIM_clean_sbu_0, # of connection points: 4
#     Node 13, Type 0, BuildingBlock: NAHDIM_clean_sbu_0, # of connection points: 4
#     Node 14, Type 0, BuildingBlock: NAHDIM_clean_sbu_0, # of connection points: 4
#     Node 15, Type 0, BuildingBlock: NAHDIM_clean_sbu_0, # of connection points: 4
#     Node 16, Type 0, BuildingBlock: NAHDIM_clean_sbu_0, # of connection points: 4
#     Node 17, Type 0, BuildingBlock: NAHDIM_clean_sbu_0, # of connection points: 4
#     Node 18, Type 1, BuildingBlock: KUFVIS_clean_linker_0, # of connection points: 4
#     Node 19, Type 1, BuildingBlock: KUFVIS_clean_linker_0, # of connection points: 4
#     Node 20, Type 1, BuildingBlock: KUFVIS_clean_linker_0, # of connection points: 4
#     Node 21, Type 1, BuildingBlock: KUFVIS_clean_linker_0, # of connection points: 4
#     Node 22, Type 1, BuildingBlock: KUFVIS_clean_linker_0, # of connection points: 4
#     Node 23, Type 1, BuildingBlock: KUFVIS_clean_linker_0, # of connection points: 4
#     Node 24, Type 1, BuildingBlock: KUFVIS_clean_linker_0, # of connection points: 4
#     Node 25, Type 1, BuildingBlock: KUFVIS_clean_linker_0, # of connection points: 4
#     Node 26, Type 1, BuildingBlock: KUFVIS_clean_linker_0, # of connection points: 4
#     Node 27, Type 1, BuildingBlock: KUFVIS_clean_linker_0, # of connection points: 4
#     Node 28, Type 1, BuildingBlock: KUFVIS_clean_linker_0, # of connection points: 4
#     Node 29, Type 1, BuildingBlock: KUFVIS_clean_linker_0, # of connection points: 4
#     Node 30, Type 1, BuildingBlock: KUFVIS_clean_linker_0, # of connection points: 4
#     Node 31, Type 1, BuildingBlock: KUFVIS_clean_linker_0, # of connection points: 4
#     Node 32, Type 1, BuildingBlock: KUFVIS_clean_linker_0, # of connection points: 4
#     Node 33, Type 1, BuildingBlock: KUFVIS_clean_linker_0, # of connection points: 4
#     Node 34, Type 1, BuildingBlock: KUFVIS_clean_linker_0, # of connection points: 4
#     Node 35, Type 1, BuildingBlock: KUFVIS_clean_linker_0, # of connection points: 4
#     Edge 36, Type (0, 1), BuildingBlock: AJUNOK_clean_linker_0, # of connection points: 2
#     Edge 37, Type (0, 1), BuildingBlock: AJUNOK_clean_linker_0, # of connection points: 2
#     Edge 38, Type (0, 1), BuildingBlock: AJUNOK_clean_linker_0, # of connection points: 2
#     Edge 39, Type (0, 1), BuildingBlock: AJUNOK_clean_linker_0, # of connection points: 2
#     Edge 40, Type (0, 1), BuildingBlock: AJUNOK_clean_linker_0, # of connection points: 2
#     Edge 41, Type (0, 1), BuildingBlock: AJUNOK_clean_linker_0, # of connection points: 2
#     Edge 42, Type (0, 1), BuildingBlock: AJUNOK_clean_linker_0, # of connection points: 2
#     Edge 43, Type (0, 1), BuildingBlock: AJUNOK_clean_linker_0, # of connection points: 2
#     Edge 44, Type (0, 1), BuildingBlock: AJUNOK_clean_linker_0, # of connection points: 2
#     Edge 45, Type (0, 1), BuildingBlock: AJUNOK_clean_linker_0, # of connection points: 2
#     Edge 46, Type (0, 1), BuildingBlock: AJUNOK_clean_linker_0, # of connection points: 2
#     Edge 47, Type (0, 1), BuildingBlock: AJUNOK_clean_linker_0, # of connection points: 2
#     Edge 48, Type (0, 1), BuildingBlock: AJUNOK_clean_linker_0, # of connection points: 2
#     Edge 49, Type (0, 1), BuildingBlock: AJUNOK_clean_linker_0, # of connection points: 2
#     Edge 50, Type (0, 1), BuildingBlock: AJUNOK_clean_linker_0, # of connection points: 2
#     Edge 51, Type (0, 1), BuildingBlock: AJUNOK_clean_linker_0, # of connection points: 2
#     Edge 52, Type (0, 1), BuildingBlock: AJUNOK_clean_linker_0, # of connection points: 2
#     Edge 53, Type (0, 1), BuildingBlock: AJUNOK_clean_linker_0, # of connection points: 2
#     Edge 54, Type (0, 1), BuildingBlock: AJUNOK_clean_linker_0, # of connection points: 2
#     Edge 55, Type (0, 1), BuildingBlock: AJUNOK_clean_linker_0, # of connection points: 2
#     Edge 56, Type (0, 1), BuildingBlock: AJUNOK_clean_linker_0, # of connection points: 2
#     Edge 57, Type (0, 1), BuildingBlock: AJUNOK_clean_linker_0, # of connection points: 2
#     Edge 58, Type (0, 1), BuildingBlock: AJUNOK_clean_linker_0, # of connection points: 2
#     Edge 59, Type (0, 1), BuildingBlock: AJUNOK_clean_linker_0, # of connection points: 2
#     Edge 60, Type (0, 1), BuildingBlock: AJUNOK_clean_linker_0, # of connection points: 2
#     Edge 61, Type (0, 1), BuildingBlock: AJUNOK_clean_linker_0, # of connection points: 2
#     Edge 62, Type (0, 1), BuildingBlock: AJUNOK_clean_linker_0, # of connection points: 2
#     Edge 63, Type (0, 1), BuildingBlock: AJUNOK_clean_linker_0, # of connection points: 2
#     Edge 64, Type (0, 1), BuildingBlock: AJUNOK_clean_linker_0, # of connection points: 2
#     Edge 65, Type (0, 1), BuildingBlock: AJUNOK_clean_linker_0, # of connection points: 2
#     Edge 66, Type (0, 1), BuildingBlock: AJUNOK_clean_linker_0, # of connection points: 2
#     Edge 67, Type (0, 1), BuildingBlock: AJUNOK_clean_linker_0, # of connection points: 2
#     Edge 68, Type (0, 1), BuildingBlock: AJUNOK_clean_linker_0, # of connection points: 2
#     Edge 69, Type (0, 1), BuildingBlock: AJUNOK_clean_linker_0, # of connection points: 2
#     Edge 70, Type (0, 1), BuildingBlock: AJUNOK_clean_linker_0, # of connection points: 2
#     Edge 71, Type (0, 1), BuildingBlock: AJUNOK_clean_linker_0, # of connection points: 2
#     Edge 72, Type (0, 1), BuildingBlock: AJUNOK_clean_linker_0, # of connection points: 2
#     Edge 73, Type (0, 1), BuildingBlock: AJUNOK_clean_linker_0, # of connection points: 2
#     Edge 74, Type (0, 1), BuildingBlock: AJUNOK_clean_linker_0, # of connection points: 2
#     Edge 75, Type (0, 1), BuildingBlock: AJUNOK_clean_linker_0, # of connection points: 2
#     Edge 76, Type (0, 1), BuildingBlock: AJUNOK_clean_linker_0, # of connection points: 2
#     Edge 77, Type (0, 1), BuildingBlock: AJUNOK_clean_linker_0, # of connection points: 2
#     Edge 78, Type (0, 1), BuildingBlock: AJUNOK_clean_linker_0, # of connection points: 2
#     Edge 79, Type (0, 1), BuildingBlock: AJUNOK_clean_linker_0, # of connection points: 2
#     Edge 80, Type (0, 1), BuildingBlock: AJUNOK_clean_linker_0, # of connection points: 2
#     Edge 81, Type (0, 1), BuildingBlock: AJUNOK_clean_linker_0, # of connection points: 2
#     Edge 82, Type (0, 1), BuildingBlock: AJUNOK_clean_linker_0, # of connection points: 2
#     Edge 83, Type (0, 1), BuildingBlock: AJUNOK_clean_linker_0, # of connection points: 2
#     Edge 84, Type (0, 1), BuildingBlock: AJUNOK_clean_linker_0, # of connection points: 2
#     Edge 85, Type (0, 1), BuildingBlock: AJUNOK_clean_linker_0, # of connection points: 2
#     Edge 86, Type (0, 1), BuildingBlock: AJUNOK_clean_linker_0, # of connection points: 2
#     Edge 87, Type (0, 1), BuildingBlock: AJUNOK_clean_linker_0, # of connection points: 2
#     Edge 88, Type (0, 1), BuildingBlock: AJUNOK_clean_linker_0, # of connection points: 2
#     Edge 89, Type (0, 1), BuildingBlock: AJUNOK_clean_linker_0, # of connection points: 2
#     Edge 90, Type (0, 1), BuildingBlock: AJUNOK_clean_linker_0, # of connection points: 2
#     Edge 91, Type (0, 1), BuildingBlock: AJUNOK_clean_linker_0, # of connection points: 2
#     Edge 92, Type (0, 1), BuildingBlock: AJUNOK_clean_linker_0, # of connection points: 2
#     Edge 93, Type (0, 1), BuildingBlock: AJUNOK_clean_linker_0, # of connection points: 2
#     Edge 94, Type (0, 1), BuildingBlock: AJUNOK_clean_linker_0, # of connection points: 2
#     Edge 95, Type (0, 1), BuildingBlock: AJUNOK_clean_linker_0, # of connection points: 2
#     Edge 96, Type (0, 1), BuildingBlock: AJUNOK_clean_linker_0, # of connection points: 2
#     Edge 97, Type (0, 1), BuildingBlock: AJUNOK_clean_linker_0, # of connection points: 2
#     Edge 98, Type (0, 1), BuildingBlock: AJUNOK_clean_linker_0, # of connection points: 2
#     Edge 99, Type (0, 1), BuildingBlock: AJUNOK_clean_linker_0, # of connection points: 2
#     Edge 100, Type (0, 1), BuildingBlock: AJUNOK_clean_linker_0, # of connection points: 2
#     Edge 101, Type (0, 1), BuildingBlock: AJUNOK_clean_linker_0, # of connection points: 2
#     Edge 102, Type (0, 1), BuildingBlock: AJUNOK_clean_linker_0, # of connection points: 2
#     Edge 103, Type (0, 1), BuildingBlock: AJUNOK_clean_linker_0, # of connection points: 2
#     Edge 104, Type (0, 1), BuildingBlock: AJUNOK_clean_linker_0, # of connection points: 2
#     Edge 105, Type (0, 1), BuildingBlock: AJUNOK_clean_linker_0, # of connection points: 2
#     Edge 106, Type (0, 1), BuildingBlock: AJUNOK_clean_linker_0, # of connection points: 2
#     Edge 107, Type (0, 1), BuildingBlock: AJUNOK_clean_linker_0, # of connection points: 2
# Relax obj value: 0.075
# Max RMSD: 0.215
# Mean RMSD: 0.122
data_MOF--net-ptr--node1-NAHDIM_clean_sbu_0--node2-KUFVIS_clean_linker_0--edge1-AJUNOK_clean_linker_0
_symmetry_space_group_name_H-M    P1
_symmetry_Int_Tables_number       1
_symmetry_cell_setting            triclinic
loop_
_symmetry_equiv_pos_as_xyz
'x, y, z'
_cell_length_a     59.199745
_cell_length_b     58.008942
_cell_length_c     35.886333
_cell_angle_alpha  91.280924
_cell_angle_beta   89.44397
_cell_angle_gamma 122.0309
loop_
_atom_site_label
_atom_site_type_symbol
_atom_site_fract_x
_atom_site_fract_y
_atom_site_fract_z
_atom_type_partial_charge
C0 C 0.06763 0.36005 -0.00663 0.0
O1 O 0.05439 0.3438 0.96504 0.0
O2 O 0.9938 0.33638 0.98765 0.0
Zn3 Zn 0.02588 0.37414 -0.00355 0.0
O4 O 0.01782 0.39066 0.04029 0.0
C5 C 1.01414 0.40368 0.94576 0.0
O6 O 0.99352 0.39448 0.9681 0.0
O7 O 0.05917 0.37401 0.00887 0.0
C8 C 0.02997 0.41634 0.04443 0.0
O9 O 0.04818 0.43177 0.01998 0.0
C10 C 0.98941 0.31414 0.00069 0.0
O11 O 1.00735 0.31413 0.02189 0.0
O12 O 0.03119 0.39715 0.95175 0.0
C13 C 0.72096 0.67778 0.0066 0.0
O14 O 0.72343 0.6989 0.02483 0.0
O15 O 0.67454 0.69875 0.00838 0.0
Zn16 Zn 0.66457 0.65973 0.00216 0.0
O17 O 0.64063 0.64131 0.95758 0.0
C18 C 0.62007 0.62805 0.05043 0.0
O19 O 0.60779 0.63283 0.02429 0.0
O20 O 0.69806 0.65905 -0.005 0.0
C21 C 0.62942 0.61563 0.95441 0.0
O22 O 0.63462 0.60289 0.97948 0.0
C23 C 0.66267 0.70946 -0.00574 0.0
O24 O 0.64157 0.69449 0.97319 0.0
O25 O 0.64507 0.63836 0.04768 0.0
C26 C 0.36419 0.05556 0.00338 0.0
O27 O 0.34722 0.04005 0.02902 0.0
O28 O 0.34611 0.98241 0.01036 0.0
Zn29 Zn 0.38212 0.01615 0.00037 0.0
O30 O 0.40102 1.01009 0.95784 0.0
C31 C 0.41126 1.00611 0.05215 0.0
O32 O 0.40265 0.9851 0.02925 0.0
O33 O 0.37971 0.04896 0.98873 0.0
C34 C 0.39349 0.9876 0.94107 0.0
O35 O 0.37083 0.96573 0.95034 0.0
C36 C 0.32411 0.97398 -0.00628 0.0
O37 O 0.32333 0.98787 0.96589 0.0
O38 O 0.4048 0.02338 0.04583 0.0
C39 C 0.96715 0.66485 0.00839 0.0
O40 O 0.98165 0.68293 0.0344 0.0
O41 O 0.03868 0.69428 0.01285 0.0
Zn42 Zn 1.01068 0.65457 0.00517 0.0
O43 O 0.01971 0.63895 0.96135 0.0
C44 C 0.02735 0.62869 0.05481 0.0
O45 O 0.04705 0.63851 0.03079 0.0
O46 O 0.97531 0.65033 -0.00606 0.0
C47 C 1.00687 0.61318 0.95817 0.0
O48 O 0.98863 0.59871 0.98313 0.0
C49 C 0.06114 0.70689 -0.00348 0.0
O50 O 0.0672 0.69377 0.97217 0.0
O51 O 1.00895 0.63355 0.05036 0.0
C52 C 0.31174 0.34406 0.99027 0.0
O53 O 0.31017 0.32307 0.97294 0.0
O54 O 0.36679 0.3308 -0.00272 0.0
Zn55 Zn 0.37023 0.36739 0.00041 0.0
O56 O 0.38943 0.38816 0.04735 0.0
C57 C 0.41074 0.38876 0.94337 0.0
O58 O 0.41647 0.37191 0.95804 0.0
O59 O 0.33418 0.36343 0.00229 0.0
C60 C 0.4144 0.40522 0.04949 0.0
O61 O 0.42948 0.40864 0.02052 0.0
C62 C 0.34979 0.30923 0.0139 0.0
O63 O 0.33253 0.30967 0.0367 0.0
O64 O 0.39112 0.3897 0.95621 0.0
C65 C 0.67023 0.97602 -0.00597 0.0
O66 O 0.68877 0.99364 0.97162 0.0
O67 O 0.6896 0.04961 -0.00272 0.0
Zn68 Zn 0.65296 0.01596 0.00522 0.0
O69 O 0.63646 0.01888 0.05298 0.0
C70 C 0.63297 0.03423 0.94809 0.0
O71 O 0.65287 0.05779 0.9603 0.0
O72 O 0.65418 0.98167 0.00926 0.0
C73 C 0.62885 0.03528 0.06025 0.0
O74 O 0.63341 0.05392 0.03605 0.0
C75 C 0.71171 0.05661 0.01255 0.0
O76 O 0.71256 0.04068 0.03719 0.0
O77 O 0.62887 0.01259 0.9629 0.0
C78 C 0.72337 0.68693 0.3226 0.0
O79 O 0.70218 0.66634 0.30656 0.0
O80 O 0.6572 0.67981 0.31752 0.0
Zn81 Zn 0.69277 0.7146 0.32544 0.0
O82 O 0.6914 0.734 0.37174 0.0
C83 C 0.68128 0.74502 0.27663 0.0
O84 O 0.66037 0.73449 0.29848 0.0
O85 O 0.72331 0.70828 0.33153 0.0
C86 C 0.67027 0.73127 0.38556 0.0
O87 O 0.64712 0.71371 0.3703 0.0
C88 C 0.64611 0.6585 0.33704 0.0
O89 O 0.65859 0.65706 0.3661 0.0
O90 O 0.69886 0.73912 0.28211 0.0
C91 C 0.3825 0.01284 0.34123 0.0
O92 O 0.38319 0.03259 0.36085 0.0
O93 O 0.32592 0.02315 0.34681 0.0
Zn94 Zn 0.32384 0.98771 0.33845 0.0
O95 O 0.30004 0.96682 0.29498 0.0
C96 C 0.28209 0.95841 0.38935 0.0
O97 O 0.27071 0.9663 0.36594 0.0
O98 O 0.36015 0.99276 0.3301 0.0
C99 C 0.28581 0.97338 0.27735 0.0
O100 O 0.28727 0.99626 0.2859 0.0
C101 C 0.33855 0.04482 0.32821 0.0
O102 O 0.35278 0.04581 0.29929 0.0
O103 O 0.3061 0.9653 0.38353 0.0
C104 C 0.03394 0.39315 0.33541 0.0
O105 O 1.01713 0.37941 0.36222 0.0
O106 O 1.00513 0.31834 0.34039 0.0
Zn107 Zn 0.04369 0.34794 0.33156 0.0
O108 O 0.05953 0.33812 0.28866 0.0
C109 C 0.07292 0.33602 0.38292 0.0
O110 O 0.06535 0.31549 0.35943 0.0
O111 O 0.04684 0.38367 0.31978 0.0
C112 C 0.0848 0.35203 0.28599 0.0
O113 O 0.09854 0.37191 0.31028 0.0
C114 C 0.99538 0.29312 0.33373 0.0
O115 O 1.01067 0.28533 0.31876 0.0
O116 O 0.06539 0.35253 0.37731 0.0
C117 C 0.63098 0.99516 0.34696 0.0
O118 O 0.64788 0.01391 0.37064 0.0
O119 O 0.70185 0.02148 0.34605 0.0
Zn120 Zn 0.67259 0.98214 0.33646 0.0
O121 O 0.67894 0.96799 0.28842 0.0
C122 C 0.69239 0.96416 0.39529 0.0
O123 O 0.71473 0.98694 0.38767 0.0
O124 O 0.63722 0.97953 0.33088 0.0
C125 C 0.69567 0.96072 0.28434 0.0
O126 O 0.71085 0.96332 0.31257 0.0
C127 C 0.72314 0.03519 0.32719 0.0
O128 O 0.72737 0.02385 0.29813 0.0
O129 O 0.6713 0.95818 0.3778 0.0
C130 C 0.98482 0.69588 0.32678 0.0
O131 O 0.98134 0.67807 0.30061 0.0
O132 O 0.02733 0.66676 0.32531 0.0
Zn133 Zn 0.0391 0.7062 0.33339 0.0
O134 O 0.06347 0.72222 0.3777 0.0
C135 C 0.08372 0.73628 0.28384 0.0
O136 O 0.09555 0.72949 0.30813 0.0
O137 O 1.00724 0.70949 0.34331 0.0
C138 C 0.07636 0.74791 0.38222 0.0
O139 O 0.07286 0.76246 0.35813 0.0
C140 C 0.03838 0.6555 0.34031 0.0
O141 O 0.05853 0.66982 0.36319 0.0
O142 O 0.05922 0.72799 0.28844 0.0
C143 C 0.34356 0.30703 0.32924 0.0
O144 O 0.36376 0.32686 0.31135 0.0
O145 O 0.36217 0.37544 0.32692 0.0
Zn146 Zn 0.32401 0.34431 0.33336 0.0
O147 O 0.30703 0.34817 0.38015 0.0
C148 C 0.30566 0.36256 0.27289 0.0
O149 O 0.32594 0.38634 0.28379 0.0
O150 O 0.32432 0.3097 0.33906 0.0
C151 C 0.29557 0.36145 0.3838 0.0
O152 O 0.29633 0.37639 0.35629 0.0
C153 C 0.37414 0.39918 0.34168 0.0
O154 O 0.36118 0.40612 0.36455 0.0
O155 O 0.3012 0.34135 0.28942 0.0
C156 C 0.39907 0.02869 0.66007 0.0
O157 O 0.38347 1.01137 0.63403 0.0
O158 O 0.32947 1.00495 0.65569 0.0
Zn159 Zn 0.35949 0.04439 0.66345 0.0
O160 O 0.35312 0.06165 0.70829 0.0
C161 C 0.37012 0.09097 0.61951 0.0
O162 O 0.37202 0.10234 0.65231 0.0
O163 O 0.39305 0.04487 0.67484 0.0
C164 C 0.33557 0.06767 0.71362 0.0
O165 O 0.31719 0.06101 0.68815 0.0
C166 C 0.30845 0.99126 0.6751 0.0
O167 O 0.30371 1.00306 0.70308 0.0
O168 O 0.36505 0.06671 0.61742 0.0
C169 C 0.05068 0.33971 0.6713 0.0
O170 O 0.05369 0.36046 0.69116 0.0
O171 O 1.00571 0.36228 0.67693 0.0
Zn172 Zn 0.99467 0.32318 0.66915 0.0
O173 O 0.97019 0.30685 0.62493 0.0
C174 C 0.9508 0.29337 0.72005 0.0
O175 O 0.93879 0.30071 0.69691 0.0
O176 O 0.02753 0.32156 0.65968 0.0
C177 C 0.95602 0.28113 0.62113 0.0
O178 O 0.95835 0.26611 0.6458 0.0
C179 C 0.99514 0.37389 0.6616 0.0
O180 O 0.97494 0.35989 0.63868 0.0
O181 O 0.97509 0.30125 0.71427 0.0
C182 C 0.69859 0.72674 0.67424 0.0
O183 O 0.67934 0.71044 0.69687 0.0
O184 O 0.67344 0.6532 0.67581 0.0
Zn185 Zn 0.71168 0.68374 0.66705 0.0
O186 O 0.72677 0.67826 0.61939 0.0
C187 C 0.73387 0.66735 0.7253 0.0
O188 O 0.7163 0.64275 0.71282 0.0
O189 O 0.71358 0.71925 0.66026 0.0
C190 C 0.74301 0.67026 0.61705 0.0
O191 O 0.74928 0.66234 0.64709 0.0
C192 C 0.66308 0.62833 0.66607 0.0
O193 O 0.67768 0.62082 0.64817 0.0
O194 O 0.73508 0.68767 0.7104 0.0
C195 C 0.29914 0.33184 0.67998 0.0
O196 O 0.31656 0.35187 0.7017 0.0
O197 O 0.36881 0.35501 0.68304 0.0
Zn198 Zn 0.3387 0.31568 0.67607 0.0
O199 O 0.34378 0.29879 0.62954 0.0
C200 C 0.35614 0.29587 0.73611 0.0
O201 O 0.37988 0.31523 0.72513 0.0
O202 O 0.30426 0.31429 0.66797 0.0
C203 C 0.35591 0.28611 0.62808 0.0
O204 O 0.36725 0.28443 0.65824 0.0
C205 C 0.39124 0.36668 0.66652 0.0
O206 O 0.39669 0.3526 0.64304 0.0
O207 O 0.33563 0.29303 0.72032 0.0
C208 C 0.64726 0.02016 0.6627 0.0
O209 O 0.64399 0.99813 0.64623 0.0
O210 O 0.69278 0.99819 0.6613 0.0
Zn211 Zn 0.70363 0.03727 0.66879 0.0
O212 O 0.72413 0.05356 0.71636 0.0
C213 C 0.74257 0.05546 0.60938 0.0
O214 O 0.74339 0.03411 0.61853 0.0
O215 O 0.67051 0.03894 0.67302 0.0
C216 C 0.74914 0.06449 0.72006 0.0
O217 O 0.76311 0.06366 0.692 0.0
C218 C 0.70241 0.98586 0.67718 0.0
O219 O 0.7221 0.99915 0.70106 0.0
O220 O 0.72648 0.06024 0.62633 0.0
C221 C 0.99852 0.63295 0.6629 0.0
O222 O 1.01668 0.64843 0.63845 0.0
O223 O 0.02208 0.70534 0.65472 0.0
Zn224 Zn 0.98369 0.67459 0.66412 0.0
O225 O 0.96612 0.68146 0.70816 0.0
C226 C 0.94806 0.68018 0.61605 0.0
O227 O 0.95074 0.69698 0.64315 0.0
O228 O 0.98296 0.64008 0.67583 0.0
C229 C 0.9686 0.70329 0.72112 0.0
O230 O 0.98584 0.72676 0.70637 0.0
C231 C 0.03892 0.72487 0.67576 0.0
O232 O 0.03255 0.72753 0.71001 0.0
O233 O 0.96082 0.66816 0.61811 0.0
H234 H 0.26618 0.34787 0.11465 0.0
H235 H 0.19813 0.33673 0.05651 0.0
H236 H 0.20733 0.35369 0.17592 0.0
H237 H 0.16447 0.33295 0.17616 0.0
H238 H 0.10903 0.34809 0.12466 0.0
H239 H 0.17262 0.35394 0.05933 0.0
C240 C 0.24726 0.34671 0.11519 0.0
C241 C 0.23754 0.35018 0.14889 0.0
C242 C 0.23331 0.34236 0.08202 0.0
C243 C 0.20876 0.34073 0.08253 0.0
C244 C 0.19839 0.34437 0.11645 0.0
C245 C 0.21349 0.34944 0.14954 0.0
C246 C 0.17256 0.34374 0.11762 0.0
C247 C 0.15833 0.33859 0.15151 0.0
C248 C 0.13595 0.34088 0.15438 0.0
C249 C 0.12634 0.3463 0.12259 0.0
C250 C 0.13912 0.35033 0.08829 0.0
C251 C 0.16236 0.34939 0.08576 0.0
H252 H 0.68892 0.93583 0.11196 0.0
H253 H 0.67663 0.86575 0.05129 0.0
H254 H 0.70109 0.87933 0.16764 0.0
H255 H 0.68475 0.83758 0.17073 0.0
H256 H 0.68741 0.77408 0.11382 0.0
H257 H 0.6884 0.83593 0.04965 0.0
C258 C 0.68922 0.91727 0.11116 0.0
C259 C 0.69469 0.90842 0.14361 0.0
C260 C 0.68329 0.90226 0.0779 0.0
C261 C 0.68259 0.87758 0.07698 0.0
C262 C 0.68884 0.86833 0.10944 0.0
C263 C 0.69564 0.8848 0.14228 0.0
C264 C 0.68774 0.8416 0.11004 0.0
C265 C 0.68652 0.82928 0.14447 0.0
C266 C 0.68739 0.80564 0.14587 0.0
C267 C 0.68792 0.79305 0.11276 0.0
C268 C 0.68755 0.80352 0.07828 0.0
C269 C 0.68786 0.82792 0.07675 0.0
H270 H 0.26255 0.93619 0.11738 0.0
H271 H 0.20788 0.86244 0.05801 0.0
H272 H 0.1917 0.87623 0.17188 0.0
H273 H 0.17215 0.83258 0.17589 0.0
H274 H 0.10503 0.76635 0.12007 0.0
H275 H 0.16352 0.83333 0.05596 0.0
C276 C 0.24377 0.91674 0.11646 0.0
C277 C 0.22814 0.90739 0.1484 0.0
C278 C 0.23625 0.90084 0.08379 0.0
C279 C 0.21268 0.87493 0.08304 0.0
C280 C 0.19615 0.86517 0.11503 0.0
C281 C 0.20401 0.88225 0.14721 0.0
C282 C 0.17126 0.83724 0.1158 0.0
C283 C 0.16136 0.82375 0.15013 0.0
C284 C 0.13712 0.7987 0.15183 0.0
C285 C 0.12335 0.78618 0.11894 0.0
C286 C 0.13305 0.79832 0.0845 0.0
C287 C 0.15683 0.82391 0.0828 0.0
H288 H 0.34504 0.09605 0.88039 0.0
H289 H 0.35423 0.16286 0.94632 0.0
H290 H 0.33131 0.15316 0.82946 0.0
H291 H 0.34941 0.19622 0.83035 0.0
H292 H 0.34205 0.25522 0.8927 0.0
H293 H 0.33877 0.18981 0.95059 0.0
C294 C 0.34394 0.11413 0.8828 0.0
C295 C 0.33868 0.12399 0.85118 0.0
C296 C 0.34909 0.12782 0.91705 0.0
C297 C 0.34879 0.15191 0.91991 0.0
C298 C 0.34252 0.16196 0.88836 0.0
C299 C 0.33669 0.14694 0.85427 0.0
C300 C 0.34292 0.18827 0.8901 0.0
C301 C 0.34592 0.20273 0.85705 0.0
C302 C 0.34468 0.22622 0.8579 0.0
C303 C 0.34204 0.23648 0.89192 0.0
C304 C 0.3409 0.22392 0.92517 0.0
C305 C 0.34066 0.19956 0.92443 0.0
H306 H 0.77031 0.09479 0.89055 0.0
H307 H 0.83032 0.16659 0.94819 0.0
H308 H 0.83876 0.15339 0.83052 0.0
H309 H 0.86264 0.19679 0.82832 0.0
H310 H 0.93304 0.25996 0.8822 0.0
H311 H 0.87438 0.19385 0.94711 0.0
C312 C 0.78942 0.11391 0.89022 0.0
C313 C 0.80297 0.12333 0.85667 0.0
C314 C 0.79933 0.12927 0.9231 0.0
C315 C 0.82373 0.15442 0.92276 0.0
C316 C 0.83875 0.16386 0.88935 0.0
C317 C 0.8281 0.14744 0.85661 0.0
C318 C 0.86481 0.19092 0.88786 0.0
C319 C 0.87429 0.20469 0.85359 0.0
C320 C 0.89919 0.22903 0.8513 0.0
C321 C 0.91414 0.24067 0.88363 0.0
C322 C 0.90488 0.22843 0.91804 0.0
C323 C 0.8806 0.20335 0.92026 0.0
H324 H 0.77055 0.6788 0.88363 0.0
H325 H 0.83538 0.68472 0.94435 0.0
H326 H 0.83116 0.67525 0.82361 0.0
H327 H 0.87422 0.69785 0.82656 0.0
H328 H 0.93139 0.6857 0.87879 0.0
H329 H 0.86154 0.66814 0.9396 0.0
C330 C 0.78921 0.67943 0.88372 0.0
C331 C 0.80031 0.67802 0.85008 0.0
C332 C 0.80139 0.68095 0.91751 0.0
C333 C 0.82582 0.68237 0.9178 0.0
C334 C 0.83758 0.6809 0.88389 0.0
C335 C 0.82384 0.67778 0.85013 0.0
C336 C 0.86396 0.68279 0.8833 0.0
C337 C 0.88 0.69148 0.85086 0.0
C338 C 0.90395 0.69211 0.84914 0.0
C339 C 0.91283 0.68526 0.88028 0.0
C340 C 0.89775 0.67698 0.91293 0.0
C341 C 0.8733 0.67557 0.91449 0.0
H342 H 0.92797 0.68416 0.45094 0.0
H343 H 0.87033 0.68886 0.38605 0.0
H344 H 0.85368 0.66202 0.50061 0.0
H345 H 0.83045 0.67986 0.50314 0.0
H346 H 0.76417 0.67127 0.4444 0.0
H347 H 0.82797 0.67483 0.38219 0.0
C348 C 0.90838 0.68133 0.44877 0.0
C349 C 0.892 0.67373 0.48001 0.0
C350 C 0.90023 0.68595 0.41483 0.0
C351 C 0.87549 0.68387 0.41218 0.0
C352 C 0.85832 0.67623 0.4435 0.0
C353 C 0.86662 0.66989 0.4767 0.0
C354 C 0.83241 0.67564 0.44277 0.0
C355 C 0.82052 0.67671 0.47674 0.0
C356 C 0.7959 0.67474 0.47752 0.0
C357 C 0.78327 0.67283 0.44403 0.0
C358 C 0.79527 0.67393 0.40991 0.0
C359 C 0.81955 0.67481 0.40904 0.0
H360 H 0.35191 0.26261 0.45707 0.0
H361 H 0.35784 0.20382 0.39072 0.0
H362 H 0.3541 0.19924 0.51137 0.0
H363 H 0.37629 0.1799 0.50576 0.0
H364 H 0.35633 0.10476 0.45252 0.0
H365 H 0.34537 0.16084 0.39266 0.0
C366 C 0.35314 0.2446 0.45546 0.0
C367 C 0.35447 0.23281 0.48812 0.0
C368 C 0.35338 0.23359 0.42056 0.0
C369 C 0.35651 0.21118 0.41809 0.0
C370 C 0.35758 0.19852 0.4509 0.0
C371 C 0.35553 0.20928 0.48568 0.0
C372 C 0.35975 0.17374 0.44973 0.0
C373 C 0.36845 0.16645 0.48163 0.0
C374 C 0.36691 0.14146 0.48327 0.0
C375 C 0.35842 0.12448 0.45164 0.0
C376 C 0.35194 0.13213 0.41877 0.0
C377 C 0.35206 0.15635 0.41784 0.0
H378 H 0.92992 0.25853 0.45643 0.0
H379 H 0.87372 0.18817 0.39233 0.0
H380 H 0.8593 0.19682 0.50917 0.0
H381 H 0.83917 0.15334 0.50956 0.0
H382 H 0.77178 0.08906 0.45228 0.0
H383 H 0.82932 0.15854 0.39074 0.0
C384 C 0.91075 0.23954 0.45452 0.0
C385 C 0.89553 0.22881 0.48658 0.0
C386 C 0.90256 0.22543 0.42037 0.0
C387 C 0.87899 0.19947 0.4185 0.0
C388 C 0.86286 0.18827 0.45061 0.0
C389 C 0.87126 0.20387 0.4842 0.0
C390 C 0.83789 0.1603 0.45013 0.0
C391 C 0.82827 0.14561 0.48366 0.0
C392 C 0.80431 0.12037 0.48438 0.0
C393 C 0.79026 0.10878 0.45151 0.0
C394 C 0.79933 0.1223 0.41779 0.0
C395 C 0.82306 0.14807 0.41694 0.0
H396 H 0.02858 0.44025 0.20886 0.0
H397 H 0.03382 0.50532 0.27488 0.0
H398 H 1.01247 0.49535 0.15742 0.0
H399 H 0.02898 0.53762 0.15721 0.0
H400 H 0.01975 0.59611 0.21713 0.0
H401 H 0.01949 0.53318 0.27764 0.0
C402 C 0.02677 0.4579 0.2111 0.0
C403 C 0.02077 0.46708 0.17947 0.0
C404 C 0.0308 0.4712 0.24555 0.0
C405 C 0.02961 0.49484 0.24819 0.0
C406 C 0.02378 0.50487 0.21619 0.0
C407 C 0.01853 0.48986 0.18226 0.0
C408 C 0.02335 0.53075 0.21724 0.0
C409 C 0.0255 0.54437 0.18368 0.0
C410 C 0.02316 0.56717 0.18352 0.0
C411 C 0.02035 0.57772 0.21717 0.0
C412 C 0.01972 0.56595 0.25099 0.0
C413 C 0.02083 0.5423 0.25114 0.0
H414 H 0.43386 0.43537 0.21877 0.0
H415 H 0.4967 0.50207 0.28065 0.0
H416 H 0.49421 0.50306 0.15963 0.0
H417 H 0.53504 0.53089 0.15997 0.0
H418 H 0.59396 0.60392 0.2145 0.0
H419 H 0.52925 0.54349 0.27885 0.0
C420 C 0.45216 0.45523 0.2191 0.0
C421 C 0.46346 0.46785 0.18559 0.0
C422 C 0.46367 0.46801 0.25316 0.0
C423 C 0.488 0.49326 0.25378 0.0
C424 C 0.5006 0.50633 0.22 0.0
C425 C 0.48711 0.49345 0.18616 0.0
C426 C 0.52722 0.53315 0.21936 0.0
C427 C 0.54148 0.54292 0.18541 0.0
C428 C 0.56492 0.56863 0.18337 0.0
C429 C 0.57565 0.5841 0.21586 0.0
C430 C 0.5631 0.57468 0.25015 0.0
C431 C 0.5388 0.54954 0.25202 0.0
H432 H 0.43764 0.01729 0.21903 0.0
H433 H 0.49953 0.02219 0.2862 0.0
H434 H 0.50003 0.01307 0.16579 0.0
H435 H 0.54218 0.03328 0.17109 0.0
H436 H 0.59498 0.01737 0.22852 0.0
H437 H 0.5256 1.00522 0.28518 0.0
C438 C 0.45622 0.01786 0.22097 0.0
C439 C 0.46838 0.01609 0.18858 0.0
C440 C 0.46699 0.01928 0.25598 0.0
C441 C 0.49117 0.0202 0.25881 0.0
C442 C 0.50413 0.01855 0.22626 0.0
C443 C 0.49179 0.01571 0.19132 0.0
C444 C 0.53003 0.01934 0.22806 0.0
C445 C 0.54675 0.02665 0.19624 0.0
C446 C 0.5693 0.02463 0.19581 0.0
C447 C 0.57702 0.01809 0.22843 0.0
C448 C 0.56157 1.01151 0.26062 0.0
C449 C 0.5379 1.0117 0.26049 0.0
H450 H 0.60115 0.0281 0.78834 0.0
H451 H 0.53183 1.00846 0.72556 0.0
H452 H 0.53399 0.02035 0.84575 0.0
H453 H 0.49062 0.99301 0.84089 0.0
H454 H 0.43092 0.99946 0.78466 0.0
H455 H 0.50418 0.02396 0.72858 0.0
C456 C 0.58111 0.02429 0.78757 0.0
C457 C 0.56867 0.02419 0.82075 0.0
C458 C 0.56809 0.01918 0.7534 0.0
C459 C 0.54183 0.01324 0.75226 0.0
C460 C 0.52883 0.01357 0.78548 0.0
C461 C 0.54274 0.01916 0.81974 0.0
C462 C 0.50118 1.0086 0.78453 0.0
C463 C 0.48436 0.99842 0.81609 0.0
C464 C 0.45917 0.99526 0.81624 0.0
C465 C 0.45015 1.00129 0.78435 0.0
C466 C 0.46617 1.01121 0.75276 0.0
C467 C 0.49168 0.01509 0.75279 0.0
H468 H 1.00644 0.58852 0.79319 0.0
H469 H 1.00514 0.52579 0.72652 0.0
H470 H 0.02714 0.53661 0.84371 0.0
H471 H 1.01399 0.49533 0.84452 0.0
H472 H 0.02188 0.43658 0.78326 0.0
H473 H 0.01799 0.49732 0.7234 0.0
C474 C 1.00935 0.57158 0.79079 0.0
C475 C 1.01588 0.5628 0.82237 0.0
C476 C 1.00629 0.55878 0.75617 0.0
C477 C 1.00883 0.53597 0.75335 0.0
C478 C 1.01541 0.52646 0.78522 0.0
C479 C 0.02012 0.54131 0.81913 0.0
C480 C 1.01701 0.50122 0.78408 0.0
C481 C 1.01679 0.48848 0.81767 0.0
C482 C 0.01991 0.46616 0.81741 0.0
C483 C 0.02118 0.45491 0.78346 0.0
C484 C 0.01979 0.46571 0.74979 0.0
C485 C 0.01826 0.48909 0.74996 0.0
H486 H 0.60205 0.58906 0.79043 0.0
H487 H 0.54264 0.52142 0.72555 0.0
H488 H 0.53128 0.52864 0.84412 0.0
H489 H 0.5065 0.48569 0.84343 0.0
H490 H 0.43685 0.42598 0.78514 0.0
H491 H 0.4996 0.49155 0.72386 0.0
C492 C 0.58263 0.57033 0.78883 0.0
C493 C 0.568 0.55943 0.82127 0.0
C494 C 0.5731 0.55715 0.75435 0.0
C495 C 0.54885 0.53182 0.75232 0.0
C496 C 0.53313 0.52042 0.78479 0.0
C497 C 0.54291 0.53531 0.81889 0.0
C498 C 0.50681 0.49341 0.78389 0.0
C499 C 0.49574 0.47895 0.81735 0.0
C500 C 0.47023 0.45539 0.8179 0.0
C501 C 0.45622 0.44481 0.78474 0.0
C502 C 0.46706 0.45735 0.7509 0.0
C503 C 0.49214 0.48179 0.75031 0.0
H504 H 0.68675 0.76829 0.54946 0.0
H505 H 0.69671 0.83719 0.61059 0.0
H506 H 0.67278 0.82385 0.49402 0.0
H507 H 0.69157 0.86715 0.49198 0.0
H508 H 0.68826 0.92979 0.55116 0.0
H509 H 0.68096 0.86373 0.6123 0.0
C510 C 0.68606 0.78663 0.55034 0.0
C511 C 0.68003 0.79515 0.51804 0.0
C512 C 0.69131 0.80135 0.58374 0.0
C513 C 0.69122 0.82553 0.58476 0.0
C514 C 0.6849 0.83464 0.55228 0.0
C515 C 0.6785 0.81844 0.51928 0.0
C516 C 0.68568 0.86108 0.55216 0.0
C517 C 0.68879 0.87474 0.51828 0.0
C518 C 0.68928 0.89917 0.51795 0.0
C519 C 0.68746 0.91065 0.5514 0.0
C520 C 0.68486 0.89806 0.5852 0.0
C521 C 0.68371 0.87329 0.58573 0.0
H522 H 0.10036 0.76574 0.54824 0.0
H523 H 0.15933 0.83108 0.61728 0.0
H524 H 0.17285 0.8262 0.49902 0.0
H525 H 0.19395 0.86879 0.49996 0.0
H526 H 0.26235 0.9315 0.55686 0.0
H527 H 0.20259 0.86383 0.61913 0.0
C528 C 0.11998 0.78405 0.55126 0.0
C529 C 0.13531 0.79577 0.51965 0.0
C530 C 0.12911 0.79587 0.58667 0.0
C531 C 0.15335 0.82131 0.59008 0.0
C532 C 0.16941 0.83368 0.55815 0.0
C533 C 0.16055 0.81929 0.52364 0.0
C534 C 0.19479 0.86152 0.55932 0.0
C535 C 0.20487 0.87619 0.52583 0.0
C536 C 0.22956 0.90063 0.52466 0.0
C537 C 0.24361 0.91203 0.55761 0.0
C538 C 0.23373 0.89921 0.59164 0.0
C539 C 0.20945 0.87381 0.59269 0.0
H540 H 0.1027 0.34367 0.54638 0.0
H541 H 0.1651 0.3475 0.61017 0.0
H542 H 0.16527 0.34246 0.48889 0.0
H543 H 0.20614 0.35709 0.4921 0.0
H544 H 0.26199 0.34672 0.55144 0.0
H545 H 0.19364 0.33552 0.60916 0.0
C546 C 0.12147 0.34453 0.54724 0.0
C547 C 0.13387 0.34463 0.51409 0.0
C548 C 0.13239 0.34477 0.58153 0.0
C549 C 0.15678 0.34616 0.583 0.0
C550 C 0.16975 0.34565 0.54969 0.0
C551 C 0.15727 0.34411 0.51525 0.0
C552 C 0.19576 0.34641 0.55059 0.0
C553 C 0.21156 0.35213 0.51796 0.0
C554 C 0.23465 0.35098 0.5178 0.0
C555 C 0.24356 0.34653 0.55106 0.0
C556 C 0.22894 0.34136 0.58381 0.0
C557 C 0.20495 0.34083 0.58362 0.0
C558 C 0.03933 0.45732 0.08201 0.0
C559 C 0.0247 0.42882 0.0772 0.0
C560 C 0.03666 0.46968 0.11429 0.0
C561 C 0.0193 0.454 0.14295 0.0
H562 H 0.05365 0.47025 0.06127 0.0
H563 H 0.04926 0.49158 0.11764 0.0
S564 S 0.97388 0.37905 0.14242 0.0
N565 N 0.99023 0.38546 0.10265 0.0
N566 N 0.98536 0.40891 0.16326 0.0
C567 C 1.00344 0.42567 0.13772 0.0
C568 C 1.00609 0.41302 0.10485 0.0
C569 C 0.61896 0.60767 0.11174 0.0
C570 C 0.60511 0.61086 0.08262 0.0
C571 C 0.60563 0.59284 0.14343 0.0
C572 C 0.5779 0.58046 0.14722 0.0
H573 H 0.64039 0.61721 0.11055 0.0
H574 H 0.61721 0.59157 0.16558 0.0
S575 S 0.53199 0.58117 0.07837 0.0
N576 N 0.5617 0.59905 0.059 0.0
N577 N 0.53684 0.57147 0.11884 0.0
C578 C 0.56363 0.58257 0.11784 0.0
C579 C 0.57718 0.59773 0.08553 0.0
C580 C 0.43501 0.03076 0.11098 0.0
C581 C 0.4274 1.00907 0.08543 0.0
C582 C 0.44894 0.03325 0.14366 0.0
C583 C 0.45596 0.01427 0.15205 0.0
H584 H 0.42978 0.04573 0.10613 0.0
H585 H 0.45399 0.05002 0.16282 0.0
S586 S 0.44159 0.95419 0.09431 0.0
N587 N 0.42876 0.9686 0.07049 0.0
N588 N 0.45471 0.97334 0.13221 0.0
C589 C 0.44913 0.99289 0.12648 0.0
C590 C 0.43488 0.99026 0.09314 0.0
C591 C 0.43787 1.00647 0.91072 0.0
C592 C 0.41043 0.98652 0.9113 0.0
C593 C 0.45407 1.00773 0.88112 0.0
C594 C 0.44335 0.98929 0.85081 0.0
H595 H 0.44682 0.02172 0.93286 0.0
H596 H 0.47477 0.02422 0.88091 0.0
S597 S 0.3734 0.93191 0.84 0.0
N598 N 0.37374 0.94667 0.88008 0.0
N599 N 0.40422 0.94945 0.82408 0.0
C600 C 0.4163 0.96847 0.85181 0.0
C601 C 0.39983 0.96695 0.88218 0.0
C602 C 0.99771 0.42786 0.90815 0.0
C603 C 1.01721 0.42139 0.91429 0.0
C604 C 0.99931 0.44348 0.87776 0.0
C605 C 0.02044 0.45316 0.8523 0.0
H606 H 0.9807 0.42038 0.92652 0.0
H607 H 0.98338 0.44712 0.87339 0.0
S608 S 0.07798 0.44434 0.85725 0.0
N609 N 0.05935 0.42766 0.89333 0.0
N610 N 0.06226 0.45699 0.83642 0.0
C611 C 0.0406 0.44779 0.8588 0.0
C612 C 0.03902 0.43193 0.88971 0.0
C613 C 0.60796 0.61467 0.89408 0.0
C614 C 0.61137 0.60043 0.92253 0.0
C615 C 0.59273 0.60109 0.86227 0.0
C616 C 0.58017 0.57273 0.85769 0.0
H617 H 0.61772 0.63659 0.89582 0.0
H618 H 0.59135 0.61298 0.84057 0.0
S619 S 0.58116 0.52561 0.92488 0.0
N620 N 0.59941 0.55597 0.9449 0.0
N621 N 0.57115 0.53066 0.88482 0.0
C622 C 0.58242 0.55807 0.88654 0.0
C623 C 0.59795 0.57187 0.91897 0.0
C624 C 0.02785 0.6157 0.89639 0.0
C625 C 1.01122 0.59982 0.92566 0.0
C626 C 0.0303 0.60359 0.8637 0.0
C627 C 1.01639 0.57516 0.85916 0.0
H628 H 0.03844 0.6377 0.89813 0.0
H629 H 0.04264 0.61657 0.84138 0.0
S630 S 0.97189 0.52431 0.92829 0.0
N631 N 0.98199 0.554 0.94881 0.0
N632 N 0.98642 0.53136 0.88708 0.0
C633 C 1.00068 0.55901 0.88877 0.0
C634 C 0.99811 0.57131 0.92207 0.0
C635 C 0.41762 0.42021 0.89201 0.0
C636 C 0.42736 0.40714 0.91314 0.0
C637 C 0.43225 0.43677 0.86227 0.0
C638 C 0.45734 0.44121 0.85279 0.0
H639 H 0.3982 0.41709 0.89779 0.0
H640 H 0.42361 0.4457 0.84594 0.0
S641 S 0.49279 0.41344 0.90046 0.0
N642 N 0.46447 0.401 0.92347 0.0
N643 N 0.49189 0.4323 0.8674 0.0
C644 C 0.46784 0.4292 0.87436 0.0
C645 C 0.45284 0.41207 0.90453 0.0
C646 C 0.59018 1.0097 0.91172 0.0
C647 C 0.6158 0.033 0.9173 0.0
C648 C 0.57411 1.00769 0.88174 0.0
C649 C 0.58324 0.0288 0.85614 0.0
H650 H 0.58262 0.9927 0.93032 0.0
H651 H 0.55495 0.98904 0.87757 0.0
S652 S 0.64814 0.09438 0.85862 0.0
N653 N 0.64899 0.07803 0.89512 0.0
N654 N 0.61885 0.07396 0.83876 0.0
C655 C 0.60839 0.05247 0.86195 0.0
C656 C 0.62465 0.05465 0.89254 0.0
C657 C 0.60845 0.05256 0.10592 0.0
C658 C 0.61361 0.0323 0.09484 0.0
C659 C 0.59379 0.04994 0.13831 0.0
C660 C 0.58382 0.02699 0.16074 0.0
H661 H 0.61593 0.0707 0.08963 0.0
H662 H 0.59062 0.06615 0.14617 0.0
S663 S 0.5896 0.96707 0.14267 0.0
N664 N 0.60617 0.98778 0.10827 0.0
N665 N 0.57845 0.98283 0.1685 0.0
C666 C 0.58825 1.00632 0.14955 0.0
C667 C 0.60321 1.00899 0.11683 0.0
C668 C 1.00478 0.60122 0.11127 0.0
C669 C 0.02629 0.61184 0.0862 0.0
C670 C 1.00355 0.58599 0.14181 0.0
C671 C 0.02371 0.58066 0.14854 0.0
H672 H 0.98885 0.60495 0.10767 0.0
H673 H 0.98683 0.57865 0.16072 0.0
S674 S 0.08401 0.60306 0.09119 0.0
N675 N 0.068 0.61519 0.06983 0.0
N676 N 0.06561 0.58674 0.12761 0.0
C677 C 0.04501 0.59051 0.12337 0.0
C678 C 0.04634 0.6061 0.09218 0.0
C679 C 0.45411 0.43518 0.08967 0.0
C680 C 0.42641 0.42175 0.08391 0.0
C681 C 0.46604 0.45074 0.12211 0.0
C682 C 0.45075 0.4536 0.1499 0.0
H683 H 0.46667 0.43326 0.0693 0.0
H684 H 0.4873 0.45998 0.12593 0.0
S685 S 0.37796 0.42517 0.14663 0.0
N686 N 0.38428 0.41391 0.10772 0.0
N687 N 0.40686 0.44364 0.16829 0.0
C688 C 0.4232 0.44112 0.14393 0.0
C689 C 0.41099 0.42508 0.11106 0.0
C690 C 0.69574 0.76141 0.43964 0.0
C691 C 0.67211 0.74805 0.41847 0.0
C692 C 0.6982 0.77709 0.47123 0.0
C693 C 0.67725 0.78028 0.48273 0.0
H694 H 0.71242 0.75942 0.43218 0.0
H695 H 0.7166 0.78662 0.48708 0.0
S696 S 0.61163 0.75072 0.43659 0.0
N697 N 0.62752 0.73981 0.41081 0.0
N698 N 0.6324 0.76954 0.47048 0.0
C699 C 0.65374 0.76767 0.46156 0.0
C700 C 0.65108 0.75142 0.42941 0.0
C701 C 0.28072 0.93569 0.4484 0.0
C702 C 0.26757 0.94256 0.42264 0.0
C703 C 0.26804 0.92177 0.48087 0.0
C704 C 0.24168 0.9141 0.48895 0.0
H705 H 0.30113 0.94134 0.44376 0.0
H706 H 0.27904 0.91706 0.49997 0.0
S707 S 0.19801 0.92652 0.43062 0.0
N708 N 0.22622 0.93992 0.40717 0.0
N709 N 0.20263 0.91402 0.46865 0.0
C710 C 0.22804 0.92033 0.46328 0.0
C711 C 0.24094 0.93453 0.43007 0.0
C712 C 0.09762 0.32077 0.42138 0.0
C713 C 0.09022 0.33983 0.41516 0.0
C714 C 0.11296 0.32312 0.45248 0.0
C715 C 0.1214 0.34459 0.47849 0.0
H716 H 0.09108 0.30351 0.40254 0.0
H717 H 0.11736 0.30749 0.45696 0.0
S718 S 0.10984 0.40133 0.47369 0.0
N719 N 0.09432 0.38203 0.4367 0.0
N720 N 0.1231 0.38631 0.49495 0.0
C721 C 0.11512 0.36436 0.47193 0.0
C722 C 0.09955 0.36203 0.44034 0.0
C723 C 0.0834 0.32822 0.22615 0.0
C724 C 0.09846 0.34684 0.25503 0.0
C725 C 0.09576 0.32506 0.19465 0.0
C726 C 0.12366 0.34027 0.19089 0.0
H727 H 0.06183 0.31666 0.22715 0.0
H728 H 0.08335 0.31133 0.17241 0.0
S729 S 0.17239 0.38984 0.25993 0.0
N730 N 0.14304 0.3791 0.27903 0.0
N731 N 0.16609 0.37337 0.21954 0.0
C732 C 0.13903 0.35782 0.22038 0.0
C733 C 0.12648 0.36109 0.25248 0.0
C734 C 0.70446 0.77115 0.21933 0.0
C735 C 0.68366 0.76253 0.24529 0.0
C736 C 0.70607 0.78604 0.1881 0.0
C737 C 0.68706 0.79307 0.18165 0.0
H738 H 0.71931 0.76583 0.22257 0.0
H739 H 0.72205 0.79164 0.16835 0.0
S740 S 0.62941 0.77679 0.24178 0.0
N741 N 0.64422 0.76336 0.26313 0.0
N742 N 0.64728 0.79107 0.20413 0.0
C743 C 0.6667 0.78545 0.2079 0.0
C744 C 0.66497 0.77023 0.23974 0.0
C745 C 0.26236 0.96683 0.21689 0.0
C746 C 0.26833 0.9556 0.24672 0.0
C747 C 0.2481 0.9508 0.18575 0.0
C748 C 0.23886 0.92291 0.18381 0.0
H749 H 0.26974 0.98837 0.21682 0.0
H750 H 0.24495 0.96041 0.16253 0.0
S751 S 0.24696 0.88318 0.25613 0.0
N752 N 0.26225 0.9145 0.27354 0.0
N753 N 0.23529 0.88441 0.21511 0.0
C754 C 0.24346 0.91116 0.21428 0.0
C755 C 0.25827 0.92751 0.24572 0.0
C756 C 0.67655 0.94039 0.22193 0.0
C757 C 0.69678 0.94814 0.24852 0.0
C758 C 0.67628 0.92771 0.18827 0.0
C759 C 0.69631 0.92238 0.17954 0.0
H760 H 0.66045 0.94373 0.22727 0.0
H761 H 0.65994 0.92164 0.16909 0.0
S762 S 0.75459 0.93979 0.23842 0.0
N763 N 0.7379 0.9502 0.26331 0.0
N764 N 0.73749 0.92664 0.1994 0.0
C765 C 0.71687 0.93025 0.20551 0.0
C766 C 0.71711 0.9431 0.24009 0.0
C767 C 0.08545 0.76088 0.22653 0.0
C768 C 0.09862 0.75362 0.25171 0.0
C769 C 0.09846 0.77631 0.19519 0.0
C770 C 0.12521 0.78522 0.18765 0.0
H771 H 0.06474 0.7543 0.23066 0.0
H772 H 0.08732 0.78097 0.17628 0.0
S773 S 0.16923 0.77279 0.24509 0.0
N774 N 0.14051 0.7575 0.26745 0.0
N775 N 0.16474 0.78635 0.2081 0.0
C776 C 0.13895 0.77886 0.21295 0.0
C777 C 0.12569 0.76306 0.24502 0.0
C778 C 0.26256 0.33658 0.23732 0.0
C779 C 0.28779 0.36056 0.24246 0.0
C780 C 0.2456 0.3339 0.20818 0.0
C781 C 0.25335 0.35502 0.18305 0.0
H782 H 0.25593 0.31959 0.25569 0.0
H783 H 0.22674 0.31485 0.20445 0.0
S784 S 0.31659 0.42211 0.18434 0.0
N785 N 0.31908 0.40617 0.22013 0.0
N786 N 0.28725 0.40072 0.16522 0.0
C787 C 0.27812 0.37922 0.18816 0.0
C788 C 0.29532 0.38212 0.21793 0.0
C789 C 0.27267 0.37754 0.42671 0.0
C790 C 0.27987 0.35847 0.41784 0.0
C791 C 0.25761 0.37488 0.45868 0.0
C792 C 0.24913 0.35298 0.48276 0.0
H793 H 0.279 0.39486 0.40911 0.0
H794 H 0.25303 0.39031 0.46498 0.0
S795 S 0.26008 0.29592 0.4701 0.0
N796 N 0.27574 0.31597 0.43472 0.0
N797 N 0.24712 0.31076 0.49404 0.0
C798 C 0.25546 0.33334 0.47356 0.0
C799 C 0.27092 0.33615 0.44135 0.0
C800 C 0.71338 0.95619 0.44959 0.0
C801 C 0.69202 0.94602 0.42421 0.0
C802 C 0.71304 0.94027 0.47864 0.0
C803 C 0.69157 0.91342 0.48308 0.0
H804 H 0.73015 0.97694 0.44786 0.0
H805 H 0.7293 0.94932 0.49856 0.0
S806 S 0.63168 0.87624 0.42293 0.0
N807 N 0.64938 0.90666 0.40443 0.0
N808 N 0.64904 0.8768 0.45908 0.0
C809 C 0.67065 0.90252 0.45711 0.0
C810 C 0.67078 0.91882 0.4277 0.0
C811 C 0.09558 0.74475 0.44228 0.0
C812 C 0.09397 0.76097 0.41511 0.0
C813 C 0.1101 0.75627 0.47525 0.0
C814 C 0.12369 0.78447 0.48228 0.0
H815 H 0.08494 0.72284 0.43864 0.0
H816 H 0.11014 0.74292 0.49586 0.0
S817 S 0.12746 0.83625 0.41927 0.0
N818 N 0.10872 0.80705 0.3966 0.0
N819 N 0.13561 0.82854 0.45885 0.0
C820 C 0.12324 0.80108 0.45474 0.0
C821 C 0.10845 0.78938 0.42112 0.0
C822 C 0.31509 0.08541 0.7585 0.0
C823 C 0.33694 0.08335 0.74769 0.0
C824 C 0.31586 0.09939 0.79147 0.0
C825 C 0.33851 0.11173 0.81453 0.0
H826 H 0.29706 0.07567 0.74184 0.0
H827 H 0.29843 0.09988 0.79951 0.0
S828 S 0.40201 0.11511 0.79706 0.0
N829 N 0.38267 0.09692 0.76168 0.0
N830 N 0.38393 0.12308 0.82314 0.0
C831 C 0.36079 0.11079 0.80333 0.0
C832 C 0.36005 0.09661 0.77006 0.0
C833 C 0.94914 0.26647 0.77462 0.0
C834 C 0.93625 0.27558 0.75198 0.0
C835 C 0.9365 0.25049 0.80568 0.0
C836 C 0.9104 0.24288 0.81548 0.0
H837 H 0.96937 0.27198 0.76868 0.0
H838 H 0.94744 0.24442 0.82267 0.0
S839 S 0.86736 0.26051 0.76527 0.0
N840 N 0.89533 0.27495 0.74112 0.0
N841 N 0.87179 0.24507 0.79996 0.0
C842 C 0.89691 0.25112 0.79271 0.0
C843 C 0.90979 0.26747 0.76092 0.0
C844 C 0.75572 0.64966 0.76514 0.0
C845 C 0.75266 0.67129 0.75541 0.0
C846 C 0.77252 0.65242 0.79451 0.0
C847 C 0.78667 0.67683 0.81524 0.0
H848 H 0.74477 0.63028 0.75034 0.0
H849 H 0.77364 0.63506 0.802 0.0
S850 S 0.78676 0.73988 0.80065 0.0
N851 N 0.76628 0.71836 0.76837 0.0
N852 N 0.7975 0.72321 0.82377 0.0
C853 C 0.78444 0.6988 0.80532 0.0
C854 C 0.76755 0.69613 0.77532 0.0
C855 C 0.76752 0.6558 0.57525 0.0
C856 C 0.75628 0.67171 0.58125 0.0
C857 C 0.78066 0.6572 0.54187 0.0
C858 C 0.78321 0.67471 0.51341 0.0
H859 H 0.76591 0.64191 0.5963 0.0
H860 H 0.78848 0.64413 0.53805 0.0
S861 S 0.75984 0.72277 0.51685 0.0
N862 N 0.75001 0.70675 0.55678 0.0
N863 N 0.77524 0.70981 0.49453 0.0
C864 C 0.77272 0.69128 0.51948 0.0
C865 C 0.75911 0.68966 0.55325 0.0
C866 C 0.36091 0.12201 0.58501 0.0
C867 C 0.37188 0.10565 0.5854 0.0
C868 C 0.36047 0.13455 0.55228 0.0
C869 C 0.37148 0.13164 0.51884 0.0
H870 H 0.35157 0.12422 0.6098 0.0
H871 H 0.3504 0.14561 0.55287 0.0
S872 S 0.40685 0.0948 0.50731 0.0
N873 N 0.39631 0.08933 0.55088 0.0
N874 N 0.39692 0.11409 0.48983 0.0
C875 C 0.38413 0.11679 0.51969 0.0
C876 C 0.38395 0.10348 0.5528 0.0
C877 C 0.92454 0.2397 0.58331 0.0
C878 C 0.93802 0.26812 0.58859 0.0
C879 C 0.90935 0.22695 0.55122 0.0
C880 C 0.90703 0.24209 0.52317 0.0
H881 H 0.92643 0.2272 0.60347 0.0
H882 H 0.90052 0.20522 0.54748 0.0
S883 S 0.93513 0.31641 0.52548 0.0
N884 N 0.94575 0.31068 0.5645 0.0
N885 N 0.91704 0.28649 0.50424 0.0
C886 C 0.91904 0.27025 0.52899 0.0
C887 C 0.93455 0.28331 0.56168 0.0
C888 C 0.33727 0.26696 0.5649 0.0
C889 C 0.3559 0.27218 0.59302 0.0
C890 C 0.33655 0.25367 0.53152 0.0
C891 C 0.35457 0.24525 0.52476 0.0
H892 H 0.32294 0.27301 0.56872 0.0
H893 H 0.32174 0.24997 0.51079 0.0
S894 S 0.40792 0.25483 0.5887 0.0
N895 N 0.39302 0.26808 0.61173 0.0
N896 N 0.39203 0.24363 0.54849 0.0
C897 C 0.3733 0.25028 0.5526 0.0
C898 C 0.37391 0.26365 0.5868 0.0
C899 C 0.77375 0.06518 0.55603 0.0
C900 C 0.76023 0.07365 0.57965 0.0
C901 C 0.78928 0.08114 0.52627 0.0
C902 C 0.79231 0.10637 0.51958 0.0
H903 H 0.77166 0.04565 0.55972 0.0
H904 H 0.79836 0.07336 0.50768 0.0
S905 S 0.76246 0.13871 0.57372 0.0
N906 N 0.75186 0.10966 0.59474 0.0
N907 N 0.78136 0.1396 0.53894 0.0
C908 C 0.77981 0.11561 0.54357 0.0
C909 C 0.76369 0.09926 0.57359 0.0
C910 C 0.93077 0.66088 0.55186 0.0
C911 C 0.93128 0.67634 0.58302 0.0
C912 C 0.91685 0.65891 0.51929 0.0
C913 C 0.90277 0.6722 0.51659 0.0
H914 H 0.94181 0.65082 0.55216 0.0
H915 H 0.91768 0.64745 0.49564 0.0
S916 S 0.89629 0.71384 0.59086 0.0
N917 N 0.91498 0.70388 0.60966 0.0
N918 N 0.88938 0.70051 0.54831 0.0
C919 C 0.90219 0.68678 0.548 0.0
C920 C 0.91633 0.68881 0.58117 0.0
C921 C 0.96077 0.72204 0.77987 0.0
C922 C 0.95099 0.7018 0.75163 0.0
C923 C 0.94499 0.7195 0.81085 0.0
C924 C 0.91873 0.69711 0.81387 0.0
H925 H 0.98109 0.73929 0.77885 0.0
H926 H 0.95357 0.73472 0.83308 0.0
S927 S 0.88304 0.63996 0.74591 0.0
N928 N 0.91293 0.65947 0.72766 0.0
N929 N 0.88319 0.65518 0.78544 0.0
C930 C 0.90833 0.6775 0.78498 0.0
C931 C 0.9245 0.67973 0.75393 0.0
C932 C 0.32918 0.26232 0.78536 0.0
C933 C 0.35323 0.27685 0.76547 0.0
C934 C 0.32622 0.24504 0.81424 0.0
C935 C 0.34697 0.2412 0.82379 0.0
H936 H 0.31275 0.26488 0.77935 0.0
H937 H 0.30775 0.23503 0.82981 0.0
S938 S 0.41325 0.27295 0.77908 0.0
N939 N 0.39781 0.28521 0.75648 0.0
N940 N 0.39192 0.25244 0.81059 0.0
C941 C 0.37073 0.25477 0.8034 0.0
C942 C 0.37395 0.2727 0.77431 0.0
C943 C 0.7889 0.08663 0.76259 0.0
C944 C 0.76259 0.07941 0.75501 0.0
C945 C 0.80211 0.10111 0.79531 0.0
C946 C 0.78945 0.10889 0.82148 0.0
H947 H 0.79933 0.08087 0.74329 0.0
H948 H 0.82217 0.10588 0.80041 0.0
S949 S 0.7217 0.09736 0.81344 0.0
N950 N 0.72498 0.08258 0.77574 0.0
N951 N 0.74997 0.11013 0.83656 0.0
C952 C 0.76344 0.10242 0.81381 0.0
C953 C 0.74995 0.08757 0.78079 0.0
C954 C 0.10711 0.38098 0.03589 0.0
C955 C 0.09031 0.35991 0.01062 0.0
C956 C 0.12533 0.37911 0.05822 0.0
C957 C 0.12749 0.35613 0.05618 0.0
H958 H 0.10521 0.39843 0.03998 0.0
H959 H 0.13641 0.39483 0.07923 0.0
S960 S 0.0906 0.29685 -0.00815 0.0
N961 N 0.0791 0.31652 0.98231 0.0
N962 N 0.11325 0.31306 0.02486 0.0
C963 C 0.11249 0.33597 0.02907 0.0
C964 C 0.0939 0.33785 0.00612 0.0
C965 C 0.69682 0.75516 0.02015 0.0
C966 C 0.671 0.73763 0.00574 0.0
C967 C 0.70355 0.77927 0.0393 0.0
C968 C 0.68465 0.78665 0.045 0.0
H969 H 0.71145 0.74933 0.01884 0.0
H970 H 0.72281 0.79082 0.05296 0.0
S971 S 0.61583 0.75039 0.00766 0.0
N972 N 0.62767 0.73144 -0.00614 0.0
N973 N 0.64032 0.77661 0.03072 0.0
C974 C 0.65977 0.77093 0.02736 0.0
C975 C 0.6529 0.74638 0.00755 0.0
C976 C 0.30128 0.93291 0.0335 0.0
C977 C 0.29935 0.95047 0.00906 0.0
C978 C 0.27939 0.91406 0.05457 0.0
C979 C 0.25472 0.91198 0.05193 0.0
H980 H 0.32027 0.93481 0.03809 0.0
H981 H 0.28235 0.9026 0.07531 0.0
S982 S 0.23796 0.95053 0.98906 0.0
N983 N 0.26973 0.96232 0.98063 0.0
N984 N 0.22872 0.927 0.02085 0.0
C985 C 0.25181 0.92766 0.02548 0.0
C986 C 0.2741 0.94687 0.00381 0.0
C987 C 0.3398 0.07943 -0.00793 0.0
C988 C 0.36312 0.07865 0.98822 0.0
C989 C 0.3364 0.09797 0.97208 0.0
C990 C 0.35638 0.11666 0.94815 0.0
H991 H 0.32327 0.06438 0.0085 0.0
H992 H 0.31725 0.09622 0.97303 0.0
S993 S 0.42266 0.12601 0.93261 0.0
N994 N 0.40774 0.1006 0.9619 0.0
N995 N 0.4012 0.13531 0.92468 0.0
C996 C 0.38061 0.11771 0.94665 0.0
C997 C 0.38402 0.09874 0.96658 0.0
C998 C 0.94173 0.28852 0.98153 0.0
C999 C 0.96496 0.28844 0.98908 0.0
C1000 C 0.92007 0.26654 0.96295 0.0
C1001 C 0.92103 0.24387 0.95089 0.0
H1002 H 0.94092 0.30641 0.988 0.0
H1003 H 0.90358 0.26845 0.95472 0.0
S1004 S 0.97581 0.23225 0.96739 0.0
N1005 N 0.98639 0.26244 0.98672 0.0
N1006 N 0.94582 0.22142 0.95061 0.0
C1007 C 0.94311 0.24249 0.961 0.0
C1008 C 0.96509 0.26474 0.98043 0.0
C1009 C 0.76867 0.70296 0.98663 0.0
C1010 C 0.74489 0.67802 -0.00642 0.0
C1011 C 0.78923 0.70385 0.96557 0.0
C1012 C 0.78684 0.67984 0.95163 0.0
H1013 H 0.77048 0.722 -0.00544 0.0
H1014 H 0.80591 0.72344 0.9573 0.0
S1015 S 0.73111 0.6094 0.96811 0.0
N1016 N 0.72195 0.6287 0.98941 0.0
N1017 N 0.76078 0.63054 0.95025 0.0
C1018 C 0.76455 0.65481 0.96186 0.0
C1019 C 0.74348 0.65385 0.98275 0.0
C1020 C 0.92957 0.6451 0.96258 0.0
C1021 C 0.94425 0.66449 -0.00903 0.0
C1022 C 0.91206 0.64767 0.93966 0.0
C1023 C 0.90833 0.66953 0.94446 0.0
H1024 H 0.93285 0.62875 0.95635 0.0
H1025 H 0.90286 0.63359 0.91627 0.0
S1026 S 0.93832 0.72328 0.018 0.0
N1027 N 0.95105 0.7044 0.02543 0.0
N1028 N 0.91809 0.70907 0.98189 0.0
C1029 C 0.9208 0.68756 0.97471 0.0
C1030 C 0.93876 0.68505 -0.00185 0.0
C1031 C 0.3697 0.28308 -0.00912 0.0
C1032 C 0.34693 0.28323 0.002 0.0
C1033 C 0.36745 0.26112 0.97039 0.0
C1034 C 0.34237 0.23877 0.95987 0.0
H1035 H 0.38938 0.30089 -0.00426 0.0
H1036 H 0.38542 0.26294 0.95933 0.0
S1037 S 0.27672 0.22772 0.98577 0.0
N1038 N 0.29851 0.25764 0.00477 0.0
N1039 N 0.29444 0.21675 0.96505 0.0
C1040 C 0.31951 0.23752 0.97366 0.0
C1041 C 0.32175 0.25971 -0.00493 0.0
C1042 C 0.76077 0.08103 -0.00053 0.0
C1043 C 0.73664 0.08037 -0.00193 0.0
C1044 C 0.78297 0.09977 0.97849 0.0
C1045 C 0.7819 0.11874 0.95611 0.0
H1046 H 0.76187 0.0656 0.01432 0.0
H1047 H 0.80017 0.09781 0.97718 0.0
S1048 S 0.72524 0.1285 0.94762 0.0
N1049 N 0.71441 0.1028 0.97618 0.0
N1050 N 0.75613 0.13786 0.93703 0.0
C1051 C 0.75891 0.12004 0.95744 0.0
C1052 C 0.73626 0.10087 0.97835 0.0
C1053 C 0.69448 0.95193 0.00439 0.0
C1054 C 0.67074 0.95203 0.00673 0.0
C1055 C 0.69743 0.9329 0.02385 0.0
C1056 C 0.67661 0.91304 0.04568 0.0
H1057 H 0.71166 0.96797 0.99004 0.0
H1058 H 0.71686 0.93529 0.02455 0.0
S1059 S 0.60903 0.90139 0.05571 0.0
N1060 N 0.62486 0.92804 0.02858 0.0
N1061 N 0.6306 0.89244 0.06489 0.0
C1062 C 0.652 0.91119 0.04511 0.0
C1063 C 0.64902 0.93064 0.02571 0.0
C1064 C 0.07287 0.75049 0.0283 0.0
C1065 C 0.08133 0.7349 0.00929 0.0
C1066 C 0.09086 0.77392 0.04876 0.0
C1067 C 0.11792 0.7825 0.05112 0.0
H1068 H 0.0519 0.74353 0.02954 0.0
H1069 H 0.08314 0.78386 0.06581 0.0
S1070 S 0.15105 0.75177 0.00148 0.0
N1071 N 0.11932 0.73209 0.98971 0.0
N1072 N 0.15302 0.77598 0.02901 0.0
C1073 C 0.12716 0.76892 0.02907 0.0
C1074 C 0.10885 0.74508 0.00794 0.0
C1075 C 0.2651 0.31803 0.0145 0.0
C1076 C 0.28736 0.34292 0.00319 0.0
C1077 C 0.2451 0.31743 0.03666 0.0
C1078 C 0.2465 0.34162 0.04735 0.0
H1079 H 0.26437 0.29918 0.0093 0.0
H1080 H 0.22983 0.29827 0.04827 0.0
S1081 S 0.29794 0.41134 0.01936 0.0
N1082 N 0.30762 0.39186 8e-05 0.0
N1083 N 0.26982 0.39054 0.04121 0.0
C1084 C 0.26705 0.3662 0.03283 0.0
C1085 C 0.28757 0.36691 0.01084 0.0
C1086 C 0.74017 0.65758 0.34321 0.0
C1087 C 0.74526 0.68372 0.33602 0.0
C1088 C 0.75836 0.65417 0.36351 0.0
C1089 C 0.78252 0.67674 0.37651 0.0
H1090 H 0.72112 0.63965 0.33582 0.0
H1091 H 0.75251 0.63389 0.37178 0.0
S1092 S 0.80735 0.74917 0.36 0.0
N1093 N 0.77779 0.7324 0.33966 0.0
N1094 N 0.8119 0.7258 0.37738 0.0
C1095 C 0.78895 0.70277 0.36641 0.0
C1096 C 0.77034 0.70632 0.34628 0.0
C1097 C 0.31866 0.06611 0.36599 0.0
C1098 C 0.33934 0.06934 0.34259 0.0
C1099 C 0.32143 0.08791 0.38744 0.0
C1100 C 0.34495 0.11367 0.38615 0.0
H1101 H 0.3009 0.04618 0.3697 0.0
H1102 H 0.30611 0.08402 0.4076 0.0
S1103 S 0.40345 0.13385 0.32595 0.0
N1104 N 0.38285 0.10116 0.31624 0.0
N1105 N 0.38804 0.14211 0.3571 0.0
C1106 C 0.36468 0.11786 0.36038 0.0
C1107 C 0.36187 0.09566 0.33837 0.0
C1108 C 0.95107 0.28159 0.35862 0.0
C1109 C 0.96825 0.27285 0.3475 0.0
C1110 C 0.92773 0.26462 0.37858 0.0
C1111 C 0.92065 0.23824 0.38829 0.0
H1112 H 0.95642 0.30226 0.35378 0.0
H1113 H 0.91624 0.27294 0.38911 0.0
S1114 S 0.95651 0.20405 0.36162 0.0
N1115 N 0.97468 0.23469 0.34392 0.0
N1116 N 0.93093 0.20308 0.38213 0.0
C1117 C 0.93624 0.22833 0.37458 0.0
C1118 C 0.96004 0.24558 0.35403 0.0
C1119 C 0.05732 0.43491 0.29681 0.0
C1120 C 0.03587 0.41781 0.32022 0.0
C1121 C 0.05726 0.45506 0.27609 0.0
C1122 C 0.03569 0.45887 0.2778 0.0
H1123 H 0.07362 0.4317 0.29275 0.0
H1124 H 0.0731 0.46618 0.25612 0.0
S1125 S 0.97647 0.42238 0.33849 0.0
N1126 N 0.99398 0.40847 0.34726 0.0
N1127 N 0.9938 0.44609 0.30753 0.0
C1128 C 1.01534 0.44374 0.30353 0.0
C1129 C 1.01542 0.42323 0.32491 0.0
C1130 C 0.60278 0.63955 0.30434 0.0
C1131 C 0.62027 0.6349 0.32433 0.0
C1132 C 0.58132 0.6185 0.28427 0.0
C1133 C 0.57677 0.59213 0.28318 0.0
H1134 H 0.60671 0.65997 0.3022 0.0
H1135 H 0.56981 0.62345 0.26655 0.0
S1136 S 0.61433 0.56847 0.33487 0.0
N1137 N 0.62954 0.60123 0.34566 0.0
N1138 N 0.58941 0.56172 0.30697 0.0
C1139 C 0.59242 0.5866 0.30591 0.0
C1140 C 0.6142 0.60803 0.32674 0.0
C1141 C 0.4069 0.9914 0.31663 0.0
C1142 C 0.40745 0.01506 0.32812 0.0
C1143 C 0.42833 0.99294 0.29728 0.0
C1144 C 0.45104 0.01818 0.28857 0.0
H1145 H 0.38916 0.97152 0.32073 0.0
H1146 H 0.42614 0.97432 0.28621 0.0
S1147 S 0.46382 0.08606 0.3155 0.0
N1148 N 0.43395 0.06453 0.33249 0.0
N1149 N 0.4739 0.0672 0.29526 0.0
C1150 C 0.45279 0.0419 0.30231 0.0
C1151 C 0.43107 0.04039 0.32237 0.0
C1152 C 0.60684 0.0195 0.3383 0.0
C1153 C 0.60758 0.9957 0.33346 0.0
C1154 C 0.58888 0.02325 0.31802 0.0
C1155 C 0.57078 1.00316 0.2928 0.0
H1156 H 0.62169 0.03632 0.35534 0.0
H1157 H 0.59088 0.04293 0.31944 0.0
S1158 S 0.561 0.9353 0.27523 0.0
N1159 N 0.58576 0.95019 0.3056 0.0
N1160 N 0.55215 0.95744 0.26772 0.0
C1161 C 0.56934 0.97823 0.29082 0.0
C1162 C 0.58771 0.97444 0.3111 0.0
C1163 C 1.00605 0.61076 0.31006 0.0
C1164 C 0.0309 0.62783 0.32746 0.0
C1165 C 1.00076 0.58761 0.28951 0.0
C1166 C 0.02025 0.58089 0.28525 0.0
H1167 H 0.99123 0.61633 0.31012 0.0
H1168 H 0.98239 0.57654 0.27364 0.0
S1169 S 0.08654 0.61586 0.33067 0.0
N1170 N 0.07357 0.63388 0.3439 0.0
N1171 N 0.06372 0.59065 0.30429 0.0
C1172 C 0.04392 0.59589 0.30592 0.0
C1173 C 0.04927 0.6194 0.32721 0.0
C1174 C 0.4174 0.4103 0.31368 0.0
C1175 C 0.40144 0.41945 0.32887 0.0
C1176 C 0.44037 0.42764 0.29328 0.0
C1177 C 0.4481 0.45471 0.28706 0.0
H1178 H 0.41116 0.3891 0.31542 0.0
H1179 H 0.45067 0.41912 0.27921 0.0
S1180 S 0.41574 0.48986 0.32561 0.0
N1181 N 0.39711 0.45843 0.34058 0.0
N1182 N 0.4401 0.49084 0.3014 0.0
C1183 C 0.43399 0.4649 0.30529 0.0
C1184 C 0.41063 0.44727 0.32637 0.0
C1185 C 0.32279 0.26268 0.36199 0.0
C1186 C 0.34511 0.28409 0.34399 0.0
C1187 C 0.32502 0.24412 0.3835 0.0
C1188 C 0.34958 0.24611 0.38769 0.0
H1189 H 0.30378 0.26123 0.36151 0.0
H1190 H 0.30788 0.2294 0.39938 0.0
S1191 S 0.41314 0.29555 0.34226 0.0
N1192 N 0.39196 0.30392 0.32824 0.0
N1193 N 0.39591 0.26903 0.36925 0.0
C1194 C 0.37145 0.26573 0.3673 0.0
C1195 C 0.36926 0.2847 0.34523 0.0
C1196 C 0.73702 0.07771 0.36368 0.0
C1197 C 0.74422 0.06239 0.34134 0.0
C1198 C 0.75612 0.10024 0.38465 0.0
C1199 C 0.78303 0.10803 0.38441 0.0
H1200 H 0.71626 0.07121 0.36689 0.0
H1201 H 0.74941 0.10996 0.40404 0.0
S1202 S 0.81282 0.07736 0.32645 0.0
N1203 N 0.7807 0.0589 0.31635 0.0
N1204 N 0.81647 0.10093 0.35682 0.0
C1205 C 0.79091 0.09468 0.35942 0.0
C1206 C 0.77149 0.07185 0.33764 0.0
C1207 C 0.9357 0.67431 0.33685 0.0
C1208 C 0.96184 0.69698 0.34137 0.0
C1209 C 0.91445 0.67222 0.3576 0.0
C1210 C 0.91864 0.69289 0.38305 0.0
H1211 H 0.93194 0.65707 0.31956 0.0
H1212 H 0.89523 0.65333 0.35623 0.0
S1213 S 0.98189 0.75862 0.39961 0.0
N1214 N 0.9897 0.74227 0.36901 0.0
N1215 N 0.94973 0.73818 0.40778 0.0
C1216 C 0.94398 0.7168 0.38478 0.0
C1217 C 0.96562 0.71889 0.364 0.0
C1218 C 0.4383 0.04673 0.70274 0.0
C1219 C 0.42091 0.02673 0.67663 0.0
C1220 C 0.45539 0.04287 0.72477 0.0
C1221 C 0.45587 0.01898 0.72132 0.0
H1222 H 0.43763 0.06483 0.70786 0.0
H1223 H 0.46684 0.05772 0.74656 0.0
S1224 S 0.41712 0.9619 0.65441 0.0
N1225 N 0.40751 0.98334 0.64609 0.0
N1226 N 0.43958 0.97621 0.68802 0.0
C1227 C 0.44031 0.99985 0.69348 0.0
C1228 C 0.42287 1.00372 0.6709 0.0
C1229 C 0.0294 0.41897 0.68858 0.0
C1230 C 1.00365 0.40191 0.67375 0.0
C1231 C 0.0361 0.44262 0.70892 0.0
C1232 C 1.01715 0.44983 0.71553 0.0
H1233 H 0.04393 0.41303 0.68674 0.0
H1234 H 0.05527 0.45377 0.72285 0.0
S1235 S 0.94865 0.41485 0.67718 0.0
N1236 N 0.9605 0.39618 0.66212 0.0
N1237 N 0.97301 0.44041 0.70133 0.0
C1238 C 0.99243 0.43475 0.69731 0.0
C1239 C 0.98564 0.41072 0.67622 0.0
C1240 C 0.62989 0.58101 0.68703 0.0
C1241 C 0.63626 0.60765 0.6801 0.0
C1242 C 0.60717 0.56295 0.70773 0.0
C1243 C 0.58992 0.57084 0.72155 0.0
H1244 H 0.64357 0.57475 0.67899 0.0
H1245 H 0.60432 0.54366 0.7156 0.0
S1246 S 0.59492 0.63625 0.70541 0.0
N1247 N 0.62137 0.63946 0.68445 0.0
N1248 N 0.57875 0.60547 0.723 0.0
C1249 C 0.59466 0.59633 0.71167 0.0
C1250 C 0.61783 0.61477 0.69104 0.0
C1251 C 0.67741 0.75348 0.66124 0.0
C1252 C 0.69997 0.75122 0.65955 0.0
C1253 C 0.67591 0.77263 0.63985 0.0
C1254 C 0.69704 0.79036 0.61658 0.0
H1255 H 0.65994 0.73895 0.6767 0.0
H1256 H 0.65725 0.77189 0.63894 0.0
S1257 S 0.76228 0.79635 0.6075 0.0
N1258 N 0.7454 0.77128 0.63682 0.0
N1259 N 0.7423 0.80701 0.5967 0.0
C1260 C 0.72064 0.79023 0.61765 0.0
C1261 C 0.72219 0.77072 0.63914 0.0
C1262 C 0.26086 0.95371 0.66517 0.0
C1263 C 0.28818 0.96306 0.66326 0.0
C1264 C 0.24184 0.92981 0.64604 0.0
C1265 C 0.24957 0.91437 0.62503 0.0
H1266 H 0.2544 0.96616 0.67862 0.0
H1267 H 0.22151 0.925 0.64445 0.0
S1268 S 0.31767 0.92686 0.61834 0.0
N1269 N 0.32131 0.95266 0.64393 0.0
N1270 N 0.28554 0.9076 0.60865 0.0
C1271 C 0.27629 0.92172 0.62698 0.0
C1272 C 0.29566 0.9462 0.64577 0.0
C1273 C 0.09871 0.36462 0.65255 0.0
C1274 C 0.07431 0.33977 0.65709 0.0
C1275 C 0.11943 0.36591 0.63141 0.0
C1276 C 0.11659 0.34233 0.6149 0.0
H1277 H 0.10105 0.38349 0.66273 0.0
H1278 H 0.13678 0.38566 0.62532 0.0
S1279 S 0.05889 0.27187 0.62389 0.0
N1280 N 0.0501 0.29068 0.64746 0.0
N1281 N 0.08918 0.29325 0.60811 0.0
C1282 C 0.09347 0.31716 0.62236 0.0
C1283 C 0.07227 0.31583 0.64339 0.0
C1284 C 0.25773 0.30998 0.6411 0.0
C1285 C 0.27625 0.33211 0.66374 0.0
C1286 C 0.23982 0.31195 0.6182 0.0
C1287 C 0.23955 0.33598 0.61734 0.0
H1288 H 0.25825 0.2916 0.63904 0.0
H1289 H 0.22764 0.29538 0.59876 0.0
S1290 S 0.28065 0.3982 0.6751 0.0
N1291 N 0.29063 0.37767 0.68715 0.0
N1292 N 0.25694 0.38116 0.64368 0.0
C1293 C 0.25602 0.35725 0.64226 0.0
C1294 C 0.27436 0.35535 0.66566 0.0
C1295 C 0.7134 0.95067 0.66159 0.0
C1296 C 0.69448 0.95835 0.66343 0.0
C1297 C 0.70869 0.92819 0.63963 0.0
C1298 C 0.68486 0.91267 0.61935 0.0
H1299 H 0.73285 0.96345 0.67431 0.0
H1300 H 0.72476 0.92462 0.63557 0.0
S1301 S 0.62685 0.92068 0.62154 0.0
N1302 N 0.64934 0.94586 0.64831 0.0
N1303 N 0.64066 0.90371 0.6071 0.0
C1304 C 0.66469 0.91822 0.62456 0.0
C1305 C 0.66948 0.9411 0.64659 0.0
C1306 C 0.07971 0.73517 0.64133 0.0
C1307 C 0.06551 0.74472 0.66078 0.0
C1308 C 0.10262 0.75289 0.62113 0.0
C1309 C 0.11173 0.78073 0.61861 0.0
H1310 H 0.07239 0.71362 0.64038 0.0
H1311 H 0.11204 0.74435 0.60477 0.0
S1312 S 0.08289 0.81618 0.66745 0.0
N1313 N 0.06353 0.7841 0.67965 0.0
N1314 N 0.10602 0.81734 0.63993 0.0
C1315 C 0.09883 0.79089 0.64013 0.0
C1316 C 0.07574 0.77284 0.66153 0.0
C1317 C 0.97703 0.59186 0.70297 0.0
C1318 C 0.99815 0.60938 0.67933 0.0
C1319 C 0.97839 0.57289 0.72478 0.0
C1320 C 1.00087 0.5706 0.7238 0.0
H1321 H 0.95993 0.59384 0.70636 0.0
H1322 H 0.96266 0.56141 0.74475 0.0
S1323 S 0.05984 0.60861 0.66305 0.0
N1324 N 0.04091 0.62071 0.65312 0.0
N1325 N 0.04339 0.58518 0.69468 0.0
C1326 C 0.02101 0.58613 0.69799 0.0
C1327 C 0.01968 0.6055 0.67562 0.0
C1328 C 0.43924 0.40251 0.67801 0.0
C1329 C 0.41228 0.39469 0.67816 0.0
C1330 C 0.4586 0.42604 0.69742 0.0
C1331 C 0.45162 0.44259 0.71709 0.0
H1332 H 0.44503 0.38916 0.66579 0.0
H1333 H 0.47843 0.42964 0.70037 0.0
S1334 S 0.38522 0.43449 0.71881 0.0
N1335 N 0.38066 0.40797 0.69412 0.0
N1336 N 0.41711 0.45217 0.73028 0.0
C1337 C 0.42552 0.43683 0.71337 0.0
C1338 C 0.40578 0.4128 0.69411 0.0
C1339 C 0.59952 0.99634 0.6827 0.0
C1340 C 0.62389 0.02086 0.67625 0.0
C1341 C 0.57948 0.99604 0.7044 0.0
C1342 C 0.58309 0.02025 0.71974 0.0
H1343 H 0.59676 0.97705 0.67372 0.0
H1344 H 0.5622 0.97663 0.71194 0.0
S1345 S 0.64064 0.09004 0.70504 0.0
N1346 N 0.64855 0.07023 0.68228 0.0
N1347 N 0.61084 0.06946 0.72291 0.0
C1348 C 0.60601 0.045 0.71015 0.0
C1349 C 0.62644 0.04536 0.6884 0.0
loop_
_geom_bond_atom_site_label_1
_geom_bond_atom_site_label_2
_geom_bond_distance
_geom_bond_site_symmetry_2
_ccdc_geom_bond_type
C0 O1 1.160 . S
C0 O7 1.185 . S
O1 C0 1.160 . S
O2 Zn3 1.899 1_656 S
O2 C10 1.284 . S
Zn3 O2 1.899 1_454 S
Zn3 O4 2.032 . S
Zn3 O7 2.086 . S
Zn3 O12 1.977 1_554 S
O4 Zn3 2.032 . S
O4 C8 1.278 1_455 S
C5 O6 1.203 1_455 S
C5 O12 1.267 . S
O6 C5 1.203 1_655 S
O7 C0 1.185 . S
O7 Zn3 2.086 . S
C8 O4 1.278 1_655 S
C8 O9 1.211 . S
O9 C8 1.211 . S
C10 O2 1.284 . S
C10 O11 1.273 1_556 S
O11 C10 1.273 1_554 S
O12 Zn3 1.977 1_556 S
O12 C5 1.267 . S
C13 O14 1.160 . S
C13 O20 1.185 1_556 S
O14 C13 1.160 . S
O15 Zn16 1.899 . S
O15 C23 1.284 . S
Zn16 O15 1.899 . S
Zn16 O17 2.032 1_554 S
Zn16 O20 2.086 . S
Zn16 O25 1.977 . S
O17 Zn16 2.032 1_556 S
O17 C21 1.278 . S
C18 O19 1.203 . S
C18 O25 1.267 . S
O19 C18 1.203 . S
O20 C13 1.185 1_554 S
O20 Zn16 2.086 . S
C21 O17 1.278 . S
C21 O22 1.211 . S
O22 C21 1.211 . S
C23 O15 1.284 . S
C23 O24 1.273 . S
O24 C23 1.273 . S
O25 Zn16 1.977 . S
O25 C18 1.267 . S
C26 O27 1.160 . S
C26 O33 1.185 1_556 S
O27 C26 1.160 . S
O28 Zn29 1.899 1_565 S
O28 C36 1.284 . S
Zn29 O28 1.899 1_545 S
Zn29 O30 2.032 1_554 S
Zn29 O33 2.086 . S
Zn29 O38 1.977 . S
O30 Zn29 2.032 1_556 S
O30 C34 1.278 1_545 S
C31 O32 1.203 1_545 S
C31 O38 1.267 . S
O32 C31 1.203 1_565 S
O33 C26 1.185 1_554 S
O33 Zn29 2.086 . S
C34 O30 1.278 1_565 S
C34 O35 1.211 . S
O35 C34 1.211 . S
C36 O28 1.284 . S
C36 O37 1.273 . S
O37 C36 1.273 . S
O38 Zn29 1.977 . S
O38 C31 1.267 . S
C39 O40 1.160 . S
C39 O46 1.185 1_556 S
O40 C39 1.160 . S
O41 Zn42 1.899 1_455 S
O41 C49 1.284 . S
Zn42 O41 1.899 1_655 S
Zn42 O43 2.032 1_554 S
Zn42 O46 2.086 . S
Zn42 O51 1.977 . S
O43 Zn42 2.032 1_556 S
O43 C47 1.278 1_655 S
C44 O45 1.203 1_655 S
C44 O51 1.267 . S
O45 C44 1.203 1_455 S
O46 C39 1.185 1_554 S
O46 Zn42 2.086 . S
C47 O43 1.278 1_455 S
C47 O48 1.211 . S
O48 C47 1.211 . S
C49 O41 1.284 . S
C49 O50 1.273 . S
O50 C49 1.273 . S
O51 Zn42 1.977 . S
O51 C44 1.267 . S
C52 O53 1.160 . S
C52 O59 1.185 . S
O53 C52 1.160 . S
O54 Zn55 1.899 1_556 S
O54 C62 1.284 . S
Zn55 O54 1.899 1_554 S
Zn55 O56 2.032 . S
Zn55 O59 2.086 . S
Zn55 O64 1.977 1_554 S
O56 Zn55 2.032 . S
O56 C60 1.278 . S
C57 O58 1.203 . S
C57 O64 1.267 . S
O58 C57 1.203 . S
O59 C52 1.185 . S
O59 Zn55 2.086 . S
C60 O56 1.278 . S
C60 O61 1.211 . S
O61 C60 1.211 . S
C62 O54 1.284 . S
C62 O63 1.273 1_556 S
O63 C62 1.273 1_554 S
O64 Zn55 1.977 1_556 S
O64 C57 1.267 . S
C65 O66 1.160 . S
C65 O72 1.185 . S
O66 C65 1.160 . S
O67 Zn68 1.899 1_546 S
O67 C75 1.284 . S
Zn68 O67 1.899 1_564 S
Zn68 O69 2.032 . S
Zn68 O72 2.086 . S
Zn68 O77 1.977 1_554 S
O69 Zn68 2.032 . S
O69 C73 1.278 1_565 S
C70 O71 1.203 1_565 S
C70 O77 1.267 . S
O71 C70 1.203 1_545 S
O72 C65 1.185 . S
O72 Zn68 2.086 . S
C73 O69 1.278 1_545 S
C73 O74 1.211 . S
O74 C73 1.211 . S
C75 O67 1.284 . S
C75 O76 1.273 1_556 S
O76 C75 1.273 1_554 S
O77 Zn68 1.977 1_556 S
O77 C70 1.267 . S
C78 O79 1.160 . S
C78 O85 1.185 . S
O79 C78 1.160 . S
O80 Zn81 1.899 . S
O80 C88 1.284 . S
Zn81 O80 1.899 . S
Zn81 O82 2.032 . S
Zn81 O85 2.086 . S
Zn81 O90 1.977 . S
O82 Zn81 2.032 . S
O82 C86 1.278 . S
C83 O84 1.203 . S
C83 O90 1.267 . S
O84 C83 1.203 . S
O85 C78 1.185 . S
O85 Zn81 2.086 . S
C86 O82 1.278 . S
C86 O87 1.211 . S
O87 C86 1.211 . S
C88 O80 1.284 . S
C88 O89 1.273 . S
O89 C88 1.273 . S
O90 Zn81 1.977 . S
O90 C83 1.267 . S
C91 O92 1.160 1_565 S
C91 O98 1.185 . S
O92 C91 1.160 1_545 S
O93 Zn94 1.899 1_545 S
O93 C101 1.284 . S
Zn94 O93 1.899 1_565 S
Zn94 O95 2.032 . S
Zn94 O98 2.086 . S
Zn94 O103 1.977 . S
O95 Zn94 2.032 . S
O95 C99 1.278 . S
C96 O97 1.203 . S
C96 O103 1.267 . S
O97 C96 1.203 . S
O98 C91 1.185 . S
O98 Zn94 2.086 . S
C99 O95 1.278 . S
C99 O100 1.211 . S
O100 C99 1.211 . S
C101 O93 1.284 . S
C101 O102 1.273 . S
O102 C101 1.273 . S
O103 Zn94 1.977 . S
O103 C96 1.267 . S
C104 O105 1.160 1_455 S
C104 O111 1.185 . S
O105 C104 1.160 1_655 S
O106 Zn107 1.899 1_655 S
O106 C114 1.284 . S
Zn107 O106 1.899 1_455 S
Zn107 O108 2.032 . S
Zn107 O111 2.086 . S
Zn107 O116 1.977 . S
O108 Zn107 2.032 . S
O108 C112 1.278 . S
C109 O110 1.203 . S
C109 O116 1.267 . S
O110 C109 1.203 . S
O111 C104 1.185 . S
O111 Zn107 2.086 . S
C112 O108 1.278 . S
C112 O113 1.211 . S
O113 C112 1.211 . S
C114 O106 1.284 . S
C114 O115 1.273 . S
O115 C114 1.273 . S
O116 Zn107 1.977 . S
O116 C109 1.267 . S
C117 O118 1.160 1_565 S
C117 O124 1.185 . S
O118 C117 1.160 1_545 S
O119 Zn120 1.899 1_545 S
O119 C127 1.284 . S
Zn120 O119 1.899 1_565 S
Zn120 O121 2.032 . S
Zn120 O124 2.086 . S
Zn120 O129 1.977 . S
O121 Zn120 2.032 . S
O121 C125 1.278 . S
C122 O123 1.203 . S
C122 O129 1.267 . S
O123 C122 1.203 . S
O124 C117 1.185 . S
O124 Zn120 2.086 . S
C125 O121 1.278 . S
C125 O126 1.211 . S
O126 C125 1.211 . S
C127 O119 1.284 . S
C127 O128 1.273 . S
O128 C127 1.273 . S
O129 Zn120 1.977 . S
O129 C122 1.267 . S
C130 O131 1.160 . S
C130 O137 1.185 . S
O131 C130 1.160 . S
O132 Zn133 1.899 1_655 S
O132 C140 1.286 1_655 S
Zn133 O132 1.899 1_455 S
Zn133 O134 2.032 . S
Zn133 O137 2.086 1_455 S
Zn133 O142 1.977 . S
O134 Zn133 2.032 . S
O134 C138 1.278 . S
C135 O136 1.203 . S
C135 O142 1.267 . S
O136 C135 1.203 . S
O137 C130 1.185 . S
O137 Zn133 2.086 1_655 S
C138 O134 1.278 . S
C138 O139 1.211 . S
O139 C138 1.211 . S
C140 O132 1.286 1_455 S
C140 O141 1.273 . S
O141 C140 1.273 . S
O142 Zn133 1.977 . S
O142 C135 1.267 . S
C143 O144 1.160 . S
C143 O150 1.185 . S
O144 C143 1.160 . S
O145 Zn146 1.899 . S
O145 C153 1.284 . S
Zn146 O145 1.899 . S
Zn146 O147 2.032 . S
Zn146 O150 2.086 . S
Zn146 O155 1.977 . S
O147 Zn146 2.032 . S
O147 C151 1.278 . S
C148 O149 1.203 . S
C148 O155 1.267 . S
O149 C148 1.203 . S
O150 C143 1.185 . S
O150 Zn146 2.086 . S
C151 O147 1.278 . S
C151 O152 1.211 . S
O152 C151 1.211 . S
C153 O145 1.284 . S
C153 O154 1.273 . S
O154 C153 1.273 . S
O155 Zn146 1.977 . S
O155 C148 1.267 . S
C156 O157 1.160 1_545 S
C156 O163 1.185 . S
O157 C156 1.160 1_565 S
O158 Zn159 1.899 1_565 S
O158 C166 1.284 . S
Zn159 O158 1.899 1_545 S
Zn159 O160 2.032 . S
Zn159 O163 2.086 . S
Zn159 O168 1.977 . S
O160 Zn159 2.032 . S
O160 C164 1.278 . S
C161 O162 1.203 . S
C161 O168 1.267 . S
O162 C161 1.203 . S
O163 C156 1.185 . S
O163 Zn159 2.086 . S
C164 O160 1.278 . S
C164 O165 1.211 . S
O165 C164 1.211 . S
C166 O158 1.284 . S
C166 O167 1.273 . S
O167 C166 1.273 . S
O168 Zn159 1.977 . S
O168 C161 1.267 . S
C169 O170 1.160 . S
C169 O176 1.185 . S
O170 C169 1.160 . S
O171 Zn172 1.892 . S
O171 C179 1.312 . S
Zn172 O171 1.892 . S
Zn172 O173 2.032 . S
Zn172 O176 2.086 1_655 S
Zn172 O181 1.977 . S
O173 Zn172 2.032 . S
O173 C177 1.278 . S
C174 O175 1.203 . S
C174 O181 1.267 . S
O175 C174 1.203 . S
O176 C169 1.185 . S
O176 Zn172 2.086 1_455 S
C177 O173 1.278 . S
C177 O178 1.211 . S
O178 C177 1.211 . S
C179 O171 1.312 . S
C179 O180 1.273 . S
O180 C179 1.273 . S
O181 Zn172 1.977 . S
O181 C174 1.267 . S
C182 O183 1.160 . S
C182 O189 1.185 . S
O183 C182 1.160 . S
O184 Zn185 1.899 . S
O184 C192 1.284 . S
Zn185 O184 1.899 . S
Zn185 O186 2.032 . S
Zn185 O189 2.086 . S
Zn185 O194 1.977 . S
O186 Zn185 2.032 . S
O186 C190 1.278 . S
C187 O188 1.203 . S
C187 O194 1.267 . S
O188 C187 1.203 . S
O189 C182 1.185 . S
O189 Zn185 2.086 . S
C190 O186 1.278 . S
C190 O191 1.211 . S
O191 C190 1.211 . S
C192 O184 1.284 . S
C192 O193 1.273 . S
O193 C192 1.273 . S
O194 Zn185 1.977 . S
O194 C187 1.267 . S
C195 O196 1.160 . S
C195 O202 1.185 . S
O196 C195 1.160 . S
O197 Zn198 1.899 . S
O197 C205 1.284 . S
Zn198 O197 1.899 . S
Zn198 O199 2.032 . S
Zn198 O202 2.086 . S
Zn198 O207 1.977 . S
O199 Zn198 2.032 . S
O199 C203 1.278 . S
C200 O201 1.203 . S
C200 O207 1.267 . S
O201 C200 1.203 . S
O202 C195 1.185 . S
O202 Zn198 2.086 . S
C203 O199 1.278 . S
C203 O204 1.211 . S
O204 C203 1.211 . S
C205 O197 1.284 . S
C205 O206 1.273 . S
O206 C205 1.273 . S
O207 Zn198 1.977 . S
O207 C200 1.267 . S
C208 O209 1.160 1_545 S
C208 O215 1.185 . S
O209 C208 1.160 1_565 S
O210 Zn211 1.899 1_565 S
O210 C218 1.284 . S
Zn211 O210 1.899 1_545 S
Zn211 O212 2.032 . S
Zn211 O215 2.086 . S
Zn211 O220 1.977 . S
O212 Zn211 2.032 . S
O212 C216 1.278 . S
C213 O214 1.203 . S
C213 O220 1.267 . S
O214 C213 1.203 . S
O215 C208 1.185 . S
O215 Zn211 2.086 . S
C216 O212 1.278 . S
C216 O217 1.211 . S
O217 C216 1.211 . S
C218 O210 1.284 . S
C218 O219 1.273 . S
O219 C218 1.273 . S
O220 Zn211 1.977 . S
O220 C213 1.267 . S
C221 O222 1.160 1_655 S
C221 O228 1.185 . S
O222 C221 1.160 1_455 S
O223 Zn224 1.899 1_455 S
O223 C231 1.284 . S
Zn224 O223 1.899 1_655 S
Zn224 O225 2.032 . S
Zn224 O228 2.086 . S
Zn224 O233 1.977 . S
O225 Zn224 2.032 . S
O225 C229 1.278 . S
C226 O227 1.203 . S
C226 O233 1.267 . S
O227 C226 1.203 . S
O228 C221 1.185 . S
O228 Zn224 2.086 . S
C229 O225 1.278 . S
C229 O230 1.211 . S
O230 C229 1.211 . S
C231 O223 1.284 . S
C231 O232 1.273 . S
O232 C231 1.273 . S
O233 Zn224 1.977 . S
O233 C226 1.267 . S
H234 C240 0.930 . S
H235 C243 0.931 . S
H236 C245 0.931 . S
H237 C247 0.930 . S
H238 C249 0.930 . S
H239 C251 0.931 . S
C240 H234 0.930 . S
C240 C241 1.380 . S
C240 C242 1.394 . S
C241 C240 1.380 . S
C241 C245 1.382 . S
C242 C240 1.394 . S
C242 C243 1.400 . S
C243 H235 0.931 . S
C243 C242 1.400 . S
C243 C244 1.375 . S
C244 C243 1.375 . S
C244 C245 1.415 . S
C244 C246 1.501 . S
C245 H236 0.931 . S
C245 C241 1.382 . S
C245 C244 1.415 . S
C246 C244 1.501 . S
C246 C247 1.384 . S
C246 C251 1.408 . S
C247 H237 0.930 . S
C247 C246 1.384 . S
C247 C248 1.389 . S
C248 C247 1.389 . S
C248 C249 1.405 . S
C249 H238 0.930 . S
C249 C248 1.405 . S
C249 C250 1.364 . S
C250 C249 1.364 . S
C250 C251 1.400 . S
C251 H239 0.931 . S
C251 C246 1.408 . S
C251 C250 1.400 . S
H252 C258 0.930 . S
H253 C261 0.931 . S
H254 C263 0.931 . S
H255 C265 0.930 . S
H256 C267 0.930 . S
H257 C269 0.931 . S
C258 H252 0.930 . S
C258 C259 1.380 . S
C258 C260 1.394 . S
C259 C258 1.380 . S
C259 C263 1.382 . S
C260 C258 1.394 . S
C260 C261 1.400 . S
C261 H253 0.931 . S
C261 C260 1.400 . S
C261 C262 1.375 . S
C262 C261 1.375 . S
C262 C263 1.415 . S
C262 C264 1.501 . S
C263 H254 0.931 . S
C263 C259 1.382 . S
C263 C262 1.415 . S
C264 C262 1.501 . S
C264 C265 1.384 . S
C264 C269 1.408 . S
C265 H255 0.930 . S
C265 C264 1.384 . S
C265 C266 1.389 . S
C266 C265 1.389 . S
C266 C267 1.405 . S
C267 H256 0.930 . S
C267 C266 1.405 . S
C267 C268 1.364 . S
C268 C267 1.364 . S
C268 C269 1.400 . S
C269 H257 0.931 . S
C269 C264 1.408 . S
C269 C268 1.400 . S
H270 C276 0.930 . S
H271 C279 0.931 . S
H272 C281 0.931 . S
H273 C283 0.930 . S
H274 C285 0.930 . S
H275 C287 0.931 . S
C276 H270 0.930 . S
C276 C277 1.380 . S
C276 C278 1.394 . S
C277 C276 1.380 . S
C277 C281 1.382 . S
C278 C276 1.394 . S
C278 C279 1.400 . S
C279 H271 0.931 . S
C279 C278 1.400 . S
C279 C280 1.375 . S
C280 C279 1.375 . S
C280 C281 1.415 . S
C280 C282 1.501 . S
C281 H272 0.931 . S
C281 C277 1.382 . S
C281 C280 1.415 . S
C282 C280 1.501 . S
C282 C283 1.384 . S
C282 C287 1.408 . S
C283 H273 0.930 . S
C283 C282 1.384 . S
C283 C284 1.389 . S
C284 C283 1.389 . S
C284 C285 1.405 . S
C285 H274 0.930 . S
C285 C284 1.405 . S
C285 C286 1.364 . S
C286 C285 1.364 . S
C286 C287 1.400 . S
C287 H275 0.931 . S
C287 C282 1.408 . S
C287 C286 1.400 . S
H288 C294 0.930 . S
H289 C297 0.931 . S
H290 C299 0.931 . S
H291 C301 0.930 . S
H292 C303 0.930 . S
H293 C305 0.931 . S
C294 H288 0.930 . S
C294 C295 1.380 . S
C294 C296 1.394 . S
C295 C294 1.380 . S
C295 C299 1.382 . S
C296 C294 1.394 . S
C296 C297 1.400 . S
C297 H289 0.931 . S
C297 C296 1.400 . S
C297 C298 1.375 . S
C298 C297 1.375 . S
C298 C299 1.415 . S
C298 C300 1.501 . S
C299 H290 0.931 . S
C299 C295 1.382 . S
C299 C298 1.415 . S
C300 C298 1.501 . S
C300 C301 1.384 . S
C300 C305 1.408 . S
C301 H291 0.930 . S
C301 C300 1.384 . S
C301 C302 1.389 . S
C302 C301 1.389 . S
C302 C303 1.405 . S
C303 H292 0.930 . S
C303 C302 1.405 . S
C303 C304 1.364 . S
C304 C303 1.364 . S
C304 C305 1.400 . S
C305 H293 0.931 . S
C305 C300 1.408 . S
C305 C304 1.400 . S
H306 C312 0.930 . S
H307 C315 0.931 . S
H308 C317 0.931 . S
H309 C319 0.930 . S
H310 C321 0.930 . S
H311 C323 0.931 . S
C312 H306 0.930 . S
C312 C313 1.380 . S
C312 C314 1.394 . S
C313 C312 1.380 . S
C313 C317 1.382 . S
C314 C312 1.394 . S
C314 C315 1.400 . S
C315 H307 0.931 . S
C315 C314 1.400 . S
C315 C316 1.375 . S
C316 C315 1.375 . S
C316 C317 1.415 . S
C316 C318 1.501 . S
C317 H308 0.931 . S
C317 C313 1.382 . S
C317 C316 1.415 . S
C318 C316 1.501 . S
C318 C319 1.384 . S
C318 C323 1.408 . S
C319 H309 0.930 . S
C319 C318 1.384 . S
C319 C320 1.389 . S
C320 C319 1.389 . S
C320 C321 1.405 . S
C321 H310 0.930 . S
C321 C320 1.405 . S
C321 C322 1.364 . S
C322 C321 1.364 . S
C322 C323 1.400 . S
C323 H311 0.931 . S
C323 C318 1.408 . S
C323 C322 1.400 . S
H324 C330 0.930 . S
H325 C333 0.931 . S
H326 C335 0.931 . S
H327 C337 0.930 . S
H328 C339 0.930 . S
H329 C341 0.931 . S
C330 H324 0.930 . S
C330 C331 1.380 . S
C330 C332 1.394 . S
C331 C330 1.380 . S
C331 C335 1.382 . S
C332 C330 1.394 . S
C332 C333 1.400 . S
C333 H325 0.931 . S
C333 C332 1.400 . S
C333 C334 1.375 . S
C334 C333 1.375 . S
C334 C335 1.415 . S
C334 C336 1.501 . S
C335 H326 0.931 . S
C335 C331 1.382 . S
C335 C334 1.415 . S
C336 C334 1.501 . S
C336 C337 1.384 . S
C336 C341 1.408 . S
C337 H327 0.930 . S
C337 C336 1.384 . S
C337 C338 1.389 . S
C338 C337 1.389 . S
C338 C339 1.405 . S
C339 H328 0.930 . S
C339 C338 1.405 . S
C339 C340 1.364 . S
C340 C339 1.364 . S
C340 C341 1.400 . S
C341 H329 0.931 . S
C341 C336 1.408 . S
C341 C340 1.400 . S
H342 C348 0.930 . S
H343 C351 0.931 . S
H344 C353 0.931 . S
H345 C355 0.930 . S
H346 C357 0.930 . S
H347 C359 0.931 . S
C348 H342 0.930 . S
C348 C349 1.380 . S
C348 C350 1.394 . S
C349 C348 1.380 . S
C349 C353 1.382 . S
C350 C348 1.394 . S
C350 C351 1.400 . S
C351 H343 0.931 . S
C351 C350 1.400 . S
C351 C352 1.375 . S
C352 C351 1.375 . S
C352 C353 1.415 . S
C352 C354 1.501 . S
C353 H344 0.931 . S
C353 C349 1.382 . S
C353 C352 1.415 . S
C354 C352 1.501 . S
C354 C355 1.384 . S
C354 C359 1.408 . S
C355 H345 0.930 . S
C355 C354 1.384 . S
C355 C356 1.389 . S
C356 C355 1.389 . S
C356 C357 1.405 . S
C357 H346 0.930 . S
C357 C356 1.405 . S
C357 C358 1.364 . S
C358 C357 1.364 . S
C358 C359 1.400 . S
C359 H347 0.931 . S
C359 C354 1.408 . S
C359 C358 1.400 . S
H360 C366 0.930 . S
H361 C369 0.931 . S
H362 C371 0.931 . S
H363 C373 0.930 . S
H364 C375 0.930 . S
H365 C377 0.931 . S
C366 H360 0.930 . S
C366 C367 1.380 . S
C366 C368 1.394 . S
C367 C366 1.380 . S
C367 C371 1.382 . S
C368 C366 1.394 . S
C368 C369 1.400 . S
C369 H361 0.931 . S
C369 C368 1.400 . S
C369 C370 1.375 . S
C370 C369 1.375 . S
C370 C371 1.415 . S
C370 C372 1.501 . S
C371 H362 0.931 . S
C371 C367 1.382 . S
C371 C370 1.415 . S
C372 C370 1.501 . S
C372 C373 1.384 . S
C372 C377 1.408 . S
C373 H363 0.930 . S
C373 C372 1.384 . S
C373 C374 1.389 . S
C374 C373 1.389 . S
C374 C375 1.405 . S
C375 H364 0.930 . S
C375 C374 1.405 . S
C375 C376 1.364 . S
C376 C375 1.364 . S
C376 C377 1.400 . S
C377 H365 0.931 . S
C377 C372 1.408 . S
C377 C376 1.400 . S
H378 C384 0.930 . S
H379 C387 0.931 . S
H380 C389 0.931 . S
H381 C391 0.930 . S
H382 C393 0.930 . S
H383 C395 0.931 . S
C384 H378 0.930 . S
C384 C385 1.380 . S
C384 C386 1.394 . S
C385 C384 1.380 . S
C385 C389 1.382 . S
C386 C384 1.394 . S
C386 C387 1.400 . S
C387 H379 0.931 . S
C387 C386 1.400 . S
C387 C388 1.375 . S
C388 C387 1.375 . S
C388 C389 1.415 . S
C388 C390 1.501 . S
C389 H380 0.931 . S
C389 C385 1.382 . S
C389 C388 1.415 . S
C390 C388 1.501 . S
C390 C391 1.384 . S
C390 C395 1.408 . S
C391 H381 0.930 . S
C391 C390 1.384 . S
C391 C392 1.389 . S
C392 C391 1.389 . S
C392 C393 1.405 . S
C393 H382 0.930 . S
C393 C392 1.405 . S
C393 C394 1.364 . S
C394 C393 1.364 . S
C394 C395 1.400 . S
C395 H383 0.931 . S
C395 C390 1.408 . S
C395 C394 1.400 . S
H396 C402 0.930 1_655 S
H397 C405 0.931 . S
H398 C407 0.931 . S
H399 C409 0.930 . S
H400 C411 0.930 . S
H401 C413 0.939 1_655 S
C402 H396 0.930 1_455 S
C402 C403 1.380 1_455 S
C402 C404 1.394 . S
C403 C402 1.380 1_655 S
C403 C407 1.382 . S
C404 C402 1.394 . S
C404 C405 1.400 . S
C405 H397 0.931 . S
C405 C404 1.400 . S
C405 C406 1.375 . S
C406 C405 1.375 . S
C406 C407 1.415 1_455 S
C406 C408 1.501 . S
C407 H398 0.931 . S
C407 C403 1.382 . S
C407 C406 1.415 1_655 S
C408 C406 1.501 . S
C408 C409 1.384 . S
C408 C413 1.418 . S
C409 H399 0.930 . S
C409 C408 1.384 . S
C409 C410 1.389 . S
C410 C409 1.389 . S
C410 C411 1.405 . S
C411 H400 0.930 . S
C411 C410 1.405 . S
C411 C412 1.364 . S
C412 C411 1.364 . S
C412 C413 1.385 . S
C413 H401 0.939 1_455 S
C413 C408 1.418 . S
C413 C412 1.385 . S
H414 C420 0.930 . S
H415 C423 0.931 . S
H416 C425 0.931 . S
H417 C427 0.930 . S
H418 C429 0.930 . S
H419 C431 0.931 . S
C420 H414 0.930 . S
C420 C421 1.380 . S
C420 C422 1.394 . S
C421 C420 1.380 . S
C421 C425 1.382 . S
C422 C420 1.394 . S
C422 C423 1.400 . S
C423 H415 0.931 . S
C423 C422 1.400 . S
C423 C424 1.375 . S
C424 C423 1.375 . S
C424 C425 1.415 . S
C424 C426 1.501 . S
C425 H416 0.931 . S
C425 C421 1.382 . S
C425 C424 1.415 . S
C426 C424 1.501 . S
C426 C427 1.384 . S
C426 C431 1.408 . S
C427 H417 0.930 . S
C427 C426 1.384 . S
C427 C428 1.389 . S
C428 C427 1.389 . S
C428 C429 1.405 . S
C429 H418 0.930 . S
C429 C428 1.405 . S
C429 C430 1.364 . S
C430 C429 1.364 . S
C430 C431 1.400 . S
C431 H419 0.931 . S
C431 C426 1.408 . S
C431 C430 1.400 . S
H432 C438 0.930 . S
H433 C441 0.931 . S
H434 C443 0.931 . S
H435 C445 0.930 . S
H436 C447 0.930 . S
H437 C449 0.936 . S
C438 H432 0.930 . S
C438 C439 1.380 . S
C438 C440 1.394 1_545 S
C439 C438 1.380 . S
C439 C443 1.382 . S
C440 C438 1.394 1_565 S
C440 C441 1.400 . S
C441 H433 0.931 . S
C441 C440 1.400 . S
C441 C442 1.375 . S
C442 C441 1.375 . S
C442 C443 1.415 1_565 S
C442 C444 1.501 . S
C443 H434 0.931 . S
C443 C439 1.382 . S
C443 C442 1.415 1_545 S
C444 C442 1.501 . S
C444 C445 1.384 . S
C444 C449 1.408 . S
C445 H435 0.930 . S
C445 C444 1.384 . S
C445 C446 1.389 . S
C446 C445 1.389 . S
C446 C447 1.405 . S
C447 H436 0.930 . S
C447 C446 1.405 . S
C447 C448 1.364 . S
C448 C447 1.364 . S
C448 C449 1.400 . S
C449 H437 0.936 . S
C449 C444 1.408 . S
C449 C448 1.400 . S
H450 C456 0.924 . S
H451 C459 0.931 . S
H452 C461 0.924 . S
H453 C463 0.930 . S
H454 C465 0.930 . S
H455 C467 0.931 . S
C456 H450 0.924 . S
C456 C457 1.383 . S
C456 C458 1.397 1_545 S
C457 C456 1.383 . S
C457 C461 1.400 1_545 S
C458 C456 1.397 1_565 S
C458 C459 1.400 . S
C459 H451 0.931 . S
C459 C458 1.400 . S
C459 C460 1.375 . S
C460 C459 1.375 . S
C460 C461 1.407 . S
C460 C462 1.501 . S
C461 H452 0.924 . S
C461 C457 1.400 1_565 S
C461 C460 1.407 . S
C462 C460 1.501 . S
C462 C463 1.384 . S
C462 C467 1.408 1_565 S
C463 H453 0.930 . S
C463 C462 1.384 . S
C463 C464 1.389 . S
C464 C463 1.389 . S
C464 C465 1.405 . S
C465 H454 0.930 . S
C465 C464 1.405 . S
C465 C466 1.364 1_565 S
C466 C465 1.364 1_545 S
C466 C467 1.400 . S
C467 H455 0.931 . S
C467 C462 1.408 1_545 S
C467 C466 1.400 . S
H468 C474 0.930 . S
H469 C477 0.931 . S
H470 C479 0.934 . S
H471 C481 0.930 . S
H472 C483 0.930 . S
H473 C485 0.931 . S
C474 H468 0.930 . S
C474 C475 1.395 . S
C474 C476 1.391 1_655 S
C475 C474 1.395 . S
C475 C479 1.348 1_655 S
C476 C474 1.391 1_455 S
C476 C477 1.406 . S
C477 H469 0.931 . S
C477 C476 1.406 . S
C477 C478 1.375 . S
C478 C477 1.375 . S
C478 C479 1.419 . S
C478 C480 1.501 . S
C479 H470 0.934 . S
C479 C475 1.348 1_455 S
C479 C478 1.419 . S
C480 C478 1.501 . S
C480 C481 1.384 . S
C480 C485 1.408 1_455 S
C481 H471 0.930 . S
C481 C480 1.384 . S
C481 C482 1.389 . S
C482 C481 1.389 . S
C482 C483 1.405 . S
C483 H472 0.930 . S
C483 C482 1.405 . S
C483 C484 1.364 1_455 S
C484 C483 1.364 1_655 S
C484 C485 1.400 . S
C485 H473 0.931 . S
C485 C480 1.408 1_655 S
C485 C484 1.400 . S
H486 C492 0.930 . S
H487 C495 0.931 . S
H488 C497 0.931 . S
H489 C499 0.930 . S
H490 C501 0.930 . S
H491 C503 0.931 . S
C492 H486 0.930 . S
C492 C493 1.380 . S
C492 C494 1.394 . S
C493 C492 1.380 . S
C493 C497 1.382 . S
C494 C492 1.394 . S
C494 C495 1.400 . S
C495 H487 0.931 . S
C495 C494 1.400 . S
C495 C496 1.375 . S
C496 C495 1.375 . S
C496 C497 1.415 . S
C496 C498 1.501 . S
C497 H488 0.931 . S
C497 C493 1.382 . S
C497 C496 1.415 . S
C498 C496 1.501 . S
C498 C499 1.384 . S
C498 C503 1.408 . S
C499 H489 0.930 . S
C499 C498 1.384 . S
C499 C500 1.389 . S
C500 C499 1.389 . S
C500 C501 1.405 . S
C501 H490 0.930 . S
C501 C500 1.405 . S
C501 C502 1.364 . S
C502 C501 1.364 . S
C502 C503 1.400 . S
C503 H491 0.931 . S
C503 C498 1.408 . S
C503 C502 1.400 . S
H504 C510 0.930 . S
H505 C513 0.931 . S
H506 C515 0.931 . S
H507 C517 0.930 . S
H508 C519 0.930 . S
H509 C521 0.931 . S
C510 H504 0.930 . S
C510 C511 1.380 . S
C510 C512 1.394 . S
C511 C510 1.380 . S
C511 C515 1.382 . S
C512 C510 1.394 . S
C512 C513 1.400 . S
C513 H505 0.931 . S
C513 C512 1.400 . S
C513 C514 1.375 . S
C514 C513 1.375 . S
C514 C515 1.415 . S
C514 C516 1.501 . S
C515 H506 0.931 . S
C515 C511 1.382 . S
C515 C514 1.415 . S
C516 C514 1.501 . S
C516 C517 1.384 . S
C516 C521 1.408 . S
C517 H507 0.930 . S
C517 C516 1.384 . S
C517 C518 1.389 . S
C518 C517 1.389 . S
C518 C519 1.405 . S
C519 H508 0.930 . S
C519 C518 1.405 . S
C519 C520 1.364 . S
C520 C519 1.364 . S
C520 C521 1.400 . S
C521 H509 0.931 . S
C521 C516 1.408 . S
C521 C520 1.400 . S
H522 C528 0.930 . S
H523 C531 0.931 . S
H524 C533 0.931 . S
H525 C535 0.930 . S
H526 C537 0.930 . S
H527 C539 0.931 . S
C528 H522 0.930 . S
C528 C529 1.380 . S
C528 C530 1.394 . S
C529 C528 1.380 . S
C529 C533 1.382 . S
C530 C528 1.394 . S
C530 C531 1.400 . S
C531 H523 0.931 . S
C531 C530 1.400 . S
C531 C532 1.375 . S
C532 C531 1.375 . S
C532 C533 1.415 . S
C532 C534 1.501 . S
C533 H524 0.931 . S
C533 C529 1.382 . S
C533 C532 1.415 . S
C534 C532 1.501 . S
C534 C535 1.384 . S
C534 C539 1.408 . S
C535 H525 0.930 . S
C535 C534 1.384 . S
C535 C536 1.389 . S
C536 C535 1.389 . S
C536 C537 1.405 . S
C537 H526 0.930 . S
C537 C536 1.405 . S
C537 C538 1.364 . S
C538 C537 1.364 . S
C538 C539 1.400 . S
C539 H527 0.931 . S
C539 C534 1.408 . S
C539 C538 1.400 . S
H540 C546 0.930 . S
H541 C549 0.931 . S
H542 C551 0.931 . S
H543 C553 0.930 . S
H544 C555 0.930 . S
H545 C557 0.931 . S
C546 H540 0.930 . S
C546 C547 1.380 . S
C546 C548 1.394 . S
C547 C546 1.380 . S
C547 C551 1.382 . S
C548 C546 1.394 . S
C548 C549 1.400 . S
C549 H541 0.931 . S
C549 C548 1.400 . S
C549 C550 1.375 . S
C550 C549 1.375 . S
C550 C551 1.415 . S
C550 C552 1.501 . S
C551 H542 0.931 . S
C551 C547 1.382 . S
C551 C550 1.415 . S
C552 C550 1.501 . S
C552 C553 1.384 . S
C552 C557 1.408 . S
C553 H543 0.930 . S
C553 C552 1.384 . S
C553 C554 1.389 . S
C554 C553 1.389 . S
C554 C555 1.405 . S
C555 H544 0.930 . S
C555 C554 1.405 . S
C555 C556 1.364 . S
C556 C555 1.364 . S
C556 C557 1.400 . S
C557 H545 0.931 . S
C557 C552 1.408 . S
C557 C556 1.400 . S
C558 C559 1.369 . S
C558 C560 1.419 . S
C558 H562 0.930 1_655 S
C559 C558 1.369 . S
C559 C568 1.429 . S
C560 C558 1.419 . S
C560 C561 1.363 . S
C560 H563 0.929 1_655 S
C561 C560 1.363 . S
C561 C567 1.428 . S
H562 C558 0.930 1_455 S
H563 C560 0.929 1_455 S
S564 N565 1.613 . S
S564 N566 1.610 . S
N565 S564 1.613 . S
N565 C568 1.350 . S
N566 S564 1.610 . S
N566 C567 1.351 . S
C567 C561 1.428 . S
C567 N566 1.351 . S
C567 C568 1.434 . S
C568 C559 1.429 . S
C568 N565 1.350 . S
C568 C567 1.434 . S
C569 C570 1.369 . S
C569 C571 1.419 . S
C569 H573 0.930 . S
C570 C569 1.369 . S
C570 C579 1.429 . S
C571 C569 1.419 . S
C571 C572 1.363 . S
C571 H574 0.929 . S
C572 C571 1.363 . S
C572 C578 1.428 . S
H573 C569 0.930 . S
H574 C571 0.929 . S
S575 N576 1.613 . S
S575 N577 1.610 . S
N576 S575 1.613 . S
N576 C579 1.350 . S
N577 S575 1.610 . S
N577 C578 1.351 . S
C578 C572 1.428 . S
C578 N577 1.351 . S
C578 C579 1.434 . S
C579 C570 1.429 . S
C579 N576 1.350 . S
C579 C578 1.434 . S
C580 C581 1.369 . S
C580 C582 1.419 . S
C580 H584 0.930 . S
C581 C580 1.369 . S
C581 C590 1.429 . S
C582 C580 1.419 . S
C582 C583 1.363 . S
C582 H585 0.929 . S
C583 C582 1.363 . S
C583 C589 1.428 . S
H584 C580 0.930 . S
H585 C582 0.929 . S
S586 N587 1.634 . S
S586 N588 1.610 . S
N587 S586 1.634 . S
N587 C590 1.364 1_565 S
N588 S586 1.610 . S
N588 C589 1.351 1_565 S
C589 C583 1.428 . S
C589 N588 1.351 1_545 S
C589 C590 1.434 . S
C590 C581 1.429 . S
C590 N587 1.364 1_545 S
C590 C589 1.434 . S
C591 C592 1.369 1_545 S
C591 C593 1.419 . S
C591 H595 0.930 . S
C592 C591 1.369 1_565 S
C592 C601 1.429 . S
C593 C591 1.419 . S
C593 C594 1.363 1_545 S
C593 H596 0.929 . S
C594 C593 1.363 1_565 S
C594 C600 1.428 . S
H595 C591 0.930 . S
H596 C593 0.929 . S
S597 N598 1.613 . S
S597 N599 1.610 . S
N598 S597 1.613 . S
N598 C601 1.350 . S
N599 S597 1.610 . S
N599 C600 1.351 . S
C600 C594 1.428 . S
C600 N599 1.351 . S
C600 C601 1.434 . S
C601 C592 1.429 . S
C601 N598 1.350 . S
C601 C600 1.434 . S
C602 C603 1.369 1_655 S
C602 C604 1.419 . S
C602 H606 0.930 . S
C603 C602 1.369 1_455 S
C603 C612 1.429 . S
C604 C602 1.419 . S
C604 C605 1.363 1_655 S
C604 H607 0.929 . S
C605 C604 1.363 1_455 S
C605 C611 1.428 . S
H606 C602 0.930 . S
H607 C604 0.929 . S
S608 N609 1.613 . S
S608 N610 1.610 . S
N609 S608 1.613 . S
N609 C612 1.350 . S
N610 S608 1.610 . S
N610 C611 1.351 . S
C611 C605 1.428 . S
C611 N610 1.351 . S
C611 C612 1.434 . S
C612 C603 1.429 . S
C612 N609 1.350 . S
C612 C611 1.434 . S
C613 C614 1.369 . S
C613 C615 1.419 . S
C613 H617 0.930 . S
C614 C613 1.369 . S
C614 C623 1.429 . S
C615 C613 1.419 . S
C615 C616 1.363 . S
C615 H618 0.929 . S
C616 C615 1.363 . S
C616 C622 1.428 . S
H617 C613 0.930 . S
H618 C615 0.929 . S
S619 N620 1.613 . S
S619 N621 1.610 . S
N620 S619 1.613 . S
N620 C623 1.350 . S
N621 S619 1.610 . S
N621 C622 1.351 . S
C622 C616 1.428 . S
C622 N621 1.351 . S
C622 C623 1.434 . S
C623 C614 1.429 . S
C623 N620 1.350 . S
C623 C622 1.434 . S
C624 C625 1.369 . S
C624 C626 1.419 . S
C624 H628 0.930 . S
C625 C624 1.369 . S
C625 C634 1.429 . S
C626 C624 1.419 . S
C626 C627 1.363 . S
C626 H629 0.929 . S
C627 C626 1.363 . S
C627 C633 1.428 . S
H628 C624 0.930 . S
H629 C626 0.929 . S
S630 N631 1.613 . S
S630 N632 1.610 . S
N631 S630 1.613 . S
N631 C634 1.350 . S
N632 S630 1.610 . S
N632 C633 1.351 . S
C633 C627 1.428 . S
C633 N632 1.351 . S
C633 C634 1.434 . S
C634 C625 1.429 . S
C634 N631 1.350 . S
C634 C633 1.434 . S
C635 C636 1.369 . S
C635 C637 1.419 . S
C635 H639 0.930 . S
C636 C635 1.369 . S
C636 C645 1.429 . S
C637 C635 1.419 . S
C637 C638 1.363 . S
C637 H640 0.929 . S
C638 C637 1.363 . S
C638 C644 1.428 . S
H639 C635 0.930 . S
H640 C637 0.929 . S
S641 N642 1.613 . S
S641 N643 1.610 . S
N642 S641 1.613 . S
N642 C645 1.350 . S
N643 S641 1.610 . S
N643 C644 1.351 . S
C644 C638 1.428 . S
C644 N643 1.351 . S
C644 C645 1.434 . S
C645 C636 1.429 . S
C645 N642 1.350 . S
C645 C644 1.434 . S
C646 C647 1.369 . S
C646 C648 1.419 . S
C646 H650 0.930 . S
C647 C646 1.369 . S
C647 C656 1.429 1_565 S
C648 C646 1.419 . S
C648 C649 1.363 . S
C648 H651 0.929 . S
C649 C648 1.363 . S
C649 C655 1.428 1_565 S
H650 C646 0.930 . S
H651 C648 0.929 . S
S652 N653 1.613 . S
S652 N654 1.610 . S
N653 S652 1.613 . S
N653 C656 1.350 . S
N654 S652 1.610 . S
N654 C655 1.351 . S
C655 C649 1.428 1_545 S
C655 N654 1.351 . S
C655 C656 1.434 . S
C656 C647 1.429 1_545 S
C656 N653 1.350 . S
C656 C655 1.434 . S
C657 C658 1.369 . S
C657 C659 1.419 . S
C657 H661 0.930 . S
C658 C657 1.369 . S
C658 C667 1.429 1_545 S
C659 C657 1.419 . S
C659 C660 1.363 . S
C659 H662 0.929 . S
C660 C659 1.363 . S
C660 C666 1.428 1_545 S
H661 C657 0.930 . S
H662 C659 0.929 . S
S663 N664 1.613 . S
S663 N665 1.610 . S
N664 S663 1.613 . S
N664 C667 1.350 . S
N665 S663 1.610 . S
N665 C666 1.351 . S
C666 C660 1.428 1_565 S
C666 N665 1.351 . S
C666 C667 1.434 . S
C667 C658 1.429 1_565 S
C667 N664 1.350 . S
C667 C666 1.434 . S
C668 C669 1.369 . S
C668 C670 1.419 . S
C668 H672 0.930 . S
C669 C668 1.369 . S
C669 C678 1.429 1_655 S
C670 C668 1.419 . S
C670 C671 1.363 . S
C670 H673 0.929 . S
C671 C670 1.363 . S
C671 C677 1.428 1_655 S
H672 C668 0.930 . S
H673 C670 0.929 . S
S674 N675 1.613 . S
S674 N676 1.610 . S
N675 S674 1.613 . S
N675 C678 1.350 . S
N676 S674 1.610 . S
N676 C677 1.351 . S
C677 C671 1.428 1_455 S
C677 N676 1.351 . S
C677 C678 1.434 . S
C678 C669 1.429 1_455 S
C678 N675 1.350 . S
C678 C677 1.434 . S
C679 C680 1.369 . S
C679 C681 1.419 . S
C679 H683 0.930 . S
C680 C679 1.369 . S
C680 C689 1.429 . S
C681 C679 1.419 . S
C681 C682 1.363 . S
C681 H684 0.929 . S
C682 C681 1.363 . S
C682 C688 1.428 . S
H683 C679 0.930 . S
H684 C681 0.929 . S
S685 N686 1.613 . S
S685 N687 1.610 . S
N686 S685 1.613 . S
N686 C689 1.350 . S
N687 S685 1.610 . S
N687 C688 1.351 . S
C688 C682 1.428 . S
C688 N687 1.351 . S
C688 C689 1.434 . S
C689 C680 1.429 . S
C689 N686 1.350 . S
C689 C688 1.434 . S
C690 C691 1.369 . S
C690 C692 1.419 . S
C690 H694 0.930 . S
C691 C690 1.369 . S
C691 C700 1.429 . S
C692 C690 1.419 . S
C692 C693 1.363 . S
C692 H695 0.929 . S
C693 C692 1.363 . S
C693 C699 1.428 . S
H694 C690 0.930 . S
H695 C692 0.929 . S
S696 N697 1.613 . S
S696 N698 1.610 . S
N697 S696 1.613 . S
N697 C700 1.350 . S
N698 S696 1.610 . S
N698 C699 1.351 . S
C699 C693 1.428 . S
C699 N698 1.351 . S
C699 C700 1.434 . S
C700 C691 1.429 . S
C700 N697 1.350 . S
C700 C699 1.434 . S
C701 C702 1.369 . S
C701 C703 1.419 . S
C701 H705 0.930 . S
C702 C701 1.369 . S
C702 C711 1.429 . S
C703 C701 1.419 . S
C703 C704 1.363 . S
C703 H706 0.929 . S
C704 C703 1.363 . S
C704 C710 1.428 . S
H705 C701 0.930 . S
H706 C703 0.929 . S
S707 N708 1.613 . S
S707 N709 1.610 . S
N708 S707 1.613 . S
N708 C711 1.350 . S
N709 S707 1.610 . S
N709 C710 1.351 . S
C710 C704 1.428 . S
C710 N709 1.351 . S
C710 C711 1.434 . S
C711 C702 1.429 . S
C711 N708 1.350 . S
C711 C710 1.434 . S
C712 C713 1.369 . S
C712 C714 1.419 . S
C712 H716 0.930 . S
C713 C712 1.369 . S
C713 C722 1.429 . S
C714 C712 1.419 . S
C714 C715 1.363 . S
C714 H717 0.929 . S
C715 C714 1.363 . S
C715 C721 1.428 . S
H716 C712 0.930 . S
H717 C714 0.929 . S
S718 N719 1.613 . S
S718 N720 1.610 . S
N719 S718 1.613 . S
N719 C722 1.350 . S
N720 S718 1.610 . S
N720 C721 1.351 . S
C721 C715 1.428 . S
C721 N720 1.351 . S
C721 C722 1.434 . S
C722 C713 1.429 . S
C722 N719 1.350 . S
C722 C721 1.434 . S
C723 C724 1.369 . S
C723 C725 1.419 . S
C723 H727 0.930 . S
C724 C723 1.369 . S
C724 C733 1.429 . S
C725 C723 1.419 . S
C725 C726 1.363 . S
C725 H728 0.929 . S
C726 C725 1.363 . S
C726 C732 1.428 . S
H727 C723 0.930 . S
H728 C725 0.929 . S
S729 N730 1.613 . S
S729 N731 1.610 . S
N730 S729 1.613 . S
N730 C733 1.350 . S
N731 S729 1.610 . S
N731 C732 1.351 . S
C732 C726 1.428 . S
C732 N731 1.351 . S
C732 C733 1.434 . S
C733 C724 1.429 . S
C733 N730 1.350 . S
C733 C732 1.434 . S
C734 C735 1.369 . S
C734 C736 1.419 . S
C734 H738 0.930 . S
C735 C734 1.369 . S
C735 C744 1.429 . S
C736 C734 1.419 . S
C736 C737 1.363 . S
C736 H739 0.929 . S
C737 C736 1.363 . S
C737 C743 1.428 . S
H738 C734 0.930 . S
H739 C736 0.929 . S
S740 N741 1.613 . S
S740 N742 1.610 . S
N741 S740 1.613 . S
N741 C744 1.350 . S
N742 S740 1.610 . S
N742 C743 1.351 . S
C743 C737 1.428 . S
C743 N742 1.351 . S
C743 C744 1.434 . S
C744 C735 1.429 . S
C744 N741 1.350 . S
C744 C743 1.434 . S
C745 C746 1.369 . S
C745 C747 1.419 . S
C745 H749 0.930 . S
C746 C745 1.369 . S
C746 C755 1.429 . S
C747 C745 1.419 . S
C747 C748 1.363 . S
C747 H750 0.929 . S
C748 C747 1.363 . S
C748 C754 1.428 . S
H749 C745 0.930 . S
H750 C747 0.929 . S
S751 N752 1.613 . S
S751 N753 1.610 . S
N752 S751 1.613 . S
N752 C755 1.350 . S
N753 S751 1.610 . S
N753 C754 1.351 . S
C754 C748 1.428 . S
C754 N753 1.351 . S
C754 C755 1.434 . S
C755 C746 1.429 . S
C755 N752 1.350 . S
C755 C754 1.434 . S
C756 C757 1.369 . S
C756 C758 1.419 . S
C756 H760 0.930 . S
C757 C756 1.369 . S
C757 C766 1.429 . S
C758 C756 1.419 . S
C758 C759 1.363 . S
C758 H761 0.929 . S
C759 C758 1.363 . S
C759 C765 1.428 . S
H760 C756 0.930 . S
H761 C758 0.929 . S
S762 N763 1.613 . S
S762 N764 1.610 . S
N763 S762 1.613 . S
N763 C766 1.350 . S
N764 S762 1.610 . S
N764 C765 1.351 . S
C765 C759 1.428 . S
C765 N764 1.351 . S
C765 C766 1.434 . S
C766 C757 1.429 . S
C766 N763 1.350 . S
C766 C765 1.434 . S
C767 C768 1.369 . S
C767 C769 1.419 . S
C767 H771 0.930 . S
C768 C767 1.369 . S
C768 C777 1.429 . S
C769 C767 1.419 . S
C769 C770 1.363 . S
C769 H772 0.929 . S
C770 C769 1.363 . S
C770 C776 1.428 . S
H771 C767 0.930 . S
H772 C769 0.929 . S
S773 N774 1.613 . S
S773 N775 1.610 . S
N774 S773 1.613 . S
N774 C777 1.350 . S
N775 S773 1.610 . S
N775 C776 1.351 . S
C776 C770 1.428 . S
C776 N775 1.351 . S
C776 C777 1.434 . S
C777 C768 1.429 . S
C777 N774 1.350 . S
C777 C776 1.434 . S
C778 C779 1.369 . S
C778 C780 1.419 . S
C778 H782 0.930 . S
C779 C778 1.369 . S
C779 C788 1.429 . S
C780 C778 1.419 . S
C780 C781 1.363 . S
C780 H783 0.929 . S
C781 C780 1.363 . S
C781 C787 1.428 . S
H782 C778 0.930 . S
H783 C780 0.929 . S
S784 N785 1.613 . S
S784 N786 1.610 . S
N785 S784 1.613 . S
N785 C788 1.350 . S
N786 S784 1.610 . S
N786 C787 1.351 . S
C787 C781 1.428 . S
C787 N786 1.351 . S
C787 C788 1.434 . S
C788 C779 1.429 . S
C788 N785 1.350 . S
C788 C787 1.434 . S
C789 C790 1.369 . S
C789 C791 1.419 . S
C789 H793 0.930 . S
C790 C789 1.369 . S
C790 C799 1.429 . S
C791 C789 1.419 . S
C791 C792 1.363 . S
C791 H794 0.929 . S
C792 C791 1.363 . S
C792 C798 1.428 . S
H793 C789 0.930 . S
H794 C791 0.929 . S
S795 N796 1.613 . S
S795 N797 1.610 . S
N796 S795 1.613 . S
N796 C799 1.350 . S
N797 S795 1.610 . S
N797 C798 1.351 . S
C798 C792 1.428 . S
C798 N797 1.351 . S
C798 C799 1.434 . S
C799 C790 1.429 . S
C799 N796 1.350 . S
C799 C798 1.434 . S
C800 C801 1.369 . S
C800 C802 1.419 . S
C800 H804 0.930 . S
C801 C800 1.369 . S
C801 C810 1.429 . S
C802 C800 1.419 . S
C802 C803 1.363 . S
C802 H805 0.929 . S
C803 C802 1.363 . S
C803 C809 1.428 . S
H804 C800 0.930 . S
H805 C802 0.929 . S
S806 N807 1.613 . S
S806 N808 1.610 . S
N807 S806 1.613 . S
N807 C810 1.350 . S
N808 S806 1.610 . S
N808 C809 1.351 . S
C809 C803 1.428 . S
C809 N808 1.351 . S
C809 C810 1.434 . S
C810 C801 1.429 . S
C810 N807 1.350 . S
C810 C809 1.434 . S
C811 C812 1.369 . S
C811 C813 1.419 . S
C811 H815 0.930 . S
C812 C811 1.369 . S
C812 C821 1.429 . S
C813 C811 1.419 . S
C813 C814 1.363 . S
C813 H816 0.929 . S
C814 C813 1.363 . S
C814 C820 1.428 . S
H815 C811 0.930 . S
H816 C813 0.929 . S
S817 N818 1.613 . S
S817 N819 1.610 . S
N818 S817 1.613 . S
N818 C821 1.350 . S
N819 S817 1.610 . S
N819 C820 1.351 . S
C820 C814 1.428 . S
C820 N819 1.351 . S
C820 C821 1.434 . S
C821 C812 1.429 . S
C821 N818 1.350 . S
C821 C820 1.434 . S
C822 C823 1.369 . S
C822 C824 1.419 . S
C822 H826 0.930 . S
C823 C822 1.369 . S
C823 C832 1.429 . S
C824 C822 1.419 . S
C824 C825 1.363 . S
C824 H827 0.929 . S
C825 C824 1.363 . S
C825 C831 1.428 . S
H826 C822 0.930 . S
H827 C824 0.929 . S
S828 N829 1.613 . S
S828 N830 1.610 . S
N829 S828 1.613 . S
N829 C832 1.350 . S
N830 S828 1.610 . S
N830 C831 1.351 . S
C831 C825 1.428 . S
C831 N830 1.351 . S
C831 C832 1.434 . S
C832 C823 1.429 . S
C832 N829 1.350 . S
C832 C831 1.434 . S
C833 C834 1.369 . S
C833 C835 1.419 . S
C833 H837 0.930 . S
C834 C833 1.369 . S
C834 C843 1.429 . S
C835 C833 1.419 . S
C835 C836 1.363 . S
C835 H838 0.929 . S
C836 C835 1.363 . S
C836 C842 1.428 . S
H837 C833 0.930 . S
H838 C835 0.929 . S
S839 N840 1.613 . S
S839 N841 1.610 . S
N840 S839 1.613 . S
N840 C843 1.350 . S
N841 S839 1.610 . S
N841 C842 1.351 . S
C842 C836 1.428 . S
C842 N841 1.351 . S
C842 C843 1.434 . S
C843 C834 1.429 . S
C843 N840 1.350 . S
C843 C842 1.434 . S
C844 C845 1.369 . S
C844 C846 1.419 . S
C844 H848 0.930 . S
C845 C844 1.369 . S
C845 C854 1.429 . S
C846 C844 1.419 . S
C846 C847 1.363 . S
C846 H849 0.929 . S
C847 C846 1.363 . S
C847 C853 1.428 . S
H848 C844 0.930 . S
H849 C846 0.929 . S
S850 N851 1.613 . S
S850 N852 1.610 . S
N851 S850 1.613 . S
N851 C854 1.350 . S
N852 S850 1.610 . S
N852 C853 1.351 . S
C853 C847 1.428 . S
C853 N852 1.351 . S
C853 C854 1.434 . S
C854 C845 1.429 . S
C854 N851 1.350 . S
C854 C853 1.434 . S
C855 C856 1.369 . S
C855 C857 1.419 . S
C855 H859 0.930 . S
C856 C855 1.369 . S
C856 C865 1.429 . S
C857 C855 1.419 . S
C857 C858 1.363 . S
C857 H860 0.929 . S
C858 C857 1.363 . S
C858 C864 1.428 . S
H859 C855 0.930 . S
H860 C857 0.929 . S
S861 N862 1.613 . S
S861 N863 1.610 . S
N862 S861 1.613 . S
N862 C865 1.350 . S
N863 S861 1.610 . S
N863 C864 1.351 . S
C864 C858 1.428 . S
C864 N863 1.351 . S
C864 C865 1.434 . S
C865 C856 1.429 . S
C865 N862 1.350 . S
C865 C864 1.434 . S
C866 C867 1.369 . S
C866 C868 1.419 . S
C866 H870 0.930 . S
C867 C866 1.369 . S
C867 C876 1.429 . S
C868 C866 1.419 . S
C868 C869 1.363 . S
C868 H871 0.929 . S
C869 C868 1.363 . S
C869 C875 1.428 . S
H870 C866 0.930 . S
H871 C868 0.929 . S
S872 N873 1.613 . S
S872 N874 1.610 . S
N873 S872 1.613 . S
N873 C876 1.350 . S
N874 S872 1.610 . S
N874 C875 1.351 . S
C875 C869 1.428 . S
C875 N874 1.351 . S
C875 C876 1.434 . S
C876 C867 1.429 . S
C876 N873 1.350 . S
C876 C875 1.434 . S
C877 C878 1.369 . S
C877 C879 1.419 . S
C877 H881 0.930 . S
C878 C877 1.369 . S
C878 C887 1.429 . S
C879 C877 1.419 . S
C879 C880 1.363 . S
C879 H882 0.929 . S
C880 C879 1.363 . S
C880 C886 1.428 . S
H881 C877 0.930 . S
H882 C879 0.929 . S
S883 N884 1.613 . S
S883 N885 1.610 . S
N884 S883 1.613 . S
N884 C887 1.350 . S
N885 S883 1.610 . S
N885 C886 1.351 . S
C886 C880 1.428 . S
C886 N885 1.351 . S
C886 C887 1.434 . S
C887 C878 1.429 . S
C887 N884 1.350 . S
C887 C886 1.434 . S
C888 C889 1.369 . S
C888 C890 1.419 . S
C888 H892 0.930 . S
C889 C888 1.369 . S
C889 C898 1.429 . S
C890 C888 1.419 . S
C890 C891 1.363 . S
C890 H893 0.929 . S
C891 C890 1.363 . S
C891 C897 1.428 . S
H892 C888 0.930 . S
H893 C890 0.929 . S
S894 N895 1.613 . S
S894 N896 1.610 . S
N895 S894 1.613 . S
N895 C898 1.350 . S
N896 S894 1.610 . S
N896 C897 1.351 . S
C897 C891 1.428 . S
C897 N896 1.351 . S
C897 C898 1.434 . S
C898 C889 1.429 . S
C898 N895 1.350 . S
C898 C897 1.434 . S
C899 C900 1.369 . S
C899 C901 1.419 . S
C899 H903 0.930 . S
C900 C899 1.369 . S
C900 C909 1.429 . S
C901 C899 1.419 . S
C901 C902 1.363 . S
C901 H904 0.929 . S
C902 C901 1.363 . S
C902 C908 1.428 . S
H903 C899 0.930 . S
H904 C901 0.929 . S
S905 N906 1.613 . S
S905 N907 1.610 . S
N906 S905 1.613 . S
N906 C909 1.350 . S
N907 S905 1.610 . S
N907 C908 1.351 . S
C908 C902 1.428 . S
C908 N907 1.351 . S
C908 C909 1.434 . S
C909 C900 1.429 . S
C909 N906 1.350 . S
C909 C908 1.434 . S
C910 C911 1.369 . S
C910 C912 1.419 . S
C910 H914 0.930 . S
C911 C910 1.369 . S
C911 C920 1.429 . S
C912 C910 1.419 . S
C912 C913 1.363 . S
C912 H915 0.929 . S
C913 C912 1.363 . S
C913 C919 1.428 . S
H914 C910 0.930 . S
H915 C912 0.929 . S
S916 N917 1.613 . S
S916 N918 1.610 . S
N917 S916 1.613 . S
N917 C920 1.350 . S
N918 S916 1.610 . S
N918 C919 1.351 . S
C919 C913 1.428 . S
C919 N918 1.351 . S
C919 C920 1.434 . S
C920 C911 1.429 . S
C920 N917 1.350 . S
C920 C919 1.434 . S
C921 C922 1.369 . S
C921 C923 1.419 . S
C921 H925 0.930 . S
C922 C921 1.369 . S
C922 C931 1.429 . S
C923 C921 1.419 . S
C923 C924 1.363 . S
C923 H926 0.929 . S
C924 C923 1.363 . S
C924 C930 1.428 . S
H925 C921 0.930 . S
H926 C923 0.929 . S
S927 N928 1.613 . S
S927 N929 1.610 . S
N928 S927 1.613 . S
N928 C931 1.350 . S
N929 S927 1.610 . S
N929 C930 1.351 . S
C930 C924 1.428 . S
C930 N929 1.351 . S
C930 C931 1.434 . S
C931 C922 1.429 . S
C931 N928 1.350 . S
C931 C930 1.434 . S
C932 C933 1.369 . S
C932 C934 1.419 . S
C932 H936 0.930 . S
C933 C932 1.369 . S
C933 C942 1.429 . S
C934 C932 1.419 . S
C934 C935 1.363 . S
C934 H937 0.929 . S
C935 C934 1.363 . S
C935 C941 1.428 . S
H936 C932 0.930 . S
H937 C934 0.929 . S
S938 N939 1.613 . S
S938 N940 1.610 . S
N939 S938 1.613 . S
N939 C942 1.350 . S
N940 S938 1.610 . S
N940 C941 1.351 . S
C941 C935 1.428 . S
C941 N940 1.351 . S
C941 C942 1.434 . S
C942 C933 1.429 . S
C942 N939 1.350 . S
C942 C941 1.434 . S
C943 C944 1.369 . S
C943 C945 1.419 . S
C943 H947 0.930 . S
C944 C943 1.369 . S
C944 C953 1.429 . S
C945 C943 1.419 . S
C945 C946 1.363 . S
C945 H948 0.929 . S
C946 C945 1.363 . S
C946 C952 1.428 . S
H947 C943 0.930 . S
H948 C945 0.929 . S
S949 N950 1.613 . S
S949 N951 1.610 . S
N950 S949 1.613 . S
N950 C953 1.350 . S
N951 S949 1.610 . S
N951 C952 1.351 . S
C952 C946 1.428 . S
C952 N951 1.351 . S
C952 C953 1.434 . S
C953 C944 1.429 . S
C953 N950 1.350 . S
C953 C952 1.434 . S
C954 C955 1.369 . S
C954 C956 1.419 . S
C954 H958 0.930 . S
C955 C954 1.369 . S
C955 C964 1.429 . S
C956 C954 1.419 . S
C956 C957 1.363 . S
C956 H959 0.929 . S
C957 C956 1.363 . S
C957 C963 1.428 . S
H958 C954 0.930 . S
H959 C956 0.929 . S
S960 N961 1.613 . S
S960 N962 1.610 1_556 S
N961 S960 1.613 . S
N961 C964 1.350 1_556 S
N962 S960 1.610 1_554 S
N962 C963 1.351 . S
C963 C957 1.428 . S
C963 N962 1.351 . S
C963 C964 1.434 . S
C964 C955 1.429 . S
C964 N961 1.350 1_554 S
C964 C963 1.434 . S
C965 C966 1.369 . S
C965 C967 1.419 . S
C965 H969 0.930 . S
C966 C965 1.369 . S
C966 C975 1.429 . S
C967 C965 1.419 . S
C967 C968 1.363 . S
C967 H970 0.929 . S
C968 C967 1.363 . S
C968 C974 1.428 . S
H969 C965 0.930 . S
H970 C967 0.929 . S
S971 N972 1.613 . S
S971 N973 1.610 . S
N972 S971 1.613 . S
N972 C975 1.350 . S
N973 S971 1.610 . S
N973 C974 1.351 . S
C974 C968 1.428 . S
C974 N973 1.351 . S
C974 C975 1.434 . S
C975 C966 1.429 . S
C975 N972 1.350 . S
C975 C974 1.434 . S
C976 C977 1.369 . S
C976 C978 1.419 . S
C976 H980 0.930 . S
C977 C976 1.369 . S
C977 C986 1.429 . S
C978 C976 1.419 . S
C978 C979 1.363 . S
C978 H981 0.929 . S
C979 C978 1.363 . S
C979 C985 1.428 . S
H980 C976 0.930 . S
H981 C978 0.929 . S
S982 N983 1.613 . S
S982 N984 1.610 1_556 S
N983 S982 1.613 . S
N983 C986 1.350 1_556 S
N984 S982 1.610 1_554 S
N984 C985 1.351 . S
C985 C979 1.428 . S
C985 N984 1.351 . S
C985 C986 1.434 . S
C986 C977 1.429 . S
C986 N983 1.350 1_554 S
C986 C985 1.434 . S
C987 C988 1.379 . S
C987 C989 1.427 . S
C987 H991 0.911 1_556 S
C988 C987 1.379 . S
C988 C997 1.429 . S
C989 C987 1.427 . S
C989 C990 1.363 . S
C989 H992 0.929 . S
C990 C989 1.363 . S
C990 C996 1.428 . S
H991 C987 0.911 1_554 S
H992 C989 0.929 . S
S993 N994 1.613 . S
S993 N995 1.610 . S
N994 S993 1.613 . S
N994 C997 1.350 . S
N995 S993 1.610 . S
N995 C996 1.351 . S
C996 C990 1.428 . S
C996 N995 1.351 . S
C996 C997 1.434 . S
C997 C988 1.429 . S
C997 N994 1.350 . S
C997 C996 1.434 . S
C998 C999 1.369 . S
C998 C1000 1.419 . S
C998 H1002 0.930 . S
C999 C998 1.369 . S
C999 C1008 1.429 1_556 S
C1000 C998 1.419 . S
C1000 C1001 1.363 . S
C1000 H1003 0.929 . S
C1001 C1000 1.363 . S
C1001 C1007 1.428 . S
H1002 C998 0.930 . S
H1003 C1000 0.929 . S
S1004 N1005 1.613 . S
S1004 N1006 1.610 . S
N1005 S1004 1.613 . S
N1005 C1008 1.350 . S
N1006 S1004 1.610 . S
N1006 C1007 1.351 1_554 S
C1007 C1001 1.428 . S
C1007 N1006 1.351 1_556 S
C1007 C1008 1.434 1_556 S
C1008 C999 1.429 1_554 S
C1008 N1005 1.350 . S
C1008 C1007 1.434 1_554 S
C1009 C1010 1.369 . S
C1009 C1011 1.419 . S
C1009 H1013 0.930 . S
C1010 C1009 1.369 . S
C1010 C1019 1.429 . S
C1011 C1009 1.419 . S
C1011 C1012 1.363 . S
C1011 H1014 0.929 . S
C1012 C1011 1.363 . S
C1012 C1018 1.428 . S
H1013 C1009 0.930 . S
H1014 C1011 0.929 . S
S1015 N1016 1.613 . S
S1015 N1017 1.608 . S
N1016 S1015 1.613 . S
N1016 C1019 1.350 1_554 S
N1017 S1015 1.608 . S
N1017 C1018 1.353 1_554 S
C1018 C1012 1.428 . S
C1018 N1017 1.353 1_556 S
C1018 C1019 1.434 . S
C1019 C1010 1.429 . S
C1019 N1016 1.350 1_556 S
C1019 C1018 1.434 . S
C1020 C1021 1.369 . S
C1020 C1022 1.419 . S
C1020 H1024 0.930 . S
C1021 C1020 1.369 . S
C1021 C1030 1.429 . S
C1022 C1020 1.419 . S
C1022 C1023 1.363 . S
C1022 H1025 0.929 . S
C1023 C1022 1.363 . S
C1023 C1029 1.428 . S
H1024 C1020 0.930 . S
H1025 C1022 0.929 . S
S1026 N1027 1.613 . S
S1026 N1028 1.610 . S
N1027 S1026 1.613 . S
N1027 C1030 1.350 . S
N1028 S1026 1.610 . S
N1028 C1029 1.351 . S
C1029 C1023 1.428 . S
C1029 N1028 1.351 . S
C1029 C1030 1.434 . S
C1030 C1021 1.429 . S
C1030 N1027 1.350 . S
C1030 C1029 1.434 . S
C1031 C1032 1.369 . S
C1031 C1033 1.419 . S
C1031 H1035 0.930 . S
C1032 C1031 1.369 . S
C1032 C1041 1.427 1_556 S
C1033 C1031 1.419 . S
C1033 C1034 1.363 . S
C1033 H1036 0.929 . S
C1034 C1033 1.363 . S
C1034 C1040 1.428 . S
H1035 C1031 0.930 . S
H1036 C1033 0.929 . S
S1037 N1038 1.613 . S
S1037 N1039 1.610 . S
N1038 S1037 1.613 . S
N1038 C1041 1.352 . S
N1039 S1037 1.610 . S
N1039 C1040 1.351 1_554 S
C1040 C1034 1.428 . S
C1040 N1039 1.351 1_556 S
C1040 C1041 1.433 1_556 S
C1041 C1032 1.427 1_554 S
C1041 N1038 1.352 . S
C1041 C1040 1.433 1_554 S
C1042 C1043 1.354 1_554 S
C1042 C1044 1.409 1_554 S
C1042 H1046 0.956 . S
C1043 C1042 1.354 1_556 S
C1043 C1052 1.429 . S
C1044 C1042 1.409 1_556 S
C1044 C1045 1.363 . S
C1044 H1047 0.929 1_556 S
C1045 C1044 1.363 . S
C1045 C1051 1.428 . S
H1046 C1042 0.956 . S
H1047 C1044 0.929 1_554 S
S1048 N1049 1.613 . S
S1048 N1050 1.610 . S
N1049 S1048 1.613 . S
N1049 C1052 1.350 . S
N1050 S1048 1.610 . S
N1050 C1051 1.351 . S
C1051 C1045 1.428 . S
C1051 N1050 1.351 . S
C1051 C1052 1.434 . S
C1052 C1043 1.429 . S
C1052 N1049 1.350 . S
C1052 C1051 1.434 . S
C1053 C1054 1.369 . S
C1053 C1055 1.419 . S
C1053 H1057 0.930 . S
C1054 C1053 1.369 . S
C1054 C1063 1.429 . S
C1055 C1053 1.419 . S
C1055 C1056 1.363 . S
C1055 H1058 0.929 . S
C1056 C1055 1.363 . S
C1056 C1062 1.428 . S
H1057 C1053 0.930 . S
H1058 C1055 0.929 . S
S1059 N1060 1.613 . S
S1059 N1061 1.610 . S
N1060 S1059 1.613 . S
N1060 C1063 1.350 . S
N1061 S1059 1.610 . S
N1061 C1062 1.351 . S
C1062 C1056 1.428 . S
C1062 N1061 1.351 . S
C1062 C1063 1.434 . S
C1063 C1054 1.429 . S
C1063 N1060 1.350 . S
C1063 C1062 1.434 . S
C1064 C1065 1.369 . S
C1064 C1066 1.419 . S
C1064 H1068 0.930 . S
C1065 C1064 1.369 . S
C1065 C1074 1.429 . S
C1066 C1064 1.419 . S
C1066 C1067 1.363 . S
C1066 H1069 0.929 . S
C1067 C1066 1.363 . S
C1067 C1073 1.428 . S
H1068 C1064 0.930 . S
H1069 C1066 0.929 . S
S1070 N1071 1.613 . S
S1070 N1072 1.610 . S
N1071 S1070 1.613 . S
N1071 C1074 1.350 . S
N1072 S1070 1.610 . S
N1072 C1073 1.351 . S
C1073 C1067 1.428 . S
C1073 N1072 1.351 . S
C1073 C1074 1.434 . S
C1074 C1065 1.429 . S
C1074 N1071 1.350 . S
C1074 C1073 1.434 . S
C1075 C1076 1.369 . S
C1075 C1077 1.419 . S
C1075 H1079 0.930 . S
C1076 C1075 1.369 . S
C1076 C1085 1.429 . S
C1077 C1075 1.419 . S
C1077 C1078 1.363 . S
C1077 H1080 0.929 . S
C1078 C1077 1.363 . S
C1078 C1084 1.428 . S
H1079 C1075 0.930 . S
H1080 C1077 0.929 . S
S1081 N1082 1.613 . S
S1081 N1083 1.610 . S
N1082 S1081 1.613 . S
N1082 C1085 1.350 . S
N1083 S1081 1.610 . S
N1083 C1084 1.351 . S
C1084 C1078 1.428 . S
C1084 N1083 1.351 . S
C1084 C1085 1.434 . S
C1085 C1076 1.429 . S
C1085 N1082 1.350 . S
C1085 C1084 1.434 . S
C1086 C1087 1.369 . S
C1086 C1088 1.419 . S
C1086 H1090 0.930 . S
C1087 C1086 1.369 . S
C1087 C1096 1.429 . S
C1088 C1086 1.419 . S
C1088 C1089 1.363 . S
C1088 H1091 0.929 . S
C1089 C1088 1.363 . S
C1089 C1095 1.428 . S
H1090 C1086 0.930 . S
H1091 C1088 0.929 . S
S1092 N1093 1.613 . S
S1092 N1094 1.610 . S
N1093 S1092 1.613 . S
N1093 C1096 1.350 . S
N1094 S1092 1.610 . S
N1094 C1095 1.351 . S
C1095 C1089 1.428 . S
C1095 N1094 1.351 . S
C1095 C1096 1.434 . S
C1096 C1087 1.429 . S
C1096 N1093 1.350 . S
C1096 C1095 1.434 . S
C1097 C1098 1.369 . S
C1097 C1099 1.419 . S
C1097 H1101 0.930 . S
C1098 C1097 1.369 . S
C1098 C1107 1.429 . S
C1099 C1097 1.419 . S
C1099 C1100 1.363 . S
C1099 H1102 0.929 . S
C1100 C1099 1.363 . S
C1100 C1106 1.428 . S
H1101 C1097 0.930 . S
H1102 C1099 0.929 . S
S1103 N1104 1.613 . S
S1103 N1105 1.610 . S
N1104 S1103 1.613 . S
N1104 C1107 1.350 . S
N1105 S1103 1.610 . S
N1105 C1106 1.351 . S
C1106 C1100 1.428 . S
C1106 N1105 1.351 . S
C1106 C1107 1.434 . S
C1107 C1098 1.429 . S
C1107 N1104 1.350 . S
C1107 C1106 1.434 . S
C1108 C1109 1.369 . S
C1108 C1110 1.419 . S
C1108 H1112 0.930 . S
C1109 C1108 1.369 . S
C1109 C1118 1.429 . S
C1110 C1108 1.419 . S
C1110 C1111 1.363 . S
C1110 H1113 0.929 . S
C1111 C1110 1.363 . S
C1111 C1117 1.428 . S
H1112 C1108 0.930 . S
H1113 C1110 0.929 . S
S1114 N1115 1.613 . S
S1114 N1116 1.610 . S
N1115 S1114 1.613 . S
N1115 C1118 1.350 . S
N1116 S1114 1.610 . S
N1116 C1117 1.351 . S
C1117 C1111 1.428 . S
C1117 N1116 1.351 . S
C1117 C1118 1.434 . S
C1118 C1109 1.429 . S
C1118 N1115 1.350 . S
C1118 C1117 1.434 . S
C1119 C1120 1.369 . S
C1119 C1121 1.419 . S
C1119 H1123 0.930 . S
C1120 C1119 1.369 . S
C1120 C1129 1.429 1_455 S
C1121 C1119 1.419 . S
C1121 C1122 1.363 . S
C1121 H1124 0.929 . S
C1122 C1121 1.363 . S
C1122 C1128 1.428 1_455 S
H1123 C1119 0.930 . S
H1124 C1121 0.929 . S
S1125 N1126 1.613 . S
S1125 N1127 1.610 . S
N1126 S1125 1.613 . S
N1126 C1129 1.350 . S
N1127 S1125 1.610 . S
N1127 C1128 1.351 . S
C1128 C1122 1.428 1_655 S
C1128 N1127 1.351 . S
C1128 C1129 1.434 . S
C1129 C1120 1.429 1_655 S
C1129 N1126 1.350 . S
C1129 C1128 1.434 . S
C1130 C1131 1.369 . S
C1130 C1132 1.419 . S
C1130 H1134 0.930 . S
C1131 C1130 1.369 . S
C1131 C1140 1.429 . S
C1132 C1130 1.419 . S
C1132 C1133 1.363 . S
C1132 H1135 0.929 . S
C1133 C1132 1.363 . S
C1133 C1139 1.428 . S
H1134 C1130 0.930 . S
H1135 C1132 0.929 . S
S1136 N1137 1.613 . S
S1136 N1138 1.610 . S
N1137 S1136 1.613 . S
N1137 C1140 1.350 . S
N1138 S1136 1.610 . S
N1138 C1139 1.351 . S
C1139 C1133 1.428 . S
C1139 N1138 1.351 . S
C1139 C1140 1.434 . S
C1140 C1131 1.429 . S
C1140 N1137 1.350 . S
C1140 C1139 1.434 . S
C1141 C1142 1.369 . S
C1141 C1143 1.419 . S
C1141 H1145 0.930 . S
C1142 C1141 1.369 . S
C1142 C1151 1.429 1_565 S
C1143 C1141 1.419 . S
C1143 C1144 1.363 . S
C1143 H1146 0.929 . S
C1144 C1143 1.363 . S
C1144 C1150 1.428 1_565 S
H1145 C1141 0.930 . S
H1146 C1143 0.929 . S
S1147 N1148 1.613 . S
S1147 N1149 1.610 . S
N1148 S1147 1.613 . S
N1148 C1151 1.350 . S
N1149 S1147 1.610 . S
N1149 C1150 1.351 . S
C1150 C1144 1.428 1_545 S
C1150 N1149 1.351 . S
C1150 C1151 1.434 . S
C1151 C1142 1.429 1_545 S
C1151 N1148 1.350 . S
C1151 C1150 1.434 . S
C1152 C1153 1.369 1_545 S
C1152 C1154 1.419 . S
C1152 H1156 0.930 . S
C1153 C1152 1.369 1_565 S
C1153 C1162 1.429 . S
C1154 C1152 1.419 . S
C1154 C1155 1.363 1_545 S
C1154 H1157 0.929 . S
C1155 C1154 1.363 1_565 S
C1155 C1161 1.428 . S
H1156 C1152 0.930 . S
H1157 C1154 0.929 . S
S1158 N1159 1.613 . S
S1158 N1160 1.610 . S
N1159 S1158 1.613 . S
N1159 C1162 1.350 . S
N1160 S1158 1.610 . S
N1160 C1161 1.351 . S
C1161 C1155 1.428 . S
C1161 N1160 1.351 . S
C1161 C1162 1.434 . S
C1162 C1153 1.429 . S
C1162 N1159 1.350 . S
C1162 C1161 1.434 . S
C1163 C1164 1.369 1_655 S
C1163 C1165 1.419 . S
C1163 H1167 0.930 . S
C1164 C1163 1.369 1_455 S
C1164 C1173 1.429 . S
C1165 C1163 1.419 . S
C1165 C1166 1.329 1_655 S
C1165 H1168 0.929 . S
C1166 C1165 1.329 1_455 S
C1166 C1172 1.446 . S
H1167 C1163 0.930 . S
H1168 C1165 0.929 . S
S1169 N1170 1.613 . S
S1169 N1171 1.610 . S
N1170 S1169 1.613 . S
N1170 C1173 1.350 . S
N1171 S1169 1.610 . S
N1171 C1172 1.351 . S
C1172 C1166 1.446 . S
C1172 N1171 1.351 . S
C1172 C1173 1.434 . S
C1173 C1164 1.429 . S
C1173 N1170 1.350 . S
C1173 C1172 1.434 . S
C1174 C1175 1.369 . S
C1174 C1176 1.419 . S
C1174 H1178 0.930 . S
C1175 C1174 1.369 . S
C1175 C1184 1.429 . S
C1176 C1174 1.419 . S
C1176 C1177 1.363 . S
C1176 H1179 0.929 . S
C1177 C1176 1.363 . S
C1177 C1183 1.428 . S
H1178 C1174 0.930 . S
H1179 C1176 0.929 . S
S1180 N1181 1.613 . S
S1180 N1182 1.610 . S
N1181 S1180 1.613 . S
N1181 C1184 1.350 . S
N1182 S1180 1.610 . S
N1182 C1183 1.351 . S
C1183 C1177 1.428 . S
C1183 N1182 1.351 . S
C1183 C1184 1.434 . S
C1184 C1175 1.429 . S
C1184 N1181 1.350 . S
C1184 C1183 1.434 . S
C1185 C1186 1.369 . S
C1185 C1187 1.419 . S
C1185 H1189 0.930 . S
C1186 C1185 1.369 . S
C1186 C1195 1.429 . S
C1187 C1185 1.419 . S
C1187 C1188 1.363 . S
C1187 H1190 0.929 . S
C1188 C1187 1.363 . S
C1188 C1194 1.428 . S
H1189 C1185 0.930 . S
H1190 C1187 0.929 . S
S1191 N1192 1.613 . S
S1191 N1193 1.610 . S
N1192 S1191 1.613 . S
N1192 C1195 1.350 . S
N1193 S1191 1.610 . S
N1193 C1194 1.351 . S
C1194 C1188 1.428 . S
C1194 N1193 1.351 . S
C1194 C1195 1.434 . S
C1195 C1186 1.429 . S
C1195 N1192 1.350 . S
C1195 C1194 1.434 . S
C1196 C1197 1.369 . S
C1196 C1198 1.419 . S
C1196 H1200 0.930 . S
C1197 C1196 1.369 . S
C1197 C1206 1.429 . S
C1198 C1196 1.419 . S
C1198 C1199 1.363 . S
C1198 H1201 0.929 . S
C1199 C1198 1.363 . S
C1199 C1205 1.428 . S
H1200 C1196 0.930 . S
H1201 C1198 0.929 . S
S1202 N1203 1.613 . S
S1202 N1204 1.610 . S
N1203 S1202 1.613 . S
N1203 C1206 1.350 . S
N1204 S1202 1.610 . S
N1204 C1205 1.351 . S
C1205 C1199 1.428 . S
C1205 N1204 1.351 . S
C1205 C1206 1.434 . S
C1206 C1197 1.429 . S
C1206 N1203 1.350 . S
C1206 C1205 1.434 . S
C1207 C1208 1.369 . S
C1207 C1209 1.419 . S
C1207 H1211 0.930 . S
C1208 C1207 1.369 . S
C1208 C1217 1.429 . S
C1209 C1207 1.419 . S
C1209 C1210 1.363 . S
C1209 H1212 0.929 . S
C1210 C1209 1.363 . S
C1210 C1216 1.428 . S
H1211 C1207 0.930 . S
H1212 C1209 0.929 . S
S1213 N1214 1.613 . S
S1213 N1215 1.610 . S
N1214 S1213 1.613 . S
N1214 C1217 1.350 . S
N1215 S1213 1.610 . S
N1215 C1216 1.351 . S
C1216 C1210 1.428 . S
C1216 N1215 1.351 . S
C1216 C1217 1.434 . S
C1217 C1208 1.429 . S
C1217 N1214 1.350 . S
C1217 C1216 1.434 . S
C1218 C1219 1.369 . S
C1218 C1220 1.419 . S
C1218 H1222 0.930 . S
C1219 C1218 1.369 . S
C1219 C1228 1.429 1_545 S
C1220 C1218 1.419 . S
C1220 C1221 1.363 . S
C1220 H1223 0.929 . S
C1221 C1220 1.363 . S
C1221 C1227 1.428 1_545 S
H1222 C1218 0.930 . S
H1223 C1220 0.929 . S
S1224 N1225 1.613 . S
S1224 N1226 1.610 . S
N1225 S1224 1.613 . S
N1225 C1228 1.350 . S
N1226 S1224 1.610 . S
N1226 C1227 1.351 . S
C1227 C1221 1.428 1_565 S
C1227 N1226 1.351 . S
C1227 C1228 1.434 . S
C1228 C1219 1.429 1_565 S
C1228 N1225 1.350 . S
C1228 C1227 1.434 . S
C1229 C1230 1.369 . S
C1229 C1231 1.418 . S
C1229 H1233 0.930 1_655 S
C1230 C1229 1.369 . S
C1230 C1239 1.429 . S
C1231 C1229 1.418 . S
C1231 C1232 1.363 . S
C1231 H1234 0.929 1_655 S
C1232 C1231 1.363 . S
C1232 C1238 1.428 . S
H1233 C1229 0.930 1_455 S
H1234 C1231 0.929 1_455 S
S1235 N1236 1.613 . S
S1235 N1237 1.610 . S
N1236 S1235 1.613 . S
N1236 C1239 1.350 . S
N1237 S1235 1.610 . S
N1237 C1238 1.351 . S
C1238 C1232 1.428 . S
C1238 N1237 1.351 . S
C1238 C1239 1.434 . S
C1239 C1230 1.429 . S
C1239 N1236 1.350 . S
C1239 C1238 1.434 . S
C1240 C1241 1.369 . S
C1240 C1242 1.419 . S
C1240 H1244 0.930 . S
C1241 C1240 1.369 . S
C1241 C1250 1.429 . S
C1242 C1240 1.419 . S
C1242 C1243 1.363 . S
C1242 H1245 0.929 . S
C1243 C1242 1.363 . S
C1243 C1249 1.428 . S
H1244 C1240 0.930 . S
H1245 C1242 0.929 . S
S1246 N1247 1.613 . S
S1246 N1248 1.610 . S
N1247 S1246 1.613 . S
N1247 C1250 1.350 . S
N1248 S1246 1.610 . S
N1248 C1249 1.351 . S
C1249 C1243 1.428 . S
C1249 N1248 1.351 . S
C1249 C1250 1.434 . S
C1250 C1241 1.429 . S
C1250 N1247 1.350 . S
C1250 C1249 1.434 . S
C1251 C1252 1.369 . S
C1251 C1253 1.419 . S
C1251 H1255 0.930 . S
C1252 C1251 1.369 . S
C1252 C1261 1.429 . S
C1253 C1251 1.419 . S
C1253 C1254 1.363 . S
C1253 H1256 0.929 . S
C1254 C1253 1.363 . S
C1254 C1260 1.428 . S
H1255 C1251 0.930 . S
H1256 C1253 0.929 . S
S1257 N1258 1.613 . S
S1257 N1259 1.610 . S
N1258 S1257 1.613 . S
N1258 C1261 1.350 . S
N1259 S1257 1.610 . S
N1259 C1260 1.351 . S
C1260 C1254 1.428 . S
C1260 N1259 1.351 . S
C1260 C1261 1.434 . S
C1261 C1252 1.429 . S
C1261 N1258 1.350 . S
C1261 C1260 1.434 . S
C1262 C1263 1.369 . S
C1262 C1264 1.419 . S
C1262 H1266 0.930 . S
C1263 C1262 1.369 . S
C1263 C1272 1.429 . S
C1264 C1262 1.419 . S
C1264 C1265 1.363 . S
C1264 H1267 0.929 . S
C1265 C1264 1.363 . S
C1265 C1271 1.428 . S
H1266 C1262 0.930 . S
H1267 C1264 0.929 . S
S1268 N1269 1.613 . S
S1268 N1270 1.610 . S
N1269 S1268 1.613 . S
N1269 C1272 1.350 . S
N1270 S1268 1.610 . S
N1270 C1271 1.351 . S
C1271 C1265 1.428 . S
C1271 N1270 1.351 . S
C1271 C1272 1.434 . S
C1272 C1263 1.429 . S
C1272 N1269 1.350 . S
C1272 C1271 1.434 . S
C1273 C1274 1.369 . S
C1273 C1275 1.419 . S
C1273 H1277 0.930 . S
C1274 C1273 1.369 . S
C1274 C1283 1.429 . S
C1275 C1273 1.419 . S
C1275 C1276 1.363 . S
C1275 H1278 0.929 . S
C1276 C1275 1.363 . S
C1276 C1282 1.428 . S
H1277 C1273 0.930 . S
H1278 C1275 0.929 . S
S1279 N1280 1.613 . S
S1279 N1281 1.610 . S
N1280 S1279 1.613 . S
N1280 C1283 1.350 . S
N1281 S1279 1.610 . S
N1281 C1282 1.351 . S
C1282 C1276 1.428 . S
C1282 N1281 1.351 . S
C1282 C1283 1.434 . S
C1283 C1274 1.429 . S
C1283 N1280 1.350 . S
C1283 C1282 1.434 . S
C1284 C1285 1.369 . S
C1284 C1286 1.419 . S
C1284 H1288 0.930 . S
C1285 C1284 1.369 . S
C1285 C1294 1.429 . S
C1286 C1284 1.419 . S
C1286 C1287 1.363 . S
C1286 H1289 0.929 . S
C1287 C1286 1.363 . S
C1287 C1293 1.428 . S
H1288 C1284 0.930 . S
H1289 C1286 0.929 . S
S1290 N1291 1.613 . S
S1290 N1292 1.610 . S
N1291 S1290 1.613 . S
N1291 C1294 1.350 . S
N1292 S1290 1.610 . S
N1292 C1293 1.351 . S
C1293 C1287 1.428 . S
C1293 N1292 1.351 . S
C1293 C1294 1.434 . S
C1294 C1285 1.429 . S
C1294 N1291 1.350 . S
C1294 C1293 1.434 . S
C1295 C1296 1.369 . S
C1295 C1297 1.419 . S
C1295 H1299 0.930 . S
C1296 C1295 1.369 . S
C1296 C1305 1.429 . S
C1297 C1295 1.419 . S
C1297 C1298 1.363 . S
C1297 H1300 0.929 . S
C1298 C1297 1.363 . S
C1298 C1304 1.428 . S
H1299 C1295 0.930 . S
H1300 C1297 0.929 . S
S1301 N1302 1.613 . S
S1301 N1303 1.610 . S
N1302 S1301 1.613 . S
N1302 C1305 1.350 . S
N1303 S1301 1.610 . S
N1303 C1304 1.351 . S
C1304 C1298 1.428 . S
C1304 N1303 1.351 . S
C1304 C1305 1.434 . S
C1305 C1296 1.429 . S
C1305 N1302 1.350 . S
C1305 C1304 1.434 . S
C1306 C1307 1.369 . S
C1306 C1308 1.419 . S
C1306 H1310 0.930 . S
C1307 C1306 1.369 . S
C1307 C1316 1.429 . S
C1308 C1306 1.419 . S
C1308 C1309 1.363 . S
C1308 H1311 0.929 . S
C1309 C1308 1.363 . S
C1309 C1315 1.428 . S
H1310 C1306 0.930 . S
H1311 C1308 0.929 . S
S1312 N1313 1.613 . S
S1312 N1314 1.610 . S
N1313 S1312 1.613 . S
N1313 C1316 1.350 . S
N1314 S1312 1.610 . S
N1314 C1315 1.351 . S
C1315 C1309 1.428 . S
C1315 N1314 1.351 . S
C1315 C1316 1.434 . S
C1316 C1307 1.429 . S
C1316 N1313 1.350 . S
C1316 C1315 1.434 . S
C1317 C1318 1.369 . S
C1317 C1319 1.419 . S
C1317 H1321 0.930 . S
C1318 C1317 1.369 . S
C1318 C1327 1.429 1_655 S
C1319 C1317 1.419 . S
C1319 C1320 1.363 . S
C1319 H1322 0.929 . S
C1320 C1319 1.363 . S
C1320 C1326 1.428 1_655 S
H1321 C1317 0.930 . S
H1322 C1319 0.929 . S
S1323 N1324 1.613 . S
S1323 N1325 1.610 . S
N1324 S1323 1.613 . S
N1324 C1327 1.350 . S
N1325 S1323 1.610 . S
N1325 C1326 1.351 . S
C1326 C1320 1.428 1_455 S
C1326 N1325 1.351 . S
C1326 C1327 1.434 . S
C1327 C1318 1.429 1_455 S
C1327 N1324 1.350 . S
C1327 C1326 1.434 . S
C1328 C1329 1.369 . S
C1328 C1330 1.419 . S
C1328 H1332 0.930 . S
C1329 C1328 1.369 . S
C1329 C1338 1.429 . S
C1330 C1328 1.419 . S
C1330 C1331 1.363 . S
C1330 H1333 0.929 . S
C1331 C1330 1.363 . S
C1331 C1337 1.428 . S
H1332 C1328 0.930 . S
H1333 C1330 0.929 . S
S1334 N1335 1.613 . S
S1334 N1336 1.610 . S
N1335 S1334 1.613 . S
N1335 C1338 1.350 . S
N1336 S1334 1.610 . S
N1336 C1337 1.351 . S
C1337 C1331 1.428 . S
C1337 N1336 1.351 . S
C1337 C1338 1.434 . S
C1338 C1329 1.429 . S
C1338 N1335 1.350 . S
C1338 C1337 1.434 . S
C1339 C1340 1.369 1_565 S
C1339 C1341 1.419 . S
C1339 H1343 0.930 . S
C1340 C1339 1.369 1_545 S
C1340 C1349 1.429 . S
C1341 C1339 1.419 . S
C1341 C1342 1.363 1_565 S
C1341 H1344 0.929 . S
C1342 C1341 1.363 1_545 S
C1342 C1348 1.428 . S
H1343 C1339 0.930 . S
H1344 C1341 0.929 . S
S1345 N1346 1.613 . S
S1345 N1347 1.610 . S
N1346 S1345 1.613 . S
N1346 C1349 1.350 . S
N1347 S1345 1.610 . S
N1347 C1348 1.351 . S
C1348 C1342 1.428 . S
C1348 N1347 1.351 . S
C1348 C1349 1.434 . S
C1349 C1340 1.429 . S
C1349 N1346 1.350 . S
C1349 C1348 1.434 . S
C559 C8 1.503 . S
C561 C403 1.552 . S
C570 C18 1.523 . S
C572 C428 1.548 . S
C583 C439 1.550 . S
C581 C31 1.517 . S
C592 C34 1.513 . S
C594 C464 1.566 . S
C603 C5 1.523 . S
C605 C482 1.562 . S
C614 C21 1.516 . S
C616 C493 1.560 . S
C625 C47 1.492 . S
C627 C475 1.569 1_455 S
C638 C500 1.547 . S
C636 C57 1.499 . S
C649 C457 1.559 1_565 S
C647 C70 1.509 . S
C658 C73 1.495 . S
C660 C446 1.568 1_545 S
C671 C410 1.556 1_655 S
C669 C44 1.503 . S
C680 C60 1.506 . S
C682 C421 1.554 . S
C691 C86 1.544 . S
C693 C511 1.588 . S
C702 C96 1.548 . S
C704 C536 1.561 . S
C715 C547 1.582 . S
C713 C109 1.596 . S
C724 C112 1.570 . S
C726 C248 1.611 . S
C735 C83 1.586 . S
C737 C266 1.592 . S
C746 C99 1.545 . S
C748 C277 1.578 . S
C757 C125 1.507 . S
C759 C259 1.556 . S
C768 C135 1.517 . S
C770 C284 1.556 . S
C781 C241 1.568 . S
C779 C148 1.542 . S
C792 C554 1.596 . S
C790 C151 1.554 . S
C803 C518 1.561 . S
C801 C122 1.543 . S
C814 C529 1.581 . S
C812 C138 1.525 . S
C823 C164 1.532 . S
C825 C295 1.565 . S
C834 C174 1.543 . S
C836 C320 1.563 . S
C845 C187 1.588 . S
C847 C331 1.576 . S
C856 C190 1.594 . S
C858 C356 1.624 . S
C869 C374 1.589 . S
C867 C161 1.592 . S
C880 C385 1.588 . S
C878 C177 1.559 . S
C891 C367 1.579 . S
C889 C203 1.530 . S
C902 C392 1.554 . S
C900 C213 1.526 . S
C911 C226 1.545 . S
C913 C349 1.566 . S
C924 C338 1.580 . S
C922 C229 1.528 . S
C933 C200 1.539 . S
C935 C302 1.572 . S
C946 C313 1.574 . S
C944 C216 1.531 . S
C957 C250 1.372 . S
C955 C0 1.374 . S
C966 C23 1.390 . S
C968 C268 1.312 . S
C979 C278 1.367 . S
C977 C36 1.442 . S
C990 C296 1.377 . S
C988 C26 1.399 . S
C1001 C322 1.338 . S
C999 C10 1.415 . S
C1012 C332 1.329 . S
C1010 C13 1.356 . S
C1021 C39 1.407 . S
C1023 C340 1.381 . S
C1032 C62 1.431 . S
C1034 C304 1.322 . S
C1043 C75 1.468 . S
C1045 C314 1.374 . S
C1054 C65 1.445 . S
C1056 C260 1.422 . S
C1067 C286 1.338 . S
C1065 C49 1.460 . S
C1076 C52 1.401 . S
C1078 C242 1.363 . S
C1089 C358 1.354 . S
C1087 C78 1.386 . S
C1098 C101 1.432 . S
C1100 C376 1.357 . S
C1109 C114 1.452 . S
C1111 C386 1.372 . S
C1122 C404 1.315 . S
C1120 C104 1.363 . S
C1131 C88 1.400 . S
C1133 C430 1.325 . S
C1142 C91 1.323 . S
C1144 C440 1.277 . S
C1153 C117 1.354 . S
C1155 C448 1.292 . S
C1164 C140 1.375 . S
C1166 C412 1.297 . S
C1177 C422 1.359 . S
C1175 C153 1.454 . S
C1186 C143 1.419 . S
C1188 C368 1.389 . S
C1197 C127 1.483 . S
C1199 C394 1.367 . S
C1210 C350 1.386 . S
C1208 C130 1.433 . S
C1221 C466 1.298 . S
C1219 C156 1.350 . S
C1230 C179 1.352 . S
C1232 C484 1.286 . S
C1241 C192 1.420 . S
C1243 C494 1.341 . S
C1254 C512 1.348 . S
C1252 C182 1.390 . S
C1265 C538 1.358 . S
C1263 C166 1.445 . S
C1274 C169 1.396 . S
C1276 C548 1.360 . S
C1285 C195 1.417 . S
C1287 C556 1.371 . S
C1296 C218 1.473 . S
C1298 C520 1.362 . S
C1309 C530 1.382 . S
C1307 C231 1.478 . S
C1320 C476 1.327 1_655 S
C1318 C221 1.363 . S
C1331 C502 1.332 . S
C1329 C205 1.440 . S
C1340 C208 1.339 . S
C1342 C458 1.291 1_545 S
