# Generated by pormake.
# Topology zzz, (3,6)-cn, num edge types: 1
# Building blocks:
#     Node 0, Type 0, BuildingBlock: QEWDON_clean_linker_0, # of connection points: 3
#     Node 1, Type 0, BuildingBlock: QEWDON_clean_linker_0, # of connection points: 3
#     Node 2, Type 0, BuildingBlock: QEWDON_clean_linker_0, # of connection points: 3
#     Node 3, Type 0, BuildingBlock: QEWDON_clean_linker_0, # of connection points: 3
#     Node 4, Type 0, BuildingBlock: QEWDON_clean_linker_0, # of connection points: 3
#     Node 5, Type 0, BuildingBlock: QEWDON_clean_linker_0, # of connection points: 3
#     Node 6, Type 0, BuildingBlock: QEWDON_clean_linker_0, # of connection points: 3
#     Node 7, Type 0, BuildingBlock: QEWDON_clean_linker_0, # of connection points: 3
#     Node 8, Type 1, BuildingBlock: PAMTUU_clean_sbu_0, # of connection points: 6
#     Node 9, Type 1, BuildingBlock: PAMTUU_clean_sbu_0, # of connection points: 6
#     Node 10, Type 1, BuildingBlock: PAMTUU_clean_sbu_0, # of connection points: 6
#     Node 11, Type 1, BuildingBlock: PAMTUU_clean_sbu_0, # of connection points: 6
#     Edge 12, Type (0, 1), BuildingBlock: XIVTED_clean_linker_0, # of connection points: 2
#     Edge 13, Type (0, 1), BuildingBlock: XIVTED_clean_linker_0, # of connection points: 2
#     Edge 14, Type (0, 1), BuildingBlock: XIVTED_clean_linker_0, # of connection points: 2
#     Edge 15, Type (0, 1), BuildingBlock: XIVTED_clean_linker_0, # of connection points: 2
#     Edge 16, Type (0, 1), BuildingBlock: XIVTED_clean_linker_0, # of connection points: 2
#     Edge 17, Type (0, 1), BuildingBlock: XIVTED_clean_linker_0, # of connection points: 2
#     Edge 18, Type (0, 1), BuildingBlock: XIVTED_clean_linker_0, # of connection points: 2
#     Edge 19, Type (0, 1), BuildingBlock: XIVTED_clean_linker_0, # of connection points: 2
#     Edge 20, Type (0, 1), BuildingBlock: XIVTED_clean_linker_0, # of connection points: 2
#     Edge 21, Type (0, 1), BuildingBlock: XIVTED_clean_linker_0, # of connection points: 2
#     Edge 22, Type (0, 1), BuildingBlock: XIVTED_clean_linker_0, # of connection points: 2
#     Edge 23, Type (0, 1), BuildingBlock: XIVTED_clean_linker_0, # of connection points: 2
#     Edge 24, Type (0, 1), BuildingBlock: XIVTED_clean_linker_0, # of connection points: 2
#     Edge 25, Type (0, 1), BuildingBlock: XIVTED_clean_linker_0, # of connection points: 2
#     Edge 26, Type (0, 1), BuildingBlock: XIVTED_clean_linker_0, # of connection points: 2
#     Edge 27, Type (0, 1), BuildingBlock: XIVTED_clean_linker_0, # of connection points: 2
#     Edge 28, Type (0, 1), BuildingBlock: XIVTED_clean_linker_0, # of connection points: 2
#     Edge 29, Type (0, 1), BuildingBlock: XIVTED_clean_linker_0, # of connection points: 2
#     Edge 30, Type (0, 1), BuildingBlock: XIVTED_clean_linker_0, # of connection points: 2
#     Edge 31, Type (0, 1), BuildingBlock: XIVTED_clean_linker_0, # of connection points: 2
#     Edge 32, Type (0, 1), BuildingBlock: XIVTED_clean_linker_0, # of connection points: 2
#     Edge 33, Type (0, 1), BuildingBlock: XIVTED_clean_linker_0, # of connection points: 2
#     Edge 34, Type (0, 1), BuildingBlock: XIVTED_clean_linker_0, # of connection points: 2
#     Edge 35, Type (0, 1), BuildingBlock: XIVTED_clean_linker_0, # of connection points: 2
# Relax obj value: 0.135
# Max RMSD: 0.205
# Mean RMSD: 0.080
data_MOF--net-zzz--node1-PAMTUU_clean_sbu_0--node2-QEWDON_clean_linker_0--edge1-XIVTED_clean_linker_0
_symmetry_space_group_name_H-M    P1
_symmetry_Int_Tables_number       1
_symmetry_cell_setting            triclinic
loop_
_symmetry_equiv_pos_as_xyz
'x, y, z'
_cell_length_a     54.477879
_cell_length_b     58.129259
_cell_length_c     15.218489
_cell_angle_alpha  100.88114
_cell_angle_beta   90.237298
_cell_angle_gamma 91.301111
loop_
_atom_site_label
_atom_site_type_symbol
_atom_site_fract_x
_atom_site_fract_y
_atom_site_fract_z
_atom_type_partial_charge
H0 H 0.77052 0.48447 0.30365 0.0
C1 C 0.78224 0.48731 0.36248 0.0
C2 C 0.80201 0.47236 0.36436 0.0
C3 C 0.77849 0.50646 0.43292 0.0
H4 H 0.83452 0.4659 0.43576 0.0
C5 C 0.8184 0.47658 0.43716 0.0
C6 C 0.81598 0.49588 0.50672 0.0
C7 C 0.79575 0.51057 0.50512 0.0
C8 C 0.7578 0.52294 0.42686 0.0
H9 H 0.79377 0.52518 0.5601 0.0
C10 C 0.73595 0.5155 0.37679 0.0
C11 C 0.71726 0.53147 0.36811 0.0
C12 C 0.76022 0.54673 0.46802 0.0
H13 H 0.77675 0.55365 0.50395 0.0
C14 C 0.74159 0.56238 0.46125 0.0
H15 H 0.73317 0.49733 0.34521 0.0
C16 C 0.72035 0.55489 0.41185 0.0
H17 H 0.70659 0.56768 0.4059 0.0
H18 H 0.74386 0.5806 0.49316 0.0
H19 H 1.01224 0.75045 0.28141 0.0
C20 C 1.01472 0.76334 0.34245 0.0
C21 C 0.02993 0.78306 0.34168 0.0
C22 C 1.00196 0.76085 0.42083 0.0
H23 H 0.04258 0.81629 0.41545 0.0
C24 C 0.03211 0.80039 0.41878 0.0
C25 C 1.01902 0.79875 0.49639 0.0
C26 C 1.00417 0.77876 0.49751 0.0
C27 C 0.98515 0.74032 0.42068 0.0
H28 H 0.99415 0.77733 0.55765 0.0
C29 C 0.99172 0.71778 0.37681 0.0
C30 C 0.97523 0.69862 0.37189 0.0
C31 C 0.96203 0.74326 0.46166 0.0
H32 H 0.95622 0.76039 0.49481 0.0
C33 C 0.94578 0.72418 0.458 0.0
H34 H 1.00945 0.7152 0.34488 0.0
C35 C 0.95222 0.702 0.4128 0.0
H36 H 0.93923 0.68747 0.40976 0.0
H37 H 0.92797 0.72666 0.48924 0.0
H38 H 0.79482 0.04449 0.37681 0.0
C39 C 0.78058 0.038 0.41567 0.0
C40 C 0.75805 0.04936 0.42319 0.0
C41 C 0.78475 0.01908 0.4598 0.0
H42 H 0.72202 0.05098 0.48147 0.0
C43 C 0.7395 0.04225 0.47628 0.0
C44 C 0.74258 0.02336 0.51943 0.0
C45 C 0.76498 0.01145 0.50964 0.0
C46 C 0.80989 0.00838 0.45791 0.0
H47 H 0.76681 0.99649 0.54178 0.0
C48 C 0.8274 0.01005 0.38955 0.0
C49 C 0.8516 1.00183 0.39449 0.0
C50 C 0.81726 0.99757 0.52894 0.0
H51 H 0.80532 0.99652 0.58463 0.0
C52 C 0.84063 0.9885 0.53166 0.0
H53 H 0.82263 0.01808 0.33348 0.0
C54 C 0.85763 0.99064 0.46557 0.0
H55 H 0.87569 0.98354 0.47049 0.0
H56 H 0.84578 0.98016 0.58663 0.0
H57 H 0.53138 0.74643 0.04443 0.0
C58 C 0.53319 0.74269 0.11125 0.0
C59 C 0.52284 0.72174 0.13068 0.0
C60 C 0.54775 0.75773 0.17596 0.0
H61 H 0.5196 0.69986 0.22958 0.0
C62 C 0.52645 0.7165 0.21586 0.0
C63 C 0.54209 0.7302 0.27853 0.0
C64 C 0.55268 0.75088 0.25869 0.0
C65 C 0.56223 0.77762 0.15119 0.0
H66 H 0.56561 0.76106 0.30572 0.0
C67 C 0.55139 0.7983 0.13346 0.0
C68 C 0.56647 0.81721 0.11627 0.0
C69 C 0.58788 0.77584 0.1481 0.0
H70 H 0.59658 0.76018 0.16074 0.0
C71 C 0.60261 0.79408 0.12878 0.0
H72 H 0.53164 0.8 0.13639 0.0
C73 C 0.59208 0.81458 0.11349 0.0
H74 H 0.60409 0.82851 0.09919 0.0
H75 H 0.62236 0.7924 0.12639 0.0
H76 H 0.29102 0.48688 0.36513 0.0
C77 C 0.27891 0.4874 0.30907 0.0
C78 C 0.25687 0.47437 0.30336 0.0
C79 C 0.2843 0.50239 0.24852 0.0
H80 H 0.22227 0.46704 0.23417 0.0
C81 C 0.24 0.47596 0.23511 0.0
C82 C 0.24411 0.49104 0.17477 0.0
C83 C 0.26646 0.50417 0.18122 0.0
C84 C 0.30731 0.51763 0.26299 0.0
H85 H 0.26967 0.51571 0.1342 0.0
C86 C 0.32829 0.51102 0.30779 0.0
C87 C 0.3487 0.52652 0.33069 0.0
C88 C 0.30784 0.53983 0.23865 0.0
H89 H 0.29221 0.54612 0.20693 0.0
C90 C 0.32826 0.55487 0.25836 0.0
H91 H 0.32894 0.49383 0.32509 0.0
C92 C 0.34837 0.54844 0.30445 0.0
H93 H 0.36343 0.56099 0.32165 0.0
H94 H 0.32821 0.57197 0.23986 0.0
H95 H 1.01913 0.26628 0.37458 0.0
C96 C 0.03003 0.25288 0.33479 0.0
C97 C 0.03081 0.23076 0.35843 0.0
C98 C 0.04271 0.25728 0.2585 0.0
H99 H 0.04324 0.19552 0.32228 0.0
C100 C 0.04378 0.21288 0.30564 0.0
C101 C 0.05556 0.21647 0.22787 0.0
C102 C 0.05533 0.23874 0.20514 0.0
C103 C 0.04249 0.28091 0.2334 0.0
H104 H 0.06497 0.24141 0.14568 0.0
C105 C 0.04215 0.30146 0.29968 0.0
C106 C 0.0429 0.32388 0.27664 0.0
C107 C 0.043 0.28314 0.14291 0.0
H108 H 0.04242 0.26788 0.08969 0.0
C109 C 0.04412 0.30518 0.1195 0.0
H110 H 0.04133 0.29994 0.3693 0.0
C111 C 0.04432 0.32538 0.18551 0.0
H112 H 0.04575 0.34215 0.16464 0.0
H113 H 0.04486 0.30662 0.04966 0.0
H114 H 0.26604 0.97471 0.34011 0.0
C115 C 0.28063 0.9816 0.30373 0.0
C116 C 0.30382 0.97165 0.30284 0.0
C117 C 0.27623 0.99979 0.25641 0.0
H118 H 0.34102 0.9725 0.25644 0.0
C119 C 0.32294 0.97991 0.25511 0.0
C120 C 0.31953 0.99811 0.20841 0.0
C121 C 0.29607 0.008 0.20862 0.0
C122 C 0.25082 0.00945 0.25485 0.0
H123 H 0.29361 0.02238 0.17369 0.0
C124 C 0.23419 0.00997 0.32728 0.0
C125 C 0.2099 0.01794 0.32225 0.0
C126 C 0.24254 0.01725 0.17807 0.0
H127 H 0.25416 0.01657 0.12019 0.0
C128 C 0.21879 0.02533 0.17314 0.0
H129 H 0.24012 1.00453 0.38802 0.0
C130 C 0.20261 0.0256 0.24397 0.0
H131 H 0.1841 0.03137 0.23629 0.0
H132 H 0.21271 0.03106 0.11313 0.0
H133 H 0.54835 0.26642 0.61778 0.0
C134 C 0.53655 0.27214 0.56904 0.0
C135 C 0.53018 0.29592 0.58052 0.0
C136 C 0.52905 0.25625 0.49059 0.0
H137 H 0.51185 0.32202 0.52361 0.0
C138 C 0.51586 0.30351 0.51575 0.0
C139 C 0.50955 0.28864 0.43576 0.0
C140 C 0.51587 0.26496 0.42344 0.0
C141 C 0.5382 0.23167 0.47055 0.0
H142 H 0.51133 0.25357 0.36025 0.0
C143 C 0.53648 0.2159 0.53161 0.0
C144 C 0.54505 0.1926 0.50711 0.0
C145 C 0.5489 0.22388 0.38657 0.0
H146 H 0.55107 0.23553 0.33917 0.0
C147 C 0.557 0.20111 0.3621 0.0
H148 H 0.52853 0.22166 0.59695 0.0
C149 C 0.55493 0.1856 0.42102 0.0
H150 H 0.56097 0.16786 0.39827 0.0
H151 H 0.56489 0.19538 0.29666 0.0
Tb152 Tb 1.01305 0.01734 0.7873 0.0
Tb153 Tb 0.04946 1.00025 0.9321 0.0
C154 C 0.99355 0.0089 0.97146 0.0
C155 C 0.98489 0.05692 0.65917 0.0
C156 C 0.9839 0.10354 0.63142 0.0
C157 C 0.96231 0.08945 0.62248 0.0
C158 C 0.96283 0.06634 0.63633 0.0
C159 C 1.00645 0.07083 0.6679 0.0
C160 C 1.006 0.09383 0.65364 0.0
C161 C 0.98495 0.03363 0.68338 0.0
O162 O 1.02453 0.04871 0.88144 0.0
O163 O 0.05959 0.03701 0.94434 0.0
O164 O 0.06876 0.99633 0.80411 0.0
O165 O 0.05016 0.02493 0.74591 0.0
O166 O 0.05804 0.99514 0.06198 0.0
O167 O 0.08179 0.98278 0.9515 0.0
O168 O 1.0257 0.97066 0.87729 0.0
O169 O 1.01829 0.97998 0.74032 0.0
O170 O 0.98957 1.00465 0.88468 0.0
O171 O 1.01605 0.01277 0.00364 0.0
C172 C 0.04532 0.05346 0.92616 0.0
O173 O 1.00363 0.02055 0.65606 0.0
O174 O 0.9801 0.03365 0.76707 0.0
C175 C 0.06889 0.0113 0.74922 0.0
C176 C 0.07502 0.95759 0.05182 0.0
C177 C 0.07278 0.90976 0.06509 0.0
C178 C 0.09556 0.92135 0.05974 0.0
C179 C 0.09665 0.94505 0.05329 0.0
C180 C 0.05227 0.94615 0.05735 0.0
C181 C 0.05117 0.92257 0.06458 0.0
C182 C 0.0762 0.98157 0.03341 0.0
C183 C 1.01972 0.96448 0.79269 0.0
H184 H 0.94493 0.0964 0.60636 0.0
H185 H 0.94592 0.05597 0.63102 0.0
H186 H 1.02363 0.06402 0.68697 0.0
H187 H 1.02308 0.10392 0.6594 0.0
H188 H 0.11257 0.91203 0.05884 0.0
H189 H 0.11436 0.95344 0.04717 0.0
H190 H 0.03526 0.95531 0.05469 0.0
H191 H 0.03331 0.91446 0.07042 0.0
Tb192 Tb 0.52134 0.99622 0.77313 0.0
Tb193 Tb 0.54159 0.02672 0.96119 0.0
C194 C 0.5336 0.97163 0.93359 0.0
C195 C 0.48125 0.95668 0.61799 0.0
C196 C 0.43495 0.93394 0.58985 0.0
C197 C 0.44405 0.94179 0.67722 0.0
C198 C 0.46701 0.95312 0.69117 0.0
C199 C 0.47299 0.94766 0.53099 0.0
C200 C 0.45003 0.93634 0.51691 0.0
C201 C 0.50351 0.97156 0.63247 0.0
O202 O 0.48859 0.0097 0.84791 0.0
O203 O 0.50429 0.0166 0.99083 0.0
O204 O 0.52717 0.05159 0.88331 0.0
O205 O 0.53287 0.03018 0.74339 0.0
O206 O 0.56479 0.03005 0.07329 0.0
O207 O 0.54081 0.0579 0.05736 0.0
O208 O 0.5723 0.02617 0.86934 0.0
O209 O 0.5614 0.99332 0.76663 0.0
O210 O 0.51813 0.97273 0.86842 0.0
O211 O 0.54758 0.98989 0.96833 0.0
C212 C 0.48544 0.01359 0.93528 0.0
O213 O 0.49964 0.99389 0.65751 0.0
O214 O 0.52067 0.9645 0.68038 0.0
C215 C 0.52995 0.05046 0.79695 0.0
C216 C 0.5802 0.06816 0.11855 0.0
C217 C 0.62618 0.09149 0.14831 0.0
C218 C 0.61187 0.08716 0.22071 0.0
C219 C 0.58911 0.07553 0.2058 0.0
C220 C 0.59342 0.07399 0.04651 0.0
C221 C 0.61624 0.08561 0.06127 0.0
C222 C 0.55912 0.05176 0.10234 0.0
C223 C 0.57794 0.00921 0.80292 0.0
H224 H 0.43298 0.94009 0.73471 0.0
H225 H 0.4732 0.95999 0.759 0.0
H226 H 0.48376 0.95035 0.47391 0.0
H227 H 0.44348 0.9309 0.44871 0.0
H228 H 0.61902 0.09108 0.28852 0.0
H229 H 0.57917 0.07105 0.26203 0.0
H230 H 0.58672 0.06844 0.97852 0.0
H231 H 0.62666 0.08887 0.00422 0.0
Tb232 Tb 0.51141 0.50371 0.92778 0.0
Tb233 Tb 0.54921 0.51487 0.77041 0.0
C234 C 0.49201 0.5097 0.73715 0.0
C235 C 0.48791 0.46898 0.0883 0.0
C236 C 0.49067 0.42586 0.14973 0.0
C237 C 0.47007 0.44025 0.16864 0.0
C238 C 0.46862 0.46143 0.13742 0.0
C239 C 0.50884 0.45526 0.07241 0.0
C240 C 0.51009 0.43388 0.10143 0.0
C241 C 0.48534 0.48967 0.0457 0.0
O242 O 0.53194 0.47236 0.8818 0.0
O243 O 0.54431 0.4766 0.74142 0.0
O244 O 0.57248 0.5045 0.87232 0.0
O245 O 0.54687 0.51554 0.99118 0.0
O246 O 0.55795 0.51442 0.63548 0.0
O247 O 0.58159 0.53234 0.74179 0.0
O248 O 0.54131 0.54762 0.85978 0.0
O249 O 0.50414 0.5401 0.92067 0.0
O250 O 0.48968 0.4983 0.80369 0.0
O251 O 0.51245 0.52105 0.72521 0.0
C252 C 0.53945 0.46341 0.80116 0.0
O253 O 0.50234 0.50605 0.06386 0.0
O254 O 0.4806 0.48471 0.96031 0.0
C255 C 0.56888 0.51028 0.95897 0.0
C256 C 0.5747 0.55166 0.62196 0.0
C257 C 0.5726 0.59605 0.57033 0.0
C258 C 0.59524 0.58507 0.57593 0.0
C259 C 0.59625 0.56314 0.60142 0.0
C260 C 0.55209 0.56247 0.61631 0.0
C261 C 0.55103 0.58427 0.59029 0.0
C262 C 0.57602 0.52963 0.65707 0.0
C263 C 0.52044 0.55482 0.89702 0.0
H264 H 0.45493 0.4352 0.2073 0.0
H265 H 0.45225 0.47173 0.15045 0.0
H266 H 0.52404 0.46077 0.03513 0.0
H267 H 0.52612 0.42342 0.08344 0.0
H268 H 0.61231 0.59362 0.56256 0.0
H269 H 0.61393 0.55534 0.60682 0.0
H270 H 0.53519 0.55418 0.63309 0.0
H271 H 0.5332 0.5918 0.58542 0.0
Tb272 Tb 0.03793 0.52286 0.79385 0.0
Tb273 Tb 1.01936 0.49266 0.94197 0.0
C274 C 1.01928 0.54739 0.97809 0.0
C275 C 0.07938 0.5309 0.62565 0.0
C276 C 0.12101 0.50304 0.58318 0.0
C277 C 0.12344 0.52595 0.63363 0.0
C278 C 0.10281 0.53968 0.6551 0.0
C279 C 0.0774 0.50914 0.56673 0.0
C280 C 0.09783 0.49519 0.54728 0.0
C281 C 0.05735 0.54077 0.67383 0.0
O282 O 0.06869 0.52365 0.88731 0.0
O283 O 0.0594 0.49028 0.94054 0.0
O284 O 1.01597 0.46966 0.81279 0.0
O285 O 0.04736 0.48654 0.74762 0.0
O286 O 0.99933 0.49042 0.05765 0.0
O287 O 1.02101 0.46155 0.99264 0.0
O288 O 0.98495 0.50074 0.88067 0.0
O289 O 0.99888 0.51741 0.76318 0.0
O290 O 1.01827 0.54709 0.89189 0.0
O291 O 1.02598 0.52893 0.00985 0.0
C292 C 0.07536 0.50651 0.92674 0.0
O293 O 0.03759 0.52742 0.66043 0.0
O294 O 0.06066 0.54943 0.75884 0.0
C295 C 0.03259 0.46866 0.75062 0.0
C296 C 0.98233 0.45278 0.04679 0.0
C297 C 0.93605 0.43011 0.04328 0.0
C298 C 0.94634 0.43494 0.96399 0.0
C299 C 0.96927 0.44627 0.96582 0.0
C300 C 0.97296 0.44662 0.12473 0.0
C301 C 0.95002 0.43533 0.12306 0.0
C302 C 1.00408 0.46829 0.05159 0.0
C303 C 0.98098 0.50946 0.80807 0.0
H304 H 0.14115 0.53309 0.65914 0.0
H305 H 0.10499 0.55648 0.69984 0.0
H306 H 0.0597 0.50195 0.5413 0.0
H307 H 0.09502 0.47777 0.50793 0.0
H308 H 0.93618 0.43101 0.90143 0.0
H309 H 0.97625 0.45097 0.90485 0.0
H310 H 0.98277 0.45165 0.18778 0.0
H311 H 0.94254 0.43224 0.18574 0.0
H312 H 0.20204 0.98475 0.42892 0.0
H313 H 0.07815 0.04326 0.64078 0.0
H314 H 0.17551 0.05097 0.38396 0.0
H315 H 0.10914 0.98282 0.72203 0.0
H316 H 0.11354 0.04561 0.5445 0.0
H317 H 0.16878 0.98338 0.53664 0.0
C318 C 0.18948 0.99914 0.4423 0.0
C319 C 0.19158 0.01788 0.39596 0.0
C320 C 0.11269 0.03183 0.58343 0.0
C321 C 0.15306 0.01621 0.51855 0.0
C322 C 0.09236 0.03043 0.63842 0.0
C323 C 0.09048 0.01277 0.68985 0.0
C324 C 0.13142 0.01538 0.57872 0.0
C325 C 0.10969 0.99674 0.68378 0.0
C326 C 0.17034 0.99826 0.50345 0.0
C327 C 0.17446 0.03588 0.41608 0.0
N328 N 0.12924 0.99836 0.62914 0.0
N329 N 0.15597 0.0345 0.47493 0.0
H330 H 0.57991 0.16102 0.53048 0.0
H331 H 0.5094 0.09312 0.8642 0.0
H332 H 0.50774 0.18307 0.62125 0.0
H333 H 0.55345 0.05838 0.64634 0.0
H334 H 0.51277 0.12948 0.80311 0.0
H335 H 0.57543 0.12728 0.60325 0.0
C336 C 0.56309 0.15891 0.56614 0.0
C337 C 0.5439 0.1748 0.56731 0.0
C338 C 0.5216 0.11384 0.7688 0.0
C339 C 0.53898 0.13602 0.65347 0.0
C340 C 0.51976 0.0931 0.80361 0.0
C341 C 0.53107 0.07255 0.76014 0.0
C342 C 0.53548 0.11425 0.69151 0.0
C343 C 0.54425 0.07364 0.68183 0.0
C344 C 0.5606 0.13955 0.60775 0.0
C345 C 0.52299 0.17133 0.61788 0.0
N346 N 0.54631 0.09412 0.65081 0.0
N347 N 0.52102 0.15226 0.65861 0.0
H348 H 0.34803 0.50385 0.47507 0.0
H349 H 0.49147 0.52896 0.58608 0.0
H350 H 0.39795 0.53602 0.31216 0.0
H351 H 0.44445 0.49215 0.74362 0.0
H352 H 0.4572 0.53088 0.48467 0.0
H353 H 0.3827 0.49805 0.57153 0.0
C354 C 0.36628 0.50943 0.4587 0.0
C355 C 0.36989 0.52063 0.38526 0.0
C356 C 0.4543 0.5223 0.54119 0.0
C357 C 0.40976 0.51433 0.49678 0.0
C358 C 0.47394 0.52122 0.59957 0.0
C359 C 0.47099 0.5104 0.6742 0.0
C360 C 0.43123 0.51261 0.55697 0.0
C361 C 0.44769 0.50067 0.68722 0.0
C362 C 0.38607 0.50626 0.51437 0.0
C363 C 0.39403 0.5277 0.36861 0.0
N364 N 0.42872 0.50209 0.62953 0.0
N365 N 0.41287 0.52455 0.42388 0.0
H366 H 1.02273 0.36632 0.26455 0.0
H367 H 1.02517 0.42345 0.7722 0.0
H368 H 0.06063 0.33147 0.45103 0.0
H369 H 0.04468 0.46504 0.57538 0.0
H370 H 0.02873 0.3878 0.65687 0.0
H371 H 1.02165 0.40164 0.37975 0.0
C372 C 0.03104 0.36597 0.32896 0.0
C373 C 0.04194 0.3456 0.347 0.0
C374 C 0.03228 0.40479 0.63947 0.0
C375 C 0.03956 0.38589 0.48032 0.0
C376 C 0.03015 0.42504 0.70471 0.0
C377 C 0.03476 0.44711 0.68289 0.0
C378 C 0.03824 0.40681 0.55165 0.0
C379 C 0.04121 0.44831 0.59476 0.0
C380 C 0.03018 0.38616 0.39482 0.0
C381 C 0.05155 0.34636 0.43365 0.0
N382 N 0.04246 0.42842 0.53181 0.0
N383 N 0.04991 0.3661 0.49734 0.0
H384 H 0.84871 0.99607 0.20919 0.0
H385 H 0.99405 0.01758 0.15564 0.0
H386 H 0.89961 0.01556 0.42993 0.0
H387 H 0.94441 1.0005 0.92986 0.0
H388 H 0.95918 0.0175 0.25611 0.0
H389 H 0.88268 0.99876 0.10503 0.0
C390 C 0.86691 1.00112 0.23589 0.0
C391 C 0.87123 1.00529 0.32878 0.0
C392 C 0.95584 0.0138 0.18459 0.0
C393 C 0.91034 0.00822 0.20976 0.0
C394 C 0.97584 0.01382 0.12696 0.0
C395 C 0.97233 0.00901 0.03372 0.0
C396 C 0.93195 0.00887 0.14934 0.0
C397 C 0.94813 1.00429 0.00112 0.0
C398 C 0.88636 1.00251 0.17633 0.0
C399 C 0.89535 0.01168 0.35906 0.0
N400 N 0.92895 1.00429 0.05862 0.0
N401 N 0.91384 0.01282 0.30011 0.0
H402 H 0.58054 0.86088 0.20335 0.0
H403 H 0.50934 0.92948 0.87206 0.0
H404 H 0.53093 0.82608 0.99679 0.0
H405 H 0.56238 0.96197 0.0712 0.0
H406 H 0.51401 0.89233 0.92357 0.0
H407 H 0.57057 0.89852 0.16482 0.0
C408 C 0.56723 0.86121 0.15051 0.0
C409 C 0.55665 0.8402 0.10304 0.0
C410 C 0.52454 0.9076 0.9563 0.0
C411 C 0.54531 0.88358 0.0572 0.0
C412 C 0.5219 0.92891 0.92693 0.0
C413 C 0.53556 0.94907 0.96696 0.0
C414 C 0.54093 0.90626 0.0266 0.0
C415 C 0.55149 0.94703 0.03785 0.0
C416 C 0.56162 0.88276 0.12821 0.0
C417 C 0.53944 0.8418 0.0355 0.0
N418 N 0.55376 0.9261 0.06502 0.0
N419 N 0.5345 0.86305 0.01398 0.0
H420 H 0.71418 0.50475 0.19815 0.0
H421 H 0.56992 0.5254 0.14155 0.0
H422 H 0.66928 0.54263 0.4069 0.0
H423 H 0.61668 0.49761 0.92043 0.0
H424 H 0.60529 0.52802 0.24276 0.0
H425 H 0.67787 0.49772 0.09959 0.0
C426 C 0.69664 0.51127 0.22378 0.0
C427 C 0.69488 0.52442 0.31097 0.0
C428 C 0.60783 0.52129 0.17213 0.0
C429 C 0.6532 0.51664 0.19803 0.0
C430 C 0.58758 0.51977 0.11409 0.0
C431 C 0.59021 0.51138 0.02183 0.0
C432 C 0.63102 0.51427 0.13825 0.0
C433 C 0.61368 0.50431 0.99078 0.0
C434 C 0.67594 0.50744 0.16718 0.0
C435 C 0.67163 0.53265 0.33996 0.0
N436 N 0.63311 0.50593 0.04866 0.0
N437 N 0.65183 0.5287 0.2838 0.0
H438 H 1.0166 0.67353 0.38568 0.0
H439 H 0.98888 0.58091 0.94267 0.0
H440 H 0.94829 0.67119 0.23977 0.0
H441 H 0.03392 0.56306 0.15279 0.0
H442 H 0.97767 0.61701 0.04274 0.0
H443 H 0.02712 0.63557 0.29357 0.0
C444 C 1.00384 0.66496 0.3344 0.0
C445 C 0.98155 0.67537 0.32008 0.0
C446 C 0.98994 0.60516 0.06706 0.0
C447 C 0.99353 0.63247 0.21453 0.0
C448 C 0.99647 0.58464 0.00991 0.0
C449 C 1.0124 0.56902 0.03956 0.0
C450 C 0.99976 0.6104 0.15403 0.0
C451 C 1.02152 0.57463 0.12758 0.0
C452 C 1.00977 0.64335 0.28241 0.0
C453 C 0.96556 0.66362 0.2532 0.0
N454 N 1.01526 0.59505 0.18171 0.0
N455 N 0.97198 0.6429 0.20223 0.0
H456 H 0.04682 0.22833 0.52544 0.0
H457 H 0.95741 0.12084 0.50515 0.0
H458 H 0.98322 0.21628 0.35277 0.0
H459 H 1.00997 0.14218 0.71991 0.0
H460 H 0.9617 0.15944 0.46599 0.0
H461 H 0.02891 0.20211 0.61737 0.0
C462 C 0.0285 0.22103 0.5097 0.0
C463 C 1.01634 0.22444 0.43211 0.0
C464 C 0.972 0.15585 0.52268 0.0
C465 C 0.99634 0.19348 0.53329 0.0
C466 C 0.96951 0.13374 0.5453 0.0
C467 C 0.98376 0.12797 0.61476 0.0
C468 C 0.98914 0.17224 0.56889 0.0
C469 C 0.99923 0.14552 0.66387 0.0
C470 C 1.01838 0.2058 0.56134 0.0
C471 C 0.99297 0.21416 0.41277 0.0
N472 N 1.00183 0.16669 0.63898 0.0
N473 N 0.98397 0.19864 0.46171 0.0
H474 H 0.29868 0.97594 0.48306 0.0
H475 H 0.41467 0.89906 0.46048 0.0
H476 H 0.32323 0.92849 0.2493 0.0
H477 H 0.3951 0.95342 0.68173 0.0
H478 H 0.3722 0.8972 0.40688 0.0
H479 H 0.32315 0.95516 0.5769 0.0
C480 C 0.30838 0.96048 0.45189 0.0
C481 C 0.3096 0.95423 0.35854 0.0
C482 C 0.37705 0.90905 0.46864 0.0
C483 C 0.33811 0.93093 0.46446 0.0
C484 C 0.40132 0.91017 0.49907 0.0
C485 C 0.40867 0.92703 0.57375 0.0
C486 C 0.36016 0.92514 0.51256 0.0
C487 C 0.39044 0.94042 0.62289 0.0
C488 C 0.32253 0.94873 0.50531 0.0
C489 C 0.32236 0.9341 0.32121 0.0
N490 N 0.36717 0.93964 0.59007 0.0
N491 N 0.33669 0.92352 0.37414 0.0
H492 H 0.57291 0.31953 0.56835 0.0
H493 H 0.52008 0.43135 0.89202 0.0
H494 H 0.51031 0.3172 0.73817 0.0
H495 H 0.56554 0.43622 0.6644 0.0
H496 H 0.52434 0.38914 0.86183 0.0
H497 H 0.57928 0.36119 0.63299 0.0
C498 C 0.5614 0.32747 0.62314 0.0
C499 C 0.54122 0.31483 0.64883 0.0
C500 C 0.53358 0.39938 0.81877 0.0
C501 C 0.54775 0.36265 0.72034 0.0
C502 C 0.53124 0.42362 0.83603 0.0
C503 C 0.54251 0.43756 0.78077 0.0
C504 C 0.54735 0.38867 0.74549 0.0
C505 C 0.5564 0.42623 0.70845 0.0
C506 C 0.56466 0.35138 0.65835 0.0
C507 C 0.5263 0.32618 0.71768 0.0
N508 N 0.55838 0.40242 0.69274 0.0
N509 N 0.52963 0.34952 0.75007 0.0
H510 H 0.2607 0.49271 0.48219 0.0
H511 H 0.13067 0.46882 0.4366 0.0
H512 H 0.23276 0.43198 0.29856 0.0
H513 H 0.16038 0.50089 0.69589 0.0
H514 H 0.16798 0.44734 0.40509 0.0
H515 H 0.22879 0.48711 0.58686 0.0
C516 C 0.24863 0.47743 0.46546 0.0
C517 C 0.24834 0.46364 0.37913 0.0
C518 C 0.16621 0.45863 0.46995 0.0
C519 C 0.21111 0.45787 0.49688 0.0
C520 C 0.14475 0.47108 0.48806 0.0
C521 C 0.14252 0.48749 0.56794 0.0
C522 C 0.18607 0.46323 0.53033 0.0
C523 C 0.16169 0.48941 0.63134 0.0
C524 C 0.23015 0.47432 0.5254 0.0
C525 C 0.23266 0.44379 0.36276 0.0
N526 N 0.18297 0.478 0.61009 0.0
N527 N 0.21382 0.44208 0.41935 0.0
H528 H 1.00597 0.78869 0.19019 0.0
H529 H 0.10408 0.88637 0.15781 0.0
H530 H 0.07805 0.79171 0.30968 0.0
H531 H 0.03843 0.87572 0.99364 0.0
H532 H 0.09851 0.84709 0.18891 0.0
H533 H 1.02083 0.8142 0.09011 0.0
C534 C 1.02525 0.7938 0.19223 0.0
C535 C 0.04077 0.78844 0.25885 0.0
C536 C 0.0855 0.85316 0.14487 0.0
C537 C 0.05763 0.81836 0.14782 0.0
C538 C 0.08873 0.87567 0.12678 0.0
C539 C 0.0714 0.88471 0.07459 0.0
C540 C 0.06457 0.83963 0.11194 0.0
C541 C 0.05181 0.86987 0.03689 0.0
C542 C 0.03368 0.80865 0.13598 0.0
C543 C 0.0655 0.79571 0.25955 0.0
N544 N 0.04867 0.84826 0.05767 0.0
N545 N 0.07302 0.81083 0.20669 0.0
H546 H 0.74219 0.09376 0.48218 0.0
H547 H 0.66516 0.07422 0.04524 0.0
H548 H 0.75923 0.04476 0.24205 0.0
H549 H 0.6478 0.12317 0.28599 0.0
H550 H 0.70765 0.07491 0.09505 0.0
H551 H 0.71755 0.11572 0.39356 0.0
C552 C 0.74148 0.08819 0.41012 0.0
C553 C 0.75216 0.06718 0.36932 0.0
C554 C 0.69474 0.08602 0.13604 0.0
C555 C 0.72333 0.09156 0.26807 0.0
C556 C 0.67038 0.08579 0.10722 0.0
C557 C 0.65262 0.098 0.16315 0.0
C558 C 0.70126 0.0982 0.22198 0.0
C559 C 0.66069 0.11274 0.24242 0.0
C560 C 0.7273 0.10063 0.35949 0.0
C561 C 0.75095 0.06074 0.27595 0.0
N562 N 0.68428 0.11192 0.27071 0.0
N563 N 0.73609 0.07249 0.22861 0.0
H564 H 0.48024 0.69567 0.12935 0.0
H565 H 0.54552 0.58797 0.82574 0.0
H566 H 0.54581 0.70176 0.97737 0.0
H567 H 0.48494 0.58019 0.00065 0.0
H568 H 0.54014 0.63012 0.8556 0.0
H569 H 0.47523 0.65471 0.05392 0.0
C570 C 0.49297 0.68867 0.07711 0.0
C571 C 0.51363 0.7021 0.06027 0.0
C572 C 0.5279 0.61926 0.88722 0.0
C573 C 0.50844 0.65503 0.97568 0.0
C574 C 0.53104 0.59509 0.87068 0.0
C575 C 0.51598 0.58042 0.91235 0.0
C576 C 0.50964 0.62911 0.94644 0.0
C577 C 0.49718 0.59079 0.96798 0.0
C578 C 0.49032 0.66517 0.03511 0.0
C579 C 0.52963 0.69211 0.99241 0.0
N580 N 0.49474 0.61453 0.98428 0.0
N581 N 0.52701 0.66905 0.95407 0.0
H582 H 0.81587 0.42699 0.35618 0.0
H583 H 0.89754 0.44614 0.9574 0.0
H584 H 0.8043 0.47848 0.19102 0.0
H585 H 0.91396 0.39967 0.13892 0.0
H586 H 0.85469 0.4454 0.00069 0.0
H587 H 0.84131 0.40506 0.23891 0.0
C588 C 0.81799 0.43322 0.29383 0.0
C589 C 0.8087 0.45495 0.28434 0.0
C590 C 0.8675 0.43483 0.02936 0.0
C591 C 0.83809 0.43032 0.15107 0.0
C592 C 0.89206 0.43509 0.00414 0.0
C593 C 0.9096 0.42361 0.04709 0.0
C594 C 0.86055 0.42336 0.09905 0.0
C595 C 0.90121 0.40954 0.10678 0.0
C596 C 0.83256 0.42075 0.22698 0.0
C597 C 0.81149 0.46201 0.20174 0.0
N598 N 0.87739 0.41032 0.13289 0.0
N599 N 0.82655 0.45008 0.1392 0.0
H600 H 0.08644 0.183 0.26453 0.0
H601 H 0.02796 0.09128 0.86534 0.0
H602 H 0.04375 0.20226 0.05173 0.0
H603 H 0.0796 0.07237 0.0541 0.0
H604 H 0.03804 0.13246 0.92128 0.0
H605 H 0.0899 0.14346 0.17618 0.0
C606 C 0.07847 0.17905 0.19789 0.0
C607 C 0.06456 0.19575 0.16561 0.0
C608 C 0.04739 0.11935 0.95002 0.0
C609 C 0.0678 0.1505 0.06534 0.0
C610 C 0.04148 0.09578 0.91856 0.0
C611 C 0.05261 0.07835 0.95636 0.0
C612 C 0.06431 0.12563 0.02079 0.0
C613 C 0.07038 0.08524 0.02375 0.0
C614 C 0.0803 0.15646 0.14769 0.0
C615 C 0.05462 0.18986 0.07899 0.0
N616 N 0.07542 0.10839 0.05477 0.0
N617 N 0.05597 0.16754 0.03259 0.0
H618 H 0.32773 0.99619 0.02819 0.0
H619 H 0.47194 0.0255 0.11104 0.0
H620 H 0.36184 0.01756 0.28732 0.0
H621 H 0.44076 1.00318 0.84674 0.0
H622 H 0.43091 0.02549 0.17388 0.0
H623 H 0.36756 1.0021 0.95784 0.0
C624 C 0.34342 1.00277 0.07013 0.0
C625 C 0.34141 0.00661 0.16375 0.0
C626 C 0.43291 0.02067 0.10204 0.0
C627 C 0.38717 0.01283 0.08412 0.0
C628 C 0.45648 0.02063 0.06587 0.0
C629 C 0.46005 0.01427 0.97311 0.0
C630 C 0.4124 0.0142 0.04562 0.0
C631 C 0.43903 0.00824 0.91858 0.0
C632 C 0.36622 1.00588 0.03007 0.0
C633 C 0.36251 0.01457 0.21495 0.0
N634 N 0.41618 0.00824 0.95558 0.0
N635 N 0.38438 0.01725 0.1747 0.0
H636 H 0.46545 0.30875 0.41621 0.0
H637 H 0.53172 0.40299 0.19342 0.0
H638 H 0.5366 0.29713 0.29619 0.0
H639 H 0.45265 0.39507 0.17447 0.0
H640 H 0.53355 0.36508 0.23798 0.0
H641 H 0.45909 0.34019 0.3314 0.0
C642 C 0.47922 0.31211 0.36876 0.0
C643 C 0.50139 0.30006 0.3618 0.0
C644 C 0.51581 0.37157 0.22323 0.0
C645 C 0.49492 0.33684 0.26914 0.0
C646 C 0.51468 0.39333 0.19728 0.0
C647 C 0.49196 0.40261 0.17916 0.0
C648 C 0.49409 0.35899 0.23368 0.0
C649 C 0.47062 0.38914 0.18904 0.0
C650 C 0.47575 0.33025 0.32138 0.0
C651 C 0.51906 0.30568 0.30197 0.0
N652 N 0.47219 0.3682 0.21652 0.0
N653 N 0.51571 0.32401 0.25959 0.0
H654 H 0.2165 0.45691 0.06772 0.0
H655 H 0.11182 0.54101 0.94673 0.0
H656 H 0.22311 0.53201 0.14619 0.0
H657 H 0.09909 0.4689 0.96991 0.0
H658 H 0.15479 0.53809 0.99318 0.0
H659 H 0.17643 0.46112 0.00053 0.0
C660 C 0.20976 0.47437 0.06907 0.0
C661 C 0.22326 0.49413 0.11343 0.0
C662 C 0.14256 0.52293 0.98791 0.0
C663 C 0.17689 0.49908 0.03676 0.0
C664 C 0.118 0.52455 0.96135 0.0
C665 C 0.10159 0.50521 0.95489 0.0
C666 C 0.15103 0.50167 0.00648 0.0
C667 C 0.11084 0.48436 0.97457 0.0
C668 C 0.18673 0.47674 0.03132 0.0
C669 C 0.21351 0.5163 0.1124 0.0
N670 N 0.13482 0.48314 0.99893 0.0
N671 N 0.19084 0.51817 0.07555 0.0
H672 H 0.97934 0.81857 0.59028 0.0
H673 H 0.03005 0.94182 0.62402 0.0
H674 H 0.0578 0.82722 0.56591 0.0
H675 H 1.00306 0.92997 0.87845 0.0
H676 H 0.02966 0.89924 0.56971 0.0
H677 H 0.97791 0.85893 0.67548 0.0
C678 C 0.99633 0.82861 0.60518 0.0
C679 C 1.01868 0.81967 0.56942 0.0
C680 C 1.02358 0.90614 0.63706 0.0
C681 C 1.01686 0.86566 0.66294 0.0
C682 C 1.02359 0.93029 0.6677 0.0
C683 C 1.01655 0.9393 0.7556 0.0
C684 C 1.0159 0.89107 0.69395 0.0
C685 C 1.00865 0.92359 0.81015 0.0
C686 C 0.99541 0.85163 0.65291 0.0
C687 C 0.0401 0.83362 0.59024 0.0
N688 N 1.00838 0.90009 0.77824 0.0
N689 N 0.03857 0.85619 0.63331 0.0
H690 H 0.72679 0.04802 0.67778 0.0
H691 H 0.59735 0.97823 0.66109 0.0
H692 H 0.71001 0.9858 0.48248 0.0
H693 H 0.61706 0.03907 0.86056 0.0
H694 H 0.63892 0.97891 0.59979 0.0
H695 H 0.6878 0.04288 0.75204 0.0
C696 C 0.71512 0.03289 0.65202 0.0
C697 C 0.72185 0.01708 0.57487 0.0
C698 C 0.63418 0.99203 0.65726 0.0
C699 C 0.67651 0.01146 0.65768 0.0
C700 C 0.61038 0.99167 0.69239 0.0
C701 C 0.60345 0.00868 0.76618 0.0
C702 C 0.65133 0.00953 0.69591 0.0
C703 C 0.62132 0.02562 0.80355 0.0
C704 C 0.69271 0.03006 0.69387 0.0
C705 C 0.70573 0.99811 0.54285 0.0
N706 N 0.64424 0.02565 0.76795 0.0
N707 N 0.68374 0.99593 0.58385 0.0
H708 H 0.51529 0.71957 0.41739 0.0
H709 H 0.60157 0.61402 0.44955 0.0
H710 H 0.58745 0.7137 0.30227 0.0
H711 H 0.54086 0.63205 0.62914 0.0
H712 H 0.59778 0.65146 0.40093 0.0
H713 H 0.52538 0.6896 0.50456 0.0
C714 C 0.53363 0.71264 0.41346 0.0
C715 C 0.55068 0.71934 0.35358 0.0
C716 C 0.58544 0.64732 0.45164 0.0
C717 C 0.56198 0.68414 0.44935 0.0
C718 C 0.58762 0.62588 0.47981 0.0
C719 C 0.57137 0.61951 0.54323 0.0
C720 C 0.56667 0.66256 0.48604 0.0
C721 C 0.55344 0.63573 0.57847 0.0
C722 C 0.5393 0.69531 0.46227 0.0
C723 C 0.57395 0.70932 0.34887 0.0
N724 N 0.55142 0.6563 0.54877 0.0
N725 N 0.57875 0.69189 0.3946 0.0
H726 H 0.84145 0.53765 0.55712 0.0
H727 H 0.96341 0.53592 0.69132 0.0
H728 H 0.83829 0.46684 0.60419 0.0
H729 H 0.93983 0.48461 0.84625 0.0
H730 H 0.92185 0.53591 0.63097 0.0
H731 H 0.88049 0.54409 0.63995 0.0
C732 C 0.84871 0.52361 0.58649 0.0
C733 C 0.83658 0.50164 0.57321 0.0
C734 C 0.92553 0.52499 0.67953 0.0
C735 C 0.88188 0.50855 0.66551 0.0
C736 C 0.94944 0.52478 0.7134 0.0
C737 C 0.95527 0.51028 0.77432 0.0
C738 C 0.90711 0.5104 0.70579 0.0
C739 C 0.93625 0.4962 0.79998 0.0
C740 C 0.87128 0.52714 0.63237 0.0
C741 C 0.84707 0.48401 0.61222 0.0
N742 N 0.91316 0.4964 0.76478 0.0
N743 N 0.86909 0.4878 0.65609 0.0
loop_
_geom_bond_atom_site_label_1
_geom_bond_atom_site_label_2
_geom_bond_distance
_geom_bond_site_symmetry_2
_ccdc_geom_bond_type
H0 C1 0.949 . S
C1 H0 0.949 . S
C1 C2 1.395 . S
C1 C3 1.391 . S
C2 C1 1.395 . S
C2 C5 1.390 . S
C3 C1 1.391 . S
C3 C7 1.387 . S
C3 C8 1.491 . S
H4 C5 0.950 . S
C5 C2 1.390 . S
C5 H4 0.950 . S
C5 C6 1.378 . S
C6 C5 1.378 . S
C6 C7 1.409 . S
C7 C3 1.387 . S
C7 C6 1.409 . S
C7 H9 0.951 . S
C8 C3 1.491 . S
C8 C10 1.382 . S
C8 C12 1.404 . S
H9 C7 0.951 . S
C10 C8 1.382 . S
C10 C11 1.390 . S
C10 H15 0.949 . S
C11 C10 1.390 . S
C11 C16 1.399 . S
C12 C8 1.404 . S
C12 H13 0.950 . S
C12 C14 1.375 . S
H13 C12 0.950 . S
C14 C12 1.375 . S
C14 C16 1.382 . S
C14 H18 0.950 . S
H15 C10 0.949 . S
C16 C11 1.399 . S
C16 C14 1.382 . S
C16 H17 0.952 . S
H17 C16 0.952 . S
H18 C14 0.950 . S
H19 C20 0.949 . S
C20 H19 0.949 . S
C20 C21 1.395 . S
C20 C22 1.391 . S
C21 C20 1.395 . S
C21 C24 1.392 . S
C22 C20 1.391 . S
C22 C26 1.387 . S
C22 C27 1.491 . S
H23 C24 0.947 1_455 S
C24 C21 1.392 . S
C24 H23 0.947 1_655 S
C24 C25 1.380 . S
C25 C24 1.380 . S
C25 C26 1.409 . S
C26 C22 1.387 . S
C26 C25 1.409 . S
C26 H28 0.951 . S
C27 C22 1.491 . S
C27 C29 1.382 . S
C27 C31 1.404 . S
H28 C26 0.951 . S
C29 C27 1.382 . S
C29 C30 1.390 . S
C29 H34 0.949 1_655 S
C30 C29 1.390 . S
C30 C35 1.399 . S
C31 C27 1.404 . S
C31 H32 0.950 . S
C31 C33 1.375 . S
H32 C31 0.950 . S
C33 C31 1.375 . S
C33 C35 1.382 . S
C33 H37 0.950 . S
H34 C29 0.949 1_455 S
C35 C30 1.399 . S
C35 C33 1.382 . S
C35 H36 0.952 . S
H36 C35 0.952 . S
H37 C33 0.950 . S
H38 C39 0.949 . S
C39 H38 0.949 . S
C39 C40 1.396 . S
C39 C41 1.391 . S
C40 C39 1.396 . S
C40 C43 1.391 1_565 S
C41 C39 1.391 . S
C41 C45 1.387 . S
C41 C46 1.491 . S
H42 C43 0.950 . S
C43 C40 1.391 1_545 S
C43 H42 0.950 . S
C43 C44 1.373 1_545 S
C44 C43 1.373 1_565 S
C44 C45 1.413 . S
C45 C41 1.387 . S
C45 C44 1.413 . S
C45 H47 0.951 . S
C46 C41 1.491 . S
C46 C48 1.382 . S
C46 C50 1.404 . S
H47 C45 0.951 . S
C48 C46 1.382 . S
C48 C49 1.390 . S
C48 H53 0.949 1_565 S
C49 C48 1.390 . S
C49 C54 1.399 . S
C50 C46 1.404 . S
C50 H51 0.950 . S
C50 C52 1.375 . S
H51 C50 0.950 . S
C52 C50 1.375 . S
C52 C54 1.382 . S
C52 H56 0.950 . S
H53 C48 0.949 1_545 S
C54 C49 1.399 . S
C54 C52 1.382 . S
C54 H55 0.952 . S
H55 C54 0.952 . S
H56 C52 0.950 . S
H57 C58 0.949 . S
C58 H57 0.949 . S
C58 C59 1.395 . S
C58 C60 1.391 1_556 S
C59 C58 1.395 . S
C59 C62 1.390 1_556 S
C60 C58 1.391 1_554 S
C60 C64 1.387 . S
C60 C65 1.491 . S
H61 C62 0.950 . S
C62 C59 1.390 1_554 S
C62 H61 0.950 . S
C62 C63 1.378 . S
C63 C62 1.378 . S
C63 C64 1.409 . S
C64 C60 1.387 . S
C64 C63 1.409 . S
C64 H66 0.951 . S
C65 C60 1.491 . S
C65 C67 1.382 1_554 S
C65 C69 1.404 . S
H66 C64 0.951 . S
C67 C65 1.382 1_556 S
C67 C68 1.390 . S
C67 H72 0.949 . S
C68 C67 1.390 . S
C68 C73 1.399 1_556 S
C69 C65 1.404 . S
C69 H70 0.950 . S
C69 C71 1.375 . S
H70 C69 0.950 . S
C71 C69 1.375 . S
C71 C73 1.382 . S
C71 H75 0.950 . S
H72 C67 0.949 . S
C73 C68 1.399 1_554 S
C73 C71 1.382 . S
C73 H74 0.952 . S
H74 C73 0.952 . S
H75 C71 0.950 . S
H76 C77 0.949 . S
C77 H76 0.949 . S
C77 C78 1.395 . S
C77 C79 1.391 . S
C78 C77 1.395 . S
C78 C81 1.390 . S
C79 C77 1.391 . S
C79 C83 1.387 . S
C79 C84 1.491 . S
H80 C81 0.950 . S
C81 C78 1.390 . S
C81 H80 0.950 . S
C81 C82 1.378 . S
C82 C81 1.378 . S
C82 C83 1.409 . S
C83 C79 1.387 . S
C83 C82 1.409 . S
C83 H85 0.951 . S
C84 C79 1.491 . S
C84 C86 1.382 . S
C84 C88 1.404 . S
H85 C83 0.951 . S
C86 C84 1.382 . S
C86 C87 1.390 . S
C86 H91 0.949 . S
C87 C86 1.390 . S
C87 C92 1.399 . S
C88 C84 1.404 . S
C88 H89 0.950 . S
C88 C90 1.375 . S
H89 C88 0.950 . S
C90 C88 1.375 . S
C90 C92 1.382 . S
C90 H94 0.950 . S
H91 C86 0.949 . S
C92 C87 1.399 . S
C92 C90 1.382 . S
C92 H93 0.952 . S
H93 C92 0.952 . S
H94 C90 0.950 . S
H95 C96 0.949 . S
C96 H95 0.949 . S
C96 C97 1.395 . S
C96 C98 1.391 . S
C97 C96 1.395 . S
C97 C100 1.390 . S
C98 C96 1.391 . S
C98 C102 1.387 . S
C98 C103 1.489 1_455 S
H99 C100 0.950 . S
C100 C97 1.390 . S
C100 H99 0.950 . S
C100 C101 1.378 . S
C101 C100 1.378 . S
C101 C102 1.409 . S
C102 C98 1.387 . S
C102 C101 1.409 . S
C102 H104 0.951 . S
C103 C98 1.489 1_655 S
C103 C105 1.377 1_655 S
C103 C107 1.411 . S
H104 C102 0.951 . S
C105 C103 1.377 1_455 S
C105 C106 1.390 . S
C105 H110 0.949 . S
C106 C105 1.390 . S
C106 C111 1.399 1_455 S
C107 C103 1.411 . S
C107 H108 0.950 . S
C107 C109 1.375 . S
H108 C107 0.950 . S
C109 C107 1.375 . S
C109 C111 1.382 . S
C109 H113 0.950 . S
H110 C105 0.949 . S
C111 C106 1.399 1_655 S
C111 C109 1.382 . S
C111 H112 0.952 . S
H112 C111 0.952 . S
H113 C109 0.950 . S
H114 C115 0.949 . S
C115 H114 0.949 . S
C115 C116 1.394 . S
C115 C117 1.391 . S
C116 C115 1.394 . S
C116 C119 1.392 1_565 S
C117 C115 1.391 . S
C117 C121 1.387 . S
C117 C122 1.491 . S
H118 C119 0.950 . S
C119 C116 1.392 1_545 S
C119 H118 0.950 . S
C119 C120 1.379 1_545 S
C120 C119 1.379 1_565 S
C120 C121 1.410 . S
C121 C117 1.387 . S
C121 C120 1.410 . S
C121 H123 0.951 . S
C122 C117 1.491 . S
C122 C124 1.396 . S
C122 C126 1.404 . S
H123 C121 0.951 . S
C124 C122 1.396 . S
C124 C125 1.399 . S
C124 H129 0.927 1_565 S
C125 C124 1.399 . S
C125 C130 1.399 . S
C126 C122 1.404 . S
C126 H127 0.950 . S
C126 C128 1.375 . S
H127 C126 0.950 . S
C128 C126 1.375 . S
C128 C130 1.382 . S
C128 H132 0.950 . S
H129 C124 0.927 1_545 S
C130 C125 1.399 . S
C130 C128 1.382 . S
C130 H131 0.952 . S
H131 C130 0.952 . S
H132 C128 0.950 . S
H133 C134 0.949 . S
C134 H133 0.949 . S
C134 C135 1.395 . S
C134 C136 1.391 . S
C135 C134 1.395 . S
C135 C138 1.390 . S
C136 C134 1.391 . S
C136 C140 1.387 . S
C136 C141 1.491 . S
H137 C138 0.950 . S
C138 C135 1.390 . S
C138 H137 0.950 . S
C138 C139 1.378 . S
C139 C138 1.378 . S
C139 C140 1.409 . S
C140 C136 1.387 . S
C140 C139 1.409 . S
C140 H142 0.951 . S
C141 C136 1.491 . S
C141 C143 1.382 . S
C141 C145 1.404 . S
H142 C140 0.951 . S
C143 C141 1.382 . S
C143 C144 1.390 . S
C143 H148 0.949 . S
C144 C143 1.390 . S
C144 C149 1.399 . S
C145 C141 1.404 . S
C145 H146 0.950 . S
C145 C147 1.375 . S
H146 C145 0.950 . S
C147 C145 1.375 . S
C147 C149 1.382 . S
C147 H151 0.950 . S
H148 C143 0.949 . S
C149 C144 1.399 . S
C149 C147 1.382 . S
C149 H150 0.952 . S
H150 C149 0.952 . S
H151 C147 0.950 . S
Tb152 C161 2.764 . S
Tb152 O162 2.325 . S
Tb152 O165 2.303 1_655 S
Tb152 O169 2.322 1_545 S
Tb152 O170 2.349 . S
Tb152 O173 2.415 1_655 S
Tb152 O174 2.399 . S
Tb153 O163 2.322 1_565 S
Tb153 O164 2.349 . S
Tb153 O166 2.415 1_556 S
Tb153 O167 2.399 . S
Tb153 O168 2.325 . S
Tb153 O171 2.303 1_455 S
Tb153 C182 2.764 1_556 S
C154 O170 1.273 . S
C154 O171 1.253 1_545 S
C155 C158 1.358 . S
C155 C159 1.302 1_655 S
C155 C161 1.504 . S
C156 C157 1.373 . S
C156 C160 1.308 . S
C157 C156 1.373 . S
C157 C158 1.429 . S
C157 H184 0.932 . S
C158 C155 1.358 . S
C158 C157 1.429 . S
C158 H185 0.930 . S
C159 C155 1.302 1_455 S
C159 C160 1.391 1_455 S
C159 H186 0.968 . S
C160 C156 1.308 . S
C160 C159 1.391 1_655 S
C160 H187 0.929 1_655 S
C161 Tb152 2.764 . S
C161 C155 1.504 . S
C161 O173 1.239 1_655 S
C161 O174 1.263 . S
O162 Tb152 2.325 . S
O162 C172 1.236 1_655 S
O163 Tb153 2.322 1_545 S
O163 C172 1.257 . S
O164 Tb153 2.349 . S
O164 C175 1.266 . S
O165 Tb152 2.303 1_455 S
O165 C175 1.255 1_545 S
O166 Tb153 2.415 1_554 S
O166 C182 1.239 . S
O167 Tb153 2.399 . S
O167 C182 1.263 1_556 S
O168 Tb153 2.325 . S
O168 C183 1.236 1_455 S
O169 Tb152 2.322 1_565 S
O169 C183 1.257 . S
O170 Tb152 2.349 . S
O170 C154 1.273 . S
O171 Tb153 2.303 1_655 S
O171 C154 1.253 1_565 S
C172 O162 1.236 1_455 S
C172 O163 1.257 . S
O173 Tb152 2.415 1_455 S
O173 C161 1.239 1_455 S
O174 Tb152 2.399 . S
O174 C161 1.263 . S
C175 O164 1.266 . S
C175 O165 1.255 1_565 S
C176 C179 1.358 . S
C176 C180 1.332 . S
C176 C182 1.504 . S
C177 C178 1.373 . S
C177 C181 1.308 . S
C178 C177 1.373 . S
C178 C179 1.429 . S
C178 H188 0.932 . S
C179 C176 1.358 . S
C179 C178 1.429 . S
C179 H189 0.930 . S
C180 C176 1.332 . S
C180 C181 1.394 . S
C180 H190 0.932 1_455 S
C181 C177 1.308 . S
C181 C180 1.394 . S
C181 H191 0.929 1_455 S
C182 Tb153 2.764 1_554 S
C182 O166 1.239 . S
C182 O167 1.263 1_554 S
C182 C176 1.504 . S
C183 O168 1.236 1_655 S
C183 O169 1.257 . S
H184 C157 0.932 . S
H185 C158 0.930 . S
H186 C159 0.968 . S
H187 C160 0.929 1_455 S
H188 C178 0.932 . S
H189 C179 0.930 . S
H190 C180 0.932 1_655 S
H191 C181 0.929 1_655 S
Tb192 C201 2.764 . S
Tb192 O202 2.325 . S
Tb192 O205 2.303 1_565 S
Tb192 O209 2.322 . S
Tb192 O210 2.349 . S
Tb192 O213 2.415 1_565 S
Tb192 O214 2.399 . S
Tb193 O203 2.322 . S
Tb193 O204 2.349 . S
Tb193 O206 2.415 1_546 S
Tb193 O207 2.399 1_556 S
Tb193 O208 2.325 . S
Tb193 O211 2.303 1_545 S
Tb193 C222 2.764 1_556 S
C194 O210 1.261 . S
C194 O211 1.257 . S
C195 C198 1.358 . S
C195 C199 1.332 1_565 S
C195 C201 1.504 . S
C196 C197 1.373 . S
C196 C200 1.308 1_565 S
C197 C196 1.373 . S
C197 C198 1.429 . S
C197 H224 0.932 . S
C198 C195 1.358 . S
C198 C197 1.429 . S
C198 H225 0.930 . S
C199 C195 1.332 1_545 S
C199 C200 1.394 . S
C199 H226 0.932 . S
C200 C196 1.308 1_545 S
C200 C199 1.394 . S
C200 H227 0.929 . S
C201 Tb192 2.764 . S
C201 C195 1.504 . S
C201 O213 1.239 1_565 S
C201 O214 1.263 . S
O202 Tb192 2.325 . S
O202 C212 1.236 1_565 S
O203 Tb193 2.322 . S
O203 C212 1.257 . S
O204 Tb193 2.349 . S
O204 C215 1.261 . S
O205 Tb192 2.303 1_545 S
O205 C215 1.257 . S
O206 Tb193 2.415 1_564 S
O206 C222 1.239 1_565 S
O207 Tb193 2.399 1_554 S
O207 C222 1.263 . S
O208 Tb193 2.325 . S
O208 C223 1.236 1_545 S
O209 Tb192 2.322 . S
O209 C223 1.257 . S
O210 Tb192 2.349 . S
O210 C194 1.261 . S
O211 Tb193 2.303 1_565 S
O211 C194 1.257 . S
C212 O202 1.236 1_545 S
C212 O203 1.257 . S
O213 Tb192 2.415 1_545 S
O213 C201 1.239 1_545 S
O214 Tb192 2.399 . S
O214 C201 1.263 . S
C215 O204 1.261 . S
C215 O205 1.257 . S
C216 C219 1.358 . S
C216 C220 1.332 1_545 S
C216 C222 1.504 . S
C217 C218 1.373 . S
C217 C221 1.308 1_545 S
C218 C217 1.373 . S
C218 C219 1.429 . S
C218 H228 0.932 . S
C219 C216 1.358 . S
C219 C218 1.429 . S
C219 H229 0.930 . S
C220 C216 1.332 1_565 S
C220 C221 1.394 . S
C220 H230 0.932 . S
C221 C217 1.308 1_565 S
C221 C220 1.394 . S
C221 H231 0.929 . S
C222 Tb193 2.764 1_554 S
C222 O206 1.239 1_545 S
C222 O207 1.263 . S
C222 C216 1.504 . S
C223 O208 1.236 1_565 S
C223 O209 1.257 . S
H224 C197 0.932 . S
H225 C198 0.930 . S
H226 C199 0.932 . S
H227 C200 0.929 . S
H228 C218 0.932 . S
H229 C219 0.930 . S
H230 C220 0.932 . S
H231 C221 0.929 . S
Tb232 C241 2.764 1_556 S
Tb232 O242 2.325 . S
Tb232 O245 2.303 . S
Tb232 O249 2.322 . S
Tb232 O250 2.349 . S
Tb232 O253 2.415 1_556 S
Tb232 O254 2.399 1_556 S
Tb233 O243 2.322 . S
Tb233 O244 2.349 . S
Tb233 O246 2.415 . S
Tb233 O247 2.399 . S
Tb233 O248 2.325 . S
Tb233 O251 2.303 . S
Tb233 C262 2.764 . S
C234 O250 1.261 . S
C234 O251 1.257 . S
C235 C238 1.358 . S
C235 C239 1.332 . S
C235 C241 1.504 . S
C236 C237 1.373 . S
C236 C240 1.308 . S
C237 C236 1.373 . S
C237 C238 1.429 . S
C237 H264 0.932 . S
C238 C235 1.358 . S
C238 C237 1.429 . S
C238 H265 0.930 . S
C239 C235 1.332 . S
C239 C240 1.394 . S
C239 H266 0.932 . S
C240 C236 1.308 . S
C240 C239 1.394 . S
C240 H267 0.929 . S
C241 Tb232 2.764 1_554 S
C241 C235 1.504 . S
C241 O253 1.239 . S
C241 O254 1.263 . S
O242 Tb232 2.325 . S
O242 C252 1.236 . S
O243 Tb233 2.322 . S
O243 C252 1.257 . S
O244 Tb233 2.349 . S
O244 C255 1.261 . S
O245 Tb232 2.303 . S
O245 C255 1.257 . S
O246 Tb233 2.415 . S
O246 C262 1.239 . S
O247 Tb233 2.399 . S
O247 C262 1.263 . S
O248 Tb233 2.325 . S
O248 C263 1.236 . S
O249 Tb232 2.322 . S
O249 C263 1.257 . S
O250 Tb232 2.349 . S
O250 C234 1.261 . S
O251 Tb233 2.303 . S
O251 C234 1.257 . S
C252 O242 1.236 . S
C252 O243 1.257 . S
O253 Tb232 2.415 1_554 S
O253 C241 1.239 . S
O254 Tb232 2.399 1_554 S
O254 C241 1.263 . S
C255 O244 1.261 . S
C255 O245 1.257 . S
C256 C259 1.358 . S
C256 C260 1.332 . S
C256 C262 1.504 . S
C257 C258 1.373 . S
C257 C261 1.308 . S
C258 C257 1.373 . S
C258 C259 1.429 . S
C258 H268 0.932 . S
C259 C256 1.358 . S
C259 C258 1.429 . S
C259 H269 0.930 . S
C260 C256 1.332 . S
C260 C261 1.394 . S
C260 H270 0.932 . S
C261 C257 1.308 . S
C261 C260 1.394 . S
C261 H271 0.929 . S
C262 Tb233 2.764 . S
C262 O246 1.239 . S
C262 O247 1.263 . S
C262 C256 1.504 . S
C263 O248 1.236 . S
C263 O249 1.257 . S
H264 C237 0.932 . S
H265 C238 0.930 . S
H266 C239 0.932 . S
H267 C240 0.929 . S
H268 C258 0.932 . S
H269 C259 0.930 . S
H270 C260 0.932 . S
H271 C261 0.929 . S
Tb272 C281 2.764 . S
Tb272 O282 2.325 . S
Tb272 O285 2.303 . S
Tb272 O289 2.322 1_455 S
Tb272 O290 2.349 . S
Tb272 O293 2.415 . S
Tb272 O294 2.399 . S
Tb273 O283 2.322 1_655 S
Tb273 O284 2.349 . S
Tb273 O286 2.415 1_556 S
Tb273 O287 2.399 . S
Tb273 O288 2.325 . S
Tb273 O291 2.303 1_655 S
Tb273 C302 2.764 1_556 S
C274 O290 1.261 . S
C274 O291 1.257 . S
C275 C278 1.358 . S
C275 C279 1.332 . S
C275 C281 1.504 . S
C276 C277 1.373 . S
C276 C280 1.308 . S
C277 C276 1.373 . S
C277 C278 1.429 . S
C277 H304 0.932 . S
C278 C275 1.358 . S
C278 C277 1.429 . S
C278 H305 0.930 . S
C279 C275 1.332 . S
C279 C280 1.394 . S
C279 H306 0.932 . S
C280 C276 1.308 . S
C280 C279 1.394 . S
C280 H307 0.929 . S
C281 Tb272 2.764 . S
C281 C275 1.504 . S
C281 O293 1.239 . S
C281 O294 1.263 . S
O282 Tb272 2.325 . S
O282 C292 1.236 . S
O283 Tb273 2.322 1_455 S
O283 C292 1.257 . S
O284 Tb273 2.349 . S
O284 C295 1.261 1_655 S
O285 Tb272 2.303 . S
O285 C295 1.257 . S
O286 Tb273 2.415 1_554 S
O286 C302 1.239 . S
O287 Tb273 2.399 . S
O287 C302 1.263 1_556 S
O288 Tb273 2.325 . S
O288 C303 1.236 . S
O289 Tb272 2.322 1_655 S
O289 C303 1.257 . S
O290 Tb272 2.349 . S
O290 C274 1.261 . S
O291 Tb273 2.303 1_455 S
O291 C274 1.257 . S
C292 O282 1.236 . S
C292 O283 1.257 . S
O293 Tb272 2.415 . S
O293 C281 1.239 . S
O294 Tb272 2.399 . S
O294 C281 1.263 . S
C295 O284 1.261 1_455 S
C295 O285 1.257 . S
C296 C299 1.358 . S
C296 C300 1.332 . S
C296 C302 1.504 . S
C297 C298 1.373 . S
C297 C301 1.308 . S
C298 C297 1.373 . S
C298 C299 1.429 . S
C298 H308 0.932 . S
C299 C296 1.358 . S
C299 C298 1.429 . S
C299 H309 0.930 . S
C300 C296 1.332 . S
C300 C301 1.394 . S
C300 H310 0.932 . S
C301 C297 1.308 . S
C301 C300 1.394 . S
C301 H311 0.929 . S
C302 Tb273 2.764 1_554 S
C302 O286 1.239 . S
C302 O287 1.263 1_554 S
C302 C296 1.504 . S
C303 O288 1.236 . S
C303 O289 1.257 . S
H304 C277 0.932 . S
H305 C278 0.930 . S
H306 C279 0.932 . S
H307 C280 0.929 . S
H308 C298 0.932 . S
H309 C299 0.930 . S
H310 C300 0.932 . S
H311 C301 0.929 . S
H312 C318 0.930 . S
H313 C322 0.930 . S
H314 C327 0.929 . S
H315 C325 0.929 . S
H316 C320 0.929 . S
H317 C326 0.929 . S
C318 H312 0.930 . S
C318 C319 1.364 1_565 S
C318 C326 1.378 . S
C319 C318 1.364 1_545 S
C319 C327 1.436 . S
C320 H316 0.929 . S
C320 C322 1.378 . S
C320 C324 1.350 . S
C321 C324 1.460 . S
C321 C326 1.320 1_545 S
C321 N329 1.464 . S
C322 H313 0.930 . S
C322 C320 1.378 . S
C322 C323 1.367 . S
C323 C322 1.367 . S
C323 C325 1.433 1_545 S
C324 C320 1.350 . S
C324 C321 1.460 . S
C324 N328 1.427 1_545 S
C325 H315 0.929 . S
C325 C323 1.433 1_565 S
C325 N328 1.384 . S
C326 H317 0.929 . S
C326 C318 1.378 . S
C326 C321 1.320 1_565 S
C327 H314 0.929 . S
C327 C319 1.436 . S
C327 N329 1.384 . S
N328 C324 1.427 1_565 S
N328 C325 1.384 . S
N329 C321 1.464 . S
N329 C327 1.384 . S
H330 C336 0.930 . S
H331 C340 0.930 . S
H332 C345 0.929 . S
H333 C343 0.929 . S
H334 C338 0.929 . S
H335 C344 0.929 . S
C336 H330 0.930 . S
C336 C337 1.367 . S
C336 C344 1.378 . S
C337 C336 1.367 . S
C337 C345 1.433 . S
C338 H334 0.929 . S
C338 C340 1.378 . S
C338 C342 1.350 . S
C339 C342 1.463 . S
C339 C344 1.350 . S
C339 N347 1.427 . S
C340 H331 0.930 . S
C340 C338 1.378 . S
C340 C341 1.367 . S
C341 C340 1.367 . S
C341 C343 1.433 . S
C342 C338 1.350 . S
C342 C339 1.463 . S
C342 N346 1.427 . S
C343 H333 0.929 . S
C343 C341 1.433 . S
C343 N346 1.384 . S
C344 H335 0.929 . S
C344 C336 1.378 . S
C344 C339 1.350 . S
C345 H332 0.929 . S
C345 C337 1.433 . S
C345 N347 1.384 . S
N346 C342 1.427 . S
N346 C343 1.384 . S
N347 C339 1.427 . S
N347 C345 1.384 . S
H348 C354 0.930 . S
H349 C358 0.930 . S
H350 C363 0.929 . S
H351 C361 0.929 . S
H352 C356 0.929 . S
H353 C362 0.929 . S
C354 H348 0.930 . S
C354 C355 1.367 . S
C354 C362 1.378 . S
C355 C354 1.367 . S
C355 C363 1.433 . S
C356 H352 0.929 . S
C356 C358 1.378 . S
C356 C360 1.350 . S
C357 C360 1.463 . S
C357 C362 1.350 . S
C357 N365 1.427 . S
C358 H349 0.930 . S
C358 C356 1.378 . S
C358 C359 1.367 . S
C359 C358 1.367 . S
C359 C361 1.433 . S
C360 C356 1.350 . S
C360 C357 1.463 . S
C360 N364 1.427 . S
C361 H351 0.929 . S
C361 C359 1.433 . S
C361 N364 1.384 . S
C362 H353 0.929 . S
C362 C354 1.378 . S
C362 C357 1.350 . S
C363 H350 0.929 . S
C363 C355 1.433 . S
C363 N365 1.384 . S
N364 C360 1.427 . S
N364 C361 1.384 . S
N365 C357 1.427 . S
N365 C363 1.384 . S
H366 C372 0.930 . S
H367 C376 0.930 . S
H368 C381 0.929 . S
H369 C379 0.929 . S
H370 C374 0.929 . S
H371 C380 0.929 . S
C372 H366 0.930 . S
C372 C373 1.367 1_655 S
C372 C380 1.378 . S
C373 C372 1.367 1_455 S
C373 C381 1.433 . S
C374 H370 0.929 . S
C374 C376 1.378 . S
C374 C378 1.350 . S
C375 C378 1.463 . S
C375 C380 1.350 1_455 S
C375 N383 1.427 . S
C376 H367 0.930 . S
C376 C374 1.378 . S
C376 C377 1.367 . S
C377 C376 1.367 . S
C377 C379 1.433 1_455 S
C378 C374 1.350 . S
C378 C375 1.463 . S
C378 N382 1.427 1_455 S
C379 H369 0.929 . S
C379 C377 1.433 1_655 S
C379 N382 1.384 . S
C380 H371 0.929 . S
C380 C372 1.378 . S
C380 C375 1.350 1_655 S
C381 H368 0.929 . S
C381 C373 1.433 . S
C381 N383 1.384 . S
N382 C378 1.427 1_655 S
N382 C379 1.384 . S
N383 C375 1.427 . S
N383 C381 1.384 . S
H384 C390 0.930 . S
H385 C394 0.930 . S
H386 C399 0.929 . S
H387 C397 0.929 . S
H388 C392 0.929 . S
H389 C398 0.929 . S
C390 H384 0.930 . S
C390 C391 1.377 . S
C390 C398 1.378 . S
C391 C390 1.377 . S
C391 C399 1.419 1_565 S
C392 H388 0.929 . S
C392 C394 1.378 . S
C392 C396 1.350 1_545 S
C393 C396 1.463 . S
C393 C398 1.350 . S
C393 N401 1.427 1_565 S
C394 H385 0.930 . S
C394 C392 1.378 . S
C394 C395 1.367 1_545 S
C395 C394 1.367 1_565 S
C395 C397 1.433 1_554 S
C396 C392 1.350 1_565 S
C396 C393 1.463 . S
C396 N400 1.427 . S
C397 H387 0.929 . S
C397 C395 1.433 1_556 S
C397 N400 1.384 1_556 S
C398 H389 0.929 . S
C398 C390 1.378 . S
C398 C393 1.350 . S
C399 H386 0.929 . S
C399 C391 1.419 1_545 S
C399 N401 1.384 . S
N400 C396 1.427 . S
N400 C397 1.384 1_554 S
N401 C393 1.427 1_545 S
N401 C399 1.384 . S
H402 C408 0.930 . S
H403 C412 0.930 . S
H404 C417 0.929 . S
H405 C415 0.929 . S
H406 C410 0.929 . S
H407 C416 0.929 1_554 S
C408 H402 0.930 . S
C408 C409 1.367 1_554 S
C408 C416 1.378 1_554 S
C409 C408 1.367 1_556 S
C409 C417 1.433 . S
C410 H406 0.929 . S
C410 C412 1.378 . S
C410 C414 1.350 . S
C411 C414 1.463 . S
C411 C416 1.350 . S
C411 N419 1.427 . S
C412 H403 0.930 . S
C412 C410 1.378 . S
C412 C413 1.367 . S
C413 C412 1.367 . S
C413 C415 1.433 . S
C414 C410 1.350 . S
C414 C411 1.463 . S
C414 N418 1.427 . S
C415 H405 0.929 . S
C415 C413 1.433 . S
C415 N418 1.384 . S
C416 H407 0.929 1_556 S
C416 C408 1.378 1_556 S
C416 C411 1.350 . S
C417 H404 0.929 . S
C417 C409 1.433 . S
C417 N419 1.384 . S
N418 C414 1.427 . S
N418 C415 1.384 . S
N419 C411 1.427 . S
N419 C417 1.384 . S
H420 C426 0.930 . S
H421 C430 0.930 . S
H422 C435 0.929 . S
H423 C433 0.929 1_556 S
H424 C428 0.929 . S
H425 C434 0.929 . S
C426 H420 0.930 . S
C426 C427 1.367 . S
C426 C434 1.378 . S
C427 C426 1.367 . S
C427 C435 1.433 . S
C428 H424 0.929 . S
C428 C430 1.378 . S
C428 C432 1.350 . S
C429 C432 1.463 . S
C429 C434 1.350 . S
C429 N437 1.427 . S
C430 H421 0.930 . S
C430 C428 1.378 . S
C430 C431 1.367 . S
C431 C430 1.367 . S
C431 C433 1.433 . S
C432 C428 1.350 . S
C432 C429 1.463 . S
C432 N436 1.427 . S
C433 H423 0.929 1_554 S
C433 C431 1.433 . S
C433 N436 1.384 . S
C434 H425 0.929 . S
C434 C426 1.378 . S
C434 C429 1.350 . S
C435 H422 0.929 . S
C435 C427 1.433 . S
C435 N437 1.384 . S
N436 C432 1.427 . S
N436 C433 1.384 . S
N437 C429 1.427 . S
N437 C435 1.384 . S
H438 C444 0.930 . S
H439 C448 0.930 . S
H440 C453 0.929 . S
H441 C451 0.929 1_556 S
H442 C446 0.929 . S
H443 C452 0.929 . S
C444 H438 0.930 . S
C444 C445 1.367 1_455 S
C444 C452 1.378 . S
C445 C444 1.367 1_655 S
C445 C453 1.433 . S
C446 H442 0.929 . S
C446 C448 1.378 . S
C446 C450 1.351 . S
C447 C450 1.463 1_455 S
C447 C452 1.370 . S
C447 N455 1.406 1_455 S
C448 H439 0.930 . S
C448 C446 1.378 . S
C448 C449 1.367 1_654 S
C449 C448 1.367 1_456 S
C449 C451 1.433 1_556 S
C450 C446 1.351 . S
C450 C447 1.463 1_655 S
C450 N454 1.426 1_655 S
C451 H441 0.929 1_554 S
C451 C449 1.433 1_554 S
C451 N454 1.384 . S
C452 H443 0.929 . S
C452 C444 1.378 . S
C452 C447 1.370 . S
C453 H440 0.929 . S
C453 C445 1.433 . S
C453 N455 1.384 . S
N454 C450 1.426 1_455 S
N454 C451 1.384 . S
N455 C447 1.406 1_655 S
N455 C453 1.384 . S
H456 C462 0.930 . S
H457 C466 0.930 . S
H458 C471 0.929 . S
H459 C469 0.929 . S
H460 C464 0.929 . S
H461 C470 0.929 . S
C462 H456 0.930 . S
C462 C463 1.367 . S
C462 C470 1.378 1_455 S
C463 C462 1.367 . S
C463 C471 1.433 . S
C464 H460 0.929 . S
C464 C466 1.378 . S
C464 C468 1.350 . S
C465 C468 1.463 . S
C465 C470 1.350 . S
C465 N473 1.427 1_655 S
C466 H457 0.930 . S
C466 C464 1.378 . S
C466 C467 1.367 . S
C467 C466 1.367 . S
C467 C469 1.433 . S
C468 C464 1.350 . S
C468 C465 1.463 . S
C468 N472 1.427 . S
C469 H459 0.929 . S
C469 C467 1.433 . S
C469 N472 1.384 . S
C470 H461 0.929 . S
C470 C462 1.378 1_655 S
C470 C465 1.350 . S
C471 H458 0.929 . S
C471 C463 1.433 . S
C471 N473 1.384 . S
N472 C468 1.427 . S
N472 C469 1.384 . S
N473 C465 1.427 1_455 S
N473 C471 1.384 . S
H474 C480 0.930 . S
H475 C484 0.930 . S
H476 C489 0.929 . S
H477 C487 0.942 . S
H478 C482 0.929 . S
H479 C488 0.929 . S
C480 H474 0.930 . S
C480 C481 1.367 . S
C480 C488 1.378 . S
C481 C480 1.367 . S
C481 C489 1.433 1_545 S
C482 H478 0.929 . S
C482 C484 1.378 . S
C482 C486 1.350 . S
C483 C486 1.463 . S
C483 C488 1.350 1_565 S
C483 N491 1.427 . S
C484 H475 0.930 . S
C484 C482 1.378 . S
C484 C485 1.367 . S
C485 C484 1.367 . S
C485 C487 1.412 1_565 S
C486 C482 1.350 . S
C486 C483 1.463 . S
C486 N490 1.427 1_565 S
C487 H477 0.942 . S
C487 C485 1.412 1_545 S
C487 N490 1.392 . S
C488 H479 0.929 . S
C488 C480 1.378 . S
C488 C483 1.350 1_545 S
C489 H476 0.929 . S
C489 C481 1.433 1_565 S
C489 N491 1.384 . S
N490 C486 1.427 1_545 S
N490 C487 1.392 . S
N491 C483 1.427 . S
N491 C489 1.384 . S
H492 C498 0.930 . S
H493 C502 0.930 . S
H494 C507 0.929 . S
H495 C505 0.929 . S
H496 C500 0.929 . S
H497 C506 0.929 . S
C498 H492 0.930 . S
C498 C499 1.367 . S
C498 C506 1.378 . S
C499 C498 1.367 . S
C499 C507 1.433 . S
C500 H496 0.929 . S
C500 C502 1.378 . S
C500 C504 1.350 . S
C501 C504 1.463 . S
C501 C506 1.350 . S
C501 N509 1.427 . S
C502 H493 0.930 . S
C502 C500 1.378 . S
C502 C503 1.367 . S
C503 C502 1.367 . S
C503 C505 1.433 . S
C504 C500 1.350 . S
C504 C501 1.463 . S
C504 N508 1.427 . S
C505 H495 0.929 . S
C505 C503 1.433 . S
C505 N508 1.384 . S
C506 H497 0.929 . S
C506 C498 1.378 . S
C506 C501 1.350 . S
C507 H494 0.929 . S
C507 C499 1.433 . S
C507 N509 1.384 . S
N508 C504 1.427 . S
N508 C505 1.384 . S
N509 C501 1.427 . S
N509 C507 1.384 . S
H510 C516 0.930 . S
H511 C520 0.930 . S
H512 C525 0.929 . S
H513 C523 0.929 . S
H514 C518 0.929 . S
H515 C524 0.929 . S
C516 H510 0.930 . S
C516 C517 1.367 . S
C516 C524 1.378 . S
C517 C516 1.367 . S
C517 C525 1.433 . S
C518 H514 0.929 . S
C518 C520 1.378 . S
C518 C522 1.350 . S
C519 C522 1.463 . S
C519 C524 1.350 . S
C519 N527 1.427 . S
C520 H511 0.930 . S
C520 C518 1.378 . S
C520 C521 1.367 . S
C521 C520 1.367 . S
C521 C523 1.433 . S
C522 C518 1.350 . S
C522 C519 1.463 . S
C522 N526 1.427 . S
C523 H513 0.929 . S
C523 C521 1.433 . S
C523 N526 1.384 . S
C524 H515 0.929 . S
C524 C516 1.378 . S
C524 C519 1.350 . S
C525 H512 0.929 . S
C525 C517 1.433 . S
C525 N527 1.384 . S
N526 C522 1.427 . S
N526 C523 1.384 . S
N527 C519 1.427 . S
N527 C525 1.384 . S
H528 C534 0.930 . S
H529 C538 0.930 . S
H530 C543 0.929 . S
H531 C541 0.929 . S
H532 C536 0.929 . S
H533 C542 0.929 . S
C534 H528 0.930 . S
C534 C535 1.367 . S
C534 C542 1.378 . S
C535 C534 1.367 . S
C535 C543 1.433 1_655 S
C536 H532 0.929 . S
C536 C538 1.378 . S
C536 C540 1.350 . S
C537 C540 1.463 . S
C537 C542 1.350 1_455 S
C537 N545 1.427 . S
C538 H529 0.930 . S
C538 C536 1.378 . S
C538 C539 1.367 . S
C539 C538 1.367 . S
C539 C541 1.433 . S
C540 C536 1.350 . S
C540 C537 1.463 . S
C540 N544 1.427 . S
C541 H531 0.929 . S
C541 C539 1.433 . S
C541 N544 1.384 . S
C542 H533 0.929 . S
C542 C534 1.378 . S
C542 C537 1.350 1_655 S
C543 H530 0.929 . S
C543 C535 1.433 1_455 S
C543 N545 1.384 . S
N544 C540 1.427 . S
N544 C541 1.384 . S
N545 C537 1.427 . S
N545 C543 1.384 . S
H546 C552 0.930 . S
H547 C556 0.930 1_565 S
H548 C561 0.929 . S
H549 C559 0.929 . S
H550 C554 0.948 . S
H551 C560 0.929 . S
C552 H546 0.930 . S
C552 C553 1.342 1_545 S
C552 C560 1.378 . S
C553 C552 1.342 1_565 S
C553 C561 1.450 . S
C554 H550 0.948 . S
C554 C556 1.371 1_565 S
C554 C558 1.337 1_565 S
C555 C558 1.463 . S
C555 C560 1.350 . S
C555 N563 1.427 1_545 S
C556 H547 0.930 1_545 S
C556 C554 1.371 1_545 S
C556 C557 1.367 . S
C557 C556 1.367 . S
C557 C559 1.433 . S
C558 C554 1.337 1_545 S
C558 C555 1.463 . S
C558 N562 1.427 . S
C559 H549 0.929 . S
C559 C557 1.433 . S
C559 N562 1.384 . S
C560 H551 0.929 . S
C560 C552 1.378 . S
C560 C555 1.350 . S
C561 H548 0.929 . S
C561 C553 1.450 . S
C561 N563 1.384 . S
N562 C558 1.427 . S
N562 C559 1.384 . S
N563 C555 1.427 1_565 S
N563 C561 1.384 . S
H564 C570 0.930 . S
H565 C574 0.930 1_554 S
H566 C579 0.929 1_554 S
H567 C577 0.929 . S
H568 C572 0.929 1_554 S
H569 C578 0.929 . S
C570 H564 0.930 . S
C570 C571 1.367 . S
C570 C578 1.378 . S
C571 C570 1.367 . S
C571 C579 1.433 . S
C572 H568 0.929 1_556 S
C572 C574 1.378 . S
C572 C576 1.350 . S
C573 C576 1.463 . S
C573 C578 1.350 . S
C573 N581 1.427 . S
C574 H565 0.930 1_556 S
C574 C572 1.378 . S
C574 C575 1.367 . S
C575 C574 1.367 . S
C575 C577 1.433 . S
C576 C572 1.350 . S
C576 C573 1.463 . S
C576 N580 1.427 . S
C577 H567 0.929 . S
C577 C575 1.433 . S
C577 N580 1.384 . S
C578 H569 0.929 . S
C578 C570 1.378 . S
C578 C573 1.350 . S
C579 H566 0.929 1_556 S
C579 C571 1.433 . S
C579 N581 1.384 . S
N580 C576 1.427 . S
N580 C577 1.384 . S
N581 C573 1.427 . S
N581 C579 1.384 . S
H582 C588 0.930 . S
H583 C592 0.930 . S
H584 C597 0.929 . S
H585 C595 0.929 . S
H586 C590 0.929 . S
H587 C596 0.929 . S
C588 H582 0.930 . S
C588 C589 1.367 . S
C588 C596 1.378 . S
C589 C588 1.367 . S
C589 C597 1.433 . S
C590 H586 0.929 . S
C590 C592 1.378 . S
C590 C594 1.350 . S
C591 C594 1.463 . S
C591 C596 1.350 . S
C591 N599 1.427 . S
C592 H583 0.930 . S
C592 C590 1.378 . S
C592 C593 1.367 . S
C593 C592 1.367 . S
C593 C595 1.433 . S
C594 C590 1.350 . S
C594 C591 1.463 . S
C594 N598 1.427 . S
C595 H585 0.929 . S
C595 C593 1.433 . S
C595 N598 1.384 . S
C596 H587 0.929 . S
C596 C588 1.378 . S
C596 C591 1.350 . S
C597 H584 0.929 . S
C597 C589 1.433 . S
C597 N599 1.384 . S
N598 C594 1.427 . S
N598 C595 1.384 . S
N599 C591 1.427 . S
N599 C597 1.384 . S
H600 C606 0.934 . S
H601 C610 0.930 1_655 S
H602 C615 0.936 . S
H603 C613 0.929 . S
H604 C608 0.929 1_655 S
H605 C614 0.929 . S
C606 H600 0.934 . S
C606 C607 1.363 1_556 S
C606 C614 1.378 . S
C607 C606 1.363 1_554 S
C607 C615 1.427 1_455 S
C608 H604 0.929 1_455 S
C608 C610 1.378 . S
C608 C612 1.350 . S
C609 C612 1.463 . S
C609 C614 1.350 1_554 S
C609 N617 1.454 . S
C610 H601 0.930 1_455 S
C610 C608 1.378 . S
C610 C611 1.367 1_554 S
C611 C610 1.367 1_556 S
C611 C613 1.433 . S
C612 C608 1.350 . S
C612 C609 1.463 . S
C612 N616 1.427 1_554 S
C613 H603 0.929 . S
C613 C611 1.433 . S
C613 N616 1.384 . S
C614 H605 0.929 . S
C614 C606 1.378 . S
C614 C609 1.350 1_556 S
C615 H602 0.936 . S
C615 C607 1.427 1_655 S
C615 N617 1.380 1_655 S
N616 C612 1.427 1_556 S
N616 C613 1.384 . S
N617 C609 1.454 . S
N617 C615 1.380 1_455 S
H618 C624 0.930 . S
H619 C628 0.930 . S
H620 C633 0.929 . S
H621 C631 0.929 . S
H622 C626 0.929 . S
H623 C632 0.929 . S
C624 H618 0.930 . S
C624 C625 1.357 1_566 S
C624 C632 1.378 . S
C625 C624 1.357 1_544 S
C625 C633 1.447 . S
C626 H622 0.929 . S
C626 C628 1.378 . S
C626 C630 1.350 1_554 S
C627 C630 1.463 1_554 S
C627 C632 1.350 1_544 S
C627 N635 1.427 . S
C628 H619 0.930 . S
C628 C626 1.378 . S
C628 C629 1.367 1_554 S
C629 C628 1.367 1_556 S
C629 C631 1.433 1_545 S
C630 C626 1.350 1_556 S
C630 C627 1.463 1_556 S
C630 N634 1.427 1_545 S
C631 H621 0.929 . S
C631 C629 1.433 1_565 S
C631 N634 1.384 . S
C632 H623 0.929 . S
C632 C624 1.378 . S
C632 C627 1.350 1_566 S
C633 H620 0.929 . S
C633 C625 1.447 . S
C633 N635 1.384 . S
N634 C630 1.427 1_565 S
N634 C631 1.384 . S
N635 C627 1.427 . S
N635 C633 1.384 . S
H636 C642 0.930 . S
H637 C646 0.930 . S
H638 C651 0.929 . S
H639 C649 0.929 . S
H640 C644 0.929 . S
H641 C650 0.929 . S
C642 H636 0.930 . S
C642 C643 1.367 . S
C642 C650 1.378 . S
C643 C642 1.367 . S
C643 C651 1.433 . S
C644 H640 0.929 . S
C644 C646 1.378 . S
C644 C648 1.350 . S
C645 C648 1.463 . S
C645 C650 1.350 . S
C645 N653 1.427 . S
C646 H637 0.930 . S
C646 C644 1.378 . S
C646 C647 1.367 . S
C647 C646 1.367 . S
C647 C649 1.433 . S
C648 C644 1.350 . S
C648 C645 1.463 . S
C648 N652 1.427 . S
C649 H639 0.929 . S
C649 C647 1.433 . S
C649 N652 1.384 . S
C650 H641 0.929 . S
C650 C642 1.378 . S
C650 C645 1.350 . S
C651 H638 0.929 . S
C651 C643 1.433 . S
C651 N653 1.384 . S
N652 C648 1.427 . S
N652 C649 1.384 . S
N653 C645 1.427 . S
N653 C651 1.384 . S
H654 C660 0.930 . S
H655 C664 0.930 . S
H656 C669 0.929 . S
H657 C667 0.929 . S
H658 C662 0.929 . S
H659 C668 0.929 . S
C660 H654 0.930 . S
C660 C661 1.367 1_556 S
C660 C668 1.378 . S
C661 C660 1.367 1_554 S
C661 C669 1.433 . S
C662 H658 0.929 . S
C662 C664 1.378 . S
C662 C666 1.350 1_554 S
C663 C666 1.463 . S
C663 C668 1.350 . S
C663 N671 1.427 1_556 S
C664 H655 0.930 . S
C664 C662 1.378 . S
C664 C665 1.367 1_554 S
C665 C664 1.367 1_556 S
C665 C667 1.433 . S
C666 C662 1.350 1_556 S
C666 C663 1.463 . S
C666 N670 1.427 . S
C667 H657 0.929 . S
C667 C665 1.433 . S
C667 N670 1.384 . S
C668 H659 0.929 . S
C668 C660 1.378 . S
C668 C663 1.350 . S
C669 H656 0.929 . S
C669 C661 1.433 . S
C669 N671 1.384 . S
N670 C666 1.427 . S
N670 C667 1.384 . S
N671 C663 1.427 1_554 S
N671 C669 1.384 . S
H672 C678 0.930 . S
H673 C682 0.934 . S
H674 C687 0.929 . S
H675 C685 0.929 . S
H676 C680 0.929 1_455 S
H677 C686 0.929 . S
C678 H672 0.930 . S
C678 C679 1.367 . S
C678 C686 1.378 . S
C679 C678 1.367 . S
C679 C687 1.433 1_655 S
C680 H676 0.929 1_655 S
C680 C682 1.378 . S
C680 C684 1.350 . S
C681 C684 1.463 . S
C681 C686 1.350 . S
C681 N689 1.426 1_655 S
C682 H673 0.934 . S
C682 C680 1.378 . S
C682 C683 1.367 . S
C683 C682 1.367 . S
C683 C685 1.433 . S
C684 C680 1.350 . S
C684 C681 1.463 . S
C684 N688 1.427 . S
C685 H675 0.929 . S
C685 C683 1.433 . S
C685 N688 1.384 . S
C686 H677 0.929 . S
C686 C678 1.378 . S
C686 C681 1.350 . S
C687 H674 0.929 . S
C687 C679 1.433 1_455 S
C687 N689 1.384 . S
N688 C684 1.427 . S
N688 C685 1.384 . S
N689 C681 1.426 1_455 S
N689 C687 1.384 . S
H690 C696 0.929 . S
H691 C700 0.930 . S
H692 C705 0.929 . S
H693 C703 0.929 . S
H694 C698 0.929 . S
H695 C704 0.935 1_545 S
C696 H690 0.929 . S
C696 C697 1.378 1_545 S
C696 C704 1.376 1_545 S
C697 C696 1.378 1_565 S
C697 C705 1.430 . S
C698 H694 0.929 . S
C698 C700 1.378 . S
C698 C702 1.350 . S
C699 C702 1.463 . S
C699 C704 1.349 . S
C699 N707 1.427 . S
C700 H691 0.930 . S
C700 C698 1.378 . S
C700 C701 1.367 . S
C701 C700 1.367 . S
C701 C703 1.433 . S
C702 C698 1.350 . S
C702 C699 1.463 . S
C702 N706 1.427 . S
C703 H693 0.929 . S
C703 C701 1.433 . S
C703 N706 1.384 . S
C704 H695 0.935 1_565 S
C704 C696 1.376 1_565 S
C704 C699 1.349 . S
C705 H692 0.929 . S
C705 C697 1.430 . S
C705 N707 1.384 . S
N706 C702 1.427 . S
N706 C703 1.384 . S
N707 C699 1.427 . S
N707 C705 1.384 . S
H708 C714 0.930 . S
H709 C718 0.930 . S
H710 C723 0.929 . S
H711 C721 0.929 . S
H712 C716 0.929 . S
H713 C722 0.929 . S
C714 H708 0.930 . S
C714 C715 1.367 . S
C714 C722 1.378 . S
C715 C714 1.367 . S
C715 C723 1.433 . S
C716 H712 0.929 . S
C716 C718 1.378 . S
C716 C720 1.350 . S
C717 C720 1.463 . S
C717 C722 1.350 . S
C717 N725 1.427 . S
C718 H709 0.930 . S
C718 C716 1.378 . S
C718 C719 1.367 . S
C719 C718 1.367 . S
C719 C721 1.433 . S
C720 C716 1.350 . S
C720 C717 1.463 . S
C720 N724 1.427 . S
C721 H711 0.929 . S
C721 C719 1.433 . S
C721 N724 1.384 . S
C722 H713 0.929 . S
C722 C714 1.378 . S
C722 C717 1.350 . S
C723 H710 0.929 . S
C723 C715 1.433 . S
C723 N725 1.384 . S
N724 C720 1.427 . S
N724 C721 1.384 . S
N725 C717 1.427 . S
N725 C723 1.384 . S
H726 C732 0.930 . S
H727 C736 0.930 . S
H728 C741 0.929 . S
H729 C739 0.929 . S
H730 C734 0.929 . S
H731 C740 0.929 . S
C732 H726 0.930 . S
C732 C733 1.367 . S
C732 C740 1.378 . S
C733 C732 1.367 . S
C733 C741 1.433 . S
C734 H730 0.929 . S
C734 C736 1.378 . S
C734 C738 1.350 . S
C735 C738 1.463 . S
C735 C740 1.350 . S
C735 N743 1.427 . S
C736 H727 0.930 . S
C736 C734 1.378 . S
C736 C737 1.367 . S
C737 C736 1.367 . S
C737 C739 1.433 . S
C738 C734 1.350 . S
C738 C735 1.463 . S
C738 N742 1.427 . S
C739 H729 0.929 . S
C739 C737 1.433 . S
C739 N742 1.384 . S
C740 H731 0.929 . S
C740 C732 1.378 . S
C740 C735 1.350 . S
C741 H728 0.929 . S
C741 C733 1.433 . S
C741 N743 1.384 . S
N742 C738 1.427 . S
N742 C739 1.384 . S
N743 C735 1.427 . S
N743 C741 1.384 . S
C319 C125 1.973 1_545 S
C323 C175 2.008 1_545 S
C341 C215 1.816 . S
C337 C144 1.649 . S
C359 C234 2.006 . S
C355 C87 1.938 . S
C377 C295 1.412 . S
C373 C106 1.369 . S
C395 C154 2.001 1_564 S
C391 C49 1.977 . S
C409 C68 1.718 . S
C413 C194 1.817 . S
C427 C11 1.995 . S
C431 C255 2.009 1_554 S
C445 C30 1.392 . S
C449 C274 1.414 . S
C467 C156 0.911 . S
C463 C97 0.912 . S
C485 C196 0.439 . S
C481 C116 0.493 1_545 S
C503 C252 1.113 . S
C499 C135 0.994 . S
C517 C78 0.519 . S
C521 C276 0.463 . S
C535 C21 0.915 . S
C539 C177 0.925 . S
C557 C217 0.420 . S
C553 C40 0.493 . S
C575 C263 1.123 . S
C571 C59 1.024 . S
C589 C2 0.484 . S
C593 C297 0.455 . S
C607 C101 1.465 . S
C611 C172 1.579 . S
C625 C120 2.177 1_545 S
C629 C212 2.360 . S
C647 C236 1.464 . S
C643 C139 1.466 . S
C665 C292 2.349 . S
C661 C82 2.172 . S
C679 C25 1.466 . S
C683 C183 1.589 . S
C701 C223 2.358 . S
C697 C44 2.179 . S
C719 C257 1.475 . S
C715 C63 1.467 . S
C733 C6 2.176 . S
C737 C303 2.351 . S
