# Generated by pormake.
# Topology ssb, (4,4)-cn, num edge types: 1
# Building blocks:
#     Node 0, Type 0, BuildingBlock: NAHDIM_clean_linker_0, # of connection points: 4
#     Node 1, Type 0, BuildingBlock: NAHDIM_clean_linker_0, # of connection points: 4
#     Node 2, Type 0, BuildingBlock: NAHDIM_clean_linker_0, # of connection points: 4
#     Node 3, Type 0, BuildingBlock: NAHDIM_clean_linker_0, # of connection points: 4
#     Node 4, Type 0, BuildingBlock: NAHDIM_clean_linker_0, # of connection points: 4
#     Node 5, Type 0, BuildingBlock: NAHDIM_clean_linker_0, # of connection points: 4
#     Node 6, Type 0, BuildingBlock: NAHDIM_clean_linker_0, # of connection points: 4
#     Node 7, Type 0, BuildingBlock: NAHDIM_clean_linker_0, # of connection points: 4
#     Node 8, Type 1, BuildingBlock: NAWXER_clean_sbu_0, # of connection points: 4
#     Node 9, Type 1, BuildingBlock: NAWXER_clean_sbu_0, # of connection points: 4
#     Node 10, Type 1, BuildingBlock: NAWXER_clean_sbu_0, # of connection points: 4
#     Node 11, Type 1, BuildingBlock: NAWXER_clean_sbu_0, # of connection points: 4
#     Node 12, Type 1, BuildingBlock: NAWXER_clean_sbu_0, # of connection points: 4
#     Node 13, Type 1, BuildingBlock: NAWXER_clean_sbu_0, # of connection points: 4
#     Node 14, Type 1, BuildingBlock: NAWXER_clean_sbu_0, # of connection points: 4
#     Node 15, Type 1, BuildingBlock: NAWXER_clean_sbu_0, # of connection points: 4
#     Edge 16, Type (0, 1), BuildingBlock: UVAHIK_clean_linker_0, # of connection points: 2
#     Edge 17, Type (0, 1), BuildingBlock: UVAHIK_clean_linker_0, # of connection points: 2
#     Edge 18, Type (0, 1), BuildingBlock: UVAHIK_clean_linker_0, # of connection points: 2
#     Edge 19, Type (0, 1), BuildingBlock: UVAHIK_clean_linker_0, # of connection points: 2
#     Edge 20, Type (0, 1), BuildingBlock: UVAHIK_clean_linker_0, # of connection points: 2
#     Edge 21, Type (0, 1), BuildingBlock: UVAHIK_clean_linker_0, # of connection points: 2
#     Edge 22, Type (0, 1), BuildingBlock: UVAHIK_clean_linker_0, # of connection points: 2
#     Edge 23, Type (0, 1), BuildingBlock: UVAHIK_clean_linker_0, # of connection points: 2
#     Edge 24, Type (0, 1), BuildingBlock: UVAHIK_clean_linker_0, # of connection points: 2
#     Edge 25, Type (0, 1), BuildingBlock: UVAHIK_clean_linker_0, # of connection points: 2
#     Edge 26, Type (0, 1), BuildingBlock: UVAHIK_clean_linker_0, # of connection points: 2
#     Edge 27, Type (0, 1), BuildingBlock: UVAHIK_clean_linker_0, # of connection points: 2
#     Edge 28, Type (0, 1), BuildingBlock: UVAHIK_clean_linker_0, # of connection points: 2
#     Edge 29, Type (0, 1), BuildingBlock: UVAHIK_clean_linker_0, # of connection points: 2
#     Edge 30, Type (0, 1), BuildingBlock: UVAHIK_clean_linker_0, # of connection points: 2
#     Edge 31, Type (0, 1), BuildingBlock: UVAHIK_clean_linker_0, # of connection points: 2
#     Edge 32, Type (0, 1), BuildingBlock: UVAHIK_clean_linker_0, # of connection points: 2
#     Edge 33, Type (0, 1), BuildingBlock: UVAHIK_clean_linker_0, # of connection points: 2
#     Edge 34, Type (0, 1), BuildingBlock: UVAHIK_clean_linker_0, # of connection points: 2
#     Edge 35, Type (0, 1), BuildingBlock: UVAHIK_clean_linker_0, # of connection points: 2
#     Edge 36, Type (0, 1), BuildingBlock: UVAHIK_clean_linker_0, # of connection points: 2
#     Edge 37, Type (0, 1), BuildingBlock: UVAHIK_clean_linker_0, # of connection points: 2
#     Edge 38, Type (0, 1), BuildingBlock: UVAHIK_clean_linker_0, # of connection points: 2
#     Edge 39, Type (0, 1), BuildingBlock: UVAHIK_clean_linker_0, # of connection points: 2
#     Edge 40, Type (0, 1), BuildingBlock: UVAHIK_clean_linker_0, # of connection points: 2
#     Edge 41, Type (0, 1), BuildingBlock: UVAHIK_clean_linker_0, # of connection points: 2
#     Edge 42, Type (0, 1), BuildingBlock: UVAHIK_clean_linker_0, # of connection points: 2
#     Edge 43, Type (0, 1), BuildingBlock: UVAHIK_clean_linker_0, # of connection points: 2
#     Edge 44, Type (0, 1), BuildingBlock: UVAHIK_clean_linker_0, # of connection points: 2
#     Edge 45, Type (0, 1), BuildingBlock: UVAHIK_clean_linker_0, # of connection points: 2
#     Edge 46, Type (0, 1), BuildingBlock: UVAHIK_clean_linker_0, # of connection points: 2
#     Edge 47, Type (0, 1), BuildingBlock: UVAHIK_clean_linker_0, # of connection points: 2
# Relax obj value: 0.005
# Max RMSD: 0.044
# Mean RMSD: 0.033
data_MOF--net-ssb--node1-NAWXER_clean_sbu_0--node2-NAHDIM_clean_linker_0--edge1-UVAHIK_clean_linker_0
_symmetry_space_group_name_H-M    P1
_symmetry_Int_Tables_number       1
_symmetry_cell_setting            triclinic
loop_
_symmetry_equiv_pos_as_xyz
'x, y, z'
_cell_length_a     75.347889
_cell_length_b     75.443906
_cell_length_c     64.768909
_cell_angle_alpha  90.026768
_cell_angle_beta   89.980852
_cell_angle_gamma 89.999223
loop_
_atom_site_label
_atom_site_type_symbol
_atom_site_fract_x
_atom_site_fract_y
_atom_site_fract_z
_atom_type_partial_charge
C0 C 0.2701 0.14516 0.32248 0.0
C1 C 0.28954 0.15084 0.32505 0.0
C2 C 0.29063 0.18295 0.31824 0.0
C3 C 0.29499 0.19933 0.32694 0.0
C4 C 0.29576 0.21475 0.31486 0.0
C5 C 0.29152 0.2138 0.29361 0.0
C6 C 0.28671 0.19734 0.28476 0.0
C7 C 0.28651 0.18205 0.29708 0.0
C8 C 0.30132 0.23199 0.32477 0.0
C9 C 0.28193 0.19586 0.26219 0.0
C10 C 0.40265 0.23095 0.22593 0.0
C11 C 0.38685 0.23282 0.21129 0.0
C12 C 0.36102 0.24826 0.22478 0.0
C13 C 0.34724 0.23784 0.21676 0.0
C14 C 0.33049 0.23764 0.22624 0.0
C15 C 0.3276 0.24794 0.24422 0.0
C16 C 0.34137 0.25886 0.25194 0.0
C17 C 0.35785 0.25911 0.24183 0.0
C18 C 0.316 0.2262 0.21727 0.0
C19 C 0.33887 0.26989 0.27117 0.0
C20 C 0.26632 0.34447 0.21356 0.0
C21 C 0.25726 0.32971 0.20562 0.0
C22 C 0.25355 0.31503 0.21821 0.0
C23 C 0.25898 0.31522 0.23911 0.0
C24 C 0.26726 0.33049 0.24739 0.0
C25 C 0.27065 0.34502 0.2345 0.0
C26 C 0.24422 0.29916 0.2091 0.0
C27 C 0.27295 0.33124 0.2697 0.0
C28 C 0.18118 0.25921 0.36024 0.0
C29 C 0.18197 0.27871 0.35374 0.0
C30 C 0.19544 0.28128 0.31937 0.0
C31 C 0.19422 0.27335 0.29992 0.0
C32 C 0.20846 0.27395 0.28596 0.0
C33 C 0.22426 0.28281 0.29165 0.0
C34 C 0.22535 0.29143 0.31101 0.0
C35 C 0.21085 0.29077 0.32457 0.0
C36 C 0.20675 0.26495 0.26526 0.0
C37 C 0.24186 0.30136 0.31738 0.0
C38 C 0.29289 0.22981 0.28039 0.0
C39 C 0.30829 0.23189 0.26863 0.0
C40 C 0.31056 0.24649 0.25563 0.0
C41 C 0.29705 0.25943 0.25417 0.0
C42 C 0.29874 0.27411 0.24097 0.0
C43 C 0.28562 0.28706 0.24012 0.0
C44 C 0.27024 0.28577 0.25236 0.0
C45 C 0.25702 0.29908 0.25198 0.0
C46 C 0.24202 0.29753 0.26453 0.0
C47 C 0.23979 0.28293 0.27756 0.0
C48 C 0.25273 0.26934 0.27796 0.0
C49 C 0.2508 0.25437 0.2907 0.0
C50 C 0.26377 0.24125 0.29126 0.0
C51 C 0.27935 0.24277 0.27943 0.0
C52 C 0.28148 0.25766 0.26631 0.0
C53 C 0.26809 0.27088 0.26545 0.0
C54 C 0.29711 0.36286 0.18148 0.0
C55 C 0.27762 0.35715 0.18155 0.0
O56 O 0.29052 0.16851 0.33083 0.0
O57 O 0.18135 0.27984 0.33237 0.0
O58 O 0.27105 0.35837 0.20149 0.0
O59 O 0.3775 0.24805 0.21639 0.0
H60 H 0.29661 0.1488 0.31014 0.0
H61 H 0.2636 0.15285 0.31002 0.0
H62 H 0.26252 0.14739 0.33696 0.0
H63 H 0.26937 0.13089 0.31833 0.0
H64 H 0.29812 0.19992 0.34326 0.0
H65 H 0.28305 0.16953 0.29003 0.0
H66 H 0.31237 0.23805 0.31588 0.0
H67 H 0.30563 0.23019 0.34103 0.0
H68 H 0.29004 0.24145 0.3245 0.0
H69 H 0.27621 0.1827 0.25829 0.0
H70 H 0.29403 0.19789 0.25271 0.0
H71 H 0.27223 0.20631 0.2579 0.0
H72 H 0.37844 0.2208 0.21342 0.0
H73 H 0.41028 0.21873 0.2223 0.0
H74 H 0.39785 0.23001 0.24211 0.0
H75 H 0.4116 0.24261 0.22466 0.0
H76 H 0.34961 0.22988 0.20311 0.0
H77 H 0.36856 0.26727 0.24768 0.0
H78 H 0.30337 0.23374 0.21633 0.0
H79 H 0.31375 0.21465 0.22755 0.0
H80 H 0.31945 0.22119 0.20164 0.0
H81 H 0.35135 0.27648 0.27611 0.0
H82 H 0.33398 0.26145 0.28402 0.0
H83 H 0.32872 0.28025 0.26829 0.0
H84 H 0.27737 0.34321 0.1759 0.0
H85 H 0.25311 0.32961 0.18961 0.0
H86 H 0.2773 0.35666 0.24053 0.0
H87 H 0.25337 0.28763 0.20909 0.0
H88 H 0.23969 0.30158 0.19302 0.0
H89 H 0.23257 0.29559 0.21874 0.0
H90 H 0.27944 0.34401 0.27369 0.0
H91 H 0.28233 0.32026 0.27303 0.0
H92 H 0.2612 0.32944 0.27982 0.0
H93 H 0.19459 0.28401 0.36 0.0
H94 H 0.18105 0.25809 0.37735 0.0
H95 H 0.19307 0.25213 0.35432 0.0
H96 H 0.16918 0.25261 0.3539 0.0
H97 H 0.18213 0.26638 0.29585 0.0
H98 H 0.21162 0.29794 0.33899 0.0
H99 H 0.21659 0.25403 0.26414 0.0
H100 H 0.20975 0.27453 0.25272 0.0
H101 H 0.19327 0.25939 0.26273 0.0
H102 H 0.24101 0.30646 0.33345 0.0
H103 H 0.24394 0.31274 0.30681 0.0
H104 H 0.25364 0.29259 0.31612 0.0
H105 H 0.31873 0.22202 0.26968 0.0
H106 H 0.3103 0.27581 0.23123 0.0
H107 H 0.28775 0.29814 0.22981 0.0
H108 H 0.23211 0.30796 0.26443 0.0
H109 H 0.23922 0.25261 0.30038 0.0
H110 H 0.26154 0.22999 0.30129 0.0
H111 H 0.30263 0.36211 0.16558 0.0
H112 H 0.30494 0.35388 0.19156 0.0
H113 H 0.29857 0.37662 0.18735 0.0
C114 C 0.66022 0.1888 0.18637 0.0
C115 C 0.66211 0.20497 0.17217 0.0
C116 C 0.69294 0.21312 0.17898 0.0
C117 C 0.69006 0.22612 0.19417 0.0
C118 C 0.70342 0.23057 0.20831 0.0
C119 C 0.72006 0.22196 0.20715 0.0
C120 C 0.72343 0.20979 0.19099 0.0
C121 C 0.70982 0.20563 0.17697 0.0
C122 C 0.69949 0.2439 0.2251 0.0
C123 C 0.74114 0.20062 0.18912 0.0
C124 C 0.74489 0.13436 0.33993 0.0
C125 C 0.74941 0.14544 0.32173 0.0
C126 C 0.73824 0.17117 0.303 0.0
C127 C 0.75283 0.17229 0.28951 0.0
C128 C 0.75399 0.18591 0.27487 0.0
C129 C 0.74053 0.19896 0.27402 0.0
C130 C 0.72592 0.19801 0.28771 0.0
C131 C 0.72491 0.184 0.30192 0.0
C132 C 0.76958 0.18625 0.2602 0.0
C133 C 0.71141 0.21179 0.28733 0.0
C134 C 0.81485 0.28036 0.32455 0.0
C135 C 0.82216 0.26845 0.31023 0.0
C136 C 0.81409 0.26576 0.29095 0.0
C137 C 0.79835 0.2751 0.28603 0.0
C138 C 0.79141 0.28765 0.30013 0.0
C139 C 0.79992 0.29027 0.31915 0.0
C140 C 0.8222 0.25277 0.27595 0.0
C141 C 0.77479 0.298 0.29529 0.0
C142 C 0.77344 0.33892 0.14718 0.0
C143 C 0.78888 0.34409 0.16137 0.0
C144 C 0.79359 0.31751 0.18272 0.0
C145 C 0.80458 0.30286 0.18587 0.0
C146 C 0.80088 0.2904 0.20136 0.0
C147 C 0.78585 0.2928 0.21416 0.0
C148 C 0.77464 0.3076 0.21112 0.0
C149 C 0.7785 0.31971 0.19531 0.0
C150 C 0.81309 0.27473 0.20416 0.0
C151 C 0.75865 0.3107 0.2247 0.0
C152 C 0.73281 0.22386 0.22446 0.0
C153 C 0.73149 0.21157 0.24052 0.0
C154 C 0.74162 0.2133 0.25842 0.0
C155 C 0.75311 0.22796 0.26074 0.0
C156 C 0.76252 0.2308 0.27918 0.0
C157 C 0.77401 0.24511 0.28121 0.0
C158 C 0.7768 0.25693 0.26473 0.0
C159 C 0.78875 0.2713 0.26651 0.0
C160 C 0.79141 0.28262 0.24974 0.0
C161 C 0.78224 0.28018 0.2312 0.0
C162 C 0.76991 0.26612 0.22925 0.0
C163 C 0.76011 0.26351 0.21099 0.0
C164 C 0.74779 0.2498 0.20943 0.0
C165 C 0.74518 0.2379 0.22584 0.0
C166 C 0.75521 0.24007 0.2442 0.0
C167 C 0.76733 0.25438 0.24605 0.0
C168 C 0.81499 0.26752 0.37455 0.0
C169 C 0.82795 0.2694 0.35651 0.0
O170 O 0.67972 0.20721 0.16641 0.0
O171 O 0.79811 0.32909 0.16747 0.0
O172 O 0.82203 0.28278 0.34354 0.0
O173 O 0.73655 0.15796 0.31714 0.0
H174 H 0.65735 0.21663 0.18101 0.0
H175 H 0.66725 0.19128 0.20116 0.0
H176 H 0.66606 0.17678 0.17915 0.0
H177 H 0.64601 0.18629 0.1899 0.0
H178 H 0.6774 0.23277 0.19528 0.0
H179 H 0.71206 0.19587 0.16497 0.0
H180 H 0.70013 0.23729 0.24041 0.0
H181 H 0.68619 0.25005 0.22333 0.0
H182 H 0.70968 0.25453 0.22497 0.0
H183 H 0.74242 0.19321 0.17437 0.0
H184 H 0.74274 0.19116 0.20212 0.0
H185 H 0.75206 0.21046 0.1902 0.0
H186 H 0.75388 0.13789 0.30783 0.0
H187 H 0.74287 0.12065 0.33352 0.0
H188 H 0.7304 0.13667 0.34325 0.0
H189 H 0.76447 0.14 0.36089 0.0
H190 H 0.76331 0.16251 0.29015 0.0
H191 H 0.71372 0.18307 0.3124 0.0
H192 H 0.77821 0.19773 0.26389 0.0
H193 H 0.76489 0.18786 0.24405 0.0
H194 H 0.77771 0.17399 0.26116 0.0
H195 H 0.70203 0.21029 0.30045 0.0
H196 H 0.70383 0.21062 0.2727 0.0
H197 H 0.71726 0.2253 0.28784 0.0
H198 H 0.82821 0.25641 0.34836 0.0
H199 H 0.8342 0.26134 0.31406 0.0
H200 H 0.79462 0.29968 0.33019 0.0
H201 H 0.81326 0.24119 0.27414 0.0
H202 H 0.83539 0.24796 0.28119 0.0
H203 H 0.82369 0.25904 0.26053 0.0
H204 H 0.77072 0.30677 0.30824 0.0
H205 H 0.76373 0.28875 0.29179 0.0
H206 H 0.77701 0.30628 0.28137 0.0
H207 H 0.7836 0.35113 0.17515 0.0
H208 H 0.76608 0.35093 0.14216 0.0
H209 H 0.76401 0.33011 0.15544 0.0
H210 H 0.77841 0.33179 0.13332 0.0
H211 H 0.81615 0.30121 0.1761 0.0
H212 H 0.76967 0.33082 0.19306 0.0
H213 H 0.80529 0.26224 0.20415 0.0
H214 H 0.81985 0.27574 0.21934 0.0
H215 H 0.82335 0.27396 0.19187 0.0
H216 H 0.75194 0.32348 0.22127 0.0
H217 H 0.76267 0.31064 0.2412 0.0
H218 H 0.74895 0.2998 0.22249 0.0
H219 H 0.72234 0.20052 0.2391 0.0
H220 H 0.76099 0.22205 0.29231 0.0
H221 H 0.7808 0.24668 0.29582 0.0
H222 H 0.80067 0.29357 0.2512 0.0
H223 H 0.76174 0.27215 0.19778 0.0
H224 H 0.74048 0.24846 0.19512 0.0
H225 H 0.8194 0.2568 0.38513 0.0
H226 H 0.8016 0.26407 0.36862 0.0
H227 H 0.81403 0.28014 0.38335 0.0
C228 C 0.73348 0.86913 0.3254 0.0
C229 C 0.71403 0.86326 0.32715 0.0
C230 C 0.71414 0.83119 0.3197 0.0
C231 C 0.71056 0.81451 0.32808 0.0
C232 C 0.71126 0.79914 0.31589 0.0
C233 C 0.71618 0.80049 0.29487 0.0
C234 C 0.72005 0.8173 0.2863 0.0
C235 C 0.7188 0.8325 0.29872 0.0
C236 C 0.7066 0.7815 0.32545 0.0
C237 C 0.72547 0.8192 0.26397 0.0
C238 C 0.63109 0.72159 0.19511 0.0
C239 C 0.64084 0.73912 0.19164 0.0
C240 C 0.65484 0.7539 0.22075 0.0
C241 C 0.66945 0.76188 0.21113 0.0
C242 C 0.68449 0.7667 0.22264 0.0
C243 C 0.68501 0.76295 0.24407 0.0
C244 C 0.67 0.7554 0.25385 0.0
C245 C 0.65495 0.75127 0.24206 0.0
C246 C 0.69988 0.77554 0.21186 0.0
C247 C 0.66997 0.75132 0.27667 0.0
C248 C 0.76189 0.68034 0.20516 0.0
C249 C 0.76868 0.69743 0.20143 0.0
C250 C 0.76884 0.71031 0.21703 0.0
C251 C 0.76215 0.70607 0.23682 0.0
C252 C 0.75586 0.68876 0.24088 0.0
C253 C 0.7558 0.67612 0.22495 0.0
C254 C 0.77579 0.72863 0.21225 0.0
C255 C 0.74879 0.6838 0.26188 0.0
C256 C 0.83371 0.76436 0.36578 0.0
C257 C 0.83208 0.74572 0.35666 0.0
C258 C 0.81876 0.74363 0.32208 0.0
C259 C 0.81866 0.75253 0.30317 0.0
C260 C 0.8047 0.7503 0.28907 0.0
C261 C 0.79048 0.73886 0.29412 0.0
C262 C 0.79085 0.72922 0.31284 0.0
C263 C 0.8051 0.73152 0.32652 0.0
C264 C 0.80501 0.76034 0.26893 0.0
C265 C 0.77611 0.71655 0.31843 0.0
C266 C 0.71668 0.78443 0.28162 0.0
C267 C 0.70198 0.78105 0.26906 0.0
C268 C 0.70143 0.76622 0.25616 0.0
C269 C 0.71606 0.75448 0.25546 0.0
C270 C 0.71602 0.7395 0.24252 0.0
C271 C 0.73065 0.72833 0.24149 0.0
C272 C 0.7457 0.73137 0.25382 0.0
C273 C 0.76071 0.72016 0.25271 0.0
C274 C 0.77509 0.72298 0.26592 0.0
C275 C 0.7751 0.73706 0.27997 0.0
C276 C 0.76058 0.74896 0.28057 0.0
C277 C 0.76049 0.76375 0.29382 0.0
C278 C 0.74626 0.77553 0.29401 0.0
C279 C 0.73134 0.7727 0.28138 0.0
C280 C 0.73105 0.75775 0.26812 0.0
C281 C 0.74578 0.74601 0.26753 0.0
C282 C 0.75086 0.67966 0.15778 0.0
C283 C 0.76526 0.66939 0.16955 0.0
O284 O 0.71304 0.84548 0.33245 0.0
O285 O 0.8324 0.74684 0.33528 0.0
O286 O 0.76071 0.66768 0.1902 0.0
O287 O 0.64038 0.74873 0.20988 0.0
H288 H 0.70727 0.86549 0.31209 0.0
H289 H 0.74041 0.86166 0.31305 0.0
H290 H 0.74065 0.86678 0.34013 0.0
H291 H 0.7342 0.88346 0.32154 0.0
H292 H 0.70695 0.81361 0.34425 0.0
H293 H 0.72157 0.84527 0.29188 0.0
H294 H 0.69637 0.7747 0.31599 0.0
H295 H 0.70156 0.78292 0.34148 0.0
H296 H 0.71854 0.77289 0.32573 0.0
H297 H 0.72977 0.8329 0.26017 0.0
H298 H 0.71409 0.81567 0.25388 0.0
H299 H 0.73648 0.80992 0.26036 0.0
H300 H 0.65478 0.73583 0.18731 0.0
H301 H 0.63173 0.71317 0.18105 0.0
H302 H 0.61695 0.72404 0.19909 0.0
H303 H 0.6374 0.71422 0.20801 0.0
H304 H 0.66904 0.76442 0.19467 0.0
H305 H 0.64342 0.74534 0.24931 0.0
H306 H 0.7048 0.78693 0.2211 0.0
H307 H 0.69621 0.78031 0.19621 0.0
H308 H 0.71095 0.76594 0.21027 0.0
H309 H 0.65785 0.74405 0.28154 0.0
H310 H 0.67074 0.76388 0.28556 0.0
H311 H 0.6818 0.74325 0.28074 0.0
H312 H 0.77799 0.67676 0.16817 0.0
H313 H 0.77364 0.70102 0.18635 0.0
H314 H 0.7507 0.66291 0.22779 0.0
H315 H 0.76489 0.73845 0.21386 0.0
H316 H 0.78131 0.72962 0.19639 0.0
H317 H 0.78631 0.73229 0.22347 0.0
H318 H 0.7451 0.66957 0.26284 0.0
H319 H 0.73691 0.69195 0.26544 0.0
H320 H 0.75892 0.68672 0.27386 0.0
H321 H 0.81926 0.7404 0.36242 0.0
H322 H 0.83389 0.76375 0.38292 0.0
H323 H 0.82215 0.7725 0.36095 0.0
H324 H 0.846 0.77102 0.36032 0.0
H325 H 0.82947 0.76152 0.29964 0.0
H326 H 0.80552 0.72368 0.34048 0.0
H327 H 0.79381 0.76989 0.26854 0.0
H328 H 0.80321 0.75101 0.25583 0.0
H329 H 0.8176 0.76775 0.26669 0.0
H330 H 0.77801 0.71053 0.33393 0.0
H331 H 0.77543 0.70577 0.30678 0.0
H332 H 0.76317 0.72359 0.3182 0.0
H333 H 0.69073 0.79003 0.26947 0.0
H334 H 0.70475 0.73633 0.23285 0.0
H335 H 0.72994 0.71717 0.23101 0.0
H336 H 0.78648 0.7142 0.26514 0.0
H337 H 0.77152 0.7665 0.30404 0.0
H338 H 0.74704 0.78681 0.3043 0.0
H339 H 0.75416 0.68024 0.14107 0.0
H340 H 0.74986 0.69346 0.16358 0.0
H341 H 0.73767 0.67328 0.15969 0.0
C342 C 0.31221 0.81003 0.12183 0.0
C343 C 0.32529 0.81523 0.13891 0.0
C344 C 0.31549 0.79933 0.17021 0.0
C345 C 0.3203 0.78618 0.1843 0.0
C346 C 0.31011 0.7829 0.20202 0.0
C347 C 0.29451 0.79289 0.20553 0.0
C348 C 0.28932 0.806 0.19113 0.0
C349 C 0.29991 0.80917 0.17366 0.0
C350 C 0.31616 0.76894 0.21714 0.0
C351 C 0.27263 0.81673 0.19427 0.0
C352 C 0.26853 0.87429 0.34591 0.0
C353 C 0.26473 0.86352 0.32721 0.0
C354 C 0.27893 0.84212 0.30437 0.0
C355 C 0.26411 0.83971 0.29149 0.0
C356 C 0.26385 0.82627 0.27659 0.0
C357 C 0.27847 0.81456 0.27493 0.0
C358 C 0.29349 0.817 0.28773 0.0
C359 C 0.29359 0.83094 0.30213 0.0
C360 C 0.24785 0.82461 0.26265 0.0
C361 C 0.30927 0.80476 0.2864 0.0
C362 C 0.20795 0.73282 0.33018 0.0
C363 C 0.19999 0.74514 0.31683 0.0
C364 C 0.20681 0.74798 0.29693 0.0
C365 C 0.22189 0.73832 0.29033 0.0
C366 C 0.22941 0.72534 0.30343 0.0
C367 C 0.22218 0.72264 0.32314 0.0
C368 C 0.19813 0.76152 0.28308 0.0
C369 C 0.24536 0.71466 0.2968 0.0
C370 C 0.21926 0.71106 0.12824 0.0
C371 C 0.22184 0.6969 0.14487 0.0
C372 C 0.21563 0.70772 0.17941 0.0
C373 C 0.2058 0.72186 0.18727 0.0
C374 C 0.21123 0.73074 0.20521 0.0
C375 C 0.22663 0.72493 0.21576 0.0
C376 C 0.236 0.7099 0.20855 0.0
C377 C 0.23043 0.70147 0.19034 0.0
C378 C 0.20078 0.74658 0.21261 0.0
C379 C 0.25208 0.70299 0.21985 0.0
C380 C 0.28408 0.7901 0.22471 0.0
C381 C 0.28671 0.80195 0.24103 0.0
C382 C 0.27778 0.79983 0.25977 0.0
C383 C 0.2667 0.78495 0.26282 0.0
C384 C 0.25877 0.78156 0.28207 0.0
C385 C 0.24721 0.76737 0.28466 0.0
C386 C 0.24276 0.7563 0.26795 0.0
C387 C 0.23035 0.74236 0.27016 0.0
C388 C 0.2257 0.73208 0.25304 0.0
C389 C 0.23333 0.73518 0.23369 0.0
C390 C 0.24631 0.74859 0.23135 0.0
C391 C 0.25468 0.75172 0.21226 0.0
C392 C 0.26732 0.76506 0.21012 0.0
C393 C 0.27167 0.77614 0.22682 0.0
C394 C 0.26319 0.77339 0.24609 0.0
C395 C 0.25083 0.75934 0.2485 0.0
C396 C 0.2069 0.74382 0.38247 0.0
C397 C 0.19557 0.7433 0.3629 0.0
O398 O 0.32626 0.80192 0.15362 0.0
O399 O 0.21054 0.70036 0.16126 0.0
O400 O 0.20221 0.73033 0.34983 0.0
O401 O 0.27946 0.85494 0.31913 0.0
H402 H 0.32082 0.82781 0.14624 0.0
H403 H 0.29871 0.80811 0.1283 0.0
H404 H 0.31639 0.79746 0.1143 0.0
H405 H 0.31151 0.82065 0.10998 0.0
H406 H 0.33229 0.7786 0.18149 0.0
H407 H 0.29585 0.81929 0.16283 0.0
H408 H 0.31731 0.77477 0.23283 0.0
H409 H 0.32915 0.76306 0.21277 0.0
H410 H 0.30614 0.75817 0.21792 0.0
H411 H 0.26936 0.825 0.1806 0.0
H412 H 0.27434 0.82559 0.20782 0.0
H413 H 0.26126 0.80781 0.19758 0.0
H414 H 0.25665 0.87054 0.31534 0.0
H415 H 0.26556 0.88837 0.34129 0.0
H416 H 0.28335 0.87628 0.34635 0.0
H417 H 0.25452 0.86118 0.36939 0.0
H418 H 0.25272 0.84835 0.29282 0.0
H419 H 0.30499 0.83292 0.31208 0.0
H420 H 0.23985 0.81297 0.26742 0.0
H421 H 0.25203 0.82253 0.24638 0.0
H422 H 0.23921 0.83653 0.26335 0.0
H423 H 0.31916 0.8074 0.29874 0.0
H424 H 0.31584 0.80641 0.27118 0.0
H425 H 0.30484 0.79075 0.28756 0.0
H426 H 0.19664 0.75667 0.35571 0.0
H427 H 0.18844 0.75251 0.32191 0.0
H428 H 0.22801 0.71293 0.33345 0.0
H429 H 0.20741 0.77273 0.28047 0.0
H430 H 0.18564 0.76682 0.28978 0.0
H431 H 0.19517 0.75553 0.2678 0.0
H432 H 0.24968 0.70512 0.30884 0.0
H433 H 0.25657 0.72372 0.29323 0.0
H434 H 0.2422 0.70721 0.28247 0.0
H435 H 0.23598 0.69768 0.14982 0.0
H436 H 0.22814 0.70844 0.11488 0.0
H437 H 0.22257 0.72431 0.13464 0.0
H438 H 0.20527 0.7113 0.1228 0.0
H439 H 0.1942 0.72634 0.17885 0.0
H440 H 0.23761 0.69004 0.18463 0.0
H441 H 0.2096 0.75835 0.21361 0.0
H442 H 0.19556 0.74397 0.22834 0.0
H443 H 0.18946 0.74976 0.20227 0.0
H444 H 0.2568 0.69016 0.21347 0.0
H445 H 0.24897 0.70124 0.23649 0.0
H446 H 0.26301 0.71281 0.2187 0.0
H447 H 0.29546 0.81322 0.23892 0.0
H448 H 0.2615 0.78984 0.29536 0.0
H449 H 0.24154 0.76541 0.29984 0.0
H450 H 0.21584 0.7217 0.25472 0.0
H451 H 0.25163 0.74383 0.19876 0.0
H452 H 0.27338 0.76683 0.1951 0.0
H453 H 0.20196 0.75423 0.39318 0.0
H454 H 0.22087 0.74697 0.37839 0.0
H455 H 0.20662 0.7308 0.39048 0.0
C456 C 0.19951 0.70361 0.62358 0.0
C457 C 0.18617 0.69868 0.64051 0.0
C458 C 0.19632 0.71468 0.67161 0.0
C459 C 0.19193 0.72817 0.68547 0.0
C460 C 0.20247 0.73166 0.70286 0.0
C461 C 0.21799 0.72154 0.70624 0.0
C462 C 0.22269 0.70799 0.69213 0.0
C463 C 0.21176 0.70461 0.67503 0.0
C464 C 0.19691 0.74604 0.71772 0.0
C465 C 0.23925 0.69704 0.69518 0.0
C466 C 0.24195 0.6344 0.83885 0.0
C467 C 0.24597 0.64631 0.82118 0.0
C468 C 0.23452 0.67261 0.80374 0.0
C469 C 0.24883 0.67398 0.78988 0.0
C470 C 0.24962 0.68777 0.77543 0.0
C471 C 0.23608 0.70078 0.77515 0.0
C472 C 0.22177 0.6996 0.78922 0.0
C473 C 0.22112 0.68542 0.80326 0.0
C474 C 0.2649 0.68829 0.76032 0.0
C475 C 0.2072 0.7133 0.78942 0.0
C476 C 0.31667 0.77873 0.8211 0.0
C477 C 0.32252 0.76612 0.80668 0.0
C478 C 0.31331 0.76349 0.7881 0.0
C479 C 0.298 0.77373 0.78387 0.0
C480 C 0.29249 0.78691 0.79803 0.0
C481 C 0.30204 0.78935 0.81641 0.0
C482 C 0.31984 0.74969 0.77302 0.0
C483 C 0.27636 0.7982 0.79388 0.0
C484 C 0.28632 0.81237 0.6243 0.0
C485 C 0.29062 0.82369 0.64325 0.0
C486 C 0.29716 0.80623 0.67414 0.0
C487 C 0.30511 0.79005 0.67895 0.0
C488 C 0.30044 0.78076 0.69689 0.0
C489 C 0.28763 0.78802 0.71045 0.0
C490 C 0.28008 0.80478 0.70614 0.0
C491 C 0.285 0.81379 0.68806 0.0
C492 C 0.30899 0.76305 0.7012 0.0
C493 C 0.26672 0.81305 0.72058 0.0
C494 C 0.22899 0.72471 0.7249 0.0
C495 C 0.22677 0.71324 0.74164 0.0
C496 C 0.23681 0.71522 0.75962 0.0
C497 C 0.2488 0.72954 0.76145 0.0
C498 C 0.25825 0.73258 0.77982 0.0
C499 C 0.27065 0.74619 0.78115 0.0
C500 C 0.27432 0.75706 0.76402 0.0
C501 C 0.28751 0.77038 0.76488 0.0
C502 C 0.29124 0.78053 0.74736 0.0
C503 C 0.28198 0.77787 0.72892 0.0
C504 C 0.26833 0.76502 0.72794 0.0
C505 C 0.25843 0.76233 0.70978 0.0
C506 C 0.24535 0.74932 0.70882 0.0
C507 C 0.24184 0.73835 0.72588 0.0
C508 C 0.25164 0.74087 0.74433 0.0
C509 C 0.26468 0.75442 0.74548 0.0
C510 C 0.31807 0.76519 0.86986 0.0
C511 C 0.33137 0.7681 0.85235 0.0
O512 O 0.18533 0.712 0.65524 0.0
O513 O 0.30183 0.81429 0.65621 0.0
O514 O 0.32506 0.78131 0.83939 0.0
O515 O 0.23316 0.65916 0.81765 0.0
H516 H 0.19029 0.68601 0.64788 0.0
H517 H 0.213 0.70523 0.63015 0.0
H518 H 0.19567 0.71628 0.61604 0.0
H519 H 0.20007 0.693 0.6117 0.0
H520 H 0.18003 0.73589 0.6827 0.0
H521 H 0.21544 0.69414 0.66447 0.0
H522 H 0.19609 0.7406 0.73362 0.0
H523 H 0.18387 0.75193 0.71359 0.0
H524 H 0.20703 0.75672 0.71781 0.0
H525 H 0.24215 0.68843 0.68168 0.0
H526 H 0.23762 0.6885 0.70901 0.0
H527 H 0.25084 0.70582 0.69798 0.0
H528 H 0.25017 0.63927 0.80684 0.0
H529 H 0.24031 0.62085 0.83183 0.0
H530 H 0.22741 0.63612 0.8424 0.0
H531 H 0.26196 0.64026 0.86017 0.0
H532 H 0.25938 0.66427 0.79008 0.0
H533 H 0.21016 0.68431 0.81402 0.0
H534 H 0.27371 0.69962 0.7641 0.0
H535 H 0.25992 0.69026 0.74435 0.0
H536 H 0.27296 0.67596 0.76073 0.0
H537 H 0.19795 0.71148 0.80261 0.0
H538 H 0.19951 0.71243 0.77484 0.0
H539 H 0.21302 0.72681 0.79024 0.0
H540 H 0.33269 0.75528 0.84401 0.0
H541 H 0.33438 0.75847 0.80977 0.0
H542 H 0.29787 0.7993 0.82747 0.0
H543 H 0.30971 0.73911 0.77135 0.0
H544 H 0.33253 0.74354 0.77803 0.0
H545 H 0.32179 0.75578 0.75758 0.0
H546 H 0.27368 0.80775 0.80657 0.0
H547 H 0.26454 0.78959 0.79182 0.0
H548 H 0.27826 0.80572 0.7793 0.0
H549 H 0.27773 0.82661 0.65088 0.0
H550 H 0.27753 0.81979 0.61356 0.0
H551 H 0.27931 0.80011 0.62919 0.0
H552 H 0.29863 0.8085 0.616 0.0
H553 H 0.31474 0.78452 0.66831 0.0
H554 H 0.27949 0.82677 0.68501 0.0
H555 H 0.29867 0.75255 0.70144 0.0
H556 H 0.31536 0.76327 0.71666 0.0
H557 H 0.31915 0.75951 0.68947 0.0
H558 H 0.26206 0.82619 0.71506 0.0
H559 H 0.2727 0.81466 0.73613 0.0
H560 H 0.25507 0.80413 0.72222 0.0
H561 H 0.21751 0.70228 0.7404 0.0
H562 H 0.25614 0.72445 0.79337 0.0
H563 H 0.27755 0.74789 0.79567 0.0
H564 H 0.30168 0.79042 0.74798 0.0
H565 H 0.2607 0.77025 0.6961 0.0
H566 H 0.23821 0.7478 0.69443 0.0
H567 H 0.32286 0.75464 0.88045 0.0
H568 H 0.30508 0.76098 0.86338 0.0
H569 H 0.31606 0.77761 0.8788 0.0
C570 C 0.23505 0.36984 0.82823 0.0
C571 C 0.21595 0.363 0.83019 0.0
C572 C 0.21715 0.3309 0.82331 0.0
C573 C 0.214 0.31422 0.83194 0.0
C574 C 0.21466 0.2988 0.81984 0.0
C575 C 0.21896 0.30013 0.79865 0.0
C576 C 0.22259 0.31692 0.78989 0.0
C577 C 0.22148 0.33215 0.80224 0.0
C578 C 0.21058 0.28112 0.82963 0.0
C579 C 0.22749 0.31879 0.76739 0.0
C580 C 0.10866 0.27285 0.73007 0.0
C581 C 0.12538 0.2735 0.71671 0.0
C582 C 0.15261 0.26027 0.72966 0.0
C583 C 0.16509 0.27247 0.72217 0.0
C584 C 0.18181 0.2741 0.73151 0.0
C585 C 0.18601 0.26343 0.74882 0.0
C586 C 0.17364 0.25069 0.75593 0.0
C587 C 0.15717 0.24908 0.74597 0.0
C588 C 0.19482 0.2875 0.72316 0.0
C589 C 0.17759 0.23916 0.77439 0.0
C590 C 0.26595 0.18625 0.69865 0.0
C591 C 0.27094 0.20405 0.69573 0.0
C592 C 0.27047 0.21615 0.71213 0.0
C593 C 0.26501 0.21037 0.7319 0.0
C594 C 0.2603 0.19244 0.73503 0.0
C595 C 0.26079 0.18061 0.71831 0.0
C596 C 0.27553 0.23523 0.70824 0.0
C597 C 0.25446 0.1859 0.75596 0.0
C598 C 0.35454 0.27228 0.84283 0.0
C599 C 0.34511 0.25444 0.84052 0.0
C600 C 0.32767 0.24781 0.80962 0.0
C601 C 0.32605 0.25386 0.78935 0.0
C602 C 0.31022 0.25156 0.77829 0.0
C603 C 0.29585 0.2425 0.78761 0.0
C604 C 0.29765 0.23577 0.80791 0.0
C605 C 0.31355 0.23857 0.81876 0.0
C606 C 0.30893 0.25877 0.75661 0.0
C607 C 0.28282 0.22554 0.81806 0.0
C608 C 0.21896 0.28412 0.78536 0.0
C609 C 0.20359 0.2805 0.77406 0.0
C610 C 0.20288 0.26632 0.76021 0.0
C611 C 0.21795 0.25541 0.75743 0.0
C612 C 0.21794 0.24147 0.74304 0.0
C613 C 0.23288 0.2309 0.7403 0.0
C614 C 0.24836 0.23379 0.75197 0.0
C615 C 0.26371 0.22335 0.74901 0.0
C616 C 0.27872 0.2262 0.76121 0.0
C617 C 0.27912 0.23976 0.77592 0.0
C618 C 0.26413 0.25085 0.77854 0.0
C619 C 0.26435 0.26521 0.7924 0.0
C620 C 0.2496 0.27617 0.79462 0.0
C621 C 0.234 0.27307 0.78326 0.0
C622 C 0.23348 0.25867 0.76921 0.0
C623 C 0.24862 0.24768 0.76669 0.0
C624 C 0.2552 0.18613 0.6509 0.0
C625 C 0.27036 0.17695 0.66258 0.0
O626 O 0.21592 0.34529 0.83589 0.0
O627 O 0.34318 0.25081 0.81966 0.0
O628 O 0.26569 0.17419 0.68303 0.0
O629 O 0.13606 0.25911 0.72155 0.0
H630 H 0.20905 0.36465 0.81511 0.0
H631 H 0.24235 0.36246 0.81609 0.0
H632 H 0.24234 0.36819 0.84302 0.0
H633 H 0.23502 0.3841 0.82395 0.0
H634 H 0.21074 0.31337 0.84821 0.0
H635 H 0.22407 0.3449 0.79527 0.0
H636 H 0.19949 0.27462 0.82125 0.0
H637 H 0.20692 0.2824 0.84618 0.0
H638 H 0.22233 0.27231 0.82836 0.0
H639 H 0.23175 0.33247 0.76345 0.0
H640 H 0.21586 0.31531 0.75771 0.0
H641 H 0.23837 0.30946 0.76341 0.0
H642 H 0.13222 0.28619 0.72048 0.0
H643 H 0.09992 0.28433 0.72656 0.0
H644 H 0.11239 0.27347 0.74664 0.0
H645 H 0.10118 0.26037 0.72733 0.0
H646 H 0.16172 0.28073 0.70906 0.0
H647 H 0.14748 0.23955 0.75142 0.0
H648 H 0.19558 0.2989 0.73394 0.0
H649 H 0.19082 0.29253 0.70773 0.0
H650 H 0.2083 0.28162 0.72198 0.0
H651 H 0.16614 0.23064 0.7787 0.0
H652 H 0.18118 0.24755 0.78785 0.0
H653 H 0.18913 0.23051 0.77097 0.0
H654 H 0.28243 0.18541 0.66176 0.0
H655 H 0.27504 0.20874 0.68071 0.0
H656 H 0.25701 0.16688 0.72046 0.0
H657 H 0.26398 0.24395 0.71141 0.0
H658 H 0.28001 0.23752 0.69212 0.0
H659 H 0.28635 0.23921 0.71891 0.0
H660 H 0.25152 0.17146 0.75597 0.0
H661 H 0.24237 0.19319 0.76089 0.0
H662 H 0.26498 0.18863 0.76753 0.0
H663 H 0.33193 0.25582 0.84815 0.0
H664 H 0.35596 0.27582 0.8594 0.0
H665 H 0.34667 0.28282 0.83512 0.0
H666 H 0.36793 0.2718 0.83562 0.0
H667 H 0.33716 0.26073 0.78235 0.0
H668 H 0.31503 0.23326 0.8342 0.0
H669 H 0.2963 0.26613 0.7545 0.0
H670 H 0.30901 0.24756 0.74552 0.0
H671 H 0.32018 0.26772 0.7528 0.0
H672 H 0.28679 0.22 0.83327 0.0
H673 H 0.27851 0.2145 0.80788 0.0
H674 H 0.27122 0.23439 0.82039 0.0
H675 H 0.19207 0.28898 0.7759 0.0
H676 H 0.20641 0.23865 0.73362 0.0
H677 H 0.23212 0.2204 0.72894 0.0
H678 H 0.29044 0.2181 0.7588 0.0
H679 H 0.27598 0.26822 0.80157 0.0
H680 H 0.25056 0.28708 0.80543 0.0
H681 H 0.25881 0.18782 0.63438 0.0
H682 H 0.25255 0.19945 0.65745 0.0
H683 H 0.24278 0.17825 0.65192 0.0
C684 C 0.81302 0.31618 0.6265 0.0
C685 C 0.82694 0.31774 0.64365 0.0
C686 C 0.81587 0.29887 0.67205 0.0
C687 C 0.81923 0.28336 0.68314 0.0
C688 C 0.80878 0.27858 0.70017 0.0
C689 C 0.79438 0.28951 0.70603 0.0
C690 C 0.79071 0.30513 0.69473 0.0
C691 C 0.80154 0.30972 0.67789 0.0
C692 C 0.81324 0.26195 0.71202 0.0
C693 C 0.77538 0.31701 0.70052 0.0
C694 C 0.80443 0.31157 0.86325 0.0
C695 C 0.80579 0.32727 0.8483 0.0
C696 C 0.78943 0.31829 0.81699 0.0
C697 C 0.77472 0.3224 0.80482 0.0
C698 C 0.77139 0.31339 0.78631 0.0
C699 C 0.78285 0.2995 0.78014 0.0
C700 C 0.79792 0.29535 0.79225 0.0
C701 C 0.80117 0.30491 0.81048 0.0
C702 C 0.7555 0.31862 0.77349 0.0
C703 C 0.81039 0.28062 0.7861 0.0
C704 C 0.69633 0.22794 0.8165 0.0
C705 C 0.6912 0.24254 0.80449 0.0
C706 C 0.69922 0.24581 0.78531 0.0
C707 C 0.71268 0.23426 0.77809 0.0
C708 C 0.71717 0.21902 0.78968 0.0
C709 C 0.70876 0.21596 0.80869 0.0
C710 C 0.69369 0.26188 0.77302 0.0
C711 C 0.73133 0.20635 0.78234 0.0
C712 C 0.7136 0.21551 0.60981 0.0
C713 C 0.71661 0.20407 0.62898 0.0
C714 C 0.70985 0.2147 0.66365 0.0
C715 C 0.70054 0.2286 0.67286 0.0
C716 C 0.70573 0.23541 0.69209 0.0
C717 C 0.72033 0.22774 0.70254 0.0
C718 C 0.72914 0.21294 0.69383 0.0
C719 C 0.72386 0.20661 0.67439 0.0
C720 C 0.6959 0.25108 0.70099 0.0
C721 C 0.74433 0.20404 0.70491 0.0
C722 C 0.78362 0.28491 0.72446 0.0
C723 C 0.78789 0.29318 0.74313 0.0
C724 C 0.77874 0.28912 0.76127 0.0
C725 C 0.76524 0.2761 0.76102 0.0
C726 C 0.7564 0.27106 0.77921 0.0
C727 C 0.74272 0.25871 0.77872 0.0
C728 C 0.73726 0.25099 0.76 0.0
C729 C 0.72294 0.23887 0.75927 0.0
C730 C 0.71793 0.23133 0.74044 0.0
C731 C 0.72678 0.23567 0.72213 0.0
C732 C 0.74108 0.24785 0.72254 0.0
C733 C 0.75018 0.25267 0.70441 0.0
C734 C 0.7642 0.26469 0.70499 0.0
C735 C 0.76952 0.27254 0.72368 0.0
C736 C 0.76041 0.26802 0.74209 0.0
C737 C 0.74629 0.25554 0.74155 0.0
C738 C 0.69844 0.23487 0.86891 0.0
C739 C 0.6863 0.23802 0.85035 0.0
O740 O 0.82675 0.30266 0.65589 0.0
O741 O 0.70504 0.20946 0.6444 0.0
O742 O 0.68956 0.22505 0.83562 0.0
O743 O 0.79146 0.32741 0.83492 0.0
H744 H 0.82408 0.32964 0.65326 0.0
H745 H 0.79953 0.31485 0.63319 0.0
H746 H 0.81567 0.30436 0.61672 0.0
H747 H 0.81322 0.32822 0.61664 0.0
H748 H 0.83028 0.27506 0.6785 0.0
H749 H 0.79864 0.32173 0.66944 0.0
H750 H 0.81516 0.26516 0.72861 0.0
H751 H 0.82542 0.25538 0.70612 0.0
H752 H 0.80203 0.25245 0.71094 0.0
H753 H 0.7733 0.32783 0.68915 0.0
H754 H 0.77792 0.32302 0.71589 0.0
H755 H 0.76299 0.30911 0.70173 0.0
H756 H 0.81838 0.32624 0.83939 0.0
H757 H 0.81575 0.31175 0.87424 0.0
H758 H 0.80481 0.29883 0.85471 0.0
H759 H 0.79181 0.3121 0.87212 0.0
H760 H 0.76581 0.33281 0.8099 0.0
H761 H 0.8127 0.30163 0.81964 0.0
H762 H 0.74519 0.30816 0.77463 0.0
H763 H 0.75927 0.31988 0.75698 0.0
H764 H 0.74959 0.33135 0.77872 0.0
H765 H 0.82075 0.27813 0.79795 0.0
H766 H 0.81703 0.28409 0.77134 0.0
H767 H 0.80282 0.26819 0.78351 0.0
H768 H 0.68962 0.25143 0.8443 0.0
H769 H 0.68099 0.25142 0.81013 0.0
H770 H 0.71236 0.20454 0.81793 0.0
H771 H 0.70468 0.27168 0.77293 0.0
H772 H 0.68168 0.26834 0.77953 0.0
H773 H 0.69101 0.25809 0.75675 0.0
H774 H 0.73321 0.19504 0.7931 0.0
H775 H 0.74413 0.2135 0.78071 0.0
H776 H 0.72773 0.20108 0.76689 0.0
H777 H 0.73065 0.20636 0.63371 0.0
H778 H 0.7227 0.21138 0.59719 0.0
H779 H 0.71631 0.22962 0.61354 0.0
H780 H 0.69967 0.21439 0.60433 0.0
H781 H 0.68956 0.23453 0.66455 0.0
H782 H 0.73065 0.19537 0.66762 0.0
H783 H 0.70535 0.26203 0.70425 0.0
H784 H 0.68966 0.24724 0.71586 0.0
H785 H 0.68539 0.25606 0.69046 0.0
H786 H 0.74847 0.19154 0.69722 0.0
H787 H 0.74052 0.20106 0.72111 0.0
H788 H 0.75589 0.21315 0.70539 0.0
H789 H 0.79838 0.30303 0.7435 0.0
H790 H 0.75995 0.27662 0.79406 0.0
H791 H 0.7364 0.25541 0.79323 0.0
H792 H 0.70687 0.22213 0.73999 0.0
H793 H 0.74659 0.2472 0.68953 0.0
H794 H 0.77072 0.2679 0.69057 0.0
H795 H 0.69604 0.22155 0.8757 0.0
H796 H 0.69612 0.24513 0.88093 0.0
H797 H 0.71254 0.23565 0.86397 0.0
C798 C 0.82789 0.65556 0.80364 0.0
C799 C 0.82148 0.66481 0.82331 0.0
C800 C 0.80093 0.68737 0.81162 0.0
C801 C 0.80842 0.70298 0.81944 0.0
C802 C 0.80552 0.71928 0.80959 0.0
C803 C 0.79499 0.71987 0.79151 0.0
C804 C 0.7868 0.70422 0.78413 0.0
C805 C 0.78968 0.68815 0.79453 0.0
C806 C 0.8141 0.73578 0.81817 0.0
C807 C 0.77558 0.70434 0.76483 0.0
C808 C 0.89659 0.74391 0.71859 0.0
C809 C 0.88131 0.74502 0.70311 0.0
C810 C 0.85579 0.7601 0.71727 0.0
C811 C 0.8415 0.74986 0.71029 0.0
C812 C 0.82571 0.7489 0.72172 0.0
C813 C 0.82436 0.75823 0.74064 0.0
C814 C 0.83863 0.76901 0.74737 0.0
C815 C 0.85409 0.77005 0.73533 0.0
C816 C 0.81066 0.73756 0.71387 0.0
C817 C 0.8378 0.7789 0.7676 0.0
C818 C 0.75545 0.85322 0.72621 0.0
C819 C 0.74984 0.83788 0.71595 0.0
C820 C 0.74767 0.82191 0.72674 0.0
C821 C 0.7517 0.82129 0.74809 0.0
C822 C 0.75678 0.83698 0.75856 0.0
C823 C 0.75829 0.85287 0.74747 0.0
C824 C 0.74149 0.80564 0.71526 0.0
C825 C 0.76099 0.83691 0.78133 0.0
C826 C 0.67066 0.75119 0.86191 0.0
C827 C 0.67565 0.77 0.85529 0.0
C828 C 0.69117 0.77461 0.82225 0.0
C829 C 0.69199 0.76775 0.80224 0.0
C830 C 0.70664 0.77105 0.78945 0.0
C831 C 0.7208 0.78155 0.79691 0.0
C832 C 0.71983 0.789 0.81694 0.0
C833 C 0.70491 0.78564 0.82933 0.0
C834 C 0.70705 0.76322 0.76801 0.0
C835 C 0.73456 0.80053 0.82522 0.0
C836 C 0.79406 0.73645 0.77927 0.0
C837 C 0.80826 0.7401 0.76609 0.0
C838 C 0.80867 0.75549 0.75414 0.0
C839 C 0.79448 0.7677 0.75528 0.0
C840 C 0.7945 0.78337 0.74359 0.0
C841 C 0.7806 0.79543 0.74507 0.0
C842 C 0.76589 0.79205 0.75788 0.0
C843 C 0.75157 0.80413 0.75928 0.0
C844 C 0.73709 0.80028 0.77201 0.0
C845 C 0.7366 0.78475 0.78375 0.0
C846 C 0.75093 0.77264 0.78285 0.0
C847 C 0.75106 0.75709 0.79482 0.0
C848 C 0.76521 0.74525 0.79378 0.0
C849 C 0.77969 0.74845 0.78062 0.0
C850 C 0.7799 0.76412 0.76852 0.0
C851 C 0.76554 0.77626 0.76971 0.0
C852 C 0.78676 0.88001 0.70733 0.0
C853 C 0.77034 0.87006 0.69967 0.0
O854 O 0.8045 0.67139 0.82021 0.0
O855 O 0.67675 0.77052 0.83392 0.0
O856 O 0.75836 0.86848 0.71579 0.0
O857 O 0.87146 0.76018 0.70701 0.0
H858 H 0.83088 0.6758 0.82681 0.0
H859 H 0.82827 0.66518 0.79067 0.0
H860 H 0.8188 0.64453 0.79941 0.0
H861 H 0.84149 0.65019 0.80586 0.0
H862 H 0.81661 0.70241 0.83317 0.0
H863 H 0.78377 0.676 0.78884 0.0
H864 H 0.82482 0.74019 0.80759 0.0
H865 H 0.81992 0.73355 0.83371 0.0
H866 H 0.80422 0.74668 0.81919 0.0
H867 H 0.77034 0.69098 0.76097 0.0
H868 H 0.78357 0.70925 0.7516 0.0
H869 H 0.76423 0.71355 0.76686 0.0
H870 H 0.87299 0.73293 0.70528 0.0
H871 H 0.90462 0.73178 0.71579 0.0
H872 H 0.89122 0.74327 0.73455 0.0
H873 H 0.90532 0.75574 0.71734 0.0
H874 H 0.84282 0.74249 0.696 0.0
H875 H 0.86523 0.77801 0.74043 0.0
H876 H 0.79795 0.74498 0.71474 0.0
H877 H 0.80936 0.72563 0.72378 0.0
H878 H 0.81283 0.73317 0.69769 0.0
H879 H 0.85042 0.78587 0.77117 0.0
H880 H 0.83476 0.76955 0.78036 0.0
H881 H 0.82694 0.78883 0.76706 0.0
H882 H 0.77477 0.85672 0.69429 0.0
H883 H 0.74724 0.83845 0.6995 0.0
H884 H 0.76239 0.86494 0.7552 0.0
H885 H 0.7528 0.79637 0.71328 0.0
H886 H 0.73617 0.80895 0.69973 0.0
H887 H 0.73105 0.79864 0.72421 0.0
H888 H 0.76637 0.84983 0.7867 0.0
H889 H 0.77078 0.82635 0.78489 0.0
H890 H 0.74872 0.83399 0.79018 0.0
H891 H 0.68867 0.77289 0.86261 0.0
H892 H 0.66971 0.75035 0.879 0.0
H893 H 0.681 0.74172 0.85662 0.0
H894 H 0.65774 0.7472 0.85505 0.0
H895 H 0.68116 0.75954 0.79677 0.0
H896 H 0.70403 0.79184 0.84435 0.0
H897 H 0.71826 0.75372 0.76677 0.0
H898 H 0.70933 0.77385 0.75645 0.0
H899 H 0.69455 0.75618 0.7641 0.0
H900 H 0.73243 0.80426 0.84163 0.0
H901 H 0.73544 0.81282 0.81588 0.0
H902 H 0.74748 0.79354 0.82386 0.0
H903 H 0.81924 0.73081 0.76516 0.0
H904 H 0.80535 0.78656 0.73327 0.0
H905 H 0.78151 0.80739 0.73591 0.0
H906 H 0.72612 0.80957 0.77291 0.0
H907 H 0.74024 0.7539 0.80518 0.0
H908 H 0.76464 0.73351 0.80337 0.0
H909 H 0.7831 0.8935 0.71275 0.0
H910 H 0.79676 0.88116 0.69478 0.0
H911 H 0.79288 0.87266 0.72037 0.0
C912 C 0.98821 0.32129 0.52678 0.0
C913 C 0.03426 0.32244 0.47389 0.0
O914 O 0.99611 0.33482 0.51953 0.0
Zn915 Zn 0.01162 0.32215 0.50079 0.0
O916 O 0.99255 0.3058 0.52035 0.0
Zn917 Zn 0.01077 0.29413 0.49878 0.0
O918 O 0.02579 0.27978 0.51606 0.0
O919 O 0.02914 0.30841 0.52161 0.0
O920 O 0.02891 0.30672 0.47806 0.0
O921 O 0.02796 0.33556 0.48377 0.0
O922 O 0.99279 0.31138 0.47879 0.0
O923 O 0.99506 0.28222 0.48011 0.0
C924 C 0.03325 0.29231 0.52585 0.0
C925 C 0.98784 0.29599 0.47255 0.0
C926 C 0.69637 0.0338 0.53357 0.0
C927 C 0.6858 0.98559 0.48484 0.0
O928 O 0.71075 0.02685 0.52672 0.0
Zn929 Zn 0.71836 0.00615 0.50564 0.0
O930 O 0.68149 0.02784 0.52744 0.0
Zn931 Zn 0.69081 0.00988 0.50912 0.0
O932 O 0.703 0.99112 0.53048 0.0
O933 O 0.7315 0.99033 0.52242 0.0
O934 O 0.67422 0.99543 0.49331 0.0
O935 O 0.7023 0.98829 0.48834 0.0
O936 O 0.73148 0.0184 0.48486 0.0
O937 O 0.7032 0.02592 0.48547 0.0
C938 C 0.7187 0.98496 0.5335 0.0
C939 C 0.71882 0.02771 0.47785 0.0
C940 C 0.98323 0.72456 0.51828 0.0
C941 C 0.02922 0.71979 0.46575 0.0
O942 O 0.99111 0.73693 0.50867 0.0
Zn943 Zn 0.00593 0.7222 0.49158 0.0
O944 O 0.98701 0.70837 0.51407 0.0
Zn945 Zn 0.00449 0.6942 0.49351 0.0
O946 O 0.01943 0.6812 0.51254 0.0
O947 O 0.02349 0.71016 0.51359 0.0
O948 O 0.02384 0.70451 0.47188 0.0
O949 O 0.02217 0.7337 0.47316 0.0
O950 O 0.98754 0.71002 0.47079 0.0
O951 O 0.98799 0.68115 0.47633 0.0
C952 C 0.0274 0.69458 0.52008 0.0
C953 C 0.98189 0.69441 0.46657 0.0
C954 C 0.30033 0.02466 0.53479 0.0
C955 C 0.29724 0.97959 0.48169 0.0
O956 O 0.31593 0.02013 0.52868 0.0
Zn957 Zn 0.32703 0.0014 0.50647 0.0
O958 O 0.28674 0.01744 0.5268 0.0
Zn959 Zn 0.29905 0.00254 0.50801 0.0
O960 O 0.31134 0.98413 0.52868 0.0
O961 O 0.34035 0.98533 0.52399 0.0
O962 O 0.28477 0.98807 0.49037 0.0
O963 O 0.31341 0.98315 0.48632 0.0
O964 O 0.3398 0.01659 0.48732 0.0
O965 O 0.31089 0.02124 0.48746 0.0
C966 C 0.32701 0.97886 0.53335 0.0
C967 C 0.32642 0.0252 0.48088 0.0
C968 C 0.48779 0.82752 0.02462 0.0
C969 C 0.53407 0.83201 0.97227 0.0
O970 O 0.49497 0.84157 0.0177 0.0
Zn971 Zn 0.51128 0.83006 0.99894 0.0
O972 O 0.493 0.81238 0.01792 0.0
Zn973 Zn 0.51194 0.80215 0.99604 0.0
O974 O 0.52774 0.78822 0.0126 0.0
O975 O 0.52909 0.81674 0.01993 0.0
O976 O 0.52945 0.81599 0.97587 0.0
O977 O 0.52716 0.84465 0.98242 0.0
O978 O 0.49307 0.81877 0.97649 0.0
O979 O 0.49702 0.78978 0.97701 0.0
C980 C 0.53416 0.80076 0.02331 0.0
C981 C 0.48902 0.80324 0.96981 0.0
C982 C 0.19652 0.53365 0.03401 0.0
C983 C 0.18579 0.48549 0.98545 0.0
O984 O 0.21086 0.52688 0.02684 0.0
Zn985 Zn 0.21845 0.50634 0.00576 0.0
O986 O 0.18161 0.52757 0.02817 0.0
Zn987 Zn 0.19088 0.50978 0.00953 0.0
O988 O 0.20336 0.49079 0.03041 0.0
O989 O 0.2319 0.49085 0.02266 0.0
O990 O 0.17423 0.49534 0.99395 0.0
O991 O 0.20232 0.48826 0.98874 0.0
O992 O 0.23125 0.51871 0.98476 0.0
O993 O 0.2029 0.52595 0.98572 0.0
C994 C 0.21918 0.48498 0.03354 0.0
C995 C 0.21844 0.52789 0.9779 0.0
C996 C 0.52368 0.22359 0.96225 0.0
C997 C 0.48201 0.22287 0.0198 0.0
O998 O 0.516 0.23664 0.97083 0.0
Zn999 Zn 0.50231 0.22335 0.99074 0.0
O1000 O 0.52011 0.20781 0.9683 0.0
Zn1001 Zn 0.50359 0.19521 0.99091 0.0
O1002 O 0.48721 0.1815 0.9741 0.0
O1003 O 0.48237 0.21037 0.97285 0.0
O1004 O 0.48656 0.20718 0.01414 0.0
O1005 O 0.48824 0.23624 0.0103 0.0
O1006 O 0.52223 0.21212 0.01035 0.0
O1007 O 0.52112 0.18297 0.00767 0.0
C1008 C 0.47809 0.19455 0.96769 0.0
C1009 C 0.5281 0.19679 0.01547 0.0
C1010 C 0.79612 0.52314 0.03526 0.0
C1011 C 0.80279 0.48256 0.9772 0.0
O1012 O 0.81234 0.52124 0.02972 0.0
Zn1013 Zn 0.82714 0.50679 0.00705 0.0
O1014 O 0.78402 0.5148 0.02566 0.0
Zn1015 Zn 0.79913 0.50297 0.00587 0.0
O1016 O 0.81348 0.48424 0.02409 0.0
O1017 O 0.84192 0.49135 0.02387 0.0
O1018 O 0.78844 0.48751 0.9858 0.0
O1019 O 0.81768 0.48879 0.98355 0.0
O1020 O 0.83806 0.52544 0.99093 0.0
O1021 O 0.80902 0.52397 0.98691 0.0
C1022 C 0.82949 0.48109 0.02966 0.0
C1023 C 0.82396 0.53118 0.9825 0.0
C1024 C 0.14908 0.28502 0.35738 0.0
C1025 C 0.16665 0.28903 0.3629 0.0
C1026 C 0.13491 0.29367 0.36695 0.0
C1027 C 0.12428 0.31773 0.41509 0.0
H1028 H 0.07878 0.32365 0.38798 0.0
C1029 C 0.06106 0.33799 0.45981 0.0
C1030 C 0.04797 0.32483 0.45792 0.0
C1031 C 0.07542 0.33838 0.44606 0.0
C1032 C 0.09147 0.32226 0.39567 0.0
H1033 H 0.18319 0.30596 0.38188 0.0
H1034 H 0.15848 0.32148 0.39817 0.0
H1035 H 0.10484 0.31568 0.36757 0.0
H1036 H 0.03889 0.30259 0.43956 0.0
H1037 H 0.06362 0.30357 0.41535 0.0
H1038 H 0.11074 0.32406 0.44323 0.0
C1039 C 0.1556 0.31127 0.3869 0.0
C1040 C 0.10637 0.31754 0.38405 0.0
C1041 C 0.16977 0.30245 0.3775 0.0
C1042 C 0.04887 0.31281 0.44141 0.0
C1043 C 0.06294 0.31345 0.42747 0.0
C1044 C 0.10943 0.32269 0.42665 0.0
C1045 C 0.13796 0.30674 0.38206 0.0
C1046 C 0.12283 0.31458 0.39373 0.0
C1047 C 0.0766 0.32591 0.42998 0.0
C1048 C 0.09278 0.3244 0.41715 0.0
H1049 H 0.14631 0.27483 0.34604 0.0
H1050 H 0.12156 0.2896 0.363 0.0
H1051 H 0.13663 0.3154 0.42317 0.0
H1052 H 0.06067 0.34736 0.47247 0.0
H1053 H 0.08582 0.34811 0.4483 0.0
C1054 C 0.77546 0.1312 0.33592 0.0
C1055 C 0.7629 0.15252 0.33524 0.0
C1056 C 0.76761 0.11507 0.35447 0.0
C1057 C 0.73774 0.11195 0.4075 0.0
H1058 H 0.74126 0.06243 0.39193 0.0
C1059 C 0.71003 0.05459 0.4576 0.0
C1060 C 0.72222 0.04088 0.46145 0.0
C1061 C 0.71376 0.06756 0.4428 0.0
C1062 C 0.74026 0.07621 0.39649 0.0
H1063 H 0.76109 0.16266 0.34758 0.0
H1064 H 0.73233 0.14686 0.3869 0.0
H1065 H 0.74995 0.08527 0.36741 0.0
H1066 H 0.74763 0.02973 0.4525 0.0
H1067 H 0.75396 0.05221 0.42647 0.0
H1068 H 0.72775 0.10271 0.43657 0.0
C1069 C 0.74244 0.14368 0.37565 0.0
C1070 C 0.74537 0.08933 0.38251 0.0
C1071 C 0.74969 0.16092 0.35783 0.0
C1072 C 0.738 0.04016 0.44991 0.0
C1073 C 0.74159 0.05296 0.43494 0.0
C1074 C 0.73244 0.09882 0.42142 0.0
C1075 C 0.75087 0.12106 0.37357 0.0
C1076 C 0.74445 0.10732 0.38799 0.0
C1077 C 0.72959 0.06687 0.43138 0.0
C1078 C 0.73391 0.08082 0.41614 0.0
H1079 H 0.78439 0.1274 0.32361 0.0
H1080 H 0.7731 0.10184 0.35412 0.0
H1081 H 0.73706 0.12564 0.41238 0.0
H1082 H 0.69779 0.05552 0.46629 0.0
H1083 H 0.70425 0.07811 0.44025 0.0
C1084 C 0.84401 0.72016 0.37791 0.0
C1085 C 0.84716 0.73408 0.36399 0.0
C1086 C 0.85814 0.71035 0.38599 0.0
C1087 C 0.90699 0.70244 0.38031 0.0
H1088 H 0.90467 0.69435 0.43937 0.0
C1089 C 0.96664 0.70459 0.43471 0.0
C1090 C 0.9678 0.69236 0.45097 0.0
C1091 C 0.95211 0.70442 0.4214 0.0
C1092 C 0.9054 0.69614 0.42279 0.0
H1093 H 0.86746 0.74828 0.34707 0.0
H1094 H 0.89215 0.73169 0.36163 0.0
H1095 H 0.87828 0.70421 0.42103 0.0
H1096 H 0.9551 0.6699 0.46566 0.0
H1097 H 0.9292 0.66996 0.44261 0.0
H1098 H 0.93453 0.69555 0.38254 0.0
C1099 C 0.8788 0.72797 0.36602 0.0
C1100 C 0.89026 0.70179 0.41222 0.0
C1101 C 0.86467 0.73763 0.35781 0.0
C1102 C 0.95452 0.67942 0.45317 0.0
C1103 C 0.93972 0.6795 0.44007 0.0
C1104 C 0.92218 0.69702 0.39094 0.0
C1105 C 0.87576 0.71437 0.38049 0.0
C1106 C 0.891 0.70557 0.39096 0.0
C1107 C 0.93826 0.69222 0.42431 0.0
C1108 C 0.92164 0.69434 0.41238 0.0
H1109 H 0.83063 0.71707 0.38284 0.0
H1110 H 0.85526 0.6998 0.39682 0.0
H1111 H 0.90795 0.70478 0.36385 0.0
H1112 H 0.97674 0.71466 0.43264 0.0
H1113 H 0.95124 0.7145 0.40953 0.0
C1114 C 0.27361 0.84631 0.35936 0.0
C1115 C 0.25542 0.85298 0.34143 0.0
C1116 C 0.27908 0.86267 0.3786 0.0
C1117 C 0.25734 0.90374 0.40954 0.0
H1118 H 0.30654 0.91834 0.41368 0.0
C1119 C 0.27684 0.96538 0.45626 0.0
C1120 C 0.29312 0.96543 0.46674 0.0
C1121 C 0.27269 0.95175 0.44251 0.0
C1122 C 0.29279 0.91423 0.41306 0.0
H1123 H 0.22693 0.87218 0.33854 0.0
H1124 H 0.23658 0.89654 0.37099 0.0
H1125 H 0.29833 0.89446 0.39013 0.0
H1126 H 0.31784 0.95126 0.4712 0.0
H1127 H 0.31032 0.92702 0.44792 0.0
H1128 H 0.25168 0.92296 0.43279 0.0
C1129 C 0.24479 0.88506 0.36802 0.0
C1130 C 0.28811 0.90057 0.39951 0.0
C1131 C 0.2382 0.86955 0.34842 0.0
C1132 C 0.30523 0.95161 0.46318 0.0
C1133 C 0.30093 0.93776 0.44974 0.0
C1134 C 0.26203 0.91712 0.42339 0.0
C1135 C 0.26519 0.88196 0.38223 0.0
C1136 C 0.27033 0.89544 0.39746 0.0
C1137 C 0.28456 0.93761 0.43926 0.0
C1138 C 0.27978 0.92277 0.42511 0.0
H1139 H 0.28251 0.83546 0.3559 0.0
H1140 H 0.29084 0.86094 0.38795 0.0
H1141 H 0.24356 0.89978 0.40848 0.0
H1142 H 0.26733 0.97598 0.45854 0.0
H1143 H 0.26017 0.95241 0.43435 0.0
C1144 C 0.16176 0.6791 0.62615 0.0
C1145 C 0.16796 0.69615 0.63108 0.0
C1146 C 0.14525 0.67683 0.61662 0.0
C1147 C 0.1027 0.6998 0.60671 0.0
H1148 H 0.09946 0.66867 0.5592 0.0
C1149 C 0.04887 0.70763 0.54514 0.0
C1150 C 0.04151 0.69251 0.5358 0.0
C1151 C 0.06287 0.7061 0.55908 0.0
C1152 C 0.10003 0.67715 0.57267 0.0
H1153 H 0.16203 0.72422 0.62925 0.0
H1154 H 0.13326 0.7203 0.61268 0.0
H1155 H 0.12686 0.66968 0.57928 0.0
H1156 H 0.04285 0.66382 0.53415 0.0
H1157 H 0.06747 0.66114 0.55867 0.0
H1158 H 0.07606 0.70759 0.59986 0.0
C1159 C 0.14092 0.70863 0.61663 0.0
C1160 C 0.11574 0.67775 0.58416 0.0
C1161 C 0.15742 0.7109 0.62606 0.0
C1162 C 0.04825 0.67573 0.54107 0.0
C1163 C 0.06239 0.6742 0.55502 0.0
C1164 C 0.08702 0.69918 0.59527 0.0
C1165 C 0.13465 0.69158 0.61177 0.0
C1166 C 0.11739 0.68941 0.60099 0.0
C1167 C 0.06993 0.6894 0.56405 0.0
C1168 C 0.08566 0.68819 0.5778 0.0
H1169 H 0.16974 0.66752 0.62958 0.0
H1170 H 0.14076 0.66353 0.6131 0.0
H1171 H 0.10344 0.70864 0.61986 0.0
H1172 H 0.04401 0.72077 0.54147 0.0
H1173 H 0.06853 0.7181 0.56548 0.0
C1174 C 0.26228 0.14526 0.65369 0.0
C1175 C 0.27451 0.15931 0.65262 0.0
C1176 C 0.26554 0.12942 0.64322 0.0
C1177 C 0.30049 0.10234 0.61937 0.0
H1178 H 0.26265 0.0856 0.5838 0.0
C1179 C 0.31195 0.05023 0.55537 0.0
C1180 C 0.29809 0.03844 0.55076 0.0
C1181 C 0.30939 0.06392 0.5696 0.0
C1182 C 0.27327 0.08984 0.59393 0.0
H1183 H 0.29985 0.16766 0.64012 0.0
H1184 H 0.30564 0.13984 0.62199 0.0
H1185 H 0.25763 0.11114 0.60596 0.0
H1186 H 0.27097 0.03118 0.5581 0.0
H1187 H 0.26667 0.05464 0.58337 0.0
H1188 H 0.31613 0.08098 0.60745 0.0
C1189 C 0.29359 0.1411 0.63101 0.0
C1190 C 0.27038 0.10452 0.60658 0.0
C1191 C 0.29025 0.15702 0.6413 0.0
C1192 C 0.28183 0.04022 0.56114 0.0
C1193 C 0.27934 0.05374 0.57555 0.0
C1194 C 0.30333 0.0875 0.60687 0.0
C1195 C 0.28115 0.12726 0.63162 0.0
C1196 C 0.284 0.11101 0.61926 0.0
C1197 C 0.29297 0.06596 0.57971 0.0
C1198 C 0.2898 0.08117 0.59384 0.0
H1199 H 0.25005 0.14669 0.66233 0.0
H1200 H 0.25579 0.11889 0.64405 0.0
H1201 H 0.31116 0.10701 0.62916 0.0
H1202 H 0.32462 0.04921 0.54754 0.0
H1203 H 0.32011 0.07321 0.5722 0.0
C1204 C 0.85246 0.33683 0.63112 0.0
C1205 C 0.8452 0.31987 0.63419 0.0
C1206 C 0.86908 0.33884 0.62174 0.0
C1207 C 0.91028 0.31442 0.61011 0.0
H1208 H 0.91592 0.3481 0.56538 0.0
C1209 C 0.96556 0.30781 0.55008 0.0
C1210 C 0.97364 0.32309 0.54198 0.0
C1211 C 0.95118 0.30915 0.56352 0.0
C1212 C 0.91469 0.33887 0.5781 0.0
H1213 H 0.8493 0.29177 0.62897 0.0
H1214 H 0.87833 0.29524 0.61285 0.0
H1215 H 0.88813 0.34726 0.58479 0.0
H1216 H 0.97313 0.35184 0.54204 0.0
H1217 H 0.94792 0.35418 0.56577 0.0
H1218 H 0.93668 0.30582 0.60333 0.0
C1219 C 0.87138 0.30697 0.61811 0.0
C1220 C 0.89876 0.33837 0.58918 0.0
C1221 C 0.85475 0.30498 0.62731 0.0
C1222 C 0.96718 0.33981 0.54799 0.0
C1223 C 0.9527 0.34115 0.56148 0.0
C1224 C 0.92621 0.31497 0.59913 0.0
C1225 C 0.87874 0.32391 0.61524 0.0
C1226 C 0.89624 0.32583 0.60496 0.0
C1227 C 0.94446 0.3258 0.56929 0.0
C1228 C 0.92845 0.32688 0.58264 0.0
H1229 H 0.84524 0.34854 0.63594 0.0
H1230 H 0.87442 0.35205 0.6197 0.0
H1231 H 0.90885 0.30485 0.62247 0.0
H1232 H 0.97015 0.29471 0.54579 0.0
H1233 H 0.94499 0.29705 0.56892 0.0
C1234 C 0.74893 0.89277 0.68468 0.0
C1235 C 0.7621 0.8798 0.68167 0.0
C1236 C 0.74264 0.90273 0.66803 0.0
C1237 C 0.75745 0.92047 0.6192 0.0
H1238 H 0.70765 0.92784 0.60676 0.0
C1239 C 0.73678 0.96032 0.54802 0.0
C1240 C 0.72202 0.97158 0.54964 0.0
C1241 C 0.74051 0.94806 0.5635 0.0
C1242 C 0.72161 0.92612 0.61019 0.0
H1243 H 0.77917 0.86731 0.65903 0.0
H1244 H 0.76837 0.88496 0.62995 0.0
H1245 H 0.71613 0.90833 0.63526 0.0
H1246 H 0.69938 0.97869 0.56853 0.0
H1247 H 0.7063 0.95776 0.59615 0.0
H1248 H 0.76312 0.93867 0.59494 0.0
C1249 C 0.76274 0.88716 0.64513 0.0
C1250 C 0.72642 0.91488 0.62642 0.0
C1251 C 0.76884 0.87704 0.6617 0.0
C1252 C 0.71084 0.97013 0.5669 0.0
C1253 C 0.71477 0.95805 0.58265 0.0
C1254 C 0.75266 0.9319 0.60324 0.0
C1255 C 0.74971 0.9002 0.64819 0.0
C1256 C 0.74439 0.9119 0.63096 0.0
C1257 C 0.72978 0.94699 0.58124 0.0
C1258 C 0.73469 0.93481 0.5984 0.0
H1259 H 0.74375 0.89549 0.69995 0.0
H1260 H 0.73275 0.91288 0.67079 0.0
H1261 H 0.7714 0.91863 0.62265 0.0
H1262 H 0.74546 0.96095 0.5347 0.0
H1263 H 0.75187 0.93944 0.56154 0.0
C1264 C 0.89574 0.76072 0.67275 0.0
C1265 C 0.88845 0.74522 0.68129 0.0
C1266 C 0.90384 0.76033 0.65331 0.0
C1267 C 0.90861 0.73285 0.60591 0.0
H1268 H 0.95371 0.75719 0.60069 0.0
C1269 C 0.96051 0.71487 0.54411 0.0
C1270 C 0.97017 0.72862 0.53471 0.0
C1271 C 0.94884 0.71846 0.56033 0.0
C1272 C 0.941 0.75055 0.60175 0.0
H1273 H 0.88413 0.71716 0.67633 0.0
H1274 H 0.89837 0.71639 0.64257 0.0
H1275 H 0.93625 0.76073 0.63208 0.0
H1276 H 0.97482 0.757 0.5347 0.0
H1277 H 0.95442 0.76324 0.56313 0.0
H1278 H 0.91366 0.72227 0.57579 0.0
C1279 C 0.89744 0.72896 0.65058 0.0
C1280 C 0.93096 0.75259 0.61975 0.0
C1281 C 0.88934 0.72937 0.66996 0.0
C1282 C 0.96761 0.7461 0.54164 0.0
C1283 C 0.956 0.74967 0.55798 0.0
C1284 C 0.91867 0.73076 0.58795 0.0
C1285 C 0.90497 0.74439 0.6421 0.0
C1286 C 0.91478 0.74353 0.62219 0.0
C1287 C 0.94659 0.73586 0.56761 0.0
C1288 C 0.93512 0.73936 0.58581 0.0
H1289 H 0.89547 0.77307 0.68128 0.0
H1290 H 0.90937 0.77248 0.64717 0.0
H1291 H 0.89605 0.72594 0.60713 0.0
H1292 H 0.96212 0.70125 0.53914 0.0
H1293 H 0.94196 0.70749 0.56758 0.0
C1294 C 0.31676 0.8409 0.62881 0.0
C1295 C 0.29941 0.84084 0.63683 0.0
C1296 C 0.32427 0.85657 0.62129 0.0
C1297 C 0.31891 0.90547 0.6212 0.0
H1298 H 0.33893 0.90264 0.56612 0.0
C1299 C 0.31516 0.96211 0.56338 0.0
C1300 C 0.32905 0.96504 0.54932 0.0
C1301 C 0.3159 0.94806 0.57728 0.0
C1302 C 0.33379 0.90365 0.5817 0.0
H1303 H 0.27648 0.85715 0.64362 0.0
H1304 H 0.28952 0.88448 0.63052 0.0
H1305 H 0.33197 0.87548 0.58483 0.0
H1306 H 0.35496 0.95599 0.53933 0.0
H1307 H 0.35617 0.93105 0.56365 0.0
H1308 H 0.32 0.93366 0.61768 0.0
C1309 C 0.29744 0.87249 0.63027 0.0
C1310 C 0.32977 0.88808 0.59242 0.0
C1311 C 0.28991 0.85683 0.63767 0.0
C1312 C 0.34407 0.95402 0.55 0.0
C1313 C 0.34472 0.93974 0.56383 0.0
C1314 C 0.32293 0.92102 0.6105 0.0
C1315 C 0.31461 0.8725 0.62174 0.0
C1316 C 0.3217 0.88884 0.61198 0.0
C1317 C 0.3305 0.93649 0.5774 0.0
C1318 C 0.3298 0.92027 0.59033 0.0
H1319 H 0.32435 0.82873 0.62795 0.0
H1320 H 0.33756 0.85619 0.61491 0.0
H1321 H 0.31305 0.90647 0.63643 0.0
H1322 H 0.30346 0.97046 0.56334 0.0
H1323 H 0.30462 0.9458 0.58731 0.0
C1324 C 0.11505 0.25747 0.68439 0.0
C1325 C 0.12043 0.27326 0.69407 0.0
C1326 C 0.1085 0.25773 0.66419 0.0
C1327 C 0.10476 0.28587 0.61719 0.0
H1328 H 0.06156 0.25907 0.60807 0.0
C1329 C 0.05486 0.30247 0.55271 0.0
C1330 C 0.04612 0.28851 0.54256 0.0
C1331 C 0.06616 0.29908 0.56933 0.0
C1332 C 0.07378 0.2664 0.6102 0.0
H1333 H 0.12322 0.30163 0.69022 0.0
H1334 H 0.11169 0.30215 0.65508 0.0
H1335 H 0.07754 0.25579 0.64048 0.0
H1336 H 0.04282 0.25995 0.54154 0.0
H1337 H 0.0626 0.25404 0.57061 0.0
H1338 H 0.10065 0.29686 0.58708 0.0
C1339 C 0.11288 0.2895 0.66285 0.0
C1340 C 0.08298 0.2645 0.6288 0.0
C1341 C 0.11942 0.28924 0.68302 0.0
C1342 C 0.0493 0.27102 0.54908 0.0
C1343 C 0.06056 0.26763 0.56578 0.0
C1344 C 0.09554 0.28779 0.5986 0.0
C1345 C 0.10706 0.2738 0.6533 0.0
C1346 C 0.0984 0.27446 0.63268 0.0
C1347 C 0.06896 0.28165 0.57625 0.0
C1348 C 0.07977 0.27831 0.59504 0.0
H1349 H 0.11549 0.245 0.69265 0.0
H1350 H 0.10429 0.24537 0.65722 0.0
H1351 H 0.11677 0.29351 0.61954 0.0
H1352 H 0.05275 0.3161 0.54807 0.0
H1353 H 0.07225 0.3102 0.5772 0.0
C1354 C 0.7284 0.17334 0.62172 0.0
C1355 C 0.71376 0.1847 0.62393 0.0
C1356 C 0.72608 0.15595 0.61486 0.0
C1357 C 0.69251 0.1207 0.60567 0.0
H1358 H 0.72648 0.10526 0.56445 0.0
C1359 C 0.68229 0.05946 0.55225 0.0
C1360 C 0.6974 0.04928 0.5476 0.0
C1361 C 0.68384 0.07508 0.56383 0.0
C1362 C 0.71701 0.10923 0.57616 0.0
H1363 H 0.68518 0.18667 0.62117 0.0
H1364 H 0.6811 0.1563 0.60885 0.0
H1365 H 0.7301 0.13401 0.58074 0.0
H1366 H 0.72582 0.04698 0.55245 0.0
H1367 H 0.72844 0.07395 0.57273 0.0
H1368 H 0.67927 0.09588 0.60068 0.0
C1369 C 0.69435 0.16074 0.61275 0.0
C1370 C 0.7191 0.12573 0.58554 0.0
C1371 C 0.69668 0.17814 0.61971 0.0
C1372 C 0.71393 0.05461 0.55552 0.0
C1373 C 0.71546 0.07013 0.56708 0.0
C1374 C 0.69039 0.10413 0.59622 0.0
C1375 C 0.70908 0.14955 0.60984 0.0
C1376 C 0.70691 0.13169 0.60043 0.0
C1377 C 0.70053 0.08078 0.57096 0.0
C1378 C 0.70266 0.09821 0.58138 0.0
H1379 H 0.7417 0.17805 0.62486 0.0
H1380 H 0.73767 0.14759 0.61316 0.0
H1381 H 0.68295 0.12484 0.6172 0.0
H1382 H 0.66937 0.0557 0.54639 0.0
H1383 H 0.6721 0.08303 0.56648 0.0
C1384 C 0.85849 0.25987 0.36811 0.0
C1385 C 0.84633 0.27364 0.3645 0.0
C1386 C 0.87488 0.26337 0.37731 0.0
C1387 C 0.89678 0.29606 0.41112 0.0
H1388 H 0.93943 0.27037 0.39596 0.0
C1389 C 0.96393 0.30945 0.45074 0.0
C1390 C 0.9733 0.29435 0.4573 0.0
C1391 C 0.94943 0.30783 0.43743 0.0
C1392 C 0.9276 0.27759 0.4004 0.0
H1393 H 0.84174 0.30185 0.36787 0.0
H1394 H 0.87057 0.30808 0.38345 0.0
H1395 H 0.91227 0.26612 0.376 0.0
H1396 H 0.97511 0.26575 0.45448 0.0
H1397 H 0.94978 0.26294 0.43126 0.0
H1398 H 0.91206 0.30742 0.43561 0.0
C1399 C 0.8674 0.29454 0.37929 0.0
C1400 C 0.91204 0.27514 0.389 0.0
C1401 C 0.85096 0.29102 0.37017 0.0
C1402 C 0.96816 0.27765 0.44976 0.0
C1403 C 0.95372 0.27604 0.43635 0.0
C1404 C 0.91235 0.29857 0.42244 0.0
C1405 C 0.87947 0.28072 0.38321 0.0
C1406 C 0.89638 0.28419 0.39438 0.0
C1407 C 0.94404 0.29109 0.43028 0.0
C1408 C 0.92788 0.28921 0.41736 0.0
H1409 H 0.85511 0.24631 0.36426 0.0
H1410 H 0.8837 0.25236 0.38044 0.0
H1411 H 0.88491 0.30302 0.41593 0.0
H1412 H 0.96756 0.32253 0.45619 0.0
H1413 H 0.94236 0.31969 0.43282 0.0
C1414 C 0.70867 0.87142 0.36454 0.0
C1415 C 0.70474 0.87412 0.34358 0.0
C1416 C 0.7011 0.8822 0.37969 0.0
C1417 C 0.68163 0.92663 0.38658 0.0
H1418 H 0.67313 0.90886 0.44188 0.0
C1419 C 0.66766 0.97328 0.45572 0.0
C1420 C 0.68081 0.97105 0.47085 0.0
C1421 C 0.66531 0.96037 0.44037 0.0
C1422 C 0.67524 0.91397 0.42644 0.0
H1423 H 0.68964 0.89011 0.32207 0.0
H1424 H 0.67606 0.90875 0.3486 0.0
H1425 H 0.67884 0.88803 0.41381 0.0
H1426 H 0.70094 0.95331 0.4828 0.0
H1427 H 0.69647 0.93062 0.45654 0.0
H1428 H 0.67842 0.95261 0.39945 0.0
C1429 C 0.68516 0.89841 0.35331 0.0
C1430 C 0.67866 0.90208 0.41039 0.0
C1431 C 0.69284 0.88768 0.33812 0.0
C1432 C 0.69074 0.95532 0.47124 0.0
C1433 C 0.6881 0.9423 0.45629 0.0
C1434 C 0.678 0.93851 0.40261 0.0
C1435 C 0.68935 0.89594 0.37429 0.0
C1436 C 0.68261 0.90829 0.39043 0.0
C1437 C 0.67575 0.9449 0.44037 0.0
C1438 C 0.67544 0.93231 0.42283 0.0
H1439 H 0.71794 0.86119 0.36917 0.0
H1440 H 0.70499 0.88011 0.3956 0.0
H1441 H 0.68473 0.93194 0.37147 0.0
H1442 H 0.65995 0.98538 0.45507 0.0
H1443 H 0.65571 0.96266 0.42821 0.0
C1444 C 0.17079 0.72207 0.37259 0.0
C1445 C 0.17643 0.73946 0.36841 0.0
C1446 C 0.15364 0.71884 0.3799 0.0
C1447 C 0.10919 0.73953 0.38707 0.0
H1448 H 0.10552 0.706 0.43222 0.0
C1449 C 0.05016 0.73775 0.44408 0.0
C1450 C 0.04419 0.72113 0.451 0.0
C1451 C 0.06514 0.73906 0.43144 0.0
C1452 C 0.10623 0.7152 0.41941 0.0
H1453 H 0.16863 0.76707 0.36876 0.0
H1454 H 0.13876 0.76152 0.38179 0.0
H1455 H 0.13378 0.70988 0.41466 0.0
H1456 H 0.04895 0.69278 0.44944 0.0
H1457 H 0.07506 0.69509 0.42737 0.0
H1458 H 0.08167 0.74516 0.39231 0.0
C1459 C 0.14739 0.75031 0.3789 0.0
C1460 C 0.12245 0.71741 0.40931 0.0
C1461 C 0.16451 0.75352 0.37151 0.0
C1462 C 0.05323 0.70581 0.44448 0.0
C1463 C 0.06825 0.70712 0.43191 0.0
C1464 C 0.09296 0.73735 0.39725 0.0
C1465 C 0.14182 0.73295 0.38348 0.0
C1466 C 0.12419 0.72974 0.39315 0.0
C1467 C 0.07453 0.72378 0.42551 0.0
C1468 C 0.09136 0.72529 0.41368 0.0
H1469 H 0.17979 0.711 0.37064 0.0
H1470 H 0.14974 0.70529 0.38305 0.0
H1471 H 0.11 0.74894 0.37448 0.0
H1472 H 0.04349 0.74981 0.44879 0.0
H1473 H 0.06974 0.75209 0.42692 0.0
C1474 C 0.29338 0.14131 0.36226 0.0
C1475 C 0.29841 0.13964 0.34147 0.0
C1476 C 0.30074 0.13029 0.3773 0.0
C1477 C 0.32296 0.08686 0.38308 0.0
H1478 H 0.32785 0.10285 0.43971 0.0
C1479 C 0.34161 0.03986 0.45085 0.0
C1480 C 0.32833 0.03993 0.46608 0.0
C1481 C 0.34199 0.05315 0.43572 0.0
C1482 C 0.32671 0.09826 0.42391 0.0
H1483 H 0.31543 0.1254 0.3202 0.0
H1484 H 0.32871 0.10644 0.34656 0.0
H1485 H 0.32129 0.12431 0.41259 0.0
H1486 H 0.30568 0.05432 0.47818 0.0
H1487 H 0.30666 0.07765 0.45223 0.0
H1488 H 0.32823 0.06075 0.39463 0.0
C1489 C 0.3188 0.11604 0.3512 0.0
C1490 C 0.3228 0.1105 0.40839 0.0
C1491 C 0.31128 0.12697 0.33611 0.0
C1492 C 0.316 0.05388 0.46652 0.0
C1493 C 0.31663 0.0673 0.45178 0.0
C1494 C 0.32712 0.07466 0.39859 0.0
C1495 C 0.31346 0.11741 0.37197 0.0
C1496 C 0.32026 0.10487 0.38788 0.0
C1497 C 0.3294 0.06691 0.43601 0.0
C1498 C 0.32846 0.08018 0.41923 0.0
H1499 H 0.28345 0.15094 0.36681 0.0
H1500 H 0.296 0.13155 0.39301 0.0
H1501 H 0.32095 0.08197 0.36754 0.0
H1502 H 0.35123 0.02921 0.45016 0.0
H1503 H 0.35196 0.05259 0.42368 0.0
C1504 C 0.6456 0.78492 0.85238 0.0
C1505 C 0.66181 0.78299 0.86289 0.0
C1506 C 0.63194 0.79511 0.86084 0.0
C1507 C 0.62069 0.82762 0.90207 0.0
H1508 H 0.57557 0.80298 0.90167 0.0
C1509 C 0.5651 0.83898 0.96219 0.0
C1510 C 0.54758 0.83519 0.95643 0.0
C1511 C 0.57888 0.83712 0.94784 0.0
C1512 C 0.58789 0.81036 0.90158 0.0
H1513 H 0.67647 0.79037 0.89032 0.0
H1514 H 0.6525 0.80802 0.90528 0.0
H1515 H 0.60012 0.79128 0.88186 0.0
H1516 H 0.53031 0.8278 0.93122 0.0
H1517 H 0.55415 0.82546 0.90582 0.0
H1518 H 0.60843 0.84648 0.92234 0.0
C1519 C 0.65051 0.80201 0.89027 0.0
C1520 C 0.60204 0.80358 0.89019 0.0
C1521 C 0.6642 0.79184 0.88177 0.0
C1522 C 0.54378 0.83088 0.93587 0.0
C1523 C 0.55746 0.82933 0.92145 0.0
C1524 C 0.60644 0.83449 0.91344 0.0
C1525 C 0.63407 0.80341 0.88012 0.0
C1526 C 0.61869 0.81193 0.89055 0.0
C1527 C 0.57527 0.83154 0.9275 0.0
C1528 C 0.58993 0.82577 0.91359 0.0
H1529 H 0.6433 0.77809 0.83791 0.0
H1530 H 0.6195 0.79607 0.85254 0.0
H1531 H 0.63332 0.83445 0.90249 0.0
H1532 H 0.56827 0.84202 0.97811 0.0
H1533 H 0.5924 0.8388 0.95312 0.0
C1534 C 0.2724 0.63125 0.83491 0.0
C1535 C 0.25957 0.65227 0.83429 0.0
C1536 C 0.26467 0.61527 0.85343 0.0
C1537 C 0.23567 0.61213 0.90682 0.0
H1538 H 0.23923 0.56257 0.8914 0.0
C1539 C 0.2092 0.55469 0.95776 0.0
C1540 C 0.22154 0.54108 0.96143 0.0
C1541 C 0.21262 0.56766 0.94286 0.0
C1542 C 0.23822 0.57636 0.89592 0.0
H1543 H 0.24055 0.67361 0.85687 0.0
H1544 H 0.23004 0.64699 0.88647 0.0
H1545 H 0.24721 0.58538 0.86652 0.0
H1546 H 0.24691 0.53012 0.95204 0.0
H1547 H 0.2527 0.55259 0.9258 0.0
H1548 H 0.22635 0.60292 0.9362 0.0
C1549 C 0.23958 0.64364 0.87464 0.0
C1550 C 0.24292 0.58947 0.88173 0.0
C1551 C 0.24656 0.66059 0.85678 0.0
C1552 C 0.23717 0.54047 0.9496 0.0
C1553 C 0.24045 0.55326 0.93452 0.0
C1554 C 0.23076 0.599 0.92095 0.0
C1555 C 0.24805 0.62122 0.87246 0.0
C1556 C 0.24199 0.60748 0.88713 0.0
C1557 C 0.22829 0.56707 0.93114 0.0
C1558 C 0.23225 0.581 0.91572 0.0
H1559 H 0.28118 0.62744 0.82246 0.0
H1560 H 0.27021 0.60207 0.85313 0.0
H1561 H 0.23501 0.62583 0.91166 0.0
H1562 H 0.19706 0.55554 0.96667 0.0
H1563 H 0.20299 0.57812 0.94045 0.0
C1564 C 0.36887 0.23038 0.84071 0.0
C1565 C 0.35573 0.24008 0.85122 0.0
C1566 C 0.38016 0.21893 0.85149 0.0
C1567 C 0.38808 0.19894 0.90386 0.0
H1568 H 0.4375 0.20291 0.88778 0.0
C1569 C 0.44687 0.20162 0.95929 0.0
C1570 C 0.46227 0.19195 0.95476 0.0
C1571 C 0.43246 0.20135 0.94582 0.0
C1572 C 0.42373 0.20131 0.89221 0.0
H1573 H 0.34411 0.24535 0.88113 0.0
H1574 H 0.36408 0.22602 0.90006 0.0
H1575 H 0.41454 0.21431 0.865 0.0
H1576 H 0.47471 0.174 0.93305 0.0
H1577 H 0.44954 0.17415 0.90875 0.0
H1578 H 0.39764 0.18732 0.93196 0.0
C1579 C 0.36534 0.22659 0.88342 0.0
C1580 C 0.4105 0.20782 0.87914 0.0
C1581 C 0.35391 0.23781 0.87261 0.0
C1582 C 0.46286 0.18145 0.93688 0.0
C1583 C 0.44855 0.18157 0.92302 0.0
C1584 C 0.40135 0.19273 0.91708 0.0
C1585 C 0.37886 0.21723 0.87309 0.0
C1586 C 0.39252 0.20732 0.88512 0.0
C1587 C 0.43335 0.19175 0.92728 0.0
C1588 C 0.41931 0.19438 0.91164 0.0
H1589 H 0.37078 0.23199 0.82425 0.0
H1590 H 0.39022 0.21177 0.84293 0.0
H1591 H 0.37439 0.19785 0.90875 0.0
H1592 H 0.44616 0.20981 0.97302 0.0
H1593 H 0.42099 0.20949 0.94933 0.0
C1594 C 0.79001 0.35079 0.8693 0.0
C1595 C 0.80577 0.34449 0.86028 0.0
C1596 C 0.78988 0.36665 0.88038 0.0
C1597 C 0.81911 0.39709 0.90884 0.0
H1598 H 0.77965 0.42976 0.90315 0.0
C1599 C 0.81854 0.46418 0.95082 0.0
C1600 C 0.80267 0.46884 0.96087 0.0
C1601 C 0.81895 0.45011 0.93685 0.0
C1602 C 0.79069 0.42071 0.90501 0.0
H1603 H 0.83383 0.34967 0.85618 0.0
H1604 H 0.83361 0.37756 0.87545 0.0
H1605 H 0.78054 0.4029 0.88215 0.0
H1606 H 0.77463 0.46275 0.96357 0.0
H1607 H 0.77539 0.43801 0.9393 0.0
H1608 H 0.82917 0.41475 0.93185 0.0
C1609 C 0.82135 0.37018 0.87396 0.0
C1610 C 0.79121 0.40533 0.893 0.0
C1611 C 0.82147 0.35428 0.86285 0.0
C1612 C 0.78706 0.45951 0.95607 0.0
C1613 C 0.78749 0.44537 0.9421 0.0
C1614 C 0.8186 0.41246 0.92084 0.0
C1615 C 0.80553 0.37655 0.88281 0.0
C1616 C 0.80536 0.39328 0.89489 0.0
C1617 C 0.80351 0.44032 0.93263 0.0
C1618 C 0.80433 0.42439 0.91917 0.0
H1619 H 0.77776 0.34338 0.86777 0.0
H1620 H 0.77755 0.37101 0.88733 0.0
H1621 H 0.83006 0.38796 0.9109 0.0
H1622 H 0.83078 0.4712 0.95402 0.0
H1623 H 0.83143 0.44676 0.92951 0.0
C1624 C 0.65227 0.18847 0.13977 0.0
C1625 C 0.6506 0.20311 0.15311 0.0
C1626 C 0.64077 0.18647 0.12294 0.0
C1627 C 0.6118 0.21148 0.08822 0.0
H1628 H 0.58381 0.16851 0.08357 0.0
C1629 C 0.54749 0.21068 0.04203 0.0
C1630 C 0.54295 0.19566 0.03035 0.0
C1631 C 0.56187 0.2103 0.05551 0.0
C1632 C 0.59174 0.18046 0.08439 0.0
H1633 H 0.6362 0.22755 0.15861 0.0
H1634 H 0.61647 0.22425 0.12908 0.0
H1635 H 0.60752 0.17034 0.10933 0.0
H1636 H 0.54982 0.16831 0.02389 0.0
H1637 H 0.57536 0.16772 0.04735 0.0
H1638 H 0.59621 0.22172 0.06344 0.0
C1639 C 0.62648 0.21421 0.13179 0.0
C1640 C 0.60528 0.1815 0.09915 0.0
C1641 C 0.63774 0.21606 0.14874 0.0
C1642 C 0.55299 0.18009 0.03273 0.0
C1643 C 0.56758 0.17975 0.04618 0.0
C1644 C 0.59846 0.21039 0.07336 0.0
C1645 C 0.62773 0.19931 0.11887 0.0
C1646 C 0.61509 0.19721 0.10155 0.0
C1647 C 0.5723 0.19495 0.05755 0.0
C1648 C 0.58788 0.19508 0.07167 0.0
H1649 H 0.66227 0.17845 0.14252 0.0
H1650 H 0.64209 0.17495 0.11306 0.0
H1651 H 0.61937 0.22364 0.08954 0.0
H1652 H 0.53989 0.22282 0.04082 0.0
H1653 H 0.56474 0.22209 0.06446 0.0
C1654 C 0.78393 0.64675 0.15062 0.0
C1655 C 0.76778 0.65119 0.16015 0.0
C1656 C 0.78597 0.63048 0.14065 0.0
C1657 C 0.76089 0.59738 0.11267 0.0
H1658 H 0.80379 0.56935 0.11782 0.0
C1659 C 0.77433 0.53669 0.06013 0.0
C1660 C 0.79173 0.53532 0.05244 0.0
C1661 C 0.77035 0.54867 0.076 0.0
C1662 C 0.79177 0.57708 0.11609 0.0
H1663 H 0.74132 0.64176 0.16739 0.0
H1664 H 0.74476 0.61338 0.14937 0.0
H1665 H 0.79892 0.5944 0.14095 0.0
H1666 H 0.81859 0.54538 0.05551 0.0
H1667 H 0.81161 0.56642 0.08258 0.0
H1668 H 0.7541 0.5807 0.08716 0.0
C1669 C 0.7558 0.62256 0.1497 0.0
C1670 C 0.78896 0.59136 0.12941 0.0
C1671 C 0.75385 0.63876 0.15998 0.0
C1672 C 0.80506 0.54601 0.06111 0.0
C1673 C 0.80107 0.55801 0.07681 0.0
C1674 C 0.76378 0.58321 0.09916 0.0
C1675 C 0.77184 0.61835 0.13979 0.0
C1676 C 0.77369 0.60188 0.12753 0.0
C1677 C 0.78367 0.55957 0.08443 0.0
C1678 C 0.77948 0.57315 0.10038 0.0
H1679 H 0.79491 0.65602 0.15051 0.0
H1680 H 0.79843 0.62764 0.13297 0.0
H1681 H 0.74906 0.60538 0.11079 0.0
H1682 H 0.76378 0.52857 0.05385 0.0
H1683 H 0.75684 0.54938 0.08165 0.0
C1684 C 0.34945 0.83541 0.1251 0.0
C1685 C 0.34354 0.81819 0.12973 0.0
C1686 C 0.36604 0.83811 0.11593 0.0
C1687 C 0.40931 0.81623 0.10682 0.0
H1688 H 0.413 0.8486 0.06053 0.0
C1689 C 0.46613 0.81259 0.04805 0.0
C1690 C 0.47301 0.82834 0.03967 0.0
C1691 C 0.45146 0.81297 0.06117 0.0
C1692 C 0.41229 0.83975 0.07366 0.0
H1693 H 0.35012 0.79027 0.12772 0.0
H1694 H 0.37905 0.79495 0.11175 0.0
H1695 H 0.38504 0.8462 0.07935 0.0
H1696 H 0.4701 0.85694 0.03896 0.0
H1697 H 0.44439 0.8576 0.06206 0.0
H1698 H 0.43643 0.80952 0.10093 0.0
C1699 C 0.37107 0.80641 0.11566 0.0
C1700 C 0.39626 0.83835 0.08443 0.0
C1701 C 0.35448 0.80371 0.12474 0.0
C1702 C 0.46511 0.84456 0.04513 0.0
C1703 C 0.45033 0.84494 0.05826 0.0
C1704 C 0.42532 0.81764 0.09609 0.0
C1705 C 0.37705 0.82363 0.11113 0.0
C1706 C 0.39448 0.82631 0.10087 0.0
C1707 C 0.44326 0.82911 0.06628 0.0
C1708 C 0.4269 0.82914 0.07911 0.0
H1709 H 0.34118 0.84678 0.12851 0.0
H1710 H 0.37029 0.85154 0.11269 0.0
H1711 H 0.40847 0.80709 0.11968 0.0
H1712 H 0.47188 0.79985 0.04419 0.0
H1713 H 0.44622 0.80051 0.06681 0.0
C1714 C 0.26174 0.36246 0.14775 0.0
C1715 C 0.2669 0.36879 0.16723 0.0
C1716 C 0.25344 0.37372 0.13362 0.0
C1717 C 0.23137 0.41756 0.12798 0.0
H1718 H 0.2505 0.4151 0.07247 0.0
C1719 C 0.20884 0.46422 0.06142 0.0
C1720 C 0.22265 0.4712 0.04928 0.0
C1721 C 0.21228 0.45083 0.07584 0.0
C1722 C 0.24503 0.41597 0.08791 0.0
H1723 H 0.26717 0.3917 0.18739 0.0
H1724 H 0.25291 0.41148 0.16262 0.0
H1725 H 0.25951 0.39323 0.09794 0.0
H1726 H 0.25092 0.46975 0.04298 0.0
H1727 H 0.25687 0.44664 0.0681 0.0
H1728 H 0.21744 0.4408 0.11801 0.0
C1729 C 0.25493 0.39774 0.15838 0.0
C1730 C 0.25002 0.40329 0.10245 0.0
C1731 C 0.26318 0.38647 0.17253 0.0
C1732 C 0.23994 0.46463 0.05199 0.0
C1733 C 0.24335 0.45128 0.0663 0.0
C1734 C 0.22636 0.43027 0.11338 0.0
C1735 C 0.25027 0.39159 0.13861 0.0
C1736 C 0.24349 0.4041 0.12276 0.0
C1737 C 0.22956 0.44413 0.07829 0.0
C1738 C 0.23344 0.4298 0.09331 0.0
H1739 H 0.26448 0.34891 0.14326 0.0
H1740 H 0.2498 0.3685 0.11862 0.0
H1741 H 0.22596 0.41842 0.14344 0.0
H1742 H 0.19536 0.46899 0.05969 0.0
H1743 H 0.20138 0.44552 0.08482 0.0
C1744 C 0.39432 0.21801 0.17744 0.0
C1745 C 0.39324 0.23363 0.18917 0.0
C1746 C 0.40189 0.21819 0.15776 0.0
C1747 C 0.43355 0.24378 0.12619 0.0
H1748 H 0.4163 0.21357 0.08209 0.0
C1749 C 0.46652 0.24225 0.04564 0.0
C1750 C 0.46987 0.22528 0.03757 0.0
C1751 C 0.45567 0.24437 0.063 0.0
C1752 C 0.4213 0.22202 0.09429 0.0
H1753 H 0.39938 0.26169 0.18955 0.0
H1754 H 0.41221 0.26215 0.15492 0.0
H1755 H 0.39968 0.21555 0.11436 0.0
H1756 H 0.46411 0.19726 0.04111 0.0
H1757 H 0.44523 0.20097 0.07135 0.0
H1758 H 0.45524 0.25012 0.10617 0.0
C1759 C 0.40729 0.24971 0.16098 0.0
C1760 C 0.4118 0.22314 0.11279 0.0
C1761 C 0.39978 0.2495 0.18072 0.0
C1762 C 0.46183 0.21052 0.04695 0.0
C1763 C 0.45091 0.21265 0.06421 0.0
C1764 C 0.44299 0.24272 0.10766 0.0
C1765 C 0.40866 0.234 0.14937 0.0
C1766 C 0.41795 0.23385 0.12908 0.0
C1767 C 0.44785 0.22958 0.07255 0.0
C1768 C 0.4371 0.23165 0.09161 0.0
H1769 H 0.38969 0.20554 0.18374 0.0
H1770 H 0.40301 0.20578 0.14944 0.0
H1771 H 0.43884 0.25193 0.1385 0.0
H1772 H 0.47247 0.2539 0.03876 0.0
H1773 H 0.45342 0.2576 0.06896 0.0
C1774 C 0.8136 0.35042 0.13565 0.0
C1775 C 0.80119 0.35668 0.15015 0.0
C1776 C 0.8235 0.36233 0.12375 0.0
C1777 C 0.82975 0.38962 0.09009 0.0
H1778 H 0.84182 0.43681 0.1093 0.0
C1779 C 0.8212 0.45076 0.04071 0.0
C1780 C 0.83304 0.46508 0.04205 0.0
C1781 C 0.82334 0.43592 0.05318 0.0
C1782 C 0.83895 0.42358 0.10372 0.0
H1783 H 0.78945 0.38023 0.16354 0.0
H1784 H 0.80644 0.40095 0.14267 0.0
H1785 H 0.83502 0.41359 0.13432 0.0
H1786 H 0.8568 0.47489 0.05702 0.0
H1787 H 0.86034 0.44881 0.0795 0.0
H1788 H 0.83305 0.39978 0.0595 0.0
C1789 C 0.80899 0.38691 0.14087 0.0
C1790 C 0.83484 0.41033 0.11803 0.0
C1791 C 0.79913 0.37504 0.15275 0.0
C1792 C 0.84748 0.46401 0.05572 0.0
C1793 C 0.84948 0.44916 0.06856 0.0
C1794 C 0.83389 0.40284 0.07582 0.0
C1795 C 0.82107 0.38072 0.12596 0.0
C1796 C 0.82938 0.39344 0.11133 0.0
C1797 C 0.83728 0.43505 0.06751 0.0
C1798 C 0.83767 0.42017 0.08245 0.0
H1799 H 0.81528 0.33633 0.13313 0.0
H1800 H 0.83274 0.35712 0.11245 0.0
H1801 H 0.8256 0.37679 0.08435 0.0
H1802 H 0.81004 0.45112 0.03017 0.0
H1803 H 0.81355 0.42544 0.05221 0.0
C1804 C 0.62043 0.76332 0.17763 0.0
C1805 C 0.63232 0.74928 0.17406 0.0
C1806 C 0.61158 0.77141 0.16116 0.0
C1807 C 0.61042 0.7738 0.10331 0.0
H1808 H 0.56151 0.78754 0.11294 0.0
C1809 C 0.557 0.78121 0.03962 0.0
C1810 C 0.54705 0.79696 0.03989 0.0
C1811 C 0.56881 0.77736 0.05564 0.0
C1812 C 0.57522 0.78392 0.1101 0.0
H1813 H 0.64418 0.73272 0.15053 0.0
H1814 H 0.62819 0.74615 0.12194 0.0
H1815 H 0.57954 0.7772 0.14169 0.0
H1816 H 0.5417 0.82107 0.05705 0.0
H1817 H 0.56199 0.81402 0.08542 0.0
H1818 H 0.60554 0.77964 0.07139 0.0
C1819 C 0.62615 0.75147 0.13727 0.0
C1820 C 0.58563 0.77809 0.12659 0.0
C1821 C 0.63524 0.74364 0.15368 0.0
C1822 C 0.54923 0.80885 0.05641 0.0
C1823 C 0.56077 0.80482 0.07265 0.0
C1824 C 0.59987 0.7793 0.08676 0.0
C1825 C 0.61403 0.76536 0.14078 0.0
C1826 C 0.60335 0.77278 0.12342 0.0
C1827 C 0.57061 0.78903 0.0724 0.0
C1828 C 0.58215 0.78428 0.09001 0.0
H1829 H 0.61774 0.76795 0.19314 0.0
H1830 H 0.60265 0.78228 0.1645 0.0
H1831 H 0.62409 0.77023 0.10026 0.0
H1832 H 0.55565 0.77184 0.02704 0.0
H1833 H 0.57619 0.76504 0.05521 0.0
C1834 C 0.23226 0.66736 0.13113 0.0
C1835 C 0.21813 0.67869 0.13616 0.0
C1836 C 0.22906 0.65108 0.12159 0.0
C1837 C 0.19429 0.6178 0.11035 0.0
H1838 H 0.22602 0.60531 0.0655 0.0
C1839 C 0.18254 0.55881 0.05372 0.0
C1840 C 0.19768 0.54898 0.0482 0.0
C1841 C 0.18419 0.5742 0.06569 0.0
C1842 C 0.21715 0.6085 0.07813 0.0
H1843 H 0.18956 0.68189 0.13524 0.0
H1844 H 0.18393 0.65342 0.11834 0.0
H1845 H 0.23054 0.6329 0.08414 0.0
H1846 H 0.22627 0.54711 0.05181 0.0
H1847 H 0.22905 0.57366 0.07271 0.0
H1848 H 0.18083 0.59331 0.1041 0.0
C1849 C 0.19746 0.657 0.12211 0.0
C1850 C 0.21976 0.62431 0.08884 0.0
C1851 C 0.20068 0.6733 0.1317 0.0
C1852 C 0.21435 0.55447 0.05555 0.0
C1853 C 0.21597 0.56975 0.06746 0.0
C1854 C 0.19165 0.60192 0.09957 0.0
C1855 C 0.21165 0.64583 0.11669 0.0
C1856 C 0.20849 0.62908 0.10521 0.0
C1857 C 0.20099 0.58 0.07231 0.0
C1858 C 0.20319 0.59704 0.08349 0.0
H1859 H 0.24583 0.67121 0.13431 0.0
H1860 H 0.24026 0.64266 0.11791 0.0
H1861 H 0.18543 0.62107 0.12296 0.0
H1862 H 0.16951 0.55492 0.04831 0.0
H1863 H 0.1724 0.58187 0.06915 0.0
C1864 C 0.3623 0.76036 0.86442 0.0
C1865 C 0.34924 0.77332 0.86108 0.0
C1866 C 0.37833 0.76477 0.87395 0.0
C1867 C 0.39786 0.79812 0.90886 0.0
H1868 H 0.44226 0.77618 0.89259 0.0
C1869 C 0.46408 0.81554 0.94861 0.0
C1870 C 0.47458 0.801 0.95454 0.0
C1871 C 0.44965 0.8132 0.93533 0.0
C1872 C 0.42994 0.78235 0.89735 0.0
H1873 H 0.34261 0.80103 0.86539 0.0
H1874 H 0.37079 0.80887 0.8816 0.0
H1875 H 0.41539 0.77033 0.87265 0.0
H1876 H 0.4785 0.77271 0.95063 0.0
H1877 H 0.45333 0.76864 0.92749 0.0
H1878 H 0.41237 0.81001 0.93364 0.0
C1879 C 0.36862 0.79525 0.87694 0.0
C1880 C 0.41455 0.77898 0.88597 0.0
C1881 C 0.35255 0.79082 0.86747 0.0
C1882 C 0.47066 0.78418 0.9464 0.0
C1883 C 0.4563 0.78186 0.93303 0.0
C1884 C 0.41326 0.80154 0.92018 0.0
C1885 C 0.38164 0.78224 0.88047 0.0
C1886 C 0.39827 0.78667 0.89173 0.0
C1887 C 0.44548 0.79629 0.92759 0.0
C1888 C 0.42943 0.79354 0.91469 0.0
H1889 H 0.35995 0.74671 0.86 0.0
H1890 H 0.38791 0.75434 0.87677 0.0
H1891 H 0.38551 0.80403 0.91397 0.0
H1892 H 0.46676 0.82869 0.95455 0.0
H1893 H 0.44167 0.82461 0.93122 0.0
C1894 C 0.21005 0.37133 0.86739 0.0
C1895 C 0.20611 0.37362 0.84637 0.0
C1896 C 0.20191 0.38192 0.8823 0.0
C1897 C 0.18093 0.42561 0.88832 0.0
H1898 H 0.17295 0.40822 0.94389 0.0
C1899 C 0.16726 0.47276 0.95692 0.0
C1900 C 0.18071 0.4708 0.97175 0.0
C1901 C 0.1647 0.45965 0.94187 0.0
C1902 C 0.17488 0.41321 0.92837 0.0
H1903 H 0.19042 0.38865 0.82449 0.0
H1904 H 0.17589 0.40699 0.85062 0.0
H1905 H 0.17903 0.38723 0.91608 0.0
H1906 H 0.20114 0.45332 0.98352 0.0
H1907 H 0.19634 0.4303 0.95776 0.0
H1908 H 0.17729 0.45164 0.90086 0.0
C1909 C 0.1854 0.3971 0.85556 0.0
C1910 C 0.1785 0.40124 0.91247 0.0
C1911 C 0.19363 0.38655 0.8406 0.0
C1912 C 0.19072 0.45513 0.97218 0.0
C1913 C 0.18789 0.44192 0.95753 0.0
C1914 C 0.17711 0.43757 0.9042 0.0
C1915 C 0.18959 0.39505 0.87658 0.0
C1916 C 0.18234 0.40735 0.89245 0.0
C1917 C 0.17523 0.44425 0.94188 0.0
C1918 C 0.17478 0.43152 0.92451 0.0
H1919 H 0.21976 0.3616 0.87224 0.0
H1920 H 0.2058 0.38021 0.89827 0.0
H1921 H 0.18393 0.43083 0.87314 0.0
H1922 H 0.15946 0.48481 0.95627 0.0
H1923 H 0.15488 0.46174 0.9299 0.0
C1924 C 0.65856 0.22133 0.86107 0.0
C1925 C 0.66707 0.23755 0.85705 0.0
C1926 C 0.64139 0.22101 0.86923 0.0
C1927 C 0.61111 0.24807 0.90052 0.0
H1928 H 0.57626 0.21291 0.8843 0.0
C1929 C 0.54289 0.2436 0.94073 0.0
C1930 C 0.53753 0.22642 0.94635 0.0
C1931 C 0.55712 0.24609 0.92714 0.0
C1932 C 0.58587 0.22277 0.88906 0.0
H1933 H 0.6643 0.26609 0.8584 0.0
H1934 H 0.6342 0.26557 0.87247 0.0
H1935 H 0.6042 0.21511 0.8654 0.0
H1936 H 0.54253 0.19838 0.94149 0.0
H1937 H 0.56735 0.20273 0.91811 0.0
H1938 H 0.59305 0.25543 0.92452 0.0
C1939 C 0.64082 0.25311 0.86934 0.0
C1940 C 0.60188 0.22402 0.87823 0.0
C1941 C 0.65798 0.25342 0.86115 0.0
C1942 C 0.5463 0.21181 0.93752 0.0
C1943 C 0.56049 0.2143 0.92396 0.0
C1944 C 0.59513 0.2468 0.91138 0.0
C1945 C 0.63241 0.2369 0.87372 0.0
C1946 C 0.61479 0.23651 0.88404 0.0
C1947 C 0.56627 0.23146 0.91886 0.0
C1948 C 0.58243 0.23394 0.90599 0.0
H1949 H 0.66539 0.2089 0.85841 0.0
H1950 H 0.63542 0.20831 0.87274 0.0
H1951 H 0.62086 0.25767 0.90559 0.0
H1952 H 0.53638 0.25514 0.94719 0.0
H1953 H 0.56109 0.25948 0.9233 0.0
C1954 C 0.80722 0.64047 0.8447 0.0
C1955 C 0.82162 0.65191 0.84118 0.0
C1956 C 0.80794 0.62787 0.86047 0.0
C1957 C 0.83243 0.61578 0.90821 0.0
H1958 H 0.81146 0.56967 0.89794 0.0
C1959 C 0.84022 0.5551 0.96307 0.0
C1960 C 0.82448 0.5457 0.96715 0.0
C1961 C 0.8405 0.56844 0.94805 0.0
C1962 C 0.81729 0.58253 0.90107 0.0
H1963 H 0.84828 0.65867 0.85084 0.0
H1964 H 0.8497 0.63646 0.87818 0.0
H1965 H 0.81068 0.59218 0.87105 0.0
H1966 H 0.79668 0.54311 0.95879 0.0
H1967 H 0.79726 0.5662 0.93268 0.0
H1968 H 0.83921 0.60587 0.93823 0.0
C1969 C 0.83762 0.63759 0.86923 0.0
C1970 C 0.81677 0.59547 0.8857 0.0
C1971 C 0.83685 0.65028 0.85354 0.0
C1972 C 0.80905 0.55004 0.95604 0.0
C1973 C 0.80938 0.56321 0.94097 0.0
C1974 C 0.83307 0.60275 0.92355 0.0
C1975 C 0.8232 0.62618 0.87284 0.0
C1976 C 0.82417 0.61232 0.88913 0.0
C1977 C 0.82511 0.57246 0.9367 0.0
C1978 C 0.82532 0.58606 0.9202 0.0
H1979 H 0.79544 0.64117 0.83516 0.0
H1980 H 0.79649 0.61945 0.86296 0.0
H1981 H 0.8381 0.62867 0.91146 0.0
H1982 H 0.85231 0.55209 0.9714 0.0
H1983 H 0.85282 0.57535 0.94499 0.0
loop_
_geom_bond_atom_site_label_1
_geom_bond_atom_site_label_2
_geom_bond_distance
_geom_bond_site_symmetry_2
_ccdc_geom_bond_type
C0 C1 1.560 . S
C0 H61 0.959 . S
C0 H62 0.959 . S
C0 H63 0.960 . S
C1 C0 1.560 . S
C1 O56 1.426 . S
C1 H60 0.980 . S
C2 C3 1.407 . S
C2 C7 1.418 . S
C2 O56 1.334 . S
C3 C2 1.407 . S
C3 C4 1.360 . S
C3 H64 0.929 . S
C4 C3 1.360 . S
C4 C5 1.401 . S
C4 C8 1.527 . S
C5 C4 1.401 . S
C5 C6 1.405 . S
C5 C38 1.587 . S
C6 C5 1.405 . S
C6 C7 1.332 . S
C6 C9 1.496 . S
C7 C2 1.418 . S
C7 C6 1.332 . S
C7 H65 0.929 . S
C8 C4 1.527 . S
C8 H66 0.959 . S
C8 H67 0.961 . S
C8 H68 0.961 . S
C9 C6 1.496 . S
C9 H69 0.960 . S
C9 H70 0.960 . S
C9 H71 0.961 . S
C10 C11 1.517 . S
C10 H73 0.961 . S
C10 H74 0.960 . S
C10 H75 0.959 . S
C11 C10 1.517 . S
C11 O59 1.468 . S
C11 H72 0.980 . S
C12 C13 1.349 . S
C12 C17 1.367 . S
C12 O59 1.408 . S
C13 C12 1.349 . S
C13 C14 1.407 . S
C13 H76 0.930 . S
C14 C13 1.407 . S
C14 C15 1.449 . S
C14 C18 1.535 . S
C15 C14 1.449 . S
C15 C16 1.384 . S
C15 C40 1.553 . S
C16 C15 1.384 . S
C16 C17 1.364 . S
C16 C19 1.450 . S
C17 C12 1.367 . S
C17 C16 1.364 . S
C17 H77 0.931 . S
C18 C14 1.535 . S
C18 H78 0.959 . S
C18 H79 0.961 . S
C18 H80 0.959 . S
C19 C16 1.450 . S
C19 H81 0.960 . S
C19 H82 0.960 . S
C19 H83 0.960 . S
C20 C21 1.309 . S
C20 C25 1.304 . S
C20 O58 1.435 . S
C21 C20 1.309 . S
C21 C22 1.476 . S
C21 H85 0.930 . S
C22 C21 1.476 . S
C22 C23 1.400 . S
C22 C26 1.567 . S
C23 C22 1.400 . S
C23 C24 1.373 . S
C23 C45 1.432 . S
C24 C23 1.373 . S
C24 C25 1.339 . S
C24 C27 1.530 . S
C25 C20 1.304 . S
C25 C24 1.339 . S
C25 H86 0.930 . S
C26 C22 1.567 . S
C26 H87 0.961 . S
C26 H88 0.960 . S
C26 H89 0.958 . S
C27 C24 1.530 . S
C27 H90 0.961 . S
C27 H91 0.960 . S
C27 H92 0.960 . S
C28 C29 1.530 . S
C28 H94 0.961 . S
C28 H95 0.961 . S
C28 H96 0.959 . S
C29 C28 1.530 . S
C29 O57 1.412 . S
C29 H93 0.980 . S
C30 C31 1.288 . S
C30 C35 1.377 . S
C30 O57 1.393 . S
C31 C30 1.288 . S
C31 C32 1.369 . S
C31 H97 0.932 . S
C32 C31 1.369 . S
C32 C33 1.398 . S
C32 C36 1.527 . S
C33 C32 1.398 . S
C33 C34 1.380 . S
C33 C47 1.497 . S
C34 C33 1.380 . S
C34 C35 1.383 . S
C34 C37 1.603 . S
C35 C30 1.377 . S
C35 C34 1.383 . S
C35 H98 0.929 . S
C36 C32 1.527 . S
C36 H99 0.961 . S
C36 H100 0.959 . S
C36 H101 0.959 . S
C37 C34 1.603 . S
C37 H102 0.960 . S
C37 H103 0.962 . S
C37 H104 0.961 . S
C38 C5 1.587 . S
C38 C39 1.360 . S
C38 C51 1.412 . S
C39 C38 1.360 . S
C39 C40 1.365 . S
C39 H105 0.929 . S
C40 C15 1.553 . S
C40 C39 1.365 . S
C40 C41 1.404 . S
C41 C40 1.404 . S
C41 C42 1.395 . S
C41 C52 1.451 . S
C42 C41 1.395 . S
C42 C43 1.322 . S
C42 H106 0.930 . S
C43 C42 1.322 . S
C43 C44 1.459 . S
C43 H107 0.929 . S
C44 C43 1.459 . S
C44 C45 1.445 . S
C44 C53 1.395 . S
C45 C23 1.432 . S
C45 C44 1.445 . S
C45 C46 1.370 . S
C46 C45 1.370 . S
C46 C47 1.438 . S
C46 H108 0.930 . S
C47 C33 1.497 . S
C47 C46 1.438 . S
C47 C48 1.360 . S
C48 C47 1.360 . S
C48 C49 1.401 . S
C48 C53 1.446 . S
C49 C48 1.401 . S
C49 C50 1.347 . S
C49 H109 0.929 . S
C50 C49 1.347 . S
C50 C51 1.455 . S
C50 H110 0.930 . S
C51 C38 1.412 . S
C51 C50 1.455 . S
C51 C52 1.331 . S
C52 C41 1.451 . S
C52 C51 1.331 . S
C52 C53 1.497 . S
C53 C44 1.395 . S
C53 C48 1.446 . S
C53 C52 1.497 . S
C54 C55 1.582 . S
C54 H111 0.962 . S
C54 H112 0.959 . S
C54 H113 0.958 . S
C55 C54 1.582 . S
C55 O58 1.458 . S
C55 H84 0.980 . S
O56 C1 1.426 . S
O56 C2 1.334 . S
O57 C29 1.412 . S
O57 C30 1.393 . S
O58 C20 1.435 . S
O58 C55 1.458 . S
O59 C11 1.468 . S
O59 C12 1.408 . S
H60 C1 0.980 . S
H61 C0 0.959 . S
H62 C0 0.959 . S
H63 C0 0.960 . S
H64 C3 0.929 . S
H65 C7 0.929 . S
H66 C8 0.959 . S
H67 C8 0.961 . S
H68 C8 0.961 . S
H69 C9 0.960 . S
H70 C9 0.960 . S
H71 C9 0.961 . S
H72 C11 0.980 . S
H73 C10 0.961 . S
H74 C10 0.960 . S
H75 C10 0.959 . S
H76 C13 0.930 . S
H77 C17 0.931 . S
H78 C18 0.959 . S
H79 C18 0.961 . S
H80 C18 0.959 . S
H81 C19 0.960 . S
H82 C19 0.960 . S
H83 C19 0.960 . S
H84 C55 0.980 . S
H85 C21 0.930 . S
H86 C25 0.930 . S
H87 C26 0.961 . S
H88 C26 0.960 . S
H89 C26 0.958 . S
H90 C27 0.961 . S
H91 C27 0.960 . S
H92 C27 0.960 . S
H93 C29 0.980 . S
H94 C28 0.961 . S
H95 C28 0.961 . S
H96 C28 0.959 . S
H97 C31 0.932 . S
H98 C35 0.929 . S
H99 C36 0.961 . S
H100 C36 0.959 . S
H101 C36 0.959 . S
H102 C37 0.960 . S
H103 C37 0.962 . S
H104 C37 0.961 . S
H105 C39 0.929 . S
H106 C42 0.930 . S
H107 C43 0.929 . S
H108 C46 0.930 . S
H109 C49 0.929 . S
H110 C50 0.930 . S
H111 C54 0.962 . S
H112 C54 0.959 . S
H113 C54 0.958 . S
C114 C115 1.560 . S
C114 H175 0.959 . S
C114 H176 0.959 . S
C114 H177 0.960 . S
C115 C114 1.560 . S
C115 O170 1.426 . S
C115 H174 0.980 . S
C116 C117 1.407 . S
C116 C121 1.418 . S
C116 O170 1.334 . S
C117 C116 1.407 . S
C117 C118 1.360 . S
C117 H178 0.929 . S
C118 C117 1.360 . S
C118 C119 1.401 . S
C118 C122 1.527 . S
C119 C118 1.401 . S
C119 C120 1.405 . S
C119 C152 1.587 . S
C120 C119 1.405 . S
C120 C121 1.332 . S
C120 C123 1.496 . S
C121 C116 1.418 . S
C121 C120 1.332 . S
C121 H179 0.929 . S
C122 C118 1.527 . S
C122 H180 0.959 . S
C122 H181 0.961 . S
C122 H182 0.961 . S
C123 C120 1.496 . S
C123 H183 0.960 . S
C123 H184 0.960 . S
C123 H185 0.961 . S
C124 C125 1.517 . S
C124 H187 0.961 . S
C124 H188 0.960 . S
C124 H189 0.959 . S
C125 C124 1.517 . S
C125 O173 1.468 . S
C125 H186 0.980 . S
C126 C127 1.349 . S
C126 C131 1.367 . S
C126 O173 1.408 . S
C127 C126 1.349 . S
C127 C128 1.407 . S
C127 H190 0.930 . S
C128 C127 1.407 . S
C128 C129 1.449 . S
C128 C132 1.535 . S
C129 C128 1.449 . S
C129 C130 1.384 . S
C129 C154 1.553 . S
C130 C129 1.384 . S
C130 C131 1.364 . S
C130 C133 1.450 . S
C131 C126 1.367 . S
C131 C130 1.364 . S
C131 H191 0.931 . S
C132 C128 1.535 . S
C132 H192 0.959 . S
C132 H193 0.961 . S
C132 H194 0.959 . S
C133 C130 1.450 . S
C133 H195 0.960 . S
C133 H196 0.960 . S
C133 H197 0.960 . S
C134 C135 1.309 . S
C134 C139 1.304 . S
C134 O172 1.435 . S
C135 C134 1.309 . S
C135 C136 1.476 . S
C135 H199 0.930 . S
C136 C135 1.476 . S
C136 C137 1.400 . S
C136 C140 1.567 . S
C137 C136 1.400 . S
C137 C138 1.373 . S
C137 C159 1.432 . S
C138 C137 1.373 . S
C138 C139 1.339 . S
C138 C141 1.530 . S
C139 C134 1.304 . S
C139 C138 1.339 . S
C139 H200 0.930 . S
C140 C136 1.567 . S
C140 H201 0.961 . S
C140 H202 0.960 . S
C140 H203 0.958 . S
C141 C138 1.530 . S
C141 H204 0.961 . S
C141 H205 0.960 . S
C141 H206 0.960 . S
C142 C143 1.530 . S
C142 H208 0.961 . S
C142 H209 0.961 . S
C142 H210 0.959 . S
C143 C142 1.530 . S
C143 O171 1.412 . S
C143 H207 0.980 . S
C144 C145 1.288 . S
C144 C149 1.377 . S
C144 O171 1.393 . S
C145 C144 1.288 . S
C145 C146 1.369 . S
C145 H211 0.932 . S
C146 C145 1.369 . S
C146 C147 1.398 . S
C146 C150 1.527 . S
C147 C146 1.398 . S
C147 C148 1.380 . S
C147 C161 1.497 . S
C148 C147 1.380 . S
C148 C149 1.383 . S
C148 C151 1.603 . S
C149 C144 1.377 . S
C149 C148 1.383 . S
C149 H212 0.929 . S
C150 C146 1.527 . S
C150 H213 0.961 . S
C150 H214 0.959 . S
C150 H215 0.959 . S
C151 C148 1.603 . S
C151 H216 0.960 . S
C151 H217 0.962 . S
C151 H218 0.961 . S
C152 C119 1.587 . S
C152 C153 1.360 . S
C152 C165 1.412 . S
C153 C152 1.360 . S
C153 C154 1.365 . S
C153 H219 0.929 . S
C154 C129 1.553 . S
C154 C153 1.365 . S
C154 C155 1.404 . S
C155 C154 1.404 . S
C155 C156 1.395 . S
C155 C166 1.451 . S
C156 C155 1.395 . S
C156 C157 1.322 . S
C156 H220 0.930 . S
C157 C156 1.322 . S
C157 C158 1.459 . S
C157 H221 0.929 . S
C158 C157 1.459 . S
C158 C159 1.445 . S
C158 C167 1.395 . S
C159 C137 1.432 . S
C159 C158 1.445 . S
C159 C160 1.370 . S
C160 C159 1.370 . S
C160 C161 1.438 . S
C160 H222 0.930 . S
C161 C147 1.497 . S
C161 C160 1.438 . S
C161 C162 1.360 . S
C162 C161 1.360 . S
C162 C163 1.401 . S
C162 C167 1.446 . S
C163 C162 1.401 . S
C163 C164 1.347 . S
C163 H223 0.929 . S
C164 C163 1.347 . S
C164 C165 1.455 . S
C164 H224 0.930 . S
C165 C152 1.412 . S
C165 C164 1.455 . S
C165 C166 1.331 . S
C166 C155 1.451 . S
C166 C165 1.331 . S
C166 C167 1.497 . S
C167 C158 1.395 . S
C167 C162 1.446 . S
C167 C166 1.497 . S
C168 C169 1.582 . S
C168 H225 0.962 . S
C168 H226 0.959 . S
C168 H227 0.958 . S
C169 C168 1.582 . S
C169 O172 1.458 . S
C169 H198 0.980 . S
O170 C115 1.426 . S
O170 C116 1.334 . S
O171 C143 1.412 . S
O171 C144 1.393 . S
O172 C134 1.435 . S
O172 C169 1.458 . S
O173 C125 1.468 . S
O173 C126 1.408 . S
H174 C115 0.980 . S
H175 C114 0.959 . S
H176 C114 0.959 . S
H177 C114 0.960 . S
H178 C117 0.929 . S
H179 C121 0.929 . S
H180 C122 0.959 . S
H181 C122 0.961 . S
H182 C122 0.961 . S
H183 C123 0.960 . S
H184 C123 0.960 . S
H185 C123 0.961 . S
H186 C125 0.980 . S
H187 C124 0.961 . S
H188 C124 0.960 . S
H189 C124 0.959 . S
H190 C127 0.930 . S
H191 C131 0.931 . S
H192 C132 0.959 . S
H193 C132 0.961 . S
H194 C132 0.959 . S
H195 C133 0.960 . S
H196 C133 0.960 . S
H197 C133 0.960 . S
H198 C169 0.980 . S
H199 C135 0.930 . S
H200 C139 0.930 . S
H201 C140 0.961 . S
H202 C140 0.960 . S
H203 C140 0.958 . S
H204 C141 0.961 . S
H205 C141 0.960 . S
H206 C141 0.960 . S
H207 C143 0.980 . S
H208 C142 0.961 . S
H209 C142 0.961 . S
H210 C142 0.959 . S
H211 C145 0.932 . S
H212 C149 0.929 . S
H213 C150 0.961 . S
H214 C150 0.959 . S
H215 C150 0.959 . S
H216 C151 0.960 . S
H217 C151 0.962 . S
H218 C151 0.961 . S
H219 C153 0.929 . S
H220 C156 0.930 . S
H221 C157 0.929 . S
H222 C160 0.930 . S
H223 C163 0.929 . S
H224 C164 0.930 . S
H225 C168 0.962 . S
H226 C168 0.959 . S
H227 C168 0.958 . S
C228 C229 1.560 . S
C228 H289 0.959 . S
C228 H290 0.959 . S
C228 H291 0.960 . S
C229 C228 1.560 . S
C229 O284 1.426 . S
C229 H288 0.980 . S
C230 C231 1.407 . S
C230 C235 1.418 . S
C230 O284 1.334 . S
C231 C230 1.407 . S
C231 C232 1.360 . S
C231 H292 0.929 . S
C232 C231 1.360 . S
C232 C233 1.401 . S
C232 C236 1.527 . S
C233 C232 1.401 . S
C233 C234 1.405 . S
C233 C266 1.587 . S
C234 C233 1.405 . S
C234 C235 1.332 . S
C234 C237 1.496 . S
C235 C230 1.418 . S
C235 C234 1.332 . S
C235 H293 0.929 . S
C236 C232 1.527 . S
C236 H294 0.959 . S
C236 H295 0.961 . S
C236 H296 0.961 . S
C237 C234 1.496 . S
C237 H297 0.960 . S
C237 H298 0.960 . S
C237 H299 0.961 . S
C238 C239 1.517 . S
C238 H301 0.961 . S
C238 H302 0.960 . S
C238 H303 0.959 . S
C239 C238 1.517 . S
C239 O287 1.468 . S
C239 H300 0.980 . S
C240 C241 1.349 . S
C240 C245 1.367 . S
C240 O287 1.408 . S
C241 C240 1.349 . S
C241 C242 1.407 . S
C241 H304 0.930 . S
C242 C241 1.407 . S
C242 C243 1.449 . S
C242 C246 1.535 . S
C243 C242 1.449 . S
C243 C244 1.384 . S
C243 C268 1.553 . S
C244 C243 1.384 . S
C244 C245 1.364 . S
C244 C247 1.450 . S
C245 C240 1.367 . S
C245 C244 1.364 . S
C245 H305 0.931 . S
C246 C242 1.535 . S
C246 H306 0.959 . S
C246 H307 0.961 . S
C246 H308 0.959 . S
C247 C244 1.450 . S
C247 H309 0.960 . S
C247 H310 0.960 . S
C247 H311 0.960 . S
C248 C249 1.309 . S
C248 C253 1.304 . S
C248 O286 1.435 . S
C249 C248 1.309 . S
C249 C250 1.476 . S
C249 H313 0.930 . S
C250 C249 1.476 . S
C250 C251 1.400 . S
C250 C254 1.567 . S
C251 C250 1.400 . S
C251 C252 1.373 . S
C251 C273 1.432 . S
C252 C251 1.373 . S
C252 C253 1.339 . S
C252 C255 1.530 . S
C253 C248 1.304 . S
C253 C252 1.339 . S
C253 H314 0.930 . S
C254 C250 1.567 . S
C254 H315 0.961 . S
C254 H316 0.960 . S
C254 H317 0.958 . S
C255 C252 1.530 . S
C255 H318 0.961 . S
C255 H319 0.960 . S
C255 H320 0.960 . S
C256 C257 1.530 . S
C256 H322 0.961 . S
C256 H323 0.961 . S
C256 H324 0.959 . S
C257 C256 1.530 . S
C257 O285 1.412 . S
C257 H321 0.980 . S
C258 C259 1.288 . S
C258 C263 1.377 . S
C258 O285 1.393 . S
C259 C258 1.288 . S
C259 C260 1.369 . S
C259 H325 0.932 . S
C260 C259 1.369 . S
C260 C261 1.398 . S
C260 C264 1.527 . S
C261 C260 1.398 . S
C261 C262 1.380 . S
C261 C275 1.497 . S
C262 C261 1.380 . S
C262 C263 1.383 . S
C262 C265 1.603 . S
C263 C258 1.377 . S
C263 C262 1.383 . S
C263 H326 0.929 . S
C264 C260 1.527 . S
C264 H327 0.961 . S
C264 H328 0.959 . S
C264 H329 0.959 . S
C265 C262 1.603 . S
C265 H330 0.960 . S
C265 H331 0.962 . S
C265 H332 0.961 . S
C266 C233 1.587 . S
C266 C267 1.360 . S
C266 C279 1.412 . S
C267 C266 1.360 . S
C267 C268 1.365 . S
C267 H333 0.929 . S
C268 C243 1.553 . S
C268 C267 1.365 . S
C268 C269 1.404 . S
C269 C268 1.404 . S
C269 C270 1.395 . S
C269 C280 1.451 . S
C270 C269 1.395 . S
C270 C271 1.322 . S
C270 H334 0.930 . S
C271 C270 1.322 . S
C271 C272 1.459 . S
C271 H335 0.929 . S
C272 C271 1.459 . S
C272 C273 1.445 . S
C272 C281 1.395 . S
C273 C251 1.432 . S
C273 C272 1.445 . S
C273 C274 1.370 . S
C274 C273 1.370 . S
C274 C275 1.438 . S
C274 H336 0.930 . S
C275 C261 1.497 . S
C275 C274 1.438 . S
C275 C276 1.360 . S
C276 C275 1.360 . S
C276 C277 1.401 . S
C276 C281 1.446 . S
C277 C276 1.401 . S
C277 C278 1.347 . S
C277 H337 0.929 . S
C278 C277 1.347 . S
C278 C279 1.455 . S
C278 H338 0.930 . S
C279 C266 1.412 . S
C279 C278 1.455 . S
C279 C280 1.331 . S
C280 C269 1.451 . S
C280 C279 1.331 . S
C280 C281 1.497 . S
C281 C272 1.395 . S
C281 C276 1.446 . S
C281 C280 1.497 . S
C282 C283 1.582 . S
C282 H339 0.962 . S
C282 H340 0.959 . S
C282 H341 0.958 . S
C283 C282 1.582 . S
C283 O286 1.458 . S
C283 H312 0.980 . S
O284 C229 1.426 . S
O284 C230 1.334 . S
O285 C257 1.412 . S
O285 C258 1.393 . S
O286 C248 1.435 . S
O286 C283 1.458 . S
O287 C239 1.468 . S
O287 C240 1.408 . S
H288 C229 0.980 . S
H289 C228 0.959 . S
H290 C228 0.959 . S
H291 C228 0.960 . S
H292 C231 0.929 . S
H293 C235 0.929 . S
H294 C236 0.959 . S
H295 C236 0.961 . S
H296 C236 0.961 . S
H297 C237 0.960 . S
H298 C237 0.960 . S
H299 C237 0.961 . S
H300 C239 0.980 . S
H301 C238 0.961 . S
H302 C238 0.960 . S
H303 C238 0.959 . S
H304 C241 0.930 . S
H305 C245 0.931 . S
H306 C246 0.959 . S
H307 C246 0.961 . S
H308 C246 0.959 . S
H309 C247 0.960 . S
H310 C247 0.960 . S
H311 C247 0.960 . S
H312 C283 0.980 . S
H313 C249 0.930 . S
H314 C253 0.930 . S
H315 C254 0.961 . S
H316 C254 0.960 . S
H317 C254 0.958 . S
H318 C255 0.961 . S
H319 C255 0.960 . S
H320 C255 0.960 . S
H321 C257 0.980 . S
H322 C256 0.961 . S
H323 C256 0.961 . S
H324 C256 0.959 . S
H325 C259 0.932 . S
H326 C263 0.929 . S
H327 C264 0.961 . S
H328 C264 0.959 . S
H329 C264 0.959 . S
H330 C265 0.960 . S
H331 C265 0.962 . S
H332 C265 0.961 . S
H333 C267 0.929 . S
H334 C270 0.930 . S
H335 C271 0.929 . S
H336 C274 0.930 . S
H337 C277 0.929 . S
H338 C278 0.930 . S
H339 C282 0.962 . S
H340 C282 0.959 . S
H341 C282 0.958 . S
C342 C343 1.560 . S
C342 H403 0.959 . S
C342 H404 0.959 . S
C342 H405 0.960 . S
C343 C342 1.560 . S
C343 O398 1.426 . S
C343 H402 0.980 . S
C344 C345 1.407 . S
C344 C349 1.418 . S
C344 O398 1.334 . S
C345 C344 1.407 . S
C345 C346 1.360 . S
C345 H406 0.929 . S
C346 C345 1.360 . S
C346 C347 1.401 . S
C346 C350 1.527 . S
C347 C346 1.401 . S
C347 C348 1.405 . S
C347 C380 1.587 . S
C348 C347 1.405 . S
C348 C349 1.332 . S
C348 C351 1.496 . S
C349 C344 1.418 . S
C349 C348 1.332 . S
C349 H407 0.929 . S
C350 C346 1.527 . S
C350 H408 0.959 . S
C350 H409 0.961 . S
C350 H410 0.961 . S
C351 C348 1.496 . S
C351 H411 0.960 . S
C351 H412 0.960 . S
C351 H413 0.961 . S
C352 C353 1.517 . S
C352 H415 0.961 . S
C352 H416 0.960 . S
C352 H417 0.959 . S
C353 C352 1.517 . S
C353 O401 1.468 . S
C353 H414 0.980 . S
C354 C355 1.349 . S
C354 C359 1.367 . S
C354 O401 1.408 . S
C355 C354 1.349 . S
C355 C356 1.407 . S
C355 H418 0.930 . S
C356 C355 1.407 . S
C356 C357 1.449 . S
C356 C360 1.535 . S
C357 C356 1.449 . S
C357 C358 1.384 . S
C357 C382 1.553 . S
C358 C357 1.384 . S
C358 C359 1.364 . S
C358 C361 1.450 . S
C359 C354 1.367 . S
C359 C358 1.364 . S
C359 H419 0.931 . S
C360 C356 1.535 . S
C360 H420 0.959 . S
C360 H421 0.961 . S
C360 H422 0.959 . S
C361 C358 1.450 . S
C361 H423 0.960 . S
C361 H424 0.960 . S
C361 H425 0.960 . S
C362 C363 1.309 . S
C362 C367 1.304 . S
C362 O400 1.435 . S
C363 C362 1.309 . S
C363 C364 1.476 . S
C363 H427 0.930 . S
C364 C363 1.476 . S
C364 C365 1.400 . S
C364 C368 1.567 . S
C365 C364 1.400 . S
C365 C366 1.373 . S
C365 C387 1.432 . S
C366 C365 1.373 . S
C366 C367 1.339 . S
C366 C369 1.530 . S
C367 C362 1.304 . S
C367 C366 1.339 . S
C367 H428 0.930 . S
C368 C364 1.567 . S
C368 H429 0.961 . S
C368 H430 0.960 . S
C368 H431 0.958 . S
C369 C366 1.530 . S
C369 H432 0.961 . S
C369 H433 0.960 . S
C369 H434 0.960 . S
C370 C371 1.530 . S
C370 H436 0.961 . S
C370 H437 0.961 . S
C370 H438 0.959 . S
C371 C370 1.530 . S
C371 O399 1.412 . S
C371 H435 0.980 . S
C372 C373 1.288 . S
C372 C377 1.377 . S
C372 O399 1.393 . S
C373 C372 1.288 . S
C373 C374 1.369 . S
C373 H439 0.932 . S
C374 C373 1.369 . S
C374 C375 1.398 . S
C374 C378 1.527 . S
C375 C374 1.398 . S
C375 C376 1.380 . S
C375 C389 1.497 . S
C376 C375 1.380 . S
C376 C377 1.383 . S
C376 C379 1.603 . S
C377 C372 1.377 . S
C377 C376 1.383 . S
C377 H440 0.929 . S
C378 C374 1.527 . S
C378 H441 0.961 . S
C378 H442 0.959 . S
C378 H443 0.959 . S
C379 C376 1.603 . S
C379 H444 0.960 . S
C379 H445 0.962 . S
C379 H446 0.961 . S
C380 C347 1.587 . S
C380 C381 1.360 . S
C380 C393 1.412 . S
C381 C380 1.360 . S
C381 C382 1.365 . S
C381 H447 0.929 . S
C382 C357 1.553 . S
C382 C381 1.365 . S
C382 C383 1.404 . S
C383 C382 1.404 . S
C383 C384 1.395 . S
C383 C394 1.451 . S
C384 C383 1.395 . S
C384 C385 1.322 . S
C384 H448 0.930 . S
C385 C384 1.322 . S
C385 C386 1.459 . S
C385 H449 0.929 . S
C386 C385 1.459 . S
C386 C387 1.445 . S
C386 C395 1.395 . S
C387 C365 1.432 . S
C387 C386 1.445 . S
C387 C388 1.370 . S
C388 C387 1.370 . S
C388 C389 1.438 . S
C388 H450 0.930 . S
C389 C375 1.497 . S
C389 C388 1.438 . S
C389 C390 1.360 . S
C390 C389 1.360 . S
C390 C391 1.401 . S
C390 C395 1.446 . S
C391 C390 1.401 . S
C391 C392 1.347 . S
C391 H451 0.929 . S
C392 C391 1.347 . S
C392 C393 1.455 . S
C392 H452 0.930 . S
C393 C380 1.412 . S
C393 C392 1.455 . S
C393 C394 1.331 . S
C394 C383 1.451 . S
C394 C393 1.331 . S
C394 C395 1.497 . S
C395 C386 1.395 . S
C395 C390 1.446 . S
C395 C394 1.497 . S
C396 C397 1.582 . S
C396 H453 0.962 . S
C396 H454 0.959 . S
C396 H455 0.958 . S
C397 C396 1.582 . S
C397 O400 1.458 . S
C397 H426 0.980 . S
O398 C343 1.426 . S
O398 C344 1.334 . S
O399 C371 1.412 . S
O399 C372 1.393 . S
O400 C362 1.435 . S
O400 C397 1.458 . S
O401 C353 1.468 . S
O401 C354 1.408 . S
H402 C343 0.980 . S
H403 C342 0.959 . S
H404 C342 0.959 . S
H405 C342 0.960 . S
H406 C345 0.929 . S
H407 C349 0.929 . S
H408 C350 0.959 . S
H409 C350 0.961 . S
H410 C350 0.961 . S
H411 C351 0.960 . S
H412 C351 0.960 . S
H413 C351 0.961 . S
H414 C353 0.980 . S
H415 C352 0.961 . S
H416 C352 0.960 . S
H417 C352 0.959 . S
H418 C355 0.930 . S
H419 C359 0.931 . S
H420 C360 0.959 . S
H421 C360 0.961 . S
H422 C360 0.959 . S
H423 C361 0.960 . S
H424 C361 0.960 . S
H425 C361 0.960 . S
H426 C397 0.980 . S
H427 C363 0.930 . S
H428 C367 0.930 . S
H429 C368 0.961 . S
H430 C368 0.960 . S
H431 C368 0.958 . S
H432 C369 0.961 . S
H433 C369 0.960 . S
H434 C369 0.960 . S
H435 C371 0.980 . S
H436 C370 0.961 . S
H437 C370 0.961 . S
H438 C370 0.959 . S
H439 C373 0.932 . S
H440 C377 0.929 . S
H441 C378 0.961 . S
H442 C378 0.959 . S
H443 C378 0.959 . S
H444 C379 0.960 . S
H445 C379 0.962 . S
H446 C379 0.961 . S
H447 C381 0.929 . S
H448 C384 0.930 . S
H449 C385 0.929 . S
H450 C388 0.930 . S
H451 C391 0.929 . S
H452 C392 0.930 . S
H453 C396 0.962 . S
H454 C396 0.959 . S
H455 C396 0.958 . S
C456 C457 1.560 . S
C456 H517 0.959 . S
C456 H518 0.959 . S
C456 H519 0.960 . S
C457 C456 1.560 . S
C457 O512 1.426 . S
C457 H516 0.980 . S
C458 C459 1.407 . S
C458 C463 1.418 . S
C458 O512 1.334 . S
C459 C458 1.407 . S
C459 C460 1.360 . S
C459 H520 0.929 . S
C460 C459 1.360 . S
C460 C461 1.401 . S
C460 C464 1.527 . S
C461 C460 1.401 . S
C461 C462 1.405 . S
C461 C494 1.587 . S
C462 C461 1.405 . S
C462 C463 1.332 . S
C462 C465 1.496 . S
C463 C458 1.418 . S
C463 C462 1.332 . S
C463 H521 0.929 . S
C464 C460 1.527 . S
C464 H522 0.959 . S
C464 H523 0.961 . S
C464 H524 0.961 . S
C465 C462 1.496 . S
C465 H525 0.960 . S
C465 H526 0.960 . S
C465 H527 0.961 . S
C466 C467 1.517 . S
C466 H529 0.961 . S
C466 H530 0.960 . S
C466 H531 0.959 . S
C467 C466 1.517 . S
C467 O515 1.468 . S
C467 H528 0.980 . S
C468 C469 1.349 . S
C468 C473 1.367 . S
C468 O515 1.408 . S
C469 C468 1.349 . S
C469 C470 1.407 . S
C469 H532 0.930 . S
C470 C469 1.407 . S
C470 C471 1.449 . S
C470 C474 1.535 . S
C471 C470 1.449 . S
C471 C472 1.384 . S
C471 C496 1.553 . S
C472 C471 1.384 . S
C472 C473 1.364 . S
C472 C475 1.450 . S
C473 C468 1.367 . S
C473 C472 1.364 . S
C473 H533 0.931 . S
C474 C470 1.535 . S
C474 H534 0.959 . S
C474 H535 0.961 . S
C474 H536 0.959 . S
C475 C472 1.450 . S
C475 H537 0.960 . S
C475 H538 0.960 . S
C475 H539 0.960 . S
C476 C477 1.309 . S
C476 C481 1.304 . S
C476 O514 1.435 . S
C477 C476 1.309 . S
C477 C478 1.476 . S
C477 H541 0.930 . S
C478 C477 1.476 . S
C478 C479 1.400 . S
C478 C482 1.567 . S
C479 C478 1.400 . S
C479 C480 1.373 . S
C479 C501 1.432 . S
C480 C479 1.373 . S
C480 C481 1.339 . S
C480 C483 1.530 . S
C481 C476 1.304 . S
C481 C480 1.339 . S
C481 H542 0.930 . S
C482 C478 1.567 . S
C482 H543 0.961 . S
C482 H544 0.960 . S
C482 H545 0.958 . S
C483 C480 1.530 . S
C483 H546 0.961 . S
C483 H547 0.960 . S
C483 H548 0.960 . S
C484 C485 1.530 . S
C484 H550 0.961 . S
C484 H551 0.961 . S
C484 H552 0.959 . S
C485 C484 1.530 . S
C485 O513 1.412 . S
C485 H549 0.980 . S
C486 C487 1.288 . S
C486 C491 1.377 . S
C486 O513 1.393 . S
C487 C486 1.288 . S
C487 C488 1.369 . S
C487 H553 0.932 . S
C488 C487 1.369 . S
C488 C489 1.398 . S
C488 C492 1.527 . S
C489 C488 1.398 . S
C489 C490 1.380 . S
C489 C503 1.497 . S
C490 C489 1.380 . S
C490 C491 1.383 . S
C490 C493 1.603 . S
C491 C486 1.377 . S
C491 C490 1.383 . S
C491 H554 0.929 . S
C492 C488 1.527 . S
C492 H555 0.961 . S
C492 H556 0.959 . S
C492 H557 0.959 . S
C493 C490 1.603 . S
C493 H558 0.960 . S
C493 H559 0.962 . S
C493 H560 0.961 . S
C494 C461 1.587 . S
C494 C495 1.360 . S
C494 C507 1.412 . S
C495 C494 1.360 . S
C495 C496 1.365 . S
C495 H561 0.929 . S
C496 C471 1.553 . S
C496 C495 1.365 . S
C496 C497 1.404 . S
C497 C496 1.404 . S
C497 C498 1.395 . S
C497 C508 1.451 . S
C498 C497 1.395 . S
C498 C499 1.322 . S
C498 H562 0.930 . S
C499 C498 1.322 . S
C499 C500 1.459 . S
C499 H563 0.929 . S
C500 C499 1.459 . S
C500 C501 1.445 . S
C500 C509 1.395 . S
C501 C479 1.432 . S
C501 C500 1.445 . S
C501 C502 1.370 . S
C502 C501 1.370 . S
C502 C503 1.438 . S
C502 H564 0.930 . S
C503 C489 1.497 . S
C503 C502 1.438 . S
C503 C504 1.360 . S
C504 C503 1.360 . S
C504 C505 1.401 . S
C504 C509 1.446 . S
C505 C504 1.401 . S
C505 C506 1.347 . S
C505 H565 0.929 . S
C506 C505 1.347 . S
C506 C507 1.455 . S
C506 H566 0.930 . S
C507 C494 1.412 . S
C507 C506 1.455 . S
C507 C508 1.331 . S
C508 C497 1.451 . S
C508 C507 1.331 . S
C508 C509 1.497 . S
C509 C500 1.395 . S
C509 C504 1.446 . S
C509 C508 1.497 . S
C510 C511 1.582 . S
C510 H567 0.962 . S
C510 H568 0.959 . S
C510 H569 0.958 . S
C511 C510 1.582 . S
C511 O514 1.458 . S
C511 H540 0.980 . S
O512 C457 1.426 . S
O512 C458 1.334 . S
O513 C485 1.412 . S
O513 C486 1.393 . S
O514 C476 1.435 . S
O514 C511 1.458 . S
O515 C467 1.468 . S
O515 C468 1.408 . S
H516 C457 0.980 . S
H517 C456 0.959 . S
H518 C456 0.959 . S
H519 C456 0.960 . S
H520 C459 0.929 . S
H521 C463 0.929 . S
H522 C464 0.959 . S
H523 C464 0.961 . S
H524 C464 0.961 . S
H525 C465 0.960 . S
H526 C465 0.960 . S
H527 C465 0.961 . S
H528 C467 0.980 . S
H529 C466 0.961 . S
H530 C466 0.960 . S
H531 C466 0.959 . S
H532 C469 0.930 . S
H533 C473 0.931 . S
H534 C474 0.959 . S
H535 C474 0.961 . S
H536 C474 0.959 . S
H537 C475 0.960 . S
H538 C475 0.960 . S
H539 C475 0.960 . S
H540 C511 0.980 . S
H541 C477 0.930 . S
H542 C481 0.930 . S
H543 C482 0.961 . S
H544 C482 0.960 . S
H545 C482 0.958 . S
H546 C483 0.961 . S
H547 C483 0.960 . S
H548 C483 0.960 . S
H549 C485 0.980 . S
H550 C484 0.961 . S
H551 C484 0.961 . S
H552 C484 0.959 . S
H553 C487 0.932 . S
H554 C491 0.929 . S
H555 C492 0.961 . S
H556 C492 0.959 . S
H557 C492 0.959 . S
H558 C493 0.960 . S
H559 C493 0.962 . S
H560 C493 0.961 . S
H561 C495 0.929 . S
H562 C498 0.930 . S
H563 C499 0.929 . S
H564 C502 0.930 . S
H565 C505 0.929 . S
H566 C506 0.930 . S
H567 C510 0.962 . S
H568 C510 0.959 . S
H569 C510 0.958 . S
C570 C571 1.560 . S
C570 H631 0.959 . S
C570 H632 0.959 . S
C570 H633 0.960 . S
C571 C570 1.560 . S
C571 O626 1.426 . S
C571 H630 0.980 . S
C572 C573 1.407 . S
C572 C577 1.418 . S
C572 O626 1.334 . S
C573 C572 1.407 . S
C573 C574 1.360 . S
C573 H634 0.929 . S
C574 C573 1.360 . S
C574 C575 1.401 . S
C574 C578 1.527 . S
C575 C574 1.401 . S
C575 C576 1.405 . S
C575 C608 1.587 . S
C576 C575 1.405 . S
C576 C577 1.332 . S
C576 C579 1.496 . S
C577 C572 1.418 . S
C577 C576 1.332 . S
C577 H635 0.929 . S
C578 C574 1.527 . S
C578 H636 0.959 . S
C578 H637 0.961 . S
C578 H638 0.961 . S
C579 C576 1.496 . S
C579 H639 0.960 . S
C579 H640 0.960 . S
C579 H641 0.961 . S
C580 C581 1.517 . S
C580 H643 0.961 . S
C580 H644 0.960 . S
C580 H645 0.959 . S
C581 C580 1.517 . S
C581 O629 1.468 . S
C581 H642 0.980 . S
C582 C583 1.349 . S
C582 C587 1.367 . S
C582 O629 1.408 . S
C583 C582 1.349 . S
C583 C584 1.407 . S
C583 H646 0.930 . S
C584 C583 1.407 . S
C584 C585 1.449 . S
C584 C588 1.535 . S
C585 C584 1.449 . S
C585 C586 1.384 . S
C585 C610 1.553 . S
C586 C585 1.384 . S
C586 C587 1.364 . S
C586 C589 1.450 . S
C587 C582 1.367 . S
C587 C586 1.364 . S
C587 H647 0.931 . S
C588 C584 1.535 . S
C588 H648 0.959 . S
C588 H649 0.961 . S
C588 H650 0.959 . S
C589 C586 1.450 . S
C589 H651 0.960 . S
C589 H652 0.960 . S
C589 H653 0.960 . S
C590 C591 1.309 . S
C590 C595 1.304 . S
C590 O628 1.435 . S
C591 C590 1.309 . S
C591 C592 1.476 . S
C591 H655 0.930 . S
C592 C591 1.476 . S
C592 C593 1.400 . S
C592 C596 1.567 . S
C593 C592 1.400 . S
C593 C594 1.373 . S
C593 C615 1.432 . S
C594 C593 1.373 . S
C594 C595 1.339 . S
C594 C597 1.530 . S
C595 C590 1.304 . S
C595 C594 1.339 . S
C595 H656 0.930 . S
C596 C592 1.567 . S
C596 H657 0.961 . S
C596 H658 0.960 . S
C596 H659 0.958 . S
C597 C594 1.530 . S
C597 H660 0.961 . S
C597 H661 0.960 . S
C597 H662 0.960 . S
C598 C599 1.530 . S
C598 H664 0.961 . S
C598 H665 0.961 . S
C598 H666 0.959 . S
C599 C598 1.530 . S
C599 O627 1.412 . S
C599 H663 0.980 . S
C600 C601 1.288 . S
C600 C605 1.377 . S
C600 O627 1.393 . S
C601 C600 1.288 . S
C601 C602 1.369 . S
C601 H667 0.932 . S
C602 C601 1.369 . S
C602 C603 1.398 . S
C602 C606 1.527 . S
C603 C602 1.398 . S
C603 C604 1.380 . S
C603 C617 1.497 . S
C604 C603 1.380 . S
C604 C605 1.383 . S
C604 C607 1.603 . S
C605 C600 1.377 . S
C605 C604 1.383 . S
C605 H668 0.929 . S
C606 C602 1.527 . S
C606 H669 0.961 . S
C606 H670 0.959 . S
C606 H671 0.959 . S
C607 C604 1.603 . S
C607 H672 0.960 . S
C607 H673 0.962 . S
C607 H674 0.961 . S
C608 C575 1.587 . S
C608 C609 1.360 . S
C608 C621 1.412 . S
C609 C608 1.360 . S
C609 C610 1.365 . S
C609 H675 0.929 . S
C610 C585 1.553 . S
C610 C609 1.365 . S
C610 C611 1.404 . S
C611 C610 1.404 . S
C611 C612 1.395 . S
C611 C622 1.451 . S
C612 C611 1.395 . S
C612 C613 1.322 . S
C612 H676 0.930 . S
C613 C612 1.322 . S
C613 C614 1.459 . S
C613 H677 0.929 . S
C614 C613 1.459 . S
C614 C615 1.445 . S
C614 C623 1.395 . S
C615 C593 1.432 . S
C615 C614 1.445 . S
C615 C616 1.370 . S
C616 C615 1.370 . S
C616 C617 1.438 . S
C616 H678 0.930 . S
C617 C603 1.497 . S
C617 C616 1.438 . S
C617 C618 1.360 . S
C618 C617 1.360 . S
C618 C619 1.401 . S
C618 C623 1.446 . S
C619 C618 1.401 . S
C619 C620 1.347 . S
C619 H679 0.929 . S
C620 C619 1.347 . S
C620 C621 1.455 . S
C620 H680 0.930 . S
C621 C608 1.412 . S
C621 C620 1.455 . S
C621 C622 1.331 . S
C622 C611 1.451 . S
C622 C621 1.331 . S
C622 C623 1.497 . S
C623 C614 1.395 . S
C623 C618 1.446 . S
C623 C622 1.497 . S
C624 C625 1.582 . S
C624 H681 0.962 . S
C624 H682 0.959 . S
C624 H683 0.958 . S
C625 C624 1.582 . S
C625 O628 1.458 . S
C625 H654 0.980 . S
O626 C571 1.426 . S
O626 C572 1.334 . S
O627 C599 1.412 . S
O627 C600 1.393 . S
O628 C590 1.435 . S
O628 C625 1.458 . S
O629 C581 1.468 . S
O629 C582 1.408 . S
H630 C571 0.980 . S
H631 C570 0.959 . S
H632 C570 0.959 . S
H633 C570 0.960 . S
H634 C573 0.929 . S
H635 C577 0.929 . S
H636 C578 0.959 . S
H637 C578 0.961 . S
H638 C578 0.961 . S
H639 C579 0.960 . S
H640 C579 0.960 . S
H641 C579 0.961 . S
H642 C581 0.980 . S
H643 C580 0.961 . S
H644 C580 0.960 . S
H645 C580 0.959 . S
H646 C583 0.930 . S
H647 C587 0.931 . S
H648 C588 0.959 . S
H649 C588 0.961 . S
H650 C588 0.959 . S
H651 C589 0.960 . S
H652 C589 0.960 . S
H653 C589 0.960 . S
H654 C625 0.980 . S
H655 C591 0.930 . S
H656 C595 0.930 . S
H657 C596 0.961 . S
H658 C596 0.960 . S
H659 C596 0.958 . S
H660 C597 0.961 . S
H661 C597 0.960 . S
H662 C597 0.960 . S
H663 C599 0.980 . S
H664 C598 0.961 . S
H665 C598 0.961 . S
H666 C598 0.959 . S
H667 C601 0.932 . S
H668 C605 0.929 . S
H669 C606 0.961 . S
H670 C606 0.959 . S
H671 C606 0.959 . S
H672 C607 0.960 . S
H673 C607 0.962 . S
H674 C607 0.961 . S
H675 C609 0.929 . S
H676 C612 0.930 . S
H677 C613 0.929 . S
H678 C616 0.930 . S
H679 C619 0.929 . S
H680 C620 0.930 . S
H681 C624 0.962 . S
H682 C624 0.959 . S
H683 C624 0.958 . S
C684 C685 1.560 . S
C684 H745 0.959 . S
C684 H746 0.959 . S
C684 H747 0.960 . S
C685 C684 1.560 . S
C685 O740 1.426 . S
C685 H744 0.980 . S
C686 C687 1.407 . S
C686 C691 1.418 . S
C686 O740 1.334 . S
C687 C686 1.407 . S
C687 C688 1.360 . S
C687 H748 0.929 . S
C688 C687 1.360 . S
C688 C689 1.401 . S
C688 C692 1.527 . S
C689 C688 1.401 . S
C689 C690 1.405 . S
C689 C722 1.587 . S
C690 C689 1.405 . S
C690 C691 1.332 . S
C690 C693 1.496 . S
C691 C686 1.418 . S
C691 C690 1.332 . S
C691 H749 0.929 . S
C692 C688 1.527 . S
C692 H750 0.959 . S
C692 H751 0.961 . S
C692 H752 0.961 . S
C693 C690 1.496 . S
C693 H753 0.960 . S
C693 H754 0.960 . S
C693 H755 0.961 . S
C694 C695 1.517 . S
C694 H757 0.961 . S
C694 H758 0.960 . S
C694 H759 0.959 . S
C695 C694 1.517 . S
C695 O743 1.468 . S
C695 H756 0.980 . S
C696 C697 1.349 . S
C696 C701 1.367 . S
C696 O743 1.408 . S
C697 C696 1.349 . S
C697 C698 1.407 . S
C697 H760 0.930 . S
C698 C697 1.407 . S
C698 C699 1.449 . S
C698 C702 1.535 . S
C699 C698 1.449 . S
C699 C700 1.384 . S
C699 C724 1.553 . S
C700 C699 1.384 . S
C700 C701 1.364 . S
C700 C703 1.450 . S
C701 C696 1.367 . S
C701 C700 1.364 . S
C701 H761 0.931 . S
C702 C698 1.535 . S
C702 H762 0.959 . S
C702 H763 0.961 . S
C702 H764 0.959 . S
C703 C700 1.450 . S
C703 H765 0.960 . S
C703 H766 0.960 . S
C703 H767 0.960 . S
C704 C705 1.309 . S
C704 C709 1.304 . S
C704 O742 1.435 . S
C705 C704 1.309 . S
C705 C706 1.476 . S
C705 H769 0.930 . S
C706 C705 1.476 . S
C706 C707 1.400 . S
C706 C710 1.567 . S
C707 C706 1.400 . S
C707 C708 1.373 . S
C707 C729 1.432 . S
C708 C707 1.373 . S
C708 C709 1.339 . S
C708 C711 1.530 . S
C709 C704 1.304 . S
C709 C708 1.339 . S
C709 H770 0.930 . S
C710 C706 1.567 . S
C710 H771 0.961 . S
C710 H772 0.960 . S
C710 H773 0.958 . S
C711 C708 1.530 . S
C711 H774 0.961 . S
C711 H775 0.960 . S
C711 H776 0.960 . S
C712 C713 1.530 . S
C712 H778 0.961 . S
C712 H779 0.961 . S
C712 H780 0.959 . S
C713 C712 1.530 . S
C713 O741 1.412 . S
C713 H777 0.980 . S
C714 C715 1.288 . S
C714 C719 1.377 . S
C714 O741 1.393 . S
C715 C714 1.288 . S
C715 C716 1.369 . S
C715 H781 0.932 . S
C716 C715 1.369 . S
C716 C717 1.398 . S
C716 C720 1.527 . S
C717 C716 1.398 . S
C717 C718 1.380 . S
C717 C731 1.497 . S
C718 C717 1.380 . S
C718 C719 1.383 . S
C718 C721 1.603 . S
C719 C714 1.377 . S
C719 C718 1.383 . S
C719 H782 0.929 . S
C720 C716 1.527 . S
C720 H783 0.961 . S
C720 H784 0.959 . S
C720 H785 0.959 . S
C721 C718 1.603 . S
C721 H786 0.960 . S
C721 H787 0.962 . S
C721 H788 0.961 . S
C722 C689 1.587 . S
C722 C723 1.360 . S
C722 C735 1.412 . S
C723 C722 1.360 . S
C723 C724 1.365 . S
C723 H789 0.929 . S
C724 C699 1.553 . S
C724 C723 1.365 . S
C724 C725 1.404 . S
C725 C724 1.404 . S
C725 C726 1.395 . S
C725 C736 1.451 . S
C726 C725 1.395 . S
C726 C727 1.322 . S
C726 H790 0.930 . S
C727 C726 1.322 . S
C727 C728 1.459 . S
C727 H791 0.929 . S
C728 C727 1.459 . S
C728 C729 1.445 . S
C728 C737 1.395 . S
C729 C707 1.432 . S
C729 C728 1.445 . S
C729 C730 1.370 . S
C730 C729 1.370 . S
C730 C731 1.438 . S
C730 H792 0.930 . S
C731 C717 1.497 . S
C731 C730 1.438 . S
C731 C732 1.360 . S
C732 C731 1.360 . S
C732 C733 1.401 . S
C732 C737 1.446 . S
C733 C732 1.401 . S
C733 C734 1.347 . S
C733 H793 0.929 . S
C734 C733 1.347 . S
C734 C735 1.455 . S
C734 H794 0.930 . S
C735 C722 1.412 . S
C735 C734 1.455 . S
C735 C736 1.331 . S
C736 C725 1.451 . S
C736 C735 1.331 . S
C736 C737 1.497 . S
C737 C728 1.395 . S
C737 C732 1.446 . S
C737 C736 1.497 . S
C738 C739 1.582 . S
C738 H795 0.962 . S
C738 H796 0.959 . S
C738 H797 0.958 . S
C739 C738 1.582 . S
C739 O742 1.458 . S
C739 H768 0.980 . S
O740 C685 1.426 . S
O740 C686 1.334 . S
O741 C713 1.412 . S
O741 C714 1.393 . S
O742 C704 1.435 . S
O742 C739 1.458 . S
O743 C695 1.468 . S
O743 C696 1.408 . S
H744 C685 0.980 . S
H745 C684 0.959 . S
H746 C684 0.959 . S
H747 C684 0.960 . S
H748 C687 0.929 . S
H749 C691 0.929 . S
H750 C692 0.959 . S
H751 C692 0.961 . S
H752 C692 0.961 . S
H753 C693 0.960 . S
H754 C693 0.960 . S
H755 C693 0.961 . S
H756 C695 0.980 . S
H757 C694 0.961 . S
H758 C694 0.960 . S
H759 C694 0.959 . S
H760 C697 0.930 . S
H761 C701 0.931 . S
H762 C702 0.959 . S
H763 C702 0.961 . S
H764 C702 0.959 . S
H765 C703 0.960 . S
H766 C703 0.960 . S
H767 C703 0.960 . S
H768 C739 0.980 . S
H769 C705 0.930 . S
H770 C709 0.930 . S
H771 C710 0.961 . S
H772 C710 0.960 . S
H773 C710 0.958 . S
H774 C711 0.961 . S
H775 C711 0.960 . S
H776 C711 0.960 . S
H777 C713 0.980 . S
H778 C712 0.961 . S
H779 C712 0.961 . S
H780 C712 0.959 . S
H781 C715 0.932 . S
H782 C719 0.929 . S
H783 C720 0.961 . S
H784 C720 0.959 . S
H785 C720 0.959 . S
H786 C721 0.960 . S
H787 C721 0.962 . S
H788 C721 0.961 . S
H789 C723 0.929 . S
H790 C726 0.930 . S
H791 C727 0.929 . S
H792 C730 0.930 . S
H793 C733 0.929 . S
H794 C734 0.930 . S
H795 C738 0.962 . S
H796 C738 0.959 . S
H797 C738 0.958 . S
C798 C799 1.560 . S
C798 H859 0.959 . S
C798 H860 0.959 . S
C798 H861 0.960 . S
C799 C798 1.560 . S
C799 O854 1.426 . S
C799 H858 0.980 . S
C800 C801 1.407 . S
C800 C805 1.418 . S
C800 O854 1.334 . S
C801 C800 1.407 . S
C801 C802 1.360 . S
C801 H862 0.929 . S
C802 C801 1.360 . S
C802 C803 1.401 . S
C802 C806 1.527 . S
C803 C802 1.401 . S
C803 C804 1.405 . S
C803 C836 1.587 . S
C804 C803 1.405 . S
C804 C805 1.332 . S
C804 C807 1.496 . S
C805 C800 1.418 . S
C805 C804 1.332 . S
C805 H863 0.929 . S
C806 C802 1.527 . S
C806 H864 0.959 . S
C806 H865 0.961 . S
C806 H866 0.961 . S
C807 C804 1.496 . S
C807 H867 0.960 . S
C807 H868 0.960 . S
C807 H869 0.961 . S
C808 C809 1.517 . S
C808 H871 0.961 . S
C808 H872 0.960 . S
C808 H873 0.959 . S
C809 C808 1.517 . S
C809 O857 1.468 . S
C809 H870 0.980 . S
C810 C811 1.349 . S
C810 C815 1.367 . S
C810 O857 1.408 . S
C811 C810 1.349 . S
C811 C812 1.407 . S
C811 H874 0.930 . S
C812 C811 1.407 . S
C812 C813 1.449 . S
C812 C816 1.535 . S
C813 C812 1.449 . S
C813 C814 1.384 . S
C813 C838 1.553 . S
C814 C813 1.384 . S
C814 C815 1.364 . S
C814 C817 1.450 . S
C815 C810 1.367 . S
C815 C814 1.364 . S
C815 H875 0.931 . S
C816 C812 1.535 . S
C816 H876 0.959 . S
C816 H877 0.961 . S
C816 H878 0.959 . S
C817 C814 1.450 . S
C817 H879 0.960 . S
C817 H880 0.960 . S
C817 H881 0.960 . S
C818 C819 1.309 . S
C818 C823 1.304 . S
C818 O856 1.435 . S
C819 C818 1.309 . S
C819 C820 1.476 . S
C819 H883 0.930 . S
C820 C819 1.476 . S
C820 C821 1.400 . S
C820 C824 1.567 . S
C821 C820 1.400 . S
C821 C822 1.373 . S
C821 C843 1.432 . S
C822 C821 1.373 . S
C822 C823 1.339 . S
C822 C825 1.530 . S
C823 C818 1.304 . S
C823 C822 1.339 . S
C823 H884 0.930 . S
C824 C820 1.567 . S
C824 H885 0.961 . S
C824 H886 0.960 . S
C824 H887 0.958 . S
C825 C822 1.530 . S
C825 H888 0.961 . S
C825 H889 0.960 . S
C825 H890 0.960 . S
C826 C827 1.530 . S
C826 H892 0.961 . S
C826 H893 0.961 . S
C826 H894 0.959 . S
C827 C826 1.530 . S
C827 O855 1.412 . S
C827 H891 0.980 . S
C828 C829 1.288 . S
C828 C833 1.377 . S
C828 O855 1.393 . S
C829 C828 1.288 . S
C829 C830 1.369 . S
C829 H895 0.932 . S
C830 C829 1.369 . S
C830 C831 1.398 . S
C830 C834 1.527 . S
C831 C830 1.398 . S
C831 C832 1.380 . S
C831 C845 1.497 . S
C832 C831 1.380 . S
C832 C833 1.383 . S
C832 C835 1.603 . S
C833 C828 1.377 . S
C833 C832 1.383 . S
C833 H896 0.929 . S
C834 C830 1.527 . S
C834 H897 0.961 . S
C834 H898 0.959 . S
C834 H899 0.959 . S
C835 C832 1.603 . S
C835 H900 0.960 . S
C835 H901 0.962 . S
C835 H902 0.961 . S
C836 C803 1.587 . S
C836 C837 1.360 . S
C836 C849 1.412 . S
C837 C836 1.360 . S
C837 C838 1.365 . S
C837 H903 0.929 . S
C838 C813 1.553 . S
C838 C837 1.365 . S
C838 C839 1.404 . S
C839 C838 1.404 . S
C839 C840 1.395 . S
C839 C850 1.451 . S
C840 C839 1.395 . S
C840 C841 1.322 . S
C840 H904 0.930 . S
C841 C840 1.322 . S
C841 C842 1.459 . S
C841 H905 0.929 . S
C842 C841 1.459 . S
C842 C843 1.445 . S
C842 C851 1.395 . S
C843 C821 1.432 . S
C843 C842 1.445 . S
C843 C844 1.370 . S
C844 C843 1.370 . S
C844 C845 1.438 . S
C844 H906 0.930 . S
C845 C831 1.497 . S
C845 C844 1.438 . S
C845 C846 1.360 . S
C846 C845 1.360 . S
C846 C847 1.401 . S
C846 C851 1.446 . S
C847 C846 1.401 . S
C847 C848 1.347 . S
C847 H907 0.929 . S
C848 C847 1.347 . S
C848 C849 1.455 . S
C848 H908 0.930 . S
C849 C836 1.412 . S
C849 C848 1.455 . S
C849 C850 1.331 . S
C850 C839 1.451 . S
C850 C849 1.331 . S
C850 C851 1.497 . S
C851 C842 1.395 . S
C851 C846 1.446 . S
C851 C850 1.497 . S
C852 C853 1.582 . S
C852 H909 0.962 . S
C852 H910 0.959 . S
C852 H911 0.958 . S
C853 C852 1.582 . S
C853 O856 1.458 . S
C853 H882 0.980 . S
O854 C799 1.426 . S
O854 C800 1.334 . S
O855 C827 1.412 . S
O855 C828 1.393 . S
O856 C818 1.435 . S
O856 C853 1.458 . S
O857 C809 1.468 . S
O857 C810 1.408 . S
H858 C799 0.980 . S
H859 C798 0.959 . S
H860 C798 0.959 . S
H861 C798 0.960 . S
H862 C801 0.929 . S
H863 C805 0.929 . S
H864 C806 0.959 . S
H865 C806 0.961 . S
H866 C806 0.961 . S
H867 C807 0.960 . S
H868 C807 0.960 . S
H869 C807 0.961 . S
H870 C809 0.980 . S
H871 C808 0.961 . S
H872 C808 0.960 . S
H873 C808 0.959 . S
H874 C811 0.930 . S
H875 C815 0.931 . S
H876 C816 0.959 . S
H877 C816 0.961 . S
H878 C816 0.959 . S
H879 C817 0.960 . S
H880 C817 0.960 . S
H881 C817 0.960 . S
H882 C853 0.980 . S
H883 C819 0.930 . S
H884 C823 0.930 . S
H885 C824 0.961 . S
H886 C824 0.960 . S
H887 C824 0.958 . S
H888 C825 0.961 . S
H889 C825 0.960 . S
H890 C825 0.960 . S
H891 C827 0.980 . S
H892 C826 0.961 . S
H893 C826 0.961 . S
H894 C826 0.959 . S
H895 C829 0.932 . S
H896 C833 0.929 . S
H897 C834 0.961 . S
H898 C834 0.959 . S
H899 C834 0.959 . S
H900 C835 0.960 . S
H901 C835 0.962 . S
H902 C835 0.961 . S
H903 C837 0.929 . S
H904 C840 0.930 . S
H905 C841 0.929 . S
H906 C844 0.930 . S
H907 C847 0.929 . S
H908 C848 0.930 . S
H909 C852 0.962 . S
H910 C852 0.959 . S
H911 C852 0.958 . S
C912 O914 1.247 . S
C912 O916 1.258 . S
C913 O920 1.247 . S
C913 O921 1.258 . S
O914 C912 1.247 . S
O914 Zn915 2.028 1_655 S
Zn915 O914 2.028 1_455 S
Zn915 O919 2.035 . S
Zn915 O921 2.035 . S
Zn915 O922 2.028 1_455 S
O916 C912 1.258 . S
O916 Zn917 2.035 1_655 S
Zn917 O916 2.035 1_455 S
Zn917 O918 2.028 . S
Zn917 O920 2.028 . S
Zn917 O923 2.035 1_455 S
O918 Zn917 2.028 . S
O918 C924 1.247 . S
O919 Zn915 2.035 . S
O919 C924 1.258 . S
O920 C913 1.247 . S
O920 Zn917 2.028 . S
O921 C913 1.258 . S
O921 Zn915 2.035 . S
O922 Zn915 2.028 1_655 S
O922 C925 1.247 . S
O923 Zn917 2.035 1_655 S
O923 C925 1.258 . S
C924 O918 1.247 . S
C924 O919 1.258 . S
C925 O922 1.247 . S
C925 O923 1.258 . S
C926 O928 1.247 . S
C926 O930 1.258 . S
C927 O934 1.247 . S
C927 O935 1.258 . S
O928 C926 1.247 . S
O928 Zn929 2.028 . S
Zn929 O928 2.028 . S
Zn929 O933 2.035 1_545 S
Zn929 O935 2.035 1_545 S
Zn929 O936 2.028 . S
O930 C926 1.258 . S
O930 Zn931 2.035 . S
Zn931 O930 2.035 . S
Zn931 O932 2.028 1_545 S
Zn931 O934 2.028 1_545 S
Zn931 O937 2.035 . S
O932 Zn931 2.028 1_565 S
O932 C938 1.247 . S
O933 Zn929 2.035 1_565 S
O933 C938 1.258 . S
O934 C927 1.247 . S
O934 Zn931 2.028 1_565 S
O935 C927 1.258 . S
O935 Zn929 2.035 1_565 S
O936 Zn929 2.028 . S
O936 C939 1.247 . S
O937 Zn931 2.035 . S
O937 C939 1.258 . S
C938 O932 1.247 . S
C938 O933 1.258 . S
C939 O936 1.247 . S
C939 O937 1.258 . S
C940 O942 1.247 . S
C940 O944 1.258 . S
C941 O948 1.247 . S
C941 O949 1.258 . S
O942 C940 1.247 . S
O942 Zn943 2.028 1_655 S
Zn943 O942 2.028 1_455 S
Zn943 O947 2.035 . S
Zn943 O949 2.035 . S
Zn943 O950 2.028 1_455 S
O944 C940 1.258 . S
O944 Zn945 2.035 1_655 S
Zn945 O944 2.035 1_455 S
Zn945 O946 2.028 . S
Zn945 O948 2.028 . S
Zn945 O951 2.035 1_455 S
O946 Zn945 2.028 . S
O946 C952 1.247 . S
O947 Zn943 2.035 . S
O947 C952 1.258 . S
O948 C941 1.247 . S
O948 Zn945 2.028 . S
O949 C941 1.258 . S
O949 Zn943 2.035 . S
O950 Zn943 2.028 1_655 S
O950 C953 1.247 . S
O951 Zn945 2.035 1_655 S
O951 C953 1.258 . S
C952 O946 1.247 . S
C952 O947 1.258 . S
C953 O950 1.247 . S
C953 O951 1.258 . S
C954 O956 1.247 . S
C954 O958 1.258 . S
C955 O962 1.247 . S
C955 O963 1.258 . S
O956 C954 1.247 . S
O956 Zn957 2.028 . S
Zn957 O956 2.028 . S
Zn957 O961 2.035 1_545 S
Zn957 O963 2.035 1_545 S
Zn957 O964 2.028 . S
O958 C954 1.258 . S
O958 Zn959 2.035 . S
Zn959 O958 2.035 . S
Zn959 O960 2.028 1_545 S
Zn959 O962 2.028 1_545 S
Zn959 O965 2.035 . S
O960 Zn959 2.028 1_565 S
O960 C966 1.247 . S
O961 Zn957 2.035 1_565 S
O961 C966 1.258 . S
O962 C955 1.247 . S
O962 Zn959 2.028 1_565 S
O963 C955 1.258 . S
O963 Zn957 2.035 1_565 S
O964 Zn957 2.028 . S
O964 C967 1.247 . S
O965 Zn959 2.035 . S
O965 C967 1.258 . S
C966 O960 1.247 . S
C966 O961 1.258 . S
C967 O964 1.247 . S
C967 O965 1.258 . S
C968 O970 1.247 . S
C968 O972 1.258 . S
C969 O976 1.247 . S
C969 O977 1.258 . S
O970 C968 1.247 . S
O970 Zn971 2.039 . S
Zn971 O970 2.039 . S
Zn971 O975 2.047 . S
Zn971 O977 2.024 1_554 S
Zn971 O978 2.016 1_554 S
O972 C968 1.258 . S
O972 Zn973 2.051 . S
Zn973 O972 2.051 . S
Zn973 O974 2.044 . S
Zn973 O976 2.012 1_554 S
Zn973 O979 2.019 1_554 S
O974 Zn973 2.044 . S
O974 C980 1.247 . S
O975 Zn971 2.047 . S
O975 C980 1.258 . S
O976 C969 1.247 . S
O976 Zn973 2.012 1_556 S
O977 C969 1.258 . S
O977 Zn971 2.024 1_556 S
O978 Zn971 2.016 1_556 S
O978 C981 1.247 . S
O979 Zn973 2.019 1_556 S
O979 C981 1.258 . S
C980 O974 1.247 . S
C980 O975 1.258 . S
C981 O978 1.247 . S
C981 O979 1.258 . S
C982 O984 1.247 . S
C982 O986 1.258 . S
C983 O990 1.247 . S
C983 O991 1.258 . S
O984 C982 1.247 . S
O984 Zn985 2.028 . S
Zn985 O984 2.028 . S
Zn985 O989 2.035 . S
Zn985 O991 2.035 1_554 S
Zn985 O992 2.028 1_554 S
O986 C982 1.258 . S
O986 Zn987 2.035 . S
Zn987 O986 2.035 . S
Zn987 O988 2.028 . S
Zn987 O990 2.028 1_554 S
Zn987 O993 2.035 1_554 S
O988 Zn987 2.028 . S
O988 C994 1.247 . S
O989 Zn985 2.035 . S
O989 C994 1.258 . S
O990 C983 1.247 . S
O990 Zn987 2.028 1_556 S
O991 C983 1.258 . S
O991 Zn985 2.035 1_556 S
O992 Zn985 2.028 1_556 S
O992 C995 1.247 . S
O993 Zn987 2.035 1_556 S
O993 C995 1.258 . S
C994 O988 1.247 . S
C994 O989 1.258 . S
C995 O992 1.247 . S
C995 O993 1.258 . S
C996 O998 1.247 . S
C996 O1000 1.258 . S
C997 O1004 1.247 . S
C997 O1005 1.258 . S
O998 C996 1.247 . S
O998 Zn999 2.013 1_556 S
Zn999 O998 2.013 1_554 S
Zn999 O1003 2.021 1_554 S
Zn999 O1005 2.050 . S
Zn999 O1006 2.042 . S
O1000 C996 1.258 . S
O1000 Zn1001 2.024 1_556 S
Zn1001 O1000 2.024 1_554 S
Zn1001 O1002 2.017 1_554 S
Zn1001 O1004 2.039 . S
Zn1001 O1007 2.046 . S
O1002 Zn1001 2.017 1_556 S
O1002 C1008 1.247 . S
O1003 Zn999 2.021 1_556 S
O1003 C1008 1.258 . S
O1004 C997 1.247 . S
O1004 Zn1001 2.039 . S
O1005 C997 1.258 . S
O1005 Zn999 2.050 . S
O1006 Zn999 2.042 . S
O1006 C1009 1.247 . S
O1007 Zn1001 2.046 . S
O1007 C1009 1.258 . S
C1008 O1002 1.247 . S
C1008 O1003 1.258 . S
C1009 O1006 1.247 . S
C1009 O1007 1.258 . S
C1010 O1012 1.247 . S
C1010 O1014 1.258 . S
C1011 O1018 1.247 . S
C1011 O1019 1.258 . S
O1012 C1010 1.247 . S
O1012 Zn1013 2.028 . S
Zn1013 O1012 2.028 . S
Zn1013 O1017 2.035 . S
Zn1013 O1019 2.035 1_554 S
Zn1013 O1020 2.028 1_554 S
O1014 C1010 1.258 . S
O1014 Zn1015 2.035 . S
Zn1015 O1014 2.035 . S
Zn1015 O1016 2.028 . S
Zn1015 O1018 2.028 1_554 S
Zn1015 O1021 2.035 1_554 S
O1016 Zn1015 2.028 . S
O1016 C1022 1.247 . S
O1017 Zn1013 2.035 . S
O1017 C1022 1.258 . S
O1018 C1011 1.247 . S
O1018 Zn1015 2.028 1_556 S
O1019 C1011 1.258 . S
O1019 Zn1013 2.035 1_556 S
O1020 Zn1013 2.028 1_556 S
O1020 C1023 1.247 . S
O1021 Zn1015 2.035 1_556 S
O1021 C1023 1.258 . S
C1022 O1016 1.247 . S
C1022 O1017 1.258 . S
C1023 O1020 1.247 . S
C1023 O1021 1.258 . S
C1024 C1025 1.349 . S
C1024 C1026 1.327 . S
C1024 H1049 0.950 . S
C1025 C1024 1.349 . S
C1025 C1041 1.349 . S
C1026 C1024 1.327 . S
C1026 C1045 1.429 . S
C1026 H1050 0.950 . S
C1027 C1044 1.574 . S
C1027 C1046 1.368 . S
C1027 H1051 0.949 . S
H1028 C1032 0.949 . S
C1029 C1030 1.349 . S
C1029 C1031 1.327 . S
C1029 H1052 0.950 . S
C1030 C1029 1.349 . S
C1030 C1042 1.349 . S
C1031 C1029 1.327 . S
C1031 C1047 1.429 . S
C1031 H1053 0.950 . S
C1032 H1028 0.949 . S
C1032 C1040 1.574 . S
C1032 C1048 1.368 . S
H1033 C1041 0.950 . S
H1034 C1039 0.950 . S
H1035 C1040 0.949 . S
H1036 C1042 0.950 . S
H1037 C1043 0.950 . S
H1038 C1044 0.949 . S
C1039 H1034 0.950 . S
C1039 C1041 1.327 . S
C1039 C1045 1.429 . S
C1040 C1032 1.574 . S
C1040 H1035 0.949 . S
C1040 C1046 1.368 . S
C1041 C1025 1.349 . S
C1041 H1033 0.950 . S
C1041 C1039 1.327 . S
C1042 C1030 1.349 . S
C1042 H1036 0.950 . S
C1042 C1043 1.327 . S
C1043 H1037 0.950 . S
C1043 C1042 1.327 . S
C1043 C1047 1.429 . S
C1044 C1027 1.574 . S
C1044 H1038 0.949 . S
C1044 C1048 1.368 . S
C1045 C1026 1.429 . S
C1045 C1039 1.429 . S
C1045 C1046 1.523 . S
C1046 C1027 1.368 . S
C1046 C1040 1.368 . S
C1046 C1045 1.523 . S
C1047 C1031 1.429 . S
C1047 C1043 1.429 . S
C1047 C1048 1.523 . S
C1048 C1032 1.368 . S
C1048 C1044 1.368 . S
C1048 C1047 1.523 . S
H1049 C1024 0.950 . S
H1050 C1026 0.950 . S
H1051 C1027 0.949 . S
H1052 C1029 0.950 . S
H1053 C1031 0.950 . S
C1054 C1055 1.349 . S
C1054 C1056 1.327 . S
C1054 H1079 0.950 . S
C1055 C1054 1.349 . S
C1055 C1071 1.349 . S
C1056 C1054 1.327 . S
C1056 C1075 1.429 . S
C1056 H1080 0.950 . S
C1057 C1074 1.574 . S
C1057 C1076 1.368 . S
C1057 H1081 0.949 . S
H1058 C1062 0.949 . S
C1059 C1060 1.349 . S
C1059 C1061 1.327 . S
C1059 H1082 0.950 . S
C1060 C1059 1.349 . S
C1060 C1072 1.349 . S
C1061 C1059 1.327 . S
C1061 C1077 1.429 . S
C1061 H1083 0.950 . S
C1062 H1058 0.949 . S
C1062 C1070 1.574 . S
C1062 C1078 1.368 . S
H1063 C1071 0.950 . S
H1064 C1069 0.950 . S
H1065 C1070 0.949 . S
H1066 C1072 0.950 . S
H1067 C1073 0.950 . S
H1068 C1074 0.949 . S
C1069 H1064 0.950 . S
C1069 C1071 1.327 . S
C1069 C1075 1.429 . S
C1070 C1062 1.574 . S
C1070 H1065 0.949 . S
C1070 C1076 1.368 . S
C1071 C1055 1.349 . S
C1071 H1063 0.950 . S
C1071 C1069 1.327 . S
C1072 C1060 1.349 . S
C1072 H1066 0.950 . S
C1072 C1073 1.327 . S
C1073 H1067 0.950 . S
C1073 C1072 1.327 . S
C1073 C1077 1.429 . S
C1074 C1057 1.574 . S
C1074 H1068 0.949 . S
C1074 C1078 1.368 . S
C1075 C1056 1.429 . S
C1075 C1069 1.429 . S
C1075 C1076 1.523 . S
C1076 C1057 1.368 . S
C1076 C1070 1.368 . S
C1076 C1075 1.523 . S
C1077 C1061 1.429 . S
C1077 C1073 1.429 . S
C1077 C1078 1.523 . S
C1078 C1062 1.368 . S
C1078 C1074 1.368 . S
C1078 C1077 1.523 . S
H1079 C1054 0.950 . S
H1080 C1056 0.950 . S
H1081 C1057 0.949 . S
H1082 C1059 0.950 . S
H1083 C1061 0.950 . S
C1084 C1085 1.349 . S
C1084 C1086 1.327 . S
C1084 H1109 0.950 . S
C1085 C1084 1.349 . S
C1085 C1101 1.349 . S
C1086 C1084 1.327 . S
C1086 C1105 1.429 . S
C1086 H1110 0.950 . S
C1087 C1104 1.574 . S
C1087 C1106 1.368 . S
C1087 H1111 0.949 . S
H1088 C1092 0.949 . S
C1089 C1090 1.349 . S
C1089 C1091 1.327 . S
C1089 H1112 0.950 . S
C1090 C1089 1.349 . S
C1090 C1102 1.349 . S
C1091 C1089 1.327 . S
C1091 C1107 1.429 . S
C1091 H1113 0.950 . S
C1092 H1088 0.949 . S
C1092 C1100 1.574 . S
C1092 C1108 1.368 . S
H1093 C1101 0.950 . S
H1094 C1099 0.950 . S
H1095 C1100 0.949 . S
H1096 C1102 0.950 . S
H1097 C1103 0.950 . S
H1098 C1104 0.949 . S
C1099 H1094 0.950 . S
C1099 C1101 1.327 . S
C1099 C1105 1.429 . S
C1100 C1092 1.574 . S
C1100 H1095 0.949 . S
C1100 C1106 1.368 . S
C1101 C1085 1.349 . S
C1101 H1093 0.950 . S
C1101 C1099 1.327 . S
C1102 C1090 1.349 . S
C1102 H1096 0.950 . S
C1102 C1103 1.327 . S
C1103 H1097 0.950 . S
C1103 C1102 1.327 . S
C1103 C1107 1.429 . S
C1104 C1087 1.574 . S
C1104 H1098 0.949 . S
C1104 C1108 1.368 . S
C1105 C1086 1.429 . S
C1105 C1099 1.429 . S
C1105 C1106 1.523 . S
C1106 C1087 1.368 . S
C1106 C1100 1.368 . S
C1106 C1105 1.523 . S
C1107 C1091 1.429 . S
C1107 C1103 1.429 . S
C1107 C1108 1.523 . S
C1108 C1092 1.368 . S
C1108 C1104 1.368 . S
C1108 C1107 1.523 . S
H1109 C1084 0.950 . S
H1110 C1086 0.950 . S
H1111 C1087 0.949 . S
H1112 C1089 0.950 . S
H1113 C1091 0.950 . S
C1114 C1115 1.349 . S
C1114 C1116 1.327 . S
C1114 H1139 0.950 . S
C1115 C1114 1.349 . S
C1115 C1131 1.349 . S
C1116 C1114 1.327 . S
C1116 C1135 1.429 . S
C1116 H1140 0.950 . S
C1117 C1134 1.574 . S
C1117 C1136 1.368 . S
C1117 H1141 0.949 . S
H1118 C1122 0.949 . S
C1119 C1120 1.349 . S
C1119 C1121 1.327 . S
C1119 H1142 0.950 . S
C1120 C1119 1.349 . S
C1120 C1132 1.349 . S
C1121 C1119 1.327 . S
C1121 C1137 1.429 . S
C1121 H1143 0.950 . S
C1122 H1118 0.949 . S
C1122 C1130 1.574 . S
C1122 C1138 1.368 . S
H1123 C1131 0.950 . S
H1124 C1129 0.950 . S
H1125 C1130 0.949 . S
H1126 C1132 0.950 . S
H1127 C1133 0.950 . S
H1128 C1134 0.949 . S
C1129 H1124 0.950 . S
C1129 C1131 1.327 . S
C1129 C1135 1.429 . S
C1130 C1122 1.574 . S
C1130 H1125 0.949 . S
C1130 C1136 1.368 . S
C1131 C1115 1.349 . S
C1131 H1123 0.950 . S
C1131 C1129 1.327 . S
C1132 C1120 1.349 . S
C1132 H1126 0.950 . S
C1132 C1133 1.327 . S
C1133 H1127 0.950 . S
C1133 C1132 1.327 . S
C1133 C1137 1.429 . S
C1134 C1117 1.574 . S
C1134 H1128 0.949 . S
C1134 C1138 1.368 . S
C1135 C1116 1.429 . S
C1135 C1129 1.429 . S
C1135 C1136 1.523 . S
C1136 C1117 1.368 . S
C1136 C1130 1.368 . S
C1136 C1135 1.523 . S
C1137 C1121 1.429 . S
C1137 C1133 1.429 . S
C1137 C1138 1.523 . S
C1138 C1122 1.368 . S
C1138 C1134 1.368 . S
C1138 C1137 1.523 . S
H1139 C1114 0.950 . S
H1140 C1116 0.950 . S
H1141 C1117 0.949 . S
H1142 C1119 0.950 . S
H1143 C1121 0.950 . S
C1144 C1145 1.349 . S
C1144 C1146 1.327 . S
C1144 H1169 0.950 . S
C1145 C1144 1.349 . S
C1145 C1161 1.349 . S
C1146 C1144 1.327 . S
C1146 C1165 1.429 . S
C1146 H1170 0.950 . S
C1147 C1164 1.574 . S
C1147 C1166 1.368 . S
C1147 H1171 0.949 . S
H1148 C1152 0.949 . S
C1149 C1150 1.349 . S
C1149 C1151 1.327 . S
C1149 H1172 0.950 . S
C1150 C1149 1.349 . S
C1150 C1162 1.349 . S
C1151 C1149 1.327 . S
C1151 C1167 1.429 . S
C1151 H1173 0.950 . S
C1152 H1148 0.949 . S
C1152 C1160 1.574 . S
C1152 C1168 1.368 . S
H1153 C1161 0.950 . S
H1154 C1159 0.950 . S
H1155 C1160 0.949 . S
H1156 C1162 0.950 . S
H1157 C1163 0.950 . S
H1158 C1164 0.949 . S
C1159 H1154 0.950 . S
C1159 C1161 1.327 . S
C1159 C1165 1.429 . S
C1160 C1152 1.574 . S
C1160 H1155 0.949 . S
C1160 C1166 1.368 . S
C1161 C1145 1.349 . S
C1161 H1153 0.950 . S
C1161 C1159 1.327 . S
C1162 C1150 1.349 . S
C1162 H1156 0.950 . S
C1162 C1163 1.327 . S
C1163 H1157 0.950 . S
C1163 C1162 1.327 . S
C1163 C1167 1.429 . S
C1164 C1147 1.574 . S
C1164 H1158 0.949 . S
C1164 C1168 1.368 . S
C1165 C1146 1.429 . S
C1165 C1159 1.429 . S
C1165 C1166 1.523 . S
C1166 C1147 1.368 . S
C1166 C1160 1.368 . S
C1166 C1165 1.523 . S
C1167 C1151 1.429 . S
C1167 C1163 1.429 . S
C1167 C1168 1.523 . S
C1168 C1152 1.368 . S
C1168 C1164 1.368 . S
C1168 C1167 1.523 . S
H1169 C1144 0.950 . S
H1170 C1146 0.950 . S
H1171 C1147 0.949 . S
H1172 C1149 0.950 . S
H1173 C1151 0.950 . S
C1174 C1175 1.349 . S
C1174 C1176 1.327 . S
C1174 H1199 0.950 . S
C1175 C1174 1.349 . S
C1175 C1191 1.349 . S
C1176 C1174 1.327 . S
C1176 C1195 1.429 . S
C1176 H1200 0.950 . S
C1177 C1194 1.574 . S
C1177 C1196 1.368 . S
C1177 H1201 0.949 . S
H1178 C1182 0.949 . S
C1179 C1180 1.349 . S
C1179 C1181 1.327 . S
C1179 H1202 0.950 . S
C1180 C1179 1.349 . S
C1180 C1192 1.349 . S
C1181 C1179 1.327 . S
C1181 C1197 1.429 . S
C1181 H1203 0.950 . S
C1182 H1178 0.949 . S
C1182 C1190 1.574 . S
C1182 C1198 1.368 . S
H1183 C1191 0.950 . S
H1184 C1189 0.950 . S
H1185 C1190 0.949 . S
H1186 C1192 0.950 . S
H1187 C1193 0.950 . S
H1188 C1194 0.949 . S
C1189 H1184 0.950 . S
C1189 C1191 1.327 . S
C1189 C1195 1.429 . S
C1190 C1182 1.574 . S
C1190 H1185 0.949 . S
C1190 C1196 1.368 . S
C1191 C1175 1.349 . S
C1191 H1183 0.950 . S
C1191 C1189 1.327 . S
C1192 C1180 1.349 . S
C1192 H1186 0.950 . S
C1192 C1193 1.327 . S
C1193 H1187 0.950 . S
C1193 C1192 1.327 . S
C1193 C1197 1.429 . S
C1194 C1177 1.574 . S
C1194 H1188 0.949 . S
C1194 C1198 1.368 . S
C1195 C1176 1.429 . S
C1195 C1189 1.429 . S
C1195 C1196 1.523 . S
C1196 C1177 1.368 . S
C1196 C1190 1.368 . S
C1196 C1195 1.523 . S
C1197 C1181 1.429 . S
C1197 C1193 1.429 . S
C1197 C1198 1.523 . S
C1198 C1182 1.368 . S
C1198 C1194 1.368 . S
C1198 C1197 1.523 . S
H1199 C1174 0.950 . S
H1200 C1176 0.950 . S
H1201 C1177 0.949 . S
H1202 C1179 0.950 . S
H1203 C1181 0.950 . S
C1204 C1205 1.349 . S
C1204 C1206 1.327 . S
C1204 H1229 0.950 . S
C1205 C1204 1.349 . S
C1205 C1221 1.349 . S
C1206 C1204 1.327 . S
C1206 C1225 1.429 . S
C1206 H1230 0.950 . S
C1207 C1224 1.574 . S
C1207 C1226 1.368 . S
C1207 H1231 0.949 . S
H1208 C1212 0.949 . S
C1209 C1210 1.349 . S
C1209 C1211 1.327 . S
C1209 H1232 0.950 . S
C1210 C1209 1.349 . S
C1210 C1222 1.349 . S
C1211 C1209 1.327 . S
C1211 C1227 1.429 . S
C1211 H1233 0.950 . S
C1212 H1208 0.949 . S
C1212 C1220 1.574 . S
C1212 C1228 1.368 . S
H1213 C1221 0.950 . S
H1214 C1219 0.950 . S
H1215 C1220 0.949 . S
H1216 C1222 0.950 . S
H1217 C1223 0.950 . S
H1218 C1224 0.949 . S
C1219 H1214 0.950 . S
C1219 C1221 1.327 . S
C1219 C1225 1.429 . S
C1220 C1212 1.574 . S
C1220 H1215 0.949 . S
C1220 C1226 1.368 . S
C1221 C1205 1.349 . S
C1221 H1213 0.950 . S
C1221 C1219 1.327 . S
C1222 C1210 1.349 . S
C1222 H1216 0.950 . S
C1222 C1223 1.327 . S
C1223 H1217 0.950 . S
C1223 C1222 1.327 . S
C1223 C1227 1.429 . S
C1224 C1207 1.574 . S
C1224 H1218 0.949 . S
C1224 C1228 1.368 . S
C1225 C1206 1.429 . S
C1225 C1219 1.429 . S
C1225 C1226 1.523 . S
C1226 C1207 1.368 . S
C1226 C1220 1.368 . S
C1226 C1225 1.523 . S
C1227 C1211 1.429 . S
C1227 C1223 1.429 . S
C1227 C1228 1.523 . S
C1228 C1212 1.368 . S
C1228 C1224 1.368 . S
C1228 C1227 1.523 . S
H1229 C1204 0.950 . S
H1230 C1206 0.950 . S
H1231 C1207 0.949 . S
H1232 C1209 0.950 . S
H1233 C1211 0.950 . S
C1234 C1235 1.349 . S
C1234 C1236 1.327 . S
C1234 H1259 0.950 . S
C1235 C1234 1.349 . S
C1235 C1251 1.349 . S
C1236 C1234 1.327 . S
C1236 C1255 1.429 . S
C1236 H1260 0.950 . S
C1237 C1254 1.574 . S
C1237 C1256 1.368 . S
C1237 H1261 0.949 . S
H1238 C1242 0.949 . S
C1239 C1240 1.349 . S
C1239 C1241 1.327 . S
C1239 H1262 0.950 . S
C1240 C1239 1.349 . S
C1240 C1252 1.349 . S
C1241 C1239 1.327 . S
C1241 C1257 1.429 . S
C1241 H1263 0.950 . S
C1242 H1238 0.949 . S
C1242 C1250 1.574 . S
C1242 C1258 1.368 . S
H1243 C1251 0.950 . S
H1244 C1249 0.950 . S
H1245 C1250 0.949 . S
H1246 C1252 0.950 . S
H1247 C1253 0.950 . S
H1248 C1254 0.949 . S
C1249 H1244 0.950 . S
C1249 C1251 1.327 . S
C1249 C1255 1.429 . S
C1250 C1242 1.574 . S
C1250 H1245 0.949 . S
C1250 C1256 1.368 . S
C1251 C1235 1.349 . S
C1251 H1243 0.950 . S
C1251 C1249 1.327 . S
C1252 C1240 1.349 . S
C1252 H1246 0.950 . S
C1252 C1253 1.327 . S
C1253 H1247 0.950 . S
C1253 C1252 1.327 . S
C1253 C1257 1.429 . S
C1254 C1237 1.574 . S
C1254 H1248 0.949 . S
C1254 C1258 1.368 . S
C1255 C1236 1.429 . S
C1255 C1249 1.429 . S
C1255 C1256 1.523 . S
C1256 C1237 1.368 . S
C1256 C1250 1.368 . S
C1256 C1255 1.523 . S
C1257 C1241 1.429 . S
C1257 C1253 1.429 . S
C1257 C1258 1.523 . S
C1258 C1242 1.368 . S
C1258 C1254 1.368 . S
C1258 C1257 1.523 . S
H1259 C1234 0.950 . S
H1260 C1236 0.950 . S
H1261 C1237 0.949 . S
H1262 C1239 0.950 . S
H1263 C1241 0.950 . S
C1264 C1265 1.349 . S
C1264 C1266 1.327 . S
C1264 H1289 0.950 . S
C1265 C1264 1.349 . S
C1265 C1281 1.349 . S
C1266 C1264 1.327 . S
C1266 C1285 1.429 . S
C1266 H1290 0.950 . S
C1267 C1284 1.574 . S
C1267 C1286 1.368 . S
C1267 H1291 0.949 . S
H1268 C1272 0.949 . S
C1269 C1270 1.349 . S
C1269 C1271 1.327 . S
C1269 H1292 0.950 . S
C1270 C1269 1.349 . S
C1270 C1282 1.349 . S
C1271 C1269 1.327 . S
C1271 C1287 1.429 . S
C1271 H1293 0.950 . S
C1272 H1268 0.949 . S
C1272 C1280 1.574 . S
C1272 C1288 1.368 . S
H1273 C1281 0.950 . S
H1274 C1279 0.950 . S
H1275 C1280 0.949 . S
H1276 C1282 0.950 . S
H1277 C1283 0.950 . S
H1278 C1284 0.949 . S
C1279 H1274 0.950 . S
C1279 C1281 1.327 . S
C1279 C1285 1.429 . S
C1280 C1272 1.574 . S
C1280 H1275 0.949 . S
C1280 C1286 1.368 . S
C1281 C1265 1.349 . S
C1281 H1273 0.950 . S
C1281 C1279 1.327 . S
C1282 C1270 1.349 . S
C1282 H1276 0.950 . S
C1282 C1283 1.327 . S
C1283 H1277 0.950 . S
C1283 C1282 1.327 . S
C1283 C1287 1.429 . S
C1284 C1267 1.574 . S
C1284 H1278 0.949 . S
C1284 C1288 1.368 . S
C1285 C1266 1.429 . S
C1285 C1279 1.429 . S
C1285 C1286 1.523 . S
C1286 C1267 1.368 . S
C1286 C1280 1.368 . S
C1286 C1285 1.523 . S
C1287 C1271 1.429 . S
C1287 C1283 1.429 . S
C1287 C1288 1.523 . S
C1288 C1272 1.368 . S
C1288 C1284 1.368 . S
C1288 C1287 1.523 . S
H1289 C1264 0.950 . S
H1290 C1266 0.950 . S
H1291 C1267 0.949 . S
H1292 C1269 0.950 . S
H1293 C1271 0.950 . S
C1294 C1295 1.349 . S
C1294 C1296 1.327 . S
C1294 H1319 0.950 . S
C1295 C1294 1.349 . S
C1295 C1311 1.349 . S
C1296 C1294 1.327 . S
C1296 C1315 1.429 . S
C1296 H1320 0.950 . S
C1297 C1314 1.574 . S
C1297 C1316 1.368 . S
C1297 H1321 0.949 . S
H1298 C1302 0.949 . S
C1299 C1300 1.349 . S
C1299 C1301 1.327 . S
C1299 H1322 0.950 . S
C1300 C1299 1.349 . S
C1300 C1312 1.349 . S
C1301 C1299 1.327 . S
C1301 C1317 1.429 . S
C1301 H1323 0.950 . S
C1302 H1298 0.949 . S
C1302 C1310 1.574 . S
C1302 C1318 1.368 . S
H1303 C1311 0.950 . S
H1304 C1309 0.950 . S
H1305 C1310 0.949 . S
H1306 C1312 0.950 . S
H1307 C1313 0.950 . S
H1308 C1314 0.949 . S
C1309 H1304 0.950 . S
C1309 C1311 1.327 . S
C1309 C1315 1.429 . S
C1310 C1302 1.574 . S
C1310 H1305 0.949 . S
C1310 C1316 1.368 . S
C1311 C1295 1.349 . S
C1311 H1303 0.950 . S
C1311 C1309 1.327 . S
C1312 C1300 1.349 . S
C1312 H1306 0.950 . S
C1312 C1313 1.327 . S
C1313 H1307 0.950 . S
C1313 C1312 1.327 . S
C1313 C1317 1.429 . S
C1314 C1297 1.574 . S
C1314 H1308 0.949 . S
C1314 C1318 1.368 . S
C1315 C1296 1.429 . S
C1315 C1309 1.429 . S
C1315 C1316 1.523 . S
C1316 C1297 1.368 . S
C1316 C1310 1.368 . S
C1316 C1315 1.523 . S
C1317 C1301 1.429 . S
C1317 C1313 1.429 . S
C1317 C1318 1.523 . S
C1318 C1302 1.368 . S
C1318 C1314 1.368 . S
C1318 C1317 1.523 . S
H1319 C1294 0.950 . S
H1320 C1296 0.950 . S
H1321 C1297 0.949 . S
H1322 C1299 0.950 . S
H1323 C1301 0.950 . S
C1324 C1325 1.349 . S
C1324 C1326 1.327 . S
C1324 H1349 0.950 . S
C1325 C1324 1.349 . S
C1325 C1341 1.349 . S
C1326 C1324 1.327 . S
C1326 C1345 1.429 . S
C1326 H1350 0.950 . S
C1327 C1344 1.574 . S
C1327 C1346 1.368 . S
C1327 H1351 0.949 . S
H1328 C1332 0.949 . S
C1329 C1330 1.349 . S
C1329 C1331 1.327 . S
C1329 H1352 0.950 . S
C1330 C1329 1.349 . S
C1330 C1342 1.349 . S
C1331 C1329 1.327 . S
C1331 C1347 1.429 . S
C1331 H1353 0.950 . S
C1332 H1328 0.949 . S
C1332 C1340 1.574 . S
C1332 C1348 1.368 . S
H1333 C1341 0.950 . S
H1334 C1339 0.950 . S
H1335 C1340 0.949 . S
H1336 C1342 0.950 . S
H1337 C1343 0.950 . S
H1338 C1344 0.949 . S
C1339 H1334 0.950 . S
C1339 C1341 1.327 . S
C1339 C1345 1.429 . S
C1340 C1332 1.574 . S
C1340 H1335 0.949 . S
C1340 C1346 1.368 . S
C1341 C1325 1.349 . S
C1341 H1333 0.950 . S
C1341 C1339 1.327 . S
C1342 C1330 1.349 . S
C1342 H1336 0.950 . S
C1342 C1343 1.327 . S
C1343 H1337 0.950 . S
C1343 C1342 1.327 . S
C1343 C1347 1.429 . S
C1344 C1327 1.574 . S
C1344 H1338 0.949 . S
C1344 C1348 1.368 . S
C1345 C1326 1.429 . S
C1345 C1339 1.429 . S
C1345 C1346 1.523 . S
C1346 C1327 1.368 . S
C1346 C1340 1.368 . S
C1346 C1345 1.523 . S
C1347 C1331 1.429 . S
C1347 C1343 1.429 . S
C1347 C1348 1.523 . S
C1348 C1332 1.368 . S
C1348 C1344 1.368 . S
C1348 C1347 1.523 . S
H1349 C1324 0.950 . S
H1350 C1326 0.950 . S
H1351 C1327 0.949 . S
H1352 C1329 0.950 . S
H1353 C1331 0.950 . S
C1354 C1355 1.349 . S
C1354 C1356 1.327 . S
C1354 H1379 0.950 . S
C1355 C1354 1.349 . S
C1355 C1371 1.349 . S
C1356 C1354 1.327 . S
C1356 C1375 1.429 . S
C1356 H1380 0.950 . S
C1357 C1374 1.574 . S
C1357 C1376 1.368 . S
C1357 H1381 0.949 . S
H1358 C1362 0.949 . S
C1359 C1360 1.349 . S
C1359 C1361 1.327 . S
C1359 H1382 0.950 . S
C1360 C1359 1.349 . S
C1360 C1372 1.349 . S
C1361 C1359 1.327 . S
C1361 C1377 1.429 . S
C1361 H1383 0.950 . S
C1362 H1358 0.949 . S
C1362 C1370 1.574 . S
C1362 C1378 1.368 . S
H1363 C1371 0.950 . S
H1364 C1369 0.950 . S
H1365 C1370 0.949 . S
H1366 C1372 0.950 . S
H1367 C1373 0.950 . S
H1368 C1374 0.949 . S
C1369 H1364 0.950 . S
C1369 C1371 1.327 . S
C1369 C1375 1.429 . S
C1370 C1362 1.574 . S
C1370 H1365 0.949 . S
C1370 C1376 1.368 . S
C1371 C1355 1.349 . S
C1371 H1363 0.950 . S
C1371 C1369 1.327 . S
C1372 C1360 1.349 . S
C1372 H1366 0.950 . S
C1372 C1373 1.327 . S
C1373 H1367 0.950 . S
C1373 C1372 1.327 . S
C1373 C1377 1.429 . S
C1374 C1357 1.574 . S
C1374 H1368 0.949 . S
C1374 C1378 1.368 . S
C1375 C1356 1.429 . S
C1375 C1369 1.429 . S
C1375 C1376 1.523 . S
C1376 C1357 1.368 . S
C1376 C1370 1.368 . S
C1376 C1375 1.523 . S
C1377 C1361 1.429 . S
C1377 C1373 1.429 . S
C1377 C1378 1.523 . S
C1378 C1362 1.368 . S
C1378 C1374 1.368 . S
C1378 C1377 1.523 . S
H1379 C1354 0.950 . S
H1380 C1356 0.950 . S
H1381 C1357 0.949 . S
H1382 C1359 0.950 . S
H1383 C1361 0.950 . S
C1384 C1385 1.349 . S
C1384 C1386 1.327 . S
C1384 H1409 0.950 . S
C1385 C1384 1.349 . S
C1385 C1401 1.349 . S
C1386 C1384 1.327 . S
C1386 C1405 1.429 . S
C1386 H1410 0.950 . S
C1387 C1404 1.574 . S
C1387 C1406 1.368 . S
C1387 H1411 0.949 . S
H1388 C1392 0.949 . S
C1389 C1390 1.349 . S
C1389 C1391 1.327 . S
C1389 H1412 0.950 . S
C1390 C1389 1.349 . S
C1390 C1402 1.349 . S
C1391 C1389 1.327 . S
C1391 C1407 1.429 . S
C1391 H1413 0.950 . S
C1392 H1388 0.949 . S
C1392 C1400 1.574 . S
C1392 C1408 1.368 . S
H1393 C1401 0.950 . S
H1394 C1399 0.950 . S
H1395 C1400 0.949 . S
H1396 C1402 0.950 . S
H1397 C1403 0.950 . S
H1398 C1404 0.949 . S
C1399 H1394 0.950 . S
C1399 C1401 1.327 . S
C1399 C1405 1.429 . S
C1400 C1392 1.574 . S
C1400 H1395 0.949 . S
C1400 C1406 1.368 . S
C1401 C1385 1.349 . S
C1401 H1393 0.950 . S
C1401 C1399 1.327 . S
C1402 C1390 1.349 . S
C1402 H1396 0.950 . S
C1402 C1403 1.327 . S
C1403 H1397 0.950 . S
C1403 C1402 1.327 . S
C1403 C1407 1.429 . S
C1404 C1387 1.574 . S
C1404 H1398 0.949 . S
C1404 C1408 1.368 . S
C1405 C1386 1.429 . S
C1405 C1399 1.429 . S
C1405 C1406 1.523 . S
C1406 C1387 1.368 . S
C1406 C1400 1.368 . S
C1406 C1405 1.523 . S
C1407 C1391 1.429 . S
C1407 C1403 1.429 . S
C1407 C1408 1.523 . S
C1408 C1392 1.368 . S
C1408 C1404 1.368 . S
C1408 C1407 1.523 . S
H1409 C1384 0.950 . S
H1410 C1386 0.950 . S
H1411 C1387 0.949 . S
H1412 C1389 0.950 . S
H1413 C1391 0.950 . S
C1414 C1415 1.349 . S
C1414 C1416 1.327 . S
C1414 H1439 0.950 . S
C1415 C1414 1.349 . S
C1415 C1431 1.349 . S
C1416 C1414 1.327 . S
C1416 C1435 1.429 . S
C1416 H1440 0.950 . S
C1417 C1434 1.574 . S
C1417 C1436 1.368 . S
C1417 H1441 0.949 . S
H1418 C1422 0.949 . S
C1419 C1420 1.349 . S
C1419 C1421 1.327 . S
C1419 H1442 0.950 . S
C1420 C1419 1.349 . S
C1420 C1432 1.349 . S
C1421 C1419 1.327 . S
C1421 C1437 1.429 . S
C1421 H1443 0.950 . S
C1422 H1418 0.949 . S
C1422 C1430 1.574 . S
C1422 C1438 1.368 . S
H1423 C1431 0.950 . S
H1424 C1429 0.950 . S
H1425 C1430 0.949 . S
H1426 C1432 0.950 . S
H1427 C1433 0.950 . S
H1428 C1434 0.949 . S
C1429 H1424 0.950 . S
C1429 C1431 1.327 . S
C1429 C1435 1.429 . S
C1430 C1422 1.574 . S
C1430 H1425 0.949 . S
C1430 C1436 1.368 . S
C1431 C1415 1.349 . S
C1431 H1423 0.950 . S
C1431 C1429 1.327 . S
C1432 C1420 1.349 . S
C1432 H1426 0.950 . S
C1432 C1433 1.327 . S
C1433 H1427 0.950 . S
C1433 C1432 1.327 . S
C1433 C1437 1.429 . S
C1434 C1417 1.574 . S
C1434 H1428 0.949 . S
C1434 C1438 1.368 . S
C1435 C1416 1.429 . S
C1435 C1429 1.429 . S
C1435 C1436 1.523 . S
C1436 C1417 1.368 . S
C1436 C1430 1.368 . S
C1436 C1435 1.523 . S
C1437 C1421 1.429 . S
C1437 C1433 1.429 . S
C1437 C1438 1.523 . S
C1438 C1422 1.368 . S
C1438 C1434 1.368 . S
C1438 C1437 1.523 . S
H1439 C1414 0.950 . S
H1440 C1416 0.950 . S
H1441 C1417 0.949 . S
H1442 C1419 0.950 . S
H1443 C1421 0.950 . S
C1444 C1445 1.349 . S
C1444 C1446 1.327 . S
C1444 H1469 0.950 . S
C1445 C1444 1.349 . S
C1445 C1461 1.349 . S
C1446 C1444 1.327 . S
C1446 C1465 1.429 . S
C1446 H1470 0.950 . S
C1447 C1464 1.574 . S
C1447 C1466 1.368 . S
C1447 H1471 0.949 . S
H1448 C1452 0.949 . S
C1449 C1450 1.349 . S
C1449 C1451 1.327 . S
C1449 H1472 0.950 . S
C1450 C1449 1.349 . S
C1450 C1462 1.349 . S
C1451 C1449 1.327 . S
C1451 C1467 1.429 . S
C1451 H1473 0.950 . S
C1452 H1448 0.949 . S
C1452 C1460 1.574 . S
C1452 C1468 1.368 . S
H1453 C1461 0.950 . S
H1454 C1459 0.950 . S
H1455 C1460 0.949 . S
H1456 C1462 0.950 . S
H1457 C1463 0.950 . S
H1458 C1464 0.949 . S
C1459 H1454 0.950 . S
C1459 C1461 1.327 . S
C1459 C1465 1.429 . S
C1460 C1452 1.574 . S
C1460 H1455 0.949 . S
C1460 C1466 1.368 . S
C1461 C1445 1.349 . S
C1461 H1453 0.950 . S
C1461 C1459 1.327 . S
C1462 C1450 1.349 . S
C1462 H1456 0.950 . S
C1462 C1463 1.327 . S
C1463 H1457 0.950 . S
C1463 C1462 1.327 . S
C1463 C1467 1.429 . S
C1464 C1447 1.574 . S
C1464 H1458 0.949 . S
C1464 C1468 1.368 . S
C1465 C1446 1.429 . S
C1465 C1459 1.429 . S
C1465 C1466 1.523 . S
C1466 C1447 1.368 . S
C1466 C1460 1.368 . S
C1466 C1465 1.523 . S
C1467 C1451 1.429 . S
C1467 C1463 1.429 . S
C1467 C1468 1.523 . S
C1468 C1452 1.368 . S
C1468 C1464 1.368 . S
C1468 C1467 1.523 . S
H1469 C1444 0.950 . S
H1470 C1446 0.950 . S
H1471 C1447 0.949 . S
H1472 C1449 0.950 . S
H1473 C1451 0.950 . S
C1474 C1475 1.349 . S
C1474 C1476 1.327 . S
C1474 H1499 0.950 . S
C1475 C1474 1.349 . S
C1475 C1491 1.349 . S
C1476 C1474 1.327 . S
C1476 C1495 1.429 . S
C1476 H1500 0.950 . S
C1477 C1494 1.574 . S
C1477 C1496 1.368 . S
C1477 H1501 0.949 . S
H1478 C1482 0.949 . S
C1479 C1480 1.349 . S
C1479 C1481 1.327 . S
C1479 H1502 0.950 . S
C1480 C1479 1.349 . S
C1480 C1492 1.349 . S
C1481 C1479 1.327 . S
C1481 C1497 1.429 . S
C1481 H1503 0.950 . S
C1482 H1478 0.949 . S
C1482 C1490 1.574 . S
C1482 C1498 1.368 . S
H1483 C1491 0.950 . S
H1484 C1489 0.950 . S
H1485 C1490 0.949 . S
H1486 C1492 0.950 . S
H1487 C1493 0.950 . S
H1488 C1494 0.949 . S
C1489 H1484 0.950 . S
C1489 C1491 1.327 . S
C1489 C1495 1.429 . S
C1490 C1482 1.574 . S
C1490 H1485 0.949 . S
C1490 C1496 1.368 . S
C1491 C1475 1.349 . S
C1491 H1483 0.950 . S
C1491 C1489 1.327 . S
C1492 C1480 1.349 . S
C1492 H1486 0.950 . S
C1492 C1493 1.327 . S
C1493 H1487 0.950 . S
C1493 C1492 1.327 . S
C1493 C1497 1.429 . S
C1494 C1477 1.574 . S
C1494 H1488 0.949 . S
C1494 C1498 1.368 . S
C1495 C1476 1.429 . S
C1495 C1489 1.429 . S
C1495 C1496 1.523 . S
C1496 C1477 1.368 . S
C1496 C1490 1.368 . S
C1496 C1495 1.523 . S
C1497 C1481 1.429 . S
C1497 C1493 1.429 . S
C1497 C1498 1.523 . S
C1498 C1482 1.368 . S
C1498 C1494 1.368 . S
C1498 C1497 1.523 . S
H1499 C1474 0.950 . S
H1500 C1476 0.950 . S
H1501 C1477 0.949 . S
H1502 C1479 0.950 . S
H1503 C1481 0.950 . S
C1504 C1505 1.349 . S
C1504 C1506 1.327 . S
C1504 H1529 0.950 . S
C1505 C1504 1.349 . S
C1505 C1521 1.349 . S
C1506 C1504 1.327 . S
C1506 C1525 1.429 . S
C1506 H1530 0.950 . S
C1507 C1524 1.574 . S
C1507 C1526 1.368 . S
C1507 H1531 0.949 . S
H1508 C1512 0.949 . S
C1509 C1510 1.349 . S
C1509 C1511 1.327 . S
C1509 H1532 0.950 . S
C1510 C1509 1.349 . S
C1510 C1522 1.349 . S
C1511 C1509 1.327 . S
C1511 C1527 1.429 . S
C1511 H1533 0.950 . S
C1512 H1508 0.949 . S
C1512 C1520 1.574 . S
C1512 C1528 1.368 . S
H1513 C1521 0.950 . S
H1514 C1519 0.950 . S
H1515 C1520 0.949 . S
H1516 C1522 0.950 . S
H1517 C1523 0.950 . S
H1518 C1524 0.949 . S
C1519 H1514 0.950 . S
C1519 C1521 1.327 . S
C1519 C1525 1.429 . S
C1520 C1512 1.574 . S
C1520 H1515 0.949 . S
C1520 C1526 1.368 . S
C1521 C1505 1.349 . S
C1521 H1513 0.950 . S
C1521 C1519 1.327 . S
C1522 C1510 1.349 . S
C1522 H1516 0.950 . S
C1522 C1523 1.327 . S
C1523 H1517 0.950 . S
C1523 C1522 1.327 . S
C1523 C1527 1.429 . S
C1524 C1507 1.574 . S
C1524 H1518 0.949 . S
C1524 C1528 1.368 . S
C1525 C1506 1.429 . S
C1525 C1519 1.429 . S
C1525 C1526 1.523 . S
C1526 C1507 1.368 . S
C1526 C1520 1.368 . S
C1526 C1525 1.523 . S
C1527 C1511 1.429 . S
C1527 C1523 1.429 . S
C1527 C1528 1.523 . S
C1528 C1512 1.368 . S
C1528 C1524 1.368 . S
C1528 C1527 1.523 . S
H1529 C1504 0.950 . S
H1530 C1506 0.950 . S
H1531 C1507 0.949 . S
H1532 C1509 0.950 . S
H1533 C1511 0.950 . S
C1534 C1535 1.349 . S
C1534 C1536 1.327 . S
C1534 H1559 0.950 . S
C1535 C1534 1.349 . S
C1535 C1551 1.349 . S
C1536 C1534 1.327 . S
C1536 C1555 1.429 . S
C1536 H1560 0.950 . S
C1537 C1554 1.574 . S
C1537 C1556 1.368 . S
C1537 H1561 0.949 . S
H1538 C1542 0.949 . S
C1539 C1540 1.349 . S
C1539 C1541 1.327 . S
C1539 H1562 0.950 . S
C1540 C1539 1.349 . S
C1540 C1552 1.349 . S
C1541 C1539 1.327 . S
C1541 C1557 1.429 . S
C1541 H1563 0.950 . S
C1542 H1538 0.949 . S
C1542 C1550 1.574 . S
C1542 C1558 1.368 . S
H1543 C1551 0.950 . S
H1544 C1549 0.950 . S
H1545 C1550 0.949 . S
H1546 C1552 0.950 . S
H1547 C1553 0.950 . S
H1548 C1554 0.949 . S
C1549 H1544 0.950 . S
C1549 C1551 1.327 . S
C1549 C1555 1.429 . S
C1550 C1542 1.574 . S
C1550 H1545 0.949 . S
C1550 C1556 1.368 . S
C1551 C1535 1.349 . S
C1551 H1543 0.950 . S
C1551 C1549 1.327 . S
C1552 C1540 1.349 . S
C1552 H1546 0.950 . S
C1552 C1553 1.327 . S
C1553 H1547 0.950 . S
C1553 C1552 1.327 . S
C1553 C1557 1.429 . S
C1554 C1537 1.574 . S
C1554 H1548 0.949 . S
C1554 C1558 1.368 . S
C1555 C1536 1.429 . S
C1555 C1549 1.429 . S
C1555 C1556 1.523 . S
C1556 C1537 1.368 . S
C1556 C1550 1.368 . S
C1556 C1555 1.523 . S
C1557 C1541 1.429 . S
C1557 C1553 1.429 . S
C1557 C1558 1.523 . S
C1558 C1542 1.368 . S
C1558 C1554 1.368 . S
C1558 C1557 1.523 . S
H1559 C1534 0.950 . S
H1560 C1536 0.950 . S
H1561 C1537 0.949 . S
H1562 C1539 0.950 . S
H1563 C1541 0.950 . S
C1564 C1565 1.349 . S
C1564 C1566 1.327 . S
C1564 H1589 0.950 . S
C1565 C1564 1.349 . S
C1565 C1581 1.349 . S
C1566 C1564 1.327 . S
C1566 C1585 1.429 . S
C1566 H1590 0.950 . S
C1567 C1584 1.574 . S
C1567 C1586 1.368 . S
C1567 H1591 0.949 . S
H1568 C1572 0.949 . S
C1569 C1570 1.349 . S
C1569 C1571 1.327 . S
C1569 H1592 0.950 . S
C1570 C1569 1.349 . S
C1570 C1582 1.349 . S
C1571 C1569 1.327 . S
C1571 C1587 1.429 . S
C1571 H1593 0.950 . S
C1572 H1568 0.949 . S
C1572 C1580 1.574 . S
C1572 C1588 1.368 . S
H1573 C1581 0.950 . S
H1574 C1579 0.950 . S
H1575 C1580 0.949 . S
H1576 C1582 0.950 . S
H1577 C1583 0.950 . S
H1578 C1584 0.949 . S
C1579 H1574 0.950 . S
C1579 C1581 1.327 . S
C1579 C1585 1.429 . S
C1580 C1572 1.574 . S
C1580 H1575 0.949 . S
C1580 C1586 1.368 . S
C1581 C1565 1.349 . S
C1581 H1573 0.950 . S
C1581 C1579 1.327 . S
C1582 C1570 1.349 . S
C1582 H1576 0.950 . S
C1582 C1583 1.327 . S
C1583 H1577 0.950 . S
C1583 C1582 1.327 . S
C1583 C1587 1.429 . S
C1584 C1567 1.574 . S
C1584 H1578 0.949 . S
C1584 C1588 1.368 . S
C1585 C1566 1.429 . S
C1585 C1579 1.429 . S
C1585 C1586 1.523 . S
C1586 C1567 1.368 . S
C1586 C1580 1.368 . S
C1586 C1585 1.523 . S
C1587 C1571 1.429 . S
C1587 C1583 1.429 . S
C1587 C1588 1.523 . S
C1588 C1572 1.368 . S
C1588 C1584 1.368 . S
C1588 C1587 1.523 . S
H1589 C1564 0.950 . S
H1590 C1566 0.950 . S
H1591 C1567 0.949 . S
H1592 C1569 0.950 . S
H1593 C1571 0.950 . S
C1594 C1595 1.349 . S
C1594 C1596 1.327 . S
C1594 H1619 0.950 . S
C1595 C1594 1.349 . S
C1595 C1611 1.349 . S
C1596 C1594 1.327 . S
C1596 C1615 1.429 . S
C1596 H1620 0.950 . S
C1597 C1614 1.574 . S
C1597 C1616 1.368 . S
C1597 H1621 0.949 . S
H1598 C1602 0.949 . S
C1599 C1600 1.349 . S
C1599 C1601 1.327 . S
C1599 H1622 0.950 . S
C1600 C1599 1.349 . S
C1600 C1612 1.349 . S
C1601 C1599 1.327 . S
C1601 C1617 1.429 . S
C1601 H1623 0.950 . S
C1602 H1598 0.949 . S
C1602 C1610 1.574 . S
C1602 C1618 1.368 . S
H1603 C1611 0.950 . S
H1604 C1609 0.950 . S
H1605 C1610 0.949 . S
H1606 C1612 0.950 . S
H1607 C1613 0.950 . S
H1608 C1614 0.949 . S
C1609 H1604 0.950 . S
C1609 C1611 1.327 . S
C1609 C1615 1.429 . S
C1610 C1602 1.574 . S
C1610 H1605 0.949 . S
C1610 C1616 1.368 . S
C1611 C1595 1.349 . S
C1611 H1603 0.950 . S
C1611 C1609 1.327 . S
C1612 C1600 1.349 . S
C1612 H1606 0.950 . S
C1612 C1613 1.327 . S
C1613 H1607 0.950 . S
C1613 C1612 1.327 . S
C1613 C1617 1.429 . S
C1614 C1597 1.574 . S
C1614 H1608 0.949 . S
C1614 C1618 1.368 . S
C1615 C1596 1.429 . S
C1615 C1609 1.429 . S
C1615 C1616 1.523 . S
C1616 C1597 1.368 . S
C1616 C1610 1.368 . S
C1616 C1615 1.523 . S
C1617 C1601 1.429 . S
C1617 C1613 1.429 . S
C1617 C1618 1.523 . S
C1618 C1602 1.368 . S
C1618 C1614 1.368 . S
C1618 C1617 1.523 . S
H1619 C1594 0.950 . S
H1620 C1596 0.950 . S
H1621 C1597 0.949 . S
H1622 C1599 0.950 . S
H1623 C1601 0.950 . S
C1624 C1625 1.349 . S
C1624 C1626 1.327 . S
C1624 H1649 0.950 . S
C1625 C1624 1.349 . S
C1625 C1641 1.349 . S
C1626 C1624 1.327 . S
C1626 C1645 1.429 . S
C1626 H1650 0.950 . S
C1627 C1644 1.574 . S
C1627 C1646 1.368 . S
C1627 H1651 0.949 . S
H1628 C1632 0.949 . S
C1629 C1630 1.349 . S
C1629 C1631 1.327 . S
C1629 H1652 0.950 . S
C1630 C1629 1.349 . S
C1630 C1642 1.349 . S
C1631 C1629 1.327 . S
C1631 C1647 1.429 . S
C1631 H1653 0.950 . S
C1632 H1628 0.949 . S
C1632 C1640 1.574 . S
C1632 C1648 1.368 . S
H1633 C1641 0.950 . S
H1634 C1639 0.950 . S
H1635 C1640 0.949 . S
H1636 C1642 0.950 . S
H1637 C1643 0.950 . S
H1638 C1644 0.949 . S
C1639 H1634 0.950 . S
C1639 C1641 1.327 . S
C1639 C1645 1.429 . S
C1640 C1632 1.574 . S
C1640 H1635 0.949 . S
C1640 C1646 1.368 . S
C1641 C1625 1.349 . S
C1641 H1633 0.950 . S
C1641 C1639 1.327 . S
C1642 C1630 1.349 . S
C1642 H1636 0.950 . S
C1642 C1643 1.327 . S
C1643 H1637 0.950 . S
C1643 C1642 1.327 . S
C1643 C1647 1.429 . S
C1644 C1627 1.574 . S
C1644 H1638 0.949 . S
C1644 C1648 1.368 . S
C1645 C1626 1.429 . S
C1645 C1639 1.429 . S
C1645 C1646 1.523 . S
C1646 C1627 1.368 . S
C1646 C1640 1.368 . S
C1646 C1645 1.523 . S
C1647 C1631 1.429 . S
C1647 C1643 1.429 . S
C1647 C1648 1.523 . S
C1648 C1632 1.368 . S
C1648 C1644 1.368 . S
C1648 C1647 1.523 . S
H1649 C1624 0.950 . S
H1650 C1626 0.950 . S
H1651 C1627 0.949 . S
H1652 C1629 0.950 . S
H1653 C1631 0.950 . S
C1654 C1655 1.349 . S
C1654 C1656 1.327 . S
C1654 H1679 0.950 . S
C1655 C1654 1.349 . S
C1655 C1671 1.349 . S
C1656 C1654 1.327 . S
C1656 C1675 1.429 . S
C1656 H1680 0.950 . S
C1657 C1674 1.574 . S
C1657 C1676 1.368 . S
C1657 H1681 0.949 . S
H1658 C1662 0.949 . S
C1659 C1660 1.349 . S
C1659 C1661 1.327 . S
C1659 H1682 0.950 . S
C1660 C1659 1.349 . S
C1660 C1672 1.349 . S
C1661 C1659 1.327 . S
C1661 C1677 1.429 . S
C1661 H1683 0.950 . S
C1662 H1658 0.949 . S
C1662 C1670 1.574 . S
C1662 C1678 1.368 . S
H1663 C1671 0.950 . S
H1664 C1669 0.950 . S
H1665 C1670 0.949 . S
H1666 C1672 0.950 . S
H1667 C1673 0.950 . S
H1668 C1674 0.949 . S
C1669 H1664 0.950 . S
C1669 C1671 1.327 . S
C1669 C1675 1.429 . S
C1670 C1662 1.574 . S
C1670 H1665 0.949 . S
C1670 C1676 1.368 . S
C1671 C1655 1.349 . S
C1671 H1663 0.950 . S
C1671 C1669 1.327 . S
C1672 C1660 1.349 . S
C1672 H1666 0.950 . S
C1672 C1673 1.327 . S
C1673 H1667 0.950 . S
C1673 C1672 1.327 . S
C1673 C1677 1.429 . S
C1674 C1657 1.574 . S
C1674 H1668 0.949 . S
C1674 C1678 1.368 . S
C1675 C1656 1.429 . S
C1675 C1669 1.429 . S
C1675 C1676 1.523 . S
C1676 C1657 1.368 . S
C1676 C1670 1.368 . S
C1676 C1675 1.523 . S
C1677 C1661 1.429 . S
C1677 C1673 1.429 . S
C1677 C1678 1.523 . S
C1678 C1662 1.368 . S
C1678 C1674 1.368 . S
C1678 C1677 1.523 . S
H1679 C1654 0.950 . S
H1680 C1656 0.950 . S
H1681 C1657 0.949 . S
H1682 C1659 0.950 . S
H1683 C1661 0.950 . S
C1684 C1685 1.349 . S
C1684 C1686 1.327 . S
C1684 H1709 0.950 . S
C1685 C1684 1.349 . S
C1685 C1701 1.349 . S
C1686 C1684 1.327 . S
C1686 C1705 1.429 . S
C1686 H1710 0.950 . S
C1687 C1704 1.574 . S
C1687 C1706 1.368 . S
C1687 H1711 0.949 . S
H1688 C1692 0.949 . S
C1689 C1690 1.349 . S
C1689 C1691 1.327 . S
C1689 H1712 0.950 . S
C1690 C1689 1.349 . S
C1690 C1702 1.349 . S
C1691 C1689 1.327 . S
C1691 C1707 1.429 . S
C1691 H1713 0.950 . S
C1692 H1688 0.949 . S
C1692 C1700 1.574 . S
C1692 C1708 1.368 . S
H1693 C1701 0.950 . S
H1694 C1699 0.950 . S
H1695 C1700 0.949 . S
H1696 C1702 0.950 . S
H1697 C1703 0.950 . S
H1698 C1704 0.949 . S
C1699 H1694 0.950 . S
C1699 C1701 1.327 . S
C1699 C1705 1.429 . S
C1700 C1692 1.574 . S
C1700 H1695 0.949 . S
C1700 C1706 1.368 . S
C1701 C1685 1.349 . S
C1701 H1693 0.950 . S
C1701 C1699 1.327 . S
C1702 C1690 1.349 . S
C1702 H1696 0.950 . S
C1702 C1703 1.327 . S
C1703 H1697 0.950 . S
C1703 C1702 1.327 . S
C1703 C1707 1.429 . S
C1704 C1687 1.574 . S
C1704 H1698 0.949 . S
C1704 C1708 1.368 . S
C1705 C1686 1.429 . S
C1705 C1699 1.429 . S
C1705 C1706 1.523 . S
C1706 C1687 1.368 . S
C1706 C1700 1.368 . S
C1706 C1705 1.523 . S
C1707 C1691 1.429 . S
C1707 C1703 1.429 . S
C1707 C1708 1.523 . S
C1708 C1692 1.368 . S
C1708 C1704 1.368 . S
C1708 C1707 1.523 . S
H1709 C1684 0.950 . S
H1710 C1686 0.950 . S
H1711 C1687 0.949 . S
H1712 C1689 0.950 . S
H1713 C1691 0.950 . S
C1714 C1715 1.349 . S
C1714 C1716 1.327 . S
C1714 H1739 0.950 . S
C1715 C1714 1.349 . S
C1715 C1731 1.349 . S
C1716 C1714 1.327 . S
C1716 C1735 1.429 . S
C1716 H1740 0.950 . S
C1717 C1734 1.574 . S
C1717 C1736 1.368 . S
C1717 H1741 0.949 . S
H1718 C1722 0.949 . S
C1719 C1720 1.349 . S
C1719 C1721 1.327 . S
C1719 H1742 0.950 . S
C1720 C1719 1.349 . S
C1720 C1732 1.349 . S
C1721 C1719 1.327 . S
C1721 C1737 1.429 . S
C1721 H1743 0.950 . S
C1722 H1718 0.949 . S
C1722 C1730 1.574 . S
C1722 C1738 1.368 . S
H1723 C1731 0.950 . S
H1724 C1729 0.950 . S
H1725 C1730 0.949 . S
H1726 C1732 0.950 . S
H1727 C1733 0.950 . S
H1728 C1734 0.949 . S
C1729 H1724 0.950 . S
C1729 C1731 1.327 . S
C1729 C1735 1.429 . S
C1730 C1722 1.574 . S
C1730 H1725 0.949 . S
C1730 C1736 1.368 . S
C1731 C1715 1.349 . S
C1731 H1723 0.950 . S
C1731 C1729 1.327 . S
C1732 C1720 1.349 . S
C1732 H1726 0.950 . S
C1732 C1733 1.327 . S
C1733 H1727 0.950 . S
C1733 C1732 1.327 . S
C1733 C1737 1.429 . S
C1734 C1717 1.574 . S
C1734 H1728 0.949 . S
C1734 C1738 1.368 . S
C1735 C1716 1.429 . S
C1735 C1729 1.429 . S
C1735 C1736 1.523 . S
C1736 C1717 1.368 . S
C1736 C1730 1.368 . S
C1736 C1735 1.523 . S
C1737 C1721 1.429 . S
C1737 C1733 1.429 . S
C1737 C1738 1.523 . S
C1738 C1722 1.368 . S
C1738 C1734 1.368 . S
C1738 C1737 1.523 . S
H1739 C1714 0.950 . S
H1740 C1716 0.950 . S
H1741 C1717 0.949 . S
H1742 C1719 0.950 . S
H1743 C1721 0.950 . S
C1744 C1745 1.349 . S
C1744 C1746 1.327 . S
C1744 H1769 0.950 . S
C1745 C1744 1.349 . S
C1745 C1761 1.349 . S
C1746 C1744 1.327 . S
C1746 C1765 1.429 . S
C1746 H1770 0.950 . S
C1747 C1764 1.574 . S
C1747 C1766 1.368 . S
C1747 H1771 0.949 . S
H1748 C1752 0.949 . S
C1749 C1750 1.349 . S
C1749 C1751 1.327 . S
C1749 H1772 0.950 . S
C1750 C1749 1.349 . S
C1750 C1762 1.349 . S
C1751 C1749 1.327 . S
C1751 C1767 1.429 . S
C1751 H1773 0.950 . S
C1752 H1748 0.949 . S
C1752 C1760 1.574 . S
C1752 C1768 1.368 . S
H1753 C1761 0.950 . S
H1754 C1759 0.950 . S
H1755 C1760 0.949 . S
H1756 C1762 0.950 . S
H1757 C1763 0.950 . S
H1758 C1764 0.949 . S
C1759 H1754 0.950 . S
C1759 C1761 1.327 . S
C1759 C1765 1.429 . S
C1760 C1752 1.574 . S
C1760 H1755 0.949 . S
C1760 C1766 1.368 . S
C1761 C1745 1.349 . S
C1761 H1753 0.950 . S
C1761 C1759 1.327 . S
C1762 C1750 1.349 . S
C1762 H1756 0.950 . S
C1762 C1763 1.327 . S
C1763 H1757 0.950 . S
C1763 C1762 1.327 . S
C1763 C1767 1.429 . S
C1764 C1747 1.574 . S
C1764 H1758 0.949 . S
C1764 C1768 1.368 . S
C1765 C1746 1.429 . S
C1765 C1759 1.429 . S
C1765 C1766 1.523 . S
C1766 C1747 1.368 . S
C1766 C1760 1.368 . S
C1766 C1765 1.523 . S
C1767 C1751 1.429 . S
C1767 C1763 1.429 . S
C1767 C1768 1.523 . S
C1768 C1752 1.368 . S
C1768 C1764 1.368 . S
C1768 C1767 1.523 . S
H1769 C1744 0.950 . S
H1770 C1746 0.950 . S
H1771 C1747 0.949 . S
H1772 C1749 0.950 . S
H1773 C1751 0.950 . S
C1774 C1775 1.349 . S
C1774 C1776 1.327 . S
C1774 H1799 0.950 . S
C1775 C1774 1.349 . S
C1775 C1791 1.349 . S
C1776 C1774 1.327 . S
C1776 C1795 1.429 . S
C1776 H1800 0.950 . S
C1777 C1794 1.574 . S
C1777 C1796 1.368 . S
C1777 H1801 0.949 . S
H1778 C1782 0.949 . S
C1779 C1780 1.349 . S
C1779 C1781 1.327 . S
C1779 H1802 0.950 . S
C1780 C1779 1.349 . S
C1780 C1792 1.349 . S
C1781 C1779 1.327 . S
C1781 C1797 1.429 . S
C1781 H1803 0.950 . S
C1782 H1778 0.949 . S
C1782 C1790 1.574 . S
C1782 C1798 1.368 . S
H1783 C1791 0.950 . S
H1784 C1789 0.950 . S
H1785 C1790 0.949 . S
H1786 C1792 0.950 . S
H1787 C1793 0.950 . S
H1788 C1794 0.949 . S
C1789 H1784 0.950 . S
C1789 C1791 1.327 . S
C1789 C1795 1.429 . S
C1790 C1782 1.574 . S
C1790 H1785 0.949 . S
C1790 C1796 1.368 . S
C1791 C1775 1.349 . S
C1791 H1783 0.950 . S
C1791 C1789 1.327 . S
C1792 C1780 1.349 . S
C1792 H1786 0.950 . S
C1792 C1793 1.327 . S
C1793 H1787 0.950 . S
C1793 C1792 1.327 . S
C1793 C1797 1.429 . S
C1794 C1777 1.574 . S
C1794 H1788 0.949 . S
C1794 C1798 1.368 . S
C1795 C1776 1.429 . S
C1795 C1789 1.429 . S
C1795 C1796 1.523 . S
C1796 C1777 1.368 . S
C1796 C1790 1.368 . S
C1796 C1795 1.523 . S
C1797 C1781 1.429 . S
C1797 C1793 1.429 . S
C1797 C1798 1.523 . S
C1798 C1782 1.368 . S
C1798 C1794 1.368 . S
C1798 C1797 1.523 . S
H1799 C1774 0.950 . S
H1800 C1776 0.950 . S
H1801 C1777 0.949 . S
H1802 C1779 0.950 . S
H1803 C1781 0.950 . S
C1804 C1805 1.349 . S
C1804 C1806 1.327 . S
C1804 H1829 0.950 . S
C1805 C1804 1.349 . S
C1805 C1821 1.349 . S
C1806 C1804 1.327 . S
C1806 C1825 1.429 . S
C1806 H1830 0.950 . S
C1807 C1824 1.574 . S
C1807 C1826 1.368 . S
C1807 H1831 0.949 . S
H1808 C1812 0.949 . S
C1809 C1810 1.349 . S
C1809 C1811 1.327 . S
C1809 H1832 0.950 . S
C1810 C1809 1.349 . S
C1810 C1822 1.349 . S
C1811 C1809 1.327 . S
C1811 C1827 1.429 . S
C1811 H1833 0.950 . S
C1812 H1808 0.949 . S
C1812 C1820 1.574 . S
C1812 C1828 1.368 . S
H1813 C1821 0.950 . S
H1814 C1819 0.950 . S
H1815 C1820 0.949 . S
H1816 C1822 0.950 . S
H1817 C1823 0.950 . S
H1818 C1824 0.949 . S
C1819 H1814 0.950 . S
C1819 C1821 1.327 . S
C1819 C1825 1.429 . S
C1820 C1812 1.574 . S
C1820 H1815 0.949 . S
C1820 C1826 1.368 . S
C1821 C1805 1.349 . S
C1821 H1813 0.950 . S
C1821 C1819 1.327 . S
C1822 C1810 1.349 . S
C1822 H1816 0.950 . S
C1822 C1823 1.327 . S
C1823 H1817 0.950 . S
C1823 C1822 1.327 . S
C1823 C1827 1.429 . S
C1824 C1807 1.574 . S
C1824 H1818 0.949 . S
C1824 C1828 1.368 . S
C1825 C1806 1.429 . S
C1825 C1819 1.429 . S
C1825 C1826 1.523 . S
C1826 C1807 1.368 . S
C1826 C1820 1.368 . S
C1826 C1825 1.523 . S
C1827 C1811 1.429 . S
C1827 C1823 1.429 . S
C1827 C1828 1.523 . S
C1828 C1812 1.368 . S
C1828 C1824 1.368 . S
C1828 C1827 1.523 . S
H1829 C1804 0.950 . S
H1830 C1806 0.950 . S
H1831 C1807 0.949 . S
H1832 C1809 0.950 . S
H1833 C1811 0.950 . S
C1834 C1835 1.349 . S
C1834 C1836 1.327 . S
C1834 H1859 0.950 . S
C1835 C1834 1.349 . S
C1835 C1851 1.349 . S
C1836 C1834 1.327 . S
C1836 C1855 1.429 . S
C1836 H1860 0.950 . S
C1837 C1854 1.574 . S
C1837 C1856 1.368 . S
C1837 H1861 0.949 . S
H1838 C1842 0.949 . S
C1839 C1840 1.349 . S
C1839 C1841 1.327 . S
C1839 H1862 0.950 . S
C1840 C1839 1.349 . S
C1840 C1852 1.349 . S
C1841 C1839 1.327 . S
C1841 C1857 1.429 . S
C1841 H1863 0.950 . S
C1842 H1838 0.949 . S
C1842 C1850 1.574 . S
C1842 C1858 1.368 . S
H1843 C1851 0.950 . S
H1844 C1849 0.950 . S
H1845 C1850 0.949 . S
H1846 C1852 0.950 . S
H1847 C1853 0.950 . S
H1848 C1854 0.949 . S
C1849 H1844 0.950 . S
C1849 C1851 1.327 . S
C1849 C1855 1.429 . S
C1850 C1842 1.574 . S
C1850 H1845 0.949 . S
C1850 C1856 1.368 . S
C1851 C1835 1.349 . S
C1851 H1843 0.950 . S
C1851 C1849 1.327 . S
C1852 C1840 1.349 . S
C1852 H1846 0.950 . S
C1852 C1853 1.327 . S
C1853 H1847 0.950 . S
C1853 C1852 1.327 . S
C1853 C1857 1.429 . S
C1854 C1837 1.574 . S
C1854 H1848 0.949 . S
C1854 C1858 1.368 . S
C1855 C1836 1.429 . S
C1855 C1849 1.429 . S
C1855 C1856 1.523 . S
C1856 C1837 1.368 . S
C1856 C1850 1.368 . S
C1856 C1855 1.523 . S
C1857 C1841 1.429 . S
C1857 C1853 1.429 . S
C1857 C1858 1.523 . S
C1858 C1842 1.368 . S
C1858 C1854 1.368 . S
C1858 C1857 1.523 . S
H1859 C1834 0.950 . S
H1860 C1836 0.950 . S
H1861 C1837 0.949 . S
H1862 C1839 0.950 . S
H1863 C1841 0.950 . S
C1864 C1865 1.349 . S
C1864 C1866 1.327 . S
C1864 H1889 0.950 . S
C1865 C1864 1.349 . S
C1865 C1881 1.349 . S
C1866 C1864 1.327 . S
C1866 C1885 1.429 . S
C1866 H1890 0.950 . S
C1867 C1884 1.574 . S
C1867 C1886 1.368 . S
C1867 H1891 0.949 . S
H1868 C1872 0.949 . S
C1869 C1870 1.349 . S
C1869 C1871 1.327 . S
C1869 H1892 0.950 . S
C1870 C1869 1.349 . S
C1870 C1882 1.349 . S
C1871 C1869 1.327 . S
C1871 C1887 1.429 . S
C1871 H1893 0.950 . S
C1872 H1868 0.949 . S
C1872 C1880 1.574 . S
C1872 C1888 1.368 . S
H1873 C1881 0.950 . S
H1874 C1879 0.950 . S
H1875 C1880 0.949 . S
H1876 C1882 0.950 . S
H1877 C1883 0.950 . S
H1878 C1884 0.949 . S
C1879 H1874 0.950 . S
C1879 C1881 1.327 . S
C1879 C1885 1.429 . S
C1880 C1872 1.574 . S
C1880 H1875 0.949 . S
C1880 C1886 1.368 . S
C1881 C1865 1.349 . S
C1881 H1873 0.950 . S
C1881 C1879 1.327 . S
C1882 C1870 1.349 . S
C1882 H1876 0.950 . S
C1882 C1883 1.327 . S
C1883 H1877 0.950 . S
C1883 C1882 1.327 . S
C1883 C1887 1.429 . S
C1884 C1867 1.574 . S
C1884 H1878 0.949 . S
C1884 C1888 1.368 . S
C1885 C1866 1.429 . S
C1885 C1879 1.429 . S
C1885 C1886 1.523 . S
C1886 C1867 1.368 . S
C1886 C1880 1.368 . S
C1886 C1885 1.523 . S
C1887 C1871 1.429 . S
C1887 C1883 1.429 . S
C1887 C1888 1.523 . S
C1888 C1872 1.368 . S
C1888 C1884 1.368 . S
C1888 C1887 1.523 . S
H1889 C1864 0.950 . S
H1890 C1866 0.950 . S
H1891 C1867 0.949 . S
H1892 C1869 0.950 . S
H1893 C1871 0.950 . S
C1894 C1895 1.349 . S
C1894 C1896 1.327 . S
C1894 H1919 0.950 . S
C1895 C1894 1.349 . S
C1895 C1911 1.349 . S
C1896 C1894 1.327 . S
C1896 C1915 1.429 . S
C1896 H1920 0.950 . S
C1897 C1914 1.574 . S
C1897 C1916 1.368 . S
C1897 H1921 0.949 . S
H1898 C1902 0.949 . S
C1899 C1900 1.349 . S
C1899 C1901 1.327 . S
C1899 H1922 0.950 . S
C1900 C1899 1.349 . S
C1900 C1912 1.349 . S
C1901 C1899 1.327 . S
C1901 C1917 1.429 . S
C1901 H1923 0.950 . S
C1902 H1898 0.949 . S
C1902 C1910 1.574 . S
C1902 C1918 1.368 . S
H1903 C1911 0.950 . S
H1904 C1909 0.950 . S
H1905 C1910 0.949 . S
H1906 C1912 0.950 . S
H1907 C1913 0.950 . S
H1908 C1914 0.949 . S
C1909 H1904 0.950 . S
C1909 C1911 1.327 . S
C1909 C1915 1.429 . S
C1910 C1902 1.574 . S
C1910 H1905 0.949 . S
C1910 C1916 1.368 . S
C1911 C1895 1.349 . S
C1911 H1903 0.950 . S
C1911 C1909 1.327 . S
C1912 C1900 1.349 . S
C1912 H1906 0.950 . S
C1912 C1913 1.327 . S
C1913 H1907 0.950 . S
C1913 C1912 1.327 . S
C1913 C1917 1.429 . S
C1914 C1897 1.574 . S
C1914 H1908 0.949 . S
C1914 C1918 1.368 . S
C1915 C1896 1.429 . S
C1915 C1909 1.429 . S
C1915 C1916 1.523 . S
C1916 C1897 1.368 . S
C1916 C1910 1.368 . S
C1916 C1915 1.523 . S
C1917 C1901 1.429 . S
C1917 C1913 1.429 . S
C1917 C1918 1.523 . S
C1918 C1902 1.368 . S
C1918 C1914 1.368 . S
C1918 C1917 1.523 . S
H1919 C1894 0.950 . S
H1920 C1896 0.950 . S
H1921 C1897 0.949 . S
H1922 C1899 0.950 . S
H1923 C1901 0.950 . S
C1924 C1925 1.349 . S
C1924 C1926 1.327 . S
C1924 H1949 0.950 . S
C1925 C1924 1.349 . S
C1925 C1941 1.349 . S
C1926 C1924 1.327 . S
C1926 C1945 1.429 . S
C1926 H1950 0.950 . S
C1927 C1944 1.574 . S
C1927 C1946 1.368 . S
C1927 H1951 0.949 . S
H1928 C1932 0.949 . S
C1929 C1930 1.349 . S
C1929 C1931 1.327 . S
C1929 H1952 0.950 . S
C1930 C1929 1.349 . S
C1930 C1942 1.349 . S
C1931 C1929 1.327 . S
C1931 C1947 1.429 . S
C1931 H1953 0.950 . S
C1932 H1928 0.949 . S
C1932 C1940 1.574 . S
C1932 C1948 1.368 . S
H1933 C1941 0.950 . S
H1934 C1939 0.950 . S
H1935 C1940 0.949 . S
H1936 C1942 0.950 . S
H1937 C1943 0.950 . S
H1938 C1944 0.949 . S
C1939 H1934 0.950 . S
C1939 C1941 1.327 . S
C1939 C1945 1.429 . S
C1940 C1932 1.574 . S
C1940 H1935 0.949 . S
C1940 C1946 1.368 . S
C1941 C1925 1.349 . S
C1941 H1933 0.950 . S
C1941 C1939 1.327 . S
C1942 C1930 1.349 . S
C1942 H1936 0.950 . S
C1942 C1943 1.327 . S
C1943 H1937 0.950 . S
C1943 C1942 1.327 . S
C1943 C1947 1.429 . S
C1944 C1927 1.574 . S
C1944 H1938 0.949 . S
C1944 C1948 1.368 . S
C1945 C1926 1.429 . S
C1945 C1939 1.429 . S
C1945 C1946 1.523 . S
C1946 C1927 1.368 . S
C1946 C1940 1.368 . S
C1946 C1945 1.523 . S
C1947 C1931 1.429 . S
C1947 C1943 1.429 . S
C1947 C1948 1.523 . S
C1948 C1932 1.368 . S
C1948 C1944 1.368 . S
C1948 C1947 1.523 . S
H1949 C1924 0.950 . S
H1950 C1926 0.950 . S
H1951 C1927 0.949 . S
H1952 C1929 0.950 . S
H1953 C1931 0.950 . S
C1954 C1955 1.349 . S
C1954 C1956 1.327 . S
C1954 H1979 0.950 . S
C1955 C1954 1.349 . S
C1955 C1971 1.349 . S
C1956 C1954 1.327 . S
C1956 C1975 1.429 . S
C1956 H1980 0.950 . S
C1957 C1974 1.574 . S
C1957 C1976 1.368 . S
C1957 H1981 0.949 . S
H1958 C1962 0.949 . S
C1959 C1960 1.349 . S
C1959 C1961 1.327 . S
C1959 H1982 0.950 . S
C1960 C1959 1.349 . S
C1960 C1972 1.349 . S
C1961 C1959 1.327 . S
C1961 C1977 1.429 . S
C1961 H1983 0.950 . S
C1962 H1958 0.949 . S
C1962 C1970 1.574 . S
C1962 C1978 1.368 . S
H1963 C1971 0.950 . S
H1964 C1969 0.950 . S
H1965 C1970 0.949 . S
H1966 C1972 0.950 . S
H1967 C1973 0.950 . S
H1968 C1974 0.949 . S
C1969 H1964 0.950 . S
C1969 C1971 1.327 . S
C1969 C1975 1.429 . S
C1970 C1962 1.574 . S
C1970 H1965 0.949 . S
C1970 C1976 1.368 . S
C1971 C1955 1.349 . S
C1971 H1963 0.950 . S
C1971 C1969 1.327 . S
C1972 C1960 1.349 . S
C1972 H1966 0.950 . S
C1972 C1973 1.327 . S
C1973 H1967 0.950 . S
C1973 C1972 1.327 . S
C1973 C1977 1.429 . S
C1974 C1957 1.574 . S
C1974 H1968 0.949 . S
C1974 C1978 1.368 . S
C1975 C1956 1.429 . S
C1975 C1969 1.429 . S
C1975 C1976 1.523 . S
C1976 C1957 1.368 . S
C1976 C1970 1.368 . S
C1976 C1975 1.523 . S
C1977 C1961 1.429 . S
C1977 C1973 1.429 . S
C1977 C1978 1.523 . S
C1978 C1962 1.368 . S
C1978 C1974 1.368 . S
C1978 C1977 1.523 . S
H1979 C1954 0.950 . S
H1980 C1956 0.950 . S
H1981 C1957 0.949 . S
H1982 C1959 0.950 . S
H1983 C1961 0.950 . S
C1030 C913 1.515 . S
C1025 C29 1.222 . S
C1060 C939 1.693 . S
C1055 C125 1.001 . S
C1090 C953 1.516 . S
C1085 C257 1.223 . S
C1120 C955 1.692 . S
C1115 C353 1.000 . S
C1145 C457 1.163 . S
C1150 C952 1.478 . S
C1180 C954 1.679 . S
C1175 C625 1.304 . S
C1210 C912 1.477 . S
C1205 C685 1.163 . S
C1240 C938 1.680 . S
C1235 C853 1.305 . S
C1270 C940 1.712 . S
C1265 C809 1.099 . S
C1300 C966 1.502 . S
C1295 C485 1.240 . S
C1330 C924 1.713 . S
C1325 C581 1.099 . S
C1360 C926 1.502 . S
C1355 C713 1.240 . S
C1390 C925 1.695 . S
C1385 C169 1.250 . S
C1420 C927 1.468 . S
C1415 C229 1.143 . S
C1450 C941 1.695 . S
C1445 C397 1.250 . S
C1480 C967 1.468 . S
C1475 C1 1.143 . S
C1510 C969 1.516 . S
C1505 C827 1.222 . S
C1535 C467 1.000 . S
C1540 C995 1.693 . S
C1565 C599 1.223 . S
C1570 C1008 1.517 . S
C1595 C695 1.000 . S
C1600 C1011 1.693 . S
C1625 C115 1.163 . S
C1630 C1009 1.477 . S
C1655 C283 1.305 . S
C1660 C1010 1.679 . S
C1685 C343 1.163 . S
C1690 C968 1.477 . S
C1720 C994 1.680 . S
C1715 C55 1.305 . S
C1750 C997 1.714 . S
C1745 C11 1.099 . S
C1775 C143 1.240 . S
C1780 C1022 1.502 . S
C1805 C239 1.100 . S
C1810 C980 1.713 . S
C1835 C371 1.240 . S
C1840 C982 1.502 . S
C1870 C981 1.695 . S
C1865 C511 1.250 . S
C1900 C983 1.467 . S
C1895 C571 1.143 . S
C1925 C739 1.250 . S
C1930 C996 1.694 . S
C1960 C1023 1.468 . S
C1955 C799 1.143 . S
