# Generated by pormake.
# Topology zzz, (3,6)-cn, num edge types: 1
# Building blocks:
#     Node 0, Type 0, BuildingBlock: CUQRIR_clean_linker_1, # of connection points: 3
#     Node 1, Type 0, BuildingBlock: CUQRIR_clean_linker_1, # of connection points: 3
#     Node 2, Type 0, BuildingBlock: CUQRIR_clean_linker_1, # of connection points: 3
#     Node 3, Type 0, BuildingBlock: CUQRIR_clean_linker_1, # of connection points: 3
#     Node 4, Type 0, BuildingBlock: CUQRIR_clean_linker_1, # of connection points: 3
#     Node 5, Type 0, BuildingBlock: CUQRIR_clean_linker_1, # of connection points: 3
#     Node 6, Type 0, BuildingBlock: CUQRIR_clean_linker_1, # of connection points: 3
#     Node 7, Type 0, BuildingBlock: CUQRIR_clean_linker_1, # of connection points: 3
#     Node 8, Type 1, BuildingBlock: VOLQOD_clean_sbu_1, # of connection points: 6
#     Node 9, Type 1, BuildingBlock: VOLQOD_clean_sbu_1, # of connection points: 6
#     Node 10, Type 1, BuildingBlock: VOLQOD_clean_sbu_1, # of connection points: 6
#     Node 11, Type 1, BuildingBlock: VOLQOD_clean_sbu_1, # of connection points: 6
#     Edge 12, Type (0, 1), BuildingBlock: OJICUG_clean_linker_0, # of connection points: 2
#     Edge 13, Type (0, 1), BuildingBlock: OJICUG_clean_linker_0, # of connection points: 2
#     Edge 14, Type (0, 1), BuildingBlock: OJICUG_clean_linker_0, # of connection points: 2
#     Edge 15, Type (0, 1), BuildingBlock: OJICUG_clean_linker_0, # of connection points: 2
#     Edge 16, Type (0, 1), BuildingBlock: OJICUG_clean_linker_0, # of connection points: 2
#     Edge 17, Type (0, 1), BuildingBlock: OJICUG_clean_linker_0, # of connection points: 2
#     Edge 18, Type (0, 1), BuildingBlock: OJICUG_clean_linker_0, # of connection points: 2
#     Edge 19, Type (0, 1), BuildingBlock: OJICUG_clean_linker_0, # of connection points: 2
#     Edge 20, Type (0, 1), BuildingBlock: OJICUG_clean_linker_0, # of connection points: 2
#     Edge 21, Type (0, 1), BuildingBlock: OJICUG_clean_linker_0, # of connection points: 2
#     Edge 22, Type (0, 1), BuildingBlock: OJICUG_clean_linker_0, # of connection points: 2
#     Edge 23, Type (0, 1), BuildingBlock: OJICUG_clean_linker_0, # of connection points: 2
#     Edge 24, Type (0, 1), BuildingBlock: OJICUG_clean_linker_0, # of connection points: 2
#     Edge 25, Type (0, 1), BuildingBlock: OJICUG_clean_linker_0, # of connection points: 2
#     Edge 26, Type (0, 1), BuildingBlock: OJICUG_clean_linker_0, # of connection points: 2
#     Edge 27, Type (0, 1), BuildingBlock: OJICUG_clean_linker_0, # of connection points: 2
#     Edge 28, Type (0, 1), BuildingBlock: OJICUG_clean_linker_0, # of connection points: 2
#     Edge 29, Type (0, 1), BuildingBlock: OJICUG_clean_linker_0, # of connection points: 2
#     Edge 30, Type (0, 1), BuildingBlock: OJICUG_clean_linker_0, # of connection points: 2
#     Edge 31, Type (0, 1), BuildingBlock: OJICUG_clean_linker_0, # of connection points: 2
#     Edge 32, Type (0, 1), BuildingBlock: OJICUG_clean_linker_0, # of connection points: 2
#     Edge 33, Type (0, 1), BuildingBlock: OJICUG_clean_linker_0, # of connection points: 2
#     Edge 34, Type (0, 1), BuildingBlock: OJICUG_clean_linker_0, # of connection points: 2
#     Edge 35, Type (0, 1), BuildingBlock: OJICUG_clean_linker_0, # of connection points: 2
# Relax obj value: 0.209
# Max RMSD: 0.239
# Mean RMSD: 0.125
data_MOF--net-zzz--node1-VOLQOD_clean_sbu_1--node2-CUQRIR_clean_linker_1--edge1-OJICUG_clean_linker_0
_symmetry_space_group_name_H-M    P1
_symmetry_Int_Tables_number       1
_symmetry_cell_setting            triclinic
loop_
_symmetry_equiv_pos_as_xyz
'x, y, z'
_cell_length_a     35.149314
_cell_length_b     34.971959
_cell_length_c     11.153671
_cell_angle_alpha  90.265092
_cell_angle_beta   89.880944
_cell_angle_gamma 90.789476
loop_
_atom_site_label
_atom_site_type_symbol
_atom_site_fract_x
_atom_site_fract_y
_atom_site_fract_z
_atom_type_partial_charge
C0 C 0.76656 0.51296 0.1984 0.0
N1 N 0.80383 0.5057 0.21763 0.0
N2 N 0.75596 0.50062 0.08741 0.0
C3 C 0.74027 0.53031 0.28902 0.0
C4 C 0.78807 0.4856 0.04066 0.0
N5 N 0.81685 0.48822 0.12027 0.0
C6 C 0.79206 0.47123 0.91381 0.0
H7 H 0.75083 0.52588 0.38153 0.0
H8 H 0.71117 0.51793 0.27984 0.0
H9 H 0.73875 0.56151 0.27257 0.0
H10 H 0.77126 0.48501 0.8537 0.0
H11 H 0.78671 0.43989 0.91213 0.0
H12 H 0.82121 0.47683 0.87913 0.0
C13 C 0.00348 0.74609 0.1571 0.0
N14 N 0.00767 0.7843 0.17335 0.0
N15 N 0.01564 0.73583 0.04598 0.0
C16 C 0.98697 0.71887 0.24784 0.0
C17 C 0.02761 0.7692 0.99609 0.0
N18 N 0.02289 0.79865 0.07364 0.0
C19 C 0.04164 0.77336 0.86907 0.0
H20 H 0.01051 0.70338 0.29143 0.0
H21 H 0.96826 0.6974 0.20292 0.0
H22 H 0.97076 0.73396 0.31851 0.0
H23 H 0.01801 0.78356 0.81223 0.0
H24 H 0.052 0.74585 0.83261 0.0
H25 H 0.06518 0.79462 0.86369 0.0
C26 C 0.73246 0.99252 0.14724 0.0
N27 N 0.69529 0.00166 0.15753 0.0
N28 N 0.75111 0.01773 0.07547 0.0
C29 C 0.7498 0.95731 0.19963 0.0
C30 C 0.72397 0.04311 0.0457 0.0
N31 N 0.68956 0.03285 0.09204 0.0
C32 C 0.73086 0.07702 0.96501 0.0
H33 H 0.74157 0.95434 0.29517 0.0
H34 H 0.7813 0.95825 0.1925 0.0
H35 H 0.73866 0.93177 0.15105 0.0
H36 H 0.73968 0.06697 0.87471 0.0
H37 H 0.75432 0.09501 0.0016 0.0
H38 H 0.70534 0.09515 0.95758 0.0
C39 C 0.49741 0.74664 0.20551 0.0
N40 N 0.49154 0.70935 0.23345 0.0
N41 N 0.48499 0.7538 0.09267 0.0
C42 C 0.51465 0.77597 0.28841 0.0
C43 C 0.47187 0.71942 0.05283 0.0
N44 N 0.47544 0.69248 0.1387 0.0
C45 C 0.46043 0.71119 0.92494 0.0
H46 H 0.50323 0.80475 0.26959 0.0
H47 H 0.54589 0.77693 0.27403 0.0
H48 H 0.5091 0.76833 0.38337 0.0
H49 H 0.4721 0.73302 0.8626 0.0
H50 H 0.42893 0.71116 0.91865 0.0
H51 H 0.47058 0.68275 0.89555 0.0
C52 C 0.27334 0.50409 0.17078 0.0
N53 N 0.23643 0.5121 0.14867 0.0
N54 N 0.28252 0.51354 0.2855 0.0
C55 C 0.30021 0.4862 0.08254 0.0
C56 C 0.24991 0.52782 0.33163 0.0
N57 N 0.22192 0.52703 0.24845 0.0
C58 C 0.24467 0.54005 0.46021 0.0
H59 H 0.31617 0.46299 0.12654 0.0
H60 H 0.32118 0.50813 0.05244 0.0
H61 H 0.28523 0.47478 0.00247 0.0
H62 H 0.22679 0.56579 0.46621 0.0
H63 H 0.27227 0.54666 0.50403 0.0
H64 H 0.23001 0.51669 0.50993 0.0
C65 C 0.02008 0.24778 0.14542 0.0
N66 N 0.00738 0.21229 0.11495 0.0
N67 N 0.00811 0.25709 0.25761 0.0
C68 C 0.04248 0.27385 0.06455 0.0
C69 C 0.98783 0.22603 0.29373 0.0
N70 N 0.98683 0.19918 0.20644 0.0
C71 C 0.97219 0.2206 0.41852 0.0
H72 H 0.07314 0.27139 0.08625 0.0
H73 H 0.03419 0.30402 0.07927 0.0
H74 H 0.0383 0.2659 0.969 0.0
H75 H 0.94187 0.22898 0.42001 0.0
H76 H 0.98797 0.23856 0.48448 0.0
H77 H 0.97392 0.19024 0.44616 0.0
C78 C 0.23047 0.01391 0.13091 0.0
N79 N 0.26642 0.00116 0.11696 0.0
N80 N 0.21654 0.00372 0.24026 0.0
C81 C 0.20929 0.03644 0.03913 0.0
C82 C 0.24514 0.98385 0.29079 0.0
N83 N 0.27525 0.98218 0.21564 0.0
C84 C 0.24419 0.96753 0.41563 0.0
H85 H 0.22928 0.05319 0.98217 0.0
H86 H 0.18879 0.05589 0.0831 0.0
H87 H 0.19315 0.01631 0.98052 0.0
H88 H 0.2627 0.94238 0.42395 0.0
H89 H 0.21483 0.95885 0.44132 0.0
H90 H 0.2545 0.98968 0.47975 0.0
C91 C 0.47821 0.24169 0.17884 0.0
N92 N 0.48929 0.27868 0.16554 0.0
N93 N 0.48811 0.22865 0.28903 0.0
C94 C 0.45881 0.21812 0.08371 0.0
C95 C 0.50609 0.25901 0.34112 0.0
N96 N 0.50701 0.28917 0.26567 0.0
C97 C 0.5241 0.25903 0.4636 0.0
H98 H 0.44048 0.1956 0.12465 0.0
H99 H 0.48078 0.20403 0.02801 0.0
H100 H 0.44152 0.23643 0.02453 0.0
H101 H 0.55517 0.25488 0.45328 0.0
H102 H 0.51291 0.23592 0.5216 0.0
H103 H 0.51974 0.28694 0.50899 0.0
O104 O 0.07059 0.01233 0.591 0.0
Zn105 Zn 0.02539 0.01176 0.70794 0.0
O106 O 0.97687 0.00234 0.61946 0.0
Zn107 Zn 0.9439 0.04559 0.63496 0.0
Zn108 Zn 0.98765 0.99303 0.45254 0.0
Zn109 Zn 0.94748 0.95802 0.67413 0.0
O110 O 0.89749 0.03379 0.7339 0.0
O111 O 0.89562 0.97048 0.74455 0.0
O112 O 0.02524 0.06513 0.78831 0.0
O113 O 0.97055 0.0877 0.72179 0.0
O114 O 0.9315 0.06702 0.47445 0.0
O115 O 0.95861 0.02732 0.34512 0.0
O116 O 0.98161 0.93804 0.41151 0.0
O117 O 0.03212 0.96889 0.833 0.0
O118 O 0.94761 0.91229 0.55882 0.0
O119 O 0.9763 0.93894 0.80928 0.0
C120 C 0.07195 0.00992 0.47672 0.0
C121 C 0.8816 0.00298 0.76963 0.0
C122 C 0.93994 0.05747 0.3675 0.0
C123 C 0.00141 0.09229 0.77947 0.0
C124 C 0.96547 0.90928 0.45982 0.0
C125 C 0.00785 0.94306 0.86319 0.0
O126 O 0.04204 0.00389 0.41553 0.0
O127 O 0.47253 0.07605 0.6152 0.0
Zn128 Zn 0.47386 0.03048 0.73071 0.0
O129 O 0.48493 0.98244 0.63987 0.0
Zn130 Zn 0.44328 0.9457 0.65694 0.0
Zn131 Zn 0.49197 -0.00576 0.47143 0.0
Zn132 Zn 0.53065 0.95699 0.69266 0.0
O133 O 0.45829 0.89838 0.74668 0.0
O134 O 0.52001 0.90687 0.77963 0.0
O135 O 0.42122 0.0268 0.81493 0.0
O136 O 0.4023 0.96903 0.7549 0.0
O137 O 0.41744 0.93397 0.50023 0.0
O138 O 0.44795 0.9745 0.38021 0.0
O139 O 0.54051 0.97495 0.4014 0.0
O140 O 0.51806 0.04202 0.84834 0.0
O141 O 0.57037 0.95168 0.55949 0.0
O142 O 0.55452 0.99185 0.80864 0.0
C143 C 0.48192 0.0796 0.50502 0.0
C144 C 0.48933 0.88748 0.79342 0.0
C145 C 0.4208 0.95105 0.40021 0.0
C146 C 0.39609 -3e-05 0.81142 0.0
C147 C 0.56966 0.96004 0.44828 0.0
C148 C 0.54853 0.0231 0.86354 0.0
O149 O 0.49178 0.05079 0.44294 0.0
O150 O 0.42347 0.48662 0.65266 0.0
Zn151 Zn 0.46819 0.48328 0.77087 0.0
O152 O 0.51752 0.49578 0.68862 0.0
Zn153 Zn 0.55273 0.45396 0.70512 0.0
Zn154 Zn 0.5089 0.50605 0.52037 0.0
Zn155 Zn 0.54325 0.54074 0.75291 0.0
O156 O 0.60173 0.46915 0.7876 0.0
O157 O 0.59631 0.53158 0.81578 0.0
O158 O 0.46941 0.42887 0.8429 0.0
O159 O 0.52896 0.4126 0.80327 0.0
O160 O 0.56163 0.42853 0.54718 0.0
O161 O 0.53019 0.46436 0.41777 0.0
O162 O 0.52296 0.55983 0.47185 0.0
O163 O 0.45921 0.52248 0.90588 0.0
O164 O 0.5409 0.58682 0.64334 0.0
O165 O 0.51362 0.55553 0.89204 0.0
C166 C 0.42296 0.49604 0.54212 0.0
C167 C 0.61494 0.50085 0.82733 0.0
C168 C 0.54924 0.43466 0.44203 0.0
C169 C 0.49656 0.40495 0.84879 0.0
C170 C 0.53268 0.58926 0.53269 0.0
C171 C 0.48215 0.54845 0.94373 0.0
O172 O 0.45351 0.50397 0.48609 0.0
O173 O 0.95425 0.53276 0.52321 0.0
Zn174 Zn 0.00811 0.53658 0.59729 0.0
O175 O 0.01922 0.48963 0.69238 0.0
Zn176 Zn 0.02891 0.50357 0.85745 0.0
Zn177 Zn 0.97709 0.45371 0.68338 0.0
Zn178 Zn 0.06343 0.4614 0.63752 0.0
O179 O 0.08297 0.49478 0.90377 0.0
O180 O 0.10813 0.462 0.75313 0.0
O181 O 0.0089 0.58422 0.70547 0.0
O182 O 0.02286 0.55945 0.88238 0.0
O183 O 0.99042 0.4794 0.96646 0.0
O184 O 0.95554 0.44273 0.84491 0.0
O185 O 0.98963 0.40575 0.59317 0.0
O186 O 0.04955 0.54343 0.46719 0.0
O187 O 0.05204 0.4089 0.56791 0.0
O188 O 0.08218 0.4905 0.50218 0.0
C189 C 0.92836 0.50694 0.53458 0.0
C190 C 0.11119 0.47859 0.85448 0.0
C191 C 0.96232 0.45674 0.94821 0.0
C192 C 0.01528 0.58808 0.81758 0.0
C193 C 0.02026 0.39175 0.55216 0.0
C194 C 0.07662 0.52064 0.44244 0.0
O195 O 0.93445 0.47665 0.59357 0.0
C196 C 0.17676 0.02646 0.40819 0.0
C197 C 0.17972 0.01078 0.29224 0.0
H198 H 0.14056 0.03793 0.55889 0.0
C199 C 0.1467 -0.00221 0.23416 0.0
H200 H 0.20191 0.03713 0.45392 0.0
C201 C 0.11158 -0.0013 0.2931 0.0
C202 C 0.10886 0.01223 0.41211 0.0
H203 H 0.1484 0.98526 0.14539 0.0
H204 H 0.0868 0.98733 0.24682 0.0
C205 C 0.14175 0.02681 0.46819 0.0
C206 C 0.46332 0.18472 0.44459 0.0
C207 C 0.48356 0.19068 0.33739 0.0
H208 H 0.44748 0.14525 0.58331 0.0
C209 C 0.50158 0.15965 0.28264 0.0
H210 H 0.44884 0.20829 0.48732 0.0
C211 C 0.50052 0.12353 0.33631 0.0
C212 C 0.48166 0.11777 0.44663 0.0
H213 H 0.51741 0.1637 0.20018 0.0
H214 H 0.51533 0.10033 0.29263 0.0
C215 C 0.4627 0.14875 0.49946 0.0
C216 C 0.35173 0.52364 0.30371 0.0
C217 C 0.31787 0.50738 0.34734 0.0
H218 H 0.41125 0.53288 0.33082 0.0
C219 C 0.31865 0.48642 0.45467 0.0
H220 H 0.3517 0.54035 0.22227 0.0
C221 C 0.3526 0.48269 0.51904 0.0
C222 C 0.38655 0.49928 0.47583 0.0
H223 H 0.29281 0.47329 0.48916 0.0
H224 H 0.35231 0.46673 0.60203 0.0
C225 C 0.38571 0.51949 0.36673 0.0
C226 C 0.04784 0.30765 0.35292 0.0
C227 C 0.01193 0.29263 0.32223 0.0
H228 H 0.07889 0.35068 0.45165 0.0
C229 C 0.97923 0.31048 0.36596 0.0
H230 H 0.07339 0.29395 0.32096 0.0
C231 C 0.98213 0.34209 0.44201 0.0
C232 C 0.01796 0.35698 0.47543 0.0
H233 H 0.95128 0.29935 0.34272 0.0
H234 H 0.95613 0.3549 0.47418 0.0
C235 C 0.05087 0.33969 0.42881 0.0
C236 C 0.81372 0.04096 0.00451 0.0
C237 C 0.78596 0.01189 0.00983 0.0
H238 H 0.86517 0.06127 0.9225 0.0
C239 C 0.79038 0.979 0.93834 0.0
H240 H 0.8112 0.06627 0.06 0.0
C241 C 0.82165 0.97564 0.86101 0.0
C242 C 0.84852 0.00559 0.85168 0.0
H243 H 0.76895 0.95647 0.93955 0.0
H244 H 0.82421 0.95017 0.80612 0.0
C245 C 0.84444 0.03808 0.92538 0.0
C246 C 0.45293 0.80226 0.97168 0.0
C247 C 0.48617 0.78901 0.02591 0.0
H248 H 0.42787 0.84304 0.85503 0.0
C249 C 0.52072 0.80845 0.00464 0.0
H250 H 0.42603 0.78761 0.98695 0.0
C251 C 0.52203 0.84029 0.92845 0.0
C252 C 0.48876 0.85316 0.87194 0.0
H253 H 0.54677 0.79834 0.04435 0.0
H254 H 0.54911 0.85461 0.91323 0.0
C255 C 0.45417 0.83384 0.89551 0.0
C256 C 0.70347 0.46666 0.98573 0.0
C257 C 0.71908 0.50084 0.03142 0.0
H258 H 0.65899 0.43984 0.88434 0.0
C259 C 0.70013 0.53524 0.01139 0.0
H260 H 0.71765 0.43981 0.00072 0.0
C261 C 0.66644 0.53549 0.94416 0.0
C262 C 0.6512 0.50126 0.89578 0.0
H263 H 0.712 0.56195 0.04483 0.0
H264 H 0.65252 0.56249 0.92948 0.0
C265 C 0.67003 0.46682 0.9185 0.0
C266 C 0.032 0.66758 0.04451 0.0
C267 C 0.0141 0.69855 0.99039 0.0
H268 H 0.04647 0.60857 0.03236 0.0
C269 C -0.00411 0.69304 0.87934 0.0
H270 H 0.04658 0.6713 0.12922 0.0
C271 C -0.00354 0.65734 0.82185 0.0
C272 C 0.01461 0.6263 0.87577 0.0
H273 H 0.98147 0.71651 0.83682 0.0
H274 H 0.98243 0.65397 0.73601 0.0
C275 C 0.03208 0.63181 0.98829 0.0
C276 C 0.93223 0.15675 0.25572 0.0
C277 C 0.96976 0.16162 0.21444 0.0
H278 H 0.89199 0.11806 0.33685 0.0
C279 C 0.99197 0.12936 0.1937 0.0
H280 H 0.9144 0.18133 0.27025 0.0
C281 C 0.9781 0.09312 0.22139 0.0
C282 C 0.943 0.08883 0.28071 0.0
H283 H 0.02141 0.13224 0.16748 0.0
H284 H -0.00246 0.06945 0.21341 0.0
C285 C 0.9191 0.12057 0.29096 0.0
C286 C 0.32223 0.93404 0.27789 0.0
C287 C 0.31323 0.9717 0.24688 0.0
H288 H 0.36448 0.89734 0.35335 0.0
C289 C 0.34151 0.0001 0.2492 0.0
H290 H 0.30069 0.91164 0.27415 0.0
C291 C 0.37808 0.99157 0.28481 0.0
C292 C 0.3866 0.95481 0.32634 0.0
H293 H 0.3348 0.02945 0.22888 0.0
H294 H 0.39863 0.0149 0.29064 0.0
C295 C 0.35864 0.92576 0.32054 0.0
C296 C 0.49663 0.35826 0.27867 0.0
C297 C 0.52103 0.32724 0.29094 0.0
H298 H 0.48788 0.41761 0.30759 0.0
C299 C 0.55831 0.33371 0.33207 0.0
H300 H 0.46745 0.35382 0.25109 0.0
C301 C 0.56972 0.37027 0.3705 0.0
C302 C 0.54438 0.40095 0.36387 0.0
H303 H 0.57786 0.31022 0.33972 0.0
H304 H 0.59735 0.37408 0.41209 0.0
C305 C 0.50851 0.3949 0.31123 0.0
C306 C 0.16547 0.56335 0.3174 0.0
C307 C 0.18173 0.52961 0.27275 0.0
H308 H 0.11704 0.58762 0.40662 0.0
C309 C 0.15864 0.49709 0.25678 0.0
H310 H 0.18262 0.58912 0.327 0.0
C311 C 0.12077 0.49728 0.29149 0.0
C312 C 0.10592 0.52902 0.35215 0.0
H313 H 0.17054 0.47056 0.22511 0.0
H314 H 0.10459 0.4707 0.28576 0.0
C315 C 0.12772 0.56291 0.35899 0.0
C316 C 0.0549 0.8581 0.00061 0.0
C317 C 0.02225 0.83858 0.04242 0.0
H318 H 0.07636 0.90824 0.91014 0.0
C319 C 0.98772 0.85785 0.04839 0.0
H320 H 0.0821 0.844 0.99872 0.0
C321 C 0.98503 0.89496 0.00663 0.0
C322 C 0.01629 0.91294 0.95065 0.0
H323 H 0.9621 0.84331 0.07843 0.0
H324 H 0.95726 0.90808 0.00661 0.0
C325 C 0.05186 0.8951 0.9532 0.0
C326 C 0.62005 0.04699 0.10456 0.0
C327 C 0.65356 0.04186 0.03685 0.0
H328 H 0.55862 0.04443 0.10232 0.0
C329 C 0.65077 0.03982 0.91152 0.0
H330 H 0.62145 0.04903 0.20133 0.0
C331 C 0.6157 0.03999 0.85558 0.0
C332 C 0.58211 0.03977 0.92333 0.0
H333 H 0.67558 0.03486 0.85638 0.0
H334 H 0.6148 0.03578 0.75919 0.0
C335 C 0.58422 0.04502 0.04812 0.0
C336 C 0.50279 0.62823 0.14301 0.0
C337 C 0.47159 0.65167 0.12112 0.0
H338 H 0.52808 0.574 0.11687 0.0
C339 C 0.43858 0.63541 0.06965 0.0
H340 H 0.52915 0.63997 0.17736 0.0
C341 C 0.43891 0.59765 0.02642 0.0
C342 C 0.47194 0.57585 0.03795 0.0
H343 H 0.41397 0.6529 0.0534 0.0
H344 H 0.41531 0.58731 0.97239 0.0
C345 C 0.5022 0.59023 0.10729 0.0
C346 C 0.8639 0.43954 0.06326 0.0
C347 C 0.85555 0.47676 0.1017 0.0
H348 H 0.90593 0.40305 0.98546 0.0
C349 C 0.88506 0.50372 0.11395 0.0
H350 H 0.84141 0.41825 0.05462 0.0
C351 C 0.92209 0.49441 0.08302 0.0
C352 C 0.92983 0.45869 0.031 0.0
H353 H 0.87909 0.53296 0.13821 0.0
H354 H 0.9435 0.517 0.08546 0.0
C355 C 0.9008 0.43066 0.0264 0.0
C356 C 0.04371 0.17047 0.97974 0.0
C357 C 0.01114 0.1922 0.00281 0.0
H358 H 0.06603 0.12031 0.89376 0.0
C359 C 0.97827 0.18518 0.9355 0.0
H360 H 0.06923 0.17532 0.03219 0.0
C361 C 0.97633 0.15423 0.85655 0.0
C362 C 0.00715 0.12913 0.84465 0.0
H363 H 0.95287 0.20152 0.95287 0.0
H364 H 0.9495 0.14842 0.81205 0.0
C365 C 0.04158 0.13862 0.90251 0.0
C366 C 0.31327 0.03826 0.99745 0.0
C367 C 0.29169 0.00459 0.01547 0.0
H368 H 0.36415 0.06329 0.92161 0.0
C369 C 0.30239 0.97115 0.95593 0.0
H370 H 0.30586 0.06419 0.0449 0.0
C371 C 0.33536 0.97043 0.88631 0.0
C372 C 0.35901 0.00314 0.8757 0.0
H373 H 0.28655 0.94479 0.97065 0.0
H374 H 0.34326 0.94344 0.84596 0.0
C375 C 0.34695 0.03749 0.929 0.0
C376 C 0.5218 0.31256 0.00366 0.0
C377 C 0.48766 0.30235 0.06035 0.0
H378 H 0.55137 0.35253 0.89293 0.0
C379 C 0.45469 0.32306 0.03461 0.0
H380 H 0.54756 0.29724 0.02389 0.0
C381 C 0.45683 0.35587 0.96231 0.0
C382 C 0.4919 0.36789 0.91303 0.0
H383 H 0.4282 0.31593 0.07947 0.0
H384 H 0.43154 0.37271 0.94975 0.0
C385 C 0.52391 0.34471 0.93033 0.0
C386 C 0.19185 0.53323 0.99653 0.0
C387 C 0.21409 0.50392 0.04315 0.0
H388 H 0.14117 0.54767 0.90255 0.0
C389 C 0.20599 0.46582 0.00923 0.0
H390 H 0.19748 0.56265 0.02241 0.0
C391 C 0.17361 0.45707 0.94008 0.0
C392 C 0.14907 0.48638 0.90588 0.0
H393 H 0.2223 0.44271 0.04647 0.0
H394 H 0.16619 0.42746 0.92179 0.0
C395 C 0.1594 0.52455 0.9299 0.0
C396 C 0.95853 0.81286 0.30423 0.0
C397 C -0.00289 0.80739 0.27511 0.0
H398 H 0.91766 0.85016 0.3871 0.0
C399 C 0.02465 0.83202 0.32443 0.0
H400 H 0.93678 0.79463 0.26457 0.0
C401 C 0.01385 0.86382 0.39103 0.0
C402 C 0.97523 0.87141 0.41116 0.0
H403 H 0.05439 0.82846 0.30196 0.0
H404 H 0.03572 0.88379 0.42113 0.0
C405 C 0.94759 0.84478 0.37262 0.0
C406 C 0.66962 0.98558 0.35644 0.0
C407 C 0.66716 0.98262 0.23122 0.0
H408 H 0.64074 0.97921 0.52465 0.0
C409 C 0.63501 0.96488 0.1799 0.0
H410 H 0.69425 -0.00085 0.39746 0.0
C411 C 0.60388 0.95451 0.25196 0.0
C412 C 0.60517 0.96022 0.37687 0.0
H413 H 0.63288 0.96184 0.08347 0.0
H414 H 0.57805 0.94404 0.20948 0.0
C415 C 0.63906 0.97404 0.42893 0.0
C416 C 0.54043 0.68385 0.36932 0.0
C417 C 0.50185 0.68934 0.34114 0.0
H418 H 0.58109 0.64653 0.4516 0.0
C419 C 0.47414 0.66633 0.39684 0.0
H420 H 0.56226 0.70103 0.32594 0.0
C421 C 0.48476 0.63518 0.46597 0.0
C422 C 0.52331 0.62684 0.48246 0.0
H423 H 0.44434 0.67007 0.37594 0.0
H424 H 0.46279 0.61599 0.49977 0.0
C425 C 0.55119 0.65242 0.43926 0.0
C426 C 0.83556 0.47719 0.38823 0.0
C427 C 0.82572 0.51016 0.32577 0.0
H428 H 0.87539 0.45033 0.50277 0.0
C429 C 0.84625 0.54426 0.34734 0.0
H430 H 0.82033 0.45057 0.37139 0.0
C431 C 0.87913 0.54406 0.41892 0.0
C432 C 0.89105 0.50994 0.47269 0.0
H433 H 0.8393 0.56988 0.29832 0.0
H434 H 0.89614 0.56999 0.42714 0.0
C435 C 0.86761 0.47709 0.46161 0.0
loop_
_geom_bond_atom_site_label_1
_geom_bond_atom_site_label_2
_geom_bond_distance
_geom_bond_site_symmetry_2
_ccdc_geom_bond_type
C0 N1 1.317 . S
C0 N2 1.348 1_554 S
C0 C3 1.485 . S
N1 C0 1.317 . S
N1 N5 1.370 1_554 S
N2 C0 1.348 1_556 S
N2 C4 1.346 . S
C3 C0 1.485 . S
C3 H7 0.960 . S
C3 H8 0.961 . S
C3 H9 0.960 . S
C4 N2 1.346 . S
C4 N5 1.307 . S
C4 C6 1.486 . S
N5 N1 1.370 1_556 S
N5 C4 1.307 . S
C6 C4 1.486 . S
C6 H10 0.960 . S
C6 H11 0.960 . S
C6 H12 0.959 . S
H7 C3 0.960 . S
H8 C3 0.961 . S
H9 C3 0.960 . S
H10 C6 0.960 . S
H11 C6 0.960 . S
H12 C6 0.959 . S
C13 N14 1.317 . S
C13 N15 1.348 . S
C13 C16 1.485 . S
N14 C13 1.317 . S
N14 N18 1.370 1_655 S
N15 C13 1.348 . S
N15 C17 1.346 1_554 S
C16 C13 1.485 . S
C16 H20 0.960 1_655 S
C16 H21 0.961 . S
C16 H22 0.960 . S
C17 N15 1.346 1_556 S
C17 N18 1.307 1_656 S
C17 C19 1.486 1_655 S
N18 N14 1.370 1_455 S
N18 C17 1.307 1_454 S
C19 C17 1.486 1_455 S
C19 H23 0.960 1_455 S
C19 H24 0.960 . S
C19 H25 0.959 . S
H20 C16 0.960 1_455 S
H21 C16 0.961 . S
H22 C16 0.960 . S
H23 C19 0.960 1_655 S
H24 C19 0.960 . S
H25 C19 0.959 . S
C26 N27 1.317 . S
C26 N28 1.348 . S
C26 C29 1.485 . S
N27 C26 1.317 . S
N27 N31 1.371 . S
N28 C26 1.348 . S
N28 C30 1.346 1_564 S
C29 C26 1.485 . S
C29 H33 0.960 1_565 S
C29 H34 0.961 . S
C29 H35 0.960 . S
C30 N28 1.346 1_546 S
C30 N31 1.307 1_546 S
C30 C32 1.486 . S
N31 N27 1.371 . S
N31 C30 1.307 1_564 S
C32 C30 1.486 . S
C32 H36 0.960 1_545 S
C32 H37 0.960 . S
C32 H38 0.959 . S
H33 C29 0.960 1_545 S
H34 C29 0.961 . S
H35 C29 0.960 . S
H36 C32 0.960 1_565 S
H37 C32 0.960 . S
H38 C32 0.959 . S
C39 N40 1.317 . S
C39 N41 1.348 . S
C39 C42 1.485 . S
N40 C39 1.317 . S
N40 N44 1.370 1_554 S
N41 C39 1.348 . S
N41 C43 1.346 1_554 S
C42 C39 1.485 . S
C42 H46 0.960 . S
C42 H47 0.961 . S
C42 H48 0.960 . S
C43 N41 1.346 1_556 S
C43 N44 1.307 . S
C43 C45 1.486 . S
N44 N40 1.370 1_556 S
N44 C43 1.307 . S
C45 C43 1.486 . S
C45 H49 0.960 . S
C45 H50 0.960 . S
C45 H51 0.959 . S
H46 C42 0.960 . S
H47 C42 0.961 . S
H48 C42 0.960 . S
H49 C45 0.960 . S
H50 C45 0.960 . S
H51 C45 0.959 . S
C52 N53 1.317 . S
C52 N54 1.348 . S
C52 C55 1.485 . S
N53 C52 1.317 . S
N53 N57 1.370 . S
N54 C52 1.348 . S
N54 C56 1.346 . S
C55 C52 1.485 . S
C55 H59 0.960 . S
C55 H60 0.961 . S
C55 H61 0.960 1_554 S
C56 N54 1.346 . S
C56 N57 1.307 . S
C56 C58 1.486 . S
N57 N53 1.370 . S
N57 C56 1.307 . S
C58 C56 1.486 . S
C58 H62 0.960 . S
C58 H63 0.960 . S
C58 H64 0.959 . S
H59 C55 0.960 . S
H60 C55 0.961 . S
H61 C55 0.960 1_556 S
H62 C58 0.960 . S
H63 C58 0.960 . S
H64 C58 0.959 . S
C65 N66 1.317 . S
C65 N67 1.348 . S
C65 C68 1.485 . S
N66 C65 1.317 . S
N66 N70 1.370 . S
N67 C65 1.348 . S
N67 C69 1.346 . S
C68 C65 1.485 . S
C68 H72 0.960 . S
C68 H73 0.961 . S
C68 H74 0.960 . S
C69 N67 1.346 . S
C69 N70 1.307 . S
C69 C71 1.486 . S
N70 N66 1.370 . S
N70 C69 1.307 . S
C71 C69 1.486 . S
C71 H75 0.960 . S
C71 H76 0.960 . S
C71 H77 0.959 . S
H72 C68 0.960 . S
H73 C68 0.961 . S
H74 C68 0.960 . S
H75 C71 0.960 . S
H76 C71 0.960 . S
H77 C71 0.959 . S
C78 N79 1.317 . S
C78 N80 1.348 . S
C78 C81 1.485 . S
N79 C78 1.317 . S
N79 N83 1.370 . S
N80 C78 1.348 . S
N80 C82 1.346 . S
C81 C78 1.485 . S
C81 H85 0.960 . S
C81 H86 0.961 1_545 S
C81 H87 0.960 1_545 S
C82 N80 1.346 . S
C82 N83 1.307 . S
C82 C84 1.486 . S
N83 N79 1.370 . S
N83 C82 1.307 . S
C84 C82 1.486 . S
C84 H88 0.960 1_545 S
C84 H89 0.960 . S
C84 H90 0.959 . S
H85 C81 0.960 . S
H86 C81 0.961 1_565 S
H87 C81 0.960 1_565 S
H88 C84 0.960 1_565 S
H89 C84 0.960 . S
H90 C84 0.959 . S
C91 N92 1.317 . S
C91 N93 1.348 . S
C91 C94 1.485 . S
N92 C91 1.317 . S
N92 N96 1.370 . S
N93 C91 1.348 . S
N93 C95 1.346 . S
C94 C91 1.485 . S
C94 H98 0.960 . S
C94 H99 0.961 . S
C94 H100 0.959 1_554 S
C95 N93 1.346 . S
C95 N96 1.307 . S
C95 C97 1.486 . S
N96 N92 1.370 . S
N96 C95 1.307 . S
C97 C95 1.486 . S
C97 H101 0.960 . S
C97 H102 0.960 . S
C97 H103 0.959 . S
H98 C94 0.960 . S
H99 C94 0.961 . S
H100 C94 0.959 1_556 S
H101 C97 0.960 . S
H102 C97 0.960 . S
H103 C97 0.959 . S
O104 Zn105 1.953 . S
O104 C120 1.225 1_545 S
Zn105 O104 1.953 . S
Zn105 O106 1.948 1_545 S
Zn105 O112 1.919 . S
Zn105 O117 1.924 1_545 S
O106 Zn105 1.948 1_565 S
O106 Zn107 1.898 1_465 S
O106 Zn108 1.953 . S
O106 Zn109 1.968 1_455 S
Zn107 O106 1.898 1_645 S
Zn107 O110 1.933 . S
Zn107 O113 1.931 1_655 S
Zn107 O114 1.965 . S
Zn108 O106 1.953 . S
Zn108 O115 1.938 1_565 S
Zn108 O116 1.906 . S
Zn108 O126 1.953 . S
Zn109 O106 1.968 1_655 S
Zn109 O111 1.932 . S
Zn109 O118 1.977 . S
Zn109 O119 1.910 1_655 S
O110 Zn107 1.933 . S
O110 C121 1.226 . S
O111 Zn109 1.932 . S
O111 C121 1.307 1_565 S
O112 Zn105 1.919 . S
O112 C123 1.253 . S
O113 Zn107 1.931 1_455 S
O113 C123 1.300 . S
O114 Zn107 1.965 . S
O114 C122 1.303 1_655 S
O115 Zn108 1.938 1_545 S
O115 C122 1.247 . S
O116 Zn108 1.906 . S
O116 C124 1.304 1_455 S
O117 Zn105 1.924 1_565 S
O117 C125 1.311 . S
O118 Zn109 1.977 . S
O118 C124 1.272 . S
O119 Zn109 1.910 1_455 S
O119 C125 1.231 . S
C120 O104 1.225 1_565 S
C120 O126 1.298 . S
C121 O110 1.226 . S
C121 O111 1.307 1_545 S
C122 O114 1.303 1_455 S
C122 O115 1.247 . S
C123 O112 1.253 . S
C123 O113 1.300 . S
C124 O116 1.304 1_655 S
C124 O118 1.272 . S
C125 O117 1.311 . S
C125 O119 1.231 . S
O126 Zn108 1.953 . S
O126 C120 1.298 . S
O127 Zn128 1.953 . S
O127 C143 1.225 . S
Zn128 O127 1.953 . S
Zn128 O129 1.949 . S
Zn128 O135 1.919 . S
Zn128 O140 1.924 . S
O129 Zn128 1.949 . S
O129 Zn130 1.923 1_545 S
O129 Zn131 1.950 . S
O129 Zn132 1.945 1_545 S
Zn130 O129 1.923 1_565 S
Zn130 O133 1.933 . S
Zn130 O136 1.941 . S
Zn130 O137 1.965 . S
Zn131 O129 1.950 . S
Zn131 O138 1.938 . S
Zn131 O139 1.906 . S
Zn131 O149 1.953 . S
Zn132 O129 1.945 1_565 S
Zn132 O134 1.932 . S
Zn132 O141 1.977 . S
Zn132 O142 1.910 1_565 S
O133 Zn130 1.933 . S
O133 C144 1.226 . S
O134 Zn132 1.932 . S
O134 C144 1.307 . S
O135 Zn128 1.919 . S
O135 C146 1.253 . S
O136 Zn130 1.941 . S
O136 C146 1.283 1_565 S
O137 Zn130 1.965 . S
O137 C145 1.303 1_565 S
O138 Zn131 1.938 . S
O138 C145 1.247 . S
O139 Zn131 1.906 . S
O139 C147 1.304 1_545 S
O140 Zn128 1.924 . S
O140 C148 1.311 . S
O141 Zn132 1.977 . S
O141 C147 1.272 . S
O142 Zn132 1.910 1_545 S
O142 C148 1.231 . S
C143 O127 1.225 . S
C143 O149 1.298 . S
C144 O133 1.226 . S
C144 O134 1.307 . S
C145 O137 1.303 1_545 S
C145 O138 1.247 . S
C146 O135 1.253 . S
C146 O136 1.283 1_545 S
C147 O139 1.304 1_565 S
C147 O141 1.272 . S
C148 O140 1.311 . S
C148 O142 1.231 . S
O149 Zn131 1.953 . S
O149 C143 1.298 . S
O150 Zn151 1.953 . S
O150 C166 1.225 . S
Zn151 O150 1.953 . S
Zn151 O152 1.949 . S
Zn151 O158 1.919 . S
Zn151 O163 1.924 . S
O152 Zn151 1.949 . S
O152 Zn153 1.923 . S
O152 Zn154 1.950 . S
O152 Zn155 1.945 . S
Zn153 O152 1.923 . S
Zn153 O156 1.933 . S
Zn153 O159 1.941 . S
Zn153 O160 1.965 . S
Zn154 O152 1.950 . S
Zn154 O161 1.938 . S
Zn154 O162 1.906 . S
Zn154 O172 1.953 . S
Zn155 O152 1.945 . S
Zn155 O157 1.932 . S
Zn155 O164 1.977 . S
Zn155 O165 1.910 . S
O156 Zn153 1.933 . S
O156 C167 1.226 . S
O157 Zn155 1.932 . S
O157 C167 1.307 . S
O158 Zn151 1.919 . S
O158 C169 1.253 . S
O159 Zn153 1.941 . S
O159 C169 1.283 . S
O160 Zn153 1.965 . S
O160 C168 1.303 . S
O161 Zn154 1.938 . S
O161 C168 1.247 . S
O162 Zn154 1.906 . S
O162 C170 1.304 . S
O163 Zn151 1.924 . S
O163 C171 1.311 . S
O164 Zn155 1.977 . S
O164 C170 1.272 . S
O165 Zn155 1.910 . S
O165 C171 1.231 . S
C166 O150 1.225 . S
C166 O172 1.298 . S
C167 O156 1.226 . S
C167 O157 1.307 . S
C168 O160 1.303 . S
C168 O161 1.247 . S
C169 O158 1.253 . S
C169 O159 1.283 . S
C170 O162 1.304 . S
C170 O164 1.272 . S
C171 O163 1.311 . S
C171 O165 1.231 . S
O172 Zn154 1.953 . S
O172 C166 1.298 . S
O173 Zn174 1.953 1_655 S
O173 C189 1.225 . S
Zn174 O173 1.953 1_455 S
Zn174 O175 1.949 . S
Zn174 O181 1.919 . S
Zn174 O186 1.924 . S
O175 Zn174 1.949 . S
O175 Zn176 1.918 1_455 S
O175 Zn177 1.928 1_455 S
O175 Zn178 1.973 . S
Zn176 O175 1.918 1_655 S
Zn176 O179 1.933 1_655 S
Zn176 O182 1.941 . S
Zn176 O183 1.965 . S
Zn177 O175 1.928 1_655 S
Zn177 O184 1.938 . S
Zn177 O185 1.906 . S
Zn177 O195 1.953 . S
Zn178 O175 1.973 . S
Zn178 O180 1.932 . S
Zn178 O187 1.977 . S
Zn178 O188 1.910 . S
O179 Zn176 1.933 1_455 S
O179 C190 1.226 . S
O180 Zn178 1.932 . S
O180 C190 1.307 . S
O181 Zn174 1.919 . S
O181 C192 1.253 . S
O182 Zn176 1.941 . S
O182 C192 1.281 1_655 S
O183 Zn176 1.965 . S
O183 C191 1.303 . S
O184 Zn177 1.938 . S
O184 C191 1.247 . S
O185 Zn177 1.906 . S
O185 C193 1.304 1_655 S
O186 Zn174 1.924 . S
O186 C194 1.311 . S
O187 Zn178 1.977 . S
O187 C193 1.272 . S
O188 Zn178 1.910 . S
O188 C194 1.231 . S
C189 O173 1.225 . S
C189 O195 1.298 . S
C190 O179 1.226 . S
C190 O180 1.307 . S
C191 O183 1.303 . S
C191 O184 1.247 . S
C192 O181 1.253 . S
C192 O182 1.281 1_455 S
C193 O185 1.304 1_455 S
C193 O187 1.272 . S
C194 O186 1.311 . S
C194 O188 1.231 . S
O195 Zn177 1.953 . S
O195 C189 1.298 . S
C196 C197 1.387 . S
C196 H200 0.950 . S
C196 C205 1.390 . S
C197 C196 1.387 . S
C197 C199 1.387 1_545 S
H198 C205 0.950 . S
C199 C197 1.387 1_565 S
C199 C201 1.390 . S
C199 H203 0.950 . S
H200 C196 0.950 . S
C201 C199 1.390 . S
C201 C202 1.409 . S
C201 H204 0.950 . S
C202 C201 1.409 . S
C202 C205 1.364 1_565 S
H203 C199 0.950 . S
H204 C201 0.950 . S
C205 C196 1.390 . S
C205 H198 0.950 . S
C205 C202 1.364 1_545 S
C206 C207 1.387 . S
C206 H210 0.950 . S
C206 C215 1.390 . S
C207 C206 1.387 . S
C207 C209 1.387 . S
H208 C215 0.950 . S
C209 C207 1.387 . S
C209 C211 1.390 . S
C209 H213 0.950 . S
H210 C206 0.950 . S
C211 C209 1.390 . S
C211 C212 1.387 . S
C211 H214 0.950 . S
C212 C211 1.387 . S
C212 C215 1.387 . S
H213 C209 0.950 . S
H214 C211 0.950 . S
C215 C206 1.390 . S
C215 H208 0.950 . S
C215 C212 1.387 . S
C216 C217 1.387 . S
C216 H220 0.950 . S
C216 C225 1.390 . S
C217 C216 1.387 . S
C217 C219 1.387 . S
H218 C225 0.950 . S
C219 C217 1.387 . S
C219 C221 1.390 . S
C219 H223 0.950 . S
H220 C216 0.950 . S
C221 C219 1.390 . S
C221 C222 1.387 . S
C221 H224 0.950 . S
C222 C221 1.387 . S
C222 C225 1.387 . S
H223 C219 0.950 . S
H224 C221 0.950 . S
C225 C216 1.390 . S
C225 H218 0.950 . S
C225 C222 1.387 . S
C226 C227 1.387 . S
C226 H230 0.950 . S
C226 C235 1.390 . S
C227 C226 1.387 . S
C227 C229 1.387 . S
H228 C235 0.950 . S
C229 C227 1.387 . S
C229 C231 1.390 1_455 S
C229 H233 0.950 1_455 S
H230 C226 0.950 . S
C231 C229 1.390 1_655 S
C231 C232 1.387 1_655 S
C231 H234 0.950 . S
C232 C231 1.387 1_455 S
C232 C235 1.387 . S
H233 C229 0.950 1_655 S
H234 C231 0.950 . S
C235 C226 1.390 . S
C235 H228 0.950 . S
C235 C232 1.387 . S
C236 C237 1.387 . S
C236 H240 0.950 . S
C236 C245 1.390 . S
C237 C236 1.387 . S
C237 C239 1.388 1_545 S
H238 C245 0.950 . S
C239 C237 1.388 1_565 S
C239 C241 1.390 . S
C239 H243 0.950 . S
H240 C236 0.950 . S
C241 C239 1.390 . S
C241 C242 1.387 1_565 S
C241 H244 0.950 . S
C242 C241 1.387 1_545 S
C242 C245 1.387 . S
H243 C239 0.950 . S
H244 C241 0.950 . S
C245 C236 1.390 . S
C245 H238 0.950 . S
C245 C242 1.387 . S
C246 C247 1.387 . S
C246 H250 0.950 . S
C246 C255 1.390 . S
C247 C246 1.387 . S
C247 C249 1.387 . S
H248 C255 0.950 . S
C249 C247 1.387 . S
C249 C251 1.390 . S
C249 H253 0.950 . S
H250 C246 0.950 . S
C251 C249 1.390 . S
C251 C252 1.387 . S
C251 H254 0.950 . S
C252 C251 1.387 . S
C252 C255 1.387 . S
H253 C249 0.950 . S
H254 C251 0.950 . S
C255 C246 1.390 . S
C255 H248 0.950 . S
C255 C252 1.387 . S
C256 C257 1.387 . S
C256 H260 0.950 . S
C256 C265 1.390 . S
C257 C256 1.387 . S
C257 C259 1.387 . S
H258 C265 0.950 . S
C259 C257 1.387 . S
C259 C261 1.390 . S
C259 H263 0.950 . S
H260 C256 0.950 . S
C261 C259 1.390 . S
C261 C262 1.387 . S
C261 H264 0.950 . S
C262 C261 1.387 . S
C262 C265 1.387 . S
H263 C259 0.950 . S
H264 C261 0.950 . S
C265 C256 1.390 . S
C265 H258 0.950 . S
C265 C262 1.387 . S
C266 C267 1.388 . S
C266 H270 0.950 . S
C266 C275 1.390 . S
C267 C266 1.388 . S
C267 C269 1.387 1_455 S
H268 C275 0.950 . S
C269 C267 1.387 1_655 S
C269 C271 1.390 . S
C269 H273 0.950 . S
H270 C266 0.950 . S
C271 C269 1.390 . S
C271 C272 1.387 1_655 S
C271 H274 0.950 . S
C272 C271 1.387 1_455 S
C272 C275 1.387 . S
H273 C269 0.950 . S
H274 C271 0.950 . S
C275 C266 1.390 . S
C275 H268 0.950 . S
C275 C272 1.387 . S
C276 C277 1.387 . S
C276 H280 0.950 . S
C276 C285 1.390 . S
C277 C276 1.387 . S
C277 C279 1.387 . S
H278 C285 0.950 . S
C279 C277 1.387 . S
C279 C281 1.390 . S
C279 H283 0.950 . S
H280 C276 0.950 . S
C281 C279 1.390 . S
C281 C282 1.387 . S
C281 H284 0.950 . S
C282 C281 1.387 . S
C282 C285 1.387 . S
H283 C279 0.950 . S
H284 C281 0.950 . S
C285 C276 1.390 . S
C285 H278 0.950 . S
C285 C282 1.387 . S
C286 C287 1.387 1_565 S
C286 H290 0.950 . S
C286 C295 1.390 . S
C287 C286 1.387 1_545 S
C287 C289 1.387 . S
H288 C295 0.950 . S
C289 C287 1.387 . S
C289 C291 1.390 . S
C289 H293 0.950 . S
H290 C286 0.950 . S
C291 C289 1.390 . S
C291 C292 1.387 . S
C291 H294 0.950 . S
C292 C291 1.387 . S
C292 C295 1.387 1_545 S
H293 C289 0.950 . S
H294 C291 0.950 . S
C295 C286 1.390 . S
C295 H288 0.950 . S
C295 C292 1.387 1_565 S
C296 C297 1.387 . S
C296 H300 0.950 . S
C296 C305 1.390 . S
C297 C296 1.387 . S
C297 C299 1.387 . S
H298 C305 0.950 . S
C299 C297 1.387 . S
C299 C301 1.390 . S
C299 H303 0.950 . S
H300 C296 0.950 . S
C301 C299 1.390 . S
C301 C302 1.387 . S
C301 H304 0.950 . S
C302 C301 1.387 . S
C302 C305 1.387 . S
H303 C299 0.950 . S
H304 C301 0.950 . S
C305 C296 1.390 . S
C305 H298 0.950 . S
C305 C302 1.387 . S
C306 C307 1.387 . S
C306 H310 0.950 . S
C306 C315 1.390 . S
C307 C306 1.387 . S
C307 C309 1.387 . S
H308 C315 0.950 . S
C309 C307 1.387 . S
C309 C311 1.390 . S
C309 H313 0.950 . S
H310 C306 0.950 . S
C311 C309 1.390 . S
C311 C312 1.387 . S
C311 H314 0.950 . S
C312 C311 1.387 . S
C312 C315 1.387 . S
H313 C309 0.950 . S
H314 C311 0.950 . S
C315 C306 1.390 . S
C315 H308 0.950 . S
C315 C312 1.387 . S
C316 C317 1.387 . S
C316 H320 0.950 . S
C316 C325 1.390 . S
C317 C316 1.387 . S
C317 C319 1.387 1_554 S
H318 C325 0.950 . S
C319 C317 1.387 1_556 S
C319 C321 1.390 . S
C319 H323 0.950 1_455 S
H320 C316 0.950 . S
C321 C319 1.390 . S
C321 C322 1.387 . S
C321 H324 0.950 . S
C322 C321 1.387 . S
C322 C325 1.387 1_556 S
H323 C319 0.950 1_655 S
H324 C321 0.950 . S
C325 C316 1.390 . S
C325 H318 0.950 . S
C325 C322 1.387 1_554 S
C326 C327 1.387 1_554 S
C326 H330 0.950 . S
C326 C335 1.390 1_554 S
C327 C326 1.387 1_556 S
C327 C329 1.387 1_545 S
H328 C335 0.950 . S
C329 C327 1.387 1_565 S
C329 C331 1.390 1_565 S
C329 H333 0.950 . S
H330 C326 0.950 . S
C331 C329 1.390 1_545 S
C331 C332 1.387 . S
C331 H334 0.950 1_545 S
C332 C331 1.387 . S
C332 C335 1.387 . S
H333 C329 0.950 . S
H334 C331 0.950 1_565 S
C335 C326 1.390 1_556 S
C335 H328 0.950 . S
C335 C332 1.387 . S
C336 C337 1.387 . S
C336 H340 0.950 . S
C336 C345 1.390 . S
C337 C336 1.387 . S
C337 C339 1.387 . S
H338 C345 0.950 . S
C339 C337 1.387 . S
C339 C341 1.390 . S
C339 H343 0.950 . S
H340 C336 0.950 . S
C341 C339 1.390 . S
C341 C342 1.387 . S
C341 H344 0.950 . S
C342 C341 1.387 . S
C342 C345 1.387 . S
H343 C339 0.950 . S
H344 C341 0.950 . S
C345 C336 1.390 . S
C345 H338 0.950 . S
C345 C342 1.387 . S
C346 C347 1.387 . S
C346 H350 0.950 . S
C346 C355 1.390 . S
C347 C346 1.387 . S
C347 C349 1.387 . S
H348 C355 0.950 . S
C349 C347 1.387 . S
C349 C351 1.390 . S
C349 H353 0.950 . S
H350 C346 0.950 . S
C351 C349 1.390 . S
C351 C352 1.387 . S
C351 H354 0.950 . S
C352 C351 1.387 . S
C352 C355 1.387 . S
H353 C349 0.950 . S
H354 C351 0.950 . S
C355 C346 1.390 . S
C355 H348 0.950 . S
C355 C352 1.387 . S
C356 C357 1.387 . S
C356 H360 0.950 . S
C356 C365 1.390 . S
C357 C356 1.387 . S
C357 C359 1.387 . S
H358 C365 0.950 1_556 S
C359 C357 1.387 . S
C359 C361 1.390 1_455 S
C359 H363 0.950 1_455 S
H360 C356 0.950 . S
C361 C359 1.390 1_655 S
C361 C362 1.387 1_655 S
C361 H364 0.950 . S
C362 C361 1.387 1_455 S
C362 C365 1.387 . S
H363 C359 0.950 1_655 S
H364 C361 0.950 . S
C365 C356 1.390 . S
C365 H358 0.950 1_554 S
C365 C362 1.387 . S
C366 C367 1.387 . S
C366 H370 0.950 . S
C366 C375 1.390 1_554 S
C367 C366 1.387 . S
C367 C369 1.387 1_545 S
H368 C375 0.950 . S
C369 C367 1.387 1_565 S
C369 C371 1.390 . S
C369 H373 0.950 . S
H370 C366 0.950 . S
C371 C369 1.390 . S
C371 C372 1.387 1_564 S
C371 H374 0.950 . S
C372 C371 1.387 1_546 S
C372 C375 1.387 . S
H373 C369 0.950 . S
H374 C371 0.950 . S
C375 C366 1.390 1_556 S
C375 H368 0.950 . S
C375 C372 1.387 . S
C376 C377 1.387 . S
C376 H380 0.950 . S
C376 C385 1.390 . S
C377 C376 1.387 . S
C377 C379 1.387 1_554 S
H378 C385 0.950 . S
C379 C377 1.387 1_556 S
C379 C381 1.390 . S
C379 H383 0.950 . S
H380 C376 0.950 . S
C381 C379 1.390 . S
C381 C382 1.387 . S
C381 H384 0.950 . S
C382 C381 1.387 . S
C382 C385 1.387 1_556 S
H383 C379 0.950 . S
H384 C381 0.950 . S
C385 C376 1.390 . S
C385 H378 0.950 . S
C385 C382 1.387 1_554 S
C386 C387 1.387 . S
C386 H390 0.950 . S
C386 C395 1.390 1_554 S
C387 C386 1.387 . S
C387 C389 1.387 . S
H388 C395 0.950 . S
C389 C387 1.387 . S
C389 C391 1.390 . S
C389 H393 0.950 . S
H390 C386 0.950 . S
C391 C389 1.390 . S
C391 C392 1.387 1_554 S
C391 H394 0.950 . S
C392 C391 1.387 1_556 S
C392 C395 1.387 . S
H393 C389 0.950 . S
H394 C391 0.950 . S
C395 C386 1.390 1_556 S
C395 H388 0.950 . S
C395 C392 1.387 . S
C396 C397 1.387 . S
C396 H400 0.950 . S
C396 C405 1.390 . S
C397 C396 1.387 . S
C397 C399 1.387 1_655 S
H398 C405 0.950 . S
C399 C397 1.387 1_455 S
C399 C401 1.390 . S
C399 H403 0.950 . S
H400 C396 0.950 . S
C401 C399 1.390 . S
C401 C402 1.387 1_455 S
C401 H404 0.950 . S
C402 C401 1.387 1_655 S
C402 C405 1.387 . S
H403 C399 0.950 . S
H404 C401 0.950 . S
C405 C396 1.390 . S
C405 H398 0.950 . S
C405 C402 1.387 . S
C406 C407 1.387 1_545 S
C406 H410 0.950 . S
C406 C415 1.390 . S
C407 C406 1.387 1_565 S
C407 C409 1.387 . S
H408 C415 0.950 . S
C409 C407 1.387 . S
C409 C411 1.390 . S
C409 H413 0.950 . S
H410 C406 0.950 . S
C411 C409 1.390 . S
C411 C412 1.387 . S
C411 H414 0.950 . S
C412 C411 1.387 . S
C412 C415 1.387 1_565 S
H413 C409 0.950 . S
H414 C411 0.950 . S
C415 C406 1.390 . S
C415 H408 0.950 . S
C415 C412 1.387 1_545 S
C416 C417 1.387 . S
C416 H420 0.950 . S
C416 C425 1.390 . S
C417 C416 1.387 . S
C417 C419 1.387 . S
H418 C425 0.950 . S
C419 C417 1.387 . S
C419 C421 1.390 . S
C419 H423 0.950 . S
H420 C416 0.950 . S
C421 C419 1.390 . S
C421 C422 1.387 . S
C421 H424 0.950 . S
C422 C421 1.387 . S
C422 C425 1.387 . S
H423 C419 0.950 . S
H424 C421 0.950 . S
C425 C416 1.390 . S
C425 H418 0.950 . S
C425 C422 1.387 . S
C426 C427 1.387 . S
C426 H430 0.950 . S
C426 C435 1.390 . S
C427 C426 1.387 . S
C427 C429 1.387 . S
H428 C435 0.950 . S
C429 C427 1.387 . S
C429 C431 1.390 . S
C429 H433 0.950 . S
H430 C426 0.950 . S
C431 C429 1.390 . S
C431 C432 1.387 . S
C431 H434 0.950 . S
C432 C431 1.387 . S
C432 C435 1.387 . S
H433 C429 0.950 . S
H434 C431 0.950 . S
C435 C426 1.390 . S
C435 H428 0.950 . S
C435 C432 1.387 . S
C197 N80 1.628 . S
C202 C120 1.629 . S
C212 C143 1.644 . S
C207 N93 1.639 . S
C222 C166 1.648 . S
C217 N54 1.644 . S
C232 C193 1.525 . S
C227 N67 1.615 . S
C242 C121 1.576 . S
C237 N28 1.568 1_546 S
C247 N41 1.533 1_556 S
C252 C144 1.542 . S
C257 N2 1.535 . S
C262 C167 1.540 . S
C267 N15 1.603 1_456 S
C272 C192 1.594 . S
C282 C122 0.777 . S
C277 N70 0.775 . S
C292 C145 0.767 . S
C287 N83 0.768 . S
C302 C168 0.782 . S
C297 N96 0.783 . S
C307 N57 0.973 . S
C312 C194 0.901 . S
C317 N18 1.045 . S
C322 C125 0.973 . S
C332 C148 0.963 . S
C327 N31 1.053 1_546 S
C342 C171 0.934 . S
C337 N44 1.013 . S
C347 N5 0.753 . S
C352 C191 0.757 . S
C357 N66 1.596 . S
C362 C123 1.539 1_554 S
C367 N79 1.579 . S
C372 C146 1.527 . S
C382 C169 1.535 . S
C377 N92 1.587 . S
C392 C190 1.468 . S
C387 N53 1.473 . S
C397 N14 1.708 . S
C402 C124 1.564 . S
C412 C147 1.525 . S
C407 N27 1.660 . S
C422 C170 1.510 . S
C417 N40 1.645 . S
C427 N1 1.695 . S
C432 C189 1.692 . S
