# Generated by pormake.
# Topology pto, (3,4)-cn, num edge types: 1
# Building blocks:
#     Node 0, Type 0, BuildingBlock: WUSLED_clean_sbu_0, # of connection points: 3
#     Node 1, Type 0, BuildingBlock: WUSLED_clean_sbu_0, # of connection points: 3
#     Node 2, Type 0, BuildingBlock: WUSLED_clean_sbu_0, # of connection points: 3
#     Node 3, Type 0, BuildingBlock: WUSLED_clean_sbu_0, # of connection points: 3
#     Node 4, Type 0, BuildingBlock: WUSLED_clean_sbu_0, # of connection points: 3
#     Node 5, Type 0, BuildingBlock: WUSLED_clean_sbu_0, # of connection points: 3
#     Node 6, Type 0, BuildingBlock: WUSLED_clean_sbu_0, # of connection points: 3
#     Node 7, Type 0, BuildingBlock: WUSLED_clean_sbu_0, # of connection points: 3
#     Node 8, Type 1, BuildingBlock: KUFVIS_clean_linker_0, # of connection points: 4
#     Node 9, Type 1, BuildingBlock: KUFVIS_clean_linker_0, # of connection points: 4
#     Node 10, Type 1, BuildingBlock: KUFVIS_clean_linker_0, # of connection points: 4
#     Node 11, Type 1, BuildingBlock: KUFVIS_clean_linker_0, # of connection points: 4
#     Node 12, Type 1, BuildingBlock: KUFVIS_clean_linker_0, # of connection points: 4
#     Node 13, Type 1, BuildingBlock: KUFVIS_clean_linker_0, # of connection points: 4
#     Edge 14, Type (0, 1), BuildingBlock: EZIPEK_clean_linker_0, # of connection points: 2
#     Edge 15, Type (0, 1), BuildingBlock: EZIPEK_clean_linker_0, # of connection points: 2
#     Edge 16, Type (0, 1), BuildingBlock: EZIPEK_clean_linker_0, # of connection points: 2
#     Edge 17, Type (0, 1), BuildingBlock: EZIPEK_clean_linker_0, # of connection points: 2
#     Edge 18, Type (0, 1), BuildingBlock: EZIPEK_clean_linker_0, # of connection points: 2
#     Edge 19, Type (0, 1), BuildingBlock: EZIPEK_clean_linker_0, # of connection points: 2
#     Edge 20, Type (0, 1), BuildingBlock: EZIPEK_clean_linker_0, # of connection points: 2
#     Edge 21, Type (0, 1), BuildingBlock: EZIPEK_clean_linker_0, # of connection points: 2
#     Edge 22, Type (0, 1), BuildingBlock: EZIPEK_clean_linker_0, # of connection points: 2
#     Edge 23, Type (0, 1), BuildingBlock: EZIPEK_clean_linker_0, # of connection points: 2
#     Edge 24, Type (0, 1), BuildingBlock: EZIPEK_clean_linker_0, # of connection points: 2
#     Edge 25, Type (0, 1), BuildingBlock: EZIPEK_clean_linker_0, # of connection points: 2
#     Edge 26, Type (0, 1), BuildingBlock: EZIPEK_clean_linker_0, # of connection points: 2
#     Edge 27, Type (0, 1), BuildingBlock: EZIPEK_clean_linker_0, # of connection points: 2
#     Edge 28, Type (0, 1), BuildingBlock: EZIPEK_clean_linker_0, # of connection points: 2
#     Edge 29, Type (0, 1), BuildingBlock: EZIPEK_clean_linker_0, # of connection points: 2
#     Edge 30, Type (0, 1), BuildingBlock: EZIPEK_clean_linker_0, # of connection points: 2
#     Edge 31, Type (0, 1), BuildingBlock: EZIPEK_clean_linker_0, # of connection points: 2
#     Edge 32, Type (0, 1), BuildingBlock: EZIPEK_clean_linker_0, # of connection points: 2
#     Edge 33, Type (0, 1), BuildingBlock: EZIPEK_clean_linker_0, # of connection points: 2
#     Edge 34, Type (0, 1), BuildingBlock: EZIPEK_clean_linker_0, # of connection points: 2
#     Edge 35, Type (0, 1), BuildingBlock: EZIPEK_clean_linker_0, # of connection points: 2
#     Edge 36, Type (0, 1), BuildingBlock: EZIPEK_clean_linker_0, # of connection points: 2
#     Edge 37, Type (0, 1), BuildingBlock: EZIPEK_clean_linker_0, # of connection points: 2
# Relax obj value: 0.002
# Max RMSD: 0.051
# Mean RMSD: 0.028
data_MOF--net-pto--node1-WUSLED_clean_sbu_0--node2-KUFVIS_clean_linker_0--edge1-EZIPEK_clean_linker_0
_symmetry_space_group_name_H-M    P1
_symmetry_Int_Tables_number       1
_symmetry_cell_setting            triclinic
loop_
_symmetry_equiv_pos_as_xyz
'x, y, z'
_cell_length_a     31.7297
_cell_length_b     51.104952
_cell_length_c     41.472811
_cell_angle_alpha  89.628027
_cell_angle_beta   90.881899
_cell_angle_gamma 90.615566
loop_
_atom_site_label
_atom_site_type_symbol
_atom_site_fract_x
_atom_site_fract_y
_atom_site_fract_z
_atom_type_partial_charge
C0 C 0.20542 0.23226 0.38524 0.0
C1 C 0.22644 0.21261 0.36843 0.0
C2 C 0.2109 0.18135 0.41117 0.0
C3 C 0.22911 0.18725 0.38131 0.0
C4 C 0.18951 0.20094 0.4277 0.0
C5 C 0.18683 0.22623 0.41483 0.0
U6 U 0.23299 0.28262 0.321 0.0
O7 O 0.19644 0.31442 0.29877 0.0
O8 O 0.25477 0.32358 0.32567 0.0
C9 C 0.22116 0.33287 0.31077 0.0
C10 C 0.20363 0.2592 0.37262 0.0
C11 C 0.20023 0.35561 0.32564 0.0
C12 C 0.20531 0.39739 0.35382 0.0
C13 C 0.22405 0.37439 0.34299 0.0
C14 C 0.13854 0.38322 0.33051 0.0
C15 C 0.16255 0.40208 0.3472 0.0
C16 C 0.15712 0.36026 0.31979 0.0
C17 C 0.29599 0.25903 0.24797 0.0
C18 C 0.35453 0.27635 0.21688 0.0
C19 C 0.30345 0.24718 0.19154 0.0
C20 C 0.28149 0.24546 0.22049 0.0
C21 C 0.34058 0.26223 0.18979 0.0
C22 C 0.33245 0.27481 0.24573 0.0
C23 C 0.27441 0.255 0.27902 0.0
O24 O 0.23997 0.27177 0.37217 0.0
O25 O 0.18117 0.2624 0.34601 0.0
O26 O 0.23316 0.25716 0.27833 0.0
O27 O 0.2922 0.2656 0.30472 0.0
H28 H 0.24103 0.21698 0.34554 0.0
H29 H 0.24567 0.17234 0.36825 0.0
H30 H 0.17525 0.19667 0.45074 0.0
H31 H 0.17056 0.24114 0.42813 0.0
H32 H 0.22434 0.41183 0.36654 0.0
H33 H 0.25744 0.37164 0.34745 0.0
H34 H 0.10551 0.3866 0.3251 0.0
H35 H 0.13787 0.3465 0.30615 0.0
H36 H 0.38309 0.28813 0.21586 0.0
H37 H 0.29223 0.23621 0.1708 0.0
H38 H 0.25363 0.23306 0.22162 0.0
H39 H 0.34451 0.28553 0.2664 0.0
C40 C 0.19579 0.83805 0.65742 0.0
C41 C 0.21309 0.85886 0.67547 0.0
C42 C 0.20087 0.88868 0.63046 0.0
C43 C 0.2155 0.88407 0.66209 0.0
C44 C 0.18296 0.86796 0.6127 0.0
C45 C 0.18049 0.84281 0.62608 0.0
U46 U 0.22669 0.78984 0.72319 0.0
O47 O 0.19303 0.75627 0.74473 0.0
O48 O 0.25296 0.75028 0.72022 0.0
C49 C 0.22083 0.7393 0.7349 0.0
C50 C 0.19539 0.8112 0.67047 0.0
C51 C 0.2038 0.71507 0.72049 0.0
C52 C 0.1704 0.69086 0.6766 0.0
C53 C 0.18602 0.71446 0.68944 0.0
C54 C 0.18897 0.66862 0.72615 0.0
C55 C 0.17376 0.66685 0.69389 0.0
C56 C 0.20448 0.69211 0.73886 0.0
C57 C 0.28972 0.81642 0.79598 0.0
C58 C 0.34461 0.79562 0.82834 0.0
C59 C 0.30677 0.83241 0.84982 0.0
C60 C 0.28272 0.83388 0.82131 0.0
C61 C 0.33852 0.81363 0.85319 0.0
C62 C 0.3203 0.79691 0.8 0.0
C63 C 0.26653 0.81979 0.76513 0.0
O64 O 0.23242 0.79994 0.67183 0.0
O65 O 0.17331 0.8075 0.69672 0.0
O66 O 0.22564 0.81547 0.76579 0.0
O67 O 0.28439 0.81014 0.73946 0.0
H68 H 0.22523 0.85549 0.69969 0.0
H69 H 0.22935 0.89985 0.67612 0.0
H70 H 0.17149 0.8712 0.58827 0.0
H71 H 0.1672 0.82699 0.61179 0.0
H72 H 0.15453 0.69222 0.65352 0.0
H73 H 0.18357 0.73231 0.67532 0.0
H74 H 0.18796 0.65224 0.74263 0.0
H75 H 0.21653 0.69238 0.76346 0.0
H76 H 0.36883 0.78091 0.83063 0.0
H77 H 0.30155 0.84638 0.86885 0.0
H78 H 0.25925 0.84903 0.81874 0.0
H79 H 0.32613 0.78303 0.78099 0.0
C80 C 0.71009 0.82095 0.25006 0.0
C81 C 0.67813 0.80185 0.24659 0.0
C82 C 0.66284 0.81732 0.19216 0.0
C83 C 0.65464 0.80012 0.21788 0.0
C84 C 0.69569 0.83578 0.19512 0.0
C85 C 0.71897 0.83767 0.22395 0.0
U86 U 0.77597 0.79604 0.3225 0.0
O87 O 0.82928 0.81547 0.34754 0.0
O88 O 0.7716 0.80594 0.37385 0.0
C89 C 0.8082 0.81822 0.37434 0.0
C90 C 0.73311 0.82465 0.28097 0.0
C91 C 0.80756 0.84483 0.38764 0.0
C92 C 0.78658 0.89046 0.3841 0.0
C93 C 0.78872 0.86552 0.3704 0.0
C94 C 0.82241 0.87429 0.43217 0.0
C95 C 0.80305 0.89489 0.41524 0.0
C96 C 0.82461 0.84943 0.41847 0.0
C97 C 0.80711 0.72271 0.32637 0.0
C98 C 0.80166 0.67912 0.35055 0.0
C99 C 0.86968 0.69605 0.33425 0.0
C100 C 0.85092 0.71933 0.32394 0.0
C101 C 0.84516 0.67567 0.34718 0.0
C102 C 0.78276 0.70242 0.34008 0.0
C103 C 0.78612 0.74586 0.31173 0.0
O104 O 0.71635 0.81381 0.30668 0.0
O105 O 0.77426 0.82221 0.28004 0.0
O106 O 0.81071 0.7643 0.29982 0.0
O107 O 0.75343 0.75518 0.32685 0.0
H108 H 0.67072 0.78856 0.2662 0.0
H109 H 0.6295 0.78568 0.21591 0.0
H110 H 0.70251 0.84912 0.17544 0.0
H111 H 0.74346 0.85253 0.22608 0.0
H112 H 0.77159 0.90616 0.37071 0.0
H113 H 0.77526 0.86226 0.34657 0.0
H114 H 0.83531 0.87739 0.4562 0.0
H115 H 0.83915 0.83369 0.43212 0.0
H116 H 0.78226 0.66353 0.36037 0.0
H117 H 0.90332 0.69366 0.33142 0.0
H118 H 0.87069 0.73435 0.31325 0.0
H119 H 0.7489 0.70427 0.34187 0.0
C120 C 0.75528 0.2145 0.69549 0.0
C121 C 0.77785 0.21797 0.66691 0.0
C122 C 0.76624 0.1721 0.65356 0.0
C123 C 0.78332 0.19685 0.64606 0.0
C124 C 0.7439 0.16866 0.68222 0.0
C125 C 0.73846 0.18974 0.70303 0.0
U126 U 0.76572 0.28659 0.72275 0.0
O127 O 0.7185 0.31071 0.74655 0.0
O128 O 0.77786 0.30142 0.77174 0.0
C129 C 0.74 0.31143 0.77389 0.0
C130 C 0.74866 0.23627 0.71781 0.0
C131 C 0.7158 0.30488 0.80314 0.0
C132 C 0.70703 0.28129 0.85392 0.0
C133 C 0.73073 0.28694 0.82647 0.0
C134 C 0.65329 0.31135 0.83519 0.0
C135 C 0.66797 0.2933 0.85825 0.0
C136 C 0.67705 0.31716 0.80797 0.0
C137 C 0.82165 0.34007 0.67454 0.0
C138 C 0.8099 0.38709 0.67745 0.0
C139 C 0.879 0.37086 0.66442 0.0
C140 C 0.86374 0.34514 0.66644 0.0
C141 C 0.85239 0.39201 0.67032 0.0
C142 C 0.7947 0.3613 0.67981 0.0
C143 C 0.80715 0.3126 0.67838 0.0
O144 O 0.78257 0.24559 0.73249 0.0
O145 O 0.72293 0.25463 0.70759 0.0
O146 O 0.76621 0.30835 0.67679 0.0
O147 O 0.82592 0.29932 0.70165 0.0
H148 H 0.79106 0.23696 0.66075 0.0
H149 H 0.80067 0.19979 0.62402 0.0
H150 H 0.73057 0.14971 0.68836 0.0
H151 H 0.72099 0.18673 0.72501 0.0
H152 H 0.71891 0.26743 0.87162 0.0
H153 H 0.76058 0.27723 0.82355 0.0
H154 H 0.62331 0.3209 0.83827 0.0
H155 H 0.66502 0.33122 0.79056 0.0
H156 H 0.7889 0.40318 0.68201 0.0
H157 H 0.91184 0.37428 0.6588 0.0
H158 H 0.88507 0.32915 0.66223 0.0
H159 H 0.7621 0.35801 0.68621 0.0
C160 C 0.84605 0.73583 0.69141 0.0
C161 C 0.88229 0.72916 0.67457 0.0
C162 C 0.87384 0.68368 0.69112 0.0
C163 C 0.89609 0.70327 0.67441 0.0
C164 C 0.83699 0.69021 0.70743 0.0
C165 C 0.82333 0.71618 0.70776 0.0
U166 U 0.78804 0.78978 0.73366 0.0
O167 O 0.73719 0.76566 0.75408 0.0
O168 O 0.79328 0.77501 0.78354 0.0
C169 C 0.75515 0.76465 0.78284 0.0
C170 C 0.83342 0.76344 0.69299 0.0
C171 C 0.72754 0.77019 0.81043 0.0
C172 C 0.65846 0.76708 0.83497 0.0
C173 C 0.6847 0.7629 0.80883 0.0
C174 C 0.71742 0.78542 0.86534 0.0
C175 C 0.6746 0.77842 0.86331 0.0
C176 C 0.74374 0.78134 0.83909 0.0
C177 C 0.78493 0.86158 0.70318 0.0
C178 C 0.78511 0.88031 0.64905 0.0
C179 C 0.80561 0.90714 0.69473 0.0
C180 C 0.79889 0.8858 0.71542 0.0
C181 C 0.79817 0.90462 0.66147 0.0
C182 C 0.77865 0.85891 0.6697 0.0
C183 C 0.77457 0.84012 0.72594 0.0
O184 O 0.84994 0.77663 0.71727 0.0
O185 O 0.79303 0.7679 0.68841 0.0
O186 O 0.74852 0.8218 0.71533 0.0
O187 O 0.80601 0.83085 0.74343 0.0
H188 H 0.90028 0.74405 0.66194 0.0
H189 H 0.92455 0.69855 0.66166 0.0
H190 H 0.81943 0.67533 0.7204 0.0
H191 H 0.79539 0.72099 0.72111 0.0
H192 H 0.6255 0.76145 0.83312 0.0
H193 H 0.67143 0.75382 0.78739 0.0
H194 H 0.73035 0.79408 0.88716 0.0
H195 H 0.77672 0.78679 0.84136 0.0
H196 H 0.77931 0.87805 0.6234 0.0
H197 H 0.81567 0.92577 0.70469 0.0
H198 H 0.80377 0.88834 0.74113 0.0
H199 H 0.76798 0.84049 0.65953 0.0
C200 C 0.71865 0.25229 0.24489 0.0
C201 C 0.73095 0.27272 0.22404 0.0
C202 C 0.66986 0.2641 0.1896 0.0
C203 C 0.70686 0.27844 0.1964 0.0
C204 C 0.6578 0.2436 0.21031 0.0
C205 C 0.68206 0.23773 0.23775 0.0
U206 U 0.78759 0.27584 0.31432 0.0
O207 O 0.78618 0.26635 0.36616 0.0
O208 O 0.8428 0.25815 0.33831 0.0
C209 C 0.82309 0.25493 0.36577 0.0
C210 C 0.74254 0.2467 0.27478 0.0
C211 C 0.82449 0.22854 0.3806 0.0
C212 C 0.81736 0.20118 0.42844 0.0
C213 C 0.81725 0.22587 0.41376 0.0
C214 C 0.83268 0.18125 0.37714 0.0
C215 C 0.82493 0.17871 0.41026 0.0
C216 C 0.83221 0.206 0.36234 0.0
C217 C 0.81424 0.35015 0.31326 0.0
C218 C 0.87348 0.37334 0.33806 0.0
C219 C 0.81528 0.39772 0.31471 0.0
C220 C 0.79511 0.37422 0.30634 0.0
C221 C 0.85499 0.39741 0.33001 0.0
C222 C 0.85322 0.34981 0.32977 0.0
C223 C 0.79428 0.32602 0.30091 0.0
O224 O 0.78374 0.24917 0.27299 0.0
O225 O 0.72712 0.25704 0.30094 0.0
O226 O 0.76353 0.31601 0.31808 0.0
O227 O 0.81975 0.30828 0.28955 0.0
H228 H 0.75891 0.28437 0.22929 0.0
H229 H 0.71662 0.29427 0.1806 0.0
H230 H 0.62936 0.23232 0.20535 0.0
H231 H 0.67199 0.22202 0.25362 0.0
H232 H 0.81143 0.19956 0.45404 0.0
H233 H 0.81122 0.24293 0.4283 0.0
H234 H 0.83862 0.16409 0.36279 0.0
H235 H 0.83766 0.20746 0.33667 0.0
H236 H 0.90412 0.37281 0.34992 0.0
H237 H 0.80062 0.41613 0.30838 0.0
H238 H 0.76505 0.37485 0.2936 0.0
H239 H 0.86846 0.33144 0.33542 0.0
C240 C 0.17988 0.22423 0.66696 0.0
C241 C 0.18487 0.22128 0.63363 0.0
C242 C 0.1805 0.17395 0.63929 0.0
C243 C 0.18526 0.19637 0.61993 0.0
C244 C 0.175 0.17677 0.67261 0.0
C245 C 0.17497 0.20175 0.68641 0.0
U246 U 0.21641 0.27262 0.73165 0.0
O247 O 0.24044 0.31311 0.72696 0.0
O248 O 0.18418 0.30477 0.75564 0.0
C249 C 0.20977 0.32278 0.744 0.0
C250 C 0.18096 0.25084 0.68078 0.0
C251 C 0.19004 0.34679 0.73142 0.0
C252 C 0.13127 0.36958 0.7061 0.0
C253 C 0.15126 0.34618 0.71464 0.0
C254 C 0.18931 0.39437 0.72987 0.0
C255 C 0.14984 0.39378 0.71421 0.0
C256 C 0.20922 0.37101 0.73844 0.0
C257 C 0.28579 0.24996 0.80147 0.0
C258 C 0.29628 0.27443 0.85116 0.0
C259 C 0.34869 0.24334 0.83441 0.0
C260 C 0.32419 0.23732 0.80714 0.0
C261 C 0.33506 0.26205 0.85647 0.0
C262 C 0.27194 0.2686 0.82366 0.0
C263 C 0.26157 0.24421 0.77174 0.0
O264 O 0.16122 0.25403 0.70813 0.0
O265 O 0.2178 0.26283 0.68004 0.0
O266 O 0.27693 0.25469 0.74533 0.0
O267 O 0.22039 0.24619 0.77358 0.0
H268 H 0.18879 0.2383 0.6182 0.0
H269 H 0.18944 0.19455 0.59416 0.0
H270 H 0.17125 0.15965 0.68788 0.0
H271 H 0.17138 0.20345 0.71224 0.0
H272 H 0.10079 0.36883 0.69399 0.0
H273 H 0.13597 0.32769 0.70893 0.0
H274 H 0.20402 0.41288 0.73627 0.0
H275 H 0.23911 0.37186 0.75141 0.0
H276 H 0.28528 0.28886 0.86801 0.0
H277 H 0.37851 0.23356 0.83822 0.0
H278 H 0.33547 0.223 0.79025 0.0
H279 H 0.24255 0.27879 0.81961 0.0
C280 C 0.17 0.74007 0.35877 0.0
C281 C 0.19341 0.72041 0.34389 0.0
C282 C 0.14155 0.6877 0.35984 0.0
C283 C 0.17944 0.69435 0.34465 0.0
C284 C 0.11868 0.70725 0.37527 0.0
C285 C 0.13282 0.73326 0.37474 0.0
U286 U 0.22503 0.7936 0.31214 0.0
O287 O 0.20751 0.83437 0.30138 0.0
O288 O 0.26678 0.82604 0.32722 0.0
C289 C 0.24054 0.84408 0.31682 0.0
C290 C 0.18264 0.7678 0.35602 0.0
C291 C 0.23202 0.86532 0.33956 0.0
C292 C 0.21248 0.8805 0.39265 0.0
C293 C 0.21855 0.85999 0.37104 0.0
C294 C 0.23224 0.91188 0.35133 0.0
C295 C 0.21971 0.90655 0.38303 0.0
C296 C 0.23841 0.89138 0.32977 0.0
C297 C 0.27732 0.77235 0.23361 0.0
C298 C 0.33535 0.79435 0.20678 0.0
C299 C 0.29679 0.75947 0.17959 0.0
C300 C 0.27084 0.75661 0.20635 0.0
C301 C 0.32977 0.77798 0.17996 0.0
C302 C 0.3092 0.79162 0.23343 0.0
C303 C 0.2522 0.76733 0.26254 0.0
O304 O 0.22333 0.77267 0.35861 0.0
O305 O 0.16436 0.78067 0.33219 0.0
O306 O 0.21488 0.7782 0.26304 0.0
O307 O 0.2728 0.76894 0.29022 0.0
H308 H 0.22203 0.72529 0.33116 0.0
H309 H 0.19745 0.6795 0.33265 0.0
H310 H 0.08938 0.70243 0.38712 0.0
H311 H 0.11426 0.74814 0.38619 0.0
H312 H 0.20281 0.87607 0.41704 0.0
H313 H 0.21333 0.83999 0.37897 0.0
H314 H 0.23795 0.93186 0.34353 0.0
H315 H 0.24872 0.89585 0.30554 0.0
H316 H 0.36057 0.80881 0.20734 0.0
H317 H 0.29201 0.74678 0.159 0.0
H318 H 0.24632 0.74168 0.20609 0.0
H319 H 0.31454 0.80407 0.25417 0.0
H320 H 0.01098 0.44796 0.3563 0.0
H321 H 0.93853 0.51765 0.35353 0.0
H322 H 0.0731 0.52087 0.37549 0.0
H323 H 0.07095 0.56089 0.36015 0.0
H324 H -0.00242 0.63015 0.36429 0.0
H325 H 0.935 0.55619 0.37246 0.0
C326 C 0.00941 0.46902 0.35927 0.0
C327 C 0.04619 0.48335 0.36543 0.0
C328 C 0.97079 0.48145 0.35593 0.0
C329 C 0.96875 0.50879 0.35824 0.0
C330 C 0.00538 0.52407 0.36527 0.0
C331 C 0.04411 0.51062 0.36956 0.0
C332 C 0.00339 0.55368 0.36659 0.0
C333 C 0.04036 0.56941 0.3635 0.0
C334 C 0.03819 0.59685 0.36371 0.0
C335 C -0.00079 0.60895 0.36542 0.0
C336 C 0.96222 0.59423 0.36756 0.0
C337 C 0.96429 0.56679 0.36944 0.0
H338 H 0.01669 0.62596 0.6824 0.0
H339 H 0.07327 0.55181 0.666 0.0
H340 H 0.93994 0.55673 0.68703 0.0
H341 H 0.9362 0.51747 0.66477 0.0
H342 H -0.00383 0.44396 0.68228 0.0
H343 H 0.06907 0.51424 0.69149 0.0
C344 C 0.01374 0.60484 0.68053 0.0
C345 C 0.97423 0.59292 0.68361 0.0
C346 C 0.04947 0.58999 0.67502 0.0
C347 C 0.04538 0.56271 0.67179 0.0
C348 C 0.0062 0.54981 0.67685 0.0
C349 C 0.97052 0.56548 0.68268 0.0
C350 C 0.00324 0.52031 0.67735 0.0
C351 C 0.96451 0.50692 0.67116 0.0
C352 C 0.96198 0.47944 0.6735 0.0
C353 C -0.00185 0.46515 0.68063 0.0
C354 C 0.03662 0.4777 0.68638 0.0
C355 C 0.03917 0.50512 0.68526 0.0
H356 H 0.19876 0.12612 0.52469 0.0
H357 H 0.18712 0.05209 0.57205 0.0
H358 H 0.21858 0.05699 0.4703 0.0
H359 H 0.19919 1.01725 0.4665 0.0
H360 H 0.20897 0.94348 0.51441 0.0
H361 H 0.20912 1.01282 0.57122 0.0
C362 C 0.19982 0.10491 0.52363 0.0
C363 C 0.20774 0.09279 0.49443 0.0
C364 C 0.19353 0.0902 0.55154 0.0
C365 C 0.19392 0.06271 0.55013 0.0
C366 C 0.20269 0.04961 0.52084 0.0
C367 C 0.21033 0.0654 0.49312 0.0
C368 C 0.204 1.01995 0.51916 0.0
C369 C 0.20255 1.00678 0.48905 0.0
C370 C 0.20558 0.97941 0.48745 0.0
C371 C 0.20745 0.96466 0.51575 0.0
C372 C 0.20745 0.97678 0.54574 0.0
C373 C 0.20694 1.00425 0.54753 0.0
H374 H 0.49924 0.79837 0.13379 0.0
H375 H 0.56758 0.81132 0.0468 0.0
H376 H 0.43659 0.78626 0.04289 0.0
H377 H 0.43733 0.80928 0.99655 0.0
H378 H 0.50567 0.79824 0.90954 0.0
H379 H 0.56965 0.78897 1.00046 0.0
C380 C 0.50009 0.79851 0.10764 0.0
C381 C 0.46361 0.7925 0.08986 0.0
C382 C 0.53766 0.80468 0.09211 0.0
C383 C 0.53855 0.80545 0.05828 0.0
C384 C 0.50222 0.79884 0.03973 0.0
C385 C 0.46484 0.79206 0.05608 0.0
C386 C 0.50326 0.79888 1.00361 0.0
C387 C 0.46653 0.80426 0.98506 0.0
C388 C 0.46721 0.80343 0.95125 0.0
C389 C 0.50494 0.79835 0.93569 0.0
C390 C 0.54185 0.7937 0.95345 0.0
C391 C 0.54093 0.7935 0.98726 0.0
H392 H 0.80134 0.12921 0.52674 0.0
H393 H 0.7839 0.0576 0.57868 0.0
H394 H 0.82218 0.05693 0.47847 0.0
H395 H 0.79574 1.01748 0.47773 0.0
H396 H 0.80355 0.94645 0.53237 0.0
H397 H 0.81218 1.01932 0.58198 0.0
C398 C 0.80207 0.10798 0.52732 0.0
C399 C 0.81151 0.09431 0.49941 0.0
C400 C 0.79316 0.09469 0.55587 0.0
C401 C 0.79292 0.0672 0.55651 0.0
C402 C 0.8035 0.05264 0.52879 0.0
C403 C 0.81316 0.06682 0.50021 0.0
C404 C 0.80405 1.02303 0.52968 0.0
C405 C 0.80008 1.00815 0.50098 0.0
C406 C 0.80104 0.98065 0.50198 0.0
C407 C 0.80393 0.96769 0.5316 0.0
C408 C 0.80681 0.98168 0.56028 0.0
C409 C 0.80808 1.00917 0.55935 0.0
H410 H 0.50368 0.27057 0.13526 0.0
H411 H 0.57036 0.28404 0.04828 0.0
H412 H 0.435 0.2688 0.04633 0.0
H413 H 0.43405 0.27996 0.99765 0.0
H414 H 0.50218 0.27893 0.91 0.0
H415 H 0.57112 0.27622 0.9988 0.0
C416 C 0.50336 0.2725 0.10918 0.0
C417 C 0.46531 0.27063 0.09215 0.0
C418 C 0.54105 0.27652 0.09302 0.0
C419 C 0.54058 0.27969 0.05938 0.0
C420 C 0.50266 0.27671 0.04105 0.0
C421 C 0.46499 0.2719 0.05833 0.0
C422 C 0.50259 0.27796 1.00448 0.0
C423 C 0.46433 0.27899 0.98631 0.0
C424 C 0.46424 0.27827 0.95248 0.0
C425 C 0.5023 0.2788 0.93617 0.0
C426 C 0.54052 0.27898 0.95316 0.0
C427 C 0.54074 0.27759 0.98698 0.0
C428 C 0.13965 0.44736 0.33235 0.0
C429 C 0.14264 0.42724 0.35595 0.0
C430 C 0.09599 0.4517 0.39117 0.0
C431 C 0.08666 0.4689 0.36515 0.0
N432 N 0.09965 0.48392 0.31096 0.0
N433 N 0.12594 0.41026 0.40855 0.0
C434 C 0.1093 0.46738 0.33598 0.0
C435 C 0.12208 0.42967 0.3859 0.0
N436 N 0.16559 0.44707 0.30635 0.0
N437 N 0.0792 0.45644 0.42067 0.0
H438 H 0.14597 0.3944 0.40576 0.0
H439 H 0.10818 0.40921 0.4294 0.0
H440 H 0.06013 0.47257 0.42477 0.0
H441 H 0.08688 0.44594 0.44148 0.0
H442 H 0.16788 0.46238 0.28977 0.0
H443 H 0.18769 0.43242 0.30288 0.0
H444 H 0.11081 0.48169 0.28769 0.0
H445 H 0.07865 0.49935 0.31307 0.0
C446 C 0.13426 0.63928 0.65079 0.0
C447 C 0.15631 0.64098 0.68067 0.0
C448 C 0.12132 0.60085 0.69879 0.0
C449 C 0.09104 0.60374 0.67345 0.0
N450 N 0.07237 0.62309 0.62196 0.0
N451 N 0.19317 0.61059 0.7151 0.0
C452 C 0.09896 0.62195 0.64811 0.0
C453 C 0.15695 0.61781 0.69956 0.0
N454 N 0.15078 0.65096 0.62412 0.0
N455 N 0.11517 0.58326 0.72323 0.0
H456 H 0.22109 0.62136 0.71244 0.0
H457 H 0.19647 0.59264 0.72694 0.0
H458 H 0.08924 0.57063 0.7242 0.0
H459 H 0.13465 0.58266 0.7437 0.0
H460 H 0.13812 0.64865 0.60097 0.0
H461 H 0.18055 0.65988 0.62493 0.0
H462 H 0.07381 0.63802 0.60476 0.0
H463 H 0.04792 0.60957 0.61827 0.0
C464 C 0.88373 0.64628 0.38638 0.0
C465 C 0.86546 0.65031 0.35534 0.0
C466 C 0.90147 0.61174 0.33488 0.0
C467 C 0.92169 0.6086 0.36541 0.0
N468 N 0.92443 0.61782 0.42208 0.0
N469 N 0.84714 0.63332 0.3029 0.0
C470 C 0.90991 0.62417 0.39188 0.0
C471 C 0.87092 0.63168 0.3306 0.0
N472 N 0.87758 0.66427 0.41005 0.0
N473 N 0.91363 0.59688 0.30942 0.0
H474 H 0.82505 0.648 0.29888 0.0
H475 H 0.84656 0.61898 0.28518 0.0
H476 H 0.93488 0.58155 0.31181 0.0
H477 H 0.90435 0.60048 0.28564 0.0
H478 H 0.89367 0.66424 0.4321 0.0
H479 H 0.85736 0.6801 0.40703 0.0
H480 H 0.91485 0.62702 0.44299 0.0
H481 H 0.94353 0.60161 0.42636 0.0
C482 C 0.88268 0.43058 0.64039 0.0
C483 C 0.87016 0.41914 0.67007 0.0
C484 C 0.90199 0.45621 0.69918 0.0
C485 C 0.92175 0.46442 0.67042 0.0
N486 N 0.93009 0.46085 0.61317 0.0
N487 N 0.86824 0.42066 0.72824 0.0
C488 C 0.91111 0.45234 0.64071 0.0
C489 C 0.87903 0.43216 0.69963 0.0
N490 N 0.8674 0.42049 0.61206 0.0
N491 N 0.90637 0.47119 0.72621 0.0
H492 H 0.85151 0.40305 0.72972 0.0
H493 H 0.87824 0.42763 0.75064 0.0
H494 H 0.92344 0.48876 0.72629 0.0
H495 H 0.88999 0.46762 0.74737 0.0
H496 H 0.87248 0.4291 0.58962 0.0
H497 H 0.84643 0.40462 0.61131 0.0
H498 H 0.92795 0.45104 0.59128 0.0
H499 H 0.94949 0.47748 0.61268 0.0
C500 C 0.17898 0.1376 0.42445 0.0
C501 C 0.21431 0.1548 0.42584 0.0
C502 C 0.2509 0.1243 0.46229 0.0
C503 C 0.21285 0.10985 0.46554 0.0
N504 N 0.14053 0.10185 0.44975 0.0
N505 N 0.28445 0.16496 0.44553 0.0
C506 C 0.17705 0.11591 0.4461 0.0
C507 C 0.25083 0.14802 0.44412 0.0
N508 N 0.14735 0.14214 0.40244 0.0
N509 N 0.28682 0.11533 0.47699 0.0
H510 H 0.28586 0.18221 0.43201 0.0
H511 H 0.31 0.16271 0.4613 0.0
H512 H 0.28732 0.09799 0.49043 0.0
H513 H 0.31654 0.12361 0.47358 0.0
H514 H 0.12245 0.12916 0.39809 0.0
H515 H 0.14799 0.15798 0.38644 0.0
H516 H 0.11176 0.10721 0.43943 0.0
H517 H 0.13856 0.08528 0.46448 0.0
C518 C 0.36456 0.79213 0.90421 0.0
C519 C 0.36696 0.81332 0.88202 0.0
C520 C 0.42692 0.83167 0.91258 0.0
C521 C 0.42887 0.80837 0.9312 0.0
N522 N 0.40137 0.76537 0.9438 0.0
N523 N 0.40291 0.85225 0.863 0.0
C524 C 0.39784 0.78841 0.9271 0.0
C525 C 0.39848 0.83306 0.88586 0.0
N526 N 0.33023 0.77574 0.90351 0.0
N527 N 0.45238 0.85246 0.92055 0.0
H528 H 0.3831 0.85391 0.84283 0.0
H529 H 0.42831 0.86532 0.8626 0.0
H530 H 0.47348 0.85197 0.9401 0.0
H531 H 0.44972 0.87088 0.90986 0.0
H532 H 0.32462 0.76144 0.92097 0.0
H533 H 0.3053 0.77806 0.88707 0.0
H534 H 0.3827 0.74893 0.93901 0.0
H535 H 0.4249 0.76203 0.96112 0.0
C536 C 0.76149 0.92786 0.44611 0.0
C537 C 0.79954 0.92087 0.43093 0.0
C538 C 0.83637 0.95803 0.45628 0.0
C539 C 0.79874 0.96438 0.47239 0.0
N540 N 0.72353 0.96036 0.47647 0.0
N541 N 0.86963 0.93273 0.41448 0.0
C542 C 0.76054 0.95098 0.46501 0.0
C543 C 0.83582 0.93722 0.43363 0.0
N544 N 0.72706 0.91161 0.444 0.0
N545 N 0.87306 0.97094 0.46401 0.0
H546 H 0.86998 0.91756 0.39776 0.0
H547 H 0.89564 0.94525 0.41307 0.0
H548 H 0.87422 0.98689 0.4796 0.0
H549 H 0.90257 0.96517 0.45628 0.0
H550 H 0.70003 0.91393 0.45756 0.0
H551 H 0.72632 0.89473 0.43 0.0
H552 H 0.69398 0.95295 0.46984 0.0
H553 H 0.72229 0.97725 0.49043 0.0
C554 C 0.63657 0.30693 0.91048 0.0
C555 C 0.64188 0.28732 0.8869 0.0
C556 C 0.59102 0.25916 0.91485 0.0
C557 C 0.58016 0.28055 0.93454 0.0
N558 N 0.5907 0.3256 0.95019 0.0
N559 N 0.62248 0.2451 0.86511 0.0
C560 C 0.60287 0.30457 0.93252 0.0
C561 C 0.61914 0.2633 0.88892 0.0
N562 N 0.66394 0.32775 0.9118 0.0
N563 N 0.57424 0.23494 0.92102 0.0
H564 H 0.64271 0.24734 0.84569 0.0
H565 H 0.60301 0.22863 0.86331 0.0
H566 H 0.55368 0.23142 0.94002 0.0
H567 H 0.58374 0.21802 0.90945 0.0
H568 H 0.66424 0.34143 0.9303 0.0
H569 H 0.68906 0.32991 0.896 0.0
H570 H 0.60272 0.34444 0.94678 0.0
H571 H 0.56646 0.32468 0.96684 0.0
C572 C 0.24386 0.9231 0.60171 0.0
C573 C 0.2049 0.91501 0.61518 0.0
C574 C 0.16926 0.95211 0.5892 0.0
C575 C 0.2079 0.95966 0.5749 0.0
N576 N 0.28341 0.95716 0.57385 0.0
N577 N 0.13354 0.92512 0.62898 0.0
C578 C 0.24577 0.94677 0.58349 0.0
C579 C 0.16857 0.93072 0.61135 0.0
N580 N 0.27836 0.90743 0.60478 0.0
N581 N 0.13288 0.96443 0.58018 0.0
H582 H 0.13223 0.90951 0.6453 0.0
H583 H 0.10729 0.93714 0.62963 0.0
H584 H 0.13245 0.98073 0.5649 0.0
H585 H 0.10296 0.95782 0.58649 0.0
H586 H 0.30625 0.91063 0.5924 0.0
H587 H 0.27838 0.89016 0.6183 0.0
H588 H 0.31258 0.95012 0.5815 0.0
H589 H 0.28535 0.97448 0.56043 0.0
C590 C 0.63837 0.79477 0.14155 0.0
C591 C 0.63568 0.8164 0.16265 0.0
C592 C 0.57758 0.83405 0.1298 0.0
C593 C 0.57571 0.81036 0.11226 0.0
N594 N 0.60262 0.76729 0.10206 0.0
N595 N 0.6006 0.85586 0.17873 0.0
C596 C 0.60603 0.79058 0.11796 0.0
C597 C 0.60508 0.83608 0.15704 0.0
N598 N 0.67208 0.7784 0.14396 0.0
N599 N 0.55287 0.85453 0.12032 0.0
H600 H 0.61987 0.85804 0.19914 0.0
H601 H 0.57574 0.86899 0.17789 0.0
H602 H 0.53243 0.8535 0.10039 0.0
H603 H 0.55553 0.87318 0.13016 0.0
H604 H 0.67802 0.76374 0.12736 0.0
H605 H 0.69629 0.78103 0.16098 0.0
H606 H 0.62055 0.75096 0.108 0.0
H607 H 0.57995 0.7637 0.08412 0.0
C608 C 0.81016 0.13612 0.63105 0.0
C609 C 0.77147 0.14978 0.63117 0.0
C610 C 0.74363 0.12154 0.588 0.0
C611 C 0.7841 0.11043 0.58494 0.0
N612 N 0.85687 0.10764 0.60197 0.0
N613 N 0.70191 0.15699 0.60882 0.0
C614 C 0.81756 0.11763 0.60629 0.0
C615 C 0.73812 0.14271 0.6096 0.0
N616 N 0.83953 0.14058 0.65491 0.0
N617 N 0.71053 0.11168 0.57024 0.0
H618 H 0.69651 0.17242 0.62452 0.0
H619 H 0.67835 0.15481 0.59128 0.0
H620 H 0.71381 0.09626 0.55412 0.0
H621 H 0.67935 0.1171 0.57342 0.0
H622 H 0.86652 0.12941 0.65818 0.0
H623 H 0.83528 0.15419 0.67318 0.0
H624 H 0.88379 0.1145 0.61399 0.0
H625 H 0.86309 0.09334 0.5849 0.0
C626 C 0.36815 0.28564 0.14102 0.0
C627 C 0.36628 0.26255 0.16013 0.0
C628 C 0.41893 0.24225 0.12593 0.0
C629 C 0.4261 0.26677 0.11077 0.0
N630 N 0.40892 0.31234 0.10406 0.0
N631 N 0.39159 0.21914 0.17239 0.0
C632 C 0.40061 0.28855 0.11796 0.0
C633 C 0.39164 0.24072 0.15272 0.0
N634 N 0.33871 0.30464 0.14489 0.0
N635 N 0.43854 0.22053 0.11468 0.0
H636 H 0.37218 0.21718 0.19233 0.0
H637 H 0.41298 0.20395 0.17041 0.0
H638 H 0.45872 0.22123 0.09504 0.0
H639 H 0.43178 0.20161 0.12268 0.0
H640 H 0.33588 0.32085 0.12971 0.0
H641 H 0.31455 0.30296 0.1616 0.0
H642 H 0.39498 0.32967 0.11125 0.0
H643 H 0.4317 0.31507 0.08646 0.0
C644 C 0.88774 0.64118 0.66356 0.0
C645 C 0.89033 0.65653 0.69191 0.0
C646 C 0.93329 0.62274 0.71826 0.0
C647 C 0.93751 0.61026 0.68813 0.0
N648 N 0.9187 0.60679 0.63184 0.0
N649 N 0.91597 0.66248 0.74651 0.0
C650 C 0.91399 0.61892 0.66081 0.0
C651 C 0.9125 0.64722 0.71963 0.0
N652 N 0.86017 0.64799 0.63938 0.0
N653 N 0.94991 0.61124 0.74535 0.0
H654 H 0.90107 0.68046 0.74857 0.0
H655 H 0.93576 0.65818 0.76604 0.0
H656 H 0.96534 0.59331 0.74466 0.0
H657 H 0.94502 0.61805 0.76858 0.0
H658 H 0.85394 0.63641 0.61927 0.0
H659 H 0.8406 0.66421 0.64088 0.0
H660 H 0.90673 0.61409 0.61011 0.0
H661 H 0.93645 0.58989 0.62931 0.0
C662 C 0.88107 0.43268 0.36742 0.0
C663 C 0.87865 0.42221 0.33585 0.0
C664 C 0.92547 0.45718 0.31633 0.0
C665 C 0.93309 0.46496 0.34862 0.0
N666 N 0.91912 0.46063 0.4053 0.0
N667 N 0.89966 0.42336 0.28015 0.0
C668 C 0.91066 0.4531 0.37428 0.0
C669 C 0.90064 0.4344 0.31011 0.0
N670 N 0.85482 0.42317 0.39066 0.0
N671 N 0.94236 0.47157 0.29171 0.0
H672 H 0.88161 0.4068 0.27449 0.0
H673 H 0.91887 0.42947 0.26136 0.0
H674 H 0.96102 0.4882 0.2957 0.0
H675 H 0.93491 0.46852 0.26748 0.0
H676 H 0.85212 0.4315 0.41336 0.0
H677 H 0.83304 0.40811 0.38632 0.0
H678 H 0.90793 0.4507 0.42547 0.0
H679 H 0.93917 0.47632 0.41094 0.0
C680 C 0.10356 0.42994 0.73333 0.0
C681 C 0.12655 0.41843 0.70804 0.0
C682 C 0.09701 0.45001 0.66931 0.0
C683 C 0.07355 0.46118 0.69451 0.0
N684 N 0.06137 0.46634 0.75118 0.0
N685 N 0.15286 0.42063 0.65393 0.0
C686 C 0.07936 0.45268 0.72683 0.0
C687 C 0.12579 0.42955 0.67661 0.0
N688 N 0.10312 0.4183 0.76313 0.0
N689 N 0.09029 0.45825 0.63825 0.0
H690 H 0.174 0.40551 0.65856 0.0
H691 H 0.15682 0.42944 0.63148 0.0
H692 H 0.07097 0.47403 0.63236 0.0
H693 H 0.10223 0.44885 0.61822 0.0
H694 H 0.08319 0.42385 0.78151 0.0
H695 H 0.1208 0.40181 0.769 0.0
H696 H 0.06748 0.46278 0.77553 0.0
H697 H 0.04309 0.4829 0.74698 0.0
C698 C 0.1041 0.65125 0.3301 0.0
C699 C 0.12434 0.66053 0.35867 0.0
C700 C 0.09761 0.62262 0.3889 0.0
C701 C 0.07596 0.61405 0.36069 0.0
N702 N 0.06801 0.6152 0.30305 0.0
N703 N 0.1502 0.65194 0.41253 0.0
C704 C 0.08279 0.62666 0.33072 0.0
C705 C 0.12444 0.64506 0.3872 0.0
N706 N 0.10281 0.66667 0.30304 0.0
N707 N 0.09058 0.61016 0.4176 0.0
H708 H 0.17016 0.6683 0.41178 0.0
H709 H 0.15457 0.64034 0.43301 0.0
H710 H 0.07246 0.59306 0.41929 0.0
H711 H 0.10111 0.61727 0.4398 0.0
H712 H 0.08439 0.66234 0.28274 0.0
H713 H 0.118 0.68481 0.30151 0.0
H714 H 0.07489 0.62213 0.28004 0.0
H715 H 0.05212 0.59721 0.30317 0.0
C716 C 0.84133 0.93287 0.6242 0.0
C717 C 0.80241 0.92761 0.63951 0.0
C718 C 0.76797 0.96161 0.60675 0.0
C719 C 0.80675 0.96665 0.59114 0.0
N720 N 0.88189 0.96162 0.58914 0.0
N721 N 0.7313 0.94038 0.65088 0.0
C722 C 0.84402 0.95374 0.60135 0.0
C723 C 0.76659 0.9432 0.63261 0.0
N724 N 0.8752 0.91727 0.63068 0.0
N725 N 0.73202 0.9734 0.59566 0.0
H726 H 0.72884 0.92663 0.66948 0.0
H727 H 0.70573 0.95294 0.64941 0.0
H728 H 0.73197 0.98763 0.57752 0.0
H729 H 0.7019 0.96813 0.60309 0.0
H730 H 0.90306 0.91802 0.61779 0.0
H731 H 0.87468 0.90242 0.64806 0.0
H732 H 0.91086 0.95472 0.59742 0.0
H733 H 0.88454 0.97686 0.57239 0.0
C734 C 0.61718 0.29282 0.16073 0.0
C735 C 0.6431 0.27034 0.16093 0.0
C736 C 0.60687 0.25395 0.11243 0.0
C737 C 0.58095 0.27643 0.11224 0.0
N738 N 0.56868 0.32028 0.1303 0.0
N739 N 0.67086 0.23355 0.13248 0.0
C740 C 0.58875 0.29695 0.13443 0.0
C741 C 0.64068 0.25226 0.13517 0.0
N742 N 0.61786 0.30937 0.18651 0.0
N743 N 0.59766 0.23351 0.09234 0.0
H744 H 0.69611 0.23193 0.14877 0.0
H745 H 0.67314 0.22138 0.11255 0.0
H746 H 0.5734 0.23394 0.07512 0.0
H747 H 0.61222 0.21538 0.0942 0.0
H748 H 0.59625 0.32433 0.18938 0.0
H749 H 0.63812 0.30704 0.20632 0.0
H750 H 0.57573 0.33685 0.14391 0.0
H751 H 0.54779 0.32373 0.11109 0.0
C752 C 0.14462 0.1375 0.60863 0.0
C753 C 0.18149 0.14766 0.62406 0.0
C754 C 0.22418 0.11368 0.59935 0.0
C755 C 0.1879 0.10479 0.58207 0.0
N756 N 0.11264 0.10313 0.57566 0.0
N757 N 0.25388 0.14214 0.64079 0.0
C758 C 0.14766 0.11496 0.58878 0.0
C759 C 0.22045 0.13448 0.62178 0.0
N760 N 0.10719 0.15014 0.61193 0.0
N761 N 0.26254 0.10319 0.59275 0.0
H762 H 0.25234 0.15772 0.65684 0.0
H763 H 0.28209 0.13202 0.64256 0.0
H764 H 0.26585 0.08714 0.5776 0.0
H765 H 0.29115 0.11077 0.60121 0.0
H766 H 0.07998 0.14572 0.59866 0.0
H767 H 0.10367 0.16595 0.62742 0.0
H768 H 0.08189 0.10815 0.58112 0.0
H769 H 0.1145 0.08663 0.56107 0.0
C770 C 0.35909 0.80164 0.13197 0.0
C771 C 0.35991 0.77963 0.15296 0.0
C772 C 0.42109 0.76267 0.12478 0.0
C773 C 0.4243 0.7866 0.10755 0.0
N774 N 0.39825 0.82984 0.09567 0.0
N775 N 0.39365 0.74003 0.17155 0.0
C776 C 0.39349 0.80627 0.11104 0.0
C777 C 0.39112 0.76015 0.14972 0.0
N778 N 0.3252 0.81793 0.13189 0.0
N779 N 0.44678 0.74239 0.11718 0.0
H780 H 0.37248 0.73747 0.19031 0.0
H781 H 0.41862 0.72699 0.17264 0.0
H782 H 0.46904 0.74376 0.09895 0.0
H783 H 0.44337 0.72359 0.12669 0.0
H784 H 0.32075 0.83286 0.11502 0.0
H785 H 0.29952 0.81501 0.14697 0.0
H786 H 0.37974 0.84604 0.10032 0.0
H787 H 0.42254 0.83379 0.07965 0.0
C788 C 0.86085 0.14407 0.44375 0.0
C789 C 0.82448 0.15264 0.4265 0.0
C790 C 0.78231 0.11729 0.45058 0.0
C791 C 0.81799 0.1098 0.46937 0.0
N792 N 0.89282 0.11118 0.47883 0.0
N793 N 0.75368 0.14428 0.4072 0.0
C794 C 0.85794 0.12155 0.46407 0.0
C795 C 0.78624 0.13804 0.42771 0.0
N796 N 0.89758 0.15817 0.44164 0.0
N797 N 0.74419 0.10546 0.45603 0.0
H798 H 0.75529 0.15977 0.39077 0.0
H799 H 0.7263 0.13305 0.40462 0.0
H800 H 0.74077 0.08943 0.47151 0.0
H801 H 0.71573 0.112 0.44634 0.0
H802 H 0.92404 0.15495 0.45619 0.0
H803 H 0.90115 0.17401 0.42587 0.0
H804 H 0.92353 0.11736 0.47438 0.0
H805 H 0.89114 0.09473 0.49383 0.0
C806 C 0.38465 0.29256 0.88634 0.0
C807 C 0.362 0.26846 0.88502 0.0
C808 C 0.4021 0.25201 0.93168 0.0
C809 C 0.42447 0.2762 0.93321 0.0
N810 N 0.42952 0.32164 0.91807 0.0
N811 N 0.34061 0.22844 0.91136 0.0
C812 C 0.41304 0.29724 0.91255 0.0
C813 C 0.36789 0.24925 0.90943 0.0
N814 N 0.38099 0.3103 0.86167 0.0
N815 N 0.41507 0.23116 0.94996 0.0
H816 H 0.3151 0.22599 0.89545 0.0
H817 H 0.34081 0.21512 0.93047 0.0
H818 H 0.43995 0.23222 0.96661 0.0
H819 H 0.40315 0.21225 0.94693 0.0
H820 H 0.40035 0.32678 0.85954 0.0
H821 H 0.36074 0.30761 0.84192 0.0
H822 H 0.41958 0.33832 0.90569 0.0
H823 H 0.45024 0.32556 0.93728 0.0
C824 C 0.17529 0.93696 0.41537 0.0
C825 C 0.21582 0.92816 0.40667 0.0
C826 C 0.24874 0.95933 0.44441 0.0
C827 C 0.20834 0.96536 0.45627 0.0
N828 N 0.13294 0.95973 0.45439 0.0
N829 N 0.29137 0.92925 0.41426 0.0
C830 C 0.17146 0.95433 0.44187 0.0
C831 C 0.25269 0.93912 0.42127 0.0
N832 N 0.14062 0.92897 0.39795 0.0
N833 N 0.28331 0.97295 0.45545 0.0
H834 H 0.29569 0.91455 0.39734 0.0
H835 H 0.31895 0.9342 0.4268 0.0
H836 H 0.28148 0.98761 0.47275 0.0
H837 H 0.31313 0.97142 0.44556 0.0
H838 H 0.11064 0.93656 0.40095 0.0
H839 H 0.14242 0.91615 0.37855 0.0
H840 H 0.10524 0.94994 0.44776 0.0
H841 H 0.12897 0.97328 0.47278 0.0
C842 C 0.63074 0.80849 0.89644 0.0
C843 C 0.64601 0.78297 0.89068 0.0
C844 C 0.59667 0.76453 0.92993 0.0
C845 C 0.58164 0.79007 0.93577 0.0
N846 N 0.59074 0.83676 0.93109 0.0
N847 N 0.65122 0.73777 0.90695 0.0
C848 C 0.60095 0.8122 0.92117 0.0
C849 C 0.63145 0.76131 0.90914 0.0
N850 N 0.64296 0.82892 0.87715 0.0
N851 N 0.57645 0.74332 0.943 0.0
H852 H 0.67682 0.73485 0.89194 0.0
H853 H 0.64481 0.72187 0.92197 0.0
H854 H 0.55152 0.74499 0.95894 0.0
H855 H 0.5826 0.72409 0.9366 0.0
H856 H 0.62914 0.84729 0.87763 0.0
H857 H 0.66496 0.82708 0.8589 0.0
H858 H 0.60656 0.85365 0.92367 0.0
H859 H 0.56891 0.84007 0.94916 0.0
loop_
_geom_bond_atom_site_label_1
_geom_bond_atom_site_label_2
_geom_bond_distance
_geom_bond_site_symmetry_2
_ccdc_geom_bond_type
C0 C1 1.264 . S
C0 C5 1.479 . S
C0 C10 1.465 . S
C1 C0 1.264 . S
C1 C3 1.339 . S
C1 H28 0.931 . S
C2 C3 1.395 . S
C2 C4 1.320 . S
C3 C1 1.339 . S
C3 C2 1.395 . S
C3 H29 0.929 . S
C4 C2 1.320 . S
C4 C5 1.405 . S
C4 H30 0.930 . S
C5 C0 1.479 . S
C5 C4 1.405 . S
C5 H31 0.931 . S
U6 O7 2.454 . S
U6 O8 2.458 . S
U6 C9 2.984 . S
U6 C10 2.847 . S
U6 C23 2.882 . S
U6 O24 2.441 . S
U6 O25 2.420 . S
U6 O26 2.455 . S
U6 O27 2.449 . S
O7 U6 2.454 . S
O7 C9 1.353 . S
O8 U6 2.458 . S
O8 C9 1.286 . S
C9 U6 2.984 . S
C9 O7 1.353 . S
C9 O8 1.286 . S
C9 C11 1.363 . S
C10 C0 1.465 . S
C10 U6 2.847 . S
C10 O24 1.249 . S
C10 O25 1.202 . S
C11 C9 1.363 . S
C11 C13 1.408 . S
C11 C16 1.342 . S
C12 C13 1.310 . S
C12 C15 1.461 . S
C12 H32 0.932 . S
C13 C11 1.408 . S
C13 C12 1.310 . S
C13 H33 0.930 . S
C14 C15 1.474 . S
C14 C16 1.285 . S
C14 H34 0.929 . S
C15 C12 1.461 . S
C15 C14 1.474 . S
C16 C11 1.342 . S
C16 C14 1.285 . S
C16 H35 0.930 . S
C17 C20 1.424 . S
C17 C22 1.245 . S
C17 C23 1.428 . S
C18 C21 1.260 . S
C18 C22 1.477 . S
C18 H36 0.932 . S
C19 C20 1.384 . S
C19 C21 1.479 . S
C19 H37 0.929 . S
C20 C17 1.424 . S
C20 C19 1.384 . S
C20 H38 0.928 . S
C21 C18 1.260 . S
C21 C19 1.479 . S
C22 C17 1.245 . S
C22 C18 1.477 . S
C22 H39 0.932 . S
C23 U6 2.882 . S
C23 C17 1.428 . S
C23 O26 1.301 . S
C23 O27 1.282 . S
O24 U6 2.441 . S
O24 C10 1.249 . S
O25 U6 2.420 . S
O25 C10 1.202 . S
O26 U6 2.455 . S
O26 C23 1.301 . S
O27 U6 2.449 . S
O27 C23 1.282 . S
H28 C1 0.931 . S
H29 C3 0.929 . S
H30 C4 0.930 . S
H31 C5 0.931 . S
H32 C12 0.932 . S
H33 C13 0.930 . S
H34 C14 0.929 . S
H35 C16 0.930 . S
H36 C18 0.932 . S
H37 C19 0.929 . S
H38 C20 0.928 . S
H39 C22 0.932 . S
C40 C41 1.264 . S
C40 C45 1.479 . S
C40 C50 1.465 . S
C41 C40 1.264 . S
C41 C43 1.339 . S
C41 H68 0.931 . S
C42 C43 1.395 . S
C42 C44 1.320 . S
C43 C41 1.339 . S
C43 C42 1.395 . S
C43 H69 0.929 . S
C44 C42 1.320 . S
C44 C45 1.405 . S
C44 H70 0.930 . S
C45 C40 1.479 . S
C45 C44 1.405 . S
C45 H71 0.931 . S
U46 O47 2.454 . S
U46 O48 2.458 . S
U46 C49 2.984 . S
U46 C50 2.847 . S
U46 C63 2.882 . S
U46 O64 2.441 . S
U46 O65 2.420 . S
U46 O66 2.455 . S
U46 O67 2.449 . S
O47 U46 2.454 . S
O47 C49 1.353 . S
O48 U46 2.458 . S
O48 C49 1.286 . S
C49 U46 2.984 . S
C49 O47 1.353 . S
C49 O48 1.286 . S
C49 C51 1.363 . S
C50 C40 1.465 . S
C50 U46 2.847 . S
C50 O64 1.249 . S
C50 O65 1.202 . S
C51 C49 1.363 . S
C51 C53 1.408 . S
C51 C56 1.342 . S
C52 C53 1.310 . S
C52 C55 1.461 . S
C52 H72 0.932 . S
C53 C51 1.408 . S
C53 C52 1.310 . S
C53 H73 0.930 . S
C54 C55 1.474 . S
C54 C56 1.285 . S
C54 H74 0.929 . S
C55 C52 1.461 . S
C55 C54 1.474 . S
C56 C51 1.342 . S
C56 C54 1.285 . S
C56 H75 0.930 . S
C57 C60 1.424 . S
C57 C62 1.245 . S
C57 C63 1.428 . S
C58 C61 1.260 . S
C58 C62 1.477 . S
C58 H76 0.932 . S
C59 C60 1.384 . S
C59 C61 1.479 . S
C59 H77 0.929 . S
C60 C57 1.424 . S
C60 C59 1.384 . S
C60 H78 0.928 . S
C61 C58 1.260 . S
C61 C59 1.479 . S
C62 C57 1.245 . S
C62 C58 1.477 . S
C62 H79 0.932 . S
C63 U46 2.882 . S
C63 C57 1.428 . S
C63 O66 1.301 . S
C63 O67 1.282 . S
O64 U46 2.441 . S
O64 C50 1.249 . S
O65 U46 2.420 . S
O65 C50 1.202 . S
O66 U46 2.455 . S
O66 C63 1.301 . S
O67 U46 2.449 . S
O67 C63 1.282 . S
H68 C41 0.931 . S
H69 C43 0.929 . S
H70 C44 0.930 . S
H71 C45 0.931 . S
H72 C52 0.932 . S
H73 C53 0.930 . S
H74 C54 0.929 . S
H75 C56 0.930 . S
H76 C58 0.932 . S
H77 C59 0.929 . S
H78 C60 0.928 . S
H79 C62 0.932 . S
C80 C81 1.264 . S
C80 C85 1.479 . S
C80 C90 1.465 . S
C81 C80 1.264 . S
C81 C83 1.339 . S
C81 H108 0.931 . S
C82 C83 1.395 . S
C82 C84 1.320 . S
C83 C81 1.339 . S
C83 C82 1.395 . S
C83 H109 0.929 . S
C84 C82 1.320 . S
C84 C85 1.405 . S
C84 H110 0.930 . S
C85 C80 1.479 . S
C85 C84 1.405 . S
C85 H111 0.931 . S
U86 O87 2.454 . S
U86 O88 2.458 . S
U86 C89 2.984 . S
U86 C90 2.847 . S
U86 C103 2.882 . S
U86 O104 2.441 . S
U86 O105 2.420 . S
U86 O106 2.455 . S
U86 O107 2.449 . S
O87 U86 2.454 . S
O87 C89 1.353 . S
O88 U86 2.458 . S
O88 C89 1.286 . S
C89 U86 2.984 . S
C89 O87 1.353 . S
C89 O88 1.286 . S
C89 C91 1.363 . S
C90 C80 1.465 . S
C90 U86 2.847 . S
C90 O104 1.249 . S
C90 O105 1.202 . S
C91 C89 1.363 . S
C91 C93 1.408 . S
C91 C96 1.342 . S
C92 C93 1.310 . S
C92 C95 1.461 . S
C92 H112 0.932 . S
C93 C91 1.408 . S
C93 C92 1.310 . S
C93 H113 0.930 . S
C94 C95 1.474 . S
C94 C96 1.285 . S
C94 H114 0.929 . S
C95 C92 1.461 . S
C95 C94 1.474 . S
C96 C91 1.342 . S
C96 C94 1.285 . S
C96 H115 0.930 . S
C97 C100 1.424 . S
C97 C102 1.245 . S
C97 C103 1.428 . S
C98 C101 1.260 . S
C98 C102 1.477 . S
C98 H116 0.932 . S
C99 C100 1.384 . S
C99 C101 1.479 . S
C99 H117 0.929 . S
C100 C97 1.424 . S
C100 C99 1.384 . S
C100 H118 0.928 . S
C101 C98 1.260 . S
C101 C99 1.479 . S
C102 C97 1.245 . S
C102 C98 1.477 . S
C102 H119 0.932 . S
C103 U86 2.882 . S
C103 C97 1.428 . S
C103 O106 1.301 . S
C103 O107 1.282 . S
O104 U86 2.441 . S
O104 C90 1.249 . S
O105 U86 2.420 . S
O105 C90 1.202 . S
O106 U86 2.455 . S
O106 C103 1.301 . S
O107 U86 2.449 . S
O107 C103 1.282 . S
H108 C81 0.931 . S
H109 C83 0.929 . S
H110 C84 0.930 . S
H111 C85 0.931 . S
H112 C92 0.932 . S
H113 C93 0.930 . S
H114 C94 0.929 . S
H115 C96 0.930 . S
H116 C98 0.932 . S
H117 C99 0.929 . S
H118 C100 0.928 . S
H119 C102 0.932 . S
C120 C121 1.264 . S
C120 C125 1.479 . S
C120 C130 1.465 . S
C121 C120 1.264 . S
C121 C123 1.339 . S
C121 H148 0.931 . S
C122 C123 1.395 . S
C122 C124 1.320 . S
C123 C121 1.339 . S
C123 C122 1.395 . S
C123 H149 0.929 . S
C124 C122 1.320 . S
C124 C125 1.405 . S
C124 H150 0.930 . S
C125 C120 1.479 . S
C125 C124 1.405 . S
C125 H151 0.931 . S
U126 O127 2.454 . S
U126 O128 2.458 . S
U126 C129 2.984 . S
U126 C130 2.847 . S
U126 C143 2.882 . S
U126 O144 2.441 . S
U126 O145 2.420 . S
U126 O146 2.455 . S
U126 O147 2.449 . S
O127 U126 2.454 . S
O127 C129 1.353 . S
O128 U126 2.458 . S
O128 C129 1.286 . S
C129 U126 2.984 . S
C129 O127 1.353 . S
C129 O128 1.286 . S
C129 C131 1.363 . S
C130 C120 1.465 . S
C130 U126 2.847 . S
C130 O144 1.249 . S
C130 O145 1.202 . S
C131 C129 1.363 . S
C131 C133 1.408 . S
C131 C136 1.342 . S
C132 C133 1.310 . S
C132 C135 1.461 . S
C132 H152 0.932 . S
C133 C131 1.408 . S
C133 C132 1.310 . S
C133 H153 0.930 . S
C134 C135 1.474 . S
C134 C136 1.285 . S
C134 H154 0.929 . S
C135 C132 1.461 . S
C135 C134 1.474 . S
C136 C131 1.342 . S
C136 C134 1.285 . S
C136 H155 0.930 . S
C137 C140 1.424 . S
C137 C142 1.245 . S
C137 C143 1.428 . S
C138 C141 1.260 . S
C138 C142 1.477 . S
C138 H156 0.932 . S
C139 C140 1.384 . S
C139 C141 1.479 . S
C139 H157 0.929 . S
C140 C137 1.424 . S
C140 C139 1.384 . S
C140 H158 0.928 . S
C141 C138 1.260 . S
C141 C139 1.479 . S
C142 C137 1.245 . S
C142 C138 1.477 . S
C142 H159 0.932 . S
C143 U126 2.882 . S
C143 C137 1.428 . S
C143 O146 1.301 . S
C143 O147 1.282 . S
O144 U126 2.441 . S
O144 C130 1.249 . S
O145 U126 2.420 . S
O145 C130 1.202 . S
O146 U126 2.455 . S
O146 C143 1.301 . S
O147 U126 2.449 . S
O147 C143 1.282 . S
H148 C121 0.931 . S
H149 C123 0.929 . S
H150 C124 0.930 . S
H151 C125 0.931 . S
H152 C132 0.932 . S
H153 C133 0.930 . S
H154 C134 0.929 . S
H155 C136 0.930 . S
H156 C138 0.932 . S
H157 C139 0.929 . S
H158 C140 0.928 . S
H159 C142 0.932 . S
C160 C161 1.264 . S
C160 C165 1.479 . S
C160 C170 1.465 . S
C161 C160 1.264 . S
C161 C163 1.339 . S
C161 H188 0.931 . S
C162 C163 1.395 . S
C162 C164 1.320 . S
C163 C161 1.339 . S
C163 C162 1.395 . S
C163 H189 0.929 . S
C164 C162 1.320 . S
C164 C165 1.405 . S
C164 H190 0.930 . S
C165 C160 1.479 . S
C165 C164 1.405 . S
C165 H191 0.931 . S
U166 O167 2.454 . S
U166 O168 2.458 . S
U166 C169 2.984 . S
U166 C170 2.847 . S
U166 C183 2.882 . S
U166 O184 2.441 . S
U166 O185 2.420 . S
U166 O186 2.455 . S
U166 O187 2.449 . S
O167 U166 2.454 . S
O167 C169 1.353 . S
O168 U166 2.458 . S
O168 C169 1.286 . S
C169 U166 2.984 . S
C169 O167 1.353 . S
C169 O168 1.286 . S
C169 C171 1.363 . S
C170 C160 1.465 . S
C170 U166 2.847 . S
C170 O184 1.249 . S
C170 O185 1.202 . S
C171 C169 1.363 . S
C171 C173 1.408 . S
C171 C176 1.342 . S
C172 C173 1.310 . S
C172 C175 1.461 . S
C172 H192 0.932 . S
C173 C171 1.408 . S
C173 C172 1.310 . S
C173 H193 0.930 . S
C174 C175 1.474 . S
C174 C176 1.285 . S
C174 H194 0.929 . S
C175 C172 1.461 . S
C175 C174 1.474 . S
C176 C171 1.342 . S
C176 C174 1.285 . S
C176 H195 0.930 . S
C177 C180 1.424 . S
C177 C182 1.245 . S
C177 C183 1.428 . S
C178 C181 1.260 . S
C178 C182 1.477 . S
C178 H196 0.932 . S
C179 C180 1.384 . S
C179 C181 1.479 . S
C179 H197 0.929 . S
C180 C177 1.424 . S
C180 C179 1.384 . S
C180 H198 0.928 . S
C181 C178 1.260 . S
C181 C179 1.479 . S
C182 C177 1.245 . S
C182 C178 1.477 . S
C182 H199 0.932 . S
C183 U166 2.882 . S
C183 C177 1.428 . S
C183 O186 1.301 . S
C183 O187 1.282 . S
O184 U166 2.441 . S
O184 C170 1.249 . S
O185 U166 2.420 . S
O185 C170 1.202 . S
O186 U166 2.455 . S
O186 C183 1.301 . S
O187 U166 2.449 . S
O187 C183 1.282 . S
H188 C161 0.931 . S
H189 C163 0.929 . S
H190 C164 0.930 . S
H191 C165 0.931 . S
H192 C172 0.932 . S
H193 C173 0.930 . S
H194 C174 0.929 . S
H195 C176 0.930 . S
H196 C178 0.932 . S
H197 C179 0.929 . S
H198 C180 0.928 . S
H199 C182 0.932 . S
C200 C201 1.264 . S
C200 C205 1.479 . S
C200 C210 1.465 . S
C201 C200 1.264 . S
C201 C203 1.339 . S
C201 H228 0.931 . S
C202 C203 1.395 . S
C202 C204 1.320 . S
C203 C201 1.339 . S
C203 C202 1.395 . S
C203 H229 0.929 . S
C204 C202 1.320 . S
C204 C205 1.405 . S
C204 H230 0.930 . S
C205 C200 1.479 . S
C205 C204 1.405 . S
C205 H231 0.931 . S
U206 O207 2.454 . S
U206 O208 2.458 . S
U206 C209 2.984 . S
U206 C210 2.847 . S
U206 C223 2.882 . S
U206 O224 2.441 . S
U206 O225 2.420 . S
U206 O226 2.455 . S
U206 O227 2.449 . S
O207 U206 2.454 . S
O207 C209 1.353 . S
O208 U206 2.458 . S
O208 C209 1.286 . S
C209 U206 2.984 . S
C209 O207 1.353 . S
C209 O208 1.286 . S
C209 C211 1.363 . S
C210 C200 1.465 . S
C210 U206 2.847 . S
C210 O224 1.249 . S
C210 O225 1.202 . S
C211 C209 1.363 . S
C211 C213 1.408 . S
C211 C216 1.342 . S
C212 C213 1.310 . S
C212 C215 1.461 . S
C212 H232 0.932 . S
C213 C211 1.408 . S
C213 C212 1.310 . S
C213 H233 0.930 . S
C214 C215 1.474 . S
C214 C216 1.285 . S
C214 H234 0.929 . S
C215 C212 1.461 . S
C215 C214 1.474 . S
C216 C211 1.342 . S
C216 C214 1.285 . S
C216 H235 0.930 . S
C217 C220 1.424 . S
C217 C222 1.245 . S
C217 C223 1.428 . S
C218 C221 1.260 . S
C218 C222 1.477 . S
C218 H236 0.932 . S
C219 C220 1.384 . S
C219 C221 1.479 . S
C219 H237 0.929 . S
C220 C217 1.424 . S
C220 C219 1.384 . S
C220 H238 0.928 . S
C221 C218 1.260 . S
C221 C219 1.479 . S
C222 C217 1.245 . S
C222 C218 1.477 . S
C222 H239 0.932 . S
C223 U206 2.882 . S
C223 C217 1.428 . S
C223 O226 1.301 . S
C223 O227 1.282 . S
O224 U206 2.441 . S
O224 C210 1.249 . S
O225 U206 2.420 . S
O225 C210 1.202 . S
O226 U206 2.455 . S
O226 C223 1.301 . S
O227 U206 2.449 . S
O227 C223 1.282 . S
H228 C201 0.931 . S
H229 C203 0.929 . S
H230 C204 0.930 . S
H231 C205 0.931 . S
H232 C212 0.932 . S
H233 C213 0.930 . S
H234 C214 0.929 . S
H235 C216 0.930 . S
H236 C218 0.932 . S
H237 C219 0.929 . S
H238 C220 0.928 . S
H239 C222 0.932 . S
C240 C241 1.264 . S
C240 C245 1.479 . S
C240 C250 1.465 . S
C241 C240 1.264 . S
C241 C243 1.339 . S
C241 H268 0.931 . S
C242 C243 1.395 . S
C242 C244 1.320 . S
C243 C241 1.339 . S
C243 C242 1.395 . S
C243 H269 0.929 . S
C244 C242 1.320 . S
C244 C245 1.405 . S
C244 H270 0.930 . S
C245 C240 1.479 . S
C245 C244 1.405 . S
C245 H271 0.931 . S
U246 O247 2.454 . S
U246 O248 2.458 . S
U246 C249 2.984 . S
U246 C250 2.847 . S
U246 C263 2.882 . S
U246 O264 2.441 . S
U246 O265 2.420 . S
U246 O266 2.455 . S
U246 O267 2.449 . S
O247 U246 2.454 . S
O247 C249 1.353 . S
O248 U246 2.458 . S
O248 C249 1.286 . S
C249 U246 2.984 . S
C249 O247 1.353 . S
C249 O248 1.286 . S
C249 C251 1.363 . S
C250 C240 1.465 . S
C250 U246 2.847 . S
C250 O264 1.249 . S
C250 O265 1.202 . S
C251 C249 1.363 . S
C251 C253 1.408 . S
C251 C256 1.342 . S
C252 C253 1.310 . S
C252 C255 1.461 . S
C252 H272 0.932 . S
C253 C251 1.408 . S
C253 C252 1.310 . S
C253 H273 0.930 . S
C254 C255 1.474 . S
C254 C256 1.285 . S
C254 H274 0.929 . S
C255 C252 1.461 . S
C255 C254 1.474 . S
C256 C251 1.342 . S
C256 C254 1.285 . S
C256 H275 0.930 . S
C257 C260 1.424 . S
C257 C262 1.245 . S
C257 C263 1.428 . S
C258 C261 1.260 . S
C258 C262 1.477 . S
C258 H276 0.932 . S
C259 C260 1.384 . S
C259 C261 1.479 . S
C259 H277 0.929 . S
C260 C257 1.424 . S
C260 C259 1.384 . S
C260 H278 0.928 . S
C261 C258 1.260 . S
C261 C259 1.479 . S
C262 C257 1.245 . S
C262 C258 1.477 . S
C262 H279 0.932 . S
C263 U246 2.882 . S
C263 C257 1.428 . S
C263 O266 1.301 . S
C263 O267 1.282 . S
O264 U246 2.441 . S
O264 C250 1.249 . S
O265 U246 2.420 . S
O265 C250 1.202 . S
O266 U246 2.455 . S
O266 C263 1.301 . S
O267 U246 2.449 . S
O267 C263 1.282 . S
H268 C241 0.931 . S
H269 C243 0.929 . S
H270 C244 0.930 . S
H271 C245 0.931 . S
H272 C252 0.932 . S
H273 C253 0.930 . S
H274 C254 0.929 . S
H275 C256 0.930 . S
H276 C258 0.932 . S
H277 C259 0.929 . S
H278 C260 0.928 . S
H279 C262 0.932 . S
C280 C281 1.264 . S
C280 C285 1.479 . S
C280 C290 1.465 . S
C281 C280 1.264 . S
C281 C283 1.339 . S
C281 H308 0.931 . S
C282 C283 1.395 . S
C282 C284 1.320 . S
C283 C281 1.339 . S
C283 C282 1.395 . S
C283 H309 0.929 . S
C284 C282 1.320 . S
C284 C285 1.405 . S
C284 H310 0.930 . S
C285 C280 1.479 . S
C285 C284 1.405 . S
C285 H311 0.931 . S
U286 O287 2.454 . S
U286 O288 2.458 . S
U286 C289 2.984 . S
U286 C290 2.847 . S
U286 C303 2.882 . S
U286 O304 2.441 . S
U286 O305 2.420 . S
U286 O306 2.455 . S
U286 O307 2.449 . S
O287 U286 2.454 . S
O287 C289 1.353 . S
O288 U286 2.458 . S
O288 C289 1.286 . S
C289 U286 2.984 . S
C289 O287 1.353 . S
C289 O288 1.286 . S
C289 C291 1.363 . S
C290 C280 1.465 . S
C290 U286 2.847 . S
C290 O304 1.249 . S
C290 O305 1.202 . S
C291 C289 1.363 . S
C291 C293 1.408 . S
C291 C296 1.342 . S
C292 C293 1.310 . S
C292 C295 1.461 . S
C292 H312 0.932 . S
C293 C291 1.408 . S
C293 C292 1.310 . S
C293 H313 0.930 . S
C294 C295 1.474 . S
C294 C296 1.285 . S
C294 H314 0.929 . S
C295 C292 1.461 . S
C295 C294 1.474 . S
C296 C291 1.342 . S
C296 C294 1.285 . S
C296 H315 0.930 . S
C297 C300 1.424 . S
C297 C302 1.245 . S
C297 C303 1.428 . S
C298 C301 1.260 . S
C298 C302 1.477 . S
C298 H316 0.932 . S
C299 C300 1.384 . S
C299 C301 1.479 . S
C299 H317 0.929 . S
C300 C297 1.424 . S
C300 C299 1.384 . S
C300 H318 0.928 . S
C301 C298 1.260 . S
C301 C299 1.479 . S
C302 C297 1.245 . S
C302 C298 1.477 . S
C302 H319 0.932 . S
C303 U286 2.882 . S
C303 C297 1.428 . S
C303 O306 1.301 . S
C303 O307 1.282 . S
O304 U286 2.441 . S
O304 C290 1.249 . S
O305 U286 2.420 . S
O305 C290 1.202 . S
O306 U286 2.455 . S
O306 C303 1.301 . S
O307 U286 2.449 . S
O307 C303 1.282 . S
H308 C281 0.931 . S
H309 C283 0.929 . S
H310 C284 0.930 . S
H311 C285 0.931 . S
H312 C292 0.932 . S
H313 C293 0.930 . S
H314 C294 0.929 . S
H315 C296 0.930 . S
H316 C298 0.932 . S
H317 C299 0.929 . S
H318 C300 0.928 . S
H319 C302 0.932 . S
H320 C326 0.930 . S
H321 C329 0.931 . S
H322 C331 0.931 . S
H323 C333 0.930 . S
H324 C335 0.930 . S
H325 C337 0.931 . S
C326 H320 0.930 . S
C326 C327 1.380 . S
C326 C328 1.394 1_455 S
C327 C326 1.380 . S
C327 C331 1.382 . S
C328 C326 1.394 1_655 S
C328 C329 1.400 . S
C329 H321 0.931 . S
C329 C328 1.400 . S
C329 C330 1.375 1_655 S
C330 C329 1.375 1_455 S
C330 C331 1.415 . S
C330 C332 1.501 . S
C331 H322 0.931 . S
C331 C327 1.382 . S
C331 C330 1.415 . S
C332 C330 1.501 . S
C332 C333 1.384 . S
C332 C337 1.408 1_455 S
C333 H323 0.930 . S
C333 C332 1.384 . S
C333 C334 1.389 . S
C334 C333 1.389 . S
C334 C335 1.405 . S
C335 H324 0.930 . S
C335 C334 1.405 . S
C335 C336 1.364 1_455 S
C336 C335 1.364 1_655 S
C336 C337 1.400 . S
C337 H325 0.931 . S
C337 C332 1.408 1_655 S
C337 C336 1.400 . S
H338 C344 0.930 . S
H339 C347 0.931 . S
H340 C349 0.931 . S
H341 C351 0.930 . S
H342 C353 0.930 . S
H343 C355 0.931 . S
C344 H338 0.930 . S
C344 C345 1.380 1_455 S
C344 C346 1.394 . S
C345 C344 1.380 1_655 S
C345 C349 1.382 . S
C346 C344 1.394 . S
C346 C347 1.400 . S
C347 H339 0.931 . S
C347 C346 1.400 . S
C347 C348 1.375 . S
C348 C347 1.375 . S
C348 C349 1.415 1_455 S
C348 C350 1.501 . S
C349 H340 0.931 . S
C349 C345 1.382 . S
C349 C348 1.415 1_655 S
C350 C348 1.501 . S
C350 C351 1.384 1_455 S
C350 C355 1.408 . S
C351 H341 0.930 . S
C351 C350 1.384 1_655 S
C351 C352 1.389 . S
C352 C351 1.389 . S
C352 C353 1.405 1_655 S
C353 H342 0.930 . S
C353 C352 1.405 1_455 S
C353 C354 1.364 . S
C354 C353 1.364 . S
C354 C355 1.400 . S
C355 H343 0.931 . S
C355 C350 1.408 . S
C355 C354 1.400 . S
H356 C362 0.930 . S
H357 C365 0.931 . S
H358 C367 0.931 . S
H359 C369 0.930 . S
H360 C371 0.930 . S
H361 C373 0.931 . S
C362 H356 0.930 . S
C362 C363 1.380 . S
C362 C364 1.394 . S
C363 C362 1.380 . S
C363 C367 1.382 . S
C364 C362 1.394 . S
C364 C365 1.400 . S
C365 H357 0.931 . S
C365 C364 1.400 . S
C365 C366 1.375 . S
C366 C365 1.375 . S
C366 C367 1.415 . S
C366 C368 1.501 1_545 S
C367 H358 0.931 . S
C367 C363 1.382 . S
C367 C366 1.415 . S
C368 C366 1.501 1_565 S
C368 C369 1.384 . S
C368 C373 1.408 . S
C369 H359 0.930 . S
C369 C368 1.384 . S
C369 C370 1.389 . S
C370 C369 1.389 . S
C370 C371 1.405 . S
C371 H360 0.930 . S
C371 C370 1.405 . S
C371 C372 1.364 . S
C372 C371 1.364 . S
C372 C373 1.400 . S
C373 H361 0.931 . S
C373 C368 1.408 . S
C373 C372 1.400 . S
H374 C380 0.930 . S
H375 C383 0.931 . S
H376 C385 0.931 . S
H377 C387 0.930 . S
H378 C389 0.930 . S
H379 C391 0.931 . S
C380 H374 0.930 . S
C380 C381 1.380 . S
C380 C382 1.394 . S
C381 C380 1.380 . S
C381 C385 1.382 . S
C382 C380 1.394 . S
C382 C383 1.400 . S
C383 H375 0.931 . S
C383 C382 1.400 . S
C383 C384 1.375 . S
C384 C383 1.375 . S
C384 C385 1.415 . S
C384 C386 1.501 1_554 S
C385 H376 0.931 . S
C385 C381 1.382 . S
C385 C384 1.415 . S
C386 C384 1.501 1_556 S
C386 C387 1.384 . S
C386 C391 1.408 . S
C387 H377 0.930 . S
C387 C386 1.384 . S
C387 C388 1.389 . S
C388 C387 1.389 . S
C388 C389 1.405 . S
C389 H378 0.930 . S
C389 C388 1.405 . S
C389 C390 1.364 . S
C390 C389 1.364 . S
C390 C391 1.400 . S
C391 H379 0.931 . S
C391 C386 1.408 . S
C391 C390 1.400 . S
H392 C398 0.930 . S
H393 C401 0.931 . S
H394 C403 0.931 . S
H395 C405 0.930 . S
H396 C407 0.930 . S
H397 C409 0.931 . S
C398 H392 0.930 . S
C398 C399 1.380 . S
C398 C400 1.394 . S
C399 C398 1.380 . S
C399 C403 1.382 . S
C400 C398 1.394 . S
C400 C401 1.400 . S
C401 H393 0.931 . S
C401 C400 1.400 . S
C401 C402 1.375 . S
C402 C401 1.375 . S
C402 C403 1.415 . S
C402 C404 1.501 1_545 S
C403 H394 0.931 . S
C403 C399 1.382 . S
C403 C402 1.415 . S
C404 C402 1.501 1_565 S
C404 C405 1.384 . S
C404 C409 1.408 . S
C405 H395 0.930 . S
C405 C404 1.384 . S
C405 C406 1.389 . S
C406 C405 1.389 . S
C406 C407 1.405 . S
C407 H396 0.930 . S
C407 C406 1.405 . S
C407 C408 1.364 . S
C408 C407 1.364 . S
C408 C409 1.400 . S
C409 H397 0.931 . S
C409 C404 1.408 . S
C409 C408 1.400 . S
H410 C416 0.930 . S
H411 C419 0.931 . S
H412 C421 0.931 . S
H413 C423 0.930 . S
H414 C425 0.930 . S
H415 C427 0.931 . S
C416 H410 0.930 . S
C416 C417 1.380 . S
C416 C418 1.394 . S
C417 C416 1.380 . S
C417 C421 1.382 . S
C418 C416 1.394 . S
C418 C419 1.400 . S
C419 H411 0.931 . S
C419 C418 1.400 . S
C419 C420 1.375 . S
C420 C419 1.375 . S
C420 C421 1.415 . S
C420 C422 1.501 1_554 S
C421 H412 0.931 . S
C421 C417 1.382 . S
C421 C420 1.415 . S
C422 C420 1.501 1_556 S
C422 C423 1.384 . S
C422 C427 1.408 . S
C423 H413 0.930 . S
C423 C422 1.384 . S
C423 C424 1.389 . S
C424 C423 1.389 . S
C424 C425 1.405 . S
C425 H414 0.930 . S
C425 C424 1.405 . S
C425 C426 1.364 . S
C426 C425 1.364 . S
C426 C427 1.400 . S
C427 H415 0.931 . S
C427 C422 1.408 . S
C427 C426 1.400 . S
C428 C429 1.363 . S
C428 C434 1.379 . S
C428 N436 1.356 . S
C429 C428 1.363 . S
C429 C435 1.363 . S
C430 C431 1.363 . S
C430 C435 1.379 . S
C430 N437 1.356 . S
C431 C430 1.363 . S
C431 C434 1.363 . S
N432 C434 1.356 . S
N432 H444 0.984 . S
N432 H445 0.985 . S
N433 C435 1.356 . S
N433 H438 0.984 . S
N433 H439 0.985 . S
C434 C428 1.379 . S
C434 C431 1.363 . S
C434 N432 1.356 . S
C435 C429 1.363 . S
C435 C430 1.379 . S
C435 N433 1.356 . S
N436 C428 1.356 . S
N436 H442 0.984 . S
N436 H443 0.984 . S
N437 C430 1.356 . S
N437 H440 0.984 . S
N437 H441 0.985 . S
H438 N433 0.984 . S
H439 N433 0.985 . S
H440 N437 0.984 . S
H441 N437 0.985 . S
H442 N436 0.984 . S
H443 N436 0.984 . S
H444 N432 0.984 . S
H445 N432 0.985 . S
C446 C447 1.363 . S
C446 C452 1.379 . S
C446 N454 1.356 . S
C447 C446 1.363 . S
C447 C453 1.363 . S
C448 C449 1.363 . S
C448 C453 1.379 . S
C448 N455 1.356 . S
C449 C448 1.363 . S
C449 C452 1.363 . S
N450 C452 1.356 . S
N450 H462 0.984 . S
N450 H463 0.985 . S
N451 C453 1.356 . S
N451 H456 0.984 . S
N451 H457 0.985 . S
C452 C446 1.379 . S
C452 C449 1.363 . S
C452 N450 1.356 . S
C453 C447 1.363 . S
C453 C448 1.379 . S
C453 N451 1.356 . S
N454 C446 1.356 . S
N454 H460 0.984 . S
N454 H461 0.984 . S
N455 C448 1.356 . S
N455 H458 0.984 . S
N455 H459 0.985 . S
H456 N451 0.984 . S
H457 N451 0.985 . S
H458 N455 0.984 . S
H459 N455 0.985 . S
H460 N454 0.984 . S
H461 N454 0.984 . S
H462 N450 0.984 . S
H463 N450 0.985 . S
C464 C465 1.363 . S
C464 C470 1.379 . S
C464 N472 1.356 . S
C465 C464 1.363 . S
C465 C471 1.363 . S
C466 C467 1.363 . S
C466 C471 1.379 . S
C466 N473 1.356 . S
C467 C466 1.363 . S
C467 C470 1.363 . S
N468 C470 1.356 . S
N468 H480 0.984 . S
N468 H481 0.985 . S
N469 C471 1.356 . S
N469 H474 0.984 . S
N469 H475 0.985 . S
C470 C464 1.379 . S
C470 C467 1.363 . S
C470 N468 1.356 . S
C471 C465 1.363 . S
C471 C466 1.379 . S
C471 N469 1.356 . S
N472 C464 1.356 . S
N472 H478 0.984 . S
N472 H479 0.984 . S
N473 C466 1.356 . S
N473 H476 0.984 . S
N473 H477 0.985 . S
H474 N469 0.984 . S
H475 N469 0.985 . S
H476 N473 0.984 . S
H477 N473 0.985 . S
H478 N472 0.984 . S
H479 N472 0.984 . S
H480 N468 0.984 . S
H481 N468 0.985 . S
C482 C483 1.363 . S
C482 C488 1.379 . S
C482 N490 1.356 . S
C483 C482 1.363 . S
C483 C489 1.363 . S
C484 C485 1.363 . S
C484 C489 1.379 . S
C484 N491 1.356 . S
C485 C484 1.363 . S
C485 C488 1.363 . S
N486 C488 1.356 . S
N486 H498 0.984 . S
N486 H499 0.985 . S
N487 C489 1.356 . S
N487 H492 0.984 . S
N487 H493 0.985 . S
C488 C482 1.379 . S
C488 C485 1.363 . S
C488 N486 1.356 . S
C489 C483 1.363 . S
C489 C484 1.379 . S
C489 N487 1.356 . S
N490 C482 1.356 . S
N490 H496 0.984 . S
N490 H497 0.984 . S
N491 C484 1.356 . S
N491 H494 0.984 . S
N491 H495 0.985 . S
H492 N487 0.984 . S
H493 N487 0.985 . S
H494 N491 0.984 . S
H495 N491 0.985 . S
H496 N490 0.984 . S
H497 N490 0.984 . S
H498 N486 0.984 . S
H499 N486 0.985 . S
C500 C501 1.363 . S
C500 C506 1.379 . S
C500 N508 1.356 . S
C501 C500 1.363 . S
C501 C507 1.363 . S
C502 C503 1.363 . S
C502 C507 1.379 . S
C502 N509 1.356 . S
C503 C502 1.363 . S
C503 C506 1.363 . S
N504 C506 1.356 . S
N504 H516 0.984 . S
N504 H517 0.985 . S
N505 C507 1.356 . S
N505 H510 0.984 . S
N505 H511 0.985 . S
C506 C500 1.379 . S
C506 C503 1.363 . S
C506 N504 1.356 . S
C507 C501 1.363 . S
C507 C502 1.379 . S
C507 N505 1.356 . S
N508 C500 1.356 . S
N508 H514 0.984 . S
N508 H515 0.984 . S
N509 C502 1.356 . S
N509 H512 0.984 . S
N509 H513 0.985 . S
H510 N505 0.984 . S
H511 N505 0.985 . S
H512 N509 0.984 . S
H513 N509 0.985 . S
H514 N508 0.984 . S
H515 N508 0.984 . S
H516 N504 0.984 . S
H517 N504 0.985 . S
C518 C519 1.363 . S
C518 C524 1.379 . S
C518 N526 1.356 . S
C519 C518 1.363 . S
C519 C525 1.363 . S
C520 C521 1.363 . S
C520 C525 1.379 . S
C520 N527 1.356 . S
C521 C520 1.363 . S
C521 C524 1.363 . S
N522 C524 1.356 . S
N522 H534 0.984 . S
N522 H535 0.985 . S
N523 C525 1.356 . S
N523 H528 0.984 . S
N523 H529 0.985 . S
C524 C518 1.379 . S
C524 C521 1.363 . S
C524 N522 1.356 . S
C525 C519 1.363 . S
C525 C520 1.379 . S
C525 N523 1.356 . S
N526 C518 1.356 . S
N526 H532 0.984 . S
N526 H533 0.984 . S
N527 C520 1.356 . S
N527 H530 0.984 . S
N527 H531 0.985 . S
H528 N523 0.984 . S
H529 N523 0.985 . S
H530 N527 0.984 . S
H531 N527 0.985 . S
H532 N526 0.984 . S
H533 N526 0.984 . S
H534 N522 0.984 . S
H535 N522 0.985 . S
C536 C537 1.363 . S
C536 C542 1.379 . S
C536 N544 1.356 . S
C537 C536 1.363 . S
C537 C543 1.363 . S
C538 C539 1.363 . S
C538 C543 1.379 . S
C538 N545 1.356 . S
C539 C538 1.363 . S
C539 C542 1.363 . S
N540 C542 1.356 . S
N540 H552 0.984 . S
N540 H553 0.985 . S
N541 C543 1.356 . S
N541 H546 0.984 . S
N541 H547 0.985 . S
C542 C536 1.379 . S
C542 C539 1.363 . S
C542 N540 1.356 . S
C543 C537 1.363 . S
C543 C538 1.379 . S
C543 N541 1.356 . S
N544 C536 1.356 . S
N544 H550 0.984 . S
N544 H551 0.984 . S
N545 C538 1.356 . S
N545 H548 0.984 . S
N545 H549 0.985 . S
H546 N541 0.984 . S
H547 N541 0.985 . S
H548 N545 0.984 . S
H549 N545 0.985 . S
H550 N544 0.984 . S
H551 N544 0.984 . S
H552 N540 0.984 . S
H553 N540 0.985 . S
C554 C555 1.363 . S
C554 C560 1.379 . S
C554 N562 1.356 . S
C555 C554 1.363 . S
C555 C561 1.363 . S
C556 C557 1.363 . S
C556 C561 1.379 . S
C556 N563 1.356 . S
C557 C556 1.363 . S
C557 C560 1.363 . S
N558 C560 1.356 . S
N558 H570 0.984 . S
N558 H571 0.985 . S
N559 C561 1.356 . S
N559 H564 0.984 . S
N559 H565 0.985 . S
C560 C554 1.379 . S
C560 C557 1.363 . S
C560 N558 1.356 . S
C561 C555 1.363 . S
C561 C556 1.379 . S
C561 N559 1.356 . S
N562 C554 1.356 . S
N562 H568 0.984 . S
N562 H569 0.984 . S
N563 C556 1.356 . S
N563 H566 0.984 . S
N563 H567 0.985 . S
H564 N559 0.984 . S
H565 N559 0.985 . S
H566 N563 0.984 . S
H567 N563 0.985 . S
H568 N562 0.984 . S
H569 N562 0.984 . S
H570 N558 0.984 . S
H571 N558 0.985 . S
C572 C573 1.363 . S
C572 C578 1.379 . S
C572 N580 1.356 . S
C573 C572 1.363 . S
C573 C579 1.363 . S
C574 C575 1.363 . S
C574 C579 1.379 . S
C574 N581 1.356 . S
C575 C574 1.363 . S
C575 C578 1.363 . S
N576 C578 1.356 . S
N576 H588 0.984 . S
N576 H589 0.985 . S
N577 C579 1.356 . S
N577 H582 0.984 . S
N577 H583 0.985 . S
C578 C572 1.379 . S
C578 C575 1.363 . S
C578 N576 1.356 . S
C579 C573 1.363 . S
C579 C574 1.379 . S
C579 N577 1.356 . S
N580 C572 1.356 . S
N580 H586 0.984 . S
N580 H587 0.984 . S
N581 C574 1.356 . S
N581 H584 0.984 . S
N581 H585 0.985 . S
H582 N577 0.984 . S
H583 N577 0.985 . S
H584 N581 0.984 . S
H585 N581 0.985 . S
H586 N580 0.984 . S
H587 N580 0.984 . S
H588 N576 0.984 . S
H589 N576 0.985 . S
C590 C591 1.363 . S
C590 C596 1.379 . S
C590 N598 1.356 . S
C591 C590 1.363 . S
C591 C597 1.363 . S
C592 C593 1.363 . S
C592 C597 1.379 . S
C592 N599 1.356 . S
C593 C592 1.363 . S
C593 C596 1.363 . S
N594 C596 1.356 . S
N594 H606 0.984 . S
N594 H607 0.985 . S
N595 C597 1.356 . S
N595 H600 0.984 . S
N595 H601 0.985 . S
C596 C590 1.379 . S
C596 C593 1.363 . S
C596 N594 1.356 . S
C597 C591 1.363 . S
C597 C592 1.379 . S
C597 N595 1.356 . S
N598 C590 1.356 . S
N598 H604 0.984 . S
N598 H605 0.984 . S
N599 C592 1.356 . S
N599 H602 0.984 . S
N599 H603 0.985 . S
H600 N595 0.984 . S
H601 N595 0.985 . S
H602 N599 0.984 . S
H603 N599 0.985 . S
H604 N598 0.984 . S
H605 N598 0.984 . S
H606 N594 0.984 . S
H607 N594 0.985 . S
C608 C609 1.363 . S
C608 C614 1.379 . S
C608 N616 1.356 . S
C609 C608 1.363 . S
C609 C615 1.363 . S
C610 C611 1.363 . S
C610 C615 1.379 . S
C610 N617 1.356 . S
C611 C610 1.363 . S
C611 C614 1.363 . S
N612 C614 1.356 . S
N612 H624 0.984 . S
N612 H625 0.985 . S
N613 C615 1.356 . S
N613 H618 0.984 . S
N613 H619 0.985 . S
C614 C608 1.379 . S
C614 C611 1.363 . S
C614 N612 1.356 . S
C615 C609 1.363 . S
C615 C610 1.379 . S
C615 N613 1.356 . S
N616 C608 1.356 . S
N616 H622 0.984 . S
N616 H623 0.984 . S
N617 C610 1.356 . S
N617 H620 0.984 . S
N617 H621 0.985 . S
H618 N613 0.984 . S
H619 N613 0.985 . S
H620 N617 0.984 . S
H621 N617 0.985 . S
H622 N616 0.984 . S
H623 N616 0.984 . S
H624 N612 0.984 . S
H625 N612 0.985 . S
C626 C627 1.363 . S
C626 C632 1.379 . S
C626 N634 1.356 . S
C627 C626 1.363 . S
C627 C633 1.363 . S
C628 C629 1.363 . S
C628 C633 1.379 . S
C628 N635 1.356 . S
C629 C628 1.363 . S
C629 C632 1.363 . S
N630 C632 1.356 . S
N630 H642 0.984 . S
N630 H643 0.985 . S
N631 C633 1.356 . S
N631 H636 0.984 . S
N631 H637 0.985 . S
C632 C626 1.379 . S
C632 C629 1.363 . S
C632 N630 1.356 . S
C633 C627 1.363 . S
C633 C628 1.379 . S
C633 N631 1.356 . S
N634 C626 1.356 . S
N634 H640 0.984 . S
N634 H641 0.984 . S
N635 C628 1.356 . S
N635 H638 0.984 . S
N635 H639 0.985 . S
H636 N631 0.984 . S
H637 N631 0.985 . S
H638 N635 0.984 . S
H639 N635 0.985 . S
H640 N634 0.984 . S
H641 N634 0.984 . S
H642 N630 0.984 . S
H643 N630 0.985 . S
C644 C645 1.363 . S
C644 C650 1.379 . S
C644 N652 1.356 . S
C645 C644 1.363 . S
C645 C651 1.363 . S
C646 C647 1.363 . S
C646 C651 1.379 . S
C646 N653 1.356 . S
C647 C646 1.363 . S
C647 C650 1.363 . S
N648 C650 1.356 . S
N648 H660 0.984 . S
N648 H661 0.985 . S
N649 C651 1.356 . S
N649 H654 0.984 . S
N649 H655 0.985 . S
C650 C644 1.379 . S
C650 C647 1.363 . S
C650 N648 1.356 . S
C651 C645 1.363 . S
C651 C646 1.379 . S
C651 N649 1.356 . S
N652 C644 1.356 . S
N652 H658 0.984 . S
N652 H659 0.984 . S
N653 C646 1.356 . S
N653 H656 0.984 . S
N653 H657 0.985 . S
H654 N649 0.984 . S
H655 N649 0.985 . S
H656 N653 0.984 . S
H657 N653 0.985 . S
H658 N652 0.984 . S
H659 N652 0.984 . S
H660 N648 0.984 . S
H661 N648 0.985 . S
C662 C663 1.363 . S
C662 C668 1.379 . S
C662 N670 1.356 . S
C663 C662 1.363 . S
C663 C669 1.363 . S
C664 C665 1.363 . S
C664 C669 1.379 . S
C664 N671 1.356 . S
C665 C664 1.363 . S
C665 C668 1.363 . S
N666 C668 1.356 . S
N666 H678 0.984 . S
N666 H679 0.985 . S
N667 C669 1.356 . S
N667 H672 0.984 . S
N667 H673 0.985 . S
C668 C662 1.379 . S
C668 C665 1.363 . S
C668 N666 1.356 . S
C669 C663 1.363 . S
C669 C664 1.379 . S
C669 N667 1.356 . S
N670 C662 1.356 . S
N670 H676 0.984 . S
N670 H677 0.984 . S
N671 C664 1.356 . S
N671 H674 0.984 . S
N671 H675 0.985 . S
H672 N667 0.984 . S
H673 N667 0.985 . S
H674 N671 0.984 . S
H675 N671 0.985 . S
H676 N670 0.984 . S
H677 N670 0.984 . S
H678 N666 0.984 . S
H679 N666 0.985 . S
C680 C681 1.363 . S
C680 C686 1.379 . S
C680 N688 1.356 . S
C681 C680 1.363 . S
C681 C687 1.363 . S
C682 C683 1.363 . S
C682 C687 1.379 . S
C682 N689 1.356 . S
C683 C682 1.363 . S
C683 C686 1.363 . S
N684 C686 1.356 . S
N684 H696 0.984 . S
N684 H697 0.985 . S
N685 C687 1.356 . S
N685 H690 0.984 . S
N685 H691 0.985 . S
C686 C680 1.379 . S
C686 C683 1.363 . S
C686 N684 1.356 . S
C687 C681 1.363 . S
C687 C682 1.379 . S
C687 N685 1.356 . S
N688 C680 1.356 . S
N688 H694 0.984 . S
N688 H695 0.984 . S
N689 C682 1.356 . S
N689 H692 0.984 . S
N689 H693 0.985 . S
H690 N685 0.984 . S
H691 N685 0.985 . S
H692 N689 0.984 . S
H693 N689 0.985 . S
H694 N688 0.984 . S
H695 N688 0.984 . S
H696 N684 0.984 . S
H697 N684 0.985 . S
C698 C699 1.363 . S
C698 C704 1.379 . S
C698 N706 1.356 . S
C699 C698 1.363 . S
C699 C705 1.363 . S
C700 C701 1.363 . S
C700 C705 1.379 . S
C700 N707 1.356 . S
C701 C700 1.363 . S
C701 C704 1.363 . S
N702 C704 1.356 . S
N702 H714 0.984 . S
N702 H715 0.985 . S
N703 C705 1.356 . S
N703 H708 0.984 . S
N703 H709 0.985 . S
C704 C698 1.379 . S
C704 C701 1.363 . S
C704 N702 1.356 . S
C705 C699 1.363 . S
C705 C700 1.379 . S
C705 N703 1.356 . S
N706 C698 1.356 . S
N706 H712 0.984 . S
N706 H713 0.984 . S
N707 C700 1.356 . S
N707 H710 0.984 . S
N707 H711 0.985 . S
H708 N703 0.984 . S
H709 N703 0.985 . S
H710 N707 0.984 . S
H711 N707 0.985 . S
H712 N706 0.984 . S
H713 N706 0.984 . S
H714 N702 0.984 . S
H715 N702 0.985 . S
C716 C717 1.363 . S
C716 C722 1.379 . S
C716 N724 1.356 . S
C717 C716 1.363 . S
C717 C723 1.363 . S
C718 C719 1.363 . S
C718 C723 1.379 . S
C718 N725 1.356 . S
C719 C718 1.363 . S
C719 C722 1.363 . S
N720 C722 1.356 . S
N720 H732 0.984 . S
N720 H733 0.985 . S
N721 C723 1.356 . S
N721 H726 0.984 . S
N721 H727 0.985 . S
C722 C716 1.379 . S
C722 C719 1.363 . S
C722 N720 1.356 . S
C723 C717 1.363 . S
C723 C718 1.379 . S
C723 N721 1.356 . S
N724 C716 1.356 . S
N724 H730 0.984 . S
N724 H731 0.984 . S
N725 C718 1.356 . S
N725 H728 0.984 . S
N725 H729 0.985 . S
H726 N721 0.984 . S
H727 N721 0.985 . S
H728 N725 0.984 . S
H729 N725 0.985 . S
H730 N724 0.984 . S
H731 N724 0.984 . S
H732 N720 0.984 . S
H733 N720 0.985 . S
C734 C735 1.363 . S
C734 C740 1.379 . S
C734 N742 1.356 . S
C735 C734 1.363 . S
C735 C741 1.363 . S
C736 C737 1.363 . S
C736 C741 1.379 . S
C736 N743 1.356 . S
C737 C736 1.363 . S
C737 C740 1.363 . S
N738 C740 1.356 . S
N738 H750 0.984 . S
N738 H751 0.985 . S
N739 C741 1.356 . S
N739 H744 0.984 . S
N739 H745 0.985 . S
C740 C734 1.379 . S
C740 C737 1.363 . S
C740 N738 1.356 . S
C741 C735 1.363 . S
C741 C736 1.379 . S
C741 N739 1.356 . S
N742 C734 1.356 . S
N742 H748 0.984 . S
N742 H749 0.984 . S
N743 C736 1.356 . S
N743 H746 0.984 . S
N743 H747 0.985 . S
H744 N739 0.984 . S
H745 N739 0.985 . S
H746 N743 0.984 . S
H747 N743 0.985 . S
H748 N742 0.984 . S
H749 N742 0.984 . S
H750 N738 0.984 . S
H751 N738 0.985 . S
C752 C753 1.363 . S
C752 C758 1.379 . S
C752 N760 1.356 . S
C753 C752 1.363 . S
C753 C759 1.363 . S
C754 C755 1.363 . S
C754 C759 1.379 . S
C754 N761 1.356 . S
C755 C754 1.363 . S
C755 C758 1.363 . S
N756 C758 1.356 . S
N756 H768 0.984 . S
N756 H769 0.985 . S
N757 C759 1.356 . S
N757 H762 0.984 . S
N757 H763 0.985 . S
C758 C752 1.379 . S
C758 C755 1.363 . S
C758 N756 1.356 . S
C759 C753 1.363 . S
C759 C754 1.379 . S
C759 N757 1.356 . S
N760 C752 1.356 . S
N760 H766 0.984 . S
N760 H767 0.984 . S
N761 C754 1.356 . S
N761 H764 0.984 . S
N761 H765 0.985 . S
H762 N757 0.984 . S
H763 N757 0.985 . S
H764 N761 0.984 . S
H765 N761 0.985 . S
H766 N760 0.984 . S
H767 N760 0.984 . S
H768 N756 0.984 . S
H769 N756 0.985 . S
C770 C771 1.363 . S
C770 C776 1.379 . S
C770 N778 1.356 . S
C771 C770 1.363 . S
C771 C777 1.363 . S
C772 C773 1.363 . S
C772 C777 1.379 . S
C772 N779 1.356 . S
C773 C772 1.363 . S
C773 C776 1.363 . S
N774 C776 1.356 . S
N774 H786 0.984 . S
N774 H787 0.985 . S
N775 C777 1.356 . S
N775 H780 0.984 . S
N775 H781 0.985 . S
C776 C770 1.379 . S
C776 C773 1.363 . S
C776 N774 1.356 . S
C777 C771 1.363 . S
C777 C772 1.379 . S
C777 N775 1.356 . S
N778 C770 1.356 . S
N778 H784 0.984 . S
N778 H785 0.984 . S
N779 C772 1.356 . S
N779 H782 0.984 . S
N779 H783 0.985 . S
H780 N775 0.984 . S
H781 N775 0.985 . S
H782 N779 0.984 . S
H783 N779 0.985 . S
H784 N778 0.984 . S
H785 N778 0.984 . S
H786 N774 0.984 . S
H787 N774 0.985 . S
C788 C789 1.363 . S
C788 C794 1.379 . S
C788 N796 1.356 . S
C789 C788 1.363 . S
C789 C795 1.363 . S
C790 C791 1.363 . S
C790 C795 1.379 . S
C790 N797 1.356 . S
C791 C790 1.363 . S
C791 C794 1.363 . S
N792 C794 1.356 . S
N792 H804 0.984 . S
N792 H805 0.985 . S
N793 C795 1.356 . S
N793 H798 0.984 . S
N793 H799 0.985 . S
C794 C788 1.379 . S
C794 C791 1.363 . S
C794 N792 1.356 . S
C795 C789 1.363 . S
C795 C790 1.379 . S
C795 N793 1.356 . S
N796 C788 1.356 . S
N796 H802 0.984 . S
N796 H803 0.984 . S
N797 C790 1.356 . S
N797 H800 0.984 . S
N797 H801 0.985 . S
H798 N793 0.984 . S
H799 N793 0.985 . S
H800 N797 0.984 . S
H801 N797 0.985 . S
H802 N796 0.984 . S
H803 N796 0.984 . S
H804 N792 0.984 . S
H805 N792 0.985 . S
C806 C807 1.363 . S
C806 C812 1.379 . S
C806 N814 1.356 . S
C807 C806 1.363 . S
C807 C813 1.363 . S
C808 C809 1.363 . S
C808 C813 1.379 . S
C808 N815 1.356 . S
C809 C808 1.363 . S
C809 C812 1.363 . S
N810 C812 1.356 . S
N810 H822 0.984 . S
N810 H823 0.985 . S
N811 C813 1.356 . S
N811 H816 0.984 . S
N811 H817 0.985 . S
C812 C806 1.379 . S
C812 C809 1.363 . S
C812 N810 1.356 . S
C813 C807 1.363 . S
C813 C808 1.379 . S
C813 N811 1.356 . S
N814 C806 1.356 . S
N814 H820 0.984 . S
N814 H821 0.984 . S
N815 C808 1.356 . S
N815 H818 0.984 . S
N815 H819 0.985 . S
H816 N811 0.984 . S
H817 N811 0.985 . S
H818 N815 0.984 . S
H819 N815 0.985 . S
H820 N814 0.984 . S
H821 N814 0.984 . S
H822 N810 0.984 . S
H823 N810 0.985 . S
C824 C825 1.363 . S
C824 C830 1.379 . S
C824 N832 1.356 . S
C825 C824 1.363 . S
C825 C831 1.363 . S
C826 C827 1.363 . S
C826 C831 1.379 . S
C826 N833 1.356 . S
C827 C826 1.363 . S
C827 C830 1.363 . S
N828 C830 1.356 . S
N828 H840 0.984 . S
N828 H841 0.985 . S
N829 C831 1.356 . S
N829 H834 0.984 . S
N829 H835 0.985 . S
C830 C824 1.379 . S
C830 C827 1.363 . S
C830 N828 1.356 . S
C831 C825 1.363 . S
C831 C826 1.379 . S
C831 N829 1.356 . S
N832 C824 1.356 . S
N832 H838 0.984 . S
N832 H839 0.984 . S
N833 C826 1.356 . S
N833 H836 0.984 . S
N833 H837 0.985 . S
H834 N829 0.984 . S
H835 N829 0.985 . S
H836 N833 0.984 . S
H837 N833 0.985 . S
H838 N832 0.984 . S
H839 N832 0.984 . S
H840 N828 0.984 . S
H841 N828 0.985 . S
C842 C843 1.363 . S
C842 C848 1.379 . S
C842 N850 1.356 . S
C843 C842 1.363 . S
C843 C849 1.363 . S
C844 C845 1.363 . S
C844 C849 1.379 . S
C844 N851 1.356 . S
C845 C844 1.363 . S
C845 C848 1.363 . S
N846 C848 1.356 . S
N846 H858 0.984 . S
N846 H859 0.985 . S
N847 C849 1.356 . S
N847 H852 0.984 . S
N847 H853 0.985 . S
C848 C842 1.379 . S
C848 C845 1.363 . S
C848 N846 1.356 . S
C849 C843 1.363 . S
C849 C844 1.379 . S
C849 N847 1.356 . S
N850 C842 1.356 . S
N850 H856 0.984 . S
N850 H857 0.984 . S
N851 C844 1.356 . S
N851 H854 0.984 . S
N851 H855 0.985 . S
H852 N847 0.984 . S
H853 N847 0.985 . S
H854 N851 0.984 . S
H855 N851 0.985 . S
H856 N850 0.984 . S
H857 N850 0.984 . S
H858 N846 0.984 . S
H859 N846 0.985 . S
C431 C327 1.537 . S
C429 C15 1.570 . S
C449 C346 1.540 . S
C447 C55 1.576 . S
C467 C336 1.587 . S
C465 C101 1.589 . S
C485 C352 1.595 . S
C483 C141 1.645 . S
C503 C363 1.511 . S
C501 C2 1.541 . S
C521 C388 1.467 . S
C519 C61 1.515 . S
C537 C95 1.652 . S
C539 C406 1.560 . S
C557 C426 1.466 . S
C555 C135 1.542 . S
C575 C372 1.509 . S
C573 C42 1.531 . S
C591 C82 1.516 . S
C593 C382 1.480 . S
C611 C400 1.572 . S
C609 C122 1.679 . S
C629 C417 1.469 . S
C627 C21 1.518 . S
C645 C162 1.684 . S
C647 C345 1.614 . S
C665 C328 1.605 . S
C663 C221 1.657 . S
C681 C255 1.629 . S
C683 C354 1.554 . S
C699 C282 1.589 . S
C701 C334 1.569 . S
C719 C408 1.606 . S
C717 C181 1.775 . S
C737 C418 1.491 . S
C735 C202 1.573 . S
C755 C364 1.542 . S
C753 C242 1.640 . S
C771 C301 1.537 . S
C773 C381 1.479 . S
C791 C399 1.597 . S
C789 C215 1.728 . S
C809 C424 1.486 . S
C807 C261 1.577 . S
C827 C370 1.550 . S
C825 C295 1.629 . S
C843 C175 1.567 . S
C845 C390 1.471 . S
