# Generated by pormake.
# Topology ctn, (3,4)-cn, num edge types: 1
# Building blocks:
#     Node 0, Type 0, BuildingBlock: VETTIZ_charged_linker_0, # of connection points: 3
#     Node 1, Type 0, BuildingBlock: VETTIZ_charged_linker_0, # of connection points: 3
#     Node 2, Type 0, BuildingBlock: VETTIZ_charged_linker_0, # of connection points: 3
#     Node 3, Type 0, BuildingBlock: VETTIZ_charged_linker_0, # of connection points: 3
#     Node 4, Type 0, BuildingBlock: VETTIZ_charged_linker_0, # of connection points: 3
#     Node 5, Type 0, BuildingBlock: VETTIZ_charged_linker_0, # of connection points: 3
#     Node 6, Type 0, BuildingBlock: VETTIZ_charged_linker_0, # of connection points: 3
#     Node 7, Type 0, BuildingBlock: VETTIZ_charged_linker_0, # of connection points: 3
#     Node 8, Type 0, BuildingBlock: VETTIZ_charged_linker_0, # of connection points: 3
#     Node 9, Type 0, BuildingBlock: VETTIZ_charged_linker_0, # of connection points: 3
#     Node 10, Type 0, BuildingBlock: VETTIZ_charged_linker_0, # of connection points: 3
#     Node 11, Type 0, BuildingBlock: VETTIZ_charged_linker_0, # of connection points: 3
#     Node 12, Type 0, BuildingBlock: VETTIZ_charged_linker_0, # of connection points: 3
#     Node 13, Type 0, BuildingBlock: VETTIZ_charged_linker_0, # of connection points: 3
#     Node 14, Type 0, BuildingBlock: VETTIZ_charged_linker_0, # of connection points: 3
#     Node 15, Type 0, BuildingBlock: VETTIZ_charged_linker_0, # of connection points: 3
#     Node 16, Type 1, BuildingBlock: AZAVOO_clean_sbu_0, # of connection points: 4
#     Node 17, Type 1, BuildingBlock: AZAVOO_clean_sbu_0, # of connection points: 4
#     Node 18, Type 1, BuildingBlock: AZAVOO_clean_sbu_0, # of connection points: 4
#     Node 19, Type 1, BuildingBlock: AZAVOO_clean_sbu_0, # of connection points: 4
#     Node 20, Type 1, BuildingBlock: AZAVOO_clean_sbu_0, # of connection points: 4
#     Node 21, Type 1, BuildingBlock: AZAVOO_clean_sbu_0, # of connection points: 4
#     Node 22, Type 1, BuildingBlock: AZAVOO_clean_sbu_0, # of connection points: 4
#     Node 23, Type 1, BuildingBlock: AZAVOO_clean_sbu_0, # of connection points: 4
#     Node 24, Type 1, BuildingBlock: AZAVOO_clean_sbu_0, # of connection points: 4
#     Node 25, Type 1, BuildingBlock: AZAVOO_clean_sbu_0, # of connection points: 4
#     Node 26, Type 1, BuildingBlock: AZAVOO_clean_sbu_0, # of connection points: 4
#     Node 27, Type 1, BuildingBlock: AZAVOO_clean_sbu_0, # of connection points: 4
#     Edge 28, Type (0, 1), BuildingBlock: XUDNAN_clean_linker_2, # of connection points: 2
#     Edge 29, Type (0, 1), BuildingBlock: XUDNAN_clean_linker_2, # of connection points: 2
#     Edge 30, Type (0, 1), BuildingBlock: XUDNAN_clean_linker_2, # of connection points: 2
#     Edge 31, Type (0, 1), BuildingBlock: XUDNAN_clean_linker_2, # of connection points: 2
#     Edge 32, Type (0, 1), BuildingBlock: XUDNAN_clean_linker_2, # of connection points: 2
#     Edge 33, Type (0, 1), BuildingBlock: XUDNAN_clean_linker_2, # of connection points: 2
#     Edge 34, Type (0, 1), BuildingBlock: XUDNAN_clean_linker_2, # of connection points: 2
#     Edge 35, Type (0, 1), BuildingBlock: XUDNAN_clean_linker_2, # of connection points: 2
#     Edge 36, Type (0, 1), BuildingBlock: XUDNAN_clean_linker_2, # of connection points: 2
#     Edge 37, Type (0, 1), BuildingBlock: XUDNAN_clean_linker_2, # of connection points: 2
#     Edge 38, Type (0, 1), BuildingBlock: XUDNAN_clean_linker_2, # of connection points: 2
#     Edge 39, Type (0, 1), BuildingBlock: XUDNAN_clean_linker_2, # of connection points: 2
#     Edge 40, Type (0, 1), BuildingBlock: XUDNAN_clean_linker_2, # of connection points: 2
#     Edge 41, Type (0, 1), BuildingBlock: XUDNAN_clean_linker_2, # of connection points: 2
#     Edge 42, Type (0, 1), BuildingBlock: XUDNAN_clean_linker_2, # of connection points: 2
#     Edge 43, Type (0, 1), BuildingBlock: XUDNAN_clean_linker_2, # of connection points: 2
#     Edge 44, Type (0, 1), BuildingBlock: XUDNAN_clean_linker_2, # of connection points: 2
#     Edge 45, Type (0, 1), BuildingBlock: XUDNAN_clean_linker_2, # of connection points: 2
#     Edge 46, Type (0, 1), BuildingBlock: XUDNAN_clean_linker_2, # of connection points: 2
#     Edge 47, Type (0, 1), BuildingBlock: XUDNAN_clean_linker_2, # of connection points: 2
#     Edge 48, Type (0, 1), BuildingBlock: XUDNAN_clean_linker_2, # of connection points: 2
#     Edge 49, Type (0, 1), BuildingBlock: XUDNAN_clean_linker_2, # of connection points: 2
#     Edge 50, Type (0, 1), BuildingBlock: XUDNAN_clean_linker_2, # of connection points: 2
#     Edge 51, Type (0, 1), BuildingBlock: XUDNAN_clean_linker_2, # of connection points: 2
#     Edge 52, Type (0, 1), BuildingBlock: XUDNAN_clean_linker_2, # of connection points: 2
#     Edge 53, Type (0, 1), BuildingBlock: XUDNAN_clean_linker_2, # of connection points: 2
#     Edge 54, Type (0, 1), BuildingBlock: XUDNAN_clean_linker_2, # of connection points: 2
#     Edge 55, Type (0, 1), BuildingBlock: XUDNAN_clean_linker_2, # of connection points: 2
#     Edge 56, Type (0, 1), BuildingBlock: XUDNAN_clean_linker_2, # of connection points: 2
#     Edge 57, Type (0, 1), BuildingBlock: XUDNAN_clean_linker_2, # of connection points: 2
#     Edge 58, Type (0, 1), BuildingBlock: XUDNAN_clean_linker_2, # of connection points: 2
#     Edge 59, Type (0, 1), BuildingBlock: XUDNAN_clean_linker_2, # of connection points: 2
#     Edge 60, Type (0, 1), BuildingBlock: XUDNAN_clean_linker_2, # of connection points: 2
#     Edge 61, Type (0, 1), BuildingBlock: XUDNAN_clean_linker_2, # of connection points: 2
#     Edge 62, Type (0, 1), BuildingBlock: XUDNAN_clean_linker_2, # of connection points: 2
#     Edge 63, Type (0, 1), BuildingBlock: XUDNAN_clean_linker_2, # of connection points: 2
#     Edge 64, Type (0, 1), BuildingBlock: XUDNAN_clean_linker_2, # of connection points: 2
#     Edge 65, Type (0, 1), BuildingBlock: XUDNAN_clean_linker_2, # of connection points: 2
#     Edge 66, Type (0, 1), BuildingBlock: XUDNAN_clean_linker_2, # of connection points: 2
#     Edge 67, Type (0, 1), BuildingBlock: XUDNAN_clean_linker_2, # of connection points: 2
#     Edge 68, Type (0, 1), BuildingBlock: XUDNAN_clean_linker_2, # of connection points: 2
#     Edge 69, Type (0, 1), BuildingBlock: XUDNAN_clean_linker_2, # of connection points: 2
#     Edge 70, Type (0, 1), BuildingBlock: XUDNAN_clean_linker_2, # of connection points: 2
#     Edge 71, Type (0, 1), BuildingBlock: XUDNAN_clean_linker_2, # of connection points: 2
#     Edge 72, Type (0, 1), BuildingBlock: XUDNAN_clean_linker_2, # of connection points: 2
#     Edge 73, Type (0, 1), BuildingBlock: XUDNAN_clean_linker_2, # of connection points: 2
#     Edge 74, Type (0, 1), BuildingBlock: XUDNAN_clean_linker_2, # of connection points: 2
#     Edge 75, Type (0, 1), BuildingBlock: XUDNAN_clean_linker_2, # of connection points: 2
# Relax obj value: 0.002
# Max RMSD: 0.044
# Mean RMSD: 0.024
data_MOF--net-ctn--node1-AZAVOO_clean_sbu_0--node2-VETTIZ_charged_linker_0--edge1-XUDNAN_clean_linker_2
_symmetry_space_group_name_H-M    P1
_symmetry_Int_Tables_number       1
_symmetry_cell_setting            triclinic
loop_
_symmetry_equiv_pos_as_xyz
'x, y, z'
_cell_length_a     66.26086
_cell_length_b     67.193374
_cell_length_c     67.22667
_cell_angle_alpha  90.11898
_cell_angle_beta   92.701666
_cell_angle_gamma 92.940948
loop_
_atom_site_label
_atom_site_type_symbol
_atom_site_fract_x
_atom_site_fract_y
_atom_site_fract_z
_atom_type_partial_charge
C0 C 0.01645 0.07858 0.97819 0.0
C1 C 0.99837 0.08858 0.97982 0.0
C2 C 0.98256 0.07919 0.99031 0.0
C3 C 0.00395 0.05244 0.99998 0.0
C4 C 0.01877 0.06043 0.98815 0.0
C5 C 0.03667 0.04747 0.98779 0.0
H6 H 0.08388 0.96691 0.02379 0.0
C7 C 0.01166 0.03466 0.00994 0.0
C8 C 0.03066 0.03132 0.00254 0.0
H9 H 0.10265 0.00634 0.97655 0.0
H10 H 0.07304 0.02537 0.98027 0.0
H11 H 0.07252 1.00059 0.05224 0.0
H12 H 0.03577 0.96347 0.01124 0.0
H13 H 0.02383 0.96412 0.03415 0.0
H14 H 0.04863 0.95453 0.03332 0.0
H15 H 0.06322 0.97616 0.05908 0.0
H16 H 0.04876 0.99787 0.06262 0.0
C17 C 0.05581 0.05992 0.99534 0.0
C18 C 0.03788 0.03908 0.96639 0.0
C19 C 0.97491 0.00543 0.06862 0.0
C20 C 0.98019 0.99145 0.0833 0.0
C21 C 0.99779 0.9808 0.08104 0.0
C22 C 0.01008 0.9844 0.06487 0.0
C23 C 0.00501 0.99904 0.05088 0.0
C24 C 0.98764 0.00922 0.05286 0.0
C25 C 0.98524 0.02511 0.03733 0.0
C26 C 0.00424 0.02296 0.02585 0.0
C27 C 0.01565 0.00756 0.03375 0.0
C28 C 0.98531 0.04545 0.04826 0.0
C29 C 0.96573 0.01989 0.02431 0.0
C30 C 0.08176 0.97972 0.01431 0.0
C31 C 0.09569 0.98505 0.99982 0.0
C32 C 0.09206 0.00171 0.98765 0.0
C33 C 0.07489 0.01278 0.98986 0.0
C34 C 0.06114 0.00718 0.00439 0.0
C35 C 0.06474 0.99092 0.01634 0.0
C36 C 0.04872 0.98728 0.03122 0.0
C37 C 0.03438 0.00346 0.02559 0.0
C38 C 0.04182 0.01521 0.01001 0.0
C39 C 0.05869 0.99048 0.05242 0.0
C40 C 0.03869 0.96621 0.02747 0.0
H41 H 0.97287 0.05523 0.00851 0.0
H42 H 0.02883 0.08498 0.96996 0.0
H43 H 0.02276 0.03819 0.9584 0.0
H44 H 0.04286 0.02362 0.96627 0.0
H45 H 0.04813 0.04865 0.95743 0.0
H46 H 0.05267 0.06847 0.00895 0.0
H47 H 0.0608 0.07075 0.98388 0.0
H48 H 0.06859 0.05067 0.99957 0.0
H49 H 0.96136 0.01365 0.06953 0.0
H50 H 0.00256 0.97015 0.09213 0.0
H51 H 0.02333 0.97596 0.06415 0.0
H52 H 0.99778 0.04666 0.05995 0.0
H53 H 0.97083 0.04712 0.05565 0.0
H54 H 0.98778 0.05836 0.03848 0.0
H55 H 0.96151 0.00365 0.02461 0.0
H56 H 0.96764 0.02327 0.00836 0.0
H57 H 0.95269 0.02787 0.02956 0.0
H58 H 0.96807 0.08583 0.99104 0.0
C59 C 0.98529 0.0613 1.00042 0.0
C60 C 0.26129 0.66591 0.23798 0.0
C61 C 0.24294 0.6636 0.22661 0.0
C62 C 0.23832 0.67791 0.21203 0.0
C63 C 0.26971 0.69674 0.22065 0.0
C64 C 0.27432 0.68263 0.23488 0.0
C65 C 0.29389 0.68802 0.24641 0.0
H66 H 0.37449 0.75323 0.26329 0.0
C67 C 0.28596 0.71268 0.2217 0.0
C68 C 0.30013 0.70775 0.23688 0.0
H69 H 0.36195 0.69722 0.29294 0.0
H70 H 0.3309 0.692 0.27282 0.0
H71 H 0.33072 0.76812 0.26331 0.0
H72 H 0.36149 0.73694 0.21879 0.0
H73 H 0.34841 0.75594 0.20673 0.0
H74 H 0.36775 0.76241 0.2257 0.0
H75 H 0.34859 0.7807 0.24783 0.0
H76 H 0.32209 0.77746 0.24027 0.0
C77 C 0.28925 0.69059 0.26861 0.0
C78 C 0.30893 0.67173 0.24245 0.0
C79 C 0.28343 0.77112 0.17374 0.0
C80 C 0.2958 0.7886 0.17186 0.0
C81 C 0.31256 0.79212 0.18528 0.0
C82 C 0.31721 0.77825 0.20012 0.0
C83 C 0.30488 0.7607 0.20168 0.0
C84 C 0.28813 0.75751 0.18882 0.0
C85 C 0.27618 0.73855 0.1934 0.0
C86 C 0.28886 0.7306 0.21076 0.0
C87 C 0.30572 0.74356 0.2154 0.0
C88 C 0.25491 0.74405 0.19965 0.0
C89 C 0.27596 0.72471 0.17495 0.0
C90 C 0.36519 0.73972 0.26534 0.0
C91 C 0.37078 0.72557 0.27966 0.0
C92 C 0.35794 0.70843 0.28211 0.0
C93 C 0.33996 0.70537 0.27033 0.0
C94 C 0.3347 0.71963 0.25596 0.0
C95 C 0.34725 0.73646 0.25372 0.0
C96 C 0.33937 0.75007 0.23779 0.0
C97 C 0.32006 0.7386 0.2307 0.0
C98 C 0.31734 0.72078 0.24136 0.0
C99 C 0.33505 0.77022 0.24763 0.0
C100 C 0.35502 0.75163 0.22137 0.0
H101 H 0.2472 0.70474 0.19763 0.0
H102 H 0.26512 0.65529 0.24947 0.0
H103 H 0.3073 0.66657 0.22669 0.0
H104 H 0.3249 0.67713 0.24459 0.0
H105 H 0.30618 0.65856 0.25209 0.0
H106 H 0.27451 0.69755 0.27007 0.0
H107 H 0.28836 0.67597 0.2763 0.0
H108 H 0.30042 0.70065 0.27681 0.0
H109 H 0.27023 0.76823 0.16383 0.0
H110 H 0.32229 0.80547 0.18404 0.0
H111 H 0.33029 0.7817 0.20975 0.0
H112 H 0.25532 0.75922 0.20639 0.0
H113 H 0.24392 0.74387 0.18664 0.0
H114 H 0.24891 0.73413 0.21132 0.0
H115 H 0.29117 0.72501 0.16856 0.0
H116 H 0.27234 0.70893 0.17843 0.0
H117 H 0.265 0.72954 0.16314 0.0
H118 H 0.22434 0.67635 0.203 0.0
C119 C 0.25162 0.69438 0.20893 0.0
C120 C 0.99708 0.42624 0.00817 0.0
C121 C 0.98397 0.4198 0.99212 0.0
C122 C 0.9655 0.42902 0.98882 0.0
C123 C 0.97348 0.45087 0.01718 0.0
C124 C 0.99146 0.44161 0.02056 0.0
C125 C 0.00313 0.44955 0.0389 0.0
H126 H 0.00908 0.51085 0.11935 0.0
C127 C 0.97216 0.46622 0.03282 0.0
C128 C 0.98942 0.46544 0.04567 0.0
H129 H 0.05068 0.46663 0.10329 0.0
H130 H 0.03061 0.45908 0.07317 0.0
H131 H 0.96716 0.48479 0.10595 0.0
H132 H 0.00381 0.52904 0.07586 0.0
H133 H 0.97854 0.53236 0.06809 0.0
H134 H 0.98639 0.53587 0.09403 0.0
H135 H 0.97039 0.51038 0.11381 0.0
H136 H 0.95145 0.50259 0.095 0.0
C137 C 0.00471 0.43231 0.05411 0.0
C138 C 0.02375 0.4587 0.03251 0.0
C139 C 0.91172 0.50981 0.03173 0.0
C140 C 0.90661 0.52591 0.04353 0.0
C141 C 0.92 0.5325 0.05937 0.0
C142 C 0.93801 0.52288 0.06368 0.0
C143 C 0.94279 0.5066 0.0519 0.0
C144 C 0.92987 0.50056 0.03603 0.0
C145 C 0.93776 0.48362 0.02456 0.0
C146 C 0.95746 0.48034 0.03623 0.0
C147 C 0.96023 0.49365 0.0524 0.0
C148 C 0.9225 0.46544 0.02585 0.0
C149 C 0.94137 0.49091 0.0031 0.0
C150 C 0.01375 0.49945 0.10939 0.0
C151 C 0.03146 0.48926 0.11379 0.0
C152 C 0.03723 0.47482 0.10021 0.0
C153 C 0.02545 0.47034 0.08277 0.0
C154 C 0.00764 0.48037 0.07874 0.0
C155 C 0.00215 0.49483 0.09181 0.0
C156 C 0.98294 0.50425 0.08477 0.0
C157 C 0.97745 0.49253 0.06574 0.0
C158 C 0.99198 0.47855 0.06232 0.0
C159 C 0.96707 0.50048 0.10069 0.0
C160 C 0.988 0.52658 0.08056 0.0
H161 H 0.94599 0.45101 0.99783 0.0
H162 H 0.0112 0.41915 0.01128 0.0
H163 H 0.02194 0.46667 0.01809 0.0
H164 H 0.03049 0.47002 0.0431 0.0
H165 H 0.0347 0.44696 0.03056 0.0
H166 H 0.99118 0.4218 0.0527 0.0
H167 H 0.01822 0.42362 0.05175 0.0
H168 H 0.00514 0.43748 0.06973 0.0
H169 H 0.90186 0.50462 0.01927 0.0
H170 H 0.91631 0.54486 0.06868 0.0
H171 H 0.94746 0.52841 0.07608 0.0
H172 H 0.91528 0.46508 0.04047 0.0
H173 H 0.91025 0.46597 0.01403 0.0
H174 H 0.92973 0.45103 0.02494 0.0
H175 H 0.94713 0.50676 0.00316 0.0
H176 H 0.953 0.48274 0.99575 0.0
H177 H 0.92711 0.48983 0.99369 0.0
H178 H 0.95519 0.42428 0.97652 0.0
C179 C 0.96023 0.44457 0.00118 0.0
C180 C 0.65372 0.82109 0.25554 0.0
C181 C 0.63905 0.80522 0.25485 0.0
C182 C 0.64023 0.79006 0.24049 0.0
C183 C 0.67102 0.80606 0.22867 0.0
C184 C 0.66962 0.82109 0.24253 0.0
C185 C 0.68733 0.83601 0.24243 0.0
H186 H 0.78187 0.86019 0.21473 0.0
C187 C 0.6902 0.8097 0.21852 0.0
C188 C 0.69991 0.82709 0.22667 0.0
H189 H 0.74346 0.89431 0.25094 0.0
H190 H 0.71636 0.86987 0.2453 0.0
H191 H 0.7458 0.85358 0.18025 0.0
H192 H 0.76729 0.81551 0.22741 0.0
H193 H 0.76388 0.80147 0.2052 0.0
H194 H 0.78207 0.82236 0.20652 0.0
H195 H 0.76916 0.84136 0.17904 0.0
H196 H 0.74531 0.82921 0.17079 0.0
C197 C 0.67942 0.85649 0.23602 0.0
C198 C 0.69823 0.83599 0.26334 0.0
C199 C 0.70856 0.76307 0.1634 0.0
C200 C 0.72576 0.76188 0.15209 0.0
C201 C 0.74268 0.775 0.15647 0.0
C202 C 0.7422 0.78957 0.17142 0.0
C203 C 0.72465 0.79097 0.18222 0.0
C204 C 0.70838 0.77756 0.1784 0.0
C205 C 0.69143 0.78053 0.19205 0.0
C206 C 0.69964 0.79874 0.20378 0.0
C207 C 0.71912 0.80483 0.19798 0.0
C208 C 0.67219 0.78495 0.17919 0.0
C209 C 0.68909 0.76182 0.20542 0.0
C210 C 0.76766 0.86256 0.22144 0.0
C211 C 0.7654 0.87906 0.23409 0.0
C212 C 0.74629 0.88141 0.24203 0.0
C213 C 0.73031 0.86726 0.23854 0.0
C214 C 0.73311 0.85057 0.22666 0.0
C215 C 0.75124 0.84876 0.21769 0.0
C216 C 0.75045 0.8311 0.20371 0.0
C217 C 0.72919 0.82221 0.20661 0.0
C218 C 0.71934 0.83352 0.22041 0.0
C219 C 0.75293 0.83904 0.1823 0.0
C220 C 0.76683 0.81681 0.2109 0.0
H221 H 0.65618 0.77845 0.2168 0.0
H222 H 0.65334 0.83281 0.26659 0.0
H223 H 0.69992 0.82045 0.26862 0.0
H224 H 0.71367 0.84292 0.26365 0.0
H225 H 0.68947 0.84382 0.27437 0.0
H226 H 0.66464 0.85483 0.22747 0.0
H227 H 0.67726 0.8661 0.24913 0.0
H228 H 0.68962 0.86454 0.22581 0.0
H229 H 0.69551 0.75289 0.16063 0.0
H230 H 0.7561 0.77432 0.14795 0.0
H231 H 0.75545 0.79927 0.17393 0.0
H232 H 0.67591 0.79578 0.16725 0.0
H233 H 0.66542 0.77114 0.17195 0.0
H234 H 0.66053 0.79177 0.18778 0.0
H235 H 0.70337 0.75381 0.2069 0.0
H236 H 0.68572 0.7656 0.2209 0.0
H237 H 0.67712 0.75109 0.19919 0.0
H238 H 0.629 0.77775 0.23961 0.0
C239 C 0.65605 0.79046 0.22732 0.0
C240 C 0.05001 0.92434 0.52408 0.0
C241 C 0.03468 0.90948 0.52006 0.0
C242 C 0.02224 0.91062 0.50259 0.0
C243 C 0.0401 0.94147 0.49362 0.0
C244 C 0.05261 0.94002 0.51056 0.0
C245 C 0.06903 0.95636 0.51181 0.0
H246 H 0.11368 0.03908 0.47206 0.0
C247 C 0.04673 0.95961 0.48278 0.0
C248 C 0.0638 0.9683 0.49327 0.0
H249 H 0.13363 0.00623 0.52398 0.0
H250 H 0.10447 0.98339 0.51976 0.0
H251 H 0.06744 0.03834 0.48218 0.0
H252 H 0.0998 1.00041 0.44462 0.0
H253 H 0.07737 0.00689 0.43162 0.0
H254 H 0.09589 0.02617 0.4394 0.0
H255 H 0.07346 0.04555 0.45739 0.0
H256 H 0.05052 0.03105 0.46233 0.0
C257 C 0.06664 0.96851 0.53107 0.0
C258 C 0.08974 0.94673 0.51066 0.0
C259 C 0.00658 0.98096 0.42072 0.0
C260 C 0.00791 0.99807 0.40878 0.0
C261 C 0.02349 0.01273 0.41306 0.0
C262 C 0.03763 0.01035 0.42894 0.0
C263 C 0.03608 0.99322 0.44084 0.0
C264 C 0.02061 0.97898 0.43678 0.0
C265 C 0.02065 0.96235 0.45175 0.0
C266 C 0.03875 0.9689 0.46535 0.0
C267 C 0.04789 0.98685 0.45872 0.0
C268 C 1.00055 0.96235 0.46264 0.0
C269 C 0.0241 0.94267 0.44066 0.0
C270 C 0.11167 0.02706 0.48261 0.0
C271 C 0.12609 0.02439 0.49829 0.0
C272 C 0.12295 0.00844 0.51159 0.0
C273 C 0.10596 0.99521 0.50914 0.0
C274 C 0.09191 0.99781 0.49317 0.0
C275 C 0.09483 0.01359 0.48028 0.0
C276 C 0.07838 0.0139 0.46406 0.0
C277 C 0.06547 0.99539 0.46903 0.0
C278 C 0.07341 0.98611 0.48616 0.0
C279 C 0.06685 0.03322 0.4664 0.0
C280 C 0.08824 0.01186 0.44377 0.0
H281 H 0.01478 0.92667 0.47639 0.0
H282 H 0.06004 0.92349 0.53722 0.0
H283 H 0.08823 0.93232 0.50239 0.0
H284 H 0.10075 0.95595 0.50234 0.0
H285 H 0.0964 0.94368 0.52575 0.0
H286 H 0.05042 0.97116 0.5331 0.0
H287 H 0.07242 0.96041 0.54437 0.0
H288 H 0.07436 0.98345 0.53081 0.0
H289 H 0.99456 0.96961 0.4179 0.0
H290 H 0.02479 0.026 0.40399 0.0
H291 H 0.04918 0.02199 0.43137 0.0
H292 H 0.9962 0.97786 0.46539 0.0
H293 H 0.98801 0.95464 0.4536 0.0
H294 H 0.00153 0.95545 0.4775 0.0
H295 H 0.03429 0.94536 0.42813 0.0
H296 H 0.03176 0.93172 0.45021 0.0
H297 H 0.00961 0.93575 0.43433 0.0
H298 H 0.01045 0.89917 0.49924 0.0
C299 C 0.02478 0.92659 0.4894 0.0
C300 C 0.26482 0.66623 0.78188 0.0
C301 C 0.26432 0.65402 0.76488 0.0
C302 C 0.25014 0.65759 0.74911 0.0
C303 C 0.23638 0.68409 0.76826 0.0
C304 C 0.25084 0.68097 0.78328 0.0
C305 C 0.2492 0.69449 0.80082 0.0
H306 H 0.19883 0.76301 0.84932 0.0
C307 C 0.22335 0.69981 0.7752 0.0
C308 C 0.23092 0.70587 0.79428 0.0
H309 H 0.25362 0.73486 0.86834 0.0
H310 H 0.25365 0.7174 0.8371 0.0
H311 H 0.17642 0.72652 0.83268 0.0
H312 H 0.21185 0.77042 0.80127 0.0
H313 H 0.18854 0.76561 0.78792 0.0
H314 H 0.18872 0.77506 0.81297 0.0
H315 H 0.16563 0.74881 0.82345 0.0
H316 H 0.16558 0.72651 0.80836 0.0
C317 C 0.24513 0.68133 0.8193 0.0
C318 C 0.26874 0.70824 0.80278 0.0
C319 C 0.16252 0.72164 0.73257 0.0
C320 C 0.14658 0.73409 0.7365 0.0
C321 C 0.14631 0.74276 0.75567 0.0
C322 C 0.16182 0.74005 0.77007 0.0
C323 C 0.17773 0.72806 0.76572 0.0
C324 C 0.17767 0.7186 0.74747 0.0
C325 C 0.19484 0.70473 0.74648 0.0
C326 C 0.2056 0.70824 0.7668 0.0
C327 C 0.19556 0.72218 0.77784 0.0
C328 C 0.1856 0.68317 0.74414 0.0
C329 C 0.20833 0.71151 0.72936 0.0
C330 C 0.21096 0.75332 0.84651 0.0
C331 C 0.2262 0.75018 0.86126 0.0
C332 C 0.24164 0.73731 0.85722 0.0
C333 C 0.24161 0.72719 0.83905 0.0
C334 C 0.22588 0.72977 0.82471 0.0
C335 C 0.21106 0.74287 0.82838 0.0
C336 C 0.19539 0.74333 0.81143 0.0
C337 C 0.20342 0.72845 0.79701 0.0
C338 C 0.22116 0.72051 0.80499 0.0
C339 C 0.17462 0.73607 0.81927 0.0
C340 C 0.19595 0.76471 0.8029 0.0
H341 H 0.2256 0.67449 0.73835 0.0
H342 H 0.27584 0.66424 0.79405 0.0
H343 H 0.2754 0.71084 0.78805 0.0
H344 H 0.26594 0.72333 0.80828 0.0
H345 H 0.28045 0.70159 0.81269 0.0
H346 H 0.23506 0.66806 0.81513 0.0
H347 H 0.25944 0.67586 0.82603 0.0
H348 H 0.23715 0.68899 0.83089 0.0
H349 H 0.1634 0.71445 0.71825 0.0
H350 H 0.13395 0.75155 0.75986 0.0
H351 H 0.16067 0.74729 0.78416 0.0
H352 H 0.17179 0.68105 0.75285 0.0
H353 H 0.18122 0.6797 0.72831 0.0
H354 H 0.19582 0.67187 0.74994 0.0
H355 H 0.21088 0.728 0.7295 0.0
H356 H 0.22351 0.70548 0.73065 0.0
H357 H 0.20109 0.70708 0.71467 0.0
H358 H 0.24953 0.64846 0.73578 0.0
C359 C 0.23616 0.67257 0.75071 0.0
C360 C 0.91073 0.4857 0.48149 0.0
C361 C 0.90547 0.46633 0.47412 0.0
C362 C 0.91929 0.4573 0.46189 0.0
C363 C 0.94237 0.48651 0.46465 0.0
C364 C 0.92931 0.49511 0.47712 0.0
C365 C 0.93806 0.51442 0.48599 0.0
H366 H 0.01698 0.58197 0.49678 0.0
C367 C 0.96055 0.5001 0.46343 0.0
C368 C 0.95831 0.51622 0.47638 0.0
H369 H 0.95959 0.58196 0.52509 0.0
H370 H 0.94855 0.55171 0.50774 0.0
H371 H 0.99771 0.57474 0.45547 0.0
H372 H 0.0236 0.53404 0.49725 0.0
H373 H 0.03271 0.52923 0.47354 0.0
H374 H 0.03754 0.55348 0.48469 0.0
H375 H 0.02416 0.57034 0.45606 0.0
H376 H 0.00598 0.55551 0.44071 0.0
C377 C 0.92422 0.53127 0.47923 0.0
C378 C 0.94045 0.51182 0.5089 0.0
C379 C 0.01274 0.48846 0.41181 0.0
C380 C 0.02998 0.49988 0.4063 0.0
C381 C 0.03652 0.5168 0.41772 0.0
C382 C 0.02579 0.52267 0.43398 0.0
C383 C 0.00814 0.51167 0.43884 0.0
C384 C 0.00194 0.49474 0.42801 0.0
C385 C 0.98265 0.48511 0.43543 0.0
C386 C 0.97784 0.4997 0.4517 0.0
C387 C 0.99299 0.51506 0.45373 0.0
C388 C 0.96642 0.48446 0.4181 0.0
C389 C 0.98732 0.46435 0.44398 0.0
C390 C 0.00198 0.57561 0.49928 0.0
C391 C 0.98933 0.5845 0.51265 0.0
C392 C 0.96998 0.57535 0.51537 0.0
C393 C 0.96347 0.5578 0.5051 0.0
C394 C 0.9763 0.54927 0.49176 0.0
C395 C 0.99509 0.55834 0.48886 0.0
C396 C 0.00609 0.54812 0.47298 0.0
C397 C 0.99122 0.53079 0.46758 0.0
C398 C 0.97387 0.53148 0.47869 0.0
C399 C 0.0088 0.56285 0.4554 0.0
C400 C 0.02614 0.54087 0.48246 0.0
H401 H 0.94725 0.45966 0.44763 0.0
H402 H 0.90082 0.49358 0.49069 0.0
H403 H 0.94376 0.4962 0.51285 0.0
H404 H 0.95333 0.52089 0.51572 0.0
H405 H 0.92641 0.51543 0.51624 0.0
H406 H 0.91871 0.52902 0.46346 0.0
H407 H 0.91077 0.53159 0.48847 0.0
H408 H 0.93214 0.54614 0.47966 0.0
H409 H 0.00742 0.47536 0.40332 0.0
H410 H 0.04996 0.5256 0.41398 0.0
H411 H 0.03156 0.5357 0.44199 0.0
H412 H 0.96584 0.49927 0.4108 0.0
H413 H 0.96992 0.47337 0.40665 0.0
H414 H 0.95104 0.48073 0.42298 0.0
H415 H 0.00348 0.46373 0.44912 0.0
H416 H 0.97874 0.46068 0.45734 0.0
H417 H 0.98412 0.45244 0.43261 0.0
H418 H 0.91644 0.44226 0.45635 0.0
C419 C 0.93749 0.46733 0.45697 0.0
C420 C 0.80551 0.73936 0.8322 0.0
C421 C 0.79273 0.74113 0.84825 0.0
C422 C 0.78025 0.75753 0.84863 0.0
C423 C 0.79247 0.76925 0.81715 0.0
C424 C 0.80521 0.75361 0.81694 0.0
C425 C 0.81805 0.75432 0.79899 0.0
H426 H 0.84248 0.79979 0.71261 0.0
C427 C 0.79537 0.78119 0.799 0.0
C428 C 0.81048 0.77263 0.7883 0.0
H429 H 0.86887 0.74802 0.73915 0.0
H430 H 0.8471 0.75009 0.76692 0.0
H431 H 0.83987 0.82525 0.7538 0.0
H432 H 0.79816 0.78623 0.71941 0.0
H433 H 0.78355 0.80443 0.7295 0.0
H434 H 0.80293 0.81175 0.71256 0.0
H435 H 0.82953 0.83126 0.72951 0.0
H436 H 0.81647 0.83654 0.75165 0.0
C437 C 0.8405 0.75734 0.80637 0.0
C438 C 0.81319 0.73506 0.78665 0.0
C439 C 0.7514 0.83991 0.78464 0.0
C440 C 0.74961 0.85306 0.76842 0.0
C441 C 0.76218 0.85078 0.75226 0.0
C442 C 0.77637 0.83602 0.75236 0.0
C443 C 0.77801 0.82312 0.7687 0.0
C444 C 0.7655 0.82505 0.78438 0.0
C445 C 0.76887 0.80954 0.80013 0.0
C446 C 0.78554 0.79805 0.79134 0.0
C447 C 0.79093 0.80619 0.77303 0.0
C448 C 0.77618 0.82033 0.81978 0.0
C449 C 0.74895 0.79657 0.80147 0.0
C450 C 0.84357 0.7888 0.72432 0.0
C451 C 0.85742 0.77367 0.72356 0.0
C452 C 0.8585 0.75995 0.7394 0.0
C453 C 0.84574 0.7611 0.75547 0.0
C454 C 0.83173 0.77614 0.75576 0.0
C455 C 0.83093 0.7897 0.74035 0.0
C456 C 0.81498 0.80451 0.74279 0.0
C457 C 0.80648 0.79785 0.76237 0.0
C458 C 0.81628 0.7812 0.76995 0.0
C459 C 0.8256 0.82557 0.74442 0.0
C460 C 0.79909 0.80181 0.72516 0.0
H461 H 0.7701 0.78349 0.83448 0.0
H462 H 0.81537 0.72706 0.83137 0.0
H463 H 0.79664 0.73121 0.78597 0.0
H464 H 0.81735 0.73654 0.77101 0.0
H465 H 0.82093 0.72227 0.79342 0.0
H466 H 0.84204 0.76709 0.81981 0.0
H467 H 0.847 0.74289 0.8104 0.0
H468 H 0.85001 0.76498 0.79538 0.0
H469 H 0.74221 0.84122 0.79742 0.0
H470 H 0.76093 0.86029 0.73932 0.0
H471 H 0.78547 0.8352 0.73964 0.0
H472 H 0.78528 0.83428 0.81673 0.0
H473 H 0.7632 0.82443 0.82852 0.0
H474 H 0.7864 0.81141 0.82921 0.0
H475 H 0.74144 0.79413 0.78644 0.0
H476 H 0.7513 0.78146 0.80722 0.0
H477 H 0.73813 0.80389 0.81087 0.0
H478 H 0.77075 0.7598 0.86103 0.0
C479 C 0.78 0.77147 0.83322 0.0
C480 C 0.31109 0.24915 0.34614 0.0
C481 C 0.29535 0.25009 0.35943 0.0
C482 C 0.28065 0.26437 0.35583 0.0
C483 C 0.29742 0.27591 0.3263 0.0
C484 C 0.31202 0.26229 0.33008 0.0
C485 C 0.3287 0.26399 0.31572 0.0
H486 H 0.36291 0.2982 0.22892 0.0
C487 C 0.30275 0.28703 0.30809 0.0
C488 C 0.32112 0.28012 0.30193 0.0
H489 H 0.3939 0.26299 0.27376 0.0
H490 H 0.36606 0.26495 0.29467 0.0
H491 H 0.35289 0.33023 0.26055 0.0
H492 H 0.31647 0.28128 0.23443 0.0
H493 H 0.30197 0.30258 0.23416 0.0
H494 H 0.32491 0.30289 0.22084 0.0
H495 H 0.34022 0.33224 0.23653 0.0
H496 H 0.32799 0.33797 0.25916 0.0
C497 C 0.34864 0.27078 0.32747 0.0
C498 C 0.32953 0.24374 0.30484 0.0
C499 C 0.25576 0.33797 0.27809 0.0
C500 C 0.25632 0.34951 0.26063 0.0
C501 C 0.27243 0.34748 0.2479 0.0
C502 C 0.28766 0.33429 0.25238 0.0
C503 C 0.28694 0.32293 0.26985 0.0
C504 C 0.27114 0.32477 0.28235 0.0
C505 C 0.27288 0.31126 0.30015 0.0
C506 C 0.29255 0.30144 0.29648 0.0
C507 C 0.30068 0.30835 0.27866 0.0
C508 C 0.27458 0.3243 0.31922 0.0
C509 C 0.25447 0.29609 0.29909 0.0
C510 C 0.36399 0.29099 0.24326 0.0
C511 C 0.38069 0.27964 0.24898 0.0
C512 C 0.38105 0.27091 0.26812 0.0
C513 C 0.3649 0.27233 0.28059 0.0
C514 C 0.34822 0.28311 0.27437 0.0
C515 C 0.34825 0.29284 0.25632 0.0
C516 C 0.33024 0.30554 0.25338 0.0
C517 C 0.31919 0.30121 0.27237 0.0
C518 C 0.32959 0.28763 0.28428 0.0
C519 C 0.33808 0.32765 0.25219 0.0
C520 C 0.31769 0.29786 0.23466 0.0
H521 H 0.26995 0.28766 0.33747 0.0
H522 H 0.32261 0.2384 0.34806 0.0
H523 H 0.3141 0.23826 0.29946 0.0
H524 H 0.33872 0.24456 0.29159 0.0
H525 H 0.33579 0.23232 0.31498 0.0
H526 H 0.34577 0.27739 0.3422 0.0
H527 H 0.35847 0.25809 0.33028 0.0
H528 H 0.35726 0.28273 0.31967 0.0
H529 H 0.24353 0.33904 0.28811 0.0
H530 H 0.27347 0.35637 0.23453 0.0
H531 H 0.29946 0.3335 0.24208 0.0
H532 H 0.28365 0.3384 0.31671 0.0
H533 H 0.25941 0.32833 0.32379 0.0
H534 H 0.28255 0.31708 0.33183 0.0
H535 H 0.25103 0.29094 0.28349 0.0
H536 H 0.25707 0.28241 0.30766 0.0
H537 H 0.24076 0.30289 0.30441 0.0
H538 H 0.26859 0.26598 0.36593 0.0
C539 C 0.28154 0.27715 0.33933 0.0
C540 C 0.49042 0.92006 0.50523 0.0
C541 C 0.4762 0.91468 0.48966 0.0
C542 C 0.46091 0.92779 0.48444 0.0
C543 C 0.47265 0.9501 0.51132 0.0
C544 C 0.48831 0.93782 0.51589 0.0
C545 C 0.50127 0.94548 0.5336 0.0
H546 H 0.51479 0.01062 0.61097 0.0
C547 C 0.47366 0.96654 0.526 0.0
C548 C 0.49055 0.96412 0.53902 0.0
H549 H 0.55204 0.96206 0.59684 0.0
H550 H 0.53146 0.95518 0.56668 0.0
H551 H 0.47149 0.98765 0.59878 0.0
H552 H 0.51111 0.02786 0.56705 0.0
H553 H 0.48624 0.03319 0.55952 0.0
H554 H 0.49475 0.03669 0.58529 0.0
H555 H 0.47653 0.01335 0.60562 0.0
H556 H 0.45701 0.00602 0.58722 0.0
C557 C 0.50022 0.92954 0.55018 0.0
C558 C 0.52287 0.95056 0.52665 0.0
C559 C 0.4162 0.0137 0.52639 0.0
C560 C 0.4123 0.03003 0.53844 0.0
C561 C 0.42696 0.03668 0.55315 0.0
C562 C 0.4449 0.02663 0.55638 0.0
C563 C 0.44823 0.0098 0.54471 0.0
C564 C 0.43424 0.00397 0.52966 0.0
C565 C 0.44059 0.98632 0.51819 0.0
C566 C 0.46049 0.98215 0.52914 0.0
C567 C 0.46474 0.99572 0.54486 0.0
C568 C 0.42439 0.96911 0.52057 0.0
C569 C 0.44363 0.99284 0.49635 0.0
C570 C 0.51845 0.99844 0.60142 0.0
C571 C 0.53491 0.98671 0.60643 0.0
C572 C 0.53947 0.97133 0.59332 0.0
C573 C 0.52741 0.96728 0.57589 0.0
C574 C 0.51058 0.97872 0.57146 0.0
C575 C 0.5066 0.99425 0.58397 0.0
C576 C 0.48838 0.00513 0.57678 0.0
C577 C 0.48183 0.99336 0.55807 0.0
C578 C 0.49477 0.97776 0.5551 0.0
C579 C 0.47245 0.00312 0.59289 0.0
C580 C 0.4953 0.02691 0.572 0.0
H581 H 0.4469 0.95451 0.49056 0.0
H582 H 0.50233 0.91027 0.50958 0.0
H583 H 0.52238 0.95637 0.51116 0.0
H584 H 0.53096 0.9625 0.53565 0.0
H585 H 0.53203 0.93716 0.5269 0.0
H586 H 0.48449 0.92308 0.55112 0.0
H587 H 0.51012 0.91715 0.54712 0.0
H588 H 0.50438 0.93557 0.56515 0.0
H589 H 0.40533 0.0085 0.51475 0.0
H590 H 0.42424 0.04926 0.56258 0.0
H591 H 0.4553 0.03213 0.56807 0.0
H592 H 0.41939 0.96848 0.53614 0.0
H593 H 0.41082 0.97125 0.51061 0.0
H594 H 0.42995 0.95425 0.51767 0.0
H595 H 0.44744 0.00912 0.49534 0.0
H596 H 0.45651 0.98576 0.4898 0.0
H597 H 0.42973 0.98954 0.48679 0.0
H598 H 0.45003 0.92417 0.47227 0.0
C599 C 0.45912 0.94544 0.49509 0.0
C600 C 0.16459 0.31558 0.77074 0.0
C601 C 0.15152 0.29846 0.7721 0.0
C602 C 0.15269 0.28308 0.75791 0.0
C603 C 0.17987 0.30161 0.74208 0.0
C604 C 0.17871 0.31671 0.75588 0.0
C605 C 0.19451 0.33327 0.75325 0.0
H606 H 0.2748 0.37112 0.70432 0.0
C607 C 0.1967 0.30706 0.72914 0.0
C608 C 0.20549 0.3255 0.73574 0.0
H609 H 0.24564 0.39703 0.7537 0.0
H610 H 0.22183 0.36877 0.75423 0.0
H611 H 0.23291 0.35526 0.68038 0.0
H612 H 0.27435 0.32682 0.72117 0.0
H613 H 0.26636 0.30918 0.70277 0.0
H614 H 0.28025 0.33173 0.69581 0.0
H615 H 0.2582 0.35 0.67431 0.0
H616 H 0.23756 0.33168 0.67068 0.0
C617 C 0.18353 0.35251 0.74795 0.0
C618 C 0.20835 0.33479 0.7725 0.0
C619 C 0.21112 0.26182 0.67146 0.0
C620 C 0.22631 0.26232 0.65759 0.0
C621 C 0.24156 0.27773 0.65872 0.0
C622 C 0.24138 0.29278 0.67319 0.0
C623 C 0.22589 0.2923 0.6868 0.0
C624 C 0.21133 0.27677 0.68603 0.0
C625 C 0.19681 0.27797 0.70245 0.0
C626 C 0.20454 0.29721 0.71271 0.0
C627 C 0.22146 0.30564 0.70339 0.0
C628 C 0.17526 0.27967 0.69285 0.0
C629 C 0.19925 0.25959 0.71613 0.0
C630 C 0.26338 0.37062 0.71534 0.0
C631 C 0.2621 0.38642 0.72894 0.0
C632 C 0.24681 0.38524 0.74287 0.0
C633 C 0.23305 0.36873 0.74324 0.0
C634 C 0.23449 0.3531 0.72954 0.0
C635 C 0.24943 0.35421 0.71586 0.0
C636 C 0.24843 0.3363 0.70229 0.0
C637 C 0.23047 0.32426 0.71013 0.0
C638 C 0.22242 0.33418 0.72613 0.0
C639 C 0.24418 0.34353 0.68071 0.0
C640 C 0.26838 0.32541 0.70546 0.0
H641 H 0.16686 0.27235 0.7327 0.0
H642 H 0.16402 0.32786 0.78111 0.0
H643 H 0.21047 0.31979 0.77902 0.0
H644 H 0.22381 0.3408 0.76988 0.0
H645 H 0.2017 0.34405 0.78396 0.0
H646 H 0.16956 0.34904 0.73847 0.0
H647 H 0.17902 0.36018 0.76157 0.0
H648 H 0.19268 0.36308 0.73907 0.0
H649 H 0.19946 0.2499 0.67111 0.0
H650 H 0.2534 0.27832 0.64813 0.0
H651 H 0.25326 0.30424 0.67317 0.0
H652 H 0.1755 0.29034 0.68022 0.0
H653 H 0.16911 0.26502 0.68697 0.0
H654 H 0.1645 0.28542 0.70321 0.0
H655 H 0.21458 0.25367 0.71541 0.0
H656 H 0.19787 0.26321 0.73206 0.0
H657 H 0.18806 0.24729 0.71177 0.0
H658 H 0.14317 0.26955 0.75867 0.0
C659 C 0.16668 0.28461 0.74292 0.0
C660 C 0.76929 0.16335 0.72797 0.0
C661 C 0.75145 0.16096 0.71582 0.0
C662 C 0.74898 0.1732 0.69899 0.0
C663 C 0.78155 0.19018 0.7068 0.0
C664 C 0.78403 0.17814 0.72329 0.0
C665 C 0.80338 0.18356 0.73521 0.0
H666 H 0.88806 0.24432 0.74816 0.0
C667 C 0.79928 0.20442 0.70638 0.0
C668 C 0.81214 0.20069 0.72303 0.0
H669 H 0.86798 0.1959 0.78589 0.0
H670 H 0.83886 0.18889 0.7635 0.0
H671 H 0.84525 0.26184 0.74033 0.0
H672 H 0.87809 0.22099 0.70647 0.0
H673 H 0.86656 0.23708 0.68935 0.0
H674 H 0.88492 0.24716 0.70786 0.0
H675 H 0.86676 0.26975 0.72654 0.0
H676 H 0.84152 0.26822 0.71517 0.0
C677 C 0.79783 0.19043 0.75618 0.0
C678 C 0.8168 0.16538 0.73524 0.0
C679 C 0.80311 0.25607 0.65136 0.0
C680 C 0.8171 0.27191 0.64758 0.0
C681 C 0.83475 0.27453 0.66005 0.0
C682 C 0.83822 0.26187 0.67625 0.0
C683 C 0.82383 0.24644 0.68017 0.0
C684 C 0.80674 0.24363 0.66769 0.0
C685 C 0.7929 0.22676 0.67439 0.0
C686 C 0.80449 0.21993 0.69296 0.0
C687 C 0.82256 0.23153 0.69627 0.0
C688 C 0.77241 0.23537 0.67931 0.0
C689 C 0.79138 0.21058 0.65787 0.0
C690 C 0.87754 0.23204 0.7515 0.0
C691 C 0.88037 0.22067 0.76885 0.0
C692 C 0.86605 0.20506 0.77276 0.0
C693 C 0.84918 0.20095 0.75969 0.0
C694 C 0.84647 0.21264 0.74254 0.0
C695 C 0.8606 0.22781 0.73867 0.0
C696 C 0.85522 0.23889 0.71992 0.0
C697 C 0.8355 0.22793 0.71318 0.0
C698 C 0.83038 0.21256 0.72647 0.0
C699 C 0.85213 0.26088 0.72559 0.0
C700 C 0.87205 0.2361 0.70506 0.0
H701 H 0.76111 0.19653 0.68136 0.0
H702 H 0.77146 0.15431 0.74115 0.0
H703 H 0.81584 0.15796 0.72039 0.0
H704 H 0.83302 0.16948 0.73817 0.0
H705 H 0.81189 0.15417 0.74638 0.0
H706 H 0.78363 0.19862 0.75536 0.0
H707 H 0.79543 0.1775 0.76622 0.0
H708 H 0.80928 0.20104 0.76324 0.0
H709 H 0.78925 0.25383 0.64225 0.0
H710 H 0.84584 0.28651 0.65733 0.0
H711 H 0.85185 0.26477 0.68526 0.0
H712 H 0.77457 0.25098 0.68485 0.0
H713 H 0.76191 0.23543 0.66593 0.0
H714 H 0.76487 0.22727 0.69142 0.0
H715 H 0.80627 0.20911 0.65117 0.0
H716 H 0.78722 0.19557 0.66348 0.0
H717 H 0.78032 0.21441 0.64572 0.0
H718 H 0.73542 0.1715 0.68936 0.0
C719 C 0.76395 0.18769 0.69436 0.0
C720 C 0.53687 0.57782 0.47117 0.0
C721 C 0.52091 0.59081 0.47163 0.0
C722 C 0.50601 0.5875 0.48574 0.0
C723 C 0.52356 0.55928 0.49903 0.0
C724 C 0.53791 0.56226 0.48493 0.0
C725 C 0.55423 0.54752 0.48678 0.0
H726 H 0.59958 0.47588 0.54033 0.0
C727 C 0.52959 0.54245 0.51173 0.0
C728 C 0.54753 0.53546 0.50459 0.0
H729 H 0.61787 0.50187 0.48492 0.0
H730 H 0.58784 0.52103 0.48302 0.0
H731 H 0.58335 0.51531 0.56015 0.0
H732 H 0.55342 0.46776 0.52532 0.0
H733 H 0.53614 0.47476 0.54269 0.0
H734 H 0.55984 0.46492 0.55134 0.0
H735 H 0.57982 0.49026 0.56909 0.0
H736 H 0.56073 0.50812 0.57151 0.0
C737 C 0.57467 0.55928 0.49124 0.0
C738 C 0.55343 0.53476 0.46749 0.0
C739 C 0.48798 0.52211 0.57075 0.0
C740 C 0.49036 0.50771 0.58575 0.0
C741 C 0.5072 0.49568 0.58558 0.0
C742 C 0.52136 0.49791 0.57082 0.0
C743 C 0.51881 0.5124 0.55602 0.0
C744 C 0.50231 0.52417 0.55612 0.0
C745 C 0.50221 0.53892 0.5393 0.0
C746 C 0.52116 0.53379 0.52892 0.0
C747 C 0.53087 0.51833 0.53886 0.0
C748 C 0.5041 0.56017 0.54846 0.0
C749 C 0.48283 0.53452 0.5259 0.0
C750 C 0.597 0.48571 0.52781 0.0
C751 C 0.61105 0.48767 0.51286 0.0
C752 C 0.60716 0.50024 0.49657 0.0
C753 C 0.58981 0.51139 0.49558 0.0
C754 C 0.57616 0.5098 0.51098 0.0
C755 C 0.57958 0.49668 0.52645 0.0
C756 C 0.56285 0.49604 0.54083 0.0
C757 C 0.54915 0.51142 0.53182 0.0
C758 C 0.5572 0.51966 0.51454 0.0
C759 C 0.57203 0.50264 0.56157 0.0
C760 C 0.55252 0.47479 0.54023 0.0
H761 H 0.49549 0.57016 0.5098 0.0
H762 H 0.5487 0.58003 0.46069 0.0
H763 H 0.53787 0.53355 0.46044 0.0
H764 H 0.55729 0.51917 0.47034 0.0
H765 H 0.56362 0.54138 0.45635 0.0
H766 H 0.57296 0.57117 0.5025 0.0
H767 H 0.58024 0.56653 0.47757 0.0
H768 H 0.58658 0.54999 0.49759 0.0
H769 H 0.47517 0.53152 0.57032 0.0
H770 H 0.50967 0.48474 0.59713 0.0
H771 H 0.53386 0.48838 0.57165 0.0
H772 H 0.51385 0.56053 0.56241 0.0
H773 H 0.48906 0.56531 0.55221 0.0
H774 H 0.51146 0.57126 0.53871 0.0
H775 H 0.47916 0.51819 0.52476 0.0
H776 H 0.48445 0.53949 0.51039 0.0
H777 H 0.46961 0.54151 0.53205 0.0
H778 H 0.49339 0.59708 0.48624 0.0
C779 C 0.50723 0.57181 0.49938 0.0
C780 C 0.54957 0.42824 0.02049 0.0
C781 C 0.53401 0.41327 0.01811 0.0
C782 C 0.51925 0.41482 0.0025 0.0
C783 C 0.53589 0.44559 0.99158 0.0
C784 C 0.55032 0.44411 0.00696 0.0
C785 C 0.56653 0.46061 0.00646 0.0
H786 H 0.60814 0.54133 0.96043 0.0
C787 C 0.54146 0.46338 0.9797 0.0
C788 C 0.55945 0.47219 0.98823 0.0
H789 H 0.63016 0.5115 0.01346 0.0
H790 H 0.60096 0.48872 0.01177 0.0
H791 H 0.55919 0.53928 0.97205 0.0
H792 H 0.59397 0.50139 0.93627 0.0
H793 H 0.57038 0.50446 0.9239 0.0
H794 H 0.58757 0.52586 0.92826 0.0
H795 H 0.56965 0.54749 0.94911 0.0
H796 H 0.54567 0.53362 0.94935 0.0
C797 C 0.56585 0.47305 0.02583 0.0
C798 C 0.587 0.45106 0.00347 0.0
C799 C 0.49762 0.47953 0.91874 0.0
C800 C 0.49963 0.49328 0.90312 0.0
C801 C 0.51584 0.50779 0.90446 0.0
C802 C 0.53014 0.50803 0.92067 0.0
C803 C 0.52835 0.4935 0.93565 0.0
C804 C 0.51216 0.47968 0.93449 0.0
C805 C 0.51302 0.46459 0.95089 0.0
C806 C 0.53228 0.47169 0.96234 0.0
C807 C 0.54125 0.4887 0.95349 0.0
C808 C 0.49417 0.46653 0.9634 0.0
C809 C 0.51482 0.4437 0.94136 0.0
C810 C 0.60649 0.52998 0.97174 0.0
C811 C 0.62157 0.52809 0.98701 0.0
C812 C 0.61895 0.51306 0.00138 0.0
C813 C 0.60192 0.49985 1.00041 0.0
C814 C 0.58727 0.50149 0.98481 0.0
C815 C 0.58953 0.51646 0.97087 0.0
C816 C 0.57243 0.51552 0.95517 0.0
C817 C 0.55964 0.49759 0.96207 0.0
C818 C 0.56853 0.48944 0.97942 0.0
C819 C 0.5611 0.53501 0.95628 0.0
C820 C 0.58142 0.51174 0.93474 0.0
H821 H 0.5083 0.43123 0.9778 0.0
H822 H 0.56123 0.42729 0.03225 0.0
H823 H 0.58484 0.43735 0.99413 0.0
H824 H 0.59772 0.46079 0.99536 0.0
H825 H 0.5943 0.4468 0.01794 0.0
H826 H 0.55 0.47416 0.03034 0.0
H827 H 0.57448 0.46612 0.03833 0.0
H828 H 0.5716 0.48864 0.02412 0.0
H829 H 0.48522 0.46838 0.91853 0.0
H830 H 0.51793 0.51852 0.89265 0.0
H831 H 0.54231 0.5192 0.92068 0.0
H832 H 0.49096 0.48247 0.9655 0.0
H833 H 0.48056 0.45899 0.95589 0.0
H834 H 0.49615 0.4605 0.97859 0.0
H835 H 0.52198 0.44479 0.92673 0.0
H836 H 0.52471 0.43408 0.95037 0.0
H837 H 0.49972 0.43591 0.93879 0.0
H838 H 0.50706 0.40351 1.00052 0.0
C839 C 0.52001 0.43094 0.98934 0.0
C840 C 0.76872 0.16397 0.27881 0.0
C841 C 0.7705 0.15059 0.26293 0.0
C842 C 0.75726 0.15184 0.24597 0.0
C843 C 0.74055 0.17896 0.2611 0.0
C844 C 0.75375 0.17797 0.27756 0.0
C845 C 0.74984 0.19323 0.29314 0.0
H846 H 0.69698 0.27086 0.32231 0.0
C847 C 0.72641 0.19477 0.26479 0.0
C848 C 0.73179 0.20321 0.28353 0.0
H849 H 0.74675 0.24336 0.35384 0.0
H850 H 0.74833 0.21964 0.32738 0.0
H851 H 0.67363 0.23058 0.31192 0.0
H852 H 0.71295 0.26729 0.27641 0.0
H853 H 0.69014 0.26076 0.26264 0.0
H854 H 0.68931 0.27474 0.28533 0.0
H855 H 0.66434 0.25111 0.29787 0.0
H856 H 0.66509 0.22652 0.28706 0.0
C857 C 0.74432 0.1821 0.31248 0.0
C858 C 0.76878 0.20772 0.29542 0.0
C859 C 0.66972 0.20779 0.21366 0.0
C860 C 0.65255 0.21938 0.21388 0.0
C861 C 0.65036 0.23169 0.23067 0.0
C862 C 0.6648 0.23242 0.24666 0.0
C863 C 0.68153 0.22044 0.24623 0.0
C864 C 0.68359 0.20819 0.23003 0.0
C865 C 0.70125 0.19509 0.2329 0.0
C866 C 0.70958 0.20169 0.25341 0.0
C867 C 0.69821 0.21683 0.26099 0.0
C868 C 0.69299 0.17306 0.23267 0.0
C869 C 0.7164 0.20028 0.21661 0.0
C870 C 0.70818 0.25971 0.32361 0.0
C871 C 0.72207 0.25948 0.34016 0.0
C872 C 0.73629 0.24451 0.34108 0.0
C873 C 0.7371 0.23053 0.32572 0.0
C874 C 0.7234 0.23121 0.3092 0.0
C875 C 0.70903 0.24541 0.30845 0.0
C876 C 0.695 0.24308 0.2902 0.0
C877 C 0.70397 0.22574 0.27973 0.0
C878 C 0.72063 0.2189 0.29094 0.0
C879 C 0.67334 0.23767 0.29697 0.0
C880 C 0.69678 0.26248 0.27793 0.0
H881 H 0.73269 0.16602 0.2317 0.0
H882 H 0.77885 0.16367 0.29192 0.0
H883 H 0.77562 0.21038 0.2808 0.0
H884 H 0.76534 0.22267 0.30072 0.0
H885 H 0.78053 0.20156 0.30565 0.0
H886 H 0.7357 0.16776 0.30898 0.0
H887 H 0.75811 0.17862 0.32157 0.0
H888 H 0.73426 0.19044 0.32172 0.0
H889 H 0.67241 0.19834 0.20112 0.0
H890 H 0.63724 0.24049 0.23181 0.0
H891 H 0.66222 0.24207 0.25891 0.0
H892 H 0.67763 0.17163 0.23872 0.0
H893 H 0.69182 0.1669 0.21729 0.0
H894 H 0.70219 0.16335 0.24227 0.0
H895 H 0.71761 0.21665 0.21407 0.0
H896 H 0.73194 0.19613 0.22075 0.0
H897 H 0.71144 0.193 0.20223 0.0
H898 H 0.75817 0.14164 0.23359 0.0
C899 C 0.74235 0.16593 0.24496 0.0
C900 C 0.39995 0.99027 0.97552 0.0
C901 C 0.39479 0.97282 0.9645 0.0
C902 C 0.40792 0.9667 0.95003 0.0
C903 C 0.4305 0.99574 0.95723 0.0
C904 C 0.41782 0.00134 0.97177 0.0
C905 C 0.42571 0.01986 0.98271 0.0
H906 H 0.49747 0.0945 0.99658 0.0
C907 C 0.44764 0.0108 0.95696 0.0
C908 C 0.44493 0.02486 0.97196 0.0
H909 H 0.44506 0.08084 0.03095 0.0
H910 H 0.435 0.05331 0.00916 0.0
H911 H 0.47463 0.08656 0.95309 0.0
H912 H 0.50967 0.04911 0.99179 0.0
H913 H 0.51727 0.0458 0.96734 0.0
H914 H 0.52065 0.07004 0.97884 0.0
H915 H 0.5017 0.08948 0.95568 0.0
H916 H 0.48917 0.07226 0.93787 0.0
C917 C 0.41003 0.03601 0.97942 0.0
C918 C 0.43016 0.01434 0.00485 0.0
C919 C 0.50125 0.0061 0.90555 0.0
C920 C 0.51828 0.01841 0.90107 0.0
C921 C 0.52279 0.03582 0.91258 0.0
C922 C 0.51073 0.0408 0.92824 0.0
C923 C 0.49384 0.02833 0.93253 0.0
C924 C 0.48926 0.01138 0.92119 0.0
C925 C 0.47041 1.00017 0.92762 0.0
C926 C 0.46447 0.0132 0.94466 0.0
C927 C 0.47834 0.02963 0.94755 0.0
C928 C 0.45453 0.99986 0.90995 0.0
C929 C 0.47622 0.97927 0.93487 0.0
C930 C 0.48374 0.08564 0.9992 0.0
C931 C 0.47208 0.08972 0.01555 0.0
C932 C 0.45439 0.0778 0.0186 0.0
C933 C 0.44858 0.0618 0.00592 0.0
C934 C 0.46063 0.05748 0.98999 0.0
C935 C 0.47782 0.06934 0.98674 0.0
C936 C 0.48894 0.06202 0.96932 0.0
C937 C 0.47576 0.04367 0.96297 0.0
C938 C 0.45916 0.04122 0.97509 0.0
C939 C 0.48882 0.07838 0.95311 0.0
C940 C 0.51033 0.05653 0.97703 0.0
H941 H 0.435 0.9728 0.93496 0.0
H942 H 0.39038 0.99509 0.98704 0.0
H943 H 0.43348 0.99834 0.0065 0.0
H944 H 0.4438 0.02248 0.01146 0.0
H945 H 0.41706 0.01707 0.01402 0.0
H946 H 0.4037 0.03563 0.96379 0.0
H947 H 0.39722 0.03358 0.98936 0.0
H948 H 0.41661 0.05132 0.98171 0.0
H949 H 0.49737 0.99254 0.89719 0.0
H950 H 0.5355 0.04584 0.90928 0.0
H951 H 0.51499 0.05424 0.93635 0.0
H952 H 0.45487 0.01446 0.90216 0.0
H953 H 0.45758 0.98821 0.8989 0.0
H954 H 0.43886 0.99747 0.91461 0.0
H955 H 0.49151 0.97998 0.94251 0.0
H956 H 0.46602 0.97298 0.94604 0.0
H957 H 0.47649 0.96867 0.9222 0.0
H958 H 0.40423 0.95326 0.9414 0.0
C959 C 0.4257 0.97811 0.94628 0.0
Mg960 Mg 0.23883 0.86306 0.01528 0.0
O961 O 0.26682 0.88102 0.00521 0.0
O962 O 0.29339 0.862 0.00878 0.0
Mg963 Mg 0.28272 0.83232 0.0228 0.0
C964 C 0.28561 0.87831 0.00359 0.0
C965 C 0.20662 0.89388 0.01357 0.0
O966 O 0.20784 0.88842 0.03232 0.0
O967 O 0.2377 0.84375 0.98686 0.0
O968 O 0.26284 0.82376 0.99501 0.0
O969 O 0.24507 0.87345 0.04704 0.0
O970 O 0.25654 0.84616 0.03455 0.0
C971 C 0.24805 0.82865 0.98346 0.0
C972 C 0.25545 0.8578 0.04957 0.0
O973 O 0.21798 0.88595 0.00139 0.0
Mg974 Mg 0.15619 0.5041 0.26937 0.0
O975 O 0.1343 0.50308 0.24156 0.0
O976 O 0.15259 0.50925 0.21496 0.0
Mg977 Mg 0.18585 0.51376 0.22543 0.0
C978 C 0.13565 0.5054 0.22278 0.0
C979 C 0.11685 0.50182 0.29248 0.0
O980 O 0.11633 0.51945 0.28413 0.0
O981 O 0.16751 0.47346 0.26177 0.0
O982 O 0.18551 0.48084 0.23514 0.0
O983 O 0.15322 0.53692 0.27175 0.0
O984 O 0.17679 0.52327 0.25491 0.0
C985 C 0.17873 0.46839 0.24786 0.0
C986 C 0.16827 0.5391 0.26025 0.0
O987 O 0.13117 0.49073 0.28859 0.0
Mg988 Mg 0.77522 0.65461 0.01754 0.0
O989 O 0.74722 0.63339 0.0105 0.0
O990 O 0.72065 0.65149 0.00273 0.0
Mg991 Mg 0.7314 0.6844 0.0053 0.0
C992 C 0.72854 0.63468 0.00523 0.0
C993 C 0.79179 0.61188 0.02357 0.0
O994 O 0.77389 0.60886 0.03092 0.0
O995 O 0.77765 0.66133 0.98435 0.0
O996 O 0.75158 0.68075 0.97861 0.0
O997 O 0.76843 0.657 0.04974 0.0
O998 O 0.75627 0.6766 0.02627 0.0
C999 C 0.76712 0.67226 0.97278 0.0
C1000 C 0.7572 0.67154 0.04473 0.0
O1001 O 0.79672 0.6289 0.0165 0.0
Mg1002 Mg 0.90536 0.02008 0.24334 0.0
O1003 O 0.88321 0.9927 0.24477 0.0
O1004 O 0.90045 0.96525 0.24071 0.0
Mg1005 Mg 0.93387 0.97505 0.23836 0.0
C1006 C 0.88399 0.9738 0.24322 0.0
C1007 C 0.87423 0.05343 0.2435 0.0
O1008 O 0.88085 0.05547 0.22546 0.0
O1009 O 0.91742 0.01383 0.27481 0.0
O1010 O 0.93566 0.98715 0.27078 0.0
O1011 O 0.90161 0.02114 0.21012 0.0
O1012 O 0.92439 0.00376 0.22647 0.0
C1013 C 0.92912 1.00075 0.28179 0.0
C1014 C 0.91589 0.00873 0.20973 0.0
O1015 O 0.88137 0.04006 0.25478 0.0
Mg1016 Mg 0.27645 0.15564 0.52439 0.0
O1017 O 0.24937 0.1333 0.51786 0.0
O1018 O 0.22187 0.1503 0.51078 0.0
Mg1019 Mg 0.23101 0.18357 0.51365 0.0
C1020 C 0.23052 0.13385 0.51304 0.0
C1021 C 0.29511 0.11406 0.52985 0.0
O1022 O 0.27802 0.11083 0.53873 0.0
O1023 O 0.27772 0.1634 0.49146 0.0
O1024 O 0.25094 0.18208 0.48649 0.0
O1025 O 0.27033 0.15694 0.55674 0.0
O1026 O 0.25674 0.17644 0.53389 0.0
C1027 C 0.26679 0.17438 0.48034 0.0
C1028 C 0.25824 0.17095 0.55221 0.0
O1029 O 0.29894 0.13098 0.52205 0.0
Mg1030 Mg 0.40303 0.52862 0.74001 0.0
O1031 O 0.37886 0.50284 0.73601 0.0
O1032 O 0.39401 0.47483 0.7292 0.0
Mg1033 Mg 0.42803 0.48244 0.72891 0.0
C1034 C 0.3781 0.48418 0.73212 0.0
C1035 C 0.37031 0.56048 0.74114 0.0
O1036 O 0.37568 0.56216 0.72264 0.0
O1037 O 0.41297 0.51696 0.77104 0.0
O1038 O 0.42828 0.48955 0.76226 0.0
O1039 O 0.40167 0.53459 0.70705 0.0
O1040 O 0.42189 0.51346 0.72179 0.0
C1041 C 0.42279 0.50155 0.7755 0.0
C1042 C 0.4149 0.52124 0.7056 0.0
O1043 O 0.3791 0.54815 0.75255 0.0
Mg1044 Mg 0.74063 0.35897 0.50535 0.0
O1045 O 0.76946 0.37794 0.49889 0.0
O1046 O 0.7945 0.35738 0.49488 0.0
Mg1047 Mg 0.78199 0.32552 0.49996 0.0
C1048 C 0.78779 0.37483 0.49529 0.0
C1049 C 0.72555 0.4008 0.51147 0.0
O1050 O 0.74154 0.40036 0.52375 0.0
O1051 O 0.73665 0.34848 0.47293 0.0
O1052 O 0.76162 0.32742 0.4714 0.0
O1053 O 0.74914 0.36129 0.53754 0.0
O1054 O 0.7583 0.33691 0.5183 0.0
C1055 C 0.74643 0.33592 0.46343 0.0
C1056 C 0.75942 0.34564 0.53545 0.0
O1057 O 0.72122 0.38589 0.50009 0.0
Mg1058 Mg 0.64978 0.01368 0.76742 0.0
O1059 O 0.63091 0.00928 0.73811 0.0
O1060 O 0.6517 0.01053 0.71291 0.0
Mg1061 Mg 0.68403 0.0168 0.72625 0.0
C1062 C 0.63395 0.0084 0.71952 0.0
C1063 C 0.62307 0.00898 0.80332 0.0
O1064 O 0.63958 0.01842 0.8108 0.0
O1065 O 0.66088 0.98203 0.7652 0.0
O1066 O 0.68333 0.98612 0.7415 0.0
O1067 O 0.64756 0.04665 0.7651 0.0
O1068 O 0.67227 0.03021 0.75296 0.0
C1069 C 0.6746 0.97539 0.75458 0.0
C1070 C 0.66394 0.04688 0.75532 0.0
O1071 O 0.6224 0.00377 0.78509 0.0
Mg1072 Mg 0.02265 0.25531 0.90655 0.0
O1073 O 0.99693 0.25195 0.88226 0.0
O1074 O 0.96798 0.24729 0.89777 0.0
Mg1075 Mg 0.97498 0.24754 0.93143 0.0
C1076 C 0.9777 0.24898 0.88185 0.0
C1077 C 0.04651 0.26265 0.86643 0.0
O1078 O 0.03359 0.24906 0.85853 0.0
O1079 O 0.01371 0.28659 0.91426 0.0
O1080 O 0.98557 0.28082 0.93084 0.0
O1081 O 0.02576 0.22224 0.9069 0.0
O1082 O 0.0056 0.23821 0.9259 0.0
C1083 C 0.99929 0.29277 0.92419 0.0
C1084 C 0.01223 0.22156 0.92022 0.0
O1085 O 0.04517 0.26779 0.88451 0.0
Mg1086 Mg 0.52753 0.75923 0.40091 0.0
O1087 O 0.49904 0.75252 0.38072 0.0
O1088 O 0.4752 0.73727 0.39849 0.0
Mg1089 Mg 0.48798 0.73553 0.43062 0.0
C1090 C 0.48136 0.74424 0.38207 0.0
C1091 C 0.55636 0.77055 0.36814 0.0
O1092 O 0.56308 0.75389 0.37544 0.0
O1093 O 0.51291 0.78587 0.41478 0.0
O1094 O 0.48927 0.7698 0.4323 0.0
O1095 O 0.53733 0.72871 0.39472 0.0
O1096 O 0.51884 0.73586 0.41998 0.0
C1097 C 0.49825 0.7859 0.42648 0.0
C1098 C 0.52719 0.72263 0.4097 0.0
O1099 O 0.54135 0.77803 0.37598 0.0
Mg1100 Mg 0.99615 0.7417 0.6058 0.0
O1101 O 0.02352 0.74043 0.62807 0.0
O1102 O 0.05091 0.73648 0.61042 0.0
Mg1103 Mg 0.04126 0.73559 0.57719 0.0
C1104 C 0.04252 0.73838 0.62698 0.0
C1105 C 0.95839 0.75684 0.62235 0.0
O1106 O 0.95551 0.75657 0.60287 0.0
O1107 O 0.00644 0.77368 0.59791 0.0
O1108 O 0.03207 0.76818 0.57836 0.0
O1109 O 0.99108 0.70822 0.60465 0.0
O1110 O 0.01071 0.72559 0.58486 0.0
C1111 C 0.02009 0.77992 0.58626 0.0
C1112 C 0.00323 0.70851 0.59012 0.0
O1113 O 0.97541 0.75189 0.62976 0.0
Mg1114 Mg 0.49526 0.24795 0.10757 0.0
O1115 O 0.52731 0.24062 0.11899 0.0
O1116 O 0.54387 0.23096 0.09264 0.0
Mg1117 Mg 0.52345 0.23441 0.0645 0.0
C1118 C 0.54301 0.2342 0.1113 0.0
C1119 C 0.47449 0.27184 0.14072 0.0
O1120 O 0.46549 0.27994 0.12514 0.0
O1121 O 0.50751 0.27789 0.09641 0.0
O1122 O 0.52293 0.26861 0.06924 0.0
O1123 O 0.48536 0.21622 0.11045 0.0
O1124 O 0.49718 0.22896 0.08279 0.0
C1125 C 0.51728 0.28211 0.08092 0.0
C1126 C 0.49113 0.21346 0.09259 0.0
O1127 O 0.4885 0.25999 0.13811 0.0
H1128 H 0.22406 0.78976 0.8717 0.0
H1129 H 0.22745 0.73025 0.89611 0.0
H1130 H 0.23003 0.74423 0.93007 0.0
H1131 H 0.26028 0.81271 0.90487 0.0
H1132 H 0.24785 0.83574 0.90754 0.0
H1133 H 0.24359 0.82123 0.88507 0.0
H1134 H 0.20498 0.81998 0.88973 0.0
H1135 H 0.20911 0.83462 0.9122 0.0
H1136 H 0.19525 0.81085 0.91278 0.0
H1137 H 0.2363 0.76395 0.96044 0.0
H1138 H 0.24492 0.78885 0.98672 0.0
H1139 H 0.23685 0.83649 0.94405 0.0
C1140 C 0.22485 0.77974 0.88428 0.0
C1141 C 0.22556 0.75894 0.8814 0.0
C1142 C 0.22699 0.74622 0.89809 0.0
C1143 C 0.22836 0.75401 0.9174 0.0
C1144 C 0.22817 0.77457 0.9198 0.0
C1145 C 0.22632 0.78734 0.90381 0.0
C1146 C 0.22802 0.80894 0.91074 0.0
C1147 C 0.24601 0.82032 0.90151 0.0
C1148 C 0.20815 0.8192 0.90609 0.0
C1149 C 0.23174 0.80624 0.93302 0.0
C1150 C 0.23159 0.78622 0.93779 0.0
C1151 C 0.23612 0.77967 0.957 0.0
C1152 C 0.24111 0.79392 0.97179 0.0
C1153 C 0.24142 0.81451 0.96739 0.0
C1154 C 0.23635 0.82081 0.94781 0.0
H1155 H 0.04132 0.52506 0.37671 0.0
H1156 H 0.04351 0.46354 0.39556 0.0
H1157 H 0.06428 0.45631 0.36688 0.0
H1158 H 0.03859 0.51505 0.32298 0.0
H1159 H 0.0541 0.53706 0.31773 0.0
H1160 H 0.0383 0.53671 0.33883 0.0
H1161 H 0.06962 0.5463 0.3621 0.0
H1162 H 0.08549 0.54666 0.34111 0.0
H1163 H 0.09128 0.53112 0.36223 0.0
H1164 H 0.0878 0.45704 0.33771 0.0
H1165 H 0.11025 0.46519 0.31009 0.0
H1166 H 0.09114 0.52599 0.31026 0.0
C1167 C 0.04604 0.51001 0.3747 0.0
C1168 C 0.04094 0.49485 0.38836 0.0
C1169 C 0.0472 0.47532 0.38517 0.0
C1170 C 0.05902 0.47112 0.36897 0.0
C1171 C 0.06413 0.48656 0.35598 0.0
C1172 C 0.0576 0.50556 0.35858 0.0
C1173 C 0.06553 0.51974 0.34301 0.0
C1174 C 0.04809 0.5276 0.32986 0.0
C1175 C 0.07877 0.53696 0.3527 0.0
C1176 C 0.07801 0.50593 0.33145 0.0
C1177 C 0.07705 0.48683 0.33907 0.0
C1178 C 0.0884 0.47187 0.33146 0.0
C1179 C 0.10113 0.47664 0.3158 0.0
C1180 C 0.10233 0.49617 0.30788 0.0
C1181 C 0.09036 0.51083 0.31573 0.0
H1182 H 0.76003 0.72751 0.86896 0.0
H1183 H 0.82469 0.72143 0.86539 0.0
H1184 H 0.82427 0.69914 0.89455 0.0
H1185 H 0.76098 0.73262 0.92046 0.0
H1186 H 0.73693 0.71943 0.92343 0.0
H1187 H 0.74181 0.73209 0.90049 0.0
H1188 H 0.7334 0.6992 0.88089 0.0
H1189 H 0.72855 0.6864 0.90384 0.0
H1190 H 0.74678 0.67728 0.88744 0.0
H1191 H 0.81722 0.67997 0.92623 0.0
H1192 H 0.80469 0.66751 0.95821 0.0
H1193 H 0.74519 0.68807 0.94171 0.0
C1194 C 0.77415 0.72147 0.87417 0.0
C1195 C 0.79241 0.72631 0.86476 0.0
C1196 C 0.81042 0.71775 0.87205 0.0
C1197 C 0.81035 0.7051 0.88868 0.0
C1198 C 0.79215 0.7011 0.89787 0.0
C1199 C 0.77439 0.70908 0.89084 0.0
C1200 C 0.75722 0.70412 0.90434 0.0
C1201 C 0.74875 0.7232 0.91267 0.0
C1202 C 0.7405 0.69096 0.89348 0.0
C1203 C 0.7682 0.69261 0.92045 0.0
C1204 C 0.78823 0.69064 0.9163 0.0
C1205 C 0.80151 0.68128 0.92953 0.0
C1206 C 0.79424 0.6742 0.94765 0.0
C1207 C 0.77395 0.67682 0.95251 0.0
C1208 C 0.76076 0.68578 0.93846 0.0
H1209 H 0.99771 0.97268 0.37759 0.0
H1210 H 0.98494 0.0301 0.40221 0.0
H1211 H 0.96094 0.03568 0.37369 0.0
H1212 H 0.99834 0.98861 0.32759 0.0
H1213 H 0.98697 0.96574 0.31714 0.0
H1214 H 0.00144 0.96537 0.34046 0.0
H1215 H 0.97079 0.94818 0.35726 0.0
H1216 H 0.9562 0.94853 0.33397 0.0
H1217 H 0.94676 0.95963 0.35588 0.0
H1218 H 0.93946 0.03558 0.34196 0.0
H1219 H 0.92395 0.03111 0.3081 0.0
H1220 H 0.95178 0.97425 0.30328 0.0
C1221 C 0.98956 0.98625 0.37708 0.0
C1222 C 0.99297 0.00092 0.3921 0.0
C1223 C 0.98246 0.01872 0.3908 0.0
C1224 C 0.96875 0.02195 0.37474 0.0
C1225 C 0.96585 0.00728 0.36005 0.0
C1226 C 0.97605 0.98984 0.36098 0.0
C1227 C 0.97137 0.9772 0.34247 0.0
C1228 C 0.99068 0.97406 0.33125 0.0
C1229 C 0.96064 0.9572 0.34772 0.0
C1230 C 0.95719 0.9904 0.33086 0.0
C1231 C 0.95396 0.00752 0.34141 0.0
C1232 C 0.94181 0.02219 0.33359 0.0
C1233 C 0.93303 0.01948 0.31432 0.0
C1234 C 0.93662 0.00233 0.30293 0.0
C1235 C 0.94866 0.98751 0.31154 0.0
H1236 H 0.25654 0.23792 0.64914 0.0
H1237 H 0.19563 0.25257 0.63039 0.0
H1238 H 0.19587 0.22842 0.60251 0.0
H1239 H 0.27552 0.23284 0.60168 0.0
H1240 H 0.29062 0.21199 0.60795 0.0
H1241 H 0.28506 0.22952 0.62695 0.0
H1242 H 0.26978 0.20068 0.64796 0.0
H1243 H 0.27526 0.18304 0.62897 0.0
H1244 H 0.24981 0.18432 0.63709 0.0
H1245 H 0.20449 0.20575 0.57454 0.0
H1246 H 0.21994 0.18438 0.54997 0.0
H1247 H 0.27397 0.18232 0.58865 0.0
C1248 C 0.24322 0.23584 0.63924 0.0
C1249 C 0.22608 0.24704 0.64175 0.0
C1250 C 0.20885 0.24399 0.62865 0.0
C1251 C 0.20886 0.23034 0.61283 0.0
C1252 C 0.22609 0.21962 0.61062 0.0
C1253 C 0.24283 0.22199 0.62364 0.0
C1254 C 0.25954 0.20893 0.61779 0.0
C1255 C 0.27882 0.22158 0.61332 0.0
C1256 C 0.26384 0.19331 0.63391 0.0
C1257 C 0.24984 0.19929 0.59908 0.0
C1258 C 0.23056 0.20569 0.59515 0.0
C1259 C 0.21938 0.20028 0.57769 0.0
C1260 C 0.22826 0.18822 0.56381 0.0
C1261 C 0.24792 0.18148 0.56767 0.0
C1262 C 0.25865 0.1868 0.58568 0.0
H1263 H 0.4722 0.53732 0.6056 0.0
H1264 H 0.47562 0.47304 0.60245 0.0
H1265 H 0.45379 0.4694 0.63106 0.0
H1266 H 0.47489 0.54161 0.65708 0.0
H1267 H 0.45718 0.56099 0.65847 0.0
H1268 H 0.47141 0.55851 0.63656 0.0
H1269 H 0.43813 0.55567 0.61468 0.0
H1270 H 0.42375 0.55821 0.63656 0.0
H1271 H 0.41878 0.53697 0.62032 0.0
H1272 H 0.43493 0.47287 0.66207 0.0
H1273 H 0.41938 0.48329 0.69286 0.0
H1274 H 0.42652 0.54509 0.67504 0.0
C1275 C 0.46793 0.52244 0.61057 0.0
C1276 C 0.47572 0.50546 0.60179 0.0
C1277 C 0.47011 0.48629 0.6091 0.0
C1278 C 0.45756 0.48405 0.62523 0.0
C1279 C 0.45049 0.50111 0.63376 0.0
C1280 C 0.45529 0.51993 0.62658 0.0
C1281 C 0.44663 0.53587 0.63916 0.0
C1282 C 0.46354 0.55007 0.64836 0.0
C1283 C 0.43088 0.54735 0.62695 0.0
C1284 C 0.43675 0.5231 0.6549 0.0
C1285 C 0.43907 0.50307 0.65143 0.0
C1286 C 0.43272 0.48847 0.66478 0.0
C1287 C 0.42406 0.49452 0.68228 0.0
C1288 C 0.42173 0.51494 0.68617 0.0
C1289 C 0.42775 0.52935 0.67212 0.0
H1290 H 0.80231 0.26394 0.60933 0.0
H1291 H 0.82133 0.31249 0.64974 0.0
H1292 H 0.81151 0.33678 0.62403 0.0
H1293 H 0.8182 0.28902 0.56326 0.0
H1294 H 0.79668 0.27857 0.54867 0.0
H1295 H 0.80697 0.26499 0.56956 0.0
H1296 H 0.77174 0.26275 0.58483 0.0
H1297 H 0.76136 0.27631 0.56403 0.0
H1298 H 0.75892 0.2853 0.58904 0.0
H1299 H 0.79606 0.35555 0.59575 0.0
H1300 H 0.77733 0.36773 0.56595 0.0
H1301 H 0.76951 0.30729 0.54306 0.0
C1302 C 0.80462 0.27969 0.61265 0.0
C1303 C 0.81268 0.28635 0.63149 0.0
C1304 C 0.81548 0.30707 0.63531 0.0
C1305 C 0.80989 0.32097 0.62082 0.0
C1306 C 0.80174 0.31392 0.60252 0.0
C1307 C 0.79929 0.29378 0.59828 0.0
C1308 C 0.78931 0.29017 0.57775 0.0
C1309 C 0.80365 0.28009 0.564 0.0
C1310 C 0.76914 0.27792 0.579 0.0
C1311 C 0.78597 0.3114 0.57135 0.0
C1312 C 0.79331 0.32486 0.58586 0.0
C1313 C 0.79059 0.34521 0.58412 0.0
C1314 C 0.77989 0.35197 0.56719 0.0
C1315 C 0.77222 0.33845 0.55218 0.0
C1316 C 0.77562 0.31797 0.55414 0.0
H1317 H 0.57633 0.98807 0.61325 0.0
H1318 H 0.52006 0.99282 0.64302 0.0
H1319 H 0.53923 0.99851 0.67507 0.0
H1320 H 0.60303 0.96239 0.65291 0.0
H1321 H 0.62696 0.9755 0.64914 0.0
H1322 H 0.60882 0.97152 0.62852 0.0
H1323 H 0.60977 0.00952 0.62184 0.0
H1324 H 0.62789 0.01361 0.64245 0.0
H1325 H 0.60459 0.02636 0.64166 0.0
H1326 H 0.56434 0.00341 0.70389 0.0
H1327 H 0.59378 0.00833 0.7275 0.0
H1328 H 0.63402 0.00098 0.67911 0.0
C1329 C 0.56807 0.99018 0.62655 0.0
C1330 C 0.54669 0.99005 0.62563 0.0
C1331 C 0.53643 0.9931 0.64332 0.0
C1332 C 0.54718 0.99623 0.66162 0.0
C1333 C 0.56822 0.99635 0.662 0.0
C1334 C 0.57859 0.99348 0.64495 0.0
C1335 C 0.60127 0.99472 0.64947 0.0
C1336 C 0.61056 0.97485 0.64473 0.0
C1337 C 0.61148 0.01209 0.63819 0.0
C1338 C 0.602 0.99872 0.67171 0.0
C1339 C 0.58275 0.99949 0.67863 0.0
C1340 C 0.5795 0.00287 0.69865 0.0
C1341 C 0.59635 0.00562 0.71196 0.0
C1342 C 0.61629 0.00509 0.70523 0.0
C1343 C 0.61903 0.00156 0.68478 0.0
H1344 H 0.88092 0.22183 0.80973 0.0
H1345 H 0.91963 0.23027 0.75981 0.0
H1346 H 0.94864 0.2392 0.78313 0.0
H1347 H 0.90299 0.26216 0.83964 0.0
H1348 H 0.90071 0.249 0.86283 0.0
H1349 H 0.88303 0.2432 0.8422 0.0
H1350 H 0.89185 0.20609 0.84396 0.0
H1351 H 0.90945 0.21174 0.86467 0.0
H1352 H 0.91786 0.19969 0.84278 0.0
H1353 H 0.97352 0.24712 0.81208 0.0
H1354 H 0.99234 0.25289 0.84434 0.0
H1355 H 0.9372 0.2391 0.87516 0.0
C1356 C 0.89554 0.22534 0.80369 0.0
C1357 C 0.89799 0.22535 0.78292 0.0
C1358 C 0.91733 0.23037 0.77565 0.0
C1359 C 0.93391 0.23539 0.78878 0.0
C1360 C 0.93093 0.23536 0.80915 0.0
C1361 C 0.91223 0.23042 0.81657 0.0
C1362 C 0.91302 0.23156 0.83909 0.0
C1363 C 0.89911 0.24743 0.84636 0.0
C1364 C 0.90774 0.21105 0.84815 0.0
C1365 C 0.9351 0.23783 0.8432 0.0
C1366 C 0.94519 0.23997 0.82575 0.0
C1367 C 0.96576 0.2455 0.82584 0.0
C1368 C 0.97633 0.24875 0.84426 0.0
C1369 C 0.96632 0.24648 0.86236 0.0
C1370 C 0.94537 0.24107 0.86166 0.0
H1371 H 0.50818 0.89571 0.47423 0.0
H1372 H 0.44372 0.88887 0.48302 0.0
H1373 H 0.44236 0.85616 0.46632 0.0
H1374 H 0.50634 0.87229 0.42524 0.0
H1375 H 0.52975 0.86009 0.42951 0.0
H1376 H 0.5259 0.88327 0.44198 0.0
H1377 H 0.53339 0.86677 0.47614 0.0
H1378 H 0.53739 0.8436 0.46378 0.0
H1379 H 0.51906 0.84441 0.48271 0.0
H1380 H 0.44782 0.82397 0.45022 0.0
H1381 H 0.45988 0.79359 0.43513 0.0
H1382 H 0.52071 0.82087 0.43521 0.0
C1383 C 0.49383 0.88726 0.47263 0.0
C1384 C 0.47601 0.89489 0.47978 0.0
C1385 C 0.45748 0.88345 0.47739 0.0
C1386 C 0.45656 0.86483 0.46798 0.0
C1387 C 0.47428 0.85782 0.46091 0.0
C1388 C 0.49258 0.86861 0.46304 0.0
C1389 C 0.50933 0.85736 0.45413 0.0
C1390 C 0.51836 0.86895 0.43668 0.0
C1391 C 0.52576 0.85276 0.47015 0.0
C1392 C 0.49757 0.8385 0.44693 0.0
C1393 C 0.47738 0.83918 0.45106 0.0
C1394 C 0.46355 0.82329 0.44674 0.0
C1395 C 0.47055 0.8061 0.4382 0.0
C1396 C 0.49117 0.80494 0.43388 0.0
C1397 C 0.5048 0.8215 0.43805 0.0
H1398 H 0.11322 0.27988 0.77131 0.0
H1399 H 0.15784 0.31161 0.81074 0.0
H1400 H 0.13491 0.3076 0.83831 0.0
H1401 H 0.06839 0.29792 0.79256 0.0
H1402 H 0.05434 0.27429 0.79009 0.0
H1403 H 0.07357 0.28094 0.77287 0.0
H1404 H 0.09157 0.24851 0.78149 0.0
H1405 H 0.07239 0.24173 0.79869 0.0
H1406 H 0.09866 0.2433 0.8071 0.0
H1407 H 0.10775 0.29953 0.86189 0.0
H1408 H 0.07875 0.28648 0.8804 0.0
H1409 H 0.05251 0.2581 0.82641 0.0
C1410 C 0.11827 0.28596 0.78573 0.0
C1411 C 0.13736 0.2963 0.78865 0.0
C1412 C 0.14315 0.3041 0.80783 0.0
C1413 C 0.13027 0.30178 0.82369 0.0
C1414 C 0.11168 0.29146 0.82027 0.0
C1415 C 0.10571 0.28355 0.80182 0.0
C1416 C 0.08534 0.27225 0.80241 0.0
C1417 C 0.06947 0.28194 0.78867 0.0
C1418 C 0.08711 0.25014 0.79711 0.0
C1419 C 0.0809 0.2749 0.82414 0.0
C1420 C 0.09621 0.28622 0.83409 0.0
C1421 C 0.09565 0.29065 0.85428 0.0
C1422 C 0.07908 0.28318 0.86465 0.0
C1423 C 0.06335 0.27121 0.85489 0.0
C1424 C 0.06429 0.26716 0.83431 0.0
H1425 H 0.51107 0.62893 0.48042 0.0
H1426 H 0.52975 0.5921 0.43215 0.0
H1427 H 0.53141 0.62161 0.41035 0.0
H1428 H 0.47971 0.66155 0.44922 0.0
H1429 H 0.4871 0.6833 0.4641 0.0
H1430 H 0.48603 0.65901 0.47544 0.0
H1431 H 0.52334 0.66462 0.48844 0.0
H1432 H 0.52456 0.68885 0.47709 0.0
H1433 H 0.54257 0.67082 0.47105 0.0
H1434 H 0.53365 0.65547 0.39473 0.0
H1435 H 0.5355 0.69121 0.3861 0.0
H1436 H 0.51415 0.70573 0.44416 0.0
C1437 C 0.51504 0.62695 0.46513 0.0
C1438 C 0.52028 0.60817 0.458 0.0
C1439 C 0.52588 0.60636 0.43801 0.0
C1440 C 0.52673 0.62301 0.42548 0.0
C1441 C 0.52177 0.64133 0.43309 0.0
C1442 C 0.51588 0.64337 0.4524 0.0
C1443 C 0.5122 0.66489 0.4572 0.0
C1444 C 0.48993 0.66732 0.46175 0.0
C1445 C 0.52652 0.67275 0.47446 0.0
C1446 C 0.51734 0.67468 0.4377 0.0
C1447 C 0.52275 0.66082 0.42396 0.0
C1448 C 0.52919 0.66643 0.40526 0.0
C1449 C 0.53025 0.68676 0.40052 0.0
C1450 C 0.52483 0.70121 0.41441 0.0
C1451 C 0.51809 0.695 0.43313 0.0
H1452 H 0.89758 0.76414 0.72252 0.0
H1453 H 0.84572 0.779 0.68449 0.0
H1454 H 0.86639 0.77756 0.65514 0.0
H1455 H 0.93546 0.79171 0.69557 0.0
H1456 H 0.95415 0.77325 0.69868 0.0
H1457 H 0.9355 0.77571 0.71706 0.0
H1458 H 0.92435 0.73838 0.71278 0.0
H1459 H 0.94306 0.73577 0.69448 0.0
H1460 H 0.91687 0.7288 0.68832 0.0
H1461 H 0.89215 0.77469 0.62994 0.0
H1462 H 0.92135 0.76894 0.60983 0.0
H1463 H 0.95692 0.75496 0.66347 0.0
C1464 C 0.89054 0.76695 0.708 0.0
C1465 C 0.87003 0.77196 0.70591 0.0
C1466 C 0.86147 0.77561 0.68661 0.0
C1467 C 0.87306 0.77471 0.66979 0.0
C1468 C 0.89322 0.77002 0.6724 0.0
C1469 C 0.90191 0.76606 0.69095 0.0
C1470 C 0.92389 0.76105 0.6894 0.0
C1471 C 0.93809 0.77635 0.70086 0.0
C1472 C 0.92723 0.73973 0.69667 0.0
C1473 C 0.9261 0.76279 0.66708 0.0
C1474 C 0.90819 0.76807 0.65765 0.0
C1475 C 0.90627 0.77052 0.63712 0.0
C1476 C 0.92299 0.76722 0.62583 0.0
C1477 C 0.94148 0.76148 0.63502 0.0
C1478 C 0.94305 0.75941 0.65599 0.0
H1479 H 0.03941 0.87036 0.512 0.0
H1480 H 0.02402 0.91053 0.55876 0.0
H1481 H 0.01846 0.88174 0.58133 0.0
H1482 H 0.0042 0.83014 0.52237 0.0
H1483 H 0.02135 0.81101 0.51719 0.0
H1484 H 0.02374 0.83475 0.50492 0.0
H1485 H 0.06116 0.83905 0.51797 0.0
H1486 H 0.05889 0.8153 0.53027 0.0
H1487 H 0.0672 0.83734 0.54432 0.0
H1488 H 0.01274 0.84791 0.59796 0.0
H1489 H 0.01047 0.81243 0.60821 0.0
H1490 H 0.03231 0.79528 0.55115 0.0
C1491 C 0.03487 0.87302 0.52701 0.0
C1492 C 0.03195 0.89249 0.53373 0.0
C1493 C 0.02626 0.8956 0.55347 0.0
C1494 C 0.02305 0.87938 0.56631 0.0
C1495 C 0.02595 0.86026 0.55921 0.0
C1496 C 0.03202 0.85708 0.54009 0.0
C1497 C 0.03469 0.83522 0.53621 0.0
C1498 C 0.02012 0.82732 0.51917 0.0
C1499 C 0.0568 0.83152 0.53195 0.0
C1500 C 0.02898 0.82652 0.55603 0.0
C1501 C 0.02376 0.84111 0.56907 0.0
C1502 C 0.01705 0.8364 0.58795 0.0
C1503 C 0.01575 0.81625 0.59363 0.0
C1504 C 0.02148 0.80118 0.58059 0.0
C1505 C 0.0282 0.8065 0.56161 0.0
H1506 H 0.13177 0.71028 0.70436 0.0
H1507 H 0.12423 0.76761 0.73265 0.0
H1508 H 0.09558 0.77327 0.70945 0.0
H1509 H 0.12276 0.72942 0.65434 0.0
H1510 H 0.11035 0.70648 0.64519 0.0
H1511 H 0.12946 0.70598 0.66513 0.0
H1512 H 0.10403 0.68664 0.68703 0.0
H1513 H 0.08477 0.68729 0.66724 0.0
H1514 H 0.0801 0.69702 0.69151 0.0
H1515 H 0.0664 0.77219 0.68447 0.0
H1516 H 0.0425 0.76714 0.65527 0.0
H1517 H 0.07203 0.71354 0.63971 0.0
C1518 C 0.12439 0.72417 0.70569 0.0
C1519 C 0.13014 0.73809 0.72109 0.0
C1520 C 0.11976 0.75607 0.72186 0.0
C1521 C 0.10348 0.75962 0.70853 0.0
C1522 C 0.098 0.74541 0.69396 0.0
C1523 C 0.10847 0.72831 0.69205 0.0
C1524 C 0.10033 0.7162 0.67407 0.0
C1525 C 0.1167 0.71442 0.65878 0.0
C1526 C 0.0918 0.69557 0.68035 0.0
C1527 C 0.0836 0.72914 0.66633 0.0
C1528 C 0.08226 0.74569 0.67832 0.0
C1529 C 0.06744 0.75942 0.6748 0.0
C1530 C 0.05388 0.75639 0.65831 0.0
C1531 C 0.05557 0.74005 0.64532 0.0
C1532 C 0.07057 0.72622 0.64941 0.0
H1533 H 0.9797 0.59756 0.55008 0.0
H1534 H 0.01345 0.61538 0.49852 0.0
H1535 H 0.02411 0.64697 0.51511 0.0
H1536 H 0.96001 0.64484 0.55718 0.0
H1537 H 0.96086 0.64347 0.58398 0.0
H1538 H 0.95805 0.62097 0.56934 0.0
H1539 H 0.98968 0.60762 0.58797 0.0
H1540 H 0.99267 0.63019 0.60258 0.0
H1541 H 0.01327 0.62225 0.58842 0.0
H1542 H 0.02945 0.6774 0.53582 0.0
H1543 H 0.02672 0.70604 0.55806 0.0
H1544 H 0.98781 0.67006 0.59561 0.0
C1545 C 0.98935 0.60802 0.54221 0.0
C1546 C 0.99597 0.60358 0.52302 0.0
C1547 C 0.00865 0.61789 0.51344 0.0
C1548 C 0.01473 0.63603 0.52271 0.0
C1549 C 0.0079 0.63987 0.54152 0.0
C1550 C 0.99532 0.6264 0.55111 0.0
C1551 C 0.98869 0.63505 0.57049 0.0
C1552 C 0.96553 0.63615 0.57022 0.0
C1553 C 0.99655 0.62306 0.58843 0.0
C1554 C 0.99915 0.65565 0.57001 0.0
C1555 C 0.01044 0.6579 0.55332 0.0
C1556 C 0.02082 0.67578 0.54905 0.0
C1557 C 0.01921 0.69199 0.56187 0.0
C1558 C 0.00719 0.69032 0.57873 0.0
C1559 C 0.99734 0.67175 0.58302 0.0
H1560 H 0.79814 0.89061 0.21142 0.0
H1561 H 0.77248 0.90084 0.26875 0.0
H1562 H 0.79902 0.92681 0.27637 0.0
H1563 H 0.85034 0.89524 0.23134 0.0
H1564 H 0.85958 0.90673 0.20909 0.0
H1565 H 0.83781 0.8895 0.20747 0.0
H1566 H 0.81703 0.91629 0.18944 0.0
H1567 H 0.83867 0.93366 0.19116 0.0
H1568 H 0.8151 0.94026 0.2011 0.0
H1569 H 0.82695 0.95331 0.27708 0.0
H1570 H 0.85772 0.97513 0.27286 0.0
H1571 H 0.86824 0.94462 0.21772 0.0
C1572 C 0.79812 0.89802 0.22572 0.0
C1573 C 0.78259 0.89384 0.23914 0.0
C1574 C 0.78347 0.90416 0.25767 0.0
C1575 C 0.79868 0.91888 0.26232 0.0
C1576 C 0.8134 0.92283 0.2486 0.0
C1577 C 0.81357 0.9124 0.2309 0.0
C1578 C 0.83181 0.91893 0.21926 0.0
C1579 C 0.84571 0.90157 0.21664 0.0
C1580 C 0.82525 0.92781 0.19905 0.0
C1581 C 0.84167 0.9348 0.23312 0.0
C1582 C 0.83057 0.93703 0.24981 0.0
C1583 C 0.83596 0.95151 0.26425 0.0
C1584 C 0.85334 0.96386 0.26171 0.0
C1585 C 0.8653 0.96131 0.24513 0.0
C1586 C 0.85942 0.9466 0.23067 0.0
H1587 H 0.79474 0.13868 0.23348 0.0
H1588 H 0.78099 0.12761 0.29509 0.0
H1589 H 0.80623 0.10178 0.29704 0.0
H1590 H 0.80101 0.08768 0.22007 0.0
H1591 H 0.82149 0.09358 0.204 0.0
H1592 H 0.8026 0.11142 0.20763 0.0
H1593 H 0.83066 0.13785 0.21902 0.0
H1594 H 0.84963 0.12009 0.21543 0.0
H1595 H 0.84825 0.13218 0.23925 0.0
H1596 H 0.8326 0.07659 0.292 0.0
H1597 H 0.85847 0.05453 0.28053 0.0
H1598 H 0.85475 0.08212 0.22221 0.0
C1599 C 0.79694 0.13075 0.24735 0.0
C1600 C 0.78588 0.1352 0.26414 0.0
C1601 C 0.78945 0.12465 0.2821 0.0
C1602 C 0.80367 0.10987 0.28332 0.0
C1603 C 0.81425 0.10582 0.26647 0.0
C1604 C 0.81109 0.116 0.24885 0.0
C1605 C 0.82443 0.10883 0.2329 0.0
C1606 C 0.81162 0.09984 0.2151 0.0
C1607 C 0.83911 0.12575 0.22627 0.0
C1608 C 0.83554 0.09297 0.24428 0.0
C1609 C 0.82945 0.09144 0.26361 0.0
C1610 C 0.83751 0.0777 0.2769 0.0
C1611 C 0.85219 0.06522 0.27024 0.0
C1612 C 0.85869 0.06659 0.25048 0.0
C1613 C 0.85018 0.0807 0.23741 0.0
H1614 H 0.38941 0.93264 0.97137 0.0
H1615 H 0.35717 0.9871 0.9663 0.0
H1616 H 0.32542 0.96849 0.9742 0.0
H1617 H 0.34858 0.89879 0.95071 0.0
H1618 H 0.35426 0.8791 0.96794 0.0
H1619 H 0.37414 0.89642 0.96049 0.0
H1620 H 0.3832 0.9051 0.99752 0.0
H1621 H 0.36332 0.88788 0.00507 0.0
H1622 H 0.36385 0.91354 0.01302 0.0
H1623 H 0.29752 0.94434 0.98364 0.0
H1624 H 0.27539 0.91648 0.99505 0.0
H1625 H 0.32586 0.87767 0.99495 0.0
C1626 C 0.37558 0.94053 0.97161 0.0
C1627 C 0.37566 0.96126 0.96813 0.0
C1628 C 0.35739 0.97121 0.96898 0.0
C1629 C 0.3393 0.96077 0.97337 0.0
C1630 C 0.33974 0.94039 0.97698 0.0
C1631 C 0.35739 0.93035 0.9762 0.0
C1632 C 0.3539 0.90862 0.98173 0.0
C1633 C 0.35796 0.89493 0.96417 0.0
C1634 C 0.36684 0.90349 1.00045 0.0
C1635 C 0.33159 0.90807 0.98589 0.0
C1636 C 0.32369 0.92651 0.98287 0.0
C1637 C 0.3035 0.9298 0.98599 0.0
C1638 C 0.29104 0.91384 0.99248 0.0
C1639 C 0.29882 0.89482 0.99594 0.0
C1640 C 0.31939 0.89198 0.99247 0.0
H1641 H 0.23904 0.37554 0.28577 0.0
H1642 H 0.23809 0.35623 0.22407 0.0
H1643 H 0.21484 0.38251 0.21481 0.0
H1644 H 0.18502 0.38953 0.28513 0.0
H1645 H 0.19101 0.41072 0.30122 0.0
H1646 H 0.20574 0.38893 0.30346 0.0
H1647 H 0.23845 0.41081 0.29856 0.0
H1648 H 0.22386 0.4326 0.29625 0.0
H1649 H 0.24018 0.42625 0.27675 0.0
H1650 H 0.19583 0.41334 0.21141 0.0
H1651 H 0.18093 0.44612 0.2144 0.0
H1652 H 0.19208 0.44474 0.27842 0.0
C1653 C 0.23348 0.37649 0.27041 0.0
C1654 C 0.24048 0.36386 0.25563 0.0
C1655 C 0.23317 0.36588 0.23562 0.0
C1656 C 0.21982 0.38067 0.23023 0.0
C1657 C 0.21365 0.3932 0.24505 0.0
C1658 C 0.22002 0.39115 0.26478 0.0
C1659 C 0.21215 0.40745 0.27753 0.0
C1660 C 0.19761 0.39863 0.29273 0.0
C1661 C 0.22971 0.42002 0.28787 0.0
C1662 C 0.20098 0.41937 0.26176 0.0
C1663 C 0.20195 0.41077 0.24315 0.0
C1664 C 0.19452 0.41997 0.22595 0.0
C1665 C 0.18614 0.43858 0.22777 0.0
C1666 C 0.18504 0.44769 0.24665 0.0
C1667 C 0.19219 0.43777 0.26389 0.0
H1668 H 0.12898 0.06525 0.49499 0.0
H1669 H 0.16497 0.01405 0.50686 0.0
H1670 H 0.19568 0.03634 0.51115 0.0
H1671 H 0.16623 0.09347 0.46715 0.0
H1672 H 0.16005 0.11712 0.47732 0.0
H1673 H 0.14096 0.09708 0.4748 0.0
H1674 H 0.13444 0.09978 0.5124 0.0
H1675 H 0.1535 0.11981 0.51504 0.0
H1676 H 0.15526 0.09799 0.53045 0.0
H1677 H 0.22246 0.06423 0.51441 0.0
H1678 H 0.24322 0.09572 0.51723 0.0
H1679 H 0.18974 0.1288 0.50331 0.0
C1680 C 0.14335 0.05871 0.4983 0.0
C1681 C 0.14456 0.03789 0.50063 0.0
C1682 C 0.16363 0.02996 0.50525 0.0
C1683 C 0.18118 0.04249 0.50759 0.0
C1684 C 0.17944 0.06294 0.50527 0.0
C1685 C 0.16102 0.07101 0.50076 0.0
C1686 C 0.16323 0.09353 0.4995 0.0
C1687 C 0.15727 0.10072 0.47844 0.0
C1688 C 0.15088 0.10335 0.51529 0.0
C1689 C 0.18576 0.09685 0.50411 0.0
C1690 C 0.19485 0.07901 0.50729 0.0
C1691 C 0.21551 0.0783 0.51194 0.0
C1692 C 0.22719 0.09631 0.51352 0.0
C1693 C 0.21818 0.11483 0.51055 0.0
C1694 C 0.19717 0.11496 0.50566 0.0
H1695 H 0.75475 0.12136 0.72453 0.0
H1696 H 0.71135 0.16737 0.71838 0.0
H1697 H 0.68387 0.14294 0.72671 0.0
H1698 H 0.72181 0.08159 0.7027 0.0
H1699 H 0.73121 0.06283 0.71934 0.0
H1700 H 0.74747 0.08394 0.71294 0.0
H1701 H 0.75409 0.09253 0.75036 0.0
H1702 H 0.73795 0.0714 0.75687 0.0
H1703 H 0.73294 0.09592 0.76572 0.0
H1704 H 0.66146 0.11387 0.73734 0.0
H1705 H 0.6455 0.08187 0.74823 0.0
H1706 H 0.70317 0.0544 0.74559 0.0
C1707 C 0.73946 0.12625 0.72501 0.0
C1708 C 0.73511 0.14621 0.72086 0.0
C1709 C 0.71492 0.15208 0.7214 0.0
C1710 C 0.69925 0.13834 0.72615 0.0
C1711 C 0.704 0.11873 0.73009 0.0
C1712 C 0.72358 0.11265 0.72943 0.0
C1713 C 0.72458 0.09067 0.73411 0.0
C1714 C 0.73169 0.07908 0.7162 0.0
C1715 C 0.73819 0.08745 0.75288 0.0
C1716 C 0.70256 0.08542 0.73776 0.0
C1717 C 0.69095 0.10183 0.73546 0.0
C1718 C 0.67035 0.10086 0.73897 0.0
C1719 C 0.66142 0.08265 0.74516 0.0
C1720 C 0.67305 0.06565 0.74753 0.0
C1721 C 0.69382 0.06707 0.74356 0.0
H1722 H 0.40503 0.06974 0.5339 0.0
H1723 H 0.37503 0.01114 0.53833 0.0
H1724 H 0.34175 0.02618 0.53558 0.0
H1725 H 0.37068 0.09639 0.56197 0.0
H1726 H 0.3715 0.11817 0.54636 0.0
H1727 H 0.39295 0.10278 0.54845 0.0
H1728 H 0.39168 0.09838 0.5101 0.0
H1729 H 0.37018 0.11374 0.50789 0.0
H1730 H 0.36856 0.08896 0.49741 0.0
H1731 H 0.31196 0.04763 0.53438 0.0
H1732 H 0.28732 0.07402 0.53289 0.0
H1733 H 0.33635 0.11869 0.52715 0.0
C1734 C 0.39142 0.06014 0.53427 0.0
C1735 C 0.39251 0.0393 0.53634 0.0
C1736 C 0.37444 0.02713 0.53661 0.0
C1737 C 0.35551 0.03554 0.53511 0.0
C1738 C 0.35491 0.05612 0.53308 0.0
C1739 C 0.37235 0.06827 0.53244 0.0
C1740 C 0.36741 0.08994 0.52995 0.0
C1741 C 0.37615 0.10256 0.54774 0.0
C1742 C 0.3749 0.09824 0.51016 0.0
C1743 C 0.34449 0.08809 0.52966 0.0
C1744 C 0.33763 0.06845 0.53157 0.0
C1745 C 0.31713 0.06305 0.53265 0.0
C1746 C 0.30326 0.07813 0.53183 0.0
C1747 C 0.30992 0.09834 0.52973 0.0
C1748 C 0.33081 0.10332 0.52844 0.0
H1749 H 0.62465 0.45914 0.48827 0.0
H1750 H 0.64028 0.49316 0.54214 0.0
H1751 H 0.67256 0.4763 0.54606 0.0
H1752 H 0.64351 0.41348 0.50662 0.0
H1753 H 0.65264 0.40578 0.48311 0.0
H1754 H 0.6316 0.42166 0.48361 0.0
H1755 H 0.65071 0.44756 0.46193 0.0
H1756 H 0.67186 0.43177 0.46144 0.0
H1757 H 0.67563 0.45714 0.47014 0.0
H1758 H 0.70265 0.45579 0.54436 0.0
H1759 H 0.72748 0.43051 0.53926 0.0
H1760 H 0.69171 0.40797 0.48745 0.0
C1761 C 0.63503 0.4631 0.50074 0.0
C1762 C 0.63024 0.47749 0.51486 0.0
C1763 C 0.64386 0.48216 0.53121 0.0
C1764 C 0.6622 0.47275 0.53348 0.0
C1765 C 0.66654 0.45857 0.51936 0.0
C1766 C 0.65328 0.45356 0.50343 0.0
C1767 C 0.66105 0.4368 0.49121 0.0
C1768 C 0.64633 0.41834 0.49115 0.0
C1769 C 0.66505 0.44374 0.46992 0.0
C1770 C 0.68065 0.4331 0.50287 0.0
C1771 C 0.68363 0.44607 0.51884 0.0
C1772 C 0.7005 0.44554 0.53191 0.0
C1773 C 0.71456 0.43112 0.52884 0.0
C1774 C 0.71156 0.41719 0.51297 0.0
C1775 C 0.69446 0.41841 0.49969 0.0
H1776 H 0.75444 0.27596 0.36281 0.0
H1777 H 0.68902 0.27692 0.35512 0.0
H1778 H 0.68869 0.30035 0.38339 0.0
H1779 H 0.7553 0.27312 0.41478 0.0
H1780 H 0.77854 0.28806 0.41862 0.0
H1781 H 0.77386 0.27393 0.39598 0.0
H1782 H 0.77939 0.30615 0.37536 0.0
H1783 H 0.78398 0.32043 0.39799 0.0
H1784 H 0.76458 0.32731 0.37998 0.0
H1785 H 0.69536 0.32194 0.4143 0.0
H1786 H 0.70806 0.33724 0.44631 0.0
H1787 H 0.76856 0.31971 0.43483 0.0
C1788 C 0.73997 0.28102 0.36696 0.0
C1789 C 0.72176 0.27451 0.35654 0.0
C1790 C 0.70327 0.2819 0.36248 0.0
C1791 C 0.7029 0.29519 0.37862 0.0
C1792 C 0.72112 0.30094 0.38874 0.0
C1793 C 0.73929 0.29397 0.38317 0.0
C1794 C 0.75654 0.30082 0.39752 0.0
C1795 C 0.76664 0.28292 0.4073 0.0
C1796 C 0.77204 0.31449 0.38709 0.0
C1797 C 0.74519 0.31231 0.41237 0.0
C1798 C 0.72485 0.31263 0.40686 0.0
C1799 C 0.71129 0.32189 0.41867 0.0
C1800 C 0.71864 0.3306 0.43679 0.0
C1801 C 0.73928 0.32963 0.44307 0.0
C1802 C 0.7527 0.3207 0.43044 0.0
H1803 H 0.55967 0.02349 0.89953 0.0
H1804 H 0.5061 0.00226 0.8645 0.0
H1805 H 0.52738 0.99511 0.83643 0.0
H1806 H 0.58336 0.04893 0.86012 0.0
H1807 H 0.60861 0.04295 0.86835 0.0
H1808 H 0.58934 0.04472 0.88617 0.0
H1809 H 0.59589 0.00893 0.89829 0.0
H1810 H 0.61516 0.00702 0.88045 0.0
H1811 H 0.59434 0.98867 0.88057 0.0
H1812 H 0.55453 0.99195 0.81142 0.0
H1813 H 0.58501 0.99388 0.7915 0.0
H1814 H 0.62035 0.01817 0.84276 0.0
C1815 C 0.55234 0.01736 0.88598 0.0
C1816 C 0.53115 0.0134 0.88433 0.0
C1817 C 0.52231 0.00513 0.86633 0.0
C1818 C 0.53427 0.0011 0.85024 0.0
C1819 C 0.55507 0.0054 0.85234 0.0
C1820 C 0.564 0.01336 0.86977 0.0
C1821 C 0.58651 0.01751 0.86796 0.0
C1822 C 0.59228 0.03985 0.87081 0.0
C1823 C 0.59869 0.00477 0.88269 0.0
C1824 C 0.58882 0.01095 0.84667 0.0
C1825 C 0.57057 0.00382 0.83794 0.0
C1826 C 0.56892 0.99739 0.81816 0.0
C1827 C 0.58632 0.99853 0.80696 0.0
C1828 C 0.6051 0.00616 0.81555 0.0
C1829 C 0.60628 0.0122 0.83574 0.0
H1830 H 0.26173 0.23497 0.37873 0.0
H1831 H 0.32745 0.23471 0.38097 0.0
H1832 H 0.32644 0.21157 0.40905 0.0
H1833 H 0.2586 0.23769 0.43133 0.0
H1834 H 0.23531 0.22263 0.4318 0.0
H1835 H 0.24092 0.23712 0.41008 0.0
H1836 H 0.23631 0.20516 0.38835 0.0
H1837 H 0.23093 0.19053 0.41009 0.0
H1838 H 0.25104 0.18402 0.39453 0.0
H1839 H 0.31873 0.18909 0.43752 0.0
H1840 H 0.30523 0.17312 0.46744 0.0
H1841 H 0.245 0.19068 0.44916 0.0
C1842 C 0.27598 0.23019 0.38506 0.0
C1843 C 0.29464 0.23648 0.37703 0.0
C1844 C 0.31283 0.22965 0.38606 0.0
C1845 C 0.31247 0.21652 0.40221 0.0
C1846 C 0.29386 0.21054 0.40954 0.0
C1847 C 0.27597 0.21743 0.40153 0.0
C1848 C 0.2582 0.21027 0.4135 0.0
C1849 C 0.24764 0.22798 0.4222 0.0
C1850 C 0.24324 0.19668 0.40086 0.0
C1851 C 0.26899 0.19858 0.42968 0.0
C1852 C 0.28949 0.19852 0.4268 0.0
C1853 C 0.30269 0.18901 0.43994 0.0
C1854 C 0.29485 0.17987 0.45686 0.0
C1855 C 0.27406 0.18066 0.4607 0.0
C1856 C 0.26095 0.18978 0.44664 0.0
H1857 H 0.48405 0.52315 0.87915 0.0
H1858 H 0.48411 0.45878 0.88543 0.0
H1859 H 0.46093 0.45471 0.85607 0.0
H1860 H 0.43132 0.52571 0.86018 0.0
H1861 H 0.43711 0.54505 0.84248 0.0
H1862 H 0.45228 0.54343 0.86534 0.0
H1863 H 0.48461 0.54164 0.84532 0.0
H1864 H 0.46957 0.54345 0.82245 0.0
H1865 H 0.48564 0.52282 0.82629 0.0
H1866 H 0.43991 0.45688 0.82517 0.0
H1867 H 0.42384 0.46531 0.7927 0.0
H1868 H 0.43716 0.52817 0.80484 0.0
C1869 C 0.47912 0.50821 0.87441 0.0
C1870 C 0.48563 0.49132 0.88506 0.0
C1871 C 0.47889 0.47203 0.87812 0.0
C1872 C 0.46575 0.46952 0.86132 0.0
C1873 C 0.45948 0.48639 0.85136 0.0
C1874 C 0.46601 0.50538 0.85746 0.0
C1875 C 0.458 0.52084 0.84305 0.0
C1876 C 0.44383 0.53457 0.85338 0.0
C1877 C 0.47549 0.53289 0.83372 0.0
C1878 C 0.44636 0.50748 0.82773 0.0
C1879 C 0.44728 0.48768 0.83306 0.0
C1880 C 0.43886 0.47233 0.82091 0.0
C1881 C 0.42976 0.47726 0.80251 0.0
C1882 C 0.42906 0.49737 0.7964 0.0
C1883 C 0.43703 0.51272 0.80939 0.0
H1884 H 0.7546 0.73538 0.14425 0.0
H1885 H 0.69696 0.75621 0.12204 0.0
H1886 H 0.69741 0.7335 0.09307 0.0
H1887 H 0.77681 0.73102 0.0978 0.0
H1888 H 0.7895 0.7086 0.10398 0.0
H1889 H 0.7841 0.72579 0.12335 0.0
H1890 H 0.76486 0.69737 0.14178 0.0
H1891 H 0.77016 0.68008 0.1224 0.0
H1892 H 0.74441 0.6832 0.12886 0.0
H1893 H 0.70585 0.71102 0.06494 0.0
H1894 H 0.72072 0.68885 0.04075 0.0
H1895 H 0.7716 0.68082 0.08235 0.0
C1896 C 0.74204 0.73503 0.13332 0.0
C1897 C 0.72574 0.74752 0.13531 0.0
C1898 C 0.7095 0.74662 0.12082 0.0
C1899 C 0.70965 0.73382 0.10433 0.0
C1900 C 0.72599 0.72176 0.10272 0.0
C1901 C 0.74178 0.72207 0.11695 0.0
C1902 C 0.75765 0.70779 0.11155 0.0
C1903 C 0.77823 0.71897 0.10902 0.0
C1904 C 0.75936 0.69112 0.12707 0.0
C1905 C 0.74859 0.69979 0.09183 0.0
C1906 C 0.73035 0.70808 0.08696 0.0
C1907 C 0.71993 0.70415 0.06875 0.0
C1908 C 0.72849 0.69161 0.05508 0.0
C1909 C 0.74711 0.68294 0.05984 0.0
C1910 C 0.75707 0.68685 0.07858 0.0
H1911 H 0.9605 0.02013 0.10306 0.0
H1912 H 0.97295 0.95727 0.10522 0.0
H1913 H 0.95598 0.95426 0.13703 0.0
H1914 H 0.96821 0.03076 0.1533 0.0
H1915 H 0.94778 0.04734 0.15467 0.0
H1916 H 0.9599 0.0443 0.13155 0.0
H1917 H 0.9253 0.03426 0.11381 0.0
H1918 H 0.913 0.03739 0.13688 0.0
H1919 H 0.90982 0.01405 0.12356 0.0
H1920 H 0.94088 0.9591 0.17043 0.0
H1921 H 0.92661 0.97093 0.20145 0.0
H1922 H 0.92117 0.02956 0.17566 0.0
C1923 C 0.95921 0.00554 0.10979 0.0
C1924 C 0.96824 0.98897 0.1015 0.0
C1925 C 0.96656 0.97033 0.11134 0.0
C1926 C 0.95677 0.96841 0.12936 0.0
C1927 C 0.94835 0.98514 0.13719 0.0
C1928 C 0.94918 0.00326 0.12753 0.0
C1929 C 0.93941 0.01911 0.13928 0.0
C1930 C 0.95474 0.03638 0.14504 0.0
C1931 C 0.92077 0.02664 0.12769 0.0
C1932 C 0.93339 0.0072 0.15733 0.0
C1933 C 0.93873 0.98764 0.1559 0.0
C1934 C 0.93627 0.97426 0.17154 0.0
C1935 C 0.92828 0.98112 0.18913 0.0
C1936 C 0.92263 0.00105 0.19076 0.0
C1937 C 0.92493 0.01411 0.17455 0.0
H1938 H 0.28891 0.78055 0.13228 0.0
H1939 H 0.29295 0.82897 0.17523 0.0
H1940 H 0.28503 0.85283 0.14823 0.0
H1941 H 0.31184 0.80851 0.09214 0.0
H1942 H 0.2956 0.79629 0.07308 0.0
H1943 H 0.30206 0.78331 0.09574 0.0
H1944 H 0.26398 0.77668 0.10197 0.0
H1945 H 0.25743 0.78951 0.0793 0.0
H1946 H 0.24773 0.79736 0.10249 0.0
H1947 H 0.27408 0.87085 0.11656 0.0
H1948 H 0.26237 0.88155 0.08285 0.0
H1949 H 0.26771 0.82138 0.0609 0.0
C1950 C 0.28812 0.79619 0.13597 0.0
C1951 C 0.29141 0.80298 0.15577 0.0
C1952 C 0.29052 0.82355 0.16007 0.0
C1953 C 0.28603 0.83716 0.14487 0.0
C1954 C 0.2828 0.82996 0.12545 0.0
C1955 C 0.28399 0.80997 0.12097 0.0
C1956 C 0.27977 0.80594 0.099 0.0
C1957 C 0.29843 0.79805 0.08943 0.0
C1958 C 0.26112 0.79153 0.09549 0.0
C1959 C 0.27561 0.82671 0.09183 0.0
C1960 C 0.27738 0.84041 0.10725 0.0
C1961 C 0.27296 0.86031 0.10431 0.0
C1962 C 0.26633 0.86626 0.08516 0.0
C1963 C 0.26441 0.85238 0.06923 0.0
C1964 C 0.26944 0.83246 0.07266 0.0
H1965 H 0.07282 0.49352 0.11877 0.0
H1966 H 0.01787 0.49372 0.15138 0.0
H1967 H 0.03838 0.49843 0.18292 0.0
H1968 H 0.10165 0.46623 0.1543 0.0
H1969 H 0.12508 0.48024 0.1505 0.0
H1970 H 0.10603 0.47764 0.13053 0.0
H1971 H 0.10583 0.51606 0.12731 0.0
H1972 H 0.12494 0.51878 0.14722 0.0
H1973 H 0.10144 0.53093 0.14889 0.0
H1974 H 0.06522 0.50137 0.21116 0.0
H1975 H 0.09602 0.50413 0.23347 0.0
H1976 H 0.13315 0.50245 0.18202 0.0
C1977 C 0.06508 0.49457 0.13254 0.0
C1978 C 0.04373 0.49323 0.13262 0.0
C1979 C 0.0342 0.49491 0.15094 0.0
C1980 C 0.04573 0.49747 0.16894 0.0
C1981 C 0.06677 0.49847 0.16834 0.0
C1982 C 0.07633 0.49724 0.15058 0.0
C1983 C 0.09912 0.49866 0.15394 0.0
C1984 C 0.10851 0.47955 0.1469 0.0
C1985 C 0.10837 0.51721 0.14374 0.0
C1986 C 0.10091 0.50069 0.1764 0.0
C1987 C 0.08211 0.5005 0.18447 0.0
C1988 C 0.08002 0.50167 0.20498 0.0
C1989 C 0.09761 0.50318 0.21754 0.0
C1990 C 0.11705 0.5036 0.20954 0.0
C1991 C 0.11857 0.50234 0.18866 0.0
H1992 H 0.37739 0.71886 0.31977 0.0
H1993 H 0.40758 0.73961 0.26718 0.0
H1994 H 0.43912 0.74646 0.28757 0.0
H1995 H 0.40123 0.75453 0.35364 0.0
H1996 H 0.40334 0.73738 0.37413 0.0
H1997 H 0.38321 0.73364 0.35535 0.0
H1998 H 0.39453 0.69797 0.34873 0.0
H1999 H 0.41465 0.70157 0.36756 0.0
H2000 H 0.42033 0.69446 0.34265 0.0
H2001 H 0.46714 0.75183 0.31375 0.0
H2002 H 0.48992 0.75473 0.34382 0.0
H2003 H 0.44165 0.72994 0.37931 0.0
C2004 C 0.3907 0.72459 0.31249 0.0
C2005 C 0.38997 0.72877 0.29187 0.0
C2006 C 0.40768 0.73655 0.28299 0.0
C2007 C 0.4257 0.74039 0.29442 0.0
C2008 C 0.42583 0.73631 0.31472 0.0
C2009 C 0.40884 0.72851 0.32368 0.0
C2010 C 0.41297 0.72574 0.34583 0.0
C2011 C 0.39938 0.73859 0.35795 0.0
C2012 C 0.41048 0.70362 0.35152 0.0
C2013 C 0.43491 0.73328 0.34792 0.0
C2014 C 0.44204 0.7393 0.32981 0.0
C2015 C 0.46176 0.74708 0.32802 0.0
C2016 C 0.47458 0.7487 0.34522 0.0
C2017 C 0.46764 0.74254 0.36399 0.0
C2018 C 0.4475 0.73473 0.36523 0.0
H2019 H 0.96064 0.38633 0.98166 0.0
H2020 H 0.01947 0.41574 0.97375 0.0
H2021 H 0.02871 0.3876 0.95273 0.0
H2022 H 0.97825 0.33786 0.98693 0.0
H2023 H 0.95654 0.32561 0.97411 0.0
H2024 H 0.95399 0.34886 0.98684 0.0
H2025 H 0.93934 0.36415 0.95421 0.0
H2026 H 0.94192 0.34093 0.94135 0.0
H2027 H 0.95358 0.36365 0.93204 0.0
H2028 H 0.03183 0.35571 0.93353 0.0
H2029 H 0.02987 0.32141 0.92013 0.0
H2030 H 0.96931 0.31242 0.94167 0.0
C2031 C 0.97533 0.38696 0.9752 0.0
C2032 C 0.98931 0.40323 0.97911 0.0
C2033 C 0.00859 0.40337 0.97087 0.0
C2034 C 0.01389 0.38754 0.95884 0.0
C2035 C 0.99978 0.37166 0.95532 0.0
C2036 C 0.98095 0.37119 0.96339 0.0
C2037 C 0.96914 0.35174 0.9586 0.0
C2038 C 0.9642 0.34035 0.97776 0.0
C2039 C 0.94985 0.35534 0.94578 0.0
C2040 C 0.98437 0.34121 0.94682 0.0
C2041 C 0.00181 0.35306 0.94481 0.0
C2042 C 0.01821 0.34633 0.93494 0.0
C2043 C 0.01692 0.32681 0.92732 0.0
C2044 C 0.99945 0.31415 0.92984 0.0
C2045 C 0.98287 0.32168 0.93943 0.0
H2046 H 0.629 0.77281 0.27729 0.0
H2047 H 0.61489 0.83439 0.26733 0.0
H2048 H 0.59089 0.83216 0.29453 0.0
H2049 H 0.57856 0.75412 0.28985 0.0
H2050 H 0.58823 0.73758 0.30868 0.0
H2051 H 0.60295 0.74383 0.2875 0.0
H2052 H 0.63304 0.75608 0.31122 0.0
H2053 H 0.61839 0.75 0.33245 0.0
H2054 H 0.62927 0.77492 0.32963 0.0
H2055 H 0.56889 0.82303 0.32372 0.0
H2056 H 0.55206 0.80823 0.35281 0.0
H2057 H 0.58209 0.75327 0.34374 0.0
C2058 C 0.62054 0.7857 0.28055 0.0
C2059 C 0.62357 0.80369 0.27008 0.0
C2060 C 0.61269 0.82044 0.27517 0.0
C2061 C 0.59901 0.81929 0.29054 0.0
C2062 C 0.59654 0.80133 0.30073 0.0
C2063 C 0.60707 0.78487 0.29593 0.0
C2064 C 0.60265 0.76766 0.30978 0.0
C2065 C 0.59249 0.74974 0.29826 0.0
C2066 C 0.62199 0.76183 0.32146 0.0
C2067 C 0.5881 0.777 0.32324 0.0
C2068 C 0.58454 0.79635 0.31773 0.0
C2069 C 0.57158 0.80788 0.32814 0.0
C2070 C 0.56209 0.79937 0.34463 0.0
C2071 C 0.56585 0.77966 0.35062 0.0
C2072 C 0.57899 0.76843 0.33966 0.0
H2073 H 0.01472 0.10565 0.94608 0.0
H2074 H 0.97787 0.11868 0.99589 0.0
H2075 H 0.97462 0.15272 0.98367 0.0
H2076 H 0.04289 0.152 0.94836 0.0
H2077 H 0.04488 0.15429 0.9218 0.0
H2078 H 0.04239 0.12999 0.93291 0.0
H2079 H 0.01091 0.1213 0.90959 0.0
H2080 H 0.01326 0.14564 0.89846 0.0
H2081 H 0.98987 0.1373 0.90914 0.0
H2082 H 0.97672 0.18575 0.96772 0.0
H2083 H 0.98597 0.21663 0.95006 0.0
H2084 H 0.02309 0.18356 0.91143 0.0
C2085 C 0.0059 0.11557 0.95442 0.0
C2086 C 0.99619 0.1091 0.97178 0.0
C2087 C 0.98487 0.12281 0.98217 0.0
C2088 C 0.98303 0.14233 0.97544 0.0
C2089 C 0.99277 0.14816 0.95838 0.0
C2090 C 0.00412 0.1353 0.94806 0.0
C2091 C 0.01433 0.14595 0.93105 0.0
C2092 C 0.03749 0.14553 0.9337 0.0
C2093 C 0.00662 0.13701 0.91086 0.0
C2094 C 0.00719 0.16685 0.93372 0.0
C2095 C 0.99452 0.16764 0.9494 0.0
C2096 C 0.98649 0.18533 0.95529 0.0
C2097 C 0.9918 0.20281 0.94509 0.0
C2098 C 0.00515 0.20254 0.92925 0.0
C2099 C 0.01271 0.18423 0.92335 0.0
H2100 H 0.39373 0.30361 0.21758 0.0
H2101 H 0.40577 0.24801 0.24808 0.0
H2102 H 0.43394 0.24329 0.22678 0.0
H2103 H 0.40034 0.28305 0.16954 0.0
H2104 H 0.41109 0.30587 0.15951 0.0
H2105 H 0.39365 0.30676 0.17919 0.0
H2106 H 0.42026 0.3281 0.20052 0.0
H2107 H 0.43789 0.32705 0.18097 0.0
H2108 H 0.44503 0.31886 0.20571 0.0
H2109 H 0.46058 0.24382 0.20209 0.0
H2110 H 0.47995 0.24636 0.1718 0.0
H2111 H 0.44795 0.29873 0.15389 0.0
C2112 C 0.4021 0.29037 0.21992 0.0
C2113 C 0.39757 0.27662 0.2353 0.0
C2114 C 0.40923 0.25948 0.23734 0.0
C2115 C 0.42531 0.25648 0.2251 0.0
C2116 C 0.42938 0.27039 0.21038 0.0
C2117 C 0.41784 0.28672 0.20736 0.0
C2118 C 0.42399 0.29809 0.18892 0.0
C2119 C 0.40621 0.29845 0.17337 0.0
C2120 C 0.43229 0.31928 0.19437 0.0
C2121 C 0.44061 0.28537 0.18198 0.0
C2122 C 0.4438 0.2698 0.19494 0.0
C2123 C 0.45821 0.25592 0.19178 0.0
C2124 C 0.46922 0.25757 0.17455 0.0
C2125 C 0.46544 0.27271 0.16041 0.0
C2126 C 0.4512 0.28702 0.16443 0.0
H2127 H 0.53126 0.37405 0.0073 0.0
H2128 H 0.53521 0.41311 0.05887 0.0
H2129 H 0.53236 0.3837 0.081 0.0
H2130 H 0.49527 0.33831 0.02503 0.0
H2131 H 0.50674 0.31721 0.01448 0.0
H2132 H 0.50958 0.34129 0.00298 0.0
H2133 H 0.54858 0.33943 0.0058 0.0
H2134 H 0.54587 0.3153 0.0173 0.0
H2135 H 0.56094 0.33511 0.02976 0.0
H2136 H 0.52644 0.34986 0.09713 0.0
H2137 H 0.52062 0.31438 0.10615 0.0
H2138 H 0.52273 0.29771 0.04393 0.0
C2139 C 0.53157 0.37637 0.02327 0.0
C2140 C 0.53332 0.39577 0.03146 0.0
C2141 C 0.53393 0.39831 0.05239 0.0
C2142 C 0.53227 0.38172 0.06501 0.0
C2143 C 0.53035 0.36275 0.05644 0.0
C2144 C 0.53028 0.36001 0.03605 0.0
C2145 C 0.52817 0.33813 0.03053 0.0
C2146 C 0.50879 0.33347 0.01749 0.0
C2147 C 0.54702 0.33161 0.02025 0.0
C2148 C 0.52671 0.32894 0.05097 0.0
C2149 C 0.52788 0.34336 0.06574 0.0
C2150 C 0.52579 0.33844 0.08571 0.0
C2151 C 0.52244 0.31828 0.09069 0.0
C2152 C 0.52146 0.30328 0.07577 0.0
C2153 C 0.52378 0.30878 0.05571 0.0
H2154 H 0.62615 0.24815 0.20084 0.0
H2155 H 0.64229 0.18745 0.18867 0.0
H2156 H 0.61759 0.18571 0.16041 0.0
H2157 H 0.57246 0.23713 0.19165 0.0
H2158 H 0.56802 0.26128 0.18117 0.0
H2159 H 0.58828 0.25856 0.19963 0.0
H2160 H 0.61376 0.27444 0.17545 0.0
H2161 H 0.5936 0.27708 0.15686 0.0
H2162 H 0.6155 0.26375 0.151 0.0
H2163 H 0.59203 0.19075 0.13251 0.0
H2164 H 0.56404 0.20074 0.10964 0.0
H2165 H 0.56079 0.25587 0.1427 0.0
C2166 C 0.62448 0.23433 0.19252 0.0
C2167 C 0.63685 0.21814 0.19703 0.0
C2168 C 0.63388 0.20049 0.18532 0.0
C2169 C 0.61962 0.19921 0.16925 0.0
C2170 C 0.60793 0.21545 0.16524 0.0
C2171 C 0.60986 0.23251 0.17678 0.0
C2172 C 0.59445 0.24733 0.17001 0.0
C2173 C 0.57994 0.2513 0.1866 0.0
C2174 C 0.60496 0.2668 0.16291 0.0
C2175 C 0.58367 0.23593 0.15279 0.0
C2176 C 0.59197 0.21772 0.15009 0.0
C2177 C 0.58524 0.20487 0.13461 0.0
C2178 C 0.56944 0.21069 0.12166 0.0
C2179 C 0.56026 0.22895 0.12456 0.0
C2180 C 0.56745 0.24172 0.14034 0.0
H2181 H 0.48239 0.12914 0.008 0.0
H2182 H 0.47557 0.0864 0.05577 0.0
H2183 H 0.48282 0.11325 0.08055 0.0
H2184 H 0.52307 0.16155 0.03357 0.0
H2185 H 0.51292 0.1841 0.02378 0.0
H2186 H 0.50956 0.16123 0.00965 0.0
H2187 H 0.47078 0.16483 0.00785 0.0
H2188 H 0.474 0.18761 0.02202 0.0
H2189 H 0.45774 0.1674 0.03058 0.0
H2190 H 0.48731 0.14453 0.09998 0.0
H2191 H 0.4892 0.17876 0.11329 0.0
H2192 H 0.49344 0.20204 0.05335 0.0
C2193 C 0.48292 0.12545 0.02368 0.0
C2194 C 0.47846 0.10573 0.03004 0.0
C2195 C 0.47886 0.10144 0.05065 0.0
C2196 C 0.48306 0.11656 0.06481 0.0
C2197 C 0.4869 0.13592 0.05813 0.0
C2198 C 0.48699 0.14046 0.03808 0.0
C2199 C 0.49017 0.16277 0.03504 0.0
C2200 C 0.51012 0.1677 0.02491 0.0
C2201 C 0.47209 0.17114 0.02318 0.0
C2202 C 0.49128 0.17003 0.05648 0.0
C2203 C 0.48956 0.15421 0.06951 0.0
C2204 C 0.48895 0.15704 0.08998 0.0
C2205 C 0.48995 0.17656 0.09738 0.0
C2206 C 0.49155 0.19306 0.08437 0.0
C2207 C 0.49251 0.18971 0.06366 0.0
H2208 H 0.30319 0.38706 0.72455 0.0
H2209 H 0.25376 0.42571 0.73301 0.0
H2210 H 0.27789 0.45498 0.73408 0.0
H2211 H 0.33935 0.41308 0.75702 0.0
H2212 H 0.36046 0.40943 0.7417 0.0
H2213 H 0.33922 0.39158 0.74093 0.0
H2214 H 0.33466 0.39612 0.70273 0.0
H2215 H 0.35594 0.41395 0.70337 0.0
H2216 H 0.3318 0.42074 0.69271 0.0
H2217 H 0.30755 0.47998 0.73514 0.0
H2218 H 0.34053 0.49887 0.73595 0.0
H2219 H 0.37053 0.44389 0.72638 0.0
C2220 C 0.29739 0.40171 0.72635 0.0
C2221 C 0.27657 0.40408 0.72874 0.0
C2222 C 0.26967 0.42349 0.7314 0.0
C2223 C 0.28324 0.44022 0.7319 0.0
C2224 C 0.30368 0.43733 0.72969 0.0
C2225 C 0.31073 0.41857 0.72691 0.0
C2226 C 0.3335 0.41951 0.72535 0.0
C2227 C 0.34373 0.4077 0.74226 0.0
C2228 C 0.33931 0.41215 0.70482 0.0
C2229 C 0.33815 0.44171 0.72782 0.0
C2230 C 0.32075 0.45174 0.73025 0.0
C2231 C 0.32128 0.4723 0.73316 0.0
C2232 C 0.34011 0.4829 0.73362 0.0
C2233 C 0.35819 0.47293 0.73121 0.0
C2234 C 0.35705 0.45203 0.7282 0.0
H2235 H 0.28728 0.64296 0.73386 0.0
H2236 H 0.27306 0.62768 0.79448 0.0
H2237 H 0.29816 0.60182 0.79486 0.0
H2238 H 0.29521 0.59197 0.7174 0.0
H2239 H 0.31578 0.59965 0.70208 0.0
H2240 H 0.29597 0.61635 0.70624 0.0
H2241 H 0.32274 0.64326 0.71938 0.0
H2242 H 0.34261 0.6266 0.7154 0.0
H2243 H 0.34013 0.63735 0.73969 0.0
H2244 H 0.3259 0.57868 0.78934 0.0
H2245 H 0.35362 0.55903 0.77776 0.0
H2246 H 0.3497 0.58899 0.72063 0.0
C2247 C 0.28923 0.63394 0.74707 0.0
C2248 C 0.27828 0.63743 0.76418 0.0
C2249 C 0.28146 0.62546 0.78129 0.0
C2250 C 0.29562 0.61067 0.78163 0.0
C2251 C 0.30647 0.6079 0.76471 0.0
C2252 C 0.30337 0.61908 0.74769 0.0
C2253 C 0.31745 0.61338 0.73172 0.0
C2254 C 0.30538 0.60482 0.71327 0.0
C2255 C 0.33157 0.63121 0.72623 0.0
C2256 C 0.32904 0.59743 0.74251 0.0
C2257 C 0.32245 0.59447 0.7615 0.0
C2258 C 0.33112 0.58077 0.77444 0.0
C2259 C 0.34691 0.56972 0.76775 0.0
C2260 C 0.35386 0.57242 0.74829 0.0
C2261 C 0.34473 0.5865 0.73558 0.0
H2262 H 0.88361 0.43506 0.45413 0.0
H2263 H 0.88309 0.47196 0.50748 0.0
H2264 H 0.85117 0.45511 0.516 0.0
H2265 H 0.83005 0.42865 0.44327 0.0
H2266 H 0.83089 0.40264 0.43692 0.0
H2267 H 0.85248 0.41939 0.43312 0.0
H2268 H 0.87525 0.39691 0.45478 0.0
H2269 H 0.8538 0.38001 0.45848 0.0
H2270 H 0.86825 0.3906 0.47967 0.0
H2271 H 0.81887 0.4344 0.51899 0.0
H2272 H 0.79192 0.4075 0.51919 0.0
H2273 H 0.81651 0.38049 0.46758 0.0
C2274 C 0.87711 0.43969 0.46772 0.0
C2275 C 0.8861 0.45553 0.47966 0.0
C2276 C 0.87647 0.46073 0.49729 0.0
C2277 C 0.85825 0.45104 0.5025 0.0
C2278 C 0.84995 0.43568 0.49035 0.0
C2279 C 0.85931 0.42968 0.47361 0.0
C2280 C 0.84836 0.41134 0.46428 0.0
C2281 C 0.83995 0.41578 0.44314 0.0
C2282 C 0.86224 0.39367 0.46431 0.0
C2283 C 0.83146 0.40794 0.47851 0.0
C2284 C 0.83234 0.4225 0.49312 0.0
C2285 C 0.81809 0.42284 0.50771 0.0
C2286 C 0.80281 0.4076 0.50766 0.0
C2287 C 0.80228 0.39201 0.49345 0.0
C2288 C 0.81669 0.39227 0.47862 0.0
H2289 H 0.75422 0.89087 0.75308 0.0
H2290 H 0.71147 0.85186 0.78345 0.0
H2291 H 0.68744 0.87876 0.78342 0.0
H2292 H 0.74388 0.93608 0.77716 0.0
H2293 H 0.74623 0.95099 0.75505 0.0
H2294 H 0.76012 0.92876 0.75795 0.0
H2295 H 0.74415 0.91517 0.72435 0.0
H2296 H 0.73021 0.93736 0.72134 0.0
H2297 H 0.71699 0.91323 0.72059 0.0
H2298 H 0.66824 0.91071 0.78054 0.0
H2299 H 0.65541 0.9442 0.77401 0.0
H2300 H 0.71011 0.96073 0.74361 0.0
C2301 C 0.73973 0.88777 0.7595 0.0
C2302 C 0.73487 0.86914 0.76831 0.0
C2303 C 0.7158 0.86606 0.77691 0.0
C2304 C 0.70195 0.88122 0.77683 0.0
C2305 C 0.70726 0.89934 0.76794 0.0
C2306 C 0.72566 0.90258 0.75933 0.0
C2307 C 0.72774 0.92322 0.75051 0.0
C2308 C 0.74554 0.93548 0.76079 0.0
C2309 C 0.72989 0.92217 0.72786 0.0
C2310 C 0.70765 0.93117 0.75555 0.0
C2311 C 0.69605 0.91728 0.76571 0.0
C2312 C 0.67715 0.92163 0.77245 0.0
C2313 C 0.66999 0.94069 0.76869 0.0
C2314 C 0.68164 0.95504 0.75813 0.0
C2315 C 0.70066 0.95004 0.75146 0.0
H2316 H 0.62518 0.56904 0.98416 0.0
H2317 H 0.66032 0.51672 0.99246 0.0
H2318 H 0.69155 0.53822 0.99685 0.0
H2319 H 0.66311 0.59879 0.95722 0.0
H2320 H 0.65742 0.62177 0.96913 0.0
H2321 H 0.63796 0.60221 0.96531 0.0
H2322 H 0.63163 0.60245 0.00304 0.0
H2323 H 0.65113 0.6219 0.00699 0.0
H2324 H 0.65242 0.59897 0.02076 0.0
H2325 H 0.71872 0.56524 0.00194 0.0
H2326 H 0.74015 0.59606 0.00705 0.0
H2327 H 0.68754 0.63113 0.99576 0.0
C2328 C 0.63951 0.56214 0.98655 0.0
C2329 C 0.64034 0.54121 0.98799 0.0
C2330 C 0.65933 0.53273 0.99147 0.0
C2331 C 0.67716 0.54481 0.9939 0.0
C2332 C 0.67579 0.56539 0.9928 0.0
C2333 C 0.6575 0.57403 0.98914 0.0
C2334 C 0.66021 0.59658 0.98951 0.0
C2335 C 0.65433 0.60535 0.96907 0.0
C2336 C 0.64813 0.60549 0.00606 0.0
C2337 C 0.68282 0.59922 0.99417 0.0
C2338 C 0.69151 0.58103 0.9959 0.0
C2339 C 0.7121 0.5796 1.00053 0.0
C2340 C 0.72416 0.59723 0.00348 0.0
C2341 C 0.71562 0.61611 0.00187 0.0
C2342 C 0.69462 0.61699 0.99707 0.0
H2343 H 0.25012 0.6238 0.23028 0.0
H2344 H 0.20254 0.66569 0.23184 0.0
H2345 H 0.17788 0.63814 0.23913 0.0
H2346 H 0.21897 0.58328 0.20657 0.0
H2347 H 0.23121 0.56416 0.22069 0.0
H2348 H 0.24507 0.58711 0.21518 0.0
H2349 H 0.25381 0.5928 0.25281 0.0
H2350 H 0.24004 0.56986 0.25842 0.0
H2351 H 0.23368 0.59282 0.26993 0.0
H2352 H 0.15895 0.6065 0.24848 0.0
H2353 H 0.14665 0.57256 0.25768 0.0
H2354 H 0.20598 0.55079 0.24824 0.0
C2355 C 0.23449 0.62712 0.23213 0.0
C2356 C 0.22819 0.64685 0.23049 0.0
C2357 C 0.20761 0.65064 0.23285 0.0
C2358 C 0.19353 0.63511 0.23705 0.0
C2359 C 0.20021 0.61583 0.23859 0.0
C2360 C 0.22016 0.61173 0.23604 0.0
C2361 C 0.22337 0.58969 0.23853 0.0
C2362 C 0.23005 0.58052 0.21908 0.0
C2363 C 0.23863 0.58609 0.25596 0.0
C2364 C 0.2022 0.58209 0.24323 0.0
C2365 C 0.18909 0.59744 0.24325 0.0
C2366 C 0.169 0.59432 0.24825 0.0
C2367 C 0.16216 0.57502 0.25349 0.0
C2368 C 0.1753 0.55906 0.25346 0.0
C2369 C 0.19551 0.56266 0.24803 0.0
H2370 H 0.90025 0.56582 0.03949 0.0
H2371 H 0.86913 0.50742 0.03855 0.0
H2372 H 0.83645 0.52301 0.03222 0.0
H2373 H 0.86259 0.59189 0.06385 0.0
H2374 H 0.86575 0.61422 0.04927 0.0
H2375 H 0.88667 0.59844 0.05356 0.0
H2376 H 0.89043 0.59546 0.01549 0.0
H2377 H 0.86947 0.61119 0.01108 0.0
H2378 H 0.86896 0.58681 0.99977 0.0
H2379 H 0.80708 0.54499 0.02795 0.0
H2380 H 0.78305 0.57184 0.02427 0.0
H2381 H 0.83329 0.61593 0.02592 0.0
C2382 C 0.88652 0.55637 0.03798 0.0
C2383 C 0.88714 0.53543 0.03955 0.0
C2384 C 0.86894 0.52348 0.03728 0.0
C2385 C 0.85034 0.5322 0.03373 0.0
C2386 C 0.85022 0.55287 0.03224 0.0
C2387 C 0.86783 0.56481 0.03411 0.0
C2388 C 0.8635 0.58663 0.0317 0.0
C2389 C 0.87001 0.59849 0.05073 0.0
C2390 C 0.8737 0.59554 0.01342 0.0
C2391 C 0.84067 0.58512 0.02847 0.0
C2392 C 0.83332 0.5655 0.02894 0.0
C2393 C 0.81266 0.56038 0.02732 0.0
C2394 C 0.79914 0.57572 0.02527 0.0
C2395 C 0.80633 0.5959 0.0246 0.0
C2396 C 0.82739 0.6006 0.02602 0.0
H2397 H 0.1195 0.96861 0.0293 0.0
H2398 H 0.11277 0.97431 0.96505 0.0
H2399 H 0.14177 0.95308 0.96137 0.0
H2400 H 0.17424 0.96805 0.03301 0.0
H2401 H 0.17425 0.94981 0.05262 0.0
H2402 H 0.15403 0.96668 0.05008 0.0
H2403 H 0.12779 0.93668 0.04802 0.0
H2404 H 0.14791 0.91973 0.05055 0.0
H2405 H 0.13004 0.91758 0.0295 0.0
H2406 H 0.17073 0.92955 0.96488 0.0
H2407 H 0.19662 0.90586 0.97533 0.0
H2408 H 0.18305 0.91519 0.03709 0.0
C2409 C 0.12406 0.96542 0.01442 0.0
C2410 C 0.1138 0.97317 0.99747 0.0
C2411 C 0.12053 0.96881 0.9783 0.0
C2412 C 0.13694 0.95666 0.97605 0.0
C2413 C 0.14647 0.94903 0.9931 0.0
C2414 C 0.14026 0.9533 0.01191 0.0
C2415 C 0.15242 0.94268 0.02784 0.0
C2416 C 0.16445 0.9577 0.0417 0.0
C2417 C 0.13872 0.92831 0.03967 0.0
C2418 C 0.16628 0.93151 0.01508 0.0
C2419 C 0.16279 0.93544 0.99509 0.0
C2420 C 0.17363 0.92645 0.98051 0.0
C2421 C 0.1883 0.91302 0.98658 0.0
C2422 C 0.19186 0.90864 0.00701 0.0
C2423 C 0.18073 0.91818 0.02135 0.0
loop_
_geom_bond_atom_site_label_1
_geom_bond_atom_site_label_2
_geom_bond_distance
_geom_bond_site_symmetry_2
_ccdc_geom_bond_type
C0 C1 1.391 . S
C0 C4 1.391 . S
C0 H42 0.948 . S
C1 C0 1.391 . S
C1 C2 1.391 . S
C2 C1 1.391 . S
C2 H58 0.947 1_455 S
C2 C59 1.392 1_556 S
C3 C4 1.391 1_554 S
C3 C7 1.397 . S
C3 C59 1.419 . S
C4 C0 1.391 . S
C4 C3 1.391 1_556 S
C4 C5 1.399 . S
C5 C4 1.399 . S
C5 C8 1.396 1_556 S
C5 C17 1.453 . S
C5 C18 1.684 . S
H6 C30 0.948 . S
C7 C3 1.397 . S
C7 C8 1.394 . S
C7 C26 1.723 . S
C8 C5 1.396 1_554 S
C8 C7 1.394 . S
C8 C38 1.723 . S
H9 C32 0.948 . S
H10 C33 0.959 . S
H11 C39 1.016 . S
H12 C40 0.979 . S
H13 C40 0.980 . S
H14 C40 0.983 . S
H15 C39 0.940 1_565 S
H16 C39 0.985 . S
C17 C5 1.453 . S
C17 H46 0.982 1_556 S
C17 H47 0.979 . S
C17 H48 0.977 . S
C18 C5 1.684 . S
C18 H43 0.979 . S
C18 H44 0.980 . S
C18 H45 0.983 . S
C19 C20 1.391 . S
C19 C24 1.391 . S
C19 H49 0.948 . S
C20 C19 1.391 . S
C20 C21 1.391 . S
C21 C20 1.391 . S
C21 C22 1.392 1_655 S
C21 H50 0.948 1_545 S
C22 C21 1.392 1_455 S
C22 C23 1.419 . S
C22 H51 0.913 1_545 S
C23 C22 1.419 . S
C23 C24 1.391 1_455 S
C23 C27 1.397 . S
C24 C19 1.391 . S
C24 C23 1.391 1_655 S
C24 C25 1.399 . S
C25 C24 1.399 . S
C25 C26 1.396 1_655 S
C25 C28 1.453 1_655 S
C25 C29 1.684 . S
C26 C7 1.723 . S
C26 C25 1.396 1_455 S
C26 C27 1.394 . S
C27 C23 1.397 . S
C27 C26 1.394 . S
C27 C37 1.723 . S
C28 C25 1.453 1_455 S
C28 H52 0.982 . S
C28 H53 0.979 1_455 S
C28 H54 0.977 . S
C29 C25 1.684 . S
C29 H55 0.979 . S
C29 H56 0.980 . S
C29 H57 0.983 . S
C30 H6 0.948 . S
C30 C31 1.391 . S
C30 C35 1.391 . S
C31 C30 1.391 . S
C31 C32 1.373 1_564 S
C32 H9 0.948 . S
C32 C31 1.373 1_546 S
C32 C33 1.411 . S
C33 H10 0.959 . S
C33 C32 1.411 . S
C33 C34 1.406 1_556 S
C34 C33 1.406 1_554 S
C34 C35 1.391 1_545 S
C34 C38 1.397 . S
C35 C30 1.391 . S
C35 C34 1.391 1_565 S
C35 C36 1.402 . S
C36 C35 1.402 . S
C36 C37 1.383 1_565 S
C36 C39 1.452 1_565 S
C36 C40 1.696 . S
C37 C27 1.723 . S
C37 C36 1.383 1_545 S
C37 C38 1.394 . S
C38 C8 1.723 . S
C38 C34 1.397 . S
C38 C37 1.394 . S
C39 H11 1.016 . S
C39 H15 0.940 1_545 S
C39 H16 0.985 . S
C39 C36 1.452 1_545 S
C40 H12 0.979 . S
C40 H13 0.980 . S
C40 H14 0.983 . S
C40 C36 1.696 . S
H41 C59 0.948 1_655 S
H42 C0 0.948 . S
H43 C18 0.979 . S
H44 C18 0.980 . S
H45 C18 0.983 . S
H46 C17 0.982 1_554 S
H47 C17 0.979 . S
H48 C17 0.977 . S
H49 C19 0.948 . S
H50 C21 0.948 1_565 S
H51 C22 0.913 1_565 S
H52 C28 0.982 . S
H53 C28 0.979 1_655 S
H54 C28 0.977 . S
H55 C29 0.979 . S
H56 C29 0.980 . S
H57 C29 0.983 . S
H58 C2 0.947 1_655 S
C59 C2 1.392 1_554 S
C59 C3 1.419 . S
C59 H41 0.948 1_455 S
C60 C61 1.391 . S
C60 C64 1.391 . S
C60 H102 0.948 . S
C61 C60 1.391 . S
C61 C62 1.391 . S
C62 C61 1.391 . S
C62 H118 0.947 . S
C62 C119 1.392 . S
C63 C64 1.391 . S
C63 C67 1.397 . S
C63 C119 1.419 . S
C64 C60 1.391 . S
C64 C63 1.391 . S
C64 C65 1.399 . S
C65 C64 1.399 . S
C65 C68 1.396 . S
C65 C77 1.453 . S
C65 C78 1.684 . S
H66 C90 0.948 . S
C67 C63 1.397 . S
C67 C68 1.394 . S
C67 C86 1.723 . S
C68 C65 1.396 . S
C68 C67 1.394 . S
C68 C98 1.723 . S
H69 C92 0.947 . S
H70 C93 0.948 . S
H71 C99 0.982 . S
H72 C100 0.979 . S
H73 C100 0.980 . S
H74 C100 0.983 . S
H75 C99 0.979 . S
H76 C99 0.977 . S
C77 C65 1.453 . S
C77 H106 0.982 . S
C77 H107 0.979 . S
C77 H108 0.977 . S
C78 C65 1.684 . S
C78 H103 0.979 . S
C78 H104 0.980 . S
C78 H105 0.983 . S
C79 C80 1.391 . S
C79 C84 1.391 . S
C79 H109 0.948 . S
C80 C79 1.391 . S
C80 C81 1.391 . S
C81 C80 1.391 . S
C81 C82 1.392 . S
C81 H110 0.947 . S
C82 C81 1.392 . S
C82 C83 1.419 . S
C82 H111 0.948 . S
C83 C82 1.419 . S
C83 C84 1.391 . S
C83 C87 1.397 . S
C84 C79 1.391 . S
C84 C83 1.391 . S
C84 C85 1.399 . S
C85 C84 1.399 . S
C85 C86 1.396 . S
C85 C88 1.453 . S
C85 C89 1.684 . S
C86 C67 1.723 . S
C86 C85 1.396 . S
C86 C87 1.394 . S
C87 C83 1.397 . S
C87 C86 1.394 . S
C87 C97 1.723 . S
C88 C85 1.453 . S
C88 H112 0.982 . S
C88 H113 0.979 . S
C88 H114 0.977 . S
C89 C85 1.684 . S
C89 H115 0.979 . S
C89 H116 0.980 . S
C89 H117 0.983 . S
C90 H66 0.948 . S
C90 C91 1.391 . S
C90 C95 1.391 . S
C91 C90 1.391 . S
C91 C92 1.391 . S
C92 H69 0.947 . S
C92 C91 1.391 . S
C92 C93 1.392 . S
C93 H70 0.948 . S
C93 C92 1.392 . S
C93 C94 1.419 . S
C94 C93 1.419 . S
C94 C95 1.391 . S
C94 C98 1.397 . S
C95 C90 1.391 . S
C95 C94 1.391 . S
C95 C96 1.399 . S
C96 C95 1.399 . S
C96 C97 1.396 . S
C96 C99 1.453 . S
C96 C100 1.684 . S
C97 C87 1.723 . S
C97 C96 1.396 . S
C97 C98 1.394 . S
C98 C68 1.723 . S
C98 C94 1.397 . S
C98 C97 1.394 . S
C99 H71 0.982 . S
C99 H75 0.979 . S
C99 H76 0.977 . S
C99 C96 1.453 . S
C100 H72 0.979 . S
C100 H73 0.980 . S
C100 H74 0.983 . S
C100 C96 1.684 . S
H101 C119 0.948 . S
H102 C60 0.948 . S
H103 C78 0.979 . S
H104 C78 0.980 . S
H105 C78 0.983 . S
H106 C77 0.982 . S
H107 C77 0.979 . S
H108 C77 0.977 . S
H109 C79 0.948 . S
H110 C81 0.947 . S
H111 C82 0.948 . S
H112 C88 0.982 . S
H113 C88 0.979 . S
H114 C88 0.977 . S
H115 C89 0.979 . S
H116 C89 0.980 . S
H117 C89 0.983 . S
H118 C62 0.947 . S
C119 C62 1.392 . S
C119 C63 1.419 . S
C119 H101 0.948 . S
C120 C121 1.391 1_454 S
C120 C124 1.391 1_455 S
C120 H162 0.948 . S
C121 C120 1.391 1_656 S
C121 C122 1.391 . S
C122 C121 1.391 . S
C122 H178 0.947 . S
C122 C179 1.392 . S
C123 C124 1.391 . S
C123 C127 1.397 . S
C123 C179 1.419 1_554 S
C124 C120 1.391 1_655 S
C124 C123 1.391 . S
C124 C125 1.399 1_655 S
C125 C124 1.399 1_455 S
C125 C128 1.396 1_455 S
C125 C137 1.453 . S
C125 C138 1.684 . S
H126 C150 0.948 . S
C127 C123 1.397 . S
C127 C128 1.394 . S
C127 C146 1.723 . S
C128 C125 1.396 1_655 S
C128 C127 1.394 . S
C128 C158 1.723 . S
H129 C152 0.947 . S
H130 C153 0.948 . S
H131 C159 0.982 . S
H132 C160 0.958 1_455 S
H133 C160 0.980 . S
H134 C160 0.983 . S
H135 C159 0.979 . S
H136 C159 0.977 . S
C137 C125 1.453 . S
C137 H166 0.982 1_455 S
C137 H167 0.979 . S
C137 H168 0.977 . S
C138 C125 1.684 . S
C138 H163 0.979 . S
C138 H164 0.980 . S
C138 H165 0.983 . S
C139 C140 1.391 . S
C139 C144 1.391 . S
C139 H169 0.948 . S
C140 C139 1.391 . S
C140 C141 1.391 . S
C141 C140 1.391 . S
C141 C142 1.392 . S
C141 H170 0.947 . S
C142 C141 1.392 . S
C142 C143 1.419 . S
C142 H171 0.948 . S
C143 C142 1.419 . S
C143 C144 1.391 . S
C143 C147 1.397 . S
C144 C139 1.391 . S
C144 C143 1.391 . S
C144 C145 1.399 . S
C145 C144 1.399 . S
C145 C146 1.396 . S
C145 C148 1.453 . S
C145 C149 1.684 1_554 S
C146 C127 1.723 . S
C146 C145 1.396 . S
C146 C147 1.394 . S
C147 C143 1.397 . S
C147 C146 1.394 . S
C147 C157 1.723 . S
C148 C145 1.453 . S
C148 H172 0.982 . S
C148 H173 0.979 . S
C148 H174 0.977 . S
C149 C145 1.684 1_556 S
C149 H175 0.979 . S
C149 H176 0.980 . S
C149 H177 0.983 . S
C150 H126 0.948 . S
C150 C151 1.391 . S
C150 C155 1.391 . S
C151 C150 1.391 . S
C151 C152 1.391 . S
C152 H129 0.947 . S
C152 C151 1.391 . S
C152 C153 1.392 . S
C153 H130 0.948 . S
C153 C152 1.392 . S
C153 C154 1.419 . S
C154 C153 1.419 . S
C154 C155 1.391 . S
C154 C158 1.397 1_455 S
C155 C150 1.391 . S
C155 C154 1.391 . S
C155 C156 1.399 1_455 S
C156 C155 1.399 1_655 S
C156 C157 1.396 . S
C156 C159 1.453 . S
C156 C160 1.684 . S
C157 C147 1.723 . S
C157 C156 1.396 . S
C157 C158 1.394 . S
C158 C128 1.723 . S
C158 C154 1.397 1_655 S
C158 C157 1.394 . S
C159 H131 0.982 . S
C159 H135 0.979 . S
C159 H136 0.977 . S
C159 C156 1.453 . S
C160 H132 0.958 1_655 S
C160 H133 0.980 . S
C160 H134 0.983 . S
C160 C156 1.684 . S
H161 C179 0.948 . S
H162 C120 0.948 . S
H163 C138 0.979 . S
H164 C138 0.980 . S
H165 C138 0.983 . S
H166 C137 0.982 1_655 S
H167 C137 0.979 . S
H168 C137 0.977 . S
H169 C139 0.948 . S
H170 C141 0.947 . S
H171 C142 0.948 . S
H172 C148 0.982 . S
H173 C148 0.979 . S
H174 C148 0.977 . S
H175 C149 0.979 . S
H176 C149 0.980 . S
H177 C149 0.983 . S
H178 C122 0.947 . S
C179 C122 1.392 . S
C179 C123 1.419 1_556 S
C179 H161 0.948 . S
C180 C181 1.391 . S
C180 C184 1.391 . S
C180 H222 0.948 . S
C181 C180 1.391 . S
C181 C182 1.391 . S
C182 C181 1.391 . S
C182 H238 0.947 . S
C182 C239 1.392 . S
C183 C184 1.391 . S
C183 C187 1.397 . S
C183 C239 1.419 . S
C184 C180 1.391 . S
C184 C183 1.391 . S
C184 C185 1.399 . S
C185 C184 1.399 . S
C185 C188 1.396 . S
C185 C197 1.453 . S
C185 C198 1.684 . S
H186 C210 0.948 . S
C187 C183 1.397 . S
C187 C188 1.394 . S
C187 C206 1.723 . S
C188 C185 1.396 . S
C188 C187 1.394 . S
C188 C218 1.723 . S
H189 C212 0.947 . S
H190 C213 0.948 . S
H191 C219 0.982 . S
H192 C220 0.979 . S
H193 C220 0.980 . S
H194 C220 0.983 . S
H195 C219 0.979 . S
H196 C219 0.977 . S
C197 C185 1.453 . S
C197 H226 0.982 . S
C197 H227 0.979 . S
C197 H228 0.977 . S
C198 C185 1.684 . S
C198 H223 0.979 . S
C198 H224 0.980 . S
C198 H225 0.983 . S
C199 C200 1.391 . S
C199 C204 1.391 . S
C199 H229 0.948 . S
C200 C199 1.391 . S
C200 C201 1.391 . S
C201 C200 1.391 . S
C201 C202 1.392 . S
C201 H230 0.947 . S
C202 C201 1.392 . S
C202 C203 1.419 . S
C202 H231 0.948 . S
C203 C202 1.419 . S
C203 C204 1.391 . S
C203 C207 1.397 . S
C204 C199 1.391 . S
C204 C203 1.391 . S
C204 C205 1.399 . S
C205 C204 1.399 . S
C205 C206 1.396 . S
C205 C208 1.453 . S
C205 C209 1.684 . S
C206 C187 1.723 . S
C206 C205 1.396 . S
C206 C207 1.394 . S
C207 C203 1.397 . S
C207 C206 1.394 . S
C207 C217 1.723 . S
C208 C205 1.453 . S
C208 H232 0.982 . S
C208 H233 0.979 . S
C208 H234 0.977 . S
C209 C205 1.684 . S
C209 H235 0.979 . S
C209 H236 0.980 . S
C209 H237 0.983 . S
C210 H186 0.948 . S
C210 C211 1.391 . S
C210 C215 1.391 . S
C211 C210 1.391 . S
C211 C212 1.391 . S
C212 H189 0.947 . S
C212 C211 1.391 . S
C212 C213 1.392 . S
C213 H190 0.948 . S
C213 C212 1.392 . S
C213 C214 1.419 . S
C214 C213 1.419 . S
C214 C215 1.391 . S
C214 C218 1.397 . S
C215 C210 1.391 . S
C215 C214 1.391 . S
C215 C216 1.399 . S
C216 C215 1.399 . S
C216 C217 1.396 . S
C216 C219 1.453 . S
C216 C220 1.684 . S
C217 C207 1.723 . S
C217 C216 1.396 . S
C217 C218 1.394 . S
C218 C188 1.723 . S
C218 C214 1.397 . S
C218 C217 1.394 . S
C219 H191 0.982 . S
C219 H195 0.979 . S
C219 H196 0.977 . S
C219 C216 1.453 . S
C220 H192 0.979 . S
C220 H193 0.980 . S
C220 H194 0.983 . S
C220 C216 1.684 . S
H221 C239 0.948 . S
H222 C180 0.948 . S
H223 C198 0.979 . S
H224 C198 0.980 . S
H225 C198 0.983 . S
H226 C197 0.982 . S
H227 C197 0.979 . S
H228 C197 0.977 . S
H229 C199 0.948 . S
H230 C201 0.947 . S
H231 C202 0.948 . S
H232 C208 0.982 . S
H233 C208 0.979 . S
H234 C208 0.977 . S
H235 C209 0.979 . S
H236 C209 0.980 . S
H237 C209 0.983 . S
H238 C182 0.947 . S
C239 C182 1.392 . S
C239 C183 1.419 . S
C239 H221 0.948 . S
C240 C241 1.391 . S
C240 C244 1.391 . S
C240 H282 0.948 . S
C241 C240 1.391 . S
C241 C242 1.391 . S
C242 C241 1.391 . S
C242 H298 0.947 . S
C242 C299 1.392 . S
C243 C244 1.391 . S
C243 C247 1.397 . S
C243 C299 1.419 . S
C244 C240 1.391 . S
C244 C243 1.391 . S
C244 C245 1.399 . S
C245 C244 1.399 . S
C245 C248 1.396 . S
C245 C257 1.453 . S
C245 C258 1.684 . S
H246 C270 0.948 . S
C247 C243 1.397 . S
C247 C248 1.394 . S
C247 C266 1.723 . S
C248 C245 1.396 . S
C248 C247 1.394 . S
C248 C278 1.723 . S
H249 C272 0.947 . S
H250 C273 0.948 . S
H251 C279 0.982 . S
H252 C280 0.993 . S
H253 C280 0.980 . S
H254 C280 0.983 . S
H255 C279 0.979 . S
H256 C279 0.977 . S
C257 C245 1.453 . S
C257 H286 0.982 . S
C257 H287 0.979 . S
C257 H288 0.977 . S
C258 C245 1.684 . S
C258 H283 0.979 . S
C258 H284 0.980 . S
C258 H285 0.983 . S
C259 C260 1.394 . S
C259 C264 1.411 . S
C259 H289 0.926 1_455 S
C260 C259 1.394 . S
C260 C261 1.391 1_565 S
C261 C260 1.391 1_545 S
C261 C262 1.392 1_545 S
C261 H290 0.947 . S
C262 C261 1.392 1_565 S
C262 C263 1.419 . S
C262 H291 0.948 1_565 S
C263 C262 1.419 . S
C263 C264 1.391 . S
C263 C267 1.397 . S
C264 C259 1.411 . S
C264 C263 1.391 . S
C264 C265 1.399 . S
C265 C264 1.399 . S
C265 C266 1.396 . S
C265 C268 1.453 1_455 S
C265 C269 1.684 . S
C266 C247 1.723 . S
C266 C265 1.396 . S
C266 C267 1.394 . S
C267 C263 1.397 . S
C267 C266 1.394 . S
C267 C277 1.723 . S
C268 C265 1.453 1_655 S
C268 H292 0.982 . S
C268 H293 0.979 . S
C268 H294 0.974 1_655 S
C269 C265 1.684 . S
C269 H295 0.979 . S
C269 H296 0.980 . S
C269 H297 0.983 1_455 S
C270 H246 0.948 . S
C270 C271 1.391 . S
C270 C275 1.391 . S
C271 C270 1.391 . S
C271 C272 1.391 . S
C272 H249 0.947 . S
C272 C271 1.391 . S
C272 C273 1.392 1_545 S
C273 H250 0.948 . S
C273 C272 1.392 1_565 S
C273 C274 1.419 . S
C274 C273 1.419 . S
C274 C275 1.391 1_565 S
C274 C278 1.397 . S
C275 C270 1.391 . S
C275 C274 1.391 1_545 S
C275 C276 1.399 . S
C276 C275 1.399 . S
C276 C277 1.396 1_545 S
C276 C279 1.453 . S
C276 C280 1.684 . S
C277 C267 1.723 . S
C277 C276 1.396 1_565 S
C277 C278 1.394 . S
C278 C248 1.723 . S
C278 C274 1.397 . S
C278 C277 1.394 . S
C279 H251 0.982 . S
C279 H255 0.979 . S
C279 H256 0.977 . S
C279 C276 1.453 . S
C280 H252 0.993 . S
C280 H253 0.980 . S
C280 H254 0.983 . S
C280 C276 1.684 . S
H281 C299 0.948 . S
H282 C240 0.948 . S
H283 C258 0.979 . S
H284 C258 0.980 . S
H285 C258 0.983 . S
H286 C257 0.982 . S
H287 C257 0.979 . S
H288 C257 0.977 . S
H289 C259 0.926 1_655 S
H290 C261 0.947 . S
H291 C262 0.948 1_545 S
H292 C268 0.982 . S
H293 C268 0.979 . S
H294 C268 0.974 1_455 S
H295 C269 0.979 . S
H296 C269 0.980 . S
H297 C269 0.983 1_655 S
H298 C242 0.947 . S
C299 C242 1.392 . S
C299 C243 1.419 . S
C299 H281 0.948 . S
C300 C301 1.391 . S
C300 C304 1.391 . S
C300 H342 0.948 . S
C301 C300 1.391 . S
C301 C302 1.391 . S
C302 C301 1.391 . S
C302 H358 0.947 . S
C302 C359 1.392 . S
C303 C304 1.391 . S
C303 C307 1.397 . S
C303 C359 1.419 . S
C304 C300 1.391 . S
C304 C303 1.391 . S
C304 C305 1.399 . S
C305 C304 1.399 . S
C305 C308 1.396 . S
C305 C317 1.453 . S
C305 C318 1.684 . S
H306 C330 0.948 . S
C307 C303 1.397 . S
C307 C308 1.394 . S
C307 C326 1.723 . S
C308 C305 1.396 . S
C308 C307 1.394 . S
C308 C338 1.723 . S
H309 C332 0.947 . S
H310 C333 0.948 . S
H311 C339 0.982 . S
H312 C340 0.979 . S
H313 C340 0.980 . S
H314 C340 0.983 . S
H315 C339 0.979 . S
H316 C339 0.977 . S
C317 C305 1.453 . S
C317 H346 0.982 . S
C317 H347 0.979 . S
C317 H348 0.977 . S
C318 C305 1.684 . S
C318 H343 0.979 . S
C318 H344 0.980 . S
C318 H345 0.983 . S
C319 C320 1.391 . S
C319 C324 1.391 . S
C319 H349 0.948 . S
C320 C319 1.391 . S
C320 C321 1.391 . S
C321 C320 1.391 . S
C321 C322 1.392 . S
C321 H350 0.947 . S
C322 C321 1.392 . S
C322 C323 1.419 . S
C322 H351 0.948 . S
C323 C322 1.419 . S
C323 C324 1.391 . S
C323 C327 1.397 . S
C324 C319 1.391 . S
C324 C323 1.391 . S
C324 C325 1.399 . S
C325 C324 1.399 . S
C325 C326 1.396 . S
C325 C328 1.453 . S
C325 C329 1.684 . S
C326 C307 1.723 . S
C326 C325 1.396 . S
C326 C327 1.394 . S
C327 C323 1.397 . S
C327 C326 1.394 . S
C327 C337 1.723 . S
C328 C325 1.453 . S
C328 H352 0.982 . S
C328 H353 0.979 . S
C328 H354 0.977 . S
C329 C325 1.684 . S
C329 H355 0.979 . S
C329 H356 0.980 . S
C329 H357 0.983 . S
C330 H306 0.948 . S
C330 C331 1.391 . S
C330 C335 1.391 . S
C331 C330 1.391 . S
C331 C332 1.391 . S
C332 H309 0.947 . S
C332 C331 1.391 . S
C332 C333 1.392 . S
C333 H310 0.948 . S
C333 C332 1.392 . S
C333 C334 1.419 . S
C334 C333 1.419 . S
C334 C335 1.391 . S
C334 C338 1.397 . S
C335 C330 1.391 . S
C335 C334 1.391 . S
C335 C336 1.399 . S
C336 C335 1.399 . S
C336 C337 1.396 . S
C336 C339 1.453 . S
C336 C340 1.684 . S
C337 C327 1.723 . S
C337 C336 1.396 . S
C337 C338 1.394 . S
C338 C308 1.723 . S
C338 C334 1.397 . S
C338 C337 1.394 . S
C339 H311 0.982 . S
C339 H315 0.979 . S
C339 H316 0.977 . S
C339 C336 1.453 . S
C340 H312 0.979 . S
C340 H313 0.980 . S
C340 H314 0.983 . S
C340 C336 1.684 . S
H341 C359 0.948 . S
H342 C300 0.948 . S
H343 C318 0.979 . S
H344 C318 0.980 . S
H345 C318 0.983 . S
H346 C317 0.982 . S
H347 C317 0.979 . S
H348 C317 0.977 . S
H349 C319 0.948 . S
H350 C321 0.947 . S
H351 C322 0.948 . S
H352 C328 0.982 . S
H353 C328 0.979 . S
H354 C328 0.977 . S
H355 C329 0.979 . S
H356 C329 0.980 . S
H357 C329 0.983 . S
H358 C302 0.947 . S
C359 C302 1.392 . S
C359 C303 1.419 . S
C359 H341 0.948 . S
C360 C361 1.391 . S
C360 C364 1.391 . S
C360 H402 0.948 . S
C361 C360 1.391 . S
C361 C362 1.391 . S
C362 C361 1.391 . S
C362 H418 0.947 . S
C362 C419 1.392 . S
C363 C364 1.391 . S
C363 C367 1.397 . S
C363 C419 1.419 . S
C364 C360 1.391 . S
C364 C363 1.391 . S
C364 C365 1.399 . S
C365 C364 1.399 . S
C365 C368 1.396 . S
C365 C377 1.453 . S
C365 C378 1.684 . S
H366 C390 0.948 1_455 S
C367 C363 1.397 . S
C367 C368 1.394 . S
C367 C386 1.723 . S
C368 C365 1.396 . S
C368 C367 1.394 . S
C368 C398 1.723 . S
H369 C392 0.947 . S
H370 C393 0.948 . S
H371 C399 0.982 . S
H372 C400 0.979 . S
H373 C400 0.980 . S
H374 C400 0.983 . S
H375 C399 0.979 1_455 S
H376 C399 0.977 1_455 S
C377 C365 1.453 . S
C377 H406 0.982 . S
C377 H407 0.979 . S
C377 H408 0.977 . S
C378 C365 1.684 . S
C378 H403 0.979 . S
C378 H404 0.980 . S
C378 H405 0.983 . S
C379 C380 1.391 . S
C379 C384 1.391 1_455 S
C379 H409 0.948 . S
C380 C379 1.391 . S
C380 C381 1.391 . S
C381 C380 1.391 . S
C381 C382 1.392 . S
C381 H410 0.947 . S
C382 C381 1.392 . S
C382 C383 1.419 1_455 S
C382 H411 0.948 . S
C383 C382 1.419 1_655 S
C383 C384 1.391 . S
C383 C387 1.397 . S
C384 C379 1.391 1_655 S
C384 C383 1.391 . S
C384 C385 1.399 . S
C385 C384 1.399 . S
C385 C386 1.396 . S
C385 C388 1.453 . S
C385 C389 1.684 . S
C386 C367 1.723 . S
C386 C385 1.396 . S
C386 C387 1.394 . S
C387 C383 1.397 . S
C387 C386 1.394 . S
C387 C397 1.723 . S
C388 C385 1.453 . S
C388 H412 0.982 . S
C388 H413 0.979 . S
C388 H414 0.977 . S
C389 C385 1.684 . S
C389 H415 0.979 . S
C389 H416 0.980 . S
C389 H417 0.983 . S
C390 H366 0.948 1_655 S
C390 C391 1.391 . S
C390 C395 1.391 . S
C391 C390 1.391 . S
C391 C392 1.391 . S
C392 H369 0.947 . S
C392 C391 1.391 . S
C392 C393 1.392 . S
C393 H370 0.948 . S
C393 C392 1.392 . S
C393 C394 1.419 . S
C394 C393 1.419 . S
C394 C395 1.391 . S
C394 C398 1.397 . S
C395 C390 1.391 . S
C395 C394 1.391 . S
C395 C396 1.399 . S
C396 C395 1.399 . S
C396 C397 1.396 . S
C396 C399 1.453 . S
C396 C400 1.684 1_655 S
C397 C387 1.723 . S
C397 C396 1.396 . S
C397 C398 1.394 . S
C398 C368 1.723 . S
C398 C394 1.397 . S
C398 C397 1.394 . S
C399 H371 0.982 . S
C399 H375 0.979 1_655 S
C399 H376 0.977 1_655 S
C399 C396 1.453 . S
C400 H372 0.979 . S
C400 H373 0.980 . S
C400 H374 0.983 . S
C400 C396 1.684 1_455 S
H401 C419 0.948 . S
H402 C360 0.948 . S
H403 C378 0.979 . S
H404 C378 0.980 . S
H405 C378 0.983 . S
H406 C377 0.982 . S
H407 C377 0.979 . S
H408 C377 0.977 . S
H409 C379 0.948 . S
H410 C381 0.947 . S
H411 C382 0.948 . S
H412 C388 0.982 . S
H413 C388 0.979 . S
H414 C388 0.977 . S
H415 C389 0.979 . S
H416 C389 0.980 . S
H417 C389 0.983 . S
H418 C362 0.947 . S
C419 C362 1.392 . S
C419 C363 1.419 . S
C419 H401 0.948 . S
C420 C421 1.391 . S
C420 C424 1.391 . S
C420 H462 0.948 . S
C421 C420 1.391 . S
C421 C422 1.391 . S
C422 C421 1.391 . S
C422 H478 0.947 . S
C422 C479 1.392 . S
C423 C424 1.391 . S
C423 C427 1.397 . S
C423 C479 1.419 . S
C424 C420 1.391 . S
C424 C423 1.391 . S
C424 C425 1.399 . S
C425 C424 1.399 . S
C425 C428 1.396 . S
C425 C437 1.453 . S
C425 C438 1.684 . S
H426 C450 0.948 . S
C427 C423 1.397 . S
C427 C428 1.394 . S
C427 C446 1.723 . S
C428 C425 1.396 . S
C428 C427 1.394 . S
C428 C458 1.723 . S
H429 C452 0.947 . S
H430 C453 0.948 . S
H431 C459 0.982 . S
H432 C460 0.979 . S
H433 C460 0.980 . S
H434 C460 0.983 . S
H435 C459 0.979 . S
H436 C459 0.977 . S
C437 C425 1.453 . S
C437 H466 0.982 . S
C437 H467 0.979 . S
C437 H468 0.977 . S
C438 C425 1.684 . S
C438 H463 0.979 . S
C438 H464 0.980 . S
C438 H465 0.983 . S
C439 C440 1.391 . S
C439 C444 1.391 . S
C439 H469 0.948 . S
C440 C439 1.391 . S
C440 C441 1.391 . S
C441 C440 1.391 . S
C441 C442 1.392 . S
C441 H470 0.947 . S
C442 C441 1.392 . S
C442 C443 1.419 . S
C442 H471 0.948 . S
C443 C442 1.419 . S
C443 C444 1.391 . S
C443 C447 1.397 . S
C444 C439 1.391 . S
C444 C443 1.391 . S
C444 C445 1.399 . S
C445 C444 1.399 . S
C445 C446 1.396 . S
C445 C448 1.453 . S
C445 C449 1.684 . S
C446 C427 1.723 . S
C446 C445 1.396 . S
C446 C447 1.394 . S
C447 C443 1.397 . S
C447 C446 1.394 . S
C447 C457 1.723 . S
C448 C445 1.453 . S
C448 H472 0.982 . S
C448 H473 0.979 . S
C448 H474 0.977 . S
C449 C445 1.684 . S
C449 H475 0.979 . S
C449 H476 0.980 . S
C449 H477 0.983 . S
C450 H426 0.948 . S
C450 C451 1.391 . S
C450 C455 1.391 . S
C451 C450 1.391 . S
C451 C452 1.391 . S
C452 H429 0.947 . S
C452 C451 1.391 . S
C452 C453 1.392 . S
C453 H430 0.948 . S
C453 C452 1.392 . S
C453 C454 1.419 . S
C454 C453 1.419 . S
C454 C455 1.391 . S
C454 C458 1.397 . S
C455 C450 1.391 . S
C455 C454 1.391 . S
C455 C456 1.399 . S
C456 C455 1.399 . S
C456 C457 1.396 . S
C456 C459 1.453 . S
C456 C460 1.684 . S
C457 C447 1.723 . S
C457 C456 1.396 . S
C457 C458 1.394 . S
C458 C428 1.723 . S
C458 C454 1.397 . S
C458 C457 1.394 . S
C459 H431 0.982 . S
C459 H435 0.979 . S
C459 H436 0.977 . S
C459 C456 1.453 . S
C460 H432 0.979 . S
C460 H433 0.980 . S
C460 H434 0.983 . S
C460 C456 1.684 . S
H461 C479 0.948 . S
H462 C420 0.948 . S
H463 C438 0.979 . S
H464 C438 0.980 . S
H465 C438 0.983 . S
H466 C437 0.982 . S
H467 C437 0.979 . S
H468 C437 0.977 . S
H469 C439 0.948 . S
H470 C441 0.947 . S
H471 C442 0.948 . S
H472 C448 0.982 . S
H473 C448 0.979 . S
H474 C448 0.977 . S
H475 C449 0.979 . S
H476 C449 0.980 . S
H477 C449 0.983 . S
H478 C422 0.947 . S
C479 C422 1.392 . S
C479 C423 1.419 . S
C479 H461 0.948 . S
C480 C481 1.391 . S
C480 C484 1.391 . S
C480 H522 0.948 . S
C481 C480 1.391 . S
C481 C482 1.391 . S
C482 C481 1.391 . S
C482 H538 0.947 . S
C482 C539 1.392 . S
C483 C484 1.391 . S
C483 C487 1.397 . S
C483 C539 1.419 . S
C484 C480 1.391 . S
C484 C483 1.391 . S
C484 C485 1.399 . S
C485 C484 1.399 . S
C485 C488 1.396 . S
C485 C497 1.453 . S
C485 C498 1.684 . S
H486 C510 0.948 . S
C487 C483 1.397 . S
C487 C488 1.394 . S
C487 C506 1.723 . S
C488 C485 1.396 . S
C488 C487 1.394 . S
C488 C518 1.723 . S
H489 C512 0.947 . S
H490 C513 0.948 . S
H491 C519 0.982 . S
H492 C520 0.979 . S
H493 C520 0.980 . S
H494 C520 0.983 . S
H495 C519 0.979 . S
H496 C519 0.977 . S
C497 C485 1.453 . S
C497 H526 0.982 . S
C497 H527 0.979 . S
C497 H528 0.977 . S
C498 C485 1.684 . S
C498 H523 0.979 . S
C498 H524 0.980 . S
C498 H525 0.983 . S
C499 C500 1.391 . S
C499 C504 1.391 . S
C499 H529 0.948 . S
C500 C499 1.391 . S
C500 C501 1.391 . S
C501 C500 1.391 . S
C501 C502 1.392 . S
C501 H530 0.947 . S
C502 C501 1.392 . S
C502 C503 1.419 . S
C502 H531 0.948 . S
C503 C502 1.419 . S
C503 C504 1.391 . S
C503 C507 1.397 . S
C504 C499 1.391 . S
C504 C503 1.391 . S
C504 C505 1.399 . S
C505 C504 1.399 . S
C505 C506 1.396 . S
C505 C508 1.453 . S
C505 C509 1.684 . S
C506 C487 1.723 . S
C506 C505 1.396 . S
C506 C507 1.394 . S
C507 C503 1.397 . S
C507 C506 1.394 . S
C507 C517 1.723 . S
C508 C505 1.453 . S
C508 H532 0.982 . S
C508 H533 0.979 . S
C508 H534 0.977 . S
C509 C505 1.684 . S
C509 H535 0.979 . S
C509 H536 0.980 . S
C509 H537 0.983 . S
C510 H486 0.948 . S
C510 C511 1.391 . S
C510 C515 1.391 . S
C511 C510 1.391 . S
C511 C512 1.391 . S
C512 H489 0.947 . S
C512 C511 1.391 . S
C512 C513 1.392 . S
C513 H490 0.948 . S
C513 C512 1.392 . S
C513 C514 1.419 . S
C514 C513 1.419 . S
C514 C515 1.391 . S
C514 C518 1.397 . S
C515 C510 1.391 . S
C515 C514 1.391 . S
C515 C516 1.399 . S
C516 C515 1.399 . S
C516 C517 1.396 . S
C516 C519 1.453 . S
C516 C520 1.684 . S
C517 C507 1.723 . S
C517 C516 1.396 . S
C517 C518 1.394 . S
C518 C488 1.723 . S
C518 C514 1.397 . S
C518 C517 1.394 . S
C519 H491 0.982 . S
C519 H495 0.979 . S
C519 H496 0.977 . S
C519 C516 1.453 . S
C520 H492 0.979 . S
C520 H493 0.980 . S
C520 H494 0.983 . S
C520 C516 1.684 . S
H521 C539 0.948 . S
H522 C480 0.948 . S
H523 C498 0.979 . S
H524 C498 0.980 . S
H525 C498 0.983 . S
H526 C497 0.982 . S
H527 C497 0.979 . S
H528 C497 0.977 . S
H529 C499 0.948 . S
H530 C501 0.947 . S
H531 C502 0.948 . S
H532 C508 0.982 . S
H533 C508 0.979 . S
H534 C508 0.977 . S
H535 C509 0.979 . S
H536 C509 0.980 . S
H537 C509 0.983 . S
H538 C482 0.947 . S
C539 C482 1.392 . S
C539 C483 1.419 . S
C539 H521 0.948 . S
C540 C541 1.391 . S
C540 C544 1.391 . S
C540 H582 0.948 . S
C541 C540 1.391 . S
C541 C542 1.391 . S
C542 C541 1.391 . S
C542 H598 0.947 . S
C542 C599 1.392 . S
C543 C544 1.391 . S
C543 C547 1.397 . S
C543 C599 1.419 . S
C544 C540 1.391 . S
C544 C543 1.391 . S
C544 C545 1.399 . S
C545 C544 1.399 . S
C545 C548 1.396 . S
C545 C557 1.453 . S
C545 C558 1.684 . S
H546 C570 0.948 . S
C547 C543 1.397 . S
C547 C548 1.394 . S
C547 C566 1.723 . S
C548 C545 1.396 . S
C548 C547 1.394 . S
C548 C578 1.723 . S
H549 C572 0.947 . S
H550 C573 0.948 . S
H551 C579 0.982 . S
H552 C580 0.979 . S
H553 C580 0.980 . S
H554 C580 0.983 . S
H555 C579 0.979 1_545 S
H556 C579 0.951 1_545 S
C557 C545 1.453 . S
C557 H586 0.982 . S
C557 H587 0.979 . S
C557 H588 0.977 . S
C558 C545 1.684 . S
C558 H583 0.979 . S
C558 H584 0.980 . S
C558 H585 0.983 . S
C559 C560 1.391 . S
C559 C564 1.391 1_545 S
C559 H589 0.948 . S
C560 C559 1.391 . S
C560 C561 1.391 . S
C561 C560 1.391 . S
C561 C562 1.392 . S
C561 H590 0.947 . S
C562 C561 1.392 . S
C562 C563 1.419 1_545 S
C562 H591 0.948 . S
C563 C562 1.419 1_565 S
C563 C564 1.391 . S
C563 C567 1.397 . S
C564 C559 1.391 1_565 S
C564 C563 1.391 . S
C564 C565 1.399 . S
C565 C564 1.399 . S
C565 C566 1.396 . S
C565 C568 1.453 . S
C565 C569 1.684 . S
C566 C547 1.723 . S
C566 C565 1.396 . S
C566 C567 1.394 . S
C567 C563 1.397 . S
C567 C566 1.394 . S
C567 C577 1.723 . S
C568 C565 1.453 . S
C568 H592 0.982 . S
C568 H593 0.979 . S
C568 H594 0.977 . S
C569 C565 1.684 . S
C569 H595 0.979 . S
C569 H596 0.980 . S
C569 H597 0.983 . S
C570 H546 0.948 . S
C570 C571 1.391 . S
C570 C575 1.391 . S
C571 C570 1.391 . S
C571 C572 1.391 . S
C572 H549 0.947 . S
C572 C571 1.391 . S
C572 C573 1.392 . S
C573 H550 0.948 . S
C573 C572 1.392 . S
C573 C574 1.419 . S
C574 C573 1.419 . S
C574 C575 1.391 . S
C574 C578 1.397 . S
C575 C570 1.391 . S
C575 C574 1.391 . S
C575 C576 1.399 . S
C576 C575 1.399 . S
C576 C577 1.396 . S
C576 C579 1.453 . S
C576 C580 1.684 1_565 S
C577 C567 1.723 . S
C577 C576 1.396 . S
C577 C578 1.394 . S
C578 C548 1.723 . S
C578 C574 1.397 . S
C578 C577 1.394 . S
C579 H551 0.982 . S
C579 H555 0.979 1_565 S
C579 H556 0.951 1_565 S
C579 C576 1.453 . S
C580 H552 0.979 . S
C580 H553 0.980 . S
C580 H554 0.983 . S
C580 C576 1.684 1_545 S
H581 C599 0.948 . S
H582 C540 0.948 . S
H583 C558 0.979 . S
H584 C558 0.980 . S
H585 C558 0.983 . S
H586 C557 0.982 . S
H587 C557 0.979 . S
H588 C557 0.977 . S
H589 C559 0.948 . S
H590 C561 0.947 . S
H591 C562 0.948 . S
H592 C568 0.982 . S
H593 C568 0.979 . S
H594 C568 0.977 . S
H595 C569 0.979 . S
H596 C569 0.980 . S
H597 C569 0.983 . S
H598 C542 0.947 . S
C599 C542 1.392 . S
C599 C543 1.419 . S
C599 H581 0.948 . S
C600 C601 1.391 . S
C600 C604 1.391 . S
C600 H642 0.948 . S
C601 C600 1.391 . S
C601 C602 1.391 . S
C602 C601 1.391 . S
C602 H658 0.947 . S
C602 C659 1.392 . S
C603 C604 1.391 . S
C603 C607 1.397 . S
C603 C659 1.419 . S
C604 C600 1.391 . S
C604 C603 1.391 . S
C604 C605 1.399 . S
C605 C604 1.399 . S
C605 C608 1.396 . S
C605 C617 1.453 . S
C605 C618 1.684 . S
H606 C630 0.948 . S
C607 C603 1.397 . S
C607 C608 1.394 . S
C607 C626 1.723 . S
C608 C605 1.396 . S
C608 C607 1.394 . S
C608 C638 1.723 . S
H609 C632 0.947 . S
H610 C633 0.948 . S
H611 C639 0.982 . S
H612 C640 0.979 . S
H613 C640 0.980 . S
H614 C640 0.983 . S
H615 C639 0.979 . S
H616 C639 0.977 . S
C617 C605 1.453 . S
C617 H646 0.982 . S
C617 H647 0.979 . S
C617 H648 0.977 . S
C618 C605 1.684 . S
C618 H643 0.979 . S
C618 H644 0.980 . S
C618 H645 0.983 . S
C619 C620 1.391 . S
C619 C624 1.391 . S
C619 H649 0.948 . S
C620 C619 1.391 . S
C620 C621 1.391 . S
C621 C620 1.391 . S
C621 C622 1.392 . S
C621 H650 0.947 . S
C622 C621 1.392 . S
C622 C623 1.419 . S
C622 H651 0.948 . S
C623 C622 1.419 . S
C623 C624 1.391 . S
C623 C627 1.397 . S
C624 C619 1.391 . S
C624 C623 1.391 . S
C624 C625 1.399 . S
C625 C624 1.399 . S
C625 C626 1.396 . S
C625 C628 1.453 . S
C625 C629 1.684 . S
C626 C607 1.723 . S
C626 C625 1.396 . S
C626 C627 1.394 . S
C627 C623 1.397 . S
C627 C626 1.394 . S
C627 C637 1.723 . S
C628 C625 1.453 . S
C628 H652 0.982 . S
C628 H653 0.979 . S
C628 H654 0.977 . S
C629 C625 1.684 . S
C629 H655 0.979 . S
C629 H656 0.980 . S
C629 H657 0.983 . S
C630 H606 0.948 . S
C630 C631 1.391 . S
C630 C635 1.391 . S
C631 C630 1.391 . S
C631 C632 1.391 . S
C632 H609 0.947 . S
C632 C631 1.391 . S
C632 C633 1.392 . S
C633 H610 0.948 . S
C633 C632 1.392 . S
C633 C634 1.419 . S
C634 C633 1.419 . S
C634 C635 1.391 . S
C634 C638 1.397 . S
C635 C630 1.391 . S
C635 C634 1.391 . S
C635 C636 1.399 . S
C636 C635 1.399 . S
C636 C637 1.396 . S
C636 C639 1.453 . S
C636 C640 1.684 . S
C637 C627 1.723 . S
C637 C636 1.396 . S
C637 C638 1.394 . S
C638 C608 1.723 . S
C638 C634 1.397 . S
C638 C637 1.394 . S
C639 H611 0.982 . S
C639 H615 0.979 . S
C639 H616 0.977 . S
C639 C636 1.453 . S
C640 H612 0.979 . S
C640 H613 0.980 . S
C640 H614 0.983 . S
C640 C636 1.684 . S
H641 C659 0.948 . S
H642 C600 0.948 . S
H643 C618 0.979 . S
H644 C618 0.980 . S
H645 C618 0.983 . S
H646 C617 0.982 . S
H647 C617 0.979 . S
H648 C617 0.977 . S
H649 C619 0.948 . S
H650 C621 0.947 . S
H651 C622 0.948 . S
H652 C628 0.982 . S
H653 C628 0.979 . S
H654 C628 0.977 . S
H655 C629 0.979 . S
H656 C629 0.980 . S
H657 C629 0.983 . S
H658 C602 0.947 . S
C659 C602 1.392 . S
C659 C603 1.419 . S
C659 H641 0.948 . S
C660 C661 1.391 . S
C660 C664 1.391 . S
C660 H702 0.948 . S
C661 C660 1.391 . S
C661 C662 1.391 . S
C662 C661 1.391 . S
C662 H718 0.947 . S
C662 C719 1.392 . S
C663 C664 1.391 . S
C663 C667 1.397 . S
C663 C719 1.419 . S
C664 C660 1.391 . S
C664 C663 1.391 . S
C664 C665 1.399 . S
C665 C664 1.399 . S
C665 C668 1.396 . S
C665 C677 1.453 . S
C665 C678 1.684 . S
H666 C690 0.948 . S
C667 C663 1.397 . S
C667 C668 1.394 . S
C667 C686 1.723 . S
C668 C665 1.396 . S
C668 C667 1.394 . S
C668 C698 1.723 . S
H669 C692 0.947 . S
H670 C693 0.948 . S
H671 C699 0.982 . S
H672 C700 0.979 . S
H673 C700 0.980 . S
H674 C700 0.983 . S
H675 C699 0.979 . S
H676 C699 0.977 . S
C677 C665 1.453 . S
C677 H706 0.982 . S
C677 H707 0.979 . S
C677 H708 0.977 . S
C678 C665 1.684 . S
C678 H703 0.979 . S
C678 H704 0.980 . S
C678 H705 0.983 . S
C679 C680 1.391 . S
C679 C684 1.391 . S
C679 H709 0.948 . S
C680 C679 1.391 . S
C680 C681 1.391 . S
C681 C680 1.391 . S
C681 C682 1.392 . S
C681 H710 0.947 . S
C682 C681 1.392 . S
C682 C683 1.419 . S
C682 H711 0.948 . S
C683 C682 1.419 . S
C683 C684 1.391 . S
C683 C687 1.397 . S
C684 C679 1.391 . S
C684 C683 1.391 . S
C684 C685 1.399 . S
C685 C684 1.399 . S
C685 C686 1.396 . S
C685 C688 1.453 . S
C685 C689 1.684 . S
C686 C667 1.723 . S
C686 C685 1.396 . S
C686 C687 1.394 . S
C687 C683 1.397 . S
C687 C686 1.394 . S
C687 C697 1.723 . S
C688 C685 1.453 . S
C688 H712 0.982 . S
C688 H713 0.979 . S
C688 H714 0.977 . S
C689 C685 1.684 . S
C689 H715 0.979 . S
C689 H716 0.980 . S
C689 H717 0.983 . S
C690 H666 0.948 . S
C690 C691 1.391 . S
C690 C695 1.391 . S
C691 C690 1.391 . S
C691 C692 1.391 . S
C692 H669 0.947 . S
C692 C691 1.391 . S
C692 C693 1.392 . S
C693 H670 0.948 . S
C693 C692 1.392 . S
C693 C694 1.419 . S
C694 C693 1.419 . S
C694 C695 1.391 . S
C694 C698 1.397 . S
C695 C690 1.391 . S
C695 C694 1.391 . S
C695 C696 1.399 . S
C696 C695 1.399 . S
C696 C697 1.396 . S
C696 C699 1.453 . S
C696 C700 1.684 . S
C697 C687 1.723 . S
C697 C696 1.396 . S
C697 C698 1.394 . S
C698 C668 1.723 . S
C698 C694 1.397 . S
C698 C697 1.394 . S
C699 H671 0.982 . S
C699 H675 0.979 . S
C699 H676 0.977 . S
C699 C696 1.453 . S
C700 H672 0.979 . S
C700 H673 0.980 . S
C700 H674 0.983 . S
C700 C696 1.684 . S
H701 C719 0.948 . S
H702 C660 0.948 . S
H703 C678 0.979 . S
H704 C678 0.980 . S
H705 C678 0.983 . S
H706 C677 0.982 . S
H707 C677 0.979 . S
H708 C677 0.977 . S
H709 C679 0.948 . S
H710 C681 0.947 . S
H711 C682 0.948 . S
H712 C688 0.982 . S
H713 C688 0.979 . S
H714 C688 0.977 . S
H715 C689 0.979 . S
H716 C689 0.980 . S
H717 C689 0.983 . S
H718 C662 0.947 . S
C719 C662 1.392 . S
C719 C663 1.419 . S
C719 H701 0.948 . S
C720 C721 1.391 . S
C720 C724 1.391 . S
C720 H762 0.948 . S
C721 C720 1.391 . S
C721 C722 1.391 . S
C722 C721 1.391 . S
C722 H778 0.947 . S
C722 C779 1.392 . S
C723 C724 1.391 . S
C723 C727 1.397 . S
C723 C779 1.419 . S
C724 C720 1.391 . S
C724 C723 1.391 . S
C724 C725 1.399 . S
C725 C724 1.399 . S
C725 C728 1.396 . S
C725 C737 1.453 . S
C725 C738 1.684 . S
H726 C750 0.948 . S
C727 C723 1.397 . S
C727 C728 1.394 . S
C727 C746 1.723 . S
C728 C725 1.396 . S
C728 C727 1.394 . S
C728 C758 1.723 . S
H729 C752 0.947 . S
H730 C753 0.948 . S
H731 C759 0.982 . S
H732 C760 0.979 . S
H733 C760 0.980 . S
H734 C760 0.983 . S
H735 C759 0.979 . S
H736 C759 0.977 . S
C737 C725 1.453 . S
C737 H766 0.982 . S
C737 H767 0.979 . S
C737 H768 0.977 . S
C738 C725 1.684 . S
C738 H763 0.979 . S
C738 H764 0.980 . S
C738 H765 0.983 . S
C739 C740 1.391 . S
C739 C744 1.391 . S
C739 H769 0.948 . S
C740 C739 1.391 . S
C740 C741 1.391 . S
C741 C740 1.391 . S
C741 C742 1.392 . S
C741 H770 0.947 . S
C742 C741 1.392 . S
C742 C743 1.419 . S
C742 H771 0.948 . S
C743 C742 1.419 . S
C743 C744 1.391 . S
C743 C747 1.397 . S
C744 C739 1.391 . S
C744 C743 1.391 . S
C744 C745 1.399 . S
C745 C744 1.399 . S
C745 C746 1.396 . S
C745 C748 1.453 . S
C745 C749 1.684 . S
C746 C727 1.723 . S
C746 C745 1.396 . S
C746 C747 1.394 . S
C747 C743 1.397 . S
C747 C746 1.394 . S
C747 C757 1.723 . S
C748 C745 1.453 . S
C748 H772 0.982 . S
C748 H773 0.979 . S
C748 H774 0.977 . S
C749 C745 1.684 . S
C749 H775 0.979 . S
C749 H776 0.980 . S
C749 H777 0.983 . S
C750 H726 0.948 . S
C750 C751 1.391 . S
C750 C755 1.391 . S
C751 C750 1.391 . S
C751 C752 1.391 . S
C752 H729 0.947 . S
C752 C751 1.391 . S
C752 C753 1.392 . S
C753 H730 0.948 . S
C753 C752 1.392 . S
C753 C754 1.419 . S
C754 C753 1.419 . S
C754 C755 1.391 . S
C754 C758 1.397 . S
C755 C750 1.391 . S
C755 C754 1.391 . S
C755 C756 1.399 . S
C756 C755 1.399 . S
C756 C757 1.396 . S
C756 C759 1.453 . S
C756 C760 1.684 . S
C757 C747 1.723 . S
C757 C756 1.396 . S
C757 C758 1.394 . S
C758 C728 1.723 . S
C758 C754 1.397 . S
C758 C757 1.394 . S
C759 H731 0.982 . S
C759 H735 0.979 . S
C759 H736 0.977 . S
C759 C756 1.453 . S
C760 H732 0.979 . S
C760 H733 0.980 . S
C760 H734 0.983 . S
C760 C756 1.684 . S
H761 C779 0.948 . S
H762 C720 0.948 . S
H763 C738 0.979 . S
H764 C738 0.980 . S
H765 C738 0.983 . S
H766 C737 0.982 . S
H767 C737 0.979 . S
H768 C737 0.977 . S
H769 C739 0.948 . S
H770 C741 0.947 . S
H771 C742 0.948 . S
H772 C748 0.982 . S
H773 C748 0.979 . S
H774 C748 0.977 . S
H775 C749 0.979 . S
H776 C749 0.980 . S
H777 C749 0.983 . S
H778 C722 0.947 . S
C779 C722 1.392 . S
C779 C723 1.419 . S
C779 H761 0.948 . S
C780 C781 1.391 . S
C780 C784 1.362 1_554 S
C780 H822 0.948 . S
C781 C780 1.391 . S
C781 C782 1.391 1_554 S
C782 C781 1.391 1_556 S
C782 H838 0.947 . S
C782 C839 1.392 . S
C783 C784 1.422 . S
C783 C787 1.397 . S
C783 C839 1.419 . S
C784 C780 1.362 1_556 S
C784 C783 1.422 . S
C784 C785 1.403 . S
C785 C784 1.403 . S
C785 C788 1.396 . S
C785 C797 1.453 1_556 S
C785 C798 1.684 1_556 S
H786 C810 0.948 . S
C787 C783 1.397 . S
C787 C788 1.394 . S
C787 C806 1.723 . S
C788 C785 1.396 . S
C788 C787 1.394 . S
C788 C818 1.723 . S
H789 C812 0.947 1_554 S
H790 C813 0.973 . S
H791 C819 0.982 . S
H792 C820 0.979 . S
H793 C820 0.980 . S
H794 C820 0.983 . S
H795 C819 0.979 . S
H796 C819 0.977 . S
C797 C785 1.453 1_554 S
C797 H826 0.982 . S
C797 H827 0.979 . S
C797 H828 0.977 . S
C798 C785 1.684 1_554 S
C798 H823 0.979 1_554 S
C798 H824 0.980 . S
C798 H825 0.983 . S
C799 C800 1.391 . S
C799 C804 1.391 . S
C799 H829 0.948 . S
C800 C799 1.391 . S
C800 C801 1.391 . S
C801 C800 1.391 . S
C801 C802 1.392 . S
C801 H830 0.947 . S
C802 C801 1.392 . S
C802 C803 1.419 . S
C802 H831 0.948 . S
C803 C802 1.419 . S
C803 C804 1.391 . S
C803 C807 1.397 . S
C804 C799 1.391 . S
C804 C803 1.391 . S
C804 C805 1.399 . S
C805 C804 1.399 . S
C805 C806 1.396 . S
C805 C808 1.453 . S
C805 C809 1.684 . S
C806 C787 1.723 . S
C806 C805 1.396 . S
C806 C807 1.394 . S
C807 C803 1.397 . S
C807 C806 1.394 . S
C807 C817 1.723 . S
C808 C805 1.453 . S
C808 H832 0.982 . S
C808 H833 0.979 . S
C808 H834 0.977 . S
C809 C805 1.684 . S
C809 H835 0.979 . S
C809 H836 0.980 . S
C809 H837 0.983 . S
C810 H786 0.948 . S
C810 C811 1.391 . S
C810 C815 1.391 . S
C811 C810 1.391 . S
C811 C812 1.391 . S
C812 H789 0.947 1_556 S
C812 C811 1.391 . S
C812 C813 1.392 . S
C813 H790 0.973 . S
C813 C812 1.392 . S
C813 C814 1.419 . S
C814 C813 1.419 . S
C814 C815 1.391 . S
C814 C818 1.397 . S
C815 C810 1.391 . S
C815 C814 1.391 . S
C815 C816 1.399 . S
C816 C815 1.399 . S
C816 C817 1.396 . S
C816 C819 1.453 . S
C816 C820 1.684 . S
C817 C807 1.723 . S
C817 C816 1.396 . S
C817 C818 1.394 . S
C818 C788 1.723 . S
C818 C814 1.397 . S
C818 C817 1.394 . S
C819 H791 0.982 . S
C819 H795 0.979 . S
C819 H796 0.977 . S
C819 C816 1.453 . S
C820 H792 0.979 . S
C820 H793 0.980 . S
C820 H794 0.983 . S
C820 C816 1.684 . S
H821 C839 0.948 . S
H822 C780 0.948 . S
H823 C798 0.979 1_556 S
H824 C798 0.980 . S
H825 C798 0.983 . S
H826 C797 0.982 . S
H827 C797 0.979 . S
H828 C797 0.977 . S
H829 C799 0.948 . S
H830 C801 0.947 . S
H831 C802 0.948 . S
H832 C808 0.982 . S
H833 C808 0.979 . S
H834 C808 0.977 . S
H835 C809 0.979 . S
H836 C809 0.980 . S
H837 C809 0.983 . S
H838 C782 0.947 . S
C839 C782 1.392 . S
C839 C783 1.419 . S
C839 H821 0.948 . S
C840 C841 1.391 . S
C840 C844 1.391 . S
C840 H882 0.948 . S
C841 C840 1.391 . S
C841 C842 1.391 . S
C842 C841 1.391 . S
C842 H898 0.947 . S
C842 C899 1.392 . S
C843 C844 1.391 . S
C843 C847 1.397 . S
C843 C899 1.419 . S
C844 C840 1.391 . S
C844 C843 1.391 . S
C844 C845 1.399 . S
C845 C844 1.399 . S
C845 C848 1.396 . S
C845 C857 1.453 . S
C845 C858 1.684 . S
H846 C870 0.948 . S
C847 C843 1.397 . S
C847 C848 1.394 . S
C847 C866 1.723 . S
C848 C845 1.396 . S
C848 C847 1.394 . S
C848 C878 1.723 . S
H849 C872 0.947 . S
H850 C873 0.948 . S
H851 C879 0.982 . S
H852 C880 0.979 . S
H853 C880 0.980 . S
H854 C880 0.983 . S
H855 C879 0.979 . S
H856 C879 0.977 . S
C857 C845 1.453 . S
C857 H886 0.982 . S
C857 H887 0.979 . S
C857 H888 0.977 . S
C858 C845 1.684 . S
C858 H883 0.979 . S
C858 H884 0.980 . S
C858 H885 0.983 . S
C859 C860 1.391 . S
C859 C864 1.391 . S
C859 H889 0.948 . S
C860 C859 1.391 . S
C860 C861 1.391 . S
C861 C860 1.391 . S
C861 C862 1.392 . S
C861 H890 0.947 . S
C862 C861 1.392 . S
C862 C863 1.419 . S
C862 H891 0.948 . S
C863 C862 1.419 . S
C863 C864 1.391 . S
C863 C867 1.397 . S
C864 C859 1.391 . S
C864 C863 1.391 . S
C864 C865 1.399 . S
C865 C864 1.399 . S
C865 C866 1.396 . S
C865 C868 1.453 . S
C865 C869 1.684 . S
C866 C847 1.723 . S
C866 C865 1.396 . S
C866 C867 1.394 . S
C867 C863 1.397 . S
C867 C866 1.394 . S
C867 C877 1.723 . S
C868 C865 1.453 . S
C868 H892 0.982 . S
C868 H893 0.979 . S
C868 H894 0.977 . S
C869 C865 1.684 . S
C869 H895 0.979 . S
C869 H896 0.980 . S
C869 H897 0.983 . S
C870 H846 0.948 . S
C870 C871 1.391 . S
C870 C875 1.391 . S
C871 C870 1.391 . S
C871 C872 1.391 . S
C872 H849 0.947 . S
C872 C871 1.391 . S
C872 C873 1.392 . S
C873 H850 0.948 . S
C873 C872 1.392 . S
C873 C874 1.419 . S
C874 C873 1.419 . S
C874 C875 1.391 . S
C874 C878 1.397 . S
C875 C870 1.391 . S
C875 C874 1.391 . S
C875 C876 1.399 . S
C876 C875 1.399 . S
C876 C877 1.396 . S
C876 C879 1.453 . S
C876 C880 1.684 . S
C877 C867 1.723 . S
C877 C876 1.396 . S
C877 C878 1.394 . S
C878 C848 1.723 . S
C878 C874 1.397 . S
C878 C877 1.394 . S
C879 H851 0.982 . S
C879 H855 0.979 . S
C879 H856 0.977 . S
C879 C876 1.453 . S
C880 H852 0.979 . S
C880 H853 0.980 . S
C880 H854 0.983 . S
C880 C876 1.684 . S
H881 C899 0.948 . S
H882 C840 0.948 . S
H883 C858 0.979 . S
H884 C858 0.980 . S
H885 C858 0.983 . S
H886 C857 0.982 . S
H887 C857 0.979 . S
H888 C857 0.977 . S
H889 C859 0.948 . S
H890 C861 0.947 . S
H891 C862 0.948 . S
H892 C868 0.982 . S
H893 C868 0.979 . S
H894 C868 0.977 . S
H895 C869 0.979 . S
H896 C869 0.980 . S
H897 C869 0.983 . S
H898 C842 0.947 . S
C899 C842 1.392 . S
C899 C843 1.419 . S
C899 H881 0.948 . S
C900 C901 1.391 . S
C900 C904 1.391 1_565 S
C900 H942 0.948 1_556 S
C901 C900 1.391 . S
C901 C902 1.391 . S
C902 C901 1.391 . S
C902 H958 0.947 . S
C902 C959 1.392 . S
C903 C904 1.391 . S
C903 C907 1.397 . S
C903 C959 1.419 1_545 S
C904 C900 1.391 1_545 S
C904 C903 1.391 . S
C904 C905 1.399 . S
C905 C904 1.399 . S
C905 C908 1.396 . S
C905 C917 1.453 . S
C905 C918 1.684 1_556 S
H906 C930 0.948 . S
C907 C903 1.397 . S
C907 C908 1.394 . S
C907 C926 1.723 . S
C908 C905 1.396 . S
C908 C907 1.394 . S
C908 C938 1.723 . S
H909 C932 0.947 . S
H910 C933 0.948 . S
H911 C939 0.982 . S
H912 C940 0.979 . S
H913 C940 0.980 . S
H914 C940 0.983 . S
H915 C939 0.979 . S
H916 C939 0.977 . S
C917 C905 1.453 . S
C917 H946 0.982 . S
C917 H947 0.979 1_556 S
C917 H948 0.977 1_556 S
C918 C905 1.684 1_554 S
C918 H943 0.979 . S
C918 H944 0.980 . S
C918 H945 0.983 . S
C919 C920 1.391 . S
C919 C924 1.391 . S
C919 H949 0.948 1_545 S
C920 C919 1.391 . S
C920 C921 1.391 . S
C921 C920 1.391 . S
C921 C922 1.392 . S
C921 H950 0.947 . S
C922 C921 1.392 . S
C922 C923 1.419 . S
C922 H951 0.948 . S
C923 C922 1.419 . S
C923 C924 1.391 . S
C923 C927 1.397 . S
C924 C919 1.391 . S
C924 C923 1.391 . S
C924 C925 1.399 . S
C925 C924 1.399 . S
C925 C926 1.396 . S
C925 C928 1.451 1_545 S
C925 C929 1.684 1_545 S
C926 C907 1.723 . S
C926 C925 1.396 . S
C926 C927 1.394 . S
C927 C923 1.397 . S
C927 C926 1.394 . S
C927 C937 1.723 . S
C928 C925 1.451 1_565 S
C928 H952 0.967 1_565 S
C928 H953 0.989 . S
C928 H954 0.984 . S
C929 C925 1.684 1_565 S
C929 H955 0.979 . S
C929 H956 0.980 . S
C929 H957 0.983 . S
C930 H906 0.948 . S
C930 C931 1.391 . S
C930 C935 1.391 1_554 S
C931 C930 1.391 . S
C931 C932 1.391 . S
C932 H909 0.947 . S
C932 C931 1.391 . S
C932 C933 1.392 . S
C933 H910 0.948 . S
C933 C932 1.392 . S
C933 C934 1.423 1_554 S
C934 C933 1.423 1_556 S
C934 C935 1.390 . S
C934 C938 1.393 . S
C935 C930 1.391 1_556 S
C935 C934 1.390 . S
C935 C936 1.399 . S
C936 C935 1.399 . S
C936 C937 1.396 . S
C936 C939 1.453 . S
C936 C940 1.684 . S
C937 C927 1.723 . S
C937 C936 1.396 . S
C937 C938 1.394 . S
C938 C908 1.723 . S
C938 C934 1.393 . S
C938 C937 1.394 . S
C939 H911 0.982 . S
C939 H915 0.979 . S
C939 H916 0.977 . S
C939 C936 1.453 . S
C940 H912 0.979 . S
C940 H913 0.980 . S
C940 H914 0.983 . S
C940 C936 1.684 . S
H941 C959 0.948 . S
H942 C900 0.948 1_554 S
H943 C918 0.979 . S
H944 C918 0.980 . S
H945 C918 0.983 . S
H946 C917 0.982 . S
H947 C917 0.979 1_554 S
H948 C917 0.977 1_554 S
H949 C919 0.948 1_565 S
H950 C921 0.947 . S
H951 C922 0.948 . S
H952 C928 0.967 1_545 S
H953 C928 0.989 . S
H954 C928 0.984 . S
H955 C929 0.979 . S
H956 C929 0.980 . S
H957 C929 0.983 . S
H958 C902 0.947 . S
C959 C902 1.392 . S
C959 C903 1.419 1_565 S
C959 H941 0.948 . S
Mg960 O961 2.030 . S
Mg960 O967 1.986 1_554 S
Mg960 O969 2.114 . S
Mg960 O970 2.251 . S
Mg960 O973 2.010 . S
O961 Mg960 2.030 . S
O961 C964 1.249 1_554 S
O962 Mg963 2.028 . S
O962 C964 1.248 . S
Mg963 O962 2.028 . S
Mg963 O968 2.032 . S
Mg963 O970 2.079 1_556 S
C964 O961 1.249 1_556 S
C964 O962 1.248 . S
C965 O966 1.264 . S
C965 O973 1.249 . S
O966 C965 1.264 . S
O967 Mg960 1.986 1_556 S
O967 C971 1.246 . S
O968 Mg963 2.032 . S
O968 C971 1.259 . S
O969 Mg960 2.114 . S
O969 C972 1.252 . S
O970 Mg960 2.251 . S
O970 Mg963 2.079 1_554 S
O970 C972 1.273 . S
C971 O967 1.246 . S
C971 O968 1.259 . S
C972 O969 1.252 . S
C972 O970 1.273 . S
O973 Mg960 2.010 . S
O973 C965 1.249 . S
Mg974 O975 2.028 . S
Mg974 O981 1.986 . S
Mg974 O983 2.114 . S
Mg974 O984 2.251 . S
Mg974 O987 2.010 . S
O975 Mg974 2.028 . S
O975 C978 1.250 . S
O976 Mg977 2.028 . S
O976 C978 1.248 . S
Mg977 O976 2.028 . S
Mg977 O982 2.032 . S
Mg977 O984 2.079 . S
C978 O975 1.250 . S
C978 O976 1.248 . S
C979 O980 1.264 . S
C979 O987 1.249 . S
O980 C979 1.264 . S
O981 Mg974 1.986 . S
O981 C985 1.246 . S
O982 Mg977 2.032 . S
O982 C985 1.259 . S
O983 Mg974 2.114 . S
O983 C986 1.252 . S
O984 Mg974 2.251 . S
O984 Mg977 2.079 . S
O984 C986 1.273 . S
C985 O981 1.246 . S
C985 O982 1.259 . S
C986 O983 1.252 . S
C986 O984 1.273 . S
O987 Mg974 2.010 . S
O987 C979 1.249 . S
Mg988 O989 2.028 . S
Mg988 O995 1.986 1_554 S
Mg988 O997 2.114 . S
Mg988 O998 2.251 . S
Mg988 O1001 2.010 . S
O989 Mg988 2.028 . S
O989 C992 1.252 . S
O990 Mg991 2.028 . S
O990 C992 1.247 1_556 S
Mg991 O990 2.028 . S
Mg991 O996 2.032 . S
Mg991 O998 2.079 1_556 S
C992 O989 1.252 . S
C992 O990 1.247 1_554 S
C993 O994 1.264 . S
C993 O1001 1.249 . S
O994 C993 1.264 . S
O995 Mg988 1.986 1_556 S
O995 C999 1.246 . S
O996 Mg991 2.032 . S
O996 C999 1.259 . S
O997 Mg988 2.114 . S
O997 C1000 1.252 . S
O998 Mg988 2.251 . S
O998 Mg991 2.079 1_554 S
O998 C1000 1.273 . S
C999 O995 1.246 . S
C999 O996 1.259 . S
C1000 O997 1.252 . S
C1000 O998 1.273 . S
O1001 Mg988 2.010 . S
O1001 C993 1.249 . S
Mg1002 O1003 2.028 . S
Mg1002 O1009 1.986 . S
Mg1002 O1011 2.114 . S
Mg1002 O1012 2.251 . S
Mg1002 O1015 2.010 . S
O1003 Mg1002 2.028 . S
O1003 C1006 1.250 1_545 S
O1004 Mg1005 2.028 . S
O1004 C1006 1.248 . S
Mg1005 O1004 2.028 . S
Mg1005 O1010 2.032 . S
Mg1005 O1012 2.079 1_565 S
C1006 O1003 1.250 1_565 S
C1006 O1004 1.248 . S
C1007 O1008 1.264 . S
C1007 O1015 1.249 . S
O1008 C1007 1.264 . S
O1009 Mg1002 1.986 . S
O1009 C1013 1.246 . S
O1010 Mg1005 2.032 . S
O1010 C1013 1.259 1_565 S
O1011 Mg1002 2.114 . S
O1011 C1014 1.252 . S
O1012 Mg1002 2.251 . S
O1012 Mg1005 2.079 1_545 S
O1012 C1014 1.273 . S
C1013 O1009 1.246 . S
C1013 O1010 1.259 1_545 S
C1014 O1011 1.252 . S
C1014 O1012 1.273 . S
O1015 Mg1002 2.010 . S
O1015 C1007 1.249 . S
Mg1016 O1017 2.028 . S
Mg1016 O1023 1.986 . S
Mg1016 O1025 2.114 . S
Mg1016 O1026 2.251 . S
Mg1016 O1029 2.010 . S
O1017 Mg1016 2.028 . S
O1017 C1020 1.250 . S
O1018 Mg1019 2.028 . S
O1018 C1020 1.248 . S
Mg1019 O1018 2.028 . S
Mg1019 O1024 2.032 . S
Mg1019 O1026 2.079 . S
C1020 O1017 1.250 . S
C1020 O1018 1.248 . S
C1021 O1022 1.264 . S
C1021 O1029 1.249 . S
O1022 C1021 1.264 . S
O1023 Mg1016 1.986 . S
O1023 C1027 1.246 . S
O1024 Mg1019 2.032 . S
O1024 C1027 1.259 . S
O1025 Mg1016 2.114 . S
O1025 C1028 1.252 . S
O1026 Mg1016 2.251 . S
O1026 Mg1019 2.079 . S
O1026 C1028 1.273 . S
C1027 O1023 1.246 . S
C1027 O1024 1.259 . S
C1028 O1025 1.252 . S
C1028 O1026 1.273 . S
O1029 Mg1016 2.010 . S
O1029 C1021 1.249 . S
Mg1030 O1031 2.028 . S
Mg1030 O1037 1.986 . S
Mg1030 O1039 2.114 . S
Mg1030 O1040 2.251 . S
Mg1030 O1043 2.010 . S
O1031 Mg1030 2.028 . S
O1031 C1034 1.250 . S
O1032 Mg1033 2.028 . S
O1032 C1034 1.248 . S
Mg1033 O1032 2.028 . S
Mg1033 O1038 2.032 . S
Mg1033 O1040 2.079 . S
C1034 O1031 1.250 . S
C1034 O1032 1.248 . S
C1035 O1036 1.264 . S
C1035 O1043 1.249 . S
O1036 C1035 1.264 . S
O1037 Mg1030 1.986 . S
O1037 C1041 1.246 . S
O1038 Mg1033 2.032 . S
O1038 C1041 1.259 . S
O1039 Mg1030 2.114 . S
O1039 C1042 1.252 . S
O1040 Mg1030 2.251 . S
O1040 Mg1033 2.079 . S
O1040 C1042 1.273 . S
C1041 O1037 1.246 . S
C1041 O1038 1.259 . S
C1042 O1039 1.252 . S
C1042 O1040 1.273 . S
O1043 Mg1030 2.010 . S
O1043 C1035 1.249 . S
Mg1044 O1045 2.028 . S
Mg1044 O1051 1.986 . S
Mg1044 O1053 2.114 . S
Mg1044 O1054 2.251 . S
Mg1044 O1057 2.010 . S
O1045 Mg1044 2.028 . S
O1045 C1048 1.250 . S
O1046 Mg1047 2.028 . S
O1046 C1048 1.248 . S
Mg1047 O1046 2.028 . S
Mg1047 O1052 2.032 . S
Mg1047 O1054 2.079 . S
C1048 O1045 1.250 . S
C1048 O1046 1.248 . S
C1049 O1050 1.264 . S
C1049 O1057 1.249 . S
O1050 C1049 1.264 . S
O1051 Mg1044 1.986 . S
O1051 C1055 1.246 . S
O1052 Mg1047 2.032 . S
O1052 C1055 1.259 . S
O1053 Mg1044 2.114 . S
O1053 C1056 1.252 . S
O1054 Mg1044 2.251 . S
O1054 Mg1047 2.079 . S
O1054 C1056 1.273 . S
C1055 O1051 1.246 . S
C1055 O1052 1.259 . S
C1056 O1053 1.252 . S
C1056 O1054 1.273 . S
O1057 Mg1044 2.010 . S
O1057 C1049 1.249 . S
Mg1058 O1059 2.028 1_545 S
Mg1058 O1065 1.986 1_545 S
Mg1058 O1067 2.114 . S
Mg1058 O1068 2.251 . S
Mg1058 O1071 2.010 . S
O1059 Mg1058 2.028 1_565 S
O1059 C1062 1.250 . S
O1060 Mg1061 2.028 . S
O1060 C1062 1.248 . S
Mg1061 O1060 2.028 . S
Mg1061 O1066 2.032 . S
Mg1061 O1068 2.079 1_565 S
C1062 O1059 1.250 . S
C1062 O1060 1.248 . S
C1063 O1064 1.264 . S
C1063 O1071 1.249 . S
O1064 C1063 1.264 . S
O1065 Mg1058 1.986 1_565 S
O1065 C1069 1.246 . S
O1066 Mg1061 2.032 . S
O1066 C1069 1.259 . S
O1067 Mg1058 2.114 . S
O1067 C1070 1.252 . S
O1068 Mg1058 2.251 . S
O1068 Mg1061 2.079 1_545 S
O1068 C1070 1.273 . S
C1069 O1065 1.246 . S
C1069 O1066 1.259 . S
C1070 O1067 1.252 . S
C1070 O1068 1.273 . S
O1071 Mg1058 2.010 . S
O1071 C1063 1.249 . S
Mg1072 O1073 2.028 . S
Mg1072 O1079 1.986 . S
Mg1072 O1081 2.114 . S
Mg1072 O1082 2.251 . S
Mg1072 O1085 2.010 . S
O1073 Mg1072 2.028 . S
O1073 C1076 1.250 1_455 S
O1074 Mg1075 2.028 . S
O1074 C1076 1.248 . S
Mg1075 O1074 2.028 . S
Mg1075 O1080 2.032 . S
Mg1075 O1082 2.079 1_655 S
C1076 O1073 1.250 1_655 S
C1076 O1074 1.248 . S
C1077 O1078 1.264 . S
C1077 O1085 1.249 . S
O1078 C1077 1.264 . S
O1079 Mg1072 1.986 . S
O1079 C1083 1.246 . S
O1080 Mg1075 2.032 . S
O1080 C1083 1.259 1_655 S
O1081 Mg1072 2.114 . S
O1081 C1084 1.252 . S
O1082 Mg1072 2.251 . S
O1082 Mg1075 2.079 1_455 S
O1082 C1084 1.273 . S
C1083 O1079 1.246 . S
C1083 O1080 1.259 1_455 S
C1084 O1081 1.252 . S
C1084 O1082 1.273 . S
O1085 Mg1072 2.010 . S
O1085 C1077 1.249 . S
Mg1086 O1087 2.028 . S
Mg1086 O1093 1.986 . S
Mg1086 O1095 2.114 . S
Mg1086 O1096 2.251 . S
Mg1086 O1099 2.010 . S
O1087 Mg1086 2.028 . S
O1087 C1090 1.250 . S
O1088 Mg1089 2.028 . S
O1088 C1090 1.248 . S
Mg1089 O1088 2.028 . S
Mg1089 O1094 2.032 . S
Mg1089 O1096 2.079 . S
C1090 O1087 1.250 . S
C1090 O1088 1.248 . S
C1091 O1092 1.264 . S
C1091 O1099 1.249 . S
O1092 C1091 1.264 . S
O1093 Mg1086 1.986 . S
O1093 C1097 1.246 . S
O1094 Mg1089 2.032 . S
O1094 C1097 1.259 . S
O1095 Mg1086 2.114 . S
O1095 C1098 1.252 . S
O1096 Mg1086 2.251 . S
O1096 Mg1089 2.079 . S
O1096 C1098 1.273 . S
C1097 O1093 1.246 . S
C1097 O1094 1.259 . S
C1098 O1095 1.252 . S
C1098 O1096 1.273 . S
O1099 Mg1086 2.010 . S
O1099 C1091 1.249 . S
Mg1100 O1101 2.028 1_655 S
Mg1100 O1107 2.000 . S
Mg1100 O1109 2.114 . S
Mg1100 O1110 2.251 1_655 S
Mg1100 O1113 2.010 . S
O1101 Mg1100 2.028 1_455 S
O1101 C1104 1.250 . S
O1102 Mg1103 2.028 . S
O1102 C1104 1.248 . S
Mg1103 O1102 2.028 . S
Mg1103 O1108 2.032 . S
Mg1103 O1110 2.079 . S
C1104 O1101 1.250 . S
C1104 O1102 1.248 . S
C1105 O1106 1.264 . S
C1105 O1113 1.249 . S
O1106 C1105 1.264 . S
O1107 Mg1100 2.000 . S
O1107 C1111 1.209 1_655 S
O1108 Mg1103 2.032 . S
O1108 C1111 1.259 . S
O1109 Mg1100 2.114 . S
O1109 C1112 1.252 . S
O1110 Mg1100 2.251 1_455 S
O1110 Mg1103 2.079 . S
O1110 C1112 1.273 1_455 S
C1111 O1107 1.209 1_455 S
C1111 O1108 1.259 . S
C1112 O1109 1.252 . S
C1112 O1110 1.273 1_655 S
O1113 Mg1100 2.010 . S
O1113 C1105 1.249 . S
Mg1114 O1115 2.028 . S
Mg1114 O1121 1.986 . S
Mg1114 O1123 2.114 . S
Mg1114 O1124 2.251 . S
Mg1114 O1127 2.010 . S
O1115 Mg1114 2.028 . S
O1115 C1118 1.250 . S
O1116 Mg1117 2.028 . S
O1116 C1118 1.248 . S
Mg1117 O1116 2.028 . S
Mg1117 O1122 2.032 . S
Mg1117 O1124 2.079 . S
C1118 O1115 1.250 . S
C1118 O1116 1.248 . S
C1119 O1120 1.264 . S
C1119 O1127 1.249 . S
O1120 C1119 1.264 . S
O1121 Mg1114 1.986 . S
O1121 C1125 1.246 . S
O1122 Mg1117 2.032 . S
O1122 C1125 1.259 . S
O1123 Mg1114 2.114 . S
O1123 C1126 1.252 . S
O1124 Mg1114 2.251 . S
O1124 Mg1117 2.079 . S
O1124 C1126 1.273 . S
C1125 O1121 1.246 . S
C1125 O1122 1.259 . S
C1126 O1123 1.252 . S
C1126 O1124 1.273 . S
O1127 Mg1114 2.010 . S
O1127 C1119 1.249 . S
H1128 C1140 0.930 . S
H1129 C1142 0.930 . S
H1130 C1143 0.930 . S
H1131 C1147 0.959 . S
H1132 C1147 0.959 . S
H1133 C1147 0.961 . S
H1134 C1148 0.960 . S
H1135 C1148 0.961 . S
H1136 C1148 0.959 . S
H1137 C1151 0.929 . S
H1138 C1152 0.931 . S
H1139 C1154 0.930 . S
C1140 H1128 0.930 . S
C1140 C1141 1.399 . S
C1140 C1145 1.399 . S
C1141 C1140 1.399 . S
C1141 C1142 1.376 . S
C1142 H1129 0.930 . S
C1142 C1141 1.376 . S
C1142 C1143 1.388 . S
C1143 H1130 0.930 . S
C1143 C1142 1.388 . S
C1143 C1144 1.390 . S
C1144 C1143 1.390 . S
C1144 C1145 1.394 . S
C1144 C1150 1.465 . S
C1145 C1140 1.399 . S
C1145 C1144 1.394 . S
C1145 C1146 1.516 . S
C1146 C1145 1.516 . S
C1146 C1147 1.502 . S
C1146 C1148 1.561 . S
C1146 C1149 1.526 . S
C1147 H1131 0.959 . S
C1147 H1132 0.959 . S
C1147 H1133 0.961 . S
C1147 C1146 1.502 . S
C1148 H1134 0.960 . S
C1148 H1135 0.961 . S
C1148 H1136 0.959 . S
C1148 C1146 1.561 . S
C1149 C1146 1.526 . S
C1149 C1150 1.396 . S
C1149 C1154 1.390 . S
C1150 C1144 1.465 . S
C1150 C1149 1.396 . S
C1150 C1151 1.399 . S
C1151 H1137 0.929 . S
C1151 C1150 1.399 . S
C1151 C1152 1.385 . S
C1152 H1138 0.931 . S
C1152 C1151 1.385 . S
C1152 C1153 1.389 . S
C1153 C1152 1.389 . S
C1153 C1154 1.387 . S
C1154 H1139 0.930 . S
C1154 C1149 1.390 . S
C1154 C1153 1.387 . S
H1155 C1167 0.930 . S
H1156 C1169 0.930 . S
H1157 C1170 0.930 . S
H1158 C1174 0.959 . S
H1159 C1174 0.959 . S
H1160 C1174 0.961 . S
H1161 C1175 0.960 . S
H1162 C1175 0.961 . S
H1163 C1175 0.959 . S
H1164 C1178 0.929 . S
H1165 C1179 0.931 . S
H1166 C1181 0.930 . S
C1167 H1155 0.930 . S
C1167 C1168 1.399 . S
C1167 C1172 1.399 . S
C1168 C1167 1.399 . S
C1168 C1169 1.376 . S
C1169 H1156 0.930 . S
C1169 C1168 1.376 . S
C1169 C1170 1.388 . S
C1170 H1157 0.930 . S
C1170 C1169 1.388 . S
C1170 C1171 1.390 . S
C1171 C1170 1.390 . S
C1171 C1172 1.394 . S
C1171 C1177 1.465 . S
C1172 C1167 1.399 . S
C1172 C1171 1.394 . S
C1172 C1173 1.516 . S
C1173 C1172 1.516 . S
C1173 C1174 1.502 . S
C1173 C1175 1.561 . S
C1173 C1176 1.526 . S
C1174 H1158 0.959 . S
C1174 H1159 0.959 . S
C1174 H1160 0.961 . S
C1174 C1173 1.502 . S
C1175 H1161 0.960 . S
C1175 H1162 0.961 . S
C1175 H1163 0.959 . S
C1175 C1173 1.561 . S
C1176 C1173 1.526 . S
C1176 C1177 1.396 . S
C1176 C1181 1.390 . S
C1177 C1171 1.465 . S
C1177 C1176 1.396 . S
C1177 C1178 1.399 . S
C1178 H1164 0.929 . S
C1178 C1177 1.399 . S
C1178 C1179 1.385 . S
C1179 H1165 0.931 . S
C1179 C1178 1.385 . S
C1179 C1180 1.389 . S
C1180 C1179 1.389 . S
C1180 C1181 1.387 . S
C1181 H1166 0.930 . S
C1181 C1176 1.390 . S
C1181 C1180 1.387 . S
H1182 C1194 0.930 . S
H1183 C1196 0.930 . S
H1184 C1197 0.930 . S
H1185 C1201 0.959 . S
H1186 C1201 0.959 . S
H1187 C1201 0.961 . S
H1188 C1202 0.960 . S
H1189 C1202 0.961 . S
H1190 C1202 0.959 . S
H1191 C1205 0.929 . S
H1192 C1206 0.931 . S
H1193 C1208 0.930 . S
C1194 H1182 0.930 . S
C1194 C1195 1.399 . S
C1194 C1199 1.399 . S
C1195 C1194 1.399 . S
C1195 C1196 1.376 . S
C1196 H1183 0.930 . S
C1196 C1195 1.376 . S
C1196 C1197 1.388 . S
C1197 H1184 0.930 . S
C1197 C1196 1.388 . S
C1197 C1198 1.390 . S
C1198 C1197 1.390 . S
C1198 C1199 1.394 . S
C1198 C1204 1.465 . S
C1199 C1194 1.399 . S
C1199 C1198 1.394 . S
C1199 C1200 1.516 . S
C1200 C1199 1.516 . S
C1200 C1201 1.502 . S
C1200 C1202 1.561 . S
C1200 C1203 1.526 . S
C1201 H1185 0.959 . S
C1201 H1186 0.959 . S
C1201 H1187 0.961 . S
C1201 C1200 1.502 . S
C1202 H1188 0.960 . S
C1202 H1189 0.961 . S
C1202 H1190 0.959 . S
C1202 C1200 1.561 . S
C1203 C1200 1.526 . S
C1203 C1204 1.396 . S
C1203 C1208 1.390 . S
C1204 C1198 1.465 . S
C1204 C1203 1.396 . S
C1204 C1205 1.399 . S
C1205 H1191 0.929 . S
C1205 C1204 1.399 . S
C1205 C1206 1.385 . S
C1206 H1192 0.931 . S
C1206 C1205 1.385 . S
C1206 C1207 1.389 . S
C1207 C1206 1.389 . S
C1207 C1208 1.387 . S
C1208 H1193 0.930 . S
C1208 C1203 1.390 . S
C1208 C1207 1.387 . S
H1209 C1221 0.930 . S
H1210 C1223 0.930 . S
H1211 C1224 0.930 . S
H1212 C1228 0.959 . S
H1213 C1228 0.959 . S
H1214 C1228 0.961 . S
H1215 C1229 0.960 . S
H1216 C1229 0.961 . S
H1217 C1229 0.959 . S
H1218 C1232 0.929 . S
H1219 C1233 0.931 . S
H1220 C1235 0.930 . S
C1221 H1209 0.930 . S
C1221 C1222 1.399 . S
C1221 C1226 1.399 . S
C1222 C1221 1.399 . S
C1222 C1223 1.376 1_565 S
C1223 H1210 0.930 . S
C1223 C1222 1.376 1_545 S
C1223 C1224 1.388 . S
C1224 H1211 0.930 . S
C1224 C1223 1.388 . S
C1224 C1225 1.390 . S
C1225 C1224 1.390 . S
C1225 C1226 1.394 1_545 S
C1225 C1231 1.465 . S
C1226 C1221 1.399 . S
C1226 C1225 1.394 1_565 S
C1226 C1227 1.516 . S
C1227 C1226 1.516 . S
C1227 C1228 1.502 . S
C1227 C1229 1.561 . S
C1227 C1230 1.526 . S
C1228 H1212 0.959 . S
C1228 H1213 0.959 . S
C1228 H1214 0.961 . S
C1228 C1227 1.502 . S
C1229 H1215 0.960 . S
C1229 H1216 0.961 . S
C1229 H1217 0.959 . S
C1229 C1227 1.561 . S
C1230 C1227 1.526 . S
C1230 C1231 1.396 1_565 S
C1230 C1235 1.390 . S
C1231 C1225 1.465 . S
C1231 C1230 1.396 1_545 S
C1231 C1232 1.399 . S
C1232 H1218 0.929 . S
C1232 C1231 1.399 . S
C1232 C1233 1.385 . S
C1233 H1219 0.931 . S
C1233 C1232 1.385 . S
C1233 C1234 1.389 . S
C1234 C1233 1.389 . S
C1234 C1235 1.387 1_545 S
C1235 H1220 0.930 . S
C1235 C1230 1.390 . S
C1235 C1234 1.387 1_565 S
H1236 C1248 0.930 . S
H1237 C1250 0.930 . S
H1238 C1251 0.930 . S
H1239 C1255 0.959 . S
H1240 C1255 0.959 . S
H1241 C1255 0.961 . S
H1242 C1256 0.960 . S
H1243 C1256 0.961 . S
H1244 C1256 0.959 . S
H1245 C1259 0.929 . S
H1246 C1260 0.931 . S
H1247 C1262 0.930 . S
C1248 H1236 0.930 . S
C1248 C1249 1.399 . S
C1248 C1253 1.399 . S
C1249 C1248 1.399 . S
C1249 C1250 1.376 . S
C1250 H1237 0.930 . S
C1250 C1249 1.376 . S
C1250 C1251 1.388 . S
C1251 H1238 0.930 . S
C1251 C1250 1.388 . S
C1251 C1252 1.390 . S
C1252 C1251 1.390 . S
C1252 C1253 1.394 . S
C1252 C1258 1.465 . S
C1253 C1248 1.399 . S
C1253 C1252 1.394 . S
C1253 C1254 1.516 . S
C1254 C1253 1.516 . S
C1254 C1255 1.502 . S
C1254 C1256 1.561 . S
C1254 C1257 1.526 . S
C1255 H1239 0.959 . S
C1255 H1240 0.959 . S
C1255 H1241 0.961 . S
C1255 C1254 1.502 . S
C1256 H1242 0.960 . S
C1256 H1243 0.961 . S
C1256 H1244 0.959 . S
C1256 C1254 1.561 . S
C1257 C1254 1.526 . S
C1257 C1258 1.396 . S
C1257 C1262 1.390 . S
C1258 C1252 1.465 . S
C1258 C1257 1.396 . S
C1258 C1259 1.399 . S
C1259 H1245 0.929 . S
C1259 C1258 1.399 . S
C1259 C1260 1.385 . S
C1260 H1246 0.931 . S
C1260 C1259 1.385 . S
C1260 C1261 1.389 . S
C1261 C1260 1.389 . S
C1261 C1262 1.387 . S
C1262 H1247 0.930 . S
C1262 C1257 1.390 . S
C1262 C1261 1.387 . S
H1263 C1275 0.930 . S
H1264 C1277 0.930 . S
H1265 C1278 0.930 . S
H1266 C1282 0.959 . S
H1267 C1282 0.959 . S
H1268 C1282 0.961 . S
H1269 C1283 0.960 . S
H1270 C1283 0.961 . S
H1271 C1283 0.959 . S
H1272 C1286 0.929 . S
H1273 C1287 0.931 . S
H1274 C1289 0.930 . S
C1275 H1263 0.930 . S
C1275 C1276 1.399 . S
C1275 C1280 1.399 . S
C1276 C1275 1.399 . S
C1276 C1277 1.376 . S
C1277 H1264 0.930 . S
C1277 C1276 1.376 . S
C1277 C1278 1.388 . S
C1278 H1265 0.930 . S
C1278 C1277 1.388 . S
C1278 C1279 1.390 . S
C1279 C1278 1.390 . S
C1279 C1280 1.394 . S
C1279 C1285 1.465 . S
C1280 C1275 1.399 . S
C1280 C1279 1.394 . S
C1280 C1281 1.516 . S
C1281 C1280 1.516 . S
C1281 C1282 1.502 . S
C1281 C1283 1.561 . S
C1281 C1284 1.526 . S
C1282 H1266 0.959 . S
C1282 H1267 0.959 . S
C1282 H1268 0.961 . S
C1282 C1281 1.502 . S
C1283 H1269 0.960 . S
C1283 H1270 0.961 . S
C1283 H1271 0.959 . S
C1283 C1281 1.561 . S
C1284 C1281 1.526 . S
C1284 C1285 1.396 . S
C1284 C1289 1.390 . S
C1285 C1279 1.465 . S
C1285 C1284 1.396 . S
C1285 C1286 1.399 . S
C1286 H1272 0.929 . S
C1286 C1285 1.399 . S
C1286 C1287 1.385 . S
C1287 H1273 0.931 . S
C1287 C1286 1.385 . S
C1287 C1288 1.389 . S
C1288 C1287 1.389 . S
C1288 C1289 1.387 . S
C1289 H1274 0.930 . S
C1289 C1284 1.390 . S
C1289 C1288 1.387 . S
H1290 C1302 0.930 . S
H1291 C1304 0.930 . S
H1292 C1305 0.930 . S
H1293 C1309 0.959 . S
H1294 C1309 0.959 . S
H1295 C1309 0.961 . S
H1296 C1310 0.960 . S
H1297 C1310 0.961 . S
H1298 C1310 0.959 . S
H1299 C1313 0.929 . S
H1300 C1314 0.931 . S
H1301 C1316 0.930 . S
C1302 H1290 0.930 . S
C1302 C1303 1.399 . S
C1302 C1307 1.399 . S
C1303 C1302 1.399 . S
C1303 C1304 1.376 . S
C1304 H1291 0.930 . S
C1304 C1303 1.376 . S
C1304 C1305 1.388 . S
C1305 H1292 0.930 . S
C1305 C1304 1.388 . S
C1305 C1306 1.390 . S
C1306 C1305 1.390 . S
C1306 C1307 1.394 . S
C1306 C1312 1.465 . S
C1307 C1302 1.399 . S
C1307 C1306 1.394 . S
C1307 C1308 1.516 . S
C1308 C1307 1.516 . S
C1308 C1309 1.502 . S
C1308 C1310 1.561 . S
C1308 C1311 1.526 . S
C1309 H1293 0.959 . S
C1309 H1294 0.959 . S
C1309 H1295 0.961 . S
C1309 C1308 1.502 . S
C1310 H1296 0.960 . S
C1310 H1297 0.961 . S
C1310 H1298 0.959 . S
C1310 C1308 1.561 . S
C1311 C1308 1.526 . S
C1311 C1312 1.396 . S
C1311 C1316 1.390 . S
C1312 C1306 1.465 . S
C1312 C1311 1.396 . S
C1312 C1313 1.399 . S
C1313 H1299 0.929 . S
C1313 C1312 1.399 . S
C1313 C1314 1.385 . S
C1314 H1300 0.931 . S
C1314 C1313 1.385 . S
C1314 C1315 1.389 . S
C1315 C1314 1.389 . S
C1315 C1316 1.387 . S
C1316 H1301 0.930 . S
C1316 C1311 1.390 . S
C1316 C1315 1.387 . S
H1317 C1329 0.930 1_545 S
H1318 C1331 0.930 . S
H1319 C1332 0.930 . S
H1320 C1336 0.962 . S
H1321 C1336 0.959 . S
H1322 C1336 0.961 . S
H1323 C1337 0.960 . S
H1324 C1337 0.961 . S
H1325 C1337 0.959 . S
H1326 C1340 0.929 . S
H1327 C1341 0.931 . S
H1328 C1343 0.930 . S
C1329 H1317 0.930 1_565 S
C1329 C1330 1.399 . S
C1329 C1334 1.399 . S
C1330 C1329 1.399 . S
C1330 C1331 1.376 . S
C1331 H1318 0.930 . S
C1331 C1330 1.376 . S
C1331 C1332 1.388 . S
C1332 H1319 0.930 . S
C1332 C1331 1.388 . S
C1332 C1333 1.390 . S
C1333 C1332 1.390 . S
C1333 C1334 1.394 . S
C1333 C1339 1.465 . S
C1334 C1329 1.399 . S
C1334 C1333 1.394 . S
C1334 C1335 1.516 1_565 S
C1335 C1334 1.516 1_545 S
C1335 C1336 1.502 . S
C1335 C1337 1.561 . S
C1335 C1338 1.526 1_545 S
C1336 H1320 0.962 . S
C1336 H1321 0.959 . S
C1336 H1322 0.961 . S
C1336 C1335 1.502 . S
C1337 H1323 0.960 . S
C1337 H1324 0.961 . S
C1337 H1325 0.959 . S
C1337 C1335 1.561 . S
C1338 C1335 1.526 1_565 S
C1338 C1339 1.396 . S
C1338 C1343 1.390 1_565 S
C1339 C1333 1.465 . S
C1339 C1338 1.396 . S
C1339 C1340 1.399 . S
C1340 H1326 0.929 . S
C1340 C1339 1.399 . S
C1340 C1341 1.385 . S
C1341 H1327 0.931 . S
C1341 C1340 1.385 . S
C1341 C1342 1.389 . S
C1342 C1341 1.389 . S
C1342 C1343 1.387 1_565 S
C1343 H1328 0.930 . S
C1343 C1338 1.390 1_545 S
C1343 C1342 1.387 1_545 S
H1344 C1356 0.930 . S
H1345 C1358 0.930 . S
H1346 C1359 0.930 . S
H1347 C1363 0.959 . S
H1348 C1363 0.959 . S
H1349 C1363 0.961 . S
H1350 C1364 0.960 . S
H1351 C1364 0.961 . S
H1352 C1364 0.959 . S
H1353 C1367 0.929 . S
H1354 C1368 0.931 . S
H1355 C1370 0.930 . S
C1356 H1344 0.930 . S
C1356 C1357 1.399 . S
C1356 C1361 1.399 . S
C1357 C1356 1.399 . S
C1357 C1358 1.376 . S
C1358 H1345 0.930 . S
C1358 C1357 1.376 . S
C1358 C1359 1.388 . S
C1359 H1346 0.930 . S
C1359 C1358 1.388 . S
C1359 C1360 1.390 . S
C1360 C1359 1.390 . S
C1360 C1361 1.394 . S
C1360 C1366 1.465 . S
C1361 C1356 1.399 . S
C1361 C1360 1.394 . S
C1361 C1362 1.516 . S
C1362 C1361 1.516 . S
C1362 C1363 1.502 . S
C1362 C1364 1.561 . S
C1362 C1365 1.526 . S
C1363 H1347 0.959 . S
C1363 H1348 0.959 . S
C1363 H1349 0.961 . S
C1363 C1362 1.502 . S
C1364 H1350 0.960 . S
C1364 H1351 0.961 . S
C1364 H1352 0.959 . S
C1364 C1362 1.561 . S
C1365 C1362 1.526 . S
C1365 C1366 1.396 . S
C1365 C1370 1.390 . S
C1366 C1360 1.465 . S
C1366 C1365 1.396 . S
C1366 C1367 1.399 . S
C1367 H1353 0.929 . S
C1367 C1366 1.399 . S
C1367 C1368 1.385 . S
C1368 H1354 0.931 . S
C1368 C1367 1.385 . S
C1368 C1369 1.389 . S
C1369 C1368 1.389 . S
C1369 C1370 1.387 . S
C1370 H1355 0.930 . S
C1370 C1365 1.390 . S
C1370 C1369 1.387 . S
H1371 C1383 0.930 . S
H1372 C1385 0.930 . S
H1373 C1386 0.930 . S
H1374 C1390 0.959 . S
H1375 C1390 0.959 . S
H1376 C1390 0.961 . S
H1377 C1391 0.960 . S
H1378 C1391 0.961 . S
H1379 C1391 0.959 . S
H1380 C1394 0.929 . S
H1381 C1395 0.931 . S
H1382 C1397 0.930 . S
C1383 H1371 0.930 . S
C1383 C1384 1.399 . S
C1383 C1388 1.399 . S
C1384 C1383 1.399 . S
C1384 C1385 1.376 . S
C1385 H1372 0.930 . S
C1385 C1384 1.376 . S
C1385 C1386 1.388 . S
C1386 H1373 0.930 . S
C1386 C1385 1.388 . S
C1386 C1387 1.390 . S
C1387 C1386 1.390 . S
C1387 C1388 1.394 . S
C1387 C1393 1.465 . S
C1388 C1383 1.399 . S
C1388 C1387 1.394 . S
C1388 C1389 1.516 . S
C1389 C1388 1.516 . S
C1389 C1390 1.502 . S
C1389 C1391 1.561 . S
C1389 C1392 1.526 . S
C1390 H1374 0.959 . S
C1390 H1375 0.959 . S
C1390 H1376 0.961 . S
C1390 C1389 1.502 . S
C1391 H1377 0.960 . S
C1391 H1378 0.961 . S
C1391 H1379 0.959 . S
C1391 C1389 1.561 . S
C1392 C1389 1.526 . S
C1392 C1393 1.396 . S
C1392 C1397 1.390 . S
C1393 C1387 1.465 . S
C1393 C1392 1.396 . S
C1393 C1394 1.399 . S
C1394 H1380 0.929 . S
C1394 C1393 1.399 . S
C1394 C1395 1.385 . S
C1395 H1381 0.931 . S
C1395 C1394 1.385 . S
C1395 C1396 1.389 . S
C1396 C1395 1.389 . S
C1396 C1397 1.387 . S
C1397 H1382 0.930 . S
C1397 C1392 1.390 . S
C1397 C1396 1.387 . S
H1398 C1410 0.930 . S
H1399 C1412 0.930 . S
H1400 C1413 0.930 . S
H1401 C1417 0.959 . S
H1402 C1417 0.959 . S
H1403 C1417 0.961 . S
H1404 C1418 0.960 . S
H1405 C1418 0.961 . S
H1406 C1418 0.959 . S
H1407 C1421 0.929 . S
H1408 C1422 0.931 . S
H1409 C1424 0.930 . S
C1410 H1398 0.930 . S
C1410 C1411 1.399 . S
C1410 C1415 1.399 . S
C1411 C1410 1.399 . S
C1411 C1412 1.376 . S
C1412 H1399 0.930 . S
C1412 C1411 1.376 . S
C1412 C1413 1.388 . S
C1413 H1400 0.930 . S
C1413 C1412 1.388 . S
C1413 C1414 1.390 . S
C1414 C1413 1.390 . S
C1414 C1415 1.394 . S
C1414 C1420 1.465 . S
C1415 C1410 1.399 . S
C1415 C1414 1.394 . S
C1415 C1416 1.516 . S
C1416 C1415 1.516 . S
C1416 C1417 1.502 . S
C1416 C1418 1.561 . S
C1416 C1419 1.526 . S
C1417 H1401 0.959 . S
C1417 H1402 0.959 . S
C1417 H1403 0.961 . S
C1417 C1416 1.502 . S
C1418 H1404 0.960 . S
C1418 H1405 0.961 . S
C1418 H1406 0.959 . S
C1418 C1416 1.561 . S
C1419 C1416 1.526 . S
C1419 C1420 1.396 . S
C1419 C1424 1.390 . S
C1420 C1414 1.465 . S
C1420 C1419 1.396 . S
C1420 C1421 1.399 . S
C1421 H1407 0.929 . S
C1421 C1420 1.399 . S
C1421 C1422 1.385 . S
C1422 H1408 0.931 . S
C1422 C1421 1.385 . S
C1422 C1423 1.389 . S
C1423 C1422 1.389 . S
C1423 C1424 1.387 . S
C1424 H1409 0.930 . S
C1424 C1419 1.390 . S
C1424 C1423 1.387 . S
H1425 C1437 0.930 . S
H1426 C1439 0.930 . S
H1427 C1440 0.930 . S
H1428 C1444 0.959 . S
H1429 C1444 0.959 . S
H1430 C1444 0.961 . S
H1431 C1445 0.960 . S
H1432 C1445 0.961 . S
H1433 C1445 0.959 . S
H1434 C1448 0.929 . S
H1435 C1449 0.931 . S
H1436 C1451 0.930 . S
C1437 H1425 0.930 . S
C1437 C1438 1.399 . S
C1437 C1442 1.399 . S
C1438 C1437 1.399 . S
C1438 C1439 1.376 . S
C1439 H1426 0.930 . S
C1439 C1438 1.376 . S
C1439 C1440 1.388 . S
C1440 H1427 0.930 . S
C1440 C1439 1.388 . S
C1440 C1441 1.390 . S
C1441 C1440 1.390 . S
C1441 C1442 1.394 . S
C1441 C1447 1.465 . S
C1442 C1437 1.399 . S
C1442 C1441 1.394 . S
C1442 C1443 1.516 . S
C1443 C1442 1.516 . S
C1443 C1444 1.502 . S
C1443 C1445 1.561 . S
C1443 C1446 1.526 . S
C1444 H1428 0.959 . S
C1444 H1429 0.959 . S
C1444 H1430 0.961 . S
C1444 C1443 1.502 . S
C1445 H1431 0.960 . S
C1445 H1432 0.961 . S
C1445 H1433 0.959 . S
C1445 C1443 1.561 . S
C1446 C1443 1.526 . S
C1446 C1447 1.396 . S
C1446 C1451 1.390 . S
C1447 C1441 1.465 . S
C1447 C1446 1.396 . S
C1447 C1448 1.399 . S
C1448 H1434 0.929 . S
C1448 C1447 1.399 . S
C1448 C1449 1.385 . S
C1449 H1435 0.931 . S
C1449 C1448 1.385 . S
C1449 C1450 1.389 . S
C1450 C1449 1.389 . S
C1450 C1451 1.387 . S
C1451 H1436 0.930 . S
C1451 C1446 1.390 . S
C1451 C1450 1.387 . S
H1452 C1464 0.930 . S
H1453 C1466 0.930 . S
H1454 C1467 0.930 . S
H1455 C1471 0.959 . S
H1456 C1471 0.959 . S
H1457 C1471 0.961 . S
H1458 C1472 0.960 . S
H1459 C1472 0.961 . S
H1460 C1472 0.959 . S
H1461 C1475 0.929 . S
H1462 C1476 0.931 . S
H1463 C1478 0.930 . S
C1464 H1452 0.930 . S
C1464 C1465 1.399 . S
C1464 C1469 1.399 . S
C1465 C1464 1.399 . S
C1465 C1466 1.376 . S
C1466 H1453 0.930 . S
C1466 C1465 1.376 . S
C1466 C1467 1.388 . S
C1467 H1454 0.930 . S
C1467 C1466 1.388 . S
C1467 C1468 1.390 . S
C1468 C1467 1.390 . S
C1468 C1469 1.394 . S
C1468 C1474 1.465 . S
C1469 C1464 1.399 . S
C1469 C1468 1.394 . S
C1469 C1470 1.516 . S
C1470 C1469 1.516 . S
C1470 C1471 1.502 . S
C1470 C1472 1.561 . S
C1470 C1473 1.526 . S
C1471 H1455 0.959 . S
C1471 H1456 0.959 . S
C1471 H1457 0.961 . S
C1471 C1470 1.502 . S
C1472 H1458 0.960 . S
C1472 H1459 0.961 . S
C1472 H1460 0.959 . S
C1472 C1470 1.561 . S
C1473 C1470 1.526 . S
C1473 C1474 1.396 . S
C1473 C1478 1.390 . S
C1474 C1468 1.465 . S
C1474 C1473 1.396 . S
C1474 C1475 1.399 . S
C1475 H1461 0.929 . S
C1475 C1474 1.399 . S
C1475 C1476 1.385 . S
C1476 H1462 0.931 . S
C1476 C1475 1.385 . S
C1476 C1477 1.389 . S
C1477 C1476 1.389 . S
C1477 C1478 1.387 . S
C1478 H1463 0.930 . S
C1478 C1473 1.390 . S
C1478 C1477 1.387 . S
H1479 C1491 0.930 . S
H1480 C1493 0.930 . S
H1481 C1494 0.930 . S
H1482 C1498 0.959 . S
H1483 C1498 0.959 . S
H1484 C1498 0.961 . S
H1485 C1499 0.960 . S
H1486 C1499 0.961 . S
H1487 C1499 0.959 . S
H1488 C1502 0.929 . S
H1489 C1503 0.931 . S
H1490 C1505 0.930 1_655 S
C1491 H1479 0.930 . S
C1491 C1492 1.399 . S
C1491 C1496 1.399 . S
C1492 C1491 1.399 . S
C1492 C1493 1.376 . S
C1493 H1480 0.930 . S
C1493 C1492 1.376 . S
C1493 C1494 1.388 . S
C1494 H1481 0.930 . S
C1494 C1493 1.388 . S
C1494 C1495 1.390 . S
C1495 C1494 1.390 . S
C1495 C1496 1.394 . S
C1495 C1501 1.465 . S
C1496 C1491 1.399 . S
C1496 C1495 1.394 . S
C1496 C1497 1.516 . S
C1497 C1496 1.516 . S
C1497 C1498 1.502 1_455 S
C1497 C1499 1.561 . S
C1497 C1500 1.526 . S
C1498 H1482 0.959 . S
C1498 H1483 0.959 . S
C1498 H1484 0.961 . S
C1498 C1497 1.502 1_655 S
C1499 H1485 0.960 . S
C1499 H1486 0.961 . S
C1499 H1487 0.959 . S
C1499 C1497 1.561 . S
C1500 C1497 1.526 . S
C1500 C1501 1.396 . S
C1500 C1505 1.390 . S
C1501 C1495 1.465 . S
C1501 C1500 1.396 . S
C1501 C1502 1.399 . S
C1502 H1488 0.929 . S
C1502 C1501 1.399 . S
C1502 C1503 1.385 . S
C1503 H1489 0.931 . S
C1503 C1502 1.385 . S
C1503 C1504 1.389 . S
C1504 C1503 1.389 . S
C1504 C1505 1.387 . S
C1505 H1490 0.930 1_455 S
C1505 C1500 1.390 . S
C1505 C1504 1.387 . S
H1506 C1518 0.930 . S
H1507 C1520 0.930 . S
H1508 C1521 0.930 . S
H1509 C1525 0.959 . S
H1510 C1525 0.959 . S
H1511 C1525 0.961 . S
H1512 C1526 0.960 . S
H1513 C1526 0.961 . S
H1514 C1526 0.959 . S
H1515 C1529 0.929 . S
H1516 C1530 0.931 . S
H1517 C1532 0.930 . S
C1518 H1506 0.930 . S
C1518 C1519 1.399 . S
C1518 C1523 1.399 . S
C1519 C1518 1.399 . S
C1519 C1520 1.376 . S
C1520 H1507 0.930 . S
C1520 C1519 1.376 . S
C1520 C1521 1.388 . S
C1521 H1508 0.930 . S
C1521 C1520 1.388 . S
C1521 C1522 1.390 . S
C1522 C1521 1.390 . S
C1522 C1523 1.394 . S
C1522 C1528 1.465 . S
C1523 C1518 1.399 . S
C1523 C1522 1.394 . S
C1523 C1524 1.516 . S
C1524 C1523 1.516 . S
C1524 C1525 1.502 . S
C1524 C1526 1.561 . S
C1524 C1527 1.526 . S
C1525 H1509 0.959 . S
C1525 H1510 0.959 . S
C1525 H1511 0.961 . S
C1525 C1524 1.502 . S
C1526 H1512 0.960 . S
C1526 H1513 0.961 . S
C1526 H1514 0.959 . S
C1526 C1524 1.561 . S
C1527 C1524 1.526 . S
C1527 C1528 1.396 . S
C1527 C1532 1.390 . S
C1528 C1522 1.465 . S
C1528 C1527 1.396 . S
C1528 C1529 1.399 . S
C1529 H1515 0.929 . S
C1529 C1528 1.399 . S
C1529 C1530 1.385 . S
C1530 H1516 0.931 . S
C1530 C1529 1.385 . S
C1530 C1531 1.389 . S
C1531 C1530 1.389 . S
C1531 C1532 1.387 . S
C1532 H1517 0.930 . S
C1532 C1527 1.390 . S
C1532 C1531 1.387 . S
H1533 C1545 0.930 . S
H1534 C1547 0.930 . S
H1535 C1548 0.930 1_455 S
H1536 C1552 0.959 . S
H1537 C1552 0.959 . S
H1538 C1552 0.961 . S
H1539 C1553 0.960 . S
H1540 C1553 0.961 . S
H1541 C1553 0.959 1_455 S
H1542 C1556 0.929 . S
H1543 C1557 0.931 . S
H1544 C1559 0.930 . S
C1545 H1533 0.930 . S
C1545 C1546 1.399 . S
C1545 C1550 1.399 . S
C1546 C1545 1.399 . S
C1546 C1547 1.376 . S
C1547 H1534 0.930 . S
C1547 C1546 1.376 . S
C1547 C1548 1.388 . S
C1548 H1535 0.930 1_655 S
C1548 C1547 1.388 . S
C1548 C1549 1.390 . S
C1549 C1548 1.390 . S
C1549 C1550 1.394 . S
C1549 C1555 1.465 . S
C1550 C1545 1.399 . S
C1550 C1549 1.394 . S
C1550 C1551 1.516 . S
C1551 C1550 1.516 . S
C1551 C1552 1.502 . S
C1551 C1553 1.561 . S
C1551 C1554 1.526 . S
C1552 H1536 0.959 . S
C1552 H1537 0.959 . S
C1552 H1538 0.961 . S
C1552 C1551 1.502 . S
C1553 H1539 0.960 . S
C1553 H1540 0.961 . S
C1553 H1541 0.959 1_655 S
C1553 C1551 1.561 . S
C1554 C1551 1.526 . S
C1554 C1555 1.396 . S
C1554 C1559 1.390 . S
C1555 C1549 1.465 . S
C1555 C1554 1.396 . S
C1555 C1556 1.399 1_655 S
C1556 H1542 0.929 . S
C1556 C1555 1.399 1_455 S
C1556 C1557 1.385 . S
C1557 H1543 0.931 . S
C1557 C1556 1.385 . S
C1557 C1558 1.389 1_455 S
C1558 C1557 1.389 1_655 S
C1558 C1559 1.387 . S
C1559 H1544 0.930 . S
C1559 C1554 1.390 . S
C1559 C1558 1.387 . S
H1560 C1572 0.930 . S
H1561 C1574 0.930 . S
H1562 C1575 0.930 . S
H1563 C1579 0.959 . S
H1564 C1579 0.959 . S
H1565 C1579 0.961 . S
H1566 C1580 0.960 . S
H1567 C1580 0.961 . S
H1568 C1580 0.959 . S
H1569 C1583 0.929 . S
H1570 C1584 0.931 . S
H1571 C1586 0.930 . S
C1572 H1560 0.930 . S
C1572 C1573 1.399 . S
C1572 C1577 1.399 . S
C1573 C1572 1.399 . S
C1573 C1574 1.376 . S
C1574 H1561 0.930 . S
C1574 C1573 1.376 . S
C1574 C1575 1.388 . S
C1575 H1562 0.930 . S
C1575 C1574 1.388 . S
C1575 C1576 1.390 . S
C1576 C1575 1.390 . S
C1576 C1577 1.394 . S
C1576 C1582 1.465 . S
C1577 C1572 1.399 . S
C1577 C1576 1.394 . S
C1577 C1578 1.516 . S
C1578 C1577 1.516 . S
C1578 C1579 1.502 . S
C1578 C1580 1.561 . S
C1578 C1581 1.526 . S
C1579 H1563 0.959 . S
C1579 H1564 0.959 . S
C1579 H1565 0.961 . S
C1579 C1578 1.502 . S
C1580 H1566 0.960 . S
C1580 H1567 0.961 . S
C1580 H1568 0.959 . S
C1580 C1578 1.561 . S
C1581 C1578 1.526 . S
C1581 C1582 1.396 . S
C1581 C1586 1.390 . S
C1582 C1576 1.465 . S
C1582 C1581 1.396 . S
C1582 C1583 1.399 . S
C1583 H1569 0.929 . S
C1583 C1582 1.399 . S
C1583 C1584 1.385 . S
C1584 H1570 0.931 . S
C1584 C1583 1.385 . S
C1584 C1585 1.389 . S
C1585 C1584 1.389 . S
C1585 C1586 1.387 . S
C1586 H1571 0.930 . S
C1586 C1581 1.390 . S
C1586 C1585 1.387 . S
H1587 C1599 0.930 . S
H1588 C1601 0.930 . S
H1589 C1602 0.930 . S
H1590 C1606 0.959 . S
H1591 C1606 0.959 . S
H1592 C1606 0.961 . S
H1593 C1607 0.960 . S
H1594 C1607 0.961 . S
H1595 C1607 0.959 . S
H1596 C1610 0.929 . S
H1597 C1611 0.931 . S
H1598 C1613 0.930 . S
C1599 H1587 0.930 . S
C1599 C1600 1.399 . S
C1599 C1604 1.399 . S
C1600 C1599 1.399 . S
C1600 C1601 1.376 . S
C1601 H1588 0.930 . S
C1601 C1600 1.376 . S
C1601 C1602 1.388 . S
C1602 H1589 0.930 . S
C1602 C1601 1.388 . S
C1602 C1603 1.390 . S
C1603 C1602 1.390 . S
C1603 C1604 1.394 . S
C1603 C1609 1.465 . S
C1604 C1599 1.399 . S
C1604 C1603 1.394 . S
C1604 C1605 1.516 . S
C1605 C1604 1.516 . S
C1605 C1606 1.502 . S
C1605 C1607 1.561 . S
C1605 C1608 1.526 . S
C1606 H1590 0.959 . S
C1606 H1591 0.959 . S
C1606 H1592 0.961 . S
C1606 C1605 1.502 . S
C1607 H1593 0.960 . S
C1607 H1594 0.961 . S
C1607 H1595 0.959 . S
C1607 C1605 1.561 . S
C1608 C1605 1.526 . S
C1608 C1609 1.396 . S
C1608 C1613 1.390 . S
C1609 C1603 1.465 . S
C1609 C1608 1.396 . S
C1609 C1610 1.399 . S
C1610 H1596 0.929 . S
C1610 C1609 1.399 . S
C1610 C1611 1.385 . S
C1611 H1597 0.931 . S
C1611 C1610 1.385 . S
C1611 C1612 1.389 . S
C1612 C1611 1.389 . S
C1612 C1613 1.387 . S
C1613 H1598 0.930 . S
C1613 C1608 1.390 . S
C1613 C1612 1.387 . S
H1614 C1626 0.926 1_554 S
H1615 C1628 0.930 . S
H1616 C1629 0.930 . S
H1617 C1633 0.959 . S
H1618 C1633 0.959 . S
H1619 C1633 0.961 . S
H1620 C1634 0.960 . S
H1621 C1634 0.961 . S
H1622 C1634 0.959 . S
H1623 C1637 0.929 . S
H1624 C1638 0.931 . S
H1625 C1640 0.930 . S
C1626 H1614 0.926 1_556 S
C1626 C1627 1.403 . S
C1626 C1631 1.399 . S
C1627 C1626 1.403 . S
C1627 C1628 1.376 . S
C1628 H1615 0.930 . S
C1628 C1627 1.376 . S
C1628 C1629 1.388 . S
C1629 H1616 0.930 . S
C1629 C1628 1.388 . S
C1629 C1630 1.390 . S
C1630 C1629 1.390 . S
C1630 C1631 1.394 . S
C1630 C1636 1.465 . S
C1631 C1626 1.399 . S
C1631 C1630 1.394 . S
C1631 C1632 1.516 1_556 S
C1632 C1631 1.516 1_554 S
C1632 C1633 1.502 . S
C1632 C1634 1.561 . S
C1632 C1635 1.526 . S
C1633 H1617 0.959 . S
C1633 H1618 0.959 . S
C1633 H1619 0.961 . S
C1633 C1632 1.502 . S
C1634 H1620 0.960 . S
C1634 H1621 0.961 . S
C1634 H1622 0.959 . S
C1634 C1632 1.561 . S
C1635 C1632 1.526 . S
C1635 C1636 1.396 1_554 S
C1635 C1640 1.390 . S
C1636 C1630 1.465 . S
C1636 C1635 1.396 1_556 S
C1636 C1637 1.399 . S
C1637 H1623 0.929 . S
C1637 C1636 1.399 . S
C1637 C1638 1.385 . S
C1638 H1624 0.931 . S
C1638 C1637 1.385 . S
C1638 C1639 1.389 . S
C1639 C1638 1.389 . S
C1639 C1640 1.387 1_556 S
C1640 H1625 0.930 . S
C1640 C1635 1.390 . S
C1640 C1639 1.387 1_554 S
H1641 C1653 0.930 . S
H1642 C1655 0.930 . S
H1643 C1656 0.930 . S
H1644 C1660 0.959 . S
H1645 C1660 0.959 . S
H1646 C1660 0.961 . S
H1647 C1661 0.960 . S
H1648 C1661 0.961 . S
H1649 C1661 0.959 . S
H1650 C1664 0.929 . S
H1651 C1665 0.931 . S
H1652 C1667 0.930 . S
C1653 H1641 0.930 . S
C1653 C1654 1.399 . S
C1653 C1658 1.399 . S
C1654 C1653 1.399 . S
C1654 C1655 1.376 . S
C1655 H1642 0.930 . S
C1655 C1654 1.376 . S
C1655 C1656 1.388 . S
C1656 H1643 0.930 . S
C1656 C1655 1.388 . S
C1656 C1657 1.390 . S
C1657 C1656 1.390 . S
C1657 C1658 1.394 . S
C1657 C1663 1.465 . S
C1658 C1653 1.399 . S
C1658 C1657 1.394 . S
C1658 C1659 1.516 . S
C1659 C1658 1.516 . S
C1659 C1660 1.502 . S
C1659 C1661 1.561 . S
C1659 C1662 1.526 . S
C1660 H1644 0.959 . S
C1660 H1645 0.959 . S
C1660 H1646 0.961 . S
C1660 C1659 1.502 . S
C1661 H1647 0.960 . S
C1661 H1648 0.961 . S
C1661 H1649 0.959 . S
C1661 C1659 1.561 . S
C1662 C1659 1.526 . S
C1662 C1663 1.396 . S
C1662 C1667 1.390 . S
C1663 C1657 1.465 . S
C1663 C1662 1.396 . S
C1663 C1664 1.399 . S
C1664 H1650 0.929 . S
C1664 C1663 1.399 . S
C1664 C1665 1.385 . S
C1665 H1651 0.931 . S
C1665 C1664 1.385 . S
C1665 C1666 1.389 . S
C1666 C1665 1.389 . S
C1666 C1667 1.387 . S
C1667 H1652 0.930 . S
C1667 C1662 1.390 . S
C1667 C1666 1.387 . S
H1668 C1680 0.930 . S
H1669 C1682 0.930 . S
H1670 C1683 0.930 . S
H1671 C1687 0.959 . S
H1672 C1687 0.959 . S
H1673 C1687 0.961 . S
H1674 C1688 0.960 . S
H1675 C1688 0.961 . S
H1676 C1688 0.959 . S
H1677 C1691 0.929 . S
H1678 C1692 0.931 . S
H1679 C1694 0.930 . S
C1680 H1668 0.930 . S
C1680 C1681 1.399 . S
C1680 C1685 1.399 . S
C1681 C1680 1.399 . S
C1681 C1682 1.376 . S
C1682 H1669 0.930 . S
C1682 C1681 1.376 . S
C1682 C1683 1.388 . S
C1683 H1670 0.930 . S
C1683 C1682 1.388 . S
C1683 C1684 1.390 . S
C1684 C1683 1.390 . S
C1684 C1685 1.394 . S
C1684 C1690 1.465 . S
C1685 C1680 1.399 . S
C1685 C1684 1.394 . S
C1685 C1686 1.516 . S
C1686 C1685 1.516 . S
C1686 C1687 1.502 . S
C1686 C1688 1.561 . S
C1686 C1689 1.526 . S
C1687 H1671 0.959 . S
C1687 H1672 0.959 . S
C1687 H1673 0.961 . S
C1687 C1686 1.502 . S
C1688 H1674 0.960 . S
C1688 H1675 0.961 . S
C1688 H1676 0.959 . S
C1688 C1686 1.561 . S
C1689 C1686 1.526 . S
C1689 C1690 1.396 . S
C1689 C1694 1.390 . S
C1690 C1684 1.465 . S
C1690 C1689 1.396 . S
C1690 C1691 1.399 . S
C1691 H1677 0.929 . S
C1691 C1690 1.399 . S
C1691 C1692 1.385 . S
C1692 H1678 0.931 . S
C1692 C1691 1.385 . S
C1692 C1693 1.389 . S
C1693 C1692 1.389 . S
C1693 C1694 1.387 . S
C1694 H1679 0.930 . S
C1694 C1689 1.390 . S
C1694 C1693 1.387 . S
H1695 C1707 0.930 . S
H1696 C1709 0.930 . S
H1697 C1710 0.930 . S
H1698 C1714 0.959 . S
H1699 C1714 0.959 . S
H1700 C1714 0.961 . S
H1701 C1715 0.960 . S
H1702 C1715 0.961 . S
H1703 C1715 0.959 . S
H1704 C1718 0.929 . S
H1705 C1719 0.931 . S
H1706 C1721 0.930 . S
C1707 H1695 0.930 . S
C1707 C1708 1.399 . S
C1707 C1712 1.399 . S
C1708 C1707 1.399 . S
C1708 C1709 1.376 . S
C1709 H1696 0.930 . S
C1709 C1708 1.376 . S
C1709 C1710 1.388 . S
C1710 H1697 0.930 . S
C1710 C1709 1.388 . S
C1710 C1711 1.390 . S
C1711 C1710 1.390 . S
C1711 C1712 1.394 . S
C1711 C1717 1.465 . S
C1712 C1707 1.399 . S
C1712 C1711 1.394 . S
C1712 C1713 1.516 . S
C1713 C1712 1.516 . S
C1713 C1714 1.502 . S
C1713 C1715 1.561 . S
C1713 C1716 1.526 . S
C1714 H1698 0.959 . S
C1714 H1699 0.959 . S
C1714 H1700 0.961 . S
C1714 C1713 1.502 . S
C1715 H1701 0.960 . S
C1715 H1702 0.961 . S
C1715 H1703 0.959 . S
C1715 C1713 1.561 . S
C1716 C1713 1.526 . S
C1716 C1717 1.396 . S
C1716 C1721 1.390 . S
C1717 C1711 1.465 . S
C1717 C1716 1.396 . S
C1717 C1718 1.399 . S
C1718 H1704 0.929 . S
C1718 C1717 1.399 . S
C1718 C1719 1.385 . S
C1719 H1705 0.931 . S
C1719 C1718 1.385 . S
C1719 C1720 1.389 . S
C1720 C1719 1.389 . S
C1720 C1721 1.387 . S
C1721 H1706 0.930 . S
C1721 C1716 1.390 . S
C1721 C1720 1.387 . S
H1722 C1734 0.930 . S
H1723 C1736 0.930 . S
H1724 C1737 0.930 . S
H1725 C1741 0.959 . S
H1726 C1741 0.959 . S
H1727 C1741 0.961 . S
H1728 C1742 0.960 . S
H1729 C1742 0.961 . S
H1730 C1742 0.959 . S
H1731 C1745 0.929 . S
H1732 C1746 0.931 . S
H1733 C1748 0.930 . S
C1734 H1722 0.930 . S
C1734 C1735 1.399 . S
C1734 C1739 1.399 . S
C1735 C1734 1.399 . S
C1735 C1736 1.376 . S
C1736 H1723 0.930 . S
C1736 C1735 1.376 . S
C1736 C1737 1.388 . S
C1737 H1724 0.930 . S
C1737 C1736 1.388 . S
C1737 C1738 1.390 . S
C1738 C1737 1.390 . S
C1738 C1739 1.394 . S
C1738 C1744 1.465 . S
C1739 C1734 1.399 . S
C1739 C1738 1.394 . S
C1739 C1740 1.516 . S
C1740 C1739 1.516 . S
C1740 C1741 1.502 . S
C1740 C1742 1.561 . S
C1740 C1743 1.526 . S
C1741 H1725 0.959 . S
C1741 H1726 0.959 . S
C1741 H1727 0.961 . S
C1741 C1740 1.502 . S
C1742 H1728 0.960 . S
C1742 H1729 0.961 . S
C1742 H1730 0.959 . S
C1742 C1740 1.561 . S
C1743 C1740 1.526 . S
C1743 C1744 1.396 . S
C1743 C1748 1.390 . S
C1744 C1738 1.465 . S
C1744 C1743 1.396 . S
C1744 C1745 1.399 . S
C1745 H1731 0.929 . S
C1745 C1744 1.399 . S
C1745 C1746 1.385 . S
C1746 H1732 0.931 . S
C1746 C1745 1.385 . S
C1746 C1747 1.389 . S
C1747 C1746 1.389 . S
C1747 C1748 1.387 . S
C1748 H1733 0.930 . S
C1748 C1743 1.390 . S
C1748 C1747 1.387 . S
H1749 C1761 0.930 . S
H1750 C1763 0.930 . S
H1751 C1764 0.930 . S
H1752 C1768 0.959 . S
H1753 C1768 0.959 . S
H1754 C1768 0.961 . S
H1755 C1769 0.960 . S
H1756 C1769 0.961 . S
H1757 C1769 0.959 . S
H1758 C1772 0.929 . S
H1759 C1773 0.931 . S
H1760 C1775 0.930 . S
C1761 H1749 0.930 . S
C1761 C1762 1.399 . S
C1761 C1766 1.399 . S
C1762 C1761 1.399 . S
C1762 C1763 1.376 . S
C1763 H1750 0.930 . S
C1763 C1762 1.376 . S
C1763 C1764 1.388 . S
C1764 H1751 0.930 . S
C1764 C1763 1.388 . S
C1764 C1765 1.390 . S
C1765 C1764 1.390 . S
C1765 C1766 1.394 . S
C1765 C1771 1.465 . S
C1766 C1761 1.399 . S
C1766 C1765 1.394 . S
C1766 C1767 1.516 . S
C1767 C1766 1.516 . S
C1767 C1768 1.502 . S
C1767 C1769 1.561 . S
C1767 C1770 1.526 . S
C1768 H1752 0.959 . S
C1768 H1753 0.959 . S
C1768 H1754 0.961 . S
C1768 C1767 1.502 . S
C1769 H1755 0.960 . S
C1769 H1756 0.961 . S
C1769 H1757 0.959 . S
C1769 C1767 1.561 . S
C1770 C1767 1.526 . S
C1770 C1771 1.396 . S
C1770 C1775 1.390 . S
C1771 C1765 1.465 . S
C1771 C1770 1.396 . S
C1771 C1772 1.399 . S
C1772 H1758 0.929 . S
C1772 C1771 1.399 . S
C1772 C1773 1.385 . S
C1773 H1759 0.931 . S
C1773 C1772 1.385 . S
C1773 C1774 1.389 . S
C1774 C1773 1.389 . S
C1774 C1775 1.387 . S
C1775 H1760 0.930 . S
C1775 C1770 1.390 . S
C1775 C1774 1.387 . S
H1776 C1788 0.930 . S
H1777 C1790 0.930 . S
H1778 C1791 0.930 . S
H1779 C1795 0.959 . S
H1780 C1795 0.959 . S
H1781 C1795 0.961 . S
H1782 C1796 0.960 . S
H1783 C1796 0.961 . S
H1784 C1796 0.959 . S
H1785 C1799 0.929 . S
H1786 C1800 0.931 . S
H1787 C1802 0.930 . S
C1788 H1776 0.930 . S
C1788 C1789 1.399 . S
C1788 C1793 1.399 . S
C1789 C1788 1.399 . S
C1789 C1790 1.376 . S
C1790 H1777 0.930 . S
C1790 C1789 1.376 . S
C1790 C1791 1.388 . S
C1791 H1778 0.930 . S
C1791 C1790 1.388 . S
C1791 C1792 1.390 . S
C1792 C1791 1.390 . S
C1792 C1793 1.394 . S
C1792 C1798 1.465 . S
C1793 C1788 1.399 . S
C1793 C1792 1.394 . S
C1793 C1794 1.516 . S
C1794 C1793 1.516 . S
C1794 C1795 1.502 . S
C1794 C1796 1.561 . S
C1794 C1797 1.526 . S
C1795 H1779 0.959 . S
C1795 H1780 0.959 . S
C1795 H1781 0.961 . S
C1795 C1794 1.502 . S
C1796 H1782 0.960 . S
C1796 H1783 0.961 . S
C1796 H1784 0.959 . S
C1796 C1794 1.561 . S
C1797 C1794 1.526 . S
C1797 C1798 1.396 . S
C1797 C1802 1.390 . S
C1798 C1792 1.465 . S
C1798 C1797 1.396 . S
C1798 C1799 1.399 . S
C1799 H1785 0.929 . S
C1799 C1798 1.399 . S
C1799 C1800 1.385 . S
C1800 H1786 0.931 . S
C1800 C1799 1.385 . S
C1800 C1801 1.389 . S
C1801 C1800 1.389 . S
C1801 C1802 1.387 . S
C1802 H1787 0.930 . S
C1802 C1797 1.390 . S
C1802 C1801 1.387 . S
H1803 C1815 0.930 1_565 S
H1804 C1817 0.930 . S
H1805 C1818 0.930 . S
H1806 C1822 0.959 1_545 S
H1807 C1822 0.959 . S
H1808 C1822 0.961 . S
H1809 C1823 0.960 . S
H1810 C1823 0.961 . S
H1811 C1823 0.959 . S
H1812 C1826 0.929 . S
H1813 C1827 0.931 . S
H1814 C1829 0.930 . S
C1815 H1803 0.930 1_545 S
C1815 C1816 1.399 . S
C1815 C1820 1.399 . S
C1816 C1815 1.399 . S
C1816 C1817 1.376 . S
C1817 H1804 0.930 . S
C1817 C1816 1.376 . S
C1817 C1818 1.388 . S
C1818 H1805 0.930 . S
C1818 C1817 1.388 . S
C1818 C1819 1.390 . S
C1819 C1818 1.390 . S
C1819 C1820 1.394 . S
C1819 C1825 1.465 . S
C1820 C1815 1.399 . S
C1820 C1819 1.394 . S
C1820 C1821 1.516 1_545 S
C1821 C1820 1.516 1_565 S
C1821 C1822 1.502 . S
C1821 C1823 1.561 . S
C1821 C1824 1.526 1_565 S
C1822 H1806 0.959 1_565 S
C1822 H1807 0.959 . S
C1822 H1808 0.961 . S
C1822 C1821 1.502 . S
C1823 H1809 0.960 . S
C1823 H1810 0.961 . S
C1823 H1811 0.959 . S
C1823 C1821 1.561 . S
C1824 C1821 1.526 1_545 S
C1824 C1825 1.396 . S
C1824 C1829 1.390 1_545 S
C1825 C1819 1.465 . S
C1825 C1824 1.396 . S
C1825 C1826 1.399 . S
C1826 H1812 0.929 . S
C1826 C1825 1.399 . S
C1826 C1827 1.385 . S
C1827 H1813 0.931 . S
C1827 C1826 1.385 . S
C1827 C1828 1.389 . S
C1828 C1827 1.389 . S
C1828 C1829 1.387 1_545 S
C1829 H1814 0.930 . S
C1829 C1824 1.390 1_565 S
C1829 C1828 1.387 1_565 S
H1830 C1842 0.930 . S
H1831 C1844 0.930 . S
H1832 C1845 0.930 . S
H1833 C1849 0.959 . S
H1834 C1849 0.959 . S
H1835 C1849 0.961 . S
H1836 C1850 0.960 . S
H1837 C1850 0.961 . S
H1838 C1850 0.959 . S
H1839 C1853 0.929 . S
H1840 C1854 0.931 . S
H1841 C1856 0.930 . S
C1842 H1830 0.930 . S
C1842 C1843 1.399 . S
C1842 C1847 1.399 . S
C1843 C1842 1.399 . S
C1843 C1844 1.376 . S
C1844 H1831 0.930 . S
C1844 C1843 1.376 . S
C1844 C1845 1.388 . S
C1845 H1832 0.930 . S
C1845 C1844 1.388 . S
C1845 C1846 1.390 . S
C1846 C1845 1.390 . S
C1846 C1847 1.394 . S
C1846 C1852 1.465 . S
C1847 C1842 1.399 . S
C1847 C1846 1.394 . S
C1847 C1848 1.516 . S
C1848 C1847 1.516 . S
C1848 C1849 1.502 . S
C1848 C1850 1.561 . S
C1848 C1851 1.526 . S
C1849 H1833 0.959 . S
C1849 H1834 0.959 . S
C1849 H1835 0.961 . S
C1849 C1848 1.502 . S
C1850 H1836 0.960 . S
C1850 H1837 0.961 . S
C1850 H1838 0.959 . S
C1850 C1848 1.561 . S
C1851 C1848 1.526 . S
C1851 C1852 1.396 . S
C1851 C1856 1.390 . S
C1852 C1846 1.465 . S
C1852 C1851 1.396 . S
C1852 C1853 1.399 . S
C1853 H1839 0.929 . S
C1853 C1852 1.399 . S
C1853 C1854 1.385 . S
C1854 H1840 0.931 . S
C1854 C1853 1.385 . S
C1854 C1855 1.389 . S
C1855 C1854 1.389 . S
C1855 C1856 1.387 . S
C1856 H1841 0.930 . S
C1856 C1851 1.390 . S
C1856 C1855 1.387 . S
H1857 C1869 0.930 . S
H1858 C1871 0.930 . S
H1859 C1872 0.930 . S
H1860 C1876 0.959 . S
H1861 C1876 0.959 . S
H1862 C1876 0.961 . S
H1863 C1877 0.960 . S
H1864 C1877 0.961 . S
H1865 C1877 0.959 . S
H1866 C1880 0.929 . S
H1867 C1881 0.931 . S
H1868 C1883 0.930 . S
C1869 H1857 0.930 . S
C1869 C1870 1.399 . S
C1869 C1874 1.399 . S
C1870 C1869 1.399 . S
C1870 C1871 1.376 . S
C1871 H1858 0.930 . S
C1871 C1870 1.376 . S
C1871 C1872 1.388 . S
C1872 H1859 0.930 . S
C1872 C1871 1.388 . S
C1872 C1873 1.390 . S
C1873 C1872 1.390 . S
C1873 C1874 1.394 . S
C1873 C1879 1.465 . S
C1874 C1869 1.399 . S
C1874 C1873 1.394 . S
C1874 C1875 1.516 . S
C1875 C1874 1.516 . S
C1875 C1876 1.502 . S
C1875 C1877 1.561 . S
C1875 C1878 1.526 . S
C1876 H1860 0.959 . S
C1876 H1861 0.959 . S
C1876 H1862 0.961 . S
C1876 C1875 1.502 . S
C1877 H1863 0.960 . S
C1877 H1864 0.961 . S
C1877 H1865 0.959 . S
C1877 C1875 1.561 . S
C1878 C1875 1.526 . S
C1878 C1879 1.396 . S
C1878 C1883 1.390 . S
C1879 C1873 1.465 . S
C1879 C1878 1.396 . S
C1879 C1880 1.399 . S
C1880 H1866 0.929 . S
C1880 C1879 1.399 . S
C1880 C1881 1.385 . S
C1881 H1867 0.931 . S
C1881 C1880 1.385 . S
C1881 C1882 1.389 . S
C1882 C1881 1.389 . S
C1882 C1883 1.387 . S
C1883 H1868 0.930 . S
C1883 C1878 1.390 . S
C1883 C1882 1.387 . S
H1884 C1896 0.930 . S
H1885 C1898 0.930 . S
H1886 C1899 0.930 . S
H1887 C1903 0.959 . S
H1888 C1903 0.959 . S
H1889 C1903 0.961 . S
H1890 C1904 0.960 . S
H1891 C1904 0.961 . S
H1892 C1904 0.959 . S
H1893 C1907 0.929 . S
H1894 C1908 0.931 . S
H1895 C1910 0.930 . S
C1896 H1884 0.930 . S
C1896 C1897 1.399 . S
C1896 C1901 1.399 . S
C1897 C1896 1.399 . S
C1897 C1898 1.376 . S
C1898 H1885 0.930 . S
C1898 C1897 1.376 . S
C1898 C1899 1.388 . S
C1899 H1886 0.930 . S
C1899 C1898 1.388 . S
C1899 C1900 1.390 . S
C1900 C1899 1.390 . S
C1900 C1901 1.394 . S
C1900 C1906 1.465 . S
C1901 C1896 1.399 . S
C1901 C1900 1.394 . S
C1901 C1902 1.516 . S
C1902 C1901 1.516 . S
C1902 C1903 1.502 . S
C1902 C1904 1.561 . S
C1902 C1905 1.526 . S
C1903 H1887 0.959 . S
C1903 H1888 0.959 . S
C1903 H1889 0.961 . S
C1903 C1902 1.502 . S
C1904 H1890 0.960 . S
C1904 H1891 0.961 . S
C1904 H1892 0.959 . S
C1904 C1902 1.561 . S
C1905 C1902 1.526 . S
C1905 C1906 1.396 . S
C1905 C1910 1.390 . S
C1906 C1900 1.465 . S
C1906 C1905 1.396 . S
C1906 C1907 1.399 . S
C1907 H1893 0.929 . S
C1907 C1906 1.399 . S
C1907 C1908 1.385 . S
C1908 H1894 0.931 . S
C1908 C1907 1.385 . S
C1908 C1909 1.389 . S
C1909 C1908 1.389 . S
C1909 C1910 1.387 . S
C1910 H1895 0.930 . S
C1910 C1905 1.390 . S
C1910 C1909 1.387 . S
H1911 C1923 0.930 . S
H1912 C1925 0.930 1_565 S
H1913 C1926 0.930 . S
H1914 C1930 0.959 . S
H1915 C1930 0.959 . S
H1916 C1930 0.961 . S
H1917 C1931 0.960 . S
H1918 C1931 0.961 . S
H1919 C1931 0.959 . S
H1920 C1934 0.929 . S
H1921 C1935 0.931 . S
H1922 C1937 0.930 . S
C1923 H1911 0.930 . S
C1923 C1924 1.399 . S
C1923 C1928 1.399 . S
C1924 C1923 1.399 . S
C1924 C1925 1.376 . S
C1925 H1912 0.930 1_545 S
C1925 C1924 1.376 . S
C1925 C1926 1.388 1_545 S
C1926 H1913 0.930 . S
C1926 C1925 1.388 1_565 S
C1926 C1927 1.390 1_565 S
C1927 C1926 1.390 1_545 S
C1927 C1928 1.394 . S
C1927 C1933 1.465 . S
C1928 C1923 1.399 . S
C1928 C1927 1.394 . S
C1928 C1929 1.516 . S
C1929 C1928 1.516 . S
C1929 C1930 1.502 . S
C1929 C1931 1.561 . S
C1929 C1932 1.526 . S
C1930 H1914 0.959 . S
C1930 H1915 0.959 . S
C1930 H1916 0.961 . S
C1930 C1929 1.502 . S
C1931 H1917 0.960 . S
C1931 H1918 0.961 . S
C1931 H1919 0.959 . S
C1931 C1929 1.561 . S
C1932 C1929 1.526 . S
C1932 C1933 1.396 . S
C1932 C1937 1.390 . S
C1933 C1927 1.465 . S
C1933 C1932 1.396 . S
C1933 C1934 1.399 1_545 S
C1934 H1920 0.929 . S
C1934 C1933 1.399 1_565 S
C1934 C1935 1.385 . S
C1935 H1921 0.931 . S
C1935 C1934 1.385 . S
C1935 C1936 1.389 1_565 S
C1936 C1935 1.389 1_545 S
C1936 C1937 1.387 . S
C1937 H1922 0.930 . S
C1937 C1932 1.390 . S
C1937 C1936 1.387 . S
H1938 C1950 0.930 . S
H1939 C1952 0.930 . S
H1940 C1953 0.930 . S
H1941 C1957 0.959 . S
H1942 C1957 0.959 . S
H1943 C1957 0.961 . S
H1944 C1958 0.960 . S
H1945 C1958 0.961 . S
H1946 C1958 0.959 . S
H1947 C1961 0.929 . S
H1948 C1962 0.931 . S
H1949 C1964 0.930 . S
C1950 H1938 0.930 . S
C1950 C1951 1.399 . S
C1950 C1955 1.399 . S
C1951 C1950 1.399 . S
C1951 C1952 1.376 . S
C1952 H1939 0.930 . S
C1952 C1951 1.376 . S
C1952 C1953 1.388 . S
C1953 H1940 0.930 . S
C1953 C1952 1.388 . S
C1953 C1954 1.390 . S
C1954 C1953 1.390 . S
C1954 C1955 1.394 . S
C1954 C1960 1.465 . S
C1955 C1950 1.399 . S
C1955 C1954 1.394 . S
C1955 C1956 1.516 . S
C1956 C1955 1.516 . S
C1956 C1957 1.502 . S
C1956 C1958 1.561 . S
C1956 C1959 1.526 . S
C1957 H1941 0.959 . S
C1957 H1942 0.959 . S
C1957 H1943 0.961 . S
C1957 C1956 1.502 . S
C1958 H1944 0.960 . S
C1958 H1945 0.961 . S
C1958 H1946 0.959 . S
C1958 C1956 1.561 . S
C1959 C1956 1.526 . S
C1959 C1960 1.396 . S
C1959 C1964 1.390 . S
C1960 C1954 1.465 . S
C1960 C1959 1.396 . S
C1960 C1961 1.399 . S
C1961 H1947 0.929 . S
C1961 C1960 1.399 . S
C1961 C1962 1.385 . S
C1962 H1948 0.931 . S
C1962 C1961 1.385 . S
C1962 C1963 1.389 . S
C1963 C1962 1.389 . S
C1963 C1964 1.387 . S
C1964 H1949 0.930 . S
C1964 C1959 1.390 . S
C1964 C1963 1.387 . S
H1965 C1977 0.930 . S
H1966 C1979 0.930 . S
H1967 C1980 0.930 . S
H1968 C1984 0.959 . S
H1969 C1984 0.959 . S
H1970 C1984 0.961 . S
H1971 C1985 0.960 . S
H1972 C1985 0.961 . S
H1973 C1985 0.959 . S
H1974 C1988 0.929 . S
H1975 C1989 0.931 . S
H1976 C1991 0.930 . S
C1977 H1965 0.930 . S
C1977 C1978 1.399 . S
C1977 C1982 1.399 . S
C1978 C1977 1.399 . S
C1978 C1979 1.376 . S
C1979 H1966 0.930 . S
C1979 C1978 1.376 . S
C1979 C1980 1.388 . S
C1980 H1967 0.930 . S
C1980 C1979 1.388 . S
C1980 C1981 1.390 . S
C1981 C1980 1.390 . S
C1981 C1982 1.394 . S
C1981 C1987 1.465 . S
C1982 C1977 1.399 . S
C1982 C1981 1.394 . S
C1982 C1983 1.516 . S
C1983 C1982 1.516 . S
C1983 C1984 1.502 . S
C1983 C1985 1.561 . S
C1983 C1986 1.526 . S
C1984 H1968 0.959 . S
C1984 H1969 0.959 . S
C1984 H1970 0.961 . S
C1984 C1983 1.502 . S
C1985 H1971 0.960 . S
C1985 H1972 0.961 . S
C1985 H1973 0.959 . S
C1985 C1983 1.561 . S
C1986 C1983 1.526 . S
C1986 C1987 1.396 . S
C1986 C1991 1.390 . S
C1987 C1981 1.465 . S
C1987 C1986 1.396 . S
C1987 C1988 1.399 . S
C1988 H1974 0.929 . S
C1988 C1987 1.399 . S
C1988 C1989 1.385 . S
C1989 H1975 0.931 . S
C1989 C1988 1.385 . S
C1989 C1990 1.389 . S
C1990 C1989 1.389 . S
C1990 C1991 1.387 . S
C1991 H1976 0.930 . S
C1991 C1986 1.390 . S
C1991 C1990 1.387 . S
H1992 C2004 0.930 . S
H1993 C2006 0.930 . S
H1994 C2007 0.930 . S
H1995 C2011 0.959 . S
H1996 C2011 0.959 . S
H1997 C2011 0.961 . S
H1998 C2012 0.960 . S
H1999 C2012 0.961 . S
H2000 C2012 0.959 . S
H2001 C2015 0.929 . S
H2002 C2016 0.931 . S
H2003 C2018 0.930 . S
C2004 H1992 0.930 . S
C2004 C2005 1.399 . S
C2004 C2009 1.399 . S
C2005 C2004 1.399 . S
C2005 C2006 1.376 . S
C2006 H1993 0.930 . S
C2006 C2005 1.376 . S
C2006 C2007 1.388 . S
C2007 H1994 0.930 . S
C2007 C2006 1.388 . S
C2007 C2008 1.390 . S
C2008 C2007 1.390 . S
C2008 C2009 1.394 . S
C2008 C2014 1.465 . S
C2009 C2004 1.399 . S
C2009 C2008 1.394 . S
C2009 C2010 1.516 . S
C2010 C2009 1.516 . S
C2010 C2011 1.502 . S
C2010 C2012 1.561 . S
C2010 C2013 1.526 . S
C2011 H1995 0.959 . S
C2011 H1996 0.959 . S
C2011 H1997 0.961 . S
C2011 C2010 1.502 . S
C2012 H1998 0.960 . S
C2012 H1999 0.961 . S
C2012 H2000 0.959 . S
C2012 C2010 1.561 . S
C2013 C2010 1.526 . S
C2013 C2014 1.396 . S
C2013 C2018 1.390 . S
C2014 C2008 1.465 . S
C2014 C2013 1.396 . S
C2014 C2015 1.399 . S
C2015 H2001 0.929 . S
C2015 C2014 1.399 . S
C2015 C2016 1.385 . S
C2016 H2002 0.931 . S
C2016 C2015 1.385 . S
C2016 C2017 1.389 . S
C2017 C2016 1.389 . S
C2017 C2018 1.387 . S
C2018 H2003 0.930 . S
C2018 C2013 1.390 . S
C2018 C2017 1.387 . S
H2019 C2031 0.930 . S
H2020 C2033 0.930 1_554 S
H2021 C2034 0.930 . S
H2022 C2038 0.959 . S
H2023 C2038 0.959 . S
H2024 C2038 0.961 . S
H2025 C2039 0.960 . S
H2026 C2039 0.961 . S
H2027 C2039 0.959 . S
H2028 C2042 0.929 . S
H2029 C2043 0.931 . S
H2030 C2045 0.911 1_655 S
C2031 H2019 0.930 . S
C2031 C2032 1.399 . S
C2031 C2036 1.399 . S
C2032 C2031 1.399 . S
C2032 C2033 1.376 1_655 S
C2033 H2020 0.930 1_556 S
C2033 C2032 1.376 1_455 S
C2033 C2034 1.388 . S
C2034 H2021 0.930 . S
C2034 C2033 1.388 . S
C2034 C2035 1.390 . S
C2035 C2034 1.390 . S
C2035 C2036 1.394 1_455 S
C2035 C2041 1.465 . S
C2036 C2031 1.399 . S
C2036 C2035 1.394 1_655 S
C2036 C2037 1.516 . S
C2037 C2036 1.516 . S
C2037 C2038 1.502 . S
C2037 C2039 1.561 1_655 S
C2037 C2040 1.507 1_655 S
C2038 H2022 0.959 . S
C2038 H2023 0.959 . S
C2038 H2024 0.961 . S
C2038 C2037 1.502 . S
C2039 H2025 0.960 . S
C2039 H2026 0.961 . S
C2039 H2027 0.959 . S
C2039 C2037 1.561 1_455 S
C2040 C2037 1.507 1_455 S
C2040 C2041 1.415 . S
C2040 C2045 1.389 . S
C2041 C2035 1.465 . S
C2041 C2040 1.415 . S
C2041 C2042 1.399 . S
C2042 H2028 0.929 . S
C2042 C2041 1.399 . S
C2042 C2043 1.385 . S
C2043 H2029 0.931 . S
C2043 C2042 1.385 . S
C2043 C2044 1.389 . S
C2044 C2043 1.389 . S
C2044 C2045 1.413 . S
C2045 H2030 0.911 1_455 S
C2045 C2040 1.389 . S
C2045 C2044 1.413 . S
H2046 C2058 0.930 . S
H2047 C2060 0.930 . S
H2048 C2061 0.930 . S
H2049 C2065 0.959 . S
H2050 C2065 0.959 . S
H2051 C2065 0.961 . S
H2052 C2066 0.960 . S
H2053 C2066 0.961 . S
H2054 C2066 0.959 . S
H2055 C2069 0.929 . S
H2056 C2070 0.931 . S
H2057 C2072 0.930 . S
C2058 H2046 0.930 . S
C2058 C2059 1.399 . S
C2058 C2063 1.399 . S
C2059 C2058 1.399 . S
C2059 C2060 1.376 . S
C2060 H2047 0.930 . S
C2060 C2059 1.376 . S
C2060 C2061 1.388 . S
C2061 H2048 0.930 . S
C2061 C2060 1.388 . S
C2061 C2062 1.390 . S
C2062 C2061 1.390 . S
C2062 C2063 1.394 . S
C2062 C2068 1.465 . S
C2063 C2058 1.399 . S
C2063 C2062 1.394 . S
C2063 C2064 1.516 . S
C2064 C2063 1.516 . S
C2064 C2065 1.502 . S
C2064 C2066 1.561 . S
C2064 C2067 1.526 . S
C2065 H2049 0.959 . S
C2065 H2050 0.959 . S
C2065 H2051 0.961 . S
C2065 C2064 1.502 . S
C2066 H2052 0.960 . S
C2066 H2053 0.961 . S
C2066 H2054 0.959 . S
C2066 C2064 1.561 . S
C2067 C2064 1.526 . S
C2067 C2068 1.396 . S
C2067 C2072 1.390 . S
C2068 C2062 1.465 . S
C2068 C2067 1.396 . S
C2068 C2069 1.399 . S
C2069 H2055 0.929 . S
C2069 C2068 1.399 . S
C2069 C2070 1.385 . S
C2070 H2056 0.931 . S
C2070 C2069 1.385 . S
C2070 C2071 1.389 . S
C2071 C2070 1.389 . S
C2071 C2072 1.387 . S
C2072 H2057 0.930 . S
C2072 C2067 1.390 . S
C2072 C2071 1.387 . S
H2073 C2085 0.930 . S
H2074 C2087 0.930 . S
H2075 C2088 0.930 . S
H2076 C2092 0.959 . S
H2077 C2092 0.959 . S
H2078 C2092 0.961 . S
H2079 C2093 0.960 . S
H2080 C2093 0.961 . S
H2081 C2093 0.959 . S
H2082 C2096 0.929 . S
H2083 C2097 0.931 . S
H2084 C2099 0.930 . S
C2085 H2073 0.930 . S
C2085 C2086 1.399 . S
C2085 C2090 1.399 . S
C2086 C2085 1.399 . S
C2086 C2087 1.376 . S
C2087 H2074 0.930 . S
C2087 C2086 1.376 . S
C2087 C2088 1.388 . S
C2088 H2075 0.930 . S
C2088 C2087 1.388 . S
C2088 C2089 1.390 . S
C2089 C2088 1.390 . S
C2089 C2090 1.394 . S
C2089 C2095 1.465 . S
C2090 C2085 1.399 . S
C2090 C2089 1.394 . S
C2090 C2091 1.516 . S
C2091 C2090 1.516 . S
C2091 C2092 1.502 . S
C2091 C2093 1.561 1_455 S
C2091 C2094 1.526 . S
C2092 H2076 0.959 . S
C2092 H2077 0.959 . S
C2092 H2078 0.961 . S
C2092 C2091 1.502 . S
C2093 H2079 0.960 . S
C2093 H2080 0.961 . S
C2093 H2081 0.959 . S
C2093 C2091 1.561 1_655 S
C2094 C2091 1.526 . S
C2094 C2095 1.396 . S
C2094 C2099 1.390 . S
C2095 C2089 1.465 . S
C2095 C2094 1.396 . S
C2095 C2096 1.399 . S
C2096 H2082 0.929 . S
C2096 C2095 1.399 . S
C2096 C2097 1.385 . S
C2097 H2083 0.931 . S
C2097 C2096 1.385 . S
C2097 C2098 1.389 . S
C2098 C2097 1.389 . S
C2098 C2099 1.387 . S
C2099 H2084 0.930 . S
C2099 C2094 1.390 . S
C2099 C2098 1.387 . S
H2100 C2112 0.930 . S
H2101 C2114 0.930 . S
H2102 C2115 0.930 . S
H2103 C2119 0.959 . S
H2104 C2119 0.959 . S
H2105 C2119 0.961 . S
H2106 C2120 0.960 . S
H2107 C2120 0.961 . S
H2108 C2120 0.959 . S
H2109 C2123 0.929 . S
H2110 C2124 0.931 . S
H2111 C2126 0.930 . S
C2112 H2100 0.930 . S
C2112 C2113 1.399 . S
C2112 C2117 1.399 . S
C2113 C2112 1.399 . S
C2113 C2114 1.376 . S
C2114 H2101 0.930 . S
C2114 C2113 1.376 . S
C2114 C2115 1.388 . S
C2115 H2102 0.930 . S
C2115 C2114 1.388 . S
C2115 C2116 1.390 . S
C2116 C2115 1.390 . S
C2116 C2117 1.394 . S
C2116 C2122 1.465 . S
C2117 C2112 1.399 . S
C2117 C2116 1.394 . S
C2117 C2118 1.516 . S
C2118 C2117 1.516 . S
C2118 C2119 1.502 . S
C2118 C2120 1.561 . S
C2118 C2121 1.526 . S
C2119 H2103 0.959 . S
C2119 H2104 0.959 . S
C2119 H2105 0.961 . S
C2119 C2118 1.502 . S
C2120 H2106 0.960 . S
C2120 H2107 0.961 . S
C2120 H2108 0.959 . S
C2120 C2118 1.561 . S
C2121 C2118 1.526 . S
C2121 C2122 1.396 . S
C2121 C2126 1.390 . S
C2122 C2116 1.465 . S
C2122 C2121 1.396 . S
C2122 C2123 1.399 . S
C2123 H2109 0.929 . S
C2123 C2122 1.399 . S
C2123 C2124 1.385 . S
C2124 H2110 0.931 . S
C2124 C2123 1.385 . S
C2124 C2125 1.389 . S
C2125 C2124 1.389 . S
C2125 C2126 1.387 . S
C2126 H2111 0.930 . S
C2126 C2121 1.390 . S
C2126 C2125 1.387 . S
H2127 C2139 0.930 . S
H2128 C2141 0.930 . S
H2129 C2142 0.930 . S
H2130 C2146 0.959 . S
H2131 C2146 0.959 . S
H2132 C2146 0.961 . S
H2133 C2147 0.960 . S
H2134 C2147 0.961 . S
H2135 C2147 0.959 . S
H2136 C2150 0.929 . S
H2137 C2151 0.931 . S
H2138 C2153 0.930 . S
C2139 H2127 0.930 . S
C2139 C2140 1.399 . S
C2139 C2144 1.399 . S
C2140 C2139 1.399 . S
C2140 C2141 1.376 . S
C2141 H2128 0.930 . S
C2141 C2140 1.376 . S
C2141 C2142 1.388 . S
C2142 H2129 0.930 . S
C2142 C2141 1.388 . S
C2142 C2143 1.390 . S
C2143 C2142 1.390 . S
C2143 C2144 1.394 . S
C2143 C2149 1.465 . S
C2144 C2139 1.399 . S
C2144 C2143 1.394 . S
C2144 C2145 1.516 . S
C2145 C2144 1.516 . S
C2145 C2146 1.502 . S
C2145 C2147 1.561 . S
C2145 C2148 1.526 . S
C2146 H2130 0.959 . S
C2146 H2131 0.959 . S
C2146 H2132 0.961 . S
C2146 C2145 1.502 . S
C2147 H2133 0.960 . S
C2147 H2134 0.961 . S
C2147 H2135 0.959 . S
C2147 C2145 1.561 . S
C2148 C2145 1.526 . S
C2148 C2149 1.396 . S
C2148 C2153 1.390 . S
C2149 C2143 1.465 . S
C2149 C2148 1.396 . S
C2149 C2150 1.399 . S
C2150 H2136 0.929 . S
C2150 C2149 1.399 . S
C2150 C2151 1.385 . S
C2151 H2137 0.931 . S
C2151 C2150 1.385 . S
C2151 C2152 1.389 . S
C2152 C2151 1.389 . S
C2152 C2153 1.387 . S
C2153 H2138 0.930 . S
C2153 C2148 1.390 . S
C2153 C2152 1.387 . S
H2154 C2166 0.930 . S
H2155 C2168 0.930 . S
H2156 C2169 0.930 . S
H2157 C2173 0.959 . S
H2158 C2173 0.959 . S
H2159 C2173 0.961 . S
H2160 C2174 0.960 . S
H2161 C2174 0.961 . S
H2162 C2174 0.959 . S
H2163 C2177 0.929 . S
H2164 C2178 0.931 . S
H2165 C2180 0.930 . S
C2166 H2154 0.930 . S
C2166 C2167 1.399 . S
C2166 C2171 1.399 . S
C2167 C2166 1.399 . S
C2167 C2168 1.376 . S
C2168 H2155 0.930 . S
C2168 C2167 1.376 . S
C2168 C2169 1.388 . S
C2169 H2156 0.930 . S
C2169 C2168 1.388 . S
C2169 C2170 1.390 . S
C2170 C2169 1.390 . S
C2170 C2171 1.394 . S
C2170 C2176 1.465 . S
C2171 C2166 1.399 . S
C2171 C2170 1.394 . S
C2171 C2172 1.516 . S
C2172 C2171 1.516 . S
C2172 C2173 1.502 . S
C2172 C2174 1.561 . S
C2172 C2175 1.526 . S
C2173 H2157 0.959 . S
C2173 H2158 0.959 . S
C2173 H2159 0.961 . S
C2173 C2172 1.502 . S
C2174 H2160 0.960 . S
C2174 H2161 0.961 . S
C2174 H2162 0.959 . S
C2174 C2172 1.561 . S
C2175 C2172 1.526 . S
C2175 C2176 1.396 . S
C2175 C2180 1.390 . S
C2176 C2170 1.465 . S
C2176 C2175 1.396 . S
C2176 C2177 1.399 . S
C2177 H2163 0.929 . S
C2177 C2176 1.399 . S
C2177 C2178 1.385 . S
C2178 H2164 0.931 . S
C2178 C2177 1.385 . S
C2178 C2179 1.389 . S
C2179 C2178 1.389 . S
C2179 C2180 1.387 . S
C2180 H2165 0.930 . S
C2180 C2175 1.390 . S
C2180 C2179 1.387 . S
H2181 C2193 0.930 . S
H2182 C2195 0.930 . S
H2183 C2196 0.930 . S
H2184 C2200 0.959 . S
H2185 C2200 0.959 . S
H2186 C2200 0.961 . S
H2187 C2201 0.960 . S
H2188 C2201 0.961 . S
H2189 C2201 0.959 . S
H2190 C2204 0.929 . S
H2191 C2205 0.931 . S
H2192 C2207 0.930 . S
C2193 H2181 0.930 . S
C2193 C2194 1.399 . S
C2193 C2198 1.399 . S
C2194 C2193 1.399 . S
C2194 C2195 1.376 . S
C2195 H2182 0.930 . S
C2195 C2194 1.376 . S
C2195 C2196 1.388 . S
C2196 H2183 0.930 . S
C2196 C2195 1.388 . S
C2196 C2197 1.390 . S
C2197 C2196 1.390 . S
C2197 C2198 1.394 . S
C2197 C2203 1.465 . S
C2198 C2193 1.399 . S
C2198 C2197 1.394 . S
C2198 C2199 1.516 . S
C2199 C2198 1.516 . S
C2199 C2200 1.502 . S
C2199 C2201 1.561 . S
C2199 C2202 1.526 . S
C2200 H2184 0.959 . S
C2200 H2185 0.959 . S
C2200 H2186 0.961 . S
C2200 C2199 1.502 . S
C2201 H2187 0.960 . S
C2201 H2188 0.961 . S
C2201 H2189 0.959 . S
C2201 C2199 1.561 . S
C2202 C2199 1.526 . S
C2202 C2203 1.396 . S
C2202 C2207 1.390 . S
C2203 C2197 1.465 . S
C2203 C2202 1.396 . S
C2203 C2204 1.399 . S
C2204 H2190 0.929 . S
C2204 C2203 1.399 . S
C2204 C2205 1.385 . S
C2205 H2191 0.931 . S
C2205 C2204 1.385 . S
C2205 C2206 1.389 . S
C2206 C2205 1.389 . S
C2206 C2207 1.387 . S
C2207 H2192 0.930 . S
C2207 C2202 1.390 . S
C2207 C2206 1.387 . S
H2208 C2220 0.930 . S
H2209 C2222 0.930 . S
H2210 C2223 0.930 . S
H2211 C2227 0.959 . S
H2212 C2227 0.959 . S
H2213 C2227 0.961 . S
H2214 C2228 0.960 . S
H2215 C2228 0.961 . S
H2216 C2228 0.959 . S
H2217 C2231 0.929 . S
H2218 C2232 0.931 . S
H2219 C2234 0.930 . S
C2220 H2208 0.930 . S
C2220 C2221 1.399 . S
C2220 C2225 1.399 . S
C2221 C2220 1.399 . S
C2221 C2222 1.376 . S
C2222 H2209 0.930 . S
C2222 C2221 1.376 . S
C2222 C2223 1.388 . S
C2223 H2210 0.930 . S
C2223 C2222 1.388 . S
C2223 C2224 1.390 . S
C2224 C2223 1.390 . S
C2224 C2225 1.394 . S
C2224 C2230 1.465 . S
C2225 C2220 1.399 . S
C2225 C2224 1.394 . S
C2225 C2226 1.516 . S
C2226 C2225 1.516 . S
C2226 C2227 1.502 . S
C2226 C2228 1.561 . S
C2226 C2229 1.526 . S
C2227 H2211 0.959 . S
C2227 H2212 0.959 . S
C2227 H2213 0.961 . S
C2227 C2226 1.502 . S
C2228 H2214 0.960 . S
C2228 H2215 0.961 . S
C2228 H2216 0.959 . S
C2228 C2226 1.561 . S
C2229 C2226 1.526 . S
C2229 C2230 1.396 . S
C2229 C2234 1.390 . S
C2230 C2224 1.465 . S
C2230 C2229 1.396 . S
C2230 C2231 1.399 . S
C2231 H2217 0.929 . S
C2231 C2230 1.399 . S
C2231 C2232 1.385 . S
C2232 H2218 0.931 . S
C2232 C2231 1.385 . S
C2232 C2233 1.389 . S
C2233 C2232 1.389 . S
C2233 C2234 1.387 . S
C2234 H2219 0.930 . S
C2234 C2229 1.390 . S
C2234 C2233 1.387 . S
H2235 C2247 0.930 . S
H2236 C2249 0.930 . S
H2237 C2250 0.930 . S
H2238 C2254 0.959 . S
H2239 C2254 0.959 . S
H2240 C2254 0.961 . S
H2241 C2255 0.960 . S
H2242 C2255 0.961 . S
H2243 C2255 0.959 . S
H2244 C2258 0.929 . S
H2245 C2259 0.931 . S
H2246 C2261 0.930 . S
C2247 H2235 0.930 . S
C2247 C2248 1.399 . S
C2247 C2252 1.399 . S
C2248 C2247 1.399 . S
C2248 C2249 1.376 . S
C2249 H2236 0.930 . S
C2249 C2248 1.376 . S
C2249 C2250 1.388 . S
C2250 H2237 0.930 . S
C2250 C2249 1.388 . S
C2250 C2251 1.390 . S
C2251 C2250 1.390 . S
C2251 C2252 1.394 . S
C2251 C2257 1.465 . S
C2252 C2247 1.399 . S
C2252 C2251 1.394 . S
C2252 C2253 1.516 . S
C2253 C2252 1.516 . S
C2253 C2254 1.502 . S
C2253 C2255 1.561 . S
C2253 C2256 1.526 . S
C2254 H2238 0.959 . S
C2254 H2239 0.959 . S
C2254 H2240 0.961 . S
C2254 C2253 1.502 . S
C2255 H2241 0.960 . S
C2255 H2242 0.961 . S
C2255 H2243 0.959 . S
C2255 C2253 1.561 . S
C2256 C2253 1.526 . S
C2256 C2257 1.396 . S
C2256 C2261 1.390 . S
C2257 C2251 1.465 . S
C2257 C2256 1.396 . S
C2257 C2258 1.399 . S
C2258 H2244 0.929 . S
C2258 C2257 1.399 . S
C2258 C2259 1.385 . S
C2259 H2245 0.931 . S
C2259 C2258 1.385 . S
C2259 C2260 1.389 . S
C2260 C2259 1.389 . S
C2260 C2261 1.387 . S
C2261 H2246 0.930 . S
C2261 C2256 1.390 . S
C2261 C2260 1.387 . S
H2262 C2274 0.930 . S
H2263 C2276 0.930 . S
H2264 C2277 0.930 . S
H2265 C2281 0.959 . S
H2266 C2281 0.959 . S
H2267 C2281 0.961 . S
H2268 C2282 0.960 . S
H2269 C2282 0.961 . S
H2270 C2282 0.959 . S
H2271 C2285 0.929 . S
H2272 C2286 0.931 . S
H2273 C2288 0.930 . S
C2274 H2262 0.930 . S
C2274 C2275 1.399 . S
C2274 C2279 1.399 . S
C2275 C2274 1.399 . S
C2275 C2276 1.376 . S
C2276 H2263 0.930 . S
C2276 C2275 1.376 . S
C2276 C2277 1.388 . S
C2277 H2264 0.930 . S
C2277 C2276 1.388 . S
C2277 C2278 1.390 . S
C2278 C2277 1.390 . S
C2278 C2279 1.394 . S
C2278 C2284 1.465 . S
C2279 C2274 1.399 . S
C2279 C2278 1.394 . S
C2279 C2280 1.516 . S
C2280 C2279 1.516 . S
C2280 C2281 1.502 . S
C2280 C2282 1.561 . S
C2280 C2283 1.526 . S
C2281 H2265 0.959 . S
C2281 H2266 0.959 . S
C2281 H2267 0.961 . S
C2281 C2280 1.502 . S
C2282 H2268 0.960 . S
C2282 H2269 0.961 . S
C2282 H2270 0.959 . S
C2282 C2280 1.561 . S
C2283 C2280 1.526 . S
C2283 C2284 1.396 . S
C2283 C2288 1.390 . S
C2284 C2278 1.465 . S
C2284 C2283 1.396 . S
C2284 C2285 1.399 . S
C2285 H2271 0.929 . S
C2285 C2284 1.399 . S
C2285 C2286 1.385 . S
C2286 H2272 0.931 . S
C2286 C2285 1.385 . S
C2286 C2287 1.389 . S
C2287 C2286 1.389 . S
C2287 C2288 1.387 . S
C2288 H2273 0.930 . S
C2288 C2283 1.390 . S
C2288 C2287 1.387 . S
H2289 C2301 0.930 . S
H2290 C2303 0.930 . S
H2291 C2304 0.930 . S
H2292 C2308 0.959 . S
H2293 C2308 0.959 . S
H2294 C2308 0.961 . S
H2295 C2309 0.960 . S
H2296 C2309 0.961 . S
H2297 C2309 0.959 . S
H2298 C2312 0.929 . S
H2299 C2313 0.931 . S
H2300 C2315 0.930 . S
C2301 H2289 0.930 . S
C2301 C2302 1.399 . S
C2301 C2306 1.399 . S
C2302 C2301 1.399 . S
C2302 C2303 1.376 . S
C2303 H2290 0.930 . S
C2303 C2302 1.376 . S
C2303 C2304 1.388 . S
C2304 H2291 0.930 . S
C2304 C2303 1.388 . S
C2304 C2305 1.390 . S
C2305 C2304 1.390 . S
C2305 C2306 1.394 . S
C2305 C2311 1.465 . S
C2306 C2301 1.399 . S
C2306 C2305 1.394 . S
C2306 C2307 1.516 . S
C2307 C2306 1.516 . S
C2307 C2308 1.502 . S
C2307 C2309 1.561 . S
C2307 C2310 1.526 . S
C2308 H2292 0.959 . S
C2308 H2293 0.959 . S
C2308 H2294 0.961 . S
C2308 C2307 1.502 . S
C2309 H2295 0.960 . S
C2309 H2296 0.961 . S
C2309 H2297 0.959 . S
C2309 C2307 1.561 . S
C2310 C2307 1.526 . S
C2310 C2311 1.396 . S
C2310 C2315 1.390 . S
C2311 C2305 1.465 . S
C2311 C2310 1.396 . S
C2311 C2312 1.399 . S
C2312 H2298 0.929 . S
C2312 C2311 1.399 . S
C2312 C2313 1.385 . S
C2313 H2299 0.931 . S
C2313 C2312 1.385 . S
C2313 C2314 1.389 . S
C2314 C2313 1.389 . S
C2314 C2315 1.387 . S
C2315 H2300 0.930 . S
C2315 C2310 1.390 . S
C2315 C2314 1.387 . S
H2316 C2328 0.930 1_554 S
H2317 C2330 0.930 . S
H2318 C2331 0.930 . S
H2319 C2335 0.959 . S
H2320 C2335 0.959 . S
H2321 C2335 0.961 . S
H2322 C2336 0.960 . S
H2323 C2336 0.961 . S
H2324 C2336 0.959 . S
H2325 C2339 0.929 . S
H2326 C2340 0.931 . S
H2327 C2342 0.930 . S
C2328 H2316 0.930 1_556 S
C2328 C2329 1.399 . S
C2328 C2333 1.399 . S
C2329 C2328 1.399 . S
C2329 C2330 1.376 . S
C2330 H2317 0.930 . S
C2330 C2329 1.376 . S
C2330 C2331 1.388 . S
C2331 H2318 0.930 . S
C2331 C2330 1.388 . S
C2331 C2332 1.390 . S
C2332 C2331 1.390 . S
C2332 C2333 1.394 . S
C2332 C2338 1.465 . S
C2333 C2328 1.399 . S
C2333 C2332 1.394 . S
C2333 C2334 1.516 1_556 S
C2334 C2333 1.516 1_554 S
C2334 C2335 1.502 . S
C2334 C2336 1.561 . S
C2334 C2337 1.526 . S
C2335 H2319 0.959 . S
C2335 H2320 0.959 . S
C2335 H2321 0.961 . S
C2335 C2334 1.502 . S
C2336 H2322 0.960 . S
C2336 H2323 0.961 . S
C2336 H2324 0.959 . S
C2336 C2334 1.561 . S
C2337 C2334 1.526 . S
C2337 C2338 1.396 1_554 S
C2337 C2342 1.390 . S
C2338 C2332 1.465 . S
C2338 C2337 1.396 1_556 S
C2338 C2339 1.399 . S
C2339 H2325 0.929 . S
C2339 C2338 1.399 . S
C2339 C2340 1.385 . S
C2340 H2326 0.931 . S
C2340 C2339 1.385 . S
C2340 C2341 1.389 . S
C2341 C2340 1.389 . S
C2341 C2342 1.387 1_556 S
C2342 H2327 0.930 . S
C2342 C2337 1.390 . S
C2342 C2341 1.387 1_554 S
H2343 C2355 0.930 . S
H2344 C2357 0.930 . S
H2345 C2358 0.930 . S
H2346 C2362 0.959 . S
H2347 C2362 0.959 . S
H2348 C2362 0.961 . S
H2349 C2363 0.960 . S
H2350 C2363 0.961 . S
H2351 C2363 0.959 . S
H2352 C2366 0.929 . S
H2353 C2367 0.931 . S
H2354 C2369 0.930 . S
C2355 H2343 0.930 . S
C2355 C2356 1.399 . S
C2355 C2360 1.399 . S
C2356 C2355 1.399 . S
C2356 C2357 1.376 . S
C2357 H2344 0.930 . S
C2357 C2356 1.376 . S
C2357 C2358 1.388 . S
C2358 H2345 0.930 . S
C2358 C2357 1.388 . S
C2358 C2359 1.390 . S
C2359 C2358 1.390 . S
C2359 C2360 1.394 . S
C2359 C2365 1.465 . S
C2360 C2355 1.399 . S
C2360 C2359 1.394 . S
C2360 C2361 1.516 . S
C2361 C2360 1.516 . S
C2361 C2362 1.502 . S
C2361 C2363 1.561 . S
C2361 C2364 1.526 . S
C2362 H2346 0.959 . S
C2362 H2347 0.959 . S
C2362 H2348 0.961 . S
C2362 C2361 1.502 . S
C2363 H2349 0.960 . S
C2363 H2350 0.961 . S
C2363 H2351 0.959 . S
C2363 C2361 1.561 . S
C2364 C2361 1.526 . S
C2364 C2365 1.396 . S
C2364 C2369 1.390 . S
C2365 C2359 1.465 . S
C2365 C2364 1.396 . S
C2365 C2366 1.399 . S
C2366 H2352 0.929 . S
C2366 C2365 1.399 . S
C2366 C2367 1.385 . S
C2367 H2353 0.931 . S
C2367 C2366 1.385 . S
C2367 C2368 1.389 . S
C2368 C2367 1.389 . S
C2368 C2369 1.387 . S
C2369 H2354 0.930 . S
C2369 C2364 1.390 . S
C2369 C2368 1.387 . S
H2370 C2382 0.930 . S
H2371 C2384 0.930 . S
H2372 C2385 0.930 . S
H2373 C2389 0.958 . S
H2374 C2389 0.959 . S
H2375 C2389 0.961 . S
H2376 C2390 0.960 . S
H2377 C2390 0.961 . S
H2378 C2390 0.959 . S
H2379 C2393 0.929 . S
H2380 C2394 0.931 . S
H2381 C2396 0.930 1_556 S
C2382 H2370 0.930 . S
C2382 C2383 1.399 . S
C2382 C2387 1.399 . S
C2383 C2382 1.399 . S
C2383 C2384 1.376 . S
C2384 H2371 0.930 . S
C2384 C2383 1.376 . S
C2384 C2385 1.388 . S
C2385 H2372 0.930 . S
C2385 C2384 1.388 . S
C2385 C2386 1.390 . S
C2386 C2385 1.390 . S
C2386 C2387 1.394 . S
C2386 C2392 1.465 . S
C2387 C2382 1.399 . S
C2387 C2386 1.394 . S
C2387 C2388 1.516 1_554 S
C2388 C2387 1.516 1_556 S
C2388 C2389 1.502 . S
C2388 C2390 1.561 . S
C2388 C2391 1.526 1_556 S
C2389 H2373 0.958 . S
C2389 H2374 0.959 . S
C2389 H2375 0.961 . S
C2389 C2388 1.502 . S
C2390 H2376 0.960 . S
C2390 H2377 0.961 . S
C2390 H2378 0.959 . S
C2390 C2388 1.561 . S
C2391 C2388 1.526 1_554 S
C2391 C2392 1.396 . S
C2391 C2396 1.390 . S
C2392 C2386 1.465 . S
C2392 C2391 1.396 . S
C2392 C2393 1.399 . S
C2393 H2379 0.929 . S
C2393 C2392 1.399 . S
C2393 C2394 1.385 . S
C2394 H2380 0.931 . S
C2394 C2393 1.385 . S
C2394 C2395 1.389 . S
C2395 C2394 1.389 . S
C2395 C2396 1.387 . S
C2396 H2381 0.930 1_554 S
C2396 C2391 1.390 . S
C2396 C2395 1.387 . S
H2397 C2409 0.930 . S
H2398 C2411 0.930 . S
H2399 C2412 0.930 . S
H2400 C2416 0.959 . S
H2401 C2416 0.959 . S
H2402 C2416 0.961 . S
H2403 C2417 0.960 . S
H2404 C2417 0.961 . S
H2405 C2417 0.959 . S
H2406 C2420 0.929 . S
H2407 C2421 0.931 . S
H2408 C2423 0.930 . S
C2409 H2397 0.930 . S
C2409 C2410 1.399 . S
C2409 C2414 1.399 . S
C2410 C2409 1.399 . S
C2410 C2411 1.376 1_554 S
C2411 H2398 0.930 . S
C2411 C2410 1.376 1_556 S
C2411 C2412 1.388 . S
C2412 H2399 0.930 . S
C2412 C2411 1.388 . S
C2412 C2413 1.390 1_556 S
C2413 C2412 1.390 1_554 S
C2413 C2414 1.394 . S
C2413 C2419 1.465 . S
C2414 C2409 1.399 . S
C2414 C2413 1.394 . S
C2414 C2415 1.516 . S
C2415 C2414 1.516 . S
C2415 C2416 1.502 . S
C2415 C2417 1.561 . S
C2415 C2418 1.526 . S
C2416 H2400 0.959 . S
C2416 H2401 0.959 . S
C2416 H2402 0.961 . S
C2416 C2415 1.502 . S
C2417 H2403 0.960 . S
C2417 H2404 0.961 . S
C2417 H2405 0.959 . S
C2417 C2415 1.561 . S
C2418 C2415 1.526 . S
C2418 C2419 1.396 . S
C2418 C2423 1.390 . S
C2419 C2413 1.465 . S
C2419 C2418 1.396 . S
C2419 C2420 1.399 1_554 S
C2420 H2406 0.929 . S
C2420 C2419 1.399 1_556 S
C2420 C2421 1.385 . S
C2421 H2407 0.931 . S
C2421 C2420 1.385 . S
C2421 C2422 1.389 1_556 S
C2422 C2421 1.389 1_554 S
C2422 C2423 1.387 . S
C2423 H2408 0.930 . S
C2423 C2418 1.390 . S
C2423 C2422 1.387 . S
C1153 C971 1.426 . S
C1141 C331 1.438 . S
C1180 C979 1.244 . S
C1168 C380 1.513 . S
C1195 C421 1.429 . S
C1207 C999 1.419 . S
C1234 C1013 1.518 . S
C1222 C260 1.497 1_655 S
C1261 C1028 1.527 . S
C1249 C620 1.518 . S
C1288 C1042 1.509 . S
C1276 C740 1.485 . S
C1303 C680 1.551 . S
C1315 C1056 1.557 . S
C1342 C1062 1.454 . S
C1330 C571 1.471 . S
C1357 C691 1.500 . S
C1369 C1076 1.505 . S
C1396 C1097 1.499 . S
C1384 C541 1.540 . S
C1411 C601 1.450 . S
C1423 C1077 1.159 . S
C1450 C1098 1.530 . S
C1438 C721 1.535 . S
C1465 C451 1.452 . S
C1477 C1105 1.144 . S
C1492 C241 1.495 . S
C1504 C1111 1.480 . S
C1519 C320 1.453 . S
C1531 C1104 1.485 . S
C1546 C391 1.481 . S
C1558 C1112 1.480 . S
C1573 C211 1.442 . S
C1585 C1006 1.460 . S
C1600 C841 1.490 . S
C1612 C1007 1.207 . S
C1639 C964 1.503 . S
C1627 C901 1.535 . S
C1666 C985 1.404 . S
C1654 C500 1.424 . S
C1681 C271 1.438 . S
C1693 C1020 1.472 . S
C1720 C1070 1.525 . S
C1708 C661 1.484 . S
C1747 C1021 1.202 . S
C1735 C560 1.413 . S
C1774 C1049 1.262 . S
C1762 C751 1.551 . S
C1801 C1055 1.444 . S
C1789 C871 1.456 . S
C1816 C920 1.526 . S
C1828 C1063 1.326 . S
C1843 C481 1.426 . S
C1855 C1027 1.416 . S
C1882 C1041 1.472 . S
C1870 C800 1.480 . S
C1897 C200 1.521 . S
C1909 C1000 1.526 . S
C1936 C1014 1.510 . S
C1924 C20 1.478 . S
C1963 C972 1.556 . S
C1951 C80 1.559 . S
C1990 C978 1.435 . S
C1978 C151 1.457 . S
C2005 C91 1.458 . S
C2017 C1090 1.471 . S
C2032 C121 1.547 . S
C2044 C1083 1.521 . S
C2059 C181 1.467 . S
C2071 C1091 1.244 . S
C2086 C1 1.503 . S
C2098 C1084 1.534 . S
C2125 C1119 1.267 . S
C2113 C511 1.435 . S
C2152 C1125 1.504 . S
C2140 C781 1.470 . S
C2179 C1118 1.448 . S
C2167 C860 1.503 . S
C2194 C931 1.437 . S
C2206 C1126 1.471 . S
C2221 C631 1.491 . S
C2233 C1034 1.435 . S
C2260 C1035 1.209 . S
C2248 C301 1.491 . S
C2287 C1048 1.497 . S
C2275 C361 1.537 . S
C2314 C1069 1.458 . S
C2302 C440 1.460 . S
C2329 C811 1.459 . S
C2341 C992 1.442 1_556 S
C2368 C986 1.521 . S
C2356 C61 1.517 . S
C2383 C140 1.426 . S
C2395 C993 1.240 . S
C2422 C965 1.233 . S
C2410 C31 1.533 . S
