# Generated by pormake.
# Topology zzz, (3,6)-cn, num edge types: 1
# Building blocks:
#     Node 0, Type 0, BuildingBlock: BETDIP_clean_linker_0, # of connection points: 3
#     Node 1, Type 0, BuildingBlock: BETDIP_clean_linker_0, # of connection points: 3
#     Node 2, Type 0, BuildingBlock: BETDIP_clean_linker_0, # of connection points: 3
#     Node 3, Type 0, BuildingBlock: BETDIP_clean_linker_0, # of connection points: 3
#     Node 4, Type 0, BuildingBlock: BETDIP_clean_linker_0, # of connection points: 3
#     Node 5, Type 0, BuildingBlock: BETDIP_clean_linker_0, # of connection points: 3
#     Node 6, Type 0, BuildingBlock: BETDIP_clean_linker_0, # of connection points: 3
#     Node 7, Type 0, BuildingBlock: BETDIP_clean_linker_0, # of connection points: 3
#     Node 8, Type 1, BuildingBlock: JUFBIX_clean_sbu_0, # of connection points: 6
#     Node 9, Type 1, BuildingBlock: JUFBIX_clean_sbu_0, # of connection points: 6
#     Node 10, Type 1, BuildingBlock: JUFBIX_clean_sbu_0, # of connection points: 6
#     Node 11, Type 1, BuildingBlock: JUFBIX_clean_sbu_0, # of connection points: 6
#     Edge 12, Type (0, 1), BuildingBlock: OJICUG_clean_linker_0, # of connection points: 2
#     Edge 13, Type (0, 1), BuildingBlock: OJICUG_clean_linker_0, # of connection points: 2
#     Edge 14, Type (0, 1), BuildingBlock: OJICUG_clean_linker_0, # of connection points: 2
#     Edge 15, Type (0, 1), BuildingBlock: OJICUG_clean_linker_0, # of connection points: 2
#     Edge 16, Type (0, 1), BuildingBlock: OJICUG_clean_linker_0, # of connection points: 2
#     Edge 17, Type (0, 1), BuildingBlock: OJICUG_clean_linker_0, # of connection points: 2
#     Edge 18, Type (0, 1), BuildingBlock: OJICUG_clean_linker_0, # of connection points: 2
#     Edge 19, Type (0, 1), BuildingBlock: OJICUG_clean_linker_0, # of connection points: 2
#     Edge 20, Type (0, 1), BuildingBlock: OJICUG_clean_linker_0, # of connection points: 2
#     Edge 21, Type (0, 1), BuildingBlock: OJICUG_clean_linker_0, # of connection points: 2
#     Edge 22, Type (0, 1), BuildingBlock: OJICUG_clean_linker_0, # of connection points: 2
#     Edge 23, Type (0, 1), BuildingBlock: OJICUG_clean_linker_0, # of connection points: 2
#     Edge 24, Type (0, 1), BuildingBlock: OJICUG_clean_linker_0, # of connection points: 2
#     Edge 25, Type (0, 1), BuildingBlock: OJICUG_clean_linker_0, # of connection points: 2
#     Edge 26, Type (0, 1), BuildingBlock: OJICUG_clean_linker_0, # of connection points: 2
#     Edge 27, Type (0, 1), BuildingBlock: OJICUG_clean_linker_0, # of connection points: 2
#     Edge 28, Type (0, 1), BuildingBlock: OJICUG_clean_linker_0, # of connection points: 2
#     Edge 29, Type (0, 1), BuildingBlock: OJICUG_clean_linker_0, # of connection points: 2
#     Edge 30, Type (0, 1), BuildingBlock: OJICUG_clean_linker_0, # of connection points: 2
#     Edge 31, Type (0, 1), BuildingBlock: OJICUG_clean_linker_0, # of connection points: 2
#     Edge 32, Type (0, 1), BuildingBlock: OJICUG_clean_linker_0, # of connection points: 2
#     Edge 33, Type (0, 1), BuildingBlock: OJICUG_clean_linker_0, # of connection points: 2
#     Edge 34, Type (0, 1), BuildingBlock: OJICUG_clean_linker_0, # of connection points: 2
#     Edge 35, Type (0, 1), BuildingBlock: OJICUG_clean_linker_0, # of connection points: 2
# Relax obj value: 0.112
# Max RMSD: 0.172
# Mean RMSD: 0.083
data_MOF--net-zzz--node1-JUFBIX_clean_sbu_0--node2-BETDIP_clean_linker_0--edge1-OJICUG_clean_linker_0
_symmetry_space_group_name_H-M    P1
_symmetry_Int_Tables_number       1
_symmetry_cell_setting            triclinic
loop_
_symmetry_equiv_pos_as_xyz
'x, y, z'
_cell_length_a     37.780891
_cell_length_b     37.654926
_cell_length_c     13.398412
_cell_angle_alpha  78.909646
_cell_angle_beta   90.370989
_cell_angle_gamma 90.992636
loop_
_atom_site_label
_atom_site_type_symbol
_atom_site_fract_x
_atom_site_fract_y
_atom_site_fract_z
_atom_type_partial_charge
H0 H 0.8297 0.54735 0.42728 0.0
H1 H 0.8562 0.52862 0.12863 0.0
H2 H 0.93802 0.53302 0.34952 0.0
H3 H 0.80727 0.58164 0.10818 0.0
C4 C 0.79095 0.5594 0.14819 0.0
C5 C 0.84923 0.54275 0.37249 0.0
C6 C 0.88543 0.54165 0.39835 0.0
C7 C 0.83857 0.53879 0.27388 0.0
C8 C 0.86419 0.53215 0.20399 0.0
C9 C 0.90007 0.53012 0.2313 0.0
C10 C 0.91025 0.53496 0.32795 0.0
N11 N 0.80218 0.54066 0.2456 0.0
H12 H 0.02783 0.75828 0.43518 0.0
H13 H 0.06732 0.79287 0.13065 0.0
H14 H 0.05971 0.86902 0.33033 0.0
H15 H 0.99755 0.74971 0.15388 0.0
C16 C 1.02007 0.73213 0.17388 0.0
C17 C 0.03947 0.7791 0.37698 0.0
C18 C 0.04462 0.81446 0.39481 0.0
C19 C 0.04789 0.77138 0.2811 0.0
C20 C 0.06139 0.79898 0.20449 0.0
C21 C 0.06598 0.83441 0.2215 0.0
C22 C 0.05825 0.84145 0.31755 0.0
N23 N 0.04133 0.73646 0.25897 0.0
H24 H 0.79782 1.02053 0.32109 0.0
H25 H 0.77038 0.0513 0.00242 0.0
H26 H 0.69074 0.04592 0.2314 0.0
H27 H 0.81424 1.00899 -0.00247 0.0
C28 C 0.83469 1.01941 0.04214 0.0
C29 C 0.77861 0.0297 0.26176 0.0
C30 C 0.7431 0.03394 0.28722 0.0
C31 C 0.7889 0.03598 0.15863 0.0
C32 C 0.76308 0.0465 0.08193 0.0
C33 C 0.7276 0.05072 0.10791 0.0
C34 C 0.71835 0.04477 0.21039 0.0
N35 N 0.82488 0.0308 0.13344 0.0
H36 H 0.55811 0.74581 0.34903 0.0
H37 H 0.54393 0.73368 0.03629 0.0
H38 H 0.5635 0.6409 0.26857 0.0
H39 H 0.57243 0.78858 0.00877 0.0
C40 C 0.55948 0.80308 0.06066 0.0
C41 C 0.55724 0.72906 0.29174 0.0
C42 C 0.56204 0.6914 0.32026 0.0
C43 C 0.55218 0.74513 0.18829 0.0
C44 C 0.54947 0.72247 0.11531 0.0
C45 C 0.55396 0.68496 0.14468 0.0
C46 C 0.56067 0.67002 0.24617 0.0
N47 N 0.54989 0.78371 0.15941 0.0
H48 H 0.26509 0.49387 0.16311 0.0
H49 H 0.23765 0.51359 0.46002 0.0
H50 H 0.15632 0.50673 0.23961 0.0
H51 H 0.2872 0.4596 0.47961 0.0
C52 C 0.30295 0.48278 0.44243 0.0
C53 C 0.24538 0.49847 0.21736 0.0
C54 C 0.20917 0.49877 0.19134 0.0
C55 C 0.25575 0.50311 0.31568 0.0
C56 C 0.22988 0.50964 0.38486 0.0
C57 C 0.19405 0.51088 0.35737 0.0
C58 C 0.18411 0.50542 0.26116 0.0
N59 N 0.29205 0.50179 0.34496 0.0
H60 H 0.04039 0.28112 0.16066 0.0
H61 H 0.9949 0.24311 0.45762 0.0
H62 H 1.01857 0.16785 0.26611 0.0
H63 H 0.96558 0.30037 0.40246 0.0
C64 C 0.99133 0.31399 0.39508 0.0
C65 C 0.02968 0.2594 0.21794 0.0
C66 C 0.02937 0.22349 0.20156 0.0
C67 C 1.01591 0.2669 0.30946 0.0
C68 C 1.00366 0.238 0.38496 0.0
C69 C 1.00464 0.20222 0.37006 0.0
C70 C 1.01657 0.19554 0.2773 0.0
N71 N 1.01661 0.30285 0.32916 0.0
H72 H 0.28615 0.04176 0.30377 0.0
H73 H 0.31037 1.00064 0.62004 0.0
H74 H 0.39135 1.00837 0.39273 0.0
H75 H 0.24811 0.97194 0.58001 0.0
C76 C 0.23805 0.99927 0.55956 0.0
C77 C 0.3047 0.03012 0.36249 0.0
C78 C 0.33989 0.02446 0.33707 0.0
C79 C 0.29349 1.02016 0.46447 0.0
C80 C 0.31838 1.00653 0.54101 0.0
C81 C 0.35393 1.00207 0.51546 0.0
C82 C 0.36381 1.01036 0.41336 0.0
N83 N 0.25763 0.02546 0.48965 0.0
H84 H 0.52632 0.30048 0.26385 0.0
H85 H 0.54054 0.31339 0.57595 0.0
H86 H 0.52383 0.40607 0.34105 0.0
H87 H 0.50983 0.25946 0.6035 0.0
C88 C 0.52302 0.24439 0.55345 0.0
C89 C 0.52768 0.31746 0.32052 0.0
C90 C 0.52398 0.35525 0.29088 0.0
C91 C 0.53224 0.30161 0.42438 0.0
C92 C 0.53548 0.3245 0.49658 0.0
C93 C 0.53207 0.36208 0.46608 0.0
C94 C 0.52594 0.3769 0.36422 0.0
N95 N 0.53349 0.26303 0.45466 0.0
Co96 Co 0.04913 0.03627 0.84944 0.0
C97 C 0.97773 1.01841 0.88574 0.0
Co98 Co 0.02655 1.00246 0.74588 0.0
C99 C 0.05237 0.10035 0.93697 0.0
C100 C 0.09911 0.06908 0.97097 0.0
N101 N 0.06724 0.06896 0.92563 0.0
N102 N 0.07369 0.12047 -0.01309 0.0
C103 C 0.10311 0.10047 0.00887 0.0
H104 H 0.02644 0.10828 0.90724 0.0
H105 H 0.11849 0.04806 0.97439 0.0
C106 C 0.09768 1.01942 0.70885 0.0
N107 N 1.00844 0.96983 0.67008 0.0
C108 C 0.02319 0.93812 0.66167 0.0
C109 C 0.97726 0.97013 0.62079 0.0
N110 N 1.00252 0.91824 0.60966 0.0
C111 C 0.9736 0.93862 0.58326 0.0
C112 C 1.01812 0.07345 0.66906 0.0
O113 O 0.09384 0.0372 0.7798 0.0
O114 O 0.07124 1.00225 0.68131 0.0
O115 O 1.01236 0.04255 0.64663 0.0
O116 O 0.03383 0.07563 0.75159 0.0
O117 O 0.98232 1.00256 0.81131 0.0
H118 H 0.95823 0.99161 0.6138 0.0
H119 H 0.04853 0.92972 0.69505 0.0
O120 O 1.00394 0.03491 0.91784 0.0
O121 O 0.06448 0.99573 0.94761 0.0
O122 O 0.04049 0.96335 0.84467 0.0
C123 C 0.05716 0.96496 0.92592 0.0
H124 H 0.12611 0.10762 0.0496 0.0
H125 H 0.95143 0.93174 0.53878 0.0
Co126 Co 0.52712 0.02971 0.87916 0.0
C127 C 0.54542 0.95786 0.90433 0.0
Co128 Co 0.55493 1.01849 0.74402 0.0
C129 C 0.46687 0.03109 0.01015 0.0
C130 C 0.50664 0.07027 0.0301 0.0
N131 N 0.50022 0.04234 0.98257 0.0
N132 N 0.45191 0.05134 0.07104 0.0
C133 C 0.47716 0.07576 0.0847 0.0
H134 H 0.45314 1.00962 0.98171 0.0
H135 H 0.53052 0.08681 0.02144 0.0
C136 C 0.53666 0.09025 0.71833 0.0
N137 N 0.58219 1.00646 0.64073 0.0
C138 C 0.61444 1.02052 0.61067 0.0
C139 C 0.57842 0.97726 0.59692 0.0
N140 N 0.63143 1.00082 0.55218 0.0
C141 C 0.60853 0.97378 0.54228 0.0
C142 C 0.48337 1.00837 0.73068 0.0
O143 O 0.52438 0.07859 0.80706 0.0
O144 O 0.55185 0.06805 0.67246 0.0
O145 O 0.5118 1.00649 0.68151 0.0
O146 O 0.48494 1.01825 0.8157 0.0
O147 O 0.55774 0.96976 0.8158 0.0
H148 H 0.55608 0.95858 0.60851 0.0
H149 H 0.62608 0.04366 0.63628 0.0
O150 O 0.53014 0.9799 0.95078 0.0
O151 O 0.57013 0.04157 0.94152 0.0
O152 O 0.59719 0.02999 0.80767 0.0
C153 C 0.5986 0.03982 0.89272 0.0
H154 H 0.47452 0.09646 0.12996 0.0
H155 H 0.6133 0.9526 0.49995 0.0
Co156 Co 0.57248 0.52005 0.81511 0.0
C157 C 0.52965 0.46903 0.94636 0.0
Co158 Co 0.51425 0.52661 0.79628 0.0
C159 C 0.64373 0.53319 0.88897 0.0
C160 C 0.63647 0.48005 0.85677 0.0
N161 N 0.62041 0.51227 0.84776 0.0
N162 N 0.67309 0.51493 0.92521 0.0
C163 C 0.66866 0.48158 0.90437 0.0
H164 H 0.63824 0.56038 0.89908 0.0
H165 H 0.62451 0.45607 0.83668 0.0
C166 C 0.55704 0.57759 0.66504 0.0
N167 N 0.46631 0.53413 0.76319 0.0
C168 C 0.4436 0.51287 0.72118 0.0
C169 C 0.44994 0.56624 0.75231 0.0
N170 N 0.41439 0.53078 0.68221 0.0
C171 C 0.4182 0.56429 0.70246 0.0
C172 C 0.54212 0.56855 0.9239 0.0
O173 O 0.58347 0.56009 0.70757 0.0
O174 O 0.52589 0.56616 0.69034 0.0
O175 O 0.51287 0.55968 0.8873 0.0
O176 O 0.57024 0.55295 0.90549 0.0
O177 O 0.50325 0.48656 0.9038 0.0
H178 H 0.46151 0.59044 0.77216 0.0
H179 H 0.44956 0.48568 0.71202 0.0
O180 O 0.56081 0.48045 0.92113 0.0
O181 O 0.57383 0.48701 0.72392 0.0
O182 O 0.51654 0.49379 0.70599 0.0
C183 C 0.54459 0.47823 0.68726 0.0
H184 H 0.6868 0.45943 0.92565 0.0
H185 H 0.40007 0.58631 0.67891 0.0
Co186 Co 0.05155 0.54873 0.79208 0.0
C187 C 0.10407 0.50376 0.89686 0.0
Co188 Co 0.04285 0.4898 0.79906 0.0
C189 C 0.04 0.61555 0.86395 0.0
C190 C 0.08997 0.61545 0.78986 0.0
N191 N 0.05915 0.59667 0.80738 0.0
N192 N 0.0581 0.64444 0.88525 0.0
C193 C 0.08946 0.64464 0.83798 0.0
H194 H 1.0146 0.60646 0.89718 0.0
H195 H 0.11262 0.60669 0.75252 0.0
C196 C 0.9904 0.53478 0.69433 0.0
N197 N 0.03589 0.44197 0.78399 0.0
C198 C 0.03191 0.43064 0.69454 0.0
C199 C 0.03205 0.41172 0.85578 0.0
N200 N 0.02566 0.3947 0.70742 0.0
C201 C 0.02548 0.38264 0.80889 0.0
C202 C 1.00973 0.51079 0.95348 0.0
O203 O 1.00902 0.56103 0.71502 0.0
O204 O 1.00149 0.50264 0.72087 0.0
O205 O 1.01437 0.48245 0.91724 0.0
O206 O 0.02469 0.54028 0.91197 0.0
O207 O 0.08489 0.47746 0.87906 0.0
H208 H 0.03334 0.41095 0.93684 0.0
H209 H 0.03228 0.44864 0.62108 0.0
O210 O 0.09343 0.53591 0.86767 0.0
O211 O 0.0788 0.55625 0.67183 0.0
O212 O 0.07088 0.49781 0.68147 0.0
C213 C 0.08461 0.52768 0.63776 0.0
H214 H 0.11123 0.66332 0.84282 0.0
H215 H 1.02076 0.35485 0.8464 0.0
C216 C 0.19217 0.03957 0.61389 0.0
C217 C 0.20162 1.00606 0.59114 0.0
H218 H 0.15191 0.06991 0.67192 0.0
C219 C 0.17642 0.97775 0.60426 0.0
H220 H 0.21128 0.06172 0.60531 0.0
C221 C 0.14235 0.98274 0.6389 0.0
C222 C 0.13309 1.01578 0.66492 0.0
H223 H 0.18311 0.95163 0.58764 0.0
H224 H 0.12358 0.96026 0.64859 0.0
C225 C 0.15835 0.04419 0.6523 0.0
C226 C 0.54343 0.18178 0.53415 0.0
C227 C 0.52682 0.20467 0.59055 0.0
H228 H 0.55972 0.1275 0.52985 0.0
C229 C 0.51346 0.18951 0.68717 0.0
H230 H 0.55406 0.19265 0.45944 0.0
C231 C 0.5166 0.15261 0.72714 0.0
C232 C 0.5333 0.12946 0.6719 0.0
H233 H 0.50054 0.20636 0.7326 0.0
H234 H 0.50594 0.14231 0.8022 0.0
C235 C 0.54667 0.14448 0.57454 0.0
C236 C 0.34742 0.47112 0.58307 0.0
C237 C 0.33342 0.49485 0.49866 0.0
H238 H 0.38458 0.46391 0.70712 0.0
C239 C 0.34707 0.53035 0.47402 0.0
H240 H 0.33721 0.44364 0.60396 0.0
C241 C 0.37357 0.54212 0.53439 0.0
C242 C 0.3874 0.51845 0.61945 0.0
H243 H 0.33664 0.54933 0.40991 0.0
H244 H 0.38341 0.56973 0.51427 0.0
C245 C 0.37444 0.48266 0.6421 0.0
C246 C 0.98219 0.32898 0.5657 0.0
C247 C 1.00136 0.33495 0.47431 0.0
H248 H 0.97542 0.34283 0.71225 0.0
C249 C 0.02916 0.36067 0.4609 0.0
H250 H 0.96066 0.30925 0.57802 0.0
C251 C 0.03707 0.38053 0.53722 0.0
C252 C 1.018 0.37418 0.62913 0.0
H253 H 0.04429 0.36585 0.39107 0.0
H254 H 0.0583 0.40057 0.52511 0.0
C255 C 0.99071 0.34799 0.64274 0.0
C256 C 0.87895 1.00261 0.92403 0.0
C257 C 0.87197 1.01873 0.00774 0.0
H258 H 0.91728 0.98965 0.82108 0.0
C259 C 0.9003 0.03437 0.05373 0.0
H260 H 0.85769 0.99038 0.88697 0.0
C261 C 0.9349 0.03421 0.01525 0.0
C262 C 0.94172 1.01819 0.93067 0.0
H263 H 0.8957 0.04712 0.11826 0.0
H264 H 0.95619 0.04679 0.05122 0.0
C265 C 0.91325 1.00221 0.88629 0.0
C266 C 0.53909 0.8653 0.0846 0.0
C267 C 0.55552 0.84294 0.02617 0.0
H268 H 0.52282 0.91935 0.09249 0.0
C269 C 0.56859 0.85879 0.9298 0.0
H270 H 0.52868 0.85389 0.15921 0.0
C271 C 0.56538 0.89582 0.89203 0.0
C272 C 0.54884 0.91848 0.94919 0.0
H273 H 0.58137 0.8424 0.8828 0.0
H274 H 0.57584 0.9066 0.81702 0.0
C275 C 0.53574 0.90278 0.04635 0.0
C276 C 0.74432 0.5726 0.01371 0.0
C277 C 0.75871 0.54859 0.09693 0.0
H278 H 0.7052 0.58081 0.89458 0.0
C279 C 0.74361 0.51381 0.12516 0.0
H280 H 0.7556 0.59955 -0.00979 0.0
C281 C 0.71539 0.50291 0.06909 0.0
C282 C 0.70126 0.52677 -0.01505 0.0
H283 H 0.75426 0.49464 0.18849 0.0
H284 H 0.70456 0.47575 0.09147 0.0
C285 C 0.71556 0.56197 0.95907 0.0
C286 C 0.06457 0.69541 0.10033 0.0
C287 C 0.0298 0.70762 0.10446 0.0
H288 H 0.10094 0.66609 0.02567 0.0
C289 C 1.00446 0.69846 0.03605 0.0
H290 H 0.08475 0.70233 0.15144 0.0
C291 C 1.01362 0.67741 0.96489 0.0
C292 C 0.04857 0.66594 0.95889 0.0
H293 H 0.97751 0.70775 0.03734 0.0
H294 H 0.99362 0.67069 0.91302 0.0
C295 C 0.07393 0.67506 0.02758 0.0
C296 C 0.98502 0.1382 0.43804 0.0
C297 C 0.9996 0.17117 0.45536 0.0
H298 H 0.97996 0.08095 0.49172 0.0
C299 C 1.01558 0.17225 0.54954 0.0
H300 H 0.97191 0.13673 0.36677 0.0
C301 C 1.0198 0.14055 0.62104 0.0
C302 C 1.00845 0.10707 0.59942 0.0
H303 H 0.02737 0.19703 0.56524 0.0
H304 H 0.03386 0.14216 0.69082 0.0
C305 C 0.9897 0.10629 0.50921 0.0
C306 C 0.38575 1.01517 0.66864 0.0
C307 C 0.38284 0.99463 0.59193 0.0
H308 H 0.42018 0.03565 0.77251 0.0
C309 C 0.41204 0.97407 0.57285 0.0
H310 H 0.36394 0.03147 0.68481 0.0
C311 C 0.44471 0.97781 0.6194 0.0
C312 C 0.44836 1.00096 0.68913 0.0
H313 H 0.41038 0.95739 0.51543 0.0
H314 H 0.46731 0.96352 0.59848 0.0
C315 C 0.41819 1.01805 0.71748 0.0
C316 C 0.56722 0.39519 0.57914 0.0
C317 C 0.53451 0.38737 0.53734 0.0
H318 H 0.59643 0.43077 0.65814 0.0
C319 C 0.50541 0.40914 0.54613 0.0
H320 H 0.59019 0.37919 0.57086 0.0
C321 C 0.50902 0.43882 0.5935 0.0
C322 C 0.54189 0.44752 0.6332 0.0
H323 H 0.48012 0.40394 0.51261 0.0
H324 H 0.48602 0.45524 0.59762 0.0
C325 C 0.5709 0.42508 0.62696 0.0
C326 C 0.1366 0.49284 0.44154 0.0
C327 C 0.16608 0.51639 0.42865 0.0
H328 H 0.08714 0.47889 0.51522 0.0
C329 C 0.1674 0.54579 0.47919 0.0
H330 H 0.13502 0.46994 0.40345 0.0
C331 C 0.13961 0.55119 0.54294 0.0
C332 C 0.11054 0.52699 0.55726 0.0
H333 H 0.18977 0.56451 0.46909 0.0
H334 H 0.14151 0.5733 0.58395 0.0
C335 C 0.10912 0.4981 0.50498 0.0
C336 C 0.08939 0.89734 0.15287 0.0
C337 C 0.07198 0.86549 0.13639 0.0
H338 H 0.09772 0.95439 0.10009 0.0
C339 C 0.05443 0.86598 0.04363 0.0
H340 H 0.10399 0.89763 0.22255 0.0
C341 C 0.05151 0.89812 0.97336 0.0
C342 C 0.06561 0.9307 -0.00535 0.0
H343 H 0.04045 0.84229 0.02809 0.0
H344 H 0.03623 0.89765 0.90489 0.0
C345 C 0.08583 0.92985 0.08306 0.0
C346 C 0.66885 0.07656 0.04833 0.0
C347 C 0.69835 0.05595 0.03217 0.0
H348 H 0.61363 0.08644 0.02002 0.0
C349 C 0.69594 0.0341 0.95846 0.0
H350 H 0.67014 0.09426 0.10319 0.0
C351 C 0.66373 0.0303 0.90931 0.0
C352 C 0.63334 0.04773 0.93457 0.0
H353 H 0.71801 1.01774 0.9446 0.0
H354 H 0.66209 1.01187 0.85643 0.0
C355 C 0.63644 0.07191 0.0016 0.0
C356 C 0.58102 0.63841 0.06315 0.0
C357 C 0.5517 0.65979 0.07291 0.0
H358 H 0.60079 0.59254 0.01109 0.0
C359 C 0.51896 0.6515 0.03205 0.0
H360 H 0.60635 0.64395 0.09591 0.0
C361 C 0.51549 0.62153 -0.01554 0.0
C362 C 0.54472 0.59943 0.97746 0.0
H363 H 0.49582 0.66716 0.04106 0.0
H364 H 0.48991 0.61547 0.95417 0.0
C365 C 0.57762 0.60864 0.01597 0.0
C366 C 0.92595 0.49489 0.10889 0.0
C367 C 0.92788 0.52415 0.15991 0.0
H368 H 0.95142 0.46676 0.00475 0.0
C369 C 0.958 0.54685 0.14825 0.0
H370 H 0.90311 0.47678 0.11804 0.0
C371 C 0.98554 0.54083 0.08594 0.0
C372 C 0.98357 0.51205 0.03325 0.0
H373 H 0.96009 0.56963 0.18672 0.0
H374 H 1.00806 0.55939 0.07689 0.0
C375 C 0.95379 0.48875 0.04609 0.0
C376 C 0.0799 0.19988 0.12017 0.0
C377 C 0.04486 0.21188 0.11229 0.0
H378 H 0.11679 0.16165 0.08693 0.0
C379 C 0.02172 0.1984 0.04564 0.0
H380 H 0.0981 0.20935 0.17257 0.0
C381 C 0.03195 0.17016 -0.0017 0.0
C382 C 0.06566 0.15461 0.0168 0.0
H383 H 0.99435 0.20673 0.03967 0.0
H384 H 1.01228 0.15902 0.95371 0.0
C385 C 0.09024 0.17162 0.07288 0.0
C386 C 0.36771 1.00832 0.18667 0.0
C387 C 0.35511 0.03566 0.23456 0.0
H388 H 0.40907 0.99144 0.09943 0.0
C389 C 0.37057 0.07036 0.21004 0.0
H390 H 0.35669 0.98112 0.20616 0.0
C391 C 0.40108 0.07627 0.15007 0.0
C392 C 0.41662 0.04755 0.11349 0.0
H393 H 0.36172 0.09173 0.24731 0.0
H394 H 0.41372 0.10273 0.13825 0.0
C395 C 0.39826 1.01415 0.12694 0.0
C396 C 0.55195 0.38171 0.12647 0.0
C397 C 0.52098 0.37463 0.18425 0.0
H398 H 0.57904 0.41742 0.00686 0.0
C399 C 0.4911 0.39604 0.15466 0.0
H400 H 0.57556 0.36623 0.14916 0.0
C401 C 0.49308 0.4258 0.07379 0.0
C402 C 0.52518 0.43493 0.02226 0.0
H403 H 0.46717 0.39161 0.19979 0.0
H404 H 0.47026 0.44294 0.0562 0.0
C405 C 0.55408 0.41161 0.04652 0.0
C406 C 0.1905 0.52525 0.01707 0.0
C407 C 0.19503 0.49406 0.09169 0.0
H408 H 0.15777 0.55279 0.89703 0.0
C409 C 0.17357 0.46335 0.08811 0.0
H410 H 0.20613 0.54947 0.01952 0.0
C411 C 0.14533 0.4653 0.01897 0.0
C412 C 0.13808 0.4981 0.95307 0.0
H413 H 0.17608 0.43924 0.14651 0.0
H414 H 0.12746 0.44224 0.02347 0.0
C415 C 0.1622 0.52732 0.9486 0.0
C416 C 0.05583 0.84267 0.54384 0.0
C417 C 0.03137 0.827 0.48527 0.0
H418 H 0.06634 0.88417 0.62774 0.0
C419 C 0.99571 0.83668 0.48627 0.0
H420 H 0.08361 0.83606 0.5428 0.0
C421 C 0.98558 0.86492 0.53388 0.0
C422 C 1.01102 0.88412 0.581 0.0
H423 H 0.97642 0.82535 0.44042 0.0
H424 H 0.95826 0.87314 0.52737 0.0
C425 C 0.04583 0.87094 0.59105 0.0
C426 C 0.71261 0.04994 0.43388 0.0
C427 C 0.72826 0.02299 0.39034 0.0
H428 H 0.6688 0.06438 0.51672 0.0
C429 C 0.71581 0.98715 0.4188 0.0
H430 H 0.72126 0.07791 0.41133 0.0
C431 C 0.68518 0.97935 0.47775 0.0
C432 C 0.66661 1.00725 0.50979 0.0
H433 H 0.72703 0.96598 0.38494 0.0
H434 H 0.67487 0.95187 0.49244 0.0
C435 C 0.682 0.0422 0.49273 0.0
C436 C 0.59516 0.65029 0.45539 0.0
C437 C 0.56527 0.6718 0.42663 0.0
H438 H 0.61614 0.60338 0.55344 0.0
C439 C 0.53453 0.66491 0.48546 0.0
H440 H 0.61893 0.65463 0.40955 0.0
C441 C 0.53257 0.63508 0.56562 0.0
C442 C 0.56144 0.61166 0.58906 0.0
H443 H 0.51093 0.6805 0.46352 0.0
H444 H 0.50776 0.6294 0.60612 0.0
C445 C 0.59336 0.62061 0.53648 0.0
C446 C 0.90438 0.51381 0.57125 0.0
C447 C 0.89971 0.54549 0.49852 0.0
H448 H 0.93715 0.48557 0.69008 0.0
C449 C 0.92098 0.57612 0.50416 0.0
H450 H 0.88888 0.48965 0.56707 0.0
C451 C 0.94912 0.57376 0.57373 0.0
C452 C 0.95649 0.5406 0.63777 0.0
H453 H 0.91838 0.6006 0.44714 0.0
H454 H 0.96682 0.59686 0.57096 0.0
C455 C 0.9326 0.51132 0.64001 0.0
loop_
_geom_bond_atom_site_label_1
_geom_bond_atom_site_label_2
_geom_bond_distance
_geom_bond_site_symmetry_2
_ccdc_geom_bond_type
H0 C5 0.930 . S
H1 C8 0.930 . S
H2 C10 0.930 . S
H3 C4 1.016 . S
C4 H3 1.016 . S
C4 N11 1.286 . S
C5 H0 0.930 . S
C5 C6 1.397 . S
C5 C7 1.361 . S
C6 C5 1.397 . S
C6 C10 1.390 . S
C7 C5 1.361 . S
C7 C8 1.393 . S
C7 N11 1.413 . S
C8 H1 0.930 . S
C8 C7 1.393 . S
C8 C9 1.399 . S
C9 C8 1.399 . S
C9 C10 1.381 . S
C10 H2 0.930 . S
C10 C6 1.390 . S
C10 C9 1.381 . S
N11 C4 1.286 . S
N11 C7 1.413 . S
H12 C17 0.930 . S
H13 C20 0.930 1_556 S
H14 C22 0.930 . S
H15 C16 1.016 1_556 S
C16 H15 1.016 1_554 S
C16 N23 1.286 . S
C17 H12 0.930 . S
C17 C18 1.397 . S
C17 C19 1.361 . S
C18 C17 1.397 . S
C18 C22 1.390 . S
C19 C17 1.361 . S
C19 C20 1.393 . S
C19 N23 1.413 . S
C20 H13 0.930 1_554 S
C20 C19 1.393 . S
C20 C21 1.399 . S
C21 C20 1.399 . S
C21 C22 1.381 . S
C22 H14 0.930 . S
C22 C18 1.390 . S
C22 C21 1.381 . S
N23 C16 1.286 . S
N23 C19 1.413 . S
H24 C29 0.930 . S
H25 C32 0.930 . S
H26 C34 0.930 . S
H27 C28 1.016 . S
C28 H27 1.016 . S
C28 N35 1.286 1_566 S
C29 H24 0.930 . S
C29 C30 1.397 . S
C29 C31 1.361 . S
C30 C29 1.397 . S
C30 C34 1.390 1_545 S
C31 C29 1.361 . S
C31 C32 1.393 1_554 S
C31 N35 1.413 . S
C32 H25 0.930 . S
C32 C31 1.393 1_556 S
C32 C33 1.401 . S
C33 C32 1.401 . S
C33 C34 1.383 1_546 S
C34 H26 0.930 . S
C34 C30 1.390 1_565 S
C34 C33 1.383 1_564 S
N35 C28 1.286 1_544 S
N35 C31 1.413 . S
H36 C41 0.930 . S
H37 C44 0.930 1_556 S
H38 C46 0.930 . S
H39 C40 1.016 1_556 S
C40 H39 1.016 1_554 S
C40 N47 1.286 . S
C41 H36 0.930 . S
C41 C42 1.397 . S
C41 C43 1.361 . S
C42 C41 1.397 . S
C42 C46 1.390 . S
C43 C41 1.361 . S
C43 C44 1.393 . S
C43 N47 1.413 . S
C44 H37 0.930 1_554 S
C44 C43 1.393 . S
C44 C45 1.399 . S
C45 C44 1.399 . S
C45 C46 1.381 . S
C46 H38 0.930 . S
C46 C42 1.390 . S
C46 C45 1.381 . S
N47 C40 1.286 . S
N47 C43 1.413 . S
H48 C53 0.930 . S
H49 C56 0.930 . S
H50 C58 0.930 . S
H51 C52 1.016 . S
C52 H51 1.016 . S
C52 N59 1.286 . S
C53 H48 0.930 . S
C53 C54 1.397 . S
C53 C55 1.361 . S
C54 C53 1.397 . S
C54 C58 1.390 . S
C55 C53 1.361 . S
C55 C56 1.393 . S
C55 N59 1.413 . S
C56 H49 0.930 . S
C56 C55 1.393 . S
C56 C57 1.399 . S
C57 C56 1.399 . S
C57 C58 1.381 . S
C58 H50 0.930 . S
C58 C54 1.390 . S
C58 C57 1.381 . S
N59 C52 1.286 . S
N59 C55 1.413 . S
H60 C65 0.930 . S
H61 C68 0.930 . S
H62 C70 0.930 . S
H63 C64 1.016 . S
C64 H63 1.016 . S
C64 N71 1.286 . S
C65 H60 0.930 . S
C65 C66 1.397 . S
C65 C67 1.361 . S
C66 C65 1.397 . S
C66 C70 1.390 . S
C67 C65 1.361 . S
C67 C68 1.393 . S
C67 N71 1.413 . S
C68 H61 0.930 . S
C68 C67 1.393 . S
C68 C69 1.399 . S
C69 C68 1.399 . S
C69 C70 1.381 . S
C70 H62 0.930 . S
C70 C66 1.390 . S
C70 C69 1.381 . S
N71 C64 1.286 . S
N71 C67 1.413 . S
H72 C77 0.930 . S
H73 C80 0.930 . S
H74 C82 0.930 . S
H75 C76 1.021 . S
C76 H75 1.021 . S
C76 N83 1.277 1_565 S
C77 H72 0.930 . S
C77 C78 1.397 . S
C77 C79 1.361 . S
C78 C77 1.397 . S
C78 C82 1.390 1_545 S
C79 C77 1.361 . S
C79 C80 1.393 . S
C79 N83 1.413 . S
C80 H73 0.930 . S
C80 C79 1.393 . S
C80 C81 1.406 . S
C81 C80 1.406 . S
C81 C82 1.372 1_545 S
C82 H74 0.930 . S
C82 C78 1.390 1_565 S
C82 C81 1.372 1_565 S
N83 C76 1.277 1_545 S
N83 C79 1.413 . S
H84 C89 0.930 . S
H85 C92 0.930 . S
H86 C94 0.930 . S
H87 C88 1.016 . S
C88 H87 1.016 . S
C88 N95 1.286 . S
C89 H84 0.930 . S
C89 C90 1.397 . S
C89 C91 1.361 . S
C90 C89 1.397 . S
C90 C94 1.390 . S
C91 C89 1.361 . S
C91 C92 1.393 . S
C91 N95 1.413 . S
C92 H85 0.930 . S
C92 C91 1.393 . S
C92 C93 1.399 . S
C93 C92 1.399 . S
C93 C94 1.381 . S
C94 H86 0.930 . S
C94 C90 1.390 . S
C94 C93 1.381 . S
N95 C88 1.286 . S
N95 C91 1.413 . S
Co96 N101 2.057 1_556 S
Co96 O113 2.021 . S
Co96 O116 2.062 . S
Co96 O120 2.117 1_455 S
Co96 O121 2.020 1_545 S
C97 O117 1.259 1_545 S
C97 O120 1.258 . S
Co98 N107 2.057 . S
Co98 O114 2.117 . S
Co98 O115 2.020 1_565 S
Co98 O117 2.021 1_455 S
Co98 O122 2.062 . S
C99 N101 1.316 . S
C99 N102 1.347 . S
C99 H104 0.931 . S
C100 N101 1.375 . S
C100 C103 1.350 . S
C100 H105 0.930 1_455 S
N101 Co96 2.057 1_554 S
N101 C99 1.316 . S
N101 C100 1.375 . S
N102 C99 1.347 . S
N102 C103 1.373 . S
C103 C100 1.350 . S
C103 N102 1.373 . S
C103 H124 0.915 1_455 S
H104 C99 0.931 . S
H105 C100 0.930 1_655 S
C106 O113 1.259 1_565 S
C106 O114 1.258 . S
N107 Co98 2.057 . S
N107 C108 1.316 1_455 S
N107 C109 1.375 . S
C108 N107 1.316 1_655 S
C108 N110 1.347 . S
C108 H119 0.931 . S
C109 N107 1.375 . S
C109 C111 1.350 . S
C109 H118 0.930 . S
N110 C108 1.347 . S
N110 C111 1.373 1_655 S
C111 C109 1.350 . S
C111 N110 1.373 1_455 S
C111 H125 0.931 . S
C112 O115 1.256 . S
C112 O116 1.255 . S
O113 Co96 2.021 . S
O113 C106 1.259 1_545 S
O114 Co98 2.117 . S
O114 C106 1.258 . S
O115 Co98 2.020 1_545 S
O115 C112 1.256 . S
O116 Co96 2.062 . S
O116 C112 1.255 . S
O117 C97 1.259 1_565 S
O117 Co98 2.021 1_655 S
H118 C109 0.930 . S
H119 C108 0.931 . S
O120 Co96 2.117 1_655 S
O120 C97 1.258 . S
O121 Co96 2.020 1_565 S
O121 C123 1.256 . S
O122 Co98 2.062 . S
O122 C123 1.255 . S
C123 O121 1.256 . S
C123 O122 1.255 . S
H124 C103 0.915 1_655 S
H125 C111 0.931 . S
Co126 N131 2.057 1_546 S
Co126 O143 2.021 . S
Co126 O146 2.062 . S
Co126 O150 2.117 1_545 S
Co126 O151 2.020 . S
C127 O147 1.259 . S
C127 O150 1.258 . S
Co128 N137 2.057 1_565 S
Co128 O144 2.117 1_565 S
Co128 O145 2.020 . S
Co128 O147 2.021 . S
Co128 O152 2.062 . S
C129 N131 1.316 1_545 S
C129 N132 1.347 . S
C129 H134 0.931 . S
C130 N131 1.375 . S
C130 C133 1.350 . S
C130 H135 0.930 . S
N131 Co126 2.057 1_564 S
N131 C129 1.316 1_565 S
N131 C130 1.375 . S
N132 C129 1.347 . S
N132 C133 1.373 1_545 S
C133 C130 1.350 . S
C133 N132 1.373 1_565 S
C133 H154 0.931 . S
H134 C129 0.931 . S
H135 C130 0.930 . S
C136 O143 1.259 . S
C136 O144 1.258 . S
N137 Co128 2.057 1_545 S
N137 C138 1.316 1_545 S
N137 C139 1.375 . S
C138 N137 1.316 1_565 S
C138 N140 1.347 . S
C138 H149 0.931 . S
C139 N137 1.375 . S
C139 C141 1.350 . S
C139 H148 0.930 . S
N140 C138 1.347 . S
N140 C141 1.373 1_565 S
C141 C139 1.350 . S
C141 N140 1.373 1_545 S
C141 H155 0.931 . S
C142 O145 1.256 . S
C142 O146 1.255 1_565 S
O143 Co126 2.021 . S
O143 C136 1.259 . S
O144 Co128 2.117 1_545 S
O144 C136 1.258 . S
O145 Co128 2.020 . S
O145 C142 1.256 . S
O146 Co126 2.062 . S
O146 C142 1.255 1_545 S
O147 C127 1.259 . S
O147 Co128 2.021 . S
H148 C139 0.930 . S
H149 C138 0.931 . S
O150 Co126 2.117 1_565 S
O150 C127 1.258 . S
O151 Co126 2.020 . S
O151 C153 1.256 . S
O152 Co128 2.062 . S
O152 C153 1.255 1_565 S
C153 O151 1.256 . S
C153 O152 1.255 1_545 S
H154 C133 0.931 . S
H155 C141 0.931 . S
Co156 N161 2.057 . S
Co156 O173 2.021 . S
Co156 O176 2.062 . S
Co156 O180 2.117 . S
Co156 O181 2.020 . S
C157 O177 1.259 . S
C157 O180 1.258 . S
Co158 N167 2.057 . S
Co158 O174 2.117 . S
Co158 O175 2.020 . S
Co158 O177 2.021 . S
Co158 O182 2.062 . S
C159 N161 1.316 . S
C159 N162 1.347 . S
C159 H164 0.931 . S
C160 N161 1.375 . S
C160 C163 1.350 1_556 S
C160 H165 0.930 1_556 S
N161 Co156 2.057 . S
N161 C159 1.316 . S
N161 C160 1.375 . S
N162 C159 1.347 . S
N162 C163 1.373 1_556 S
C163 C160 1.350 1_554 S
C163 N162 1.373 1_554 S
C163 H184 0.931 . S
H164 C159 0.931 . S
H165 C160 0.930 1_554 S
C166 O173 1.259 . S
C166 O174 1.258 . S
N167 Co158 2.057 . S
N167 C168 1.316 . S
N167 C169 1.375 . S
C168 N167 1.316 . S
C168 N170 1.347 . S
C168 H179 0.931 . S
C169 N167 1.375 . S
C169 C171 1.350 . S
C169 H178 0.930 . S
N170 C168 1.347 . S
N170 C171 1.373 . S
C171 C169 1.350 . S
C171 N170 1.373 . S
C171 H185 0.931 . S
C172 O175 1.256 . S
C172 O176 1.255 . S
O173 Co156 2.021 . S
O173 C166 1.259 . S
O174 Co158 2.117 . S
O174 C166 1.258 . S
O175 Co158 2.020 . S
O175 C172 1.256 . S
O176 Co156 2.062 . S
O176 C172 1.255 . S
O177 C157 1.259 . S
O177 Co158 2.021 . S
H178 C169 0.930 . S
H179 C168 0.931 . S
O180 Co156 2.117 . S
O180 C157 1.258 . S
O181 Co156 2.020 . S
O181 C183 1.256 . S
O182 Co158 2.062 . S
O182 C183 1.255 . S
C183 O181 1.256 . S
C183 O182 1.255 . S
H184 C163 0.931 . S
H185 C171 0.931 . S
Co186 N191 2.057 . S
Co186 O203 2.021 1_455 S
Co186 O206 2.062 1_455 S
Co186 O210 2.117 . S
Co186 O211 2.020 . S
C187 O207 1.259 . S
C187 O210 1.258 . S
Co188 N197 2.057 . S
Co188 O204 2.117 1_455 S
Co188 O205 2.020 1_455 S
Co188 O207 2.021 . S
Co188 O212 2.062 . S
C189 N191 1.316 . S
C189 N192 1.347 . S
C189 H194 0.931 1_455 S
C190 N191 1.375 . S
C190 C193 1.350 . S
C190 H195 0.930 . S
N191 Co186 2.057 . S
N191 C189 1.316 . S
N191 C190 1.375 . S
N192 C189 1.347 . S
N192 C193 1.373 . S
C193 C190 1.350 . S
C193 N192 1.373 . S
C193 H214 0.931 . S
H194 C189 0.931 1_655 S
H195 C190 0.930 . S
C196 O203 1.259 . S
C196 O204 1.258 . S
N197 Co188 2.057 . S
N197 C198 1.316 . S
N197 C199 1.375 1_455 S
C198 N197 1.316 . S
C198 N200 1.347 . S
C198 H209 0.931 . S
C199 N197 1.375 1_655 S
C199 C201 1.350 1_655 S
C199 H208 0.930 . S
N200 C198 1.347 . S
N200 C201 1.373 . S
C201 C199 1.350 1_455 S
C201 N200 1.373 . S
C201 H215 0.931 1_455 S
C202 O205 1.256 . S
C202 O206 1.255 . S
O203 Co186 2.021 1_655 S
O203 C196 1.259 . S
O204 Co188 2.117 1_655 S
O204 C196 1.258 . S
O205 Co188 2.020 1_655 S
O205 C202 1.256 . S
O206 Co186 2.062 1_655 S
O206 C202 1.255 . S
O207 C187 1.259 . S
O207 Co188 2.021 . S
H208 C199 0.930 . S
H209 C198 0.931 . S
O210 Co186 2.117 . S
O210 C187 1.258 . S
O211 Co186 2.020 . S
O211 C213 1.256 . S
O212 Co188 2.062 . S
O212 C213 1.255 . S
C213 O211 1.256 . S
C213 O212 1.255 . S
H214 C193 0.931 . S
H215 C201 0.931 1_655 S
C216 C217 1.387 1_545 S
C216 H220 0.950 . S
C216 C225 1.390 . S
C217 C216 1.387 1_565 S
C217 C219 1.387 . S
H218 C225 0.950 . S
C219 C217 1.387 . S
C219 C221 1.390 . S
C219 H223 0.950 . S
H220 C216 0.950 . S
C221 C219 1.390 . S
C221 C222 1.387 . S
C221 H224 0.950 . S
C222 C221 1.387 . S
C222 C225 1.387 1_565 S
H223 C219 0.950 . S
H224 C221 0.950 . S
C225 C216 1.390 . S
C225 H218 0.950 . S
C225 C222 1.387 1_545 S
C226 C227 1.387 . S
C226 H230 0.950 . S
C226 C235 1.390 . S
C227 C226 1.387 . S
C227 C229 1.387 . S
H228 C235 0.950 . S
C229 C227 1.387 . S
C229 C231 1.390 . S
C229 H233 0.950 . S
H230 C226 0.950 . S
C231 C229 1.390 . S
C231 C232 1.387 . S
C231 H234 0.950 . S
C232 C231 1.387 . S
C232 C235 1.387 . S
H233 C229 0.950 . S
H234 C231 0.950 . S
C235 C226 1.390 . S
C235 H228 0.950 . S
C235 C232 1.387 . S
C236 C237 1.387 . S
C236 H240 0.950 . S
C236 C245 1.390 . S
C237 C236 1.387 . S
C237 C239 1.387 . S
H238 C245 0.950 . S
C239 C237 1.387 . S
C239 C241 1.390 . S
C239 H243 0.950 . S
H240 C236 0.950 . S
C241 C239 1.390 . S
C241 C242 1.387 . S
C241 H244 0.950 . S
C242 C241 1.387 . S
C242 C245 1.387 . S
H243 C239 0.950 . S
H244 C241 0.950 . S
C245 C236 1.390 . S
C245 H238 0.950 . S
C245 C242 1.387 . S
C246 C247 1.387 . S
C246 H250 0.950 . S
C246 C255 1.390 . S
C247 C246 1.387 . S
C247 C249 1.387 . S
H248 C255 0.950 . S
C249 C247 1.387 . S
C249 C251 1.390 . S
C249 H253 0.950 . S
H250 C246 0.950 . S
C251 C249 1.390 . S
C251 C252 1.387 . S
C251 H254 0.950 . S
C252 C251 1.387 . S
C252 C255 1.387 . S
H253 C249 0.950 . S
H254 C251 0.950 . S
C255 C246 1.390 . S
C255 H248 0.950 . S
C255 C252 1.387 . S
C256 C257 1.387 1_565 S
C256 H260 0.950 . S
C256 C265 1.390 . S
C257 C256 1.387 1_545 S
C257 C259 1.387 . S
H258 C265 0.950 . S
C259 C257 1.387 . S
C259 C261 1.390 . S
C259 H263 0.950 . S
H260 C256 0.950 . S
C261 C259 1.390 . S
C261 C262 1.387 . S
C261 H264 0.950 . S
C262 C261 1.387 . S
C262 C265 1.387 1_545 S
H263 C259 0.950 . S
H264 C261 0.950 . S
C265 C256 1.390 . S
C265 H258 0.950 . S
C265 C262 1.387 1_565 S
C266 C267 1.387 . S
C266 H270 0.950 . S
C266 C275 1.390 1_554 S
C267 C266 1.387 . S
C267 C269 1.387 1_554 S
H268 C275 0.950 . S
C269 C267 1.387 1_556 S
C269 C271 1.390 . S
C269 H273 0.950 . S
H270 C266 0.950 . S
C271 C269 1.390 . S
C271 C272 1.387 . S
C271 H274 0.950 . S
C272 C271 1.387 . S
C272 C275 1.387 . S
H273 C269 0.950 . S
H274 C271 0.950 . S
C275 C266 1.390 1_556 S
C275 H268 0.950 . S
C275 C272 1.387 . S
C276 C277 1.387 . S
C276 H280 0.950 1_554 S
C276 C285 1.390 1_554 S
C277 C276 1.387 . S
C277 C279 1.387 . S
H278 C285 0.950 . S
C279 C277 1.387 . S
C279 C281 1.390 . S
C279 H283 0.950 . S
H280 C276 0.950 1_556 S
C281 C279 1.390 . S
C281 C282 1.387 1_554 S
C281 H284 0.950 . S
C282 C281 1.387 1_556 S
C282 C285 1.387 . S
H283 C279 0.950 . S
H284 C281 0.950 . S
C285 C276 1.390 1_556 S
C285 H278 0.950 . S
C285 C282 1.387 . S
C286 C287 1.387 . S
C286 H290 0.950 . S
C286 C295 1.390 1_554 S
C287 C286 1.387 . S
C287 C289 1.387 1_554 S
H288 C295 0.949 1_454 S
C289 C287 1.387 1_556 S
C289 C291 1.390 . S
C289 H293 0.950 . S
H290 C286 0.950 . S
C291 C289 1.390 . S
C291 C292 1.387 . S
C291 H294 0.950 . S
C292 C291 1.387 . S
C292 C295 1.387 . S
H293 C289 0.950 . S
H294 C291 0.950 . S
C295 C286 1.390 1_556 S
C295 H288 0.949 1_656 S
C295 C292 1.387 . S
C296 C297 1.387 . S
C296 H300 0.950 . S
C296 C305 1.390 . S
C297 C296 1.387 . S
C297 C299 1.387 . S
H298 C305 0.950 . S
C299 C297 1.387 . S
C299 C301 1.390 . S
C299 H303 0.950 . S
H300 C296 0.950 . S
C301 C299 1.390 . S
C301 C302 1.387 . S
C301 H304 0.950 . S
C302 C301 1.387 . S
C302 C305 1.387 . S
H303 C299 0.950 . S
H304 C301 0.950 . S
C305 C296 1.390 . S
C305 H298 0.950 . S
C305 C302 1.387 . S
C306 C307 1.380 1_545 S
C306 H310 0.950 . S
C306 C315 1.390 . S
C307 C306 1.380 1_565 S
C307 C309 1.396 . S
H308 C315 0.950 . S
C309 C307 1.396 . S
C309 C311 1.390 . S
C309 H313 0.950 . S
H310 C306 0.950 . S
C311 C309 1.390 . S
C311 C312 1.387 . S
C311 H314 0.950 . S
C312 C311 1.387 . S
C312 C315 1.387 1_565 S
H313 C309 0.950 . S
H314 C311 0.950 . S
C315 C306 1.390 . S
C315 H308 0.950 . S
C315 C312 1.387 1_545 S
C316 C317 1.387 . S
C316 H320 0.950 . S
C316 C325 1.390 . S
C317 C316 1.387 . S
C317 C319 1.387 . S
H318 C325 0.950 . S
C319 C317 1.387 . S
C319 C321 1.390 . S
C319 H323 0.950 . S
H320 C316 0.950 . S
C321 C319 1.390 . S
C321 C322 1.387 . S
C321 H324 0.950 . S
C322 C321 1.387 . S
C322 C325 1.387 . S
H323 C319 0.950 . S
H324 C321 0.950 . S
C325 C316 1.390 . S
C325 H318 0.950 . S
C325 C322 1.387 . S
C326 C327 1.387 . S
C326 H330 0.950 . S
C326 C335 1.390 . S
C327 C326 1.387 . S
C327 C329 1.387 . S
H328 C335 0.950 . S
C329 C327 1.387 . S
C329 C331 1.390 . S
C329 H333 0.950 . S
H330 C326 0.950 . S
C331 C329 1.390 . S
C331 C332 1.387 . S
C331 H334 0.950 . S
C332 C331 1.387 . S
C332 C335 1.387 . S
H333 C329 0.950 . S
H334 C331 0.950 . S
C335 C326 1.390 . S
C335 H328 0.950 . S
C335 C332 1.387 . S
C336 C337 1.387 1_554 S
C336 H340 0.950 . S
C336 C345 1.390 . S
C337 C336 1.387 1_556 S
C337 C339 1.387 . S
H338 C345 0.950 . S
C339 C337 1.387 . S
C339 C341 1.379 1_655 S
C339 H343 0.950 . S
H340 C336 0.950 . S
C341 C339 1.379 1_455 S
C341 C342 1.392 . S
C341 H344 0.957 . S
C342 C341 1.392 . S
C342 C345 1.387 1_456 S
H343 C339 0.950 . S
H344 C341 0.957 . S
C345 C336 1.390 . S
C345 H338 0.950 . S
C345 C342 1.387 1_654 S
C346 C347 1.411 . S
C346 H350 0.950 . S
C346 C355 1.390 . S
C347 C346 1.411 . S
C347 C349 1.366 1_545 S
H348 C355 0.950 . S
C349 C347 1.366 1_565 S
C349 C351 1.390 . S
C349 H353 0.950 . S
H350 C346 0.950 . S
C351 C349 1.390 . S
C351 C352 1.387 1_565 S
C351 H354 0.950 . S
C352 C351 1.387 1_545 S
C352 C355 1.387 . S
H353 C349 0.950 . S
H354 C351 0.950 . S
C355 C346 1.390 . S
C355 H348 0.950 . S
C355 C352 1.387 . S
C356 C357 1.387 1_556 S
C356 H360 0.950 . S
C356 C365 1.390 . S
C357 C356 1.387 1_554 S
C357 C359 1.387 . S
H358 C365 0.950 . S
C359 C357 1.387 . S
C359 C361 1.390 . S
C359 H363 0.950 . S
H360 C356 0.950 . S
C361 C359 1.390 . S
C361 C362 1.387 1_554 S
C361 H364 0.950 . S
C362 C361 1.387 1_556 S
C362 C365 1.387 . S
H363 C359 0.950 . S
H364 C361 0.950 . S
C365 C356 1.390 . S
C365 H358 0.950 . S
C365 C362 1.387 . S
C366 C367 1.387 . S
C366 H370 0.950 . S
C366 C375 1.390 1_554 S
C367 C366 1.387 . S
C367 C369 1.387 . S
H368 C375 0.950 . S
C369 C367 1.387 . S
C369 C371 1.390 . S
C369 H373 0.950 . S
H370 C366 0.950 . S
C371 C369 1.390 . S
C371 C372 1.387 1_554 S
C371 H374 0.950 . S
C372 C371 1.387 1_556 S
C372 C375 1.387 . S
H373 C369 0.950 . S
H374 C371 0.950 . S
C375 C366 1.390 1_556 S
C375 H368 0.950 . S
C375 C372 1.387 . S
C376 C377 1.387 . S
C376 H380 0.950 . S
C376 C385 1.390 . S
C377 C376 1.387 . S
C377 C379 1.387 . S
H378 C385 0.950 . S
C379 C377 1.387 . S
C379 C381 1.390 . S
C379 H383 0.950 . S
H380 C376 0.950 . S
C381 C379 1.390 . S
C381 C382 1.387 . S
C381 H384 0.950 . S
C382 C381 1.387 . S
C382 C385 1.387 . S
H383 C379 0.950 . S
H384 C381 0.950 . S
C385 C376 1.390 . S
C385 H378 0.950 . S
C385 C382 1.387 . S
C386 C387 1.387 1_565 S
C386 H390 0.950 . S
C386 C395 1.390 . S
C387 C386 1.387 1_545 S
C387 C389 1.387 . S
H388 C395 0.950 . S
C389 C387 1.387 . S
C389 C391 1.390 . S
C389 H393 0.950 . S
H390 C386 0.950 . S
C391 C389 1.390 . S
C391 C392 1.387 . S
C391 H394 0.950 . S
C392 C391 1.387 . S
C392 C395 1.387 1_545 S
H393 C389 0.950 . S
H394 C391 0.950 . S
C395 C386 1.390 . S
C395 H388 0.950 . S
C395 C392 1.387 1_565 S
C396 C397 1.387 . S
C396 H400 0.950 . S
C396 C405 1.390 . S
C397 C396 1.387 . S
C397 C399 1.387 . S
H398 C405 0.950 . S
C399 C397 1.387 . S
C399 C401 1.390 . S
C399 H403 0.950 . S
H400 C396 0.950 . S
C401 C399 1.390 . S
C401 C402 1.387 . S
C401 H404 0.950 . S
C402 C401 1.387 . S
C402 C405 1.387 . S
H403 C399 0.950 . S
H404 C401 0.950 . S
C405 C396 1.390 . S
C405 H398 0.950 . S
C405 C402 1.387 . S
C406 C407 1.387 . S
C406 H410 0.950 . S
C406 C415 1.390 . S
C407 C406 1.387 . S
C407 C409 1.387 . S
H408 C415 0.950 . S
C409 C407 1.387 . S
C409 C411 1.390 . S
C409 H413 0.950 . S
H410 C406 0.950 . S
C411 C409 1.390 . S
C411 C412 1.387 . S
C411 H414 0.950 . S
C412 C411 1.387 . S
C412 C415 1.387 . S
H413 C409 0.950 . S
H414 C411 0.950 . S
C415 C406 1.390 . S
C415 H408 0.950 . S
C415 C412 1.387 . S
C416 C417 1.387 . S
C416 H420 0.950 1_655 S
C416 C425 1.390 . S
C417 C416 1.387 . S
C417 C419 1.387 . S
H418 C425 0.950 1_455 S
C419 C417 1.387 . S
C419 C421 1.390 . S
C419 H423 0.950 . S
H420 C416 0.950 1_455 S
C421 C419 1.390 . S
C421 C422 1.387 . S
C421 H424 0.950 . S
C422 C421 1.387 . S
C422 C425 1.387 . S
H423 C419 0.950 . S
H424 C421 0.950 . S
C425 C416 1.390 . S
C425 H418 0.950 1_655 S
C425 C422 1.387 . S
C426 C427 1.387 1_545 S
C426 H430 0.950 . S
C426 C435 1.390 . S
C427 C426 1.387 1_565 S
C427 C429 1.387 . S
H428 C435 0.950 . S
C429 C427 1.387 . S
C429 C431 1.390 . S
C429 H433 0.950 . S
H430 C426 0.950 . S
C431 C429 1.390 . S
C431 C432 1.387 . S
C431 H434 0.950 . S
C432 C431 1.387 . S
C432 C435 1.387 1_565 S
H433 C429 0.950 . S
H434 C431 0.950 . S
C435 C426 1.390 . S
C435 H428 0.950 . S
C435 C432 1.387 1_545 S
C436 C437 1.387 . S
C436 H440 0.950 . S
C436 C445 1.390 . S
C437 C436 1.387 . S
C437 C439 1.387 . S
H438 C445 0.950 . S
C439 C437 1.387 . S
C439 C441 1.390 . S
C439 H443 0.950 . S
H440 C436 0.950 . S
C441 C439 1.390 . S
C441 C442 1.387 . S
C441 H444 0.950 . S
C442 C441 1.387 . S
C442 C445 1.387 . S
H443 C439 0.950 . S
H444 C441 0.950 . S
C445 C436 1.390 . S
C445 H438 0.950 . S
C445 C442 1.387 . S
C446 C447 1.387 . S
C446 H450 0.950 . S
C446 C455 1.390 . S
C447 C446 1.387 . S
C447 C449 1.387 . S
H448 C455 0.950 . S
C449 C447 1.387 . S
C449 C451 1.390 . S
C449 H453 0.950 . S
H450 C446 0.950 . S
C451 C449 1.390 . S
C451 C452 1.387 . S
C451 H454 0.950 . S
C452 C451 1.387 . S
C452 C455 1.387 . S
H453 C449 0.950 . S
H454 C451 0.950 . S
C455 C446 1.390 . S
C455 H448 0.950 . S
C455 C452 1.387 . S
C217 C76 1.704 . S
C222 C106 1.720 . S
C232 C136 1.803 . S
C227 C88 1.769 . S
C242 N170 1.380 . S
C237 C52 1.385 . S
C252 N200 1.481 . S
C247 C64 1.451 . S
C262 C97 1.721 . S
C257 C28 1.710 1_545 S
C267 C40 1.781 . S
C272 C127 1.806 . S
C277 C4 1.393 . S
C282 N162 1.382 . S
C287 C16 1.465 . S
C292 N192 1.480 1_655 S
C302 C112 0.727 . S
C297 C69 0.732 . S
C312 C142 1.105 . S
C307 C81 1.040 1_565 S
C322 C183 1.360 . S
C317 C93 1.328 . S
C327 C57 0.848 . S
C332 C213 0.846 . S
C337 C21 0.742 1_556 S
C342 C123 0.737 . S
C352 C153 1.104 . S
C347 C33 1.033 . S
C362 C172 1.359 . S
C357 C45 1.319 . S
C367 C9 0.845 . S
C372 C202 0.846 . S
C377 C66 1.474 . S
C382 N102 1.489 . S
C387 C78 1.430 . S
C392 N132 1.445 . S
C402 C157 1.668 1_554 S
C397 C90 1.638 . S
C412 C187 1.597 1_554 S
C407 C54 1.564 . S
C417 C18 1.461 . S
C422 N110 1.496 . S
C432 N140 1.445 . S
C427 C30 1.440 1_565 S
C442 C166 1.668 . S
C437 C42 1.632 . S
C447 C6 1.566 . S
C452 C196 1.597 . S
