# Generated by pormake.
# Topology pto, (3,4)-cn, num edge types: 1
# Building blocks:
#     Node 0, Type 0, BuildingBlock: KAKCAD_clean_linker_0, # of connection points: 3
#     Node 1, Type 0, BuildingBlock: KAKCAD_clean_linker_0, # of connection points: 3
#     Node 2, Type 0, BuildingBlock: KAKCAD_clean_linker_0, # of connection points: 3
#     Node 3, Type 0, BuildingBlock: KAKCAD_clean_linker_0, # of connection points: 3
#     Node 4, Type 0, BuildingBlock: KAKCAD_clean_linker_0, # of connection points: 3
#     Node 5, Type 0, BuildingBlock: KAKCAD_clean_linker_0, # of connection points: 3
#     Node 6, Type 0, BuildingBlock: KAKCAD_clean_linker_0, # of connection points: 3
#     Node 7, Type 0, BuildingBlock: KAKCAD_clean_linker_0, # of connection points: 3
#     Node 8, Type 1, BuildingBlock: NAWXER_clean_sbu_0, # of connection points: 4
#     Node 9, Type 1, BuildingBlock: NAWXER_clean_sbu_0, # of connection points: 4
#     Node 10, Type 1, BuildingBlock: NAWXER_clean_sbu_0, # of connection points: 4
#     Node 11, Type 1, BuildingBlock: NAWXER_clean_sbu_0, # of connection points: 4
#     Node 12, Type 1, BuildingBlock: NAWXER_clean_sbu_0, # of connection points: 4
#     Node 13, Type 1, BuildingBlock: NAWXER_clean_sbu_0, # of connection points: 4
#     Edge 14, Type (0, 1), BuildingBlock: OJICUG_clean_linker_0, # of connection points: 2
#     Edge 15, Type (0, 1), BuildingBlock: OJICUG_clean_linker_0, # of connection points: 2
#     Edge 16, Type (0, 1), BuildingBlock: OJICUG_clean_linker_0, # of connection points: 2
#     Edge 17, Type (0, 1), BuildingBlock: OJICUG_clean_linker_0, # of connection points: 2
#     Edge 18, Type (0, 1), BuildingBlock: OJICUG_clean_linker_0, # of connection points: 2
#     Edge 19, Type (0, 1), BuildingBlock: OJICUG_clean_linker_0, # of connection points: 2
#     Edge 20, Type (0, 1), BuildingBlock: OJICUG_clean_linker_0, # of connection points: 2
#     Edge 21, Type (0, 1), BuildingBlock: OJICUG_clean_linker_0, # of connection points: 2
#     Edge 22, Type (0, 1), BuildingBlock: OJICUG_clean_linker_0, # of connection points: 2
#     Edge 23, Type (0, 1), BuildingBlock: OJICUG_clean_linker_0, # of connection points: 2
#     Edge 24, Type (0, 1), BuildingBlock: OJICUG_clean_linker_0, # of connection points: 2
#     Edge 25, Type (0, 1), BuildingBlock: OJICUG_clean_linker_0, # of connection points: 2
#     Edge 26, Type (0, 1), BuildingBlock: OJICUG_clean_linker_0, # of connection points: 2
#     Edge 27, Type (0, 1), BuildingBlock: OJICUG_clean_linker_0, # of connection points: 2
#     Edge 28, Type (0, 1), BuildingBlock: OJICUG_clean_linker_0, # of connection points: 2
#     Edge 29, Type (0, 1), BuildingBlock: OJICUG_clean_linker_0, # of connection points: 2
#     Edge 30, Type (0, 1), BuildingBlock: OJICUG_clean_linker_0, # of connection points: 2
#     Edge 31, Type (0, 1), BuildingBlock: OJICUG_clean_linker_0, # of connection points: 2
#     Edge 32, Type (0, 1), BuildingBlock: OJICUG_clean_linker_0, # of connection points: 2
#     Edge 33, Type (0, 1), BuildingBlock: OJICUG_clean_linker_0, # of connection points: 2
#     Edge 34, Type (0, 1), BuildingBlock: OJICUG_clean_linker_0, # of connection points: 2
#     Edge 35, Type (0, 1), BuildingBlock: OJICUG_clean_linker_0, # of connection points: 2
#     Edge 36, Type (0, 1), BuildingBlock: OJICUG_clean_linker_0, # of connection points: 2
#     Edge 37, Type (0, 1), BuildingBlock: OJICUG_clean_linker_0, # of connection points: 2
# Relax obj value: 0.000
# Max RMSD: 0.003
# Mean RMSD: 0.002
data_MOF--net-pto--node1-NAWXER_clean_sbu_0--node2-KAKCAD_clean_linker_0--edge1-OJICUG_clean_linker_0
_symmetry_space_group_name_H-M    P1
_symmetry_Int_Tables_number       1
_symmetry_cell_setting            triclinic
loop_
_symmetry_equiv_pos_as_xyz
'x, y, z'
_cell_length_a     41.561868
_cell_length_b     39.050256
_cell_length_c     36.618093
_cell_angle_alpha  90.40297
_cell_angle_beta   90.575878
_cell_angle_gamma 90.429504
loop_
_atom_site_label
_atom_site_type_symbol
_atom_site_fract_x
_atom_site_fract_y
_atom_site_fract_z
_atom_type_partial_charge
C0 C 0.24977 0.17018 0.35194 0.0
C1 C 0.22196 0.15015 0.35744 0.0
C2 C 0.251 0.19407 0.32384 0.0
C3 C 0.22432 0.19901 0.30074 0.0
C4 C 0.19597 0.1802 0.307 0.0
C5 C 0.19484 0.15587 0.33498 0.0
C6 C 0.22686 0.22293 0.26954 0.0
C7 C 0.2535 0.22096 0.24633 0.0
C8 C 0.25763 0.24439 0.2178 0.0
C9 C 0.23425 0.26976 0.21241 0.0
C10 C 0.20733 0.27231 0.23529 0.0
C11 C 0.20375 0.24846 0.26373 0.0
C12 C 0.18384 0.3007 0.23019 0.0
C13 C 0.1944 0.33343 0.21928 0.0
C14 C 0.15079 0.29557 0.23642 0.0
C15 C 0.12905 0.32253 0.23239 0.0
C16 C 0.13978 0.35508 0.22151 0.0
C17 C 0.28693 0.24333 0.19458 0.0
C18 C 0.31712 0.235 0.2098 0.0
C19 C 0.28524 0.25193 0.15733 0.0
C20 C 0.31306 0.25334 0.13628 0.0
C21 C 0.34313 0.24554 0.15175 0.0
C22 C 0.34486 0.23581 0.18852 0.0
C23 C 0.1726 0.36015 0.21467 0.0
H24 H 0.27081 0.16735 0.3693 0.0
H25 H 0.27296 0.2087 0.32007 0.0
H26 H 0.17506 0.18351 0.28951 0.0
H27 H 0.17306 0.14085 0.33826 0.0
H28 H 0.27095 0.20084 0.25046 0.0
H29 H 0.18375 0.25054 0.28235 0.0
H30 H 0.2373 0.28801 0.1906 0.0
H31 H 0.21968 0.33878 0.21508 0.0
H32 H 0.14163 0.27069 0.24427 0.0
H33 H 0.1038 0.31793 0.23772 0.0
H34 H 0.31958 0.22883 0.23846 0.0
H35 H 0.26242 0.25772 0.14436 0.0
H36 H 0.18158 0.38515 0.20691 0.0
H37 H 0.36785 0.22997 0.20112 0.0
H38 H 0.3111 0.26055 0.10783 0.0
C39 C 0.34274 0.75865 0.83647 0.0
C40 C 0.35411 0.72586 0.84543 0.0
C41 C 0.31345 0.76268 0.81815 0.0
C42 C 0.29497 0.73402 0.80726 0.0
C43 C 0.30718 0.70113 0.81445 0.0
C44 C 0.33623 0.69711 0.83356 0.0
C45 C 0.26268 0.73856 0.78976 0.0
C46 C 0.25652 0.7666 0.76689 0.0
C47 C 0.22573 0.77204 0.75179 0.0
C48 C 0.20102 0.74818 0.75867 0.0
C49 C 0.20691 0.71953 0.7808 0.0
C50 C 0.23753 0.71536 0.79666 0.0
C51 C 0.18174 0.69299 0.78659 0.0
C52 C 0.15005 0.70184 0.79565 0.0
C53 C 0.18963 0.6582 0.78304 0.0
C54 C 0.1663 0.63284 0.78773 0.0
C55 C 0.13453 0.64158 0.79626 0.0
C56 C 0.22005 0.8026 0.72856 0.0
C57 C 0.23316 0.83455 0.73893 0.0
C58 C 0.20324 0.79989 0.69511 0.0
C59 C 0.20104 0.82812 0.67177 0.0
C60 C 0.21561 0.85959 0.68145 0.0
C61 C 0.23097 0.86265 0.7157 0.0
C62 C 0.12666 0.67629 0.80071 0.0
H63 H 0.3562 0.78147 0.84414 0.0
H64 H 0.30496 0.78844 0.81355 0.0
H65 H 0.29414 0.67836 0.80573 0.0
H66 H 0.34409 0.67145 0.83994 0.0
H67 H 0.2759 0.78408 0.76022 0.0
H68 H 0.24148 0.69412 0.815 0.0
H69 H 0.17737 0.75171 0.74662 0.0
H70 H 0.14341 0.72845 0.79884 0.0
H71 H 0.21377 0.65058 0.77583 0.0
H72 H 0.17301 0.60627 0.7842 0.0
H73 H 0.24564 0.8377 0.76486 0.0
H74 H 0.193 0.77559 0.68627 0.0
H75 H 0.10224 0.68367 0.80696 0.0
H76 H 0.24186 0.8867 0.72431 0.0
H77 H 0.18921 0.82487 0.64548 0.0
C78 C 0.67016 0.67958 0.15279 0.0
C79 C 0.65163 0.70679 0.13941 0.0
C80 C 0.69606 0.68598 0.17673 0.0
C81 C 0.70395 0.7197 0.1876 0.0
C82 C 0.68555 0.74681 0.17389 0.0
C83 C 0.65978 0.74045 0.1501 0.0
C84 C 0.73169 0.72696 0.21247 0.0
C85 C 0.76095 0.70997 0.20765 0.0
C86 C 0.78779 0.71746 0.23007 0.0
C87 C 0.78506 0.74293 0.25735 0.0
C88 C 0.75593 0.76055 0.26243 0.0
C89 C 0.72933 0.75192 0.24011 0.0
C90 C 0.75326 0.78843 0.2904 0.0
C91 C 0.76874 0.78587 0.3246 0.0
C92 C 0.7353 0.81808 0.28293 0.0
C93 C 0.73312 0.84453 0.30876 0.0
C94 C 0.74911 0.84219 0.3426 0.0
C95 C 0.81856 0.69874 0.22447 0.0
C96 C 0.81814 0.6637 0.21508 0.0
C97 C 0.8485 0.71559 0.22802 0.0
C98 C 0.8772 0.69775 0.22271 0.0
C99 C 0.87662 0.66277 0.21335 0.0
C100 C 0.84677 0.64603 0.20938 0.0
C101 C 0.76677 0.81246 0.35031 0.0
H102 H 0.66438 0.65339 0.14515 0.0
H103 H 0.70969 0.66452 0.18703 0.0
H104 H 0.69142 0.77311 0.181 0.0
H105 H 0.64653 0.76209 0.13957 0.0
H106 H 0.7631 0.6916 0.18552 0.0
H107 H 0.7065 0.76447 0.24443 0.0
H108 H 0.80568 0.74919 0.27449 0.0
H109 H 0.78226 0.76323 0.33166 0.0
H110 H 0.72348 0.82132 0.2567 0.0
H111 H 0.71973 0.86729 0.30177 0.0
H112 H 0.79564 0.64964 0.21279 0.0
H113 H 0.84982 0.74264 0.23457 0.0
H114 H 0.77907 0.80971 0.37634 0.0
H115 H 0.84556 0.61892 0.20295 0.0
H116 H 0.89989 0.71134 0.22584 0.0
C117 C 0.77483 0.157 0.66983 0.0
C118 C 0.74544 0.15125 0.65122 0.0
C119 C 0.7767 0.17942 0.69968 0.0
C120 C 0.7492 0.19651 0.71192 0.0
C121 C 0.71974 0.19067 0.69353 0.0
C122 C 0.71788 0.1683 0.66352 0.0
C123 C 0.75117 0.21985 0.74417 0.0
C124 C 0.77698 0.24312 0.74847 0.0
C125 C 0.77901 0.26509 0.77907 0.0
C126 C 0.75462 0.26359 0.80535 0.0
C127 C 0.72864 0.24048 0.80161 0.0
C128 C 0.72729 0.21862 0.77098 0.0
C129 C 0.70278 0.23946 0.82949 0.0
C130 C 0.71008 0.24466 0.86676 0.0
C131 C 0.67044 0.23406 0.81898 0.0
C132 C 0.64605 0.23436 0.84497 0.0
C133 C 0.6534 0.24062 0.88189 0.0
C134 C 0.80644 0.28972 0.78361 0.0
C135 C 0.83783 0.2803 0.77385 0.0
C136 C 0.8015 0.32284 0.79788 0.0
C137 C 0.82719 0.34594 0.80203 0.0
C138 C 0.85839 0.33665 0.79165 0.0
C139 C 0.86345 0.30352 0.77768 0.0
C140 C 0.68561 0.24556 0.89261 0.0
H141 H 0.79643 0.14377 0.66165 0.0
H142 H 0.79962 0.18287 0.71362 0.0
H143 H 0.69816 0.20374 0.70208 0.0
H144 H 0.69496 0.16479 0.64961 0.0
H145 H 0.79509 0.24466 0.72746 0.0
H146 H 0.70798 0.19995 0.76835 0.0
H147 H 0.75585 0.28057 0.82883 0.0
H148 H 0.73471 0.2481 0.87606 0.0
H149 H 0.66377 0.23052 0.79054 0.0
H150 H 0.6213 0.23087 0.83603 0.0
H151 H 0.84269 0.25485 0.76344 0.0
H152 H 0.77763 0.33127 0.80513 0.0
H153 H 0.69185 0.25014 0.92103 0.0
H154 H 0.8873 0.29553 0.76975 0.0
H155 H 0.82245 0.37147 0.8123 0.0
C156 C 0.80842 0.83577 0.63856 0.0
C157 C 0.80491 0.86976 0.65054 0.0
C158 C 0.8016 0.80857 0.66188 0.0
C159 C 0.7913 0.81471 0.69782 0.0
C160 C 0.78884 0.84874 0.71018 0.0
C161 C 0.79554 0.87596 0.68678 0.0
C162 C 0.78278 0.78563 0.722 0.0
C163 C 0.80143 0.75589 0.72172 0.0
C164 C 0.79316 0.72743 0.74297 0.0
C165 C 0.76629 0.72962 0.76601 0.0
C166 C 0.74733 0.75945 0.76724 0.0
C167 C 0.75572 0.78715 0.74469 0.0
C168 C 0.71859 0.76157 0.79156 0.0
C169 C 0.69975 0.73235 0.79872 0.0
C170 C 0.70964 0.79286 0.80783 0.0
C171 C 0.68253 0.7949 0.83016 0.0
C172 C 0.6638 0.76559 0.83747 0.0
C173 C 0.81313 0.69587 0.74114 0.0
C174 C 0.82685 0.68536 0.7079 0.0
C175 C 0.81979 0.67679 0.77267 0.0
C176 C 0.84051 0.64879 0.77125 0.0
C177 C 0.85559 0.63941 0.73839 0.0
C178 C 0.84797 0.65771 0.70659 0.0
C179 C 0.67307 0.73424 0.82159 0.0
H180 H 0.81501 0.83015 0.61062 0.0
H181 H 0.80337 0.78269 0.6513 0.0
H182 H 0.78157 0.85435 0.73789 0.0
H183 H 0.79289 0.90192 0.69687 0.0
H184 H 0.82292 0.75516 0.70524 0.0
H185 H 0.74067 0.80965 0.74393 0.0
H186 H 0.76018 0.708 0.78298 0.0
H187 H 0.7053 0.70785 0.78641 0.0
H188 H 0.72371 0.81591 0.80362 0.0
H189 H 0.67619 0.81962 0.84138 0.0
H190 H 0.82168 0.69887 0.68281 0.0
H191 H 0.80984 0.68405 0.79879 0.0
H192 H 0.65993 0.71083 0.82701 0.0
H193 H 0.8591 0.65146 0.68081 0.0
H194 H 0.84508 0.63482 0.79618 0.0
C195 C 0.64994 0.29924 0.21488 0.0
C196 C 0.65126 0.31617 0.18118 0.0
C197 C 0.67732 0.29684 0.23715 0.0
C198 C 0.70683 0.31117 0.22627 0.0
C199 C 0.70792 0.32916 0.19313 0.0
C200 C 0.68042 0.33167 0.17085 0.0
C201 C 0.73645 0.30615 0.2489 0.0
C202 C 0.74224 0.27427 0.26524 0.0
C203 C 0.76943 0.26899 0.28765 0.0
C204 C 0.79161 0.29605 0.29255 0.0
C205 C 0.78693 0.32787 0.27559 0.0
C206 C 0.75904 0.33277 0.25412 0.0
C207 C 0.81204 0.35524 0.27896 0.0
C208 C 0.82932 0.36052 0.31186 0.0
C209 C 0.82041 0.3748 0.24839 0.0
C210 C 0.8462 0.39787 0.25016 0.0
C211 C 0.8646 0.4018 0.28242 0.0
C212 C 0.77413 0.23561 0.30667 0.0
C213 C 0.74742 0.2169 0.31913 0.0
C214 C 0.80513 0.22257 0.3136 0.0
C215 C 0.80925 0.1925 0.33372 0.0
C216 C 0.78246 0.17438 0.34694 0.0
C217 C 0.75151 0.18657 0.33844 0.0
C218 C 0.85534 0.3835 0.31356 0.0
H219 H 0.62772 0.28755 0.22394 0.0
H220 H 0.67539 0.28349 0.26287 0.0
H221 H 0.73028 0.34029 0.18376 0.0
H222 H 0.68232 0.34463 0.1449 0.0
H223 H 0.72565 0.25327 0.2599 0.0
H224 H 0.75467 0.35751 0.2419 0.0
H225 H 0.81277 0.29231 0.30946 0.0
H226 H 0.82314 0.3464 0.33618 0.0
H227 H 0.80786 0.37137 0.22254 0.0
H228 H 0.8522 0.41212 0.22586 0.0
H229 H 0.72315 0.22603 0.31489 0.0
H230 H 0.82634 0.23567 0.30376 0.0
H231 H 0.86893 0.38592 0.33884 0.0
H232 H 0.73018 0.17293 0.34713 0.0
H233 H 0.83347 0.18405 0.33969 0.0
C234 C 0.34753 0.33641 0.86047 0.0
C235 C 0.37929 0.32663 0.85308 0.0
C236 C 0.32347 0.3331 0.83356 0.0
C237 C 0.33076 0.3202 0.79862 0.0
C238 C 0.36298 0.31249 0.79073 0.0
C239 C 0.38689 0.31549 0.81767 0.0
C240 C 0.30466 0.31203 0.7716 0.0
C241 C 0.27762 0.33335 0.76768 0.0
C242 C 0.25199 0.32415 0.74396 0.0
C243 C 0.25377 0.29325 0.72422 0.0
C244 C 0.28059 0.27192 0.7275 0.0
C245 C 0.30595 0.2815 0.75099 0.0
C246 C 0.28139 0.23901 0.70716 0.0
C247 C 0.25492 0.21654 0.70819 0.0
C248 C 0.30805 0.23031 0.68585 0.0
C249 C 0.30771 0.20021 0.66484 0.0
C250 C 0.28082 0.17807 0.66509 0.0
C251 C 0.22253 0.34554 0.74087 0.0
C252 C 0.20913 0.36081 0.77201 0.0
C253 C 0.20635 0.34899 0.70712 0.0
C254 C 0.17686 0.36593 0.70486 0.0
C255 C 0.16289 0.3801 0.73626 0.0
C256 C 0.17979 0.37797 0.7697 0.0
C257 C 0.25472 0.18633 0.68762 0.0
H258 H 0.34093 0.34485 0.8876 0.0
H259 H 0.29892 0.33902 0.84075 0.0
H260 H 0.36964 0.30328 0.7639 0.0
H261 H 0.41128 0.30827 0.81106 0.0
H262 H 0.27663 0.35719 0.78291 0.0
H263 H 0.32605 0.26425 0.75438 0.0
H264 H 0.23396 0.28536 0.70654 0.0
H265 H 0.2343 0.22238 0.72494 0.0
H266 H 0.32871 0.24732 0.68454 0.0
H267 H 0.3281 0.1949 0.64758 0.0
H268 H 0.22073 0.35854 0.79848 0.0
H269 H 0.21623 0.33809 0.68241 0.0
H270 H 0.23397 0.16951 0.68929 0.0
H271 H 0.17018 0.38928 0.79434 0.0
H272 H 0.1646 0.36698 0.67867 0.0
C273 C 0.30393 0.86292 0.3435 0.0
C274 C 0.29529 0.85399 0.37915 0.0
C275 C 0.30294 0.83846 0.31547 0.0
C276 C 0.29366 0.80442 0.32261 0.0
C277 C 0.2864 0.79527 0.35872 0.0
C278 C 0.28698 0.81985 0.38662 0.0
C279 C 0.29003 0.7791 0.29221 0.0
C280 C 0.31135 0.77938 0.2627 0.0
C281 C 0.30682 0.75731 0.2325 0.0
C282 C 0.28082 0.73387 0.23278 0.0
C283 C 0.25989 0.73236 0.26274 0.0
C284 C 0.2645 0.75532 0.29201 0.0
C285 C 0.23286 0.70718 0.26366 0.0
C286 C 0.21256 0.70231 0.23317 0.0
C287 C 0.2267 0.68847 0.29556 0.0
C288 C 0.20083 0.6654 0.29695 0.0
C289 C 0.18032 0.6606 0.26653 0.0
C290 C 0.32966 0.75866 0.20123 0.0
C291 C 0.3437 0.78994 0.19057 0.0
C292 C 0.33849 0.72866 0.18252 0.0
C293 C 0.3612 0.7298 0.1546 0.0
C294 C 0.37622 0.76088 0.14496 0.0
C295 C 0.36684 0.791 0.16311 0.0
C296 C 0.18652 0.67946 0.23465 0.0
H297 H 0.31006 0.88917 0.33696 0.0
H298 H 0.30825 0.8466 0.28796 0.0
H299 H 0.27986 0.76918 0.36541 0.0
H300 H 0.28052 0.81228 0.41401 0.0
H301 H 0.33191 0.79658 0.26362 0.0
H302 H 0.24744 0.7553 0.31419 0.0
H303 H 0.27684 0.71667 0.20983 0.0
H304 H 0.21639 0.71673 0.20841 0.0
H305 H 0.24215 0.69143 0.31939 0.0
H306 H 0.19722 0.65097 0.32174 0.0
H307 H 0.33704 0.81378 0.20362 0.0
H308 H 0.3285 0.70402 0.18994 0.0
H309 H 0.17094 0.67701 0.21088 0.0
H310 H 0.37786 0.81542 0.1568 0.0
H311 H 0.36705 0.70611 0.14075 0.0
C312 C 0.9777 0.48906 0.27541 0.0
C313 C 0.07117 0.56673 0.26796 0.0
O314 O 0.99159 0.50367 0.30258 0.0
Zn315 Zn 0.024 0.52837 0.27413 0.0
O316 O 0.98759 0.495 0.24304 0.0
Zn317 Zn 0.02307 0.52422 0.21529 0.0
O318 O 0.04744 0.48825 0.19138 0.0
O319 O 0.05075 0.48668 0.25164 0.0
O320 O 0.06038 0.55612 0.23697 0.0
O321 O 0.05726 0.55722 0.29704 0.0
O322 O 0.99457 0.56482 0.24707 0.0
O323 O 0.99605 0.55562 0.18757 0.0
C324 C 0.0578 0.47401 0.22034 0.0
C325 C 0.9855 0.57259 0.21467 0.0
C326 C 0.95708 0.44202 0.79128 0.0
C327 C 0.03607 0.5363 0.79412 0.0
O328 O 0.9682 0.45695 0.81978 0.0
Zn329 Zn 0.99602 0.48999 0.79531 0.0
O330 O 0.96582 0.45226 0.75972 0.0
Zn331 Zn 0.99563 0.49043 0.73616 0.0
O332 O 0.02713 0.46351 0.70963 0.0
O333 O 0.03123 0.45849 0.76961 0.0
O334 O 0.02719 0.52634 0.76217 0.0
O335 O 0.02362 0.52261 0.8222 0.0
O336 O 0.96258 0.52393 0.77133 0.0
O337 O 0.96469 0.52008 0.71127 0.0
C338 C 0.04108 0.45083 0.73753 0.0
C339 C 0.95269 0.53344 0.73982 0.0
C340 C 0.22559 0.96777 0.5743 0.0
C341 C 0.22708 0.04925 0.47293 0.0
O342 O 0.2014 0.98001 0.55746 0.0
Zn343 Zn 0.22521 0.00913 0.52415 0.0
O344 O 0.254 0.97749 0.56547 0.0
Zn345 Zn 0.27649 0.01093 0.52696 0.0
O346 O 0.2981 0.04439 0.55786 0.0
O347 O 0.24519 0.04824 0.55924 0.0
O348 O 0.25515 0.0417 0.48512 0.0
O349 O 0.20236 0.03619 0.48777 0.0
O350 O 0.24966 0.97173 0.49144 0.0
O351 O 0.30206 0.97967 0.49852 0.0
C352 C 0.27304 0.05908 0.56964 0.0
C353 C 0.27864 0.96319 0.48408 0.0
C354 C 0.55322 0.70451 0.02896 0.0
C355 C 0.46859 0.71614 0.93629 0.0
O356 O 0.54135 0.67995 0.01002 0.0
Zn357 Zn 0.51294 0.70825 0.97994 0.0
O358 O 0.54524 0.7354 0.0221 0.0
Zn359 Zn 0.5153 0.76328 0.98599 0.0
O360 O 0.48788 0.78671 0.02078 0.0
O361 O 0.4821 0.73031 0.02074 0.0
O362 O 0.47955 0.74458 0.94903 0.0
O363 O 0.48149 0.6881 0.9459 0.0
O364 O 0.54588 0.73268 0.94432 0.0
O365 O 0.54615 0.78817 0.95588 0.0
C366 C 0.47464 0.75984 0.03355 0.0
C367 C 0.55672 0.76277 0.93784 0.0
C368 C 0.80147 0.97002 0.53639 0.0
C369 C 0.79187 0.05468 0.43903 0.0
O370 O 0.77258 0.97667 0.5265 0.0
Zn371 Zn 0.74699 1.00601 0.48749 0.0
O372 O 0.82502 0.98311 0.51924 0.0
Zn373 Zn 0.79897 0.00986 0.48512 0.0
O374 O 0.77565 0.04462 0.52187 0.0
O375 O 0.72304 0.03547 0.52073 0.0
O376 O 0.81813 0.04164 0.45024 0.0
O377 O 0.765 0.04314 0.45074 0.0
O378 O 0.72598 0.97131 0.4562 0.0
O379 O 0.77876 0.97078 0.45147 0.0
C380 C 0.74741 0.05204 0.53313 0.0
C381 C 0.75119 0.95828 0.44262 0.0
C382 C 0.54534 0.31004 0.07695 0.0
C383 C 0.46962 0.31379 0.97353 0.0
O384 O 0.53618 0.28026 0.06592 0.0
Zn385 Zn 0.50446 0.25847 0.02524 0.0
O386 O 0.5336 0.33647 0.06191 0.0
Zn387 Zn 0.50632 0.31286 0.0262 0.0
O388 O 0.46853 0.29046 0.05803 0.0
O389 O 0.47278 0.23431 0.05352 0.0
O390 O 0.48181 0.33921 0.99079 0.0
O391 O 0.47625 0.28328 0.98378 0.0
O392 O 0.53353 0.23209 0.99582 0.0
O393 O 0.5416 0.28799 0.99253 0.0
C394 C 0.45837 0.26036 0.06606 0.0
C395 C 0.5493 0.25738 0.98335 0.0
C396 C 0.11664 0.40611 0.18915 0.0
C397 C 0.11723 0.38429 0.21957 0.0
H398 H 0.09679 0.45146 0.16509 0.0
C399 C 0.09724 0.39149 0.24924 0.0
H400 H 0.1318 0.40101 0.16587 0.0
C401 C 0.07776 0.42044 0.24905 0.0
C402 C 0.07739 0.44257 0.21892 0.0
H403 H 0.09741 0.37529 0.27314 0.0
H404 H 0.06306 0.42559 0.2727 0.0
C405 C 0.09658 0.43482 0.18864 0.0
C406 C 0.08782 0.61164 0.82645 0.0
C407 C 0.10942 0.61447 0.79724 0.0
H408 H 0.04776 0.58389 0.84903 0.0
C409 C 0.10707 0.59105 0.76813 0.0
H410 H 0.08928 0.62939 0.84928 0.0
C411 C 0.08348 0.56561 0.76784 0.0
C412 C 0.06176 0.56259 0.79683 0.0
H413 H 0.1232 0.59278 0.74514 0.0
H414 H 0.08227 0.54821 0.74467 0.0
C415 C 0.06432 0.58556 0.82645 0.0
C416 C 0.9112 0.61914 0.18178 0.0
C417 C 0.90691 0.64305 0.21025 0.0
H418 H 0.94008 0.57848 0.16024 0.0
C419 C 0.93069 0.64607 0.23759 0.0
H420 H 0.89335 0.61648 0.16018 0.0
C421 C 0.95717 0.62429 0.23774 0.0
C422 C 0.96073 0.59928 0.21029 0.0
H423 H 0.92799 0.66406 0.25999 0.0
H424 H 0.97432 0.62622 0.26016 0.0
C425 C 0.93805 0.59762 0.18162 0.0
C426 C 0.90538 0.36608 0.76311 0.0
C427 C 0.88516 0.36211 0.79327 0.0
H428 H 0.94381 0.39428 0.739 0.0
C429 C 0.88992 0.38353 0.82398 0.0
H430 H 0.90215 0.35024 0.73892 0.0
C431 C 0.91412 0.40878 0.82419 0.0
C432 C 0.93357 0.41341 0.79342 0.0
H433 H 0.8748 0.38087 0.84773 0.0
H434 H 0.91691 0.42533 0.84789 0.0
C435 C 0.92914 0.3915 0.7631 0.0
C436 C 0.25003 0.10384 0.39232 0.0
C437 C 0.222 0.12291 0.38586 0.0
H438 H 0.27348 0.06594 0.42454 0.0
C439 C 0.19465 0.116 0.40712 0.0
H440 H 0.27127 0.10758 0.37588 0.0
C441 C 0.19576 0.09136 0.43485 0.0
C442 C 0.2243 0.07341 0.44203 0.0
H443 H 0.17268 0.13025 0.40304 0.0
H444 H 0.17462 0.08712 0.45132 0.0
C445 C 0.25124 0.07968 0.42014 0.0
C446 C 0.40498 0.69463 0.86416 0.0
C447 C 0.38352 0.72214 0.86873 0.0
H448 H 0.44884 0.67077 0.88224 0.0
C449 C 0.39009 0.74638 0.89641 0.0
H450 H 0.40082 0.67553 0.84303 0.0
C451 C 0.41771 0.74404 0.91795 0.0
C452 C 0.43932 0.71697 0.91315 0.0
H453 H 0.37373 0.76721 0.90185 0.0
H454 H 0.42191 0.7634 0.93885 0.0
C455 C 0.43253 0.69191 0.88644 0.0
C456 C 0.72034 0.88924 0.37669 0.0
C457 C 0.74885 0.8714 0.36897 0.0
H458 H 0.69846 0.93052 0.40639 0.0
C459 C 0.77764 0.88221 0.38593 0.0
H460 H 0.69773 0.88137 0.36416 0.0
C461 C 0.77809 0.9103 0.40969 0.0
C462 C 0.74971 0.92827 0.41748 0.0
H463 H 0.80006 0.86936 0.38024 0.0
H464 H 0.80087 0.9179 0.42201 0.0
C465 C 0.72072 0.91727 0.40095 0.0
C466 C 0.62575 0.27325 0.93102 0.0
C467 C 0.62737 0.24387 0.90887 0.0
H468 H 0.59956 0.30063 0.97167 0.0
C469 C 0.60355 0.21836 0.91193 0.0
H470 H 0.64371 0.29338 0.92893 0.0
C471 C 0.57848 0.22224 0.93682 0.0
C472 C 0.57648 0.25205 0.95836 0.0
H473 H 0.60441 0.19544 0.89513 0.0
H474 H 0.56029 0.20232 0.93858 0.0
C475 C 0.6004 0.27745 0.95528 0.0
C476 C 0.1902 0.89744 0.63356 0.0
C477 C 0.21705 0.88838 0.65505 0.0
H478 H 0.17156 0.93006 0.59147 0.0
C479 C 0.24607 0.90648 0.65051 0.0
H480 H 0.16746 0.88408 0.63657 0.0
C481 C 0.24842 0.93257 0.62484 0.0
C482 C 0.22179 0.94148 0.60303 0.0
H483 H 0.26735 0.89987 0.66618 0.0
H484 H 0.27138 0.94552 0.62184 0.0
C485 C 0.19249 0.92389 0.60793 0.0
C486 C 0.59599 0.72022 0.11801 0.0
C487 C 0.62404 0.70082 0.11398 0.0
H488 H 0.55151 0.7361 0.09414 0.0
C489 C 0.62633 0.67824 0.08394 0.0
H490 H 0.59305 0.73712 0.14132 0.0
C491 C 0.60201 0.67718 0.05704 0.0
C492 C 0.57539 0.69887 0.05987 0.0
H493 H 0.64768 0.66295 0.08012 0.0
H494 H 0.60506 0.66123 0.03302 0.0
C495 C 0.5721 0.71946 0.09114 0.0
C496 C 0.7694 0.12703 0.5942 0.0
C497 C 0.74393 0.12763 0.6191 0.0
H498 H 0.79016 0.10309 0.54761 0.0
C499 C 0.71787 0.10478 0.6136 0.0
H500 H 0.78942 0.14482 0.59691 0.0
C501 C 0.71806 0.08093 0.58472 0.0
C502 C 0.74441 0.07941 0.56106 0.0
H503 H 0.69789 0.10448 0.63234 0.0
H504 H 0.69827 0.06288 0.58183 0.0
C505 C 0.76971 0.10318 0.56573 0.0
C506 C 0.37916 0.27964 0.11149 0.0
C507 C 0.37276 0.249 0.12995 0.0
H508 H 0.41148 0.30737 0.07733 0.0
C509 C 0.39489 0.22207 0.12771 0.0
H510 H 0.36257 0.30086 0.11307 0.0
C511 C 0.42274 0.22557 0.10681 0.0
C512 C 0.42923 0.25636 0.08852 0.0
H513 H 0.3904 0.19818 0.14169 0.0
H514 H 0.43928 0.20433 0.10521 0.0
C515 C 0.40724 0.2834 0.09127 0.0
C516 C 0.88418 0.5901 0.70743 0.0
C517 C 0.88041 0.61199 0.7379 0.0
H518 H 0.91024 0.54814 0.6838 0.0
C519 C 0.90127 0.60812 0.768 0.0
H520 H 0.86844 0.5921 0.68383 0.0
C521 C 0.9246 0.58273 0.76814 0.0
C522 C 0.92824 0.56073 0.73797 0.0
H523 H 0.89995 0.62504 0.79148 0.0
H524 H 0.9401 0.5806 0.79198 0.0
C525 C 0.90805 0.56485 0.70737 0.0
C526 C 0.90307 0.44447 0.31233 0.0
C527 C 0.8944 0.42323 0.28247 0.0
H528 H 0.93647 0.48211 0.3338 0.0
C529 C 0.91458 0.42238 0.25197 0.0
H530 H 0.88805 0.44567 0.33628 0.0
C531 C 0.94187 0.44315 0.25053 0.0
C532 C 0.95007 0.46527 0.27966 0.0
H533 H 0.9093 0.40558 0.22899 0.0
H534 H 0.95648 0.44199 0.22622 0.0
C535 C 0.93076 0.46531 0.31095 0.0
C536 C 0.12086 0.41627 0.70461 0.0
C537 C 0.13047 0.3962 0.73459 0.0
H538 H 0.08471 0.44902 0.68165 0.0
C539 C 0.10889 0.39183 0.76353 0.0
H540 H 0.13689 0.42033 0.68189 0.0
C541 C 0.0793 0.40844 0.76347 0.0
C542 C 0.07023 0.42954 0.73427 0.0
H543 H 0.11494 0.37577 0.78655 0.0
H544 H 0.06373 0.40524 0.78677 0.0
C545 C 0.09094 0.43268 0.70438 0.0
C546 C 0.14443 0.61627 0.23672 0.0
C547 C 0.15278 0.63585 0.26778 0.0
H548 H 0.11251 0.57934 0.21256 0.0
C549 C 0.13449 0.63163 0.2997 0.0
H550 H 0.1583 0.61809 0.21193 0.0
C551 C 0.10828 0.60877 0.30026 0.0
C552 C 0.09965 0.58987 0.26883 0.0
H553 H 0.13997 0.6465 0.32407 0.0
H554 H 0.09443 0.60643 0.32503 0.0
C555 C 0.11819 0.59378 0.23718 0.0
C556 C 0.83197 0.89941 0.59788 0.0
C557 C 0.80743 0.89831 0.62415 0.0
H558 H 0.84985 0.92373 0.54948 0.0
C559 C 0.78323 0.92313 0.6231 0.0
H560 H 0.85105 0.88068 0.59821 0.0
C561 C 0.78248 0.9473 0.59538 0.0
C562 C 0.80606 0.94752 0.56816 0.0
H563 H 0.76382 0.92282 0.64263 0.0
H564 H 0.76274 0.96527 0.5946 0.0
C565 C 0.83145 0.9241 0.57021 0.0
C566 C 0.60522 0.28524 0.15059 0.0
C567 C 0.62288 0.31572 0.15602 0.0
H568 H 0.56703 0.25967 0.1217 0.0
C569 C 0.61378 0.34504 0.13643 0.0
H570 H 0.61179 0.26208 0.16487 0.0
C571 C 0.58786 0.3437 0.1116 0.0
C572 C 0.57079 0.31291 0.10556 0.0
H573 H 0.62677 0.36896 0.14022 0.0
H574 H 0.58175 0.36653 0.09648 0.0
C575 C 0.57961 0.28383 0.12564 0.0
C576 C 0.30669 0.12732 0.63423 0.0
C577 C 0.27924 0.14723 0.64094 0.0
H578 H 0.32638 0.0838 0.60646 0.0
C579 C 0.25 0.13772 0.62394 0.0
H580 H 0.32954 0.13366 0.64715 0.0
C581 C 0.24811 0.10898 0.60119 0.0
C582 C 0.27549 0.08914 0.59441 0.0
H583 H 0.22851 0.1528 0.62768 0.0
H584 H 0.22516 0.10263 0.58849 0.0
C585 C 0.30486 0.09864 0.61108 0.0
C586 C 0.42316 0.73375 0.11324 0.0
C587 C 0.40211 0.7616 0.11687 0.0
H588 H 0.4623 0.71153 0.08426 0.0
C589 C 0.40627 0.78992 0.0936 0.0
H590 H 0.42158 0.71192 0.1312 0.0
C591 C 0.4305 0.79007 0.0672 0.0
C592 C 0.45067 0.76167 0.06307 0.0
H593 H 0.39039 0.81172 0.09515 0.0
H594 H 0.43278 0.8119 0.0493 0.0
C595 C 0.44683 0.73365 0.08649 0.0
C596 C 0.81167 0.12036 0.36618 0.0
C597 C 0.78636 0.14385 0.37087 0.0
H598 H 0.83366 0.07358 0.38436 0.0
C599 C 0.76431 0.13808 0.39908 0.0
H600 H 0.82906 0.12383 0.34469 0.0
C601 C 0.76652 0.10914 0.42083 0.0
C602 C 0.79129 0.08541 0.41578 0.0
H603 H 0.74525 0.15605 0.40468 0.0
H604 H 0.74884 0.10554 0.44205 0.0
C605 C 0.81429 0.09151 0.38872 0.0
C606 C 0.4217 0.29485 0.88735 0.0
C607 C 0.4037 0.32485 0.88292 0.0
H608 H 0.45636 0.26793 0.91938 0.0
C609 C 0.4083 0.35199 0.90794 0.0
H610 H 0.41842 0.27335 0.86879 0.0
C611 C 0.43045 0.34903 0.93693 0.0
C612 C 0.4478 0.31859 0.94177 0.0
H613 H 0.39475 0.37543 0.9051 0.0
H614 H 0.43335 0.37015 0.95603 0.0
C615 C 0.44329 0.29167 0.91652 0.0
C616 C 0.31706 0.90499 0.41388 0.0
C617 C 0.29239 0.88074 0.40773 0.0
H618 H 0.33232 0.94997 0.44351 0.0
C619 C 0.26391 0.88313 0.42781 0.0
H620 H 0.33927 0.9036 0.39874 0.0
C621 C 0.25976 0.90974 0.45285 0.0
C622 C 0.28419 0.93427 0.45879 0.0
H623 H 0.2444 0.86498 0.42332 0.0
H624 H 0.23725 0.91121 0.46745 0.0
C625 C 0.31313 0.93137 0.43952 0.0
C626 C 0.60855 0.74514 0.8558 0.0
C627 C 0.63497 0.76738 0.86168 0.0
H628 H 0.56342 0.7263 0.87526 0.0
C629 C 0.63383 0.79042 0.89153 0.0
H630 H 0.60775 0.7278 0.83261 0.0
C631 C 0.60757 0.79035 0.91533 0.0
C632 C 0.58223 0.76678 0.91027 0.0
H633 H 0.6537 0.80772 0.89742 0.0
H634 H 0.60785 0.80756 0.93866 0.0
C635 C 0.58282 0.74452 0.88003 0.0
loop_
_geom_bond_atom_site_label_1
_geom_bond_atom_site_label_2
_geom_bond_distance
_geom_bond_site_symmetry_2
_ccdc_geom_bond_type
C0 C1 1.386 . S
C0 C2 1.397 . S
C0 H24 0.931 . S
C1 C0 1.386 . S
C1 C5 1.397 . S
C2 C0 1.397 . S
C2 C3 1.384 . S
C2 H25 0.930 . S
C3 C2 1.384 . S
C3 C4 1.377 . S
C3 C6 1.481 . S
C4 C3 1.377 . S
C4 C5 1.389 . S
C4 H26 0.929 . S
C5 C1 1.397 . S
C5 C4 1.389 . S
C5 H27 0.931 . S
C6 C3 1.481 . S
C6 C7 1.387 . S
C6 C11 1.390 . S
C7 C6 1.387 . S
C7 C8 1.401 . S
C7 H28 0.930 . S
C8 C7 1.401 . S
C8 C9 1.376 . S
C8 C17 1.511 . S
C9 C8 1.376 . S
C9 C10 1.392 . S
C9 H30 0.931 . S
C10 C9 1.392 . S
C10 C11 1.361 . S
C10 C12 1.500 . S
C11 C6 1.390 . S
C11 C10 1.361 . S
C11 H29 0.931 . S
C12 C10 1.500 . S
C12 C13 1.371 . S
C12 C14 1.365 . S
C13 C12 1.371 . S
C13 C23 1.386 . S
C13 H31 0.931 . S
C14 C12 1.365 . S
C14 C15 1.409 . S
C14 H32 0.929 . S
C15 C14 1.409 . S
C15 C16 1.380 . S
C15 H33 0.930 . S
C16 C15 1.380 . S
C16 C23 1.357 . S
C17 C8 1.511 . S
C17 C18 1.341 . S
C17 C19 1.371 . S
C18 C17 1.341 . S
C18 C22 1.394 . S
C18 H34 0.930 . S
C19 C17 1.371 . S
C19 C20 1.392 . S
C19 H35 0.931 . S
C20 C19 1.392 . S
C20 C21 1.331 . S
C20 H38 0.932 . S
C21 C20 1.331 . S
C21 C22 1.336 . S
C22 C18 1.394 . S
C22 C21 1.336 . S
C22 H37 0.929 . S
C23 C13 1.386 . S
C23 C16 1.357 . S
C23 H36 0.928 . S
H24 C0 0.931 . S
H25 C2 0.930 . S
H26 C4 0.929 . S
H27 C5 0.931 . S
H28 C7 0.930 . S
H29 C11 0.931 . S
H30 C9 0.931 . S
H31 C13 0.931 . S
H32 C14 0.929 . S
H33 C15 0.930 . S
H34 C18 0.930 . S
H35 C19 0.931 . S
H36 C23 0.928 . S
H37 C22 0.929 . S
H38 C20 0.932 . S
C39 C40 1.386 . S
C39 C41 1.397 . S
C39 H63 0.931 . S
C40 C39 1.386 . S
C40 C44 1.397 . S
C41 C39 1.397 . S
C41 C42 1.384 . S
C41 H64 0.930 . S
C42 C41 1.384 . S
C42 C43 1.377 . S
C42 C45 1.481 . S
C43 C42 1.377 . S
C43 C44 1.389 . S
C43 H65 0.929 . S
C44 C40 1.397 . S
C44 C43 1.389 . S
C44 H66 0.931 . S
C45 C42 1.481 . S
C45 C46 1.387 . S
C45 C50 1.390 . S
C46 C45 1.387 . S
C46 C47 1.401 . S
C46 H67 0.930 . S
C47 C46 1.401 . S
C47 C48 1.376 . S
C47 C56 1.511 . S
C48 C47 1.376 . S
C48 C49 1.392 . S
C48 H69 0.931 . S
C49 C48 1.392 . S
C49 C50 1.361 . S
C49 C51 1.500 . S
C50 C45 1.390 . S
C50 C49 1.361 . S
C50 H68 0.931 . S
C51 C49 1.500 . S
C51 C52 1.371 . S
C51 C53 1.365 . S
C52 C51 1.371 . S
C52 C62 1.386 . S
C52 H70 0.931 . S
C53 C51 1.365 . S
C53 C54 1.409 . S
C53 H71 0.929 . S
C54 C53 1.409 . S
C54 C55 1.380 . S
C54 H72 0.930 . S
C55 C54 1.380 . S
C55 C62 1.357 . S
C56 C47 1.511 . S
C56 C57 1.341 . S
C56 C58 1.371 . S
C57 C56 1.341 . S
C57 C61 1.394 . S
C57 H73 0.930 . S
C58 C56 1.371 . S
C58 C59 1.392 . S
C58 H74 0.931 . S
C59 C58 1.392 . S
C59 C60 1.331 . S
C59 H77 0.932 . S
C60 C59 1.331 . S
C60 C61 1.336 . S
C61 C57 1.394 . S
C61 C60 1.336 . S
C61 H76 0.929 . S
C62 C52 1.386 . S
C62 C55 1.357 . S
C62 H75 0.928 . S
H63 C39 0.931 . S
H64 C41 0.930 . S
H65 C43 0.929 . S
H66 C44 0.931 . S
H67 C46 0.930 . S
H68 C50 0.931 . S
H69 C48 0.931 . S
H70 C52 0.931 . S
H71 C53 0.929 . S
H72 C54 0.930 . S
H73 C57 0.930 . S
H74 C58 0.931 . S
H75 C62 0.928 . S
H76 C61 0.929 . S
H77 C59 0.932 . S
C78 C79 1.386 . S
C78 C80 1.397 . S
C78 H102 0.931 . S
C79 C78 1.386 . S
C79 C83 1.397 . S
C80 C78 1.397 . S
C80 C81 1.384 . S
C80 H103 0.930 . S
C81 C80 1.384 . S
C81 C82 1.377 . S
C81 C84 1.481 . S
C82 C81 1.377 . S
C82 C83 1.389 . S
C82 H104 0.929 . S
C83 C79 1.397 . S
C83 C82 1.389 . S
C83 H105 0.931 . S
C84 C81 1.481 . S
C84 C85 1.387 . S
C84 C89 1.390 . S
C85 C84 1.387 . S
C85 C86 1.401 . S
C85 H106 0.930 . S
C86 C85 1.401 . S
C86 C87 1.376 . S
C86 C95 1.511 . S
C87 C86 1.376 . S
C87 C88 1.392 . S
C87 H108 0.931 . S
C88 C87 1.392 . S
C88 C89 1.361 . S
C88 C90 1.500 . S
C89 C84 1.390 . S
C89 C88 1.361 . S
C89 H107 0.931 . S
C90 C88 1.500 . S
C90 C91 1.371 . S
C90 C92 1.365 . S
C91 C90 1.371 . S
C91 C101 1.386 . S
C91 H109 0.931 . S
C92 C90 1.365 . S
C92 C93 1.409 . S
C92 H110 0.929 . S
C93 C92 1.409 . S
C93 C94 1.380 . S
C93 H111 0.930 . S
C94 C93 1.380 . S
C94 C101 1.357 . S
C95 C86 1.511 . S
C95 C96 1.341 . S
C95 C97 1.371 . S
C96 C95 1.341 . S
C96 C100 1.394 . S
C96 H112 0.930 . S
C97 C95 1.371 . S
C97 C98 1.392 . S
C97 H113 0.931 . S
C98 C97 1.392 . S
C98 C99 1.331 . S
C98 H116 0.932 . S
C99 C98 1.331 . S
C99 C100 1.336 . S
C100 C96 1.394 . S
C100 C99 1.336 . S
C100 H115 0.929 . S
C101 C91 1.386 . S
C101 C94 1.357 . S
C101 H114 0.928 . S
H102 C78 0.931 . S
H103 C80 0.930 . S
H104 C82 0.929 . S
H105 C83 0.931 . S
H106 C85 0.930 . S
H107 C89 0.931 . S
H108 C87 0.931 . S
H109 C91 0.931 . S
H110 C92 0.929 . S
H111 C93 0.930 . S
H112 C96 0.930 . S
H113 C97 0.931 . S
H114 C101 0.928 . S
H115 C100 0.929 . S
H116 C98 0.932 . S
C117 C118 1.386 . S
C117 C119 1.397 . S
C117 H141 0.931 . S
C118 C117 1.386 . S
C118 C122 1.397 . S
C119 C117 1.397 . S
C119 C120 1.384 . S
C119 H142 0.930 . S
C120 C119 1.384 . S
C120 C121 1.377 . S
C120 C123 1.481 . S
C121 C120 1.377 . S
C121 C122 1.389 . S
C121 H143 0.929 . S
C122 C118 1.397 . S
C122 C121 1.389 . S
C122 H144 0.931 . S
C123 C120 1.481 . S
C123 C124 1.387 . S
C123 C128 1.390 . S
C124 C123 1.387 . S
C124 C125 1.401 . S
C124 H145 0.930 . S
C125 C124 1.401 . S
C125 C126 1.376 . S
C125 C134 1.511 . S
C126 C125 1.376 . S
C126 C127 1.392 . S
C126 H147 0.931 . S
C127 C126 1.392 . S
C127 C128 1.361 . S
C127 C129 1.500 . S
C128 C123 1.390 . S
C128 C127 1.361 . S
C128 H146 0.931 . S
C129 C127 1.500 . S
C129 C130 1.371 . S
C129 C131 1.365 . S
C130 C129 1.371 . S
C130 C140 1.386 . S
C130 H148 0.931 . S
C131 C129 1.365 . S
C131 C132 1.409 . S
C131 H149 0.929 . S
C132 C131 1.409 . S
C132 C133 1.380 . S
C132 H150 0.930 . S
C133 C132 1.380 . S
C133 C140 1.357 . S
C134 C125 1.511 . S
C134 C135 1.341 . S
C134 C136 1.371 . S
C135 C134 1.341 . S
C135 C139 1.394 . S
C135 H151 0.930 . S
C136 C134 1.371 . S
C136 C137 1.392 . S
C136 H152 0.931 . S
C137 C136 1.392 . S
C137 C138 1.331 . S
C137 H155 0.932 . S
C138 C137 1.331 . S
C138 C139 1.336 . S
C139 C135 1.394 . S
C139 C138 1.336 . S
C139 H154 0.929 . S
C140 C130 1.386 . S
C140 C133 1.357 . S
C140 H153 0.928 . S
H141 C117 0.931 . S
H142 C119 0.930 . S
H143 C121 0.929 . S
H144 C122 0.931 . S
H145 C124 0.930 . S
H146 C128 0.931 . S
H147 C126 0.931 . S
H148 C130 0.931 . S
H149 C131 0.929 . S
H150 C132 0.930 . S
H151 C135 0.930 . S
H152 C136 0.931 . S
H153 C140 0.928 . S
H154 C139 0.929 . S
H155 C137 0.932 . S
C156 C157 1.386 . S
C156 C158 1.397 . S
C156 H180 0.931 . S
C157 C156 1.386 . S
C157 C161 1.397 . S
C158 C156 1.397 . S
C158 C159 1.384 . S
C158 H181 0.930 . S
C159 C158 1.384 . S
C159 C160 1.377 . S
C159 C162 1.481 . S
C160 C159 1.377 . S
C160 C161 1.389 . S
C160 H182 0.929 . S
C161 C157 1.397 . S
C161 C160 1.389 . S
C161 H183 0.931 . S
C162 C159 1.481 . S
C162 C163 1.387 . S
C162 C167 1.390 . S
C163 C162 1.387 . S
C163 C164 1.401 . S
C163 H184 0.930 . S
C164 C163 1.401 . S
C164 C165 1.376 . S
C164 C173 1.511 . S
C165 C164 1.376 . S
C165 C166 1.392 . S
C165 H186 0.931 . S
C166 C165 1.392 . S
C166 C167 1.361 . S
C166 C168 1.500 . S
C167 C162 1.390 . S
C167 C166 1.361 . S
C167 H185 0.931 . S
C168 C166 1.500 . S
C168 C169 1.371 . S
C168 C170 1.365 . S
C169 C168 1.371 . S
C169 C179 1.386 . S
C169 H187 0.931 . S
C170 C168 1.365 . S
C170 C171 1.409 . S
C170 H188 0.929 . S
C171 C170 1.409 . S
C171 C172 1.380 . S
C171 H189 0.930 . S
C172 C171 1.380 . S
C172 C179 1.357 . S
C173 C164 1.511 . S
C173 C174 1.341 . S
C173 C175 1.371 . S
C174 C173 1.341 . S
C174 C178 1.394 . S
C174 H190 0.930 . S
C175 C173 1.371 . S
C175 C176 1.392 . S
C175 H191 0.931 . S
C176 C175 1.392 . S
C176 C177 1.331 . S
C176 H194 0.932 . S
C177 C176 1.331 . S
C177 C178 1.336 . S
C178 C174 1.394 . S
C178 C177 1.336 . S
C178 H193 0.929 . S
C179 C169 1.386 . S
C179 C172 1.357 . S
C179 H192 0.928 . S
H180 C156 0.931 . S
H181 C158 0.930 . S
H182 C160 0.929 . S
H183 C161 0.931 . S
H184 C163 0.930 . S
H185 C167 0.931 . S
H186 C165 0.931 . S
H187 C169 0.931 . S
H188 C170 0.929 . S
H189 C171 0.930 . S
H190 C174 0.930 . S
H191 C175 0.931 . S
H192 C179 0.928 . S
H193 C178 0.929 . S
H194 C176 0.932 . S
C195 C196 1.386 . S
C195 C197 1.397 . S
C195 H219 0.931 . S
C196 C195 1.386 . S
C196 C200 1.397 . S
C197 C195 1.397 . S
C197 C198 1.384 . S
C197 H220 0.930 . S
C198 C197 1.384 . S
C198 C199 1.377 . S
C198 C201 1.481 . S
C199 C198 1.377 . S
C199 C200 1.389 . S
C199 H221 0.929 . S
C200 C196 1.397 . S
C200 C199 1.389 . S
C200 H222 0.931 . S
C201 C198 1.481 . S
C201 C202 1.387 . S
C201 C206 1.390 . S
C202 C201 1.387 . S
C202 C203 1.401 . S
C202 H223 0.930 . S
C203 C202 1.401 . S
C203 C204 1.376 . S
C203 C212 1.511 . S
C204 C203 1.376 . S
C204 C205 1.392 . S
C204 H225 0.931 . S
C205 C204 1.392 . S
C205 C206 1.361 . S
C205 C207 1.500 . S
C206 C201 1.390 . S
C206 C205 1.361 . S
C206 H224 0.931 . S
C207 C205 1.500 . S
C207 C208 1.371 . S
C207 C209 1.365 . S
C208 C207 1.371 . S
C208 C218 1.386 . S
C208 H226 0.931 . S
C209 C207 1.365 . S
C209 C210 1.409 . S
C209 H227 0.929 . S
C210 C209 1.409 . S
C210 C211 1.380 . S
C210 H228 0.930 . S
C211 C210 1.380 . S
C211 C218 1.357 . S
C212 C203 1.511 . S
C212 C213 1.341 . S
C212 C214 1.371 . S
C213 C212 1.341 . S
C213 C217 1.394 . S
C213 H229 0.930 . S
C214 C212 1.371 . S
C214 C215 1.392 . S
C214 H230 0.931 . S
C215 C214 1.392 . S
C215 C216 1.331 . S
C215 H233 0.932 . S
C216 C215 1.331 . S
C216 C217 1.336 . S
C217 C213 1.394 . S
C217 C216 1.336 . S
C217 H232 0.929 . S
C218 C208 1.386 . S
C218 C211 1.357 . S
C218 H231 0.928 . S
H219 C195 0.931 . S
H220 C197 0.930 . S
H221 C199 0.929 . S
H222 C200 0.931 . S
H223 C202 0.930 . S
H224 C206 0.931 . S
H225 C204 0.931 . S
H226 C208 0.931 . S
H227 C209 0.929 . S
H228 C210 0.930 . S
H229 C213 0.930 . S
H230 C214 0.931 . S
H231 C218 0.928 . S
H232 C217 0.929 . S
H233 C215 0.932 . S
C234 C235 1.386 . S
C234 C236 1.397 . S
C234 H258 0.931 . S
C235 C234 1.386 . S
C235 C239 1.397 . S
C236 C234 1.397 . S
C236 C237 1.384 . S
C236 H259 0.930 . S
C237 C236 1.384 . S
C237 C238 1.377 . S
C237 C240 1.481 . S
C238 C237 1.377 . S
C238 C239 1.389 . S
C238 H260 0.929 . S
C239 C235 1.397 . S
C239 C238 1.389 . S
C239 H261 0.931 . S
C240 C237 1.481 . S
C240 C241 1.387 . S
C240 C245 1.390 . S
C241 C240 1.387 . S
C241 C242 1.401 . S
C241 H262 0.930 . S
C242 C241 1.401 . S
C242 C243 1.376 . S
C242 C251 1.511 . S
C243 C242 1.376 . S
C243 C244 1.392 . S
C243 H264 0.931 . S
C244 C243 1.392 . S
C244 C245 1.361 . S
C244 C246 1.500 . S
C245 C240 1.390 . S
C245 C244 1.361 . S
C245 H263 0.931 . S
C246 C244 1.500 . S
C246 C247 1.371 . S
C246 C248 1.365 . S
C247 C246 1.371 . S
C247 C257 1.386 . S
C247 H265 0.931 . S
C248 C246 1.365 . S
C248 C249 1.409 . S
C248 H266 0.929 . S
C249 C248 1.409 . S
C249 C250 1.380 . S
C249 H267 0.930 . S
C250 C249 1.380 . S
C250 C257 1.357 . S
C251 C242 1.511 . S
C251 C252 1.341 . S
C251 C253 1.371 . S
C252 C251 1.341 . S
C252 C256 1.394 . S
C252 H268 0.930 . S
C253 C251 1.371 . S
C253 C254 1.392 . S
C253 H269 0.931 . S
C254 C253 1.392 . S
C254 C255 1.331 . S
C254 H272 0.932 . S
C255 C254 1.331 . S
C255 C256 1.336 . S
C256 C252 1.394 . S
C256 C255 1.336 . S
C256 H271 0.929 . S
C257 C247 1.386 . S
C257 C250 1.357 . S
C257 H270 0.928 . S
H258 C234 0.931 . S
H259 C236 0.930 . S
H260 C238 0.929 . S
H261 C239 0.931 . S
H262 C241 0.930 . S
H263 C245 0.931 . S
H264 C243 0.931 . S
H265 C247 0.931 . S
H266 C248 0.929 . S
H267 C249 0.930 . S
H268 C252 0.930 . S
H269 C253 0.931 . S
H270 C257 0.928 . S
H271 C256 0.929 . S
H272 C254 0.932 . S
C273 C274 1.386 . S
C273 C275 1.397 . S
C273 H297 0.931 . S
C274 C273 1.386 . S
C274 C278 1.397 . S
C275 C273 1.397 . S
C275 C276 1.384 . S
C275 H298 0.930 . S
C276 C275 1.384 . S
C276 C277 1.377 . S
C276 C279 1.481 . S
C277 C276 1.377 . S
C277 C278 1.389 . S
C277 H299 0.929 . S
C278 C274 1.397 . S
C278 C277 1.389 . S
C278 H300 0.931 . S
C279 C276 1.481 . S
C279 C280 1.387 . S
C279 C284 1.390 . S
C280 C279 1.387 . S
C280 C281 1.401 . S
C280 H301 0.930 . S
C281 C280 1.401 . S
C281 C282 1.376 . S
C281 C290 1.511 . S
C282 C281 1.376 . S
C282 C283 1.392 . S
C282 H303 0.931 . S
C283 C282 1.392 . S
C283 C284 1.361 . S
C283 C285 1.500 . S
C284 C279 1.390 . S
C284 C283 1.361 . S
C284 H302 0.931 . S
C285 C283 1.500 . S
C285 C286 1.371 . S
C285 C287 1.365 . S
C286 C285 1.371 . S
C286 C296 1.386 . S
C286 H304 0.931 . S
C287 C285 1.365 . S
C287 C288 1.409 . S
C287 H305 0.929 . S
C288 C287 1.409 . S
C288 C289 1.380 . S
C288 H306 0.930 . S
C289 C288 1.380 . S
C289 C296 1.357 . S
C290 C281 1.511 . S
C290 C291 1.341 . S
C290 C292 1.371 . S
C291 C290 1.341 . S
C291 C295 1.394 . S
C291 H307 0.930 . S
C292 C290 1.371 . S
C292 C293 1.392 . S
C292 H308 0.931 . S
C293 C292 1.392 . S
C293 C294 1.331 . S
C293 H311 0.932 . S
C294 C293 1.331 . S
C294 C295 1.336 . S
C295 C291 1.394 . S
C295 C294 1.336 . S
C295 H310 0.929 . S
C296 C286 1.386 . S
C296 C289 1.357 . S
C296 H309 0.928 . S
H297 C273 0.931 . S
H298 C275 0.930 . S
H299 C277 0.929 . S
H300 C278 0.931 . S
H301 C280 0.930 . S
H302 C284 0.931 . S
H303 C282 0.931 . S
H304 C286 0.931 . S
H305 C287 0.929 . S
H306 C288 0.930 . S
H307 C291 0.930 . S
H308 C292 0.931 . S
H309 C296 0.928 . S
H310 C295 0.929 . S
H311 C293 0.932 . S
C312 O314 1.247 . S
C312 O316 1.258 . S
C313 O320 1.247 . S
C313 O321 1.258 . S
O314 C312 1.247 . S
O314 Zn315 2.028 1_655 S
Zn315 O314 2.028 1_455 S
Zn315 O319 2.035 . S
Zn315 O321 2.035 . S
Zn315 O322 2.028 1_455 S
O316 C312 1.258 . S
O316 Zn317 2.035 1_655 S
Zn317 O316 2.035 1_455 S
Zn317 O318 2.028 . S
Zn317 O320 2.028 . S
Zn317 O323 2.035 1_455 S
O318 Zn317 2.028 . S
O318 C324 1.247 . S
O319 Zn315 2.035 . S
O319 C324 1.258 . S
O320 C313 1.247 . S
O320 Zn317 2.028 . S
O321 C313 1.258 . S
O321 Zn315 2.035 . S
O322 Zn315 2.028 1_655 S
O322 C325 1.247 . S
O323 Zn317 2.035 1_655 S
O323 C325 1.258 . S
C324 O318 1.247 . S
C324 O319 1.258 . S
C325 O322 1.247 . S
C325 O323 1.258 . S
C326 O328 1.247 . S
C326 O330 1.258 . S
C327 O334 1.247 . S
C327 O335 1.258 . S
O328 C326 1.247 . S
O328 Zn329 2.028 1_655 S
Zn329 O328 2.028 1_455 S
Zn329 O333 2.035 . S
Zn329 O335 2.035 . S
Zn329 O336 2.028 1_455 S
O330 C326 1.258 . S
O330 Zn331 2.035 1_655 S
Zn331 O330 2.035 1_455 S
Zn331 O332 2.028 . S
Zn331 O334 2.028 . S
Zn331 O337 2.035 1_455 S
O332 Zn331 2.028 . S
O332 C338 1.247 . S
O333 Zn329 2.035 . S
O333 C338 1.258 . S
O334 C327 1.247 . S
O334 Zn331 2.028 . S
O335 C327 1.258 . S
O335 Zn329 2.035 . S
O336 Zn329 2.028 1_655 S
O336 C339 1.247 . S
O337 Zn331 2.035 1_655 S
O337 C339 1.258 . S
C338 O332 1.247 . S
C338 O333 1.258 . S
C339 O336 1.247 . S
C339 O337 1.258 . S
C340 O342 1.247 . S
C340 O344 1.258 . S
C341 O348 1.247 . S
C341 O349 1.258 . S
O342 C340 1.247 . S
O342 Zn343 2.028 1_565 S
Zn343 O342 2.028 1_545 S
Zn343 O347 2.035 . S
Zn343 O349 2.035 . S
Zn343 O350 2.028 1_545 S
O344 C340 1.258 . S
O344 Zn345 2.035 1_565 S
Zn345 O344 2.035 1_545 S
Zn345 O346 2.028 . S
Zn345 O348 2.028 . S
Zn345 O351 2.035 1_545 S
O346 Zn345 2.028 . S
O346 C352 1.247 . S
O347 Zn343 2.035 . S
O347 C352 1.258 . S
O348 C341 1.247 . S
O348 Zn345 2.028 . S
O349 C341 1.258 . S
O349 Zn343 2.035 . S
O350 Zn343 2.028 1_565 S
O350 C353 1.247 . S
O351 Zn345 2.035 1_565 S
O351 C353 1.258 . S
C352 O346 1.247 . S
C352 O347 1.258 . S
C353 O350 1.247 . S
C353 O351 1.258 . S
C354 O356 1.247 . S
C354 O358 1.258 . S
C355 O362 1.247 . S
C355 O363 1.258 . S
O356 C354 1.247 . S
O356 Zn357 2.047 . S
Zn357 O356 2.047 . S
Zn357 O361 2.054 . S
Zn357 O363 2.016 1_554 S
Zn357 O364 2.009 1_554 S
O358 C354 1.258 . S
O358 Zn359 2.035 . S
Zn359 O358 2.035 . S
Zn359 O360 2.028 . S
Zn359 O362 2.028 1_554 S
Zn359 O365 2.035 1_554 S
O360 Zn359 2.028 . S
O360 C366 1.247 . S
O361 Zn357 2.054 . S
O361 C366 1.258 . S
O362 C355 1.247 . S
O362 Zn359 2.028 1_556 S
O363 C355 1.258 . S
O363 Zn357 2.016 1_556 S
O364 Zn357 2.009 1_556 S
O364 C367 1.247 . S
O365 Zn359 2.035 1_556 S
O365 C367 1.258 . S
C366 O360 1.247 . S
C366 O361 1.258 . S
C367 O364 1.247 . S
C367 O365 1.258 . S
C368 O370 1.247 . S
C368 O372 1.258 . S
C369 O376 1.247 . S
C369 O377 1.258 . S
O370 C368 1.247 . S
O370 Zn371 2.028 1_565 S
Zn371 O370 2.028 1_545 S
Zn371 O375 2.035 . S
Zn371 O377 2.035 . S
Zn371 O378 2.028 1_545 S
O372 C368 1.258 . S
O372 Zn373 2.035 1_565 S
Zn373 O372 2.035 1_545 S
Zn373 O374 2.028 . S
Zn373 O376 2.028 . S
Zn373 O379 2.035 1_545 S
O374 Zn373 2.028 . S
O374 C380 1.247 . S
O375 Zn371 2.035 . S
O375 C380 1.258 . S
O376 C369 1.247 . S
O376 Zn373 2.028 . S
O377 C369 1.258 . S
O377 Zn371 2.035 . S
O378 Zn371 2.028 1_565 S
O378 C381 1.247 . S
O379 Zn373 2.035 1_565 S
O379 C381 1.258 . S
C380 O374 1.247 . S
C380 O375 1.258 . S
C381 O378 1.247 . S
C381 O379 1.258 . S
C382 O384 1.247 . S
C382 O386 1.258 . S
C383 O390 1.247 . S
C383 O391 1.258 . S
O384 C382 1.247 . S
O384 Zn385 2.028 . S
Zn385 O384 2.028 . S
Zn385 O389 2.035 . S
Zn385 O391 2.035 1_554 S
Zn385 O392 2.028 1_554 S
O386 C382 1.258 . S
O386 Zn387 2.035 . S
Zn387 O386 2.035 . S
Zn387 O388 2.028 . S
Zn387 O390 2.028 1_554 S
Zn387 O393 2.035 1_554 S
O388 Zn387 2.028 . S
O388 C394 1.247 . S
O389 Zn385 2.035 . S
O389 C394 1.258 . S
O390 C383 1.247 . S
O390 Zn387 2.028 1_556 S
O391 C383 1.258 . S
O391 Zn385 2.035 1_556 S
O392 Zn385 2.028 1_556 S
O392 C395 1.247 . S
O393 Zn387 2.035 1_556 S
O393 C395 1.258 . S
C394 O388 1.247 . S
C394 O389 1.258 . S
C395 O392 1.247 . S
C395 O393 1.258 . S
C396 C397 1.387 . S
C396 H400 0.950 . S
C396 C405 1.390 . S
C397 C396 1.387 . S
C397 C399 1.387 . S
H398 C405 0.950 . S
C399 C397 1.387 . S
C399 C401 1.390 . S
C399 H403 0.950 . S
H400 C396 0.950 . S
C401 C399 1.390 . S
C401 C402 1.387 . S
C401 H404 0.950 . S
C402 C401 1.387 . S
C402 C405 1.387 . S
H403 C399 0.950 . S
H404 C401 0.950 . S
C405 C396 1.390 . S
C405 H398 0.950 . S
C405 C402 1.387 . S
C406 C407 1.387 . S
C406 H410 0.950 . S
C406 C415 1.390 . S
C407 C406 1.387 . S
C407 C409 1.387 . S
H408 C415 0.950 . S
C409 C407 1.387 . S
C409 C411 1.390 . S
C409 H413 0.950 . S
H410 C406 0.950 . S
C411 C409 1.390 . S
C411 C412 1.387 . S
C411 H414 0.950 . S
C412 C411 1.387 . S
C412 C415 1.387 . S
H413 C409 0.950 . S
H414 C411 0.950 . S
C415 C406 1.390 . S
C415 H408 0.950 . S
C415 C412 1.387 . S
C416 C417 1.387 . S
C416 H420 0.950 . S
C416 C425 1.390 . S
C417 C416 1.387 . S
C417 C419 1.387 . S
H418 C425 0.950 . S
C419 C417 1.387 . S
C419 C421 1.390 . S
C419 H423 0.950 . S
H420 C416 0.950 . S
C421 C419 1.390 . S
C421 C422 1.387 . S
C421 H424 0.950 . S
C422 C421 1.387 . S
C422 C425 1.387 . S
H423 C419 0.950 . S
H424 C421 0.950 . S
C425 C416 1.390 . S
C425 H418 0.950 . S
C425 C422 1.387 . S
C426 C427 1.387 . S
C426 H430 0.950 . S
C426 C435 1.390 . S
C427 C426 1.387 . S
C427 C429 1.387 . S
H428 C435 0.950 . S
C429 C427 1.387 . S
C429 C431 1.390 . S
C429 H433 0.950 . S
H430 C426 0.950 . S
C431 C429 1.390 . S
C431 C432 1.387 . S
C431 H434 0.950 . S
C432 C431 1.387 . S
C432 C435 1.387 . S
H433 C429 0.950 . S
H434 C431 0.950 . S
C435 C426 1.390 . S
C435 H428 0.950 . S
C435 C432 1.387 . S
C436 C437 1.387 . S
C436 H440 0.950 . S
C436 C445 1.390 . S
C437 C436 1.387 . S
C437 C439 1.387 . S
H438 C445 0.950 . S
C439 C437 1.387 . S
C439 C441 1.390 . S
C439 H443 0.950 . S
H440 C436 0.950 . S
C441 C439 1.390 . S
C441 C442 1.387 . S
C441 H444 0.950 . S
C442 C441 1.387 . S
C442 C445 1.387 . S
H443 C439 0.950 . S
H444 C441 0.950 . S
C445 C436 1.390 . S
C445 H438 0.950 . S
C445 C442 1.387 . S
C446 C447 1.387 . S
C446 H450 0.950 . S
C446 C455 1.390 . S
C447 C446 1.387 . S
C447 C449 1.387 . S
H448 C455 0.950 . S
C449 C447 1.387 . S
C449 C451 1.390 . S
C449 H453 0.950 . S
H450 C446 0.950 . S
C451 C449 1.390 . S
C451 C452 1.387 . S
C451 H454 0.950 . S
C452 C451 1.387 . S
C452 C455 1.387 . S
H453 C449 0.950 . S
H454 C451 0.950 . S
C455 C446 1.390 . S
C455 H448 0.950 . S
C455 C452 1.387 . S
C456 C457 1.387 . S
C456 H460 0.950 . S
C456 C465 1.390 . S
C457 C456 1.387 . S
C457 C459 1.387 . S
H458 C465 0.950 . S
C459 C457 1.387 . S
C459 C461 1.390 . S
C459 H463 0.950 . S
H460 C456 0.950 . S
C461 C459 1.390 . S
C461 C462 1.387 . S
C461 H464 0.950 . S
C462 C461 1.387 . S
C462 C465 1.387 . S
H463 C459 0.950 . S
H464 C461 0.950 . S
C465 C456 1.390 . S
C465 H458 0.950 . S
C465 C462 1.387 . S
C466 C467 1.387 . S
C466 H470 0.950 . S
C466 C475 1.390 . S
C467 C466 1.387 . S
C467 C469 1.387 . S
H468 C475 0.950 . S
C469 C467 1.387 . S
C469 C471 1.390 . S
C469 H473 0.950 . S
H470 C466 0.950 . S
C471 C469 1.390 . S
C471 C472 1.387 . S
C471 H474 0.950 . S
C472 C471 1.387 . S
C472 C475 1.387 . S
H473 C469 0.950 . S
H474 C471 0.950 . S
C475 C466 1.390 . S
C475 H468 0.950 . S
C475 C472 1.387 . S
C476 C477 1.387 . S
C476 H480 0.950 . S
C476 C485 1.390 . S
C477 C476 1.387 . S
C477 C479 1.387 . S
H478 C485 0.950 . S
C479 C477 1.387 . S
C479 C481 1.390 . S
C479 H483 0.950 . S
H480 C476 0.950 . S
C481 C479 1.390 . S
C481 C482 1.387 . S
C481 H484 0.950 . S
C482 C481 1.387 . S
C482 C485 1.387 . S
H483 C479 0.950 . S
H484 C481 0.950 . S
C485 C476 1.390 . S
C485 H478 0.950 . S
C485 C482 1.387 . S
C486 C487 1.387 . S
C486 H490 0.950 . S
C486 C495 1.390 . S
C487 C486 1.387 . S
C487 C489 1.387 . S
H488 C495 0.950 . S
C489 C487 1.387 . S
C489 C491 1.390 . S
C489 H493 0.950 . S
H490 C486 0.950 . S
C491 C489 1.390 . S
C491 C492 1.387 . S
C491 H494 0.950 . S
C492 C491 1.387 . S
C492 C495 1.387 . S
H493 C489 0.950 . S
H494 C491 0.950 . S
C495 C486 1.390 . S
C495 H488 0.950 . S
C495 C492 1.387 . S
C496 C497 1.387 . S
C496 H500 0.950 . S
C496 C505 1.390 . S
C497 C496 1.387 . S
C497 C499 1.387 . S
H498 C505 0.950 . S
C499 C497 1.387 . S
C499 C501 1.390 . S
C499 H503 0.950 . S
H500 C496 0.950 . S
C501 C499 1.390 . S
C501 C502 1.387 . S
C501 H504 0.950 . S
C502 C501 1.387 . S
C502 C505 1.387 . S
H503 C499 0.950 . S
H504 C501 0.950 . S
C505 C496 1.390 . S
C505 H498 0.950 . S
C505 C502 1.387 . S
C506 C507 1.387 . S
C506 H510 0.950 . S
C506 C515 1.390 . S
C507 C506 1.387 . S
C507 C509 1.387 . S
H508 C515 0.950 . S
C509 C507 1.387 . S
C509 C511 1.390 . S
C509 H513 0.950 . S
H510 C506 0.950 . S
C511 C509 1.390 . S
C511 C512 1.387 . S
C511 H514 0.950 . S
C512 C511 1.387 . S
C512 C515 1.387 . S
H513 C509 0.950 . S
H514 C511 0.950 . S
C515 C506 1.390 . S
C515 H508 0.950 . S
C515 C512 1.387 . S
C516 C517 1.387 . S
C516 H520 0.950 . S
C516 C525 1.390 . S
C517 C516 1.387 . S
C517 C519 1.387 . S
H518 C525 0.950 . S
C519 C517 1.387 . S
C519 C521 1.390 . S
C519 H523 0.950 . S
H520 C516 0.950 . S
C521 C519 1.390 . S
C521 C522 1.387 . S
C521 H524 0.950 . S
C522 C521 1.387 . S
C522 C525 1.387 . S
H523 C519 0.950 . S
H524 C521 0.950 . S
C525 C516 1.390 . S
C525 H518 0.950 . S
C525 C522 1.387 . S
C526 C527 1.387 . S
C526 H530 0.950 . S
C526 C535 1.390 . S
C527 C526 1.387 . S
C527 C529 1.387 . S
H528 C535 0.950 . S
C529 C527 1.387 . S
C529 C531 1.390 . S
C529 H533 0.950 . S
H530 C526 0.950 . S
C531 C529 1.390 . S
C531 C532 1.387 . S
C531 H534 0.950 . S
C532 C531 1.387 . S
C532 C535 1.387 . S
H533 C529 0.950 . S
H534 C531 0.950 . S
C535 C526 1.390 . S
C535 H528 0.950 . S
C535 C532 1.387 . S
C536 C537 1.387 . S
C536 H540 0.950 . S
C536 C545 1.390 . S
C537 C536 1.387 . S
C537 C539 1.387 . S
H538 C545 0.950 . S
C539 C537 1.387 . S
C539 C541 1.390 . S
C539 H543 0.950 . S
H540 C536 0.950 . S
C541 C539 1.390 . S
C541 C542 1.387 . S
C541 H544 0.950 . S
C542 C541 1.387 . S
C542 C545 1.387 . S
H543 C539 0.950 . S
H544 C541 0.950 . S
C545 C536 1.390 . S
C545 H538 0.950 . S
C545 C542 1.387 . S
C546 C547 1.387 . S
C546 H550 0.950 . S
C546 C555 1.390 . S
C547 C546 1.387 . S
C547 C549 1.387 . S
H548 C555 0.950 . S
C549 C547 1.387 . S
C549 C551 1.390 . S
C549 H553 0.950 . S
H550 C546 0.950 . S
C551 C549 1.390 . S
C551 C552 1.387 . S
C551 H554 0.950 . S
C552 C551 1.387 . S
C552 C555 1.387 . S
H553 C549 0.950 . S
H554 C551 0.950 . S
C555 C546 1.390 . S
C555 H548 0.950 . S
C555 C552 1.387 . S
C556 C557 1.387 . S
C556 H560 0.950 . S
C556 C565 1.390 . S
C557 C556 1.387 . S
C557 C559 1.387 . S
H558 C565 0.950 . S
C559 C557 1.387 . S
C559 C561 1.390 . S
C559 H563 0.950 . S
H560 C556 0.950 . S
C561 C559 1.390 . S
C561 C562 1.387 . S
C561 H564 0.950 . S
C562 C561 1.387 . S
C562 C565 1.387 . S
H563 C559 0.950 . S
H564 C561 0.950 . S
C565 C556 1.390 . S
C565 H558 0.950 . S
C565 C562 1.387 . S
C566 C567 1.387 . S
C566 H570 0.950 . S
C566 C575 1.390 . S
C567 C566 1.387 . S
C567 C569 1.387 . S
H568 C575 0.950 . S
C569 C567 1.387 . S
C569 C571 1.390 . S
C569 H573 0.950 . S
H570 C566 0.950 . S
C571 C569 1.390 . S
C571 C572 1.387 . S
C571 H574 0.950 . S
C572 C571 1.387 . S
C572 C575 1.387 . S
H573 C569 0.950 . S
H574 C571 0.950 . S
C575 C566 1.390 . S
C575 H568 0.950 . S
C575 C572 1.387 . S
C576 C577 1.387 . S
C576 H580 0.950 . S
C576 C585 1.390 . S
C577 C576 1.387 . S
C577 C579 1.387 . S
H578 C585 0.950 . S
C579 C577 1.387 . S
C579 C581 1.390 . S
C579 H583 0.950 . S
H580 C576 0.950 . S
C581 C579 1.390 . S
C581 C582 1.387 . S
C581 H584 0.950 . S
C582 C581 1.387 . S
C582 C585 1.387 . S
H583 C579 0.950 . S
H584 C581 0.950 . S
C585 C576 1.390 . S
C585 H578 0.950 . S
C585 C582 1.387 . S
C586 C587 1.387 . S
C586 H590 0.950 . S
C586 C595 1.390 . S
C587 C586 1.387 . S
C587 C589 1.387 . S
H588 C595 0.950 . S
C589 C587 1.387 . S
C589 C591 1.390 . S
C589 H593 0.950 . S
H590 C586 0.950 . S
C591 C589 1.390 . S
C591 C592 1.387 . S
C591 H594 0.950 . S
C592 C591 1.387 . S
C592 C595 1.387 . S
H593 C589 0.950 . S
H594 C591 0.950 . S
C595 C586 1.390 . S
C595 H588 0.950 . S
C595 C592 1.387 . S
C596 C597 1.387 . S
C596 H600 0.950 . S
C596 C605 1.390 . S
C597 C596 1.387 . S
C597 C599 1.387 . S
H598 C605 0.950 . S
C599 C597 1.387 . S
C599 C601 1.390 . S
C599 H603 0.950 . S
H600 C596 0.950 . S
C601 C599 1.390 . S
C601 C602 1.387 . S
C601 H604 0.950 . S
C602 C601 1.387 . S
C602 C605 1.387 . S
H603 C599 0.950 . S
H604 C601 0.950 . S
C605 C596 1.390 . S
C605 H598 0.950 . S
C605 C602 1.387 . S
C606 C607 1.387 . S
C606 H610 0.950 . S
C606 C615 1.390 . S
C607 C606 1.387 . S
C607 C609 1.387 . S
H608 C615 0.950 . S
C609 C607 1.387 . S
C609 C611 1.390 . S
C609 H613 0.950 . S
H610 C606 0.950 . S
C611 C609 1.390 . S
C611 C612 1.387 . S
C611 H614 0.950 . S
C612 C611 1.387 . S
C612 C615 1.387 . S
H613 C609 0.950 . S
H614 C611 0.950 . S
C615 C606 1.390 . S
C615 H608 0.950 . S
C615 C612 1.387 . S
C616 C617 1.387 . S
C616 H620 0.950 . S
C616 C625 1.390 . S
C617 C616 1.387 . S
C617 C619 1.387 . S
H618 C625 0.950 . S
C619 C617 1.387 . S
C619 C621 1.390 . S
C619 H623 0.950 . S
H620 C616 0.950 . S
C621 C619 1.390 . S
C621 C622 1.387 . S
C621 H624 0.950 . S
C622 C621 1.387 . S
C622 C625 1.387 . S
H623 C619 0.950 . S
H624 C621 0.950 . S
C625 C616 1.390 . S
C625 H618 0.950 . S
C625 C622 1.387 . S
C626 C627 1.387 . S
C626 H630 0.950 . S
C626 C635 1.390 . S
C627 C626 1.387 . S
C627 C629 1.387 . S
H628 C635 0.950 . S
C629 C627 1.387 . S
C629 C631 1.390 . S
C629 H633 0.950 . S
H630 C626 0.950 . S
C631 C629 1.390 . S
C631 C632 1.387 . S
C631 H634 0.950 . S
C632 C631 1.387 . S
C632 C635 1.387 . S
H633 C629 0.950 . S
H634 C631 0.950 . S
C635 C626 1.390 . S
C635 H628 0.950 . S
C635 C632 1.387 . S
C402 C324 1.515 . S
C397 C16 1.516 . S
C412 C327 1.502 . S
C407 C55 1.505 . S
C422 C325 1.509 . S
C417 C99 1.511 . S
C432 C326 1.501 . S
C427 C138 1.500 . S
C442 C341 1.510 . S
C437 C1 1.512 . S
C452 C355 1.501 . S
C447 C40 1.505 . S
C457 C94 1.506 . S
C462 C381 1.506 . S
C472 C395 1.501 . S
C467 C133 1.504 . S
C482 C340 1.501 . S
C477 C60 1.500 . S
C487 C79 1.511 . S
C492 C354 1.508 . S
C502 C380 1.500 . S
C497 C118 1.500 . S
C512 C394 1.507 . S
C507 C21 1.510 . S
C517 C177 1.505 . S
C522 C339 1.503 . S
C532 C312 1.509 . S
C527 C211 1.510 . S
C537 C255 1.503 . S
C542 C338 1.503 . S
C547 C289 1.514 . S
C552 C313 1.513 . S
C562 C368 1.502 . S
C557 C157 1.502 . S
C572 C382 1.507 . S
C567 C196 1.510 . S
C582 C352 1.505 . S
C577 C250 1.506 . S
C587 C294 1.506 . S
C592 C366 1.504 . S
C602 C369 1.503 . S
C597 C216 1.504 . S
C612 C383 1.502 . S
C607 C235 1.505 . S
C622 C353 1.509 . S
C617 C274 1.510 . S
C627 C172 1.508 . S
C632 C367 1.505 . S
