# Generated by pormake.
# Topology eea, (3,6)-cn, num edge types: 1
# Building blocks:
#     Node 0, Type 0, BuildingBlock: BELTOD_clean_linker_0, # of connection points: 3
#     Node 1, Type 0, BuildingBlock: BELTOD_clean_linker_0, # of connection points: 3
#     Node 2, Type 0, BuildingBlock: BELTOD_clean_linker_0, # of connection points: 3
#     Node 3, Type 0, BuildingBlock: BELTOD_clean_linker_0, # of connection points: 3
#     Node 4, Type 0, BuildingBlock: BELTOD_clean_linker_0, # of connection points: 3
#     Node 5, Type 0, BuildingBlock: BELTOD_clean_linker_0, # of connection points: 3
#     Node 6, Type 0, BuildingBlock: BELTOD_clean_linker_0, # of connection points: 3
#     Node 7, Type 0, BuildingBlock: BELTOD_clean_linker_0, # of connection points: 3
#     Node 8, Type 0, BuildingBlock: BELTOD_clean_linker_0, # of connection points: 3
#     Node 9, Type 0, BuildingBlock: BELTOD_clean_linker_0, # of connection points: 3
#     Node 10, Type 0, BuildingBlock: BELTOD_clean_linker_0, # of connection points: 3
#     Node 11, Type 0, BuildingBlock: BELTOD_clean_linker_0, # of connection points: 3
#     Node 12, Type 0, BuildingBlock: BELTOD_clean_linker_0, # of connection points: 3
#     Node 13, Type 0, BuildingBlock: BELTOD_clean_linker_0, # of connection points: 3
#     Node 14, Type 0, BuildingBlock: BELTOD_clean_linker_0, # of connection points: 3
#     Node 15, Type 0, BuildingBlock: BELTOD_clean_linker_0, # of connection points: 3
#     Node 16, Type 0, BuildingBlock: BELTOD_clean_linker_0, # of connection points: 3
#     Node 17, Type 0, BuildingBlock: BELTOD_clean_linker_0, # of connection points: 3
#     Node 18, Type 1, BuildingBlock: CUWYAW_clean_sbu_0, # of connection points: 6
#     Node 19, Type 1, BuildingBlock: CUWYAW_clean_sbu_0, # of connection points: 6
#     Node 20, Type 1, BuildingBlock: CUWYAW_clean_sbu_0, # of connection points: 6
#     Node 21, Type 1, BuildingBlock: CUWYAW_clean_sbu_0, # of connection points: 6
#     Node 22, Type 1, BuildingBlock: CUWYAW_clean_sbu_0, # of connection points: 6
#     Node 23, Type 1, BuildingBlock: CUWYAW_clean_sbu_0, # of connection points: 6
#     Node 24, Type 1, BuildingBlock: CUWYAW_clean_sbu_0, # of connection points: 6
#     Node 25, Type 1, BuildingBlock: CUWYAW_clean_sbu_0, # of connection points: 6
#     Node 26, Type 1, BuildingBlock: CUWYAW_clean_sbu_0, # of connection points: 6
#     Edge 27, Type (0, 1), BuildingBlock: UVAHIK_clean_linker_0, # of connection points: 2
#     Edge 28, Type (0, 1), BuildingBlock: UVAHIK_clean_linker_0, # of connection points: 2
#     Edge 29, Type (0, 1), BuildingBlock: UVAHIK_clean_linker_0, # of connection points: 2
#     Edge 30, Type (0, 1), BuildingBlock: UVAHIK_clean_linker_0, # of connection points: 2
#     Edge 31, Type (0, 1), BuildingBlock: UVAHIK_clean_linker_0, # of connection points: 2
#     Edge 32, Type (0, 1), BuildingBlock: UVAHIK_clean_linker_0, # of connection points: 2
#     Edge 33, Type (0, 1), BuildingBlock: UVAHIK_clean_linker_0, # of connection points: 2
#     Edge 34, Type (0, 1), BuildingBlock: UVAHIK_clean_linker_0, # of connection points: 2
#     Edge 35, Type (0, 1), BuildingBlock: UVAHIK_clean_linker_0, # of connection points: 2
#     Edge 36, Type (0, 1), BuildingBlock: UVAHIK_clean_linker_0, # of connection points: 2
#     Edge 37, Type (0, 1), BuildingBlock: UVAHIK_clean_linker_0, # of connection points: 2
#     Edge 38, Type (0, 1), BuildingBlock: UVAHIK_clean_linker_0, # of connection points: 2
#     Edge 39, Type (0, 1), BuildingBlock: UVAHIK_clean_linker_0, # of connection points: 2
#     Edge 40, Type (0, 1), BuildingBlock: UVAHIK_clean_linker_0, # of connection points: 2
#     Edge 41, Type (0, 1), BuildingBlock: UVAHIK_clean_linker_0, # of connection points: 2
#     Edge 42, Type (0, 1), BuildingBlock: UVAHIK_clean_linker_0, # of connection points: 2
#     Edge 43, Type (0, 1), BuildingBlock: UVAHIK_clean_linker_0, # of connection points: 2
#     Edge 44, Type (0, 1), BuildingBlock: UVAHIK_clean_linker_0, # of connection points: 2
#     Edge 45, Type (0, 1), BuildingBlock: UVAHIK_clean_linker_0, # of connection points: 2
#     Edge 46, Type (0, 1), BuildingBlock: UVAHIK_clean_linker_0, # of connection points: 2
#     Edge 47, Type (0, 1), BuildingBlock: UVAHIK_clean_linker_0, # of connection points: 2
#     Edge 48, Type (0, 1), BuildingBlock: UVAHIK_clean_linker_0, # of connection points: 2
#     Edge 49, Type (0, 1), BuildingBlock: UVAHIK_clean_linker_0, # of connection points: 2
#     Edge 50, Type (0, 1), BuildingBlock: UVAHIK_clean_linker_0, # of connection points: 2
#     Edge 51, Type (0, 1), BuildingBlock: UVAHIK_clean_linker_0, # of connection points: 2
#     Edge 52, Type (0, 1), BuildingBlock: UVAHIK_clean_linker_0, # of connection points: 2
#     Edge 53, Type (0, 1), BuildingBlock: UVAHIK_clean_linker_0, # of connection points: 2
#     Edge 54, Type (0, 1), BuildingBlock: UVAHIK_clean_linker_0, # of connection points: 2
#     Edge 55, Type (0, 1), BuildingBlock: UVAHIK_clean_linker_0, # of connection points: 2
#     Edge 56, Type (0, 1), BuildingBlock: UVAHIK_clean_linker_0, # of connection points: 2
#     Edge 57, Type (0, 1), BuildingBlock: UVAHIK_clean_linker_0, # of connection points: 2
#     Edge 58, Type (0, 1), BuildingBlock: UVAHIK_clean_linker_0, # of connection points: 2
#     Edge 59, Type (0, 1), BuildingBlock: UVAHIK_clean_linker_0, # of connection points: 2
#     Edge 60, Type (0, 1), BuildingBlock: UVAHIK_clean_linker_0, # of connection points: 2
#     Edge 61, Type (0, 1), BuildingBlock: UVAHIK_clean_linker_0, # of connection points: 2
#     Edge 62, Type (0, 1), BuildingBlock: UVAHIK_clean_linker_0, # of connection points: 2
#     Edge 63, Type (0, 1), BuildingBlock: UVAHIK_clean_linker_0, # of connection points: 2
#     Edge 64, Type (0, 1), BuildingBlock: UVAHIK_clean_linker_0, # of connection points: 2
#     Edge 65, Type (0, 1), BuildingBlock: UVAHIK_clean_linker_0, # of connection points: 2
#     Edge 66, Type (0, 1), BuildingBlock: UVAHIK_clean_linker_0, # of connection points: 2
#     Edge 67, Type (0, 1), BuildingBlock: UVAHIK_clean_linker_0, # of connection points: 2
#     Edge 68, Type (0, 1), BuildingBlock: UVAHIK_clean_linker_0, # of connection points: 2
#     Edge 69, Type (0, 1), BuildingBlock: UVAHIK_clean_linker_0, # of connection points: 2
#     Edge 70, Type (0, 1), BuildingBlock: UVAHIK_clean_linker_0, # of connection points: 2
#     Edge 71, Type (0, 1), BuildingBlock: UVAHIK_clean_linker_0, # of connection points: 2
#     Edge 72, Type (0, 1), BuildingBlock: UVAHIK_clean_linker_0, # of connection points: 2
#     Edge 73, Type (0, 1), BuildingBlock: UVAHIK_clean_linker_0, # of connection points: 2
#     Edge 74, Type (0, 1), BuildingBlock: UVAHIK_clean_linker_0, # of connection points: 2
#     Edge 75, Type (0, 1), BuildingBlock: UVAHIK_clean_linker_0, # of connection points: 2
#     Edge 76, Type (0, 1), BuildingBlock: UVAHIK_clean_linker_0, # of connection points: 2
#     Edge 77, Type (0, 1), BuildingBlock: UVAHIK_clean_linker_0, # of connection points: 2
#     Edge 78, Type (0, 1), BuildingBlock: UVAHIK_clean_linker_0, # of connection points: 2
#     Edge 79, Type (0, 1), BuildingBlock: UVAHIK_clean_linker_0, # of connection points: 2
#     Edge 80, Type (0, 1), BuildingBlock: UVAHIK_clean_linker_0, # of connection points: 2
# Relax obj value: 0.032
# Max RMSD: 0.130
# Mean RMSD: 0.071
data_MOF--net-eea--node1-CUWYAW_clean_sbu_0--node2-BELTOD_clean_linker_0--edge1-UVAHIK_clean_linker_0
_symmetry_space_group_name_H-M    P1
_symmetry_Int_Tables_number       1
_symmetry_cell_setting            triclinic
loop_
_symmetry_equiv_pos_as_xyz
'x, y, z'
_cell_length_a     73.848723
_cell_length_b     73.441615
_cell_length_c     101.62333
_cell_angle_alpha  93.833626
_cell_angle_beta   93.493149
_cell_angle_gamma 119.88057
loop_
_atom_site_label
_atom_site_type_symbol
_atom_site_fract_x
_atom_site_fract_y
_atom_site_fract_z
_atom_type_partial_charge
P0 P 0.3076 0.16315 0.40175 0.0
H1 H 0.28237 0.14102 0.37644 0.0
H2 H 0.26244 0.10366 0.36769 0.0
H3 H 0.28116 0.08743 0.40418 0.0
H4 H 0.30143 0.12478 0.41269 0.0
H5 H 0.3231 0.20337 0.39049 0.0
H6 H 0.30545 0.2215 0.38193 0.0
H7 H 0.24619 0.17124 0.39175 0.0
H8 H 0.26386 0.15292 0.39983 0.0
H9 H 0.34329 0.18711 0.42226 0.0
H10 H 0.27625 0.14584 0.42046 0.0
O11 O 0.33151 0.17349 0.39671 0.0
H12 H 0.34596 0.19029 0.44651 0.0
H13 H 0.27878 0.14878 0.44466 0.0
C14 C 0.29286 0.13562 0.39537 0.0
C15 C 0.28204 0.12939 0.38259 0.0
C16 C 0.2706 0.10802 0.37761 0.0
C17 C 0.27003 0.09253 0.38528 0.0
C18 C 0.28134 0.09894 0.39798 0.0
C19 C 0.29279 0.12031 0.40292 0.0
C20 C 0.29473 0.17671 0.39565 0.0
C21 C 0.3063 0.19623 0.39074 0.0
C22 C 0.2962 0.20666 0.38595 0.0
C23 C 0.27437 0.19779 0.3861 0.0
C24 C 0.26295 0.17835 0.39126 0.0
C25 C 0.27305 0.16793 0.396 0.0
C26 C 0.30959 0.16613 0.41958 0.0
C27 C 0.32915 0.17875 0.42708 0.0
C28 C 0.33065 0.1805 0.44094 0.0
C29 C 0.31258 0.16975 0.44751 0.0
C30 C 0.29296 0.15747 0.43991 0.0
C31 C 0.2915 0.15571 0.42607 0.0
P32 P 0.89631 0.10655 0.43026 0.0
H33 H 0.89227 0.06929 0.41536 0.0
H34 H 0.86553 0.04259 0.39859 0.0
H35 H 0.83171 0.07659 0.39911 0.0
H36 H 0.85862 0.10329 0.41609 0.0
H37 H 0.94203 0.12747 0.43415 0.0
H38 H 0.96965 0.156 0.42391 0.0
H39 H 0.92286 0.16305 0.40078 0.0
H40 H 0.89513 0.13406 0.41098 0.0
H41 H 0.85484 0.08593 0.43979 0.0
H42 H 0.91299 0.14529 0.44844 0.0
O43 O 0.90702 0.09438 0.43812 0.0
H44 H 0.84069 0.09544 0.45833 0.0
H45 H 0.89939 0.15449 0.4675 0.0
C46 C 0.87711 0.08792 0.41721 0.0
C47 C 0.87914 0.07105 0.41186 0.0
C48 C 0.86392 0.05589 0.40217 0.0
C49 C 0.84642 0.05741 0.39756 0.0
C50 C 0.84485 0.07482 0.4026 0.0
C51 C 0.8602 0.09008 0.41227 0.0
C52 C 0.91653 0.12844 0.42316 0.0
C53 C 0.93767 0.13514 0.42689 0.0
C54 C 0.95349 0.15161 0.4211 0.0
C55 C 0.94847 0.1618 0.41151 0.0
C56 C 0.92722 0.15533 0.40801 0.0
C57 C 0.91138 0.13882 0.41385 0.0
C58 C 0.88475 0.11516 0.44248 0.0
C59 C 0.86442 0.10124 0.4455 0.0
C60 C 0.85646 0.10658 0.45626 0.0
C61 C 0.86893 0.1257 0.4645 0.0
C62 C 0.88919 0.13981 0.46126 0.0
C63 C 0.89703 0.13454 0.45037 0.0
P64 P 0.85502 0.70657 0.41019 0.0
H65 H 0.82359 0.69537 0.38763 0.0
H66 H 0.80273 0.71095 0.38026 0.0
H67 H 0.83252 0.75961 0.41346 0.0
H68 H 0.85314 0.74373 0.42095 0.0
H69 H 0.88228 0.69215 0.39992 0.0
H70 H 0.91741 0.71066 0.39271 0.0
H71 H 0.92068 0.77043 0.40253 0.0
H72 H 0.88544 0.75182 0.40968 0.0
H73 H 0.82937 0.67387 0.42649 0.0
H74 H 0.88211 0.73757 0.43283 0.0
O75 O 0.8432 0.68175 0.40289 0.0
H76 H 0.82986 0.67233 0.45042 0.0
H77 H 0.88265 0.73614 0.45684 0.0
C78 C 0.83975 0.71824 0.40492 0.0
C79 C 0.82555 0.70929 0.3934 0.0
C80 C 0.81361 0.71818 0.3892 0.0
C81 C 0.81596 0.73642 0.39633 0.0
C82 C 0.83047 0.74559 0.40776 0.0
C83 C 0.8422 0.73648 0.41206 0.0
C84 C 0.88106 0.72056 0.40512 0.0
C85 C 0.89047 0.70923 0.40046 0.0
C86 C 0.91054 0.71981 0.39633 0.0
C87 C 0.92171 0.74197 0.39697 0.0
C88 C 0.91246 0.75334 0.40197 0.0
C89 C 0.89226 0.7427 0.40597 0.0
C90 C 0.85593 0.70569 0.42786 0.0
C91 C 0.84119 0.68747 0.43302 0.0
C92 C 0.84151 0.68658 0.44671 0.0
C93 C 0.85641 0.70405 0.4555 0.0
C94 C 0.87096 0.72245 0.4503 0.0
C95 C 0.87073 0.72324 0.43658 0.0
P96 P 0.12928 0.28727 0.59242 0.0
H97 H 0.10703 0.30599 0.60506 0.0
H98 H 0.07152 0.29107 0.61143 0.0
H99 H 0.05775 0.22874 0.59585 0.0
H100 H 0.09363 0.24385 0.58976 0.0
H101 H 0.15524 0.29085 0.61631 0.0
H102 H 0.17267 0.27152 0.62277 0.0
H103 H 0.14545 0.22994 0.5861 0.0
H104 H 0.1285 0.24985 0.57956 0.0
H105 H 0.09682 0.27873 0.57057 0.0
H106 H 0.16313 0.3003 0.57576 0.0
O107 O 0.14387 0.31177 0.6001 0.0
H108 H 0.09865 0.28289 0.54694 0.0
H109 H 0.16503 0.30425 0.55211 0.0
C110 C 0.10306 0.27597 0.59716 0.0
C111 C 0.09644 0.2891 0.60308 0.0
C112 C 0.07602 0.28055 0.60661 0.0
C113 C 0.06175 0.25869 0.60415 0.0
C114 C 0.06842 0.24559 0.59805 0.0
C115 C 0.08891 0.2542 0.59455 0.0
C116 C 0.14092 0.272 0.59738 0.0
C117 C 0.15303 0.27758 0.60967 0.0
C118 C 0.16284 0.26637 0.61339 0.0
C119 C 0.16052 0.24918 0.60494 0.0
C120 C 0.14785 0.24329 0.59275 0.0
C121 C 0.13808 0.25459 0.58902 0.0
C122 C 0.12985 0.28908 0.57489 0.0
C123 C 0.11174 0.28415 0.56662 0.0
C124 C 0.11278 0.28648 0.5531 0.0
C125 C 0.13199 0.29394 0.54767 0.0
C126 C 0.15005 0.29873 0.55602 0.0
C127 C 0.14897 0.29635 0.56951 0.0
P128 P 0.78031 0.88757 0.59171 0.0
H129 H 0.80015 0.9144 0.61653 0.0
H130 H 0.79659 0.94253 0.62811 0.0
H131 H 0.74811 0.93218 0.59756 0.0
H132 H 0.75144 0.90371 0.58612 0.0
H133 H 0.77543 0.84668 0.58332 0.0
H134 H 0.76901 0.81658 0.59527 0.0
H135 H 0.75967 0.8467 0.63008 0.0
H136 H 0.76579 0.8766 0.61806 0.0
H137 H 0.7963 0.90696 0.56783 0.0
H138 H 0.73875 0.8556 0.57846 0.0
O139 O 0.80619 0.89797 0.59163 0.0
H140 H 0.78134 0.89895 0.54468 0.0
H141 H 0.72372 0.84714 0.55519 0.0
C142 C 0.77617 0.90707 0.60046 0.0
C143 C 0.78858 0.91801 0.61241 0.0
C144 C 0.78645 0.93398 0.61904 0.0
C145 C 0.77206 0.93948 0.61372 0.0
C146 C 0.75938 0.92827 0.60183 0.0
C147 C 0.76129 0.91202 0.5953 0.0
C148 C 0.77108 0.86389 0.59976 0.0
C149 C 0.77142 0.84655 0.59341 0.0
C150 C 0.7677 0.82933 0.60023 0.0
C151 C 0.76392 0.82937 0.61362 0.0
C152 C 0.76269 0.84636 0.61979 0.0
C153 C 0.7662 0.86348 0.6129 0.0
C154 C 0.76881 0.88153 0.57476 0.0
C155 C 0.78049 0.89381 0.56514 0.0
C156 C 0.77194 0.88916 0.55191 0.0
C157 C 0.75145 0.8722 0.54806 0.0
C158 C 0.73953 0.8603 0.55783 0.0
C159 C 0.74815 0.865 0.57111 0.0
P160 P 0.13969 0.83436 0.60074 0.0
H161 H 0.17744 0.85836 0.61981 0.0
H162 H 0.19554 0.89477 0.63049 0.0
H163 H 0.14843 0.90489 0.61056 0.0
H164 H 0.13042 0.86852 0.59999 0.0
H165 H 0.11849 0.80669 0.62079 0.0
H166 H 0.08249 0.79016 0.62664 0.0
H167 H 0.06609 0.81757 0.59498 0.0
H168 H 0.10201 0.83361 0.58901 0.0
H169 H 0.17069 0.86581 0.58568 0.0
H170 H 0.11383 0.80521 0.5773 0.0
O171 O 0.15138 0.82139 0.60613 0.0
H172 H 0.17367 0.86774 0.56201 0.0
H173 H 0.11634 0.80729 0.55351 0.0
C174 C 0.15245 0.86069 0.60924 0.0
C175 C 0.17091 0.86836 0.61784 0.0
C176 C 0.1813 0.8892 0.62387 0.0
C177 C 0.17337 0.90267 0.62139 0.0
C178 C 0.15475 0.89481 0.61284 0.0
C179 C 0.14445 0.87402 0.60678 0.0
C180 C 0.11279 0.82101 0.60432 0.0
C181 C 0.10707 0.80889 0.615 0.0
C182 C 0.08653 0.79963 0.61841 0.0
C183 C 0.0714 0.80255 0.61127 0.0
C184 C 0.07725 0.81473 0.60055 0.0
C185 C 0.0978 0.82397 0.59715 0.0
C186 C 0.14166 0.83568 0.58324 0.0
C187 C 0.15866 0.85304 0.57874 0.0
C188 C 0.16031 0.85416 0.56518 0.0
C189 C 0.14508 0.83782 0.55584 0.0
C190 C 0.12837 0.82013 0.56042 0.0
C191 C 0.12679 0.81901 0.57402 0.0
P192 P 0.97849 0.5028 0.73417 0.0
H193 H 0.98219 0.47873 0.71146 0.0
H194 H 0.9624 0.44137 0.70285 0.0
H195 H 0.92267 0.42895 0.73458 0.0
H196 H 0.94318 0.46607 0.74343 0.0
H197 H 0.99278 0.54398 0.72461 0.0
H198 H 0.9741 0.56068 0.7154 0.0
H199 H 0.91492 0.50602 0.72114 0.0
H200 H 0.93367 0.48922 0.72988 0.0
H201 H 0.01086 0.50554 0.75337 0.0
H202 H 0.95267 0.50577 0.75421 0.0
O203 O 0.00224 0.51392 0.72881 0.0
H204 H 0.01427 0.50692 0.77751 0.0
H205 H 0.95552 0.50636 0.77828 0.0
C206 C 0.96438 0.47511 0.72819 0.0
C207 C 0.96938 0.46789 0.71664 0.0
C208 C 0.95787 0.44653 0.71165 0.0
C209 C 0.94087 0.43206 0.718 0.0
C210 C 0.93587 0.43949 0.72955 0.0
C211 C 0.94756 0.46079 0.73461 0.0
C212 C 0.96463 0.51522 0.72772 0.0
C213 C 0.97578 0.53556 0.72381 0.0
C214 C 0.96507 0.54516 0.71864 0.0
C215 C 0.94297 0.53465 0.71745 0.0
C216 C 0.9319 0.51439 0.72164 0.0
C217 C 0.94264 0.50478 0.72672 0.0
C218 C 0.98171 0.50591 0.75201 0.0
C219 C 0.99891 0.5061 0.75877 0.0
C220 C 0.00072 0.50666 0.77257 0.0
C221 C 0.98513 0.50669 0.77986 0.0
C222 C 0.96799 0.50671 0.77302 0.0
C223 C 0.9663 0.5063 0.75922 0.0
P224 P 0.5667 0.43855 0.76012 0.0
H225 H 0.56061 0.41213 0.73581 0.0
H226 H 0.52932 0.38532 0.72159 0.0
H227 H 0.49008 0.39622 0.74696 0.0
H228 H 0.5214 0.42342 0.76098 0.0
H229 H 0.60103 0.47973 0.77147 0.0
H230 H 0.62689 0.51025 0.76159 0.0
H231 H 0.5953 0.47941 0.72258 0.0
H232 H 0.56899 0.44957 0.73255 0.0
H233 H 0.56753 0.42415 0.78614 0.0
H234 H 0.55136 0.46683 0.76874 0.0
O235 O 0.58103 0.42708 0.76272 0.0
H236 H 0.55911 0.43295 0.80766 0.0
H237 H 0.54272 0.47565 0.79033 0.0
C238 C 0.54341 0.41988 0.74941 0.0
C239 C 0.5453 0.40899 0.7382 0.0
C240 C 0.52744 0.39375 0.73007 0.0
C241 C 0.50734 0.3888 0.73318 0.0
C242 C 0.50543 0.39977 0.74438 0.0
C243 C 0.52336 0.41534 0.75238 0.0
C244 C 0.58297 0.46236 0.7528 0.0
C245 C 0.59935 0.47979 0.76081 0.0
C246 C 0.61429 0.49714 0.75513 0.0
C247 C 0.61337 0.49722 0.74126 0.0
C248 C 0.59642 0.48004 0.73329 0.0
C249 C 0.58137 0.46278 0.73901 0.0
C250 C 0.56031 0.44505 0.77591 0.0
C251 C 0.56226 0.4355 0.78696 0.0
C252 C 0.5575 0.44058 0.79927 0.0
C253 C 0.55042 0.45509 0.80068 0.0
C254 C 0.54811 0.46437 0.78951 0.0
C255 C 0.55311 0.45944 0.77721 0.0
P256 P 0.52433 0.04914 0.74825 0.0
H257 H 0.48551 0.03117 0.73032 0.0
H258 H 0.46453 0.04588 0.72186 0.0
H259 H 0.50854 0.10637 0.74382 0.0
H260 H 0.52936 0.09133 0.75246 0.0
H261 H 0.54228 0.04084 0.72546 0.0
H262 H 0.57727 0.05913 0.71814 0.0
H263 H 0.59785 0.10725 0.75147 0.0
H264 H 0.56276 0.08848 0.7589 0.0
H265 H 0.49978 0.05504 0.76811 0.0
H266 H 0.55176 0.0438 0.76739 0.0
O267 O 0.51292 0.02377 0.74213 0.0
H268 H 0.50028 0.05288 0.79199 0.0
H269 H 0.55244 0.04175 0.79132 0.0
C270 C 0.50901 0.06018 0.742 0.0
C271 C 0.49069 0.0476 0.73333 0.0
C272 C 0.47875 0.05607 0.72842 0.0
C273 C 0.48492 0.07734 0.73211 0.0
C274 C 0.50328 0.0899 0.74087 0.0
C275 C 0.51526 0.08138 0.74575 0.0
C276 C 0.55008 0.06311 0.74284 0.0
C277 C 0.55434 0.05528 0.73122 0.0
C278 C 0.57433 0.06588 0.72698 0.0
C279 C 0.5904 0.08466 0.73423 0.0
C280 C 0.58592 0.09267 0.74577 0.0
C281 C 0.56587 0.08202 0.75 0.0
C282 C 0.52603 0.05002 0.76603 0.0
C283 C 0.51159 0.05256 0.77312 0.0
C284 C 0.51191 0.05133 0.78679 0.0
C285 C 0.52645 0.0472 0.79354 0.0
C286 C 0.54098 0.04482 0.78639 0.0
C287 C 0.54071 0.04615 0.77274 0.0
P288 P 0.79645 0.61797 0.92359 0.0
H289 H 0.7829 0.60534 0.94934 0.0
H290 H 0.74884 0.59045 0.95808 0.0
H291 H 0.72023 0.59164 0.91998 0.0
H292 H 0.75421 0.60604 0.91126 0.0
H293 H 0.84003 0.62859 0.92445 0.0
H294 H 0.85786 0.60882 0.92921 0.0
H295 H 0.79823 0.55414 0.93399 0.0
H296 H 0.78045 0.57386 0.929 0.0
H297 H 0.81039 0.65397 0.90812 0.0
H298 H 0.7792 0.58607 0.90056 0.0
O299 O 0.81134 0.64211 0.93171 0.0
H300 H 0.80999 0.65665 0.88435 0.0
H301 H 0.77816 0.58853 0.87664 0.0
C302 C 0.77104 0.60647 0.92962 0.0
C303 C 0.76923 0.60222 0.94286 0.0
C304 C 0.74978 0.59386 0.94785 0.0
C305 C 0.73178 0.58983 0.93972 0.0
C306 C 0.7337 0.59422 0.92645 0.0
C307 C 0.75318 0.60254 0.92145 0.0
C308 C 0.80905 0.6029 0.92678 0.0
C309 C 0.83081 0.61234 0.92651 0.0
C310 C 0.84094 0.60099 0.92912 0.0
C311 C 0.82942 0.58001 0.93206 0.0
C312 C 0.8075 0.57039 0.93193 0.0
C313 C 0.79736 0.58168 0.92915 0.0
C314 C 0.79496 0.61983 0.90606 0.0
C315 C 0.80328 0.63961 0.90133 0.0
C316 C 0.80288 0.6411 0.8877 0.0
C317 C 0.79403 0.6228 0.87856 0.0
C318 C 0.78535 0.60295 0.8834 0.0
C319 C 0.78583 0.60149 0.89705 0.0
P320 P 0.44343 0.21747 0.92051 0.0
H321 H 0.47888 0.25546 0.93502 0.0
H322 H 0.48143 0.28522 0.9488 0.0
H323 H 0.41367 0.25536 0.94439 0.0
H324 H 0.41136 0.22578 0.9302 0.0
H325 H 0.44706 0.18038 0.91396 0.0
H326 H 0.44307 0.15153 0.9265 0.0
H327 H 0.42447 0.17683 0.95916 0.0
H328 H 0.42786 0.20531 0.94648 0.0
H329 H 0.43297 0.24398 0.90559 0.0
H330 H 0.41458 0.17802 0.90318 0.0
O331 O 0.46688 0.22586 0.91507 0.0
H332 H 0.41266 0.23763 0.88432 0.0
H333 H 0.39518 0.17178 0.88153 0.0
C334 C 0.44497 0.23865 0.93141 0.0
C335 C 0.46457 0.2553 0.93701 0.0
C336 C 0.46598 0.27224 0.94501 0.0
C337 C 0.44774 0.27273 0.9477 0.0
C338 C 0.42803 0.25564 0.94236 0.0
C339 C 0.42667 0.23871 0.9343 0.0
C340 C 0.43772 0.19498 0.92924 0.0
C341 C 0.44163 0.17944 0.92369 0.0
C342 C 0.43932 0.16297 0.93084 0.0
C343 C 0.43346 0.16201 0.94378 0.0
C344 C 0.42904 0.17728 0.94921 0.0
C345 C 0.43098 0.19356 0.94194 0.0
C346 C 0.42513 0.21146 0.90612 0.0
C347 C 0.42426 0.22803 0.90061 0.0
C348 C 0.41284 0.22443 0.88833 0.0
C349 C 0.40249 0.20424 0.8811 0.0
C350 C 0.40278 0.18748 0.88686 0.0
C351 C 0.41403 0.19108 0.89926 0.0
P352 P 0.80272 0.16523 0.93059 0.0
H353 H 0.84509 0.19202 0.94442 0.0
H354 H 0.86507 0.22954 0.95286 0.0
H355 H 0.81342 0.23695 0.93768 0.0
H356 H 0.79341 0.19937 0.92956 0.0
H357 H 0.7619 0.13054 0.91813 0.0
H358 H 0.7265 0.11456 0.92507 0.0
H359 H 0.75067 0.15917 0.9605 0.0
H360 H 0.78594 0.17454 0.9537 0.0
H361 H 0.82527 0.1518 0.91342 0.0
H362 H 0.78154 0.17426 0.90892 0.0
O363 O 0.81369 0.15256 0.93749 0.0
H364 H 0.82765 0.15088 0.88956 0.0
H365 H 0.78436 0.1741 0.88508 0.0
C366 C 0.81768 0.1929 0.93655 0.0
C367 C 0.83806 0.20172 0.94296 0.0
C368 C 0.84952 0.2232 0.94768 0.0
C369 C 0.84078 0.23621 0.94601 0.0
C370 C 0.82046 0.22731 0.93934 0.0
C371 C 0.80906 0.20586 0.93461 0.0
C372 C 0.77645 0.15409 0.93522 0.0
C373 C 0.75951 0.137 0.92731 0.0
C374 C 0.73927 0.12791 0.93128 0.0
C375 C 0.73571 0.13564 0.94331 0.0
C376 C 0.75284 0.15268 0.95124 0.0
C377 C 0.77302 0.16166 0.94728 0.0
C378 C 0.80305 0.16287 0.91289 0.0
C379 C 0.81606 0.1564 0.90727 0.0
C380 C 0.81756 0.15608 0.89363 0.0
C381 C 0.80625 0.16248 0.88538 0.0
C382 C 0.79305 0.16877 0.89109 0.0
C383 C 0.79151 0.169 0.90473 0.0
P384 P 0.64437 0.83365 0.06856 0.0
H385 H 0.64761 0.80967 0.04562 0.0
H386 H 0.6274 0.77242 0.0368 0.0
H387 H 0.5878 0.76004 0.06861 0.0
H388 H 0.60875 0.79706 0.07766 0.0
H389 H 0.65938 0.87509 0.0592 0.0
H390 H 0.64123 0.89252 0.05031 0.0
H391 H 0.58157 0.83837 0.05591 0.0
H392 H 0.59977 0.82085 0.06432 0.0
H393 H 0.67507 0.83339 0.08775 0.0
H394 H 0.61961 0.83878 0.08861 0.0
O395 O 0.6682 0.84453 0.06334 0.0
H396 H 0.67807 0.83437 0.11189 0.0
H397 H 0.62208 0.83911 0.11266 0.0
C398 C 0.6299 0.80605 0.0624 0.0
C399 C 0.63473 0.79886 0.05077 0.0
C400 C 0.62298 0.77756 0.04566 0.0
C401 C 0.6059 0.76313 0.05197 0.0
C402 C 0.60105 0.77054 0.0636 0.0
C403 C 0.61298 0.79178 0.06878 0.0
C404 C 0.63093 0.84654 0.0622 0.0
C405 C 0.64239 0.86693 0.05842 0.0
C406 C 0.63198 0.87695 0.05344 0.0
C407 C 0.60991 0.86681 0.05231 0.0
C408 C 0.59854 0.84648 0.05636 0.0
C409 C 0.60896 0.83644 0.06123 0.0
C410 C 0.64736 0.83639 0.08641 0.0
C411 C 0.66365 0.835 0.09315 0.0
C412 C 0.66521 0.83535 0.10694 0.0
C413 C 0.65029 0.8368 0.11423 0.0
C414 C 0.63404 0.83834 0.1074 0.0
C415 C 0.63257 0.83809 0.09361 0.0
P416 P 0.22669 0.76805 0.09132 0.0
H417 H 0.21824 0.75364 0.0631 0.0
H418 H 0.18587 0.72889 0.049 0.0
H419 H 0.14984 0.72567 0.08161 0.0
H420 H 0.1822 0.75021 0.09566 0.0
H421 H 0.27205 0.79017 0.09603 0.0
H422 H 0.29981 0.82017 0.08684 0.0
H423 H 0.25302 0.82663 0.06324 0.0
H424 H 0.22519 0.79621 0.07242 0.0
H425 H 0.21649 0.74692 0.11522 0.0
H426 H 0.22627 0.80576 0.10259 0.0
O427 O 0.23567 0.75143 0.09313 0.0
H428 H 0.21008 0.75671 0.13709 0.0
H429 H 0.22031 0.81598 0.12466 0.0
C430 C 0.20265 0.7539 0.08038 0.0
C431 C 0.20332 0.74804 0.06709 0.0
C432 C 0.18479 0.73393 0.05904 0.0
C433 C 0.1653 0.72525 0.06422 0.0
C434 C 0.16464 0.73194 0.07738 0.0
C435 C 0.18317 0.74609 0.08541 0.0
C436 C 0.24664 0.7907 0.08465 0.0
C437 C 0.26776 0.79802 0.08886 0.0
C438 C 0.28362 0.81532 0.08369 0.0
C439 C 0.27863 0.82579 0.07428 0.0
C440 C 0.25736 0.81871 0.07033 0.0
C441 C 0.24146 0.80136 0.07556 0.0
C442 C 0.22234 0.77583 0.10742 0.0
C443 C 0.21752 0.76209 0.11723 0.0
C444 C 0.21393 0.76776 0.12975 0.0
C445 C 0.215 0.78728 0.1327 0.0
C446 C 0.21936 0.80084 0.12271 0.0
C447 C 0.22293 0.7951 0.11013 0.0
P448 P 0.19169 0.38413 0.08114 0.0
H449 H 0.15877 0.3708 0.05908 0.0
H450 H 0.13758 0.38584 0.05131 0.0
H451 H 0.17047 0.43806 0.08224 0.0
H452 H 0.19162 0.42285 0.09 0.0
H453 H 0.22269 0.37097 0.07905 0.0
H454 H 0.25796 0.38787 0.07183 0.0
H455 H 0.25278 0.44216 0.06378 0.0
H456 H 0.21774 0.42545 0.07121 0.0
H457 H 0.16052 0.37776 0.09927 0.0
H458 H 0.2248 0.39162 0.10224 0.0
O459 O 0.17939 0.35869 0.07506 0.0
H460 H 0.16041 0.37601 0.1232 0.0
H461 H 0.22464 0.38966 0.12611 0.0
C462 C 0.17658 0.39561 0.0752 0.0
C463 C 0.1614 0.38545 0.06421 0.0
C464 C 0.14925 0.39402 0.05981 0.0
C465 C 0.15228 0.41305 0.06623 0.0
C466 C 0.16785 0.42343 0.07707 0.0
C467 C 0.17985 0.41472 0.08154 0.0
C468 C 0.21752 0.39686 0.07563 0.0
C469 C 0.22916 0.38653 0.07576 0.0
C470 C 0.24932 0.39622 0.07171 0.0
C471 C 0.25805 0.41631 0.06726 0.0
C472 C 0.24633 0.42661 0.06709 0.0
C473 C 0.22629 0.41705 0.07136 0.0
C474 C 0.19275 0.38516 0.09895 0.0
C475 C 0.17472 0.38078 0.10508 0.0
C476 C 0.17467 0.37979 0.11876 0.0
C477 C 0.19254 0.38275 0.12651 0.0
C478 C 0.21062 0.38721 0.12035 0.0
C479 C 0.21072 0.38842 0.10669 0.0
P480 P 0.46558 0.95544 0.25968 0.0
H481 H 0.44879 0.97154 0.27975 0.0
H482 H 0.41485 0.9562 0.28853 0.0
H483 H 0.39324 0.8984 0.26273 0.0
H484 H 0.4272 0.91419 0.25371 0.0
H485 H 0.49906 0.96676 0.28096 0.0
H486 H 0.51798 0.94922 0.2882 0.0
H487 H 0.47961 0.89647 0.25833 0.0
H488 H 0.46111 0.91448 0.25091 0.0
H489 H 0.43312 0.95239 0.23992 0.0
H490 H 0.49347 0.95646 0.24034 0.0
O491 O 0.47986 0.98101 0.26544 0.0
H492 H 0.4312 0.95248 0.21581 0.0
H493 H 0.49189 0.95699 0.21635 0.0
C494 C 0.44043 0.94404 0.26601 0.0
C495 C 0.43674 0.95561 0.27593 0.0
C496 C 0.41735 0.94673 0.28103 0.0
C497 C 0.40132 0.92603 0.27636 0.0
C498 C 0.40515 0.91446 0.26643 0.0
C499 C 0.42458 0.9234 0.26132 0.0
C500 C 0.4789 0.94204 0.26529 0.0
C501 C 0.49474 0.95145 0.27595 0.0
C502 C 0.50544 0.9413 0.28015 0.0
C503 C 0.50035 0.92144 0.27383 0.0
C504 C 0.48413 0.91188 0.26328 0.0
C505 C 0.47345 0.92208 0.25909 0.0
C506 C 0.46316 0.95378 0.24186 0.0
C507 C 0.44582 0.95298 0.23481 0.0
C508 C 0.44483 0.95324 0.22104 0.0
C509 C 0.46132 0.95457 0.21413 0.0
C510 C 0.4787 0.95546 0.2213 0.0
C511 C 0.47965 0.95521 0.23504 0.0
P512 P 0.10987 0.55008 0.25228 0.0
H513 H 0.14525 0.58739 0.26741 0.0
H514 H 0.14782 0.61677 0.28165 0.0
H515 H 0.08016 0.58774 0.2765 0.0
H516 H 0.07783 0.55855 0.26188 0.0
H517 H 0.114 0.51332 0.24555 0.0
H518 H 0.10973 0.48411 0.2578 0.0
H519 H 0.08994 0.50825 0.29039 0.0
H520 H 0.09361 0.5371 0.27798 0.0
H521 H 0.09926 0.57674 0.23759 0.0
H522 H 0.08124 0.51086 0.23474 0.0
O523 O 0.13335 0.55863 0.24685 0.0
H524 H 0.07884 0.57057 0.21637 0.0
H525 H 0.06176 0.5048 0.21317 0.0
C526 C 0.11139 0.57106 0.2634 0.0
C527 C 0.13097 0.58734 0.26932 0.0
C528 C 0.13239 0.60405 0.27759 0.0
C529 C 0.11419 0.60467 0.28021 0.0
C530 C 0.0945 0.58793 0.27452 0.0
C531 C 0.09312 0.57122 0.26621 0.0
C532 C 0.10412 0.52739 0.26081 0.0
C533 C 0.10828 0.51208 0.2552 0.0
C534 C 0.10581 0.49539 0.26219 0.0
C535 C 0.09952 0.49399 0.27502 0.0
C536 C 0.09486 0.50905 0.28051 0.0
C537 C 0.09696 0.52554 0.2734 0.0
C538 C 0.09159 0.54423 0.2379 0.0
C539 C 0.09061 0.56084 0.23253 0.0
C540 C 0.07914 0.55734 0.22027 0.0
C541 C 0.06884 0.53723 0.21295 0.0
C542 C 0.06929 0.52044 0.21857 0.0
C543 C 0.08059 0.52393 0.23093 0.0
P544 P 0.469 0.50353 0.26528 0.0
H545 H 0.47577 0.52392 0.29212 0.0
H546 H 0.49519 0.56096 0.30179 0.0
H547 H 0.51463 0.58006 0.26338 0.0
H548 H 0.49546 0.54322 0.25385 0.0
H549 H 0.43566 0.45982 0.26484 0.0
H550 H 0.39929 0.4436 0.27022 0.0
H551 H 0.40664 0.50557 0.27815 0.0
H552 H 0.44275 0.52166 0.27251 0.0
H553 H 0.49316 0.49153 0.24865 0.0
H554 H 0.44723 0.51104 0.24323 0.0
O555 O 0.47935 0.49043 0.27235 0.0
H556 H 0.49579 0.49021 0.22481 0.0
H557 H 0.45016 0.51035 0.21938 0.0
C558 C 0.48397 0.5308 0.27226 0.0
C559 C 0.48426 0.53612 0.28581 0.0
C560 C 0.49525 0.55726 0.2913 0.0
C561 C 0.50636 0.57342 0.28333 0.0
C562 C 0.50635 0.56796 0.2698 0.0
C563 C 0.49525 0.54684 0.26431 0.0
C564 C 0.44207 0.49192 0.26867 0.0
C565 C 0.42939 0.46989 0.2677 0.0
C566 C 0.40862 0.46065 0.27068 0.0
C567 C 0.40027 0.47337 0.27472 0.0
C568 C 0.41282 0.49544 0.27525 0.0
C569 C 0.43349 0.50463 0.27209 0.0
C570 C 0.46975 0.50105 0.24764 0.0
C571 C 0.48351 0.49536 0.2423 0.0
C572 C 0.48514 0.49481 0.22867 0.0
C573 C 0.4732 0.5002 0.22017 0.0
C574 C 0.45932 0.50578 0.2256 0.0
C575 C 0.45765 0.50623 0.23923 0.0
C576 C 0.52614 0.01297 0.04289 0.0
Eu577 Eu 0.50987 0.00943 0.01874 0.0
C578 C 0.51808 0.00732 0.05573 0.0
C579 C 0.4977 0.00284 0.05776 0.0
C580 C 0.48999 0.99685 0.06992 0.0
C581 C 0.50252 0.99515 0.0802 0.0
C582 C 0.52294 -0.00033 0.07808 0.0
C583 C 0.53063 0.0057 0.06593 0.0
C584 C 0.49255 0.03136 0.00921 0.0
C585 C 0.45997 0.97255 0.015 0.0
C586 C 0.46988 0.98801 0.96661 0.0
Eu587 Eu 0.48608 0.99238 0.99089 0.0
C588 C 0.47749 0.99391 0.95362 0.0
C589 C 0.4682 0.97881 0.94246 0.0
C590 C 0.47496 0.98406 0.93 0.0
C591 C 0.49108 0.00456 0.92847 0.0
C592 C 0.50047 0.01965 0.93968 0.0
C593 C 0.49379 0.01435 0.95216 0.0
C594 C 0.50356 0.97068 0.00071 0.0
C595 C 0.53598 0.02916 0.99461 0.0
O596 O 0.52125 0.99703 0.03402 0.0
O597 O 0.52424 0.02801 0.03792 0.0
O598 O 0.51028 0.04013 0.01673 0.0
O599 O 0.48425 0.01155 0.00781 0.0
O600 O 0.47822 0.9821 0.02252 0.0
O601 O 0.45841 0.97603 0.0025 0.0
O602 O 0.47336 0.00342 0.97553 0.0
O603 O 0.47297 0.97367 0.97156 0.0
O604 O 0.48565 0.96165 0.99337 0.0
O605 O 0.51172 0.99043 0.0018 0.0
O606 O 0.51772 0.01997 0.98708 0.0
O607 O 0.53738 0.0253 0.00703 0.0
H608 H 0.48774 0.00386 0.04991 0.0
H609 H 0.47413 0.99324 0.07121 0.0
H610 H 0.53306 0.99876 0.08586 0.0
H611 H 0.54637 0.00904 0.06449 0.0
H612 H 0.4556 0.96297 0.94338 0.0
H613 H 0.46728 0.97217 0.92152 0.0
H614 H 0.51306 0.0355 0.93881 0.0
H615 H 0.50133 0.02627 0.96064 0.0
C616 C 0.98199 0.51312 0.03332 0.0
Eu617 Eu 0.98176 0.49636 0.00986 0.0
C618 C 0.98879 0.51366 0.04727 0.0
C619 C 0.99049 0.49694 0.05191 0.0
C620 C 0.99639 0.49766 0.06537 0.0
C621 C 0.00086 0.5152 0.07432 0.0
C622 C 0.99938 0.53199 0.06955 0.0
C623 C 0.99337 0.5312 0.05614 0.0
C624 C 0.9577 0.4556 0.99925 0.0
C625 C 0.01687 0.48172 0.0092 0.0
C626 C 0.99263 0.46896 0.95952 0.0
Eu627 Eu 0.99308 0.48541 0.98312 0.0
C628 C 0.98991 0.47251 0.94569 0.0
C629 C 0.99333 0.49217 0.94244 0.0
C630 C 0.99203 0.49569 0.92915 0.0
C631 C 0.98719 0.47956 0.91891 0.0
C632 C 0.98311 0.45968 0.92229 0.0
C633 C 0.98452 0.45623 0.93557 0.0
C634 C 0.01724 0.5262 0.99354 0.0
C635 C 0.95758 0.49983 0.98393 0.0
O636 O 0.99688 0.52256 0.02566 0.0
O637 O 0.96631 0.49516 0.02758 0.0
O638 O 0.95046 0.46562 0.00613 0.0
O639 O 0.97721 0.4669 0.99915 0.0
O640 O 0.00958 0.49224 0.016 0.0
O641 O 0.01013 0.4744 0.99657 0.0
O642 O 0.976 0.46195 0.96596 0.0
O643 O 0.00976 0.48365 0.96666 0.0
O644 O 0.02426 0.51612 0.98652 0.0
O645 O 0.99772 0.51494 0.99376 0.0
O646 O 0.96598 0.4907 0.97685 0.0
O647 O 0.96319 0.50591 0.99675 0.0
H648 H 0.98716 0.48333 0.04515 0.0
H649 H 0.99763 0.4846 0.06875 0.0
H650 H 0.00249 0.5456 0.07623 0.0
H651 H 0.99212 0.54423 0.05271 0.0
H652 H 0.99743 0.50491 0.95017 0.0
H653 H 0.99542 0.51122 0.92691 0.0
H654 H 0.97893 0.44679 0.91468 0.0
H655 H 0.98168 0.44091 0.93793 0.0
C656 C 0.46955 0.4875 0.96739 0.0
Eu657 Eu 0.48535 0.50284 0.99188 0.0
C658 C 0.47721 0.48636 0.95447 0.0
C659 C 0.47028 0.49284 0.94354 0.0
C660 C 0.47719 0.49189 0.93116 0.0
C661 C 0.49108 0.48425 0.92942 0.0
C662 C 0.4981 0.47787 0.94043 0.0
C663 C 0.49131 0.47899 0.95285 0.0
C664 C 0.49963 0.54317 0.00224 0.0
C665 C 0.53568 0.52033 0.99507 0.0
C666 C 0.52601 0.53344 0.04345 0.0
Eu667 Eu 0.50943 0.5157 0.01943 0.0
C668 C 0.51991 0.53004 0.05692 0.0
C669 C 0.50138 0.51194 0.05928 0.0
C670 C 0.49621 0.50851 0.07224 0.0
C671 C 0.5095 0.52315 0.08304 0.0
C672 C 0.52784 0.54146 0.08053 0.0
C673 C 0.533 0.54484 0.06758 0.0
C674 C 0.49625 0.47554 0.00959 0.0
C675 C 0.45832 0.49677 0.01608 0.0
O676 O 0.47159 0.47639 0.9763 0.0
O677 O 0.4739 0.50625 0.97243 0.0
O678 O 0.48142 0.53155 0.99541 0.0
O679 O 0.50947 0.53335 0.00286 0.0
O680 O 0.51742 0.50774 0.98792 0.0
O681 O 0.53667 0.52864 0.00721 0.0
O682 O 0.51567 0.53958 0.03575 0.0
O683 O 0.52886 0.51894 0.03737 0.0
O684 O 0.51356 0.48726 0.01731 0.0
O685 O 0.48587 0.48483 0.00834 0.0
O686 O 0.47634 0.50712 0.02386 0.0
O687 O 0.45744 0.49121 0.00334 0.0
H688 H 0.45951 0.49869 0.9446 0.0
H689 H 0.47176 0.49731 0.92299 0.0
H690 H 0.50859 0.47166 0.93944 0.0
H691 H 0.497 0.47399 0.96114 0.0
H692 H 0.4911 0.50035 0.05111 0.0
H693 H 0.48207 0.49417 0.07383 0.0
H694 H 0.53822 0.55322 0.08859 0.0
H695 H 0.54731 0.55895 0.06589 0.0
C696 C 0.1928 0.34699 0.37478 0.0
Eu697 Eu 0.1759 0.34205 0.35061 0.0
C698 C 0.18517 0.34148 0.38774 0.0
C699 C 0.16465 0.33632 0.38991 0.0
C700 C 0.15747 0.33074 0.40224 0.0
C701 C 0.1707 0.33017 0.41258 0.0
C702 C 0.19123 0.33531 0.41029 0.0
C703 C 0.19838 0.3409 0.39797 0.0
C704 C 0.15818 0.36323 0.34048 0.0
C705 C 0.12622 0.30455 0.34747 0.0
C706 C 0.1354 0.31771 0.2986 0.0
Eu707 Eu 0.15175 0.32346 0.323 0.0
C708 C 0.14303 0.32456 0.28573 0.0
C709 C 0.13693 0.30935 0.27475 0.0
C710 C 0.1438 0.31544 0.26242 0.0
C711 C 0.15675 0.3369 0.26084 0.0
C712 C 0.16295 0.35213 0.27186 0.0
C713 C 0.15627 0.34601 0.28422 0.0
C714 C 0.16957 0.30255 0.33351 0.0
C715 C 0.20127 0.36114 0.32619 0.0
O716 O 0.18853 0.33104 0.3661 0.0
O717 O 0.18988 0.3613 0.36963 0.0
O718 O 0.17598 0.37239 0.34793 0.0
O719 O 0.14996 0.34343 0.33946 0.0
O720 O 0.14456 0.31486 0.3549 0.0
O721 O 0.12433 0.30709 0.33481 0.0
O722 O 0.13687 0.33222 0.30752 0.0
O723 O 0.14037 0.30466 0.30363 0.0
O724 O 0.15143 0.29311 0.32641 0.0
O725 O 0.17774 0.3223 0.33412 0.0
O726 O 0.18298 0.35108 0.3187 0.0
O727 O 0.20309 0.35816 0.33875 0.0
H728 H 0.15419 0.33656 0.38206 0.0
H729 H 0.1415 0.32664 0.40365 0.0
H730 H 0.20188 0.33529 0.4181 0.0
H731 H 0.21425 0.3448 0.39642 0.0
H732 H 0.12674 0.29273 0.27569 0.0
H733 H 0.13862 0.30339 0.25407 0.0
H734 H 0.1731 0.36875 0.27093 0.0
H735 H 0.16141 0.35809 0.29256 0.0
C736 C 0.65977 0.85075 0.36978 0.0
Eu737 Eu 0.65485 0.83317 0.34572 0.0
C738 C 0.66629 0.849 0.38347 0.0
C739 C 0.65243 0.83302 0.39072 0.0
C740 C 0.65855 0.83218 0.40385 0.0
C741 C 0.67863 0.84729 0.41 0.0
C742 C 0.6925 0.86317 0.40271 0.0
C743 C 0.68636 0.86407 0.38962 0.0
C744 C 0.62749 0.79236 0.33613 0.0
C745 C 0.68645 0.81445 0.34264 0.0
C746 C 0.65563 0.80082 0.29414 0.0
Eu747 Eu 0.66086 0.81934 0.31795 0.0
C748 C 0.65255 0.80433 0.28035 0.0
C749 C 0.65841 0.8246 0.27693 0.0
C750 C 0.65699 0.82791 0.26361 0.0
C751 C 0.64962 0.81099 0.25351 0.0
C752 C 0.64306 0.79059 0.25708 0.0
C753 C 0.64456 0.78733 0.27038 0.0
C754 C 0.68878 0.85996 0.32726 0.0
C755 C 0.62964 0.83879 0.32129 0.0
O756 O 0.67439 0.85798 0.36171 0.0
O757 O 0.64175 0.83532 0.36399 0.0
O758 O 0.62235 0.80363 0.3437 0.0
O759 O 0.64675 0.80251 0.33491 0.0
O760 O 0.68143 0.82647 0.35002 0.0
O761 O 0.67777 0.80683 0.3303 0.0
O762 O 0.64011 0.79648 0.30131 0.0
O763 O 0.67405 0.81401 0.3006 0.0
O764 O 0.69317 0.84848 0.31932 0.0
O765 O 0.66955 0.85025 0.3288 0.0
O766 O 0.63483 0.82709 0.31368 0.0
O767 O 0.63791 0.84572 0.33374 0.0
H768 H 0.63679 0.82123 0.38631 0.0
H769 H 0.64758 0.81968 0.40919 0.0
H770 H 0.70795 0.87524 0.40724 0.0
H771 H 0.69727 0.87675 0.38435 0.0
H772 H 0.66456 0.83792 0.28454 0.0
H773 H 0.66232 0.84383 0.26121 0.0
H774 H 0.63693 0.77715 0.24957 0.0
H775 H 0.63985 0.77156 0.27287 0.0
C776 C 0.13751 0.8146 0.30084 0.0
Eu777 Eu 0.15215 0.83223 0.32511 0.0
C778 C 0.14546 0.81526 0.28779 0.0
C779 C 0.15375 0.8336 0.28124 0.0
C780 C 0.16102 0.83366 0.26884 0.0
C781 C 0.16027 0.81547 0.26282 0.0
C782 C 0.15198 0.79719 0.2694 0.0
C783 C 0.14458 0.79707 0.28172 0.0
C784 C 0.16619 0.87302 0.33433 0.0
C785 C 0.20285 0.85106 0.32965 0.0
C786 C 0.18998 0.86441 0.3774 0.0
Eu787 Eu 0.17494 0.84645 0.35324 0.0
C788 C 0.18373 0.86106 0.39099 0.0
C789 C 0.18734 0.8474 0.39834 0.0
C790 C 0.18215 0.84486 0.41134 0.0
C791 C 0.17332 0.85598 0.41733 0.0
C792 C 0.16966 0.86961 0.40997 0.0
C793 C 0.17487 0.87216 0.39696 0.0
C794 C 0.16158 0.80577 0.34437 0.0
C795 C 0.12397 0.82726 0.34854 0.0
O796 O 0.14371 0.80629 0.30979 0.0
O797 O 0.13703 0.83127 0.30578 0.0
O798 O 0.14874 0.86147 0.32669 0.0
O799 O 0.17571 0.86306 0.33597 0.0
O800 O 0.18501 0.83857 0.32203 0.0
O801 O 0.20303 0.85914 0.3417 0.0
O802 O 0.17955 0.87002 0.36934 0.0
O803 O 0.19426 0.85083 0.3715 0.0
O804 O 0.17849 0.81754 0.3524 0.0
O805 O 0.15167 0.81534 0.34237 0.0
O806 O 0.14173 0.83921 0.35638 0.0
O807 O 0.12383 0.81996 0.33628 0.0
H808 H 0.15466 0.8479 0.28568 0.0
H809 H 0.16746 0.84801 0.26403 0.0
H810 H 0.15093 0.78284 0.26491 0.0
H811 H 0.13811 0.78269 0.28651 0.0
H812 H 0.19441 0.83882 0.39413 0.0
H813 H 0.18553 0.83453 0.4168 0.0
H814 H 0.16271 0.87827 0.41426 0.0
H815 H 0.17207 0.88295 0.39161 0.0
C816 C 0.85847 0.6772 0.70611 0.0
Eu817 Eu 0.84254 0.67436 0.68199 0.0
C818 C 0.85056 0.67117 0.71903 0.0
C819 C 0.85829 0.68666 0.72999 0.0
C820 C 0.85092 0.68143 0.74231 0.0
C821 C 0.83578 0.66056 0.74393 0.0
C822 C 0.82808 0.64502 0.73295 0.0
C823 C 0.83535 0.65029 0.7206 0.0
C824 C 0.82471 0.69632 0.67325 0.0
C825 C 0.79284 0.63732 0.67788 0.0
C826 C 0.80265 0.65629 0.63004 0.0
Eu827 Eu 0.81885 0.65861 0.654 0.0
C828 C 0.81007 0.66181 0.61699 0.0
C829 C 0.82712 0.66018 0.61297 0.0
C830 C 0.8339 0.66563 0.60052 0.0
C831 C 0.82392 0.67305 0.59198 0.0
C832 C 0.80703 0.67489 0.59615 0.0
C833 C 0.80016 0.66927 0.60853 0.0
C834 C 0.83674 0.63672 0.66288 0.0
C835 C 0.86886 0.6955 0.6582 0.0
O836 O 0.85434 0.66186 0.69693 0.0
O837 O 0.85642 0.69233 0.70145 0.0
O838 O 0.84245 0.705 0.68074 0.0
O839 O 0.81672 0.67659 0.67145 0.0
O840 O 0.81117 0.64612 0.68527 0.0
O841 O 0.79125 0.64201 0.66568 0.0
O842 O 0.80833 0.67225 0.63907 0.0
O843 O 0.80381 0.64067 0.63472 0.0
O844 O 0.81902 0.6279 0.65533 0.0
O845 O 0.84458 0.65642 0.66453 0.0
O846 O 0.85073 0.68622 0.65052 0.0
O847 O 0.87016 0.69133 0.67055 0.0
H848 H 0.87006 0.70284 0.72902 0.0
H849 H 0.85732 0.69368 0.75064 0.0
H850 H 0.81627 0.62885 0.73389 0.0
H851 H 0.82902 0.63801 0.7123 0.0
H852 H 0.8352 0.65474 0.61945 0.0
H853 H 0.84709 0.66427 0.59761 0.0
H854 H 0.79891 0.68036 0.58973 0.0
H855 H 0.78705 0.67073 0.6115 0.0
C856 C 0.31945 0.18346 0.70135 0.0
Eu857 Eu 0.31677 0.16529 0.67785 0.0
C858 C 0.32579 0.18338 0.71528 0.0
C859 C 0.32623 0.16594 0.71979 0.0
C860 C 0.33176 0.16613 0.73324 0.0
C861 C 0.33709 0.18383 0.74231 0.0
C862 C 0.33681 0.20131 0.73765 0.0
C863 C 0.3312 0.20106 0.72426 0.0
C864 C 0.29048 0.12435 0.66806 0.0
C865 C 0.34929 0.14754 0.67616 0.0
C866 C 0.32281 0.13482 0.62703 0.0
Eu867 Eu 0.32501 0.1522 0.65071 0.0
C868 C 0.32025 0.13855 0.61323 0.0
C869 C 0.31628 0.15465 0.61013 0.0
C870 C 0.31524 0.15883 0.59696 0.0
C871 C 0.31828 0.14704 0.58674 0.0
C872 C 0.32186 0.13067 0.58994 0.0
C873 C 0.32284 0.12648 0.60308 0.0
C874 C 0.35157 0.19293 0.66056 0.0
C875 C 0.29188 0.16946 0.65258 0.0
O876 O 0.33449 0.19119 0.69361 0.0
O877 O 0.30249 0.16648 0.69572 0.0
O878 O 0.2846 0.1354 0.67519 0.0
O879 O 0.30989 0.1348 0.66731 0.0
O880 O 0.34385 0.15958 0.68316 0.0
O881 O 0.34101 0.13967 0.66378 0.0
O882 O 0.30652 0.12903 0.6337 0.0
O883 O 0.34046 0.14891 0.63394 0.0
O884 O 0.35725 0.18172 0.65345 0.0
O885 O 0.33211 0.18276 0.66124 0.0
O886 O 0.29832 0.15856 0.6453 0.0
O887 O 0.29926 0.17645 0.66514 0.0
H888 H 0.32222 0.1522 0.71294 0.0
H889 H 0.33205 0.15254 0.73653 0.0
H890 H 0.34058 0.21506 0.74441 0.0
H891 H 0.33091 0.21463 0.72092 0.0
H892 H 0.31437 0.16419 0.61791 0.0
H893 H 0.31262 0.17164 0.59482 0.0
H894 H 0.32393 0.12109 0.58227 0.0
H895 H 0.32592 0.114 0.60534 0.0
C896 C 0.79749 0.15445 0.63397 0.0
Eu897 Eu 0.81579 0.17122 0.65788 0.0
C898 C 0.80331 0.15415 0.62046 0.0
C899 C 0.82363 0.16825 0.61746 0.0
C900 C 0.82883 0.1676 0.60449 0.0
C901 C 0.81379 0.15274 0.59439 0.0
C902 C 0.79346 0.13869 0.59752 0.0
C903 C 0.78828 0.13941 0.61045 0.0
C904 C 0.83145 0.21184 0.66819 0.0
C905 C 0.86615 0.18843 0.65981 0.0
C906 C 0.85913 0.2006 0.70895 0.0
Eu907 Eu 0.84127 0.18375 0.68499 0.0
C908 C 0.85324 0.197 0.72245 0.0
C909 C 0.83417 0.17947 0.72472 0.0
C910 C 0.82909 0.17577 0.73768 0.0
C911 C 0.84301 0.18957 0.74857 0.0
C912 C 0.86195 0.20732 0.74617 0.0
C913 C 0.86701 0.21097 0.73321 0.0
C914 C 0.82615 0.14326 0.67483 0.0
C915 C 0.79054 0.16618 0.68292 0.0
O916 O 0.80335 0.14494 0.64222 0.0
O917 O 0.80022 0.17244 0.63936 0.0
O918 O 0.81313 0.20068 0.66141 0.0
O919 O 0.84083 0.20154 0.66859 0.0
O920 O 0.84758 0.17642 0.65285 0.0
O921 O 0.86782 0.1963 0.6722 0.0
O922 O 0.84929 0.2077 0.70164 0.0
O923 O 0.86093 0.18569 0.70246 0.0
O924 O 0.84415 0.1545 0.68195 0.0
O925 O 0.81647 0.15328 0.67426 0.0
O926 O 0.80897 0.17689 0.69025 0.0
O927 O 0.78895 0.15974 0.67026 0.0
H928 H 0.83545 0.17969 0.62513 0.0
H929 H 0.84467 0.17846 0.6024 0.0
H930 H 0.78147 0.12725 0.58993 0.0
H931 H 0.77252 0.12844 0.61263 0.0
H932 H 0.82336 0.16851 0.71648 0.0
H933 H 0.81448 0.16186 0.73917 0.0
H934 H 0.87285 0.21845 0.7543 0.0
H935 H 0.88176 0.22463 0.7316 0.0
C936 C 0.29424 0.84486 0.05464 0.0
C937 C 0.29572 0.84349 0.06837 0.0
C938 C 0.31129 0.86019 0.04891 0.0
C939 C 0.36867 0.89162 0.05471 0.0
H940 H 0.36379 0.92335 0.02709 0.0
C941 C 0.44167 0.95679 0.03471 0.0
C942 C 0.44075 0.95836 0.021 0.0
C943 C 0.42359 0.94354 0.04046 0.0
C944 C 0.36537 0.91443 0.03468 0.0
H945 H 0.31576 0.85803 0.08693 0.0
H946 H 0.34551 0.88463 0.07692 0.0
H947 H 0.33258 0.89927 0.03724 0.0
H948 H 0.42006 0.94717 0.00258 0.0
H949 H 0.38857 0.92365 0.01259 0.0
H950 H 0.40127 0.90632 0.05206 0.0
C951 C 0.33131 0.87361 0.07057 0.0
C952 C 0.34751 0.9007 0.04052 0.0
C953 C 0.31427 0.85837 0.0763 0.0
C954 C 0.42131 0.94638 0.01318 0.0
C955 C 0.40322 0.93299 0.01894 0.0
C956 C 0.38646 0.90521 0.04884 0.0
C957 C 0.33017 0.8744 0.05679 0.0
C958 C 0.34901 0.88922 0.05063 0.0
C959 C 0.40416 0.93138 0.03265 0.0
C960 C 0.38507 0.91685 0.03879 0.0
H961 H 0.28023 0.83353 0.04825 0.0
H962 H 0.31 0.86033 0.03825 0.0
H963 H 0.37026 0.88267 0.06229 0.0
H964 H 0.45633 0.96588 0.04106 0.0
H965 H 0.42484 0.94299 0.05109 0.0
C966 C 0.11728 0.40875 0.05871 0.0
C967 C 0.13912 0.42191 0.06164 0.0
C968 C 0.10486 0.41695 0.05417 0.0
C969 C 0.1073 0.45981 0.0366 0.0
H970 H 0.05359 0.44343 0.0497 0.0
C971 C 0.04278 0.46926 0.00858 0.0
C972 C 0.03209 0.47697 0.01601 0.0
C973 C 0.05686 0.46435 0.01492 0.0
C974 C 0.06864 0.44829 0.04603 0.0
H975 H 0.1651 0.45397 0.06215 0.0
H976 H 0.14336 0.46831 0.05411 0.0
H977 H 0.07628 0.43147 0.05967 0.0
H978 H 0.02787 0.48568 0.03594 0.0
H979 H 0.05236 0.47682 0.04702 0.0
H980 H 0.09953 0.47635 0.02283 0.0
C981 C 0.13588 0.45165 0.05535 0.0
C982 C 0.08152 0.44131 0.05166 0.0
C983 C 0.14828 0.44349 0.06003 0.0
C984 C 0.03587 0.47978 0.02993 0.0
C985 C 0.04981 0.47463 0.03628 0.0
C986 C 0.09433 0.46661 0.03089 0.0
C987 C 0.11405 0.43844 0.05234 0.0
C988 C 0.10091 0.44684 0.04692 0.0
C989 C 0.06042 0.46684 0.02883 0.0
C990 C 0.07477 0.46076 0.03546 0.0
H991 H 0.10977 0.3921 0.05998 0.0
H992 H 0.08811 0.40635 0.05181 0.0
H993 H 0.12209 0.4642 0.03269 0.0
H994 H 0.04028 0.46697 0.99784 0.0
H995 H 0.06464 0.45816 0.00892 0.0
C996 C 0.58894 0.73469 0.03264 0.0
C997 C 0.59318 0.74049 0.04645 0.0
C998 C 0.5774 0.71343 0.02746 0.0
C999 C 0.53924 0.66051 0.03522 0.0
H1000 H 0.56303 0.64087 0.00863 0.0
C1001 C 0.49665 0.57536 0.00735 0.0
C1002 C 0.50887 0.56561 0.00728 0.0
C1003 C 0.50582 0.59682 0.01195 0.0
C1004 C 0.55619 0.64617 0.01603 0.0
H1005 H 0.58846 0.72826 0.06559 0.0
H1006 H 0.56788 0.6912 0.0565 0.0
H1007 H 0.58095 0.67836 0.01697 0.0
H1008 H 0.54011 0.57045 0.01202 0.0
H1009 H 0.55613 0.60789 0.0198 0.0
H1010 H 0.51452 0.6282 0.03429 0.0
C1011 C 0.57348 0.70321 0.04973 0.0
C1012 C 0.56635 0.6676 0.02073 0.0
C1013 C 0.58524 0.72446 0.05492 0.0
C1014 C 0.53033 0.57758 0.01192 0.0
C1015 C 0.53952 0.59902 0.01632 0.0
C1016 C 0.5289 0.63908 0.03037 0.0
C1017 C 0.56961 0.69749 0.03595 0.0
C1018 C 0.55811 0.67494 0.03048 0.0
C1019 C 0.5274 0.60886 0.01633 0.0
C1020 C 0.53746 0.63169 0.02086 0.0
H1021 H 0.5944 0.74658 0.0258 0.0
H1022 H 0.57445 0.70944 0.01679 0.0
H1023 H 0.53251 0.66581 0.04268 0.0
H1024 H 0.48005 0.56641 0.00385 0.0
H1025 H 0.49617 0.6041 0.01184 0.0
C1026 C 0.8743 0.27127 0.95014 0.0
C1027 C 0.8527 0.25893 0.95129 0.0
C1028 C 0.8855 0.29261 0.95518 0.0
C1029 C 0.87857 0.33779 0.96547 0.0
H1030 H 0.93414 0.36092 0.98424 0.0
C1031 C 0.92372 0.42137 0.99452 0.0
C1032 C 0.94534 0.43333 0.99347 0.0
C1033 C 0.9122 0.40013 0.98922 0.0
C1034 C 0.91874 0.35476 0.97889 0.0
H1035 H 0.82601 0.25928 0.95884 0.0
H1036 H 0.84555 0.29651 0.96763 0.0
H1037 H 0.91452 0.32379 0.97526 0.0
H1038 H 0.97188 0.43269 0.98594 0.0
H1039 H 0.95179 0.39575 0.97657 0.0
H1040 H 0.8828 0.36879 0.96912 0.0
C1041 C 0.85375 0.28977 0.96263 0.0
C1042 C 0.9075 0.33348 0.97374 0.0
C1043 C 0.84256 0.26843 0.95759 0.0
C1044 C 0.95523 0.4238 0.98694 0.0
C1045 C 0.94374 0.4026 0.98165 0.0
C1046 C 0.88981 0.35909 0.97062 0.0
C1047 C 0.87536 0.3021 0.9615 0.0
C1048 C 0.88729 0.32475 0.96696 0.0
C1049 C 0.92212 0.39048 0.98278 0.0
C1050 C 0.91005 0.36782 0.97737 0.0
H1051 H 0.88251 0.26451 0.94517 0.0
H1052 H 0.90206 0.30176 0.95397 0.0
H1053 H 0.86315 0.33161 0.96013 0.0
H1054 H 0.91574 0.42838 0.99952 0.0
H1055 H 0.8956 0.39117 0.99037 0.0
C1056 C 0.71004 0.58885 0.95801 0.0
C1057 C 0.71118 0.58142 0.94515 0.0
C1058 C 0.69074 0.58102 0.96315 0.0
C1059 C 0.63381 0.55459 0.95322 0.0
H1060 H 0.62991 0.5426 0.98986 0.0
C1061 C 0.55493 0.51743 0.97625 0.0
C1062 C 0.5554 0.52597 0.98916 0.0
C1063 C 0.57362 0.52305 0.97066 0.0
C1064 C 0.63078 0.54606 0.97965 0.0
H1065 H 0.69288 0.55974 0.92766 0.0
H1066 H 0.65911 0.54615 0.93663 0.0
H1067 H 0.66311 0.5546 0.9805 0.0
H1068 H 0.57589 0.54711 0.0063 0.0
H1069 H 0.60834 0.55706 0.99651 0.0
H1070 H 0.60153 0.54629 0.95243 0.0
C1071 C 0.67318 0.5582 0.94267 0.0
C1072 C 0.6498 0.55292 0.97428 0.0
C1073 C 0.69252 0.566 0.93753 0.0
C1074 C 0.57494 0.54016 0.99636 0.0
C1075 C 0.59359 0.54578 0.99077 0.0
C1076 C 0.61477 0.54777 0.95861 0.0
C1077 C 0.67209 0.5656 0.95555 0.0
C1078 C 0.6516 0.55745 0.96105 0.0
C1079 C 0.59317 0.53731 0.97786 0.0
C1080 C 0.61309 0.54361 0.97192 0.0
H1081 H 0.72404 0.601 0.96405 0.0
H1082 H 0.69039 0.58732 0.97302 0.0
H1083 H 0.63476 0.55818 0.94304 0.0
H1084 H 0.54015 0.50641 0.97044 0.0
H1085 H 0.57275 0.51606 0.96074 0.0
C1086 C 0.42379 0.12482 0.9469 0.0
C1087 C 0.43385 0.14624 0.95191 0.0
C1088 C 0.42615 0.11038 0.95404 0.0
C1089 C 0.44729 0.10463 0.98704 0.0
H1090 H 0.45422 0.0628 0.96613 0.0
C1091 C 0.49283 0.06497 0.00642 0.0
C1092 C 0.48281 0.04291 0.00373 0.0
C1093 C 0.48394 0.07603 0.00092 0.0
C1094 C 0.45207 0.07424 0.97208 0.0
H1095 H 0.45395 0.16939 0.96834 0.0
H1096 H 0.45879 0.14453 0.98058 0.0
H1097 H 0.44364 0.08487 0.95499 0.0
H1098 H 0.45533 0.01498 0.9936 0.0
H1099 H 0.44023 0.03448 0.9835 0.0
H1100 H 0.45702 0.09463 0.00408 0.0
C1101 C 0.44849 0.13855 0.97138 0.0
C1102 C 0.44587 0.08684 0.96572 0.0
C1103 C 0.44581 0.15288 0.96435 0.0
C1104 C 0.46358 0.03204 0.99563 0.0
C1105 C 0.45489 0.04314 0.98991 0.0
C1106 C 0.45387 0.09228 0.99337 0.0
C1107 C 0.43899 0.11715 0.96622 0.0
C1108 C 0.44366 0.10242 0.9731 0.0
C1109 C 0.46505 0.06523 0.99248 0.0
C1110 C 0.45653 0.07716 0.98593 0.0
H1111 H 0.41434 0.11932 0.93736 0.0
H1112 H 0.41818 0.09397 0.94988 0.0
H1113 H 0.4453 0.11609 0.99308 0.0
H1114 H 0.50763 0.07372 0.01268 0.0
H1115 H 0.49213 0.0931 0.00296 0.0
C1116 C 0.69649 0.11928 0.93873 0.0
C1117 C 0.71435 0.12578 0.94778 0.0
C1118 C 0.67648 0.11026 0.94305 0.0
C1119 C 0.64984 0.10656 0.97317 0.0
H1120 H 0.60348 0.05562 0.95377 0.0
C1121 C 0.57501 0.05263 0.99658 0.0
C1122 C 0.55555 0.04277 0.98872 0.0
C1123 C 0.59367 0.06438 0.99097 0.0
C1124 C 0.61616 0.07005 0.95918 0.0
H1125 H 0.72505 0.1273 0.9684 0.0
H1126 H 0.69028 0.11177 0.97592 0.0
H1127 H 0.63749 0.07291 0.94499 0.0
H1128 H 0.54044 0.03797 0.96878 0.0
H1129 H 0.5731 0.0587 0.95899 0.0
H1130 H 0.62868 0.10362 0.98743 0.0
C1131 C 0.69177 0.11399 0.96553 0.0
C1132 C 0.63565 0.07992 0.95416 0.0
C1133 C 0.71171 0.1229 0.96121 0.0
C1134 C 0.55516 0.04533 0.97513 0.0
C1135 C 0.57388 0.0571 0.96949 0.0
C1136 C 0.63038 0.09674 0.97816 0.0
C1137 C 0.67394 0.10763 0.95652 0.0
C1138 C 0.6528 0.09807 0.96124 0.0
C1139 C 0.59336 0.06661 0.97734 0.0
C1140 C 0.61341 0.07814 0.97136 0.0
H1141 H 0.698 0.12149 0.92834 0.0
H1142 H 0.66304 0.10565 0.93589 0.0
H1143 H 0.66265 0.12076 0.97871 0.0
H1144 H 0.57593 0.05099 0.00708 0.0
H1145 H 0.6084 0.07123 0.99727 0.0
C1146 C 0.8561 0.56897 0.92856 0.0
C1147 C 0.84041 0.5686 0.9359 0.0
C1148 C 0.86742 0.5594 0.93277 0.0
C1149 C 0.88563 0.54709 0.96298 0.0
H1150 H 0.89545 0.50897 0.94029 0.0
C1151 C 0.92802 0.5069 0.98476 0.0
C1152 C 0.94231 0.50461 0.97733 0.0
C1153 C 0.91449 0.51292 0.979 0.0
C1154 C 0.8931 0.51981 0.94671 0.0
H1155 H 0.82407 0.55776 0.95327 0.0
H1156 H 0.84403 0.54129 0.96072 0.0
H1157 H 0.87389 0.52295 0.93132 0.0
H1158 H 0.95332 0.50628 0.95792 0.0
H1159 H 0.93017 0.51765 0.9479 0.0
H1160 H 0.90528 0.54479 0.97823 0.0
C1161 C 0.84747 0.54886 0.95168 0.0
C1162 C 0.88068 0.52771 0.94158 0.0
C1163 C 0.83597 0.55814 0.94737 0.0
C1164 C 0.94241 0.50789 0.96387 0.0
C1165 C 0.92907 0.51432 0.95813 0.0
C1166 C 0.89825 0.53948 0.96805 0.0
C1167 C 0.86346 0.54962 0.94451 0.0
C1168 C 0.8767 0.54126 0.94972 0.0
C1169 C 0.91518 0.51726 0.9657 0.0
C1170 C 0.90198 0.52555 0.96004 0.0
H1171 H 0.85974 0.57682 0.91963 0.0
H1172 H 0.87974 0.56028 0.92711 0.0
H1173 H 0.88314 0.55785 0.96939 0.0
H1174 H 0.92735 0.50412 0.99511 0.0
H1175 H 0.90359 0.51435 0.98504 0.0
C1176 C 0.43669 0.29976 0.95186 0.0
C1177 C 0.44952 0.29144 0.95561 0.0
C1178 C 0.43986 0.31859 0.9585 0.0
C1179 C 0.48193 0.36733 0.97671 0.0
H1180 H 0.43777 0.37672 0.98806 0.0
C1181 C 0.5018 0.44487 0.00681 0.0
C1182 C 0.48914 0.45368 0.00406 0.0
C1183 C 0.49573 0.42447 0.00136 0.0
C1184 C 0.45025 0.37443 0.98479 0.0
H1185 H 0.47481 0.29568 0.96985 0.0
H1186 H 0.48058 0.32872 0.98123 0.0
H1187 H 0.42895 0.34174 0.97786 0.0
H1188 H 0.45988 0.44792 0.99382 0.0
H1189 H 0.44955 0.41242 0.98379 0.0
H1190 H 0.50321 0.39992 0.98319 0.0
C1191 C 0.46825 0.32078 0.97305 0.0
C1192 C 0.44519 0.35438 0.97901 0.0
C1193 C 0.46498 0.3019 0.9665 0.0
C1194 C 0.47005 0.44157 0.99594 0.0
C1195 C 0.46405 0.42116 0.99033 0.0
C1196 C 0.48696 0.38734 0.98232 0.0
C1197 C 0.45601 0.32953 0.96895 0.0
C1198 C 0.46103 0.35063 0.97504 0.0
C1199 C 0.47695 0.41245 0.99288 0.0
C1200 C 0.47124 0.39113 0.98657 0.0
H1201 H 0.42477 0.29223 0.94344 0.0
H1202 H 0.43028 0.32507 0.9551 0.0
H1203 H 0.49441 0.36499 0.97347 0.0
H1204 H 0.51652 0.45378 0.01315 0.0
H1205 H 0.50581 0.41812 0.00383 0.0
C1206 C 0.14191 0.708 0.04277 0.0
C1207 C 0.14618 0.70766 0.05639 0.0
C1208 C 0.12525 0.69028 0.03518 0.0
C1209 C 0.07773 0.6379 0.03767 0.0
H1210 H 0.09109 0.6225 0.00392 0.0
C1211 C 0.02082 0.55896 0.00544 0.0
C1212 C 0.03016 0.54823 -0.00035 0.0
C1213 C 0.03326 0.57977 0.0114 0.0
C1214 C 0.08713 0.62652 0.01334 0.0
H1215 H 0.13606 0.68862 0.07277 0.0
H1216 H 0.10733 0.65777 0.05958 0.0
H1217 H 0.1154 0.65656 0.01637 0.0
H1218 H 0.05966 0.55067 0.9955 0.0
H1219 H 0.08141 0.58673 0.00612 0.0
H1220 H 0.05002 0.60733 0.03498 0.0
C1221 C 0.11645 0.67181 0.05476 0.0
C1222 C 0.10093 0.64622 0.0204 0.0
C1223 C 0.13298 0.68953 0.06234 0.0
C1224 C 0.05207 0.55865 -0.00016 0.0
C1225 C 0.06451 0.57937 0.00584 0.0
C1226 C 0.06398 0.61812 0.03064 0.0
C1227 C 0.11261 0.67179 0.04103 0.0
C1228 C 0.09663 0.65199 0.03279 0.0
C1229 C 0.05528 0.59021 0.01172 0.0
C1230 C 0.06875 0.61201 0.01853 0.0
H1231 H 0.15167 0.72184 0.03795 0.0
H1232 H 0.12252 0.69094 0.02468 0.0
H1233 H 0.07375 0.64195 0.04708 0.0
H1234 H 0.00392 0.55128 0.00535 0.0
H1235 H 0.02563 0.58771 0.01571 0.0
C1236 C 0.2962 0.42726 0.07026 0.0
C1237 C 0.27918 0.42627 0.0626 0.0
C1238 C 0.316 0.43614 0.06567 0.0
C1239 C 0.34097 0.44494 0.03521 0.0
H1240 H 0.39155 0.48746 0.05696 0.0
C1241 C 0.42021 0.48544 0.01367 0.0
C1242 C 0.43841 0.49039 0.02187 0.0
C1243 C 0.40114 0.47868 0.01894 0.0
C1244 C 0.37765 0.47537 0.05081 0.0
H1245 H 0.26942 0.43374 0.04417 0.0
H1246 H 0.304 0.44894 0.03601 0.0
H1247 H 0.35758 0.47343 0.06573 0.0
H1248 H 0.45098 0.49229 0.04208 0.0
H1249 H 0.41752 0.47969 0.05125 0.0
H1250 H 0.36079 0.44612 0.02047 0.0
C1251 C 0.30202 0.44298 0.04561 0.0
C1252 C 0.3582 0.46744 0.05583 0.0
C1253 C 0.28232 0.43442 0.0503 0.0
C1254 C 0.43722 0.48867 0.03552 0.0
C1255 C 0.41803 0.48155 0.04077 0.0
C1256 C 0.3604 0.45259 0.03027 0.0
C1257 C 0.31902 0.44386 0.05323 0.0
C1258 C 0.33968 0.45226 0.04803 0.0
C1259 C 0.39968 0.47631 0.03253 0.0
C1260 C 0.37902 0.46803 0.03796 0.0
H1261 H 0.29418 0.42118 0.07982 0.0
H1262 H 0.32883 0.43654 0.0717 0.0
H1263 H 0.32694 0.43299 0.02908 0.0
H1264 H 0.42069 0.48689 0.00314 0.0
H1265 H 0.38755 0.47537 0.01232 0.0
C1266 C 0.60689 0.89914 0.05017 0.0
C1267 C 0.59874 0.87734 0.04696 0.0
C1268 C 0.59632 0.90897 0.04518 0.0
C1269 C 0.5558 0.90182 0.01866 0.0
H1270 H 0.55434 0.94579 0.04111 0.0
C1271 C 0.50401 0.9375 0.00406 0.0
C1272 C 0.51391 0.95962 0.00609 0.0
C1273 C 0.51401 0.92712 0.0091 0.0
C1274 C 0.55474 0.93363 0.0347 0.0
H1275 H 0.57315 0.84888 0.03581 0.0
H1276 H 0.55436 0.86587 0.02751 0.0
H1277 H 0.57243 0.92829 0.04983 0.0
H1278 H 0.54201 0.98829 0.01484 0.0
H1279 H 0.55934 0.97016 0.02378 0.0
H1280 H 0.53785 0.90707 0.0036 0.0
C1281 C 0.56911 0.87545 0.03372 0.0
C1282 C 0.56517 0.92364 0.03967 0.0
C1283 C 0.57975 0.86564 0.03863 0.0
C1284 C 0.53393 0.97119 0.01325 0.0
C1285 C 0.54382 0.96083 0.01839 0.0
C1286 C 0.54523 0.91171 0.01373 0.0
C1287 C 0.57726 0.89724 0.03692 0.0
C1288 C 0.56592 0.90768 0.03169 0.0
C1289 C 0.53399 0.93869 0.01635 0.0
C1290 C 0.5447 0.92779 0.02168 0.0
H1291 H 0.62135 0.9086 0.05667 0.0
H1292 H 0.6032 0.92584 0.04772 0.0
H1293 H 0.55634 0.88984 0.01216 0.0
H1294 H 0.48857 0.92823 0.99857 0.0
H1295 H 0.50601 0.91003 0.00747 0.0
C1296 C 0.98458 0.19344 0.41229 0.0
C1297 C 0.96542 0.17858 0.40493 0.0
C1298 C 0.00127 0.20795 0.40596 0.0
C1299 C 0.01544 0.23324 0.37513 0.0
H1300 H 0.06962 0.23908 0.38561 0.0
C1301 C 0.08767 0.27804 0.34623 0.0
C1302 C 0.10731 0.29041 0.35377 0.0
C1303 C 0.06991 0.26471 0.35229 0.0
C1304 C 0.05469 0.23788 0.38267 0.0
H1305 H 0.94858 0.16777 0.38517 0.0
H1306 H 0.97775 0.19328 0.37413 0.0
H1307 H 0.03936 0.21603 0.39666 0.0
H1308 H 0.1236 0.29863 0.37367 0.0
H1309 H 0.09273 0.27584 0.38422 0.0
H1310 H 0.03086 0.25522 0.36116 0.0
C1311 C 0.97977 0.19372 0.38481 0.0
C1312 C 0.03733 0.22464 0.38901 0.0
C1313 C 0.96306 0.17913 0.39115 0.0
C1314 C 0.10877 0.28926 0.36752 0.0
C1315 C 0.09105 0.27606 0.37357 0.0
C1316 C 0.03287 0.2466 0.36881 0.0
C1317 C 0.99919 0.20799 0.39213 0.0
C1318 C 0.01753 0.22222 0.38535 0.0
C1319 C 0.07142 0.26352 0.36604 0.0
C1320 C 0.05272 0.24913 0.37255 0.0
H1321 H 0.98676 0.19372 0.42295 0.0
H1322 H 0.01591 0.21904 0.4119 0.0
H1323 H 0.00039 0.23179 0.37216 0.0
H1324 H 0.086 0.27851 0.33561 0.0
H1325 H 0.05508 0.25509 0.34617 0.0
C1326 C 0.81283 0.76752 0.39064 0.0
C1327 C 0.80326 0.74578 0.39181 0.0
C1328 C 0.8009 0.77615 0.38588 0.0
C1329 C 0.74737 0.76733 0.38204 0.0
H1330 H 0.76599 0.80256 0.35333 0.0
C1331 C 0.70593 0.81101 0.36251 0.0
C1332 C 0.70102 0.80821 0.34866 0.0
C1333 C 0.71912 0.80445 0.36821 0.0
C1334 C 0.76063 0.79276 0.36135 0.0
H1335 H 0.7737 0.71612 0.38927 0.0
H1336 H 0.75279 0.73124 0.38113 0.0
H1337 H 0.78767 0.78904 0.36277 0.0
H1338 H 0.70649 0.79677 0.32994 0.0
H1339 H 0.72979 0.78561 0.33993 0.0
H1340 H 0.7203 0.77097 0.38059 0.0
C1341 C 0.76952 0.74157 0.38382 0.0
C1342 C 0.77309 0.78517 0.36681 0.0
C1343 C 0.78149 0.73291 0.38838 0.0
C1344 C 0.70991 0.79908 0.34064 0.0
C1345 C 0.72334 0.7928 0.34634 0.0
C1346 C 0.73507 0.77517 0.37671 0.0
C1347 C 0.77913 0.76324 0.38243 0.0
C1348 C 0.76647 0.7722 0.37711 0.0
C1349 C 0.72793 0.79526 0.36018 0.0
C1350 C 0.74147 0.78778 0.36622 0.0
H1351 H 0.82961 0.77777 0.39314 0.0
H1352 H 0.80866 0.79292 0.38497 0.0
H1353 H 0.74197 0.75746 0.39003 0.0
H1354 H 0.69932 0.81798 0.36897 0.0
H1355 H 0.72253 0.80666 0.37891 0.0
C1356 C 0.26595 0.05643 0.38228 0.0
C1357 C 0.25779 0.06977 0.38006 0.0
C1358 C 0.25437 0.03498 0.37758 0.0
C1359 C 0.21137 0.99656 0.35276 0.0
H1360 H 0.21135 0.95591 0.37525 0.0
C1361 C 0.16374 0.90588 0.33726 0.0
C1362 C 0.17467 0.89518 0.33981 0.0
C1363 C 0.17223 0.92702 0.34247 0.0
C1364 C 0.2113 0.96707 0.36882 0.0
H1365 H 0.23099 0.07097 0.37119 0.0
H1366 H 0.2108 0.03347 0.36289 0.0
H1367 H 0.22945 0.99324 0.38369 0.0
H1368 H 0.20295 0.89804 0.34975 0.0
H1369 H 0.21773 0.93472 0.35874 0.0
H1370 H 0.19343 0.97033 0.33782 0.0
C1371 C 0.22625 0.0397 0.36818 0.0
C1372 C 0.22169 0.98846 0.37365 0.0
C1373 C 0.23783 0.06118 0.37292 0.0
C1374 C 0.19412 0.90587 0.34767 0.0
C1375 C 0.20253 0.92686 0.35289 0.0
C1376 C 0.20096 0.97511 0.34791 0.0
C1377 C 0.23436 0.02635 0.37052 0.0
C1378 C 0.22214 0.00349 0.36561 0.0
C1379 C 0.19172 0.93771 0.35037 0.0
C1380 C 0.20113 0.96019 0.35582 0.0
H1381 H 0.28143 0.06261 0.38752 0.0
H1382 H 0.26124 0.0252 0.37932 0.0
H1383 H 0.21156 0.00778 0.3463 0.0
H1384 H 0.14869 0.89795 0.33124 0.0
H1385 H 0.16348 0.93493 0.34042 0.0
C1386 C 0.5086 0.6038 0.29771 0.0
C1387 C 0.51785 0.59592 0.28904 0.0
C1388 C 0.51923 0.62515 0.30276 0.0
C1389 C 0.5626 0.6773 0.29628 0.0
H1390 H 0.56114 0.69422 0.333 0.0
C1391 C 0.6212 0.75998 0.32245 0.0
C1392 C 0.61347 0.77016 0.3306 0.0
C1393 C 0.60824 0.73894 0.31719 0.0
C1394 C 0.56146 0.68974 0.32268 0.0
H1395 H 0.54571 0.60409 0.27919 0.0
H1396 H 0.56435 0.64122 0.2881 0.0
H1397 H 0.54116 0.65685 0.32433 0.0
H1398 H 0.58621 0.76642 0.3397 0.0
H1399 H 0.56345 0.72931 0.33055 0.0
H1400 H 0.58325 0.71012 0.29473 0.0
C1401 C 0.54869 0.63106 0.29076 0.0
C1402 C 0.55002 0.66834 0.3177 0.0
C1403 C 0.53804 0.60977 0.28567 0.0
C1404 C 0.59253 0.7589 0.33344 0.0
C1405 C 0.57956 0.73769 0.32826 0.0
C1406 C 0.5741 0.69862 0.30128 0.0
C1407 C 0.53936 0.63907 0.29929 0.0
C1408 C 0.55067 0.66185 0.30448 0.0
C1409 C 0.58731 0.72754 0.32005 0.0
C1410 C 0.57386 0.70505 0.31457 0.0
H1411 H 0.49295 0.59355 0.30036 0.0
H1412 H 0.51149 0.63083 0.30918 0.0
H1413 H 0.56308 0.67292 0.28597 0.0
H1414 H 0.63732 0.76824 0.32016 0.0
H1415 H 0.61475 0.73146 0.31106 0.0
C1416 C 0.36183 0.90442 0.27351 0.0
C1417 C 0.38072 0.91668 0.28186 0.0
C1418 C 0.34247 0.89633 0.27865 0.0
C1419 C 0.31816 0.9058 0.30688 0.0
H1420 H 0.27253 0.84869 0.29583 0.0
C1421 C 0.24215 0.86949 0.33234 0.0
C1422 C 0.22305 0.85726 0.32422 0.0
C1423 C 0.26126 0.87594 0.32717 0.0
C1424 C 0.28504 0.86476 0.2989 0.0
H1425 H 0.39403 0.92933 0.30225 0.0
H1426 H 0.36031 0.91536 0.31118 0.0
H1427 H 0.30611 0.86136 0.28673 0.0
H1428 H 0.20905 0.84201 0.3043 0.0
H1429 H 0.24242 0.85355 0.29522 0.0
H1430 H 0.29716 0.90936 0.31892 0.0
C1431 C 0.36046 0.9123 0.30062 0.0
C1432 C 0.30427 0.872 0.2937 0.0
C1433 C 0.37979 0.92032 0.29549 0.0
C1434 C 0.22348 0.85138 0.31084 0.0
C1435 C 0.24262 0.85791 0.30565 0.0
C1436 C 0.29894 0.89861 0.31203 0.0
C1437 C 0.34158 0.90037 0.29225 0.0
C1438 C 0.32107 0.89258 0.29767 0.0
C1439 C 0.26175 0.8704 0.31373 0.0
C1440 C 0.28216 0.87798 0.30815 0.0
H1441 H 0.36197 0.90152 0.26294 0.0
H1442 H 0.32818 0.88737 0.27193 0.0
H1443 H 0.33068 0.92187 0.30995 0.0
H1444 H 0.2424 0.87417 0.34272 0.0
H1445 H 0.27568 0.88522 0.33373 0.0
C1446 C 0.11122 0.48427 0.29558 0.0
C1447 C 0.09967 0.47796 0.28301 0.0
C1448 C 0.11364 0.46972 0.30253 0.0
C1449 C 0.11107 0.41803 0.29664 0.0
H1450 H 0.12131 0.4252 0.33503 0.0
C1451 C 0.12885 0.36336 0.32688 0.0
C1452 C 0.1482 0.37448 0.33485 0.0
C1453 C 0.11998 0.37424 0.32106 0.0
C1454 C 0.11838 0.423 0.3243 0.0
H1455 H 0.08064 0.45141 0.26812 0.0
H1456 H 0.08401 0.42567 0.2805 0.0
H1457 H 0.10971 0.44673 0.32402 0.0
H1458 H 0.17302 0.40552 0.34349 0.0
H1459 H 0.15716 0.42448 0.33364 0.0
H1460 H 0.11953 0.39406 0.29706 0.0
C1461 C 0.09186 0.44198 0.28483 0.0
C1462 C 0.11188 0.43541 0.31796 0.0
C1463 C 0.08977 0.45665 0.27777 0.0
C1464 C 0.15814 0.39657 0.33732 0.0
C1465 C 0.14905 0.4074 0.33175 0.0
C1466 C 0.11717 0.40536 0.30301 0.0
C1467 C 0.10427 0.44843 0.29717 0.0
C1468 C 0.10865 0.43348 0.30402 0.0
C1469 C 0.13005 0.39635 0.32344 0.0
C1470 C 0.12133 0.40809 0.31686 0.0
H1471 H 0.11924 0.50068 0.29975 0.0
H1472 H 0.12364 0.47547 0.31185 0.0
H1473 H 0.10912 0.41626 0.2859 0.0
H1474 H 0.12065 0.34629 0.32504 0.0
H1475 H 0.10523 0.36541 0.31475 0.0
C1476 C 0.37567 0.47131 0.29115 0.0
C1477 C 0.3789 0.46369 0.27899 0.0
C1478 C 0.35588 0.46139 0.2957 0.0
C1479 C 0.29967 0.42776 0.28565 0.0
H1480 H 0.29761 0.41058 0.32103 0.0
C1481 C 0.2214 0.37243 0.30645 0.0
C1482 C 0.22052 0.37504 0.32017 0.0
C1483 C 0.2403 0.38431 0.30102 0.0
C1484 C 0.29785 0.4156 0.31124 0.0
H1485 H 0.3639 0.44023 0.26184 0.0
H1486 H 0.32903 0.42302 0.26974 0.0
H1487 H 0.33126 0.4297 0.31225 0.0
H1488 H 0.23827 0.39297 0.33884 0.0
H1489 H 0.27085 0.41431 0.32936 0.0
H1490 H 0.26631 0.4141 0.28471 0.0
C1491 C 0.3419 0.4366 0.27574 0.0
C1492 C 0.31717 0.42645 0.30619 0.0
C1493 C 0.36182 0.44633 0.27128 0.0
C1494 C 0.23857 0.39039 0.32826 0.0
C1495 C 0.25731 0.40251 0.32281 0.0
C1496 C 0.28031 0.41717 0.29078 0.0
C1497 C 0.33886 0.44385 0.28809 0.0
C1498 C 0.31826 0.4326 0.29336 0.0
C1499 C 0.2586 0.39929 0.30917 0.0
C1500 C 0.27914 0.41092 0.30366 0.0
H1501 H 0.38862 0.48457 0.29733 0.0
H1502 H 0.35388 0.46733 0.30522 0.0
H1503 H 0.30016 0.43246 0.27574 0.0
H1504 H 0.20772 0.36065 0.29998 0.0
H1505 H 0.24067 0.3812 0.2905 0.0
C1506 C 0.51807 0.91184 0.29167 0.0
C1507 C 0.51217 0.91097 0.27813 0.0
C1508 C 0.53015 0.90304 0.29572 0.0
C1509 C 0.54664 0.86497 0.28523 0.0
H1510 H 0.59302 0.89848 0.31257 0.0
C1511 C 0.60868 0.84188 0.30196 0.0
C1512 C 0.61518 0.84546 0.31565 0.0
C1513 C 0.59574 0.84917 0.29678 0.0
C1514 C 0.58 0.88879 0.30503 0.0
H1515 H 0.51411 0.89984 0.25823 0.0
H1516 H 0.5351 0.8843 0.26535 0.0
H1517 H 0.57085 0.91219 0.30477 0.0
H1518 H 0.61254 0.85883 0.33466 0.0
H1519 H 0.5899 0.87115 0.32569 0.0
H1520 H 0.55578 0.84148 0.28561 0.0
C1521 C 0.53024 0.89171 0.27282 0.0
C1522 C 0.5673 0.89667 0.30056 0.0
C1523 C 0.51819 0.90059 0.26875 0.0
C1524 C 0.60807 0.85601 0.32404 0.0
C1525 C 0.59515 0.8632 0.31889 0.0
C1526 C 0.55935 0.85702 0.28976 0.0
C1527 C 0.53658 0.8931 0.28634 0.0
C1528 C 0.55034 0.88477 0.29072 0.0
C1529 C 0.58904 0.86014 0.30519 0.0
C1530 C 0.57603 0.86877 0.29983 0.0
H1531 H 0.51334 0.91932 0.29917 0.0
H1532 H 0.53444 0.904 0.30624 0.0
H1533 H 0.53361 0.85539 0.27768 0.0
H1534 H 0.61389 0.8338 0.29523 0.0
H1535 H 0.59139 0.84666 0.28616 0.0
C1536 C 0.10354 0.6319 0.2848 0.0
C1537 C 0.11599 0.62313 0.28844 0.0
C1538 C 0.10668 0.65047 0.29183 0.0
C1539 C 0.14831 0.698 0.31158 0.0
H1540 H 0.10356 0.7073 0.32181 0.0
C1541 C 0.16688 0.77487 0.34219 0.0
C1542 C 0.1546 0.78391 0.33894 0.0
C1543 C 0.16096 0.7545 0.33672 0.0
C1544 C 0.11622 0.70504 0.31888 0.0
H1545 H 0.14061 0.62628 0.30284 0.0
H1546 H 0.14629 0.65882 0.31493 0.0
H1547 H 0.09502 0.67272 0.31109 0.0
H1548 H 0.12611 0.77858 0.3278 0.0
H1549 H 0.11609 0.7432 0.31778 0.0
H1550 H 0.16951 0.73027 0.31893 0.0
C1551 C 0.1343 0.65148 0.30653 0.0
C1552 C 0.11132 0.68522 0.31279 0.0
C1553 C 0.13107 0.63288 0.29958 0.0
C1554 C 0.13599 0.77204 0.33034 0.0
C1555 C 0.13016 0.7517 0.32472 0.0
C1556 C 0.15319 0.71781 0.31752 0.0
C1557 C 0.12242 0.66068 0.30257 0.0
C1558 C 0.12734 0.6815 0.30916 0.0
C1559 C 0.14271 0.74277 0.32774 0.0
C1560 C 0.13725 0.72158 0.32132 0.0
H1561 H 0.09193 0.62494 0.2762 0.0
H1562 H 0.09739 0.6573 0.28851 0.0
H1563 H 0.16096 0.69572 0.30863 0.0
H1564 H 0.18121 0.7836 0.34891 0.0
H1565 H 0.17075 0.74797 0.33953 0.0
C1566 C 0.83452 0.03072 0.37754 0.0
C1567 C 0.8295 0.04023 0.38806 0.0
C1568 C 0.81879 0.0128 0.36965 0.0
C1569 C 0.76147 0.98004 0.36016 0.0
H1570 H 0.77389 0.93472 0.35525 0.0
C1571 C 0.69803 0.89335 0.34136 0.0
C1572 C 0.70406 0.88176 0.333 0.0
C1573 C 0.71295 0.91365 0.34726 0.0
C1574 C 0.77023 0.94728 0.35632 0.0
H1575 H 0.80391 0.03897 0.39815 0.0
H1576 H 0.77638 0.00765 0.38429 0.0
H1577 H 0.80058 0.96887 0.36649 0.0
H1578 H 0.73008 0.88246 0.3238 0.0
H1579 H 0.75595 0.91796 0.33378 0.0
H1580 H 0.73102 0.95829 0.34999 0.0
C1581 C 0.7925 0.01415 0.38213 0.0
C1582 C 0.78556 0.96687 0.36278 0.0
C1583 C 0.80827 0.0321 0.39005 0.0
C1584 C 0.72505 0.89099 0.33031 0.0
C1585 C 0.7399 0.91128 0.33611 0.0
C1586 C 0.74611 0.96039 0.35361 0.0
C1587 C 0.79767 0.00399 0.37208 0.0
C1588 C 0.78138 0.98348 0.36478 0.0
C1589 C 0.73412 0.92275 0.34481 0.0
C1590 C 0.75033 0.94378 0.35162 0.0
H1591 H 0.8507 0.03687 0.37559 0.0
H1592 H 0.82321 0.00557 0.36179 0.0
H1593 H 0.75785 0.99259 0.36149 0.0
H1594 H 0.68189 0.88663 0.3435 0.0
H1595 H 0.70799 0.92196 0.35399 0.0
C1596 C 0.94631 0.7457 0.3801 0.0
C1597 C 0.9428 0.75307 0.39224 0.0
C1598 C 0.96617 0.75589 0.37564 0.0
C1599 C 0.02205 0.78897 0.38723 0.0
H1600 H 0.02743 0.79934 0.35037 0.0
C1601 C 0.10286 0.82946 0.36644 0.0
C1602 C 0.10364 0.82093 0.35382 0.0
C1603 C 0.08355 0.82311 0.37139 0.0
C1604 C 0.0262 0.79638 0.36066 0.0
H1605 H 0.9573 0.77685 0.40927 0.0
H1606 H 0.9922 0.79465 0.40149 0.0
H1607 H 0.99306 0.78456 0.35852 0.0
H1608 H 0.08469 0.79899 0.33654 0.0
H1609 H 0.05128 0.78768 0.34524 0.0
H1610 H 0.05507 0.80019 0.38931 0.0
C1611 C 0.97952 0.78099 0.39543 0.0
C1612 C 0.00651 0.78797 0.36533 0.0
C1613 C 0.95956 0.77091 0.39983 0.0
C1614 C 0.08471 0.80601 0.34626 0.0
C1615 C 0.06548 0.7996 0.35123 0.0
C1616 C 0.04175 0.79724 0.38254 0.0
C1617 C 0.98301 0.77358 0.38328 0.0
C1618 C 0.00418 0.78392 0.37861 0.0
C1619 C 0.06462 0.80806 0.36385 0.0
C1620 C 0.04402 0.80075 0.36914 0.0
H1621 H 0.93365 0.73209 0.37399 0.0
H1622 H 0.96844 0.7497 0.3663 0.0
H1623 H 0.02068 0.78584 0.3975 0.0
H1624 H 0.11715 0.84105 0.3725 0.0
H1625 H 0.08347 0.83013 0.38109 0.0
C1626 C 0.24369 0.19696 0.37336 0.0
C1627 C 0.26351 0.20864 0.3808 0.0
C1628 C 0.23343 0.20709 0.36839 0.0
C1629 C 0.2325 0.25705 0.37289 0.0
H1630 H 0.2021 0.23784 0.33765 0.0
C1631 C 0.2004 0.30355 0.34583 0.0
C1632 C 0.18004 0.29177 0.33915 0.0
C1633 C 0.21041 0.29335 0.35111 0.0
C1634 C 0.21035 0.24324 0.34756 0.0
H1635 H 0.28799 0.24019 0.38893 0.0
H1636 H 0.27036 0.25793 0.37993 0.0
H1637 H 0.22014 0.2203 0.3464 0.0
H1638 H 0.15413 0.26018 0.33272 0.0
H1639 H 0.17165 0.24229 0.3419 0.0
H1640 H 0.22287 0.28017 0.37395 0.0
C1641 C 0.2626 0.24088 0.3781 0.0
C1642 C 0.22067 0.23319 0.35259 0.0
C1643 C 0.27284 0.23073 0.38312 0.0
C1644 C 0.16986 0.26962 0.3378 0.0
C1645 C 0.17991 0.25941 0.343 0.0
C1646 C 0.22227 0.26718 0.36783 0.0
C1647 C 0.24277 0.22918 0.37068 0.0
C1648 C 0.23186 0.23995 0.36532 0.0
C1649 C 0.2003 0.27117 0.34971 0.0
C1650 C 0.21107 0.26036 0.35512 0.0
H1651 H 0.23616 0.17995 0.37125 0.0
H1652 H 0.21806 0.19756 0.36285 0.0
H1653 H 0.24068 0.26245 0.38282 0.0
H1654 H 0.20868 0.32067 0.3469 0.0
H1655 H 0.22621 0.30284 0.35608 0.0
C1656 C 0.62701 0.52153 0.72339 0.0
C1657 C 0.63087 0.51422 0.7351 0.0
C1658 C 0.6437 0.53627 0.71711 0.0
C1659 C 0.70021 0.57617 0.72265 0.0
H1660 H 0.69954 0.56394 0.68485 0.0
C1661 C 0.77511 0.61712 0.69654 0.0
C1662 C 0.7736 0.62316 0.68387 0.0
C1663 C 0.75705 0.60459 0.70253 0.0
C1664 C 0.69985 0.56778 0.69537 0.0
H1665 H 0.65543 0.51683 0.74934 0.0
H1666 H 0.68434 0.5427 0.73853 0.0
H1667 H 0.6689 0.54151 0.69597 0.0
H1668 H 0.75185 0.62056 0.6675 0.0
H1669 H 0.7203 0.59885 0.67805 0.0
H1670 H 0.73114 0.60234 0.72212 0.0
C1671 C 0.66842 0.53721 0.73429 0.0
C1672 C 0.68229 0.55493 0.70173 0.0
C1673 C 0.65179 0.5224 0.74051 0.0
C1674 C 0.75358 0.61612 0.67725 0.0
C1675 C 0.73548 0.60362 0.68328 0.0
C1676 C 0.71771 0.58906 0.71629 0.0
C1677 C 0.66458 0.54412 0.72244 0.0
C1678 C 0.68242 0.55881 0.71548 0.0
C1679 C 0.73702 0.59784 0.69604 0.0
C1680 C 0.71788 0.58482 0.70261 0.0
H1681 H 0.61109 0.51579 0.71904 0.0
H1682 H 0.64027 0.5415 0.70806 0.0
H1683 H 0.70063 0.57973 0.73322 0.0
H1684 H 0.79025 0.62213 0.7019 0.0
H1685 H 0.75881 0.60008 0.71225 0.0
C1686 C 0.46355 0.08094 0.71341 0.0
C1687 C 0.47212 0.08621 0.72677 0.0
C1688 C 0.4507 0.08839 0.70847 0.0
C1689 C 0.43598 0.12917 0.71479 0.0
H1690 H 0.38614 0.0896 0.69129 0.0
C1691 C 0.37198 0.14827 0.69592 0.0
C1692 C 0.36386 0.14153 0.6825 0.0
C1693 C 0.38538 0.14207 0.70185 0.0
C1694 C 0.40009 0.10092 0.69773 0.0
H1695 H 0.47413 0.10372 0.74539 0.0
H1696 H 0.45163 0.11677 0.73672 0.0
H1697 H 0.40934 0.07801 0.70059 0.0
H1698 H 0.36381 0.12333 0.66474 0.0
H1699 H 0.38719 0.11277 0.67501 0.0
H1700 H 0.42666 0.15211 0.71185 0.0
C1701 C 0.45503 0.107 0.73006 0.0
C1702 C 0.4134 0.09428 0.70306 0.0
C1703 C 0.46792 0.09953 0.73501 0.0
C1704 C 0.36963 0.1287 0.67512 0.0
C1705 C 0.38296 0.12253 0.68103 0.0
C1706 C 0.42262 0.13584 0.70944 0.0
C1707 C 0.44607 0.10129 0.71676 0.0
C1708 C 0.43163 0.10836 0.71153 0.0
C1709 C 0.39088 0.12899 0.69448 0.0
C1710 C 0.40465 0.12184 0.70072 0.0
H1711 H 0.46683 0.07108 0.70673 0.0
H1712 H 0.44443 0.08407 0.69811 0.0
H1713 H 0.44997 0.14045 0.72121 0.0
H1714 H 0.36784 0.15815 0.70189 0.0
H1715 H 0.3911 0.14719 0.71226 0.0
C1716 C 0.9241 0.40343 0.69877 0.0
C1717 C 0.92832 0.40937 0.71256 0.0
C1718 C 0.91254 0.38213 0.69367 0.0
C1719 C 0.87402 0.32955 0.70161 0.0
H1720 H 0.89701 0.30914 0.6749 0.0
C1721 C 0.8296 0.2446 0.67355 0.0
C1722 C 0.84132 0.23433 0.67328 0.0
C1723 C 0.83932 0.26608 0.67824 0.0
C1724 C 0.89041 0.31465 0.68234 0.0
H1725 H 0.92365 0.39734 0.73177 0.0
H1726 H 0.90303 0.36022 0.72281 0.0
H1727 H 0.91559 0.34665 0.68328 0.0
H1728 H 0.87223 0.23823 0.67776 0.0
H1729 H 0.88921 0.27572 0.68572 0.0
H1730 H 0.84885 0.29745 0.70068 0.0
C1731 C 0.90865 0.37214 0.71599 0.0
C1732 C 0.90095 0.33609 0.68706 0.0
C1733 C 0.92043 0.39343 0.72111 0.0
C1734 C 0.86283 0.24578 0.67782 0.0
C1735 C 0.87258 0.26724 0.68232 0.0
C1736 C 0.86331 0.30812 0.69674 0.0
C1737 C 0.90472 0.3663 0.70223 0.0
C1738 C 0.89297 0.34371 0.69684 0.0
C1739 C 0.86095 0.27761 0.68254 0.0
C1740 C 0.87155 0.30045 0.68718 0.0
H1741 H 0.92953 0.41524 0.69187 0.0
H1742 H 0.90954 0.37803 0.68301 0.0
H1743 H 0.86749 0.33507 0.70909 0.0
H1744 H 0.81297 0.23607 0.67014 0.0
H1745 H 0.83005 0.27377 0.67829 0.0
C1746 C 0.20671 0.93729 0.62754 0.0
C1747 C 0.18479 0.92505 0.62734 0.0
C1748 C 0.21742 0.95859 0.63264 0.0
C1749 C 0.20931 0.00381 0.64014 0.0
H1750 H 0.26432 0.02845 0.65999 0.0
C1751 C 0.25593 0.09048 0.66523 0.0
C1752 C 0.27735 0.10164 0.66345 0.0
C1753 C 0.24385 0.06874 0.66121 0.0
C1754 C 0.24902 0.02181 0.65439 0.0
H1755 H 0.15695 0.92539 0.63264 0.0
H1756 H 0.17568 0.96256 0.64169 0.0
H1757 H 0.24469 0.99068 0.65264 0.0
H1758 H 0.30291 0.09905 0.65589 0.0
H1759 H 0.28191 0.06124 0.64891 0.0
H1760 H 0.21373 0.03506 0.64195 0.0
C1761 C 0.18456 0.9558 0.63767 0.0
C1762 C 0.23778 0.00018 0.65015 0.0
C1763 C 0.17383 0.93451 0.63251 0.0
C1764 C 0.28645 0.09081 0.65745 0.0
C1765 C 0.27445 0.06914 0.65352 0.0
C1766 C 0.22052 0.02546 0.64444 0.0
C1767 C 0.20647 0.96813 0.63773 0.0
C1768 C 0.2179 0.99095 0.64283 0.0
C1769 C 0.25307 0.05783 0.65544 0.0
C1770 C 0.2406 0.03471 0.65146 0.0
H1771 H 0.21555 0.93055 0.62344 0.0
H1772 H 0.23425 0.96769 0.63231 0.0
H1773 H 0.19415 0.99728 0.63438 0.0
H1774 H 0.24856 0.09849 0.66982 0.0
H1775 H 0.22742 0.0604 0.66285 0.0
C1776 C 0.03071 0.23071 0.61396 0.0
C1777 C 0.04013 0.24971 0.60811 0.0
C1778 C 0.01092 0.22304 0.61845 0.0
C1779 C 0.96426 0.20558 0.62139 0.0
H1780 H 0.95547 0.24675 0.64153 0.0
C1781 C 0.88447 0.18594 0.64032 0.0
C1782 C 0.88551 0.19431 0.65338 0.0
C1783 C 0.90283 0.19197 0.63422 0.0
C1784 C 0.95771 0.23505 0.63597 0.0
H1785 H 0.03561 0.27494 0.60178 0.0
H1786 H 0.00123 0.26167 0.60973 0.0
H1787 H 0.98822 0.25833 0.63168 0.0
H1788 H 0.9067 0.2154 0.67034 0.0
H1789 H 0.93858 0.22582 0.65972 0.0
H1790 H 0.93378 0.18225 0.6259 0.0
C1791 C 0.0093 0.25289 0.61103 0.0
C1792 C 0.97637 0.24171 0.6302 0.0
C1793 C 0.02902 0.26051 0.6065 0.0
C1794 C 0.90529 0.20868 0.66025 0.0
C1795 C 0.92359 0.21477 0.65414 0.0
C1796 C 0.94548 0.19892 0.6271 0.0
C1797 C 0.00016 0.23424 0.61723 0.0
C1798 C 0.97993 0.22705 0.62291 0.0
C1799 C 0.92257 0.20659 0.64105 0.0
C1800 C 0.9421 0.21358 0.63455 0.0
H1801 H 0.03892 0.22212 0.61547 0.0
H1802 H 0.00438 0.20873 0.6233 0.0
H1803 H 0.96649 0.19394 0.61574 0.0
H1804 H 0.86948 0.17483 0.63474 0.0
H1805 H 0.90155 0.18551 0.62409 0.0
C1806 C 0.77649 0.81902 0.63355 0.0
C1807 C 0.76372 0.81298 0.62143 0.0
C1808 C 0.7788 0.80412 0.64013 0.0
C1809 C 0.77438 0.75199 0.63311 0.0
H1810 H 0.78785 0.75873 0.67126 0.0
C1811 C 0.79524 0.69693 0.66025 0.0
C1812 C 0.81448 0.70777 0.66835 0.0
C1813 C 0.78595 0.70793 0.6552 0.0
C1814 C 0.78406 0.75667 0.6606 0.0
H1815 H 0.74238 0.78645 0.60708 0.0
H1816 H 0.74583 0.76016 0.61879 0.0
H1817 H 0.77563 0.78062 0.66138 0.0
H1818 H 0.83875 0.73839 0.67793 0.0
H1819 H 0.82228 0.75759 0.66931 0.0
H1820 H 0.78281 0.72796 0.63242 0.0
C1821 C 0.75456 0.77654 0.62303 0.0
C1822 C 0.77715 0.76924 0.65491 0.0
C1823 C 0.75247 0.79154 0.61635 0.0
C1824 C 0.82395 0.72968 0.67166 0.0
C1825 C 0.81449 0.74063 0.6668 0.0
C1826 C 0.78099 0.73921 0.63882 0.0
C1827 C 0.7682 0.78273 0.63483 0.0
C1828 C 0.77274 0.76745 0.64106 0.0
C1829 C 0.79553 0.72988 0.6584 0.0
C1830 C 0.78636 0.74179 0.65257 0.0
H1831 H 0.78561 0.83549 0.6376 0.0
H1832 H 0.78972 0.80962 0.64905 0.0
H1833 H 0.77148 0.75035 0.62241 0.0
H1834 H 0.78746 0.67998 0.6577 0.0
H1835 H 0.77127 0.6993 0.64881 0.0
C1836 C 0.03224 0.78412 0.60556 0.0
C1837 C 0.04976 0.7933 0.6152 0.0
C1838 C 0.0119 0.77533 0.60931 0.0
C1839 C 0.98263 0.77537 0.63767 0.0
H1840 H 0.93933 0.72083 0.62011 0.0
C1841 C 0.90751 0.72107 0.6608 0.0
C1842 C 0.88848 0.70952 0.65252 0.0
C1843 C 0.92635 0.73316 0.65544 0.0
C1844 C 0.95114 0.73623 0.62497 0.0
H1845 H 0.05965 0.80085 0.63635 0.0
H1846 H 0.02425 0.7851 0.6429 0.0
H1847 H 0.97396 0.73828 0.61222 0.0
H1848 H 0.87426 0.70202 0.63211 0.0
H1849 H 0.9073 0.72319 0.62276 0.0
H1850 H 0.95995 0.77305 0.65062 0.0
C1851 C 0.0262 0.78488 0.63242 0.0
C1852 C 0.971 0.74623 0.62045 0.0
C1853 C 0.0465 0.79365 0.62867 0.0
C1854 C 0.88865 0.71073 0.63877 0.0
C1855 C 0.90757 0.72275 0.6334 0.0
C1856 C 0.96282 0.76535 0.6422 0.0
C1857 C 0.00865 0.77558 0.6228 0.0
C1858 C 0.98708 0.76575 0.6269 0.0
C1859 C 0.92664 0.73391 0.64168 0.0
C1860 C 0.94697 0.74551 0.63604 0.0
H1861 H 0.03422 0.78345 0.59509 0.0
H1862 H 0.99873 0.76843 0.60165 0.0
H1863 H 0.99454 0.7906 0.64268 0.0
H1864 H 0.90795 0.72054 0.67143 0.0
H1865 H 0.9408 0.74137 0.66207 0.0
C1866 C 0.1814 0.23166 0.59934 0.0
C1867 C 0.17176 0.23791 0.60875 0.0
C1868 C 0.19337 0.22258 0.6032 0.0
C1869 C 0.22461 0.22216 0.63235 0.0
H1870 H 0.22112 0.17274 0.61334 0.0
C1871 C 0.26649 0.18212 0.65481 0.0
C1872 C 0.27679 0.17501 0.64655 0.0
C1873 C 0.25309 0.18859 0.64945 0.0
C1874 C 0.22247 0.18671 0.61865 0.0
H1875 H 0.16618 0.23836 0.62946 0.0
H1876 H 0.18728 0.22287 0.63619 0.0
H1877 H 0.19843 0.18604 0.60527 0.0
H1878 H 0.28066 0.16855 0.6261 0.0
H1879 H 0.25743 0.18035 0.61666 0.0
H1880 H 0.24874 0.22322 0.6456 0.0
C1881 C 0.18582 0.22528 0.62587 0.0
C1882 C 0.20944 0.19427 0.61405 0.0
C1883 C 0.17378 0.2342 0.62201 0.0
C1884 C 0.27294 0.17397 0.63272 0.0
C1885 C 0.25959 0.18066 0.62732 0.0
C1886 C 0.23768 0.21475 0.63687 0.0
C1887 C 0.19604 0.21971 0.61656 0.0
C1888 C 0.21019 0.21189 0.62099 0.0
C1889 C 0.24978 0.18837 0.63566 0.0
C1890 C 0.23656 0.19673 0.63022 0.0
H1891 H 0.18034 0.23447 0.58907 0.0
H1892 H 0.20117 0.21855 0.59584 0.0
H1893 H 0.2259 0.23607 0.63773 0.0
H1894 H 0.26881 0.18279 0.6655 0.0
H1895 H 0.24536 0.19386 0.65616 0.0
C1896 C 0.77087 0.96008 0.63396 0.0
C1897 C 0.7714 0.95777 0.62019 0.0
C1898 C 0.77286 0.97856 0.64029 0.0
C1899 C 0.77362 0.02855 0.63419 0.0
H1900 H 0.81044 0.04994 0.66718 0.0
C1901 C 0.79677 0.10908 0.66329 0.0
C1902 C 0.81771 0.12131 0.66898 0.0
C1903 C 0.78889 0.0882 0.65781 0.0
C1904 C 0.80024 0.04429 0.65793 0.0
H1905 H 0.77373 0.97259 0.60216 0.0
H1906 H 0.77779 0.0051 0.61319 0.0
H1907 H 0.80004 0.01508 0.65657 0.0
H1908 H 0.84695 0.12161 0.67327 0.0
H1909 H 0.83346 0.08547 0.66345 0.0
H1910 H 0.77483 0.05835 0.63524 0.0
C1911 C 0.77534 0.99251 0.61912 0.0
C1912 C 0.79396 0.02409 0.65194 0.0
C1913 C 0.77308 0.9739 0.61278 0.0
C1914 C 0.83068 0.11243 0.66903 0.0
C1915 C 0.82288 0.09166 0.66349 0.0
C1916 C 0.78007 0.04888 0.64014 0.0
C1917 C 0.77574 0.99527 0.633 0.0
C1918 C 0.78079 0.01604 0.6399 0.0
C1919 C 0.80186 0.07923 0.65787 0.0
C1920 C 0.79373 0.05711 0.65198 0.0
H1921 H 0.76933 0.94772 0.63986 0.0
H1922 H 0.77259 0.97991 0.65094 0.0
H1923 H 0.76324 0.02277 0.62502 0.0
H1924 H 0.78643 0.11558 0.66317 0.0
H1925 H 0.77258 0.07903 0.65369 0.0
C1926 C 0.48651 0.37045 0.71126 0.0
C1927 C 0.4885 0.37138 0.72514 0.0
C1928 C 0.46977 0.35294 0.70361 0.0
C1929 C 0.41852 0.30364 0.70574 0.0
H1930 H 0.43268 0.2845 0.67358 0.0
C1931 C 0.35824 0.22681 0.67272 0.0
C1932 C 0.36599 0.21443 0.66709 0.0
C1933 C 0.37208 0.24711 0.67907 0.0
C1934 C 0.42847 0.28949 0.68259 0.0
H1935 H 0.47446 0.35509 0.74197 0.0
H1936 H 0.44566 0.32416 0.72868 0.0
H1937 H 0.45841 0.31766 0.68622 0.0
H1938 H 0.39412 0.2133 0.66376 0.0
H1939 H 0.41823 0.2483 0.67518 0.0
H1940 H 0.38902 0.27472 0.70251 0.0
C1941 C 0.45658 0.33713 0.72362 0.0
C1942 C 0.44315 0.30878 0.68975 0.0
C1943 C 0.47313 0.35481 0.73127 0.0
C1944 C 0.38775 0.22262 0.66793 0.0
C1945 C 0.40157 0.24277 0.6744 0.0
C1946 C 0.40392 0.28417 0.69866 0.0
C1947 C 0.45487 0.33578 0.70967 0.0
C1948 C 0.43849 0.31603 0.70151 0.0
C1949 C 0.39395 0.25533 0.68003 0.0
C1950 C 0.40883 0.2767 0.68709 0.0
H1951 H 0.49808 0.38318 0.70632 0.0
H1952 H 0.46872 0.35275 0.69292 0.0
H1953 H 0.4142 0.30883 0.71462 0.0
H1954 H 0.34149 0.22084 0.67216 0.0
H1955 H 0.36563 0.2564 0.68313 0.0
C1956 C 0.62981 0.10404 0.73897 0.0
C1957 C 0.61176 0.09557 0.72978 0.0
C1958 C 0.64981 0.11304 0.73463 0.0
C1959 C 0.67557 0.11069 0.70534 0.0
H1960 H 0.72337 0.16318 0.72206 0.0
C1961 C 0.75178 0.15144 0.68104 0.0
C1962 C 0.77096 0.1601 0.68911 0.0
C1963 C 0.733 0.14457 0.68666 0.0
C1964 C 0.71023 0.14837 0.71739 0.0
H1965 H 0.60068 0.09095 0.70889 0.0
H1966 H 0.63547 0.10644 0.70135 0.0
H1967 H 0.68925 0.14948 0.73072 0.0
H1968 H 0.7855 0.16882 0.70945 0.0
H1969 H 0.75247 0.15647 0.71932 0.0
H1970 H 0.69633 0.10933 0.6921 0.0
C1971 C 0.63414 0.10578 0.71188 0.0
C1972 C 0.69071 0.14056 0.72233 0.0
C1973 C 0.61421 0.09688 0.71621 0.0
C1974 C 0.77098 0.16222 0.70297 0.0
C1975 C 0.75208 0.15521 0.70861 0.0
C1976 C 0.69501 0.1184 0.70046 0.0
C1977 C 0.65214 0.11366 0.72102 0.0
C1978 C 0.67312 0.12178 0.71623 0.0
C1979 C 0.73284 0.14603 0.7005 0.0
C1980 C 0.71252 0.13748 0.70628 0.0
H1981 H 0.62846 0.1031 0.74949 0.0
H1982 H 0.66339 0.11886 0.74189 0.0
H1983 H 0.66243 0.09591 0.70061 0.0
H1984 H 0.75118 0.14983 0.67032 0.0
H1985 H 0.71855 0.13806 0.68011 0.0
C1986 C 0.93926 0.56647 0.71483 0.0
C1987 C 0.9315 0.54471 0.71183 0.0
C1988 C 0.92848 0.5759 0.70953 0.0
C1989 C 0.88837 0.56776 0.68242 0.0
H1990 H 0.88591 0.61179 0.70412 0.0
C1991 C 0.83709 0.60345 0.66619 0.0
C1992 C 0.84698 0.62557 0.66827 0.0
C1993 C 0.84688 0.59302 0.67148 0.0
C1994 C 0.88659 0.59961 0.69792 0.0
H1995 H 0.90636 0.51587 0.70074 0.0
H1996 H 0.88721 0.53217 0.69187 0.0
H1997 H 0.90388 0.59459 0.71349 0.0
H1998 H 0.8749 0.65418 0.67728 0.0
H1999 H 0.89185 0.63599 0.68663 0.0
H2000 H 0.87086 0.57272 0.6669 0.0
C2001 C 0.90182 0.54203 0.69816 0.0
C2002 C 0.89694 0.58979 0.70326 0.0
C2003 C 0.91266 0.53262 0.70341 0.0
C2004 C 0.86682 0.63708 0.67565 0.0
C2005 C 0.87649 0.62668 0.68103 0.0
C2006 C 0.87788 0.57748 0.67711 0.0
C2007 C 0.90959 0.56379 0.70116 0.0
C2008 C 0.89811 0.57386 0.69555 0.0
C2009 C 0.86663 0.60454 0.67902 0.0
C2010 C 0.87703 0.59362 0.68477 0.0
H2011 H 0.95359 0.57623 0.7214 0.0
H2012 H 0.93508 0.59276 0.71191 0.0
H2013 H 0.88922 0.55576 0.67613 0.0
H2014 H 0.82179 0.59422 0.66053 0.0
H2015 H 0.83887 0.57592 0.66985 0.0
C2016 C 0.45414 0.96862 0.1938 0.0
C2017 C 0.46093 0.95589 0.1996 0.0
C2018 C 0.4553 0.97114 0.18031 0.0
C2019 C 0.46208 0.94852 0.14845 0.0
H2020 H 0.4849 0.00572 0.13919 0.0
C2021 C 0.49821 0.97445 0.09959 0.0
C2022 C 0.49445 0.98878 0.09314 0.0
C2023 C 0.4914 0.96909 0.11202 0.0
C2024 C 0.4782 0.9896 0.14156 0.0
H2025 H 0.47339 0.93511 0.19565 0.0
H2026 H 0.47587 0.93986 0.17221 0.0
H2027 H 0.47761 0.99858 0.16191 0.0
H2028 H 0.48036 0.00853 0.09461 0.0
H2029 H 0.46829 0.99903 0.1163 0.0
H2030 H 0.46318 0.93968 0.12813 0.0
C2031 C 0.46947 0.94776 0.17804 0.0
C2032 C 0.47399 0.98549 0.15459 0.0
C2033 C 0.46829 0.94524 0.19152 0.0
C2034 C 0.48338 0.99734 0.09929 0.0
C2035 C 0.47664 0.99205 0.11176 0.0
C2036 C 0.46634 0.95264 0.13542 0.0
C2037 C 0.46327 0.96098 0.17232 0.0
C2038 C 0.46614 0.96496 0.15823 0.0
C2039 C 0.48073 0.978 0.11831 0.0
C2040 C 0.47471 0.97328 0.13188 0.0
H2041 H 0.44854 0.97718 0.19977 0.0
H2042 H 0.45016 0.98123 0.17617 0.0
H2043 H 0.45571 0.93247 0.15088 0.0
H2044 H 0.50648 0.9674 0.09504 0.0
H2045 H 0.49497 0.95838 0.11685 0.0
C2046 C 0.06897 0.54997 0.19066 0.0
C2047 C 0.05912 0.53421 0.19913 0.0
C2048 C 0.0606 0.54699 0.17751 0.0
C2049 C 0.02811 0.50594 0.15037 0.0
H2050 H 0.02675 0.55196 0.13462 0.0
C2051 C 0.99573 0.49842 0.09556 0.0
C2052 C 0.00684 0.51604 0.08864 0.0
C2053 C 0.00069 0.4997 0.10922 0.0
C2054 C 0.02722 0.53901 0.13883 0.0
H2055 H 0.03248 0.50303 0.20036 0.0
H2056 H 0.01802 0.49771 0.1772 0.0
H2057 H 0.0374 0.55594 0.15828 0.0
H2058 H 0.03238 0.54852 0.0905 0.0
H2059 H 0.04124 0.55071 0.11424 0.0
H2060 H 0.01839 0.48918 0.13084 0.0
C2061 C 0.03229 0.51235 0.18084 0.0
C2062 C 0.03324 0.54128 0.15239 0.0
C2063 C 0.04059 0.5154 0.19408 0.0
C2064 C 0.0233 0.5348 0.0956 0.0
C2065 C 0.02832 0.53606 0.10921 0.0
C2066 C 0.02217 0.5037 0.13676 0.0
C2067 C 0.04225 0.52813 0.17243 0.0
C2068 C 0.03406 0.5249 0.15827 0.0
C2069 C 0.01691 0.51862 0.11623 0.0
C2070 C 0.02198 0.52036 0.1308 0.0
H2071 H 0.08354 0.56443 0.19407 0.0
H2072 H 0.06884 0.55927 0.1712 0.0
H2073 H 0.02878 0.49312 0.15462 0.0
H2074 H 0.98282 0.48381 0.09047 0.0
H2075 H 0.99149 0.48604 0.11434 0.0
C2076 C 0.45825 0.49352 0.19627 0.0
C2077 C 0.47572 0.50063 0.20577 0.0
C2078 C 0.46078 0.49443 0.18276 0.0
C2079 C 0.49747 0.49831 0.15853 0.0
H2080 H 0.46885 0.51995 0.13698 0.0
C2081 C 0.5206 0.52383 0.10698 0.0
C2082 C 0.50454 0.51919 0.09688 0.0
C2083 C 0.5161 0.52027 0.12001 0.0
C2084 C 0.47672 0.51358 0.1428 0.0
H2085 H 0.50959 0.51454 0.20848 0.0
H2086 H 0.51395 0.51594 0.18495 0.0
H2087 H 0.46265 0.51586 0.16019 0.0
H2088 H 0.47113 0.50716 0.09261 0.0
H2089 H 0.46319 0.50054 0.11537 0.0
H2090 H 0.51161 0.49609 0.1412 0.0
C2091 C 0.49826 0.50938 0.18794 0.0
C2092 C 0.47318 0.51125 0.15611 0.0
C2093 C 0.49575 0.50855 0.20143 0.0
C2094 C 0.48383 0.51075 0.10014 0.0
C2095 C 0.47932 0.50717 0.1132 0.0
C2096 C 0.50096 0.50057 0.14523 0.0
C2097 C 0.48083 0.5024 0.17845 0.0
C2098 C 0.4837 0.50381 0.16415 0.0
C2099 C 0.49542 0.51191 0.1233 0.0
C2100 C 0.49082 0.50846 0.13724 0.0
H2101 H 0.44257 0.48707 0.19926 0.0
H2102 H 0.44702 0.48871 0.17567 0.0
H2103 H 0.50554 0.49219 0.16441 0.0
H2104 H 0.53668 0.53008 0.10479 0.0
H2105 H 0.52892 0.52436 0.12757 0.0
C2106 C 0.97998 0.51719 0.80283 0.0
C2107 C 0.98635 0.50586 0.79446 0.0
C2108 C 0.98063 0.51587 0.8165 0.0
C2109 C 0.00557 0.50226 0.8436 0.0
H2110 H 0.95722 0.49246 0.86163 0.0
C2111 C 0.99561 0.47531 0.89576 0.0
C2112 C 0.98713 0.48361 0.90477 0.0
C2113 C 0.99587 0.47924 0.88251 0.0
C2114 C 0.97098 0.49551 0.8568 0.0
H2115 H 0.9981 0.48401 0.79396 0.0
H2116 H 0.99953 0.48201 0.81777 0.0
H2117 H 0.95733 0.49755 0.83813 0.0
H2118 H 0.97213 0.50246 0.90683 0.0
H2119 H 0.97307 0.50977 0.88373 0.0
H2120 H 0.01928 0.50027 0.86219 0.0
C2121 C 0.99427 0.49211 0.81376 0.0
C2122 C 0.97103 0.4984 0.84333 0.0
C2123 C 0.9935 0.49331 0.80011 0.0
C2124 C 0.97894 0.49598 0.90019 0.0
C2125 C 0.97927 0.49998 0.88691 0.0
C2126 C 0.00559 0.4995 0.85705 0.0
C2127 C 0.98778 0.50331 0.8221 0.0
C2128 C 0.98821 0.50153 0.83656 0.0
C2129 C 0.98779 0.49168 0.87792 0.0
C2130 C 0.98818 0.4958 0.86378 0.0
H2131 H 0.97465 0.52723 0.79884 0.0
H2132 H 0.97573 0.52484 0.82271 0.0
H2133 H 0.01919 0.505 0.83869 0.0
H2134 H 0.00232 0.46597 0.89898 0.0
H2135 H 0.00227 0.47234 0.87583 0.0
C2136 C 0.55917 0.46478 0.82524 0.0
C2137 C 0.54539 0.46036 0.81379 0.0
C2138 C 0.55411 0.46885 0.8377 0.0
C2139 C 0.51838 0.4827 0.85435 0.0
H2140 H 0.53215 0.45932 0.88388 0.0
C2141 C 0.48395 0.47672 0.90455 0.0
C2142 C 0.49801 0.48274 0.91613 0.0
C2143 C 0.49036 0.47514 0.89208 0.0
C2144 C 0.5284 0.46612 0.87576 0.0
H2145 H 0.51559 0.45688 0.80634 0.0
H2146 H 0.50646 0.46352 0.82812 0.0
H2147 H 0.54202 0.4544 0.86206 0.0
H2148 H 0.53001 0.4922 0.92355 0.0
H2149 H 0.54098 0.48892 0.90178 0.0
H2150 H 0.50427 0.49392 0.86809 0.0
C2151 C 0.52141 0.4643 0.82749 0.0
C2152 C 0.5341 0.46338 0.86325 0.0
C2153 C 0.52659 0.46043 0.81501 0.0
C2154 C 0.51864 0.48715 0.91489 0.0
C2155 C 0.52498 0.48536 0.90242 0.0
C2156 C 0.5125 0.48526 0.86685 0.0
C2157 C 0.53503 0.46839 0.83901 0.0
C2158 C 0.52918 0.47163 0.85237 0.0
C2159 C 0.51089 0.47933 0.89089 0.0
C2160 C 0.51745 0.47699 0.87768 0.0
H2161 H 0.57393 0.46515 0.82457 0.0
H2162 H 0.5652 0.4724 0.8463 0.0
H2163 H 0.51462 0.48956 0.84627 0.0
H2164 H 0.46784 0.47282 0.90511 0.0
H2165 H 0.47909 0.47018 0.88337 0.0
C2166 C 0.52712 0.02745 0.81257 0.0
C2167 C 0.52574 0.04433 0.80786 0.0
C2168 C 0.5253 0.02397 0.82589 0.0
C2169 C 0.52901 0.04938 0.85925 0.0
H2170 H 0.49169 0.99198 0.86668 0.0
C2171 C 0.50045 0.02917 0.91085 0.0
C2172 C 0.49768 0.01024 0.91514 0.0
C2173 C 0.5055 0.03395 0.89801 0.0
C2174 C 0.50244 0.00805 0.86482 0.0
H2175 H 0.52199 0.07116 0.81349 0.0
H2176 H 0.51871 0.06501 0.8368 0.0
H2177 H 0.49777 0.99931 0.84386 0.0
H2178 H 0.49888 0.98188 0.90957 0.0
H2179 H 0.50802 0.99034 0.88724 0.0
H2180 H 0.53371 0.05813 0.88023 0.0
C2181 C 0.52126 0.05453 0.83017 0.0
C2182 C 0.50589 0.01224 0.85173 0.0
C2183 C 0.52295 0.05793 0.81682 0.0
C2184 C 0.50059 0.99644 0.90645 0.0
C2185 C 0.50578 0.00127 0.89366 0.0
C2186 C 0.52567 0.04516 0.87238 0.0
C2187 C 0.52217 0.03736 0.83481 0.0
C2188 C 0.51912 0.03295 0.84879 0.0
C2189 C 0.50802 0.01995 0.88921 0.0
C2190 C 0.51225 0.02445 0.87532 0.0
H2191 H 0.52907 0.01658 0.80588 0.0
H2192 H 0.52626 0.01073 0.8292 0.0
H2193 H 0.53948 0.06546 0.85729 0.0
H2194 H 0.49808 0.03999 0.91728 0.0
H2195 H 0.50681 0.04832 0.89488 0.0
C2196 C 0.11793 0.28193 0.52363 0.0
C2197 C 0.13336 0.29708 0.53341 0.0
C2198 C 0.11959 0.28476 0.51019 0.0
C2199 C 0.14562 0.32563 0.48763 0.0
H2200 H 0.13592 0.2785 0.46272 0.0
C2201 C 0.15182 0.33282 0.43169 0.0
C2202 C 0.16329 0.32454 0.42576 0.0
C2203 C 0.14582 0.32838 0.4444 0.0
C2204 C 0.1387 0.29181 0.46957 0.0
H2205 H 0.16232 0.32734 0.53679 0.0
H2206 H 0.16538 0.33214 0.51339 0.0
H2207 H 0.13016 0.27327 0.4859 0.0
H2208 H 0.17676 0.3045 0.4283 0.0
H2209 H 0.16657 0.29702 0.45055 0.0
H2210 H 0.15479 0.34433 0.47141 0.0
C2211 C 0.15193 0.31813 0.51608 0.0
C2212 C 0.13519 0.28876 0.48281 0.0
C2213 C 0.15031 0.31526 0.52949 0.0
C2214 C 0.16816 0.31132 0.43267 0.0
C2215 C 0.16211 0.30684 0.44536 0.0
C2216 C 0.14906 0.32866 0.47439 0.0
C2217 C 0.13665 0.30288 0.50628 0.0
C2218 C 0.1389 0.30572 0.49203 0.0
C2219 C 0.15107 0.31551 0.45143 0.0
C2220 C 0.14592 0.31185 0.46525 0.0
H2221 H 0.10475 0.2677 0.52634 0.0
H2222 H 0.10749 0.27281 0.50287 0.0
H2223 H 0.14838 0.33894 0.49447 0.0
H2224 H 0.14795 0.34317 0.42665 0.0
H2225 H 0.13715 0.33513 0.44876 0.0
C2226 C 0.72196 0.86181 0.53011 0.0
C2227 C 0.74276 0.86701 0.53388 0.0
C2228 C 0.71425 0.85792 0.51669 0.0
C2229 C 0.73269 0.86989 0.48385 0.0
H2230 H 0.67655 0.82483 0.47042 0.0
C2231 C 0.70525 0.85076 0.42801 0.0
C2232 C 0.68498 0.84693 0.42407 0.0
C2233 C 0.71168 0.85166 0.44136 0.0
C2234 C 0.6922 0.8376 0.47405 0.0
H2235 H 0.77143 0.87118 0.52656 0.0
H2236 H 0.75802 0.86447 0.50321 0.0
H2237 H 0.68882 0.82928 0.49394 0.0
H2238 H 0.65545 0.84074 0.431 0.0
H2239 H 0.66672 0.84245 0.45434 0.0
H2240 H 0.73608 0.87841 0.46408 0.0
C2241 C 0.7478 0.86382 0.51059 0.0
C2242 C 0.69921 0.84014 0.48751 0.0
C2243 C 0.75548 0.86768 0.52397 0.0
C2244 C 0.67109 0.8435 0.43372 0.0
C2245 C 0.67755 0.84446 0.44709 0.0
C2246 C 0.72568 0.86739 0.47043 0.0
C2247 C 0.72719 0.85916 0.50679 0.0
C2248 C 0.71956 0.85629 0.49254 0.0
C2249 C 0.69801 0.84883 0.45108 0.0
C2250 C 0.70538 0.85119 0.46536 0.0
H2251 H 0.71183 0.86134 0.53752 0.0
H2252 H 0.69836 0.85455 0.51407 0.0
H2253 H 0.7483 0.88275 0.48746 0.0
H2254 H 0.71618 0.8531 0.42077 0.0
H2255 H 0.72741 0.85463 0.44408 0.0
C2256 C 0.15326 0.85873 0.53629 0.0
C2257 C 0.14668 0.83932 0.5414 0.0
C2258 C 0.15524 0.86034 0.52278 0.0
C2259 C 0.13799 0.82901 0.48999 0.0
H2260 H 0.18769 0.87683 0.47962 0.0
C2261 C 0.15983 0.83397 0.43616 0.0
C2262 C 0.16855 0.8538 0.43132 0.0
C2263 C 0.15628 0.83209 0.44948 0.0
C2264 C 0.17357 0.86354 0.48233 0.0
H2265 H 0.13701 0.80635 0.53625 0.0
H2266 H 0.1403 0.80915 0.51262 0.0
H2267 H 0.18314 0.87372 0.50306 0.0
H2268 H 0.18018 0.88716 0.43667 0.0
H2269 H 0.17349 0.88379 0.45982 0.0
H2270 H 0.12839 0.81885 0.46925 0.0
C2271 C 0.14375 0.82307 0.51909 0.0
C2272 C 0.17099 0.86174 0.49577 0.0
C2273 C 0.14185 0.82148 0.53263 0.0
C2274 C 0.17327 0.87163 0.44005 0.0
C2275 C 0.16968 0.86974 0.45336 0.0
C2276 C 0.14053 0.83085 0.47653 0.0
C2277 C 0.15059 0.84256 0.51404 0.0
C2278 C 0.15319 0.84445 0.49975 0.0
C2279 C 0.16133 0.84998 0.45826 0.0
C2280 C 0.15837 0.84813 0.47255 0.0
H2281 H 0.15671 0.87269 0.54272 0.0
H2282 H 0.16022 0.87549 0.51915 0.0
H2283 H 0.12398 0.81565 0.49275 0.0
H2284 H 0.1558 0.81989 0.42966 0.0
H2285 H 0.14999 0.81666 0.45295 0.0
C2286 C 0.64639 0.84856 0.1372 0.0
C2287 C 0.65123 0.83591 0.12881 0.0
C2288 C 0.64679 0.84725 0.15087 0.0
C2289 C 0.66855 0.83027 0.17789 0.0
H2290 H 0.62248 0.82665 0.1962 0.0
C2291 C 0.65604 0.80427 0.23022 0.0
C2292 C 0.64967 0.81468 0.2393 0.0
C2293 C 0.65658 0.80795 0.21692 0.0
C2294 C 0.63561 0.82794 0.19128 0.0
H2295 H 0.65998 0.81173 0.12826 0.0
H2296 H 0.6609 0.80964 0.15207 0.0
H2297 H 0.62311 0.83145 0.17266 0.0
H2298 H 0.63867 0.83704 0.24147 0.0
H2299 H 0.64002 0.8438 0.21824 0.0
H2300 H 0.68107 0.82675 0.19644 0.0
C2301 C 0.65708 0.82078 0.14809 0.0
C2302 C 0.63596 0.83068 0.17779 0.0
C2303 C 0.65658 0.82201 0.13444 0.0
C2304 C 0.64381 0.82888 0.23475 0.0
C2305 C 0.64438 0.83259 0.22141 0.0
C2306 C 0.66825 0.82762 0.19136 0.0
C2307 C 0.65213 0.83334 0.15645 0.0
C2308 C 0.6523 0.83162 0.17092 0.0
C2309 C 0.65085 0.82223 0.21236 0.0
C2310 C 0.65164 0.82615 0.19819 0.0
H2311 H 0.64246 0.85963 0.13321 0.0
H2312 H 0.64313 0.8573 0.15709 0.0
H2313 H 0.68155 0.83132 0.17292 0.0
H2314 H 0.66094 0.79346 0.23341 0.0
H2315 H 0.66136 0.79946 0.21018 0.0
C2316 C 0.1993 0.80289 0.14786 0.0
C2317 C 0.21147 0.79323 0.14616 0.0
C2318 C 0.19495 0.80717 0.16054 0.0
C2319 C 0.19077 0.7887 0.19347 0.0
H2320 H 0.1929 0.84099 0.20562 0.0
C2321 C 0.18038 0.80621 0.24742 0.0
C2322 C 0.16792 0.81536 0.24968 0.0
C2323 C 0.18667 0.80501 0.23488 0.0
C2324 C 0.19201 0.82621 0.20231 0.0
H2325 H 0.22956 0.78159 0.15649 0.0
H2326 H 0.22183 0.78887 0.17853 0.0
H2327 H 0.20204 0.83626 0.18341 0.0
H2328 H 0.15256 0.83075 0.24064 0.0
H2329 H 0.16332 0.82839 0.21862 0.0
H2330 H 0.18047 0.77842 0.21217 0.0
C2331 C 0.21534 0.79278 0.17006 0.0
C2332 C 0.19728 0.82353 0.18961 0.0
C2333 C 0.21973 0.78858 0.15743 0.0
C2334 C 0.1623 0.82375 0.2392 0.0
C2335 C 0.1685 0.82243 0.2266 0.0
C2336 C 0.18542 0.79132 0.2061 0.0
C2337 C 0.20264 0.80181 0.17174 0.0
C2338 C 0.19684 0.80479 0.18511 0.0
C2339 C 0.18053 0.81278 0.22426 0.0
C2340 C 0.18611 0.81015 0.21073 0.0
H2341 H 0.19257 0.80652 0.13937 0.0
H2342 H 0.185 0.81402 0.16154 0.0
H2343 H 0.18986 0.7739 0.19017 0.0
H2344 H 0.18526 0.79996 0.25538 0.0
H2345 H 0.19634 0.79792 0.23351 0.0
C2346 C 0.18328 0.38953 0.14895 0.0
C2347 C 0.19194 0.38024 0.14086 0.0
C2348 C 0.18174 0.38622 0.16232 0.0
C2349 C 0.17713 0.34787 0.18489 0.0
H2350 H 0.19198 0.39332 0.21267 0.0
C2351 C 0.17091 0.33271 0.23976 0.0
C2352 C 0.16332 0.34335 0.24763 0.0
C2353 C 0.17631 0.33824 0.22709 0.0
C2354 C 0.18753 0.3804 0.20502 0.0
H2355 H 0.20589 0.36033 0.14041 0.0
H2356 H 0.2031 0.35446 0.16378 0.0
H2357 H 0.1978 0.40122 0.18984 0.0
H2358 H 0.15545 0.36811 0.24846 0.0
H2359 H 0.16433 0.37745 0.22624 0.0
H2360 H 0.16623 0.32692 0.19986 0.0
C2361 C 0.19754 0.36432 0.15977 0.0
C2362 C 0.19094 0.38496 0.19196 0.0
C2363 C 0.1993 0.36782 0.14644 0.0
C2364 C 0.16148 0.3598 0.24266 0.0
C2365 C 0.16666 0.36519 0.22993 0.0
C2366 C 0.17351 0.34327 0.19791 0.0
C2367 C 0.18861 0.37336 0.16782 0.0
C2368 C 0.18571 0.36873 0.18176 0.0
C2369 C 0.174 0.35438 0.22194 0.0
C2370 C 0.17858 0.35946 0.20815 0.0
H2371 H 0.17761 0.39928 0.14492 0.0
H2372 H 0.17465 0.39326 0.16827 0.0
H2373 H 0.17267 0.335 0.17719 0.0
H2374 H 0.17275 0.32015 0.24343 0.0
H2375 H 0.18231 0.32985 0.22135 0.0
C2376 C 0.79924 0.61163 0.85585 0.0
C2377 C 0.79456 0.62457 0.86408 0.0
C2378 C 0.80115 0.61428 0.84241 0.0
C2379 C 0.8142 0.65467 0.81973 0.0
H2380 H 0.79198 0.60752 0.79211 0.0
C2381 C 0.82313 0.66807 0.76481 0.0
C2382 C 0.82828 0.65505 0.75709 0.0
C2383 C 0.81698 0.66344 0.77746 0.0
C2384 C 0.79846 0.62085 0.79972 0.0
H2385 H 0.78726 0.64979 0.86447 0.0
H2386 H 0.79087 0.65457 0.84107 0.0
H2387 H 0.78478 0.60089 0.81499 0.0
H2388 H 0.83087 0.62689 0.75649 0.0
H2389 H 0.8205 0.61898 0.77867 0.0
H2390 H 0.82835 0.67465 0.80464 0.0
C2391 C 0.79331 0.64255 0.84507 0.0
C2392 C 0.79428 0.61704 0.81281 0.0
C2393 C 0.79129 0.63984 0.85848 0.0
C2394 C 0.82679 0.63709 0.76217 0.0
C2395 C 0.82078 0.63254 0.77487 0.0
C2396 C 0.8185 0.65848 0.80668 0.0
C2397 C 0.79852 0.62999 0.83694 0.0
C2398 C 0.80218 0.63392 0.82295 0.0
C2399 C 0.816 0.64577 0.78272 0.0
C2400 C 0.81075 0.64162 0.79652 0.0
H2401 H 0.80214 0.59992 0.85987 0.0
H2402 H 0.80541 0.60452 0.83642 0.0
H2403 H 0.8208 0.66799 0.82736 0.0
H2404 H 0.82383 0.68184 0.76105 0.0
H2405 H 0.81299 0.67373 0.78311 0.0
C2406 C 0.37429 0.18246 0.8622 0.0
C2407 C 0.39295 0.20116 0.86723 0.0
C2408 C 0.3661 0.17941 0.84893 0.0
C2409 C 0.36793 0.20852 0.82039 0.0
H2410 H 0.35213 0.15611 0.79889 0.0
C2411 C 0.35963 0.20249 0.76369 0.0
C2412 C 0.34272 0.18419 0.75662 0.0
C2413 C 0.36426 0.20343 0.77731 0.0
C2414 C 0.35619 0.17071 0.8048 0.0
H2415 H 0.41777 0.2311 0.86212 0.0
H2416 H 0.40331 0.22594 0.8392 0.0
H2417 H 0.36213 0.15983 0.82273 0.0
H2418 H 0.31758 0.15237 0.75823 0.0
H2419 H 0.32566 0.15403 0.78213 0.0
H2420 H 0.3622 0.21953 0.80255 0.0
C2421 C 0.39484 0.21377 0.84554 0.0
C2422 C 0.3619 0.17283 0.81844 0.0
C2423 C 0.40309 0.21675 0.85872 0.0
C2424 C 0.33083 0.16663 0.76341 0.0
C2425 C 0.33543 0.16758 0.77709 0.0
C2426 C 0.36218 0.20639 0.80681 0.0
C2427 C 0.37632 0.19506 0.84048 0.0
C2428 C 0.36821 0.19191 0.82631 0.0
C2429 C 0.35205 0.18611 0.78421 0.0
C2430 C 0.35666 0.18763 0.7988 0.0
H2431 H 0.36599 0.17021 0.86851 0.0
H2432 H 0.35171 0.16489 0.8453 0.0
H2433 H 0.37235 0.22327 0.82626 0.0
H2434 H 0.36932 0.21613 0.75868 0.0
H2435 H 0.37748 0.21776 0.78244 0.0
C2436 C 0.82867 0.17046 0.86658 0.0
C2437 C 0.80877 0.16329 0.87099 0.0
C2438 C 0.83123 0.17174 0.85311 0.0
C2439 C 0.80724 0.17659 0.82179 0.0
H2440 H 0.84357 0.15935 0.80593 0.0
C2441 C 0.81754 0.17784 0.76579 0.0
C2442 C 0.83805 0.18531 0.76238 0.0
C2443 C 0.81299 0.17391 0.77881 0.0
C2444 C 0.83354 0.16442 0.81024 0.0
H2445 H 0.77588 0.15147 0.86459 0.0
H2446 H 0.78042 0.1539 0.84105 0.0
H2447 H 0.83738 0.15465 0.82908 0.0
H2448 H 0.86979 0.19413 0.76998 0.0
H2449 H 0.86201 0.18784 0.7927 0.0
H2450 H 0.80366 0.18668 0.80302 0.0
C2451 C 0.79405 0.15871 0.84808 0.0
C2452 C 0.82997 0.1617 0.82349 0.0
C2453 C 0.79147 0.15734 0.86157 0.0
C2454 C 0.85388 0.18866 0.77229 0.0
C2455 C 0.84935 0.18476 0.78529 0.0
C2456 C 0.81087 0.17938 0.80853 0.0
C2457 C 0.81398 0.16596 0.84372 0.0
C2458 C 0.81693 0.16792 0.82945 0.0
C2459 C 0.82886 0.17735 0.78872 0.0
C2460 C 0.82422 0.17351 0.80263 0.0
H2461 H 0.84241 0.17556 0.87358 0.0
H2462 H 0.84684 0.17772 0.85009 0.0
H2463 H 0.79732 0.18177 0.82615 0.0
H2464 H 0.80501 0.17526 0.75843 0.0
H2465 H 0.797 0.16802 0.78109 0.0
C2466 C 0.33028 0.16917 0.46922 0.0
C2467 C 0.3142 0.17073 0.46221 0.0
C2468 C 0.33118 0.16894 0.48297 0.0
C2469 C 0.29767 0.15683 0.51025 0.0
H2470 H 0.35098 0.18464 0.53241 0.0
C2471 C 0.30311 0.15639 0.56726 0.0
C2472 C 0.31824 0.15201 0.57282 0.0
C2473 C 0.30288 0.16055 0.55404 0.0
C2474 C 0.33598 0.17669 0.52634 0.0
H2475 H 0.28687 0.17404 0.46421 0.0
H2476 H 0.28849 0.17372 0.48824 0.0
H2477 H 0.35023 0.18877 0.50881 0.0
H2478 H 0.34537 0.14921 0.56898 0.0
H2479 H 0.34477 0.15612 0.5459 0.0
H2480 H 0.28345 0.14455 0.52776 0.0
C2481 C 0.30019 0.17229 0.48306 0.0
C2482 C 0.33555 0.17904 0.51282 0.0
C2483 C 0.29927 0.17249 0.4693 0.0
C2484 C 0.33333 0.15224 0.56494 0.0
C2485 C 0.33315 0.15647 0.55176 0.0
C2486 C 0.2981 0.1545 0.52378 0.0
C2487 C 0.31604 0.17031 0.49005 0.0
C2488 C 0.31641 0.16893 0.50458 0.0
C2489 C 0.31786 0.16055 0.54613 0.0
C2490 C 0.31728 0.16419 0.53195 0.0
H2491 H 0.34183 0.16747 0.46403 0.0
H2492 H 0.3434 0.16706 0.48801 0.0
H2493 H 0.28269 0.14858 0.50416 0.0
H2494 H 0.29121 0.15622 0.57306 0.0
H2495 H 0.291 0.16381 0.55001 0.0
C2496 C 0.86647 0.15074 0.48157 0.0
C2497 C 0.86144 0.13009 0.47694 0.0
C2498 C 0.86036 0.15481 0.49368 0.0
C2499 C 0.82305 0.12888 0.51808 0.0
H2500 H 0.86517 0.17416 0.54365 0.0
C2501 C 0.81246 0.13195 0.57343 0.0
C2502 C 0.81921 0.15164 0.58065 0.0
C2503 C 0.81707 0.13072 0.56041 0.0
C2504 C 0.85311 0.16168 0.53656 0.0
H2505 H 0.84618 0.0976 0.48157 0.0
H2506 H 0.83523 0.10465 0.50242 0.0
H2507 H 0.87367 0.16971 0.52124 0.0
H2508 H 0.83611 0.18552 0.57986 0.0
H2509 H 0.84411 0.18339 0.55701 0.0
H2510 H 0.80252 0.12069 0.53334 0.0
C2511 C 0.84367 0.11765 0.49662 0.0
C2512 C 0.858 0.15914 0.52373 0.0
C2513 C 0.8499 0.11361 0.48462 0.0
C2514 C 0.83088 0.17012 0.57458 0.0
C2515 C 0.83544 0.1689 0.5615 0.0
C2516 C 0.81814 0.13148 0.53085 0.0
C2517 C 0.84895 0.13829 0.50134 0.0
C2518 C 0.84314 0.14244 0.51445 0.0
C2519 C 0.82849 0.14916 0.55424 0.0
C2520 C 0.83324 0.14762 0.54034 0.0
H2521 H 0.87512 0.16377 0.47585 0.0
H2522 H 0.8645 0.17086 0.49704 0.0
H2523 H 0.81118 0.1161 0.51106 0.0
H2524 H 0.80378 0.11744 0.57791 0.0
H2525 H 0.8119 0.11529 0.55522 0.0
C2526 C 0.85805 0.7198 0.47855 0.0
C2527 C 0.85646 0.70306 0.47004 0.0
C2528 C 0.85691 0.71832 0.49215 0.0
C2529 C 0.86242 0.68981 0.51925 0.0
H2530 H 0.82433 0.70399 0.53564 0.0
C2531 C 0.8344 0.66491 0.57033 0.0
C2532 C 0.83075 0.67852 0.57866 0.0
C2533 C 0.83953 0.6694 0.55746 0.0
C2534 C 0.83533 0.70031 0.53132 0.0
H2535 H 0.85321 0.67198 0.46916 0.0
H2536 H 0.85119 0.66937 0.49291 0.0
H2537 H 0.83006 0.70946 0.51255 0.0
H2538 H 0.83052 0.70797 0.5803 0.0
H2539 H 0.83989 0.71607 0.55796 0.0
H2540 H 0.86772 0.68067 0.53801 0.0
C2541 C 0.85332 0.68364 0.48907 0.0
C2542 C 0.83857 0.70341 0.51806 0.0
C2543 C 0.85427 0.68505 0.47546 0.0
C2544 C 0.83293 0.69702 0.57401 0.0
C2545 C 0.83823 0.70162 0.5612 0.0
C2546 C 0.85931 0.68686 0.53256 0.0
C2547 C 0.85437 0.70015 0.49754 0.0
C2548 C 0.85197 0.698 0.51184 0.0
C2549 C 0.84131 0.68771 0.55268 0.0
C2550 C 0.84555 0.69187 0.53873 0.0
H2551 H 0.85962 0.73383 0.47463 0.0
H2552 H 0.85793 0.73135 0.49845 0.0
H2553 H 0.87304 0.68574 0.51476 0.0
H2554 H 0.83262 0.65042 0.5736 0.0
H2555 H 0.84147 0.65816 0.55114 0.0
loop_
_geom_bond_atom_site_label_1
_geom_bond_atom_site_label_2
_geom_bond_distance
_geom_bond_site_symmetry_2
_ccdc_geom_bond_type
P0 O11 1.490 . S
P0 C14 1.812 . S
P0 C20 1.803 . S
P0 C26 1.819 . S
H1 C15 0.941 . S
H2 C16 0.939 . S
H3 C18 0.940 . S
H4 C19 0.940 . S
H5 C21 0.939 . S
H6 C22 0.942 . S
H7 C24 0.940 . S
H8 C25 0.939 . S
H9 C27 0.941 . S
H10 C31 0.939 . S
O11 P0 1.490 . S
H12 C28 0.939 . S
H13 C30 0.940 . S
C14 P0 1.812 . S
C14 C15 1.389 . S
C14 C19 1.391 . S
C15 H1 0.941 . S
C15 C14 1.389 . S
C15 C16 1.397 . S
C16 H2 0.939 . S
C16 C15 1.397 . S
C16 C17 1.378 . S
C17 C16 1.378 . S
C17 C18 1.378 . S
C18 H3 0.940 . S
C18 C17 1.378 . S
C18 C19 1.396 . S
C19 H4 0.940 . S
C19 C14 1.391 . S
C19 C18 1.396 . S
C20 P0 1.803 . S
C20 C21 1.378 . S
C20 C25 1.400 . S
C21 H5 0.939 . S
C21 C20 1.378 . S
C21 C22 1.361 . S
C22 H6 0.942 . S
C22 C21 1.361 . S
C22 C23 1.369 . S
C23 C22 1.369 . S
C23 C24 1.404 . S
C24 H7 0.940 . S
C24 C23 1.404 . S
C24 C25 1.389 . S
C25 H8 0.939 . S
C25 C20 1.400 . S
C25 C24 1.389 . S
C26 P0 1.819 . S
C26 C27 1.391 . S
C26 C31 1.391 . S
C27 H9 0.941 . S
C27 C26 1.391 . S
C27 C28 1.396 . S
C28 H12 0.939 . S
C28 C27 1.396 . S
C28 C29 1.397 . S
C29 C28 1.397 . S
C29 C30 1.385 . S
C30 H13 0.940 . S
C30 C29 1.385 . S
C30 C31 1.388 . S
C31 H10 0.939 . S
C31 C26 1.391 . S
C31 C30 1.388 . S
P32 O43 1.490 . S
P32 C46 1.812 . S
P32 C52 1.803 . S
P32 C58 1.819 . S
H33 C47 0.941 . S
H34 C48 0.939 . S
H35 C50 0.940 . S
H36 C51 0.940 . S
H37 C53 0.939 . S
H38 C54 0.942 . S
H39 C56 0.940 . S
H40 C57 0.939 . S
H41 C59 0.941 . S
H42 C63 0.939 . S
O43 P32 1.490 . S
H44 C60 0.939 . S
H45 C62 0.940 . S
C46 P32 1.812 . S
C46 C47 1.389 . S
C46 C51 1.391 . S
C47 H33 0.941 . S
C47 C46 1.389 . S
C47 C48 1.397 . S
C48 H34 0.939 . S
C48 C47 1.397 . S
C48 C49 1.378 . S
C49 C48 1.378 . S
C49 C50 1.378 . S
C50 H35 0.940 . S
C50 C49 1.378 . S
C50 C51 1.396 . S
C51 H36 0.940 . S
C51 C46 1.391 . S
C51 C50 1.396 . S
C52 P32 1.803 . S
C52 C53 1.378 . S
C52 C57 1.400 . S
C53 H37 0.939 . S
C53 C52 1.378 . S
C53 C54 1.361 . S
C54 H38 0.942 . S
C54 C53 1.361 . S
C54 C55 1.369 . S
C55 C54 1.369 . S
C55 C56 1.404 . S
C56 H39 0.940 . S
C56 C55 1.404 . S
C56 C57 1.389 . S
C57 H40 0.939 . S
C57 C52 1.400 . S
C57 C56 1.389 . S
C58 P32 1.819 . S
C58 C59 1.391 . S
C58 C63 1.391 . S
C59 H41 0.941 . S
C59 C58 1.391 . S
C59 C60 1.396 . S
C60 H44 0.939 . S
C60 C59 1.396 . S
C60 C61 1.397 . S
C61 C60 1.397 . S
C61 C62 1.385 . S
C62 H45 0.940 . S
C62 C61 1.385 . S
C62 C63 1.388 . S
C63 H42 0.939 . S
C63 C58 1.391 . S
C63 C62 1.388 . S
P64 O75 1.490 . S
P64 C78 1.812 . S
P64 C84 1.803 . S
P64 C90 1.819 . S
H65 C79 0.941 . S
H66 C80 0.939 . S
H67 C82 0.940 . S
H68 C83 0.940 . S
H69 C85 0.939 . S
H70 C86 0.942 . S
H71 C88 0.940 . S
H72 C89 0.939 . S
H73 C91 0.941 . S
H74 C95 0.939 . S
O75 P64 1.490 . S
H76 C92 0.939 . S
H77 C94 0.940 . S
C78 P64 1.812 . S
C78 C79 1.389 . S
C78 C83 1.391 . S
C79 H65 0.941 . S
C79 C78 1.389 . S
C79 C80 1.397 . S
C80 H66 0.939 . S
C80 C79 1.397 . S
C80 C81 1.378 . S
C81 C80 1.378 . S
C81 C82 1.378 . S
C82 H67 0.940 . S
C82 C81 1.378 . S
C82 C83 1.396 . S
C83 H68 0.940 . S
C83 C78 1.391 . S
C83 C82 1.396 . S
C84 P64 1.803 . S
C84 C85 1.378 . S
C84 C89 1.400 . S
C85 H69 0.939 . S
C85 C84 1.378 . S
C85 C86 1.361 . S
C86 H70 0.942 . S
C86 C85 1.361 . S
C86 C87 1.369 . S
C87 C86 1.369 . S
C87 C88 1.404 . S
C88 H71 0.940 . S
C88 C87 1.404 . S
C88 C89 1.389 . S
C89 H72 0.939 . S
C89 C84 1.400 . S
C89 C88 1.389 . S
C90 P64 1.819 . S
C90 C91 1.391 . S
C90 C95 1.391 . S
C91 H73 0.941 . S
C91 C90 1.391 . S
C91 C92 1.396 . S
C92 H76 0.939 . S
C92 C91 1.396 . S
C92 C93 1.397 . S
C93 C92 1.397 . S
C93 C94 1.385 . S
C94 H77 0.940 . S
C94 C93 1.385 . S
C94 C95 1.388 . S
C95 H74 0.939 . S
C95 C90 1.391 . S
C95 C94 1.388 . S
P96 O107 1.490 . S
P96 C110 1.812 . S
P96 C116 1.803 . S
P96 C122 1.819 . S
H97 C111 0.941 . S
H98 C112 0.939 . S
H99 C114 0.940 . S
H100 C115 0.940 . S
H101 C117 0.939 . S
H102 C118 0.942 . S
H103 C120 0.940 . S
H104 C121 0.939 . S
H105 C123 0.941 . S
H106 C127 0.939 . S
O107 P96 1.490 . S
H108 C124 0.939 . S
H109 C126 0.940 . S
C110 P96 1.812 . S
C110 C111 1.389 . S
C110 C115 1.391 . S
C111 H97 0.941 . S
C111 C110 1.389 . S
C111 C112 1.397 . S
C112 H98 0.939 . S
C112 C111 1.397 . S
C112 C113 1.378 . S
C113 C112 1.378 . S
C113 C114 1.378 . S
C114 H99 0.940 . S
C114 C113 1.378 . S
C114 C115 1.396 . S
C115 H100 0.940 . S
C115 C110 1.391 . S
C115 C114 1.396 . S
C116 P96 1.803 . S
C116 C117 1.378 . S
C116 C121 1.400 . S
C117 H101 0.939 . S
C117 C116 1.378 . S
C117 C118 1.361 . S
C118 H102 0.942 . S
C118 C117 1.361 . S
C118 C119 1.369 . S
C119 C118 1.369 . S
C119 C120 1.404 . S
C120 H103 0.940 . S
C120 C119 1.404 . S
C120 C121 1.389 . S
C121 H104 0.939 . S
C121 C116 1.400 . S
C121 C120 1.389 . S
C122 P96 1.819 . S
C122 C123 1.391 . S
C122 C127 1.391 . S
C123 H105 0.941 . S
C123 C122 1.391 . S
C123 C124 1.396 . S
C124 H108 0.939 . S
C124 C123 1.396 . S
C124 C125 1.397 . S
C125 C124 1.397 . S
C125 C126 1.385 . S
C126 H109 0.940 . S
C126 C125 1.385 . S
C126 C127 1.388 . S
C127 H106 0.939 . S
C127 C122 1.391 . S
C127 C126 1.388 . S
P128 O139 1.490 . S
P128 C142 1.812 . S
P128 C148 1.803 . S
P128 C154 1.819 . S
H129 C143 0.941 . S
H130 C144 0.939 . S
H131 C146 0.940 . S
H132 C147 0.940 . S
H133 C149 0.939 . S
H134 C150 0.942 . S
H135 C152 0.940 . S
H136 C153 0.939 . S
H137 C155 0.941 . S
H138 C159 0.939 . S
O139 P128 1.490 . S
H140 C156 0.939 . S
H141 C158 0.940 . S
C142 P128 1.812 . S
C142 C143 1.389 . S
C142 C147 1.391 . S
C143 H129 0.941 . S
C143 C142 1.389 . S
C143 C144 1.397 . S
C144 H130 0.939 . S
C144 C143 1.397 . S
C144 C145 1.378 . S
C145 C144 1.378 . S
C145 C146 1.378 . S
C146 H131 0.940 . S
C146 C145 1.378 . S
C146 C147 1.396 . S
C147 H132 0.940 . S
C147 C142 1.391 . S
C147 C146 1.396 . S
C148 P128 1.803 . S
C148 C149 1.378 . S
C148 C153 1.400 . S
C149 H133 0.939 . S
C149 C148 1.378 . S
C149 C150 1.361 . S
C150 H134 0.942 . S
C150 C149 1.361 . S
C150 C151 1.369 . S
C151 C150 1.369 . S
C151 C152 1.404 . S
C152 H135 0.940 . S
C152 C151 1.404 . S
C152 C153 1.389 . S
C153 H136 0.939 . S
C153 C148 1.400 . S
C153 C152 1.389 . S
C154 P128 1.819 . S
C154 C155 1.391 . S
C154 C159 1.391 . S
C155 H137 0.941 . S
C155 C154 1.391 . S
C155 C156 1.396 . S
C156 H140 0.939 . S
C156 C155 1.396 . S
C156 C157 1.397 . S
C157 C156 1.397 . S
C157 C158 1.385 . S
C158 H141 0.940 . S
C158 C157 1.385 . S
C158 C159 1.388 . S
C159 H138 0.939 . S
C159 C154 1.391 . S
C159 C158 1.388 . S
P160 O171 1.490 . S
P160 C174 1.812 . S
P160 C180 1.803 . S
P160 C186 1.819 . S
H161 C175 0.941 . S
H162 C176 0.939 . S
H163 C178 0.940 . S
H164 C179 0.940 . S
H165 C181 0.939 . S
H166 C182 0.942 . S
H167 C184 0.940 . S
H168 C185 0.939 . S
H169 C187 0.941 . S
H170 C191 0.939 . S
O171 P160 1.490 . S
H172 C188 0.939 . S
H173 C190 0.940 . S
C174 P160 1.812 . S
C174 C175 1.389 . S
C174 C179 1.391 . S
C175 H161 0.941 . S
C175 C174 1.389 . S
C175 C176 1.397 . S
C176 H162 0.939 . S
C176 C175 1.397 . S
C176 C177 1.378 . S
C177 C176 1.378 . S
C177 C178 1.378 . S
C178 H163 0.940 . S
C178 C177 1.378 . S
C178 C179 1.396 . S
C179 H164 0.940 . S
C179 C174 1.391 . S
C179 C178 1.396 . S
C180 P160 1.803 . S
C180 C181 1.378 . S
C180 C185 1.400 . S
C181 H165 0.939 . S
C181 C180 1.378 . S
C181 C182 1.361 . S
C182 H166 0.942 . S
C182 C181 1.361 . S
C182 C183 1.369 . S
C183 C182 1.369 . S
C183 C184 1.404 . S
C184 H167 0.940 . S
C184 C183 1.404 . S
C184 C185 1.389 . S
C185 H168 0.939 . S
C185 C180 1.400 . S
C185 C184 1.389 . S
C186 P160 1.819 . S
C186 C187 1.391 . S
C186 C191 1.391 . S
C187 H169 0.941 . S
C187 C186 1.391 . S
C187 C188 1.396 . S
C188 H172 0.939 . S
C188 C187 1.396 . S
C188 C189 1.397 . S
C189 C188 1.397 . S
C189 C190 1.385 . S
C190 H173 0.940 . S
C190 C189 1.385 . S
C190 C191 1.388 . S
C191 H170 0.939 . S
C191 C186 1.391 . S
C191 C190 1.388 . S
P192 O203 1.490 1_655 S
P192 C206 1.812 . S
P192 C212 1.803 . S
P192 C218 1.819 . S
H193 C207 0.941 . S
H194 C208 0.939 . S
H195 C210 0.940 . S
H196 C211 0.940 . S
H197 C213 0.939 . S
H198 C214 0.942 . S
H199 C216 0.940 . S
H200 C217 0.939 . S
H201 C219 0.941 1_455 S
H202 C223 0.939 . S
O203 P192 1.490 1_455 S
H204 C220 0.939 1_455 S
H205 C222 0.940 . S
C206 P192 1.812 . S
C206 C207 1.389 . S
C206 C211 1.391 . S
C207 H193 0.941 . S
C207 C206 1.389 . S
C207 C208 1.397 . S
C208 H194 0.939 . S
C208 C207 1.397 . S
C208 C209 1.378 . S
C209 C208 1.378 . S
C209 C210 1.378 . S
C210 H195 0.940 . S
C210 C209 1.378 . S
C210 C211 1.396 . S
C211 H196 0.940 . S
C211 C206 1.391 . S
C211 C210 1.396 . S
C212 P192 1.803 . S
C212 C213 1.378 . S
C212 C217 1.400 . S
C213 H197 0.939 . S
C213 C212 1.378 . S
C213 C214 1.361 . S
C214 H198 0.942 . S
C214 C213 1.361 . S
C214 C215 1.369 . S
C215 C214 1.369 . S
C215 C216 1.404 . S
C216 H199 0.940 . S
C216 C215 1.404 . S
C216 C217 1.389 . S
C217 H200 0.939 . S
C217 C212 1.400 . S
C217 C216 1.389 . S
C218 P192 1.819 . S
C218 C219 1.391 . S
C218 C223 1.391 . S
C219 H201 0.941 1_655 S
C219 C218 1.391 . S
C219 C220 1.396 . S
C220 H204 0.939 1_655 S
C220 C219 1.396 . S
C220 C221 1.397 . S
C221 C220 1.397 . S
C221 C222 1.385 . S
C222 H205 0.940 . S
C222 C221 1.385 . S
C222 C223 1.388 . S
C223 H202 0.939 . S
C223 C218 1.391 . S
C223 C222 1.388 . S
P224 O235 1.490 . S
P224 C238 1.812 . S
P224 C244 1.803 . S
P224 C250 1.819 . S
H225 C239 0.941 . S
H226 C240 0.939 . S
H227 C242 0.940 . S
H228 C243 0.940 . S
H229 C245 0.939 . S
H230 C246 0.942 . S
H231 C248 0.940 . S
H232 C249 0.939 . S
H233 C251 0.941 . S
H234 C255 0.939 . S
O235 P224 1.490 . S
H236 C252 0.939 . S
H237 C254 0.940 . S
C238 P224 1.812 . S
C238 C239 1.389 . S
C238 C243 1.391 . S
C239 H225 0.941 . S
C239 C238 1.389 . S
C239 C240 1.397 . S
C240 H226 0.939 . S
C240 C239 1.397 . S
C240 C241 1.378 . S
C241 C240 1.378 . S
C241 C242 1.378 . S
C242 H227 0.940 . S
C242 C241 1.378 . S
C242 C243 1.396 . S
C243 H228 0.940 . S
C243 C238 1.391 . S
C243 C242 1.396 . S
C244 P224 1.803 . S
C244 C245 1.378 . S
C244 C249 1.400 . S
C245 H229 0.939 . S
C245 C244 1.378 . S
C245 C246 1.361 . S
C246 H230 0.942 . S
C246 C245 1.361 . S
C246 C247 1.369 . S
C247 C246 1.369 . S
C247 C248 1.404 . S
C248 H231 0.940 . S
C248 C247 1.404 . S
C248 C249 1.389 . S
C249 H232 0.939 . S
C249 C244 1.400 . S
C249 C248 1.389 . S
C250 P224 1.819 . S
C250 C251 1.391 . S
C250 C255 1.391 . S
C251 H233 0.941 . S
C251 C250 1.391 . S
C251 C252 1.396 . S
C252 H236 0.939 . S
C252 C251 1.396 . S
C252 C253 1.397 . S
C253 C252 1.397 . S
C253 C254 1.385 . S
C254 H237 0.940 . S
C254 C253 1.385 . S
C254 C255 1.388 . S
C255 H234 0.939 . S
C255 C250 1.391 . S
C255 C254 1.388 . S
P256 O267 1.490 . S
P256 C270 1.812 . S
P256 C276 1.803 . S
P256 C282 1.819 . S
H257 C271 0.941 . S
H258 C272 0.939 . S
H259 C274 0.940 . S
H260 C275 0.940 . S
H261 C277 0.939 . S
H262 C278 0.942 . S
H263 C280 0.940 . S
H264 C281 0.939 . S
H265 C283 0.941 . S
H266 C287 0.939 . S
O267 P256 1.490 . S
H268 C284 0.939 . S
H269 C286 0.940 . S
C270 P256 1.812 . S
C270 C271 1.389 . S
C270 C275 1.391 . S
C271 H257 0.941 . S
C271 C270 1.389 . S
C271 C272 1.397 . S
C272 H258 0.939 . S
C272 C271 1.397 . S
C272 C273 1.378 . S
C273 C272 1.378 . S
C273 C274 1.378 . S
C274 H259 0.940 . S
C274 C273 1.378 . S
C274 C275 1.396 . S
C275 H260 0.940 . S
C275 C270 1.391 . S
C275 C274 1.396 . S
C276 P256 1.803 . S
C276 C277 1.378 . S
C276 C281 1.400 . S
C277 H261 0.939 . S
C277 C276 1.378 . S
C277 C278 1.361 . S
C278 H262 0.942 . S
C278 C277 1.361 . S
C278 C279 1.369 . S
C279 C278 1.369 . S
C279 C280 1.404 . S
C280 H263 0.940 . S
C280 C279 1.404 . S
C280 C281 1.389 . S
C281 H264 0.939 . S
C281 C276 1.400 . S
C281 C280 1.389 . S
C282 P256 1.819 . S
C282 C283 1.391 . S
C282 C287 1.391 . S
C283 H265 0.941 . S
C283 C282 1.391 . S
C283 C284 1.396 . S
C284 H268 0.939 . S
C284 C283 1.396 . S
C284 C285 1.397 . S
C285 C284 1.397 . S
C285 C286 1.385 . S
C286 H269 0.940 . S
C286 C285 1.385 . S
C286 C287 1.388 . S
C287 H266 0.939 . S
C287 C282 1.391 . S
C287 C286 1.388 . S
P288 O299 1.490 . S
P288 C302 1.812 . S
P288 C308 1.803 . S
P288 C314 1.819 . S
H289 C303 0.941 . S
H290 C304 0.939 . S
H291 C306 0.940 . S
H292 C307 0.940 . S
H293 C309 0.939 . S
H294 C310 0.942 . S
H295 C312 0.940 . S
H296 C313 0.939 . S
H297 C315 0.941 . S
H298 C319 0.939 . S
O299 P288 1.490 . S
H300 C316 0.939 . S
H301 C318 0.940 . S
C302 P288 1.812 . S
C302 C303 1.389 . S
C302 C307 1.391 . S
C303 H289 0.941 . S
C303 C302 1.389 . S
C303 C304 1.397 . S
C304 H290 0.939 . S
C304 C303 1.397 . S
C304 C305 1.378 . S
C305 C304 1.378 . S
C305 C306 1.378 . S
C306 H291 0.940 . S
C306 C305 1.378 . S
C306 C307 1.396 . S
C307 H292 0.940 . S
C307 C302 1.391 . S
C307 C306 1.396 . S
C308 P288 1.803 . S
C308 C309 1.378 . S
C308 C313 1.400 . S
C309 H293 0.939 . S
C309 C308 1.378 . S
C309 C310 1.361 . S
C310 H294 0.942 . S
C310 C309 1.361 . S
C310 C311 1.369 . S
C311 C310 1.369 . S
C311 C312 1.404 . S
C312 H295 0.940 . S
C312 C311 1.404 . S
C312 C313 1.389 . S
C313 H296 0.939 . S
C313 C308 1.400 . S
C313 C312 1.389 . S
C314 P288 1.819 . S
C314 C315 1.391 . S
C314 C319 1.391 . S
C315 H297 0.941 . S
C315 C314 1.391 . S
C315 C316 1.396 . S
C316 H300 0.939 . S
C316 C315 1.396 . S
C316 C317 1.397 . S
C317 C316 1.397 . S
C317 C318 1.385 . S
C318 H301 0.940 . S
C318 C317 1.385 . S
C318 C319 1.388 . S
C319 H298 0.939 . S
C319 C314 1.391 . S
C319 C318 1.388 . S
P320 O331 1.490 . S
P320 C334 1.812 . S
P320 C340 1.803 . S
P320 C346 1.819 . S
H321 C335 0.941 . S
H322 C336 0.939 . S
H323 C338 0.940 . S
H324 C339 0.940 . S
H325 C341 0.939 . S
H326 C342 0.942 . S
H327 C344 0.940 . S
H328 C345 0.939 . S
H329 C347 0.941 . S
H330 C351 0.939 . S
O331 P320 1.490 . S
H332 C348 0.939 . S
H333 C350 0.940 . S
C334 P320 1.812 . S
C334 C335 1.389 . S
C334 C339 1.391 . S
C335 H321 0.941 . S
C335 C334 1.389 . S
C335 C336 1.397 . S
C336 H322 0.939 . S
C336 C335 1.397 . S
C336 C337 1.378 . S
C337 C336 1.378 . S
C337 C338 1.378 . S
C338 H323 0.940 . S
C338 C337 1.378 . S
C338 C339 1.396 . S
C339 H324 0.940 . S
C339 C334 1.391 . S
C339 C338 1.396 . S
C340 P320 1.803 . S
C340 C341 1.378 . S
C340 C345 1.400 . S
C341 H325 0.939 . S
C341 C340 1.378 . S
C341 C342 1.361 . S
C342 H326 0.942 . S
C342 C341 1.361 . S
C342 C343 1.369 . S
C343 C342 1.369 . S
C343 C344 1.404 . S
C344 H327 0.940 . S
C344 C343 1.404 . S
C344 C345 1.389 . S
C345 H328 0.939 . S
C345 C340 1.400 . S
C345 C344 1.389 . S
C346 P320 1.819 . S
C346 C347 1.391 . S
C346 C351 1.391 . S
C347 H329 0.941 . S
C347 C346 1.391 . S
C347 C348 1.396 . S
C348 H332 0.939 . S
C348 C347 1.396 . S
C348 C349 1.397 . S
C349 C348 1.397 . S
C349 C350 1.385 . S
C350 H333 0.940 . S
C350 C349 1.385 . S
C350 C351 1.388 . S
C351 H330 0.939 . S
C351 C346 1.391 . S
C351 C350 1.388 . S
P352 O363 1.490 . S
P352 C366 1.812 . S
P352 C372 1.803 . S
P352 C378 1.819 . S
H353 C367 0.941 . S
H354 C368 0.939 . S
H355 C370 0.940 . S
H356 C371 0.940 . S
H357 C373 0.939 . S
H358 C374 0.942 . S
H359 C376 0.940 . S
H360 C377 0.939 . S
H361 C379 0.941 . S
H362 C383 0.939 . S
O363 P352 1.490 . S
H364 C380 0.939 . S
H365 C382 0.940 . S
C366 P352 1.812 . S
C366 C367 1.389 . S
C366 C371 1.391 . S
C367 H353 0.941 . S
C367 C366 1.389 . S
C367 C368 1.397 . S
C368 H354 0.939 . S
C368 C367 1.397 . S
C368 C369 1.378 . S
C369 C368 1.378 . S
C369 C370 1.378 . S
C370 H355 0.940 . S
C370 C369 1.378 . S
C370 C371 1.396 . S
C371 H356 0.940 . S
C371 C366 1.391 . S
C371 C370 1.396 . S
C372 P352 1.803 . S
C372 C373 1.378 . S
C372 C377 1.400 . S
C373 H357 0.939 . S
C373 C372 1.378 . S
C373 C374 1.361 . S
C374 H358 0.942 . S
C374 C373 1.361 . S
C374 C375 1.369 . S
C375 C374 1.369 . S
C375 C376 1.404 . S
C376 H359 0.940 . S
C376 C375 1.404 . S
C376 C377 1.389 . S
C377 H360 0.939 . S
C377 C372 1.400 . S
C377 C376 1.389 . S
C378 P352 1.819 . S
C378 C379 1.391 . S
C378 C383 1.391 . S
C379 H361 0.941 . S
C379 C378 1.391 . S
C379 C380 1.396 . S
C380 H364 0.939 . S
C380 C379 1.396 . S
C380 C381 1.397 . S
C381 C380 1.397 . S
C381 C382 1.385 . S
C382 H365 0.940 . S
C382 C381 1.385 . S
C382 C383 1.388 . S
C383 H362 0.939 . S
C383 C378 1.391 . S
C383 C382 1.388 . S
P384 O395 1.490 . S
P384 C398 1.812 . S
P384 C404 1.803 . S
P384 C410 1.819 . S
H385 C399 0.941 . S
H386 C400 0.939 . S
H387 C402 0.940 . S
H388 C403 0.940 . S
H389 C405 0.939 . S
H390 C406 0.942 . S
H391 C408 0.940 . S
H392 C409 0.939 . S
H393 C411 0.941 . S
H394 C415 0.939 . S
O395 P384 1.490 . S
H396 C412 0.939 . S
H397 C414 0.940 . S
C398 P384 1.812 . S
C398 C399 1.389 . S
C398 C403 1.391 . S
C399 H385 0.941 . S
C399 C398 1.389 . S
C399 C400 1.397 . S
C400 H386 0.939 . S
C400 C399 1.397 . S
C400 C401 1.378 . S
C401 C400 1.378 . S
C401 C402 1.378 . S
C402 H387 0.940 . S
C402 C401 1.378 . S
C402 C403 1.396 . S
C403 H388 0.940 . S
C403 C398 1.391 . S
C403 C402 1.396 . S
C404 P384 1.803 . S
C404 C405 1.378 . S
C404 C409 1.400 . S
C405 H389 0.939 . S
C405 C404 1.378 . S
C405 C406 1.361 . S
C406 H390 0.942 . S
C406 C405 1.361 . S
C406 C407 1.369 . S
C407 C406 1.369 . S
C407 C408 1.404 . S
C408 H391 0.940 . S
C408 C407 1.404 . S
C408 C409 1.389 . S
C409 H392 0.939 . S
C409 C404 1.400 . S
C409 C408 1.389 . S
C410 P384 1.819 . S
C410 C411 1.391 . S
C410 C415 1.391 . S
C411 H393 0.941 . S
C411 C410 1.391 . S
C411 C412 1.396 . S
C412 H396 0.939 . S
C412 C411 1.396 . S
C412 C413 1.397 . S
C413 C412 1.397 . S
C413 C414 1.385 . S
C414 H397 0.940 . S
C414 C413 1.385 . S
C414 C415 1.388 . S
C415 H394 0.939 . S
C415 C410 1.391 . S
C415 C414 1.388 . S
P416 O427 1.490 . S
P416 C430 1.812 . S
P416 C436 1.803 . S
P416 C442 1.819 . S
H417 C431 0.941 . S
H418 C432 0.939 . S
H419 C434 0.940 . S
H420 C435 0.940 . S
H421 C437 0.939 . S
H422 C438 0.942 . S
H423 C440 0.940 . S
H424 C441 0.939 . S
H425 C443 0.941 . S
H426 C447 0.939 . S
O427 P416 1.490 . S
H428 C444 0.939 . S
H429 C446 0.940 . S
C430 P416 1.812 . S
C430 C431 1.389 . S
C430 C435 1.391 . S
C431 H417 0.941 . S
C431 C430 1.389 . S
C431 C432 1.397 . S
C432 H418 0.939 . S
C432 C431 1.397 . S
C432 C433 1.378 . S
C433 C432 1.378 . S
C433 C434 1.378 . S
C434 H419 0.940 . S
C434 C433 1.378 . S
C434 C435 1.396 . S
C435 H420 0.940 . S
C435 C430 1.391 . S
C435 C434 1.396 . S
C436 P416 1.803 . S
C436 C437 1.378 . S
C436 C441 1.400 . S
C437 H421 0.939 . S
C437 C436 1.378 . S
C437 C438 1.361 . S
C438 H422 0.942 . S
C438 C437 1.361 . S
C438 C439 1.369 . S
C439 C438 1.369 . S
C439 C440 1.404 . S
C440 H423 0.940 . S
C440 C439 1.404 . S
C440 C441 1.389 . S
C441 H424 0.939 . S
C441 C436 1.400 . S
C441 C440 1.389 . S
C442 P416 1.819 . S
C442 C443 1.391 . S
C442 C447 1.391 . S
C443 H425 0.941 . S
C443 C442 1.391 . S
C443 C444 1.396 . S
C444 H428 0.939 . S
C444 C443 1.396 . S
C444 C445 1.397 . S
C445 C444 1.397 . S
C445 C446 1.385 . S
C446 H429 0.940 . S
C446 C445 1.385 . S
C446 C447 1.388 . S
C447 H426 0.939 . S
C447 C442 1.391 . S
C447 C446 1.388 . S
P448 O459 1.490 . S
P448 C462 1.812 . S
P448 C468 1.803 . S
P448 C474 1.819 . S
H449 C463 0.941 . S
H450 C464 0.939 . S
H451 C466 0.940 . S
H452 C467 0.940 . S
H453 C469 0.939 . S
H454 C470 0.942 . S
H455 C472 0.940 . S
H456 C473 0.939 . S
H457 C475 0.941 . S
H458 C479 0.939 . S
O459 P448 1.490 . S
H460 C476 0.939 . S
H461 C478 0.940 . S
C462 P448 1.812 . S
C462 C463 1.389 . S
C462 C467 1.391 . S
C463 H449 0.941 . S
C463 C462 1.389 . S
C463 C464 1.397 . S
C464 H450 0.939 . S
C464 C463 1.397 . S
C464 C465 1.378 . S
C465 C464 1.378 . S
C465 C466 1.378 . S
C466 H451 0.940 . S
C466 C465 1.378 . S
C466 C467 1.396 . S
C467 H452 0.940 . S
C467 C462 1.391 . S
C467 C466 1.396 . S
C468 P448 1.803 . S
C468 C469 1.378 . S
C468 C473 1.400 . S
C469 H453 0.939 . S
C469 C468 1.378 . S
C469 C470 1.361 . S
C470 H454 0.942 . S
C470 C469 1.361 . S
C470 C471 1.369 . S
C471 C470 1.369 . S
C471 C472 1.404 . S
C472 H455 0.940 . S
C472 C471 1.404 . S
C472 C473 1.389 . S
C473 H456 0.939 . S
C473 C468 1.400 . S
C473 C472 1.389 . S
C474 P448 1.819 . S
C474 C475 1.391 . S
C474 C479 1.391 . S
C475 H457 0.941 . S
C475 C474 1.391 . S
C475 C476 1.396 . S
C476 H460 0.939 . S
C476 C475 1.396 . S
C476 C477 1.397 . S
C477 C476 1.397 . S
C477 C478 1.385 . S
C478 H461 0.940 . S
C478 C477 1.385 . S
C478 C479 1.388 . S
C479 H458 0.939 . S
C479 C474 1.391 . S
C479 C478 1.388 . S
P480 O491 1.490 . S
P480 C494 1.812 . S
P480 C500 1.803 . S
P480 C506 1.819 . S
H481 C495 0.941 . S
H482 C496 0.939 . S
H483 C498 0.940 . S
H484 C499 0.940 . S
H485 C501 0.939 . S
H486 C502 0.942 . S
H487 C504 0.940 . S
H488 C505 0.939 . S
H489 C507 0.941 . S
H490 C511 0.939 . S
O491 P480 1.490 . S
H492 C508 0.939 . S
H493 C510 0.940 . S
C494 P480 1.812 . S
C494 C495 1.389 . S
C494 C499 1.391 . S
C495 H481 0.941 . S
C495 C494 1.389 . S
C495 C496 1.397 . S
C496 H482 0.939 . S
C496 C495 1.397 . S
C496 C497 1.378 . S
C497 C496 1.378 . S
C497 C498 1.378 . S
C498 H483 0.940 . S
C498 C497 1.378 . S
C498 C499 1.396 . S
C499 H484 0.940 . S
C499 C494 1.391 . S
C499 C498 1.396 . S
C500 P480 1.803 . S
C500 C501 1.378 . S
C500 C505 1.400 . S
C501 H485 0.939 . S
C501 C500 1.378 . S
C501 C502 1.361 . S
C502 H486 0.942 . S
C502 C501 1.361 . S
C502 C503 1.369 . S
C503 C502 1.369 . S
C503 C504 1.404 . S
C504 H487 0.940 . S
C504 C503 1.404 . S
C504 C505 1.389 . S
C505 H488 0.939 . S
C505 C500 1.400 . S
C505 C504 1.389 . S
C506 P480 1.819 . S
C506 C507 1.391 . S
C506 C511 1.391 . S
C507 H489 0.941 . S
C507 C506 1.391 . S
C507 C508 1.396 . S
C508 H492 0.939 . S
C508 C507 1.396 . S
C508 C509 1.397 . S
C509 C508 1.397 . S
C509 C510 1.385 . S
C510 H493 0.940 . S
C510 C509 1.385 . S
C510 C511 1.388 . S
C511 H490 0.939 . S
C511 C506 1.391 . S
C511 C510 1.388 . S
P512 O523 1.490 . S
P512 C526 1.812 . S
P512 C532 1.803 . S
P512 C538 1.819 . S
H513 C527 0.941 . S
H514 C528 0.939 . S
H515 C530 0.940 . S
H516 C531 0.940 . S
H517 C533 0.939 . S
H518 C534 0.942 . S
H519 C536 0.940 . S
H520 C537 0.939 . S
H521 C539 0.941 . S
H522 C543 0.939 . S
O523 P512 1.490 . S
H524 C540 0.939 . S
H525 C542 0.940 . S
C526 P512 1.812 . S
C526 C527 1.389 . S
C526 C531 1.391 . S
C527 H513 0.941 . S
C527 C526 1.389 . S
C527 C528 1.397 . S
C528 H514 0.939 . S
C528 C527 1.397 . S
C528 C529 1.378 . S
C529 C528 1.378 . S
C529 C530 1.378 . S
C530 H515 0.940 . S
C530 C529 1.378 . S
C530 C531 1.396 . S
C531 H516 0.940 . S
C531 C526 1.391 . S
C531 C530 1.396 . S
C532 P512 1.803 . S
C532 C533 1.378 . S
C532 C537 1.400 . S
C533 H517 0.939 . S
C533 C532 1.378 . S
C533 C534 1.361 . S
C534 H518 0.942 . S
C534 C533 1.361 . S
C534 C535 1.369 . S
C535 C534 1.369 . S
C535 C536 1.404 . S
C536 H519 0.940 . S
C536 C535 1.404 . S
C536 C537 1.389 . S
C537 H520 0.939 . S
C537 C532 1.400 . S
C537 C536 1.389 . S
C538 P512 1.819 . S
C538 C539 1.391 . S
C538 C543 1.391 . S
C539 H521 0.941 . S
C539 C538 1.391 . S
C539 C540 1.396 . S
C540 H524 0.939 . S
C540 C539 1.396 . S
C540 C541 1.397 . S
C541 C540 1.397 . S
C541 C542 1.385 . S
C542 H525 0.940 . S
C542 C541 1.385 . S
C542 C543 1.388 . S
C543 H522 0.939 . S
C543 C538 1.391 . S
C543 C542 1.388 . S
P544 O555 1.490 . S
P544 C558 1.812 . S
P544 C564 1.803 . S
P544 C570 1.819 . S
H545 C559 0.941 . S
H546 C560 0.939 . S
H547 C562 0.940 . S
H548 C563 0.940 . S
H549 C565 0.939 . S
H550 C566 0.942 . S
H551 C568 0.940 . S
H552 C569 0.939 . S
H553 C571 0.941 . S
H554 C575 0.939 . S
O555 P544 1.490 . S
H556 C572 0.939 . S
H557 C574 0.940 . S
C558 P544 1.812 . S
C558 C559 1.389 . S
C558 C563 1.391 . S
C559 H545 0.941 . S
C559 C558 1.389 . S
C559 C560 1.397 . S
C560 H546 0.939 . S
C560 C559 1.397 . S
C560 C561 1.378 . S
C561 C560 1.378 . S
C561 C562 1.378 . S
C562 H547 0.940 . S
C562 C561 1.378 . S
C562 C563 1.396 . S
C563 H548 0.940 . S
C563 C558 1.391 . S
C563 C562 1.396 . S
C564 P544 1.803 . S
C564 C565 1.378 . S
C564 C569 1.400 . S
C565 H549 0.939 . S
C565 C564 1.378 . S
C565 C566 1.361 . S
C566 H550 0.942 . S
C566 C565 1.361 . S
C566 C567 1.369 . S
C567 C566 1.369 . S
C567 C568 1.404 . S
C568 H551 0.940 . S
C568 C567 1.404 . S
C568 C569 1.389 . S
C569 H552 0.939 . S
C569 C564 1.400 . S
C569 C568 1.389 . S
C570 P544 1.819 . S
C570 C571 1.391 . S
C570 C575 1.391 . S
C571 H553 0.941 . S
C571 C570 1.391 . S
C571 C572 1.396 . S
C572 H556 0.939 . S
C572 C571 1.396 . S
C572 C573 1.397 . S
C573 C572 1.397 . S
C573 C574 1.385 . S
C574 H557 0.940 . S
C574 C573 1.385 . S
C574 C575 1.388 . S
C575 H554 0.939 . S
C575 C570 1.391 . S
C575 C574 1.388 . S
C576 Eu577 2.835 . S
C576 C578 1.506 . S
C576 O596 1.257 1_545 S
C576 O597 1.260 . S
Eu577 C576 2.835 . S
Eu577 O596 2.473 1_545 S
Eu577 O597 2.480 . S
Eu577 O598 2.430 . S
Eu577 O599 2.670 1_554 S
Eu577 O600 2.394 1_545 S
Eu577 O605 2.355 1_545 S
Eu577 O607 2.374 . S
C578 C576 1.506 . S
C578 C579 1.405 . S
C578 C583 1.344 1_545 S
C579 C578 1.405 . S
C579 C580 1.395 . S
C579 H608 0.931 . S
C580 C579 1.395 . S
C580 C581 1.383 1_545 S
C580 H609 0.931 . S
C581 C580 1.383 1_565 S
C581 C582 1.394 . S
C582 C581 1.394 . S
C582 C583 1.378 . S
C582 H610 0.931 . S
C583 C578 1.344 1_565 S
C583 C582 1.378 . S
C583 H611 0.931 . S
C584 O598 1.259 . S
C584 O599 1.270 1_554 S
C585 O600 1.251 . S
C585 O601 1.176 1_554 S
C586 Eu587 2.835 . S
C586 C588 1.499 . S
C586 O602 1.257 1_565 S
C586 O603 1.260 . S
Eu587 C586 2.835 . S
Eu587 O599 2.355 1_565 S
Eu587 O601 2.430 . S
Eu587 O602 2.473 1_565 S
Eu587 O603 2.480 . S
Eu587 O604 2.430 . S
Eu587 O605 2.670 1_556 S
Eu587 O606 2.394 1_565 S
C588 C586 1.499 . S
C588 C589 1.371 . S
C588 C593 1.384 1_565 S
C589 C588 1.371 . S
C589 C590 1.395 . S
C589 H612 0.931 . S
C590 C589 1.395 . S
C590 C591 1.383 1_565 S
C590 H613 0.931 . S
C591 C590 1.383 1_545 S
C591 C592 1.394 . S
C592 C591 1.394 . S
C592 C593 1.378 . S
C592 H614 0.931 . S
C593 C588 1.384 1_545 S
C593 C592 1.378 . S
C593 H615 0.931 . S
C594 O604 1.259 1_554 S
C594 O605 1.270 . S
C595 O606 1.251 . S
C595 O607 1.251 1_556 S
O596 C576 1.257 1_565 S
O596 Eu577 2.473 1_565 S
O597 C576 1.260 . S
O597 Eu577 2.480 . S
O598 Eu577 2.430 . S
O598 C584 1.259 . S
O599 Eu577 2.670 1_556 S
O599 C584 1.270 1_556 S
O599 Eu587 2.355 1_545 S
O600 Eu577 2.394 1_565 S
O600 C585 1.251 . S
O601 C585 1.176 1_556 S
O601 Eu587 2.430 . S
O602 C586 1.257 1_545 S
O602 Eu587 2.473 1_545 S
O603 C586 1.260 . S
O603 Eu587 2.480 . S
O604 Eu587 2.430 . S
O604 C594 1.259 1_556 S
O605 Eu577 2.355 1_565 S
O605 Eu587 2.670 1_554 S
O605 C594 1.270 . S
O606 Eu587 2.394 1_545 S
O606 C595 1.251 . S
O607 Eu577 2.374 . S
O607 C595 1.251 1_554 S
H608 C579 0.931 . S
H609 C580 0.931 . S
H610 C582 0.931 . S
H611 C583 0.931 . S
H612 C589 0.931 . S
H613 C590 0.931 . S
H614 C592 0.931 . S
H615 C593 0.931 . S
C616 Eu617 2.835 . S
C616 C618 1.500 1_655 S
C616 O636 1.257 1_655 S
C616 O637 1.260 . S
Eu617 C616 2.835 . S
Eu617 O636 2.473 1_655 S
Eu617 O637 2.480 . S
Eu617 O638 2.430 . S
Eu617 O639 2.670 1_554 S
Eu617 O640 2.394 1_655 S
Eu617 O645 2.355 1_655 S
Eu617 O647 2.374 . S
C618 C616 1.500 1_455 S
C618 C619 1.377 1_455 S
C618 C623 1.377 . S
C619 C618 1.377 1_655 S
C619 C620 1.395 . S
C619 H648 0.931 . S
C620 C619 1.395 . S
C620 C621 1.383 1_655 S
C620 H649 0.931 . S
C621 C620 1.383 1_455 S
C621 C622 1.394 . S
C622 C621 1.394 . S
C622 C623 1.378 . S
C622 H650 0.931 . S
C623 C618 1.377 . S
C623 C622 1.378 . S
C623 H651 0.931 . S
C624 O638 1.259 1_556 S
C624 O639 1.270 . S
C625 O640 1.251 . S
C625 O641 1.251 . S
C626 Eu627 2.835 . S
C626 C628 1.500 1_455 S
C626 O642 1.257 1_455 S
C626 O643 1.260 . S
Eu627 C626 2.835 . S
Eu627 O639 2.355 1_455 S
Eu627 O641 2.374 1_556 S
Eu627 O642 2.473 1_455 S
Eu627 O643 2.480 . S
Eu627 O644 2.430 . S
Eu627 O645 2.670 1_556 S
Eu627 O646 2.394 1_455 S
C628 C626 1.500 1_655 S
C628 C629 1.377 1_655 S
C628 C633 1.377 . S
C629 C628 1.377 1_455 S
C629 C630 1.395 . S
C629 H652 0.931 . S
C630 C629 1.395 . S
C630 C631 1.383 1_455 S
C630 H653 0.931 . S
C631 C630 1.383 1_655 S
C631 C632 1.394 . S
C632 C631 1.394 . S
C632 C633 1.378 . S
C632 H654 0.931 . S
C633 C628 1.377 . S
C633 C632 1.378 . S
C633 H655 0.931 . S
C634 O644 1.259 1_554 S
C634 O645 1.270 . S
C635 O646 1.251 . S
C635 O647 1.251 1_556 S
O636 C616 1.257 1_455 S
O636 Eu617 2.473 1_455 S
O637 C616 1.260 . S
O637 Eu617 2.480 . S
O638 Eu617 2.430 . S
O638 C624 1.259 1_554 S
O639 Eu617 2.670 1_556 S
O639 C624 1.270 . S
O639 Eu627 2.355 1_655 S
O640 Eu617 2.394 1_455 S
O640 C625 1.251 . S
O641 C625 1.251 . S
O641 Eu627 2.374 1_554 S
O642 C626 1.257 1_655 S
O642 Eu627 2.473 1_655 S
O643 C626 1.260 . S
O643 Eu627 2.480 . S
O644 Eu627 2.430 . S
O644 C634 1.259 1_556 S
O645 Eu617 2.355 1_455 S
O645 Eu627 2.670 1_554 S
O645 C634 1.270 . S
O646 Eu627 2.394 1_655 S
O646 C635 1.251 . S
O647 Eu617 2.374 . S
O647 C635 1.251 1_554 S
H648 C619 0.931 . S
H649 C620 0.931 . S
H650 C622 0.931 . S
H651 C623 0.931 . S
H652 C629 0.931 . S
H653 C630 0.931 . S
H654 C632 0.931 . S
H655 C633 0.931 . S
C656 Eu657 2.835 . S
C656 C658 1.500 . S
C656 O676 1.257 . S
C656 O677 1.260 . S
Eu657 C656 2.835 . S
Eu657 O676 2.473 . S
Eu657 O677 2.480 . S
Eu657 O678 2.430 . S
Eu657 O679 2.670 1_556 S
Eu657 O680 2.394 . S
Eu657 O685 2.355 . S
Eu657 O687 2.321 1_556 S
C658 C656 1.500 . S
C658 C659 1.377 . S
C658 C663 1.377 . S
C659 C658 1.377 . S
C659 C660 1.395 . S
C659 H688 0.931 . S
C660 C659 1.395 . S
C660 C661 1.383 . S
C660 H689 0.931 . S
C661 C660 1.383 . S
C661 C662 1.394 . S
C662 C661 1.394 . S
C662 C663 1.378 . S
C662 H690 0.931 . S
C663 C658 1.377 . S
C663 C662 1.378 . S
C663 H691 0.931 . S
C664 O678 1.259 1_554 S
C664 O679 1.270 . S
C665 O680 1.251 . S
C665 O681 1.251 1_556 S
C666 Eu667 2.835 . S
C666 C668 1.500 . S
C666 O682 1.257 . S
C666 O683 1.260 . S
Eu667 C666 2.835 . S
Eu667 O679 2.355 . S
Eu667 O681 2.374 . S
Eu667 O682 2.473 . S
Eu667 O683 2.480 . S
Eu667 O684 2.430 . S
Eu667 O685 2.670 1_554 S
Eu667 O686 2.394 . S
C668 C666 1.500 . S
C668 C669 1.377 . S
C668 C673 1.377 . S
C669 C668 1.377 . S
C669 C670 1.395 . S
C669 H692 0.931 . S
C670 C669 1.395 . S
C670 C671 1.383 . S
C670 H693 0.931 . S
C671 C670 1.383 . S
C671 C672 1.394 . S
C672 C671 1.394 . S
C672 C673 1.378 . S
C672 H694 0.931 . S
C673 C668 1.377 . S
C673 C672 1.378 . S
C673 H695 0.931 . S
C674 O684 1.219 1_556 S
C674 O685 1.288 . S
C675 O686 1.251 . S
C675 O687 1.322 . S
O676 C656 1.257 . S
O676 Eu657 2.473 . S
O677 C656 1.260 . S
O677 Eu657 2.480 . S
O678 Eu657 2.430 . S
O678 C664 1.259 1_556 S
O679 Eu657 2.670 1_554 S
O679 C664 1.270 . S
O679 Eu667 2.355 . S
O680 Eu657 2.394 . S
O680 C665 1.251 . S
O681 C665 1.251 1_554 S
O681 Eu667 2.374 . S
O682 C666 1.257 . S
O682 Eu667 2.473 . S
O683 C666 1.260 . S
O683 Eu667 2.480 . S
O684 Eu667 2.430 . S
O684 C674 1.219 1_554 S
O685 Eu657 2.355 . S
O685 Eu667 2.670 1_556 S
O685 C674 1.288 . S
O686 Eu667 2.394 . S
O686 C675 1.251 . S
O687 Eu657 2.321 1_554 S
O687 C675 1.322 . S
H688 C659 0.931 . S
H689 C660 0.931 . S
H690 C662 0.931 . S
H691 C663 0.931 . S
H692 C669 0.931 . S
H693 C670 0.931 . S
H694 C672 0.931 . S
H695 C673 0.931 . S
C696 Eu697 2.835 . S
C696 C698 1.500 . S
C696 O716 1.257 . S
C696 O717 1.260 . S
Eu697 C696 2.835 . S
Eu697 O716 2.473 . S
Eu697 O717 2.480 . S
Eu697 O718 2.430 . S
Eu697 O719 2.670 . S
Eu697 O720 2.394 . S
Eu697 O725 2.355 . S
Eu697 O727 2.374 . S
C698 C696 1.500 . S
C698 C699 1.377 . S
C698 C703 1.377 . S
C699 C698 1.377 . S
C699 C700 1.395 . S
C699 H728 0.931 . S
C700 C699 1.395 . S
C700 C701 1.383 . S
C700 H729 0.931 . S
C701 C700 1.383 . S
C701 C702 1.394 . S
C702 C701 1.394 . S
C702 C703 1.378 . S
C702 H730 0.931 . S
C703 C698 1.377 . S
C703 C702 1.378 . S
C703 H731 0.931 . S
C704 O718 1.259 . S
C704 O719 1.270 . S
C705 O720 1.251 . S
C705 O721 1.251 . S
C706 Eu707 2.835 . S
C706 C708 1.500 . S
C706 O722 1.257 . S
C706 O723 1.260 . S
Eu707 C706 2.835 . S
Eu707 O719 2.355 . S
Eu707 O721 2.374 . S
Eu707 O722 2.473 . S
Eu707 O723 2.480 . S
Eu707 O724 2.430 . S
Eu707 O725 2.670 . S
Eu707 O726 2.394 . S
C708 C706 1.500 . S
C708 C709 1.377 . S
C708 C713 1.377 . S
C709 C708 1.377 . S
C709 C710 1.395 . S
C709 H732 0.931 . S
C710 C709 1.395 . S
C710 C711 1.383 . S
C710 H733 0.931 . S
C711 C710 1.383 . S
C711 C712 1.394 . S
C712 C711 1.394 . S
C712 C713 1.378 . S
C712 H734 0.931 . S
C713 C708 1.377 . S
C713 C712 1.378 . S
C713 H735 0.931 . S
C714 O724 1.259 . S
C714 O725 1.270 . S
C715 O726 1.251 . S
C715 O727 1.251 . S
O716 C696 1.257 . S
O716 Eu697 2.473 . S
O717 C696 1.260 . S
O717 Eu697 2.480 . S
O718 Eu697 2.430 . S
O718 C704 1.259 . S
O719 Eu697 2.670 . S
O719 C704 1.270 . S
O719 Eu707 2.355 . S
O720 Eu697 2.394 . S
O720 C705 1.251 . S
O721 C705 1.251 . S
O721 Eu707 2.374 . S
O722 C706 1.257 . S
O722 Eu707 2.473 . S
O723 C706 1.260 . S
O723 Eu707 2.480 . S
O724 Eu707 2.430 . S
O724 C714 1.259 . S
O725 Eu697 2.355 . S
O725 Eu707 2.670 . S
O725 C714 1.270 . S
O726 Eu707 2.394 . S
O726 C715 1.251 . S
O727 Eu697 2.374 . S
O727 C715 1.251 . S
H728 C699 0.931 . S
H729 C700 0.931 . S
H730 C702 0.931 . S
H731 C703 0.931 . S
H732 C709 0.931 . S
H733 C710 0.931 . S
H734 C712 0.931 . S
H735 C713 0.931 . S
C736 Eu737 2.835 . S
C736 C738 1.500 . S
C736 O756 1.257 . S
C736 O757 1.260 . S
Eu737 C736 2.835 . S
Eu737 O756 2.473 . S
Eu737 O757 2.480 . S
Eu737 O758 2.430 . S
Eu737 O759 2.670 . S
Eu737 O760 2.394 . S
Eu737 O765 2.355 . S
Eu737 O767 2.374 . S
C738 C736 1.500 . S
C738 C739 1.377 . S
C738 C743 1.377 . S
C739 C738 1.377 . S
C739 C740 1.395 . S
C739 H768 0.931 . S
C740 C739 1.395 . S
C740 C741 1.383 . S
C740 H769 0.931 . S
C741 C740 1.383 . S
C741 C742 1.394 . S
C742 C741 1.394 . S
C742 C743 1.378 . S
C742 H770 0.931 . S
C743 C738 1.377 . S
C743 C742 1.378 . S
C743 H771 0.931 . S
C744 O758 1.259 . S
C744 O759 1.270 . S
C745 O760 1.251 . S
C745 O761 1.251 . S
C746 Eu747 2.835 . S
C746 C748 1.500 . S
C746 O762 1.257 . S
C746 O763 1.260 . S
Eu747 C746 2.835 . S
Eu747 O759 2.355 . S
Eu747 O761 2.374 . S
Eu747 O762 2.473 . S
Eu747 O763 2.480 . S
Eu747 O764 2.430 . S
Eu747 O765 2.670 . S
Eu747 O766 2.394 . S
C748 C746 1.500 . S
C748 C749 1.377 . S
C748 C753 1.377 . S
C749 C748 1.377 . S
C749 C750 1.395 . S
C749 H772 0.931 . S
C750 C749 1.395 . S
C750 C751 1.383 . S
C750 H773 0.931 . S
C751 C750 1.383 . S
C751 C752 1.394 . S
C752 C751 1.394 . S
C752 C753 1.378 . S
C752 H774 0.931 . S
C753 C748 1.377 . S
C753 C752 1.378 . S
C753 H775 0.931 . S
C754 O764 1.259 . S
C754 O765 1.270 . S
C755 O766 1.251 . S
C755 O767 1.251 . S
O756 C736 1.257 . S
O756 Eu737 2.473 . S
O757 C736 1.260 . S
O757 Eu737 2.480 . S
O758 Eu737 2.430 . S
O758 C744 1.259 . S
O759 Eu737 2.670 . S
O759 C744 1.270 . S
O759 Eu747 2.355 . S
O760 Eu737 2.394 . S
O760 C745 1.251 . S
O761 C745 1.251 . S
O761 Eu747 2.374 . S
O762 C746 1.257 . S
O762 Eu747 2.473 . S
O763 C746 1.260 . S
O763 Eu747 2.480 . S
O764 Eu747 2.430 . S
O764 C754 1.259 . S
O765 Eu737 2.355 . S
O765 Eu747 2.670 . S
O765 C754 1.270 . S
O766 Eu747 2.394 . S
O766 C755 1.251 . S
O767 Eu737 2.374 . S
O767 C755 1.251 . S
H768 C739 0.931 . S
H769 C740 0.931 . S
H770 C742 0.931 . S
H771 C743 0.931 . S
H772 C749 0.931 . S
H773 C750 0.931 . S
H774 C752 0.931 . S
H775 C753 0.931 . S
C776 Eu777 2.835 . S
C776 C778 1.500 . S
C776 O796 1.257 . S
C776 O797 1.260 . S
Eu777 C776 2.835 . S
Eu777 O796 2.473 . S
Eu777 O797 2.480 . S
Eu777 O798 2.430 . S
Eu777 O799 2.670 . S
Eu777 O800 2.394 . S
Eu777 O805 2.355 . S
Eu777 O807 2.374 . S
C778 C776 1.500 . S
C778 C779 1.377 . S
C778 C783 1.377 . S
C779 C778 1.377 . S
C779 C780 1.395 . S
C779 H808 0.931 . S
C780 C779 1.395 . S
C780 C781 1.383 . S
C780 H809 0.931 . S
C781 C780 1.383 . S
C781 C782 1.394 . S
C782 C781 1.394 . S
C782 C783 1.378 . S
C782 H810 0.931 . S
C783 C778 1.377 . S
C783 C782 1.378 . S
C783 H811 0.931 . S
C784 O798 1.259 . S
C784 O799 1.270 . S
C785 O800 1.251 . S
C785 O801 1.251 . S
C786 Eu787 2.835 . S
C786 C788 1.500 . S
C786 O802 1.257 . S
C786 O803 1.260 . S
Eu787 C786 2.835 . S
Eu787 O799 2.355 . S
Eu787 O801 2.374 . S
Eu787 O802 2.473 . S
Eu787 O803 2.480 . S
Eu787 O804 2.430 . S
Eu787 O805 2.670 . S
Eu787 O806 2.394 . S
C788 C786 1.500 . S
C788 C789 1.377 . S
C788 C793 1.377 . S
C789 C788 1.377 . S
C789 C790 1.395 . S
C789 H812 0.931 . S
C790 C789 1.395 . S
C790 C791 1.383 . S
C790 H813 0.931 . S
C791 C790 1.383 . S
C791 C792 1.394 . S
C792 C791 1.394 . S
C792 C793 1.378 . S
C792 H814 0.931 . S
C793 C788 1.377 . S
C793 C792 1.378 . S
C793 H815 0.931 . S
C794 O804 1.259 . S
C794 O805 1.270 . S
C795 O806 1.251 . S
C795 O807 1.251 . S
O796 C776 1.257 . S
O796 Eu777 2.473 . S
O797 C776 1.260 . S
O797 Eu777 2.480 . S
O798 Eu777 2.430 . S
O798 C784 1.259 . S
O799 Eu777 2.670 . S
O799 C784 1.270 . S
O799 Eu787 2.355 . S
O800 Eu777 2.394 . S
O800 C785 1.251 . S
O801 C785 1.251 . S
O801 Eu787 2.374 . S
O802 C786 1.257 . S
O802 Eu787 2.473 . S
O803 C786 1.260 . S
O803 Eu787 2.480 . S
O804 Eu787 2.430 . S
O804 C794 1.259 . S
O805 Eu777 2.355 . S
O805 Eu787 2.670 . S
O805 C794 1.270 . S
O806 Eu787 2.394 . S
O806 C795 1.251 . S
O807 Eu777 2.374 . S
O807 C795 1.251 . S
H808 C779 0.931 . S
H809 C780 0.931 . S
H810 C782 0.931 . S
H811 C783 0.931 . S
H812 C789 0.931 . S
H813 C790 0.931 . S
H814 C792 0.931 . S
H815 C793 0.931 . S
C816 Eu817 2.835 . S
C816 C818 1.500 . S
C816 O836 1.257 . S
C816 O837 1.260 . S
Eu817 C816 2.835 . S
Eu817 O836 2.473 . S
Eu817 O837 2.480 . S
Eu817 O838 2.430 . S
Eu817 O839 2.670 . S
Eu817 O840 2.394 . S
Eu817 O845 2.355 . S
Eu817 O847 2.374 . S
C818 C816 1.500 . S
C818 C819 1.377 . S
C818 C823 1.377 . S
C819 C818 1.377 . S
C819 C820 1.395 . S
C819 H848 0.931 . S
C820 C819 1.395 . S
C820 C821 1.383 . S
C820 H849 0.931 . S
C821 C820 1.383 . S
C821 C822 1.394 . S
C822 C821 1.394 . S
C822 C823 1.378 . S
C822 H850 0.931 . S
C823 C818 1.377 . S
C823 C822 1.378 . S
C823 H851 0.931 . S
C824 O838 1.259 . S
C824 O839 1.270 . S
C825 O840 1.251 . S
C825 O841 1.251 . S
C826 Eu827 2.835 . S
C826 C828 1.500 . S
C826 O842 1.257 . S
C826 O843 1.260 . S
Eu827 C826 2.835 . S
Eu827 O839 2.355 . S
Eu827 O841 2.374 . S
Eu827 O842 2.473 . S
Eu827 O843 2.480 . S
Eu827 O844 2.430 . S
Eu827 O845 2.670 . S
Eu827 O846 2.394 . S
C828 C826 1.500 . S
C828 C829 1.377 . S
C828 C833 1.377 . S
C829 C828 1.377 . S
C829 C830 1.395 . S
C829 H852 0.931 . S
C830 C829 1.395 . S
C830 C831 1.383 . S
C830 H853 0.931 . S
C831 C830 1.383 . S
C831 C832 1.394 . S
C832 C831 1.394 . S
C832 C833 1.378 . S
C832 H854 0.931 . S
C833 C828 1.377 . S
C833 C832 1.378 . S
C833 H855 0.931 . S
C834 O844 1.259 . S
C834 O845 1.270 . S
C835 O846 1.251 . S
C835 O847 1.251 . S
O836 C816 1.257 . S
O836 Eu817 2.473 . S
O837 C816 1.260 . S
O837 Eu817 2.480 . S
O838 Eu817 2.430 . S
O838 C824 1.259 . S
O839 Eu817 2.670 . S
O839 C824 1.270 . S
O839 Eu827 2.355 . S
O840 Eu817 2.394 . S
O840 C825 1.251 . S
O841 C825 1.251 . S
O841 Eu827 2.374 . S
O842 C826 1.257 . S
O842 Eu827 2.473 . S
O843 C826 1.260 . S
O843 Eu827 2.480 . S
O844 Eu827 2.430 . S
O844 C834 1.259 . S
O845 Eu817 2.355 . S
O845 Eu827 2.670 . S
O845 C834 1.270 . S
O846 Eu827 2.394 . S
O846 C835 1.251 . S
O847 Eu817 2.374 . S
O847 C835 1.251 . S
H848 C819 0.931 . S
H849 C820 0.931 . S
H850 C822 0.931 . S
H851 C823 0.931 . S
H852 C829 0.931 . S
H853 C830 0.931 . S
H854 C832 0.931 . S
H855 C833 0.931 . S
C856 Eu857 2.835 . S
C856 C858 1.500 . S
C856 O876 1.257 . S
C856 O877 1.260 . S
Eu857 C856 2.835 . S
Eu857 O876 2.473 . S
Eu857 O877 2.480 . S
Eu857 O878 2.430 . S
Eu857 O879 2.670 . S
Eu857 O880 2.394 . S
Eu857 O885 2.355 . S
Eu857 O887 2.374 . S
C858 C856 1.500 . S
C858 C859 1.377 . S
C858 C863 1.377 . S
C859 C858 1.377 . S
C859 C860 1.395 . S
C859 H888 0.931 . S
C860 C859 1.395 . S
C860 C861 1.383 . S
C860 H889 0.931 . S
C861 C860 1.383 . S
C861 C862 1.394 . S
C862 C861 1.394 . S
C862 C863 1.378 . S
C862 H890 0.931 . S
C863 C858 1.377 . S
C863 C862 1.378 . S
C863 H891 0.931 . S
C864 O878 1.259 . S
C864 O879 1.270 . S
C865 O880 1.251 . S
C865 O881 1.251 . S
C866 Eu867 2.835 . S
C866 C868 1.500 . S
C866 O882 1.257 . S
C866 O883 1.260 . S
Eu867 C866 2.835 . S
Eu867 O879 2.355 . S
Eu867 O881 2.374 . S
Eu867 O882 2.473 . S
Eu867 O883 2.480 . S
Eu867 O884 2.430 . S
Eu867 O885 2.670 . S
Eu867 O886 2.394 . S
C868 C866 1.500 . S
C868 C869 1.377 . S
C868 C873 1.377 . S
C869 C868 1.377 . S
C869 C870 1.395 . S
C869 H892 0.931 . S
C870 C869 1.395 . S
C870 C871 1.383 . S
C870 H893 0.931 . S
C871 C870 1.383 . S
C871 C872 1.394 . S
C872 C871 1.394 . S
C872 C873 1.378 . S
C872 H894 0.931 . S
C873 C868 1.377 . S
C873 C872 1.378 . S
C873 H895 0.931 . S
C874 O884 1.259 . S
C874 O885 1.270 . S
C875 O886 1.251 . S
C875 O887 1.251 . S
O876 C856 1.257 . S
O876 Eu857 2.473 . S
O877 C856 1.260 . S
O877 Eu857 2.480 . S
O878 Eu857 2.430 . S
O878 C864 1.259 . S
O879 Eu857 2.670 . S
O879 C864 1.270 . S
O879 Eu867 2.355 . S
O880 Eu857 2.394 . S
O880 C865 1.251 . S
O881 C865 1.251 . S
O881 Eu867 2.374 . S
O882 C866 1.257 . S
O882 Eu867 2.473 . S
O883 C866 1.260 . S
O883 Eu867 2.480 . S
O884 Eu867 2.430 . S
O884 C874 1.259 . S
O885 Eu857 2.355 . S
O885 Eu867 2.670 . S
O885 C874 1.270 . S
O886 Eu867 2.394 . S
O886 C875 1.251 . S
O887 Eu857 2.374 . S
O887 C875 1.251 . S
H888 C859 0.931 . S
H889 C860 0.931 . S
H890 C862 0.931 . S
H891 C863 0.931 . S
H892 C869 0.931 . S
H893 C870 0.931 . S
H894 C872 0.931 . S
H895 C873 0.931 . S
C896 Eu897 2.835 . S
C896 C898 1.500 . S
C896 O916 1.257 . S
C896 O917 1.260 . S
Eu897 C896 2.835 . S
Eu897 O916 2.473 . S
Eu897 O917 2.480 . S
Eu897 O918 2.430 . S
Eu897 O919 2.670 . S
Eu897 O920 2.394 . S
Eu897 O925 2.355 . S
Eu897 O927 2.374 . S
C898 C896 1.500 . S
C898 C899 1.377 . S
C898 C903 1.377 . S
C899 C898 1.377 . S
C899 C900 1.395 . S
C899 H928 0.931 . S
C900 C899 1.395 . S
C900 C901 1.383 . S
C900 H929 0.931 . S
C901 C900 1.383 . S
C901 C902 1.394 . S
C902 C901 1.394 . S
C902 C903 1.378 . S
C902 H930 0.931 . S
C903 C898 1.377 . S
C903 C902 1.378 . S
C903 H931 0.931 . S
C904 O918 1.259 . S
C904 O919 1.270 . S
C905 O920 1.251 . S
C905 O921 1.251 . S
C906 Eu907 2.835 . S
C906 C908 1.500 . S
C906 O922 1.257 . S
C906 O923 1.260 . S
Eu907 C906 2.835 . S
Eu907 O919 2.355 . S
Eu907 O921 2.374 . S
Eu907 O922 2.473 . S
Eu907 O923 2.480 . S
Eu907 O924 2.430 . S
Eu907 O925 2.670 . S
Eu907 O926 2.394 . S
C908 C906 1.500 . S
C908 C909 1.377 . S
C908 C913 1.377 . S
C909 C908 1.377 . S
C909 C910 1.395 . S
C909 H932 0.931 . S
C910 C909 1.395 . S
C910 C911 1.383 . S
C910 H933 0.931 . S
C911 C910 1.383 . S
C911 C912 1.394 . S
C912 C911 1.394 . S
C912 C913 1.378 . S
C912 H934 0.931 . S
C913 C908 1.377 . S
C913 C912 1.378 . S
C913 H935 0.931 . S
C914 O924 1.259 . S
C914 O925 1.270 . S
C915 O926 1.251 . S
C915 O927 1.251 . S
O916 C896 1.257 . S
O916 Eu897 2.473 . S
O917 C896 1.260 . S
O917 Eu897 2.480 . S
O918 Eu897 2.430 . S
O918 C904 1.259 . S
O919 Eu897 2.670 . S
O919 C904 1.270 . S
O919 Eu907 2.355 . S
O920 Eu897 2.394 . S
O920 C905 1.251 . S
O921 C905 1.251 . S
O921 Eu907 2.374 . S
O922 C906 1.257 . S
O922 Eu907 2.473 . S
O923 C906 1.260 . S
O923 Eu907 2.480 . S
O924 Eu907 2.430 . S
O924 C914 1.259 . S
O925 Eu897 2.355 . S
O925 Eu907 2.670 . S
O925 C914 1.270 . S
O926 Eu907 2.394 . S
O926 C915 1.251 . S
O927 Eu897 2.374 . S
O927 C915 1.251 . S
H928 C899 0.931 . S
H929 C900 0.931 . S
H930 C902 0.931 . S
H931 C903 0.931 . S
H932 C909 0.931 . S
H933 C910 0.931 . S
H934 C912 0.931 . S
H935 C913 0.931 . S
C936 C937 1.349 . S
C936 C938 1.327 . S
C936 H961 0.950 . S
C937 C936 1.349 . S
C937 C953 1.349 . S
C938 C936 1.327 . S
C938 C957 1.429 . S
C938 H962 0.950 . S
C939 C956 1.574 . S
C939 C958 1.368 . S
C939 H963 0.949 . S
H940 C944 0.949 . S
C941 C942 1.349 . S
C941 C943 1.327 . S
C941 H964 0.950 . S
C942 C941 1.349 . S
C942 C954 1.349 . S
C943 C941 1.327 . S
C943 C959 1.429 . S
C943 H965 0.950 . S
C944 H940 0.949 . S
C944 C952 1.574 . S
C944 C960 1.368 . S
H945 C953 0.950 . S
H946 C951 0.950 . S
H947 C952 0.949 . S
H948 C954 0.950 1_556 S
H949 C955 0.950 . S
H950 C956 0.949 . S
C951 H946 0.950 . S
C951 C953 1.327 . S
C951 C957 1.429 . S
C952 C944 1.574 . S
C952 H947 0.949 . S
C952 C958 1.368 . S
C953 C937 1.349 . S
C953 H945 0.950 . S
C953 C951 1.327 . S
C954 C942 1.349 . S
C954 H948 0.950 1_554 S
C954 C955 1.327 . S
C955 H949 0.950 . S
C955 C954 1.327 . S
C955 C959 1.429 . S
C956 C939 1.574 . S
C956 H950 0.949 . S
C956 C960 1.368 . S
C957 C938 1.429 . S
C957 C951 1.429 . S
C957 C958 1.523 . S
C958 C939 1.368 . S
C958 C952 1.368 . S
C958 C957 1.523 . S
C959 C943 1.429 . S
C959 C955 1.429 . S
C959 C960 1.523 . S
C960 C944 1.368 . S
C960 C956 1.368 . S
C960 C959 1.523 . S
H961 C936 0.950 . S
H962 C938 0.950 . S
H963 C939 0.949 . S
H964 C941 0.950 . S
H965 C943 0.950 . S
C966 C967 1.349 . S
C966 C968 1.327 . S
C966 H991 0.950 . S
C967 C966 1.349 . S
C967 C983 1.349 . S
C968 C966 1.327 . S
C968 C987 1.429 . S
C968 H992 0.950 . S
C969 C986 1.574 . S
C969 C988 1.368 . S
C969 H993 0.949 . S
H970 C974 0.949 . S
C971 C972 1.349 . S
C971 C973 1.327 . S
C971 H994 0.950 . S
C972 C971 1.349 . S
C972 C984 1.349 . S
C973 C971 1.327 . S
C973 C989 1.429 . S
C973 H995 0.950 . S
C974 H970 0.949 . S
C974 C982 1.574 . S
C974 C990 1.368 . S
H975 C983 0.950 . S
H976 C981 0.950 . S
H977 C982 0.949 . S
H978 C984 0.950 . S
H979 C985 0.950 . S
H980 C986 0.949 . S
C981 H976 0.950 . S
C981 C983 1.327 . S
C981 C987 1.429 . S
C982 C974 1.574 . S
C982 H977 0.949 . S
C982 C988 1.368 . S
C983 C967 1.349 . S
C983 H975 0.950 . S
C983 C981 1.327 . S
C984 C972 1.349 . S
C984 H978 0.950 . S
C984 C985 1.327 . S
C985 H979 0.950 . S
C985 C984 1.327 . S
C985 C989 1.429 . S
C986 C969 1.574 . S
C986 H980 0.949 . S
C986 C990 1.368 . S
C987 C968 1.429 . S
C987 C981 1.429 . S
C987 C988 1.523 . S
C988 C969 1.368 . S
C988 C982 1.368 . S
C988 C987 1.523 . S
C989 C973 1.429 . S
C989 C985 1.429 . S
C989 C990 1.523 . S
C990 C974 1.368 . S
C990 C986 1.368 . S
C990 C989 1.523 . S
H991 C966 0.950 . S
H992 C968 0.950 . S
H993 C969 0.949 . S
H994 C971 0.950 . S
H995 C973 0.950 . S
C996 C997 1.349 . S
C996 C998 1.327 . S
C996 H1021 0.950 . S
C997 C996 1.349 . S
C997 C1013 1.349 . S
C998 C996 1.327 . S
C998 C1017 1.429 . S
C998 H1022 0.950 . S
C999 C1016 1.574 . S
C999 C1018 1.368 . S
C999 H1023 0.949 . S
H1000 C1004 0.949 . S
C1001 C1002 1.349 . S
C1001 C1003 1.327 . S
C1001 H1024 0.950 . S
C1002 C1001 1.349 . S
C1002 C1014 1.349 . S
C1003 C1001 1.327 . S
C1003 C1019 1.429 . S
C1003 H1025 0.950 . S
C1004 H1000 0.949 . S
C1004 C1012 1.574 . S
C1004 C1020 1.368 . S
H1005 C1013 0.950 . S
H1006 C1011 0.950 . S
H1007 C1012 0.949 . S
H1008 C1014 0.950 1_556 S
H1009 C1015 0.950 . S
H1010 C1016 0.949 . S
C1011 H1006 0.950 . S
C1011 C1013 1.327 . S
C1011 C1017 1.429 . S
C1012 C1004 1.574 . S
C1012 H1007 0.949 . S
C1012 C1018 1.368 . S
C1013 C997 1.349 . S
C1013 H1005 0.950 . S
C1013 C1011 1.327 . S
C1014 C1002 1.349 . S
C1014 H1008 0.950 1_554 S
C1014 C1015 1.327 . S
C1015 H1009 0.950 . S
C1015 C1014 1.327 . S
C1015 C1019 1.429 . S
C1016 C999 1.574 . S
C1016 H1010 0.949 . S
C1016 C1020 1.368 . S
C1017 C998 1.429 . S
C1017 C1011 1.429 . S
C1017 C1018 1.523 . S
C1018 C999 1.368 . S
C1018 C1012 1.368 . S
C1018 C1017 1.523 . S
C1019 C1003 1.429 . S
C1019 C1015 1.429 . S
C1019 C1020 1.523 . S
C1020 C1004 1.368 . S
C1020 C1016 1.368 . S
C1020 C1019 1.523 . S
H1021 C996 0.950 . S
H1022 C998 0.950 . S
H1023 C999 0.949 . S
H1024 C1001 0.950 . S
H1025 C1003 0.950 . S
C1026 C1027 1.349 . S
C1026 C1028 1.327 . S
C1026 H1051 0.950 . S
C1027 C1026 1.349 . S
C1027 C1043 1.349 . S
C1028 C1026 1.327 . S
C1028 C1047 1.429 . S
C1028 H1052 0.950 . S
C1029 C1046 1.574 . S
C1029 C1048 1.368 . S
C1029 H1053 0.949 . S
H1030 C1034 0.949 . S
C1031 C1032 1.349 . S
C1031 C1033 1.327 . S
C1031 H1054 0.950 . S
C1032 C1031 1.349 . S
C1032 C1044 1.385 . S
C1033 C1031 1.327 . S
C1033 C1049 1.429 . S
C1033 H1055 0.950 . S
C1034 H1030 0.949 . S
C1034 C1042 1.574 . S
C1034 C1050 1.368 . S
H1035 C1043 0.950 . S
H1036 C1041 0.950 . S
H1037 C1042 0.949 . S
H1038 C1044 0.905 1_554 S
H1039 C1045 0.898 1_554 S
H1040 C1046 0.949 . S
C1041 H1036 0.950 . S
C1041 C1043 1.327 . S
C1041 C1047 1.429 . S
C1042 C1034 1.574 . S
C1042 H1037 0.949 . S
C1042 C1048 1.368 . S
C1043 C1027 1.349 . S
C1043 H1035 0.950 . S
C1043 C1041 1.327 . S
C1044 C1032 1.385 . S
C1044 H1038 0.905 1_556 S
C1044 C1045 1.338 . S
C1045 H1039 0.898 1_556 S
C1045 C1044 1.338 . S
C1045 C1049 1.429 . S
C1046 C1029 1.574 . S
C1046 H1040 0.949 . S
C1046 C1050 1.368 . S
C1047 C1028 1.429 . S
C1047 C1041 1.429 . S
C1047 C1048 1.523 . S
C1048 C1029 1.368 . S
C1048 C1042 1.368 . S
C1048 C1047 1.523 . S
C1049 C1033 1.429 . S
C1049 C1045 1.429 . S
C1049 C1050 1.523 . S
C1050 C1034 1.368 . S
C1050 C1046 1.368 . S
C1050 C1049 1.523 . S
H1051 C1026 0.950 . S
H1052 C1028 0.950 . S
H1053 C1029 0.949 . S
H1054 C1031 0.950 . S
H1055 C1033 0.950 . S
C1056 C1057 1.349 . S
C1056 C1058 1.327 . S
C1056 H1081 0.950 . S
C1057 C1056 1.349 . S
C1057 C1073 1.349 . S
C1058 C1056 1.327 . S
C1058 C1077 1.429 . S
C1058 H1082 0.950 . S
C1059 C1076 1.574 . S
C1059 C1078 1.368 . S
C1059 H1083 0.949 . S
H1060 C1064 0.949 . S
C1061 C1062 1.349 . S
C1061 C1063 1.327 . S
C1061 H1084 0.950 . S
C1062 C1061 1.349 . S
C1062 C1074 1.349 . S
C1063 C1061 1.327 . S
C1063 C1079 1.429 . S
C1063 H1085 0.950 . S
C1064 H1060 0.949 . S
C1064 C1072 1.574 . S
C1064 C1080 1.368 . S
H1065 C1073 0.950 . S
H1066 C1071 0.950 . S
H1067 C1072 0.949 . S
H1068 C1074 0.949 1_554 S
H1069 C1075 0.950 . S
H1070 C1076 0.949 . S
C1071 H1066 0.950 . S
C1071 C1073 1.327 . S
C1071 C1077 1.429 . S
C1072 C1064 1.574 . S
C1072 H1067 0.949 . S
C1072 C1078 1.368 . S
C1073 C1057 1.349 . S
C1073 H1065 0.950 . S
C1073 C1071 1.327 . S
C1074 C1062 1.349 . S
C1074 H1068 0.949 1_556 S
C1074 C1075 1.327 . S
C1075 H1069 0.950 . S
C1075 C1074 1.327 . S
C1075 C1079 1.429 . S
C1076 C1059 1.574 . S
C1076 H1070 0.949 . S
C1076 C1080 1.368 . S
C1077 C1058 1.429 . S
C1077 C1071 1.429 . S
C1077 C1078 1.523 . S
C1078 C1059 1.368 . S
C1078 C1072 1.368 . S
C1078 C1077 1.523 . S
C1079 C1063 1.429 . S
C1079 C1075 1.429 . S
C1079 C1080 1.523 . S
C1080 C1064 1.368 . S
C1080 C1076 1.368 . S
C1080 C1079 1.523 . S
H1081 C1056 0.950 . S
H1082 C1058 0.950 . S
H1083 C1059 0.949 . S
H1084 C1061 0.950 . S
H1085 C1063 0.950 . S
C1086 C1087 1.349 . S
C1086 C1088 1.327 . S
C1086 H1111 0.950 . S
C1087 C1086 1.349 . S
C1087 C1103 1.349 . S
C1088 C1086 1.327 . S
C1088 C1107 1.429 . S
C1088 H1112 0.950 . S
C1089 C1106 1.574 . S
C1089 C1108 1.368 . S
C1089 H1113 0.949 . S
H1090 C1094 0.949 . S
C1091 C1092 1.349 1_554 S
C1091 C1093 1.342 . S
C1091 H1114 0.950 . S
C1092 C1091 1.349 1_556 S
C1092 C1104 1.349 . S
C1093 C1091 1.342 . S
C1093 C1109 1.385 1_554 S
C1093 H1115 0.982 . S
C1094 H1090 0.949 . S
C1094 C1102 1.574 . S
C1094 C1110 1.368 . S
H1095 C1103 0.950 . S
H1096 C1101 0.950 . S
H1097 C1102 0.949 . S
H1098 C1104 0.950 . S
H1099 C1105 0.950 . S
H1100 C1106 0.949 1_554 S
C1101 H1096 0.950 . S
C1101 C1103 1.327 . S
C1101 C1107 1.429 . S
C1102 C1094 1.574 . S
C1102 H1097 0.949 . S
C1102 C1108 1.368 . S
C1103 C1087 1.349 . S
C1103 H1095 0.950 . S
C1103 C1101 1.327 . S
C1104 C1092 1.349 . S
C1104 H1098 0.950 . S
C1104 C1105 1.327 . S
C1105 H1099 0.950 . S
C1105 C1104 1.327 . S
C1105 C1109 1.429 . S
C1106 C1089 1.574 . S
C1106 H1100 0.949 1_556 S
C1106 C1110 1.368 . S
C1107 C1088 1.429 . S
C1107 C1101 1.429 . S
C1107 C1108 1.523 . S
C1108 C1089 1.368 . S
C1108 C1102 1.368 . S
C1108 C1107 1.523 . S
C1109 C1093 1.385 1_556 S
C1109 C1105 1.429 . S
C1109 C1110 1.523 . S
C1110 C1094 1.368 . S
C1110 C1106 1.368 . S
C1110 C1109 1.523 . S
H1111 C1086 0.950 . S
H1112 C1088 0.950 . S
H1113 C1089 0.949 . S
H1114 C1091 0.950 . S
H1115 C1093 0.982 . S
C1116 C1117 1.349 . S
C1116 C1118 1.327 . S
C1116 H1141 0.950 . S
C1117 C1116 1.349 . S
C1117 C1133 1.349 . S
C1118 C1116 1.327 . S
C1118 C1137 1.429 . S
C1118 H1142 0.950 . S
C1119 C1136 1.574 . S
C1119 C1138 1.368 . S
C1119 H1143 0.949 . S
H1120 C1124 0.949 . S
C1121 C1122 1.349 . S
C1121 C1123 1.327 . S
C1121 H1144 0.950 . S
C1122 C1121 1.349 . S
C1122 C1134 1.349 . S
C1123 C1121 1.327 . S
C1123 C1139 1.429 . S
C1123 H1145 0.950 . S
C1124 H1120 0.949 . S
C1124 C1132 1.574 . S
C1124 C1140 1.368 . S
H1125 C1133 0.950 . S
H1126 C1131 0.950 . S
H1127 C1132 0.949 . S
H1128 C1134 0.950 . S
H1129 C1135 0.950 . S
H1130 C1136 0.949 . S
C1131 H1126 0.950 . S
C1131 C1133 1.327 . S
C1131 C1137 1.429 . S
C1132 C1124 1.574 . S
C1132 H1127 0.949 . S
C1132 C1138 1.368 . S
C1133 C1117 1.349 . S
C1133 H1125 0.950 . S
C1133 C1131 1.327 . S
C1134 C1122 1.349 . S
C1134 H1128 0.950 . S
C1134 C1135 1.327 . S
C1135 H1129 0.950 . S
C1135 C1134 1.327 . S
C1135 C1139 1.429 . S
C1136 C1119 1.574 . S
C1136 H1130 0.949 . S
C1136 C1140 1.368 . S
C1137 C1118 1.429 . S
C1137 C1131 1.429 . S
C1137 C1138 1.523 . S
C1138 C1119 1.368 . S
C1138 C1132 1.368 . S
C1138 C1137 1.523 . S
C1139 C1123 1.429 . S
C1139 C1135 1.429 . S
C1139 C1140 1.523 . S
C1140 C1124 1.368 . S
C1140 C1136 1.368 . S
C1140 C1139 1.523 . S
H1141 C1116 0.950 . S
H1142 C1118 0.950 . S
H1143 C1119 0.949 . S
H1144 C1121 0.950 . S
H1145 C1123 0.950 . S
C1146 C1147 1.349 . S
C1146 C1148 1.327 . S
C1146 H1171 0.950 . S
C1147 C1146 1.349 . S
C1147 C1163 1.349 . S
C1148 C1146 1.327 . S
C1148 C1167 1.429 . S
C1148 H1172 0.950 . S
C1149 C1166 1.574 . S
C1149 C1168 1.368 . S
C1149 H1173 0.949 . S
H1150 C1154 0.949 . S
C1151 C1152 1.349 . S
C1151 C1153 1.327 . S
C1151 H1174 0.950 . S
C1152 C1151 1.349 . S
C1152 C1164 1.349 . S
C1153 C1151 1.327 . S
C1153 C1169 1.429 . S
C1153 H1175 0.950 . S
C1154 H1150 0.949 . S
C1154 C1162 1.574 . S
C1154 C1170 1.368 . S
H1155 C1163 0.950 . S
H1156 C1161 0.950 . S
H1157 C1162 0.949 . S
H1158 C1164 0.950 . S
H1159 C1165 0.950 . S
H1160 C1166 0.949 . S
C1161 H1156 0.950 . S
C1161 C1163 1.327 . S
C1161 C1167 1.429 . S
C1162 C1154 1.574 . S
C1162 H1157 0.949 . S
C1162 C1168 1.368 . S
C1163 C1147 1.349 . S
C1163 H1155 0.950 . S
C1163 C1161 1.327 . S
C1164 C1152 1.349 . S
C1164 H1158 0.950 . S
C1164 C1165 1.327 . S
C1165 H1159 0.950 . S
C1165 C1164 1.327 . S
C1165 C1169 1.429 . S
C1166 C1149 1.574 . S
C1166 H1160 0.949 . S
C1166 C1170 1.368 . S
C1167 C1148 1.429 . S
C1167 C1161 1.429 . S
C1167 C1168 1.523 . S
C1168 C1149 1.368 . S
C1168 C1162 1.368 . S
C1168 C1167 1.523 . S
C1169 C1153 1.429 . S
C1169 C1165 1.429 . S
C1169 C1170 1.523 . S
C1170 C1154 1.368 . S
C1170 C1166 1.368 . S
C1170 C1169 1.523 . S
H1171 C1146 0.950 . S
H1172 C1148 0.950 . S
H1173 C1149 0.949 . S
H1174 C1151 0.950 . S
H1175 C1153 0.950 . S
C1176 C1177 1.349 . S
C1176 C1178 1.327 . S
C1176 H1201 0.950 . S
C1177 C1176 1.349 . S
C1177 C1193 1.349 . S
C1178 C1176 1.327 . S
C1178 C1197 1.429 . S
C1178 H1202 0.950 . S
C1179 C1196 1.574 . S
C1179 C1198 1.368 . S
C1179 H1203 0.949 . S
H1180 C1184 0.949 . S
C1181 C1182 1.349 1_554 S
C1181 C1183 1.323 1_554 S
C1181 H1204 0.950 . S
C1182 C1181 1.349 1_556 S
C1182 C1194 1.349 . S
C1183 C1181 1.323 1_556 S
C1183 C1199 1.471 . S
C1183 H1205 0.912 1_556 S
C1184 H1180 0.949 . S
C1184 C1192 1.574 . S
C1184 C1200 1.368 . S
H1185 C1193 0.950 . S
H1186 C1191 0.950 . S
H1187 C1192 0.949 . S
H1188 C1194 0.950 . S
H1189 C1195 0.950 . S
H1190 C1196 0.949 1_554 S
C1191 H1186 0.950 . S
C1191 C1193 1.327 . S
C1191 C1197 1.429 . S
C1192 C1184 1.574 . S
C1192 H1187 0.949 . S
C1192 C1198 1.368 . S
C1193 C1177 1.349 . S
C1193 H1185 0.950 . S
C1193 C1191 1.327 . S
C1194 C1182 1.349 . S
C1194 H1188 0.950 . S
C1194 C1195 1.327 . S
C1195 H1189 0.950 . S
C1195 C1194 1.327 . S
C1195 C1199 1.429 . S
C1196 C1179 1.574 . S
C1196 H1190 0.949 1_556 S
C1196 C1200 1.368 . S
C1197 C1178 1.429 . S
C1197 C1191 1.429 . S
C1197 C1198 1.523 . S
C1198 C1179 1.368 . S
C1198 C1192 1.368 . S
C1198 C1197 1.523 . S
C1199 C1183 1.471 . S
C1199 C1195 1.429 . S
C1199 C1200 1.523 . S
C1200 C1184 1.368 . S
C1200 C1196 1.368 . S
C1200 C1199 1.523 . S
H1201 C1176 0.950 . S
H1202 C1178 0.950 . S
H1203 C1179 0.949 . S
H1204 C1181 0.950 . S
H1205 C1183 0.912 1_554 S
C1206 C1207 1.349 . S
C1206 C1208 1.327 . S
C1206 H1231 0.950 . S
C1207 C1206 1.349 . S
C1207 C1223 1.349 . S
C1208 C1206 1.327 . S
C1208 C1227 1.429 . S
C1208 H1232 0.950 . S
C1209 C1226 1.574 . S
C1209 C1228 1.368 . S
C1209 H1233 0.949 . S
H1210 C1214 0.949 . S
C1211 C1212 1.349 . S
C1211 C1213 1.327 . S
C1211 H1234 0.950 . S
C1212 C1211 1.349 . S
C1212 C1224 1.349 . S
C1213 C1211 1.327 . S
C1213 C1229 1.429 . S
C1213 H1235 0.950 . S
C1214 H1210 0.949 . S
C1214 C1222 1.574 . S
C1214 C1230 1.368 . S
H1215 C1223 0.950 . S
H1216 C1221 0.950 . S
H1217 C1222 0.949 . S
H1218 C1224 0.943 . S
H1219 C1225 0.950 . S
H1220 C1226 0.949 . S
C1221 H1216 0.950 . S
C1221 C1223 1.327 . S
C1221 C1227 1.429 . S
C1222 C1214 1.574 . S
C1222 H1217 0.949 . S
C1222 C1228 1.368 . S
C1223 C1207 1.349 . S
C1223 H1215 0.950 . S
C1223 C1221 1.327 . S
C1224 C1212 1.349 . S
C1224 H1218 0.943 . S
C1224 C1225 1.327 . S
C1225 H1219 0.950 . S
C1225 C1224 1.327 . S
C1225 C1229 1.429 . S
C1226 C1209 1.574 . S
C1226 H1220 0.949 . S
C1226 C1230 1.368 . S
C1227 C1208 1.429 . S
C1227 C1221 1.429 . S
C1227 C1228 1.523 . S
C1228 C1209 1.368 . S
C1228 C1222 1.368 . S
C1228 C1227 1.523 . S
C1229 C1213 1.429 . S
C1229 C1225 1.429 . S
C1229 C1230 1.523 . S
C1230 C1214 1.368 . S
C1230 C1226 1.368 . S
C1230 C1229 1.523 . S
H1231 C1206 0.950 . S
H1232 C1208 0.950 . S
H1233 C1209 0.949 . S
H1234 C1211 0.950 . S
H1235 C1213 0.950 . S
C1236 C1237 1.349 . S
C1236 C1238 1.327 . S
C1236 H1261 0.950 . S
C1237 C1236 1.349 . S
C1237 C1253 1.349 . S
C1238 C1236 1.327 . S
C1238 C1257 1.429 . S
C1238 H1262 0.950 . S
C1239 C1256 1.574 . S
C1239 C1258 1.368 . S
C1239 H1263 0.949 . S
H1240 C1244 0.949 . S
C1241 C1242 1.349 . S
C1241 C1243 1.327 . S
C1241 H1264 0.950 . S
C1242 C1241 1.349 . S
C1242 C1254 1.349 . S
C1243 C1241 1.327 . S
C1243 C1259 1.429 . S
C1243 H1265 0.950 . S
C1244 H1240 0.949 . S
C1244 C1252 1.574 . S
C1244 C1260 1.368 . S
H1245 C1253 0.950 . S
H1246 C1251 0.950 . S
H1247 C1252 0.949 . S
H1248 C1254 0.950 . S
H1249 C1255 0.950 . S
H1250 C1256 0.949 . S
C1251 H1246 0.950 . S
C1251 C1253 1.327 . S
C1251 C1257 1.429 . S
C1252 C1244 1.574 . S
C1252 H1247 0.949 . S
C1252 C1258 1.368 . S
C1253 C1237 1.349 . S
C1253 H1245 0.950 . S
C1253 C1251 1.327 . S
C1254 C1242 1.349 . S
C1254 H1248 0.950 . S
C1254 C1255 1.327 . S
C1255 H1249 0.950 . S
C1255 C1254 1.327 . S
C1255 C1259 1.429 . S
C1256 C1239 1.574 . S
C1256 H1250 0.949 . S
C1256 C1260 1.368 . S
C1257 C1238 1.429 . S
C1257 C1251 1.429 . S
C1257 C1258 1.523 . S
C1258 C1239 1.368 . S
C1258 C1252 1.368 . S
C1258 C1257 1.523 . S
C1259 C1243 1.429 . S
C1259 C1255 1.429 . S
C1259 C1260 1.523 . S
C1260 C1244 1.368 . S
C1260 C1256 1.368 . S
C1260 C1259 1.523 . S
H1261 C1236 0.950 . S
H1262 C1238 0.950 . S
H1263 C1239 0.949 . S
H1264 C1241 0.950 . S
H1265 C1243 0.950 . S
C1266 C1267 1.349 . S
C1266 C1268 1.327 . S
C1266 H1291 0.950 . S
C1267 C1266 1.349 . S
C1267 C1283 1.349 . S
C1268 C1266 1.327 . S
C1268 C1287 1.429 . S
C1268 H1292 0.950 . S
C1269 C1286 1.574 . S
C1269 C1288 1.368 . S
C1269 H1293 0.949 . S
H1270 C1274 0.949 . S
C1271 C1272 1.349 . S
C1271 C1273 1.327 . S
C1271 H1294 0.950 1_554 S
C1272 C1271 1.349 . S
C1272 C1284 1.349 . S
C1273 C1271 1.327 . S
C1273 C1289 1.429 . S
C1273 H1295 0.954 . S
C1274 H1270 0.949 . S
C1274 C1282 1.574 . S
C1274 C1290 1.368 . S
H1275 C1283 0.950 . S
H1276 C1281 0.950 . S
H1277 C1282 0.949 . S
H1278 C1284 0.950 . S
H1279 C1285 0.950 . S
H1280 C1286 0.949 . S
C1281 H1276 0.950 . S
C1281 C1283 1.327 . S
C1281 C1287 1.429 . S
C1282 C1274 1.574 . S
C1282 H1277 0.949 . S
C1282 C1288 1.368 . S
C1283 C1267 1.349 . S
C1283 H1275 0.950 . S
C1283 C1281 1.327 . S
C1284 C1272 1.349 . S
C1284 H1278 0.950 . S
C1284 C1285 1.327 . S
C1285 H1279 0.950 . S
C1285 C1284 1.327 . S
C1285 C1289 1.429 . S
C1286 C1269 1.574 . S
C1286 H1280 0.949 . S
C1286 C1290 1.368 . S
C1287 C1268 1.429 . S
C1287 C1281 1.429 . S
C1287 C1288 1.523 . S
C1288 C1269 1.368 . S
C1288 C1282 1.368 . S
C1288 C1287 1.523 . S
C1289 C1273 1.429 . S
C1289 C1285 1.429 . S
C1289 C1290 1.523 . S
C1290 C1274 1.368 . S
C1290 C1286 1.368 . S
C1290 C1289 1.523 . S
H1291 C1266 0.950 . S
H1292 C1268 0.950 . S
H1293 C1269 0.949 . S
H1294 C1271 0.950 1_556 S
H1295 C1273 0.954 . S
C1296 C1297 1.349 . S
C1296 C1298 1.327 . S
C1296 H1321 0.950 . S
C1297 C1296 1.349 . S
C1297 C1313 1.349 . S
C1298 C1296 1.327 . S
C1298 C1317 1.429 . S
C1298 H1322 0.950 . S
C1299 C1316 1.574 . S
C1299 C1318 1.368 . S
C1299 H1323 0.949 1_455 S
H1300 C1304 0.949 . S
C1301 C1302 1.349 . S
C1301 C1303 1.327 . S
C1301 H1324 0.950 . S
C1302 C1301 1.349 . S
C1302 C1314 1.349 . S
C1303 C1301 1.327 . S
C1303 C1319 1.429 . S
C1303 H1325 0.950 . S
C1304 H1300 0.949 . S
C1304 C1312 1.574 . S
C1304 C1320 1.368 . S
H1305 C1313 0.950 . S
H1306 C1311 0.950 . S
H1307 C1312 0.949 . S
H1308 C1314 0.950 . S
H1309 C1315 0.950 . S
H1310 C1316 0.949 . S
C1311 H1306 0.950 . S
C1311 C1313 1.327 . S
C1311 C1317 1.429 . S
C1312 C1304 1.574 . S
C1312 H1307 0.949 . S
C1312 C1318 1.368 . S
C1313 C1297 1.349 . S
C1313 H1305 0.950 . S
C1313 C1311 1.327 . S
C1314 C1302 1.349 . S
C1314 H1308 0.950 . S
C1314 C1315 1.327 . S
C1315 H1309 0.950 . S
C1315 C1314 1.327 . S
C1315 C1319 1.429 . S
C1316 C1299 1.574 . S
C1316 H1310 0.949 . S
C1316 C1320 1.368 . S
C1317 C1298 1.429 . S
C1317 C1311 1.429 . S
C1317 C1318 1.523 1_655 S
C1318 C1299 1.368 . S
C1318 C1312 1.368 . S
C1318 C1317 1.523 1_455 S
C1319 C1303 1.429 . S
C1319 C1315 1.429 . S
C1319 C1320 1.523 . S
C1320 C1304 1.368 . S
C1320 C1316 1.368 . S
C1320 C1319 1.523 . S
H1321 C1296 0.950 . S
H1322 C1298 0.950 . S
H1323 C1299 0.949 1_655 S
H1324 C1301 0.950 . S
H1325 C1303 0.950 . S
C1326 C1327 1.349 . S
C1326 C1328 1.327 . S
C1326 H1351 0.950 . S
C1327 C1326 1.349 . S
C1327 C1343 1.349 . S
C1328 C1326 1.327 . S
C1328 C1347 1.429 . S
C1328 H1352 0.950 . S
C1329 C1346 1.574 . S
C1329 C1348 1.368 . S
C1329 H1353 0.949 . S
H1330 C1334 0.949 . S
C1331 C1332 1.349 . S
C1331 C1333 1.327 . S
C1331 H1354 0.950 . S
C1332 C1331 1.349 . S
C1332 C1344 1.349 . S
C1333 C1331 1.327 . S
C1333 C1349 1.429 . S
C1333 H1355 0.950 . S
C1334 H1330 0.949 . S
C1334 C1342 1.574 . S
C1334 C1350 1.368 . S
H1335 C1343 0.950 . S
H1336 C1341 0.950 . S
H1337 C1342 0.949 . S
H1338 C1344 0.950 . S
H1339 C1345 0.950 . S
H1340 C1346 0.949 . S
C1341 H1336 0.950 . S
C1341 C1343 1.327 . S
C1341 C1347 1.429 . S
C1342 C1334 1.574 . S
C1342 H1337 0.949 . S
C1342 C1348 1.368 . S
C1343 C1327 1.349 . S
C1343 H1335 0.950 . S
C1343 C1341 1.327 . S
C1344 C1332 1.349 . S
C1344 H1338 0.950 . S
C1344 C1345 1.327 . S
C1345 H1339 0.950 . S
C1345 C1344 1.327 . S
C1345 C1349 1.429 . S
C1346 C1329 1.574 . S
C1346 H1340 0.949 . S
C1346 C1350 1.368 . S
C1347 C1328 1.429 . S
C1347 C1341 1.429 . S
C1347 C1348 1.523 . S
C1348 C1329 1.368 . S
C1348 C1342 1.368 . S
C1348 C1347 1.523 . S
C1349 C1333 1.429 . S
C1349 C1345 1.429 . S
C1349 C1350 1.523 . S
C1350 C1334 1.368 . S
C1350 C1346 1.368 . S
C1350 C1349 1.523 . S
H1351 C1326 0.950 . S
H1352 C1328 0.950 . S
H1353 C1329 0.949 . S
H1354 C1331 0.950 . S
H1355 C1333 0.950 . S
C1356 C1357 1.349 . S
C1356 C1358 1.327 . S
C1356 H1381 0.950 . S
C1357 C1356 1.349 . S
C1357 C1373 1.349 . S
C1358 C1356 1.327 . S
C1358 C1377 1.429 . S
C1358 H1382 0.950 . S
C1359 C1376 1.574 1_545 S
C1359 C1378 1.368 . S
C1359 H1383 0.949 . S
H1360 C1364 0.949 . S
C1361 C1362 1.349 . S
C1361 C1363 1.327 . S
C1361 H1384 0.950 . S
C1362 C1361 1.349 . S
C1362 C1374 1.349 . S
C1363 C1361 1.327 . S
C1363 C1379 1.429 . S
C1363 H1385 0.950 . S
C1364 H1360 0.949 . S
C1364 C1372 1.574 . S
C1364 C1380 1.368 . S
H1365 C1373 0.950 . S
H1366 C1371 0.950 . S
H1367 C1372 0.949 1_545 S
H1368 C1374 0.950 . S
H1369 C1375 0.950 . S
H1370 C1376 0.949 . S
C1371 H1366 0.950 . S
C1371 C1373 1.327 . S
C1371 C1377 1.429 . S
C1372 C1364 1.574 . S
C1372 H1367 0.949 1_565 S
C1372 C1378 1.368 1_565 S
C1373 C1357 1.349 . S
C1373 H1365 0.950 . S
C1373 C1371 1.327 . S
C1374 C1362 1.349 . S
C1374 H1368 0.950 . S
C1374 C1375 1.327 . S
C1375 H1369 0.950 . S
C1375 C1374 1.327 . S
C1375 C1379 1.429 . S
C1376 C1359 1.574 1_565 S
C1376 H1370 0.949 . S
C1376 C1380 1.368 . S
C1377 C1358 1.429 . S
C1377 C1371 1.429 . S
C1377 C1378 1.523 . S
C1378 C1359 1.368 . S
C1378 C1372 1.368 1_545 S
C1378 C1377 1.523 . S
C1379 C1363 1.429 . S
C1379 C1375 1.429 . S
C1379 C1380 1.523 . S
C1380 C1364 1.368 . S
C1380 C1376 1.368 . S
C1380 C1379 1.523 . S
H1381 C1356 0.950 . S
H1382 C1358 0.950 . S
H1383 C1359 0.949 . S
H1384 C1361 0.950 . S
H1385 C1363 0.950 . S
C1386 C1387 1.349 . S
C1386 C1388 1.327 . S
C1386 H1411 0.950 . S
C1387 C1386 1.349 . S
C1387 C1403 1.349 . S
C1388 C1386 1.327 . S
C1388 C1407 1.429 . S
C1388 H1412 0.950 . S
C1389 C1406 1.574 . S
C1389 C1408 1.368 . S
C1389 H1413 0.949 . S
H1390 C1394 0.949 . S
C1391 C1392 1.349 . S
C1391 C1393 1.327 . S
C1391 H1414 0.950 . S
C1392 C1391 1.349 . S
C1392 C1404 1.349 . S
C1393 C1391 1.327 . S
C1393 C1409 1.429 . S
C1393 H1415 0.950 . S
C1394 H1390 0.949 . S
C1394 C1402 1.574 . S
C1394 C1410 1.368 . S
H1395 C1403 0.950 . S
H1396 C1401 0.950 . S
H1397 C1402 0.949 . S
H1398 C1404 0.950 . S
H1399 C1405 0.950 . S
H1400 C1406 0.949 . S
C1401 H1396 0.950 . S
C1401 C1403 1.327 . S
C1401 C1407 1.429 . S
C1402 C1394 1.574 . S
C1402 H1397 0.949 . S
C1402 C1408 1.368 . S
C1403 C1387 1.349 . S
C1403 H1395 0.950 . S
C1403 C1401 1.327 . S
C1404 C1392 1.349 . S
C1404 H1398 0.950 . S
C1404 C1405 1.327 . S
C1405 H1399 0.950 . S
C1405 C1404 1.327 . S
C1405 C1409 1.429 . S
C1406 C1389 1.574 . S
C1406 H1400 0.949 . S
C1406 C1410 1.368 . S
C1407 C1388 1.429 . S
C1407 C1401 1.429 . S
C1407 C1408 1.523 . S
C1408 C1389 1.368 . S
C1408 C1402 1.368 . S
C1408 C1407 1.523 . S
C1409 C1393 1.429 . S
C1409 C1405 1.429 . S
C1409 C1410 1.523 . S
C1410 C1394 1.368 . S
C1410 C1406 1.368 . S
C1410 C1409 1.523 . S
H1411 C1386 0.950 . S
H1412 C1388 0.950 . S
H1413 C1389 0.949 . S
H1414 C1391 0.950 . S
H1415 C1393 0.950 . S
C1416 C1417 1.349 . S
C1416 C1418 1.327 . S
C1416 H1441 0.950 . S
C1417 C1416 1.349 . S
C1417 C1433 1.349 . S
C1418 C1416 1.327 . S
C1418 C1437 1.429 . S
C1418 H1442 0.950 . S
C1419 C1436 1.574 . S
C1419 C1438 1.368 . S
C1419 H1443 0.949 . S
H1420 C1424 0.949 . S
C1421 C1422 1.349 . S
C1421 C1423 1.327 . S
C1421 H1444 0.950 . S
C1422 C1421 1.349 . S
C1422 C1434 1.349 . S
C1423 C1421 1.327 . S
C1423 C1439 1.429 . S
C1423 H1445 0.950 . S
C1424 H1420 0.949 . S
C1424 C1432 1.574 . S
C1424 C1440 1.368 . S
H1425 C1433 0.950 . S
H1426 C1431 0.950 . S
H1427 C1432 0.949 . S
H1428 C1434 0.950 . S
H1429 C1435 0.950 . S
H1430 C1436 0.949 . S
C1431 H1426 0.950 . S
C1431 C1433 1.327 . S
C1431 C1437 1.429 . S
C1432 C1424 1.574 . S
C1432 H1427 0.949 . S
C1432 C1438 1.368 . S
C1433 C1417 1.349 . S
C1433 H1425 0.950 . S
C1433 C1431 1.327 . S
C1434 C1422 1.349 . S
C1434 H1428 0.950 . S
C1434 C1435 1.327 . S
C1435 H1429 0.950 . S
C1435 C1434 1.327 . S
C1435 C1439 1.429 . S
C1436 C1419 1.574 . S
C1436 H1430 0.949 . S
C1436 C1440 1.368 . S
C1437 C1418 1.429 . S
C1437 C1431 1.429 . S
C1437 C1438 1.523 . S
C1438 C1419 1.368 . S
C1438 C1432 1.368 . S
C1438 C1437 1.523 . S
C1439 C1423 1.429 . S
C1439 C1435 1.429 . S
C1439 C1440 1.523 . S
C1440 C1424 1.368 . S
C1440 C1436 1.368 . S
C1440 C1439 1.523 . S
H1441 C1416 0.950 . S
H1442 C1418 0.950 . S
H1443 C1419 0.949 . S
H1444 C1421 0.950 . S
H1445 C1423 0.950 . S
C1446 C1447 1.349 . S
C1446 C1448 1.327 . S
C1446 H1471 0.950 . S
C1447 C1446 1.349 . S
C1447 C1463 1.349 . S
C1448 C1446 1.327 . S
C1448 C1467 1.429 . S
C1448 H1472 0.950 . S
C1449 C1466 1.574 . S
C1449 C1468 1.368 . S
C1449 H1473 0.949 . S
H1450 C1454 0.949 . S
C1451 C1452 1.349 . S
C1451 C1453 1.327 . S
C1451 H1474 0.950 . S
C1452 C1451 1.349 . S
C1452 C1464 1.349 . S
C1453 C1451 1.327 . S
C1453 C1469 1.429 . S
C1453 H1475 0.950 . S
C1454 H1450 0.949 . S
C1454 C1462 1.574 . S
C1454 C1470 1.368 . S
H1455 C1463 0.950 . S
H1456 C1461 0.950 . S
H1457 C1462 0.949 . S
H1458 C1464 0.950 . S
H1459 C1465 0.950 . S
H1460 C1466 0.949 . S
C1461 H1456 0.950 . S
C1461 C1463 1.327 . S
C1461 C1467 1.429 . S
C1462 C1454 1.574 . S
C1462 H1457 0.949 . S
C1462 C1468 1.368 . S
C1463 C1447 1.349 . S
C1463 H1455 0.950 . S
C1463 C1461 1.327 . S
C1464 C1452 1.349 . S
C1464 H1458 0.950 . S
C1464 C1465 1.327 . S
C1465 H1459 0.950 . S
C1465 C1464 1.327 . S
C1465 C1469 1.429 . S
C1466 C1449 1.574 . S
C1466 H1460 0.949 . S
C1466 C1470 1.368 . S
C1467 C1448 1.429 . S
C1467 C1461 1.429 . S
C1467 C1468 1.523 . S
C1468 C1449 1.368 . S
C1468 C1462 1.368 . S
C1468 C1467 1.523 . S
C1469 C1453 1.429 . S
C1469 C1465 1.429 . S
C1469 C1470 1.523 . S
C1470 C1454 1.368 . S
C1470 C1466 1.368 . S
C1470 C1469 1.523 . S
H1471 C1446 0.950 . S
H1472 C1448 0.950 . S
H1473 C1449 0.949 . S
H1474 C1451 0.950 . S
H1475 C1453 0.950 . S
C1476 C1477 1.349 . S
C1476 C1478 1.327 . S
C1476 H1501 0.950 . S
C1477 C1476 1.349 . S
C1477 C1493 1.349 . S
C1478 C1476 1.327 . S
C1478 C1497 1.429 . S
C1478 H1502 0.950 . S
C1479 C1496 1.574 . S
C1479 C1498 1.368 . S
C1479 H1503 0.949 . S
H1480 C1484 0.949 . S
C1481 C1482 1.349 . S
C1481 C1483 1.327 . S
C1481 H1504 0.950 . S
C1482 C1481 1.349 . S
C1482 C1494 1.349 . S
C1483 C1481 1.327 . S
C1483 C1499 1.429 . S
C1483 H1505 0.950 . S
C1484 H1480 0.949 . S
C1484 C1492 1.574 . S
C1484 C1500 1.368 . S
H1485 C1493 0.950 . S
H1486 C1491 0.950 . S
H1487 C1492 0.949 . S
H1488 C1494 0.950 . S
H1489 C1495 0.950 . S
H1490 C1496 0.949 . S
C1491 H1486 0.950 . S
C1491 C1493 1.327 . S
C1491 C1497 1.429 . S
C1492 C1484 1.574 . S
C1492 H1487 0.949 . S
C1492 C1498 1.368 . S
C1493 C1477 1.349 . S
C1493 H1485 0.950 . S
C1493 C1491 1.327 . S
C1494 C1482 1.349 . S
C1494 H1488 0.950 . S
C1494 C1495 1.327 . S
C1495 H1489 0.950 . S
C1495 C1494 1.327 . S
C1495 C1499 1.429 . S
C1496 C1479 1.574 . S
C1496 H1490 0.949 . S
C1496 C1500 1.368 . S
C1497 C1478 1.429 . S
C1497 C1491 1.429 . S
C1497 C1498 1.523 . S
C1498 C1479 1.368 . S
C1498 C1492 1.368 . S
C1498 C1497 1.523 . S
C1499 C1483 1.429 . S
C1499 C1495 1.429 . S
C1499 C1500 1.523 . S
C1500 C1484 1.368 . S
C1500 C1496 1.368 . S
C1500 C1499 1.523 . S
H1501 C1476 0.950 . S
H1502 C1478 0.950 . S
H1503 C1479 0.949 . S
H1504 C1481 0.950 . S
H1505 C1483 0.950 . S
C1506 C1507 1.349 . S
C1506 C1508 1.327 . S
C1506 H1531 0.950 . S
C1507 C1506 1.349 . S
C1507 C1523 1.349 . S
C1508 C1506 1.327 . S
C1508 C1527 1.429 . S
C1508 H1532 0.950 . S
C1509 C1526 1.574 . S
C1509 C1528 1.368 . S
C1509 H1533 0.949 . S
H1510 C1514 0.949 . S
C1511 C1512 1.349 . S
C1511 C1513 1.327 . S
C1511 H1534 0.950 . S
C1512 C1511 1.349 . S
C1512 C1524 1.349 . S
C1513 C1511 1.327 . S
C1513 C1529 1.429 . S
C1513 H1535 0.950 . S
C1514 H1510 0.949 . S
C1514 C1522 1.574 . S
C1514 C1530 1.368 . S
H1515 C1523 0.950 . S
H1516 C1521 0.950 . S
H1517 C1522 0.949 . S
H1518 C1524 0.950 . S
H1519 C1525 0.950 . S
H1520 C1526 0.949 . S
C1521 H1516 0.950 . S
C1521 C1523 1.327 . S
C1521 C1527 1.429 . S
C1522 C1514 1.574 . S
C1522 H1517 0.949 . S
C1522 C1528 1.368 . S
C1523 C1507 1.349 . S
C1523 H1515 0.950 . S
C1523 C1521 1.327 . S
C1524 C1512 1.349 . S
C1524 H1518 0.950 . S
C1524 C1525 1.327 . S
C1525 H1519 0.950 . S
C1525 C1524 1.327 . S
C1525 C1529 1.429 . S
C1526 C1509 1.574 . S
C1526 H1520 0.949 . S
C1526 C1530 1.368 . S
C1527 C1508 1.429 . S
C1527 C1521 1.429 . S
C1527 C1528 1.523 . S
C1528 C1509 1.368 . S
C1528 C1522 1.368 . S
C1528 C1527 1.523 . S
C1529 C1513 1.429 . S
C1529 C1525 1.429 . S
C1529 C1530 1.523 . S
C1530 C1514 1.368 . S
C1530 C1526 1.368 . S
C1530 C1529 1.523 . S
H1531 C1506 0.950 . S
H1532 C1508 0.950 . S
H1533 C1509 0.949 . S
H1534 C1511 0.950 . S
H1535 C1513 0.950 . S
C1536 C1537 1.349 . S
C1536 C1538 1.327 . S
C1536 H1561 0.950 . S
C1537 C1536 1.349 . S
C1537 C1553 1.349 . S
C1538 C1536 1.327 . S
C1538 C1557 1.429 . S
C1538 H1562 0.950 . S
C1539 C1556 1.574 . S
C1539 C1558 1.368 . S
C1539 H1563 0.949 . S
H1540 C1544 0.949 . S
C1541 C1542 1.349 . S
C1541 C1543 1.327 . S
C1541 H1564 0.950 . S
C1542 C1541 1.349 . S
C1542 C1554 1.349 . S
C1543 C1541 1.327 . S
C1543 C1559 1.429 . S
C1543 H1565 0.950 . S
C1544 H1540 0.949 . S
C1544 C1552 1.574 . S
C1544 C1560 1.368 . S
H1545 C1553 0.950 . S
H1546 C1551 0.950 . S
H1547 C1552 0.949 . S
H1548 C1554 0.950 . S
H1549 C1555 0.950 . S
H1550 C1556 0.949 . S
C1551 H1546 0.950 . S
C1551 C1553 1.327 . S
C1551 C1557 1.429 . S
C1552 C1544 1.574 . S
C1552 H1547 0.949 . S
C1552 C1558 1.368 . S
C1553 C1537 1.349 . S
C1553 H1545 0.950 . S
C1553 C1551 1.327 . S
C1554 C1542 1.349 . S
C1554 H1548 0.950 . S
C1554 C1555 1.327 . S
C1555 H1549 0.950 . S
C1555 C1554 1.327 . S
C1555 C1559 1.429 . S
C1556 C1539 1.574 . S
C1556 H1550 0.949 . S
C1556 C1560 1.368 . S
C1557 C1538 1.429 . S
C1557 C1551 1.429 . S
C1557 C1558 1.523 . S
C1558 C1539 1.368 . S
C1558 C1552 1.368 . S
C1558 C1557 1.523 . S
C1559 C1543 1.429 . S
C1559 C1555 1.429 . S
C1559 C1560 1.523 . S
C1560 C1544 1.368 . S
C1560 C1556 1.368 . S
C1560 C1559 1.523 . S
H1561 C1536 0.950 . S
H1562 C1538 0.950 . S
H1563 C1539 0.949 . S
H1564 C1541 0.950 . S
H1565 C1543 0.950 . S
C1566 C1567 1.349 . S
C1566 C1568 1.327 . S
C1566 H1591 0.950 . S
C1567 C1566 1.349 . S
C1567 C1583 1.349 . S
C1568 C1566 1.327 . S
C1568 C1587 1.429 . S
C1568 H1592 0.950 . S
C1569 C1586 1.574 . S
C1569 C1588 1.368 1_565 S
C1569 H1593 0.949 1_565 S
H1570 C1574 0.949 . S
C1571 C1572 1.349 . S
C1571 C1573 1.327 . S
C1571 H1594 0.950 . S
C1572 C1571 1.349 . S
C1572 C1584 1.349 . S
C1573 C1571 1.327 . S
C1573 C1589 1.429 . S
C1573 H1595 0.950 . S
C1574 H1570 0.949 . S
C1574 C1582 1.574 . S
C1574 C1590 1.368 . S
H1575 C1583 0.950 . S
H1576 C1581 0.950 . S
H1577 C1582 0.949 1_545 S
H1578 C1584 0.950 . S
H1579 C1585 0.950 . S
H1580 C1586 0.949 . S
C1581 H1576 0.950 . S
C1581 C1583 1.327 . S
C1581 C1587 1.429 . S
C1582 C1574 1.574 . S
C1582 H1577 0.949 1_565 S
C1582 C1588 1.368 1_565 S
C1583 C1567 1.349 . S
C1583 H1575 0.950 . S
C1583 C1581 1.327 . S
C1584 C1572 1.349 . S
C1584 H1578 0.950 . S
C1584 C1585 1.327 . S
C1585 H1579 0.950 . S
C1585 C1584 1.327 . S
C1585 C1589 1.429 . S
C1586 C1569 1.574 . S
C1586 H1580 0.949 . S
C1586 C1590 1.368 . S
C1587 C1568 1.429 . S
C1587 C1581 1.429 . S
C1587 C1588 1.523 . S
C1588 C1569 1.368 1_545 S
C1588 C1582 1.368 1_545 S
C1588 C1587 1.523 . S
C1589 C1573 1.429 . S
C1589 C1585 1.429 . S
C1589 C1590 1.523 . S
C1590 C1574 1.368 . S
C1590 C1586 1.368 . S
C1590 C1589 1.523 . S
H1591 C1566 0.950 . S
H1592 C1568 0.950 . S
H1593 C1569 0.949 1_545 S
H1594 C1571 0.950 . S
H1595 C1573 0.950 . S
C1596 C1597 1.349 . S
C1596 C1598 1.327 . S
C1596 H1621 0.950 . S
C1597 C1596 1.349 . S
C1597 C1613 1.349 . S
C1598 C1596 1.327 . S
C1598 C1617 1.429 . S
C1598 H1622 0.950 . S
C1599 C1616 1.574 . S
C1599 C1618 1.368 . S
C1599 H1623 0.949 . S
H1600 C1604 0.949 . S
C1601 C1602 1.349 . S
C1601 C1603 1.327 . S
C1601 H1624 0.950 . S
C1602 C1601 1.349 . S
C1602 C1614 1.349 . S
C1603 C1601 1.327 . S
C1603 C1619 1.429 . S
C1603 H1625 0.950 . S
C1604 H1600 0.949 . S
C1604 C1612 1.574 . S
C1604 C1620 1.368 . S
H1605 C1613 0.950 . S
H1606 C1611 0.950 1_455 S
H1607 C1612 0.949 . S
H1608 C1614 0.950 . S
H1609 C1615 0.950 . S
H1610 C1616 0.949 . S
C1611 H1606 0.950 1_655 S
C1611 C1613 1.327 . S
C1611 C1617 1.429 . S
C1612 C1604 1.574 . S
C1612 H1607 0.949 . S
C1612 C1618 1.368 . S
C1613 C1597 1.349 . S
C1613 H1605 0.950 . S
C1613 C1611 1.327 . S
C1614 C1602 1.349 . S
C1614 H1608 0.950 . S
C1614 C1615 1.327 . S
C1615 H1609 0.950 . S
C1615 C1614 1.327 . S
C1615 C1619 1.429 . S
C1616 C1599 1.574 . S
C1616 H1610 0.949 . S
C1616 C1620 1.368 . S
C1617 C1598 1.429 . S
C1617 C1611 1.429 . S
C1617 C1618 1.523 1_655 S
C1618 C1599 1.368 . S
C1618 C1612 1.368 . S
C1618 C1617 1.523 1_455 S
C1619 C1603 1.429 . S
C1619 C1615 1.429 . S
C1619 C1620 1.523 . S
C1620 C1604 1.368 . S
C1620 C1616 1.368 . S
C1620 C1619 1.523 . S
H1621 C1596 0.950 . S
H1622 C1598 0.950 . S
H1623 C1599 0.949 . S
H1624 C1601 0.950 . S
H1625 C1603 0.950 . S
C1626 C1627 1.349 . S
C1626 C1628 1.327 . S
C1626 H1651 0.950 . S
C1627 C1626 1.349 . S
C1627 C1643 1.349 . S
C1628 C1626 1.327 . S
C1628 C1647 1.429 . S
C1628 H1652 0.950 . S
C1629 C1646 1.574 . S
C1629 C1648 1.368 . S
C1629 H1653 0.949 . S
H1630 C1634 0.949 . S
C1631 C1632 1.349 . S
C1631 C1633 1.327 . S
C1631 H1654 0.950 . S
C1632 C1631 1.349 . S
C1632 C1644 1.349 . S
C1633 C1631 1.327 . S
C1633 C1649 1.429 . S
C1633 H1655 0.950 . S
C1634 H1630 0.949 . S
C1634 C1642 1.574 . S
C1634 C1650 1.368 . S
H1635 C1643 0.950 . S
H1636 C1641 0.950 . S
H1637 C1642 0.949 . S
H1638 C1644 0.950 . S
H1639 C1645 0.950 . S
H1640 C1646 0.949 . S
C1641 H1636 0.950 . S
C1641 C1643 1.327 . S
C1641 C1647 1.429 . S
C1642 C1634 1.574 . S
C1642 H1637 0.949 . S
C1642 C1648 1.368 . S
C1643 C1627 1.349 . S
C1643 H1635 0.950 . S
C1643 C1641 1.327 . S
C1644 C1632 1.349 . S
C1644 H1638 0.950 . S
C1644 C1645 1.327 . S
C1645 H1639 0.950 . S
C1645 C1644 1.327 . S
C1645 C1649 1.429 . S
C1646 C1629 1.574 . S
C1646 H1640 0.949 . S
C1646 C1650 1.368 . S
C1647 C1628 1.429 . S
C1647 C1641 1.429 . S
C1647 C1648 1.523 . S
C1648 C1629 1.368 . S
C1648 C1642 1.368 . S
C1648 C1647 1.523 . S
C1649 C1633 1.429 . S
C1649 C1645 1.429 . S
C1649 C1650 1.523 . S
C1650 C1634 1.368 . S
C1650 C1646 1.368 . S
C1650 C1649 1.523 . S
H1651 C1626 0.950 . S
H1652 C1628 0.950 . S
H1653 C1629 0.949 . S
H1654 C1631 0.950 . S
H1655 C1633 0.950 . S
C1656 C1657 1.349 . S
C1656 C1658 1.327 . S
C1656 H1681 0.950 . S
C1657 C1656 1.349 . S
C1657 C1673 1.349 . S
C1658 C1656 1.327 . S
C1658 C1677 1.429 . S
C1658 H1682 0.950 . S
C1659 C1676 1.574 . S
C1659 C1678 1.368 . S
C1659 H1683 0.949 . S
H1660 C1664 0.949 . S
C1661 C1662 1.349 . S
C1661 C1663 1.327 . S
C1661 H1684 0.950 . S
C1662 C1661 1.349 . S
C1662 C1674 1.349 . S
C1663 C1661 1.327 . S
C1663 C1679 1.429 . S
C1663 H1685 0.950 . S
C1664 H1660 0.949 . S
C1664 C1672 1.574 . S
C1664 C1680 1.368 . S
H1665 C1673 0.950 . S
H1666 C1671 0.950 . S
H1667 C1672 0.949 . S
H1668 C1674 0.950 . S
H1669 C1675 0.950 . S
H1670 C1676 0.949 . S
C1671 H1666 0.950 . S
C1671 C1673 1.327 . S
C1671 C1677 1.429 . S
C1672 C1664 1.574 . S
C1672 H1667 0.949 . S
C1672 C1678 1.368 . S
C1673 C1657 1.349 . S
C1673 H1665 0.950 . S
C1673 C1671 1.327 . S
C1674 C1662 1.349 . S
C1674 H1668 0.950 . S
C1674 C1675 1.327 . S
C1675 H1669 0.950 . S
C1675 C1674 1.327 . S
C1675 C1679 1.429 . S
C1676 C1659 1.574 . S
C1676 H1670 0.949 . S
C1676 C1680 1.368 . S
C1677 C1658 1.429 . S
C1677 C1671 1.429 . S
C1677 C1678 1.523 . S
C1678 C1659 1.368 . S
C1678 C1672 1.368 . S
C1678 C1677 1.523 . S
C1679 C1663 1.429 . S
C1679 C1675 1.429 . S
C1679 C1680 1.523 . S
C1680 C1664 1.368 . S
C1680 C1676 1.368 . S
C1680 C1679 1.523 . S
H1681 C1656 0.950 . S
H1682 C1658 0.950 . S
H1683 C1659 0.949 . S
H1684 C1661 0.950 . S
H1685 C1663 0.950 . S
C1686 C1687 1.349 . S
C1686 C1688 1.327 . S
C1686 H1711 0.950 . S
C1687 C1686 1.349 . S
C1687 C1703 1.349 . S
C1688 C1686 1.327 . S
C1688 C1707 1.429 . S
C1688 H1712 0.950 . S
C1689 C1706 1.574 . S
C1689 C1708 1.368 . S
C1689 H1713 0.949 . S
H1690 C1694 0.949 . S
C1691 C1692 1.349 . S
C1691 C1693 1.327 . S
C1691 H1714 0.950 . S
C1692 C1691 1.349 . S
C1692 C1704 1.349 . S
C1693 C1691 1.327 . S
C1693 C1709 1.429 . S
C1693 H1715 0.950 . S
C1694 H1690 0.949 . S
C1694 C1702 1.574 . S
C1694 C1710 1.368 . S
H1695 C1703 0.950 . S
H1696 C1701 0.950 . S
H1697 C1702 0.949 . S
H1698 C1704 0.950 . S
H1699 C1705 0.950 . S
H1700 C1706 0.949 . S
C1701 H1696 0.950 . S
C1701 C1703 1.327 . S
C1701 C1707 1.429 . S
C1702 C1694 1.574 . S
C1702 H1697 0.949 . S
C1702 C1708 1.368 . S
C1703 C1687 1.349 . S
C1703 H1695 0.950 . S
C1703 C1701 1.327 . S
C1704 C1692 1.349 . S
C1704 H1698 0.950 . S
C1704 C1705 1.327 . S
C1705 H1699 0.950 . S
C1705 C1704 1.327 . S
C1705 C1709 1.429 . S
C1706 C1689 1.574 . S
C1706 H1700 0.949 . S
C1706 C1710 1.368 . S
C1707 C1688 1.429 . S
C1707 C1701 1.429 . S
C1707 C1708 1.523 . S
C1708 C1689 1.368 . S
C1708 C1702 1.368 . S
C1708 C1707 1.523 . S
C1709 C1693 1.429 . S
C1709 C1705 1.429 . S
C1709 C1710 1.523 . S
C1710 C1694 1.368 . S
C1710 C1706 1.368 . S
C1710 C1709 1.523 . S
H1711 C1686 0.950 . S
H1712 C1688 0.950 . S
H1713 C1689 0.949 . S
H1714 C1691 0.950 . S
H1715 C1693 0.950 . S
C1716 C1717 1.349 . S
C1716 C1718 1.327 . S
C1716 H1741 0.950 . S
C1717 C1716 1.349 . S
C1717 C1733 1.349 . S
C1718 C1716 1.327 . S
C1718 C1737 1.429 . S
C1718 H1742 0.950 . S
C1719 C1736 1.574 . S
C1719 C1738 1.368 . S
C1719 H1743 0.949 . S
H1720 C1724 0.949 . S
C1721 C1722 1.349 . S
C1721 C1723 1.327 . S
C1721 H1744 0.950 . S
C1722 C1721 1.349 . S
C1722 C1734 1.349 . S
C1723 C1721 1.327 . S
C1723 C1739 1.429 . S
C1723 H1745 0.950 . S
C1724 H1720 0.949 . S
C1724 C1732 1.574 . S
C1724 C1740 1.368 . S
H1725 C1733 0.950 . S
H1726 C1731 0.950 . S
H1727 C1732 0.949 . S
H1728 C1734 0.950 . S
H1729 C1735 0.950 . S
H1730 C1736 0.949 . S
C1731 H1726 0.950 . S
C1731 C1733 1.327 . S
C1731 C1737 1.429 . S
C1732 C1724 1.574 . S
C1732 H1727 0.949 . S
C1732 C1738 1.368 . S
C1733 C1717 1.349 . S
C1733 H1725 0.950 . S
C1733 C1731 1.327 . S
C1734 C1722 1.349 . S
C1734 H1728 0.950 . S
C1734 C1735 1.327 . S
C1735 H1729 0.950 . S
C1735 C1734 1.327 . S
C1735 C1739 1.429 . S
C1736 C1719 1.574 . S
C1736 H1730 0.949 . S
C1736 C1740 1.368 . S
C1737 C1718 1.429 . S
C1737 C1731 1.429 . S
C1737 C1738 1.523 . S
C1738 C1719 1.368 . S
C1738 C1732 1.368 . S
C1738 C1737 1.523 . S
C1739 C1723 1.429 . S
C1739 C1735 1.429 . S
C1739 C1740 1.523 . S
C1740 C1724 1.368 . S
C1740 C1736 1.368 . S
C1740 C1739 1.523 . S
H1741 C1716 0.950 . S
H1742 C1718 0.950 . S
H1743 C1719 0.949 . S
H1744 C1721 0.950 . S
H1745 C1723 0.950 . S
C1746 C1747 1.349 . S
C1746 C1748 1.327 . S
C1746 H1771 0.950 . S
C1747 C1746 1.349 . S
C1747 C1763 1.349 . S
C1748 C1746 1.327 . S
C1748 C1767 1.429 . S
C1748 H1772 0.950 . S
C1749 C1766 1.574 . S
C1749 C1768 1.368 1_545 S
C1749 H1773 0.949 . S
H1750 C1754 0.949 . S
C1751 C1752 1.349 . S
C1751 C1753 1.327 . S
C1751 H1774 0.950 . S
C1752 C1751 1.349 . S
C1752 C1764 1.349 . S
C1753 C1751 1.327 . S
C1753 C1769 1.429 . S
C1753 H1775 0.950 . S
C1754 H1750 0.949 . S
C1754 C1762 1.574 . S
C1754 C1770 1.368 . S
H1755 C1763 0.950 . S
H1756 C1761 0.950 . S
H1757 C1762 0.949 1_565 S
H1758 C1764 0.950 . S
H1759 C1765 0.950 . S
H1760 C1766 0.949 . S
C1761 H1756 0.950 . S
C1761 C1763 1.327 . S
C1761 C1767 1.429 . S
C1762 C1754 1.574 . S
C1762 H1757 0.949 1_545 S
C1762 C1768 1.368 1_545 S
C1763 C1747 1.349 . S
C1763 H1755 0.950 . S
C1763 C1761 1.327 . S
C1764 C1752 1.349 . S
C1764 H1758 0.950 . S
C1764 C1765 1.327 . S
C1765 H1759 0.950 . S
C1765 C1764 1.327 . S
C1765 C1769 1.429 . S
C1766 C1749 1.574 . S
C1766 H1760 0.949 . S
C1766 C1770 1.368 . S
C1767 C1748 1.429 . S
C1767 C1761 1.429 . S
C1767 C1768 1.523 . S
C1768 C1749 1.368 1_565 S
C1768 C1762 1.368 1_565 S
C1768 C1767 1.523 . S
C1769 C1753 1.429 . S
C1769 C1765 1.429 . S
C1769 C1770 1.523 . S
C1770 C1754 1.368 . S
C1770 C1766 1.368 . S
C1770 C1769 1.523 . S
H1771 C1746 0.950 . S
H1772 C1748 0.950 . S
H1773 C1749 0.949 . S
H1774 C1751 0.950 . S
H1775 C1753 0.950 . S
C1776 C1777 1.349 . S
C1776 C1778 1.327 . S
C1776 H1801 0.950 . S
C1777 C1776 1.349 . S
C1777 C1793 1.349 . S
C1778 C1776 1.327 . S
C1778 C1797 1.429 . S
C1778 H1802 0.950 . S
C1779 C1796 1.574 . S
C1779 C1798 1.368 . S
C1779 H1803 0.949 . S
H1780 C1784 0.949 . S
C1781 C1782 1.349 . S
C1781 C1783 1.327 . S
C1781 H1804 0.950 . S
C1782 C1781 1.349 . S
C1782 C1794 1.349 . S
C1783 C1781 1.327 . S
C1783 C1799 1.429 . S
C1783 H1805 0.950 . S
C1784 H1780 0.949 . S
C1784 C1792 1.574 . S
C1784 C1800 1.368 . S
H1785 C1793 0.950 . S
H1786 C1791 0.950 . S
H1787 C1792 0.949 . S
H1788 C1794 0.950 . S
H1789 C1795 0.950 . S
H1790 C1796 0.949 . S
C1791 H1786 0.950 . S
C1791 C1793 1.327 . S
C1791 C1797 1.429 . S
C1792 C1784 1.574 . S
C1792 H1787 0.949 . S
C1792 C1798 1.368 . S
C1793 C1777 1.349 . S
C1793 H1785 0.950 . S
C1793 C1791 1.327 . S
C1794 C1782 1.349 . S
C1794 H1788 0.950 . S
C1794 C1795 1.327 . S
C1795 H1789 0.950 . S
C1795 C1794 1.327 . S
C1795 C1799 1.429 . S
C1796 C1779 1.574 . S
C1796 H1790 0.949 . S
C1796 C1800 1.368 . S
C1797 C1778 1.429 . S
C1797 C1791 1.429 . S
C1797 C1798 1.523 1_455 S
C1798 C1779 1.368 . S
C1798 C1792 1.368 . S
C1798 C1797 1.523 1_655 S
C1799 C1783 1.429 . S
C1799 C1795 1.429 . S
C1799 C1800 1.523 . S
C1800 C1784 1.368 . S
C1800 C1796 1.368 . S
C1800 C1799 1.523 . S
H1801 C1776 0.950 . S
H1802 C1778 0.950 . S
H1803 C1779 0.949 . S
H1804 C1781 0.950 . S
H1805 C1783 0.950 . S
C1806 C1807 1.349 . S
C1806 C1808 1.327 . S
C1806 H1831 0.950 . S
C1807 C1806 1.349 . S
C1807 C1823 1.349 . S
C1808 C1806 1.327 . S
C1808 C1827 1.429 . S
C1808 H1832 0.950 . S
C1809 C1826 1.574 . S
C1809 C1828 1.368 . S
C1809 H1833 0.949 . S
H1810 C1814 0.949 . S
C1811 C1812 1.349 . S
C1811 C1813 1.327 . S
C1811 H1834 0.950 . S
C1812 C1811 1.349 . S
C1812 C1824 1.349 . S
C1813 C1811 1.327 . S
C1813 C1829 1.429 . S
C1813 H1835 0.950 . S
C1814 H1810 0.949 . S
C1814 C1822 1.574 . S
C1814 C1830 1.368 . S
H1815 C1823 0.950 . S
H1816 C1821 0.950 . S
H1817 C1822 0.949 . S
H1818 C1824 0.950 . S
H1819 C1825 0.950 . S
H1820 C1826 0.949 . S
C1821 H1816 0.950 . S
C1821 C1823 1.327 . S
C1821 C1827 1.429 . S
C1822 C1814 1.574 . S
C1822 H1817 0.949 . S
C1822 C1828 1.368 . S
C1823 C1807 1.349 . S
C1823 H1815 0.950 . S
C1823 C1821 1.327 . S
C1824 C1812 1.349 . S
C1824 H1818 0.950 . S
C1824 C1825 1.327 . S
C1825 H1819 0.950 . S
C1825 C1824 1.327 . S
C1825 C1829 1.429 . S
C1826 C1809 1.574 . S
C1826 H1820 0.949 . S
C1826 C1830 1.368 . S
C1827 C1808 1.429 . S
C1827 C1821 1.429 . S
C1827 C1828 1.523 . S
C1828 C1809 1.368 . S
C1828 C1822 1.368 . S
C1828 C1827 1.523 . S
C1829 C1813 1.429 . S
C1829 C1825 1.429 . S
C1829 C1830 1.523 . S
C1830 C1814 1.368 . S
C1830 C1826 1.368 . S
C1830 C1829 1.523 . S
H1831 C1806 0.950 . S
H1832 C1808 0.950 . S
H1833 C1809 0.949 . S
H1834 C1811 0.950 . S
H1835 C1813 0.950 . S
C1836 C1837 1.349 . S
C1836 C1838 1.327 . S
C1836 H1861 0.950 . S
C1837 C1836 1.349 . S
C1837 C1853 1.349 . S
C1838 C1836 1.327 . S
C1838 C1857 1.429 . S
C1838 H1862 0.950 . S
C1839 C1856 1.574 . S
C1839 C1858 1.368 . S
C1839 H1863 0.949 1_655 S
H1840 C1844 0.949 . S
C1841 C1842 1.349 . S
C1841 C1843 1.327 . S
C1841 H1864 0.950 . S
C1842 C1841 1.349 . S
C1842 C1854 1.349 . S
C1843 C1841 1.327 . S
C1843 C1859 1.429 . S
C1843 H1865 0.950 . S
C1844 H1840 0.949 . S
C1844 C1852 1.574 . S
C1844 C1860 1.368 . S
H1845 C1853 0.950 . S
H1846 C1851 0.950 . S
H1847 C1852 0.949 . S
H1848 C1854 0.950 . S
H1849 C1855 0.950 . S
H1850 C1856 0.949 . S
C1851 H1846 0.950 . S
C1851 C1853 1.327 . S
C1851 C1857 1.429 . S
C1852 C1844 1.574 . S
C1852 H1847 0.949 . S
C1852 C1858 1.368 . S
C1853 C1837 1.349 . S
C1853 H1845 0.950 . S
C1853 C1851 1.327 . S
C1854 C1842 1.349 . S
C1854 H1848 0.950 . S
C1854 C1855 1.327 . S
C1855 H1849 0.950 . S
C1855 C1854 1.327 . S
C1855 C1859 1.429 . S
C1856 C1839 1.574 . S
C1856 H1850 0.949 . S
C1856 C1860 1.368 . S
C1857 C1838 1.429 . S
C1857 C1851 1.429 . S
C1857 C1858 1.523 1_455 S
C1858 C1839 1.368 . S
C1858 C1852 1.368 . S
C1858 C1857 1.523 1_655 S
C1859 C1843 1.429 . S
C1859 C1855 1.429 . S
C1859 C1860 1.523 . S
C1860 C1844 1.368 . S
C1860 C1856 1.368 . S
C1860 C1859 1.523 . S
H1861 C1836 0.950 . S
H1862 C1838 0.950 . S
H1863 C1839 0.949 1_455 S
H1864 C1841 0.950 . S
H1865 C1843 0.950 . S
C1866 C1867 1.349 . S
C1866 C1868 1.327 . S
C1866 H1891 0.950 . S
C1867 C1866 1.349 . S
C1867 C1883 1.349 . S
C1868 C1866 1.327 . S
C1868 C1887 1.429 . S
C1868 H1892 0.950 . S
C1869 C1886 1.574 . S
C1869 C1888 1.368 . S
C1869 H1893 0.949 . S
H1870 C1874 0.949 . S
C1871 C1872 1.349 . S
C1871 C1873 1.327 . S
C1871 H1894 0.950 . S
C1872 C1871 1.349 . S
C1872 C1884 1.349 . S
C1873 C1871 1.327 . S
C1873 C1889 1.429 . S
C1873 H1895 0.950 . S
C1874 H1870 0.949 . S
C1874 C1882 1.574 . S
C1874 C1890 1.368 . S
H1875 C1883 0.950 . S
H1876 C1881 0.950 . S
H1877 C1882 0.949 . S
H1878 C1884 0.950 . S
H1879 C1885 0.950 . S
H1880 C1886 0.949 . S
C1881 H1876 0.950 . S
C1881 C1883 1.327 . S
C1881 C1887 1.429 . S
C1882 C1874 1.574 . S
C1882 H1877 0.949 . S
C1882 C1888 1.368 . S
C1883 C1867 1.349 . S
C1883 H1875 0.950 . S
C1883 C1881 1.327 . S
C1884 C1872 1.349 . S
C1884 H1878 0.950 . S
C1884 C1885 1.327 . S
C1885 H1879 0.950 . S
C1885 C1884 1.327 . S
C1885 C1889 1.429 . S
C1886 C1869 1.574 . S
C1886 H1880 0.949 . S
C1886 C1890 1.368 . S
C1887 C1868 1.429 . S
C1887 C1881 1.429 . S
C1887 C1888 1.523 . S
C1888 C1869 1.368 . S
C1888 C1882 1.368 . S
C1888 C1887 1.523 . S
C1889 C1873 1.429 . S
C1889 C1885 1.429 . S
C1889 C1890 1.523 . S
C1890 C1874 1.368 . S
C1890 C1886 1.368 . S
C1890 C1889 1.523 . S
H1891 C1866 0.950 . S
H1892 C1868 0.950 . S
H1893 C1869 0.949 . S
H1894 C1871 0.950 . S
H1895 C1873 0.950 . S
C1896 C1897 1.349 . S
C1896 C1898 1.327 . S
C1896 H1921 0.950 . S
C1897 C1896 1.349 . S
C1897 C1913 1.349 . S
C1898 C1896 1.327 . S
C1898 C1917 1.429 . S
C1898 H1922 0.950 . S
C1899 C1916 1.574 . S
C1899 C1918 1.368 1_545 S
C1899 H1923 0.949 1_545 S
H1900 C1904 0.949 . S
C1901 C1902 1.349 . S
C1901 C1903 1.327 . S
C1901 H1924 0.950 . S
C1902 C1901 1.349 . S
C1902 C1914 1.349 . S
C1903 C1901 1.327 . S
C1903 C1919 1.429 . S
C1903 H1925 0.950 . S
C1904 H1900 0.949 . S
C1904 C1912 1.574 . S
C1904 C1920 1.368 . S
H1905 C1913 0.950 . S
H1906 C1911 0.950 . S
H1907 C1912 0.949 1_565 S
H1908 C1914 0.950 . S
H1909 C1915 0.950 . S
H1910 C1916 0.949 . S
C1911 H1906 0.950 . S
C1911 C1913 1.327 . S
C1911 C1917 1.429 . S
C1912 C1904 1.574 . S
C1912 H1907 0.949 1_545 S
C1912 C1918 1.368 1_545 S
C1913 C1897 1.349 . S
C1913 H1905 0.950 . S
C1913 C1911 1.327 . S
C1914 C1902 1.349 . S
C1914 H1908 0.950 . S
C1914 C1915 1.327 . S
C1915 H1909 0.950 . S
C1915 C1914 1.327 . S
C1915 C1919 1.429 . S
C1916 C1899 1.574 . S
C1916 H1910 0.949 . S
C1916 C1920 1.368 . S
C1917 C1898 1.429 . S
C1917 C1911 1.429 . S
C1917 C1918 1.523 . S
C1918 C1899 1.368 1_565 S
C1918 C1912 1.368 1_565 S
C1918 C1917 1.523 . S
C1919 C1903 1.429 . S
C1919 C1915 1.429 . S
C1919 C1920 1.523 . S
C1920 C1904 1.368 . S
C1920 C1916 1.368 . S
C1920 C1919 1.523 . S
H1921 C1896 0.950 . S
H1922 C1898 0.950 . S
H1923 C1899 0.949 1_565 S
H1924 C1901 0.950 . S
H1925 C1903 0.950 . S
C1926 C1927 1.349 . S
C1926 C1928 1.327 . S
C1926 H1951 0.950 . S
C1927 C1926 1.349 . S
C1927 C1943 1.349 . S
C1928 C1926 1.327 . S
C1928 C1947 1.429 . S
C1928 H1952 0.950 . S
C1929 C1946 1.574 . S
C1929 C1948 1.368 . S
C1929 H1953 0.949 . S
H1930 C1934 0.949 . S
C1931 C1932 1.349 . S
C1931 C1933 1.327 . S
C1931 H1954 0.950 . S
C1932 C1931 1.349 . S
C1932 C1944 1.349 . S
C1933 C1931 1.327 . S
C1933 C1949 1.429 . S
C1933 H1955 0.950 . S
C1934 H1930 0.949 . S
C1934 C1942 1.574 . S
C1934 C1950 1.368 . S
H1935 C1943 0.950 . S
H1936 C1941 0.950 . S
H1937 C1942 0.949 . S
H1938 C1944 0.950 . S
H1939 C1945 0.950 . S
H1940 C1946 0.949 . S
C1941 H1936 0.950 . S
C1941 C1943 1.327 . S
C1941 C1947 1.429 . S
C1942 C1934 1.574 . S
C1942 H1937 0.949 . S
C1942 C1948 1.368 . S
C1943 C1927 1.349 . S
C1943 H1935 0.950 . S
C1943 C1941 1.327 . S
C1944 C1932 1.349 . S
C1944 H1938 0.950 . S
C1944 C1945 1.327 . S
C1945 H1939 0.950 . S
C1945 C1944 1.327 . S
C1945 C1949 1.429 . S
C1946 C1929 1.574 . S
C1946 H1940 0.949 . S
C1946 C1950 1.368 . S
C1947 C1928 1.429 . S
C1947 C1941 1.429 . S
C1947 C1948 1.523 . S
C1948 C1929 1.368 . S
C1948 C1942 1.368 . S
C1948 C1947 1.523 . S
C1949 C1933 1.429 . S
C1949 C1945 1.429 . S
C1949 C1950 1.523 . S
C1950 C1934 1.368 . S
C1950 C1946 1.368 . S
C1950 C1949 1.523 . S
H1951 C1926 0.950 . S
H1952 C1928 0.950 . S
H1953 C1929 0.949 . S
H1954 C1931 0.950 . S
H1955 C1933 0.950 . S
C1956 C1957 1.349 . S
C1956 C1958 1.327 . S
C1956 H1981 0.950 . S
C1957 C1956 1.349 . S
C1957 C1973 1.349 . S
C1958 C1956 1.327 . S
C1958 C1977 1.429 . S
C1958 H1982 0.950 . S
C1959 C1976 1.574 . S
C1959 C1978 1.368 . S
C1959 H1983 0.949 . S
H1960 C1964 0.949 . S
C1961 C1962 1.349 . S
C1961 C1963 1.327 . S
C1961 H1984 0.950 . S
C1962 C1961 1.349 . S
C1962 C1974 1.349 . S
C1963 C1961 1.327 . S
C1963 C1979 1.429 . S
C1963 H1985 0.950 . S
C1964 H1960 0.949 . S
C1964 C1972 1.574 . S
C1964 C1980 1.368 . S
H1965 C1973 0.950 . S
H1966 C1971 0.950 . S
H1967 C1972 0.949 . S
H1968 C1974 0.950 . S
H1969 C1975 0.950 . S
H1970 C1976 0.949 . S
C1971 H1966 0.950 . S
C1971 C1973 1.327 . S
C1971 C1977 1.429 . S
C1972 C1964 1.574 . S
C1972 H1967 0.949 . S
C1972 C1978 1.368 . S
C1973 C1957 1.349 . S
C1973 H1965 0.950 . S
C1973 C1971 1.327 . S
C1974 C1962 1.349 . S
C1974 H1968 0.950 . S
C1974 C1975 1.327 . S
C1975 H1969 0.950 . S
C1975 C1974 1.327 . S
C1975 C1979 1.429 . S
C1976 C1959 1.574 . S
C1976 H1970 0.949 . S
C1976 C1980 1.368 . S
C1977 C1958 1.429 . S
C1977 C1971 1.429 . S
C1977 C1978 1.523 . S
C1978 C1959 1.368 . S
C1978 C1972 1.368 . S
C1978 C1977 1.523 . S
C1979 C1963 1.429 . S
C1979 C1975 1.429 . S
C1979 C1980 1.523 . S
C1980 C1964 1.368 . S
C1980 C1976 1.368 . S
C1980 C1979 1.523 . S
H1981 C1956 0.950 . S
H1982 C1958 0.950 . S
H1983 C1959 0.949 . S
H1984 C1961 0.950 . S
H1985 C1963 0.950 . S
C1986 C1987 1.349 . S
C1986 C1988 1.327 . S
C1986 H2011 0.950 . S
C1987 C1986 1.349 . S
C1987 C2003 1.349 . S
C1988 C1986 1.327 . S
C1988 C2007 1.429 . S
C1988 H2012 0.950 . S
C1989 C2006 1.574 . S
C1989 C2008 1.368 . S
C1989 H2013 0.949 . S
H1990 C1994 0.949 . S
C1991 C1992 1.349 . S
C1991 C1993 1.327 . S
C1991 H2014 0.950 . S
C1992 C1991 1.349 . S
C1992 C2004 1.349 . S
C1993 C1991 1.327 . S
C1993 C2009 1.429 . S
C1993 H2015 0.950 . S
C1994 H1990 0.949 . S
C1994 C2002 1.574 . S
C1994 C2010 1.368 . S
H1995 C2003 0.950 . S
H1996 C2001 0.950 . S
H1997 C2002 0.949 . S
H1998 C2004 0.950 . S
H1999 C2005 0.950 . S
H2000 C2006 0.949 . S
C2001 H1996 0.950 . S
C2001 C2003 1.327 . S
C2001 C2007 1.429 . S
C2002 C1994 1.574 . S
C2002 H1997 0.949 . S
C2002 C2008 1.368 . S
C2003 C1987 1.349 . S
C2003 H1995 0.950 . S
C2003 C2001 1.327 . S
C2004 C1992 1.349 . S
C2004 H1998 0.950 . S
C2004 C2005 1.327 . S
C2005 H1999 0.950 . S
C2005 C2004 1.327 . S
C2005 C2009 1.429 . S
C2006 C1989 1.574 . S
C2006 H2000 0.949 . S
C2006 C2010 1.368 . S
C2007 C1988 1.429 . S
C2007 C2001 1.429 . S
C2007 C2008 1.523 . S
C2008 C1989 1.368 . S
C2008 C2002 1.368 . S
C2008 C2007 1.523 . S
C2009 C1993 1.429 . S
C2009 C2005 1.429 . S
C2009 C2010 1.523 . S
C2010 C1994 1.368 . S
C2010 C2006 1.368 . S
C2010 C2009 1.523 . S
H2011 C1986 0.950 . S
H2012 C1988 0.950 . S
H2013 C1989 0.949 . S
H2014 C1991 0.950 . S
H2015 C1993 0.950 . S
C2016 C2017 1.349 . S
C2016 C2018 1.327 . S
C2016 H2041 0.950 . S
C2017 C2016 1.349 . S
C2017 C2033 1.349 . S
C2018 C2016 1.327 . S
C2018 C2037 1.429 . S
C2018 H2042 0.950 . S
C2019 C2036 1.574 . S
C2019 C2038 1.368 . S
C2019 H2043 0.949 . S
H2020 C2024 0.949 1_545 S
C2021 C2022 1.349 . S
C2021 C2023 1.327 . S
C2021 H2044 0.950 . S
C2022 C2021 1.349 . S
C2022 C2034 1.349 1_565 S
C2023 C2021 1.327 . S
C2023 C2039 1.429 . S
C2023 H2045 0.950 . S
C2024 H2020 0.949 1_565 S
C2024 C2032 1.574 . S
C2024 C2040 1.368 . S
H2025 C2033 0.950 . S
H2026 C2031 0.950 . S
H2027 C2032 0.949 . S
H2028 C2034 0.950 . S
H2029 C2035 0.953 . S
H2030 C2036 0.949 . S
C2031 H2026 0.950 . S
C2031 C2033 1.327 . S
C2031 C2037 1.429 . S
C2032 C2024 1.574 . S
C2032 H2027 0.949 . S
C2032 C2038 1.368 . S
C2033 C2017 1.349 . S
C2033 H2025 0.950 . S
C2033 C2031 1.327 . S
C2034 C2022 1.349 1_545 S
C2034 H2028 0.950 . S
C2034 C2035 1.329 . S
C2035 H2029 0.953 . S
C2035 C2034 1.329 . S
C2035 C2039 1.424 1_545 S
C2036 C2019 1.574 . S
C2036 H2030 0.949 . S
C2036 C2040 1.368 . S
C2037 C2018 1.429 . S
C2037 C2031 1.429 . S
C2037 C2038 1.523 . S
C2038 C2019 1.368 . S
C2038 C2032 1.368 . S
C2038 C2037 1.523 . S
C2039 C2023 1.429 . S
C2039 C2035 1.424 1_565 S
C2039 C2040 1.523 . S
C2040 C2024 1.368 . S
C2040 C2036 1.368 . S
C2040 C2039 1.523 . S
H2041 C2016 0.950 . S
H2042 C2018 0.950 . S
H2043 C2019 0.949 . S
H2044 C2021 0.950 . S
H2045 C2023 0.950 . S
C2046 C2047 1.349 . S
C2046 C2048 1.327 . S
C2046 H2071 0.950 . S
C2047 C2046 1.349 . S
C2047 C2063 1.349 . S
C2048 C2046 1.327 . S
C2048 C2067 1.429 . S
C2048 H2072 0.950 . S
C2049 C2066 1.577 . S
C2049 C2068 1.365 1_655 S
C2049 H2073 0.953 . S
H2050 C2054 0.949 . S
C2051 C2052 1.349 1_655 S
C2051 C2053 1.327 . S
C2051 H2074 0.950 . S
C2052 C2051 1.349 1_455 S
C2052 C2064 1.349 . S
C2053 C2051 1.327 . S
C2053 C2069 1.429 1_655 S
C2053 H2075 0.950 . S
C2054 H2050 0.949 . S
C2054 C2062 1.574 . S
C2054 C2070 1.368 . S
H2055 C2063 0.950 1_655 S
H2056 C2061 0.950 1_655 S
H2057 C2062 0.949 . S
H2058 C2064 0.950 . S
H2059 C2065 0.950 . S
H2060 C2066 0.976 . S
C2061 H2056 0.950 1_455 S
C2061 C2063 1.327 . S
C2061 C2067 1.429 . S
C2062 C2054 1.574 . S
C2062 H2057 0.949 . S
C2062 C2068 1.368 . S
C2063 C2047 1.349 . S
C2063 H2055 0.950 1_455 S
C2063 C2061 1.327 . S
C2064 C2052 1.349 . S
C2064 H2058 0.950 . S
C2064 C2065 1.327 . S
C2065 H2059 0.950 . S
C2065 C2064 1.327 . S
C2065 C2069 1.429 . S
C2066 C2049 1.577 . S
C2066 H2060 0.976 . S
C2066 C2070 1.338 1_655 S
C2067 C2048 1.429 . S
C2067 C2061 1.429 . S
C2067 C2068 1.523 . S
C2068 C2049 1.365 1_455 S
C2068 C2062 1.368 . S
C2068 C2067 1.523 . S
C2069 C2053 1.429 1_455 S
C2069 C2065 1.429 . S
C2069 C2070 1.523 . S
C2070 C2054 1.368 . S
C2070 C2066 1.338 1_455 S
C2070 C2069 1.523 . S
H2071 C2046 0.950 . S
H2072 C2048 0.950 . S
H2073 C2049 0.953 . S
H2074 C2051 0.950 . S
H2075 C2053 0.950 . S
C2076 C2077 1.349 . S
C2076 C2078 1.327 . S
C2076 H2101 0.950 . S
C2077 C2076 1.349 . S
C2077 C2093 1.349 . S
C2078 C2076 1.327 . S
C2078 C2097 1.429 . S
C2078 H2102 0.950 . S
C2079 C2096 1.574 . S
C2079 C2098 1.368 . S
C2079 H2103 0.949 . S
H2080 C2084 0.949 . S
C2081 C2082 1.349 . S
C2081 C2083 1.327 . S
C2081 H2104 0.950 . S
C2082 C2081 1.349 . S
C2082 C2094 1.349 . S
C2083 C2081 1.327 . S
C2083 C2099 1.429 . S
C2083 H2105 0.950 . S
C2084 H2080 0.949 . S
C2084 C2092 1.574 . S
C2084 C2100 1.368 . S
H2085 C2093 0.950 . S
H2086 C2091 0.950 . S
H2087 C2092 0.949 . S
H2088 C2094 0.950 . S
H2089 C2095 0.950 . S
H2090 C2096 0.949 . S
C2091 H2086 0.950 . S
C2091 C2093 1.327 . S
C2091 C2097 1.429 . S
C2092 C2084 1.574 . S
C2092 H2087 0.949 . S
C2092 C2098 1.368 . S
C2093 C2077 1.349 . S
C2093 H2085 0.950 . S
C2093 C2091 1.327 . S
C2094 C2082 1.349 . S
C2094 H2088 0.950 . S
C2094 C2095 1.327 . S
C2095 H2089 0.950 . S
C2095 C2094 1.327 . S
C2095 C2099 1.429 . S
C2096 C2079 1.574 . S
C2096 H2090 0.949 . S
C2096 C2100 1.368 . S
C2097 C2078 1.429 . S
C2097 C2091 1.429 . S
C2097 C2098 1.523 . S
C2098 C2079 1.368 . S
C2098 C2092 1.368 . S
C2098 C2097 1.523 . S
C2099 C2083 1.429 . S
C2099 C2095 1.429 . S
C2099 C2100 1.523 . S
C2100 C2084 1.368 . S
C2100 C2096 1.368 . S
C2100 C2099 1.523 . S
H2101 C2076 0.950 . S
H2102 C2078 0.950 . S
H2103 C2079 0.949 . S
H2104 C2081 0.950 . S
H2105 C2083 0.950 . S
C2106 C2107 1.349 . S
C2106 C2108 1.327 . S
C2106 H2131 0.950 . S
C2107 C2106 1.349 . S
C2107 C2123 1.349 . S
C2108 C2106 1.327 . S
C2108 C2127 1.429 . S
C2108 H2132 0.950 . S
C2109 C2126 1.574 . S
C2109 C2128 1.368 . S
C2109 H2133 0.949 . S
H2110 C2114 0.949 . S
C2111 C2112 1.349 . S
C2111 C2113 1.327 . S
C2111 H2134 0.950 . S
C2112 C2111 1.349 . S
C2112 C2124 1.349 . S
C2113 C2111 1.327 . S
C2113 C2129 1.429 . S
C2113 H2135 0.950 . S
C2114 H2110 0.949 . S
C2114 C2122 1.574 . S
C2114 C2130 1.368 . S
H2115 C2123 0.950 . S
H2116 C2121 0.950 . S
H2117 C2122 0.949 . S
H2118 C2124 0.950 . S
H2119 C2125 0.950 . S
H2120 C2126 0.949 . S
C2121 H2116 0.950 . S
C2121 C2123 1.327 . S
C2121 C2127 1.429 . S
C2122 C2114 1.574 . S
C2122 H2117 0.949 . S
C2122 C2128 1.368 . S
C2123 C2107 1.349 . S
C2123 H2115 0.950 . S
C2123 C2121 1.327 . S
C2124 C2112 1.349 . S
C2124 H2118 0.950 . S
C2124 C2125 1.327 . S
C2125 H2119 0.950 . S
C2125 C2124 1.327 . S
C2125 C2129 1.429 . S
C2126 C2109 1.574 . S
C2126 H2120 0.949 . S
C2126 C2130 1.368 . S
C2127 C2108 1.429 . S
C2127 C2121 1.429 . S
C2127 C2128 1.523 . S
C2128 C2109 1.368 . S
C2128 C2122 1.368 . S
C2128 C2127 1.523 . S
C2129 C2113 1.429 . S
C2129 C2125 1.429 . S
C2129 C2130 1.523 . S
C2130 C2114 1.368 . S
C2130 C2126 1.368 . S
C2130 C2129 1.523 . S
H2131 C2106 0.950 . S
H2132 C2108 0.950 . S
H2133 C2109 0.949 . S
H2134 C2111 0.950 . S
H2135 C2113 0.950 . S
C2136 C2137 1.349 . S
C2136 C2138 1.327 . S
C2136 H2161 0.950 . S
C2137 C2136 1.349 . S
C2137 C2153 1.349 . S
C2138 C2136 1.327 . S
C2138 C2157 1.429 . S
C2138 H2162 0.950 . S
C2139 C2156 1.574 . S
C2139 C2158 1.368 . S
C2139 H2163 0.949 . S
H2140 C2144 0.949 . S
C2141 C2142 1.349 . S
C2141 C2143 1.327 . S
C2141 H2164 0.950 . S
C2142 C2141 1.349 . S
C2142 C2154 1.349 . S
C2143 C2141 1.327 . S
C2143 C2159 1.429 . S
C2143 H2165 0.950 . S
C2144 H2140 0.949 . S
C2144 C2152 1.574 . S
C2144 C2160 1.368 . S
H2145 C2153 0.950 . S
H2146 C2151 0.950 . S
H2147 C2152 0.949 . S
H2148 C2154 0.950 . S
H2149 C2155 0.950 . S
H2150 C2156 0.949 . S
C2151 H2146 0.950 . S
C2151 C2153 1.327 . S
C2151 C2157 1.429 . S
C2152 C2144 1.574 . S
C2152 H2147 0.949 . S
C2152 C2158 1.368 . S
C2153 C2137 1.349 . S
C2153 H2145 0.950 . S
C2153 C2151 1.327 . S
C2154 C2142 1.349 . S
C2154 H2148 0.950 . S
C2154 C2155 1.327 . S
C2155 H2149 0.950 . S
C2155 C2154 1.327 . S
C2155 C2159 1.429 . S
C2156 C2139 1.574 . S
C2156 H2150 0.949 . S
C2156 C2160 1.368 . S
C2157 C2138 1.429 . S
C2157 C2151 1.429 . S
C2157 C2158 1.523 . S
C2158 C2139 1.368 . S
C2158 C2152 1.368 . S
C2158 C2157 1.523 . S
C2159 C2143 1.429 . S
C2159 C2155 1.429 . S
C2159 C2160 1.523 . S
C2160 C2144 1.368 . S
C2160 C2156 1.368 . S
C2160 C2159 1.523 . S
H2161 C2136 0.950 . S
H2162 C2138 0.950 . S
H2163 C2139 0.949 . S
H2164 C2141 0.950 . S
H2165 C2143 0.950 . S
C2166 C2167 1.349 . S
C2166 C2168 1.327 . S
C2166 H2191 0.950 . S
C2167 C2166 1.349 . S
C2167 C2183 1.349 . S
C2168 C2166 1.327 . S
C2168 C2187 1.429 . S
C2168 H2192 0.950 . S
C2169 C2186 1.574 . S
C2169 C2188 1.368 . S
C2169 H2193 0.949 . S
H2170 C2174 0.891 1_565 S
C2171 C2172 1.349 . S
C2171 C2173 1.327 . S
C2171 H2194 0.950 . S
C2172 C2171 1.349 . S
C2172 C2184 1.349 1_545 S
C2173 C2171 1.327 . S
C2173 C2189 1.429 . S
C2173 H2195 0.950 . S
C2174 H2170 0.891 1_545 S
C2174 C2182 1.574 . S
C2174 C2190 1.368 . S
H2175 C2183 0.950 . S
H2176 C2181 0.950 . S
H2177 C2182 0.949 . S
H2178 C2184 0.950 . S
H2179 C2185 0.950 1_565 S
H2180 C2186 0.949 . S
C2181 H2176 0.950 . S
C2181 C2183 1.327 . S
C2181 C2187 1.429 . S
C2182 C2174 1.574 . S
C2182 H2177 0.949 . S
C2182 C2188 1.368 . S
C2183 C2167 1.349 . S
C2183 H2175 0.950 . S
C2183 C2181 1.327 . S
C2184 C2172 1.349 1_565 S
C2184 H2178 0.950 . S
C2184 C2185 1.327 1_565 S
C2185 H2179 0.950 1_545 S
C2185 C2184 1.327 1_545 S
C2185 C2189 1.429 . S
C2186 C2169 1.574 . S
C2186 H2180 0.949 . S
C2186 C2190 1.368 . S
C2187 C2168 1.429 . S
C2187 C2181 1.429 . S
C2187 C2188 1.523 . S
C2188 C2169 1.368 . S
C2188 C2182 1.368 . S
C2188 C2187 1.523 . S
C2189 C2173 1.429 . S
C2189 C2185 1.429 . S
C2189 C2190 1.523 . S
C2190 C2174 1.368 . S
C2190 C2186 1.368 . S
C2190 C2189 1.523 . S
H2191 C2166 0.950 . S
H2192 C2168 0.950 . S
H2193 C2169 0.949 . S
H2194 C2171 0.950 . S
H2195 C2173 0.950 . S
C2196 C2197 1.349 . S
C2196 C2198 1.327 . S
C2196 H2221 0.950 . S
C2197 C2196 1.349 . S
C2197 C2213 1.349 . S
C2198 C2196 1.327 . S
C2198 C2217 1.429 . S
C2198 H2222 0.950 . S
C2199 C2216 1.574 . S
C2199 C2218 1.368 . S
C2199 H2223 0.949 . S
H2200 C2204 0.949 . S
C2201 C2202 1.349 . S
C2201 C2203 1.327 . S
C2201 H2224 0.950 . S
C2202 C2201 1.349 . S
C2202 C2214 1.349 . S
C2203 C2201 1.327 . S
C2203 C2219 1.429 . S
C2203 H2225 0.950 . S
C2204 H2200 0.949 . S
C2204 C2212 1.574 . S
C2204 C2220 1.368 . S
H2205 C2213 0.950 . S
H2206 C2211 0.950 . S
H2207 C2212 0.949 . S
H2208 C2214 0.950 . S
H2209 C2215 0.950 . S
H2210 C2216 0.949 . S
C2211 H2206 0.950 . S
C2211 C2213 1.327 . S
C2211 C2217 1.429 . S
C2212 C2204 1.574 . S
C2212 H2207 0.949 . S
C2212 C2218 1.368 . S
C2213 C2197 1.349 . S
C2213 H2205 0.950 . S
C2213 C2211 1.327 . S
C2214 C2202 1.349 . S
C2214 H2208 0.950 . S
C2214 C2215 1.327 . S
C2215 H2209 0.950 . S
C2215 C2214 1.327 . S
C2215 C2219 1.429 . S
C2216 C2199 1.574 . S
C2216 H2210 0.949 . S
C2216 C2220 1.368 . S
C2217 C2198 1.429 . S
C2217 C2211 1.429 . S
C2217 C2218 1.523 . S
C2218 C2199 1.368 . S
C2218 C2212 1.368 . S
C2218 C2217 1.523 . S
C2219 C2203 1.429 . S
C2219 C2215 1.429 . S
C2219 C2220 1.523 . S
C2220 C2204 1.368 . S
C2220 C2216 1.368 . S
C2220 C2219 1.523 . S
H2221 C2196 0.950 . S
H2222 C2198 0.950 . S
H2223 C2199 0.949 . S
H2224 C2201 0.950 . S
H2225 C2203 0.950 . S
C2226 C2227 1.349 . S
C2226 C2228 1.327 . S
C2226 H2251 0.950 . S
C2227 C2226 1.349 . S
C2227 C2243 1.349 . S
C2228 C2226 1.327 . S
C2228 C2247 1.429 . S
C2228 H2252 0.950 . S
C2229 C2246 1.574 . S
C2229 C2248 1.368 . S
C2229 H2253 0.949 . S
H2230 C2234 0.949 . S
C2231 C2232 1.349 . S
C2231 C2233 1.327 . S
C2231 H2254 0.950 . S
C2232 C2231 1.349 . S
C2232 C2244 1.349 . S
C2233 C2231 1.327 . S
C2233 C2249 1.429 . S
C2233 H2255 0.950 . S
C2234 H2230 0.949 . S
C2234 C2242 1.574 . S
C2234 C2250 1.368 . S
H2235 C2243 0.950 . S
H2236 C2241 0.950 . S
H2237 C2242 0.949 . S
H2238 C2244 0.950 . S
H2239 C2245 0.950 . S
H2240 C2246 0.949 . S
C2241 H2236 0.950 . S
C2241 C2243 1.327 . S
C2241 C2247 1.429 . S
C2242 C2234 1.574 . S
C2242 H2237 0.949 . S
C2242 C2248 1.368 . S
C2243 C2227 1.349 . S
C2243 H2235 0.950 . S
C2243 C2241 1.327 . S
C2244 C2232 1.349 . S
C2244 H2238 0.950 . S
C2244 C2245 1.327 . S
C2245 H2239 0.950 . S
C2245 C2244 1.327 . S
C2245 C2249 1.429 . S
C2246 C2229 1.574 . S
C2246 H2240 0.949 . S
C2246 C2250 1.368 . S
C2247 C2228 1.429 . S
C2247 C2241 1.429 . S
C2247 C2248 1.523 . S
C2248 C2229 1.368 . S
C2248 C2242 1.368 . S
C2248 C2247 1.523 . S
C2249 C2233 1.429 . S
C2249 C2245 1.429 . S
C2249 C2250 1.523 . S
C2250 C2234 1.368 . S
C2250 C2246 1.368 . S
C2250 C2249 1.523 . S
H2251 C2226 0.950 . S
H2252 C2228 0.950 . S
H2253 C2229 0.949 . S
H2254 C2231 0.950 . S
H2255 C2233 0.950 . S
C2256 C2257 1.349 . S
C2256 C2258 1.327 . S
C2256 H2281 0.950 . S
C2257 C2256 1.349 . S
C2257 C2273 1.349 . S
C2258 C2256 1.327 . S
C2258 C2277 1.429 . S
C2258 H2282 0.950 . S
C2259 C2276 1.574 . S
C2259 C2278 1.368 . S
C2259 H2283 0.949 . S
H2260 C2264 0.949 . S
C2261 C2262 1.349 . S
C2261 C2263 1.327 . S
C2261 H2284 0.950 . S
C2262 C2261 1.349 . S
C2262 C2274 1.349 . S
C2263 C2261 1.327 . S
C2263 C2279 1.429 . S
C2263 H2285 0.950 . S
C2264 H2260 0.949 . S
C2264 C2272 1.574 . S
C2264 C2280 1.368 . S
H2265 C2273 0.950 . S
H2266 C2271 0.950 . S
H2267 C2272 0.949 . S
H2268 C2274 0.950 . S
H2269 C2275 0.950 . S
H2270 C2276 0.949 . S
C2271 H2266 0.950 . S
C2271 C2273 1.327 . S
C2271 C2277 1.429 . S
C2272 C2264 1.574 . S
C2272 H2267 0.949 . S
C2272 C2278 1.368 . S
C2273 C2257 1.349 . S
C2273 H2265 0.950 . S
C2273 C2271 1.327 . S
C2274 C2262 1.349 . S
C2274 H2268 0.950 . S
C2274 C2275 1.327 . S
C2275 H2269 0.950 . S
C2275 C2274 1.327 . S
C2275 C2279 1.429 . S
C2276 C2259 1.574 . S
C2276 H2270 0.949 . S
C2276 C2280 1.368 . S
C2277 C2258 1.429 . S
C2277 C2271 1.429 . S
C2277 C2278 1.523 . S
C2278 C2259 1.368 . S
C2278 C2272 1.368 . S
C2278 C2277 1.523 . S
C2279 C2263 1.429 . S
C2279 C2275 1.429 . S
C2279 C2280 1.523 . S
C2280 C2264 1.368 . S
C2280 C2276 1.368 . S
C2280 C2279 1.523 . S
H2281 C2256 0.950 . S
H2282 C2258 0.950 . S
H2283 C2259 0.949 . S
H2284 C2261 0.950 . S
H2285 C2263 0.950 . S
C2286 C2287 1.349 . S
C2286 C2288 1.327 . S
C2286 H2311 0.950 . S
C2287 C2286 1.349 . S
C2287 C2303 1.349 . S
C2288 C2286 1.327 . S
C2288 C2307 1.429 . S
C2288 H2312 0.950 . S
C2289 C2306 1.574 . S
C2289 C2308 1.368 . S
C2289 H2313 0.949 . S
H2290 C2294 0.949 . S
C2291 C2292 1.349 . S
C2291 C2293 1.327 . S
C2291 H2314 0.950 . S
C2292 C2291 1.349 . S
C2292 C2304 1.349 . S
C2293 C2291 1.327 . S
C2293 C2309 1.429 . S
C2293 H2315 0.950 . S
C2294 H2290 0.949 . S
C2294 C2302 1.574 . S
C2294 C2310 1.368 . S
H2295 C2303 0.950 . S
H2296 C2301 0.950 . S
H2297 C2302 0.949 . S
H2298 C2304 0.950 . S
H2299 C2305 0.950 . S
H2300 C2306 0.949 . S
C2301 H2296 0.950 . S
C2301 C2303 1.327 . S
C2301 C2307 1.429 . S
C2302 C2294 1.574 . S
C2302 H2297 0.949 . S
C2302 C2308 1.368 . S
C2303 C2287 1.349 . S
C2303 H2295 0.950 . S
C2303 C2301 1.327 . S
C2304 C2292 1.349 . S
C2304 H2298 0.950 . S
C2304 C2305 1.327 . S
C2305 H2299 0.950 . S
C2305 C2304 1.327 . S
C2305 C2309 1.429 . S
C2306 C2289 1.574 . S
C2306 H2300 0.949 . S
C2306 C2310 1.368 . S
C2307 C2288 1.429 . S
C2307 C2301 1.429 . S
C2307 C2308 1.523 . S
C2308 C2289 1.368 . S
C2308 C2302 1.368 . S
C2308 C2307 1.523 . S
C2309 C2293 1.429 . S
C2309 C2305 1.429 . S
C2309 C2310 1.523 . S
C2310 C2294 1.368 . S
C2310 C2306 1.368 . S
C2310 C2309 1.523 . S
H2311 C2286 0.950 . S
H2312 C2288 0.950 . S
H2313 C2289 0.949 . S
H2314 C2291 0.950 . S
H2315 C2293 0.950 . S
C2316 C2317 1.349 . S
C2316 C2318 1.327 . S
C2316 H2341 0.950 . S
C2317 C2316 1.349 . S
C2317 C2333 1.349 . S
C2318 C2316 1.327 . S
C2318 C2337 1.429 . S
C2318 H2342 0.950 . S
C2319 C2336 1.574 . S
C2319 C2338 1.368 . S
C2319 H2343 0.949 . S
H2320 C2324 0.949 . S
C2321 C2322 1.349 . S
C2321 C2323 1.327 . S
C2321 H2344 0.950 . S
C2322 C2321 1.349 . S
C2322 C2334 1.349 . S
C2323 C2321 1.327 . S
C2323 C2339 1.429 . S
C2323 H2345 0.950 . S
C2324 H2320 0.949 . S
C2324 C2332 1.574 . S
C2324 C2340 1.368 . S
H2325 C2333 0.950 . S
H2326 C2331 0.950 . S
H2327 C2332 0.949 . S
H2328 C2334 0.950 . S
H2329 C2335 0.950 . S
H2330 C2336 0.949 . S
C2331 H2326 0.950 . S
C2331 C2333 1.327 . S
C2331 C2337 1.429 . S
C2332 C2324 1.574 . S
C2332 H2327 0.949 . S
C2332 C2338 1.368 . S
C2333 C2317 1.349 . S
C2333 H2325 0.950 . S
C2333 C2331 1.327 . S
C2334 C2322 1.349 . S
C2334 H2328 0.950 . S
C2334 C2335 1.327 . S
C2335 H2329 0.950 . S
C2335 C2334 1.327 . S
C2335 C2339 1.429 . S
C2336 C2319 1.574 . S
C2336 H2330 0.949 . S
C2336 C2340 1.368 . S
C2337 C2318 1.429 . S
C2337 C2331 1.429 . S
C2337 C2338 1.523 . S
C2338 C2319 1.368 . S
C2338 C2332 1.368 . S
C2338 C2337 1.523 . S
C2339 C2323 1.429 . S
C2339 C2335 1.429 . S
C2339 C2340 1.523 . S
C2340 C2324 1.368 . S
C2340 C2336 1.368 . S
C2340 C2339 1.523 . S
H2341 C2316 0.950 . S
H2342 C2318 0.950 . S
H2343 C2319 0.949 . S
H2344 C2321 0.950 . S
H2345 C2323 0.950 . S
C2346 C2347 1.349 . S
C2346 C2348 1.327 . S
C2346 H2371 0.950 . S
C2347 C2346 1.349 . S
C2347 C2363 1.349 . S
C2348 C2346 1.327 . S
C2348 C2367 1.429 . S
C2348 H2372 0.950 . S
C2349 C2366 1.574 . S
C2349 C2368 1.368 . S
C2349 H2373 0.949 . S
H2350 C2354 0.949 . S
C2351 C2352 1.349 . S
C2351 C2353 1.327 . S
C2351 H2374 0.950 . S
C2352 C2351 1.349 . S
C2352 C2364 1.349 . S
C2353 C2351 1.327 . S
C2353 C2369 1.429 . S
C2353 H2375 0.950 . S
C2354 H2350 0.949 . S
C2354 C2362 1.574 . S
C2354 C2370 1.368 . S
H2355 C2363 0.950 . S
H2356 C2361 0.950 . S
H2357 C2362 0.949 . S
H2358 C2364 0.950 . S
H2359 C2365 0.950 . S
H2360 C2366 0.949 . S
C2361 H2356 0.950 . S
C2361 C2363 1.327 . S
C2361 C2367 1.429 . S
C2362 C2354 1.574 . S
C2362 H2357 0.949 . S
C2362 C2368 1.368 . S
C2363 C2347 1.349 . S
C2363 H2355 0.950 . S
C2363 C2361 1.327 . S
C2364 C2352 1.349 . S
C2364 H2358 0.950 . S
C2364 C2365 1.327 . S
C2365 H2359 0.950 . S
C2365 C2364 1.327 . S
C2365 C2369 1.429 . S
C2366 C2349 1.574 . S
C2366 H2360 0.949 . S
C2366 C2370 1.368 . S
C2367 C2348 1.429 . S
C2367 C2361 1.429 . S
C2367 C2368 1.523 . S
C2368 C2349 1.368 . S
C2368 C2362 1.368 . S
C2368 C2367 1.523 . S
C2369 C2353 1.429 . S
C2369 C2365 1.429 . S
C2369 C2370 1.523 . S
C2370 C2354 1.368 . S
C2370 C2366 1.368 . S
C2370 C2369 1.523 . S
H2371 C2346 0.950 . S
H2372 C2348 0.950 . S
H2373 C2349 0.949 . S
H2374 C2351 0.950 . S
H2375 C2353 0.950 . S
C2376 C2377 1.349 . S
C2376 C2378 1.327 . S
C2376 H2401 0.950 . S
C2377 C2376 1.349 . S
C2377 C2393 1.349 . S
C2378 C2376 1.327 . S
C2378 C2397 1.429 . S
C2378 H2402 0.950 . S
C2379 C2396 1.574 . S
C2379 C2398 1.368 . S
C2379 H2403 0.949 . S
H2380 C2384 0.949 . S
C2381 C2382 1.349 . S
C2381 C2383 1.327 . S
C2381 H2404 0.950 . S
C2382 C2381 1.349 . S
C2382 C2394 1.349 . S
C2383 C2381 1.327 . S
C2383 C2399 1.429 . S
C2383 H2405 0.950 . S
C2384 H2380 0.949 . S
C2384 C2392 1.574 . S
C2384 C2400 1.368 . S
H2385 C2393 0.950 . S
H2386 C2391 0.950 . S
H2387 C2392 0.949 . S
H2388 C2394 0.950 . S
H2389 C2395 0.950 . S
H2390 C2396 0.949 . S
C2391 H2386 0.950 . S
C2391 C2393 1.327 . S
C2391 C2397 1.429 . S
C2392 C2384 1.574 . S
C2392 H2387 0.949 . S
C2392 C2398 1.368 . S
C2393 C2377 1.349 . S
C2393 H2385 0.950 . S
C2393 C2391 1.327 . S
C2394 C2382 1.349 . S
C2394 H2388 0.950 . S
C2394 C2395 1.327 . S
C2395 H2389 0.950 . S
C2395 C2394 1.327 . S
C2395 C2399 1.429 . S
C2396 C2379 1.574 . S
C2396 H2390 0.949 . S
C2396 C2400 1.368 . S
C2397 C2378 1.429 . S
C2397 C2391 1.429 . S
C2397 C2398 1.523 . S
C2398 C2379 1.368 . S
C2398 C2392 1.368 . S
C2398 C2397 1.523 . S
C2399 C2383 1.429 . S
C2399 C2395 1.429 . S
C2399 C2400 1.523 . S
C2400 C2384 1.368 . S
C2400 C2396 1.368 . S
C2400 C2399 1.523 . S
H2401 C2376 0.950 . S
H2402 C2378 0.950 . S
H2403 C2379 0.949 . S
H2404 C2381 0.950 . S
H2405 C2383 0.950 . S
C2406 C2407 1.349 . S
C2406 C2408 1.327 . S
C2406 H2431 0.950 . S
C2407 C2406 1.349 . S
C2407 C2423 1.349 . S
C2408 C2406 1.327 . S
C2408 C2427 1.429 . S
C2408 H2432 0.950 . S
C2409 C2426 1.574 . S
C2409 C2428 1.368 . S
C2409 H2433 0.949 . S
H2410 C2414 0.949 . S
C2411 C2412 1.349 . S
C2411 C2413 1.327 . S
C2411 H2434 0.950 . S
C2412 C2411 1.349 . S
C2412 C2424 1.349 . S
C2413 C2411 1.327 . S
C2413 C2429 1.429 . S
C2413 H2435 0.950 . S
C2414 H2410 0.949 . S
C2414 C2422 1.574 . S
C2414 C2430 1.368 . S
H2415 C2423 0.950 . S
H2416 C2421 0.950 . S
H2417 C2422 0.949 . S
H2418 C2424 0.950 . S
H2419 C2425 0.950 . S
H2420 C2426 0.949 . S
C2421 H2416 0.950 . S
C2421 C2423 1.327 . S
C2421 C2427 1.429 . S
C2422 C2414 1.574 . S
C2422 H2417 0.949 . S
C2422 C2428 1.368 . S
C2423 C2407 1.349 . S
C2423 H2415 0.950 . S
C2423 C2421 1.327 . S
C2424 C2412 1.349 . S
C2424 H2418 0.950 . S
C2424 C2425 1.327 . S
C2425 H2419 0.950 . S
C2425 C2424 1.327 . S
C2425 C2429 1.429 . S
C2426 C2409 1.574 . S
C2426 H2420 0.949 . S
C2426 C2430 1.368 . S
C2427 C2408 1.429 . S
C2427 C2421 1.429 . S
C2427 C2428 1.523 . S
C2428 C2409 1.368 . S
C2428 C2422 1.368 . S
C2428 C2427 1.523 . S
C2429 C2413 1.429 . S
C2429 C2425 1.429 . S
C2429 C2430 1.523 . S
C2430 C2414 1.368 . S
C2430 C2426 1.368 . S
C2430 C2429 1.523 . S
H2431 C2406 0.950 . S
H2432 C2408 0.950 . S
H2433 C2409 0.949 . S
H2434 C2411 0.950 . S
H2435 C2413 0.950 . S
C2436 C2437 1.349 . S
C2436 C2438 1.327 . S
C2436 H2461 0.950 . S
C2437 C2436 1.349 . S
C2437 C2453 1.349 . S
C2438 C2436 1.327 . S
C2438 C2457 1.429 . S
C2438 H2462 0.950 . S
C2439 C2456 1.574 . S
C2439 C2458 1.368 . S
C2439 H2463 0.949 . S
H2440 C2444 0.949 . S
C2441 C2442 1.349 . S
C2441 C2443 1.327 . S
C2441 H2464 0.950 . S
C2442 C2441 1.349 . S
C2442 C2454 1.349 . S
C2443 C2441 1.327 . S
C2443 C2459 1.429 . S
C2443 H2465 0.950 . S
C2444 H2440 0.949 . S
C2444 C2452 1.574 . S
C2444 C2460 1.368 . S
H2445 C2453 0.950 . S
H2446 C2451 0.950 . S
H2447 C2452 0.949 . S
H2448 C2454 0.950 . S
H2449 C2455 0.950 . S
H2450 C2456 0.949 . S
C2451 H2446 0.950 . S
C2451 C2453 1.327 . S
C2451 C2457 1.429 . S
C2452 C2444 1.574 . S
C2452 H2447 0.949 . S
C2452 C2458 1.368 . S
C2453 C2437 1.349 . S
C2453 H2445 0.950 . S
C2453 C2451 1.327 . S
C2454 C2442 1.349 . S
C2454 H2448 0.950 . S
C2454 C2455 1.327 . S
C2455 H2449 0.950 . S
C2455 C2454 1.327 . S
C2455 C2459 1.429 . S
C2456 C2439 1.574 . S
C2456 H2450 0.949 . S
C2456 C2460 1.368 . S
C2457 C2438 1.429 . S
C2457 C2451 1.429 . S
C2457 C2458 1.523 . S
C2458 C2439 1.368 . S
C2458 C2452 1.368 . S
C2458 C2457 1.523 . S
C2459 C2443 1.429 . S
C2459 C2455 1.429 . S
C2459 C2460 1.523 . S
C2460 C2444 1.368 . S
C2460 C2456 1.368 . S
C2460 C2459 1.523 . S
H2461 C2436 0.950 . S
H2462 C2438 0.950 . S
H2463 C2439 0.949 . S
H2464 C2441 0.950 . S
H2465 C2443 0.950 . S
C2466 C2467 1.349 . S
C2466 C2468 1.327 . S
C2466 H2491 0.950 . S
C2467 C2466 1.349 . S
C2467 C2483 1.349 . S
C2468 C2466 1.327 . S
C2468 C2487 1.429 . S
C2468 H2492 0.950 . S
C2469 C2486 1.574 . S
C2469 C2488 1.368 . S
C2469 H2493 0.949 . S
H2470 C2474 0.949 . S
C2471 C2472 1.349 . S
C2471 C2473 1.327 . S
C2471 H2494 0.950 . S
C2472 C2471 1.349 . S
C2472 C2484 1.349 . S
C2473 C2471 1.327 . S
C2473 C2489 1.429 . S
C2473 H2495 0.950 . S
C2474 H2470 0.949 . S
C2474 C2482 1.574 . S
C2474 C2490 1.368 . S
H2475 C2483 0.950 . S
H2476 C2481 0.950 . S
H2477 C2482 0.949 . S
H2478 C2484 0.950 . S
H2479 C2485 0.950 . S
H2480 C2486 0.949 . S
C2481 H2476 0.950 . S
C2481 C2483 1.327 . S
C2481 C2487 1.429 . S
C2482 C2474 1.574 . S
C2482 H2477 0.949 . S
C2482 C2488 1.368 . S
C2483 C2467 1.349 . S
C2483 H2475 0.950 . S
C2483 C2481 1.327 . S
C2484 C2472 1.349 . S
C2484 H2478 0.950 . S
C2484 C2485 1.327 . S
C2485 H2479 0.950 . S
C2485 C2484 1.327 . S
C2485 C2489 1.429 . S
C2486 C2469 1.574 . S
C2486 H2480 0.949 . S
C2486 C2490 1.368 . S
C2487 C2468 1.429 . S
C2487 C2481 1.429 . S
C2487 C2488 1.523 . S
C2488 C2469 1.368 . S
C2488 C2482 1.368 . S
C2488 C2487 1.523 . S
C2489 C2473 1.429 . S
C2489 C2485 1.429 . S
C2489 C2490 1.523 . S
C2490 C2474 1.368 . S
C2490 C2486 1.368 . S
C2490 C2489 1.523 . S
H2491 C2466 0.950 . S
H2492 C2468 0.950 . S
H2493 C2469 0.949 . S
H2494 C2471 0.950 . S
H2495 C2473 0.950 . S
C2496 C2497 1.349 . S
C2496 C2498 1.327 . S
C2496 H2521 0.950 . S
C2497 C2496 1.349 . S
C2497 C2513 1.349 . S
C2498 C2496 1.327 . S
C2498 C2517 1.429 . S
C2498 H2522 0.950 . S
C2499 C2516 1.574 . S
C2499 C2518 1.368 . S
C2499 H2523 0.949 . S
H2500 C2504 0.949 . S
C2501 C2502 1.349 . S
C2501 C2503 1.327 . S
C2501 H2524 0.950 . S
C2502 C2501 1.349 . S
C2502 C2514 1.349 . S
C2503 C2501 1.327 . S
C2503 C2519 1.429 . S
C2503 H2525 0.950 . S
C2504 H2500 0.949 . S
C2504 C2512 1.574 . S
C2504 C2520 1.368 . S
H2505 C2513 0.950 . S
H2506 C2511 0.950 . S
H2507 C2512 0.949 . S
H2508 C2514 0.950 . S
H2509 C2515 0.950 . S
H2510 C2516 0.949 . S
C2511 H2506 0.950 . S
C2511 C2513 1.327 . S
C2511 C2517 1.429 . S
C2512 C2504 1.574 . S
C2512 H2507 0.949 . S
C2512 C2518 1.368 . S
C2513 C2497 1.349 . S
C2513 H2505 0.950 . S
C2513 C2511 1.327 . S
C2514 C2502 1.349 . S
C2514 H2508 0.950 . S
C2514 C2515 1.327 . S
C2515 H2509 0.950 . S
C2515 C2514 1.327 . S
C2515 C2519 1.429 . S
C2516 C2499 1.574 . S
C2516 H2510 0.949 . S
C2516 C2520 1.368 . S
C2517 C2498 1.429 . S
C2517 C2511 1.429 . S
C2517 C2518 1.523 . S
C2518 C2499 1.368 . S
C2518 C2512 1.368 . S
C2518 C2517 1.523 . S
C2519 C2503 1.429 . S
C2519 C2515 1.429 . S
C2519 C2520 1.523 . S
C2520 C2504 1.368 . S
C2520 C2516 1.368 . S
C2520 C2519 1.523 . S
H2521 C2496 0.950 . S
H2522 C2498 0.950 . S
H2523 C2499 0.949 . S
H2524 C2501 0.950 . S
H2525 C2503 0.950 . S
C2526 C2527 1.349 . S
C2526 C2528 1.327 . S
C2526 H2551 0.950 . S
C2527 C2526 1.349 . S
C2527 C2543 1.349 . S
C2528 C2526 1.327 . S
C2528 C2547 1.429 . S
C2528 H2552 0.950 . S
C2529 C2546 1.574 . S
C2529 C2548 1.368 . S
C2529 H2553 0.949 . S
H2530 C2534 0.949 . S
C2531 C2532 1.349 . S
C2531 C2533 1.327 . S
C2531 H2554 0.950 . S
C2532 C2531 1.349 . S
C2532 C2544 1.349 . S
C2533 C2531 1.327 . S
C2533 C2549 1.429 . S
C2533 H2555 0.950 . S
C2534 H2530 0.949 . S
C2534 C2542 1.574 . S
C2534 C2550 1.368 . S
H2535 C2543 0.950 . S
H2536 C2541 0.950 . S
H2537 C2542 0.949 . S
H2538 C2544 0.950 . S
H2539 C2545 0.950 . S
H2540 C2546 0.949 . S
C2541 H2536 0.950 . S
C2541 C2543 1.327 . S
C2541 C2547 1.429 . S
C2542 C2534 1.574 . S
C2542 H2537 0.949 . S
C2542 C2548 1.368 . S
C2543 C2527 1.349 . S
C2543 H2535 0.950 . S
C2543 C2541 1.327 . S
C2544 C2532 1.349 . S
C2544 H2538 0.950 . S
C2544 C2545 1.327 . S
C2545 H2539 0.950 . S
C2545 C2544 1.327 . S
C2545 C2549 1.429 . S
C2546 C2529 1.574 . S
C2546 H2540 0.949 . S
C2546 C2550 1.368 . S
C2547 C2528 1.429 . S
C2547 C2541 1.429 . S
C2547 C2548 1.523 . S
C2548 C2529 1.368 . S
C2548 C2542 1.368 . S
C2548 C2547 1.523 . S
C2549 C2533 1.429 . S
C2549 C2545 1.429 . S
C2549 C2550 1.523 . S
C2550 C2534 1.368 . S
C2550 C2546 1.368 . S
C2550 C2549 1.523 . S
H2551 C2526 0.950 . S
H2552 C2528 0.950 . S
H2553 C2529 0.949 . S
H2554 C2531 0.950 . S
H2555 C2533 0.950 . S
C937 C439 1.501 . S
C942 C585 1.563 . S
C967 C465 1.830 . S
C972 C625 1.805 . S
C997 C401 1.696 . S
C1002 C664 1.654 . S
C1027 C369 1.524 . S
C1032 C624 1.486 . S
C1062 C665 1.462 . S
C1057 C305 1.477 . S
C1087 C343 1.212 . S
C1092 C584 1.287 1_556 S
C1122 C595 1.602 . S
C1117 C375 1.639 . S
C1152 C635 1.763 . S
C1147 C311 1.787 . S
C1177 C337 1.587 . S
C1182 C674 1.669 . S
C1207 C433 1.441 . S
C1212 C634 1.485 . S
C1237 C471 1.435 . S
C1242 C675 1.420 . S
C1272 C594 1.329 . S
C1267 C407 1.351 . S
C1302 C705 1.564 . S
C1297 C55 1.501 . S
C1327 C81 1.830 . S
C1332 C745 1.805 . S
C1357 C17 1.696 . S
C1362 C784 1.654 . S
C1387 C561 1.524 . S
C1392 C744 1.486 . S
C1417 C497 1.476 . S
C1422 C785 1.462 . S
C1447 C535 1.212 . S
C1452 C704 1.287 . S
C1477 C567 1.639 . S
C1482 C715 1.602 . S
C1507 C503 1.788 . S
C1512 C755 1.763 . S
C1542 C794 1.655 . S
C1537 C529 1.586 . S
C1567 C49 1.440 . S
C1572 C754 1.485 . S
C1602 C795 1.420 . S
C1597 C87 1.435 . S
C1627 C23 1.351 . S
C1632 C714 1.330 . S
C1662 C825 1.563 . S
C1657 C247 1.501 . S
C1687 C273 1.830 . S
C1692 C865 1.805 . S
C1722 C904 1.653 . S
C1717 C209 1.695 . S
C1752 C864 1.485 . S
C1747 C177 1.524 . S
C1782 C905 1.462 . S
C1777 C113 1.476 . S
C1807 C151 1.212 . S
C1812 C824 1.287 . S
C1837 C183 1.640 . S
C1842 C835 1.602 . S
C1867 C119 1.787 . S
C1872 C875 1.763 . S
C1902 C914 1.656 . S
C1897 C145 1.587 . S
C1927 C241 1.441 . S
C1932 C874 1.485 . S
C1957 C279 1.435 . S
C1962 C915 1.420 . S
C1987 C215 1.350 . S
C1992 C834 1.329 . S
C2017 C509 1.289 . S
C2022 C581 1.303 . S
C2052 C621 1.838 . S
C2047 C541 1.736 . S
C2077 C573 1.558 . S
C2082 C671 1.566 . S
C2107 C221 1.868 . S
C2112 C631 1.867 . S
C2137 C253 1.464 . S
C2142 C661 1.535 . S
C2172 C591 1.297 . S
C2167 C285 1.283 . S
C2197 C125 1.289 . S
C2202 C701 1.304 . S
C2227 C157 1.736 . S
C2232 C741 1.838 . S
C2257 C189 1.558 . S
C2262 C791 1.567 . S
C2287 C413 1.867 . S
C2292 C751 1.867 . S
C2322 C781 1.534 . S
C2317 C445 1.464 . S
C2347 C477 1.283 . S
C2352 C711 1.297 . S
C2377 C317 1.289 . S
C2382 C821 1.304 . S
C2407 C349 1.736 . S
C2412 C861 1.839 . S
C2442 C911 1.566 . S
C2437 C381 1.558 . S
C2467 C29 1.867 . S
C2472 C871 1.866 . S
C2497 C61 1.464 . S
C2502 C901 1.535 . S
C2527 C93 1.283 . S
C2532 C831 1.297 . S
