# Generated by pormake.
# Topology anh, (6,3)-cn, num edge types: 1
# Building blocks:
#     Node 0, Type 0, BuildingBlock: NUHQIS_clean_sbu_0, # of connection points: 6
#     Node 1, Type 0, BuildingBlock: NUHQIS_clean_sbu_0, # of connection points: 6
#     Node 2, Type 0, BuildingBlock: NUHQIS_clean_sbu_0, # of connection points: 6
#     Node 3, Type 1, BuildingBlock: BELTOD_clean_linker_0, # of connection points: 3
#     Node 4, Type 1, BuildingBlock: BELTOD_clean_linker_0, # of connection points: 3
#     Node 5, Type 1, BuildingBlock: BELTOD_clean_linker_0, # of connection points: 3
#     Node 6, Type 1, BuildingBlock: BELTOD_clean_linker_0, # of connection points: 3
#     Node 7, Type 1, BuildingBlock: BELTOD_clean_linker_0, # of connection points: 3
#     Node 8, Type 1, BuildingBlock: BELTOD_clean_linker_0, # of connection points: 3
#     Edge 9, Type (0, 1), BuildingBlock: CIFDUS_clean_linker_0, # of connection points: 2
#     Edge 10, Type (0, 1), BuildingBlock: CIFDUS_clean_linker_0, # of connection points: 2
#     Edge 11, Type (0, 1), BuildingBlock: CIFDUS_clean_linker_0, # of connection points: 2
#     Edge 12, Type (0, 1), BuildingBlock: CIFDUS_clean_linker_0, # of connection points: 2
#     Edge 13, Type (0, 1), BuildingBlock: CIFDUS_clean_linker_0, # of connection points: 2
#     Edge 14, Type (0, 1), BuildingBlock: CIFDUS_clean_linker_0, # of connection points: 2
#     Edge 15, Type (0, 1), BuildingBlock: CIFDUS_clean_linker_0, # of connection points: 2
#     Edge 16, Type (0, 1), BuildingBlock: CIFDUS_clean_linker_0, # of connection points: 2
#     Edge 17, Type (0, 1), BuildingBlock: CIFDUS_clean_linker_0, # of connection points: 2
#     Edge 18, Type (0, 1), BuildingBlock: CIFDUS_clean_linker_0, # of connection points: 2
#     Edge 19, Type (0, 1), BuildingBlock: CIFDUS_clean_linker_0, # of connection points: 2
#     Edge 20, Type (0, 1), BuildingBlock: CIFDUS_clean_linker_0, # of connection points: 2
#     Edge 21, Type (0, 1), BuildingBlock: CIFDUS_clean_linker_0, # of connection points: 2
#     Edge 22, Type (0, 1), BuildingBlock: CIFDUS_clean_linker_0, # of connection points: 2
#     Edge 23, Type (0, 1), BuildingBlock: CIFDUS_clean_linker_0, # of connection points: 2
#     Edge 24, Type (0, 1), BuildingBlock: CIFDUS_clean_linker_0, # of connection points: 2
#     Edge 25, Type (0, 1), BuildingBlock: CIFDUS_clean_linker_0, # of connection points: 2
#     Edge 26, Type (0, 1), BuildingBlock: CIFDUS_clean_linker_0, # of connection points: 2
# Relax obj value: 0.274
# Max RMSD: 0.188
# Mean RMSD: 0.152
data_MOF--net-anh--node1-NUHQIS_clean_sbu_0--node2-BELTOD_clean_linker_0--edge1-CIFDUS_clean_linker_0
_symmetry_space_group_name_H-M    P1
_symmetry_Int_Tables_number       1
_symmetry_cell_setting            triclinic
loop_
_symmetry_equiv_pos_as_xyz
'x, y, z'
_cell_length_a     32.379323
_cell_length_b     32.344194
_cell_length_c     55.432727
_cell_angle_alpha  90.484215
_cell_angle_beta   93.417296
_cell_angle_gamma 119.74949
loop_
_atom_site_label
_atom_site_type_symbol
_atom_site_fract_x
_atom_site_fract_y
_atom_site_fract_z
_atom_type_partial_charge
Tb0 Tb 0.10021 0.54689 0.15275 0.0
Eu1 Eu 1.05164 0.60917 0.15424 0.0
C2 C 0.09149 0.58446 0.20212 0.0
C3 C 0.98431 0.49013 0.16025 0.0
C4 C 0.18219 0.49379 0.15696 0.0
C5 C 0.21462 0.44676 0.17493 0.0
C6 C 0.17841 0.45824 0.17252 0.0
C7 C 0.22457 0.52049 0.14546 0.0
C8 C 0.26078 0.50893 0.14784 0.0
C9 C 0.25504 0.47039 0.16164 0.0
C10 C 0.139 0.49635 0.14984 0.0
O11 O 0.06539 0.53813 0.11649 0.0
O12 O 0.07175 0.61054 0.11515 0.0
O13 O 0.13151 0.6691 0.16115 0.0
O14 O 0.16494 0.62285 0.15335 0.0
C15 C 0.06727 0.57274 0.10365 0.0
O16 O 1.00575 0.63241 0.13604 0.0
O17 O 1.03484 0.65834 0.17276 0.0
O18 O 1.05438 0.58565 0.19228 0.0
O19 O 0.12067 0.58006 0.18854 0.0
O20 O 1.0258 0.49045 0.1626 0.0
O21 O 0.98614 0.53096 0.15439 0.0
C22 C 0.17064 0.66622 0.15874 0.0
O23 O 0.11153 0.49309 0.16686 0.0
O24 O 0.14201 0.52689 0.13377 0.0
C25 C 0.95455 0.63574 0.16247 0.0
C26 C 0.85509 0.58175 0.16342 0.0
C27 C 0.87617 0.62456 0.15115 0.0
C28 C 0.9257 0.65131 0.1506 0.0
C29 C 0.93382 0.5957 0.17676 0.0
C30 C 0.8844 0.56894 0.17728 0.0
C31 C 1.00331 0.65369 0.15555 0.0
H32 H 0.20959 0.41731 0.18593 0.0
H33 H 0.14606 0.43709 0.18156 0.0
H34 H 0.22853 0.54812 0.13334 0.0
H35 H 0.2914 0.52761 0.13725 0.0
H36 H 0.8544 0.63505 0.14015 0.0
H37 H 0.94112 0.68178 0.13927 0.0
H38 H 0.95552 0.58283 0.18589 0.0
H39 H 0.869 0.53631 0.18702 0.0
Tb40 Tb 0.62396 0.10766 0.48855 0.0
Eu41 Eu 0.51244 0.05526 0.49089 0.0
C42 C 0.58156 0.08866 0.53712 0.0
C43 C 0.56689 0.98964 0.49478 0.0
C44 C 0.74329 0.20105 0.50641 0.0
C45 C 0.74907 0.27294 0.52401 0.0
C46 C 0.72186 0.22484 0.51681 0.0
C47 C 0.79276 0.22441 0.50546 0.0
C48 C 0.82018 0.27235 0.51305 0.0
C49 C 0.79821 0.29754 0.52132 0.0
C50 C 0.71332 0.1541 0.49428 0.0
O51 O 0.60306 0.08914 0.44997 0.0
O52 O 0.52388 0.06649 0.45042 0.0
O53 O 0.53199 0.1352 0.49676 0.0
O54 O 0.61003 0.17037 0.48773 0.0
C55 C 0.56169 0.07686 0.43838 0.0
O56 O 0.44049 1.00677 0.4753 0.0
O57 O 0.45058 0.04104 0.51061 0.0
O58 O 0.5444 0.05058 0.52746 0.0
O59 O 0.60609 0.12291 0.52306 0.0
O60 O 0.60799 1.0308 0.49383 0.0
O61 O 0.52654 0.99122 0.49257 0.0
C62 C 0.57273 0.1749 0.49352 0.0
O63 O 0.68679 0.12033 0.5083 0.0
O64 O 0.68927 0.15414 0.47454 0.0
C65 C 0.39519 0.95903 0.5053 0.0
C66 C 0.35958 0.86169 0.51196 0.0
C67 C 0.33217 0.87703 0.49825 0.0
C68 C 0.35007 0.92559 0.49482 0.0
C69 C 0.42007 0.94382 0.52114 0.0
C70 C 0.40238 0.89538 0.52439 0.0
C71 C 0.42118 1.00641 0.49536 0.0
H72 H 0.73136 0.29162 0.53018 0.0
H73 H 0.68371 0.20709 0.51804 0.0
H74 H 0.80981 0.20651 0.49755 0.0
H75 H 0.85798 0.29072 0.5104 0.0
H76 H 0.29922 0.85137 0.48831 0.0
H77 H 0.3307 0.93661 0.48233 0.0
H78 H 0.45522 0.96895 0.52925 0.0
H79 H 0.42395 0.88407 0.53498 0.0
Tb80 Tb 0.56705 0.60239 0.8266 0.0
Eu81 Eu 0.5059 0.4935 0.81326 0.0
C82 C 0.54005 0.5309 0.8669 0.0
C83 C 0.62621 0.54441 0.82433 0.0
C84 C 0.61341 0.73171 0.84515 0.0
C85 C 0.57061 0.77524 0.8477 0.0
C86 C 0.57021 0.73203 0.84471 0.0
C87 C 0.65632 0.77367 0.8511 0.0
C88 C 0.65686 0.81672 0.85384 0.0
C89 C 0.61425 0.81848 0.85073 0.0
C90 C 0.61598 0.691 0.83538 0.0
O91 O 0.57719 0.59358 0.78803 0.0
O92 O 0.50703 0.52693 0.77749 0.0
O93 O 0.44673 0.51125 0.8241 0.0
O94 O 0.49217 0.59246 0.82485 0.0
C95 C 0.54502 0.56489 0.77107 0.0
O96 O 0.48442 0.43264 0.78837 0.0
O97 O 0.45503 0.42158 0.82341 0.0
O98 O 0.53949 0.5016 0.85055 0.0
O99 O 0.53875 0.56903 0.86045 0.0
O100 O 0.62536 0.58308 0.83207 0.0
O101 O 0.58541 0.50828 0.81417 0.0
C102 C 0.44929 0.55358 0.82627 0.0
O103 O 0.61459 0.65972 0.85044 0.0
O104 O 0.59079 0.67132 0.81508 0.0
C105 C 0.48224 0.37073 0.81009 0.0
C106 C 0.53931 0.32804 0.81164 0.0
C107 C 0.49774 0.30892 0.79598 0.0
C108 C 0.46944 0.3305 0.79507 0.0
C109 C 0.52155 0.3871 0.82715 0.0
C110 C 0.55005 0.36608 0.82781 0.0
C111 C 0.46238 0.40191 0.80468 0.0
H112 H 0.53707 0.77509 0.84581 0.0
H113 H 0.53662 0.6996 0.84035 0.0
H114 H 0.68994 0.77387 0.85155 0.0
H115 H 0.69132 0.84888 0.85595 0.0
H116 H 0.4893 0.27979 0.7832 0.0
H117 H 0.43971 0.31792 0.78155 0.0
H118 H 0.53243 0.41844 0.83873 0.0
H119 H 0.5821 0.38137 0.83993 0.0
P120 P 0.59006 0.07273 0.20748 0.0
H121 H 0.55035 0.98024 0.17563 0.0
H122 H 0.47192 0.90866 0.16711 0.0
H123 H 0.40753 0.97694 0.20445 0.0
H124 H 0.48563 0.04796 0.21262 0.0
H125 H 0.69613 0.11778 0.2158 0.0
H126 H 0.7673 0.19052 0.20779 0.0
H127 H 0.68245 0.24163 0.17027 0.0
H128 H 0.60901 0.16666 0.17908 0.0
H129 H 0.53415 1.00507 0.24427 0.0
H130 H 0.63497 0.15548 0.24398 0.0
O131 O 0.61659 1.03972 0.20839 0.0
H132 H 0.53236 1.01114 0.28819 0.0
H133 H 0.63425 0.1613 0.28797 0.0
C134 C 0.5269 1.02308 0.19445 0.0
C135 C 0.51954 0.9811 0.18156 0.0
C136 C 0.47329 0.93847 0.17687 0.0
C137 C 0.42994 0.93378 0.18467 0.0
C138 C 0.43747 0.97633 0.19721 0.0
C139 C 0.48368 1.0188 0.20193 0.0
C140 C 0.64415 0.1325 0.19762 0.0
C141 C 0.69142 0.14339 0.20531 0.0
C142 C 0.7339 0.18685 0.20048 0.0
C143 C 0.73416 0.22487 0.18743 0.0
C144 C 0.68658 0.21504 0.18014 0.0
C145 C 0.64327 0.17072 0.18512 0.0
C146 C 0.58405 0.07989 0.24011 0.0
C147 C 0.55522 1.03977 0.25341 0.0
C148 C 0.5543 0.04319 0.27881 0.0
C149 C 0.5832 0.08669 0.29206 0.0
C150 C 0.61166 0.12698 0.27868 0.0
C151 C 0.61193 0.12369 0.25323 0.0
P152 P 0.58764 0.59139 0.54117 0.0
H153 H 0.63811 0.55334 0.50987 0.0
H154 H 0.63081 0.47513 0.50143 0.0
H155 H 0.50327 0.40915 0.53985 0.0
H156 H 0.51054 0.48674 0.54779 0.0
H157 H 0.62965 0.6657 0.50286 0.0
H158 H 0.63002 0.73954 0.49321 0.0
H159 H 0.52444 0.70966 0.54406 0.0
H160 H 0.5245 0.63554 0.55379 0.0
H161 H 0.64971 0.61757 0.58702 0.0
H162 H 0.49887 0.55136 0.56768 0.0
O163 O 0.6471 0.62049 0.54177 0.0
H164 H 0.63471 0.60782 0.62966 0.0
H165 H 0.48347 0.5424 0.61061 0.0
C166 C 0.57438 0.52884 0.52924 0.0
C167 C 0.60754 0.52221 0.51611 0.0
C168 C 0.60365 0.47617 0.51145 0.0
C169 C 0.56617 0.43255 0.51954 0.0
C170 C 0.53272 0.43945 0.53241 0.0
C171 C 0.53673 0.4854 0.53709 0.0
C172 C 0.57634 0.64155 0.52899 0.0
C173 C 0.60537 0.67362 0.51176 0.0
C174 C 0.6061 0.71762 0.50642 0.0
C175 C 0.5777 0.73369 0.51775 0.0
C176 C 0.54721 0.70071 0.53439 0.0
C177 C 0.54698 0.6568 0.53998 0.0
C178 C 0.57551 0.58536 0.57357 0.0
C179 C 0.61314 0.60123 0.59178 0.0
C180 C 0.60449 0.59587 0.61654 0.0
C181 C 0.55773 0.57424 0.6242 0.0
C182 C 0.52005 0.55863 0.60586 0.0
C183 C 0.52881 0.56402 0.58105 0.0
P184 P 1.05505 0.57497 0.87083 0.0
H185 H 0.1387 0.62086 0.83818 0.0
H186 H 0.20805 0.61221 0.83078 0.0
H187 H 0.15256 0.48867 0.87403 0.0
H188 H 0.0836 0.49797 0.88159 0.0
H189 H 0.9881 0.59464 0.89705 0.0
H190 H 0.91168 0.59024 0.88904 0.0
H191 H 0.89558 0.52388 0.81899 0.0
H192 H 0.97427 0.52856 0.82729 0.0
H193 H 0.12327 0.64583 0.90817 0.0
H194 H 1.00089 0.50499 0.90776 0.0
O195 O 0.08174 0.63265 0.86475 0.0
H196 H 0.12753 0.65101 0.95225 0.0
H197 H 1.00469 0.50998 0.95226 0.0
C198 C 0.10233 0.55945 0.86014 0.0
C199 C 0.14011 0.59092 0.84587 0.0
C200 C 0.18144 0.58628 0.84177 0.0
C201 C 0.18873 0.54947 0.85146 0.0
C202 C 0.15044 0.51754 0.86546 0.0
C203 C 0.10937 0.52258 0.8698 0.0
C204 C 0.9893 0.56034 0.86359 0.0
C205 C 0.96852 0.57761 0.88002 0.0
C206 C 0.92355 0.57574 0.87512 0.0
C207 C 0.89455 0.55665 0.85311 0.0
C208 C 0.91464 0.53854 0.83643 0.0
C209 C 0.96072 0.54104 0.84131 0.0
C210 C 0.06129 0.57525 0.90421 0.0
C211 C 0.09722 0.61574 0.9175 0.0
C212 C 0.09942 0.61881 0.94297 0.0
C213 C 0.06598 0.58131 0.95629 0.0
C214 C 1.03124 0.53975 0.94296 0.0
C215 C 1.02895 0.53681 0.91734 0.0
P216 P 0.10564 0.49032 0.41896 0.0
H217 H 0.14833 0.48073 0.46438 0.0
H218 H 0.20955 0.54294 0.49227 0.0
H219 H 0.25059 0.64226 0.43493 0.0
H220 H 0.1885 0.58089 0.40749 0.0
H221 H 1.00335 0.43009 0.42122 0.0
H222 H 0.94822 0.42773 0.45012 0.0
H223 H 0.06093 0.55652 0.48655 0.0
H224 H 0.11533 0.56045 0.4568 0.0
H225 H 0.13353 0.47391 0.37257 0.0
H226 H 0.06676 0.54974 0.40012 0.0
O227 O 0.09383 0.43393 0.41708 0.0
H228 H 0.12447 0.49761 0.33169 0.0
H229 H 1.05753 0.57348 0.35929 0.0
C230 C 0.16371 0.52641 0.43398 0.0
C231 C 0.17219 0.51522 0.4575 0.0
C232 C 0.20691 0.55072 0.47346 0.0
C233 C 0.2343 0.59723 0.46572 0.0
C234 C 0.23006 0.60649 0.44125 0.0
C235 C 0.19452 0.57136 0.4255 0.0
C236 C 0.06382 0.494 0.43754 0.0
C237 C 1.0159 0.45844 0.43504 0.0
C238 C 0.98439 0.45754 0.45136 0.0
C239 C 1.00062 0.492 0.47054 0.0
C240 C 1.04776 0.5297 0.4719 0.0
C241 C 0.07895 0.53128 0.45512 0.0
C242 C 0.10006 0.5093 0.38922 0.0
C243 C 0.11694 0.49564 0.3698 0.0
C244 C 0.11196 0.50943 0.34652 0.0
C245 C 0.09011 0.53724 0.34236 0.0
C246 C 0.07391 0.55153 0.36197 0.0
C247 C 0.07924 0.53799 0.38529 0.0
P248 P 0.79701 0.18914 0.74405 0.0
H249 H 0.79415 0.21724 0.79384 0.0
H250 H 0.76019 0.26316 0.81025 0.0
H251 H 0.74851 0.31047 0.73889 0.0
H252 H 0.78173 0.26371 0.72234 0.0
H253 H 0.83341 0.13482 0.77122 0.0
H254 H 0.79747 0.07248 0.80043 0.0
H255 H 0.66528 0.07464 0.78965 0.0
H256 H 0.70116 0.13645 0.76058 0.0
H257 H 0.82875 0.17199 0.6985 0.0
H258 H 0.70216 0.16613 0.7232 0.0
O259 O 0.8554 0.20909 0.74376 0.0
H260 H 0.79157 0.15186 0.65715 0.0
H261 H 0.66474 0.14539 0.68211 0.0
C262 C 0.78806 0.23518 0.7567 0.0
C263 C 0.78512 0.23812 0.78174 0.0
C264 C 0.76594 0.26445 0.79115 0.0
C265 C 0.75097 0.28932 0.7757 0.0
C266 C 0.75963 0.29124 0.7511 0.0
C267 C 0.77826 0.2643 0.74163 0.0
C268 C 0.76969 0.13958 0.76335 0.0
C269 C 0.79658 0.12148 0.77494 0.0
C270 C 0.7762 0.08638 0.79187 0.0
C271 C 0.72865 0.06898 0.79742 0.0
C272 C 0.70182 0.08704 0.78559 0.0
C273 C 0.72221 0.12205 0.76873 0.0
C274 C 0.76841 0.17088 0.71394 0.0
C275 C 0.79287 0.16597 0.69512 0.0
C276 C 0.77159 0.15445 0.67151 0.0
C277 C 0.72529 0.14715 0.66644 0.0
C278 C 0.7002 0.15024 0.68552 0.0
C279 C 0.72166 0.16214 0.70905 0.0
P280 P 0.46586 0.30938 0.05565 0.0
H281 H 0.51677 0.27393 0.08666 0.0
H282 H 0.59275 0.31581 0.11141 0.0
H283 H 0.62138 0.44798 0.07942 0.0
H284 H 0.5459 0.40665 0.05539 0.0
H285 H 0.36454 0.27847 0.05351 0.0
H286 H 0.31628 0.29415 0.0805 0.0
H287 H 0.43747 0.36354 0.13293 0.0
H288 H 0.48548 0.34892 0.10597 0.0
H289 H 0.48711 0.30347 0.00585 0.0
H290 H 0.44582 0.38782 0.04811 0.0
O291 O 0.44648 0.25243 0.04781 0.0
H292 H 0.49592 0.35304 0.97132 0.0
H293 H 0.455 0.43777 0.01377 0.0
C294 C 0.52606 0.33695 0.06887 0.0
C295 C 0.54011 0.31168 0.08457 0.0
C296 C 0.58327 0.33564 0.09879 0.0
C297 C 0.6125 0.38524 0.0976 0.0
C298 C 0.59908 0.4099 0.08109 0.0
C299 C 0.55614 0.38606 0.067 0.0
C300 C 0.42866 0.3128 0.07751 0.0
C301 C 0.38036 0.29621 0.07102 0.0
C302 C 0.35282 0.30501 0.08651 0.0
C303 C 0.37331 0.33045 0.10875 0.0
C304 C 0.42097 0.34449 0.11576 0.0
C305 C 0.44844 0.33588 0.10026 0.0
C306 C 0.46475 0.34119 0.02933 0.0
C307 C 0.47909 0.33209 0.00755 0.0
C308 C 0.48466 0.36082 0.98794 0.0
C309 C 0.47643 0.39953 0.98988 0.0
C310 C 0.46108 0.40794 0.01163 0.0
C311 C 0.45562 0.3792 0.03125 0.0
H312 H 0.22741 0.37759 0.1535 0.0
H313 H 0.35256 0.51729 0.16177 0.0
H314 H 0.40155 0.48445 0.14842 0.0
H315 H 0.40631 0.41831 0.12953 0.0
H316 H 0.28043 0.27926 0.12006 0.0
H317 H 0.23394 0.30967 0.13901 0.0
C318 C 0.26565 0.40065 0.15313 0.0
C319 C 0.28639 0.44982 0.15857 0.0
C320 C 0.29317 0.38178 0.14489 0.0
C321 C 0.33582 0.47938 0.1575 0.0
C322 C 0.36373 0.46064 0.14983 0.0
C323 C 0.36899 0.39432 0.13219 0.0
C324 C 0.3467 0.34667 0.12329 0.0
C325 C 0.34245 0.41221 0.14272 0.0
C326 C 0.29815 0.31623 0.12649 0.0
C327 C 0.27165 0.33356 0.13735 0.0
H328 H 0.88422 0.3583 0.54453 0.0
H329 H 0.77182 0.35376 0.49685 0.0
H330 H 0.82792 0.42939 0.48058 0.0
H331 H 0.91113 0.47856 0.47052 0.0
H332 H 1.02386 0.48001 0.51651 0.0
H333 H 0.96596 0.42543 0.54336 0.0
C334 C 0.87179 0.37526 0.53147 0.0
C335 C 0.8247 0.35004 0.52123 0.0
C336 C 0.90467 0.41779 0.52148 0.0
C337 C 0.80826 0.37235 0.50472 0.0
C338 C 0.84048 0.41537 0.49516 0.0
C339 C 0.92296 0.46885 0.48716 0.0
C340 C 0.97109 0.48174 0.49126 0.0
C341 C 0.88929 0.43591 0.50191 0.0
C342 C 0.98669 0.46988 0.51293 0.0
C343 C 0.95352 0.43812 0.52811 0.0
H344 H 0.67747 0.90723 0.87074 0.0
H345 H 0.55783 0.83438 0.81767 0.0
H346 H 0.57906 0.9091 0.79893 0.0
H347 H 0.64131 0.9902 0.79174 0.0
H348 H 0.76629 0.06133 0.84153 0.0
H349 H 0.73443 0.99191 0.86672 0.0
C350 C 0.65565 0.90775 0.85525 0.0
C351 C 0.61702 0.86474 0.84528 0.0
C352 C 0.67007 0.95034 0.84335 0.0
C353 C 0.58791 0.86656 0.82586 0.0
C354 C 0.60051 0.90933 0.81477 0.0
C355 C 0.66102 0.991 0.80843 0.0
C356 C 0.70643 1.03037 0.81456 0.0
C357 C 0.64308 0.95068 0.82244 0.0
C358 C 0.7317 1.03087 0.83617 0.0
C359 C 0.71339 0.99135 0.85063 0.0
H360 H 0.81753 0.48881 0.15049 0.0
H361 H 0.77899 0.59683 0.1627 0.0
H362 H 0.69782 0.54251 0.14549 0.0
H363 H 0.64137 0.46809 0.12293 0.0
H364 H 0.68175 0.36209 0.10867 0.0
H365 H 0.75859 0.41143 0.13144 0.0
C366 C 0.79096 0.49995 0.1501 0.0
C367 C 0.80405 0.54667 0.15786 0.0
C368 C 0.74503 0.46911 0.13961 0.0
C369 C 0.76962 0.56105 0.15673 0.0
C370 C 0.72339 0.53011 0.14684 0.0
C371 C 0.66699 0.45577 0.12489 0.0
C372 C 0.65642 0.41201 0.11378 0.0
C373 C 0.71129 0.48472 0.13749 0.0
C374 C 0.68921 0.39573 0.11701 0.0
C375 C 0.73318 0.42401 0.12991 0.0
H376 H 0.28231 0.78086 0.52512 0.0
H377 H 0.41307 0.8329 0.48987 0.0
H378 H 0.38986 0.75206 0.47583 0.0
H379 H 0.32589 0.66927 0.46752 0.0
H380 H 0.19467 0.61688 0.50244 0.0
H381 H 0.22464 0.69448 0.52317 0.0
C382 C 0.30606 0.774 0.51496 0.0
C383 C 0.34919 0.81224 0.5085 0.0
C384 C 0.29219 0.72744 0.50674 0.0
C385 C 0.37996 0.80356 0.49527 0.0
C386 C 0.36651 0.75748 0.48705 0.0
C387 C 0.30474 0.67459 0.48035 0.0
C388 C 0.25829 0.63789 0.48342 0.0
C389 C 0.32186 0.71946 0.49184 0.0
C390 C 0.23081 0.64475 0.5 0.0
C391 C 0.24766 0.68925 0.51161 0.0
H392 H 0.62723 0.38371 0.79758 0.0
H393 H 0.53099 0.24075 0.81788 0.0
H394 H 0.59101 0.21754 0.81071 0.0
H395 H 0.66891 0.23732 0.79653 0.0
H396 H 0.76212 0.37841 0.77274 0.0
H397 H 0.70509 0.4034 0.78326 0.0
C398 C 0.61983 0.34766 0.80067 0.0
C399 C 0.57538 0.3139 0.80843 0.0
C400 C 0.65378 0.33452 0.79585 0.0
C401 C 0.56527 0.26706 0.81197 0.0
C402 C 0.59946 0.25395 0.80789 0.0
C403 C 0.67703 0.27381 0.79418 0.0
C404 C 0.71969 0.30638 0.78429 0.0
C405 C 0.6436 0.2873 0.79962 0.0
C406 C 0.72955 0.35312 0.78057 0.0
C407 C 0.69703 0.36729 0.78657 0.0
H408 H 0.63657 0.95647 0.49378 0.0
H409 H 0.4897 0.9053 0.50715 0.0
H410 H 0.47946 0.827 0.5158 0.0
H411 H 0.51038 0.76878 0.51963 0.0
H412 H 0.65649 0.81867 0.50473 0.0
H413 H 0.66718 0.89731 0.49681 0.0
C414 C 0.60202 0.92853 0.4985 0.0
C415 C 0.56399 0.93963 0.49959 0.0
C416 C 0.59558 0.8811 0.50324 0.0
C417 C 0.52019 0.90042 0.50586 0.0
C418 C 0.51409 0.8545 0.51091 0.0
C419 C 0.5449 0.79644 0.5147 0.0
C420 C 0.58227 0.78458 0.51289 0.0
C421 C 0.55128 0.84366 0.5097 0.0
C422 C 0.62597 0.82351 0.50617 0.0
C423 C 0.63248 0.86986 0.50166 0.0
H424 H 0.72044 0.60827 0.84702 0.0
H425 H 0.64232 0.47104 0.80929 0.0
H426 H 0.71328 0.46217 0.81356 0.0
H427 H 0.80071 0.49252 0.82797 0.0
H428 H 0.87694 0.62905 0.86669 0.0
H429 H 0.8065 0.63784 0.86185 0.0
C430 C 0.71834 0.57621 0.83951 0.0
C431 C 0.67353 0.54063 0.82745 0.0
C432 C 0.76068 0.57078 0.84218 0.0
C433 C 0.6744 0.49978 0.81846 0.0
C434 C 0.71592 0.49455 0.82092 0.0
C435 C 0.80259 0.52455 0.83538 0.0
C436 C 0.84696 0.55989 0.84809 0.0
C437 C 0.75992 0.52971 0.8327 0.0
C438 C 0.84535 0.60028 0.85722 0.0
C439 C 0.80414 0.60567 0.85431 0.0
H440 H 0.20158 0.7653 0.171 0.0
H441 H 0.26122 0.67588 0.15542 0.0
H442 H 0.34176 0.74518 0.16133 0.0
H443 H 0.39912 0.83381 0.17141 0.0
H444 H 0.3379 0.92244 0.1864 0.0
H445 H 0.25854 0.85348 0.18058 0.0
C446 C 0.23182 0.76028 0.16877 0.0
C447 C 0.22244 0.71267 0.16246 0.0
C448 C 0.27999 0.80176 0.17235 0.0
C449 C 0.26457 0.71005 0.16005 0.0
C450 C 0.31176 0.75063 0.16354 0.0
C451 C 0.36892 0.83895 0.17344 0.0
C452 C 0.37819 0.88661 0.17999 0.0
C453 C 0.32068 0.79724 0.16975 0.0
C454 C 0.3356 0.88869 0.18213 0.0
C455 C 0.28865 0.84815 0.17852 0.0
H456 H 0.50525 0.20492 0.50542 0.0
H457 H 0.65279 0.2652 0.49056 0.0
H458 H 0.66443 0.3455 0.49661 0.0
H459 H 0.63398 0.40237 0.50658 0.0
H460 H 0.48566 0.34085 0.52077 0.0
H461 H 0.47477 0.26155 0.51484 0.0
C462 C 0.5402 0.23527 0.50335 0.0
C463 C 0.57788 0.22626 0.49717 0.0
C464 C 0.54714 0.2833 0.50699 0.0
C465 C 0.62235 0.2684 0.495 0.0
C466 C 0.62923 0.31543 0.49858 0.0
C467 C 0.59888 0.3721 0.5084 0.0
C468 C 0.56111 0.38108 0.51478 0.0
C469 C 0.59206 0.32404 0.50463 0.0
C470 C 0.51667 0.33855 0.51667 0.0
C471 C 0.50996 0.29172 0.51299 0.0
H472 H 0.35154 0.48505 0.83667 0.0
H473 H 0.44006 0.63481 0.82532 0.0
H474 H 0.37262 0.64719 0.83116 0.0
H475 H 0.28612 0.61709 0.83988 0.0
H476 H 0.19817 0.46751 0.8522 0.0
H477 H 0.26521 0.45516 0.84595 0.0
C478 C 0.3567 0.52067 0.83536 0.0
C479 C 0.40348 0.55876 0.83018 0.0
C480 C 0.31635 0.52821 0.83915 0.0
C481 C 0.40646 0.60406 0.82905 0.0
C482 C 0.36698 0.61138 0.83247 0.0
C483 C 0.28079 0.58142 0.84122 0.0
C484 C 0.2342 0.54359 0.84697 0.0
C485 C 0.32124 0.57395 0.83758 0.0
C486 C 0.23154 0.4984 0.84841 0.0
C487 C 0.27081 0.49095 0.84459 0.0
H488 H 0.95707 0.39142 0.17024 0.0
H489 H 0.89336 0.48007 0.16046 0.0
H490 H 0.81507 0.41199 0.16721 0.0
H491 H 0.76039 0.32411 0.17625 0.0
H492 H 0.82554 0.23613 0.18463 0.0
H493 H 0.90272 0.30409 0.17838 0.0
C494 C 0.92643 0.39657 0.16948 0.0
C495 C 0.93411 0.44372 0.16458 0.0
C496 C 0.87935 0.35561 0.17336 0.0
C497 C 0.8914 0.4463 0.16396 0.0
C498 C 0.84541 0.40637 0.1679 0.0
C499 C 0.79102 0.31898 0.17675 0.0
C500 C 0.78366 0.27181 0.18183 0.0
C501 C 0.83811 0.36018 0.17266 0.0
C502 C 0.82665 0.26967 0.18184 0.0
C503 C 0.87232 0.30962 0.17791 0.0
H504 H 0.08196 0.64007 0.06901 0.0
H505 H 1.04427 0.49292 0.07595 0.0
H506 H 1.03959 0.48206 0.03214 0.0
H507 H 1.04749 0.51396 0.99115 0.0
H508 H 0.08606 0.66124 0.98388 0.0
H509 H 0.08931 0.67195 0.02771 0.0
C510 C 0.07251 0.60554 0.06099 0.0
C511 C 0.06344 0.56745 0.07626 0.0
C512 C 0.07027 0.59937 0.03533 0.0
C513 C 1.05156 0.52316 0.06509 0.0
C514 C 1.04884 0.51678 0.03981 0.0
C515 C 1.05629 0.54839 -0.00096 0.0
C516 C 0.06683 0.58671 0.98368 0.0
C517 C 1.05826 0.55458 0.02464 0.0
C518 C 0.07857 0.63103 -0.0052 0.0
C519 C 0.08016 0.63723 0.02008 0.0
H520 H 0.63347 0.11701 0.40685 0.0
H521 H 0.48058 1.03151 0.40739 0.0
H522 H 0.47336 1.02616 0.3631 0.0
H523 H 0.51036 0.04549 0.3235 0.0
H524 H 0.66302 0.1342 0.32335 0.0
H525 H 0.67003 0.13857 0.36751 0.0
C526 C 0.59845 0.0971 0.39736 0.0
C527 C 0.55764 0.07449 0.41091 0.0
C528 C 0.59439 0.0948 0.37159 0.0
C529 C 0.51276 0.0494 0.39785 0.0
C530 C 0.50857 0.04624 0.37233 0.0
C531 C 0.54523 0.06576 0.33308 0.0
C532 C 0.5861 0.08958 0.31961 0.0
C533 C 0.54911 0.06872 0.35889 0.0
C534 C 0.63074 0.11593 0.33278 0.0
C535 C 0.63486 0.11825 0.35824 0.0
H536 H 0.48931 0.50989 0.73069 0.0
H537 H 0.61988 0.64042 0.751 0.0
H538 H 0.63512 0.65503 0.70837 0.0
H539 H 0.61196 0.63108 0.66484 0.0
H540 H 0.48207 0.49955 0.64468 0.0
H541 H 0.46622 0.48593 0.68715 0.0
C542 C 0.5211 0.54169 0.72589 0.0
C543 C 0.55329 0.57393 0.74451 0.0
C544 C 0.52991 0.55 0.70104 0.0
C545 C 0.59425 0.61476 0.73746 0.0
C546 C 0.60309 0.62321 0.7129 0.0
C547 C 0.58026 0.59916 0.66958 0.0
C548 C 0.5483 0.56668 0.65091 0.0
C549 C 0.57131 0.59106 0.69444 0.0
C550 C 0.5072 0.52599 0.65807 0.0
C551 C 0.49816 0.51784 0.68261 0.0
H552 H 0.66907 0.15191 0.55648 0.0
H553 H 0.53529 1.03326 0.57481 0.0
H554 H 0.56805 0.04057 0.61679 0.0
H555 H 0.63545 0.08139 0.64813 0.0
H556 H 0.76908 0.19808 0.62812 0.0
H557 H 0.73563 0.19044 0.58668 0.0
C558 C 0.64676 0.12769 0.56962 0.0
C559 C 0.59959 0.09241 0.56263 0.0
C560 C 0.66602 0.13157 0.59333 0.0
C561 C 0.57162 0.06089 0.57983 0.0
C562 C 0.59038 0.06505 0.60377 0.0
C563 C 0.6571 0.10504 0.63463 0.0
C564 C 0.70474 0.14015 0.64112 0.0
C565 C 0.63761 0.10032 0.61071 0.0
C566 C 0.7326 0.17037 0.62348 0.0
C567 C 0.71341 0.16627 0.59984 0.0
H568 H 0.47741 0.51957 0.90018 0.0
H569 H 0.60433 0.51228 0.88931 0.0
H570 H 0.59803 0.47425 0.92785 0.0
H571 H 0.55178 0.43531 0.96217 0.0
H572 H 0.42129 0.43655 0.97206 0.0
H573 H 0.43368 0.48505 0.93665 0.0
C574 C 0.50432 0.51089 0.90674 0.0
C575 C 0.54157 0.51902 0.89229 0.0
C576 C 0.49928 0.48716 0.92848 0.0
C577 C 0.57569 0.50663 0.90043 0.0
C578 C 0.57186 0.48457 0.92231 0.0
C579 C 0.52599 0.44612 0.95656 0.0
C580 C 0.4853 0.43169 0.96947 0.0
C581 C 0.53294 0.47321 0.93604 0.0
C582 C 0.45289 0.44712 0.96238 0.0
C583 C 0.45988 0.47473 0.9421 0.0
H584 H 1.02842 0.56641 0.23659 0.0
H585 H 0.1742 0.60406 0.22697 0.0
H586 H 0.1874 0.59606 0.2699 0.0
H587 H 0.15627 0.57247 0.30949 0.0
H588 H 1.01031 0.53236 0.31969 0.0
H589 H 0.99865 0.54796 0.27739 0.0
C590 C 0.0632 0.57351 0.244 0.0
C591 C 0.10005 0.58525 0.22859 0.0
C592 C 0.07048 0.56815 0.26877 0.0
C593 C 0.145 0.59436 0.2384 0.0
C594 C 0.15267 0.58982 0.26296 0.0
C595 C 0.12193 0.56721 0.30243 0.0
C596 C 0.08407 0.55077 0.31751 0.0
C597 C 0.11539 0.57562 0.27817 0.0
C598 C 1.04003 0.54509 0.30836 0.0
C599 C 1.03329 0.55376 0.28417 0.0
loop_
_geom_bond_atom_site_label_1
_geom_bond_atom_site_label_2
_geom_bond_distance
_geom_bond_site_symmetry_2
_ccdc_geom_bond_type
Tb0 C10 2.825 . S
Tb0 O11 2.347 . S
Tb0 O14 2.366 . S
Tb0 O19 2.418 . S
Tb0 O20 2.384 1_455 S
Tb0 O23 2.479 . S
Tb0 O24 2.471 . S
Eu1 O12 2.418 . S
Eu1 O13 2.384 1_655 S
Eu1 O16 2.479 . S
Eu1 O17 2.471 . S
Eu1 O18 2.347 1_655 S
Eu1 O21 2.366 . S
Eu1 C31 2.825 . S
C2 O18 1.259 . S
C2 O19 1.265 . S
C3 O20 1.255 . S
C3 O21 1.265 . S
C4 C6 1.380 . S
C4 C7 1.374 . S
C4 C10 1.507 . S
C5 C6 1.384 . S
C5 C9 1.387 . S
C5 H32 0.930 . S
C6 C4 1.380 . S
C6 C5 1.384 . S
C6 H33 0.931 . S
C7 C4 1.374 . S
C7 C8 1.390 . S
C7 H34 0.930 . S
C8 C7 1.390 . S
C8 C9 1.391 . S
C8 H35 0.930 . S
C9 C5 1.387 . S
C9 C8 1.391 . S
C10 Tb0 2.825 . S
C10 C4 1.507 . S
C10 O23 1.238 . S
C10 O24 1.247 . S
O11 Tb0 2.347 . S
O11 C15 1.259 . S
O12 Eu1 2.418 . S
O12 C15 1.265 1_655 S
O13 Eu1 2.384 1_455 S
O13 C22 1.255 . S
O14 Tb0 2.366 . S
O14 C22 1.265 . S
C15 O11 1.259 . S
C15 O12 1.265 1_455 S
O16 Eu1 2.479 . S
O16 C31 1.238 . S
O17 Eu1 2.471 . S
O17 C31 1.247 . S
O18 Eu1 2.347 1_455 S
O18 C2 1.259 . S
O19 Tb0 2.418 . S
O19 C2 1.265 . S
O20 Tb0 2.384 1_655 S
O20 C3 1.255 . S
O21 Eu1 2.366 . S
O21 C3 1.265 . S
C22 O13 1.255 . S
C22 O14 1.265 . S
O23 Tb0 2.479 . S
O23 C10 1.238 . S
O24 Tb0 2.471 . S
O24 C10 1.247 . S
C25 C28 1.380 . S
C25 C29 1.374 . S
C25 C31 1.507 . S
C26 C27 1.387 . S
C26 C30 1.391 . S
C27 C26 1.387 . S
C27 C28 1.384 . S
C27 H36 0.930 . S
C28 C25 1.380 . S
C28 C27 1.384 . S
C28 H37 0.931 . S
C29 C25 1.374 . S
C29 C30 1.390 . S
C29 H38 0.930 . S
C30 C26 1.391 . S
C30 C29 1.390 . S
C30 H39 0.930 . S
C31 Eu1 2.825 . S
C31 O16 1.238 . S
C31 O17 1.247 . S
C31 C25 1.507 . S
H32 C5 0.930 . S
H33 C6 0.931 . S
H34 C7 0.930 . S
H35 C8 0.930 . S
H36 C27 0.930 . S
H37 C28 0.931 . S
H38 C29 0.930 . S
H39 C30 0.930 . S
Tb40 C50 2.825 . S
Tb40 O51 2.347 . S
Tb40 O54 2.366 . S
Tb40 O59 2.418 . S
Tb40 O60 2.384 1_545 S
Tb40 O63 2.479 . S
Tb40 O64 2.471 . S
Eu41 O52 2.418 . S
Eu41 O53 2.384 . S
Eu41 O56 2.479 1_545 S
Eu41 O57 2.471 1_545 S
Eu41 O58 2.347 . S
Eu41 O61 2.366 1_545 S
Eu41 C71 2.825 1_545 S
C42 O58 1.259 . S
C42 O59 1.265 . S
C43 O60 1.255 . S
C43 O61 1.265 . S
C44 C46 1.380 . S
C44 C47 1.374 . S
C44 C50 1.507 . S
C45 C46 1.384 . S
C45 C49 1.387 . S
C45 H72 0.930 . S
C46 C44 1.380 . S
C46 C45 1.384 . S
C46 H73 0.931 . S
C47 C44 1.374 . S
C47 C48 1.390 . S
C47 H74 0.930 . S
C48 C47 1.390 . S
C48 C49 1.391 . S
C48 H75 0.930 . S
C49 C45 1.387 . S
C49 C48 1.391 . S
C50 Tb40 2.825 . S
C50 C44 1.507 . S
C50 O63 1.238 . S
C50 O64 1.247 . S
O51 Tb40 2.347 . S
O51 C55 1.259 . S
O52 Eu41 2.418 . S
O52 C55 1.265 . S
O53 Eu41 2.384 . S
O53 C62 1.255 . S
O54 Tb40 2.366 . S
O54 C62 1.265 . S
C55 O51 1.259 . S
C55 O52 1.265 . S
O56 Eu41 2.479 1_565 S
O56 C71 1.238 . S
O57 Eu41 2.471 1_565 S
O57 C71 1.247 . S
O58 Eu41 2.347 . S
O58 C42 1.259 . S
O59 Tb40 2.418 . S
O59 C42 1.265 . S
O60 Tb40 2.384 1_565 S
O60 C43 1.255 . S
O61 Eu41 2.366 1_565 S
O61 C43 1.265 . S
C62 O53 1.255 . S
C62 O54 1.265 . S
O63 Tb40 2.479 . S
O63 C50 1.238 . S
O64 Tb40 2.471 . S
O64 C50 1.247 . S
C65 C68 1.380 . S
C65 C69 1.374 . S
C65 C71 1.507 . S
C66 C67 1.387 . S
C66 C70 1.391 . S
C67 C66 1.387 . S
C67 C68 1.384 . S
C67 H76 0.930 . S
C68 C65 1.380 . S
C68 C67 1.384 . S
C68 H77 0.931 . S
C69 C65 1.374 . S
C69 C70 1.390 . S
C69 H78 0.930 . S
C70 C66 1.391 . S
C70 C69 1.390 . S
C70 H79 0.930 . S
C71 Eu41 2.825 1_565 S
C71 O56 1.238 . S
C71 O57 1.247 . S
C71 C65 1.507 . S
H72 C45 0.930 . S
H73 C46 0.931 . S
H74 C47 0.930 . S
H75 C48 0.930 . S
H76 C67 0.930 . S
H77 C68 0.931 . S
H78 C69 0.930 . S
H79 C70 0.930 . S
Tb80 C90 2.825 . S
Tb80 O91 2.347 . S
Tb80 O94 2.366 . S
Tb80 O99 2.418 . S
Tb80 O100 2.384 . S
Tb80 O103 2.479 . S
Tb80 O104 2.471 . S
Eu81 O92 2.418 . S
Eu81 O93 2.384 . S
Eu81 O96 2.479 . S
Eu81 O97 2.471 . S
Eu81 O98 2.347 . S
Eu81 O101 2.366 . S
Eu81 C111 2.825 . S
C82 O98 1.259 . S
C82 O99 1.265 . S
C83 O100 1.255 . S
C83 O101 1.265 . S
C84 C86 1.380 . S
C84 C87 1.374 . S
C84 C90 1.507 . S
C85 C86 1.384 . S
C85 C89 1.387 . S
C85 H112 0.930 . S
C86 C84 1.380 . S
C86 C85 1.384 . S
C86 H113 0.931 . S
C87 C84 1.374 . S
C87 C88 1.390 . S
C87 H114 0.930 . S
C88 C87 1.390 . S
C88 C89 1.391 . S
C88 H115 0.930 . S
C89 C85 1.387 . S
C89 C88 1.391 . S
C90 Tb80 2.825 . S
C90 C84 1.507 . S
C90 O103 1.238 . S
C90 O104 1.247 . S
O91 Tb80 2.347 . S
O91 C95 1.259 . S
O92 Eu81 2.418 . S
O92 C95 1.265 . S
O93 Eu81 2.384 . S
O93 C102 1.255 . S
O94 Tb80 2.366 . S
O94 C102 1.265 . S
C95 O91 1.259 . S
C95 O92 1.265 . S
O96 Eu81 2.479 . S
O96 C111 1.238 . S
O97 Eu81 2.471 . S
O97 C111 1.247 . S
O98 Eu81 2.347 . S
O98 C82 1.259 . S
O99 Tb80 2.418 . S
O99 C82 1.265 . S
O100 Tb80 2.384 . S
O100 C83 1.255 . S
O101 Eu81 2.366 . S
O101 C83 1.265 . S
C102 O93 1.255 . S
C102 O94 1.265 . S
O103 Tb80 2.479 . S
O103 C90 1.238 . S
O104 Tb80 2.471 . S
O104 C90 1.247 . S
C105 C108 1.380 . S
C105 C109 1.374 . S
C105 C111 1.507 . S
C106 C107 1.387 . S
C106 C110 1.391 . S
C107 C106 1.387 . S
C107 C108 1.384 . S
C107 H116 0.930 . S
C108 C105 1.380 . S
C108 C107 1.384 . S
C108 H117 0.931 . S
C109 C105 1.374 . S
C109 C110 1.390 . S
C109 H118 0.930 . S
C110 C106 1.391 . S
C110 C109 1.390 . S
C110 H119 0.930 . S
C111 Eu81 2.825 . S
C111 O96 1.238 . S
C111 O97 1.247 . S
C111 C105 1.507 . S
H112 C85 0.930 . S
H113 C86 0.931 . S
H114 C87 0.930 . S
H115 C88 0.930 . S
H116 C107 0.930 . S
H117 C108 0.931 . S
H118 C109 0.930 . S
H119 C110 0.930 . S
P120 O131 1.490 . S
P120 C134 1.812 . S
P120 C140 1.803 1_565 S
P120 C146 1.819 1_565 S
H121 C135 0.941 . S
H122 C136 0.939 . S
H123 C138 0.940 . S
H124 C139 0.940 . S
H125 C141 0.939 . S
H126 C142 0.942 . S
H127 C144 0.940 . S
H128 C145 0.939 . S
H129 C147 0.941 . S
H130 C151 0.939 . S
O131 P120 1.490 . S
H132 C148 0.939 . S
H133 C150 0.940 . S
C134 P120 1.812 . S
C134 C135 1.389 . S
C134 C139 1.391 . S
C135 H121 0.941 . S
C135 C134 1.389 . S
C135 C136 1.397 . S
C136 H122 0.939 . S
C136 C135 1.397 . S
C136 C137 1.378 . S
C137 C136 1.378 . S
C137 C138 1.378 . S
C138 H123 0.940 . S
C138 C137 1.378 . S
C138 C139 1.396 . S
C139 H124 0.940 . S
C139 C134 1.391 . S
C139 C138 1.396 . S
C140 P120 1.803 1_545 S
C140 C141 1.378 . S
C140 C145 1.400 . S
C141 H125 0.939 . S
C141 C140 1.378 . S
C141 C142 1.361 . S
C142 H126 0.942 . S
C142 C141 1.361 . S
C142 C143 1.369 . S
C143 C142 1.369 . S
C143 C144 1.404 . S
C144 H127 0.940 . S
C144 C143 1.404 . S
C144 C145 1.389 . S
C145 H128 0.939 . S
C145 C140 1.400 . S
C145 C144 1.389 . S
C146 P120 1.819 1_545 S
C146 C147 1.391 1_545 S
C146 C151 1.391 . S
C147 H129 0.941 . S
C147 C146 1.391 1_565 S
C147 C148 1.396 . S
C148 H132 0.939 . S
C148 C147 1.396 . S
C148 C149 1.397 1_565 S
C149 C148 1.397 1_545 S
C149 C150 1.385 . S
C150 H133 0.940 . S
C150 C149 1.385 . S
C150 C151 1.388 . S
C151 H130 0.939 . S
C151 C146 1.391 . S
C151 C150 1.388 . S
P152 O163 1.490 . S
P152 C166 1.812 . S
P152 C172 1.803 . S
P152 C178 1.819 . S
H153 C167 0.941 . S
H154 C168 0.939 . S
H155 C170 0.940 . S
H156 C171 0.940 . S
H157 C173 0.939 . S
H158 C174 0.942 . S
H159 C176 0.940 . S
H160 C177 0.939 . S
H161 C179 0.941 . S
H162 C183 0.939 . S
O163 P152 1.490 . S
H164 C180 0.939 . S
H165 C182 0.940 . S
C166 P152 1.812 . S
C166 C167 1.389 . S
C166 C171 1.391 . S
C167 H153 0.941 . S
C167 C166 1.389 . S
C167 C168 1.397 . S
C168 H154 0.939 . S
C168 C167 1.397 . S
C168 C169 1.378 . S
C169 C168 1.378 . S
C169 C170 1.378 . S
C170 H155 0.940 . S
C170 C169 1.378 . S
C170 C171 1.396 . S
C171 H156 0.940 . S
C171 C166 1.391 . S
C171 C170 1.396 . S
C172 P152 1.803 . S
C172 C173 1.378 . S
C172 C177 1.400 . S
C173 H157 0.939 . S
C173 C172 1.378 . S
C173 C174 1.361 . S
C174 H158 0.942 . S
C174 C173 1.361 . S
C174 C175 1.369 . S
C175 C174 1.369 . S
C175 C176 1.404 . S
C176 H159 0.940 . S
C176 C175 1.404 . S
C176 C177 1.389 . S
C177 H160 0.939 . S
C177 C172 1.400 . S
C177 C176 1.389 . S
C178 P152 1.819 . S
C178 C179 1.391 . S
C178 C183 1.391 . S
C179 H161 0.941 . S
C179 C178 1.391 . S
C179 C180 1.396 . S
C180 H164 0.939 . S
C180 C179 1.396 . S
C180 C181 1.397 . S
C181 C180 1.397 . S
C181 C182 1.385 . S
C182 H165 0.940 . S
C182 C181 1.385 . S
C182 C183 1.388 . S
C183 H162 0.939 . S
C183 C178 1.391 . S
C183 C182 1.388 . S
P184 O195 1.490 . S
P184 C198 1.812 . S
P184 C204 1.803 1_455 S
P184 C210 1.819 . S
H185 C199 0.941 . S
H186 C200 0.939 . S
H187 C202 0.940 . S
H188 C203 0.940 . S
H189 C205 0.939 . S
H190 C206 0.942 . S
H191 C208 0.940 . S
H192 C209 0.939 . S
H193 C211 0.941 . S
H194 C215 0.939 . S
O195 P184 1.490 . S
H196 C212 0.939 . S
H197 C214 0.940 . S
C198 P184 1.812 . S
C198 C199 1.389 . S
C198 C203 1.391 . S
C199 H185 0.941 . S
C199 C198 1.389 . S
C199 C200 1.397 . S
C200 H186 0.939 . S
C200 C199 1.397 . S
C200 C201 1.378 . S
C201 C200 1.378 . S
C201 C202 1.378 . S
C202 H187 0.940 . S
C202 C201 1.378 . S
C202 C203 1.396 . S
C203 H188 0.940 . S
C203 C198 1.391 . S
C203 C202 1.396 . S
C204 P184 1.803 1_655 S
C204 C205 1.378 . S
C204 C209 1.400 . S
C205 H189 0.939 . S
C205 C204 1.378 . S
C205 C206 1.361 . S
C206 H190 0.942 . S
C206 C205 1.361 . S
C206 C207 1.369 . S
C207 C206 1.369 . S
C207 C208 1.404 . S
C208 H191 0.940 . S
C208 C207 1.404 . S
C208 C209 1.389 . S
C209 H192 0.939 . S
C209 C204 1.400 . S
C209 C208 1.389 . S
C210 P184 1.819 . S
C210 C211 1.391 . S
C210 C215 1.391 1_455 S
C211 H193 0.941 . S
C211 C210 1.391 . S
C211 C212 1.396 . S
C212 H196 0.939 . S
C212 C211 1.396 . S
C212 C213 1.397 . S
C213 C212 1.397 . S
C213 C214 1.385 1_455 S
C214 H197 0.940 . S
C214 C213 1.385 1_655 S
C214 C215 1.388 . S
C215 H194 0.939 . S
C215 C210 1.391 1_655 S
C215 C214 1.388 . S
P216 O227 1.490 . S
P216 C230 1.812 . S
P216 C236 1.803 1_455 S
P216 C242 1.819 . S
H217 C231 0.941 . S
H218 C232 0.939 . S
H219 C234 0.940 . S
H220 C235 0.940 . S
H221 C237 0.939 . S
H222 C238 0.942 . S
H223 C240 0.940 . S
H224 C241 0.939 . S
H225 C243 0.941 . S
H226 C247 0.939 . S
O227 P216 1.490 . S
H228 C244 0.939 . S
H229 C246 0.940 . S
C230 P216 1.812 . S
C230 C231 1.389 . S
C230 C235 1.391 . S
C231 H217 0.941 . S
C231 C230 1.389 . S
C231 C232 1.397 . S
C232 H218 0.939 . S
C232 C231 1.397 . S
C232 C233 1.378 . S
C233 C232 1.378 . S
C233 C234 1.378 . S
C234 H219 0.940 . S
C234 C233 1.378 . S
C234 C235 1.396 . S
C235 H220 0.940 . S
C235 C230 1.391 . S
C235 C234 1.396 . S
C236 P216 1.803 1_655 S
C236 C237 1.378 . S
C236 C241 1.400 . S
C237 H221 0.939 . S
C237 C236 1.378 . S
C237 C238 1.361 . S
C238 H222 0.942 . S
C238 C237 1.361 . S
C238 C239 1.369 . S
C239 C238 1.369 . S
C239 C240 1.404 . S
C240 H223 0.940 . S
C240 C239 1.404 . S
C240 C241 1.389 . S
C241 H224 0.939 . S
C241 C236 1.400 . S
C241 C240 1.389 . S
C242 P216 1.819 . S
C242 C243 1.391 . S
C242 C247 1.391 1_455 S
C243 H225 0.941 . S
C243 C242 1.391 . S
C243 C244 1.396 . S
C244 H228 0.939 . S
C244 C243 1.396 . S
C244 C245 1.397 . S
C245 C244 1.397 . S
C245 C246 1.385 1_455 S
C246 H229 0.940 . S
C246 C245 1.385 1_655 S
C246 C247 1.388 . S
C247 H226 0.939 . S
C247 C242 1.391 1_655 S
C247 C246 1.388 . S
P248 O259 1.490 . S
P248 C262 1.812 . S
P248 C268 1.803 1_545 S
P248 C274 1.819 . S
H249 C263 0.941 . S
H250 C264 0.939 . S
H251 C266 0.940 . S
H252 C267 0.940 . S
H253 C269 0.939 . S
H254 C270 0.942 . S
H255 C272 0.940 . S
H256 C273 0.939 . S
H257 C275 0.941 . S
H258 C279 0.939 . S
O259 P248 1.490 . S
H260 C276 0.939 . S
H261 C278 0.940 . S
C262 P248 1.812 . S
C262 C263 1.389 . S
C262 C267 1.391 . S
C263 H249 0.941 . S
C263 C262 1.389 . S
C263 C264 1.397 . S
C264 H250 0.939 . S
C264 C263 1.397 . S
C264 C265 1.378 . S
C265 C264 1.378 . S
C265 C266 1.378 . S
C266 H251 0.940 . S
C266 C265 1.378 . S
C266 C267 1.396 . S
C267 H252 0.940 . S
C267 C262 1.391 . S
C267 C266 1.396 . S
C268 P248 1.803 1_565 S
C268 C269 1.378 . S
C268 C273 1.400 . S
C269 H253 0.939 . S
C269 C268 1.378 . S
C269 C270 1.361 . S
C270 H254 0.942 . S
C270 C269 1.361 . S
C270 C271 1.369 . S
C271 C270 1.369 . S
C271 C272 1.404 . S
C272 H255 0.940 . S
C272 C271 1.404 . S
C272 C273 1.389 . S
C273 H256 0.939 . S
C273 C268 1.400 . S
C273 C272 1.389 . S
C274 P248 1.819 . S
C274 C275 1.391 . S
C274 C279 1.391 1_545 S
C275 H257 0.941 . S
C275 C274 1.391 . S
C275 C276 1.396 . S
C276 H260 0.939 . S
C276 C275 1.396 . S
C276 C277 1.397 . S
C277 C276 1.397 . S
C277 C278 1.385 1_545 S
C278 H261 0.940 . S
C278 C277 1.385 1_565 S
C278 C279 1.388 . S
C279 H258 0.939 . S
C279 C274 1.391 1_565 S
C279 C278 1.388 . S
P280 O291 1.490 . S
P280 C294 1.812 . S
P280 C300 1.803 . S
P280 C306 1.819 . S
H281 C295 0.941 . S
H282 C296 0.939 . S
H283 C298 0.940 . S
H284 C299 0.940 . S
H285 C301 0.939 . S
H286 C302 0.942 . S
H287 C304 0.940 . S
H288 C305 0.939 . S
H289 C307 0.941 . S
H290 C311 0.939 . S
O291 P280 1.490 . S
H292 C308 0.939 . S
H293 C310 0.940 . S
C294 P280 1.812 . S
C294 C295 1.389 . S
C294 C299 1.391 . S
C295 H281 0.941 . S
C295 C294 1.389 . S
C295 C296 1.397 . S
C296 H282 0.939 . S
C296 C295 1.397 . S
C296 C297 1.378 . S
C297 C296 1.378 . S
C297 C298 1.378 . S
C298 H283 0.940 . S
C298 C297 1.378 . S
C298 C299 1.396 . S
C299 H284 0.940 . S
C299 C294 1.391 . S
C299 C298 1.396 . S
C300 P280 1.803 . S
C300 C301 1.378 . S
C300 C305 1.400 . S
C301 H285 0.939 . S
C301 C300 1.378 . S
C301 C302 1.361 . S
C302 H286 0.942 . S
C302 C301 1.361 . S
C302 C303 1.369 . S
C303 C302 1.369 . S
C303 C304 1.404 . S
C304 H287 0.940 . S
C304 C303 1.404 . S
C304 C305 1.389 . S
C305 H288 0.939 . S
C305 C300 1.400 . S
C305 C304 1.389 . S
C306 P280 1.819 . S
C306 C307 1.391 . S
C306 C311 1.391 . S
C307 H289 0.941 . S
C307 C306 1.391 . S
C307 C308 1.396 . S
C308 H292 0.939 . S
C308 C307 1.396 . S
C308 C309 1.397 . S
C309 C308 1.397 . S
C309 C310 1.385 . S
C310 H293 0.940 . S
C310 C309 1.385 . S
C310 C311 1.388 . S
C311 H290 0.939 . S
C311 C306 1.391 . S
C311 C310 1.388 . S
H312 C318 0.930 . S
H313 C321 0.930 . S
H314 C322 0.930 . S
H315 C323 0.930 . S
H316 C326 0.930 . S
H317 C327 0.930 . S
C318 H312 0.930 . S
C318 C319 1.355 . S
C318 C320 1.415 . S
C319 C318 1.355 . S
C319 C321 1.419 . S
C320 C318 1.415 . S
C320 C325 1.425 . S
C320 C327 1.409 . S
C321 H313 0.930 . S
C321 C319 1.419 . S
C321 C322 1.362 . S
C322 H314 0.930 . S
C322 C321 1.362 . S
C322 C325 1.409 . S
C323 H315 0.930 . S
C323 C324 1.355 . S
C323 C325 1.415 . S
C324 C323 1.355 . S
C324 C326 1.419 . S
C325 C320 1.425 . S
C325 C322 1.409 . S
C325 C323 1.415 . S
C326 H316 0.930 . S
C326 C324 1.419 . S
C326 C327 1.362 . S
C327 H317 0.930 . S
C327 C320 1.409 . S
C327 C326 1.362 . S
H328 C334 0.930 . S
H329 C337 0.930 . S
H330 C338 0.930 . S
H331 C339 0.930 . S
H332 C342 0.930 . S
H333 C343 0.930 . S
C334 H328 0.930 . S
C334 C335 1.355 . S
C334 C336 1.415 . S
C335 C334 1.355 . S
C335 C337 1.419 . S
C336 C334 1.415 . S
C336 C341 1.425 . S
C336 C343 1.409 . S
C337 H329 0.930 . S
C337 C335 1.419 . S
C337 C338 1.362 . S
C338 H330 0.930 . S
C338 C337 1.362 . S
C338 C341 1.409 . S
C339 H331 0.930 . S
C339 C340 1.355 . S
C339 C341 1.415 . S
C340 C339 1.355 . S
C340 C342 1.419 . S
C341 C336 1.425 . S
C341 C338 1.409 . S
C341 C339 1.415 . S
C342 H332 0.930 . S
C342 C340 1.419 . S
C342 C343 1.362 . S
C343 H333 0.930 . S
C343 C336 1.409 . S
C343 C342 1.362 . S
H344 C350 0.930 . S
H345 C353 0.930 . S
H346 C354 0.930 . S
H347 C355 0.930 . S
H348 C358 0.930 . S
H349 C359 0.930 . S
C350 H344 0.930 . S
C350 C351 1.355 . S
C350 C352 1.415 . S
C351 C350 1.355 . S
C351 C353 1.419 . S
C352 C350 1.415 . S
C352 C357 1.425 . S
C352 C359 1.409 . S
C353 H345 0.930 . S
C353 C351 1.419 . S
C353 C354 1.362 . S
C354 H346 0.930 . S
C354 C353 1.362 . S
C354 C357 1.409 . S
C355 H347 0.930 . S
C355 C356 1.355 . S
C355 C357 1.415 . S
C356 C355 1.355 . S
C356 C358 1.419 . S
C357 C352 1.425 . S
C357 C354 1.409 . S
C357 C355 1.415 . S
C358 H348 0.930 . S
C358 C356 1.419 . S
C358 C359 1.362 . S
C359 H349 0.930 . S
C359 C352 1.409 . S
C359 C358 1.362 . S
H360 C366 0.930 . S
H361 C369 0.930 . S
H362 C370 0.930 . S
H363 C371 0.930 . S
H364 C374 0.930 . S
H365 C375 0.930 . S
C366 H360 0.930 . S
C366 C367 1.355 . S
C366 C368 1.415 . S
C367 C366 1.355 . S
C367 C369 1.419 . S
C368 C366 1.415 . S
C368 C373 1.425 . S
C368 C375 1.409 . S
C369 H361 0.930 . S
C369 C367 1.419 . S
C369 C370 1.362 . S
C370 H362 0.930 . S
C370 C369 1.362 . S
C370 C373 1.409 . S
C371 H363 0.930 . S
C371 C372 1.355 . S
C371 C373 1.415 . S
C372 C371 1.355 . S
C372 C374 1.419 . S
C373 C368 1.425 . S
C373 C370 1.409 . S
C373 C371 1.415 . S
C374 H364 0.930 . S
C374 C372 1.419 . S
C374 C375 1.362 . S
C375 H365 0.930 . S
C375 C368 1.409 . S
C375 C374 1.362 . S
H376 C382 0.930 . S
H377 C385 0.930 . S
H378 C386 0.930 . S
H379 C387 0.930 . S
H380 C390 0.930 . S
H381 C391 0.930 . S
C382 H376 0.930 . S
C382 C383 1.355 . S
C382 C384 1.415 . S
C383 C382 1.355 . S
C383 C385 1.419 . S
C384 C382 1.415 . S
C384 C389 1.425 . S
C384 C391 1.409 . S
C385 H377 0.930 . S
C385 C383 1.419 . S
C385 C386 1.362 . S
C386 H378 0.930 . S
C386 C385 1.362 . S
C386 C389 1.409 . S
C387 H379 0.930 . S
C387 C388 1.355 . S
C387 C389 1.415 . S
C388 C387 1.355 . S
C388 C390 1.419 . S
C389 C384 1.425 . S
C389 C386 1.409 . S
C389 C387 1.415 . S
C390 H380 0.930 . S
C390 C388 1.419 . S
C390 C391 1.362 . S
C391 H381 0.930 . S
C391 C384 1.409 . S
C391 C390 1.362 . S
H392 C398 0.930 . S
H393 C401 0.930 . S
H394 C402 0.930 . S
H395 C403 0.930 . S
H396 C406 0.930 . S
H397 C407 0.930 . S
C398 H392 0.930 . S
C398 C399 1.355 . S
C398 C400 1.415 . S
C399 C398 1.355 . S
C399 C401 1.419 . S
C400 C398 1.415 . S
C400 C405 1.425 . S
C400 C407 1.409 . S
C401 H393 0.930 . S
C401 C399 1.419 . S
C401 C402 1.362 . S
C402 H394 0.930 . S
C402 C401 1.362 . S
C402 C405 1.409 . S
C403 H395 0.930 . S
C403 C404 1.355 . S
C403 C405 1.415 . S
C404 C403 1.355 . S
C404 C406 1.419 . S
C405 C400 1.425 . S
C405 C402 1.409 . S
C405 C403 1.415 . S
C406 H396 0.930 . S
C406 C404 1.419 . S
C406 C407 1.362 . S
C407 H397 0.930 . S
C407 C400 1.409 . S
C407 C406 1.362 . S
H408 C414 0.930 . S
H409 C417 0.930 . S
H410 C418 0.930 . S
H411 C419 0.930 . S
H412 C422 0.930 . S
H413 C423 0.930 . S
C414 H408 0.930 . S
C414 C415 1.355 . S
C414 C416 1.415 . S
C415 C414 1.355 . S
C415 C417 1.419 . S
C416 C414 1.415 . S
C416 C421 1.425 . S
C416 C423 1.409 . S
C417 H409 0.930 . S
C417 C415 1.419 . S
C417 C418 1.362 . S
C418 H410 0.930 . S
C418 C417 1.362 . S
C418 C421 1.409 . S
C419 H411 0.930 . S
C419 C420 1.355 . S
C419 C421 1.415 . S
C420 C419 1.355 . S
C420 C422 1.419 . S
C421 C416 1.425 . S
C421 C418 1.409 . S
C421 C419 1.415 . S
C422 H412 0.930 . S
C422 C420 1.419 . S
C422 C423 1.362 . S
C423 H413 0.930 . S
C423 C416 1.409 . S
C423 C422 1.362 . S
H424 C430 0.930 . S
H425 C433 0.930 . S
H426 C434 0.930 . S
H427 C435 0.930 . S
H428 C438 0.930 . S
H429 C439 0.930 . S
C430 H424 0.930 . S
C430 C431 1.355 . S
C430 C432 1.415 . S
C431 C430 1.355 . S
C431 C433 1.419 . S
C432 C430 1.415 . S
C432 C437 1.425 . S
C432 C439 1.409 . S
C433 H425 0.930 . S
C433 C431 1.419 . S
C433 C434 1.362 . S
C434 H426 0.930 . S
C434 C433 1.362 . S
C434 C437 1.409 . S
C435 H427 0.930 . S
C435 C436 1.355 . S
C435 C437 1.415 . S
C436 C435 1.355 . S
C436 C438 1.419 . S
C437 C432 1.425 . S
C437 C434 1.409 . S
C437 C435 1.415 . S
C438 H428 0.930 . S
C438 C436 1.419 . S
C438 C439 1.362 . S
C439 H429 0.930 . S
C439 C432 1.409 . S
C439 C438 1.362 . S
H440 C446 0.930 . S
H441 C449 0.930 . S
H442 C450 0.930 . S
H443 C451 0.930 . S
H444 C454 0.930 . S
H445 C455 0.930 . S
C446 H440 0.930 . S
C446 C447 1.355 . S
C446 C448 1.415 . S
C447 C446 1.355 . S
C447 C449 1.419 . S
C448 C446 1.415 . S
C448 C453 1.425 . S
C448 C455 1.409 . S
C449 H441 0.930 . S
C449 C447 1.419 . S
C449 C450 1.362 . S
C450 H442 0.930 . S
C450 C449 1.362 . S
C450 C453 1.409 . S
C451 H443 0.930 . S
C451 C452 1.355 . S
C451 C453 1.415 . S
C452 C451 1.355 . S
C452 C454 1.419 . S
C453 C448 1.425 . S
C453 C450 1.409 . S
C453 C451 1.415 . S
C454 H444 0.930 . S
C454 C452 1.419 . S
C454 C455 1.362 . S
C455 H445 0.930 . S
C455 C448 1.409 . S
C455 C454 1.362 . S
H456 C462 0.930 . S
H457 C465 0.930 . S
H458 C466 0.930 . S
H459 C467 0.930 . S
H460 C470 0.930 . S
H461 C471 0.930 . S
C462 H456 0.930 . S
C462 C463 1.355 . S
C462 C464 1.415 . S
C463 C462 1.355 . S
C463 C465 1.419 . S
C464 C462 1.415 . S
C464 C469 1.425 . S
C464 C471 1.409 . S
C465 H457 0.930 . S
C465 C463 1.419 . S
C465 C466 1.362 . S
C466 H458 0.930 . S
C466 C465 1.362 . S
C466 C469 1.409 . S
C467 H459 0.930 . S
C467 C468 1.355 . S
C467 C469 1.415 . S
C468 C467 1.355 . S
C468 C470 1.419 . S
C469 C464 1.425 . S
C469 C466 1.409 . S
C469 C467 1.415 . S
C470 H460 0.930 . S
C470 C468 1.419 . S
C470 C471 1.362 . S
C471 H461 0.930 . S
C471 C464 1.409 . S
C471 C470 1.362 . S
H472 C478 0.930 . S
H473 C481 0.930 . S
H474 C482 0.930 . S
H475 C483 0.930 . S
H476 C486 0.930 . S
H477 C487 0.930 . S
C478 H472 0.930 . S
C478 C479 1.355 . S
C478 C480 1.415 . S
C479 C478 1.355 . S
C479 C481 1.419 . S
C480 C478 1.415 . S
C480 C485 1.425 . S
C480 C487 1.409 . S
C481 H473 0.930 . S
C481 C479 1.419 . S
C481 C482 1.362 . S
C482 H474 0.930 . S
C482 C481 1.362 . S
C482 C485 1.409 . S
C483 H475 0.930 . S
C483 C484 1.355 . S
C483 C485 1.415 . S
C484 C483 1.355 . S
C484 C486 1.419 . S
C485 C480 1.425 . S
C485 C482 1.409 . S
C485 C483 1.415 . S
C486 H476 0.930 . S
C486 C484 1.419 . S
C486 C487 1.362 . S
C487 H477 0.930 . S
C487 C480 1.409 . S
C487 C486 1.362 . S
H488 C494 0.930 . S
H489 C497 0.930 . S
H490 C498 0.930 . S
H491 C499 0.930 . S
H492 C502 0.930 . S
H493 C503 0.930 . S
C494 H488 0.930 . S
C494 C495 1.355 . S
C494 C496 1.415 . S
C495 C494 1.355 . S
C495 C497 1.419 . S
C496 C494 1.415 . S
C496 C501 1.425 . S
C496 C503 1.409 . S
C497 H489 0.930 . S
C497 C495 1.419 . S
C497 C498 1.362 . S
C498 H490 0.930 . S
C498 C497 1.362 . S
C498 C501 1.409 . S
C499 H491 0.930 . S
C499 C500 1.355 . S
C499 C501 1.415 . S
C500 C499 1.355 . S
C500 C502 1.419 . S
C501 C496 1.425 . S
C501 C498 1.409 . S
C501 C499 1.415 . S
C502 H492 0.930 . S
C502 C500 1.419 . S
C502 C503 1.362 . S
C503 H493 0.930 . S
C503 C496 1.409 . S
C503 C502 1.362 . S
H504 C510 0.930 . S
H505 C513 0.930 . S
H506 C514 0.930 . S
H507 C515 0.930 . S
H508 C518 0.929 . S
H509 C519 0.930 . S
C510 H504 0.930 . S
C510 C511 1.355 . S
C510 C512 1.415 . S
C511 C510 1.355 . S
C511 C513 1.419 . S
C512 C510 1.415 . S
C512 C517 1.425 . S
C512 C519 1.409 . S
C513 H505 0.930 . S
C513 C511 1.419 . S
C513 C514 1.362 . S
C514 H506 0.930 . S
C514 C513 1.362 . S
C514 C517 1.409 . S
C515 H507 0.930 . S
C515 C516 1.352 . S
C515 C517 1.415 . S
C516 C515 1.352 . S
C516 C518 1.417 . S
C517 C512 1.425 . S
C517 C514 1.409 . S
C517 C515 1.415 . S
C518 H508 0.929 . S
C518 C516 1.417 . S
C518 C519 1.362 . S
C519 H509 0.930 . S
C519 C512 1.409 . S
C519 C518 1.362 . S
H520 C526 0.930 . S
H521 C529 0.930 . S
H522 C530 0.930 . S
H523 C531 0.930 1_565 S
H524 C534 0.930 . S
H525 C535 0.930 . S
C526 H520 0.930 . S
C526 C527 1.355 . S
C526 C528 1.415 . S
C527 C526 1.355 . S
C527 C529 1.419 1_545 S
C528 C526 1.415 . S
C528 C533 1.425 . S
C528 C535 1.409 . S
C529 H521 0.930 . S
C529 C527 1.419 1_565 S
C529 C530 1.362 . S
C530 H522 0.930 . S
C530 C529 1.362 . S
C530 C533 1.409 1_565 S
C531 H523 0.930 1_545 S
C531 C532 1.355 . S
C531 C533 1.415 . S
C532 C531 1.355 . S
C532 C534 1.419 . S
C533 C528 1.425 . S
C533 C530 1.409 1_545 S
C533 C531 1.415 . S
C534 H524 0.930 . S
C534 C532 1.419 . S
C534 C535 1.362 . S
C535 H525 0.930 . S
C535 C528 1.409 . S
C535 C534 1.362 . S
H536 C542 0.930 . S
H537 C545 0.930 . S
H538 C546 0.930 . S
H539 C547 0.930 . S
H540 C550 0.930 . S
H541 C551 0.930 . S
C542 H536 0.930 . S
C542 C543 1.355 . S
C542 C544 1.415 . S
C543 C542 1.355 . S
C543 C545 1.419 . S
C544 C542 1.415 . S
C544 C549 1.425 . S
C544 C551 1.409 . S
C545 H537 0.930 . S
C545 C543 1.419 . S
C545 C546 1.362 . S
C546 H538 0.930 . S
C546 C545 1.362 . S
C546 C549 1.409 . S
C547 H539 0.930 . S
C547 C548 1.355 . S
C547 C549 1.415 . S
C548 C547 1.355 . S
C548 C550 1.419 . S
C549 C544 1.425 . S
C549 C546 1.409 . S
C549 C547 1.415 . S
C550 H540 0.930 . S
C550 C548 1.419 . S
C550 C551 1.362 . S
C551 H541 0.930 . S
C551 C544 1.409 . S
C551 C550 1.362 . S
H552 C558 0.930 . S
H553 C561 0.930 . S
H554 C562 0.930 . S
H555 C563 0.930 . S
H556 C566 0.930 . S
H557 C567 0.930 . S
C558 H552 0.930 . S
C558 C559 1.355 . S
C558 C560 1.415 . S
C559 C558 1.355 . S
C559 C561 1.419 1_545 S
C560 C558 1.415 . S
C560 C565 1.425 1_545 S
C560 C567 1.409 . S
C561 H553 0.930 . S
C561 C559 1.419 1_565 S
C561 C562 1.362 . S
C562 H554 0.930 . S
C562 C561 1.362 . S
C562 C565 1.409 . S
C563 H555 0.930 . S
C563 C564 1.355 1_565 S
C563 C565 1.415 . S
C564 C563 1.355 1_545 S
C564 C566 1.419 . S
C565 C560 1.425 1_565 S
C565 C562 1.409 . S
C565 C563 1.415 . S
C566 H556 0.930 . S
C566 C564 1.419 . S
C566 C567 1.362 . S
C567 H557 0.930 . S
C567 C560 1.409 . S
C567 C566 1.362 . S
H568 C574 0.930 . S
H569 C577 0.930 . S
H570 C578 0.930 . S
H571 C579 0.930 . S
H572 C582 0.937 . S
H573 C583 0.930 . S
C574 H568 0.930 . S
C574 C575 1.355 . S
C574 C576 1.415 . S
C575 C574 1.355 . S
C575 C577 1.419 . S
C576 C574 1.415 . S
C576 C581 1.425 . S
C576 C583 1.409 . S
C577 H569 0.930 . S
C577 C575 1.419 . S
C577 C578 1.362 . S
C578 H570 0.930 . S
C578 C577 1.362 . S
C578 C581 1.409 . S
C579 H571 0.930 . S
C579 C580 1.355 . S
C579 C581 1.415 . S
C580 C579 1.355 . S
C580 C582 1.419 . S
C581 C576 1.425 . S
C581 C578 1.409 . S
C581 C579 1.415 . S
C582 H572 0.937 . S
C582 C580 1.419 . S
C582 C583 1.362 . S
C583 H573 0.930 . S
C583 C576 1.409 . S
C583 C582 1.362 . S
H584 C590 0.930 . S
H585 C593 0.930 . S
H586 C594 0.930 . S
H587 C595 0.930 . S
H588 C598 0.930 . S
H589 C599 0.930 . S
C590 H584 0.930 . S
C590 C591 1.355 1_655 S
C590 C592 1.415 . S
C591 C590 1.355 1_455 S
C591 C593 1.419 . S
C592 C590 1.415 . S
C592 C597 1.425 1_655 S
C592 C599 1.409 . S
C593 H585 0.930 . S
C593 C591 1.419 . S
C593 C594 1.362 . S
C594 H586 0.930 . S
C594 C593 1.362 . S
C594 C597 1.409 . S
C595 H587 0.930 . S
C595 C596 1.347 1_455 S
C595 C597 1.415 . S
C596 C595 1.347 1_655 S
C596 C598 1.426 . S
C597 C592 1.425 1_455 S
C597 C594 1.409 . S
C597 C595 1.415 . S
C598 H588 0.930 . S
C598 C596 1.426 . S
C598 C599 1.362 . S
C599 H589 0.930 . S
C599 C592 1.409 . S
C599 C598 1.362 . S
C319 C9 0.690 . S
C324 C303 0.519 . S
C335 C49 0.393 . S
C340 C239 0.360 . S
C351 C89 0.459 . S
C356 C271 0.350 . S
C367 C26 0.646 . S
C372 C297 0.490 . S
C388 C233 0.676 . S
C383 C66 0.693 . S
C404 C265 0.568 . S
C399 C106 0.668 . S
C415 C43 2.970 . S
C420 C175 2.905 . S
C431 C83 3.062 . S
C436 C207 2.968 . S
C447 C22 3.114 . S
C452 C137 3.032 . S
C468 C169 3.034 . S
C463 C62 3.114 . S
C484 C201 2.954 . S
C479 C102 3.024 . S
C495 C3 2.972 . S
C500 C143 2.901 . S
C516 C213 1.744 1_554 S
C511 C15 1.753 . S
C527 C55 1.724 . S
C532 C149 1.756 . S
C543 C95 1.728 . S
C548 C181 1.763 . S
C564 C277 1.011 . S
C559 C42 1.043 . S
C580 C309 1.054 1_556 S
C575 C82 1.061 . S
C591 C2 1.032 . S
C596 C245 1.034 1_655 S
