# Generated by pormake.
# Topology tsx, (6,3)-cn, num edge types: 1
# Building blocks:
#     Node 0, Type 0, BuildingBlock: FUNLAD_clean_sbu_0, # of connection points: 6
#     Node 1, Type 0, BuildingBlock: FUNLAD_clean_sbu_0, # of connection points: 6
#     Node 2, Type 1, BuildingBlock: BELTOD_clean_linker_0, # of connection points: 3
#     Node 3, Type 1, BuildingBlock: BELTOD_clean_linker_0, # of connection points: 3
#     Node 4, Type 1, BuildingBlock: BELTOD_clean_linker_0, # of connection points: 3
#     Node 5, Type 1, BuildingBlock: BELTOD_clean_linker_0, # of connection points: 3
#     Edge 6, Type (0, 1), BuildingBlock: FUNLAD_clean_linker_0, # of connection points: 2
#     Edge 7, Type (0, 1), BuildingBlock: FUNLAD_clean_linker_0, # of connection points: 2
#     Edge 8, Type (0, 1), BuildingBlock: FUNLAD_clean_linker_0, # of connection points: 2
#     Edge 9, Type (0, 1), BuildingBlock: FUNLAD_clean_linker_0, # of connection points: 2
#     Edge 10, Type (0, 1), BuildingBlock: FUNLAD_clean_linker_0, # of connection points: 2
#     Edge 11, Type (0, 1), BuildingBlock: FUNLAD_clean_linker_0, # of connection points: 2
#     Edge 12, Type (0, 1), BuildingBlock: FUNLAD_clean_linker_0, # of connection points: 2
#     Edge 13, Type (0, 1), BuildingBlock: FUNLAD_clean_linker_0, # of connection points: 2
#     Edge 14, Type (0, 1), BuildingBlock: FUNLAD_clean_linker_0, # of connection points: 2
#     Edge 15, Type (0, 1), BuildingBlock: FUNLAD_clean_linker_0, # of connection points: 2
#     Edge 16, Type (0, 1), BuildingBlock: FUNLAD_clean_linker_0, # of connection points: 2
#     Edge 17, Type (0, 1), BuildingBlock: FUNLAD_clean_linker_0, # of connection points: 2
# Relax obj value: 0.152
# Max RMSD: 0.149
# Mean RMSD: 0.082
data_MOF--net-tsx--node1-FUNLAD_clean_sbu_0--node2-BELTOD_clean_linker_0--edge1-FUNLAD_clean_linker_0
_symmetry_space_group_name_H-M    P1
_symmetry_Int_Tables_number       1
_symmetry_cell_setting            triclinic
loop_
_symmetry_equiv_pos_as_xyz
'x, y, z'
_cell_length_a     24.673386
_cell_length_b     27.434434
_cell_length_c     51.855822
_cell_angle_alpha  91.685115
_cell_angle_beta   92.078887
_cell_angle_gamma 90.061517
loop_
_atom_site_label
_atom_site_type_symbol
_atom_site_fract_x
_atom_site_fract_y
_atom_site_fract_z
_atom_type_partial_charge
C0 C 0.88328 0.92859 0.99521 0.0
N1 N 0.95978 -0.00157 0.0601 0.0
C2 C 0.91188 0.00213 0.07223 0.0
C3 C 0.91115 0.00378 0.09922 0.0
C4 C 0.96017 0.00128 0.11381 0.0
C5 C 0.00884 -0.00276 0.10072 0.0
C6 C 0.00773 -0.00402 0.07381 0.0
Zn7 Zn 0.96247 -0.00254 0.02065 0.0
C8 C 0.04106 0.9238 0.00141 0.0
N9 N 0.97302 -0.00406 0.93842 0.0
C10 C 0.92767 0.99508 0.92267 0.0
C11 C 0.02338 0.9949 0.92854 0.0
C12 C 0.02961 0.99267 0.90191 0.0
C13 C 0.98363 0.99125 0.88515 0.0
C14 C 0.93207 0.99258 0.89584 0.0
Zn15 Zn 0.96757 -0.00287 0.97777 0.0
O16 O 0.89993 0.94504 0.01728 0.0
C17 C 0.89047 0.07185 0.99679 0.0
O18 O 0.90442 0.94433 0.97503 0.0
H19 H 0.05895 0.99523 0.94135 0.0
H20 H 0.87421 0.00398 0.06096 0.0
H21 H 0.88804 -0.004 0.93092 0.0
O22 O 0.90446 0.05438 0.01848 0.0
O23 O 0.91045 0.05414 0.97628 0.0
H24 H 0.04543 0.99344 0.06386 0.0
O25 O 0.03068 0.04953 0.98124 0.0
O26 O 0.02524 0.05012 0.02335 0.0
O27 O 0.0252 0.94084 0.97994 0.0
O28 O 0.02099 0.94054 0.02207 0.0
C29 C 0.0471 0.06568 0.00336 0.0
H30 H 0.87267 0.00658 0.10855 0.0
H31 H 0.04761 -0.00397 0.11116 0.0
H32 H 0.07011 0.99095 0.89455 0.0
H33 H 0.89555 0.99197 0.8836 0.0
C34 C 0.3863 0.42275 0.49778 0.0
N35 N 0.4685 0.48692 0.56297 0.0
C36 C 0.42222 0.4897 0.57644 0.0
C37 C 0.4248 0.4909 0.60345 0.0
C38 C 0.47548 0.48917 0.6167 0.0
C39 C 0.52234 0.48485 0.60221 0.0
C40 C 0.51793 0.48402 0.57532 0.0
Zn41 Zn 0.46629 0.49062 0.52355 0.0
C42 C 0.54452 0.42268 0.49962 0.0
N43 N 0.46559 0.50062 0.44138 0.0
C44 C 0.41885 0.49882 0.42662 0.0
C45 C 0.51475 0.50315 0.43042 0.0
C46 C 0.51836 0.50342 0.40366 0.0
C47 C 0.47096 0.50083 0.38788 0.0
C48 C 0.42062 0.49874 0.39967 0.0
Zn49 Zn 0.46487 0.49676 0.48076 0.0
O50 O 0.40446 0.4371 0.52 0.0
C51 C 0.38735 0.56524 0.50485 0.0
O52 O 0.40492 0.44147 0.47776 0.0
H53 H 0.5515 0.5041 0.44243 0.0
H54 H 0.38334 0.49206 0.56624 0.0
H55 H 0.38019 0.49682 0.43573 0.0
O56 O 0.40722 0.54624 0.52515 0.0
O57 O 0.40365 0.55084 0.4829 0.0
H58 H 0.55428 0.4819 0.56431 0.0
O59 O 0.52504 0.55176 0.48439 0.0
O60 O 0.52813 0.54433 0.52638 0.0
O61 O 0.52618 0.44289 0.47939 0.0
O62 O 0.52571 0.43507 0.52132 0.0
C63 C 0.54529 0.56433 0.50644 0.0
H64 H 0.38763 0.49465 0.61381 0.0
H65 H 0.5622 0.48247 0.61153 0.0
H66 H 0.55806 0.50426 0.39542 0.0
H67 H 0.38306 0.49706 0.3882 0.0
P68 P 0.10013 0.08718 0.43531 0.0
H69 H 0.09225 0.17352 0.46931 0.0
H70 H 0.01492 0.22136 0.48389 0.0
H71 H 0.90564 0.11951 0.44357 0.0
H72 H 0.98318 0.07163 0.4294 0.0
H73 H 0.2017 0.03765 0.44644 0.0
H74 H 0.22359 0.96006 0.46586 0.0
H75 H 0.05436 0.93832 0.48109 0.0
H76 H 0.03273 0.01633 0.46152 0.0
H77 H 0.07639 0.14791 0.39144 0.0
H78 H 0.08955 0.99404 0.40534 0.0
O79 O 0.15414 0.12398 0.43704 0.0
H80 H 0.05532 0.12963 0.3457 0.0
H81 H 0.06779 0.97552 0.35986 0.0
C82 C 0.04332 0.11929 0.44822 0.0
C83 C 0.05164 0.16115 0.46397 0.0
C84 C 0.00744 0.18857 0.47215 0.0
C85 C 0.95422 0.17433 0.46474 0.0
C86 C 0.9461 0.13117 0.4498 0.0
C87 C 0.99035 0.10393 0.44157 0.0
C88 C 0.11581 0.03321 0.45295 0.0
C89 C 0.16942 0.01673 0.45445 0.0
C90 C 0.18189 0.97237 0.46566 0.0
C91 C 0.14071 0.94311 0.47516 0.0
C92 C 0.08691 0.95995 0.47383 0.0
C93 C 0.07457 0.00472 0.4628 0.0
C94 C 0.08492 0.07247 0.40176 0.0
C95 C 0.07467 0.11021 0.38464 0.0
C96 C 0.06222 0.09968 0.35856 0.0
C97 C 0.05986 0.05109 0.34912 0.0
C98 C 0.06995 0.01333 0.36643 0.0
C99 C 0.08225 0.02393 0.39253 0.0
P100 P 0.11416 0.90149 0.56788 0.0
H101 H 0.08502 0.82219 0.53092 0.0
H102 H -0.00034 0.77849 0.52129 0.0
H103 H 0.91818 0.87618 0.57401 0.0
H104 H 0.00342 0.91938 0.58355 0.0
H105 H 0.21296 0.95105 0.55504 0.0
H106 H 0.2303 0.0287 0.53522 0.0
H107 H 0.05787 0.04988 0.52277 0.0
H108 H 0.04087 0.97198 0.54282 0.0
H109 H 0.11654 0.84025 0.61264 0.0
H110 H 0.10544 0.99395 0.59803 0.0
O111 O 0.16428 0.86196 0.56278 0.0
H112 H 0.10542 0.85753 0.65872 0.0
H113 H 0.09386 0.0114 0.6439 0.0
C114 C 0.05061 0.87322 0.55833 0.0
C115 C 0.04862 0.83442 0.54016 0.0
C116 C -0.00019 0.80967 0.5346 0.0
C117 C 0.95244 0.82353 0.5472 0.0
C118 C 0.95426 0.86408 0.56441 0.0
C119 C 0.00291 0.88883 0.56984 0.0
C120 C 0.1258 0.95539 0.55001 0.0
C121 C 0.17894 0.97193 0.54757 0.0
C122 C 0.18875 0.01628 0.53612 0.0
C123 C 0.14541 0.04539 0.5273 0.0
C124 C 0.09206 0.0284 0.52952 0.0
C125 C 0.08234 0.9837 0.54081 0.0
C126 C 0.11271 0.91577 0.60197 0.0
C127 C 0.11249 0.87775 0.61941 0.0
C128 C 0.10558 0.88764 0.64568 0.0
C129 C 0.09865 0.93585 0.65496 0.0
C130 C 0.09979 0.97396 0.63742 0.0
C131 C 0.10642 0.96397 0.61113 0.0
P132 P 0.59533 0.59553 0.93936 0.0
H133 H 0.59102 0.68167 0.97366 0.0
H134 H 0.51557 0.72761 0.99152 0.0
H135 H 0.40286 0.62282 0.95602 0.0
H136 H 0.47875 0.57662 0.93876 0.0
H137 H 0.6979 0.54491 0.94417 0.0
H138 H 0.72533 0.46908 0.96388 0.0
H139 H 0.56222 0.44875 0.9895 0.0
H140 H 0.53487 0.52449 0.96919 0.0
H141 H 0.53761 0.65338 0.90119 0.0
H142 H 0.61275 0.51162 0.90366 0.0
O143 O 0.64873 0.633 0.94006 0.0
H144 H 0.51506 0.64003 0.85532 0.0
H145 H 0.59189 0.4986 0.85761 0.0
C146 C 0.54036 0.62588 0.95493 0.0
C147 C 0.55018 0.66807 0.97022 0.0
C148 C 0.507 0.69444 0.98026 0.0
C149 C 0.45324 0.67897 0.97506 0.0
C150 C 0.4438 0.63539 0.96063 0.0
C151 C 0.48707 0.60911 0.95062 0.0
C152 C 0.61465 0.54081 0.95554 0.0
C153 C 0.66816 0.52443 0.95427 0.0
C154 C 0.68384 0.48113 0.96574 0.0
C155 C 0.64613 0.45301 0.97861 0.0
C156 C 0.59223 0.46937 0.97966 0.0
C157 C 0.57661 0.51292 0.96816 0.0
C158 C 0.57607 0.58325 0.90597 0.0
C159 C 0.5489 0.6192 0.8919 0.0
C160 C 0.53647 0.61168 0.86559 0.0
C161 C 0.55173 0.56825 0.85272 0.0
C162 C 0.57877 0.53213 0.86697 0.0
C163 C 0.59099 0.53966 0.89335 0.0
P164 P 0.60811 0.41013 0.07179 0.0
H165 H 0.58321 0.32584 0.03751 0.0
H166 H 0.49889 0.28159 0.02677 0.0
H167 H 0.41099 0.38607 0.07311 0.0
H168 H 0.49546 0.42986 0.0838 0.0
H169 H 0.70729 0.45597 0.05602 0.0
H170 H 0.72553 0.53334 0.03612 0.0
H171 H 0.55331 0.56108 0.02881 0.0
H172 H 0.53546 0.48357 0.04898 0.0
H173 H 0.60294 0.34965 0.11661 0.0
H174 H 0.60165 0.50344 0.10151 0.0
O175 O 0.65919 0.37111 0.0678 0.0
H176 H 0.5887 0.36804 0.16232 0.0
H177 H 0.58677 0.52201 0.14698 0.0
C178 C 0.54554 0.38081 0.06156 0.0
C179 C 0.54567 0.33959 0.04499 0.0
C180 C 0.49742 0.31443 0.03884 0.0
C181 C 0.44839 0.33015 0.04929 0.0
C182 C 0.44827 0.37265 0.0651 0.0
C183 C 0.49645 0.3978 0.07114 0.0
C184 C 0.62008 0.46366 0.05364 0.0
C185 C 0.67342 0.47822 0.04967 0.0
C186 C 0.68375 0.52247 0.03819 0.0
C187 C 0.64082 0.5534 0.03083 0.0
C188 C 0.58724 0.53827 0.03448 0.0
C189 C 0.57698 0.49374 0.04582 0.0
C190 C 0.60398 0.42507 0.10571 0.0
C191 C 0.60023 0.38737 0.12319 0.0
C192 C 0.59155 0.39793 0.14924 0.0
C193 C 0.5864 0.4465 0.15826 0.0
C194 C 0.59116 0.48426 0.14071 0.0
C195 C 0.59962 0.47363 0.11463 0.0
C196 C 0.10662 0.12257 0.03019 0.0
C197 C 0.09188 0.10151 0.00593 0.0
C198 C 0.14994 0.15531 0.03289 0.0
C199 C 0.18007 0.16722 0.01138 0.0
C200 C 0.16435 0.14712 0.98703 0.0
C201 C 0.1208 0.11453 0.98431 0.0
C202 C 0.22763 0.20065 0.01349 0.0
C203 C 0.25667 0.20916 0.03568 0.0
C204 C 0.30473 0.24177 0.03803 0.0
C205 C 0.31924 0.26217 0.06243 0.0
C206 C 0.36525 0.29154 0.06591 0.0
C207 C 0.39822 0.30078 0.04507 0.0
H208 H 0.32874 0.23493 0.99812 0.0
C209 C 0.38394 0.2803 0.02061 0.0
C210 C 0.33762 0.25107 0.01708 0.0
H211 H 0.40866 0.28677 0.00421 0.0
H212 H 0.08465 0.11384 0.04717 0.0
H213 H 0.159 0.17138 0.05184 0.0
H214 H 0.18639 0.15605 0.97009 0.0
H215 H 0.11028 0.09909 0.96532 0.0
H216 H 0.23954 0.21782 0.99597 0.0
H217 H 0.245 0.19191 0.0532 0.0
H218 H 0.29499 0.25519 0.07895 0.0
H219 H 0.37573 0.30606 0.0851 0.0
C220 C 0.11209 0.8746 0.97969 0.0
C221 C 0.08484 0.8871 0.00226 0.0
C222 C 0.15634 0.8431 0.98057 0.0
C223 C 0.17435 0.82331 0.00405 0.0
C224 C 0.14569 0.83386 0.02641 0.0
C225 C 0.10156 0.86589 0.0256 0.0
C226 C 0.22303 0.79176 0.0054 0.0
C227 C 0.26637 0.80069 0.99121 0.0
C228 C 0.3153 0.76945 0.99042 0.0
C229 C 0.36341 0.78973 0.98185 0.0
C230 C 0.40889 0.76066 0.978 0.0
C231 C 0.40711 0.71042 0.98239 0.0
H232 H 0.27727 0.70227 0.00183 0.0
C233 C 0.35947 0.69021 0.99168 0.0
C234 C 0.31394 0.71944 0.9957 0.0
H235 H 0.35702 0.6516 0.99529 0.0
H236 H 0.10001 0.88993 0.96134 0.0
H237 H 0.1765 0.83437 0.96282 0.0
H238 H 0.15845 0.81849 0.04465 0.0
H239 H 0.08112 0.87457 0.04329 0.0
H240 H 0.22398 0.76245 0.01903 0.0
H241 H 0.2665 0.8332 0.97971 0.0
H242 H 0.36543 0.82806 0.97746 0.0
H243 H 0.44467 0.77721 0.97044 0.0
C244 C 0.81761 0.87328 0.01549 0.0
C245 C 0.84204 0.88937 0.99322 0.0
C246 C 0.78283 0.83307 0.0142 0.0
C247 C 0.77141 0.80811 0.9905 0.0
C248 C 0.79459 0.8251 0.96812 0.0
C249 C 0.82929 0.8655 0.9694 0.0
C250 C 0.74085 0.76134 0.98907 0.0
C251 C 0.70594 0.74836 0.00705 0.0
C252 C 0.68475 0.69801 0.00935 0.0
C253 C 0.64037 0.69062 0.02498 0.0
C254 C 0.62412 0.64352 0.03078 0.0
C255 C 0.65249 0.60272 0.02137 0.0
H256 H 0.74662 0.6608 0.98725 0.0
C257 C 0.6955 0.61001 0.00488 0.0
C258 C 0.7115 0.65704 0.9989 0.0
H259 H 0.71811 0.57935 0.99727 0.0
H260 H 0.82666 0.89078 0.03416 0.0
H261 H 0.76726 0.82046 0.03206 0.0
H262 H 0.78692 0.80631 0.94967 0.0
H263 H 0.84751 0.87696 0.95187 0.0
H264 H 0.74904 0.73635 0.97308 0.0
H265 H 0.69376 0.77523 0.02149 0.0
H266 H 0.61919 0.72143 0.0334 0.0
H267 H 0.59118 0.63927 0.04378 0.0
C268 C 0.82435 0.12993 0.0167 0.0
C269 C 0.85519 0.11521 0.99556 0.0
C270 C 0.79521 0.17368 0.01624 0.0
C271 C 0.79726 0.20365 0.99477 0.0
C272 C 0.82722 0.18845 0.97354 0.0
C273 C 0.85533 0.14442 0.97377 0.0
C274 C 0.77241 0.25264 0.9946 0.0
C275 C 0.72542 0.26382 0.00568 0.0
C276 C 0.70209 0.31308 0.00298 0.0
C277 C 0.64848 0.31849 0.99368 0.0
C278 C 0.62907 0.36446 0.98692 0.0
C279 C 0.663 0.40573 0.98961 0.0
H280 H 0.77587 0.35139 0.01517 0.0
C281 C 0.71525 0.40052 1.00094 0.0
C282 C 0.73468 0.35464 0.00743 0.0
H283 H 0.74182 0.43174 0.00406 0.0
H284 H 0.82361 0.10815 0.03377 0.0
H285 H 0.77308 0.18492 0.03305 0.0
H286 H 0.82951 0.2111 0.95684 0.0
H287 H 0.87894 0.13427 0.95725 0.0
H288 H 0.79227 0.28014 0.98352 0.0
H289 H 0.70172 0.23575 0.01444 0.0
H290 H 0.62261 0.28684 0.99029 0.0
H291 H 0.58861 0.3671 0.97829 0.0
C292 C 0.60917 0.61731 0.5333 0.0
C293 C 0.58966 0.6006 0.50884 0.0
C294 C 0.65273 0.64984 0.53569 0.0
C295 C 0.67832 0.66591 0.51361 0.0
C296 C 0.65767 0.65033 0.48916 0.0
C297 C 0.61388 0.61795 0.48677 0.0
C298 C 0.72624 0.69896 0.51524 0.0
C299 C 0.75955 0.70349 0.53634 0.0
C300 C 0.80793 0.73575 0.5381 0.0
C301 C 0.82669 0.75263 0.56261 0.0
C302 C 0.87303 0.7817 0.56543 0.0
C303 C 0.90213 0.79412 0.54377 0.0
H304 H 0.82474 0.73467 0.49719 0.0
C305 C 0.88374 0.77699 0.51918 0.0
C306 C 0.837 0.74812 0.51634 0.0
H307 H 0.90549 0.78593 0.50217 0.0
H308 H 0.59088 0.60517 0.55069 0.0
H309 H 0.66565 0.66239 0.55489 0.0
H310 H 0.6761 0.66252 0.47182 0.0
H311 H 0.59965 0.60592 0.46762 0.0
H312 H 0.73479 0.71928 0.49819 0.0
H313 H 0.7513 0.68319 0.5534 0.0
H314 H 0.80545 0.7432 0.57971 0.0
H315 H 0.88677 0.79359 0.58467 0.0
C316 C 0.61581 0.37935 0.47476 0.0
C317 C 0.58896 0.38674 0.49799 0.0
C318 C 0.65983 0.34758 0.47347 0.0
C319 C 0.67794 0.32243 0.49539 0.0
C320 C 0.64994 0.32841 0.51834 0.0
C321 C 0.60616 0.36061 0.51972 0.0
C322 C 0.72547 0.28941 0.49464 0.0
C323 C 0.76818 0.29836 0.48003 0.0
C324 C 0.81624 0.26609 0.47841 0.0
C325 C 0.8653 0.28607 0.47078 0.0
C326 C 0.91056 0.25649 0.46723 0.0
C327 C 0.90754 0.20606 0.47092 0.0
H328 H 0.77597 0.19875 0.48793 0.0
C329 C 0.85866 0.18601 0.47888 0.0
C330 C 0.81341 0.21571 0.48262 0.0
H331 H 0.8552 0.14724 0.48188 0.0
H332 H 0.60336 0.39865 0.45761 0.0
H333 H 0.67939 0.3426 0.45522 0.0
H334 H 0.66274 0.30897 0.53539 0.0
H335 H 0.58608 0.36528 0.53786 0.0
H336 H 0.72642 0.2588 0.50745 0.0
H337 H 0.76902 0.33183 0.46935 0.0
H338 H 0.86845 0.32467 0.4672 0.0
H339 H 0.94739 0.2729 0.4607 0.0
C340 C 0.3222 0.36461 0.51715 0.0
C341 C 0.34576 0.38302 0.49518 0.0
C342 C 0.2873 0.32448 0.51497 0.0
C343 C 0.27512 0.30189 0.49071 0.0
C344 C 0.29769 0.32102 0.46871 0.0
C345 C 0.33232 0.3614 0.47086 0.0
C346 C 0.24439 0.25533 0.48821 0.0
C347 C 0.20868 0.24144 0.5056 0.0
C348 C 0.1876 0.19087 0.50688 0.0
C349 C 0.14152 0.18246 0.52123 0.0
C350 C 0.12569 0.13496 0.5265 0.0
C351 C 0.15627 0.09488 0.51787 0.0
H352 H 0.25278 0.15521 0.48635 0.0
C353 C 0.20085 0.10318 0.50249 0.0
C354 C 0.21636 0.15057 0.497 0.0
H355 H 0.22516 0.07307 0.49553 0.0
H356 H 0.33179 0.38038 0.53617 0.0
H357 H 0.2721 0.31003 0.53251 0.0
H358 H 0.28945 0.30402 0.44984 0.0
H359 H 0.34986 0.37468 0.45354 0.0
H360 H 0.25307 0.23122 0.4719 0.0
H361 H 0.19602 0.26751 0.52035 0.0
H362 H 0.11879 0.21278 0.52918 0.0
H363 H 0.09143 0.12987 0.53862 0.0
C364 C 0.32215 0.62421 0.48472 0.0
C365 C 0.34763 0.60538 0.50694 0.0
C366 C 0.28788 0.66458 0.48661 0.0
C367 C 0.27842 0.68701 0.5108 0.0
C368 C 0.30301 0.66754 0.53302 0.0
C369 C 0.33688 0.62691 0.53116 0.0
C370 C 0.24825 0.73362 0.51314 0.0
C371 C 0.21001 0.74744 0.49569 0.0
C372 C 0.18823 0.79783 0.49471 0.0
C373 C 0.13911 0.80596 0.48102 0.0
C374 C 0.12181 0.85338 0.47606 0.0
C375 C 0.15385 0.89365 0.48435 0.0
H376 H 0.25742 0.8338 0.51439 0.0
C377 C 0.20171 0.88559 0.49908 0.0
C378 C 0.21874 0.83829 0.50426 0.0
H379 H 0.22723 0.91586 0.50577 0.0
H380 H 0.32968 0.60851 0.46578 0.0
H381 H 0.27095 0.67933 0.46895 0.0
H382 H 0.29685 0.68439 0.55185 0.0
H383 H 0.35595 0.61335 0.54868 0.0
H384 H 0.25909 0.75771 0.52952 0.0
H385 H 0.19539 0.72144 0.48083 0.0
H386 H 0.115 0.77549 0.47332 0.0
H387 H 0.08499 0.85831 0.46443 0.0
C388 C 0.99627 0.9737 0.15681 0.0
C389 C 0.9612 0.00386 0.14249 0.0
C390 C 0.00031 0.9783 0.18371 0.0
C391 C 0.96966 0.01362 0.19696 0.0
C392 C 0.93298 0.04236 0.18271 0.0
C393 C 0.92885 0.03766 0.15577 0.0
C394 C 0.97484 0.02169 0.22549 0.0
C395 C 0.01975 0.01016 0.23963 0.0
C396 C 0.027 0.02018 0.26793 0.0
C397 C 0.06704 0.99425 0.28171 0.0
C398 C 0.07716 0.00379 0.30806 0.0
C399 C 0.04777 0.0399 0.32127 0.0
H400 H 0.96716 0.07809 0.27127 0.0
C401 C 0.00762 0.0659 0.30754 0.0
C402 C 0.99736 0.05626 0.28117 0.0
H403 H 0.98406 0.09379 0.31718 0.0
H404 H 0.02071 0.94643 0.14718 0.0
H405 H 0.02729 0.95387 0.19392 0.0
H406 H 0.90842 0.06949 0.19239 0.0
H407 H 0.90156 0.06156 0.1453 0.0
H408 H 0.94106 0.03929 0.23478 0.0
H409 H 0.05356 0.99282 0.23022 0.0
H410 H 0.0909 0.96662 0.27201 0.0
H411 H 0.10892 0.98359 0.31796 0.0
C412 C 0.02997 0.01413 0.8449 0.0
C413 C 0.98984 0.98716 0.85677 0.0
C414 C 0.03801 0.00833 0.81844 0.0
C415 C 0.00633 0.97494 0.80321 0.0
C416 C 0.96515 0.94914 0.81499 0.0
C417 C 0.95701 0.95508 0.84144 0.0
C418 C 0.01452 0.96583 0.77513 0.0
C419 C 0.06004 0.97775 0.76307 0.0
C420 C 0.06842 0.9666 0.73524 0.0
C421 C 0.1047 0.99547 0.72204 0.0
C422 C 0.11446 0.98565 0.696 0.0
C423 C 0.08869 0.94622 0.68267 0.0
H424 H 0.01603 0.90275 0.73158 0.0
C425 C 0.05294 0.91688 0.69597 0.0
C426 C 0.04293 0.92686 0.72195 0.0
H427 H 0.03224 0.88636 0.68621 0.0
H428 H 0.05514 0.03996 0.8561 0.0
H429 H 0.06883 0.03045 0.81019 0.0
H430 H 0.93978 0.92347 0.80377 0.0
H431 H 0.92595 0.93352 0.85 0.0
H432 H 0.98181 0.94744 0.76416 0.0
H433 H 0.09281 -0.00333 0.77366 0.0
H434 H 0.12541 0.02592 0.73187 0.0
H435 H 0.14275 0.00856 0.68639 0.0
C436 C 0.52217 0.52115 0.65756 0.0
C437 C 0.47995 0.49361 0.64538 0.0
C438 C 0.52687 0.52561 0.68443 0.0
C439 C 0.4889 0.50319 0.6999 0.0
C440 C 0.44705 0.4752 0.68777 0.0
C441 C 0.44242 0.47062 0.66081 0.0
C442 C 0.49282 0.50706 0.72862 0.0
C443 C 0.51807 0.5444 0.74164 0.0
C444 C 0.52409 0.54916 0.77029 0.0
C445 C 0.54008 0.59452 0.7813 0.0
C446 C 0.54852 0.60072 0.80795 0.0
C447 C 0.5413 0.56158 0.82438 0.0
H448 H 0.50587 0.47389 0.77913 0.0
C449 C 0.52527 0.51606 0.81345 0.0
C450 C 0.51689 0.50981 0.7867 0.0
H451 H 0.5191 0.4852 0.82556 0.0
H452 H 0.55157 0.53972 0.64632 0.0
H453 H 0.56086 0.54611 0.69287 0.0
H454 H 0.41764 0.45699 0.69918 0.0
H455 H 0.40987 0.44855 0.65209 0.0
H456 H 0.47244 0.4792 0.73911 0.0
H457 H 0.53407 0.57421 0.73088 0.0
H458 H 0.54653 0.62539 0.7692 0.0
H459 H 0.56186 0.63605 0.81561 0.0
C460 C 0.5123 0.52766 0.34708 0.0
C461 C 0.47472 0.49845 0.35933 0.0
C462 C 0.51916 0.52266 0.3205 0.0
C463 C 0.48882 0.48792 0.30554 0.0
C464 C 0.44968 0.46021 0.31764 0.0
C465 C 0.44276 0.46528 0.34423 0.0
C466 C 0.4968 0.47916 0.27745 0.0
C467 C 0.54281 0.49049 0.26565 0.0
C468 C 0.55201 0.47912 0.23792 0.0
C469 C 0.59043 0.50658 0.22522 0.0
C470 C 0.60147 0.49622 0.19938 0.0
C471 C 0.57477 0.45766 0.18573 0.0
H472 H 0.49684 0.41725 0.2335 0.0
C473 C 0.53669 0.42984 0.19848 0.0
C474 C 0.52546 0.44033 0.22428 0.0
H475 H 0.5152 0.40005 0.18845 0.0
H476 H 0.53662 0.55438 0.3581 0.0
H477 H 0.54812 0.54628 0.3119 0.0
H478 H 0.42533 0.43353 0.3066 0.0
H479 H 0.41364 0.44205 0.35308 0.0
H480 H 0.46397 0.46111 0.26641 0.0
H481 H 0.57569 0.50873 0.27653 0.0
H482 H 0.61199 0.53626 0.23533 0.0
H483 H 0.63152 0.51795 0.1902 0.0
loop_
_geom_bond_atom_site_label_1
_geom_bond_atom_site_label_2
_geom_bond_distance
_geom_bond_site_symmetry_2
_ccdc_geom_bond_type
C0 O16 1.251 . S
C0 O18 1.254 1_554 S
N1 C2 1.333 1_445 S
N1 C6 1.307 . S
N1 Zn7 2.020 . S
C2 N1 1.333 1_665 S
C2 C3 1.379 . S
C2 H20 0.952 . S
C3 C2 1.379 . S
C3 C4 1.390 1_665 S
C3 H30 0.949 . S
C4 C3 1.390 1_445 S
C4 C5 1.357 . S
C5 C4 1.357 . S
C5 C6 1.370 . S
C5 H31 0.950 . S
C6 N1 1.307 . S
C6 C5 1.370 . S
C6 H24 0.948 . S
Zn7 N1 2.020 . S
Zn7 O16 2.039 1_445 S
Zn7 O22 2.034 1_455 S
Zn7 O26 2.025 . S
Zn7 O28 2.024 1_545 S
C8 O27 1.246 1_554 S
C8 O28 1.249 . S
N9 C10 1.307 1_445 S
N9 C11 1.333 . S
N9 Zn15 2.020 . S
C10 N9 1.307 1_665 S
C10 C14 1.370 . S
C10 H21 0.948 . S
C11 N9 1.333 . S
C11 C12 1.379 . S
C11 H19 0.952 . S
C12 C11 1.379 . S
C12 C13 1.390 . S
C12 H32 0.949 . S
C13 C12 1.390 . S
C13 C14 1.357 1_445 S
C14 C10 1.370 . S
C14 C13 1.357 1_665 S
C14 H33 0.950 . S
Zn15 N9 2.020 . S
Zn15 O18 2.025 1_445 S
Zn15 O23 2.024 1_455 S
Zn15 O25 2.039 . S
Zn15 O27 2.034 1_545 S
O16 C0 1.251 . S
O16 Zn7 2.039 1_665 S
C17 O22 1.246 . S
C17 O23 1.249 1_554 S
O18 C0 1.254 1_556 S
O18 Zn15 2.025 1_665 S
H19 C11 0.952 . S
H20 C2 0.952 . S
H21 C10 0.948 . S
O22 Zn7 2.034 1_655 S
O22 C17 1.246 . S
O23 Zn15 2.024 1_655 S
O23 C17 1.249 1_556 S
H24 C6 0.948 . S
O25 Zn15 2.039 . S
O25 C29 1.251 1_556 S
O26 Zn7 2.025 . S
O26 C29 1.254 . S
O27 C8 1.246 1_556 S
O27 Zn15 2.034 1_565 S
O28 Zn7 2.024 1_565 S
O28 C8 1.249 . S
C29 O25 1.251 1_554 S
C29 O26 1.254 . S
H30 C3 0.949 . S
H31 C5 0.950 . S
H32 C12 0.949 . S
H33 C14 0.950 . S
C34 O50 1.251 . S
C34 O52 1.254 . S
N35 C36 1.333 . S
N35 C40 1.307 . S
N35 Zn41 2.020 . S
C36 N35 1.333 . S
C36 C37 1.379 . S
C36 H54 0.952 . S
C37 C36 1.379 . S
C37 C38 1.390 . S
C37 H64 0.949 . S
C38 C37 1.390 . S
C38 C39 1.357 . S
C39 C38 1.357 . S
C39 C40 1.370 . S
C39 H65 0.950 . S
C40 N35 1.307 . S
C40 C39 1.370 . S
C40 H58 0.948 . S
Zn41 N35 2.020 . S
Zn41 O50 2.039 . S
Zn41 O56 2.034 . S
Zn41 O60 2.025 . S
Zn41 O62 2.024 . S
C42 O61 1.246 . S
C42 O62 1.249 . S
N43 C44 1.307 . S
N43 C45 1.333 . S
N43 Zn49 2.020 . S
C44 N43 1.307 . S
C44 C48 1.370 . S
C44 H55 0.948 . S
C45 N43 1.333 . S
C45 C46 1.379 . S
C45 H53 0.952 . S
C46 C45 1.379 . S
C46 C47 1.390 . S
C46 H66 0.949 . S
C47 C46 1.390 . S
C47 C48 1.357 . S
C48 C44 1.370 . S
C48 C47 1.357 . S
C48 H67 0.950 . S
Zn49 N43 2.020 . S
Zn49 O52 2.025 . S
Zn49 O57 2.024 . S
Zn49 O59 2.039 . S
Zn49 O61 2.034 . S
O50 C34 1.251 . S
O50 Zn41 2.039 . S
C51 O56 1.246 . S
C51 O57 1.249 . S
O52 C34 1.254 . S
O52 Zn49 2.025 . S
H53 C45 0.952 . S
H54 C36 0.952 . S
H55 C44 0.948 . S
O56 Zn41 2.034 . S
O56 C51 1.246 . S
O57 Zn49 2.024 . S
O57 C51 1.249 . S
H58 C40 0.948 . S
O59 Zn49 2.039 . S
O59 C63 1.251 . S
O60 Zn41 2.025 . S
O60 C63 1.254 . S
O61 C42 1.246 . S
O61 Zn49 2.034 . S
O62 Zn41 2.024 . S
O62 C42 1.249 . S
C63 O59 1.251 . S
C63 O60 1.254 . S
H64 C37 0.949 . S
H65 C39 0.950 . S
H66 C46 0.949 . S
H67 C48 0.950 . S
P68 O79 1.490 . S
P68 C82 1.812 1_455 S
P68 C88 1.803 1_545 S
P68 C94 1.819 . S
H69 C83 0.941 . S
H70 C84 0.939 . S
H71 C86 0.940 . S
H72 C87 0.940 . S
H73 C89 0.939 . S
H74 C90 0.942 . S
H75 C92 0.940 . S
H76 C93 0.939 . S
H77 C95 0.941 . S
H78 C99 0.939 . S
O79 P68 1.490 . S
H80 C96 0.939 . S
H81 C98 0.940 . S
C82 P68 1.812 1_655 S
C82 C83 1.389 1_655 S
C82 C87 1.391 . S
C83 H69 0.941 . S
C83 C82 1.389 1_455 S
C83 C84 1.397 1_455 S
C84 H70 0.939 . S
C84 C83 1.397 1_655 S
C84 C85 1.378 . S
C85 C84 1.378 . S
C85 C86 1.378 . S
C86 H71 0.940 . S
C86 C85 1.378 . S
C86 C87 1.396 . S
C87 H72 0.940 . S
C87 C82 1.391 . S
C87 C86 1.396 . S
C88 P68 1.803 1_565 S
C88 C89 1.378 . S
C88 C93 1.400 . S
C89 H73 0.939 . S
C89 C88 1.378 . S
C89 C90 1.361 . S
C90 H74 0.942 . S
C90 C89 1.361 . S
C90 C91 1.369 . S
C91 C90 1.369 . S
C91 C92 1.404 . S
C92 H75 0.940 . S
C92 C91 1.404 . S
C92 C93 1.389 . S
C93 H76 0.939 . S
C93 C88 1.400 . S
C93 C92 1.389 . S
C94 P68 1.819 . S
C94 C95 1.391 . S
C94 C99 1.391 1_545 S
C95 H77 0.941 . S
C95 C94 1.391 . S
C95 C96 1.396 . S
C96 H80 0.939 . S
C96 C95 1.396 . S
C96 C97 1.397 . S
C97 C96 1.397 . S
C97 C98 1.385 1_545 S
C98 H81 0.940 . S
C98 C97 1.385 1_565 S
C98 C99 1.388 . S
C99 H78 0.939 . S
C99 C94 1.391 1_565 S
C99 C98 1.388 . S
P100 O111 1.490 . S
P100 C114 1.812 . S
P100 C120 1.803 1_565 S
P100 C126 1.819 . S
H101 C115 0.941 . S
H102 C116 0.939 . S
H103 C118 0.940 . S
H104 C119 0.940 . S
H105 C121 0.939 . S
H106 C122 0.942 . S
H107 C124 0.940 . S
H108 C125 0.939 . S
H109 C127 0.941 . S
H110 C131 0.939 . S
O111 P100 1.490 . S
H112 C128 0.939 . S
H113 C130 0.940 . S
C114 P100 1.812 . S
C114 C115 1.389 . S
C114 C119 1.391 1_455 S
C115 H101 0.941 . S
C115 C114 1.389 . S
C115 C116 1.397 1_455 S
C116 H102 0.939 . S
C116 C115 1.397 1_655 S
C116 C117 1.378 . S
C117 C116 1.378 . S
C117 C118 1.378 . S
C118 H103 0.940 . S
C118 C117 1.378 . S
C118 C119 1.396 . S
C119 H104 0.940 . S
C119 C114 1.391 1_655 S
C119 C118 1.396 . S
C120 P100 1.803 1_545 S
C120 C121 1.378 . S
C120 C125 1.400 . S
C121 H105 0.939 . S
C121 C120 1.378 . S
C121 C122 1.361 . S
C122 H106 0.942 . S
C122 C121 1.361 . S
C122 C123 1.369 . S
C123 C122 1.369 . S
C123 C124 1.404 . S
C124 H107 0.940 . S
C124 C123 1.404 . S
C124 C125 1.389 . S
C125 H108 0.939 . S
C125 C120 1.400 . S
C125 C124 1.389 . S
C126 P100 1.819 . S
C126 C127 1.391 . S
C126 C131 1.391 1_565 S
C127 H109 0.941 . S
C127 C126 1.391 . S
C127 C128 1.396 . S
C128 H112 0.939 . S
C128 C127 1.396 . S
C128 C129 1.397 . S
C129 C128 1.397 . S
C129 C130 1.385 1_565 S
C130 H113 0.940 . S
C130 C129 1.385 1_545 S
C130 C131 1.388 . S
C131 H110 0.939 . S
C131 C126 1.391 1_545 S
C131 C130 1.388 . S
P132 O143 1.490 . S
P132 C146 1.812 . S
P132 C152 1.803 . S
P132 C158 1.819 . S
H133 C147 0.941 . S
H134 C148 0.939 . S
H135 C150 0.940 . S
H136 C151 0.940 . S
H137 C153 0.939 . S
H138 C154 0.942 . S
H139 C156 0.940 . S
H140 C157 0.939 . S
H141 C159 0.941 . S
H142 C163 0.939 . S
O143 P132 1.490 . S
H144 C160 0.939 . S
H145 C162 0.940 . S
C146 P132 1.812 . S
C146 C147 1.389 . S
C146 C151 1.391 . S
C147 H133 0.941 . S
C147 C146 1.389 . S
C147 C148 1.397 . S
C148 H134 0.939 . S
C148 C147 1.397 . S
C148 C149 1.378 . S
C149 C148 1.378 . S
C149 C150 1.378 . S
C150 H135 0.940 . S
C150 C149 1.378 . S
C150 C151 1.396 . S
C151 H136 0.940 . S
C151 C146 1.391 . S
C151 C150 1.396 . S
C152 P132 1.803 . S
C152 C153 1.378 . S
C152 C157 1.400 . S
C153 H137 0.939 . S
C153 C152 1.378 . S
C153 C154 1.361 . S
C154 H138 0.942 . S
C154 C153 1.361 . S
C154 C155 1.369 . S
C155 C154 1.369 . S
C155 C156 1.404 . S
C156 H139 0.940 . S
C156 C155 1.404 . S
C156 C157 1.389 . S
C157 H140 0.939 . S
C157 C152 1.400 . S
C157 C156 1.389 . S
C158 P132 1.819 . S
C158 C159 1.391 . S
C158 C163 1.391 . S
C159 H141 0.941 . S
C159 C158 1.391 . S
C159 C160 1.396 . S
C160 H144 0.939 . S
C160 C159 1.396 . S
C160 C161 1.397 . S
C161 C160 1.397 . S
C161 C162 1.385 . S
C162 H145 0.940 . S
C162 C161 1.385 . S
C162 C163 1.388 . S
C163 H142 0.939 . S
C163 C158 1.391 . S
C163 C162 1.388 . S
P164 O175 1.490 . S
P164 C178 1.812 . S
P164 C184 1.803 . S
P164 C190 1.819 . S
H165 C179 0.941 . S
H166 C180 0.939 . S
H167 C182 0.940 . S
H168 C183 0.940 . S
H169 C185 0.939 . S
H170 C186 0.942 . S
H171 C188 0.940 . S
H172 C189 0.939 . S
H173 C191 0.941 . S
H174 C195 0.939 . S
O175 P164 1.490 . S
H176 C192 0.939 . S
H177 C194 0.940 . S
C178 P164 1.812 . S
C178 C179 1.389 . S
C178 C183 1.391 . S
C179 H165 0.941 . S
C179 C178 1.389 . S
C179 C180 1.397 . S
C180 H166 0.939 . S
C180 C179 1.397 . S
C180 C181 1.378 . S
C181 C180 1.378 . S
C181 C182 1.378 . S
C182 H167 0.940 . S
C182 C181 1.378 . S
C182 C183 1.396 . S
C183 H168 0.940 . S
C183 C178 1.391 . S
C183 C182 1.396 . S
C184 P164 1.803 . S
C184 C185 1.378 . S
C184 C189 1.400 . S
C185 H169 0.939 . S
C185 C184 1.378 . S
C185 C186 1.361 . S
C186 H170 0.942 . S
C186 C185 1.361 . S
C186 C187 1.369 . S
C187 C186 1.369 . S
C187 C188 1.404 . S
C188 H171 0.940 . S
C188 C187 1.404 . S
C188 C189 1.389 . S
C189 H172 0.939 . S
C189 C184 1.400 . S
C189 C188 1.389 . S
C190 P164 1.819 . S
C190 C191 1.391 . S
C190 C195 1.391 . S
C191 H173 0.941 . S
C191 C190 1.391 . S
C191 C192 1.396 . S
C192 H176 0.939 . S
C192 C191 1.396 . S
C192 C193 1.397 . S
C193 C192 1.397 . S
C193 C194 1.385 . S
C194 H177 0.940 . S
C194 C193 1.385 . S
C194 C195 1.388 . S
C195 H174 0.939 . S
C195 C190 1.391 . S
C195 C194 1.388 . S
C196 C197 1.394 . S
C196 C198 1.383 . S
C196 H212 0.951 . S
C197 C196 1.394 . S
C197 C201 1.373 1_554 S
C198 C196 1.383 . S
C198 C199 1.402 1_554 S
C198 H213 0.951 . S
C199 C198 1.402 1_556 S
C199 C200 1.375 . S
C199 C202 1.481 . S
C200 C199 1.375 . S
C200 C201 1.367 . S
C200 H214 0.951 . S
C201 C197 1.373 1_556 S
C201 C200 1.367 . S
C201 H215 0.950 . S
C202 C199 1.481 . S
C202 C203 1.297 1_556 S
C202 H216 0.950 . S
C203 C202 1.297 1_554 S
C203 C204 1.479 . S
C203 H217 0.950 . S
C204 C203 1.479 . S
C204 C205 1.375 . S
C204 C210 1.404 1_554 S
C205 C204 1.375 . S
C205 C206 1.369 . S
C205 H218 0.950 . S
C206 C205 1.369 . S
C206 C207 1.392 . S
C206 H219 0.951 . S
C207 C206 1.392 . S
C207 C209 1.384 1_554 S
H208 C210 0.949 . S
C209 C207 1.384 1_556 S
C209 C210 1.385 . S
C209 H211 0.950 . S
C210 C204 1.404 1_556 S
C210 H208 0.949 . S
C210 C209 1.385 . S
H211 C209 0.950 . S
H212 C196 0.951 . S
H213 C198 0.951 . S
H214 C200 0.951 . S
H215 C201 0.950 . S
H216 C202 0.950 . S
H217 C203 0.950 . S
H218 C205 0.950 . S
H219 C206 0.951 . S
C220 C221 1.386 1_556 S
C220 C222 1.383 . S
C220 H236 0.951 . S
C221 C220 1.386 1_554 S
C221 C225 1.383 . S
C222 C220 1.383 . S
C222 C223 1.402 1_556 S
C222 H237 0.951 . S
C223 C222 1.402 1_554 S
C223 C224 1.375 . S
C223 C226 1.481 . S
C224 C223 1.375 . S
C224 C225 1.367 . S
C224 H238 0.951 . S
C225 C221 1.383 . S
C225 C224 1.367 . S
C225 H239 0.950 . S
C226 C223 1.481 . S
C226 C227 1.293 1_554 S
C226 H240 0.950 . S
C227 C226 1.293 1_556 S
C227 C228 1.481 . S
C227 H241 0.954 . S
C228 C227 1.481 . S
C228 C229 1.375 . S
C228 C234 1.404 1_556 S
C229 C228 1.375 . S
C229 C230 1.369 . S
C229 H242 0.950 . S
C230 C229 1.369 . S
C230 C231 1.392 . S
C230 H243 0.951 . S
C231 C230 1.392 . S
C231 C233 1.384 . S
H232 C234 0.949 . S
C233 C231 1.384 . S
C233 C234 1.385 1_556 S
C233 H235 0.950 1_556 S
C234 C228 1.404 1_554 S
C234 H232 0.949 . S
C234 C233 1.385 1_554 S
H235 C233 0.950 1_554 S
H236 C220 0.951 . S
H237 C222 0.951 . S
H238 C224 0.951 . S
H239 C225 0.950 . S
H240 C226 0.950 . S
H241 C227 0.954 . S
H242 C229 0.950 . S
H243 C230 0.951 . S
C244 C245 1.408 . S
C244 C246 1.383 . S
C244 H260 0.951 . S
C245 C244 1.408 . S
C245 C249 1.361 1_554 S
C246 C244 1.383 . S
C246 C247 1.402 1_554 S
C246 H261 0.951 . S
C247 C246 1.402 1_556 S
C247 C248 1.375 . S
C247 C250 1.481 . S
C248 C247 1.375 . S
C248 C249 1.367 . S
C248 H262 0.951 . S
C249 C245 1.361 1_556 S
C249 C248 1.367 . S
C249 H263 0.950 . S
C250 C247 1.481 . S
C250 C251 1.297 1_556 S
C250 H264 0.950 . S
C251 C250 1.297 1_554 S
C251 C252 1.479 . S
C251 H265 0.950 . S
C252 C251 1.479 . S
C252 C253 1.375 . S
C252 C258 1.404 1_554 S
C253 C252 1.375 . S
C253 C254 1.369 . S
C253 H266 0.950 . S
C254 C253 1.369 . S
C254 C255 1.392 . S
C254 H267 0.951 . S
C255 C254 1.392 . S
C255 C257 1.384 1_554 S
H256 C258 0.949 . S
C257 C255 1.384 1_556 S
C257 C258 1.385 . S
C257 H259 0.950 . S
C258 C252 1.404 1_556 S
C258 H256 0.949 . S
C258 C257 1.385 . S
H259 C257 0.950 . S
H260 C244 0.951 . S
H261 C246 0.951 . S
H262 C248 0.951 . S
H263 C249 0.950 . S
H264 C250 0.950 . S
H265 C251 0.950 . S
H266 C253 0.950 . S
H267 C254 0.951 . S
C268 C269 1.386 . S
C268 C270 1.383 . S
C268 H284 0.951 . S
C269 C268 1.386 . S
C269 C273 1.383 1_554 S
C270 C268 1.383 . S
C270 C271 1.402 1_554 S
C270 H285 0.951 . S
C271 C270 1.402 1_556 S
C271 C272 1.375 . S
C271 C274 1.481 . S
C272 C271 1.375 . S
C272 C273 1.367 . S
C272 H286 0.951 . S
C273 C269 1.383 1_556 S
C273 C272 1.367 . S
C273 H287 0.950 . S
C274 C271 1.481 . S
C274 C275 1.297 1_556 S
C274 H288 0.950 . S
C275 C274 1.297 1_554 S
C275 C276 1.479 . S
C275 H289 0.950 . S
C276 C275 1.479 . S
C276 C277 1.375 . S
C276 C282 1.404 1_554 S
C277 C276 1.375 . S
C277 C278 1.369 1_554 S
C277 H290 0.950 . S
C278 C277 1.369 1_556 S
C278 C279 1.392 . S
C278 H291 0.951 1_556 S
C279 C278 1.392 . S
C279 C281 1.384 . S
H280 C282 0.949 . S
C281 C279 1.384 . S
C281 C282 1.385 . S
C281 H283 0.950 . S
C282 C276 1.404 1_556 S
C282 H280 0.949 . S
C282 C281 1.385 . S
H283 C281 0.950 . S
H284 C268 0.951 . S
H285 C270 0.951 . S
H286 C272 0.951 . S
H287 C273 0.950 . S
H288 C274 0.950 . S
H289 C275 0.950 . S
H290 C277 0.950 . S
H291 C278 0.951 1_554 S
C292 C293 1.386 . S
C292 C294 1.383 . S
C292 H308 0.951 . S
C293 C292 1.386 . S
C293 C297 1.383 . S
C294 C292 1.383 . S
C294 C295 1.402 . S
C294 H309 0.951 . S
C295 C294 1.402 . S
C295 C296 1.375 . S
C295 C298 1.481 . S
C296 C295 1.375 . S
C296 C297 1.367 . S
C296 H310 0.951 . S
C297 C293 1.383 . S
C297 C296 1.367 . S
C297 H311 0.950 . S
C298 C295 1.481 . S
C298 C299 1.297 . S
C298 H312 0.950 . S
C299 C298 1.297 . S
C299 C300 1.479 . S
C299 H313 0.950 . S
C300 C299 1.479 . S
C300 C301 1.375 . S
C300 C306 1.404 . S
C301 C300 1.375 . S
C301 C302 1.369 . S
C301 H314 0.950 . S
C302 C301 1.369 . S
C302 C303 1.392 . S
C302 H315 0.951 . S
C303 C302 1.392 . S
C303 C305 1.384 . S
H304 C306 0.949 . S
C305 C303 1.384 . S
C305 C306 1.385 . S
C305 H307 0.950 . S
C306 C300 1.404 . S
C306 H304 0.949 . S
C306 C305 1.385 . S
H307 C305 0.950 . S
H308 C292 0.951 . S
H309 C294 0.951 . S
H310 C296 0.951 . S
H311 C297 0.950 . S
H312 C298 0.950 . S
H313 C299 0.950 . S
H314 C301 0.950 . S
H315 C302 0.951 . S
C316 C317 1.386 . S
C316 C318 1.383 . S
C316 H332 0.951 . S
C317 C316 1.386 . S
C317 C321 1.383 . S
C318 C316 1.383 . S
C318 C319 1.402 . S
C318 H333 0.951 . S
C319 C318 1.402 . S
C319 C320 1.375 . S
C319 C322 1.481 . S
C320 C319 1.375 . S
C320 C321 1.367 . S
C320 H334 0.951 . S
C321 C317 1.383 . S
C321 C320 1.367 . S
C321 H335 0.950 . S
C322 C319 1.481 . S
C322 C323 1.297 . S
C322 H336 0.950 . S
C323 C322 1.297 . S
C323 C324 1.479 . S
C323 H337 0.950 . S
C324 C323 1.479 . S
C324 C325 1.375 . S
C324 C330 1.404 . S
C325 C324 1.375 . S
C325 C326 1.369 . S
C325 H338 0.950 . S
C326 C325 1.369 . S
C326 C327 1.392 . S
C326 H339 0.951 . S
C327 C326 1.392 . S
C327 C329 1.384 . S
H328 C330 0.949 . S
C329 C327 1.384 . S
C329 C330 1.385 . S
C329 H331 0.950 . S
C330 C324 1.404 . S
C330 H328 0.949 . S
C330 C329 1.385 . S
H331 C329 0.950 . S
H332 C316 0.951 . S
H333 C318 0.951 . S
H334 C320 0.951 . S
H335 C321 0.950 . S
H336 C322 0.950 . S
H337 C323 0.950 . S
H338 C325 0.950 . S
H339 C326 0.951 . S
C340 C341 1.386 . S
C340 C342 1.383 . S
C340 H356 0.951 . S
C341 C340 1.386 . S
C341 C345 1.383 . S
C342 C340 1.383 . S
C342 C343 1.402 . S
C342 H357 0.951 . S
C343 C342 1.402 . S
C343 C344 1.375 . S
C343 C346 1.481 . S
C344 C343 1.375 . S
C344 C345 1.367 . S
C344 H358 0.951 . S
C345 C341 1.383 . S
C345 C344 1.367 . S
C345 H359 0.950 . S
C346 C343 1.481 . S
C346 C347 1.297 . S
C346 H360 0.950 . S
C347 C346 1.297 . S
C347 C348 1.479 . S
C347 H361 0.950 . S
C348 C347 1.479 . S
C348 C349 1.375 . S
C348 C354 1.404 . S
C349 C348 1.375 . S
C349 C350 1.369 . S
C349 H362 0.950 . S
C350 C349 1.369 . S
C350 C351 1.392 . S
C350 H363 0.951 . S
C351 C350 1.392 . S
C351 C353 1.384 . S
H352 C354 0.949 . S
C353 C351 1.384 . S
C353 C354 1.385 . S
C353 H355 0.950 . S
C354 C348 1.404 . S
C354 H352 0.949 . S
C354 C353 1.385 . S
H355 C353 0.950 . S
H356 C340 0.951 . S
H357 C342 0.951 . S
H358 C344 0.951 . S
H359 C345 0.950 . S
H360 C346 0.950 . S
H361 C347 0.950 . S
H362 C349 0.950 . S
H363 C350 0.951 . S
C364 C365 1.386 . S
C364 C366 1.383 . S
C364 H380 0.951 . S
C365 C364 1.386 . S
C365 C369 1.383 . S
C366 C364 1.383 . S
C366 C367 1.402 . S
C366 H381 0.951 . S
C367 C366 1.402 . S
C367 C368 1.375 . S
C367 C370 1.481 . S
C368 C367 1.375 . S
C368 C369 1.367 . S
C368 H382 0.951 . S
C369 C365 1.383 . S
C369 C368 1.367 . S
C369 H383 0.950 . S
C370 C367 1.481 . S
C370 C371 1.297 . S
C370 H384 0.950 . S
C371 C370 1.297 . S
C371 C372 1.479 . S
C371 H385 0.950 . S
C372 C371 1.479 . S
C372 C373 1.375 . S
C372 C378 1.404 . S
C373 C372 1.375 . S
C373 C374 1.369 . S
C373 H386 0.950 . S
C374 C373 1.369 . S
C374 C375 1.392 . S
C374 H387 0.951 . S
C375 C374 1.392 . S
C375 C377 1.384 . S
H376 C378 0.949 . S
C377 C375 1.384 . S
C377 C378 1.385 . S
C377 H379 0.950 . S
C378 C372 1.404 . S
C378 H376 0.949 . S
C378 C377 1.385 . S
H379 C377 0.950 . S
H380 C364 0.951 . S
H381 C366 0.951 . S
H382 C368 0.951 . S
H383 C369 0.950 . S
H384 C370 0.950 . S
H385 C371 0.950 . S
H386 C373 0.950 . S
H387 C374 0.951 . S
C388 C389 1.386 1_565 S
C388 C390 1.383 . S
C388 H404 0.951 . S
C389 C388 1.386 1_545 S
C389 C393 1.383 1_455 S
C390 C388 1.383 . S
C390 C391 1.406 1_565 S
C390 H405 0.951 . S
C391 C390 1.406 1_545 S
C391 C392 1.371 1_455 S
C391 C394 1.480 1_455 S
C392 C391 1.371 1_655 S
C392 C393 1.367 . S
C392 H406 0.951 . S
C393 C389 1.383 1_655 S
C393 C392 1.367 . S
C393 H407 0.950 . S
C394 C391 1.480 1_655 S
C394 C395 1.297 1_655 S
C394 H408 0.950 . S
C395 C394 1.297 1_455 S
C395 C396 1.479 . S
C395 H409 0.950 1_545 S
C396 C395 1.479 . S
C396 C397 1.375 1_545 S
C396 C402 1.404 1_455 S
C397 C396 1.375 1_565 S
C397 C398 1.369 . S
C397 H410 0.950 . S
C398 C397 1.369 . S
C398 C399 1.392 1_565 S
C398 H411 0.951 . S
C399 C398 1.392 1_545 S
C399 C401 1.384 1_455 S
H400 C402 0.949 . S
C401 C399 1.384 1_655 S
C401 C402 1.385 . S
C401 H403 0.950 . S
C402 C396 1.404 1_655 S
C402 H400 0.949 . S
C402 C401 1.385 . S
H403 C401 0.950 . S
H404 C388 0.951 . S
H405 C390 0.951 . S
H406 C392 0.951 . S
H407 C393 0.950 . S
H408 C394 0.950 . S
H409 C395 0.950 1_565 S
H410 C397 0.950 . S
H411 C398 0.951 . S
C412 C413 1.386 . S
C412 C414 1.383 . S
C412 H428 0.951 . S
C413 C412 1.386 . S
C413 C417 1.383 1_445 S
C414 C412 1.383 . S
C414 C415 1.402 1_545 S
C414 H429 0.951 . S
C415 C414 1.402 1_565 S
C415 C416 1.375 1_455 S
C415 C418 1.481 . S
C416 C415 1.375 1_655 S
C416 C417 1.367 . S
C416 H430 0.951 . S
C417 C413 1.383 1_665 S
C417 C416 1.367 . S
C417 H431 0.950 . S
C418 C415 1.481 . S
C418 C419 1.297 . S
C418 H432 0.950 1_455 S
C419 C418 1.297 . S
C419 C420 1.479 . S
C419 H433 0.950 . S
C420 C419 1.479 . S
C420 C421 1.375 1_565 S
C420 C426 1.404 1_455 S
C421 C420 1.375 1_545 S
C421 C422 1.369 . S
C421 H434 0.950 . S
C422 C421 1.369 . S
C422 C423 1.392 1_545 S
C422 H435 0.951 . S
C423 C422 1.392 1_565 S
C423 C425 1.384 1_455 S
H424 C426 0.949 . S
C425 C423 1.384 1_655 S
C425 C426 1.385 . S
C425 H427 0.950 . S
C426 C420 1.404 1_655 S
C426 H424 0.949 . S
C426 C425 1.385 . S
H427 C425 0.950 . S
H428 C412 0.951 . S
H429 C414 0.951 . S
H430 C416 0.951 . S
H431 C417 0.950 . S
H432 C418 0.950 1_655 S
H433 C419 0.950 . S
H434 C421 0.950 . S
H435 C422 0.951 . S
C436 C437 1.386 . S
C436 C438 1.383 . S
C436 H452 0.951 . S
C437 C436 1.386 . S
C437 C441 1.383 . S
C438 C436 1.383 . S
C438 C439 1.402 . S
C438 H453 0.951 . S
C439 C438 1.402 . S
C439 C440 1.375 . S
C439 C442 1.481 . S
C440 C439 1.375 . S
C440 C441 1.367 . S
C440 H454 0.951 . S
C441 C437 1.383 . S
C441 C440 1.367 . S
C441 H455 0.950 . S
C442 C439 1.481 . S
C442 C443 1.297 . S
C442 H456 0.950 . S
C443 C442 1.297 . S
C443 C444 1.479 . S
C443 H457 0.950 . S
C444 C443 1.479 . S
C444 C445 1.375 . S
C444 C450 1.404 . S
C445 C444 1.375 . S
C445 C446 1.369 . S
C445 H458 0.950 . S
C446 C445 1.369 . S
C446 C447 1.392 . S
C446 H459 0.951 . S
C447 C446 1.392 . S
C447 C449 1.384 . S
H448 C450 0.949 . S
C449 C447 1.384 . S
C449 C450 1.385 . S
C449 H451 0.950 . S
C450 C444 1.404 . S
C450 H448 0.949 . S
C450 C449 1.385 . S
H451 C449 0.950 . S
H452 C436 0.951 . S
H453 C438 0.951 . S
H454 C440 0.951 . S
H455 C441 0.950 . S
H456 C442 0.950 . S
H457 C443 0.950 . S
H458 C445 0.950 . S
H459 C446 0.951 . S
C460 C461 1.386 . S
C460 C462 1.383 . S
C460 H476 0.951 . S
C461 C460 1.386 . S
C461 C465 1.383 . S
C462 C460 1.383 . S
C462 C463 1.402 . S
C462 H477 0.951 . S
C463 C462 1.402 . S
C463 C464 1.375 . S
C463 C466 1.481 . S
C464 C463 1.375 . S
C464 C465 1.367 . S
C464 H478 0.951 . S
C465 C461 1.383 . S
C465 C464 1.367 . S
C465 H479 0.950 . S
C466 C463 1.481 . S
C466 C467 1.297 . S
C466 H480 0.950 . S
C467 C466 1.297 . S
C467 C468 1.479 . S
C467 H481 0.950 . S
C468 C467 1.479 . S
C468 C469 1.375 . S
C468 C474 1.404 . S
C469 C468 1.375 . S
C469 C470 1.369 . S
C469 H482 0.950 . S
C470 C469 1.369 . S
C470 C471 1.392 . S
C470 H483 0.951 . S
C471 C470 1.392 . S
C471 C473 1.384 . S
H472 C474 0.949 . S
C473 C471 1.384 . S
C473 C474 1.385 . S
C473 H475 0.950 . S
C474 C468 1.404 . S
C474 H472 0.949 . S
C474 C473 1.385 . S
H475 C473 0.950 . S
H476 C460 0.951 . S
H477 C462 0.951 . S
H478 C464 0.951 . S
H479 C465 0.950 . S
H480 C466 0.950 . S
H481 C467 0.950 . S
H482 C469 0.950 . S
H483 C470 0.951 . S
C207 C181 1.337 . S
C197 C29 1.411 . S
C221 C8 1.404 . S
C231 C149 1.363 . S
C245 C0 1.400 . S
C255 C187 1.398 . S
C269 C17 1.409 . S
C279 C155 1.369 . S
C293 C63 1.406 . S
C303 C117 1.319 . S
C317 C42 1.404 . S
C327 C85 1.364 . S
C351 C123 1.386 . S
C341 C34 1.400 . S
C375 C91 1.400 . S
C365 C51 1.404 . S
C389 C4 1.478 . S
C399 C97 1.400 . S
C413 C13 1.473 . S
C423 C129 1.410 . S
C447 C161 1.470 . S
C437 C38 1.487 . S
C461 C47 1.477 . S
C471 C193 1.410 . S
