# Generated by pormake.
# Topology zzz, (3,6)-cn, num edge types: 1
# Building blocks:
#     Node 0, Type 0, BuildingBlock: CUQRIR_clean_linker_1, # of connection points: 3
#     Node 1, Type 0, BuildingBlock: CUQRIR_clean_linker_1, # of connection points: 3
#     Node 2, Type 0, BuildingBlock: CUQRIR_clean_linker_1, # of connection points: 3
#     Node 3, Type 0, BuildingBlock: CUQRIR_clean_linker_1, # of connection points: 3
#     Node 4, Type 0, BuildingBlock: CUQRIR_clean_linker_1, # of connection points: 3
#     Node 5, Type 0, BuildingBlock: CUQRIR_clean_linker_1, # of connection points: 3
#     Node 6, Type 0, BuildingBlock: CUQRIR_clean_linker_1, # of connection points: 3
#     Node 7, Type 0, BuildingBlock: CUQRIR_clean_linker_1, # of connection points: 3
#     Node 8, Type 1, BuildingBlock: BETDIP_clean_sbu_0, # of connection points: 6
#     Node 9, Type 1, BuildingBlock: BETDIP_clean_sbu_0, # of connection points: 6
#     Node 10, Type 1, BuildingBlock: BETDIP_clean_sbu_0, # of connection points: 6
#     Node 11, Type 1, BuildingBlock: BETDIP_clean_sbu_0, # of connection points: 6
#     Edge 12, Type (0, 1), BuildingBlock: OJICUG_clean_linker_0, # of connection points: 2
#     Edge 13, Type (0, 1), BuildingBlock: OJICUG_clean_linker_0, # of connection points: 2
#     Edge 14, Type (0, 1), BuildingBlock: OJICUG_clean_linker_0, # of connection points: 2
#     Edge 15, Type (0, 1), BuildingBlock: OJICUG_clean_linker_0, # of connection points: 2
#     Edge 16, Type (0, 1), BuildingBlock: OJICUG_clean_linker_0, # of connection points: 2
#     Edge 17, Type (0, 1), BuildingBlock: OJICUG_clean_linker_0, # of connection points: 2
#     Edge 18, Type (0, 1), BuildingBlock: OJICUG_clean_linker_0, # of connection points: 2
#     Edge 19, Type (0, 1), BuildingBlock: OJICUG_clean_linker_0, # of connection points: 2
#     Edge 20, Type (0, 1), BuildingBlock: OJICUG_clean_linker_0, # of connection points: 2
#     Edge 21, Type (0, 1), BuildingBlock: OJICUG_clean_linker_0, # of connection points: 2
#     Edge 22, Type (0, 1), BuildingBlock: OJICUG_clean_linker_0, # of connection points: 2
#     Edge 23, Type (0, 1), BuildingBlock: OJICUG_clean_linker_0, # of connection points: 2
#     Edge 24, Type (0, 1), BuildingBlock: OJICUG_clean_linker_0, # of connection points: 2
#     Edge 25, Type (0, 1), BuildingBlock: OJICUG_clean_linker_0, # of connection points: 2
#     Edge 26, Type (0, 1), BuildingBlock: OJICUG_clean_linker_0, # of connection points: 2
#     Edge 27, Type (0, 1), BuildingBlock: OJICUG_clean_linker_0, # of connection points: 2
#     Edge 28, Type (0, 1), BuildingBlock: OJICUG_clean_linker_0, # of connection points: 2
#     Edge 29, Type (0, 1), BuildingBlock: OJICUG_clean_linker_0, # of connection points: 2
#     Edge 30, Type (0, 1), BuildingBlock: OJICUG_clean_linker_0, # of connection points: 2
#     Edge 31, Type (0, 1), BuildingBlock: OJICUG_clean_linker_0, # of connection points: 2
#     Edge 32, Type (0, 1), BuildingBlock: OJICUG_clean_linker_0, # of connection points: 2
#     Edge 33, Type (0, 1), BuildingBlock: OJICUG_clean_linker_0, # of connection points: 2
#     Edge 34, Type (0, 1), BuildingBlock: OJICUG_clean_linker_0, # of connection points: 2
#     Edge 35, Type (0, 1), BuildingBlock: OJICUG_clean_linker_0, # of connection points: 2
# Relax obj value: 0.449
# Max RMSD: 0.201
# Mean RMSD: 0.144
data_MOF--net-zzz--node1-BETDIP_clean_sbu_0--node2-CUQRIR_clean_linker_1--edge1-OJICUG_clean_linker_0
_symmetry_space_group_name_H-M    P1
_symmetry_Int_Tables_number       1
_symmetry_cell_setting            triclinic
loop_
_symmetry_equiv_pos_as_xyz
'x, y, z'
_cell_length_a     33.753091
_cell_length_b     33.897875
_cell_length_c     8.9601894
_cell_angle_alpha  89.483195
_cell_angle_beta   89.979261
_cell_angle_gamma 89.643232
loop_
_atom_site_label
_atom_site_type_symbol
_atom_site_fract_x
_atom_site_fract_y
_atom_site_fract_z
_atom_type_partial_charge
C0 C 0.76828 0.54947 0.42005 0.0
N1 N 0.79541 0.52204 0.47003 0.0
N2 N 0.73959 0.5325 0.33383 0.0
C3 C 0.77127 0.59284 0.44697 0.0
C4 C 0.75074 0.49426 0.33078 0.0
N5 N 0.78374 0.48773 0.41341 0.0
C6 C 0.73215 0.46433 0.22977 0.0
H7 H 0.78281 0.59824 0.56091 0.0
H8 H 0.74201 0.60748 0.4321 0.0
H9 H 0.79244 0.60572 0.36555 0.0
H10 H 0.74529 0.46706 0.11672 0.0
H11 H 0.70013 0.47038 0.21709 0.0
H12 H 0.73724 0.43385 0.27183 0.0
C13 C 1.02047 0.77039 0.3942 0.0
N14 N 0.03724 0.80713 0.38007 0.0
N15 N 1.02286 0.74973 0.26285 0.0
C16 C 1.00389 0.75382 0.53622 0.0
C17 C 0.04065 0.77591 0.17053 0.0
N18 N 0.0527 0.80817 0.24364 0.0
C19 C 0.04894 0.7686 1.00743 0.0
H20 H 1.02865 0.74662 0.61345 0.0
H21 H 0.98682 0.72658 0.51472 0.0
H22 H 0.98458 0.77605 0.59066 0.0
H23 H 1.03191 0.74319 0.96466 0.0
H24 H 0.08108 0.76325 0.9901 0.0
H25 H 0.0402 0.79504 0.94173 0.0
C26 C 0.79948 1.01397 0.42408 0.0
N27 N 0.77343 0.04271 0.4697 0.0
N28 N 0.82989 1.02958 0.34133 0.0
C29 C 0.79385 0.97078 0.45161 0.0
C30 C 0.82084 0.06832 0.3354 0.0
N31 N 0.78744 0.07642 0.41326 0.0
C32 C 0.84134 0.09708 0.23251 0.0
H33 H 0.78125 0.96573 0.56456 0.0
H34 H 0.82233 0.95456 0.43974 0.0
H35 H 0.77251 0.95936 0.36857 0.0
H36 H 0.82914 0.09412 0.11831 0.0
H37 H 0.8732 0.08997 0.22366 0.0
H38 H 0.83697 0.12792 0.26948 0.0
C39 C 0.55035 0.79687 0.42177 0.0
N40 N 0.52177 0.77078 0.4677 0.0
N41 N 0.53446 0.82702 0.33746 0.0
C42 C 0.59373 0.79136 0.44963 0.0
C43 C 0.49575 0.81775 0.33094 0.0
N44 N 0.4879 0.7845 0.41001 0.0
C45 C 0.46686 0.83812 0.22749 0.0
H46 H 0.59867 0.77877 0.56293 0.0
H47 H 0.60962 0.81977 0.43711 0.0
H48 H 0.60575 0.77018 0.3672 0.0
H49 H 0.47064 0.82638 0.11322 0.0
H50 H 0.47343 0.86995 0.22006 0.0
H51 H 0.43582 0.83332 0.26342 0.0
C52 C 0.29933 0.5146 0.2855 0.0
N53 N 0.27225 0.54207 0.23547 0.0
N54 N 0.32808 0.53154 0.37153 0.0
C55 C 0.29623 0.47122 0.25887 0.0
C56 C 0.31702 0.5698 0.37441 0.0
N57 N 0.28402 0.57638 0.29188 0.0
C58 C 0.3357 0.59971 0.47527 0.0
H59 H 0.27527 0.45838 0.34112 0.0
H60 H 0.32552 0.45657 0.27282 0.0
H61 H 0.28441 0.46579 0.14536 0.0
H62 H 0.36771 0.59361 0.48777 0.0
H63 H 0.32261 0.59701 0.58841 0.0
H64 H 0.33065 0.6302 0.43319 0.0
C65 C 0.04736 0.29385 0.31309 0.0
N66 N 1.0307 0.25707 0.32772 0.0
N67 N 0.04501 0.31458 0.44428 0.0
C68 C 0.06379 0.31039 0.17077 0.0
C69 C 1.02737 0.28842 0.53702 0.0
N70 N 1.01534 0.25608 0.46432 0.0
C71 C 1.01913 0.29583 0.7001 0.0
H72 H 0.08079 0.3377 0.19185 0.0
H73 H 0.03896 0.31745 0.0937 0.0
H74 H 0.08314 0.28818 0.11635 0.0
H75 H 0.98698 0.30114 0.71755 0.0
H76 H 0.03611 0.32132 0.74248 0.0
H77 H 1.02794 0.26947 0.76609 0.0
C78 C 0.26877 0.04985 0.28455 0.0
N79 N 0.29482 1.02111 0.23882 0.0
N80 N 0.23843 0.03424 0.36761 0.0
C81 C 0.27435 0.09304 0.25681 0.0
C82 C 0.2475 0.99551 0.37363 0.0
N83 N 0.28086 0.98741 0.29552 0.0
C84 C 0.22707 0.96676 0.47675 0.0
H85 H 0.29569 0.10451 0.33976 0.0
H86 H 0.24586 0.10923 0.26865 0.0
H87 H 0.28693 0.09806 0.14381 0.0
H88 H 0.19521 0.97388 0.48589 0.0
H89 H 0.23934 0.96973 0.59084 0.0
H90 H 0.23142 0.93591 0.4398 0.0
C91 C 0.5175 0.26704 0.28487 0.0
N92 N 0.54604 0.2931 0.23832 0.0
N93 N 0.53348 0.2369 0.36896 0.0
C94 C 0.47409 0.27257 0.25782 0.0
C95 C 0.5722 0.24615 0.37475 0.0
N96 N 0.57998 0.27938 0.29545 0.0
C97 C 0.60119 0.22579 0.47778 0.0
H98 H 0.46217 0.29366 0.34078 0.0
H99 H 0.45822 0.24415 0.27024 0.0
H100 H 0.469 0.28527 0.14478 0.0
H101 H 0.59464 0.19396 0.48523 0.0
H102 H 0.59751 0.23751 0.59213 0.0
H103 H 0.6322 0.23061 0.44145 0.0
Tb104 Tb 0.0561 1.0201 0.96996 0.0
Tb105 Tb 1.01209 0.04387 0.73913 0.0
C106 C 0.0903 0.99295 0.19842 0.0
C107 C 0.12543 0.96926 0.22939 0.0
C108 C 0.12699 0.94777 0.36242 0.0
C109 C 0.15204 0.91522 0.37279 0.0
C110 C 0.17307 0.90283 0.24494 0.0
C111 C 0.18055 0.93134 0.13331 0.0
C112 C 0.15487 0.96369 0.12072 0.0
C113 C 0.10318 0.0498 0.75185 0.0
C114 C 0.0385 0.95644 0.71922 0.0
C115 C 0.97775 0.07096 0.5109 0.0
C116 C 0.94268 0.09475 0.48013 0.0
C117 C 0.94116 0.11628 0.34718 0.0
C118 C 0.91617 0.14887 0.33687 0.0
C119 C 0.89515 0.16128 0.46473 0.0
C120 C 0.88768 0.1328 0.57647 0.0
C121 C 0.91328 0.10039 0.58891 0.0
C122 C 0.9652 1.01405 0.95746 0.0
C123 C 1.02969 0.10759 0.98957 0.0
O124 O 0.06139 0.97486 0.13073 0.0
O125 O 0.09695 1.02761 0.14132 0.0
O126 O 0.07373 1.02733 0.73544 0.0
O127 O 0.10664 0.05543 0.89269 0.0
O128 O 0.0445 0.96087 0.86479 0.0
O129 O 1.03355 0.98892 0.63981 0.0
O130 O 1.00679 0.089 0.57796 0.0
O131 O 0.97103 0.03637 0.5685 0.0
O132 O 0.99451 0.03671 0.9735 0.0
O133 O 0.96176 1.00828 0.81669 0.0
O134 O 1.02362 0.10312 0.84408 0.0
O135 O 0.03473 0.07513 0.06907 0.0
H136 H 0.10644 0.95383 0.45223 0.0
H137 H 0.14857 0.89608 0.46928 0.0
H138 H 0.19886 0.92392 0.03816 0.0
H139 H 0.15521 0.98151 1.01971 0.0
H140 H 0.9617 0.1102 0.25735 0.0
H141 H 0.91967 0.16802 0.24041 0.0
H142 H 0.86941 0.14026 0.67171 0.0
H143 H 0.91292 0.08256 0.68989 0.0
Tb144 Tb 0.54333 0.05323 0.97427 0.0
Tb145 Tb 0.52483 1.0107 0.73335 0.0
C146 C 0.56735 0.08254 0.21361 0.0
C147 C 0.59468 0.11252 0.26373 0.0
C148 C 0.60987 0.10898 0.40748 0.0
C149 C 0.642 0.13147 0.44954 0.0
C150 C 0.65919 0.15819 0.34714 0.0
C151 C 0.63903 0.16659 0.21262 0.0
C152 C 0.60739 0.14305 0.16923 0.0
C153 C 0.51716 0.10133 0.75377 0.0
C154 C 0.61334 0.03689 0.7393 0.0
C155 C 0.50089 0.98122 0.49417 0.0
C156 C 0.47354 0.95128 0.44396 0.0
C157 C 0.46092 0.92063 0.53816 0.0
C158 C 0.42931 0.89707 0.49466 0.0
C159 C 0.40906 0.90557 0.3604 0.0
C160 C 0.42616 0.93241 0.25821 0.0
C161 C 0.45828 0.95491 0.30034 0.0
C162 C 0.55112 0.96278 0.95404 0.0
C163 C 0.4548 1.02706 0.96836 0.0
O164 O 0.58318 0.0511 0.15409 0.0
O165 O 0.53674 0.09546 0.13962 0.0
O166 O 0.54057 0.07213 0.74023 0.0
O167 O 0.50897 0.10413 0.89339 0.0
O168 O 0.60496 0.04565 0.88034 0.0
O169 O 0.58349 1.02808 0.65152 0.0
O170 O 0.48509 1.01275 0.55315 0.0
O171 O 0.53142 0.96829 0.56866 0.0
O172 O 0.52753 0.99185 0.96719 0.0
O173 O 0.55946 0.96002 0.81454 0.0
O174 O 0.46319 1.01825 0.82736 0.0
O175 O 0.48466 0.03591 0.05607 0.0
H176 H 0.59868 0.0868 0.48327 0.0
H177 H 0.65565 0.1245 0.55591 0.0
H178 H 0.6507 0.18794 0.13364 0.0
H179 H 0.59471 0.14696 0.05897 0.0
H180 H 0.47366 0.91665 0.64828 0.0
H181 H 0.41771 0.87566 0.57348 0.0
H182 H 0.41246 0.93944 0.15201 0.0
H183 H 0.46941 0.97718 0.22474 0.0
Tb184 Tb 0.51241 0.54108 0.97411 0.0
Tb185 Tb 0.55533 0.52278 0.73153 0.0
C186 C 0.48269 0.56461 0.21443 0.0
C187 C 0.45227 0.59174 0.2657 0.0
C188 C 0.45542 0.60623 0.4099 0.0
C189 C 0.43263 0.63828 0.45283 0.0
C190 C 0.40623 0.65624 0.35047 0.0
C191 C 0.39797 0.63664 0.21591 0.0
C192 C 0.42172 0.60501 0.17178 0.0
C193 C 0.46435 0.51563 0.75522 0.0
C194 C 0.52838 0.611 0.73801 0.0
C195 C 0.5852 0.49935 0.49131 0.0
C196 C 0.61557 0.47219 0.43974 0.0
C197 C 0.61234 0.45775 0.29548 0.0
C198 C 0.63512 0.42574 0.25217 0.0
C199 C 0.66159 0.40775 0.35421 0.0
C200 C 0.66992 0.42731 0.48879 0.0
C201 C 0.64618 0.45891 0.5333 0.0
C202 C 0.6032 0.54836 0.95066 0.0
C203 C 0.53931 0.45283 0.96758 0.0
O204 O 0.51406 0.58046 0.15356 0.0
O205 O 0.47005 0.53429 0.141 0.0
O206 O 0.49354 0.53878 0.74058 0.0
O207 O 0.46151 0.50735 0.89506 0.0
O208 O 0.5198 0.60252 0.87959 0.0
O209 O 0.53725 0.58135 0.65005 0.0
O210 O 0.55374 0.48352 0.55165 0.0
O211 O 0.59787 0.52954 0.56532 0.0
O212 O 0.57414 0.52502 0.96489 0.0
O213 O 0.60601 0.55676 0.81092 0.0
O214 O 0.54794 0.46132 0.82605 0.0
O215 O 0.5304 0.48248 0.05551 0.0
H216 H 0.47759 0.59462 0.48533 0.0
H217 H 0.43941 0.65139 0.55942 0.0
H218 H 0.37673 0.64881 0.13717 0.0
H219 H 0.41806 0.59284 0.06128 0.0
H220 H 0.59011 0.46938 0.22031 0.0
H221 H 0.62828 0.41266 0.14557 0.0
H222 H 0.69122 0.41513 0.56728 0.0
H223 H 0.64992 0.47105 0.64381 0.0
Tb224 Tb 1.02198 0.51124 0.97173 0.0
Tb225 Tb 0.04561 0.55326 0.73434 0.0
C226 C 1.01158 0.47895 0.22144 0.0
C227 C 0.98191 0.45234 0.28356 0.0
C228 C 0.96018 0.46539 0.40575 0.0
C229 C 0.92718 0.44476 0.45317 0.0
C230 C 0.91494 0.41072 0.37775 0.0
C231 C 0.9388 0.39561 0.26282 0.0
C232 C 0.97218 0.41644 0.21541 0.0
C233 C 1.02813 0.4641 0.73663 0.0
C234 C 0.95278 0.53239 0.75578 0.0
C235 C 0.05606 0.58567 0.48488 0.0
C236 C 0.08585 0.61215 0.42278 0.0
C237 C 0.10755 0.59899 0.30065 0.0
C238 C 0.14059 0.61953 0.25307 0.0
C239 C 0.15293 0.65357 0.32826 0.0
C240 C 0.12913 0.66875 0.44324 0.0
C241 C 0.09571 0.64804 0.4908 0.0
C242 C 0.0395 0.60023 0.96988 0.0
C243 C 0.11482 0.53198 0.95007 0.0
O244 O 0.99867 0.51437 0.18771 0.0
O245 O 0.03465 0.46455 0.11867 0.0
O246 O 0.0527 0.49072 0.77219 0.0
O247 O 0.9995 0.46439 0.83219 0.0
O248 O 0.96019 0.52174 0.89565 0.0
O249 O 0.98328 0.54131 0.6697 0.0
O250 O 0.06878 0.55016 0.51815 0.0
O251 O 1.03313 0.60013 0.58798 0.0
O252 O 1.01487 0.57374 0.9336 0.0
O253 O 0.06818 0.59994 0.87452 0.0
O254 O 0.10741 0.54262 0.81019 0.0
O255 O 0.08432 0.52316 0.03628 0.0
H256 H 0.96772 0.49267 0.45981 0.0
H257 H 0.90933 0.45761 0.54063 0.0
H258 H 0.92952 0.36997 0.20093 0.0
H259 H 0.98871 0.40573 0.12024 0.0
H260 H 0.09993 0.57171 0.2467 0.0
H261 H 0.15839 0.6066 0.16562 0.0
H262 H 0.13849 0.6944 0.50501 0.0
H263 H 0.07921 0.65883 0.58592 0.0
C264 C 0.21002 0.05759 0.60621 0.0
C265 C 0.20584 0.05178 0.45166 0.0
H266 H 0.18157 0.06167 0.8203 0.0
C267 C 0.16699 0.0496 0.39491 0.0
H268 H 0.23937 0.05797 0.65493 0.0
C269 C 0.13353 0.05007 0.4904 0.0
C270 C 0.13792 0.05341 0.64598 0.0
H271 H 0.16292 0.04442 0.27713 0.0
H272 H 0.10427 0.04653 0.44327 0.0
C273 C 0.17668 0.05884 0.70143 0.0
C274 C 0.51667 0.16608 0.39762 0.0
C275 C 0.5161 0.20464 0.45532 0.0
H276 H 0.51712 0.10333 0.44512 0.0
C277 C 0.51175 0.20846 0.61082 0.0
H278 H 0.52082 0.16214 0.27902 0.0
C279 C 0.51052 0.17502 0.70575 0.0
C280 C 0.5142 0.13644 0.64888 0.0
H281 H 0.51258 0.23751 0.65999 0.0
H282 H 0.50894 0.17958 0.82509 0.0
C283 C 0.51563 0.13248 0.49285 0.0
C284 C 0.35677 0.51239 0.61632 0.0
C285 C 0.36067 0.51521 0.46012 0.0
H286 H 0.38569 0.51058 0.82992 0.0
C287 C 0.39937 0.51441 0.40106 0.0
H288 H 0.32759 0.51421 0.66621 0.0
C289 C 0.4331 0.51324 0.49538 0.0
C290 C 0.42909 0.51318 0.6517 0.0
H291 H 0.40337 0.51731 0.28175 0.0
H292 H 0.46239 0.51348 0.44652 0.0
C293 C 0.3903 0.51109 0.71029 0.0
C294 C 0.07523 0.3809 0.49821 0.0
C295 C 0.04181 0.35693 0.4723 0.0
H296 H 0.09759 0.43482 0.59587 0.0
C297 C 1.00491 0.37128 0.52145 0.0
H298 H 0.10438 0.37046 0.46649 0.0
C299 C 1.00189 0.40491 0.60932 0.0
C300 C 0.03454 0.42923 0.63584 0.0
H301 H 0.97865 0.35349 0.50721 0.0
H302 H 0.97348 0.4115 0.65955 0.0
C303 C 0.07142 0.41739 0.57531 0.0
C304 C 0.85835 1.00618 0.10289 0.0
C305 C 0.86249 1.01204 0.25742 0.0
H306 H 0.88683 1.00207 0.88889 0.0
C307 C 0.90134 1.01428 0.31425 0.0
H308 H 0.82901 1.00577 0.05411 0.0
C309 C 0.93481 1.01381 0.21884 0.0
C310 C 0.93044 1.01043 0.06327 0.0
H311 H 0.90537 1.01949 0.43201 0.0
H312 H 0.96406 1.0174 0.26602 0.0
C313 C 0.8917 1.00494 1.00775 0.0
C314 C 0.55634 0.85557 0.09608 0.0
C315 C 0.55193 0.85931 0.25159 0.0
H316 H 0.55928 0.88457 0.88209 0.0
C317 C 0.5514 0.89783 0.30965 0.0
H318 H 0.5555 0.82656 0.04666 0.0
C319 C 0.55253 0.93148 0.21472 0.0
C320 C 0.554 0.92761 0.05866 0.0
H321 H 0.54723 0.9017 0.42826 0.0
H322 H 0.55107 0.96061 0.26267 0.0
C323 C 0.55766 0.88907 1.00147 0.0
C324 C 0.71082 0.55156 0.08909 0.0
C325 C 0.70697 0.54879 0.24531 0.0
H326 H 0.68183 0.55333 0.87561 0.0
C327 C 0.66829 0.54961 0.30455 0.0
H328 H 0.73998 0.54972 0.03907 0.0
C329 C 0.63453 0.55077 0.21037 0.0
C330 C 0.63849 0.55079 0.05404 0.0
H331 H 0.66432 0.54676 0.42389 0.0
H332 H 0.60525 0.55056 0.25936 0.0
C333 C 0.67726 0.55285 0.99527 0.0
C334 C 0.06282 0.69299 0.18522 0.0
C335 C 1.02595 0.70739 0.23448 0.0
H336 H 0.09419 0.65277 0.04701 0.0
C337 C 0.99249 0.68349 0.2084 0.0
H338 H 0.08911 0.71072 0.19955 0.0
C339 C 0.99624 0.647 0.13119 0.0
C340 C 1.03311 0.63511 0.07066 0.0
H341 H 0.96335 0.69396 0.24016 0.0
H342 H 0.97004 0.62961 0.11057 0.0
C343 C 0.06578 0.65938 0.09724 0.0
C344 C 0.94587 0.24924 0.3864 0.0
C345 C 0.97622 0.24122 0.49007 0.0
H346 H 0.88858 0.23248 0.30915 0.0
C347 C 0.96704 0.22105 0.62171 0.0
H348 H 0.9515 0.26752 0.28902 0.0
C349 C 0.9302 0.20348 0.63791 0.0
C350 C 0.90464 0.20182 0.5135 0.0
H351 H 0.98906 0.21674 0.70698 0.0
H352 H 0.92604 0.18442 0.73427 0.0
C353 C 0.90923 0.23077 0.40159 0.0
C354 C 0.31564 0.94067 0.45833 0.0
C355 C 0.30368 0.95204 0.31455 0.0
H356 H 0.35616 0.90791 0.58901 0.0
C357 C 0.31677 0.93038 0.19158 0.0
H358 H 0.30565 0.95661 0.55543 0.0
C359 C 0.34735 0.90281 0.21074 0.0
C360 C 0.36583 0.89933 0.35137 0.0
H361 H 0.30603 0.93731 0.08057 0.0
H362 H 0.36146 0.89078 0.11236 0.0
C363 C 0.34471 0.91214 0.4771 0.0
C364 C 0.62644 0.31411 0.45535 0.0
C365 C 0.61516 0.30221 0.31242 0.0
H366 H 0.65837 0.35477 0.58368 0.0
C367 C 0.6364 0.31568 0.18805 0.0
H368 H 0.61076 0.30386 0.55342 0.0
C369 C 0.66346 0.34634 0.20514 0.0
C370 C 0.667 0.36451 0.34537 0.0
H371 H 0.62944 0.30513 0.07753 0.0
H372 H 0.67525 0.36048 0.10586 0.0
C373 C 0.65432 0.34344 0.47217 0.0
C374 C 0.24578 0.62249 0.44396 0.0
C375 C 0.2597 0.61099 0.30343 0.0
H376 H 0.20203 0.6541 0.5635 0.0
C377 C 0.24719 0.63174 0.17592 0.0
H378 H 0.25534 0.60727 0.54437 0.0
C379 C 0.21534 0.6581 0.18667 0.0
C380 C 0.19559 0.66191 0.32432 0.0
H381 H 0.2594 0.62485 0.06754 0.0
H382 H 0.20146 0.66865 0.08473 0.0
C383 C 0.21544 0.65003 0.45472 0.0
C384 C 0.12212 0.8149 0.32233 0.0
C385 C 0.09186 0.82299 0.21837 0.0
H386 H 0.17937 0.83157 0.40031 0.0
C387 C 0.10116 0.84321 0.08695 0.0
H388 H 0.11641 0.79659 0.41955 0.0
C389 C 0.13804 0.86074 0.07123 0.0
C390 C 0.16351 0.86232 0.19592 0.0
H391 H 0.0792 0.84759 1.00148 0.0
H392 H 0.14228 0.87981 0.975 0.0
C393 C 0.15879 0.83334 0.30766 0.0
C394 C 0.75273 0.12311 0.25006 0.0
C395 C 0.76462 0.11178 0.39396 0.0
H396 H 0.71224 0.15578 0.11896 0.0
C397 C 0.75144 0.13344 0.51677 0.0
H398 H 0.7628 0.10715 0.15308 0.0
C399 C 0.72083 0.16097 0.4973 0.0
C400 C 0.70243 0.1644 0.35652 0.0
H401 H 0.76211 0.12654 0.62789 0.0
H402 H 0.70666 0.17302 0.59554 0.0
C403 C 0.72363 0.15159 0.23098 0.0
C404 C 0.43135 0.74828 0.51678 0.0
C405 C 0.45272 0.76169 0.39264 0.0
H406 H 0.39234 0.70358 0.59858 0.0
C407 C 0.44154 0.74979 0.24959 0.0
H408 H 0.43823 0.75883 0.62736 0.0
C409 C 0.41363 0.7205 0.23249 0.0
C410 C 0.4008 0.69948 0.35919 0.0
H411 H 0.45731 0.76001 0.1517 0.0
H412 H 0.40964 0.70916 0.12096 0.0
C413 C 0.40423 0.71769 0.49939 0.0
C414 C 0.82057 0.4324 0.52953 0.0
C415 C 0.80811 0.45315 0.40197 0.0
H416 H 0.86627 0.39552 0.621 0.0
C417 C 0.82212 0.44169 0.26152 0.0
H418 H 0.80829 0.43926 0.63782 0.0
C419 C 0.8525 0.41418 0.25093 0.0
C420 C 0.87229 0.4023 0.38147 0.0
H421 H 0.81258 0.45691 0.16107 0.0
H422 H 0.86596 0.41012 0.14224 0.0
C423 C 0.85245 0.40606 0.51895 0.0
C424 C 0.0362 0.18398 0.30552 0.0
C425 C 1.03249 0.2212 0.23448 0.0
H426 H 0.03844 0.12105 0.28864 0.0
C427 C 1.02824 0.22088 0.07722 0.0
H428 H 0.03969 0.18231 0.42554 0.0
C429 C 1.02764 0.18462 0.99628 0.0
C430 C 1.03051 0.14748 0.06936 0.0
H431 H 1.02453 0.24838 1.01707 0.0
H432 H 1.02518 0.18551 0.87637 0.0
C433 C 0.03543 0.14833 0.22574 0.0
C434 C 0.36723 0.03799 0.24746 0.0
C435 C 0.33391 1.0255 0.16648 0.0
H436 H 0.43006 0.04827 0.25107 0.0
C437 C 0.34056 1.01381 1.01721 0.0
H438 H 0.36369 0.04658 0.3628 0.0
C439 C 0.37908 1.01439 0.95189 0.0
C440 C 0.41266 1.02657 0.03354 0.0
H441 H 0.31584 1.00365 0.95124 0.0
H442 H 0.38257 1.00486 0.83761 0.0
C443 C 0.4056 0.03862 0.18258 0.0
C444 C 0.55187 0.33877 1.01515 0.0
C445 C 0.54118 0.33215 0.16603 0.0
H446 H 0.55997 0.38075 0.83415 0.0
C447 C 0.52973 0.36544 0.24875 0.0
H448 H 0.56139 0.31406 0.94804 0.0
C449 C 0.52902 0.40377 0.18381 0.0
C450 C 0.54002 0.41079 0.03304 0.0
H451 H 0.52205 0.36188 0.36539 0.0
H452 H 0.52017 0.42821 0.25358 0.0
C453 C 0.55124 0.37726 0.94979 0.0
C454 C 0.228 0.54852 1.00926 0.0
C455 C 0.23418 0.5358 0.15833 0.0
H456 H 0.18678 0.55765 0.82702 0.0
C457 C 0.2012 0.52013 0.2342 0.0
H458 H 0.25254 0.56068 0.9466 0.0
C459 C 0.16342 0.51802 0.16523 0.0
C460 C 0.15665 0.5319 1.01746 0.0
H461 H 0.20444 0.51037 0.34894 0.0
H462 H 0.13908 0.50619 0.23002 0.0
C463 C 0.19005 0.54669 0.94024 0.0
C464 C 0.03968 0.84318 0.63085 0.0
C465 C 0.03547 0.84295 0.47358 0.0
H466 H 0.04277 0.87843 0.83199 0.0
C467 C 1.03186 0.88021 0.4028 0.0
H468 H 0.04331 0.81564 0.69077 0.0
C469 C 1.0327 0.91581 0.48283 0.0
C470 C 0.0376 0.91658 0.63924 0.0
H471 H 1.0284 0.88195 0.28278 0.0
H472 H 1.02976 0.94313 0.4201 0.0
C473 C 0.04035 0.87939 0.71207 0.0
C474 C 0.72761 0.04999 0.69107 0.0
C475 C 0.7343 0.03834 0.54178 0.0
H476 H 0.68556 0.05894 0.87049 0.0
C477 C 0.701 1.02594 0.46053 0.0
H478 H 0.75232 0.06009 0.75723 0.0
C479 C 0.6626 1.02534 0.5252 0.0
C480 C 0.6555 0.03735 0.67427 0.0
H481 H 0.70457 1.01739 0.34517 0.0
H482 H 0.63815 1.01576 0.45653 0.0
C483 C 0.68907 0.04944 0.75617 0.0
C484 C 0.53803 0.69844 0.45711 0.0
C485 C 0.52657 0.73172 0.53988 0.0
H486 H 0.5476 0.63567 0.45213 0.0
C487 C 0.51582 0.72507 0.69068 0.0
H488 H 0.54576 0.70202 0.34051 0.0
C489 C 0.51643 0.68656 0.75592 0.0
C490 C 0.52768 0.65305 0.67263 0.0
H491 H 0.50627 0.74976 0.75781 0.0
H492 H 0.50766 0.68305 0.87151 0.0
C493 C 0.53872 0.6601 0.52192 0.0
C494 C 0.83965 0.51564 0.69631 0.0
C495 C 0.83346 0.52838 0.54727 0.0
H496 H 0.88085 0.50656 0.87862 0.0
C497 C 0.86642 0.54413 0.4715 0.0
H498 H 0.81512 0.50342 0.75889 0.0
C499 C 0.90419 0.5463 0.54054 0.0
C500 C 0.91096 0.53241 0.6883 0.0
H501 H 0.86318 0.5539 0.35677 0.0
H502 H 0.92851 0.55819 0.47583 0.0
C503 C 0.87758 0.51754 0.76541 0.0
loop_
_geom_bond_atom_site_label_1
_geom_bond_atom_site_label_2
_geom_bond_distance
_geom_bond_site_symmetry_2
_ccdc_geom_bond_type
C0 N1 1.317 . S
C0 N2 1.348 . S
C0 C3 1.485 . S
N1 C0 1.317 . S
N1 N5 1.370 . S
N2 C0 1.348 . S
N2 C4 1.346 . S
C3 C0 1.485 . S
C3 H7 0.960 . S
C3 H8 0.961 . S
C3 H9 0.960 . S
C4 N2 1.346 . S
C4 N5 1.307 . S
C4 C6 1.486 . S
N5 N1 1.370 . S
N5 C4 1.307 . S
C6 C4 1.486 . S
C6 H10 0.960 . S
C6 H11 0.960 . S
C6 H12 0.959 . S
H7 C3 0.960 . S
H8 C3 0.961 . S
H9 C3 0.960 . S
H10 C6 0.960 . S
H11 C6 0.960 . S
H12 C6 0.959 . S
C13 N14 1.317 . S
C13 N15 1.348 . S
C13 C16 1.485 . S
N14 C13 1.317 . S
N14 N18 1.371 . S
N15 C13 1.348 . S
N15 C17 1.346 1_655 S
C16 C13 1.485 . S
C16 H20 0.960 1_655 S
C16 H21 0.961 . S
C16 H22 0.960 . S
C17 N15 1.346 1_455 S
C17 N18 1.307 1_455 S
C17 C19 1.486 . S
N18 N14 1.371 . S
N18 C17 1.307 1_655 S
C19 C17 1.486 . S
C19 H23 0.960 1_455 S
C19 H24 0.960 . S
C19 H25 0.959 . S
H20 C16 0.960 1_455 S
H21 C16 0.961 . S
H22 C16 0.960 . S
H23 C19 0.960 1_655 S
H24 C19 0.960 . S
H25 C19 0.959 . S
C26 N27 1.317 . S
C26 N28 1.348 . S
C26 C29 1.485 . S
N27 C26 1.317 . S
N27 N31 1.371 . S
N28 C26 1.348 . S
N28 C30 1.346 1_565 S
C29 C26 1.485 . S
C29 H33 0.960 1_565 S
C29 H34 0.961 . S
C29 H35 0.960 . S
C30 N28 1.346 1_545 S
C30 N31 1.307 1_545 S
C30 C32 1.486 . S
N31 N27 1.371 . S
N31 C30 1.307 1_565 S
C32 C30 1.486 . S
C32 H36 0.960 1_545 S
C32 H37 0.960 . S
C32 H38 0.959 . S
H33 C29 0.960 1_545 S
H34 C29 0.961 . S
H35 C29 0.960 . S
H36 C32 0.960 1_565 S
H37 C32 0.960 . S
H38 C32 0.959 . S
C39 N40 1.317 . S
C39 N41 1.348 . S
C39 C42 1.485 . S
N40 C39 1.317 . S
N40 N44 1.370 . S
N41 C39 1.348 . S
N41 C43 1.346 . S
C42 C39 1.485 . S
C42 H46 0.960 . S
C42 H47 0.961 . S
C42 H48 0.960 . S
C43 N41 1.346 . S
C43 N44 1.307 . S
C43 C45 1.486 . S
N44 N40 1.370 . S
N44 C43 1.307 . S
C45 C43 1.486 . S
C45 H49 0.960 . S
C45 H50 0.960 . S
C45 H51 0.959 . S
H46 C42 0.960 . S
H47 C42 0.961 . S
H48 C42 0.960 . S
H49 C45 0.960 . S
H50 C45 0.960 . S
H51 C45 0.959 . S
C52 N53 1.317 . S
C52 N54 1.348 1_556 S
C52 C55 1.485 . S
N53 C52 1.317 . S
N53 N57 1.370 1_556 S
N54 C52 1.348 1_554 S
N54 C56 1.346 . S
C55 C52 1.485 . S
C55 H59 0.960 . S
C55 H60 0.961 . S
C55 H61 0.960 . S
C56 N54 1.346 . S
C56 N57 1.307 . S
C56 C58 1.486 . S
N57 N53 1.370 1_554 S
N57 C56 1.307 . S
C58 C56 1.486 . S
C58 H62 0.960 . S
C58 H63 0.960 . S
C58 H64 0.959 . S
H59 C55 0.960 . S
H60 C55 0.961 . S
H61 C55 0.960 . S
H62 C58 0.960 . S
H63 C58 0.960 . S
H64 C58 0.959 . S
C65 N66 1.317 . S
C65 N67 1.350 1_556 S
C65 C68 1.485 . S
N66 C65 1.317 . S
N66 N70 1.371 1_556 S
N67 C65 1.350 1_554 S
N67 C69 1.345 1_655 S
C68 C65 1.485 . S
C68 H72 0.960 1_655 S
C68 H73 0.961 . S
C68 H74 0.960 . S
C69 N67 1.345 1_455 S
C69 N70 1.307 1_455 S
C69 C71 1.487 . S
N70 N66 1.371 1_554 S
N70 C69 1.307 1_655 S
C71 C69 1.487 . S
C71 H75 0.960 1_455 S
C71 H76 0.960 . S
C71 H77 0.959 . S
H72 C68 0.960 1_455 S
H73 C68 0.961 . S
H74 C68 0.960 . S
H75 C71 0.960 1_655 S
H76 C71 0.960 . S
H77 C71 0.959 . S
C78 N79 1.317 . S
C78 N80 1.350 1_556 S
C78 C81 1.485 . S
N79 C78 1.317 . S
N79 N83 1.371 1_556 S
N80 C78 1.350 1_554 S
N80 C82 1.345 1_565 S
C81 C78 1.485 . S
C81 H85 0.960 1_565 S
C81 H86 0.961 . S
C81 H87 0.960 . S
C82 N80 1.345 1_545 S
C82 N83 1.307 1_545 S
C82 C84 1.487 . S
N83 N79 1.371 1_554 S
N83 C82 1.307 1_565 S
C84 C82 1.487 . S
C84 H88 0.960 1_545 S
C84 H89 0.960 . S
C84 H90 0.959 . S
H85 C81 0.960 1_545 S
H86 C81 0.961 . S
H87 C81 0.960 . S
H88 C84 0.960 1_565 S
H89 C84 0.960 . S
H90 C84 0.959 . S
C91 N92 1.317 . S
C91 N93 1.348 1_556 S
C91 C94 1.485 . S
N92 C91 1.317 . S
N92 N96 1.370 1_556 S
N93 C91 1.348 1_554 S
N93 C95 1.346 . S
C94 C91 1.485 . S
C94 H98 0.960 . S
C94 H99 0.961 . S
C94 H100 0.960 . S
C95 N93 1.346 . S
C95 N96 1.307 . S
C95 C97 1.486 . S
N96 N92 1.370 1_554 S
N96 C95 1.307 . S
C97 C95 1.486 . S
C97 H101 0.960 . S
C97 H102 0.960 . S
C97 H103 0.959 . S
H98 C94 0.960 . S
H99 C94 0.961 . S
H100 C94 0.960 . S
H101 C97 0.960 . S
H102 C97 0.960 . S
H103 C97 0.959 . S
Tb104 C106 2.809 1_556 S
Tb104 O124 2.484 1_556 S
Tb104 O125 2.440 1_556 S
Tb104 O126 2.658 1_565 S
Tb104 O127 2.409 . S
Tb104 O128 2.378 . S
Tb104 O132 2.325 1_455 S
Tb104 O135 2.341 1_565 S
Tb105 C115 2.809 . S
Tb105 O126 2.325 1_655 S
Tb105 O129 2.341 1_545 S
Tb105 O130 2.484 . S
Tb105 O131 2.440 . S
Tb105 O132 2.658 1_545 S
Tb105 O133 2.409 . S
Tb105 O134 2.378 . S
C106 Tb104 2.809 1_554 S
C106 C107 1.514 . S
C106 O124 1.248 . S
C106 O125 1.266 . S
C107 C106 1.514 . S
C107 C108 1.359 . S
C107 C112 1.348 . S
C108 C107 1.359 . S
C108 C109 1.380 . S
C108 H136 0.929 1_455 S
C109 C108 1.380 . S
C109 C110 1.347 . S
C109 H137 0.931 . S
C110 C109 1.347 . S
C110 C111 1.369 . S
C111 C110 1.369 . S
C111 C112 1.408 . S
C111 H138 0.930 . S
C112 C107 1.348 . S
C112 C111 1.408 . S
C112 H139 0.930 . S
C113 O126 1.281 1_565 S
C113 O127 1.254 . S
C114 O128 1.236 1_655 S
C114 O129 1.266 . S
C115 Tb105 2.809 . S
C115 C116 1.514 . S
C115 O130 1.248 . S
C115 O131 1.266 . S
C116 C115 1.514 . S
C116 C117 1.359 . S
C116 C121 1.348 . S
C117 C116 1.359 . S
C117 C118 1.380 . S
C117 H140 0.929 1_655 S
C118 C117 1.380 . S
C118 C119 1.347 . S
C118 H141 0.954 . S
C119 C118 1.347 . S
C119 C120 1.369 . S
C120 C119 1.369 . S
C120 C121 1.408 . S
C120 H142 0.930 . S
C121 C116 1.348 . S
C121 C120 1.408 . S
C121 H143 0.930 . S
C122 O132 1.281 1_545 S
C122 O133 1.254 . S
C123 O134 1.236 1_455 S
C123 O135 1.266 . S
O124 Tb104 2.484 1_554 S
O124 C106 1.248 . S
O125 Tb104 2.440 1_554 S
O125 C106 1.266 . S
O126 Tb104 2.658 1_545 S
O126 Tb105 2.325 1_455 S
O126 C113 1.281 1_545 S
O127 Tb104 2.409 . S
O127 C113 1.254 . S
O128 Tb104 2.378 . S
O128 C114 1.236 1_455 S
O129 Tb105 2.341 1_565 S
O129 C114 1.266 . S
O130 Tb105 2.484 . S
O130 C115 1.248 . S
O131 Tb105 2.440 . S
O131 C115 1.266 . S
O132 Tb104 2.325 1_655 S
O132 Tb105 2.658 1_565 S
O132 C122 1.281 1_565 S
O133 Tb105 2.409 . S
O133 C122 1.254 . S
O134 Tb105 2.378 . S
O134 C123 1.236 1_655 S
O135 Tb104 2.341 1_545 S
O135 C123 1.266 . S
H136 C108 0.929 1_655 S
H137 C109 0.931 . S
H138 C111 0.930 . S
H139 C112 0.930 . S
H140 C117 0.929 1_455 S
H141 C118 0.954 . S
H142 C120 0.930 . S
H143 C121 0.930 . S
Tb144 C146 2.809 1_556 S
Tb144 O164 2.484 1_556 S
Tb144 O165 2.440 1_556 S
Tb144 O166 2.658 . S
Tb144 O167 2.409 . S
Tb144 O168 2.378 . S
Tb144 O172 2.325 1_545 S
Tb144 O175 2.341 . S
Tb145 C155 2.809 . S
Tb145 O166 2.325 1_565 S
Tb145 O169 2.341 . S
Tb145 O170 2.484 . S
Tb145 O171 2.440 . S
Tb145 O172 2.658 . S
Tb145 O173 2.409 . S
Tb145 O174 2.378 . S
C146 Tb144 2.809 1_554 S
C146 C147 1.514 . S
C146 O164 1.248 . S
C146 O165 1.266 . S
C147 C146 1.514 . S
C147 C148 1.359 . S
C147 C152 1.348 . S
C148 C147 1.359 . S
C148 C149 1.380 . S
C148 H176 0.929 1_545 S
C149 C148 1.380 . S
C149 C150 1.347 . S
C149 H177 0.931 1_545 S
C150 C149 1.347 . S
C150 C151 1.369 . S
C151 C150 1.369 . S
C151 C152 1.408 . S
C151 H178 0.930 . S
C152 C147 1.348 . S
C152 C151 1.408 . S
C152 H179 0.930 . S
C153 O166 1.281 . S
C153 O167 1.254 . S
C154 O168 1.236 1_565 S
C154 O169 1.266 . S
C155 Tb145 2.809 . S
C155 C156 1.514 . S
C155 O170 1.248 . S
C155 O171 1.266 . S
C156 C155 1.514 . S
C156 C157 1.359 . S
C156 C161 1.348 . S
C157 C156 1.359 . S
C157 C158 1.380 . S
C157 H180 0.929 1_565 S
C158 C157 1.380 . S
C158 C159 1.347 . S
C158 H181 0.931 1_565 S
C159 C158 1.347 . S
C159 C160 1.369 . S
C160 C159 1.369 . S
C160 C161 1.408 . S
C160 H182 0.930 . S
C161 C156 1.348 . S
C161 C160 1.408 . S
C161 H183 0.930 . S
C162 O172 1.281 . S
C162 O173 1.254 . S
C163 O174 1.236 1_545 S
C163 O175 1.266 . S
O164 Tb144 2.484 1_554 S
O164 C146 1.248 . S
O165 Tb144 2.440 1_554 S
O165 C146 1.266 . S
O166 Tb144 2.658 . S
O166 Tb145 2.325 1_545 S
O166 C153 1.281 . S
O167 Tb144 2.409 . S
O167 C153 1.254 . S
O168 Tb144 2.378 . S
O168 C154 1.236 1_545 S
O169 Tb145 2.341 . S
O169 C154 1.266 . S
O170 Tb145 2.484 . S
O170 C155 1.248 . S
O171 Tb145 2.440 . S
O171 C155 1.266 . S
O172 Tb144 2.325 1_565 S
O172 Tb145 2.658 . S
O172 C162 1.281 . S
O173 Tb145 2.409 . S
O173 C162 1.254 . S
O174 Tb145 2.378 . S
O174 C163 1.236 1_565 S
O175 Tb144 2.341 . S
O175 C163 1.266 . S
H176 C148 0.929 1_565 S
H177 C149 0.931 1_565 S
H178 C151 0.930 . S
H179 C152 0.930 . S
H180 C157 0.929 1_545 S
H181 C158 0.931 1_545 S
H182 C160 0.930 . S
H183 C161 0.930 . S
Tb184 C186 2.809 1_556 S
Tb184 O204 2.484 1_556 S
Tb184 O205 2.440 1_556 S
Tb184 O206 2.658 . S
Tb184 O207 2.409 . S
Tb184 O208 2.378 . S
Tb184 O212 2.325 . S
Tb184 O215 2.341 . S
Tb185 C195 2.809 . S
Tb185 O206 2.325 . S
Tb185 O209 2.341 . S
Tb185 O210 2.484 . S
Tb185 O211 2.440 . S
Tb185 O212 2.658 . S
Tb185 O213 2.409 . S
Tb185 O214 2.378 . S
C186 Tb184 2.809 1_554 S
C186 C187 1.514 . S
C186 O204 1.248 . S
C186 O205 1.266 . S
C187 C186 1.514 . S
C187 C188 1.359 . S
C187 C192 1.348 . S
C188 C187 1.359 . S
C188 C189 1.380 . S
C188 H216 0.929 . S
C189 C188 1.380 . S
C189 C190 1.347 . S
C189 H217 0.931 . S
C190 C189 1.347 . S
C190 C191 1.369 . S
C191 C190 1.369 . S
C191 C192 1.408 . S
C191 H218 0.930 . S
C192 C187 1.348 . S
C192 C191 1.408 . S
C192 H219 0.930 . S
C193 O206 1.281 . S
C193 O207 1.254 . S
C194 O208 1.236 . S
C194 O209 1.266 . S
C195 Tb185 2.809 . S
C195 C196 1.514 . S
C195 O210 1.248 . S
C195 O211 1.266 . S
C196 C195 1.514 . S
C196 C197 1.359 . S
C196 C201 1.348 . S
C197 C196 1.359 . S
C197 C198 1.380 . S
C197 H220 0.929 . S
C198 C197 1.380 . S
C198 C199 1.347 . S
C198 H221 0.931 . S
C199 C198 1.347 . S
C199 C200 1.369 . S
C200 C199 1.369 . S
C200 C201 1.408 . S
C200 H222 0.930 . S
C201 C196 1.348 . S
C201 C200 1.408 . S
C201 H223 0.930 . S
C202 O212 1.281 . S
C202 O213 1.254 . S
C203 O214 1.236 . S
C203 O215 1.266 . S
O204 Tb184 2.484 1_554 S
O204 C186 1.248 . S
O205 Tb184 2.440 1_554 S
O205 C186 1.266 . S
O206 Tb184 2.658 . S
O206 Tb185 2.325 . S
O206 C193 1.281 . S
O207 Tb184 2.409 . S
O207 C193 1.254 . S
O208 Tb184 2.378 . S
O208 C194 1.236 . S
O209 Tb185 2.341 . S
O209 C194 1.266 . S
O210 Tb185 2.484 . S
O210 C195 1.248 . S
O211 Tb185 2.440 . S
O211 C195 1.266 . S
O212 Tb184 2.325 . S
O212 Tb185 2.658 . S
O212 C202 1.281 . S
O213 Tb185 2.409 . S
O213 C202 1.254 . S
O214 Tb185 2.378 . S
O214 C203 1.236 . S
O215 Tb184 2.341 . S
O215 C203 1.266 . S
H216 C188 0.929 . S
H217 C189 0.931 . S
H218 C191 0.930 . S
H219 C192 0.930 . S
H220 C197 0.929 . S
H221 C198 0.931 . S
H222 C200 0.930 . S
H223 C201 0.930 . S
Tb224 C226 2.809 1_556 S
Tb224 O244 2.484 1_556 S
Tb224 O245 2.440 1_556 S
Tb224 O246 2.658 1_655 S
Tb224 O247 2.409 . S
Tb224 O248 2.378 . S
Tb224 O252 2.325 . S
Tb224 O255 2.341 1_655 S
Tb225 C235 2.809 . S
Tb225 O246 2.325 . S
Tb225 O249 2.341 1_455 S
Tb225 O250 2.484 . S
Tb225 O251 2.440 . S
Tb225 O252 2.658 1_455 S
Tb225 O253 2.409 . S
Tb225 O254 2.378 . S
C226 Tb224 2.809 1_554 S
C226 C227 1.514 . S
C226 O244 1.248 . S
C226 O245 1.266 . S
C227 C226 1.514 . S
C227 C228 1.359 . S
C227 C232 1.348 . S
C228 C227 1.359 . S
C228 C229 1.380 . S
C228 H256 0.929 . S
C229 C228 1.380 . S
C229 C230 1.347 . S
C229 H257 0.931 . S
C230 C229 1.347 . S
C230 C231 1.369 . S
C231 C230 1.369 . S
C231 C232 1.408 . S
C231 H258 0.930 . S
C232 C227 1.348 . S
C232 C231 1.408 . S
C232 H259 0.930 . S
C233 O246 1.276 1_655 S
C233 O247 1.260 . S
C234 O248 1.236 . S
C234 O249 1.266 . S
C235 Tb225 2.809 . S
C235 C236 1.514 . S
C235 O250 1.248 . S
C235 O251 1.266 . S
C236 C235 1.514 . S
C236 C237 1.359 . S
C236 C241 1.348 . S
C237 C236 1.359 . S
C237 C238 1.380 . S
C237 H260 0.929 . S
C238 C237 1.380 . S
C238 C239 1.347 . S
C238 H261 0.931 . S
C239 C238 1.347 . S
C239 C240 1.369 . S
C240 C239 1.369 . S
C240 C241 1.408 . S
C240 H262 0.930 . S
C241 C236 1.348 . S
C241 C240 1.408 . S
C241 H263 0.930 . S
C242 O252 1.274 1_455 S
C242 O253 1.263 . S
C243 O254 1.236 . S
C243 O255 1.266 . S
O244 Tb224 2.484 1_554 S
O244 C226 1.248 . S
O245 Tb224 2.440 1_554 S
O245 C226 1.266 . S
O246 Tb224 2.658 1_455 S
O246 Tb225 2.325 . S
O246 C233 1.276 1_455 S
O247 Tb224 2.409 . S
O247 C233 1.260 . S
O248 Tb224 2.378 . S
O248 C234 1.236 . S
O249 Tb225 2.341 1_655 S
O249 C234 1.266 . S
O250 Tb225 2.484 . S
O250 C235 1.248 . S
O251 Tb225 2.440 . S
O251 C235 1.266 . S
O252 Tb224 2.325 . S
O252 Tb225 2.658 1_655 S
O252 C242 1.274 1_655 S
O253 Tb225 2.409 . S
O253 C242 1.263 . S
O254 Tb225 2.378 . S
O254 C243 1.236 . S
O255 Tb224 2.341 1_455 S
O255 C243 1.266 . S
H256 C228 0.929 . S
H257 C229 0.931 . S
H258 C231 0.930 . S
H259 C232 0.930 . S
H260 C237 0.929 . S
H261 C238 0.931 . S
H262 C240 0.930 . S
H263 C241 0.930 . S
C264 C265 1.382 1_545 S
C264 H268 0.950 . S
C264 C273 1.390 . S
C265 C264 1.382 1_565 S
C265 C267 1.393 . S
H266 C273 0.950 . S
C267 C265 1.393 . S
C267 C269 1.390 . S
C267 H271 0.950 . S
H268 C264 0.950 . S
C269 C267 1.390 . S
C269 C270 1.415 . S
C269 H272 0.950 . S
C270 C269 1.415 . S
C270 C273 1.360 1_565 S
H271 C267 0.950 . S
H272 C269 0.950 . S
C273 C264 1.390 . S
C273 H266 0.950 . S
C273 C270 1.360 1_545 S
C274 C275 1.387 . S
C274 H278 0.950 . S
C274 C283 1.390 . S
C275 C274 1.387 . S
C275 C277 1.387 . S
H276 C283 0.950 . S
C277 C275 1.387 . S
C277 C279 1.390 . S
C277 H281 0.950 . S
H278 C274 0.950 . S
C279 C277 1.390 . S
C279 C280 1.387 . S
C279 H282 0.950 . S
C280 C279 1.387 . S
C280 C283 1.387 . S
H281 C277 0.950 . S
H282 C279 0.950 . S
C283 C274 1.390 . S
C283 H276 0.950 . S
C283 C280 1.387 . S
C284 C285 1.387 . S
C284 H288 0.950 . S
C284 C293 1.390 . S
C285 C284 1.387 . S
C285 C287 1.387 . S
H286 C293 0.950 . S
C287 C285 1.387 . S
C287 C289 1.390 . S
C287 H291 0.950 . S
H288 C284 0.950 . S
C289 C287 1.390 . S
C289 C290 1.387 . S
C289 H292 0.950 . S
C290 C289 1.387 . S
C290 C293 1.387 . S
H291 C287 0.950 . S
H292 C289 0.950 . S
C293 C284 1.390 . S
C293 H286 0.950 . S
C293 C290 1.387 . S
C294 C295 1.397 . S
C294 H298 0.950 . S
C294 C303 1.390 . S
C295 C294 1.397 . S
C295 C297 1.378 1_455 S
H296 C303 0.950 . S
C297 C295 1.378 1_655 S
C297 C299 1.390 . S
C297 H301 0.950 . S
H298 C294 0.950 . S
C299 C297 1.390 . S
C299 C300 1.361 1_655 S
C299 H302 0.950 . S
C300 C299 1.361 1_455 S
C300 C303 1.414 . S
H301 C297 0.950 . S
H302 C299 0.950 . S
C303 C294 1.390 . S
C303 H296 0.950 . S
C303 C300 1.414 . S
C304 C305 1.377 1_565 S
C304 H308 0.950 . S
C304 C313 1.390 . S
C305 C304 1.377 1_545 S
C305 C307 1.398 . S
H306 C313 0.950 . S
C307 C305 1.398 . S
C307 C309 1.390 . S
C307 H311 0.950 . S
H308 C304 0.950 . S
C309 C307 1.390 . S
C309 C310 1.387 . S
C309 H312 0.950 . S
C310 C309 1.387 . S
C310 C313 1.387 1_545 S
H311 C307 0.950 . S
H312 C309 0.950 . S
C313 C304 1.390 . S
C313 H306 0.950 . S
C313 C310 1.387 1_565 S
C314 C315 1.387 . S
C314 H318 0.950 . S
C314 C323 1.390 . S
C315 C314 1.387 . S
C315 C317 1.387 . S
H316 C323 0.950 . S
C317 C315 1.387 . S
C317 C319 1.390 . S
C317 H321 0.950 . S
H318 C314 0.950 . S
C319 C317 1.390 . S
C319 C320 1.387 . S
C319 H322 0.950 . S
C320 C319 1.387 . S
C320 C323 1.387 . S
H321 C317 0.950 . S
H322 C319 0.950 . S
C323 C314 1.390 . S
C323 H316 0.950 . S
C323 C320 1.387 . S
C324 C325 1.387 . S
C324 H328 0.950 . S
C324 C333 1.390 . S
C325 C324 1.387 . S
C325 C327 1.387 . S
H326 C333 0.950 . S
C327 C325 1.387 . S
C327 C329 1.390 . S
C327 H331 0.950 . S
H328 C324 0.950 . S
C329 C327 1.390 . S
C329 C330 1.387 . S
C329 H332 0.950 . S
C330 C329 1.387 . S
C330 C333 1.387 . S
H331 C327 0.950 . S
H332 C329 0.950 . S
C333 C324 1.390 . S
C333 H326 0.950 . S
C333 C330 1.387 . S
C334 C335 1.379 1_455 S
C334 H338 0.950 . S
C334 C343 1.390 . S
C335 C334 1.379 1_655 S
C335 C337 1.396 . S
H336 C343 0.950 . S
C337 C335 1.396 . S
C337 C339 1.390 . S
C337 H341 0.950 . S
H338 C334 0.950 . S
C339 C337 1.390 . S
C339 C340 1.415 . S
C339 H342 0.950 . S
C340 C339 1.415 . S
C340 C343 1.360 1_655 S
H341 C337 0.950 . S
H342 C339 0.950 . S
C343 C334 1.390 . S
C343 H336 0.950 . S
C343 C340 1.360 1_455 S
C344 C345 1.387 . S
C344 H348 0.950 1_655 S
C344 C353 1.390 . S
C345 C344 1.387 . S
C345 C347 1.387 . S
H346 C353 0.950 . S
C347 C345 1.387 . S
C347 C349 1.390 . S
C347 H351 0.950 . S
H348 C344 0.950 1_455 S
C349 C347 1.390 . S
C349 C350 1.387 . S
C349 H352 0.950 . S
C350 C349 1.387 . S
C350 C353 1.387 . S
H351 C347 0.950 . S
H352 C349 0.950 . S
C353 C344 1.390 . S
C353 H346 0.950 . S
C353 C350 1.387 . S
C354 C355 1.387 1_545 S
C354 H358 0.950 . S
C354 C363 1.390 1_545 S
C355 C354 1.387 1_565 S
C355 C357 1.387 . S
H356 C363 0.950 . S
C357 C355 1.387 . S
C357 C359 1.390 . S
C357 H361 0.950 . S
H358 C354 0.950 . S
C359 C357 1.390 . S
C359 C360 1.387 . S
C359 H362 0.950 . S
C360 C359 1.387 . S
C360 C363 1.387 . S
H361 C357 0.950 . S
H362 C359 0.950 . S
C363 C354 1.390 1_565 S
C363 H356 0.950 . S
C363 C360 1.387 . S
C364 C365 1.387 . S
C364 H368 0.950 . S
C364 C373 1.390 . S
C365 C364 1.387 . S
C365 C367 1.387 . S
H366 C373 0.950 . S
C367 C365 1.387 . S
C367 C369 1.390 . S
C367 H371 0.950 1_554 S
H368 C364 0.950 . S
C369 C367 1.390 . S
C369 C370 1.387 . S
C369 H372 0.950 . S
C370 C369 1.387 . S
C370 C373 1.387 . S
H371 C367 0.950 1_556 S
H372 C369 0.950 . S
C373 C364 1.390 . S
C373 H366 0.950 . S
C373 C370 1.387 . S
C374 C375 1.387 . S
C374 H378 0.950 . S
C374 C383 1.390 . S
C375 C374 1.387 . S
C375 C377 1.387 . S
H376 C383 0.950 . S
C377 C375 1.387 . S
C377 C379 1.390 . S
C377 H381 0.950 1_554 S
H378 C374 0.950 . S
C379 C377 1.390 . S
C379 C380 1.387 . S
C379 H382 0.950 . S
C380 C379 1.387 . S
C380 C383 1.387 . S
H381 C377 0.950 1_556 S
H382 C379 0.950 . S
C383 C374 1.390 . S
C383 H376 0.950 . S
C383 C380 1.387 . S
C384 C385 1.387 . S
C384 H388 0.950 . S
C384 C393 1.390 . S
C385 C384 1.387 . S
C385 C387 1.387 1_455 S
H386 C393 0.950 . S
C387 C385 1.387 1_655 S
C387 C389 1.390 1_655 S
C387 H391 0.950 . S
H388 C384 0.950 . S
C389 C387 1.390 1_455 S
C389 C390 1.387 . S
C389 H392 0.950 . S
C390 C389 1.387 . S
C390 C393 1.387 . S
H391 C387 0.950 . S
H392 C389 0.950 . S
C393 C384 1.390 . S
C393 H386 0.950 . S
C393 C390 1.387 . S
C394 C395 1.387 . S
C394 H398 0.950 1_545 S
C394 C403 1.390 . S
C395 C394 1.387 . S
C395 C397 1.387 . S
H396 C403 0.950 . S
C397 C395 1.387 . S
C397 C399 1.390 . S
C397 H401 0.950 . S
H398 C394 0.950 1_565 S
C399 C397 1.390 . S
C399 C400 1.387 . S
C399 H402 0.950 . S
C400 C399 1.387 . S
C400 C403 1.387 . S
H401 C397 0.950 . S
H402 C399 0.950 . S
C403 C394 1.390 . S
C403 H396 0.950 . S
C403 C400 1.387 . S
C404 C405 1.387 . S
C404 H408 0.950 . S
C404 C413 1.390 . S
C405 C404 1.387 . S
C405 C407 1.387 . S
H406 C413 0.950 . S
C407 C405 1.387 . S
C407 C409 1.390 . S
C407 H411 0.950 . S
H408 C404 0.950 . S
C409 C407 1.390 . S
C409 C410 1.387 . S
C409 H412 0.950 . S
C410 C409 1.387 . S
C410 C413 1.387 . S
H411 C407 0.950 . S
H412 C409 0.950 . S
C413 C404 1.390 . S
C413 H406 0.950 . S
C413 C410 1.387 . S
C414 C415 1.387 . S
C414 H418 0.950 . S
C414 C423 1.390 . S
C415 C414 1.387 . S
C415 C417 1.387 . S
H416 C423 0.950 . S
C417 C415 1.387 . S
C417 C419 1.390 . S
C417 H421 0.950 . S
H418 C414 0.950 . S
C419 C417 1.390 . S
C419 C420 1.387 . S
C419 H422 0.950 . S
C420 C419 1.387 . S
C420 C423 1.387 . S
H421 C417 0.950 . S
H422 C419 0.950 . S
C423 C414 1.390 . S
C423 H416 0.950 . S
C423 C420 1.387 . S
C424 C425 1.387 1_554 S
C424 H428 0.950 . S
C424 C433 1.390 . S
C425 C424 1.387 1_556 S
C425 C427 1.387 . S
H426 C433 0.950 . S
C427 C425 1.387 . S
C427 C429 1.390 . S
C427 H431 0.950 . S
H428 C424 0.950 . S
C429 C427 1.390 . S
C429 C430 1.387 . S
C429 H432 0.950 . S
C430 C429 1.387 . S
C430 C433 1.387 1_556 S
H431 C427 0.950 . S
H432 C429 0.950 . S
C433 C424 1.390 . S
C433 H426 0.950 . S
C433 C430 1.387 1_554 S
C434 C435 1.387 1_554 S
C434 H438 0.950 . S
C434 C443 1.390 . S
C435 C434 1.387 1_556 S
C435 C437 1.387 1_545 S
H436 C443 0.950 . S
C437 C435 1.387 1_565 S
C437 C439 1.390 1_565 S
C437 H441 0.950 . S
H438 C434 0.950 . S
C439 C437 1.390 1_545 S
C439 C440 1.387 . S
C439 H442 0.950 1_545 S
C440 C439 1.387 . S
C440 C443 1.387 1_556 S
H441 C437 0.950 . S
H442 C439 0.950 1_565 S
C443 C434 1.390 . S
C443 H436 0.950 . S
C443 C440 1.387 1_554 S
C444 C445 1.387 . S
C444 H448 0.950 . S
C444 C453 1.390 . S
C445 C444 1.387 . S
C445 C447 1.387 1_556 S
H446 C453 0.950 . S
C447 C445 1.387 1_554 S
C447 C449 1.390 . S
C447 H451 0.950 . S
H448 C444 0.950 . S
C449 C447 1.390 . S
C449 C450 1.387 1_554 S
C449 H452 0.950 . S
C450 C449 1.387 1_556 S
C450 C453 1.387 . S
H451 C447 0.950 . S
H452 C449 0.950 . S
C453 C444 1.390 . S
C453 H446 0.950 . S
C453 C450 1.387 . S
C454 C455 1.387 . S
C454 H458 0.950 . S
C454 C463 1.390 . S
C455 C454 1.387 . S
C455 C457 1.387 1_556 S
H456 C463 0.950 . S
C457 C455 1.387 1_554 S
C457 C459 1.390 . S
C457 H461 0.950 . S
H458 C454 0.950 . S
C459 C457 1.390 . S
C459 C460 1.387 1_554 S
C459 H462 0.950 . S
C460 C459 1.387 1_556 S
C460 C463 1.387 . S
H461 C457 0.950 . S
H462 C459 0.950 . S
C463 C454 1.390 . S
C463 H456 0.950 . S
C463 C460 1.387 . S
C464 C465 1.387 . S
C464 H468 0.950 . S
C464 C473 1.390 . S
C465 C464 1.387 . S
C465 C467 1.387 . S
H466 C473 0.950 . S
C467 C465 1.387 . S
C467 C469 1.390 . S
C467 H471 0.950 . S
H468 C464 0.950 . S
C469 C467 1.390 . S
C469 C470 1.387 . S
C469 H472 0.950 . S
C470 C469 1.387 . S
C470 C473 1.387 . S
H471 C467 0.950 . S
H472 C469 0.950 . S
C473 C464 1.390 . S
C473 H466 0.950 . S
C473 C470 1.387 . S
C474 C475 1.387 . S
C474 H478 0.950 . S
C474 C483 1.390 . S
C475 C474 1.387 . S
C475 C477 1.387 . S
H476 C483 0.950 . S
C477 C475 1.387 . S
C477 C479 1.390 . S
C477 H481 0.949 1_565 S
H478 C474 0.950 . S
C479 C477 1.390 . S
C479 C480 1.387 . S
C479 H482 0.950 . S
C480 C479 1.387 . S
C480 C483 1.387 . S
H481 C477 0.949 1_545 S
H482 C479 0.950 . S
C483 C474 1.390 . S
C483 H476 0.950 . S
C483 C480 1.387 . S
C484 C485 1.387 . S
C484 H488 0.950 . S
C484 C493 1.390 . S
C485 C484 1.387 . S
C485 C487 1.387 . S
H486 C493 0.950 . S
C487 C485 1.387 . S
C487 C489 1.390 . S
C487 H491 0.950 . S
H488 C484 0.950 . S
C489 C487 1.390 . S
C489 C490 1.387 . S
C489 H492 0.950 . S
C490 C489 1.387 . S
C490 C493 1.387 . S
H491 C487 0.950 . S
H492 C489 0.950 . S
C493 C484 1.390 . S
C493 H486 0.950 . S
C493 C490 1.387 . S
C494 C495 1.387 . S
C494 H498 0.950 . S
C494 C503 1.390 . S
C495 C494 1.387 . S
C495 C497 1.387 . S
H496 C503 0.950 . S
C497 C495 1.387 . S
C497 C499 1.390 . S
C497 H501 0.950 . S
H498 C494 0.950 . S
C499 C497 1.390 . S
C499 C500 1.387 . S
C499 H502 0.950 . S
C500 C499 1.387 . S
C500 C503 1.387 . S
H501 C497 0.950 . S
H502 C499 0.950 . S
C503 C494 1.390 . S
C503 H496 0.950 . S
C503 C500 1.387 . S
C265 N80 1.991 . S
C270 C113 2.173 . S
C280 C153 2.196 . S
C275 N93 2.021 . S
C290 C193 2.212 . S
C285 N54 2.038 . S
C300 C233 2.189 1_455 S
C295 N67 2.011 1_455 S
C310 C122 2.173 1_554 S
C305 N28 1.997 1_545 S
C315 N41 2.017 . S
C320 C162 2.197 1_554 S
C325 N2 2.035 . S
C330 C202 2.211 1_554 S
C335 N15 2.012 . S
C340 C242 2.190 1_654 S
C350 C119 0.788 . S
C345 N70 0.796 . S
C360 C159 0.783 . S
C355 N83 0.791 . S
C370 C199 0.784 . S
C365 N96 0.790 . S
C375 N57 0.794 . S
C380 C239 0.784 . S
C385 N18 0.804 1_455 S
C390 C110 0.795 . S
C400 C150 0.783 . S
C395 N31 0.791 1_545 S
C410 C190 0.781 . S
C405 N44 0.789 . S
C415 N5 0.794 . S
C420 C230 0.787 . S
C425 N66 2.415 1_455 S
C430 C123 2.531 . S
C435 N79 2.361 1_545 S
C440 C163 2.475 . S
C450 C203 2.456 . S
C445 N92 2.346 . S
C460 C243 2.515 . S
C455 N53 2.398 . S
C465 N14 2.404 . S
C470 C114 2.536 . S
C480 C154 2.475 . S
C475 N27 2.348 . S
C490 C194 2.457 . S
C485 N40 2.326 . S
C495 N1 2.380 . S
C500 C234 2.515 . S
