# Generated by pormake.
# Topology pyr, (3,6)-cn, num edge types: 1
# Building blocks:
#     Node 0, Type 0, BuildingBlock: CUQRIR_clean_linker_1, # of connection points: 3
#     Node 1, Type 0, BuildingBlock: CUQRIR_clean_linker_1, # of connection points: 3
#     Node 2, Type 0, BuildingBlock: CUQRIR_clean_linker_1, # of connection points: 3
#     Node 3, Type 0, BuildingBlock: CUQRIR_clean_linker_1, # of connection points: 3
#     Node 4, Type 0, BuildingBlock: CUQRIR_clean_linker_1, # of connection points: 3
#     Node 5, Type 0, BuildingBlock: CUQRIR_clean_linker_1, # of connection points: 3
#     Node 6, Type 0, BuildingBlock: CUQRIR_clean_linker_1, # of connection points: 3
#     Node 7, Type 0, BuildingBlock: CUQRIR_clean_linker_1, # of connection points: 3
#     Node 8, Type 1, BuildingBlock: JUFBIX_clean_sbu_0, # of connection points: 6
#     Node 9, Type 1, BuildingBlock: JUFBIX_clean_sbu_0, # of connection points: 6
#     Node 10, Type 1, BuildingBlock: JUFBIX_clean_sbu_0, # of connection points: 6
#     Node 11, Type 1, BuildingBlock: JUFBIX_clean_sbu_0, # of connection points: 6
#     Edge 12, Type (0, 1), BuildingBlock: ZUJKAS_clean_linker_0, # of connection points: 2
#     Edge 13, Type (0, 1), BuildingBlock: ZUJKAS_clean_linker_0, # of connection points: 2
#     Edge 14, Type (0, 1), BuildingBlock: ZUJKAS_clean_linker_0, # of connection points: 2
#     Edge 15, Type (0, 1), BuildingBlock: ZUJKAS_clean_linker_0, # of connection points: 2
#     Edge 16, Type (0, 1), BuildingBlock: ZUJKAS_clean_linker_0, # of connection points: 2
#     Edge 17, Type (0, 1), BuildingBlock: ZUJKAS_clean_linker_0, # of connection points: 2
#     Edge 18, Type (0, 1), BuildingBlock: ZUJKAS_clean_linker_0, # of connection points: 2
#     Edge 19, Type (0, 1), BuildingBlock: ZUJKAS_clean_linker_0, # of connection points: 2
#     Edge 20, Type (0, 1), BuildingBlock: ZUJKAS_clean_linker_0, # of connection points: 2
#     Edge 21, Type (0, 1), BuildingBlock: ZUJKAS_clean_linker_0, # of connection points: 2
#     Edge 22, Type (0, 1), BuildingBlock: ZUJKAS_clean_linker_0, # of connection points: 2
#     Edge 23, Type (0, 1), BuildingBlock: ZUJKAS_clean_linker_0, # of connection points: 2
#     Edge 24, Type (0, 1), BuildingBlock: ZUJKAS_clean_linker_0, # of connection points: 2
#     Edge 25, Type (0, 1), BuildingBlock: ZUJKAS_clean_linker_0, # of connection points: 2
#     Edge 26, Type (0, 1), BuildingBlock: ZUJKAS_clean_linker_0, # of connection points: 2
#     Edge 27, Type (0, 1), BuildingBlock: ZUJKAS_clean_linker_0, # of connection points: 2
#     Edge 28, Type (0, 1), BuildingBlock: ZUJKAS_clean_linker_0, # of connection points: 2
#     Edge 29, Type (0, 1), BuildingBlock: ZUJKAS_clean_linker_0, # of connection points: 2
#     Edge 30, Type (0, 1), BuildingBlock: ZUJKAS_clean_linker_0, # of connection points: 2
#     Edge 31, Type (0, 1), BuildingBlock: ZUJKAS_clean_linker_0, # of connection points: 2
#     Edge 32, Type (0, 1), BuildingBlock: ZUJKAS_clean_linker_0, # of connection points: 2
#     Edge 33, Type (0, 1), BuildingBlock: ZUJKAS_clean_linker_0, # of connection points: 2
#     Edge 34, Type (0, 1), BuildingBlock: ZUJKAS_clean_linker_0, # of connection points: 2
#     Edge 35, Type (0, 1), BuildingBlock: ZUJKAS_clean_linker_0, # of connection points: 2
# Relax obj value: 0.121
# Max RMSD: 0.216
# Mean RMSD: 0.151
data_MOF--net-pry--node1-JUFBIX_clean_sbu_0--node2-CUQRIR_clean_linker_1--edge1-ZUJKAS_clean_linker_0
_symmetry_space_group_name_H-M    P1
_symmetry_Int_Tables_number       1
_symmetry_cell_setting            triclinic
loop_
_symmetry_equiv_pos_as_xyz
'x, y, z'
_cell_length_a     45.708743
_cell_length_b     43.707669
_cell_length_c     44.832475
_cell_angle_alpha  83.732791
_cell_angle_beta   91.288314
_cell_angle_gamma 94.399652
loop_
_atom_site_label
_atom_site_type_symbol
_atom_site_fract_x
_atom_site_fract_y
_atom_site_fract_z
_atom_type_partial_charge
C0 C 0.17899 0.20831 0.18472 0.0
N1 N 0.19892 0.1871 0.19253 0.0
N2 N 0.18673 0.22668 0.15931 0.0
C3 C 0.15168 0.21106 0.2021 0.0
C4 C 0.21241 0.21572 0.15183 0.0
N5 N 0.22015 0.19179 0.17205 0.0
C6 C 0.23056 0.2291 0.12526 0.0
H7 H 0.14297 0.18817 0.21274 0.0
H8 H 0.13441 0.22143 0.18737 0.0
H9 H 0.15718 0.2261 0.22014 0.0
H10 H 0.24777 0.246 0.13275 0.0
H11 H 0.2173 0.24137 0.10753 0.0
H12 H 0.24147 0.2107 0.11557 0.0
C13 C 0.37144 0.81224 0.67798 0.0
N14 N 0.36951 0.83655 0.69387 0.0
N15 N 0.39904 0.80295 0.67962 0.0
C16 C 0.34716 0.79949 0.65853 0.0
C17 C 0.41395 0.82276 0.69674 0.0
N18 N 0.39601 0.84345 0.70516 0.0
C19 C 0.44535 0.8204 0.70693 0.0
H20 H 0.33365 0.78123 0.67224 0.0
H21 H 0.3561 0.78926 0.63939 0.0
H22 H 0.33272 0.81775 0.64964 0.0
H23 H 0.45976 0.83585 0.69128 0.0
H24 H 0.45186 0.79646 0.70695 0.0
H25 H 0.44873 0.82768 0.72978 0.0
C26 C 0.66293 0.37107 0.83422 0.0
N27 N 0.67786 0.36689 0.86057 0.0
N28 N 0.67152 0.3987 0.8191 0.0
C29 C 0.63811 0.34949 0.82453 0.0
C30 C 0.69192 0.41134 0.83739 0.0
N31 N 0.6955 0.39213 0.86279 0.0
C32 C 0.70987 0.44134 0.82946 0.0
H33 H 0.64724 0.3318 0.81219 0.0
H34 H 0.62238 0.36207 0.80952 0.0
H35 H 0.62615 0.33749 0.84424 0.0
H36 H 0.69932 0.46008 0.83896 0.0
H37 H 0.71125 0.44703 0.80478 0.0
H38 H 0.73238 0.4403 0.83912 0.0
C39 C 0.93506 0.63943 0.4005 0.0
N40 N 0.95998 0.65737 0.39365 0.0
N41 N 0.92486 0.6448 0.42743 0.0
C42 C 0.91842 0.61968 0.37931 0.0
C43 C 0.94458 0.66669 0.43664 0.0
N44 N 0.96591 0.67429 0.41617 0.0
C45 C 0.94176 0.6825 0.46448 0.0
H46 H 0.89563 0.6267 0.37624 0.0
H47 H 0.91715 0.59527 0.38932 0.0
H48 H 0.92886 0.62121 0.35708 0.0
H49 H 0.96367 0.68687 0.47502 0.0
H50 H 0.92706 0.66843 0.48089 0.0
H51 H 0.93264 0.70517 0.45824 0.0
C52 C 0.82542 0.87255 0.87882 0.0
N53 N 0.84762 0.86757 0.8605 0.0
N54 N 0.81234 0.89886 0.86906 0.0
C55 C 0.81827 0.85298 0.90788 0.0
C56 C 0.82795 0.90993 0.84407 0.0
N57 N 0.84958 0.89126 0.83888 0.0
C58 C 0.82049 0.93767 0.82319 0.0
H59 H 0.80178 0.83398 0.90343 0.0
H60 H 0.80916 0.8668 0.92431 0.0
H61 H 0.8381 0.84258 0.91793 0.0
H62 H 0.83331 0.95841 0.83004 0.0
H63 H 0.7968 0.94134 0.8241 0.0
H64 H 0.82614 0.93499 0.79973 0.0
C65 C 0.66199 0.17781 0.44568 0.0
N66 N 0.66336 0.15024 0.43495 0.0
N67 N 0.63743 0.19115 0.43556 0.0
C68 C 0.68444 0.19163 0.46638 0.0
C69 C 0.62375 0.17062 0.41836 0.0
N70 N 0.63939 0.1455 0.41825 0.0
C71 C 0.5973 0.17688 0.3986 0.0
H72 H 0.6948 0.17325 0.48107 0.0
H73 H 0.67424 0.20717 0.48045 0.0
H74 H 0.70184 0.20536 0.45283 0.0
H75 H 0.59425 0.20191 0.3944 0.0
H76 H 0.57748 0.16514 0.40984 0.0
H77 H 0.59928 0.16763 0.37671 0.0
C78 C 0.34109 0.65577 0.15403 0.0
N79 N 0.36632 0.67033 0.16328 0.0
N80 N 0.3338 0.66755 0.1259 0.0
C81 C 0.32318 0.6304 0.1724 0.0
C82 C 0.35565 0.68955 0.11832 0.0
N83 N 0.3756 0.69102 0.14098 0.0
C84 C 0.35671 0.7108 0.08949 0.0
H85 H 0.32618 0.60814 0.16356 0.0
H86 H 0.29953 0.63452 0.17031 0.0
H87 H 0.32971 0.62816 0.1964 0.0
H88 H 0.35241 0.7344 0.09433 0.0
H89 H 0.34048 0.70297 0.07267 0.0
H90 H 0.37879 0.71202 0.07955 0.0
C91 C 0.11293 0.36903 0.64263 0.0
N92 N 0.12245 0.36615 0.61482 0.0
N93 N 0.12466 0.3956 0.65232 0.0
C94 C 0.09187 0.34611 0.66016 0.0
C95 C 0.14159 0.40884 0.62933 0.0
N96 N 0.14 0.39105 0.60633 0.0
C97 C 0.16241 0.43713 0.63074 0.0
H98 H 0.07953 0.35751 0.67631 0.0
H99 H 0.10441 0.32809 0.67289 0.0
H100 H 0.0762 0.33468 0.64484 0.0
H101 H 0.18332 0.43456 0.6195 0.0
H102 H 0.16738 0.44179 0.65421 0.0
H103 H 0.15221 0.45731 0.6188 0.0
Co104 Co 0.02025 0.0198 0.50424 0.0
C105 C 0.04543 0.96298 0.50216 0.0
Co106 Co 0.06235 0.01466 0.52835 0.0
C107 C 0.9588 0.02871 0.49067 0.0
C108 C 0.98097 0.01123 0.45527 0.0
N109 N 0.98519 0.02036 0.48292 0.0
N110 N 0.93833 0.02524 0.4688 0.0
C111 C 0.95228 0.01423 0.44654 0.0
H112 H 0.95483 0.03745 0.51177 0.0
H113 H 0.99768 1.00267 0.44236 0.0
C114 C 0.03771 0.07183 0.52956 0.0
N115 N 0.09798 0.01469 0.54874 0.0
C116 C 0.11013 0.99232 0.56703 0.0
C117 C 0.11786 0.03919 0.54782 0.0
N118 N 0.13689 1.00201 0.57751 0.0
C119 C 0.1416 0.03158 0.56548 0.0
C120 C 0.06893 0.03965 0.46744 0.0
O121 O 0.01696 0.06087 0.51363 0.0
O122 O 0.05842 0.05512 0.53826 0.0
O123 O 0.08287 0.0315 0.4916 0.0
O124 O 0.04101 0.0364 0.46787 0.0
O125 O 0.06606 0.97408 0.51817 0.0
H126 H 0.11525 0.06131 0.53505 0.0
H127 H 0.09971 0.96932 0.57207 0.0
O128 O 0.02391 0.97902 0.49455 0.0
O129 O 0.99967 1.0032 0.5411 0.0
O130 O 0.04167 0.99787 0.56488 0.0
C131 C 0.01364 0.99496 0.56533 0.0
H132 H 0.94239 0.00829 0.42558 0.0
H133 H 0.16074 0.04688 0.56927 0.0
Co134 Co 0.51017 0.0413 0.01892 0.0
C135 C 0.50597 0.98922 0.06165 0.0
Co136 Co 0.53706 0.04503 0.06 0.0
C137 C 0.49161 0.03211 0.95762 0.0
C138 C 0.45557 0.03351 0.98692 0.0
N139 N 0.48517 0.03646 0.98608 0.0
N140 N 0.46721 0.02649 0.94084 0.0
C141 C 0.44456 0.02755 0.95929 0.0
H142 H 0.51374 0.03212 0.94959 0.0
H143 H 0.44263 0.03405 1.00671 0.0
C144 C 0.54201 0.09694 0.01732 0.0
N145 N 0.56188 0.04968 0.09258 0.0
C146 C 0.55683 0.04293 0.12222 0.0
C147 C 0.59009 0.06111 0.09089 0.0
N148 N 0.58088 0.04969 0.13911 0.0
C149 C 0.60178 0.0612 0.11933 0.0
C150 C 0.5662 0.02043 0.01289 0.0
O151 O 0.52392 0.08136 1.00187 0.0
O152 O 0.54982 0.08537 0.04322 0.0
O153 O 0.56883 0.02808 0.03955 0.0
O154 O 0.54172 0.02396 0.99925 0.0
O155 O 0.52437 1.005 0.07646 0.0
H156 H 0.60138 0.06919 0.07024 0.0
H157 H 0.53594 0.03315 0.13111 0.0
O158 O 0.49676 1.00089 0.03623 0.0
O159 O 0.4791 0.05909 0.03901 0.0
O160 O 0.50494 0.06158 0.08034 0.0
C161 C 0.48091 0.06588 0.06594 0.0
H162 H 0.42165 0.02239 0.95383 0.0
H163 H 0.62379 0.06992 0.12492 0.0
Co164 Co 0.53877 0.54342 0.48293 0.0
C165 C 0.49462 0.54763 0.43927 0.0
Co166 Co 0.49903 0.51268 0.49383 0.0
C167 C 0.59948 0.56581 0.47685 0.0
C168 C 0.57033 0.60066 0.46214 0.0
N169 N 0.57079 0.5709 0.47365 0.0
N170 N 0.61704 0.59126 0.46781 0.0
C171 C 0.5987 0.61323 0.45852 0.0
H172 H 0.60725 0.54388 0.48593 0.0
H173 H 0.55062 0.6124 0.45661 0.0
C174 C 0.5434 0.50913 0.5376 0.0
N175 N 0.46732 0.48448 0.50304 0.0
C176 C 0.43819 0.4879 0.50115 0.0
C177 C 0.46952 0.45439 0.51244 0.0
N178 N 0.4221 0.46099 0.50898 0.0
C179 C 0.44195 0.43994 0.516 0.0
C180 C 0.54179 0.48682 0.46301 0.0
O181 O 0.55663 0.52994 0.5198 0.0
O182 O 0.51803 0.49802 0.5304 0.0
O183 O 0.5162 0.48291 0.47379 0.0
O184 O 0.55652 0.51246 0.46446 0.0
O185 O 0.4804 0.52773 0.45734 0.0
H186 H 0.48996 0.4435 0.51609 0.0
H187 H 0.42912 0.50975 0.49425 0.0
O188 O 0.52067 0.55692 0.44609 0.0
O189 O 0.52093 0.57394 0.50174 0.0
O190 O 0.48211 0.54271 0.51391 0.0
C191 C 0.49616 0.56891 0.51441 0.0
H192 H 0.60522 0.63658 0.44922 0.0
H193 H 0.4371 0.41558 0.52269 0.0
Co194 Co 0.01346 0.53636 0.98414 0.0
C195 C 0.95747 0.50819 0.99442 0.0
Co196 Co 0.99651 0.54151 0.02883 0.0
C197 C 0.04946 0.52084 0.93598 0.0
C198 C 1.01133 0.5437 0.92035 0.0
N199 N 0.0258 0.53346 0.94561 0.0
N200 N 0.05035 0.52322 0.90572 0.0
C201 C 0.02641 0.53761 0.89588 0.0
H202 H 0.06556 0.50994 0.95079 0.0
H203 H 0.99068 0.55431 0.91967 0.0
C204 C 0.05238 0.56938 0.01811 0.0
N205 N 0.98347 0.54422 0.06729 0.0
C206 C 0.98994 0.56643 0.08567 0.0
C207 C 0.96687 0.52214 0.08389 0.0
N208 N 0.97822 0.55889 0.11317 0.0
C209 C 0.96352 0.5311 0.11194 0.0
C210 C 0.02904 0.48844 0.02679 0.0
O211 O 0.0488 0.55927 0.99267 0.0
O212 O 0.03208 0.5642 0.0373 0.0
O213 O 0.01455 0.50349 0.04352 0.0
O214 O 0.03101 0.49837 0.99901 0.0
O215 O 0.96092 0.51853 0.01975 0.0
H216 H 0.95835 0.50048 0.07637 0.0
H217 H 1.00388 0.58715 0.07934 0.0
O218 O 0.97798 0.51341 0.97551 0.0
O219 O 0.99619 0.57447 0.96997 0.0
O220 O 0.97881 0.57983 0.01393 0.0
C221 C 0.98195 0.59001 0.98629 0.0
H222 H 0.01963 0.54224 0.87264 0.0
H223 H 0.95135 0.51793 0.13006 0.0
H224 H 0.2146 0.201 0.24794 0.0
H225 H 0.19684 0.17317 0.29546 0.0
H226 H 0.15752 0.10004 0.24727 0.0
H227 H 0.17555 0.12806 0.19987 0.0
H228 H 0.13962 0.1606 0.30984 0.0
H229 H 0.19218 0.04991 0.31926 0.0
H230 H 0.2051 0.08287 0.29388 0.0
H231 H 0.17362 0.05858 0.28397 0.0
C232 C 0.20349 0.17823 0.24774 0.0
C233 C 0.19755 0.16624 0.22016 0.0
C234 C 0.19281 0.16249 0.27491 0.0
C235 C 0.17583 0.13412 0.27546 0.0
C236 C 0.17104 0.1214 0.248 0.0
H237 H 0.04559 0.06273 0.41304 0.0
H238 H 0.07135 0.08495 0.36747 0.0
C239 C 0.18167 0.13728 0.22078 0.0
C240 C 0.16109 0.11956 0.30408 0.0
H241 H 0.1527 0.05292 0.35243 0.0
C242 C 0.14265 0.13707 0.3191 0.0
C243 C 0.16491 0.08886 0.31674 0.0
C244 C 0.18523 0.06899 0.30284 0.0
C245 C 0.1278 0.12483 0.34566 0.0
C246 C 0.13096 0.09387 0.35787 0.0
C247 C 0.14984 0.0765 0.34322 0.0
C248 C 0.11504 0.07937 0.38582 0.0
C249 C 0.10916 0.1455 0.36073 0.0
C250 C 0.13062 0.06789 0.41161 0.0
C251 C 0.11582 0.05509 0.43793 0.0
C252 C 0.08489 0.05299 0.43924 0.0
C253 C 0.06934 0.06399 0.41319 0.0
C254 C 0.08415 0.07693 0.38698 0.0
H255 H 0.11504 0.17029 0.35349 0.0
H256 H 0.08578 0.14035 0.35463 0.0
H257 H 0.11147 0.14151 0.38553 0.0
H258 H 0.15437 0.06923 0.41156 0.0
H259 H 0.1287 0.04686 0.45731 0.0
H260 H 0.36821 0.85197 0.75541 0.0
H261 H 0.38284 0.88961 0.79078 0.0
H262 H 0.45581 0.92491 0.73443 0.0
H263 H 0.44047 0.88787 0.69861 0.0
H264 H 0.43614 0.89157 0.82102 0.0
H265 H 0.42058 1.0038 0.75379 0.0
H266 H 0.40426 0.96754 0.74317 0.0
H267 H 0.44242 0.97845 0.73636 0.0
C268 C 0.38696 0.86827 0.75039 0.0
C269 C 0.40335 0.86712 0.72455 0.0
C270 C 0.3954 0.88959 0.77056 0.0
C271 C 0.4203 0.91018 0.76512 0.0
C272 C 0.43628 0.90957 0.73885 0.0
H273 H 0.50743 0.99634 0.91384 0.0
H274 H 0.49987 0.97125 0.86783 0.0
C275 C 0.42775 0.88827 0.71862 0.0
C276 C 0.43069 0.93049 0.78813 0.0
H277 H 0.44369 0.00581 0.80152 0.0
C278 C 0.43787 0.91655 0.81676 0.0
C279 C 0.43282 0.96305 0.78244 0.0
C280 C 0.4244 0.9792 0.75237 0.0
C281 C 0.44676 0.93424 0.84005 0.0
C282 C 0.44916 0.96682 0.83436 0.0
C283 C 0.44222 0.98082 0.80565 0.0
C284 C 0.45631 0.98651 0.85879 0.0
C285 C 0.45242 0.91787 0.87084 0.0
C286 C 0.43509 1.00494 0.86785 0.0
C287 C 0.4395 0.01963 0.89387 0.0
C288 C 0.46519 0.01611 0.91138 0.0
C289 C 0.48738 0.99952 0.90097 0.0
C290 C 0.48299 0.98491 0.87481 0.0
H291 H 0.44349 0.89337 0.87287 0.0
H292 H 0.47643 0.91823 0.87518 0.0
H293 H 0.4425 0.92958 0.88848 0.0
H294 H 0.41445 0.0067 0.85563 0.0
H295 H 0.42229 0.03282 0.9009 0.0
H296 H 0.66841 0.37158 0.76797 0.0
H297 H 0.64779 0.3922 0.71963 0.0
H298 H 0.63114 0.47596 0.75712 0.0
H299 H 0.65059 0.45458 0.80585 0.0
H300 H 0.58424 0.45403 0.7264 0.0
H301 H 0.68368 0.45712 0.65747 0.0
H302 H 0.6743 0.41958 0.67667 0.0
H303 H 0.68493 0.45137 0.69794 0.0
C304 C 0.66033 0.39437 0.76571 0.0
C305 C 0.66103 0.41162 0.79037 0.0
C306 C 0.6489 0.40628 0.73811 0.0
C307 C 0.63842 0.43584 0.73464 0.0
C308 C 0.63932 0.45319 0.75927 0.0
H309 H 0.59339 0.53384 0.56282 0.0
H310 H 0.61586 0.51688 0.61114 0.0
C311 C 0.65055 0.44114 0.78695 0.0
C312 C 0.62521 0.44801 0.70574 0.0
H313 H 0.63828 0.46302 0.63075 0.0
C314 C 0.59611 0.45622 0.7055 0.0
C315 C 0.64088 0.45122 0.67859 0.0
C316 C 0.67277 0.44466 0.67765 0.0
C317 C 0.58202 0.46699 0.67872 0.0
C318 C 0.59724 0.4688 0.65138 0.0
C319 C 0.62654 0.46121 0.6517 0.0
C320 C 0.58333 0.47893 0.62221 0.0
C321 C 0.55116 0.47676 0.68009 0.0
C322 C 0.55778 0.46296 0.61224 0.0
C323 C 0.54471 0.47275 0.58473 0.0
C324 C 0.55725 0.49842 0.56654 0.0
C325 C 0.58317 0.51399 0.57633 0.0
C326 C 0.59605 0.50434 0.60393 0.0
H327 H 0.54602 0.48248 0.70285 0.0
H328 H 0.54773 0.49714 0.66367 0.0
H329 H 0.53539 0.4575 0.67465 0.0
H330 H 0.54802 0.4428 0.62565 0.0
H331 H 0.5249 0.46011 0.57766 0.0
H332 H 0.95032 0.70033 0.34776 0.0
H333 H 0.96156 0.69656 0.295 0.0
H334 H 1.00955 0.61671 0.32218 0.0
H335 H 0.9986 0.621 0.37488 0.0
H336 H 0.03258 0.65635 0.26912 0.0
H337 H 0.91276 0.62184 0.26373 0.0
H338 H 0.92314 0.65907 0.27584 0.0
H339 H 0.93223 0.62477 0.29885 0.0
C340 C 0.96453 0.68307 0.34241 0.0
C341 C 0.97401 0.66117 0.36505 0.0
C342 C 0.97068 0.68068 0.31236 0.0
C343 C 0.98606 0.65611 0.30472 0.0
C344 C 0.99776 0.6359 0.32762 0.0
H345 H 0.97491 0.53534 0.17156 0.0
H346 H 0.97856 0.56377 0.21541 0.0
C347 C 0.99166 0.63838 0.35763 0.0
C348 C 0.98575 0.64817 0.27342 0.0
H349 H 0.94031 0.61671 0.22151 0.0
C350 C 1.01239 0.64822 0.2584 0.0
C351 C 0.95935 0.63716 0.25975 0.0
C352 C 0.93021 0.63542 0.27532 0.0
C353 C 1.01334 0.63683 0.23029 0.0
C354 C 0.98704 0.62511 0.21714 0.0
C355 C 0.96037 0.62597 0.23169 0.0
C356 C 0.98689 0.60849 0.19012 0.0
C357 C 0.04247 0.63594 0.21542 0.0
C358 C 0.99045 0.6243 0.16133 0.0
C359 C 0.98801 0.60807 0.13598 0.0
C360 C 0.98188 0.5758 0.1391 0.0
C361 C 0.97898 0.56017 0.16815 0.0
C362 C 0.98133 0.57635 0.19332 0.0
H363 H 0.0611 0.64486 0.22915 0.0
H364 H 0.04595 0.61187 0.21137 0.0
H365 H 0.04239 0.65003 0.19327 0.0
H366 H 0.99446 0.64919 0.15847 0.0
H367 H 0.99018 0.62085 0.11397 0.0
H368 H 0.22514 0.13037 0.16847 0.0
H369 H 0.26955 0.10591 0.15625 0.0
H370 H 0.31979 0.19351 0.15654 0.0
H371 H 0.2762 0.21689 0.17099 0.0
H372 H 0.30113 0.11055 0.11091 0.0
H373 H 0.37914 0.1457 0.19802 0.0
H374 H 0.34063 0.15129 0.19988 0.0
H375 H 0.36507 0.17945 0.17842 0.0
C376 C 0.24595 0.14401 0.16716 0.0
C377 C 0.24697 0.17562 0.17107 0.0
C378 C 0.27146 0.13013 0.15963 0.0
C379 C 0.29887 0.14741 0.15561 0.0
C380 C 0.29975 0.17888 0.16028 0.0
H381 H 0.43452 0.09398 0.03758 0.0
H382 H 0.39187 0.11301 0.05937 0.0
C383 C 0.2745 0.1925 0.16833 0.0
C384 C 0.32579 0.13338 0.14466 0.0
H385 H 0.40071 0.13204 0.15322 0.0
C386 C 0.32279 0.1151 0.12055 0.0
C387 C 0.35451 0.13823 0.15713 0.0
C388 C 0.35996 0.15442 0.185 0.0
C389 C 0.34707 0.10261 0.1083 0.0
C390 C 0.37609 0.10951 0.11925 0.0
C391 C 0.37898 0.12697 0.14397 0.0
C392 C 0.40346 0.0988 0.10568 0.0
C393 C 0.34088 0.08124 0.08429 0.0
C394 C 0.42606 0.08593 0.12392 0.0
C395 C 0.45136 0.07593 0.11133 0.0
C396 C 0.45491 0.0781 0.07996 0.0
C397 C 0.43262 0.09142 0.06178 0.0
C398 C 0.40774 0.10204 0.07436 0.0
H399 H 0.31851 0.06942 0.08652 0.0
H400 H 0.34189 0.09489 0.06192 0.0
H401 H 0.35694 0.06335 0.08522 0.0
H402 H 0.424 0.08313 0.1481 0.0
H403 H 0.46787 0.06585 0.1262 0.0
H404 H 0.31622 0.81631 0.71516 0.0
H405 H 0.27112 0.84359 0.70742 0.0
H406 H 0.32154 0.92354 0.66517 0.0
H407 H 0.36655 0.89631 0.67348 0.0
H408 H 0.27539 0.93818 0.70083 0.0
H409 H 0.23791 0.85301 0.62163 0.0
H410 H 0.24546 0.8372 0.65945 0.0
H411 H 0.27487 0.8557 0.63657 0.0
C412 C 0.31752 0.83997 0.7049 0.0
C413 C 0.34446 0.85435 0.69464 0.0
C414 C 0.2919 0.85543 0.70034 0.0
C415 C 0.29297 0.8853 0.68513 0.0
C416 C 0.32027 0.90045 0.67686 0.0
H417 H 0.1958 0.01394 0.58246 0.0
H418 H 0.22985 0.98485 0.61429 0.0
C419 C 0.3459 0.88503 0.68162 0.0
C420 C 0.26569 0.89973 0.67511 0.0
H421 H 0.20833 0.89383 0.62543 0.0
C422 C 0.26048 0.92831 0.68466 0.0
C423 C 0.24629 0.88673 0.654 0.0
C424 C 0.2514 0.85661 0.64206 0.0
C425 C 0.23686 0.94473 0.67293 0.0
C426 C 0.21829 0.93236 0.65088 0.0
C427 C 0.2226 0.90312 0.64244 0.0
C428 C 0.19671 0.95091 0.63356 0.0
C429 C 0.23237 0.97553 0.68367 0.0
C430 C 0.16676 0.9411 0.63337 0.0
C431 C 0.14697 0.95791 0.61518 0.0
C432 C 0.15693 0.9846 0.59664 0.0
C433 C 0.18707 0.99405 0.59688 0.0
C434 C 0.20668 0.97742 0.61513 0.0
H435 H 0.2422 0.97734 0.70636 0.0
H436 H 0.2432 0.99417 0.66799 0.0
H437 H 0.20867 0.97941 0.68431 0.0
H438 H 0.15875 0.92042 0.64723 0.0
H439 H 0.12395 0.95006 0.61577 0.0
H440 H 0.7408 0.35803 0.87917 0.0
H441 H 0.78278 0.37315 0.91096 0.0
H442 H 0.7395 0.45289 0.93051 0.0
H443 H 0.69799 0.43792 0.89818 0.0
H444 H 0.79247 0.46827 0.90638 0.0
H445 H 0.80259 0.3752 0.99951 0.0
H446 H 0.79967 0.3612 0.96331 0.0
H447 H 0.7694 0.37918 0.97724 0.0
C448 C 0.74002 0.37814 0.89118 0.0
C449 C 0.71651 0.39696 0.88642 0.0
C450 C 0.76387 0.38674 0.90937 0.0
C451 C 0.76422 0.41408 0.92328 0.0
C452 C 0.73967 0.43169 0.92007 0.0
H453 H 0.90826 0.4945 0.02868 0.0
H454 H 0.86089 0.47028 0.01341 0.0
C455 C 0.71602 0.4232 0.90173 0.0
C456 C 0.79163 0.42677 0.93719 0.0
H457 H 0.84512 0.41051 0.98976 0.0
C458 C 0.80375 0.45575 0.92486 0.0
C459 C 0.80633 0.41049 0.96134 0.0
C460 C 0.7937 0.37992 0.97634 0.0
C461 C 0.83049 0.46857 0.93545 0.0
C462 C 0.84583 0.45173 0.95867 0.0
C463 C 0.8334 0.42316 0.97171 0.0
C464 C 0.87509 0.4635 0.96907 0.0
C465 C 0.84218 0.50006 0.92162 0.0
C466 C 0.89883 0.46696 0.94941 0.0
C467 C 0.92579 0.48082 0.95796 0.0
C468 C 0.92954 0.49139 0.98642 0.0
C469 C 0.90602 0.48676 1.00654 0.0
C470 C 0.879 0.47285 0.99792 0.0
H471 H 0.8247 0.51296 0.90948 0.0
H472 H 0.85215 0.51402 0.93902 0.0
H473 H 0.85943 0.49734 0.90529 0.0
H474 H 0.89628 0.45953 0.92716 0.0
H475 H 0.94349 0.4838 0.942 0.0
H476 H 0.8843 0.68459 0.43444 0.0
H477 H 0.83254 0.67184 0.44653 0.0
H478 H 0.8467 0.57482 0.45346 0.0
H479 H 0.89896 0.58781 0.44237 0.0
H480 H 0.79475 0.63864 0.41111 0.0
H481 H 0.79775 0.581 0.52789 0.0
H482 H 0.82866 0.60452 0.51131 0.0
H483 H 0.82062 0.56589 0.50177 0.0
C484 C 0.87649 0.66062 0.43954 0.0
C485 C 0.89547 0.63713 0.43796 0.0
C486 C 0.84695 0.65333 0.44616 0.0
C487 C 0.83585 0.6224 0.4512 0.0
C488 C 0.85494 0.59883 0.45025 0.0
H489 H 0.65388 0.54557 0.46553 0.0
H490 H 0.70746 0.55149 0.46259 0.0
C491 C 0.88461 0.60619 0.44374 0.0
C492 C 0.80387 0.61516 0.45471 0.0
H493 H 0.75136 0.58099 0.50309 0.0
C494 C 0.78527 0.62606 0.43124 0.0
C495 C 0.79163 0.5985 0.48089 0.0
C496 C 0.81062 0.58697 0.50705 0.0
C497 C 0.75473 0.62102 0.43331 0.0
C498 C 0.74246 0.60495 0.4597 0.0
C499 C 0.76097 0.59338 0.48295 0.0
C500 C 0.71035 0.60096 0.4637 0.0
C501 C 0.73576 0.63284 0.40722 0.0
C502 C 0.69444 0.62675 0.46595 0.0
C503 C 0.66392 0.62347 0.4678 0.0
C504 C 0.64868 0.5943 0.46745 0.0
C505 C 0.66485 0.56834 0.46608 0.0
C506 C 0.69546 0.57165 0.4643 0.0
H507 H 0.74851 0.63835 0.38625 0.0
H508 H 0.71733 0.61564 0.40322 0.0
H509 H 0.7263 0.65425 0.41244 0.0
H510 H 0.70567 0.6495 0.46595 0.0
H511 H 0.65229 0.64384 0.46949 0.0
H512 H 0.17337 0.27763 0.18425 0.0
H513 H 0.14596 0.32062 0.16134 0.0
H514 H 0.13933 0.27886 0.0784 0.0
H515 H 0.1651 0.23504 0.10205 0.0
H516 H 0.155 0.36425 0.11827 0.0
H517 H 0.05625 0.29524 0.08346 0.0
H518 H 0.08445 0.27832 0.10712 0.0
H519 H 0.08871 0.28436 0.06696 0.0
C520 C 0.16585 0.27757 0.16118 0.0
C521 C 0.1717 0.25291 0.14498 0.0
C522 C 0.15021 0.3023 0.14795 0.0
C523 C 0.13976 0.30324 0.11802 0.0
C524 C 0.14612 0.27876 0.10167 0.0
H525 H 0.05616 0.44626 0.99715 0.0
H526 H 0.08253 0.40191 0.01882 0.0
C527 C 0.16145 0.25382 0.11506 0.0
C528 C 0.12285 0.32998 0.10403 0.0
H529 H 0.06036 0.3483 0.06387 0.0
C530 C 0.13423 0.36053 0.10658 0.0
C531 C 0.09548 0.32582 0.08863 0.0
C532 C 0.08035 0.29418 0.08663 0.0
C533 C 0.11956 0.38646 0.09407 0.0
C534 C 0.09254 0.38221 0.07835 0.0
C535 C 0.08113 0.35181 0.07565 0.0
C536 C 0.07573 0.40905 0.06504 0.0
C537 C 0.13329 0.41841 0.09738 0.0
C538 C 0.06252 0.42793 0.08357 0.0
C539 C 0.04705 0.45314 0.07121 0.0
C540 C 0.04445 0.46055 0.03986 0.0
C541 C 0.05757 0.44148 0.02134 0.0
C542 C 0.07273 0.41599 0.03374 0.0
H543 H 0.15649 0.41805 0.1053 0.0
H544 H 0.13244 0.43325 0.07568 0.0
H545 H 0.12074 0.42905 0.11393 0.0
H546 H 0.06414 0.42312 0.10774 0.0
H547 H 0.03742 0.46713 0.08633 0.0
H548 H 0.68418 0.30747 0.85447 0.0
H549 H 0.66448 0.26295 0.88806 0.0
H550 H 0.64021 0.32428 0.95098 0.0
H551 H 0.65961 0.36886 0.9169 0.0
H552 H 0.67275 0.23999 0.94921 0.0
H553 H 0.56155 0.28098 0.9246 0.0
H554 H 0.5934 0.29673 0.90348 0.0
H555 H 0.58777 0.30785 0.9402 0.0
C556 C 0.67532 0.31118 0.87587 0.0
C557 C 0.67308 0.34126 0.88324 0.0
C558 C 0.66407 0.2859 0.89498 0.0
C559 C 0.65038 0.29043 0.92167 0.0
C560 C 0.6503 0.3204 0.93022 0.0
H561 H 0.57906 0.13638 0.04606 0.0
H562 H 0.60494 0.1844 0.02462 0.0
C563 C 0.6616 0.34574 0.91103 0.0
C564 C 0.63385 0.26403 0.93875 0.0
H565 H 0.56419 0.23443 0.95595 0.0
C566 C 0.64905 0.23883 0.951 0.0
C567 C 0.60287 0.26246 0.94041 0.0
C568 C 0.5853 0.28828 0.9263 0.0
C569 C 0.63406 0.21194 0.96479 0.0
C570 C 0.6031 0.21048 0.96668 0.0
C571 C 0.58793 0.23577 0.95461 0.0
C572 C 0.586 0.18246 0.98017 0.0
C573 C 0.65137 0.18491 0.97626 0.0
C574 C 0.56586 0.16612 0.96253 0.0
C575 C 0.55077 0.13874 0.97477 0.0
C576 C 0.55557 0.12733 1.00488 0.0
C577 C 0.575 0.1444 0.02272 0.0
C578 C 0.58997 0.17176 1.01049 0.0
H579 H 0.67382 0.18709 0.96687 0.0
H580 H 0.65349 0.18378 1.00105 0.0
H581 H 0.64002 0.16287 0.97059 0.0
H582 H 0.56237 0.17417 0.93909 0.0
H583 H 0.53596 0.12615 0.96046 0.0
H584 H 0.0197 0.6773 0.4415 0.0
H585 H 0.04823 0.72499 0.45258 0.0
H586 H 0.98417 0.77889 0.40337 0.0
H587 H 0.95619 0.73128 0.3922 0.0
H588 H 0.04241 0.8056 0.39685 0.0
H589 H 1.01303 0.77115 0.51647 0.0
H590 H 0.03361 0.74493 0.49873 0.0
H591 H 0.99672 0.75124 0.48633 0.0
C592 C 1.01259 0.69945 0.43216 0.0
C593 C 0.98621 0.701 0.41571 0.0
C594 C 0.02858 0.72657 0.43873 0.0
C595 C 0.01803 0.75545 0.4292 0.0
C596 C 0.99275 0.75687 0.41087 0.0
H597 H 1.00955 0.93835 0.46041 0.0
H598 H 1.01007 0.88778 0.44255 0.0
C599 C 0.97689 0.72981 0.4043 0.0
C600 C 0.03088 0.78401 0.44092 0.0
H601 H 0.03466 0.82106 0.50434 0.0
C602 C 0.04126 0.80883 0.42044 0.0
C603 C 0.02931 0.78817 0.47174 0.0
C604 C 0.0174 0.76262 0.49466 0.0
C605 C 0.04889 0.83807 0.42974 0.0
C606 C 0.04571 0.84262 0.46021 0.0
C607 C 0.0371 0.8174 0.481 0.0
C608 C 0.0472 0.87391 0.47016 0.0
C609 C 0.05934 0.86415 0.40672 0.0
C610 C 0.06758 0.88267 0.49215 0.0
C611 C 0.06736 0.91177 0.50253 0.0
C612 C 0.04639 0.93223 0.49142 0.0
C613 C 0.02599 0.92318 0.46951 0.0
C614 C 0.02641 0.89437 0.45902 0.0
H615 H 0.06919 0.85537 0.38718 0.0
H616 H 0.04037 0.87718 0.39837 0.0
H617 H 0.07577 0.88034 0.4166 0.0
H618 H 0.08356 0.86697 0.50128 0.0
H619 H 0.08331 0.91807 0.51946 0.0
H620 H 0.44516 0.80787 0.64269 0.0
H621 H 0.46193 0.7672 0.61491 0.0
H622 H 0.39364 0.70319 0.65508 0.0
H623 H 0.37754 0.7437 0.6835 0.0
H624 H 0.44783 0.67814 0.65387 0.0
H625 H 0.41788 0.7363 0.54224 0.0
H626 H 0.44213 0.7596 0.56411 0.0
H627 H 0.40552 0.7481 0.57689 0.0
C628 C 0.43412 0.78496 0.64579 0.0
C629 C 0.4101 0.77869 0.66498 0.0
C630 C 0.44342 0.76192 0.62975 0.0
C631 C 0.42861 0.73242 0.63253 0.0
C632 C 0.40518 0.72589 0.65246 0.0
H633 H 0.44704 0.56423 0.54894 0.0
H634 H 0.42971 0.60366 0.5777 0.0
C635 C 0.39597 0.74891 0.66856 0.0
C636 C 0.4374 0.70837 0.61452 0.0
H637 H 0.44457 0.69174 0.54252 0.0
C638 C 0.44699 0.68099 0.62954 0.0
C639 C 0.43611 0.71221 0.58278 0.0
C640 C 0.4246 0.7405 0.5655 0.0
C641 C 0.45601 0.65757 0.6136 0.0
C642 C 0.45502 0.66159 0.58189 0.0
C643 C 0.44527 0.68885 0.56686 0.0
C644 C 0.46476 0.63805 0.56387 0.0
C645 C 0.46717 0.62902 0.63071 0.0
C646 C 0.4897 0.64475 0.54606 0.0
C647 C 0.49962 0.62239 0.52961 0.0
C648 C 0.48459 0.59299 0.53053 0.0
C649 C 0.45913 0.58662 0.54783 0.0
C650 C 0.44929 0.60902 0.56439 0.0
H651 H 0.472 0.63218 0.65463 0.0
H652 H 0.45027 0.60948 0.62995 0.0
H653 H 0.48738 0.62265 0.62035 0.0
H654 H 0.50178 0.66713 0.54529 0.0
H655 H 0.51924 0.62807 0.51641 0.0
H656 H 0.88774 0.9412 0.82707 0.0
H657 H 0.91647 0.95611 0.78155 0.0
H658 H 0.88674 0.87017 0.74805 0.0
H659 H 0.85811 0.85515 0.79416 0.0
H660 H 0.94456 0.88628 0.73329 0.0
H661 H 0.88115 0.98799 0.70214 0.0
H662 H 0.89825 0.98852 0.7385 0.0
H663 H 0.87019 0.95864 0.73207 0.0
C664 C 0.8877 0.92526 0.8102 0.0
C665 C 0.87058 0.89696 0.81439 0.0
C666 C 0.90392 0.93397 0.78387 0.0
C667 C 0.9034 0.91484 0.76049 0.0
C668 C 0.88752 0.88571 0.76534 0.0
H669 H 0.95377 0.98566 0.57448 0.0
H670 H 0.92771 0.96525 0.62049 0.0
C671 C 0.87127 0.87693 0.79187 0.0
C672 C 0.91882 0.92566 0.73104 0.0
H673 H 0.92413 0.98505 0.67395 0.0
C674 C 0.93996 0.90786 0.72035 0.0
C675 C 0.9128 0.95359 0.71336 0.0
C676 C 0.88916 0.97315 0.72188 0.0
C677 C 0.9555 0.91742 0.69341 0.0
C678 C 0.95036 0.94601 0.67641 0.0
C679 C 0.92868 0.96338 0.68676 0.0
C680 C 0.96676 0.95816 0.64781 0.0
C681 C 0.97686 0.89626 0.68312 0.0
C682 C 0.9977 0.96165 0.64715 0.0
C683 C 1.01276 0.97335 0.62062 0.0
C684 C 0.99748 0.98226 0.59373 0.0
C685 C 0.96652 0.97905 0.59448 0.0
C686 C 0.95148 0.96734 0.62101 0.0
H687 H 0.97178 0.87198 0.69283 0.0
H688 H 0.9767 0.89702 0.65828 0.0
H689 H 0.99932 0.90363 0.6907 0.0
H690 H 1.01039 0.95575 0.66735 0.0
H691 H 0.03652 0.97558 0.6213 0.0
H692 H 0.67519 0.13355 0.37485 0.0
H693 H 0.6616 0.1026 0.33352 0.0
H694 H 0.5776 0.07549 0.37403 0.0
H695 H 0.59151 0.10611 0.41573 0.0
H696 H 0.63216 0.03439 0.33043 0.0
H697 H 0.56688 0.1341 0.29062 0.0
H698 H 0.59707 0.13775 0.31697 0.0
H699 H 0.56322 0.11713 0.32893 0.0
C700 C 0.65441 0.11986 0.37554 0.0
C701 C 0.63435 0.12197 0.39831 0.0
C702 C 0.6466 0.10235 0.35193 0.0
C703 C 0.61858 0.08696 0.35078 0.0
C704 C 0.59933 0.08719 0.37466 0.0
H705 H 0.53712 0.04839 0.17952 0.0
H706 H 0.54282 0.04989 0.23368 0.0
C707 C 0.60723 0.10458 0.39834 0.0
C708 C 0.60809 0.07498 0.3226 0.0
H709 H 0.57011 0.09607 0.2583 0.0
C710 C 0.61827 0.04755 0.31474 0.0
C711 C 0.58982 0.09219 0.30242 0.0
C712 C 0.57859 0.12202 0.30989 0.0
C713 C 0.61116 0.03722 0.28668 0.0
C714 C 0.59419 0.05536 0.26577 0.0
C715 C 0.58306 0.08213 0.27429 0.0
C716 C 0.59013 0.04907 0.23401 0.0
C717 C 0.62205 0.00711 0.27971 0.0
C718 C 0.61472 0.04761 0.21621 0.0
C719 C 0.61149 0.04638 0.18535 0.0
C720 C 0.58363 0.0472 0.1714 0.0
C721 C 0.55887 0.04752 0.18943 0.0
C722 C 0.56211 0.0485 0.22043 0.0
H723 H 0.6243 0.99106 0.30048 0.0
H724 H 0.60711 0.99563 0.26377 0.0
H725 H 0.64409 0.01162 0.26955 0.0
H726 H 0.63662 0.0488 0.22593 0.0
H727 H 0.631 0.04559 0.17234 0.0
H728 H 0.41845 0.64646 0.17117 0.0
H729 H 0.44129 0.6282 0.21945 0.0
H730 H 0.37049 0.66102 0.26636 0.0
H731 H 0.34806 0.67957 0.21797 0.0
H732 H 0.42714 0.67222 0.29264 0.0
H733 H 0.40392 0.55031 0.26967 0.0
H734 H 0.42443 0.57423 0.24106 0.0
H735 H 0.38732 0.58198 0.24816 0.0
C736 C 0.40823 0.65011 0.19193 0.0
C737 C 0.38148 0.66376 0.19131 0.0
C738 C 0.42104 0.63957 0.21933 0.0
C739 C 0.40715 0.64266 0.24635 0.0
C740 C 0.38135 0.65818 0.24571 0.0
H741 H 0.43836 0.53613 0.41857 0.0
H742 H 0.41591 0.55998 0.37245 0.0
C743 C 0.36859 0.6687 0.21828 0.0
C744 C 0.41873 0.62839 0.27517 0.0
H745 H 0.43268 0.55887 0.31308 0.0
C746 C 0.42833 0.64745 0.29719 0.0
C747 C 0.41962 0.59601 0.28117 0.0
C748 C 0.40803 0.57434 0.25892 0.0
C749 C 0.4396 0.635 0.32488 0.0
C750 C 0.44162 0.60273 0.33037 0.0
C751 C 0.43131 0.58362 0.30865 0.0
C752 C 0.45505 0.58838 0.35825 0.0
C753 C 0.44896 0.65645 0.34809 0.0
C754 C 0.48457 0.59604 0.36513 0.0
C755 C 0.49742 0.58251 0.39131 0.0
C756 C 0.48102 0.56084 0.41104 0.0
C757 C 0.45155 0.55274 0.40383 0.0
C758 C 0.43869 0.56637 0.37757 0.0
H759 H 0.43857 0.67871 0.34387 0.0
H760 H 0.4433 0.64573 0.37104 0.0
H761 H 0.47311 0.66155 0.34723 0.0
H762 H 0.49774 0.61243 0.35014 0.0
H763 H 0.52022 0.58916 0.3961 0.0
H764 H 0.13765 0.36322 0.70492 0.0
H765 H 0.13546 0.38043 0.7552 0.0
H766 H 0.10648 0.46766 0.71575 0.0
H767 H 0.10848 0.45026 0.66556 0.0
H768 H 0.15449 0.47015 0.76114 0.0
H769 H 0.05708 0.39156 0.79812 0.0
H770 H 0.08754 0.37497 0.78286 0.0
H771 H 0.06614 0.4006 0.759 0.0
C772 C 0.13051 0.38589 0.70721 0.0
C773 C 0.12288 0.40542 0.68171 0.0
C774 C 0.12942 0.39572 0.73575 0.0
C775 C 0.12067 0.42521 0.73907 0.0
C776 C 0.11333 0.44483 0.71355 0.0
H777 H 0.06918 0.54774 0.85135 0.0
H778 H 0.09442 0.52158 0.81534 0.0
C779 C 0.11437 0.43496 0.68505 0.0
C780 C 0.11846 0.43567 0.76908 0.0
H781 H 0.07444 0.42791 0.83019 0.0
C782 C 0.1373 0.46066 0.77652 0.0
C783 C 0.0963 0.42287 0.78918 0.0
C784 C 0.07543 0.3961 0.78202 0.0
C785 C 0.1336 0.47421 0.80299 0.0
C786 C 0.11008 0.46285 0.82205 0.0
C787 C 0.09248 0.43657 0.81555 0.0
C788 C 0.10029 0.48048 0.84587 0.0
C789 C 0.1544 0.5011 0.80986 0.0
C790 C 0.0954 0.46622 0.87514 0.0
C791 C 0.08069 0.48117 0.89575 0.0
C792 C 0.07031 0.51031 0.88711 0.0
C793 C 0.07676 0.52517 0.85842 0.0
C794 C 0.09151 0.51038 0.83796 0.0
H795 H 0.17646 0.49932 0.80057 0.0
H796 H 0.14593 0.52284 0.79917 0.0
H797 H 0.15666 0.50251 0.8344 0.0
H798 H 0.10175 0.44302 0.88156 0.0
H799 H 0.07576 0.46915 0.91767 0.0
H800 H 0.76114 0.86807 0.88929 0.0
H801 H 0.72061 0.88837 0.91368 0.0
H802 H 0.76447 0.97965 0.90128 0.0
H803 H 0.80631 0.95866 0.8793 0.0
H804 H 0.74111 0.97546 0.95174 0.0
H805 H 0.65277 0.92912 0.88001 0.0
H806 H 0.67197 0.89826 0.89886 0.0
H807 H 0.69088 0.92643 0.87213 0.0
C808 C 0.76236 0.89243 0.892 0.0
C809 C 0.78731 0.91156 0.88214 0.0
C810 C 0.73868 0.90429 0.90554 0.0
C811 C 0.73844 0.93602 0.90891 0.0
C812 C 0.76344 0.95518 0.89902 0.0
H813 H 0.57392 0.01601 0.95258 0.0
H814 H 0.61542 0.99729 0.92807 0.0
C815 C 0.78743 0.94317 0.88602 0.0
C816 C 0.71283 0.94899 0.92345 0.0
H817 H 0.63752 0.94723 0.92516 0.0
C818 C 0.71851 0.96933 0.94562 0.0
C819 C 0.68289 0.94198 0.91555 0.0
C820 C 0.67428 0.92305 0.89011 0.0
C821 C 0.69576 0.98216 0.96009 0.0
C822 C 0.66579 0.97363 0.95351 0.0
C823 C 0.66012 0.95371 0.93098 0.0
C824 C 0.64013 0.9855 0.96899 0.0
C825 C 0.70444 0.0057 0.98154 0.0
C826 C 0.63914 0.98513 1.00051 0.0
C827 C 0.61552 0.9966 0.01459 0.0
C828 C 0.59144 0.00801 0.99783 0.0
C829 C 0.59192 0.00751 0.96642 0.0
C830 C 0.61584 0.99665 0.95229 0.0
H831 H 0.72637 0.01753 0.97614 0.0
H832 H 0.68831 0.02349 0.98106 0.0
H833 H 0.70583 0.99385 1.00466 0.0
H834 H 0.65655 0.97566 0.0145 0.0
H835 H 0.61596 0.99611 0.0388 0.0
H836 H 0.66284 0.0906 0.45817 0.0
H837 H 0.70625 0.06067 0.46919 0.0
H838 H 0.76176 0.13803 0.42943 0.0
H839 H 0.71863 0.16756 0.41859 0.0
H840 H 0.75203 0.04526 0.43104 0.0
H841 H 0.79435 0.12075 0.51622 0.0
H842 H 0.75685 0.11992 0.50256 0.0
H843 H 0.7855 0.14203 0.48106 0.0
C844 C 0.68438 0.10081 0.45159 0.0
C845 C 0.68782 0.13135 0.43815 0.0
C846 C 0.70903 0.0839 0.45791 0.0
C847 C 0.73719 0.09752 0.45079 0.0
C848 C 0.74028 0.12744 0.43579 0.0
H849 H 0.90479 0.04234 0.42033 0.0
H850 H 0.85365 0.05436 0.41977 0.0
C851 C 0.71578 0.14422 0.42957 0.0
C852 C 0.76374 0.08116 0.45934 0.0
H853 H 0.8293 0.09027 0.49632 0.0
C854 C 0.76876 0.05471 0.44572 0.0
C855 C 0.7852 0.09315 0.47904 0.0
C856 C 0.78012 0.12035 0.49583 0.0
C857 C 0.79566 0.04118 0.44967 0.0
C858 C 0.81811 0.05488 0.46724 0.0
C859 C 0.81224 0.08001 0.48254 0.0
C860 C 0.84858 0.04545 0.46789 0.0
C861 C 0.79994 0.01272 0.43452 0.0
C862 C 0.86306 0.03733 0.49524 0.0
C863 C 0.89254 0.03066 0.49565 0.0
C864 C 0.908 0.0321 0.4687 0.0
C865 C 0.89338 0.04036 0.44142 0.0
C866 C 0.86406 0.04711 0.44104 0.0
H867 H 0.77869 0.99927 0.43127 0.0
H868 H 0.80944 0.01974 0.41203 0.0
H869 H 0.81506 0.99754 0.4477 0.0
H870 H 0.85159 0.03627 0.51625 0.0
H871 H 0.90312 0.02414 0.51698 0.0
H872 H 0.31068 0.61256 0.11125 0.0
H873 H 0.26257 0.60186 0.08796 0.0
H874 H 0.2485 0.69903 0.08013 0.0
H875 H 0.29549 0.70911 0.1059 0.0
H876 H 0.20203 0.66883 0.09952 0.0
H877 H 0.23637 0.61243 1.00329 0.0
H878 H 0.24908 0.5923 0.03748 0.0
H879 H 0.26253 0.63182 0.0269 0.0
C880 C 0.29717 0.63148 0.10457 0.0
C881 C 0.30665 0.66162 0.11008 0.0
C882 C 0.26996 0.62551 0.09081 0.0
C883 C 0.25221 0.64976 0.08151 0.0
C884 C 0.2619 0.67998 0.0868 0.0
H885 H 0.09286 0.60035 0.97989 0.0
H886 H 0.14043 0.62534 0.99321 0.0
C887 C 0.28877 0.6858 0.10124 0.0
C888 C 0.22266 0.64327 0.06832 0.0
H889 H 0.18559 0.60151 0.01768 0.0
C890 C 0.19851 0.65454 0.08126 0.0
C891 C 0.21798 0.62532 0.04399 0.0
C892 C 0.24296 0.61513 0.02693 0.0
C893 C 0.16977 0.64712 0.07152 0.0
C894 C 0.16498 0.62669 0.04919 0.0
C895 C 0.18917 0.6167 0.0352 0.0
C896 C 0.13521 0.61401 0.04115 0.0
C897 C 0.14496 0.66137 0.08529 0.0
C898 C 0.11647 0.5994 0.06363 0.0
C899 C 0.0891 0.5858 0.05611 0.0
C900 C 0.08037 0.58569 0.02591 0.0
C901 C 0.09913 0.60013 1.00336 0.0
C902 C 0.12626 0.61437 1.01094 0.0
H903 H 0.15234 0.68437 0.09229 0.0
H904 H 0.12608 0.66412 0.06946 0.0
H905 H 0.13745 0.64642 0.1057 0.0
H906 H 0.12326 0.59777 0.087 0.0
H907 H 0.07523 0.57443 0.07391 0.0
H908 H 0.1828 0.35434 0.59856 0.0
H909 H 0.22582 0.3685 0.56697 0.0
H910 H 0.18595 0.45026 0.5281 0.0
H911 H 0.14325 0.43628 0.56055 0.0
H912 H 0.24018 0.38394 0.50715 0.0
H913 H 0.25711 0.48566 0.57214 0.0
H914 H 0.2296 0.45464 0.58197 0.0
H915 H 0.22351 0.48301 0.55075 0.0
C916 C 0.18285 0.37462 0.58236 0.0
C917 C 0.16002 0.39432 0.58179 0.0
C918 C 0.20742 0.38284 0.56447 0.0
C919 C 0.20938 0.41085 0.54575 0.0
C920 C 0.18515 0.42891 0.54289 0.0
H921 H 0.38096 0.49723 0.48167 0.0
H922 H 0.32753 0.48741 0.48427 0.0
C923 C 0.1607 0.42081 0.56106 0.0
C924 C 0.23811 0.42267 0.53269 0.0
H925 H 0.29472 0.47719 0.54028 0.0
C926 C 0.25191 0.40462 0.51396 0.0
C927 C 0.25346 0.44965 0.54171 0.0
C928 C 0.24036 0.4693 0.56292 0.0
C929 C 0.28105 0.41215 0.50501 0.0
C930 C 0.29674 0.43824 0.51521 0.0
C931 C 0.28247 0.45729 0.53244 0.0
C932 C 0.32889 0.44375 0.51186 0.0
C933 C 0.2952 0.39158 0.48555 0.0
C934 C 0.34721 0.42279 0.52702 0.0
C935 C 0.3776 0.42854 0.52612 0.0
C936 C 0.39051 0.45539 0.50985 0.0
C937 C 0.37198 0.47644 0.49461 0.0
C938 C 0.34141 0.47076 0.49581 0.0
H939 H 0.27853 0.37819 0.47279 0.0
H940 H 0.31055 0.40528 0.46948 0.0
H941 H 0.30791 0.37493 0.5 0.0
H942 H 0.33793 0.40222 0.54022 0.0
H943 H 0.39083 0.41206 0.53876 0.0
H944 H 0.82761 0.80817 0.85992 0.0
H945 H 0.85267 0.76248 0.87949 0.0
H946 H 0.9321 0.82005 0.8913 0.0
H947 H 0.9063 0.86605 0.87259 0.0
H948 H 0.89618 0.7324 0.86618 0.0
H949 H 0.92572 0.77758 0.97436 0.0
H950 H 0.90212 0.79703 0.94696 0.0
H951 H 0.94136 0.80141 0.94272 0.0
C952 C 0.85063 0.81095 0.86607 0.0
C953 C 0.86496 0.84076 0.8645 0.0
C954 C 0.86499 0.78476 0.87753 0.0
C955 C 0.89429 0.78739 0.88791 0.0
C956 C 0.90929 0.81707 0.88449 0.0
H957 H 0.99216 0.62094 0.93047 0.0
H958 H 0.97221 0.6682 0.9074 0.0
C959 C 0.89475 0.84343 0.87314 0.0
C960 C 0.9084 0.75912 0.90268 0.0
H961 H 0.94401 0.72982 0.96665 0.0
C962 C 0.90666 0.73202 0.88814 0.0
C963 C 0.92165 0.7578 0.93177 0.0
C964 C 0.92261 0.78487 0.95004 0.0
C965 C 0.91773 0.70426 0.90142 0.0
C966 C 0.93198 0.70326 0.93 0.0
C967 C 0.9335 0.73025 0.9447 0.0
C968 C 0.94519 0.67454 0.94496 0.0
C969 C 0.91299 0.67595 0.88491 0.0
C970 C 0.93806 0.6624 0.97462 0.0
C971 C 0.95002 0.63531 0.98827 0.0
C972 C 0.96949 0.61947 0.97267 0.0
C973 C 0.977 0.63203 0.94325 0.0
C974 C 0.96532 0.65916 0.92979 0.0
H975 H 0.89396 0.67761 0.8691 0.0
H976 H 0.93271 0.67377 0.87154 0.0
H977 H 0.90917 0.65468 0.9007 0.0
H978 H 0.92285 0.67365 0.98717 0.0
H979 H 0.94371 0.62659 1.01093 0.0
H980 H 0.37568 0.7337 0.17957 0.0
H981 H 0.40477 0.78355 0.17495 0.0
H982 H 0.45241 0.755 0.10201 0.0
H983 H 0.42411 0.70469 0.10768 0.0
H984 H 0.48663 0.79444 0.13691 0.0
H985 H 0.37962 0.84034 0.10152 0.0
H986 H 0.38045 0.82073 0.13883 0.0
H987 H 0.38454 0.79958 0.10715 0.0
C988 C 0.39322 0.73777 0.16346 0.0
C989 C 0.39752 0.71594 0.14359 0.0
C990 C 0.40957 0.76623 0.1606 0.0
C991 C 0.43008 0.77321 0.13755 0.0
C992 C 0.43647 0.75015 0.11974 0.0
H993 H 0.47208 0.94672 0.03325 0.0
H994 H 0.45554 0.89414 0.05325 0.0
C995 C 0.42031 0.72158 0.12286 0.0
C996 C 0.44181 0.80542 0.12919 0.0
H997 H 0.42065 0.87619 0.10105 0.0
C998 C 0.47228 0.81244 0.12928 0.0
C999 C 0.42295 0.8286 0.11862 0.0
C1000 C 0.39009 0.822 0.1162 0.0
C1001 C 0.48444 0.84211 0.11897 0.0
C1002 C 0.46551 0.86535 0.10882 0.0
C1003 C 0.43507 0.85834 0.109 0.0
C1004 C 0.47664 0.89685 0.0967 0.0
C1005 C 0.51738 0.84799 0.11804 0.0
C1006 C 0.49379 0.91587 0.11459 0.0
C1007 C 0.5034 0.94589 0.10317 0.0
C1008 C 0.49572 0.95751 0.07375 0.0
C1009 C 0.47833 0.93848 0.05599 0.0
C1010 C 0.4689 0.90842 0.06737 0.0
H1011 H 0.52851 0.82615 0.11935 0.0
H1012 H 0.52426 0.86262 0.09719 0.0
H1013 H 0.52499 0.86033 0.13747 0.0
H1014 H 0.49941 0.90767 0.13752 0.0
H1015 H 0.51663 0.96007 0.11749 0.0
H1016 H 0.13691 0.3084 0.63088 0.0
H1017 H 0.12027 0.26233 0.60662 0.0
H1018 H 0.07593 0.31921 0.53783 0.0
H1019 H 0.093 0.36549 0.56226 0.0
H1020 H 0.04074 0.26603 0.57025 0.0
H1021 H 0.1446 0.23394 0.52477 0.0
H1022 H 0.14764 0.24372 0.56268 0.0
H1023 H 0.13916 0.27273 0.53283 0.0
C1024 C 0.1241 0.31093 0.61026 0.0
C1025 C 0.11615 0.3401 0.59822 0.0
C1026 C 0.11466 0.28479 0.59642 0.0
C1027 C 0.09702 0.28746 0.57038 0.0
C1028 C 0.08966 0.31678 0.55783 0.0
H1029 H 1.01031 0.12066 0.5003 0.0
H1030 H 0.02138 0.17563 0.50635 0.0
C1031 C 0.09946 0.34305 0.57157 0.0
C1032 C 0.08481 0.25915 0.55792 0.0
H1033 H 0.10593 0.19377 0.53229 0.0
C1034 C 0.05476 0.25042 0.56128 0.0
C1035 C 0.10324 0.23903 0.54624 0.0
C1036 C 0.13543 0.24788 0.54112 0.0
C1037 C 0.04304 0.221 0.55525 0.0
C1038 C 0.06189 0.20017 0.54527 0.0
C1039 C 0.09156 0.20973 0.54016 0.0
C1040 C 0.05235 0.16734 0.54305 0.0
C1041 C 1.0111 0.21169 0.56134 0.0
C1042 C 0.06571 0.14461 0.56195 0.0
C1043 C 0.05959 0.1135 0.55848 0.0
C1044 C 0.0399 0.10437 0.53601 0.0
C1045 C 0.02538 0.12704 0.51796 0.0
C1046 C 0.0317 0.1584 0.52136 0.0
H1047 H 1.00046 0.22903 0.57292 0.0
H1048 H 0.99926 0.20911 0.53977 0.0
H1049 H 1.00871 0.18907 0.57532 0.0
H1050 H 0.08158 0.15103 0.57893 0.0
H1051 H 0.07105 0.09661 0.57283 0.0
H1052 H 0.67174 0.24248 0.41855 0.0
H1053 H 0.66005 0.29606 0.42095 0.0
H1054 H 0.57556 0.26343 0.45794 0.0
H1055 H 0.58767 0.20979 0.45606 0.0
H1056 H 0.61263 0.32606 0.3929 0.0
H1057 H 0.60997 0.32307 0.5169 0.0
H1058 H 0.6265 0.29414 0.49839 0.0
H1059 H 0.58733 0.29255 0.50232 0.0
C1060 C 0.65092 0.24693 0.42761 0.0
C1061 C 0.63067 0.22237 0.43755 0.0
C1062 C 0.64418 0.27737 0.42877 0.0
C1063 C 0.61714 0.2836 0.44001 0.0
C1064 C 0.59677 0.25902 0.44973 0.0
H1065 H 0.51325 0.43333 0.44905 0.0
H1066 H 0.53507 0.38609 0.43976 0.0
C1067 C 0.60354 0.22856 0.44855 0.0
C1068 C 0.6099 0.31583 0.44093 0.0
H1069 H 0.58988 0.36615 0.48845 0.0
C1070 C 0.60801 0.335 0.41379 0.0
C1071 C 0.60418 0.32742 0.46828 0.0
C1072 C 0.60735 0.30835 0.49817 0.0
C1073 C 0.59923 0.36513 0.41326 0.0
C1074 C 0.59236 0.37612 0.44046 0.0
C1075 C 0.59521 0.35741 0.46765 0.0
C1076 C 0.57977 0.406 0.44118 0.0
C1077 C 0.5964 0.38483 0.38372 0.0
C1078 C 0.59786 0.4329 0.44423 0.0
C1079 C 0.58547 0.4601 0.44945 0.0
C1080 C 0.55488 0.46044 0.452 0.0
C1081 C 0.53689 0.43376 0.44734 0.0
C1082 C 0.54926 0.40677 0.44201 0.0
H1083 H 0.60384 0.3734 0.36458 0.0
H1084 H 0.57312 0.38995 0.37975 0.0
H1085 H 0.6095 0.4072 0.38454 0.0
H1086 H 0.62151 0.43248 0.44378 0.0
H1087 H 0.59985 0.48026 0.45307 0.0
loop_
_geom_bond_atom_site_label_1
_geom_bond_atom_site_label_2
_geom_bond_distance
_geom_bond_site_symmetry_2
_ccdc_geom_bond_type
C0 N1 1.317 . S
C0 N2 1.348 . S
C0 C3 1.485 . S
N1 C0 1.317 . S
N1 N5 1.370 . S
N2 C0 1.348 . S
N2 C4 1.346 . S
C3 C0 1.485 . S
C3 H7 0.960 . S
C3 H8 0.961 . S
C3 H9 0.960 . S
C4 N2 1.346 . S
C4 N5 1.307 . S
C4 C6 1.486 . S
N5 N1 1.370 . S
N5 C4 1.307 . S
C6 C4 1.486 . S
C6 H10 0.960 . S
C6 H11 0.960 . S
C6 H12 0.959 . S
H7 C3 0.960 . S
H8 C3 0.961 . S
H9 C3 0.960 . S
H10 C6 0.960 . S
H11 C6 0.960 . S
H12 C6 0.959 . S
C13 N14 1.317 . S
C13 N15 1.348 . S
C13 C16 1.485 . S
N14 C13 1.317 . S
N14 N18 1.370 . S
N15 C13 1.348 . S
N15 C17 1.346 . S
C16 C13 1.485 . S
C16 H20 0.960 . S
C16 H21 0.961 . S
C16 H22 0.960 . S
C17 N15 1.346 . S
C17 N18 1.307 . S
C17 C19 1.486 . S
N18 N14 1.370 . S
N18 C17 1.307 . S
C19 C17 1.486 . S
C19 H23 0.960 . S
C19 H24 0.960 . S
C19 H25 0.959 . S
H20 C16 0.960 . S
H21 C16 0.961 . S
H22 C16 0.960 . S
H23 C19 0.960 . S
H24 C19 0.960 . S
H25 C19 0.959 . S
C26 N27 1.317 . S
C26 N28 1.348 . S
C26 C29 1.485 . S
N27 C26 1.317 . S
N27 N31 1.370 . S
N28 C26 1.348 . S
N28 C30 1.346 . S
C29 C26 1.485 . S
C29 H33 0.960 . S
C29 H34 0.961 . S
C29 H35 0.960 . S
C30 N28 1.346 . S
C30 N31 1.307 . S
C30 C32 1.486 . S
N31 N27 1.370 . S
N31 C30 1.307 . S
C32 C30 1.486 . S
C32 H36 0.960 . S
C32 H37 0.960 . S
C32 H38 0.959 . S
H33 C29 0.960 . S
H34 C29 0.961 . S
H35 C29 0.960 . S
H36 C32 0.960 . S
H37 C32 0.960 . S
H38 C32 0.959 . S
C39 N40 1.317 . S
C39 N41 1.348 . S
C39 C42 1.485 . S
N40 C39 1.317 . S
N40 N44 1.370 . S
N41 C39 1.348 . S
N41 C43 1.346 . S
C42 C39 1.485 . S
C42 H46 0.960 . S
C42 H47 0.961 . S
C42 H48 0.960 . S
C43 N41 1.346 . S
C43 N44 1.307 . S
C43 C45 1.486 . S
N44 N40 1.370 . S
N44 C43 1.307 . S
C45 C43 1.486 . S
C45 H49 0.960 . S
C45 H50 0.960 . S
C45 H51 0.959 . S
H46 C42 0.960 . S
H47 C42 0.961 . S
H48 C42 0.960 . S
H49 C45 0.960 . S
H50 C45 0.960 . S
H51 C45 0.959 . S
C52 N53 1.317 . S
C52 N54 1.348 . S
C52 C55 1.485 . S
N53 C52 1.317 . S
N53 N57 1.370 . S
N54 C52 1.348 . S
N54 C56 1.346 . S
C55 C52 1.485 . S
C55 H59 0.960 . S
C55 H60 0.961 . S
C55 H61 0.960 . S
C56 N54 1.346 . S
C56 N57 1.307 . S
C56 C58 1.486 . S
N57 N53 1.370 . S
N57 C56 1.307 . S
C58 C56 1.486 . S
C58 H62 0.960 . S
C58 H63 0.960 . S
C58 H64 0.959 . S
H59 C55 0.960 . S
H60 C55 0.961 . S
H61 C55 0.960 . S
H62 C58 0.960 . S
H63 C58 0.960 . S
H64 C58 0.959 . S
C65 N66 1.317 . S
C65 N67 1.348 . S
C65 C68 1.485 . S
N66 C65 1.317 . S
N66 N70 1.370 . S
N67 C65 1.348 . S
N67 C69 1.346 . S
C68 C65 1.485 . S
C68 H72 0.960 . S
C68 H73 0.961 . S
C68 H74 0.960 . S
C69 N67 1.346 . S
C69 N70 1.307 . S
C69 C71 1.486 . S
N70 N66 1.370 . S
N70 C69 1.307 . S
C71 C69 1.486 . S
C71 H75 0.960 . S
C71 H76 0.960 . S
C71 H77 0.959 . S
H72 C68 0.960 . S
H73 C68 0.961 . S
H74 C68 0.960 . S
H75 C71 0.960 . S
H76 C71 0.960 . S
H77 C71 0.959 . S
C78 N79 1.317 . S
C78 N80 1.348 . S
C78 C81 1.485 . S
N79 C78 1.317 . S
N79 N83 1.370 . S
N80 C78 1.348 . S
N80 C82 1.346 . S
C81 C78 1.485 . S
C81 H85 0.960 . S
C81 H86 0.961 . S
C81 H87 0.960 . S
C82 N80 1.346 . S
C82 N83 1.307 . S
C82 C84 1.486 . S
N83 N79 1.370 . S
N83 C82 1.307 . S
C84 C82 1.486 . S
C84 H88 0.960 . S
C84 H89 0.960 . S
C84 H90 0.959 . S
H85 C81 0.960 . S
H86 C81 0.961 . S
H87 C81 0.960 . S
H88 C84 0.960 . S
H89 C84 0.960 . S
H90 C84 0.959 . S
C91 N92 1.317 . S
C91 N93 1.348 . S
C91 C94 1.485 . S
N92 C91 1.317 . S
N92 N96 1.370 . S
N93 C91 1.348 . S
N93 C95 1.346 . S
C94 C91 1.485 . S
C94 H98 0.960 . S
C94 H99 0.961 . S
C94 H100 0.960 . S
C95 N93 1.346 . S
C95 N96 1.307 . S
C95 C97 1.486 . S
N96 N92 1.370 . S
N96 C95 1.307 . S
C97 C95 1.486 . S
C97 H101 0.960 . S
C97 H102 0.960 . S
C97 H103 0.959 . S
H98 C94 0.960 . S
H99 C94 0.961 . S
H100 C94 0.960 . S
H101 C97 0.960 . S
H102 C97 0.960 . S
H103 C97 0.959 . S
Co104 N109 2.057 1_455 S
Co104 O121 2.021 . S
Co104 O124 2.062 . S
Co104 O128 2.117 1_545 S
Co104 O129 2.020 . S
C105 O125 1.259 . S
C105 O128 1.258 . S
Co106 N115 2.057 1_545 S
Co106 O122 2.117 . S
Co106 O123 2.020 . S
Co106 O125 2.021 1_545 S
Co106 O130 2.062 1_545 S
C107 N109 1.316 . S
C107 N110 1.347 . S
C107 H112 0.931 . S
C108 N109 1.375 . S
C108 C111 1.350 . S
C108 H113 0.930 1_545 S
N109 Co104 2.057 1_655 S
N109 C107 1.316 . S
N109 C108 1.375 . S
N110 C107 1.347 . S
N110 C111 1.373 . S
C111 C108 1.350 . S
C111 N110 1.373 . S
C111 H132 0.931 . S
H112 C107 0.931 . S
H113 C108 0.930 1_565 S
C114 O121 1.259 . S
C114 O122 1.258 . S
N115 Co106 2.057 1_565 S
N115 C116 1.316 . S
N115 C117 1.375 1_565 S
C116 N115 1.316 . S
C116 N118 1.347 . S
C116 H127 0.931 . S
C117 N115 1.375 1_545 S
C117 C119 1.350 . S
C117 H126 0.930 . S
N118 C116 1.347 . S
N118 C119 1.373 1_565 S
C119 C117 1.350 . S
C119 N118 1.373 1_545 S
C119 H133 0.931 . S
C120 O123 1.256 . S
C120 O124 1.255 . S
O121 Co104 2.021 . S
O121 C114 1.259 . S
O122 Co106 2.117 . S
O122 C114 1.258 . S
O123 Co106 2.020 . S
O123 C120 1.256 . S
O124 Co104 2.062 . S
O124 C120 1.255 . S
O125 C105 1.259 . S
O125 Co106 2.021 1_565 S
H126 C117 0.930 . S
H127 C116 0.931 . S
O128 Co104 2.117 1_565 S
O128 C105 1.258 . S
O129 Co104 2.020 . S
O129 C131 1.256 1_545 S
O130 Co106 2.062 1_565 S
O130 C131 1.255 . S
C131 O129 1.256 1_565 S
C131 O130 1.255 . S
H132 C111 0.931 . S
H133 C119 0.931 . S
Co134 N139 2.057 1_545 S
Co134 O151 2.021 . S
Co134 O154 2.062 . S
Co134 O158 2.117 1_546 S
Co134 O159 2.020 1_556 S
C135 O155 1.259 . S
C135 O158 1.258 . S
Co136 N145 2.057 . S
Co136 O152 2.117 . S
Co136 O153 2.020 . S
Co136 O155 2.021 1_545 S
Co136 O160 2.062 . S
C137 N139 1.316 1_545 S
C137 N140 1.347 1_545 S
C137 H142 0.931 . S
C138 N139 1.375 . S
C138 C141 1.350 . S
C138 H143 0.930 . S
N139 Co134 2.057 1_565 S
N139 C137 1.316 1_565 S
N139 C138 1.375 . S
N140 C137 1.347 1_565 S
N140 C141 1.373 . S
C141 C138 1.350 . S
C141 N140 1.373 . S
C141 H162 0.931 . S
H142 C137 0.931 . S
H143 C138 0.930 . S
C144 O151 1.259 1_554 S
C144 O152 1.258 . S
N145 Co136 2.057 . S
N145 C146 1.316 . S
N145 C147 1.375 . S
C146 N145 1.316 . S
C146 N148 1.347 . S
C146 H157 0.931 . S
C147 N145 1.375 . S
C147 C149 1.350 . S
C147 H156 0.930 . S
N148 C146 1.347 . S
N148 C149 1.373 . S
C149 C147 1.350 . S
C149 N148 1.373 . S
C149 H163 0.931 . S
C150 O153 1.256 . S
C150 O154 1.255 1_554 S
O151 Co134 2.021 . S
O151 C144 1.259 1_556 S
O152 Co136 2.117 . S
O152 C144 1.258 . S
O153 Co136 2.020 . S
O153 C150 1.256 . S
O154 Co134 2.062 . S
O154 C150 1.255 1_556 S
O155 C135 1.259 . S
O155 Co136 2.021 1_565 S
H156 C147 0.930 . S
H157 C146 0.931 . S
O158 Co134 2.117 1_564 S
O158 C135 1.258 . S
O159 Co134 2.020 1_554 S
O159 C161 1.256 . S
O160 Co136 2.062 . S
O160 C161 1.255 . S
C161 O159 1.256 . S
C161 O160 1.255 . S
H162 C141 0.931 . S
H163 C149 0.931 . S
Co164 N169 2.057 . S
Co164 O181 2.021 . S
Co164 O184 2.062 . S
Co164 O188 2.117 . S
Co164 O189 2.020 . S
C165 O185 1.259 . S
C165 O188 1.258 . S
Co166 N175 2.057 . S
Co166 O182 2.117 . S
Co166 O183 2.020 . S
Co166 O185 2.021 . S
Co166 O190 2.062 . S
C167 N169 1.316 . S
C167 N170 1.347 . S
C167 H172 0.931 . S
C168 N169 1.375 . S
C168 C171 1.350 . S
C168 H173 0.930 . S
N169 Co164 2.057 . S
N169 C167 1.316 . S
N169 C168 1.375 . S
N170 C167 1.347 . S
N170 C171 1.373 . S
C171 C168 1.350 . S
C171 N170 1.373 . S
C171 H192 0.931 . S
H172 C167 0.931 . S
H173 C168 0.930 . S
C174 O181 1.259 . S
C174 O182 1.258 . S
N175 Co166 2.057 . S
N175 C176 1.316 . S
N175 C177 1.375 . S
C176 N175 1.316 . S
C176 N178 1.347 . S
C176 H187 0.931 . S
C177 N175 1.375 . S
C177 C179 1.350 . S
C177 H186 0.930 . S
N178 C176 1.347 . S
N178 C179 1.373 . S
C179 C177 1.350 . S
C179 N178 1.373 . S
C179 H193 0.931 . S
C180 O183 1.256 . S
C180 O184 1.255 . S
O181 Co164 2.021 . S
O181 C174 1.259 . S
O182 Co166 2.117 . S
O182 C174 1.258 . S
O183 Co166 2.020 . S
O183 C180 1.256 . S
O184 Co164 2.062 . S
O184 C180 1.255 . S
O185 C165 1.259 . S
O185 Co166 2.021 . S
H186 C177 0.930 . S
H187 C176 0.931 . S
O188 Co164 2.117 . S
O188 C165 1.258 . S
O189 Co164 2.020 . S
O189 C191 1.256 . S
O190 Co166 2.062 . S
O190 C191 1.255 . S
C191 O189 1.256 . S
C191 O190 1.255 . S
H192 C171 0.931 . S
H193 C179 0.931 . S
Co194 N199 2.057 . S
Co194 O211 2.021 . S
Co194 O214 2.062 . S
Co194 O218 2.117 1_455 S
Co194 O219 2.020 1_455 S
C195 O215 1.259 1_556 S
C195 O218 1.258 . S
Co196 N205 2.057 . S
Co196 O212 2.117 1_655 S
Co196 O213 2.020 1_655 S
Co196 O215 2.021 . S
Co196 O220 2.062 . S
C197 N199 1.316 . S
C197 N200 1.347 . S
C197 H202 0.931 . S
C198 N199 1.375 1_655 S
C198 C201 1.350 1_655 S
C198 H203 0.930 . S
N199 Co194 2.057 . S
N199 C197 1.316 . S
N199 C198 1.375 1_455 S
N200 C197 1.347 . S
N200 C201 1.373 . S
C201 C198 1.350 1_455 S
C201 N200 1.373 . S
C201 H222 0.931 1_455 S
H202 C197 0.931 . S
H203 C198 0.930 . S
C204 O211 1.259 1_554 S
C204 O212 1.258 . S
N205 Co196 2.057 . S
N205 C206 1.316 . S
N205 C207 1.375 1_655 S
C206 N205 1.316 . S
C206 N208 1.347 . S
C206 H217 0.931 . S
C207 N205 1.375 1_455 S
C207 C209 1.350 1_455 S
C207 H216 0.930 . S
N208 C206 1.347 . S
N208 C209 1.373 . S
C209 C207 1.350 1_655 S
C209 N208 1.373 . S
C209 H223 0.931 1_655 S
C210 O213 1.256 . S
C210 O214 1.255 1_554 S
O211 Co194 2.021 . S
O211 C204 1.259 1_556 S
O212 Co196 2.117 1_455 S
O212 C204 1.258 . S
O213 Co196 2.020 1_455 S
O213 C210 1.256 . S
O214 Co194 2.062 . S
O214 C210 1.255 1_556 S
O215 C195 1.259 1_554 S
O215 Co196 2.021 . S
H216 C207 0.930 . S
H217 C206 0.931 . S
O218 Co194 2.117 1_655 S
O218 C195 1.258 . S
O219 Co194 2.020 1_655 S
O219 C221 1.256 . S
O220 Co196 2.062 . S
O220 C221 1.255 1_554 S
C221 O219 1.256 . S
C221 O220 1.255 1_556 S
H222 C201 0.931 1_655 S
H223 C209 0.931 1_455 S
H224 C232 0.929 . S
H225 C234 0.930 . S
H226 C236 0.930 . S
H227 C239 0.929 . S
H228 C242 0.930 . S
H229 C244 0.960 . S
H230 C244 0.960 . S
H231 C244 0.960 . S
C232 H224 0.929 . S
C232 C233 1.377 . S
C232 C234 1.384 . S
C233 C232 1.377 . S
C233 C239 1.390 . S
C234 H225 0.930 . S
C234 C232 1.384 . S
C234 C235 1.372 . S
C235 C234 1.372 . S
C235 C236 1.400 . S
C235 C240 1.490 . S
C236 H226 0.930 . S
C236 C235 1.400 . S
C236 C239 1.386 . S
H237 C253 0.930 . S
H238 C254 0.931 . S
C239 H227 0.929 . S
C239 C233 1.390 . S
C239 C236 1.386 . S
C240 C235 1.490 . S
C240 C242 1.395 . S
C240 C243 1.403 . S
H241 C247 0.930 . S
C242 H228 0.930 . S
C242 C240 1.395 . S
C242 C245 1.403 . S
C243 C240 1.403 . S
C243 C244 1.524 . S
C243 C247 1.400 . S
C244 H229 0.960 . S
C244 H230 0.960 . S
C244 H231 0.960 . S
C244 C243 1.524 . S
C245 C242 1.403 . S
C245 C246 1.392 . S
C245 C249 1.495 . S
C246 C245 1.392 . S
C246 C247 1.385 . S
C246 C248 1.478 . S
C247 H241 0.930 . S
C247 C243 1.400 . S
C247 C246 1.385 . S
C248 C246 1.478 . S
C248 C250 1.381 . S
C248 C254 1.383 . S
C249 C245 1.495 . S
C249 H255 0.959 . S
C249 H256 0.961 . S
C249 H257 0.960 . S
C250 C248 1.381 . S
C250 C251 1.394 . S
C250 H258 0.930 . S
C251 C250 1.394 . S
C251 C252 1.383 . S
C251 H259 0.929 . S
C252 C251 1.383 . S
C252 C253 1.377 . S
C253 H237 0.930 . S
C253 C252 1.377 . S
C253 C254 1.379 . S
C254 H238 0.931 . S
C254 C248 1.383 . S
C254 C253 1.379 . S
H255 C249 0.959 . S
H256 C249 0.961 . S
H257 C249 0.960 . S
H258 C250 0.930 . S
H259 C251 0.929 . S
H260 C268 0.929 . S
H261 C270 0.930 . S
H262 C272 0.930 . S
H263 C275 0.929 . S
H264 C278 0.930 . S
H265 C280 0.960 . S
H266 C280 0.960 . S
H267 C280 0.960 . S
C268 H260 0.929 . S
C268 C269 1.377 . S
C268 C270 1.384 . S
C269 C268 1.377 . S
C269 C275 1.390 . S
C270 H261 0.930 . S
C270 C268 1.384 . S
C270 C271 1.372 . S
C271 C270 1.372 . S
C271 C272 1.400 . S
C271 C276 1.490 . S
C272 H262 0.930 . S
C272 C271 1.400 . S
C272 C275 1.386 . S
H273 C289 0.930 . S
H274 C290 0.931 . S
C275 H263 0.929 . S
C275 C269 1.390 . S
C275 C272 1.386 . S
C276 C271 1.490 . S
C276 C278 1.395 . S
C276 C279 1.403 . S
H277 C283 0.930 . S
C278 H264 0.930 . S
C278 C276 1.395 . S
C278 C281 1.403 . S
C279 C276 1.403 . S
C279 C280 1.524 . S
C279 C283 1.400 . S
C280 H265 0.960 . S
C280 H266 0.960 . S
C280 H267 0.960 . S
C280 C279 1.524 . S
C281 C278 1.403 . S
C281 C282 1.392 . S
C281 C285 1.495 . S
C282 C281 1.392 . S
C282 C283 1.385 . S
C282 C284 1.478 . S
C283 H277 0.930 . S
C283 C279 1.400 . S
C283 C282 1.385 . S
C284 C282 1.478 . S
C284 C286 1.381 . S
C284 C290 1.383 . S
C285 C281 1.495 . S
C285 H291 0.959 . S
C285 H292 0.961 . S
C285 H293 0.960 . S
C286 C284 1.381 . S
C286 C287 1.394 . S
C286 H294 0.930 . S
C287 C286 1.394 . S
C287 C288 1.383 . S
C287 H295 0.929 1_565 S
C288 C287 1.383 . S
C288 C289 1.377 . S
C289 H273 0.930 . S
C289 C288 1.377 . S
C289 C290 1.379 . S
C290 H274 0.931 . S
C290 C284 1.383 . S
C290 C289 1.379 . S
H291 C285 0.959 . S
H292 C285 0.961 . S
H293 C285 0.960 . S
H294 C286 0.930 . S
H295 C287 0.929 1_545 S
H296 C304 0.929 . S
H297 C306 0.930 . S
H298 C308 0.930 . S
H299 C311 0.929 . S
H300 C314 0.930 . S
H301 C316 0.960 . S
H302 C316 0.960 . S
H303 C316 0.960 . S
C304 H296 0.929 . S
C304 C305 1.377 . S
C304 C306 1.384 . S
C305 C304 1.377 . S
C305 C311 1.390 . S
C306 H297 0.930 . S
C306 C304 1.384 . S
C306 C307 1.372 . S
C307 C306 1.372 . S
C307 C308 1.400 . S
C307 C312 1.490 . S
C308 H298 0.930 . S
C308 C307 1.400 . S
C308 C311 1.386 . S
H309 C325 0.930 . S
H310 C326 0.931 . S
C311 H299 0.929 . S
C311 C305 1.390 . S
C311 C308 1.386 . S
C312 C307 1.490 . S
C312 C314 1.395 . S
C312 C315 1.403 . S
H313 C319 0.930 . S
C314 H300 0.930 . S
C314 C312 1.395 . S
C314 C317 1.403 . S
C315 C312 1.403 . S
C315 C316 1.524 . S
C315 C319 1.400 . S
C316 H301 0.960 . S
C316 H302 0.960 . S
C316 H303 0.960 . S
C316 C315 1.524 . S
C317 C314 1.403 . S
C317 C318 1.392 . S
C317 C321 1.495 . S
C318 C317 1.392 . S
C318 C319 1.385 . S
C318 C320 1.478 . S
C319 H313 0.930 . S
C319 C315 1.400 . S
C319 C318 1.385 . S
C320 C318 1.478 . S
C320 C322 1.381 . S
C320 C326 1.383 . S
C321 C317 1.495 . S
C321 H327 0.959 . S
C321 H328 0.961 . S
C321 H329 0.960 . S
C322 C320 1.381 . S
C322 C323 1.394 . S
C322 H330 0.930 . S
C323 C322 1.394 . S
C323 C324 1.383 . S
C323 H331 0.929 . S
C324 C323 1.383 . S
C324 C325 1.377 . S
C325 H309 0.930 . S
C325 C324 1.377 . S
C325 C326 1.379 . S
C326 H310 0.931 . S
C326 C320 1.383 . S
C326 C325 1.379 . S
H327 C321 0.959 . S
H328 C321 0.961 . S
H329 C321 0.960 . S
H330 C322 0.930 . S
H331 C323 0.929 . S
H332 C340 0.929 . S
H333 C342 0.930 . S
H334 C344 0.930 . S
H335 C347 0.929 . S
H336 C350 0.930 . S
H337 C352 0.960 . S
H338 C352 0.960 . S
H339 C352 0.960 . S
C340 H332 0.929 . S
C340 C341 1.377 . S
C340 C342 1.384 . S
C341 C340 1.377 . S
C341 C347 1.390 . S
C342 H333 0.930 . S
C342 C340 1.384 . S
C342 C343 1.372 . S
C343 C342 1.372 . S
C343 C344 1.400 . S
C343 C348 1.490 . S
C344 H334 0.930 . S
C344 C343 1.400 . S
C344 C347 1.386 . S
H345 C361 0.930 . S
H346 C362 0.931 . S
C347 H335 0.929 . S
C347 C341 1.390 . S
C347 C344 1.386 . S
C348 C343 1.490 . S
C348 C350 1.395 . S
C348 C351 1.403 . S
H349 C355 0.930 . S
C350 H336 0.930 . S
C350 C348 1.395 . S
C350 C353 1.403 . S
C351 C348 1.403 . S
C351 C352 1.524 . S
C351 C355 1.400 . S
C352 H337 0.960 . S
C352 H338 0.960 . S
C352 H339 0.960 . S
C352 C351 1.524 . S
C353 C350 1.403 . S
C353 C354 1.392 . S
C353 C357 1.495 . S
C354 C353 1.392 . S
C354 C355 1.385 . S
C354 C356 1.478 . S
C355 H349 0.930 . S
C355 C351 1.400 . S
C355 C354 1.385 . S
C356 C354 1.478 . S
C356 C358 1.381 . S
C356 C362 1.383 . S
C357 C353 1.495 . S
C357 H363 0.966 . S
C357 H364 0.961 1_655 S
C357 H365 0.960 . S
C358 C356 1.381 . S
C358 C359 1.394 . S
C358 H366 0.930 . S
C359 C358 1.394 . S
C359 C360 1.383 . S
C359 H367 0.929 . S
C360 C359 1.383 . S
C360 C361 1.377 . S
C361 H345 0.930 . S
C361 C360 1.377 . S
C361 C362 1.379 . S
C362 H346 0.931 . S
C362 C356 1.383 . S
C362 C361 1.379 . S
H363 C357 0.966 . S
H364 C357 0.961 1_455 S
H365 C357 0.960 . S
H366 C358 0.930 . S
H367 C359 0.929 . S
H368 C376 0.929 . S
H369 C378 0.930 . S
H370 C380 0.930 . S
H371 C383 0.929 . S
H372 C386 0.930 . S
H373 C388 0.960 . S
H374 C388 0.960 . S
H375 C388 0.960 . S
C376 H368 0.929 . S
C376 C377 1.377 . S
C376 C378 1.384 . S
C377 C376 1.377 . S
C377 C383 1.390 . S
C378 H369 0.930 . S
C378 C376 1.384 . S
C378 C379 1.372 . S
C379 C378 1.372 . S
C379 C380 1.400 . S
C379 C384 1.490 . S
C380 H370 0.930 . S
C380 C379 1.400 . S
C380 C383 1.386 . S
H381 C397 0.930 . S
H382 C398 0.931 . S
C383 H371 0.929 . S
C383 C377 1.390 . S
C383 C380 1.386 . S
C384 C379 1.490 . S
C384 C386 1.395 . S
C384 C387 1.403 . S
H385 C391 0.930 . S
C386 H372 0.930 . S
C386 C384 1.395 . S
C386 C389 1.403 . S
C387 C384 1.403 . S
C387 C388 1.524 . S
C387 C391 1.400 . S
C388 H373 0.960 . S
C388 H374 0.960 . S
C388 H375 0.960 . S
C388 C387 1.524 . S
C389 C386 1.403 . S
C389 C390 1.392 . S
C389 C393 1.495 . S
C390 C389 1.392 . S
C390 C391 1.385 . S
C390 C392 1.478 . S
C391 H385 0.930 . S
C391 C387 1.400 . S
C391 C390 1.385 . S
C392 C390 1.478 . S
C392 C394 1.381 . S
C392 C398 1.383 . S
C393 C389 1.495 . S
C393 H399 0.959 . S
C393 H400 0.961 . S
C393 H401 0.960 . S
C394 C392 1.381 . S
C394 C395 1.394 . S
C394 H402 0.930 . S
C395 C394 1.394 . S
C395 C396 1.383 . S
C395 H403 0.929 . S
C396 C395 1.383 . S
C396 C397 1.377 . S
C397 H381 0.930 . S
C397 C396 1.377 . S
C397 C398 1.379 . S
C398 H382 0.931 . S
C398 C392 1.383 . S
C398 C397 1.379 . S
H399 C393 0.959 . S
H400 C393 0.961 . S
H401 C393 0.960 . S
H402 C394 0.930 . S
H403 C395 0.929 . S
H404 C412 0.929 . S
H405 C414 0.930 . S
H406 C416 0.930 . S
H407 C419 0.929 . S
H408 C422 0.930 . S
H409 C424 0.960 . S
H410 C424 0.960 . S
H411 C424 0.960 . S
C412 H404 0.929 . S
C412 C413 1.377 . S
C412 C414 1.384 . S
C413 C412 1.377 . S
C413 C419 1.390 . S
C414 H405 0.930 . S
C414 C412 1.384 . S
C414 C415 1.372 . S
C415 C414 1.372 . S
C415 C416 1.400 . S
C415 C420 1.490 . S
C416 H406 0.930 . S
C416 C415 1.400 . S
C416 C419 1.386 . S
H417 C433 0.930 . S
H418 C434 0.931 . S
C419 H407 0.929 . S
C419 C413 1.390 . S
C419 C416 1.386 . S
C420 C415 1.490 . S
C420 C422 1.395 . S
C420 C423 1.403 . S
H421 C427 0.930 . S
C422 H408 0.930 . S
C422 C420 1.395 . S
C422 C425 1.403 . S
C423 C420 1.403 . S
C423 C424 1.524 . S
C423 C427 1.400 . S
C424 H409 0.960 . S
C424 H410 0.960 . S
C424 H411 0.960 . S
C424 C423 1.524 . S
C425 C422 1.403 . S
C425 C426 1.392 . S
C425 C429 1.495 . S
C426 C425 1.392 . S
C426 C427 1.385 . S
C426 C428 1.478 . S
C427 H421 0.930 . S
C427 C423 1.400 . S
C427 C426 1.385 . S
C428 C426 1.478 . S
C428 C430 1.381 . S
C428 C434 1.383 . S
C429 C425 1.495 . S
C429 H435 0.959 . S
C429 H436 0.948 1_565 S
C429 H437 0.960 . S
C430 C428 1.381 . S
C430 C431 1.394 . S
C430 H438 0.930 . S
C431 C430 1.394 . S
C431 C432 1.383 . S
C431 H439 0.929 . S
C432 C431 1.383 . S
C432 C433 1.377 . S
C433 H417 0.930 . S
C433 C432 1.377 . S
C433 C434 1.379 . S
C434 H418 0.931 . S
C434 C428 1.383 . S
C434 C433 1.379 . S
H435 C429 0.959 . S
H436 C429 0.948 1_545 S
H437 C429 0.960 . S
H438 C430 0.930 . S
H439 C431 0.929 . S
H440 C448 0.929 . S
H441 C450 0.930 . S
H442 C452 0.930 . S
H443 C455 0.929 . S
H444 C458 0.930 . S
H445 C460 0.960 . S
H446 C460 0.960 . S
H447 C460 0.960 . S
C448 H440 0.929 . S
C448 C449 1.377 . S
C448 C450 1.384 . S
C449 C448 1.377 . S
C449 C455 1.390 . S
C450 H441 0.930 . S
C450 C448 1.384 . S
C450 C451 1.372 . S
C451 C450 1.372 . S
C451 C452 1.400 . S
C451 C456 1.490 . S
C452 H442 0.930 . S
C452 C451 1.400 . S
C452 C455 1.386 . S
H453 C469 0.961 . S
H454 C470 0.931 . S
C455 H443 0.929 . S
C455 C449 1.390 . S
C455 C452 1.386 . S
C456 C451 1.490 . S
C456 C458 1.395 . S
C456 C459 1.403 . S
H457 C463 0.930 . S
C458 H444 0.930 . S
C458 C456 1.395 . S
C458 C461 1.403 . S
C459 C456 1.403 . S
C459 C460 1.524 . S
C459 C463 1.400 . S
C460 H445 0.960 . S
C460 H446 0.960 . S
C460 H447 0.960 . S
C460 C459 1.524 . S
C461 C458 1.403 . S
C461 C462 1.392 . S
C461 C465 1.495 . S
C462 C461 1.392 . S
C462 C463 1.385 . S
C462 C464 1.478 . S
C463 H457 0.930 . S
C463 C459 1.400 . S
C463 C462 1.385 . S
C464 C462 1.478 . S
C464 C466 1.381 . S
C464 C470 1.383 . S
C465 C461 1.495 . S
C465 H471 0.959 . S
C465 H472 0.961 . S
C465 H473 0.960 . S
C466 C464 1.381 . S
C466 C467 1.394 . S
C466 H474 0.930 . S
C467 C466 1.394 . S
C467 C468 1.383 . S
C467 H475 0.929 . S
C468 C467 1.383 . S
C468 C469 1.377 . S
C469 H453 0.961 . S
C469 C468 1.377 . S
C469 C470 1.379 . S
C470 H454 0.931 . S
C470 C464 1.383 . S
C470 C469 1.379 . S
H471 C465 0.959 . S
H472 C465 0.961 . S
H473 C465 0.960 . S
H474 C466 0.930 . S
H475 C467 0.929 . S
H476 C484 0.929 . S
H477 C486 0.930 . S
H478 C488 0.930 . S
H479 C491 0.929 . S
H480 C494 0.930 . S
H481 C496 0.960 . S
H482 C496 0.960 . S
H483 C496 0.960 . S
C484 H476 0.929 . S
C484 C485 1.377 . S
C484 C486 1.384 . S
C485 C484 1.377 . S
C485 C491 1.390 . S
C486 H477 0.930 . S
C486 C484 1.384 . S
C486 C487 1.372 . S
C487 C486 1.372 . S
C487 C488 1.400 . S
C487 C492 1.490 . S
C488 H478 0.930 . S
C488 C487 1.400 . S
C488 C491 1.386 . S
H489 C505 0.930 . S
H490 C506 0.931 . S
C491 H479 0.929 . S
C491 C485 1.390 . S
C491 C488 1.386 . S
C492 C487 1.490 . S
C492 C494 1.395 . S
C492 C495 1.403 . S
H493 C499 0.930 . S
C494 H480 0.930 . S
C494 C492 1.395 . S
C494 C497 1.403 . S
C495 C492 1.403 . S
C495 C496 1.524 . S
C495 C499 1.400 . S
C496 H481 0.960 . S
C496 H482 0.960 . S
C496 H483 0.960 . S
C496 C495 1.524 . S
C497 C494 1.403 . S
C497 C498 1.392 . S
C497 C501 1.495 . S
C498 C497 1.392 . S
C498 C499 1.385 . S
C498 C500 1.478 . S
C499 H493 0.930 . S
C499 C495 1.400 . S
C499 C498 1.385 . S
C500 C498 1.478 . S
C500 C502 1.381 . S
C500 C506 1.383 . S
C501 C497 1.495 . S
C501 H507 0.959 . S
C501 H508 0.961 . S
C501 H509 0.960 . S
C502 C500 1.381 . S
C502 C503 1.394 . S
C502 H510 0.930 . S
C503 C502 1.394 . S
C503 C504 1.383 . S
C503 H511 0.929 . S
C504 C503 1.383 . S
C504 C505 1.377 . S
C505 H489 0.930 . S
C505 C504 1.377 . S
C505 C506 1.379 . S
C506 H490 0.931 . S
C506 C500 1.383 . S
C506 C505 1.379 . S
H507 C501 0.959 . S
H508 C501 0.961 . S
H509 C501 0.960 . S
H510 C502 0.930 . S
H511 C503 0.929 . S
H512 C520 0.929 . S
H513 C522 0.930 . S
H514 C524 0.930 . S
H515 C527 0.929 . S
H516 C530 0.930 . S
H517 C532 0.960 . S
H518 C532 0.960 . S
H519 C532 0.960 . S
C520 H512 0.929 . S
C520 C521 1.377 . S
C520 C522 1.384 . S
C521 C520 1.377 . S
C521 C527 1.390 . S
C522 H513 0.930 . S
C522 C520 1.384 . S
C522 C523 1.372 . S
C523 C522 1.372 . S
C523 C524 1.400 . S
C523 C528 1.490 . S
C524 H514 0.930 . S
C524 C523 1.400 . S
C524 C527 1.386 . S
H525 C541 0.930 1_556 S
H526 C542 0.929 1_556 S
C527 H515 0.929 . S
C527 C521 1.390 . S
C527 C524 1.386 . S
C528 C523 1.490 . S
C528 C530 1.395 . S
C528 C531 1.403 . S
H529 C535 0.930 . S
C530 H516 0.930 . S
C530 C528 1.395 . S
C530 C533 1.403 . S
C531 C528 1.403 . S
C531 C532 1.524 . S
C531 C535 1.400 . S
C532 H517 0.960 . S
C532 H518 0.960 . S
C532 H519 0.960 . S
C532 C531 1.524 . S
C533 C530 1.403 . S
C533 C534 1.392 . S
C533 C537 1.495 . S
C534 C533 1.392 . S
C534 C535 1.385 . S
C534 C536 1.478 . S
C535 H529 0.930 . S
C535 C531 1.400 . S
C535 C534 1.385 . S
C536 C534 1.478 . S
C536 C538 1.381 . S
C536 C542 1.383 . S
C537 C533 1.495 . S
C537 H543 0.959 . S
C537 H544 0.961 . S
C537 H545 0.960 . S
C538 C536 1.381 . S
C538 C539 1.394 . S
C538 H546 0.930 . S
C539 C538 1.394 . S
C539 C540 1.383 . S
C539 H547 0.929 . S
C540 C539 1.383 . S
C540 C541 1.377 . S
C541 H525 0.930 1_554 S
C541 C540 1.377 . S
C541 C542 1.379 . S
C542 H526 0.929 1_554 S
C542 C536 1.383 . S
C542 C541 1.379 . S
H543 C537 0.959 . S
H544 C537 0.961 . S
H545 C537 0.960 . S
H546 C538 0.930 . S
H547 C539 0.929 . S
H548 C556 0.929 . S
H549 C558 0.930 . S
H550 C560 0.930 . S
H551 C563 0.929 . S
H552 C566 0.930 . S
H553 C568 0.960 . S
H554 C568 0.960 . S
H555 C568 0.960 . S
C556 H548 0.929 . S
C556 C557 1.377 . S
C556 C558 1.384 . S
C557 C556 1.377 . S
C557 C563 1.390 . S
C558 H549 0.930 . S
C558 C556 1.384 . S
C558 C559 1.372 . S
C559 C558 1.372 . S
C559 C560 1.400 . S
C559 C564 1.490 . S
C560 H550 0.930 . S
C560 C559 1.400 . S
C560 C563 1.386 . S
H561 C577 0.930 . S
H562 C578 0.931 1_554 S
C563 H551 0.929 . S
C563 C557 1.390 . S
C563 C560 1.386 . S
C564 C559 1.490 . S
C564 C566 1.395 . S
C564 C567 1.403 . S
H565 C571 0.930 . S
C566 H552 0.930 . S
C566 C564 1.395 . S
C566 C569 1.403 . S
C567 C564 1.403 . S
C567 C568 1.524 . S
C567 C571 1.400 . S
C568 H553 0.960 . S
C568 H554 0.960 . S
C568 H555 0.960 . S
C568 C567 1.524 . S
C569 C566 1.403 . S
C569 C570 1.392 . S
C569 C573 1.495 . S
C570 C569 1.392 . S
C570 C571 1.385 . S
C570 C572 1.478 . S
C571 H565 0.930 . S
C571 C567 1.400 . S
C571 C570 1.385 . S
C572 C570 1.478 . S
C572 C574 1.381 . S
C572 C578 1.383 . S
C573 C569 1.495 . S
C573 H579 0.959 . S
C573 H580 0.961 . S
C573 H581 0.960 . S
C574 C572 1.381 . S
C574 C575 1.394 . S
C574 H582 0.930 . S
C575 C574 1.394 . S
C575 C576 1.383 . S
C575 H583 0.929 . S
C576 C575 1.383 . S
C576 C577 1.377 1_556 S
C577 H561 0.930 . S
C577 C576 1.377 1_554 S
C577 C578 1.379 1_554 S
C578 H562 0.931 1_556 S
C578 C572 1.383 . S
C578 C577 1.379 1_556 S
H579 C573 0.959 . S
H580 C573 0.961 . S
H581 C573 0.960 . S
H582 C574 0.930 . S
H583 C575 0.929 . S
H584 C592 0.929 . S
H585 C594 0.930 . S
H586 C596 0.930 . S
H587 C599 0.929 . S
H588 C602 0.930 . S
H589 C604 0.960 . S
H590 C604 0.960 . S
H591 C604 0.960 . S
C592 H584 0.929 . S
C592 C593 1.377 . S
C592 C594 1.384 . S
C593 C592 1.377 . S
C593 C599 1.390 . S
C594 H585 0.930 . S
C594 C592 1.384 . S
C594 C595 1.372 . S
C595 C594 1.372 . S
C595 C596 1.400 . S
C595 C600 1.490 . S
C596 H586 0.930 . S
C596 C595 1.400 . S
C596 C599 1.386 . S
H597 C613 0.930 . S
H598 C614 0.931 . S
C599 H587 0.929 . S
C599 C593 1.390 . S
C599 C596 1.386 . S
C600 C595 1.490 . S
C600 C602 1.395 . S
C600 C603 1.403 . S
H601 C607 0.930 . S
C602 H588 0.930 . S
C602 C600 1.395 . S
C602 C605 1.402 1_655 S
C603 C600 1.403 . S
C603 C604 1.524 . S
C603 C607 1.400 . S
C604 H589 0.960 . S
C604 H590 0.960 . S
C604 H591 0.960 . S
C604 C603 1.524 . S
C605 C602 1.402 1_455 S
C605 C606 1.390 1_455 S
C605 C609 1.499 . S
C606 C605 1.390 1_655 S
C606 C607 1.385 . S
C606 C608 1.478 . S
C607 H601 0.930 . S
C607 C603 1.400 . S
C607 C606 1.385 . S
C608 C606 1.478 . S
C608 C610 1.381 1_655 S
C608 C614 1.383 . S
C609 C605 1.499 . S
C609 H615 0.959 . S
C609 H616 0.961 . S
C609 H617 0.960 . S
C610 C608 1.381 1_455 S
C610 C611 1.394 . S
C610 H618 0.930 . S
C611 C610 1.394 . S
C611 C612 1.383 . S
C611 H619 0.929 . S
C612 C611 1.383 . S
C612 C613 1.377 . S
C613 H597 0.930 . S
C613 C612 1.377 . S
C613 C614 1.379 1_455 S
C614 H598 0.931 . S
C614 C608 1.383 . S
C614 C613 1.379 1_655 S
H615 C609 0.959 . S
H616 C609 0.961 . S
H617 C609 0.960 . S
H618 C610 0.930 . S
H619 C611 0.929 . S
H620 C628 0.929 . S
H621 C630 0.930 . S
H622 C632 0.930 . S
H623 C635 0.929 . S
H624 C638 0.930 . S
H625 C640 0.960 . S
H626 C640 0.960 . S
H627 C640 0.960 . S
C628 H620 0.929 . S
C628 C629 1.377 . S
C628 C630 1.384 . S
C629 C628 1.377 . S
C629 C635 1.390 . S
C630 H621 0.930 . S
C630 C628 1.384 . S
C630 C631 1.372 . S
C631 C630 1.372 . S
C631 C632 1.400 . S
C631 C636 1.490 . S
C632 H622 0.930 . S
C632 C631 1.400 . S
C632 C635 1.386 . S
H633 C649 0.930 . S
H634 C650 0.931 . S
C635 H623 0.929 . S
C635 C629 1.390 . S
C635 C632 1.386 . S
C636 C631 1.490 . S
C636 C638 1.395 . S
C636 C639 1.403 . S
H637 C643 0.930 . S
C638 H624 0.930 . S
C638 C636 1.395 . S
C638 C641 1.403 . S
C639 C636 1.403 . S
C639 C640 1.524 . S
C639 C643 1.400 . S
C640 H625 0.960 . S
C640 H626 0.960 . S
C640 H627 0.960 . S
C640 C639 1.524 . S
C641 C638 1.403 . S
C641 C642 1.392 . S
C641 C645 1.495 . S
C642 C641 1.392 . S
C642 C643 1.385 . S
C642 C644 1.478 . S
C643 H637 0.930 . S
C643 C639 1.400 . S
C643 C642 1.385 . S
C644 C642 1.478 . S
C644 C646 1.381 . S
C644 C650 1.383 . S
C645 C641 1.495 . S
C645 H651 0.959 . S
C645 H652 0.961 . S
C645 H653 0.960 . S
C646 C644 1.381 . S
C646 C647 1.394 . S
C646 H654 0.930 . S
C647 C646 1.394 . S
C647 C648 1.383 . S
C647 H655 0.929 . S
C648 C647 1.383 . S
C648 C649 1.377 . S
C649 H633 0.930 . S
C649 C648 1.377 . S
C649 C650 1.379 . S
C650 H634 0.931 . S
C650 C644 1.383 . S
C650 C649 1.379 . S
H651 C645 0.959 . S
H652 C645 0.961 . S
H653 C645 0.960 . S
H654 C646 0.930 . S
H655 C647 0.929 . S
H656 C664 0.929 . S
H657 C666 0.930 . S
H658 C668 0.930 . S
H659 C671 0.929 . S
H660 C674 0.930 . S
H661 C676 0.960 . S
H662 C676 0.960 . S
H663 C676 0.961 . S
C664 H656 0.929 . S
C664 C665 1.377 . S
C664 C666 1.384 . S
C665 C664 1.377 . S
C665 C671 1.390 . S
C666 H657 0.930 . S
C666 C664 1.384 . S
C666 C667 1.372 . S
C667 C666 1.372 . S
C667 C668 1.400 . S
C667 C672 1.490 . S
C668 H658 0.930 . S
C668 C667 1.400 . S
C668 C671 1.386 . S
H669 C685 0.930 . S
H670 C686 0.931 . S
C671 H659 0.929 . S
C671 C665 1.390 . S
C671 C668 1.386 . S
C672 C667 1.490 . S
C672 C674 1.395 . S
C672 C675 1.403 . S
H673 C679 0.930 . S
C674 H660 0.930 . S
C674 C672 1.395 . S
C674 C677 1.403 . S
C675 C672 1.403 . S
C675 C676 1.524 1_565 S
C675 C679 1.400 . S
C676 H661 0.960 . S
C676 H662 0.960 . S
C676 H663 0.961 . S
C676 C675 1.524 1_545 S
C677 C674 1.403 . S
C677 C678 1.392 . S
C677 C681 1.495 . S
C678 C677 1.392 . S
C678 C679 1.385 . S
C678 C680 1.478 . S
C679 H673 0.930 . S
C679 C675 1.400 . S
C679 C678 1.385 . S
C680 C678 1.478 . S
C680 C682 1.381 1_655 S
C680 C686 1.383 . S
C681 C677 1.495 . S
C681 H687 0.959 . S
C681 H688 0.961 . S
C681 H689 0.960 1_655 S
C682 C680 1.381 1_455 S
C682 C683 1.394 . S
C682 H690 0.930 . S
C683 C682 1.394 . S
C683 C684 1.383 . S
C683 H691 0.929 . S
C684 C683 1.383 . S
C684 C685 1.377 1_455 S
C685 H669 0.930 . S
C685 C684 1.377 1_655 S
C685 C686 1.379 . S
C686 H670 0.931 . S
C686 C680 1.383 . S
C686 C685 1.379 . S
H687 C681 0.959 . S
H688 C681 0.961 . S
H689 C681 0.960 1_455 S
H690 C682 0.930 . S
H691 C683 0.929 . S
H692 C700 0.929 . S
H693 C702 0.930 . S
H694 C704 0.930 . S
H695 C707 0.929 . S
H696 C710 0.930 . S
H697 C712 0.960 . S
H698 C712 0.960 . S
H699 C712 0.960 . S
C700 H692 0.929 . S
C700 C701 1.377 . S
C700 C702 1.384 . S
C701 C700 1.377 . S
C701 C707 1.390 . S
C702 H693 0.930 . S
C702 C700 1.384 . S
C702 C703 1.372 . S
C703 C702 1.372 . S
C703 C704 1.400 . S
C703 C708 1.490 . S
C704 H694 0.930 . S
C704 C703 1.400 . S
C704 C707 1.386 . S
H705 C721 0.930 . S
H706 C722 0.931 . S
C707 H695 0.929 . S
C707 C701 1.390 . S
C707 C704 1.386 . S
C708 C703 1.490 . S
C708 C710 1.395 . S
C708 C711 1.403 . S
H709 C715 0.930 . S
C710 H696 0.930 . S
C710 C708 1.395 . S
C710 C713 1.403 . S
C711 C708 1.403 . S
C711 C712 1.524 . S
C711 C715 1.400 . S
C712 H697 0.960 . S
C712 H698 0.960 . S
C712 H699 0.960 . S
C712 C711 1.524 . S
C713 C710 1.403 . S
C713 C714 1.392 . S
C713 C717 1.495 . S
C714 C713 1.392 . S
C714 C715 1.385 . S
C714 C716 1.478 . S
C715 H709 0.930 . S
C715 C711 1.400 . S
C715 C714 1.385 . S
C716 C714 1.478 . S
C716 C718 1.381 . S
C716 C722 1.383 . S
C717 C713 1.495 . S
C717 H723 0.959 . S
C717 H724 0.961 . S
C717 H725 0.960 . S
C718 C716 1.381 . S
C718 C719 1.394 . S
C718 H726 0.930 . S
C719 C718 1.394 . S
C719 C720 1.383 . S
C719 H727 0.929 . S
C720 C719 1.383 . S
C720 C721 1.377 . S
C721 H705 0.930 . S
C721 C720 1.377 . S
C721 C722 1.379 . S
C722 H706 0.931 . S
C722 C716 1.383 . S
C722 C721 1.379 . S
H723 C717 0.959 . S
H724 C717 0.961 . S
H725 C717 0.960 . S
H726 C718 0.930 . S
H727 C719 0.929 . S
H728 C736 0.929 . S
H729 C738 0.930 . S
H730 C740 0.930 . S
H731 C743 0.929 . S
H732 C746 0.930 . S
H733 C748 0.960 . S
H734 C748 0.960 . S
H735 C748 0.960 . S
C736 H728 0.929 . S
C736 C737 1.377 . S
C736 C738 1.384 . S
C737 C736 1.377 . S
C737 C743 1.390 . S
C738 H729 0.930 . S
C738 C736 1.384 . S
C738 C739 1.372 . S
C739 C738 1.372 . S
C739 C740 1.400 . S
C739 C744 1.490 . S
C740 H730 0.930 . S
C740 C739 1.400 . S
C740 C743 1.386 . S
H741 C757 0.930 . S
H742 C758 0.931 . S
C743 H731 0.929 . S
C743 C737 1.390 . S
C743 C740 1.386 . S
C744 C739 1.490 . S
C744 C746 1.395 . S
C744 C747 1.403 . S
H745 C751 0.930 . S
C746 H732 0.930 . S
C746 C744 1.395 . S
C746 C749 1.403 . S
C747 C744 1.403 . S
C747 C748 1.524 . S
C747 C751 1.400 . S
C748 H733 0.960 . S
C748 H734 0.960 . S
C748 H735 0.960 . S
C748 C747 1.524 . S
C749 C746 1.403 . S
C749 C750 1.392 . S
C749 C753 1.495 . S
C750 C749 1.392 . S
C750 C751 1.385 . S
C750 C752 1.478 . S
C751 H745 0.930 . S
C751 C747 1.400 . S
C751 C750 1.385 . S
C752 C750 1.478 . S
C752 C754 1.381 . S
C752 C758 1.383 . S
C753 C749 1.495 . S
C753 H759 0.959 . S
C753 H760 0.961 . S
C753 H761 0.960 . S
C754 C752 1.381 . S
C754 C755 1.394 . S
C754 H762 0.930 . S
C755 C754 1.394 . S
C755 C756 1.383 . S
C755 H763 0.929 . S
C756 C755 1.383 . S
C756 C757 1.377 . S
C757 H741 0.930 . S
C757 C756 1.377 . S
C757 C758 1.379 . S
C758 H742 0.931 . S
C758 C752 1.383 . S
C758 C757 1.379 . S
H759 C753 0.959 . S
H760 C753 0.961 . S
H761 C753 0.960 . S
H762 C754 0.930 . S
H763 C755 0.929 . S
H764 C772 0.929 . S
H765 C774 0.930 . S
H766 C776 0.930 . S
H767 C779 0.929 . S
H768 C782 0.930 . S
H769 C784 0.980 . S
H770 C784 0.960 . S
H771 C784 0.960 . S
C772 H764 0.929 . S
C772 C773 1.377 . S
C772 C774 1.384 . S
C773 C772 1.377 . S
C773 C779 1.390 . S
C774 H765 0.930 . S
C774 C772 1.384 . S
C774 C775 1.372 . S
C775 C774 1.372 . S
C775 C776 1.400 . S
C775 C780 1.490 . S
C776 H766 0.930 . S
C776 C775 1.400 . S
C776 C779 1.386 . S
H777 C793 0.930 . S
H778 C794 0.931 . S
C779 H767 0.929 . S
C779 C773 1.390 . S
C779 C776 1.386 . S
C780 C775 1.490 . S
C780 C782 1.395 . S
C780 C783 1.403 . S
H781 C787 0.930 . S
C782 H768 0.930 . S
C782 C780 1.395 . S
C782 C785 1.403 . S
C783 C780 1.403 . S
C783 C784 1.524 . S
C783 C787 1.400 . S
C784 H769 0.980 . S
C784 H770 0.960 . S
C784 H771 0.960 . S
C784 C783 1.524 . S
C785 C782 1.403 . S
C785 C786 1.392 . S
C785 C789 1.495 . S
C786 C785 1.392 . S
C786 C787 1.385 . S
C786 C788 1.478 . S
C787 H781 0.930 . S
C787 C783 1.400 . S
C787 C786 1.385 . S
C788 C786 1.478 . S
C788 C790 1.381 . S
C788 C794 1.383 . S
C789 C785 1.495 . S
C789 H795 0.959 . S
C789 H796 0.961 . S
C789 H797 0.960 . S
C790 C788 1.381 . S
C790 C791 1.394 . S
C790 H798 0.930 . S
C791 C790 1.394 . S
C791 C792 1.383 . S
C791 H799 0.929 . S
C792 C791 1.383 . S
C792 C793 1.377 . S
C793 H777 0.930 . S
C793 C792 1.377 . S
C793 C794 1.379 . S
C794 H778 0.931 . S
C794 C788 1.383 . S
C794 C793 1.379 . S
H795 C789 0.959 . S
H796 C789 0.961 . S
H797 C789 0.960 . S
H798 C790 0.930 . S
H799 C791 0.929 . S
H800 C808 0.929 . S
H801 C810 0.930 . S
H802 C812 0.930 . S
H803 C815 0.929 . S
H804 C818 0.930 . S
H805 C820 0.960 . S
H806 C820 0.960 . S
H807 C820 0.960 . S
C808 H800 0.929 . S
C808 C809 1.377 . S
C808 C810 1.384 . S
C809 C808 1.377 . S
C809 C815 1.390 . S
C810 H801 0.930 . S
C810 C808 1.384 . S
C810 C811 1.372 . S
C811 C810 1.372 . S
C811 C812 1.400 . S
C811 C816 1.490 . S
C812 H802 0.930 . S
C812 C811 1.400 . S
C812 C815 1.386 . S
H813 C829 0.930 . S
H814 C830 0.931 . S
C815 H803 0.929 . S
C815 C809 1.390 . S
C815 C812 1.386 . S
C816 C811 1.490 . S
C816 C818 1.395 . S
C816 C819 1.403 . S
H817 C823 0.930 . S
C818 H804 0.930 . S
C818 C816 1.395 . S
C818 C821 1.403 . S
C819 C816 1.403 . S
C819 C820 1.524 . S
C819 C823 1.400 . S
C820 H805 0.960 . S
C820 H806 0.960 . S
C820 H807 0.960 . S
C820 C819 1.524 . S
C821 C818 1.403 . S
C821 C822 1.392 . S
C821 C825 1.495 1_556 S
C822 C821 1.392 . S
C822 C823 1.385 . S
C822 C824 1.478 . S
C823 H817 0.930 . S
C823 C819 1.400 . S
C823 C822 1.385 . S
C824 C822 1.478 . S
C824 C826 1.381 1_556 S
C824 C830 1.383 1_565 S
C825 C821 1.495 1_554 S
C825 H831 0.959 . S
C825 H832 0.961 1_565 S
C825 H833 0.960 . S
C826 C824 1.381 1_554 S
C826 C827 1.394 . S
C826 H834 0.930 . S
C827 C826 1.394 . S
C827 C828 1.383 . S
C827 H835 0.929 . S
C828 C827 1.383 . S
C828 C829 1.377 1_564 S
C829 H813 0.930 . S
C829 C828 1.377 1_546 S
C829 C830 1.379 . S
C830 H814 0.931 . S
C830 C824 1.383 1_545 S
C830 C829 1.379 . S
H831 C825 0.959 . S
H832 C825 0.961 1_545 S
H833 C825 0.960 . S
H834 C826 0.930 . S
H835 C827 0.929 . S
H836 C844 0.929 . S
H837 C846 0.930 . S
H838 C848 0.930 . S
H839 C851 0.929 . S
H840 C854 0.930 . S
H841 C856 0.960 . S
H842 C856 0.960 . S
H843 C856 0.960 . S
C844 H836 0.929 . S
C844 C845 1.377 . S
C844 C846 1.384 . S
C845 C844 1.377 . S
C845 C851 1.390 . S
C846 H837 0.930 . S
C846 C844 1.384 . S
C846 C847 1.372 . S
C847 C846 1.372 . S
C847 C848 1.400 . S
C847 C852 1.490 . S
C848 H838 0.930 . S
C848 C847 1.400 . S
C848 C851 1.386 . S
H849 C865 0.930 . S
H850 C866 0.931 . S
C851 H839 0.929 . S
C851 C845 1.390 . S
C851 C848 1.386 . S
C852 C847 1.490 . S
C852 C854 1.395 . S
C852 C855 1.403 . S
H853 C859 0.930 . S
C854 H840 0.930 . S
C854 C852 1.395 . S
C854 C857 1.403 . S
C855 C852 1.403 . S
C855 C856 1.524 . S
C855 C859 1.400 . S
C856 H841 0.960 . S
C856 H842 0.960 . S
C856 H843 0.960 . S
C856 C855 1.524 . S
C857 C854 1.403 . S
C857 C858 1.392 . S
C857 C861 1.495 . S
C858 C857 1.392 . S
C858 C859 1.385 . S
C858 C860 1.478 . S
C859 H853 0.930 . S
C859 C855 1.400 . S
C859 C858 1.385 . S
C860 C858 1.478 . S
C860 C862 1.381 . S
C860 C866 1.383 . S
C861 C857 1.495 . S
C861 H867 0.959 . S
C861 H868 0.961 . S
C861 H869 0.960 . S
C862 C860 1.381 . S
C862 C863 1.394 . S
C862 H870 0.930 . S
C863 C862 1.394 . S
C863 C864 1.383 . S
C863 H871 0.929 . S
C864 C863 1.383 . S
C864 C865 1.377 . S
C865 H849 0.930 . S
C865 C864 1.377 . S
C865 C866 1.379 . S
C866 H850 0.931 . S
C866 C860 1.383 . S
C866 C865 1.379 . S
H867 C861 0.959 . S
H868 C861 0.961 . S
H869 C861 0.960 . S
H870 C862 0.930 . S
H871 C863 0.929 . S
H872 C880 0.929 . S
H873 C882 0.930 . S
H874 C884 0.930 . S
H875 C887 0.929 . S
H876 C890 0.930 . S
H877 C892 0.960 . S
H878 C892 0.960 . S
H879 C892 0.960 . S
C880 H872 0.929 . S
C880 C881 1.377 . S
C880 C882 1.384 . S
C881 C880 1.377 . S
C881 C887 1.390 . S
C882 H873 0.930 . S
C882 C880 1.384 . S
C882 C883 1.372 . S
C883 C882 1.372 . S
C883 C884 1.400 . S
C883 C888 1.490 . S
C884 H874 0.930 . S
C884 C883 1.400 . S
C884 C887 1.386 . S
H885 C901 0.930 . S
H886 C902 0.931 . S
C887 H875 0.929 . S
C887 C881 1.390 . S
C887 C884 1.386 . S
C888 C883 1.490 . S
C888 C890 1.395 . S
C888 C891 1.403 . S
H889 C895 0.930 . S
C890 H876 0.930 . S
C890 C888 1.395 . S
C890 C893 1.403 . S
C891 C888 1.403 . S
C891 C892 1.524 . S
C891 C895 1.400 . S
C892 H877 0.960 . S
C892 H878 0.960 . S
C892 H879 0.960 . S
C892 C891 1.524 . S
C893 C890 1.403 . S
C893 C894 1.392 . S
C893 C897 1.495 . S
C894 C893 1.392 . S
C894 C895 1.385 . S
C894 C896 1.478 . S
C895 H889 0.930 . S
C895 C891 1.400 . S
C895 C894 1.385 . S
C896 C894 1.478 . S
C896 C898 1.381 . S
C896 C902 1.383 . S
C897 C893 1.495 . S
C897 H903 0.959 . S
C897 H904 0.961 . S
C897 H905 0.960 . S
C898 C896 1.381 . S
C898 C899 1.394 . S
C898 H906 0.930 . S
C899 C898 1.394 . S
C899 C900 1.383 . S
C899 H907 0.929 . S
C900 C899 1.383 . S
C900 C901 1.377 . S
C901 H885 0.930 . S
C901 C900 1.377 . S
C901 C902 1.379 . S
C902 H886 0.931 . S
C902 C896 1.383 . S
C902 C901 1.379 . S
H903 C897 0.959 . S
H904 C897 0.961 . S
H905 C897 0.960 . S
H906 C898 0.930 . S
H907 C899 0.929 . S
H908 C916 0.929 . S
H909 C918 0.930 . S
H910 C920 0.930 . S
H911 C923 0.929 . S
H912 C926 0.930 . S
H913 C928 0.960 . S
H914 C928 0.960 . S
H915 C928 0.960 . S
C916 H908 0.929 . S
C916 C917 1.377 . S
C916 C918 1.384 . S
C917 C916 1.377 . S
C917 C923 1.390 . S
C918 H909 0.930 . S
C918 C916 1.384 . S
C918 C919 1.372 . S
C919 C918 1.372 . S
C919 C920 1.400 . S
C919 C924 1.490 . S
C920 H910 0.930 . S
C920 C919 1.400 . S
C920 C923 1.386 . S
H921 C937 0.930 . S
H922 C938 0.931 . S
C923 H911 0.929 . S
C923 C917 1.390 . S
C923 C920 1.386 . S
C924 C919 1.490 . S
C924 C926 1.395 . S
C924 C927 1.403 . S
H925 C931 0.930 . S
C926 H912 0.930 . S
C926 C924 1.395 . S
C926 C929 1.403 . S
C927 C924 1.403 . S
C927 C928 1.524 . S
C927 C931 1.400 . S
C928 H913 0.960 . S
C928 H914 0.960 . S
C928 H915 0.960 . S
C928 C927 1.524 . S
C929 C926 1.403 . S
C929 C930 1.392 . S
C929 C933 1.495 . S
C930 C929 1.392 . S
C930 C931 1.385 . S
C930 C932 1.478 . S
C931 H925 0.930 . S
C931 C927 1.400 . S
C931 C930 1.385 . S
C932 C930 1.478 . S
C932 C934 1.381 . S
C932 C938 1.383 . S
C933 C929 1.495 . S
C933 H939 0.959 . S
C933 H940 0.961 . S
C933 H941 0.960 . S
C934 C932 1.381 . S
C934 C935 1.394 . S
C934 H942 0.930 . S
C935 C934 1.394 . S
C935 C936 1.383 . S
C935 H943 0.929 . S
C936 C935 1.383 . S
C936 C937 1.377 . S
C937 H921 0.930 . S
C937 C936 1.377 . S
C937 C938 1.379 . S
C938 H922 0.931 . S
C938 C932 1.383 . S
C938 C937 1.379 . S
H939 C933 0.959 . S
H940 C933 0.961 . S
H941 C933 0.960 . S
H942 C934 0.930 . S
H943 C935 0.929 . S
H944 C952 0.929 . S
H945 C954 0.930 . S
H946 C956 0.930 . S
H947 C959 0.929 . S
H948 C962 0.930 . S
H949 C964 0.960 1_455 S
H950 C964 0.960 . S
H951 C964 0.960 . S
C952 H944 0.929 . S
C952 C953 1.377 . S
C952 C954 1.384 . S
C953 C952 1.377 . S
C953 C959 1.390 . S
C954 H945 0.930 . S
C954 C952 1.384 . S
C954 C955 1.372 . S
C955 C954 1.372 . S
C955 C956 1.400 . S
C955 C960 1.490 . S
C956 H946 0.930 . S
C956 C955 1.400 . S
C956 C959 1.386 . S
H957 C973 0.930 . S
H958 C974 0.931 . S
C959 H947 0.929 . S
C959 C953 1.390 . S
C959 C956 1.386 . S
C960 C955 1.490 . S
C960 C962 1.395 . S
C960 C963 1.403 . S
H961 C967 0.930 . S
C962 H948 0.930 . S
C962 C960 1.395 . S
C962 C965 1.403 . S
C963 C960 1.403 . S
C963 C964 1.524 . S
C963 C967 1.400 . S
C964 H949 0.960 1_655 S
C964 H950 0.960 . S
C964 H951 0.960 . S
C964 C963 1.524 . S
C965 C962 1.403 . S
C965 C966 1.392 . S
C965 C969 1.495 . S
C966 C965 1.392 . S
C966 C967 1.385 . S
C966 C968 1.478 . S
C967 H961 0.930 . S
C967 C963 1.400 . S
C967 C966 1.385 . S
C968 C966 1.478 . S
C968 C970 1.381 . S
C968 C974 1.383 . S
C969 C965 1.495 . S
C969 H975 0.959 . S
C969 H976 0.961 . S
C969 H977 0.960 . S
C970 C968 1.381 . S
C970 C971 1.394 . S
C970 H978 0.930 . S
C971 C970 1.394 . S
C971 C972 1.383 . S
C971 H979 0.929 1_556 S
C972 C971 1.383 . S
C972 C973 1.377 . S
C973 H957 0.930 . S
C973 C972 1.377 . S
C973 C974 1.379 . S
C974 H958 0.931 . S
C974 C968 1.383 . S
C974 C973 1.379 . S
H975 C969 0.959 . S
H976 C969 0.961 . S
H977 C969 0.960 . S
H978 C970 0.930 . S
H979 C971 0.929 1_554 S
H980 C988 0.929 . S
H981 C990 0.930 . S
H982 C992 0.930 . S
H983 C995 0.929 . S
H984 C998 0.930 . S
H985 C1000 0.960 . S
H986 C1000 0.960 . S
H987 C1000 0.960 . S
C988 H980 0.929 . S
C988 C989 1.377 . S
C988 C990 1.384 . S
C989 C988 1.377 . S
C989 C995 1.390 . S
C990 H981 0.930 . S
C990 C988 1.384 . S
C990 C991 1.372 . S
C991 C990 1.372 . S
C991 C992 1.400 . S
C991 C996 1.490 . S
C992 H982 0.930 . S
C992 C991 1.400 . S
C992 C995 1.386 . S
H993 C1009 0.930 . S
H994 C1010 0.931 . S
C995 H983 0.929 . S
C995 C989 1.390 . S
C995 C992 1.386 . S
C996 C991 1.490 . S
C996 C998 1.395 . S
C996 C999 1.403 . S
H997 C1003 0.930 . S
C998 H984 0.930 . S
C998 C996 1.395 . S
C998 C1001 1.403 . S
C999 C996 1.403 . S
C999 C1000 1.524 . S
C999 C1003 1.400 . S
C1000 H985 0.960 . S
C1000 H986 0.960 . S
C1000 H987 0.960 . S
C1000 C999 1.524 . S
C1001 C998 1.403 . S
C1001 C1002 1.392 . S
C1001 C1005 1.495 . S
C1002 C1001 1.392 . S
C1002 C1003 1.385 . S
C1002 C1004 1.478 . S
C1003 H997 0.930 . S
C1003 C999 1.400 . S
C1003 C1002 1.385 . S
C1004 C1002 1.478 . S
C1004 C1006 1.381 . S
C1004 C1010 1.383 . S
C1005 C1001 1.495 . S
C1005 H1011 0.959 . S
C1005 H1012 0.961 . S
C1005 H1013 0.960 . S
C1006 C1004 1.381 . S
C1006 C1007 1.394 . S
C1006 H1014 0.930 . S
C1007 C1006 1.394 . S
C1007 C1008 1.383 . S
C1007 H1015 0.929 . S
C1008 C1007 1.383 . S
C1008 C1009 1.377 . S
C1009 H993 0.930 . S
C1009 C1008 1.377 . S
C1009 C1010 1.379 . S
C1010 H994 0.931 . S
C1010 C1004 1.383 . S
C1010 C1009 1.379 . S
H1011 C1005 0.959 . S
H1012 C1005 0.961 . S
H1013 C1005 0.960 . S
H1014 C1006 0.930 . S
H1015 C1007 0.929 . S
H1016 C1024 0.929 . S
H1017 C1026 0.930 . S
H1018 C1028 0.930 . S
H1019 C1031 0.929 . S
H1020 C1034 0.930 . S
H1021 C1036 0.960 . S
H1022 C1036 0.960 . S
H1023 C1036 0.960 . S
C1024 H1016 0.929 . S
C1024 C1025 1.377 . S
C1024 C1026 1.384 . S
C1025 C1024 1.377 . S
C1025 C1031 1.390 . S
C1026 H1017 0.930 . S
C1026 C1024 1.384 . S
C1026 C1027 1.372 . S
C1027 C1026 1.372 . S
C1027 C1028 1.400 . S
C1027 C1032 1.490 . S
C1028 H1018 0.930 . S
C1028 C1027 1.400 . S
C1028 C1031 1.386 . S
H1029 C1045 0.930 . S
H1030 C1046 0.931 . S
C1031 H1019 0.929 . S
C1031 C1025 1.390 . S
C1031 C1028 1.386 . S
C1032 C1027 1.490 . S
C1032 C1034 1.395 . S
C1032 C1035 1.403 . S
H1033 C1039 0.930 . S
C1034 H1020 0.930 . S
C1034 C1032 1.395 . S
C1034 C1037 1.403 . S
C1035 C1032 1.403 . S
C1035 C1036 1.524 . S
C1035 C1039 1.400 . S
C1036 H1021 0.960 . S
C1036 H1022 0.960 . S
C1036 H1023 0.960 . S
C1036 C1035 1.524 . S
C1037 C1034 1.403 . S
C1037 C1038 1.392 . S
C1037 C1041 1.495 . S
C1038 C1037 1.392 . S
C1038 C1039 1.385 . S
C1038 C1040 1.478 . S
C1039 H1033 0.930 . S
C1039 C1035 1.400 . S
C1039 C1038 1.385 . S
C1040 C1038 1.478 . S
C1040 C1042 1.381 . S
C1040 C1046 1.383 . S
C1041 C1037 1.495 . S
C1041 H1047 0.959 . S
C1041 H1048 0.961 . S
C1041 H1049 0.960 . S
C1042 C1040 1.381 . S
C1042 C1043 1.394 . S
C1042 H1050 0.930 . S
C1043 C1042 1.394 . S
C1043 C1044 1.383 . S
C1043 H1051 0.929 . S
C1044 C1043 1.383 . S
C1044 C1045 1.377 . S
C1045 H1029 0.930 . S
C1045 C1044 1.377 . S
C1045 C1046 1.379 . S
C1046 H1030 0.931 . S
C1046 C1040 1.383 . S
C1046 C1045 1.379 . S
H1047 C1041 0.959 . S
H1048 C1041 0.961 . S
H1049 C1041 0.960 . S
H1050 C1042 0.930 . S
H1051 C1043 0.929 . S
H1052 C1060 0.929 . S
H1053 C1062 0.930 . S
H1054 C1064 0.930 . S
H1055 C1067 0.929 . S
H1056 C1070 0.930 . S
H1057 C1072 0.960 . S
H1058 C1072 0.960 . S
H1059 C1072 0.960 . S
C1060 H1052 0.929 . S
C1060 C1061 1.377 . S
C1060 C1062 1.384 . S
C1061 C1060 1.377 . S
C1061 C1067 1.390 . S
C1062 H1053 0.930 . S
C1062 C1060 1.384 . S
C1062 C1063 1.372 . S
C1063 C1062 1.372 . S
C1063 C1064 1.400 . S
C1063 C1068 1.490 . S
C1064 H1054 0.930 . S
C1064 C1063 1.400 . S
C1064 C1067 1.386 . S
H1065 C1081 0.930 . S
H1066 C1082 0.931 . S
C1067 H1055 0.929 . S
C1067 C1061 1.390 . S
C1067 C1064 1.386 . S
C1068 C1063 1.490 . S
C1068 C1070 1.395 . S
C1068 C1071 1.403 . S
H1069 C1075 0.930 . S
C1070 H1056 0.930 . S
C1070 C1068 1.395 . S
C1070 C1073 1.403 . S
C1071 C1068 1.403 . S
C1071 C1072 1.524 . S
C1071 C1075 1.400 . S
C1072 H1057 0.960 . S
C1072 H1058 0.960 . S
C1072 H1059 0.960 . S
C1072 C1071 1.524 . S
C1073 C1070 1.403 . S
C1073 C1074 1.392 . S
C1073 C1077 1.495 . S
C1074 C1073 1.392 . S
C1074 C1075 1.385 . S
C1074 C1076 1.478 . S
C1075 H1069 0.930 . S
C1075 C1071 1.400 . S
C1075 C1074 1.385 . S
C1076 C1074 1.478 . S
C1076 C1078 1.381 . S
C1076 C1082 1.383 . S
C1077 C1073 1.495 . S
C1077 H1083 0.959 . S
C1077 H1084 0.961 . S
C1077 H1085 0.960 . S
C1078 C1076 1.381 . S
C1078 C1079 1.394 . S
C1078 H1086 0.930 . S
C1079 C1078 1.394 . S
C1079 C1080 1.383 . S
C1079 H1087 0.929 . S
C1080 C1079 1.383 . S
C1080 C1081 1.377 . S
C1081 H1065 0.930 . S
C1081 C1080 1.377 . S
C1081 C1082 1.379 . S
C1082 H1066 0.931 . S
C1082 C1076 1.383 . S
C1082 C1081 1.379 . S
H1083 C1077 0.959 . S
H1084 C1077 0.961 . S
H1085 C1077 0.960 . S
H1086 C1078 0.930 . S
H1087 C1079 0.929 . S
C233 N1 2.053 . S
C252 C120 2.110 . S
C269 N18 1.454 . S
C288 N140 1.400 . S
C324 C174 1.383 . S
C305 N28 1.380 . S
C341 N40 1.404 . S
C360 N208 1.364 . S
C396 C161 2.749 . S
C377 N5 2.715 . S
C432 N118 1.175 . S
C413 N14 1.217 . S
C468 C195 1.877 . S
C449 N31 1.845 . S
C504 N170 0.540 . S
C485 N41 0.580 . S
C521 N2 1.697 . S
C540 C210 1.706 . S
C576 C144 1.740 1_556 S
C557 N27 1.711 . S
C593 N44 1.554 . S
C612 C105 1.593 . S
C629 N15 1.190 . S
C648 C191 1.193 . S
C684 C131 2.524 . S
C665 N57 2.508 . S
C701 N70 0.911 . S
C720 N148 0.923 . S
C737 N79 1.729 . S
C756 C165 1.773 . S
C773 N93 1.052 . S
C792 N200 1.066 . S
C809 N54 2.261 . S
C828 C150 2.263 1_565 S
C864 N110 1.615 . S
C845 N66 1.670 . S
C900 C204 1.284 . S
C881 N80 1.278 . S
C936 N178 0.905 . S
C917 N96 0.936 . S
C953 N53 1.752 . S
C972 C221 1.775 . S
C1008 C135 1.591 . S
C989 N83 1.555 . S
C1044 C114 1.596 . S
C1025 N92 1.586 . S
C1061 N67 1.209 . S
C1080 C180 1.225 . S
