# Generated by pormake.
# Topology apo, (3,6)-cn, num edge types: 1
# Building blocks:
#     Node 0, Type 0, BuildingBlock: INOVEN_clean_linker_0, # of connection points: 3
#     Node 1, Type 0, BuildingBlock: INOVEN_clean_linker_0, # of connection points: 3
#     Node 2, Type 0, BuildingBlock: INOVEN_clean_linker_0, # of connection points: 3
#     Node 3, Type 0, BuildingBlock: INOVEN_clean_linker_0, # of connection points: 3
#     Node 4, Type 0, BuildingBlock: INOVEN_clean_linker_0, # of connection points: 3
#     Node 5, Type 0, BuildingBlock: INOVEN_clean_linker_0, # of connection points: 3
#     Node 6, Type 0, BuildingBlock: INOVEN_clean_linker_0, # of connection points: 3
#     Node 7, Type 0, BuildingBlock: INOVEN_clean_linker_0, # of connection points: 3
#     Node 8, Type 1, BuildingBlock: MIDCAF_clean_sbu_0, # of connection points: 6
#     Node 9, Type 1, BuildingBlock: MIDCAF_clean_sbu_0, # of connection points: 6
#     Node 10, Type 1, BuildingBlock: MIDCAF_clean_sbu_0, # of connection points: 6
#     Node 11, Type 1, BuildingBlock: MIDCAF_clean_sbu_0, # of connection points: 6
#     Edge 12, Type (0, 1), BuildingBlock: OJICUG_clean_linker_0, # of connection points: 2
#     Edge 13, Type (0, 1), BuildingBlock: OJICUG_clean_linker_0, # of connection points: 2
#     Edge 14, Type (0, 1), BuildingBlock: OJICUG_clean_linker_0, # of connection points: 2
#     Edge 15, Type (0, 1), BuildingBlock: OJICUG_clean_linker_0, # of connection points: 2
#     Edge 16, Type (0, 1), BuildingBlock: OJICUG_clean_linker_0, # of connection points: 2
#     Edge 17, Type (0, 1), BuildingBlock: OJICUG_clean_linker_0, # of connection points: 2
#     Edge 18, Type (0, 1), BuildingBlock: OJICUG_clean_linker_0, # of connection points: 2
#     Edge 19, Type (0, 1), BuildingBlock: OJICUG_clean_linker_0, # of connection points: 2
#     Edge 20, Type (0, 1), BuildingBlock: OJICUG_clean_linker_0, # of connection points: 2
#     Edge 21, Type (0, 1), BuildingBlock: OJICUG_clean_linker_0, # of connection points: 2
#     Edge 22, Type (0, 1), BuildingBlock: OJICUG_clean_linker_0, # of connection points: 2
#     Edge 23, Type (0, 1), BuildingBlock: OJICUG_clean_linker_0, # of connection points: 2
#     Edge 24, Type (0, 1), BuildingBlock: OJICUG_clean_linker_0, # of connection points: 2
#     Edge 25, Type (0, 1), BuildingBlock: OJICUG_clean_linker_0, # of connection points: 2
#     Edge 26, Type (0, 1), BuildingBlock: OJICUG_clean_linker_0, # of connection points: 2
#     Edge 27, Type (0, 1), BuildingBlock: OJICUG_clean_linker_0, # of connection points: 2
#     Edge 28, Type (0, 1), BuildingBlock: OJICUG_clean_linker_0, # of connection points: 2
#     Edge 29, Type (0, 1), BuildingBlock: OJICUG_clean_linker_0, # of connection points: 2
#     Edge 30, Type (0, 1), BuildingBlock: OJICUG_clean_linker_0, # of connection points: 2
#     Edge 31, Type (0, 1), BuildingBlock: OJICUG_clean_linker_0, # of connection points: 2
#     Edge 32, Type (0, 1), BuildingBlock: OJICUG_clean_linker_0, # of connection points: 2
#     Edge 33, Type (0, 1), BuildingBlock: OJICUG_clean_linker_0, # of connection points: 2
#     Edge 34, Type (0, 1), BuildingBlock: OJICUG_clean_linker_0, # of connection points: 2
#     Edge 35, Type (0, 1), BuildingBlock: OJICUG_clean_linker_0, # of connection points: 2
# Relax obj value: 0.015
# Max RMSD: 0.064
# Mean RMSD: 0.051
data_MOF--net-apo--node1-MIDCAF_clean_sbu_0--node2-INOVEN_clean_linker_0--edge1-OJICUG_clean_linker_0
_symmetry_space_group_name_H-M    P1
_symmetry_Int_Tables_number       1
_symmetry_cell_setting            triclinic
loop_
_symmetry_equiv_pos_as_xyz
'x, y, z'
_cell_length_a     27.096018
_cell_length_b     30.642834
_cell_length_c     24.517174
_cell_angle_alpha  89.36393
_cell_angle_beta   89.909803
_cell_angle_gamma 89.931318
loop_
_atom_site_label
_atom_site_type_symbol
_atom_site_fract_x
_atom_site_fract_y
_atom_site_fract_z
_atom_type_partial_charge
H0 H 0.33652 0.2414 0.43609 0.0
H1 H 0.42963 0.35453 0.43585 0.0
H2 H 0.34862 0.32161 0.29105 0.0
N3 N 0.30441 0.2498 0.33505 0.0
N4 N 0.28128 0.25977 0.29263 0.0
C5 C 0.35218 0.26931 0.41477 0.0
C6 C 0.38455 0.29714 0.44208 0.0
C7 C 0.33879 0.27805 0.36035 0.0
C8 C 0.35893 0.31459 0.33291 0.0
C9 C 0.39275 0.34189 0.35958 0.0
C10 C 0.40501 0.33288 0.41418 0.0
H11 H 0.20712 0.19109 0.94014 0.0
H12 H 0.07622 0.11402 0.92962 0.0
H13 H 0.17191 0.12759 0.78925 0.0
N14 N 0.23942 0.1784 0.84101 0.0
N15 N 0.24808 0.18555 0.79164 0.0
C16 C 0.18245 0.17108 0.91628 0.0
C17 C 0.1392 0.1549 0.93996 0.0
C18 C 0.19392 0.16217 0.86168 0.0
C19 C 0.16221 0.13543 0.83086 0.0
C20 C 0.1192 0.11739 0.85498 0.0
C21 C 0.10809 0.12817 0.90939 0.0
H22 H 0.82533 0.2167 0.57923 0.0
H23 H 0.90278 0.09639 0.55604 0.0
H24 H 0.8265 0.11916 0.70751 0.0
N25 N 0.7914 0.19944 0.67746 0.0
N26 N 0.76602 0.18718 0.71735 0.0
C27 C 0.83679 0.18496 0.59454 0.0
C28 C 0.86449 0.15741 0.56118 0.0
C29 C 0.82232 0.1712 0.64705 0.0
C30 C 0.83756 0.12996 0.66709 0.0
C31 C 0.86671 0.10255 0.63427 0.0
C32 C 0.87967 0.11675 0.58147 0.0
H33 H 0.69463 0.26984 0.08349 0.0
H34 H 0.60492 0.38511 0.0929 0.0
H35 H 0.68772 0.34222 0.23328 0.0
N36 N 0.72769 0.27053 0.18361 0.0
N37 N 0.7531 0.27611 0.22546 0.0
C38 C 0.68028 0.29701 0.10664 0.0
C39 C 0.64899 0.32745 0.0813 0.0
C40 C 0.69494 0.30221 0.16115 0.0
C41 C 0.67672 0.33785 0.19124 0.0
C42 C 0.64302 0.36718 0.16682 0.0
C43 C 0.62993 0.36188 0.112 0.0
H44 H 0.67257 0.71446 0.59311 0.0
H45 H 0.57611 0.60353 0.59631 0.0
H46 H 0.66236 0.63406 0.73826 0.0
N47 N 0.70698 0.70559 0.69329 0.0
N48 N 0.7307 0.69534 0.73523 0.0
C49 C 0.65675 0.68685 0.61489 0.0
C50 C 0.62273 0.65984 0.58863 0.0
C51 C 0.67136 0.67782 0.66892 0.0
C52 C 0.65102 0.6415 0.69684 0.0
C53 C 0.61563 0.61498 0.67122 0.0
C54 C 0.60198 0.62455 0.61717 0.0
H55 H 0.84377 0.84129 0.24545 0.0
H56 H 0.9233 0.85525 0.09384 0.0
H57 H 0.80499 0.76285 0.10775 0.0
N58 N 0.77975 0.78393 0.21082 0.0
N59 N 0.76966 0.7443 0.21429 0.0
C60 C 0.85088 0.83165 0.2038 0.0
C61 C 0.88881 0.85175 0.17339 0.0
C62 C 0.82113 0.79931 0.18082 0.0
C63 C 0.82903 0.78666 0.12635 0.0
C64 C 0.86632 0.80682 0.09525 0.0
C65 C 0.89604 0.83882 0.1191 0.0
H66 H 0.19935 0.76223 0.46858 0.0
H67 H 0.10897 0.87695 0.47662 0.0
H68 H 0.17273 0.83856 0.3231 0.0
N69 N 0.22135 0.76798 0.36443 0.0
N70 N 0.24292 0.77696 0.32062 0.0
C71 C 0.18262 0.79036 0.44875 0.0
C72 C 0.1539 0.81926 0.47934 0.0
C73 C 0.19086 0.79791 0.39286 0.0
C74 C 0.16781 0.83367 0.36658 0.0
C75 C 0.1368 0.86186 0.39627 0.0
C76 C 0.13152 0.85492 0.45286 0.0
H77 H 0.31677 0.61346 0.79985 0.0
H78 H 0.40113 0.57888 0.94249 0.0
H79 H 0.30645 0.69137 0.94492 0.0
N80 N 0.27295 0.68314 0.84137 0.0
N81 N 0.2665 0.72174 0.85542 0.0
C82 C 0.32795 0.61998 0.8414 0.0
C83 C 0.36269 0.59272 0.86737 0.0
C84 C 0.30826 0.6562 0.86852 0.0
C85 C 0.32227 0.66418 0.92304 0.0
C86 C 0.35487 0.63572 0.95023 0.0
C87 C 0.37554 0.60067 0.92176 0.0
Zn88 Zn 0.06054 0.11135 0.34995 0.0
Zn89 Zn 0.96091 0.10035 0.17553 0.0
Zn90 Zn 0.0127 0.1092 0.2606 0.0
C91 C 0.0447 0.1451 0.14152 0.0
C92 C 0.97424 0.01707 0.20915 0.0
O93 O 0.9671 0.14411 0.3229 0.0
O94 O 0.01679 0.14794 0.39405 0.0
C95 C 0.12118 0.15048 0.27196 0.0
O96 O 0.05646 0.13915 0.19205 0.0
O97 O 0.0035 0.13215 0.12423 0.0
O98 O 0.95594 0.03683 0.16868 0.0
O99 O -0.00352 0.03852 0.24682 0.0
O100 O 0.12041 0.13822 0.32117 0.0
O101 O 0.08346 0.14398 0.24103 0.0
O102 O 0.03171 0.04117 0.28856 0.0
O103 O 0.06727 0.04899 0.36901 0.0
C104 C 0.0529 0.02464 0.33116 0.0
O105 O 0.94155 0.14659 0.27264 0.0
O106 O 0.90048 0.13012 0.19794 0.0
C107 C 0.97572 0.15632 0.37223 0.0
C108 C 0.90238 0.1497 0.24281 0.0
Zn109 Zn 0.56275 0.35838 0.67995 0.0
Zn110 Zn 0.45912 0.34608 0.83991 0.0
Zn111 Zn 0.50842 0.35053 0.76174 0.0
C112 C 0.43995 0.42707 0.80451 0.0
C113 C 0.42226 0.28201 0.7795 0.0
O114 O 0.57957 0.31455 0.77989 0.0
O115 O 0.61738 0.32041 0.70018 0.0
C116 C 0.5534 0.44206 0.71663 0.0
O117 O 0.48183 0.41752 0.78244 0.0
O118 O 0.41512 0.39726 0.82735 0.0
O119 O 0.43104 0.28778 0.82935 0.0
O120 O 0.44315 0.30715 0.74371 0.0
O121 O 0.57833 0.42087 0.68254 0.0
O122 O 0.52168 0.42228 0.74749 0.0
O123 O 0.46739 0.31858 0.6941 0.0
O124 O 0.51678 0.3355 0.62514 0.0
C125 C 0.47765 0.31802 0.64272 0.0
O126 O 0.55547 0.32386 0.82876 0.0
O127 O 0.51085 0.35039 0.8961 0.0
C128 C 0.61647 0.30582 0.74837 0.0
C129 C 0.5501 0.3327 0.87973 0.0
Zn130 Zn 0.03137 0.88008 0.86545 0.0
Zn131 Zn 0.95398 0.84191 0.68697 0.0
Zn132 Zn 0.99326 0.86079 0.77542 0.0
C133 C 0.94234 0.93208 0.69713 0.0
C134 C 0.89436 0.80076 0.75895 0.0
O135 O 0.06786 0.82873 0.7754 0.0
O136 O 0.09462 0.84982 0.85594 0.0
C137 C 0.02281 0.95933 0.81714 0.0
O138 O 0.96882 0.92449 0.73989 0.0
O139 O 0.93088 0.90093 0.66643 0.0
O140 O 0.90181 0.80227 0.70833 0.0
O141 O 0.92355 0.82114 0.79173 0.0
O142 O 0.03564 0.94377 0.8627 0.0
O143 O 0.00464 0.93406 0.78035 0.0
O144 O 0.94671 0.83004 0.84206 0.0
O145 O 0.98521 0.85227 0.91624 0.0
C146 C 0.95078 0.83106 0.89454 0.0
O147 O 0.04987 0.82878 0.72097 0.0
O148 O 0.00798 0.81695 0.64535 0.0
C149 C 0.10158 0.82895 0.81257 0.0
C150 C 0.04802 0.81529 0.67125 0.0
Zn151 Zn 0.54354 0.61621 0.19008 0.0
Zn152 Zn 0.44193 0.59777 0.3518 0.0
Zn153 Zn 0.49508 0.60764 0.26932 0.0
C154 C 0.52655 0.63908 0.38897 0.0
C155 C 0.45167 0.51506 0.31407 0.0
O156 O 0.44736 0.63667 0.20336 0.0
O157 O 0.49279 0.61675 0.13305 0.0
C158 C 0.58618 0.67239 0.25441 0.0
O159 O 0.53699 0.63812 0.33766 0.0
O160 O 0.48719 0.62193 0.40643 0.0
O161 O 0.42817 0.53505 0.35043 0.0
O162 O 0.48113 0.53596 0.28169 0.0
O163 O 0.57453 0.67291 0.20474 0.0
O164 O 0.56386 0.64587 0.28744 0.0
O165 O 0.52071 0.54124 0.24661 0.0
O166 O 0.58571 0.56293 0.19971 0.0
C167 C 0.56223 0.53257 0.22326 0.0
O168 O 0.42436 0.64535 0.2537 0.0
O169 O 0.3861 0.63449 0.33236 0.0
C170 C 0.45303 0.63213 0.15142 0.0
C171 C 0.38712 0.65196 0.28565 0.0
C172 C 0.13335 0.92537 0.32986 0.0
C173 C 0.11009 0.89904 0.36958 0.0
H174 H 0.132 0.98605 0.28521 0.0
C175 C 0.06254 0.91105 0.38764 0.0
H176 H 0.16989 0.91734 0.31507 0.0
C177 C 0.04124 0.95057 0.37092 0.0
C178 C 0.06633 0.97823 0.33457 0.0
H179 H 0.04279 0.89097 0.417 0.0
H180 H 0.00659 0.96073 0.38891 0.0
C181 C 0.11159 0.96464 0.31252 0.0
C182 C 0.43471 0.54673 0.83861 0.0
C183 C 0.38339 0.55386 0.83999 0.0
H184 H 0.49328 0.50086 0.82445 0.0
C185 C 0.35171 0.52101 0.82168 0.0
H186 H 0.45985 0.57169 0.85255 0.0
C187 C 0.37072 0.48048 0.80653 0.0
C188 C 0.4218 0.4724 0.80825 0.0
H189 H 0.31207 0.52561 0.82268 0.0
H190 H 0.34526 0.4547 0.79591 0.0
C191 C 0.45384 0.50641 0.82225 0.0
C192 C 0.54597 0.56306 0.69236 0.0
C193 C 0.59614 0.57456 0.69759 0.0
H194 H 0.49227 0.5114 0.69594 0.0
C195 C 0.62908 0.54389 0.71993 0.0
H196 H 0.51968 0.58623 0.67561 0.0
C197 C 0.61335 0.50136 0.73132 0.0
C198 C 0.5643 0.48889 0.72152 0.0
H199 H 0.6679 0.55157 0.72408 0.0
H200 H 0.64042 0.47728 0.74407 0.0
C201 C 0.53011 0.52047 0.70437 0.0
C202 C 0.89335 0.9205 0.22848 0.0
C203 C 0.91702 0.88963 0.19528 0.0
H204 H 0.89474 0.98519 0.26057 0.0
C205 C 0.96562 0.89841 0.17751 0.0
H206 H 0.85591 0.9155 0.24264 0.0
C207 C 0.98741 0.93901 0.18712 0.0
C208 C 0.96165 0.97086 0.21617 0.0
H209 H 0.98569 0.87501 0.15322 0.0
H210 H 0.02274 0.94659 0.16858 0.0
C211 C 0.91562 0.9606 0.23898 0.0
C212 C 0.90399 0.05181 0.7054 0.0
C213 C 0.88358 0.05869 0.65322 0.0
H214 H 0.9383 0.00611 0.76068 0.0
C215 C 0.88218 0.02362 0.61688 0.0
H216 H 0.90564 0.07822 0.73433 0.0
C217 C 0.90208 0.98325 0.63128 0.0
C218 C 0.92353 0.9763 0.68284 0.0
H219 H 0.86587 0.02742 0.57679 0.0
H220 H 0.90053 0.95737 0.60159 0.0
C221 C 0.92366 0.01086 0.72012 0.0
C222 C 0.57133 0.41104 0.20003 0.0
C223 C 0.62277 0.40545 0.1957 0.0
H224 H 0.51157 0.45588 0.21289 0.0
C225 C 0.65386 0.44047 0.20806 0.0
H226 H 0.54665 0.38454 0.18994 0.0
C227 C 0.63382 0.48133 0.22021 0.0
C228 C 0.58236 0.48771 0.22107 0.0
H229 H 0.69352 0.43714 0.20417 0.0
H230 H 0.65864 0.50852 0.22642 0.0
C231 C 0.55127 0.45178 0.21311 0.0
C232 C 0.46153 0.39496 0.34071 0.0
C233 C 0.41198 0.38236 0.33338 0.0
H234 H 0.51374 0.44774 0.33876 0.0
C235 C 0.37909 0.41193 0.30868 0.0
H236 H 0.48778 0.37261 0.35923 0.0
C237 C 0.39407 0.45459 0.29694 0.0
C238 C 0.44228 0.46817 0.30887 0.0
H239 H 0.3407 0.40335 0.30289 0.0
H240 H 0.3669 0.47795 0.28243 0.0
C241 C 0.47658 0.43767 0.32858 0.0
C242 C 0.03817 0.07847 0.84023 0.0
C243 C 0.08874 0.0832 0.82748 0.0
H244 H 0.97684 0.03448 0.84704 0.0
C245 C 0.11153 0.05021 0.79682 0.0
H246 H 0.01867 0.10369 0.86214 0.0
C247 C 0.08633 0.01139 0.78558 0.0
C248 C 0.03819 0.00457 0.80525 0.0
H249 H 0.15026 0.0523 0.78623 0.0
H250 H 0.10651 0.9848 0.7671 0.0
C251 C 0.0136 0.03914 0.83054 0.0
C252 C 0.14804 0.14218 0.04074 0.0
C253 C 0.12553 0.16461 0.99701 0.0
H254 H 0.14018 0.11965 0.12373 0.0
C255 C 0.08317 0.18957 1.00681 0.0
H256 H 0.18058 0.12243 0.03381 0.0
C257 C 0.06052 0.18833 0.05793 0.0
C258 C 0.07956 0.16177 0.10002 0.0
H259 H 0.06521 0.20699 0.97363 0.0
H260 H 0.02521 0.2045 0.0628 0.0
C261 C 0.12519 0.14089 0.09224 0.0
C262 C 0.37557 0.31482 0.54077 0.0
C263 C 0.39821 0.29 0.49979 0.0
H264 H 0.38271 0.34183 0.62093 0.0
C265 C 0.44128 0.26658 0.51201 0.0
H266 H 0.34272 0.33372 0.5317 0.0
C267 C 0.46416 0.27144 0.56259 0.0
C268 C 0.44415 0.29953 0.60182 0.0
H269 H 0.45966 0.24784 0.48073 0.0
H270 H 0.49993 0.25642 0.56916 0.0
C271 C 0.39825 0.31927 0.59181 0.0
C272 C 0.61251 0.28628 1.00302 0.0
C273 C 0.63529 0.32406 0.02293 0.0
H274 H 0.56767 0.25916 0.93959 0.0
C275 C 0.63889 0.36104 0.98872 0.0
H276 H 0.60908 0.25745 0.02871 0.0
C277 C 0.61604 0.3617 0.93773 0.0
C278 C 0.5893 0.32542 0.92002 0.0
H279 H 0.65661 0.39046 1.00299 0.0
H280 H 0.61558 0.39189 0.91427 0.0
C281 C 0.58924 0.2871 0.95195 0.0
C282 C 0.86479 0.14657 0.46052 0.0
C283 C 0.88059 0.1706 0.50578 0.0
H284 H 0.88207 0.12513 0.37975 0.0
C285 C 0.92048 0.19931 0.49979 0.0
H286 H 0.83421 0.124 0.46453 0.0
C287 C 0.94818 0.19957 0.45162 0.0
C288 C 0.93603 0.17142 0.40873 0.0
H289 H 0.93349 0.21784 0.53429 0.0
H290 H 0.98213 0.2182 0.45021 0.0
C291 C 0.89199 0.14745 0.4119 0.0
C292 C 0.91421 0.77257 0.02066 0.0
C293 C 0.87376 0.79805 0.03653 0.0
H294 H 0.96968 0.76197 0.95993 0.0
C295 C 0.85084 0.82525 0.99752 0.0
H296 H 0.93303 0.75206 0.05032 0.0
C297 C 0.87172 0.83079 0.94546 0.0
C298 C 0.91587 0.80938 0.93212 0.0
H299 H 0.82021 0.84589 1.00926 0.0
H300 H 0.85697 0.85585 0.91853 0.0
C301 C 0.93503 0.77814 0.9688 0.0
C302 C 0.56303 0.68901 0.52086 0.0
C303 C 0.60758 0.66731 0.53135 0.0
H304 H 0.50281 0.69789 0.46547 0.0
C305 C 0.63059 0.64418 0.48906 0.0
H306 H 0.54433 0.70643 0.55312 0.0
C307 C 0.60706 0.63964 0.43842 0.0
C308 C 0.55997 0.65762 0.4301 0.0
H309 H 0.6646 0.62655 0.49674 0.0
H310 H 0.62319 0.61835 0.40821 0.0
C311 C 0.53939 0.68415 0.47071 0.0
C312 C 0.35956 0.60709 0.0459 0.0
C313 C 0.36785 0.64141 1.00848 0.0
H314 H 0.37883 0.5785 0.12324 0.0
C315 C 0.39546 0.67764 0.02504 0.0
H316 H 0.33847 0.57875 0.03393 0.0
C317 C 0.41868 0.67737 0.07613 0.0
C318 C 0.41368 0.64135 0.11169 0.0
H319 H 0.40269 0.70427 0.99672 0.0
H320 H 0.44404 0.70348 0.08581 0.0
C321 C 0.3821 0.60718 0.09722 0.0
C322 C 0.11725 0.77282 0.55328 0.0
C323 C 0.14269 0.81087 0.53786 0.0
H324 H 0.06744 0.74365 0.61098 0.0
C325 C 0.14833 0.84428 0.57625 0.0
H326 H 0.11225 0.74667 0.52443 0.0
C327 C 0.12391 0.84192 0.62662 0.0
C328 C 0.09252 0.80666 0.63854 0.0
H329 H 0.168 0.87389 0.56534 0.0
H330 H 0.12426 0.87025 0.65269 0.0
C331 C 0.09201 0.77089 0.60311 0.0
C332 C 0.25131 0.18511 0.2796 0.0
C333 C 0.24632 0.23021 0.27065 0.0
H334 H 0.21475 0.12345 0.28349 0.0
C335 C 0.20289 0.24625 0.24641 0.0
H336 H 0.28483 0.17177 0.29716 0.0
C337 C 0.1624 0.21839 0.23847 0.0
C338 C 0.16563 0.17426 0.25413 0.0
H339 H 0.19861 0.28092 0.23883 0.0
H340 H 0.12732 0.23225 0.22605 0.0
C341 C 0.21141 0.15739 0.27105 0.0
C342 C 0.29945 0.23602 0.73758 0.0
C343 C 0.29531 0.20189 0.77613 0.0
H344 H 0.34458 0.28891 0.70727 0.0
C345 C 0.33756 0.18847 0.80479 0.0
H346 H 0.26728 0.24671 0.71492 0.0
C347 C 0.3815 0.21175 0.79974 0.0
C348 C 0.38414 0.24928 0.76639 0.0
H349 H 0.33559 0.16174 0.834 0.0
H350 H 0.41218 0.2027 0.82584 0.0
C351 C 0.3437 0.25988 0.73288 0.0
C352 C 0.74329 0.26229 0.74071 0.0
C353 C 0.73383 0.21725 0.74337 0.0
H354 H 0.71258 0.32649 0.74355 0.0
C355 C 0.68825 0.2028 0.76404 0.0
H356 H 0.77845 0.27436 0.72591 0.0
C357 C 0.65024 0.23288 0.77438 0.0
C358 C 0.65803 0.27761 0.76471 0.0
H359 H 0.68041 0.16819 0.76661 0.0
H360 H 0.61358 0.22084 0.7837 0.0
C361 C 0.70575 0.29215 0.75151 0.0
C362 C 0.77664 0.19872 0.22989 0.0
C363 C 0.78568 0.24238 0.24356 0.0
H364 H 0.80645 0.13466 0.22143 0.0
C365 C 0.83035 0.25284 0.26942 0.0
H366 H 0.74212 0.18943 0.2111 0.0
C367 C 0.86769 0.22113 0.27547 0.0
C368 C 0.86031 0.17865 0.25597 0.0
H369 H 0.83785 0.28624 0.28069 0.0
H370 H 0.90351 0.23083 0.29065 0.0
C371 C 0.81343 0.16728 0.23622 0.0
C372 C 0.76363 0.76944 0.74757 0.0
C373 C 0.76686 0.72418 0.75668 0.0
H374 H 0.80224 0.83028 0.74532 0.0
C375 C 0.80939 0.70709 0.78173 0.0
H376 H 0.73097 0.78362 0.7291 0.0
C377 C 0.85052 0.73394 0.79093 0.0
C378 C 0.84889 0.7784 0.77649 0.0
H379 H 0.81246 0.6723 0.78928 0.0
H380 H 0.88494 0.71915 0.80395 0.0
C381 C 0.80414 0.79627 0.75783 0.0
C382 C 0.72152 0.68545 0.25551 0.0
C383 C 0.7256 0.72945 0.24006 0.0
H384 H 0.67269 0.63291 0.27677 0.0
C385 C 0.6838 0.75657 0.24391 0.0
H386 H 0.75329 0.6641 0.25273 0.0
C387 C 0.63771 0.73872 0.25706 0.0
C388 C 0.63294 0.69384 0.26792 0.0
H389 H 0.68579 0.79065 0.23199 0.0
H390 H 0.60516 0.75913 0.25356 0.0
C391 C 0.67562 0.66784 0.27014 0.0
C392 C 0.31845 0.75746 0.27129 0.0
C393 C 0.27355 0.74507 0.2957 0.0
H394 H 0.39114 0.7365 0.24727 0.0
C395 C 0.26279 0.70049 0.30175 0.0
H396 H 0.32723 0.79171 0.266 0.0
C397 C 0.29846 0.66917 0.28984 0.0
C398 C 0.34586 0.68172 0.27239 0.0
H399 H 0.22805 0.69003 0.31943 0.0
H400 H 0.29066 0.63531 0.29976 0.0
C401 C 0.35473 0.7259 0.25999 0.0
C402 C 0.23009 0.7933 0.84692 0.0
C403 C 0.22941 0.74931 0.83276 0.0
H404 H 0.19062 0.85354 0.84954 0.0
C405 C 0.1894 0.73329 0.80215 0.0
H406 H 0.26061 0.80617 0.87024 0.0
C407 C 0.14889 0.76055 0.78999 0.0
C408 C 0.14809 0.80379 0.80858 0.0
H409 H 0.18799 0.69929 0.79071 0.0
H410 H 0.11683 0.74691 0.77012 0.0
C411 C 0.19008 0.8203 0.83488 0.0
loop_
_geom_bond_atom_site_label_1
_geom_bond_atom_site_label_2
_geom_bond_distance
_geom_bond_site_symmetry_2
_ccdc_geom_bond_type
H0 C5 0.929 . S
H1 C10 0.931 . S
H2 C8 0.930 . S
N3 N4 1.234 . S
N3 C7 1.453 . S
N4 N3 1.234 . S
C5 H0 0.929 . S
C5 C6 1.373 . S
C5 C7 1.368 . S
C6 C5 1.373 . S
C6 C10 1.397 . S
C7 N3 1.453 . S
C7 C5 1.368 . S
C7 C8 1.373 . S
C8 H2 0.930 . S
C8 C7 1.373 . S
C8 C9 1.371 . S
C9 C8 1.371 . S
C9 C10 1.383 . S
C10 H1 0.931 . S
C10 C6 1.397 . S
C10 C9 1.383 . S
H11 C16 0.929 . S
H12 C21 0.931 . S
H13 C19 0.930 . S
N14 N15 1.234 . S
N14 C18 1.453 . S
N15 N14 1.234 . S
C16 H11 0.929 . S
C16 C17 1.373 . S
C16 C18 1.368 . S
C17 C16 1.373 . S
C17 C21 1.397 . S
C18 N14 1.453 . S
C18 C16 1.368 . S
C18 C19 1.373 . S
C19 H13 0.930 . S
C19 C18 1.373 . S
C19 C20 1.371 . S
C20 C19 1.371 . S
C20 C21 1.383 . S
C21 H12 0.931 . S
C21 C17 1.397 . S
C21 C20 1.383 . S
H22 C27 0.929 . S
H23 C32 0.931 . S
H24 C30 0.930 . S
N25 N26 1.234 . S
N25 C29 1.453 . S
N26 N25 1.234 . S
C27 H22 0.929 . S
C27 C28 1.373 . S
C27 C29 1.368 . S
C28 C27 1.373 . S
C28 C32 1.397 . S
C29 N25 1.453 . S
C29 C27 1.368 . S
C29 C30 1.373 . S
C30 H24 0.930 . S
C30 C29 1.373 . S
C30 C31 1.371 . S
C31 C30 1.371 . S
C31 C32 1.383 . S
C32 H23 0.931 . S
C32 C28 1.397 . S
C32 C31 1.383 . S
H33 C38 0.929 . S
H34 C43 0.931 . S
H35 C41 0.930 . S
N36 N37 1.234 . S
N36 C40 1.453 . S
N37 N36 1.234 . S
C38 H33 0.929 . S
C38 C39 1.373 . S
C38 C40 1.368 . S
C39 C38 1.373 . S
C39 C43 1.397 . S
C40 N36 1.453 . S
C40 C38 1.368 . S
C40 C41 1.373 . S
C41 H35 0.930 . S
C41 C40 1.373 . S
C41 C42 1.371 . S
C42 C41 1.371 . S
C42 C43 1.383 . S
C43 H34 0.931 . S
C43 C39 1.397 . S
C43 C42 1.383 . S
H44 C49 0.929 . S
H45 C54 0.931 . S
H46 C52 0.930 . S
N47 N48 1.234 . S
N47 C51 1.453 . S
N48 N47 1.234 . S
C49 H44 0.929 . S
C49 C50 1.373 . S
C49 C51 1.368 . S
C50 C49 1.373 . S
C50 C54 1.397 . S
C51 N47 1.453 . S
C51 C49 1.368 . S
C51 C52 1.373 . S
C52 H46 0.930 . S
C52 C51 1.373 . S
C52 C53 1.371 . S
C53 C52 1.371 . S
C53 C54 1.383 . S
C54 H45 0.931 . S
C54 C50 1.397 . S
C54 C53 1.383 . S
H55 C60 0.929 . S
H56 C65 0.931 . S
H57 C63 0.930 . S
N58 N59 1.234 . S
N58 C62 1.453 . S
N59 N58 1.234 . S
C60 H55 0.929 . S
C60 C61 1.373 . S
C60 C62 1.368 . S
C61 C60 1.373 . S
C61 C65 1.397 . S
C62 N58 1.453 . S
C62 C60 1.368 . S
C62 C63 1.373 . S
C63 H57 0.930 . S
C63 C62 1.373 . S
C63 C64 1.371 . S
C64 C63 1.371 . S
C64 C65 1.383 . S
C65 H56 0.931 . S
C65 C61 1.397 . S
C65 C64 1.383 . S
H66 C71 0.929 . S
H67 C76 0.931 . S
H68 C74 0.930 . S
N69 N70 1.234 . S
N69 C73 1.453 . S
N70 N69 1.234 . S
C71 H66 0.929 . S
C71 C72 1.373 . S
C71 C73 1.368 . S
C72 C71 1.373 . S
C72 C76 1.397 . S
C73 N69 1.453 . S
C73 C71 1.368 . S
C73 C74 1.373 . S
C74 H68 0.930 . S
C74 C73 1.373 . S
C74 C75 1.371 . S
C75 C74 1.371 . S
C75 C76 1.383 . S
C76 H67 0.931 . S
C76 C72 1.397 . S
C76 C75 1.383 . S
H77 C82 0.929 . S
H78 C87 0.931 . S
H79 C85 0.930 . S
N80 N81 1.234 . S
N80 C84 1.453 . S
N81 N80 1.234 . S
C82 H77 0.929 . S
C82 C83 1.373 . S
C82 C84 1.368 . S
C83 C82 1.373 . S
C83 C87 1.397 . S
C84 N80 1.453 . S
C84 C82 1.368 . S
C84 C85 1.373 . S
C85 H79 0.930 . S
C85 C84 1.373 . S
C85 C86 1.371 . S
C86 C85 1.371 . S
C86 C87 1.383 . S
C87 H78 0.931 . S
C87 C83 1.397 . S
C87 C86 1.383 . S
Zn88 O94 1.920 . S
Zn88 O100 1.898 . S
Zn88 O103 1.905 . S
Zn89 O97 1.905 1_655 S
Zn89 O98 1.898 . S
Zn89 O106 1.920 . S
Zn90 O93 2.080 1_455 S
Zn90 O96 2.114 . S
Zn90 O99 2.120 1_455 S
Zn90 O101 2.120 . S
Zn90 O102 2.114 . S
Zn90 O105 2.080 1_455 S
C91 O96 1.166 . S
C91 O97 1.182 . S
C92 O98 1.167 . S
C92 O99 1.299 . S
O93 Zn90 2.080 1_655 S
O93 C107 1.305 . S
O94 Zn88 1.920 . S
O94 C107 1.234 1_455 S
C95 O100 1.167 . S
C95 O101 1.299 . S
O96 Zn90 2.114 . S
O96 C91 1.166 . S
O97 Zn89 1.905 1_455 S
O97 C91 1.182 . S
O98 Zn89 1.898 . S
O98 C92 1.167 . S
O99 Zn90 2.120 1_655 S
O99 C92 1.299 . S
O100 Zn88 1.898 . S
O100 C95 1.167 . S
O101 Zn90 2.120 . S
O101 C95 1.299 . S
O102 Zn90 2.114 . S
O102 C104 1.166 . S
O103 Zn88 1.905 . S
O103 C104 1.182 . S
C104 O102 1.166 . S
C104 O103 1.182 . S
O105 Zn90 2.080 1_655 S
O105 C108 1.305 . S
O106 Zn89 1.920 . S
O106 C108 1.234 . S
C107 O93 1.305 . S
C107 O94 1.234 1_655 S
C108 O105 1.305 . S
C108 O106 1.234 . S
Zn109 O115 1.920 . S
Zn109 O121 1.898 . S
Zn109 O124 1.905 . S
Zn110 O118 1.905 . S
Zn110 O119 1.898 . S
Zn110 O127 1.920 . S
Zn111 O114 2.080 . S
Zn111 O117 2.114 . S
Zn111 O120 2.120 . S
Zn111 O122 2.120 . S
Zn111 O123 2.114 . S
Zn111 O126 2.080 . S
C112 O117 1.166 . S
C112 O118 1.182 . S
C113 O119 1.167 . S
C113 O120 1.299 . S
O114 Zn111 2.080 . S
O114 C128 1.305 . S
O115 Zn109 1.920 . S
O115 C128 1.234 . S
C116 O121 1.167 . S
C116 O122 1.299 . S
O117 Zn111 2.114 . S
O117 C112 1.166 . S
O118 Zn110 1.905 . S
O118 C112 1.182 . S
O119 Zn110 1.898 . S
O119 C113 1.167 . S
O120 Zn111 2.120 . S
O120 C113 1.299 . S
O121 Zn109 1.898 . S
O121 C116 1.167 . S
O122 Zn111 2.120 . S
O122 C116 1.299 . S
O123 Zn111 2.114 . S
O123 C125 1.166 . S
O124 Zn109 1.905 . S
O124 C125 1.182 . S
C125 O123 1.166 . S
C125 O124 1.182 . S
O126 Zn111 2.080 . S
O126 C129 1.305 . S
O127 Zn110 1.920 . S
O127 C129 1.234 . S
C128 O114 1.305 . S
C128 O115 1.234 . S
C129 O126 1.305 . S
C129 O127 1.234 . S
Zn130 O136 1.920 . S
Zn130 O142 1.898 . S
Zn130 O145 1.905 1_455 S
Zn131 O139 1.905 . S
Zn131 O140 1.898 . S
Zn131 O148 1.920 1_655 S
Zn132 O135 2.080 . S
Zn132 O138 2.114 1_455 S
Zn132 O141 2.120 1_455 S
Zn132 O143 2.120 . S
Zn132 O144 2.114 1_455 S
Zn132 O147 2.080 . S
C133 O138 1.166 . S
C133 O139 1.182 . S
C134 O140 1.167 . S
C134 O141 1.299 . S
O135 Zn132 2.080 . S
O135 C149 1.305 . S
O136 Zn130 1.920 . S
O136 C149 1.234 . S
C137 O142 1.167 . S
C137 O143 1.299 . S
O138 Zn132 2.114 1_655 S
O138 C133 1.166 . S
O139 Zn131 1.905 . S
O139 C133 1.182 . S
O140 Zn131 1.898 . S
O140 C134 1.167 . S
O141 Zn132 2.120 1_655 S
O141 C134 1.299 . S
O142 Zn130 1.898 . S
O142 C137 1.167 . S
O143 Zn132 2.120 . S
O143 C137 1.299 . S
O144 Zn132 2.114 1_655 S
O144 C146 1.166 . S
O145 Zn130 1.905 1_655 S
O145 C146 1.182 . S
C146 O144 1.166 . S
C146 O145 1.182 . S
O147 Zn132 2.080 . S
O147 C150 1.305 . S
O148 Zn131 1.920 1_455 S
O148 C150 1.234 . S
C149 O135 1.305 . S
C149 O136 1.234 . S
C150 O147 1.305 . S
C150 O148 1.234 . S
Zn151 O157 1.920 . S
Zn151 O163 1.898 . S
Zn151 O166 1.905 . S
Zn152 O160 1.905 . S
Zn152 O161 1.898 . S
Zn152 O169 1.920 . S
Zn153 O156 2.080 . S
Zn153 O159 2.114 . S
Zn153 O162 2.120 . S
Zn153 O164 2.120 . S
Zn153 O165 2.114 . S
Zn153 O168 2.080 . S
C154 O159 1.166 . S
C154 O160 1.182 . S
C155 O161 1.167 . S
C155 O162 1.299 . S
O156 Zn153 2.080 . S
O156 C170 1.305 . S
O157 Zn151 1.920 . S
O157 C170 1.234 . S
C158 O163 1.167 . S
C158 O164 1.299 . S
O159 Zn153 2.114 . S
O159 C154 1.166 . S
O160 Zn152 1.905 . S
O160 C154 1.182 . S
O161 Zn152 1.898 . S
O161 C155 1.167 . S
O162 Zn153 2.120 . S
O162 C155 1.299 . S
O163 Zn151 1.898 . S
O163 C158 1.167 . S
O164 Zn153 2.120 . S
O164 C158 1.299 . S
O165 Zn153 2.114 . S
O165 C167 1.166 . S
O166 Zn151 1.905 . S
O166 C167 1.182 . S
C167 O165 1.166 . S
C167 O166 1.182 . S
O168 Zn153 2.080 . S
O168 C171 1.305 . S
O169 Zn152 1.920 . S
O169 C171 1.234 . S
C170 O156 1.305 . S
C170 O157 1.234 . S
C171 O168 1.305 . S
C171 O169 1.234 . S
C172 C173 1.387 . S
C172 H176 0.950 . S
C172 C181 1.390 . S
C173 C172 1.387 . S
C173 C175 1.387 . S
H174 C181 0.950 1_545 S
C175 C173 1.387 . S
C175 C177 1.390 . S
C175 H179 0.950 . S
H176 C172 0.950 . S
C177 C175 1.390 . S
C177 C178 1.387 . S
C177 H180 0.950 . S
C178 C177 1.387 . S
C178 C181 1.387 . S
H179 C175 0.950 . S
H180 C177 0.950 . S
C181 C172 1.390 . S
C181 H174 0.950 1_565 S
C181 C178 1.387 . S
C182 C183 1.387 . S
C182 H186 0.950 . S
C182 C191 1.390 . S
C183 C182 1.387 . S
C183 C185 1.387 . S
H184 C191 0.950 . S
C185 C183 1.387 . S
C185 C187 1.390 . S
C185 H189 0.950 . S
H186 C182 0.950 . S
C187 C185 1.390 . S
C187 C188 1.387 . S
C187 H190 0.950 . S
C188 C187 1.387 . S
C188 C191 1.387 . S
H189 C185 0.950 . S
H190 C187 0.950 . S
C191 C182 1.390 . S
C191 H184 0.950 . S
C191 C188 1.387 . S
C192 C193 1.387 . S
C192 H196 0.950 . S
C192 C201 1.390 . S
C193 C192 1.387 . S
C193 C195 1.387 . S
H194 C201 0.950 . S
C195 C193 1.387 . S
C195 C197 1.390 . S
C195 H199 0.950 . S
H196 C192 0.950 . S
C197 C195 1.390 . S
C197 C198 1.387 . S
C197 H200 0.950 . S
C198 C197 1.387 . S
C198 C201 1.387 . S
H199 C195 0.950 . S
H200 C197 0.950 . S
C201 C192 1.390 . S
C201 H194 0.950 . S
C201 C198 1.387 . S
C202 C203 1.387 . S
C202 H206 0.950 . S
C202 C211 1.390 . S
C203 C202 1.387 . S
C203 C205 1.387 . S
H204 C211 0.950 . S
C205 C203 1.387 . S
C205 C207 1.390 . S
C205 H209 0.950 . S
H206 C202 0.950 . S
C207 C205 1.390 . S
C207 C208 1.387 . S
C207 H210 0.950 . S
C208 C207 1.387 . S
C208 C211 1.387 . S
H209 C205 0.950 . S
H210 C207 0.950 . S
C211 C202 1.390 . S
C211 H204 0.950 . S
C211 C208 1.387 . S
C212 C213 1.387 . S
C212 H216 0.950 . S
C212 C221 1.390 . S
C213 C212 1.387 . S
C213 C215 1.387 . S
H214 C221 0.950 . S
C215 C213 1.387 . S
C215 C217 1.390 . S
C215 H219 0.950 . S
H216 C212 0.950 . S
C217 C215 1.390 . S
C217 C218 1.387 . S
C217 H220 0.950 1_545 S
C218 C217 1.387 . S
C218 C221 1.387 . S
H219 C215 0.950 . S
H220 C217 0.950 1_565 S
C221 C212 1.390 . S
C221 H214 0.950 . S
C221 C218 1.387 . S
C222 C223 1.387 . S
C222 H226 0.950 . S
C222 C231 1.390 . S
C223 C222 1.387 . S
C223 C225 1.387 . S
H224 C231 0.950 . S
C225 C223 1.387 . S
C225 C227 1.390 . S
C225 H229 0.950 . S
H226 C222 0.950 . S
C227 C225 1.390 . S
C227 C228 1.387 . S
C227 H230 0.950 . S
C228 C227 1.387 . S
C228 C231 1.387 . S
H229 C225 0.950 . S
H230 C227 0.950 . S
C231 C222 1.390 . S
C231 H224 0.950 . S
C231 C228 1.387 . S
C232 C233 1.387 . S
C232 H236 0.950 . S
C232 C241 1.390 . S
C233 C232 1.387 . S
C233 C235 1.387 . S
H234 C241 0.950 . S
C235 C233 1.387 . S
C235 C237 1.390 . S
C235 H239 0.950 . S
H236 C232 0.950 . S
C237 C235 1.390 . S
C237 C238 1.387 . S
C237 H240 0.950 . S
C238 C237 1.387 . S
C238 C241 1.387 . S
H239 C235 0.950 . S
H240 C237 0.950 . S
C241 C232 1.390 . S
C241 H234 0.950 . S
C241 C238 1.387 . S
C242 C243 1.387 . S
C242 H246 0.950 . S
C242 C251 1.390 . S
C243 C242 1.387 . S
C243 C245 1.387 . S
H244 C251 0.950 . S
C245 C243 1.387 . S
C245 C247 1.390 . S
C245 H249 0.950 . S
H246 C242 0.950 . S
C247 C245 1.390 . S
C247 C248 1.387 . S
C247 H250 0.950 1_545 S
C248 C247 1.387 . S
C248 C251 1.387 . S
H249 C245 0.950 . S
H250 C247 0.950 1_565 S
C251 C242 1.390 . S
C251 H244 0.950 . S
C251 C248 1.387 . S
C252 C253 1.387 . S
C252 H256 0.950 . S
C252 C261 1.390 . S
C253 C252 1.387 . S
C253 C255 1.387 . S
H254 C261 0.950 . S
C255 C253 1.387 . S
C255 C257 1.390 . S
C255 H259 0.950 . S
H256 C252 0.950 . S
C257 C255 1.390 . S
C257 C258 1.387 . S
C257 H260 0.950 . S
C258 C257 1.387 . S
C258 C261 1.387 . S
H259 C255 0.950 . S
H260 C257 0.950 . S
C261 C252 1.390 . S
C261 H254 0.950 . S
C261 C258 1.387 . S
C262 C263 1.387 . S
C262 H266 0.950 . S
C262 C271 1.390 . S
C263 C262 1.387 . S
C263 C265 1.387 . S
H264 C271 0.950 . S
C265 C263 1.387 . S
C265 C267 1.390 . S
C265 H269 0.950 . S
H266 C262 0.950 . S
C267 C265 1.390 . S
C267 C268 1.387 . S
C267 H270 0.950 . S
C268 C267 1.387 . S
C268 C271 1.387 . S
H269 C265 0.950 . S
H270 C267 0.950 . S
C271 C262 1.390 . S
C271 H264 0.950 . S
C271 C268 1.387 . S
C272 C273 1.387 . S
C272 H276 0.950 . S
C272 C281 1.390 . S
C273 C272 1.387 . S
C273 C275 1.387 . S
H274 C281 0.950 . S
C275 C273 1.387 . S
C275 C277 1.390 . S
C275 H279 0.950 . S
H276 C272 0.950 . S
C277 C275 1.390 . S
C277 C278 1.387 . S
C277 H280 0.950 . S
C278 C277 1.387 . S
C278 C281 1.387 . S
H279 C275 0.950 . S
H280 C277 0.950 . S
C281 C272 1.390 . S
C281 H274 0.950 . S
C281 C278 1.387 . S
C282 C283 1.387 . S
C282 H286 0.950 . S
C282 C291 1.390 . S
C283 C282 1.387 . S
C283 C285 1.387 . S
H284 C291 0.950 . S
C285 C283 1.387 . S
C285 C287 1.390 . S
C285 H289 0.950 . S
H286 C282 0.950 . S
C287 C285 1.390 . S
C287 C288 1.387 . S
C287 H290 0.950 . S
C288 C287 1.387 . S
C288 C291 1.387 . S
H289 C285 0.950 . S
H290 C287 0.950 . S
C291 C282 1.390 . S
C291 H284 0.950 . S
C291 C288 1.387 . S
C292 C293 1.389 . S
C292 H296 0.950 . S
C292 C301 1.390 . S
C293 C292 1.389 . S
C293 C295 1.389 . S
H294 C301 0.950 . S
C295 C293 1.389 . S
C295 C297 1.390 . S
C295 H299 0.945 1_556 S
H296 C292 0.950 . S
C297 C295 1.390 . S
C297 C298 1.387 . S
C297 H300 0.950 . S
C298 C297 1.387 . S
C298 C301 1.387 . S
H299 C295 0.945 1_554 S
H300 C297 0.950 . S
C301 C292 1.390 . S
C301 H294 0.950 . S
C301 C298 1.387 . S
C302 C303 1.387 . S
C302 H306 0.950 . S
C302 C311 1.390 . S
C303 C302 1.387 . S
C303 C305 1.387 . S
H304 C311 0.950 . S
C305 C303 1.387 . S
C305 C307 1.390 . S
C305 H309 0.950 . S
H306 C302 0.950 . S
C307 C305 1.390 . S
C307 C308 1.387 . S
C307 H310 0.950 . S
C308 C307 1.387 . S
C308 C311 1.387 . S
H309 C305 0.950 . S
H310 C307 0.950 . S
C311 C302 1.390 . S
C311 H304 0.950 . S
C311 C308 1.387 . S
C312 C313 1.387 1_554 S
C312 H316 0.950 1_554 S
C312 C321 1.390 . S
C313 C312 1.387 1_556 S
C313 C315 1.387 1_556 S
H314 C321 0.950 . S
C315 C313 1.387 1_554 S
C315 C317 1.390 . S
C315 H319 0.950 . S
H316 C312 0.950 1_556 S
C317 C315 1.390 . S
C317 C318 1.387 . S
C317 H320 0.950 . S
C318 C317 1.387 . S
C318 C321 1.387 . S
H319 C315 0.950 . S
H320 C317 0.950 . S
C321 C312 1.390 . S
C321 H314 0.950 . S
C321 C318 1.387 . S
C322 C323 1.387 . S
C322 H326 0.950 . S
C322 C331 1.390 . S
C323 C322 1.387 . S
C323 C325 1.387 . S
H324 C331 0.950 . S
C325 C323 1.387 . S
C325 C327 1.390 . S
C325 H329 0.950 . S
H326 C322 0.950 . S
C327 C325 1.390 . S
C327 C328 1.387 . S
C327 H330 0.950 . S
C328 C327 1.387 . S
C328 C331 1.387 . S
H329 C325 0.950 . S
H330 C327 0.950 . S
C331 C322 1.390 . S
C331 H324 0.950 . S
C331 C328 1.387 . S
C332 C333 1.387 . S
C332 H336 0.950 . S
C332 C341 1.390 . S
C333 C332 1.387 . S
C333 C335 1.387 . S
H334 C341 0.950 . S
C335 C333 1.387 . S
C335 C337 1.390 . S
C335 H339 0.950 . S
H336 C332 0.950 . S
C337 C335 1.390 . S
C337 C338 1.387 . S
C337 H340 0.950 . S
C338 C337 1.387 . S
C338 C341 1.387 . S
H339 C335 0.950 . S
H340 C337 0.950 . S
C341 C332 1.390 . S
C341 H334 0.950 . S
C341 C338 1.387 . S
C342 C343 1.387 . S
C342 H346 0.950 . S
C342 C351 1.390 . S
C343 C342 1.387 . S
C343 C345 1.387 . S
H344 C351 0.950 . S
C345 C343 1.387 . S
C345 C347 1.390 . S
C345 H349 0.950 . S
H346 C342 0.950 . S
C347 C345 1.390 . S
C347 C348 1.387 . S
C347 H350 0.950 . S
C348 C347 1.387 . S
C348 C351 1.387 . S
H349 C345 0.950 . S
H350 C347 0.950 . S
C351 C342 1.390 . S
C351 H344 0.950 . S
C351 C348 1.387 . S
C352 C353 1.387 . S
C352 H356 0.950 . S
C352 C361 1.390 . S
C353 C352 1.387 . S
C353 C355 1.387 . S
H354 C361 0.950 . S
C355 C353 1.387 . S
C355 C357 1.390 . S
C355 H359 0.950 . S
H356 C352 0.950 . S
C357 C355 1.390 . S
C357 C358 1.387 . S
C357 H360 0.950 . S
C358 C357 1.387 . S
C358 C361 1.387 . S
H359 C355 0.950 . S
H360 C357 0.950 . S
C361 C352 1.390 . S
C361 H354 0.950 . S
C361 C358 1.387 . S
C362 C363 1.387 . S
C362 H366 0.950 . S
C362 C371 1.390 . S
C363 C362 1.387 . S
C363 C365 1.387 . S
H364 C371 0.950 . S
C365 C363 1.387 . S
C365 C367 1.390 . S
C365 H369 0.950 . S
H366 C362 0.950 . S
C367 C365 1.390 . S
C367 C368 1.387 . S
C367 H370 0.950 . S
C368 C367 1.387 . S
C368 C371 1.387 . S
H369 C365 0.950 . S
H370 C367 0.950 . S
C371 C362 1.390 . S
C371 H364 0.950 . S
C371 C368 1.387 . S
C372 C373 1.387 . S
C372 H376 0.950 . S
C372 C381 1.390 . S
C373 C372 1.387 . S
C373 C375 1.387 . S
H374 C381 0.950 . S
C375 C373 1.387 . S
C375 C377 1.390 . S
C375 H379 0.950 . S
H376 C372 0.950 . S
C377 C375 1.390 . S
C377 C378 1.387 . S
C377 H380 0.950 . S
C378 C377 1.387 . S
C378 C381 1.387 . S
H379 C375 0.950 . S
H380 C377 0.950 . S
C381 C372 1.390 . S
C381 H374 0.950 . S
C381 C378 1.387 . S
C382 C383 1.387 . S
C382 H386 0.950 . S
C382 C391 1.390 . S
C383 C382 1.387 . S
C383 C385 1.387 . S
H384 C391 0.950 . S
C385 C383 1.387 . S
C385 C387 1.390 . S
C385 H389 0.950 . S
H386 C382 0.950 . S
C387 C385 1.390 . S
C387 C388 1.387 . S
C387 H390 0.950 . S
C388 C387 1.387 . S
C388 C391 1.387 . S
H389 C385 0.950 . S
H390 C387 0.950 . S
C391 C382 1.390 . S
C391 H384 0.950 . S
C391 C388 1.387 . S
C392 C393 1.387 . S
C392 H396 0.950 . S
C392 C401 1.390 . S
C393 C392 1.387 . S
C393 C395 1.387 . S
H394 C401 0.950 . S
C395 C393 1.387 . S
C395 C397 1.390 . S
C395 H399 0.950 . S
H396 C392 0.950 . S
C397 C395 1.390 . S
C397 C398 1.387 . S
C397 H400 0.950 . S
C398 C397 1.387 . S
C398 C401 1.387 . S
H399 C395 0.950 . S
H400 C397 0.950 . S
C401 C392 1.390 . S
C401 H394 0.950 . S
C401 C398 1.387 . S
C402 C403 1.387 . S
C402 H406 0.950 . S
C402 C411 1.390 . S
C403 C402 1.387 . S
C403 C405 1.387 . S
H404 C411 0.950 . S
C405 C403 1.387 . S
C405 C407 1.390 . S
C405 H409 0.950 . S
H406 C402 0.950 . S
C407 C405 1.390 . S
C407 C408 1.387 . S
C407 H410 0.950 . S
C408 C407 1.387 . S
C408 C411 1.387 . S
H409 C405 0.950 . S
H410 C407 0.950 . S
C411 C402 1.390 . S
C411 H404 0.950 . S
C411 C408 1.387 . S
C173 C75 1.446 . S
C178 C104 1.409 1_565 S
C188 C112 1.304 . S
C183 C83 1.387 . S
C198 C116 1.401 . S
C193 C53 1.448 . S
C203 C61 1.387 . S
C208 C92 1.300 1_565 S
C218 C133 1.379 1_545 S
C213 C31 1.424 . S
C228 C167 1.431 . S
C223 C42 1.466 . S
C233 C9 1.424 . S
C238 C155 1.371 . S
C243 C20 1.465 . S
C248 C137 1.422 1_545 S
C258 C91 1.293 . S
C253 C17 1.439 1_554 S
C268 C125 1.320 . S
C263 C6 1.466 . S
C278 C129 1.285 . S
C273 C39 1.438 1_556 S
C288 C107 1.316 . S
C283 C28 1.464 . S
C298 C146 1.391 . S
C293 C64 1.497 1_556 S
C303 C50 1.508 . S
C308 C154 1.368 . S
C318 C170 1.384 . S
C313 C86 1.501 . S
C323 C72 1.505 . S
C328 C150 1.361 . S
C338 C95 1.329 . S
C333 N4 1.478 . S
C348 C113 1.371 . S
C343 N15 1.527 . S
C353 N26 1.476 . S
C358 C128 1.332 . S
C368 C108 1.377 . S
C363 N37 1.526 . S
C378 C134 1.379 . S
C373 N48 1.554 . S
C383 N59 1.512 . S
C388 C158 1.334 . S
C393 N70 1.551 . S
C398 C171 1.381 . S
C403 N81 1.505 . S
C408 C149 1.335 . S
