# Generated by pormake.
# Topology ssa, (4,4)-cn, num edge types: 1
# Building blocks:
#     Node 0, Type 0, BuildingBlock: KOZSID_clean_sbu_0, # of connection points: 4
#     Node 1, Type 0, BuildingBlock: KOZSID_clean_sbu_0, # of connection points: 4
#     Node 2, Type 0, BuildingBlock: KOZSID_clean_sbu_0, # of connection points: 4
#     Node 3, Type 0, BuildingBlock: KOZSID_clean_sbu_0, # of connection points: 4
#     Node 4, Type 0, BuildingBlock: KOZSID_clean_sbu_0, # of connection points: 4
#     Node 5, Type 0, BuildingBlock: KOZSID_clean_sbu_0, # of connection points: 4
#     Node 6, Type 1, BuildingBlock: NAHDIM_clean_linker_0, # of connection points: 4
#     Node 7, Type 1, BuildingBlock: NAHDIM_clean_linker_0, # of connection points: 4
#     Node 8, Type 1, BuildingBlock: NAHDIM_clean_linker_0, # of connection points: 4
#     Node 9, Type 1, BuildingBlock: NAHDIM_clean_linker_0, # of connection points: 4
#     Node 10, Type 1, BuildingBlock: NAHDIM_clean_linker_0, # of connection points: 4
#     Node 11, Type 1, BuildingBlock: NAHDIM_clean_linker_0, # of connection points: 4
#     Edge 12, Type (0, 1), BuildingBlock: XIVTED_clean_linker_0, # of connection points: 2
#     Edge 13, Type (0, 1), BuildingBlock: XIVTED_clean_linker_0, # of connection points: 2
#     Edge 14, Type (0, 1), BuildingBlock: XIVTED_clean_linker_0, # of connection points: 2
#     Edge 15, Type (0, 1), BuildingBlock: XIVTED_clean_linker_0, # of connection points: 2
#     Edge 16, Type (0, 1), BuildingBlock: XIVTED_clean_linker_0, # of connection points: 2
#     Edge 17, Type (0, 1), BuildingBlock: XIVTED_clean_linker_0, # of connection points: 2
#     Edge 18, Type (0, 1), BuildingBlock: XIVTED_clean_linker_0, # of connection points: 2
#     Edge 19, Type (0, 1), BuildingBlock: XIVTED_clean_linker_0, # of connection points: 2
#     Edge 20, Type (0, 1), BuildingBlock: XIVTED_clean_linker_0, # of connection points: 2
#     Edge 21, Type (0, 1), BuildingBlock: XIVTED_clean_linker_0, # of connection points: 2
#     Edge 22, Type (0, 1), BuildingBlock: XIVTED_clean_linker_0, # of connection points: 2
#     Edge 23, Type (0, 1), BuildingBlock: XIVTED_clean_linker_0, # of connection points: 2
#     Edge 24, Type (0, 1), BuildingBlock: XIVTED_clean_linker_0, # of connection points: 2
#     Edge 25, Type (0, 1), BuildingBlock: XIVTED_clean_linker_0, # of connection points: 2
#     Edge 26, Type (0, 1), BuildingBlock: XIVTED_clean_linker_0, # of connection points: 2
#     Edge 27, Type (0, 1), BuildingBlock: XIVTED_clean_linker_0, # of connection points: 2
#     Edge 28, Type (0, 1), BuildingBlock: XIVTED_clean_linker_0, # of connection points: 2
#     Edge 29, Type (0, 1), BuildingBlock: XIVTED_clean_linker_0, # of connection points: 2
#     Edge 30, Type (0, 1), BuildingBlock: XIVTED_clean_linker_0, # of connection points: 2
#     Edge 31, Type (0, 1), BuildingBlock: XIVTED_clean_linker_0, # of connection points: 2
#     Edge 32, Type (0, 1), BuildingBlock: XIVTED_clean_linker_0, # of connection points: 2
#     Edge 33, Type (0, 1), BuildingBlock: XIVTED_clean_linker_0, # of connection points: 2
#     Edge 34, Type (0, 1), BuildingBlock: XIVTED_clean_linker_0, # of connection points: 2
#     Edge 35, Type (0, 1), BuildingBlock: XIVTED_clean_linker_0, # of connection points: 2
# Relax obj value: 0.012
# Max RMSD: 0.050
# Mean RMSD: 0.032
data_MOF--net-ssa--node1-KOZSID_clean_sbu_0--node2-NAHDIM_clean_linker_0--edge1-XIVTED_clean_linker_0
_symmetry_space_group_name_H-M    P1
_symmetry_Int_Tables_number       1
_symmetry_cell_setting            triclinic
loop_
_symmetry_equiv_pos_as_xyz
'x, y, z'
_cell_length_a     66.043436
_cell_length_b     67.316092
_cell_length_c     57.865837
_cell_angle_alpha  87.784795
_cell_angle_beta   90.308666
_cell_angle_gamma 122.04043
loop_
_atom_site_label
_atom_site_type_symbol
_atom_site_fract_x
_atom_site_fract_y
_atom_site_fract_z
_atom_type_partial_charge
C0 C 0.98965 0.52258 0.98808 0.0
C1 C 0.96598 0.51548 0.99222 0.0
C2 C 0.95607 0.49529 0.00588 0.0
C3 C 0.97412 0.49117 0.0093 0.0
N4 N 0.99482 0.50762 0.99882 0.0
Co5 Co 0.025 0.5079 0.99881 0.0
N6 N 0.0143 0.48588 0.02618 0.0
C7 C 0.99159 0.47167 0.03381 0.0
C8 C 0.98961 0.45803 0.05296 0.0
C9 C 0.01249 0.46392 0.05753 0.0
C10 C 0.02721 0.48092 0.04084 0.0
N11 N 0.05509 0.508 0.99874 0.0
C12 C 0.06462 0.50124 0.01572 0.0
C13 C 0.08625 0.5045 0.0085 0.0
C14 C 0.09007 0.51322 0.98608 0.0
C15 C 0.07073 0.51493 0.98091 0.0
N16 N 0.03565 0.52985 0.97136 0.0
C17 C 0.05341 0.53461 0.95646 0.0
C18 C 0.05686 0.55072 0.9392 0.0
C19 C 0.04007 0.55628 0.94339 0.0
C20 C 0.02715 0.54305 0.96298 0.0
N21 N 0.03927 0.53438 0.0191 0.0
C22 C 0.0594 0.57218 0.04835 0.0
C23 C 0.07243 0.57203 0.02941 0.0
C24 C 0.06199 0.55304 0.01492 0.0
C25 C 0.03612 0.55299 0.05235 0.0
C26 C 0.02646 0.53425 0.03764 0.0
N27 N 0.01058 0.4813 0.97856 0.0
C28 C 0.98468 0.46096 0.9471 0.0
C29 C 0.98667 0.4415 0.9519 0.0
C30 C 0.00164 0.44282 0.96985 0.0
C31 C 0.01335 0.46278 0.98296 0.0
C32 C 0.99683 0.48066 0.96051 0.0
H33 H 0.02429 0.463 0.99695 0.0
H34 H 0.99458 0.49515 0.95659 0.0
H35 H 0.07229 0.55348 0.00032 0.0
H36 H 0.0086 0.51961 0.04131 0.0
C37 C 0.9734 0.47435 0.02487 0.0
C38 C 0.00578 0.54195 0.97191 0.0
C39 C 0.05283 0.4902 0.03807 0.0
C40 C 0.06874 0.52662 0.96136 0.0
H41 H 0.95672 0.52378 0.98572 0.0
H42 H 0.93805 0.48522 0.01297 0.0
H43 H 0.97358 0.4458 0.06285 0.0
H44 H 0.01769 0.45631 0.07135 0.0
H45 H 0.098 0.5009 0.01835 0.0
H46 H 0.10558 0.51858 0.97522 0.0
H47 H 0.07048 0.55819 0.92568 0.0
H48 H 0.03752 0.56851 0.93308 0.0
H49 H 0.09043 0.58662 0.02561 0.0
H50 H 0.02553 0.55227 0.06697 0.0
H51 H 0.97318 0.46077 0.93359 0.0
H52 H 0.00417 0.42846 0.97395 0.0
C53 C 0.54173 0.00734 0.54429 0.0
C54 C 0.54081 0.9932 0.5629 0.0
C55 C 0.5193 0.9726 0.56205 0.0
C56 C 0.50842 0.97526 0.543 0.0
N57 N 0.52168 0.9963 0.53155 0.0
Co58 Co 0.51293 0.00717 0.50256 0.0
N59 N 0.48041 0.9777 0.50259 0.0
C60 C 0.47113 0.95983 0.51872 0.0
C61 C 0.44791 0.9426 0.51494 0.0
C62 C 0.44193 0.94984 0.4952 0.0
C63 C 0.46206 0.97107 0.48787 0.0
N64 N 0.50448 0.01768 0.4731 0.0
C65 C 0.48429 0.00673 0.46049 0.0
C66 C 0.48634 0.01974 0.44045 0.0
C67 C 0.50848 0.0397 0.44049 0.0
C68 C 0.51875 0.03769 0.46036 0.0
N69 N 0.54514 0.03708 0.50311 0.0
C70 C 0.55396 0.05557 0.48773 0.0
C71 C 0.57612 0.07401 0.49312 0.0
C72 C 0.58175 0.06702 0.5133 0.0
C73 C 0.56264 0.04457 0.51899 0.0
N74 N 0.52622 0.99228 0.48394 0.0
C75 C 0.54431 0.97104 0.45667 0.0
C76 C 0.5528 0.99491 0.45369 0.0
C77 C 0.54354 0.00504 0.46729 0.0
C78 C 0.52671 0.95799 0.47364 0.0
C79 C 0.51812 0.9689 0.48707 0.0
N80 N 0.49962 0.022 0.52109 0.0
C81 C 0.49299 0.05359 0.52658 0.0
C82 C 0.48018 0.04275 0.54714 0.0
C83 C 0.47738 0.02139 0.55446 0.0
C84 C 0.48713 0.01141 0.54129 0.0
C85 C 0.50254 0.04304 0.51398 0.0
H86 H 0.48424 0.99506 0.54777 0.0
H87 H 0.51224 0.05227 0.49855 0.0
H88 H 0.55059 0.0232 0.46382 0.0
H89 H 0.50488 0.95799 0.49983 0.0
C90 C 0.48499 0.95926 0.53669 0.0
C91 C 0.5618 0.03127 0.53983 0.0
C92 C 0.46289 0.98405 0.46669 0.0
C93 C 0.54124 0.05478 0.46808 0.0
H94 H 0.55417 0.99747 0.57595 0.0
H95 H 0.51217 0.95769 0.57421 0.0
H96 H 0.43672 0.9266 0.52524 0.0
H97 H 0.42467 0.94044 0.48712 0.0
H98 H 0.47318 0.01529 0.42716 0.0
H99 H 0.51613 0.05405 0.42764 0.0
H100 H 0.58689 0.09057 0.48354 0.0
H101 H 0.59802 0.07731 0.52282 0.0
H102 H 0.56625 0.0057 0.44056 0.0
H103 H 0.51977 0.93947 0.47675 0.0
H104 H 0.49594 0.07032 0.52034 0.0
H105 H 0.46736 0.01215 0.57014 0.0
C106 C 0.54697 0.53293 0.97398 0.0
C107 C 0.55021 0.54685 0.95428 0.0
C108 C 0.52976 0.54699 0.95173 0.0
C109 C 0.51522 0.53314 0.96985 0.0
N110 N 0.5251 0.52413 0.9839 0.0
Co111 Co 0.50983 0.50255 0.01191 0.0
N112 N 0.47982 0.50299 0.00822 0.0
C113 C 0.47537 0.51475 0.9915 0.0
C114 C 0.45313 0.51148 0.99316 0.0
C115 C 0.44271 0.49689 0.01217 0.0
C116 C 0.45937 0.4922 0.02118 0.0
N117 N 0.49446 0.48076 0.0398 0.0
C118 C 0.47272 0.47221 0.04992 0.0
C119 C 0.46947 0.45814 0.0695 0.0
C120 C 0.48968 0.45752 0.07167 0.0
C121 C 0.50416 0.4713 0.05351 0.0
N122 N 0.53997 0.50233 0.01576 0.0
C123 C 0.54455 0.49079 0.03261 0.0
C124 C 0.56688 0.4942 0.03098 0.0
C125 C 0.57724 0.50878 0.01193 0.0
C126 C 0.56051 0.51335 0.00294 0.0
N127 N 0.52289 0.53001 0.03184 0.0
C128 C 0.53965 0.5679 0.06129 0.0
C129 C 0.54071 0.54828 0.06772 0.0
C130 C 0.53245 0.52981 0.05285 0.0
C131 C 0.53055 0.56851 0.03961 0.0
C132 C 0.52222 0.54945 0.0253 0.0
N133 N 0.49671 0.47504 0.99202 0.0
C134 C 0.48972 0.43677 0.9846 0.0
C135 C 0.4776 0.43555 0.96433 0.0
C136 C 0.47535 0.45454 0.95809 0.0
C137 C 0.48499 0.47395 0.97203 0.0
C138 C 0.49902 0.45645 0.99803 0.0
H139 H 0.48271 0.48783 0.96625 0.0
H140 H 0.50786 0.4561 0.01329 0.0
H141 H 0.53393 0.51552 0.05884 0.0
H142 H 0.51512 0.55076 0.00914 0.0
C143 C 0.49227 0.52837 0.97419 0.0
C144 C 0.5651 0.52844 0.98234 0.0
C145 C 0.45482 0.47728 0.04197 0.0
C146 C 0.52738 0.47658 0.04953 0.0
H147 H 0.56572 0.5559 0.94287 0.0
H148 H 0.52592 0.55606 0.93824 0.0
H149 H 0.44534 0.51873 0.98181 0.0
H150 H 0.4248 0.49037 0.01856 0.0
H151 H 0.45421 0.44943 0.08123 0.0
H152 H 0.49355 0.44845 0.08514 0.0
H153 H 0.57467 0.48692 0.04227 0.0
H154 H 0.59513 0.51533 0.00542 0.0
H155 H 0.54807 0.54722 0.08417 0.0
H156 H 0.52937 0.58337 0.03389 0.0
H157 H 0.49167 0.42239 0.9904 0.0
H158 H 0.46637 0.45459 0.94239 0.0
C159 C 0.96326 0.4514 0.5192 0.0
C160 C 0.94 0.43471 0.51339 0.0
C161 C 0.93422 0.44423 0.49527 0.0
C162 C 0.95415 0.46611 0.49113 0.0
N163 N 0.97241 0.47113 0.5054 0.0
Co164 Co 0.00429 0.50133 0.50603 0.0
N165 N 0.9958 0.51526 0.47924 0.0
C166 C 0.97528 0.50462 0.46723 0.0
C167 C 0.97498 0.5181 0.44905 0.0
C168 C 0.99667 0.53857 0.44933 0.0
C169 C 0.00893 0.53645 0.46788 0.0
N170 N 0.03592 0.53173 0.50711 0.0
C171 C 0.04489 0.55168 0.49369 0.0
C172 C 0.06726 0.56912 0.501 0.0
C173 C 0.07281 0.55973 0.5194 0.0
C174 C 0.05354 0.53729 0.52243 0.0
N175 N 0.01309 0.4872 0.53239 0.0
C176 C 0.03412 0.49732 0.54358 0.0
C177 C 0.03505 0.48318 0.56066 0.0
C178 C 0.01331 0.46276 0.56044 0.0
C179 C 0.00029 0.46572 0.54321 0.0
N180 N 0.01782 0.48928 0.48395 0.0
C181 C 0.03736 0.47204 0.45307 0.0
C182 C 0.05036 0.4852 0.47179 0.0
C183 C 0.0404 0.49359 0.48679 0.0
C184 C 0.01432 0.46765 0.45009 0.0
C185 C 0.00499 0.47639 0.46559 0.0
N186 N 0.99075 0.51336 0.52817 0.0
C187 C 0.99224 0.52986 0.565 0.0
C188 C 0.9714 0.52966 0.56028 0.0
C189 C 0.96049 0.52141 0.53908 0.0
C190 C 0.9703 0.51325 0.52345 0.0
C191 C 0.00157 0.52185 0.54884 0.0
H192 H 0.96096 0.50682 0.50775 0.0
H193 H 0.01758 0.52272 0.55355 0.0
H194 H 0.05133 0.50345 0.50063 0.0
H195 H 0.98738 0.47251 0.46236 0.0
C196 C 0.95648 0.48206 0.47363 0.0
C197 C 0.97573 0.44777 0.53812 0.0
C198 C 0.0331 0.55489 0.47377 0.0
C199 C 0.05207 0.52066 0.53865 0.0
H200 H 0.92841 0.41746 0.52146 0.0
H201 H 0.91749 0.43616 0.48617 0.0
H202 H 0.96073 0.51354 0.43697 0.0
H203 H 0.00279 0.55332 0.43713 0.0
H204 H 0.07852 0.58677 0.4937 0.0
H205 H 0.08909 0.56817 0.52921 0.0
H206 H 0.04964 0.48736 0.57218 0.0
H207 H 0.00756 0.44751 0.57185 0.0
H208 H 0.0681 0.48875 0.47519 0.0
H209 H 0.00357 0.45772 0.43575 0.0
H210 H 0.00156 0.53648 0.58104 0.0
H211 H 0.94422 0.52084 0.53472 0.0
C212 C 0.48173 0.00988 0.05188 0.0
C213 C 0.48406 0.0239 0.06994 0.0
C214 C 0.50597 0.04403 0.06723 0.0
C215 C 0.51576 0.04111 0.04784 0.0
N216 N 0.50136 0.02043 0.0378 0.0
Co217 Co 0.50913 0.00845 0.01011 0.0
N218 N 0.5417 0.03771 0.00666 0.0
C219 C 0.55063 0.05714 0.01914 0.0
C220 C 0.5732 0.07473 0.01235 0.0
C221 C 0.57909 0.06606 0.99444 0.0
C222 C 0.55974 0.04349 0.99145 0.0
N223 N 0.51727 0.99598 0.98307 0.0
C224 C 0.53796 0.00527 0.97073 0.0
C225 C 0.53649 0.9901 0.95426 0.0
C226 C 0.51403 0.97063 0.95611 0.0
C227 C 0.50317 0.97488 0.97365 0.0
N228 N 0.47624 0.97954 0.01305 0.0
C229 C 0.46619 0.96133 0.99882 0.0
C230 C 0.44324 0.94416 0.00504 0.0
C231 C 0.4383 0.95181 0.02446 0.0
C232 C 0.45868 0.97324 0.029 0.0
N233 N 0.49639 0.02321 0.98904 0.0
C234 C 0.47847 0.04407 0.95891 0.0
C235 C 0.47578 0.02264 0.95413 0.0
C236 C 0.48468 0.01258 0.96932 0.0
C237 C 0.49019 0.05488 0.97907 0.0
C238 C 0.49906 0.04431 0.99369 0.0
N239 N 0.52183 0.99376 0.03106 0.0
C240 C 0.5223 0.95963 0.04478 0.0
C241 C 0.53991 0.97284 0.06072 0.0
C242 C 0.54837 0.99672 0.06155 0.0
C243 C 0.53907 0.00672 0.04676 0.0
C244 C 0.51365 0.97036 0.03018 0.0
H245 H 0.54602 0.02495 0.04839 0.0
H246 H 0.50037 0.95938 0.01829 0.0
H247 H 0.48175 0.99615 0.96468 0.0
H248 H 0.50804 0.05363 0.00859 0.0
C249 C 0.53815 0.05764 0.03826 0.0
C250 C 0.46066 0.98661 0.04899 0.0
C251 C 0.55941 0.02825 0.97402 0.0
C252 C 0.47955 0.95976 0.98119 0.0
H253 H 0.47125 0.01995 0.08369 0.0
H254 H 0.51384 0.05898 0.07813 0.0
H255 H 0.58423 0.09168 0.01981 0.0
H256 H 0.59584 0.07525 0.9848 0.0
H257 H 0.55024 0.99277 0.94216 0.0
H258 H 0.5065 0.95521 0.94588 0.0
H259 H 0.43171 0.92773 0.99683 0.0
H260 H 0.42175 0.94249 0.03441 0.0
H261 H 0.46649 0.01342 0.93887 0.0
H262 H 0.49285 0.07161 0.9834 0.0
H263 H 0.51539 0.94111 0.04335 0.0
H264 H 0.56183 0.00759 0.07383 0.0
C265 C 0.52284 0.55149 0.49485 0.0
C266 C 0.51743 0.56764 0.50204 0.0
C267 C 0.50207 0.55738 0.52049 0.0
C268 C 0.49905 0.5357 0.52362 0.0
N269 N 0.51165 0.53147 0.50836 0.0
Co270 Co 0.51227 0.50204 0.5068 0.0
N271 N 0.49084 0.48761 0.5349 0.0
C272 C 0.48247 0.49786 0.54827 0.0
C273 C 0.46925 0.48422 0.56709 0.0
C274 C 0.46917 0.464 0.56576 0.0
C275 C 0.48222 0.46641 0.54596 0.0
N276 N 0.51206 0.47224 0.50462 0.0
C277 C 0.50037 0.45201 0.51775 0.0
C278 C 0.50385 0.43501 0.50919 0.0
C279 C 0.51856 0.44496 0.49027 0.0
C280 C 0.52299 0.46725 0.48817 0.0
N281 N 0.53454 0.51686 0.47932 0.0
C282 C 0.54433 0.50726 0.46697 0.0
C283 C 0.55903 0.52156 0.44915 0.0
C284 C 0.55883 0.54164 0.45026 0.0
C285 C 0.54403 0.53844 0.46886 0.0
N286 N 0.54039 0.51518 0.5272 0.0
C287 C 0.58036 0.5344 0.55605 0.0
C288 C 0.57802 0.51987 0.53831 0.0
C289 C 0.55811 0.51065 0.52406 0.0
C290 C 0.56237 0.53905 0.55918 0.0
C291 C 0.54267 0.52923 0.54481 0.0
N292 N 0.48416 0.48905 0.4864 0.0
C293 C 0.46603 0.47462 0.44944 0.0
C294 C 0.44581 0.4748 0.45602 0.0
C295 C 0.44467 0.48121 0.4784 0.0
C296 C 0.46386 0.48819 0.49316 0.0
C297 C 0.48478 0.48158 0.46484 0.0
H298 H 0.462 0.49335 0.50976 0.0
H299 H 0.49972 0.48115 0.45876 0.0
H300 H 0.55748 0.49998 0.51058 0.0
H301 H 0.52952 0.53329 0.54839 0.0
C302 C 0.48629 0.51984 0.542 0.0
C303 C 0.53929 0.55629 0.4756 0.0
C304 C 0.48586 0.44807 0.5384 0.0
C305 C 0.53809 0.48419 0.47152 0.0
H306 H 0.5242 0.58523 0.49503 0.0
H307 H 0.49454 0.56507 0.5308 0.0
H308 H 0.46053 0.48839 0.58012 0.0
H309 H 0.46043 0.44916 0.578 0.0
H310 H 0.49655 0.41722 0.51587 0.0
H311 H 0.5253 0.43692 0.47939 0.0
H312 H 0.56841 0.51768 0.4366 0.0
H313 H 0.56832 0.5568 0.43849 0.0
H314 H 0.59166 0.51591 0.53522 0.0
H315 H 0.56328 0.54994 0.57296 0.0
H316 H 0.46751 0.46939 0.43237 0.0
H317 H 0.42945 0.48178 0.48426 0.0
C318 C 0.10757 0.3781 0.3869 0.0
C319 C 0.11635 0.40086 0.37245 0.0
C320 C 0.12922 0.39894 0.3342 0.0
C321 C 0.14969 0.42118 0.32988 0.0
C322 C 0.16836 0.42409 0.31573 0.0
C323 C 0.16657 0.40422 0.30604 0.0
C324 C 0.14553 0.38182 0.30987 0.0
C325 C 0.12689 0.37954 0.32365 0.0
C326 C 0.19024 0.44832 0.31165 0.0
C327 C 0.14308 0.3602 0.30011 0.0
C328 C 0.34541 0.44788 0.36439 0.0
C329 C 0.32881 0.44733 0.34681 0.0
C330 C 0.28698 0.42403 0.3361 0.0
C331 C 0.26675 0.40141 0.33527 0.0
C332 C 0.24671 0.39704 0.32255 0.0
C333 C 0.24682 0.41593 0.31083 0.0
C334 C 0.26679 0.43904 0.31251 0.0
C335 C 0.28679 0.4428 0.32476 0.0
C336 C 0.22566 0.37221 0.32123 0.0
C337 C 0.26721 0.45981 0.30104 0.0
C338 C 0.29815 0.4297 0.16323 0.0
C339 C 0.27743 0.40709 0.1651 0.0
C340 C 0.25681 0.40314 0.17652 0.0
C341 C 0.25675 0.42219 0.18596 0.0
C342 C 0.2775 0.44499 0.1839 0.0
C343 C 0.298 0.44838 0.17274 0.0
C344 C 0.23509 0.37856 0.1786 0.0
C345 C 0.27805 0.46578 0.19353 0.0
C346 C 0.07901 0.3902 0.16281 0.0
C347 C 0.1031 0.41143 0.15469 0.0
C348 C 0.13734 0.40704 0.15675 0.0
C349 C 0.14066 0.38824 0.15884 0.0
C350 C 0.1601 0.39028 0.17094 0.0
C351 C 0.17691 0.41192 0.18054 0.0
C352 C 0.17451 0.43151 0.17701 0.0
C353 C 0.15462 0.42881 0.16524 0.0
C354 C 0.16229 0.36914 0.17404 0.0
C355 C 0.19261 0.45509 0.18621 0.0
C356 C 0.18738 0.40669 0.29338 0.0
C357 C 0.20613 0.40861 0.30652 0.0
C358 C 0.2266 0.41162 0.29596 0.0
C359 C 0.22838 0.41228 0.27158 0.0
C360 C 0.24844 0.41457 0.26043 0.0
C361 C 0.25059 0.4163 0.23644 0.0
C362 C 0.23274 0.41577 0.22264 0.0
C363 C 0.2351 0.41822 0.19824 0.0
C364 C 0.21675 0.41709 0.18502 0.0
C365 C 0.19601 0.4136 0.19553 0.0
C366 C 0.1935 0.41147 0.21993 0.0
C367 C 0.17299 0.40821 0.2311 0.0
C368 C 0.17095 0.40671 0.25512 0.0
C369 C 0.18913 0.40798 0.26893 0.0
C370 C 0.20977 0.41083 0.25802 0.0
C371 C 0.21198 0.41265 0.23351 0.0
C372 C 0.34297 0.42974 0.12502 0.0
C373 C 0.32089 0.41861 0.13949 0.0
O374 O 0.11203 0.39582 0.34928 0.0
O375 O 0.1173 0.40365 0.14649 0.0
O376 O 0.31851 0.43421 0.15241 0.0
O377 O 0.30625 0.42707 0.34786 0.0
H378 H 0.13594 0.41217 0.3754 0.0
H379 H 0.1178 0.37008 0.38189 0.0
H380 H 0.08832 0.36526 0.38404 0.0
H381 H 0.11035 0.38177 0.40559 0.0
H382 H 0.15113 0.43617 0.33787 0.0
H383 H 0.11089 0.36246 0.32709 0.0
H384 H 0.20542 0.44957 0.3213 0.0
H385 H 0.18741 0.46222 0.31747 0.0
H386 H 0.19533 0.45164 0.293 0.0
H387 H 0.12616 0.34392 0.30578 0.0
H388 H 0.15833 0.35861 0.30558 0.0
H389 H 0.14358 0.36174 0.28094 0.0
H390 H 0.3363 0.45326 0.32888 0.0
H391 H 0.33771 0.42917 0.37101 0.0
H392 H 0.35144 0.47675 0.38707 0.0
H393 H 0.36053 0.44884 0.35433 0.0
H394 H 0.26695 0.38706 0.34421 0.0
H395 H 0.30218 0.46048 0.32537 0.0
H396 H 0.22155 0.36759 0.30286 0.0
H397 H 0.20967 0.37078 0.32923 0.0
H398 H 0.22892 0.3593 0.33021 0.0
H399 H 0.28194 0.47674 0.30745 0.0
H400 H 0.25 0.45861 0.30407 0.0
H401 H 0.26975 0.45988 0.28209 0.0
H402 H 0.31636 0.40208 0.14917 0.0
H403 H 0.27725 0.39242 0.15785 0.0
H404 H 0.31402 0.46574 0.17119 0.0
H405 H 0.22898 0.37385 0.19694 0.0
H406 H 0.23862 0.36535 0.17208 0.0
H407 H 0.22032 0.37774 0.16856 0.0
H408 H 0.29477 0.48263 0.18868 0.0
H409 H 0.27654 0.46378 0.21268 0.0
H410 H 0.26257 0.46656 0.1872 0.0
H411 H 0.11124 0.42238 0.16999 0.0
H412 H 0.06728 0.39597 0.16953 0.0
H413 H 0.08176 0.38027 0.17694 0.0
H414 H 0.06992 0.37829 0.14838 0.0
H415 H 0.12741 0.37165 0.15178 0.0
H416 H 0.15252 0.44365 0.16272 0.0
H417 H 0.1631 0.36527 0.19274 0.0
H418 H 0.17916 0.37296 0.16573 0.0
H419 H 0.14714 0.3533 0.16638 0.0
H420 H 0.19003 0.4692 0.1793 0.0
H421 H 0.21101 0.45977 0.18172 0.0
H422 H 0.191 0.45421 0.20535 0.0
H423 H 0.20499 0.40826 0.32525 0.0
H424 H 0.26281 0.41518 0.27014 0.0
H425 H 0.26651 0.4182 0.22886 0.0
H426 H 0.2186 0.4189 0.16631 0.0
H427 H 0.15833 0.40698 0.22141 0.0
H428 H 0.15494 0.40456 0.26274 0.0
H429 H 0.35321 0.42154 0.13143 0.0
H430 H 0.35573 0.44736 0.13247 0.0
H431 H 0.32957 0.42555 0.08881 0.0
C432 C 0.84842 0.28575 0.88535 0.0
C433 C 0.87235 0.29155 0.87492 0.0
C434 C 0.85932 0.27522 0.83736 0.0
C435 C 0.86338 0.25681 0.83739 0.0
C436 C 0.84935 0.23718 0.82406 0.0
C437 C 0.83064 0.23588 0.81077 0.0
C438 C 0.82677 0.25469 0.81052 0.0
C439 C 0.84157 0.27438 0.82347 0.0
C440 C 0.85429 0.21772 0.82444 0.0
C441 C 0.80665 0.2538 0.79709 0.0
C442 C 0.69945 0.06343 0.85537 0.0
C443 C 0.70157 0.084 0.86808 0.0
C444 C 0.72169 0.11833 0.84068 0.0
C445 C 0.71846 0.13452 0.8281 0.0
C446 C 0.73726 0.15325 0.81524 0.0
C447 C 0.75978 0.15544 0.81448 0.0
C448 C 0.76329 0.13921 0.8273 0.0
C449 C 0.74425 0.12088 0.84044 0.0
C450 C 0.73298 0.1706 0.80236 0.0
C451 C 0.78711 0.14111 0.82688 0.0
C452 C 0.72446 0.11294 0.66798 0.0
C453 C 0.72064 0.13028 0.67552 0.0
C454 C 0.73886 0.15008 0.68634 0.0
C455 C 0.76134 0.15255 0.68965 0.0
C456 C 0.76549 0.13552 0.68129 0.0
C457 C 0.74701 0.11602 0.67032 0.0
C458 C 0.73405 0.16827 0.69442 0.0
C459 C 0.78928 0.13772 0.68434 0.0
C460 C 0.92188 0.31222 0.66652 0.0
C461 C 0.90586 0.30486 0.64525 0.0
C462 C 0.8663 0.27549 0.66208 0.0
C463 C 0.84409 0.27164 0.66845 0.0
C464 C 0.82691 0.25082 0.68026 0.0
C465 C 0.83218 0.23342 0.68585 0.0
C466 C 0.85429 0.23679 0.67882 0.0
C467 C 0.87115 0.25778 0.66695 0.0
C468 C 0.80337 0.24766 0.6873 0.0
C469 C 0.86033 0.21846 0.68443 0.0
C470 C 0.81436 0.2144 0.79809 0.0
C471 C 0.79641 0.19493 0.81087 0.0
C472 C 0.77947 0.1746 0.80004 0.0
C473 C 0.78035 0.17347 0.77574 0.0
C474 C 0.76363 0.15324 0.76429 0.0
C475 C 0.76377 0.1528 0.74028 0.0
C476 C 0.7807 0.17253 0.72678 0.0
C477 C 0.78028 0.17268 0.70232 0.0
C478 C 0.79749 0.19257 0.68946 0.0
C479 C 0.81517 0.21245 0.70039 0.0
C480 C 0.81586 0.21265 0.72482 0.0
C481 C 0.83344 0.23238 0.73634 0.0
C482 C 0.83335 0.23279 0.76036 0.0
C483 C 0.81552 0.21361 0.77376 0.0
C484 C 0.7982 0.1932 0.76254 0.0
C485 C 0.79837 0.19272 0.73804 0.0
C486 C 0.67721 0.0566 0.67538 0.0
C487 C 0.68309 0.08033 0.66491 0.0
O488 O 0.87195 0.2937 0.85102 0.0
O489 O 0.88243 0.29659 0.65169 0.0
O490 O 0.70698 0.09327 0.65807 0.0
O491 O 0.70242 0.10049 0.85238 0.0
H492 H 0.8752 0.27709 0.87998 0.0
H493 H 0.84864 0.28431 0.90453 0.0
H494 H 0.84472 0.29959 0.88018 0.0
H495 H 0.83369 0.2687 0.8792 0.0
H496 H 0.87755 0.25782 0.84782 0.0
H497 H 0.83872 0.28882 0.82357 0.0
H498 H 0.83964 0.2021 0.83405 0.0
H499 H 0.87144 0.22284 0.83291 0.0
H500 H 0.85481 0.21257 0.80655 0.0
H501 H 0.80392 0.26815 0.80145 0.0
H502 H 0.7897 0.23673 0.80055 0.0
H503 H 0.81074 0.25543 0.77829 0.0
H504 H 0.71802 0.09217 0.87862 0.0
H505 H 0.6984 0.05005 0.86803 0.0
H506 H 0.71527 0.06953 0.84392 0.0
H507 H 0.68325 0.05511 0.84455 0.0
H508 H 0.70103 0.13245 0.82847 0.0
H509 H 0.74709 0.10854 0.85015 0.0
H510 H 0.73308 0.16831 0.78348 0.0
H511 H 0.74748 0.18884 0.80581 0.0
H512 H 0.71557 0.16826 0.80726 0.0
H513 H 0.78653 0.12621 0.83649 0.0
H514 H 0.80079 0.15769 0.83472 0.0
H515 H 0.79287 0.14175 0.80872 0.0
H516 H 0.67939 0.08911 0.6787 0.0
H517 H 0.70352 0.1285 0.67278 0.0
H518 H 0.74989 0.10273 0.66405 0.0
H519 H 0.73465 0.16853 0.71359 0.0
H520 H 0.71634 0.16476 0.6889 0.0
H521 H 0.74813 0.18596 0.68756 0.0
H522 H 0.78946 0.12264 0.67742 0.0
H523 H 0.79368 0.13891 0.70299 0.0
H524 H 0.80351 0.15412 0.67535 0.0
H525 H 0.9068 0.29092 0.63651 0.0
H526 H 0.94078 0.31963 0.66116 0.0
H527 H 0.91646 0.29691 0.67855 0.0
H528 H 0.92065 0.32557 0.67604 0.0
H529 H 0.84042 0.28529 0.66448 0.0
H530 H 0.8881 0.26024 0.66192 0.0
H531 H 0.80162 0.24634 0.70645 0.0
H532 H 0.7884 0.23105 0.68062 0.0
H533 H 0.80161 0.2624 0.68075 0.0
H534 H 0.87781 0.22318 0.67681 0.0
H535 H 0.84619 0.2013 0.67792 0.0
H536 H 0.86091 0.21622 0.70349 0.0
H537 H 0.79525 0.19584 0.82946 0.0
H538 H 0.75005 0.1376 0.77376 0.0
H539 H 0.75027 0.13685 0.73242 0.0
H540 H 0.79689 0.19271 0.67071 0.0
H541 H 0.84739 0.24783 0.72693 0.0
H542 H 0.84724 0.24849 0.76828 0.0
H543 H 0.65815 0.04589 0.68104 0.0
H544 H 0.68846 0.05932 0.69071 0.0
H545 H 0.68072 0.04681 0.66261 0.0
C546 C 0.64319 0.73556 0.42279 0.0
C547 C 0.62231 0.72064 0.40688 0.0
C548 C 0.62513 0.73498 0.36733 0.0
C549 C 0.60137 0.72805 0.36329 0.0
C550 C 0.59591 0.74063 0.34725 0.0
C551 C 0.61469 0.76072 0.33526 0.0
C552 C 0.63864 0.76708 0.33858 0.0
C553 C 0.64351 0.75381 0.35435 0.0
C554 C 0.57014 0.73292 0.34373 0.0
C555 C 0.65915 0.78847 0.32626 0.0
C556 C 0.58961 0.90044 0.39219 0.0
C557 C 0.60048 0.88962 0.37945 0.0
C558 C 0.58938 0.85255 0.36233 0.0
C559 C 0.61172 0.86101 0.35157 0.0
C560 C 0.61565 0.84641 0.33808 0.0
C561 C 0.59674 0.82306 0.33485 0.0
C562 C 0.57414 0.81463 0.34536 0.0
C563 C 0.57085 0.82946 0.35911 0.0
C564 C 0.64008 0.8559 0.32742 0.0
C565 C 0.55351 0.7899 0.34219 0.0
C566 C 0.59165 0.86092 0.18542 0.0
C567 C 0.61424 0.86616 0.19282 0.0
C568 C 0.61688 0.84911 0.2047 0.0
C569 C 0.59657 0.82643 0.20936 0.0
C570 C 0.57394 0.82095 0.2015 0.0
C571 C 0.57182 0.83828 0.18954 0.0
C572 C 0.64136 0.85542 0.21257 0.0
C573 C 0.55195 0.79692 0.20613 0.0
C574 C 0.63563 0.69245 0.18344 0.0
C575 C 0.61299 0.69258 0.17815 0.0
C576 C 0.61557 0.72955 0.18319 0.0
C577 C 0.63418 0.75285 0.18501 0.0
C578 C 0.63139 0.76831 0.19825 0.0
C579 C 0.60913 0.76034 0.20931 0.0
C580 C 0.58989 0.73697 0.20668 0.0
C581 C 0.59338 0.72176 0.19377 0.0
C582 C 0.65228 0.7931 0.20052 0.0
C583 C 0.56562 0.72813 0.2174 0.0
C584 C 0.60942 0.77629 0.32111 0.0
C585 C 0.60561 0.79182 0.33288 0.0
C586 C 0.60073 0.80724 0.321 0.0
C587 C 0.59982 0.80743 0.29658 0.0
C588 C 0.59511 0.82281 0.28405 0.0
C589 C 0.59482 0.82327 0.26 0.0
C590 C 0.59887 0.80812 0.24756 0.0
C591 C 0.59897 0.80874 0.22311 0.0
C592 C 0.60217 0.79287 0.21126 0.0
C593 C 0.60583 0.77659 0.22317 0.0
C594 C 0.60661 0.77623 0.24764 0.0
C595 C 0.61102 0.76063 0.26021 0.0
C596 C 0.61176 0.76047 0.28428 0.0
C597 C 0.60833 0.77603 0.29669 0.0
C598 C 0.6037 0.79181 0.28439 0.0
C599 C 0.60299 0.792 0.25985 0.0
C600 C 0.60808 0.91329 0.19406 0.0
C601 C 0.60418 0.90096 0.17123 0.0
O602 O 0.63074 0.72428 0.38426 0.0
O603 O 0.61938 0.71507 0.17084 0.0
O604 O 0.58803 0.87702 0.17451 0.0
O605 O 0.58501 0.86592 0.37599 0.0
H606 H 0.60983 0.72692 0.40885 0.0
H607 H 0.65075 0.75445 0.41839 0.0
H608 H 0.65767 0.73199 0.42073 0.0
H609 H 0.63699 0.73201 0.44116 0.0
H610 H 0.58714 0.71302 0.37299 0.0
H611 H 0.66179 0.75881 0.35748 0.0
H612 H 0.56645 0.74512 0.3524 0.0
H613 H 0.55766 0.71489 0.35107 0.0
H614 H 0.56653 0.73351 0.32503 0.0
H615 H 0.67678 0.79161 0.33153 0.0
H616 H 0.65853 0.80421 0.32992 0.0
H617 H 0.65752 0.78631 0.30729 0.0
H618 H 0.61862 0.89445 0.38519 0.0
H619 H 0.60022 0.90695 0.40853 0.0
H620 H 0.57311 0.8856 0.40136 0.0
H621 H 0.58861 0.92504 0.36573 0.0
H622 H 0.62625 0.87888 0.35378 0.0
H623 H 0.55367 0.82308 0.36741 0.0
H624 H 0.63897 0.85653 0.30829 0.0
H625 H 0.64655 0.84407 0.33213 0.0
H626 H 0.65339 0.8738 0.33304 0.0
H627 H 0.53647 0.78684 0.34936 0.0
H628 H 0.55738 0.77739 0.35105 0.0
H629 H 0.55123 0.78603 0.32354 0.0
H630 H 0.62149 0.90419 0.16459 0.0
H631 H 0.62987 0.88348 0.18958 0.0
H632 H 0.5545 0.83434 0.18366 0.0
H633 H 0.64163 0.85471 0.23176 0.0
H634 H 0.65562 0.87324 0.20616 0.0
H635 H 0.64546 0.84248 0.20644 0.0
H636 H 0.53557 0.79552 0.19911 0.0
H637 H 0.54941 0.79281 0.22505 0.0
H638 H 0.55434 0.78352 0.19822 0.0
H639 H 0.60221 0.68709 0.19453 0.0
H640 H 0.63097 0.67461 0.18947 0.0
H641 H 0.64564 0.70477 0.19731 0.0
H642 H 0.64742 0.69801 0.16781 0.0
H643 H 0.65114 0.75873 0.17648 0.0
H644 H 0.57873 0.70389 0.19165 0.0
H645 H 0.65511 0.79758 0.21901 0.0
H646 H 0.64834 0.80545 0.19139 0.0
H647 H 0.66905 0.79575 0.19308 0.0
H648 H 0.55193 0.71039 0.2117 0.0
H649 H 0.55968 0.74042 0.21286 0.0
H650 H 0.56675 0.7273 0.23652 0.0
H651 H 0.60648 0.79193 0.35161 0.0
H652 H 0.5918 0.83483 0.29268 0.0
H653 H 0.5913 0.83564 0.25129 0.0
H654 H 0.60201 0.79335 0.1925 0.0
H655 H 0.614 0.7484 0.25157 0.0
H656 H 0.61515 0.74804 0.29305 0.0
H657 H 0.62075 0.9325 0.19132 0.0
H658 H 0.61577 0.90678 0.20716 0.0
H659 H 0.59088 0.91004 0.20103 0.0
C660 C 0.74193 0.5998 0.92219 0.0
C661 C 0.72514 0.59749 0.90261 0.0
C662 C 0.74221 0.58723 0.87084 0.0
C663 C 0.76238 0.60986 0.86638 0.0
C664 C 0.78067 0.61354 0.85119 0.0
C665 C 0.77897 0.59422 0.84038 0.0
C666 C 0.75853 0.5715 0.8445 0.0
C667 C 0.74029 0.56839 0.85946 0.0
C668 C 0.80207 0.63807 0.847 0.0
C669 C 0.75617 0.55042 0.83348 0.0
C670 C 0.95232 0.63843 0.86495 0.0
C671 C 0.93374 0.62 0.88231 0.0
C672 C 0.89594 0.60311 0.86094 0.0
C673 C 0.87829 0.58287 0.85054 0.0
C674 C 0.85909 0.58217 0.83932 0.0
C675 C 0.85784 0.60253 0.83802 0.0
C676 C 0.87541 0.62302 0.84887 0.0
C677 C 0.89418 0.62304 0.86046 0.0
C678 C 0.8403 0.55975 0.8286 0.0
C679 C 0.87452 0.64497 0.84797 0.0
C680 C 0.89537 0.61157 0.68618 0.0
C681 C 0.87809 0.59012 0.69697 0.0
C682 C 0.8593 0.58828 0.71009 0.0
C683 C 0.85799 0.60842 0.71266 0.0
C684 C 0.87512 0.62994 0.70132 0.0
C685 C 0.89342 0.63112 0.68793 0.0
C686 C 0.84083 0.56481 0.72113 0.0
C687 C 0.87421 0.65171 0.70351 0.0
C688 C 0.6997 0.60584 0.69447 0.0
C689 C 0.71088 0.60239 0.67305 0.0
C690 C 0.73838 0.59172 0.69006 0.0
C691 C 0.7411 0.57286 0.69535 0.0
C692 C 0.76084 0.57592 0.70764 0.0
C693 C 0.77845 0.59856 0.71459 0.0
C694 C 0.77609 0.61787 0.70898 0.0
C695 C 0.75599 0.61426 0.69689 0.0
C696 C 0.76281 0.55494 0.71332 0.0
C697 C 0.79478 0.64229 0.71589 0.0
C698 C 0.79921 0.59768 0.82588 0.0
C699 C 0.81865 0.59908 0.83723 0.0
C700 C 0.83843 0.60244 0.82488 0.0
C701 C 0.83903 0.60459 0.80045 0.0
C702 C 0.85888 0.60848 0.78749 0.0
C703 C 0.8589 0.60955 0.76343 0.0
C704 C 0.83908 0.60679 0.75139 0.0
C705 C 0.8385 0.60686 0.72693 0.0
C706 C 0.81869 0.60453 0.71554 0.0
C707 C 0.79924 0.60193 0.72788 0.0
C708 C 0.79933 0.60151 0.75233 0.0
C709 C 0.77993 0.59867 0.76529 0.0
C710 C 0.77999 0.5978 0.78937 0.0
C711 C 0.79931 0.59938 0.80142 0.0
C712 C 0.81924 0.60268 0.78868 0.0
C713 C 0.81927 0.60379 0.76412 0.0
C714 C 0.95269 0.62559 0.6864 0.0
C715 C 0.92791 0.60508 0.68039 0.0
O716 O 0.72446 0.58271 0.88612 0.0
O717 O 0.71849 0.58718 0.67848 0.0
O718 O 0.9138 0.61378 0.67359 0.0
O719 O 0.91432 0.6025 0.87086 0.0
H720 H 0.73155 0.61511 0.89442 0.0
H721 H 0.73614 0.58229 0.93027 0.0
H722 H 0.76049 0.60786 0.91547 0.0
H723 H 0.74205 0.61119 0.93565 0.0
H724 H 0.76418 0.62478 0.87476 0.0
H725 H 0.72465 0.55102 0.86285 0.0
H726 H 0.81793 0.63937 0.85522 0.0
H727 H 0.79934 0.65155 0.85423 0.0
H728 H 0.80603 0.64202 0.82817 0.0
H729 H 0.73997 0.53374 0.83973 0.0
H730 H 0.77215 0.54945 0.8372 0.0
H731 H 0.75521 0.5522 0.81443 0.0
H732 H 0.92771 0.62857 0.89417 0.0
H733 H 0.96812 0.65205 0.87423 0.0
H734 H 0.94478 0.64727 0.85482 0.0
H735 H 0.95823 0.63014 0.85265 0.0
H736 H 0.87969 0.56752 0.85118 0.0
H737 H 0.90744 0.63873 0.86879 0.0
H738 H 0.84207 0.56204 0.80947 0.0
H739 H 0.82214 0.5555 0.83348 0.0
H740 H 0.84199 0.54467 0.83397 0.0
H741 H 0.89061 0.66005 0.8555 0.0
H742 H 0.8585 0.64163 0.85771 0.0
H743 H 0.87288 0.6498 0.82979 0.0
H744 H 0.9204 0.59351 0.69631 0.0
H745 H 0.87909 0.57474 0.69485 0.0
H746 H 0.90668 0.6475 0.6792 0.0
H747 H 0.84258 0.56551 0.74021 0.0
H748 H 0.8428 0.55039 0.71529 0.0
H749 H 0.82257 0.56068 0.71703 0.0
H750 H 0.89001 0.6675 0.69529 0.0
H751 H 0.87321 0.65488 0.72205 0.0
H752 H 0.85785 0.64915 0.69517 0.0
H753 H 0.72624 0.61961 0.66653 0.0
H754 H 0.69345 0.61793 0.69014 0.0
H755 H 0.71302 0.61361 0.70837 0.0
H756 H 0.6843 0.58877 0.70117 0.0
H757 H 0.72747 0.55557 0.68996 0.0
H758 H 0.75426 0.62911 0.69294 0.0
H759 H 0.76476 0.55335 0.73226 0.0
H760 H 0.77903 0.5574 0.70474 0.0
H761 H 0.74701 0.53833 0.70763 0.0
H762 H 0.79109 0.65569 0.70905 0.0
H763 H 0.81266 0.64695 0.70948 0.0
H764 H 0.79547 0.64284 0.73504 0.0
H765 H 0.81829 0.59734 0.85598 0.0
H766 H 0.87459 0.61058 0.79581 0.0
H767 H 0.87459 0.6124 0.75439 0.0
H768 H 0.81826 0.60441 0.69679 0.0
H769 H 0.76441 0.59702 0.75696 0.0
H770 H 0.76458 0.59559 0.79843 0.0
H771 H 0.96431 0.61907 0.69215 0.0
H772 H 0.95112 0.63527 0.7007 0.0
H773 H 0.96122 0.63793 0.67118 0.0
C774 C 0.1415 0.7288 0.40825 0.0
C775 C 0.12838 0.71177 0.38888 0.0
C776 C 0.15872 0.73133 0.35766 0.0
C777 C 0.15452 0.74935 0.35207 0.0
C778 C 0.17003 0.76822 0.33698 0.0
C779 C 0.19028 0.76926 0.32747 0.0
C780 C 0.19437 0.751 0.33279 0.0
C781 C 0.1783 0.7321 0.34758 0.0
C782 C 0.16499 0.78729 0.33151 0.0
C783 C 0.21599 0.75171 0.3233 0.0
C784 C 0.28641 0.90067 0.41229 0.0
C785 C 0.30187 0.89699 0.3955 0.0
C786 C 0.28647 0.88664 0.35692 0.0
C787 C 0.29184 0.86965 0.35218 0.0
C788 C 0.27794 0.8519 0.33683 0.0
C789 C 0.25818 0.85109 0.32618 0.0
C790 C 0.25335 0.86881 0.33024 0.0
C791 C 0.26788 0.88664 0.34533 0.0
C792 C 0.28396 0.83364 0.33249 0.0
C793 C 0.23232 0.8684 0.31938 0.0
C794 C 0.29651 0.89628 0.17842 0.0
C795 C 0.3021 0.87955 0.18537 0.0
C796 C 0.28485 0.85822 0.19643 0.0
C797 C 0.26159 0.85358 0.20055 0.0
C798 C 0.2556 0.86989 0.19242 0.0
C799 C 0.27314 0.89098 0.18123 0.0
C800 C 0.29159 0.84085 0.20423 0.0
C801 C 0.23087 0.86533 0.19621 0.0
C802 C 0.10939 0.68798 0.18511 0.0
C803 C 0.1229 0.70044 0.16245 0.0
C804 C 0.16201 0.73098 0.17707 0.0
C805 C 0.1852 0.73643 0.18142 0.0
C806 C 0.2012 0.75617 0.19379 0.0
C807 C 0.19388 0.77107 0.20168 0.0
C808 C 0.17061 0.76603 0.19689 0.0
C809 C 0.15483 0.74594 0.18481 0.0
C810 C 0.22586 0.76099 0.1986 0.0
C811 C 0.16238 0.7818 0.20466 0.0
C812 C 0.20788 0.79015 0.3131 0.0
C813 C 0.22436 0.81019 0.3246 0.0
C814 C 0.24146 0.83065 0.31244 0.0
C815 C 0.24229 0.83124 0.288 0.0
C816 C 0.25934 0.85146 0.2752 0.0
C817 C 0.25984 0.85192 0.25114 0.0
C818 C 0.2435 0.83208 0.23895 0.0
C819 C 0.24398 0.83236 0.2145 0.0
C820 C 0.22756 0.81232 0.20292 0.0
C821 C 0.21052 0.79181 0.21513 0.0
C822 C 0.20968 0.79122 0.2396 0.0
C823 C 0.19273 0.77093 0.25245 0.0
C824 C 0.19194 0.77059 0.2765 0.0
C825 C 0.20833 0.79039 0.28866 0.0
C826 C 0.22563 0.81102 0.27608 0.0
C827 C 0.22626 0.81144 0.25152 0.0
C828 C 0.34098 0.95366 0.18587 0.0
C829 C 0.33676 0.93116 0.17565 0.0
O830 O 0.14467 0.71314 0.37285 0.0
O831 O 0.14732 0.71118 0.16551 0.0
O832 O 0.31316 0.91763 0.16896 0.0
O833 O 0.29853 0.90271 0.37312 0.0
H834 H 0.11609 0.71613 0.38019 0.0
H835 H 0.15179 0.74717 0.40117 0.0
H836 H 0.15411 0.72484 0.4169 0.0
H837 H 0.12851 0.72742 0.42132 0.0
H838 H 0.13932 0.74896 0.35947 0.0
H839 H 0.18135 0.71809 0.35189 0.0
H840 H 0.17867 0.80366 0.33967 0.0
H841 H 0.14707 0.78253 0.33792 0.0
H842 H 0.16617 0.79106 0.31254 0.0
H843 H 0.21746 0.73694 0.33036 0.0
H844 H 0.23249 0.7685 0.32744 0.0
H845 H 0.21499 0.75087 0.30418 0.0
H846 H 0.29555 0.878 0.39747 0.0
H847 H 0.28955 0.89703 0.43042 0.0
H848 H 0.26723 0.88844 0.40851 0.0
H849 H 0.29028 0.91886 0.41052 0.0
H850 H 0.30671 0.87013 0.36076 0.0
H851 H 0.26408 0.90002 0.34899 0.0
H852 H 0.28414 0.8312 0.31363 0.0
H853 H 0.27002 0.81658 0.3407 0.0
H854 H 0.30157 0.83841 0.33963 0.0
H855 H 0.23053 0.88302 0.32492 0.0
H856 H 0.21558 0.85151 0.32407 0.0
H857 H 0.23431 0.86964 0.30026 0.0
H858 H 0.34076 0.922 0.18967 0.0
H859 H 0.3199 0.88312 0.18221 0.0
H860 H 0.26891 0.90383 0.17536 0.0
H861 H 0.29113 0.83933 0.22341 0.0
H862 H 0.30973 0.84613 0.19799 0.0
H863 H 0.27844 0.82324 0.19787 0.0
H864 H 0.229 0.8797 0.18869 0.0
H865 H 0.22669 0.86329 0.21504 0.0
H866 H 0.21747 0.84867 0.18829 0.0
H867 H 0.11866 0.7138 0.15683 0.0
H868 H 0.08981 0.67923 0.18268 0.0
H869 H 0.11454 0.70078 0.19888 0.0
H870 H 0.11351 0.67462 0.19099 0.0
H871 H 0.19064 0.72489 0.17535 0.0
H872 H 0.13702 0.74215 0.18154 0.0
H873 H 0.22925 0.76276 0.21746 0.0
H874 H 0.23943 0.77785 0.18979 0.0
H875 H 0.22829 0.74691 0.19256 0.0
H876 H 0.14461 0.77672 0.19774 0.0
H877 H 0.17553 0.80028 0.19902 0.0
H878 H 0.16123 0.78101 0.22384 0.0
H879 H 0.22386 0.80986 0.34337 0.0
H880 H 0.27243 0.86719 0.28365 0.0
H881 H 0.27329 0.86805 0.24224 0.0
H882 H 0.2281 0.81268 0.18417 0.0
H883 H 0.1798 0.75509 0.24405 0.0
H884 H 0.17838 0.75456 0.28547 0.0
H885 H 0.33667 0.96365 0.1732 0.0
H886 H 0.35991 0.96495 0.19105 0.0
H887 H 0.32939 0.94918 0.20148 0.0
C888 C 0.38273 0.08807 0.65585 0.0
C889 C 0.40426 0.10894 0.64305 0.0
C890 C 0.41932 0.14162 0.66956 0.0
C891 C 0.43886 0.15683 0.68279 0.0
C892 C 0.43934 0.17487 0.69461 0.0
C893 C 0.41929 0.17726 0.69378 0.0
C894 C 0.39935 0.16189 0.68044 0.0
C895 C 0.39969 0.14442 0.66822 0.0
C896 C 0.46134 0.19136 0.70793 0.0
C897 C 0.37765 0.16385 0.67912 0.0
C898 C 0.43594 0.3383 0.62353 0.0
C899 C 0.42471 0.31703 0.63905 0.0
C900 C 0.43654 0.29508 0.66439 0.0
C901 C 0.41342 0.27508 0.66737 0.0
C902 C 0.40957 0.25533 0.68046 0.0
C903 C 0.42922 0.25548 0.69052 0.0
C904 C 0.45256 0.2754 0.68713 0.0
C905 C 0.45585 0.29503 0.67427 0.0
C906 C 0.38446 0.23436 0.68374 0.0
C907 C 0.47397 0.276 0.69725 0.0
C908 C 0.43112 0.29181 0.83991 0.0
C909 C 0.40782 0.27343 0.83503 0.0
C910 C 0.40397 0.254 0.82303 0.0
C911 C 0.42376 0.25285 0.81586 0.0
C912 C 0.4472 0.27123 0.82088 0.0
C913 C 0.45054 0.2905 0.8328 0.0
C914 C 0.37876 0.23474 0.81787 0.0
C915 C 0.4687 0.27055 0.81353 0.0
C916 C 0.3731 0.07065 0.84332 0.0
C917 C 0.39611 0.09428 0.84683 0.0
C918 C 0.39631 0.13049 0.84361 0.0
C919 C 0.37901 0.1363 0.84131 0.0
C920 C 0.38391 0.15665 0.82871 0.0
C921 C 0.40701 0.17192 0.8189 0.0
C922 C 0.42505 0.1668 0.82246 0.0
C923 C 0.4194 0.14594 0.83455 0.0
C924 C 0.36426 0.16159 0.82554 0.0
C925 C 0.45019 0.18317 0.81326 0.0
C926 C 0.41941 0.19607 0.70659 0.0
C927 C 0.42362 0.21611 0.69399 0.0
C928 C 0.42526 0.23501 0.70504 0.0
C929 C 0.42333 0.23431 0.72942 0.0
C930 C 0.42558 0.25329 0.74114 0.0
C931 C 0.42444 0.25275 0.76518 0.0
C932 C 0.42068 0.23308 0.77843 0.0
C933 C 0.41996 0.23255 0.80288 0.0
C934 C 0.41574 0.21254 0.81552 0.0
C935 C 0.41203 0.19281 0.8044 0.0
C936 C 0.4129 0.1931 0.77993 0.0
C937 C 0.40912 0.17356 0.7681 0.0
C938 C 0.41102 0.17439 0.7441 0.0
C939 C 0.41649 0.19469 0.73094 0.0
C940 C 0.41907 0.21412 0.74241 0.0
C941 C 0.41753 0.21343 0.76694 0.0
C942 C 0.42832 0.33486 0.87554 0.0
C943 C 0.41859 0.31501 0.85992 0.0
O944 O 0.42024 0.12454 0.65868 0.0
O945 O 0.39025 0.10986 0.85462 0.0
O946 O 0.43561 0.31099 0.85136 0.0
O947 O 0.44099 0.31471 0.65221 0.0
H948 H 0.39791 0.11799 0.63138 0.0
H949 H 0.37285 0.09399 0.66602 0.0
H950 H 0.38858 0.07892 0.66794 0.0
H951 H 0.37022 0.07542 0.64325 0.0
H952 H 0.45397 0.15464 0.68365 0.0
H953 H 0.38446 0.13297 0.6579 0.0
H954 H 0.46652 0.20983 0.70443 0.0
H955 H 0.47675 0.18976 0.7035 0.0
H956 H 0.45748 0.18732 0.72674 0.0
H957 H 0.36234 0.14854 0.67096 0.0
H958 H 0.38218 0.17994 0.66872 0.0
H959 H 0.37205 0.16541 0.69667 0.0
H960 H 0.40848 0.31335 0.64881 0.0
H961 H 0.42836 0.34897 0.62924 0.0
H962 H 0.42973 0.32413 0.58807 0.0
H963 H 0.45433 0.35069 0.63046 0.0
H964 H 0.3983 0.27483 0.65975 0.0
H965 H 0.47362 0.31049 0.67178 0.0
H966 H 0.38315 0.2189 0.67597 0.0
H967 H 0.37095 0.23737 0.67567 0.0
H968 H 0.38011 0.23004 0.70248 0.0
H969 H 0.49108 0.29192 0.6913 0.0
H970 H 0.47404 0.26023 0.69244 0.0
H971 H 0.4729 0.27568 0.71641 0.0
H972 H 0.40588 0.3143 0.84672 0.0
H973 H 0.39258 0.27413 0.84047 0.0
H974 H 0.46843 0.30471 0.83665 0.0
H975 H 0.37688 0.232 0.79899 0.0
H976 H 0.36531 0.23869 0.82373 0.0
H977 H 0.37482 0.21806 0.82663 0.0
H978 H 0.48567 0.28566 0.81973 0.0
H979 H 0.46962 0.27072 0.79437 0.0
H980 H 0.46696 0.25404 0.82029 0.0
H981 H 0.40545 0.10047 0.82965 0.0
H982 H 0.37728 0.05788 0.83681 0.0
H983 H 0.36188 0.07287 0.83039 0.0
H984 H 0.36271 0.06348 0.85982 0.0
H985 H 0.36134 0.12437 0.84872 0.0
H986 H 0.433 0.14171 0.83704 0.0
H987 H 0.36274 0.16536 0.80697 0.0
H988 H 0.36869 0.17734 0.83511 0.0
H989 H 0.34666 0.1467 0.832 0.0
H990 H 0.46292 0.17883 0.8209 0.0
H991 H 0.4564 0.20162 0.8169 0.0
H992 H 0.45053 0.18192 0.79422 0.0
H993 H 0.42578 0.21707 0.67532 0.0
H994 H 0.42852 0.26891 0.73189 0.0
H995 H 0.42658 0.26799 0.77324 0.0
H996 H 0.41523 0.21227 0.83427 0.0
H997 H 0.40491 0.15746 0.77728 0.0
H998 H 0.4082 0.15891 0.73597 0.0
H999 H 0.42504 0.34802 0.86647 0.0
H1000 H 0.44833 0.34578 0.87256 0.0
H1001 H 0.41198 0.31759 0.91004 0.0
H1002 H 0.0692 0.50494 0.0813 0.0
H1003 H 0.09473 0.40255 0.10836 0.0
H1004 H 0.06042 0.45483 0.03189 0.0
H1005 H 0.10212 0.4514 0.15879 0.0
H1006 H 0.08536 0.4236 0.07915 0.0
H1007 H 0.08442 0.48768 0.1092 0.0
C1008 C 0.07084 0.49049 0.07633 0.0
C1009 C 0.06397 0.4814 0.05436 0.0
C1010 C 0.08927 0.42989 0.09654 0.0
C1011 C 0.08086 0.46138 0.08595 0.0
C1012 C 0.09472 0.41794 0.11316 0.0
C1013 C 0.09951 0.42546 0.13592 0.0
C1014 C 0.08832 0.44936 0.10277 0.0
C1015 C 0.09879 0.44522 0.14137 0.0
C1016 C 0.07942 0.4806 0.09218 0.0
C1017 C 0.06594 0.46246 0.04864 0.0
N1018 N 0.09323 0.45645 0.12493 0.0
N1019 N 0.07417 0.45303 0.06437 0.0
H1020 H 0.56094 0.04861 0.58122 0.0
H1021 H 0.6871 0.0693 0.62035 0.0
H1022 H 0.60611 0.03762 0.53711 0.0
H1023 H 0.64253 0.08211 0.66351 0.0
H1024 H 0.65903 0.06005 0.58873 0.0
H1025 H 0.59188 0.06341 0.61074 0.0
C1026 C 0.57757 0.04959 0.57777 0.0
C1027 C 0.58121 0.04204 0.55688 0.0
C1028 C 0.65551 0.06514 0.60502 0.0
C1029 C 0.61648 0.05858 0.59041 0.0
C1030 C 0.67157 0.07051 0.62302 0.0
C1031 C 0.66727 0.07678 0.64447 0.0
C1032 C 0.63483 0.06579 0.60856 0.0
C1033 C 0.64664 0.07761 0.64717 0.0
C1034 C 0.59518 0.05796 0.59455 0.0
C1035 C 0.60285 0.04342 0.55307 0.0
N1036 N 0.63116 0.07212 0.62947 0.0
N1037 N 0.61967 0.05143 0.56975 0.0
H1038 H 0.56774 0.61537 0.05143 0.0
H1039 H 0.57428 0.64781 0.18424 0.0
H1040 H 0.53041 0.56468 0.10766 0.0
H1041 H 0.62039 0.6976 0.13066 0.0
H1042 H 0.55412 0.61827 0.15523 0.0
H1043 H 0.58333 0.64683 0.07902 0.0
C1044 C 0.56264 0.6109 0.06953 0.0
C1045 C 0.54796 0.58737 0.07731 0.0
C1046 C 0.56847 0.63571 0.14973 0.0
C1047 C 0.56571 0.62316 0.10891 0.0
C1048 C 0.57989 0.6526 0.16627 0.0
C1049 C 0.59882 0.67524 0.1598 0.0
C1050 C 0.57615 0.64139 0.12648 0.0
C1051 C 0.60566 0.68042 0.13632 0.0
C1052 C 0.57163 0.62882 0.08527 0.0
C1053 C 0.542 0.58254 0.10097 0.0
N1054 N 0.59438 0.6636 0.1205 0.0
N1055 N 0.55094 0.60025 0.1159 0.0
H1056 H 0.96551 0.51969 0.60684 0.0
H1057 H 0.93135 0.61409 0.63297 0.0
H1058 H 0.95467 0.559 0.55291 0.0
H1059 H 0.93072 0.56598 0.68479 0.0
H1060 H 0.93889 0.59378 0.60314 0.0
H1061 H 0.95197 0.53605 0.63547 0.0
C1062 C 0.96022 0.53176 0.60103 0.0
C1063 C 0.9614 0.53815 0.57748 0.0
C1064 C 0.93676 0.58746 0.62099 0.0
C1065 C 0.94586 0.55702 0.6102 0.0
C1066 C 0.93237 0.59898 0.63799 0.0
C1067 C 0.92999 0.59142 0.66134 0.0
C1068 C 0.93923 0.56851 0.62743 0.0
C1069 C 0.93209 0.57214 0.66697 0.0
C1070 C 0.95237 0.54101 0.61737 0.0
C1071 C 0.95395 0.55356 0.57089 0.0
N1072 N 0.93669 0.56143 0.65018 0.0
N1073 N 0.94672 0.56266 0.58719 0.0
H1074 H 0.45364 0.95656 0.08519 0.0
H1075 H 0.33651 0.95033 0.13276 0.0
H1076 H 0.42392 0.99378 0.05246 0.0
H1077 H 0.37473 0.92521 0.17215 0.0
H1078 H 0.36548 0.96226 0.10087 0.0
H1079 H 0.422 0.9408 0.11511 0.0
C1080 C 0.44031 0.96127 0.08438 0.0
C1081 C 0.44119 0.97643 0.06663 0.0
C1082 C 0.36747 0.95403 0.11645 0.0
C1083 C 0.40515 0.95867 0.10045 0.0
C1084 C 0.35092 0.94719 0.13458 0.0
C1085 C 0.35331 0.93687 0.15512 0.0
C1086 C 0.38648 0.95043 0.11881 0.0
C1087 C 0.37227 0.93315 0.15662 0.0
C1088 C 0.42233 0.95237 0.10138 0.0
C1089 C 0.42367 0.98212 0.06605 0.0
N1090 N 0.38816 0.93996 0.13873 0.0
N1091 N 0.40632 0.97325 0.08278 0.0
H1092 H 0.43831 0.41511 0.54412 0.0
H1093 H 0.4635 0.31375 0.61224 0.0
H1094 H 0.50801 0.42924 0.56218 0.0
H1095 H 0.38241 0.30805 0.61021 0.0
H1096 H 0.48234 0.35832 0.58726 0.0
H1097 H 0.42014 0.37661 0.56465 0.0
C1098 C 0.4497 0.41006 0.55255 0.0
C1099 C 0.4746 0.42517 0.55156 0.0
C1100 C 0.46359 0.34767 0.59201 0.0
C1101 C 0.45418 0.38139 0.57451 0.0
C1102 C 0.45198 0.31965 0.60606 0.0
C1103 C 0.42104 0.30731 0.61744 0.0
C1104 C 0.44411 0.35812 0.58605 0.0
C1105 C 0.40087 0.31606 0.60472 0.0
C1106 C 0.43939 0.38819 0.56419 0.0
C1107 C 0.48872 0.41794 0.56257 0.0
N1108 N 0.4154 0.34202 0.59193 0.0
N1109 N 0.47831 0.39641 0.57346 0.0
H1110 H 0.59081 0.98773 0.44455 0.0
H1111 H 0.55438 0.87587 0.35186 0.0
H1112 H 0.51902 0.92914 0.43526 0.0
H1113 H 0.63961 0.94075 0.37387 0.0
H1114 H 0.53822 0.89742 0.38311 0.0
H1115 H 0.6057 0.97012 0.41879 0.0
C1116 C 0.57819 0.97116 0.43707 0.0
C1117 C 0.55363 0.95993 0.44197 0.0
C1118 C 0.55709 0.90467 0.3803 0.0
C1119 C 0.57054 0.93972 0.41251 0.0
C1120 C 0.56676 0.89215 0.3599 0.0
C1121 C 0.59937 0.90391 0.36209 0.0
C1122 C 0.57881 0.92921 0.39609 0.0
C1123 C 0.62048 0.9331 0.37375 0.0
C1124 C 0.58671 0.96107 0.42247 0.0
C1125 C 0.5381 0.93831 0.43206 0.0
N1126 N 0.60755 0.94145 0.39137 0.0
N1127 N 0.54681 0.92897 0.41762 0.0
H1128 H 0.60109 0.57432 0.98227 0.0
H1129 H 0.70467 0.62205 0.91458 0.0
H1130 H 0.58221 0.50806 0.95518 0.0
H1131 H 0.68979 0.55148 0.91425 0.0
H1132 H 0.66588 0.60722 0.93302 0.0
H1133 H 0.64 0.59281 0.96264 0.0
C1134 C 0.6052 0.56381 0.9719 0.0
C1135 C 0.58861 0.53979 0.97013 0.0
C1136 C 0.67104 0.59489 0.92922 0.0
C1137 C 0.63276 0.56071 0.94703 0.0
C1138 C 0.69311 0.60337 0.91833 0.0
C1139 C 0.70032 0.58796 0.91256 0.0
C1140 C 0.65614 0.57077 0.93482 0.0
C1141 C 0.68479 0.56394 0.91812 0.0
C1142 C 0.62731 0.57435 0.96046 0.0
C1143 C 0.59466 0.52669 0.9568 0.0
N1144 N 0.66342 0.55609 0.92887 0.0
N1145 N 0.61631 0.53732 0.9458 0.0
H1146 H 0.02257 0.58894 0.46977 0.0
H1147 H 0.14109 0.67892 0.39709 0.0
H1148 H 0.07254 0.5712 0.44609 0.0
H1149 H 0.0824 0.68912 0.40564 0.0
H1150 H 0.11707 0.64005 0.41623 0.0
H1151 H 0.04493 0.62646 0.44757 0.0
C1152 C 0.0382 0.59299 0.45972 0.0
C1153 C 0.04583 0.57716 0.4596 0.0
C1154 C 0.10934 0.65067 0.41368 0.0
C1155 C 0.0716 0.6199 0.43452 0.0
C1156 C 0.123 0.67282 0.40268 0.0
C1157 C 0.11347 0.68703 0.39926 0.0
C1158 C 0.08618 0.64286 0.42181 0.0
C1159 C 0.09021 0.67851 0.40754 0.0
C1160 C 0.05094 0.61432 0.44709 0.0
C1161 C 0.06622 0.58309 0.44652 0.0
N1162 N 0.07738 0.65702 0.41848 0.0
N1163 N 0.07851 0.60409 0.43458 0.0
H1164 H 0.45341 0.06448 0.96994 0.0
H1165 H 0.43317 0.0884 0.83765 0.0
H1166 H 0.48171 0.04811 0.91167 0.0
H1167 H 0.39368 0.09202 0.89469 0.0
H1168 H 0.45559 0.0791 0.86505 0.0
H1169 H 0.43584 0.08008 0.9431 0.0
C1170 C 0.45611 0.06439 0.95151 0.0
C1171 C 0.46887 0.05482 0.943 0.0
C1172 C 0.44221 0.08218 0.87162 0.0
C1173 C 0.4488 0.07254 0.91225 0.0
C1174 C 0.42952 0.08761 0.856 0.0
C1175 C 0.41179 0.09129 0.86394 0.0
C1176 C 0.43703 0.08023 0.89541 0.0
C1177 C 0.40744 0.08964 0.88789 0.0
C1178 C 0.44598 0.07316 0.93621 0.0
C1179 C 0.47169 0.05498 0.91896 0.0
N1180 N 0.41995 0.08418 0.90279 0.0
N1181 N 0.4617 0.06364 0.90445 0.0
H1182 H 0.45124 0.4902 0.41076 0.0
H1183 H 0.30073 0.43691 0.39361 0.0
H1184 H 0.3972 0.44904 0.46332 0.0
H1185 H 0.36981 0.49723 0.33946 0.0
H1186 H 0.33751 0.43735 0.42144 0.0
H1187 H 0.42011 0.48635 0.38484 0.0
C1188 C 0.43279 0.48002 0.41671 0.0
C1189 C 0.42682 0.47007 0.4393 0.0
C1190 C 0.34217 0.44824 0.40574 0.0
C1191 C 0.39128 0.46595 0.40989 0.0
C1192 C 0.31952 0.44896 0.38967 0.0
C1193 C 0.33102 0.46459 0.36099 0.0
C1194 C 0.37259 0.46568 0.39576 0.0
C1195 C 0.36309 0.48706 0.3556 0.0
C1196 C 0.41508 0.47802 0.40198 0.0
C1197 C 0.40261 0.45729 0.44617 0.0
N1198 N 0.38051 0.48348 0.37288 0.0
N1199 N 0.38569 0.45569 0.43153 0.0
H1200 H 0.9753 0.43701 0.90573 0.0
H1201 H 0.89716 0.29666 0.91445 0.0
H1202 H 0.96511 0.39591 0.96871 0.0
H1203 H 0.89192 0.3375 0.85814 0.0
H1204 H 0.92693 0.33301 0.9323 0.0
H1205 H 0.94937 0.40075 0.88581 0.0
C1206 C 0.96765 0.42042 0.9154 0.0
C1207 C 0.97236 0.41962 0.93902 0.0
C1208 C 0.91948 0.33403 0.9159 0.0
C1209 C 0.94294 0.37802 0.91617 0.0
C1210 C 0.90262 0.31331 0.90567 0.0
C1211 C 0.89242 0.31405 0.88458 0.0
C1212 C 0.92618 0.35572 0.90502 0.0
C1213 C 0.89966 0.3361 0.87418 0.0
C1214 C 0.95293 0.39972 0.90397 0.0
C1215 C 0.96231 0.3975 0.95046 0.0
N1216 N 0.91614 0.35607 0.88449 0.0
N1217 N 0.94806 0.37763 0.93895 0.0
H1218 H 0.98709 0.53259 0.92904 0.0
H1219 H 0.95044 0.62865 0.92696 0.0
H1220 H 0.00172 0.57832 0.98516 0.0
H1221 H 0.94308 0.58681 0.8692 0.0
H1222 H 0.96857 0.61033 0.94914 0.0
H1223 H 0.97 0.55196 0.90732 0.0
C1224 C 0.98683 0.54692 0.93662 0.0
C1225 C 0.99611 0.55427 0.95861 0.0
C1226 C 0.96293 0.60514 0.93163 0.0
C1227 C 0.97629 0.57628 0.9342 0.0
C1228 C 0.95255 0.61553 0.91902 0.0
C1229 C 0.94486 0.60891 0.89639 0.0
C1230 C 0.96573 0.5881 0.92144 0.0
C1231 C 0.94839 0.59213 0.88673 0.0
C1232 C 0.97705 0.55794 0.92431 0.0
C1233 C 0.99497 0.5725 0.96806 0.0
N1234 N 0.95845 0.58226 0.89933 0.0
N1235 N 0.98523 0.58296 0.95577 0.0
H1236 H 0.43336 0.00028 0.45796 0.0
H1237 H 0.33225 0.88171 0.4052 0.0
H1238 H 0.44437 0.94476 0.44168 0.0
H1239 H 0.33113 0.94518 0.39902 0.0
H1240 H 0.37337 0.90451 0.41854 0.0
H1241 H 0.39589 0.98078 0.43648 0.0
C1242 C 0.42796 0.98413 0.44953 0.0
C1243 C 0.44171 0.97394 0.45157 0.0
C1244 C 0.3642 0.9135 0.41412 0.0
C1245 C 0.39896 0.95141 0.42747 0.0
C1246 C 0.34072 0.90048 0.40657 0.0
C1247 C 0.32805 0.91147 0.40155 0.0
C1248 C 0.37508 0.93769 0.41692 0.0
C1249 C 0.34005 0.93592 0.40325 0.0
C1250 C 0.40665 0.97301 0.43733 0.0
C1251 C 0.43408 0.953 0.44051 0.0
N1252 N 0.36278 0.94817 0.41114 0.0
N1253 N 0.41303 0.94224 0.42918 0.0
H1254 H 0.49667 0.40923 0.95387 0.0
H1255 H 0.3728 0.30935 0.87783 0.0
H1256 H 0.43443 0.41358 0.9425 0.0
H1257 H 0.44598 0.30343 0.8966 0.0
H1258 H 0.39626 0.35154 0.90369 0.0
H1259 H 0.47801 0.37333 0.93224 0.0
C1260 C 0.47907 0.40264 0.94688 0.0
C1261 C 0.46705 0.41441 0.95016 0.0
C1262 C 0.40443 0.34138 0.90175 0.0
C1263 C 0.44575 0.37347 0.92525 0.0
C1264 C 0.38901 0.3146 0.88717 0.0
C1265 C 0.40867 0.30332 0.88111 0.0
C1266 C 0.43353 0.35143 0.91289 0.0
C1267 C 0.43528 0.31105 0.89886 0.0
C1268 C 0.4685 0.3822 0.93445 0.0
C1269 C 0.44447 0.40526 0.94026 0.0
N1270 N 0.44594 0.33592 0.9113 0.0
N1271 N 0.43451 0.38526 0.92833 0.0
H1272 H 0.015 0.42911 0.43301 0.0
H1273 H 0.13715 0.4444 0.39059 0.0
H1274 H 0.08359 0.49369 0.43694 0.0
H1275 H 0.06832 0.38589 0.3721 0.0
H1276 H 0.11753 0.46299 0.40681 0.0
H1277 H 0.03357 0.41315 0.40979 0.0
C1278 C 0.03388 0.44007 0.42877 0.0
C1279 C 0.04779 0.46271 0.43724 0.0
C1280 C 0.10666 0.44616 0.39907 0.0
C1281 C 0.0692 0.44438 0.41094 0.0
C1282 C 0.11788 0.43554 0.3898 0.0
C1283 C 0.10432 0.41341 0.38028 0.0
C1284 C 0.08162 0.4345 0.39907 0.0
C1285 C 0.0794 0.40282 0.37957 0.0
C1286 C 0.04449 0.43089 0.41558 0.0
C1287 C 0.07223 0.47596 0.43131 0.0
N1288 N 0.06881 0.41332 0.38911 0.0
N1289 N 0.08216 0.46653 0.41874 0.0
H1290 H 0.60248 0.03471 0.98589 0.0
H1291 H 0.65605 0.07185 0.85661 0.0
H1292 H 0.5643 0.04047 0.92807 0.0
H1293 H 0.6982 0.07561 0.91539 0.0
H1294 H 0.62162 0.0583 0.88241 0.0
H1295 H 0.63737 0.04803 0.96035 0.0
C1296 C 0.60158 0.03884 0.96777 0.0
C1297 C 0.5807 0.03652 0.95889 0.0
C1298 C 0.6384 0.06216 0.88973 0.0
C1299 C 0.62014 0.05155 0.92968 0.0
C1300 C 0.65804 0.06991 0.87501 0.0
C1301 C 0.68011 0.07528 0.88396 0.0
C1302 C 0.64069 0.05948 0.9136 0.0
C1303 C 0.68159 0.07198 0.90786 0.0
C1304 C 0.62138 0.0464 0.95323 0.0
C1305 C 0.58017 0.04201 0.93541 0.0
N1306 N 0.66215 0.06434 0.92189 0.0
N1307 N 0.5996 0.04923 0.92158 0.0
H1308 H 0.58703 0.58924 0.47445 0.0
H1309 H 0.5744 0.69028 0.41592 0.0
H1310 H 0.5198 0.5761 0.44882 0.0
H1311 H 0.64063 0.69207 0.41321 0.0
H1312 H 0.55396 0.64935 0.43026 0.0
H1313 H 0.60733 0.62823 0.4548 0.0
C1314 C 0.57663 0.59463 0.46457 0.0
C1315 C 0.55179 0.57968 0.46326 0.0
C1316 C 0.57295 0.6587 0.42645 0.0
C1317 C 0.57465 0.62408 0.44111 0.0
C1318 C 0.58463 0.68205 0.41833 0.0
C1319 C 0.60938 0.69481 0.41399 0.0
C1320 C 0.58614 0.64809 0.43048 0.0
C1321 C 0.62167 0.68311 0.41697 0.0
C1322 C 0.58816 0.61676 0.45335 0.0
C1323 C 0.53899 0.58732 0.45032 0.0
N1324 N 0.60999 0.66051 0.42539 0.0
N1325 N 0.55054 0.60913 0.43993 0.0
H1326 H 0.45743 0.06476 0.53123 0.0
H1327 H 0.43244 0.09228 0.65782 0.0
H1328 H 0.47916 0.04537 0.59425 0.0
H1329 H 0.40415 0.10526 0.5957 0.0
H1330 H 0.45157 0.07699 0.63451 0.0
H1331 H 0.43989 0.08186 0.5542 0.0
C1332 C 0.45865 0.06422 0.54989 0.0
C1333 C 0.46975 0.05354 0.56082 0.0
C1334 C 0.44127 0.08326 0.62593 0.0
C1335 C 0.44953 0.07294 0.58725 0.0
C1336 C 0.43041 0.09204 0.63923 0.0
C1337 C 0.41688 0.10025 0.62865 0.0
C1338 C 0.43858 0.08261 0.60182 0.0
C1339 C 0.41459 0.09929 0.60452 0.0
C1340 C 0.4485 0.07387 0.563 0.0
C1341 C 0.47051 0.05312 0.58508 0.0
N1342 N 0.42536 0.09067 0.59191 0.0
N1343 N 0.46056 0.06267 0.59745 0.0
H1344 H 0.41965 0.43099 0.04744 0.0
H1345 H 0.31998 0.45885 0.11192 0.0
H1346 H 0.43749 0.5 0.06516 0.0
H1347 H 0.3111 0.37794 0.11075 0.0
H1348 H 0.36571 0.47682 0.08907 0.0
H1349 H 0.38096 0.41417 0.06761 0.0
C1350 C 0.41538 0.44252 0.05572 0.0
C1351 C 0.43163 0.46684 0.05475 0.0
C1352 C 0.35427 0.45832 0.0936 0.0
C1353 C 0.38755 0.44793 0.07736 0.0
C1354 C 0.32555 0.44732 0.10624 0.0
C1355 C 0.31171 0.41635 0.11736 0.0
C1356 C 0.36401 0.43858 0.08848 0.0
C1357 C 0.31994 0.3963 0.10543 0.0
C1358 C 0.39339 0.43297 0.06719 0.0
C1359 C 0.42532 0.48115 0.06556 0.0
N1360 N 0.34667 0.41027 0.09389 0.0
N1361 N 0.40362 0.47149 0.07627 0.0
H1362 H 0.96988 0.40573 0.5288 0.0
H1363 H 0.90257 0.34367 0.64938 0.0
H1364 H 0.95417 0.44051 0.58015 0.0
H1365 H 0.92922 0.31348 0.60331 0.0
H1366 H 0.91798 0.37788 0.62261 0.0
H1367 H 0.95143 0.3701 0.55415 0.0
C1368 C 0.96233 0.40566 0.5454 0.0
C1369 C 0.96337 0.42578 0.55259 0.0
C1370 C 0.92038 0.36374 0.6183 0.0
C1371 C 0.94251 0.38552 0.58159 0.0
C1372 C 0.91156 0.34423 0.63353 0.0
C1373 C 0.91451 0.32568 0.62845 0.0
C1374 C 0.93224 0.36473 0.59781 0.0
C1375 C 0.92644 0.32733 0.60779 0.0
C1376 C 0.95192 0.38547 0.55987 0.0
C1377 C 0.95355 0.42515 0.57416 0.0
N1378 N 0.93484 0.3465 0.59321 0.0
N1379 N 0.94352 0.40531 0.58798 0.0
H1380 H 0.51448 0.93085 0.08513 0.0
H1381 H 0.62951 0.93746 0.13948 0.0
H1382 H 0.58642 0.98948 0.07224 0.0
H1383 H 0.55741 0.88808 0.16369 0.0
H1384 H 0.61419 0.95485 0.11207 0.0
H1385 H 0.53004 0.91281 0.11121 0.0
C1386 C 0.53357 0.93987 0.08771 0.0
C1387 C 0.54919 0.96171 0.07652 0.0
C1388 C 0.60172 0.94011 0.12327 0.0
C1389 C 0.56711 0.94121 0.10642 0.0
C1390 C 0.61044 0.93012 0.1388 0.0
C1391 C 0.59467 0.91095 0.15347 0.0
C1392 C 0.57704 0.93091 0.12247 0.0
C1393 C 0.57015 0.90248 0.15233 0.0
C1394 C 0.54243 0.92963 0.1027 0.0
C1395 C 0.57374 0.97274 0.08071 0.0
N1396 N 0.56209 0.91243 0.13702 0.0
N1397 N 0.58196 0.96234 0.09528 0.0
H1398 H 0.60008 0.51204 0.57799 0.0
H1399 H 0.70121 0.62634 0.63998 0.0
H1400 H 0.60773 0.57965 0.56933 0.0
H1401 H 0.67827 0.55585 0.66389 0.0
H1402 H 0.67067 0.61024 0.61015 0.0
H1403 H 0.63292 0.52867 0.60547 0.0
C1404 C 0.60885 0.53044 0.58172 0.0
C1405 C 0.60116 0.54449 0.5715 0.0
C1406 C 0.67247 0.59833 0.62183 0.0
C1407 C 0.63856 0.56357 0.60285 0.0
C1408 C 0.68992 0.60749 0.63875 0.0
C1409 C 0.69266 0.59245 0.65407 0.0
C1410 C 0.65764 0.57391 0.62021 0.0
C1411 C 0.67718 0.56812 0.65212 0.0
C1412 C 0.62744 0.53986 0.59749 0.0
C1413 C 0.61297 0.56817 0.57705 0.0
N1414 N 0.66043 0.55962 0.6354 0.0
N1415 N 0.6311 0.57698 0.59234 0.0
H1416 H 0.10405 0.59491 0.06706 0.0
H1417 H 0.08541 0.68649 0.1332 0.0
H1418 H 0.03872 0.59486 0.06513 0.0
H1419 H 0.141 0.67324 0.15014 0.0
H1420 H 0.07055 0.65622 0.10449 0.0
H1421 H 0.12054 0.62712 0.09377 0.0
C1422 C 0.09325 0.6018 0.07214 0.0
C1423 C 0.06995 0.59216 0.06395 0.0
C1424 C 0.08612 0.66007 0.11436 0.0
C1425 C 0.08865 0.62892 0.09445 0.0
C1426 C 0.09466 0.67741 0.13062 0.0
C1427 C 0.11477 0.68277 0.1437 0.0
C1428 C 0.09773 0.64791 0.11113 0.0
C1429 C 0.12576 0.67005 0.1401 0.0
C1430 C 0.10261 0.62006 0.08747 0.0
C1431 C 0.05665 0.6016 0.07125 0.0
N1432 N 0.11716 0.6533 0.12407 0.0
N1433 N 0.06621 0.61948 0.08603 0.0
loop_
_geom_bond_atom_site_label_1
_geom_bond_atom_site_label_2
_geom_bond_distance
_geom_bond_site_symmetry_2
_ccdc_geom_bond_type
C0 C1 1.443 . S
C0 N4 1.376 1_556 S
C0 C38 1.389 . S
C1 C0 1.443 . S
C1 C2 1.340 1_556 S
C1 H41 0.951 . S
C2 C1 1.340 1_554 S
C2 C3 1.439 . S
C2 H42 0.950 . S
C3 C2 1.439 . S
C3 N4 1.374 . S
C3 C37 1.395 . S
N4 C0 1.376 1_554 S
N4 C3 1.374 . S
N4 Co5 2.008 1_655 S
Co5 N4 2.008 1_455 S
Co5 N6 1.996 . S
Co5 N11 2.007 1_554 S
Co5 N16 1.993 1_554 S
Co5 N21 2.284 . S
Co5 N27 2.281 1_554 S
N6 Co5 1.996 . S
N6 C7 1.376 1_455 S
N6 C10 1.383 . S
C7 N6 1.376 1_655 S
C7 C8 1.446 . S
C7 C37 1.391 . S
C8 C7 1.446 . S
C8 C9 1.339 1_655 S
C8 H43 0.949 . S
C9 C8 1.339 1_455 S
C9 C10 1.439 . S
C9 H44 0.950 . S
C10 N6 1.383 . S
C10 C9 1.439 . S
C10 C39 1.392 . S
N11 Co5 2.007 1_556 S
N11 C12 1.347 1_556 S
N11 C15 1.400 . S
C12 N11 1.347 1_554 S
C12 C13 1.443 . S
C12 C39 1.389 . S
C13 C12 1.443 . S
C13 C14 1.340 1_554 S
C13 H45 0.951 . S
C14 C13 1.340 1_556 S
C14 C15 1.439 . S
C14 H46 0.950 . S
C15 N11 1.400 . S
C15 C14 1.439 . S
C15 C40 1.395 . S
N16 Co5 1.993 1_556 S
N16 C17 1.376 . S
N16 C20 1.383 . S
C17 N16 1.376 . S
C17 C18 1.446 . S
C17 C40 1.391 . S
C18 C17 1.446 . S
C18 C19 1.339 . S
C18 H47 0.949 . S
C19 C18 1.339 . S
C19 C20 1.439 . S
C19 H48 0.950 . S
C20 N16 1.383 . S
C20 C19 1.439 . S
C20 C38 1.392 1_455 S
N21 Co5 2.284 . S
N21 C24 1.332 . S
N21 C26 1.332 . S
C22 C23 1.386 . S
C22 C25 1.388 . S
C23 C22 1.386 . S
C23 C24 1.382 . S
C23 H49 0.950 . S
C24 N21 1.332 . S
C24 C23 1.382 . S
C24 H35 0.952 . S
C25 C22 1.388 . S
C25 C26 1.382 . S
C25 H50 0.950 . S
C26 N21 1.332 . S
C26 C25 1.382 . S
C26 H36 0.948 . S
N27 Co5 2.281 1_556 S
N27 C31 1.332 1_455 S
N27 C32 1.332 . S
C28 C29 1.388 . S
C28 C32 1.382 1_655 S
C28 H51 0.950 1_655 S
C29 C28 1.388 . S
C29 C30 1.386 . S
C30 C29 1.386 . S
C30 C31 1.382 . S
C30 H52 0.950 . S
C31 N27 1.332 1_655 S
C31 C30 1.382 . S
C31 H33 0.952 . S
C32 N27 1.332 . S
C32 C28 1.382 1_455 S
C32 H34 0.948 . S
H33 C31 0.952 . S
H34 C32 0.948 . S
H35 C24 0.952 . S
H36 C26 0.948 . S
C37 C3 1.395 . S
C37 C7 1.391 . S
C38 C0 1.389 . S
C38 C20 1.392 1_655 S
C39 C10 1.392 . S
C39 C12 1.389 . S
C40 C15 1.395 . S
C40 C17 1.391 . S
H41 C1 0.951 . S
H42 C2 0.950 . S
H43 C8 0.949 . S
H44 C9 0.950 . S
H45 C13 0.951 . S
H46 C14 0.950 . S
H47 C18 0.949 . S
H48 C19 0.950 . S
H49 C23 0.950 . S
H50 C25 0.950 . S
H51 C28 0.950 1_455 S
H52 C30 0.950 . S
C53 C54 1.443 . S
C53 N57 1.376 1_545 S
C53 C91 1.389 . S
C54 C53 1.443 . S
C54 C55 1.340 1_545 S
C54 H94 0.951 . S
C55 C54 1.340 1_565 S
C55 C56 1.439 . S
C55 H95 0.950 . S
C56 C55 1.439 . S
C56 N57 1.374 . S
C56 C90 1.395 . S
N57 C53 1.376 1_565 S
N57 C56 1.374 . S
N57 Co58 2.008 1_565 S
Co58 N57 2.008 1_545 S
Co58 N59 1.995 1_545 S
Co58 N64 2.008 . S
Co58 N69 1.995 . S
Co58 N74 2.282 1_545 S
Co58 N80 2.282 . S
N59 Co58 1.995 1_565 S
N59 C60 1.376 . S
N59 C63 1.383 . S
C60 N59 1.376 . S
C60 C61 1.446 . S
C60 C90 1.391 . S
C61 C60 1.446 . S
C61 C62 1.339 . S
C61 H96 0.949 . S
C62 C61 1.339 . S
C62 C63 1.439 . S
C62 H97 0.950 . S
C63 N59 1.383 . S
C63 C62 1.439 . S
C63 C92 1.392 . S
N64 Co58 2.008 . S
N64 C65 1.376 1_545 S
N64 C68 1.374 . S
C65 N64 1.376 1_565 S
C65 C66 1.443 1_565 S
C65 C92 1.389 . S
C66 C65 1.443 1_545 S
C66 C67 1.340 . S
C66 H98 0.951 . S
C67 C66 1.340 . S
C67 C68 1.439 . S
C67 H99 0.950 . S
C68 N64 1.374 . S
C68 C67 1.439 . S
C68 C93 1.395 . S
N69 Co58 1.995 . S
N69 C70 1.376 . S
N69 C73 1.383 . S
C70 N69 1.376 . S
C70 C71 1.446 . S
C70 C93 1.391 . S
C71 C70 1.446 . S
C71 C72 1.339 . S
C71 H100 0.949 . S
C72 C71 1.339 . S
C72 C73 1.439 . S
C72 H101 0.950 . S
C73 N69 1.383 . S
C73 C72 1.439 . S
C73 C91 1.392 . S
N74 Co58 2.282 1_565 S
N74 C77 1.332 . S
N74 C79 1.332 . S
C75 C76 1.386 . S
C75 C78 1.388 . S
C76 C75 1.386 . S
C76 C77 1.382 . S
C76 H102 0.950 . S
C77 N74 1.332 . S
C77 C76 1.382 . S
C77 H88 0.952 1_565 S
C78 C75 1.388 . S
C78 C79 1.382 . S
C78 H103 0.950 . S
C79 N74 1.332 . S
C79 C78 1.382 . S
C79 H89 0.948 . S
N80 Co58 2.282 . S
N80 C84 1.332 . S
N80 C85 1.332 . S
C81 C82 1.388 . S
C81 C85 1.382 . S
C81 H104 0.950 . S
C82 C81 1.388 . S
C82 C83 1.386 . S
C83 C82 1.386 . S
C83 C84 1.382 . S
C83 H105 0.950 . S
C84 N80 1.332 . S
C84 C83 1.382 . S
C84 H86 0.952 1_545 S
C85 N80 1.332 . S
C85 C81 1.382 . S
C85 H87 0.948 . S
H86 C84 0.952 1_565 S
H87 C85 0.948 . S
H88 C77 0.952 1_545 S
H89 C79 0.948 . S
C90 C56 1.395 . S
C90 C60 1.391 . S
C91 C53 1.389 . S
C91 C73 1.392 . S
C92 C63 1.392 . S
C92 C65 1.389 . S
C93 C68 1.395 . S
C93 C70 1.391 . S
H94 C54 0.951 . S
H95 C55 0.950 . S
H96 C61 0.949 . S
H97 C62 0.950 . S
H98 C66 0.951 . S
H99 C67 0.950 . S
H100 C71 0.949 . S
H101 C72 0.950 . S
H102 C76 0.950 . S
H103 C78 0.950 . S
H104 C81 0.950 . S
H105 C83 0.950 . S
C106 C107 1.443 . S
C106 N110 1.376 . S
C106 C144 1.389 . S
C107 C106 1.443 . S
C107 C108 1.340 . S
C107 H147 0.951 . S
C108 C107 1.340 . S
C108 C109 1.439 . S
C108 H148 0.950 . S
C109 C108 1.439 . S
C109 N110 1.374 . S
C109 C143 1.395 . S
N110 C106 1.376 . S
N110 C109 1.374 . S
N110 Co111 2.008 1_556 S
Co111 N110 2.008 1_554 S
Co111 N112 1.995 . S
Co111 N117 2.008 . S
Co111 N122 1.995 . S
Co111 N127 2.282 . S
Co111 N133 2.282 1_554 S
N112 Co111 1.995 . S
N112 C113 1.376 1_554 S
N112 C116 1.383 . S
C113 N112 1.376 1_556 S
C113 C114 1.446 . S
C113 C143 1.391 . S
C114 C113 1.446 . S
C114 C115 1.339 1_556 S
C114 H149 0.949 . S
C115 C114 1.339 1_554 S
C115 C116 1.439 . S
C115 H150 0.950 . S
C116 N112 1.383 . S
C116 C115 1.439 . S
C116 C145 1.392 . S
N117 Co111 2.008 . S
N117 C118 1.376 . S
N117 C121 1.374 . S
C118 N117 1.376 . S
C118 C119 1.443 . S
C118 C145 1.389 . S
C119 C118 1.443 . S
C119 C120 1.340 . S
C119 H151 0.951 . S
C120 C119 1.340 . S
C120 C121 1.439 . S
C120 H152 0.950 . S
C121 N117 1.374 . S
C121 C120 1.439 . S
C121 C146 1.395 . S
N122 Co111 1.995 . S
N122 C123 1.376 . S
N122 C126 1.383 1_554 S
C123 N122 1.376 . S
C123 C124 1.446 . S
C123 C146 1.391 . S
C124 C123 1.446 . S
C124 C125 1.339 . S
C124 H153 0.949 . S
C125 C124 1.339 . S
C125 C126 1.439 1_554 S
C125 H154 0.950 1_554 S
C126 N122 1.383 1_556 S
C126 C125 1.439 1_556 S
C126 C144 1.392 . S
N127 Co111 2.282 . S
N127 C130 1.332 . S
N127 C132 1.332 . S
C128 C129 1.386 . S
C128 C131 1.388 . S
C129 C128 1.386 . S
C129 C130 1.382 . S
C129 H155 0.950 . S
C130 N127 1.332 . S
C130 C129 1.382 . S
C130 H141 0.952 . S
C131 C128 1.388 . S
C131 C132 1.382 . S
C131 H156 0.950 . S
C132 N127 1.332 . S
C132 C131 1.382 . S
C132 H142 0.948 . S
N133 Co111 2.282 1_556 S
N133 C137 1.332 . S
N133 C138 1.332 . S
C134 C135 1.388 . S
C134 C138 1.382 . S
C134 H157 0.950 . S
C135 C134 1.388 . S
C135 C136 1.386 . S
C136 C135 1.386 . S
C136 C137 1.382 . S
C136 H158 0.950 . S
C137 N133 1.332 . S
C137 C136 1.382 . S
C137 H139 0.952 . S
C138 N133 1.332 . S
C138 C134 1.382 . S
C138 H140 0.948 1_556 S
H139 C137 0.952 . S
H140 C138 0.948 1_554 S
H141 C130 0.952 . S
H142 C132 0.948 . S
C143 C109 1.395 . S
C143 C113 1.391 . S
C144 C106 1.389 . S
C144 C126 1.392 . S
C145 C116 1.392 . S
C145 C118 1.389 . S
C146 C121 1.395 . S
C146 C123 1.391 . S
H147 C107 0.951 . S
H148 C108 0.950 . S
H149 C114 0.949 . S
H150 C115 0.950 . S
H151 C119 0.951 . S
H152 C120 0.950 . S
H153 C124 0.949 . S
H154 C125 0.950 1_556 S
H155 C129 0.950 . S
H156 C131 0.950 . S
H157 C134 0.950 . S
H158 C136 0.950 . S
C159 C160 1.443 . S
C159 N163 1.376 . S
C159 C197 1.389 . S
C160 C159 1.443 . S
C160 C161 1.340 . S
C160 H200 0.951 . S
C161 C160 1.340 . S
C161 C162 1.439 . S
C161 H201 0.950 . S
C162 C161 1.439 . S
C162 N163 1.374 . S
C162 C196 1.395 . S
N163 C159 1.376 . S
N163 C162 1.374 . S
N163 Co164 2.008 1_655 S
Co164 N163 2.008 1_455 S
Co164 N165 1.995 1_455 S
Co164 N170 2.008 . S
Co164 N175 1.995 . S
Co164 N180 2.282 . S
Co164 N186 2.282 1_455 S
N165 Co164 1.995 1_655 S
N165 C166 1.376 . S
N165 C169 1.383 1_655 S
C166 N165 1.376 . S
C166 C167 1.446 . S
C166 C196 1.391 . S
C167 C166 1.446 . S
C167 C168 1.361 . S
C167 H202 0.949 . S
C168 C167 1.361 . S
C168 C169 1.418 1_655 S
C168 H203 0.949 1_655 S
C169 N165 1.383 1_455 S
C169 C168 1.418 1_455 S
C169 C198 1.392 . S
N170 Co164 2.008 . S
N170 C171 1.376 . S
N170 C174 1.374 . S
C171 N170 1.376 . S
C171 C172 1.443 . S
C171 C198 1.389 . S
C172 C171 1.443 . S
C172 C173 1.340 . S
C172 H204 0.951 . S
C173 C172 1.340 . S
C173 C174 1.439 . S
C173 H205 0.950 . S
C174 N170 1.374 . S
C174 C173 1.439 . S
C174 C199 1.395 . S
N175 Co164 1.995 . S
N175 C176 1.376 . S
N175 C179 1.383 1_455 S
C176 N175 1.376 . S
C176 C177 1.446 . S
C176 C199 1.391 . S
C177 C176 1.446 . S
C177 C178 1.339 . S
C177 H206 0.949 . S
C178 C177 1.339 . S
C178 C179 1.439 1_455 S
C178 H207 0.950 1_455 S
C179 N175 1.383 1_655 S
C179 C178 1.439 1_655 S
C179 C197 1.392 . S
N180 Co164 2.282 . S
N180 C183 1.332 . S
N180 C185 1.332 . S
C181 C182 1.386 . S
C181 C184 1.388 . S
C182 C181 1.386 . S
C182 C183 1.382 . S
C182 H208 0.950 . S
C183 N180 1.332 . S
C183 C182 1.382 . S
C183 H194 0.952 . S
C184 C181 1.388 . S
C184 C185 1.382 . S
C184 H209 0.950 . S
C185 N180 1.332 . S
C185 C184 1.382 . S
C185 H195 0.948 1_455 S
N186 Co164 2.282 1_655 S
N186 C190 1.332 . S
N186 C191 1.332 . S
C187 C188 1.388 . S
C187 C191 1.382 . S
C187 H210 0.950 . S
C188 C187 1.388 . S
C188 C189 1.386 . S
C189 C188 1.386 . S
C189 C190 1.382 . S
C189 H211 0.950 . S
C190 N186 1.332 . S
C190 C189 1.382 . S
C190 H192 0.952 . S
C191 N186 1.332 . S
C191 C187 1.382 . S
C191 H193 0.948 1_655 S
H192 C190 0.952 . S
H193 C191 0.948 1_455 S
H194 C183 0.952 . S
H195 C185 0.948 1_655 S
C196 C162 1.395 . S
C196 C166 1.391 . S
C197 C159 1.389 . S
C197 C179 1.392 . S
C198 C169 1.392 . S
C198 C171 1.389 . S
C199 C174 1.395 . S
C199 C176 1.391 . S
H200 C160 0.951 . S
H201 C161 0.950 . S
H202 C167 0.949 . S
H203 C168 0.949 1_455 S
H204 C172 0.951 . S
H205 C173 0.950 . S
H206 C177 0.949 . S
H207 C178 0.950 1_655 S
H208 C182 0.950 . S
H209 C184 0.950 . S
H210 C187 0.950 . S
H211 C189 0.950 . S
C212 C213 1.443 1_565 S
C212 N216 1.376 1_565 S
C212 C250 1.389 . S
C213 C212 1.443 1_545 S
C213 C214 1.340 . S
C213 H253 0.951 . S
C214 C213 1.340 . S
C214 C215 1.439 . S
C214 H254 0.950 . S
C215 C214 1.439 . S
C215 N216 1.374 . S
C215 C249 1.395 . S
N216 C212 1.376 1_545 S
N216 C215 1.374 . S
N216 Co217 2.008 . S
Co217 N216 2.008 . S
Co217 N218 1.995 . S
Co217 N223 1.992 1_544 S
Co217 N228 1.995 1_545 S
Co217 N233 2.282 1_554 S
Co217 N239 2.282 1_545 S
N218 Co217 1.995 . S
N218 C219 1.376 . S
N218 C222 1.383 1_554 S
C219 N218 1.376 . S
C219 C220 1.446 . S
C219 C249 1.391 . S
C220 C219 1.446 . S
C220 C221 1.332 1_554 S
C220 H255 0.949 . S
C221 C220 1.332 1_556 S
C221 C222 1.440 . S
C221 H256 0.954 . S
C222 N218 1.383 1_556 S
C222 C221 1.440 . S
C222 C251 1.392 . S
N223 Co217 1.992 1_566 S
N223 C224 1.368 1_565 S
N223 C227 1.397 . S
C224 N223 1.368 1_545 S
C224 C225 1.443 . S
C224 C251 1.389 . S
C225 C224 1.443 . S
C225 C226 1.340 1_545 S
C225 H257 0.951 . S
C226 C225 1.340 1_565 S
C226 C227 1.439 . S
C226 H258 0.950 . S
C227 N223 1.397 . S
C227 C226 1.439 . S
C227 C252 1.395 . S
N228 Co217 1.995 1_565 S
N228 C229 1.376 1_554 S
N228 C232 1.383 . S
C229 N228 1.376 1_556 S
C229 C230 1.446 1_556 S
C229 C252 1.391 . S
C230 C229 1.446 1_554 S
C230 C231 1.339 . S
C230 H259 0.949 1_554 S
C231 C230 1.339 . S
C231 C232 1.439 . S
C231 H260 0.950 . S
C232 N228 1.383 . S
C232 C231 1.439 . S
C232 C250 1.392 . S
N233 Co217 2.282 1_556 S
N233 C236 1.332 . S
N233 C238 1.332 . S
C234 C235 1.386 . S
C234 C237 1.388 . S
C235 C234 1.386 . S
C235 C236 1.382 . S
C235 H261 0.950 . S
C236 N233 1.332 . S
C236 C235 1.382 . S
C236 H247 0.952 1_545 S
C237 C234 1.388 . S
C237 C238 1.382 . S
C237 H262 0.950 . S
C238 N233 1.332 . S
C238 C237 1.382 . S
C238 H248 0.948 1_556 S
N239 Co217 2.282 1_565 S
N239 C243 1.332 . S
N239 C244 1.332 . S
C240 C241 1.388 . S
C240 C244 1.382 . S
C240 H263 0.950 . S
C241 C240 1.388 . S
C241 C242 1.386 . S
C242 C241 1.386 . S
C242 C243 1.382 . S
C242 H264 0.950 . S
C243 N239 1.332 . S
C243 C242 1.382 . S
C243 H245 0.952 1_565 S
C244 N239 1.332 . S
C244 C240 1.382 . S
C244 H246 0.948 . S
H245 C243 0.952 1_545 S
H246 C244 0.948 . S
H247 C236 0.952 1_565 S
H248 C238 0.948 1_554 S
C249 C215 1.395 . S
C249 C219 1.391 . S
C250 C212 1.389 . S
C250 C232 1.392 . S
C251 C222 1.392 . S
C251 C224 1.389 . S
C252 C227 1.395 . S
C252 C229 1.391 . S
H253 C213 0.951 . S
H254 C214 0.950 . S
H255 C220 0.949 . S
H256 C221 0.954 . S
H257 C225 0.951 . S
H258 C226 0.950 . S
H259 C230 0.949 1_556 S
H260 C231 0.950 . S
H261 C235 0.950 . S
H262 C237 0.950 . S
H263 C240 0.950 . S
H264 C242 0.950 . S
C265 C266 1.443 . S
C265 N269 1.376 . S
C265 C303 1.389 . S
C266 C265 1.443 . S
C266 C267 1.340 . S
C266 H306 0.951 . S
C267 C266 1.340 . S
C267 C268 1.439 . S
C267 H307 0.950 . S
C268 C267 1.439 . S
C268 N269 1.374 . S
C268 C302 1.395 . S
N269 C265 1.376 . S
N269 C268 1.374 . S
N269 Co270 2.008 . S
Co270 N269 2.008 . S
Co270 N271 1.995 . S
Co270 N276 2.008 . S
Co270 N281 1.995 . S
Co270 N286 2.282 . S
Co270 N292 2.282 . S
N271 Co270 1.995 . S
N271 C272 1.376 . S
N271 C275 1.383 . S
C272 N271 1.376 . S
C272 C273 1.446 . S
C272 C302 1.391 . S
C273 C272 1.446 . S
C273 C274 1.339 . S
C273 H308 0.949 . S
C274 C273 1.339 . S
C274 C275 1.439 . S
C274 H309 0.950 . S
C275 N271 1.383 . S
C275 C274 1.439 . S
C275 C304 1.392 . S
N276 Co270 2.008 . S
N276 C277 1.376 . S
N276 C280 1.374 . S
C277 N276 1.376 . S
C277 C278 1.443 . S
C277 C304 1.389 . S
C278 C277 1.443 . S
C278 C279 1.340 . S
C278 H310 0.951 . S
C279 C278 1.340 . S
C279 C280 1.439 . S
C279 H311 0.950 . S
C280 N276 1.374 . S
C280 C279 1.439 . S
C280 C305 1.395 . S
N281 Co270 1.995 . S
N281 C282 1.376 . S
N281 C285 1.383 . S
C282 N281 1.376 . S
C282 C283 1.446 . S
C282 C305 1.391 . S
C283 C282 1.446 . S
C283 C284 1.339 . S
C283 H312 0.949 . S
C284 C283 1.339 . S
C284 C285 1.439 . S
C284 H313 0.950 . S
C285 N281 1.383 . S
C285 C284 1.439 . S
C285 C303 1.392 . S
N286 Co270 2.282 . S
N286 C289 1.332 . S
N286 C291 1.332 . S
C287 C288 1.386 . S
C287 C290 1.388 . S
C288 C287 1.386 . S
C288 C289 1.382 . S
C288 H314 0.950 . S
C289 N286 1.332 . S
C289 C288 1.382 . S
C289 H300 0.952 . S
C290 C287 1.388 . S
C290 C291 1.382 . S
C290 H315 0.950 . S
C291 N286 1.332 . S
C291 C290 1.382 . S
C291 H301 0.948 . S
N292 Co270 2.282 . S
N292 C296 1.332 . S
N292 C297 1.332 . S
C293 C294 1.388 . S
C293 C297 1.382 . S
C293 H316 0.950 . S
C294 C293 1.388 . S
C294 C295 1.386 . S
C295 C294 1.386 . S
C295 C296 1.382 . S
C295 H317 0.950 . S
C296 N292 1.332 . S
C296 C295 1.382 . S
C296 H298 0.952 . S
C297 N292 1.332 . S
C297 C293 1.382 . S
C297 H299 0.948 . S
H298 C296 0.952 . S
H299 C297 0.948 . S
H300 C289 0.952 . S
H301 C291 0.948 . S
C302 C268 1.395 . S
C302 C272 1.391 . S
C303 C265 1.389 . S
C303 C285 1.392 . S
C304 C275 1.392 . S
C304 C277 1.389 . S
C305 C280 1.395 . S
C305 C282 1.391 . S
H306 C266 0.951 . S
H307 C267 0.950 . S
H308 C273 0.949 . S
H309 C274 0.950 . S
H310 C278 0.951 . S
H311 C279 0.950 . S
H312 C283 0.949 . S
H313 C284 0.950 . S
H314 C288 0.950 . S
H315 C290 0.950 . S
H316 C293 0.950 . S
H317 C295 0.950 . S
C318 C319 1.560 . S
C318 H379 0.959 . S
C318 H380 0.959 . S
C318 H381 0.960 . S
C319 C318 1.560 . S
C319 O374 1.426 . S
C319 H378 0.980 . S
C320 C321 1.407 . S
C320 C325 1.418 . S
C320 O374 1.334 . S
C321 C320 1.407 . S
C321 C322 1.360 . S
C321 H382 0.929 . S
C322 C321 1.360 . S
C322 C323 1.401 . S
C322 C326 1.527 . S
C323 C322 1.401 . S
C323 C324 1.405 . S
C323 C356 1.587 . S
C324 C323 1.405 . S
C324 C325 1.332 . S
C324 C327 1.496 . S
C325 C320 1.418 . S
C325 C324 1.332 . S
C325 H383 0.929 . S
C326 C322 1.527 . S
C326 H384 0.959 . S
C326 H385 0.961 . S
C326 H386 0.961 . S
C327 C324 1.496 . S
C327 H387 0.960 . S
C327 H388 0.960 . S
C327 H389 0.961 . S
C328 C329 1.517 . S
C328 H391 0.961 . S
C328 H392 0.960 . S
C328 H393 0.959 . S
C329 C328 1.517 . S
C329 O377 1.468 . S
C329 H390 0.980 . S
C330 C331 1.349 . S
C330 C335 1.367 . S
C330 O377 1.408 . S
C331 C330 1.349 . S
C331 C332 1.407 . S
C331 H394 0.930 . S
C332 C331 1.407 . S
C332 C333 1.449 . S
C332 C336 1.535 . S
C333 C332 1.449 . S
C333 C334 1.384 . S
C333 C358 1.553 . S
C334 C333 1.384 . S
C334 C335 1.364 . S
C334 C337 1.450 . S
C335 C330 1.367 . S
C335 C334 1.364 . S
C335 H395 0.931 . S
C336 C332 1.535 . S
C336 H396 0.959 . S
C336 H397 0.961 . S
C336 H398 0.959 . S
C337 C334 1.450 . S
C337 H399 0.960 . S
C337 H400 0.960 . S
C337 H401 0.960 . S
C338 C339 1.309 . S
C338 C343 1.304 . S
C338 O376 1.435 . S
C339 C338 1.309 . S
C339 C340 1.476 . S
C339 H403 0.930 . S
C340 C339 1.476 . S
C340 C341 1.400 . S
C340 C344 1.567 . S
C341 C340 1.400 . S
C341 C342 1.373 . S
C341 C363 1.432 . S
C342 C341 1.373 . S
C342 C343 1.339 . S
C342 C345 1.530 . S
C343 C338 1.304 . S
C343 C342 1.339 . S
C343 H404 0.930 . S
C344 C340 1.567 . S
C344 H405 0.961 . S
C344 H406 0.960 . S
C344 H407 0.958 . S
C345 C342 1.530 . S
C345 H408 0.961 . S
C345 H409 0.960 . S
C345 H410 0.960 . S
C346 C347 1.530 . S
C346 H412 0.961 . S
C346 H413 0.961 . S
C346 H414 0.959 . S
C347 C346 1.530 . S
C347 O375 1.412 . S
C347 H411 0.980 . S
C348 C349 1.288 . S
C348 C353 1.377 . S
C348 O375 1.393 . S
C349 C348 1.288 . S
C349 C350 1.369 . S
C349 H415 0.932 . S
C350 C349 1.369 . S
C350 C351 1.398 . S
C350 C354 1.527 . S
C351 C350 1.398 . S
C351 C352 1.380 . S
C351 C365 1.497 . S
C352 C351 1.380 . S
C352 C353 1.383 . S
C352 C355 1.603 . S
C353 C348 1.377 . S
C353 C352 1.383 . S
C353 H416 0.929 . S
C354 C350 1.527 . S
C354 H417 0.961 . S
C354 H418 0.959 . S
C354 H419 0.959 . S
C355 C352 1.603 . S
C355 H420 0.960 . S
C355 H421 0.962 . S
C355 H422 0.961 . S
C356 C323 1.587 . S
C356 C357 1.360 . S
C356 C369 1.412 . S
C357 C356 1.360 . S
C357 C358 1.365 . S
C357 H423 0.929 . S
C358 C333 1.553 . S
C358 C357 1.365 . S
C358 C359 1.404 . S
C359 C358 1.404 . S
C359 C360 1.395 . S
C359 C370 1.451 . S
C360 C359 1.395 . S
C360 C361 1.322 . S
C360 H424 0.930 . S
C361 C360 1.322 . S
C361 C362 1.459 . S
C361 H425 0.929 . S
C362 C361 1.459 . S
C362 C363 1.445 . S
C362 C371 1.395 . S
C363 C341 1.432 . S
C363 C362 1.445 . S
C363 C364 1.370 . S
C364 C363 1.370 . S
C364 C365 1.438 . S
C364 H426 0.930 . S
C365 C351 1.497 . S
C365 C364 1.438 . S
C365 C366 1.360 . S
C366 C365 1.360 . S
C366 C367 1.401 . S
C366 C371 1.446 . S
C367 C366 1.401 . S
C367 C368 1.347 . S
C367 H427 0.929 . S
C368 C367 1.347 . S
C368 C369 1.455 . S
C368 H428 0.930 . S
C369 C356 1.412 . S
C369 C368 1.455 . S
C369 C370 1.331 . S
C370 C359 1.451 . S
C370 C369 1.331 . S
C370 C371 1.497 . S
C371 C362 1.395 . S
C371 C366 1.446 . S
C371 C370 1.497 . S
C372 C373 1.582 . S
C372 H429 0.962 . S
C372 H430 0.959 . S
C372 H431 0.958 . S
C373 C372 1.582 . S
C373 O376 1.458 . S
C373 H402 0.980 . S
O374 C319 1.426 . S
O374 C320 1.334 . S
O375 C347 1.412 . S
O375 C348 1.393 . S
O376 C338 1.435 . S
O376 C373 1.458 . S
O377 C329 1.468 . S
O377 C330 1.408 . S
H378 C319 0.980 . S
H379 C318 0.959 . S
H380 C318 0.959 . S
H381 C318 0.960 . S
H382 C321 0.929 . S
H383 C325 0.929 . S
H384 C326 0.959 . S
H385 C326 0.961 . S
H386 C326 0.961 . S
H387 C327 0.960 . S
H388 C327 0.960 . S
H389 C327 0.961 . S
H390 C329 0.980 . S
H391 C328 0.961 . S
H392 C328 0.960 . S
H393 C328 0.959 . S
H394 C331 0.930 . S
H395 C335 0.931 . S
H396 C336 0.959 . S
H397 C336 0.961 . S
H398 C336 0.959 . S
H399 C337 0.960 . S
H400 C337 0.960 . S
H401 C337 0.960 . S
H402 C373 0.980 . S
H403 C339 0.930 . S
H404 C343 0.930 . S
H405 C344 0.961 . S
H406 C344 0.960 . S
H407 C344 0.958 . S
H408 C345 0.961 . S
H409 C345 0.960 . S
H410 C345 0.960 . S
H411 C347 0.980 . S
H412 C346 0.961 . S
H413 C346 0.961 . S
H414 C346 0.959 . S
H415 C349 0.932 . S
H416 C353 0.929 . S
H417 C354 0.961 . S
H418 C354 0.959 . S
H419 C354 0.959 . S
H420 C355 0.960 . S
H421 C355 0.962 . S
H422 C355 0.961 . S
H423 C357 0.929 . S
H424 C360 0.930 . S
H425 C361 0.929 . S
H426 C364 0.930 . S
H427 C367 0.929 . S
H428 C368 0.930 . S
H429 C372 0.962 . S
H430 C372 0.959 . S
H431 C372 0.958 . S
C432 C433 1.560 . S
C432 H493 0.959 . S
C432 H494 0.959 . S
C432 H495 0.960 . S
C433 C432 1.560 . S
C433 O488 1.426 . S
C433 H492 0.980 . S
C434 C435 1.407 . S
C434 C439 1.418 . S
C434 O488 1.334 . S
C435 C434 1.407 . S
C435 C436 1.360 . S
C435 H496 0.929 . S
C436 C435 1.360 . S
C436 C437 1.401 . S
C436 C440 1.527 . S
C437 C436 1.401 . S
C437 C438 1.405 . S
C437 C470 1.587 . S
C438 C437 1.405 . S
C438 C439 1.332 . S
C438 C441 1.496 . S
C439 C434 1.418 . S
C439 C438 1.332 . S
C439 H497 0.929 . S
C440 C436 1.527 . S
C440 H498 0.959 . S
C440 H499 0.961 . S
C440 H500 0.961 . S
C441 C438 1.496 . S
C441 H501 0.960 . S
C441 H502 0.960 . S
C441 H503 0.961 . S
C442 C443 1.517 . S
C442 H505 0.961 . S
C442 H506 0.960 . S
C442 H507 0.959 . S
C443 C442 1.517 . S
C443 O491 1.468 . S
C443 H504 0.980 . S
C444 C445 1.349 . S
C444 C449 1.367 . S
C444 O491 1.408 . S
C445 C444 1.349 . S
C445 C446 1.407 . S
C445 H508 0.930 . S
C446 C445 1.407 . S
C446 C447 1.449 . S
C446 C450 1.535 . S
C447 C446 1.449 . S
C447 C448 1.384 . S
C447 C472 1.553 . S
C448 C447 1.384 . S
C448 C449 1.364 . S
C448 C451 1.450 . S
C449 C444 1.367 . S
C449 C448 1.364 . S
C449 H509 0.931 . S
C450 C446 1.535 . S
C450 H510 0.959 . S
C450 H511 0.961 . S
C450 H512 0.959 . S
C451 C448 1.450 . S
C451 H513 0.960 . S
C451 H514 0.960 . S
C451 H515 0.960 . S
C452 C453 1.309 . S
C452 C457 1.304 . S
C452 O490 1.435 . S
C453 C452 1.309 . S
C453 C454 1.476 . S
C453 H517 0.930 . S
C454 C453 1.476 . S
C454 C455 1.400 . S
C454 C458 1.567 . S
C455 C454 1.400 . S
C455 C456 1.373 . S
C455 C477 1.432 . S
C456 C455 1.373 . S
C456 C457 1.339 . S
C456 C459 1.530 . S
C457 C452 1.304 . S
C457 C456 1.339 . S
C457 H518 0.930 . S
C458 C454 1.567 . S
C458 H519 0.961 . S
C458 H520 0.960 . S
C458 H521 0.958 . S
C459 C456 1.530 . S
C459 H522 0.961 . S
C459 H523 0.960 . S
C459 H524 0.960 . S
C460 C461 1.530 . S
C460 H526 0.961 . S
C460 H527 0.961 . S
C460 H528 0.959 . S
C461 C460 1.530 . S
C461 O489 1.412 . S
C461 H525 0.980 . S
C462 C463 1.288 . S
C462 C467 1.377 . S
C462 O489 1.393 . S
C463 C462 1.288 . S
C463 C464 1.369 . S
C463 H529 0.932 . S
C464 C463 1.369 . S
C464 C465 1.398 . S
C464 C468 1.527 . S
C465 C464 1.398 . S
C465 C466 1.380 . S
C465 C479 1.497 . S
C466 C465 1.380 . S
C466 C467 1.383 . S
C466 C469 1.603 . S
C467 C462 1.377 . S
C467 C466 1.383 . S
C467 H530 0.929 . S
C468 C464 1.527 . S
C468 H531 0.961 . S
C468 H532 0.959 . S
C468 H533 0.959 . S
C469 C466 1.603 . S
C469 H534 0.960 . S
C469 H535 0.962 . S
C469 H536 0.961 . S
C470 C437 1.587 . S
C470 C471 1.360 . S
C470 C483 1.412 . S
C471 C470 1.360 . S
C471 C472 1.365 . S
C471 H537 0.929 . S
C472 C447 1.553 . S
C472 C471 1.365 . S
C472 C473 1.404 . S
C473 C472 1.404 . S
C473 C474 1.395 . S
C473 C484 1.451 . S
C474 C473 1.395 . S
C474 C475 1.322 . S
C474 H538 0.930 . S
C475 C474 1.322 . S
C475 C476 1.459 . S
C475 H539 0.929 . S
C476 C475 1.459 . S
C476 C477 1.445 . S
C476 C485 1.395 . S
C477 C455 1.432 . S
C477 C476 1.445 . S
C477 C478 1.370 . S
C478 C477 1.370 . S
C478 C479 1.438 . S
C478 H540 0.930 . S
C479 C465 1.497 . S
C479 C478 1.438 . S
C479 C480 1.360 . S
C480 C479 1.360 . S
C480 C481 1.401 . S
C480 C485 1.446 . S
C481 C480 1.401 . S
C481 C482 1.347 . S
C481 H541 0.929 . S
C482 C481 1.347 . S
C482 C483 1.455 . S
C482 H542 0.930 . S
C483 C470 1.412 . S
C483 C482 1.455 . S
C483 C484 1.331 . S
C484 C473 1.451 . S
C484 C483 1.331 . S
C484 C485 1.497 . S
C485 C476 1.395 . S
C485 C480 1.446 . S
C485 C484 1.497 . S
C486 C487 1.582 . S
C486 H543 0.962 . S
C486 H544 0.959 . S
C486 H545 0.958 . S
C487 C486 1.582 . S
C487 O490 1.458 . S
C487 H516 0.980 . S
O488 C433 1.426 . S
O488 C434 1.334 . S
O489 C461 1.412 . S
O489 C462 1.393 . S
O490 C452 1.435 . S
O490 C487 1.458 . S
O491 C443 1.468 . S
O491 C444 1.408 . S
H492 C433 0.980 . S
H493 C432 0.959 . S
H494 C432 0.959 . S
H495 C432 0.960 . S
H496 C435 0.929 . S
H497 C439 0.929 . S
H498 C440 0.959 . S
H499 C440 0.961 . S
H500 C440 0.961 . S
H501 C441 0.960 . S
H502 C441 0.960 . S
H503 C441 0.961 . S
H504 C443 0.980 . S
H505 C442 0.961 . S
H506 C442 0.960 . S
H507 C442 0.959 . S
H508 C445 0.930 . S
H509 C449 0.931 . S
H510 C450 0.959 . S
H511 C450 0.961 . S
H512 C450 0.959 . S
H513 C451 0.960 . S
H514 C451 0.960 . S
H515 C451 0.960 . S
H516 C487 0.980 . S
H517 C453 0.930 . S
H518 C457 0.930 . S
H519 C458 0.961 . S
H520 C458 0.960 . S
H521 C458 0.958 . S
H522 C459 0.961 . S
H523 C459 0.960 . S
H524 C459 0.960 . S
H525 C461 0.980 . S
H526 C460 0.961 . S
H527 C460 0.961 . S
H528 C460 0.959 . S
H529 C463 0.932 . S
H530 C467 0.929 . S
H531 C468 0.961 . S
H532 C468 0.959 . S
H533 C468 0.959 . S
H534 C469 0.960 . S
H535 C469 0.962 . S
H536 C469 0.961 . S
H537 C471 0.929 . S
H538 C474 0.930 . S
H539 C475 0.929 . S
H540 C478 0.930 . S
H541 C481 0.929 . S
H542 C482 0.930 . S
H543 C486 0.962 . S
H544 C486 0.959 . S
H545 C486 0.958 . S
C546 C547 1.560 . S
C546 H607 0.959 . S
C546 H608 0.959 . S
C546 H609 0.960 . S
C547 C546 1.560 . S
C547 O602 1.426 . S
C547 H606 0.980 . S
C548 C549 1.407 . S
C548 C553 1.418 . S
C548 O602 1.334 . S
C549 C548 1.407 . S
C549 C550 1.360 . S
C549 H610 0.929 . S
C550 C549 1.360 . S
C550 C551 1.401 . S
C550 C554 1.527 . S
C551 C550 1.401 . S
C551 C552 1.405 . S
C551 C584 1.587 . S
C552 C551 1.405 . S
C552 C553 1.332 . S
C552 C555 1.496 . S
C553 C548 1.418 . S
C553 C552 1.332 . S
C553 H611 0.929 . S
C554 C550 1.527 . S
C554 H612 0.959 . S
C554 H613 0.961 . S
C554 H614 0.961 . S
C555 C552 1.496 . S
C555 H615 0.960 . S
C555 H616 0.960 . S
C555 H617 0.961 . S
C556 C557 1.517 . S
C556 H619 0.961 . S
C556 H620 0.960 . S
C556 H621 0.959 . S
C557 C556 1.517 . S
C557 O605 1.468 . S
C557 H618 0.980 . S
C558 C559 1.349 . S
C558 C563 1.367 . S
C558 O605 1.408 . S
C559 C558 1.349 . S
C559 C560 1.407 . S
C559 H622 0.930 . S
C560 C559 1.407 . S
C560 C561 1.449 . S
C560 C564 1.535 . S
C561 C560 1.449 . S
C561 C562 1.384 . S
C561 C586 1.553 . S
C562 C561 1.384 . S
C562 C563 1.364 . S
C562 C565 1.450 . S
C563 C558 1.367 . S
C563 C562 1.364 . S
C563 H623 0.931 . S
C564 C560 1.535 . S
C564 H624 0.959 . S
C564 H625 0.961 . S
C564 H626 0.959 . S
C565 C562 1.450 . S
C565 H627 0.960 . S
C565 H628 0.960 . S
C565 H629 0.960 . S
C566 C567 1.309 . S
C566 C571 1.304 . S
C566 O604 1.435 . S
C567 C566 1.309 . S
C567 C568 1.476 . S
C567 H631 0.930 . S
C568 C567 1.476 . S
C568 C569 1.400 . S
C568 C572 1.567 . S
C569 C568 1.400 . S
C569 C570 1.373 . S
C569 C591 1.432 . S
C570 C569 1.373 . S
C570 C571 1.339 . S
C570 C573 1.530 . S
C571 C566 1.304 . S
C571 C570 1.339 . S
C571 H632 0.930 . S
C572 C568 1.567 . S
C572 H633 0.961 . S
C572 H634 0.960 . S
C572 H635 0.958 . S
C573 C570 1.530 . S
C573 H636 0.961 . S
C573 H637 0.960 . S
C573 H638 0.960 . S
C574 C575 1.530 . S
C574 H640 0.961 . S
C574 H641 0.961 . S
C574 H642 0.959 . S
C575 C574 1.530 . S
C575 O603 1.412 . S
C575 H639 0.980 . S
C576 C577 1.288 . S
C576 C581 1.377 . S
C576 O603 1.393 . S
C577 C576 1.288 . S
C577 C578 1.369 . S
C577 H643 0.932 . S
C578 C577 1.369 . S
C578 C579 1.398 . S
C578 C582 1.527 . S
C579 C578 1.398 . S
C579 C580 1.380 . S
C579 C593 1.497 . S
C580 C579 1.380 . S
C580 C581 1.383 . S
C580 C583 1.603 . S
C581 C576 1.377 . S
C581 C580 1.383 . S
C581 H644 0.929 . S
C582 C578 1.527 . S
C582 H645 0.961 . S
C582 H646 0.959 . S
C582 H647 0.959 . S
C583 C580 1.603 . S
C583 H648 0.960 . S
C583 H649 0.962 . S
C583 H650 0.961 . S
C584 C551 1.587 . S
C584 C585 1.360 . S
C584 C597 1.412 . S
C585 C584 1.360 . S
C585 C586 1.365 . S
C585 H651 0.929 . S
C586 C561 1.553 . S
C586 C585 1.365 . S
C586 C587 1.404 . S
C587 C586 1.404 . S
C587 C588 1.395 . S
C587 C598 1.451 . S
C588 C587 1.395 . S
C588 C589 1.322 . S
C588 H652 0.930 . S
C589 C588 1.322 . S
C589 C590 1.459 . S
C589 H653 0.929 . S
C590 C589 1.459 . S
C590 C591 1.445 . S
C590 C599 1.395 . S
C591 C569 1.432 . S
C591 C590 1.445 . S
C591 C592 1.370 . S
C592 C591 1.370 . S
C592 C593 1.438 . S
C592 H654 0.930 . S
C593 C579 1.497 . S
C593 C592 1.438 . S
C593 C594 1.360 . S
C594 C593 1.360 . S
C594 C595 1.401 . S
C594 C599 1.446 . S
C595 C594 1.401 . S
C595 C596 1.347 . S
C595 H655 0.929 . S
C596 C595 1.347 . S
C596 C597 1.455 . S
C596 H656 0.930 . S
C597 C584 1.412 . S
C597 C596 1.455 . S
C597 C598 1.331 . S
C598 C587 1.451 . S
C598 C597 1.331 . S
C598 C599 1.497 . S
C599 C590 1.395 . S
C599 C594 1.446 . S
C599 C598 1.497 . S
C600 C601 1.582 . S
C600 H657 0.962 . S
C600 H658 0.959 . S
C600 H659 0.958 . S
C601 C600 1.582 . S
C601 O604 1.458 . S
C601 H630 0.980 . S
O602 C547 1.426 . S
O602 C548 1.334 . S
O603 C575 1.412 . S
O603 C576 1.393 . S
O604 C566 1.435 . S
O604 C601 1.458 . S
O605 C557 1.468 . S
O605 C558 1.408 . S
H606 C547 0.980 . S
H607 C546 0.959 . S
H608 C546 0.959 . S
H609 C546 0.960 . S
H610 C549 0.929 . S
H611 C553 0.929 . S
H612 C554 0.959 . S
H613 C554 0.961 . S
H614 C554 0.961 . S
H615 C555 0.960 . S
H616 C555 0.960 . S
H617 C555 0.961 . S
H618 C557 0.980 . S
H619 C556 0.961 . S
H620 C556 0.960 . S
H621 C556 0.959 . S
H622 C559 0.930 . S
H623 C563 0.931 . S
H624 C564 0.959 . S
H625 C564 0.961 . S
H626 C564 0.959 . S
H627 C565 0.960 . S
H628 C565 0.960 . S
H629 C565 0.960 . S
H630 C601 0.980 . S
H631 C567 0.930 . S
H632 C571 0.930 . S
H633 C572 0.961 . S
H634 C572 0.960 . S
H635 C572 0.958 . S
H636 C573 0.961 . S
H637 C573 0.960 . S
H638 C573 0.960 . S
H639 C575 0.980 . S
H640 C574 0.961 . S
H641 C574 0.961 . S
H642 C574 0.959 . S
H643 C577 0.932 . S
H644 C581 0.929 . S
H645 C582 0.961 . S
H646 C582 0.959 . S
H647 C582 0.959 . S
H648 C583 0.960 . S
H649 C583 0.962 . S
H650 C583 0.961 . S
H651 C585 0.929 . S
H652 C588 0.930 . S
H653 C589 0.929 . S
H654 C592 0.930 . S
H655 C595 0.929 . S
H656 C596 0.930 . S
H657 C600 0.962 . S
H658 C600 0.959 . S
H659 C600 0.958 . S
C660 C661 1.560 . S
C660 H721 0.959 . S
C660 H722 0.959 . S
C660 H723 0.960 . S
C661 C660 1.560 . S
C661 O716 1.426 . S
C661 H720 0.980 . S
C662 C663 1.407 . S
C662 C667 1.418 . S
C662 O716 1.334 . S
C663 C662 1.407 . S
C663 C664 1.360 . S
C663 H724 0.929 . S
C664 C663 1.360 . S
C664 C665 1.401 . S
C664 C668 1.527 . S
C665 C664 1.401 . S
C665 C666 1.405 . S
C665 C698 1.587 . S
C666 C665 1.405 . S
C666 C667 1.332 . S
C666 C669 1.496 . S
C667 C662 1.418 . S
C667 C666 1.332 . S
C667 H725 0.929 . S
C668 C664 1.527 . S
C668 H726 0.959 . S
C668 H727 0.961 . S
C668 H728 0.961 . S
C669 C666 1.496 . S
C669 H729 0.960 . S
C669 H730 0.960 . S
C669 H731 0.961 . S
C670 C671 1.517 . S
C670 H733 0.961 . S
C670 H734 0.960 . S
C670 H735 0.959 . S
C671 C670 1.517 . S
C671 O719 1.468 . S
C671 H732 0.980 . S
C672 C673 1.349 . S
C672 C677 1.367 . S
C672 O719 1.408 . S
C673 C672 1.349 . S
C673 C674 1.407 . S
C673 H736 0.930 . S
C674 C673 1.407 . S
C674 C675 1.449 . S
C674 C678 1.535 . S
C675 C674 1.449 . S
C675 C676 1.384 . S
C675 C700 1.553 . S
C676 C675 1.384 . S
C676 C677 1.364 . S
C676 C679 1.450 . S
C677 C672 1.367 . S
C677 C676 1.364 . S
C677 H737 0.931 . S
C678 C674 1.535 . S
C678 H738 0.959 . S
C678 H739 0.961 . S
C678 H740 0.959 . S
C679 C676 1.450 . S
C679 H741 0.960 . S
C679 H742 0.960 . S
C679 H743 0.960 . S
C680 C681 1.309 . S
C680 C685 1.304 . S
C680 O718 1.435 . S
C681 C680 1.309 . S
C681 C682 1.476 . S
C681 H745 0.930 . S
C682 C681 1.476 . S
C682 C683 1.400 . S
C682 C686 1.567 . S
C683 C682 1.400 . S
C683 C684 1.373 . S
C683 C705 1.432 . S
C684 C683 1.373 . S
C684 C685 1.339 . S
C684 C687 1.530 . S
C685 C680 1.304 . S
C685 C684 1.339 . S
C685 H746 0.930 . S
C686 C682 1.567 . S
C686 H747 0.961 . S
C686 H748 0.960 . S
C686 H749 0.958 . S
C687 C684 1.530 . S
C687 H750 0.961 . S
C687 H751 0.960 . S
C687 H752 0.960 . S
C688 C689 1.530 . S
C688 H754 0.961 . S
C688 H755 0.961 . S
C688 H756 0.959 . S
C689 C688 1.530 . S
C689 O717 1.412 . S
C689 H753 0.980 . S
C690 C691 1.288 . S
C690 C695 1.377 . S
C690 O717 1.393 . S
C691 C690 1.288 . S
C691 C692 1.369 . S
C691 H757 0.932 . S
C692 C691 1.369 . S
C692 C693 1.398 . S
C692 C696 1.527 . S
C693 C692 1.398 . S
C693 C694 1.380 . S
C693 C707 1.497 . S
C694 C693 1.380 . S
C694 C695 1.383 . S
C694 C697 1.603 . S
C695 C690 1.377 . S
C695 C694 1.383 . S
C695 H758 0.929 . S
C696 C692 1.527 . S
C696 H759 0.961 . S
C696 H760 0.959 . S
C696 H761 0.959 . S
C697 C694 1.603 . S
C697 H762 0.960 . S
C697 H763 0.962 . S
C697 H764 0.961 . S
C698 C665 1.587 . S
C698 C699 1.360 . S
C698 C711 1.412 . S
C699 C698 1.360 . S
C699 C700 1.365 . S
C699 H765 0.929 . S
C700 C675 1.553 . S
C700 C699 1.365 . S
C700 C701 1.404 . S
C701 C700 1.404 . S
C701 C702 1.395 . S
C701 C712 1.451 . S
C702 C701 1.395 . S
C702 C703 1.322 . S
C702 H766 0.930 . S
C703 C702 1.322 . S
C703 C704 1.459 . S
C703 H767 0.929 . S
C704 C703 1.459 . S
C704 C705 1.445 . S
C704 C713 1.395 . S
C705 C683 1.432 . S
C705 C704 1.445 . S
C705 C706 1.370 . S
C706 C705 1.370 . S
C706 C707 1.438 . S
C706 H768 0.930 . S
C707 C693 1.497 . S
C707 C706 1.438 . S
C707 C708 1.360 . S
C708 C707 1.360 . S
C708 C709 1.401 . S
C708 C713 1.446 . S
C709 C708 1.401 . S
C709 C710 1.347 . S
C709 H769 0.929 . S
C710 C709 1.347 . S
C710 C711 1.455 . S
C710 H770 0.930 . S
C711 C698 1.412 . S
C711 C710 1.455 . S
C711 C712 1.331 . S
C712 C701 1.451 . S
C712 C711 1.331 . S
C712 C713 1.497 . S
C713 C704 1.395 . S
C713 C708 1.446 . S
C713 C712 1.497 . S
C714 C715 1.582 . S
C714 H771 0.962 . S
C714 H772 0.959 . S
C714 H773 0.958 . S
C715 C714 1.582 . S
C715 O718 1.458 . S
C715 H744 0.980 . S
O716 C661 1.426 . S
O716 C662 1.334 . S
O717 C689 1.412 . S
O717 C690 1.393 . S
O718 C680 1.435 . S
O718 C715 1.458 . S
O719 C671 1.468 . S
O719 C672 1.408 . S
H720 C661 0.980 . S
H721 C660 0.959 . S
H722 C660 0.959 . S
H723 C660 0.960 . S
H724 C663 0.929 . S
H725 C667 0.929 . S
H726 C668 0.959 . S
H727 C668 0.961 . S
H728 C668 0.961 . S
H729 C669 0.960 . S
H730 C669 0.960 . S
H731 C669 0.961 . S
H732 C671 0.980 . S
H733 C670 0.961 . S
H734 C670 0.960 . S
H735 C670 0.959 . S
H736 C673 0.930 . S
H737 C677 0.931 . S
H738 C678 0.959 . S
H739 C678 0.961 . S
H740 C678 0.959 . S
H741 C679 0.960 . S
H742 C679 0.960 . S
H743 C679 0.960 . S
H744 C715 0.980 . S
H745 C681 0.930 . S
H746 C685 0.930 . S
H747 C686 0.961 . S
H748 C686 0.960 . S
H749 C686 0.958 . S
H750 C687 0.961 . S
H751 C687 0.960 . S
H752 C687 0.960 . S
H753 C689 0.980 . S
H754 C688 0.961 . S
H755 C688 0.961 . S
H756 C688 0.959 . S
H757 C691 0.932 . S
H758 C695 0.929 . S
H759 C696 0.961 . S
H760 C696 0.959 . S
H761 C696 0.959 . S
H762 C697 0.960 . S
H763 C697 0.962 . S
H764 C697 0.961 . S
H765 C699 0.929 . S
H766 C702 0.930 . S
H767 C703 0.929 . S
H768 C706 0.930 . S
H769 C709 0.929 . S
H770 C710 0.930 . S
H771 C714 0.962 . S
H772 C714 0.959 . S
H773 C714 0.958 . S
C774 C775 1.560 . S
C774 H835 0.959 . S
C774 H836 0.959 . S
C774 H837 0.960 . S
C775 C774 1.560 . S
C775 O830 1.426 . S
C775 H834 0.980 . S
C776 C777 1.407 . S
C776 C781 1.418 . S
C776 O830 1.334 . S
C777 C776 1.407 . S
C777 C778 1.360 . S
C777 H838 0.929 . S
C778 C777 1.360 . S
C778 C779 1.401 . S
C778 C782 1.527 . S
C779 C778 1.401 . S
C779 C780 1.405 . S
C779 C812 1.587 . S
C780 C779 1.405 . S
C780 C781 1.332 . S
C780 C783 1.496 . S
C781 C776 1.418 . S
C781 C780 1.332 . S
C781 H839 0.929 . S
C782 C778 1.527 . S
C782 H840 0.959 . S
C782 H841 0.961 . S
C782 H842 0.961 . S
C783 C780 1.496 . S
C783 H843 0.960 . S
C783 H844 0.960 . S
C783 H845 0.961 . S
C784 C785 1.517 . S
C784 H847 0.961 . S
C784 H848 0.960 . S
C784 H849 0.959 . S
C785 C784 1.517 . S
C785 O833 1.468 . S
C785 H846 0.980 . S
C786 C787 1.349 . S
C786 C791 1.367 . S
C786 O833 1.408 . S
C787 C786 1.349 . S
C787 C788 1.407 . S
C787 H850 0.930 . S
C788 C787 1.407 . S
C788 C789 1.449 . S
C788 C792 1.535 . S
C789 C788 1.449 . S
C789 C790 1.384 . S
C789 C814 1.553 . S
C790 C789 1.384 . S
C790 C791 1.364 . S
C790 C793 1.450 . S
C791 C786 1.367 . S
C791 C790 1.364 . S
C791 H851 0.931 . S
C792 C788 1.535 . S
C792 H852 0.959 . S
C792 H853 0.961 . S
C792 H854 0.959 . S
C793 C790 1.450 . S
C793 H855 0.960 . S
C793 H856 0.960 . S
C793 H857 0.960 . S
C794 C795 1.309 . S
C794 C799 1.304 . S
C794 O832 1.435 . S
C795 C794 1.309 . S
C795 C796 1.476 . S
C795 H859 0.930 . S
C796 C795 1.476 . S
C796 C797 1.400 . S
C796 C800 1.567 . S
C797 C796 1.400 . S
C797 C798 1.373 . S
C797 C819 1.432 . S
C798 C797 1.373 . S
C798 C799 1.339 . S
C798 C801 1.530 . S
C799 C794 1.304 . S
C799 C798 1.339 . S
C799 H860 0.930 . S
C800 C796 1.567 . S
C800 H861 0.961 . S
C800 H862 0.960 . S
C800 H863 0.958 . S
C801 C798 1.530 . S
C801 H864 0.961 . S
C801 H865 0.960 . S
C801 H866 0.960 . S
C802 C803 1.530 . S
C802 H868 0.961 . S
C802 H869 0.961 . S
C802 H870 0.959 . S
C803 C802 1.530 . S
C803 O831 1.412 . S
C803 H867 0.980 . S
C804 C805 1.288 . S
C804 C809 1.377 . S
C804 O831 1.393 . S
C805 C804 1.288 . S
C805 C806 1.369 . S
C805 H871 0.932 . S
C806 C805 1.369 . S
C806 C807 1.398 . S
C806 C810 1.527 . S
C807 C806 1.398 . S
C807 C808 1.380 . S
C807 C821 1.497 . S
C808 C807 1.380 . S
C808 C809 1.383 . S
C808 C811 1.603 . S
C809 C804 1.377 . S
C809 C808 1.383 . S
C809 H872 0.929 . S
C810 C806 1.527 . S
C810 H873 0.961 . S
C810 H874 0.959 . S
C810 H875 0.959 . S
C811 C808 1.603 . S
C811 H876 0.960 . S
C811 H877 0.962 . S
C811 H878 0.961 . S
C812 C779 1.587 . S
C812 C813 1.360 . S
C812 C825 1.412 . S
C813 C812 1.360 . S
C813 C814 1.365 . S
C813 H879 0.929 . S
C814 C789 1.553 . S
C814 C813 1.365 . S
C814 C815 1.404 . S
C815 C814 1.404 . S
C815 C816 1.395 . S
C815 C826 1.451 . S
C816 C815 1.395 . S
C816 C817 1.322 . S
C816 H880 0.930 . S
C817 C816 1.322 . S
C817 C818 1.459 . S
C817 H881 0.929 . S
C818 C817 1.459 . S
C818 C819 1.445 . S
C818 C827 1.395 . S
C819 C797 1.432 . S
C819 C818 1.445 . S
C819 C820 1.370 . S
C820 C819 1.370 . S
C820 C821 1.438 . S
C820 H882 0.930 . S
C821 C807 1.497 . S
C821 C820 1.438 . S
C821 C822 1.360 . S
C822 C821 1.360 . S
C822 C823 1.401 . S
C822 C827 1.446 . S
C823 C822 1.401 . S
C823 C824 1.347 . S
C823 H883 0.929 . S
C824 C823 1.347 . S
C824 C825 1.455 . S
C824 H884 0.930 . S
C825 C812 1.412 . S
C825 C824 1.455 . S
C825 C826 1.331 . S
C826 C815 1.451 . S
C826 C825 1.331 . S
C826 C827 1.497 . S
C827 C818 1.395 . S
C827 C822 1.446 . S
C827 C826 1.497 . S
C828 C829 1.582 . S
C828 H885 0.962 . S
C828 H886 0.959 . S
C828 H887 0.958 . S
C829 C828 1.582 . S
C829 O832 1.458 . S
C829 H858 0.980 . S
O830 C775 1.426 . S
O830 C776 1.334 . S
O831 C803 1.412 . S
O831 C804 1.393 . S
O832 C794 1.435 . S
O832 C829 1.458 . S
O833 C785 1.468 . S
O833 C786 1.408 . S
H834 C775 0.980 . S
H835 C774 0.959 . S
H836 C774 0.959 . S
H837 C774 0.960 . S
H838 C777 0.929 . S
H839 C781 0.929 . S
H840 C782 0.959 . S
H841 C782 0.961 . S
H842 C782 0.961 . S
H843 C783 0.960 . S
H844 C783 0.960 . S
H845 C783 0.961 . S
H846 C785 0.980 . S
H847 C784 0.961 . S
H848 C784 0.960 . S
H849 C784 0.959 . S
H850 C787 0.930 . S
H851 C791 0.931 . S
H852 C792 0.959 . S
H853 C792 0.961 . S
H854 C792 0.959 . S
H855 C793 0.960 . S
H856 C793 0.960 . S
H857 C793 0.960 . S
H858 C829 0.980 . S
H859 C795 0.930 . S
H860 C799 0.930 . S
H861 C800 0.961 . S
H862 C800 0.960 . S
H863 C800 0.958 . S
H864 C801 0.961 . S
H865 C801 0.960 . S
H866 C801 0.960 . S
H867 C803 0.980 . S
H868 C802 0.961 . S
H869 C802 0.961 . S
H870 C802 0.959 . S
H871 C805 0.932 . S
H872 C809 0.929 . S
H873 C810 0.961 . S
H874 C810 0.959 . S
H875 C810 0.959 . S
H876 C811 0.960 . S
H877 C811 0.962 . S
H878 C811 0.961 . S
H879 C813 0.929 . S
H880 C816 0.930 . S
H881 C817 0.929 . S
H882 C820 0.930 . S
H883 C823 0.929 . S
H884 C824 0.930 . S
H885 C828 0.962 . S
H886 C828 0.959 . S
H887 C828 0.958 . S
C888 C889 1.560 . S
C888 H949 0.959 . S
C888 H950 0.959 . S
C888 H951 0.960 . S
C889 C888 1.560 . S
C889 O944 1.426 . S
C889 H948 0.980 . S
C890 C891 1.407 . S
C890 C895 1.418 . S
C890 O944 1.334 . S
C891 C890 1.407 . S
C891 C892 1.360 . S
C891 H952 0.929 . S
C892 C891 1.360 . S
C892 C893 1.401 . S
C892 C896 1.527 . S
C893 C892 1.401 . S
C893 C894 1.405 . S
C893 C926 1.587 . S
C894 C893 1.405 . S
C894 C895 1.332 . S
C894 C897 1.496 . S
C895 C890 1.418 . S
C895 C894 1.332 . S
C895 H953 0.929 . S
C896 C892 1.527 . S
C896 H954 0.959 . S
C896 H955 0.961 . S
C896 H956 0.961 . S
C897 C894 1.496 . S
C897 H957 0.960 . S
C897 H958 0.960 . S
C897 H959 0.961 . S
C898 C899 1.517 . S
C898 H961 0.961 . S
C898 H962 0.960 . S
C898 H963 0.959 . S
C899 C898 1.517 . S
C899 O947 1.468 . S
C899 H960 0.980 . S
C900 C901 1.349 . S
C900 C905 1.367 . S
C900 O947 1.408 . S
C901 C900 1.349 . S
C901 C902 1.407 . S
C901 H964 0.930 . S
C902 C901 1.407 . S
C902 C903 1.449 . S
C902 C906 1.535 . S
C903 C902 1.449 . S
C903 C904 1.384 . S
C903 C928 1.553 . S
C904 C903 1.384 . S
C904 C905 1.364 . S
C904 C907 1.450 . S
C905 C900 1.367 . S
C905 C904 1.364 . S
C905 H965 0.931 . S
C906 C902 1.535 . S
C906 H966 0.959 . S
C906 H967 0.961 . S
C906 H968 0.959 . S
C907 C904 1.450 . S
C907 H969 0.960 . S
C907 H970 0.960 . S
C907 H971 0.960 . S
C908 C909 1.309 . S
C908 C913 1.304 . S
C908 O946 1.435 . S
C909 C908 1.309 . S
C909 C910 1.476 . S
C909 H973 0.930 . S
C910 C909 1.476 . S
C910 C911 1.400 . S
C910 C914 1.567 . S
C911 C910 1.400 . S
C911 C912 1.373 . S
C911 C933 1.432 . S
C912 C911 1.373 . S
C912 C913 1.339 . S
C912 C915 1.530 . S
C913 C908 1.304 . S
C913 C912 1.339 . S
C913 H974 0.930 . S
C914 C910 1.567 . S
C914 H975 0.961 . S
C914 H976 0.960 . S
C914 H977 0.958 . S
C915 C912 1.530 . S
C915 H978 0.961 . S
C915 H979 0.960 . S
C915 H980 0.960 . S
C916 C917 1.530 . S
C916 H982 0.961 . S
C916 H983 0.961 . S
C916 H984 0.959 . S
C917 C916 1.530 . S
C917 O945 1.412 . S
C917 H981 0.980 . S
C918 C919 1.288 . S
C918 C923 1.377 . S
C918 O945 1.393 . S
C919 C918 1.288 . S
C919 C920 1.369 . S
C919 H985 0.932 . S
C920 C919 1.369 . S
C920 C921 1.398 . S
C920 C924 1.527 . S
C921 C920 1.398 . S
C921 C922 1.380 . S
C921 C935 1.497 . S
C922 C921 1.380 . S
C922 C923 1.383 . S
C922 C925 1.603 . S
C923 C918 1.377 . S
C923 C922 1.383 . S
C923 H986 0.929 . S
C924 C920 1.527 . S
C924 H987 0.961 . S
C924 H988 0.959 . S
C924 H989 0.959 . S
C925 C922 1.603 . S
C925 H990 0.960 . S
C925 H991 0.962 . S
C925 H992 0.961 . S
C926 C893 1.587 . S
C926 C927 1.360 . S
C926 C939 1.412 . S
C927 C926 1.360 . S
C927 C928 1.365 . S
C927 H993 0.929 . S
C928 C903 1.553 . S
C928 C927 1.365 . S
C928 C929 1.404 . S
C929 C928 1.404 . S
C929 C930 1.395 . S
C929 C940 1.451 . S
C930 C929 1.395 . S
C930 C931 1.322 . S
C930 H994 0.930 . S
C931 C930 1.322 . S
C931 C932 1.459 . S
C931 H995 0.929 . S
C932 C931 1.459 . S
C932 C933 1.445 . S
C932 C941 1.395 . S
C933 C911 1.432 . S
C933 C932 1.445 . S
C933 C934 1.370 . S
C934 C933 1.370 . S
C934 C935 1.438 . S
C934 H996 0.930 . S
C935 C921 1.497 . S
C935 C934 1.438 . S
C935 C936 1.360 . S
C936 C935 1.360 . S
C936 C937 1.401 . S
C936 C941 1.446 . S
C937 C936 1.401 . S
C937 C938 1.347 . S
C937 H997 0.929 . S
C938 C937 1.347 . S
C938 C939 1.455 . S
C938 H998 0.930 . S
C939 C926 1.412 . S
C939 C938 1.455 . S
C939 C940 1.331 . S
C940 C929 1.451 . S
C940 C939 1.331 . S
C940 C941 1.497 . S
C941 C932 1.395 . S
C941 C936 1.446 . S
C941 C940 1.497 . S
C942 C943 1.582 . S
C942 H999 0.962 . S
C942 H1000 0.959 . S
C942 H1001 0.958 . S
C943 C942 1.582 . S
C943 O946 1.458 . S
C943 H972 0.980 . S
O944 C889 1.426 . S
O944 C890 1.334 . S
O945 C917 1.412 . S
O945 C918 1.393 . S
O946 C908 1.435 . S
O946 C943 1.458 . S
O947 C899 1.468 . S
O947 C900 1.408 . S
H948 C889 0.980 . S
H949 C888 0.959 . S
H950 C888 0.959 . S
H951 C888 0.960 . S
H952 C891 0.929 . S
H953 C895 0.929 . S
H954 C896 0.959 . S
H955 C896 0.961 . S
H956 C896 0.961 . S
H957 C897 0.960 . S
H958 C897 0.960 . S
H959 C897 0.961 . S
H960 C899 0.980 . S
H961 C898 0.961 . S
H962 C898 0.960 . S
H963 C898 0.959 . S
H964 C901 0.930 . S
H965 C905 0.931 . S
H966 C906 0.959 . S
H967 C906 0.961 . S
H968 C906 0.959 . S
H969 C907 0.960 . S
H970 C907 0.960 . S
H971 C907 0.960 . S
H972 C943 0.980 . S
H973 C909 0.930 . S
H974 C913 0.930 . S
H975 C914 0.961 . S
H976 C914 0.960 . S
H977 C914 0.958 . S
H978 C915 0.961 . S
H979 C915 0.960 . S
H980 C915 0.960 . S
H981 C917 0.980 . S
H982 C916 0.961 . S
H983 C916 0.961 . S
H984 C916 0.959 . S
H985 C919 0.932 . S
H986 C923 0.929 . S
H987 C924 0.961 . S
H988 C924 0.959 . S
H989 C924 0.959 . S
H990 C925 0.960 . S
H991 C925 0.962 . S
H992 C925 0.961 . S
H993 C927 0.929 . S
H994 C930 0.930 . S
H995 C931 0.929 . S
H996 C934 0.930 . S
H997 C937 0.929 . S
H998 C938 0.930 . S
H999 C942 0.962 . S
H1000 C942 0.959 . S
H1001 C942 0.958 . S
H1002 C1008 0.930 . S
H1003 C1012 0.930 . S
H1004 C1017 0.929 . S
H1005 C1015 0.929 . S
H1006 C1010 0.929 . S
H1007 C1016 0.929 . S
C1008 H1002 0.930 . S
C1008 C1009 1.367 . S
C1008 C1016 1.378 . S
C1009 C1008 1.367 . S
C1009 C1017 1.433 . S
C1010 H1006 0.929 . S
C1010 C1012 1.378 . S
C1010 C1014 1.350 . S
C1011 C1014 1.463 . S
C1011 C1016 1.350 . S
C1011 N1019 1.427 . S
C1012 H1003 0.930 . S
C1012 C1010 1.378 . S
C1012 C1013 1.367 . S
C1013 C1012 1.367 . S
C1013 C1015 1.433 . S
C1014 C1010 1.350 . S
C1014 C1011 1.463 . S
C1014 N1018 1.427 . S
C1015 H1005 0.929 . S
C1015 C1013 1.433 . S
C1015 N1018 1.384 . S
C1016 H1007 0.929 . S
C1016 C1008 1.378 . S
C1016 C1011 1.350 . S
C1017 H1004 0.929 . S
C1017 C1009 1.433 . S
C1017 N1019 1.384 . S
N1018 C1014 1.427 . S
N1018 C1015 1.384 . S
N1019 C1011 1.427 . S
N1019 C1017 1.384 . S
H1020 C1026 0.930 . S
H1021 C1030 0.930 . S
H1022 C1035 0.929 . S
H1023 C1033 0.929 . S
H1024 C1028 0.929 . S
H1025 C1034 0.929 . S
C1026 H1020 0.930 . S
C1026 C1027 1.367 . S
C1026 C1034 1.378 . S
C1027 C1026 1.367 . S
C1027 C1035 1.433 . S
C1028 H1024 0.929 . S
C1028 C1030 1.378 . S
C1028 C1032 1.350 . S
C1029 C1032 1.463 . S
C1029 C1034 1.350 . S
C1029 N1037 1.427 . S
C1030 H1021 0.930 . S
C1030 C1028 1.378 . S
C1030 C1031 1.367 . S
C1031 C1030 1.367 . S
C1031 C1033 1.433 . S
C1032 C1028 1.350 . S
C1032 C1029 1.463 . S
C1032 N1036 1.427 . S
C1033 H1023 0.929 . S
C1033 C1031 1.433 . S
C1033 N1036 1.384 . S
C1034 H1025 0.929 . S
C1034 C1026 1.378 . S
C1034 C1029 1.350 . S
C1035 H1022 0.929 . S
C1035 C1027 1.433 . S
C1035 N1037 1.384 . S
N1036 C1032 1.427 . S
N1036 C1033 1.384 . S
N1037 C1029 1.427 . S
N1037 C1035 1.384 . S
H1038 C1044 0.930 . S
H1039 C1048 0.930 . S
H1040 C1053 0.929 . S
H1041 C1051 0.929 . S
H1042 C1046 0.929 . S
H1043 C1052 0.929 . S
C1044 H1038 0.930 . S
C1044 C1045 1.367 . S
C1044 C1052 1.378 . S
C1045 C1044 1.367 . S
C1045 C1053 1.433 . S
C1046 H1042 0.929 . S
C1046 C1048 1.378 . S
C1046 C1050 1.350 . S
C1047 C1050 1.463 . S
C1047 C1052 1.350 . S
C1047 N1055 1.427 . S
C1048 H1039 0.930 . S
C1048 C1046 1.378 . S
C1048 C1049 1.367 . S
C1049 C1048 1.367 . S
C1049 C1051 1.433 . S
C1050 C1046 1.350 . S
C1050 C1047 1.463 . S
C1050 N1054 1.427 . S
C1051 H1041 0.929 . S
C1051 C1049 1.433 . S
C1051 N1054 1.384 . S
C1052 H1043 0.929 . S
C1052 C1044 1.378 . S
C1052 C1047 1.350 . S
C1053 H1040 0.929 . S
C1053 C1045 1.433 . S
C1053 N1055 1.384 . S
N1054 C1050 1.427 . S
N1054 C1051 1.384 . S
N1055 C1047 1.427 . S
N1055 C1053 1.384 . S
H1056 C1062 0.930 . S
H1057 C1066 0.930 . S
H1058 C1071 0.929 . S
H1059 C1069 0.929 . S
H1060 C1064 0.929 . S
H1061 C1070 0.929 . S
C1062 H1056 0.930 . S
C1062 C1063 1.367 . S
C1062 C1070 1.378 . S
C1063 C1062 1.367 . S
C1063 C1071 1.433 . S
C1064 H1060 0.929 . S
C1064 C1066 1.378 . S
C1064 C1068 1.350 . S
C1065 C1068 1.463 . S
C1065 C1070 1.350 . S
C1065 N1073 1.427 . S
C1066 H1057 0.930 . S
C1066 C1064 1.378 . S
C1066 C1067 1.367 . S
C1067 C1066 1.367 . S
C1067 C1069 1.433 . S
C1068 C1064 1.350 . S
C1068 C1065 1.463 . S
C1068 N1072 1.427 . S
C1069 H1059 0.929 . S
C1069 C1067 1.433 . S
C1069 N1072 1.384 . S
C1070 H1061 0.929 . S
C1070 C1062 1.378 . S
C1070 C1065 1.350 . S
C1071 H1058 0.929 . S
C1071 C1063 1.433 . S
C1071 N1073 1.384 . S
N1072 C1068 1.427 . S
N1072 C1069 1.384 . S
N1073 C1065 1.427 . S
N1073 C1071 1.384 . S
H1074 C1080 0.930 . S
H1075 C1084 0.930 . S
H1076 C1089 0.929 . S
H1077 C1087 0.929 . S
H1078 C1082 0.929 . S
H1079 C1088 0.929 . S
C1080 H1074 0.930 . S
C1080 C1081 1.367 . S
C1080 C1088 1.378 . S
C1081 C1080 1.367 . S
C1081 C1089 1.433 . S
C1082 H1078 0.929 . S
C1082 C1084 1.378 . S
C1082 C1086 1.350 . S
C1083 C1086 1.463 . S
C1083 C1088 1.350 . S
C1083 N1091 1.427 . S
C1084 H1075 0.930 . S
C1084 C1082 1.378 . S
C1084 C1085 1.367 . S
C1085 C1084 1.367 . S
C1085 C1087 1.433 . S
C1086 C1082 1.350 . S
C1086 C1083 1.463 . S
C1086 N1090 1.427 . S
C1087 H1077 0.929 . S
C1087 C1085 1.433 . S
C1087 N1090 1.384 . S
C1088 H1079 0.929 . S
C1088 C1080 1.378 . S
C1088 C1083 1.350 . S
C1089 H1076 0.929 . S
C1089 C1081 1.433 . S
C1089 N1091 1.384 . S
N1090 C1086 1.427 . S
N1090 C1087 1.384 . S
N1091 C1083 1.427 . S
N1091 C1089 1.384 . S
H1092 C1098 0.930 . S
H1093 C1102 0.930 . S
H1094 C1107 0.929 . S
H1095 C1105 0.929 . S
H1096 C1100 0.929 . S
H1097 C1106 0.929 . S
C1098 H1092 0.930 . S
C1098 C1099 1.367 . S
C1098 C1106 1.378 . S
C1099 C1098 1.367 . S
C1099 C1107 1.433 . S
C1100 H1096 0.929 . S
C1100 C1102 1.378 . S
C1100 C1104 1.350 . S
C1101 C1104 1.463 . S
C1101 C1106 1.350 . S
C1101 N1109 1.427 . S
C1102 H1093 0.930 . S
C1102 C1100 1.378 . S
C1102 C1103 1.367 . S
C1103 C1102 1.367 . S
C1103 C1105 1.433 . S
C1104 C1100 1.350 . S
C1104 C1101 1.463 . S
C1104 N1108 1.427 . S
C1105 H1095 0.929 . S
C1105 C1103 1.433 . S
C1105 N1108 1.384 . S
C1106 H1097 0.929 . S
C1106 C1098 1.378 . S
C1106 C1101 1.350 . S
C1107 H1094 0.929 . S
C1107 C1099 1.433 . S
C1107 N1109 1.384 . S
N1108 C1104 1.427 . S
N1108 C1105 1.384 . S
N1109 C1101 1.427 . S
N1109 C1107 1.384 . S
H1110 C1116 0.930 . S
H1111 C1120 0.930 . S
H1112 C1125 0.929 . S
H1113 C1123 0.929 . S
H1114 C1118 0.929 . S
H1115 C1124 0.929 . S
C1116 H1110 0.930 . S
C1116 C1117 1.367 . S
C1116 C1124 1.378 . S
C1117 C1116 1.367 . S
C1117 C1125 1.433 . S
C1118 H1114 0.929 . S
C1118 C1120 1.378 . S
C1118 C1122 1.350 . S
C1119 C1122 1.463 . S
C1119 C1124 1.350 . S
C1119 N1127 1.427 . S
C1120 H1111 0.930 . S
C1120 C1118 1.378 . S
C1120 C1121 1.367 . S
C1121 C1120 1.367 . S
C1121 C1123 1.433 . S
C1122 C1118 1.350 . S
C1122 C1119 1.463 . S
C1122 N1126 1.427 . S
C1123 H1113 0.929 . S
C1123 C1121 1.433 . S
C1123 N1126 1.384 . S
C1124 H1115 0.929 . S
C1124 C1116 1.378 . S
C1124 C1119 1.350 . S
C1125 H1112 0.929 . S
C1125 C1117 1.433 . S
C1125 N1127 1.384 . S
N1126 C1122 1.427 . S
N1126 C1123 1.384 . S
N1127 C1119 1.427 . S
N1127 C1125 1.384 . S
H1128 C1134 0.930 . S
H1129 C1138 0.930 . S
H1130 C1143 0.929 . S
H1131 C1141 0.929 . S
H1132 C1136 0.929 . S
H1133 C1142 0.929 . S
C1134 H1128 0.930 . S
C1134 C1135 1.367 . S
C1134 C1142 1.378 . S
C1135 C1134 1.367 . S
C1135 C1143 1.433 . S
C1136 H1132 0.929 . S
C1136 C1138 1.378 . S
C1136 C1140 1.350 . S
C1137 C1140 1.463 . S
C1137 C1142 1.350 . S
C1137 N1145 1.427 . S
C1138 H1129 0.930 . S
C1138 C1136 1.378 . S
C1138 C1139 1.367 . S
C1139 C1138 1.367 . S
C1139 C1141 1.433 . S
C1140 C1136 1.350 . S
C1140 C1137 1.463 . S
C1140 N1144 1.427 . S
C1141 H1131 0.929 . S
C1141 C1139 1.433 . S
C1141 N1144 1.384 . S
C1142 H1133 0.929 . S
C1142 C1134 1.378 . S
C1142 C1137 1.350 . S
C1143 H1130 0.929 . S
C1143 C1135 1.433 . S
C1143 N1145 1.384 . S
N1144 C1140 1.427 . S
N1144 C1141 1.384 . S
N1145 C1137 1.427 . S
N1145 C1143 1.384 . S
H1146 C1152 0.930 . S
H1147 C1156 0.930 . S
H1148 C1161 0.929 . S
H1149 C1159 0.929 . S
H1150 C1154 0.929 . S
H1151 C1160 0.929 . S
C1152 H1146 0.930 . S
C1152 C1153 1.367 . S
C1152 C1160 1.378 . S
C1153 C1152 1.367 . S
C1153 C1161 1.433 . S
C1154 H1150 0.929 . S
C1154 C1156 1.378 . S
C1154 C1158 1.350 . S
C1155 C1158 1.463 . S
C1155 C1160 1.350 . S
C1155 N1163 1.427 . S
C1156 H1147 0.930 . S
C1156 C1154 1.378 . S
C1156 C1157 1.367 . S
C1157 C1156 1.367 . S
C1157 C1159 1.433 . S
C1158 C1154 1.350 . S
C1158 C1155 1.463 . S
C1158 N1162 1.427 . S
C1159 H1149 0.929 . S
C1159 C1157 1.433 . S
C1159 N1162 1.384 . S
C1160 H1151 0.929 . S
C1160 C1152 1.378 . S
C1160 C1155 1.350 . S
C1161 H1148 0.929 . S
C1161 C1153 1.433 . S
C1161 N1163 1.384 . S
N1162 C1158 1.427 . S
N1162 C1159 1.384 . S
N1163 C1155 1.427 . S
N1163 C1161 1.384 . S
H1164 C1170 0.930 . S
H1165 C1174 0.930 . S
H1166 C1179 0.929 . S
H1167 C1177 0.929 . S
H1168 C1172 0.929 . S
H1169 C1178 0.929 . S
C1170 H1164 0.930 . S
C1170 C1171 1.367 . S
C1170 C1178 1.378 . S
C1171 C1170 1.367 . S
C1171 C1179 1.433 . S
C1172 H1168 0.929 . S
C1172 C1174 1.378 . S
C1172 C1176 1.350 . S
C1173 C1176 1.463 . S
C1173 C1178 1.350 . S
C1173 N1181 1.427 . S
C1174 H1165 0.930 . S
C1174 C1172 1.378 . S
C1174 C1175 1.367 . S
C1175 C1174 1.367 . S
C1175 C1177 1.433 . S
C1176 C1172 1.350 . S
C1176 C1173 1.463 . S
C1176 N1180 1.427 . S
C1177 H1167 0.929 . S
C1177 C1175 1.433 . S
C1177 N1180 1.384 . S
C1178 H1169 0.929 . S
C1178 C1170 1.378 . S
C1178 C1173 1.350 . S
C1179 H1166 0.929 . S
C1179 C1171 1.433 . S
C1179 N1181 1.384 . S
N1180 C1176 1.427 . S
N1180 C1177 1.384 . S
N1181 C1173 1.427 . S
N1181 C1179 1.384 . S
H1182 C1188 0.930 . S
H1183 C1192 0.930 . S
H1184 C1197 0.929 . S
H1185 C1195 0.929 . S
H1186 C1190 0.929 . S
H1187 C1196 0.929 . S
C1188 H1182 0.930 . S
C1188 C1189 1.367 . S
C1188 C1196 1.378 . S
C1189 C1188 1.367 . S
C1189 C1197 1.433 . S
C1190 H1186 0.929 . S
C1190 C1192 1.378 . S
C1190 C1194 1.350 . S
C1191 C1194 1.463 . S
C1191 C1196 1.350 . S
C1191 N1199 1.427 . S
C1192 H1183 0.930 . S
C1192 C1190 1.378 . S
C1192 C1193 1.367 . S
C1193 C1192 1.367 . S
C1193 C1195 1.433 . S
C1194 C1190 1.350 . S
C1194 C1191 1.463 . S
C1194 N1198 1.427 . S
C1195 H1185 0.929 . S
C1195 C1193 1.433 . S
C1195 N1198 1.384 . S
C1196 H1187 0.929 . S
C1196 C1188 1.378 . S
C1196 C1191 1.350 . S
C1197 H1184 0.929 . S
C1197 C1189 1.433 . S
C1197 N1199 1.384 . S
N1198 C1194 1.427 . S
N1198 C1195 1.384 . S
N1199 C1191 1.427 . S
N1199 C1197 1.384 . S
H1200 C1206 0.930 . S
H1201 C1210 0.930 . S
H1202 C1215 0.929 . S
H1203 C1213 0.929 . S
H1204 C1208 0.929 . S
H1205 C1214 0.929 . S
C1206 H1200 0.930 . S
C1206 C1207 1.367 . S
C1206 C1214 1.378 . S
C1207 C1206 1.367 . S
C1207 C1215 1.433 . S
C1208 H1204 0.929 . S
C1208 C1210 1.378 . S
C1208 C1212 1.350 . S
C1209 C1212 1.463 . S
C1209 C1214 1.350 . S
C1209 N1217 1.427 . S
C1210 H1201 0.930 . S
C1210 C1208 1.378 . S
C1210 C1211 1.367 . S
C1211 C1210 1.367 . S
C1211 C1213 1.433 . S
C1212 C1208 1.350 . S
C1212 C1209 1.463 . S
C1212 N1216 1.427 . S
C1213 H1203 0.929 . S
C1213 C1211 1.433 . S
C1213 N1216 1.384 . S
C1214 H1205 0.929 . S
C1214 C1206 1.378 . S
C1214 C1209 1.350 . S
C1215 H1202 0.929 . S
C1215 C1207 1.433 . S
C1215 N1217 1.384 . S
N1216 C1212 1.427 . S
N1216 C1213 1.384 . S
N1217 C1209 1.427 . S
N1217 C1215 1.384 . S
H1218 C1224 0.930 . S
H1219 C1228 0.930 . S
H1220 C1233 0.929 . S
H1221 C1231 0.929 . S
H1222 C1226 0.929 . S
H1223 C1232 0.929 . S
C1224 H1218 0.930 . S
C1224 C1225 1.367 . S
C1224 C1232 1.378 . S
C1225 C1224 1.367 . S
C1225 C1233 1.433 . S
C1226 H1222 0.929 . S
C1226 C1228 1.378 . S
C1226 C1230 1.350 . S
C1227 C1230 1.463 . S
C1227 C1232 1.350 . S
C1227 N1235 1.427 . S
C1228 H1219 0.930 . S
C1228 C1226 1.378 . S
C1228 C1229 1.367 . S
C1229 C1228 1.367 . S
C1229 C1231 1.433 . S
C1230 C1226 1.350 . S
C1230 C1227 1.463 . S
C1230 N1234 1.427 . S
C1231 H1221 0.929 . S
C1231 C1229 1.433 . S
C1231 N1234 1.384 . S
C1232 H1223 0.929 . S
C1232 C1224 1.378 . S
C1232 C1227 1.350 . S
C1233 H1220 0.929 . S
C1233 C1225 1.433 . S
C1233 N1235 1.384 . S
N1234 C1230 1.427 . S
N1234 C1231 1.384 . S
N1235 C1227 1.427 . S
N1235 C1233 1.384 . S
H1236 C1242 0.930 . S
H1237 C1246 0.930 . S
H1238 C1251 0.929 . S
H1239 C1249 0.929 . S
H1240 C1244 0.929 . S
H1241 C1250 0.929 . S
C1242 H1236 0.930 . S
C1242 C1243 1.367 . S
C1242 C1250 1.378 . S
C1243 C1242 1.367 . S
C1243 C1251 1.433 . S
C1244 H1240 0.929 . S
C1244 C1246 1.378 . S
C1244 C1248 1.350 . S
C1245 C1248 1.463 . S
C1245 C1250 1.350 . S
C1245 N1253 1.427 . S
C1246 H1237 0.930 . S
C1246 C1244 1.378 . S
C1246 C1247 1.367 . S
C1247 C1246 1.367 . S
C1247 C1249 1.433 . S
C1248 C1244 1.350 . S
C1248 C1245 1.463 . S
C1248 N1252 1.427 . S
C1249 H1239 0.929 . S
C1249 C1247 1.433 . S
C1249 N1252 1.384 . S
C1250 H1241 0.929 . S
C1250 C1242 1.378 . S
C1250 C1245 1.350 . S
C1251 H1238 0.929 . S
C1251 C1243 1.433 . S
C1251 N1253 1.384 . S
N1252 C1248 1.427 . S
N1252 C1249 1.384 . S
N1253 C1245 1.427 . S
N1253 C1251 1.384 . S
H1254 C1260 0.930 . S
H1255 C1264 0.930 . S
H1256 C1269 0.929 . S
H1257 C1267 0.929 . S
H1258 C1262 0.929 . S
H1259 C1268 0.929 . S
C1260 H1254 0.930 . S
C1260 C1261 1.367 . S
C1260 C1268 1.378 . S
C1261 C1260 1.367 . S
C1261 C1269 1.433 . S
C1262 H1258 0.929 . S
C1262 C1264 1.378 . S
C1262 C1266 1.350 . S
C1263 C1266 1.463 . S
C1263 C1268 1.350 . S
C1263 N1271 1.427 . S
C1264 H1255 0.930 . S
C1264 C1262 1.378 . S
C1264 C1265 1.367 . S
C1265 C1264 1.367 . S
C1265 C1267 1.433 . S
C1266 C1262 1.350 . S
C1266 C1263 1.463 . S
C1266 N1270 1.427 . S
C1267 H1257 0.929 . S
C1267 C1265 1.433 . S
C1267 N1270 1.384 . S
C1268 H1259 0.929 . S
C1268 C1260 1.378 . S
C1268 C1263 1.350 . S
C1269 H1256 0.929 . S
C1269 C1261 1.433 . S
C1269 N1271 1.384 . S
N1270 C1266 1.427 . S
N1270 C1267 1.384 . S
N1271 C1263 1.427 . S
N1271 C1269 1.384 . S
H1272 C1278 0.930 . S
H1273 C1282 0.930 . S
H1274 C1287 0.929 . S
H1275 C1285 0.929 . S
H1276 C1280 0.929 . S
H1277 C1286 0.929 . S
C1278 H1272 0.930 . S
C1278 C1279 1.367 . S
C1278 C1286 1.378 . S
C1279 C1278 1.367 . S
C1279 C1287 1.433 . S
C1280 H1276 0.929 . S
C1280 C1282 1.378 . S
C1280 C1284 1.350 . S
C1281 C1284 1.463 . S
C1281 C1286 1.350 . S
C1281 N1289 1.427 . S
C1282 H1273 0.930 . S
C1282 C1280 1.378 . S
C1282 C1283 1.367 . S
C1283 C1282 1.367 . S
C1283 C1285 1.433 . S
C1284 C1280 1.350 . S
C1284 C1281 1.463 . S
C1284 N1288 1.427 . S
C1285 H1275 0.929 . S
C1285 C1283 1.433 . S
C1285 N1288 1.384 . S
C1286 H1277 0.929 . S
C1286 C1278 1.378 . S
C1286 C1281 1.350 . S
C1287 H1274 0.929 . S
C1287 C1279 1.433 . S
C1287 N1289 1.384 . S
N1288 C1284 1.427 . S
N1288 C1285 1.384 . S
N1289 C1281 1.427 . S
N1289 C1287 1.384 . S
H1290 C1296 0.930 . S
H1291 C1300 0.930 . S
H1292 C1305 0.929 . S
H1293 C1303 0.929 . S
H1294 C1298 0.929 . S
H1295 C1304 0.929 . S
C1296 H1290 0.930 . S
C1296 C1297 1.367 . S
C1296 C1304 1.378 . S
C1297 C1296 1.367 . S
C1297 C1305 1.433 . S
C1298 H1294 0.929 . S
C1298 C1300 1.378 . S
C1298 C1302 1.350 . S
C1299 C1302 1.463 . S
C1299 C1304 1.350 . S
C1299 N1307 1.427 . S
C1300 H1291 0.930 . S
C1300 C1298 1.378 . S
C1300 C1301 1.367 . S
C1301 C1300 1.367 . S
C1301 C1303 1.433 . S
C1302 C1298 1.350 . S
C1302 C1299 1.463 . S
C1302 N1306 1.427 . S
C1303 H1293 0.929 . S
C1303 C1301 1.433 . S
C1303 N1306 1.384 . S
C1304 H1295 0.929 . S
C1304 C1296 1.378 . S
C1304 C1299 1.350 . S
C1305 H1292 0.929 . S
C1305 C1297 1.433 . S
C1305 N1307 1.384 . S
N1306 C1302 1.427 . S
N1306 C1303 1.384 . S
N1307 C1299 1.427 . S
N1307 C1305 1.384 . S
H1308 C1314 0.930 . S
H1309 C1318 0.930 . S
H1310 C1323 0.929 . S
H1311 C1321 0.929 . S
H1312 C1316 0.929 . S
H1313 C1322 0.929 . S
C1314 H1308 0.930 . S
C1314 C1315 1.367 . S
C1314 C1322 1.378 . S
C1315 C1314 1.367 . S
C1315 C1323 1.433 . S
C1316 H1312 0.929 . S
C1316 C1318 1.378 . S
C1316 C1320 1.350 . S
C1317 C1320 1.463 . S
C1317 C1322 1.350 . S
C1317 N1325 1.427 . S
C1318 H1309 0.930 . S
C1318 C1316 1.378 . S
C1318 C1319 1.367 . S
C1319 C1318 1.367 . S
C1319 C1321 1.433 . S
C1320 C1316 1.350 . S
C1320 C1317 1.463 . S
C1320 N1324 1.427 . S
C1321 H1311 0.929 . S
C1321 C1319 1.433 . S
C1321 N1324 1.384 . S
C1322 H1313 0.929 . S
C1322 C1314 1.378 . S
C1322 C1317 1.350 . S
C1323 H1310 0.929 . S
C1323 C1315 1.433 . S
C1323 N1325 1.384 . S
N1324 C1320 1.427 . S
N1324 C1321 1.384 . S
N1325 C1317 1.427 . S
N1325 C1323 1.384 . S
H1326 C1332 0.930 . S
H1327 C1336 0.930 . S
H1328 C1341 0.929 . S
H1329 C1339 0.929 . S
H1330 C1334 0.929 . S
H1331 C1340 0.929 . S
C1332 H1326 0.930 . S
C1332 C1333 1.367 . S
C1332 C1340 1.378 . S
C1333 C1332 1.367 . S
C1333 C1341 1.433 . S
C1334 H1330 0.929 . S
C1334 C1336 1.378 . S
C1334 C1338 1.350 . S
C1335 C1338 1.463 . S
C1335 C1340 1.350 . S
C1335 N1343 1.427 . S
C1336 H1327 0.930 . S
C1336 C1334 1.378 . S
C1336 C1337 1.367 . S
C1337 C1336 1.367 . S
C1337 C1339 1.433 . S
C1338 C1334 1.350 . S
C1338 C1335 1.463 . S
C1338 N1342 1.427 . S
C1339 H1329 0.929 . S
C1339 C1337 1.433 . S
C1339 N1342 1.384 . S
C1340 H1331 0.929 . S
C1340 C1332 1.378 . S
C1340 C1335 1.350 . S
C1341 H1328 0.929 . S
C1341 C1333 1.433 . S
C1341 N1343 1.384 . S
N1342 C1338 1.427 . S
N1342 C1339 1.384 . S
N1343 C1335 1.427 . S
N1343 C1341 1.384 . S
H1344 C1350 0.930 . S
H1345 C1354 0.930 . S
H1346 C1359 0.929 . S
H1347 C1357 0.929 . S
H1348 C1352 0.929 . S
H1349 C1358 0.929 . S
C1350 H1344 0.930 . S
C1350 C1351 1.367 . S
C1350 C1358 1.378 . S
C1351 C1350 1.367 . S
C1351 C1359 1.433 . S
C1352 H1348 0.929 . S
C1352 C1354 1.378 . S
C1352 C1356 1.350 . S
C1353 C1356 1.463 . S
C1353 C1358 1.350 . S
C1353 N1361 1.427 . S
C1354 H1345 0.930 . S
C1354 C1352 1.378 . S
C1354 C1355 1.367 . S
C1355 C1354 1.367 . S
C1355 C1357 1.433 . S
C1356 C1352 1.350 . S
C1356 C1353 1.463 . S
C1356 N1360 1.427 . S
C1357 H1347 0.929 . S
C1357 C1355 1.433 . S
C1357 N1360 1.384 . S
C1358 H1349 0.929 . S
C1358 C1350 1.378 . S
C1358 C1353 1.350 . S
C1359 H1346 0.929 . S
C1359 C1351 1.433 . S
C1359 N1361 1.384 . S
N1360 C1356 1.427 . S
N1360 C1357 1.384 . S
N1361 C1353 1.427 . S
N1361 C1359 1.384 . S
H1362 C1368 0.930 . S
H1363 C1372 0.930 . S
H1364 C1377 0.929 . S
H1365 C1375 0.929 . S
H1366 C1370 0.929 . S
H1367 C1376 0.929 . S
C1368 H1362 0.930 . S
C1368 C1369 1.367 . S
C1368 C1376 1.378 . S
C1369 C1368 1.367 . S
C1369 C1377 1.433 . S
C1370 H1366 0.929 . S
C1370 C1372 1.378 . S
C1370 C1374 1.350 . S
C1371 C1374 1.463 . S
C1371 C1376 1.350 . S
C1371 N1379 1.427 . S
C1372 H1363 0.930 . S
C1372 C1370 1.378 . S
C1372 C1373 1.367 . S
C1373 C1372 1.367 . S
C1373 C1375 1.433 . S
C1374 C1370 1.350 . S
C1374 C1371 1.463 . S
C1374 N1378 1.427 . S
C1375 H1365 0.929 . S
C1375 C1373 1.433 . S
C1375 N1378 1.384 . S
C1376 H1367 0.929 . S
C1376 C1368 1.378 . S
C1376 C1371 1.350 . S
C1377 H1364 0.929 . S
C1377 C1369 1.433 . S
C1377 N1379 1.384 . S
N1378 C1374 1.427 . S
N1378 C1375 1.384 . S
N1379 C1371 1.427 . S
N1379 C1377 1.384 . S
H1380 C1386 0.930 . S
H1381 C1390 0.930 . S
H1382 C1395 0.929 . S
H1383 C1393 0.929 . S
H1384 C1388 0.929 . S
H1385 C1394 0.929 . S
C1386 H1380 0.930 . S
C1386 C1387 1.367 . S
C1386 C1394 1.378 . S
C1387 C1386 1.367 . S
C1387 C1395 1.433 . S
C1388 H1384 0.929 . S
C1388 C1390 1.378 . S
C1388 C1392 1.350 . S
C1389 C1392 1.463 . S
C1389 C1394 1.350 . S
C1389 N1397 1.427 . S
C1390 H1381 0.930 . S
C1390 C1388 1.378 . S
C1390 C1391 1.367 . S
C1391 C1390 1.367 . S
C1391 C1393 1.433 . S
C1392 C1388 1.350 . S
C1392 C1389 1.463 . S
C1392 N1396 1.427 . S
C1393 H1383 0.929 . S
C1393 C1391 1.433 . S
C1393 N1396 1.384 . S
C1394 H1385 0.929 . S
C1394 C1386 1.378 . S
C1394 C1389 1.350 . S
C1395 H1382 0.929 . S
C1395 C1387 1.433 . S
C1395 N1397 1.384 . S
N1396 C1392 1.427 . S
N1396 C1393 1.384 . S
N1397 C1389 1.427 . S
N1397 C1395 1.384 . S
H1398 C1404 0.930 . S
H1399 C1408 0.930 . S
H1400 C1413 0.929 . S
H1401 C1411 0.929 . S
H1402 C1406 0.929 . S
H1403 C1412 0.929 . S
C1404 H1398 0.930 . S
C1404 C1405 1.367 . S
C1404 C1412 1.378 . S
C1405 C1404 1.367 . S
C1405 C1413 1.433 . S
C1406 H1402 0.929 . S
C1406 C1408 1.378 . S
C1406 C1410 1.350 . S
C1407 C1410 1.463 . S
C1407 C1412 1.350 . S
C1407 N1415 1.427 . S
C1408 H1399 0.930 . S
C1408 C1406 1.378 . S
C1408 C1409 1.367 . S
C1409 C1408 1.367 . S
C1409 C1411 1.433 . S
C1410 C1406 1.350 . S
C1410 C1407 1.463 . S
C1410 N1414 1.427 . S
C1411 H1401 0.929 . S
C1411 C1409 1.433 . S
C1411 N1414 1.384 . S
C1412 H1403 0.929 . S
C1412 C1404 1.378 . S
C1412 C1407 1.350 . S
C1413 H1400 0.929 . S
C1413 C1405 1.433 . S
C1413 N1415 1.384 . S
N1414 C1410 1.427 . S
N1414 C1411 1.384 . S
N1415 C1407 1.427 . S
N1415 C1413 1.384 . S
H1416 C1422 0.930 . S
H1417 C1426 0.930 . S
H1418 C1431 0.929 . S
H1419 C1429 0.929 . S
H1420 C1424 0.929 . S
H1421 C1430 0.929 . S
C1422 H1416 0.930 . S
C1422 C1423 1.367 . S
C1422 C1430 1.378 . S
C1423 C1422 1.367 . S
C1423 C1431 1.433 . S
C1424 H1420 0.929 . S
C1424 C1426 1.378 . S
C1424 C1428 1.350 . S
C1425 C1428 1.463 . S
C1425 C1430 1.350 . S
C1425 N1433 1.427 . S
C1426 H1417 0.930 . S
C1426 C1424 1.378 . S
C1426 C1427 1.367 . S
C1427 C1426 1.367 . S
C1427 C1429 1.433 . S
C1428 C1424 1.350 . S
C1428 C1425 1.463 . S
C1428 N1432 1.427 . S
C1429 H1419 0.929 . S
C1429 C1427 1.433 . S
C1429 N1432 1.384 . S
C1430 H1421 0.929 . S
C1430 C1422 1.378 . S
C1430 C1425 1.350 . S
C1431 H1418 0.929 . S
C1431 C1423 1.433 . S
C1431 N1433 1.384 . S
N1432 C1428 1.427 . S
N1432 C1429 1.384 . S
N1433 C1425 1.427 . S
N1433 C1431 1.384 . S
C1009 C39 1.895 . S
C1013 C347 1.708 . S
C1027 C91 1.918 . S
C1031 C487 1.648 . S
C1049 C575 1.511 . S
C1045 C128 1.684 . S
C1067 C715 1.497 . S
C1063 C188 1.722 . S
C1085 C829 1.562 . S
C1081 C250 1.825 . S
C1103 C899 1.006 . S
C1099 C304 1.888 . S
C1117 C75 1.767 . S
C1121 C557 0.954 . S
C1135 C144 1.772 . S
C1139 C661 1.289 . S
C1157 C775 1.294 . S
C1153 C198 1.763 . S
C1175 C917 1.464 . S
C1171 C234 1.642 . S
C1189 C294 1.780 . S
C1193 C329 0.888 . S
C1211 C433 1.113 . S
C1207 C29 1.553 . S
C1229 C671 1.540 . S
C1225 C38 2.004 . S
C1243 C92 1.980 . S
C1247 C785 1.509 . S
C1265 C943 1.260 . S
C1261 C135 1.953 . S
C1279 C181 1.677 . S
C1283 C319 1.431 . S
C1297 C251 2.060 . S
C1301 C443 1.522 . S
C1315 C303 1.847 . S
C1319 C547 1.637 . S
C1333 C82 1.808 . S
C1337 C889 1.602 . S
C1355 C373 1.241 . S
C1351 C145 1.998 . S
C1369 C197 1.879 . S
C1373 C461 1.292 . S
C1387 C241 1.830 . S
C1391 C601 1.112 . S
C1405 C287 1.688 . S
C1409 C689 1.231 . S
C1423 C22 1.770 . S
C1427 C803 1.281 . S
