# Generated by pormake.
# Topology eea, (3,6)-cn, num edge types: 1
# Building blocks:
#     Node 0, Type 0, BuildingBlock: BELTOD_clean_linker_0, # of connection points: 3
#     Node 1, Type 0, BuildingBlock: BELTOD_clean_linker_0, # of connection points: 3
#     Node 2, Type 0, BuildingBlock: BELTOD_clean_linker_0, # of connection points: 3
#     Node 3, Type 0, BuildingBlock: BELTOD_clean_linker_0, # of connection points: 3
#     Node 4, Type 0, BuildingBlock: BELTOD_clean_linker_0, # of connection points: 3
#     Node 5, Type 0, BuildingBlock: BELTOD_clean_linker_0, # of connection points: 3
#     Node 6, Type 0, BuildingBlock: BELTOD_clean_linker_0, # of connection points: 3
#     Node 7, Type 0, BuildingBlock: BELTOD_clean_linker_0, # of connection points: 3
#     Node 8, Type 0, BuildingBlock: BELTOD_clean_linker_0, # of connection points: 3
#     Node 9, Type 0, BuildingBlock: BELTOD_clean_linker_0, # of connection points: 3
#     Node 10, Type 0, BuildingBlock: BELTOD_clean_linker_0, # of connection points: 3
#     Node 11, Type 0, BuildingBlock: BELTOD_clean_linker_0, # of connection points: 3
#     Node 12, Type 0, BuildingBlock: BELTOD_clean_linker_0, # of connection points: 3
#     Node 13, Type 0, BuildingBlock: BELTOD_clean_linker_0, # of connection points: 3
#     Node 14, Type 0, BuildingBlock: BELTOD_clean_linker_0, # of connection points: 3
#     Node 15, Type 0, BuildingBlock: BELTOD_clean_linker_0, # of connection points: 3
#     Node 16, Type 0, BuildingBlock: BELTOD_clean_linker_0, # of connection points: 3
#     Node 17, Type 0, BuildingBlock: BELTOD_clean_linker_0, # of connection points: 3
#     Node 18, Type 1, BuildingBlock: CIFDUS_clean_sbu_1, # of connection points: 6
#     Node 19, Type 1, BuildingBlock: CIFDUS_clean_sbu_1, # of connection points: 6
#     Node 20, Type 1, BuildingBlock: CIFDUS_clean_sbu_1, # of connection points: 6
#     Node 21, Type 1, BuildingBlock: CIFDUS_clean_sbu_1, # of connection points: 6
#     Node 22, Type 1, BuildingBlock: CIFDUS_clean_sbu_1, # of connection points: 6
#     Node 23, Type 1, BuildingBlock: CIFDUS_clean_sbu_1, # of connection points: 6
#     Node 24, Type 1, BuildingBlock: CIFDUS_clean_sbu_1, # of connection points: 6
#     Node 25, Type 1, BuildingBlock: CIFDUS_clean_sbu_1, # of connection points: 6
#     Node 26, Type 1, BuildingBlock: CIFDUS_clean_sbu_1, # of connection points: 6
#     Edge 27, Type (0, 1), BuildingBlock: UVAHIK_clean_linker_0, # of connection points: 2
#     Edge 28, Type (0, 1), BuildingBlock: UVAHIK_clean_linker_0, # of connection points: 2
#     Edge 29, Type (0, 1), BuildingBlock: UVAHIK_clean_linker_0, # of connection points: 2
#     Edge 30, Type (0, 1), BuildingBlock: UVAHIK_clean_linker_0, # of connection points: 2
#     Edge 31, Type (0, 1), BuildingBlock: UVAHIK_clean_linker_0, # of connection points: 2
#     Edge 32, Type (0, 1), BuildingBlock: UVAHIK_clean_linker_0, # of connection points: 2
#     Edge 33, Type (0, 1), BuildingBlock: UVAHIK_clean_linker_0, # of connection points: 2
#     Edge 34, Type (0, 1), BuildingBlock: UVAHIK_clean_linker_0, # of connection points: 2
#     Edge 35, Type (0, 1), BuildingBlock: UVAHIK_clean_linker_0, # of connection points: 2
#     Edge 36, Type (0, 1), BuildingBlock: UVAHIK_clean_linker_0, # of connection points: 2
#     Edge 37, Type (0, 1), BuildingBlock: UVAHIK_clean_linker_0, # of connection points: 2
#     Edge 38, Type (0, 1), BuildingBlock: UVAHIK_clean_linker_0, # of connection points: 2
#     Edge 39, Type (0, 1), BuildingBlock: UVAHIK_clean_linker_0, # of connection points: 2
#     Edge 40, Type (0, 1), BuildingBlock: UVAHIK_clean_linker_0, # of connection points: 2
#     Edge 41, Type (0, 1), BuildingBlock: UVAHIK_clean_linker_0, # of connection points: 2
#     Edge 42, Type (0, 1), BuildingBlock: UVAHIK_clean_linker_0, # of connection points: 2
#     Edge 43, Type (0, 1), BuildingBlock: UVAHIK_clean_linker_0, # of connection points: 2
#     Edge 44, Type (0, 1), BuildingBlock: UVAHIK_clean_linker_0, # of connection points: 2
#     Edge 45, Type (0, 1), BuildingBlock: UVAHIK_clean_linker_0, # of connection points: 2
#     Edge 46, Type (0, 1), BuildingBlock: UVAHIK_clean_linker_0, # of connection points: 2
#     Edge 47, Type (0, 1), BuildingBlock: UVAHIK_clean_linker_0, # of connection points: 2
#     Edge 48, Type (0, 1), BuildingBlock: UVAHIK_clean_linker_0, # of connection points: 2
#     Edge 49, Type (0, 1), BuildingBlock: UVAHIK_clean_linker_0, # of connection points: 2
#     Edge 50, Type (0, 1), BuildingBlock: UVAHIK_clean_linker_0, # of connection points: 2
#     Edge 51, Type (0, 1), BuildingBlock: UVAHIK_clean_linker_0, # of connection points: 2
#     Edge 52, Type (0, 1), BuildingBlock: UVAHIK_clean_linker_0, # of connection points: 2
#     Edge 53, Type (0, 1), BuildingBlock: UVAHIK_clean_linker_0, # of connection points: 2
#     Edge 54, Type (0, 1), BuildingBlock: UVAHIK_clean_linker_0, # of connection points: 2
#     Edge 55, Type (0, 1), BuildingBlock: UVAHIK_clean_linker_0, # of connection points: 2
#     Edge 56, Type (0, 1), BuildingBlock: UVAHIK_clean_linker_0, # of connection points: 2
#     Edge 57, Type (0, 1), BuildingBlock: UVAHIK_clean_linker_0, # of connection points: 2
#     Edge 58, Type (0, 1), BuildingBlock: UVAHIK_clean_linker_0, # of connection points: 2
#     Edge 59, Type (0, 1), BuildingBlock: UVAHIK_clean_linker_0, # of connection points: 2
#     Edge 60, Type (0, 1), BuildingBlock: UVAHIK_clean_linker_0, # of connection points: 2
#     Edge 61, Type (0, 1), BuildingBlock: UVAHIK_clean_linker_0, # of connection points: 2
#     Edge 62, Type (0, 1), BuildingBlock: UVAHIK_clean_linker_0, # of connection points: 2
#     Edge 63, Type (0, 1), BuildingBlock: UVAHIK_clean_linker_0, # of connection points: 2
#     Edge 64, Type (0, 1), BuildingBlock: UVAHIK_clean_linker_0, # of connection points: 2
#     Edge 65, Type (0, 1), BuildingBlock: UVAHIK_clean_linker_0, # of connection points: 2
#     Edge 66, Type (0, 1), BuildingBlock: UVAHIK_clean_linker_0, # of connection points: 2
#     Edge 67, Type (0, 1), BuildingBlock: UVAHIK_clean_linker_0, # of connection points: 2
#     Edge 68, Type (0, 1), BuildingBlock: UVAHIK_clean_linker_0, # of connection points: 2
#     Edge 69, Type (0, 1), BuildingBlock: UVAHIK_clean_linker_0, # of connection points: 2
#     Edge 70, Type (0, 1), BuildingBlock: UVAHIK_clean_linker_0, # of connection points: 2
#     Edge 71, Type (0, 1), BuildingBlock: UVAHIK_clean_linker_0, # of connection points: 2
#     Edge 72, Type (0, 1), BuildingBlock: UVAHIK_clean_linker_0, # of connection points: 2
#     Edge 73, Type (0, 1), BuildingBlock: UVAHIK_clean_linker_0, # of connection points: 2
#     Edge 74, Type (0, 1), BuildingBlock: UVAHIK_clean_linker_0, # of connection points: 2
#     Edge 75, Type (0, 1), BuildingBlock: UVAHIK_clean_linker_0, # of connection points: 2
#     Edge 76, Type (0, 1), BuildingBlock: UVAHIK_clean_linker_0, # of connection points: 2
#     Edge 77, Type (0, 1), BuildingBlock: UVAHIK_clean_linker_0, # of connection points: 2
#     Edge 78, Type (0, 1), BuildingBlock: UVAHIK_clean_linker_0, # of connection points: 2
#     Edge 79, Type (0, 1), BuildingBlock: UVAHIK_clean_linker_0, # of connection points: 2
#     Edge 80, Type (0, 1), BuildingBlock: UVAHIK_clean_linker_0, # of connection points: 2
# Relax obj value: 0.094
# Max RMSD: 0.176
# Mean RMSD: 0.087
data_MOF--net-eea--node1-CIFDUS_clean_sbu_1--node2-BELTOD_clean_linker_0--edge1-UVAHIK_clean_linker_0
_symmetry_space_group_name_H-M    P1
_symmetry_Int_Tables_number       1
_symmetry_cell_setting            triclinic
loop_
_symmetry_equiv_pos_as_xyz
'x, y, z'
_cell_length_a     78.090652
_cell_length_b     77.292855
_cell_length_c     76.548257
_cell_angle_alpha  90.666603
_cell_angle_beta   90.212373
_cell_angle_gamma 120.061
loop_
_atom_site_label
_atom_site_type_symbol
_atom_site_fract_x
_atom_site_fract_y
_atom_site_fract_z
_atom_type_partial_charge
P0 P 0.19814 0.09402 0.41992 0.0
H1 H 0.19894 0.07752 0.38578 0.0
H2 H 0.18435 0.04339 0.3747 0.0
H3 H 0.14976 0.02189 0.42169 0.0
H4 H 0.16504 0.05634 0.43291 0.0
H5 H 0.21799 0.13713 0.42063 0.0
H6 H 0.2071 0.16124 0.41599 0.0
H7 H 0.14745 0.11289 0.40645 0.0
H8 H 0.15863 0.0886 0.41109 0.0
H9 H 0.21083 0.06994 0.43882 0.0
H10 H 0.1947 0.11441 0.45156 0.0
O11 O 0.22046 0.10403 0.41088 0.0
H12 H 0.22103 0.07054 0.46917 0.0
H13 H 0.20497 0.11514 0.48183 0.0
C14 C 0.18335 0.06943 0.41028 0.0
C15 C 0.18795 0.06551 0.39358 0.0
C16 C 0.17946 0.04589 0.38721 0.0
C17 C 0.16599 0.02972 0.39737 0.0
C18 C 0.16038 0.03389 0.41366 0.0
C19 C 0.16896 0.0536 0.42003 0.0
C20 C 0.18918 0.1111 0.41599 0.0
C21 C 0.20256 0.13167 0.41747 0.0
C22 C 0.19626 0.14546 0.41499 0.0
C23 C 0.17636 0.13902 0.41096 0.0
C24 C 0.16289 0.11832 0.40945 0.0
C25 C 0.16925 0.10444 0.4121 0.0
C26 C 0.20201 0.09211 0.44288 0.0
C27 C 0.20909 0.07952 0.44822 0.0
C28 C 0.21486 0.07983 0.46558 0.0
C29 C 0.2139 0.09297 0.47785 0.0
C30 C 0.20607 0.105 0.4726 0.0
C31 C 0.20015 0.10456 0.45527 0.0
P32 P 0.93861 0.06585 0.45506 0.0
H33 H 0.91603 0.02318 0.46164 0.0
H34 H 0.88552 0.99609 0.44878 0.0
H35 H 0.88602 0.03683 0.41025 0.0
H36 H 0.91594 0.06394 0.42374 0.0
H37 H 0.95758 0.10951 0.45984 0.0
H38 H 0.97928 0.13746 0.44135 0.0
H39 H 0.97614 0.09589 0.40151 0.0
H40 H 0.95434 0.06793 0.42012 0.0
H41 H 0.93271 0.05618 0.49214 0.0
H42 H 0.91725 0.08794 0.45525 0.0
O43 O 0.95305 0.05797 0.46381 0.0
H44 H 0.91361 0.06135 0.51462 0.0
H45 H 0.89871 0.09396 0.47785 0.0
C46 C 0.91852 0.04543 0.44336 0.0
C47 C 0.90976 0.02614 0.45018 0.0
C48 C 0.89231 0.01064 0.44279 0.0
C49 C 0.88323 0.01422 0.42847 0.0
C50 C 0.89241 0.03355 0.42141 0.0
C51 C 0.90974 0.04905 0.42894 0.0
C52 C 0.95378 0.0866 0.44112 0.0
C53 C 0.96122 0.10635 0.44701 0.0
C54 C 0.97369 0.12236 0.43642 0.0
C55 C 0.97931 0.11891 0.41988 0.0
C56 C 0.97213 0.09906 0.41418 0.0
C57 C 0.95954 0.08307 0.42474 0.0
C58 C 0.92689 0.07221 0.47219 0.0
C59 C 0.92561 0.06473 0.489 0.0
C60 C 0.91465 0.06771 0.50187 0.0
C61 C 0.90465 0.07817 0.49813 0.0
C62 C 0.90602 0.08566 0.48119 0.0
C63 C 0.91687 0.08251 0.46831 0.0
P64 P 0.84187 0.71057 0.38762 0.0
H65 H 0.85709 0.74934 0.36983 0.0
H66 H 0.84229 0.77029 0.36443 0.0
H67 H 0.78886 0.72684 0.38994 0.0
H68 H 0.80371 0.70613 0.39534 0.0
H69 H 0.86152 0.71248 0.35481 0.0
H70 H 0.89628 0.72656 0.34697 0.0
H71 H 0.91358 0.74782 0.40017 0.0
H72 H 0.87894 0.73421 0.40773 0.0
H73 H 0.83006 0.6733 0.40601 0.0
H74 H 0.84619 0.73396 0.41936 0.0
O75 O 0.82916 0.68965 0.37569 0.0
H76 H 0.82458 0.66445 0.4368 0.0
H77 H 0.84148 0.72549 0.45029 0.0
C78 C 0.83155 0.7263 0.38319 0.0
C79 C 0.84221 0.74435 0.37427 0.0
C80 C 0.83371 0.75627 0.37111 0.0
C81 C 0.81449 0.7503 0.37691 0.0
C82 C 0.80383 0.73204 0.38559 0.0
C83 C 0.81226 0.72014 0.38863 0.0
C84 C 0.86761 0.72193 0.38192 0.0
C85 C 0.87283 0.72022 0.36476 0.0
C86 C 0.89271 0.72821 0.36032 0.0
C87 C 0.90776 0.73817 0.37298 0.0
C88 C 0.90243 0.7404 0.39005 0.0
C89 C 0.88254 0.73244 0.39445 0.0
C90 C 0.83834 0.70422 0.41041 0.0
C91 C 0.83248 0.68474 0.41559 0.0
C92 C 0.82948 0.67974 0.43325 0.0
C93 C 0.83254 0.69424 0.44609 0.0
C94 C 0.83861 0.71384 0.44078 0.0
C95 C 0.84146 0.71876 0.4231 0.0
P96 P 0.14737 0.2995 0.61234 0.0
H97 H 0.12277 0.31611 0.62317 0.0
H98 H 0.08792 0.30101 0.63069 0.0
H99 H 0.08005 0.24231 0.6206 0.0
H100 H 0.1152 0.25763 0.61335 0.0
H101 H 0.16508 0.29957 0.64598 0.0
H102 H 0.18205 0.2823 0.65647 0.0
H103 H 0.17001 0.25062 0.60694 0.0
H104 H 0.15243 0.26739 0.59689 0.0
H105 H 0.12149 0.29728 0.58321 0.0
H106 H 0.18163 0.31034 0.59048 0.0
O107 O 0.15943 0.32214 0.62176 0.0
H108 H 0.12744 0.30396 0.55203 0.0
H109 H 0.18769 0.31708 0.5593 0.0
C110 C 0.12163 0.28797 0.61802 0.0
C111 C 0.1136 0.29998 0.62269 0.0
C112 C 0.0936 0.29132 0.62685 0.0
C113 C 0.08116 0.27043 0.62627 0.0
C114 C 0.08927 0.25842 0.62142 0.0
C115 C 0.10934 0.26714 0.61723 0.0
C116 C 0.158 0.28516 0.6205 0.0
C117 C 0.16598 0.28879 0.63745 0.0
C118 C 0.17577 0.27896 0.6434 0.0
C119 C 0.17771 0.26528 0.63247 0.0
C120 C 0.16875 0.26097 0.61577 0.0
C121 C 0.15885 0.27071 0.60991 0.0
C122 C 0.15102 0.30294 0.58912 0.0
C123 C 0.13591 0.30137 0.5781 0.0
C124 C 0.13938 0.30534 0.56028 0.0
C125 C 0.15803 0.311 0.55318 0.0
C126 C 0.17309 0.31247 0.5643 0.0
C127 C 0.16965 0.30864 0.58212 0.0
P128 P 0.86815 0.93301 0.55476 0.0
H129 H 0.89606 0.97567 0.56001 0.0
H130 H 0.89347 0.00193 0.57562 0.0
H131 H 0.83743 0.95753 0.59674 0.0
H132 H 0.84004 0.93129 0.58078 0.0
H133 H 0.85509 0.8933 0.54033 0.0
H134 H 0.85073 0.86249 0.55291 0.0
H135 H 0.86639 0.8912 0.60387 0.0
H136 H 0.87109 0.92215 0.59103 0.0
H137 H 0.87011 0.95433 0.52302 0.0
H138 H 0.8257 0.90425 0.55151 0.0
O139 O 0.89014 0.94234 0.5452 0.0
H140 H 0.8448 0.95179 0.5026 0.0
H141 H 0.80038 0.90103 0.53081 0.0
C142 C 0.86841 0.95147 0.56951 0.0
C143 C 0.88346 0.97149 0.56836 0.0
C144 C 0.88195 0.98654 0.57729 0.0
C145 C 0.8652 0.98188 0.58739 0.0
C146 C 0.85042 0.96167 0.58892 0.0
C147 C 0.85199 0.94662 0.58 0.0
C148 C 0.86291 0.90986 0.56481 0.0
C149 C 0.85727 0.89286 0.55426 0.0
C150 C 0.85476 0.87522 0.5615 0.0
C151 C 0.85809 0.87426 0.57945 0.0
C152 C 0.86382 0.89142 0.58998 0.0
C153 C 0.8663 0.90908 0.5827 0.0
C154 C 0.84987 0.9291 0.53844 0.0
C155 C 0.85496 0.94245 0.5246 0.0
C156 C 0.84045 0.94098 0.51294 0.0
C157 C 0.8205 0.92617 0.515 0.0
C158 C 0.81552 0.91277 0.52892 0.0
C159 C 0.83004 0.91437 0.54062 0.0
P160 P 0.11668 0.90453 0.59001 0.0
H161 H 0.11958 0.92502 0.62295 0.0
H162 H 0.1352 0.9605 0.63103 0.0
H163 H 0.14668 0.97604 0.57664 0.0
H164 H 0.13087 0.94066 0.5686 0.0
H165 H 0.094 0.86131 0.58902 0.0
H166 H 0.0609 0.83706 0.59896 0.0
H167 H 0.05031 0.88533 0.61241 0.0
H168 H 0.08336 0.9095 0.60208 0.0
H169 H 0.15362 0.91423 0.57338 0.0
H170 H 0.0929 0.89102 0.55746 0.0
O171 O 0.13027 0.89843 0.60262 0.0
H172 H 0.16272 0.913 0.54315 0.0
H173 H 0.10173 0.88913 0.52708 0.0
C174 C 0.12423 0.93018 0.59523 0.0
C175 C 0.12504 0.93606 0.61274 0.0
C176 C 0.13391 0.95632 0.61733 0.0
C177 C 0.14231 0.97103 0.60446 0.0
C178 C 0.14052 0.96502 0.58683 0.0
C179 C 0.13145 0.94475 0.58224 0.0
C180 C 0.0912 0.88717 0.59495 0.0
C181 C 0.08445 0.86665 0.59389 0.0
C182 C 0.06558 0.85282 0.59971 0.0
C183 C 0.05306 0.85928 0.60674 0.0
C184 C 0.05956 0.87987 0.60704 0.0
C185 C 0.07851 0.89372 0.60121 0.0
C186 C 0.12253 0.90225 0.56768 0.0
C187 C 0.14218 0.90854 0.56336 0.0
C188 C 0.14735 0.90781 0.54606 0.0
C189 C 0.13293 0.90077 0.53266 0.0
C190 C 0.11323 0.89474 0.53704 0.0
C191 C 0.1081 0.89558 0.55442 0.0
P192 P 0.86301 0.425 0.75681 0.0
H193 H 0.84178 0.40594 0.72445 0.0
H194 H 0.82552 0.37129 0.71394 0.0
H195 H 0.83335 0.35271 0.76499 0.0
H196 H 0.84847 0.38703 0.77555 0.0
H197 H 0.88145 0.46783 0.76037 0.0
H198 H 0.86996 0.49153 0.75597 0.0
H199 H 0.81146 0.44266 0.74329 0.0
H200 H 0.8232 0.41887 0.74773 0.0
H201 H 0.89195 0.41574 0.7712 0.0
H202 H 0.85505 0.43845 0.7905 0.0
O203 O 0.88218 0.43318 0.74332 0.0
H204 H 0.90655 0.41978 0.80038 0.0
H205 H 0.86988 0.44287 0.81965 0.0
C206 C 0.84643 0.39918 0.75075 0.0
C207 C 0.83941 0.3943 0.7335 0.0
C208 C 0.83035 0.37447 0.72746 0.0
C209 C 0.82844 0.35914 0.73849 0.0
C210 C 0.83441 0.36398 0.75609 0.0
C211 C 0.84325 0.38378 0.76216 0.0
C212 C 0.85324 0.44162 0.7543 0.0
C213 C 0.8661 0.46218 0.75676 0.0
C214 C 0.85946 0.47572 0.75435 0.0
C215 C 0.83974 0.46902 0.74935 0.0
C216 C 0.82676 0.44831 0.74703 0.0
C217 C 0.83345 0.4347 0.74959 0.0
C218 C 0.87273 0.42716 0.77862 0.0
C219 C 0.88699 0.42158 0.78173 0.0
C220 C 0.89521 0.42375 0.79841 0.0
C221 C 0.88941 0.43174 0.81224 0.0
C222 C 0.87475 0.43688 0.80917 0.0
C223 C 0.86631 0.43439 0.79252 0.0
P224 P 0.59526 0.39877 0.78629 0.0
H225 H 0.57831 0.35534 0.7864 0.0
H226 H 0.54856 0.32792 0.77266 0.0
H227 H 0.53748 0.37084 0.74685 0.0
H228 H 0.56719 0.39815 0.76071 0.0
H229 H 0.61619 0.44237 0.792 0.0
H230 H 0.63851 0.47033 0.7737 0.0
H231 H 0.631 0.42882 0.73207 0.0
H232 H 0.60852 0.40092 0.7504 0.0
H233 H 0.58815 0.38659 0.82269 0.0
H234 H 0.57571 0.42268 0.78817 0.0
O235 O 0.60985 0.39077 0.79448 0.0
H236 H 0.56916 0.39114 0.84568 0.0
H237 H 0.55715 0.42788 0.81129 0.0
C238 C 0.57513 0.37874 0.77427 0.0
C239 C 0.56968 0.35883 0.77752 0.0
C240 C 0.55266 0.34318 0.76969 0.0
C241 C 0.54065 0.34722 0.75871 0.0
C242 C 0.54632 0.36724 0.75539 0.0
C243 C 0.56338 0.38286 0.76315 0.0
C244 C 0.61021 0.41959 0.77237 0.0
C245 C 0.61898 0.43929 0.77881 0.0
C246 C 0.63179 0.45527 0.76835 0.0
C247 C 0.63645 0.45179 0.7514 0.0
C248 C 0.62775 0.43199 0.74508 0.0
C249 C 0.61478 0.41605 0.75548 0.0
C250 C 0.58382 0.40478 0.8039 0.0
C251 C 0.58174 0.39593 0.82021 0.0
C252 C 0.57084 0.39854 0.83336 0.0
C253 C 0.56165 0.40994 0.8304 0.0
C254 C 0.56385 0.41885 0.814 0.0
C255 C 0.5747 0.41613 0.80083 0.0
P256 P 0.51922 0.04312 0.72263 0.0
H257 H 0.4813 0.02783 0.70502 0.0
H258 H 0.46147 0.04306 0.69755 0.0
H259 H 0.50884 0.10051 0.71552 0.0
H260 H 0.52878 0.08507 0.72293 0.0
H261 H 0.55187 0.04628 0.74398 0.0
H262 H 0.58707 0.06076 0.73864 0.0
H263 H 0.57984 0.08252 0.68895 0.0
H264 H 0.54464 0.06874 0.69488 0.0
H265 H 0.48786 0.00794 0.73949 0.0
H266 H 0.53357 0.06716 0.75497 0.0
O267 O 0.51112 0.02151 0.71177 0.0
H268 H 0.47725 0.00058 0.76973 0.0
H269 H 0.5236 0.05969 0.7855 0.0
C270 C 0.50666 0.05541 0.71418 0.0
C271 C 0.48765 0.0438 0.70696 0.0
C272 C 0.47625 0.05248 0.70284 0.0
C273 C 0.48358 0.07296 0.70602 0.0
C274 C 0.50291 0.08474 0.71275 0.0
C275 C 0.5143 0.07596 0.71697 0.0
C276 C 0.54569 0.05697 0.72009 0.0
C277 C 0.55793 0.05475 0.73221 0.0
C278 C 0.57807 0.06276 0.72897 0.0
C279 C 0.58636 0.07271 0.71328 0.0
C280 C 0.57409 0.07524 0.70129 0.0
C281 C 0.55393 0.06736 0.70465 0.0
C282 C 0.51196 0.03783 0.74511 0.0
C283 C 0.49583 0.01927 0.74947 0.0
C284 C 0.48979 0.01508 0.7668 0.0
C285 C 0.49975 0.02941 0.78015 0.0
C286 C 0.51552 0.04831 0.77559 0.0
C287 C 0.52143 0.05253 0.75818 0.0
P288 P 0.80799 0.63364 0.95131 0.0
H289 H 0.78592 0.62705 0.9834 0.0
H290 H 0.75051 0.60877 0.98981 0.0
H291 H 0.73778 0.58797 0.93614 0.0
H292 H 0.77316 0.60624 0.92984 0.0
H293 H 0.84838 0.65216 0.96447 0.0
H294 H 0.86915 0.63854 0.97371 0.0
H295 H 0.81968 0.57862 0.96658 0.0
H296 H 0.79887 0.59244 0.95749 0.0
H297 H 0.79578 0.65245 0.92518 0.0
H298 H 0.82941 0.62205 0.92632 0.0
O299 O 0.81585 0.65615 0.96036 0.0
H300 H 0.80159 0.65766 0.89382 0.0
H301 H 0.83588 0.62781 0.89525 0.0
C302 C 0.7821 0.61836 0.95609 0.0
C303 C 0.77549 0.61841 0.97306 0.0
C304 C 0.75528 0.60786 0.97673 0.0
C305 C 0.74135 0.5971 0.96343 0.0
C306 C 0.74814 0.59641 0.94658 0.0
C307 C 0.76837 0.60686 0.94297 0.0
C308 C 0.82204 0.62331 0.9606 0.0
C309 C 0.84189 0.6361 0.96526 0.0
C310 C 0.85378 0.62829 0.97039 0.0
C311 C 0.84606 0.6075 0.97081 0.0
C312 C 0.82597 0.5947 0.96659 0.0
C313 C 0.81408 0.60256 0.96139 0.0
C314 C 0.81218 0.63694 0.92813 0.0
C315 C 0.8045 0.64699 0.91869 0.0
C316 C 0.80796 0.65007 0.90078 0.0
C317 C 0.81932 0.64325 0.89197 0.0
C318 C 0.82688 0.63305 0.90152 0.0
C319 C 0.82329 0.62987 0.9194 0.0
P320 P 0.53261 0.26572 0.88721 0.0
H321 H 0.55753 0.30903 0.88954 0.0
H322 H 0.55417 0.33475 0.90531 0.0
H323 H 0.50281 0.28886 0.93156 0.0
H324 H 0.50618 0.26315 0.91545 0.0
H325 H 0.51131 0.22403 0.87492 0.0
H326 H 0.50636 0.19303 0.8875 0.0
H327 H 0.53732 0.22533 0.93442 0.0
H328 H 0.54214 0.25645 0.9217 0.0
H329 H 0.53797 0.2811 0.85168 0.0
H330 H 0.48943 0.24359 0.88517 0.0
O331 O 0.55521 0.27491 0.87891 0.0
H332 H 0.51461 0.27841 0.82901 0.0
H333 H 0.4659 0.24041 0.86243 0.0
C334 C 0.53239 0.28417 0.90163 0.0
C335 C 0.54585 0.30448 0.89902 0.0
C336 C 0.54389 0.31921 0.90804 0.0
C337 C 0.52821 0.31391 0.91971 0.0
C338 C 0.51495 0.29348 0.92255 0.0
C339 C 0.51698 0.27875 0.91352 0.0
C340 C 0.52655 0.24249 0.89759 0.0
C341 C 0.5166 0.22442 0.88809 0.0
C342 C 0.51384 0.20666 0.89529 0.0
C343 C 0.52137 0.20666 0.91201 0.0
C344 C 0.5314 0.22483 0.92149 0.0
C345 C 0.53398 0.24259 0.91431 0.0
C346 C 0.5154 0.26213 0.86992 0.0
C347 C 0.52226 0.27198 0.85403 0.0
C348 C 0.50887 0.27044 0.84108 0.0
C349 C 0.48835 0.25915 0.84386 0.0
C350 C 0.48158 0.2494 0.8599 0.0
C351 C 0.495 0.25099 0.87284 0.0
P352 P 0.78699 0.22989 0.93414 0.0
H353 H 0.80444 0.24902 0.9676 0.0
H354 H 0.82346 0.28396 0.97699 0.0
H355 H 0.81366 0.30196 0.92633 0.0
H356 H 0.79353 0.26688 0.91757 0.0
H357 H 0.76748 0.20631 0.96469 0.0
H358 H 0.73289 0.1871 0.97334 0.0
H359 H 0.71558 0.2059 0.92685 0.0
H360 H 0.75046 0.22541 0.91834 0.0
H361 H 0.82073 0.25407 0.91202 0.0
H362 H 0.76288 0.20187 0.90573 0.0
O363 O 0.79855 0.2194 0.94402 0.0
H364 H 0.82761 0.25171 0.88135 0.0
H365 H 0.76954 0.1996 0.87486 0.0
C366 C 0.79827 0.25545 0.94168 0.0
C367 C 0.8062 0.26051 0.95862 0.0
C368 C 0.81722 0.28054 0.9639 0.0
C369 C 0.82069 0.29592 0.95225 0.0
C370 C 0.81142 0.29063 0.93568 0.0
C371 C 0.80006 0.27053 0.93055 0.0
C372 C 0.76144 0.2167 0.94057 0.0
C373 C 0.75627 0.20634 0.95634 0.0
C374 C 0.7365 0.1955 0.96136 0.0
C375 C 0.7215 0.19485 0.9507 0.0
C376 C 0.72681 0.2059 0.9352 0.0
C377 C 0.74669 0.21699 0.9303 0.0
C378 C 0.79092 0.22873 0.91103 0.0
C379 C 0.80925 0.24243 0.90392 0.0
C380 C 0.81319 0.24106 0.88635 0.0
C381 C 0.79902 0.22566 0.87556 0.0
C382 C 0.78076 0.2117 0.8828 0.0
C383 C 0.77682 0.21313 0.90042 0.0
P384 P 0.53529 0.76461 0.09052 0.0
H385 H 0.52118 0.74733 0.05584 0.0
H386 H 0.50643 0.71302 0.04456 0.0
H387 H 0.50091 0.69175 0.09736 0.0
H388 H 0.51494 0.72586 0.10849 0.0
H389 H 0.55474 0.80766 0.09155 0.0
H390 H 0.54371 0.83157 0.0863 0.0
H391 H 0.48436 0.78282 0.07618 0.0
H392 H 0.49575 0.75882 0.08127 0.0
H393 H 0.56047 0.75261 0.10841 0.0
H394 H 0.52433 0.77816 0.12263 0.0
O395 O 0.55621 0.77327 0.07928 0.0
H396 H 0.57161 0.75566 0.13879 0.0
H397 H 0.53553 0.7814 0.15301 0.0
C398 C 0.51938 0.73922 0.08297 0.0
C399 C 0.51625 0.73519 0.06499 0.0
C400 C 0.50801 0.71558 0.05856 0.0
C401 C 0.50285 0.69962 0.07002 0.0
C402 C 0.50464 0.7036 0.08813 0.0
C403 C 0.51282 0.72322 0.09453 0.0
C404 C 0.52613 0.78151 0.08659 0.0
C405 C 0.53935 0.8021 0.08817 0.0
C406 C 0.53295 0.81576 0.08533 0.0
C407 C 0.5131 0.80916 0.0809 0.0
C408 C 0.49978 0.78842 0.07943 0.0
C409 C 0.50624 0.77468 0.08236 0.0
C410 C 0.54189 0.7655 0.11322 0.0
C411 C 0.55485 0.75877 0.11811 0.0
C412 C 0.56108 0.76038 0.13548 0.0
C413 C 0.55452 0.76888 0.14826 0.0
C414 C 0.54101 0.77501 0.1434 0.0
C415 C 0.53461 0.77318 0.12603 0.0
P416 P 0.26916 0.73308 0.12806 0.0
H417 H 0.24625 0.69018 0.13356 0.0
H418 H 0.21706 0.66335 0.1188 0.0
H419 H 0.22103 0.70506 0.07961 0.0
H420 H 0.24927 0.7319 0.09512 0.0
H421 H 0.28836 0.7766 0.13415 0.0
H422 H 0.31055 0.80522 0.11648 0.0
H423 H 0.30866 0.76498 0.07587 0.0
H424 H 0.2866 0.73645 0.0937 0.0
H425 H 0.25703 0.71856 0.16338 0.0
H426 H 0.24971 0.75713 0.12768 0.0
O427 O 0.28313 0.72524 0.13783 0.0
H428 H 0.23471 0.72136 0.18388 0.0
H429 H 0.22826 0.76104 0.14852 0.0
C430 C 0.25027 0.7129 0.11516 0.0
C431 C 0.24102 0.69341 0.12159 0.0
C432 C 0.22432 0.67806 0.1131 0.0
C433 C 0.21657 0.68196 0.09799 0.0
C434 C 0.22631 0.70149 0.09136 0.0
C435 C 0.24276 0.71686 0.10004 0.0
C436 C 0.28517 0.75436 0.11495 0.0
C437 C 0.29244 0.77392 0.12133 0.0
C438 C 0.30517 0.79029 0.11121 0.0
C439 C 0.31122 0.78742 0.09465 0.0
C440 C 0.30435 0.76776 0.08855 0.0
C441 C 0.29157 0.75142 0.09867 0.0
C442 C 0.25561 0.73823 0.14429 0.0
C443 C 0.2511 0.72818 0.1602 0.0
C444 C 0.23829 0.7298 0.17194 0.0
C445 C 0.22966 0.74152 0.16798 0.0
C446 C 0.23438 0.75169 0.15199 0.0
C447 C 0.24697 0.74979 0.14017 0.0
P448 P 0.17932 0.37553 0.05194 0.0
H449 H 0.1955 0.41507 0.03532 0.0
H450 H 0.18123 0.43661 0.03036 0.0
H451 H 0.1268 0.39248 0.05407 0.0
H452 H 0.14109 0.3712 0.059 0.0
H453 H 0.20041 0.37769 0.01996 0.0
H454 H 0.23547 0.39152 0.01344 0.0
H455 H 0.25044 0.41225 0.06702 0.0
H456 H 0.21552 0.39888 0.07326 0.0
H457 H 0.16503 0.33711 0.0692 0.0
H458 H 0.18339 0.39792 0.08423 0.0
O459 O 0.16696 0.35518 0.03926 0.0
H460 H 0.15762 0.32701 0.09959 0.0
H461 H 0.17689 0.38819 0.11478 0.0
C462 C 0.1694 0.39166 0.04773 0.0
C463 C 0.18052 0.41007 0.03945 0.0
C464 C 0.17233 0.42232 0.03656 0.0
C465 C 0.15297 0.41632 0.042 0.0
C466 C 0.14187 0.3977 0.05003 0.0
C467 C 0.14999 0.38548 0.05278 0.0
C468 C 0.2053 0.38687 0.04717 0.0
C469 C 0.21127 0.38526 0.03028 0.0
C470 C 0.23132 0.39311 0.02659 0.0
C471 C 0.24581 0.40283 0.03975 0.0
C472 C 0.23974 0.405 0.05653 0.0
C473 C 0.21968 0.39718 0.06017 0.0
C474 C 0.17464 0.36823 0.07447 0.0
C475 C 0.16758 0.34832 0.07908 0.0
C476 C 0.16347 0.34259 0.09651 0.0
C477 C 0.1666 0.35676 0.10972 0.0
C478 C 0.17391 0.37678 0.10498 0.0
C479 C 0.17782 0.38243 0.08753 0.0
P480 P 0.46888 0.96298 0.28162 0.0
H481 H 0.44644 0.96047 0.31263 0.0
H482 H 0.41124 0.94139 0.31943 0.0
H483 H 0.39913 0.9138 0.26799 0.0
H484 H 0.43444 0.93245 0.26157 0.0
H485 H 0.51031 0.97495 0.27887 0.0
H486 H 0.53058 0.96235 0.29137 0.0
H487 H 0.47982 0.91792 0.31943 0.0
H488 H 0.45942 0.93003 0.30608 0.0
H489 H 0.46561 0.98871 0.2559 0.0
H490 H 0.47999 0.94166 0.25606 0.0
O491 O 0.47711 0.98587 0.28998 0.0
H492 H 0.47235 0.99318 0.22465 0.0
H493 H 0.48778 0.94668 0.22507 0.0
C494 C 0.44297 0.94813 0.28651 0.0
C495 C 0.43617 0.95026 0.30285 0.0
C496 C 0.41603 0.93941 0.30668 0.0
C497 C 0.40227 0.9262 0.29419 0.0
C498 C 0.40928 0.92371 0.27797 0.0
C499 C 0.42948 0.93451 0.27421 0.0
C500 C 0.48335 0.95332 0.29137 0.0
C501 C 0.50354 0.96243 0.28765 0.0
C502 C 0.51516 0.95531 0.29498 0.0
C503 C 0.50691 0.93914 0.30654 0.0
C504 C 0.48663 0.9302 0.31042 0.0
C505 C 0.47495 0.93721 0.30286 0.0
C506 C 0.47281 0.96525 0.25838 0.0
C507 C 0.47038 0.97945 0.24921 0.0
C508 C 0.4744 0.98208 0.23136 0.0
C509 C 0.48098 0.97055 0.22232 0.0
C510 C 0.4827 0.9558 0.23151 0.0
C511 C 0.47845 0.95305 0.24933 0.0
P512 P 0.20209 0.6011 0.21783 0.0
H513 H 0.22368 0.64434 0.21628 0.0
H514 H 0.22092 0.67018 0.23225 0.0
H515 H 0.17898 0.62546 0.26707 0.0
H516 H 0.18112 0.59951 0.25026 0.0
H517 H 0.18256 0.55988 0.20467 0.0
H518 H 0.17815 0.52887 0.21671 0.0
H519 H 0.20689 0.5602 0.26467 0.0
H520 H 0.21139 0.59136 0.25239 0.0
H521 H 0.2052 0.62067 0.1847 0.0
H522 H 0.15898 0.57543 0.21587 0.0
O523 O 0.22405 0.61007 0.20828 0.0
H524 H 0.18055 0.61884 0.16393 0.0
H525 H 0.1342 0.5727 0.19475 0.0
C526 C 0.20305 0.62006 0.23238 0.0
C527 C 0.21425 0.64015 0.22762 0.0
C528 C 0.21266 0.65498 0.23683 0.0
C529 C 0.19975 0.65006 0.25106 0.0
C530 C 0.1889 0.62987 0.25607 0.0
C531 C 0.19033 0.61499 0.24666 0.0
C532 C 0.1966 0.57783 0.22787 0.0
C533 C 0.18747 0.56003 0.21795 0.0
C534 C 0.18501 0.54226 0.22485 0.0
C535 C 0.192 0.54194 0.24174 0.0
C536 C 0.20136 0.55989 0.25161 0.0
C537 C 0.20372 0.57768 0.24469 0.0
C538 C 0.18395 0.59771 0.20151 0.0
C539 C 0.18974 0.60995 0.18683 0.0
C540 C 0.17559 0.60887 0.17494 0.0
C541 C 0.15531 0.59553 0.17754 0.0
C542 C 0.14962 0.58331 0.19237 0.0
C543 C 0.1638 0.5846 0.20434 0.0
P544 P 0.45118 0.57689 0.26333 0.0
H545 H 0.44877 0.59602 0.29542 0.0
H546 H 0.46439 0.63096 0.30495 0.0
H547 H 0.48918 0.64933 0.25349 0.0
H548 H 0.47251 0.6146 0.24384 0.0
H549 H 0.42722 0.53376 0.26356 0.0
H550 H 0.39255 0.51072 0.27018 0.0
H551 H 0.38293 0.56073 0.27737 0.0
H552 H 0.41776 0.58377 0.27069 0.0
H553 H 0.48926 0.58818 0.24821 0.0
H554 H 0.42877 0.56114 0.23019 0.0
O555 O 0.46307 0.56949 0.27675 0.0
H556 H 0.49974 0.58573 0.21879 0.0
H557 H 0.43892 0.55761 0.20081 0.0
C558 C 0.45953 0.60264 0.26898 0.0
C559 C 0.45717 0.60763 0.28609 0.0
C560 C 0.46633 0.62764 0.29157 0.0
C561 C 0.47842 0.64306 0.2801 0.0
C562 C 0.47992 0.63797 0.26269 0.0
C563 C 0.47048 0.61796 0.25717 0.0
C564 C 0.42511 0.56045 0.26681 0.0
C565 C 0.41761 0.53977 0.26645 0.0
C566 C 0.39776 0.52661 0.27016 0.0
C567 C 0.38498 0.5339 0.27436 0.0
C568 C 0.39247 0.55468 0.27441 0.0
C569 C 0.41237 0.56786 0.27054 0.0
C570 C 0.45823 0.57457 0.24143 0.0
C571 C 0.47819 0.58148 0.23791 0.0
C572 C 0.48414 0.57997 0.22106 0.0
C573 C 0.47017 0.57125 0.20737 0.0
C574 C 0.45014 0.56459 0.21094 0.0
C575 C 0.44425 0.56638 0.22781 0.0
O576 O 0.46534 0.97336 0.00621 0.0
Mn577 Mn 0.49289 0.99822 0.00095 0.0
O578 O 0.44701 0.98451 0.01961 0.0
Mn579 Mn 0.4672 0.0109 0.02271 0.0
O580 O 0.52068 0.02296 0.99581 0.0
O581 O 0.50361 0.97962 0.99763 0.0
Mn582 Mn 0.5172 0.98493 0.97821 0.0
O583 O 0.48525 0.99613 0.97437 0.0
O584 O 0.5376 0.01122 0.98068 0.0
O585 O 0.50005 0.00043 0.02762 0.0
O586 O 0.48447 0.01479 0.04104 0.0
O587 O 0.51784 0.9635 0.98807 0.0
O588 O 0.49936 0.98074 0.96046 0.0
C589 C 0.47823 0.03056 0.00061 0.0
C590 C 0.44918 0.97034 0.0133 0.0
C591 C 0.53626 0.02552 0.98784 0.0
C592 C 0.50708 0.96517 3e-05 0.0
C593 C 0.48795 0.98809 0.96064 0.0
C594 C 0.49629 0.00788 0.04124 0.0
O595 O 0.48206 0.0166 0.00409 0.0
O596 O 0.46659 0.03196 0.01178 0.0
O597 O 0.02315 0.50601 0.01319 0.0
Mn598 Mn 0.00601 0.51902 0.00799 0.0
O599 O 0.01095 0.48865 0.03797 0.0
Mn600 Mn 0.99024 0.49382 0.04143 0.0
O601 O 0.98871 0.53201 0.00294 0.0
O602 O 0.02897 0.54127 0.99586 0.0
Mn603 Mn 0.02239 0.54627 0.97539 0.0
O604 O 0.99585 0.50268 0.98438 0.0
O605 O 0.00271 0.5525 0.98015 0.0
O606 O 0.01645 0.53598 0.0313 0.0
O607 O 0.99727 0.51748 0.05315 0.0
O608 O 0.04882 0.56524 0.97927 0.0
O609 O 0.01401 0.52288 0.96263 0.0
C610 C 0.96617 0.48077 0.02291 0.0
C611 C 0.02345 0.49498 0.0255 0.0
C612 C 0.98944 0.54477 0.99189 0.0
C613 C 0.0464 0.55646 0.99408 0.0
C614 C 0.00105 0.50584 0.96824 0.0
C615 C 0.01083 0.53403 0.04732 0.0
O616 O 0.98315 0.49643 0.02022 0.0
O617 O 0.96415 0.47381 0.03852 0.0
O618 O 0.5225 0.50632 0.99922 0.0
Mn619 Mn 0.49243 0.49033 0.00485 0.0
O620 O 0.52479 0.52331 0.97466 0.0
Mn621 Mn 0.49795 0.51443 0.97105 0.0
O622 O 0.46239 0.47455 0.01025 0.0
O623 O 0.496 0.46975 0.01711 0.0
Mn624 Mn 0.48555 0.46433 0.03797 0.0
O625 O 0.49746 0.50678 0.02827 0.0
O626 O 0.45889 0.45638 0.03422 0.0
O627 O 0.48775 0.47357 0.98184 0.0
O628 O 0.48422 0.48997 0.95944 0.0
O629 O 0.49453 0.44649 0.03318 0.0
O630 O 0.49994 0.48848 0.04983 0.0
C631 C 0.48478 0.52502 0.98998 0.0
C632 C 0.53261 0.51834 0.98695 0.0
C633 C 0.45171 0.46226 0.02211 0.0
C634 C 0.49924 0.45508 0.01819 0.0
C635 C 0.50147 0.50466 0.04419 0.0
C636 C 0.48392 0.47462 0.96568 0.0
O637 O 0.48858 0.5108 0.99238 0.0
O638 O 0.48831 0.53186 0.97428 0.0
O639 O 0.13552 0.30658 0.3362 0.0
Mn640 Mn 0.1627 0.33242 0.33149 0.0
O641 O 0.11381 0.31616 0.34415 0.0
Mn642 Mn 0.13254 0.34295 0.34747 0.0
O643 O 0.1901 0.35815 0.32672 0.0
O644 O 0.17532 0.31524 0.33226 0.0
Mn645 Mn 0.19158 0.32077 0.31465 0.0
O646 O 0.15752 0.3275 0.30452 0.0
O647 O 0.21058 0.34748 0.31724 0.0
O648 O 0.16759 0.33752 0.3585 0.0
O649 O 0.14736 0.34856 0.36791 0.0
O650 O 0.19234 0.30064 0.32675 0.0
O651 O 0.17611 0.31481 0.29465 0.0
C652 C 0.14532 0.36244 0.3256 0.0
C653 C 0.11801 0.30256 0.34053 0.0
C654 C 0.20711 0.36146 0.32141 0.0
C655 C 0.17942 0.30161 0.33661 0.0
C656 C 0.16315 0.32 0.29227 0.0
C657 C 0.16093 0.34423 0.37063 0.0
O658 O 0.14985 0.34933 0.33059 0.0
O659 O 0.1317 0.36283 0.33487 0.0
O660 O 0.68342 0.83924 0.35155 0.0
Mn661 Mn 0.66608 0.8524 0.34799 0.0
O662 O 0.67086 0.81941 0.37503 0.0
Mn663 Mn 0.65057 0.82468 0.38036 0.0
O664 O 0.64843 0.86527 0.34482 0.0
O665 O 0.68851 0.87532 0.33602 0.0
Mn666 Mn 0.68106 0.88167 0.31661 0.0
O667 O 0.65532 0.83705 0.32406 0.0
O668 O 0.66183 0.88788 0.32341 0.0
O669 O 0.67694 0.86804 0.37177 0.0
O670 O 0.65873 0.84789 0.39339 0.0
O671 O 0.70768 0.90035 0.32015 0.0
O672 O 0.67194 0.85891 0.30269 0.0
C673 C 0.62645 0.81443 0.36171 0.0
C674 C 0.68352 0.827 0.36276 0.0
C675 C 0.64886 0.87896 0.33517 0.0
C676 C 0.70584 0.89065 0.33432 0.0
C677 C 0.65975 0.84133 0.30788 0.0
C678 C 0.67196 0.86491 0.38795 0.0
O679 O 0.6438 0.82962 0.35997 0.0
O680 O 0.62403 0.80561 0.37648 0.0
O681 O 0.18257 0.83358 0.32604 0.0
Mn682 Mn 0.15277 0.81957 0.33244 0.0
O683 O 0.18534 0.84989 0.30095 0.0
Mn684 Mn 0.1589 0.84311 0.29796 0.0
O685 O 0.12287 0.80571 0.33859 0.0
O686 O 0.15549 0.79884 0.34556 0.0
Mn687 Mn 0.14528 0.7953 0.36654 0.0
O688 O 0.1595 0.83767 0.35499 0.0
O689 O 0.11883 0.78796 0.36291 0.0
O690 O 0.14602 0.8015 0.30989 0.0
O691 O 0.14312 0.81832 0.28739 0.0
O692 O 0.15329 0.77652 0.36343 0.0
O693 O 0.16034 0.81983 0.37769 0.0
C694 C 0.14783 0.85537 0.31765 0.0
C695 C 0.1928 0.8446 0.3133 0.0
C696 C 0.11199 0.79404 0.35071 0.0
C697 C 0.15835 0.78404 0.34803 0.0
C698 C 0.16298 0.8361 0.37118 0.0
C699 C 0.14165 0.80246 0.29381 0.0
O700 O 0.15002 0.8401 0.31935 0.0
O701 O 0.15165 0.86245 0.30205 0.0
O702 O 0.80049 0.63742 0.67157 0.0
Mn703 Mn 0.8284 0.66288 0.66837 0.0
O704 O 0.77976 0.64782 0.68079 0.0
Mn705 Mn 0.79911 0.67417 0.68526 0.0
O706 O 0.85648 0.68836 0.66526 0.0
O707 O 0.83997 0.64476 0.66814 0.0
Mn708 Mn 0.85784 0.65176 0.65173 0.0
O709 O 0.82454 0.66019 0.64118 0.0
O710 O 0.8774 0.67751 0.65767 0.0
O711 O 0.83219 0.66565 0.69559 0.0
O712 O 0.81347 0.67817 0.70577 0.0
O713 O 0.85637 0.62963 0.66218 0.0
O714 O 0.84451 0.64926 0.63091 0.0
C715 C 0.81299 0.69477 0.66436 0.0
C716 C 0.78319 0.63394 0.67611 0.0
C717 C 0.87396 0.69147 0.66194 0.0
C718 C 0.8431 0.63029 0.67176 0.0
C719 C 0.83145 0.65436 0.62861 0.0
C720 C 0.82607 0.67245 0.70807 0.0
O721 O 0.81655 0.68073 0.66849 0.0
O722 O 0.79962 0.69539 0.67381 0.0
O723 O 0.3473 0.15696 0.67801 0.0
Mn724 Mn 0.33261 0.17263 0.67308 0.0
O725 O 0.33373 0.13915 0.70238 0.0
Mn726 Mn 0.31652 0.1487 0.7075 0.0
O727 O 0.31796 0.1883 0.66811 0.0
O728 O 0.35559 0.19244 0.65953 0.0
Mn729 Mn 0.34942 0.19701 0.63877 0.0
O730 O 0.31963 0.15539 0.65035 0.0
O731 O 0.33092 0.20514 0.64319 0.0
O732 O 0.346 0.19005 0.69554 0.0
O733 O 0.32843 0.17334 0.71894 0.0
O734 O 0.37642 0.21482 0.64249 0.0
O735 O 0.33891 0.1723 0.62769 0.0
C736 C 0.29157 0.13922 0.68997 0.0
C737 C 0.34603 0.14461 0.68977 0.0
C738 C 0.31873 0.19995 0.65588 0.0
C739 C 0.37334 0.20681 0.65771 0.0
C740 C 0.32456 0.15662 0.63416 0.0
C741 C 0.34239 0.18891 0.712 0.0
O742 O 0.30948 0.15277 0.68681 0.0
O743 O 0.28923 0.13207 0.70552 0.0
O744 O 0.86251 0.17735 0.66563 0.0
Mn745 Mn 0.83214 0.16088 0.67021 0.0
O746 O 0.86621 0.19673 0.64241 0.0
Mn747 Mn 0.83951 0.18671 0.63704 0.0
O748 O 0.80189 0.14474 0.67471 0.0
O749 O 0.83553 0.14025 0.68256 0.0
Mn750 Mn 0.82422 0.13421 0.70304 0.0
O751 O 0.83597 0.17681 0.69373 0.0
O752 O 0.79761 0.12583 0.69834 0.0
O753 O 0.82873 0.14489 0.64702 0.0
O754 O 0.82785 0.16276 0.62443 0.0
O755 O 0.83391 0.11689 0.69856 0.0
O756 O 0.83776 0.15817 0.71536 0.0
C757 C 0.82323 0.19443 0.65529 0.0
C758 C 0.87333 0.19074 0.6545 0.0
C759 C 0.79083 0.13202 0.68614 0.0
C760 C 0.83902 0.12576 0.68371 0.0
C761 C 0.83933 0.17439 0.70976 0.0
C762 C 0.82665 0.14696 0.63064 0.0
O763 O 0.82832 0.18119 0.65765 0.0
O764 O 0.8279 0.20252 0.64008 0.0
C765 C 0.34028 0.80496 0.07457 0.0
C766 C 0.32469 0.80484 0.08383 0.0
C767 C 0.35302 0.82141 0.06452 0.0
C768 C 0.38472 0.86325 0.05372 0.0
H769 H 0.364 0.89077 0.02643 0.0
C770 C 0.41487 0.94581 0.02304 0.0
C771 C 0.43307 0.94948 0.01618 0.0
C772 C 0.40086 0.92673 0.02854 0.0
C773 C 0.37005 0.88332 0.03404 0.0
H774 H 0.3101 0.82183 0.0895 0.0
H775 H 0.33245 0.85061 0.07219 0.0
H776 H 0.34127 0.86043 0.04182 0.0
H777 H 0.45023 0.93556 0.00885 0.0
H778 H 0.42564 0.90217 0.0183 0.0
H779 H 0.41352 0.88638 0.04631 0.0
C780 C 0.33475 0.83791 0.07258 0.0
C781 C 0.35701 0.86593 0.04289 0.0
C782 C 0.32207 0.82151 0.08268 0.0
C783 C 0.43642 0.93331 0.0141 0.0
C784 C 0.42238 0.91418 0.01967 0.0
C785 C 0.39777 0.88068 0.04491 0.0
C786 C 0.35041 0.8381 0.0634 0.0
C787 C 0.3642 0.85585 0.05306 0.0
C788 C 0.40462 0.91077 0.02734 0.0
C789 C 0.39062 0.89112 0.03518 0.0
H790 H 0.34284 0.79245 0.07529 0.0
H791 H 0.36485 0.82101 0.05752 0.0
H792 H 0.39078 0.85599 0.06158 0.0
H793 H 0.41172 0.95785 0.02483 0.0
H794 H 0.38746 0.92474 0.03452 0.0
C795 C 0.14567 0.43858 0.02346 0.0
C796 C 0.14418 0.42927 0.0395 0.0
C797 C 0.13588 0.44937 0.02082 0.0
C798 C 0.11112 0.47293 0.04455 0.0
H799 H 0.07954 0.46106 0.00219 0.0
C800 C 0.04248 0.48132 0.04067 0.0
C801 C 0.03938 0.48984 0.02572 0.0
C802 C 0.05774 0.47692 0.04127 0.0
C803 C 0.08853 0.46479 0.01395 0.0
H804 H 0.13215 0.4248 0.0656 0.0
H805 H 0.11493 0.44327 0.06098 0.0
H806 H 0.10253 0.44849 0.00529 0.0
H807 H 0.04996 0.50036 0.99962 0.0
H808 H 0.07655 0.49233 0.00063 0.0
H809 H 0.09658 0.48857 0.05348 0.0
C810 C 0.12368 0.4424 0.05043 0.0
C811 C 0.10173 0.45764 0.01573 0.0
C812 C 0.13336 0.43159 0.05302 0.0
C813 C 0.0519 0.49377 0.01132 0.0
C814 C 0.06711 0.48915 0.01187 0.0
C815 C 0.09789 0.47998 0.04281 0.0
C816 C 0.12458 0.45119 0.03423 0.0
C817 C 0.11277 0.46117 0.03126 0.0
C818 C 0.07023 0.48079 0.02691 0.0
C819 C 0.08607 0.47554 0.0277 0.0
H820 H 0.15385 0.43698 0.01278 0.0
H821 H 0.13698 0.45611 0.00825 0.0
H822 H 0.11972 0.47629 0.05652 0.0
H823 H 0.03321 0.47815 0.05203 0.0
H824 H 0.05959 0.47019 0.05294 0.0
C825 C 0.48339 0.66187 0.07135 0.0
C826 C 0.49764 0.6794 0.06316 0.0
C827 C 0.47998 0.64306 0.06571 0.0
C828 C 0.50479 0.61993 0.04196 0.0
H829 H 0.45222 0.57368 0.03703 0.0
C830 C 0.4666 0.54129 0.00158 0.0
C831 C 0.48122 0.53603 0.00395 0.0
C832 C 0.46653 0.55626 0.012 0.0
C833 C 0.46701 0.58645 0.03837 0.0
H834 H 0.51934 0.69073 0.04246 0.0
H835 H 0.51306 0.65813 0.03243 0.0
H836 H 0.45622 0.60539 0.04796 0.0
H837 H 0.50733 0.54236 0.01888 0.0
H838 H 0.50682 0.56784 0.03759 0.0
H839 H 0.51563 0.60146 0.03177 0.0
C840 C 0.50468 0.65888 0.04336 0.0
C841 C 0.4693 0.60458 0.04476 0.0
C842 C 0.50805 0.6776 0.04896 0.0
C843 C 0.49534 0.54544 0.01732 0.0
C844 C 0.49531 0.56041 0.02775 0.0
C845 C 0.50251 0.60188 0.03561 0.0
C846 C 0.49084 0.64139 0.05183 0.0
C847 C 0.48822 0.62165 0.04629 0.0
C848 C 0.48132 0.56652 0.02481 0.0
C849 C 0.48359 0.58496 0.03347 0.0
H850 H 0.47499 0.66268 0.08224 0.0
H851 H 0.46924 0.62989 0.07253 0.0
H852 H 0.51961 0.63267 0.04327 0.0
H853 H 0.45591 0.53464 0.99099 0.0
H854 H 0.45571 0.56073 0.00915 0.0
C855 C 0.8521 0.32203 0.96679 0.0
C856 C 0.83502 0.3172 0.95691 0.0
C857 C 0.86609 0.34188 0.97065 0.0
C858 C 0.87365 0.39323 0.97249 0.0
H859 H 0.92838 0.4065 0.97664 0.0
C860 C 0.95727 0.46147 0.99501 0.0
C861 C 0.95159 0.46887 0.00926 0.0
C862 C 0.94301 0.44587 0.98459 0.0
C863 C 0.91331 0.40338 0.97518 0.0
H864 H 0.8193 0.32978 0.94351 0.0
H865 H 0.84419 0.36454 0.94966 0.0
H866 H 0.90386 0.37377 0.96596 0.0
H867 H 0.92673 0.46591 0.024 0.0
H868 H 0.90181 0.4384 0.00629 0.0
H869 H 0.88328 0.42314 0.98125 0.0
C870 C 0.84653 0.35285 0.95469 0.0
C871 C 0.89908 0.38432 0.96937 0.0
C872 C 0.83235 0.33288 0.951 0.0
C873 C 0.93141 0.46083 0.0127 0.0
C874 C 0.91713 0.44505 0.00247 0.0
C875 C 0.88798 0.41249 0.97804 0.0
C876 C 0.86367 0.3576 0.96448 0.0
C877 C 0.87897 0.37873 0.96853 0.0
C878 C 0.92276 0.43688 0.98861 0.0
C879 C 0.90794 0.41764 0.98 0.0
H880 H 0.85495 0.31049 0.97132 0.0
H881 H 0.87882 0.34484 0.97856 0.0
H882 H 0.85833 0.38952 0.972 0.0
H883 H 0.97274 0.46667 0.99264 0.0
H884 H 0.94799 0.44029 0.97389 0.0
C885 C 0.70746 0.5902 0.95505 0.0
C886 C 0.71983 0.58769 0.96687 0.0
C887 C 0.68745 0.58251 0.95866 0.0
C888 C 0.64588 0.54506 0.98406 0.0
H889 H 0.62417 0.57978 0.97605 0.0
C890 C 0.56412 0.52148 0.99919 0.0
C891 C 0.55436 0.52665 0.98658 0.0
C892 C 0.58458 0.52907 0.99832 0.0
C893 C 0.62993 0.56981 0.97821 0.0
H894 H 0.72078 0.57467 0.99153 0.0
H895 H 0.68563 0.5611 0.99782 0.0
H896 H 0.6592 0.59223 0.97124 0.0
H897 H 0.55865 0.54388 0.96313 0.0
H898 H 0.59391 0.55672 0.96151 0.0
H899 H 0.61645 0.52247 0.99065 0.0
C900 C 0.69151 0.56907 0.98577 0.0
C901 C 0.65001 0.57697 0.97547 0.0
C902 C 0.71163 0.57694 0.98223 0.0
C903 C 0.56558 0.53962 0.97315 0.0
C904 C 0.58592 0.54713 0.97228 0.0
C905 C 0.62568 0.53782 0.9867 0.0
C906 C 0.67929 0.57203 0.97412 0.0
C907 C 0.65816 0.5646 0.97809 0.0
C908 C 0.59572 0.54201 0.98484 0.0
C909 C 0.61741 0.55003 0.98352 0.0
H910 H 0.71337 0.59858 0.94319 0.0
H911 H 0.67835 0.58482 0.94933 0.0
H912 H 0.65175 0.53517 0.98612 0.0
H913 H 0.55595 0.51149 0.00971 0.0
H914 H 0.5917 0.52494 0.00828 0.0
C915 C 0.53517 0.18768 0.9276 0.0
C916 C 0.51918 0.18783 0.91923 0.0
C917 C 0.53325 0.16984 0.93389 0.0
C918 C 0.5009 0.11428 0.93036 0.0
H919 H 0.52488 0.11494 0.97498 0.0
C920 C 0.47232 0.04669 0.97545 0.0
C921 C 0.48577 0.04403 0.98561 0.0
C922 C 0.47897 0.06286 0.96421 0.0
C923 C 0.51841 0.11452 0.96233 0.0
H924 H 0.48849 0.16935 0.91126 0.0
H925 H 0.48496 0.13841 0.92252 0.0
H926 H 0.53112 0.1463 0.96227 0.0
H927 H 0.51674 0.05572 0.99172 0.0
H928 H 0.52854 0.08427 0.97205 0.0
H929 H 0.48747 0.08236 0.93089 0.0
C930 C 0.49921 0.15194 0.92382 0.0
C931 C 0.52196 0.13254 0.95502 0.0
C932 C 0.50118 0.16973 0.91743 0.0
C933 C 0.50613 0.05721 0.98369 0.0
C934 C 0.51282 0.07368 0.97263 0.0
C935 C 0.49724 0.09626 0.93774 0.0
C936 C 0.51523 0.15169 0.93208 0.0
C937 C 0.5129 0.13265 0.93911 0.0
C938 C 0.49924 0.07701 0.96319 0.0
C939 C 0.50562 0.09614 0.95398 0.0
H940 H 0.54933 0.20131 0.92897 0.0
H941 H 0.546 0.17026 0.93995 0.0
H942 H 0.49406 0.11375 0.91788 0.0
H943 H 0.45654 0.03686 0.97692 0.0
H944 H 0.46809 0.06505 0.95729 0.0
C945 C 0.69403 0.18118 0.97259 0.0
C946 C 0.70041 0.18177 0.95534 0.0
C947 C 0.67457 0.16747 0.97725 0.0
C948 C 0.62478 0.13104 0.95829 0.0
H949 H 0.61795 0.10394 0.00224 0.0
C950 C 0.56451 0.05033 0.97036 0.0
C951 C 0.55312 0.04599 0.98556 0.0
C952 C 0.5806 0.06937 0.96779 0.0
C953 C 0.61956 0.11163 0.99008 0.0
H954 H 0.69134 0.16864 0.92943 0.0
H955 H 0.65766 0.14446 0.93753 0.0
H956 H 0.64995 0.13289 0.99545 0.0
H957 H 0.54952 0.05828 0.00994 0.0
H958 H 0.5785 0.09176 0.0057 0.0
H959 H 0.59469 0.10883 0.95253 0.0
C960 C 0.66741 0.15489 0.94745 0.0
C961 C 0.63789 0.12826 0.98616 0.0
C962 C 0.68678 0.16873 0.94276 0.0
C963 C 0.55809 0.06123 0.99813 0.0
C964 C 0.57461 0.0803 0.99572 0.0
C965 C 0.60658 0.11426 0.96211 0.0
C966 C 0.66107 0.15387 0.96481 0.0
C967 C 0.64091 0.13788 0.96999 0.0
C968 C 0.58595 0.08449 0.98048 0.0
C969 C 0.60396 0.10413 0.97786 0.0
H970 H 0.70417 0.19121 0.98252 0.0
H971 H 0.67018 0.16742 0.99066 0.0
H972 H 0.62633 0.13833 0.94593 0.0
H973 H 0.56092 0.03898 0.96033 0.0
H974 H 0.5892 0.07216 0.95601 0.0
C975 C 0.87793 0.6079 0.96642 0.0
C976 C 0.85934 0.59936 0.9744 0.0
C977 C 0.89041 0.60014 0.96924 0.0
C978 C 0.90203 0.57094 0.9994 0.0
H979 H 0.92919 0.56569 0.95915 0.0
C980 C 0.9566 0.53984 0.00204 0.0
C981 C 0.97385 0.55039 0.99208 0.0
C982 C 0.94133 0.54433 0.00086 0.0
C983 C 0.92182 0.56719 0.97055 0.0
H984 H 0.83931 0.57608 0.99175 0.0
H985 H 0.86131 0.56244 0.99672 0.0
H986 H 0.90465 0.57594 0.95513 0.0
H987 H 0.98887 0.57458 0.97372 0.0
H988 H 0.96253 0.58242 0.97186 0.0
H989 H 0.9196 0.56249 0.01484 0.0
C990 C 0.86615 0.5752 0.98831 0.0
C991 C 0.90775 0.57304 0.96823 0.0
C992 C 0.85353 0.5829 0.98537 0.0
C993 C 0.97573 0.56594 0.98142 0.0
C994 C 0.96056 0.57038 0.98026 0.0
C995 C 0.91621 0.5651 0.00174 0.0
C996 C 0.88464 0.58366 0.98013 0.0
C997 C 0.89803 0.57543 0.98265 0.0
C998 C 0.94302 0.55941 0.98968 0.0
C999 C 0.92659 0.56364 0.98735 0.0
H1000 H 0.88274 0.62042 0.95772 0.0
H1001 H 0.90467 0.60714 0.96292 0.0
H1002 H 0.89478 0.57272 0.01076 0.0
H1003 H 0.95466 0.52777 0.01037 0.0
H1004 H 0.92797 0.53562 0.00828 0.0
C1005 C 0.54143 0.34758 0.93452 0.0
C1006 C 0.52523 0.32965 0.92819 0.0
C1007 C 0.5386 0.36251 0.94213 0.0
C1008 C 0.50036 0.3697 0.96372 0.0
H1009 H 0.53704 0.42601 0.95635 0.0
C1010 C 0.48662 0.42946 0.99468 0.0
C1011 C 0.50287 0.44535 0.00325 0.0
C1012 C 0.48932 0.4168 0.98327 0.0
C1013 C 0.52674 0.41035 0.9586 0.0
H1014 H 0.49337 0.31365 0.92451 0.0
H1015 H 0.48842 0.33958 0.93782 0.0
H1016 H 0.5417 0.4008 0.9409 0.0
H1017 H 0.53464 0.46084 0.00665 0.0
H1018 H 0.53955 0.43883 0.98647 0.0
H1019 H 0.4855 0.3791 0.98151 0.0
C1020 C 0.50331 0.34199 0.93716 0.0
C1021 C 0.52942 0.3959 0.94978 0.0
C1022 C 0.50614 0.32708 0.92957 0.0
C1023 C 0.52197 0.44891 -0.00018 0.0
C1024 C 0.52473 0.43628 0.98832 0.0
C1025 C 0.49766 0.38409 0.97247 0.0
C1026 C 0.51949 0.35987 0.94361 0.0
C1027 C 0.51634 0.37538 0.95234 0.0
C1028 C 0.50835 0.41971 0.98032 0.0
C1029 C 0.51085 0.4046 0.97012 0.0
H1030 H 0.55632 0.34998 0.93382 0.0
H1031 H 0.55136 0.37594 0.9472 0.0
H1032 H 0.49019 0.35408 0.96627 0.0
H1033 H 0.47172 0.42632 0.99738 0.0
H1034 H 0.47643 0.40443 0.9771 0.0
C1035 C 0.19309 0.64598 0.08909 0.0
C1036 C 0.19781 0.66612 0.08974 0.0
C1037 C 0.17525 0.63125 0.08151 0.0
C1038 C 0.12602 0.62287 0.06661 0.0
H1039 H 0.12542 0.58155 0.03693 0.0
C1040 C 0.07106 0.58634 0.01038 0.0
C1041 C 0.06143 0.56554 0.00804 0.0
C1042 C 0.0862 0.5959 0.02271 0.0
C1043 C 0.1253 0.59282 0.0454 0.0
H1044 H 0.18703 0.68629 0.08322 0.0
H1045 H 0.15688 0.66112 0.06922 0.0
H1046 H 0.15508 0.60364 0.05416 0.0
H1047 H 0.06025 0.5383 0.01637 0.0
H1048 H 0.08734 0.55524 0.03805 0.0
H1049 H 0.09695 0.61321 0.05676 0.0
C1050 C 0.1666 0.65647 0.07494 0.0
C1051 C 0.14226 0.60546 0.05532 0.0
C1052 C 0.18421 0.67108 0.08268 0.0
C1053 C 0.0673 0.55434 0.01818 0.0
C1054 C 0.08285 0.56402 0.0304 0.0
C1055 C 0.10937 0.61065 0.0564 0.0
C1056 C 0.16178 0.63632 0.07431 0.0
C1057 C 0.14302 0.62104 0.06566 0.0
C1058 C 0.09235 0.58492 0.03281 0.0
C1059 C 0.10894 0.59575 0.04543 0.0
H1060 H 0.20325 0.6416 0.09428 0.0
H1061 H 0.172 0.61588 0.08139 0.0
H1062 H 0.12574 0.6342 0.07487 0.0
H1063 H 0.06687 0.59529 0.00261 0.0
H1064 H 0.09342 0.61202 0.02406 0.0
C1065 C 0.28199 0.42815 0.04359 0.0
C1066 C 0.26706 0.41006 0.03619 0.0
C1067 C 0.30195 0.43435 0.04102 0.0
C1068 C 0.33608 0.4268 0.01278 0.0
H1069 H 0.37095 0.44662 0.05332 0.0
C1070 C 0.42133 0.46085 0.00918 0.0
C1071 C 0.43019 0.45527 0.02233 0.0
C1072 C 0.40132 0.45528 0.01009 0.0
C1073 C 0.36139 0.44103 0.04189 0.0
H1074 H 0.26153 0.3844 0.02014 0.0
H1075 H 0.29634 0.39532 0.01555 0.0
H1076 H 0.33634 0.4374 0.05619 0.0
H1077 H 0.42468 0.43905 0.04658 0.0
H1078 H 0.38991 0.42939 0.04807 0.0
H1079 H 0.36116 0.43019 0.99855 0.0
C1080 C 0.29258 0.4048 0.0232 0.0
C1081 C 0.3416 0.43596 0.04349 0.0
C1082 C 0.27261 0.39856 0.02583 0.0
C1083 C 0.41843 0.44368 0.03621 0.0
C1084 C 0.3985 0.43824 0.03716 0.0
C1085 C 0.35594 0.432 0.01115 0.0
C1086 C 0.30748 0.42265 0.03093 0.0
C1087 C 0.32868 0.42868 0.02898 0.0
C1088 C 0.38976 0.44415 0.02422 0.0
C1089 C 0.36877 0.43902 0.02573 0.0
H1090 H 0.27825 0.43755 0.05139 0.0
H1091 H 0.31308 0.44834 0.04693 0.0
H1092 H 0.32653 0.42138 0.00133 0.0
H1093 H 0.4299 0.46977 0.9983 0.0
H1094 H 0.39503 0.46016 -4e-05 0.0
C1095 C 0.51428 0.84169 0.08756 0.0
C1096 C 0.50674 0.82406 0.07736 0.0
C1097 C 0.51026 0.8568 0.08309 0.0
C1098 C 0.47826 0.86878 0.0557 0.0
H1099 H 0.52506 0.92136 0.05414 0.0
C1100 C 0.48583 0.93062 0.00997 0.0
C1101 C 0.49916 0.95069 0.01421 0.0
C1102 C 0.48286 0.91547 0.02145 0.0
C1103 C 0.51166 0.90696 0.05487 0.0
H1104 H 0.48828 0.8082 0.0549 0.0
H1105 H 0.4812 0.83456 0.04714 0.0
H1106 H 0.5272 0.89394 0.06692 0.0
H1107 H 0.51946 0.9709 0.03386 0.0
H1108 H 0.51371 0.94456 0.05446 0.0
H1109 H 0.46282 0.88177 0.04328 0.0
C1110 C 0.49015 0.83663 0.05866 0.0
C1111 C 0.51294 0.89114 0.06217 0.0
C1112 C 0.49422 0.8215 0.06311 0.0
C1113 C 0.50863 0.95554 0.03057 0.0
C1114 C 0.5056 0.94039 0.04218 0.0
C1115 C 0.47694 0.88467 0.0485 0.0
C1116 C 0.49853 0.85467 0.06836 0.0
C1117 C 0.49638 0.87176 0.06232 0.0
C1118 C 0.49339 0.92009 0.0374 0.0
C1119 C 0.49375 0.90389 0.0476 0.0
H1120 H 0.52361 0.84399 0.09886 0.0
H1121 H 0.51664 0.87034 0.09103 0.0
H1122 H 0.46516 0.85408 0.05585 0.0
H1123 H 0.47877 0.92655 0.99719 0.0
H1124 H 0.47353 0.90011 0.01714 0.0
C1125 C 0.9902 0.1526 0.40708 0.0
C1126 C 0.99281 0.13598 0.40877 0.0
C1127 C 0.00312 0.16886 0.39696 0.0
C1128 C 0.05372 0.19446 0.37988 0.0
H1129 H 0.03377 0.22122 0.35061 0.0
C1130 C 0.08354 0.27694 0.34898 0.0
C1131 C 0.10243 0.28142 0.34331 0.0
C1132 C 0.0697 0.25765 0.35414 0.0
C1133 C 0.03962 0.214 0.35879 0.0
H1134 H 0.0111 0.12343 0.40114 0.0
H1135 H 0.03368 0.15186 0.38342 0.0
H1136 H 0.01059 0.19065 0.36546 0.0
H1137 H 0.12099 0.26867 0.33761 0.0
H1138 H 0.09676 0.23487 0.34652 0.0
H1139 H 0.08275 0.21813 0.37368 0.0
C1140 C 0.02162 0.15229 0.38997 0.0
C1141 C 0.02632 0.19647 0.3673 0.0
C1142 C 0.00859 0.13594 0.39999 0.0
C1143 C 0.1067 0.26581 0.34208 0.0
C1144 C 0.09283 0.24645 0.34728 0.0
C1145 C 0.06705 0.21208 0.37145 0.0
C1146 C 0.01905 0.16896 0.38836 0.0
C1147 C 0.0332 0.18668 0.37819 0.0
C1148 C 0.07428 0.24222 0.35372 0.0
C1149 C 0.06017 0.22229 0.36105 0.0
H1150 H 0.9781 0.15302 0.41355 0.0
H1151 H 0.00084 0.18155 0.39615 0.0
H1152 H 0.05951 0.18738 0.3883 0.0
H1153 H 0.07962 0.2885 0.35011 0.0
H1154 H 0.0557 0.25509 0.3592 0.0
C1155 C 0.79491 0.7657 0.38772 0.0
C1156 C 0.80542 0.76297 0.37415 0.0
C1157 C 0.78516 0.77642 0.38499 0.0
C1158 C 0.76247 0.79086 0.3503 0.0
H1159 H 0.75829 0.82262 0.38786 0.0
C1160 C 0.71194 0.82664 0.34753 0.0
C1161 C 0.69957 0.82206 0.36214 0.0
C1162 C 0.72737 0.82232 0.34746 0.0
C1163 C 0.75938 0.81385 0.37723 0.0
H1164 H 0.81441 0.7698 0.34718 0.0
H1165 H 0.79741 0.78878 0.34241 0.0
H1166 H 0.78166 0.81058 0.39058 0.0
H1167 H 0.69392 0.80952 0.38815 0.0
H1168 H 0.72072 0.8022 0.388 0.0
H1169 H 0.73981 0.79389 0.33715 0.0
C1170 C 0.79661 0.78243 0.35513 0.0
C1171 C 0.77271 0.80691 0.37879 0.0
C1172 C 0.80647 0.77173 0.3579 0.0
C1173 C 0.70304 0.81317 0.37663 0.0
C1174 C 0.71853 0.80913 0.37663 0.0
C1175 C 0.74918 0.79794 0.34869 0.0
C1176 C 0.78569 0.78473 0.36862 0.0
C1177 C 0.77394 0.79476 0.36562 0.0
C1178 C 0.73089 0.81369 0.3621 0.0
C1179 C 0.74707 0.80894 0.3624 0.0
H1180 H 0.79403 0.75935 0.40045 0.0
H1181 H 0.77668 0.77764 0.39561 0.0
H1182 H 0.76297 0.78145 0.33996 0.0
H1183 H 0.7097 0.83353 0.33617 0.0
H1184 H 0.73671 0.82597 0.33609 0.0
C1185 C 0.15603 0.00344 0.37364 0.0
C1186 C 0.15923 0.00875 0.39149 0.0
C1187 C 0.15259 0.98475 0.36783 0.0
C1188 C 0.13749 0.93332 0.38035 0.0
H1189 H 0.17252 0.93665 0.3431 0.0
C1190 C 0.16493 0.88242 0.33952 0.0
C1191 C 0.14704 0.86742 0.33223 0.0
C1192 C 0.16542 0.8978 0.34968 0.0
C1193 C 0.16273 0.93547 0.35359 0.0
H1194 H 0.16025 0.99789 0.4173 0.0
H1195 H 0.15368 0.96503 0.40712 0.0
H1196 H 0.17408 0.96704 0.3543 0.0
H1197 H 0.11555 0.85607 0.33019 0.0
H1198 H 0.11625 0.88279 0.34848 0.0
H1199 H 0.12594 0.90152 0.3793 0.0
C1200 C 0.15398 0.9755 0.39766 0.0
C1201 C 0.16347 0.95285 0.35987 0.0
C1202 C 0.15766 0.99433 0.40348 0.0
C1203 C 0.12943 0.86729 0.33606 0.0
C1204 C 0.12987 0.88258 0.34645 0.0
C1205 C 0.13651 0.91578 0.37383 0.0
C1206 C 0.15199 0.97075 0.37973 0.0
C1207 C 0.15084 0.952 0.37326 0.0
C1208 C 0.148 0.89842 0.35275 0.0
C1209 C 0.14919 0.91673 0.3604 0.0
H1210 H 0.15665 0.01392 0.36405 0.0
H1211 H 0.15077 0.98135 0.35395 0.0
H1212 H 0.12759 0.93225 0.39069 0.0
H1213 H 0.17872 0.88294 0.33646 0.0
H1214 H 0.17956 0.90971 0.35449 0.0
C1215 C 0.49505 0.68043 0.27589 0.0
C1216 C 0.4907 0.66407 0.28664 0.0
C1217 C 0.50799 0.70004 0.2817 0.0
C1218 C 0.53017 0.73048 0.32162 0.0
H1219 H 0.57496 0.76436 0.2926 0.0
C1220 C 0.59302 0.80354 0.34972 0.0
C1221 C 0.61165 0.80534 0.34767 0.0
C1222 C 0.5771 0.79022 0.33912 0.0
C1223 C 0.56245 0.75516 0.30079 0.0
H1224 H 0.49672 0.6558 0.312 0.0
H1225 H 0.51861 0.68979 0.32218 0.0
H1226 H 0.5483 0.7326 0.28077 0.0
H1227 H 0.62865 0.79522 0.33296 0.0
H1228 H 0.60085 0.77172 0.31455 0.0
H1229 H 0.54458 0.75234 0.34191 0.0
C1230 C 0.51191 0.68745 0.30932 0.0
C1231 C 0.54713 0.73705 0.29398 0.0
C1232 C 0.49923 0.66791 0.30347 0.0
C1233 C 0.61446 0.79439 0.33441 0.0
C1234 C 0.59851 0.78092 0.32391 0.0
C1235 C 0.54536 0.74857 0.32837 0.0
C1236 C 0.5166 0.70371 0.29846 0.0
C1237 C 0.53116 0.72426 0.30454 0.0
C1238 C 0.57949 0.77816 0.32658 0.0
C1239 C 0.56196 0.76086 0.31822 0.0
H1240 H 0.48858 0.6781 0.26294 0.0
H1241 H 0.51126 0.71233 0.2731 0.0
H1242 H 0.51794 0.72101 0.32999 0.0
H1243 H 0.59053 0.81162 0.36013 0.0
H1244 H 0.56268 0.78858 0.34139 0.0
C1245 C 0.3723 0.92549 0.30692 0.0
C1246 C 0.38068 0.91562 0.29788 0.0
C1247 C 0.35195 0.9159 0.30988 0.0
C1248 C 0.30476 0.87603 0.29205 0.0
H1249 H 0.2836 0.88296 0.33567 0.0
C1250 C 0.22522 0.86129 0.29775 0.0
C1251 C 0.21423 0.8513 0.31254 0.0
C1252 C 0.2453 0.86741 0.29672 0.0
C1253 C 0.28927 0.88071 0.32349 0.0
H1254 H 0.37415 0.88765 0.28528 0.0
H1255 H 0.33856 0.87101 0.29025 0.0
H1256 H 0.31924 0.89652 0.3329 0.0
H1257 H 0.2159 0.83992 0.33791 0.0
H1258 H 0.25114 0.85081 0.33612 0.0
H1259 H 0.27484 0.86041 0.28257 0.0
C1260 C 0.34779 0.88626 0.29493 0.0
C1261 C 0.30968 0.88863 0.32184 0.0
C1262 C 0.36818 0.89582 0.29204 0.0
C1263 C 0.2239 0.84762 0.32634 0.0
C1264 C 0.24409 0.8539 0.32535 0.0
C1265 C 0.28438 0.86823 0.29366 0.0
C1266 C 0.33944 0.89624 0.30379 0.0
C1267 C 0.31767 0.88659 0.30603 0.0
C1268 C 0.25497 0.8638 0.31049 0.0
C1269 C 0.27644 0.87073 0.30931 0.0
H1270 H 0.38138 0.94085 0.31133 0.0
H1271 H 0.34595 0.92413 0.31649 0.0
H1272 H 0.31044 0.87432 0.27966 0.0
H1273 H 0.21834 0.86438 0.28684 0.0
H1274 H 0.25333 0.87526 0.28521 0.0
C1275 C 0.20544 0.52303 0.25813 0.0
C1276 C 0.18989 0.52302 0.24875 0.0
C1277 C 0.20359 0.50515 0.26423 0.0
C1278 C 0.17357 0.44976 0.25801 0.0
H1279 H 0.19263 0.4485 0.30453 0.0
C1280 C 0.1423 0.37896 0.29928 0.0
C1281 C 0.1546 0.3766 0.31124 0.0
C1282 C 0.1498 0.39586 0.28882 0.0
C1283 C 0.18759 0.44863 0.29136 0.0
H1284 H 0.16002 0.5041 0.23884 0.0
H1285 H 0.1567 0.47306 0.24959 0.0
H1286 H 0.19909 0.48025 0.29252 0.0
H1287 H 0.18444 0.38963 0.32133 0.0
H1288 H 0.19782 0.41931 0.3029 0.0
H1289 H 0.16145 0.418 0.25713 0.0
C1290 C 0.17055 0.48682 0.25189 0.0
C1291 C 0.19124 0.46687 0.28447 0.0
C1292 C 0.17242 0.50466 0.24576 0.0
C1293 C 0.17483 0.39086 0.31184 0.0
C1294 C 0.18236 0.40799 0.30151 0.0
C1295 C 0.16986 0.43152 0.26492 0.0
C1296 C 0.18613 0.48676 0.26115 0.0
C1297 C 0.18388 0.46764 0.26785 0.0
C1298 C 0.16974 0.41101 0.29033 0.0
C1299 C 0.17643 0.43065 0.28184 0.0
H1300 H 0.21922 0.53684 0.26046 0.0
H1301 H 0.21599 0.50571 0.27114 0.0
H1302 H 0.16808 0.44979 0.245 0.0
H1303 H 0.12657 0.36831 0.2988 0.0
H1304 H 0.13958 0.39771 0.28053 0.0
C1305 C 0.35304 0.50185 0.26934 0.0
C1306 C 0.36405 0.51973 0.27895 0.0
C1307 C 0.33389 0.48777 0.2743 0.0
C1308 C 0.3016 0.47036 0.3126 0.0
H1309 H 0.26219 0.43786 0.2775 0.0
C1310 C 0.22518 0.39881 0.32743 0.0
C1311 C 0.22302 0.38215 0.3179 0.0
C1312 C 0.24044 0.41816 0.32342 0.0
C1313 C 0.27297 0.44693 0.28747 0.0
H1314 H 0.36338 0.53704 0.30116 0.0
H1315 H 0.32971 0.51243 0.30978 0.0
H1316 H 0.2926 0.46754 0.26871 0.0
H1317 H 0.23488 0.37279 0.29652 0.0
H1318 H 0.26101 0.40615 0.28955 0.0
H1319 H 0.28201 0.44921 0.33126 0.0
C1320 C 0.33602 0.50928 0.29845 0.0
C1321 C 0.29044 0.46386 0.28244 0.0
C1322 C 0.35522 0.52345 0.29341 0.0
C1323 C 0.2362 0.38524 0.30425 0.0
C1324 C 0.25108 0.4044 0.3001 0.0
C1325 C 0.284 0.45342 0.31765 0.0
C1326 C 0.32518 0.49119 0.28902 0.0
C1327 C 0.30531 0.47535 0.29483 0.0
C1328 C 0.2534 0.42108 0.30959 0.0
C1329 C 0.26987 0.44115 0.30503 0.0
H1330 H 0.35933 0.49861 0.25803 0.0
H1331 H 0.32612 0.47391 0.26686 0.0
H1332 H 0.31276 0.47883 0.32248 0.0
H1333 H 0.21528 0.39686 0.33806 0.0
H1334 H 0.242 0.43082 0.33097 0.0
C1335 C 0.53936 0.94495 0.31865 0.0
C1336 C 0.51945 0.93161 0.31423 0.0
C1337 C 0.55164 0.9379 0.32453 0.0
C1338 C 0.55571 0.89213 0.32367 0.0
H1339 H 0.60106 0.92464 0.35374 0.0
C1340 C 0.61409 0.8698 0.34241 0.0
C1341 C 0.63322 0.88422 0.33724 0.0
C1342 C 0.59886 0.87437 0.34273 0.0
C1343 C 0.58837 0.91537 0.34543 0.0
H1344 H 0.49671 0.90027 0.31325 0.0
H1345 H 0.51788 0.88803 0.32432 0.0
H1346 H 0.57616 0.93443 0.34917 0.0
H1347 H 0.65165 0.91489 0.32912 0.0
H1348 H 0.62518 0.923 0.33019 0.0
H1349 H 0.56806 0.87304 0.3201 0.0
C1350 C 0.52418 0.90397 0.32273 0.0
C1351 C 0.57417 0.92102 0.34267 0.0
C1352 C 0.51193 0.91103 0.3166 0.0
C1353 C 0.63703 0.90348 0.33309 0.0
C1354 C 0.62194 0.90815 0.3338 0.0
C1355 C 0.56975 0.88629 0.3267 0.0
C1356 C 0.54431 0.91729 0.32646 0.0
C1357 C 0.55795 0.90981 0.33132 0.0
C1358 C 0.60266 0.89355 0.33831 0.0
C1359 C 0.58645 0.89815 0.33723 0.0
H1360 H 0.54561 0.96093 0.31736 0.0
H1361 H 0.56708 0.94866 0.32701 0.0
H1362 H 0.54363 0.88322 0.31467 0.0
H1363 H 0.61073 0.8548 0.34558 0.0
H1364 H 0.58409 0.86288 0.34625 0.0
C1365 C 0.21254 0.68559 0.26176 0.0
C1366 C 0.19683 0.66575 0.25989 0.0
C1367 C 0.20945 0.70048 0.2691 0.0
C1368 C 0.16888 0.71091 0.28034 0.0
H1369 H 0.20866 0.75201 0.31072 0.0
C1370 C 0.15078 0.75299 0.33224 0.0
C1371 C 0.16316 0.77371 0.33432 0.0
C1372 C 0.15571 0.74209 0.32078 0.0
C1373 C 0.19755 0.74082 0.30204 0.0
H1374 H 0.16546 0.64625 0.26443 0.0
H1375 H 0.16036 0.67174 0.27803 0.0
H1376 H 0.21573 0.72815 0.29592 0.0
H1377 H 0.19049 0.79944 0.3262 0.0
H1378 H 0.19954 0.78008 0.30617 0.0
H1379 H 0.15028 0.72281 0.28738 0.0
C1380 C 0.175 0.67602 0.27337 0.0
C1381 C 0.20157 0.72711 0.29352 0.0
C1382 C 0.17803 0.66121 0.26585 0.0
C1383 C 0.18063 0.78348 0.32462 0.0
C1384 C 0.18583 0.77241 0.31332 0.0
C1385 C 0.16475 0.72433 0.2891 0.0
C1386 C 0.1906 0.69593 0.27494 0.0
C1387 C 0.18712 0.71168 0.28284 0.0
C1388 C 0.1734 0.75156 0.31137 0.0
C1389 C 0.1789 0.73923 0.30027 0.0
H1390 H 0.2273 0.68969 0.25757 0.0
H1391 H 0.22182 0.71562 0.26995 0.0
H1392 H 0.15758 0.6997 0.27181 0.0
H1393 H 0.13731 0.74514 0.33972 0.0
H1394 H 0.14596 0.72605 0.31975 0.0
C1395 C 0.85903 0.97816 0.42053 0.0
C1396 C 0.8637 0.99826 0.42157 0.0
C1397 C 0.84048 0.96328 0.41427 0.0
C1398 C 0.78967 0.95416 0.40486 0.0
H1399 H 0.78654 0.914 0.37209 0.0
C1400 C 0.7307 0.91958 0.3515 0.0
C1401 C 0.72126 0.89898 0.34801 0.0
C1402 C 0.74632 0.92853 0.36344 0.0
C1403 C 0.78712 0.92488 0.38148 0.0
H1404 H 0.85221 0.01828 0.41719 0.0
H1405 H 0.82054 0.99275 0.40561 0.0
H1406 H 0.81774 0.93598 0.38739 0.0
H1407 H 0.72076 0.87144 0.35402 0.0
H1408 H 0.74877 0.88732 0.37494 0.0
H1409 H 0.75962 0.94423 0.39789 0.0
C1410 C 0.83095 0.98828 0.40994 0.0
C1411 C 0.80498 0.93748 0.39026 0.0
C1412 C 0.84935 0.00306 0.41628 0.0
C1413 C 0.72769 0.88732 0.35672 0.0
C1414 C 0.74374 0.89642 0.36853 0.0
C1415 C 0.77204 0.9419 0.39584 0.0
C1416 C 0.8262 0.96817 0.4089 0.0
C1417 C 0.80664 0.95273 0.40163 0.0
C1418 C 0.75317 0.91714 0.37197 0.0
C1419 C 0.7707 0.92748 0.38373 0.0
H1420 H 0.86977 0.97392 0.42437 0.0
H1421 H 0.83731 0.94794 0.41374 0.0
H1422 H 0.79019 0.96528 0.41393 0.0
H1423 H 0.72604 0.92888 0.34486 0.0
H1424 H 0.75346 0.94455 0.3656 0.0
C1425 C 0.93411 0.73415 0.35781 0.0
C1426 C 0.92886 0.74559 0.36859 0.0
C1427 C 0.95398 0.74052 0.3545 0.0
C1428 C 0.00349 0.77165 0.37373 0.0
H1429 H 0.02177 0.76542 0.3283 0.0
C1430 C 0.08219 0.79429 0.33825 0.0
C1431 C 0.0907 0.78803 0.35116 0.0
C1432 C 0.0624 0.78953 0.33941 0.0
C1433 C 0.01691 0.76737 0.34103 0.0
H1434 H 0.94048 0.77315 0.38375 0.0
H1435 H 0.97515 0.78415 0.3781 0.0
H1436 H 0.98735 0.75711 0.33179 0.0
H1437 H 0.0848 0.77146 0.37525 0.0
H1438 H 0.0505 0.76323 0.37719 0.0
H1439 H 0.03295 0.78185 0.38301 0.0
C1440 C 0.96386 0.77011 0.37239 0.0
C1441 C 0.99717 0.76247 0.34306 0.0
C1442 C 0.94398 0.76379 0.37565 0.0
C1443 C 0.07884 0.77662 0.36507 0.0
C1444 C 0.05917 0.77199 0.36627 0.0
C1445 C 0.02314 0.77641 0.37173 0.0
C1446 C 0.96909 0.75844 0.36194 0.0
C1447 C 0.99023 0.76446 0.35947 0.0
C1448 C 0.05077 0.77855 0.35358 0.0
C1449 C 0.03004 0.77418 0.3554 0.0
H1450 H 0.92289 0.71992 0.35236 0.0
H1451 H 0.95753 0.73105 0.34657 0.0
H1452 H 0.99858 0.77317 0.38658 0.0
H1453 H 0.09086 0.80313 0.32737 0.0
H1454 H 0.05635 0.79488 0.32947 0.0
C1455 C 0.15803 0.15237 0.3937 0.0
C1456 C 0.17012 0.15411 0.40804 0.0
C1457 C 0.15437 0.16792 0.38976 0.0
C1458 C 0.17801 0.22241 0.39561 0.0
H1459 H 0.12938 0.21535 0.37516 0.0
C1460 C 0.17744 0.28984 0.36693 0.0
C1461 C 0.16932 0.28649 0.35005 0.0
C1462 C 0.17299 0.27371 0.37783 0.0
C1463 C 0.14308 0.2176 0.38085 0.0
H1464 H 0.18654 0.17283 0.43027 0.0
H1465 H 0.18014 0.19981 0.42346 0.0
H1466 H 0.13038 0.18646 0.38665 0.0
H1467 H 0.14993 0.2639 0.33135 0.0
H1468 H 0.1421 0.23577 0.35014 0.0
H1469 H 0.19107 0.25321 0.38918 0.0
C1470 C 0.17385 0.18669 0.41499 0.0
C1471 C 0.14365 0.20102 0.38742 0.0
C1472 C 0.17752 0.17121 0.4189 0.0
C1473 C 0.1558 0.26688 0.34459 0.0
C1474 C 0.15141 0.25074 0.35538 0.0
C1475 C 0.17748 0.23891 0.38899 0.0
C1476 C 0.1627 0.18551 0.40011 0.0
C1477 C 0.16123 0.20319 0.39461 0.0
C1478 C 0.16074 0.25387 0.37181 0.0
C1479 C 0.16013 0.23672 0.38121 0.0
H1480 H 0.15219 0.13945 0.38502 0.0
H1481 H 0.14584 0.16656 0.37812 0.0
H1482 H 0.19191 0.22464 0.40077 0.0
H1483 H 0.18859 0.30474 0.37112 0.0
H1484 H 0.18023 0.27675 0.3905 0.0
C1485 C 0.64951 0.48622 0.73937 0.0
C1486 C 0.6507 0.46872 0.74057 0.0
C1487 C 0.66316 0.5023 0.72948 0.0
C1488 C 0.68758 0.52945 0.69983 0.0
H1489 H 0.74338 0.5483 0.70723 0.0
C1490 C 0.77042 0.59683 0.67694 0.0
C1491 C 0.76687 0.61295 0.67796 0.0
C1492 C 0.75571 0.57754 0.68156 0.0
C1493 C 0.72788 0.54304 0.70468 0.0
H1494 H 0.66724 0.45444 0.73236 0.0
H1495 H 0.69121 0.48264 0.71516 0.0
H1496 H 0.71871 0.51784 0.72131 0.0
H1497 H 0.74453 0.62103 0.68369 0.0
H1498 H 0.71924 0.58783 0.69187 0.0
H1499 H 0.69662 0.55459 0.68327 0.0
C1500 C 0.67965 0.48385 0.72184 0.0
C1501 C 0.71373 0.52559 0.71284 0.0
C1502 C 0.66584 0.46766 0.73158 0.0
C1503 C 0.7479 0.60906 0.68277 0.0
C1504 C 0.73326 0.58988 0.68738 0.0
C1505 C 0.70169 0.54676 0.69155 0.0
C1506 C 0.67847 0.50136 0.72069 0.0
C1507 C 0.69343 0.51885 0.7108 0.0
C1508 C 0.73707 0.57392 0.68724 0.0
C1509 C 0.72206 0.55408 0.69418 0.0
H1510 H 0.63794 0.48744 0.74605 0.0
H1511 H 0.66198 0.51567 0.72899 0.0
H1512 H 0.67204 0.52442 0.69776 0.0
H1513 H 0.7848 0.59924 0.67322 0.0
H1514 H 0.75908 0.56556 0.68101 0.0
C1515 C 0.47713 0.09981 0.69505 0.0
C1516 C 0.47045 0.0815 0.7035 0.0
C1517 C 0.46448 0.1076 0.69281 0.0
C1518 C 0.42029 0.10553 0.71154 0.0
H1519 H 0.41357 0.12389 0.66647 0.0
C1520 C 0.35641 0.12029 0.69915 0.0
C1521 C 0.36011 0.13704 0.68934 0.0
C1522 C 0.37035 0.11407 0.70005 0.0
C1523 C 0.41546 0.11908 0.6792 0.0
H1524 H 0.44551 0.05725 0.71653 0.0
H1525 H 0.42357 0.07082 0.71267 0.0
H1526 H 0.4377 0.11275 0.66994 0.0
H1527 H 0.38128 0.16019 0.67247 0.0
H1528 H 0.40584 0.14953 0.67431 0.0
H1529 H 0.39834 0.11195 0.72096 0.0
C1530 C 0.4385 0.07913 0.70772 0.0
C1531 C 0.42927 0.11269 0.68117 0.0
C1532 C 0.45101 0.07127 0.70978 0.0
C1533 C 0.37791 0.14714 0.68006 0.0
C1534 C 0.39198 0.141 0.68109 0.0
C1535 C 0.40664 0.11204 0.70963 0.0
C1536 C 0.44507 0.09737 0.69924 0.0
C1537 C 0.43158 0.10556 0.6973 0.0
C1538 C 0.3885 0.12457 0.69134 0.0
C1539 C 0.40379 0.11858 0.69338 0.0
H1540 H 0.49203 0.10797 0.69004 0.0
H1541 H 0.46995 0.12175 0.6863 0.0
H1542 H 0.42201 0.10046 0.72422 0.0
H1543 H 0.34276 0.11203 0.7063 0.0
H1544 H 0.36692 0.10104 0.7077 0.0
C1545 C 0.82814 0.33641 0.71458 0.0
C1546 C 0.82211 0.33871 0.73133 0.0
C1547 C 0.8237 0.31759 0.70824 0.0
C1548 C 0.8132 0.26817 0.72249 0.0
H1549 H 0.7992 0.25435 0.67364 0.0
C1550 C 0.82858 0.21326 0.68315 0.0
C1551 C 0.81612 0.20269 0.66899 0.0
C1552 C 0.82489 0.22616 0.69336 0.0
C1553 C 0.80274 0.2577 0.6874 0.0
H1554 H 0.80612 0.32263 0.75432 0.0
H1555 H 0.79867 0.28973 0.74327 0.0
H1556 H 0.8008 0.28428 0.68585 0.0
H1557 H 0.78968 0.19653 0.6547 0.0
H1558 H 0.78273 0.21848 0.67288 0.0
H1559 H 0.81553 0.2417 0.72389 0.0
C1560 C 0.80693 0.30265 0.73514 0.0
C1561 C 0.8039 0.27504 0.69434 0.0
C1562 C 0.81123 0.32152 0.74146 0.0
C1563 C 0.79929 0.20429 0.66578 0.0
C1564 C 0.79548 0.21704 0.67606 0.0
C1565 C 0.81211 0.25079 0.71551 0.0
C1566 C 0.81322 0.3005 0.71848 0.0
C1567 C 0.8096 0.28076 0.71184 0.0
C1568 C 0.80871 0.22879 0.6895 0.0
C1569 C 0.80724 0.24556 0.69777 0.0
H1570 H 0.83696 0.34925 0.70653 0.0
H1571 H 0.82909 0.31653 0.69548 0.0
H1572 H 0.81771 0.27221 0.73602 0.0
H1573 H 0.84206 0.21284 0.68545 0.0
H1574 H 0.83555 0.23514 0.70343 0.0
C1575 C 0.14831 0.00102 0.62242 0.0
C1576 C 0.15465 0.9924 0.60959 0.0
C1577 C 0.161 0.0205 0.62859 0.0
C1578 C 0.21011 0.06643 0.6206 0.0
H1579 H 0.20981 0.07287 0.67088 0.0
C1580 C 0.2783 0.11951 0.66253 0.0
C1581 C 0.27576 0.12954 0.67676 0.0
C1582 C 0.26207 0.10625 0.65221 0.0
C1583 C 0.20987 0.07149 0.65678 0.0
H1584 H 0.17905 0.99754 0.5929 0.0
H1585 H 0.20133 0.03112 0.60393 0.0
H1586 H 0.18367 0.04285 0.65679 0.0
H1587 H 0.2545 0.13364 0.69159 0.0
H1588 H 0.22602 0.11059 0.67336 0.0
H1589 H 0.23714 0.09463 0.62094 0.0
C1590 C 0.18642 0.02322 0.60894 0.0
C1591 C 0.19482 0.05426 0.64865 0.0
C1592 C 0.17366 0.00388 0.60263 0.0
C1593 C 0.25684 0.12646 0.68034 0.0
C1594 C 0.24058 0.11319 0.67002 0.0
C1595 C 0.22532 0.08355 0.6288 0.0
C1596 C 0.18043 0.03168 0.62227 0.0
C1597 C 0.19496 0.05126 0.63049 0.0
C1598 C 0.24298 0.1026 0.65609 0.0
C1599 C 0.22555 0.08606 0.64701 0.0
H1600 H 0.13364 0.99255 0.62788 0.0
H1601 H 0.15569 0.02663 0.63858 0.0
H1602 H 0.21051 0.06489 0.60655 0.0
H1603 H 0.29252 0.12076 0.66014 0.0
H1604 H 0.2643 0.09792 0.64186 0.0
C1605 C 0.05025 0.24408 0.64079 0.0
C1606 C 0.05983 0.26136 0.63061 0.0
C1607 C 0.03036 0.23608 0.64532 0.0
C1608 C 0.99156 0.2501 0.64926 0.0
H1609 H 0.95496 0.19296 0.64685 0.0
C1610 C 0.90742 0.2169 0.64594 0.0
C1611 C 0.89511 0.19933 0.65507 0.0
C1612 C 0.92778 0.22439 0.64522 0.0
C1613 C 0.96506 0.20893 0.64787 0.0
H1614 H 0.05573 0.28332 0.61667 0.0
H1615 H 0.02118 0.26942 0.6245 0.0
H1616 H 0.99 0.20591 0.64085 0.0
H1617 H 0.89468 0.17599 0.67086 0.0
H1618 H 0.93045 0.18915 0.66957 0.0
H1619 H 0.96663 0.25318 0.65595 0.0
C1620 C 0.02913 0.26228 0.62935 0.0
C1621 C 0.98513 0.21635 0.6444 0.0
C1622 C 0.04895 0.27024 0.62483 0.0
C1623 C 0.90375 0.18961 0.66378 0.0
C1624 C 0.9242 0.19705 0.66293 0.0
C1625 C 0.97154 0.24269 0.6527 0.0
C1626 C 0.01961 0.2452 0.63978 0.0
C1627 C 0.99855 0.23706 0.64473 0.0
C1628 C 0.93642 0.21447 0.65353 0.0
C1629 C 0.95798 0.22205 0.65172 0.0
H1630 H 0.05825 0.23698 0.6456 0.0
H1631 H 0.02352 0.223 0.65348 0.0
H1632 H 0.00156 0.26609 0.65004 0.0
H1633 H 0.90131 0.22481 0.6391 0.0
H1634 H 0.9367 0.23768 0.63768 0.0
C1635 C 0.84059 0.83669 0.58139 0.0
C1636 C 0.85598 0.85556 0.58699 0.0
C1637 C 0.83878 0.81914 0.58822 0.0
C1638 C 0.85304 0.80016 0.62645 0.0
H1639 H 0.83632 0.75319 0.5969 0.0
C1640 C 0.84147 0.72726 0.65601 0.0
C1641 C 0.82366 0.71013 0.65124 0.0
C1642 C 0.84871 0.74472 0.64625 0.0
C1643 C 0.84095 0.76615 0.60535 0.0
H1644 H 0.88175 0.87061 0.60403 0.0
H1645 H 0.87853 0.84002 0.616 0.0
H1646 H 0.84204 0.78438 0.58402 0.0
H1647 H 0.79945 0.69752 0.63256 0.0
H1648 H 0.81195 0.72788 0.61543 0.0
H1649 H 0.85149 0.78192 0.64783 0.0
C1650 C 0.8677 0.83881 0.60646 0.0
C1651 C 0.84418 0.78403 0.59797 0.0
C1652 C 0.86951 0.85638 0.59962 0.0
C1653 C 0.81358 0.7104 0.63614 0.0
C1654 C 0.82075 0.72785 0.62639 0.0
C1655 C 0.84979 0.7823 0.63382 0.0
C1656 C 0.8523 0.81995 0.60086 0.0
C1657 C 0.85001 0.80121 0.60847 0.0
C1658 C 0.83801 0.74549 0.63172 0.0
C1659 C 0.84346 0.76496 0.62342 0.0
H1660 H 0.82971 0.83547 0.57188 0.0
H1661 H 0.82652 0.80491 0.58383 0.0
H1662 H 0.85724 0.81297 0.63499 0.0
H1663 H 0.84913 0.72755 0.66795 0.0
H1664 H 0.86221 0.75789 0.65061 0.0
C1665 C 0.03246 0.82912 0.62489 0.0
C1666 C 0.03378 0.84458 0.61445 0.0
C1667 C 0.01447 0.81515 0.63214 0.0
C1668 C 0.96069 0.79219 0.62607 0.0
H1669 H 0.95937 0.77212 0.67254 0.0
C1670 C 0.8887 0.72744 0.65395 0.0
C1671 C 0.89088 0.71213 0.66137 0.0
C1672 C 0.90533 0.74605 0.65055 0.0
C1673 C 0.95948 0.77753 0.65953 0.0
H1674 H 0.01714 0.85754 0.60359 0.0
H1675 H 0.98558 0.83309 0.61636 0.0
H1676 H 0.99005 0.80003 0.66179 0.0
H1677 H 0.91204 0.70439 0.67155 0.0
H1678 H 0.94101 0.73669 0.66566 0.0
H1679 H 0.93029 0.76933 0.62361 0.0
C1680 C 0.99855 0.83177 0.61882 0.0
C1681 C 0.97707 0.79351 0.65336 0.0
C1682 C 0.01664 0.84585 0.61161 0.0
C1683 C 0.90992 0.716 0.66596 0.0
C1684 C 0.92651 0.73457 0.66265 0.0
C1685 C 0.94309 0.77618 0.63224 0.0
C1686 C 0.99726 0.81623 0.62916 0.0
C1687 C 0.97802 0.80074 0.6364 0.0
C1688 C 0.92448 0.74968 0.65451 0.0
C1689 C 0.94239 0.76835 0.6489 0.0
H1690 H 0.04543 0.82786 0.62756 0.0
H1691 H 0.01398 0.80324 0.63984 0.0
H1692 H 0.96094 0.79727 0.6129 0.0
H1693 H 0.87431 0.72461 0.64972 0.0
H1694 H 0.90322 0.75738 0.64435 0.0
C1695 C 0.20783 0.26816 0.64728 0.0
C1696 C 0.18996 0.25646 0.63802 0.0
C1697 C 0.22022 0.26051 0.65127 0.0
C1698 C 0.23314 0.22402 0.63489 0.0
H1699 H 0.26211 0.23477 0.67872 0.0
C1700 C 0.30271 0.21721 0.64135 0.0
C1701 C 0.30408 0.20686 0.65579 0.0
C1702 C 0.28799 0.22238 0.64044 0.0
C1703 C 0.254 0.23153 0.66647 0.0
H1704 H 0.17073 0.22714 0.62645 0.0
H1705 H 0.19255 0.21393 0.63317 0.0
H1706 H 0.23692 0.24457 0.67539 0.0
H1707 H 0.29124 0.19436 0.68089 0.0
H1708 H 0.26561 0.20369 0.67934 0.0
H1709 H 0.25036 0.21125 0.62587 0.0
C1710 C 0.197 0.2291 0.63719 0.0
C1711 C 0.2397 0.23725 0.66452 0.0
C1712 C 0.18454 0.2367 0.6333 0.0
C1713 C 0.29065 0.20232 0.66957 0.0
C1714 C 0.27599 0.20768 0.66871 0.0
C1715 C 0.24753 0.21849 0.63678 0.0
C1716 C 0.21511 0.24103 0.64599 0.0
C1717 C 0.22925 0.23371 0.64865 0.0
C1718 C 0.27433 0.21749 0.654 0.0
C1719 C 0.25829 0.22239 0.65251 0.0
H1720 H 0.21268 0.28353 0.65088 0.0
H1721 H 0.23419 0.27016 0.65785 0.0
H1722 H 0.22549 0.22126 0.62245 0.0
H1723 H 0.31276 0.221 0.63049 0.0
H1724 H 0.28727 0.23022 0.62907 0.0
C1725 C 0.87885 0.01495 0.60336 0.0
C1726 C 0.86272 0.9981 0.59548 0.0
C1727 C 0.87652 0.03035 0.6106 0.0
C1728 C 0.83822 0.04015 0.62824 0.0
H1729 H 0.87895 0.09585 0.62466 0.0
C1730 C 0.82724 0.10194 0.65879 0.0
C1731 C 0.84316 0.11635 0.66885 0.0
C1732 C 0.82985 0.08916 0.64745 0.0
C1733 C 0.8675 0.08035 0.62585 0.0
H1734 H 0.83162 0.98459 0.5886 0.0
H1735 H 0.82754 0.01134 0.60127 0.0
H1736 H 0.88299 0.07004 0.60961 0.0
H1737 H 0.87424 0.12908 0.67498 0.0
H1738 H 0.87905 0.10699 0.65486 0.0
H1739 H 0.82283 0.05028 0.64462 0.0
C1740 C 0.84193 0.01251 0.60212 0.0
C1741 C 0.86982 0.06556 0.61725 0.0
C1742 C 0.84425 0.99712 0.59491 0.0
C1743 C 0.86191 0.11836 0.66697 0.0
C1744 C 0.86459 0.10568 0.6555 0.0
C1745 C 0.83589 0.05489 0.63678 0.0
C1746 C 0.85801 0.02929 0.61014 0.0
C1747 C 0.85528 0.04524 0.6185 0.0
C1748 C 0.84844 0.09052 0.646 0.0
C1749 C 0.85055 0.07516 0.63582 0.0
H1750 H 0.89324 0.01611 0.60416 0.0
H1751 H 0.88915 0.0429 0.6169 0.0
H1752 H 0.82687 0.02466 0.62974 0.0
H1753 H 0.81257 0.09995 0.66032 0.0
H1754 H 0.81718 0.07791 0.64012 0.0
C1755 C 0.50471 0.33194 0.75088 0.0
C1756 C 0.52205 0.33068 0.75105 0.0
C1757 C 0.48736 0.31679 0.74312 0.0
C1758 C 0.46267 0.26439 0.72639 0.0
H1759 H 0.43437 0.28245 0.69698 0.0
C1760 C 0.40348 0.2138 0.67462 0.0
C1761 C 0.38736 0.21678 0.67215 0.0
C1762 C 0.41885 0.22622 0.68617 0.0
C1763 C 0.44186 0.27707 0.70535 0.0
H1764 H 0.53464 0.3123 0.74355 0.0
H1765 H 0.50436 0.28592 0.72974 0.0
H1766 H 0.46296 0.30671 0.71377 0.0
H1767 H 0.37425 0.2346 0.67962 0.0
H1768 H 0.40085 0.25617 0.69997 0.0
H1769 H 0.44162 0.23469 0.71762 0.0
C1770 C 0.50411 0.2985 0.73584 0.0
C1771 C 0.4583 0.29102 0.715 0.0
C1772 C 0.52148 0.31364 0.7437 0.0
C1773 C 0.3865 0.23196 0.68156 0.0
C1774 C 0.40186 0.24445 0.69298 0.0
C1775 C 0.44619 0.25038 0.71666 0.0
C1776 C 0.48693 0.30005 0.73524 0.0
C1777 C 0.46896 0.28489 0.7256 0.0
C1778 C 0.41843 0.242 0.69517 0.0
C1779 C 0.43561 0.25658 0.706 0.0
H1780 H 0.50456 0.34466 0.75678 0.0
H1781 H 0.47427 0.31825 0.74321 0.0
H1782 H 0.47041 0.25915 0.73461 0.0
H1783 H 0.40453 0.20239 0.66713 0.0
H1784 H 0.43147 0.22406 0.68739 0.0
C1785 C 0.61925 0.09711 0.70005 0.0
C1786 C 0.60737 0.07927 0.70904 0.0
C1787 C 0.63882 0.10287 0.69584 0.0
C1788 C 0.67294 0.08248 0.69141 0.0
H1789 H 0.71405 0.13812 0.69563 0.0
C1790 C 0.75609 0.10798 0.69524 0.0
C1791 C 0.76933 0.125 0.68587 0.0
C1792 C 0.73607 0.10223 0.69617 0.0
C1793 C 0.70269 0.12255 0.69417 0.0
H1794 H 0.60686 0.05338 0.72035 0.0
H1795 H 0.64097 0.06377 0.71368 0.0
H1796 H 0.67972 0.12869 0.70117 0.0
H1797 H 0.77177 0.1492 0.66997 0.0
H1798 H 0.73675 0.13916 0.67175 0.0
H1799 H 0.69604 0.07633 0.68492 0.0
C1800 C 0.63514 0.0732 0.70959 0.0
C1801 C 0.68299 0.11713 0.69732 0.0
C1802 C 0.6156 0.06739 0.7137 0.0
C1803 C 0.76197 0.13593 0.67721 0.0
C1804 C 0.74195 0.1303 0.67833 0.0
C1805 C 0.69263 0.08789 0.68842 0.0
C1806 C 0.64701 0.09096 0.70053 0.0
C1807 C 0.66787 0.09698 0.6962 0.0
C1808 C 0.72881 0.11347 0.68794 0.0
C1809 C 0.70776 0.10794 0.68995 0.0
H1810 H 0.61348 0.10671 0.69636 0.0
H1811 H 0.64745 0.11657 0.68872 0.0
H1812 H 0.66168 0.06689 0.69001 0.0
H1813 H 0.76124 0.09921 0.70205 0.0
H1814 H 0.72636 0.08929 0.7038 0.0
C1815 C 0.82182 0.48201 0.73105 0.0
C1816 C 0.83327 0.48384 0.74593 0.0
C1817 C 0.818 0.49732 0.72666 0.0
C1818 C 0.84059 0.55164 0.73241 0.0
H1819 H 0.79261 0.5438 0.70989 0.0
C1820 C 0.84033 0.61845 0.70205 0.0
C1821 C 0.8327 0.615 0.68499 0.0
C1822 C 0.83566 0.6024 0.7131 0.0
C1823 C 0.80613 0.54627 0.71614 0.0
H1824 H 0.84834 0.50253 0.76859 0.0
H1825 H 0.8417 0.52916 0.76095 0.0
H1826 H 0.79355 0.5152 0.72215 0.0
H1827 H 0.81399 0.59232 0.66606 0.0
H1828 H 0.80594 0.56427 0.68506 0.0
H1829 H 0.85359 0.58236 0.72577 0.0
C1830 C 0.83603 0.5161 0.75245 0.0
C1831 C 0.80666 0.52986 0.72317 0.0
C1832 C 0.83984 0.50083 0.75683 0.0
C1833 C 0.81951 0.59535 0.6794 0.0
C1834 C 0.81497 0.57926 0.69033 0.0
C1835 C 0.84012 0.56797 0.72533 0.0
C1836 C 0.82553 0.5148 0.73707 0.0
C1837 C 0.82402 0.53231 0.73113 0.0
C1838 C 0.82377 0.58252 0.70704 0.0
C1839 C 0.82301 0.56551 0.7168 0.0
H1840 H 0.81665 0.4692 0.72231 0.0
H1841 H 0.81001 0.49589 0.71464 0.0
H1842 H 0.85432 0.55407 0.73817 0.0
H1843 H 0.85124 0.63342 0.70633 0.0
H1844 H 0.84246 0.60555 0.72597 0.0
C1845 C 0.48218 0.95813 0.19198 0.0
C1846 C 0.48628 0.97411 0.20349 0.0
C1847 C 0.48707 0.96154 0.17431 0.0
C1848 C 0.51685 0.00209 0.14272 0.0
H1849 H 0.47883 0.9645 0.10906 0.0
C1850 C 0.50838 0.02067 0.07147 0.0
C1851 C 0.5034 0.00583 0.05853 0.0
C1852 C 0.51062 0.0169 0.0889 0.0
C1853 C 0.4898 0.97497 0.11827 0.0
H1854 H 0.49932 0.00634 0.20534 0.0
H1855 H 0.50691 0.01215 0.17451 0.0
H1856 H 0.47362 0.95748 0.14005 0.0
H1857 H 0.49714 0.97562 0.05359 0.0
H1858 H 0.50134 0.96903 0.08398 0.0
H1859 H 0.53244 0.02001 0.12078 0.0
C1860 C 0.50029 0.99699 0.17917 0.0
C1861 C 0.48683 0.97094 0.13609 0.0
C1862 C 0.49558 0.9936 0.19686 0.0
C1863 C 0.50168 0.98753 0.06318 0.0
C1864 C 0.50371 0.98365 0.08063 0.0
C1865 C 0.5197 0.00621 0.12488 0.0
C1866 C 0.49603 0.98101 0.16762 0.0
C1867 C 0.50014 0.98458 0.14859 0.0
C1868 C 0.50758 0.99808 0.09375 0.0
C1869 C 0.50605 0.99281 0.11249 0.0
H1870 H 0.47488 0.94289 0.19653 0.0
H1871 H 0.48378 0.94887 0.16589 0.0
H1872 H 0.52765 0.01275 0.15192 0.0
H1873 H 0.50955 0.03483 0.06824 0.0
H1874 H 0.51342 0.02824 0.09873 0.0
C1875 C 0.14392 0.59656 0.14688 0.0
C1876 C 0.14017 0.59446 0.16494 0.0
C1877 C 0.12945 0.59489 0.13505 0.0
C1878 C 0.07597 0.57019 0.1301 0.0
H1879 H 0.08698 0.6047 0.09035 0.0
C1880 C 0.01647 0.54854 0.07764 0.0
C1881 C 0.02318 0.54969 0.06043 0.0
C1882 C 0.02982 0.55899 0.09126 0.0
C1883 C 0.08366 0.59483 0.1013 0.0
H1884 H 0.11841 0.58987 0.18465 0.0
H1885 H 0.09302 0.5863 0.16393 0.0
H1886 H 0.11282 0.61275 0.11228 0.0
H1887 H 0.04864 0.56471 0.04382 0.0
H1888 H 0.07204 0.58163 0.06749 0.0
H1889 H 0.0474 0.55155 0.11881 0.0
C1890 C 0.10717 0.58918 0.15899 0.0
C1891 C 0.09846 0.59951 0.1139 0.0
C1892 C 0.1217 0.59107 0.17084 0.0
C1893 C 0.04309 0.56321 0.05692 0.0
C1894 C 0.05653 0.57318 0.07057 0.0
C1895 C 0.06131 0.56534 0.11741 0.0
C1896 C 0.11082 0.59087 0.14096 0.0
C1897 C 0.09482 0.58707 0.1283 0.0
C1898 C 0.05024 0.57049 0.08802 0.0
C1899 C 0.06502 0.57739 0.10265 0.0
H1900 H 0.15784 0.59893 0.14179 0.0
H1901 H 0.1326 0.59601 0.1212 0.0
H1902 H 0.07281 0.56018 0.14094 0.0
H1903 H 0.00109 0.53853 0.08077 0.0
H1904 H 0.02426 0.55709 0.10444 0.0
C1905 C 0.46741 0.57062 0.17444 0.0
C1906 C 0.47648 0.56865 0.18962 0.0
C1907 C 0.47296 0.56743 0.15787 0.0
C1908 C 0.49692 0.5418 0.13673 0.0
H1909 H 0.49751 0.57131 0.09587 0.0
C1910 C 0.51875 0.5242 0.07098 0.0
C1911 C 0.50498 0.52006 0.05747 0.0
C1912 C 0.5186 0.53444 0.08607 0.0
C1913 C 0.49742 0.56298 0.10719 0.0
H1914 H 0.49871 0.5619 0.19908 0.0
H1915 H 0.50889 0.55723 0.17039 0.0
H1916 H 0.49044 0.58047 0.12458 0.0
H1917 H 0.48062 0.5238 0.04887 0.0
H1918 H 0.48052 0.54205 0.07511 0.0
H1919 H 0.50367 0.52422 0.11947 0.0
C1920 C 0.49719 0.56083 0.17123 0.0
C1921 C 0.49327 0.56814 0.12362 0.0
C1922 C 0.49152 0.56382 0.18775 0.0
C1923 C 0.49187 0.52744 0.05882 0.0
C1924 C 0.49169 0.53772 0.07394 0.0
C1925 C 0.50119 0.53678 0.12041 0.0
C1926 C 0.4878 0.56229 0.15607 0.0
C1927 C 0.49287 0.55752 0.13859 0.0
C1928 C 0.50448 0.54052 0.08804 0.0
C1929 C 0.50141 0.54722 0.10543 0.0
H1930 H 0.45598 0.57461 0.17533 0.0
H1931 H 0.46527 0.56853 0.14651 0.0
H1932 H 0.49627 0.53294 0.14783 0.0
H1933 H 0.52891 0.5185 0.07028 0.0
H1934 H 0.52886 0.53667 0.09659 0.0
C1935 C 0.90697 0.45454 0.83764 0.0
C1936 C 0.89943 0.4357 0.82951 0.0
C1937 C 0.91774 0.45894 0.85326 0.0
C1938 C 0.92643 0.43769 0.89216 0.0
H1939 H 0.97712 0.48688 0.89357 0.0
C1940 C 0.99895 0.48813 0.94022 0.0
C1941 C 0.98946 0.49042 0.95487 0.0
C1942 C 0.98795 0.47744 0.92548 0.0
C1943 C 0.96313 0.47296 0.89333 0.0
H1944 H 0.89666 0.40647 0.8316 0.0
H1945 H 0.91525 0.41409 0.85926 0.0
H1946 H 0.95749 0.47671 0.86666 0.0
H1947 H 0.96116 0.48348 0.96556 0.0
H1948 H 0.94182 0.46406 0.94017 0.0
H1949 H 0.93186 0.43436 0.91911 0.0
C1950 C 0.91292 0.42545 0.85339 0.0
C1951 C 0.95181 0.46726 0.87799 0.0
C1952 C 0.9024 0.42114 0.83758 0.0
C1953 C 0.96874 0.48103 0.95485 0.0
C1954 C 0.9577 0.47015 0.94018 0.0
C1955 C 0.93765 0.44356 0.90766 0.0
C1956 C 0.92096 0.44451 0.86121 0.0
C1957 C 0.93326 0.44972 0.8773 0.0
C1958 C 0.96727 0.46892 0.9251 0.0
C1959 C 0.95606 0.46135 0.90841 0.0
H1960 H 0.90505 0.46609 0.83164 0.0
H1961 H 0.92366 0.4737 0.85911 0.0
H1962 H 0.91214 0.4241 0.89194 0.0
H1963 H 0.01495 0.49552 0.93982 0.0
H1964 H 0.99569 0.47664 0.91406 0.0
C1965 C 0.53187 0.41194 0.84001 0.0
C1966 C 0.54956 0.41224 0.84427 0.0
C1967 C 0.52066 0.41435 0.85302 0.0
C1968 C 0.51272 0.41199 0.90084 0.0
H1969 H 0.4958 0.45051 0.89217 0.0
C1970 C 0.49793 0.45375 0.95563 0.0
C1971 C 0.48411 0.46006 0.95315 0.0
C1972 C 0.50151 0.44339 0.94246 0.0
C1973 C 0.49995 0.43934 0.89473 0.0
H1974 H 0.56924 0.41526 0.86566 0.0
H1975 H 0.54965 0.41933 0.8883 0.0
H1976 H 0.51087 0.44132 0.86881 0.0
H1977 H 0.46288 0.46021 0.93499 0.0
H1978 H 0.4688 0.44165 0.91189 0.0
H1979 H 0.50215 0.41032 0.92689 0.0
C1980 C 0.54432 0.41698 0.87491 0.0
C1981 C 0.50868 0.43413 0.88132 0.0
C1982 C 0.55558 0.41468 0.86191 0.0
C1983 C 0.4734 0.45523 0.93735 0.0
C1984 C 0.47693 0.44477 0.9241 0.0
C1985 C 0.50386 0.41711 0.91424 0.0
C1986 C 0.52681 0.41699 0.8706 0.0
C1987 C 0.5156 0.42077 0.88433 0.0
C1988 C 0.49144 0.43921 0.92634 0.0
C1989 C 0.49783 0.43125 0.91147 0.0
H1990 H 0.52656 0.40969 0.82663 0.0
H1991 H 0.50712 0.41405 0.8493 0.0
H1992 H 0.51759 0.40138 0.90349 0.0
H1993 H 0.50714 0.45817 0.96727 0.0
H1994 H 0.51316 0.4399 0.94452 0.0
C1995 C 0.48888 0.0052 0.80484 0.0
C1996 C 0.49418 0.02433 0.79877 0.0
C1997 C 0.48449 0.0005 0.82239 0.0
C1998 C 0.47191 0.01647 0.86401 0.0
H1999 H 0.49472 0.98664 0.88406 0.0
C2000 C 0.48063 0.00727 0.93865 0.0
C2001 C 0.47978 0.98941 0.94364 0.0
C2002 C 0.4784 0.01056 0.92101 0.0
C2003 C 0.4879 0.99466 0.87866 0.0
H2004 H 0.49837 0.05332 0.80646 0.0
H2005 H 0.49126 0.04525 0.83733 0.0
H2006 H 0.49922 0.99466 0.85335 0.0
H2007 H 0.47375 0.96021 0.93466 0.0
H2008 H 0.46907 0.96556 0.90415 0.0
H2009 H 0.46097 0.01672 0.88968 0.0
C2010 C 0.49028 0.03383 0.82837 0.0
C2011 C 0.49053 0.9993 0.86099 0.0
C2012 C 0.49461 0.03853 0.81072 0.0
C2013 C 0.47468 0.97418 0.9311 0.0
C2014 C 0.47219 0.97734 0.91361 0.0
C2015 C 0.46929 0.01182 0.88182 0.0
C2016 C 0.48546 0.01483 0.83445 0.0
C2017 C 0.48249 0.01014 0.85338 0.0
C2018 C 0.47512 0.99595 0.90821 0.0
C2019 C 0.47715 0.00071 0.8893 0.0
H2020 H 0.4886 0.99393 0.79612 0.0
H2021 H 0.48054 0.98562 0.82656 0.0
H2022 H 0.46546 0.02478 0.85852 0.0
H2023 H 0.48468 0.01931 0.94808 0.0
H2024 H 0.48071 0.02504 0.91729 0.0
C2025 C 0.15529 0.32774 0.52629 0.0
C2026 C 0.16194 0.31592 0.53438 0.0
C2027 C 0.15913 0.33262 0.50868 0.0
C2028 C 0.17003 0.31571 0.46737 0.0
H2029 H 0.18431 0.36894 0.45224 0.0
C2030 C 0.17799 0.33566 0.39414 0.0
C2031 C 0.16775 0.34542 0.38897 0.0
C2032 C 0.18143 0.3341 0.41188 0.0
C2033 C 0.18029 0.35399 0.45623 0.0
H2034 H 0.17774 0.29982 0.53026 0.0
H2035 H 0.18444 0.30834 0.4994 0.0
H2036 H 0.18168 0.36173 0.48336 0.0
H2037 H 0.15433 0.36245 0.39844 0.0
H2038 H 0.16024 0.35971 0.42909 0.0
H2039 H 0.16798 0.30778 0.44024 0.0
C2040 C 0.17625 0.31382 0.50673 0.0
C2041 C 0.17876 0.34986 0.47406 0.0
C2042 C 0.17253 0.30906 0.52442 0.0
C2043 C 0.16215 0.35467 0.40189 0.0
C2044 C 0.16567 0.35322 0.41954 0.0
C2045 C 0.17148 0.31983 0.44951 0.0
C2046 C 0.16963 0.32571 0.49868 0.0
C2047 C 0.17318 0.33056 0.47983 0.0
C2048 C 0.17489 0.34249 0.42481 0.0
C2049 C 0.17617 0.3389 0.44371 0.0
H2050 H 0.14728 0.33343 0.53364 0.0
H2051 H 0.15361 0.34159 0.50281 0.0
H2052 H 0.16557 0.30066 0.47139 0.0
H2053 H 0.18263 0.32853 0.38454 0.0
H2054 H 0.18884 0.32596 0.41549 0.0
C2055 C 0.78613 0.91997 0.50922 0.0
C2056 C 0.8049 0.92487 0.50289 0.0
C2057 C 0.77119 0.91788 0.49781 0.0
C2058 C 0.7611 0.92966 0.45367 0.0
H2059 H 0.71123 0.88022 0.45819 0.0
C2060 C 0.70426 0.89406 0.39752 0.0
C2061 C 0.68458 0.87998 0.40135 0.0
C2062 C 0.71807 0.90381 0.41096 0.0
C2063 C 0.72479 0.89439 0.45693 0.0
H2064 H 0.82272 0.93188 0.47953 0.0
H2065 H 0.79665 0.92845 0.45966 0.0
H2066 H 0.73733 0.88889 0.47958 0.0
H2067 H 0.66325 0.86741 0.42221 0.0
H2068 H 0.68703 0.88548 0.44562 0.0
H2069 H 0.74857 0.93513 0.43094 0.0
C2070 C 0.79359 0.92633 0.4735 0.0
C2071 C 0.73985 0.89928 0.46919 0.0
C2072 C 0.80852 0.92828 0.48491 0.0
C2073 C 0.67843 0.87788 0.41882 0.0
C2074 C 0.69214 0.88807 0.43226 0.0
C2075 C 0.74589 0.9249 0.44149 0.0
C2076 C 0.77468 0.9208 0.47981 0.0
C2077 C 0.75828 0.91676 0.46754 0.0
C2078 C 0.71238 0.90023 0.42856 0.0
C2079 C 0.72765 0.90697 0.44275 0.0
H2080 H 0.78294 0.91773 0.52303 0.0
H2081 H 0.75683 0.91387 0.50307 0.0
H2082 H 0.7751 0.94335 0.45218 0.0
H2083 H 0.70938 0.89624 0.38423 0.0
H2084 H 0.73343 0.91286 0.40752 0.0
C2085 C 0.15231 0.89338 0.51071 0.0
C2086 C 0.13853 0.89957 0.5143 0.0
C2087 C 0.15765 0.89218 0.49354 0.0
C2088 C 0.13927 0.88521 0.44847 0.0
H2089 H 0.19307 0.89903 0.43749 0.0
C2090 C 0.15663 0.86287 0.38214 0.0
C2091 C 0.16699 0.85245 0.38363 0.0
C2092 C 0.15637 0.87463 0.39607 0.0
C2093 C 0.17799 0.89515 0.44032 0.0
H2094 H 0.11979 0.90965 0.50255 0.0
H2095 H 0.12893 0.90724 0.47248 0.0
H2096 H 0.18573 0.90759 0.46622 0.0
H2097 H 0.18614 0.84702 0.40039 0.0
H2098 H 0.18563 0.86728 0.42473 0.0
H2099 H 0.13133 0.872 0.4229 0.0
C2100 C 0.13553 0.90327 0.48302 0.0
C2101 C 0.17378 0.90001 0.45679 0.0
C2102 C 0.13023 0.90455 0.50024 0.0
C2103 C 0.17816 0.85504 0.39885 0.0
C2104 C 0.17792 0.86674 0.41277 0.0
C2105 C 0.14347 0.8803 0.43202 0.0
C2106 C 0.1493 0.89704 0.47949 0.0
C2107 C 0.15426 0.89454 0.46124 0.0
C2108 C 0.16638 0.87603 0.41182 0.0
C2109 C 0.16278 0.88466 0.42793 0.0
H2110 H 0.15871 0.88904 0.52115 0.0
H2111 H 0.16796 0.88689 0.49127 0.0
H2112 H 0.12407 0.88066 0.45151 0.0
H2113 H 0.14739 0.86063 0.37081 0.0
H2114 H 0.1475 0.88174 0.39484 0.0
C2115 C 0.56981 0.79138 0.17433 0.0
C2116 C 0.56285 0.77258 0.16627 0.0
C2117 C 0.57938 0.79568 0.19057 0.0
C2118 C 0.58656 0.77433 0.23043 0.0
H2119 H 0.63677 0.82399 0.23289 0.0
C2120 C 0.65823 0.82486 0.27936 0.0
C2121 C 0.64848 0.82627 0.2942 0.0
C2122 C 0.64743 0.81439 0.26448 0.0
C2123 C 0.62291 0.80994 0.23238 0.0
H2124 H 0.55971 0.74327 0.16921 0.0
H2125 H 0.57635 0.7508 0.19783 0.0
H2126 H 0.61795 0.81391 0.20561 0.0
H2127 H 0.61995 0.81788 0.3052 0.0
H2128 H 0.60095 0.79909 0.27938 0.0
H2129 H 0.59143 0.77068 0.25745 0.0
C2130 C 0.57443 0.76217 0.19147 0.0
C2131 C 0.61203 0.80431 0.21681 0.0
C2132 C 0.56505 0.75793 0.17508 0.0
C2133 C 0.62773 0.81618 0.29424 0.0
C2134 C 0.61689 0.80564 0.27936 0.0
C2135 C 0.59738 0.78012 0.24616 0.0
C2136 C 0.58204 0.78124 0.19918 0.0
C2137 C 0.59368 0.78656 0.2157 0.0
C2138 C 0.62669 0.80532 0.2641 0.0
C2139 C 0.61566 0.79805 0.24729 0.0
H2140 H 0.56849 0.80302 0.1678 0.0
H2141 H 0.58495 0.81045 0.1963 0.0
H2142 H 0.57242 0.76058 0.2299 0.0
H2143 H 0.67425 0.83274 0.27896 0.0
H2144 H 0.65537 0.81423 0.25296 0.0
C2145 C 0.21817 0.74276 0.1985 0.0
C2146 C 0.21553 0.7428 0.18029 0.0
C2147 C 0.20507 0.74424 0.21 0.0
C2148 C 0.17287 0.76532 0.21304 0.0
H2149 H 0.15218 0.73279 0.25422 0.0
C2150 C 0.13323 0.7865 0.26395 0.0
C2151 C 0.13929 0.7866 0.28129 0.0
C2152 C 0.13677 0.77591 0.25087 0.0
C2153 C 0.15794 0.74212 0.24287 0.0
H2154 H 0.19642 0.74368 0.16004 0.0
H2155 H 0.17412 0.74709 0.18016 0.0
H2156 H 0.17092 0.72523 0.23302 0.0
H2157 H 0.15159 0.77377 0.29872 0.0
H2158 H 0.1589 0.75645 0.27604 0.0
H2159 H 0.16125 0.78307 0.22319 0.0
C2160 C 0.18636 0.74587 0.18545 0.0
C2161 C 0.1686 0.73771 0.23069 0.0
C2162 C 0.19927 0.74411 0.17394 0.0
C2163 C 0.14699 0.7742 0.28551 0.0
C2164 C 0.15103 0.76406 0.27242 0.0
C2165 C 0.16256 0.76997 0.22533 0.0
C2166 C 0.18918 0.74607 0.20359 0.0
C2167 C 0.1764 0.74946 0.21579 0.0
C2168 C 0.14684 0.76555 0.25478 0.0
C2169 C 0.15523 0.75866 0.2406 0.0
H2170 H 0.23063 0.74208 0.20393 0.0
H2171 H 0.20775 0.74463 0.22394 0.0
H2172 H 0.1789 0.77477 0.20176 0.0
H2173 H 0.1269 0.79562 0.26026 0.0
H2174 H 0.13263 0.77683 0.23755 0.0
C2175 C 0.16699 0.3365 0.13502 0.0
C2176 C 0.16267 0.35079 0.12836 0.0
C2177 C 0.16399 0.33137 0.15263 0.0
C2178 C 0.1392 0.33468 0.19298 0.0
H2179 H 0.17957 0.32725 0.21547 0.0
C2180 C 0.15014 0.33257 0.26843 0.0
C2181 C 0.15615 0.31916 0.27411 0.0
C2182 C 0.14769 0.33456 0.25054 0.0
C2183 C 0.16801 0.32901 0.20935 0.0
H2184 H 0.15115 0.37037 0.13505 0.0
H2185 H 0.14668 0.362 0.16591 0.0
H2186 H 0.18213 0.33475 0.1846 0.0
H2187 H 0.16241 0.29601 0.2657 0.0
H2188 H 0.15787 0.29929 0.23472 0.0
H2189 H 0.12545 0.32941 0.21813 0.0
C2190 C 0.15211 0.35453 0.15743 0.0
C2191 C 0.16945 0.33328 0.19161 0.0
C2192 C 0.15496 0.35956 0.13976 0.0
C2193 C 0.15808 0.3067 0.26173 0.0
C2194 C 0.15557 0.30863 0.24396 0.0
C2195 C 0.13784 0.33053 0.21087 0.0
C2196 C 0.1568 0.34054 0.16413 0.0
C2197 C 0.15502 0.33603 0.18312 0.0
C2198 C 0.15117 0.32313 0.23812 0.0
C2199 C 0.15217 0.32748 0.21919 0.0
H2200 H 0.17312 0.32956 0.12674 0.0
H2201 H 0.16745 0.32027 0.15723 0.0
H2202 H 0.12774 0.33656 0.18685 0.0
H2203 H 0.1486 0.34242 0.27766 0.0
H2204 H 0.14428 0.34586 0.24641 0.0
C2205 C 0.8235 0.6322 0.86198 0.0
C2206 C 0.82333 0.64684 0.87295 0.0
C2207 C 0.8271 0.63553 0.84411 0.0
C2208 C 0.84676 0.6758 0.81099 0.0
H2209 H 0.81485 0.63204 0.77882 0.0
C2210 C 0.83325 0.68606 0.73864 0.0
C2211 C 0.8322 0.67199 0.72626 0.0
C2212 C 0.83582 0.68383 0.75638 0.0
C2213 C 0.82413 0.64433 0.78762 0.0
H2214 H 0.82729 0.67671 0.87366 0.0
H2215 H 0.8328 0.6822 0.84247 0.0
H2216 H 0.81173 0.62628 0.81012 0.0
H2217 H 0.83323 0.64476 0.7227 0.0
H2218 H 0.83793 0.64086 0.7537 0.0
H2219 H 0.85857 0.69398 0.78836 0.0
C2220 C 0.83049 0.66825 0.84771 0.0
C2221 C 0.82235 0.64104 0.8056 0.0
C2222 C 0.82701 0.66496 0.86559 0.0
C2223 C 0.83451 0.65606 0.73189 0.0
C2224 C 0.83688 0.65368 0.74966 0.0
C2225 C 0.84842 0.67912 0.79299 0.0
C2226 C 0.83052 0.65355 0.83671 0.0
C2227 C 0.83345 0.65679 0.81754 0.0
C2228 C 0.83712 0.66731 0.76214 0.0
C2229 C 0.83694 0.66347 0.78112 0.0
H2230 H 0.82054 0.61798 0.86714 0.0
H2231 H 0.82722 0.62395 0.8361 0.0
H2232 H 0.85583 0.68818 0.81977 0.0
H2233 H 0.83142 0.69845 0.73466 0.0
H2234 H 0.83576 0.69447 0.76566 0.0
C2235 C 0.4568 0.25787 0.83458 0.0
C2236 C 0.47406 0.25749 0.83011 0.0
C2237 C 0.44293 0.25538 0.82174 0.0
C2238 C 0.43549 0.25586 0.7738 0.0
H2239 H 0.38094 0.21726 0.78429 0.0
C2240 C 0.37736 0.20972 0.7213 0.0
C2241 C 0.35747 0.20403 0.72387 0.0
C2242 C 0.39165 0.22088 0.73401 0.0
C2243 C 0.396 0.22843 0.78123 0.0
H2244 H 0.49039 0.25454 0.80852 0.0
H2245 H 0.46621 0.25019 0.78616 0.0
H2246 H 0.40609 0.228 0.80713 0.0
H2247 H 0.33679 0.20548 0.74172 0.0
H2248 H 0.36194 0.22547 0.764 0.0
H2249 H 0.42537 0.25582 0.74773 0.0
C2250 C 0.46352 0.25268 0.79958 0.0
C2251 C 0.41046 0.23456 0.79434 0.0
C2252 C 0.47737 0.25513 0.81242 0.0
C2253 C 0.35213 0.21007 0.73929 0.0
C2254 C 0.36649 0.22135 0.75205 0.0
C2255 C 0.42099 0.24977 0.76069 0.0
C2256 C 0.446 0.2525 0.80412 0.0
C2257 C 0.43045 0.24796 0.79068 0.0
C2258 C 0.38636 0.2265 0.7497 0.0
C2259 C 0.40116 0.23557 0.76414 0.0
H2260 H 0.45398 0.26008 0.84803 0.0
H2261 H 0.42972 0.25561 0.82564 0.0
H2262 H 0.4507 0.26648 0.77062 0.0
H2263 H 0.38168 0.20436 0.70997 0.0
H2264 H 0.40663 0.22396 0.732 0.0
C2265 C 0.81431 0.24054 0.84668 0.0
C2266 C 0.80381 0.2236 0.85714 0.0
C2267 C 0.82002 0.23869 0.82976 0.0
C2268 C 0.8302 0.20499 0.80314 0.0
H2269 H 0.82598 0.23352 0.76352 0.0
C2270 C 0.82737 0.19495 0.72477 0.0
C2271 C 0.84178 0.18928 0.72316 0.0
C2272 C 0.82595 0.20398 0.74023 0.0
C2273 C 0.82731 0.22551 0.77447 0.0
H2274 H 0.79081 0.19139 0.85786 0.0
H2275 H 0.80043 0.18812 0.82833 0.0
H2276 H 0.81554 0.23833 0.79244 0.0
H2277 H 0.86689 0.1898 0.73574 0.0
H2278 H 0.86492 0.20615 0.76252 0.0
H2279 H 0.84122 0.19159 0.78532 0.0
C2280 C 0.80447 0.20288 0.83327 0.0
C2281 C 0.82144 0.22835 0.79105 0.0
C2282 C 0.79873 0.20473 0.85013 0.0
C2283 C 0.85573 0.19418 0.73666 0.0
C2284 C 0.85443 0.20333 0.75204 0.0
C2285 C 0.83608 0.2022 0.78668 0.0
C2286 C 0.81543 0.21986 0.82299 0.0
C2287 C 0.82252 0.21784 0.8055 0.0
C2288 C 0.83889 0.20736 0.75437 0.0
C2289 C 0.83453 0.21224 0.77208 0.0
H2290 H 0.81827 0.25528 0.85163 0.0
H2291 H 0.82849 0.25205 0.82219 0.0
H2292 H 0.83154 0.19692 0.81404 0.0
H2293 H 0.81604 0.1907 0.71478 0.0
H2294 H 0.81372 0.20673 0.74159 0.0
C2295 C 0.2356 0.11476 0.50225 0.0
C2296 C 0.22276 0.09547 0.49555 0.0
C2297 C 0.24544 0.11741 0.51816 0.0
C2298 C 0.24469 0.09444 0.5597 0.0
H2299 H 0.30094 0.13293 0.55987 0.0
C2300 C 0.31873 0.13479 0.60803 0.0
C2301 C 0.3111 0.14118 0.62161 0.0
C2302 C 0.30682 0.12421 0.59366 0.0
C2303 C 0.28533 0.12187 0.56003 0.0
H2304 H 0.20965 0.0638 0.50053 0.0
H2305 H 0.22679 0.0685 0.52866 0.0
H2306 H 0.28213 0.12484 0.53265 0.0
H2307 H 0.28518 0.14159 0.63091 0.0
H2308 H 0.26432 0.12307 0.60591 0.0
H2309 H 0.24788 0.09197 0.58729 0.0
C2310 C 0.22924 0.08151 0.52146 0.0
C2311 C 0.27452 0.11744 0.54446 0.0
C2312 C 0.21954 0.07885 0.50537 0.0
C2313 C 0.29114 0.13604 0.62099 0.0
C2314 C 0.27923 0.12553 0.6066 0.0
C2315 C 0.25551 0.09905 0.57539 0.0
C2316 C 0.24256 0.10084 0.52782 0.0
C2317 C 0.25405 0.10399 0.54418 0.0
C2318 C 0.28714 0.12013 0.59249 0.0
C2319 C 0.27591 0.11305 0.57574 0.0
H2320 H 0.23857 0.12787 0.49492 0.0
H2321 H 0.25546 0.13248 0.52287 0.0
H2322 H 0.22892 0.08401 0.55982 0.0
H2323 H 0.33419 0.13889 0.60812 0.0
H2324 H 0.31329 0.12012 0.58304 0.0
C2325 C 0.87469 0.08009 0.50737 0.0
C2326 C 0.89266 0.08103 0.51176 0.0
C2327 C 0.86365 0.08314 0.52012 0.0
C2328 C 0.85642 0.08339 0.56782 0.0
H2329 H 0.83955 0.12159 0.55739 0.0
C2330 C 0.84153 0.12677 0.62102 0.0
C2331 C 0.8275 0.13273 0.61818 0.0
C2332 C 0.84537 0.11631 0.60813 0.0
C2333 C 0.84369 0.11053 0.56044 0.0
H2334 H 0.91298 0.08587 0.53316 0.0
H2335 H 0.89359 0.09091 0.55538 0.0
H2336 H 0.85433 0.11128 0.53457 0.0
H2337 H 0.80639 0.13246 0.59963 0.0
H2338 H 0.81275 0.11368 0.57701 0.0
H2339 H 0.84602 0.08283 0.59375 0.0
C2340 C 0.88797 0.08762 0.54207 0.0
C2341 C 0.85226 0.10468 0.54735 0.0
C2342 C 0.8991 0.08474 0.52931 0.0
C2343 C 0.81703 0.12769 0.60224 0.0
C2344 C 0.82081 0.11711 0.58929 0.0
C2345 C 0.84769 0.0891 0.58088 0.0
C2346 C 0.87021 0.08702 0.5376 0.0
C2347 C 0.85916 0.09143 0.551 0.0
C2348 C 0.83537 0.11168 0.59195 0.0
C2349 C 0.8417 0.10316 0.57748 0.0
H2350 H 0.86904 0.07685 0.49408 0.0
H2351 H 0.84991 0.08239 0.51631 0.0
H2352 H 0.86129 0.07289 0.57095 0.0
H2353 H 0.85054 0.13136 0.6328 0.0
H2354 H 0.85706 0.11294 0.61051 0.0
C2355 C 0.83567 0.67592 0.47171 0.0
C2356 C 0.82983 0.68904 0.46495 0.0
C2357 C 0.83362 0.67137 0.48944 0.0
C2358 C 0.80846 0.67303 0.53002 0.0
H2359 H 0.85112 0.66903 0.55199 0.0
C2360 C 0.81873 0.66805 0.60539 0.0
C2361 C 0.82553 0.65502 0.61033 0.0
C2362 C 0.81679 0.67122 0.58766 0.0
C2363 C 0.83897 0.66989 0.54602 0.0
H2364 H 0.81676 0.70725 0.47164 0.0
H2365 H 0.8138 0.69979 0.50274 0.0
H2366 H 0.85307 0.67695 0.52122 0.0
H2367 H 0.83391 0.63385 0.6006 0.0
H2368 H 0.83032 0.63921 0.56992 0.0
H2369 H 0.79461 0.66624 0.55517 0.0
C2370 C 0.81973 0.69283 0.49422 0.0
C2371 C 0.84006 0.67439 0.52834 0.0
C2372 C 0.82168 0.69731 0.47642 0.0
C2373 C 0.82896 0.64423 0.59725 0.0
C2374 C 0.82699 0.64736 0.57966 0.0
C2375 C 0.80743 0.66862 0.54784 0.0
C2376 C 0.82586 0.67993 0.50098 0.0
C2377 C 0.82473 0.67577 0.52002 0.0
C2378 C 0.82159 0.66141 0.57464 0.0
C2379 C 0.82258 0.66673 0.55594 0.0
H2380 H 0.8422 0.66942 0.46336 0.0
H2381 H 0.83819 0.66111 0.49411 0.0
H2382 H 0.79633 0.67387 0.52401 0.0
H2383 H 0.81601 0.67661 0.61516 0.0
H2384 H 0.81257 0.68213 0.58416 0.0
loop_
_geom_bond_atom_site_label_1
_geom_bond_atom_site_label_2
_geom_bond_distance
_geom_bond_site_symmetry_2
_ccdc_geom_bond_type
P0 O11 1.490 . S
P0 C14 1.812 . S
P0 C20 1.803 . S
P0 C26 1.819 . S
H1 C15 0.941 . S
H2 C16 0.939 . S
H3 C18 0.940 . S
H4 C19 0.940 . S
H5 C21 0.939 . S
H6 C22 0.942 . S
H7 C24 0.940 . S
H8 C25 0.939 . S
H9 C27 0.941 . S
H10 C31 0.939 . S
O11 P0 1.490 . S
H12 C28 0.939 . S
H13 C30 0.940 . S
C14 P0 1.812 . S
C14 C15 1.389 . S
C14 C19 1.391 . S
C15 H1 0.941 . S
C15 C14 1.389 . S
C15 C16 1.397 . S
C16 H2 0.939 . S
C16 C15 1.397 . S
C16 C17 1.378 . S
C17 C16 1.378 . S
C17 C18 1.378 . S
C18 H3 0.940 . S
C18 C17 1.378 . S
C18 C19 1.396 . S
C19 H4 0.940 . S
C19 C14 1.391 . S
C19 C18 1.396 . S
C20 P0 1.803 . S
C20 C21 1.378 . S
C20 C25 1.400 . S
C21 H5 0.939 . S
C21 C20 1.378 . S
C21 C22 1.361 . S
C22 H6 0.942 . S
C22 C21 1.361 . S
C22 C23 1.369 . S
C23 C22 1.369 . S
C23 C24 1.404 . S
C24 H7 0.940 . S
C24 C23 1.404 . S
C24 C25 1.389 . S
C25 H8 0.939 . S
C25 C20 1.400 . S
C25 C24 1.389 . S
C26 P0 1.819 . S
C26 C27 1.391 . S
C26 C31 1.391 . S
C27 H9 0.941 . S
C27 C26 1.391 . S
C27 C28 1.396 . S
C28 H12 0.939 . S
C28 C27 1.396 . S
C28 C29 1.397 . S
C29 C28 1.397 . S
C29 C30 1.385 . S
C30 H13 0.940 . S
C30 C29 1.385 . S
C30 C31 1.388 . S
C31 H10 0.939 . S
C31 C26 1.391 . S
C31 C30 1.388 . S
P32 O43 1.490 . S
P32 C46 1.812 . S
P32 C52 1.803 . S
P32 C58 1.819 . S
H33 C47 0.941 . S
H34 C48 0.939 . S
H35 C50 0.940 . S
H36 C51 0.940 . S
H37 C53 0.939 . S
H38 C54 0.942 . S
H39 C56 0.940 . S
H40 C57 0.939 . S
H41 C59 0.941 . S
H42 C63 0.939 . S
O43 P32 1.490 . S
H44 C60 0.939 . S
H45 C62 0.940 . S
C46 P32 1.812 . S
C46 C47 1.389 . S
C46 C51 1.391 . S
C47 H33 0.941 . S
C47 C46 1.389 . S
C47 C48 1.397 . S
C48 H34 0.939 . S
C48 C47 1.397 . S
C48 C49 1.378 . S
C49 C48 1.378 . S
C49 C50 1.378 . S
C50 H35 0.940 . S
C50 C49 1.378 . S
C50 C51 1.396 . S
C51 H36 0.940 . S
C51 C46 1.391 . S
C51 C50 1.396 . S
C52 P32 1.803 . S
C52 C53 1.378 . S
C52 C57 1.400 . S
C53 H37 0.939 . S
C53 C52 1.378 . S
C53 C54 1.361 . S
C54 H38 0.942 . S
C54 C53 1.361 . S
C54 C55 1.369 . S
C55 C54 1.369 . S
C55 C56 1.404 . S
C56 H39 0.940 . S
C56 C55 1.404 . S
C56 C57 1.389 . S
C57 H40 0.939 . S
C57 C52 1.400 . S
C57 C56 1.389 . S
C58 P32 1.819 . S
C58 C59 1.391 . S
C58 C63 1.391 . S
C59 H41 0.941 . S
C59 C58 1.391 . S
C59 C60 1.396 . S
C60 H44 0.939 . S
C60 C59 1.396 . S
C60 C61 1.397 . S
C61 C60 1.397 . S
C61 C62 1.385 . S
C62 H45 0.940 . S
C62 C61 1.385 . S
C62 C63 1.388 . S
C63 H42 0.939 . S
C63 C58 1.391 . S
C63 C62 1.388 . S
P64 O75 1.490 . S
P64 C78 1.812 . S
P64 C84 1.803 . S
P64 C90 1.819 . S
H65 C79 0.941 . S
H66 C80 0.939 . S
H67 C82 0.940 . S
H68 C83 0.940 . S
H69 C85 0.939 . S
H70 C86 0.942 . S
H71 C88 0.940 . S
H72 C89 0.939 . S
H73 C91 0.941 . S
H74 C95 0.939 . S
O75 P64 1.490 . S
H76 C92 0.939 . S
H77 C94 0.940 . S
C78 P64 1.812 . S
C78 C79 1.389 . S
C78 C83 1.391 . S
C79 H65 0.941 . S
C79 C78 1.389 . S
C79 C80 1.397 . S
C80 H66 0.939 . S
C80 C79 1.397 . S
C80 C81 1.378 . S
C81 C80 1.378 . S
C81 C82 1.378 . S
C82 H67 0.940 . S
C82 C81 1.378 . S
C82 C83 1.396 . S
C83 H68 0.940 . S
C83 C78 1.391 . S
C83 C82 1.396 . S
C84 P64 1.803 . S
C84 C85 1.378 . S
C84 C89 1.400 . S
C85 H69 0.939 . S
C85 C84 1.378 . S
C85 C86 1.361 . S
C86 H70 0.942 . S
C86 C85 1.361 . S
C86 C87 1.369 . S
C87 C86 1.369 . S
C87 C88 1.404 . S
C88 H71 0.940 . S
C88 C87 1.404 . S
C88 C89 1.389 . S
C89 H72 0.939 . S
C89 C84 1.400 . S
C89 C88 1.389 . S
C90 P64 1.819 . S
C90 C91 1.391 . S
C90 C95 1.391 . S
C91 H73 0.941 . S
C91 C90 1.391 . S
C91 C92 1.396 . S
C92 H76 0.939 . S
C92 C91 1.396 . S
C92 C93 1.397 . S
C93 C92 1.397 . S
C93 C94 1.385 . S
C94 H77 0.940 . S
C94 C93 1.385 . S
C94 C95 1.388 . S
C95 H74 0.939 . S
C95 C90 1.391 . S
C95 C94 1.388 . S
P96 O107 1.490 . S
P96 C110 1.812 . S
P96 C116 1.803 . S
P96 C122 1.819 . S
H97 C111 0.941 . S
H98 C112 0.939 . S
H99 C114 0.940 . S
H100 C115 0.940 . S
H101 C117 0.939 . S
H102 C118 0.942 . S
H103 C120 0.940 . S
H104 C121 0.939 . S
H105 C123 0.941 . S
H106 C127 0.939 . S
O107 P96 1.490 . S
H108 C124 0.939 . S
H109 C126 0.940 . S
C110 P96 1.812 . S
C110 C111 1.389 . S
C110 C115 1.391 . S
C111 H97 0.941 . S
C111 C110 1.389 . S
C111 C112 1.397 . S
C112 H98 0.939 . S
C112 C111 1.397 . S
C112 C113 1.378 . S
C113 C112 1.378 . S
C113 C114 1.378 . S
C114 H99 0.940 . S
C114 C113 1.378 . S
C114 C115 1.396 . S
C115 H100 0.940 . S
C115 C110 1.391 . S
C115 C114 1.396 . S
C116 P96 1.803 . S
C116 C117 1.378 . S
C116 C121 1.400 . S
C117 H101 0.939 . S
C117 C116 1.378 . S
C117 C118 1.361 . S
C118 H102 0.942 . S
C118 C117 1.361 . S
C118 C119 1.369 . S
C119 C118 1.369 . S
C119 C120 1.404 . S
C120 H103 0.940 . S
C120 C119 1.404 . S
C120 C121 1.389 . S
C121 H104 0.939 . S
C121 C116 1.400 . S
C121 C120 1.389 . S
C122 P96 1.819 . S
C122 C123 1.391 . S
C122 C127 1.391 . S
C123 H105 0.941 . S
C123 C122 1.391 . S
C123 C124 1.396 . S
C124 H108 0.939 . S
C124 C123 1.396 . S
C124 C125 1.397 . S
C125 C124 1.397 . S
C125 C126 1.385 . S
C126 H109 0.940 . S
C126 C125 1.385 . S
C126 C127 1.388 . S
C127 H106 0.939 . S
C127 C122 1.391 . S
C127 C126 1.388 . S
P128 O139 1.490 . S
P128 C142 1.812 . S
P128 C148 1.803 . S
P128 C154 1.819 . S
H129 C143 0.941 . S
H130 C144 0.939 . S
H131 C146 0.940 . S
H132 C147 0.940 . S
H133 C149 0.939 . S
H134 C150 0.942 . S
H135 C152 0.940 . S
H136 C153 0.939 . S
H137 C155 0.941 . S
H138 C159 0.939 . S
O139 P128 1.490 . S
H140 C156 0.939 . S
H141 C158 0.940 . S
C142 P128 1.812 . S
C142 C143 1.389 . S
C142 C147 1.391 . S
C143 H129 0.941 . S
C143 C142 1.389 . S
C143 C144 1.397 . S
C144 H130 0.939 . S
C144 C143 1.397 . S
C144 C145 1.378 . S
C145 C144 1.378 . S
C145 C146 1.378 . S
C146 H131 0.940 . S
C146 C145 1.378 . S
C146 C147 1.396 . S
C147 H132 0.940 . S
C147 C142 1.391 . S
C147 C146 1.396 . S
C148 P128 1.803 . S
C148 C149 1.378 . S
C148 C153 1.400 . S
C149 H133 0.939 . S
C149 C148 1.378 . S
C149 C150 1.361 . S
C150 H134 0.942 . S
C150 C149 1.361 . S
C150 C151 1.369 . S
C151 C150 1.369 . S
C151 C152 1.404 . S
C152 H135 0.940 . S
C152 C151 1.404 . S
C152 C153 1.389 . S
C153 H136 0.939 . S
C153 C148 1.400 . S
C153 C152 1.389 . S
C154 P128 1.819 . S
C154 C155 1.391 . S
C154 C159 1.391 . S
C155 H137 0.941 . S
C155 C154 1.391 . S
C155 C156 1.396 . S
C156 H140 0.939 . S
C156 C155 1.396 . S
C156 C157 1.397 . S
C157 C156 1.397 . S
C157 C158 1.385 . S
C158 H141 0.940 . S
C158 C157 1.385 . S
C158 C159 1.388 . S
C159 H138 0.939 . S
C159 C154 1.391 . S
C159 C158 1.388 . S
P160 O171 1.490 . S
P160 C174 1.812 . S
P160 C180 1.803 . S
P160 C186 1.819 . S
H161 C175 0.941 . S
H162 C176 0.939 . S
H163 C178 0.940 . S
H164 C179 0.940 . S
H165 C181 0.939 . S
H166 C182 0.942 . S
H167 C184 0.940 . S
H168 C185 0.939 . S
H169 C187 0.941 . S
H170 C191 0.939 . S
O171 P160 1.490 . S
H172 C188 0.939 . S
H173 C190 0.940 . S
C174 P160 1.812 . S
C174 C175 1.389 . S
C174 C179 1.391 . S
C175 H161 0.941 . S
C175 C174 1.389 . S
C175 C176 1.397 . S
C176 H162 0.939 . S
C176 C175 1.397 . S
C176 C177 1.378 . S
C177 C176 1.378 . S
C177 C178 1.378 . S
C178 H163 0.940 . S
C178 C177 1.378 . S
C178 C179 1.396 . S
C179 H164 0.940 . S
C179 C174 1.391 . S
C179 C178 1.396 . S
C180 P160 1.803 . S
C180 C181 1.378 . S
C180 C185 1.400 . S
C181 H165 0.939 . S
C181 C180 1.378 . S
C181 C182 1.361 . S
C182 H166 0.942 . S
C182 C181 1.361 . S
C182 C183 1.369 . S
C183 C182 1.369 . S
C183 C184 1.404 . S
C184 H167 0.940 . S
C184 C183 1.404 . S
C184 C185 1.389 . S
C185 H168 0.939 . S
C185 C180 1.400 . S
C185 C184 1.389 . S
C186 P160 1.819 . S
C186 C187 1.391 . S
C186 C191 1.391 . S
C187 H169 0.941 . S
C187 C186 1.391 . S
C187 C188 1.396 . S
C188 H172 0.939 . S
C188 C187 1.396 . S
C188 C189 1.397 . S
C189 C188 1.397 . S
C189 C190 1.385 . S
C190 H173 0.940 . S
C190 C189 1.385 . S
C190 C191 1.388 . S
C191 H170 0.939 . S
C191 C186 1.391 . S
C191 C190 1.388 . S
P192 O203 1.490 . S
P192 C206 1.812 . S
P192 C212 1.803 . S
P192 C218 1.819 . S
H193 C207 0.941 . S
H194 C208 0.939 . S
H195 C210 0.940 . S
H196 C211 0.940 . S
H197 C213 0.939 . S
H198 C214 0.942 . S
H199 C216 0.940 . S
H200 C217 0.939 . S
H201 C219 0.941 . S
H202 C223 0.939 . S
O203 P192 1.490 . S
H204 C220 0.939 . S
H205 C222 0.940 . S
C206 P192 1.812 . S
C206 C207 1.389 . S
C206 C211 1.391 . S
C207 H193 0.941 . S
C207 C206 1.389 . S
C207 C208 1.397 . S
C208 H194 0.939 . S
C208 C207 1.397 . S
C208 C209 1.378 . S
C209 C208 1.378 . S
C209 C210 1.378 . S
C210 H195 0.940 . S
C210 C209 1.378 . S
C210 C211 1.396 . S
C211 H196 0.940 . S
C211 C206 1.391 . S
C211 C210 1.396 . S
C212 P192 1.803 . S
C212 C213 1.378 . S
C212 C217 1.400 . S
C213 H197 0.939 . S
C213 C212 1.378 . S
C213 C214 1.361 . S
C214 H198 0.942 . S
C214 C213 1.361 . S
C214 C215 1.369 . S
C215 C214 1.369 . S
C215 C216 1.404 . S
C216 H199 0.940 . S
C216 C215 1.404 . S
C216 C217 1.389 . S
C217 H200 0.939 . S
C217 C212 1.400 . S
C217 C216 1.389 . S
C218 P192 1.819 . S
C218 C219 1.391 . S
C218 C223 1.391 . S
C219 H201 0.941 . S
C219 C218 1.391 . S
C219 C220 1.396 . S
C220 H204 0.939 . S
C220 C219 1.396 . S
C220 C221 1.397 . S
C221 C220 1.397 . S
C221 C222 1.385 . S
C222 H205 0.940 . S
C222 C221 1.385 . S
C222 C223 1.388 . S
C223 H202 0.939 . S
C223 C218 1.391 . S
C223 C222 1.388 . S
P224 O235 1.490 . S
P224 C238 1.812 . S
P224 C244 1.803 . S
P224 C250 1.819 . S
H225 C239 0.941 . S
H226 C240 0.939 . S
H227 C242 0.940 . S
H228 C243 0.940 . S
H229 C245 0.939 . S
H230 C246 0.942 . S
H231 C248 0.940 . S
H232 C249 0.939 . S
H233 C251 0.941 . S
H234 C255 0.939 . S
O235 P224 1.490 . S
H236 C252 0.939 . S
H237 C254 0.940 . S
C238 P224 1.812 . S
C238 C239 1.389 . S
C238 C243 1.391 . S
C239 H225 0.941 . S
C239 C238 1.389 . S
C239 C240 1.397 . S
C240 H226 0.939 . S
C240 C239 1.397 . S
C240 C241 1.378 . S
C241 C240 1.378 . S
C241 C242 1.378 . S
C242 H227 0.940 . S
C242 C241 1.378 . S
C242 C243 1.396 . S
C243 H228 0.940 . S
C243 C238 1.391 . S
C243 C242 1.396 . S
C244 P224 1.803 . S
C244 C245 1.378 . S
C244 C249 1.400 . S
C245 H229 0.939 . S
C245 C244 1.378 . S
C245 C246 1.361 . S
C246 H230 0.942 . S
C246 C245 1.361 . S
C246 C247 1.369 . S
C247 C246 1.369 . S
C247 C248 1.404 . S
C248 H231 0.940 . S
C248 C247 1.404 . S
C248 C249 1.389 . S
C249 H232 0.939 . S
C249 C244 1.400 . S
C249 C248 1.389 . S
C250 P224 1.819 . S
C250 C251 1.391 . S
C250 C255 1.391 . S
C251 H233 0.941 . S
C251 C250 1.391 . S
C251 C252 1.396 . S
C252 H236 0.939 . S
C252 C251 1.396 . S
C252 C253 1.397 . S
C253 C252 1.397 . S
C253 C254 1.385 . S
C254 H237 0.940 . S
C254 C253 1.385 . S
C254 C255 1.388 . S
C255 H234 0.939 . S
C255 C250 1.391 . S
C255 C254 1.388 . S
P256 O267 1.490 . S
P256 C270 1.812 . S
P256 C276 1.803 . S
P256 C282 1.819 . S
H257 C271 0.941 . S
H258 C272 0.939 . S
H259 C274 0.940 . S
H260 C275 0.940 . S
H261 C277 0.939 . S
H262 C278 0.942 . S
H263 C280 0.940 . S
H264 C281 0.939 . S
H265 C283 0.941 . S
H266 C287 0.939 . S
O267 P256 1.490 . S
H268 C284 0.939 . S
H269 C286 0.940 . S
C270 P256 1.812 . S
C270 C271 1.389 . S
C270 C275 1.391 . S
C271 H257 0.941 . S
C271 C270 1.389 . S
C271 C272 1.397 . S
C272 H258 0.939 . S
C272 C271 1.397 . S
C272 C273 1.378 . S
C273 C272 1.378 . S
C273 C274 1.378 . S
C274 H259 0.940 . S
C274 C273 1.378 . S
C274 C275 1.396 . S
C275 H260 0.940 . S
C275 C270 1.391 . S
C275 C274 1.396 . S
C276 P256 1.803 . S
C276 C277 1.378 . S
C276 C281 1.400 . S
C277 H261 0.939 . S
C277 C276 1.378 . S
C277 C278 1.361 . S
C278 H262 0.942 . S
C278 C277 1.361 . S
C278 C279 1.369 . S
C279 C278 1.369 . S
C279 C280 1.404 . S
C280 H263 0.940 . S
C280 C279 1.404 . S
C280 C281 1.389 . S
C281 H264 0.939 . S
C281 C276 1.400 . S
C281 C280 1.389 . S
C282 P256 1.819 . S
C282 C283 1.391 . S
C282 C287 1.391 . S
C283 H265 0.941 . S
C283 C282 1.391 . S
C283 C284 1.396 . S
C284 H268 0.939 . S
C284 C283 1.396 . S
C284 C285 1.397 . S
C285 C284 1.397 . S
C285 C286 1.385 . S
C286 H269 0.940 . S
C286 C285 1.385 . S
C286 C287 1.388 . S
C287 H266 0.939 . S
C287 C282 1.391 . S
C287 C286 1.388 . S
P288 O299 1.490 . S
P288 C302 1.812 . S
P288 C308 1.803 . S
P288 C314 1.819 . S
H289 C303 0.941 . S
H290 C304 0.939 . S
H291 C306 0.940 . S
H292 C307 0.940 . S
H293 C309 0.939 . S
H294 C310 0.942 . S
H295 C312 0.940 . S
H296 C313 0.939 . S
H297 C315 0.941 . S
H298 C319 0.939 . S
O299 P288 1.490 . S
H300 C316 0.939 . S
H301 C318 0.940 . S
C302 P288 1.812 . S
C302 C303 1.389 . S
C302 C307 1.391 . S
C303 H289 0.941 . S
C303 C302 1.389 . S
C303 C304 1.397 . S
C304 H290 0.939 . S
C304 C303 1.397 . S
C304 C305 1.378 . S
C305 C304 1.378 . S
C305 C306 1.378 . S
C306 H291 0.940 . S
C306 C305 1.378 . S
C306 C307 1.396 . S
C307 H292 0.940 . S
C307 C302 1.391 . S
C307 C306 1.396 . S
C308 P288 1.803 . S
C308 C309 1.378 . S
C308 C313 1.400 . S
C309 H293 0.939 . S
C309 C308 1.378 . S
C309 C310 1.361 . S
C310 H294 0.942 . S
C310 C309 1.361 . S
C310 C311 1.369 . S
C311 C310 1.369 . S
C311 C312 1.404 . S
C312 H295 0.940 . S
C312 C311 1.404 . S
C312 C313 1.389 . S
C313 H296 0.939 . S
C313 C308 1.400 . S
C313 C312 1.389 . S
C314 P288 1.819 . S
C314 C315 1.391 . S
C314 C319 1.391 . S
C315 H297 0.941 . S
C315 C314 1.391 . S
C315 C316 1.396 . S
C316 H300 0.939 . S
C316 C315 1.396 . S
C316 C317 1.397 . S
C317 C316 1.397 . S
C317 C318 1.385 . S
C318 H301 0.940 . S
C318 C317 1.385 . S
C318 C319 1.388 . S
C319 H298 0.939 . S
C319 C314 1.391 . S
C319 C318 1.388 . S
P320 O331 1.490 . S
P320 C334 1.812 . S
P320 C340 1.803 . S
P320 C346 1.819 . S
H321 C335 0.941 . S
H322 C336 0.939 . S
H323 C338 0.940 . S
H324 C339 0.940 . S
H325 C341 0.939 . S
H326 C342 0.942 . S
H327 C344 0.940 . S
H328 C345 0.939 . S
H329 C347 0.941 . S
H330 C351 0.939 . S
O331 P320 1.490 . S
H332 C348 0.939 . S
H333 C350 0.940 . S
C334 P320 1.812 . S
C334 C335 1.389 . S
C334 C339 1.391 . S
C335 H321 0.941 . S
C335 C334 1.389 . S
C335 C336 1.397 . S
C336 H322 0.939 . S
C336 C335 1.397 . S
C336 C337 1.378 . S
C337 C336 1.378 . S
C337 C338 1.378 . S
C338 H323 0.940 . S
C338 C337 1.378 . S
C338 C339 1.396 . S
C339 H324 0.940 . S
C339 C334 1.391 . S
C339 C338 1.396 . S
C340 P320 1.803 . S
C340 C341 1.378 . S
C340 C345 1.400 . S
C341 H325 0.939 . S
C341 C340 1.378 . S
C341 C342 1.361 . S
C342 H326 0.942 . S
C342 C341 1.361 . S
C342 C343 1.369 . S
C343 C342 1.369 . S
C343 C344 1.404 . S
C344 H327 0.940 . S
C344 C343 1.404 . S
C344 C345 1.389 . S
C345 H328 0.939 . S
C345 C340 1.400 . S
C345 C344 1.389 . S
C346 P320 1.819 . S
C346 C347 1.391 . S
C346 C351 1.391 . S
C347 H329 0.941 . S
C347 C346 1.391 . S
C347 C348 1.396 . S
C348 H332 0.939 . S
C348 C347 1.396 . S
C348 C349 1.397 . S
C349 C348 1.397 . S
C349 C350 1.385 . S
C350 H333 0.940 . S
C350 C349 1.385 . S
C350 C351 1.388 . S
C351 H330 0.939 . S
C351 C346 1.391 . S
C351 C350 1.388 . S
P352 O363 1.490 . S
P352 C366 1.812 . S
P352 C372 1.803 . S
P352 C378 1.819 . S
H353 C367 0.941 . S
H354 C368 0.939 . S
H355 C370 0.940 . S
H356 C371 0.940 . S
H357 C373 0.939 . S
H358 C374 0.942 . S
H359 C376 0.940 . S
H360 C377 0.939 . S
H361 C379 0.941 . S
H362 C383 0.939 . S
O363 P352 1.490 . S
H364 C380 0.939 . S
H365 C382 0.940 . S
C366 P352 1.812 . S
C366 C367 1.389 . S
C366 C371 1.391 . S
C367 H353 0.941 . S
C367 C366 1.389 . S
C367 C368 1.397 . S
C368 H354 0.939 . S
C368 C367 1.397 . S
C368 C369 1.378 . S
C369 C368 1.378 . S
C369 C370 1.378 . S
C370 H355 0.940 . S
C370 C369 1.378 . S
C370 C371 1.396 . S
C371 H356 0.940 . S
C371 C366 1.391 . S
C371 C370 1.396 . S
C372 P352 1.803 . S
C372 C373 1.378 . S
C372 C377 1.400 . S
C373 H357 0.939 . S
C373 C372 1.378 . S
C373 C374 1.361 . S
C374 H358 0.942 . S
C374 C373 1.361 . S
C374 C375 1.369 . S
C375 C374 1.369 . S
C375 C376 1.404 . S
C376 H359 0.940 . S
C376 C375 1.404 . S
C376 C377 1.389 . S
C377 H360 0.939 . S
C377 C372 1.400 . S
C377 C376 1.389 . S
C378 P352 1.819 . S
C378 C379 1.391 . S
C378 C383 1.391 . S
C379 H361 0.941 . S
C379 C378 1.391 . S
C379 C380 1.396 . S
C380 H364 0.939 . S
C380 C379 1.396 . S
C380 C381 1.397 . S
C381 C380 1.397 . S
C381 C382 1.385 . S
C382 H365 0.940 . S
C382 C381 1.385 . S
C382 C383 1.388 . S
C383 H362 0.939 . S
C383 C378 1.391 . S
C383 C382 1.388 . S
P384 O395 1.490 . S
P384 C398 1.812 . S
P384 C404 1.803 . S
P384 C410 1.819 . S
H385 C399 0.941 . S
H386 C400 0.939 . S
H387 C402 0.940 . S
H388 C403 0.940 . S
H389 C405 0.939 . S
H390 C406 0.942 . S
H391 C408 0.940 . S
H392 C409 0.939 . S
H393 C411 0.941 . S
H394 C415 0.939 . S
O395 P384 1.490 . S
H396 C412 0.939 . S
H397 C414 0.940 . S
C398 P384 1.812 . S
C398 C399 1.389 . S
C398 C403 1.391 . S
C399 H385 0.941 . S
C399 C398 1.389 . S
C399 C400 1.397 . S
C400 H386 0.939 . S
C400 C399 1.397 . S
C400 C401 1.378 . S
C401 C400 1.378 . S
C401 C402 1.378 . S
C402 H387 0.940 . S
C402 C401 1.378 . S
C402 C403 1.396 . S
C403 H388 0.940 . S
C403 C398 1.391 . S
C403 C402 1.396 . S
C404 P384 1.803 . S
C404 C405 1.378 . S
C404 C409 1.400 . S
C405 H389 0.939 . S
C405 C404 1.378 . S
C405 C406 1.361 . S
C406 H390 0.942 . S
C406 C405 1.361 . S
C406 C407 1.369 . S
C407 C406 1.369 . S
C407 C408 1.404 . S
C408 H391 0.940 . S
C408 C407 1.404 . S
C408 C409 1.389 . S
C409 H392 0.939 . S
C409 C404 1.400 . S
C409 C408 1.389 . S
C410 P384 1.819 . S
C410 C411 1.391 . S
C410 C415 1.391 . S
C411 H393 0.941 . S
C411 C410 1.391 . S
C411 C412 1.396 . S
C412 H396 0.939 . S
C412 C411 1.396 . S
C412 C413 1.397 . S
C413 C412 1.397 . S
C413 C414 1.385 . S
C414 H397 0.940 . S
C414 C413 1.385 . S
C414 C415 1.388 . S
C415 H394 0.939 . S
C415 C410 1.391 . S
C415 C414 1.388 . S
P416 O427 1.490 . S
P416 C430 1.812 . S
P416 C436 1.803 . S
P416 C442 1.819 . S
H417 C431 0.941 . S
H418 C432 0.939 . S
H419 C434 0.940 . S
H420 C435 0.940 . S
H421 C437 0.939 . S
H422 C438 0.942 . S
H423 C440 0.940 . S
H424 C441 0.939 . S
H425 C443 0.941 . S
H426 C447 0.939 . S
O427 P416 1.490 . S
H428 C444 0.939 . S
H429 C446 0.940 . S
C430 P416 1.812 . S
C430 C431 1.389 . S
C430 C435 1.391 . S
C431 H417 0.941 . S
C431 C430 1.389 . S
C431 C432 1.397 . S
C432 H418 0.939 . S
C432 C431 1.397 . S
C432 C433 1.378 . S
C433 C432 1.378 . S
C433 C434 1.378 . S
C434 H419 0.940 . S
C434 C433 1.378 . S
C434 C435 1.396 . S
C435 H420 0.940 . S
C435 C430 1.391 . S
C435 C434 1.396 . S
C436 P416 1.803 . S
C436 C437 1.378 . S
C436 C441 1.400 . S
C437 H421 0.939 . S
C437 C436 1.378 . S
C437 C438 1.361 . S
C438 H422 0.942 . S
C438 C437 1.361 . S
C438 C439 1.369 . S
C439 C438 1.369 . S
C439 C440 1.404 . S
C440 H423 0.940 . S
C440 C439 1.404 . S
C440 C441 1.389 . S
C441 H424 0.939 . S
C441 C436 1.400 . S
C441 C440 1.389 . S
C442 P416 1.819 . S
C442 C443 1.391 . S
C442 C447 1.391 . S
C443 H425 0.941 . S
C443 C442 1.391 . S
C443 C444 1.396 . S
C444 H428 0.939 . S
C444 C443 1.396 . S
C444 C445 1.397 . S
C445 C444 1.397 . S
C445 C446 1.385 . S
C446 H429 0.940 . S
C446 C445 1.385 . S
C446 C447 1.388 . S
C447 H426 0.939 . S
C447 C442 1.391 . S
C447 C446 1.388 . S
P448 O459 1.490 . S
P448 C462 1.812 . S
P448 C468 1.803 . S
P448 C474 1.819 . S
H449 C463 0.941 . S
H450 C464 0.939 . S
H451 C466 0.940 . S
H452 C467 0.940 . S
H453 C469 0.939 . S
H454 C470 0.942 . S
H455 C472 0.940 . S
H456 C473 0.939 . S
H457 C475 0.941 . S
H458 C479 0.939 . S
O459 P448 1.490 . S
H460 C476 0.939 . S
H461 C478 0.940 . S
C462 P448 1.812 . S
C462 C463 1.389 . S
C462 C467 1.391 . S
C463 H449 0.941 . S
C463 C462 1.389 . S
C463 C464 1.397 . S
C464 H450 0.939 . S
C464 C463 1.397 . S
C464 C465 1.378 . S
C465 C464 1.378 . S
C465 C466 1.378 . S
C466 H451 0.940 . S
C466 C465 1.378 . S
C466 C467 1.396 . S
C467 H452 0.940 . S
C467 C462 1.391 . S
C467 C466 1.396 . S
C468 P448 1.803 . S
C468 C469 1.378 . S
C468 C473 1.400 . S
C469 H453 0.939 . S
C469 C468 1.378 . S
C469 C470 1.361 . S
C470 H454 0.942 . S
C470 C469 1.361 . S
C470 C471 1.369 . S
C471 C470 1.369 . S
C471 C472 1.404 . S
C472 H455 0.940 . S
C472 C471 1.404 . S
C472 C473 1.389 . S
C473 H456 0.939 . S
C473 C468 1.400 . S
C473 C472 1.389 . S
C474 P448 1.819 . S
C474 C475 1.391 . S
C474 C479 1.391 . S
C475 H457 0.941 . S
C475 C474 1.391 . S
C475 C476 1.396 . S
C476 H460 0.939 . S
C476 C475 1.396 . S
C476 C477 1.397 . S
C477 C476 1.397 . S
C477 C478 1.385 . S
C478 H461 0.940 . S
C478 C477 1.385 . S
C478 C479 1.388 . S
C479 H458 0.939 . S
C479 C474 1.391 . S
C479 C478 1.388 . S
P480 O491 1.490 . S
P480 C494 1.812 . S
P480 C500 1.803 . S
P480 C506 1.819 . S
H481 C495 0.941 . S
H482 C496 0.939 . S
H483 C498 0.940 . S
H484 C499 0.940 . S
H485 C501 0.939 . S
H486 C502 0.942 . S
H487 C504 0.940 . S
H488 C505 0.939 . S
H489 C507 0.941 . S
H490 C511 0.939 . S
O491 P480 1.490 . S
H492 C508 0.939 . S
H493 C510 0.940 . S
C494 P480 1.812 . S
C494 C495 1.389 . S
C494 C499 1.391 . S
C495 H481 0.941 . S
C495 C494 1.389 . S
C495 C496 1.397 . S
C496 H482 0.939 . S
C496 C495 1.397 . S
C496 C497 1.378 . S
C497 C496 1.378 . S
C497 C498 1.378 . S
C498 H483 0.940 . S
C498 C497 1.378 . S
C498 C499 1.396 . S
C499 H484 0.940 . S
C499 C494 1.391 . S
C499 C498 1.396 . S
C500 P480 1.803 . S
C500 C501 1.378 . S
C500 C505 1.400 . S
C501 H485 0.939 . S
C501 C500 1.378 . S
C501 C502 1.361 . S
C502 H486 0.942 . S
C502 C501 1.361 . S
C502 C503 1.369 . S
C503 C502 1.369 . S
C503 C504 1.404 . S
C504 H487 0.940 . S
C504 C503 1.404 . S
C504 C505 1.389 . S
C505 H488 0.939 . S
C505 C500 1.400 . S
C505 C504 1.389 . S
C506 P480 1.819 . S
C506 C507 1.391 . S
C506 C511 1.391 . S
C507 H489 0.941 . S
C507 C506 1.391 . S
C507 C508 1.396 . S
C508 H492 0.939 . S
C508 C507 1.396 . S
C508 C509 1.397 . S
C509 C508 1.397 . S
C509 C510 1.385 . S
C510 H493 0.940 . S
C510 C509 1.385 . S
C510 C511 1.388 . S
C511 H490 0.939 . S
C511 C506 1.391 . S
C511 C510 1.388 . S
P512 O523 1.490 . S
P512 C526 1.812 . S
P512 C532 1.803 . S
P512 C538 1.819 . S
H513 C527 0.941 . S
H514 C528 0.939 . S
H515 C530 0.940 . S
H516 C531 0.940 . S
H517 C533 0.939 . S
H518 C534 0.942 . S
H519 C536 0.940 . S
H520 C537 0.939 . S
H521 C539 0.941 . S
H522 C543 0.939 . S
O523 P512 1.490 . S
H524 C540 0.939 . S
H525 C542 0.940 . S
C526 P512 1.812 . S
C526 C527 1.389 . S
C526 C531 1.391 . S
C527 H513 0.941 . S
C527 C526 1.389 . S
C527 C528 1.397 . S
C528 H514 0.939 . S
C528 C527 1.397 . S
C528 C529 1.378 . S
C529 C528 1.378 . S
C529 C530 1.378 . S
C530 H515 0.940 . S
C530 C529 1.378 . S
C530 C531 1.396 . S
C531 H516 0.940 . S
C531 C526 1.391 . S
C531 C530 1.396 . S
C532 P512 1.803 . S
C532 C533 1.378 . S
C532 C537 1.400 . S
C533 H517 0.939 . S
C533 C532 1.378 . S
C533 C534 1.361 . S
C534 H518 0.942 . S
C534 C533 1.361 . S
C534 C535 1.369 . S
C535 C534 1.369 . S
C535 C536 1.404 . S
C536 H519 0.940 . S
C536 C535 1.404 . S
C536 C537 1.389 . S
C537 H520 0.939 . S
C537 C532 1.400 . S
C537 C536 1.389 . S
C538 P512 1.819 . S
C538 C539 1.391 . S
C538 C543 1.391 . S
C539 H521 0.941 . S
C539 C538 1.391 . S
C539 C540 1.396 . S
C540 H524 0.939 . S
C540 C539 1.396 . S
C540 C541 1.397 . S
C541 C540 1.397 . S
C541 C542 1.385 . S
C542 H525 0.940 . S
C542 C541 1.385 . S
C542 C543 1.388 . S
C543 H522 0.939 . S
C543 C538 1.391 . S
C543 C542 1.388 . S
P544 O555 1.490 . S
P544 C558 1.812 . S
P544 C564 1.803 . S
P544 C570 1.819 . S
H545 C559 0.941 . S
H546 C560 0.939 . S
H547 C562 0.940 . S
H548 C563 0.940 . S
H549 C565 0.939 . S
H550 C566 0.942 . S
H551 C568 0.940 . S
H552 C569 0.939 . S
H553 C571 0.941 . S
H554 C575 0.939 . S
O555 P544 1.490 . S
H556 C572 0.939 . S
H557 C574 0.940 . S
C558 P544 1.812 . S
C558 C559 1.389 . S
C558 C563 1.391 . S
C559 H545 0.941 . S
C559 C558 1.389 . S
C559 C560 1.397 . S
C560 H546 0.939 . S
C560 C559 1.397 . S
C560 C561 1.378 . S
C561 C560 1.378 . S
C561 C562 1.378 . S
C562 H547 0.940 . S
C562 C561 1.378 . S
C562 C563 1.396 . S
C563 H548 0.940 . S
C563 C558 1.391 . S
C563 C562 1.396 . S
C564 P544 1.803 . S
C564 C565 1.378 . S
C564 C569 1.400 . S
C565 H549 0.939 . S
C565 C564 1.378 . S
C565 C566 1.361 . S
C566 H550 0.942 . S
C566 C565 1.361 . S
C566 C567 1.369 . S
C567 C566 1.369 . S
C567 C568 1.404 . S
C568 H551 0.940 . S
C568 C567 1.404 . S
C568 C569 1.389 . S
C569 H552 0.939 . S
C569 C564 1.400 . S
C569 C568 1.389 . S
C570 P544 1.819 . S
C570 C571 1.391 . S
C570 C575 1.391 . S
C571 H553 0.941 . S
C571 C570 1.391 . S
C571 C572 1.396 . S
C572 H556 0.939 . S
C572 C571 1.396 . S
C572 C573 1.397 . S
C573 C572 1.397 . S
C573 C574 1.385 . S
C574 H557 0.940 . S
C574 C573 1.385 . S
C574 C575 1.388 . S
C575 H554 0.939 . S
C575 C570 1.391 . S
C575 C574 1.388 . S
O576 Mn577 2.163 1_565 S
O576 C590 1.244 . S
Mn577 O576 2.163 1_545 S
Mn577 O580 2.160 . S
Mn577 O581 2.221 1_545 S
Mn577 O583 2.163 1_554 S
Mn577 O585 2.160 . S
Mn577 O595 2.221 . S
O578 Mn579 2.087 1_565 S
O578 C590 1.256 . S
Mn579 O578 2.087 1_545 S
Mn579 O586 2.089 . S
Mn579 O595 2.290 . S
Mn579 O596 2.251 . S
O580 Mn577 2.160 . S
O580 C591 1.239 1_554 S
O581 Mn577 2.221 1_565 S
O581 Mn582 2.290 1_554 S
O581 C592 1.278 . S
Mn582 O581 2.290 1_556 S
Mn582 O584 2.089 1_565 S
Mn582 O587 2.251 . S
Mn582 O588 2.087 . S
O583 Mn577 2.163 1_556 S
O583 C593 1.244 . S
O584 Mn582 2.089 1_545 S
O584 C591 1.256 . S
O585 Mn577 2.160 . S
O585 C594 1.239 . S
O586 Mn579 2.089 . S
O586 C594 1.256 . S
O587 Mn582 2.251 . S
O587 C592 1.241 1_556 S
O588 Mn582 2.087 . S
O588 C593 1.256 1_565 S
C589 O595 1.278 . S
C589 O596 1.241 . S
C590 O576 1.244 . S
C590 O578 1.256 . S
C591 O580 1.239 1_556 S
C591 O584 1.256 . S
C592 O581 1.278 . S
C592 O587 1.241 1_554 S
C593 O583 1.244 . S
C593 O588 1.256 1_545 S
C594 O585 1.239 . S
C594 O586 1.256 . S
O595 Mn577 2.221 . S
O595 Mn579 2.290 . S
O595 C589 1.278 . S
O596 Mn579 2.251 . S
O596 C589 1.241 . S
O597 Mn598 2.122 1_455 S
O597 C611 1.244 . S
Mn598 O597 2.122 1_655 S
Mn598 O601 2.200 . S
Mn598 O602 2.218 1_655 S
Mn598 O604 2.163 1_554 S
Mn598 O606 2.161 . S
Mn598 O616 2.228 . S
O599 Mn600 2.087 1_455 S
O599 C611 1.256 . S
Mn600 O599 2.087 1_655 S
Mn600 O607 2.089 1_655 S
Mn600 O616 2.290 . S
Mn600 O617 2.251 . S
O601 Mn598 2.200 . S
O601 C612 1.208 1_554 S
O602 Mn598 2.218 1_455 S
O602 Mn603 2.290 1_554 S
O602 C613 1.278 . S
Mn603 O602 2.290 1_556 S
Mn603 O605 2.089 1_455 S
Mn603 O608 2.251 . S
Mn603 O609 2.087 . S
O604 Mn598 2.163 1_556 S
O604 C614 1.241 . S
O605 Mn603 2.089 1_655 S
O605 C612 1.295 . S
O606 Mn598 2.161 . S
O606 C615 1.228 1_655 S
O607 Mn600 2.089 1_455 S
O607 C615 1.256 . S
O608 Mn603 2.251 . S
O608 C613 1.241 1_556 S
O609 Mn603 2.087 . S
O609 C614 1.258 1_455 S
C610 O616 1.278 . S
C610 O617 1.241 . S
C611 O597 1.244 . S
C611 O599 1.256 . S
C612 O601 1.208 1_556 S
C612 O605 1.295 . S
C613 O602 1.278 . S
C613 O608 1.241 1_554 S
C614 O604 1.241 . S
C614 O609 1.258 1_655 S
C615 O606 1.228 1_455 S
C615 O607 1.256 . S
O616 Mn598 2.228 . S
O616 Mn600 2.290 . S
O616 C610 1.278 . S
O617 Mn600 2.251 . S
O617 C610 1.241 . S
O618 Mn619 2.163 1_556 S
O618 C632 1.245 . S
Mn619 O618 2.163 1_554 S
Mn619 O622 2.160 . S
Mn619 O623 2.221 . S
Mn619 O625 2.163 . S
Mn619 O627 2.160 1_554 S
Mn619 O637 2.221 1_554 S
O620 Mn621 2.087 . S
O620 C632 1.256 . S
Mn621 O620 2.087 . S
Mn621 O628 2.089 . S
Mn621 O637 2.290 . S
Mn621 O638 2.251 1_556 S
O622 Mn619 2.160 . S
O622 C633 1.239 . S
O623 Mn619 2.221 . S
O623 Mn624 2.290 . S
O623 C634 1.278 . S
Mn624 O623 2.290 . S
Mn624 O626 2.089 . S
Mn624 O629 2.251 . S
Mn624 O630 2.087 . S
O625 Mn619 2.163 . S
O625 C635 1.244 . S
O626 Mn624 2.089 . S
O626 C633 1.256 . S
O627 Mn619 2.160 1_556 S
O627 C636 1.239 . S
O628 Mn621 2.089 . S
O628 C636 1.256 . S
O629 Mn624 2.251 . S
O629 C634 1.241 . S
O630 Mn624 2.087 . S
O630 C635 1.256 . S
C631 O637 1.278 1_554 S
C631 O638 1.241 . S
C632 O618 1.245 . S
C632 O620 1.256 . S
C633 O622 1.239 . S
C633 O626 1.256 . S
C634 O623 1.278 . S
C634 O629 1.241 . S
C635 O625 1.244 . S
C635 O630 1.256 . S
C636 O627 1.239 . S
C636 O628 1.256 . S
O637 Mn619 2.221 1_556 S
O637 Mn621 2.290 . S
O637 C631 1.278 1_556 S
O638 Mn621 2.251 1_554 S
O638 C631 1.241 . S
O639 Mn640 2.163 . S
O639 C653 1.244 . S
Mn640 O639 2.163 . S
Mn640 O643 2.160 . S
Mn640 O644 2.221 . S
Mn640 O646 2.163 . S
Mn640 O648 2.160 . S
Mn640 O658 2.221 . S
O641 Mn642 2.087 . S
O641 C653 1.256 . S
Mn642 O641 2.087 . S
Mn642 O649 2.089 . S
Mn642 O658 2.290 . S
Mn642 O659 2.251 . S
O643 Mn640 2.160 . S
O643 C654 1.239 . S
O644 Mn640 2.221 . S
O644 Mn645 2.290 . S
O644 C655 1.278 . S
Mn645 O644 2.290 . S
Mn645 O647 2.089 . S
Mn645 O650 2.251 . S
Mn645 O651 2.087 . S
O646 Mn640 2.163 . S
O646 C656 1.244 . S
O647 Mn645 2.089 . S
O647 C654 1.256 . S
O648 Mn640 2.160 . S
O648 C657 1.239 . S
O649 Mn642 2.089 . S
O649 C657 1.256 . S
O650 Mn645 2.251 . S
O650 C655 1.241 . S
O651 Mn645 2.087 . S
O651 C656 1.256 . S
C652 O658 1.278 . S
C652 O659 1.241 . S
C653 O639 1.244 . S
C653 O641 1.256 . S
C654 O643 1.239 . S
C654 O647 1.256 . S
C655 O644 1.278 . S
C655 O650 1.241 . S
C656 O646 1.244 . S
C656 O651 1.256 . S
C657 O648 1.239 . S
C657 O649 1.256 . S
O658 Mn640 2.221 . S
O658 Mn642 2.290 . S
O658 C652 1.278 . S
O659 Mn642 2.251 . S
O659 C652 1.241 . S
O660 Mn661 2.163 . S
O660 C674 1.244 . S
Mn661 O660 2.163 . S
Mn661 O664 2.160 . S
Mn661 O665 2.221 . S
Mn661 O667 2.163 . S
Mn661 O669 2.160 . S
Mn661 O679 2.221 . S
O662 Mn663 2.087 . S
O662 C674 1.256 . S
Mn663 O662 2.087 . S
Mn663 O670 2.089 . S
Mn663 O679 2.290 . S
Mn663 O680 2.251 . S
O664 Mn661 2.160 . S
O664 C675 1.239 . S
O665 Mn661 2.221 . S
O665 Mn666 2.290 . S
O665 C676 1.278 . S
Mn666 O665 2.290 . S
Mn666 O668 2.089 . S
Mn666 O671 2.251 . S
Mn666 O672 2.087 . S
O667 Mn661 2.163 . S
O667 C677 1.244 . S
O668 Mn666 2.089 . S
O668 C675 1.256 . S
O669 Mn661 2.160 . S
O669 C678 1.239 . S
O670 Mn663 2.089 . S
O670 C678 1.256 . S
O671 Mn666 2.251 . S
O671 C676 1.241 . S
O672 Mn666 2.087 . S
O672 C677 1.256 . S
C673 O679 1.278 . S
C673 O680 1.241 . S
C674 O660 1.244 . S
C674 O662 1.256 . S
C675 O664 1.239 . S
C675 O668 1.256 . S
C676 O665 1.278 . S
C676 O671 1.241 . S
C677 O667 1.244 . S
C677 O672 1.256 . S
C678 O669 1.239 . S
C678 O670 1.256 . S
O679 Mn661 2.221 . S
O679 Mn663 2.290 . S
O679 C673 1.278 . S
O680 Mn663 2.251 . S
O680 C673 1.241 . S
O681 Mn682 2.163 . S
O681 C695 1.244 . S
Mn682 O681 2.163 . S
Mn682 O685 2.160 . S
Mn682 O686 2.221 . S
Mn682 O688 2.163 . S
Mn682 O690 2.160 . S
Mn682 O700 2.221 . S
O683 Mn684 2.087 . S
O683 C695 1.256 . S
Mn684 O683 2.087 . S
Mn684 O691 2.089 . S
Mn684 O700 2.290 . S
Mn684 O701 2.251 . S
O685 Mn682 2.160 . S
O685 C696 1.239 . S
O686 Mn682 2.221 . S
O686 Mn687 2.290 . S
O686 C697 1.278 . S
Mn687 O686 2.290 . S
Mn687 O689 2.089 . S
Mn687 O692 2.251 . S
Mn687 O693 2.087 . S
O688 Mn682 2.163 . S
O688 C698 1.244 . S
O689 Mn687 2.089 . S
O689 C696 1.256 . S
O690 Mn682 2.160 . S
O690 C699 1.239 . S
O691 Mn684 2.089 . S
O691 C699 1.256 . S
O692 Mn687 2.251 . S
O692 C697 1.241 . S
O693 Mn687 2.087 . S
O693 C698 1.256 . S
C694 O700 1.278 . S
C694 O701 1.241 . S
C695 O681 1.244 . S
C695 O683 1.256 . S
C696 O685 1.239 . S
C696 O689 1.256 . S
C697 O686 1.278 . S
C697 O692 1.241 . S
C698 O688 1.244 . S
C698 O693 1.256 . S
C699 O690 1.239 . S
C699 O691 1.256 . S
O700 Mn682 2.221 . S
O700 Mn684 2.290 . S
O700 C694 1.278 . S
O701 Mn684 2.251 . S
O701 C694 1.241 . S
O702 Mn703 2.163 . S
O702 C716 1.244 . S
Mn703 O702 2.163 . S
Mn703 O706 2.160 . S
Mn703 O707 2.221 . S
Mn703 O709 2.163 . S
Mn703 O711 2.160 . S
Mn703 O721 2.221 . S
O704 Mn705 2.087 . S
O704 C716 1.256 . S
Mn705 O704 2.087 . S
Mn705 O712 2.089 . S
Mn705 O721 2.290 . S
Mn705 O722 2.251 . S
O706 Mn703 2.160 . S
O706 C717 1.239 . S
O707 Mn703 2.221 . S
O707 Mn708 2.290 . S
O707 C718 1.278 . S
Mn708 O707 2.290 . S
Mn708 O710 2.089 . S
Mn708 O713 2.251 . S
Mn708 O714 2.087 . S
O709 Mn703 2.163 . S
O709 C719 1.244 . S
O710 Mn708 2.089 . S
O710 C717 1.256 . S
O711 Mn703 2.160 . S
O711 C720 1.239 . S
O712 Mn705 2.089 . S
O712 C720 1.256 . S
O713 Mn708 2.251 . S
O713 C718 1.241 . S
O714 Mn708 2.087 . S
O714 C719 1.256 . S
C715 O721 1.278 . S
C715 O722 1.241 . S
C716 O702 1.244 . S
C716 O704 1.256 . S
C717 O706 1.239 . S
C717 O710 1.256 . S
C718 O707 1.278 . S
C718 O713 1.241 . S
C719 O709 1.244 . S
C719 O714 1.256 . S
C720 O711 1.239 . S
C720 O712 1.256 . S
O721 Mn703 2.221 . S
O721 Mn705 2.290 . S
O721 C715 1.278 . S
O722 Mn705 2.251 . S
O722 C715 1.241 . S
O723 Mn724 2.163 . S
O723 C737 1.244 . S
Mn724 O723 2.163 . S
Mn724 O727 2.160 . S
Mn724 O728 2.221 . S
Mn724 O730 2.163 . S
Mn724 O732 2.160 . S
Mn724 O742 2.221 . S
O725 Mn726 2.087 . S
O725 C737 1.256 . S
Mn726 O725 2.087 . S
Mn726 O733 2.089 . S
Mn726 O742 2.290 . S
Mn726 O743 2.251 . S
O727 Mn724 2.160 . S
O727 C738 1.239 . S
O728 Mn724 2.221 . S
O728 Mn729 2.290 . S
O728 C739 1.278 . S
Mn729 O728 2.290 . S
Mn729 O731 2.089 . S
Mn729 O734 2.251 . S
Mn729 O735 2.087 . S
O730 Mn724 2.163 . S
O730 C740 1.244 . S
O731 Mn729 2.089 . S
O731 C738 1.256 . S
O732 Mn724 2.160 . S
O732 C741 1.239 . S
O733 Mn726 2.089 . S
O733 C741 1.256 . S
O734 Mn729 2.251 . S
O734 C739 1.241 . S
O735 Mn729 2.087 . S
O735 C740 1.256 . S
C736 O742 1.278 . S
C736 O743 1.241 . S
C737 O723 1.244 . S
C737 O725 1.256 . S
C738 O727 1.239 . S
C738 O731 1.256 . S
C739 O728 1.278 . S
C739 O734 1.241 . S
C740 O730 1.244 . S
C740 O735 1.256 . S
C741 O732 1.239 . S
C741 O733 1.256 . S
O742 Mn724 2.221 . S
O742 Mn726 2.290 . S
O742 C736 1.278 . S
O743 Mn726 2.251 . S
O743 C736 1.241 . S
O744 Mn745 2.163 . S
O744 C758 1.244 . S
Mn745 O744 2.163 . S
Mn745 O748 2.160 . S
Mn745 O749 2.221 . S
Mn745 O751 2.163 . S
Mn745 O753 2.160 . S
Mn745 O763 2.221 . S
O746 Mn747 2.087 . S
O746 C758 1.256 . S
Mn747 O746 2.087 . S
Mn747 O754 2.089 . S
Mn747 O763 2.290 . S
Mn747 O764 2.251 . S
O748 Mn745 2.160 . S
O748 C759 1.239 . S
O749 Mn745 2.221 . S
O749 Mn750 2.290 . S
O749 C760 1.278 . S
Mn750 O749 2.290 . S
Mn750 O752 2.089 . S
Mn750 O755 2.251 . S
Mn750 O756 2.087 . S
O751 Mn745 2.163 . S
O751 C761 1.244 . S
O752 Mn750 2.089 . S
O752 C759 1.256 . S
O753 Mn745 2.160 . S
O753 C762 1.239 . S
O754 Mn747 2.089 . S
O754 C762 1.256 . S
O755 Mn750 2.251 . S
O755 C760 1.241 . S
O756 Mn750 2.087 . S
O756 C761 1.256 . S
C757 O763 1.278 . S
C757 O764 1.241 . S
C758 O744 1.244 . S
C758 O746 1.256 . S
C759 O748 1.239 . S
C759 O752 1.256 . S
C760 O749 1.278 . S
C760 O755 1.241 . S
C761 O751 1.244 . S
C761 O756 1.256 . S
C762 O753 1.239 . S
C762 O754 1.256 . S
O763 Mn745 2.221 . S
O763 Mn747 2.290 . S
O763 C757 1.278 . S
O764 Mn747 2.251 . S
O764 C757 1.241 . S
C765 C766 1.349 . S
C765 C767 1.327 . S
C765 H790 0.950 . S
C766 C765 1.349 . S
C766 C782 1.349 . S
C767 C765 1.327 . S
C767 C786 1.429 . S
C767 H791 0.950 . S
C768 C785 1.574 . S
C768 C787 1.368 . S
C768 H792 0.949 . S
H769 C773 0.949 . S
C770 C771 1.349 . S
C770 C772 1.327 . S
C770 H793 0.950 . S
C771 C770 1.349 . S
C771 C783 1.349 . S
C772 C770 1.327 . S
C772 C788 1.429 . S
C772 H794 0.950 . S
C773 H769 0.949 . S
C773 C781 1.574 . S
C773 C789 1.368 . S
H774 C782 0.950 . S
H775 C780 0.950 . S
H776 C781 0.949 . S
H777 C783 0.950 1_556 S
H778 C784 0.950 1_556 S
H779 C785 0.949 . S
C780 H775 0.950 . S
C780 C782 1.327 . S
C780 C786 1.429 . S
C781 C773 1.574 . S
C781 H776 0.949 . S
C781 C787 1.368 . S
C782 C766 1.349 . S
C782 H774 0.950 . S
C782 C780 1.327 . S
C783 C771 1.349 . S
C783 H777 0.950 1_554 S
C783 C784 1.327 . S
C784 H778 0.950 1_554 S
C784 C783 1.327 . S
C784 C788 1.429 . S
C785 C768 1.574 . S
C785 H779 0.949 . S
C785 C789 1.368 . S
C786 C767 1.429 . S
C786 C780 1.429 . S
C786 C787 1.523 . S
C787 C768 1.368 . S
C787 C781 1.368 . S
C787 C786 1.523 . S
C788 C772 1.429 . S
C788 C784 1.429 . S
C788 C789 1.523 . S
C789 C773 1.368 . S
C789 C785 1.368 . S
C789 C788 1.523 . S
H790 C765 0.950 . S
H791 C767 0.950 . S
H792 C768 0.949 . S
H793 C770 0.950 . S
H794 C772 0.950 . S
C795 C796 1.349 . S
C795 C797 1.327 . S
C795 H820 0.950 . S
C796 C795 1.349 . S
C796 C812 1.349 . S
C797 C795 1.327 . S
C797 C816 1.429 . S
C797 H821 0.950 . S
C798 C815 1.574 . S
C798 C817 1.368 . S
C798 H822 0.949 . S
H799 C803 0.949 . S
C800 C801 1.349 . S
C800 C802 1.327 . S
C800 H823 0.950 . S
C801 C800 1.349 . S
C801 C813 1.349 . S
C802 C800 1.327 . S
C802 C818 1.429 . S
C802 H824 0.950 . S
C803 H799 0.949 . S
C803 C811 1.574 . S
C803 C819 1.368 . S
H804 C812 0.950 . S
H805 C810 0.950 . S
H806 C811 0.949 . S
H807 C813 0.950 . S
H808 C814 0.950 . S
H809 C815 0.949 . S
C810 H805 0.950 . S
C810 C812 1.327 . S
C810 C816 1.429 . S
C811 C803 1.574 . S
C811 H806 0.949 . S
C811 C817 1.368 . S
C812 C796 1.349 . S
C812 H804 0.950 . S
C812 C810 1.327 . S
C813 C801 1.349 . S
C813 H807 0.950 . S
C813 C814 1.327 . S
C814 H808 0.950 . S
C814 C813 1.327 . S
C814 C818 1.429 . S
C815 C798 1.574 . S
C815 H809 0.949 . S
C815 C819 1.368 . S
C816 C797 1.429 . S
C816 C810 1.429 . S
C816 C817 1.523 . S
C817 C798 1.368 . S
C817 C811 1.368 . S
C817 C816 1.523 . S
C818 C802 1.429 . S
C818 C814 1.429 . S
C818 C819 1.523 . S
C819 C803 1.368 . S
C819 C815 1.368 . S
C819 C818 1.523 . S
H820 C795 0.950 . S
H821 C797 0.950 . S
H822 C798 0.949 . S
H823 C800 0.950 . S
H824 C802 0.950 . S
C825 C826 1.349 . S
C825 C827 1.327 . S
C825 H850 0.950 . S
C826 C825 1.349 . S
C826 C842 1.349 . S
C827 C825 1.327 . S
C827 C846 1.429 . S
C827 H851 0.950 . S
C828 C845 1.574 . S
C828 C847 1.368 . S
C828 H852 0.949 . S
H829 C833 0.949 . S
C830 C831 1.349 . S
C830 C832 1.327 . S
C830 H853 0.950 1_554 S
C831 C830 1.349 . S
C831 C843 1.349 . S
C832 C830 1.327 . S
C832 C848 1.429 . S
C832 H854 0.950 1_554 S
C833 H829 0.949 . S
C833 C841 1.574 . S
C833 C849 1.368 . S
H834 C842 0.950 . S
H835 C840 0.950 . S
H836 C841 0.949 . S
H837 C843 0.950 . S
H838 C844 0.950 . S
H839 C845 0.949 . S
C840 H835 0.950 . S
C840 C842 1.327 . S
C840 C846 1.429 . S
C841 C833 1.574 . S
C841 H836 0.949 . S
C841 C847 1.368 . S
C842 C826 1.349 . S
C842 H834 0.950 . S
C842 C840 1.327 . S
C843 C831 1.349 . S
C843 H837 0.950 . S
C843 C844 1.327 . S
C844 H838 0.950 . S
C844 C843 1.327 . S
C844 C848 1.429 . S
C845 C828 1.574 . S
C845 H839 0.949 . S
C845 C849 1.368 . S
C846 C827 1.429 . S
C846 C840 1.429 . S
C846 C847 1.523 . S
C847 C828 1.368 . S
C847 C841 1.368 . S
C847 C846 1.523 . S
C848 C832 1.429 . S
C848 C844 1.429 . S
C848 C849 1.523 . S
C849 C833 1.368 . S
C849 C845 1.368 . S
C849 C848 1.523 . S
H850 C825 0.950 . S
H851 C827 0.950 . S
H852 C828 0.949 . S
H853 C830 0.950 1_556 S
H854 C832 0.950 1_556 S
C855 C856 1.349 . S
C855 C857 1.327 . S
C855 H880 0.950 . S
C856 C855 1.349 . S
C856 C872 1.349 . S
C857 C855 1.327 . S
C857 C876 1.429 . S
C857 H881 0.950 . S
C858 C875 1.574 . S
C858 C877 1.368 . S
C858 H882 0.949 . S
H859 C863 0.949 1_554 S
C860 C861 1.349 . S
C860 C862 1.327 . S
C860 H883 0.950 . S
C861 C860 1.349 . S
C861 C873 1.349 1_556 S
C862 C860 1.327 . S
C862 C878 1.429 . S
C862 H884 0.950 . S
C863 H859 0.949 1_556 S
C863 C871 1.574 . S
C863 C879 1.368 . S
H864 C872 0.950 . S
H865 C870 0.950 . S
H866 C871 0.949 1_554 S
H867 C873 0.950 . S
H868 C874 0.950 . S
H869 C875 0.949 . S
C870 H865 0.950 . S
C870 C872 1.327 . S
C870 C876 1.429 . S
C871 C863 1.574 . S
C871 H866 0.949 1_556 S
C871 C877 1.368 . S
C872 C856 1.349 . S
C872 H864 0.950 . S
C872 C870 1.327 . S
C873 C861 1.349 1_554 S
C873 H867 0.950 . S
C873 C874 1.327 . S
C874 H868 0.950 . S
C874 C873 1.327 . S
C874 C878 1.429 1_554 S
C875 C858 1.574 . S
C875 H869 0.949 . S
C875 C879 1.368 . S
C876 C857 1.429 . S
C876 C870 1.429 . S
C876 C877 1.523 . S
C877 C858 1.368 . S
C877 C871 1.368 . S
C877 C876 1.523 . S
C878 C862 1.429 . S
C878 C874 1.429 1_556 S
C878 C879 1.523 . S
C879 C863 1.368 . S
C879 C875 1.368 . S
C879 C878 1.523 . S
H880 C855 0.950 . S
H881 C857 0.950 . S
H882 C858 0.949 . S
H883 C860 0.950 . S
H884 C862 0.950 . S
C885 C886 1.349 . S
C885 C887 1.327 . S
C885 H910 0.950 . S
C886 C885 1.349 . S
C886 C902 1.349 . S
C887 C885 1.327 . S
C887 C906 1.429 . S
C887 H911 0.950 . S
C888 C905 1.574 . S
C888 C907 1.368 . S
C888 H912 0.949 . S
H889 C893 0.949 . S
C890 C891 1.349 1_554 S
C890 C892 1.327 1_554 S
C890 H913 0.950 . S
C891 C890 1.349 1_556 S
C891 C903 1.349 . S
C892 C890 1.327 1_556 S
C892 C908 1.429 . S
C892 H914 0.950 1_556 S
C893 H889 0.949 . S
C893 C901 1.574 . S
C893 C909 1.368 . S
H894 C902 0.950 . S
H895 C900 0.950 . S
H896 C901 0.949 . S
H897 C903 0.950 . S
H898 C904 0.950 . S
H899 C905 0.947 1_554 S
C900 H895 0.950 . S
C900 C902 1.327 . S
C900 C906 1.429 . S
C901 C893 1.574 . S
C901 H896 0.949 . S
C901 C907 1.368 . S
C902 C886 1.349 . S
C902 H894 0.950 . S
C902 C900 1.327 . S
C903 C891 1.349 . S
C903 H897 0.950 . S
C903 C904 1.327 . S
C904 H898 0.950 . S
C904 C903 1.327 . S
C904 C908 1.429 . S
C905 C888 1.574 . S
C905 H899 0.947 1_556 S
C905 C909 1.368 . S
C906 C887 1.429 . S
C906 C900 1.429 . S
C906 C907 1.523 . S
C907 C888 1.368 . S
C907 C901 1.368 . S
C907 C906 1.523 . S
C908 C892 1.429 . S
C908 C904 1.429 . S
C908 C909 1.523 . S
C909 C893 1.368 . S
C909 C905 1.368 . S
C909 C908 1.523 . S
H910 C885 0.950 . S
H911 C887 0.950 . S
H912 C888 0.949 . S
H913 C890 0.950 . S
H914 C892 0.950 1_554 S
C915 C916 1.349 . S
C915 C917 1.327 . S
C915 H940 0.950 . S
C916 C915 1.349 . S
C916 C932 1.349 . S
C917 C915 1.327 . S
C917 C936 1.429 . S
C917 H941 0.950 1_556 S
C918 C935 1.574 . S
C918 C937 1.368 . S
C918 H942 0.949 . S
H919 C923 0.949 . S
C920 C921 1.349 . S
C920 C922 1.327 . S
C920 H943 0.950 . S
C921 C920 1.349 . S
C921 C933 1.349 1_556 S
C922 C920 1.327 . S
C922 C938 1.429 . S
C922 H944 0.950 . S
C923 H919 0.949 . S
C923 C931 1.574 1_554 S
C923 C939 1.368 1_554 S
H924 C932 0.950 . S
H925 C930 0.950 . S
H926 C931 0.949 1_554 S
H927 C933 0.950 . S
H928 C934 0.950 . S
H929 C935 0.949 . S
C930 H925 0.950 . S
C930 C932 1.327 . S
C930 C936 1.429 . S
C931 C923 1.574 1_556 S
C931 H926 0.949 1_556 S
C931 C937 1.368 . S
C932 C916 1.349 . S
C932 H924 0.950 . S
C932 C930 1.327 . S
C933 C921 1.349 1_554 S
C933 H927 0.950 . S
C933 C934 1.327 . S
C934 H928 0.950 . S
C934 C933 1.327 . S
C934 C938 1.429 1_554 S
C935 C918 1.574 . S
C935 H929 0.949 . S
C935 C939 1.368 . S
C936 C917 1.429 . S
C936 C930 1.429 . S
C936 C937 1.523 . S
C937 C918 1.368 . S
C937 C931 1.368 . S
C937 C936 1.523 . S
C938 C922 1.429 . S
C938 C934 1.429 1_556 S
C938 C939 1.523 . S
C939 C923 1.368 1_556 S
C939 C935 1.368 . S
C939 C938 1.523 . S
H940 C915 0.950 . S
H941 C917 0.950 1_554 S
H942 C918 0.949 . S
H943 C920 0.950 . S
H944 C922 0.950 . S
C945 C946 1.349 . S
C945 C947 1.327 . S
C945 H970 0.950 . S
C946 C945 1.349 . S
C946 C962 1.349 . S
C947 C945 1.327 . S
C947 C966 1.429 . S
C947 H971 0.950 1_556 S
C948 C965 1.574 . S
C948 C967 1.368 . S
C948 H972 0.949 . S
H949 C953 0.949 . S
C950 C951 1.349 . S
C950 C952 1.327 . S
C950 H973 0.950 . S
C951 C950 1.349 . S
C951 C963 1.349 1_556 S
C952 C950 1.327 . S
C952 C968 1.429 . S
C952 H974 0.950 . S
C953 H949 0.949 . S
C953 C961 1.574 1_554 S
C953 C969 1.368 1_554 S
H954 C962 0.950 . S
H955 C960 0.950 . S
H956 C961 0.949 1_554 S
H957 C963 0.950 . S
H958 C964 0.950 . S
H959 C965 0.949 . S
C960 H955 0.950 . S
C960 C962 1.327 . S
C960 C966 1.429 . S
C961 C953 1.574 1_556 S
C961 H956 0.949 1_556 S
C961 C967 1.368 . S
C962 C946 1.349 . S
C962 H954 0.950 . S
C962 C960 1.327 . S
C963 C951 1.349 1_554 S
C963 H957 0.950 . S
C963 C964 1.327 . S
C964 H958 0.950 . S
C964 C963 1.327 . S
C964 C968 1.429 1_554 S
C965 C948 1.574 . S
C965 H959 0.949 . S
C965 C969 1.368 . S
C966 C947 1.429 . S
C966 C960 1.429 . S
C966 C967 1.523 . S
C967 C948 1.368 . S
C967 C961 1.368 . S
C967 C966 1.523 . S
C968 C952 1.429 . S
C968 C964 1.429 1_556 S
C968 C969 1.523 . S
C969 C953 1.368 1_556 S
C969 C965 1.368 . S
C969 C968 1.523 . S
H970 C945 0.950 . S
H971 C947 0.950 1_554 S
H972 C948 0.949 . S
H973 C950 0.950 . S
H974 C952 0.950 . S
C975 C976 1.349 . S
C975 C977 1.327 . S
C975 H1000 0.950 . S
C976 C975 1.349 . S
C976 C992 1.349 . S
C977 C975 1.327 . S
C977 C996 1.429 . S
C977 H1001 0.950 . S
C978 C995 1.574 . S
C978 C997 1.368 . S
C978 H1002 0.949 . S
H979 C983 0.949 . S
C980 C981 1.329 1_554 S
C980 C982 1.327 . S
C980 H1003 0.950 . S
C981 C980 1.329 1_556 S
C981 C993 1.380 . S
C982 C980 1.327 . S
C982 C998 1.429 1_554 S
C982 H1004 0.950 . S
C983 H979 0.949 . S
C983 C991 1.574 . S
C983 C999 1.368 . S
H984 C992 0.950 . S
H985 C990 0.950 . S
H986 C991 0.949 . S
H987 C993 0.950 . S
H988 C994 0.950 . S
H989 C995 0.949 1_554 S
C990 H985 0.950 . S
C990 C992 1.327 . S
C990 C996 1.429 . S
C991 C983 1.574 . S
C991 H986 0.949 . S
C991 C997 1.368 . S
C992 C976 1.349 . S
C992 H984 0.950 . S
C992 C990 1.327 . S
C993 C981 1.380 . S
C993 H987 0.950 . S
C993 C994 1.327 . S
C994 H988 0.950 . S
C994 C993 1.327 . S
C994 C998 1.429 . S
C995 C978 1.574 . S
C995 H989 0.949 1_556 S
C995 C999 1.368 . S
C996 C977 1.429 . S
C996 C990 1.429 . S
C996 C997 1.523 . S
C997 C978 1.368 . S
C997 C991 1.368 . S
C997 C996 1.523 . S
C998 C982 1.429 1_556 S
C998 C994 1.429 . S
C998 C999 1.523 . S
C999 C983 1.368 . S
C999 C995 1.368 . S
C999 C998 1.523 . S
H1000 C975 0.950 . S
H1001 C977 0.950 . S
H1002 C978 0.949 . S
H1003 C980 0.950 . S
H1004 C982 0.950 . S
C1005 C1006 1.349 . S
C1005 C1007 1.327 . S
C1005 H1030 0.950 . S
C1006 C1005 1.349 . S
C1006 C1022 1.349 . S
C1007 C1005 1.327 . S
C1007 C1026 1.429 . S
C1007 H1031 0.950 . S
C1008 C1025 1.574 . S
C1008 C1027 1.368 . S
C1008 H1032 0.949 . S
H1009 C1013 0.949 1_554 S
C1010 C1011 1.349 . S
C1010 C1012 1.327 . S
C1010 H1033 0.950 . S
C1011 C1010 1.349 . S
C1011 C1023 1.349 1_556 S
C1012 C1010 1.327 . S
C1012 C1028 1.429 . S
C1012 H1034 0.950 . S
C1013 H1009 0.949 1_556 S
C1013 C1021 1.574 . S
C1013 C1029 1.368 . S
H1014 C1022 0.950 . S
H1015 C1020 0.950 . S
H1016 C1021 0.944 1_554 S
H1017 C1023 0.950 . S
H1018 C1024 0.950 . S
H1019 C1025 0.949 . S
C1020 H1015 0.950 . S
C1020 C1022 1.327 . S
C1020 C1026 1.429 . S
C1021 C1013 1.574 . S
C1021 H1016 0.944 1_556 S
C1021 C1027 1.368 . S
C1022 C1006 1.349 . S
C1022 H1014 0.950 . S
C1022 C1020 1.327 . S
C1023 C1011 1.349 1_554 S
C1023 H1017 0.950 . S
C1023 C1024 1.327 . S
C1024 H1018 0.950 . S
C1024 C1023 1.327 . S
C1024 C1028 1.429 1_554 S
C1025 C1008 1.574 . S
C1025 H1019 0.949 . S
C1025 C1029 1.368 . S
C1026 C1007 1.429 . S
C1026 C1020 1.429 . S
C1026 C1027 1.523 . S
C1027 C1008 1.368 . S
C1027 C1021 1.368 . S
C1027 C1026 1.523 . S
C1028 C1012 1.429 . S
C1028 C1024 1.429 1_556 S
C1028 C1029 1.523 . S
C1029 C1013 1.368 . S
C1029 C1025 1.368 . S
C1029 C1028 1.523 . S
H1030 C1005 0.950 . S
H1031 C1007 0.950 . S
H1032 C1008 0.949 . S
H1033 C1010 0.950 . S
H1034 C1012 0.950 . S
C1035 C1036 1.349 . S
C1035 C1037 1.327 . S
C1035 H1060 0.950 . S
C1036 C1035 1.349 . S
C1036 C1052 1.349 . S
C1037 C1035 1.327 . S
C1037 C1056 1.429 . S
C1037 H1061 0.950 . S
C1038 C1055 1.574 . S
C1038 C1057 1.368 . S
C1038 H1062 0.949 . S
H1039 C1043 0.910 1_556 S
C1040 C1041 1.349 . S
C1040 C1042 1.327 . S
C1040 H1063 0.950 . S
C1041 C1040 1.349 . S
C1041 C1053 1.358 . S
C1042 C1040 1.327 . S
C1042 C1058 1.429 . S
C1042 H1064 0.950 . S
C1043 H1039 0.910 1_554 S
C1043 C1051 1.574 . S
C1043 C1059 1.368 . S
H1044 C1052 0.950 . S
H1045 C1050 0.950 . S
H1046 C1051 0.949 . S
H1047 C1053 0.938 1_556 S
H1048 C1054 0.950 1_556 S
H1049 C1055 0.949 . S
C1050 H1045 0.950 . S
C1050 C1052 1.327 . S
C1050 C1056 1.429 . S
C1051 C1043 1.574 . S
C1051 H1046 0.949 . S
C1051 C1057 1.368 . S
C1052 C1036 1.349 . S
C1052 H1044 0.950 . S
C1052 C1050 1.327 . S
C1053 C1041 1.358 . S
C1053 H1047 0.938 1_554 S
C1053 C1054 1.329 . S
C1054 H1048 0.950 1_554 S
C1054 C1053 1.329 . S
C1054 C1058 1.429 . S
C1055 C1038 1.574 . S
C1055 H1049 0.949 . S
C1055 C1059 1.368 . S
C1056 C1037 1.429 . S
C1056 C1050 1.429 . S
C1056 C1057 1.523 . S
C1057 C1038 1.368 . S
C1057 C1051 1.368 . S
C1057 C1056 1.523 . S
C1058 C1042 1.429 . S
C1058 C1054 1.429 . S
C1058 C1059 1.523 . S
C1059 C1043 1.368 . S
C1059 C1055 1.368 . S
C1059 C1058 1.523 . S
H1060 C1035 0.950 . S
H1061 C1037 0.950 . S
H1062 C1038 0.949 . S
H1063 C1040 0.950 . S
H1064 C1042 0.950 . S
C1065 C1066 1.349 . S
C1065 C1067 1.327 . S
C1065 H1090 0.950 . S
C1066 C1065 1.349 . S
C1066 C1082 1.349 . S
C1067 C1065 1.327 . S
C1067 C1086 1.429 . S
C1067 H1091 0.950 . S
C1068 C1085 1.574 . S
C1068 C1087 1.368 . S
C1068 H1092 0.949 . S
H1069 C1073 0.949 . S
C1070 C1071 1.349 . S
C1070 C1072 1.327 . S
C1070 H1093 0.950 . S
C1071 C1070 1.349 . S
C1071 C1083 1.349 . S
C1072 C1070 1.327 . S
C1072 C1088 1.429 . S
C1072 H1094 0.950 . S
C1073 H1069 0.949 . S
C1073 C1081 1.574 . S
C1073 C1089 1.368 . S
H1074 C1082 0.950 . S
H1075 C1080 0.950 . S
H1076 C1081 0.949 . S
H1077 C1083 0.950 . S
H1078 C1084 0.950 . S
H1079 C1085 0.949 . S
C1080 H1075 0.950 . S
C1080 C1082 1.327 . S
C1080 C1086 1.429 . S
C1081 C1073 1.574 . S
C1081 H1076 0.949 . S
C1081 C1087 1.368 . S
C1082 C1066 1.349 . S
C1082 H1074 0.950 . S
C1082 C1080 1.327 . S
C1083 C1071 1.349 . S
C1083 H1077 0.950 . S
C1083 C1084 1.327 . S
C1084 H1078 0.950 . S
C1084 C1083 1.327 . S
C1084 C1088 1.429 . S
C1085 C1068 1.574 . S
C1085 H1079 0.949 . S
C1085 C1089 1.368 . S
C1086 C1067 1.429 . S
C1086 C1080 1.429 . S
C1086 C1087 1.523 . S
C1087 C1068 1.368 . S
C1087 C1081 1.368 . S
C1087 C1086 1.523 . S
C1088 C1072 1.429 . S
C1088 C1084 1.429 . S
C1088 C1089 1.523 . S
C1089 C1073 1.368 . S
C1089 C1085 1.368 . S
C1089 C1088 1.523 . S
H1090 C1065 0.950 . S
H1091 C1067 0.950 . S
H1092 C1068 0.949 . S
H1093 C1070 0.950 . S
H1094 C1072 0.950 . S
C1095 C1096 1.349 . S
C1095 C1097 1.327 . S
C1095 H1120 0.950 . S
C1096 C1095 1.349 . S
C1096 C1112 1.349 . S
C1097 C1095 1.327 . S
C1097 C1116 1.429 . S
C1097 H1121 0.950 . S
C1098 C1115 1.574 . S
C1098 C1117 1.368 . S
C1098 H1122 0.949 . S
H1099 C1103 0.949 . S
C1100 C1101 1.373 . S
C1100 C1102 1.336 . S
C1100 H1123 0.918 1_554 S
C1101 C1100 1.373 . S
C1101 C1113 1.349 . S
C1102 C1100 1.336 . S
C1102 C1118 1.429 . S
C1102 H1124 0.950 1_554 S
C1103 H1099 0.949 . S
C1103 C1111 1.574 . S
C1103 C1119 1.368 . S
H1104 C1112 0.950 . S
H1105 C1110 0.950 . S
H1106 C1111 0.949 . S
H1107 C1113 0.950 . S
H1108 C1114 0.950 . S
H1109 C1115 0.949 . S
C1110 H1105 0.950 . S
C1110 C1112 1.327 . S
C1110 C1116 1.429 . S
C1111 C1103 1.574 . S
C1111 H1106 0.949 . S
C1111 C1117 1.368 . S
C1112 C1096 1.349 . S
C1112 H1104 0.950 . S
C1112 C1110 1.327 . S
C1113 C1101 1.349 . S
C1113 H1107 0.950 . S
C1113 C1114 1.327 . S
C1114 H1108 0.950 . S
C1114 C1113 1.327 . S
C1114 C1118 1.429 . S
C1115 C1098 1.574 . S
C1115 H1109 0.949 . S
C1115 C1119 1.368 . S
C1116 C1097 1.429 . S
C1116 C1110 1.429 . S
C1116 C1117 1.523 . S
C1117 C1098 1.368 . S
C1117 C1111 1.368 . S
C1117 C1116 1.523 . S
C1118 C1102 1.429 . S
C1118 C1114 1.429 . S
C1118 C1119 1.523 . S
C1119 C1103 1.368 . S
C1119 C1115 1.368 . S
C1119 C1118 1.523 . S
H1120 C1095 0.950 . S
H1121 C1097 0.950 . S
H1122 C1098 0.949 . S
H1123 C1100 0.918 1_556 S
H1124 C1102 0.950 1_556 S
C1125 C1126 1.349 . S
C1125 C1127 1.327 . S
C1125 H1150 0.950 . S
C1126 C1125 1.349 . S
C1126 C1142 1.349 . S
C1127 C1125 1.327 . S
C1127 C1146 1.429 . S
C1127 H1151 0.950 . S
C1128 C1145 1.574 . S
C1128 C1147 1.368 . S
C1128 H1152 0.949 . S
H1129 C1133 0.949 . S
C1130 C1131 1.349 . S
C1130 C1132 1.327 . S
C1130 H1153 0.950 . S
C1131 C1130 1.349 . S
C1131 C1143 1.349 . S
C1132 C1130 1.327 . S
C1132 C1148 1.429 . S
C1132 H1154 0.950 . S
C1133 H1129 0.949 . S
C1133 C1141 1.574 . S
C1133 C1149 1.368 . S
H1134 C1142 0.950 . S
H1135 C1140 0.950 . S
H1136 C1141 0.949 . S
H1137 C1143 0.950 . S
H1138 C1144 0.950 . S
H1139 C1145 0.949 . S
C1140 H1135 0.950 . S
C1140 C1142 1.327 . S
C1140 C1146 1.429 . S
C1141 C1133 1.574 . S
C1141 H1136 0.949 . S
C1141 C1147 1.368 . S
C1142 C1126 1.349 . S
C1142 H1134 0.950 . S
C1142 C1140 1.327 . S
C1143 C1131 1.349 . S
C1143 H1137 0.950 . S
C1143 C1144 1.327 . S
C1144 H1138 0.950 . S
C1144 C1143 1.327 . S
C1144 C1148 1.429 . S
C1145 C1128 1.574 . S
C1145 H1139 0.949 . S
C1145 C1149 1.368 . S
C1146 C1127 1.429 . S
C1146 C1140 1.429 . S
C1146 C1147 1.523 1_655 S
C1147 C1128 1.368 . S
C1147 C1141 1.368 . S
C1147 C1146 1.523 1_455 S
C1148 C1132 1.429 . S
C1148 C1144 1.429 . S
C1148 C1149 1.523 . S
C1149 C1133 1.368 . S
C1149 C1145 1.368 . S
C1149 C1148 1.523 . S
H1150 C1125 0.950 . S
H1151 C1127 0.950 . S
H1152 C1128 0.949 . S
H1153 C1130 0.950 . S
H1154 C1132 0.950 . S
C1155 C1156 1.349 . S
C1155 C1157 1.327 . S
C1155 H1180 0.950 . S
C1156 C1155 1.349 . S
C1156 C1172 1.349 . S
C1157 C1155 1.327 . S
C1157 C1176 1.429 . S
C1157 H1181 0.950 . S
C1158 C1175 1.574 . S
C1158 C1177 1.368 . S
C1158 H1182 0.949 . S
H1159 C1163 0.949 . S
C1160 C1161 1.349 . S
C1160 C1162 1.327 . S
C1160 H1183 0.950 . S
C1161 C1160 1.349 . S
C1161 C1173 1.349 . S
C1162 C1160 1.327 . S
C1162 C1178 1.429 . S
C1162 H1184 0.950 . S
C1163 H1159 0.949 . S
C1163 C1171 1.574 . S
C1163 C1179 1.368 . S
H1164 C1172 0.950 . S
H1165 C1170 0.950 . S
H1166 C1171 0.949 . S
H1167 C1173 0.950 . S
H1168 C1174 0.950 . S
H1169 C1175 0.949 . S
C1170 H1165 0.950 . S
C1170 C1172 1.327 . S
C1170 C1176 1.429 . S
C1171 C1163 1.574 . S
C1171 H1166 0.949 . S
C1171 C1177 1.368 . S
C1172 C1156 1.349 . S
C1172 H1164 0.950 . S
C1172 C1170 1.327 . S
C1173 C1161 1.349 . S
C1173 H1167 0.950 . S
C1173 C1174 1.327 . S
C1174 H1168 0.950 . S
C1174 C1173 1.327 . S
C1174 C1178 1.429 . S
C1175 C1158 1.574 . S
C1175 H1169 0.949 . S
C1175 C1179 1.368 . S
C1176 C1157 1.429 . S
C1176 C1170 1.429 . S
C1176 C1177 1.523 . S
C1177 C1158 1.368 . S
C1177 C1171 1.368 . S
C1177 C1176 1.523 . S
C1178 C1162 1.429 . S
C1178 C1174 1.429 . S
C1178 C1179 1.523 . S
C1179 C1163 1.368 . S
C1179 C1175 1.368 . S
C1179 C1178 1.523 . S
H1180 C1155 0.950 . S
H1181 C1157 0.950 . S
H1182 C1158 0.949 . S
H1183 C1160 0.950 . S
H1184 C1162 0.950 . S
C1185 C1186 1.349 . S
C1185 C1187 1.327 . S
C1185 H1210 0.950 . S
C1186 C1185 1.349 . S
C1186 C1202 1.349 . S
C1187 C1185 1.327 . S
C1187 C1206 1.429 . S
C1187 H1211 0.950 . S
C1188 C1205 1.574 . S
C1188 C1207 1.368 . S
C1188 H1212 0.949 . S
H1189 C1193 0.949 . S
C1190 C1191 1.349 . S
C1190 C1192 1.327 . S
C1190 H1213 0.950 . S
C1191 C1190 1.349 . S
C1191 C1203 1.349 . S
C1192 C1190 1.327 . S
C1192 C1208 1.429 . S
C1192 H1214 0.950 . S
C1193 H1189 0.949 . S
C1193 C1201 1.574 . S
C1193 C1209 1.368 . S
H1194 C1202 0.950 . S
H1195 C1200 0.950 . S
H1196 C1201 0.949 1_545 S
H1197 C1203 0.950 . S
H1198 C1204 0.950 . S
H1199 C1205 0.949 . S
C1200 H1195 0.950 . S
C1200 C1202 1.327 . S
C1200 C1206 1.429 . S
C1201 C1193 1.574 . S
C1201 H1196 0.949 1_565 S
C1201 C1207 1.368 . S
C1202 C1186 1.349 . S
C1202 H1194 0.950 . S
C1202 C1200 1.327 . S
C1203 C1191 1.349 . S
C1203 H1197 0.950 . S
C1203 C1204 1.327 . S
C1204 H1198 0.950 . S
C1204 C1203 1.327 . S
C1204 C1208 1.429 . S
C1205 C1188 1.574 . S
C1205 H1199 0.949 . S
C1205 C1209 1.368 . S
C1206 C1187 1.429 . S
C1206 C1200 1.429 . S
C1206 C1207 1.523 1_545 S
C1207 C1188 1.368 . S
C1207 C1201 1.368 . S
C1207 C1206 1.523 1_565 S
C1208 C1192 1.429 . S
C1208 C1204 1.429 . S
C1208 C1209 1.523 . S
C1209 C1193 1.368 . S
C1209 C1205 1.368 . S
C1209 C1208 1.523 . S
H1210 C1185 0.950 . S
H1211 C1187 0.950 . S
H1212 C1188 0.949 . S
H1213 C1190 0.950 . S
H1214 C1192 0.950 . S
C1215 C1216 1.349 . S
C1215 C1217 1.327 . S
C1215 H1240 0.950 . S
C1216 C1215 1.349 . S
C1216 C1232 1.349 . S
C1217 C1215 1.327 . S
C1217 C1236 1.429 . S
C1217 H1241 0.950 . S
C1218 C1235 1.574 . S
C1218 C1237 1.368 . S
C1218 H1242 0.949 . S
H1219 C1223 0.949 . S
C1220 C1221 1.349 . S
C1220 C1222 1.327 . S
C1220 H1243 0.950 . S
C1221 C1220 1.349 . S
C1221 C1233 1.349 . S
C1222 C1220 1.327 . S
C1222 C1238 1.429 . S
C1222 H1244 0.950 . S
C1223 H1219 0.949 . S
C1223 C1231 1.574 . S
C1223 C1239 1.368 . S
H1224 C1232 0.950 . S
H1225 C1230 0.950 . S
H1226 C1231 0.949 . S
H1227 C1233 0.950 . S
H1228 C1234 0.950 . S
H1229 C1235 0.949 . S
C1230 H1225 0.950 . S
C1230 C1232 1.327 . S
C1230 C1236 1.429 . S
C1231 C1223 1.574 . S
C1231 H1226 0.949 . S
C1231 C1237 1.368 . S
C1232 C1216 1.349 . S
C1232 H1224 0.950 . S
C1232 C1230 1.327 . S
C1233 C1221 1.349 . S
C1233 H1227 0.950 . S
C1233 C1234 1.327 . S
C1234 H1228 0.950 . S
C1234 C1233 1.327 . S
C1234 C1238 1.429 . S
C1235 C1218 1.574 . S
C1235 H1229 0.949 . S
C1235 C1239 1.368 . S
C1236 C1217 1.429 . S
C1236 C1230 1.429 . S
C1236 C1237 1.523 . S
C1237 C1218 1.368 . S
C1237 C1231 1.368 . S
C1237 C1236 1.523 . S
C1238 C1222 1.429 . S
C1238 C1234 1.429 . S
C1238 C1239 1.523 . S
C1239 C1223 1.368 . S
C1239 C1235 1.368 . S
C1239 C1238 1.523 . S
H1240 C1215 0.950 . S
H1241 C1217 0.950 . S
H1242 C1218 0.949 . S
H1243 C1220 0.950 . S
H1244 C1222 0.950 . S
C1245 C1246 1.349 . S
C1245 C1247 1.327 . S
C1245 H1270 0.950 . S
C1246 C1245 1.349 . S
C1246 C1262 1.349 . S
C1247 C1245 1.327 . S
C1247 C1266 1.429 . S
C1247 H1271 0.950 . S
C1248 C1265 1.574 . S
C1248 C1267 1.368 . S
C1248 H1272 0.949 . S
H1249 C1253 0.949 . S
C1250 C1251 1.349 . S
C1250 C1252 1.327 . S
C1250 H1273 0.950 . S
C1251 C1250 1.349 . S
C1251 C1263 1.349 . S
C1252 C1250 1.327 . S
C1252 C1268 1.429 . S
C1252 H1274 0.950 . S
C1253 H1249 0.949 . S
C1253 C1261 1.574 . S
C1253 C1269 1.368 . S
H1254 C1262 0.950 . S
H1255 C1260 0.950 . S
H1256 C1261 0.949 . S
H1257 C1263 0.950 . S
H1258 C1264 0.950 . S
H1259 C1265 0.949 . S
C1260 H1255 0.950 . S
C1260 C1262 1.327 . S
C1260 C1266 1.429 . S
C1261 C1253 1.574 . S
C1261 H1256 0.949 . S
C1261 C1267 1.368 . S
C1262 C1246 1.349 . S
C1262 H1254 0.950 . S
C1262 C1260 1.327 . S
C1263 C1251 1.349 . S
C1263 H1257 0.950 . S
C1263 C1264 1.327 . S
C1264 H1258 0.950 . S
C1264 C1263 1.327 . S
C1264 C1268 1.429 . S
C1265 C1248 1.574 . S
C1265 H1259 0.949 . S
C1265 C1269 1.368 . S
C1266 C1247 1.429 . S
C1266 C1260 1.429 . S
C1266 C1267 1.523 . S
C1267 C1248 1.368 . S
C1267 C1261 1.368 . S
C1267 C1266 1.523 . S
C1268 C1252 1.429 . S
C1268 C1264 1.429 . S
C1268 C1269 1.523 . S
C1269 C1253 1.368 . S
C1269 C1265 1.368 . S
C1269 C1268 1.523 . S
H1270 C1245 0.950 . S
H1271 C1247 0.950 . S
H1272 C1248 0.949 . S
H1273 C1250 0.950 . S
H1274 C1252 0.950 . S
C1275 C1276 1.349 . S
C1275 C1277 1.327 . S
C1275 H1300 0.950 . S
C1276 C1275 1.349 . S
C1276 C1292 1.349 . S
C1277 C1275 1.327 . S
C1277 C1296 1.429 . S
C1277 H1301 0.950 . S
C1278 C1295 1.574 . S
C1278 C1297 1.368 . S
C1278 H1302 0.949 . S
H1279 C1283 0.949 . S
C1280 C1281 1.349 . S
C1280 C1282 1.327 . S
C1280 H1303 0.950 . S
C1281 C1280 1.349 . S
C1281 C1293 1.349 . S
C1282 C1280 1.327 . S
C1282 C1298 1.429 . S
C1282 H1304 0.950 . S
C1283 H1279 0.949 . S
C1283 C1291 1.574 . S
C1283 C1299 1.368 . S
H1284 C1292 0.950 . S
H1285 C1290 0.950 . S
H1286 C1291 0.949 . S
H1287 C1293 0.950 . S
H1288 C1294 0.950 . S
H1289 C1295 0.949 . S
C1290 H1285 0.950 . S
C1290 C1292 1.327 . S
C1290 C1296 1.429 . S
C1291 C1283 1.574 . S
C1291 H1286 0.949 . S
C1291 C1297 1.368 . S
C1292 C1276 1.349 . S
C1292 H1284 0.950 . S
C1292 C1290 1.327 . S
C1293 C1281 1.349 . S
C1293 H1287 0.950 . S
C1293 C1294 1.327 . S
C1294 H1288 0.950 . S
C1294 C1293 1.327 . S
C1294 C1298 1.429 . S
C1295 C1278 1.574 . S
C1295 H1289 0.949 . S
C1295 C1299 1.368 . S
C1296 C1277 1.429 . S
C1296 C1290 1.429 . S
C1296 C1297 1.523 . S
C1297 C1278 1.368 . S
C1297 C1291 1.368 . S
C1297 C1296 1.523 . S
C1298 C1282 1.429 . S
C1298 C1294 1.429 . S
C1298 C1299 1.523 . S
C1299 C1283 1.368 . S
C1299 C1295 1.368 . S
C1299 C1298 1.523 . S
H1300 C1275 0.950 . S
H1301 C1277 0.950 . S
H1302 C1278 0.949 . S
H1303 C1280 0.950 . S
H1304 C1282 0.950 . S
C1305 C1306 1.349 . S
C1305 C1307 1.327 . S
C1305 H1330 0.950 . S
C1306 C1305 1.349 . S
C1306 C1322 1.349 . S
C1307 C1305 1.327 . S
C1307 C1326 1.429 . S
C1307 H1331 0.950 . S
C1308 C1325 1.574 . S
C1308 C1327 1.368 . S
C1308 H1332 0.949 . S
H1309 C1313 0.949 . S
C1310 C1311 1.349 . S
C1310 C1312 1.327 . S
C1310 H1333 0.950 . S
C1311 C1310 1.349 . S
C1311 C1323 1.349 . S
C1312 C1310 1.327 . S
C1312 C1328 1.429 . S
C1312 H1334 0.950 . S
C1313 H1309 0.949 . S
C1313 C1321 1.574 . S
C1313 C1329 1.368 . S
H1314 C1322 0.950 . S
H1315 C1320 0.950 . S
H1316 C1321 0.949 . S
H1317 C1323 0.950 . S
H1318 C1324 0.950 . S
H1319 C1325 0.949 . S
C1320 H1315 0.950 . S
C1320 C1322 1.327 . S
C1320 C1326 1.429 . S
C1321 C1313 1.574 . S
C1321 H1316 0.949 . S
C1321 C1327 1.368 . S
C1322 C1306 1.349 . S
C1322 H1314 0.950 . S
C1322 C1320 1.327 . S
C1323 C1311 1.349 . S
C1323 H1317 0.950 . S
C1323 C1324 1.327 . S
C1324 H1318 0.950 . S
C1324 C1323 1.327 . S
C1324 C1328 1.429 . S
C1325 C1308 1.574 . S
C1325 H1319 0.949 . S
C1325 C1329 1.368 . S
C1326 C1307 1.429 . S
C1326 C1320 1.429 . S
C1326 C1327 1.523 . S
C1327 C1308 1.368 . S
C1327 C1321 1.368 . S
C1327 C1326 1.523 . S
C1328 C1312 1.429 . S
C1328 C1324 1.429 . S
C1328 C1329 1.523 . S
C1329 C1313 1.368 . S
C1329 C1325 1.368 . S
C1329 C1328 1.523 . S
H1330 C1305 0.950 . S
H1331 C1307 0.950 . S
H1332 C1308 0.949 . S
H1333 C1310 0.950 . S
H1334 C1312 0.950 . S
C1335 C1336 1.349 . S
C1335 C1337 1.327 . S
C1335 H1360 0.950 . S
C1336 C1335 1.349 . S
C1336 C1352 1.349 . S
C1337 C1335 1.327 . S
C1337 C1356 1.429 . S
C1337 H1361 0.950 . S
C1338 C1355 1.574 . S
C1338 C1357 1.368 . S
C1338 H1362 0.949 . S
H1339 C1343 0.949 . S
C1340 C1341 1.349 . S
C1340 C1342 1.327 . S
C1340 H1363 0.950 . S
C1341 C1340 1.349 . S
C1341 C1353 1.349 . S
C1342 C1340 1.327 . S
C1342 C1358 1.429 . S
C1342 H1364 0.950 . S
C1343 H1339 0.949 . S
C1343 C1351 1.574 . S
C1343 C1359 1.368 . S
H1344 C1352 0.950 . S
H1345 C1350 0.950 . S
H1346 C1351 0.949 . S
H1347 C1353 0.950 . S
H1348 C1354 0.950 . S
H1349 C1355 0.949 . S
C1350 H1345 0.950 . S
C1350 C1352 1.327 . S
C1350 C1356 1.429 . S
C1351 C1343 1.574 . S
C1351 H1346 0.949 . S
C1351 C1357 1.368 . S
C1352 C1336 1.349 . S
C1352 H1344 0.950 . S
C1352 C1350 1.327 . S
C1353 C1341 1.349 . S
C1353 H1347 0.950 . S
C1353 C1354 1.327 . S
C1354 H1348 0.950 . S
C1354 C1353 1.327 . S
C1354 C1358 1.429 . S
C1355 C1338 1.574 . S
C1355 H1349 0.949 . S
C1355 C1359 1.368 . S
C1356 C1337 1.429 . S
C1356 C1350 1.429 . S
C1356 C1357 1.523 . S
C1357 C1338 1.368 . S
C1357 C1351 1.368 . S
C1357 C1356 1.523 . S
C1358 C1342 1.429 . S
C1358 C1354 1.429 . S
C1358 C1359 1.523 . S
C1359 C1343 1.368 . S
C1359 C1355 1.368 . S
C1359 C1358 1.523 . S
H1360 C1335 0.950 . S
H1361 C1337 0.950 . S
H1362 C1338 0.949 . S
H1363 C1340 0.950 . S
H1364 C1342 0.950 . S
C1365 C1366 1.349 . S
C1365 C1367 1.327 . S
C1365 H1390 0.950 . S
C1366 C1365 1.349 . S
C1366 C1382 1.349 . S
C1367 C1365 1.327 . S
C1367 C1386 1.429 . S
C1367 H1391 0.950 . S
C1368 C1385 1.574 . S
C1368 C1387 1.368 . S
C1368 H1392 0.949 . S
H1369 C1373 0.949 . S
C1370 C1371 1.349 . S
C1370 C1372 1.327 . S
C1370 H1393 0.950 . S
C1371 C1370 1.349 . S
C1371 C1383 1.349 . S
C1372 C1370 1.327 . S
C1372 C1388 1.429 . S
C1372 H1394 0.950 . S
C1373 H1369 0.949 . S
C1373 C1381 1.574 . S
C1373 C1389 1.368 . S
H1374 C1382 0.950 . S
H1375 C1380 0.950 . S
H1376 C1381 0.949 . S
H1377 C1383 0.950 . S
H1378 C1384 0.950 . S
H1379 C1385 0.949 . S
C1380 H1375 0.950 . S
C1380 C1382 1.327 . S
C1380 C1386 1.429 . S
C1381 C1373 1.574 . S
C1381 H1376 0.949 . S
C1381 C1387 1.368 . S
C1382 C1366 1.349 . S
C1382 H1374 0.950 . S
C1382 C1380 1.327 . S
C1383 C1371 1.349 . S
C1383 H1377 0.950 . S
C1383 C1384 1.327 . S
C1384 H1378 0.950 . S
C1384 C1383 1.327 . S
C1384 C1388 1.429 . S
C1385 C1368 1.574 . S
C1385 H1379 0.949 . S
C1385 C1389 1.368 . S
C1386 C1367 1.429 . S
C1386 C1380 1.429 . S
C1386 C1387 1.523 . S
C1387 C1368 1.368 . S
C1387 C1381 1.368 . S
C1387 C1386 1.523 . S
C1388 C1372 1.429 . S
C1388 C1384 1.429 . S
C1388 C1389 1.523 . S
C1389 C1373 1.368 . S
C1389 C1385 1.368 . S
C1389 C1388 1.523 . S
H1390 C1365 0.950 . S
H1391 C1367 0.950 . S
H1392 C1368 0.949 . S
H1393 C1370 0.950 . S
H1394 C1372 0.950 . S
C1395 C1396 1.349 . S
C1395 C1397 1.327 . S
C1395 H1420 0.950 . S
C1396 C1395 1.349 . S
C1396 C1412 1.349 . S
C1397 C1395 1.327 . S
C1397 C1416 1.429 . S
C1397 H1421 0.950 . S
C1398 C1415 1.574 . S
C1398 C1417 1.368 . S
C1398 H1422 0.949 . S
H1399 C1403 0.949 . S
C1400 C1401 1.349 . S
C1400 C1402 1.327 . S
C1400 H1423 0.950 . S
C1401 C1400 1.349 . S
C1401 C1413 1.349 . S
C1402 C1400 1.327 . S
C1402 C1418 1.429 . S
C1402 H1424 0.950 . S
C1403 H1399 0.949 . S
C1403 C1411 1.574 . S
C1403 C1419 1.368 . S
H1404 C1412 0.950 . S
H1405 C1410 0.950 . S
H1406 C1411 0.949 . S
H1407 C1413 0.950 . S
H1408 C1414 0.950 . S
H1409 C1415 0.949 . S
C1410 H1405 0.950 . S
C1410 C1412 1.327 . S
C1410 C1416 1.429 . S
C1411 C1403 1.574 . S
C1411 H1406 0.949 . S
C1411 C1417 1.368 . S
C1412 C1396 1.349 . S
C1412 H1404 0.950 . S
C1412 C1410 1.327 . S
C1413 C1401 1.349 . S
C1413 H1407 0.950 . S
C1413 C1414 1.327 . S
C1414 H1408 0.950 . S
C1414 C1413 1.327 . S
C1414 C1418 1.429 . S
C1415 C1398 1.574 . S
C1415 H1409 0.949 . S
C1415 C1419 1.368 . S
C1416 C1397 1.429 . S
C1416 C1410 1.429 . S
C1416 C1417 1.523 1_545 S
C1417 C1398 1.368 . S
C1417 C1411 1.368 . S
C1417 C1416 1.523 1_565 S
C1418 C1402 1.429 . S
C1418 C1414 1.429 . S
C1418 C1419 1.523 . S
C1419 C1403 1.368 . S
C1419 C1415 1.368 . S
C1419 C1418 1.523 . S
H1420 C1395 0.950 . S
H1421 C1397 0.950 . S
H1422 C1398 0.949 . S
H1423 C1400 0.950 . S
H1424 C1402 0.950 . S
C1425 C1426 1.349 . S
C1425 C1427 1.327 . S
C1425 H1450 0.950 . S
C1426 C1425 1.349 . S
C1426 C1442 1.349 . S
C1427 C1425 1.327 . S
C1427 C1446 1.429 . S
C1427 H1451 0.950 . S
C1428 C1445 1.574 . S
C1428 C1447 1.368 . S
C1428 H1452 0.949 . S
H1429 C1433 0.949 . S
C1430 C1431 1.349 . S
C1430 C1432 1.327 . S
C1430 H1453 0.950 . S
C1431 C1430 1.349 . S
C1431 C1443 1.349 . S
C1432 C1430 1.327 . S
C1432 C1448 1.429 . S
C1432 H1454 0.950 . S
C1433 H1429 0.949 . S
C1433 C1441 1.574 . S
C1433 C1449 1.368 . S
H1434 C1442 0.950 . S
H1435 C1440 0.950 . S
H1436 C1441 0.949 . S
H1437 C1443 0.950 . S
H1438 C1444 0.950 . S
H1439 C1445 0.949 . S
C1440 H1435 0.950 . S
C1440 C1442 1.327 . S
C1440 C1446 1.429 . S
C1441 C1433 1.574 . S
C1441 H1436 0.949 . S
C1441 C1447 1.368 . S
C1442 C1426 1.349 . S
C1442 H1434 0.950 . S
C1442 C1440 1.327 . S
C1443 C1431 1.349 . S
C1443 H1437 0.950 . S
C1443 C1444 1.327 . S
C1444 H1438 0.950 . S
C1444 C1443 1.327 . S
C1444 C1448 1.429 . S
C1445 C1428 1.574 . S
C1445 H1439 0.949 . S
C1445 C1449 1.368 . S
C1446 C1427 1.429 . S
C1446 C1440 1.429 . S
C1446 C1447 1.523 1_655 S
C1447 C1428 1.368 . S
C1447 C1441 1.368 . S
C1447 C1446 1.523 1_455 S
C1448 C1432 1.429 . S
C1448 C1444 1.429 . S
C1448 C1449 1.523 . S
C1449 C1433 1.368 . S
C1449 C1445 1.368 . S
C1449 C1448 1.523 . S
H1450 C1425 0.950 . S
H1451 C1427 0.950 . S
H1452 C1428 0.949 . S
H1453 C1430 0.950 . S
H1454 C1432 0.950 . S
C1455 C1456 1.349 . S
C1455 C1457 1.327 . S
C1455 H1480 0.950 . S
C1456 C1455 1.349 . S
C1456 C1472 1.349 . S
C1457 C1455 1.327 . S
C1457 C1476 1.429 . S
C1457 H1481 0.950 . S
C1458 C1475 1.574 . S
C1458 C1477 1.368 . S
C1458 H1482 0.949 . S
H1459 C1463 0.949 . S
C1460 C1461 1.349 . S
C1460 C1462 1.327 . S
C1460 H1483 0.950 . S
C1461 C1460 1.349 . S
C1461 C1473 1.349 . S
C1462 C1460 1.327 . S
C1462 C1478 1.429 . S
C1462 H1484 0.950 . S
C1463 H1459 0.949 . S
C1463 C1471 1.574 . S
C1463 C1479 1.368 . S
H1464 C1472 0.950 . S
H1465 C1470 0.950 . S
H1466 C1471 0.949 . S
H1467 C1473 0.950 . S
H1468 C1474 0.950 . S
H1469 C1475 0.949 . S
C1470 H1465 0.950 . S
C1470 C1472 1.327 . S
C1470 C1476 1.429 . S
C1471 C1463 1.574 . S
C1471 H1466 0.949 . S
C1471 C1477 1.368 . S
C1472 C1456 1.349 . S
C1472 H1464 0.950 . S
C1472 C1470 1.327 . S
C1473 C1461 1.349 . S
C1473 H1467 0.950 . S
C1473 C1474 1.327 . S
C1474 H1468 0.950 . S
C1474 C1473 1.327 . S
C1474 C1478 1.429 . S
C1475 C1458 1.574 . S
C1475 H1469 0.949 . S
C1475 C1479 1.368 . S
C1476 C1457 1.429 . S
C1476 C1470 1.429 . S
C1476 C1477 1.523 . S
C1477 C1458 1.368 . S
C1477 C1471 1.368 . S
C1477 C1476 1.523 . S
C1478 C1462 1.429 . S
C1478 C1474 1.429 . S
C1478 C1479 1.523 . S
C1479 C1463 1.368 . S
C1479 C1475 1.368 . S
C1479 C1478 1.523 . S
H1480 C1455 0.950 . S
H1481 C1457 0.950 . S
H1482 C1458 0.949 . S
H1483 C1460 0.950 . S
H1484 C1462 0.950 . S
C1485 C1486 1.349 . S
C1485 C1487 1.327 . S
C1485 H1510 0.950 . S
C1486 C1485 1.349 . S
C1486 C1502 1.349 . S
C1487 C1485 1.327 . S
C1487 C1506 1.429 . S
C1487 H1511 0.950 . S
C1488 C1505 1.574 . S
C1488 C1507 1.368 . S
C1488 H1512 0.949 . S
H1489 C1493 0.949 . S
C1490 C1491 1.349 . S
C1490 C1492 1.327 . S
C1490 H1513 0.950 . S
C1491 C1490 1.349 . S
C1491 C1503 1.349 . S
C1492 C1490 1.327 . S
C1492 C1508 1.429 . S
C1492 H1514 0.950 . S
C1493 H1489 0.949 . S
C1493 C1501 1.574 . S
C1493 C1509 1.368 . S
H1494 C1502 0.950 . S
H1495 C1500 0.950 . S
H1496 C1501 0.949 . S
H1497 C1503 0.950 . S
H1498 C1504 0.950 . S
H1499 C1505 0.949 . S
C1500 H1495 0.950 . S
C1500 C1502 1.327 . S
C1500 C1506 1.429 . S
C1501 C1493 1.574 . S
C1501 H1496 0.949 . S
C1501 C1507 1.368 . S
C1502 C1486 1.349 . S
C1502 H1494 0.950 . S
C1502 C1500 1.327 . S
C1503 C1491 1.349 . S
C1503 H1497 0.950 . S
C1503 C1504 1.327 . S
C1504 H1498 0.950 . S
C1504 C1503 1.327 . S
C1504 C1508 1.429 . S
C1505 C1488 1.574 . S
C1505 H1499 0.949 . S
C1505 C1509 1.368 . S
C1506 C1487 1.429 . S
C1506 C1500 1.429 . S
C1506 C1507 1.523 . S
C1507 C1488 1.368 . S
C1507 C1501 1.368 . S
C1507 C1506 1.523 . S
C1508 C1492 1.429 . S
C1508 C1504 1.429 . S
C1508 C1509 1.523 . S
C1509 C1493 1.368 . S
C1509 C1505 1.368 . S
C1509 C1508 1.523 . S
H1510 C1485 0.950 . S
H1511 C1487 0.950 . S
H1512 C1488 0.949 . S
H1513 C1490 0.950 . S
H1514 C1492 0.950 . S
C1515 C1516 1.349 . S
C1515 C1517 1.327 . S
C1515 H1540 0.950 . S
C1516 C1515 1.349 . S
C1516 C1532 1.349 . S
C1517 C1515 1.327 . S
C1517 C1536 1.429 . S
C1517 H1541 0.950 . S
C1518 C1535 1.574 . S
C1518 C1537 1.368 . S
C1518 H1542 0.949 . S
H1519 C1523 0.949 . S
C1520 C1521 1.349 . S
C1520 C1522 1.327 . S
C1520 H1543 0.950 . S
C1521 C1520 1.349 . S
C1521 C1533 1.349 . S
C1522 C1520 1.327 . S
C1522 C1538 1.429 . S
C1522 H1544 0.950 . S
C1523 H1519 0.949 . S
C1523 C1531 1.574 . S
C1523 C1539 1.368 . S
H1524 C1532 0.950 . S
H1525 C1530 0.950 . S
H1526 C1531 0.949 . S
H1527 C1533 0.950 . S
H1528 C1534 0.950 . S
H1529 C1535 0.949 . S
C1530 H1525 0.950 . S
C1530 C1532 1.327 . S
C1530 C1536 1.429 . S
C1531 C1523 1.574 . S
C1531 H1526 0.949 . S
C1531 C1537 1.368 . S
C1532 C1516 1.349 . S
C1532 H1524 0.950 . S
C1532 C1530 1.327 . S
C1533 C1521 1.349 . S
C1533 H1527 0.950 . S
C1533 C1534 1.327 . S
C1534 H1528 0.950 . S
C1534 C1533 1.327 . S
C1534 C1538 1.429 . S
C1535 C1518 1.574 . S
C1535 H1529 0.949 . S
C1535 C1539 1.368 . S
C1536 C1517 1.429 . S
C1536 C1530 1.429 . S
C1536 C1537 1.523 . S
C1537 C1518 1.368 . S
C1537 C1531 1.368 . S
C1537 C1536 1.523 . S
C1538 C1522 1.429 . S
C1538 C1534 1.429 . S
C1538 C1539 1.523 . S
C1539 C1523 1.368 . S
C1539 C1535 1.368 . S
C1539 C1538 1.523 . S
H1540 C1515 0.950 . S
H1541 C1517 0.950 . S
H1542 C1518 0.949 . S
H1543 C1520 0.950 . S
H1544 C1522 0.950 . S
C1545 C1546 1.349 . S
C1545 C1547 1.327 . S
C1545 H1570 0.950 . S
C1546 C1545 1.349 . S
C1546 C1562 1.349 . S
C1547 C1545 1.327 . S
C1547 C1566 1.429 . S
C1547 H1571 0.950 . S
C1548 C1565 1.574 . S
C1548 C1567 1.368 . S
C1548 H1572 0.949 . S
H1549 C1553 0.949 . S
C1550 C1551 1.349 . S
C1550 C1552 1.327 . S
C1550 H1573 0.950 . S
C1551 C1550 1.349 . S
C1551 C1563 1.349 . S
C1552 C1550 1.327 . S
C1552 C1568 1.429 . S
C1552 H1574 0.950 . S
C1553 H1549 0.949 . S
C1553 C1561 1.574 . S
C1553 C1569 1.368 . S
H1554 C1562 0.950 . S
H1555 C1560 0.950 . S
H1556 C1561 0.949 . S
H1557 C1563 0.950 . S
H1558 C1564 0.950 . S
H1559 C1565 0.949 . S
C1560 H1555 0.950 . S
C1560 C1562 1.327 . S
C1560 C1566 1.429 . S
C1561 C1553 1.574 . S
C1561 H1556 0.949 . S
C1561 C1567 1.368 . S
C1562 C1546 1.349 . S
C1562 H1554 0.950 . S
C1562 C1560 1.327 . S
C1563 C1551 1.349 . S
C1563 H1557 0.950 . S
C1563 C1564 1.327 . S
C1564 H1558 0.950 . S
C1564 C1563 1.327 . S
C1564 C1568 1.429 . S
C1565 C1548 1.574 . S
C1565 H1559 0.949 . S
C1565 C1569 1.368 . S
C1566 C1547 1.429 . S
C1566 C1560 1.429 . S
C1566 C1567 1.523 . S
C1567 C1548 1.368 . S
C1567 C1561 1.368 . S
C1567 C1566 1.523 . S
C1568 C1552 1.429 . S
C1568 C1564 1.429 . S
C1568 C1569 1.523 . S
C1569 C1553 1.368 . S
C1569 C1565 1.368 . S
C1569 C1568 1.523 . S
H1570 C1545 0.950 . S
H1571 C1547 0.950 . S
H1572 C1548 0.949 . S
H1573 C1550 0.950 . S
H1574 C1552 0.950 . S
C1575 C1576 1.349 . S
C1575 C1577 1.327 . S
C1575 H1600 0.950 . S
C1576 C1575 1.349 . S
C1576 C1592 1.349 . S
C1577 C1575 1.327 . S
C1577 C1596 1.429 . S
C1577 H1601 0.950 . S
C1578 C1595 1.574 . S
C1578 C1597 1.368 . S
C1578 H1602 0.949 . S
H1579 C1583 0.949 . S
C1580 C1581 1.349 . S
C1580 C1582 1.327 . S
C1580 H1603 0.950 . S
C1581 C1580 1.349 . S
C1581 C1593 1.349 . S
C1582 C1580 1.327 . S
C1582 C1598 1.429 . S
C1582 H1604 0.950 . S
C1583 H1579 0.949 . S
C1583 C1591 1.574 . S
C1583 C1599 1.368 . S
H1584 C1592 0.950 . S
H1585 C1590 0.950 . S
H1586 C1591 0.930 1_565 S
H1587 C1593 0.950 . S
H1588 C1594 0.950 . S
H1589 C1595 0.949 . S
C1590 H1585 0.950 . S
C1590 C1592 1.327 . S
C1590 C1596 1.429 . S
C1591 C1583 1.574 . S
C1591 H1586 0.930 1_545 S
C1591 C1597 1.368 . S
C1592 C1576 1.349 . S
C1592 H1584 0.950 . S
C1592 C1590 1.327 . S
C1593 C1581 1.349 . S
C1593 H1587 0.950 . S
C1593 C1594 1.327 . S
C1594 H1588 0.950 . S
C1594 C1593 1.327 . S
C1594 C1598 1.429 . S
C1595 C1578 1.574 . S
C1595 H1589 0.949 . S
C1595 C1599 1.368 . S
C1596 C1577 1.429 . S
C1596 C1590 1.429 . S
C1596 C1597 1.523 1_565 S
C1597 C1578 1.368 . S
C1597 C1591 1.368 . S
C1597 C1596 1.523 1_545 S
C1598 C1582 1.429 . S
C1598 C1594 1.429 . S
C1598 C1599 1.523 . S
C1599 C1583 1.368 . S
C1599 C1595 1.368 . S
C1599 C1598 1.523 . S
H1600 C1575 0.950 . S
H1601 C1577 0.950 . S
H1602 C1578 0.949 . S
H1603 C1580 0.950 . S
H1604 C1582 0.950 . S
C1605 C1606 1.349 . S
C1605 C1607 1.327 . S
C1605 H1630 0.950 . S
C1606 C1605 1.349 . S
C1606 C1622 1.349 . S
C1607 C1605 1.327 . S
C1607 C1626 1.429 . S
C1607 H1631 0.950 . S
C1608 C1625 1.574 . S
C1608 C1627 1.368 . S
C1608 H1632 0.949 1_655 S
H1609 C1613 0.949 . S
C1610 C1611 1.349 . S
C1610 C1612 1.327 . S
C1610 H1633 0.950 . S
C1611 C1610 1.349 . S
C1611 C1623 1.349 . S
C1612 C1610 1.327 . S
C1612 C1628 1.429 . S
C1612 H1634 0.950 . S
C1613 H1609 0.949 . S
C1613 C1621 1.574 . S
C1613 C1629 1.368 . S
H1614 C1622 0.950 . S
H1615 C1620 0.950 . S
H1616 C1621 0.949 . S
H1617 C1623 0.950 . S
H1618 C1624 0.950 . S
H1619 C1625 0.949 . S
C1620 H1615 0.950 . S
C1620 C1622 1.327 . S
C1620 C1626 1.429 . S
C1621 C1613 1.574 . S
C1621 H1616 0.949 . S
C1621 C1627 1.368 . S
C1622 C1606 1.349 . S
C1622 H1614 0.950 . S
C1622 C1620 1.327 . S
C1623 C1611 1.349 . S
C1623 H1617 0.950 . S
C1623 C1624 1.327 . S
C1624 H1618 0.950 . S
C1624 C1623 1.327 . S
C1624 C1628 1.429 . S
C1625 C1608 1.574 . S
C1625 H1619 0.949 . S
C1625 C1629 1.368 . S
C1626 C1607 1.429 . S
C1626 C1620 1.429 . S
C1626 C1627 1.523 1_455 S
C1627 C1608 1.368 . S
C1627 C1621 1.368 . S
C1627 C1626 1.523 1_655 S
C1628 C1612 1.429 . S
C1628 C1624 1.429 . S
C1628 C1629 1.523 . S
C1629 C1613 1.368 . S
C1629 C1625 1.368 . S
C1629 C1628 1.523 . S
H1630 C1605 0.950 . S
H1631 C1607 0.950 . S
H1632 C1608 0.949 1_455 S
H1633 C1610 0.950 . S
H1634 C1612 0.950 . S
C1635 C1636 1.349 . S
C1635 C1637 1.327 . S
C1635 H1660 0.950 . S
C1636 C1635 1.349 . S
C1636 C1652 1.349 . S
C1637 C1635 1.327 . S
C1637 C1656 1.429 . S
C1637 H1661 0.950 . S
C1638 C1655 1.574 . S
C1638 C1657 1.368 . S
C1638 H1662 0.949 . S
H1639 C1643 0.949 . S
C1640 C1641 1.349 . S
C1640 C1642 1.327 . S
C1640 H1663 0.950 . S
C1641 C1640 1.349 . S
C1641 C1653 1.349 . S
C1642 C1640 1.327 . S
C1642 C1658 1.429 . S
C1642 H1664 0.950 . S
C1643 H1639 0.949 . S
C1643 C1651 1.574 . S
C1643 C1659 1.368 . S
H1644 C1652 0.950 . S
H1645 C1650 0.950 . S
H1646 C1651 0.949 . S
H1647 C1653 0.950 . S
H1648 C1654 0.950 . S
H1649 C1655 0.949 . S
C1650 H1645 0.950 . S
C1650 C1652 1.327 . S
C1650 C1656 1.429 . S
C1651 C1643 1.574 . S
C1651 H1646 0.949 . S
C1651 C1657 1.368 . S
C1652 C1636 1.349 . S
C1652 H1644 0.950 . S
C1652 C1650 1.327 . S
C1653 C1641 1.349 . S
C1653 H1647 0.950 . S
C1653 C1654 1.327 . S
C1654 H1648 0.950 . S
C1654 C1653 1.327 . S
C1654 C1658 1.429 . S
C1655 C1638 1.574 . S
C1655 H1649 0.949 . S
C1655 C1659 1.368 . S
C1656 C1637 1.429 . S
C1656 C1650 1.429 . S
C1656 C1657 1.523 . S
C1657 C1638 1.368 . S
C1657 C1651 1.368 . S
C1657 C1656 1.523 . S
C1658 C1642 1.429 . S
C1658 C1654 1.429 . S
C1658 C1659 1.523 . S
C1659 C1643 1.368 . S
C1659 C1655 1.368 . S
C1659 C1658 1.523 . S
H1660 C1635 0.950 . S
H1661 C1637 0.950 . S
H1662 C1638 0.949 . S
H1663 C1640 0.950 . S
H1664 C1642 0.950 . S
C1665 C1666 1.349 . S
C1665 C1667 1.327 . S
C1665 H1690 0.950 . S
C1666 C1665 1.349 . S
C1666 C1682 1.349 . S
C1667 C1665 1.327 . S
C1667 C1686 1.429 . S
C1667 H1691 0.950 . S
C1668 C1685 1.574 . S
C1668 C1687 1.388 . S
C1668 H1692 0.949 . S
H1669 C1673 0.949 . S
C1670 C1671 1.349 . S
C1670 C1672 1.327 . S
C1670 H1693 0.950 . S
C1671 C1670 1.349 . S
C1671 C1683 1.349 . S
C1672 C1670 1.327 . S
C1672 C1688 1.429 . S
C1672 H1694 0.950 . S
C1673 H1669 0.949 . S
C1673 C1681 1.574 . S
C1673 C1689 1.368 . S
H1674 C1682 0.950 . S
H1675 C1680 0.950 . S
H1676 C1681 0.949 1_455 S
H1677 C1683 0.950 . S
H1678 C1684 0.950 . S
H1679 C1685 0.949 . S
C1680 H1675 0.950 . S
C1680 C1682 1.327 . S
C1680 C1686 1.429 . S
C1681 C1673 1.574 . S
C1681 H1676 0.949 1_655 S
C1681 C1687 1.381 . S
C1682 C1666 1.349 . S
C1682 H1674 0.950 . S
C1682 C1680 1.327 . S
C1683 C1671 1.349 . S
C1683 H1677 0.950 . S
C1683 C1684 1.327 . S
C1684 H1678 0.950 . S
C1684 C1683 1.327 . S
C1684 C1688 1.429 . S
C1685 C1668 1.574 . S
C1685 H1679 0.949 . S
C1685 C1689 1.368 . S
C1686 C1667 1.429 . S
C1686 C1680 1.429 . S
C1686 C1687 1.483 1_455 S
C1687 C1668 1.388 . S
C1687 C1681 1.381 . S
C1687 C1686 1.483 1_655 S
C1688 C1672 1.429 . S
C1688 C1684 1.429 . S
C1688 C1689 1.523 . S
C1689 C1673 1.368 . S
C1689 C1685 1.368 . S
C1689 C1688 1.523 . S
H1690 C1665 0.950 . S
H1691 C1667 0.950 . S
H1692 C1668 0.949 . S
H1693 C1670 0.950 . S
H1694 C1672 0.950 . S
C1695 C1696 1.349 . S
C1695 C1697 1.327 . S
C1695 H1720 0.950 . S
C1696 C1695 1.349 . S
C1696 C1712 1.349 . S
C1697 C1695 1.327 . S
C1697 C1716 1.429 . S
C1697 H1721 0.950 . S
C1698 C1715 1.574 . S
C1698 C1717 1.368 . S
C1698 H1722 0.949 . S
H1699 C1703 0.949 . S
C1700 C1701 1.349 . S
C1700 C1702 1.327 . S
C1700 H1723 0.950 . S
C1701 C1700 1.349 . S
C1701 C1713 1.349 . S
C1702 C1700 1.327 . S
C1702 C1718 1.429 . S
C1702 H1724 0.950 . S
C1703 H1699 0.949 . S
C1703 C1711 1.574 . S
C1703 C1719 1.368 . S
H1704 C1712 0.950 . S
H1705 C1710 0.950 . S
H1706 C1711 0.949 . S
H1707 C1713 0.950 . S
H1708 C1714 0.950 . S
H1709 C1715 0.949 . S
C1710 H1705 0.950 . S
C1710 C1712 1.327 . S
C1710 C1716 1.429 . S
C1711 C1703 1.574 . S
C1711 H1706 0.949 . S
C1711 C1717 1.368 . S
C1712 C1696 1.349 . S
C1712 H1704 0.950 . S
C1712 C1710 1.327 . S
C1713 C1701 1.349 . S
C1713 H1707 0.950 . S
C1713 C1714 1.327 . S
C1714 H1708 0.950 . S
C1714 C1713 1.327 . S
C1714 C1718 1.429 . S
C1715 C1698 1.574 . S
C1715 H1709 0.949 . S
C1715 C1719 1.368 . S
C1716 C1697 1.429 . S
C1716 C1710 1.429 . S
C1716 C1717 1.523 . S
C1717 C1698 1.368 . S
C1717 C1711 1.368 . S
C1717 C1716 1.523 . S
C1718 C1702 1.429 . S
C1718 C1714 1.429 . S
C1718 C1719 1.523 . S
C1719 C1703 1.368 . S
C1719 C1715 1.368 . S
C1719 C1718 1.523 . S
H1720 C1695 0.950 . S
H1721 C1697 0.950 . S
H1722 C1698 0.949 . S
H1723 C1700 0.950 . S
H1724 C1702 0.950 . S
C1725 C1726 1.349 . S
C1725 C1727 1.327 . S
C1725 H1750 0.950 . S
C1726 C1725 1.349 . S
C1726 C1742 1.349 . S
C1727 C1725 1.327 . S
C1727 C1746 1.429 . S
C1727 H1751 0.950 . S
C1728 C1745 1.574 . S
C1728 C1747 1.368 . S
C1728 H1752 0.949 . S
H1729 C1733 0.949 . S
C1730 C1731 1.349 . S
C1730 C1732 1.327 . S
C1730 H1753 0.950 . S
C1731 C1730 1.349 . S
C1731 C1743 1.349 . S
C1732 C1730 1.327 . S
C1732 C1748 1.429 . S
C1732 H1754 0.950 . S
C1733 H1729 0.949 . S
C1733 C1741 1.574 . S
C1733 C1749 1.368 . S
H1734 C1742 0.950 . S
H1735 C1740 0.950 . S
H1736 C1741 0.949 . S
H1737 C1743 0.950 . S
H1738 C1744 0.950 . S
H1739 C1745 0.949 . S
C1740 H1735 0.950 . S
C1740 C1742 1.327 . S
C1740 C1746 1.429 . S
C1741 C1733 1.574 . S
C1741 H1736 0.949 . S
C1741 C1747 1.368 . S
C1742 C1726 1.349 . S
C1742 H1734 0.950 . S
C1742 C1740 1.327 . S
C1743 C1731 1.349 . S
C1743 H1737 0.950 . S
C1743 C1744 1.327 . S
C1744 H1738 0.950 . S
C1744 C1743 1.327 . S
C1744 C1748 1.429 . S
C1745 C1728 1.574 . S
C1745 H1739 0.949 . S
C1745 C1749 1.368 . S
C1746 C1727 1.429 . S
C1746 C1740 1.429 . S
C1746 C1747 1.523 1_565 S
C1747 C1728 1.368 . S
C1747 C1741 1.368 . S
C1747 C1746 1.523 1_545 S
C1748 C1732 1.429 . S
C1748 C1744 1.429 . S
C1748 C1749 1.523 . S
C1749 C1733 1.368 . S
C1749 C1745 1.368 . S
C1749 C1748 1.523 . S
H1750 C1725 0.950 . S
H1751 C1727 0.950 . S
H1752 C1728 0.949 . S
H1753 C1730 0.950 . S
H1754 C1732 0.950 . S
C1755 C1756 1.349 . S
C1755 C1757 1.327 . S
C1755 H1780 0.950 . S
C1756 C1755 1.349 . S
C1756 C1772 1.349 . S
C1757 C1755 1.327 . S
C1757 C1776 1.429 . S
C1757 H1781 0.950 . S
C1758 C1775 1.574 . S
C1758 C1777 1.368 . S
C1758 H1782 0.949 . S
H1759 C1763 0.949 . S
C1760 C1761 1.349 . S
C1760 C1762 1.327 . S
C1760 H1783 0.950 . S
C1761 C1760 1.349 . S
C1761 C1773 1.349 . S
C1762 C1760 1.327 . S
C1762 C1778 1.429 . S
C1762 H1784 0.950 . S
C1763 H1759 0.949 . S
C1763 C1771 1.574 . S
C1763 C1779 1.368 . S
H1764 C1772 0.950 . S
H1765 C1770 0.950 . S
H1766 C1771 0.949 . S
H1767 C1773 0.950 . S
H1768 C1774 0.950 . S
H1769 C1775 0.949 . S
C1770 H1765 0.950 . S
C1770 C1772 1.327 . S
C1770 C1776 1.429 . S
C1771 C1763 1.574 . S
C1771 H1766 0.949 . S
C1771 C1777 1.368 . S
C1772 C1756 1.349 . S
C1772 H1764 0.950 . S
C1772 C1770 1.327 . S
C1773 C1761 1.349 . S
C1773 H1767 0.950 . S
C1773 C1774 1.327 . S
C1774 H1768 0.950 . S
C1774 C1773 1.327 . S
C1774 C1778 1.429 . S
C1775 C1758 1.574 . S
C1775 H1769 0.949 . S
C1775 C1779 1.368 . S
C1776 C1757 1.429 . S
C1776 C1770 1.429 . S
C1776 C1777 1.523 . S
C1777 C1758 1.368 . S
C1777 C1771 1.368 . S
C1777 C1776 1.523 . S
C1778 C1762 1.429 . S
C1778 C1774 1.429 . S
C1778 C1779 1.523 . S
C1779 C1763 1.368 . S
C1779 C1775 1.368 . S
C1779 C1778 1.523 . S
H1780 C1755 0.950 . S
H1781 C1757 0.950 . S
H1782 C1758 0.949 . S
H1783 C1760 0.950 . S
H1784 C1762 0.950 . S
C1785 C1786 1.349 . S
C1785 C1787 1.327 . S
C1785 H1810 0.950 . S
C1786 C1785 1.349 . S
C1786 C1802 1.349 . S
C1787 C1785 1.327 . S
C1787 C1806 1.429 . S
C1787 H1811 0.950 . S
C1788 C1805 1.574 . S
C1788 C1807 1.368 . S
C1788 H1812 0.949 . S
H1789 C1793 0.949 . S
C1790 C1791 1.349 . S
C1790 C1792 1.327 . S
C1790 H1813 0.950 . S
C1791 C1790 1.349 . S
C1791 C1803 1.349 . S
C1792 C1790 1.327 . S
C1792 C1808 1.429 . S
C1792 H1814 0.950 . S
C1793 H1789 0.949 . S
C1793 C1801 1.574 . S
C1793 C1809 1.368 . S
H1794 C1802 0.950 . S
H1795 C1800 0.950 . S
H1796 C1801 0.949 . S
H1797 C1803 0.950 . S
H1798 C1804 0.950 . S
H1799 C1805 0.949 . S
C1800 H1795 0.950 . S
C1800 C1802 1.327 . S
C1800 C1806 1.429 . S
C1801 C1793 1.574 . S
C1801 H1796 0.949 . S
C1801 C1807 1.368 . S
C1802 C1786 1.349 . S
C1802 H1794 0.950 . S
C1802 C1800 1.327 . S
C1803 C1791 1.349 . S
C1803 H1797 0.950 . S
C1803 C1804 1.327 . S
C1804 H1798 0.950 . S
C1804 C1803 1.327 . S
C1804 C1808 1.429 . S
C1805 C1788 1.574 . S
C1805 H1799 0.949 . S
C1805 C1809 1.368 . S
C1806 C1787 1.429 . S
C1806 C1800 1.429 . S
C1806 C1807 1.523 . S
C1807 C1788 1.368 . S
C1807 C1801 1.368 . S
C1807 C1806 1.523 . S
C1808 C1792 1.429 . S
C1808 C1804 1.429 . S
C1808 C1809 1.523 . S
C1809 C1793 1.368 . S
C1809 C1805 1.368 . S
C1809 C1808 1.523 . S
H1810 C1785 0.950 . S
H1811 C1787 0.950 . S
H1812 C1788 0.949 . S
H1813 C1790 0.950 . S
H1814 C1792 0.950 . S
C1815 C1816 1.349 . S
C1815 C1817 1.327 . S
C1815 H1840 0.950 . S
C1816 C1815 1.349 . S
C1816 C1832 1.349 . S
C1817 C1815 1.327 . S
C1817 C1836 1.429 . S
C1817 H1841 0.950 . S
C1818 C1835 1.574 . S
C1818 C1837 1.368 . S
C1818 H1842 0.949 . S
H1819 C1823 0.949 . S
C1820 C1821 1.349 . S
C1820 C1822 1.327 . S
C1820 H1843 0.950 . S
C1821 C1820 1.349 . S
C1821 C1833 1.349 . S
C1822 C1820 1.327 . S
C1822 C1838 1.429 . S
C1822 H1844 0.950 . S
C1823 H1819 0.949 . S
C1823 C1831 1.574 . S
C1823 C1839 1.368 . S
H1824 C1832 0.950 . S
H1825 C1830 0.950 . S
H1826 C1831 0.949 . S
H1827 C1833 0.950 . S
H1828 C1834 0.950 . S
H1829 C1835 0.949 . S
C1830 H1825 0.950 . S
C1830 C1832 1.327 . S
C1830 C1836 1.429 . S
C1831 C1823 1.574 . S
C1831 H1826 0.949 . S
C1831 C1837 1.368 . S
C1832 C1816 1.349 . S
C1832 H1824 0.950 . S
C1832 C1830 1.327 . S
C1833 C1821 1.349 . S
C1833 H1827 0.950 . S
C1833 C1834 1.327 . S
C1834 H1828 0.950 . S
C1834 C1833 1.327 . S
C1834 C1838 1.429 . S
C1835 C1818 1.574 . S
C1835 H1829 0.949 . S
C1835 C1839 1.368 . S
C1836 C1817 1.429 . S
C1836 C1830 1.429 . S
C1836 C1837 1.523 . S
C1837 C1818 1.368 . S
C1837 C1831 1.368 . S
C1837 C1836 1.523 . S
C1838 C1822 1.429 . S
C1838 C1834 1.429 . S
C1838 C1839 1.523 . S
C1839 C1823 1.368 . S
C1839 C1835 1.368 . S
C1839 C1838 1.523 . S
H1840 C1815 0.950 . S
H1841 C1817 0.950 . S
H1842 C1818 0.949 . S
H1843 C1820 0.950 . S
H1844 C1822 0.950 . S
C1845 C1846 1.349 . S
C1845 C1847 1.327 . S
C1845 H1870 0.950 . S
C1846 C1845 1.349 . S
C1846 C1862 1.349 . S
C1847 C1845 1.327 . S
C1847 C1866 1.429 . S
C1847 H1871 0.950 . S
C1848 C1865 1.574 . S
C1848 C1867 1.368 . S
C1848 H1872 0.949 1_565 S
H1849 C1853 0.949 . S
C1850 C1851 1.349 1_545 S
C1850 C1852 1.327 . S
C1850 H1873 0.950 . S
C1851 C1850 1.349 1_565 S
C1851 C1863 1.349 . S
C1852 C1850 1.327 . S
C1852 C1868 1.429 1_545 S
C1852 H1874 0.950 . S
C1853 H1849 0.949 . S
C1853 C1861 1.574 . S
C1853 C1869 1.368 . S
H1854 C1862 0.950 . S
H1855 C1860 0.950 . S
H1856 C1861 0.949 . S
H1857 C1863 0.950 . S
H1858 C1864 0.950 . S
H1859 C1865 0.949 1_545 S
C1860 H1855 0.950 . S
C1860 C1862 1.327 . S
C1860 C1866 1.429 . S
C1861 C1853 1.574 . S
C1861 H1856 0.949 . S
C1861 C1867 1.368 . S
C1862 C1846 1.349 . S
C1862 H1854 0.950 . S
C1862 C1860 1.327 . S
C1863 C1851 1.349 . S
C1863 H1857 0.950 . S
C1863 C1864 1.327 . S
C1864 H1858 0.950 . S
C1864 C1863 1.327 . S
C1864 C1868 1.429 . S
C1865 C1848 1.574 . S
C1865 H1859 0.949 1_565 S
C1865 C1869 1.368 . S
C1866 C1847 1.429 . S
C1866 C1860 1.429 . S
C1866 C1867 1.523 . S
C1867 C1848 1.368 . S
C1867 C1861 1.368 . S
C1867 C1866 1.523 . S
C1868 C1852 1.429 1_565 S
C1868 C1864 1.429 . S
C1868 C1869 1.523 . S
C1869 C1853 1.368 . S
C1869 C1865 1.368 . S
C1869 C1868 1.523 . S
H1870 C1845 0.950 . S
H1871 C1847 0.950 . S
H1872 C1848 0.949 1_545 S
H1873 C1850 0.950 . S
H1874 C1852 0.950 . S
C1875 C1876 1.349 . S
C1875 C1877 1.327 . S
C1875 H1900 0.950 . S
C1876 C1875 1.349 . S
C1876 C1892 1.349 . S
C1877 C1875 1.327 . S
C1877 C1896 1.429 . S
C1877 H1901 0.950 . S
C1878 C1895 1.574 . S
C1878 C1897 1.368 . S
C1878 H1902 0.949 . S
H1879 C1883 0.949 . S
C1880 C1881 1.349 1_655 S
C1880 C1882 1.327 . S
C1880 H1903 0.950 . S
C1881 C1880 1.349 1_455 S
C1881 C1893 1.349 . S
C1882 C1880 1.327 . S
C1882 C1898 1.429 1_655 S
C1882 H1904 0.950 . S
C1883 H1879 0.949 . S
C1883 C1891 1.574 . S
C1883 C1899 1.368 . S
H1884 C1892 0.950 . S
H1885 C1890 0.950 . S
H1886 C1891 0.949 . S
H1887 C1893 0.950 . S
H1888 C1894 0.950 . S
H1889 C1895 0.949 1_655 S
C1890 H1885 0.950 . S
C1890 C1892 1.327 . S
C1890 C1896 1.429 . S
C1891 C1883 1.574 . S
C1891 H1886 0.949 . S
C1891 C1897 1.368 . S
C1892 C1876 1.349 . S
C1892 H1884 0.950 . S
C1892 C1890 1.327 . S
C1893 C1881 1.349 . S
C1893 H1887 0.950 . S
C1893 C1894 1.327 . S
C1894 H1888 0.950 . S
C1894 C1893 1.327 . S
C1894 C1898 1.429 . S
C1895 C1878 1.574 . S
C1895 H1889 0.949 1_455 S
C1895 C1899 1.368 . S
C1896 C1877 1.429 . S
C1896 C1890 1.429 . S
C1896 C1897 1.523 . S
C1897 C1878 1.368 . S
C1897 C1891 1.368 . S
C1897 C1896 1.523 . S
C1898 C1882 1.429 1_455 S
C1898 C1894 1.429 . S
C1898 C1899 1.523 . S
C1899 C1883 1.368 . S
C1899 C1895 1.368 . S
C1899 C1898 1.523 . S
H1900 C1875 0.950 . S
H1901 C1877 0.950 . S
H1902 C1878 0.949 . S
H1903 C1880 0.950 . S
H1904 C1882 0.950 . S
C1905 C1906 1.349 . S
C1905 C1907 1.327 . S
C1905 H1930 0.950 . S
C1906 C1905 1.349 . S
C1906 C1922 1.349 . S
C1907 C1905 1.327 . S
C1907 C1926 1.429 . S
C1907 H1931 0.950 . S
C1908 C1925 1.574 . S
C1908 C1927 1.368 . S
C1908 H1932 0.949 . S
H1909 C1913 0.949 . S
C1910 C1911 1.349 . S
C1910 C1912 1.327 . S
C1910 H1933 0.950 . S
C1911 C1910 1.349 . S
C1911 C1923 1.349 . S
C1912 C1910 1.327 . S
C1912 C1928 1.429 . S
C1912 H1934 0.950 . S
C1913 H1909 0.949 . S
C1913 C1921 1.574 . S
C1913 C1929 1.368 . S
H1914 C1922 0.950 . S
H1915 C1920 0.950 . S
H1916 C1921 0.949 . S
H1917 C1923 0.950 . S
H1918 C1924 0.950 . S
H1919 C1925 0.949 . S
C1920 H1915 0.950 . S
C1920 C1922 1.327 . S
C1920 C1926 1.429 . S
C1921 C1913 1.574 . S
C1921 H1916 0.949 . S
C1921 C1927 1.368 . S
C1922 C1906 1.349 . S
C1922 H1914 0.950 . S
C1922 C1920 1.327 . S
C1923 C1911 1.349 . S
C1923 H1917 0.950 . S
C1923 C1924 1.327 . S
C1924 H1918 0.950 . S
C1924 C1923 1.327 . S
C1924 C1928 1.429 . S
C1925 C1908 1.574 . S
C1925 H1919 0.949 . S
C1925 C1929 1.368 . S
C1926 C1907 1.429 . S
C1926 C1920 1.429 . S
C1926 C1927 1.523 . S
C1927 C1908 1.368 . S
C1927 C1921 1.368 . S
C1927 C1926 1.523 . S
C1928 C1912 1.429 . S
C1928 C1924 1.429 . S
C1928 C1929 1.523 . S
C1929 C1913 1.368 . S
C1929 C1925 1.368 . S
C1929 C1928 1.523 . S
H1930 C1905 0.950 . S
H1931 C1907 0.950 . S
H1932 C1908 0.949 . S
H1933 C1910 0.950 . S
H1934 C1912 0.950 . S
C1935 C1936 1.349 . S
C1935 C1937 1.327 . S
C1935 H1960 0.950 . S
C1936 C1935 1.349 . S
C1936 C1952 1.349 . S
C1937 C1935 1.327 . S
C1937 C1956 1.429 . S
C1937 H1961 0.950 . S
C1938 C1955 1.574 . S
C1938 C1957 1.368 . S
C1938 H1962 0.949 . S
H1939 C1943 0.949 . S
C1940 C1941 1.349 . S
C1940 C1942 1.327 . S
C1940 H1963 0.950 . S
C1941 C1940 1.349 . S
C1941 C1953 1.349 . S
C1942 C1940 1.327 . S
C1942 C1958 1.429 . S
C1942 H1964 0.950 . S
C1943 H1939 0.949 . S
C1943 C1951 1.574 . S
C1943 C1959 1.368 . S
H1944 C1952 0.950 . S
H1945 C1950 0.950 . S
H1946 C1951 0.949 . S
H1947 C1953 0.950 . S
H1948 C1954 0.950 . S
H1949 C1955 0.949 . S
C1950 H1945 0.950 . S
C1950 C1952 1.327 . S
C1950 C1956 1.429 . S
C1951 C1943 1.574 . S
C1951 H1946 0.949 . S
C1951 C1957 1.368 . S
C1952 C1936 1.349 . S
C1952 H1944 0.950 . S
C1952 C1950 1.327 . S
C1953 C1941 1.349 . S
C1953 H1947 0.950 . S
C1953 C1954 1.327 . S
C1954 H1948 0.950 . S
C1954 C1953 1.327 . S
C1954 C1958 1.429 . S
C1955 C1938 1.574 . S
C1955 H1949 0.949 . S
C1955 C1959 1.368 . S
C1956 C1937 1.429 . S
C1956 C1950 1.429 . S
C1956 C1957 1.523 . S
C1957 C1938 1.368 . S
C1957 C1951 1.368 . S
C1957 C1956 1.523 . S
C1958 C1942 1.429 . S
C1958 C1954 1.429 . S
C1958 C1959 1.523 . S
C1959 C1943 1.368 . S
C1959 C1955 1.368 . S
C1959 C1958 1.523 . S
H1960 C1935 0.950 . S
H1961 C1937 0.950 . S
H1962 C1938 0.949 . S
H1963 C1940 0.950 . S
H1964 C1942 0.950 . S
C1965 C1966 1.349 . S
C1965 C1967 1.327 . S
C1965 H1990 0.950 . S
C1966 C1965 1.349 . S
C1966 C1982 1.349 . S
C1967 C1965 1.327 . S
C1967 C1986 1.429 . S
C1967 H1991 0.950 . S
C1968 C1985 1.574 . S
C1968 C1987 1.368 . S
C1968 H1992 0.949 . S
H1969 C1973 0.949 . S
C1970 C1971 1.349 . S
C1970 C1972 1.327 . S
C1970 H1993 0.950 . S
C1971 C1970 1.349 . S
C1971 C1983 1.349 . S
C1972 C1970 1.327 . S
C1972 C1988 1.429 . S
C1972 H1994 0.950 . S
C1973 H1969 0.949 . S
C1973 C1981 1.574 . S
C1973 C1989 1.368 . S
H1974 C1982 0.950 . S
H1975 C1980 0.950 . S
H1976 C1981 0.949 . S
H1977 C1983 0.950 . S
H1978 C1984 0.950 . S
H1979 C1985 0.949 . S
C1980 H1975 0.950 . S
C1980 C1982 1.327 . S
C1980 C1986 1.429 . S
C1981 C1973 1.574 . S
C1981 H1976 0.949 . S
C1981 C1987 1.368 . S
C1982 C1966 1.349 . S
C1982 H1974 0.950 . S
C1982 C1980 1.327 . S
C1983 C1971 1.349 . S
C1983 H1977 0.950 . S
C1983 C1984 1.327 . S
C1984 H1978 0.950 . S
C1984 C1983 1.327 . S
C1984 C1988 1.429 . S
C1985 C1968 1.574 . S
C1985 H1979 0.949 . S
C1985 C1989 1.368 . S
C1986 C1967 1.429 . S
C1986 C1980 1.429 . S
C1986 C1987 1.523 . S
C1987 C1968 1.368 . S
C1987 C1981 1.368 . S
C1987 C1986 1.523 . S
C1988 C1972 1.429 . S
C1988 C1984 1.429 . S
C1988 C1989 1.523 . S
C1989 C1973 1.368 . S
C1989 C1985 1.368 . S
C1989 C1988 1.523 . S
H1990 C1965 0.950 . S
H1991 C1967 0.950 . S
H1992 C1968 0.949 . S
H1993 C1970 0.950 . S
H1994 C1972 0.950 . S
C1995 C1996 1.349 . S
C1995 C1997 1.327 . S
C1995 H2020 0.950 . S
C1996 C1995 1.349 . S
C1996 C2012 1.349 . S
C1997 C1995 1.327 . S
C1997 C2016 1.429 . S
C1997 H2021 0.950 . S
C1998 C2015 1.574 . S
C1998 C2017 1.368 . S
C1998 H2022 0.949 . S
H1999 C2003 0.949 1_565 S
C2000 C2001 1.349 . S
C2000 C2002 1.327 . S
C2000 H2023 0.950 . S
C2001 C2000 1.349 . S
C2001 C2013 1.349 1_545 S
C2002 C2000 1.327 . S
C2002 C2018 1.429 . S
C2002 H2024 0.950 . S
C2003 H1999 0.949 1_545 S
C2003 C2011 1.574 . S
C2003 C2019 1.368 . S
H2004 C2012 0.950 . S
H2005 C2010 0.950 . S
H2006 C2011 0.949 . S
H2007 C2013 0.950 . S
H2008 C2014 0.950 1_565 S
H2009 C2015 0.949 . S
C2010 H2005 0.950 . S
C2010 C2012 1.327 . S
C2010 C2016 1.429 . S
C2011 C2003 1.574 . S
C2011 H2006 0.949 . S
C2011 C2017 1.368 . S
C2012 C1996 1.349 . S
C2012 H2004 0.950 . S
C2012 C2010 1.327 . S
C2013 C2001 1.349 1_565 S
C2013 H2007 0.950 . S
C2013 C2014 1.327 1_565 S
C2014 H2008 0.950 1_545 S
C2014 C2013 1.327 1_545 S
C2014 C2018 1.429 . S
C2015 C1998 1.574 . S
C2015 H2009 0.949 . S
C2015 C2019 1.368 . S
C2016 C1997 1.429 . S
C2016 C2010 1.429 . S
C2016 C2017 1.523 . S
C2017 C1998 1.368 . S
C2017 C2011 1.368 . S
C2017 C2016 1.523 . S
C2018 C2002 1.429 . S
C2018 C2014 1.429 . S
C2018 C2019 1.523 . S
C2019 C2003 1.368 . S
C2019 C2015 1.368 . S
C2019 C2018 1.523 . S
H2020 C1995 0.950 . S
H2021 C1997 0.950 . S
H2022 C1998 0.949 . S
H2023 C2000 0.950 . S
H2024 C2002 0.950 . S
C2025 C2026 1.349 . S
C2025 C2027 1.327 . S
C2025 H2050 0.950 . S
C2026 C2025 1.349 . S
C2026 C2042 1.349 . S
C2027 C2025 1.327 . S
C2027 C2046 1.429 . S
C2027 H2051 0.950 . S
C2028 C2045 1.574 . S
C2028 C2047 1.368 . S
C2028 H2052 0.949 . S
H2029 C2033 0.949 . S
C2030 C2031 1.349 . S
C2030 C2032 1.327 . S
C2030 H2053 0.950 . S
C2031 C2030 1.349 . S
C2031 C2043 1.349 . S
C2032 C2030 1.327 . S
C2032 C2048 1.429 . S
C2032 H2054 0.950 . S
C2033 H2029 0.949 . S
C2033 C2041 1.574 . S
C2033 C2049 1.368 . S
H2034 C2042 0.950 . S
H2035 C2040 0.950 . S
H2036 C2041 0.949 . S
H2037 C2043 0.950 . S
H2038 C2044 0.950 . S
H2039 C2045 0.949 . S
C2040 H2035 0.950 . S
C2040 C2042 1.327 . S
C2040 C2046 1.429 . S
C2041 C2033 1.574 . S
C2041 H2036 0.949 . S
C2041 C2047 1.368 . S
C2042 C2026 1.349 . S
C2042 H2034 0.950 . S
C2042 C2040 1.327 . S
C2043 C2031 1.349 . S
C2043 H2037 0.950 . S
C2043 C2044 1.327 . S
C2044 H2038 0.950 . S
C2044 C2043 1.327 . S
C2044 C2048 1.429 . S
C2045 C2028 1.574 . S
C2045 H2039 0.949 . S
C2045 C2049 1.368 . S
C2046 C2027 1.429 . S
C2046 C2040 1.429 . S
C2046 C2047 1.523 . S
C2047 C2028 1.368 . S
C2047 C2041 1.368 . S
C2047 C2046 1.523 . S
C2048 C2032 1.429 . S
C2048 C2044 1.429 . S
C2048 C2049 1.523 . S
C2049 C2033 1.368 . S
C2049 C2045 1.368 . S
C2049 C2048 1.523 . S
H2050 C2025 0.950 . S
H2051 C2027 0.950 . S
H2052 C2028 0.949 . S
H2053 C2030 0.950 . S
H2054 C2032 0.950 . S
C2055 C2056 1.349 . S
C2055 C2057 1.327 . S
C2055 H2080 0.950 . S
C2056 C2055 1.349 . S
C2056 C2072 1.349 . S
C2057 C2055 1.327 . S
C2057 C2076 1.429 . S
C2057 H2081 0.950 . S
C2058 C2075 1.574 . S
C2058 C2077 1.368 . S
C2058 H2082 0.949 . S
H2059 C2063 0.949 . S
C2060 C2061 1.349 . S
C2060 C2062 1.327 . S
C2060 H2083 0.950 . S
C2061 C2060 1.349 . S
C2061 C2073 1.349 . S
C2062 C2060 1.327 . S
C2062 C2078 1.429 . S
C2062 H2084 0.950 . S
C2063 H2059 0.949 . S
C2063 C2071 1.574 . S
C2063 C2079 1.368 . S
H2064 C2072 0.950 . S
H2065 C2070 0.950 . S
H2066 C2071 0.949 . S
H2067 C2073 0.950 . S
H2068 C2074 0.950 . S
H2069 C2075 0.949 . S
C2070 H2065 0.950 . S
C2070 C2072 1.327 . S
C2070 C2076 1.429 . S
C2071 C2063 1.574 . S
C2071 H2066 0.949 . S
C2071 C2077 1.368 . S
C2072 C2056 1.349 . S
C2072 H2064 0.950 . S
C2072 C2070 1.327 . S
C2073 C2061 1.349 . S
C2073 H2067 0.950 . S
C2073 C2074 1.327 . S
C2074 H2068 0.950 . S
C2074 C2073 1.327 . S
C2074 C2078 1.429 . S
C2075 C2058 1.574 . S
C2075 H2069 0.949 . S
C2075 C2079 1.368 . S
C2076 C2057 1.429 . S
C2076 C2070 1.429 . S
C2076 C2077 1.523 . S
C2077 C2058 1.368 . S
C2077 C2071 1.368 . S
C2077 C2076 1.523 . S
C2078 C2062 1.429 . S
C2078 C2074 1.429 . S
C2078 C2079 1.523 . S
C2079 C2063 1.368 . S
C2079 C2075 1.368 . S
C2079 C2078 1.523 . S
H2080 C2055 0.950 . S
H2081 C2057 0.950 . S
H2082 C2058 0.949 . S
H2083 C2060 0.950 . S
H2084 C2062 0.950 . S
C2085 C2086 1.349 . S
C2085 C2087 1.327 . S
C2085 H2110 0.950 . S
C2086 C2085 1.349 . S
C2086 C2102 1.349 . S
C2087 C2085 1.327 . S
C2087 C2106 1.429 . S
C2087 H2111 0.950 . S
C2088 C2105 1.574 . S
C2088 C2107 1.368 . S
C2088 H2112 0.949 . S
H2089 C2093 0.949 . S
C2090 C2091 1.349 . S
C2090 C2092 1.327 . S
C2090 H2113 0.950 . S
C2091 C2090 1.349 . S
C2091 C2103 1.349 . S
C2092 C2090 1.327 . S
C2092 C2108 1.429 . S
C2092 H2114 0.950 . S
C2093 H2089 0.949 . S
C2093 C2101 1.574 . S
C2093 C2109 1.368 . S
H2094 C2102 0.950 . S
H2095 C2100 0.950 . S
H2096 C2101 0.949 . S
H2097 C2103 0.950 . S
H2098 C2104 0.950 . S
H2099 C2105 0.949 . S
C2100 H2095 0.950 . S
C2100 C2102 1.327 . S
C2100 C2106 1.429 . S
C2101 C2093 1.574 . S
C2101 H2096 0.949 . S
C2101 C2107 1.368 . S
C2102 C2086 1.349 . S
C2102 H2094 0.950 . S
C2102 C2100 1.327 . S
C2103 C2091 1.349 . S
C2103 H2097 0.950 . S
C2103 C2104 1.327 . S
C2104 H2098 0.950 . S
C2104 C2103 1.327 . S
C2104 C2108 1.429 . S
C2105 C2088 1.574 . S
C2105 H2099 0.949 . S
C2105 C2109 1.368 . S
C2106 C2087 1.429 . S
C2106 C2100 1.429 . S
C2106 C2107 1.523 . S
C2107 C2088 1.368 . S
C2107 C2101 1.368 . S
C2107 C2106 1.523 . S
C2108 C2092 1.429 . S
C2108 C2104 1.429 . S
C2108 C2109 1.523 . S
C2109 C2093 1.368 . S
C2109 C2105 1.368 . S
C2109 C2108 1.523 . S
H2110 C2085 0.950 . S
H2111 C2087 0.950 . S
H2112 C2088 0.949 . S
H2113 C2090 0.950 . S
H2114 C2092 0.950 . S
C2115 C2116 1.349 . S
C2115 C2117 1.327 . S
C2115 H2140 0.950 . S
C2116 C2115 1.349 . S
C2116 C2132 1.349 . S
C2117 C2115 1.327 . S
C2117 C2136 1.429 . S
C2117 H2141 0.950 . S
C2118 C2135 1.574 . S
C2118 C2137 1.368 . S
C2118 H2142 0.949 . S
H2119 C2123 0.949 . S
C2120 C2121 1.349 . S
C2120 C2122 1.327 . S
C2120 H2143 0.950 . S
C2121 C2120 1.349 . S
C2121 C2133 1.349 . S
C2122 C2120 1.327 . S
C2122 C2138 1.429 . S
C2122 H2144 0.950 . S
C2123 H2119 0.949 . S
C2123 C2131 1.574 . S
C2123 C2139 1.368 . S
H2124 C2132 0.950 . S
H2125 C2130 0.950 . S
H2126 C2131 0.949 . S
H2127 C2133 0.950 . S
H2128 C2134 0.950 . S
H2129 C2135 0.949 . S
C2130 H2125 0.950 . S
C2130 C2132 1.327 . S
C2130 C2136 1.429 . S
C2131 C2123 1.574 . S
C2131 H2126 0.949 . S
C2131 C2137 1.368 . S
C2132 C2116 1.349 . S
C2132 H2124 0.950 . S
C2132 C2130 1.327 . S
C2133 C2121 1.349 . S
C2133 H2127 0.950 . S
C2133 C2134 1.327 . S
C2134 H2128 0.950 . S
C2134 C2133 1.327 . S
C2134 C2138 1.429 . S
C2135 C2118 1.574 . S
C2135 H2129 0.949 . S
C2135 C2139 1.368 . S
C2136 C2117 1.429 . S
C2136 C2130 1.429 . S
C2136 C2137 1.523 . S
C2137 C2118 1.368 . S
C2137 C2131 1.368 . S
C2137 C2136 1.523 . S
C2138 C2122 1.429 . S
C2138 C2134 1.429 . S
C2138 C2139 1.523 . S
C2139 C2123 1.368 . S
C2139 C2135 1.368 . S
C2139 C2138 1.523 . S
H2140 C2115 0.950 . S
H2141 C2117 0.950 . S
H2142 C2118 0.949 . S
H2143 C2120 0.950 . S
H2144 C2122 0.950 . S
C2145 C2146 1.349 . S
C2145 C2147 1.327 . S
C2145 H2170 0.950 . S
C2146 C2145 1.349 . S
C2146 C2162 1.349 . S
C2147 C2145 1.327 . S
C2147 C2166 1.429 . S
C2147 H2171 0.950 . S
C2148 C2165 1.574 . S
C2148 C2167 1.368 . S
C2148 H2172 0.949 . S
H2149 C2153 0.949 . S
C2150 C2151 1.349 . S
C2150 C2152 1.327 . S
C2150 H2173 0.950 . S
C2151 C2150 1.349 . S
C2151 C2163 1.349 . S
C2152 C2150 1.327 . S
C2152 C2168 1.429 . S
C2152 H2174 0.950 . S
C2153 H2149 0.949 . S
C2153 C2161 1.574 . S
C2153 C2169 1.368 . S
H2154 C2162 0.950 . S
H2155 C2160 0.950 . S
H2156 C2161 0.949 . S
H2157 C2163 0.950 . S
H2158 C2164 0.950 . S
H2159 C2165 0.949 . S
C2160 H2155 0.950 . S
C2160 C2162 1.327 . S
C2160 C2166 1.429 . S
C2161 C2153 1.574 . S
C2161 H2156 0.949 . S
C2161 C2167 1.368 . S
C2162 C2146 1.349 . S
C2162 H2154 0.950 . S
C2162 C2160 1.327 . S
C2163 C2151 1.349 . S
C2163 H2157 0.950 . S
C2163 C2164 1.327 . S
C2164 H2158 0.950 . S
C2164 C2163 1.327 . S
C2164 C2168 1.429 . S
C2165 C2148 1.574 . S
C2165 H2159 0.949 . S
C2165 C2169 1.368 . S
C2166 C2147 1.429 . S
C2166 C2160 1.429 . S
C2166 C2167 1.523 . S
C2167 C2148 1.368 . S
C2167 C2161 1.368 . S
C2167 C2166 1.523 . S
C2168 C2152 1.429 . S
C2168 C2164 1.429 . S
C2168 C2169 1.523 . S
C2169 C2153 1.368 . S
C2169 C2165 1.368 . S
C2169 C2168 1.523 . S
H2170 C2145 0.950 . S
H2171 C2147 0.950 . S
H2172 C2148 0.949 . S
H2173 C2150 0.950 . S
H2174 C2152 0.950 . S
C2175 C2176 1.349 . S
C2175 C2177 1.327 . S
C2175 H2200 0.950 . S
C2176 C2175 1.349 . S
C2176 C2192 1.349 . S
C2177 C2175 1.327 . S
C2177 C2196 1.429 . S
C2177 H2201 0.950 . S
C2178 C2195 1.574 . S
C2178 C2197 1.368 . S
C2178 H2202 0.949 . S
H2179 C2183 0.949 . S
C2180 C2181 1.349 . S
C2180 C2182 1.327 . S
C2180 H2203 0.950 . S
C2181 C2180 1.349 . S
C2181 C2193 1.349 . S
C2182 C2180 1.327 . S
C2182 C2198 1.429 . S
C2182 H2204 0.950 . S
C2183 H2179 0.949 . S
C2183 C2191 1.574 . S
C2183 C2199 1.368 . S
H2184 C2192 0.950 . S
H2185 C2190 0.950 . S
H2186 C2191 0.949 . S
H2187 C2193 0.950 . S
H2188 C2194 0.950 . S
H2189 C2195 0.949 . S
C2190 H2185 0.950 . S
C2190 C2192 1.327 . S
C2190 C2196 1.429 . S
C2191 C2183 1.574 . S
C2191 H2186 0.949 . S
C2191 C2197 1.368 . S
C2192 C2176 1.349 . S
C2192 H2184 0.950 . S
C2192 C2190 1.327 . S
C2193 C2181 1.349 . S
C2193 H2187 0.950 . S
C2193 C2194 1.327 . S
C2194 H2188 0.950 . S
C2194 C2193 1.327 . S
C2194 C2198 1.429 . S
C2195 C2178 1.574 . S
C2195 H2189 0.949 . S
C2195 C2199 1.368 . S
C2196 C2177 1.429 . S
C2196 C2190 1.429 . S
C2196 C2197 1.523 . S
C2197 C2178 1.368 . S
C2197 C2191 1.368 . S
C2197 C2196 1.523 . S
C2198 C2182 1.429 . S
C2198 C2194 1.429 . S
C2198 C2199 1.523 . S
C2199 C2183 1.368 . S
C2199 C2195 1.368 . S
C2199 C2198 1.523 . S
H2200 C2175 0.950 . S
H2201 C2177 0.950 . S
H2202 C2178 0.949 . S
H2203 C2180 0.950 . S
H2204 C2182 0.950 . S
C2205 C2206 1.349 . S
C2205 C2207 1.327 . S
C2205 H2230 0.950 . S
C2206 C2205 1.349 . S
C2206 C2222 1.349 . S
C2207 C2205 1.327 . S
C2207 C2226 1.429 . S
C2207 H2231 0.950 . S
C2208 C2225 1.574 . S
C2208 C2227 1.368 . S
C2208 H2232 0.949 . S
H2209 C2213 0.949 . S
C2210 C2211 1.349 . S
C2210 C2212 1.327 . S
C2210 H2233 0.950 . S
C2211 C2210 1.349 . S
C2211 C2223 1.349 . S
C2212 C2210 1.327 . S
C2212 C2228 1.429 . S
C2212 H2234 0.950 . S
C2213 H2209 0.949 . S
C2213 C2221 1.574 . S
C2213 C2229 1.368 . S
H2214 C2222 0.950 . S
H2215 C2220 0.950 . S
H2216 C2221 0.949 . S
H2217 C2223 0.950 . S
H2218 C2224 0.950 . S
H2219 C2225 0.949 . S
C2220 H2215 0.950 . S
C2220 C2222 1.327 . S
C2220 C2226 1.429 . S
C2221 C2213 1.574 . S
C2221 H2216 0.949 . S
C2221 C2227 1.368 . S
C2222 C2206 1.349 . S
C2222 H2214 0.950 . S
C2222 C2220 1.327 . S
C2223 C2211 1.349 . S
C2223 H2217 0.950 . S
C2223 C2224 1.327 . S
C2224 H2218 0.950 . S
C2224 C2223 1.327 . S
C2224 C2228 1.429 . S
C2225 C2208 1.574 . S
C2225 H2219 0.949 . S
C2225 C2229 1.368 . S
C2226 C2207 1.429 . S
C2226 C2220 1.429 . S
C2226 C2227 1.523 . S
C2227 C2208 1.368 . S
C2227 C2221 1.368 . S
C2227 C2226 1.523 . S
C2228 C2212 1.429 . S
C2228 C2224 1.429 . S
C2228 C2229 1.523 . S
C2229 C2213 1.368 . S
C2229 C2225 1.368 . S
C2229 C2228 1.523 . S
H2230 C2205 0.950 . S
H2231 C2207 0.950 . S
H2232 C2208 0.949 . S
H2233 C2210 0.950 . S
H2234 C2212 0.950 . S
C2235 C2236 1.349 . S
C2235 C2237 1.327 . S
C2235 H2260 0.950 . S
C2236 C2235 1.349 . S
C2236 C2252 1.349 . S
C2237 C2235 1.327 . S
C2237 C2256 1.429 . S
C2237 H2261 0.950 . S
C2238 C2255 1.574 . S
C2238 C2257 1.368 . S
C2238 H2262 0.949 . S
H2239 C2243 0.949 . S
C2240 C2241 1.349 . S
C2240 C2242 1.327 . S
C2240 H2263 0.950 . S
C2241 C2240 1.349 . S
C2241 C2253 1.349 . S
C2242 C2240 1.327 . S
C2242 C2258 1.429 . S
C2242 H2264 0.950 . S
C2243 H2239 0.949 . S
C2243 C2251 1.574 . S
C2243 C2259 1.368 . S
H2244 C2252 0.950 . S
H2245 C2250 0.950 . S
H2246 C2251 0.949 . S
H2247 C2253 0.950 . S
H2248 C2254 0.950 . S
H2249 C2255 0.949 . S
C2250 H2245 0.950 . S
C2250 C2252 1.327 . S
C2250 C2256 1.429 . S
C2251 C2243 1.574 . S
C2251 H2246 0.949 . S
C2251 C2257 1.368 . S
C2252 C2236 1.349 . S
C2252 H2244 0.950 . S
C2252 C2250 1.327 . S
C2253 C2241 1.349 . S
C2253 H2247 0.950 . S
C2253 C2254 1.327 . S
C2254 H2248 0.950 . S
C2254 C2253 1.327 . S
C2254 C2258 1.429 . S
C2255 C2238 1.574 . S
C2255 H2249 0.949 . S
C2255 C2259 1.368 . S
C2256 C2237 1.429 . S
C2256 C2250 1.429 . S
C2256 C2257 1.523 . S
C2257 C2238 1.368 . S
C2257 C2251 1.368 . S
C2257 C2256 1.523 . S
C2258 C2242 1.429 . S
C2258 C2254 1.429 . S
C2258 C2259 1.523 . S
C2259 C2243 1.368 . S
C2259 C2255 1.368 . S
C2259 C2258 1.523 . S
H2260 C2235 0.950 . S
H2261 C2237 0.950 . S
H2262 C2238 0.949 . S
H2263 C2240 0.950 . S
H2264 C2242 0.950 . S
C2265 C2266 1.349 . S
C2265 C2267 1.327 . S
C2265 H2290 0.950 . S
C2266 C2265 1.349 . S
C2266 C2282 1.349 . S
C2267 C2265 1.327 . S
C2267 C2286 1.429 . S
C2267 H2291 0.950 . S
C2268 C2285 1.574 . S
C2268 C2287 1.368 . S
C2268 H2292 0.949 . S
H2269 C2273 0.949 . S
C2270 C2271 1.349 . S
C2270 C2272 1.327 . S
C2270 H2293 0.950 . S
C2271 C2270 1.349 . S
C2271 C2283 1.349 . S
C2272 C2270 1.327 . S
C2272 C2288 1.429 . S
C2272 H2294 0.950 . S
C2273 H2269 0.949 . S
C2273 C2281 1.574 . S
C2273 C2289 1.368 . S
H2274 C2282 0.950 . S
H2275 C2280 0.950 . S
H2276 C2281 0.949 . S
H2277 C2283 0.950 . S
H2278 C2284 0.950 . S
H2279 C2285 0.949 . S
C2280 H2275 0.950 . S
C2280 C2282 1.327 . S
C2280 C2286 1.429 . S
C2281 C2273 1.574 . S
C2281 H2276 0.949 . S
C2281 C2287 1.368 . S
C2282 C2266 1.349 . S
C2282 H2274 0.950 . S
C2282 C2280 1.327 . S
C2283 C2271 1.349 . S
C2283 H2277 0.950 . S
C2283 C2284 1.327 . S
C2284 H2278 0.950 . S
C2284 C2283 1.327 . S
C2284 C2288 1.429 . S
C2285 C2268 1.574 . S
C2285 H2279 0.949 . S
C2285 C2289 1.368 . S
C2286 C2267 1.429 . S
C2286 C2280 1.429 . S
C2286 C2287 1.523 . S
C2287 C2268 1.368 . S
C2287 C2281 1.368 . S
C2287 C2286 1.523 . S
C2288 C2272 1.429 . S
C2288 C2284 1.429 . S
C2288 C2289 1.523 . S
C2289 C2273 1.368 . S
C2289 C2285 1.368 . S
C2289 C2288 1.523 . S
H2290 C2265 0.950 . S
H2291 C2267 0.950 . S
H2292 C2268 0.949 . S
H2293 C2270 0.950 . S
H2294 C2272 0.950 . S
C2295 C2296 1.349 . S
C2295 C2297 1.327 . S
C2295 H2320 0.950 . S
C2296 C2295 1.349 . S
C2296 C2312 1.349 . S
C2297 C2295 1.327 . S
C2297 C2316 1.429 . S
C2297 H2321 0.950 . S
C2298 C2315 1.574 . S
C2298 C2317 1.368 . S
C2298 H2322 0.949 . S
H2299 C2303 0.949 . S
C2300 C2301 1.349 . S
C2300 C2302 1.327 . S
C2300 H2323 0.950 . S
C2301 C2300 1.349 . S
C2301 C2313 1.349 . S
C2302 C2300 1.327 . S
C2302 C2318 1.429 . S
C2302 H2324 0.950 . S
C2303 H2299 0.949 . S
C2303 C2311 1.574 . S
C2303 C2319 1.368 . S
H2304 C2312 0.950 . S
H2305 C2310 0.950 . S
H2306 C2311 0.949 . S
H2307 C2313 0.950 . S
H2308 C2314 0.950 . S
H2309 C2315 0.949 . S
C2310 H2305 0.950 . S
C2310 C2312 1.327 . S
C2310 C2316 1.429 . S
C2311 C2303 1.574 . S
C2311 H2306 0.949 . S
C2311 C2317 1.368 . S
C2312 C2296 1.349 . S
C2312 H2304 0.950 . S
C2312 C2310 1.327 . S
C2313 C2301 1.349 . S
C2313 H2307 0.950 . S
C2313 C2314 1.327 . S
C2314 H2308 0.950 . S
C2314 C2313 1.327 . S
C2314 C2318 1.429 . S
C2315 C2298 1.574 . S
C2315 H2309 0.949 . S
C2315 C2319 1.368 . S
C2316 C2297 1.429 . S
C2316 C2310 1.429 . S
C2316 C2317 1.523 . S
C2317 C2298 1.368 . S
C2317 C2311 1.368 . S
C2317 C2316 1.523 . S
C2318 C2302 1.429 . S
C2318 C2314 1.429 . S
C2318 C2319 1.523 . S
C2319 C2303 1.368 . S
C2319 C2315 1.368 . S
C2319 C2318 1.523 . S
H2320 C2295 0.950 . S
H2321 C2297 0.950 . S
H2322 C2298 0.949 . S
H2323 C2300 0.950 . S
H2324 C2302 0.950 . S
C2325 C2326 1.349 . S
C2325 C2327 1.327 . S
C2325 H2350 0.950 . S
C2326 C2325 1.349 . S
C2326 C2342 1.349 . S
C2327 C2325 1.327 . S
C2327 C2346 1.429 . S
C2327 H2351 0.950 . S
C2328 C2345 1.574 . S
C2328 C2347 1.368 . S
C2328 H2352 0.949 . S
H2329 C2333 0.949 . S
C2330 C2331 1.349 . S
C2330 C2332 1.327 . S
C2330 H2353 0.950 . S
C2331 C2330 1.349 . S
C2331 C2343 1.349 . S
C2332 C2330 1.327 . S
C2332 C2348 1.429 . S
C2332 H2354 0.950 . S
C2333 H2329 0.949 . S
C2333 C2341 1.574 . S
C2333 C2349 1.368 . S
H2334 C2342 0.950 . S
H2335 C2340 0.950 . S
H2336 C2341 0.949 . S
H2337 C2343 0.950 . S
H2338 C2344 0.950 . S
H2339 C2345 0.949 . S
C2340 H2335 0.950 . S
C2340 C2342 1.327 . S
C2340 C2346 1.429 . S
C2341 C2333 1.574 . S
C2341 H2336 0.949 . S
C2341 C2347 1.368 . S
C2342 C2326 1.349 . S
C2342 H2334 0.950 . S
C2342 C2340 1.327 . S
C2343 C2331 1.349 . S
C2343 H2337 0.950 . S
C2343 C2344 1.327 . S
C2344 H2338 0.950 . S
C2344 C2343 1.327 . S
C2344 C2348 1.429 . S
C2345 C2328 1.574 . S
C2345 H2339 0.949 . S
C2345 C2349 1.368 . S
C2346 C2327 1.429 . S
C2346 C2340 1.429 . S
C2346 C2347 1.523 . S
C2347 C2328 1.368 . S
C2347 C2341 1.368 . S
C2347 C2346 1.523 . S
C2348 C2332 1.429 . S
C2348 C2344 1.429 . S
C2348 C2349 1.523 . S
C2349 C2333 1.368 . S
C2349 C2345 1.368 . S
C2349 C2348 1.523 . S
H2350 C2325 0.950 . S
H2351 C2327 0.950 . S
H2352 C2328 0.949 . S
H2353 C2330 0.950 . S
H2354 C2332 0.950 . S
C2355 C2356 1.349 . S
C2355 C2357 1.327 . S
C2355 H2380 0.950 . S
C2356 C2355 1.349 . S
C2356 C2372 1.349 . S
C2357 C2355 1.327 . S
C2357 C2376 1.429 . S
C2357 H2381 0.950 . S
C2358 C2375 1.574 . S
C2358 C2377 1.368 . S
C2358 H2382 0.949 . S
H2359 C2363 0.949 . S
C2360 C2361 1.349 . S
C2360 C2362 1.327 . S
C2360 H2383 0.950 . S
C2361 C2360 1.349 . S
C2361 C2373 1.349 . S
C2362 C2360 1.327 . S
C2362 C2378 1.429 . S
C2362 H2384 0.950 . S
C2363 H2359 0.949 . S
C2363 C2371 1.574 . S
C2363 C2379 1.368 . S
H2364 C2372 0.950 . S
H2365 C2370 0.950 . S
H2366 C2371 0.949 . S
H2367 C2373 0.950 . S
H2368 C2374 0.950 . S
H2369 C2375 0.949 . S
C2370 H2365 0.950 . S
C2370 C2372 1.327 . S
C2370 C2376 1.429 . S
C2371 C2363 1.574 . S
C2371 H2366 0.949 . S
C2371 C2377 1.368 . S
C2372 C2356 1.349 . S
C2372 H2364 0.950 . S
C2372 C2370 1.327 . S
C2373 C2361 1.349 . S
C2373 H2367 0.950 . S
C2373 C2374 1.327 . S
C2374 H2368 0.950 . S
C2374 C2373 1.327 . S
C2374 C2378 1.429 . S
C2375 C2358 1.574 . S
C2375 H2369 0.949 . S
C2375 C2379 1.368 . S
C2376 C2357 1.429 . S
C2376 C2370 1.429 . S
C2376 C2377 1.523 . S
C2377 C2358 1.368 . S
C2377 C2371 1.368 . S
C2377 C2376 1.523 . S
C2378 C2362 1.429 . S
C2378 C2374 1.429 . S
C2378 C2379 1.523 . S
C2379 C2363 1.368 . S
C2379 C2375 1.368 . S
C2379 C2378 1.523 . S
H2380 C2355 0.950 . S
H2381 C2357 0.950 . S
H2382 C2358 0.949 . S
H2383 C2360 0.950 . S
H2384 C2362 0.950 . S
C766 C439 1.289 . S
C771 C590 1.282 . S
C796 C465 1.426 . S
C801 C611 1.343 . S
C826 C401 1.309 . S
C831 C631 1.119 . S
C856 C369 1.336 . S
C861 C610 1.132 1_556 S
C891 C632 1.367 . S
C886 C305 1.457 . S
C916 C343 1.248 . S
C921 C589 1.116 1_556 S
C951 C591 1.251 . S
C946 C375 1.334 . S
C981 C612 1.254 . S
C976 C311 1.331 . S
C1006 C337 1.305 . S
C1011 C634 1.155 1_556 S
C1036 C433 1.262 . S
C1041 C613 1.122 . S
C1066 C471 1.297 . S
C1071 C633 1.223 . S
C1101 C592 1.147 . S
C1096 C407 1.347 . S
C1131 C653 1.282 . S
C1126 C55 1.289 . S
C1156 C81 1.426 . S
C1161 C674 1.343 . S
C1186 C17 1.309 . S
C1191 C694 1.119 . S
C1216 C561 1.336 . S
C1221 C673 1.132 . S
C1246 C497 1.457 . S
C1251 C695 1.367 . S
C1276 C535 1.248 . S
C1281 C652 1.116 . S
C1306 C567 1.334 . S
C1311 C654 1.251 . S
C1336 C503 1.331 . S
C1341 C675 1.254 . S
C1371 C697 1.155 . S
C1366 C529 1.305 . S
C1396 C49 1.262 . S
C1401 C676 1.122 . S
C1431 C696 1.223 . S
C1426 C87 1.297 . S
C1456 C23 1.347 . S
C1461 C655 1.147 . S
C1491 C716 1.282 . S
C1486 C247 1.290 . S
C1516 C273 1.426 . S
C1521 C737 1.343 . S
C1551 C757 1.119 . S
C1546 C209 1.309 . S
C1581 C736 1.132 . S
C1576 C177 1.336 . S
C1611 C758 1.367 . S
C1606 C113 1.457 . S
C1636 C151 1.248 . S
C1641 C715 1.116 . S
C1666 C183 1.334 . S
C1671 C717 1.251 . S
C1696 C119 1.331 . S
C1701 C738 1.254 . S
C1731 C760 1.155 . S
C1726 C145 1.305 . S
C1756 C241 1.262 . S
C1761 C739 1.122 . S
C1786 C279 1.297 . S
C1791 C759 1.224 . S
C1816 C215 1.347 . S
C1821 C718 1.147 . S
C1846 C509 1.413 . S
C1851 C594 1.378 1_565 S
C1881 C615 1.368 . S
C1876 C541 1.347 . S
C1906 C573 1.493 . S
C1911 C635 1.463 . S
C1936 C221 1.543 . S
C1941 C614 1.520 . S
C1966 C253 1.372 . S
C1971 C636 1.385 . S
C2001 C593 1.497 . S
C1996 C285 1.522 . S
C2026 C125 1.413 . S
C2031 C657 1.378 . S
C2056 C157 1.347 . S
C2061 C678 1.368 . S
C2086 C189 1.493 . S
C2091 C698 1.463 . S
C2116 C413 1.542 . S
C2121 C677 1.515 . S
C2151 C699 1.385 . S
C2146 C445 1.372 . S
C2176 C477 1.522 . S
C2181 C656 1.497 . S
C2206 C317 1.413 . S
C2211 C720 1.378 . S
C2236 C349 1.347 . S
C2241 C741 1.368 . S
C2271 C761 1.463 . S
C2266 C381 1.492 . S
C2296 C29 1.542 . S
C2301 C740 1.515 . S
C2326 C61 1.372 . S
C2331 C762 1.385 . S
C2356 C93 1.522 . S
C2361 C719 1.497 . S
