# Generated by pormake.
# Topology zzz, (3,6)-cn, num edge types: 1
# Building blocks:
#     Node 0, Type 0, BuildingBlock: BETDIP_clean_linker_0, # of connection points: 3
#     Node 1, Type 0, BuildingBlock: BETDIP_clean_linker_0, # of connection points: 3
#     Node 2, Type 0, BuildingBlock: BETDIP_clean_linker_0, # of connection points: 3
#     Node 3, Type 0, BuildingBlock: BETDIP_clean_linker_0, # of connection points: 3
#     Node 4, Type 0, BuildingBlock: BETDIP_clean_linker_0, # of connection points: 3
#     Node 5, Type 0, BuildingBlock: BETDIP_clean_linker_0, # of connection points: 3
#     Node 6, Type 0, BuildingBlock: BETDIP_clean_linker_0, # of connection points: 3
#     Node 7, Type 0, BuildingBlock: BETDIP_clean_linker_0, # of connection points: 3
#     Node 8, Type 1, BuildingBlock: BETDEL_clean_sbu_0, # of connection points: 6
#     Node 9, Type 1, BuildingBlock: BETDEL_clean_sbu_0, # of connection points: 6
#     Node 10, Type 1, BuildingBlock: BETDEL_clean_sbu_0, # of connection points: 6
#     Node 11, Type 1, BuildingBlock: BETDEL_clean_sbu_0, # of connection points: 6
#     Edge 12, Type (0, 1), BuildingBlock: XIVTED_clean_linker_0, # of connection points: 2
#     Edge 13, Type (0, 1), BuildingBlock: XIVTED_clean_linker_0, # of connection points: 2
#     Edge 14, Type (0, 1), BuildingBlock: XIVTED_clean_linker_0, # of connection points: 2
#     Edge 15, Type (0, 1), BuildingBlock: XIVTED_clean_linker_0, # of connection points: 2
#     Edge 16, Type (0, 1), BuildingBlock: XIVTED_clean_linker_0, # of connection points: 2
#     Edge 17, Type (0, 1), BuildingBlock: XIVTED_clean_linker_0, # of connection points: 2
#     Edge 18, Type (0, 1), BuildingBlock: XIVTED_clean_linker_0, # of connection points: 2
#     Edge 19, Type (0, 1), BuildingBlock: XIVTED_clean_linker_0, # of connection points: 2
#     Edge 20, Type (0, 1), BuildingBlock: XIVTED_clean_linker_0, # of connection points: 2
#     Edge 21, Type (0, 1), BuildingBlock: XIVTED_clean_linker_0, # of connection points: 2
#     Edge 22, Type (0, 1), BuildingBlock: XIVTED_clean_linker_0, # of connection points: 2
#     Edge 23, Type (0, 1), BuildingBlock: XIVTED_clean_linker_0, # of connection points: 2
#     Edge 24, Type (0, 1), BuildingBlock: XIVTED_clean_linker_0, # of connection points: 2
#     Edge 25, Type (0, 1), BuildingBlock: XIVTED_clean_linker_0, # of connection points: 2
#     Edge 26, Type (0, 1), BuildingBlock: XIVTED_clean_linker_0, # of connection points: 2
#     Edge 27, Type (0, 1), BuildingBlock: XIVTED_clean_linker_0, # of connection points: 2
#     Edge 28, Type (0, 1), BuildingBlock: XIVTED_clean_linker_0, # of connection points: 2
#     Edge 29, Type (0, 1), BuildingBlock: XIVTED_clean_linker_0, # of connection points: 2
#     Edge 30, Type (0, 1), BuildingBlock: XIVTED_clean_linker_0, # of connection points: 2
#     Edge 31, Type (0, 1), BuildingBlock: XIVTED_clean_linker_0, # of connection points: 2
#     Edge 32, Type (0, 1), BuildingBlock: XIVTED_clean_linker_0, # of connection points: 2
#     Edge 33, Type (0, 1), BuildingBlock: XIVTED_clean_linker_0, # of connection points: 2
#     Edge 34, Type (0, 1), BuildingBlock: XIVTED_clean_linker_0, # of connection points: 2
#     Edge 35, Type (0, 1), BuildingBlock: XIVTED_clean_linker_0, # of connection points: 2
# Relax obj value: 0.157
# Max RMSD: 0.178
# Mean RMSD: 0.115
data_MOF--net-zzz--node1-BETDEL_clean_sbu_0--node2-BETDIP_clean_linker_0--edge1-XIVTED_clean_linker_0
_symmetry_space_group_name_H-M    P1
_symmetry_Int_Tables_number       1
_symmetry_cell_setting            triclinic
loop_
_symmetry_equiv_pos_as_xyz
'x, y, z'
_cell_length_a     49.545803
_cell_length_b     50.720538
_cell_length_c     14.884316
_cell_angle_alpha  91.636575
_cell_angle_beta   88.633807
_cell_angle_gamma 94.881247
loop_
_atom_site_label
_atom_site_type_symbol
_atom_site_fract_x
_atom_site_fract_y
_atom_site_fract_z
_atom_type_partial_charge
H0 H 0.74519 0.53044 0.26791 0.0
H1 H 0.74678 0.51735 0.97928 0.0
H2 H 0.81395 0.49903 0.13409 0.0
H3 H 0.72642 0.56457 0.02358 0.0
C4 C 0.71017 0.5505 0.04712 0.0
C5 C 0.75511 0.52343 0.20726 0.0
C6 C 0.78115 0.51415 0.2113 0.0
C7 C 0.74234 0.52428 0.12321 0.0
C8 C 0.75595 0.51619 0.04427 0.0
C9 C 0.78139 0.50656 0.04919 0.0
C10 C 0.79356 0.50536 0.13211 0.0
N11 N 0.71604 0.53338 0.11704 0.0
H12 H 1.00067 0.74975 0.19978 0.0
H13 H 0.063 0.76814 -0.00217 0.0
H14 H 0.03816 0.82895 0.17928 0.0
H15 H 0.99427 0.7099 0.11686 0.0
C16 C 1.01153 0.7079 0.07164 0.0
C17 C 0.0157 0.76358 0.16894 0.0
C18 C 0.01816 0.79031 0.199 0.0
C19 C 0.03284 0.75536 0.09766 0.0
C20 C 0.05121 0.77409 0.05612 0.0
C21 C 0.05311 0.80067 0.08475 0.0
C22 C 0.03743 0.8082 0.15852 0.0
N23 N 0.03199 0.72907 0.06137 0.0
H24 H 0.75719 0.99542 0.23545 0.0
H25 H 0.7746 0.01966 0.96291 0.0
H26 H 0.69797 0.03287 0.08795 0.0
H27 H 0.79283 0.96568 0.00474 0.0
C28 C 0.80616 0.98155 0.03434 0.0
C29 C 0.7511 1.00452 0.17502 0.0
C30 C 0.72524 0.01415 0.17132 0.0
C31 C 0.769 1.00645 0.09951 0.0
C32 C 0.76093 0.01804 0.02081 0.0
C33 C 0.73569 0.02838 0.01794 0.0
C34 C 0.71808 0.02612 0.09265 0.0
N35 N 0.79557 0.99796 0.1035 0.0
H36 H 0.51347 0.77066 0.29224 0.0
H37 H 0.52729 0.76248 0.00528 0.0
H38 H 0.52922 0.69526 0.17223 0.0
H39 H 0.5601 0.80629 0.08269 0.0
C40 C 0.53988 0.81311 0.08808 0.0
C41 C 0.51831 0.75868 0.23362 0.0
C42 C 0.52157 0.7315 0.24212 0.0
C43 C 0.52165 0.77023 0.14812 0.0
C44 C 0.52643 0.75413 0.07162 0.0
C45 C 0.52926 0.72717 0.08071 0.0
C46 C 0.52767 0.71637 0.16585 0.0
N47 N 0.51958 0.79778 0.13776 0.0
H48 H 0.26607 0.48872 0.92233 0.0
H49 H 0.26925 0.54372 0.14885 0.0
H50 H 0.20216 0.53965 0.97044 0.0
H51 H 0.31956 0.54651 0.06381 0.0
C52 C 0.31881 0.52635 0.08731 0.0
C53 C 0.25783 0.50489 0.95999 0.0
C54 C 0.23294 0.51388 0.93573 0.0
C55 C 0.2719 0.51691 0.03398 0.0
C56 C 0.25983 0.53634 0.08705 0.0
C57 C 0.23449 0.54442 0.0651 0.0
C58 C 0.22218 0.5342 0.98651 0.0
N59 N 0.297 0.50801 0.05992 0.0
H60 H 0.0403 0.26558 0.92298 0.0
H61 H 0.98549 0.25811 0.15245 0.0
H62 H 0.99775 0.19052 0.98105 0.0
H63 H 0.97635 0.30334 0.06673 0.0
C64 C 0.9971 0.3093 0.08553 0.0
C65 C 0.02553 0.2538 0.96309 0.0
C66 C 0.01986 0.2267 0.94252 0.0
C67 C 1.01205 0.26557 0.0365 0.0
C68 C 0.9942 0.24967 0.09183 0.0
C69 C 0.98896 0.22255 0.0718 0.0
C70 C 1.00107 0.21166 -0.00465 0.0
N71 N 0.0179 0.2929 0.05841 0.0
H72 H 0.27047 0.02926 0.9243 0.0
H73 H 0.25533 0.97489 0.14152 0.0
H74 H 0.33482 0.98665 0.0213 0.0
H75 H 0.21467 0.96677 0.03001 0.0
C76 C 0.2105 0.98688 0.04957 0.0
C77 C 0.27747 0.01483 0.96866 0.0
C78 C 0.30481 0.00896 0.96453 0.0
C79 C 0.2592 1.00187 0.03084 0.0
C80 C 0.26883 0.98393 0.09066 0.0
C81 C 0.29601 0.97826 0.08694 0.0
C82 C 0.31358 0.99048 0.02284 0.0
N83 N 0.23148 1.00751 0.03609 0.0
H84 H 0.49492 0.2446 0.85571 0.0
H85 H 0.49841 0.25595 0.14437 0.0
H86 H 0.48113 0.31996 0.97952 0.0
H87 H 0.5369 0.22756 0.09179 0.0
C88 C 0.521 0.21255 0.0719 0.0
C89 C 0.49234 0.25682 0.91563 0.0
C90 C 0.48704 0.28355 0.90808 0.0
C91 C 0.49579 0.24645 0.0015 0.0
C92 C 0.49463 0.26324 0.07851 0.0
C93 C 0.48883 0.28956 0.07047 0.0
C94 C 0.48422 0.29914 0.98585 0.0
N95 N 0.50137 0.21956 0.01048 0.0
Dy96 Dy 0.0275 0.99453 0.64853 0.0
C97 C 0.9934 0.05225 0.33779 0.0
C98 C 0.03475 0.96551 0.79494 0.0
Dy99 Dy 0.99863 0.02009 0.47801 0.0
O100 O 0.05293 0.98279 0.7615 0.0
O101 O 1.01231 0.96552 0.75146 0.0
O102 O 0.067 0.98801 0.57368 0.0
O103 O 0.03668 1.00567 0.51227 0.0
C104 C 0.06008 0.99831 0.4996 0.0
C105 C 0.96567 0.01505 0.6259 0.0
O106 O 0.99555 0.97691 0.43602 0.0
O107 O 1.00652 0.95972 0.57442 0.0
O108 O 0.97416 0.03558 0.36863 0.0
O109 O 0.01578 0.0495 0.37903 0.0
O110 O 0.95827 0.02457 0.55102 0.0
O111 O 0.9897 0.00933 0.61469 0.0
O112 O 0.03092 0.03758 0.6903 0.0
O113 O 0.01857 0.05502 0.55417 0.0
C114 C 0.99784 0.95673 0.49043 0.0
C115 C 0.02797 0.05782 0.63716 0.0
Dy116 Dy 0.49176 0.99137 0.51262 0.0
C117 C 0.58651 0.04654 0.65721 0.0
C118 C 0.4441 0.96526 0.45944 0.0
Dy119 Dy 0.53635 0.02336 0.61873 0.0
O120 O 0.46698 0.96527 0.41489 0.0
O121 O 0.44738 0.97934 0.53304 0.0
O122 O 0.52238 0.98571 0.40058 0.0
O123 O 0.53456 0.98781 0.53459 0.0
C124 C 0.5428 0.98634 0.4541 0.0
C125 C 0.48573 0.02954 0.67903 0.0
O126 O 0.53245 0.04913 0.50016 0.0
O127 O 0.49204 0.03013 0.44165 0.0
O128 O 0.56524 0.04736 0.70999 0.0
O129 O 0.58016 0.03342 0.58374 0.0
O130 O 0.50674 0.03197 0.73056 0.0
O131 O 0.49333 0.02692 0.59793 0.0
O132 O 0.49556 0.96544 0.63296 0.0
O133 O 0.53592 0.98512 0.6897 0.0
C134 C 0.51244 0.04897 0.44233 0.0
C135 C 0.51584 0.96607 0.6903 0.0
Dy136 Dy 0.49761 0.51801 0.66932 0.0
C137 C 0.52511 0.4666 0.34278 0.0
C138 C 0.4952 0.55 0.81875 0.0
Dy139 Dy 0.52059 0.49835 0.49204 0.0
O140 O 0.47525 0.54389 0.76485 0.0
O141 O 0.51548 0.53664 0.79473 0.0
O142 O 0.45547 0.50229 0.62844 0.0
O143 O 0.48411 0.5166 0.53174 0.0
C144 C 0.46063 0.50541 0.54288 0.0
C145 C 0.55762 0.51277 0.61581 0.0
O146 O 0.5194 0.54053 0.45348 0.0
O147 O 0.51517 0.55536 0.60163 0.0
O148 O 0.54408 0.47227 0.40066 0.0
O149 O 0.50463 0.48012 0.36316 0.0
O150 O 0.56203 0.51597 0.52998 0.0
O151 O 0.53471 0.50047 0.62958 0.0
O152 O 0.49745 0.47566 0.70655 0.0
O153 O 0.50168 0.46133 0.55793 0.0
C154 C 0.5193 0.56003 0.51486 0.0
C155 C 0.49714 0.45644 0.64427 0.0
Dy156 Dy 0.99493 0.49725 0.64811 0.0
C157 C 0.05695 0.52707 0.3322 0.0
C158 C 0.9579 0.48564 0.78172 0.0
Dy159 Dy 0.02248 0.52312 0.47637 0.0
O160 O 0.96221 0.47053 0.71201 0.0
O161 O 0.97532 0.50634 0.78137 0.0
O162 O 1.01051 0.45875 0.60227 0.0
O163 O 0.9998 0.48554 0.5065 0.0
C164 C 1.00981 0.46377 0.51714 0.0
C165 C 0.01898 0.56018 0.6091 0.0
O166 O 0.97927 0.52165 0.43333 0.0
O167 O 0.96069 0.51401 0.5768 0.0
O168 O 0.04058 0.54487 0.35676 0.0
O169 O 0.0526 0.5065 0.38222 0.0
O170 O 0.02895 0.56537 0.52948 0.0
O171 O 1.01136 0.53591 0.61022 0.0
O172 O 0.03741 0.50108 0.69668 0.0
O173 O 0.05676 0.50913 0.5548 0.0
C174 C 0.95831 0.51985 0.49103 0.0
C175 C 0.05879 0.50375 0.64113 0.0
H176 H 0.17105 0.94897 0.08903 0.0
H177 H 0.07553 0.03913 0.38541 0.0
H178 H 0.19149 0.03284 0.12621 0.0
H179 H 0.08302 0.95639 0.42662 0.0
H180 H 0.11024 0.03811 0.26309 0.0
H181 H 0.13067 0.95255 0.18415 0.0
C182 C 0.16687 0.96824 0.11662 0.0
C183 C 0.18481 0.99057 0.10035 0.0
C184 C 0.10388 0.02014 0.29814 0.0
C185 C 0.1384 0.99485 0.20987 0.0
C186 C 0.08393 0.02065 0.36695 0.0
C187 C 0.07637 0.99772 0.41529 0.0
C188 C 0.11575 0.99642 0.27701 0.0
C189 C 0.08824 0.97443 0.39056 0.0
C190 C 0.14383 0.97026 0.17111 0.0
C191 C 0.17827 0.01509 0.13751 0.0
N192 N 0.10722 0.97436 0.32327 0.0
N193 N 0.15561 0.01658 0.19111 0.0
H194 H 0.55877 0.19531 0.1773 0.0
H195 H 0.47333 0.06114 0.32328 0.0
H196 H 0.48046 0.17098 0.06838 0.0
H197 H 0.55291 0.08819 0.41776 0.0
H198 H 0.47516 0.09959 0.22527 0.0
H199 H 0.5568 0.1546 0.26074 0.0
C200 C 0.54119 0.18121 0.17048 0.0
C201 C 0.51981 0.18653 0.1158 0.0
C202 C 0.4922 0.09697 0.26738 0.0
C203 C 0.51711 0.13965 0.21258 0.0
C204 C 0.49118 0.07502 0.32335 0.0
C205 C 0.51291 0.0714 0.37963 0.0
C206 C 0.51513 0.11536 0.26763 0.0
C207 C 0.53552 0.09008 0.37649 0.0
C208 C 0.54002 0.15792 0.21839 0.0
C209 C 0.49746 0.16759 0.10962 0.0
N210 N 0.53596 0.11112 0.32198 0.0
N211 N 0.4966 0.145 0.15794 0.0
H212 H 0.36855 0.55179 0.10335 0.0
H213 H 0.40754 0.48404 0.55106 0.0
H214 H 0.31817 0.48586 0.2088 0.0
H215 H 0.46659 0.52407 0.37339 0.0
H216 H 0.37319 0.48577 0.43462 0.0
H217 H 0.40356 0.54369 0.20966 0.0
C218 C 0.36501 0.5354 0.14849 0.0
C219 C 0.34057 0.51936 0.14685 0.0
C220 C 0.39376 0.49391 0.4211 0.0
C221 C 0.38034 0.51029 0.27063 0.0
C222 C 0.41331 0.49298 0.48746 0.0
C223 C 0.43992 0.50407 0.47212 0.0
C224 C 0.40083 0.5064 0.33968 0.0
C225 C 0.44633 0.51536 0.38843 0.0
C226 C 0.38499 0.53077 0.20917 0.0
C227 C 0.33689 0.49851 0.20731 0.0
N228 N 0.42692 0.5165 0.32604 0.0
N229 N 0.35646 0.49475 0.26768 0.0
H230 H 0.9657 0.3504 0.09876 0.0
H231 H 0.03646 0.41897 0.52369 0.0
H232 H 0.04051 0.32479 0.19321 0.0
H233 H 0.98945 0.46216 0.34744 0.0
H234 H 0.0369 0.38304 0.4097 0.0
H235 H 0.9722 0.39031 0.19519 0.0
C236 C 0.98365 0.35337 0.13925 0.0
C237 C 1.00264 0.33439 0.13785 0.0
C238 C 0.02679 0.40053 0.39559 0.0
C239 C 1.00991 0.37964 0.24983 0.0
C240 C 0.02647 0.42098 0.46058 0.0
C241 C 0.01278 0.44347 0.44503 0.0
C242 C 0.01278 0.40233 0.31537 0.0
C243 C 1.00022 0.44514 0.36212 0.0
C244 C 0.98737 0.37613 0.19404 0.0
C245 C 0.02549 0.33906 0.19187 0.0
N246 N 1.00015 0.42465 0.30096 0.0
N247 N 0.02831 0.36106 0.24678 0.0
H248 H 0.83832 0.02862 0.03114 0.0
H249 H 0.9583 0.97168 0.73327 0.0
H250 H 0.83634 0.94667 0.94455 0.0
H251 H 0.93115 0.04901 0.69634 0.0
H252 H 0.92225 0.96345 0.84889 0.0
H253 H 0.88116 0.03742 0.94586 0.0
C254 C 0.84721 0.01238 -0.00408 0.0
C255 C 0.83382 0.98686 -0.00526 0.0
C256 C 0.92461 0.98239 0.81656 0.0
C257 C 0.88278 0.99673 0.8982 0.0
C258 C 0.94529 0.98717 0.75149 0.0
C259 C 0.94772 0.01111 0.70598 0.0
C260 C 0.90676 1.00195 0.83732 0.0
C261 C 0.92991 0.03032 0.73022 0.0
C262 C 0.87152 0.01744 0.94695 0.0
C263 C 0.84606 0.96662 0.94695 0.0
N264 N 0.91024 0.02538 0.7943 0.0
N265 N 0.86985 0.97195 0.90064 0.0
H266 H 0.57726 0.84999 0.0249 0.0
H267 H 0.47687 0.92557 0.73155 0.0
H268 H 0.4909 0.83047 0.03749 0.0
H269 H 0.55829 0.95644 0.795 0.0
H270 H 0.48109 0.88928 0.83528 0.0
H271 H 0.57036 0.88782 0.93307 0.0
C272 C 0.55677 0.85388 0.0089 0.0
C273 C 0.53465 0.83722 0.03932 0.0
C274 C 0.49791 0.90413 0.82663 0.0
C275 C 0.52649 0.88034 0.93223 0.0
C276 C 0.49558 0.92479 0.76718 0.0
C277 C 0.51729 0.94413 0.754 0.0
C278 C 0.52224 0.90262 0.87229 0.0
C279 C 0.54098 0.9421 0.80253 0.0
C280 C 0.55282 0.87548 0.95636 0.0
C281 C 0.50851 0.84302 0.01607 0.0
N282 N 0.54284 0.92172 0.85869 0.0
N283 N 0.50514 0.864 0.96309 0.0
H284 H 0.69933 0.57731 0.90039 0.0
H285 H 0.5572 0.49647 0.79071 0.0
H286 H 0.66514 0.51416 0.06668 0.0
H287 H 0.60509 0.54367 0.59918 0.0
H288 H 0.59288 0.50643 0.902 0.0
H289 H 0.66114 0.5693 0.79985 0.0
C290 C 0.68361 0.56184 0.91609 0.0
C291 C 0.68549 0.54634 0.99181 0.0
C292 C 0.59551 0.51462 0.83566 0.0
C293 C 0.64152 0.53691 0.87633 0.0
C294 C 0.57515 0.50903 0.77227 0.0
C295 C 0.57826 0.5192 0.68545 0.0
C296 C 0.61897 0.53076 0.81231 0.0
C297 C 0.6019 0.53531 0.66509 0.0
C298 C 0.66185 0.5572 0.85838 0.0
C299 C 0.66452 0.52656 0.00892 0.0
N300 N 0.62125 0.54061 0.72791 0.0
N301 N 0.64339 0.52236 0.95146 0.0
H302 H 0.97547 0.6635 0.06175 0.0
H303 H 0.04669 0.60811 0.61693 0.0
H304 H 0.05035 0.69778 0.94403 0.0
H305 H 0.9886 0.55815 0.76861 0.0
H306 H 0.04507 0.64238 0.73375 0.0
H307 H 0.97699 0.62557 0.95444 0.0
C308 C 0.99225 0.66299 0.01392 0.0
C309 C 0.01268 0.68397 0.01172 0.0
C310 C 0.03272 0.62392 0.74231 0.0
C311 C 0.01444 0.641 0.88891 0.0
C312 C 0.03358 0.60432 0.67527 0.0
C313 C 0.01785 0.58018 0.68325 0.0
C314 C 0.01569 0.6197 0.8182 0.0
C315 C 1.00123 0.57641 0.76042 0.0
C316 C 0.99312 0.64138 0.95293 0.0
C317 C 0.03399 0.6823 0.94843 0.0
N318 N 1.00042 0.59608 0.82494 0.0
N319 N 0.03416 0.66139 0.88958 0.0
H320 H 1.00527 0.21654 0.2414 0.0
H321 H 0.94688 0.06541 0.25861 0.0
H322 H 0.94697 0.18432 0.04863 0.0
H323 H 0.02841 0.09582 0.32214 0.0
H324 H 0.93759 0.11007 0.21258 0.0
H325 H 1.00178 0.17404 0.31566 0.0
C326 C 0.99065 0.20096 0.21754 0.0
C327 C 0.97672 0.20372 0.13808 0.0
C328 C 0.95745 0.10675 0.23654 0.0
C329 C 0.97337 0.15496 0.22036 0.0
C330 C 0.96288 0.08133 0.2615 0.0
C331 C 0.98852 0.07692 0.29331 0.0
C332 C 0.97761 0.12777 0.24616 0.0
C333 C 1.00844 0.09825 0.29724 0.0
C334 C 0.9891 0.17654 0.25874 0.0
C335 C 0.95823 0.18275 0.10945 0.0
N336 N 1.00247 0.12276 0.27489 0.0
N337 N 0.95756 0.1589 0.14926 0.0
H338 H 0.32737 0.93687 0.06148 0.0
H339 H 0.39408 0.97223 0.53218 0.0
H340 H 0.29253 0.9852 0.26908 0.0
H341 H 0.43393 0.93617 0.30519 0.0
H342 H 0.35075 0.96393 0.4564 0.0
H343 H 0.35908 0.92269 0.17001 0.0
C344 C 0.32583 0.94376 0.13085 0.0
C345 C 0.30775 0.9626 0.15623 0.0
C346 C 0.36887 0.9573 0.42403 0.0
C347 C 0.34431 0.9471 0.27989 0.0
C348 C 0.39359 0.96199 0.46726 0.0
C349 C 0.41759 0.95533 0.4238 0.0
C350 C 0.36829 0.94594 0.33682 0.0
C351 C 0.41588 0.94198 0.34022 0.0
C352 C 0.34402 0.93582 0.19262 0.0
C353 C 0.30633 0.97079 0.24683 0.0
N354 N 0.39169 0.93809 0.29874 0.0
N355 N 0.32489 0.9635 0.30509 0.0
H356 H 0.5347 0.30438 0.16139 0.0
H357 H 0.48167 0.44669 0.24731 0.0
H358 H 0.45133 0.32102 0.13933 0.0
H359 H 0.56058 0.42816 0.33032 0.0
H360 H 0.47145 0.40052 0.20102 0.0
H361 H 0.54491 0.3484 0.23059 0.0
C362 C 0.51831 0.31687 0.17513 0.0
C363 C 0.49217 0.30925 0.14475 0.0
C364 C 0.49108 0.40653 0.22885 0.0
C365 C 0.50384 0.3598 0.21905 0.0
C366 C 0.4971 0.43299 0.25375 0.0
C367 C 0.52199 0.4412 0.29258 0.0
C368 C 0.51017 0.38816 0.24243 0.0
C369 C 0.54118 0.4226 0.30019 0.0
C370 C 0.52423 0.34216 0.21286 0.0
C371 C 0.47173 0.32628 0.16215 0.0
N372 N 0.53481 0.39683 0.27579 0.0
N373 N 0.47811 0.35101 0.19645 0.0
H374 H 0.20233 0.58556 0.04698 0.0
H375 H 0.09693 0.49443 0.30754 0.0
H376 H 0.22436 0.52854 0.23556 0.0
H377 H 0.07713 0.57382 0.25673 0.0
H378 H 0.14388 0.50708 0.26619 0.0
H379 H 0.15754 0.58539 0.12073 0.0
C380 C 0.19826 0.57411 0.10689 0.0
C381 C 0.21668 0.55632 0.13335 0.0
C382 C 0.1293 0.52179 0.26401 0.0
C383 C 0.16567 0.55545 0.21532 0.0
C384 C 0.10238 0.51443 0.28589 0.0
C385 C 0.08315 0.53312 0.28552 0.0
C386 C 0.13708 0.54792 0.23997 0.0
C387 C 0.0914 0.55881 0.2573 0.0
C388 C 0.17258 0.57373 0.14799 0.0
C389 C 0.21059 0.54213 0.2117 0.0
N390 N 0.11789 0.56552 0.2352 0.0
N391 N 0.18519 0.54123 0.24797 0.0
H392 H 0.08743 0.84416 0.13105 0.0
H393 H 1.00192 0.9215 0.82855 0.0
H394 H 0.04368 0.80645 0.90861 0.0
H395 H 0.08239 0.95779 0.8781 0.0
H396 H 0.01525 0.88011 0.88538 0.0
H397 H 0.08773 0.88677 0.05631 0.0
C398 C 0.07908 0.84465 0.06455 0.0
C399 C 0.06507 0.82191 0.0265 0.0
C400 C 0.02996 0.89718 0.88406 0.0
C401 C 0.06452 0.87022 0.94348 0.0
C402 C 0.02227 0.92091 0.85312 0.0
C403 C 0.04114 0.94302 0.84839 0.0
C404 C 0.05655 0.89563 0.91221 0.0
C405 C 0.06728 0.94109 0.8809 0.0
C406 C 0.07904 0.86894 0.0226 0.0
C407 C 0.05453 0.82351 0.94054 0.0
N408 N 0.0743 0.91766 0.91204 0.0
N409 N 0.05364 0.84747 0.90322 0.0
H410 H 0.73262 1.00636 0.84855 0.0
H411 H 0.63302 0.03592 0.56671 0.0
H412 H 0.71535 0.07616 0.00384 0.0
H413 H 0.60367 0.07362 0.80901 0.0
H414 H 0.67865 0.03944 0.62791 0.0
H415 H 0.70233 0.01869 0.73273 0.0
C416 C 0.72338 0.02492 0.85614 0.0
C417 C 0.72598 0.04004 0.93614 0.0
C418 C 0.6623 0.04716 0.66732 0.0
C419 C 0.69115 0.05425 0.80502 0.0
C420 C 0.63632 0.04538 0.63218 0.0
C421 C 0.61454 0.05393 0.68416 0.0
C422 C 0.66632 0.05752 0.75493 0.0
C423 C 0.61987 0.06636 0.76768 0.0
C424 C 0.70601 0.03202 0.79 0.0
C425 C 0.71341 0.06379 0.94344 0.0
N426 N 0.64521 0.06749 0.80102 0.0
N427 N 0.69592 0.06978 0.87992 0.0
H428 H 0.48835 0.71436 0.96629 0.0
H429 H 0.53984 0.57017 0.90789 0.0
H430 H 0.56873 0.69552 0.02977 0.0
H431 H 0.46061 0.58915 0.8295 0.0
H432 H 0.55126 0.61669 0.94756 0.0
H433 H 0.47965 0.67028 0.89667 0.0
C434 C 0.50463 0.70138 0.96129 0.0
C435 C 0.52922 0.70835 0.00385 0.0
C436 C 0.53129 0.6107 0.92228 0.0
C437 C 0.51906 0.65769 0.9292 0.0
C438 C 0.5246 0.58406 0.90118 0.0
C439 C 0.49921 0.57584 0.8658 0.0
C440 C 0.51243 0.62923 0.90804 0.0
C441 C 0.48035 0.59468 0.8573 0.0
C442 C 0.49947 0.67601 0.92352 0.0
C443 C 0.54952 0.69074 -0.00266 0.0
N444 N 0.4874 0.62058 0.87778 0.0
N445 N 0.54378 0.66593 0.96273 0.0
H446 H 0.80752 0.54251 0.94132 0.0
H447 H 0.91852 0.44478 0.78817 0.0
H448 H 0.79544 0.45877 0.98588 0.0
H449 H 0.93601 0.52673 0.86883 0.0
H450 H 0.87054 0.44849 0.82749 0.0
H451 H 0.85103 0.53583 0.86665 0.0
C452 C 0.81341 0.52253 0.93083 0.0
C453 C 0.79813 0.50112 0.96944 0.0
C454 C 0.88501 0.46552 0.8371 0.0
C455 C 0.84797 0.4935 0.8884 0.0
C456 C 0.91233 0.46334 0.8161 0.0
C457 C 0.93117 0.48542 0.82617 0.0
C458 C 0.8766 0.4901 0.86639 0.0
C459 C 0.92217 0.50915 0.86108 0.0
C460 C 0.83845 0.5188 0.8903 0.0
C461 C 0.80678 0.47567 0.95623 0.0
N462 N 0.89542 0.51095 0.879 0.0
N463 N 0.83152 0.47255 0.91816 0.0
H464 H 1.00745 0.21941 0.76605 0.0
H465 H 0.05196 0.07494 0.79645 0.0
H466 H 0.06232 0.19766 0.96566 0.0
H467 H 0.01893 0.10392 0.55578 0.0
H468 H 0.05928 0.12067 0.85404 0.0
H469 H 0.01615 0.17941 0.67785 0.0
C470 C 0.02247 0.20692 0.78877 0.0
C471 C 0.03442 0.21192 0.87254 0.0
C472 C 0.05077 0.117 0.78806 0.0
C473 C 0.0432 0.16531 0.77543 0.0
C474 C 0.04643 0.09084 0.75541 0.0
C475 C 0.03449 0.0854 0.67158 0.0
C476 C 0.04281 0.13786 0.73711 0.0
C477 C 0.02797 0.10697 0.62115 0.0
C478 C 0.02708 0.18379 0.73938 0.0
C479 C 0.05303 0.19462 0.90064 0.0
N480 N 0.03187 0.13211 0.65515 0.0
N481 N 0.0563 0.17171 0.85349 0.0
H482 H 0.34351 0.04709 0.01343 0.0
H483 H 0.43917 0.02713 0.58005 0.0
H484 H 0.31565 0.99891 0.78582 0.0
H485 H 0.46775 0.03826 0.8509 0.0
H486 H 0.39226 0.02764 0.63837 0.0
H487 H 0.38714 0.05685 0.93547 0.0
C488 C 0.34621 0.03954 0.94524 0.0
C489 C 0.32584 0.02249 0.90541 0.0
C490 C 0.40887 0.03011 0.6847 0.0
C491 C 0.37605 0.03282 0.81691 0.0
C492 C 0.4356 0.02957 0.65169 0.0
C493 C 0.45737 0.03188 0.71101 0.0
C494 C 0.40401 0.03388 0.77735 0.0
C495 C 0.45161 0.03605 0.80281 0.0
C496 C 0.37125 0.04474 0.90141 0.0
C497 C 0.33067 0.01254 0.81802 0.0
N498 N 0.42556 0.03693 0.83305 0.0
N499 N 0.35542 0.01761 0.77688 0.0
H500 H 0.53296 0.30546 0.83139 0.0
H501 H 0.46931 0.4148 0.55676 0.0
H502 H 0.44631 0.29845 0.8045 0.0
H503 H 0.51832 0.4342 0.78873 0.0
H504 H 0.46714 0.36764 0.59538 0.0
H505 H 0.53537 0.34768 0.75422 0.0
C506 C 0.51463 0.31193 0.804 0.0
C507 C 0.48942 0.29828 0.82348 0.0
C508 C 0.47832 0.38232 0.63745 0.0
C509 C 0.49202 0.34672 0.73711 0.0
C510 C 0.47948 0.40912 0.61596 0.0
C511 C 0.49371 0.4284 0.67053 0.0
C512 C 0.49241 0.37476 0.71174 0.0
C513 C 0.50679 0.42002 0.74584 0.0
C514 C 0.51598 0.3363 0.76197 0.0
C515 C 0.46615 0.30814 0.7894 0.0
N516 N 0.50611 0.39379 0.76363 0.0
N517 N 0.46793 0.33202 0.74883 0.0
H518 H 0.19584 0.47235 0.96069 0.0
H519 H 0.10763 0.5165 0.55648 0.0
H520 H 0.22635 0.52832 0.76324 0.0
H521 H 0.07307 0.48295 0.80107 0.0
H522 H 0.15288 0.51164 0.61179 0.0
H523 H 0.15325 0.46532 0.87944 0.0
C524 C 0.19411 0.48203 0.89737 0.0
C525 C 0.21481 0.5006 0.86769 0.0
C526 C 0.1354 0.50519 0.6531 0.0
C527 C 0.16576 0.49357 0.77655 0.0
C528 C 0.10947 0.50797 0.62174 0.0
C529 C 0.08634 0.50035 0.67456 0.0
C530 C 0.13843 0.49441 0.73766 0.0
C531 C 0.09023 0.48937 0.75838 0.0
C532 C 0.16958 0.47849 0.85218 0.0
C533 C 0.21111 0.51345 0.78723 0.0
N534 N 0.11575 0.48677 0.78736 0.0
N535 N 0.18692 0.50997 0.74507 0.0
H536 H 0.02392 0.79614 0.37989 0.0
H537 H 0.97823 0.93868 0.32506 0.0
H538 H 0.97351 0.81504 0.16342 0.0
H539 H 1.00345 0.91099 0.57911 0.0
H540 H 0.97256 0.8926 0.26922 0.0
H541 H 1.01118 0.83559 0.46334 0.0
C542 C 1.00887 0.80775 0.35227 0.0
C543 C 0.99966 0.80225 0.26488 0.0
C544 C 0.97892 0.89665 0.33769 0.0
C545 C 0.9864 0.84846 0.35694 0.0
C546 C 0.98231 0.92301 0.36944 0.0
C547 C 0.99169 0.92895 0.4566 0.0
C548 C 0.98528 0.87608 0.39302 0.0
C549 C 0.99646 0.90763 0.51108 0.0
C550 C 1.00205 0.83066 0.39899 0.0
C551 C 0.98083 0.81847 0.23108 0.0
N552 N 0.99359 0.88231 0.47805 0.0
N553 N 0.97554 0.84132 0.2757 0.0
H554 H 0.69523 0.05221 0.24456 0.0
H555 H 0.58682 0.96959 0.53786 0.0
H556 H 0.70617 0.96906 0.26081 0.0
H557 H 0.56429 0.01057 0.30491 0.0
H558 H 0.63484 0.97605 0.4876 0.0
H559 H 0.65169 0.04483 0.3249 0.0
C560 C 0.68888 0.03252 0.26758 0.0
C561 C 0.70422 0.01113 0.24467 0.0
C562 C 0.61926 0.98349 0.44781 0.0
C563 C 0.65451 1.00276 0.33746 0.0
C564 C 0.592 0.97988 0.47621 0.0
C565 C 0.57164 0.98938 0.42481 0.0
C566 C 0.62607 0.99748 0.36941 0.0
C567 C 0.57934 1.00271 0.34586 0.0
C568 C 0.66398 0.02836 0.31279 0.0
C569 C 0.69503 0.98609 0.27702 0.0
N570 N 0.60596 1.00667 0.3212 0.0
N571 N 0.67051 0.98247 0.321 0.0
H572 H 0.47505 0.70391 0.29238 0.0
H573 H 0.54243 0.60418 0.60293 0.0
H574 H 0.55785 0.7218 0.37009 0.0
H575 H 0.49776 0.57936 0.36573 0.0
H576 H 0.54057 0.6507 0.56113 0.0
H577 H 0.47385 0.6621 0.37144 0.0
C578 C 0.49243 0.69982 0.33094 0.0
C579 C 0.5165 0.71649 0.32548 0.0
C580 C 0.53124 0.63499 0.51856 0.0
C581 C 0.5155 0.66842 0.41375 0.0
C582 C 0.53239 0.60853 0.54186 0.0
C583 C 0.52059 0.58791 0.4868 0.0
C584 C 0.51727 0.6408 0.44169 0.0
C585 C 0.50754 0.59461 0.4091 0.0
C586 C 0.49194 0.67568 0.37409 0.0
C587 C 0.53878 0.70972 0.374 0.0
N588 N 0.50597 0.62047 0.38939 0.0
N589 N 0.53792 0.68597 0.41518 0.0
H590 H 0.80128 0.47312 0.29272 0.0
H591 H 0.9173 0.5437 0.57852 0.0
H592 H 0.80236 0.55815 0.30501 0.0
H593 H 0.9358 0.50077 0.33371 0.0
H594 H 0.86983 0.54356 0.53163 0.0
H595 H 0.84461 0.47626 0.37003 0.0
C596 C 0.80988 0.49238 0.31619 0.0
C597 C 0.79813 0.51542 0.29257 0.0
C598 C 0.88442 0.53438 0.4883 0.0
C599 C 0.84778 0.51906 0.37992 0.0
C600 C 0.91141 0.53448 0.51459 0.0
C601 C 0.93055 0.52248 0.45925 0.0
C602 C 0.87639 0.52131 0.40794 0.0
C603 C 0.92182 0.51058 0.37762 0.0
C604 C 0.83482 0.49414 0.35861 0.0
C605 C 0.81055 0.53992 0.32282 0.0
N606 N 0.89528 0.50991 0.35509 0.0
N607 N 0.83499 0.54118 0.36399 0.0
loop_
_geom_bond_atom_site_label_1
_geom_bond_atom_site_label_2
_geom_bond_distance
_geom_bond_site_symmetry_2
_ccdc_geom_bond_type
H0 C5 0.930 . S
H1 C8 0.930 1_556 S
H2 C10 0.930 . S
H3 C4 1.016 1_556 S
C4 H3 1.016 1_554 S
C4 N11 1.286 . S
C5 H0 0.930 . S
C5 C6 1.397 . S
C5 C7 1.361 . S
C6 C5 1.397 . S
C6 C10 1.390 . S
C7 C5 1.361 . S
C7 C8 1.393 . S
C7 N11 1.413 . S
C8 H1 0.930 1_554 S
C8 C7 1.393 . S
C8 C9 1.399 . S
C9 C8 1.399 . S
C9 C10 1.381 . S
C10 H2 0.930 . S
C10 C6 1.390 . S
C10 C9 1.381 . S
N11 C4 1.286 . S
N11 C7 1.413 . S
H12 C17 0.930 . S
H13 C20 0.930 . S
H14 C22 0.930 . S
H15 C16 1.032 . S
C16 H15 1.032 . S
C16 N23 1.269 1_656 S
C17 H12 0.930 . S
C17 C18 1.397 . S
C17 C19 1.361 . S
C18 C17 1.397 . S
C18 C22 1.390 1_455 S
C19 C17 1.361 . S
C19 C20 1.393 1_554 S
C19 N23 1.413 . S
C20 H13 0.930 . S
C20 C19 1.393 1_556 S
C20 C21 1.404 . S
C21 C20 1.404 . S
C21 C22 1.379 1_456 S
C22 H14 0.930 . S
C22 C18 1.390 1_655 S
C22 C21 1.379 1_654 S
N23 C16 1.269 1_454 S
N23 C19 1.413 . S
H24 C29 0.930 . S
H25 C32 0.930 . S
H26 C34 0.930 . S
H27 C28 1.016 . S
C28 H27 1.016 . S
C28 N35 1.286 1_556 S
C29 H24 0.930 . S
C29 C30 1.397 . S
C29 C31 1.361 . S
C30 C29 1.397 . S
C30 C34 1.390 . S
C31 C29 1.361 . S
C31 C32 1.393 1_554 S
C31 N35 1.413 . S
C32 H25 0.930 . S
C32 C31 1.393 1_556 S
C32 C33 1.399 . S
C33 C32 1.399 . S
C33 C34 1.381 1_556 S
C34 H26 0.930 . S
C34 C30 1.390 . S
C34 C33 1.381 1_554 S
N35 C28 1.286 1_554 S
N35 C31 1.413 . S
H36 C41 0.930 . S
H37 C44 0.930 1_556 S
H38 C46 0.930 . S
H39 C40 1.016 1_556 S
C40 H39 1.016 1_554 S
C40 N47 1.286 . S
C41 H36 0.930 . S
C41 C42 1.397 . S
C41 C43 1.361 . S
C42 C41 1.397 . S
C42 C46 1.390 . S
C43 C41 1.361 . S
C43 C44 1.393 . S
C43 N47 1.413 . S
C44 H37 0.930 1_554 S
C44 C43 1.393 . S
C44 C45 1.399 . S
C45 C44 1.399 . S
C45 C46 1.381 . S
C46 H38 0.930 . S
C46 C42 1.390 . S
C46 C45 1.381 . S
N47 C40 1.286 . S
N47 C43 1.413 . S
H48 C53 0.930 . S
H49 C56 0.930 . S
H50 C58 0.930 . S
H51 C52 1.016 . S
C52 H51 1.016 . S
C52 N59 1.286 . S
C53 H48 0.930 . S
C53 C54 1.397 . S
C53 C55 1.361 1_556 S
C54 C53 1.397 . S
C54 C58 1.390 1_556 S
C55 C53 1.361 1_554 S
C55 C56 1.393 . S
C55 N59 1.413 . S
C56 H49 0.930 . S
C56 C55 1.393 . S
C56 C57 1.399 . S
C57 C56 1.399 . S
C57 C58 1.381 . S
C58 H50 0.930 . S
C58 C54 1.390 1_554 S
C58 C57 1.381 . S
N59 C52 1.286 . S
N59 C55 1.413 . S
H60 C65 0.930 1_556 S
H61 C68 0.930 . S
H62 C70 0.930 . S
H63 C64 1.024 . S
C64 H63 1.024 . S
C64 N71 1.272 1_655 S
C65 H60 0.930 1_554 S
C65 C66 1.397 1_554 S
C65 C67 1.361 . S
C66 C65 1.397 1_556 S
C66 C70 1.390 1_456 S
C67 C65 1.361 . S
C67 C68 1.393 . S
C67 N71 1.413 . S
C68 H61 0.930 . S
C68 C67 1.393 . S
C68 C69 1.401 . S
C69 C68 1.401 . S
C69 C70 1.378 1_455 S
C70 H62 0.930 . S
C70 C66 1.390 1_654 S
C70 C69 1.378 1_655 S
N71 C64 1.272 1_455 S
N71 C67 1.413 . S
H72 C77 0.930 1_556 S
H73 C80 0.930 . S
H74 C82 0.930 . S
H75 C76 1.016 . S
C76 H75 1.016 . S
C76 N83 1.286 . S
C77 H72 0.930 1_554 S
C77 C78 1.397 . S
C77 C79 1.361 . S
C78 C77 1.397 . S
C78 C82 1.390 . S
C79 C77 1.361 . S
C79 C80 1.393 . S
C79 N83 1.413 . S
C80 H73 0.930 . S
C80 C79 1.393 . S
C80 C81 1.399 . S
C81 C80 1.399 . S
C81 C82 1.381 . S
C82 H74 0.930 . S
C82 C78 1.390 . S
C82 C81 1.381 . S
N83 C76 1.286 . S
N83 C79 1.413 . S
H84 C89 0.930 . S
H85 C92 0.930 . S
H86 C94 0.930 1_556 S
H87 C88 1.016 . S
C88 H87 1.016 . S
C88 N95 1.286 . S
C89 H84 0.930 . S
C89 C90 1.397 . S
C89 C91 1.361 1_556 S
C90 C89 1.397 . S
C90 C94 1.390 1_556 S
C91 C89 1.361 1_554 S
C91 C92 1.393 . S
C91 N95 1.413 . S
C92 H85 0.930 . S
C92 C91 1.393 . S
C92 C93 1.399 . S
C93 C92 1.399 . S
C93 C94 1.381 . S
C94 H86 0.930 1_554 S
C94 C90 1.390 1_554 S
C94 C93 1.381 . S
N95 C88 1.286 . S
N95 C91 1.413 . S
Dy96 O100 2.398 . S
Dy96 O101 2.491 1_455 S
Dy96 O102 2.403 . S
Dy96 O103 2.664 1_565 S
Dy96 O107 2.326 . S
Dy96 O111 2.310 1_455 S
Dy96 O112 2.351 1_565 S
C97 O108 1.185 . S
C97 O109 1.355 1_655 S
C98 O100 1.185 . S
C98 O101 1.355 1_455 S
Dy99 O103 2.310 1_655 S
Dy99 O106 2.351 1_545 S
Dy99 O108 2.398 . S
Dy99 O109 2.491 1_655 S
Dy99 O110 2.403 . S
Dy99 O111 2.664 1_545 S
Dy99 O113 2.326 . S
O100 Dy96 2.398 . S
O100 C98 1.185 . S
O101 Dy96 2.491 1_655 S
O101 C98 1.355 1_655 S
O102 Dy96 2.403 . S
O102 C104 1.254 1_565 S
O103 Dy96 2.664 1_545 S
O103 Dy99 2.310 1_455 S
O103 C104 1.268 . S
C104 O102 1.254 1_545 S
C104 O103 1.268 . S
C105 O110 1.254 1_565 S
C105 O111 1.268 . S
O106 Dy99 2.351 1_565 S
O106 C114 1.249 . S
O107 Dy96 2.326 . S
O107 C114 1.267 1_455 S
O108 C97 1.185 . S
O108 Dy99 2.398 . S
O109 C97 1.355 1_455 S
O109 Dy99 2.491 1_455 S
O110 Dy99 2.403 . S
O110 C105 1.254 1_545 S
O111 Dy96 2.310 1_655 S
O111 Dy99 2.664 1_565 S
O111 C105 1.268 . S
O112 Dy96 2.351 1_545 S
O112 C115 1.249 . S
O113 Dy99 2.326 . S
O113 C115 1.267 1_655 S
C114 O106 1.249 . S
C114 O107 1.267 1_655 S
C115 O112 1.249 . S
C115 O113 1.267 1_455 S
Dy116 O120 2.398 . S
Dy116 O121 2.491 1_565 S
Dy116 O122 2.403 . S
Dy116 O123 2.664 . S
Dy116 O127 2.326 1_565 S
Dy116 O131 2.310 1_565 S
Dy116 O132 2.351 . S
C117 O128 1.213 . S
C117 O129 1.346 1_545 S
C118 O120 1.185 1_545 S
C118 O121 1.355 . S
Dy119 O123 2.310 1_545 S
Dy119 O126 2.351 . S
Dy119 O128 2.398 . S
Dy119 O129 2.491 1_545 S
Dy119 O130 2.403 . S
Dy119 O131 2.664 . S
Dy119 O133 2.326 1_545 S
O120 Dy116 2.398 . S
O120 C118 1.185 1_565 S
O121 Dy116 2.491 1_545 S
O121 C118 1.355 . S
O122 Dy116 2.403 . S
O122 C124 1.254 . S
O123 Dy116 2.664 . S
O123 Dy119 2.310 1_565 S
O123 C124 1.268 . S
C124 O122 1.254 . S
C124 O123 1.268 . S
C125 O130 1.254 . S
C125 O131 1.268 . S
O126 Dy119 2.351 . S
O126 C134 1.249 . S
O127 Dy116 2.326 1_545 S
O127 C134 1.267 . S
O128 C117 1.213 . S
O128 Dy119 2.398 . S
O129 C117 1.346 1_565 S
O129 Dy119 2.491 1_565 S
O130 Dy119 2.403 . S
O130 C125 1.254 . S
O131 Dy116 2.310 1_545 S
O131 Dy119 2.664 . S
O131 C125 1.268 . S
O132 Dy116 2.351 . S
O132 C135 1.249 . S
O133 Dy119 2.326 1_565 S
O133 C135 1.267 . S
C134 O126 1.249 . S
C134 O127 1.267 . S
C135 O132 1.249 . S
C135 O133 1.267 . S
Dy136 O140 2.398 . S
Dy136 O141 2.491 . S
Dy136 O142 2.403 . S
Dy136 O143 2.664 . S
Dy136 O147 2.326 . S
Dy136 O151 2.310 . S
Dy136 O152 2.351 . S
C137 O148 1.185 . S
C137 O149 1.355 . S
C138 O140 1.185 . S
C138 O141 1.355 . S
Dy139 O143 2.310 . S
Dy139 O146 2.351 . S
Dy139 O148 2.398 . S
Dy139 O149 2.491 . S
Dy139 O150 2.403 . S
Dy139 O151 2.664 . S
Dy139 O153 2.326 . S
O140 Dy136 2.398 . S
O140 C138 1.185 . S
O141 Dy136 2.491 . S
O141 C138 1.355 . S
O142 Dy136 2.403 . S
O142 C144 1.254 . S
O143 Dy136 2.664 . S
O143 Dy139 2.310 . S
O143 C144 1.268 . S
C144 O142 1.254 . S
C144 O143 1.268 . S
C145 O150 1.254 . S
C145 O151 1.268 . S
O146 Dy139 2.351 . S
O146 C154 1.249 . S
O147 Dy136 2.326 . S
O147 C154 1.267 . S
O148 C137 1.185 . S
O148 Dy139 2.398 . S
O149 C137 1.355 . S
O149 Dy139 2.491 . S
O150 Dy139 2.403 . S
O150 C145 1.254 . S
O151 Dy136 2.310 . S
O151 Dy139 2.664 . S
O151 C145 1.268 . S
O152 Dy136 2.351 . S
O152 C155 1.249 . S
O153 Dy139 2.326 . S
O153 C155 1.267 . S
C154 O146 1.249 . S
C154 O147 1.267 . S
C155 O152 1.249 . S
C155 O153 1.267 . S
Dy156 O160 2.398 . S
Dy156 O161 2.491 . S
Dy156 O162 2.403 . S
Dy156 O163 2.664 1_655 S
Dy156 O167 2.326 . S
Dy156 O171 2.310 . S
Dy156 O172 2.351 1_655 S
C157 O168 1.185 . S
C157 O169 1.355 . S
C158 O160 1.185 . S
C158 O161 1.355 . S
Dy159 O163 2.310 . S
Dy159 O166 2.351 1_455 S
Dy159 O168 2.398 . S
Dy159 O169 2.491 . S
Dy159 O170 2.403 . S
Dy159 O171 2.664 1_455 S
Dy159 O173 2.326 . S
O160 Dy156 2.398 . S
O160 C158 1.185 . S
O161 Dy156 2.491 . S
O161 C158 1.355 . S
O162 Dy156 2.403 . S
O162 C164 1.254 . S
O163 Dy156 2.664 1_455 S
O163 Dy159 2.310 . S
O163 C164 1.268 1_455 S
C164 O162 1.254 . S
C164 O163 1.268 1_655 S
C165 O170 1.254 . S
C165 O171 1.268 1_455 S
O166 Dy159 2.351 1_655 S
O166 C174 1.249 . S
O167 Dy156 2.326 . S
O167 C174 1.267 . S
O168 C157 1.185 . S
O168 Dy159 2.398 . S
O169 C157 1.355 . S
O169 Dy159 2.491 . S
O170 Dy159 2.403 . S
O170 C165 1.254 . S
O171 Dy156 2.310 . S
O171 Dy159 2.664 1_655 S
O171 C165 1.268 1_655 S
O172 Dy156 2.351 1_455 S
O172 C175 1.249 . S
O173 Dy159 2.326 . S
O173 C175 1.267 . S
C174 O166 1.249 . S
C174 O167 1.267 . S
C175 O172 1.249 . S
C175 O173 1.267 . S
H176 C182 0.930 . S
H177 C186 0.930 . S
H178 C191 0.929 . S
H179 C189 0.929 . S
H180 C184 0.929 . S
H181 C190 0.929 1_565 S
C182 H176 0.930 . S
C182 C183 1.367 . S
C182 C190 1.378 . S
C183 C182 1.367 . S
C183 C191 1.433 . S
C184 H180 0.929 . S
C184 C186 1.378 . S
C184 C188 1.350 . S
C185 C188 1.463 . S
C185 C190 1.350 . S
C185 N193 1.427 . S
C186 H177 0.930 . S
C186 C184 1.378 . S
C186 C187 1.367 . S
C187 C186 1.367 . S
C187 C189 1.433 1_545 S
C188 C184 1.350 . S
C188 C185 1.463 . S
C188 N192 1.427 . S
C189 H179 0.929 . S
C189 C187 1.433 1_565 S
C189 N192 1.384 1_565 S
C190 H181 0.929 1_545 S
C190 C182 1.378 . S
C190 C185 1.350 . S
C191 H178 0.929 . S
C191 C183 1.433 . S
C191 N193 1.384 . S
N192 C188 1.427 . S
N192 C189 1.384 1_545 S
N193 C185 1.427 . S
N193 C191 1.384 . S
H194 C200 0.930 . S
H195 C204 0.930 . S
H196 C209 0.929 . S
H197 C207 0.929 . S
H198 C202 0.929 . S
H199 C208 0.929 . S
C200 H194 0.930 . S
C200 C201 1.367 . S
C200 C208 1.378 . S
C201 C200 1.367 . S
C201 C209 1.433 . S
C202 H198 0.929 . S
C202 C204 1.378 . S
C202 C206 1.350 . S
C203 C206 1.463 . S
C203 C208 1.350 . S
C203 N211 1.427 . S
C204 H195 0.930 . S
C204 C202 1.378 . S
C204 C205 1.367 . S
C205 C204 1.367 . S
C205 C207 1.433 . S
C206 C202 1.350 . S
C206 C203 1.463 . S
C206 N210 1.427 . S
C207 H197 0.929 . S
C207 C205 1.433 . S
C207 N210 1.384 . S
C208 H199 0.929 . S
C208 C200 1.378 . S
C208 C203 1.350 . S
C209 H196 0.929 . S
C209 C201 1.433 . S
C209 N211 1.384 . S
N210 C206 1.427 . S
N210 C207 1.384 . S
N211 C203 1.427 . S
N211 C209 1.384 . S
H212 C218 0.930 . S
H213 C222 0.930 . S
H214 C227 0.929 . S
H215 C225 0.929 . S
H216 C220 0.929 . S
H217 C226 0.929 . S
C218 H212 0.930 . S
C218 C219 1.367 . S
C218 C226 1.378 . S
C219 C218 1.367 . S
C219 C227 1.433 . S
C220 H216 0.929 . S
C220 C222 1.378 . S
C220 C224 1.350 . S
C221 C224 1.463 . S
C221 C226 1.350 . S
C221 N229 1.427 . S
C222 H213 0.930 . S
C222 C220 1.378 . S
C222 C223 1.367 . S
C223 C222 1.367 . S
C223 C225 1.433 . S
C224 C220 1.350 . S
C224 C221 1.463 . S
C224 N228 1.427 . S
C225 H215 0.929 . S
C225 C223 1.433 . S
C225 N228 1.384 . S
C226 H217 0.929 . S
C226 C218 1.378 . S
C226 C221 1.350 . S
C227 H214 0.929 . S
C227 C219 1.433 . S
C227 N229 1.384 . S
N228 C224 1.427 . S
N228 C225 1.384 . S
N229 C221 1.427 . S
N229 C227 1.384 . S
H230 C236 0.930 . S
H231 C240 0.930 . S
H232 C245 0.929 . S
H233 C243 0.929 . S
H234 C238 0.929 . S
H235 C244 0.929 . S
C236 H230 0.930 . S
C236 C237 1.372 . S
C236 C244 1.378 . S
C237 C236 1.372 . S
C237 C245 1.428 1_655 S
C238 H234 0.929 . S
C238 C240 1.378 . S
C238 C242 1.347 1_455 S
C239 C242 1.464 . S
C239 C244 1.369 . S
C239 N247 1.407 1_655 S
C240 H231 0.930 . S
C240 C238 1.378 . S
C240 C241 1.349 1_455 S
C241 C240 1.349 1_655 S
C241 C243 1.450 . S
C242 C238 1.347 1_655 S
C242 C239 1.464 . S
C242 N246 1.430 . S
C243 H233 0.929 . S
C243 C241 1.450 . S
C243 N246 1.384 . S
C244 H235 0.929 . S
C244 C236 1.378 . S
C244 C239 1.369 . S
C245 H232 0.929 . S
C245 C237 1.428 1_455 S
C245 N247 1.384 . S
N246 C242 1.430 . S
N246 C243 1.384 . S
N247 C239 1.407 1_455 S
N247 C245 1.384 . S
H248 C254 0.930 . S
H249 C258 0.930 . S
H250 C263 0.929 . S
H251 C261 0.929 . S
H252 C256 0.929 . S
H253 C262 0.929 1_545 S
C254 H248 0.930 . S
C254 C255 1.367 . S
C254 C262 1.378 . S
C255 C254 1.367 . S
C255 C263 1.433 . S
C256 H252 0.929 . S
C256 C258 1.378 . S
C256 C260 1.350 . S
C257 C260 1.463 . S
C257 C262 1.350 . S
C257 N265 1.427 . S
C258 H249 0.930 . S
C258 C256 1.378 . S
C258 C259 1.367 . S
C259 C258 1.367 . S
C259 C261 1.433 1_565 S
C260 C256 1.350 . S
C260 C257 1.463 . S
C260 N264 1.427 1_565 S
C261 H251 0.929 . S
C261 C259 1.433 1_545 S
C261 N264 1.384 . S
C262 H253 0.929 1_565 S
C262 C254 1.378 . S
C262 C257 1.350 . S
C263 H250 0.929 . S
C263 C255 1.433 . S
C263 N265 1.384 . S
N264 C260 1.427 1_545 S
N264 C261 1.384 . S
N265 C257 1.427 . S
N265 C263 1.384 . S
H266 C272 0.930 . S
H267 C276 0.930 . S
H268 C281 0.929 . S
H269 C279 0.929 . S
H270 C274 0.929 . S
H271 C280 0.929 . S
C272 H266 0.930 . S
C272 C273 1.367 . S
C272 C280 1.378 1_554 S
C273 C272 1.367 . S
C273 C281 1.433 1_554 S
C274 H270 0.929 . S
C274 C276 1.378 . S
C274 C278 1.350 . S
C275 C278 1.463 . S
C275 C280 1.350 . S
C275 N283 1.427 . S
C276 H267 0.930 . S
C276 C274 1.378 . S
C276 C277 1.367 . S
C277 C276 1.367 . S
C277 C279 1.433 . S
C278 C274 1.350 . S
C278 C275 1.463 . S
C278 N282 1.427 . S
C279 H269 0.929 . S
C279 C277 1.433 . S
C279 N282 1.384 . S
C280 H271 0.929 . S
C280 C272 1.378 1_556 S
C280 C275 1.350 . S
C281 H268 0.929 . S
C281 C273 1.433 1_556 S
C281 N283 1.384 . S
N282 C278 1.427 . S
N282 C279 1.384 . S
N283 C275 1.427 . S
N283 C281 1.384 . S
H284 C290 0.930 . S
H285 C294 0.930 . S
H286 C299 0.929 . S
H287 C297 0.929 . S
H288 C292 0.929 . S
H289 C298 0.929 . S
C290 H284 0.930 . S
C290 C291 1.367 . S
C290 C298 1.378 . S
C291 C290 1.367 . S
C291 C299 1.433 . S
C292 H288 0.929 . S
C292 C294 1.378 . S
C292 C296 1.350 . S
C293 C296 1.463 . S
C293 C298 1.350 . S
C293 N301 1.427 . S
C294 H285 0.930 . S
C294 C292 1.378 . S
C294 C295 1.367 . S
C295 C294 1.367 . S
C295 C297 1.433 . S
C296 C292 1.350 . S
C296 C293 1.463 . S
C296 N300 1.427 . S
C297 H287 0.929 . S
C297 C295 1.433 . S
C297 N300 1.384 . S
C298 H289 0.929 . S
C298 C290 1.378 . S
C298 C293 1.350 . S
C299 H286 0.929 . S
C299 C291 1.433 . S
C299 N301 1.384 . S
N300 C296 1.427 . S
N300 C297 1.384 . S
N301 C293 1.427 . S
N301 C299 1.384 . S
H302 C308 0.930 1_554 S
H303 C312 0.930 . S
H304 C317 0.929 . S
H305 C315 0.929 . S
H306 C310 0.929 . S
H307 C316 0.929 . S
C308 H302 0.930 1_556 S
C308 C309 1.372 . S
C308 C316 1.378 . S
C309 C308 1.372 . S
C309 C317 1.427 1_655 S
C310 H306 0.929 . S
C310 C312 1.378 . S
C310 C314 1.350 . S
C311 C314 1.463 1_655 S
C311 C316 1.349 . S
C311 N319 1.428 1_655 S
C312 H303 0.930 . S
C312 C310 1.378 . S
C312 C313 1.367 . S
C313 C312 1.367 . S
C313 C315 1.433 1_455 S
C314 C310 1.350 . S
C314 C311 1.463 1_455 S
C314 N318 1.427 1_455 S
C315 H305 0.929 . S
C315 C313 1.433 1_655 S
C315 N318 1.384 . S
C316 H307 0.929 . S
C316 C308 1.378 . S
C316 C311 1.349 . S
C317 H304 0.929 . S
C317 C309 1.427 1_455 S
C317 N319 1.384 . S
N318 C314 1.427 1_655 S
N318 C315 1.384 . S
N319 C311 1.428 1_455 S
N319 C317 1.384 . S
H320 C326 0.930 . S
H321 C330 0.930 . S
H322 C335 0.929 . S
H323 C333 0.929 . S
H324 C328 0.929 . S
H325 C334 0.929 . S
C326 H320 0.930 . S
C326 C327 1.383 . S
C326 C334 1.378 . S
C327 C326 1.383 . S
C327 C335 1.417 1_455 S
C328 H324 0.929 . S
C328 C330 1.378 . S
C328 C332 1.350 . S
C329 C332 1.463 . S
C329 C334 1.350 1_655 S
C329 N337 1.427 . S
C330 H321 0.930 . S
C330 C328 1.378 . S
C330 C331 1.367 . S
C331 C330 1.367 . S
C331 C333 1.433 1_655 S
C332 C328 1.350 . S
C332 C329 1.463 . S
C332 N336 1.427 1_655 S
C333 H323 0.929 . S
C333 C331 1.433 1_455 S
C333 N336 1.384 . S
C334 H325 0.929 . S
C334 C326 1.378 . S
C334 C329 1.350 1_455 S
C335 H322 0.929 . S
C335 C327 1.417 1_655 S
C335 N337 1.384 . S
N336 C332 1.427 1_455 S
N336 C333 1.384 . S
N337 C329 1.427 . S
N337 C335 1.384 . S
H338 C344 0.930 . S
H339 C348 0.930 . S
H340 C353 0.929 . S
H341 C351 0.929 . S
H342 C346 0.929 . S
H343 C352 0.960 . S
C344 H338 0.930 . S
C344 C345 1.367 . S
C344 C352 1.378 . S
C345 C344 1.367 . S
C345 C353 1.433 . S
C346 H342 0.929 . S
C346 C348 1.378 . S
C346 C350 1.350 . S
C347 C350 1.463 . S
C347 C352 1.350 . S
C347 N355 1.427 . S
C348 H339 0.930 . S
C348 C346 1.378 . S
C348 C349 1.367 . S
C349 C348 1.367 . S
C349 C351 1.433 1_545 S
C350 C346 1.350 . S
C350 C347 1.463 . S
C350 N354 1.388 1_545 S
C351 H341 0.929 . S
C351 C349 1.433 1_565 S
C351 N354 1.403 . S
C352 H343 0.960 . S
C352 C344 1.378 . S
C352 C347 1.350 . S
C353 H340 0.929 . S
C353 C345 1.433 . S
C353 N355 1.384 . S
N354 C350 1.388 1_565 S
N354 C351 1.403 . S
N355 C347 1.427 . S
N355 C353 1.384 . S
H356 C362 0.930 . S
H357 C366 0.930 . S
H358 C371 0.929 . S
H359 C369 0.929 . S
H360 C364 0.929 . S
H361 C370 0.929 . S
C362 H356 0.930 . S
C362 C363 1.367 . S
C362 C370 1.378 . S
C363 C362 1.367 . S
C363 C371 1.433 . S
C364 H360 0.929 . S
C364 C366 1.378 . S
C364 C368 1.350 . S
C365 C368 1.463 . S
C365 C370 1.350 . S
C365 N373 1.427 . S
C366 H357 0.930 . S
C366 C364 1.378 . S
C366 C367 1.367 . S
C367 C366 1.367 . S
C367 C369 1.433 . S
C368 C364 1.350 . S
C368 C365 1.463 . S
C368 N372 1.427 . S
C369 H359 0.929 . S
C369 C367 1.433 . S
C369 N372 1.384 . S
C370 H361 0.929 . S
C370 C362 1.378 . S
C370 C365 1.350 . S
C371 H358 0.929 . S
C371 C363 1.433 . S
C371 N373 1.384 . S
N372 C368 1.427 . S
N372 C369 1.384 . S
N373 C365 1.427 . S
N373 C371 1.384 . S
H374 C380 0.930 . S
H375 C384 0.930 . S
H376 C389 0.929 . S
H377 C387 0.929 . S
H378 C382 0.929 . S
H379 C388 0.929 . S
C380 H374 0.930 . S
C380 C381 1.367 . S
C380 C388 1.378 . S
C381 C380 1.367 . S
C381 C389 1.433 . S
C382 H378 0.929 . S
C382 C384 1.378 . S
C382 C386 1.350 . S
C383 C386 1.463 . S
C383 C388 1.350 . S
C383 N391 1.427 . S
C384 H375 0.930 . S
C384 C382 1.378 . S
C384 C385 1.367 . S
C385 C384 1.367 . S
C385 C387 1.433 . S
C386 C382 1.350 . S
C386 C383 1.463 . S
C386 N390 1.427 . S
C387 H377 0.929 . S
C387 C385 1.433 . S
C387 N390 1.384 . S
C388 H379 0.929 . S
C388 C380 1.378 . S
C388 C383 1.350 . S
C389 H376 0.929 . S
C389 C381 1.433 . S
C389 N391 1.384 . S
N390 C386 1.427 . S
N390 C387 1.384 . S
N391 C383 1.427 . S
N391 C389 1.384 . S
H392 C398 0.930 . S
H393 C402 0.930 . S
H394 C407 0.929 . S
H395 C405 0.929 . S
H396 C400 0.921 1_655 S
H397 C406 0.929 . S
C398 H392 0.930 . S
C398 C399 1.368 1_554 S
C398 C406 1.378 1_554 S
C399 C398 1.368 1_556 S
C399 C407 1.432 1_455 S
C400 H396 0.921 1_455 S
C400 C402 1.378 . S
C400 C404 1.350 . S
C401 C404 1.463 . S
C401 C406 1.350 . S
C401 N409 1.427 1_455 S
C402 H393 0.930 . S
C402 C400 1.378 . S
C402 C403 1.367 . S
C403 C402 1.367 . S
C403 C405 1.433 . S
C404 C400 1.350 . S
C404 C401 1.463 . S
C404 N408 1.427 . S
C405 H395 0.929 . S
C405 C403 1.433 . S
C405 N408 1.384 . S
C406 H397 0.929 . S
C406 C398 1.378 1_556 S
C406 C401 1.350 . S
C407 H394 0.929 . S
C407 C399 1.432 1_655 S
C407 N409 1.384 . S
N408 C404 1.427 . S
N408 C405 1.384 . S
N409 C401 1.427 1_655 S
N409 C407 1.384 . S
H410 C416 0.930 . S
H411 C420 0.930 . S
H412 C425 0.929 1_554 S
H413 C423 0.929 . S
H414 C418 0.929 . S
H415 C424 0.929 . S
C416 H410 0.930 . S
C416 C417 1.367 . S
C416 C424 1.378 . S
C417 C416 1.367 . S
C417 C425 1.433 . S
C418 H414 0.929 . S
C418 C420 1.378 . S
C418 C422 1.350 1_545 S
C419 C422 1.463 . S
C419 C424 1.350 . S
C419 N427 1.427 . S
C420 H411 0.930 . S
C420 C418 1.378 . S
C420 C421 1.367 1_545 S
C421 C420 1.367 1_565 S
C421 C423 1.433 . S
C422 C418 1.350 1_565 S
C422 C419 1.463 . S
C422 N426 1.427 . S
C423 H413 0.929 . S
C423 C421 1.433 . S
C423 N426 1.384 . S
C424 H415 0.929 . S
C424 C416 1.378 . S
C424 C419 1.350 . S
C425 H412 0.929 1_556 S
C425 C417 1.433 . S
C425 N427 1.384 . S
N426 C422 1.427 . S
N426 C423 1.384 . S
N427 C419 1.427 . S
N427 C425 1.384 . S
H428 C434 0.930 . S
H429 C438 0.930 . S
H430 C443 0.929 . S
H431 C441 0.929 . S
H432 C436 0.929 . S
H433 C442 0.929 . S
C434 H428 0.930 . S
C434 C435 1.367 . S
C434 C442 1.378 . S
C435 C434 1.367 . S
C435 C443 1.433 1_554 S
C436 H432 0.929 . S
C436 C438 1.378 . S
C436 C440 1.350 . S
C437 C440 1.463 . S
C437 C442 1.350 1_556 S
C437 N445 1.427 . S
C438 H429 0.930 . S
C438 C436 1.378 . S
C438 C439 1.367 . S
C439 C438 1.367 . S
C439 C441 1.433 . S
C440 C436 1.350 . S
C440 C437 1.463 . S
C440 N444 1.427 . S
C441 H431 0.929 . S
C441 C439 1.433 . S
C441 N444 1.384 . S
C442 H433 0.929 . S
C442 C434 1.378 . S
C442 C437 1.350 1_554 S
C443 H430 0.929 . S
C443 C435 1.433 1_556 S
C443 N445 1.384 . S
N444 C440 1.427 . S
N444 C441 1.384 . S
N445 C437 1.427 . S
N445 C443 1.384 . S
H446 C452 0.930 . S
H447 C456 0.930 . S
H448 C461 0.929 1_554 S
H449 C459 0.929 . S
H450 C454 0.929 . S
H451 C460 0.929 . S
C452 H446 0.930 . S
C452 C453 1.367 . S
C452 C460 1.378 . S
C453 C452 1.367 . S
C453 C461 1.433 . S
C454 H450 0.929 . S
C454 C456 1.378 . S
C454 C458 1.350 . S
C455 C458 1.463 . S
C455 C460 1.350 . S
C455 N463 1.427 . S
C456 H447 0.930 . S
C456 C454 1.378 . S
C456 C457 1.367 . S
C457 C456 1.367 . S
C457 C459 1.433 . S
C458 C454 1.350 . S
C458 C455 1.463 . S
C458 N462 1.427 . S
C459 H449 0.929 . S
C459 C457 1.433 . S
C459 N462 1.384 . S
C460 H451 0.929 . S
C460 C452 1.378 . S
C460 C455 1.350 . S
C461 H448 0.929 1_556 S
C461 C453 1.433 . S
C461 N463 1.384 . S
N462 C458 1.427 . S
N462 C459 1.384 . S
N463 C455 1.427 . S
N463 C461 1.384 . S
H464 C470 0.930 . S
H465 C474 0.930 . S
H466 C479 0.929 . S
H467 C477 0.929 . S
H468 C472 0.929 . S
H469 C478 0.929 . S
C470 H464 0.930 . S
C470 C471 1.354 1_655 S
C470 C478 1.378 . S
C471 C470 1.354 1_455 S
C471 C479 1.449 . S
C472 H468 0.929 . S
C472 C474 1.378 . S
C472 C476 1.350 . S
C473 C476 1.463 . S
C473 C478 1.350 1_455 S
C473 N481 1.427 . S
C474 H465 0.930 . S
C474 C472 1.378 . S
C474 C475 1.367 . S
C475 C474 1.367 . S
C475 C477 1.433 1_455 S
C476 C472 1.350 . S
C476 C473 1.463 . S
C476 N480 1.427 1_455 S
C477 H467 0.929 . S
C477 C475 1.433 1_655 S
C477 N480 1.384 . S
C478 H469 0.929 . S
C478 C470 1.378 . S
C478 C473 1.350 1_655 S
C479 H466 0.929 . S
C479 C471 1.449 . S
C479 N481 1.384 . S
N480 C476 1.427 1_655 S
N480 C477 1.384 . S
N481 C473 1.427 . S
N481 C479 1.384 . S
H482 C488 0.927 1_554 S
H483 C492 0.930 . S
H484 C497 0.929 . S
H485 C495 0.929 . S
H486 C490 0.929 . S
H487 C496 0.929 . S
C488 H482 0.927 1_556 S
C488 C489 1.369 . S
C488 C496 1.379 . S
C489 C488 1.369 . S
C489 C497 1.433 . S
C490 H486 0.929 . S
C490 C492 1.378 . S
C490 C494 1.350 . S
C491 C494 1.463 . S
C491 C496 1.350 . S
C491 N499 1.427 . S
C492 H483 0.930 . S
C492 C490 1.378 . S
C492 C493 1.367 . S
C493 C492 1.367 . S
C493 C495 1.433 . S
C494 C490 1.350 . S
C494 C491 1.463 . S
C494 N498 1.427 . S
C495 H485 0.929 . S
C495 C493 1.433 . S
C495 N498 1.384 . S
C496 H487 0.929 . S
C496 C488 1.379 . S
C496 C491 1.350 . S
C497 H484 0.929 . S
C497 C489 1.433 . S
C497 N499 1.384 . S
N498 C494 1.427 . S
N498 C495 1.384 . S
N499 C491 1.427 . S
N499 C497 1.384 . S
H500 C506 0.930 . S
H501 C510 0.930 . S
H502 C515 0.929 . S
H503 C513 0.929 . S
H504 C508 0.929 . S
H505 C514 0.929 . S
C506 H500 0.930 . S
C506 C507 1.367 . S
C506 C514 1.378 . S
C507 C506 1.367 . S
C507 C515 1.433 . S
C508 H504 0.929 . S
C508 C510 1.378 . S
C508 C512 1.350 . S
C509 C512 1.463 . S
C509 C514 1.350 . S
C509 N517 1.427 . S
C510 H501 0.930 . S
C510 C508 1.378 . S
C510 C511 1.367 . S
C511 C510 1.367 . S
C511 C513 1.433 . S
C512 C508 1.350 . S
C512 C509 1.463 . S
C512 N516 1.427 . S
C513 H503 0.929 . S
C513 C511 1.433 . S
C513 N516 1.384 . S
C514 H505 0.929 . S
C514 C506 1.378 . S
C514 C509 1.350 . S
C515 H502 0.929 . S
C515 C507 1.433 . S
C515 N517 1.384 . S
N516 C512 1.427 . S
N516 C513 1.384 . S
N517 C509 1.427 . S
N517 C515 1.384 . S
H518 C524 0.930 . S
H519 C528 0.930 . S
H520 C533 0.929 . S
H521 C531 0.929 . S
H522 C526 0.929 . S
H523 C532 0.929 . S
C524 H518 0.930 . S
C524 C525 1.367 . S
C524 C532 1.378 . S
C525 C524 1.367 . S
C525 C533 1.433 . S
C526 H522 0.929 . S
C526 C528 1.378 . S
C526 C530 1.350 . S
C527 C530 1.463 . S
C527 C532 1.350 . S
C527 N535 1.427 . S
C528 H519 0.930 . S
C528 C526 1.378 . S
C528 C529 1.367 . S
C529 C528 1.367 . S
C529 C531 1.433 . S
C530 C526 1.350 . S
C530 C527 1.463 . S
C530 N534 1.427 . S
C531 H521 0.929 . S
C531 C529 1.433 . S
C531 N534 1.384 . S
C532 H523 0.929 . S
C532 C524 1.378 . S
C532 C527 1.350 . S
C533 H520 0.929 . S
C533 C525 1.433 . S
C533 N535 1.384 . S
N534 C530 1.427 . S
N534 C531 1.384 . S
N535 C527 1.427 . S
N535 C533 1.384 . S
H536 C542 0.930 . S
H537 C546 0.930 . S
H538 C551 0.929 . S
H539 C549 0.929 . S
H540 C544 0.929 . S
H541 C550 0.929 . S
C542 H536 0.930 . S
C542 C543 1.353 1_455 S
C542 C550 1.378 . S
C543 C542 1.353 1_655 S
C543 C551 1.451 . S
C544 H540 0.929 . S
C544 C546 1.378 . S
C544 C548 1.350 . S
C545 C548 1.463 . S
C545 C550 1.350 1_655 S
C545 N553 1.427 . S
C546 H537 0.930 . S
C546 C544 1.378 . S
C546 C547 1.367 . S
C547 C546 1.367 . S
C547 C549 1.433 1_655 S
C548 C544 1.350 . S
C548 C545 1.463 . S
C548 N552 1.427 1_655 S
C549 H539 0.929 . S
C549 C547 1.433 1_455 S
C549 N552 1.384 . S
C550 H541 0.929 . S
C550 C542 1.378 . S
C550 C545 1.350 1_455 S
C551 H538 0.929 . S
C551 C543 1.451 . S
C551 N553 1.384 . S
N552 C548 1.427 1_455 S
N552 C549 1.384 . S
N553 C545 1.427 . S
N553 C551 1.384 . S
H554 C560 0.930 . S
H555 C564 0.930 . S
H556 C569 0.929 . S
H557 C567 0.929 . S
H558 C562 0.929 . S
H559 C568 0.929 . S
C560 H554 0.930 . S
C560 C561 1.367 . S
C560 C568 1.378 . S
C561 C560 1.367 . S
C561 C569 1.433 . S
C562 H558 0.929 . S
C562 C564 1.378 . S
C562 C566 1.350 . S
C563 C566 1.463 . S
C563 C568 1.350 . S
C563 N571 1.427 . S
C564 H555 0.930 . S
C564 C562 1.378 . S
C564 C565 1.367 . S
C565 C564 1.367 . S
C565 C567 1.433 . S
C566 C562 1.350 . S
C566 C563 1.463 . S
C566 N570 1.427 . S
C567 H557 0.929 . S
C567 C565 1.433 . S
C567 N570 1.384 . S
C568 H559 0.929 . S
C568 C560 1.378 . S
C568 C563 1.350 . S
C569 H556 0.929 . S
C569 C561 1.433 . S
C569 N571 1.384 . S
N570 C566 1.427 . S
N570 C567 1.384 . S
N571 C563 1.427 . S
N571 C569 1.384 . S
H572 C578 0.930 . S
H573 C582 0.930 . S
H574 C587 0.929 . S
H575 C585 0.929 . S
H576 C580 0.929 . S
H577 C586 0.929 . S
C578 H572 0.930 . S
C578 C579 1.367 . S
C578 C586 1.378 . S
C579 C578 1.367 . S
C579 C587 1.433 . S
C580 H576 0.929 . S
C580 C582 1.378 . S
C580 C584 1.350 . S
C581 C584 1.463 . S
C581 C586 1.350 . S
C581 N589 1.427 . S
C582 H573 0.930 . S
C582 C580 1.378 . S
C582 C583 1.367 . S
C583 C582 1.367 . S
C583 C585 1.433 . S
C584 C580 1.350 . S
C584 C581 1.463 . S
C584 N588 1.427 . S
C585 H575 0.929 . S
C585 C583 1.433 . S
C585 N588 1.384 . S
C586 H577 0.929 . S
C586 C578 1.378 . S
C586 C581 1.350 . S
C587 H574 0.929 . S
C587 C579 1.433 . S
C587 N589 1.384 . S
N588 C584 1.427 . S
N588 C585 1.384 . S
N589 C581 1.427 . S
N589 C587 1.384 . S
H590 C596 0.930 . S
H591 C600 0.930 . S
H592 C605 0.929 . S
H593 C603 0.929 . S
H594 C598 0.929 . S
H595 C604 0.929 . S
C596 H590 0.930 . S
C596 C597 1.367 . S
C596 C604 1.378 . S
C597 C596 1.367 . S
C597 C605 1.433 . S
C598 H594 0.929 . S
C598 C600 1.378 . S
C598 C602 1.350 . S
C599 C602 1.463 . S
C599 C604 1.350 . S
C599 N607 1.427 . S
C600 H591 0.930 . S
C600 C598 1.378 . S
C600 C601 1.367 . S
C601 C600 1.367 . S
C601 C603 1.433 . S
C602 C598 1.350 . S
C602 C599 1.463 . S
C602 N606 1.427 . S
C603 H593 0.929 . S
C603 C601 1.433 . S
C603 N606 1.384 . S
C604 H595 0.929 . S
C604 C596 1.378 . S
C604 C599 1.350 . S
C605 H592 0.929 . S
C605 C597 1.433 . S
C605 N607 1.384 . S
N606 C602 1.427 . S
N606 C603 1.384 . S
N607 C599 1.427 . S
N607 C605 1.384 . S
C183 C76 1.642 . S
C187 C104 1.711 . S
C205 C134 1.804 . S
C201 C88 1.728 . S
C223 C144 1.540 . S
C219 C52 1.458 . S
C241 C164 1.409 . S
C237 C64 1.357 . S
C259 C105 1.714 . S
C255 C28 1.659 . S
C273 C40 1.750 . S
C277 C135 1.810 . S
C291 C4 1.461 1_556 S
C295 C145 1.535 . S
C309 C16 1.353 . S
C313 C165 1.401 . S
C331 C97 0.849 . S
C327 C69 0.844 . S
C349 C118 0.561 . S
C345 C81 0.584 . S
C367 C137 1.009 . S
C363 C93 0.987 . S
C381 C57 0.730 . S
C385 C157 0.742 . S
C399 C21 0.829 . S
C403 C98 0.853 . S
C421 C117 0.554 1_565 S
C417 C33 0.626 . S
C439 C138 1.008 . S
C435 C45 0.981 . S
C453 C9 0.752 1_556 S
C457 C158 0.747 . S
C471 C66 1.517 . S
C475 C115 1.604 . S
C489 C78 1.392 1_556 S
C493 C125 1.496 . S
C511 C155 1.804 . S
C507 C90 1.688 . S
C529 C175 1.793 . S
C525 C54 1.687 . S
C543 C18 1.525 1_655 S
C547 C114 1.602 . S
C565 C124 1.496 . S
C561 C30 1.380 . S
C583 C154 1.804 . S
C579 C42 1.678 . S
C597 C6 1.696 . S
C601 C174 1.804 . S
