# Generated by pormake.
# Topology zzz, (3,6)-cn, num edge types: 1
# Building blocks:
#     Node 0, Type 0, BuildingBlock: BETDIP_clean_linker_0, # of connection points: 3
#     Node 1, Type 0, BuildingBlock: BETDIP_clean_linker_0, # of connection points: 3
#     Node 2, Type 0, BuildingBlock: BETDIP_clean_linker_0, # of connection points: 3
#     Node 3, Type 0, BuildingBlock: BETDIP_clean_linker_0, # of connection points: 3
#     Node 4, Type 0, BuildingBlock: BETDIP_clean_linker_0, # of connection points: 3
#     Node 5, Type 0, BuildingBlock: BETDIP_clean_linker_0, # of connection points: 3
#     Node 6, Type 0, BuildingBlock: BETDIP_clean_linker_0, # of connection points: 3
#     Node 7, Type 0, BuildingBlock: BETDIP_clean_linker_0, # of connection points: 3
#     Node 8, Type 1, BuildingBlock: LEVNOQ01_clean_sbu_1, # of connection points: 6
#     Node 9, Type 1, BuildingBlock: LEVNOQ01_clean_sbu_1, # of connection points: 6
#     Node 10, Type 1, BuildingBlock: LEVNOQ01_clean_sbu_1, # of connection points: 6
#     Node 11, Type 1, BuildingBlock: LEVNOQ01_clean_sbu_1, # of connection points: 6
#     Edge 12, Type (0, 1), BuildingBlock: AJUNOK_clean_linker_0, # of connection points: 2
#     Edge 13, Type (0, 1), BuildingBlock: AJUNOK_clean_linker_0, # of connection points: 2
#     Edge 14, Type (0, 1), BuildingBlock: AJUNOK_clean_linker_0, # of connection points: 2
#     Edge 15, Type (0, 1), BuildingBlock: AJUNOK_clean_linker_0, # of connection points: 2
#     Edge 16, Type (0, 1), BuildingBlock: AJUNOK_clean_linker_0, # of connection points: 2
#     Edge 17, Type (0, 1), BuildingBlock: AJUNOK_clean_linker_0, # of connection points: 2
#     Edge 18, Type (0, 1), BuildingBlock: AJUNOK_clean_linker_0, # of connection points: 2
#     Edge 19, Type (0, 1), BuildingBlock: AJUNOK_clean_linker_0, # of connection points: 2
#     Edge 20, Type (0, 1), BuildingBlock: AJUNOK_clean_linker_0, # of connection points: 2
#     Edge 21, Type (0, 1), BuildingBlock: AJUNOK_clean_linker_0, # of connection points: 2
#     Edge 22, Type (0, 1), BuildingBlock: AJUNOK_clean_linker_0, # of connection points: 2
#     Edge 23, Type (0, 1), BuildingBlock: AJUNOK_clean_linker_0, # of connection points: 2
#     Edge 24, Type (0, 1), BuildingBlock: AJUNOK_clean_linker_0, # of connection points: 2
#     Edge 25, Type (0, 1), BuildingBlock: AJUNOK_clean_linker_0, # of connection points: 2
#     Edge 26, Type (0, 1), BuildingBlock: AJUNOK_clean_linker_0, # of connection points: 2
#     Edge 27, Type (0, 1), BuildingBlock: AJUNOK_clean_linker_0, # of connection points: 2
#     Edge 28, Type (0, 1), BuildingBlock: AJUNOK_clean_linker_0, # of connection points: 2
#     Edge 29, Type (0, 1), BuildingBlock: AJUNOK_clean_linker_0, # of connection points: 2
#     Edge 30, Type (0, 1), BuildingBlock: AJUNOK_clean_linker_0, # of connection points: 2
#     Edge 31, Type (0, 1), BuildingBlock: AJUNOK_clean_linker_0, # of connection points: 2
#     Edge 32, Type (0, 1), BuildingBlock: AJUNOK_clean_linker_0, # of connection points: 2
#     Edge 33, Type (0, 1), BuildingBlock: AJUNOK_clean_linker_0, # of connection points: 2
#     Edge 34, Type (0, 1), BuildingBlock: AJUNOK_clean_linker_0, # of connection points: 2
#     Edge 35, Type (0, 1), BuildingBlock: AJUNOK_clean_linker_0, # of connection points: 2
# Relax obj value: 0.130
# Max RMSD: 0.177
# Mean RMSD: 0.106
data_MOF--net-zzz--node1-LEVNOQ01_clean_sbu_1--node2-BETDIP_clean_linker_0--edge1-AJUNOK_clean_linker_0
_symmetry_space_group_name_H-M    P1
_symmetry_Int_Tables_number       1
_symmetry_cell_setting            triclinic
loop_
_symmetry_equiv_pos_as_xyz
'x, y, z'
_cell_length_a     36.422646
_cell_length_b     36.534131
_cell_length_c     11.864986
_cell_angle_alpha  89.796804
_cell_angle_beta   90.545717
_cell_angle_gamma 90.464884
loop_
_atom_site_label
_atom_site_type_symbol
_atom_site_fract_x
_atom_site_fract_y
_atom_site_fract_z
_atom_type_partial_charge
H0 H 0.77778 0.57626 0.31569 0.0
H1 H 0.78903 0.55246 0.96329 0.0
H2 H 0.88364 0.58196 0.15743 0.0
H3 H 0.73617 0.60214 0.97492 0.0
C4 C 0.72268 0.5792 0.01648 0.0
C5 C 0.79443 0.57629 0.24057 0.0
C6 C 0.83309 0.58173 0.24914 0.0
C7 C 0.77789 0.56952 0.13369 0.0
C8 C 0.80059 0.56306 0.04129 0.0
C9 C 0.83838 0.56699 0.05191 0.0
C10 C 0.85389 0.5804 0.15108 0.0
N11 N 0.73911 0.56594 0.11843 0.0
H12 H 0.94667 0.7708 0.32455 0.0
H13 H 0.974 0.78427 0.97436 0.0
H14 H 0.96107 0.87829 0.1818 0.0
H15 H 0.9259 0.7377 0.96052 0.0
C16 C 0.94041 0.71992 0.01929 0.0
C17 C 0.95025 0.78842 0.25184 0.0
C18 C 0.95225 0.82687 0.26559 0.0
C19 C 0.95437 0.77298 0.14337 0.0
C20 C 0.96545 0.79582 0.05382 0.0
C21 C 0.96799 0.8335 0.06955 0.0
C22 C 0.95774 0.84888 0.17117 0.0
N23 N 0.951 0.73447 0.12634 0.0
H24 H 0.76158 0.95799 0.33001 0.0
H25 H 0.73802 0.95913 0.98058 0.0
H26 H 0.65607 0.92102 0.20994 0.0
H27 H 0.79865 0.91754 -0.00929 0.0
C28 C 0.80975 0.94274 0.02602 0.0
C29 C 0.74328 0.94975 0.26205 0.0
C30 C 0.70589 0.94149 0.28393 0.0
C31 C 0.7557 0.95048 0.14953 0.0
C32 C 0.72928 0.9503 0.06269 0.0
C33 C 0.69196 0.9446 0.0875 0.0
C34 C 0.68404 0.92971 0.19339 0.0
N35 N 0.79308 0.95814 0.12319 0.0
H36 H 0.57106 0.76879 0.33782 0.0
H37 H 0.56477 0.75246 0.97757 0.0
H38 H 0.56401 0.66033 0.19992 0.0
H39 H 0.61226 0.79939 -0.01075 0.0
C40 C 0.59435 0.81746 0.03576 0.0
C41 C 0.57092 0.75068 0.26577 0.0
C42 C 0.56836 0.71232 0.28171 0.0
C43 C 0.57301 0.76532 0.15486 0.0
C44 C 0.56771 0.74169 0.06235 0.0
C45 C 0.56448 0.70412 0.07991 0.0
C46 C 0.56755 0.68969 0.18796 0.0
N47 N 0.57761 0.80369 0.13598 0.0
H48 H 0.24623 0.42932 0.08789 0.0
H49 H 0.26526 0.49363 0.38329 0.0
H50 H 0.16233 0.44021 0.33813 0.0
H51 H 0.32224 0.50421 0.19157 0.0
C52 C 0.32474 0.48095 0.24834 0.0
C53 C 0.23594 0.43904 0.16717 0.0
C54 C 0.19768 0.43839 0.19217 0.0
C55 C 0.26136 0.45485 0.24528 0.0
C56 C 0.24763 0.47531 0.33528 0.0
C57 C 0.21057 0.47221 0.36117 0.0
C58 C 0.18924 0.44603 0.30484 0.0
N59 N 0.29996 0.45105 0.23247 0.0
H60 H 0.08383 0.25959 0.06166 0.0
H61 H 0.09874 0.23958 0.4172 0.0
H62 H 0.09241 0.15005 0.18751 0.0
H63 H 0.12313 0.29677 0.41763 0.0
C64 C 0.10237 0.31003 0.36583 0.0
C65 C 0.09 0.24101 0.13051 0.0
C66 C 0.09087 0.20286 0.11095 0.0
C67 C 0.09513 0.25485 0.24091 0.0
C68 C 0.09812 0.22986 0.33125 0.0
C69 C 0.09412 0.1922 0.31279 0.0
C70 C 0.09544 0.1792 0.20249 0.0
N71 N 0.09121 0.29313 0.26234 0.0
H72 H 0.27597 0.09065 0.05751 0.0
H73 H 0.2913 0.08898 0.41892 0.0
H74 H 0.38397 0.09605 0.20362 0.0
H75 H 0.24633 0.04663 0.39236 0.0
C76 C 0.22709 0.06396 0.34694 0.0
C77 C 0.29358 0.09391 0.13091 0.0
C78 C 0.33217 0.09652 0.11782 0.0
C79 C 0.27826 0.09221 0.24018 0.0
C80 C 0.30204 0.09197 0.33457 0.0
C81 C 0.33996 0.09094 0.32047 0.0
C82 C 0.35445 0.09757 0.21405 0.0
N83 N 0.23979 0.08596 0.25533 0.0
H84 H 0.46237 0.27259 0.0597 0.0
H85 H 0.44275 0.28805 0.41361 0.0
H86 H 0.43141 0.37759 0.18511 0.0
H87 H 0.48972 0.24755 0.40955 0.0
C88 C 0.47624 0.22651 0.35921 0.0
C89 C 0.45187 0.28921 0.1274 0.0
C90 C 0.44541 0.3269 0.10944 0.0
C91 C 0.44853 0.27415 0.23677 0.0
C92 C 0.4415 0.29789 0.32748 0.0
C93 C 0.43878 0.33557 0.30907 0.0
C94 C 0.43381 0.34829 0.19916 0.0
N95 N 0.45752 0.23674 0.25801 0.0
O96 O 0.0747 0.95851 0.8646 0.0
Mg97 Mg 0.07671 0.96804 0.68986 0.0
O98 O 0.01947 0.97739 0.82497 0.0
Mg99 Mg 0.01259 0.01788 0.68227 0.0
O100 O 0.07352 0.01903 0.61782 0.0
O101 O 0.12444 0.98458 0.62032 0.0
O102 O 1.0058 0.05633 0.53263 0.0
O103 O 0.03248 0.06944 0.79456 0.0
Mg104 Mg 0.96236 0.06814 0.75188 0.0
O105 O 0.94938 0.0144 0.74397 0.0
O106 O 0.98009 0.10173 0.62077 0.0
O107 O 0.98644 0.08401 0.90248 0.0
O108 O 0.90854 0.06029 0.76295 0.0
C109 C 0.01287 0.93554 0.55733 0.0
C110 C 0.04068 0.95764 0.88409 0.0
C111 C 0.10771 0.01411 0.59031 0.0
C112 C 0.99923 0.09026 0.54067 0.0
C113 C 0.01931 0.08909 0.87351 0.0
C114 C 0.91617 0.02582 0.76674 0.0
O115 O 0.0447 0.93053 0.59817 0.0
O116 O 0.9966 0.96629 0.5704 0.0
O117 O 0.43328 0.99077 0.84226 0.0
Mg118 Mg 0.45976 0.95677 0.72795 0.0
O119 O 0.46939 0.03927 0.81515 0.0
Mg120 Mg 0.51898 0.01957 0.69973 0.0
O121 O 0.51462 0.95893 0.7593 0.0
O122 O 0.48101 0.90804 0.78217 0.0
O123 O 0.56864 1.00269 0.58176 0.0
O124 O 0.56073 0.02224 0.83978 0.0
Mg125 Mg 0.57905 0.08739 0.69225 0.0
O126 O 0.52677 0.07853 0.63762 0.0
O127 O 0.60568 0.05192 0.5769 0.0
O128 O 0.59127 0.07388 0.8617 0.0
O129 O 0.54762 0.13417 0.66263 0.0
C130 C 0.44912 0.99914 0.52345 0.0
C131 C 0.44011 0.02459 0.85573 0.0
C132 C 0.51207 0.925 0.79252 0.0
C133 C 0.59809 0.01906 0.54806 0.0
C134 C 0.58394 0.0416 0.89313 0.0
C135 C 0.52068 0.11327 0.63287 0.0
O136 O 0.44126 0.96776 0.56251 0.0
O137 O 0.47631 0.01707 0.56249 0.0
O138 O 0.5419 0.42654 0.7778 0.0
Mg139 Mg 0.5717 0.45994 0.66653 0.0
O140 O 0.4989 0.46793 0.81119 0.0
Mg141 Mg 0.51434 0.51663 0.68831 0.0
O142 O 0.57813 0.51102 0.73464 0.0
O143 O 0.62391 0.47029 0.71438 0.0
O144 O 0.52752 0.56782 0.57096 0.0
O145 O 0.51695 0.55892 0.82638 0.0
Mg146 Mg 0.44846 0.57151 0.71857 0.0
O147 O 0.45239 0.5218 0.64411 0.0
O148 O 0.48172 0.60557 0.61518 0.0
O149 O 0.46357 0.57561 0.89024 0.0
O150 O 0.39911 0.55065 0.6578 0.0
C151 C 0.52637 0.45324 0.48432 0.0
C152 C 0.51288 0.43619 0.82724 0.0
C153 C 0.6124 0.50141 0.75032 0.0
C154 C 0.51176 0.5993 0.56487 0.0
C155 C 0.49829 0.57756 0.8946 0.0
C156 C 0.41777 0.52395 0.61741 0.0
O157 O 0.56076 0.45053 0.49466 0.0
O158 O 0.50947 0.47474 0.54865 0.0
O159 O 0.95518 0.45647 0.82593 0.0
Mg160 Mg 0.97522 0.46053 0.65808 0.0
O161 O 0.97963 0.51005 0.79947 0.0
Mg162 Mg 0.02655 0.51915 0.68548 0.0
O163 O 0.02813 0.46006 0.59852 0.0
O164 O 0.9863 0.4146 0.57379 0.0
O165 O 0.07652 0.53293 0.57066 0.0
O166 O 0.06697 0.49023 0.81539 0.0
Mg167 Mg 0.08084 0.57287 0.78121 0.0
O168 O 0.02482 0.57591 0.78319 0.0
O169 O 0.1041 0.58389 0.626 0.0
O170 O 0.10619 0.53182 0.87924 0.0
O171 O 0.06326 0.61703 0.86437 0.0
C172 C 0.94927 0.52823 0.53315 0.0
C173 C 0.95634 0.49024 0.84865 0.0
C174 C 0.0189 0.42778 0.559 0.0
C175 C 0.10126 0.55758 0.55798 0.0
C176 C 0.09508 0.49898 0.87483 0.0
C177 C 0.03039 0.60639 0.83861 0.0
O178 O 0.9427 0.49595 0.56631 0.0
O179 O 0.98057 0.54354 0.55584 0.0
C180 C 0.16116 0.04581 0.3409 0.0
C181 C 0.18975 0.06542 0.39392 0.0
C182 C 0.13085 0.03313 0.40303 0.0
C183 C 0.12815 0.04017 0.51932 0.0
H184 H 0.16416 0.03675 0.25464 0.0
H185 H 0.11142 0.01467 0.36258 0.0
S186 S 0.193 0.09479 0.69265 0.0
N187 N 0.21146 0.09459 0.56592 0.0
N188 N 0.15409 0.07151 0.6811 0.0
C189 C 0.15451 0.06301 0.56972 0.0
C190 C 0.1855 0.07545 0.5073 0.0
C191 C 0.46254 0.18789 0.52467 0.0
C192 C 0.47373 0.18988 0.41174 0.0
C193 C 0.47244 0.15832 0.59393 0.0
C194 C 0.49434 0.12995 0.55301 0.0
H195 H 0.44908 0.21106 0.56276 0.0
H196 H 0.46675 0.15996 0.68325 0.0
S197 S 0.52655 0.12012 0.25876 0.0
N198 N 0.50379 0.15906 0.25787 0.0
N199 N 0.52336 0.10371 0.38839 0.0
C200 C 0.50232 0.12975 0.43683 0.0
C201 C 0.49182 0.15978 0.36595 0.0
C202 C 0.38388 0.50558 0.32341 0.0
C203 C 0.35293 0.48301 0.34045 0.0
C204 C 0.40761 0.5152 0.41271 0.0
C205 C 0.40108 0.503 0.52324 0.0
H206 H 0.38875 0.51755 0.24114 0.0
H207 H 0.42959 0.53464 0.39661 0.0
S208 S 0.32584 0.44113 0.6133 0.0
N209 N 0.31898 0.44609 0.47614 0.0
N210 N 0.3629 0.46559 0.64441 0.0
C211 C 0.37154 0.4788 0.5408 0.0
C212 C 0.34767 0.46831 0.44926 0.0
C213 C 0.05881 0.36314 0.34572 0.0
C214 C 0.08421 0.34323 0.41117 0.0
C215 C 0.0396 0.39274 0.39173 0.0
C216 C 0.04564 0.40387 0.5039 0.0
H217 H 0.05283 0.35517 0.25962 0.0
H218 H 0.01885 0.40613 0.34059 0.0
S219 S 0.10787 0.3605 0.71195 0.0
N220 N 0.11353 0.33659 0.59547 0.0
N221 N 0.07796 0.39267 0.67958 0.0
C222 C 0.07151 0.38497 0.56911 0.0
C223 C 0.09067 0.35454 0.5233 0.0
C224 C 0.87352 0.95317 0.95557 0.0
C225 C 0.83646 0.96352 0.95718 0.0
C226 C 0.89907 0.97202 0.88809 0.0
C227 C 0.88822 1.00111 0.81749 0.0
H228 H 0.883 0.93102 0.00907 0.0
H229 H 0.92771 0.96509 0.89612 0.0
S230 S 0.79316 0.03554 0.78131 0.0
N231 N 0.7895 1.00275 0.87683 0.0
N232 N 0.837 0.03729 0.74743 0.0
C233 C 0.85073 0.01034 0.81453 0.0
C234 C 0.82496 0.9917 0.88477 0.0
C235 C 0.576 0.84772 0.85557 0.0
C236 C 0.57932 0.84942 0.97374 0.0
C237 C 0.55732 0.87491 0.79456 0.0
C238 C 0.54233 0.90532 0.84904 0.0
H239 H 0.58579 0.824 0.81065 0.0
H240 H 0.55252 0.87094 0.70513 0.0
S241 S 0.54913 0.92558 0.15475 0.0
N242 N 0.56986 0.88578 0.14144 0.0
N243 N 0.53555 0.93754 0.02648 0.0
C244 C 0.54823 0.90889 0.96592 0.0
C245 C 0.56654 0.88073 0.02845 0.0
C246 C 0.66952 0.53429 0.00013 0.0
C247 C 0.69491 0.55829 0.94928 0.0
C248 C 0.64155 0.51719 0.93562 0.0
C249 C 0.63823 0.52349 0.81861 0.0
H250 H 0.67072 0.52939 0.09016 0.0
H251 H 0.62256 0.49873 0.97726 0.0
S252 S 0.70115 0.57871 0.6429 0.0
N253 N 0.71692 0.58423 0.7728 0.0
N254 N 0.66487 0.55156 0.65328 0.0
C255 C 0.66436 0.54586 0.76648 0.0
C256 C 0.69256 0.56341 0.83147 0.0
C257 C 0.97252 0.69036 0.86011 0.0
C258 C 0.95908 0.6879 0.97068 0.0
C259 C 0.99323 0.66206 0.81371 0.0
C260 C 1.00022 0.6299 0.87498 0.0
H261 H 0.96858 0.71515 0.81116 0.0
H262 H 1.00532 0.66608 0.73144 0.0
S263 S 0.96709 0.60802 0.16194 0.0
N264 N 0.95157 0.64968 0.13669 0.0
N265 N 0.98987 0.59593 0.04828 0.0
C266 C 0.98517 0.6262 -0.01691 0.0
C267 C 0.96467 0.65535 0.03126 0.0
C268 C 0.08234 0.1302 0.39509 0.0
C269 C 0.07563 0.16813 0.39659 0.0
C270 C 0.05638 0.10512 0.4354 0.0
C271 C 0.02343 0.11695 0.48374 0.0
H272 H 0.10674 0.11969 0.35533 0.0
H273 H 0.06235 0.07623 0.42905 0.0
S274 S 0.99621 0.21333 0.5321 0.0
N275 N 0.03548 0.21629 0.46472 0.0
N276 N 0.98798 0.16915 0.54612 0.0
C277 C 0.01797 0.1548 0.49556 0.0
C278 C 0.04397 0.18036 0.45235 0.0
C279 C 0.40044 0.08282 0.41354 0.0
C280 C 0.36391 0.07102 0.40075 0.0
C281 C 0.42789 0.05836 0.44446 0.0
C282 C 0.41993 0.02147 0.47042 0.0
H283 H 0.40833 0.11048 0.39014 0.0
H284 H 0.45575 0.06862 0.44845 0.0
S285 S 0.32696 0.97895 0.47462 0.0
N286 N 0.32011 0.02115 0.42962 0.0
N287 N 0.3716 0.97585 0.49724 0.0
C288 C 0.3829 0.01013 0.4681 0.0
C289 C 0.3549 0.03489 0.43307 0.0
C290 C 0.44346 0.3968 0.39828 0.0
C291 C 0.4579 0.36155 0.38536 0.0
C292 C 0.46636 0.42655 0.42403 0.0
C293 C 0.50447 0.42225 0.43974 0.0
H294 H 0.41475 0.40184 0.37963 0.0
H295 H 0.45415 0.45331 0.43071 0.0
S296 S 0.55475 0.33423 0.43759 0.0
N297 N 0.512 0.3231 0.40487 0.0
N298 N 0.55471 0.37894 0.45638 0.0
C299 C 0.51879 0.38665 0.43592 0.0
C300 C 0.49549 0.3563 0.40968 0.0
C301 C 0.16416 0.52051 0.34104 0.0
C302 C 0.19055 0.50303 0.41012 0.0
C303 C 0.13583 0.54072 0.38766 0.0
C304 C 0.13495 0.54628 0.50373 0.0
H305 H 0.16369 0.51592 0.25097 0.0
H306 H 0.11372 0.55034 0.33379 0.0
S307 S 0.20411 0.51684 0.71618 0.0
N308 N 0.21802 0.49848 0.5969 0.0
N309 N 0.16646 0.53973 0.68449 0.0
C310 C 0.16425 0.53375 0.57161 0.0
C311 C 0.19205 0.51154 0.5247 0.0
C312 C 0.97161 0.88087 0.92316 0.0
C313 C 0.98984 0.85707 -0.00375 0.0
C314 C 0.98863 0.91316 0.88802 0.0
C315 C 0.02399 0.9235 0.92789 0.0
H316 H 0.94333 0.8756 0.89853 0.0
H317 H 0.97362 0.93015 0.82905 0.0
S318 S 0.08435 0.86711 0.11049 0.0
N319 N 0.04606 0.84288 0.09813 0.0
N320 N 0.07796 0.9046 0.03472 0.0
C321 C 0.04335 0.89843 -0.00489 0.0
C322 C 0.02626 0.86498 0.02852 0.0
C323 C 0.63384 0.98145 0.09717 0.0
C324 C 0.66286 0.96723 0.03099 0.0
C325 C 0.609 1.00689 0.05459 0.0
C326 C 0.61313 0.02074 0.94631 0.0
H327 H 0.63015 0.97401 0.18448 0.0
H328 H 0.58648 0.01574 0.1067 0.0
S329 S 0.68126 0.99342 0.73315 0.0
N330 N 0.69081 0.96787 0.84438 0.0
N331 N 0.64656 0.01922 0.77077 0.0
C332 C 0.64152 1.00767 0.8786 0.0
C333 C 0.66577 0.98017 0.91923 0.0
C334 C 0.51211 0.67637 0.98166 0.0
C335 C 0.55038 0.67897 -0.00578 0.0
C336 C 0.49524 0.64304 0.95357 0.0
C337 C 0.5162 0.61131 0.93685 0.0
H338 H 0.49498 0.69932 0.00373 0.0
H339 H 0.46559 0.64216 0.9463 0.0
S340 S 0.61784 0.60668 0.94514 0.0
N341 N 0.60891 0.64953 0.97565 0.0
N342 N 0.57782 0.58621 0.92424 0.0
C343 C 0.55478 0.61465 0.9412 0.0
C344 C 0.57171 0.64876 0.96794 0.0
C345 C 0.86931 0.50945 0.0083 0.0
C346 C 0.86253 0.54619 0.97958 0.0
C347 C 0.89971 0.49114 0.96571 0.0
C348 C 0.92423 0.5093 0.89407 0.0
H349 H 0.85215 0.49553 0.06933 0.0
H350 H 0.90465 0.46314 -0.00832 0.0
S351 S 0.9138 0.60413 0.77953 0.0
N352 N 0.87936 0.59892 0.86756 0.0
N353 N 0.93636 0.56516 0.78412 0.0
C354 C 0.91606 0.54566 0.8594 0.0
C355 C 0.88515 0.56398 0.90301 0.0
C356 C 0.09529 0.15617 0.95912 0.0
C357 C 0.07548 0.18501 0.00839 0.0
C358 C 0.07716 0.12566 0.9114 0.0
C359 C 0.03865 0.12286 0.91234 0.0
H360 H 0.12488 0.15531 0.96885 0.0
H361 H 0.09341 0.10315 0.88065 0.0
S362 S 0.97441 0.19525 0.00479 0.0
N363 N 0.01558 0.21183 0.03518 0.0
N364 N 0.98141 0.15508 0.94598 0.0
C365 C 0.0187 0.15358 0.94869 0.0
C366 C 0.03718 0.18467 -0.00457 0.0
C367 C 0.34757 0.04852 0.98174 0.0
C368 C 0.35168 0.08521 0.01403 0.0
C369 C 0.37622 0.02978 0.93007 0.0
C370 C 0.41032 0.04689 0.90668 0.0
H371 H 0.32358 0.03298 0.00737 0.0
H372 H 0.3718 1.00101 0.91249 0.0
S373 S 0.43226 0.14493 0.95486 0.0
N374 N 0.39028 0.13968 0.00439 0.0
N375 N 0.4442 0.10452 0.90575 0.0
C376 C 0.41341 0.08464 0.92794 0.0
C377 C 0.38399 0.10381 0.98067 0.0
C378 C 0.444 0.36636 0.9362 0.0
C379 C 0.46435 0.34817 0.02061 0.0
C380 C 0.45933 0.39594 0.87575 0.0
C381 C 0.49509 0.40866 0.89991 0.0
H382 H 0.41569 0.35859 0.92004 0.0
H383 H 0.44322 0.40883 0.80967 0.0
S384 S 0.55774 0.37355 0.12222 0.0
N385 N 0.52109 0.3468 0.12969 0.0
N386 N 0.54947 0.40245 0.01784 0.0
C387 C 0.51546 0.391 -0.0154 0.0
C388 C 0.50021 0.36073 0.0444 0.0
C389 C 0.13226 0.45649 0.13778 0.0
C390 C 0.16669 0.44173 0.1045 0.0
C391 C 0.10748 0.47191 0.0612 0.0
C392 C 0.11435 0.47191 0.94616 0.0
H393 H 0.12454 0.45992 0.2243 0.0
H394 H 0.08387 0.48628 0.09345 0.0
S395 S 0.19031 0.42424 0.80446 0.0
N396 N 0.19989 0.41966 0.94023 0.0
N397 N 0.15188 0.44787 0.79683 0.0
C398 C 0.14497 0.45258 0.90804 0.0
C399 C 0.17122 0.43745 -0.01334 0.0
C400 C 0.94107 0.87608 0.40603 0.0
C401 C 0.96145 0.84521 0.37357 0.0
C402 C 0.95742 0.90493 0.46749 0.0
C403 C 0.99484 0.90409 0.49814 0.0
H404 H 0.91327 0.87944 0.37463 0.0
H405 H 0.94102 0.92866 0.48676 0.0
S406 S 0.05946 0.82816 0.43854 0.0
N407 N 0.02004 0.81452 0.38293 0.0
N408 N 0.05113 0.86822 0.4961 0.0
C409 C 0.01477 0.87216 0.47221 0.0
C410 C 0.9979 0.84276 0.41154 0.0
C411 C 0.65669 0.94142 0.43181 0.0
C412 C 0.68509 0.96017 0.37482 0.0
C413 C 0.62824 0.96037 0.48575 0.0
C414 C 0.62683 0.99891 0.48434 0.0
H415 H 0.65542 0.9118 0.42931 0.0
H416 H 0.6071 0.94467 0.52812 0.0
S417 S 0.69389 0.06097 0.34374 0.0
N418 N 0.70961 0.01953 0.32028 0.0
N419 N 0.65656 0.05502 0.41942 0.0
C420 C 0.65547 0.01792 0.42931 0.0
C421 C 0.68452 0.99866 0.37596 0.0
C422 C 0.51995 0.68984 0.40721 0.0
C423 C 0.55779 0.69361 0.38778 0.0
C424 C 0.50564 0.65917 0.46368 0.0
C425 C 0.52853 0.63089 0.50388 0.0
H426 H 0.50089 0.70888 0.3686 0.0
H427 H 0.4761 0.65693 0.47166 0.0
S428 S 0.63011 0.63073 0.49124 0.0
N429 N 0.61825 0.66857 0.424 0.0
N430 N 0.59146 0.61126 0.53316 0.0
C431 C 0.56663 0.63567 0.49276 0.0
C432 C 0.5812 0.66704 0.435 0.0
C433 C 0.8562 0.53793 0.3881 0.0
C434 C 0.85477 0.57455 0.35366 0.0
C435 C 0.88693 0.52409 0.44446 0.0
C436 C 0.91782 0.54623 0.47266 0.0
H437 H 0.83503 0.51878 0.36098 0.0
H438 H 0.88663 0.495 0.46229 0.0
S439 S 0.92428 0.64622 0.42211 0.0
N440 N 0.88466 0.63419 0.36327 0.0
N441 N 0.94202 0.60839 0.47588 0.0
C442 C 0.9154 0.58379 0.44776 0.0
C443 C 0.88399 0.59787 0.38764 0.0
loop_
_geom_bond_atom_site_label_1
_geom_bond_atom_site_label_2
_geom_bond_distance
_geom_bond_site_symmetry_2
_ccdc_geom_bond_type
H0 C5 0.930 . S
H1 C8 0.930 . S
H2 C10 0.930 . S
H3 C4 1.016 1_556 S
C4 H3 1.016 1_554 S
C4 N11 1.286 . S
C5 H0 0.930 . S
C5 C6 1.397 . S
C5 C7 1.361 . S
C6 C5 1.397 . S
C6 C10 1.390 . S
C7 C5 1.361 . S
C7 C8 1.393 1_554 S
C7 N11 1.413 . S
C8 H1 0.930 . S
C8 C7 1.393 1_556 S
C8 C9 1.399 1_556 S
C9 C8 1.399 1_554 S
C9 C10 1.381 . S
C10 H2 0.930 . S
C10 C6 1.390 . S
C10 C9 1.381 . S
N11 C4 1.286 . S
N11 C7 1.413 . S
H12 C17 0.930 . S
H13 C20 0.930 . S
H14 C22 0.930 . S
H15 C16 1.016 1_556 S
C16 H15 1.016 1_554 S
C16 N23 1.286 . S
C17 H12 0.930 . S
C17 C18 1.397 . S
C17 C19 1.361 . S
C18 C17 1.397 . S
C18 C22 1.390 . S
C19 C17 1.361 . S
C19 C20 1.393 1_554 S
C19 N23 1.413 . S
C20 H13 0.930 . S
C20 C19 1.393 1_556 S
C20 C21 1.399 1_556 S
C21 C20 1.399 1_554 S
C21 C22 1.381 . S
C22 H14 0.930 . S
C22 C18 1.390 . S
C22 C21 1.381 . S
N23 C16 1.286 . S
N23 C19 1.413 . S
H24 C29 0.930 . S
H25 C32 0.930 . S
H26 C34 0.930 . S
H27 C28 1.016 1_556 S
C28 H27 1.016 1_554 S
C28 N35 1.286 . S
C29 H24 0.930 . S
C29 C30 1.397 . S
C29 C31 1.361 . S
C30 C29 1.397 . S
C30 C34 1.390 . S
C31 C29 1.361 . S
C31 C32 1.393 1_554 S
C31 N35 1.413 . S
C32 H25 0.930 . S
C32 C31 1.393 1_556 S
C32 C33 1.399 1_556 S
C33 C32 1.399 1_554 S
C33 C34 1.381 . S
C34 H26 0.930 . S
C34 C30 1.390 . S
C34 C33 1.381 . S
N35 C28 1.286 . S
N35 C31 1.413 . S
H36 C41 0.930 . S
H37 C44 0.930 . S
H38 C46 0.930 . S
H39 C40 1.016 1_556 S
C40 H39 1.016 1_554 S
C40 N47 1.286 . S
C41 H36 0.930 . S
C41 C42 1.397 . S
C41 C43 1.361 . S
C42 C41 1.397 . S
C42 C46 1.390 . S
C43 C41 1.361 . S
C43 C44 1.393 1_554 S
C43 N47 1.413 . S
C44 H37 0.930 . S
C44 C43 1.393 1_556 S
C44 C45 1.399 1_556 S
C45 C44 1.399 1_554 S
C45 C46 1.381 . S
C46 H38 0.930 . S
C46 C42 1.390 . S
C46 C45 1.381 . S
N47 C40 1.286 . S
N47 C43 1.413 . S
H48 C53 0.930 . S
H49 C56 0.930 . S
H50 C58 0.930 . S
H51 C52 1.016 . S
C52 H51 1.016 . S
C52 N59 1.286 . S
C53 H48 0.930 . S
C53 C54 1.397 . S
C53 C55 1.361 . S
C54 C53 1.397 . S
C54 C58 1.390 . S
C55 C53 1.361 . S
C55 C56 1.393 . S
C55 N59 1.413 . S
C56 H49 0.930 . S
C56 C55 1.393 . S
C56 C57 1.399 . S
C57 C56 1.399 . S
C57 C58 1.381 . S
C58 H50 0.930 . S
C58 C54 1.390 . S
C58 C57 1.381 . S
N59 C52 1.286 . S
N59 C55 1.413 . S
H60 C65 0.930 . S
H61 C68 0.930 . S
H62 C70 0.930 . S
H63 C64 1.016 . S
C64 H63 1.016 . S
C64 N71 1.286 . S
C65 H60 0.930 . S
C65 C66 1.397 . S
C65 C67 1.361 . S
C66 C65 1.397 . S
C66 C70 1.390 . S
C67 C65 1.361 . S
C67 C68 1.393 . S
C67 N71 1.413 . S
C68 H61 0.930 . S
C68 C67 1.393 . S
C68 C69 1.399 . S
C69 C68 1.399 . S
C69 C70 1.381 . S
C70 H62 0.930 . S
C70 C66 1.390 . S
C70 C69 1.381 . S
N71 C64 1.286 . S
N71 C67 1.413 . S
H72 C77 0.930 . S
H73 C80 0.930 . S
H74 C82 0.930 . S
H75 C76 1.016 . S
C76 H75 1.016 . S
C76 N83 1.286 . S
C77 H72 0.930 . S
C77 C78 1.397 . S
C77 C79 1.361 . S
C78 C77 1.397 . S
C78 C82 1.390 . S
C79 C77 1.361 . S
C79 C80 1.393 . S
C79 N83 1.413 . S
C80 H73 0.930 . S
C80 C79 1.393 . S
C80 C81 1.399 . S
C81 C80 1.399 . S
C81 C82 1.381 . S
C82 H74 0.930 . S
C82 C78 1.390 . S
C82 C81 1.381 . S
N83 C76 1.286 . S
N83 C79 1.413 . S
H84 C89 0.930 . S
H85 C92 0.930 . S
H86 C94 0.930 . S
H87 C88 1.016 . S
C88 H87 1.016 . S
C88 N95 1.286 . S
C89 H84 0.930 . S
C89 C90 1.397 . S
C89 C91 1.361 . S
C90 C89 1.397 . S
C90 C94 1.390 . S
C91 C89 1.361 . S
C91 C92 1.393 . S
C91 N95 1.413 . S
C92 H85 0.930 . S
C92 C91 1.393 . S
C92 C93 1.399 . S
C93 C92 1.399 . S
C93 C94 1.381 . S
C94 H86 0.930 . S
C94 C90 1.390 . S
C94 C93 1.381 . S
N95 C88 1.286 . S
N95 C91 1.413 . S
O96 Mg97 1.990 . S
O96 C110 1.253 . S
Mg97 O96 1.990 . S
Mg97 O100 2.180 . S
Mg97 O101 2.117 . S
Mg97 O115 2.030 . S
O98 Mg99 2.072 1_565 S
O98 C110 1.260 . S
Mg99 O98 2.072 1_545 S
Mg99 O100 2.099 1_545 S
Mg99 O102 2.079 . S
Mg99 O103 2.072 . S
Mg99 O105 2.099 1_455 S
Mg99 O116 2.079 1_445 S
O100 Mg97 2.180 . S
O100 Mg99 2.099 1_565 S
O100 C111 1.279 . S
O101 Mg97 2.117 . S
O101 C111 1.250 . S
O102 Mg99 2.079 . S
O102 C112 1.264 1_455 S
O103 Mg99 2.072 . S
O103 C113 1.260 . S
Mg104 O105 2.180 . S
Mg104 O106 2.030 . S
Mg104 O107 1.990 . S
Mg104 O108 2.117 . S
O105 Mg99 2.099 1_655 S
O105 Mg104 2.180 . S
O105 C114 1.279 . S
O106 Mg104 2.030 . S
O106 C112 1.248 . S
O107 Mg104 1.990 . S
O107 C113 1.253 1_655 S
O108 Mg104 2.117 . S
O108 C114 1.250 . S
C109 O115 1.248 1_655 S
C109 O116 1.264 . S
C110 O96 1.253 . S
C110 O98 1.260 . S
C111 O100 1.279 . S
C111 O101 1.250 . S
C112 O102 1.264 1_655 S
C112 O106 1.248 . S
C113 O103 1.260 . S
C113 O107 1.253 1_455 S
C114 O105 1.279 . S
C114 O108 1.250 . S
O115 Mg97 2.030 . S
O115 C109 1.248 1_455 S
O116 Mg99 2.079 1_665 S
O116 C109 1.264 . S
O117 Mg118 1.990 . S
O117 C131 1.253 1_565 S
Mg118 O117 1.990 . S
Mg118 O121 2.180 . S
Mg118 O122 2.117 . S
Mg118 O136 2.030 . S
O119 Mg120 2.072 . S
O119 C131 1.260 . S
Mg120 O119 2.072 . S
Mg120 O121 2.099 1_545 S
Mg120 O123 2.079 1_545 S
Mg120 O124 2.072 . S
Mg120 O126 2.099 . S
Mg120 O137 2.079 . S
O121 Mg118 2.180 . S
O121 Mg120 2.099 1_565 S
O121 C132 1.279 . S
O122 Mg118 2.117 . S
O122 C132 1.250 . S
O123 Mg120 2.079 1_565 S
O123 C133 1.264 . S
O124 Mg120 2.072 . S
O124 C134 1.260 . S
Mg125 O126 2.180 . S
Mg125 O127 2.030 . S
Mg125 O128 1.990 . S
Mg125 O129 2.117 . S
O126 Mg120 2.099 . S
O126 Mg125 2.180 . S
O126 C135 1.279 . S
O127 Mg125 2.030 . S
O127 C133 1.248 1_545 S
O128 Mg125 1.990 . S
O128 C134 1.253 . S
O129 Mg125 2.117 . S
O129 C135 1.250 . S
C130 O136 1.255 . S
C130 O137 1.261 1_565 S
C131 O117 1.253 1_545 S
C131 O119 1.260 . S
C132 O121 1.279 . S
C132 O122 1.250 . S
C133 O123 1.264 . S
C133 O127 1.248 1_565 S
C134 O124 1.260 . S
C134 O128 1.253 . S
C135 O126 1.279 . S
C135 O129 1.250 . S
O136 Mg118 2.030 . S
O136 C130 1.255 . S
O137 Mg120 2.079 . S
O137 C130 1.261 1_545 S
O138 Mg139 1.990 . S
O138 C152 1.253 . S
Mg139 O138 1.990 . S
Mg139 O142 2.180 . S
Mg139 O143 2.117 . S
Mg139 O157 2.030 . S
O140 Mg141 2.072 . S
O140 C152 1.260 . S
Mg141 O140 2.072 . S
Mg141 O142 2.099 . S
Mg141 O144 2.079 . S
Mg141 O145 2.072 . S
Mg141 O147 2.099 . S
Mg141 O158 2.079 . S
O142 Mg139 2.180 . S
O142 Mg141 2.099 . S
O142 C153 1.279 . S
O143 Mg139 2.117 . S
O143 C153 1.250 . S
O144 Mg141 2.079 . S
O144 C154 1.264 . S
O145 Mg141 2.072 . S
O145 C155 1.260 . S
Mg146 O147 2.180 . S
Mg146 O148 2.030 . S
Mg146 O149 1.990 . S
Mg146 O150 2.117 . S
O147 Mg141 2.099 . S
O147 Mg146 2.180 . S
O147 C156 1.279 . S
O148 Mg146 2.030 . S
O148 C154 1.248 . S
O149 Mg146 1.990 . S
O149 C155 1.253 . S
O150 Mg146 2.117 . S
O150 C156 1.250 . S
C151 O157 1.248 . S
C151 O158 1.264 . S
C152 O138 1.253 . S
C152 O140 1.260 . S
C153 O142 1.279 . S
C153 O143 1.250 . S
C154 O144 1.264 . S
C154 O148 1.248 . S
C155 O145 1.260 . S
C155 O149 1.253 . S
C156 O147 1.279 . S
C156 O150 1.250 . S
O157 Mg139 2.030 . S
O157 C151 1.248 . S
O158 Mg141 2.079 . S
O158 C151 1.264 . S
O159 Mg160 1.990 . S
O159 C173 1.253 . S
Mg160 O159 1.990 . S
Mg160 O163 2.180 . S
Mg160 O164 2.117 . S
Mg160 O178 2.030 . S
O161 Mg162 2.072 1_655 S
O161 C173 1.260 . S
Mg162 O161 2.072 1_455 S
Mg162 O163 2.099 1_455 S
Mg162 O165 2.079 . S
Mg162 O166 2.072 . S
Mg162 O168 2.099 . S
Mg162 O179 2.079 1_455 S
O163 Mg160 2.180 . S
O163 Mg162 2.099 1_655 S
O163 C174 1.279 . S
O164 Mg160 2.117 . S
O164 C174 1.250 . S
O165 Mg162 2.079 . S
O165 C175 1.264 . S
O166 Mg162 2.072 . S
O166 C176 1.260 . S
Mg167 O168 2.180 . S
Mg167 O169 2.030 . S
Mg167 O170 1.990 . S
Mg167 O171 2.117 . S
O168 Mg162 2.099 . S
O168 Mg167 2.180 . S
O168 C177 1.279 . S
O169 Mg167 2.030 . S
O169 C175 1.248 . S
O170 Mg167 1.990 . S
O170 C176 1.253 . S
O171 Mg167 2.117 . S
O171 C177 1.250 . S
C172 O178 1.248 . S
C172 O179 1.264 . S
C173 O159 1.253 . S
C173 O161 1.260 . S
C174 O163 1.279 . S
C174 O164 1.250 . S
C175 O165 1.264 . S
C175 O169 1.248 . S
C176 O166 1.260 . S
C176 O170 1.253 . S
C177 O168 1.279 . S
C177 O171 1.250 . S
O178 Mg160 2.030 . S
O178 C172 1.248 . S
O179 Mg162 2.079 1_655 S
O179 C172 1.264 . S
C180 C181 1.369 . S
C180 C182 1.419 . S
C180 H184 0.930 . S
C181 C180 1.369 . S
C181 C190 1.429 . S
C182 C180 1.419 . S
C182 C183 1.363 . S
C182 H185 0.929 1_545 S
C183 C182 1.363 . S
C183 C189 1.428 . S
H184 C180 0.930 . S
H185 C182 0.929 1_565 S
S186 N187 1.613 . S
S186 N188 1.610 . S
N187 S186 1.613 . S
N187 C190 1.350 . S
N188 S186 1.610 . S
N188 C189 1.351 . S
C189 C183 1.428 . S
C189 N188 1.351 . S
C189 C190 1.434 . S
C190 C181 1.429 . S
C190 N187 1.350 . S
C190 C189 1.434 . S
C191 C192 1.369 . S
C191 C193 1.419 . S
C191 H195 0.930 . S
C192 C191 1.369 . S
C192 C201 1.429 . S
C193 C191 1.419 . S
C193 C194 1.363 . S
C193 H196 0.929 . S
C194 C193 1.363 . S
C194 C200 1.428 . S
H195 C191 0.930 . S
H196 C193 0.929 . S
S197 N198 1.613 . S
S197 N199 1.610 . S
N198 S197 1.613 . S
N198 C201 1.350 . S
N199 S197 1.610 . S
N199 C200 1.351 . S
C200 C194 1.428 . S
C200 N199 1.351 . S
C200 C201 1.434 . S
C201 C192 1.429 . S
C201 N198 1.350 . S
C201 C200 1.434 . S
C202 C203 1.369 . S
C202 C204 1.419 . S
C202 H206 0.930 . S
C203 C202 1.369 . S
C203 C212 1.429 . S
C204 C202 1.419 . S
C204 C205 1.363 . S
C204 H207 0.929 . S
C205 C204 1.363 . S
C205 C211 1.428 . S
H206 C202 0.930 . S
H207 C204 0.929 . S
S208 N209 1.613 . S
S208 N210 1.610 . S
N209 S208 1.613 . S
N209 C212 1.350 . S
N210 S208 1.610 . S
N210 C211 1.351 . S
C211 C205 1.428 . S
C211 N210 1.351 . S
C211 C212 1.434 . S
C212 C203 1.429 . S
C212 N209 1.350 . S
C212 C211 1.434 . S
C213 C214 1.369 . S
C213 C215 1.419 . S
C213 H217 0.930 . S
C214 C213 1.369 . S
C214 C223 1.429 . S
C215 C213 1.419 . S
C215 C216 1.363 . S
C215 H218 0.929 1_455 S
C216 C215 1.363 . S
C216 C222 1.428 . S
H217 C213 0.930 . S
H218 C215 0.929 1_655 S
S219 N220 1.613 . S
S219 N221 1.610 . S
N220 S219 1.613 . S
N220 C223 1.350 . S
N221 S219 1.610 . S
N221 C222 1.351 . S
C222 C216 1.428 . S
C222 N221 1.351 . S
C222 C223 1.434 . S
C223 C214 1.429 . S
C223 N220 1.350 . S
C223 C222 1.434 . S
C224 C225 1.369 . S
C224 C226 1.419 . S
C224 H228 0.930 1_556 S
C225 C224 1.369 . S
C225 C234 1.429 1_565 S
C226 C224 1.419 . S
C226 C227 1.363 . S
C226 H229 0.929 . S
C227 C226 1.363 . S
C227 C233 1.428 1_565 S
H228 C224 0.930 1_554 S
H229 C226 0.929 . S
S230 N231 1.613 . S
S230 N232 1.610 . S
N231 S230 1.613 . S
N231 C234 1.350 . S
N232 S230 1.610 . S
N232 C233 1.351 . S
C233 C227 1.428 1_545 S
C233 N232 1.351 . S
C233 C234 1.434 . S
C234 C225 1.429 1_545 S
C234 N231 1.350 . S
C234 C233 1.434 . S
C235 C236 1.369 . S
C235 C237 1.419 . S
C235 H239 0.930 . S
C236 C235 1.369 . S
C236 C245 1.429 1_556 S
C237 C235 1.419 . S
C237 C238 1.363 . S
C237 H240 0.929 . S
C238 C237 1.363 . S
C238 C244 1.428 . S
H239 C235 0.930 . S
H240 C237 0.929 . S
S241 N242 1.613 . S
S241 N243 1.610 . S
N242 S241 1.613 . S
N242 C245 1.350 . S
N243 S241 1.610 . S
N243 C244 1.351 1_554 S
C244 C238 1.428 . S
C244 N243 1.351 1_556 S
C244 C245 1.434 1_556 S
C245 C236 1.429 1_554 S
C245 N242 1.350 . S
C245 C244 1.434 1_554 S
C246 C247 1.369 1_554 S
C246 C248 1.419 1_554 S
C246 H250 0.930 . S
C247 C246 1.369 1_556 S
C247 C256 1.429 . S
C248 C246 1.419 1_556 S
C248 C249 1.363 . S
C248 H251 0.929 . S
C249 C248 1.363 . S
C249 C255 1.428 . S
H250 C246 0.930 . S
H251 C248 0.929 . S
S252 N253 1.613 . S
S252 N254 1.610 . S
N253 S252 1.613 . S
N253 C256 1.350 . S
N254 S252 1.610 . S
N254 C255 1.351 . S
C255 C249 1.428 . S
C255 N254 1.351 . S
C255 C256 1.434 . S
C256 C247 1.429 . S
C256 N253 1.350 . S
C256 C255 1.434 . S
C257 C258 1.369 . S
C257 C259 1.419 1_655 S
C257 H261 0.930 1_655 S
C258 C257 1.369 . S
C258 C267 1.429 1_556 S
C259 C257 1.419 1_455 S
C259 C260 1.363 1_455 S
C259 H262 0.929 . S
C260 C259 1.363 1_655 S
C260 C266 1.428 . S
H261 C257 0.930 1_455 S
H262 C259 0.929 . S
S263 N264 1.613 . S
S263 N265 1.610 1_554 S
N264 S263 1.613 . S
N264 C267 1.350 . S
N265 S263 1.610 1_556 S
N265 C266 1.351 . S
C266 C260 1.428 . S
C266 N265 1.351 . S
C266 C267 1.434 1_556 S
C267 C258 1.429 1_554 S
C267 N264 1.350 . S
C267 C266 1.434 1_554 S
C268 C269 1.369 . S
C268 C270 1.419 . S
C268 H272 0.930 . S
C269 C268 1.369 . S
C269 C278 1.429 . S
C270 C268 1.419 . S
C270 C271 1.363 . S
C270 H273 0.929 . S
C271 C270 1.363 . S
C271 C277 1.428 . S
H272 C268 0.930 . S
H273 C270 0.929 . S
S274 N275 1.613 . S
S274 N276 1.610 1_455 S
N275 S274 1.613 . S
N275 C278 1.350 . S
N276 S274 1.610 1_655 S
N276 C277 1.351 1_655 S
C277 C271 1.428 . S
C277 N276 1.351 1_455 S
C277 C278 1.434 . S
C278 C269 1.429 . S
C278 N275 1.350 . S
C278 C277 1.434 . S
C279 C280 1.369 . S
C279 C281 1.419 . S
C279 H283 0.930 . S
C280 C279 1.369 . S
C280 C289 1.429 . S
C281 C279 1.419 . S
C281 C282 1.363 . S
C281 H284 0.929 . S
C282 C281 1.363 . S
C282 C288 1.428 1_545 S
H283 C279 0.930 . S
H284 C281 0.929 . S
S285 N286 1.613 1_565 S
S285 N287 1.610 . S
N286 S285 1.613 1_545 S
N286 C289 1.350 . S
N287 S285 1.610 . S
N287 C288 1.351 . S
C288 C282 1.428 1_565 S
C288 N287 1.351 . S
C288 C289 1.434 1_565 S
C289 C280 1.429 . S
C289 N286 1.350 . S
C289 C288 1.434 1_545 S
C290 C291 1.369 . S
C290 C292 1.419 . S
C290 H294 0.930 . S
C291 C290 1.369 . S
C291 C300 1.429 . S
C292 C290 1.419 . S
C292 C293 1.363 . S
C292 H295 0.929 . S
C293 C292 1.363 . S
C293 C299 1.428 . S
H294 C290 0.930 . S
H295 C292 0.929 . S
S296 N297 1.613 . S
S296 N298 1.610 . S
N297 S296 1.613 . S
N297 C300 1.350 . S
N298 S296 1.610 . S
N298 C299 1.351 . S
C299 C293 1.428 . S
C299 N298 1.351 . S
C299 C300 1.434 . S
C300 C291 1.429 . S
C300 N297 1.350 . S
C300 C299 1.434 . S
C301 C302 1.369 . S
C301 C303 1.419 . S
C301 H305 0.930 . S
C302 C301 1.369 . S
C302 C311 1.429 . S
C303 C301 1.419 . S
C303 C304 1.363 . S
C303 H306 0.929 . S
C304 C303 1.363 . S
C304 C310 1.428 . S
H305 C301 0.930 . S
H306 C303 0.929 . S
S307 N308 1.613 . S
S307 N309 1.610 . S
N308 S307 1.613 . S
N308 C311 1.350 . S
N309 S307 1.610 . S
N309 C310 1.351 . S
C310 C304 1.428 . S
C310 N309 1.351 . S
C310 C311 1.434 . S
C311 C302 1.429 . S
C311 N308 1.350 . S
C311 C310 1.434 . S
C312 C313 1.369 . S
C312 C314 1.419 . S
C312 H316 0.930 . S
C313 C312 1.369 . S
C313 C322 1.429 1_656 S
C314 C312 1.419 . S
C314 C315 1.363 1_655 S
C314 H317 0.929 . S
C315 C314 1.363 1_455 S
C315 C321 1.428 . S
H316 C312 0.930 . S
H317 C314 0.929 . S
S318 N319 1.613 . S
S318 N320 1.610 . S
N319 S318 1.613 . S
N319 C322 1.350 . S
N320 S318 1.610 . S
N320 C321 1.351 1_554 S
C321 C315 1.428 . S
C321 N320 1.351 1_556 S
C321 C322 1.434 1_556 S
C322 C313 1.429 1_454 S
C322 N319 1.350 . S
C322 C321 1.434 1_554 S
C323 C324 1.369 1_554 S
C323 C325 1.419 1_554 S
C323 H327 0.930 . S
C324 C323 1.369 1_556 S
C324 C333 1.429 . S
C325 C323 1.419 1_556 S
C325 C326 1.363 1_565 S
C325 H328 0.929 1_556 S
C326 C325 1.363 1_545 S
C326 C332 1.428 . S
H327 C323 0.930 . S
H328 C325 0.929 1_554 S
S329 N330 1.613 1_545 S
S329 N331 1.610 . S
N330 S329 1.613 1_565 S
N330 C333 1.350 . S
N331 S329 1.610 . S
N331 C332 1.351 . S
C332 C326 1.428 . S
C332 N331 1.351 . S
C332 C333 1.434 1_545 S
C333 C324 1.429 . S
C333 N330 1.350 . S
C333 C332 1.434 1_565 S
C334 C335 1.369 . S
C334 C336 1.419 . S
C334 H338 0.930 . S
C335 C334 1.369 . S
C335 C344 1.429 . S
C336 C334 1.419 . S
C336 C337 1.363 . S
C336 H339 0.929 . S
C337 C336 1.363 . S
C337 C343 1.428 . S
H338 C334 0.930 . S
H339 C336 0.929 . S
S340 N341 1.613 . S
S340 N342 1.610 . S
N341 S340 1.613 . S
N341 C344 1.350 1_554 S
N342 S340 1.610 . S
N342 C343 1.351 1_554 S
C343 C337 1.428 . S
C343 N342 1.351 1_556 S
C343 C344 1.434 . S
C344 C335 1.429 . S
C344 N341 1.350 1_556 S
C344 C343 1.434 . S
C345 C346 1.369 . S
C345 C347 1.419 . S
C345 H349 0.930 1_556 S
C346 C345 1.369 . S
C346 C355 1.429 . S
C347 C345 1.419 . S
C347 C348 1.363 . S
C347 H350 0.929 . S
C348 C347 1.363 . S
C348 C354 1.428 . S
H349 C345 0.930 1_554 S
H350 C347 0.929 . S
S351 N352 1.613 . S
S351 N353 1.610 . S
N352 S351 1.613 . S
N352 C355 1.350 . S
N353 S351 1.610 . S
N353 C354 1.351 . S
C354 C348 1.428 . S
C354 N353 1.351 . S
C354 C355 1.434 . S
C355 C346 1.429 . S
C355 N352 1.350 . S
C355 C354 1.434 . S
C356 C357 1.369 . S
C356 C358 1.419 . S
C356 H360 0.930 . S
C357 C356 1.369 . S
C357 C366 1.429 . S
C358 C356 1.419 . S
C358 C359 1.363 1_554 S
C358 H361 0.929 . S
C359 C358 1.363 1_556 S
C359 C365 1.428 . S
H360 C356 0.930 . S
H361 C358 0.929 . S
S362 N363 1.613 . S
S362 N364 1.610 . S
N363 S362 1.613 . S
N363 C366 1.350 1_656 S
N364 S362 1.610 . S
N364 C365 1.351 1_655 S
C365 C359 1.428 . S
C365 N364 1.351 1_455 S
C365 C366 1.434 1_556 S
C366 C357 1.429 . S
C366 N363 1.350 1_454 S
C366 C365 1.434 1_554 S
C367 C368 1.369 . S
C367 C369 1.419 1_554 S
C367 H371 0.930 1_545 S
C368 C367 1.369 . S
C368 C377 1.429 . S
C369 C367 1.419 1_556 S
C369 C370 1.363 . S
C369 H372 0.929 1_545 S
C370 C369 1.363 . S
C370 C376 1.428 1_556 S
H371 C367 0.930 1_565 S
H372 C369 0.929 1_565 S
S373 N374 1.613 . S
S373 N375 1.610 . S
N374 S373 1.613 . S
N374 C377 1.350 . S
N375 S373 1.610 . S
N375 C376 1.351 . S
C376 C370 1.428 1_554 S
C376 N375 1.351 . S
C376 C377 1.434 . S
C377 C368 1.429 . S
C377 N374 1.350 . S
C377 C376 1.434 . S
C378 C379 1.369 1_556 S
C378 C380 1.419 . S
C378 H382 0.930 . S
C379 C378 1.369 1_554 S
C379 C388 1.429 . S
C380 C378 1.419 . S
C380 C381 1.363 . S
C380 H383 0.929 . S
C381 C380 1.363 . S
C381 C387 1.428 1_556 S
H382 C378 0.930 . S
H383 C380 0.929 . S
S384 N385 1.613 . S
S384 N386 1.610 . S
N385 S384 1.613 . S
N385 C388 1.350 . S
N386 S384 1.610 . S
N386 C387 1.351 . S
C387 C381 1.428 1_554 S
C387 N386 1.351 . S
C387 C388 1.434 . S
C388 C379 1.429 . S
C388 N385 1.350 . S
C388 C387 1.434 . S
C389 C390 1.369 . S
C389 C391 1.419 . S
C389 H393 0.930 . S
C390 C389 1.369 . S
C390 C399 1.429 1_554 S
C391 C389 1.419 . S
C391 C392 1.363 1_554 S
C391 H394 0.929 . S
C392 C391 1.363 1_556 S
C392 C398 1.428 . S
H393 C389 0.930 . S
H394 C391 0.929 . S
S395 N396 1.613 . S
S395 N397 1.610 . S
N396 S395 1.613 . S
N396 C399 1.350 . S
N397 S395 1.610 . S
N397 C398 1.351 . S
C398 C392 1.428 . S
C398 N397 1.351 . S
C398 C399 1.434 . S
C399 C390 1.429 1_556 S
C399 N396 1.350 . S
C399 C398 1.434 . S
C400 C401 1.369 . S
C400 C402 1.419 . S
C400 H404 0.930 . S
C401 C400 1.369 . S
C401 C410 1.429 1_655 S
C402 C400 1.419 . S
C402 C403 1.363 . S
C402 H405 0.929 . S
C403 C402 1.363 . S
C403 C409 1.428 1_655 S
H404 C400 0.930 . S
H405 C402 0.929 . S
S406 N407 1.613 . S
S406 N408 1.610 . S
N407 S406 1.613 . S
N407 C410 1.350 . S
N408 S406 1.610 . S
N408 C409 1.351 . S
C409 C403 1.428 1_455 S
C409 N408 1.351 . S
C409 C410 1.434 . S
C410 C401 1.429 1_455 S
C410 N407 1.350 . S
C410 C409 1.434 . S
C411 C412 1.369 . S
C411 C413 1.419 . S
C411 H415 0.930 . S
C412 C411 1.369 . S
C412 C421 1.429 . S
C413 C411 1.419 . S
C413 C414 1.363 . S
C413 H416 0.929 . S
C414 C413 1.363 . S
C414 C420 1.430 . S
H415 C411 0.930 . S
H416 C413 0.929 . S
S417 N418 1.613 . S
S417 N419 1.610 . S
N418 S417 1.613 . S
N418 C421 1.350 1_545 S
N419 S417 1.610 . S
N419 C420 1.350 1_545 S
C420 C414 1.430 . S
C420 N419 1.350 1_565 S
C420 C421 1.434 . S
C421 C412 1.429 . S
C421 N418 1.350 1_565 S
C421 C420 1.434 . S
C422 C423 1.369 . S
C422 C424 1.419 . S
C422 H426 0.930 . S
C423 C422 1.369 . S
C423 C432 1.429 . S
C424 C422 1.419 . S
C424 C425 1.363 . S
C424 H427 0.929 . S
C425 C424 1.363 . S
C425 C431 1.428 . S
H426 C422 0.930 . S
H427 C424 0.929 . S
S428 N429 1.613 . S
S428 N430 1.610 . S
N429 S428 1.613 . S
N429 C432 1.350 . S
N430 S428 1.610 . S
N430 C431 1.351 . S
C431 C425 1.428 . S
C431 N430 1.351 . S
C431 C432 1.434 . S
C432 C423 1.429 . S
C432 N429 1.350 . S
C432 C431 1.434 . S
C433 C434 1.369 . S
C433 C435 1.419 . S
C433 H437 0.930 . S
C434 C433 1.369 . S
C434 C443 1.429 . S
C435 C433 1.419 . S
C435 C436 1.363 . S
C435 H438 0.929 . S
C436 C435 1.363 . S
C436 C442 1.428 . S
H437 C433 0.930 . S
H438 C435 0.929 . S
S439 N440 1.613 . S
S439 N441 1.610 . S
N440 S439 1.613 . S
N440 C443 1.350 . S
N441 S439 1.610 . S
N441 C442 1.351 . S
C442 C436 1.428 . S
C442 N441 1.351 . S
C442 C443 1.434 . S
C443 C434 1.429 . S
C443 N440 1.350 . S
C443 C442 1.434 . S
C181 C76 1.575 . S
C183 C111 1.488 1_545 S
C194 C135 1.480 . S
C192 C88 1.583 . S
C205 C156 1.488 . S
C203 C52 1.576 . S
C216 C174 1.489 1_455 S
C214 C64 1.576 . S
C227 C114 1.384 1_565 S
C225 C28 1.496 1_556 S
C236 C40 1.505 1_556 S
C238 C132 1.383 . S
C247 C4 1.496 1_556 S
C249 C153 1.386 . S
C258 C16 1.506 1_556 S
C260 C177 1.386 1_655 S
C271 C112 0.914 1_455 S
C269 C69 0.918 . S
C282 C130 0.909 1_545 S
C280 C81 0.914 . S
C293 C151 0.919 . S
C291 C93 0.907 . S
C302 C57 0.918 . S
C304 C175 0.913 . S
C313 C21 0.962 1_556 S
C315 C110 1.010 . S
C326 C134 1.002 . S
C324 C33 0.973 1_556 S
C337 C155 1.009 . S
C335 C45 0.974 1_556 S
C346 C9 0.980 1_556 S
C348 C173 1.003 . S
C357 C66 1.594 . S
C359 C113 1.551 . S
C368 C78 1.593 . S
C370 C131 1.559 . S
C381 C152 1.555 . S
C379 C90 1.589 . S
C392 C176 1.552 . S
C390 C54 1.597 . S
C401 C18 1.467 . S
C403 C109 1.429 . S
C414 C133 1.429 . S
C412 C30 1.470 . S
C425 C154 1.437 . S
C423 C42 1.468 . S
C434 C6 1.466 . S
C436 C172 1.437 . S
