# Generated by pormake.
# Topology zzz, (3,6)-cn, num edge types: 1
# Building blocks:
#     Node 0, Type 0, BuildingBlock: BELTOD_clean_linker_0, # of connection points: 3
#     Node 1, Type 0, BuildingBlock: BELTOD_clean_linker_0, # of connection points: 3
#     Node 2, Type 0, BuildingBlock: BELTOD_clean_linker_0, # of connection points: 3
#     Node 3, Type 0, BuildingBlock: BELTOD_clean_linker_0, # of connection points: 3
#     Node 4, Type 0, BuildingBlock: BELTOD_clean_linker_0, # of connection points: 3
#     Node 5, Type 0, BuildingBlock: BELTOD_clean_linker_0, # of connection points: 3
#     Node 6, Type 0, BuildingBlock: BELTOD_clean_linker_0, # of connection points: 3
#     Node 7, Type 0, BuildingBlock: BELTOD_clean_linker_0, # of connection points: 3
#     Node 8, Type 1, BuildingBlock: KUMBOL_clean_sbu_0, # of connection points: 6
#     Node 9, Type 1, BuildingBlock: KUMBOL_clean_sbu_0, # of connection points: 6
#     Node 10, Type 1, BuildingBlock: KUMBOL_clean_sbu_0, # of connection points: 6
#     Node 11, Type 1, BuildingBlock: KUMBOL_clean_sbu_0, # of connection points: 6
#     Edge 12, Type (0, 1), BuildingBlock: XIVTED_clean_linker_0, # of connection points: 2
#     Edge 13, Type (0, 1), BuildingBlock: XIVTED_clean_linker_0, # of connection points: 2
#     Edge 14, Type (0, 1), BuildingBlock: XIVTED_clean_linker_0, # of connection points: 2
#     Edge 15, Type (0, 1), BuildingBlock: XIVTED_clean_linker_0, # of connection points: 2
#     Edge 16, Type (0, 1), BuildingBlock: XIVTED_clean_linker_0, # of connection points: 2
#     Edge 17, Type (0, 1), BuildingBlock: XIVTED_clean_linker_0, # of connection points: 2
#     Edge 18, Type (0, 1), BuildingBlock: XIVTED_clean_linker_0, # of connection points: 2
#     Edge 19, Type (0, 1), BuildingBlock: XIVTED_clean_linker_0, # of connection points: 2
#     Edge 20, Type (0, 1), BuildingBlock: XIVTED_clean_linker_0, # of connection points: 2
#     Edge 21, Type (0, 1), BuildingBlock: XIVTED_clean_linker_0, # of connection points: 2
#     Edge 22, Type (0, 1), BuildingBlock: XIVTED_clean_linker_0, # of connection points: 2
#     Edge 23, Type (0, 1), BuildingBlock: XIVTED_clean_linker_0, # of connection points: 2
#     Edge 24, Type (0, 1), BuildingBlock: XIVTED_clean_linker_0, # of connection points: 2
#     Edge 25, Type (0, 1), BuildingBlock: XIVTED_clean_linker_0, # of connection points: 2
#     Edge 26, Type (0, 1), BuildingBlock: XIVTED_clean_linker_0, # of connection points: 2
#     Edge 27, Type (0, 1), BuildingBlock: XIVTED_clean_linker_0, # of connection points: 2
#     Edge 28, Type (0, 1), BuildingBlock: XIVTED_clean_linker_0, # of connection points: 2
#     Edge 29, Type (0, 1), BuildingBlock: XIVTED_clean_linker_0, # of connection points: 2
#     Edge 30, Type (0, 1), BuildingBlock: XIVTED_clean_linker_0, # of connection points: 2
#     Edge 31, Type (0, 1), BuildingBlock: XIVTED_clean_linker_0, # of connection points: 2
#     Edge 32, Type (0, 1), BuildingBlock: XIVTED_clean_linker_0, # of connection points: 2
#     Edge 33, Type (0, 1), BuildingBlock: XIVTED_clean_linker_0, # of connection points: 2
#     Edge 34, Type (0, 1), BuildingBlock: XIVTED_clean_linker_0, # of connection points: 2
#     Edge 35, Type (0, 1), BuildingBlock: XIVTED_clean_linker_0, # of connection points: 2
# Relax obj value: 0.287
# Max RMSD: 0.211
# Mean RMSD: 0.202
data_MOF--net-zzz--node1-KUMBOL_clean_sbu_0--node2-BELTOD_clean_linker_0--edge1-XIVTED_clean_linker_0
_symmetry_space_group_name_H-M    P1
_symmetry_Int_Tables_number       1
_symmetry_cell_setting            triclinic
loop_
_symmetry_equiv_pos_as_xyz
'x, y, z'
_cell_length_a     53.782977
_cell_length_b     53.664266
_cell_length_c     18.602461
_cell_angle_alpha  90.602568
_cell_angle_beta   90.006144
_cell_angle_gamma 89.942135
loop_
_atom_site_label
_atom_site_type_symbol
_atom_site_fract_x
_atom_site_fract_y
_atom_site_fract_z
_atom_type_partial_charge
P0 P 0.74633 0.51823 0.16842 0.0
H1 H 0.77082 0.47857 0.24874 0.0
H2 H 0.80045 0.48005 0.3466 0.0
H3 H 0.78257 0.5576 0.3845 0.0
H4 H 0.7529 0.55601 0.28416 0.0
H5 H 0.70641 0.48159 0.16277 0.0
H6 H 0.66465 0.48361 0.11314 0.0
H7 H 0.67036 0.56381 0.1024 0.0
H8 H 0.71257 0.5615 0.15171 0.0
H9 H 0.79389 0.54448 0.18731 0.0
H10 H 0.73534 0.54082 0.02883 0.0
O11 O 0.75353 0.49126 0.12794 0.0
H12 H 0.81886 0.56872 0.10717 0.0
H13 H 0.76052 0.56574 0.94743 0.0
C14 C 0.75968 0.51726 0.25817 0.0
C15 C 0.77255 0.49577 0.27923 0.0
C16 C 0.78967 0.49664 0.33583 0.0
C17 C 0.79443 0.51908 0.37319 0.0
C18 C 0.77984 0.54009 0.35615 0.0
C19 C 0.76249 0.53913 0.29951 0.0
C20 C 0.71289 0.52132 0.15975 0.0
C21 C 0.69847 0.49971 0.15189 0.0
C22 C 0.67443 0.50092 0.12321 0.0
C23 C 0.66416 0.52386 0.10201 0.0
C24 C 0.67785 0.54576 0.11631 0.0
C25 C 0.70192 0.5445 0.14548 0.0
C26 C 0.76216 0.54142 0.11574 0.0
C27 C 0.78572 0.54991 0.1368 0.0
C28 C 0.80015 0.56401 0.09032 0.0
C29 C 0.79169 0.56949 0.02067 0.0
C30 C 0.76759 0.56195 1.00071 0.0
C31 C 0.75309 0.54782 0.04758 0.0
P32 P 0.99893 0.75956 0.13951 0.0
H33 H 0.04037 0.77146 0.23527 0.0
H34 H 0.0446 0.80289 0.3298 0.0
H35 H 0.96488 0.81272 0.33273 0.0
H36 H 0.96077 0.7802 0.24007 0.0
H37 H 0.03891 0.72343 0.11661 0.0
H38 H 0.03861 0.68155 0.06585 0.0
H39 H 0.95882 0.67863 0.09046 0.0
H40 H 0.95931 0.72101 0.14179 0.0
H41 H 0.97706 0.80942 0.13667 0.0
H42 H 0.97018 0.741 0.01426 0.0
O43 O 0.02485 0.76894 0.0985 0.0
H44 H 0.95282 0.83086 0.04784 0.0
H45 H 0.94529 0.7624 0.92552 0.0
C46 C 1.00031 0.77392 0.22862 0.0
C47 C 0.02367 0.7797 0.25783 0.0
C48 C 0.02609 0.79809 0.31139 0.0
C49 C 0.00518 0.81132 0.33706 0.0
C50 C 0.98149 0.8033 0.31393 0.0
C51 C 0.97909 0.78456 0.26078 0.0
C52 C 0.99907 0.72574 0.13162 0.0
C53 C 0.02136 0.71362 0.11331 0.0
C54 C 0.02116 0.6895 0.08393 0.0
C55 C 0.99861 0.67678 0.07219 0.0
C56 C 0.97648 0.68805 0.09707 0.0
C57 C 0.97677 0.71218 0.12755 0.0
C58 C 0.97461 0.7731 0.08518 0.0
C59 C 0.96901 0.79848 0.09345 0.0
C60 C 0.955 0.81088 0.04189 0.0
C61 C 0.94686 0.79836 0.97934 0.0
C62 C 0.95113 0.77259 0.97314 0.0
C63 C 0.96524 0.7602 0.02485 0.0
P64 P 0.76263 0.99922 0.16913 0.0
H65 H 0.7536 0.03712 0.27991 0.0
H66 H 0.72086 0.04082 0.36983 0.0
H67 H 0.70205 0.96335 0.33643 0.0
H68 H 0.73561 0.95959 0.24772 0.0
H69 H 0.80673 0.03094 0.16882 0.0
H70 H 0.84831 0.02353 0.12265 0.0
H71 H 0.83353 0.94445 0.1136 0.0
H72 H 0.79144 0.95216 0.15993 0.0
H73 H 0.70992 0.98777 0.15036 0.0
H74 H 0.77801 0.97455 0.03323 0.0
O75 O 0.75978 0.02853 0.14099 0.0
H76 H 0.68633 0.97078 0.0512 0.0
H77 H 0.75437 0.95681 0.93389 0.0
C78 C 0.74666 0.99827 0.25526 0.0
C79 C 0.74305 0.02065 0.29348 0.0
C80 C 0.724 0.02283 0.34446 0.0
C81 C 0.70805 1.00266 0.35854 0.0
C82 C 0.71371 0.97939 0.3266 0.0
C83 C 0.73303 0.97717 0.27585 0.0
C84 C 0.79564 0.99218 0.1663 0.0
C85 C 0.81257 0.01188 0.15926 0.0
C86 C 0.83654 0.00758 0.13261 0.0
C87 C 0.84422 0.98341 0.11248 0.0
C88 C 0.82807 0.96337 0.12685 0.0
C89 C 0.80409 0.96771 0.15442 0.0
C90 C 0.746 0.98128 0.10188 0.0
C91 C 0.72002 0.9799 0.10526 0.0
C92 C 0.70642 0.97008 0.04787 0.0
C93 C 0.71842 0.96197 0.98458 0.0
C94 C 0.74453 0.96266 0.98197 0.0
C95 C 0.75814 0.97256 0.03958 0.0
P96 P 0.5189 0.7774 0.18977 0.0
H97 H 0.47898 0.74846 0.25343 0.0
H98 H 0.47825 0.71815 0.34811 0.0
H99 H 0.5528 0.73935 0.41025 0.0
H100 H 0.55352 0.76985 0.31239 0.0
H101 H 0.48974 0.82309 0.20208 0.0
H102 H 0.49732 0.8643 0.15369 0.0
H103 H 0.5746 0.84517 0.12092 0.0
H104 H 0.56661 0.80359 0.16826 0.0
H105 H 0.5479 0.73076 0.2056 0.0
H106 H 0.53339 0.78492 0.04081 0.0
O107 O 0.49094 0.77591 0.15097 0.0
H108 H 0.56817 0.70404 0.11859 0.0
H109 H 0.55417 0.75799 0.95246 0.0
C110 C 0.51626 0.76175 0.2756 0.0
C111 C 0.49499 0.74735 0.28849 0.0
C112 C 0.49458 0.7298 0.34337 0.0
C113 C 0.51551 0.72597 0.3873 0.0
C114 C 0.5364 0.74148 0.37712 0.0
C115 C 0.53673 0.75927 0.3219 0.0
C116 C 0.52745 0.81001 0.18757 0.0
C117 C 0.50854 0.82801 0.18702 0.0
C118 C 0.51294 0.85172 0.15896 0.0
C119 C 0.53647 0.858 0.13126 0.0
C120 C 0.55607 0.8408 0.13967 0.0
C121 C 0.55161 0.81706 0.1678 0.0
C122 C 0.53903 0.76 0.13005 0.0
C123 C 0.54977 0.73745 0.15134 0.0
C124 C 0.56168 0.7221 0.10113 0.0
C125 C 0.56283 0.72882 0.0283 0.0
C126 C 0.55351 0.75221 0.00804 0.0
C127 C 0.54164 0.76762 0.05852 0.0
P128 P 0.28964 0.44682 0.03659 0.0
H129 H 0.27915 0.44979 0.88216 0.0
H130 H 0.2436 0.46709 0.81894 0.0
H131 H 0.22195 0.50707 0.01165 0.0
H132 H 0.25764 0.48953 0.07491 0.0
H133 H 0.33208 0.42103 0.09424 0.0
H134 H 0.3663 0.43313 0.17242 0.0
H135 H 0.33879 0.50881 0.17744 0.0
H136 H 0.30453 0.49645 0.09685 0.0
H137 H 0.25412 0.40636 0.01804 0.0
H138 H 0.27404 0.45967 0.18311 0.0
O139 O 0.3001 0.42418 0.98222 0.0
H140 H 0.21572 0.39697 0.08211 0.0
H141 H 0.23545 0.45108 0.24614 0.0
C142 C 0.27123 0.46823 0.98367 0.0
C143 C 0.26742 0.46306 0.91032 0.0
C144 C 0.24688 0.47296 0.874 0.0
C145 C 0.22951 0.48811 0.91044 0.0
C146 C 0.23464 0.49507 0.98219 0.0
C147 C 0.25533 0.48531 0.01828 0.0
C148 C 0.31594 0.45788 0.08857 0.0
C149 C 0.33355 0.44035 0.11114 0.0
C150 C 0.35302 0.44725 0.15679 0.0
C151 C 0.3553 0.47193 0.18204 0.0
C152 C 0.33776 0.48968 0.15862 0.0
C153 C 0.31813 0.48266 0.11256 0.0
C154 C 0.26705 0.43353 0.09611 0.0
C155 C 0.2507 0.41534 0.0695 0.0
C156 C 0.2286 0.4102 0.10582 0.0
C157 C 0.22228 0.42355 0.16872 0.0
C158 C 0.23976 0.44023 0.19835 0.0
C159 C 0.26194 0.44521 0.1622 0.0
P160 P 0.07413 0.27802 0.05986 0.0
H161 H 0.08313 0.25888 0.91447 0.0
H162 H 0.06743 0.22285 0.85046 0.0
H163 H 0.00987 0.21455 0.01087 0.0
H164 H 0.02712 0.25 0.07765 0.0
H165 H 0.09803 0.32474 0.09623 0.0
H166 H 0.08542 0.36084 0.16673 0.0
H167 H 0.01081 0.33156 0.17972 0.0
H168 H 0.02357 0.29537 0.10625 0.0
H169 H 0.11009 0.23777 0.0763 0.0
H170 H 0.0552 0.27512 0.20792 0.0
O171 O 0.10052 0.28491 0.01718 0.0
H172 H 0.11718 0.20768 0.17235 0.0
H173 H 0.06181 0.24533 0.30242 0.0
C174 C 0.05622 0.2576 1.00089 0.0
C175 C 0.06671 0.24982 0.93528 0.0
C176 C 0.05756 0.22892 0.89816 0.0
C177 C 0.03735 0.21514 0.92506 0.0
C178 C 0.02581 0.22405 0.98867 0.0
C179 C 0.0353 0.24483 0.02644 0.0
C180 C 0.06174 0.30731 0.09467 0.0
C181 C 0.07871 0.32629 0.11207 0.0
C182 C 0.07155 0.34688 0.15376 0.0
C183 C 0.04719 0.34902 0.18051 0.0
C184 C 0.02973 0.33064 0.16 0.0
C185 C 0.03696 0.30993 0.11758 0.0
C186 C 0.08238 0.25893 0.13512 0.0
C187 C 0.10003 0.23989 0.12643 0.0
C188 C 0.10398 0.22266 0.18119 0.0
C189 C 0.09019 0.22416 0.24533 0.0
C190 C 0.07323 0.24391 0.25461 0.0
C191 C 0.06927 0.26099 0.19994 0.0
P192 P 0.24338 0.08092 0.04178 0.0
H193 H 0.26233 0.08789 0.89605 0.0
H194 H 0.29744 0.06984 0.83304 0.0
H195 H 0.30373 0.01353 0.99677 0.0
H196 H 0.26938 0.03303 0.06223 0.0
H197 H 0.19844 0.10597 0.08808 0.0
H198 H 0.16233 0.09296 0.15632 0.0
H199 H 0.18825 0.01675 0.14702 0.0
H200 H 0.22479 0.03016 0.07857 0.0
H201 H 0.28612 0.11398 0.05399 0.0
H202 H 0.24572 0.06399 0.19139 0.0
O203 O 0.23683 0.10722 0.99848 0.0
H204 H 0.31802 0.11901 0.14702 0.0
H205 H 0.27732 0.06857 0.28317 0.0
C206 C 0.26274 0.06167 0.98367 0.0
C207 C 0.27072 0.07123 0.91764 0.0
C208 C 0.29105 0.06074 0.88124 0.0
C209 C 0.30397 0.04019 0.90954 0.0
C210 C 0.29482 0.02964 0.97357 0.0
C211 C 0.27464 0.04043 0.01052 0.0
C212 C 0.21425 0.06905 0.07681 0.0
C213 C 0.19608 0.08631 0.09871 0.0
C214 C 0.1753 0.0788 0.13806 0.0
C215 C 0.17218 0.05375 0.15753 0.0
C216 C 0.19008 0.03625 0.13365 0.0
C217 C 0.21092 0.04384 0.09373 0.0
C218 C 0.26337 0.08889 0.11599 0.0
C219 C 0.28374 0.10467 0.1049 0.0
C220 C 0.30202 0.1074 0.15789 0.0
C221 C 0.30023 0.09426 0.22268 0.0
C222 C 0.2791 0.07942 0.2347 0.0
C223 C 0.26095 0.07665 0.18173 0.0
P224 P 0.42492 0.24339 0.05359 0.0
H225 H 0.42688 0.24733 0.89654 0.0
H226 H 0.44633 0.27803 0.81891 0.0
H227 H 0.48728 0.30731 1.00092 0.0
H228 H 0.46855 0.27587 0.07734 0.0
H229 H 0.39739 0.19882 0.08937 0.0
H230 H 0.40761 0.16148 0.15577 0.0
H231 H 0.48379 0.18625 0.17434 0.0
H232 H 0.47342 0.22359 0.10476 0.0
H233 H 0.3877 0.28275 0.06906 0.0
H234 H 0.44813 0.25296 0.19392 0.0
O235 O 0.39848 0.23819 0.00881 0.0
H236 H 0.38392 0.31765 0.15353 0.0
H237 H 0.44543 0.28814 0.27616 0.0
C238 C 0.44583 0.25947 0.9933 0.0
C239 C 0.44062 0.25983 0.91943 0.0
C240 C 0.45155 0.27772 0.87511 0.0
C241 C 0.46788 0.29579 0.90374 0.0
C242 C 0.47478 0.29386 0.97658 0.0
C243 C 0.46397 0.2758 0.02072 0.0
C244 C 0.43469 0.21394 0.09112 0.0
C245 C 0.41647 0.19604 0.10604 0.0
C246 C 0.42229 0.17474 0.14509 0.0
C247 C 0.44646 0.17089 0.17162 0.0
C248 C 0.46501 0.18845 0.15443 0.0
C249 C 0.45913 0.20984 0.11463 0.0
C250 C 0.41806 0.26511 0.12539 0.0
C251 C 0.39975 0.28336 0.11568 0.0
C252 C 0.39779 0.30348 0.16373 0.0
C253 C 0.41455 0.30602 0.2215 0.0
C254 C 0.43188 0.28678 0.23328 0.0
C255 C 0.43357 0.26655 0.18576 0.0
Gd256 Gd 0.98667 0.01105 0.59983 0.0
Gd257 Gd 0.04318 0.00872 0.71442 0.0
C258 C 0.0702 0.07999 0.82922 0.0
C259 C 0.10785 0.08962 0.76314 0.0
C260 C 0.08393 0.05243 0.73381 0.0
C261 C 0.06667 0.05867 0.78525 0.0
C262 C 0.10528 0.06727 0.72391 0.0
C263 C 0.09031 0.09598 0.81591 0.0
C264 C 0.0541 0.08396 0.88716 0.0
C265 C 0.0359 0.06627 0.90196 0.0
N266 N 0.04769 0.04259 0.79676 0.0
C267 C 0.03321 0.04545 0.85667 0.0
H268 H 0.01943 0.03191 0.87027 0.0
C269 C 0.1005 0.02062 0.65997 0.0
N270 N 0.08115 0.03037 0.69898 0.0
C271 C 0.12184 0.03475 0.64714 0.0
C272 C 0.12401 0.05848 0.67796 0.0
H273 H 0.09908 1.00208 0.63728 0.0
H274 H 0.09303 0.11269 0.84815 0.0
H275 H 0.01005 0.98661 0.44309 0.0
H276 H 0.05614 0.10008 0.92224 0.0
H277 H 0.02389 0.06864 0.9482 0.0
H278 H 0.1239 0.10149 0.7555 0.0
H279 H 0.93535 0.0167 0.6997 0.0
H280 H 0.9653 0.92469 0.38073 0.0
H281 H 1.00141 0.95214 0.3606 0.0
H282 H 0.89852 0.92626 0.5506 0.0
H283 H 0.13667 0.02726 0.61401 0.0
H284 H 0.14069 0.0693 0.66882 0.0
H285 H 0.92724 0.9149 0.45265 0.0
H286 H 0.8959 0.99426 0.71997 0.0
N287 N 0.97964 0.9789 0.51364 0.0
C288 C 0.969 0.93992 0.4179 0.0
C289 C 0.98938 0.95537 0.40638 0.0
C290 C 0.95326 0.94472 0.47617 0.0
C291 C 0.95898 0.96474 0.52322 0.0
C292 C 0.99426 0.97503 0.45427 0.0
N293 N 0.94829 0.99113 0.61984 0.0
C294 C 0.94286 0.97102 0.57822 0.0
C295 C 0.90897 0.98745 0.68011 0.0
C296 C 0.90377 0.96584 0.64052 0.0
C297 C 0.93127 1.00014 0.66832 0.0
C298 C 0.92057 0.95761 0.58792 0.0
H299 H 0.88646 0.95604 0.64964 0.0
O300 O 0.95688 0.03729 0.58047 0.0
O301 O 0.01413 0.03272 0.66588 0.0
O302 O 0.00691 1.00461 0.77857 0.0
O303 O 0.97883 0.9874 0.69717 0.0
O304 O 0.97707 0.04118 0.68171 0.0
O305 O 0.98644 0.0328 0.50203 0.0
O306 O 0.07298 0.98346 0.7433 0.0
O307 O 0.0165 0.98778 0.64548 0.0
O308 O 0.02136 0.01512 0.53012 0.0
O309 O 0.05455 0.02465 0.60728 0.0
O310 O 0.05312 0.97686 0.63809 0.0
O311 O 0.04117 0.98767 0.81336 0.0
C312 C 0.99945 0.04726 0.69868 0.0
C313 C 0.91541 0.93696 0.54349 0.0
C314 C 0.93174 0.93051 0.4877 0.0
C315 C 0.96799 0.04667 0.52483 0.0
C316 C 0.97205 0.07383 0.52881 0.0
C317 C 0.95262 0.08948 0.55183 0.0
C318 C 0.99557 0.08416 0.51525 0.0
C319 C 0.9996 0.10991 0.5231 0.0
C320 C 0.95666 0.11496 0.56163 0.0
C321 C 0.97996 0.12517 0.5473 0.0
C322 C 0.98587 0.99261 0.76379 0.0
C323 C 0.03091 0.97218 0.61599 0.0
C324 C 0.06057 0.97423 0.79658 0.0
C325 C 0.05698 0.94713 0.79252 0.0
C326 C 0.0776 0.93126 0.79712 0.0
C327 C 0.03343 0.9371 0.77688 0.0
C328 C 0.03029 0.91132 0.7674 0.0
C329 C 0.07474 0.90565 0.78645 0.0
C330 C 0.05128 0.89569 0.77184 0.0
C331 C 0.04463 0.02221 0.5424 0.0
H332 H 0.93439 0.08191 0.56332 0.0
H333 H 0.01082 0.07223 0.49892 0.0
H334 H 0.94161 0.12688 0.57964 0.0
H335 H 0.98232 0.14514 0.55287 0.0
H336 H 0.09596 0.93874 0.8078 0.0
H337 H 0.01754 0.94934 0.77156 0.0
H338 H 0.09072 0.89345 0.79009 0.0
H339 H 0.04951 0.87566 0.76639 0.0
Gd340 Gd 0.50702 0.98445 0.59304 0.0
Gd341 Gd 0.50458 0.04406 0.69469 0.0
C342 C 0.43383 0.07408 0.80136 0.0
C343 C 0.42276 0.10833 0.72314 0.0
C344 C 0.46005 0.08388 0.69984 0.0
C345 C 0.45485 0.06905 0.75811 0.0
C346 C 0.4444 0.10406 0.6826 0.0
C347 C 0.41749 0.09336 0.78248 0.0
C348 C 0.43021 0.05998 0.86327 0.0
C349 C 0.44773 0.04199 0.88184 0.0
N350 N 0.47101 0.05052 0.77464 0.0
C351 C 0.46824 0.03767 0.83714 0.0
H352 H 0.48152 0.02379 0.85273 0.0
C353 C 0.48889 0.09558 0.61047 0.0
N354 N 0.48117 0.07936 0.66223 0.0
C355 C 0.47392 0.11573 0.59102 0.0
C356 C 0.45137 0.11978 0.62651 0.0
H357 H 0.50619 0.09231 0.58234 0.0
H358 H 0.40107 0.09725 0.81447 0.0
H359 H 0.53138 0.00595 0.43737 0.0
H360 H 0.41428 0.0632 0.89782 0.0
H361 H 0.44539 0.03132 0.93041 0.0
H362 H 0.41035 0.12356 0.71027 0.0
H363 H 0.5035 0.93547 0.70153 0.0
H364 H 0.59588 0.96307 0.3859 0.0
H365 H 0.56689 0.99747 0.35857 0.0
H366 H 0.59645 0.89979 0.5656 0.0
H367 H 0.47973 0.12805 0.5485 0.0
H368 H 0.43983 0.13545 0.6115 0.0
H369 H 0.60699 0.92689 0.46415 0.0
H370 H 0.52783 0.89779 0.73052 0.0
N371 N 0.54012 0.97721 0.51165 0.0
C372 C 0.58022 0.96671 0.42113 0.0
C373 C 0.5639 0.98613 0.40554 0.0
C374 C 0.57578 0.95186 0.48107 0.0
C375 C 0.55518 0.9575 0.5254 0.0
C376 C 0.54369 0.99093 0.45099 0.0
N377 N 0.52873 0.94768 0.62121 0.0
C378 C 0.54934 0.94231 0.58225 0.0
C379 C 0.53415 0.91018 0.68882 0.0
C380 C 0.55616 0.9051 0.65167 0.0
C381 C 0.52039 0.93148 0.67212 0.0
C382 C 0.5638 0.92101 0.59678 0.0
H383 H 0.56678 0.88857 0.66457 0.0
O384 O 0.4813 0.95397 0.57521 0.0
O385 O 0.48388 0.01128 0.65513 0.0
O386 O 0.51199 0.01081 0.76852 0.0
O387 O 0.53021 0.98077 0.69367 0.0
O388 O 0.47698 0.97432 0.67426 0.0
O389 O 0.48762 0.98094 0.49108 0.0
O390 O 0.52716 0.07691 0.71171 0.0
O391 O 0.52807 0.01702 0.63393 0.0
O392 O 0.50086 0.01822 0.52035 0.0
O393 O 0.48056 0.04635 0.59575 0.0
O394 O 0.53503 0.05399 0.6148 0.0
O395 O 0.52395 0.04937 0.79604 0.0
C396 C 0.47011 0.99672 0.68955 0.0
C397 C 0.58496 0.91592 0.55487 0.0
C398 C 0.59094 0.93133 0.49708 0.0
C399 C 0.47309 0.96344 0.51551 0.0
C400 C 0.44606 0.96818 0.51379 0.0
C401 C 0.42965 0.95021 0.5407 0.0
C402 C 0.43662 0.99143 0.49255 0.0
C403 C 0.41117 0.99686 0.49902 0.0
C404 C 0.40437 0.95553 0.54757 0.0
C405 C 0.39515 0.97872 0.52721 0.0
C406 C 0.52498 0.98992 0.75836 0.0
C407 C 0.54212 0.03159 0.60035 0.0
C408 C 0.53589 0.06888 0.77247 0.0
C409 C 0.56307 0.068 0.77575 0.0
C410 C 0.57646 0.09009 0.78645 0.0
C411 C 0.57577 0.04564 0.76114 0.0
C412 C 0.60185 0.04513 0.75863 0.0
C413 C 0.60236 0.08984 0.78306 0.0
C414 C 0.61502 0.06756 0.76943 0.0
C415 C 0.48674 0.03825 0.53089 0.0
H416 H 0.4365 0.93224 0.55793 0.0
H417 H 0.44906 0.00552 0.4721 0.0
H418 H 0.39187 0.94163 0.56881 0.0
H419 H 0.37537 0.98219 0.53181 0.0
H420 H 0.56686 0.10755 0.79637 0.0
H421 H 0.56534 0.02869 0.75126 0.0
H422 H 0.61268 0.10692 0.79152 0.0
H423 H 0.63515 0.06782 0.76962 0.0
Gd424 Gd 0.47593 0.51265 0.68584 0.0
Gd425 Gd 0.53837 0.50505 0.60493 0.0
C426 C 0.61153 0.51653 0.7272 0.0
C427 C 0.62797 0.55376 0.67142 0.0
C428 C 0.58867 0.53609 0.631 0.0
C429 C 0.59053 0.51759 0.6817 0.0
C430 C 0.6077 0.55398 0.62384 0.0
C431 C 0.62986 0.53508 0.7231 0.0
C432 C 0.61382 0.4965 0.77418 0.0
C433 C 0.59592 0.47776 0.77317 0.0
N434 N 0.57248 0.49992 0.68407 0.0
C435 C 0.57552 0.47957 0.72688 0.0
H436 H 0.56223 0.46468 0.727 0.0
C437 C 0.56823 0.55129 0.5279 0.0
N438 N 0.56899 0.53567 0.58561 0.0
C439 C 0.58664 0.56934 0.5185 0.0
C440 C 0.60625 0.57099 0.56747 0.0
H441 H 0.55293 0.55022 0.49029 0.0
H442 H 0.64592 0.53473 0.75828 0.0
H443 H 0.45218 0.55273 0.56329 0.0
H444 H 0.62959 0.49506 0.81016 0.0
H445 H 0.59778 0.46187 0.80815 0.0
H446 H 0.64262 0.56752 0.66733 0.0
H447 H 0.46286 0.4657 0.79605 0.0
H448 H 0.38457 0.52242 0.48132 0.0
H449 H 0.4163 0.55569 0.4832 0.0
H450 H 0.37288 0.4487 0.61998 0.0
H451 H 0.58559 0.58205 0.47382 0.0
H452 H 0.62051 0.58498 0.5601 0.0
H453 H 0.36877 0.48228 0.53169 0.0
H454 H 0.43118 0.43272 0.80939 0.0
N455 N 0.44169 0.51775 0.60734 0.0
C456 C 0.40035 0.52102 0.51728 0.0
C457 C 0.4182 0.53983 0.51826 0.0
C458 C 0.40284 0.50087 0.56371 0.0
C459 C 0.42384 0.49988 0.6092 0.0
C460 C 0.43868 0.53802 0.56424 0.0
N461 N 0.44595 0.48129 0.70338 0.0
C462 C 0.42612 0.48099 0.65853 0.0
C463 C 0.42956 0.44611 0.76654 0.0
C464 C 0.40972 0.44474 0.71827 0.0
C465 C 0.4474 0.46483 0.75897 0.0
C466 C 0.40757 0.46254 0.66416 0.0
H467 H 0.39588 0.43025 0.72429 0.0
O468 O 0.45941 0.51728 0.79112 0.0
O469 O 0.51687 0.51582 0.70198 0.0
O470 O 0.52554 0.46987 0.66355 0.0
O471 O 0.48241 0.47221 0.65734 0.0
O472 O 0.49708 0.50043 0.78523 0.0
O473 O 0.46303 0.54917 0.721 0.0
O474 O 0.5577 0.49918 0.50419 0.0
O475 O 0.49767 0.50283 0.58918 0.0
O476 O 0.48844 0.54847 0.63104 0.0
O477 O 0.53175 0.54624 0.6265 0.0
O478 O 0.51725 0.51673 0.50415 0.0
O479 O 0.54761 0.46745 0.56894 0.0
C480 C 0.51875 0.50759 0.76489 0.0
C481 C 0.38719 0.46284 0.61699 0.0
C482 C 0.38484 0.48197 0.56682 0.0
C483 C 0.459 0.54145 0.78641 0.0
C484 C 0.472 0.55448 0.84522 0.0
C485 C 0.46446 0.55036 0.91627 0.0
C486 C 0.49344 0.56874 0.83203 0.0
C487 C 0.50715 0.57894 0.88941 0.0
C488 C 0.4782 0.56014 0.97347 0.0
C489 C 0.49941 0.57432 0.96033 0.0
C490 C 0.50315 0.45946 0.66728 0.0
C491 C 0.49544 0.51059 0.52605 0.0
C492 C 0.55558 0.4751 0.5067 0.0
C493 C 0.54488 0.4636 0.44168 0.0
C494 C 0.55775 0.46593 0.37655 0.0
C495 C 0.52127 0.45229 0.44223 0.0
C496 C 0.5106 0.44345 0.3778 0.0
C497 C 0.54721 0.45732 0.31258 0.0
C498 C 0.5238 0.4462 0.31301 0.0
C499 C 0.51063 0.55897 0.62301 0.0
H500 H 0.44822 0.53911 0.92746 0.0
H501 H 0.49963 0.57171 0.77738 0.0
H502 H 0.47232 0.55683 0.0282 0.0
H503 H 0.50926 0.58233 1.00575 0.0
H504 H 0.57583 0.47481 0.37509 0.0
H505 H 0.51108 0.45068 0.49225 0.0
H506 H 0.55723 0.45922 0.26248 0.0
H507 H 0.51632 0.43914 0.26271 0.0
Gd508 Gd 1.00423 0.47733 0.69371 0.0
Gd509 Gd 0.01797 0.53394 0.59001 0.0
C510 C 0.01395 0.61295 0.68676 0.0
C511 C 0.97972 0.63085 0.61967 0.0
C512 C 0.99362 0.5885 0.59386 0.0
C513 C 0.01148 0.59041 0.64726 0.0
C514 C 0.97814 0.609 0.57793 0.0
C515 C 0.99754 0.63279 0.67416 0.0
C516 C 0.03332 0.61529 0.73624 0.0
C517 C 0.05035 0.59596 0.74313 0.0
N518 N 0.02729 0.57091 0.65776 0.0
C519 C 0.04735 0.57407 0.70272 0.0
H520 H 0.06128 0.56002 0.71011 0.0
C521 C 0.97777 0.56593 0.49414 0.0
N522 N 0.99245 0.56722 0.55423 0.0
C523 C 0.96228 0.58581 0.47594 0.0
C524 C 0.96209 0.60727 0.51887 0.0
H525 H 0.97746 0.5492 0.46141 0.0
H526 H 0.99902 0.65004 0.7047 0.0
H527 H 0.95923 0.45662 0.57783 0.0
H528 H 0.03576 0.63222 0.76772 0.0
H529 H 0.06586 0.59786 0.77985 0.0
H530 H 0.96775 0.64663 0.60887 0.0
H531 H 0.04673 0.45555 0.80941 0.0
H532 H 0.98226 0.38734 0.48675 0.0
H533 H 0.95178 0.42168 0.49618 0.0
H534 H 0.05586 0.36746 0.61872 0.0
H535 H 0.95031 0.58444 0.4293 0.0
H536 H 0.95 0.62263 0.50483 0.0
H537 H 0.02154 0.36761 0.53126 0.0
H538 H 0.07637 0.42059 0.81894 0.0
N539 N 0.99416 0.44318 0.6162 0.0
C540 C 0.98567 0.40273 0.5236 0.0
C541 C 0.96842 0.42203 0.52894 0.0
C542 C 0.00669 0.40314 0.56765 0.0
C543 C 0.01028 0.4237 0.61458 0.0
C544 C 0.97283 0.44202 0.57607 0.0
N545 N 0.03118 0.44286 0.71053 0.0
C546 C 0.02959 0.42366 0.66302 0.0
C547 C 0.06353 0.42133 0.77421 0.0
C548 C 0.06341 0.4024 0.72225 0.0
C549 C 0.04681 0.44117 0.76843 0.0
C550 C 0.04585 0.40304 0.66684 0.0
H551 H 0.07621 0.3869 0.72708 0.0
O552 O 0.99925 0.46406 0.80247 0.0
O553 O 0.00458 0.51893 0.69355 0.0
O554 O 0.05184 0.52384 0.65635 0.0
O555 O 0.04602 0.48251 0.6914 0.0
O556 O 0.01712 0.50197 0.78594 0.0
O557 O 0.96722 0.46937 0.73419 0.0
O558 O 0.02993 0.55358 0.49424 0.0
O559 O 0.01615 0.49249 0.58873 0.0
O560 O 0.96854 0.49208 0.64319 0.0
O561 O 0.97595 0.53239 0.60219 0.0
O562 O 0.99952 0.51038 0.50371 0.0
O563 O 0.05266 0.52412 0.53623 0.0
C564 C 0.01234 0.52308 0.75665 0.0
C565 C 0.04334 0.38327 0.61734 0.0
C566 C 0.02377 0.38333 0.56771 0.0
C567 C 0.97526 0.46667 0.79979 0.0
C568 C 0.96475 0.48337 0.85541 0.0
C569 C 0.97155 0.48014 0.92752 0.0
C570 C 0.94993 0.50393 0.83658 0.0
C571 C 0.94153 0.52086 0.88936 0.0
C572 C 0.96382 0.49722 0.97995 0.0
C573 C 0.94889 0.51741 0.96123 0.0
C574 C 0.05991 0.50269 0.68419 0.0
C575 C 0.00569 0.48895 0.52869 0.0
C576 C 0.04765 0.53772 0.48067 0.0
C577 C 0.04658 0.52421 0.41088 0.0
C578 C 0.02585 0.52663 0.36529 0.0
C579 C 0.06506 0.50665 0.39323 0.0
C580 C 0.06263 0.49108 0.33208 0.0
C581 C 0.02315 0.5111 0.30529 0.0
C582 C 0.04121 0.49326 0.28912 0.0
C583 C 0.96079 0.51365 0.61695 0.0
H584 H 0.98324 0.46465 0.94305 0.0
H585 H 0.94494 0.50685 0.78088 0.0
H586 H 0.96919 0.49464 0.03546 0.0
H587 H 0.94237 0.52976 1.00361 0.0
H588 H 0.01128 0.53997 0.37703 0.0
H589 H 0.08132 0.5052 0.42737 0.0
H590 H 0.00684 0.51271 0.27157 0.0
H591 H 0.03837 0.4812 0.24285 0.0
H592 H 0.12376 0.07111 0.1601 0.0
H593 H 0.08852 0.99854 0.52063 0.0
H594 H 0.17298 0.0203 0.26875 0.0
H595 H 0.03885 0.05047 0.42007 0.0
H596 H 0.11853 1.00472 0.42432 0.0
H597 H 0.09153 0.0623 0.24927 0.0
C598 C 0.12783 0.05802 0.20243 0.0
C599 C 0.15135 0.04656 0.20673 0.0
C600 C 0.10118 0.01497 0.42318 0.0
C601 C 0.11423 0.03627 0.3092 0.0
C602 C 0.08419 0.01171 0.47898 0.0
C603 C 0.06168 0.02488 0.48025 0.0
C604 C 0.09565 0.03146 0.36727 0.0
C605 C 0.05625 0.04039 0.42202 0.0
C606 C 0.10932 0.05295 0.25326 0.0
C607 C 0.15518 0.02944 0.26235 0.0
N608 N 0.07322 0.04347 0.36818 0.0
N609 N 0.13695 0.02498 0.31137 0.0
H610 H 0.41651 0.15217 0.27747 0.0
H611 H 0.51168 0.0461 0.40418 0.0
H612 H 0.48818 0.14065 0.17801 0.0
H613 H 0.4448 0.0664 0.51843 0.0
H614 H 0.50132 0.07681 0.31177 0.0
H615 H 0.42472 0.1174 0.35701 0.0
C616 C 0.43393 0.1422 0.27171 0.0
C617 C 0.45162 0.14944 0.22029 0.0
C618 C 0.4888 0.07436 0.35671 0.0
C619 C 0.46136 0.1095 0.31307 0.0
C620 C 0.49458 0.05665 0.40907 0.0
C621 C 0.47912 0.05377 0.46918 0.0
C622 C 0.46731 0.08911 0.36429 0.0
C623 C 0.45736 0.06817 0.47327 0.0
C624 C 0.43867 0.12238 0.31775 0.0
C625 C 0.47406 0.13598 0.21706 0.0
N626 N 0.45217 0.08524 0.42186 0.0
N627 N 0.47829 0.11669 0.26274 0.0
H628 H 0.38419 0.51446 0.18679 0.0
H629 H 0.46488 0.46983 0.5254 0.0
H630 H 0.37307 0.44467 0.29529 0.0
H631 H 0.48015 0.53732 0.41025 0.0
H632 H 0.43098 0.46056 0.4418 0.0
H633 H 0.4185 0.52394 0.26954 0.0
C634 C 0.38882 0.50119 0.22815 0.0
C635 C 0.37571 0.47864 0.23347 0.0
C636 C 0.4416 0.47749 0.43481 0.0
C637 C 0.41522 0.48928 0.32817 0.0
C638 C 0.46086 0.48287 0.48298 0.0
C639 C 0.47473 0.50483 0.47619 0.0
C640 C 0.43619 0.49413 0.37902 0.0
C641 C 0.46948 0.52047 0.41817 0.0
C642 C 0.40855 0.50653 0.27509 0.0
C643 C 0.38282 0.46208 0.28799 0.0
N644 N 0.45046 0.51499 0.37226 0.0
N645 N 0.40201 0.46773 0.33295 0.0
H646 H 0.07583 0.36798 0.29049 0.0
H647 H 0.97885 0.47406 0.41188 0.0
H648 H 1.004 0.37709 0.19068 0.0
H649 H 0.04594 0.45733 0.5283 0.0
H650 H 0.98859 0.44029 0.32633 0.0
H651 H 0.06604 0.40205 0.37352 0.0
C652 C 0.05801 0.37723 0.28552 0.0
C653 C 0.04082 0.36962 0.23258 0.0
C654 C 1.0011 0.44384 0.37085 0.0
C655 C 0.0293 0.40878 0.32926 0.0
C656 C 0.99554 0.46309 0.41967 0.0
C657 C 0.01117 0.46792 0.47857 0.0
C658 C 0.0228 0.4296 0.37997 0.0
C659 C 0.03296 0.45369 0.48497 0.0
C660 C 0.05237 0.39663 0.33357 0.0
C661 C 0.01782 0.3821 0.23055 0.0
N662 N 0.03808 0.43516 0.43652 0.0
N663 N 0.01279 0.40107 0.27787 0.0
H664 H 0.85239 0.95224 0.99628 0.0
H665 H 0.98291 0.01452 0.89775 0.0
H666 H 0.88952 0.00686 0.12991 0.0
H667 H 0.94801 0.9581 0.76569 0.0
H668 H 0.95092 0.00878 0.9885 0.0
H669 H 0.88881 0.9509 0.91751 0.0
C670 C 0.86834 0.96362 0.01003 0.0
C671 C 0.86767 0.97981 0.07001 0.0
C672 C 0.95031 0.99746 0.94 0.0
C673 C 0.90947 0.9787 0.97861 0.0
C674 C 0.9688 1.00063 0.88805 0.0
C675 C 0.96819 0.987 0.82324 0.0
C676 C 0.93083 0.98053 0.92742 0.0
C677 C 0.94905 0.96939 0.81417 0.0
C678 C 0.8891 0.96299 0.96448 0.0
C679 C 0.8889 0.99438 0.08388 0.0
N680 N 0.93104 0.96683 0.86521 0.0
N681 N 0.90875 0.99361 0.03841 0.0
H682 H 0.51517 0.90462 0.14984 0.0
H683 H 0.56105 0.95391 0.76648 0.0
H684 H 0.56438 0.86355 0.00852 0.0
H685 H 0.50462 0.99045 0.89422 0.0
H686 H 0.56746 0.92413 0.86335 0.0
H687 H 0.51588 0.93934 0.06562 0.0
C688 C 0.5263 0.9029 0.10153 0.0
C689 C 0.53958 0.88086 0.08645 0.0
C690 C 0.55382 0.9388 0.87055 0.0
C691 C 0.54056 0.92083 0.98953 0.0
C692 C 0.55011 0.95583 0.81513 0.0
C693 C 0.53189 0.97451 0.8214 0.0
C694 C 0.53927 0.94043 0.93321 0.0
C695 C 0.51875 0.97637 0.88652 0.0
C696 C 0.52674 0.92282 0.05347 0.0
C697 C 0.55402 0.88012 0.02331 0.0
N698 N 0.52249 0.9594 0.93945 0.0
N699 N 0.55394 0.89964 0.97713 0.0
H700 H 0.62211 0.49513 0.11929 0.0
H701 H 0.55197 0.54656 0.76932 0.0
H702 H 0.65194 0.55357 0.98706 0.0
H703 H 0.53102 0.47976 0.88036 0.0
H704 H 0.5857 0.55309 0.85682 0.0
H705 H 0.58576 0.49291 0.04082 0.0
C706 C 0.62104 0.5076 0.074 0.0
C707 C 0.64039 0.52444 0.05986 0.0
C708 C 0.57377 0.53698 0.86199 0.0
C709 C 0.59842 0.52207 0.96945 0.0
C710 C 0.55467 0.53316 0.81174 0.0
C711 C 0.53936 0.51206 0.81618 0.0
C712 C 0.57733 0.51974 0.91758 0.0
C713 C 0.54285 0.49591 0.87406 0.0
C714 C 0.60018 0.50635 0.02918 0.0
C715 C 0.6375 0.54044 1.00085 0.0
N716 N 0.56158 0.49993 0.92198 0.0
N717 N 0.61706 0.53875 0.95768 0.0
H718 H 0.96537 0.66167 0.96737 0.0
H719 H 0.04151 0.53711 0.86773 0.0
H720 H 0.03159 0.63752 0.07758 0.0
H721 H 0.97731 0.56075 0.74794 0.0
H722 H 0.03691 0.5734 0.94696 0.0
H723 H 0.96777 0.62439 0.89005 0.0
C724 C 0.98022 0.6484 0.97614 0.0
C725 C 0.99833 0.65291 0.02939 0.0
C726 C 0.02385 0.57087 0.9032 0.0
C727 C 1.00139 0.61025 0.93985 0.0
C728 C 0.02655 0.55017 0.85777 0.0
C729 C 0.01023 0.54634 0.79995 0.0
C730 C 0.00436 0.58785 0.89189 0.0
C731 C 0.99077 0.56348 0.79057 0.0
C732 C 0.98169 0.62721 0.93139 0.0
C733 C 0.01735 0.63514 0.03697 0.0
N734 N 0.98839 0.58354 0.83595 0.0
N735 N 0.01838 0.61476 0.99283 0.0
H736 H 0.0921 0.17398 0.21766 0.0
H737 H 0.02592 0.1482 0.58663 0.0
H738 H 0.08823 0.22721 0.39292 0.0
H739 H 0.02738 0.09748 0.405 0.0
H740 H 0.05936 0.17217 0.53132 0.0
H741 H 0.08055 0.14107 0.30008 0.0
C742 C 0.08958 0.17869 0.27394 0.0
C743 C 0.09041 0.20356 0.29795 0.0
C744 C 0.05273 0.15547 0.50436 0.0
C745 C 0.07632 0.166 0.39222 0.0
C746 C 0.03354 0.14187 0.53572 0.0
C747 C 0.02335 0.12122 0.49942 0.0
C748 C 0.06159 0.14845 0.43601 0.0
C749 C 0.03448 0.11338 0.43476 0.0
C750 C 0.08274 0.15985 0.321 0.0
C751 C 0.08694 0.2084 0.37162 0.0
N752 N 0.05264 0.12729 0.40447 0.0
N753 N 0.07944 0.18989 0.41585 0.0
H754 H 0.34977 0.09082 0.18963 0.0
H755 H 0.3757 0.02686 0.56146 0.0
H756 H 0.29953 0.09371 0.37046 0.0
H757 H 0.42365 0.02143 0.37593 0.0
H758 H 0.35376 0.06141 0.50493 0.0
H759 H 0.38279 0.07691 0.2693 0.0
C760 C 0.34581 0.08926 0.24647 0.0
C761 C 0.3216 0.09275 0.27302 0.0
C762 C 0.36938 0.05297 0.47715 0.0
C763 C 0.3592 0.07598 0.36414 0.0
C764 C 0.38181 0.03315 0.50923 0.0
C765 C 0.40102 0.02076 0.47239 0.0
C766 C 0.37605 0.06024 0.40742 0.0
C767 C 0.40871 0.03019 0.40591 0.0
C768 C 0.36468 0.08107 0.29194 0.0
C769 C 0.31771 0.0904 0.34728 0.0
N770 N 0.39588 0.04904 0.37493 0.0
N771 N 0.33615 0.0816 0.38997 0.0
H772 H 0.40752 0.35354 0.17166 0.0
H773 H 0.49504 0.40757 0.47144 0.0
H774 H 0.42695 0.31366 0.36428 0.0
H775 H 0.47169 0.44789 0.28369 0.0
H776 H 0.46122 0.37796 0.45125 0.0
H777 H 0.42089 0.39203 0.22891 0.0
C778 C 0.41395 0.35283 0.22674 0.0
C779 C 0.41672 0.33 0.26226 0.0
C780 C 0.46314 0.39357 0.41527 0.0
C781 C 0.43309 0.37429 0.32739 0.0
C782 C 0.4824 0.41058 0.42701 0.0
C783 C 0.48672 0.42966 0.37754 0.0
C784 C 0.44828 0.39564 0.35343 0.0
C785 C 0.4696 0.43281 0.32144 0.0
C786 C 0.42184 0.37496 0.25932 0.0
C787 C 0.42534 0.33062 0.33364 0.0
N788 N 0.45146 0.41567 0.31001 0.0
N789 N 0.43378 0.35229 0.3632 0.0
H790 H 0.17945 0.42255 0.08979 0.0
H791 H 0.09309 0.46302 0.41948 0.0
H792 H 0.20566 0.42557 0.30917 0.0
H793 H 0.07856 0.47908 0.19625 0.0
H794 H 0.12978 0.43895 0.38255 0.0
H795 H 0.13761 0.43143 0.13201 0.0
C796 C 0.17637 0.42437 0.14712 0.0
C797 C 0.19628 0.42356 0.19592 0.0
C798 C 0.11828 0.4475 0.34185 0.0
C799 C 0.14826 0.43456 0.24438 0.0
C800 C 0.09746 0.46141 0.3628 0.0
C801 C 0.0829 0.47358 0.31106 0.0
C802 C 0.12441 0.44556 0.26867 0.0
C803 C 0.08904 0.47006 0.23827 0.0
C804 C 0.15243 0.42975 0.1711 0.0
C805 C 0.19097 0.42652 0.26952 0.0
N806 N 0.10941 0.45659 0.21942 0.0
N807 N 0.16751 0.43225 0.2915 0.0
H808 H 0.9175 0.84061 0.97152 0.0
H809 H 0.9876 0.92623 0.8361 0.0
H810 H 0.96123 0.79058 0.83966 0.0
H811 H 0.0149 0.87169 0.68338 0.0
H812 H 0.95085 0.90141 0.85359 0.0
H813 H 0.92349 0.87314 0.8829 0.0
C814 C 0.92787 0.83628 0.92304 0.0
C815 C 0.94018 0.81331 0.91531 0.0
C816 C 0.96431 0.89489 0.81461 0.0
C817 C 0.94824 0.85074 0.81538 0.0
C818 C 0.98553 0.90932 0.80439 0.0
C819 C 0.00501 0.90039 0.76098 0.0
C820 C 0.96285 0.87109 0.7823 0.0
C821 C 1.00094 0.87859 0.7205 0.0
C822 C 0.9316 0.85502 0.87262 0.0
C823 C 0.95215 0.80828 0.8497 0.0
N824 N 0.98064 0.86433 0.73367 0.0
N825 N 0.95661 0.82711 0.80346 0.0
H826 H 0.72906 0.97674 0.8472 0.0
H827 H 0.58941 0.99998 0.81677 0.0
H828 H 0.67326 0.93817 0.97005 0.0
H829 H 0.64522 0.03502 0.68531 0.0
H830 H 0.61748 0.96522 0.83605 0.0
H831 H 0.69854 0.98425 0.754 0.0
C832 C 0.71063 0.96899 0.85369 0.0
C833 C 0.70342 0.95783 0.91838 0.0
C834 C 0.62345 0.98019 0.80152 0.0
C835 C 0.66802 0.96741 0.81275 0.0
C836 C 0.60732 1.00012 0.79018 0.0
C837 C 0.61548 0.02112 0.75242 0.0
C838 C 0.64805 0.98162 0.77642 0.0
C839 C 0.63871 0.01985 0.71826 0.0
C840 C 0.69304 0.97351 0.80032 0.0
C841 C 0.6793 0.94797 0.92258 0.0
N842 N 0.65449 1.00081 0.73282 0.0
N843 N 0.6622 0.95374 0.87169 0.0
H844 H 0.60017 0.69353 0.03023 0.0
H845 H 0.55207 0.582 0.9589 0.0
H846 H 0.53889 0.71945 0.90129 0.0
H847 H 0.50946 0.61604 0.78979 0.0
H848 H 0.57882 0.6183 0.96318 0.0
H849 H 0.59931 0.65399 0.96433 0.0
C850 C 0.58685 0.69107 0.98707 0.0
C851 C 0.56885 0.70941 0.97352 0.0
C852 C 0.56427 0.61774 0.92316 0.0
C853 C 0.56697 0.66388 0.89999 0.0
C854 C 0.54877 0.59693 0.92131 0.0
C855 C 0.52787 0.59651 0.87626 0.0
C856 C 0.55855 0.63841 0.88016 0.0
C857 C 0.525 0.61584 0.82675 0.0
C858 C 0.58616 0.66834 0.94985 0.0
C859 C 0.55277 0.70569 0.91499 0.0
N860 N 0.5397 0.63634 0.83152 0.0
N861 N 0.55176 0.68309 0.88179 0.0
H862 H 0.79645 0.55392 0.88043 0.0
H863 H 0.93751 0.56887 0.94259 0.0
H864 H 0.82915 0.60426 0.03615 0.0
H865 H 0.90258 0.51711 0.79493 0.0
H866 H 0.89982 0.59433 0.94109 0.0
H867 H 0.83482 0.55463 0.81209 0.0
C868 C 0.81132 0.56592 0.89914 0.0
C869 C 0.80995 0.57808 0.96625 0.0
C870 C 0.90067 0.57776 0.90744 0.0
C871 C 0.85445 0.578 0.88953 0.0
C872 C 0.92213 0.56311 0.90872 0.0
C873 C 0.92276 0.54018 0.87164 0.0
C874 C 0.8797 0.56923 0.86943 0.0
C875 C 0.90279 0.53428 0.82593 0.0
C876 C 0.83346 0.56611 0.86017 0.0
C877 C 0.82985 0.59358 0.98651 0.0
N878 N 0.88183 0.54835 0.82765 0.0
N879 N 0.85164 0.59239 0.94974 0.0
H880 H 0.01669 0.1732 0.98732 0.0
H881 H 0.03468 0.08104 0.65509 0.0
H882 H 0.04079 0.20068 0.7811 0.0
H883 H 0.97645 0.07045 0.81068 0.0
H884 H 0.04241 0.12286 0.70658 0.0
H885 H 0.00669 0.13334 0.9302 0.0
C886 C 0.01963 0.17121 0.93003 0.0
C887 C 0.02969 0.19086 0.88962 0.0
C888 C 0.02798 0.11134 0.72944 0.0
C889 C 0.01894 0.14435 0.82416 0.0
C890 C 0.02375 0.08743 0.70061 0.0
C891 C 0.00543 0.07203 0.7303 0.0
C892 C 0.01403 0.1197 0.789 0.0
C893 C 0.99112 0.08156 0.7874 0.0
C894 C 0.01406 0.14821 0.89756 0.0
C895 C 0.03362 0.18627 0.81555 0.0
N896 N 0.996 0.10455 0.81572 0.0
N897 N 0.02849 0.16353 0.78556 0.0
H898 H 0.34536 0.01961 0.97479 0.0
H899 H 0.43535 0.02952 0.63877 0.0
H900 H 0.31779 0.04052 0.76561 0.0
H901 H 0.44796 0.97612 0.80624 0.0
H902 H 0.39402 0.03829 0.68944 0.0
H903 H 0.38476 0.00763 0.91934 0.0
C904 C 0.34725 0.0214 0.91718 0.0
C905 C 0.32777 0.03118 0.87532 0.0
C906 C 0.40582 0.02463 0.71501 0.0
C907 C 0.37365 0.01811 0.81175 0.0
C908 C 0.42949 0.01984 0.68665 0.0
C909 C 0.44534 1.00265 0.71989 0.0
C910 C 0.39805 0.01233 0.77747 0.0
C911 C 0.43645 0.98989 0.78006 0.0
C912 C 0.36996 0.01468 0.88566 0.0
C913 C 0.33214 0.0336 0.80092 0.0
N914 N 0.41359 0.99527 0.8077 0.0
N915 N 0.35459 0.02736 0.77181 0.0
H916 H 0.5128 0.32113 0.90481 0.0
H917 H 0.46482 0.42756 0.63817 0.0
H918 H 0.44059 0.32129 0.8034 0.0
H919 H 0.5353 0.43117 0.74823 0.0
H920 H 0.45776 0.38637 0.68878 0.0
H921 H 0.52324 0.35924 0.84002 0.0
C922 C 0.49915 0.32902 0.86881 0.0
C923 C 0.47571 0.31775 0.85994 0.0
C924 C 0.47491 0.39601 0.70145 0.0
C925 C 0.48771 0.36151 0.78493 0.0
C926 C 0.47897 0.41958 0.67245 0.0
C927 C 0.50062 0.43302 0.68939 0.0
C928 C 0.49262 0.38561 0.74797 0.0
C929 C 0.5184 0.42154 0.73343 0.0
C930 C 0.5052 0.35078 0.83153 0.0
C931 C 0.45903 0.32886 0.8115 0.0
N932 N 0.51391 0.39863 0.76172 0.0
N933 N 0.46529 0.35006 0.77636 0.0
H934 H 0.21939 0.50168 0.77022 0.0
H935 H 0.07195 0.4895 0.82006 0.0
H936 H 0.18335 0.48724 0.97274 0.0
H937 H 0.10468 0.51658 0.62478 0.0
H938 H 0.1131 0.48779 0.87491 0.0
H939 H 0.17834 0.50692 0.71441 0.0
C940 C 0.20291 0.49979 0.80313 0.0
C941 C 0.20497 0.49406 0.87656 0.0
C942 C 0.11145 0.49402 0.81994 0.0
C943 C 0.15784 0.49987 0.81267 0.0
C944 C 0.08794 0.49461 0.78824 0.0
C945 C 0.08501 0.50237 0.71707 0.0
C946 C 0.13243 0.50126 0.78028 0.0
C947 C 0.10623 0.51017 0.67958 0.0
C948 C 0.17947 0.50284 0.7712 0.0
C949 C 0.18286 0.49201 0.91637 0.0
N950 N 0.12911 0.50919 0.71138 0.0
N951 N 0.16036 0.4947 0.8839 0.0
H952 H 0.04164 0.84668 0.32459 0.0
H953 H 0.99179 0.93946 0.6349 0.0
H954 H 0.97596 0.83041 0.44882 0.0
H955 H 0.05711 0.95188 0.5064 0.0
H956 H 0.98477 0.89985 0.56935 0.0
H957 H 0.0469 0.88513 0.39254 0.0
C958 C 0.02844 0.85091 0.36694 0.0
C959 C 0.0085 0.83476 0.38124 0.0
C960 C 1.00053 0.91133 0.55519 0.0
C961 C 0.01421 0.87984 0.45935 0.0
C962 C 0.00438 0.93404 0.59206 0.0
C963 C 0.02461 0.94933 0.57429 0.0
C964 C 0.01721 0.9038 0.50072 0.0
C965 C 0.04098 0.94092 0.52066 0.0
C966 C 0.03135 0.87319 0.4055 0.0
C967 C 0.99162 0.84213 0.43551 0.0
N968 N 0.03684 0.91893 0.48568 0.0
N969 N 0.99488 0.86404 0.47261 0.0
H970 H 0.67678 0.04276 0.35116 0.0
H971 H 0.57562 0.99451 0.63455 0.0
H972 H 0.68427 0.97193 0.45676 0.0
H973 H 0.56477 0.05663 0.49321 0.0
H974 H 0.61664 0.98703 0.57931 0.0
H975 H 0.63737 0.04939 0.41229 0.0
C976 C 0.67036 0.02868 0.38807 0.0
C977 C 0.68425 0.00683 0.39914 0.0
C978 C 0.6052 1.00218 0.56007 0.0
C979 C 0.63828 0.01423 0.46913 0.0
C980 C 0.58173 0.00633 0.5912 0.0
C981 C 0.56646 0.02573 0.56667 0.0
C982 C 0.61358 0.01781 0.50484 0.0
C983 C 0.57573 0.04117 0.51266 0.0
C984 C 0.6476 0.0324 0.42256 0.0
C985 C 0.6743 0.98904 0.44629 0.0
N986 N 0.59853 0.03681 0.48343 0.0
N987 N 0.65199 0.99314 0.47968 0.0
H988 H 0.47698 0.70753 0.46914 0.0
H989 H 0.55168 0.58975 0.61888 0.0
H990 H 0.55464 0.69486 0.42257 0.0
H991 H 0.47225 0.59067 0.58757 0.0
H992 H 0.55395 0.63202 0.57072 0.0
H993 H 0.4761 0.66875 0.53655 0.0
C994 C 0.49393 0.69674 0.47319 0.0
C995 C 0.51583 0.7045 0.43855 0.0
C996 C 0.53604 0.62292 0.57441 0.0
C997 C 0.51495 0.65998 0.51757 0.0
C998 C 0.53473 0.59865 0.60124 0.0
C999 C 0.51188 0.58596 0.60413 0.0
C1000 C 0.51423 0.635 0.55212 0.0
C1001 C 0.49039 0.59922 0.58464 0.0
C1002 C 0.49338 0.67458 0.51206 0.0
C1003 C 0.53732 0.68988 0.44822 0.0
N1004 N 0.49211 0.62287 0.55914 0.0
N1005 N 0.53629 0.6683 0.4863 0.0
H1006 H 0.82725 0.55805 0.39283 0.0
H1007 H 0.92392 0.47793 0.6215 0.0
H1008 H 0.81183 0.48391 0.46864 0.0
H1009 H 0.93535 0.55527 0.57075 0.0
H1010 H 0.8819 0.48068 0.57282 0.0
H1011 H 0.86553 0.55841 0.46365 0.0
C1012 C 0.83158 0.54199 0.4253 0.0
C1013 C 0.81612 0.52084 0.42394 0.0
C1014 C 0.8936 0.49708 0.57215 0.0
C1015 C 0.8606 0.52096 0.50447 0.0
C1016 C 0.91777 0.49552 0.59984 0.0
C1017 C 0.93391 0.5161 0.59724 0.0
C1018 C 0.88526 0.51944 0.54161 0.0
C1019 C 0.9242 0.53857 0.57078 0.0
C1020 C 0.85365 0.54215 0.46541 0.0
C1021 C 0.82324 0.50049 0.46654 0.0
N1022 N 0.90074 0.53955 0.54319 0.0
N1023 N 0.84495 0.50098 0.50432 0.0
loop_
_geom_bond_atom_site_label_1
_geom_bond_atom_site_label_2
_geom_bond_distance
_geom_bond_site_symmetry_2
_ccdc_geom_bond_type
P0 O11 1.490 . S
P0 C14 1.812 . S
P0 C20 1.803 . S
P0 C26 1.819 . S
H1 C15 0.941 . S
H2 C16 0.939 . S
H3 C18 0.940 . S
H4 C19 0.940 . S
H5 C21 0.939 . S
H6 C22 0.942 . S
H7 C24 0.940 . S
H8 C25 0.939 . S
H9 C27 0.941 . S
H10 C31 0.939 . S
O11 P0 1.490 . S
H12 C28 0.939 . S
H13 C30 0.940 . S
C14 P0 1.812 . S
C14 C15 1.389 . S
C14 C19 1.391 . S
C15 H1 0.941 . S
C15 C14 1.389 . S
C15 C16 1.397 . S
C16 H2 0.939 . S
C16 C15 1.397 . S
C16 C17 1.378 . S
C17 C16 1.378 . S
C17 C18 1.378 . S
C18 H3 0.940 . S
C18 C17 1.378 . S
C18 C19 1.396 . S
C19 H4 0.940 . S
C19 C14 1.391 . S
C19 C18 1.396 . S
C20 P0 1.803 . S
C20 C21 1.378 . S
C20 C25 1.400 . S
C21 H5 0.939 . S
C21 C20 1.378 . S
C21 C22 1.361 . S
C22 H6 0.942 . S
C22 C21 1.361 . S
C22 C23 1.369 . S
C23 C22 1.369 . S
C23 C24 1.404 . S
C24 H7 0.940 . S
C24 C23 1.404 . S
C24 C25 1.389 . S
C25 H8 0.939 . S
C25 C20 1.400 . S
C25 C24 1.389 . S
C26 P0 1.819 . S
C26 C27 1.391 . S
C26 C31 1.391 . S
C27 H9 0.941 . S
C27 C26 1.391 . S
C27 C28 1.396 . S
C28 H12 0.939 . S
C28 C27 1.396 . S
C28 C29 1.397 . S
C29 C28 1.397 . S
C29 C30 1.385 . S
C30 H13 0.940 . S
C30 C29 1.385 . S
C30 C31 1.388 . S
C31 H10 0.939 . S
C31 C26 1.391 . S
C31 C30 1.388 . S
P32 O43 1.454 1_655 S
P32 C46 1.812 . S
P32 C52 1.803 . S
P32 C58 1.819 . S
H33 C47 0.941 . S
H34 C48 0.939 . S
H35 C50 0.940 . S
H36 C51 0.940 . S
H37 C53 0.939 . S
H38 C54 0.942 . S
H39 C56 0.940 . S
H40 C57 0.939 . S
H41 C59 0.941 . S
H42 C63 0.939 . S
O43 P32 1.454 1_455 S
H44 C60 0.939 . S
H45 C62 0.940 . S
C46 P32 1.812 . S
C46 C47 1.389 . S
C46 C51 1.391 . S
C47 H33 0.941 . S
C47 C46 1.389 . S
C47 C48 1.397 . S
C48 H34 0.939 . S
C48 C47 1.397 . S
C48 C49 1.378 . S
C49 C48 1.378 . S
C49 C50 1.378 . S
C50 H35 0.940 . S
C50 C49 1.378 . S
C50 C51 1.396 . S
C51 H36 0.940 . S
C51 C46 1.391 . S
C51 C50 1.396 . S
C52 P32 1.803 . S
C52 C53 1.378 . S
C52 C57 1.400 . S
C53 H37 0.939 . S
C53 C52 1.378 . S
C53 C54 1.361 . S
C54 H38 0.942 . S
C54 C53 1.361 . S
C54 C55 1.369 . S
C55 C54 1.369 . S
C55 C56 1.404 . S
C56 H39 0.940 . S
C56 C55 1.404 . S
C56 C57 1.389 . S
C57 H40 0.939 . S
C57 C52 1.400 . S
C57 C56 1.389 . S
C58 P32 1.819 . S
C58 C59 1.391 . S
C58 C63 1.391 . S
C59 H41 0.941 . S
C59 C58 1.391 . S
C59 C60 1.396 . S
C60 H44 0.939 . S
C60 C59 1.396 . S
C60 C61 1.397 . S
C61 C60 1.397 . S
C61 C62 1.385 . S
C62 H45 0.940 . S
C62 C61 1.385 . S
C62 C63 1.388 . S
C63 H42 0.939 . S
C63 C58 1.391 . S
C63 C62 1.388 . S
P64 O75 1.490 1_565 S
P64 C78 1.812 . S
P64 C84 1.803 . S
P64 C90 1.819 . S
H65 C79 0.941 . S
H66 C80 0.939 . S
H67 C82 0.940 . S
H68 C83 0.940 . S
H69 C85 0.939 . S
H70 C86 0.942 . S
H71 C88 0.940 . S
H72 C89 0.939 . S
H73 C91 0.941 . S
H74 C95 0.939 . S
O75 P64 1.490 1_545 S
H76 C92 0.939 . S
H77 C94 0.940 . S
C78 P64 1.812 . S
C78 C79 1.389 . S
C78 C83 1.391 . S
C79 H65 0.941 . S
C79 C78 1.389 . S
C79 C80 1.397 . S
C80 H66 0.939 . S
C80 C79 1.397 . S
C80 C81 1.378 . S
C81 C80 1.378 . S
C81 C82 1.378 . S
C82 H67 0.940 . S
C82 C81 1.378 . S
C82 C83 1.396 . S
C83 H68 0.940 . S
C83 C78 1.391 . S
C83 C82 1.396 . S
C84 P64 1.803 . S
C84 C85 1.378 . S
C84 C89 1.400 . S
C85 H69 0.939 . S
C85 C84 1.378 . S
C85 C86 1.361 . S
C86 H70 0.942 . S
C86 C85 1.361 . S
C86 C87 1.369 . S
C87 C86 1.369 . S
C87 C88 1.404 . S
C88 H71 0.940 . S
C88 C87 1.404 . S
C88 C89 1.389 . S
C89 H72 0.939 . S
C89 C84 1.400 . S
C89 C88 1.389 . S
C90 P64 1.819 . S
C90 C91 1.391 . S
C90 C95 1.391 . S
C91 H73 0.941 . S
C91 C90 1.391 . S
C91 C92 1.396 . S
C92 H76 0.939 . S
C92 C91 1.396 . S
C92 C93 1.397 . S
C93 C92 1.397 . S
C93 C94 1.385 . S
C94 H77 0.940 . S
C94 C93 1.385 . S
C94 C95 1.388 . S
C95 H74 0.939 . S
C95 C90 1.391 . S
C95 C94 1.388 . S
P96 O107 1.490 . S
P96 C110 1.812 . S
P96 C116 1.803 . S
P96 C122 1.819 . S
H97 C111 0.941 . S
H98 C112 0.939 . S
H99 C114 0.940 . S
H100 C115 0.940 . S
H101 C117 0.939 . S
H102 C118 0.942 . S
H103 C120 0.940 . S
H104 C121 0.939 . S
H105 C123 0.941 . S
H106 C127 0.939 . S
O107 P96 1.490 . S
H108 C124 0.939 . S
H109 C126 0.940 . S
C110 P96 1.812 . S
C110 C111 1.389 . S
C110 C115 1.391 . S
C111 H97 0.941 . S
C111 C110 1.389 . S
C111 C112 1.397 . S
C112 H98 0.939 . S
C112 C111 1.397 . S
C112 C113 1.378 . S
C113 C112 1.378 . S
C113 C114 1.378 . S
C114 H99 0.940 . S
C114 C113 1.378 . S
C114 C115 1.396 . S
C115 H100 0.940 . S
C115 C110 1.391 . S
C115 C114 1.396 . S
C116 P96 1.803 . S
C116 C117 1.378 . S
C116 C121 1.400 . S
C117 H101 0.939 . S
C117 C116 1.378 . S
C117 C118 1.361 . S
C118 H102 0.942 . S
C118 C117 1.361 . S
C118 C119 1.369 . S
C119 C118 1.369 . S
C119 C120 1.404 . S
C120 H103 0.940 . S
C120 C119 1.404 . S
C120 C121 1.389 . S
C121 H104 0.939 . S
C121 C116 1.400 . S
C121 C120 1.389 . S
C122 P96 1.819 . S
C122 C123 1.391 . S
C122 C127 1.391 . S
C123 H105 0.941 . S
C123 C122 1.391 . S
C123 C124 1.396 . S
C124 H108 0.939 . S
C124 C123 1.396 . S
C124 C125 1.397 . S
C125 C124 1.397 . S
C125 C126 1.385 . S
C126 H109 0.940 . S
C126 C125 1.385 . S
C126 C127 1.388 . S
C127 H106 0.939 . S
C127 C122 1.391 . S
C127 C126 1.388 . S
P128 O139 1.490 . S
P128 C142 1.812 1_554 S
P128 C148 1.803 . S
P128 C154 1.819 . S
H129 C143 0.941 . S
H130 C144 0.939 . S
H131 C146 0.940 . S
H132 C147 0.940 . S
H133 C149 0.939 . S
H134 C150 0.942 . S
H135 C152 0.940 . S
H136 C153 0.939 1_556 S
H137 C155 0.941 . S
H138 C159 0.939 . S
O139 P128 1.490 . S
H140 C156 0.939 . S
H141 C158 0.940 . S
C142 P128 1.812 1_556 S
C142 C143 1.389 . S
C142 C147 1.391 . S
C143 H129 0.941 . S
C143 C142 1.389 . S
C143 C144 1.397 . S
C144 H130 0.939 . S
C144 C143 1.397 . S
C144 C145 1.378 . S
C145 C144 1.378 . S
C145 C146 1.378 . S
C146 H131 0.940 . S
C146 C145 1.378 . S
C146 C147 1.396 . S
C147 H132 0.940 . S
C147 C142 1.391 . S
C147 C146 1.396 . S
C148 P128 1.803 . S
C148 C149 1.378 . S
C148 C153 1.400 . S
C149 H133 0.939 . S
C149 C148 1.378 . S
C149 C150 1.361 . S
C150 H134 0.942 . S
C150 C149 1.361 . S
C150 C151 1.369 . S
C151 C150 1.369 . S
C151 C152 1.404 . S
C152 H135 0.940 . S
C152 C151 1.404 . S
C152 C153 1.389 . S
C153 H136 0.939 1_554 S
C153 C148 1.400 . S
C153 C152 1.389 . S
C154 P128 1.819 . S
C154 C155 1.391 . S
C154 C159 1.391 . S
C155 H137 0.941 . S
C155 C154 1.391 . S
C155 C156 1.396 . S
C156 H140 0.939 . S
C156 C155 1.396 . S
C156 C157 1.397 . S
C157 C156 1.397 . S
C157 C158 1.385 . S
C158 H141 0.940 . S
C158 C157 1.385 . S
C158 C159 1.388 . S
C159 H138 0.939 . S
C159 C154 1.391 . S
C159 C158 1.388 . S
P160 O171 1.490 . S
P160 C174 1.812 1_554 S
P160 C180 1.803 . S
P160 C186 1.819 . S
H161 C175 0.941 . S
H162 C176 0.939 . S
H163 C178 0.940 . S
H164 C179 0.940 . S
H165 C181 0.939 . S
H166 C182 0.942 . S
H167 C184 0.940 . S
H168 C185 0.939 1_556 S
H169 C187 0.941 . S
H170 C191 0.939 . S
O171 P160 1.490 . S
H172 C188 0.939 . S
H173 C190 0.940 . S
C174 P160 1.812 1_556 S
C174 C175 1.389 . S
C174 C179 1.391 . S
C175 H161 0.941 . S
C175 C174 1.389 . S
C175 C176 1.397 . S
C176 H162 0.939 . S
C176 C175 1.397 . S
C176 C177 1.378 . S
C177 C176 1.378 . S
C177 C178 1.378 . S
C178 H163 0.940 . S
C178 C177 1.378 . S
C178 C179 1.396 . S
C179 H164 0.940 . S
C179 C174 1.391 . S
C179 C178 1.396 . S
C180 P160 1.803 . S
C180 C181 1.378 . S
C180 C185 1.400 . S
C181 H165 0.939 . S
C181 C180 1.378 . S
C181 C182 1.361 . S
C182 H166 0.942 . S
C182 C181 1.361 . S
C182 C183 1.369 . S
C183 C182 1.369 . S
C183 C184 1.404 . S
C184 H167 0.940 . S
C184 C183 1.404 . S
C184 C185 1.389 . S
C185 H168 0.939 1_554 S
C185 C180 1.400 . S
C185 C184 1.389 . S
C186 P160 1.819 . S
C186 C187 1.391 . S
C186 C191 1.391 . S
C187 H169 0.941 . S
C187 C186 1.391 . S
C187 C188 1.396 . S
C188 H172 0.939 . S
C188 C187 1.396 . S
C188 C189 1.397 . S
C189 C188 1.397 . S
C189 C190 1.385 . S
C190 H173 0.940 . S
C190 C189 1.385 . S
C190 C191 1.388 . S
C191 H170 0.939 . S
C191 C186 1.391 . S
C191 C190 1.388 . S
P192 O203 1.490 . S
P192 C206 1.812 1_554 S
P192 C212 1.803 . S
P192 C218 1.819 . S
H193 C207 0.941 . S
H194 C208 0.939 . S
H195 C210 0.940 . S
H196 C211 0.940 . S
H197 C213 0.939 . S
H198 C214 0.942 . S
H199 C216 0.940 . S
H200 C217 0.939 1_556 S
H201 C219 0.941 . S
H202 C223 0.939 . S
O203 P192 1.490 . S
H204 C220 0.939 . S
H205 C222 0.940 . S
C206 P192 1.812 1_556 S
C206 C207 1.389 . S
C206 C211 1.391 . S
C207 H193 0.941 . S
C207 C206 1.389 . S
C207 C208 1.397 . S
C208 H194 0.939 . S
C208 C207 1.397 . S
C208 C209 1.378 . S
C209 C208 1.378 . S
C209 C210 1.378 . S
C210 H195 0.940 . S
C210 C209 1.378 . S
C210 C211 1.396 . S
C211 H196 0.940 . S
C211 C206 1.391 . S
C211 C210 1.396 . S
C212 P192 1.803 . S
C212 C213 1.378 . S
C212 C217 1.400 . S
C213 H197 0.939 . S
C213 C212 1.378 . S
C213 C214 1.361 . S
C214 H198 0.942 . S
C214 C213 1.361 . S
C214 C215 1.369 . S
C215 C214 1.369 . S
C215 C216 1.404 . S
C216 H199 0.940 . S
C216 C215 1.404 . S
C216 C217 1.389 . S
C217 H200 0.939 1_554 S
C217 C212 1.400 . S
C217 C216 1.389 . S
C218 P192 1.819 . S
C218 C219 1.391 . S
C218 C223 1.391 . S
C219 H201 0.941 . S
C219 C218 1.391 . S
C219 C220 1.396 . S
C220 H204 0.939 . S
C220 C219 1.396 . S
C220 C221 1.397 . S
C221 C220 1.397 . S
C221 C222 1.385 . S
C222 H205 0.940 . S
C222 C221 1.385 . S
C222 C223 1.388 . S
C223 H202 0.939 . S
C223 C218 1.391 . S
C223 C222 1.388 . S
P224 O235 1.490 . S
P224 C238 1.812 1_554 S
P224 C244 1.803 . S
P224 C250 1.819 . S
H225 C239 0.941 . S
H226 C240 0.939 . S
H227 C242 0.940 . S
H228 C243 0.940 . S
H229 C245 0.939 . S
H230 C246 0.942 . S
H231 C248 0.940 . S
H232 C249 0.939 1_556 S
H233 C251 0.941 . S
H234 C255 0.939 . S
O235 P224 1.490 . S
H236 C252 0.939 . S
H237 C254 0.940 . S
C238 P224 1.812 1_556 S
C238 C239 1.389 . S
C238 C243 1.391 . S
C239 H225 0.941 . S
C239 C238 1.389 . S
C239 C240 1.397 . S
C240 H226 0.939 . S
C240 C239 1.397 . S
C240 C241 1.378 . S
C241 C240 1.378 . S
C241 C242 1.378 . S
C242 H227 0.940 . S
C242 C241 1.378 . S
C242 C243 1.396 . S
C243 H228 0.940 . S
C243 C238 1.391 . S
C243 C242 1.396 . S
C244 P224 1.803 . S
C244 C245 1.378 . S
C244 C249 1.400 . S
C245 H229 0.939 . S
C245 C244 1.378 . S
C245 C246 1.361 . S
C246 H230 0.942 . S
C246 C245 1.361 . S
C246 C247 1.369 . S
C247 C246 1.369 . S
C247 C248 1.404 . S
C248 H231 0.940 . S
C248 C247 1.404 . S
C248 C249 1.389 . S
C249 H232 0.939 1_554 S
C249 C244 1.400 . S
C249 C248 1.389 . S
C250 P224 1.819 . S
C250 C251 1.391 . S
C250 C255 1.391 . S
C251 H233 0.941 . S
C251 C250 1.391 . S
C251 C252 1.396 . S
C252 H236 0.939 . S
C252 C251 1.396 . S
C252 C253 1.397 . S
C253 C252 1.397 . S
C253 C254 1.385 . S
C254 H237 0.940 . S
C254 C253 1.385 . S
C254 C255 1.388 . S
C255 H234 0.939 . S
C255 C250 1.391 . S
C255 C254 1.388 . S
Gd256 N287 2.636 1_545 S
Gd256 N293 2.601 . S
Gd256 O300 2.545 . S
Gd256 O301 2.606 1_655 S
Gd256 O303 2.429 . S
Gd256 O304 2.545 1_655 S
Gd256 O305 2.412 . S
Gd256 O307 2.362 1_545 S
Gd256 O308 2.324 1_655 S
Gd256 C315 2.828 . S
Gd257 N266 2.661 1_565 S
Gd257 N270 2.601 . S
Gd257 O301 2.362 1_565 S
Gd257 O302 2.324 1_455 S
Gd257 O306 2.545 . S
Gd257 O307 2.606 1_455 S
Gd257 O309 2.429 . S
Gd257 O310 2.545 . S
Gd257 O311 2.412 . S
Gd257 C324 2.828 . S
C258 C261 1.417 . S
C258 C263 1.431 . S
C258 C264 1.412 . S
C259 C262 1.437 . S
C259 C263 1.317 . S
C259 H278 0.929 . S
C260 C261 1.426 . S
C260 C262 1.413 . S
C260 N270 1.359 1_545 S
C261 C258 1.417 . S
C261 C260 1.426 . S
C261 N266 1.350 . S
C262 C259 1.437 . S
C262 C260 1.413 . S
C262 C272 1.399 . S
C263 C258 1.431 . S
C263 C259 1.317 . S
C263 H274 0.930 . S
C264 C258 1.412 . S
C264 C265 1.355 . S
C264 H276 0.930 . S
C265 C264 1.355 . S
C265 C267 1.402 . S
C265 H277 0.930 1_455 S
N266 Gd257 2.661 1_545 S
N266 C261 1.350 . S
N266 C267 1.307 . S
C267 C265 1.402 . S
C267 N266 1.307 . S
C267 H268 0.930 1_455 S
H268 C267 0.930 1_655 S
C269 N270 1.334 . S
C269 C271 1.394 . S
C269 H273 0.930 . S
N270 Gd257 2.601 . S
N270 C260 1.359 1_565 S
N270 C269 1.334 . S
C271 C269 1.394 . S
C271 C272 1.349 1_565 S
C271 H283 0.930 . S
C272 C262 1.399 . S
C272 C271 1.349 1_545 S
C272 H284 0.931 . S
H273 C269 0.930 . S
H274 C263 0.930 . S
H275 C292 0.969 . S
H276 C264 0.930 . S
H277 C265 0.930 1_655 S
H278 C259 0.929 . S
H279 C297 0.930 . S
H280 C288 0.930 . S
H281 C289 0.928 1_455 S
H282 C313 0.929 . S
H283 C271 0.930 . S
H284 C272 0.931 . S
H285 C314 0.930 . S
H286 C295 0.930 . S
N287 Gd256 2.636 1_565 S
N287 C291 1.359 . S
N287 C292 1.292 1_655 S
C288 H280 0.930 . S
C288 C289 1.356 . S
C288 C290 1.412 . S
C289 H281 0.928 1_655 S
C289 C288 1.356 . S
C289 C292 1.401 1_655 S
C290 C288 1.412 . S
C290 C291 1.417 . S
C290 C314 1.431 . S
C291 N287 1.359 . S
C291 C290 1.417 . S
C291 C294 1.426 1_565 S
C292 H275 0.969 . S
C292 N287 1.292 1_455 S
C292 C289 1.401 1_455 S
N293 Gd256 2.601 . S
N293 C294 1.359 . S
N293 C297 1.334 . S
C294 C291 1.426 1_545 S
C294 N293 1.359 . S
C294 C298 1.419 . S
C295 H286 0.930 . S
C295 C296 1.359 . S
C295 C297 1.394 . S
C296 C295 1.359 . S
C296 C298 1.408 . S
C296 H299 0.929 . S
C297 H279 0.930 . S
C297 N293 1.334 . S
C297 C295 1.394 . S
C298 C294 1.419 . S
C298 C296 1.408 . S
C298 C313 1.416 1_545 S
H299 C296 0.929 . S
O300 Gd256 2.545 . S
O300 C315 1.258 . S
O301 Gd256 2.606 1_455 S
O301 Gd257 2.362 1_545 S
O301 C312 1.284 . S
O302 Gd257 2.324 1_655 S
O302 C322 1.254 1_565 S
O303 Gd256 2.429 . S
O303 C322 1.268 . S
O304 Gd256 2.545 1_455 S
O304 C312 1.250 . S
O305 Gd256 2.412 . S
O305 C315 1.252 . S
O306 Gd257 2.545 . S
O306 C324 1.258 . S
O307 Gd256 2.362 1_565 S
O307 Gd257 2.606 1_655 S
O307 C323 1.284 . S
O308 Gd256 2.324 1_455 S
O308 C331 1.254 . S
O309 Gd257 2.429 . S
O309 C331 1.268 1_565 S
O310 Gd257 2.545 . S
O310 C323 1.250 1_455 S
O311 Gd257 2.412 . S
O311 C324 1.252 . S
C312 O301 1.284 . S
C312 O304 1.250 . S
C313 H282 0.929 . S
C313 C298 1.416 1_565 S
C313 C314 1.317 . S
C314 H285 0.930 . S
C314 C290 1.431 . S
C314 C313 1.317 . S
C315 Gd256 2.828 . S
C315 O300 1.258 . S
C315 O305 1.252 . S
C315 C316 1.497 . S
C316 C315 1.497 . S
C316 C317 1.395 . S
C316 C318 1.380 . S
C317 C316 1.395 . S
C317 C320 1.398 . S
C317 H332 0.930 . S
C318 C316 1.380 . S
C318 C319 1.391 . S
C318 H333 0.930 1_655 S
C319 C318 1.391 . S
C319 C321 1.387 . S
C320 C317 1.398 . S
C320 C321 1.380 . S
C320 H334 0.930 . S
C321 C319 1.387 . S
C321 C320 1.380 . S
C321 H335 0.930 . S
C322 O302 1.254 1_545 S
C322 O303 1.268 . S
C323 O307 1.284 . S
C323 O310 1.250 1_655 S
C324 Gd257 2.828 . S
C324 O306 1.258 . S
C324 O311 1.252 . S
C324 C325 1.497 . S
C325 C324 1.497 . S
C325 C326 1.395 . S
C325 C327 1.380 . S
C326 C325 1.395 . S
C326 C329 1.398 . S
C326 H336 0.930 . S
C327 C325 1.380 . S
C327 C328 1.391 . S
C327 H337 0.930 1_455 S
C328 C327 1.391 . S
C328 C330 1.387 . S
C329 C326 1.398 . S
C329 C330 1.380 . S
C329 H338 0.930 . S
C330 C328 1.387 . S
C330 C329 1.380 . S
C330 H339 0.930 . S
C331 O308 1.254 . S
C331 O309 1.268 1_545 S
H332 C317 0.930 . S
H333 C318 0.930 1_455 S
H334 C320 0.930 . S
H335 C321 0.930 . S
H336 C326 0.930 . S
H337 C327 0.930 1_655 S
H338 C329 0.930 . S
H339 C330 0.930 . S
Gd340 N371 2.661 . S
Gd340 N377 2.601 . S
Gd340 O384 2.545 . S
Gd340 O385 2.606 1_565 S
Gd340 O387 2.429 . S
Gd340 O388 2.545 1_565 S
Gd340 O389 2.412 . S
Gd340 O391 2.362 . S
Gd340 O392 2.324 1_565 S
Gd340 C399 2.828 . S
Gd341 N350 2.661 . S
Gd341 N354 2.601 . S
Gd341 O385 2.362 . S
Gd341 O386 2.324 1_545 S
Gd341 O390 2.545 . S
Gd341 O391 2.606 1_545 S
Gd341 O393 2.429 . S
Gd341 O394 2.545 . S
Gd341 O395 2.412 . S
Gd341 C408 2.828 . S
C342 C345 1.417 . S
C342 C347 1.431 . S
C342 C348 1.412 . S
C343 C346 1.437 . S
C343 C347 1.317 . S
C343 H362 0.929 . S
C344 C345 1.426 . S
C344 C346 1.413 . S
C344 N354 1.359 . S
C345 C342 1.417 . S
C345 C344 1.426 . S
C345 N350 1.350 . S
C346 C343 1.437 . S
C346 C344 1.413 . S
C346 C356 1.391 . S
C347 C342 1.431 . S
C347 C343 1.317 . S
C347 H358 0.930 . S
C348 C342 1.412 . S
C348 C349 1.355 . S
C348 H360 0.930 . S
C349 C348 1.355 . S
C349 C351 1.402 . S
C349 H361 0.930 1_545 S
N350 Gd341 2.661 . S
N350 C345 1.350 . S
N350 C351 1.307 . S
C351 C349 1.402 . S
C351 N350 1.307 . S
C351 H352 0.930 1_545 S
H352 C351 0.930 1_565 S
C353 N354 1.334 . S
C353 C355 1.394 . S
C353 H357 0.930 . S
N354 Gd341 2.601 . S
N354 C344 1.359 . S
N354 C353 1.334 . S
C355 C353 1.394 . S
C355 C356 1.359 . S
C355 H367 0.930 . S
C356 C346 1.391 . S
C356 C355 1.359 . S
C356 H368 0.929 . S
H357 C353 0.930 . S
H358 C347 0.930 . S
H359 C376 0.930 . S
H360 C348 0.930 . S
H361 C349 0.930 1_565 S
H362 C343 0.929 . S
H363 C381 0.930 . S
H364 C372 0.930 . S
H365 C373 0.930 . S
H366 C397 0.929 . S
H367 C355 0.930 . S
H368 C356 0.929 . S
H369 C398 0.930 . S
H370 C379 0.930 . S
N371 Gd340 2.661 . S
N371 C375 1.350 . S
N371 C376 1.307 1_565 S
C372 H364 0.930 . S
C372 C373 1.355 1_565 S
C372 C374 1.412 . S
C373 H365 0.930 . S
C373 C372 1.355 1_545 S
C373 C376 1.402 . S
C374 C372 1.412 . S
C374 C375 1.417 . S
C374 C398 1.431 . S
C375 N371 1.350 . S
C375 C374 1.417 . S
C375 C378 1.426 . S
C376 H359 0.930 . S
C376 N371 1.307 1_545 S
C376 C373 1.402 . S
N377 Gd340 2.601 . S
N377 C378 1.359 . S
N377 C381 1.334 . S
C378 C375 1.426 . S
C378 N377 1.359 . S
C378 C382 1.413 . S
C379 H370 0.930 . S
C379 C380 1.359 . S
C379 C381 1.394 . S
C380 C379 1.359 . S
C380 C382 1.391 . S
C380 H383 0.929 . S
C381 H363 0.930 . S
C381 N377 1.334 . S
C381 C379 1.394 . S
C382 C378 1.413 . S
C382 C380 1.391 . S
C382 C397 1.437 . S
H383 C380 0.929 . S
O384 Gd340 2.545 . S
O384 C399 1.258 . S
O385 Gd340 2.606 1_545 S
O385 Gd341 2.362 . S
O385 C396 1.284 . S
O386 Gd341 2.324 1_565 S
O386 C406 1.254 . S
O387 Gd340 2.429 . S
O387 C406 1.268 . S
O388 Gd340 2.545 1_545 S
O388 C396 1.250 . S
O389 Gd340 2.412 . S
O389 C399 1.252 . S
O390 Gd341 2.545 . S
O390 C408 1.258 . S
O391 Gd340 2.362 . S
O391 Gd341 2.606 1_565 S
O391 C407 1.284 . S
O392 Gd340 2.324 1_545 S
O392 C415 1.254 . S
O393 Gd341 2.429 . S
O393 C415 1.268 . S
O394 Gd341 2.545 . S
O394 C407 1.250 1_545 S
O395 Gd341 2.412 . S
O395 C408 1.252 . S
C396 O385 1.284 . S
C396 O388 1.250 . S
C397 H366 0.929 . S
C397 C382 1.437 . S
C397 C398 1.317 . S
C398 H369 0.930 . S
C398 C374 1.431 . S
C398 C397 1.317 . S
C399 Gd340 2.828 . S
C399 O384 1.258 . S
C399 O389 1.252 . S
C399 C400 1.497 . S
C400 C399 1.497 . S
C400 C401 1.395 . S
C400 C402 1.380 . S
C401 C400 1.395 . S
C401 C404 1.398 . S
C401 H416 0.930 . S
C402 C400 1.380 . S
C402 C403 1.391 . S
C402 H417 0.930 1_565 S
C403 C402 1.391 . S
C403 C405 1.387 . S
C404 C401 1.398 . S
C404 C405 1.380 . S
C404 H418 0.930 . S
C405 C403 1.387 . S
C405 C404 1.380 . S
C405 H419 0.930 . S
C406 O386 1.254 . S
C406 O387 1.268 . S
C407 O391 1.284 . S
C407 O394 1.250 1_565 S
C408 Gd341 2.828 . S
C408 O390 1.258 . S
C408 O395 1.252 . S
C408 C409 1.497 . S
C409 C408 1.497 . S
C409 C410 1.395 . S
C409 C411 1.380 . S
C410 C409 1.395 . S
C410 C413 1.398 . S
C410 H420 0.930 . S
C411 C409 1.380 . S
C411 C412 1.391 . S
C411 H421 0.930 . S
C412 C411 1.391 . S
C412 C414 1.387 . S
C413 C410 1.398 . S
C413 C414 1.380 . S
C413 H422 0.930 . S
C414 C412 1.387 . S
C414 C413 1.380 . S
C414 H423 0.930 . S
C415 O392 1.254 . S
C415 O393 1.268 . S
H416 C401 0.930 . S
H417 C402 0.930 1_545 S
H418 C404 0.930 . S
H419 C405 0.930 . S
H420 C410 0.930 . S
H421 C411 0.930 . S
H422 C413 0.930 . S
H423 C414 0.930 . S
Gd424 N455 2.661 . S
Gd424 N461 2.601 . S
Gd424 O468 2.545 . S
Gd424 O469 2.606 . S
Gd424 O471 2.429 . S
Gd424 O472 2.545 . S
Gd424 O473 2.412 . S
Gd424 O475 2.362 . S
Gd424 O476 2.324 . S
Gd424 C483 2.828 . S
Gd425 N434 2.661 . S
Gd425 N438 2.601 . S
Gd425 O469 2.362 . S
Gd425 O470 2.324 . S
Gd425 O474 2.545 . S
Gd425 O475 2.606 . S
Gd425 O477 2.429 . S
Gd425 O478 2.545 . S
Gd425 O479 2.412 . S
Gd425 C492 2.828 . S
C426 C429 1.417 . S
C426 C431 1.431 . S
C426 C432 1.412 . S
C427 C430 1.437 . S
C427 C431 1.317 . S
C427 H446 0.929 . S
C428 C429 1.426 . S
C428 C430 1.413 . S
C428 N438 1.359 . S
C429 C426 1.417 . S
C429 C428 1.426 . S
C429 N434 1.350 . S
C430 C427 1.437 . S
C430 C428 1.413 . S
C430 C440 1.391 . S
C431 C426 1.431 . S
C431 C427 1.317 . S
C431 H442 0.930 . S
C432 C426 1.412 . S
C432 C433 1.355 . S
C432 H444 0.930 . S
C433 C432 1.355 . S
C433 C435 1.402 . S
C433 H445 0.930 . S
N434 Gd425 2.661 . S
N434 C429 1.350 . S
N434 C435 1.307 . S
C435 C433 1.402 . S
C435 N434 1.307 . S
C435 H436 0.930 . S
H436 C435 0.930 . S
C437 N438 1.334 . S
C437 C439 1.394 . S
C437 H441 0.930 . S
N438 Gd425 2.601 . S
N438 C428 1.359 . S
N438 C437 1.334 . S
C439 C437 1.394 . S
C439 C440 1.359 . S
C439 H451 0.930 . S
C440 C430 1.391 . S
C440 C439 1.359 . S
C440 H452 0.929 . S
H441 C437 0.930 . S
H442 C431 0.930 . S
H443 C460 0.930 . S
H444 C432 0.930 . S
H445 C433 0.930 . S
H446 C427 0.929 . S
H447 C465 0.930 . S
H448 C456 0.930 . S
H449 C457 0.930 . S
H450 C481 0.929 . S
H451 C439 0.930 . S
H452 C440 0.929 . S
H453 C482 0.930 . S
H454 C463 0.930 . S
N455 Gd424 2.661 . S
N455 C459 1.350 . S
N455 C460 1.307 . S
C456 H448 0.930 . S
C456 C457 1.355 . S
C456 C458 1.412 . S
C457 H449 0.930 . S
C457 C456 1.355 . S
C457 C460 1.402 . S
C458 C456 1.412 . S
C458 C459 1.417 . S
C458 C482 1.431 . S
C459 N455 1.350 . S
C459 C458 1.417 . S
C459 C462 1.426 . S
C460 H443 0.930 . S
C460 N455 1.307 . S
C460 C457 1.402 . S
N461 Gd424 2.601 . S
N461 C462 1.359 . S
N461 C465 1.334 . S
C462 C459 1.426 . S
C462 N461 1.359 . S
C462 C466 1.413 . S
C463 H454 0.930 . S
C463 C464 1.359 . S
C463 C465 1.394 . S
C464 C463 1.359 . S
C464 C466 1.391 . S
C464 H467 0.929 . S
C465 H447 0.930 . S
C465 N461 1.334 . S
C465 C463 1.394 . S
C466 C462 1.413 . S
C466 C464 1.391 . S
C466 C481 1.437 . S
H467 C464 0.929 . S
O468 Gd424 2.545 . S
O468 C483 1.258 . S
O469 Gd424 2.606 . S
O469 Gd425 2.362 . S
O469 C480 1.284 . S
O470 Gd425 2.324 . S
O470 C490 1.254 . S
O471 Gd424 2.429 . S
O471 C490 1.268 . S
O472 Gd424 2.545 . S
O472 C480 1.250 . S
O473 Gd424 2.412 . S
O473 C483 1.252 . S
O474 Gd425 2.545 . S
O474 C492 1.258 . S
O475 Gd424 2.362 . S
O475 Gd425 2.606 . S
O475 C491 1.284 . S
O476 Gd424 2.324 . S
O476 C499 1.254 . S
O477 Gd425 2.429 . S
O477 C499 1.268 . S
O478 Gd425 2.545 . S
O478 C491 1.250 . S
O479 Gd425 2.412 . S
O479 C492 1.252 . S
C480 O469 1.284 . S
C480 O472 1.250 . S
C481 H450 0.929 . S
C481 C466 1.437 . S
C481 C482 1.317 . S
C482 H453 0.930 . S
C482 C458 1.431 . S
C482 C481 1.317 . S
C483 Gd424 2.828 . S
C483 O468 1.258 . S
C483 O473 1.252 . S
C483 C484 1.497 . S
C484 C483 1.497 . S
C484 C485 1.395 . S
C484 C486 1.380 . S
C485 C484 1.395 . S
C485 C488 1.398 . S
C485 H500 0.930 . S
C486 C484 1.380 . S
C486 C487 1.391 . S
C486 H501 0.930 . S
C487 C486 1.391 . S
C487 C489 1.387 . S
C488 C485 1.398 . S
C488 C489 1.380 . S
C488 H502 0.930 1_556 S
C489 C487 1.387 . S
C489 C488 1.380 . S
C489 H503 0.930 1_556 S
C490 O470 1.254 . S
C490 O471 1.268 . S
C491 O475 1.284 . S
C491 O478 1.250 . S
C492 Gd425 2.828 . S
C492 O474 1.258 . S
C492 O479 1.252 . S
C492 C493 1.497 . S
C493 C492 1.497 . S
C493 C494 1.395 . S
C493 C495 1.380 . S
C494 C493 1.395 . S
C494 C497 1.398 . S
C494 H504 0.930 . S
C495 C493 1.380 . S
C495 C496 1.391 . S
C495 H505 0.930 . S
C496 C495 1.391 . S
C496 C498 1.387 . S
C497 C494 1.398 . S
C497 C498 1.380 . S
C497 H506 0.930 . S
C498 C496 1.387 . S
C498 C497 1.380 . S
C498 H507 0.930 . S
C499 O476 1.254 . S
C499 O477 1.268 . S
H500 C485 0.930 . S
H501 C486 0.930 . S
H502 C488 0.930 1_554 S
H503 C489 0.930 1_554 S
H504 C494 0.930 . S
H505 C495 0.930 . S
H506 C497 0.930 . S
H507 C498 0.930 . S
Gd508 N539 2.661 . S
Gd508 N545 2.601 . S
Gd508 O552 2.545 . S
Gd508 O553 2.604 . S
Gd508 O555 2.429 1_655 S
Gd508 O556 2.545 . S
Gd508 O557 2.412 . S
Gd508 O559 2.362 1_655 S
Gd508 O560 2.324 . S
Gd508 C567 2.828 . S
Gd509 N518 2.661 . S
Gd509 N522 2.601 . S
Gd509 O553 2.365 1_455 S
Gd509 O554 2.324 . S
Gd509 O558 2.545 . S
Gd509 O559 2.606 . S
Gd509 O561 2.429 1_455 S
Gd509 O562 2.545 . S
Gd509 O563 2.412 . S
Gd509 C576 2.828 . S
C510 C513 1.417 . S
C510 C515 1.431 . S
C510 C516 1.412 . S
C511 C514 1.437 . S
C511 C515 1.317 . S
C511 H530 0.929 . S
C512 C513 1.426 . S
C512 C514 1.413 . S
C512 N522 1.359 . S
C513 C510 1.417 . S
C513 C512 1.426 . S
C513 N518 1.350 . S
C514 C511 1.437 . S
C514 C512 1.413 . S
C514 C524 1.391 . S
C515 C510 1.431 . S
C515 C511 1.317 . S
C515 H526 0.930 . S
C516 C510 1.412 . S
C516 C517 1.355 . S
C516 H528 0.930 . S
C517 C516 1.355 . S
C517 C519 1.402 . S
C517 H529 0.930 . S
N518 Gd509 2.661 . S
N518 C513 1.350 . S
N518 C519 1.307 . S
C519 C517 1.402 . S
C519 N518 1.307 . S
C519 H520 0.930 . S
H520 C519 0.930 . S
C521 N522 1.334 . S
C521 C523 1.392 1_455 S
C521 H525 0.930 1_455 S
N522 Gd509 2.601 . S
N522 C512 1.359 . S
N522 C521 1.334 . S
C523 C521 1.392 1_655 S
C523 C524 1.344 1_655 S
C523 H535 0.948 . S
C524 C514 1.391 . S
C524 C523 1.344 1_455 S
C524 H536 0.929 . S
H525 C521 0.930 1_655 S
H526 C515 0.930 . S
H527 C544 0.930 . S
H528 C516 0.930 . S
H529 C517 0.930 . S
H530 C511 0.929 . S
H531 C549 0.930 . S
H532 C540 0.930 . S
H533 C541 0.930 . S
H534 C565 0.929 . S
H535 C523 0.948 . S
H536 C524 0.929 . S
H537 C566 0.930 . S
H538 C547 0.930 . S
N539 Gd508 2.661 . S
N539 C543 1.350 . S
N539 C544 1.307 . S
C540 H532 0.930 . S
C540 C541 1.355 . S
C540 C542 1.412 . S
C541 H533 0.930 . S
C541 C540 1.355 . S
C541 C544 1.402 . S
C542 C540 1.412 . S
C542 C543 1.417 . S
C542 C566 1.431 . S
C543 N539 1.350 . S
C543 C542 1.417 . S
C543 C546 1.426 . S
C544 H527 0.930 . S
C544 N539 1.307 . S
C544 C541 1.402 . S
N545 Gd508 2.601 . S
N545 C546 1.359 . S
N545 C549 1.334 1_655 S
C546 C543 1.426 . S
C546 N545 1.359 . S
C546 C550 1.413 . S
C547 H538 0.930 . S
C547 C548 1.359 1_455 S
C547 C549 1.394 . S
C548 C547 1.359 1_655 S
C548 C550 1.391 . S
C548 H551 0.930 . S
C549 H531 0.930 . S
C549 N545 1.334 1_455 S
C549 C547 1.394 . S
C550 C546 1.413 . S
C550 C548 1.391 . S
C550 C565 1.437 . S
H551 C548 0.930 . S
O552 Gd508 2.545 . S
O552 C567 1.258 . S
O553 Gd508 2.604 . S
O553 Gd509 2.365 1_655 S
O553 C564 1.283 . S
O554 Gd509 2.324 . S
O554 C574 1.254 . S
O555 Gd508 2.429 1_455 S
O555 C574 1.268 . S
O556 Gd508 2.545 . S
O556 C564 1.250 . S
O557 Gd508 2.412 . S
O557 C567 1.252 . S
O558 Gd509 2.545 . S
O558 C576 1.258 . S
O559 Gd508 2.362 1_455 S
O559 Gd509 2.606 . S
O559 C575 1.284 . S
O560 Gd508 2.324 . S
O560 C583 1.254 . S
O561 Gd509 2.429 1_655 S
O561 C583 1.268 . S
O562 Gd509 2.545 . S
O562 C575 1.250 . S
O563 Gd509 2.412 . S
O563 C576 1.252 . S
C564 O553 1.283 . S
C564 O556 1.250 . S
C565 H534 0.929 . S
C565 C550 1.437 . S
C565 C566 1.317 . S
C566 H537 0.930 . S
C566 C542 1.431 . S
C566 C565 1.317 . S
C567 Gd508 2.828 . S
C567 O552 1.258 . S
C567 O557 1.252 . S
C567 C568 1.497 . S
C568 C567 1.497 . S
C568 C569 1.395 . S
C568 C570 1.380 . S
C569 C568 1.395 . S
C569 C572 1.398 . S
C569 H584 0.930 . S
C570 C568 1.380 . S
C570 C571 1.391 . S
C570 H585 0.930 . S
C571 C570 1.391 . S
C571 C573 1.387 . S
C572 C569 1.398 . S
C572 C573 1.380 . S
C572 H586 0.930 1_556 S
C573 C571 1.387 . S
C573 C572 1.380 . S
C573 H587 0.930 1_556 S
C574 O554 1.254 . S
C574 O555 1.268 . S
C575 O559 1.284 . S
C575 O562 1.250 . S
C576 Gd509 2.828 . S
C576 O558 1.258 . S
C576 O563 1.252 . S
C576 C577 1.497 . S
C577 C576 1.497 . S
C577 C578 1.395 . S
C577 C579 1.380 . S
C578 C577 1.395 . S
C578 C581 1.398 . S
C578 H588 0.930 . S
C579 C577 1.380 . S
C579 C580 1.391 . S
C579 H589 0.930 . S
C580 C579 1.391 . S
C580 C582 1.387 . S
C581 C578 1.398 . S
C581 C582 1.380 . S
C581 H590 0.930 . S
C582 C580 1.387 . S
C582 C581 1.380 . S
C582 H591 0.930 . S
C583 O560 1.254 . S
C583 O561 1.268 . S
H584 C569 0.930 . S
H585 C570 0.930 . S
H586 C572 0.930 1_554 S
H587 C573 0.930 1_554 S
H588 C578 0.930 . S
H589 C579 0.930 . S
H590 C581 0.930 . S
H591 C582 0.930 . S
H592 C598 0.930 . S
H593 C602 0.930 1_565 S
H594 C607 0.929 . S
H595 C605 0.929 . S
H596 C600 0.929 . S
H597 C606 0.929 . S
C598 H592 0.930 . S
C598 C599 1.367 . S
C598 C606 1.378 . S
C599 C598 1.367 . S
C599 C607 1.433 . S
C600 H596 0.929 . S
C600 C602 1.378 . S
C600 C604 1.350 . S
C601 C604 1.463 . S
C601 C606 1.350 . S
C601 N609 1.427 . S
C602 H593 0.930 1_545 S
C602 C600 1.378 . S
C602 C603 1.367 . S
C603 C602 1.367 . S
C603 C605 1.433 . S
C604 C600 1.350 . S
C604 C601 1.463 . S
C604 N608 1.427 . S
C605 H595 0.929 . S
C605 C603 1.433 . S
C605 N608 1.384 . S
C606 H597 0.929 . S
C606 C598 1.378 . S
C606 C601 1.350 . S
C607 H594 0.929 . S
C607 C599 1.433 . S
C607 N609 1.384 . S
N608 C604 1.427 . S
N608 C605 1.384 . S
N609 C601 1.427 . S
N609 C607 1.384 . S
H610 C616 0.930 . S
H611 C620 0.930 . S
H612 C625 0.929 . S
H613 C623 0.929 . S
H614 C618 0.929 . S
H615 C624 0.929 . S
C616 H610 0.930 . S
C616 C617 1.367 . S
C616 C624 1.378 . S
C617 C616 1.367 . S
C617 C625 1.433 . S
C618 H614 0.929 . S
C618 C620 1.378 . S
C618 C622 1.350 . S
C619 C622 1.463 . S
C619 C624 1.350 . S
C619 N627 1.427 . S
C620 H611 0.930 . S
C620 C618 1.378 . S
C620 C621 1.367 . S
C621 C620 1.367 . S
C621 C623 1.433 . S
C622 C618 1.350 . S
C622 C619 1.463 . S
C622 N626 1.427 . S
C623 H613 0.929 . S
C623 C621 1.433 . S
C623 N626 1.384 . S
C624 H615 0.929 . S
C624 C616 1.378 . S
C624 C619 1.350 . S
C625 H612 0.929 . S
C625 C617 1.433 . S
C625 N627 1.384 . S
N626 C622 1.427 . S
N626 C623 1.384 . S
N627 C619 1.427 . S
N627 C625 1.384 . S
H628 C634 0.930 . S
H629 C638 0.930 . S
H630 C643 0.929 . S
H631 C641 0.929 . S
H632 C636 0.929 . S
H633 C642 0.929 . S
C634 H628 0.930 . S
C634 C635 1.367 . S
C634 C642 1.378 . S
C635 C634 1.367 . S
C635 C643 1.433 . S
C636 H632 0.929 . S
C636 C638 1.378 . S
C636 C640 1.350 . S
C637 C640 1.463 . S
C637 C642 1.350 . S
C637 N645 1.427 . S
C638 H629 0.930 . S
C638 C636 1.378 . S
C638 C639 1.367 . S
C639 C638 1.367 . S
C639 C641 1.433 . S
C640 C636 1.350 . S
C640 C637 1.463 . S
C640 N644 1.427 . S
C641 H631 0.929 . S
C641 C639 1.433 . S
C641 N644 1.384 . S
C642 H633 0.929 . S
C642 C634 1.378 . S
C642 C637 1.350 . S
C643 H630 0.929 . S
C643 C635 1.433 . S
C643 N645 1.384 . S
N644 C640 1.427 . S
N644 C641 1.384 . S
N645 C637 1.427 . S
N645 C643 1.384 . S
H646 C652 0.930 . S
H647 C656 0.930 . S
H648 C661 0.929 . S
H649 C659 0.929 . S
H650 C654 0.929 . S
H651 C660 0.929 . S
C652 H646 0.930 . S
C652 C653 1.367 . S
C652 C660 1.378 . S
C653 C652 1.367 . S
C653 C661 1.433 . S
C654 H650 0.929 . S
C654 C656 1.378 . S
C654 C658 1.350 . S
C655 C658 1.463 . S
C655 C660 1.350 . S
C655 N663 1.427 . S
C656 H647 0.930 . S
C656 C654 1.378 . S
C656 C657 1.367 . S
C657 C656 1.367 . S
C657 C659 1.433 . S
C658 C654 1.350 . S
C658 C655 1.463 . S
C658 N662 1.427 . S
C659 H649 0.929 . S
C659 C657 1.433 . S
C659 N662 1.384 . S
C660 H651 0.929 . S
C660 C652 1.378 . S
C660 C655 1.350 . S
C661 H648 0.929 . S
C661 C653 1.433 . S
C661 N663 1.384 . S
N662 C658 1.427 . S
N662 C659 1.384 . S
N663 C655 1.427 . S
N663 C661 1.384 . S
H664 C670 0.930 . S
H665 C674 0.930 . S
H666 C679 0.929 . S
H667 C677 0.929 . S
H668 C672 0.929 . S
H669 C678 0.929 . S
C670 H664 0.930 . S
C670 C671 1.367 . S
C670 C678 1.378 1_554 S
C671 C670 1.367 . S
C671 C679 1.433 . S
C672 H668 0.929 . S
C672 C674 1.378 . S
C672 C676 1.350 . S
C673 C676 1.463 . S
C673 C678 1.350 . S
C673 N681 1.427 1_556 S
C674 H665 0.930 . S
C674 C672 1.378 . S
C674 C675 1.367 . S
C675 C674 1.367 . S
C675 C677 1.433 . S
C676 C672 1.350 . S
C676 C673 1.463 . S
C676 N680 1.427 . S
C677 H667 0.929 . S
C677 C675 1.433 . S
C677 N680 1.384 . S
C678 H669 0.929 . S
C678 C670 1.378 1_556 S
C678 C673 1.350 . S
C679 H666 0.929 . S
C679 C671 1.433 . S
C679 N681 1.384 . S
N680 C676 1.427 . S
N680 C677 1.384 . S
N681 C673 1.427 1_554 S
N681 C679 1.384 . S
H682 C688 0.930 . S
H683 C692 0.930 . S
H684 C697 0.929 . S
H685 C695 0.929 . S
H686 C690 0.929 . S
H687 C696 0.929 . S
C688 H682 0.930 . S
C688 C689 1.367 . S
C688 C696 1.378 . S
C689 C688 1.367 . S
C689 C697 1.433 . S
C690 H686 0.929 . S
C690 C692 1.378 . S
C690 C694 1.350 . S
C691 C694 1.463 . S
C691 C696 1.350 1_556 S
C691 N699 1.427 . S
C692 H683 0.930 . S
C692 C690 1.378 . S
C692 C693 1.367 . S
C693 C692 1.367 . S
C693 C695 1.433 . S
C694 C690 1.350 . S
C694 C691 1.463 . S
C694 N698 1.427 . S
C695 H685 0.929 . S
C695 C693 1.433 . S
C695 N698 1.384 . S
C696 H687 0.929 . S
C696 C688 1.378 . S
C696 C691 1.350 1_554 S
C697 H684 0.929 . S
C697 C689 1.433 . S
C697 N699 1.384 1_554 S
N698 C694 1.427 . S
N698 C695 1.384 . S
N699 C691 1.427 . S
N699 C697 1.384 1_556 S
H700 C706 0.930 . S
H701 C710 0.930 . S
H702 C715 0.929 . S
H703 C713 0.929 . S
H704 C708 0.929 . S
H705 C714 0.929 . S
C706 H700 0.930 . S
C706 C707 1.367 . S
C706 C714 1.378 . S
C707 C706 1.367 . S
C707 C715 1.433 . S
C708 H704 0.929 . S
C708 C710 1.378 . S
C708 C712 1.350 . S
C709 C712 1.463 . S
C709 C714 1.350 1_556 S
C709 N717 1.427 . S
C710 H701 0.930 . S
C710 C708 1.378 . S
C710 C711 1.367 . S
C711 C710 1.367 . S
C711 C713 1.433 . S
C712 C708 1.350 . S
C712 C709 1.463 . S
C712 N716 1.427 . S
C713 H703 0.929 . S
C713 C711 1.433 . S
C713 N716 1.384 . S
C714 H705 0.929 . S
C714 C706 1.378 . S
C714 C709 1.350 1_554 S
C715 H702 0.929 . S
C715 C707 1.433 . S
C715 N717 1.384 1_554 S
N716 C712 1.427 . S
N716 C713 1.384 . S
N717 C709 1.427 . S
N717 C715 1.384 1_556 S
H718 C724 0.930 . S
H719 C728 0.930 . S
H720 C733 0.929 . S
H721 C731 0.938 . S
H722 C726 0.929 . S
H723 C732 0.929 . S
C724 H718 0.930 . S
C724 C725 1.367 . S
C724 C732 1.378 1_554 S
C725 C724 1.367 . S
C725 C733 1.433 . S
C726 H722 0.929 . S
C726 C728 1.378 . S
C726 C730 1.350 . S
C727 C730 1.463 . S
C727 C732 1.350 . S
C727 N735 1.427 1_556 S
C728 H719 0.930 . S
C728 C726 1.378 . S
C728 C729 1.367 . S
C729 C728 1.367 . S
C729 C731 1.433 . S
C730 C726 1.350 . S
C730 C727 1.463 . S
C730 N734 1.427 . S
C731 H721 0.938 . S
C731 C729 1.433 . S
C731 N734 1.384 . S
C732 H723 0.929 . S
C732 C724 1.378 1_556 S
C732 C727 1.350 . S
C733 H720 0.929 . S
C733 C725 1.433 . S
C733 N735 1.384 . S
N734 C730 1.427 . S
N734 C731 1.384 . S
N735 C727 1.427 1_554 S
N735 C733 1.384 . S
H736 C742 0.930 . S
H737 C746 0.930 . S
H738 C751 0.929 . S
H739 C749 0.929 . S
H740 C744 0.929 . S
H741 C750 0.929 . S
C742 H736 0.930 . S
C742 C743 1.367 . S
C742 C750 1.378 . S
C743 C742 1.367 . S
C743 C751 1.433 . S
C744 H740 0.929 . S
C744 C746 1.378 1_455 S
C744 C748 1.350 . S
C745 C748 1.463 . S
C745 C750 1.350 . S
C745 N753 1.427 . S
C746 H737 0.930 . S
C746 C744 1.378 1_655 S
C746 C747 1.368 1_655 S
C747 C746 1.368 1_455 S
C747 C749 1.430 . S
C748 C744 1.350 . S
C748 C745 1.463 . S
C748 N752 1.427 . S
C749 H739 0.929 . S
C749 C747 1.430 . S
C749 N752 1.384 . S
C750 H741 0.929 . S
C750 C742 1.378 . S
C750 C745 1.350 . S
C751 H738 0.929 . S
C751 C743 1.433 . S
C751 N753 1.384 . S
N752 C748 1.427 . S
N752 C749 1.384 . S
N753 C745 1.427 . S
N753 C751 1.384 . S
H754 C760 0.930 . S
H755 C764 0.930 . S
H756 C769 0.929 . S
H757 C767 0.929 . S
H758 C762 0.929 . S
H759 C768 0.929 . S
C760 H754 0.930 . S
C760 C761 1.367 . S
C760 C768 1.378 . S
C761 C760 1.367 . S
C761 C769 1.433 . S
C762 H758 0.929 . S
C762 C764 1.378 . S
C762 C766 1.350 . S
C763 C766 1.463 . S
C763 C768 1.350 . S
C763 N771 1.427 . S
C764 H755 0.930 . S
C764 C762 1.378 . S
C764 C765 1.377 . S
C765 C764 1.377 . S
C765 C767 1.429 1_545 S
C766 C762 1.350 . S
C766 C763 1.463 . S
C766 N770 1.427 . S
C767 H757 0.929 . S
C767 C765 1.429 1_565 S
C767 N770 1.384 1_565 S
C768 H759 0.929 . S
C768 C760 1.378 . S
C768 C763 1.350 . S
C769 H756 0.929 . S
C769 C761 1.433 . S
C769 N771 1.384 . S
N770 C766 1.427 . S
N770 C767 1.384 1_545 S
N771 C763 1.427 . S
N771 C769 1.384 . S
H772 C778 0.930 . S
H773 C782 0.930 . S
H774 C787 0.929 . S
H775 C785 0.929 . S
H776 C780 0.929 . S
H777 C786 0.929 . S
C778 H772 0.930 . S
C778 C779 1.367 . S
C778 C786 1.378 . S
C779 C778 1.367 . S
C779 C787 1.433 . S
C780 H776 0.929 . S
C780 C782 1.378 . S
C780 C784 1.350 . S
C781 C784 1.463 . S
C781 C786 1.350 . S
C781 N789 1.427 . S
C782 H773 0.930 . S
C782 C780 1.378 . S
C782 C783 1.367 . S
C783 C782 1.367 . S
C783 C785 1.433 . S
C784 C780 1.350 . S
C784 C781 1.463 . S
C784 N788 1.427 . S
C785 H775 0.929 . S
C785 C783 1.433 . S
C785 N788 1.384 . S
C786 H777 0.929 . S
C786 C778 1.378 . S
C786 C781 1.350 . S
C787 H774 0.929 . S
C787 C779 1.433 . S
C787 N789 1.384 . S
N788 C784 1.427 . S
N788 C785 1.384 . S
N789 C781 1.427 . S
N789 C787 1.384 . S
H790 C796 0.930 . S
H791 C800 0.930 . S
H792 C805 0.929 . S
H793 C803 0.929 . S
H794 C798 0.929 . S
H795 C804 0.929 . S
C796 H790 0.930 . S
C796 C797 1.367 . S
C796 C804 1.378 . S
C797 C796 1.367 . S
C797 C805 1.433 . S
C798 H794 0.929 . S
C798 C800 1.378 . S
C798 C802 1.350 . S
C799 C802 1.463 . S
C799 C804 1.350 . S
C799 N807 1.427 . S
C800 H791 0.930 . S
C800 C798 1.378 . S
C800 C801 1.367 . S
C801 C800 1.367 . S
C801 C803 1.433 . S
C802 C798 1.350 . S
C802 C799 1.463 . S
C802 N806 1.427 . S
C803 H793 0.929 . S
C803 C801 1.433 . S
C803 N806 1.384 . S
C804 H795 0.929 . S
C804 C796 1.378 . S
C804 C799 1.350 . S
C805 H792 0.929 . S
C805 C797 1.433 . S
C805 N807 1.384 . S
N806 C802 1.427 . S
N806 C803 1.384 . S
N807 C799 1.427 . S
N807 C805 1.384 . S
H808 C814 0.930 . S
H809 C818 0.930 . S
H810 C823 0.929 . S
H811 C821 0.929 . S
H812 C816 0.929 1_554 S
H813 C822 0.929 . S
C814 H808 0.930 . S
C814 C815 1.367 1_556 S
C814 C822 1.378 . S
C815 C814 1.367 1_554 S
C815 C823 1.433 . S
C816 H812 0.929 1_556 S
C816 C818 1.378 . S
C816 C820 1.350 1_455 S
C817 C820 1.463 . S
C817 C822 1.350 . S
C817 N825 1.427 1_556 S
C818 H809 0.930 . S
C818 C816 1.378 . S
C818 C819 1.367 . S
C819 C818 1.367 . S
C819 C821 1.433 1_455 S
C820 C816 1.350 1_655 S
C820 C817 1.463 . S
C820 N824 1.427 . S
C821 H811 0.929 . S
C821 C819 1.433 1_655 S
C821 N824 1.384 . S
C822 H813 0.929 . S
C822 C814 1.378 . S
C822 C817 1.350 . S
C823 H810 0.929 . S
C823 C815 1.433 . S
C823 N825 1.384 . S
N824 C820 1.427 . S
N824 C821 1.384 . S
N825 C817 1.427 1_554 S
N825 C823 1.384 . S
H826 C832 0.930 . S
H827 C836 0.930 . S
H828 C841 0.929 . S
H829 C839 0.929 . S
H830 C834 0.929 1_554 S
H831 C840 0.929 . S
C832 H826 0.930 . S
C832 C833 1.367 1_556 S
C832 C840 1.378 . S
C833 C832 1.367 1_554 S
C833 C841 1.433 . S
C834 H830 0.929 1_556 S
C834 C836 1.378 . S
C834 C838 1.350 . S
C835 C838 1.463 . S
C835 C840 1.350 . S
C835 N843 1.427 1_556 S
C836 H827 0.930 . S
C836 C834 1.378 . S
C836 C837 1.367 1_565 S
C837 C836 1.367 1_545 S
C837 C839 1.433 . S
C838 C834 1.350 . S
C838 C835 1.463 . S
C838 N842 1.427 . S
C839 H829 0.929 . S
C839 C837 1.433 . S
C839 N842 1.384 1_545 S
C840 H831 0.929 . S
C840 C832 1.378 . S
C840 C835 1.350 . S
C841 H828 0.929 . S
C841 C833 1.433 . S
C841 N843 1.384 . S
N842 C838 1.427 . S
N842 C839 1.384 1_565 S
N843 C835 1.427 1_554 S
N843 C841 1.384 . S
H844 C850 0.930 . S
H845 C854 0.930 . S
H846 C859 0.929 . S
H847 C857 0.929 . S
H848 C852 0.929 . S
H849 C858 0.929 . S
C850 H844 0.930 . S
C850 C851 1.367 . S
C850 C858 1.378 . S
C851 C850 1.367 . S
C851 C859 1.433 1_554 S
C852 H848 0.929 . S
C852 C854 1.378 . S
C852 C856 1.350 . S
C853 C856 1.463 . S
C853 C858 1.350 1_556 S
C853 N861 1.427 . S
C854 H845 0.930 . S
C854 C852 1.378 . S
C854 C855 1.367 . S
C855 C854 1.367 . S
C855 C857 1.433 . S
C856 C852 1.350 . S
C856 C853 1.463 . S
C856 N860 1.427 . S
C857 H847 0.929 . S
C857 C855 1.433 . S
C857 N860 1.384 . S
C858 H849 0.929 . S
C858 C850 1.378 . S
C858 C853 1.350 1_554 S
C859 H846 0.929 . S
C859 C851 1.433 1_556 S
C859 N861 1.384 . S
N860 C856 1.427 . S
N860 C857 1.384 . S
N861 C853 1.427 . S
N861 C859 1.384 . S
H862 C868 0.930 . S
H863 C872 0.923 1_554 S
H864 C877 0.929 . S
H865 C875 0.929 . S
H866 C870 0.929 . S
H867 C876 0.929 . S
C868 H862 0.930 . S
C868 C869 1.367 1_556 S
C868 C876 1.378 . S
C869 C868 1.367 1_554 S
C869 C877 1.433 . S
C870 H866 0.929 . S
C870 C872 1.378 1_554 S
C870 C874 1.350 1_554 S
C871 C874 1.463 . S
C871 C876 1.350 . S
C871 N879 1.427 1_556 S
C872 H863 0.923 1_556 S
C872 C870 1.378 1_556 S
C872 C873 1.367 . S
C873 C872 1.367 . S
C873 C875 1.433 . S
C874 C870 1.350 1_556 S
C874 C871 1.463 . S
C874 N878 1.427 . S
C875 H865 0.929 . S
C875 C873 1.433 . S
C875 N878 1.384 . S
C876 H867 0.929 . S
C876 C868 1.378 . S
C876 C871 1.350 . S
C877 H864 0.929 . S
C877 C869 1.433 . S
C877 N879 1.384 . S
N878 C874 1.427 . S
N878 C875 1.384 . S
N879 C871 1.427 1_554 S
N879 C877 1.384 . S
H880 C886 0.930 . S
H881 C890 0.930 . S
H882 C895 0.929 . S
H883 C893 0.929 . S
H884 C888 0.929 . S
H885 C894 0.929 . S
C886 H880 0.930 . S
C886 C887 1.367 . S
C886 C894 1.378 . S
C887 C886 1.367 . S
C887 C895 1.433 . S
C888 H884 0.929 . S
C888 C890 1.378 . S
C888 C892 1.350 . S
C889 C892 1.463 . S
C889 C894 1.350 . S
C889 N897 1.427 . S
C890 H881 0.930 . S
C890 C888 1.378 . S
C890 C891 1.367 . S
C891 C890 1.367 . S
C891 C893 1.433 . S
C892 C888 1.350 . S
C892 C889 1.463 . S
C892 N896 1.427 . S
C893 H883 0.929 . S
C893 C891 1.433 . S
C893 N896 1.384 . S
C894 H885 0.929 . S
C894 C886 1.378 . S
C894 C889 1.350 . S
C895 H882 0.929 . S
C895 C887 1.433 . S
C895 N897 1.384 . S
N896 C892 1.427 . S
N896 C893 1.384 . S
N897 C889 1.427 . S
N897 C895 1.384 . S
H898 C904 0.930 . S
H899 C908 0.930 . S
H900 C913 0.929 . S
H901 C911 0.929 . S
H902 C906 0.929 . S
H903 C912 0.929 . S
C904 H898 0.930 . S
C904 C905 1.367 . S
C904 C912 1.378 . S
C905 C904 1.367 . S
C905 C913 1.433 . S
C906 H902 0.929 . S
C906 C908 1.378 . S
C906 C910 1.350 . S
C907 C910 1.463 . S
C907 C912 1.350 . S
C907 N915 1.427 . S
C908 H899 0.930 . S
C908 C906 1.378 . S
C908 C909 1.367 . S
C909 C908 1.367 . S
C909 C911 1.433 . S
C910 C906 1.350 . S
C910 C907 1.463 . S
C910 N914 1.427 . S
C911 H901 0.929 . S
C911 C909 1.433 . S
C911 N914 1.384 . S
C912 H903 0.929 . S
C912 C904 1.378 . S
C912 C907 1.350 . S
C913 H900 0.929 . S
C913 C905 1.433 . S
C913 N915 1.384 . S
N914 C910 1.427 . S
N914 C911 1.384 . S
N915 C907 1.427 . S
N915 C913 1.384 . S
H916 C922 0.930 . S
H917 C926 0.930 . S
H918 C931 0.929 . S
H919 C929 0.929 . S
H920 C924 0.929 . S
H921 C930 0.929 . S
C922 H916 0.930 . S
C922 C923 1.367 . S
C922 C930 1.378 . S
C923 C922 1.367 . S
C923 C931 1.433 . S
C924 H920 0.929 . S
C924 C926 1.378 . S
C924 C928 1.350 . S
C925 C928 1.463 . S
C925 C930 1.350 . S
C925 N933 1.427 . S
C926 H917 0.930 . S
C926 C924 1.378 . S
C926 C927 1.367 . S
C927 C926 1.367 . S
C927 C929 1.433 . S
C928 C924 1.350 . S
C928 C925 1.463 . S
C928 N932 1.427 . S
C929 H919 0.929 . S
C929 C927 1.433 . S
C929 N932 1.384 . S
C930 H921 0.929 . S
C930 C922 1.378 . S
C930 C925 1.350 . S
C931 H918 0.929 . S
C931 C923 1.433 . S
C931 N933 1.384 . S
N932 C928 1.427 . S
N932 C929 1.384 . S
N933 C925 1.427 . S
N933 C931 1.384 . S
H934 C940 0.930 . S
H935 C944 0.930 . S
H936 C949 0.929 . S
H937 C947 0.929 . S
H938 C942 0.929 . S
H939 C948 0.929 . S
C940 H934 0.930 . S
C940 C941 1.367 . S
C940 C948 1.378 . S
C941 C940 1.367 . S
C941 C949 1.433 . S
C942 H938 0.929 . S
C942 C944 1.378 . S
C942 C946 1.350 . S
C943 C946 1.463 . S
C943 C948 1.350 . S
C943 N951 1.427 . S
C944 H935 0.930 . S
C944 C942 1.378 . S
C944 C945 1.367 . S
C945 C944 1.367 . S
C945 C947 1.433 . S
C946 C942 1.350 . S
C946 C943 1.463 . S
C946 N950 1.427 . S
C947 H937 0.929 . S
C947 C945 1.433 . S
C947 N950 1.384 . S
C948 H939 0.929 . S
C948 C940 1.378 . S
C948 C943 1.350 . S
C949 H936 0.929 . S
C949 C941 1.433 . S
C949 N951 1.384 . S
N950 C946 1.427 . S
N950 C947 1.384 . S
N951 C943 1.427 . S
N951 C949 1.384 . S
H952 C958 0.930 . S
H953 C962 0.930 . S
H954 C967 0.929 . S
H955 C965 0.929 1_455 S
H956 C960 0.929 . S
H957 C966 0.929 . S
C958 H952 0.930 . S
C958 C959 1.367 . S
C958 C966 1.378 . S
C959 C958 1.367 . S
C959 C967 1.433 . S
C960 H956 0.929 . S
C960 C962 1.378 . S
C960 C964 1.350 . S
C961 C964 1.463 . S
C961 C966 1.350 . S
C961 N969 1.427 . S
C962 H953 0.930 . S
C962 C960 1.378 . S
C962 C963 1.367 . S
C963 C962 1.367 . S
C963 C965 1.433 . S
C964 C960 1.350 . S
C964 C961 1.463 . S
C964 N968 1.427 . S
C965 H955 0.929 1_655 S
C965 C963 1.433 . S
C965 N968 1.384 . S
C966 H957 0.929 . S
C966 C958 1.378 . S
C966 C961 1.350 . S
C967 H954 0.929 . S
C967 C959 1.433 . S
C967 N969 1.384 . S
N968 C964 1.427 . S
N968 C965 1.384 . S
N969 C961 1.427 . S
N969 C967 1.384 . S
H970 C976 0.930 . S
H971 C980 0.930 . S
H972 C985 0.929 . S
H973 C983 0.929 . S
H974 C978 0.929 . S
H975 C984 0.929 . S
C976 H970 0.930 . S
C976 C977 1.367 . S
C976 C984 1.378 . S
C977 C976 1.367 . S
C977 C985 1.433 . S
C978 H974 0.929 . S
C978 C980 1.378 . S
C978 C982 1.350 . S
C979 C982 1.463 . S
C979 C984 1.350 . S
C979 N987 1.427 . S
C980 H971 0.930 . S
C980 C978 1.378 . S
C980 C981 1.367 . S
C981 C980 1.367 . S
C981 C983 1.433 . S
C982 C978 1.350 . S
C982 C979 1.463 . S
C982 N986 1.427 . S
C983 H973 0.929 . S
C983 C981 1.433 . S
C983 N986 1.384 . S
C984 H975 0.929 . S
C984 C976 1.378 . S
C984 C979 1.350 . S
C985 H972 0.929 . S
C985 C977 1.433 . S
C985 N987 1.384 . S
N986 C982 1.427 . S
N986 C983 1.384 . S
N987 C979 1.427 . S
N987 C985 1.384 . S
H988 C994 0.930 . S
H989 C998 0.930 . S
H990 C1003 0.929 . S
H991 C1001 0.929 . S
H992 C996 0.929 . S
H993 C1002 0.929 . S
C994 H988 0.930 . S
C994 C995 1.367 . S
C994 C1002 1.378 . S
C995 C994 1.367 . S
C995 C1003 1.433 . S
C996 H992 0.929 . S
C996 C998 1.378 . S
C996 C1000 1.350 . S
C997 C1000 1.463 . S
C997 C1002 1.350 . S
C997 N1005 1.427 . S
C998 H989 0.930 . S
C998 C996 1.378 . S
C998 C999 1.367 . S
C999 C998 1.367 . S
C999 C1001 1.433 . S
C1000 C996 1.350 . S
C1000 C997 1.463 . S
C1000 N1004 1.427 . S
C1001 H991 0.929 . S
C1001 C999 1.433 . S
C1001 N1004 1.384 . S
C1002 H993 0.929 . S
C1002 C994 1.378 . S
C1002 C997 1.350 . S
C1003 H990 0.929 . S
C1003 C995 1.433 . S
C1003 N1005 1.384 . S
N1004 C1000 1.427 . S
N1004 C1001 1.384 . S
N1005 C997 1.427 . S
N1005 C1003 1.384 . S
H1006 C1012 0.930 . S
H1007 C1016 0.930 . S
H1008 C1021 0.929 . S
H1009 C1019 0.929 . S
H1010 C1014 0.929 . S
H1011 C1020 0.929 . S
C1012 H1006 0.930 . S
C1012 C1013 1.367 . S
C1012 C1020 1.378 . S
C1013 C1012 1.367 . S
C1013 C1021 1.433 . S
C1014 H1010 0.929 . S
C1014 C1016 1.378 . S
C1014 C1018 1.350 . S
C1015 C1018 1.463 . S
C1015 C1020 1.350 . S
C1015 N1023 1.427 . S
C1016 H1007 0.930 . S
C1016 C1014 1.378 . S
C1016 C1017 1.367 . S
C1017 C1016 1.367 . S
C1017 C1019 1.433 . S
C1018 C1014 1.350 . S
C1018 C1015 1.463 . S
C1018 N1022 1.427 . S
C1019 H1009 0.929 . S
C1019 C1017 1.433 . S
C1019 N1022 1.384 . S
C1020 H1011 0.929 . S
C1020 C1012 1.378 . S
C1020 C1015 1.350 . S
C1021 H1008 0.929 . S
C1021 C1013 1.433 . S
C1021 N1023 1.384 . S
N1022 C1018 1.427 . S
N1022 C1019 1.384 . S
N1023 C1015 1.427 . S
N1023 C1021 1.384 . S
C599 C215 2.143 . S
C603 C331 2.161 . S
C621 C415 2.178 . S
C617 C247 2.161 . S
C639 C491 2.098 . S
C635 C151 2.267 . S
C657 C575 2.083 . S
C653 C183 2.246 . S
C675 C322 2.159 1_565 S
C671 C87 2.033 . S
C689 C119 2.058 . S
C693 C406 2.186 . S
C707 C23 2.151 . S
C711 C480 2.110 . S
C725 C55 2.127 . S
C729 C564 2.080 . S
C747 C319 0.631 1_455 S
C743 C189 0.628 . S
C765 C403 0.588 1_545 S
C761 C221 0.567 . S
C783 C496 0.579 . S
C779 C253 0.532 . S
C797 C157 0.573 . S
C801 C580 0.618 . S
C815 C61 0.714 . S
C819 C328 0.623 . S
C837 C412 0.591 . S
C833 C93 0.662 . S
C855 C487 0.585 . S
C851 C125 0.636 . S
C869 C29 0.688 . S
C873 C571 0.587 . S
C887 C177 2.501 . S
C891 C312 2.554 . S
C905 C209 2.464 . S
C909 C396 2.520 . S
C927 C490 2.579 . S
C923 C241 2.376 . S
C945 C574 2.605 . S
C941 C145 2.408 . S
C959 C49 2.409 . S
C963 C323 2.561 . S
C981 C407 2.523 . S
C977 C81 2.380 . S
C999 C499 2.579 . S
C995 C113 2.280 . S
C1013 C17 2.293 . S
C1017 C583 2.607 . S
