# Generated by pormake.
# Topology pto, (3,4)-cn, num edge types: 1
# Building blocks:
#     Node 0, Type 0, BuildingBlock: BETDIP_clean_linker_0, # of connection points: 3
#     Node 1, Type 0, BuildingBlock: BETDIP_clean_linker_0, # of connection points: 3
#     Node 2, Type 0, BuildingBlock: BETDIP_clean_linker_0, # of connection points: 3
#     Node 3, Type 0, BuildingBlock: BETDIP_clean_linker_0, # of connection points: 3
#     Node 4, Type 0, BuildingBlock: BETDIP_clean_linker_0, # of connection points: 3
#     Node 5, Type 0, BuildingBlock: BETDIP_clean_linker_0, # of connection points: 3
#     Node 6, Type 0, BuildingBlock: BETDIP_clean_linker_0, # of connection points: 3
#     Node 7, Type 0, BuildingBlock: BETDIP_clean_linker_0, # of connection points: 3
#     Node 8, Type 1, BuildingBlock: NAWXER_clean_sbu_0, # of connection points: 4
#     Node 9, Type 1, BuildingBlock: NAWXER_clean_sbu_0, # of connection points: 4
#     Node 10, Type 1, BuildingBlock: NAWXER_clean_sbu_0, # of connection points: 4
#     Node 11, Type 1, BuildingBlock: NAWXER_clean_sbu_0, # of connection points: 4
#     Node 12, Type 1, BuildingBlock: NAWXER_clean_sbu_0, # of connection points: 4
#     Node 13, Type 1, BuildingBlock: NAWXER_clean_sbu_0, # of connection points: 4
#     Edge 14, Type (0, 1), BuildingBlock: KIFKEQ_clean_linker_1, # of connection points: 2
#     Edge 15, Type (0, 1), BuildingBlock: KIFKEQ_clean_linker_1, # of connection points: 2
#     Edge 16, Type (0, 1), BuildingBlock: KIFKEQ_clean_linker_1, # of connection points: 2
#     Edge 17, Type (0, 1), BuildingBlock: KIFKEQ_clean_linker_1, # of connection points: 2
#     Edge 18, Type (0, 1), BuildingBlock: KIFKEQ_clean_linker_1, # of connection points: 2
#     Edge 19, Type (0, 1), BuildingBlock: KIFKEQ_clean_linker_1, # of connection points: 2
#     Edge 20, Type (0, 1), BuildingBlock: KIFKEQ_clean_linker_1, # of connection points: 2
#     Edge 21, Type (0, 1), BuildingBlock: KIFKEQ_clean_linker_1, # of connection points: 2
#     Edge 22, Type (0, 1), BuildingBlock: KIFKEQ_clean_linker_1, # of connection points: 2
#     Edge 23, Type (0, 1), BuildingBlock: KIFKEQ_clean_linker_1, # of connection points: 2
#     Edge 24, Type (0, 1), BuildingBlock: KIFKEQ_clean_linker_1, # of connection points: 2
#     Edge 25, Type (0, 1), BuildingBlock: KIFKEQ_clean_linker_1, # of connection points: 2
#     Edge 26, Type (0, 1), BuildingBlock: KIFKEQ_clean_linker_1, # of connection points: 2
#     Edge 27, Type (0, 1), BuildingBlock: KIFKEQ_clean_linker_1, # of connection points: 2
#     Edge 28, Type (0, 1), BuildingBlock: KIFKEQ_clean_linker_1, # of connection points: 2
#     Edge 29, Type (0, 1), BuildingBlock: KIFKEQ_clean_linker_1, # of connection points: 2
#     Edge 30, Type (0, 1), BuildingBlock: KIFKEQ_clean_linker_1, # of connection points: 2
#     Edge 31, Type (0, 1), BuildingBlock: KIFKEQ_clean_linker_1, # of connection points: 2
#     Edge 32, Type (0, 1), BuildingBlock: KIFKEQ_clean_linker_1, # of connection points: 2
#     Edge 33, Type (0, 1), BuildingBlock: KIFKEQ_clean_linker_1, # of connection points: 2
#     Edge 34, Type (0, 1), BuildingBlock: KIFKEQ_clean_linker_1, # of connection points: 2
#     Edge 35, Type (0, 1), BuildingBlock: KIFKEQ_clean_linker_1, # of connection points: 2
#     Edge 36, Type (0, 1), BuildingBlock: KIFKEQ_clean_linker_1, # of connection points: 2
#     Edge 37, Type (0, 1), BuildingBlock: KIFKEQ_clean_linker_1, # of connection points: 2
# Relax obj value: 0.016
# Max RMSD: 0.144
# Mean RMSD: 0.062
data_MOF--net-pto--node1-NAWXER_clean_sbu_0--node2-BETDIP_clean_linker_0--edge1-KIFKEQ_clean_linker_1
_symmetry_space_group_name_H-M    P1
_symmetry_Int_Tables_number       1
_symmetry_cell_setting            triclinic
loop_
_symmetry_equiv_pos_as_xyz
'x, y, z'
_cell_length_a     42.647904
_cell_length_b     41.054949
_cell_length_c     38.810329
_cell_angle_alpha  100.93987
_cell_angle_beta   100.5769
_cell_angle_gamma 102.22293
loop_
_atom_site_label
_atom_site_type_symbol
_atom_site_fract_x
_atom_site_fract_y
_atom_site_fract_z
_atom_type_partial_charge
H0 H 0.21191 0.31039 0.27378 0.0
H1 H 0.29084 0.27351 0.24118 0.0
H2 H 0.24409 0.33552 0.18088 0.0
H3 H 0.3106 0.29185 0.30595 0.0
C4 C 0.28846 0.2771 0.31139 0.0
C5 C 0.22791 0.3086 0.25515 0.0
C6 C 0.22453 0.32449 0.22609 0.0
C7 C 0.25254 0.29145 0.26129 0.0
C8 C 0.273 0.28849 0.23718 0.0
C9 C 0.27067 0.3045 0.20817 0.0
C10 C 0.24589 0.32224 0.20247 0.0
N11 N 0.25691 0.27791 0.29234 0.0
H12 H 0.24072 0.80215 0.70449 0.0
H13 H 0.33805 0.84937 0.77203 0.0
H14 H 0.27579 0.76443 0.79655 0.0
H15 H 0.34785 0.87199 0.72732 0.0
C16 C 0.32455 0.87357 0.71183 0.0
C17 C 0.26005 0.80327 0.72747 0.0
C18 C 0.25473 0.78008 0.74942 0.0
C19 C 0.29026 0.82783 0.73473 0.0
C20 C 0.31496 0.82995 0.76518 0.0
C21 C 0.31001 0.80698 0.78739 0.0
C22 C 0.28001 0.7818 0.77905 0.0
N23 N 0.29432 0.85069 0.71163 0.0
H24 H 0.81247 0.75928 0.21127 0.0
H25 H 0.86476 0.79193 0.32292 0.0
H26 H 0.79751 0.84689 0.28065 0.0
H27 H 0.86019 0.73388 0.31355 0.0
C28 C 0.86593 0.72764 0.28732 0.0
C29 C 0.81821 0.77712 0.23738 0.0
C30 C 0.80248 0.80391 0.24235 0.0
C31 C 0.84038 0.77227 0.26623 0.0
C32 C 0.84747 0.79506 0.30038 0.0
C33 C 0.83248 0.8224 0.30548 0.0
C34 C 0.81028 0.8268 0.2763 0.0
N35 N 0.85484 0.7441 0.26009 0.0
H36 H 0.7402 0.24444 0.82363 0.0
H37 H 0.77911 0.35403 0.85748 0.0
H38 H 0.82288 0.29293 0.78691 0.0
H39 H 0.75479 0.34753 0.90382 0.0
C40 C 0.73249 0.327 0.89202 0.0
C41 C 0.7581 0.26746 0.82342 0.0
C42 C 0.78244 0.26508 0.80395 0.0
C43 C 0.75704 0.29926 0.84336 0.0
C44 C 0.78011 0.32926 0.84278 0.0
C45 C 0.8043 0.32733 0.82263 0.0
C46 C 0.80519 0.29497 0.8035 0.0
N47 N 0.73182 0.30002 0.8627 0.0
H48 H 0.74071 0.74732 0.83039 0.0
H49 H 0.77872 0.79663 0.75353 0.0
H50 H 0.68397 0.80378 0.77301 0.0
H51 H 0.79298 0.74929 0.85284 0.0
C52 C 0.80529 0.7489 0.83072 0.0
C53 C 0.73833 0.76349 0.81162 0.0
C54 C 0.70956 0.77524 0.80492 0.0
C55 C 0.7635 0.77179 0.79356 0.0
C56 C 0.75909 0.79041 0.76725 0.0
C57 C 0.73028 0.80167 0.75911 0.0
C58 C 0.70583 0.79443 0.77852 0.0
N59 N 0.79332 0.76132 0.80039 0.0
H60 H 0.69671 0.27177 0.33725 0.0
H61 H 0.80179 0.29628 0.37757 0.0
H62 H 0.75989 0.3527 0.30703 0.0
H63 H 0.78947 0.23724 0.369 0.0
C64 C 0.76789 0.23239 0.38028 0.0
C65 C 0.72104 0.28734 0.33864 0.0
C66 C 0.72469 0.31392 0.32031 0.0
C67 C 0.74872 0.27996 0.35813 0.0
C68 C 0.78045 0.30072 0.36109 0.0
C69 C 0.78465 0.32769 0.34345 0.0
C70 C 0.75665 0.3335 0.32262 0.0
N71 N 0.74401 0.25148 0.37435 0.0
H72 H 0.20362 0.3809 0.78849 0.0
H73 H 0.29522 0.35907 0.83053 0.0
H74 H 0.27063 0.44816 0.885 0.0
H75 H 0.26064 0.30373 0.8095 0.0
C76 C 0.24918 0.3056 0.78276 0.0
C77 C 0.22679 0.38787 0.80848 0.0
C78 C 0.23454 0.41747 0.83683 0.0
C79 C 0.24803 0.3662 0.80656 0.0
C80 C 0.2782 0.37518 0.83224 0.0
C81 C 0.28643 0.40464 0.8606 0.0
C82 C 0.26431 0.42543 0.86308 0.0
N83 N 0.23863 0.33556 0.77866 0.0
H84 H 0.32519 0.84397 0.28923 0.0
H85 H 0.29106 0.73368 0.26086 0.0
H86 H 0.23975 0.79391 0.32134 0.0
H87 H 0.34288 0.73625 0.25455 0.0
C88 C 0.34959 0.75879 0.24404 0.0
C89 C 0.30798 0.82075 0.29011 0.0
C90 C 0.2819 0.82291 0.30728 0.0
C91 C 0.31189 0.78877 0.27365 0.0
C92 C 0.28926 0.75857 0.2744 0.0
C93 C 0.26302 0.76042 0.29127 0.0
C94 C 0.25958 0.79258 0.3076 0.0
N95 N 0.33775 0.78809 0.25513 0.0
C96 C 0.99302 0.46996 0.30704 0.0
C97 C 0.08657 0.55526 0.29416 0.0
O98 O 0.01803 0.48761 0.33176 0.0
Zn99 Zn 0.04113 0.51172 0.3017 0.0
O100 O 0.99157 0.47249 0.27436 0.0
Zn101 Zn 0.02069 0.5003 0.2446 0.0
O102 O 0.03413 0.46536 0.21286 0.0
O103 O 0.05689 0.47265 0.27052 0.0
O104 O 0.06554 0.53998 0.26434 0.0
O105 O 0.08239 0.54656 0.3231 0.0
O106 O 0.00879 0.54199 0.28433 0.0
O107 O 0.99072 0.5257 0.22507 0.0
C108 C 0.05308 0.45742 0.23746 0.0
C109 C 0.99136 0.54519 0.25508 0.0
C110 C 0.96831 0.52808 0.78954 0.0
C111 C 0.05242 0.61679 0.76616 0.0
O112 O 0.98638 0.54958 0.81836 0.0
Zn113 Zn 0.02768 0.59384 0.83344 0.0
O114 O 0.97387 0.53089 0.75899 0.0
Zn115 Zn 0.01021 0.57158 0.77659 0.0
O116 O 0.04737 0.55188 0.80326 0.0
O117 O 0.06265 0.57843 0.86092 0.0
O118 O 0.03178 0.59178 0.74293 0.0
O119 O 0.05282 0.62008 0.79976 0.0
O120 O 0.00883 0.62848 0.85696 0.0
O121 O 0.98682 0.60943 0.79846 0.0
C122 C 0.06545 0.55615 0.83479 0.0
C123 C 0.98814 0.62896 0.829 0.0
C124 C 0.31361 0.05647 0.57378 0.0
C125 C 0.30581 0.13618 0.49601 0.0
O126 O 0.28394 0.05564 0.5589 0.0
Zn127 Zn 0.25827 0.07873 0.52191 0.0
O128 O 0.33767 0.07636 0.56692 0.0
Zn129 Zn 0.31126 0.09642 0.53473 0.0
O130 O 0.28685 0.12328 0.56995 0.0
O131 O 0.23297 0.10131 0.55112 0.0
O132 O 0.33223 0.1317 0.51347 0.0
O133 O 0.27775 0.11819 0.49728 0.0
O134 O 0.23668 0.03956 0.48098 0.0
O135 O 0.2908 0.05448 0.48897 0.0
C136 C 0.25749 0.12301 0.57353 0.0
C137 C 0.26263 0.03499 0.47121 0.0
C138 C 0.59608 0.80977 0.07251 0.0
C139 C 0.49385 0.81233 0.99333 0.0
O140 O 0.57686 0.78 0.05721 0.0
Zn141 Zn 0.52953 0.75763 0.02184 0.0
O142 O 0.58685 0.83642 0.0678 0.0
Zn143 Zn 0.54452 0.81271 0.03451 0.0
O144 O 0.51561 0.79151 0.06835 0.0
O145 O 0.50353 0.73508 0.051 0.0
O146 O 0.5169 0.83827 0.0117 0.0
O147 O 0.49605 0.78204 0.99523 0.0
O148 O 0.54158 0.73106 0.98145 0.0
O149 O 0.55878 0.78718 0.98865 0.0
C150 C 0.5014 0.76196 0.07199 0.0
C151 C 0.5564 0.75658 0.97129 0.0
C152 C 0.74648 0.96044 0.59131 0.0
C153 C 0.7559 0.04793 0.52063 0.0
O154 O 0.72302 0.96701 0.57064 0.0
Zn155 Zn 0.75009 0.0031 0.55495 0.0
O156 O 0.77629 0.97747 0.59487 0.0
Zn157 Zn 0.80223 0.01861 0.57556 0.0
O158 O 0.82176 0.0542 0.61919 0.0
O159 O 0.76735 0.04243 0.6041 0.0
O160 O 0.78356 0.04692 0.5394 0.0
O161 O 0.72964 0.02668 0.5212 0.0
O162 O 0.77795 0.97585 0.52441 0.0
O163 O 0.83082 0.99789 0.55054 0.0
C164 C 0.79491 0.0596 0.62567 0.0
C165 C 0.80835 0.97647 0.52549 0.0
C166 C 0.5534 0.35338 0.12673 0.0
C167 C 0.47989 0.38165 0.03073 0.0
O168 O 0.5369 0.32719 0.10145 0.0
Zn169 Zn 0.50122 0.31575 0.05175 0.0
O170 O 0.54984 0.38296 0.12459 0.0
Zn171 Zn 0.51831 0.36917 0.07794 0.0
O172 O 0.47418 0.34192 0.08964 0.0
O173 O 0.46305 0.2871 0.06174 0.0
O174 O 0.50138 0.40316 0.05679 0.0
O175 O 0.47814 0.34949 0.02614 0.0
O176 O 0.52354 0.29633 0.01687 0.0
O177 O 0.54584 0.35153 0.04069 0.0
C178 C 0.4556 0.31132 0.08167 0.0
C179 C 0.54549 0.32349 0.0192 0.0
H180 H 0.21721 0.3744 0.27818 0.0
H181 H 0.17668 0.32133 0.16641 0.0
H182 H 0.17351 0.40402 0.27621 0.0
H183 H 0.13202 0.35087 0.16444 0.0
H184 H 0.07669 0.44117 0.17656 0.0
H185 H 0.11818 0.40844 0.1697 0.0
H186 H 0.11487 0.38508 0.27311 0.0
H187 H 0.07454 0.41808 0.28022 0.0
C188 C 0.19887 0.36914 0.25311 0.0
C189 C 0.2 0.34518 0.22263 0.0
C190 C 0.1737 0.38596 0.252 0.0
C191 C 0.14876 0.37914 0.22042 0.0
C192 C 0.15079 0.35654 0.1892 0.0
C193 C 0.17629 0.33969 0.1903 0.0
C194 C 0.08444 0.4284 0.19738 0.0
C195 C 0.07276 0.43255 0.22915 0.0
C196 C 0.1082 0.40975 0.19351 0.0
C197 C 0.12044 0.39493 0.2213 0.0
C198 C 0.10676 0.39706 0.2517 0.0
C199 C 0.08344 0.41578 0.25567 0.0
H200 H 0.24245 0.71113 0.7443 0.0
H201 H 0.19412 0.79316 0.74048 0.0
H202 H 0.18959 0.67138 0.74063 0.0
H203 H 0.14132 0.7535 0.73728 0.0
H204 H 0.07912 0.6839 0.79932 0.0
H205 H 0.12529 0.7232 0.78758 0.0
H206 H 0.12923 0.6444 0.69856 0.0
H207 H 0.08222 0.60503 0.70985 0.0
C208 C 0.22041 0.72047 0.74216 0.0
C209 C 0.2223 0.75517 0.74281 0.0
C210 C 0.19019 0.69773 0.73979 0.0
C211 C 0.16146 0.70944 0.73868 0.0
C212 C 0.16316 0.74388 0.7381 0.0
C213 C 0.19327 0.76648 0.73981 0.0
C214 C 0.08942 0.67517 0.7768 0.0
C215 C 0.07719 0.64145 0.75552 0.0
C216 C 0.11572 0.6977 0.76999 0.0
C217 C 0.13079 0.68677 0.74221 0.0
C218 C 0.11799 0.65337 0.72016 0.0
C219 C 0.09107 0.63098 0.72648 0.0
H220 H 0.88187 0.68735 0.33152 0.0
H221 H 0.88777 0.70525 0.22656 0.0
H222 H 0.91054 0.64227 0.3216 0.0
H223 H 0.91746 0.66063 0.21689 0.0
H224 H 0.94472 0.55559 0.2016 0.0
H225 H 0.913 0.59888 0.20749 0.0
H226 H 0.9652 0.63875 0.31926 0.0
H227 H 0.99589 0.59551 0.31372 0.0
C228 C 0.88941 0.68164 0.30633 0.0
C229 C 0.88274 0.69987 0.27995 0.0
C230 C 0.90602 0.65594 0.30068 0.0
C231 C 0.91667 0.64802 0.26858 0.0
C232 C 0.9094 0.66588 0.2418 0.0
C233 C 0.89257 0.69157 0.24742 0.0
C234 C 0.94934 0.57365 0.22737 0.0
C235 C 0.97261 0.57182 0.25725 0.0
C236 C 0.93129 0.59854 0.23072 0.0
C237 C 0.93624 0.62207 0.26399 0.0
C238 C 0.96008 0.62057 0.29348 0.0
C239 C 0.97788 0.59578 0.2902 0.0
H240 H 0.79342 0.39068 0.81959 0.0
H241 H 0.86924 0.33534 0.8199 0.0
H242 H 0.83166 0.44045 0.81105 0.0
H243 H 0.90633 0.38431 0.80919 0.0
H244 H 0.94274 0.46428 0.74425 0.0
H245 H 0.90196 0.41642 0.75298 0.0
H246 H 0.89279 0.48109 0.85018 0.0
H247 H 0.9341 0.52864 0.84212 0.0
C248 C 0.81818 0.38911 0.81817 0.0
C249 C 0.82802 0.35872 0.82013 0.0
C250 C 0.83991 0.4175 0.81292 0.0
C251 C 0.8716 0.41582 0.80887 0.0
C252 C 0.88173 0.3859 0.81152 0.0
C253 C 0.86037 0.35785 0.81753 0.0
C254 C 0.93176 0.46832 0.76725 0.0
C255 C 0.94166 0.50004 0.7926 0.0
C256 C 0.90862 0.44099 0.77231 0.0
C257 C 0.89443 0.44524 0.80228 0.0
C258 C 0.90335 0.47731 0.82683 0.0
C259 C 0.92703 0.50436 0.82226 0.0
H260 H 0.34436 0.28129 0.36005 0.0
H261 H 0.24037 0.2306 0.32727 0.0
H262 H 0.35079 0.25063 0.40804 0.0
H263 H 0.24682 0.19892 0.37391 0.0
H264 H 0.25882 0.16925 0.47886 0.0
H265 H 0.25615 0.20603 0.43684 0.0
H266 H 0.35081 0.19518 0.41841 0.0
H267 H 0.35403 0.15941 0.46205 0.0
C268 C 0.32293 0.26348 0.36313 0.0
C269 C 0.29187 0.25847 0.34025 0.0
C270 C 0.32662 0.24576 0.3904 0.0
C271 C 0.29931 0.22241 0.39504 0.0
C272 C 0.26827 0.21729 0.37176 0.0
C273 C 0.26455 0.23528 0.34481 0.0
C274 C 0.27922 0.17502 0.46609 0.0
C275 C 0.30651 0.16127 0.47341 0.0
C276 C 0.27759 0.1959 0.44178 0.0
C277 C 0.30294 0.20306 0.42363 0.0
C278 C 0.33092 0.19037 0.43204 0.0
C279 C 0.33278 0.16983 0.45694 0.0
H280 H 0.33333 0.75517 0.80807 0.0
H281 H 0.34552 0.8646 0.83906 0.0
H282 H 0.37669 0.75914 0.86026 0.0
H283 H 0.38851 0.86865 0.89202 0.0
H284 H 0.48969 0.86393 0.95834 0.0
H285 H 0.44424 0.86415 0.90969 0.0
H286 H 0.38746 0.76916 0.92397 0.0
H287 H 0.43312 0.76838 0.97125 0.0
C288 C 0.34507 0.78002 0.82636 0.0
C289 C 0.33607 0.80954 0.81955 0.0
C290 C 0.36984 0.78235 0.85639 0.0
C291 C 0.38597 0.81422 0.88059 0.0
C292 C 0.37689 0.84378 0.87376 0.0
C293 C 0.35225 0.84147 0.84349 0.0
C294 C 0.46725 0.84345 0.95133 0.0
C295 C 0.46503 0.81595 0.96821 0.0
C296 C 0.4412 0.84354 0.92351 0.0
C297 C 0.41239 0.81631 0.91244 0.0
C298 C 0.40961 0.78999 0.93101 0.0
C299 C 0.43569 0.78968 0.95833 0.0
H300 H 0.85008 0.89232 0.32497 0.0
H301 H 0.82465 0.80276 0.36716 0.0
H302 H 0.84937 0.92905 0.38234 0.0
H303 H 0.82347 0.83946 0.42438 0.0
H304 H 0.76961 0.91504 0.48426 0.0
H305 H 0.78167 0.87702 0.43476 0.0
H306 H 0.87772 0.9462 0.45234 0.0
H307 H 0.86594 0.98416 0.50261 0.0
C308 C 0.84498 0.88063 0.34682 0.0
C309 C 0.83739 0.84479 0.34176 0.0
C310 C 0.8447 0.90159 0.3796 0.0
C311 C 0.83623 0.887 0.40763 0.0
C312 C 0.82998 0.85126 0.40309 0.0
C313 C 0.83085 0.83034 0.37053 0.0
C314 C 0.79344 0.92199 0.47783 0.0
C315 C 0.81679 0.95261 0.49718 0.0
C316 C 0.80041 0.90011 0.44969 0.0
C317 C 0.83064 0.90869 0.43987 0.0
C318 C 0.85424 0.93906 0.45947 0.0
C319 C 0.84752 0.96066 0.4882 0.0
H320 H 0.6708 0.28215 0.86922 0.0
H321 H 0.73053 0.36885 0.95404 0.0
H322 H 0.62467 0.28101 0.89839 0.0
H323 H 0.68488 0.36713 0.98396 0.0
H324 H 0.58848 0.37862 0.00987 0.0
H325 H 0.63234 0.37894 0.97783 0.0
H326 H 0.60565 0.26803 0.9499 0.0
H327 H 0.56083 0.26777 0.98114 0.0
C328 C 0.67413 0.30084 0.89424 0.0
C329 C 0.70426 0.32567 0.90941 0.0
C330 C 0.64773 0.30007 0.9111 0.0
C331 C 0.65093 0.32401 0.94354 0.0
C332 C 0.68125 0.34867 0.95868 0.0
C333 C 0.70751 0.34957 0.94171 0.0
C334 C 0.59184 0.35425 0.99679 0.0
C335 C 0.57121 0.32315 0.9982 0.0
C336 C 0.6172 0.35444 0.97859 0.0
C337 C 0.62287 0.32352 0.96155 0.0
C338 C 0.60185 0.29235 0.96241 0.0
C339 C 0.57622 0.29217 0.98044 0.0
H340 H 0.27323 0.88129 0.66291 0.0
H341 H 0.37624 0.92627 0.71446 0.0
H342 H 0.27335 0.9268 0.63103 0.0
H343 H 0.37619 0.97284 0.68329 0.0
H344 H 0.36762 0.03103 0.5909 0.0
H345 H 0.37191 0.98672 0.62462 0.0
H346 H 0.27558 0.9864 0.64508 0.0
H347 H 0.27096 0.02939 0.61071 0.0
C348 C 0.2959 0.90104 0.66757 0.0
C349 C 0.3247 0.90046 0.69138 0.0
C350 C 0.29594 0.9273 0.64946 0.0
C351 C 0.32468 0.9538 0.65501 0.0
C352 C 0.35371 0.95276 0.67827 0.0
C353 C 0.35371 0.92624 0.69622 0.0
C354 C 0.34761 0.02166 0.60301 0.0
C355 C 0.3188 0.03328 0.59782 0.0
C356 C 0.35004 0.99634 0.62231 0.0
C357 C 0.32379 0.98253 0.63695 0.0
C358 C 0.29582 0.99566 0.63326 0.0
C359 C 0.29327 0.02052 0.61376 0.0
H360 H 0.7921 0.8608 0.21942 0.0
H361 H 0.75094 0.75181 0.20133 0.0
H362 H 0.74442 0.86443 0.17578 0.0
H363 H 0.70308 0.75537 0.15889 0.0
H364 H 0.63176 0.76296 0.0642 0.0
H365 H 0.68419 0.76345 0.10152 0.0
H366 H 0.687 0.86152 0.16861 0.0
H367 H 0.63486 0.86164 0.12969 0.0
C368 C 0.7729 0.83762 0.20594 0.0
C369 C 0.77534 0.80597 0.21351 0.0
C370 C 0.74549 0.83971 0.18115 0.0
C371 C 0.7198 0.81021 0.16367 0.0
C372 C 0.72262 0.77854 0.17107 0.0
C373 C 0.75011 0.77643 0.19548 0.0
C374 C 0.64367 0.78475 0.08681 0.0
C375 C 0.62904 0.81207 0.09437 0.0
C376 C 0.6737 0.78496 0.10838 0.0
C377 C 0.68966 0.81219 0.13859 0.0
C378 C 0.67557 0.8402 0.14544 0.0
C379 C 0.64562 0.84025 0.12332 0.0
H380 H 0.83549 0.23794 0.80656 0.0
H381 H 0.73277 0.21748 0.7536 0.0
H382 H 0.8394 0.18525 0.76807 0.0
H383 H 0.73674 0.16567 0.71385 0.0
H384 H 0.74513 0.06313 0.65983 0.0
H385 H 0.74254 0.10966 0.70757 0.0
H386 H 0.84135 0.16416 0.70816 0.0
H387 H 0.84438 0.11662 0.66166 0.0
C388 C 0.81374 0.22198 0.78665 0.0
C389 C 0.78384 0.23162 0.7829 0.0
C390 C 0.81599 0.19196 0.76442 0.0
C391 C 0.78849 0.17121 0.73755 0.0
C392 C 0.75833 0.18057 0.73458 0.0
C393 C 0.75599 0.21033 0.75722 0.0
C394 C 0.76643 0.08491 0.67052 0.0
C395 C 0.79489 0.08641 0.65691 0.0
C396 C 0.76488 0.11173 0.69773 0.0
C397 C 0.79153 0.141 0.7115 0.0
C398 C 0.82045 0.1419 0.69862 0.0
C399 C 0.8222 0.11474 0.67181 0.0
H400 H 0.26219 0.30135 0.13506 0.0
H401 H 0.33607 0.30695 0.2303 0.0
H402 H 0.30379 0.2992 0.09906 0.0
H403 H 0.37616 0.30231 0.19391 0.0
H404 H 0.42657 0.25684 0.10622 0.0
H405 H 0.37813 0.25209 0.13286 0.0
H406 H 0.36617 0.34807 0.10978 0.0
H407 H 0.41494 0.35343 0.08443 0.0
C408 C 0.28702 0.30194 0.14833 0.0
C409 C 0.29544 0.30374 0.18559 0.0
C410 C 0.31064 0.30031 0.12764 0.0
C411 C 0.34277 0.29974 0.14375 0.0
C412 C 0.35125 0.30176 0.18079 0.0
C413 C 0.32809 0.30425 0.20153 0.0
C414 C 0.41323 0.27656 0.10643 0.0
C415 C 0.42456 0.30566 0.09379 0.0
C416 C 0.38564 0.27386 0.12153 0.0
C417 C 0.36854 0.29968 0.12307 0.0
C418 C 0.37882 0.32774 0.10854 0.0
C419 C 0.40681 0.3309 0.09439 0.0
H420 H 0.84696 0.74944 0.78461 0.0
H421 H 0.83075 0.71832 0.88147 0.0
H422 H 0.89416 0.72477 0.78677 0.0
H423 H 0.87763 0.69261 0.88315 0.0
H424 H 0.97911 0.67042 0.88915 0.0
H425 H 0.93747 0.70321 0.89156 0.0
H426 H 0.90148 0.6678 0.77589 0.0
H427 H 0.94312 0.63605 0.77335 0.0
C428 C 0.85348 0.7373 0.80639 0.0
C429 C 0.83498 0.73546 0.83272 0.0
C430 C 0.8805 0.72304 0.80757 0.0
C431 C 0.88952 0.70639 0.83493 0.0
C432 C 0.87157 0.7055 0.86189 0.0
C433 C 0.84459 0.71997 0.86081 0.0
C434 C 0.96249 0.66998 0.86425 0.0
C435 C 0.96447 0.65059 0.83109 0.0
C436 C 0.93851 0.68857 0.86565 0.0
C437 C 0.91615 0.6882 0.8339 0.0
C438 C 0.9186 0.6692 0.8008 0.0
C439 C 0.94242 0.65073 0.7994 0.0
H440 H 0.80262 0.39667 0.34762 0.0
H441 H 0.84263 0.30798 0.34356 0.0
H442 H 0.85485 0.43049 0.34172 0.0
H443 H 0.89554 0.34275 0.33946 0.0
H444 H 0.99143 0.44227 0.3662 0.0
H445 H 0.94284 0.40735 0.37989 0.0
H446 H 0.88188 0.41486 0.28143 0.0
H447 H 0.92996 0.44867 0.26721 0.0
C448 C 0.82257 0.3844 0.34579 0.0
C449 C 0.81808 0.34933 0.34532 0.0
C450 C 0.85253 0.40391 0.34274 0.0
C451 C 0.87897 0.38907 0.33999 0.0
C452 C 0.87544 0.35471 0.34177 0.0
C453 C 0.84518 0.33491 0.34422 0.0
C454 C 0.96766 0.43625 0.34745 0.0
C455 C 0.96451 0.44815 0.31561 0.0
C456 C 0.94002 0.41626 0.35524 0.0
C457 C 0.9088 0.4087 0.33173 0.0
C458 C 0.90573 0.42055 0.30001 0.0
C459 C 0.93329 0.43976 0.29185 0.0
H460 H 0.2021 0.43958 0.78221 0.0
H461 H 0.21471 0.4458 0.89644 0.0
H462 H 0.16202 0.47371 0.78464 0.0
H463 H 0.1741 0.47982 0.89888 0.0
H464 H 0.12034 0.56768 0.89017 0.0
H465 H 0.16264 0.53529 0.89273 0.0
H466 H 0.10642 0.46482 0.79228 0.0
H467 H 0.06509 0.4972 0.78934 0.0
C468 C 0.19614 0.44811 0.80783 0.0
C469 C 0.21131 0.43971 0.83903 0.0
C470 C 0.17313 0.46764 0.80925 0.0
C471 C 0.16449 0.47912 0.84189 0.0
C472 C 0.18034 0.47156 0.87338 0.0
C473 C 0.20356 0.45206 0.87197 0.0
C474 C 0.11702 0.54509 0.86888 0.0
C475 C 0.08962 0.53528 0.83934 0.0
C476 C 0.14117 0.52653 0.87034 0.0
C477 C 0.13821 0.49784 0.84233 0.0
C478 C 0.11 0.48733 0.81377 0.0
C479 C 0.08616 0.50584 0.81222 0.0
H480 H 0.27435 0.70283 0.31162 0.0
H481 H 0.19637 0.74751 0.27129 0.0
H482 H 0.23295 0.6518 0.31342 0.0
H483 H 0.15527 0.69682 0.27295 0.0
H484 H 0.0951 0.58554 0.23897 0.0
H485 H 0.13912 0.63377 0.23856 0.0
H486 H 0.18576 0.63802 0.34842 0.0
H487 H 0.14121 0.58935 0.34913 0.0
C488 C 0.2484 0.70158 0.30297 0.0
C489 C 0.23846 0.72898 0.29129 0.0
C490 C 0.22481 0.67264 0.3043 0.0
C491 C 0.191 0.67046 0.29332 0.0
C492 C 0.18119 0.69777 0.28136 0.0
C493 C 0.20466 0.72679 0.28054 0.0
C494 C 0.11475 0.59651 0.26309 0.0
C495 C 0.11453 0.58367 0.2942 0.0
C496 C 0.1399 0.62424 0.26281 0.0
C497 C 0.16567 0.63968 0.29349 0.0
C498 C 0.16616 0.6264 0.32436 0.0
C499 C 0.14063 0.59874 0.32482 0.0
H500 H 0.70512 0.85829 0.75984 0.0
H501 H 0.74698 0.78992 0.69396 0.0
H502 H 0.70471 0.89381 0.71579 0.0
H503 H 0.74734 0.82587 0.65074 0.0
H504 H 0.78979 0.92728 0.61972 0.0
H505 H 0.78137 0.88648 0.65725 0.0
H506 H 0.6807 0.89321 0.64866 0.0
H507 H 0.68903 0.93416 0.61044 0.0
C508 C 0.7137 0.85048 0.73575 0.0
C509 C 0.72656 0.82149 0.73077 0.0
C510 C 0.71349 0.87086 0.71056 0.0
C511 C 0.72634 0.86279 0.68006 0.0
C512 C 0.73778 0.83302 0.67429 0.0
C513 C 0.73771 0.81253 0.69919 0.0
C514 C 0.76574 0.91992 0.62554 0.0
C515 C 0.74007 0.93396 0.6121 0.0
C516 C 0.76089 0.89639 0.64691 0.0
C517 C 0.73036 0.88661 0.65583 0.0
C518 C 0.70451 0.90041 0.64227 0.0
C519 C 0.70922 0.92364 0.62026 0.0
H520 H 0.66882 0.26677 0.27731 0.0
H521 H 0.71472 0.37573 0.31011 0.0
H522 H 0.62477 0.27687 0.23461 0.0
H523 H 0.67232 0.38552 0.26523 0.0
H524 H 0.58038 0.39697 0.19384 0.0
H525 H 0.61796 0.38737 0.24438 0.0
H526 H 0.61757 0.28961 0.17846 0.0
H527 H 0.57905 0.29852 0.12917 0.0
C528 C 0.66946 0.29293 0.27571 0.0
C529 C 0.69575 0.32033 0.29694 0.0
C530 C 0.6444 0.29871 0.25065 0.0
C531 C 0.64518 0.33198 0.24569 0.0
C532 C 0.67063 0.35955 0.26816 0.0
C533 C 0.69537 0.35383 0.29363 0.0
C534 C 0.58831 0.37342 0.19036 0.0
C535 C 0.57668 0.3485 0.15755 0.0
C536 C 0.60996 0.3679 0.21927 0.0
C537 C 0.62083 0.33755 0.2158 0.0
C538 C 0.60922 0.31286 0.18274 0.0
C539 C 0.58728 0.31814 0.1542 0.0
H540 H 0.21981 0.29769 0.711 0.0
H541 H 0.27093 0.24884 0.78445 0.0
H542 H 0.21847 0.2513 0.66008 0.0
H543 H 0.26956 0.20267 0.73382 0.0
H544 H 0.3042 0.16019 0.63333 0.0
H545 H 0.29866 0.20257 0.68318 0.0
H546 H 0.19555 0.18563 0.63332 0.0
H547 H 0.20102 0.14262 0.58281 0.0
C548 C 0.23047 0.27692 0.71628 0.0
C549 C 0.24577 0.27694 0.75162 0.0
C550 C 0.22952 0.2503 0.68719 0.0
C551 C 0.24412 0.22353 0.69299 0.0
C552 C 0.25846 0.22317 0.72849 0.0
C553 C 0.25918 0.24953 0.75745 0.0
C554 C 0.28025 0.16532 0.63287 0.0
C555 C 0.25303 0.148 0.60405 0.0
C556 C 0.27706 0.18951 0.66161 0.0
C557 C 0.24665 0.1973 0.66224 0.0
C558 C 0.21931 0.18017 0.63343 0.0
C559 C 0.22241 0.15547 0.60469 0.0
H560 H 0.38022 0.70925 0.2236 0.0
H561 H 0.37072 0.80871 0.20926 0.0
H562 H 0.41836 0.7089 0.18361 0.0
H563 H 0.40794 0.80807 0.16863 0.0
H564 H 0.49997 0.81391 0.12649 0.0
H565 H 0.46458 0.81252 0.16886 0.0
H566 H 0.421 0.70447 0.12143 0.0
H567 H 0.4573 0.7057 0.07944 0.0
C568 C 0.38626 0.73099 0.21179 0.0
C569 C 0.37267 0.75905 0.21972 0.0
C570 C 0.40792 0.7307 0.1887 0.0
C571 C 0.4164 0.7585 0.17292 0.0
C572 C 0.40252 0.78649 0.18078 0.0
C573 C 0.38099 0.78681 0.20396 0.0
C574 C 0.48301 0.78975 0.12518 0.0
C575 C 0.48139 0.75993 0.0994 0.0
C576 C 0.46249 0.78902 0.14937 0.0
C577 C 0.43955 0.75851 0.14836 0.0
C578 C 0.43852 0.7284 0.12321 0.0
C579 C 0.45927 0.72909 0.09904 0.0
H580 H 0.80729 0.18981 0.38881 0.0
H581 H 0.71816 0.21112 0.41408 0.0
H582 H 0.80222 0.14404 0.42077 0.0
H583 H 0.71337 0.16556 0.447 0.0
H584 H 0.70267 0.0589 0.47599 0.0
H585 H 0.70346 0.10262 0.4407 0.0
H586 H 0.80881 0.14062 0.4827 0.0
H587 H 0.80819 0.09711 0.51698 0.0
C588 C 0.7866 0.18467 0.40129 0.0
C589 C 0.76328 0.20414 0.39913 0.0
C590 C 0.78375 0.15855 0.41977 0.0
C591 C 0.75757 0.15131 0.43682 0.0
C592 C 0.73371 0.17031 0.43398 0.0
C593 C 0.73656 0.19654 0.41532 0.0
C594 C 0.72596 0.07658 0.47755 0.0
C595 C 0.75537 0.07425 0.49913 0.0
C596 C 0.72639 0.10174 0.4575 0.0
C597 C 0.75626 0.12495 0.45857 0.0
C598 C 0.78546 0.12277 0.48056 0.0
C599 C 0.78504 0.09781 0.50045 0.0
H600 H 0.34885 0.41029 0.85062 0.0
H601 H 0.29349 0.41502 0.93323 0.0
H602 H 0.39844 0.41301 0.89575 0.0
H603 H 0.34291 0.41711 0.97815 0.0
H604 H 0.41588 0.34779 0.00958 0.0
H605 H 0.37108 0.36241 0.9721 0.0
H606 H 0.43903 0.45317 0.96371 0.0
H607 H 0.48435 0.43901 0.00278 0.0
C608 C 0.34756 0.41267 0.87857 0.0
C609 C 0.31742 0.41224 0.88852 0.0
C610 C 0.3759 0.4145 0.90434 0.0
C611 C 0.37434 0.41531 0.94027 0.0
C612 C 0.34465 0.41669 0.95057 0.0
C613 C 0.31648 0.41551 0.92496 0.0
C614 C 0.42131 0.37099 0.99993 0.0
C615 C 0.45356 0.39216 0.00872 0.0
C616 C 0.39563 0.37948 0.97879 0.0
C617 C 0.40168 0.40896 0.96531 0.0
C618 C 0.43388 0.43038 0.97406 0.0
C619 C 0.45966 0.42232 0.99625 0.0
H620 H 0.3298 0.87643 0.35315 0.0
H621 H 0.22543 0.84498 0.30404 0.0
H622 H 0.3229 0.92896 0.38862 0.0
H623 H 0.21845 0.89796 0.33898 0.0
H624 H 0.21527 0.97398 0.44328 0.0
H625 H 0.21894 0.9241 0.39982 0.0
H626 H 0.31126 0.98251 0.38689 0.0
H627 H 0.3081 0.03156 0.43106 0.0
C628 C 0.30549 0.88112 0.34939 0.0
C629 C 0.27818 0.85653 0.32592 0.0
C630 C 0.30146 0.91129 0.3697 0.0
C631 C 0.27004 0.91779 0.36679 0.0
C632 C 0.24288 0.8936 0.34242 0.0
C633 C 0.2469 0.8633 0.32229 0.0
C634 C 0.23603 0.97621 0.43067 0.0
C635 C 0.26157 0.0065 0.44089 0.0
C636 C 0.23816 0.94767 0.4057 0.0
C637 C 0.26571 0.94904 0.3902 0.0
C638 C 0.29016 0.98014 0.39895 0.0
C639 C 0.28822 0.00838 0.42412 0.0
H640 H 0.64183 0.76289 0.78249 0.0
H641 H 0.71895 0.77107 0.87578 0.0
H642 H 0.6008 0.75329 0.81846 0.0
H643 H 0.67766 0.75929 0.91047 0.0
H644 H 0.58991 0.70862 0.95227 0.0
H645 H 0.62464 0.70858 0.90822 0.0
H646 H 0.59374 0.79473 0.87786 0.0
H647 H 0.55994 0.79541 0.92236 0.0
C648 C 0.65016 0.76256 0.81047 0.0
C649 C 0.68395 0.76784 0.82603 0.0
C650 C 0.62655 0.75665 0.83089 0.0
C651 C 0.63611 0.75512 0.86702 0.0
C652 C 0.66961 0.75965 0.88242 0.0
C653 C 0.69325 0.7663 0.86236 0.0
C654 C 0.59002 0.72698 0.93557 0.0
C655 C 0.57239 0.75207 0.94069 0.0
C656 C 0.60996 0.72709 0.91059 0.0
C657 C 0.61181 0.75169 0.88977 0.0
C658 C 0.59255 0.77536 0.89339 0.0
C659 C 0.57334 0.7758 0.9189 0.0
loop_
_geom_bond_atom_site_label_1
_geom_bond_atom_site_label_2
_geom_bond_distance
_geom_bond_site_symmetry_2
_ccdc_geom_bond_type
H0 C5 0.930 . S
H1 C8 0.930 . S
H2 C10 0.930 . S
H3 C4 1.016 . S
C4 H3 1.016 . S
C4 N11 1.286 . S
C5 H0 0.930 . S
C5 C6 1.397 . S
C5 C7 1.361 . S
C6 C5 1.397 . S
C6 C10 1.390 . S
C7 C5 1.361 . S
C7 C8 1.393 . S
C7 N11 1.413 . S
C8 H1 0.930 . S
C8 C7 1.393 . S
C8 C9 1.399 . S
C9 C8 1.399 . S
C9 C10 1.381 . S
C10 H2 0.930 . S
C10 C6 1.390 . S
C10 C9 1.381 . S
N11 C4 1.286 . S
N11 C7 1.413 . S
H12 C17 0.930 . S
H13 C20 0.930 . S
H14 C22 0.930 . S
H15 C16 1.016 . S
C16 H15 1.016 . S
C16 N23 1.286 . S
C17 H12 0.930 . S
C17 C18 1.397 . S
C17 C19 1.361 . S
C18 C17 1.397 . S
C18 C22 1.390 . S
C19 C17 1.361 . S
C19 C20 1.393 . S
C19 N23 1.413 . S
C20 H13 0.930 . S
C20 C19 1.393 . S
C20 C21 1.399 . S
C21 C20 1.399 . S
C21 C22 1.381 . S
C22 H14 0.930 . S
C22 C18 1.390 . S
C22 C21 1.381 . S
N23 C16 1.286 . S
N23 C19 1.413 . S
H24 C29 0.930 . S
H25 C32 0.930 . S
H26 C34 0.930 . S
H27 C28 1.016 . S
C28 H27 1.016 . S
C28 N35 1.286 . S
C29 H24 0.930 . S
C29 C30 1.397 . S
C29 C31 1.361 . S
C30 C29 1.397 . S
C30 C34 1.390 . S
C31 C29 1.361 . S
C31 C32 1.393 . S
C31 N35 1.413 . S
C32 H25 0.930 . S
C32 C31 1.393 . S
C32 C33 1.399 . S
C33 C32 1.399 . S
C33 C34 1.381 . S
C34 H26 0.930 . S
C34 C30 1.390 . S
C34 C33 1.381 . S
N35 C28 1.286 . S
N35 C31 1.413 . S
H36 C41 0.930 . S
H37 C44 0.930 . S
H38 C46 0.930 . S
H39 C40 1.016 . S
C40 H39 1.016 . S
C40 N47 1.286 . S
C41 H36 0.930 . S
C41 C42 1.397 . S
C41 C43 1.361 . S
C42 C41 1.397 . S
C42 C46 1.390 . S
C43 C41 1.361 . S
C43 C44 1.393 . S
C43 N47 1.413 . S
C44 H37 0.930 . S
C44 C43 1.393 . S
C44 C45 1.399 . S
C45 C44 1.399 . S
C45 C46 1.381 . S
C46 H38 0.930 . S
C46 C42 1.390 . S
C46 C45 1.381 . S
N47 C40 1.286 . S
N47 C43 1.413 . S
H48 C53 0.930 . S
H49 C56 0.930 . S
H50 C58 0.930 . S
H51 C52 1.016 . S
C52 H51 1.016 . S
C52 N59 1.286 . S
C53 H48 0.930 . S
C53 C54 1.397 . S
C53 C55 1.361 . S
C54 C53 1.397 . S
C54 C58 1.390 . S
C55 C53 1.361 . S
C55 C56 1.393 . S
C55 N59 1.413 . S
C56 H49 0.930 . S
C56 C55 1.393 . S
C56 C57 1.399 . S
C57 C56 1.399 . S
C57 C58 1.381 . S
C58 H50 0.930 . S
C58 C54 1.390 . S
C58 C57 1.381 . S
N59 C52 1.286 . S
N59 C55 1.413 . S
H60 C65 0.930 . S
H61 C68 0.930 . S
H62 C70 0.930 . S
H63 C64 1.016 . S
C64 H63 1.016 . S
C64 N71 1.286 . S
C65 H60 0.930 . S
C65 C66 1.397 . S
C65 C67 1.361 . S
C66 C65 1.397 . S
C66 C70 1.390 . S
C67 C65 1.361 . S
C67 C68 1.393 . S
C67 N71 1.413 . S
C68 H61 0.930 . S
C68 C67 1.393 . S
C68 C69 1.399 . S
C69 C68 1.399 . S
C69 C70 1.381 . S
C70 H62 0.930 . S
C70 C66 1.390 . S
C70 C69 1.381 . S
N71 C64 1.286 . S
N71 C67 1.413 . S
H72 C77 0.930 . S
H73 C80 0.930 . S
H74 C82 0.930 . S
H75 C76 1.016 . S
C76 H75 1.016 . S
C76 N83 1.286 . S
C77 H72 0.930 . S
C77 C78 1.397 . S
C77 C79 1.361 . S
C78 C77 1.397 . S
C78 C82 1.390 . S
C79 C77 1.361 . S
C79 C80 1.393 . S
C79 N83 1.413 . S
C80 H73 0.930 . S
C80 C79 1.393 . S
C80 C81 1.399 . S
C81 C80 1.399 . S
C81 C82 1.381 . S
C82 H74 0.930 . S
C82 C78 1.390 . S
C82 C81 1.381 . S
N83 C76 1.286 . S
N83 C79 1.413 . S
H84 C89 0.930 . S
H85 C92 0.930 . S
H86 C94 0.930 . S
H87 C88 1.016 . S
C88 H87 1.016 . S
C88 N95 1.286 . S
C89 H84 0.930 . S
C89 C90 1.397 . S
C89 C91 1.361 . S
C90 C89 1.397 . S
C90 C94 1.390 . S
C91 C89 1.361 . S
C91 C92 1.393 . S
C91 N95 1.413 . S
C92 H85 0.930 . S
C92 C91 1.393 . S
C92 C93 1.399 . S
C93 C92 1.399 . S
C93 C94 1.381 . S
C94 H86 0.930 . S
C94 C90 1.390 . S
C94 C93 1.381 . S
N95 C88 1.286 . S
N95 C91 1.413 . S
C96 O98 1.247 . S
C96 O100 1.258 . S
C97 O104 1.247 . S
C97 O105 1.258 . S
O98 C96 1.247 . S
O98 Zn99 2.028 1_655 S
Zn99 O98 2.028 1_455 S
Zn99 O103 2.035 . S
Zn99 O105 2.035 . S
Zn99 O106 2.028 . S
O100 C96 1.258 . S
O100 Zn101 2.035 1_655 S
Zn101 O100 2.035 1_455 S
Zn101 O102 2.028 . S
Zn101 O104 2.028 . S
Zn101 O107 2.035 1_455 S
O102 Zn101 2.028 . S
O102 C108 1.247 . S
O103 Zn99 2.035 . S
O103 C108 1.258 . S
O104 C97 1.247 . S
O104 Zn101 2.028 . S
O105 C97 1.258 . S
O105 Zn99 2.035 . S
O106 Zn99 2.028 . S
O106 C109 1.247 1_455 S
O107 Zn101 2.035 1_655 S
O107 C109 1.258 . S
C108 O102 1.247 . S
C108 O103 1.258 . S
C109 O106 1.247 1_655 S
C109 O107 1.258 . S
C110 O112 1.247 . S
C110 O114 1.258 . S
C111 O118 1.247 . S
C111 O119 1.258 . S
O112 C110 1.247 . S
O112 Zn113 2.028 . S
Zn113 O112 2.028 . S
Zn113 O117 2.035 . S
Zn113 O119 2.035 . S
Zn113 O120 2.028 . S
O114 C110 1.258 . S
O114 Zn115 2.035 . S
Zn115 O114 2.035 . S
Zn115 O116 2.028 . S
Zn115 O118 2.028 . S
Zn115 O121 2.035 . S
O116 Zn115 2.028 . S
O116 C122 1.247 . S
O117 Zn113 2.035 . S
O117 C122 1.258 . S
O118 C111 1.247 . S
O118 Zn115 2.028 . S
O119 C111 1.258 . S
O119 Zn113 2.035 . S
O120 Zn113 2.028 . S
O120 C123 1.247 . S
O121 Zn115 2.035 . S
O121 C123 1.258 . S
C122 O116 1.247 . S
C122 O117 1.258 . S
C123 O120 1.247 . S
C123 O121 1.258 . S
C124 O126 1.247 . S
C124 O128 1.258 . S
C125 O132 1.247 . S
C125 O133 1.258 . S
O126 C124 1.247 . S
O126 Zn127 2.028 . S
Zn127 O126 2.028 . S
Zn127 O131 2.035 1_565 S
Zn127 O133 2.035 1_565 S
Zn127 O134 2.028 . S
O128 C124 1.258 . S
O128 Zn129 2.035 1_565 S
Zn129 O128 2.035 1_545 S
Zn129 O130 2.028 . S
Zn129 O132 2.028 . S
Zn129 O135 2.035 1_545 S
O130 Zn129 2.028 . S
O130 C136 1.247 . S
O131 Zn127 2.035 1_545 S
O131 C136 1.258 . S
O132 C125 1.247 . S
O132 Zn129 2.028 . S
O133 C125 1.258 . S
O133 Zn127 2.035 1_545 S
O134 Zn127 2.028 . S
O134 C137 1.247 . S
O135 Zn129 2.035 1_565 S
O135 C137 1.258 . S
C136 O130 1.247 . S
C136 O131 1.258 . S
C137 O134 1.247 . S
C137 O135 1.258 . S
C138 O140 1.247 . S
C138 O142 1.258 . S
C139 O146 1.247 . S
C139 O147 1.258 . S
O140 C138 1.247 . S
O140 Zn141 2.028 1_554 S
Zn141 O140 2.028 1_556 S
Zn141 O145 2.035 1_556 S
Zn141 O147 2.035 . S
Zn141 O148 2.028 . S
O142 C138 1.258 . S
O142 Zn143 2.035 . S
Zn143 O142 2.035 . S
Zn143 O144 2.028 . S
Zn143 O146 2.028 1_554 S
Zn143 O149 2.035 1_554 S
O144 Zn143 2.028 . S
O144 C150 1.247 . S
O145 Zn141 2.035 1_554 S
O145 C150 1.258 . S
O146 C139 1.247 . S
O146 Zn143 2.028 1_556 S
O147 C139 1.258 . S
O147 Zn141 2.035 . S
O148 Zn141 2.028 . S
O148 C151 1.247 . S
O149 Zn143 2.035 1_556 S
O149 C151 1.258 . S
C150 O144 1.247 . S
C150 O145 1.258 . S
C151 O148 1.247 . S
C151 O149 1.258 . S
C152 O154 1.247 . S
C152 O156 1.258 1_565 S
C153 O160 1.247 . S
C153 O161 1.258 . S
O154 C152 1.247 . S
O154 Zn155 2.028 1_565 S
Zn155 O154 2.028 1_545 S
Zn155 O159 2.035 . S
Zn155 O161 2.035 . S
Zn155 O162 2.028 1_545 S
O156 C152 1.258 1_545 S
O156 Zn157 2.035 . S
Zn157 O156 2.035 . S
Zn157 O158 2.028 . S
Zn157 O160 2.028 . S
Zn157 O163 2.035 . S
O158 Zn157 2.028 . S
O158 C164 1.247 . S
O159 Zn155 2.035 . S
O159 C164 1.258 . S
O160 C153 1.247 . S
O160 Zn157 2.028 . S
O161 C153 1.258 . S
O161 Zn155 2.035 . S
O162 Zn155 2.028 1_565 S
O162 C165 1.247 . S
O163 Zn157 2.035 . S
O163 C165 1.258 1_545 S
C164 O158 1.247 . S
C164 O159 1.258 . S
C165 O162 1.247 . S
C165 O163 1.258 1_565 S
C166 O168 1.247 . S
C166 O170 1.258 . S
C167 O174 1.247 . S
C167 O175 1.258 . S
O168 C166 1.247 . S
O168 Zn169 2.028 . S
Zn169 O168 2.028 . S
Zn169 O173 2.035 . S
Zn169 O175 2.035 . S
Zn169 O176 2.028 . S
O170 C166 1.258 . S
O170 Zn171 2.035 . S
Zn171 O170 2.035 . S
Zn171 O172 2.028 . S
Zn171 O174 2.028 . S
Zn171 O177 2.035 . S
O172 Zn171 2.028 . S
O172 C178 1.247 . S
O173 Zn169 2.035 . S
O173 C178 1.258 . S
O174 C167 1.247 . S
O174 Zn171 2.028 . S
O175 C167 1.258 . S
O175 Zn169 2.035 . S
O176 Zn169 2.028 . S
O176 C179 1.247 . S
O177 Zn171 2.035 . S
O177 C179 1.258 . S
C178 O172 1.247 . S
C178 O173 1.258 . S
C179 O176 1.247 . S
C179 O177 1.258 . S
H180 C188 0.950 . S
H181 C193 0.950 . S
H182 C190 0.950 . S
H183 C192 0.950 . S
H184 C194 0.950 . S
H185 C196 0.950 . S
H186 C198 0.950 . S
H187 C199 0.950 . S
C188 H180 0.950 . S
C188 C189 1.386 . S
C188 C190 1.391 . S
C189 C188 1.386 . S
C189 C193 1.393 . S
C190 H182 0.950 . S
C190 C188 1.391 . S
C190 C191 1.400 . S
C191 C190 1.400 . S
C191 C192 1.398 . S
C191 C197 1.491 . S
C192 H183 0.950 . S
C192 C191 1.398 . S
C192 C193 1.391 . S
C193 H181 0.950 . S
C193 C189 1.393 . S
C193 C192 1.391 . S
C194 H184 0.950 . S
C194 C195 1.386 . S
C194 C196 1.391 . S
C195 C194 1.386 . S
C195 C199 1.393 . S
C196 H185 0.950 . S
C196 C194 1.391 . S
C196 C197 1.400 . S
C197 C191 1.491 . S
C197 C196 1.400 . S
C197 C198 1.398 . S
C198 H186 0.950 . S
C198 C197 1.398 . S
C198 C199 1.391 . S
C199 H187 0.950 . S
C199 C195 1.393 . S
C199 C198 1.391 . S
H200 C208 0.950 . S
H201 C213 0.950 . S
H202 C210 0.950 . S
H203 C212 0.950 . S
H204 C214 0.950 . S
H205 C216 0.950 . S
H206 C218 0.950 . S
H207 C219 0.950 . S
C208 H200 0.950 . S
C208 C209 1.386 . S
C208 C210 1.391 . S
C209 C208 1.386 . S
C209 C213 1.393 . S
C210 H202 0.950 . S
C210 C208 1.391 . S
C210 C211 1.400 . S
C211 C210 1.400 . S
C211 C212 1.398 . S
C211 C217 1.491 . S
C212 H203 0.950 . S
C212 C211 1.398 . S
C212 C213 1.391 . S
C213 H201 0.950 . S
C213 C209 1.393 . S
C213 C212 1.391 . S
C214 H204 0.950 . S
C214 C215 1.386 . S
C214 C216 1.391 . S
C215 C214 1.386 . S
C215 C219 1.393 . S
C216 H205 0.950 . S
C216 C214 1.391 . S
C216 C217 1.400 . S
C217 C211 1.491 . S
C217 C216 1.400 . S
C217 C218 1.398 . S
C218 H206 0.950 . S
C218 C217 1.398 . S
C218 C219 1.391 . S
C219 H207 0.950 . S
C219 C215 1.393 . S
C219 C218 1.391 . S
H220 C228 0.950 . S
H221 C233 0.950 . S
H222 C230 0.950 . S
H223 C232 0.950 . S
H224 C234 0.950 . S
H225 C236 0.950 . S
H226 C238 0.950 . S
H227 C239 0.950 . S
C228 H220 0.950 . S
C228 C229 1.386 . S
C228 C230 1.391 . S
C229 C228 1.386 . S
C229 C233 1.393 . S
C230 H222 0.950 . S
C230 C228 1.391 . S
C230 C231 1.400 . S
C231 C230 1.400 . S
C231 C232 1.398 . S
C231 C237 1.491 . S
C232 H223 0.950 . S
C232 C231 1.398 . S
C232 C233 1.391 . S
C233 H221 0.950 . S
C233 C229 1.393 . S
C233 C232 1.391 . S
C234 H224 0.950 . S
C234 C235 1.386 . S
C234 C236 1.391 . S
C235 C234 1.386 . S
C235 C239 1.393 . S
C236 H225 0.950 . S
C236 C234 1.391 . S
C236 C237 1.400 . S
C237 C231 1.491 . S
C237 C236 1.400 . S
C237 C238 1.398 . S
C238 H226 0.950 . S
C238 C237 1.398 . S
C238 C239 1.391 . S
C239 H227 0.950 . S
C239 C235 1.393 . S
C239 C238 1.391 . S
H240 C248 0.950 . S
H241 C253 0.950 . S
H242 C250 0.950 . S
H243 C252 0.950 . S
H244 C254 0.950 . S
H245 C256 0.950 . S
H246 C258 0.950 . S
H247 C259 0.950 . S
C248 H240 0.950 . S
C248 C249 1.386 . S
C248 C250 1.391 . S
C249 C248 1.386 . S
C249 C253 1.393 . S
C250 H242 0.950 . S
C250 C248 1.391 . S
C250 C251 1.400 . S
C251 C250 1.400 . S
C251 C252 1.398 . S
C251 C257 1.491 . S
C252 H243 0.950 . S
C252 C251 1.398 . S
C252 C253 1.391 . S
C253 H241 0.950 . S
C253 C249 1.393 . S
C253 C252 1.391 . S
C254 H244 0.950 . S
C254 C255 1.386 . S
C254 C256 1.391 . S
C255 C254 1.386 . S
C255 C259 1.393 . S
C256 H245 0.950 . S
C256 C254 1.391 . S
C256 C257 1.400 . S
C257 C251 1.491 . S
C257 C256 1.400 . S
C257 C258 1.398 . S
C258 H246 0.950 . S
C258 C257 1.398 . S
C258 C259 1.391 . S
C259 H247 0.950 . S
C259 C255 1.393 . S
C259 C258 1.391 . S
H260 C268 0.950 . S
H261 C273 0.950 . S
H262 C270 0.950 . S
H263 C272 0.950 . S
H264 C274 0.950 . S
H265 C276 0.950 . S
H266 C278 0.950 . S
H267 C279 0.950 . S
C268 H260 0.950 . S
C268 C269 1.386 . S
C268 C270 1.391 . S
C269 C268 1.386 . S
C269 C273 1.393 . S
C270 H262 0.950 . S
C270 C268 1.391 . S
C270 C271 1.400 . S
C271 C270 1.400 . S
C271 C272 1.398 . S
C271 C277 1.491 . S
C272 H263 0.950 . S
C272 C271 1.398 . S
C272 C273 1.391 . S
C273 H261 0.950 . S
C273 C269 1.393 . S
C273 C272 1.391 . S
C274 H264 0.950 . S
C274 C275 1.386 . S
C274 C276 1.391 . S
C275 C274 1.386 . S
C275 C279 1.393 . S
C276 H265 0.950 . S
C276 C274 1.391 . S
C276 C277 1.400 . S
C277 C271 1.491 . S
C277 C276 1.400 . S
C277 C278 1.398 . S
C278 H266 0.950 . S
C278 C277 1.398 . S
C278 C279 1.391 . S
C279 H267 0.950 . S
C279 C275 1.393 . S
C279 C278 1.391 . S
H280 C288 0.950 . S
H281 C293 0.950 . S
H282 C290 0.950 . S
H283 C292 0.950 . S
H284 C294 0.950 . S
H285 C296 0.950 . S
H286 C298 0.950 . S
H287 C299 0.950 . S
C288 H280 0.950 . S
C288 C289 1.386 . S
C288 C290 1.391 . S
C289 C288 1.386 . S
C289 C293 1.393 . S
C290 H282 0.950 . S
C290 C288 1.391 . S
C290 C291 1.400 . S
C291 C290 1.400 . S
C291 C292 1.398 . S
C291 C297 1.491 . S
C292 H283 0.950 . S
C292 C291 1.398 . S
C292 C293 1.391 . S
C293 H281 0.950 . S
C293 C289 1.393 . S
C293 C292 1.391 . S
C294 H284 0.950 . S
C294 C295 1.386 . S
C294 C296 1.391 . S
C295 C294 1.386 . S
C295 C299 1.393 . S
C296 H285 0.950 . S
C296 C294 1.391 . S
C296 C297 1.400 . S
C297 C291 1.491 . S
C297 C296 1.400 . S
C297 C298 1.398 . S
C298 H286 0.950 . S
C298 C297 1.398 . S
C298 C299 1.391 . S
C299 H287 0.950 . S
C299 C295 1.393 . S
C299 C298 1.391 . S
H300 C308 0.950 . S
H301 C313 0.950 . S
H302 C310 0.950 . S
H303 C312 0.950 . S
H304 C314 0.950 . S
H305 C316 0.950 . S
H306 C318 0.950 . S
H307 C319 0.957 . S
C308 H300 0.950 . S
C308 C309 1.386 . S
C308 C310 1.391 . S
C309 C308 1.386 . S
C309 C313 1.393 . S
C310 H302 0.950 . S
C310 C308 1.391 . S
C310 C311 1.400 . S
C311 C310 1.400 . S
C311 C312 1.398 . S
C311 C317 1.491 . S
C312 H303 0.950 . S
C312 C311 1.398 . S
C312 C313 1.391 . S
C313 H301 0.950 . S
C313 C309 1.393 . S
C313 C312 1.391 . S
C314 H304 0.950 . S
C314 C315 1.386 . S
C314 C316 1.391 . S
C315 C314 1.386 . S
C315 C319 1.393 . S
C316 H305 0.950 . S
C316 C314 1.391 . S
C316 C317 1.400 . S
C317 C311 1.491 . S
C317 C316 1.400 . S
C317 C318 1.398 . S
C318 H306 0.950 . S
C318 C317 1.398 . S
C318 C319 1.391 . S
C319 H307 0.957 . S
C319 C315 1.393 . S
C319 C318 1.391 . S
H320 C328 0.950 . S
H321 C333 0.950 . S
H322 C330 0.950 . S
H323 C332 0.950 1_554 S
H324 C334 0.950 . S
H325 C336 0.950 . S
H326 C338 0.945 1_556 S
H327 C339 0.950 . S
C328 H320 0.950 . S
C328 C329 1.386 . S
C328 C330 1.391 . S
C329 C328 1.386 . S
C329 C333 1.393 . S
C330 H322 0.950 . S
C330 C328 1.391 . S
C330 C331 1.400 . S
C331 C330 1.400 . S
C331 C332 1.398 . S
C331 C337 1.491 1_556 S
C332 H323 0.950 1_556 S
C332 C331 1.398 . S
C332 C333 1.391 . S
C333 H321 0.950 . S
C333 C329 1.393 . S
C333 C332 1.391 . S
C334 H324 0.950 . S
C334 C335 1.386 . S
C334 C336 1.391 . S
C335 C334 1.386 . S
C335 C339 1.393 . S
C336 H325 0.950 . S
C336 C334 1.391 . S
C336 C337 1.400 . S
C337 C331 1.491 1_554 S
C337 C336 1.400 . S
C337 C338 1.398 . S
C338 H326 0.945 1_554 S
C338 C337 1.398 . S
C338 C339 1.395 . S
C339 H327 0.950 . S
C339 C335 1.393 . S
C339 C338 1.395 . S
H340 C348 0.950 . S
H341 C353 0.950 . S
H342 C350 0.950 . S
H343 C352 0.950 . S
H344 C354 0.950 . S
H345 C356 0.950 . S
H346 C358 0.950 . S
H347 C359 0.950 . S
C348 H340 0.950 . S
C348 C349 1.386 . S
C348 C350 1.391 . S
C349 C348 1.386 . S
C349 C353 1.393 . S
C350 H342 0.950 . S
C350 C348 1.391 . S
C350 C351 1.400 . S
C351 C350 1.400 . S
C351 C352 1.398 . S
C351 C357 1.491 . S
C352 H343 0.950 . S
C352 C351 1.398 . S
C352 C353 1.391 . S
C353 H341 0.950 . S
C353 C349 1.393 . S
C353 C352 1.391 . S
C354 H344 0.950 . S
C354 C355 1.386 . S
C354 C356 1.391 . S
C355 C354 1.386 . S
C355 C359 1.393 . S
C356 H345 0.950 . S
C356 C354 1.391 . S
C356 C357 1.400 . S
C357 C351 1.491 . S
C357 C356 1.400 . S
C357 C358 1.398 . S
C358 H346 0.950 . S
C358 C357 1.398 . S
C358 C359 1.391 . S
C359 H347 0.950 . S
C359 C355 1.393 . S
C359 C358 1.391 . S
H360 C368 0.950 . S
H361 C373 0.950 . S
H362 C370 0.950 . S
H363 C372 0.950 . S
H364 C374 0.950 . S
H365 C376 0.950 . S
H366 C378 0.950 . S
H367 C379 0.950 . S
C368 H360 0.950 . S
C368 C369 1.386 . S
C368 C370 1.391 . S
C369 C368 1.386 . S
C369 C373 1.393 . S
C370 H362 0.950 . S
C370 C368 1.391 . S
C370 C371 1.400 . S
C371 C370 1.400 . S
C371 C372 1.398 . S
C371 C377 1.491 . S
C372 H363 0.950 . S
C372 C371 1.398 . S
C372 C373 1.391 . S
C373 H361 0.950 . S
C373 C369 1.393 . S
C373 C372 1.391 . S
C374 H364 0.950 . S
C374 C375 1.386 . S
C374 C376 1.391 . S
C375 C374 1.386 . S
C375 C379 1.393 . S
C376 H365 0.950 . S
C376 C374 1.391 . S
C376 C377 1.400 . S
C377 C371 1.491 . S
C377 C376 1.400 . S
C377 C378 1.398 . S
C378 H366 0.950 . S
C378 C377 1.398 . S
C378 C379 1.391 . S
C379 H367 0.950 . S
C379 C375 1.393 . S
C379 C378 1.391 . S
H380 C388 0.950 . S
H381 C393 0.950 . S
H382 C390 0.950 . S
H383 C392 0.950 . S
H384 C394 0.950 . S
H385 C396 0.950 . S
H386 C398 0.950 . S
H387 C399 0.950 . S
C388 H380 0.950 . S
C388 C389 1.386 . S
C388 C390 1.391 . S
C389 C388 1.386 . S
C389 C393 1.393 . S
C390 H382 0.950 . S
C390 C388 1.391 . S
C390 C391 1.400 . S
C391 C390 1.400 . S
C391 C392 1.398 . S
C391 C397 1.491 . S
C392 H383 0.950 . S
C392 C391 1.398 . S
C392 C393 1.391 . S
C393 H381 0.950 . S
C393 C389 1.393 . S
C393 C392 1.391 . S
C394 H384 0.950 . S
C394 C395 1.386 . S
C394 C396 1.391 . S
C395 C394 1.386 . S
C395 C399 1.393 . S
C396 H385 0.950 . S
C396 C394 1.391 . S
C396 C397 1.400 . S
C397 C391 1.491 . S
C397 C396 1.400 . S
C397 C398 1.398 . S
C398 H386 0.950 . S
C398 C397 1.398 . S
C398 C399 1.391 . S
C399 H387 0.950 . S
C399 C395 1.393 . S
C399 C398 1.391 . S
H400 C408 0.950 . S
H401 C413 0.950 . S
H402 C410 0.950 . S
H403 C412 0.950 . S
H404 C414 0.950 . S
H405 C416 0.950 . S
H406 C418 0.950 . S
H407 C419 0.950 . S
C408 H400 0.950 . S
C408 C409 1.386 . S
C408 C410 1.391 . S
C409 C408 1.386 . S
C409 C413 1.393 . S
C410 H402 0.950 . S
C410 C408 1.391 . S
C410 C411 1.400 . S
C411 C410 1.400 . S
C411 C412 1.398 . S
C411 C417 1.491 . S
C412 H403 0.950 . S
C412 C411 1.398 . S
C412 C413 1.391 . S
C413 H401 0.950 . S
C413 C409 1.393 . S
C413 C412 1.391 . S
C414 H404 0.950 . S
C414 C415 1.386 . S
C414 C416 1.391 . S
C415 C414 1.386 . S
C415 C419 1.393 . S
C416 H405 0.950 . S
C416 C414 1.391 . S
C416 C417 1.400 . S
C417 C411 1.491 . S
C417 C416 1.400 . S
C417 C418 1.398 . S
C418 H406 0.950 . S
C418 C417 1.398 . S
C418 C419 1.391 . S
C419 H407 0.950 . S
C419 C415 1.393 . S
C419 C418 1.391 . S
H420 C428 0.950 . S
H421 C433 0.950 . S
H422 C430 0.950 . S
H423 C432 0.950 . S
H424 C434 0.950 . S
H425 C436 0.950 . S
H426 C438 0.950 . S
H427 C439 0.949 . S
C428 H420 0.950 . S
C428 C429 1.386 . S
C428 C430 1.391 . S
C429 C428 1.386 . S
C429 C433 1.393 . S
C430 H422 0.950 . S
C430 C428 1.391 . S
C430 C431 1.400 . S
C431 C430 1.400 . S
C431 C432 1.398 . S
C431 C437 1.491 . S
C432 H423 0.950 . S
C432 C431 1.398 . S
C432 C433 1.391 . S
C433 H421 0.950 . S
C433 C429 1.393 . S
C433 C432 1.391 . S
C434 H424 0.950 . S
C434 C435 1.386 . S
C434 C436 1.391 . S
C435 C434 1.386 . S
C435 C439 1.393 1_655 S
C436 H425 0.950 . S
C436 C434 1.391 . S
C436 C437 1.400 . S
C437 C431 1.491 . S
C437 C436 1.400 . S
C437 C438 1.398 . S
C438 H426 0.950 . S
C438 C437 1.398 . S
C438 C439 1.391 1_655 S
C439 H427 0.949 . S
C439 C435 1.393 1_455 S
C439 C438 1.391 1_455 S
H440 C448 0.950 . S
H441 C453 0.950 . S
H442 C450 0.950 . S
H443 C452 0.950 . S
H444 C454 0.950 . S
H445 C456 0.950 . S
H446 C458 0.950 . S
H447 C459 0.950 . S
C448 H440 0.950 . S
C448 C449 1.386 . S
C448 C450 1.391 . S
C449 C448 1.386 . S
C449 C453 1.393 . S
C450 H442 0.950 . S
C450 C448 1.391 . S
C450 C451 1.400 . S
C451 C450 1.400 . S
C451 C452 1.398 . S
C451 C457 1.491 . S
C452 H443 0.950 . S
C452 C451 1.398 . S
C452 C453 1.391 . S
C453 H441 0.950 . S
C453 C449 1.393 . S
C453 C452 1.391 . S
C454 H444 0.950 . S
C454 C455 1.386 . S
C454 C456 1.391 . S
C455 C454 1.386 . S
C455 C459 1.393 . S
C456 H445 0.950 . S
C456 C454 1.391 . S
C456 C457 1.400 . S
C457 C451 1.491 . S
C457 C456 1.400 . S
C457 C458 1.398 . S
C458 H446 0.950 . S
C458 C457 1.398 . S
C458 C459 1.391 . S
C459 H447 0.950 . S
C459 C455 1.393 . S
C459 C458 1.391 . S
H460 C468 0.950 . S
H461 C473 0.950 . S
H462 C470 0.950 . S
H463 C472 0.950 . S
H464 C474 0.950 . S
H465 C476 0.950 . S
H466 C478 0.950 . S
H467 C479 0.950 . S
C468 H460 0.950 . S
C468 C469 1.386 . S
C468 C470 1.391 . S
C469 C468 1.386 . S
C469 C473 1.393 . S
C470 H462 0.950 . S
C470 C468 1.391 . S
C470 C471 1.400 . S
C471 C470 1.400 . S
C471 C472 1.398 . S
C471 C477 1.491 . S
C472 H463 0.950 . S
C472 C471 1.398 . S
C472 C473 1.391 . S
C473 H461 0.950 . S
C473 C469 1.393 . S
C473 C472 1.391 . S
C474 H464 0.950 . S
C474 C475 1.386 . S
C474 C476 1.391 . S
C475 C474 1.386 . S
C475 C479 1.393 . S
C476 H465 0.950 . S
C476 C474 1.391 . S
C476 C477 1.400 . S
C477 C471 1.491 . S
C477 C476 1.400 . S
C477 C478 1.398 . S
C478 H466 0.950 . S
C478 C477 1.398 . S
C478 C479 1.391 . S
C479 H467 0.950 . S
C479 C475 1.393 . S
C479 C478 1.391 . S
H480 C488 0.950 . S
H481 C493 0.950 . S
H482 C490 0.950 . S
H483 C492 0.950 . S
H484 C494 0.950 . S
H485 C496 0.950 . S
H486 C498 0.950 . S
H487 C499 0.950 . S
C488 H480 0.950 . S
C488 C489 1.386 . S
C488 C490 1.391 . S
C489 C488 1.386 . S
C489 C493 1.393 . S
C490 H482 0.950 . S
C490 C488 1.391 . S
C490 C491 1.400 . S
C491 C490 1.400 . S
C491 C492 1.398 . S
C491 C497 1.491 . S
C492 H483 0.950 . S
C492 C491 1.398 . S
C492 C493 1.391 . S
C493 H481 0.950 . S
C493 C489 1.393 . S
C493 C492 1.391 . S
C494 H484 0.950 . S
C494 C495 1.386 . S
C494 C496 1.391 . S
C495 C494 1.386 . S
C495 C499 1.393 . S
C496 H485 0.950 . S
C496 C494 1.391 . S
C496 C497 1.400 . S
C497 C491 1.491 . S
C497 C496 1.400 . S
C497 C498 1.398 . S
C498 H486 0.950 . S
C498 C497 1.398 . S
C498 C499 1.391 . S
C499 H487 0.950 . S
C499 C495 1.393 . S
C499 C498 1.391 . S
H500 C508 0.950 . S
H501 C513 0.950 . S
H502 C510 0.950 . S
H503 C512 0.950 . S
H504 C514 0.950 . S
H505 C516 0.950 . S
H506 C518 0.950 . S
H507 C519 0.950 . S
C508 H500 0.950 . S
C508 C509 1.386 . S
C508 C510 1.391 . S
C509 C508 1.386 . S
C509 C513 1.393 . S
C510 H502 0.950 . S
C510 C508 1.391 . S
C510 C511 1.400 . S
C511 C510 1.400 . S
C511 C512 1.398 . S
C511 C517 1.491 . S
C512 H503 0.950 . S
C512 C511 1.398 . S
C512 C513 1.391 . S
C513 H501 0.950 . S
C513 C509 1.393 . S
C513 C512 1.391 . S
C514 H504 0.950 . S
C514 C515 1.386 . S
C514 C516 1.391 . S
C515 C514 1.386 . S
C515 C519 1.393 . S
C516 H505 0.950 . S
C516 C514 1.391 . S
C516 C517 1.400 . S
C517 C511 1.491 . S
C517 C516 1.400 . S
C517 C518 1.398 . S
C518 H506 0.950 . S
C518 C517 1.398 . S
C518 C519 1.391 . S
C519 H507 0.950 . S
C519 C515 1.393 . S
C519 C518 1.391 . S
H520 C528 0.950 . S
H521 C533 0.950 . S
H522 C530 0.950 . S
H523 C532 0.950 . S
H524 C534 0.950 . S
H525 C536 0.950 . S
H526 C538 0.950 . S
H527 C539 0.950 . S
C528 H520 0.950 . S
C528 C529 1.386 . S
C528 C530 1.391 . S
C529 C528 1.386 . S
C529 C533 1.393 . S
C530 H522 0.950 . S
C530 C528 1.391 . S
C530 C531 1.400 . S
C531 C530 1.400 . S
C531 C532 1.398 . S
C531 C537 1.491 . S
C532 H523 0.950 . S
C532 C531 1.398 . S
C532 C533 1.391 . S
C533 H521 0.950 . S
C533 C529 1.393 . S
C533 C532 1.391 . S
C534 H524 0.950 . S
C534 C535 1.386 . S
C534 C536 1.391 . S
C535 C534 1.386 . S
C535 C539 1.393 . S
C536 H525 0.950 . S
C536 C534 1.391 . S
C536 C537 1.400 . S
C537 C531 1.491 . S
C537 C536 1.400 . S
C537 C538 1.398 . S
C538 H526 0.950 . S
C538 C537 1.398 . S
C538 C539 1.391 . S
C539 H527 0.950 . S
C539 C535 1.393 . S
C539 C538 1.391 . S
H540 C548 0.950 . S
H541 C553 0.950 . S
H542 C550 0.950 . S
H543 C552 0.950 . S
H544 C554 0.950 . S
H545 C556 0.950 . S
H546 C558 0.950 . S
H547 C559 0.950 . S
C548 H540 0.950 . S
C548 C549 1.386 . S
C548 C550 1.391 . S
C549 C548 1.386 . S
C549 C553 1.393 . S
C550 H542 0.950 . S
C550 C548 1.391 . S
C550 C551 1.400 . S
C551 C550 1.400 . S
C551 C552 1.398 . S
C551 C557 1.491 . S
C552 H543 0.950 . S
C552 C551 1.398 . S
C552 C553 1.391 . S
C553 H541 0.950 . S
C553 C549 1.393 . S
C553 C552 1.391 . S
C554 H544 0.950 . S
C554 C555 1.386 . S
C554 C556 1.391 . S
C555 C554 1.386 . S
C555 C559 1.393 . S
C556 H545 0.950 . S
C556 C554 1.391 . S
C556 C557 1.400 . S
C557 C551 1.491 . S
C557 C556 1.400 . S
C557 C558 1.398 . S
C558 H546 0.950 . S
C558 C557 1.398 . S
C558 C559 1.391 . S
C559 H547 0.950 . S
C559 C555 1.393 . S
C559 C558 1.391 . S
H560 C568 0.950 . S
H561 C573 0.950 . S
H562 C570 0.950 . S
H563 C572 0.950 . S
H564 C574 0.950 . S
H565 C576 0.950 . S
H566 C578 0.950 . S
H567 C579 0.950 . S
C568 H560 0.950 . S
C568 C569 1.386 . S
C568 C570 1.391 . S
C569 C568 1.386 . S
C569 C573 1.393 . S
C570 H562 0.950 . S
C570 C568 1.391 . S
C570 C571 1.400 . S
C571 C570 1.400 . S
C571 C572 1.398 . S
C571 C577 1.491 . S
C572 H563 0.950 . S
C572 C571 1.398 . S
C572 C573 1.391 . S
C573 H561 0.950 . S
C573 C569 1.393 . S
C573 C572 1.391 . S
C574 H564 0.950 . S
C574 C575 1.386 . S
C574 C576 1.391 . S
C575 C574 1.386 . S
C575 C579 1.393 . S
C576 H565 0.950 . S
C576 C574 1.391 . S
C576 C577 1.400 . S
C577 C571 1.491 . S
C577 C576 1.400 . S
C577 C578 1.398 . S
C578 H566 0.950 . S
C578 C577 1.398 . S
C578 C579 1.391 . S
C579 H567 0.950 . S
C579 C575 1.393 . S
C579 C578 1.391 . S
H580 C588 0.950 . S
H581 C593 0.950 . S
H582 C590 0.950 . S
H583 C592 0.950 . S
H584 C594 0.950 . S
H585 C596 0.950 . S
H586 C598 0.950 . S
H587 C599 0.950 . S
C588 H580 0.950 . S
C588 C589 1.386 . S
C588 C590 1.391 . S
C589 C588 1.386 . S
C589 C593 1.393 . S
C590 H582 0.950 . S
C590 C588 1.391 . S
C590 C591 1.400 . S
C591 C590 1.400 . S
C591 C592 1.398 . S
C591 C597 1.491 . S
C592 H583 0.950 . S
C592 C591 1.398 . S
C592 C593 1.391 . S
C593 H581 0.950 . S
C593 C589 1.393 . S
C593 C592 1.391 . S
C594 H584 0.950 . S
C594 C595 1.386 . S
C594 C596 1.391 . S
C595 C594 1.386 . S
C595 C599 1.393 . S
C596 H585 0.950 . S
C596 C594 1.391 . S
C596 C597 1.400 . S
C597 C591 1.491 . S
C597 C596 1.400 . S
C597 C598 1.398 . S
C598 H586 0.950 . S
C598 C597 1.398 . S
C598 C599 1.391 . S
C599 H587 0.950 . S
C599 C595 1.393 . S
C599 C598 1.391 . S
H600 C608 0.950 . S
H601 C613 0.950 . S
H602 C610 0.950 . S
H603 C612 0.950 . S
H604 C614 0.950 . S
H605 C616 0.951 1_554 S
H606 C618 0.950 . S
H607 C619 0.950 . S
C608 H600 0.950 . S
C608 C609 1.386 . S
C608 C610 1.391 . S
C609 C608 1.386 . S
C609 C613 1.393 . S
C610 H602 0.950 . S
C610 C608 1.391 . S
C610 C611 1.400 . S
C611 C610 1.400 . S
C611 C612 1.398 . S
C611 C617 1.491 . S
C612 H603 0.950 . S
C612 C611 1.398 . S
C612 C613 1.391 . S
C613 H601 0.950 . S
C613 C609 1.393 . S
C613 C612 1.391 . S
C614 H604 0.950 . S
C614 C615 1.386 . S
C614 C616 1.391 1_554 S
C615 C614 1.386 . S
C615 C619 1.393 1_554 S
C616 H605 0.951 1_556 S
C616 C614 1.391 1_556 S
C616 C617 1.400 . S
C617 C611 1.491 . S
C617 C616 1.400 . S
C617 C618 1.398 . S
C618 H606 0.950 . S
C618 C617 1.398 . S
C618 C619 1.391 . S
C619 H607 0.950 . S
C619 C615 1.393 1_556 S
C619 C618 1.391 . S
H620 C628 0.950 . S
H621 C633 0.950 . S
H622 C630 0.950 . S
H623 C632 0.950 . S
H624 C634 0.950 . S
H625 C636 0.950 . S
H626 C638 0.950 . S
H627 C639 0.950 . S
C628 H620 0.950 . S
C628 C629 1.386 . S
C628 C630 1.391 . S
C629 C628 1.386 . S
C629 C633 1.393 . S
C630 H622 0.950 . S
C630 C628 1.391 . S
C630 C631 1.400 . S
C631 C630 1.400 . S
C631 C632 1.398 . S
C631 C637 1.491 . S
C632 H623 0.950 . S
C632 C631 1.398 . S
C632 C633 1.391 . S
C633 H621 0.950 . S
C633 C629 1.393 . S
C633 C632 1.391 . S
C634 H624 0.950 . S
C634 C635 1.386 . S
C634 C636 1.391 . S
C635 C634 1.386 . S
C635 C639 1.393 . S
C636 H625 0.950 . S
C636 C634 1.391 . S
C636 C637 1.400 . S
C637 C631 1.491 . S
C637 C636 1.400 . S
C637 C638 1.398 . S
C638 H626 0.950 . S
C638 C637 1.398 . S
C638 C639 1.391 . S
C639 H627 0.950 . S
C639 C635 1.393 . S
C639 C638 1.391 . S
H640 C648 0.950 . S
H641 C653 0.950 . S
H642 C650 0.950 . S
H643 C652 0.950 . S
H644 C654 0.950 . S
H645 C656 0.950 . S
H646 C658 0.950 . S
H647 C659 0.950 . S
C648 H640 0.950 . S
C648 C649 1.386 . S
C648 C650 1.391 . S
C649 C648 1.386 . S
C649 C653 1.393 . S
C650 H642 0.950 . S
C650 C648 1.391 . S
C650 C651 1.400 . S
C651 C650 1.400 . S
C651 C652 1.398 . S
C651 C657 1.491 . S
C652 H643 0.950 . S
C652 C651 1.398 . S
C652 C653 1.391 . S
C653 H641 0.950 . S
C653 C649 1.393 . S
C653 C652 1.391 . S
C654 H644 0.950 . S
C654 C655 1.386 . S
C654 C656 1.391 . S
C655 C654 1.386 . S
C655 C659 1.393 . S
C656 H645 0.950 . S
C656 C654 1.391 . S
C656 C657 1.400 . S
C657 C651 1.491 . S
C657 C656 1.400 . S
C657 C658 1.398 . S
C658 H646 0.950 . S
C658 C657 1.398 . S
C658 C659 1.391 . S
C659 H647 0.950 . S
C659 C655 1.393 . S
C659 C658 1.391 . S
C195 C108 1.562 . S
C189 C6 1.568 . S
C215 C111 1.586 . S
C209 C18 1.590 . S
C235 C109 1.539 . S
C229 C28 1.542 . S
C255 C110 1.645 1_655 S
C249 C45 1.660 . S
C275 C125 1.412 . S
C269 C4 1.426 . S
C295 C139 1.623 . S
C289 C21 1.616 . S
C309 C33 1.670 . S
C315 C165 1.694 . S
C335 C179 1.691 . S
C329 C40 1.693 . S
C355 C124 1.547 . S
C349 C16 1.514 . S
C369 C30 1.605 . S
C375 C138 1.587 . S
C395 C164 1.662 . S
C389 C42 1.658 . S
C415 C178 1.687 . S
C409 C9 1.699 . S
C429 C52 1.663 . S
C435 C123 1.640 1_655 S
C455 C96 1.712 . S
C449 C69 1.695 . S
C469 C78 1.551 . S
C475 C122 1.545 . S
C489 C93 1.320 . S
C495 C97 1.362 . S
C515 C152 1.742 . S
C509 C57 1.722 . S
C535 C166 1.743 . S
C529 C66 1.755 . S
C555 C136 1.429 . S
C549 C76 1.435 . S
C569 C88 1.407 . S
C575 C150 1.386 . S
C595 C153 1.663 . S
C589 C64 1.646 . S
C615 C167 1.630 . S
C609 C81 1.641 . S
C635 C137 1.342 . S
C629 C90 1.339 . S
C649 C54 1.602 . S
C655 C151 1.600 . S
