# Generated by pormake.
# Topology eea, (3,6)-cn, num edge types: 1
# Building blocks:
#     Node 0, Type 0, BuildingBlock: MIDCAF_clean_linker_0, # of connection points: 3
#     Node 1, Type 0, BuildingBlock: MIDCAF_clean_linker_0, # of connection points: 3
#     Node 2, Type 0, BuildingBlock: MIDCAF_clean_linker_0, # of connection points: 3
#     Node 3, Type 0, BuildingBlock: MIDCAF_clean_linker_0, # of connection points: 3
#     Node 4, Type 0, BuildingBlock: MIDCAF_clean_linker_0, # of connection points: 3
#     Node 5, Type 0, BuildingBlock: MIDCAF_clean_linker_0, # of connection points: 3
#     Node 6, Type 0, BuildingBlock: MIDCAF_clean_linker_0, # of connection points: 3
#     Node 7, Type 0, BuildingBlock: MIDCAF_clean_linker_0, # of connection points: 3
#     Node 8, Type 0, BuildingBlock: MIDCAF_clean_linker_0, # of connection points: 3
#     Node 9, Type 0, BuildingBlock: MIDCAF_clean_linker_0, # of connection points: 3
#     Node 10, Type 0, BuildingBlock: MIDCAF_clean_linker_0, # of connection points: 3
#     Node 11, Type 0, BuildingBlock: MIDCAF_clean_linker_0, # of connection points: 3
#     Node 12, Type 0, BuildingBlock: MIDCAF_clean_linker_0, # of connection points: 3
#     Node 13, Type 0, BuildingBlock: MIDCAF_clean_linker_0, # of connection points: 3
#     Node 14, Type 0, BuildingBlock: MIDCAF_clean_linker_0, # of connection points: 3
#     Node 15, Type 0, BuildingBlock: MIDCAF_clean_linker_0, # of connection points: 3
#     Node 16, Type 0, BuildingBlock: MIDCAF_clean_linker_0, # of connection points: 3
#     Node 17, Type 0, BuildingBlock: MIDCAF_clean_linker_0, # of connection points: 3
#     Node 18, Type 1, BuildingBlock: CUKXOW_clean_sbu_0, # of connection points: 6
#     Node 19, Type 1, BuildingBlock: CUKXOW_clean_sbu_0, # of connection points: 6
#     Node 20, Type 1, BuildingBlock: CUKXOW_clean_sbu_0, # of connection points: 6
#     Node 21, Type 1, BuildingBlock: CUKXOW_clean_sbu_0, # of connection points: 6
#     Node 22, Type 1, BuildingBlock: CUKXOW_clean_sbu_0, # of connection points: 6
#     Node 23, Type 1, BuildingBlock: CUKXOW_clean_sbu_0, # of connection points: 6
#     Node 24, Type 1, BuildingBlock: CUKXOW_clean_sbu_0, # of connection points: 6
#     Node 25, Type 1, BuildingBlock: CUKXOW_clean_sbu_0, # of connection points: 6
#     Node 26, Type 1, BuildingBlock: CUKXOW_clean_sbu_0, # of connection points: 6
#     Edge 27, Type (0, 1), BuildingBlock: ZUJKAS_clean_linker_0, # of connection points: 2
#     Edge 28, Type (0, 1), BuildingBlock: ZUJKAS_clean_linker_0, # of connection points: 2
#     Edge 29, Type (0, 1), BuildingBlock: ZUJKAS_clean_linker_0, # of connection points: 2
#     Edge 30, Type (0, 1), BuildingBlock: ZUJKAS_clean_linker_0, # of connection points: 2
#     Edge 31, Type (0, 1), BuildingBlock: ZUJKAS_clean_linker_0, # of connection points: 2
#     Edge 32, Type (0, 1), BuildingBlock: ZUJKAS_clean_linker_0, # of connection points: 2
#     Edge 33, Type (0, 1), BuildingBlock: ZUJKAS_clean_linker_0, # of connection points: 2
#     Edge 34, Type (0, 1), BuildingBlock: ZUJKAS_clean_linker_0, # of connection points: 2
#     Edge 35, Type (0, 1), BuildingBlock: ZUJKAS_clean_linker_0, # of connection points: 2
#     Edge 36, Type (0, 1), BuildingBlock: ZUJKAS_clean_linker_0, # of connection points: 2
#     Edge 37, Type (0, 1), BuildingBlock: ZUJKAS_clean_linker_0, # of connection points: 2
#     Edge 38, Type (0, 1), BuildingBlock: ZUJKAS_clean_linker_0, # of connection points: 2
#     Edge 39, Type (0, 1), BuildingBlock: ZUJKAS_clean_linker_0, # of connection points: 2
#     Edge 40, Type (0, 1), BuildingBlock: ZUJKAS_clean_linker_0, # of connection points: 2
#     Edge 41, Type (0, 1), BuildingBlock: ZUJKAS_clean_linker_0, # of connection points: 2
#     Edge 42, Type (0, 1), BuildingBlock: ZUJKAS_clean_linker_0, # of connection points: 2
#     Edge 43, Type (0, 1), BuildingBlock: ZUJKAS_clean_linker_0, # of connection points: 2
#     Edge 44, Type (0, 1), BuildingBlock: ZUJKAS_clean_linker_0, # of connection points: 2
#     Edge 45, Type (0, 1), BuildingBlock: ZUJKAS_clean_linker_0, # of connection points: 2
#     Edge 46, Type (0, 1), BuildingBlock: ZUJKAS_clean_linker_0, # of connection points: 2
#     Edge 47, Type (0, 1), BuildingBlock: ZUJKAS_clean_linker_0, # of connection points: 2
#     Edge 48, Type (0, 1), BuildingBlock: ZUJKAS_clean_linker_0, # of connection points: 2
#     Edge 49, Type (0, 1), BuildingBlock: ZUJKAS_clean_linker_0, # of connection points: 2
#     Edge 50, Type (0, 1), BuildingBlock: ZUJKAS_clean_linker_0, # of connection points: 2
#     Edge 51, Type (0, 1), BuildingBlock: ZUJKAS_clean_linker_0, # of connection points: 2
#     Edge 52, Type (0, 1), BuildingBlock: ZUJKAS_clean_linker_0, # of connection points: 2
#     Edge 53, Type (0, 1), BuildingBlock: ZUJKAS_clean_linker_0, # of connection points: 2
#     Edge 54, Type (0, 1), BuildingBlock: ZUJKAS_clean_linker_0, # of connection points: 2
#     Edge 55, Type (0, 1), BuildingBlock: ZUJKAS_clean_linker_0, # of connection points: 2
#     Edge 56, Type (0, 1), BuildingBlock: ZUJKAS_clean_linker_0, # of connection points: 2
#     Edge 57, Type (0, 1), BuildingBlock: ZUJKAS_clean_linker_0, # of connection points: 2
#     Edge 58, Type (0, 1), BuildingBlock: ZUJKAS_clean_linker_0, # of connection points: 2
#     Edge 59, Type (0, 1), BuildingBlock: ZUJKAS_clean_linker_0, # of connection points: 2
#     Edge 60, Type (0, 1), BuildingBlock: ZUJKAS_clean_linker_0, # of connection points: 2
#     Edge 61, Type (0, 1), BuildingBlock: ZUJKAS_clean_linker_0, # of connection points: 2
#     Edge 62, Type (0, 1), BuildingBlock: ZUJKAS_clean_linker_0, # of connection points: 2
#     Edge 63, Type (0, 1), BuildingBlock: ZUJKAS_clean_linker_0, # of connection points: 2
#     Edge 64, Type (0, 1), BuildingBlock: ZUJKAS_clean_linker_0, # of connection points: 2
#     Edge 65, Type (0, 1), BuildingBlock: ZUJKAS_clean_linker_0, # of connection points: 2
#     Edge 66, Type (0, 1), BuildingBlock: ZUJKAS_clean_linker_0, # of connection points: 2
#     Edge 67, Type (0, 1), BuildingBlock: ZUJKAS_clean_linker_0, # of connection points: 2
#     Edge 68, Type (0, 1), BuildingBlock: ZUJKAS_clean_linker_0, # of connection points: 2
#     Edge 69, Type (0, 1), BuildingBlock: ZUJKAS_clean_linker_0, # of connection points: 2
#     Edge 70, Type (0, 1), BuildingBlock: ZUJKAS_clean_linker_0, # of connection points: 2
#     Edge 71, Type (0, 1), BuildingBlock: ZUJKAS_clean_linker_0, # of connection points: 2
#     Edge 72, Type (0, 1), BuildingBlock: ZUJKAS_clean_linker_0, # of connection points: 2
#     Edge 73, Type (0, 1), BuildingBlock: ZUJKAS_clean_linker_0, # of connection points: 2
#     Edge 74, Type (0, 1), BuildingBlock: ZUJKAS_clean_linker_0, # of connection points: 2
#     Edge 75, Type (0, 1), BuildingBlock: ZUJKAS_clean_linker_0, # of connection points: 2
#     Edge 76, Type (0, 1), BuildingBlock: ZUJKAS_clean_linker_0, # of connection points: 2
#     Edge 77, Type (0, 1), BuildingBlock: ZUJKAS_clean_linker_0, # of connection points: 2
#     Edge 78, Type (0, 1), BuildingBlock: ZUJKAS_clean_linker_0, # of connection points: 2
#     Edge 79, Type (0, 1), BuildingBlock: ZUJKAS_clean_linker_0, # of connection points: 2
#     Edge 80, Type (0, 1), BuildingBlock: ZUJKAS_clean_linker_0, # of connection points: 2
# Relax obj value: 0.017
# Max RMSD: 0.127
# Mean RMSD: 0.053
data_MOF--net-eea--node1-CUKXOW_clean_sbu_0--node2-MIDCAF_clean_linker_0--edge1-ZUJKAS_clean_linker_0
_symmetry_space_group_name_H-M    P1
_symmetry_Int_Tables_number       1
_symmetry_cell_setting            triclinic
loop_
_symmetry_equiv_pos_as_xyz
'x, y, z'
_cell_length_a     82.488128
_cell_length_b     79.684717
_cell_length_c     91.532729
_cell_angle_alpha  92.986807
_cell_angle_beta   92.957447
_cell_angle_gamma 119.88212
loop_
_atom_site_label
_atom_site_type_symbol
_atom_site_fract_x
_atom_site_fract_y
_atom_site_fract_z
_atom_type_partial_charge
C0 C 0.25853 0.0734 0.41801 0.0
C1 C 0.24958 0.06831 0.40368 0.0
C2 C 0.24656 0.08192 0.39667 0.0
C3 C 0.25211 0.1001 0.4039 0.0
H4 H 0.24003 0.14551 0.40454 0.0
H5 H 0.23112 0.16737 0.3939 0.0
H6 H 0.27451 0.21535 0.4227 0.0
H7 H 0.28269 0.19318 0.43386 0.0
H8 H 0.28496 0.17635 0.46708 0.0
H9 H 0.29587 0.18206 0.49308 0.0
H10 H 0.3004 0.13032 0.48987 0.0
H11 H 0.28973 0.12465 0.46387 0.0
H12 H 0.27071 0.09483 0.43634 0.0
H13 H 0.26084 0.06316 0.4238 0.0
H14 H 0.23992 0.07854 0.38556 0.0
H15 H 0.24943 0.11015 0.39818 0.0
N16 N 0.26226 0.13682 0.41976 0.0
N17 N 0.2748 0.15839 0.44108 0.0
N18 N 0.27412 0.1286 0.44027 0.0
C19 C 0.26668 0.15405 0.42708 0.0
C20 C 0.27854 0.14571 0.44777 0.0
C21 C 0.26604 0.12406 0.42624 0.0
C22 C 0.26201 0.1676 0.42008 0.0
C23 C 0.24771 0.16075 0.40856 0.0
C24 C 0.24268 0.17335 0.40238 0.0
C25 C 0.25206 0.19321 0.4074 0.0
C26 C 0.26667 0.20011 0.41874 0.0
C27 C 0.27147 0.18742 0.42509 0.0
C28 C 0.28636 0.14997 0.46335 0.0
C29 C 0.28842 0.16625 0.47185 0.0
C30 C 0.29457 0.16949 0.48679 0.0
C31 C 0.29891 0.1566 0.49353 0.0
C32 C 0.29733 0.14062 0.48496 0.0
C33 C 0.2911 0.13732 0.47006 0.0
C34 C 0.2608 0.10508 0.41833 0.0
C35 C 0.26408 0.09156 0.42524 0.0
C36 C 0.93744 0.19292 0.43029 0.0
C37 C 0.94239 0.18717 0.41727 0.0
C38 C 0.9292 0.16957 0.40927 0.0
C39 C 0.9115 0.15802 0.41415 0.0
H40 H 0.86273 0.10722 0.4035 0.0
H41 H 0.84049 0.07662 0.3895 0.0
H42 H 0.79895 0.06752 0.41974 0.0
H43 H 0.82109 0.0982 0.43376 0.0
H44 H 0.83409 0.12393 0.464 0.0
H45 H 0.82821 0.12953 0.48905 0.0
H46 H 0.88434 0.179 0.49667 0.0
H47 H 0.89042 0.17329 0.47167 0.0
H48 H 0.9164 0.18622 0.44528 0.0
H49 H 0.94716 0.20651 0.43662 0.0
H50 H 0.93264 0.16454 0.39933 0.0
H51 H 0.90179 0.14452 0.40771 0.0
N52 N 0.87474 0.13501 0.42407 0.0
N53 N 0.85384 0.12773 0.44228 0.0
N54 N 0.88378 0.1555 0.44586 0.0
C55 C 0.85768 0.12322 0.42886 0.0
C56 C 0.8668 0.14383 0.45086 0.0
C57 C 0.88784 0.15121 0.43246 0.0
C58 C 0.84378 0.10517 0.41984 0.0
C59 C 0.84883 0.09882 0.40714 0.0
C60 C 0.83612 0.08122 0.39914 0.0
C61 C 0.81802 0.06964 0.40356 0.0
C62 C 0.81276 0.07622 0.416 0.0
C63 C 0.82551 0.09375 0.42408 0.0
C64 C 0.86278 0.14807 0.46579 0.0
C65 C 0.84518 0.13608 0.47095 0.0
C66 C 0.84175 0.13936 0.48531 0.0
C67 C 0.85583 0.15467 0.49487 0.0
C68 C 0.87328 0.16692 0.48963 0.0
C69 C 0.87672 0.16369 0.47526 0.0
C70 C 0.90655 0.16372 0.4272 0.0
C71 C 0.91973 0.18132 0.43521 0.0
C72 C 0.82003 0.74331 0.43227 0.0
C73 C 0.82332 0.75229 0.41907 0.0
C74 C 0.83872 0.75467 0.41162 0.0
C75 C 0.85072 0.74854 0.41735 0.0
H76 H 0.90353 0.75725 0.41445 0.0
H77 H 0.93398 0.76902 0.40498 0.0
H78 H 0.94776 0.73846 0.43644 0.0
H79 H 0.91744 0.72699 0.4462 0.0
H80 H 0.8919 0.71051 0.47228 0.0
H81 H 0.88591 0.69609 0.49564 0.0
H82 H 0.8311 0.69079 0.49287 0.0
H83 H 0.83686 0.7049 0.46946 0.0
H84 H 0.82914 0.73047 0.44827 0.0
H85 H 0.80843 0.74145 0.43838 0.0
H86 H 0.84147 0.76121 0.40128 0.0
H87 H 0.8625 0.75073 0.41134 0.0
N88 N 0.87724 0.73929 0.43119 0.0
N89 N 0.88552 0.72463 0.44941 0.0
N90 N 0.85677 0.72397 0.44915 0.0
C91 C 0.8897 0.73466 0.43729 0.0
C92 C 0.86905 0.71917 0.45538 0.0
C93 C 0.86073 0.73398 0.43703 0.0
C94 C 0.90798 0.74118 0.43113 0.0
C95 C 0.91298 0.75295 0.41935 0.0
C96 C 0.93044 0.75965 0.41385 0.0
C97 C 0.94331 0.75469 0.41996 0.0
C98 C 0.93827 0.74277 0.43163 0.0
C99 C 0.92081 0.7361 0.43716 0.0
C100 C 0.86493 0.70904 0.46901 0.0
C101 C 0.87848 0.7061 0.47655 0.0
C102 C 0.8751 0.69791 0.48998 0.0
C103 C 0.85808 0.69239 0.49613 0.0
C104 C 0.84428 0.6947 0.48835 0.0
C105 C 0.84767 0.70295 0.47496 0.0
C106 C 0.84757 0.73978 0.43065 0.0
C107 C 0.83198 0.73709 0.43797 0.0
C108 C 0.06007 0.24522 0.57005 0.0
C109 C 0.05769 0.23929 0.58436 0.0
C110 C 0.07294 0.24005 0.59262 0.0
C111 C 0.0901 0.24644 0.58666 0.0
H112 H 0.13995 0.24722 0.59338 0.0
H113 H 0.16296 0.24026 0.60485 0.0
H114 H 0.19726 0.26229 0.56871 0.0
H115 H 0.17415 0.26903 0.55705 0.0
H116 H 0.1618 0.28693 0.53215 0.0
H117 H 0.16643 0.29975 0.50823 0.0
H118 H 0.11013 0.29062 0.50509 0.0
H119 H 0.10529 0.2775 0.52895 0.0
H120 H 0.07852 0.25602 0.55302 0.0
H121 H 0.04855 0.24455 0.56331 0.0
H122 H 0.0717 0.23591 0.60376 0.0
H123 H 0.10153 0.24683 0.59335 0.0
N124 N 0.12416 0.25642 0.57284 0.0
N125 N 0.14348 0.27004 0.55387 0.0
N126 N 0.11363 0.26688 0.55291 0.0
C127 C 0.14065 0.26197 0.56688 0.0
C128 C 0.13006 0.2726 0.54683 0.0
C129 C 0.11058 0.25883 0.56593 0.0
C130 C 0.15511 0.25862 0.57423 0.0
C131 C 0.15241 0.25067 0.58787 0.0
C132 C 0.16567 0.24678 0.59451 0.0
C133 C 0.18191 0.25069 0.58767 0.0
C134 C 0.18477 0.25889 0.57416 0.0
C135 C 0.17154 0.26285 0.56752 0.0
C136 C 0.13314 0.28108 0.53249 0.0
C137 C 0.15039 0.28768 0.52642 0.0
C138 C 0.15311 0.29517 0.51273 0.0
C139 C 0.13865 0.2962 0.50478 0.0
C140 C 0.12147 0.28982 0.5109 0.0
C141 C 0.11875 0.28238 0.52461 0.0
C142 C 0.09247 0.25233 0.57234 0.0
C143 C 0.07727 0.25171 0.56413 0.0
C144 C 0.74857 0.80532 0.58382 0.0
C145 C 0.75522 0.80949 0.59875 0.0
C146 C 0.75522 0.82499 0.6068 0.0
C147 C 0.74907 0.83636 0.59997 0.0
H148 H 0.74902 0.88831 0.60601 0.0
H149 H 0.75887 0.9208 0.61722 0.0
H150 H 0.74394 0.93589 0.57604 0.0
H151 H 0.73417 0.90355 0.56475 0.0
H152 H 0.70858 0.86886 0.54028 0.0
H153 H 0.69527 0.86031 0.51488 0.0
H154 H 0.70563 0.81221 0.51235 0.0
H155 H 0.71853 0.82041 0.53793 0.0
H156 H 0.7374 0.81302 0.56546 0.0
H157 H 0.74821 0.79332 0.57739 0.0
H158 H 0.76038 0.8286 0.61831 0.0
H159 H 0.74949 0.84837 0.60644 0.0
N160 N 0.7405 0.86212 0.58432 0.0
N161 N 0.72738 0.86834 0.56343 0.0
N162 N 0.72836 0.83948 0.5636 0.0
C163 C 0.73586 0.87398 0.57732 0.0
C164 C 0.72351 0.85109 0.5565 0.0
C165 C 0.7368 0.84484 0.57753 0.0
C166 C 0.74087 0.8933 0.58444 0.0
C167 C 0.74775 0.8985 0.59934 0.0
C168 C 0.75331 0.91708 0.6058 0.0
C169 C 0.75227 0.93089 0.59747 0.0
C170 C 0.74512 0.92561 0.58267 0.0
C171 C 0.73941 0.90701 0.57624 0.0
C172 C 0.71474 0.8454 0.54117 0.0
C173 C 0.70799 0.8564 0.53436 0.0
C174 C 0.70043 0.85156 0.51974 0.0
C175 C 0.69952 0.83567 0.51152 0.0
C176 C 0.70594 0.82442 0.5184 0.0
C177 C 0.71343 0.82921 0.53307 0.0
C178 C 0.74263 0.83236 0.58496 0.0
C179 C 0.74227 0.81657 0.57702 0.0
C180 C 0.18994 0.93241 0.58516 0.0
C181 C 0.18761 0.93735 0.59956 0.0
C182 C 0.17193 0.92397 0.60635 0.0
C183 C 0.15868 0.90622 0.59882 0.0
H184 H 0.10559 0.86139 0.60079 0.0
H185 H 0.07604 0.84147 0.61115 0.0
H186 H 0.05848 0.79818 0.57431 0.0
H187 H 0.08786 0.81833 0.5637 0.0
H188 H 0.11288 0.82771 0.53682 0.0
H189 H 0.11627 0.8204 0.51133 0.0
H190 H 0.16604 0.87685 0.51191 0.0
H191 H 0.16267 0.88432 0.5373 0.0
H192 H 0.17889 0.91143 0.5665 0.0
H193 H 0.20201 0.9423 0.5797 0.0
H194 H 0.16962 0.92742 0.61738 0.0
H195 H 0.14665 0.8964 0.60435 0.0
N196 N 0.13037 0.87088 0.58225 0.0
N197 N 0.11927 0.84953 0.56082 0.0
N198 N 0.14855 0.87813 0.56219 0.0
C199 C 0.11678 0.85416 0.5747 0.0
C200 C 0.13512 0.86144 0.55448 0.0
C201 C 0.14632 0.88292 0.5761 0.0
C202 C 0.09913 0.84154 0.58136 0.0
C203 C 0.0955 0.8476 0.59489 0.0
C204 C 0.07856 0.83611 0.6009 0.0
C205 C 0.06486 0.81823 0.59356 0.0
C206 C 0.0686 0.81202 0.58014 0.0
C207 C 0.08552 0.82354 0.57409 0.0
C208 C 0.13747 0.85664 0.53914 0.0
C209 C 0.12458 0.83858 0.53154 0.0
C210 C 0.12655 0.83433 0.51695 0.0
C211 C 0.14136 0.84808 0.50961 0.0
C212 C 0.15433 0.86606 0.51722 0.0
C213 C 0.15245 0.87027 0.53183 0.0
C214 C 0.16081 0.9014 0.58431 0.0
C215 C 0.17671 0.91464 0.57763 0.0
C216 C 0.92292 0.40471 0.75282 0.0
C217 C 0.91364 0.39902 0.7386 0.0
C218 C 0.91 0.4121 0.73139 0.0
C219 C 0.91531 0.43038 0.73832 0.0
H220 H 0.9033 0.4755 0.73763 0.0
H221 H 0.89397 0.49667 0.72635 0.0
H222 H 0.93658 0.54562 0.75486 0.0
H223 H 0.94522 0.52416 0.76665 0.0
H224 H 0.95331 0.51099 0.79905 0.0
H225 H 0.96448 0.51766 0.82506 0.0
H226 H 0.96065 0.46159 0.82479 0.0
H227 H 0.94932 0.45475 0.79893 0.0
H228 H 0.93516 0.42673 0.77077 0.0
H229 H 0.92572 0.39489 0.75874 0.0
H230 H 0.90309 0.40825 0.72036 0.0
H231 H 0.91218 0.44003 0.73245 0.0
N232 N 0.92552 0.46757 0.75342 0.0
N233 N 0.93828 0.48986 0.77435 0.0
N234 N 0.93777 0.46018 0.77416 0.0
C235 C 0.92993 0.48498 0.76039 0.0
C236 C 0.9422 0.47749 0.78133 0.0
C237 C 0.92951 0.45513 0.76019 0.0
C238 C 0.92496 0.49814 0.75307 0.0
C239 C 0.91073 0.4908 0.74146 0.0
C240 C 0.90545 0.50301 0.73491 0.0
C241 C 0.91449 0.52294 0.73965 0.0
C242 C 0.92901 0.53031 0.75109 0.0
C243 C 0.93407 0.51803 0.75781 0.0
C244 C 0.95025 0.48226 0.79686 0.0
C245 C 0.95493 0.50011 0.80449 0.0
C246 C 0.96142 0.50399 0.81939 0.0
C247 C 0.96328 0.49008 0.82699 0.0
C248 C 0.95906 0.47246 0.81929 0.0
C249 C 0.95266 0.46861 0.80441 0.0
C250 C 0.92438 0.43599 0.75262 0.0
C251 C 0.92822 0.42296 0.75975 0.0
C252 C 0.60966 0.52521 0.7663 0.0
C253 C 0.61272 0.52201 0.75171 0.0
C254 C 0.59798 0.50686 0.74249 0.0
C255 C 0.58056 0.49515 0.74773 0.0
H256 H 0.53234 0.44356 0.73786 0.0
H257 H 0.51 0.41296 0.72393 0.0
H258 H 0.46985 0.40235 0.75577 0.0
H259 H 0.49209 0.43305 0.76973 0.0
H260 H 0.50472 0.46805 0.79727 0.0
H261 H 0.49894 0.47358 0.82255 0.0
H262 H 0.55834 0.50201 0.83553 0.0
H263 H 0.56428 0.49691 0.81023 0.0
H264 H 0.59031 0.51645 0.78282 0.0
H265 H 0.62071 0.5369 0.77361 0.0
H266 H 0.59999 0.50388 0.73126 0.0
H267 H 0.56956 0.48359 0.7403 0.0
N268 N 0.54532 0.47018 0.75924 0.0
N269 N 0.52496 0.46263 0.77788 0.0
N270 N 0.55542 0.48963 0.78159 0.0
C271 C 0.52832 0.45849 0.76416 0.0
C272 C 0.53845 0.47816 0.78665 0.0
C273 C 0.55891 0.48583 0.76783 0.0
C274 C 0.51411 0.44074 0.75502 0.0
C275 C 0.5187 0.43485 0.74186 0.0
C276 C 0.50594 0.41726 0.73389 0.0
C277 C 0.48826 0.40522 0.73882 0.0
C278 C 0.48335 0.41141 0.75165 0.0
C279 C 0.49616 0.42896 0.75969 0.0
C280 C 0.53495 0.48205 0.80178 0.0
C281 C 0.51655 0.47557 0.8055 0.0
C282 C 0.51324 0.47879 0.81991 0.0
C283 C 0.52821 0.48817 0.8309 0.0
C284 C 0.54659 0.49468 0.82721 0.0
C285 C 0.54996 0.49184 0.81274 0.0
C286 C 0.57743 0.49835 0.76231 0.0
C287 C 0.59219 0.51354 0.77153 0.0
C288 C 0.49312 0.0838 0.76737 0.0
C289 C 0.49745 0.09361 0.75457 0.0
C290 C 0.51372 0.09698 0.74801 0.0
C291 C 0.52554 0.09089 0.75423 0.0
H292 H 0.57743 0.09708 0.7519 0.0
H293 H 0.60765 0.10711 0.74242 0.0
H294 H 0.61984 0.07662 0.77493 0.0
H295 H 0.58948 0.0663 0.78437 0.0
H296 H 0.56263 0.04935 0.80959 0.0
H297 H 0.55594 0.03535 0.8331 0.0
H298 H 0.50338 0.03505 0.83077 0.0
H299 H 0.51008 0.0493 0.80743 0.0
H300 H 0.50113 0.07022 0.78349 0.0
H301 H 0.48055 0.08075 0.77257 0.0
H302 H 0.51752 0.10467 0.7382 0.0
H303 H 0.53805 0.09392 0.74895 0.0
N304 N 0.55066 0.08003 0.76841 0.0
N305 N 0.55809 0.06537 0.78715 0.0
N306 N 0.52975 0.06558 0.78628 0.0
C307 C 0.56271 0.0751 0.7749 0.0
C308 C 0.54161 0.06052 0.79291 0.0
C309 C 0.53413 0.07529 0.77402 0.0
C310 C 0.58097 0.08087 0.76893 0.0
C311 C 0.58648 0.09244 0.75704 0.0
C312 C 0.60388 0.09832 0.75165 0.0
C313 C 0.61615 0.09274 0.75798 0.0
C314 C 0.61061 0.08103 0.76976 0.0
C315 C 0.59323 0.07519 0.7752 0.0
C316 C 0.537 0.05066 0.80665 0.0
C317 C 0.54958 0.0462 0.81402 0.0
C318 C 0.54571 0.03806 0.82747 0.0
C319 C 0.52921 0.03424 0.83384 0.0
C320 C 0.51637 0.03814 0.82626 0.0
C321 C 0.5202 0.04624 0.81283 0.0
C322 C 0.52132 0.08124 0.76714 0.0
C323 C 0.50489 0.07765 0.77358 0.0
C324 C 0.72646 0.58557 0.90386 0.0
C325 C 0.7228 0.57737 0.91737 0.0
C326 C 0.73663 0.57495 0.92496 0.0
C327 C 0.75368 0.58039 0.91909 0.0
H328 H 0.79789 0.57059 0.92245 0.0
H329 H 0.81817 0.55917 0.93247 0.0
H330 H 0.85831 0.58979 0.90137 0.0
H331 H 0.83787 0.60086 0.89107 0.0
H332 H 0.82661 0.61801 0.86543 0.0
H333 H 0.83278 0.63179 0.8419 0.0
H334 H 0.78043 0.63193 0.84027 0.0
H335 H 0.77427 0.61837 0.86397 0.0
H336 H 0.74586 0.5973 0.88753 0.0
H337 H 0.71613 0.58779 0.89784 0.0
H338 H 0.73414 0.56849 0.93532 0.0
H339 H 0.76394 0.57814 0.92519 0.0
N340 N 0.78726 0.58861 0.90534 0.0
N341 N 0.80748 0.60223 0.88691 0.0
N342 N 0.77944 0.60301 0.88662 0.0
C343 C 0.80344 0.59284 0.89933 0.0
C344 C 0.7956 0.6074 0.88049 0.0
C345 C 0.7752 0.59367 0.89908 0.0
C346 C 0.81618 0.58661 0.9059 0.0
C347 C 0.81106 0.57497 0.91775 0.0
C348 C 0.82274 0.56848 0.92356 0.0
C349 C 0.83985 0.57352 0.9177 0.0
C350 C 0.84509 0.58537 0.90599 0.0
C351 C 0.83339 0.59183 0.90014 0.0
C352 C 0.79985 0.6169 0.86659 0.0
C353 C 0.81641 0.62105 0.86014 0.0
C354 C 0.81994 0.62888 0.84661 0.0
C355 C 0.80701 0.63278 0.83918 0.0
C356 C 0.79072 0.6292 0.84578 0.0
C357 C 0.78715 0.62133 0.85934 0.0
C358 C 0.75733 0.58847 0.9055 0.0
C359 C 0.74356 0.59112 0.89801 0.0
C360 C 0.40241 0.13273 0.92038 0.0
C361 C 0.41775 0.14057 0.93115 0.0
C362 C 0.42721 0.16068 0.93528 0.0
C363 C 0.42145 0.1726 0.92886 0.0
H364 H 0.42057 0.22341 0.93807 0.0
H365 H 0.43139 0.25584 0.94964 0.0
H366 H 0.40683 0.26864 0.9121 0.0
H367 H 0.39562 0.23606 0.9006 0.0
H368 H 0.37005 0.20194 0.876 0.0
H369 H 0.35504 0.19344 0.85106 0.0
H370 H 0.36319 0.14391 0.84723 0.0
H371 H 0.37774 0.15207 0.87232 0.0
H372 H 0.38499 0.1382 0.90555 0.0
H373 H 0.39455 0.11728 0.9171 0.0
H374 H 0.43931 0.16736 0.94329 0.0
H375 H 0.42917 0.18803 0.93225 0.0
N376 N 0.40586 0.19541 0.91759 0.0
N377 N 0.39087 0.20149 0.89784 0.0
N378 N 0.39039 0.1718 0.89768 0.0
C379 C 0.40102 0.20744 0.91114 0.0
C380 C 0.3855 0.1837 0.89103 0.0
C381 C 0.40055 0.17756 0.91097 0.0
C382 C 0.40723 0.22707 0.91835 0.0
C383 C 0.4174 0.23308 0.93226 0.0
C384 C 0.42371 0.25174 0.93889 0.0
C385 C 0.42005 0.26487 0.93178 0.0
C386 C 0.40971 0.25881 0.91795 0.0
C387 C 0.40336 0.24013 0.91132 0.0
C388 C 0.37525 0.17779 0.87618 0.0
C389 C 0.36855 0.18915 0.8699 0.0
C390 C 0.36001 0.18433 0.85555 0.0
C391 C 0.35805 0.16809 0.84707 0.0
C392 C 0.36428 0.1564 0.85349 0.0
C393 C 0.37273 0.16116 0.86788 0.0
C394 C 0.40629 0.16478 0.91799 0.0
C395 C 0.39684 0.14472 0.91381 0.0
C396 C 0.85247 0.26211 0.91748 0.0
C397 C 0.84949 0.26685 0.93172 0.0
C398 C 0.83308 0.25364 0.93786 0.0
C399 C 0.81978 0.2363 0.92983 0.0
H400 H 0.76733 0.18999 0.93109 0.0
H401 H 0.73733 0.1699 0.94077 0.0
H402 H 0.71684 0.13317 0.89996 0.0
H403 H 0.74679 0.15348 0.89008 0.0
H404 H 0.77163 0.16743 0.86263 0.0
H405 H 0.77689 0.16186 0.83732 0.0
H406 H 0.83578 0.20449 0.84647 0.0
H407 H 0.83047 0.21047 0.87156 0.0
H408 H 0.84187 0.24181 0.89843 0.0
H409 H 0.86483 0.27206 0.91234 0.0
H410 H 0.83049 0.25672 0.94888 0.0
H411 H 0.80722 0.22658 0.93487 0.0
N412 N 0.79141 0.20202 0.91202 0.0
N413 N 0.78079 0.18197 0.88991 0.0
N414 N 0.81087 0.20957 0.89277 0.0
C415 C 0.77773 0.18602 0.90377 0.0
C416 C 0.79736 0.19366 0.88435 0.0
C417 C 0.80802 0.21388 0.90661 0.0
C418 C 0.75954 0.17342 0.90977 0.0
C419 C 0.75649 0.17763 0.92414 0.0
C420 C 0.7393 0.16603 0.92975 0.0
C421 C 0.7247 0.14991 0.92115 0.0
C422 C 0.72774 0.14561 0.90681 0.0
C423 C 0.74497 0.15721 0.90118 0.0
C424 C 0.80059 0.1895 0.86913 0.0
C425 C 0.78571 0.17558 0.85926 0.0
C426 C 0.78874 0.17232 0.84474 0.0
C427 C 0.80674 0.18282 0.83981 0.0
C428 C 0.82166 0.19644 0.84979 0.0
C429 C 0.81862 0.19979 0.86424 0.0
C430 C 0.82258 0.23175 0.91546 0.0
C431 C 0.8392 0.24477 0.90946 0.0
C432 C 0.5862 0.73789 0.08566 0.0
C433 C 0.57926 0.73314 0.0708 0.0
C434 C 0.57916 0.74754 0.06262 0.0
C435 C 0.58548 0.7662 0.06929 0.0
H436 H 0.58211 0.81538 0.06388 0.0
H437 H 0.57344 0.83691 0.05222 0.0
H438 H 0.59635 0.87736 0.09108 0.0
H439 H 0.60536 0.8561 0.10268 0.0
H440 H 0.61509 0.84223 0.13209 0.0
H441 H 0.62722 0.849 0.1579 0.0
H442 H 0.63804 0.80131 0.15387 0.0
H443 H 0.62601 0.7945 0.1281 0.0
H444 H 0.59774 0.75961 0.10381 0.0
H445 H 0.58666 0.72715 0.09217 0.0
H446 H 0.57379 0.74424 0.05116 0.0
H447 H 0.58495 0.77688 0.06273 0.0
N448 N 0.59445 0.80301 0.08468 0.0
N449 N 0.60729 0.82526 0.10561 0.0
N450 N 0.60639 0.7954 0.1055 0.0
C451 C 0.59905 0.82051 0.09163 0.0
C452 C 0.61109 0.81282 0.1126 0.0
C453 C 0.59808 0.79037 0.09155 0.0
C454 C 0.5944 0.83393 0.08427 0.0
C455 C 0.58541 0.8289 0.06994 0.0
C456 C 0.58033 0.84119 0.06326 0.0
C457 C 0.58414 0.85881 0.07074 0.0
C458 C 0.59341 0.864 0.08495 0.0
C459 C 0.59848 0.85172 0.09164 0.0
C460 C 0.61948 0.81775 0.12802 0.0
C461 C 0.6202 0.83327 0.13665 0.0
C462 C 0.62705 0.83711 0.15146 0.0
C463 C 0.63353 0.82566 0.15788 0.0
C464 C 0.63329 0.81049 0.14917 0.0
C465 C 0.62627 0.80652 0.13442 0.0
C466 C 0.59218 0.7709 0.08423 0.0
C467 C 0.59266 0.75656 0.09229 0.0
C468 C 0.2742 0.85403 0.09809 0.0
C469 C 0.27666 0.8504 0.0834 0.0
C470 C 0.26126 0.83569 0.07439 0.0
C471 C 0.24391 0.82467 0.07997 0.0
H472 H 0.19346 0.77459 0.07027 0.0
H473 H 0.17009 0.74405 0.05678 0.0
H474 H 0.13579 0.73038 0.09332 0.0
H475 H 0.15886 0.76104 0.1067 0.0
H476 H 0.17146 0.79085 0.13408 0.0
H477 H 0.16669 0.79777 0.15915 0.0
H478 H 0.22371 0.84577 0.16549 0.0
H479 H 0.22869 0.83872 0.14042 0.0
H480 H 0.2555 0.84613 0.11507 0.0
H481 H 0.28582 0.86509 0.10539 0.0
H482 H 0.26256 0.83274 0.06295 0.0
H483 H 0.2324 0.81342 0.07269 0.0
N484 N 0.20941 0.79989 0.09267 0.0
N485 N 0.19 0.79325 0.1119 0.0
N486 N 0.22019 0.82066 0.11442 0.0
C487 C 0.19278 0.7884 0.09819 0.0
C488 C 0.2036 0.80937 0.12008 0.0
C489 C 0.22319 0.81606 0.1007 0.0
C490 C 0.17813 0.7703 0.08963 0.0
C491 C 0.18089 0.76516 0.07542 0.0
C492 C 0.16753 0.74759 0.06769 0.0
C493 C 0.15111 0.73473 0.07399 0.0
C494 C 0.14817 0.74005 0.08807 0.0
C495 C 0.1615 0.75762 0.09578 0.0
C496 C 0.2005 0.81417 0.13519 0.0
C497 C 0.18301 0.80294 0.14076 0.0
C498 C 0.18021 0.80698 0.15513 0.0
C499 C 0.19481 0.82232 0.16431 0.0
C500 C 0.21224 0.83371 0.15873 0.0
C501 C 0.21505 0.82972 0.14432 0.0
C502 C 0.24148 0.82816 0.09469 0.0
C503 C 0.25681 0.84307 0.10366 0.0
C504 C 0.16063 0.42416 0.10549 0.0
C505 C 0.16284 0.43117 0.09154 0.0
C506 C 0.17762 0.43249 0.08376 0.0
C507 C 0.19003 0.42708 0.08986 0.0
H508 H 0.2412 0.43181 0.08478 0.0
H509 H 0.27009 0.43994 0.0736 0.0
H510 H 0.28521 0.41317 0.10748 0.0
H511 H 0.25624 0.40475 0.11858 0.0
H512 H 0.23059 0.38764 0.14403 0.0
H513 H 0.22594 0.37463 0.16794 0.0
H514 H 0.1787 0.38349 0.17164 0.0
H515 H 0.18338 0.3967 0.14785 0.0
H516 H 0.17084 0.41335 0.12237 0.0
H517 H 0.14924 0.42277 0.11168 0.0
H518 H 0.17979 0.43802 0.07305 0.0
H519 H 0.20133 0.42841 0.08359 0.0
N520 N 0.21672 0.41804 0.1037 0.0
N521 N 0.22593 0.4052 0.12276 0.0
N522 N 0.19826 0.40658 0.12345 0.0
C523 C 0.22915 0.41335 0.10978 0.0
C524 C 0.21052 0.40175 0.12966 0.0
C525 C 0.20122 0.41467 0.11045 0.0
C526 C 0.24637 0.41767 0.10263 0.0
C527 C 0.25061 0.42756 0.08983 0.0
C528 C 0.26723 0.43233 0.08346 0.0
C529 C 0.27995 0.42727 0.0897 0.0
C530 C 0.27559 0.41711 0.10233 0.0
C531 C 0.25901 0.41238 0.10874 0.0
C532 C 0.2074 0.3933 0.144 0.0
C533 C 0.21919 0.38682 0.14991 0.0
C534 C 0.21649 0.37926 0.16358 0.0
C535 C 0.20202 0.37812 0.17167 0.0
C536 C 0.19014 0.38444 0.16574 0.0
C537 C 0.19276 0.3919 0.15204 0.0
C538 C 0.18789 0.42013 0.10386 0.0
C539 C 0.17297 0.41866 0.11157 0.0
C540 C 0.3926 0.91788 0.23923 0.0
C541 C 0.38869 0.90833 0.25217 0.0
C542 C 0.40227 0.90489 0.25902 0.0
C543 C 0.41935 0.91082 0.25307 0.0
H544 H 0.4698 0.91431 0.26147 0.0
H545 H 0.49277 0.90793 0.27374 0.0
H546 H 0.52794 0.92959 0.23803 0.0
H547 H 0.50483 0.93569 0.22555 0.0
H548 H 0.48926 0.94557 0.19721 0.0
H549 H 0.49381 0.95753 0.17296 0.0
H550 H 0.44336 0.96119 0.17377 0.0
H551 H 0.4388 0.94938 0.19811 0.0
H552 H 0.4122 0.9311 0.22325 0.0
H553 H 0.38254 0.92099 0.23379 0.0
H554 H 0.39959 0.89731 0.26889 0.0
H555 H 0.4294 0.90778 0.25861 0.0
N556 N 0.45464 0.92367 0.24068 0.0
N557 N 0.47385 0.93606 0.22147 0.0
N558 N 0.44432 0.93373 0.22039 0.0
C559 C 0.47101 0.92861 0.23472 0.0
C560 C 0.46059 0.93871 0.21424 0.0
C561 C 0.44123 0.92618 0.2336 0.0
C562 C 0.48538 0.92544 0.24246 0.0
C563 C 0.48244 0.91779 0.25621 0.0
C564 C 0.49568 0.91424 0.26332 0.0
C565 C 0.51217 0.91824 0.25685 0.0
C566 C 0.51526 0.92613 0.24321 0.0
C567 C 0.50203 0.92971 0.2361 0.0
C568 C 0.46363 0.94645 0.19963 0.0
C569 C 0.47914 0.94897 0.19228 0.0
C570 C 0.4817 0.95571 0.17833 0.0
C571 C 0.46889 0.9602 0.17145 0.0
C572 C 0.45353 0.95797 0.17885 0.0
C573 C 0.45089 0.9511 0.19277 0.0
C574 C 0.42325 0.92028 0.24007 0.0
C575 C 0.40968 0.92378 0.23324 0.0
C576 C 0.07432 0.46785 0.25301 0.0
C577 C 0.08288 0.47248 0.26745 0.0
C578 C 0.08607 0.48965 0.27527 0.0
C579 C 0.08112 0.50211 0.26872 0.0
H580 H 0.08392 0.5546 0.27617 0.0
H581 H 0.09296 0.58606 0.28885 0.0
H582 H 0.07467 0.60241 0.24977 0.0
H583 H 0.06528 0.57091 0.23715 0.0
H584 H 0.05356 0.54457 0.20801 0.0
H585 H 0.04305 0.5385 0.18197 0.0
H586 H 0.03642 0.48119 0.18158 0.0
H587 H 0.04675 0.48708 0.20772 0.0
H588 H 0.06309 0.4764 0.23522 0.0
H589 H 0.07186 0.45483 0.24664 0.0
H590 H 0.0924 0.49348 0.28649 0.0
H591 H 0.08396 0.5153 0.27505 0.0
N592 N 0.07238 0.52839 0.25432 0.0
N593 N 0.06206 0.53724 0.23332 0.0
N594 N 0.06148 0.50751 0.23264 0.0
C595 C 0.06912 0.54137 0.24762 0.0
C596 C 0.05816 0.52034 0.22575 0.0
C597 C 0.06857 0.51141 0.24692 0.0
C598 C 0.07391 0.56018 0.25559 0.0
C599 C 0.0817 0.56483 0.27028 0.0
C600 C 0.08699 0.58292 0.27755 0.0
C601 C 0.08459 0.59677 0.27031 0.0
C602 C 0.07649 0.59199 0.25573 0.0
C603 C 0.07121 0.57393 0.24846 0.0
C604 C 0.05109 0.51635 0.21 0.0
C605 C 0.0498 0.53062 0.20244 0.0
C606 C 0.04389 0.52721 0.18747 0.0
C607 C 0.03903 0.50942 0.17971 0.0
C608 C 0.03996 0.495 0.18729 0.0
C609 C 0.04598 0.49844 0.20227 0.0
C610 C 0.0729 0.49769 0.25416 0.0
C611 C 0.0694 0.48031 0.24644 0.0
C612 C 0.52001 0.5955 0.25353 0.0
C613 C 0.51677 0.60033 0.26765 0.0
C614 C 0.50003 0.58734 0.27353 0.0
C615 C 0.48668 0.57014 0.26535 0.0
H616 H 0.43433 0.52211 0.26643 0.0
H617 H 0.40396 0.50178 0.27557 0.0
H618 H 0.38244 0.4703 0.23268 0.0
H619 H 0.41294 0.49029 0.2236 0.0
H620 H 0.43935 0.50209 0.1976 0.0
H621 H 0.44503 0.49656 0.17243 0.0
H622 H 0.50395 0.53872 0.18221 0.0
H623 H 0.49822 0.54468 0.20719 0.0
H624 H 0.50959 0.5753 0.23443 0.0
H625 H 0.53262 0.60528 0.24858 0.0
H626 H 0.49722 0.5905 0.28445 0.0
H627 H 0.47386 0.5606 0.27017 0.0
N628 N 0.4583 0.53614 0.24715 0.0
N629 N 0.44797 0.51648 0.22485 0.0
N630 N 0.47828 0.54366 0.22824 0.0
C631 C 0.44463 0.5204 0.23865 0.0
C632 C 0.46479 0.52801 0.21959 0.0
C633 C 0.47517 0.54786 0.24202 0.0
C634 C 0.42615 0.50789 0.24426 0.0
C635 C 0.42316 0.51085 0.25892 0.0
C636 C 0.40568 0.49925 0.26416 0.0
C637 C 0.39072 0.48443 0.25485 0.0
C638 C 0.39372 0.48141 0.2402 0.0
C639 C 0.41122 0.49297 0.23498 0.0
C640 C 0.4683 0.52393 0.20443 0.0
C641 C 0.45353 0.51015 0.19441 0.0
C642 C 0.4568 0.5069 0.17997 0.0
C643 C 0.47493 0.51727 0.17525 0.0
C644 C 0.48974 0.53076 0.18537 0.0
C645 C 0.48646 0.5341 0.19975 0.0
C646 C 0.48975 0.56552 0.25109 0.0
C647 C 0.5067 0.57831 0.24537 0.0
Tb648 Tb 0.52186 0.01663 0.0006 0.0
C649 C 0.51576 0.97881 0.01354 0.0
Tb650 Tb 0.48206 0.98673 0.00779 0.0
O651 O 0.53146 0.02475 0.02399 0.0
O652 O 0.50356 0.0145 0.01664 0.0
O653 O 0.52519 0.99171 0.00416 0.0
C654 C 0.45159 0.96368 0.02109 0.0
O655 O 0.49967 0.97632 0.01797 0.0
C656 C 0.48908 0.98482 0.98042 0.0
C657 C 0.48789 0.02472 0.99439 0.0
O658 O 0.45754 0.95817 0.00998 0.0
O659 O 0.46277 0.98208 0.02465 0.0
O660 O 0.47243 0.97953 0.98442 0.0
O661 O 0.50032 0.98895 0.99163 0.0
O662 O 0.47646 0.00926 0.00112 0.0
O663 O 0.50568 0.02989 0.99269 0.0
C664 C 0.55252 0.03974 0.98751 0.0
O665 O 0.53562 0.02988 0.98107 0.0
O666 O 0.55211 0.03665 0.00128 0.0
C667 C 0.51477 0.01916 0.02792 0.0
Tb668 Tb 0.98546 0.50577 0.99889 0.0
C669 C 0.02428 0.53907 0.01289 0.0
Tb670 Tb 0.01513 0.49516 0.00856 0.0
O671 O 0.9828 0.51248 0.02181 0.0
O672 O 0.98987 0.49136 0.01609 0.0
O673 O 0.00966 0.53476 0.00347 0.0
C674 C 0.0398 0.48874 0.0236 0.0
O675 O 0.02779 0.52556 0.01754 0.0
C676 C 0.01242 0.50001 0.98072 0.0
C677 C 0.97606 0.46159 0.99455 0.0
O678 O 0.02353 0.48484 0.0276 0.0
O679 O 0.04224 0.49631 0.01112 0.0
O680 O 0.01753 0.48819 0.98564 0.0
O681 O 0.01068 0.50951 0.99134 0.0
O682 O 0.9916 0.46599 0.00283 0.0
O683 O 0.97162 0.47488 0.99098 0.0
C684 C 0.96065 0.51222 0.98409 0.0
O685 O 0.97346 0.50979 0.97835 0.0
O686 O 0.96177 0.51094 0.99812 0.0
C687 C 0.98795 0.5007 0.02671 0.0
Tb688 Tb 0.48084 0.49177 0.00801 0.0
C689 C 0.489 0.46031 0.99444 0.0
Tb690 Tb 0.52046 0.50534 0.99853 0.0
O691 O 0.46921 0.48287 0.98505 0.0
O692 O 0.49643 0.50609 0.99054 0.0
O693 O 0.47838 0.4636 0.00324 0.0
C694 C 0.55019 0.51388 0.98368 0.0
O695 O 0.50488 0.47455 0.99017 0.0
C696 C 0.51667 0.50172 0.02657 0.0
C697 C 0.51224 0.53681 0.01196 0.0
O698 O 0.53651 0.5167 0.97959 0.0
O699 O 0.54715 0.50625 0.99615 0.0
O700 O 0.5322 0.51421 0.02147 0.0
O701 O 0.50492 0.49113 0.01605 0.0
O702 O 0.52285 0.53347 0.0032 0.0
O703 O 0.49642 0.52262 0.01634 0.0
C704 C 0.45084 0.4835 0.02242 0.0
O705 O 0.45402 0.49073 0.00981 0.0
O706 O 0.46455 0.48092 0.02692 0.0
C707 C 0.48471 0.49552 0.98003 0.0
Tb708 Tb 0.18699 0.34727 0.33195 0.0
C709 C 0.18212 0.31053 0.34687 0.0
Tb710 Tb 0.14763 0.31779 0.34062 0.0
O711 O 0.1976 0.35603 0.35505 0.0
O712 O 0.16939 0.34599 0.34838 0.0
O713 O 0.19309 0.32538 0.33939 0.0
C714 C 0.1176 0.29565 0.35474 0.0
O715 O 0.16447 0.30548 0.34901 0.0
C716 C 0.1538 0.31388 0.31322 0.0
C717 C 0.15256 0.35425 0.32598 0.0
O718 O 0.11823 0.29504 0.34061 0.0
O719 O 0.13395 0.30861 0.36096 0.0
O720 O 0.13731 0.3089 0.31737 0.0
O721 O 0.1653 0.31905 0.32436 0.0
O722 O 0.14332 0.34171 0.33564 0.0
O723 O 0.16876 0.35689 0.32164 0.0
C724 C 0.21651 0.36937 0.31737 0.0
O725 O 0.21115 0.37554 0.3285 0.0
O726 O 0.20531 0.35083 0.31452 0.0
C727 C 0.18114 0.351 0.35938 0.0
Tb728 Tb 0.65149 0.83915 0.33301 0.0
C729 C 0.69315 0.87349 0.34309 0.0
Tb730 Tb 0.68423 0.82995 0.3404 0.0
O731 O 0.63797 0.82454 0.35225 0.0
O732 O 0.667 0.83796 0.35165 0.0
O733 O 0.67649 0.86816 0.33613 0.0
C734 C 0.70608 0.81993 0.35537 0.0
O735 O 0.69825 0.8609 0.34723 0.0
C736 C 0.68001 0.83377 0.31219 0.0
C737 C 0.64318 0.79616 0.32801 0.0
O738 O 0.71185 0.83371 0.34658 0.0
O739 O 0.688 0.81178 0.35572 0.0
O740 O 0.69256 0.82998 0.31772 0.0
O741 O 0.67152 0.83535 0.32264 0.0
O742 O 0.65926 0.80108 0.33579 0.0
O743 O 0.6382 0.80897 0.32421 0.0
C744 C 0.6297 0.85247 0.32253 0.0
O745 O 0.63586 0.85445 0.33622 0.0
O746 O 0.63574 0.84294 0.3148 0.0
C747 C 0.6536 0.8275 0.35893 0.0
Tb748 Tb 0.1469 0.82675 0.34115 0.0
C749 C 0.15393 0.79351 0.32942 0.0
Tb750 Tb 0.18658 0.83811 0.33331 0.0
O751 O 0.1366 0.81974 0.31789 0.0
O752 O 0.16426 0.84131 0.32449 0.0
O753 O 0.14317 0.79783 0.33728 0.0
C754 C 0.21661 0.84487 0.31938 0.0
O755 O 0.17068 0.807 0.32587 0.0
C756 C 0.18054 0.83294 0.36092 0.0
C757 C 0.17951 0.87131 0.34494 0.0
O758 O 0.20032 0.84029 0.31309 0.0
O759 O 0.21596 0.84553 0.33351 0.0
O760 O 0.19683 0.84486 0.35662 0.0
O761 O 0.16921 0.8235 0.3499 0.0
O762 O 0.19007 0.86697 0.33687 0.0
O763 O 0.16293 0.85781 0.34875 0.0
C764 C 0.11703 0.82027 0.35522 0.0
O765 O 0.11797 0.82086 0.34114 0.0
O766 O 0.13291 0.82339 0.36136 0.0
C767 C 0.15284 0.8317 0.31353 0.0
Tb768 Tb 0.85649 0.68258 0.66586 0.0
C769 C 0.84845 0.64314 0.67817 0.0
Tb770 Tb 0.81594 0.65333 0.67255 0.0
O771 O 0.86577 0.68923 0.68935 0.0
O772 O 0.83815 0.68037 0.68198 0.0
O773 O 0.86041 0.65873 0.67186 0.0
C774 C 0.78522 0.63169 0.68603 0.0
O775 O 0.83085 0.63856 0.67989 0.0
C776 C 0.82245 0.65109 0.64506 0.0
C777 C 0.82404 0.69197 0.65982 0.0
O778 O 0.80234 0.6388 0.69173 0.0
O779 O 0.78542 0.63673 0.67277 0.0
O780 O 0.80571 0.64415 0.64931 0.0
O781 O 0.83397 0.65585 0.6562 0.0
O782 O 0.81439 0.67939 0.66935 0.0
O783 O 0.83975 0.69361 0.6552 0.0
C784 C 0.88841 0.70497 0.65397 0.0
O785 O 0.88003 0.71128 0.66241 0.0
O786 O 0.87884 0.68615 0.65227 0.0
C787 C 0.84912 0.684 0.69324 0.0
Tb788 Tb 0.3222 0.17474 0.66749 0.0
C789 C 0.36317 0.2086 0.67931 0.0
Tb790 Tb 0.35261 0.16434 0.67601 0.0
O791 O 0.30624 0.1595 0.68573 0.0
O792 O 0.33528 0.17224 0.68704 0.0
O793 O 0.34636 0.20379 0.67298 0.0
C794 C 0.37691 0.15692 0.69031 0.0
O795 O 0.36834 0.19562 0.68211 0.0
C796 C 0.34589 0.165 0.64783 0.0
C797 C 0.31217 0.1313 0.66401 0.0
O798 O 0.38049 0.16748 0.67926 0.0
O799 O 0.3597 0.15062 0.69331 0.0
O800 O 0.35201 0.15419 0.65315 0.0
O801 O 0.34554 0.17587 0.6581 0.0
O802 O 0.32702 0.13596 0.67327 0.0
O803 O 0.30901 0.1446 0.65854 0.0
C804 C 0.30132 0.18779 0.65486 0.0
O805 O 0.30716 0.17731 0.64813 0.0
O806 O 0.30719 0.19087 0.66871 0.0
C807 C 0.32097 0.16174 0.69343 0.0
Tb808 Tb 0.81543 0.15876 0.67385 0.0
C809 C 0.82197 0.12673 0.6592 0.0
Tb810 Tb 0.85473 0.17109 0.66409 0.0
O811 O 0.80328 0.15081 0.65102 0.0
O812 O 0.83113 0.17286 0.65631 0.0
O813 O 0.81197 0.13026 0.6685 0.0
C814 C 0.88463 0.17857 0.64977 0.0
O815 O 0.83783 0.14076 0.65474 0.0
C816 C 0.85085 0.16687 0.69208 0.0
C817 C 0.84799 0.20334 0.67826 0.0
O818 O 0.87946 0.16834 0.66098 0.0
O819 O 0.87296 0.18456 0.64662 0.0
O820 O 0.86655 0.17908 0.68707 0.0
O821 O 0.83897 0.1569 0.68149 0.0
O822 O 0.85839 0.19968 0.66948 0.0
O823 O 0.83183 0.18942 0.68239 0.0
C824 C 0.78626 0.15118 0.68917 0.0
O825 O 0.78927 0.15884 0.67671 0.0
O826 O 0.7996 0.14773 0.69295 0.0
C827 C 0.81897 0.16279 0.64585 0.0
H828 H 0.29358 0.8372 0.0647 0.0
H829 H 0.32388 0.85606 0.05471 0.0
H830 H 0.33231 0.90807 0.07893 0.0
H831 H 0.30182 0.88944 0.08874 0.0
H832 H 0.33509 0.8897 0.03811 0.0
H833 H 0.38109 0.90595 0.08961 0.0
H834 H 0.35693 0.88649 0.08736 0.0
H835 H 0.36237 0.91122 0.09078 0.0
C836 C 0.30179 0.85268 0.06783 0.0
C837 C 0.29524 0.8618 0.07752 0.0
C838 C 0.31915 0.86339 0.06218 0.0
C839 C 0.33039 0.88337 0.06624 0.0
C840 C 0.32397 0.89257 0.07589 0.0
H841 H 0.43764 0.97458 0.04361 0.0
H842 H 0.40818 0.95457 0.0545 0.0
C843 C 0.30656 0.88189 0.0815 0.0
C844 C 0.34854 0.89471 0.05994 0.0
H845 H 0.39586 0.92154 0.06888 0.0
C846 C 0.3484 0.89659 0.04479 0.0
C847 C 0.36581 0.90372 0.06875 0.0
C848 C 0.36669 0.90169 0.08502 0.0
C849 C 0.36512 0.90762 0.03822 0.0
C850 C 0.38245 0.91656 0.04701 0.0
C851 C 0.38256 0.91462 0.06217 0.0
C852 C 0.40058 0.92835 0.04072 0.0
C853 C 0.36401 0.91004 0.02202 0.0
C854 C 0.40626 0.92013 0.02959 0.0
C855 C 0.42301 0.93157 0.02329 0.0
C856 C 0.43441 0.95133 0.02815 0.0
C857 C 0.42902 0.95939 0.03961 0.0
C858 C 0.41224 0.94798 0.04585 0.0
H859 H 0.34977 0.9068 0.01782 0.0
H860 H 0.37435 0.92504 0.01967 0.0
H861 H 0.36719 0.89981 0.01587 0.0
H862 H 0.39769 0.9049 0.02572 0.0
H863 H 0.42696 0.92499 0.01455 0.0
H864 H 0.14992 0.45291 0.10529 0.0
H865 H 0.12853 0.46295 0.09472 0.0
H866 H 0.12549 0.43368 0.05283 0.0
H867 H 0.14658 0.42327 0.06337 0.0
H868 H 0.1339 0.48542 0.07008 0.0
H869 H 0.06989 0.41235 0.06123 0.0
H870 H 0.09007 0.41738 0.07336 0.0
H871 H 0.09037 0.41403 0.05384 0.0
C872 C 0.14452 0.44843 0.09387 0.0
C873 C 0.14986 0.43723 0.08517 0.0
C874 C 0.13242 0.45427 0.08784 0.0
C875 C 0.12531 0.44886 0.07306 0.0
C876 C 0.13065 0.43777 0.06432 0.0
H877 H 0.07368 0.49515 0.01576 0.0
H878 H 0.09481 0.48632 0.02858 0.0
C879 C 0.14282 0.43199 0.07032 0.0
C880 C 0.1126 0.45518 0.06668 0.0
H881 H 0.06832 0.43813 0.05063 0.0
C882 C 0.11953 0.47512 0.06588 0.0
C883 C 0.09383 0.44168 0.0614 0.0
C884 C 0.08548 0.42016 0.06258 0.0
C885 C 0.10826 0.48191 0.05957 0.0
C886 C 0.08968 0.46836 0.05383 0.0
C887 C 0.08263 0.44846 0.05496 0.0
C888 C 0.07736 0.47449 0.04644 0.0
C889 C 0.11625 0.50351 0.0592 0.0
C890 C 0.06049 0.47056 0.05218 0.0
C891 C 0.0484 0.47553 0.04486 0.0
C892 C 0.05296 0.48436 0.03164 0.0
C893 C 0.06991 0.48842 0.02597 0.0
C894 C 0.08201 0.48348 0.0333 0.0
H895 H 0.12876 0.51197 0.06721 0.0
H896 H 0.12059 0.50765 0.04806 0.0
H897 H 0.10558 0.50765 0.0616 0.0
H898 H 0.05665 0.46356 0.06228 0.0
H899 H 0.0354 0.47224 0.04945 0.0
H900 H 0.58624 0.7219 0.04421 0.0
H901 H 0.57415 0.6886 0.03323 0.0
H902 H 0.54356 0.66601 0.07101 0.0
H903 H 0.55549 0.69918 0.08202 0.0
H904 H 0.57828 0.65778 0.04836 0.0
H905 H 0.50458 0.63903 0.03322 0.0
H906 H 0.52382 0.66384 0.03578 0.0
H907 H 0.5146 0.65054 0.05142 0.0
C908 C 0.57681 0.70982 0.0501 0.0
C909 C 0.57182 0.7131 0.06397 0.0
C910 C 0.56999 0.69086 0.04385 0.0
C911 C 0.55788 0.67495 0.05128 0.0
C912 C 0.55278 0.67816 0.06507 0.0
H913 H 0.49951 0.54979 0.03444 0.0
H914 H 0.51091 0.5835 0.04374 0.0
C915 C 0.55971 0.69708 0.07138 0.0
C916 C 0.55099 0.65491 0.04488 0.0
H917 H 0.51142 0.6136 0.0304 0.0
C918 C 0.5637 0.64811 0.04433 0.0
C919 C 0.53195 0.64241 0.03979 0.0
C920 C 0.51789 0.64926 0.03995 0.0
C921 C 0.55777 0.62889 0.03909 0.0
C922 C 0.5387 0.61635 0.03388 0.0
C923 C 0.52602 0.62324 0.03437 0.0
C924 C 0.5316 0.59598 0.02801 0.0
C925 C 0.57186 0.62205 0.0396 0.0
C926 C 0.53921 0.59184 0.01592 0.0
C927 C 0.53283 0.57261 0.01065 0.0
C928 C 0.5185 0.55715 0.01724 0.0
C929 C 0.51054 0.56136 0.0291 0.0
C930 C 0.51705 0.58061 0.03444 0.0
H931 H 0.58416 0.63145 0.04758 0.0
H932 H 0.5654 0.60686 0.04262 0.0
H933 H 0.57706 0.62258 0.02859 0.0
H934 H 0.5501 0.60348 0.01054 0.0
H935 H 0.53913 0.56989 0.00139 0.0
H936 H 0.88793 0.28557 0.93333 0.0
H937 H 0.91019 0.31783 0.94539 0.0
H938 H 0.86426 0.32331 0.96052 0.0
H939 H 0.8419 0.29123 0.94835 0.0
H940 H 0.91142 0.35265 0.93936 0.0
H941 H 0.90056 0.33866 0.99783 0.0
H942 H 0.89308 0.31938 0.98332 0.0
H943 H 0.87934 0.33084 0.98626 0.0
C944 C 0.88256 0.29363 0.93924 0.0
C945 C 0.86313 0.28582 0.93987 0.0
C946 C 0.8953 0.312 0.94618 0.0
C947 C 0.88887 0.32283 0.95398 0.0
C948 C 0.86953 0.315 0.95482 0.0
H949 H 0.94423 0.44685 0.97571 0.0
H950 H 0.92347 0.41303 0.9661 0.0
C951 C 0.85677 0.29665 0.94786 0.0
C952 C 0.9023 0.3428 0.96047 0.0
H953 H 0.91807 0.37183 0.99274 0.0
C954 C 0.91297 0.35683 0.95104 0.0
C955 C 0.90439 0.34814 0.97572 0.0
C956 C 0.89387 0.33345 0.98642 0.0
C957 C 0.92537 0.3762 0.95641 0.0
C958 C 0.92695 0.38169 0.97158 0.0
C959 C 0.91665 0.36758 0.98108 0.0
C960 C 0.93923 0.40206 0.97777 0.0
C961 C 0.93678 0.39063 0.94582 0.0
C962 C 0.95469 0.40698 0.98779 0.0
C963 C 0.96659 0.4263 0.99335 0.0
C964 C 0.96312 0.44102 0.98906 0.0
C965 C 0.94736 0.43592 0.97923 0.0
C966 C 0.93552 0.41661 0.97366 0.0
H967 H 0.93736 0.38328 0.93537 0.0
H968 H 0.93026 0.39951 0.9432 0.0
H969 H 0.95135 0.4006 0.95075 0.0
H970 H 0.95771 0.39591 0.99114 0.0
H971 H 0.97855 0.42968 0.00093 0.0
H972 H 0.71653 0.58328 0.94569 0.0
H973 H 0.68623 0.57183 0.95586 0.0
H974 H 0.65754 0.54604 0.91296 0.0
H975 H 0.68777 0.55717 0.90274 0.0
H976 H 0.65668 0.57983 0.94662 0.0
H977 H 0.63428 0.50121 0.94069 0.0
H978 H 0.65842 0.5201 0.94021 0.0
H979 H 0.64188 0.51398 0.92453 0.0
C980 C 0.70376 0.57507 0.93845 0.0
C981 C 0.7045 0.57104 0.92344 0.0
C982 C 0.6865 0.56865 0.94425 0.0
C983 C 0.66972 0.55794 0.93517 0.0
C984 C 0.67038 0.55411 0.92015 0.0
H985 H 0.55817 0.53062 0.95785 0.0
H986 H 0.58684 0.54107 0.94531 0.0
C987 C 0.68763 0.56061 0.91432 0.0
C988 C 0.65152 0.55083 0.94147 0.0
H989 H 0.61244 0.50952 0.9493 0.0
C990 C 0.64695 0.56447 0.94718 0.0
C991 C 0.63902 0.53078 0.94226 0.0
C992 C 0.64361 0.51561 0.93671 0.0
C993 C 0.63011 0.55858 0.95367 0.0
C994 C 0.61751 0.53852 0.95432 0.0
C995 C 0.6221 0.52487 0.94865 0.0
C996 C 0.59985 0.53148 0.96143 0.0
C997 C 0.6261 0.57382 0.96008 0.0
C998 C 0.59754 0.5222 0.9744 0.0
C999 C 0.58123 0.51622 0.98155 0.0
C1000 C 0.56696 0.51934 0.97577 0.0
C1001 C 0.56906 0.52818 0.96257 0.0
C1002 C 0.5854 0.5342 0.95544 0.0
H1003 H 0.63879 0.58854 0.96125 0.0
H1004 H 0.61519 0.57424 0.95274 0.0
H1005 H 0.62066 0.57025 0.97102 0.0
H1006 H 0.60854 0.51993 0.97914 0.0
H1007 H 0.5799 0.50938 0.99168 0.0
H1008 H 0.41816 0.10899 0.91803 0.0
H1009 H 0.42849 0.08837 0.92917 0.0
H1010 H 0.44345 0.12372 0.97033 0.0
H1011 H 0.43186 0.14353 0.95964 0.0
H1012 H 0.46186 0.09666 0.94003 0.0
H1013 H 0.41411 0.07103 0.98431 0.0
H1014 H 0.41099 0.08375 0.96969 0.0
H1015 H 0.42762 0.09703 0.98534 0.0
C1016 C 0.4232 0.11214 0.92956 0.0
C1017 C 0.42402 0.12791 0.93793 0.0
C1018 C 0.4293 0.10043 0.93587 0.0
C1019 C 0.43647 0.10427 0.95066 0.0
C1020 C 0.43754 0.12013 0.95901 0.0
H1021 H 0.50773 0.0623 0.9874 0.0
H1022 H 0.49528 0.08166 0.97698 0.0
C1023 C 0.43118 0.13168 0.95277 0.0
C1024 C 0.44351 0.09216 0.95716 0.0
H1025 H 0.44017 0.0657 0.98617 0.0
C1026 C 0.45701 0.08977 0.95007 0.0
C1027 C 0.43698 0.08292 0.97013 0.0
C1028 C 0.42148 0.08363 0.97772 0.0
C1029 C 0.46436 0.07864 0.95567 0.0
C1030 C 0.45854 0.07023 0.96905 0.0
C1031 C 0.44483 0.07237 0.97603 0.0
C1032 C 0.46617 0.05879 0.97585 0.0
C1033 C 0.47793 0.07565 0.94699 0.0
C1034 C 0.45394 0.03978 0.97929 0.0
C1035 C 0.46099 0.02885 0.98557 0.0
C1036 C 0.48045 0.03667 0.98842 0.0
C1037 C 0.49268 0.05579 0.98517 0.0
C1038 C 0.48559 0.06683 0.97911 0.0
H1039 H 0.47632 0.0777 0.93519 0.0
H1040 H 0.49251 0.08651 0.95133 0.0
H1041 H 0.47592 0.06089 0.94782 0.0
H1042 H 0.4389 0.03329 0.97694 0.0
H1043 H 0.4512 0.01413 0.98789 0.0
H1044 H 0.71839 0.13759 0.94871 0.0
H1045 H 0.68818 0.11887 0.95886 0.0
H1046 H 0.65933 0.11618 0.91739 0.0
H1047 H 0.68951 0.13506 0.90716 0.0
H1048 H 0.66026 0.12936 0.96102 0.0
H1049 H 0.63338 0.05915 0.9272 0.0
H1050 H 0.6578 0.07792 0.92879 0.0
H1051 H 0.64094 0.08015 0.91707 0.0
C1052 C 0.70562 0.13305 0.94175 0.0
C1053 C 0.70635 0.13782 0.92712 0.0
C1054 C 0.68838 0.12229 0.94755 0.0
C1055 C 0.67155 0.11598 0.93883 0.0
C1056 C 0.67217 0.1206 0.92421 0.0
H1057 H 0.55481 0.04988 0.95948 0.0
H1058 H 0.58341 0.06916 0.94717 0.0
C1059 C 0.68942 0.13137 0.91838 0.0
C1060 C 0.65339 0.10522 0.94528 0.0
H1061 H 0.61271 0.06146 0.94307 0.0
C1062 C 0.64986 0.11451 0.9571 0.0
C1063 C 0.63982 0.08591 0.94006 0.0
C1064 C 0.64316 0.07508 0.92766 0.0
C1065 C 0.63309 0.10499 0.96389 0.0
C1066 C 0.61967 0.08556 0.95887 0.0
C1067 C 0.62305 0.07637 0.94688 0.0
C1068 C 0.60238 0.07426 0.9663 0.0
C1069 C 0.62981 0.1159 0.97628 0.0
C1070 C 0.6036 0.07064 0.98104 0.0
C1071 C 0.58734 0.05962 0.988 0.0
C1072 C 0.5696 0.0519 0.98028 0.0
C1073 C 0.56836 0.05554 0.96556 0.0
C1074 C 0.58464 0.06657 0.95857 0.0
H1075 H 0.63863 0.13188 0.97598 0.0
H1076 H 0.61484 0.11199 0.97586 0.0
H1077 H 0.63354 0.11206 0.98692 0.0
H1078 H 0.61716 0.07611 0.98711 0.0
H1079 H 0.58866 0.05692 0.99935 0.0
H1080 H 0.85955 0.56022 0.90245 0.0
H1081 H 0.87958 0.54819 0.9124 0.0
H1082 H 0.86766 0.55812 0.95629 0.0
H1083 H 0.8479 0.5705 0.94651 0.0
H1084 H 0.91177 0.56838 0.93367 0.0
H1085 H 0.85501 0.50058 0.95288 0.0
H1086 H 0.85052 0.51419 0.93969 0.0
H1087 H 0.85484 0.5223 0.95891 0.0
C1088 C 0.86131 0.56 0.91423 0.0
C1089 C 0.85207 0.56627 0.92369 0.0
C1090 C 0.87266 0.55302 0.91987 0.0
C1091 C 0.87484 0.55202 0.93503 0.0
C1092 C 0.86582 0.55842 0.94452 0.0
H1093 H 0.93567 0.52067 0.99572 0.0
H1094 H 0.91488 0.52972 0.98273 0.0
C1095 C 0.85452 0.56546 0.93891 0.0
C1096 C 0.88693 0.54474 0.94102 0.0
H1097 H 0.88634 0.50937 0.96083 0.0
C1098 C 0.90625 0.55539 0.9395 0.0
C1099 C 0.87959 0.52778 0.94858 0.0
C1100 C 0.85883 0.51542 0.95003 0.0
C1101 C 0.91859 0.54993 0.94585 0.0
C1102 C 0.91129 0.53313 0.95364 0.0
C1103 C 0.89189 0.52225 0.95487 0.0
C1104 C 0.92361 0.52712 0.96123 0.0
C1105 C 0.93938 0.56261 0.94465 0.0
C1106 C 0.93518 0.52235 0.9534 0.0
C1107 C 0.94716 0.51731 0.96083 0.0
C1108 C 0.94755 0.51675 0.97614 0.0
C1109 C 0.93563 0.52103 0.9839 0.0
C1110 C 0.92376 0.52617 0.9765 0.0
H1111 H 0.94299 0.57725 0.94144 0.0
H1112 H 0.94754 0.56437 0.95522 0.0
H1113 H 0.94381 0.55569 0.93614 0.0
H1114 H 0.93497 0.52257 0.94158 0.0
H1115 H 0.95616 0.51393 0.95464 0.0
H1116 H 0.40196 0.28585 0.93257 0.0
H1117 H 0.41416 0.31907 0.9435 0.0
H1118 H 0.46642 0.32234 0.95762 0.0
H1119 H 0.45444 0.28923 0.94658 0.0
H1120 H 0.45167 0.33589 0.97953 0.0
H1121 H 0.45435 0.36889 0.92707 0.0
H1122 H 0.43199 0.34821 0.92964 0.0
H1123 H 0.45199 0.34518 0.92781 0.0
C1124 C 0.41611 0.2937 0.93787 0.0
C1125 C 0.42725 0.2849 0.93865 0.0
C1126 C 0.42305 0.31266 0.94412 0.0
C1127 C 0.44127 0.32322 0.95119 0.0
C1128 C 0.45233 0.31443 0.95218 0.0
H1129 H 0.50562 0.44756 0.9751 0.0
H1130 H 0.49448 0.41417 0.96521 0.0
C1131 C 0.44542 0.29547 0.94593 0.0
C1132 C 0.44878 0.3434 0.95767 0.0
H1133 H 0.46021 0.38894 0.94904 0.0
C1134 C 0.45358 0.34752 0.97288 0.0
C1135 C 0.45147 0.35854 0.94891 0.0
C1136 C 0.44735 0.3551 0.93243 0.0
C1137 C 0.46074 0.36639 0.97963 0.0
C1138 C 0.46292 0.38141 0.97092 0.0
C1139 C 0.45839 0.37734 0.95568 0.0
C1140 C 0.46992 0.40151 0.97739 0.0
C1141 C 0.46616 0.37013 0.99596 0.0
C1142 C 0.45975 0.40545 0.98748 0.0
C1143 C 0.46608 0.42451 0.99319 0.0
C1144 C 0.48267 0.44002 0.98885 0.0
C1145 C 0.49284 0.43599 0.97875 0.0
C1146 C 0.48648 0.41691 0.97304 0.0
H1147 H 0.46815 0.35847 0.00033 0.0
H1148 H 0.4793 0.38428 0.99868 0.0
H1149 H 0.45483 0.37065 0.00164 0.0
H1150 H 0.44674 0.3938 0.99076 0.0
H1151 H 0.45783 0.42708 0.00087 0.0
H1152 H 0.15858 0.70962 0.05822 0.0
H1153 H 0.13612 0.67729 0.04651 0.0
H1154 H 0.09031 0.68371 0.06068 0.0
H1155 H 0.11267 0.71621 0.0723 0.0
H1156 H 0.0884 0.64893 0.0674 0.0
H1157 H 0.10047 0.66141 0.00888 0.0
H1158 H 0.1215 0.66913 0.02067 0.0
H1159 H 0.10806 0.68104 0.0231 0.0
C1160 C 0.14372 0.70434 0.0586 0.0
C1161 C 0.13742 0.71553 0.06618 0.0
C1162 C 0.13091 0.68584 0.05191 0.0
C1163 C 0.11156 0.67822 0.05258 0.0
C1164 C 0.10519 0.68938 0.06001 0.0
H1165 H 0.02265 0.57107 0.00538 0.0
H1166 H 0.04339 0.6049 0.01506 0.0
C1167 C 0.11799 0.70789 0.0667 0.0
C1168 C 0.09805 0.65817 0.04628 0.0
H1169 H 0.08268 0.62842 0.01437 0.0
C1170 C 0.08705 0.64446 0.05579 0.0
C1171 C 0.09621 0.65246 0.03111 0.0
C1172 C 0.10705 0.6668 0.0203 0.0
C1173 C 0.07455 0.62503 0.0506 0.0
C1174 C 0.07325 0.61915 0.03554 0.0
C1175 C 0.08389 0.63296 0.02595 0.0
C1176 C 0.06092 0.59869 0.02955 0.0
C1177 C 0.06275 0.611 0.06126 0.0
C1178 C 0.06411 0.58406 0.03434 0.0
C1179 C 0.0523 0.56471 0.02885 0.0
C1180 C 0.03711 0.55965 0.0184 0.0
C1181 C 0.03416 0.57442 0.01345 0.0
C1182 C 0.04601 0.59378 0.01894 0.0
H1183 H 0.06186 0.61869 0.0714 0.0
H1184 H 0.04831 0.6009 0.05616 0.0
H1185 H 0.06918 0.60223 0.06449 0.0
H1186 H 0.07576 0.58763 0.04233 0.0
H1187 H 0.05504 0.55374 0.03287 0.0
H1188 H 0.29641 0.40515 0.08523 0.0
H1189 H 0.32633 0.41473 0.07493 0.0
H1190 H 0.33363 0.47133 0.06892 0.0
H1191 H 0.30398 0.46205 0.07951 0.0
H1192 H 0.33632 0.42747 0.04677 0.0
H1193 H 0.38347 0.48324 0.09145 0.0
H1194 H 0.35945 0.46531 0.09372 0.0
H1195 H 0.36455 0.48632 0.0842 0.0
C1196 C 0.30449 0.4197 0.08185 0.0
C1197 C 0.29788 0.43287 0.08322 0.0
C1198 C 0.32151 0.42511 0.07592 0.0
C1199 C 0.33227 0.44381 0.07138 0.0
C1200 C 0.32566 0.45694 0.0726 0.0
H1201 H 0.4203 0.48569 0.01282 0.0
H1202 H 0.3916 0.47576 0.02512 0.0
C1203 C 0.30863 0.45153 0.07849 0.0
C1204 C 0.35015 0.44941 0.06493 0.0
H1205 H 0.39723 0.48182 0.06953 0.0
C1206 C 0.34966 0.43928 0.05177 0.0
C1207 C 0.36751 0.46467 0.0716 0.0
C1208 C 0.36889 0.47543 0.0861 0.0
C1209 C 0.36608 0.44434 0.04487 0.0
C1210 C 0.38334 0.46008 0.05125 0.0
C1211 C 0.38391 0.46988 0.06462 0.0
C1212 C 0.40092 0.46666 0.0441 0.0
C1213 C 0.36486 0.43276 0.03086 0.0
C1214 C 0.41581 0.46532 0.05093 0.0
C1215 C 0.43221 0.47101 0.04394 0.0
C1216 C 0.43395 0.47825 0.03009 0.0
C1217 C 0.41923 0.48005 0.02346 0.0
C1218 C 0.40283 0.47431 0.03043 0.0
H1219 H 0.35168 0.41844 0.0294 0.0
H1220 H 0.3651 0.44095 0.02136 0.0
H1221 H 0.37699 0.43032 0.03072 0.0
H1222 H 0.4146 0.45958 0.06155 0.0
H1223 H 0.44344 0.4696 0.04931 0.0
H1224 H 0.55078 0.84784 0.05498 0.0
H1225 H 0.54034 0.86881 0.04446 0.0
H1226 H 0.59299 0.91939 0.06075 0.0
H1227 H 0.60363 0.89852 0.07123 0.0
H1228 H 0.56165 0.92206 0.06727 0.0
H1229 H 0.55735 0.89932 0.00819 0.0
H1230 H 0.54473 0.87951 0.0192 0.0
H1231 H 0.56986 0.89401 0.02228 0.0
C1232 C 0.56027 0.86341 0.05611 0.0
C1233 C 0.57807 0.87151 0.0639 0.0
C1234 C 0.55428 0.87536 0.0501 0.0
C1235 C 0.56599 0.89562 0.05166 0.0
C1236 C 0.58377 0.90378 0.05939 0.0
H1237 H 0.54765 0.97888 0.00653 0.0
H1238 H 0.56023 0.95915 0.016 0.0
C1239 C 0.58978 0.89184 0.06542 0.0
C1240 C 0.55939 0.90834 0.04577 0.0
H1241 H 0.54359 0.91862 0.01418 0.0
C1242 C 0.55779 0.9214 0.05566 0.0
C1243 C 0.55456 0.90757 0.0306 0.0
C1244 C 0.55686 0.89449 0.01941 0.0
C1245 C 0.55111 0.93345 0.05081 0.0
C1246 C 0.54564 0.93216 0.03571 0.0
C1247 C 0.54762 0.91941 0.02578 0.0
C1248 C 0.53789 0.944 0.02998 0.0
C1249 C 0.55017 0.9476 0.06186 0.0
C1250 C 0.52103 0.94181 0.03457 0.0
C1251 C 0.51379 0.95307 0.0292 0.0
C1252 C 0.52324 0.96664 0.01905 0.0
C1253 C 0.54002 0.9686 0.01434 0.0
C1254 C 0.54724 0.95733 0.01973 0.0
H1255 H 0.55929 0.95034 0.07211 0.0
H1256 H 0.55445 0.96168 0.05724 0.0
H1257 H 0.53552 0.94148 0.0648 0.0
H1258 H 0.51342 0.93133 0.04228 0.0
H1259 H 0.50081 0.95113 0.03303 0.0
H1260 H 0.95098 0.19485 0.38902 0.0
H1261 H 0.98198 0.21394 0.38026 0.0
H1262 H 0.00738 0.22709 0.42481 0.0
H1263 H 0.97645 0.2073 0.43364 0.0
H1264 H 0.00797 0.25262 0.38669 0.0
H1265 H 0.03744 0.20671 0.40408 0.0
H1266 H 0.01271 0.19862 0.40364 0.0
H1267 H 0.02868 0.21523 0.41852 0.0
C1268 C 0.96316 0.20156 0.39695 0.0
C1269 C 0.96122 0.19938 0.41202 0.0
C1270 C 0.98086 0.2126 0.39193 0.0
C1271 C 0.997 0.22167 0.40186 0.0
C1272 C 0.99514 0.21988 0.41693 0.0
H1273 H 0.1145 0.29582 0.3843 0.0
H1274 H 0.08563 0.2784 0.39673 0.0
C1275 C 0.97742 0.20877 0.42197 0.0
C1276 C 0.01569 0.23322 0.39632 0.0
H1277 H 0.05798 0.23566 0.39369 0.0
C1278 C 0.01891 0.24893 0.38825 0.0
C1279 C 0.02996 0.2284 0.39842 0.0
C1280 C 0.02705 0.21123 0.40652 0.0
C1281 C 0.03595 0.25986 0.38209 0.0
C1282 C 0.05006 0.25482 0.38395 0.0
C1283 C 0.04708 0.23944 0.39232 0.0
C1284 C 0.06759 0.26476 0.37662 0.0
C1285 C 0.03876 0.27668 0.37357 0.0
C1286 C 0.06695 0.26248 0.36127 0.0
C1287 C 0.08334 0.27225 0.3542 0.0
C1288 C 0.10061 0.28448 0.36237 0.0
C1289 C 0.10132 0.28647 0.37777 0.0
C1290 C 0.0849 0.27657 0.38486 0.0
H1291 H 0.0285 0.28141 0.37596 0.0
H1292 H 0.05319 0.28926 0.37615 0.0
H1293 H 0.03689 0.27221 0.36164 0.0
H1294 H 0.05373 0.25321 0.35477 0.0
H1295 H 0.08243 0.27046 0.34231 0.0
H1296 H 0.83355 0.78602 0.40621 0.0
H1297 H 0.81309 0.79749 0.39627 0.0
H1298 H 0.76472 0.74652 0.40893 0.0
H1299 H 0.78499 0.73464 0.41861 0.0
H1300 H 0.78169 0.77615 0.37375 0.0
H1301 H 0.76058 0.79375 0.42657 0.0
H1302 H 0.78118 0.79139 0.42554 0.0
H1303 H 0.75829 0.7701 0.42393 0.0
C1304 C 0.81855 0.77714 0.40678 0.0
C1305 C 0.81091 0.75938 0.41319 0.0
C1306 C 0.80691 0.7838 0.40119 0.0
C1307 C 0.78747 0.77295 0.40204 0.0
C1308 C 0.77975 0.75525 0.40842 0.0
H1309 H 0.69526 0.79009 0.37279 0.0
H1310 H 0.71503 0.77862 0.38431 0.0
C1311 C 0.79136 0.74851 0.41396 0.0
C1312 C 0.77523 0.77985 0.39574 0.0
H1313 H 0.74598 0.79677 0.40475 0.0
C1314 C 0.7739 0.78071 0.3805 0.0
C1315 C 0.76504 0.78563 0.40462 0.0
C1316 C 0.76636 0.78535 0.4211 0.0
C1317 C 0.76246 0.78705 0.37384 0.0
C1318 C 0.75248 0.79315 0.38273 0.0
C1319 C 0.75371 0.79215 0.39798 0.0
C1320 C 0.74073 0.80064 0.37636 0.0
C1321 C 0.76087 0.78675 0.35731 0.0
C1322 C 0.74873 0.8171 0.36842 0.0
C1323 C 0.73747 0.82357 0.36178 0.0
C1324 C 0.71807 0.8138 0.36311 0.0
C1325 C 0.71017 0.79778 0.37152 0.0
C1326 C 0.72143 0.79125 0.37811 0.0
H1327 H 0.76498 0.77672 0.35201 0.0
H1328 H 0.74633 0.78226 0.35296 0.0
H1329 H 0.7704 0.80155 0.3541 0.0
H1330 H 0.76366 0.82485 0.36726 0.0
H1331 H 0.74391 0.83608 0.35547 0.0
H1332 H 0.21635 0.04469 0.38709 0.0
H1333 H 0.20476 0.01165 0.37603 0.0
H1334 H 0.25594 0.01429 0.3926 0.0
H1335 H 0.26777 0.04744 0.40356 0.0
H1336 H 0.2206 0.99699 0.3554 0.0
H1337 H 0.21372 0.96562 0.40911 0.0
H1338 H 0.21659 0.9894 0.40734 0.0
H1339 H 0.23648 0.98593 0.40691 0.0
C1340 C 0.22526 0.03836 0.38822 0.0
C1341 C 0.24294 0.04865 0.3963 0.0
C1342 C 0.21857 0.01945 0.38195 0.0
C1343 C 0.22939 0.01048 0.3837 0.0
C1344 C 0.24724 0.02087 0.39138 0.0
H1345 H 0.21196 0.90333 0.33871 0.0
H1346 H 0.22372 0.93724 0.34754 0.0
C1347 C 0.25396 0.03977 0.39765 0.0
C1348 C 0.22181 0.9901 0.37771 0.0
H1349 H 0.20831 0.94467 0.38785 0.0
C1350 C 0.21789 0.98552 0.36246 0.0
C1351 C 0.21808 0.97518 0.38701 0.0
C1352 C 0.22126 0.97917 0.40352 0.0
C1353 C 0.21056 0.96638 0.35623 0.0
C1354 C 0.20727 0.95156 0.36551 0.0
C1355 C 0.21097 0.95612 0.38077 0.0
C1356 C 0.19983 0.93114 0.35967 0.0
C1357 C 0.2061 0.96212 0.3398 0.0
C1358 C 0.18263 0.91647 0.36374 0.0
C1359 C 0.17589 0.89706 0.35878 0.0
C1360 C 0.1863 0.89196 0.34972 0.0
C1361 C 0.20353 0.90674 0.34562 0.0
C1362 C 0.21024 0.92615 0.35058 0.0
H1363 H 0.20509 0.97396 0.33469 0.0
H1364 H 0.21744 0.96069 0.33493 0.0
H1365 H 0.19269 0.94826 0.33699 0.0
H1366 H 0.17445 0.92004 0.37082 0.0
H1367 H 0.16261 0.88607 0.3622 0.0
H1368 H 0.55522 0.61849 0.26979 0.0
H1369 H 0.57763 0.65078 0.28172 0.0
H1370 H 0.53188 0.65722 0.29602 0.0
H1371 H 0.50937 0.62512 0.28396 0.0
H1372 H 0.57923 0.68553 0.27492 0.0
H1373 H 0.56796 0.67333 0.33358 0.0
H1374 H 0.56044 0.65365 0.3194 0.0
H1375 H 0.54681 0.66533 0.32186 0.0
C1376 C 0.54991 0.62675 0.27551 0.0
C1377 C 0.53048 0.61922 0.2759 0.0
C1378 C 0.56274 0.64514 0.28238 0.0
C1379 C 0.55641 0.65627 0.28989 0.0
C1380 C 0.53707 0.64869 0.29055 0.0
H1381 H 0.61115 0.7804 0.30929 0.0
H1382 H 0.59064 0.74627 0.30039 0.0
C1383 C 0.52422 0.63032 0.28365 0.0
C1384 C 0.56994 0.67635 0.29613 0.0
H1385 H 0.58556 0.7063 0.32796 0.0
C1386 C 0.58072 0.69005 0.28653 0.0
C1387 C 0.57196 0.68214 0.3113 0.0
C1388 C 0.56132 0.66783 0.32218 0.0
C1389 C 0.59312 0.70953 0.29162 0.0
C1390 C 0.5946 0.71548 0.30669 0.0
C1391 C 0.58423 0.70169 0.31638 0.0
C1392 C 0.60672 0.73604 0.31252 0.0
C1393 C 0.6046 0.7236 0.28086 0.0
C1394 C 0.62229 0.74148 0.32258 0.0
C1395 C 0.63406 0.761 0.32773 0.0
C1396 C 0.63036 0.77539 0.323 0.0
C1397 C 0.61447 0.76975 0.31316 0.0
C1398 C 0.60277 0.75026 0.30799 0.0
H1399 H 0.60524 0.71595 0.27059 0.0
H1400 H 0.59808 0.73238 0.2779 0.0
H1401 H 0.61913 0.7337 0.28578 0.0
H1402 H 0.62549 0.73067 0.32625 0.0
H1403 H 0.64611 0.76479 0.33535 0.0
H1404 H 0.35363 0.8916 0.23754 0.0
H1405 H 0.3237 0.881 0.24808 0.0
H1406 H 0.35254 0.89899 0.29158 0.0
H1407 H 0.38255 0.91032 0.28114 0.0
H1408 H 0.3068 0.85327 0.26766 0.0
H1409 H 0.32113 0.92531 0.29137 0.0
H1410 H 0.33534 0.9226 0.27814 0.0
H1411 H 0.33884 0.91968 0.2972 0.0
C1412 C 0.35363 0.89359 0.24934 0.0
C1413 C 0.37049 0.90191 0.2585 0.0
C1414 C 0.33652 0.88739 0.25534 0.0
C1415 C 0.33596 0.88948 0.27058 0.0
C1416 C 0.35271 0.8976 0.27976 0.0
H1417 H 0.25175 0.85703 0.33177 0.0
H1418 H 0.28025 0.86703 0.31916 0.0
C1419 C 0.36983 0.90385 0.27378 0.0
C1420 C 0.31781 0.88271 0.27695 0.0
H1421 H 0.29454 0.89761 0.29915 0.0
C1422 C 0.30403 0.86298 0.27443 0.0
C1423 C 0.31425 0.89545 0.28574 0.0
C1424 C 0.32809 0.91697 0.28817 0.0
C1425 C 0.28696 0.85552 0.28087 0.0
C1426 C 0.28362 0.86819 0.28992 0.0
C1427 C 0.29726 0.88795 0.29226 0.0
C1428 C 0.26619 0.86121 0.29733 0.0
C1429 C 0.27283 0.8341 0.27828 0.0
C1430 C 0.24891 0.85464 0.28918 0.0
C1431 C 0.23264 0.84898 0.29635 0.0
C1432 C 0.23348 0.84983 0.31176 0.0
C1433 C 0.25075 0.85619 0.31987 0.0
C1434 C 0.267 0.86192 0.31271 0.0
H1435 H 0.27895 0.82574 0.27328 0.0
H1436 H 0.26727 0.82809 0.28876 0.0
H1437 H 0.26084 0.83193 0.27074 0.0
H1438 H 0.24809 0.85426 0.27731 0.0
H1439 H 0.21948 0.84422 0.28987 0.0
H1440 H 0.06387 0.43269 0.266 0.0
H1441 H 0.07448 0.41176 0.27646 0.0
H1442 H 0.12619 0.46239 0.29436 0.0
H1443 H 0.11576 0.48339 0.2839 0.0
H1444 H 0.10626 0.40969 0.27082 0.0
H1445 H 0.10792 0.43077 0.32984 0.0
H1446 H 0.09592 0.43635 0.31552 0.0
H1447 H 0.12097 0.45102 0.31934 0.0
C1448 C 0.0775 0.43936 0.27216 0.0
C1449 C 0.08894 0.4597 0.27418 0.0
C1450 C 0.0835 0.4274 0.27817 0.0
C1451 C 0.10099 0.43555 0.28636 0.0
C1452 C 0.11245 0.45582 0.28837 0.0
H1453 H 0.16726 0.38161 0.30621 0.0
H1454 H 0.15417 0.40074 0.29646 0.0
C1455 C 0.10647 0.4678 0.28239 0.0
C1456 C 0.10757 0.42285 0.29233 0.0
H1457 H 0.12263 0.41229 0.32413 0.0
C1458 C 0.10974 0.41016 0.28248 0.0
C1459 C 0.11188 0.42335 0.30756 0.0
C1460 C 0.1089 0.43596 0.31871 0.0
C1461 C 0.11652 0.39824 0.28743 0.0
C1462 C 0.12155 0.39931 0.30261 0.0
C1463 C 0.11896 0.41167 0.31249 0.0
C1464 C 0.12946 0.38769 0.30847 0.0
C1465 C 0.11807 0.38447 0.2764 0.0
C1466 C 0.12013 0.37435 0.31873 0.0
C1467 C 0.12763 0.36349 0.32442 0.0
C1468 C 0.14469 0.36585 0.32001 0.0
C1469 C 0.15408 0.37936 0.30981 0.0
C1470 C 0.14656 0.39023 0.30414 0.0
H1471 H 0.10909 0.38165 0.26606 0.0
H1472 H 0.13283 0.39098 0.27365 0.0
H1473 H 0.11401 0.37038 0.28094 0.0
H1474 H 0.10696 0.37226 0.32226 0.0
H1475 H 0.12003 0.35324 0.33226 0.0
H1476 H 0.37234 0.49602 0.27333 0.0
H1477 H 0.34203 0.47582 0.28291 0.0
H1478 H 0.33609 0.4253 0.25803 0.0
H1479 H 0.36674 0.44523 0.24886 0.0
H1480 H 0.30679 0.45314 0.26807 0.0
H1481 H 0.32754 0.40788 0.29933 0.0
H1482 H 0.34448 0.43002 0.29215 0.0
H1483 H 0.33155 0.40793 0.28024 0.0
C1484 C 0.36472 0.48057 0.27004 0.0
C1485 C 0.37207 0.47223 0.26041 0.0
C1486 C 0.34733 0.46908 0.27543 0.0
C1487 C 0.33695 0.44903 0.27135 0.0
C1488 C 0.34403 0.44069 0.26154 0.0
H1489 H 0.22916 0.35729 0.29454 0.0
H1490 H 0.25775 0.37671 0.28236 0.0
C1491 C 0.36146 0.45216 0.25617 0.0
C1492 C 0.31865 0.4369 0.27732 0.0
H1493 H 0.29537 0.39864 0.29789 0.0
C1494 C 0.30429 0.44124 0.27461 0.0
C1495 C 0.31545 0.42139 0.28585 0.0
C1496 C 0.33061 0.41659 0.2897 0.0
C1497 C 0.28674 0.43039 0.28013 0.0
C1498 C 0.2836 0.41495 0.28867 0.0
C1499 C 0.29786 0.41048 0.29127 0.0
C1500 C 0.26577 0.40356 0.29539 0.0
C1501 C 0.27161 0.43533 0.27667 0.0
C1502 C 0.26087 0.41229 0.30671 0.0
C1503 C 0.24464 0.40123 0.31373 0.0
C1504 C 0.23311 0.38128 0.30953 0.0
C1505 C 0.23786 0.37264 0.29801 0.0
C1506 C 0.25414 0.38369 0.29105 0.0
H1507 H 0.27485 0.44479 0.26749 0.0
H1508 H 0.25784 0.4219 0.27375 0.0
H1509 H 0.27029 0.44313 0.28652 0.0
H1510 H 0.26982 0.42756 0.31033 0.0
H1511 H 0.24128 0.40821 0.32259 0.0
H1512 H 0.52451 0.92444 0.28606 0.0
H1513 H 0.54589 0.9154 0.29812 0.0
H1514 H 0.55182 0.89247 0.25628 0.0
H1515 H 0.53043 0.90135 0.24416 0.0
H1516 H 0.541 0.87825 0.29837 0.0
H1517 H 0.60624 0.92728 0.2733 0.0
H1518 H 0.58611 0.9306 0.27269 0.0
H1519 H 0.58653 0.91277 0.26008 0.0
C1520 C 0.5304 0.91749 0.27943 0.0
C1521 C 0.52582 0.91366 0.26414 0.0
C1522 C 0.54266 0.91243 0.28632 0.0
C1523 C 0.55064 0.90354 0.27806 0.0
C1524 C 0.54616 0.89975 0.26281 0.0
H1525 H 0.61694 0.84954 0.29403 0.0
H1526 H 0.59772 0.86247 0.28398 0.0
C1527 C 0.53393 0.90483 0.2559 0.0
C1528 C 0.56288 0.89729 0.28544 0.0
H1529 H 0.60629 0.90182 0.28588 0.0
C1530 C 0.55535 0.88354 0.29577 0.0
C1531 C 0.58157 0.90423 0.28201 0.0
C1532 C 0.59068 0.91968 0.27152 0.0
C1533 C 0.56582 0.87605 0.30241 0.0
C1534 C 0.58438 0.88272 0.29874 0.0
C1535 C 0.59202 0.89671 0.28861 0.0
C1536 C 0.59593 0.87494 0.30498 0.0
C1537 C 0.55675 0.8606 0.3129 0.0
C1538 C 0.60138 0.87783 0.3201 0.0
C1539 C 0.61233 0.87044 0.32587 0.0
C1540 C 0.61803 0.86014 0.31657 0.0
C1541 C 0.61267 0.85738 0.30144 0.0
C1542 C 0.60174 0.86478 0.29569 0.0
H1543 H 0.54125 0.85408 0.31207 0.0
H1544 H 0.56008 0.84884 0.31079 0.0
H1545 H 0.56228 0.86718 0.32432 0.0
H1546 H 0.59728 0.88592 0.32742 0.0
H1547 H 0.61639 0.87284 0.33757 0.0
H1548 H 0.06678 0.618 0.26948 0.0
H1549 H 0.07845 0.6511 0.28049 0.0
H1550 H 0.12848 0.6529 0.299 0.0
H1551 H 0.11705 0.6199 0.28792 0.0
H1552 H 0.11198 0.66767 0.31873 0.0
H1553 H 0.12195 0.69974 0.26516 0.0
H1554 H 0.09886 0.67961 0.26673 0.0
H1555 H 0.11859 0.6758 0.26704 0.0
C1556 C 0.08031 0.62547 0.27584 0.0
C1557 C 0.09105 0.61637 0.27773 0.0
C1558 C 0.08693 0.64435 0.28213 0.0
C1559 C 0.10443 0.6545 0.29036 0.0
C1560 C 0.11494 0.64529 0.29265 0.0
H1561 H 0.17134 0.77874 0.31277 0.0
H1562 H 0.15957 0.74481 0.30408 0.0
C1563 C 0.10835 0.62641 0.28636 0.0
C1564 C 0.11195 0.67485 0.29639 0.0
H1565 H 0.12645 0.72051 0.28631 0.0
C1566 C 0.11517 0.67925 0.31167 0.0
C1567 C 0.11631 0.68992 0.28711 0.0
C1568 C 0.11393 0.68614 0.27059 0.0
C1569 C 0.12242 0.69836 0.31795 0.0
C1570 C 0.12632 0.71334 0.30868 0.0
C1571 C 0.12332 0.70896 0.29339 0.0
C1572 C 0.13368 0.73373 0.31456 0.0
C1573 C 0.12612 0.70241 0.33443 0.0
C1574 C 0.12297 0.73872 0.32329 0.0
C1575 C 0.12965 0.75811 0.3283 0.0
C1576 C 0.14714 0.77288 0.3246 0.0
C1577 C 0.15785 0.76777 0.31588 0.0
C1578 C 0.15114 0.74838 0.31088 0.0
H1579 H 0.12682 0.69048 0.33966 0.0
H1580 H 0.13948 0.71622 0.33757 0.0
H1581 H 0.11457 0.70382 0.3389 0.0
H1582 H 0.10929 0.72766 0.32601 0.0
H1583 H 0.12099 0.76152 0.33492 0.0
H1584 H 0.82605 0.04176 0.3942 0.0
H1585 H 0.80431 0.00927 0.38225 0.0
H1586 H 0.75881 0.02118 0.38338 0.0
H1587 H 0.78051 0.05385 0.39528 0.0
H1588 H 0.76885 0.98109 0.39576 0.0
H1589 H 0.75754 0.99879 0.3394 0.0
H1590 H 0.77847 0.01459 0.35141 0.0
H1591 H 0.75667 0.01324 0.35483 0.0
C1592 C 0.81148 0.03759 0.39169 0.0
C1593 C 0.80498 0.05036 0.39564 0.0
C1594 C 0.79909 0.01902 0.38494 0.0
C1595 C 0.78005 0.01297 0.38186 0.0
C1596 C 0.77352 0.02572 0.38556 0.0
H1597 H 0.68568 0.90337 0.34281 0.0
H1598 H 0.70664 0.93738 0.35201 0.0
C1599 C 0.78588 0.04428 0.39243 0.0
C1600 C 0.76687 0.99288 0.37557 0.0
H1601 H 0.74057 0.96585 0.34421 0.0
C1602 C 0.76265 0.9777 0.38449 0.0
C1603 C 0.75873 0.98866 0.36094 0.0
C1604 C 0.76307 0.0046 0.35098 0.0
C1605 C 0.75039 0.95829 0.37916 0.0
C1606 C 0.74261 0.95395 0.36437 0.0
C1607 C 0.74665 0.9692 0.3555 0.0
C1608 C 0.73031 0.93364 0.35794 0.0
C1609 C 0.74562 0.94266 0.38953 0.0
C1610 C 0.73685 0.92041 0.35782 0.0
C1611 C 0.72489 0.90096 0.35269 0.0
C1612 C 0.70622 0.89441 0.34737 0.0
C1613 C 0.69996 0.90791 0.34686 0.0
C1614 C 0.71192 0.92735 0.35212 0.0
H1615 H 0.74813 0.94864 0.40119 0.0
H1616 H 0.73072 0.93093 0.3874 0.0
H1617 H 0.75466 0.93618 0.38796 0.0
H1618 H 0.75116 0.92508 0.36188 0.0
H1619 H 0.73025 0.89102 0.35306 0.0
H1620 H 0.95154 0.75781 0.39129 0.0
H1621 H 0.98239 0.77069 0.38192 0.0
H1622 H 0.00814 0.78105 0.42613 0.0
H1623 H 0.97737 0.76848 0.43566 0.0
H1624 H 0.01495 0.80883 0.38958 0.0
H1625 H 0.02726 0.74864 0.4034 0.0
H1626 H 0.00423 0.74614 0.40253 0.0
H1627 H 0.02086 0.75949 0.41806 0.0
C1628 C 0.96377 0.76294 0.39904 0.0
C1629 C 0.96199 0.76209 0.41422 0.0
C1630 C 0.98135 0.7702 0.39366 0.0
C1631 C 0.99746 0.77662 0.40334 0.0
C1632 C 0.9958 0.77585 0.41849 0.0
H1633 H 0.11365 0.81837 0.38462 0.0
H1634 H 0.08532 0.80954 0.39725 0.0
C1635 C 0.97821 0.76862 0.42389 0.0
C1636 C 0.01601 0.7844 0.39751 0.0
H1637 H 0.05159 0.77498 0.39296 0.0
C1638 C 0.02301 0.80148 0.39033 0.0
C1639 C 0.02649 0.77482 0.39864 0.0
C1640 C 0.01934 0.75617 0.40597 0.0
C1641 C 0.04025 0.80923 0.38416 0.0
C1642 C 0.0505 0.79936 0.38492 0.0
C1643 C 0.04368 0.7825 0.39239 0.0
C1644 C 0.06787 0.80572 0.37745 0.0
C1645 C 0.04738 0.82797 0.37697 0.0
C1646 C 0.06738 0.8064 0.36215 0.0
C1647 C 0.0835 0.81148 0.35495 0.0
C1648 C 0.10031 0.81579 0.36292 0.0
C1649 C 0.10084 0.81517 0.37824 0.0
C1650 C 0.0847 0.81012 0.38545 0.0
H1651 H 0.0411 0.83658 0.38118 0.0
H1652 H 0.06291 0.83704 0.37881 0.0
H1653 H 0.04345 0.8246 0.36496 0.0
H1654 H 0.05443 0.80261 0.35573 0.0
H1655 H 0.08273 0.81173 0.34311 0.0
H1656 H 0.23944 0.19251 0.37884 0.0
H1657 H 0.22838 0.21316 0.36892 0.0
H1658 H 0.24176 0.24565 0.41126 0.0
H1659 H 0.2514 0.22408 0.4216 0.0
H1660 H 0.20908 0.23831 0.4003 0.0
H1661 H 0.25779 0.26674 0.35692 0.0
H1662 H 0.2443 0.24073 0.35483 0.0
H1663 H 0.26051 0.25297 0.37089 0.0
C1664 C 0.23988 0.2039 0.38612 0.0
C1665 C 0.24636 0.20655 0.40106 0.0
C1666 C 0.23386 0.21596 0.38034 0.0
C1667 C 0.23463 0.23126 0.38925 0.0
C1668 C 0.24119 0.23405 0.40413 0.0
H1669 H 0.21896 0.32194 0.35359 0.0
H1670 H 0.23179 0.3032 0.36454 0.0
C1671 C 0.2469 0.22179 0.40999 0.0
C1672 C 0.22775 0.24377 0.38326 0.0
H1673 H 0.23135 0.27154 0.35509 0.0
C1674 C 0.21409 0.24572 0.39049 0.0
C1675 C 0.23449 0.25373 0.3706 0.0
C1676 C 0.25023 0.25362 0.36297 0.0
C1677 C 0.20673 0.25703 0.38527 0.0
C1678 C 0.21265 0.26603 0.37212 0.0
C1679 C 0.22659 0.26441 0.36505 0.0
C1680 C 0.20474 0.27736 0.36556 0.0
C1681 C 0.193 0.25951 0.39413 0.0
C1682 C 0.18528 0.26901 0.36231 0.0
C1683 C 0.1779 0.27981 0.35629 0.0
C1684 C 0.18988 0.29899 0.35304 0.0
C1685 C 0.20938 0.30716 0.35592 0.0
C1686 C 0.21673 0.29647 0.36219 0.0
H1687 H 0.19474 0.25729 0.40586 0.0
H1688 H 0.1947 0.27418 0.39351 0.0
H1689 H 0.17847 0.24849 0.38978 0.0
H1690 H 0.17578 0.25409 0.36435 0.0
H1691 H 0.16283 0.27305 0.35402 0.0
H1692 H 0.64759 0.53424 0.76537 0.0
H1693 H 0.67806 0.55414 0.75575 0.0
H1694 H 0.65006 0.55701 0.71566 0.0
H1695 H 0.61962 0.53754 0.72529 0.0
H1696 H 0.69036 0.54514 0.72943 0.0
H1697 H 0.68949 0.61426 0.7285 0.0
H1698 H 0.6742 0.59483 0.73908 0.0
H1699 H 0.66874 0.59345 0.71964 0.0
C1700 C 0.64795 0.53935 0.75459 0.0
C1701 C 0.63122 0.53437 0.74609 0.0
C1702 C 0.66534 0.5506 0.74909 0.0
C1703 C 0.66627 0.55721 0.73509 0.0
C1704 C 0.64962 0.55229 0.72659 0.0
H1705 H 0.7492 0.6196 0.67596 0.0
H1706 H 0.7209 0.60126 0.68866 0.0
C1707 C 0.63225 0.54101 0.73204 0.0
C1708 C 0.6846 0.56866 0.72907 0.0
H1709 H 0.71277 0.61209 0.71555 0.0
C1710 C 0.6954 0.55985 0.72652 0.0
C1711 C 0.69106 0.58783 0.72531 0.0
C1712 C 0.68037 0.59826 0.72838 0.0
C1713 C 0.71221 0.56947 0.71978 0.0
C1714 C 0.71848 0.58851 0.71576 0.0
C1715 C 0.70787 0.59746 0.7186 0.0
C1716 C 0.73568 0.5992 0.7081 0.0
C1717 C 0.72275 0.55893 0.71654 0.0
C1718 C 0.75334 0.60412 0.71486 0.0
C1719 C 0.76949 0.61448 0.70756 0.0
C1720 C 0.76821 0.62025 0.69353 0.0
C1721 C 0.75055 0.6153 0.68679 0.0
C1722 C 0.73441 0.60489 0.69404 0.0
H1723 H 0.71389 0.54301 0.71717 0.0
H1724 H 0.72792 0.56153 0.70545 0.0
H1725 H 0.73508 0.56443 0.72472 0.0
H1726 H 0.75467 0.60013 0.7258 0.0
H1727 H 0.78297 0.61801 0.71288 0.0
H1728 H 0.48125 0.1115 0.76909 0.0
H1729 H 0.46071 0.12259 0.75857 0.0
H1730 H 0.46573 0.10295 0.71513 0.0
H1731 H 0.48595 0.09142 0.72559 0.0
H1732 H 0.4688 0.15001 0.73728 0.0
H1733 H 0.40841 0.07705 0.71807 0.0
H1734 H 0.42706 0.08048 0.73129 0.0
H1735 H 0.43061 0.08181 0.71209 0.0
C1736 C 0.47781 0.10935 0.75731 0.0
C1737 C 0.48512 0.10048 0.74817 0.0
C1738 C 0.4662 0.11581 0.75132 0.0
C1739 C 0.46157 0.11338 0.73611 0.0
C1740 C 0.46896 0.10471 0.72693 0.0
H1741 H 0.41267 0.16787 0.68426 0.0
H1742 H 0.43366 0.15802 0.69596 0.0
C1743 C 0.48063 0.09829 0.7329 0.0
C1744 C 0.44914 0.12011 0.72985 0.0
H1745 H 0.40671 0.10426 0.71072 0.0
C1746 C 0.45521 0.14004 0.73149 0.0
C1747 C 0.43135 0.107 0.72247 0.0
C1748 C 0.42383 0.08536 0.72095 0.0
C1749 C 0.44403 0.14725 0.72572 0.0
C1750 C 0.42645 0.13419 0.718 0.0
C1751 C 0.42027 0.11424 0.71656 0.0
C1752 C 0.41417 0.14088 0.71136 0.0
C1753 C 0.45098 0.16873 0.7281 0.0
C1754 C 0.39622 0.13433 0.71606 0.0
C1755 C 0.38422 0.13987 0.70938 0.0
C1756 C 0.38995 0.15194 0.69782 0.0
C1757 C 0.40797 0.15862 0.6932 0.0
C1758 C 0.41998 0.15309 0.6999 0.0
H1759 H 0.4624 0.17596 0.73715 0.0
H1760 H 0.4566 0.17563 0.71791 0.0
H1761 H 0.43937 0.17136 0.73066 0.0
H1762 H 0.39147 0.12484 0.72486 0.0
H1763 H 0.37038 0.13452 0.71313 0.0
H1764 H 0.88027 0.37423 0.7226 0.0
H1765 H 0.86954 0.34128 0.71174 0.0
H1766 H 0.92198 0.34622 0.72771 0.0
H1767 H 0.93291 0.37926 0.73851 0.0
H1768 H 0.88548 0.32777 0.69087 0.0
H1769 H 0.88194 0.29656 0.74429 0.0
H1770 H 0.88387 0.31999 0.74284 0.0
H1771 H 0.90422 0.31739 0.7418 0.0
C1772 C 0.88961 0.3684 0.72366 0.0
C1773 C 0.90741 0.37932 0.73149 0.0
C1774 C 0.88342 0.34954 0.71752 0.0
C1775 C 0.89486 0.34124 0.71913 0.0
C1776 C 0.91279 0.35224 0.72662 0.0
H1777 H 0.87979 0.23613 0.67205 0.0
H1778 H 0.89106 0.26966 0.68163 0.0
C1779 C 0.919 0.37109 0.73278 0.0
C1780 C 0.88793 0.32102 0.71305 0.0
H1781 H 0.87685 0.27601 0.72282 0.0
C1782 C 0.88357 0.31643 0.69783 0.0
C1783 C 0.88525 0.30624 0.72222 0.0
C1784 C 0.88889 0.31018 0.73871 0.0
C1785 C 0.87678 0.29744 0.69148 0.0
C1786 C 0.87455 0.28278 0.70061 0.0
C1787 C 0.87872 0.28733 0.71585 0.0
C1788 C 0.86764 0.26251 0.69462 0.0
C1789 C 0.87174 0.29316 0.67511 0.0
C1790 C 0.85093 0.24735 0.69899 0.0
C1791 C 0.84448 0.22815 0.6936 0.0
C1792 C 0.85469 0.22373 0.68379 0.0
C1793 C 0.8715 0.23899 0.67951 0.0
C1794 C 0.87793 0.25819 0.68491 0.0
H1795 H 0.86985 0.30463 0.67026 0.0
H1796 H 0.88321 0.29244 0.66982 0.0
H1797 H 0.85864 0.27895 0.67247 0.0
H1798 H 0.84284 0.2504 0.70655 0.0
H1799 H 0.83153 0.21678 0.6972 0.0
H1800 H 0.202 0.94571 0.6284 0.0
H1801 H 0.22343 0.97783 0.64124 0.0
H1802 H 0.22539 0.00454 0.60113 0.0
H1803 H 0.20373 0.97264 0.58825 0.0
H1804 H 0.26324 0.01302 0.6234 0.0
H1805 H 0.20688 0.02475 0.64403 0.0
H1806 H 0.20461 0.00096 0.64328 0.0
H1807 H 0.20317 0.01109 0.62659 0.0
C1808 C 0.20693 0.95843 0.62233 0.0
C1809 C 0.20117 0.95663 0.6073 0.0
C1810 C 0.21921 0.9767 0.62966 0.0
C1811 C 0.22589 0.99341 0.62208 0.0
C1812 C 0.22038 0.99171 0.60709 0.0
H1813 H 0.28249 0.11629 0.64305 0.0
H1814 H 0.26189 0.08228 0.634 0.0
C1815 C 0.2081 0.97348 0.59976 0.0
C1816 C 0.23842 0.01279 0.62978 0.0
H1817 H 0.23802 0.05048 0.64885 0.0
C1818 C 0.25783 0.02121 0.6291 0.0
C1819 C 0.23115 0.0233 0.63707 0.0
C1820 C 0.21031 0.0147 0.63786 0.0
C1821 C 0.27026 0.0402 0.63534 0.0
C1822 C 0.26299 0.05084 0.64256 0.0
C1823 C 0.24354 0.04224 0.64338 0.0
C1824 C 0.27522 0.07131 0.64857 0.0
C1825 C 0.29097 0.04897 0.63367 0.0
C1826 C 0.28935 0.07637 0.65995 0.0
C1827 C 0.30124 0.09585 0.66514 0.0
C1828 C 0.29908 0.11058 0.6591 0.0
C1829 C 0.28457 0.10536 0.64796 0.0
C1830 C 0.27276 0.08591 0.64276 0.0
H1831 H 0.29374 0.0405 0.62515 0.0
H1832 H 0.29714 0.06418 0.63075 0.0
H1833 H 0.29825 0.04914 0.64427 0.0
H1834 H 0.29123 0.06526 0.66477 0.0
H1835 H 0.31217 0.09935 0.6738 0.0
H1836 H 0.04014 0.20912 0.60156 0.0
H1837 H 0.01017 0.19797 0.61213 0.0
H1838 H 0.00357 0.24202 0.59175 0.0
H1839 H 0.03375 0.25366 0.58144 0.0
H1840 H 0.0005 0.22249 0.63097 0.0
H1841 H 0.95362 0.18907 0.57929 0.0
H1842 H 0.97739 0.19352 0.58112 0.0
H1843 H 0.97315 0.21328 0.57884 0.0
C1844 C 0.03241 0.21657 0.59941 0.0
C1845 C 0.03936 0.2323 0.59064 0.0
C1846 C 0.01524 0.21008 0.60538 0.0
C1847 C 0.00463 0.21905 0.60255 0.0
C1848 C 0.01146 0.23473 0.59383 0.0
H1849 H 0.89835 0.20257 0.62795 0.0
H1850 H 0.92761 0.21215 0.61653 0.0
C1851 C 0.02868 0.24131 0.58793 0.0
C1852 C 0.98668 0.21241 0.60913 0.0
H1853 H 0.93938 0.19072 0.60068 0.0
C1854 C 0.9871 0.21546 0.6244 0.0
C1855 C 0.96932 0.20338 0.60044 0.0
C1856 C 0.96819 0.19944 0.58401 0.0
C1857 C 0.97056 0.21 0.63124 0.0
C1858 C 0.95314 0.2008 0.62257 0.0
C1859 C 0.95275 0.19773 0.60728 0.0
C1860 C 0.93517 0.19445 0.62917 0.0
C1861 C 0.97199 0.21466 0.64761 0.0
C1862 C 0.92955 0.18102 0.63981 0.0
C1863 C 0.91296 0.17567 0.64641 0.0
C1864 C 0.90162 0.18347 0.64232 0.0
C1865 C 0.90692 0.19642 0.63133 0.0
C1866 C 0.92358 0.20187 0.6248 0.0
H1867 H 0.98634 0.22633 0.65186 0.0
H1868 H 0.96183 0.21929 0.65056 0.0
H1869 H 0.9688 0.20149 0.65324 0.0
H1870 H 0.93805 0.17474 0.64306 0.0
H1871 H 0.90907 0.16552 0.65477 0.0
H1872 H 0.74772 0.79434 0.62535 0.0
H1873 H 0.75974 0.77505 0.63681 0.0
H1874 H 0.79097 0.77921 0.5995 0.0
H1875 H 0.77911 0.79854 0.58801 0.0
H1876 H 0.75619 0.73811 0.62237 0.0
H1877 H 0.8295 0.79797 0.63762 0.0
H1878 H 0.81011 0.80228 0.63458 0.0
H1879 H 0.81972 0.79653 0.61925 0.0
C1880 C 0.75726 0.79125 0.61966 0.0
C1881 C 0.76248 0.79792 0.60579 0.0
C1882 C 0.76403 0.7802 0.62618 0.0
C1883 C 0.77633 0.7759 0.61902 0.0
C1884 C 0.78161 0.78255 0.60522 0.0
H1885 H 0.83608 0.71493 0.63705 0.0
H1886 H 0.824 0.73506 0.62751 0.0
C1887 C 0.77472 0.79344 0.59864 0.0
C1888 C 0.78333 0.76402 0.62578 0.0
H1889 H 0.82306 0.766 0.64071 0.0
C1890 C 0.77077 0.74417 0.62649 0.0
C1891 C 0.80236 0.77204 0.63101 0.0
C1892 C 0.81626 0.7934 0.63071 0.0
C1893 C 0.77687 0.73195 0.632 0.0
C1894 C 0.79595 0.73996 0.63728 0.0
C1895 C 0.80845 0.75989 0.63667 0.0
C1896 C 0.8033 0.72788 0.64325 0.0
C1897 C 0.76296 0.71048 0.63166 0.0
C1898 C 0.79586 0.7174 0.65541 0.0
C1899 C 0.80263 0.70576 0.66082 0.0
C1900 C 0.81717 0.70463 0.65431 0.0
C1901 C 0.82489 0.7155 0.64234 0.0
C1902 C 0.818 0.72701 0.63686 0.0
H1903 H 0.75058 0.706 0.62369 0.0
H1904 H 0.76955 0.7017 0.62873 0.0
H1905 H 0.75784 0.70708 0.6427 0.0
H1906 H 0.78484 0.71824 0.66074 0.0
H1907 H 0.7965 0.69772 0.67014 0.0
H1908 H 0.05853 0.81171 0.62238 0.0
H1909 H 0.02838 0.79291 0.63256 0.0
H1910 H -0.00016 0.77851 0.58903 0.0
H1911 H 0.02984 0.79798 0.5788 0.0
H1912 H 0.98281 0.78993 0.60898 0.0
H1913 H 0.99668 0.73407 0.63056 0.0
H1914 H 0.01409 0.7585 0.63719 0.0
H1915 H 0.01124 0.75078 0.61795 0.0
C1916 C 0.04584 0.80465 0.61497 0.0
C1917 C 0.04662 0.8063 0.59976 0.0
C1918 C 0.02864 0.79372 0.6208 0.0
C1919 C 0.01192 0.78406 0.61152 0.0
C1920 C 0.01261 0.78575 0.59636 0.0
H1921 H 0.90469 0.6929 0.63423 0.0
H1922 H 0.93435 0.71265 0.62358 0.0
C1923 C 0.02979 0.79674 0.59052 0.0
C1924 C 0.99364 0.77249 0.61764 0.0
H1925 H 0.9693 0.73391 0.63762 0.0
C1926 C 0.9798 0.77764 0.61521 0.0
C1927 C 0.98972 0.75633 0.6256 0.0
C1928 C 0.00363 0.74944 0.62788 0.0
C1929 C 0.96217 0.76717 0.62066 0.0
C1930 C 0.95846 0.75139 0.62902 0.0
C1931 C 0.97225 0.74614 0.63133 0.0
C1932 C 0.94021 0.73974 0.63516 0.0
C1933 C 0.94756 0.77283 0.61714 0.0
C1934 C 0.93369 0.74843 0.64523 0.0
C1935 C 0.91666 0.73717 0.65124 0.0
C1936 C 0.90607 0.71706 0.64741 0.0
C1937 C 0.91263 0.70839 0.63737 0.0
C1938 C 0.92955 0.71964 0.6313 0.0
H1939 H 0.95075 0.78155 0.60751 0.0
H1940 H 0.93337 0.7598 0.61486 0.0
H1941 H 0.94727 0.7818 0.6267 0.0
H1942 H 0.94189 0.76384 0.6486 0.0
H1943 H 0.91192 0.74415 0.65903 0.0
H1944 H 0.19512 0.25648 0.61662 0.0
H1945 H 0.21661 0.24702 0.62786 0.0
H1946 H 0.22079 0.22407 0.5854 0.0
H1947 H 0.19932 0.23344 0.57408 0.0
H1948 H 0.21133 0.20982 0.62768 0.0
H1949 H 0.27572 0.25816 0.60126 0.0
H1950 H 0.25577 0.26175 0.6012 0.0
H1951 H 0.25546 0.24354 0.58855 0.0
C1952 C 0.20065 0.24944 0.60968 0.0
C1953 C 0.19557 0.24576 0.59445 0.0
C1954 C 0.21297 0.24413 0.6161 0.0
C1955 C 0.2205 0.23511 0.60743 0.0
C1956 C 0.2155 0.23144 0.59224 0.0
H1957 H 0.28911 0.18303 0.62592 0.0
H1958 H 0.26936 0.19458 0.61446 0.0
C1959 C 0.20322 0.23679 0.58579 0.0
C1960 C 0.23282 0.22866 0.61439 0.0
H1961 H 0.2764 0.23359 0.61453 0.0
C1962 C 0.2256 0.2151 0.62489 0.0
C1963 C 0.2514 0.23553 0.61066 0.0
C1964 C 0.26014 0.25068 0.5999 0.0
C1965 C 0.23635 0.20798 0.63158 0.0
C1966 C 0.2549 0.21483 0.62783 0.0
C1967 C 0.26215 0.22837 0.61735 0.0
C1968 C 0.26703 0.20813 0.63474 0.0
C1969 C 0.22765 0.19288 0.64239 0.0
C1970 C 0.27243 0.21218 0.64988 0.0
C1971 C 0.28367 0.20562 0.65642 0.0
C1972 C 0.28972 0.19495 0.64791 0.0
C1973 C 0.28454 0.19115 0.63272 0.0
C1974 C 0.27332 0.19775 0.62618 0.0
H1975 H 0.21209 0.18581 0.6414 0.0
H1976 H 0.23156 0.18149 0.64076 0.0
H1977 H 0.23289 0.19995 0.65372 0.0
H1978 H 0.26798 0.22047 0.65662 0.0
H1979 H 0.28758 0.20883 0.66814 0.0
H1980 H 0.7454 0.94206 0.62415 0.0
H1981 H 0.75662 0.97525 0.63486 0.0
H1982 H 0.78609 0.99798 0.59659 0.0
H1983 H 0.77469 0.96491 0.58576 0.0
H1984 H 0.79211 0.005 0.64216 0.0
H1985 H 0.75696 0.02613 0.59972 0.0
H1986 H 0.7512 0.00127 0.60099 0.0
H1987 H 0.77151 0.01769 0.59214 0.0
C1988 C 0.75426 0.95416 0.61804 0.0
C1989 C 0.75903 0.95092 0.60407 0.0
C1990 C 0.76062 0.97309 0.62414 0.0
C1991 C 0.77188 0.98908 0.61639 0.0
C1992 C 0.77696 0.98586 0.60257 0.0
H1993 H 0.83366 0.11391 0.63591 0.0
H1994 H 0.8215 0.08026 0.62596 0.0
C1995 C 0.77048 0.96697 0.59642 0.0
C1996 C 0.77877 0.00915 0.62292 0.0
H1997 H 0.78035 0.05177 0.61651 0.0
C1998 C 0.7894 0.01517 0.63661 0.0
C1999 C 0.77518 0.0224 0.61568 0.0
C2000 C 0.76293 0.0165 0.60139 0.0
C2001 C 0.79691 0.03422 0.64307 0.0
C2002 C 0.79364 0.04751 0.63566 0.0
C2003 C 0.78291 0.04151 0.62207 0.0
C2004 C 0.80118 0.06774 0.64191 0.0
C2005 C 0.80858 0.04019 0.65763 0.0
C2006 C 0.79364 0.07173 0.6541 0.0
C2007 C 0.80046 0.09091 0.65977 0.0
C2008 C 0.815 0.10641 0.65336 0.0
C2009 C 0.82256 0.10231 0.64117 0.0
C2010 C 0.81561 0.08312 0.63544 0.0
H2011 H 0.81225 0.02914 0.66082 0.0
H2012 H 0.82173 0.05428 0.65723 0.0
H2013 H 0.80059 0.04216 0.66629 0.0
H2014 H 0.78236 0.06001 0.65913 0.0
H2015 H 0.79432 0.09356 0.66917 0.0
H2016 H 0.4971 0.37827 0.72871 0.0
H2017 H 0.47575 0.34548 0.7171 0.0
H2018 H 0.42904 0.35521 0.72011 0.0
H2019 H 0.45036 0.38816 0.7317 0.0
H2020 H 0.44154 0.31641 0.73148 0.0
H2021 H 0.42664 0.33325 0.67576 0.0
H2022 H 0.44782 0.34959 0.68733 0.0
H2023 H 0.42587 0.34742 0.69142 0.0
C2024 C 0.48233 0.37355 0.72669 0.0
C2025 C 0.47539 0.38579 0.73106 0.0
C2026 C 0.47017 0.35482 0.72013 0.0
C2027 C 0.45091 0.34808 0.71768 0.0
C2028 C 0.44392 0.3603 0.72182 0.0
H2029 H 0.35602 0.23866 0.68055 0.0
H2030 H 0.37749 0.27247 0.68976 0.0
C2031 C 0.45607 0.37901 0.7285 0.0
C2032 C 0.43803 0.32787 0.71155 0.0
H2033 H 0.41043 0.30036 0.6808 0.0
C2034 C 0.43474 0.31283 0.72039 0.0
C2035 C 0.42915 0.32341 0.69715 0.0
C2036 C 0.43253 0.33919 0.68725 0.0
C2037 C 0.42255 0.29333 0.71525 0.0
C2038 C 0.4139 0.28878 0.70072 0.0
C2039 C 0.41716 0.30388 0.6919 0.0
C2040 C 0.40122 0.26843 0.69455 0.0
C2041 C 0.41871 0.27785 0.72558 0.0
C2042 C 0.40756 0.25503 0.69388 0.0
C2043 C 0.39528 0.23563 0.68875 0.0
C2044 C 0.37649 0.22934 0.68397 0.0
C2045 C 0.37038 0.24298 0.68415 0.0
C2046 C 0.38264 0.26233 0.68941 0.0
H2047 H 0.422 0.28393 0.73726 0.0
H2048 H 0.40381 0.26603 0.72402 0.0
H2049 H 0.42769 0.27145 0.72338 0.0
H2050 H 0.422 0.25955 0.69742 0.0
H2051 H 0.40051 0.22557 0.6886 0.0
H2052 H 0.64121 0.12885 0.75039 0.0
H2053 H 0.67109 0.13898 0.73988 0.0
H2054 H 0.66299 0.08145 0.74242 0.0
H2055 H 0.6329 0.07107 0.75268 0.0
H2056 H 0.70368 0.13727 0.75164 0.0
H2057 H 0.67051 0.09255 0.69848 0.0
H2058 H 0.65753 0.09822 0.71119 0.0
H2059 H 0.66344 0.07987 0.71474 0.0
C2060 C 0.64575 0.11833 0.74864 0.0
C2061 C 0.63465 0.09911 0.75224 0.0
C2062 C 0.66287 0.12418 0.74275 0.0
C2063 C 0.6691 0.1109 0.74027 0.0
C2064 C 0.65829 0.09184 0.74414 0.0
H2065 H 0.77918 0.13592 0.71559 0.0
H2066 H 0.7512 0.12668 0.72878 0.0
C2067 C 0.64119 0.08598 0.75009 0.0
C2068 C 0.68669 0.11691 0.73325 0.0
H2069 H 0.70361 0.10951 0.70182 0.0
C2070 C 0.70373 0.13121 0.74076 0.0
C2071 C 0.68658 0.10908 0.71902 0.0
C2072 C 0.66855 0.09419 0.71028 0.0
C2073 C 0.72077 0.13784 0.73439 0.0
C2074 C 0.72067 0.12981 0.72022 0.0
C2075 C 0.70361 0.11556 0.71272 0.0
C2076 C 0.73804 0.13624 0.71275 0.0
C2077 C 0.73866 0.1536 0.74275 0.0
C2078 C 0.73979 0.14449 0.69933 0.0
C2079 C 0.75566 0.14966 0.69177 0.0
C2080 C 0.76995 0.14653 0.69747 0.0
C2081 C 0.76831 0.13847 0.71098 0.0
C2082 C 0.75243 0.13331 0.71856 0.0
H2083 H 0.73581 0.16142 0.75176 0.0
H2084 H 0.74643 0.14696 0.74771 0.0
H2085 H 0.74783 0.1643 0.73532 0.0
H2086 H 0.72879 0.14681 0.69466 0.0
H2087 H 0.75661 0.15586 0.68137 0.0
H2088 H 0.90218 0.52137 0.71083 0.0
H2089 H 0.89087 0.54143 0.70015 0.0
H2090 H 0.90302 0.57463 0.74204 0.0
H2091 H 0.91296 0.55369 0.75311 0.0
H2092 H 0.87023 0.56651 0.73025 0.0
H2093 H 0.92051 0.59492 0.68783 0.0
H2094 H 0.90711 0.5689 0.68602 0.0
H2095 H 0.92294 0.58149 0.70221 0.0
C2096 C 0.90229 0.5328 0.71785 0.0
C2097 C 0.90854 0.53585 0.73287 0.0
C2098 C 0.89611 0.5445 0.71164 0.0
C2099 C 0.89647 0.55983 0.7202 0.0
C2100 C 0.90276 0.56299 0.73517 0.0
H2101 H 0.88466 0.65261 0.68535 0.0
H2102 H 0.89585 0.63223 0.69572 0.0
C2103 C 0.90865 0.5511 0.74145 0.0
C2104 C 0.8896 0.57211 0.71375 0.0
H2105 H 0.89453 0.60029 0.68559 0.0
C2106 C 0.87564 0.574 0.72053 0.0
C2107 C 0.89683 0.58211 0.70119 0.0
C2108 C 0.91281 0.58193 0.69399 0.0
C2109 C 0.86861 0.58548 0.71507 0.0
C2110 C 0.87521 0.59474 0.70212 0.0
C2111 C 0.88928 0.59298 0.6954 0.0
C2112 C 0.8682 0.60687 0.69562 0.0
C2113 C 0.85458 0.58796 0.72352 0.0
C2114 C 0.84894 0.59934 0.69188 0.0
C2115 C 0.84246 0.61108 0.68617 0.0
C2116 C 0.85519 0.63042 0.68373 0.0
C2117 C 0.8745 0.63774 0.68704 0.0
C2118 C 0.88093 0.62611 0.69298 0.0
H2119 H 0.85547 0.58508 0.7352 0.0
H2120 H 0.85679 0.60286 0.72318 0.0
H2121 H 0.84018 0.57743 0.71859 0.0
H2122 H 0.83889 0.58437 0.69337 0.0
H2123 H 0.82752 0.60498 0.68358 0.0
H2124 H 0.46565 0.9903 0.16153 0.0
H2125 H 0.47064 0.00188 0.13695 0.0
H2126 H 0.4833 0.95737 0.1233 0.0
H2127 H 0.47809 0.94556 0.14772 0.0
H2128 H 0.50452 0.0152 0.12281 0.0
H2129 H 0.44376 0.95226 0.09076 0.0
H2130 H 0.44498 0.95664 0.11046 0.0
H2131 H 0.45746 0.94578 0.10258 0.0
C2132 C 0.46926 0.98284 0.15322 0.0
C2133 C 0.47149 0.96703 0.15653 0.0
C2134 C 0.47217 0.98951 0.13923 0.0
C2135 C 0.47709 0.9803 0.1283 0.0
C2136 C 0.47921 0.96446 0.13154 0.0
H2137 H 0.53434 0.01558 0.05108 0.0
H2138 H 0.5245 0.008 0.07581 0.0
C2139 C 0.47643 0.95787 0.14553 0.0
C2140 C 0.48104 0.98783 0.1137 0.0
H2141 H 0.46815 0.9746 0.07705 0.0
C2142 C 0.49645 0.00645 0.1128 0.0
C2143 C 0.47032 0.97645 0.10071 0.0
C2144 C 0.45309 0.95674 0.10112 0.0
C2145 C 0.50196 0.01364 0.09916 0.0
C2146 C 0.49189 0.0018 0.08615 0.0
C2147 C 0.47595 0.98356 0.08707 0.0
C2148 C 0.49826 0.00761 0.0715 0.0
C2149 C 0.51863 0.03376 0.09878 0.0
C2150 C 0.48671 0.0098 0.0609 0.0
C2151 C 0.49235 0.01419 0.04679 0.0
C2152 C 0.50942 0.01606 0.04304 0.0
C2153 C 0.52112 0.01424 0.05373 0.0
C2154 C 0.51554 0.00996 0.06785 0.0
H2155 H 0.52145 0.04282 0.10927 0.0
H2156 H 0.53128 0.03262 0.09704 0.0
H2157 H 0.51643 0.04123 0.08963 0.0
H2158 H 0.47332 0.00803 0.06353 0.0
H2159 H 0.48335 0.01603 0.0388 0.0
H2160 H 0.0098 0.47693 0.16456 0.0
H2161 H 0.00013 0.47186 0.13816 0.0
H2162 H 0.0453 0.5294 0.1325 0.0
H2163 H 0.05522 0.53445 0.15876 0.0
H2164 H 0.9894 0.49495 0.12202 0.0
H2165 H 0.05077 0.49406 0.10074 0.0
H2166 H 0.04533 0.49042 0.11959 0.0
H2167 H 0.05684 0.51452 0.11364 0.0
C2168 C 0.0178 0.48839 0.15765 0.0
C2169 C 0.03327 0.50609 0.16372 0.0
C2170 C 0.01222 0.48551 0.14261 0.0
C2171 C 0.02216 0.50017 0.13339 0.0
C2172 C 0.03763 0.5178 0.13941 0.0
H2173 H 0.99261 0.52582 0.04989 0.0
H2174 H -0.00038 0.52374 0.07584 0.0
C2175 C 0.04315 0.52074 0.15443 0.0
C2176 C 0.01589 0.49749 0.11758 0.0
H2177 H 0.03049 0.49784 0.08332 0.0
C2178 C 0.99828 0.49538 0.11354 0.0
C2179 C 0.02743 0.49782 0.10657 0.0
C2180 C 0.04608 0.49914 0.1103 0.0
C2181 C 0.99222 0.49437 0.09875 0.0
C2182 C 0.00418 0.49571 0.08779 0.0
C2183 C 0.02145 0.49701 0.09179 0.0
C2184 C -0.00066 0.49654 0.07216 0.0
C2185 C 0.97313 0.49199 0.09496 0.0
C2186 C 0.99709 0.48205 0.06152 0.0
C2187 C 0.99305 0.4832 0.04671 0.0
C2188 C 0.99153 0.49902 0.04233 0.0
C2189 C 0.99368 0.51345 0.05301 0.0
C2190 C 0.99762 0.51225 0.06781 0.0
H2191 H 0.96385 0.48606 0.10398 0.0
H2192 H 0.97476 0.50639 0.09313 0.0
H2193 H 0.96617 0.48221 0.08475 0.0
H2194 H 0.99839 0.46983 0.06468 0.0
H2195 H 0.99105 0.47169 0.03869 0.0
H2196 H 0.49805 0.54479 0.15784 0.0
H2197 H 0.50429 0.53989 0.13264 0.0
H2198 H 0.46569 0.47838 0.13219 0.0
H2199 H 0.45968 0.48302 0.1576 0.0
H2200 H 0.51758 0.51309 0.12243 0.0
H2201 H 0.44895 0.49675 0.09463 0.0
H2202 H 0.45753 0.50961 0.1127 0.0
H2203 H 0.44846 0.48389 0.11036 0.0
C2204 C 0.491 0.53017 0.15247 0.0
C2205 C 0.4784 0.51429 0.15979 0.0
C2206 C 0.49449 0.52744 0.13803 0.0
C2207 C 0.48533 0.50882 0.13056 0.0
C2208 C 0.47269 0.49291 0.13774 0.0
H2209 H 0.48933 0.47216 0.03987 0.0
H2210 H 0.48176 0.47282 0.06539 0.0
C2211 C 0.46925 0.49561 0.15223 0.0
C2212 C 0.48945 0.5061 0.11538 0.0
H2213 H 0.47097 0.49592 0.07967 0.0
C2214 C 0.5074 0.50929 0.11306 0.0
C2215 C 0.47605 0.50099 0.10326 0.0
C2216 C 0.45667 0.49769 0.10524 0.0
C2217 C 0.51238 0.50755 0.09887 0.0
C2218 C 0.49918 0.50303 0.08667 0.0
C2219 C 0.48108 0.49946 0.08903 0.0
C2220 C 0.50403 0.50246 0.07135 0.0
C2221 C 0.53164 0.51033 0.09712 0.0
C2222 C 0.51894 0.51893 0.0662 0.0
C2223 C 0.52328 0.51854 0.05169 0.0
C2224 C 0.51258 0.50178 0.04202 0.0
C2225 C 0.49765 0.48531 0.04712 0.0
C2226 C 0.49337 0.48567 0.06167 0.0
H2227 H 0.53757 0.5076 0.10729 0.0
H2228 H 0.53127 0.50052 0.08787 0.0
H2229 H 0.54125 0.52556 0.09482 0.0
H2230 H 0.52705 0.53221 0.07336 0.0
H2231 H 0.53474 0.53149 0.04794 0.0
H2232 H 0.99157 0.5233 0.84224 0.0
H2233 H 0.00122 0.52855 0.86868 0.0
H2234 H 0.95782 0.47007 0.87416 0.0
H2235 H 0.94791 0.46481 0.84789 0.0
H2236 H 0.96067 0.50021 0.89532 0.0
H2237 H 0.02858 0.50253 0.88925 0.0
H2238 H 0.0239 0.51832 0.87869 0.0
H2239 H 0.00979 0.49248 0.87468 0.0
C2240 C 0.98402 0.51163 0.84912 0.0
C2241 C 0.96908 0.49358 0.84298 0.0
C2242 C 0.98962 0.5146 0.86417 0.0
C2243 C 0.98033 0.49962 0.87329 0.0
C2244 C 0.9652 0.48177 0.86726 0.0
H2245 H 0.00832 0.4751 0.9576 0.0
H2246 H 0.0011 0.47685 0.93164 0.0
C2247 C 0.95966 0.47875 0.85224 0.0
C2248 C 0.98639 0.50229 0.88914 0.0
H2249 H 0.02124 0.50612 0.9133 0.0
C2250 C 0.97397 0.50166 0.89929 0.0
C2251 C 0.00369 0.50405 0.89421 0.0
C2252 C 0.01728 0.50427 0.88369 0.0
C2253 C 0.97827 0.50244 0.91444 0.0
C2254 C 0.99552 0.50403 0.91952 0.0
C2255 C 0.00806 0.50497 0.90935 0.0
C2256 C 0.0003 0.50348 0.93523 0.0
C2257 C 0.96409 0.50097 0.92483 0.0
C2258 C 0.00251 0.51804 0.94581 0.0
C2259 C 0.00665 0.51706 0.96065 0.0
C2260 C 0.00862 0.50151 0.96509 0.0
C2261 C 0.00681 0.48721 0.95445 0.0
C2262 C 0.00269 0.48819 0.93965 0.0
H2263 H 0.94994 0.49533 0.91903 0.0
H2264 H 0.96297 0.49139 0.93357 0.0
H2265 H 0.96869 0.51566 0.93016 0.0
H2266 H 0.00106 0.53015 0.9426 0.0
H2267 H 0.00834 0.52846 0.96864 0.0
H2268 H 0.50916 0.5054 0.84124 0.0
H2269 H 0.50295 0.50928 0.86674 0.0
H2270 H 0.53186 0.47926 0.88034 0.0
H2271 H 0.53887 0.4763 0.855 0.0
H2272 H 0.48323 0.48392 0.88418 0.0
H2273 H 0.55596 0.5244 0.91023 0.0
H2274 H 0.55077 0.52049 0.89056 0.0
H2275 H 0.55121 0.50195 0.90079 0.0
C2276 C 0.51433 0.49985 0.84975 0.0
C2277 C 0.52461 0.49072 0.84627 0.0
C2278 C 0.51079 0.50205 0.86429 0.0
C2279 C 0.51727 0.49493 0.87555 0.0
C2280 C 0.52728 0.4855 0.87198 0.0
H2281 H 0.46862 0.46553 0.9587 0.0
H2282 H 0.47652 0.46588 0.93326 0.0
C2283 C 0.53116 0.48366 0.85749 0.0
C2284 C 0.51271 0.49646 0.89087 0.0
H2285 H 0.5317 0.50944 0.92648 0.0
C2286 C 0.49388 0.48971 0.89341 0.0
C2287 C 0.5266 0.50432 0.90293 0.0
C2288 C 0.54727 0.51339 0.90097 0.0
C2289 C 0.4885 0.49018 0.90764 0.0
C2290 C 0.50223 0.49686 0.91976 0.0
C2291 C 0.52112 0.50404 0.91721 0.0
C2292 C 0.49735 0.49656 0.93517 0.0
C2293 C 0.46821 0.48386 0.90945 0.0
C2294 C 0.50692 0.51347 0.94489 0.0
C2295 C 0.50273 0.51314 0.9595 0.0
C2296 C 0.48881 0.49594 0.96459 0.0
C2297 C 0.47921 0.47904 0.95492 0.0
C2298 C 0.48364 0.47927 0.94038 0.0
H2299 H 0.46126 0.48563 0.8994 0.0
H2300 H 0.46056 0.46823 0.91136 0.0
H2301 H 0.46687 0.49228 0.91889 0.0
H2302 H 0.51763 0.52696 0.94117 0.0
H2303 H 0.5103 0.52636 0.96681 0.0
H2304 H 0.5346 0.00585 0.84491 0.0
H2305 H 0.52954 0.99491 0.86971 0.0
H2306 H 0.51096 0.03548 0.88084 0.0
H2307 H 0.51632 0.04675 0.8563 0.0
H2308 H 0.53873 0.03601 0.9016 0.0
H2309 H 0.47758 0.96182 0.88648 0.0
H2310 H 0.49811 0.96895 0.87672 0.0
H2311 H 0.4848 0.98097 0.87432 0.0
C2312 C 0.52947 0.01244 0.85267 0.0
C2313 C 0.52575 0.02708 0.84864 0.0
C2314 C 0.52646 0.00608 0.86676 0.0
C2315 C 0.51971 0.01427 0.877 0.0
C2316 C 0.51607 0.02892 0.87303 0.0
H2317 H 0.46759 0.98379 0.95659 0.0
H2318 H 0.47644 0.98975 0.93148 0.0
C2319 C 0.51901 0.03523 0.85898 0.0
C2320 C 0.51674 0.00805 0.89203 0.0
H2321 H 0.48782 0.97084 0.91161 0.0
C2322 C 0.52773 0.02171 0.90383 0.0
C2323 C 0.50233 0.98941 0.89481 0.0
C2324 C 0.48989 0.9744 0.88246 0.0
C2325 C 0.52436 0.01741 0.9184 0.0
C2326 C 0.50975 0.99885 0.92122 0.0
C2327 C 0.49906 0.98501 0.9094 0.0
C2328 C 0.50432 0.99412 0.93628 0.0
C2329 C 0.53601 0.03302 0.93062 0.0
C2330 C 0.51696 0.99426 0.94724 0.0
C2331 C 0.51194 0.99092 0.96162 0.0
C2332 C 0.4942 0.98733 0.96519 0.0
C2333 C 0.48138 0.98658 0.95412 0.0
C2334 C 0.48641 0.98995 0.93979 0.0
H2335 H 0.54378 0.04764 0.92653 0.0
H2336 H 0.52709 0.03345 0.93914 0.0
H2337 H 0.54645 0.02976 0.93584 0.0
H2338 H 0.53074 0.99712 0.94471 0.0
H2339 H 0.52196 0.9913 0.96995 0.0
H2340 H 0.11399 0.28087 0.48014 0.0
H2341 H 0.11925 0.29158 0.45536 0.0
H2342 H 0.17471 0.33806 0.47105 0.0
H2343 H 0.16942 0.32773 0.49593 0.0
H2344 H 0.15322 0.34861 0.45118 0.0
H2345 H 0.15572 0.28317 0.43022 0.0
H2346 H 0.13526 0.27865 0.43927 0.0
H2347 H 0.15783 0.29028 0.44958 0.0
C2348 C 0.12719 0.29355 0.47836 0.0
C2349 C 0.14135 0.30339 0.48997 0.0
C2350 C 0.13022 0.29955 0.4642 0.0
C2351 C 0.14744 0.31544 0.4614 0.0
C2352 C 0.16135 0.3257 0.47302 0.0
H2353 H 0.2016 0.34745 0.38188 0.0
H2354 H 0.19272 0.33973 0.40681 0.0
C2355 C 0.15837 0.31969 0.48718 0.0
C2356 C 0.15132 0.32094 0.44626 0.0
H2357 H 0.15873 0.30547 0.41314 0.0
C2358 C 0.15434 0.33918 0.44281 0.0
C2359 C 0.15292 0.30861 0.43547 0.0
C2360 C 0.15042 0.28913 0.43877 0.0
C2361 C 0.159 0.34546 0.42879 0.0
C2362 C 0.16057 0.33311 0.41802 0.0
C2363 C 0.15743 0.31483 0.42145 0.0
C2364 C 0.16629 0.33914 0.40328 0.0
C2365 C 0.16269 0.36541 0.42568 0.0
C2366 C 0.1544 0.34151 0.39314 0.0
C2367 C 0.15948 0.34598 0.37891 0.0
C2368 C 0.17641 0.34793 0.37464 0.0
C2369 C 0.18848 0.34604 0.38493 0.0
C2370 C 0.1834 0.34156 0.39912 0.0
H2371 H 0.16408 0.3744 0.43587 0.0
H2372 H 0.1757 0.37314 0.42 0.0
H2373 H 0.15087 0.36396 0.41831 0.0
H2374 H 0.14104 0.33947 0.39612 0.0
H2375 H 0.15003 0.34752 0.37116 0.0
H2376 H 0.7061 0.86142 0.49092 0.0
H2377 H 0.69436 0.85435 0.46503 0.0
H2378 H 0.66568 0.79294 0.47019 0.0
H2379 H 0.67708 0.79988 0.49631 0.0
H2380 H 0.68749 0.80461 0.44509 0.0
H2381 H 0.63932 0.83407 0.44847 0.0
H2382 H 0.66262 0.85043 0.45684 0.0
H2383 H 0.64826 0.82774 0.46441 0.0
C2384 C 0.69706 0.84641 0.48664 0.0
C2385 C 0.69238 0.83122 0.49574 0.0
C2386 C 0.69041 0.8424 0.47183 0.0
C2387 C 0.67895 0.82315 0.46579 0.0
C2388 C 0.67445 0.8079 0.47471 0.0
H2389 H 0.62611 0.80602 0.3765 0.0
H2390 H 0.63031 0.80076 0.40228 0.0
C2391 C 0.68105 0.8119 0.48959 0.0
C2392 C 0.67207 0.81915 0.45005 0.0
H2393 H 0.64761 0.82961 0.4245 0.0
C2394 C 0.67853 0.80979 0.44057 0.0
C2395 C 0.66015 0.82564 0.44425 0.0
C2396 C 0.65201 0.83487 0.45403 0.0
C2397 C 0.67422 0.80773 0.42531 0.0
C2398 C 0.66336 0.81545 0.41944 0.0
C2399 C 0.65604 0.82382 0.429 0.0
C2400 C 0.66068 0.81651 0.40346 0.0
C2401 C 0.68155 0.79758 0.41561 0.0
C2402 C 0.67634 0.82704 0.3956 0.0
C2403 C 0.67397 0.83007 0.38097 0.0
C2404 C 0.65589 0.82271 0.37394 0.0
C2405 C 0.64019 0.8118 0.38168 0.0
C2406 C 0.64258 0.80878 0.39636 0.0
H2407 H 0.68395 0.78715 0.42164 0.0
H2408 H 0.6717 0.78965 0.40571 0.0
H2409 H 0.69521 0.80854 0.41196 0.0
H2410 H 0.69043 0.83359 0.40095 0.0
H2411 H 0.68632 0.83875 0.37531 0.0
H2412 H 0.14908 0.87196 0.4875 0.0
H2413 H 0.15328 0.86545 0.46198 0.0
H2414 H 0.14199 0.80817 0.47088 0.0
H2415 H 0.13801 0.81468 0.49654 0.0
H2416 H 0.17508 0.8303 0.45629 0.0
H2417 H 0.11278 0.82884 0.42879 0.0
H2418 H 0.12681 0.84973 0.44164 0.0
H2419 H 0.11486 0.82596 0.44813 0.0
C2420 C 0.14749 0.85798 0.48402 0.0
C2421 C 0.14325 0.84384 0.49402 0.0
C2422 C 0.1497 0.85421 0.46942 0.0
C2423 C 0.1477 0.83624 0.46453 0.0
C2424 C 0.14343 0.82206 0.47444 0.0
H2425 H 0.14963 0.80421 0.37188 0.0
H2426 H 0.141 0.80303 0.39722 0.0
C2427 C 0.14109 0.82577 0.48906 0.0
C2428 C 0.15109 0.83276 0.44925 0.0
H2429 H 0.13643 0.83165 0.41347 0.0
C2430 C 0.16652 0.83038 0.44691 0.0
C2431 C 0.13976 0.83265 0.43707 0.0
C2432 C 0.12251 0.83425 0.43898 0.0
C2433 C 0.17141 0.82869 0.43268 0.0
C2434 C 0.16066 0.8296 0.42053 0.0
C2435 C 0.14475 0.83115 0.42284 0.0
C2436 C 0.16616 0.82983 0.40539 0.0
C2437 C 0.18809 0.82608 0.43075 0.0
C2438 C 0.1831 0.84531 0.40163 0.0
C2439 C 0.18794 0.8461 0.38718 0.0
C2440 C 0.17584 0.83149 0.37627 0.0
C2441 C 0.15905 0.8158 0.38008 0.0
C2442 C 0.15416 0.81507 0.39453 0.0
H2443 H 0.19163 0.82046 0.44055 0.0
H2444 H 0.18544 0.81595 0.42095 0.0
H2445 H 0.20047 0.84034 0.42916 0.0
H2446 H 0.1924 0.857 0.40982 0.0
H2447 H 0.20094 0.85836 0.3845 0.0
H2448 H 0.6162 0.8314 0.18062 0.0
H2449 H 0.62536 0.83464 0.20697 0.0
H2450 H 0.67375 0.83013 0.19739 0.0
H2451 H 0.66472 0.82693 0.17099 0.0
H2452 H 0.63231 0.80418 0.22108 0.0
H2453 H 0.69211 0.88038 0.22821 0.0
H2454 H 0.67339 0.87209 0.21368 0.0
H2455 H 0.69074 0.86489 0.21256 0.0
C2456 C 0.62896 0.83142 0.18412 0.0
C2457 C 0.63977 0.82893 0.17377 0.0
C2458 C 0.6341 0.83317 0.19915 0.0
C2459 C 0.65025 0.83273 0.20404 0.0
C2460 C 0.6613 0.83064 0.19377 0.0
H2461 H 0.7032 0.8404 0.29054 0.0
H2462 H 0.69594 0.83999 0.26415 0.0
C2463 C 0.65608 0.82871 0.17873 0.0
C2464 C 0.65497 0.83335 0.2199 0.0
H2465 H 0.6857 0.86232 0.2489 0.0
C2466 C 0.64393 0.81688 0.22722 0.0
C2467 C 0.67026 0.84988 0.22772 0.0
C2468 C 0.68233 0.86792 0.22024 0.0
C2469 C 0.6479 0.81642 0.24223 0.0
C2470 C 0.66299 0.83313 0.25018 0.0
C2471 C 0.67409 0.84958 0.2428 0.0
C2472 C 0.66748 0.83379 0.26616 0.0
C2473 C 0.63617 0.79788 0.24931 0.0
C2474 C 0.65398 0.83066 0.27603 0.0
C2475 C 0.65806 0.83069 0.29103 0.0
C2476 C 0.67582 0.83434 0.29646 0.0
C2477 C 0.68941 0.8377 0.28661 0.0
C2478 C 0.6853 0.83751 0.27158 0.0
H2479 H 0.62919 0.78507 0.24105 0.0
H2480 H 0.64483 0.79536 0.25763 0.0
H2481 H 0.62504 0.79894 0.25488 0.0
H2482 H 0.64021 0.82799 0.27213 0.0
H2483 H 0.64715 0.82722 0.29828 0.0
H2484 H 0.21887 0.8307 0.18885 0.0
H2485 H 0.21329 0.83481 0.21446 0.0
H2486 H 0.15863 0.82583 0.20041 0.0
H2487 H 0.16426 0.82218 0.17475 0.0
H2488 H 0.17967 0.85721 0.22274 0.0
H2489 H 0.17634 0.78842 0.23642 0.0
H2490 H 0.19715 0.8053 0.22837 0.0
H2491 H 0.17482 0.79409 0.21774 0.0
C2492 C 0.20577 0.82988 0.19119 0.0
C2493 C 0.19195 0.82599 0.17978 0.0
C2494 C 0.20255 0.83205 0.20583 0.0
C2495 C 0.18545 0.83033 0.2093 0.0
C2496 C 0.17187 0.82709 0.19793 0.0
H2497 H 0.13264 0.80546 0.29031 0.0
H2498 H 0.14104 0.80625 0.26497 0.0
C2499 C 0.17506 0.82487 0.1833 0.0
C2500 C 0.18142 0.83136 0.22478 0.0
H2501 H 0.17405 0.80758 0.25587 0.0
C2502 C 0.17849 0.84642 0.23002 0.0
C2503 C 0.17972 0.81711 0.23416 0.0
C2504 C 0.18201 0.8002 0.22891 0.0
C2505 C 0.17391 0.84763 0.24446 0.0
C2506 C 0.1724 0.83349 0.25387 0.0
C2507 C 0.17533 0.81844 0.24862 0.0
C2508 C 0.16715 0.8336 0.26907 0.0
C2509 C 0.17029 0.86372 0.24943 0.0
C2510 C 0.17905 0.84875 0.27972 0.0
C2511 C 0.17423 0.84835 0.29418 0.0
C2512 C 0.15755 0.8327 0.29819 0.0
C2513 C 0.14557 0.81769 0.28748 0.0
C2514 C 0.15038 0.81809 0.27305 0.0
H2515 H 0.16815 0.87089 0.24003 0.0
H2516 H 0.15775 0.85805 0.25576 0.0
H2517 H 0.18253 0.87488 0.25673 0.0
H2518 H 0.19217 0.86072 0.27691 0.0
H2519 H 0.18362 0.86017 0.30224 0.0
H2520 H 0.19525 0.39311 0.19657 0.0
H2521 H 0.1896 0.37986 0.22048 0.0
H2522 H 0.1973 0.33288 0.2039 0.0
H2523 H 0.20264 0.34587 0.1798 0.0
H2524 H 0.16443 0.32105 0.21841 0.0
H2525 H 0.22719 0.37959 0.25186 0.0
H2526 H 0.21463 0.38835 0.24107 0.0
H2527 H 0.22571 0.37666 0.23204 0.0
C2528 C 0.19574 0.37996 0.19802 0.0
C2529 C 0.19935 0.37049 0.18632 0.0
C2530 C 0.19273 0.37254 0.21172 0.0
C2531 C 0.19332 0.35558 0.21399 0.0
C2532 C 0.19698 0.34611 0.20237 0.0
H2533 H 0.18426 0.31524 0.30201 0.0
H2534 H 0.19447 0.32341 0.27736 0.0
C2535 C 0.20009 0.35358 0.18866 0.0
C2536 C 0.1889 0.34714 0.22824 0.0
H2537 H 0.20177 0.35769 0.26506 0.0
C2538 C 0.17272 0.32892 0.2286 0.0
C2539 C 0.19989 0.35734 0.24147 0.0
C2540 C 0.21793 0.37649 0.24163 0.0
C2541 C 0.16671 0.32105 0.24196 0.0
C2542 C 0.17707 0.33181 0.25524 0.0
C2543 C 0.19376 0.34958 0.25484 0.0
C2544 C 0.17031 0.32546 0.2697 0.0
C2545 C 0.14924 0.30139 0.24175 0.0
C2546 C 0.15335 0.32388 0.27348 0.0
C2547 C 0.14764 0.31942 0.28754 0.0
C2548 C 0.15891 0.31669 0.29804 0.0
C2549 C 0.17557 0.31769 0.29413 0.0
C2550 C 0.18133 0.32222 0.28008 0.0
H2551 H 0.1462 0.29275 0.23101 0.0
H2552 H 0.15057 0.29301 0.25059 0.0
H2553 H 0.13708 0.30338 0.24355 0.0
H2554 H 0.14483 0.32668 0.2657 0.0
H2555 H 0.13476 0.31879 0.29034 0.0
H2556 H 0.81928 0.61987 0.81651 0.0
H2557 H 0.82467 0.63122 0.79201 0.0
H2558 H 0.80675 0.67227 0.80342 0.0
H2559 H 0.80169 0.66125 0.82819 0.0
H2560 H 0.79753 0.63138 0.77115 0.0
H2561 H 0.85892 0.70515 0.78714 0.0
H2562 H 0.85122 0.6858 0.79916 0.0
H2563 H 0.83822 0.69814 0.79664 0.0
C2564 C 0.81671 0.63149 0.81389 0.0
C2565 C 0.81022 0.63979 0.82432 0.0
C2566 C 0.81966 0.63784 0.79986 0.0
C2567 C 0.81627 0.65268 0.79599 0.0
C2568 C 0.80966 0.66095 0.80629 0.0
H2569 H 0.81603 0.67737 0.70334 0.0
H2570 H 0.80668 0.67105 0.7284 0.0
C2571 C 0.80664 0.65454 0.82037 0.0
C2572 C 0.81951 0.65915 0.78104 0.0
H2573 H 0.84905 0.69662 0.76194 0.0
C2574 C 0.80866 0.6457 0.7691 0.0
C2575 C 0.8341 0.67781 0.77849 0.0
C2576 C 0.84642 0.69259 0.79099 0.0
C2577 C 0.81235 0.65022 0.7546 0.0
C2578 C 0.82713 0.66879 0.75201 0.0
C2579 C 0.83767 0.68243 0.76398 0.0
C2580 C 0.83289 0.67375 0.73706 0.0
C2581 C 0.80085 0.63482 0.74222 0.0
C2582 C 0.85088 0.67792 0.73376 0.0
C2583 C 0.85623 0.68159 0.71953 0.0
C2584 C 0.84368 0.68115 0.70837 0.0
C2585 C 0.82586 0.67753 0.71174 0.0
C2586 C 0.82051 0.67389 0.72601 0.0
H2587 H 0.79285 0.62012 0.74616 0.0
H2588 H 0.79061 0.63827 0.73689 0.0
H2589 H 0.80992 0.63442 0.73382 0.0
H2590 H 0.86064 0.6779 0.74213 0.0
H2591 H 0.87007 0.68439 0.71721 0.0
H2592 H 0.36458 0.19416 0.82672 0.0
H2593 H 0.35299 0.18746 0.80082 0.0
H2594 H 0.32321 0.12598 0.80571 0.0
H2595 H 0.33448 0.13255 0.83183 0.0
H2596 H 0.34541 0.1366 0.7816 0.0
H2597 H 0.29971 0.16913 0.78206 0.0
H2598 H 0.32283 0.18511 0.79088 0.0
H2599 H 0.30757 0.16277 0.79856 0.0
C2600 C 0.35524 0.17922 0.82241 0.0
C2601 C 0.35036 0.1639 0.83141 0.0
C2602 C 0.34865 0.17542 0.80758 0.0
C2603 C 0.33701 0.15625 0.80142 0.0
C2604 C 0.3321 0.14088 0.8103 0.0
H2605 H 0.29138 0.14105 0.70958 0.0
H2606 H 0.29287 0.13569 0.73571 0.0
C2607 C 0.33863 0.14467 0.82519 0.0
C2608 C 0.33093 0.15241 0.78551 0.0
H2609 H 0.30949 0.1646 0.75862 0.0
C2610 C 0.33729 0.14243 0.77657 0.0
C2611 C 0.32007 0.15975 0.779 0.0
C2612 C 0.31198 0.16962 0.78813 0.0
C2613 C 0.33404 0.14062 0.76121 0.0
C2614 C 0.32438 0.14923 0.75467 0.0
C2615 C 0.31703 0.15816 0.76365 0.0
C2616 C 0.32323 0.15071 0.73863 0.0
C2617 C 0.34129 0.12984 0.75213 0.0
C2618 C 0.33977 0.16095 0.73167 0.0
C2619 C 0.33894 0.16407 0.71687 0.0
C2620 C 0.32155 0.15704 0.70874 0.0
C2621 C 0.30496 0.14653 0.71561 0.0
C2622 C 0.30579 0.14346 0.73049 0.0
H2623 H 0.34269 0.11903 0.75845 0.0
H2624 H 0.33191 0.12224 0.74195 0.0
H2625 H 0.35542 0.14036 0.74894 0.0
H2626 H 0.35337 0.16713 0.73782 0.0
H2627 H 0.35196 0.17251 0.71193 0.0
H2628 H 0.82931 0.21039 0.82221 0.0
H2629 H 0.83569 0.20544 0.79707 0.0
H2630 H 0.79769 0.14383 0.79686 0.0
H2631 H 0.79156 0.14852 0.82223 0.0
H2632 H 0.84955 0.17856 0.78776 0.0
H2633 H 0.78158 0.16198 0.75853 0.0
H2634 H 0.7897 0.17505 0.77655 0.0
H2635 H 0.7807 0.14933 0.77448 0.0
C2636 C 0.82239 0.19574 0.8169 0.0
C2637 C 0.81 0.17983 0.8243 0.0
C2638 C 0.82596 0.19298 0.80249 0.0
C2639 C 0.81706 0.17431 0.79513 0.0
C2640 C 0.8045 0.15839 0.80234 0.0
H2641 H 0.82349 0.13727 0.70526 0.0
H2642 H 0.81534 0.13801 0.73059 0.0
C2643 C 0.80099 0.16111 0.81681 0.0
C2644 C 0.82159 0.17154 0.78011 0.0
H2645 H 0.80409 0.16121 0.74415 0.0
C2646 C 0.83963 0.17472 0.7782 0.0
C2647 C 0.80851 0.16637 0.76776 0.0
C2648 C 0.78904 0.16306 0.76931 0.0
C2649 C 0.84502 0.17294 0.76419 0.0
C2650 C 0.83215 0.16836 0.75175 0.0
C2651 C 0.81396 0.1648 0.7537 0.0
C2652 C 0.83745 0.16771 0.73659 0.0
C2653 C 0.86437 0.17573 0.76288 0.0
C2654 C 0.8525 0.18417 0.73156 0.0
C2655 C 0.85718 0.18373 0.71715 0.0
C2656 C 0.84665 0.16693 0.70749 0.0
C2657 C 0.83167 0.15045 0.71251 0.0
C2658 C 0.82704 0.15085 0.72695 0.0
H2659 H 0.87004 0.17309 0.77324 0.0
H2660 H 0.86426 0.16587 0.7538 0.0
H2661 H 0.87406 0.19095 0.76059 0.0
H2662 H 0.86043 0.19749 0.7387 0.0
H2663 H 0.86868 0.19668 0.71346 0.0
H2664 H 0.32695 0.15301 0.50764 0.0
H2665 H 0.33466 0.15563 0.53417 0.0
H2666 H 0.29123 0.1692 0.54212 0.0
H2667 H 0.28319 0.16629 0.51563 0.0
H2668 H 0.34503 0.18832 0.55589 0.0
H2669 H 0.27912 0.12119 0.56557 0.0
H2670 H 0.28741 0.12629 0.54755 0.0
H2671 H 0.27637 0.13861 0.5556 0.0
C2672 C 0.31901 0.1565 0.51504 0.0
C2673 C 0.30441 0.15935 0.50955 0.0
C2674 C 0.3235 0.15809 0.53017 0.0
C2675 C 0.31336 0.16239 0.54005 0.0
C2676 C 0.29906 0.16567 0.53464 0.0
H2677 H 0.34013 0.19178 0.63474 0.0
H2678 H 0.3319 0.19164 0.60855 0.0
C2679 C 0.29462 0.16417 0.51951 0.0
C2680 C 0.31759 0.16312 0.55604 0.0
H2681 H 0.29967 0.13961 0.58646 0.0
C2682 C 0.33512 0.17774 0.56261 0.0
C2683 C 0.30465 0.14916 0.56469 0.0
C2684 C 0.28587 0.1328 0.55804 0.0
C2685 C 0.34004 0.17879 0.57768 0.0
C2686 C 0.32703 0.16493 0.58634 0.0
C2687 C 0.30953 0.15028 0.57976 0.0
C2688 C 0.33162 0.16495 0.60216 0.0
C2689 C 0.35923 0.19445 0.5842 0.0
C2690 C 0.33383 0.14982 0.6072 0.0
C2691 C 0.33847 0.14986 0.62209 0.0
C2692 C 0.34078 0.16493 0.63218 0.0
C2693 C 0.33832 0.17995 0.62716 0.0
C2694 C 0.33376 0.17995 0.61224 0.0
H2695 H 0.36876 0.20185 0.57561 0.0
H2696 H 0.35785 0.20551 0.59104 0.0
H2697 H 0.36576 0.18824 0.59141 0.0
H2698 H 0.33215 0.1381 0.59956 0.0
H2699 H 0.34022 0.13809 0.62572 0.0
H2700 H 0.87976 0.16288 0.51942 0.0
H2701 H 0.87374 0.1657 0.54506 0.0
H2702 H 0.81834 0.15482 0.53117 0.0
H2703 H 0.82439 0.15242 0.50544 0.0
H2704 H 0.83869 0.18607 0.5538 0.0
H2705 H 0.8379 0.11827 0.56667 0.0
H2706 H 0.85843 0.1356 0.55857 0.0
H2707 H 0.83597 0.12406 0.54808 0.0
C2708 C 0.86639 0.16134 0.5218 0.0
C2709 C 0.85252 0.15734 0.51039 0.0
C2710 C 0.86291 0.16277 0.53646 0.0
C2711 C 0.84551 0.16018 0.53998 0.0
C2712 C 0.83182 0.15673 0.52865 0.0
H2713 H 0.79776 0.13521 0.6236 0.0
H2714 H 0.80407 0.13525 0.59773 0.0
C2715 C 0.83526 0.15525 0.51398 0.0
C2716 C 0.84147 0.16076 0.5555 0.0
H2717 H 0.83625 0.13735 0.58661 0.0
C2718 C 0.83814 0.17543 0.56099 0.0
C2719 C 0.84055 0.1467 0.56476 0.0
C2720 C 0.84323 0.13015 0.55924 0.0
C2721 C 0.83415 0.17658 0.57562 0.0
C2722 C 0.83367 0.16278 0.58497 0.0
C2723 C 0.83677 0.14798 0.57942 0.0
C2724 C 0.82965 0.16321 0.60052 0.0
C2725 C 0.83018 0.19232 0.58089 0.0
C2726 C 0.84198 0.17891 0.61063 0.0
C2727 C 0.83837 0.17892 0.62538 0.0
C2728 C 0.82248 0.16317 0.63024 0.0
C2729 C 0.81009 0.14755 0.6201 0.0
C2730 C 0.8137 0.14753 0.60536 0.0
H2731 H 0.82679 0.19881 0.5716 0.0
H2732 H 0.81832 0.18655 0.58795 0.0
H2733 H 0.84278 0.20406 0.58753 0.0
H2734 H 0.8545 0.19103 0.60714 0.0
H2735 H 0.84797 0.19125 0.63297 0.0
H2736 H 0.82635 0.6623 0.50542 0.0
H2737 H 0.82065 0.65323 0.53063 0.0
H2738 H 0.87733 0.69756 0.54555 0.0
H2739 H 0.88305 0.70698 0.52051 0.0
H2740 H 0.84173 0.64232 0.55179 0.0
H2741 H 0.842 0.71038 0.56926 0.0
H2742 H 0.83899 0.70143 0.5502 0.0
H2743 H 0.86189 0.71346 0.56001 0.0
C2744 C 0.83761 0.67006 0.51407 0.0
C2745 C 0.85511 0.68544 0.511 0.0
C2746 C 0.83437 0.66479 0.52842 0.0
C2747 C 0.84852 0.67489 0.5399 0.0
C2748 C 0.8662 0.68973 0.53681 0.0
H2749 H 0.85375 0.67918 0.63431 0.0
H2750 H 0.86057 0.68328 0.6087 0.0
C2751 C 0.86948 0.69497 0.52249 0.0
C2752 C 0.84456 0.67062 0.55524 0.0
H2753 H 0.84027 0.6902 0.58781 0.0
C2754 C 0.84134 0.65271 0.5597 0.0
C2755 C 0.84404 0.68424 0.56543 0.0
C2756 C 0.84676 0.70341 0.56102 0.0
C2757 C 0.83804 0.64825 0.57428 0.0
C2758 C 0.83762 0.66195 0.5845 0.0
C2759 C 0.84069 0.67977 0.57996 0.0
C2760 C 0.83413 0.65826 0.60003 0.0
C2761 C 0.83551 0.62917 0.57871 0.0
C2762 C 0.81704 0.64289 0.60368 0.0
C2763 C 0.8134 0.64036 0.6184 0.0
C2764 C 0.82682 0.65313 0.62965 0.0
C2765 C 0.84377 0.66854 0.62595 0.0
C2766 C 0.84746 0.67107 0.61128 0.0
H2767 H 0.84098 0.62267 0.57072 0.0
H2768 H 0.84273 0.63105 0.58976 0.0
H2769 H 0.82033 0.61878 0.57914 0.0
H2770 H 0.80634 0.63315 0.59515 0.0
H2771 H 0.80004 0.62854 0.62098 0.0
loop_
_geom_bond_atom_site_label_1
_geom_bond_atom_site_label_2
_geom_bond_distance
_geom_bond_site_symmetry_2
_ccdc_geom_bond_type
C0 C1 1.384 . S
C0 H13 0.947 . S
C0 C35 1.382 . S
C1 C0 1.384 . S
C1 C2 1.378 . S
C2 C1 1.378 . S
C2 C3 1.378 . S
C2 H14 0.952 . S
C3 C2 1.378 . S
C3 H15 0.950 . S
C3 C34 1.383 . S
H4 C23 0.947 . S
H5 C24 0.946 . S
H6 C26 0.953 . S
H7 C27 0.945 . S
H8 C29 0.952 . S
H9 C30 0.949 . S
H10 C32 0.950 . S
H11 C33 0.948 . S
H12 C35 0.951 . S
H13 C0 0.947 . S
H14 C2 0.952 . S
H15 C3 0.950 . S
N16 C19 1.382 . S
N16 C21 1.363 . S
N17 C19 1.371 . S
N17 C20 1.372 . S
N18 C20 1.361 . S
N18 C21 1.377 . S
C19 N16 1.382 . S
C19 N17 1.371 . S
C19 C22 1.480 . S
C20 N17 1.372 . S
C20 N18 1.361 . S
C20 C28 1.457 . S
C21 N16 1.363 . S
C21 N18 1.377 . S
C21 C34 1.479 . S
C22 C19 1.480 . S
C22 C23 1.383 . S
C22 C27 1.385 . S
C23 H4 0.947 . S
C23 C22 1.383 . S
C23 C24 1.388 . S
C24 H5 0.946 . S
C24 C23 1.388 . S
C24 C25 1.384 . S
C25 C24 1.384 . S
C25 C26 1.377 . S
C26 H6 0.953 . S
C26 C25 1.377 . S
C26 C27 1.369 . S
C27 H7 0.945 . S
C27 C22 1.385 . S
C27 C26 1.369 . S
C28 C20 1.457 . S
C28 C29 1.372 . S
C28 C33 1.364 . S
C29 H8 0.952 . S
C29 C28 1.372 . S
C29 C30 1.389 . S
C30 H9 0.949 . S
C30 C29 1.389 . S
C30 C31 1.387 . S
C31 C30 1.387 . S
C31 C32 1.372 . S
C32 H10 0.950 . S
C32 C31 1.372 . S
C32 C33 1.379 . S
C33 H11 0.948 . S
C33 C28 1.364 . S
C33 C32 1.379 . S
C34 C3 1.383 . S
C34 C21 1.479 . S
C34 C35 1.398 . S
C35 C0 1.382 . S
C35 H12 0.951 . S
C35 C34 1.398 . S
C36 C37 1.384 . S
C36 H49 0.947 . S
C36 C71 1.382 . S
C37 C36 1.384 . S
C37 C38 1.378 . S
C38 C37 1.378 . S
C38 C39 1.378 . S
C38 H50 0.952 . S
C39 C38 1.378 . S
C39 H51 0.950 . S
C39 C70 1.383 . S
H40 C59 0.947 . S
H41 C60 0.946 . S
H42 C62 0.953 . S
H43 C63 0.945 . S
H44 C65 0.952 . S
H45 C66 0.949 . S
H46 C68 0.950 . S
H47 C69 0.948 . S
H48 C71 0.951 . S
H49 C36 0.947 . S
H50 C38 0.952 . S
H51 C39 0.950 . S
N52 C55 1.382 . S
N52 C57 1.363 . S
N53 C55 1.371 . S
N53 C56 1.372 . S
N54 C56 1.361 . S
N54 C57 1.377 . S
C55 N52 1.382 . S
C55 N53 1.371 . S
C55 C58 1.480 . S
C56 N53 1.372 . S
C56 N54 1.361 . S
C56 C64 1.457 . S
C57 N52 1.363 . S
C57 N54 1.377 . S
C57 C70 1.479 . S
C58 C55 1.480 . S
C58 C59 1.383 . S
C58 C63 1.385 . S
C59 H40 0.947 . S
C59 C58 1.383 . S
C59 C60 1.388 . S
C60 H41 0.946 . S
C60 C59 1.388 . S
C60 C61 1.384 . S
C61 C60 1.384 . S
C61 C62 1.377 . S
C62 H42 0.953 . S
C62 C61 1.377 . S
C62 C63 1.369 . S
C63 H43 0.945 . S
C63 C58 1.385 . S
C63 C62 1.369 . S
C64 C56 1.457 . S
C64 C65 1.372 . S
C64 C69 1.364 . S
C65 H44 0.952 . S
C65 C64 1.372 . S
C65 C66 1.389 . S
C66 H45 0.949 . S
C66 C65 1.389 . S
C66 C67 1.387 . S
C67 C66 1.387 . S
C67 C68 1.372 . S
C68 H46 0.950 . S
C68 C67 1.372 . S
C68 C69 1.379 . S
C69 H47 0.948 . S
C69 C64 1.364 . S
C69 C68 1.379 . S
C70 C39 1.383 . S
C70 C57 1.479 . S
C70 C71 1.398 . S
C71 C36 1.382 . S
C71 H48 0.951 . S
C71 C70 1.398 . S
C72 C73 1.384 . S
C72 H85 0.947 . S
C72 C107 1.382 . S
C73 C72 1.384 . S
C73 C74 1.378 . S
C74 C73 1.378 . S
C74 C75 1.378 . S
C74 H86 0.952 . S
C75 C74 1.378 . S
C75 H87 0.950 . S
C75 C106 1.383 . S
H76 C95 0.947 . S
H77 C96 0.946 . S
H78 C98 0.953 . S
H79 C99 0.945 . S
H80 C101 0.952 . S
H81 C102 0.949 . S
H82 C104 0.950 . S
H83 C105 0.948 . S
H84 C107 0.951 . S
H85 C72 0.947 . S
H86 C74 0.952 . S
H87 C75 0.950 . S
N88 C91 1.382 . S
N88 C93 1.363 . S
N89 C91 1.371 . S
N89 C92 1.372 . S
N90 C92 1.361 . S
N90 C93 1.377 . S
C91 N88 1.382 . S
C91 N89 1.371 . S
C91 C94 1.480 . S
C92 N89 1.372 . S
C92 N90 1.361 . S
C92 C100 1.457 . S
C93 N88 1.363 . S
C93 N90 1.377 . S
C93 C106 1.479 . S
C94 C91 1.480 . S
C94 C95 1.383 . S
C94 C99 1.385 . S
C95 H76 0.947 . S
C95 C94 1.383 . S
C95 C96 1.388 . S
C96 H77 0.946 . S
C96 C95 1.388 . S
C96 C97 1.384 . S
C97 C96 1.384 . S
C97 C98 1.377 . S
C98 H78 0.953 . S
C98 C97 1.377 . S
C98 C99 1.369 . S
C99 H79 0.945 . S
C99 C94 1.385 . S
C99 C98 1.369 . S
C100 C92 1.457 . S
C100 C101 1.372 . S
C100 C105 1.364 . S
C101 H80 0.952 . S
C101 C100 1.372 . S
C101 C102 1.389 . S
C102 H81 0.949 . S
C102 C101 1.389 . S
C102 C103 1.387 . S
C103 C102 1.387 . S
C103 C104 1.372 . S
C104 H82 0.950 . S
C104 C103 1.372 . S
C104 C105 1.379 . S
C105 H83 0.948 . S
C105 C100 1.364 . S
C105 C104 1.379 . S
C106 C75 1.383 . S
C106 C93 1.479 . S
C106 C107 1.398 . S
C107 C72 1.382 . S
C107 H84 0.951 . S
C107 C106 1.398 . S
C108 C109 1.384 . S
C108 H121 0.947 . S
C108 C143 1.382 . S
C109 C108 1.384 . S
C109 C110 1.378 . S
C110 C109 1.378 . S
C110 C111 1.378 . S
C110 H122 0.952 . S
C111 C110 1.378 . S
C111 H123 0.950 . S
C111 C142 1.383 . S
H112 C131 0.947 . S
H113 C132 0.946 . S
H114 C134 0.953 . S
H115 C135 0.945 . S
H116 C137 0.952 . S
H117 C138 0.949 . S
H118 C140 0.950 . S
H119 C141 0.948 . S
H120 C143 0.951 . S
H121 C108 0.947 . S
H122 C110 0.952 . S
H123 C111 0.950 . S
N124 C127 1.382 . S
N124 C129 1.363 . S
N125 C127 1.371 . S
N125 C128 1.372 . S
N126 C128 1.361 . S
N126 C129 1.377 . S
C127 N124 1.382 . S
C127 N125 1.371 . S
C127 C130 1.480 . S
C128 N125 1.372 . S
C128 N126 1.361 . S
C128 C136 1.457 . S
C129 N124 1.363 . S
C129 N126 1.377 . S
C129 C142 1.479 . S
C130 C127 1.480 . S
C130 C131 1.383 . S
C130 C135 1.385 . S
C131 H112 0.947 . S
C131 C130 1.383 . S
C131 C132 1.388 . S
C132 H113 0.946 . S
C132 C131 1.388 . S
C132 C133 1.384 . S
C133 C132 1.384 . S
C133 C134 1.377 . S
C134 H114 0.953 . S
C134 C133 1.377 . S
C134 C135 1.369 . S
C135 H115 0.945 . S
C135 C130 1.385 . S
C135 C134 1.369 . S
C136 C128 1.457 . S
C136 C137 1.372 . S
C136 C141 1.364 . S
C137 H116 0.952 . S
C137 C136 1.372 . S
C137 C138 1.389 . S
C138 H117 0.949 . S
C138 C137 1.389 . S
C138 C139 1.387 . S
C139 C138 1.387 . S
C139 C140 1.372 . S
C140 H118 0.950 . S
C140 C139 1.372 . S
C140 C141 1.379 . S
C141 H119 0.948 . S
C141 C136 1.364 . S
C141 C140 1.379 . S
C142 C111 1.383 . S
C142 C129 1.479 . S
C142 C143 1.398 . S
C143 C108 1.382 . S
C143 H120 0.951 . S
C143 C142 1.398 . S
C144 C145 1.384 . S
C144 H157 0.947 . S
C144 C179 1.382 . S
C145 C144 1.384 . S
C145 C146 1.378 . S
C146 C145 1.378 . S
C146 C147 1.378 . S
C146 H158 0.952 . S
C147 C146 1.378 . S
C147 H159 0.950 . S
C147 C178 1.383 . S
H148 C167 0.947 . S
H149 C168 0.946 . S
H150 C170 0.953 . S
H151 C171 0.945 . S
H152 C173 0.952 . S
H153 C174 0.949 . S
H154 C176 0.950 . S
H155 C177 0.948 . S
H156 C179 0.951 . S
H157 C144 0.947 . S
H158 C146 0.952 . S
H159 C147 0.950 . S
N160 C163 1.382 . S
N160 C165 1.363 . S
N161 C163 1.371 . S
N161 C164 1.372 . S
N162 C164 1.361 . S
N162 C165 1.377 . S
C163 N160 1.382 . S
C163 N161 1.371 . S
C163 C166 1.480 . S
C164 N161 1.372 . S
C164 N162 1.361 . S
C164 C172 1.457 . S
C165 N160 1.363 . S
C165 N162 1.377 . S
C165 C178 1.479 . S
C166 C163 1.480 . S
C166 C167 1.383 . S
C166 C171 1.385 . S
C167 H148 0.947 . S
C167 C166 1.383 . S
C167 C168 1.388 . S
C168 H149 0.946 . S
C168 C167 1.388 . S
C168 C169 1.384 . S
C169 C168 1.384 . S
C169 C170 1.377 . S
C170 H150 0.953 . S
C170 C169 1.377 . S
C170 C171 1.369 . S
C171 H151 0.945 . S
C171 C166 1.385 . S
C171 C170 1.369 . S
C172 C164 1.457 . S
C172 C173 1.372 . S
C172 C177 1.364 . S
C173 H152 0.952 . S
C173 C172 1.372 . S
C173 C174 1.389 . S
C174 H153 0.949 . S
C174 C173 1.389 . S
C174 C175 1.387 . S
C175 C174 1.387 . S
C175 C176 1.372 . S
C176 H154 0.950 . S
C176 C175 1.372 . S
C176 C177 1.379 . S
C177 H155 0.948 . S
C177 C172 1.364 . S
C177 C176 1.379 . S
C178 C147 1.383 . S
C178 C165 1.479 . S
C178 C179 1.398 . S
C179 C144 1.382 . S
C179 H156 0.951 . S
C179 C178 1.398 . S
C180 C181 1.384 . S
C180 H193 0.947 . S
C180 C215 1.382 . S
C181 C180 1.384 . S
C181 C182 1.378 . S
C182 C181 1.378 . S
C182 C183 1.378 . S
C182 H194 0.952 . S
C183 C182 1.378 . S
C183 H195 0.950 . S
C183 C214 1.383 . S
H184 C203 0.947 . S
H185 C204 0.946 . S
H186 C206 0.953 . S
H187 C207 0.945 . S
H188 C209 0.952 . S
H189 C210 0.949 . S
H190 C212 0.950 . S
H191 C213 0.948 . S
H192 C215 0.951 . S
H193 C180 0.947 . S
H194 C182 0.952 . S
H195 C183 0.950 . S
N196 C199 1.382 . S
N196 C201 1.363 . S
N197 C199 1.371 . S
N197 C200 1.372 . S
N198 C200 1.361 . S
N198 C201 1.377 . S
C199 N196 1.382 . S
C199 N197 1.371 . S
C199 C202 1.480 . S
C200 N197 1.372 . S
C200 N198 1.361 . S
C200 C208 1.457 . S
C201 N196 1.363 . S
C201 N198 1.377 . S
C201 C214 1.479 . S
C202 C199 1.480 . S
C202 C203 1.383 . S
C202 C207 1.385 . S
C203 H184 0.947 . S
C203 C202 1.383 . S
C203 C204 1.388 . S
C204 H185 0.946 . S
C204 C203 1.388 . S
C204 C205 1.384 . S
C205 C204 1.384 . S
C205 C206 1.377 . S
C206 H186 0.953 . S
C206 C205 1.377 . S
C206 C207 1.369 . S
C207 H187 0.945 . S
C207 C202 1.385 . S
C207 C206 1.369 . S
C208 C200 1.457 . S
C208 C209 1.372 . S
C208 C213 1.364 . S
C209 H188 0.952 . S
C209 C208 1.372 . S
C209 C210 1.389 . S
C210 H189 0.949 . S
C210 C209 1.389 . S
C210 C211 1.387 . S
C211 C210 1.387 . S
C211 C212 1.372 . S
C212 H190 0.950 . S
C212 C211 1.372 . S
C212 C213 1.379 . S
C213 H191 0.948 . S
C213 C208 1.364 . S
C213 C212 1.379 . S
C214 C183 1.383 . S
C214 C201 1.479 . S
C214 C215 1.398 . S
C215 C180 1.382 . S
C215 H192 0.951 . S
C215 C214 1.398 . S
C216 C217 1.384 . S
C216 H229 0.947 . S
C216 C251 1.382 . S
C217 C216 1.384 . S
C217 C218 1.378 . S
C218 C217 1.378 . S
C218 C219 1.378 . S
C218 H230 0.952 . S
C219 C218 1.378 . S
C219 H231 0.950 . S
C219 C250 1.383 . S
H220 C239 0.947 . S
H221 C240 0.946 . S
H222 C242 0.953 . S
H223 C243 0.945 . S
H224 C245 0.952 . S
H225 C246 0.949 . S
H226 C248 0.950 . S
H227 C249 0.948 . S
H228 C251 0.951 . S
H229 C216 0.947 . S
H230 C218 0.952 . S
H231 C219 0.950 . S
N232 C235 1.382 . S
N232 C237 1.363 . S
N233 C235 1.371 . S
N233 C236 1.372 . S
N234 C236 1.361 . S
N234 C237 1.377 . S
C235 N232 1.382 . S
C235 N233 1.371 . S
C235 C238 1.480 . S
C236 N233 1.372 . S
C236 N234 1.361 . S
C236 C244 1.457 . S
C237 N232 1.363 . S
C237 N234 1.377 . S
C237 C250 1.479 . S
C238 C235 1.480 . S
C238 C239 1.383 . S
C238 C243 1.385 . S
C239 H220 0.947 . S
C239 C238 1.383 . S
C239 C240 1.388 . S
C240 H221 0.946 . S
C240 C239 1.388 . S
C240 C241 1.384 . S
C241 C240 1.384 . S
C241 C242 1.377 . S
C242 H222 0.953 . S
C242 C241 1.377 . S
C242 C243 1.369 . S
C243 H223 0.945 . S
C243 C238 1.385 . S
C243 C242 1.369 . S
C244 C236 1.457 . S
C244 C245 1.372 . S
C244 C249 1.364 . S
C245 H224 0.952 . S
C245 C244 1.372 . S
C245 C246 1.389 . S
C246 H225 0.949 . S
C246 C245 1.389 . S
C246 C247 1.387 . S
C247 C246 1.387 . S
C247 C248 1.372 . S
C248 H226 0.950 . S
C248 C247 1.372 . S
C248 C249 1.379 . S
C249 H227 0.948 . S
C249 C244 1.364 . S
C249 C248 1.379 . S
C250 C219 1.383 . S
C250 C237 1.479 . S
C250 C251 1.398 . S
C251 C216 1.382 . S
C251 H228 0.951 . S
C251 C250 1.398 . S
C252 C253 1.384 . S
C252 H265 0.947 . S
C252 C287 1.382 . S
C253 C252 1.384 . S
C253 C254 1.378 . S
C254 C253 1.378 . S
C254 C255 1.378 . S
C254 H266 0.952 . S
C255 C254 1.378 . S
C255 H267 0.950 . S
C255 C286 1.383 . S
H256 C275 0.947 . S
H257 C276 0.946 . S
H258 C278 0.953 . S
H259 C279 0.945 . S
H260 C281 0.952 . S
H261 C282 0.949 . S
H262 C284 0.950 . S
H263 C285 0.948 . S
H264 C287 0.951 . S
H265 C252 0.947 . S
H266 C254 0.952 . S
H267 C255 0.950 . S
N268 C271 1.382 . S
N268 C273 1.363 . S
N269 C271 1.371 . S
N269 C272 1.372 . S
N270 C272 1.361 . S
N270 C273 1.377 . S
C271 N268 1.382 . S
C271 N269 1.371 . S
C271 C274 1.480 . S
C272 N269 1.372 . S
C272 N270 1.361 . S
C272 C280 1.457 . S
C273 N268 1.363 . S
C273 N270 1.377 . S
C273 C286 1.479 . S
C274 C271 1.480 . S
C274 C275 1.383 . S
C274 C279 1.385 . S
C275 H256 0.947 . S
C275 C274 1.383 . S
C275 C276 1.388 . S
C276 H257 0.946 . S
C276 C275 1.388 . S
C276 C277 1.384 . S
C277 C276 1.384 . S
C277 C278 1.377 . S
C278 H258 0.953 . S
C278 C277 1.377 . S
C278 C279 1.369 . S
C279 H259 0.945 . S
C279 C274 1.385 . S
C279 C278 1.369 . S
C280 C272 1.457 . S
C280 C281 1.372 . S
C280 C285 1.364 . S
C281 H260 0.952 . S
C281 C280 1.372 . S
C281 C282 1.389 . S
C282 H261 0.949 . S
C282 C281 1.389 . S
C282 C283 1.387 . S
C283 C282 1.387 . S
C283 C284 1.372 . S
C284 H262 0.950 . S
C284 C283 1.372 . S
C284 C285 1.379 . S
C285 H263 0.948 . S
C285 C280 1.364 . S
C285 C284 1.379 . S
C286 C255 1.383 . S
C286 C273 1.479 . S
C286 C287 1.398 . S
C287 C252 1.382 . S
C287 H264 0.951 . S
C287 C286 1.398 . S
C288 C289 1.384 . S
C288 H301 0.947 . S
C288 C323 1.382 . S
C289 C288 1.384 . S
C289 C290 1.378 . S
C290 C289 1.378 . S
C290 C291 1.378 . S
C290 H302 0.952 . S
C291 C290 1.378 . S
C291 H303 0.950 . S
C291 C322 1.383 . S
H292 C311 0.947 . S
H293 C312 0.946 . S
H294 C314 0.953 . S
H295 C315 0.945 . S
H296 C317 0.952 . S
H297 C318 0.949 . S
H298 C320 0.950 . S
H299 C321 0.948 . S
H300 C323 0.951 . S
H301 C288 0.947 . S
H302 C290 0.952 . S
H303 C291 0.950 . S
N304 C307 1.382 . S
N304 C309 1.363 . S
N305 C307 1.371 . S
N305 C308 1.372 . S
N306 C308 1.361 . S
N306 C309 1.377 . S
C307 N304 1.382 . S
C307 N305 1.371 . S
C307 C310 1.480 . S
C308 N305 1.372 . S
C308 N306 1.361 . S
C308 C316 1.457 . S
C309 N304 1.363 . S
C309 N306 1.377 . S
C309 C322 1.479 . S
C310 C307 1.480 . S
C310 C311 1.383 . S
C310 C315 1.385 . S
C311 H292 0.947 . S
C311 C310 1.383 . S
C311 C312 1.388 . S
C312 H293 0.946 . S
C312 C311 1.388 . S
C312 C313 1.384 . S
C313 C312 1.384 . S
C313 C314 1.377 . S
C314 H294 0.953 . S
C314 C313 1.377 . S
C314 C315 1.369 . S
C315 H295 0.945 . S
C315 C310 1.385 . S
C315 C314 1.369 . S
C316 C308 1.457 . S
C316 C317 1.372 . S
C316 C321 1.364 . S
C317 H296 0.952 . S
C317 C316 1.372 . S
C317 C318 1.389 . S
C318 H297 0.949 . S
C318 C317 1.389 . S
C318 C319 1.387 . S
C319 C318 1.387 . S
C319 C320 1.372 . S
C320 H298 0.950 . S
C320 C319 1.372 . S
C320 C321 1.379 . S
C321 H299 0.948 . S
C321 C316 1.364 . S
C321 C320 1.379 . S
C322 C291 1.383 . S
C322 C309 1.479 . S
C322 C323 1.398 . S
C323 C288 1.382 . S
C323 H300 0.951 . S
C323 C322 1.398 . S
C324 C325 1.384 . S
C324 H337 0.947 . S
C324 C359 1.382 . S
C325 C324 1.384 . S
C325 C326 1.378 . S
C326 C325 1.378 . S
C326 C327 1.378 . S
C326 H338 0.952 . S
C327 C326 1.378 . S
C327 H339 0.950 . S
C327 C358 1.383 . S
H328 C347 0.947 . S
H329 C348 0.946 . S
H330 C350 0.953 . S
H331 C351 0.945 . S
H332 C353 0.952 . S
H333 C354 0.949 . S
H334 C356 0.950 . S
H335 C357 0.948 . S
H336 C359 0.951 . S
H337 C324 0.947 . S
H338 C326 0.952 . S
H339 C327 0.950 . S
N340 C343 1.382 . S
N340 C345 1.363 . S
N341 C343 1.371 . S
N341 C344 1.372 . S
N342 C344 1.361 . S
N342 C345 1.377 . S
C343 N340 1.382 . S
C343 N341 1.371 . S
C343 C346 1.480 . S
C344 N341 1.372 . S
C344 N342 1.361 . S
C344 C352 1.457 . S
C345 N340 1.363 . S
C345 N342 1.377 . S
C345 C358 1.479 . S
C346 C343 1.480 . S
C346 C347 1.383 . S
C346 C351 1.385 . S
C347 H328 0.947 . S
C347 C346 1.383 . S
C347 C348 1.388 . S
C348 H329 0.946 . S
C348 C347 1.388 . S
C348 C349 1.384 . S
C349 C348 1.384 . S
C349 C350 1.377 . S
C350 H330 0.953 . S
C350 C349 1.377 . S
C350 C351 1.369 . S
C351 H331 0.945 . S
C351 C346 1.385 . S
C351 C350 1.369 . S
C352 C344 1.457 . S
C352 C353 1.372 . S
C352 C357 1.364 . S
C353 H332 0.952 . S
C353 C352 1.372 . S
C353 C354 1.389 . S
C354 H333 0.949 . S
C354 C353 1.389 . S
C354 C355 1.387 . S
C355 C354 1.387 . S
C355 C356 1.372 . S
C356 H334 0.950 . S
C356 C355 1.372 . S
C356 C357 1.379 . S
C357 H335 0.948 . S
C357 C352 1.364 . S
C357 C356 1.379 . S
C358 C327 1.383 . S
C358 C345 1.479 . S
C358 C359 1.398 . S
C359 C324 1.382 . S
C359 H336 0.951 . S
C359 C358 1.398 . S
C360 C361 1.384 . S
C360 H373 0.947 . S
C360 C395 1.382 . S
C361 C360 1.384 . S
C361 C362 1.378 . S
C362 C361 1.378 . S
C362 C363 1.378 . S
C362 H374 0.952 . S
C363 C362 1.378 . S
C363 H375 0.950 . S
C363 C394 1.383 . S
H364 C383 0.947 . S
H365 C384 0.946 . S
H366 C386 0.953 . S
H367 C387 0.945 . S
H368 C389 0.952 . S
H369 C390 0.949 . S
H370 C392 0.950 . S
H371 C393 0.948 . S
H372 C395 0.951 . S
H373 C360 0.947 . S
H374 C362 0.952 . S
H375 C363 0.950 . S
N376 C379 1.382 . S
N376 C381 1.363 . S
N377 C379 1.371 . S
N377 C380 1.372 . S
N378 C380 1.361 . S
N378 C381 1.377 . S
C379 N376 1.382 . S
C379 N377 1.371 . S
C379 C382 1.480 . S
C380 N377 1.372 . S
C380 N378 1.361 . S
C380 C388 1.457 . S
C381 N376 1.363 . S
C381 N378 1.377 . S
C381 C394 1.479 . S
C382 C379 1.480 . S
C382 C383 1.383 . S
C382 C387 1.385 . S
C383 H364 0.947 . S
C383 C382 1.383 . S
C383 C384 1.388 . S
C384 H365 0.946 . S
C384 C383 1.388 . S
C384 C385 1.384 . S
C385 C384 1.384 . S
C385 C386 1.377 . S
C386 H366 0.953 . S
C386 C385 1.377 . S
C386 C387 1.369 . S
C387 H367 0.945 . S
C387 C382 1.385 . S
C387 C386 1.369 . S
C388 C380 1.457 . S
C388 C389 1.372 . S
C388 C393 1.364 . S
C389 H368 0.952 . S
C389 C388 1.372 . S
C389 C390 1.389 . S
C390 H369 0.949 . S
C390 C389 1.389 . S
C390 C391 1.387 . S
C391 C390 1.387 . S
C391 C392 1.372 . S
C392 H370 0.950 . S
C392 C391 1.372 . S
C392 C393 1.379 . S
C393 H371 0.948 . S
C393 C388 1.364 . S
C393 C392 1.379 . S
C394 C363 1.383 . S
C394 C381 1.479 . S
C394 C395 1.398 . S
C395 C360 1.382 . S
C395 H372 0.951 . S
C395 C394 1.398 . S
C396 C397 1.384 . S
C396 H409 0.947 . S
C396 C431 1.382 . S
C397 C396 1.384 . S
C397 C398 1.378 . S
C398 C397 1.378 . S
C398 C399 1.378 . S
C398 H410 0.952 . S
C399 C398 1.378 . S
C399 H411 0.950 . S
C399 C430 1.383 . S
H400 C419 0.947 . S
H401 C420 0.946 . S
H402 C422 0.953 . S
H403 C423 0.945 . S
H404 C425 0.952 . S
H405 C426 0.949 . S
H406 C428 0.950 . S
H407 C429 0.948 . S
H408 C431 0.951 . S
H409 C396 0.947 . S
H410 C398 0.952 . S
H411 C399 0.950 . S
N412 C415 1.382 . S
N412 C417 1.363 . S
N413 C415 1.371 . S
N413 C416 1.372 . S
N414 C416 1.361 . S
N414 C417 1.377 . S
C415 N412 1.382 . S
C415 N413 1.371 . S
C415 C418 1.480 . S
C416 N413 1.372 . S
C416 N414 1.361 . S
C416 C424 1.457 . S
C417 N412 1.363 . S
C417 N414 1.377 . S
C417 C430 1.479 . S
C418 C415 1.480 . S
C418 C419 1.383 . S
C418 C423 1.385 . S
C419 H400 0.947 . S
C419 C418 1.383 . S
C419 C420 1.388 . S
C420 H401 0.946 . S
C420 C419 1.388 . S
C420 C421 1.384 . S
C421 C420 1.384 . S
C421 C422 1.377 . S
C422 H402 0.953 . S
C422 C421 1.377 . S
C422 C423 1.369 . S
C423 H403 0.945 . S
C423 C418 1.385 . S
C423 C422 1.369 . S
C424 C416 1.457 . S
C424 C425 1.372 . S
C424 C429 1.364 . S
C425 H404 0.952 . S
C425 C424 1.372 . S
C425 C426 1.389 . S
C426 H405 0.949 . S
C426 C425 1.389 . S
C426 C427 1.387 . S
C427 C426 1.387 . S
C427 C428 1.372 . S
C428 H406 0.950 . S
C428 C427 1.372 . S
C428 C429 1.379 . S
C429 H407 0.948 . S
C429 C424 1.364 . S
C429 C428 1.379 . S
C430 C399 1.383 . S
C430 C417 1.479 . S
C430 C431 1.398 . S
C431 C396 1.382 . S
C431 H408 0.951 . S
C431 C430 1.398 . S
C432 C433 1.384 . S
C432 H445 0.947 . S
C432 C467 1.382 . S
C433 C432 1.384 . S
C433 C434 1.378 . S
C434 C433 1.378 . S
C434 C435 1.378 . S
C434 H446 0.952 . S
C435 C434 1.378 . S
C435 H447 0.950 . S
C435 C466 1.383 . S
H436 C455 0.947 . S
H437 C456 0.946 . S
H438 C458 0.953 . S
H439 C459 0.945 . S
H440 C461 0.952 . S
H441 C462 0.949 . S
H442 C464 0.950 . S
H443 C465 0.948 . S
H444 C467 0.951 . S
H445 C432 0.947 . S
H446 C434 0.952 . S
H447 C435 0.950 . S
N448 C451 1.382 . S
N448 C453 1.363 . S
N449 C451 1.371 . S
N449 C452 1.372 . S
N450 C452 1.361 . S
N450 C453 1.377 . S
C451 N448 1.382 . S
C451 N449 1.371 . S
C451 C454 1.480 . S
C452 N449 1.372 . S
C452 N450 1.361 . S
C452 C460 1.457 . S
C453 N448 1.363 . S
C453 N450 1.377 . S
C453 C466 1.479 . S
C454 C451 1.480 . S
C454 C455 1.383 . S
C454 C459 1.385 . S
C455 H436 0.947 . S
C455 C454 1.383 . S
C455 C456 1.388 . S
C456 H437 0.946 . S
C456 C455 1.388 . S
C456 C457 1.384 . S
C457 C456 1.384 . S
C457 C458 1.377 . S
C458 H438 0.953 . S
C458 C457 1.377 . S
C458 C459 1.369 . S
C459 H439 0.945 . S
C459 C454 1.385 . S
C459 C458 1.369 . S
C460 C452 1.457 . S
C460 C461 1.372 . S
C460 C465 1.364 . S
C461 H440 0.952 . S
C461 C460 1.372 . S
C461 C462 1.389 . S
C462 H441 0.949 . S
C462 C461 1.389 . S
C462 C463 1.387 . S
C463 C462 1.387 . S
C463 C464 1.372 . S
C464 H442 0.950 . S
C464 C463 1.372 . S
C464 C465 1.379 . S
C465 H443 0.948 . S
C465 C460 1.364 . S
C465 C464 1.379 . S
C466 C435 1.383 . S
C466 C453 1.479 . S
C466 C467 1.398 . S
C467 C432 1.382 . S
C467 H444 0.951 . S
C467 C466 1.398 . S
C468 C469 1.384 . S
C468 H481 0.947 . S
C468 C503 1.382 . S
C469 C468 1.384 . S
C469 C470 1.378 . S
C470 C469 1.378 . S
C470 C471 1.378 . S
C470 H482 0.952 . S
C471 C470 1.378 . S
C471 H483 0.950 . S
C471 C502 1.383 . S
H472 C491 0.947 . S
H473 C492 0.946 . S
H474 C494 0.953 . S
H475 C495 0.945 . S
H476 C497 0.952 . S
H477 C498 0.949 . S
H478 C500 0.950 . S
H479 C501 0.948 . S
H480 C503 0.951 . S
H481 C468 0.947 . S
H482 C470 0.952 . S
H483 C471 0.950 . S
N484 C487 1.382 . S
N484 C489 1.363 . S
N485 C487 1.371 . S
N485 C488 1.372 . S
N486 C488 1.361 . S
N486 C489 1.377 . S
C487 N484 1.382 . S
C487 N485 1.371 . S
C487 C490 1.480 . S
C488 N485 1.372 . S
C488 N486 1.361 . S
C488 C496 1.457 . S
C489 N484 1.363 . S
C489 N486 1.377 . S
C489 C502 1.479 . S
C490 C487 1.480 . S
C490 C491 1.383 . S
C490 C495 1.385 . S
C491 H472 0.947 . S
C491 C490 1.383 . S
C491 C492 1.388 . S
C492 H473 0.946 . S
C492 C491 1.388 . S
C492 C493 1.384 . S
C493 C492 1.384 . S
C493 C494 1.377 . S
C494 H474 0.953 . S
C494 C493 1.377 . S
C494 C495 1.369 . S
C495 H475 0.945 . S
C495 C490 1.385 . S
C495 C494 1.369 . S
C496 C488 1.457 . S
C496 C497 1.372 . S
C496 C501 1.364 . S
C497 H476 0.952 . S
C497 C496 1.372 . S
C497 C498 1.389 . S
C498 H477 0.949 . S
C498 C497 1.389 . S
C498 C499 1.387 . S
C499 C498 1.387 . S
C499 C500 1.372 . S
C500 H478 0.950 . S
C500 C499 1.372 . S
C500 C501 1.379 . S
C501 H479 0.948 . S
C501 C496 1.364 . S
C501 C500 1.379 . S
C502 C471 1.383 . S
C502 C489 1.479 . S
C502 C503 1.398 . S
C503 C468 1.382 . S
C503 H480 0.951 . S
C503 C502 1.398 . S
C504 C505 1.384 . S
C504 H517 0.947 . S
C504 C539 1.382 . S
C505 C504 1.384 . S
C505 C506 1.378 . S
C506 C505 1.378 . S
C506 C507 1.378 . S
C506 H518 0.952 . S
C507 C506 1.378 . S
C507 H519 0.950 . S
C507 C538 1.383 . S
H508 C527 0.947 . S
H509 C528 0.946 . S
H510 C530 0.953 . S
H511 C531 0.945 . S
H512 C533 0.952 . S
H513 C534 0.949 . S
H514 C536 0.950 . S
H515 C537 0.948 . S
H516 C539 0.951 . S
H517 C504 0.947 . S
H518 C506 0.952 . S
H519 C507 0.950 . S
N520 C523 1.382 . S
N520 C525 1.363 . S
N521 C523 1.371 . S
N521 C524 1.372 . S
N522 C524 1.361 . S
N522 C525 1.377 . S
C523 N520 1.382 . S
C523 N521 1.371 . S
C523 C526 1.480 . S
C524 N521 1.372 . S
C524 N522 1.361 . S
C524 C532 1.457 . S
C525 N520 1.363 . S
C525 N522 1.377 . S
C525 C538 1.479 . S
C526 C523 1.480 . S
C526 C527 1.383 . S
C526 C531 1.385 . S
C527 H508 0.947 . S
C527 C526 1.383 . S
C527 C528 1.388 . S
C528 H509 0.946 . S
C528 C527 1.388 . S
C528 C529 1.384 . S
C529 C528 1.384 . S
C529 C530 1.377 . S
C530 H510 0.953 . S
C530 C529 1.377 . S
C530 C531 1.369 . S
C531 H511 0.945 . S
C531 C526 1.385 . S
C531 C530 1.369 . S
C532 C524 1.457 . S
C532 C533 1.372 . S
C532 C537 1.364 . S
C533 H512 0.952 . S
C533 C532 1.372 . S
C533 C534 1.389 . S
C534 H513 0.949 . S
C534 C533 1.389 . S
C534 C535 1.387 . S
C535 C534 1.387 . S
C535 C536 1.372 . S
C536 H514 0.950 . S
C536 C535 1.372 . S
C536 C537 1.379 . S
C537 H515 0.948 . S
C537 C532 1.364 . S
C537 C536 1.379 . S
C538 C507 1.383 . S
C538 C525 1.479 . S
C538 C539 1.398 . S
C539 C504 1.382 . S
C539 H516 0.951 . S
C539 C538 1.398 . S
C540 C541 1.384 . S
C540 H553 0.947 . S
C540 C575 1.382 . S
C541 C540 1.384 . S
C541 C542 1.378 . S
C542 C541 1.378 . S
C542 C543 1.378 . S
C542 H554 0.952 . S
C543 C542 1.378 . S
C543 H555 0.950 . S
C543 C574 1.383 . S
H544 C563 0.947 . S
H545 C564 0.946 . S
H546 C566 0.953 . S
H547 C567 0.945 . S
H548 C569 0.952 . S
H549 C570 0.949 . S
H550 C572 0.950 . S
H551 C573 0.948 . S
H552 C575 0.951 . S
H553 C540 0.947 . S
H554 C542 0.952 . S
H555 C543 0.950 . S
N556 C559 1.382 . S
N556 C561 1.363 . S
N557 C559 1.371 . S
N557 C560 1.372 . S
N558 C560 1.361 . S
N558 C561 1.377 . S
C559 N556 1.382 . S
C559 N557 1.371 . S
C559 C562 1.480 . S
C560 N557 1.372 . S
C560 N558 1.361 . S
C560 C568 1.457 . S
C561 N556 1.363 . S
C561 N558 1.377 . S
C561 C574 1.479 . S
C562 C559 1.480 . S
C562 C563 1.383 . S
C562 C567 1.385 . S
C563 H544 0.947 . S
C563 C562 1.383 . S
C563 C564 1.388 . S
C564 H545 0.946 . S
C564 C563 1.388 . S
C564 C565 1.384 . S
C565 C564 1.384 . S
C565 C566 1.377 . S
C566 H546 0.953 . S
C566 C565 1.377 . S
C566 C567 1.369 . S
C567 H547 0.945 . S
C567 C562 1.385 . S
C567 C566 1.369 . S
C568 C560 1.457 . S
C568 C569 1.372 . S
C568 C573 1.364 . S
C569 H548 0.952 . S
C569 C568 1.372 . S
C569 C570 1.389 . S
C570 H549 0.949 . S
C570 C569 1.389 . S
C570 C571 1.387 . S
C571 C570 1.387 . S
C571 C572 1.372 . S
C572 H550 0.950 . S
C572 C571 1.372 . S
C572 C573 1.379 . S
C573 H551 0.948 . S
C573 C568 1.364 . S
C573 C572 1.379 . S
C574 C543 1.383 . S
C574 C561 1.479 . S
C574 C575 1.398 . S
C575 C540 1.382 . S
C575 H552 0.951 . S
C575 C574 1.398 . S
C576 C577 1.384 . S
C576 H589 0.947 . S
C576 C611 1.382 . S
C577 C576 1.384 . S
C577 C578 1.378 . S
C578 C577 1.378 . S
C578 C579 1.378 . S
C578 H590 0.952 . S
C579 C578 1.378 . S
C579 H591 0.950 . S
C579 C610 1.383 . S
H580 C599 0.947 . S
H581 C600 0.946 . S
H582 C602 0.953 . S
H583 C603 0.945 . S
H584 C605 0.952 . S
H585 C606 0.949 . S
H586 C608 0.950 . S
H587 C609 0.948 . S
H588 C611 0.951 . S
H589 C576 0.947 . S
H590 C578 0.952 . S
H591 C579 0.950 . S
N592 C595 1.382 . S
N592 C597 1.363 . S
N593 C595 1.371 . S
N593 C596 1.372 . S
N594 C596 1.361 . S
N594 C597 1.377 . S
C595 N592 1.382 . S
C595 N593 1.371 . S
C595 C598 1.480 . S
C596 N593 1.372 . S
C596 N594 1.361 . S
C596 C604 1.457 . S
C597 N592 1.363 . S
C597 N594 1.377 . S
C597 C610 1.479 . S
C598 C595 1.480 . S
C598 C599 1.383 . S
C598 C603 1.385 . S
C599 H580 0.947 . S
C599 C598 1.383 . S
C599 C600 1.388 . S
C600 H581 0.946 . S
C600 C599 1.388 . S
C600 C601 1.384 . S
C601 C600 1.384 . S
C601 C602 1.377 . S
C602 H582 0.953 . S
C602 C601 1.377 . S
C602 C603 1.369 . S
C603 H583 0.945 . S
C603 C598 1.385 . S
C603 C602 1.369 . S
C604 C596 1.457 . S
C604 C605 1.372 . S
C604 C609 1.364 . S
C605 H584 0.952 . S
C605 C604 1.372 . S
C605 C606 1.389 . S
C606 H585 0.949 . S
C606 C605 1.389 . S
C606 C607 1.387 . S
C607 C606 1.387 . S
C607 C608 1.372 . S
C608 H586 0.950 . S
C608 C607 1.372 . S
C608 C609 1.379 . S
C609 H587 0.948 . S
C609 C604 1.364 . S
C609 C608 1.379 . S
C610 C579 1.383 . S
C610 C597 1.479 . S
C610 C611 1.398 . S
C611 C576 1.382 . S
C611 H588 0.951 . S
C611 C610 1.398 . S
C612 C613 1.384 . S
C612 H625 0.947 . S
C612 C647 1.382 . S
C613 C612 1.384 . S
C613 C614 1.378 . S
C614 C613 1.378 . S
C614 C615 1.378 . S
C614 H626 0.952 . S
C615 C614 1.378 . S
C615 H627 0.950 . S
C615 C646 1.383 . S
H616 C635 0.947 . S
H617 C636 0.946 . S
H618 C638 0.953 . S
H619 C639 0.945 . S
H620 C641 0.952 . S
H621 C642 0.949 . S
H622 C644 0.950 . S
H623 C645 0.948 . S
H624 C647 0.951 . S
H625 C612 0.947 . S
H626 C614 0.952 . S
H627 C615 0.950 . S
N628 C631 1.382 . S
N628 C633 1.363 . S
N629 C631 1.371 . S
N629 C632 1.372 . S
N630 C632 1.361 . S
N630 C633 1.377 . S
C631 N628 1.382 . S
C631 N629 1.371 . S
C631 C634 1.480 . S
C632 N629 1.372 . S
C632 N630 1.361 . S
C632 C640 1.457 . S
C633 N628 1.363 . S
C633 N630 1.377 . S
C633 C646 1.479 . S
C634 C631 1.480 . S
C634 C635 1.383 . S
C634 C639 1.385 . S
C635 H616 0.947 . S
C635 C634 1.383 . S
C635 C636 1.388 . S
C636 H617 0.946 . S
C636 C635 1.388 . S
C636 C637 1.384 . S
C637 C636 1.384 . S
C637 C638 1.377 . S
C638 H618 0.953 . S
C638 C637 1.377 . S
C638 C639 1.369 . S
C639 H619 0.945 . S
C639 C634 1.385 . S
C639 C638 1.369 . S
C640 C632 1.457 . S
C640 C641 1.372 . S
C640 C645 1.364 . S
C641 H620 0.952 . S
C641 C640 1.372 . S
C641 C642 1.389 . S
C642 H621 0.949 . S
C642 C641 1.389 . S
C642 C643 1.387 . S
C643 C642 1.387 . S
C643 C644 1.372 . S
C644 H622 0.950 . S
C644 C643 1.372 . S
C644 C645 1.379 . S
C645 H623 0.948 . S
C645 C640 1.364 . S
C645 C644 1.379 . S
C646 C615 1.383 . S
C646 C633 1.479 . S
C646 C647 1.398 . S
C647 C612 1.382 . S
C647 H624 0.951 . S
C647 C646 1.398 . S
Tb648 O651 2.453 . S
Tb648 O652 2.596 1_545 S
Tb648 O653 2.374 1_545 S
Tb648 O661 2.343 1_554 S
Tb648 O663 2.353 . S
Tb648 O665 2.427 1_554 S
Tb648 O666 2.513 1_554 S
C649 O653 1.251 . S
C649 O655 1.263 . S
Tb650 O652 2.343 1_556 S
Tb650 O655 2.353 1_556 S
Tb650 O658 2.427 1_556 S
Tb650 O659 2.513 1_556 S
Tb650 O660 2.453 . S
Tb650 O661 2.596 1_565 S
Tb650 O662 2.374 1_565 S
O651 Tb648 2.453 . S
O651 C667 1.245 . S
O652 Tb648 2.596 1_565 S
O652 Tb650 2.343 1_554 S
O652 C667 1.259 1_565 S
O653 Tb648 2.374 1_565 S
O653 C649 1.251 . S
C654 O658 1.275 . S
C654 O659 1.246 . S
O655 C649 1.263 . S
O655 Tb650 2.353 1_554 S
C656 O660 1.253 . S
C656 O661 1.258 1_565 S
C657 O662 1.250 . S
C657 O663 1.263 1_556 S
O658 Tb650 2.427 1_554 S
O658 C654 1.275 . S
O659 Tb650 2.513 1_554 S
O659 C654 1.246 . S
O660 Tb650 2.453 . S
O660 C656 1.253 . S
O661 Tb648 2.343 1_556 S
O661 Tb650 2.596 1_545 S
O661 C656 1.258 1_545 S
O662 Tb650 2.374 1_545 S
O662 C657 1.250 . S
O663 Tb648 2.353 . S
O663 C657 1.263 1_554 S
C664 O665 1.275 . S
C664 O666 1.246 . S
O665 Tb648 2.427 1_556 S
O665 C664 1.275 . S
O666 Tb648 2.513 1_556 S
O666 C664 1.246 . S
C667 O651 1.245 . S
C667 O652 1.259 1_545 S
Tb668 O671 2.453 . S
Tb668 O672 2.596 1_655 S
Tb668 O673 2.374 1_655 S
Tb668 O681 2.343 1_554 S
Tb668 O683 2.353 . S
Tb668 O685 2.427 1_554 S
Tb668 O686 2.513 1_554 S
C669 O673 1.251 . S
C669 O675 1.263 . S
Tb670 O672 2.343 1_556 S
Tb670 O675 2.353 1_556 S
Tb670 O678 2.427 1_556 S
Tb670 O679 2.513 1_556 S
Tb670 O680 2.453 . S
Tb670 O681 2.596 1_455 S
Tb670 O682 2.374 1_455 S
O671 Tb668 2.453 . S
O671 C687 1.245 1_655 S
O672 Tb668 2.596 1_455 S
O672 Tb670 2.343 1_554 S
O672 C687 1.259 . S
O673 Tb668 2.374 1_455 S
O673 C669 1.251 . S
C674 O678 1.275 . S
C674 O679 1.246 . S
O675 C669 1.263 . S
O675 Tb670 2.353 1_554 S
C676 O680 1.245 . S
C676 O681 1.259 1_455 S
C677 O682 1.250 . S
C677 O683 1.263 1_556 S
O678 Tb670 2.427 1_554 S
O678 C674 1.275 . S
O679 Tb670 2.513 1_554 S
O679 C674 1.246 . S
O680 Tb670 2.453 . S
O680 C676 1.245 . S
O681 Tb668 2.343 1_556 S
O681 Tb670 2.596 1_655 S
O681 C676 1.259 1_655 S
O682 Tb670 2.374 1_655 S
O682 C677 1.250 . S
O683 Tb668 2.353 . S
O683 C677 1.263 1_554 S
C684 O685 1.275 . S
C684 O686 1.246 . S
O685 Tb668 2.427 1_556 S
O685 C684 1.275 . S
O686 Tb668 2.513 1_556 S
O686 C684 1.246 . S
C687 O671 1.245 1_455 S
C687 O672 1.259 . S
Tb688 O691 2.453 . S
Tb688 O692 2.596 . S
Tb688 O693 2.374 . S
Tb688 O701 2.343 1_556 S
Tb688 O703 2.353 1_556 S
Tb688 O705 2.427 1_556 S
Tb688 O706 2.513 1_556 S
C689 O693 1.251 . S
C689 O695 1.263 1_556 S
Tb690 O692 2.343 1_554 S
Tb690 O695 2.353 . S
Tb690 O698 2.427 1_554 S
Tb690 O699 2.513 1_554 S
Tb690 O700 2.453 . S
Tb690 O701 2.596 . S
Tb690 O702 2.374 . S
O691 Tb688 2.453 . S
O691 C707 1.245 . S
O692 Tb688 2.596 . S
O692 Tb690 2.343 1_556 S
O692 C707 1.259 . S
O693 Tb688 2.374 . S
O693 C689 1.251 . S
C694 O698 1.275 . S
C694 O699 1.246 . S
O695 C689 1.263 1_554 S
O695 Tb690 2.353 . S
C696 O700 1.245 . S
C696 O701 1.259 . S
C697 O702 1.250 . S
C697 O703 1.263 . S
O698 Tb690 2.427 1_556 S
O698 C694 1.275 . S
O699 Tb690 2.513 1_556 S
O699 C694 1.246 . S
O700 Tb690 2.453 . S
O700 C696 1.245 . S
O701 Tb688 2.343 1_554 S
O701 Tb690 2.596 . S
O701 C696 1.259 . S
O702 Tb690 2.374 . S
O702 C697 1.250 . S
O703 Tb688 2.353 1_554 S
O703 C697 1.263 . S
C704 O705 1.275 . S
C704 O706 1.246 . S
O705 Tb688 2.427 1_554 S
O705 C704 1.275 . S
O706 Tb688 2.513 1_554 S
O706 C704 1.246 . S
C707 O691 1.245 . S
C707 O692 1.259 . S
Tb708 O711 2.453 . S
Tb708 O712 2.596 . S
Tb708 O713 2.374 . S
Tb708 O721 2.343 . S
Tb708 O723 2.353 . S
Tb708 O725 2.427 . S
Tb708 O726 2.513 . S
C709 O713 1.251 . S
C709 O715 1.263 . S
Tb710 O712 2.343 . S
Tb710 O715 2.353 . S
Tb710 O718 2.427 . S
Tb710 O719 2.513 . S
Tb710 O720 2.453 . S
Tb710 O721 2.596 . S
Tb710 O722 2.374 . S
O711 Tb708 2.453 . S
O711 C727 1.245 . S
O712 Tb708 2.596 . S
O712 Tb710 2.343 . S
O712 C727 1.259 . S
O713 Tb708 2.374 . S
O713 C709 1.251 . S
C714 O718 1.275 . S
C714 O719 1.246 . S
O715 C709 1.263 . S
O715 Tb710 2.353 . S
C716 O720 1.245 . S
C716 O721 1.259 . S
C717 O722 1.250 . S
C717 O723 1.263 . S
O718 Tb710 2.427 . S
O718 C714 1.275 . S
O719 Tb710 2.513 . S
O719 C714 1.246 . S
O720 Tb710 2.453 . S
O720 C716 1.245 . S
O721 Tb708 2.343 . S
O721 Tb710 2.596 . S
O721 C716 1.259 . S
O722 Tb710 2.374 . S
O722 C717 1.250 . S
O723 Tb708 2.353 . S
O723 C717 1.263 . S
C724 O725 1.275 . S
C724 O726 1.246 . S
O725 Tb708 2.427 . S
O725 C724 1.275 . S
O726 Tb708 2.513 . S
O726 C724 1.246 . S
C727 O711 1.245 . S
C727 O712 1.259 . S
Tb728 O731 2.453 . S
Tb728 O732 2.596 . S
Tb728 O733 2.374 . S
Tb728 O741 2.343 . S
Tb728 O743 2.353 . S
Tb728 O745 2.427 . S
Tb728 O746 2.513 . S
C729 O733 1.251 . S
C729 O735 1.263 . S
Tb730 O732 2.343 . S
Tb730 O735 2.353 . S
Tb730 O738 2.427 . S
Tb730 O739 2.513 . S
Tb730 O740 2.453 . S
Tb730 O741 2.596 . S
Tb730 O742 2.374 . S
O731 Tb728 2.453 . S
O731 C747 1.245 . S
O732 Tb728 2.596 . S
O732 Tb730 2.343 . S
O732 C747 1.259 . S
O733 Tb728 2.374 . S
O733 C729 1.251 . S
C734 O738 1.275 . S
C734 O739 1.246 . S
O735 C729 1.263 . S
O735 Tb730 2.353 . S
C736 O740 1.245 . S
C736 O741 1.259 . S
C737 O742 1.250 . S
C737 O743 1.263 . S
O738 Tb730 2.427 . S
O738 C734 1.275 . S
O739 Tb730 2.513 . S
O739 C734 1.246 . S
O740 Tb730 2.453 . S
O740 C736 1.245 . S
O741 Tb728 2.343 . S
O741 Tb730 2.596 . S
O741 C736 1.259 . S
O742 Tb730 2.374 . S
O742 C737 1.250 . S
O743 Tb728 2.353 . S
O743 C737 1.263 . S
C744 O745 1.275 . S
C744 O746 1.246 . S
O745 Tb728 2.427 . S
O745 C744 1.275 . S
O746 Tb728 2.513 . S
O746 C744 1.246 . S
C747 O731 1.245 . S
C747 O732 1.259 . S
Tb748 O751 2.453 . S
Tb748 O752 2.596 . S
Tb748 O753 2.374 . S
Tb748 O761 2.343 . S
Tb748 O763 2.353 . S
Tb748 O765 2.427 . S
Tb748 O766 2.513 . S
C749 O753 1.251 . S
C749 O755 1.263 . S
Tb750 O752 2.343 . S
Tb750 O755 2.353 . S
Tb750 O758 2.427 . S
Tb750 O759 2.513 . S
Tb750 O760 2.453 . S
Tb750 O761 2.596 . S
Tb750 O762 2.374 . S
O751 Tb748 2.453 . S
O751 C767 1.245 . S
O752 Tb748 2.596 . S
O752 Tb750 2.343 . S
O752 C767 1.259 . S
O753 Tb748 2.374 . S
O753 C749 1.251 . S
C754 O758 1.275 . S
C754 O759 1.246 . S
O755 C749 1.263 . S
O755 Tb750 2.353 . S
C756 O760 1.245 . S
C756 O761 1.259 . S
C757 O762 1.250 . S
C757 O763 1.263 . S
O758 Tb750 2.427 . S
O758 C754 1.275 . S
O759 Tb750 2.513 . S
O759 C754 1.246 . S
O760 Tb750 2.453 . S
O760 C756 1.245 . S
O761 Tb748 2.343 . S
O761 Tb750 2.596 . S
O761 C756 1.259 . S
O762 Tb750 2.374 . S
O762 C757 1.250 . S
O763 Tb748 2.353 . S
O763 C757 1.263 . S
C764 O765 1.275 . S
C764 O766 1.246 . S
O765 Tb748 2.427 . S
O765 C764 1.275 . S
O766 Tb748 2.513 . S
O766 C764 1.246 . S
C767 O751 1.245 . S
C767 O752 1.259 . S
Tb768 O771 2.453 . S
Tb768 O772 2.596 . S
Tb768 O773 2.374 . S
Tb768 O781 2.343 . S
Tb768 O783 2.353 . S
Tb768 O785 2.427 . S
Tb768 O786 2.513 . S
C769 O773 1.251 . S
C769 O775 1.263 . S
Tb770 O772 2.343 . S
Tb770 O775 2.353 . S
Tb770 O778 2.427 . S
Tb770 O779 2.513 . S
Tb770 O780 2.453 . S
Tb770 O781 2.596 . S
Tb770 O782 2.374 . S
O771 Tb768 2.453 . S
O771 C787 1.245 . S
O772 Tb768 2.596 . S
O772 Tb770 2.343 . S
O772 C787 1.259 . S
O773 Tb768 2.374 . S
O773 C769 1.251 . S
C774 O778 1.275 . S
C774 O779 1.246 . S
O775 C769 1.263 . S
O775 Tb770 2.353 . S
C776 O780 1.245 . S
C776 O781 1.259 . S
C777 O782 1.250 . S
C777 O783 1.263 . S
O778 Tb770 2.427 . S
O778 C774 1.275 . S
O779 Tb770 2.513 . S
O779 C774 1.246 . S
O780 Tb770 2.453 . S
O780 C776 1.245 . S
O781 Tb768 2.343 . S
O781 Tb770 2.596 . S
O781 C776 1.259 . S
O782 Tb770 2.374 . S
O782 C777 1.250 . S
O783 Tb768 2.353 . S
O783 C777 1.263 . S
C784 O785 1.275 . S
C784 O786 1.246 . S
O785 Tb768 2.427 . S
O785 C784 1.275 . S
O786 Tb768 2.513 . S
O786 C784 1.246 . S
C787 O771 1.245 . S
C787 O772 1.259 . S
Tb788 O791 2.453 . S
Tb788 O792 2.596 . S
Tb788 O793 2.374 . S
Tb788 O801 2.343 . S
Tb788 O803 2.353 . S
Tb788 O805 2.427 . S
Tb788 O806 2.513 . S
C789 O793 1.251 . S
C789 O795 1.263 . S
Tb790 O792 2.343 . S
Tb790 O795 2.353 . S
Tb790 O798 2.427 . S
Tb790 O799 2.513 . S
Tb790 O800 2.453 . S
Tb790 O801 2.596 . S
Tb790 O802 2.374 . S
O791 Tb788 2.453 . S
O791 C807 1.245 . S
O792 Tb788 2.596 . S
O792 Tb790 2.343 . S
O792 C807 1.259 . S
O793 Tb788 2.374 . S
O793 C789 1.251 . S
C794 O798 1.275 . S
C794 O799 1.246 . S
O795 C789 1.263 . S
O795 Tb790 2.353 . S
C796 O800 1.245 . S
C796 O801 1.259 . S
C797 O802 1.250 . S
C797 O803 1.263 . S
O798 Tb790 2.427 . S
O798 C794 1.275 . S
O799 Tb790 2.513 . S
O799 C794 1.246 . S
O800 Tb790 2.453 . S
O800 C796 1.245 . S
O801 Tb788 2.343 . S
O801 Tb790 2.596 . S
O801 C796 1.259 . S
O802 Tb790 2.374 . S
O802 C797 1.250 . S
O803 Tb788 2.353 . S
O803 C797 1.263 . S
C804 O805 1.275 . S
C804 O806 1.246 . S
O805 Tb788 2.427 . S
O805 C804 1.275 . S
O806 Tb788 2.513 . S
O806 C804 1.246 . S
C807 O791 1.245 . S
C807 O792 1.259 . S
Tb808 O811 2.453 . S
Tb808 O812 2.596 . S
Tb808 O813 2.374 . S
Tb808 O821 2.343 . S
Tb808 O823 2.353 . S
Tb808 O825 2.427 . S
Tb808 O826 2.513 . S
C809 O813 1.251 . S
C809 O815 1.263 . S
Tb810 O812 2.343 . S
Tb810 O815 2.353 . S
Tb810 O818 2.427 . S
Tb810 O819 2.513 . S
Tb810 O820 2.453 . S
Tb810 O821 2.596 . S
Tb810 O822 2.374 . S
O811 Tb808 2.453 . S
O811 C827 1.245 . S
O812 Tb808 2.596 . S
O812 Tb810 2.343 . S
O812 C827 1.259 . S
O813 Tb808 2.374 . S
O813 C809 1.251 . S
C814 O818 1.275 . S
C814 O819 1.246 . S
O815 C809 1.263 . S
O815 Tb810 2.353 . S
C816 O820 1.245 . S
C816 O821 1.259 . S
C817 O822 1.250 . S
C817 O823 1.263 . S
O818 Tb810 2.427 . S
O818 C814 1.275 . S
O819 Tb810 2.513 . S
O819 C814 1.246 . S
O820 Tb810 2.453 . S
O820 C816 1.245 . S
O821 Tb808 2.343 . S
O821 Tb810 2.596 . S
O821 C816 1.259 . S
O822 Tb810 2.374 . S
O822 C817 1.250 . S
O823 Tb808 2.353 . S
O823 C817 1.263 . S
C824 O825 1.275 . S
C824 O826 1.246 . S
O825 Tb808 2.427 . S
O825 C824 1.275 . S
O826 Tb808 2.513 . S
O826 C824 1.246 . S
C827 O811 1.245 . S
C827 O812 1.259 . S
H828 C836 0.929 . S
H829 C838 0.930 . S
H830 C840 0.930 . S
H831 C843 0.929 . S
H832 C846 0.930 . S
H833 C848 0.960 . S
H834 C848 0.960 . S
H835 C848 0.960 . S
C836 H828 0.929 . S
C836 C837 1.377 . S
C836 C838 1.384 . S
C837 C836 1.377 . S
C837 C843 1.390 . S
C838 H829 0.930 . S
C838 C836 1.384 . S
C838 C839 1.372 . S
C839 C838 1.372 . S
C839 C840 1.400 . S
C839 C844 1.490 . S
C840 H830 0.930 . S
C840 C839 1.400 . S
C840 C843 1.386 . S
H841 C857 0.930 . S
H842 C858 0.931 . S
C843 H831 0.929 . S
C843 C837 1.390 . S
C843 C840 1.386 . S
C844 C839 1.490 . S
C844 C846 1.395 . S
C844 C847 1.403 . S
H845 C851 0.930 . S
C846 H832 0.930 . S
C846 C844 1.395 . S
C846 C849 1.403 . S
C847 C844 1.403 . S
C847 C848 1.524 . S
C847 C851 1.400 . S
C848 H833 0.960 . S
C848 H834 0.960 . S
C848 H835 0.960 . S
C848 C847 1.524 . S
C849 C846 1.403 . S
C849 C850 1.392 . S
C849 C853 1.495 . S
C850 C849 1.392 . S
C850 C851 1.385 . S
C850 C852 1.478 . S
C851 H845 0.930 . S
C851 C847 1.400 . S
C851 C850 1.385 . S
C852 C850 1.478 . S
C852 C854 1.381 . S
C852 C858 1.383 . S
C853 C849 1.495 . S
C853 H859 0.959 . S
C853 H860 0.961 . S
C853 H861 0.960 . S
C854 C852 1.381 . S
C854 C855 1.394 . S
C854 H862 0.930 . S
C855 C854 1.394 . S
C855 C856 1.383 . S
C855 H863 0.929 . S
C856 C855 1.383 . S
C856 C857 1.377 . S
C857 H841 0.930 . S
C857 C856 1.377 . S
C857 C858 1.379 . S
C858 H842 0.931 . S
C858 C852 1.383 . S
C858 C857 1.379 . S
H859 C853 0.959 . S
H860 C853 0.961 . S
H861 C853 0.960 . S
H862 C854 0.930 . S
H863 C855 0.929 . S
H864 C872 0.929 . S
H865 C874 0.930 . S
H866 C876 0.930 . S
H867 C879 0.929 . S
H868 C882 0.930 . S
H869 C884 0.960 . S
H870 C884 0.960 . S
H871 C884 0.960 . S
C872 H864 0.929 . S
C872 C873 1.377 . S
C872 C874 1.384 . S
C873 C872 1.377 . S
C873 C879 1.390 . S
C874 H865 0.930 . S
C874 C872 1.384 . S
C874 C875 1.372 . S
C875 C874 1.372 . S
C875 C876 1.400 . S
C875 C880 1.490 . S
C876 H866 0.930 . S
C876 C875 1.400 . S
C876 C879 1.386 . S
H877 C893 0.930 . S
H878 C894 0.931 . S
C879 H867 0.929 . S
C879 C873 1.390 . S
C879 C876 1.386 . S
C880 C875 1.490 . S
C880 C882 1.395 . S
C880 C883 1.403 . S
H881 C887 0.930 . S
C882 H868 0.930 . S
C882 C880 1.395 . S
C882 C885 1.403 . S
C883 C880 1.403 . S
C883 C884 1.524 . S
C883 C887 1.400 . S
C884 H869 0.960 . S
C884 H870 0.960 . S
C884 H871 0.960 . S
C884 C883 1.524 . S
C885 C882 1.403 . S
C885 C886 1.392 . S
C885 C889 1.495 . S
C886 C885 1.392 . S
C886 C887 1.385 . S
C886 C888 1.478 . S
C887 H881 0.930 . S
C887 C883 1.400 . S
C887 C886 1.385 . S
C888 C886 1.478 . S
C888 C890 1.381 . S
C888 C894 1.383 . S
C889 C885 1.495 . S
C889 H895 0.959 . S
C889 H896 0.961 . S
C889 H897 0.960 . S
C890 C888 1.381 . S
C890 C891 1.394 . S
C890 H898 0.930 . S
C891 C890 1.394 . S
C891 C892 1.383 . S
C891 H899 0.929 . S
C892 C891 1.383 . S
C892 C893 1.377 . S
C893 H877 0.930 . S
C893 C892 1.377 . S
C893 C894 1.379 . S
C894 H878 0.931 . S
C894 C888 1.383 . S
C894 C893 1.379 . S
H895 C889 0.959 . S
H896 C889 0.961 . S
H897 C889 0.960 . S
H898 C890 0.930 . S
H899 C891 0.929 . S
H900 C908 0.929 . S
H901 C910 0.930 . S
H902 C912 0.930 . S
H903 C915 0.929 . S
H904 C918 0.930 . S
H905 C920 0.960 . S
H906 C920 0.960 . S
H907 C920 0.960 . S
C908 H900 0.929 . S
C908 C909 1.377 . S
C908 C910 1.384 . S
C909 C908 1.377 . S
C909 C915 1.390 . S
C910 H901 0.930 . S
C910 C908 1.384 . S
C910 C911 1.372 . S
C911 C910 1.372 . S
C911 C912 1.400 . S
C911 C916 1.490 . S
C912 H902 0.930 . S
C912 C911 1.400 . S
C912 C915 1.386 . S
H913 C929 0.930 . S
H914 C930 0.931 . S
C915 H903 0.929 . S
C915 C909 1.390 . S
C915 C912 1.386 . S
C916 C911 1.490 . S
C916 C918 1.395 . S
C916 C919 1.403 . S
H917 C923 0.930 . S
C918 H904 0.930 . S
C918 C916 1.395 . S
C918 C921 1.403 . S
C919 C916 1.403 . S
C919 C920 1.524 . S
C919 C923 1.400 . S
C920 H905 0.960 . S
C920 H906 0.960 . S
C920 H907 0.960 . S
C920 C919 1.524 . S
C921 C918 1.403 . S
C921 C922 1.392 . S
C921 C925 1.495 . S
C922 C921 1.392 . S
C922 C923 1.385 . S
C922 C924 1.478 . S
C923 H917 0.930 . S
C923 C919 1.400 . S
C923 C922 1.385 . S
C924 C922 1.478 . S
C924 C926 1.381 . S
C924 C930 1.383 . S
C925 C921 1.495 . S
C925 H931 0.959 . S
C925 H932 0.961 . S
C925 H933 0.960 . S
C926 C924 1.381 . S
C926 C927 1.394 . S
C926 H934 0.930 . S
C927 C926 1.394 . S
C927 C928 1.383 . S
C927 H935 0.929 1_554 S
C928 C927 1.383 . S
C928 C929 1.377 . S
C929 H913 0.930 . S
C929 C928 1.377 . S
C929 C930 1.379 . S
C930 H914 0.931 . S
C930 C924 1.383 . S
C930 C929 1.379 . S
H931 C925 0.959 . S
H932 C925 0.961 . S
H933 C925 0.960 . S
H934 C926 0.930 . S
H935 C927 0.929 1_556 S
H936 C944 0.929 . S
H937 C946 0.930 . S
H938 C948 0.930 . S
H939 C951 0.929 . S
H940 C954 0.930 . S
H941 C956 0.960 . S
H942 C956 0.960 . S
H943 C956 0.960 . S
C944 H936 0.929 . S
C944 C945 1.377 . S
C944 C946 1.384 . S
C945 C944 1.377 . S
C945 C951 1.390 . S
C946 H937 0.930 . S
C946 C944 1.384 . S
C946 C947 1.372 . S
C947 C946 1.372 . S
C947 C948 1.400 . S
C947 C952 1.490 . S
C948 H938 0.930 . S
C948 C947 1.400 . S
C948 C951 1.386 . S
H949 C965 0.930 . S
H950 C966 0.931 . S
C951 H939 0.929 . S
C951 C945 1.390 . S
C951 C948 1.386 . S
C952 C947 1.490 . S
C952 C954 1.395 . S
C952 C955 1.403 . S
H953 C959 0.930 . S
C954 H940 0.930 . S
C954 C952 1.395 . S
C954 C957 1.403 . S
C955 C952 1.403 . S
C955 C956 1.524 . S
C955 C959 1.400 . S
C956 H941 0.960 . S
C956 H942 0.960 . S
C956 H943 0.960 . S
C956 C955 1.524 . S
C957 C954 1.403 . S
C957 C958 1.392 . S
C957 C961 1.495 . S
C958 C957 1.392 . S
C958 C959 1.385 . S
C958 C960 1.478 . S
C959 H953 0.930 . S
C959 C955 1.400 . S
C959 C958 1.385 . S
C960 C958 1.478 . S
C960 C962 1.381 . S
C960 C966 1.383 . S
C961 C957 1.495 . S
C961 H967 0.959 . S
C961 H968 0.961 . S
C961 H969 0.960 . S
C962 C960 1.381 . S
C962 C963 1.394 . S
C962 H970 0.930 . S
C963 C962 1.394 . S
C963 C964 1.383 . S
C963 H971 0.929 . S
C964 C963 1.383 . S
C964 C965 1.377 . S
C965 H949 0.930 . S
C965 C964 1.377 . S
C965 C966 1.379 . S
C966 H950 0.931 . S
C966 C960 1.383 . S
C966 C965 1.379 . S
H967 C961 0.959 . S
H968 C961 0.961 . S
H969 C961 0.960 . S
H970 C962 0.930 . S
H971 C963 0.929 . S
H972 C980 0.929 . S
H973 C982 0.930 . S
H974 C984 0.930 . S
H975 C987 0.929 . S
H976 C990 0.930 . S
H977 C992 0.960 . S
H978 C992 0.960 . S
H979 C992 0.960 . S
C980 H972 0.929 . S
C980 C981 1.377 . S
C980 C982 1.384 . S
C981 C980 1.377 . S
C981 C987 1.390 . S
C982 H973 0.930 . S
C982 C980 1.384 . S
C982 C983 1.372 . S
C983 C982 1.372 . S
C983 C984 1.400 . S
C983 C988 1.490 . S
C984 H974 0.930 . S
C984 C983 1.400 . S
C984 C987 1.386 . S
H985 C1001 0.930 . S
H986 C1002 0.931 . S
C987 H975 0.929 . S
C987 C981 1.390 . S
C987 C984 1.386 . S
C988 C983 1.490 . S
C988 C990 1.395 . S
C988 C991 1.403 . S
H989 C995 0.930 . S
C990 H976 0.930 . S
C990 C988 1.395 . S
C990 C993 1.403 . S
C991 C988 1.403 . S
C991 C992 1.524 . S
C991 C995 1.400 . S
C992 H977 0.960 . S
C992 H978 0.960 . S
C992 H979 0.960 . S
C992 C991 1.524 . S
C993 C990 1.403 . S
C993 C994 1.392 . S
C993 C997 1.495 . S
C994 C993 1.392 . S
C994 C995 1.385 . S
C994 C996 1.478 . S
C995 H989 0.930 . S
C995 C991 1.400 . S
C995 C994 1.385 . S
C996 C994 1.478 . S
C996 C998 1.381 . S
C996 C1002 1.383 . S
C997 C993 1.495 . S
C997 H1003 0.959 . S
C997 H1004 0.961 . S
C997 H1005 0.960 . S
C998 C996 1.381 . S
C998 C999 1.394 . S
C998 H1006 0.930 . S
C999 C998 1.394 . S
C999 C1000 1.383 . S
C999 H1007 0.929 . S
C1000 C999 1.383 . S
C1000 C1001 1.377 . S
C1001 H985 0.930 . S
C1001 C1000 1.377 . S
C1001 C1002 1.379 . S
C1002 H986 0.931 . S
C1002 C996 1.383 . S
C1002 C1001 1.379 . S
H1003 C997 0.959 . S
H1004 C997 0.961 . S
H1005 C997 0.960 . S
H1006 C998 0.930 . S
H1007 C999 0.929 . S
H1008 C1016 0.929 . S
H1009 C1018 0.930 . S
H1010 C1020 0.930 . S
H1011 C1023 0.929 . S
H1012 C1026 0.930 . S
H1013 C1028 0.960 . S
H1014 C1028 0.960 . S
H1015 C1028 0.960 . S
C1016 H1008 0.929 . S
C1016 C1017 1.377 . S
C1016 C1018 1.384 . S
C1017 C1016 1.377 . S
C1017 C1023 1.390 . S
C1018 H1009 0.930 . S
C1018 C1016 1.384 . S
C1018 C1019 1.372 . S
C1019 C1018 1.372 . S
C1019 C1020 1.400 . S
C1019 C1024 1.490 . S
C1020 H1010 0.930 . S
C1020 C1019 1.400 . S
C1020 C1023 1.386 . S
H1021 C1037 0.878 1_554 S
H1022 C1038 0.966 . S
C1023 H1011 0.929 . S
C1023 C1017 1.390 . S
C1023 C1020 1.386 . S
C1024 C1019 1.490 . S
C1024 C1026 1.395 . S
C1024 C1027 1.403 . S
H1025 C1031 0.930 . S
C1026 H1012 0.930 . S
C1026 C1024 1.395 . S
C1026 C1029 1.403 . S
C1027 C1024 1.403 . S
C1027 C1028 1.524 . S
C1027 C1031 1.400 . S
C1028 H1013 0.960 . S
C1028 H1014 0.960 . S
C1028 H1015 0.960 . S
C1028 C1027 1.524 . S
C1029 C1026 1.403 . S
C1029 C1030 1.392 . S
C1029 C1033 1.495 . S
C1030 C1029 1.392 . S
C1030 C1031 1.385 . S
C1030 C1032 1.478 . S
C1031 H1025 0.930 . S
C1031 C1027 1.400 . S
C1031 C1030 1.385 . S
C1032 C1030 1.478 . S
C1032 C1034 1.381 . S
C1032 C1038 1.383 . S
C1033 C1029 1.495 . S
C1033 H1039 0.959 . S
C1033 H1040 0.961 . S
C1033 H1041 0.960 . S
C1034 C1032 1.381 . S
C1034 C1035 1.394 . S
C1034 H1042 0.930 . S
C1035 C1034 1.394 . S
C1035 C1036 1.383 . S
C1035 H1043 0.929 . S
C1036 C1035 1.383 . S
C1036 C1037 1.406 . S
C1037 H1021 0.878 1_556 S
C1037 C1036 1.406 . S
C1037 C1038 1.403 . S
C1038 H1022 0.966 . S
C1038 C1032 1.383 . S
C1038 C1037 1.403 . S
H1039 C1033 0.959 . S
H1040 C1033 0.961 . S
H1041 C1033 0.960 . S
H1042 C1034 0.930 . S
H1043 C1035 0.929 . S
H1044 C1052 0.929 . S
H1045 C1054 0.930 . S
H1046 C1056 0.930 . S
H1047 C1059 0.929 . S
H1048 C1062 0.930 . S
H1049 C1064 0.960 . S
H1050 C1064 0.960 . S
H1051 C1064 0.960 . S
C1052 H1044 0.929 . S
C1052 C1053 1.377 . S
C1052 C1054 1.384 . S
C1053 C1052 1.377 . S
C1053 C1059 1.390 . S
C1054 H1045 0.930 . S
C1054 C1052 1.384 . S
C1054 C1055 1.372 . S
C1055 C1054 1.372 . S
C1055 C1056 1.400 . S
C1055 C1060 1.490 . S
C1056 H1046 0.930 . S
C1056 C1055 1.400 . S
C1056 C1059 1.386 . S
H1057 C1073 0.930 . S
H1058 C1074 0.931 . S
C1059 H1047 0.929 . S
C1059 C1053 1.390 . S
C1059 C1056 1.386 . S
C1060 C1055 1.490 . S
C1060 C1062 1.395 . S
C1060 C1063 1.403 . S
H1061 C1067 0.930 . S
C1062 H1048 0.930 . S
C1062 C1060 1.395 . S
C1062 C1065 1.403 . S
C1063 C1060 1.403 . S
C1063 C1064 1.524 . S
C1063 C1067 1.400 . S
C1064 H1049 0.960 . S
C1064 H1050 0.960 . S
C1064 H1051 0.960 . S
C1064 C1063 1.524 . S
C1065 C1062 1.403 . S
C1065 C1066 1.392 . S
C1065 C1069 1.495 . S
C1066 C1065 1.392 . S
C1066 C1067 1.385 . S
C1066 C1068 1.478 . S
C1067 H1061 0.930 . S
C1067 C1063 1.400 . S
C1067 C1066 1.385 . S
C1068 C1066 1.478 . S
C1068 C1070 1.381 . S
C1068 C1074 1.383 . S
C1069 C1065 1.495 . S
C1069 H1075 0.959 . S
C1069 H1076 0.961 . S
C1069 H1077 0.960 . S
C1070 C1068 1.381 . S
C1070 C1071 1.394 . S
C1070 H1078 0.930 . S
C1071 C1070 1.394 . S
C1071 C1072 1.383 . S
C1071 H1079 0.929 . S
C1072 C1071 1.383 . S
C1072 C1073 1.377 . S
C1073 H1057 0.930 . S
C1073 C1072 1.377 . S
C1073 C1074 1.379 . S
C1074 H1058 0.931 . S
C1074 C1068 1.383 . S
C1074 C1073 1.379 . S
H1075 C1069 0.959 . S
H1076 C1069 0.961 . S
H1077 C1069 0.960 . S
H1078 C1070 0.930 . S
H1079 C1071 0.929 . S
H1080 C1088 0.929 . S
H1081 C1090 0.930 . S
H1082 C1092 0.930 . S
H1083 C1095 0.929 . S
H1084 C1098 0.930 . S
H1085 C1100 0.960 . S
H1086 C1100 0.960 . S
H1087 C1100 0.960 . S
C1088 H1080 0.929 . S
C1088 C1089 1.377 . S
C1088 C1090 1.384 . S
C1089 C1088 1.377 . S
C1089 C1095 1.390 . S
C1090 H1081 0.930 . S
C1090 C1088 1.384 . S
C1090 C1091 1.372 . S
C1091 C1090 1.372 . S
C1091 C1092 1.400 . S
C1091 C1096 1.490 . S
C1092 H1082 0.930 . S
C1092 C1091 1.400 . S
C1092 C1095 1.386 . S
H1093 C1109 0.930 . S
H1094 C1110 0.931 . S
C1095 H1083 0.929 . S
C1095 C1089 1.390 . S
C1095 C1092 1.386 . S
C1096 C1091 1.490 . S
C1096 C1098 1.395 . S
C1096 C1099 1.403 . S
H1097 C1103 0.930 . S
C1098 H1084 0.930 . S
C1098 C1096 1.395 . S
C1098 C1101 1.403 . S
C1099 C1096 1.403 . S
C1099 C1100 1.524 . S
C1099 C1103 1.400 . S
C1100 H1085 0.960 . S
C1100 H1086 0.960 . S
C1100 H1087 0.960 . S
C1100 C1099 1.524 . S
C1101 C1098 1.403 . S
C1101 C1102 1.392 . S
C1101 C1105 1.495 . S
C1102 C1101 1.392 . S
C1102 C1103 1.385 . S
C1102 C1104 1.478 . S
C1103 H1097 0.930 . S
C1103 C1099 1.400 . S
C1103 C1102 1.385 . S
C1104 C1102 1.478 . S
C1104 C1106 1.381 . S
C1104 C1110 1.383 . S
C1105 C1101 1.495 . S
C1105 H1111 0.959 . S
C1105 H1112 0.961 . S
C1105 H1113 0.960 . S
C1106 C1104 1.381 . S
C1106 C1107 1.394 . S
C1106 H1114 0.930 . S
C1107 C1106 1.394 . S
C1107 C1108 1.383 . S
C1107 H1115 0.929 . S
C1108 C1107 1.383 . S
C1108 C1109 1.377 . S
C1109 H1093 0.930 . S
C1109 C1108 1.377 . S
C1109 C1110 1.379 . S
C1110 H1094 0.931 . S
C1110 C1104 1.383 . S
C1110 C1109 1.379 . S
H1111 C1105 0.959 . S
H1112 C1105 0.961 . S
H1113 C1105 0.960 . S
H1114 C1106 0.930 . S
H1115 C1107 0.929 . S
H1116 C1124 0.929 . S
H1117 C1126 0.930 . S
H1118 C1128 0.930 . S
H1119 C1131 0.929 . S
H1120 C1134 0.930 . S
H1121 C1136 0.960 . S
H1122 C1136 0.960 . S
H1123 C1136 0.960 . S
C1124 H1116 0.929 . S
C1124 C1125 1.377 . S
C1124 C1126 1.384 . S
C1125 C1124 1.377 . S
C1125 C1131 1.390 . S
C1126 H1117 0.930 . S
C1126 C1124 1.384 . S
C1126 C1127 1.372 . S
C1127 C1126 1.372 . S
C1127 C1128 1.400 . S
C1127 C1132 1.490 . S
C1128 H1118 0.930 . S
C1128 C1127 1.400 . S
C1128 C1131 1.386 . S
H1129 C1145 0.930 . S
H1130 C1146 0.931 . S
C1131 H1119 0.929 . S
C1131 C1125 1.390 . S
C1131 C1128 1.386 . S
C1132 C1127 1.490 . S
C1132 C1134 1.395 . S
C1132 C1135 1.403 . S
H1133 C1139 0.930 . S
C1134 H1120 0.930 . S
C1134 C1132 1.395 . S
C1134 C1137 1.403 . S
C1135 C1132 1.403 . S
C1135 C1136 1.524 . S
C1135 C1139 1.400 . S
C1136 H1121 0.960 . S
C1136 H1122 0.960 . S
C1136 H1123 0.960 . S
C1136 C1135 1.524 . S
C1137 C1134 1.403 . S
C1137 C1138 1.392 . S
C1137 C1141 1.495 1_556 S
C1138 C1137 1.392 . S
C1138 C1139 1.385 . S
C1138 C1140 1.478 . S
C1139 H1133 0.930 . S
C1139 C1135 1.400 . S
C1139 C1138 1.385 . S
C1140 C1138 1.478 . S
C1140 C1142 1.381 . S
C1140 C1146 1.383 . S
C1141 C1137 1.495 1_554 S
C1141 H1147 0.959 . S
C1141 H1148 0.961 . S
C1141 H1149 0.958 1_554 S
C1142 C1140 1.381 . S
C1142 C1143 1.394 . S
C1142 H1150 0.930 . S
C1143 C1142 1.394 . S
C1143 C1144 1.383 . S
C1143 H1151 0.929 . S
C1144 C1143 1.383 . S
C1144 C1145 1.377 . S
C1145 H1129 0.930 . S
C1145 C1144 1.377 . S
C1145 C1146 1.379 . S
C1146 H1130 0.931 . S
C1146 C1140 1.383 . S
C1146 C1145 1.379 . S
H1147 C1141 0.959 . S
H1148 C1141 0.961 . S
H1149 C1141 0.958 1_556 S
H1150 C1142 0.930 . S
H1151 C1143 0.929 . S
H1152 C1160 0.929 . S
H1153 C1162 0.930 . S
H1154 C1164 0.930 . S
H1155 C1167 0.929 . S
H1156 C1170 0.930 . S
H1157 C1172 0.960 . S
H1158 C1172 0.960 . S
H1159 C1172 0.960 . S
C1160 H1152 0.929 . S
C1160 C1161 1.377 . S
C1160 C1162 1.384 . S
C1161 C1160 1.377 . S
C1161 C1167 1.390 . S
C1162 H1153 0.930 . S
C1162 C1160 1.384 . S
C1162 C1163 1.372 . S
C1163 C1162 1.372 . S
C1163 C1164 1.400 . S
C1163 C1168 1.490 . S
C1164 H1154 0.930 . S
C1164 C1163 1.400 . S
C1164 C1167 1.386 . S
H1165 C1181 0.930 . S
H1166 C1182 0.931 . S
C1167 H1155 0.929 . S
C1167 C1161 1.390 . S
C1167 C1164 1.386 . S
C1168 C1163 1.490 . S
C1168 C1170 1.395 . S
C1168 C1171 1.403 . S
H1169 C1175 0.930 . S
C1170 H1156 0.930 . S
C1170 C1168 1.395 . S
C1170 C1173 1.403 . S
C1171 C1168 1.403 . S
C1171 C1172 1.524 . S
C1171 C1175 1.400 . S
C1172 H1157 0.960 . S
C1172 H1158 0.960 . S
C1172 H1159 0.960 . S
C1172 C1171 1.524 . S
C1173 C1170 1.403 . S
C1173 C1174 1.392 . S
C1173 C1177 1.495 . S
C1174 C1173 1.392 . S
C1174 C1175 1.385 . S
C1174 C1176 1.478 . S
C1175 H1169 0.930 . S
C1175 C1171 1.400 . S
C1175 C1174 1.385 . S
C1176 C1174 1.478 . S
C1176 C1178 1.381 . S
C1176 C1182 1.383 . S
C1177 C1173 1.495 . S
C1177 H1183 0.959 . S
C1177 H1184 0.961 . S
C1177 H1185 0.960 . S
C1178 C1176 1.381 . S
C1178 C1179 1.394 . S
C1178 H1186 0.930 . S
C1179 C1178 1.394 . S
C1179 C1180 1.383 . S
C1179 H1187 0.929 . S
C1180 C1179 1.383 . S
C1180 C1181 1.377 . S
C1181 H1165 0.930 . S
C1181 C1180 1.377 . S
C1181 C1182 1.379 . S
C1182 H1166 0.931 . S
C1182 C1176 1.383 . S
C1182 C1181 1.379 . S
H1183 C1177 0.959 . S
H1184 C1177 0.961 . S
H1185 C1177 0.960 . S
H1186 C1178 0.930 . S
H1187 C1179 0.929 . S
H1188 C1196 0.929 . S
H1189 C1198 0.930 . S
H1190 C1200 0.930 . S
H1191 C1203 0.929 . S
H1192 C1206 0.930 . S
H1193 C1208 0.960 . S
H1194 C1208 0.960 . S
H1195 C1208 0.960 . S
C1196 H1188 0.929 . S
C1196 C1197 1.377 . S
C1196 C1198 1.384 . S
C1197 C1196 1.377 . S
C1197 C1203 1.390 . S
C1198 H1189 0.930 . S
C1198 C1196 1.384 . S
C1198 C1199 1.372 . S
C1199 C1198 1.372 . S
C1199 C1200 1.400 . S
C1199 C1204 1.490 . S
C1200 H1190 0.930 . S
C1200 C1199 1.400 . S
C1200 C1203 1.386 . S
H1201 C1217 0.930 . S
H1202 C1218 0.931 . S
C1203 H1191 0.929 . S
C1203 C1197 1.390 . S
C1203 C1200 1.386 . S
C1204 C1199 1.490 . S
C1204 C1206 1.395 . S
C1204 C1207 1.403 . S
H1205 C1211 0.930 . S
C1206 H1192 0.930 . S
C1206 C1204 1.395 . S
C1206 C1209 1.403 . S
C1207 C1204 1.403 . S
C1207 C1208 1.524 . S
C1207 C1211 1.400 . S
C1208 H1193 0.960 . S
C1208 H1194 0.960 . S
C1208 H1195 0.960 . S
C1208 C1207 1.524 . S
C1209 C1206 1.403 . S
C1209 C1210 1.392 . S
C1209 C1213 1.495 . S
C1210 C1209 1.392 . S
C1210 C1211 1.385 . S
C1210 C1212 1.478 . S
C1211 H1205 0.930 . S
C1211 C1207 1.400 . S
C1211 C1210 1.385 . S
C1212 C1210 1.478 . S
C1212 C1214 1.381 . S
C1212 C1218 1.383 . S
C1213 C1209 1.495 . S
C1213 H1219 0.959 . S
C1213 H1220 0.961 . S
C1213 H1221 0.960 . S
C1214 C1212 1.381 . S
C1214 C1215 1.394 . S
C1214 H1222 0.930 . S
C1215 C1214 1.394 . S
C1215 C1216 1.383 . S
C1215 H1223 0.929 . S
C1216 C1215 1.383 . S
C1216 C1217 1.377 . S
C1217 H1201 0.930 . S
C1217 C1216 1.377 . S
C1217 C1218 1.379 . S
C1218 H1202 0.931 . S
C1218 C1212 1.383 . S
C1218 C1217 1.379 . S
H1219 C1213 0.959 . S
H1220 C1213 0.961 . S
H1221 C1213 0.960 . S
H1222 C1214 0.930 . S
H1223 C1215 0.929 . S
H1224 C1232 0.929 . S
H1225 C1234 0.930 . S
H1226 C1236 0.930 . S
H1227 C1239 0.929 . S
H1228 C1242 0.930 . S
H1229 C1244 0.960 . S
H1230 C1244 0.960 . S
H1231 C1244 0.960 . S
C1232 H1224 0.929 . S
C1232 C1233 1.377 . S
C1232 C1234 1.384 . S
C1233 C1232 1.377 . S
C1233 C1239 1.390 . S
C1234 H1225 0.930 . S
C1234 C1232 1.384 . S
C1234 C1235 1.372 . S
C1235 C1234 1.372 . S
C1235 C1236 1.400 . S
C1235 C1240 1.490 . S
C1236 H1226 0.930 . S
C1236 C1235 1.400 . S
C1236 C1239 1.386 . S
H1237 C1253 0.930 . S
H1238 C1254 0.931 . S
C1239 H1227 0.929 . S
C1239 C1233 1.390 . S
C1239 C1236 1.386 . S
C1240 C1235 1.490 . S
C1240 C1242 1.395 . S
C1240 C1243 1.403 . S
H1241 C1247 0.930 . S
C1242 H1228 0.930 . S
C1242 C1240 1.395 . S
C1242 C1245 1.403 . S
C1243 C1240 1.403 . S
C1243 C1244 1.524 . S
C1243 C1247 1.400 . S
C1244 H1229 0.960 . S
C1244 H1230 0.960 . S
C1244 H1231 0.960 . S
C1244 C1243 1.524 . S
C1245 C1242 1.403 . S
C1245 C1246 1.392 . S
C1245 C1249 1.495 . S
C1246 C1245 1.392 . S
C1246 C1247 1.385 . S
C1246 C1248 1.478 . S
C1247 H1241 0.930 . S
C1247 C1243 1.400 . S
C1247 C1246 1.385 . S
C1248 C1246 1.478 . S
C1248 C1250 1.381 . S
C1248 C1254 1.383 . S
C1249 C1245 1.495 . S
C1249 H1255 0.959 . S
C1249 H1256 0.961 . S
C1249 H1257 0.960 . S
C1250 C1248 1.381 . S
C1250 C1251 1.394 . S
C1250 H1258 0.930 . S
C1251 C1250 1.394 . S
C1251 C1252 1.383 . S
C1251 H1259 0.929 . S
C1252 C1251 1.383 . S
C1252 C1253 1.377 . S
C1253 H1237 0.930 . S
C1253 C1252 1.377 . S
C1253 C1254 1.379 . S
C1254 H1238 0.931 . S
C1254 C1248 1.383 . S
C1254 C1253 1.379 . S
H1255 C1249 0.959 . S
H1256 C1249 0.961 . S
H1257 C1249 0.960 . S
H1258 C1250 0.930 . S
H1259 C1251 0.929 . S
H1260 C1268 0.929 . S
H1261 C1270 0.930 . S
H1262 C1272 0.930 . S
H1263 C1275 0.929 . S
H1264 C1278 0.969 . S
H1265 C1280 0.960 . S
H1266 C1280 0.960 . S
H1267 C1280 0.960 . S
C1268 H1260 0.929 . S
C1268 C1269 1.377 . S
C1268 C1270 1.384 . S
C1269 C1268 1.377 . S
C1269 C1275 1.390 . S
C1270 H1261 0.930 . S
C1270 C1268 1.384 . S
C1270 C1271 1.372 . S
C1271 C1270 1.372 . S
C1271 C1272 1.400 . S
C1271 C1276 1.490 1_655 S
C1272 H1262 0.930 . S
C1272 C1271 1.400 . S
C1272 C1275 1.386 . S
H1273 C1289 0.930 . S
H1274 C1290 0.931 . S
C1275 H1263 0.929 . S
C1275 C1269 1.390 . S
C1275 C1272 1.386 . S
C1276 C1271 1.490 1_455 S
C1276 C1278 1.395 . S
C1276 C1279 1.403 . S
H1277 C1283 0.930 . S
C1278 H1264 0.969 . S
C1278 C1276 1.395 . S
C1278 C1281 1.403 . S
C1279 C1276 1.403 . S
C1279 C1280 1.524 . S
C1279 C1283 1.400 . S
C1280 H1265 0.960 . S
C1280 H1266 0.960 . S
C1280 H1267 0.960 . S
C1280 C1279 1.524 . S
C1281 C1278 1.403 . S
C1281 C1282 1.392 . S
C1281 C1285 1.495 . S
C1282 C1281 1.392 . S
C1282 C1283 1.385 . S
C1282 C1284 1.478 . S
C1283 H1277 0.930 . S
C1283 C1279 1.400 . S
C1283 C1282 1.385 . S
C1284 C1282 1.478 . S
C1284 C1286 1.381 . S
C1284 C1290 1.383 . S
C1285 C1281 1.495 . S
C1285 H1291 0.959 . S
C1285 H1292 0.961 . S
C1285 H1293 0.960 . S
C1286 C1284 1.381 . S
C1286 C1287 1.394 . S
C1286 H1294 0.930 . S
C1287 C1286 1.394 . S
C1287 C1288 1.383 . S
C1287 H1295 0.929 . S
C1288 C1287 1.383 . S
C1288 C1289 1.377 . S
C1289 H1273 0.930 . S
C1289 C1288 1.377 . S
C1289 C1290 1.379 . S
C1290 H1274 0.931 . S
C1290 C1284 1.383 . S
C1290 C1289 1.379 . S
H1291 C1285 0.959 . S
H1292 C1285 0.961 . S
H1293 C1285 0.960 . S
H1294 C1286 0.930 . S
H1295 C1287 0.929 . S
H1296 C1304 0.929 . S
H1297 C1306 0.930 . S
H1298 C1308 0.930 . S
H1299 C1311 0.929 . S
H1300 C1314 0.930 . S
H1301 C1316 0.960 . S
H1302 C1316 0.960 . S
H1303 C1316 0.960 . S
C1304 H1296 0.929 . S
C1304 C1305 1.377 . S
C1304 C1306 1.384 . S
C1305 C1304 1.377 . S
C1305 C1311 1.390 . S
C1306 H1297 0.930 . S
C1306 C1304 1.384 . S
C1306 C1307 1.372 . S
C1307 C1306 1.372 . S
C1307 C1308 1.400 . S
C1307 C1312 1.490 . S
C1308 H1298 0.930 . S
C1308 C1307 1.400 . S
C1308 C1311 1.386 . S
H1309 C1325 0.930 . S
H1310 C1326 0.931 . S
C1311 H1299 0.929 . S
C1311 C1305 1.390 . S
C1311 C1308 1.386 . S
C1312 C1307 1.490 . S
C1312 C1314 1.395 . S
C1312 C1315 1.403 . S
H1313 C1319 0.930 . S
C1314 H1300 0.930 . S
C1314 C1312 1.395 . S
C1314 C1317 1.403 . S
C1315 C1312 1.403 . S
C1315 C1316 1.524 . S
C1315 C1319 1.400 . S
C1316 H1301 0.960 . S
C1316 H1302 0.960 . S
C1316 H1303 0.960 . S
C1316 C1315 1.524 . S
C1317 C1314 1.403 . S
C1317 C1318 1.392 . S
C1317 C1321 1.495 . S
C1318 C1317 1.392 . S
C1318 C1319 1.385 . S
C1318 C1320 1.478 . S
C1319 H1313 0.930 . S
C1319 C1315 1.400 . S
C1319 C1318 1.385 . S
C1320 C1318 1.478 . S
C1320 C1322 1.381 . S
C1320 C1326 1.383 . S
C1321 C1317 1.495 . S
C1321 H1327 0.959 . S
C1321 H1328 0.961 . S
C1321 H1329 0.960 . S
C1322 C1320 1.381 . S
C1322 C1323 1.394 . S
C1322 H1330 0.930 . S
C1323 C1322 1.394 . S
C1323 C1324 1.383 . S
C1323 H1331 0.929 . S
C1324 C1323 1.383 . S
C1324 C1325 1.377 . S
C1325 H1309 0.930 . S
C1325 C1324 1.377 . S
C1325 C1326 1.379 . S
C1326 H1310 0.931 . S
C1326 C1320 1.383 . S
C1326 C1325 1.379 . S
H1327 C1321 0.959 . S
H1328 C1321 0.961 . S
H1329 C1321 0.960 . S
H1330 C1322 0.930 . S
H1331 C1323 0.929 . S
H1332 C1340 0.929 . S
H1333 C1342 0.930 . S
H1334 C1344 0.930 . S
H1335 C1347 0.929 . S
H1336 C1350 0.930 . S
H1337 C1352 0.960 . S
H1338 C1352 0.960 . S
H1339 C1352 0.960 . S
C1340 H1332 0.929 . S
C1340 C1341 1.377 . S
C1340 C1342 1.384 . S
C1341 C1340 1.377 . S
C1341 C1347 1.390 . S
C1342 H1333 0.930 . S
C1342 C1340 1.384 . S
C1342 C1343 1.372 . S
C1343 C1342 1.372 . S
C1343 C1344 1.400 . S
C1343 C1348 1.490 1_545 S
C1344 H1334 0.930 . S
C1344 C1343 1.400 . S
C1344 C1347 1.386 . S
H1345 C1361 0.930 . S
H1346 C1362 0.931 . S
C1347 H1335 0.929 . S
C1347 C1341 1.390 . S
C1347 C1344 1.386 . S
C1348 C1343 1.490 1_565 S
C1348 C1350 1.395 . S
C1348 C1351 1.403 . S
H1349 C1355 0.930 . S
C1350 H1336 0.930 . S
C1350 C1348 1.395 . S
C1350 C1353 1.403 . S
C1351 C1348 1.403 . S
C1351 C1352 1.524 . S
C1351 C1355 1.400 . S
C1352 H1337 0.960 . S
C1352 H1338 0.960 . S
C1352 H1339 0.960 . S
C1352 C1351 1.524 . S
C1353 C1350 1.403 . S
C1353 C1354 1.392 . S
C1353 C1357 1.495 . S
C1354 C1353 1.392 . S
C1354 C1355 1.385 . S
C1354 C1356 1.478 . S
C1355 H1349 0.930 . S
C1355 C1351 1.400 . S
C1355 C1354 1.385 . S
C1356 C1354 1.478 . S
C1356 C1358 1.381 . S
C1356 C1362 1.383 . S
C1357 C1353 1.495 . S
C1357 H1363 0.959 . S
C1357 H1364 0.961 . S
C1357 H1365 0.960 . S
C1358 C1356 1.381 . S
C1358 C1359 1.394 . S
C1358 H1366 0.930 . S
C1359 C1358 1.394 . S
C1359 C1360 1.383 . S
C1359 H1367 0.929 . S
C1360 C1359 1.383 . S
C1360 C1361 1.377 . S
C1361 H1345 0.930 . S
C1361 C1360 1.377 . S
C1361 C1362 1.379 . S
C1362 H1346 0.931 . S
C1362 C1356 1.383 . S
C1362 C1361 1.379 . S
H1363 C1357 0.959 . S
H1364 C1357 0.961 . S
H1365 C1357 0.960 . S
H1366 C1358 0.930 . S
H1367 C1359 0.929 . S
H1368 C1376 0.929 . S
H1369 C1378 0.930 . S
H1370 C1380 0.930 . S
H1371 C1383 0.929 . S
H1372 C1386 0.930 . S
H1373 C1388 0.960 . S
H1374 C1388 0.960 . S
H1375 C1388 0.960 . S
C1376 H1368 0.929 . S
C1376 C1377 1.377 . S
C1376 C1378 1.384 . S
C1377 C1376 1.377 . S
C1377 C1383 1.390 . S
C1378 H1369 0.930 . S
C1378 C1376 1.384 . S
C1378 C1379 1.372 . S
C1379 C1378 1.372 . S
C1379 C1380 1.400 . S
C1379 C1384 1.490 . S
C1380 H1370 0.930 . S
C1380 C1379 1.400 . S
C1380 C1383 1.386 . S
H1381 C1397 0.930 . S
H1382 C1398 0.931 . S
C1383 H1371 0.929 . S
C1383 C1377 1.390 . S
C1383 C1380 1.386 . S
C1384 C1379 1.490 . S
C1384 C1386 1.395 . S
C1384 C1387 1.403 . S
H1385 C1391 0.930 . S
C1386 H1372 0.930 . S
C1386 C1384 1.395 . S
C1386 C1389 1.403 . S
C1387 C1384 1.403 . S
C1387 C1388 1.524 . S
C1387 C1391 1.400 . S
C1388 H1373 0.960 . S
C1388 H1374 0.960 . S
C1388 H1375 0.960 . S
C1388 C1387 1.524 . S
C1389 C1386 1.403 . S
C1389 C1390 1.392 . S
C1389 C1393 1.495 . S
C1390 C1389 1.392 . S
C1390 C1391 1.385 . S
C1390 C1392 1.478 . S
C1391 H1385 0.930 . S
C1391 C1387 1.400 . S
C1391 C1390 1.385 . S
C1392 C1390 1.478 . S
C1392 C1394 1.381 . S
C1392 C1398 1.383 . S
C1393 C1389 1.495 . S
C1393 H1399 0.959 . S
C1393 H1400 0.961 . S
C1393 H1401 0.960 . S
C1394 C1392 1.381 . S
C1394 C1395 1.394 . S
C1394 H1402 0.930 . S
C1395 C1394 1.394 . S
C1395 C1396 1.383 . S
C1395 H1403 0.929 . S
C1396 C1395 1.383 . S
C1396 C1397 1.377 . S
C1397 H1381 0.930 . S
C1397 C1396 1.377 . S
C1397 C1398 1.379 . S
C1398 H1382 0.931 . S
C1398 C1392 1.383 . S
C1398 C1397 1.379 . S
H1399 C1393 0.959 . S
H1400 C1393 0.961 . S
H1401 C1393 0.960 . S
H1402 C1394 0.930 . S
H1403 C1395 0.929 . S
H1404 C1412 0.929 . S
H1405 C1414 0.930 . S
H1406 C1416 0.930 . S
H1407 C1419 0.929 . S
H1408 C1422 0.930 . S
H1409 C1424 0.960 . S
H1410 C1424 0.960 . S
H1411 C1424 0.960 . S
C1412 H1404 0.929 . S
C1412 C1413 1.377 . S
C1412 C1414 1.384 . S
C1413 C1412 1.377 . S
C1413 C1419 1.390 . S
C1414 H1405 0.930 . S
C1414 C1412 1.384 . S
C1414 C1415 1.372 . S
C1415 C1414 1.372 . S
C1415 C1416 1.400 . S
C1415 C1420 1.490 . S
C1416 H1406 0.930 . S
C1416 C1415 1.400 . S
C1416 C1419 1.386 . S
H1417 C1433 0.930 . S
H1418 C1434 0.931 . S
C1419 H1407 0.929 . S
C1419 C1413 1.390 . S
C1419 C1416 1.386 . S
C1420 C1415 1.490 . S
C1420 C1422 1.395 . S
C1420 C1423 1.403 . S
H1421 C1427 0.930 . S
C1422 H1408 0.930 . S
C1422 C1420 1.395 . S
C1422 C1425 1.403 . S
C1423 C1420 1.403 . S
C1423 C1424 1.524 . S
C1423 C1427 1.400 . S
C1424 H1409 0.960 . S
C1424 H1410 0.960 . S
C1424 H1411 0.960 . S
C1424 C1423 1.524 . S
C1425 C1422 1.403 . S
C1425 C1426 1.392 . S
C1425 C1429 1.495 . S
C1426 C1425 1.392 . S
C1426 C1427 1.385 . S
C1426 C1428 1.478 . S
C1427 H1421 0.930 . S
C1427 C1423 1.400 . S
C1427 C1426 1.385 . S
C1428 C1426 1.478 . S
C1428 C1430 1.381 . S
C1428 C1434 1.383 . S
C1429 C1425 1.495 . S
C1429 H1435 0.959 . S
C1429 H1436 0.961 . S
C1429 H1437 0.960 . S
C1430 C1428 1.381 . S
C1430 C1431 1.394 . S
C1430 H1438 0.930 . S
C1431 C1430 1.394 . S
C1431 C1432 1.383 . S
C1431 H1439 0.929 . S
C1432 C1431 1.383 . S
C1432 C1433 1.377 . S
C1433 H1417 0.930 . S
C1433 C1432 1.377 . S
C1433 C1434 1.379 . S
C1434 H1418 0.931 . S
C1434 C1428 1.383 . S
C1434 C1433 1.379 . S
H1435 C1429 0.959 . S
H1436 C1429 0.961 . S
H1437 C1429 0.960 . S
H1438 C1430 0.930 . S
H1439 C1431 0.929 . S
H1440 C1448 0.929 . S
H1441 C1450 0.930 . S
H1442 C1452 0.930 . S
H1443 C1455 0.929 . S
H1444 C1458 0.930 . S
H1445 C1460 0.960 . S
H1446 C1460 0.960 . S
H1447 C1460 0.960 . S
C1448 H1440 0.929 . S
C1448 C1449 1.377 . S
C1448 C1450 1.384 . S
C1449 C1448 1.377 . S
C1449 C1455 1.390 . S
C1450 H1441 0.930 . S
C1450 C1448 1.384 . S
C1450 C1451 1.372 . S
C1451 C1450 1.372 . S
C1451 C1452 1.400 . S
C1451 C1456 1.490 . S
C1452 H1442 0.930 . S
C1452 C1451 1.400 . S
C1452 C1455 1.386 . S
H1453 C1469 0.930 . S
H1454 C1470 0.931 . S
C1455 H1443 0.929 . S
C1455 C1449 1.390 . S
C1455 C1452 1.386 . S
C1456 C1451 1.490 . S
C1456 C1458 1.395 . S
C1456 C1459 1.403 . S
H1457 C1463 0.930 . S
C1458 H1444 0.930 . S
C1458 C1456 1.395 . S
C1458 C1461 1.403 . S
C1459 C1456 1.403 . S
C1459 C1460 1.524 . S
C1459 C1463 1.400 . S
C1460 H1445 0.960 . S
C1460 H1446 0.960 . S
C1460 H1447 0.960 . S
C1460 C1459 1.524 . S
C1461 C1458 1.403 . S
C1461 C1462 1.392 . S
C1461 C1465 1.495 . S
C1462 C1461 1.392 . S
C1462 C1463 1.385 . S
C1462 C1464 1.478 . S
C1463 H1457 0.930 . S
C1463 C1459 1.400 . S
C1463 C1462 1.385 . S
C1464 C1462 1.478 . S
C1464 C1466 1.381 . S
C1464 C1470 1.383 . S
C1465 C1461 1.495 . S
C1465 H1471 0.959 . S
C1465 H1472 0.961 . S
C1465 H1473 0.960 . S
C1466 C1464 1.381 . S
C1466 C1467 1.394 . S
C1466 H1474 0.930 . S
C1467 C1466 1.394 . S
C1467 C1468 1.383 . S
C1467 H1475 0.929 . S
C1468 C1467 1.383 . S
C1468 C1469 1.377 . S
C1469 H1453 0.930 . S
C1469 C1468 1.377 . S
C1469 C1470 1.379 . S
C1470 H1454 0.931 . S
C1470 C1464 1.383 . S
C1470 C1469 1.379 . S
H1471 C1465 0.959 . S
H1472 C1465 0.961 . S
H1473 C1465 0.960 . S
H1474 C1466 0.930 . S
H1475 C1467 0.929 . S
H1476 C1484 0.929 . S
H1477 C1486 0.930 . S
H1478 C1488 0.930 . S
H1479 C1491 0.929 . S
H1480 C1494 0.930 . S
H1481 C1496 0.960 . S
H1482 C1496 0.960 . S
H1483 C1496 0.960 . S
C1484 H1476 0.929 . S
C1484 C1485 1.377 . S
C1484 C1486 1.384 . S
C1485 C1484 1.377 . S
C1485 C1491 1.390 . S
C1486 H1477 0.930 . S
C1486 C1484 1.384 . S
C1486 C1487 1.372 . S
C1487 C1486 1.372 . S
C1487 C1488 1.400 . S
C1487 C1492 1.490 . S
C1488 H1478 0.930 . S
C1488 C1487 1.400 . S
C1488 C1491 1.386 . S
H1489 C1505 0.930 . S
H1490 C1506 0.931 . S
C1491 H1479 0.929 . S
C1491 C1485 1.390 . S
C1491 C1488 1.386 . S
C1492 C1487 1.490 . S
C1492 C1494 1.395 . S
C1492 C1495 1.403 . S
H1493 C1499 0.930 . S
C1494 H1480 0.930 . S
C1494 C1492 1.395 . S
C1494 C1497 1.403 . S
C1495 C1492 1.403 . S
C1495 C1496 1.524 . S
C1495 C1499 1.400 . S
C1496 H1481 0.960 . S
C1496 H1482 0.960 . S
C1496 H1483 0.960 . S
C1496 C1495 1.524 . S
C1497 C1494 1.403 . S
C1497 C1498 1.392 . S
C1497 C1501 1.495 . S
C1498 C1497 1.392 . S
C1498 C1499 1.385 . S
C1498 C1500 1.478 . S
C1499 H1493 0.930 . S
C1499 C1495 1.400 . S
C1499 C1498 1.385 . S
C1500 C1498 1.478 . S
C1500 C1502 1.381 . S
C1500 C1506 1.383 . S
C1501 C1497 1.495 . S
C1501 H1507 0.959 . S
C1501 H1508 0.961 . S
C1501 H1509 0.960 . S
C1502 C1500 1.381 . S
C1502 C1503 1.394 . S
C1502 H1510 0.930 . S
C1503 C1502 1.394 . S
C1503 C1504 1.383 . S
C1503 H1511 0.929 . S
C1504 C1503 1.383 . S
C1504 C1505 1.377 . S
C1505 H1489 0.930 . S
C1505 C1504 1.377 . S
C1505 C1506 1.379 . S
C1506 H1490 0.931 . S
C1506 C1500 1.383 . S
C1506 C1505 1.379 . S
H1507 C1501 0.959 . S
H1508 C1501 0.961 . S
H1509 C1501 0.960 . S
H1510 C1502 0.930 . S
H1511 C1503 0.929 . S
H1512 C1520 0.929 . S
H1513 C1522 0.930 . S
H1514 C1524 0.930 . S
H1515 C1527 0.929 . S
H1516 C1530 0.930 . S
H1517 C1532 0.960 . S
H1518 C1532 0.960 . S
H1519 C1532 0.960 . S
C1520 H1512 0.929 . S
C1520 C1521 1.377 . S
C1520 C1522 1.384 . S
C1521 C1520 1.377 . S
C1521 C1527 1.390 . S
C1522 H1513 0.930 . S
C1522 C1520 1.384 . S
C1522 C1523 1.372 . S
C1523 C1522 1.372 . S
C1523 C1524 1.400 . S
C1523 C1528 1.490 . S
C1524 H1514 0.930 . S
C1524 C1523 1.400 . S
C1524 C1527 1.386 . S
H1525 C1541 0.930 . S
H1526 C1542 0.931 . S
C1527 H1515 0.929 . S
C1527 C1521 1.390 . S
C1527 C1524 1.386 . S
C1528 C1523 1.490 . S
C1528 C1530 1.395 . S
C1528 C1531 1.403 . S
H1529 C1535 0.930 . S
C1530 H1516 0.930 . S
C1530 C1528 1.395 . S
C1530 C1533 1.403 . S
C1531 C1528 1.403 . S
C1531 C1532 1.524 . S
C1531 C1535 1.400 . S
C1532 H1517 0.960 . S
C1532 H1518 0.960 . S
C1532 H1519 0.960 . S
C1532 C1531 1.524 . S
C1533 C1530 1.403 . S
C1533 C1534 1.392 . S
C1533 C1537 1.495 . S
C1534 C1533 1.392 . S
C1534 C1535 1.385 . S
C1534 C1536 1.478 . S
C1535 H1529 0.930 . S
C1535 C1531 1.400 . S
C1535 C1534 1.385 . S
C1536 C1534 1.478 . S
C1536 C1538 1.381 . S
C1536 C1542 1.383 . S
C1537 C1533 1.495 . S
C1537 H1543 0.959 . S
C1537 H1544 0.961 . S
C1537 H1545 0.960 . S
C1538 C1536 1.381 . S
C1538 C1539 1.394 . S
C1538 H1546 0.930 . S
C1539 C1538 1.394 . S
C1539 C1540 1.383 . S
C1539 H1547 0.929 . S
C1540 C1539 1.383 . S
C1540 C1541 1.377 . S
C1541 H1525 0.930 . S
C1541 C1540 1.377 . S
C1541 C1542 1.379 . S
C1542 H1526 0.931 . S
C1542 C1536 1.383 . S
C1542 C1541 1.379 . S
H1543 C1537 0.959 . S
H1544 C1537 0.961 . S
H1545 C1537 0.960 . S
H1546 C1538 0.930 . S
H1547 C1539 0.929 . S
H1548 C1556 0.929 . S
H1549 C1558 0.930 . S
H1550 C1560 0.930 . S
H1551 C1563 0.929 . S
H1552 C1566 0.930 . S
H1553 C1568 0.960 . S
H1554 C1568 0.960 . S
H1555 C1568 0.960 . S
C1556 H1548 0.929 . S
C1556 C1557 1.377 . S
C1556 C1558 1.384 . S
C1557 C1556 1.377 . S
C1557 C1563 1.390 . S
C1558 H1549 0.930 . S
C1558 C1556 1.384 . S
C1558 C1559 1.372 . S
C1559 C1558 1.372 . S
C1559 C1560 1.400 . S
C1559 C1564 1.490 . S
C1560 H1550 0.930 . S
C1560 C1559 1.400 . S
C1560 C1563 1.386 . S
H1561 C1577 0.930 . S
H1562 C1578 0.931 . S
C1563 H1551 0.929 . S
C1563 C1557 1.390 . S
C1563 C1560 1.386 . S
C1564 C1559 1.490 . S
C1564 C1566 1.395 . S
C1564 C1567 1.403 . S
H1565 C1571 0.930 . S
C1566 H1552 0.930 . S
C1566 C1564 1.395 . S
C1566 C1569 1.403 . S
C1567 C1564 1.403 . S
C1567 C1568 1.524 . S
C1567 C1571 1.400 . S
C1568 H1553 0.960 . S
C1568 H1554 0.960 . S
C1568 H1555 0.960 . S
C1568 C1567 1.524 . S
C1569 C1566 1.403 . S
C1569 C1570 1.392 . S
C1569 C1573 1.495 . S
C1570 C1569 1.392 . S
C1570 C1571 1.385 . S
C1570 C1572 1.478 . S
C1571 H1565 0.930 . S
C1571 C1567 1.400 . S
C1571 C1570 1.385 . S
C1572 C1570 1.478 . S
C1572 C1574 1.381 . S
C1572 C1578 1.383 . S
C1573 C1569 1.495 . S
C1573 H1579 0.959 . S
C1573 H1580 0.961 . S
C1573 H1581 0.960 . S
C1574 C1572 1.381 . S
C1574 C1575 1.394 . S
C1574 H1582 0.930 . S
C1575 C1574 1.394 . S
C1575 C1576 1.383 . S
C1575 H1583 0.929 . S
C1576 C1575 1.383 . S
C1576 C1577 1.377 . S
C1577 H1561 0.930 . S
C1577 C1576 1.377 . S
C1577 C1578 1.379 . S
C1578 H1562 0.931 . S
C1578 C1572 1.383 . S
C1578 C1577 1.379 . S
H1579 C1573 0.959 . S
H1580 C1573 0.961 . S
H1581 C1573 0.960 . S
H1582 C1574 0.930 . S
H1583 C1575 0.929 . S
H1584 C1592 0.929 . S
H1585 C1594 0.930 . S
H1586 C1596 0.930 . S
H1587 C1599 0.929 . S
H1588 C1602 0.930 . S
H1589 C1604 0.960 . S
H1590 C1604 0.960 1_545 S
H1591 C1604 0.960 1_545 S
C1592 H1584 0.929 . S
C1592 C1593 1.377 . S
C1592 C1594 1.384 . S
C1593 C1592 1.377 . S
C1593 C1599 1.390 . S
C1594 H1585 0.930 . S
C1594 C1592 1.384 . S
C1594 C1595 1.372 . S
C1595 C1594 1.372 . S
C1595 C1596 1.400 . S
C1595 C1600 1.490 1_545 S
C1596 H1586 0.930 . S
C1596 C1595 1.400 . S
C1596 C1599 1.386 . S
H1597 C1613 0.930 . S
H1598 C1614 0.931 . S
C1599 H1587 0.929 . S
C1599 C1593 1.390 . S
C1599 C1596 1.386 . S
C1600 C1595 1.490 1_565 S
C1600 C1602 1.395 . S
C1600 C1603 1.403 . S
H1601 C1607 0.930 . S
C1602 H1588 0.930 . S
C1602 C1600 1.395 . S
C1602 C1605 1.403 . S
C1603 C1600 1.403 . S
C1603 C1604 1.524 . S
C1603 C1607 1.400 . S
C1604 H1589 0.960 . S
C1604 H1590 0.960 1_565 S
C1604 H1591 0.960 1_565 S
C1604 C1603 1.524 . S
C1605 C1602 1.403 . S
C1605 C1606 1.392 . S
C1605 C1609 1.495 . S
C1606 C1605 1.392 . S
C1606 C1607 1.385 . S
C1606 C1608 1.478 . S
C1607 H1601 0.930 . S
C1607 C1603 1.400 . S
C1607 C1606 1.385 . S
C1608 C1606 1.478 . S
C1608 C1610 1.381 . S
C1608 C1614 1.383 . S
C1609 C1605 1.495 . S
C1609 H1615 0.959 . S
C1609 H1616 0.961 . S
C1609 H1617 0.960 . S
C1610 C1608 1.381 . S
C1610 C1611 1.394 . S
C1610 H1618 0.930 . S
C1611 C1610 1.394 . S
C1611 C1612 1.383 . S
C1611 H1619 0.929 . S
C1612 C1611 1.383 . S
C1612 C1613 1.377 . S
C1613 H1597 0.930 . S
C1613 C1612 1.377 . S
C1613 C1614 1.379 . S
C1614 H1598 0.931 . S
C1614 C1608 1.383 . S
C1614 C1613 1.379 . S
H1615 C1609 0.959 . S
H1616 C1609 0.961 . S
H1617 C1609 0.960 . S
H1618 C1610 0.930 . S
H1619 C1611 0.929 . S
H1620 C1628 0.929 . S
H1621 C1630 0.930 . S
H1622 C1632 0.930 1_455 S
H1623 C1635 0.929 . S
H1624 C1638 0.930 . S
H1625 C1640 0.960 . S
H1626 C1640 0.960 . S
H1627 C1640 0.960 . S
C1628 H1620 0.929 . S
C1628 C1629 1.377 . S
C1628 C1630 1.384 . S
C1629 C1628 1.377 . S
C1629 C1635 1.390 . S
C1630 H1621 0.930 . S
C1630 C1628 1.384 . S
C1630 C1631 1.431 . S
C1631 C1630 1.431 . S
C1631 C1632 1.398 . S
C1631 C1636 1.436 1_655 S
C1632 H1622 0.930 1_655 S
C1632 C1631 1.398 . S
C1632 C1635 1.386 . S
H1633 C1649 0.930 . S
H1634 C1650 0.931 . S
C1635 H1623 0.929 . S
C1635 C1629 1.390 . S
C1635 C1632 1.386 . S
C1636 C1631 1.436 1_455 S
C1636 C1638 1.395 . S
C1636 C1639 1.403 . S
H1637 C1643 0.930 . S
C1638 H1624 0.930 . S
C1638 C1636 1.395 . S
C1638 C1641 1.403 . S
C1639 C1636 1.403 . S
C1639 C1640 1.524 . S
C1639 C1643 1.400 . S
C1640 H1625 0.960 . S
C1640 H1626 0.960 . S
C1640 H1627 0.960 . S
C1640 C1639 1.524 . S
C1641 C1638 1.403 . S
C1641 C1642 1.392 . S
C1641 C1645 1.495 . S
C1642 C1641 1.392 . S
C1642 C1643 1.385 . S
C1642 C1644 1.478 . S
C1643 H1637 0.930 . S
C1643 C1639 1.400 . S
C1643 C1642 1.385 . S
C1644 C1642 1.478 . S
C1644 C1646 1.381 . S
C1644 C1650 1.383 . S
C1645 C1641 1.495 . S
C1645 H1651 0.959 . S
C1645 H1652 0.961 . S
C1645 H1653 0.960 . S
C1646 C1644 1.381 . S
C1646 C1647 1.394 . S
C1646 H1654 0.930 . S
C1647 C1646 1.394 . S
C1647 C1648 1.383 . S
C1647 H1655 0.929 . S
C1648 C1647 1.383 . S
C1648 C1649 1.377 . S
C1649 H1633 0.930 . S
C1649 C1648 1.377 . S
C1649 C1650 1.379 . S
C1650 H1634 0.931 . S
C1650 C1644 1.383 . S
C1650 C1649 1.379 . S
H1651 C1645 0.959 . S
H1652 C1645 0.961 . S
H1653 C1645 0.960 . S
H1654 C1646 0.930 . S
H1655 C1647 0.929 . S
H1656 C1664 0.929 . S
H1657 C1666 0.930 . S
H1658 C1668 0.930 . S
H1659 C1671 0.929 . S
H1660 C1674 0.930 . S
H1661 C1676 0.960 . S
H1662 C1676 0.960 . S
H1663 C1676 0.960 . S
C1664 H1656 0.929 . S
C1664 C1665 1.377 . S
C1664 C1666 1.384 . S
C1665 C1664 1.377 . S
C1665 C1671 1.390 . S
C1666 H1657 0.930 . S
C1666 C1664 1.384 . S
C1666 C1667 1.372 . S
C1667 C1666 1.372 . S
C1667 C1668 1.400 . S
C1667 C1672 1.490 . S
C1668 H1658 0.930 . S
C1668 C1667 1.400 . S
C1668 C1671 1.386 . S
H1669 C1685 0.930 . S
H1670 C1686 0.931 . S
C1671 H1659 0.929 . S
C1671 C1665 1.390 . S
C1671 C1668 1.386 . S
C1672 C1667 1.490 . S
C1672 C1674 1.395 . S
C1672 C1675 1.403 . S
H1673 C1679 0.930 . S
C1674 H1660 0.930 . S
C1674 C1672 1.395 . S
C1674 C1677 1.403 . S
C1675 C1672 1.403 . S
C1675 C1676 1.524 . S
C1675 C1679 1.400 . S
C1676 H1661 0.960 . S
C1676 H1662 0.960 . S
C1676 H1663 0.960 . S
C1676 C1675 1.524 . S
C1677 C1674 1.403 . S
C1677 C1678 1.392 . S
C1677 C1681 1.495 . S
C1678 C1677 1.392 . S
C1678 C1679 1.385 . S
C1678 C1680 1.478 . S
C1679 H1673 0.930 . S
C1679 C1675 1.400 . S
C1679 C1678 1.385 . S
C1680 C1678 1.478 . S
C1680 C1682 1.381 . S
C1680 C1686 1.383 . S
C1681 C1677 1.495 . S
C1681 H1687 0.959 . S
C1681 H1688 0.961 . S
C1681 H1689 0.960 . S
C1682 C1680 1.381 . S
C1682 C1683 1.394 . S
C1682 H1690 0.930 . S
C1683 C1682 1.394 . S
C1683 C1684 1.383 . S
C1683 H1691 0.929 . S
C1684 C1683 1.383 . S
C1684 C1685 1.377 . S
C1685 H1669 0.930 . S
C1685 C1684 1.377 . S
C1685 C1686 1.379 . S
C1686 H1670 0.931 . S
C1686 C1680 1.383 . S
C1686 C1685 1.379 . S
H1687 C1681 0.959 . S
H1688 C1681 0.961 . S
H1689 C1681 0.960 . S
H1690 C1682 0.930 . S
H1691 C1683 0.929 . S
H1692 C1700 0.929 . S
H1693 C1702 0.930 . S
H1694 C1704 0.930 . S
H1695 C1707 0.929 . S
H1696 C1710 0.930 . S
H1697 C1712 0.960 . S
H1698 C1712 0.960 . S
H1699 C1712 0.960 . S
C1700 H1692 0.929 . S
C1700 C1701 1.377 . S
C1700 C1702 1.384 . S
C1701 C1700 1.377 . S
C1701 C1707 1.390 . S
C1702 H1693 0.930 . S
C1702 C1700 1.384 . S
C1702 C1703 1.372 . S
C1703 C1702 1.372 . S
C1703 C1704 1.400 . S
C1703 C1708 1.490 . S
C1704 H1694 0.930 . S
C1704 C1703 1.400 . S
C1704 C1707 1.386 . S
H1705 C1721 0.930 . S
H1706 C1722 0.931 . S
C1707 H1695 0.929 . S
C1707 C1701 1.390 . S
C1707 C1704 1.386 . S
C1708 C1703 1.490 . S
C1708 C1710 1.395 . S
C1708 C1711 1.403 . S
H1709 C1715 0.930 . S
C1710 H1696 0.930 . S
C1710 C1708 1.395 . S
C1710 C1713 1.403 . S
C1711 C1708 1.403 . S
C1711 C1712 1.524 . S
C1711 C1715 1.400 . S
C1712 H1697 0.960 . S
C1712 H1698 0.960 . S
C1712 H1699 0.960 . S
C1712 C1711 1.524 . S
C1713 C1710 1.403 . S
C1713 C1714 1.392 . S
C1713 C1717 1.495 . S
C1714 C1713 1.392 . S
C1714 C1715 1.385 . S
C1714 C1716 1.478 . S
C1715 H1709 0.930 . S
C1715 C1711 1.400 . S
C1715 C1714 1.385 . S
C1716 C1714 1.478 . S
C1716 C1718 1.381 . S
C1716 C1722 1.383 . S
C1717 C1713 1.495 . S
C1717 H1723 0.959 . S
C1717 H1724 0.961 . S
C1717 H1725 0.960 . S
C1718 C1716 1.381 . S
C1718 C1719 1.394 . S
C1718 H1726 0.930 . S
C1719 C1718 1.394 . S
C1719 C1720 1.383 . S
C1719 H1727 0.929 . S
C1720 C1719 1.383 . S
C1720 C1721 1.377 . S
C1721 H1705 0.930 . S
C1721 C1720 1.377 . S
C1721 C1722 1.379 . S
C1722 H1706 0.931 . S
C1722 C1716 1.383 . S
C1722 C1721 1.379 . S
H1723 C1717 0.959 . S
H1724 C1717 0.961 . S
H1725 C1717 0.960 . S
H1726 C1718 0.930 . S
H1727 C1719 0.929 . S
H1728 C1736 0.929 . S
H1729 C1738 0.930 . S
H1730 C1740 0.930 . S
H1731 C1743 0.929 . S
H1732 C1746 0.930 . S
H1733 C1748 0.960 . S
H1734 C1748 0.960 . S
H1735 C1748 0.960 . S
C1736 H1728 0.929 . S
C1736 C1737 1.377 . S
C1736 C1738 1.384 . S
C1737 C1736 1.377 . S
C1737 C1743 1.390 . S
C1738 H1729 0.930 . S
C1738 C1736 1.384 . S
C1738 C1739 1.372 . S
C1739 C1738 1.372 . S
C1739 C1740 1.400 . S
C1739 C1744 1.490 . S
C1740 H1730 0.930 . S
C1740 C1739 1.400 . S
C1740 C1743 1.386 . S
H1741 C1757 0.930 . S
H1742 C1758 0.931 . S
C1743 H1731 0.929 . S
C1743 C1737 1.390 . S
C1743 C1740 1.386 . S
C1744 C1739 1.490 . S
C1744 C1746 1.395 . S
C1744 C1747 1.403 . S
H1745 C1751 0.930 . S
C1746 H1732 0.930 . S
C1746 C1744 1.395 . S
C1746 C1749 1.403 . S
C1747 C1744 1.403 . S
C1747 C1748 1.524 . S
C1747 C1751 1.400 . S
C1748 H1733 0.960 . S
C1748 H1734 0.960 . S
C1748 H1735 0.960 . S
C1748 C1747 1.524 . S
C1749 C1746 1.403 . S
C1749 C1750 1.392 . S
C1749 C1753 1.495 . S
C1750 C1749 1.392 . S
C1750 C1751 1.385 . S
C1750 C1752 1.478 . S
C1751 H1745 0.930 . S
C1751 C1747 1.400 . S
C1751 C1750 1.385 . S
C1752 C1750 1.478 . S
C1752 C1754 1.381 . S
C1752 C1758 1.383 . S
C1753 C1749 1.495 . S
C1753 H1759 0.959 . S
C1753 H1760 0.961 . S
C1753 H1761 0.960 . S
C1754 C1752 1.381 . S
C1754 C1755 1.394 . S
C1754 H1762 0.930 . S
C1755 C1754 1.394 . S
C1755 C1756 1.383 . S
C1755 H1763 0.929 . S
C1756 C1755 1.383 . S
C1756 C1757 1.377 . S
C1757 H1741 0.930 . S
C1757 C1756 1.377 . S
C1757 C1758 1.379 . S
C1758 H1742 0.931 . S
C1758 C1752 1.383 . S
C1758 C1757 1.379 . S
H1759 C1753 0.959 . S
H1760 C1753 0.961 . S
H1761 C1753 0.960 . S
H1762 C1754 0.930 . S
H1763 C1755 0.929 . S
H1764 C1772 0.929 . S
H1765 C1774 0.930 . S
H1766 C1776 0.930 . S
H1767 C1779 0.929 . S
H1768 C1782 0.930 . S
H1769 C1784 0.960 . S
H1770 C1784 0.960 . S
H1771 C1784 0.960 . S
C1772 H1764 0.929 . S
C1772 C1773 1.377 . S
C1772 C1774 1.384 . S
C1773 C1772 1.377 . S
C1773 C1779 1.390 . S
C1774 H1765 0.930 . S
C1774 C1772 1.384 . S
C1774 C1775 1.372 . S
C1775 C1774 1.372 . S
C1775 C1776 1.400 . S
C1775 C1780 1.490 . S
C1776 H1766 0.930 . S
C1776 C1775 1.400 . S
C1776 C1779 1.386 . S
H1777 C1793 0.930 . S
H1778 C1794 0.931 . S
C1779 H1767 0.929 . S
C1779 C1773 1.390 . S
C1779 C1776 1.386 . S
C1780 C1775 1.490 . S
C1780 C1782 1.395 . S
C1780 C1783 1.403 . S
H1781 C1787 0.930 . S
C1782 H1768 0.930 . S
C1782 C1780 1.395 . S
C1782 C1785 1.403 . S
C1783 C1780 1.403 . S
C1783 C1784 1.524 . S
C1783 C1787 1.400 . S
C1784 H1769 0.960 . S
C1784 H1770 0.960 . S
C1784 H1771 0.960 . S
C1784 C1783 1.524 . S
C1785 C1782 1.403 . S
C1785 C1786 1.392 . S
C1785 C1789 1.495 . S
C1786 C1785 1.392 . S
C1786 C1787 1.385 . S
C1786 C1788 1.478 . S
C1787 H1781 0.930 . S
C1787 C1783 1.400 . S
C1787 C1786 1.385 . S
C1788 C1786 1.478 . S
C1788 C1790 1.381 . S
C1788 C1794 1.383 . S
C1789 C1785 1.495 . S
C1789 H1795 0.959 . S
C1789 H1796 0.961 . S
C1789 H1797 0.960 . S
C1790 C1788 1.381 . S
C1790 C1791 1.394 . S
C1790 H1798 0.930 . S
C1791 C1790 1.394 . S
C1791 C1792 1.383 . S
C1791 H1799 0.929 . S
C1792 C1791 1.383 . S
C1792 C1793 1.377 . S
C1793 H1777 0.930 . S
C1793 C1792 1.377 . S
C1793 C1794 1.379 . S
C1794 H1778 0.931 . S
C1794 C1788 1.383 . S
C1794 C1793 1.379 . S
H1795 C1789 0.959 . S
H1796 C1789 0.961 . S
H1797 C1789 0.960 . S
H1798 C1790 0.930 . S
H1799 C1791 0.929 . S
H1800 C1808 0.929 . S
H1801 C1810 0.930 . S
H1802 C1812 0.930 . S
H1803 C1815 0.929 . S
H1804 C1818 0.930 . S
H1805 C1820 0.960 . S
H1806 C1820 0.960 . S
H1807 C1820 0.960 . S
C1808 H1800 0.929 . S
C1808 C1809 1.377 . S
C1808 C1810 1.384 . S
C1809 C1808 1.377 . S
C1809 C1815 1.390 . S
C1810 H1801 0.930 . S
C1810 C1808 1.384 . S
C1810 C1811 1.372 . S
C1811 C1810 1.372 . S
C1811 C1812 1.400 . S
C1811 C1816 1.490 1_565 S
C1812 H1802 0.930 . S
C1812 C1811 1.400 . S
C1812 C1815 1.386 . S
H1813 C1829 0.930 . S
H1814 C1830 0.931 . S
C1815 H1803 0.929 . S
C1815 C1809 1.390 . S
C1815 C1812 1.386 . S
C1816 C1811 1.490 1_545 S
C1816 C1818 1.395 . S
C1816 C1819 1.403 . S
H1817 C1823 0.930 . S
C1818 H1804 0.930 . S
C1818 C1816 1.395 . S
C1818 C1821 1.403 . S
C1819 C1816 1.403 . S
C1819 C1820 1.524 . S
C1819 C1823 1.400 . S
C1820 H1805 0.960 . S
C1820 H1806 0.960 . S
C1820 H1807 0.960 . S
C1820 C1819 1.524 . S
C1821 C1818 1.403 . S
C1821 C1822 1.392 . S
C1821 C1825 1.495 . S
C1822 C1821 1.392 . S
C1822 C1823 1.385 . S
C1822 C1824 1.478 . S
C1823 H1817 0.930 . S
C1823 C1819 1.400 . S
C1823 C1822 1.385 . S
C1824 C1822 1.478 . S
C1824 C1826 1.381 . S
C1824 C1830 1.383 . S
C1825 C1821 1.495 . S
C1825 H1831 0.959 . S
C1825 H1832 0.961 . S
C1825 H1833 0.960 . S
C1826 C1824 1.381 . S
C1826 C1827 1.394 . S
C1826 H1834 0.930 . S
C1827 C1826 1.394 . S
C1827 C1828 1.383 . S
C1827 H1835 0.929 . S
C1828 C1827 1.383 . S
C1828 C1829 1.377 . S
C1829 H1813 0.930 . S
C1829 C1828 1.377 . S
C1829 C1830 1.379 . S
C1830 H1814 0.931 . S
C1830 C1824 1.383 . S
C1830 C1829 1.379 . S
H1831 C1825 0.959 . S
H1832 C1825 0.961 . S
H1833 C1825 0.960 . S
H1834 C1826 0.930 . S
H1835 C1827 0.929 . S
H1836 C1844 0.929 . S
H1837 C1846 0.930 . S
H1838 C1848 0.930 . S
H1839 C1851 0.929 . S
H1840 C1854 0.930 . S
H1841 C1856 0.960 . S
H1842 C1856 0.960 . S
H1843 C1856 0.960 . S
C1844 H1836 0.929 . S
C1844 C1845 1.377 . S
C1844 C1846 1.384 . S
C1845 C1844 1.377 . S
C1845 C1851 1.390 . S
C1846 H1837 0.930 . S
C1846 C1844 1.384 . S
C1846 C1847 1.372 . S
C1847 C1846 1.372 . S
C1847 C1848 1.400 . S
C1847 C1852 1.490 1_455 S
C1848 H1838 0.930 . S
C1848 C1847 1.400 . S
C1848 C1851 1.386 . S
H1849 C1865 0.930 . S
H1850 C1866 0.931 . S
C1851 H1839 0.929 . S
C1851 C1845 1.390 . S
C1851 C1848 1.386 . S
C1852 C1847 1.490 1_655 S
C1852 C1854 1.395 . S
C1852 C1855 1.403 . S
H1853 C1859 0.930 . S
C1854 H1840 0.930 . S
C1854 C1852 1.395 . S
C1854 C1857 1.403 . S
C1855 C1852 1.403 . S
C1855 C1856 1.524 . S
C1855 C1859 1.400 . S
C1856 H1841 0.960 . S
C1856 H1842 0.960 . S
C1856 H1843 0.960 . S
C1856 C1855 1.524 . S
C1857 C1854 1.403 . S
C1857 C1858 1.392 . S
C1857 C1861 1.495 . S
C1858 C1857 1.392 . S
C1858 C1859 1.385 . S
C1858 C1860 1.478 . S
C1859 H1853 0.930 . S
C1859 C1855 1.400 . S
C1859 C1858 1.385 . S
C1860 C1858 1.478 . S
C1860 C1862 1.381 . S
C1860 C1866 1.383 . S
C1861 C1857 1.495 . S
C1861 H1867 0.959 . S
C1861 H1868 0.961 . S
C1861 H1869 0.960 . S
C1862 C1860 1.381 . S
C1862 C1863 1.394 . S
C1862 H1870 0.930 . S
C1863 C1862 1.394 . S
C1863 C1864 1.383 . S
C1863 H1871 0.929 . S
C1864 C1863 1.383 . S
C1864 C1865 1.377 . S
C1865 H1849 0.930 . S
C1865 C1864 1.377 . S
C1865 C1866 1.379 . S
C1866 H1850 0.931 . S
C1866 C1860 1.383 . S
C1866 C1865 1.379 . S
H1867 C1861 0.959 . S
H1868 C1861 0.961 . S
H1869 C1861 0.960 . S
H1870 C1862 0.930 . S
H1871 C1863 0.929 . S
H1872 C1880 0.929 . S
H1873 C1882 0.930 . S
H1874 C1884 0.930 . S
H1875 C1887 0.929 . S
H1876 C1890 0.930 . S
H1877 C1892 0.960 . S
H1878 C1892 0.960 . S
H1879 C1892 0.960 . S
C1880 H1872 0.929 . S
C1880 C1881 1.377 . S
C1880 C1882 1.384 . S
C1881 C1880 1.377 . S
C1881 C1887 1.390 . S
C1882 H1873 0.930 . S
C1882 C1880 1.384 . S
C1882 C1883 1.372 . S
C1883 C1882 1.372 . S
C1883 C1884 1.400 . S
C1883 C1888 1.490 . S
C1884 H1874 0.930 . S
C1884 C1883 1.400 . S
C1884 C1887 1.386 . S
H1885 C1901 0.930 . S
H1886 C1902 0.931 . S
C1887 H1875 0.929 . S
C1887 C1881 1.390 . S
C1887 C1884 1.386 . S
C1888 C1883 1.490 . S
C1888 C1890 1.395 . S
C1888 C1891 1.403 . S
H1889 C1895 0.930 . S
C1890 H1876 0.930 . S
C1890 C1888 1.395 . S
C1890 C1893 1.403 . S
C1891 C1888 1.403 . S
C1891 C1892 1.524 . S
C1891 C1895 1.400 . S
C1892 H1877 0.960 . S
C1892 H1878 0.960 . S
C1892 H1879 0.960 . S
C1892 C1891 1.524 . S
C1893 C1890 1.403 . S
C1893 C1894 1.392 . S
C1893 C1897 1.495 . S
C1894 C1893 1.392 . S
C1894 C1895 1.385 . S
C1894 C1896 1.478 . S
C1895 H1889 0.930 . S
C1895 C1891 1.400 . S
C1895 C1894 1.385 . S
C1896 C1894 1.478 . S
C1896 C1898 1.381 . S
C1896 C1902 1.383 . S
C1897 C1893 1.495 . S
C1897 H1903 0.959 . S
C1897 H1904 0.961 . S
C1897 H1905 0.960 . S
C1898 C1896 1.381 . S
C1898 C1899 1.394 . S
C1898 H1906 0.930 . S
C1899 C1898 1.394 . S
C1899 C1900 1.383 . S
C1899 H1907 0.929 . S
C1900 C1899 1.383 . S
C1900 C1901 1.377 . S
C1901 H1885 0.930 . S
C1901 C1900 1.377 . S
C1901 C1902 1.379 . S
C1902 H1886 0.931 . S
C1902 C1896 1.383 . S
C1902 C1901 1.379 . S
H1903 C1897 0.959 . S
H1904 C1897 0.961 . S
H1905 C1897 0.960 . S
H1906 C1898 0.930 . S
H1907 C1899 0.929 . S
H1908 C1916 0.929 . S
H1909 C1918 0.930 . S
H1910 C1920 0.930 . S
H1911 C1923 0.929 . S
H1912 C1926 0.930 . S
H1913 C1928 0.960 . S
H1914 C1928 0.960 1_455 S
H1915 C1928 0.960 . S
C1916 H1908 0.929 . S
C1916 C1917 1.377 . S
C1916 C1918 1.384 . S
C1917 C1916 1.377 . S
C1917 C1923 1.390 . S
C1918 H1909 0.930 . S
C1918 C1916 1.384 . S
C1918 C1919 1.372 . S
C1919 C1918 1.372 . S
C1919 C1920 1.400 . S
C1919 C1924 1.490 1_455 S
C1920 H1910 0.930 . S
C1920 C1919 1.400 . S
C1920 C1923 1.386 . S
H1921 C1937 0.930 . S
H1922 C1938 0.931 . S
C1923 H1911 0.929 . S
C1923 C1917 1.390 . S
C1923 C1920 1.386 . S
C1924 C1919 1.490 1_655 S
C1924 C1926 1.395 . S
C1924 C1927 1.403 . S
H1925 C1931 0.930 . S
C1926 H1912 0.930 . S
C1926 C1924 1.395 . S
C1926 C1929 1.403 . S
C1927 C1924 1.403 . S
C1927 C1928 1.524 . S
C1927 C1931 1.400 . S
C1928 H1913 0.960 . S
C1928 H1914 0.960 1_655 S
C1928 H1915 0.960 . S
C1928 C1927 1.524 . S
C1929 C1926 1.403 . S
C1929 C1930 1.392 . S
C1929 C1933 1.495 . S
C1930 C1929 1.392 . S
C1930 C1931 1.385 . S
C1930 C1932 1.478 . S
C1931 H1925 0.930 . S
C1931 C1927 1.400 . S
C1931 C1930 1.385 . S
C1932 C1930 1.478 . S
C1932 C1934 1.381 . S
C1932 C1938 1.383 . S
C1933 C1929 1.495 . S
C1933 H1939 0.959 . S
C1933 H1940 0.961 . S
C1933 H1941 0.960 . S
C1934 C1932 1.381 . S
C1934 C1935 1.394 . S
C1934 H1942 0.930 . S
C1935 C1934 1.394 . S
C1935 C1936 1.383 . S
C1935 H1943 0.929 . S
C1936 C1935 1.383 . S
C1936 C1937 1.377 . S
C1937 H1921 0.930 . S
C1937 C1936 1.377 . S
C1937 C1938 1.379 . S
C1938 H1922 0.931 . S
C1938 C1932 1.383 . S
C1938 C1937 1.379 . S
H1939 C1933 0.959 . S
H1940 C1933 0.961 . S
H1941 C1933 0.960 . S
H1942 C1934 0.930 . S
H1943 C1935 0.929 . S
H1944 C1952 0.929 . S
H1945 C1954 0.930 . S
H1946 C1956 0.930 . S
H1947 C1959 0.929 . S
H1948 C1962 0.930 . S
H1949 C1964 0.960 . S
H1950 C1964 0.960 . S
H1951 C1964 0.960 . S
C1952 H1944 0.929 . S
C1952 C1953 1.377 . S
C1952 C1954 1.384 . S
C1953 C1952 1.377 . S
C1953 C1959 1.390 . S
C1954 H1945 0.930 . S
C1954 C1952 1.384 . S
C1954 C1955 1.372 . S
C1955 C1954 1.372 . S
C1955 C1956 1.400 . S
C1955 C1960 1.490 . S
C1956 H1946 0.930 . S
C1956 C1955 1.400 . S
C1956 C1959 1.386 . S
H1957 C1973 0.930 . S
H1958 C1974 0.931 . S
C1959 H1947 0.929 . S
C1959 C1953 1.390 . S
C1959 C1956 1.386 . S
C1960 C1955 1.490 . S
C1960 C1962 1.395 . S
C1960 C1963 1.403 . S
H1961 C1967 0.930 . S
C1962 H1948 0.930 . S
C1962 C1960 1.395 . S
C1962 C1965 1.403 . S
C1963 C1960 1.403 . S
C1963 C1964 1.524 . S
C1963 C1967 1.400 . S
C1964 H1949 0.960 . S
C1964 H1950 0.960 . S
C1964 H1951 0.960 . S
C1964 C1963 1.524 . S
C1965 C1962 1.403 . S
C1965 C1966 1.392 . S
C1965 C1969 1.495 . S
C1966 C1965 1.392 . S
C1966 C1967 1.385 . S
C1966 C1968 1.478 . S
C1967 H1961 0.930 . S
C1967 C1963 1.400 . S
C1967 C1966 1.385 . S
C1968 C1966 1.478 . S
C1968 C1970 1.381 . S
C1968 C1974 1.383 . S
C1969 C1965 1.495 . S
C1969 H1975 0.959 . S
C1969 H1976 0.961 . S
C1969 H1977 0.960 . S
C1970 C1968 1.381 . S
C1970 C1971 1.394 . S
C1970 H1978 0.930 . S
C1971 C1970 1.394 . S
C1971 C1972 1.383 . S
C1971 H1979 0.929 . S
C1972 C1971 1.383 . S
C1972 C1973 1.377 . S
C1973 H1957 0.930 . S
C1973 C1972 1.377 . S
C1973 C1974 1.379 . S
C1974 H1958 0.931 . S
C1974 C1968 1.383 . S
C1974 C1973 1.379 . S
H1975 C1969 0.959 . S
H1976 C1969 0.961 . S
H1977 C1969 0.960 . S
H1978 C1970 0.930 . S
H1979 C1971 0.929 . S
H1980 C1988 0.929 . S
H1981 C1990 0.930 . S
H1982 C1992 0.930 . S
H1983 C1995 0.929 . S
H1984 C1998 0.930 . S
H1985 C2000 0.960 . S
H1986 C2000 0.960 . S
H1987 C2000 0.960 . S
C1988 H1980 0.929 . S
C1988 C1989 1.377 . S
C1988 C1990 1.384 . S
C1989 C1988 1.377 . S
C1989 C1995 1.390 . S
C1990 H1981 0.930 . S
C1990 C1988 1.384 . S
C1990 C1991 1.372 . S
C1991 C1990 1.372 . S
C1991 C1992 1.400 . S
C1991 C1996 1.490 1_565 S
C1992 H1982 0.930 . S
C1992 C1991 1.400 . S
C1992 C1995 1.386 . S
H1993 C2009 0.930 . S
H1994 C2010 0.931 . S
C1995 H1983 0.929 . S
C1995 C1989 1.390 . S
C1995 C1992 1.386 . S
C1996 C1991 1.490 1_545 S
C1996 C1998 1.395 . S
C1996 C1999 1.403 . S
H1997 C2003 0.930 . S
C1998 H1984 0.930 . S
C1998 C1996 1.395 . S
C1998 C2001 1.403 . S
C1999 C1996 1.403 . S
C1999 C2000 1.524 . S
C1999 C2003 1.400 . S
C2000 H1985 0.960 . S
C2000 H1986 0.960 . S
C2000 H1987 0.960 . S
C2000 C1999 1.524 . S
C2001 C1998 1.403 . S
C2001 C2002 1.392 . S
C2001 C2005 1.495 . S
C2002 C2001 1.392 . S
C2002 C2003 1.385 . S
C2002 C2004 1.478 . S
C2003 H1997 0.930 . S
C2003 C1999 1.400 . S
C2003 C2002 1.385 . S
C2004 C2002 1.478 . S
C2004 C2006 1.381 . S
C2004 C2010 1.383 . S
C2005 C2001 1.495 . S
C2005 H2011 0.959 . S
C2005 H2012 0.961 . S
C2005 H2013 0.960 . S
C2006 C2004 1.381 . S
C2006 C2007 1.394 . S
C2006 H2014 0.930 . S
C2007 C2006 1.394 . S
C2007 C2008 1.383 . S
C2007 H2015 0.929 . S
C2008 C2007 1.383 . S
C2008 C2009 1.377 . S
C2009 H1993 0.930 . S
C2009 C2008 1.377 . S
C2009 C2010 1.379 . S
C2010 H1994 0.931 . S
C2010 C2004 1.383 . S
C2010 C2009 1.379 . S
H2011 C2005 0.959 . S
H2012 C2005 0.961 . S
H2013 C2005 0.960 . S
H2014 C2006 0.930 . S
H2015 C2007 0.929 . S
H2016 C2024 0.929 . S
H2017 C2026 0.930 . S
H2018 C2028 0.930 . S
H2019 C2031 0.929 . S
H2020 C2034 0.930 . S
H2021 C2036 0.960 . S
H2022 C2036 0.960 . S
H2023 C2036 0.960 . S
C2024 H2016 0.929 . S
C2024 C2025 1.377 . S
C2024 C2026 1.384 . S
C2025 C2024 1.377 . S
C2025 C2031 1.390 . S
C2026 H2017 0.930 . S
C2026 C2024 1.384 . S
C2026 C2027 1.372 . S
C2027 C2026 1.372 . S
C2027 C2028 1.400 . S
C2027 C2032 1.490 . S
C2028 H2018 0.930 . S
C2028 C2027 1.400 . S
C2028 C2031 1.386 . S
H2029 C2045 0.930 . S
H2030 C2046 0.931 . S
C2031 H2019 0.929 . S
C2031 C2025 1.390 . S
C2031 C2028 1.386 . S
C2032 C2027 1.490 . S
C2032 C2034 1.395 . S
C2032 C2035 1.403 . S
H2033 C2039 0.930 . S
C2034 H2020 0.930 . S
C2034 C2032 1.395 . S
C2034 C2037 1.403 . S
C2035 C2032 1.403 . S
C2035 C2036 1.524 . S
C2035 C2039 1.400 . S
C2036 H2021 0.960 . S
C2036 H2022 0.960 . S
C2036 H2023 0.960 . S
C2036 C2035 1.524 . S
C2037 C2034 1.403 . S
C2037 C2038 1.392 . S
C2037 C2041 1.495 . S
C2038 C2037 1.392 . S
C2038 C2039 1.385 . S
C2038 C2040 1.478 . S
C2039 H2033 0.930 . S
C2039 C2035 1.400 . S
C2039 C2038 1.385 . S
C2040 C2038 1.478 . S
C2040 C2042 1.381 . S
C2040 C2046 1.383 . S
C2041 C2037 1.495 . S
C2041 H2047 0.959 . S
C2041 H2048 0.961 . S
C2041 H2049 0.960 . S
C2042 C2040 1.381 . S
C2042 C2043 1.394 . S
C2042 H2050 0.930 . S
C2043 C2042 1.394 . S
C2043 C2044 1.383 . S
C2043 H2051 0.929 . S
C2044 C2043 1.383 . S
C2044 C2045 1.377 . S
C2045 H2029 0.930 . S
C2045 C2044 1.377 . S
C2045 C2046 1.379 . S
C2046 H2030 0.931 . S
C2046 C2040 1.383 . S
C2046 C2045 1.379 . S
H2047 C2041 0.959 . S
H2048 C2041 0.961 . S
H2049 C2041 0.960 . S
H2050 C2042 0.930 . S
H2051 C2043 0.929 . S
H2052 C2060 0.929 . S
H2053 C2062 0.930 . S
H2054 C2064 0.930 . S
H2055 C2067 0.929 . S
H2056 C2070 0.930 . S
H2057 C2072 0.960 . S
H2058 C2072 0.960 . S
H2059 C2072 0.960 . S
C2060 H2052 0.929 . S
C2060 C2061 1.377 . S
C2060 C2062 1.384 . S
C2061 C2060 1.377 . S
C2061 C2067 1.390 . S
C2062 H2053 0.930 . S
C2062 C2060 1.384 . S
C2062 C2063 1.372 . S
C2063 C2062 1.372 . S
C2063 C2064 1.400 . S
C2063 C2068 1.490 . S
C2064 H2054 0.930 . S
C2064 C2063 1.400 . S
C2064 C2067 1.386 . S
H2065 C2081 0.930 . S
H2066 C2082 0.931 . S
C2067 H2055 0.929 . S
C2067 C2061 1.390 . S
C2067 C2064 1.386 . S
C2068 C2063 1.490 . S
C2068 C2070 1.395 . S
C2068 C2071 1.403 . S
H2069 C2075 0.930 . S
C2070 H2056 0.930 . S
C2070 C2068 1.395 . S
C2070 C2073 1.403 . S
C2071 C2068 1.403 . S
C2071 C2072 1.524 . S
C2071 C2075 1.400 . S
C2072 H2057 0.960 . S
C2072 H2058 0.960 . S
C2072 H2059 0.960 . S
C2072 C2071 1.524 . S
C2073 C2070 1.403 . S
C2073 C2074 1.392 . S
C2073 C2077 1.495 . S
C2074 C2073 1.392 . S
C2074 C2075 1.385 . S
C2074 C2076 1.478 . S
C2075 H2069 0.930 . S
C2075 C2071 1.400 . S
C2075 C2074 1.385 . S
C2076 C2074 1.478 . S
C2076 C2078 1.381 . S
C2076 C2082 1.383 . S
C2077 C2073 1.495 . S
C2077 H2083 0.959 . S
C2077 H2084 0.961 . S
C2077 H2085 0.960 . S
C2078 C2076 1.381 . S
C2078 C2079 1.394 . S
C2078 H2086 0.930 . S
C2079 C2078 1.394 . S
C2079 C2080 1.383 . S
C2079 H2087 0.929 . S
C2080 C2079 1.383 . S
C2080 C2081 1.377 . S
C2081 H2065 0.930 . S
C2081 C2080 1.377 . S
C2081 C2082 1.379 . S
C2082 H2066 0.931 . S
C2082 C2076 1.383 . S
C2082 C2081 1.379 . S
H2083 C2077 0.959 . S
H2084 C2077 0.961 . S
H2085 C2077 0.960 . S
H2086 C2078 0.930 . S
H2087 C2079 0.929 . S
H2088 C2096 0.929 . S
H2089 C2098 0.930 . S
H2090 C2100 0.930 . S
H2091 C2103 0.929 . S
H2092 C2106 0.930 . S
H2093 C2108 0.960 . S
H2094 C2108 0.960 . S
H2095 C2108 0.960 . S
C2096 H2088 0.929 . S
C2096 C2097 1.377 . S
C2096 C2098 1.384 . S
C2097 C2096 1.377 . S
C2097 C2103 1.390 . S
C2098 H2089 0.930 . S
C2098 C2096 1.384 . S
C2098 C2099 1.372 . S
C2099 C2098 1.372 . S
C2099 C2100 1.400 . S
C2099 C2104 1.490 . S
C2100 H2090 0.930 . S
C2100 C2099 1.400 . S
C2100 C2103 1.386 . S
H2101 C2117 0.930 . S
H2102 C2118 0.931 . S
C2103 H2091 0.929 . S
C2103 C2097 1.390 . S
C2103 C2100 1.386 . S
C2104 C2099 1.490 . S
C2104 C2106 1.395 . S
C2104 C2107 1.403 . S
H2105 C2111 0.930 . S
C2106 H2092 0.930 . S
C2106 C2104 1.395 . S
C2106 C2109 1.403 . S
C2107 C2104 1.403 . S
C2107 C2108 1.524 . S
C2107 C2111 1.400 . S
C2108 H2093 0.960 . S
C2108 H2094 0.960 . S
C2108 H2095 0.960 . S
C2108 C2107 1.524 . S
C2109 C2106 1.403 . S
C2109 C2110 1.392 . S
C2109 C2113 1.495 . S
C2110 C2109 1.392 . S
C2110 C2111 1.385 . S
C2110 C2112 1.478 . S
C2111 H2105 0.930 . S
C2111 C2107 1.400 . S
C2111 C2110 1.385 . S
C2112 C2110 1.478 . S
C2112 C2114 1.381 . S
C2112 C2118 1.383 . S
C2113 C2109 1.495 . S
C2113 H2119 0.959 . S
C2113 H2120 0.961 . S
C2113 H2121 0.960 . S
C2114 C2112 1.381 . S
C2114 C2115 1.394 . S
C2114 H2122 0.930 . S
C2115 C2114 1.394 . S
C2115 C2116 1.383 . S
C2115 H2123 0.929 . S
C2116 C2115 1.383 . S
C2116 C2117 1.377 . S
C2117 H2101 0.930 . S
C2117 C2116 1.377 . S
C2117 C2118 1.379 . S
C2118 H2102 0.931 . S
C2118 C2112 1.383 . S
C2118 C2117 1.379 . S
H2119 C2113 0.959 . S
H2120 C2113 0.961 . S
H2121 C2113 0.960 . S
H2122 C2114 0.930 . S
H2123 C2115 0.929 . S
H2124 C2132 0.929 . S
H2125 C2134 0.930 . S
H2126 C2136 0.930 . S
H2127 C2139 0.929 . S
H2128 C2142 0.930 . S
H2129 C2144 0.960 . S
H2130 C2144 0.960 . S
H2131 C2144 0.960 . S
C2132 H2124 0.929 . S
C2132 C2133 1.377 . S
C2132 C2134 1.384 . S
C2133 C2132 1.377 . S
C2133 C2139 1.390 . S
C2134 H2125 0.930 . S
C2134 C2132 1.384 . S
C2134 C2135 1.372 . S
C2135 C2134 1.372 . S
C2135 C2136 1.400 . S
C2135 C2140 1.490 . S
C2136 H2126 0.930 . S
C2136 C2135 1.400 . S
C2136 C2139 1.386 . S
H2137 C2153 0.930 . S
H2138 C2154 0.931 . S
C2139 H2127 0.929 . S
C2139 C2133 1.390 . S
C2139 C2136 1.386 . S
C2140 C2135 1.490 . S
C2140 C2142 1.395 . S
C2140 C2143 1.403 . S
H2141 C2147 0.930 . S
C2142 H2128 0.930 . S
C2142 C2140 1.395 . S
C2142 C2145 1.403 . S
C2143 C2140 1.403 . S
C2143 C2144 1.524 . S
C2143 C2147 1.400 . S
C2144 H2129 0.960 . S
C2144 H2130 0.960 . S
C2144 H2131 0.960 . S
C2144 C2143 1.524 . S
C2145 C2142 1.403 . S
C2145 C2146 1.392 . S
C2145 C2149 1.495 1_565 S
C2146 C2145 1.392 . S
C2146 C2147 1.385 . S
C2146 C2148 1.478 . S
C2147 H2141 0.930 . S
C2147 C2143 1.400 . S
C2147 C2146 1.385 . S
C2148 C2146 1.478 . S
C2148 C2150 1.381 . S
C2148 C2154 1.383 . S
C2149 C2145 1.495 1_545 S
C2149 H2155 0.959 . S
C2149 H2156 0.961 . S
C2149 H2157 0.960 . S
C2150 C2148 1.381 . S
C2150 C2151 1.394 . S
C2150 H2158 0.930 . S
C2151 C2150 1.394 . S
C2151 C2152 1.383 . S
C2151 H2159 0.929 . S
C2152 C2151 1.383 . S
C2152 C2153 1.377 . S
C2153 H2137 0.930 . S
C2153 C2152 1.377 . S
C2153 C2154 1.379 . S
C2154 H2138 0.931 . S
C2154 C2148 1.383 . S
C2154 C2153 1.379 . S
H2155 C2149 0.959 . S
H2156 C2149 0.961 . S
H2157 C2149 0.960 . S
H2158 C2150 0.930 . S
H2159 C2151 0.929 . S
H2160 C2168 0.929 . S
H2161 C2170 0.930 . S
H2162 C2172 0.930 . S
H2163 C2175 0.929 . S
H2164 C2178 0.930 1_655 S
H2165 C2180 0.960 . S
H2166 C2180 0.960 . S
H2167 C2180 0.960 . S
C2168 H2160 0.929 . S
C2168 C2169 1.377 . S
C2168 C2170 1.384 . S
C2169 C2168 1.377 . S
C2169 C2175 1.390 . S
C2170 H2161 0.930 . S
C2170 C2168 1.384 . S
C2170 C2171 1.372 . S
C2171 C2170 1.372 . S
C2171 C2172 1.400 . S
C2171 C2176 1.490 . S
C2172 H2162 0.930 . S
C2172 C2171 1.400 . S
C2172 C2175 1.386 . S
H2173 C2189 0.930 . S
H2174 C2190 0.931 . S
C2175 H2163 0.929 . S
C2175 C2169 1.390 . S
C2175 C2172 1.386 . S
C2176 C2171 1.490 . S
C2176 C2178 1.395 . S
C2176 C2179 1.403 . S
H2177 C2183 0.930 . S
C2178 H2164 0.930 1_455 S
C2178 C2176 1.395 . S
C2178 C2181 1.401 1_455 S
C2179 C2176 1.403 . S
C2179 C2180 1.524 . S
C2179 C2183 1.400 . S
C2180 H2165 0.960 . S
C2180 H2166 0.960 . S
C2180 H2167 0.960 . S
C2180 C2179 1.524 . S
C2181 C2178 1.401 1_655 S
C2181 C2182 1.382 1_655 S
C2181 C2185 1.508 . S
C2182 C2181 1.382 1_455 S
C2182 C2183 1.385 . S
C2182 C2184 1.478 . S
C2183 H2177 0.930 . S
C2183 C2179 1.400 . S
C2183 C2182 1.385 . S
C2184 C2182 1.478 . S
C2184 C2186 1.381 . S
C2184 C2190 1.383 . S
C2185 C2181 1.508 . S
C2185 H2191 0.959 . S
C2185 H2192 0.961 . S
C2185 H2193 0.960 . S
C2186 C2184 1.381 . S
C2186 C2187 1.394 . S
C2186 H2194 0.930 1_455 S
C2187 C2186 1.394 . S
C2187 C2188 1.383 . S
C2187 H2195 0.929 1_455 S
C2188 C2187 1.383 . S
C2188 C2189 1.377 . S
C2189 H2173 0.930 . S
C2189 C2188 1.377 . S
C2189 C2190 1.379 . S
C2190 H2174 0.931 . S
C2190 C2184 1.383 . S
C2190 C2189 1.379 . S
H2191 C2185 0.959 . S
H2192 C2185 0.961 . S
H2193 C2185 0.960 . S
H2194 C2186 0.930 1_655 S
H2195 C2187 0.929 1_655 S
H2196 C2204 0.929 . S
H2197 C2206 0.930 . S
H2198 C2208 0.930 . S
H2199 C2211 0.929 . S
H2200 C2214 0.930 . S
H2201 C2216 0.960 . S
H2202 C2216 0.960 . S
H2203 C2216 0.960 . S
C2204 H2196 0.929 . S
C2204 C2205 1.377 . S
C2204 C2206 1.384 . S
C2205 C2204 1.377 . S
C2205 C2211 1.390 . S
C2206 H2197 0.930 . S
C2206 C2204 1.384 . S
C2206 C2207 1.372 . S
C2207 C2206 1.372 . S
C2207 C2208 1.400 . S
C2207 C2212 1.490 . S
C2208 H2198 0.930 . S
C2208 C2207 1.400 . S
C2208 C2211 1.386 . S
H2209 C2225 0.930 . S
H2210 C2226 0.931 . S
C2211 H2199 0.929 . S
C2211 C2205 1.390 . S
C2211 C2208 1.386 . S
C2212 C2207 1.490 . S
C2212 C2214 1.395 . S
C2212 C2215 1.403 . S
H2213 C2219 0.930 . S
C2214 H2200 0.930 . S
C2214 C2212 1.395 . S
C2214 C2217 1.403 . S
C2215 C2212 1.403 . S
C2215 C2216 1.524 . S
C2215 C2219 1.400 . S
C2216 H2201 0.960 . S
C2216 H2202 0.960 . S
C2216 H2203 0.960 . S
C2216 C2215 1.524 . S
C2217 C2214 1.403 . S
C2217 C2218 1.392 . S
C2217 C2221 1.495 . S
C2218 C2217 1.392 . S
C2218 C2219 1.385 . S
C2218 C2220 1.478 . S
C2219 H2213 0.930 . S
C2219 C2215 1.400 . S
C2219 C2218 1.385 . S
C2220 C2218 1.478 . S
C2220 C2222 1.381 . S
C2220 C2226 1.383 . S
C2221 C2217 1.495 . S
C2221 H2227 0.959 . S
C2221 H2228 0.961 . S
C2221 H2229 0.960 . S
C2222 C2220 1.381 . S
C2222 C2223 1.394 . S
C2222 H2230 0.930 . S
C2223 C2222 1.394 . S
C2223 C2224 1.383 . S
C2223 H2231 0.929 . S
C2224 C2223 1.383 . S
C2224 C2225 1.377 . S
C2225 H2209 0.930 . S
C2225 C2224 1.377 . S
C2225 C2226 1.379 . S
C2226 H2210 0.931 . S
C2226 C2220 1.383 . S
C2226 C2225 1.379 . S
H2227 C2221 0.959 . S
H2228 C2221 0.961 . S
H2229 C2221 0.960 . S
H2230 C2222 0.930 . S
H2231 C2223 0.929 . S
H2232 C2240 0.929 . S
H2233 C2242 0.930 . S
H2234 C2244 0.930 . S
H2235 C2247 0.929 . S
H2236 C2250 0.930 . S
H2237 C2252 0.960 . S
H2238 C2252 0.960 . S
H2239 C2252 0.960 . S
C2240 H2232 0.929 . S
C2240 C2241 1.377 . S
C2240 C2242 1.384 . S
C2241 C2240 1.377 . S
C2241 C2247 1.390 . S
C2242 H2233 0.930 . S
C2242 C2240 1.384 . S
C2242 C2243 1.372 . S
C2243 C2242 1.372 . S
C2243 C2244 1.400 . S
C2243 C2248 1.490 . S
C2244 H2234 0.930 . S
C2244 C2243 1.400 . S
C2244 C2247 1.386 . S
H2245 C2261 0.930 . S
H2246 C2262 0.931 . S
C2247 H2235 0.929 . S
C2247 C2241 1.390 . S
C2247 C2244 1.386 . S
C2248 C2243 1.490 . S
C2248 C2250 1.395 . S
C2248 C2251 1.403 . S
H2249 C2255 0.930 1_455 S
C2250 H2236 0.930 . S
C2250 C2248 1.395 . S
C2250 C2253 1.403 . S
C2251 C2248 1.403 . S
C2251 C2252 1.524 1_655 S
C2251 C2255 1.400 . S
C2252 H2237 0.960 . S
C2252 H2238 0.960 . S
C2252 H2239 0.960 . S
C2252 C2251 1.524 1_455 S
C2253 C2250 1.403 . S
C2253 C2254 1.392 . S
C2253 C2257 1.495 . S
C2254 C2253 1.392 . S
C2254 C2255 1.385 . S
C2254 C2256 1.478 . S
C2255 H2249 0.930 1_655 S
C2255 C2251 1.400 . S
C2255 C2254 1.385 . S
C2256 C2254 1.478 . S
C2256 C2258 1.381 . S
C2256 C2262 1.383 . S
C2257 C2253 1.495 . S
C2257 H2263 0.959 . S
C2257 H2264 0.961 . S
C2257 H2265 0.960 . S
C2258 C2256 1.381 . S
C2258 C2259 1.394 . S
C2258 H2266 0.930 . S
C2259 C2258 1.394 . S
C2259 C2260 1.383 . S
C2259 H2267 0.929 . S
C2260 C2259 1.383 . S
C2260 C2261 1.377 . S
C2261 H2245 0.930 . S
C2261 C2260 1.377 . S
C2261 C2262 1.379 . S
C2262 H2246 0.931 . S
C2262 C2256 1.383 . S
C2262 C2261 1.379 . S
H2263 C2257 0.959 . S
H2264 C2257 0.961 . S
H2265 C2257 0.960 . S
H2266 C2258 0.930 . S
H2267 C2259 0.929 . S
H2268 C2276 0.929 . S
H2269 C2278 0.930 . S
H2270 C2280 0.930 . S
H2271 C2283 0.929 . S
H2272 C2286 0.930 . S
H2273 C2288 0.960 . S
H2274 C2288 0.960 . S
H2275 C2288 0.960 . S
C2276 H2268 0.929 . S
C2276 C2277 1.377 . S
C2276 C2278 1.384 . S
C2277 C2276 1.377 . S
C2277 C2283 1.390 . S
C2278 H2269 0.930 . S
C2278 C2276 1.384 . S
C2278 C2279 1.372 . S
C2279 C2278 1.372 . S
C2279 C2280 1.400 . S
C2279 C2284 1.490 . S
C2280 H2270 0.930 . S
C2280 C2279 1.400 . S
C2280 C2283 1.386 . S
H2281 C2297 0.930 . S
H2282 C2298 0.931 . S
C2283 H2271 0.929 . S
C2283 C2277 1.390 . S
C2283 C2280 1.386 . S
C2284 C2279 1.490 . S
C2284 C2286 1.395 . S
C2284 C2287 1.403 . S
H2285 C2291 0.930 . S
C2286 H2272 0.930 . S
C2286 C2284 1.395 . S
C2286 C2289 1.403 . S
C2287 C2284 1.403 . S
C2287 C2288 1.524 . S
C2287 C2291 1.400 . S
C2288 H2273 0.960 . S
C2288 H2274 0.960 . S
C2288 H2275 0.960 . S
C2288 C2287 1.524 . S
C2289 C2286 1.403 . S
C2289 C2290 1.392 . S
C2289 C2293 1.495 . S
C2290 C2289 1.392 . S
C2290 C2291 1.385 . S
C2290 C2292 1.478 . S
C2291 H2285 0.930 . S
C2291 C2287 1.400 . S
C2291 C2290 1.385 . S
C2292 C2290 1.478 . S
C2292 C2294 1.381 . S
C2292 C2298 1.383 . S
C2293 C2289 1.495 . S
C2293 H2299 0.959 . S
C2293 H2300 0.961 . S
C2293 H2301 0.960 . S
C2294 C2292 1.381 . S
C2294 C2295 1.394 . S
C2294 H2302 0.930 . S
C2295 C2294 1.394 . S
C2295 C2296 1.383 . S
C2295 H2303 0.929 . S
C2296 C2295 1.383 . S
C2296 C2297 1.377 . S
C2297 H2281 0.930 . S
C2297 C2296 1.377 . S
C2297 C2298 1.379 . S
C2298 H2282 0.931 . S
C2298 C2292 1.383 . S
C2298 C2297 1.379 . S
H2299 C2293 0.959 . S
H2300 C2293 0.961 . S
H2301 C2293 0.960 . S
H2302 C2294 0.930 . S
H2303 C2295 0.929 . S
H2304 C2312 0.929 . S
H2305 C2314 0.930 . S
H2306 C2316 0.930 . S
H2307 C2319 0.929 . S
H2308 C2322 0.930 . S
H2309 C2324 0.960 . S
H2310 C2324 0.960 . S
H2311 C2324 0.960 . S
C2312 H2304 0.929 . S
C2312 C2313 1.377 . S
C2312 C2314 1.384 . S
C2313 C2312 1.377 . S
C2313 C2319 1.390 . S
C2314 H2305 0.930 . S
C2314 C2312 1.384 . S
C2314 C2315 1.372 . S
C2315 C2314 1.372 . S
C2315 C2316 1.400 . S
C2315 C2320 1.490 . S
C2316 H2306 0.930 . S
C2316 C2315 1.400 . S
C2316 C2319 1.386 . S
H2317 C2333 0.930 . S
H2318 C2334 0.931 . S
C2319 H2307 0.929 . S
C2319 C2313 1.390 . S
C2319 C2316 1.386 . S
C2320 C2315 1.490 . S
C2320 C2322 1.395 . S
C2320 C2323 1.403 . S
H2321 C2327 0.930 . S
C2322 H2308 0.930 . S
C2322 C2320 1.395 . S
C2322 C2325 1.403 . S
C2323 C2320 1.403 . S
C2323 C2324 1.524 . S
C2323 C2327 1.400 . S
C2324 H2309 0.960 . S
C2324 H2310 0.960 . S
C2324 H2311 0.960 . S
C2324 C2323 1.524 . S
C2325 C2322 1.403 . S
C2325 C2326 1.392 . S
C2325 C2329 1.495 . S
C2326 C2325 1.392 . S
C2326 C2327 1.385 . S
C2326 C2328 1.478 . S
C2327 H2321 0.930 . S
C2327 C2323 1.400 . S
C2327 C2326 1.385 . S
C2328 C2326 1.478 . S
C2328 C2330 1.381 . S
C2328 C2334 1.383 . S
C2329 C2325 1.495 . S
C2329 H2335 0.959 . S
C2329 H2336 0.961 . S
C2329 H2337 0.960 . S
C2330 C2328 1.381 . S
C2330 C2331 1.394 1_545 S
C2330 H2338 0.930 1_545 S
C2331 C2330 1.394 1_565 S
C2331 C2332 1.383 1_565 S
C2331 H2339 0.929 . S
C2332 C2331 1.383 1_545 S
C2332 C2333 1.377 . S
C2333 H2317 0.930 . S
C2333 C2332 1.377 . S
C2333 C2334 1.379 . S
C2334 H2318 0.931 . S
C2334 C2328 1.383 . S
C2334 C2333 1.379 . S
H2335 C2329 0.959 . S
H2336 C2329 0.961 . S
H2337 C2329 0.960 . S
H2338 C2330 0.930 1_565 S
H2339 C2331 0.929 . S
H2340 C2348 0.929 . S
H2341 C2350 0.930 . S
H2342 C2352 0.930 . S
H2343 C2355 0.929 . S
H2344 C2358 0.930 . S
H2345 C2360 0.960 . S
H2346 C2360 0.960 . S
H2347 C2360 0.960 . S
C2348 H2340 0.929 . S
C2348 C2349 1.377 . S
C2348 C2350 1.384 . S
C2349 C2348 1.377 . S
C2349 C2355 1.390 . S
C2350 H2341 0.930 . S
C2350 C2348 1.384 . S
C2350 C2351 1.372 . S
C2351 C2350 1.372 . S
C2351 C2352 1.400 . S
C2351 C2356 1.490 . S
C2352 H2342 0.930 . S
C2352 C2351 1.400 . S
C2352 C2355 1.386 . S
H2353 C2369 0.930 . S
H2354 C2370 0.931 . S
C2355 H2343 0.929 . S
C2355 C2349 1.390 . S
C2355 C2352 1.386 . S
C2356 C2351 1.490 . S
C2356 C2358 1.395 . S
C2356 C2359 1.403 . S
H2357 C2363 0.930 . S
C2358 H2344 0.930 . S
C2358 C2356 1.395 . S
C2358 C2361 1.403 . S
C2359 C2356 1.403 . S
C2359 C2360 1.524 . S
C2359 C2363 1.400 . S
C2360 H2345 0.960 . S
C2360 H2346 0.960 . S
C2360 H2347 0.960 . S
C2360 C2359 1.524 . S
C2361 C2358 1.403 . S
C2361 C2362 1.392 . S
C2361 C2365 1.495 . S
C2362 C2361 1.392 . S
C2362 C2363 1.385 . S
C2362 C2364 1.478 . S
C2363 H2357 0.930 . S
C2363 C2359 1.400 . S
C2363 C2362 1.385 . S
C2364 C2362 1.478 . S
C2364 C2366 1.381 . S
C2364 C2370 1.383 . S
C2365 C2361 1.495 . S
C2365 H2371 0.959 . S
C2365 H2372 0.961 . S
C2365 H2373 0.960 . S
C2366 C2364 1.381 . S
C2366 C2367 1.394 . S
C2366 H2374 0.930 . S
C2367 C2366 1.394 . S
C2367 C2368 1.383 . S
C2367 H2375 0.929 . S
C2368 C2367 1.383 . S
C2368 C2369 1.377 . S
C2369 H2353 0.930 . S
C2369 C2368 1.377 . S
C2369 C2370 1.379 . S
C2370 H2354 0.931 . S
C2370 C2364 1.383 . S
C2370 C2369 1.379 . S
H2371 C2365 0.959 . S
H2372 C2365 0.961 . S
H2373 C2365 0.960 . S
H2374 C2366 0.930 . S
H2375 C2367 0.929 . S
H2376 C2384 0.929 . S
H2377 C2386 0.930 . S
H2378 C2388 0.930 . S
H2379 C2391 0.929 . S
H2380 C2394 0.930 . S
H2381 C2396 0.960 . S
H2382 C2396 0.960 . S
H2383 C2396 0.960 . S
C2384 H2376 0.929 . S
C2384 C2385 1.377 . S
C2384 C2386 1.384 . S
C2385 C2384 1.377 . S
C2385 C2391 1.390 . S
C2386 H2377 0.930 . S
C2386 C2384 1.384 . S
C2386 C2387 1.372 . S
C2387 C2386 1.372 . S
C2387 C2388 1.400 . S
C2387 C2392 1.490 . S
C2388 H2378 0.930 . S
C2388 C2387 1.400 . S
C2388 C2391 1.386 . S
H2389 C2405 0.930 . S
H2390 C2406 0.931 . S
C2391 H2379 0.929 . S
C2391 C2385 1.390 . S
C2391 C2388 1.386 . S
C2392 C2387 1.490 . S
C2392 C2394 1.395 . S
C2392 C2395 1.403 . S
H2393 C2399 0.930 . S
C2394 H2380 0.930 . S
C2394 C2392 1.395 . S
C2394 C2397 1.403 . S
C2395 C2392 1.403 . S
C2395 C2396 1.524 . S
C2395 C2399 1.400 . S
C2396 H2381 0.960 . S
C2396 H2382 0.960 . S
C2396 H2383 0.960 . S
C2396 C2395 1.524 . S
C2397 C2394 1.403 . S
C2397 C2398 1.392 . S
C2397 C2401 1.495 . S
C2398 C2397 1.392 . S
C2398 C2399 1.385 . S
C2398 C2400 1.478 . S
C2399 H2393 0.930 . S
C2399 C2395 1.400 . S
C2399 C2398 1.385 . S
C2400 C2398 1.478 . S
C2400 C2402 1.381 . S
C2400 C2406 1.383 . S
C2401 C2397 1.495 . S
C2401 H2407 0.959 . S
C2401 H2408 0.961 . S
C2401 H2409 0.960 . S
C2402 C2400 1.381 . S
C2402 C2403 1.394 . S
C2402 H2410 0.930 . S
C2403 C2402 1.394 . S
C2403 C2404 1.383 . S
C2403 H2411 0.929 . S
C2404 C2403 1.383 . S
C2404 C2405 1.377 . S
C2405 H2389 0.930 . S
C2405 C2404 1.377 . S
C2405 C2406 1.379 . S
C2406 H2390 0.931 . S
C2406 C2400 1.383 . S
C2406 C2405 1.379 . S
H2407 C2401 0.959 . S
H2408 C2401 0.961 . S
H2409 C2401 0.960 . S
H2410 C2402 0.930 . S
H2411 C2403 0.929 . S
H2412 C2420 0.929 . S
H2413 C2422 0.930 . S
H2414 C2424 0.930 . S
H2415 C2427 0.929 . S
H2416 C2430 0.930 . S
H2417 C2432 0.960 . S
H2418 C2432 0.960 . S
H2419 C2432 0.960 . S
C2420 H2412 0.929 . S
C2420 C2421 1.377 . S
C2420 C2422 1.384 . S
C2421 C2420 1.377 . S
C2421 C2427 1.390 . S
C2422 H2413 0.930 . S
C2422 C2420 1.384 . S
C2422 C2423 1.372 . S
C2423 C2422 1.372 . S
C2423 C2424 1.400 . S
C2423 C2428 1.490 . S
C2424 H2414 0.930 . S
C2424 C2423 1.400 . S
C2424 C2427 1.386 . S
H2425 C2441 0.930 . S
H2426 C2442 0.931 . S
C2427 H2415 0.929 . S
C2427 C2421 1.390 . S
C2427 C2424 1.386 . S
C2428 C2423 1.490 . S
C2428 C2430 1.395 . S
C2428 C2431 1.403 . S
H2429 C2435 0.930 . S
C2430 H2416 0.930 . S
C2430 C2428 1.395 . S
C2430 C2433 1.403 . S
C2431 C2428 1.403 . S
C2431 C2432 1.524 . S
C2431 C2435 1.400 . S
C2432 H2417 0.960 . S
C2432 H2418 0.960 . S
C2432 H2419 0.960 . S
C2432 C2431 1.524 . S
C2433 C2430 1.403 . S
C2433 C2434 1.392 . S
C2433 C2437 1.495 . S
C2434 C2433 1.392 . S
C2434 C2435 1.385 . S
C2434 C2436 1.478 . S
C2435 H2429 0.930 . S
C2435 C2431 1.400 . S
C2435 C2434 1.385 . S
C2436 C2434 1.478 . S
C2436 C2438 1.381 . S
C2436 C2442 1.383 . S
C2437 C2433 1.495 . S
C2437 H2443 0.959 . S
C2437 H2444 0.961 . S
C2437 H2445 0.960 . S
C2438 C2436 1.381 . S
C2438 C2439 1.394 . S
C2438 H2446 0.930 . S
C2439 C2438 1.394 . S
C2439 C2440 1.383 . S
C2439 H2447 0.929 . S
C2440 C2439 1.383 . S
C2440 C2441 1.377 . S
C2441 H2425 0.930 . S
C2441 C2440 1.377 . S
C2441 C2442 1.379 . S
C2442 H2426 0.931 . S
C2442 C2436 1.383 . S
C2442 C2441 1.379 . S
H2443 C2437 0.959 . S
H2444 C2437 0.961 . S
H2445 C2437 0.960 . S
H2446 C2438 0.930 . S
H2447 C2439 0.929 . S
H2448 C2456 0.929 . S
H2449 C2458 0.930 . S
H2450 C2460 0.930 . S
H2451 C2463 0.929 . S
H2452 C2466 0.930 . S
H2453 C2468 0.960 . S
H2454 C2468 0.960 . S
H2455 C2468 0.960 . S
C2456 H2448 0.929 . S
C2456 C2457 1.377 . S
C2456 C2458 1.384 . S
C2457 C2456 1.377 . S
C2457 C2463 1.390 . S
C2458 H2449 0.930 . S
C2458 C2456 1.384 . S
C2458 C2459 1.372 . S
C2459 C2458 1.372 . S
C2459 C2460 1.400 . S
C2459 C2464 1.490 . S
C2460 H2450 0.930 . S
C2460 C2459 1.400 . S
C2460 C2463 1.386 . S
H2461 C2477 0.930 . S
H2462 C2478 0.931 . S
C2463 H2451 0.929 . S
C2463 C2457 1.390 . S
C2463 C2460 1.386 . S
C2464 C2459 1.490 . S
C2464 C2466 1.395 . S
C2464 C2467 1.403 . S
H2465 C2471 0.930 . S
C2466 H2452 0.930 . S
C2466 C2464 1.395 . S
C2466 C2469 1.403 . S
C2467 C2464 1.403 . S
C2467 C2468 1.524 . S
C2467 C2471 1.400 . S
C2468 H2453 0.960 . S
C2468 H2454 0.960 . S
C2468 H2455 0.960 . S
C2468 C2467 1.524 . S
C2469 C2466 1.403 . S
C2469 C2470 1.392 . S
C2469 C2473 1.495 . S
C2470 C2469 1.392 . S
C2470 C2471 1.385 . S
C2470 C2472 1.478 . S
C2471 H2465 0.930 . S
C2471 C2467 1.400 . S
C2471 C2470 1.385 . S
C2472 C2470 1.478 . S
C2472 C2474 1.381 . S
C2472 C2478 1.383 . S
C2473 C2469 1.495 . S
C2473 H2479 0.959 . S
C2473 H2480 0.961 . S
C2473 H2481 0.960 . S
C2474 C2472 1.381 . S
C2474 C2475 1.394 . S
C2474 H2482 0.930 . S
C2475 C2474 1.394 . S
C2475 C2476 1.383 . S
C2475 H2483 0.929 . S
C2476 C2475 1.383 . S
C2476 C2477 1.377 . S
C2477 H2461 0.930 . S
C2477 C2476 1.377 . S
C2477 C2478 1.379 . S
C2478 H2462 0.931 . S
C2478 C2472 1.383 . S
C2478 C2477 1.379 . S
H2479 C2473 0.959 . S
H2480 C2473 0.961 . S
H2481 C2473 0.960 . S
H2482 C2474 0.930 . S
H2483 C2475 0.929 . S
H2484 C2492 0.929 . S
H2485 C2494 0.930 . S
H2486 C2496 0.930 . S
H2487 C2499 0.929 . S
H2488 C2502 0.930 . S
H2489 C2504 0.960 . S
H2490 C2504 0.960 . S
H2491 C2504 0.960 . S
C2492 H2484 0.929 . S
C2492 C2493 1.377 . S
C2492 C2494 1.384 . S
C2493 C2492 1.377 . S
C2493 C2499 1.390 . S
C2494 H2485 0.930 . S
C2494 C2492 1.384 . S
C2494 C2495 1.372 . S
C2495 C2494 1.372 . S
C2495 C2496 1.400 . S
C2495 C2500 1.490 . S
C2496 H2486 0.930 . S
C2496 C2495 1.400 . S
C2496 C2499 1.386 . S
H2497 C2513 0.930 . S
H2498 C2514 0.931 . S
C2499 H2487 0.929 . S
C2499 C2493 1.390 . S
C2499 C2496 1.386 . S
C2500 C2495 1.490 . S
C2500 C2502 1.395 . S
C2500 C2503 1.403 . S
H2501 C2507 0.930 . S
C2502 H2488 0.930 . S
C2502 C2500 1.395 . S
C2502 C2505 1.403 . S
C2503 C2500 1.403 . S
C2503 C2504 1.524 . S
C2503 C2507 1.400 . S
C2504 H2489 0.960 . S
C2504 H2490 0.960 . S
C2504 H2491 0.960 . S
C2504 C2503 1.524 . S
C2505 C2502 1.403 . S
C2505 C2506 1.392 . S
C2505 C2509 1.495 . S
C2506 C2505 1.392 . S
C2506 C2507 1.385 . S
C2506 C2508 1.478 . S
C2507 H2501 0.930 . S
C2507 C2503 1.400 . S
C2507 C2506 1.385 . S
C2508 C2506 1.478 . S
C2508 C2510 1.381 . S
C2508 C2514 1.383 . S
C2509 C2505 1.495 . S
C2509 H2515 0.959 . S
C2509 H2516 0.961 . S
C2509 H2517 0.960 . S
C2510 C2508 1.381 . S
C2510 C2511 1.394 . S
C2510 H2518 0.930 . S
C2511 C2510 1.394 . S
C2511 C2512 1.383 . S
C2511 H2519 0.929 . S
C2512 C2511 1.383 . S
C2512 C2513 1.377 . S
C2513 H2497 0.930 . S
C2513 C2512 1.377 . S
C2513 C2514 1.379 . S
C2514 H2498 0.931 . S
C2514 C2508 1.383 . S
C2514 C2513 1.379 . S
H2515 C2509 0.959 . S
H2516 C2509 0.961 . S
H2517 C2509 0.960 . S
H2518 C2510 0.930 . S
H2519 C2511 0.929 . S
H2520 C2528 0.929 . S
H2521 C2530 0.930 . S
H2522 C2532 0.930 . S
H2523 C2535 0.929 . S
H2524 C2538 0.930 . S
H2525 C2540 0.960 . S
H2526 C2540 0.960 . S
H2527 C2540 0.960 . S
C2528 H2520 0.929 . S
C2528 C2529 1.377 . S
C2528 C2530 1.384 . S
C2529 C2528 1.377 . S
C2529 C2535 1.390 . S
C2530 H2521 0.930 . S
C2530 C2528 1.384 . S
C2530 C2531 1.372 . S
C2531 C2530 1.372 . S
C2531 C2532 1.400 . S
C2531 C2536 1.490 . S
C2532 H2522 0.930 . S
C2532 C2531 1.400 . S
C2532 C2535 1.386 . S
H2533 C2549 0.930 . S
H2534 C2550 0.931 . S
C2535 H2523 0.929 . S
C2535 C2529 1.390 . S
C2535 C2532 1.386 . S
C2536 C2531 1.490 . S
C2536 C2538 1.395 . S
C2536 C2539 1.403 . S
H2537 C2543 0.930 . S
C2538 H2524 0.930 . S
C2538 C2536 1.395 . S
C2538 C2541 1.403 . S
C2539 C2536 1.403 . S
C2539 C2540 1.524 . S
C2539 C2543 1.400 . S
C2540 H2525 0.960 . S
C2540 H2526 0.960 . S
C2540 H2527 0.960 . S
C2540 C2539 1.524 . S
C2541 C2538 1.403 . S
C2541 C2542 1.392 . S
C2541 C2545 1.495 . S
C2542 C2541 1.392 . S
C2542 C2543 1.385 . S
C2542 C2544 1.478 . S
C2543 H2537 0.930 . S
C2543 C2539 1.400 . S
C2543 C2542 1.385 . S
C2544 C2542 1.478 . S
C2544 C2546 1.381 . S
C2544 C2550 1.383 . S
C2545 C2541 1.495 . S
C2545 H2551 0.959 . S
C2545 H2552 0.961 . S
C2545 H2553 0.960 . S
C2546 C2544 1.381 . S
C2546 C2547 1.394 . S
C2546 H2554 0.930 . S
C2547 C2546 1.394 . S
C2547 C2548 1.383 . S
C2547 H2555 0.929 . S
C2548 C2547 1.383 . S
C2548 C2549 1.377 . S
C2549 H2533 0.930 . S
C2549 C2548 1.377 . S
C2549 C2550 1.379 . S
C2550 H2534 0.931 . S
C2550 C2544 1.383 . S
C2550 C2549 1.379 . S
H2551 C2545 0.959 . S
H2552 C2545 0.961 . S
H2553 C2545 0.960 . S
H2554 C2546 0.930 . S
H2555 C2547 0.929 . S
H2556 C2564 0.929 . S
H2557 C2566 0.930 . S
H2558 C2568 0.930 . S
H2559 C2571 0.929 . S
H2560 C2574 0.930 . S
H2561 C2576 0.960 . S
H2562 C2576 0.960 . S
H2563 C2576 0.960 . S
C2564 H2556 0.929 . S
C2564 C2565 1.377 . S
C2564 C2566 1.384 . S
C2565 C2564 1.377 . S
C2565 C2571 1.390 . S
C2566 H2557 0.930 . S
C2566 C2564 1.384 . S
C2566 C2567 1.372 . S
C2567 C2566 1.372 . S
C2567 C2568 1.400 . S
C2567 C2572 1.490 . S
C2568 H2558 0.930 . S
C2568 C2567 1.400 . S
C2568 C2571 1.386 . S
H2569 C2585 0.930 . S
H2570 C2586 0.931 . S
C2571 H2559 0.929 . S
C2571 C2565 1.390 . S
C2571 C2568 1.386 . S
C2572 C2567 1.490 . S
C2572 C2574 1.395 . S
C2572 C2575 1.403 . S
H2573 C2579 0.930 . S
C2574 H2560 0.930 . S
C2574 C2572 1.395 . S
C2574 C2577 1.403 . S
C2575 C2572 1.403 . S
C2575 C2576 1.524 . S
C2575 C2579 1.400 . S
C2576 H2561 0.960 . S
C2576 H2562 0.960 . S
C2576 H2563 0.960 . S
C2576 C2575 1.524 . S
C2577 C2574 1.403 . S
C2577 C2578 1.392 . S
C2577 C2581 1.495 . S
C2578 C2577 1.392 . S
C2578 C2579 1.385 . S
C2578 C2580 1.478 . S
C2579 H2573 0.930 . S
C2579 C2575 1.400 . S
C2579 C2578 1.385 . S
C2580 C2578 1.478 . S
C2580 C2582 1.381 . S
C2580 C2586 1.383 . S
C2581 C2577 1.495 . S
C2581 H2587 0.959 . S
C2581 H2588 0.961 . S
C2581 H2589 0.960 . S
C2582 C2580 1.381 . S
C2582 C2583 1.394 . S
C2582 H2590 0.930 . S
C2583 C2582 1.394 . S
C2583 C2584 1.383 . S
C2583 H2591 0.929 . S
C2584 C2583 1.383 . S
C2584 C2585 1.377 . S
C2585 H2569 0.930 . S
C2585 C2584 1.377 . S
C2585 C2586 1.379 . S
C2586 H2570 0.931 . S
C2586 C2580 1.383 . S
C2586 C2585 1.379 . S
H2587 C2581 0.959 . S
H2588 C2581 0.961 . S
H2589 C2581 0.960 . S
H2590 C2582 0.930 . S
H2591 C2583 0.929 . S
H2592 C2600 0.929 . S
H2593 C2602 0.930 . S
H2594 C2604 0.930 . S
H2595 C2607 0.929 . S
H2596 C2610 0.930 . S
H2597 C2612 0.960 . S
H2598 C2612 0.960 . S
H2599 C2612 0.960 . S
C2600 H2592 0.929 . S
C2600 C2601 1.377 . S
C2600 C2602 1.384 . S
C2601 C2600 1.377 . S
C2601 C2607 1.390 . S
C2602 H2593 0.930 . S
C2602 C2600 1.384 . S
C2602 C2603 1.372 . S
C2603 C2602 1.372 . S
C2603 C2604 1.400 . S
C2603 C2608 1.490 . S
C2604 H2594 0.930 . S
C2604 C2603 1.400 . S
C2604 C2607 1.386 . S
H2605 C2621 0.930 . S
H2606 C2622 0.931 . S
C2607 H2595 0.929 . S
C2607 C2601 1.390 . S
C2607 C2604 1.386 . S
C2608 C2603 1.490 . S
C2608 C2610 1.395 . S
C2608 C2611 1.403 . S
H2609 C2615 0.930 . S
C2610 H2596 0.930 . S
C2610 C2608 1.395 . S
C2610 C2613 1.403 . S
C2611 C2608 1.403 . S
C2611 C2612 1.524 . S
C2611 C2615 1.400 . S
C2612 H2597 0.960 . S
C2612 H2598 0.960 . S
C2612 H2599 0.960 . S
C2612 C2611 1.524 . S
C2613 C2610 1.403 . S
C2613 C2614 1.392 . S
C2613 C2617 1.495 . S
C2614 C2613 1.392 . S
C2614 C2615 1.385 . S
C2614 C2616 1.478 . S
C2615 H2609 0.930 . S
C2615 C2611 1.400 . S
C2615 C2614 1.385 . S
C2616 C2614 1.478 . S
C2616 C2618 1.381 . S
C2616 C2622 1.383 . S
C2617 C2613 1.495 . S
C2617 H2623 0.959 . S
C2617 H2624 0.961 . S
C2617 H2625 0.960 . S
C2618 C2616 1.381 . S
C2618 C2619 1.394 . S
C2618 H2626 0.930 . S
C2619 C2618 1.394 . S
C2619 C2620 1.383 . S
C2619 H2627 0.929 . S
C2620 C2619 1.383 . S
C2620 C2621 1.377 . S
C2621 H2605 0.930 . S
C2621 C2620 1.377 . S
C2621 C2622 1.379 . S
C2622 H2606 0.931 . S
C2622 C2616 1.383 . S
C2622 C2621 1.379 . S
H2623 C2617 0.959 . S
H2624 C2617 0.961 . S
H2625 C2617 0.960 . S
H2626 C2618 0.930 . S
H2627 C2619 0.929 . S
H2628 C2636 0.929 . S
H2629 C2638 0.930 . S
H2630 C2640 0.930 . S
H2631 C2643 0.929 . S
H2632 C2646 0.930 . S
H2633 C2648 0.960 . S
H2634 C2648 0.960 . S
H2635 C2648 0.960 . S
C2636 H2628 0.929 . S
C2636 C2637 1.377 . S
C2636 C2638 1.384 . S
C2637 C2636 1.377 . S
C2637 C2643 1.390 . S
C2638 H2629 0.930 . S
C2638 C2636 1.384 . S
C2638 C2639 1.372 . S
C2639 C2638 1.372 . S
C2639 C2640 1.400 . S
C2639 C2644 1.490 . S
C2640 H2630 0.930 . S
C2640 C2639 1.400 . S
C2640 C2643 1.386 . S
H2641 C2657 0.930 . S
H2642 C2658 0.931 . S
C2643 H2631 0.929 . S
C2643 C2637 1.390 . S
C2643 C2640 1.386 . S
C2644 C2639 1.490 . S
C2644 C2646 1.395 . S
C2644 C2647 1.403 . S
H2645 C2651 0.930 . S
C2646 H2632 0.930 . S
C2646 C2644 1.395 . S
C2646 C2649 1.403 . S
C2647 C2644 1.403 . S
C2647 C2648 1.524 . S
C2647 C2651 1.400 . S
C2648 H2633 0.960 . S
C2648 H2634 0.960 . S
C2648 H2635 0.960 . S
C2648 C2647 1.524 . S
C2649 C2646 1.403 . S
C2649 C2650 1.392 . S
C2649 C2653 1.495 . S
C2650 C2649 1.392 . S
C2650 C2651 1.385 . S
C2650 C2652 1.478 . S
C2651 H2645 0.930 . S
C2651 C2647 1.400 . S
C2651 C2650 1.385 . S
C2652 C2650 1.478 . S
C2652 C2654 1.381 . S
C2652 C2658 1.383 . S
C2653 C2649 1.495 . S
C2653 H2659 0.959 . S
C2653 H2660 0.961 . S
C2653 H2661 0.960 . S
C2654 C2652 1.381 . S
C2654 C2655 1.394 . S
C2654 H2662 0.930 . S
C2655 C2654 1.394 . S
C2655 C2656 1.383 . S
C2655 H2663 0.929 . S
C2656 C2655 1.383 . S
C2656 C2657 1.377 . S
C2657 H2641 0.930 . S
C2657 C2656 1.377 . S
C2657 C2658 1.379 . S
C2658 H2642 0.931 . S
C2658 C2652 1.383 . S
C2658 C2657 1.379 . S
H2659 C2653 0.959 . S
H2660 C2653 0.961 . S
H2661 C2653 0.960 . S
H2662 C2654 0.930 . S
H2663 C2655 0.929 . S
H2664 C2672 0.929 . S
H2665 C2674 0.930 . S
H2666 C2676 0.930 . S
H2667 C2679 0.929 . S
H2668 C2682 0.930 . S
H2669 C2684 0.960 . S
H2670 C2684 0.960 . S
H2671 C2684 0.960 . S
C2672 H2664 0.929 . S
C2672 C2673 1.377 . S
C2672 C2674 1.384 . S
C2673 C2672 1.377 . S
C2673 C2679 1.390 . S
C2674 H2665 0.930 . S
C2674 C2672 1.384 . S
C2674 C2675 1.372 . S
C2675 C2674 1.372 . S
C2675 C2676 1.400 . S
C2675 C2680 1.490 . S
C2676 H2666 0.930 . S
C2676 C2675 1.400 . S
C2676 C2679 1.386 . S
H2677 C2693 0.930 . S
H2678 C2694 0.931 . S
C2679 H2667 0.929 . S
C2679 C2673 1.390 . S
C2679 C2676 1.386 . S
C2680 C2675 1.490 . S
C2680 C2682 1.395 . S
C2680 C2683 1.403 . S
H2681 C2687 0.930 . S
C2682 H2668 0.930 . S
C2682 C2680 1.395 . S
C2682 C2685 1.403 . S
C2683 C2680 1.403 . S
C2683 C2684 1.524 . S
C2683 C2687 1.400 . S
C2684 H2669 0.960 . S
C2684 H2670 0.960 . S
C2684 H2671 0.960 . S
C2684 C2683 1.524 . S
C2685 C2682 1.403 . S
C2685 C2686 1.392 . S
C2685 C2689 1.495 . S
C2686 C2685 1.392 . S
C2686 C2687 1.385 . S
C2686 C2688 1.478 . S
C2687 H2681 0.930 . S
C2687 C2683 1.400 . S
C2687 C2686 1.385 . S
C2688 C2686 1.478 . S
C2688 C2690 1.381 . S
C2688 C2694 1.383 . S
C2689 C2685 1.495 . S
C2689 H2695 0.959 . S
C2689 H2696 0.961 . S
C2689 H2697 0.960 . S
C2690 C2688 1.381 . S
C2690 C2691 1.394 . S
C2690 H2698 0.930 . S
C2691 C2690 1.394 . S
C2691 C2692 1.383 . S
C2691 H2699 0.929 . S
C2692 C2691 1.383 . S
C2692 C2693 1.377 . S
C2693 H2677 0.930 . S
C2693 C2692 1.377 . S
C2693 C2694 1.379 . S
C2694 H2678 0.931 . S
C2694 C2688 1.383 . S
C2694 C2693 1.379 . S
H2695 C2689 0.959 . S
H2696 C2689 0.961 . S
H2697 C2689 0.960 . S
H2698 C2690 0.930 . S
H2699 C2691 0.929 . S
H2700 C2708 0.929 . S
H2701 C2710 0.930 . S
H2702 C2712 0.930 . S
H2703 C2715 0.929 . S
H2704 C2718 0.930 . S
H2705 C2720 0.960 . S
H2706 C2720 0.960 . S
H2707 C2720 0.960 . S
C2708 H2700 0.929 . S
C2708 C2709 1.377 . S
C2708 C2710 1.384 . S
C2709 C2708 1.377 . S
C2709 C2715 1.390 . S
C2710 H2701 0.930 . S
C2710 C2708 1.384 . S
C2710 C2711 1.372 . S
C2711 C2710 1.372 . S
C2711 C2712 1.400 . S
C2711 C2716 1.490 . S
C2712 H2702 0.930 . S
C2712 C2711 1.400 . S
C2712 C2715 1.386 . S
H2713 C2729 0.930 . S
H2714 C2730 0.931 . S
C2715 H2703 0.929 . S
C2715 C2709 1.390 . S
C2715 C2712 1.386 . S
C2716 C2711 1.490 . S
C2716 C2718 1.395 . S
C2716 C2719 1.403 . S
H2717 C2723 0.930 . S
C2718 H2704 0.930 . S
C2718 C2716 1.395 . S
C2718 C2721 1.403 . S
C2719 C2716 1.403 . S
C2719 C2720 1.524 . S
C2719 C2723 1.400 . S
C2720 H2705 0.960 . S
C2720 H2706 0.960 . S
C2720 H2707 0.960 . S
C2720 C2719 1.524 . S
C2721 C2718 1.403 . S
C2721 C2722 1.392 . S
C2721 C2725 1.495 . S
C2722 C2721 1.392 . S
C2722 C2723 1.385 . S
C2722 C2724 1.478 . S
C2723 H2717 0.930 . S
C2723 C2719 1.400 . S
C2723 C2722 1.385 . S
C2724 C2722 1.478 . S
C2724 C2726 1.381 . S
C2724 C2730 1.383 . S
C2725 C2721 1.495 . S
C2725 H2731 0.959 . S
C2725 H2732 0.961 . S
C2725 H2733 0.960 . S
C2726 C2724 1.381 . S
C2726 C2727 1.394 . S
C2726 H2734 0.930 . S
C2727 C2726 1.394 . S
C2727 C2728 1.383 . S
C2727 H2735 0.929 . S
C2728 C2727 1.383 . S
C2728 C2729 1.377 . S
C2729 H2713 0.930 . S
C2729 C2728 1.377 . S
C2729 C2730 1.379 . S
C2730 H2714 0.931 . S
C2730 C2724 1.383 . S
C2730 C2729 1.379 . S
H2731 C2725 0.959 . S
H2732 C2725 0.961 . S
H2733 C2725 0.960 . S
H2734 C2726 0.930 . S
H2735 C2727 0.929 . S
H2736 C2744 0.929 . S
H2737 C2746 0.930 . S
H2738 C2748 0.930 . S
H2739 C2751 0.929 . S
H2740 C2754 0.930 . S
H2741 C2756 0.960 . S
H2742 C2756 0.960 . S
H2743 C2756 0.960 . S
C2744 H2736 0.929 . S
C2744 C2745 1.377 . S
C2744 C2746 1.384 . S
C2745 C2744 1.377 . S
C2745 C2751 1.390 . S
C2746 H2737 0.930 . S
C2746 C2744 1.384 . S
C2746 C2747 1.372 . S
C2747 C2746 1.372 . S
C2747 C2748 1.400 . S
C2747 C2752 1.490 . S
C2748 H2738 0.930 . S
C2748 C2747 1.400 . S
C2748 C2751 1.386 . S
H2749 C2765 0.930 . S
H2750 C2766 0.931 . S
C2751 H2739 0.929 . S
C2751 C2745 1.390 . S
C2751 C2748 1.386 . S
C2752 C2747 1.490 . S
C2752 C2754 1.395 . S
C2752 C2755 1.403 . S
H2753 C2759 0.930 . S
C2754 H2740 0.930 . S
C2754 C2752 1.395 . S
C2754 C2757 1.403 . S
C2755 C2752 1.403 . S
C2755 C2756 1.524 . S
C2755 C2759 1.400 . S
C2756 H2741 0.960 . S
C2756 H2742 0.960 . S
C2756 H2743 0.960 . S
C2756 C2755 1.524 . S
C2757 C2754 1.403 . S
C2757 C2758 1.392 . S
C2757 C2761 1.495 . S
C2758 C2757 1.392 . S
C2758 C2759 1.385 . S
C2758 C2760 1.478 . S
C2759 H2753 0.930 . S
C2759 C2755 1.400 . S
C2759 C2758 1.385 . S
C2760 C2758 1.478 . S
C2760 C2762 1.381 . S
C2760 C2766 1.383 . S
C2761 C2757 1.495 . S
C2761 H2767 0.959 . S
C2761 H2768 0.961 . S
C2761 H2769 0.960 . S
C2762 C2760 1.381 . S
C2762 C2763 1.394 . S
C2762 H2770 0.930 . S
C2763 C2762 1.394 . S
C2763 C2764 1.383 . S
C2763 H2771 0.929 . S
C2764 C2763 1.383 . S
C2764 C2765 1.377 . S
C2765 H2749 0.930 . S
C2765 C2764 1.377 . S
C2765 C2766 1.379 . S
C2766 H2750 0.931 . S
C2766 C2760 1.383 . S
C2766 C2765 1.379 . S
H2767 C2761 0.959 . S
H2768 C2761 0.961 . S
H2769 C2761 0.960 . S
H2770 C2762 0.930 . S
H2771 C2763 0.929 . S
C837 C469 1.553 . S
C856 C654 1.510 . S
C873 C505 1.540 . S
C892 C674 1.498 . S
C909 C433 1.572 . S
C928 C697 1.542 . S
C945 C397 1.452 . S
C964 C677 1.450 . S
C1000 C694 1.389 . S
C981 C325 1.406 . S
C1017 C361 1.436 . S
C1036 C657 1.436 . S
C1072 C664 1.512 . S
C1053 C421 1.559 . S
C1108 C684 1.514 . S
C1089 C349 1.537 . S
C1125 C385 1.567 . S
C1144 C689 1.542 . S
C1161 C493 1.451 . S
C1180 C669 1.452 . S
C1197 C529 1.412 . S
C1216 C704 1.370 . S
C1252 C649 1.431 . S
C1233 C457 1.435 . S
C1288 C714 1.511 . S
C1269 C37 1.553 . S
C1305 C73 1.540 . S
C1324 C734 1.488 . S
C1341 C1 1.571 . S
C1360 C757 1.544 . S
C1377 C613 1.452 . S
C1396 C737 1.449 . S
C1413 C541 1.410 . S
C1432 C754 1.392 . S
C1449 C577 1.436 . S
C1468 C717 1.426 . S
C1485 C637 1.559 . S
C1504 C724 1.545 . S
C1521 C565 1.537 . S
C1540 C744 1.494 . S
C1576 C749 1.545 . S
C1557 C601 1.567 . S
C1593 C61 1.450 . S
C1612 C729 1.451 . S
C1648 C764 1.394 . S
C1629 C97 1.412 . S
C1665 C25 1.437 . S
C1684 C709 1.435 . S
C1720 C774 1.527 . S
C1701 C253 1.555 . S
C1737 C289 1.540 . S
C1756 C794 1.511 . S
C1792 C817 1.548 . S
C1773 C217 1.571 . S
C1828 C797 1.430 . S
C1809 C181 1.451 . S
C1864 C814 1.374 . S
C1845 C109 1.408 . S
C1881 C145 1.433 . S
C1900 C777 1.408 . S
C1917 C205 1.559 . S
C1936 C784 1.534 . S
C1953 C133 1.537 . S
C1972 C804 1.492 . S
C2008 C809 1.547 . S
C1989 C169 1.568 . S
C2025 C277 1.451 . S
C2044 C789 1.450 . S
C2061 C313 1.412 . S
C2080 C824 1.407 . S
C2097 C241 1.437 . S
C2116 C769 1.431 . S
C2133 C571 1.217 . S
C2152 C667 1.163 1_565 S
C2188 C687 1.619 . S
C2169 C607 1.718 . S
C2205 C643 1.490 . S
C2224 C696 1.417 . S
C2241 C247 1.716 . S
C2260 C676 1.669 1_655 S
C2277 C283 1.495 . S
C2296 C707 1.427 . S
C2332 C656 1.203 1_545 S
C2313 C319 1.215 . S
C2349 C139 1.217 . S
C2368 C727 1.166 . S
C2385 C175 1.718 . S
C2404 C747 1.667 . S
C2421 C211 1.490 . S
C2440 C756 1.427 . S
C2457 C463 1.715 . S
C2476 C736 1.651 . S
C2512 C767 1.441 . S
C2493 C499 1.494 . S
C2529 C535 1.215 . S
C2548 C716 1.159 . S
C2565 C355 1.216 . S
C2584 C787 1.213 . S
C2601 C391 1.717 . S
C2620 C807 1.664 . S
C2656 C816 1.423 . S
C2637 C427 1.491 . S
C2673 C31 1.713 . S
C2692 C796 1.620 . S
C2709 C67 1.494 . S
C2728 C827 1.445 . S
C2745 C103 1.213 . S
C2764 C776 1.175 . S
