# Generated by pormake.
# Topology zzz, (3,6)-cn, num edge types: 1
# Building blocks:
#     Node 0, Type 0, BuildingBlock: CUQRIR_clean_linker_1, # of connection points: 3
#     Node 1, Type 0, BuildingBlock: CUQRIR_clean_linker_1, # of connection points: 3
#     Node 2, Type 0, BuildingBlock: CUQRIR_clean_linker_1, # of connection points: 3
#     Node 3, Type 0, BuildingBlock: CUQRIR_clean_linker_1, # of connection points: 3
#     Node 4, Type 0, BuildingBlock: CUQRIR_clean_linker_1, # of connection points: 3
#     Node 5, Type 0, BuildingBlock: CUQRIR_clean_linker_1, # of connection points: 3
#     Node 6, Type 0, BuildingBlock: CUQRIR_clean_linker_1, # of connection points: 3
#     Node 7, Type 0, BuildingBlock: CUQRIR_clean_linker_1, # of connection points: 3
#     Node 8, Type 1, BuildingBlock: BETDEL_clean_sbu_0, # of connection points: 6
#     Node 9, Type 1, BuildingBlock: BETDEL_clean_sbu_0, # of connection points: 6
#     Node 10, Type 1, BuildingBlock: BETDEL_clean_sbu_0, # of connection points: 6
#     Node 11, Type 1, BuildingBlock: BETDEL_clean_sbu_0, # of connection points: 6
#     Edge 12, Type (0, 1), BuildingBlock: XIVTED_clean_linker_0, # of connection points: 2
#     Edge 13, Type (0, 1), BuildingBlock: XIVTED_clean_linker_0, # of connection points: 2
#     Edge 14, Type (0, 1), BuildingBlock: XIVTED_clean_linker_0, # of connection points: 2
#     Edge 15, Type (0, 1), BuildingBlock: XIVTED_clean_linker_0, # of connection points: 2
#     Edge 16, Type (0, 1), BuildingBlock: XIVTED_clean_linker_0, # of connection points: 2
#     Edge 17, Type (0, 1), BuildingBlock: XIVTED_clean_linker_0, # of connection points: 2
#     Edge 18, Type (0, 1), BuildingBlock: XIVTED_clean_linker_0, # of connection points: 2
#     Edge 19, Type (0, 1), BuildingBlock: XIVTED_clean_linker_0, # of connection points: 2
#     Edge 20, Type (0, 1), BuildingBlock: XIVTED_clean_linker_0, # of connection points: 2
#     Edge 21, Type (0, 1), BuildingBlock: XIVTED_clean_linker_0, # of connection points: 2
#     Edge 22, Type (0, 1), BuildingBlock: XIVTED_clean_linker_0, # of connection points: 2
#     Edge 23, Type (0, 1), BuildingBlock: XIVTED_clean_linker_0, # of connection points: 2
#     Edge 24, Type (0, 1), BuildingBlock: XIVTED_clean_linker_0, # of connection points: 2
#     Edge 25, Type (0, 1), BuildingBlock: XIVTED_clean_linker_0, # of connection points: 2
#     Edge 26, Type (0, 1), BuildingBlock: XIVTED_clean_linker_0, # of connection points: 2
#     Edge 27, Type (0, 1), BuildingBlock: XIVTED_clean_linker_0, # of connection points: 2
#     Edge 28, Type (0, 1), BuildingBlock: XIVTED_clean_linker_0, # of connection points: 2
#     Edge 29, Type (0, 1), BuildingBlock: XIVTED_clean_linker_0, # of connection points: 2
#     Edge 30, Type (0, 1), BuildingBlock: XIVTED_clean_linker_0, # of connection points: 2
#     Edge 31, Type (0, 1), BuildingBlock: XIVTED_clean_linker_0, # of connection points: 2
#     Edge 32, Type (0, 1), BuildingBlock: XIVTED_clean_linker_0, # of connection points: 2
#     Edge 33, Type (0, 1), BuildingBlock: XIVTED_clean_linker_0, # of connection points: 2
#     Edge 34, Type (0, 1), BuildingBlock: XIVTED_clean_linker_0, # of connection points: 2
#     Edge 35, Type (0, 1), BuildingBlock: XIVTED_clean_linker_0, # of connection points: 2
# Relax obj value: 0.173
# Max RMSD: 0.193
# Mean RMSD: 0.119
data_MOF--net-zzz--node1-BETDEL_clean_sbu_0--node2-CUQRIR_clean_linker_1--edge1-XIVTED_clean_linker_0
_symmetry_space_group_name_H-M    P1
_symmetry_Int_Tables_number       1
_symmetry_cell_setting            triclinic
loop_
_symmetry_equiv_pos_as_xyz
'x, y, z'
_cell_length_a     46.478603
_cell_length_b     47.627057
_cell_length_c     13.190824
_cell_angle_alpha  91.629303
_cell_angle_beta   88.408218
_cell_angle_gamma 95.160462
loop_
_atom_site_label
_atom_site_type_symbol
_atom_site_fract_x
_atom_site_fract_y
_atom_site_fract_z
_atom_type_partial_charge
C0 C 0.73462 0.51388 0.19116 0.0
N1 N 0.7639 0.51437 0.18841 0.0
N2 N 0.72453 0.51648 0.09621 0.0
C3 C 0.71589 0.50837 0.28394 0.0
C4 C 0.74867 0.51823 0.03624 0.0
N5 N 0.77241 0.51711 0.092 0.0
C6 C 0.74884 0.51933 0.92244 0.0
H7 H 0.712 0.48524 0.29323 0.0
H8 H 0.69473 0.51711 0.2763 0.0
H9 H 0.72684 0.51762 0.35242 0.0
H10 H 0.76999 0.52868 0.89243 0.0
H11 H 0.73136 0.53175 0.89733 0.0
H12 H 0.74485 0.49756 0.89061 0.0
C13 C 1.0064 0.73735 0.15043 0.0
N14 N 0.01277 0.76564 0.15871 0.0
N15 N 0.01564 0.72742 0.05876 0.0
C16 C 0.98806 0.72017 0.22542 0.0
C17 C 0.02766 0.75075 0.01208 0.0
N18 N 0.02606 0.77387 0.07278 0.0
C19 C 0.03949 0.75123 0.90486 0.0
H20 H 0.98941 0.73014 0.30242 0.0
H21 H 0.99482 0.69844 0.22706 0.0
H22 H 0.96525 0.71882 0.20171 0.0
H23 H 0.0217 0.75397 0.85266 0.0
H24 H 0.04875 0.7311 0.88416 0.0
H25 H 0.05629 0.76911 0.89518 0.0
C26 C 0.77047 0.99766 0.17887 0.0
N27 N 0.74509 0.00969 0.1823 0.0
N28 N 0.78969 0.01144 0.11405 0.0
C29 C 0.77563 0.97122 0.23189 0.0
C30 C 0.77484 0.03198 0.07767 0.0
N31 N 0.74759 0.03072 0.11761 0.0
C32 C 0.78651 0.05195 0.99691 0.0
H33 H 0.76496 0.971 0.30822 0.0
H34 H 0.79912 0.9693 0.23865 0.0
H35 H 0.766 0.95281 0.18723 0.0
H36 H 0.78736 0.04033 0.92293 0.0
H37 H 0.80889 0.06039 0.01451 0.0
H38 H 0.77293 0.0698 0.99067 0.0
C39 C 0.5187 0.77178 0.18036 0.0
N40 N 0.51326 0.74345 0.18753 0.0
N41 N 0.50725 0.78082 0.09444 0.0
C42 C 0.53538 0.79036 0.25589 0.0
C43 C 0.49499 0.75679 0.0498 0.0
N44 N 0.49838 0.73435 0.10698 0.0
C45 C 0.48131 0.755 0.94747 0.0
H46 H 0.53309 0.78128 0.33256 0.0
H47 H 0.52797 0.81189 0.25811 0.0
H48 H 0.5586 0.7919 0.23289 0.0
H49 H 0.48166 0.73361 0.91229 0.0
H50 H 0.49255 0.77067 0.8959 0.0
H51 H 0.45844 0.75974 0.95682 0.0
C52 C 0.28681 0.50602 0.96676 0.0
N53 N 0.25854 0.51101 0.96299 0.0
N54 N 0.29825 0.51608 0.05607 0.0
C55 C 0.3028 0.49053 0.88595 0.0
C56 C 0.27579 0.52691 0.10629 0.0
N57 N 0.25195 0.52405 0.04958 0.0
C58 C 0.27683 0.53873 0.21328 0.0
H59 H 0.30024 0.46768 0.90185 0.0
H60 H 0.32619 0.49772 0.88589 0.0
H61 H 0.29383 0.49358 0.81035 0.0
H62 H 0.28932 0.55971 0.21352 0.0
H63 H 0.28818 0.52483 0.2618 0.0
H64 H 0.25495 0.54124 0.24598 0.0
C65 C 0.02293 0.27626 0.98722 0.0
N66 N 0.01728 0.24782 0.98217 0.0
N67 N 0.02174 0.2858 0.08533 0.0
C68 C 0.02922 0.29465 0.89749 0.0
C69 C 0.015 0.26217 0.13906 0.0
N70 N 0.01242 0.23928 0.07646 0.0
C71 C 0.01116 0.26149 0.25267 0.0
H72 H 0.04461 0.31299 0.91779 0.0
H73 H 0.0088 0.30274 0.87431 0.0
H74 H 0.03808 0.2826 0.83242 0.0
H75 H 1.00117 0.28051 0.28197 0.0
H76 H 0.03268 0.26132 0.28689 0.0
H77 H 0.99765 0.24238 0.27696 0.0
C78 C 0.2374 0.00975 0.96618 0.0
N79 N 0.26456 1.00149 0.96983 0.0
N80 N 0.21949 0.99552 0.03432 0.0
C81 C 0.22881 0.03256 0.90035 0.0
C82 C 0.23693 0.97863 0.0798 0.0
N83 N 0.26425 0.9824 0.04138 0.0
C84 C 0.22755 0.95983 0.16702 0.0
H85 H 0.20514 0.03041 0.88901 0.0
H86 H 0.24052 0.03196 0.82594 0.0
H87 H 0.23487 0.05332 0.93788 0.0
H88 H 0.24491 0.94706 0.19024 0.0
H89 H 0.20884 0.94506 0.14515 0.0
H90 H 0.22057 0.97294 0.23254 0.0
C91 C 0.49025 0.23753 0.97511 0.0
N92 N 0.4903 0.26602 0.97456 0.0
N93 N 0.49015 0.22846 0.07199 0.0
C94 C 0.49318 0.21904 0.8823 0.0
C95 C 0.49049 0.25245 0.12962 0.0
N96 N 0.49038 0.2751 0.07065 0.0
C97 C 0.49242 0.25379 0.2432 0.0
H98 H 0.48322 0.19738 0.89608 0.0
H99 H 0.51648 0.21788 0.86376 0.0
H100 H 0.48303 0.22798 0.81672 0.0
H101 H 0.51547 0.25447 0.26368 0.0
H102 H 0.4808 0.23476 0.27686 0.0
H103 H 0.48336 0.273 0.27535 0.0
Dy104 Dy 0.01807 0.995 0.67663 0.0
C105 C 0.98039 0.04605 0.31046 0.0
C106 C 0.01815 0.96678 0.8525 0.0
Dy107 Dy 0.99009 0.01631 0.4771 0.0
O108 O 0.04 0.9831 0.8174 0.0
O109 O 0.9963 0.96704 0.79325 0.0
O110 O 0.06336 0.99152 0.60864 0.0
O111 O 0.03114 0.00602 0.52569 0.0
C112 C 0.05706 1.00068 0.52057 0.0
C113 C 0.95351 0.99925 0.62923 0.0
O114 O 0.99381 0.97137 0.42971 0.0
O115 O 1.00227 0.95515 0.59091 0.0
O116 O 0.96291 0.04286 0.38866 0.0
O117 O 1.00281 0.03207 0.32209 0.0
O118 O 0.94701 0.9965 0.53375 0.0
O119 O 0.97814 0.01249 0.63739 0.0
O120 O 0.01898 0.04111 0.71698 0.0
O121 O 0.00831 0.05654 0.55605 0.0
C122 C 0.99669 0.95066 0.49309 0.0
C123 C 0.01612 0.06148 0.65179 0.0
Dy124 Dy 0.48811 0.98881 0.50777 0.0
C125 C 0.56685 0.04729 0.78093 0.0
C126 C 0.44477 0.96563 0.38861 0.0
Dy127 Dy 0.52341 0.02352 0.66293 0.0
O128 O 0.46953 0.97683 0.35456 0.0
O129 O 0.444 0.96697 0.48676 0.0
O130 O 0.52606 0.96535 0.45807 0.0
O131 O 0.53295 0.00737 0.50999 0.0
C132 C 0.54537 0.98578 0.48189 0.0
C133 C 0.46587 0.02595 0.68836 0.0
O134 O 0.52131 0.05637 0.54654 0.0
O135 O 0.48385 0.03308 0.45664 0.0
O136 O 0.54247 0.03536 0.8157 0.0
O137 O 0.56721 0.04625 0.68273 0.0
O138 O 0.48487 0.04657 0.71313 0.0
O139 O 0.47881 0.00471 0.66057 0.0
O140 O 0.48975 0.95623 0.6251 0.0
O141 O 0.52779 0.97911 0.7134 0.0
C142 C 0.50175 0.05583 0.47526 0.0
C143 C 0.50951 0.95655 0.69557 0.0
Dy144 Dy 0.49754 0.51794 0.68296 0.0
C145 C 0.52633 0.47068 0.29613 0.0
C146 C 0.48949 0.54022 0.87361 0.0
Dy147 Dy 0.5197 0.49342 0.48671 0.0
O148 O 0.4689 0.53095 0.81335 0.0
O149 O 0.51423 0.536 0.83067 0.0
O150 O 0.46139 0.53459 0.60041 0.0
O151 O 0.47656 0.49614 0.55176 0.0
C152 C 0.45962 0.51446 0.53192 0.0
C153 C 0.55772 0.49715 0.63774 0.0
O154 O 0.52279 0.53943 0.44751 0.0
O155 O 0.51535 0.55789 0.60986 0.0
O156 O 0.54665 0.47513 0.36182 0.0
O157 O 0.50289 0.48025 0.3334 0.0
O158 O 0.55602 0.47695 0.56942 0.0
O159 O 0.54067 0.51534 0.61755 0.0
O160 O 0.49795 0.4721 0.72244 0.0
O161 O 0.49962 0.45402 0.55782 0.0
C162 C 0.52142 0.56124 0.51196 0.0
C163 C 0.4967 0.4504 0.65674 0.0
Dy164 Dy 0.99934 0.49415 0.67021 0.0
C165 C 0.0527 0.52405 0.29304 0.0
C166 C 0.96831 0.48811 0.84765 0.0
Dy167 Dy 0.02231 0.51748 0.4716 0.0
O168 O 0.97062 0.4684 0.77859 0.0
O169 O 0.98402 0.51074 0.82108 0.0
O170 O 0.01632 0.45254 0.62975 0.0
O171 O 1.00118 0.47705 0.51542 0.0
C172 C 0.01339 0.45512 0.53269 0.0
C173 C 0.00825 0.55647 0.60976 0.0
O174 O 0.97598 0.50965 0.42845 0.0
O175 O 0.95886 0.50594 0.5945 0.0
O176 O 0.04523 0.54458 0.35211 0.0
O177 O 0.0428 0.50012 0.3307 0.0
O178 O 1.00491 0.55886 0.51284 0.0
O179 O 0.02061 0.53458 0.62637 0.0
O180 O 0.04584 0.49792 0.71205 0.0
O181 O 0.06336 0.50809 0.54936 0.0
C182 C 0.95432 0.50829 0.49617 0.0
C183 C 0.06762 0.5021 0.6455 0.0
H184 H 0.20115 0.04346 0.11945 0.0
H185 H 0.08938 0.95902 0.45601 0.0
H186 H 0.17251 0.95796 0.03318 0.0
H187 H 0.06861 0.04206 0.37954 0.0
H188 H 0.12428 0.95958 0.31312 0.0
H189 H 0.15619 0.04633 0.222 0.0
C190 C 0.18492 0.02567 0.11942 0.0
C191 C 0.19052 1.00035 0.06867 0.0
C192 C 0.11186 0.97757 0.32684 0.0
C193 C 0.13999 1.00305 0.1882 0.0
C194 C 0.09208 0.9773 0.40843 0.0
C195 C 0.07612 1.00047 0.42898 0.0
C196 C 0.11658 1.00161 0.26745 0.0
C197 C 0.08044 0.02372 0.36534 0.0
C198 C 0.15945 0.02722 0.17836 0.0
C199 C 0.16907 0.9777 0.07236 0.0
N200 N 0.10077 0.02399 0.28837 0.0
N201 N 0.14515 0.97928 0.13331 0.0
H202 H 0.53984 0.21012 0.13068 0.0
H203 H 0.538 0.10446 0.47957 0.0
H204 H 0.44918 0.18532 0.10171 0.0
H205 H 0.46355 0.06505 0.32548 0.0
H206 H 0.53743 0.14514 0.37283 0.0
H207 H 0.54507 0.16705 0.22321 0.0
C208 C 0.52116 0.19518 0.14278 0.0
C209 C 0.49416 0.20091 0.10827 0.0
C210 C 0.52151 0.12745 0.36053 0.0
C211 C 0.49932 0.15238 0.21912 0.0
C212 C 0.52158 0.10424 0.42283 0.0
C213 C 0.50086 0.08108 0.41164 0.0
C214 C 0.50059 0.12772 0.28562 0.0
C215 C 0.48004 0.08231 0.33681 0.0
C216 C 0.52393 0.17089 0.1973 0.0
C217 C 0.47038 0.18129 0.1265 0.0
N218 N 0.48035 0.10527 0.2771 0.0
N219 N 0.47346 0.1579 0.18116 0.0
H220 H 0.3364 0.55997 0.10153 0.0
H221 H 0.44096 0.46889 0.40798 0.0
H222 H 0.32389 0.46948 0.10656 0.0
H223 H 0.43222 0.55749 0.46064 0.0
H224 H 0.405 0.46821 0.27335 0.0
H225 H 0.37928 0.55898 0.20483 0.0
C226 C 0.34324 0.53984 0.1226 0.0
C227 C 0.32679 0.51481 0.09543 0.0
C228 C 0.41114 0.48779 0.31413 0.0
C229 C 0.37544 0.51333 0.21606 0.0
C230 C 0.43167 0.4882 0.39072 0.0
C231 C 0.43938 0.51324 0.44623 0.0
C232 C 0.39867 0.51271 0.29199 0.0
C233 C 0.42672 0.53765 0.42061 0.0
C234 C 0.36751 0.53923 0.18232 0.0
C235 C 0.33628 0.48919 0.12527 0.0
N236 N 0.40711 0.53676 0.34575 0.0
N237 N 0.35985 0.48908 0.18494 0.0
H238 H 0.99135 0.33006 0.0469 0.0
H239 H 0.04487 0.41024 0.5532 0.0
H240 H 0.06138 0.30536 0.22081 0.0
H241 H 0.99415 0.44941 0.33761 0.0
H242 H 0.05138 0.37193 0.42981 0.0
H243 H 0.99267 0.37479 0.14606 0.0
C244 C 1.00746 0.33448 0.10426 0.0
C245 C 0.02618 0.31414 0.12656 0.0
C246 C 0.03902 0.38899 0.40887 0.0
C247 C 0.02739 0.3645 0.24173 0.0
C248 C 0.03521 0.41081 0.47955 0.0
C249 C 0.0188 0.43288 0.45578 0.0
C250 C 0.02594 0.38895 0.31401 0.0
C251 C 1.0069 0.43269 0.35897 0.0
C252 C 0.0081 0.35981 0.16132 0.0
C253 C 0.04645 0.32051 0.20237 0.0
N254 N 0.01041 0.41088 0.29195 0.0
N255 N 0.04626 0.34491 0.25819 0.0
H256 H 0.79321 0.96933 0.97548 0.0
H257 H 0.95846 0.01842 0.82665 0.0
H258 H 0.84446 0.03396 0.14041 0.0
H259 H 0.89946 0.97142 0.62469 0.0
H260 H 0.92045 0.01629 0.95989 0.0
H261 H 0.8355 0.96138 0.86564 0.0
C262 C 0.81375 0.98113 0.99037 0.0
C263 C 0.81565 1.00201 0.06742 0.0
C264 C 0.91592 0.00619 0.88676 0.0
C265 C 0.86385 0.99375 0.94113 0.0
C266 C 0.93763 0.00733 0.81077 0.0
C267 C 0.93201 0.9953 0.7141 0.0
C268 C 0.88844 0.9927 0.86633 0.0
C269 C 0.90464 0.98117 0.69785 0.0
C270 C 0.83774 0.9769 0.92715 0.0
C271 C 0.84241 0.0174 0.08245 0.0
N272 N 0.88387 0.98037 0.77287 0.0
N273 N 0.86544 0.01313 0.01946 0.0
H274 H 0.55489 0.81703 0.05862 0.0
H275 H 0.46739 0.91321 0.71644 0.0
H276 H 0.46229 0.80807 0.03714 0.0
H277 H 0.55228 0.94239 0.82155 0.0
H278 H 0.46714 0.87246 0.82385 0.0
H279 H 0.55634 0.86167 0.96738 0.0
C280 C 0.53487 0.82478 0.03631 0.0
C281 C 0.50842 0.80888 0.05476 0.0
C282 C 0.48584 0.88776 0.82379 0.0
C283 C 0.5099 0.85921 0.94842 0.0
C284 C 0.48611 0.91102 0.76173 0.0
C285 C 0.50994 0.93133 0.75944 0.0
C286 C 0.50975 0.88433 0.8836 0.0
C287 C 0.53343 0.92729 0.82087 0.0
C288 C 0.53569 0.85007 0.98372 0.0
C289 C 0.4831 0.81955 0.02308 0.0
N290 N 0.53284 0.90415 0.87994 0.0
N291 N 0.48448 0.8438 0.97059 0.0
H292 H 0.68888 0.55722 0.0698 0.0
H293 H 0.58945 0.45612 0.7016 0.0
H294 H 0.69561 0.46816 0.03161 0.0
H295 H 0.57436 0.54305 0.76238 0.0
H296 H 0.62629 0.45984 0.83087 0.0
H297 H 0.64465 0.55239 0.96951 0.0
C298 C 0.68036 0.53652 0.04295 0.0
C299 C 0.69537 0.51294 0.06039 0.0
C300 C 0.61488 0.47813 0.81675 0.0
C301 C 0.64564 0.50724 0.94254 0.0
C302 C 0.59385 0.47603 0.74252 0.0
C303 C 0.57894 0.49937 0.72053 0.0
C304 C 0.62144 0.5039 0.86934 0.0
C305 C 0.58539 0.52454 0.77675 0.0
C306 C 0.65537 0.53376 0.98486 0.0
C307 C 0.6842 0.48667 0.02132 0.0
N308 N 0.60634 0.52623 0.84785 0.0
N309 N 0.66022 0.48455 0.96359 0.0
H310 H 0.03644 0.67827 0.1054 0.0
H311 H 0.98105 0.60409 0.58633 0.0
H312 H 0.98054 0.71507 0.90206 0.0
H313 H 0.0273 0.56123 0.80521 0.0
H314 H 0.97835 0.64377 0.70674 0.0
H315 H 0.03089 0.63384 0.00448 0.0
C316 C 0.02253 0.67666 0.0406 0.0
C317 C 0.00892 0.7001 0.01138 0.0
C318 C 0.98891 0.62563 0.72906 0.0
C319 C 1.00288 0.64999 0.89468 0.0
C320 C 0.99049 0.60299 0.66014 0.0
C321 C 1.00461 0.57947 0.68555 0.0
C322 C 1.00182 0.62495 0.82404 0.0
C323 C 0.0163 0.57905 0.7825 0.0
C324 C 0.01948 0.65148 0.98269 0.0
C325 C 0.99141 0.69734 0.92632 0.0
N326 N 0.01491 0.60158 0.8479 0.0
N327 N 0.9891 0.67288 0.87043 0.0
H328 H 0.04944 0.19934 0.05682 0.0
H329 H 0.93757 0.08075 0.29041 0.0
H330 H 0.96254 0.21371 0.15061 0.0
H331 H 0.02273 0.0653 0.17619 0.0
H332 H 0.94346 0.12744 0.21675 0.0
H333 H 0.03838 0.14879 0.0841 0.0
C334 C 0.02813 0.19165 0.08464 0.0
C335 C 1.00699 0.21034 0.10398 0.0
C336 C 0.96065 0.11365 0.20598 0.0
C337 C 0.99388 0.15295 0.13402 0.0
C338 C 0.95719 0.08691 0.24724 0.0
C339 C 0.97993 0.06947 0.24075 0.0
C340 C 0.98715 0.12296 0.159 0.0
C341 C 1.00481 0.07831 0.18373 0.0
C342 C 0.02168 0.16291 0.09915 0.0
C343 C 0.97948 0.19974 0.13772 0.0
N344 N 0.00801 0.10473 0.14667 0.0
N345 N 0.9737 0.17167 0.15237 0.0
H346 H 0.27927 0.99374 0.23364 0.0
H347 H 0.44007 0.96728 0.1819 0.0
H348 H 0.30719 0.95385 0.95538 0.0
H349 H 0.39098 0.94855 0.45807 0.0
H350 H 0.39452 0.96531 0.08989 0.0
H351 H 0.32318 0.98191 0.31398 0.0
C352 C 0.29461 0.98214 0.19014 0.0
C353 C 0.28964 0.97435 0.08868 0.0
C354 C 0.39395 0.96095 0.17011 0.0
C355 C 0.34017 0.96169 0.1782 0.0
C356 C 0.41979 0.96208 0.22245 0.0
C357 C 0.41908 0.95846 0.32767 0.0
C358 C 0.3676 0.95676 0.22445 0.0
C359 C 0.39239 0.95178 0.37708 0.0
C360 C 0.31956 0.97544 0.23562 0.0
C361 C 0.31048 0.9602 0.03384 0.0
N362 N 0.36763 0.95174 0.3254 0.0
N363 N 0.33522 0.95456 0.07905 0.0
H364 H 0.45432 0.31515 0.04418 0.0
H365 H 0.56935 0.43719 0.24539 0.0
H366 H 0.53748 0.30105 0.158 0.0
H367 H 0.48136 0.45062 0.17861 0.0
H368 H 0.56149 0.38921 0.17513 0.0
H369 H 0.46614 0.36621 0.06598 0.0
C370 C 0.47482 0.32301 0.07589 0.0
C371 C 0.49479 0.30426 0.10153 0.0
C372 C 0.54407 0.40284 0.17392 0.0
C373 C 0.50887 0.36213 0.12406 0.0
C374 C 0.54868 0.43036 0.21265 0.0
C375 C 0.52573 0.44755 0.21993 0.0
C376 C 0.51635 0.39264 0.14259 0.0
C377 C 0.49948 0.4378 0.1758 0.0
C378 C 0.48174 0.35199 0.08704 0.0
C379 C 0.52136 0.31506 0.14013 0.0
N380 N 0.49526 0.41069 0.14094 0.0
N381 N 0.52769 0.34337 0.1502 0.0
H382 H 0.21905 0.489 0.16715 0.0
H383 H 0.0842 0.5722 0.23151 0.0
H384 H 0.21912 0.56539 1.00106 0.0
H385 H 0.07691 0.48163 0.19076 0.0
H386 H 0.13325 0.57401 0.1562 0.0
H387 H 0.16688 0.48961 0.19933 0.0
C388 C 0.20794 0.50624 0.1399 0.0
C389 C 0.22293 0.52743 0.08347 0.0
C390 C 0.12049 0.55389 0.16132 0.0
C391 C 0.16384 0.52813 0.11731 0.0
C392 C 0.09254 0.55284 0.20361 0.0
C393 C 0.07688 0.52666 0.21904 0.0
C394 C 0.13263 0.52859 0.13683 0.0
C395 C 0.08852 0.50219 0.18162 0.0
C396 C 0.17832 0.50635 0.15629 0.0
C397 C 0.20794 0.54907 0.04656 0.0
N398 N 0.11608 0.50366 0.14468 0.0
N399 N 0.179 0.54908 0.0649 0.0
H400 H 0.99398 0.79624 0.93666 0.0
H401 H 0.06685 0.94968 0.93719 0.0
H402 H 0.06304 0.81653 0.14412 0.0
H403 H 0.97444 0.93091 0.9242 0.0
H404 H 0.07069 0.90244 0.00393 0.0
H405 H 0.99207 0.84657 0.90732 0.0
C406 C 0.00927 0.81144 0.97357 0.0
C407 C 0.02901 0.80259 0.04114 0.0
C408 C 0.04958 0.9091 0.98886 0.0
C409 C 0.02659 0.85985 0.0107 0.0
C410 C 0.04733 0.93603 0.95168 0.0
C411 C 0.02032 0.94387 0.92354 0.0
C412 C 0.02473 0.89014 0.99562 0.0
C413 C 0.99571 0.92546 0.94344 0.0
C414 C 0.00784 0.84003 0.95867 0.0
C415 C 0.04788 0.82289 0.09027 0.0
N416 N 0.99856 0.89915 0.97583 0.0
N417 N 0.04638 0.8508 0.0737 0.0
H418 H 0.73411 0.02572 0.92112 0.0
H419 H 0.57282 0.04458 0.98693 0.0
H420 H 0.70521 0.05922 0.20936 0.0
H421 H 0.61943 0.06811 0.7103 0.0
H422 H 0.61886 0.04883 0.07634 0.0
H423 H 0.69062 0.03929 0.84428 0.0
C424 C 0.71886 0.03659 0.96767 0.0
C425 C 0.72334 0.04166 0.07135 0.0
C426 C 0.61877 0.05378 0.99671 0.0
C427 C 0.67279 0.05594 0.98517 0.0
C428 C 0.59262 0.05131 0.94578 0.0
C429 C 0.59255 0.05554 0.84099 0.0
C430 C 0.6447 0.05999 0.94146 0.0
C431 C 0.61865 0.06427 0.7909 0.0
C432 C 0.69397 0.04415 0.92405 0.0
C433 C 0.7023 0.05472 0.12936 0.0
N434 N 0.64378 0.06562 0.84113 0.0
N435 N 0.6775 0.06098 0.08583 0.0
H436 H 0.4541 0.69956 0.17966 0.0
H437 H 0.43997 0.56229 0.94364 0.0
H438 H 0.52951 0.70305 0.98267 0.0
H439 H 0.53241 0.56933 0.97804 0.0
H440 H 0.43843 0.60957 0.02144 0.0
H441 H 0.44828 0.64769 0.15461 0.0
C442 C 0.46892 0.68927 0.12935 0.0
C443 C 0.4918 0.70514 0.08052 0.0
C444 C 0.45885 0.60027 0.01517 0.0
C445 C 0.48631 0.64677 0.05572 0.0
C446 C 0.45975 0.57329 0.97126 0.0
C447 C 0.48645 0.56224 0.95263 0.0
C448 C 0.48488 0.61607 0.03861 0.0
C449 C 0.51144 0.57731 0.98962 0.0
C450 C 0.46582 0.65993 0.11599 0.0
C451 C 0.51124 0.69128 0.01897 0.0
N452 N 0.51018 0.60389 0.02785 0.0
N453 N 0.50826 0.66278 0.00909 0.0
H454 H 0.78937 0.47386 0.9779 0.0
H455 H 0.95538 0.53084 0.97818 0.0
H456 H 0.82041 0.55128 0.13017 0.0
H457 H 0.92436 0.44711 0.87462 0.0
H458 H 0.90725 0.53739 0.04932 0.0
H459 H 0.83937 0.46347 0.94216 0.0
C460 C 0.80692 0.48893 1.00132 0.0
C461 C 0.80118 0.51362 0.05492 0.0
C462 C 0.91111 0.51738 0.01281 0.0
C463 C 0.85811 0.5017 0.01833 0.0
C464 C 0.93864 0.51352 0.97321 0.0
C465 C 0.94357 0.4886 0.91899 0.0
C466 C 0.88849 0.49626 0.9966 0.0
C467 C 0.92129 0.46679 0.91488 0.0
C468 C 0.83535 0.48283 0.98301 0.0
C469 C 0.82433 0.53224 0.0872 0.0
N470 N 0.89448 0.47135 0.95119 0.0
N471 N 0.85191 0.52593 0.06833 0.0
H472 H 0.97018 0.21701 0.91635 0.0
H473 H 0.03823 0.10818 0.54909 0.0
H474 H 0.06165 0.23308 0.86029 0.0
H475 H 0.9998 0.08249 0.83699 0.0
H476 H 0.03888 0.1579 0.60819 0.0
H477 H 0.97105 0.17157 0.82406 0.0
C478 C 0.99014 0.21157 0.87972 0.0
C479 C 0.01584 0.22874 0.89527 0.0
C480 C 0.0305 0.14124 0.65804 0.0
C481 C 0.01705 0.17704 0.79062 0.0
C482 C 0.03012 0.11301 0.62479 0.0
C483 C 0.01916 0.09123 0.68873 0.0
C484 C 0.01882 0.14762 0.75412 0.0
C485 C 0.00876 0.09859 0.78584 0.0
C486 C 0.99071 0.18555 0.82886 0.0
C487 C 0.04137 0.22054 0.84847 0.0
N488 N 0.00843 0.12619 0.81502 0.0
N489 N 0.04147 0.195 0.79894 0.0
H490 H 0.30529 0.04261 0.02635 0.0
H491 H 0.4238 0.98254 0.65851 0.0
H492 H 0.28311 0.98134 0.78953 0.0
H493 H 0.43684 0.0664 0.79016 0.0
H494 H 0.37292 0.98039 0.71329 0.0
H495 H 0.354 0.05136 0.94829 0.0
C496 C 0.3105 0.03173 0.95593 0.0
C497 C 0.29017 0.01169 0.91277 0.0
C498 C 0.38682 0.9994 0.72926 0.0
C499 C 0.34598 0.02045 0.82573 0.0
C500 C 0.4159 1.00067 0.69759 0.0
C501 C 0.43463 0.02481 0.71836 0.0
C502 C 0.37636 0.02218 0.7846 0.0
C503 C 0.42319 0.0474 0.77196 0.0
C504 C 0.33829 0.03647 0.91196 0.0
C505 C 0.29811 0.99736 0.82348 0.0
N506 N 0.39493 0.04543 0.80417 0.0
N507 N 0.32548 1.00167 0.78375 0.0
H508 H 0.53913 0.29723 0.92319 0.0
H509 H 0.46935 0.40285 0.56824 0.0
H510 H 0.45007 0.27977 0.84473 0.0
H511 H 0.51952 0.43126 0.8277 0.0
H512 H 0.469 0.35396 0.62526 0.0
H513 H 0.54069 0.34231 0.83643 0.0
C514 C 0.52036 0.30231 0.88293 0.0
C515 C 0.49449 0.28482 0.89048 0.0
C516 C 0.47999 0.37098 0.66944 0.0
C517 C 0.49593 0.33628 0.79236 0.0
C518 C 0.48015 0.39881 0.63736 0.0
C519 C 0.49422 0.42116 0.69403 0.0
C520 C 0.49492 0.36543 0.75657 0.0
C521 C 0.50807 0.41473 0.78258 0.0
C522 C 0.52107 0.3282 0.83538 0.0
C523 C 0.47048 0.29257 0.83923 0.0
N524 N 0.50838 0.38744 0.81043 0.0
N525 N 0.47163 0.31793 0.79291 0.0
H526 H 0.22025 0.46517 0.96717 0.0
H527 H 0.11857 0.52376 0.55457 0.0
H528 H 0.24627 0.53917 0.79716 0.0
H529 H 0.08579 0.47672 0.81429 0.0
H530 H 0.16788 0.52195 0.61492 0.0
H531 H 0.17384 0.46047 0.88048 0.0
C532 C 0.21664 0.47964 0.90791 0.0
C533 C 0.23727 0.50227 0.88778 0.0
C534 C 0.14987 0.51191 0.65827 0.0
C535 C 0.18399 0.49758 0.78993 0.0
C536 C 0.12168 0.51288 0.62388 0.0
C537 C 0.09782 0.50051 0.67963 0.0
C538 C 0.15444 0.49794 0.74807 0.0
C539 C 0.10338 0.48675 0.76906 0.0
C540 C 0.18999 0.4773 0.8599 0.0
C541 C 0.23118 0.52108 0.81293 0.0
N542 N 0.13101 0.48576 0.80016 0.0
N543 N 0.20505 0.51846 0.76712 0.0
H544 H 0.0377 0.78217 0.3347 0.0
H545 H 0.97442 0.92966 0.3123 0.0
H546 H 0.96648 0.79522 0.14595 0.0
H547 H 0.01396 0.90401 0.58306 0.0
H548 H 0.97288 0.88093 0.24655 0.0
H549 H 0.02991 0.82627 0.42909 0.0
C550 C 0.01966 0.79382 0.31628 0.0
C551 C 1.00244 0.78509 0.23388 0.0
C552 C 0.98155 0.88595 0.32092 0.0
C553 C 0.99432 0.83604 0.33666 0.0
C554 C 0.98262 0.91381 0.35822 0.0
C555 C 0.99435 0.92104 0.45339 0.0
C556 C 0.99273 0.8652 0.37834 0.0
C557 C 1.00463 0.89948 0.50945 0.0
C558 C 0.01544 0.81912 0.36886 0.0
C559 C 0.97988 0.80124 0.21017 0.0
N560 N 1.00389 0.87265 0.47064 0.0
N561 N 0.97684 0.82628 0.25973 0.0
H562 H 0.72918 0.02923 0.36635 0.0
H563 H 0.57151 0.94592 0.36748 0.0
H564 H 0.70121 0.97197 0.12375 0.0
H565 H 0.58942 0.02728 0.5151 0.0
H566 H 0.62159 0.94856 0.30186 0.0
H567 H 0.68094 0.02158 0.44824 0.0
C568 C 0.71298 0.01443 0.33214 0.0
C569 C 0.71902 1.00094 0.23926 0.0
C570 C 0.61458 0.96572 0.34931 0.0
C571 C 0.6639 0.99228 0.33094 0.0
C572 C 0.58603 0.96422 0.38711 0.0
C573 C 0.57619 0.98642 0.44728 0.0
C574 C 0.6337 0.98935 0.3733 0.0
C575 C 0.59603 0.00962 0.46979 0.0
C576 C 0.68545 0.01032 0.37793 0.0
C577 C 0.6973 0.98241 0.19612 0.0
N578 N 0.62381 0.01044 0.43315 0.0
N579 N 0.67064 0.97861 0.24221 0.0
H580 H 0.48815 0.73022 0.3683 0.0
H581 H 0.54442 0.5791 0.32755 0.0
H582 H 0.55822 0.71189 0.16508 0.0
H583 H 0.50731 0.61014 0.60793 0.0
H584 H 0.54807 0.62714 0.26326 0.0
H585 H 0.49414 0.68679 0.4592 0.0
C586 C 0.50563 0.71761 0.34594 0.0
C587 C 0.52307 0.72475 0.26063 0.0
C588 C 0.53949 0.62345 0.33938 0.0
C589 C 0.52904 0.67438 0.3595 0.0
C590 C 0.53726 0.59599 0.37595 0.0
C591 C 0.52558 0.59047 0.47345 0.0
C592 C 0.52949 0.64553 0.39989 0.0
C593 C 0.51659 0.61332 0.53251 0.0
C594 C 0.50879 0.69265 0.39653 0.0
C595 C 0.54474 0.70722 0.23174 0.0
N596 N 0.51841 0.63972 0.49443 0.0
N597 N 0.54673 0.68253 0.27952 0.0
H598 H 0.78334 0.55074 0.33789 0.0
H599 H 0.93268 0.48923 0.31327 0.0
H600 H 0.79122 0.46756 0.21133 0.0
H601 H 0.90693 0.52684 0.59904 0.0
H602 H 0.88253 0.4878 0.25816 0.0
H603 H 0.82907 0.54812 0.42688 0.0
C604 C 0.79406 0.53147 0.33259 0.0
C605 C 0.78341 0.50921 0.26816 0.0
C606 C 0.8879 0.49626 0.33308 0.0
C607 C 0.83633 0.50675 0.36377 0.0
C608 C 0.91654 0.49732 0.36428 0.0
C609 C 0.92407 0.50814 0.46105 0.0
C610 C 0.86664 0.50679 0.39783 0.0
C611 C 0.90207 0.5182 0.52402 0.0
C612 C 0.82032 0.53015 0.38185 0.0
C613 C 0.79862 0.48502 0.26112 0.0
N614 N 0.87443 0.51764 0.4909 0.0
N615 N 0.82467 0.48472 0.30566 0.0
loop_
_geom_bond_atom_site_label_1
_geom_bond_atom_site_label_2
_geom_bond_distance
_geom_bond_site_symmetry_2
_ccdc_geom_bond_type
C0 N1 1.317 . S
C0 N2 1.348 . S
C0 C3 1.485 . S
N1 C0 1.317 . S
N1 N5 1.370 . S
N2 C0 1.348 . S
N2 C4 1.346 . S
C3 C0 1.485 . S
C3 H7 0.960 . S
C3 H8 0.961 . S
C3 H9 0.960 . S
C4 N2 1.346 . S
C4 N5 1.307 . S
C4 C6 1.486 1_554 S
N5 N1 1.370 . S
N5 C4 1.307 . S
C6 C4 1.486 1_556 S
C6 H10 0.960 . S
C6 H11 0.960 . S
C6 H12 0.959 . S
H7 C3 0.960 . S
H8 C3 0.961 . S
H9 C3 0.960 . S
H10 C6 0.960 . S
H11 C6 0.960 . S
H12 C6 0.959 . S
C13 N14 1.317 . S
C13 N15 1.351 . S
C13 C16 1.485 . S
N14 C13 1.317 . S
N14 N18 1.370 . S
N15 C13 1.351 . S
N15 C17 1.349 1_654 S
C16 C13 1.485 . S
C16 H20 0.960 1_655 S
C16 H21 0.961 . S
C16 H22 0.960 . S
C17 N15 1.349 1_456 S
C17 N18 1.306 1_456 S
C17 C19 1.486 . S
N18 N14 1.370 . S
N18 C17 1.306 1_654 S
C19 C17 1.486 . S
C19 H23 0.960 1_455 S
C19 H24 0.960 . S
C19 H25 0.959 . S
H20 C16 0.960 1_455 S
H21 C16 0.961 . S
H22 C16 0.960 . S
H23 C19 0.960 1_655 S
H24 C19 0.960 . S
H25 C19 0.959 . S
C26 N27 1.317 . S
C26 N28 1.348 . S
C26 C29 1.485 . S
N27 C26 1.317 . S
N27 N31 1.370 . S
N28 C26 1.348 . S
N28 C30 1.346 1_554 S
C29 C26 1.485 . S
C29 H33 0.960 . S
C29 H34 0.961 . S
C29 H35 0.960 . S
C30 N28 1.346 1_556 S
C30 N31 1.307 1_556 S
C30 C32 1.486 . S
N31 N27 1.370 . S
N31 C30 1.307 1_554 S
C32 C30 1.486 . S
C32 H36 0.960 . S
C32 H37 0.960 . S
C32 H38 0.959 . S
H33 C29 0.960 . S
H34 C29 0.961 . S
H35 C29 0.960 . S
H36 C32 0.960 . S
H37 C32 0.960 . S
H38 C32 0.959 . S
C39 N40 1.317 . S
C39 N41 1.348 . S
C39 C42 1.485 . S
N40 C39 1.317 . S
N40 N44 1.370 . S
N41 C39 1.348 . S
N41 C43 1.346 . S
C42 C39 1.485 . S
C42 H46 0.960 . S
C42 H47 0.961 . S
C42 H48 0.960 . S
C43 N41 1.346 . S
C43 N44 1.307 . S
C43 C45 1.486 1_554 S
N44 N40 1.370 . S
N44 C43 1.307 . S
C45 C43 1.486 1_556 S
C45 H49 0.960 . S
C45 H50 0.960 . S
C45 H51 0.959 . S
H46 C42 0.960 . S
H47 C42 0.961 . S
H48 C42 0.960 . S
H49 C45 0.960 . S
H50 C45 0.960 . S
H51 C45 0.959 . S
C52 N53 1.317 . S
C52 N54 1.348 1_556 S
C52 C55 1.485 . S
N53 C52 1.317 . S
N53 N57 1.370 1_556 S
N54 C52 1.348 1_554 S
N54 C56 1.346 . S
C55 C52 1.485 . S
C55 H59 0.960 . S
C55 H60 0.961 . S
C55 H61 0.960 . S
C56 N54 1.346 . S
C56 N57 1.307 . S
C56 C58 1.486 . S
N57 N53 1.370 1_554 S
N57 C56 1.307 . S
C58 C56 1.486 . S
C58 H62 0.960 . S
C58 H63 0.960 . S
C58 H64 0.959 . S
H59 C55 0.960 . S
H60 C55 0.961 . S
H61 C55 0.960 . S
H62 C58 0.960 . S
H63 C58 0.960 . S
H64 C58 0.959 . S
C65 N66 1.317 . S
C65 N67 1.349 . S
C65 C68 1.485 1_554 S
N66 C65 1.317 . S
N66 N70 1.371 . S
N67 C65 1.349 . S
N67 C69 1.342 1_655 S
C68 C65 1.485 1_556 S
C68 H72 0.960 1_655 S
C68 H73 0.961 . S
C68 H74 0.960 . S
C69 N67 1.342 1_455 S
C69 N70 1.308 1_455 S
C69 C71 1.487 . S
N70 N66 1.371 . S
N70 C69 1.308 1_655 S
C71 C69 1.487 . S
C71 H75 0.960 1_455 S
C71 H76 0.960 . S
C71 H77 0.959 . S
H72 C68 0.960 1_455 S
H73 C68 0.961 . S
H74 C68 0.960 . S
H75 C71 0.960 1_655 S
H76 C71 0.960 . S
H77 C71 0.959 . S
C78 N79 1.317 . S
C78 N80 1.348 . S
C78 C81 1.485 1_554 S
N79 C78 1.317 . S
N79 N83 1.370 . S
N80 C78 1.348 . S
N80 C82 1.346 . S
C81 C78 1.485 1_556 S
C81 H85 0.960 . S
C81 H86 0.961 . S
C81 H87 0.960 . S
C82 N80 1.346 . S
C82 N83 1.307 . S
C82 C84 1.486 . S
N83 N79 1.370 . S
N83 C82 1.307 . S
C84 C82 1.486 . S
C84 H88 0.960 . S
C84 H89 0.960 . S
C84 H90 0.959 . S
H85 C81 0.960 . S
H86 C81 0.961 . S
H87 C81 0.960 . S
H88 C84 0.960 . S
H89 C84 0.960 . S
H90 C84 0.959 . S
C91 N92 1.317 . S
C91 N93 1.348 1_556 S
C91 C94 1.485 . S
N92 C91 1.317 . S
N92 N96 1.370 1_556 S
N93 C91 1.348 1_554 S
N93 C95 1.346 . S
C94 C91 1.485 . S
C94 H98 0.960 . S
C94 H99 0.961 . S
C94 H100 0.960 . S
C95 N93 1.346 . S
C95 N96 1.307 . S
C95 C97 1.486 . S
N96 N92 1.370 1_554 S
N96 C95 1.307 . S
C97 C95 1.486 . S
C97 H101 0.960 . S
C97 H102 0.960 . S
C97 H103 0.959 . S
H98 C94 0.960 . S
H99 C94 0.961 . S
H100 C94 0.960 . S
H101 C97 0.960 . S
H102 C97 0.960 . S
H103 C97 0.959 . S
Dy104 O108 2.398 . S
Dy104 O109 2.491 1_455 S
Dy104 O110 2.403 . S
Dy104 O111 2.664 1_565 S
Dy104 O115 2.326 . S
Dy104 O119 2.310 1_455 S
Dy104 O120 2.351 1_565 S
C105 O116 1.185 . S
C105 O117 1.355 1_655 S
C106 O108 1.185 . S
C106 O109 1.355 1_455 S
Dy107 O111 2.310 1_655 S
Dy107 O114 2.351 1_545 S
Dy107 O116 2.398 . S
Dy107 O117 2.491 1_655 S
Dy107 O118 2.403 . S
Dy107 O119 2.664 1_545 S
Dy107 O121 2.326 . S
O108 Dy104 2.398 . S
O108 C106 1.185 . S
O109 Dy104 2.491 1_655 S
O109 C106 1.355 1_655 S
O110 Dy104 2.403 . S
O110 C112 1.254 1_565 S
O111 Dy104 2.664 1_545 S
O111 Dy107 2.310 1_455 S
O111 C112 1.268 . S
C112 O110 1.254 1_545 S
C112 O111 1.268 . S
C113 O118 1.254 1_565 S
C113 O119 1.268 . S
O114 Dy107 2.351 1_565 S
O114 C122 1.249 . S
O115 Dy104 2.326 . S
O115 C122 1.267 1_455 S
O116 C105 1.185 . S
O116 Dy107 2.398 . S
O117 C105 1.355 1_455 S
O117 Dy107 2.491 1_455 S
O118 Dy107 2.403 . S
O118 C113 1.254 1_545 S
O119 Dy104 2.310 1_655 S
O119 Dy107 2.664 1_565 S
O119 C113 1.268 . S
O120 Dy104 2.351 1_545 S
O120 C123 1.249 . S
O121 Dy107 2.326 . S
O121 C123 1.267 1_655 S
C122 O114 1.249 . S
C122 O115 1.267 1_655 S
C123 O120 1.249 . S
C123 O121 1.267 1_455 S
Dy124 O128 2.398 . S
Dy124 O129 2.491 1_565 S
Dy124 O130 2.403 . S
Dy124 O131 2.664 . S
Dy124 O135 2.326 1_565 S
Dy124 O139 2.310 1_565 S
Dy124 O140 2.351 . S
C125 O136 1.185 . S
C125 O137 1.355 1_545 S
C126 O128 1.185 1_545 S
C126 O129 1.355 . S
Dy127 O131 2.310 1_545 S
Dy127 O134 2.351 . S
Dy127 O136 2.398 . S
Dy127 O137 2.491 1_545 S
Dy127 O138 2.403 . S
Dy127 O139 2.664 . S
Dy127 O141 2.326 1_545 S
O128 Dy124 2.398 . S
O128 C126 1.185 1_565 S
O129 Dy124 2.491 1_545 S
O129 C126 1.355 . S
O130 Dy124 2.403 . S
O130 C132 1.254 . S
O131 Dy124 2.664 . S
O131 Dy127 2.310 1_565 S
O131 C132 1.268 . S
C132 O130 1.254 . S
C132 O131 1.268 . S
C133 O138 1.254 . S
C133 O139 1.268 . S
O134 Dy127 2.351 . S
O134 C142 1.249 . S
O135 Dy124 2.326 1_545 S
O135 C142 1.267 . S
O136 C125 1.185 . S
O136 Dy127 2.398 . S
O137 C125 1.355 1_565 S
O137 Dy127 2.491 1_565 S
O138 Dy127 2.403 . S
O138 C133 1.254 . S
O139 Dy124 2.310 1_545 S
O139 Dy127 2.664 . S
O139 C133 1.268 . S
O140 Dy124 2.351 . S
O140 C143 1.249 . S
O141 Dy127 2.326 1_565 S
O141 C143 1.267 . S
C142 O134 1.249 . S
C142 O135 1.267 . S
C143 O140 1.249 . S
C143 O141 1.267 . S
Dy144 O148 2.398 . S
Dy144 O149 2.491 . S
Dy144 O150 2.403 . S
Dy144 O151 2.664 . S
Dy144 O155 2.326 . S
Dy144 O159 2.310 . S
Dy144 O160 2.351 . S
C145 O156 1.185 . S
C145 O157 1.355 . S
C146 O148 1.185 . S
C146 O149 1.355 . S
Dy147 O151 2.310 . S
Dy147 O154 2.351 . S
Dy147 O156 2.398 . S
Dy147 O157 2.491 . S
Dy147 O158 2.403 . S
Dy147 O159 2.664 . S
Dy147 O161 2.326 . S
O148 Dy144 2.398 . S
O148 C146 1.185 . S
O149 Dy144 2.491 . S
O149 C146 1.355 . S
O150 Dy144 2.403 . S
O150 C152 1.254 . S
O151 Dy144 2.664 . S
O151 Dy147 2.310 . S
O151 C152 1.268 . S
C152 O150 1.254 . S
C152 O151 1.268 . S
C153 O158 1.254 . S
C153 O159 1.268 . S
O154 Dy147 2.351 . S
O154 C162 1.249 . S
O155 Dy144 2.326 . S
O155 C162 1.267 . S
O156 C145 1.185 . S
O156 Dy147 2.398 . S
O157 C145 1.355 . S
O157 Dy147 2.491 . S
O158 Dy147 2.403 . S
O158 C153 1.254 . S
O159 Dy144 2.310 . S
O159 Dy147 2.664 . S
O159 C153 1.268 . S
O160 Dy144 2.351 . S
O160 C163 1.249 . S
O161 Dy147 2.326 . S
O161 C163 1.267 . S
C162 O154 1.249 . S
C162 O155 1.267 . S
C163 O160 1.249 . S
C163 O161 1.267 . S
Dy164 O168 2.398 . S
Dy164 O169 2.491 . S
Dy164 O170 2.403 . S
Dy164 O171 2.664 1_655 S
Dy164 O175 2.326 . S
Dy164 O179 2.310 . S
Dy164 O180 2.351 1_655 S
C165 O176 1.185 . S
C165 O177 1.355 . S
C166 O168 1.185 . S
C166 O169 1.355 . S
Dy167 O171 2.310 . S
Dy167 O174 2.351 1_455 S
Dy167 O176 2.398 . S
Dy167 O177 2.491 . S
Dy167 O178 2.403 . S
Dy167 O179 2.664 1_455 S
Dy167 O181 2.326 . S
O168 Dy164 2.398 . S
O168 C166 1.185 . S
O169 Dy164 2.491 . S
O169 C166 1.355 . S
O170 Dy164 2.403 . S
O170 C172 1.254 . S
O171 Dy164 2.664 1_455 S
O171 Dy167 2.310 . S
O171 C172 1.268 1_455 S
C172 O170 1.254 . S
C172 O171 1.268 1_655 S
C173 O178 1.254 . S
C173 O179 1.268 1_455 S
O174 Dy167 2.351 1_655 S
O174 C182 1.249 . S
O175 Dy164 2.326 . S
O175 C182 1.267 . S
O176 C165 1.185 . S
O176 Dy167 2.398 . S
O177 C165 1.355 . S
O177 Dy167 2.491 . S
O178 Dy167 2.403 . S
O178 C173 1.254 . S
O179 Dy164 2.310 . S
O179 Dy167 2.664 1_655 S
O179 C173 1.268 1_655 S
O180 Dy164 2.351 1_455 S
O180 C183 1.249 . S
O181 Dy167 2.326 . S
O181 C183 1.267 . S
C182 O174 1.249 . S
C182 O175 1.267 . S
C183 O180 1.249 . S
C183 O181 1.267 . S
H184 C190 0.930 . S
H185 C194 0.930 . S
H186 C199 0.929 . S
H187 C197 0.929 . S
H188 C192 0.929 1_565 S
H189 C198 0.929 . S
C190 H184 0.930 . S
C190 C191 1.367 . S
C190 C198 1.378 . S
C191 C190 1.367 . S
C191 C199 1.433 . S
C192 H188 0.929 1_545 S
C192 C194 1.378 1_545 S
C192 C196 1.350 . S
C193 C196 1.463 . S
C193 C198 1.350 . S
C193 N201 1.427 . S
C194 H185 0.930 . S
C194 C192 1.378 1_565 S
C194 C195 1.367 1_565 S
C195 C194 1.367 1_545 S
C195 C197 1.433 . S
C196 C192 1.350 . S
C196 C193 1.463 . S
C196 N200 1.427 . S
C197 H187 0.929 . S
C197 C195 1.433 . S
C197 N200 1.384 . S
C198 H189 0.929 . S
C198 C190 1.378 . S
C198 C193 1.350 . S
C199 H186 0.929 . S
C199 C191 1.433 . S
C199 N201 1.384 . S
N200 C196 1.427 . S
N200 C197 1.384 . S
N201 C193 1.427 . S
N201 C199 1.384 . S
H202 C208 0.930 1_556 S
H203 C212 0.930 . S
H204 C217 0.929 . S
H205 C215 0.929 . S
H206 C210 0.929 . S
H207 C216 0.929 . S
C208 H202 0.930 1_554 S
C208 C209 1.367 . S
C208 C216 1.378 . S
C209 C208 1.367 . S
C209 C217 1.433 . S
C210 H206 0.929 . S
C210 C212 1.378 . S
C210 C214 1.350 . S
C211 C214 1.463 . S
C211 C216 1.350 . S
C211 N219 1.427 . S
C212 H203 0.930 . S
C212 C210 1.378 . S
C212 C213 1.367 . S
C213 C212 1.367 . S
C213 C215 1.433 . S
C214 C210 1.350 . S
C214 C211 1.463 . S
C214 N218 1.427 . S
C215 H205 0.929 . S
C215 C213 1.433 . S
C215 N218 1.384 . S
C216 H207 0.929 . S
C216 C208 1.378 . S
C216 C211 1.350 . S
C217 H204 0.929 . S
C217 C209 1.433 . S
C217 N219 1.384 . S
N218 C214 1.427 . S
N218 C215 1.384 . S
N219 C211 1.427 . S
N219 C217 1.384 . S
H220 C226 0.930 . S
H221 C230 0.930 . S
H222 C235 0.929 . S
H223 C233 0.929 . S
H224 C228 0.929 . S
H225 C234 0.929 . S
C226 H220 0.930 . S
C226 C227 1.367 . S
C226 C234 1.378 . S
C227 C226 1.367 . S
C227 C235 1.433 . S
C228 H224 0.929 . S
C228 C230 1.378 . S
C228 C232 1.350 . S
C229 C232 1.463 . S
C229 C234 1.350 . S
C229 N237 1.427 . S
C230 H221 0.930 . S
C230 C228 1.378 . S
C230 C231 1.367 . S
C231 C230 1.367 . S
C231 C233 1.433 . S
C232 C228 1.350 . S
C232 C229 1.463 . S
C232 N236 1.427 . S
C233 H223 0.929 . S
C233 C231 1.433 . S
C233 N236 1.384 . S
C234 H225 0.929 . S
C234 C226 1.378 . S
C234 C229 1.350 . S
C235 H222 0.929 . S
C235 C227 1.433 . S
C235 N237 1.384 . S
N236 C232 1.427 . S
N236 C233 1.384 . S
N237 C229 1.427 . S
N237 C235 1.384 . S
H238 C244 0.930 . S
H239 C248 0.930 . S
H240 C253 0.929 . S
H241 C251 0.929 . S
H242 C246 0.929 . S
H243 C252 0.929 . S
C244 H238 0.930 . S
C244 C245 1.367 . S
C244 C252 1.378 . S
C245 C244 1.367 . S
C245 C253 1.433 1_655 S
C246 H242 0.929 . S
C246 C248 1.378 . S
C246 C250 1.347 1_455 S
C247 C250 1.463 . S
C247 C252 1.356 . S
C247 N255 1.420 1_655 S
C248 H239 0.930 . S
C248 C246 1.378 . S
C248 C249 1.357 1_455 S
C249 C248 1.357 1_655 S
C249 C251 1.442 . S
C250 C246 1.347 1_655 S
C250 C247 1.463 . S
C250 N254 1.431 . S
C251 H241 0.929 . S
C251 C249 1.442 . S
C251 N254 1.384 . S
C252 H243 0.929 . S
C252 C244 1.378 . S
C252 C247 1.356 . S
C253 H240 0.929 . S
C253 C245 1.433 1_455 S
C253 N255 1.384 . S
N254 C250 1.431 . S
N254 C251 1.384 . S
N255 C247 1.420 1_455 S
N255 C253 1.384 . S
H256 C262 0.930 . S
H257 C266 0.930 . S
H258 C271 0.929 . S
H259 C269 0.929 . S
H260 C264 0.909 1_545 S
H261 C270 0.929 . S
C262 H256 0.930 . S
C262 C263 1.367 . S
C262 C270 1.378 . S
C263 C262 1.367 . S
C263 C271 1.433 1_556 S
C264 H260 0.909 1_565 S
C264 C266 1.374 1_565 S
C264 C268 1.375 . S
C265 C268 1.463 . S
C265 C270 1.350 . S
C265 N273 1.427 . S
C266 H257 0.930 . S
C266 C264 1.374 1_545 S
C266 C267 1.367 1_545 S
C267 C266 1.367 1_565 S
C267 C269 1.433 . S
C268 C264 1.375 . S
C268 C265 1.463 . S
C268 N272 1.427 . S
C269 H259 0.929 . S
C269 C267 1.433 . S
C269 N272 1.384 . S
C270 H261 0.929 . S
C270 C262 1.378 . S
C270 C265 1.350 . S
C271 H258 0.929 . S
C271 C263 1.433 1_554 S
C271 N273 1.384 1_554 S
N272 C268 1.427 . S
N272 C269 1.384 . S
N273 C265 1.427 . S
N273 C271 1.384 1_556 S
H274 C280 0.930 . S
H275 C284 0.930 . S
H276 C289 0.929 . S
H277 C287 0.929 . S
H278 C282 0.929 . S
H279 C288 0.929 . S
C280 H274 0.930 . S
C280 C281 1.367 . S
C280 C288 1.378 1_554 S
C281 C280 1.367 . S
C281 C289 1.433 1_554 S
C282 H278 0.929 . S
C282 C284 1.378 . S
C282 C286 1.350 . S
C283 C286 1.463 . S
C283 C288 1.350 . S
C283 N291 1.427 . S
C284 H275 0.930 . S
C284 C282 1.378 . S
C284 C285 1.367 . S
C285 C284 1.367 . S
C285 C287 1.433 . S
C286 C282 1.350 . S
C286 C283 1.463 . S
C286 N290 1.427 . S
C287 H277 0.929 . S
C287 C285 1.433 . S
C287 N290 1.384 . S
C288 H279 0.929 . S
C288 C280 1.378 1_556 S
C288 C283 1.350 . S
C289 H276 0.929 . S
C289 C281 1.433 1_556 S
C289 N291 1.384 . S
N290 C286 1.427 . S
N290 C287 1.384 . S
N291 C283 1.427 . S
N291 C289 1.384 . S
H292 C298 0.930 . S
H293 C302 0.930 . S
H294 C307 0.929 . S
H295 C305 0.929 . S
H296 C300 0.929 . S
H297 C306 0.929 . S
C298 H292 0.930 . S
C298 C299 1.367 1_556 S
C298 C306 1.378 . S
C299 C298 1.367 1_554 S
C299 C307 1.433 . S
C300 H296 0.929 . S
C300 C302 1.378 . S
C300 C304 1.350 . S
C301 C304 1.463 . S
C301 C306 1.350 . S
C301 N309 1.427 . S
C302 H293 0.930 . S
C302 C300 1.378 . S
C302 C303 1.367 . S
C303 C302 1.367 . S
C303 C305 1.433 . S
C304 C300 1.350 . S
C304 C301 1.463 . S
C304 N308 1.427 . S
C305 H295 0.929 . S
C305 C303 1.433 . S
C305 N308 1.384 . S
C306 H297 0.929 . S
C306 C298 1.378 . S
C306 C301 1.350 . S
C307 H294 0.929 . S
C307 C299 1.433 . S
C307 N309 1.384 1_554 S
N308 C304 1.427 . S
N308 C305 1.384 . S
N309 C301 1.427 . S
N309 C307 1.384 1_556 S
H310 C316 0.930 . S
H311 C320 0.930 . S
H312 C325 0.930 1_655 S
H313 C323 0.929 . S
H314 C318 0.928 . S
H315 C324 0.928 1_554 S
C316 H310 0.930 . S
C316 C317 1.367 1_455 S
C316 C324 1.377 1_554 S
C317 C316 1.367 1_655 S
C317 C325 1.433 1_654 S
C318 H314 0.928 . S
C318 C320 1.377 . S
C318 C322 1.350 . S
C319 C322 1.462 . S
C319 C324 1.350 . S
C319 N327 1.427 . S
C320 H311 0.930 . S
C320 C318 1.377 . S
C320 C321 1.366 . S
C321 C320 1.366 . S
C321 C323 1.433 . S
C322 C318 1.350 . S
C322 C319 1.462 . S
C322 N326 1.427 . S
C323 H313 0.929 . S
C323 C321 1.433 . S
C323 N326 1.383 . S
C324 H315 0.928 1_556 S
C324 C316 1.377 1_556 S
C324 C319 1.350 . S
C325 H312 0.930 1_455 S
C325 C317 1.433 1_456 S
C325 N327 1.383 . S
N326 C322 1.427 . S
N326 C323 1.383 . S
N327 C319 1.427 . S
N327 C325 1.383 . S
H328 C334 0.930 . S
H329 C338 0.930 . S
H330 C343 0.929 . S
H331 C341 0.929 . S
H332 C336 0.929 . S
H333 C342 0.929 . S
C334 H328 0.930 . S
C334 C335 1.372 . S
C334 C342 1.378 . S
C335 C334 1.372 . S
C335 C343 1.428 1_455 S
C336 H332 0.929 . S
C336 C338 1.378 . S
C336 C340 1.350 . S
C337 C340 1.463 . S
C337 C342 1.350 1_655 S
C337 N345 1.427 . S
C338 H329 0.930 . S
C338 C336 1.378 . S
C338 C339 1.367 . S
C339 C338 1.367 . S
C339 C341 1.433 1_655 S
C340 C336 1.350 . S
C340 C337 1.463 . S
C340 N344 1.427 1_655 S
C341 H331 0.929 . S
C341 C339 1.433 1_455 S
C341 N344 1.384 . S
C342 H333 0.929 . S
C342 C334 1.378 . S
C342 C337 1.350 1_455 S
C343 H330 0.929 . S
C343 C335 1.428 1_655 S
C343 N345 1.384 . S
N344 C340 1.427 1_455 S
N344 C341 1.384 . S
N345 C337 1.427 . S
N345 C343 1.384 . S
H346 C352 0.930 . S
H347 C356 0.930 . S
H348 C361 0.929 . S
H349 C359 0.929 . S
H350 C354 0.929 . S
H351 C360 0.929 . S
C352 H346 0.930 . S
C352 C353 1.367 . S
C352 C360 1.378 . S
C353 C352 1.367 . S
C353 C361 1.433 . S
C354 H350 0.929 . S
C354 C356 1.378 . S
C354 C358 1.350 1_565 S
C355 C358 1.463 . S
C355 C360 1.350 . S
C355 N363 1.427 . S
C356 H347 0.930 . S
C356 C354 1.378 . S
C356 C357 1.367 1_565 S
C357 C356 1.367 1_545 S
C357 C359 1.433 . S
C358 C354 1.350 1_545 S
C358 C355 1.463 . S
C358 N362 1.427 . S
C359 H349 0.929 . S
C359 C357 1.433 . S
C359 N362 1.384 . S
C360 H351 0.929 . S
C360 C352 1.378 . S
C360 C355 1.350 . S
C361 H348 0.929 . S
C361 C353 1.433 . S
C361 N363 1.384 . S
N362 C358 1.427 . S
N362 C359 1.384 . S
N363 C355 1.427 . S
N363 C361 1.384 . S
H364 C370 0.930 1_556 S
H365 C374 0.930 . S
H366 C379 0.929 . S
H367 C377 0.929 . S
H368 C372 0.929 . S
H369 C378 0.929 . S
C370 H364 0.930 1_554 S
C370 C371 1.367 . S
C370 C378 1.378 . S
C371 C370 1.367 . S
C371 C379 1.433 . S
C372 H368 0.929 . S
C372 C374 1.378 . S
C372 C376 1.350 . S
C373 C376 1.463 . S
C373 C378 1.350 . S
C373 N381 1.427 . S
C374 H365 0.930 . S
C374 C372 1.378 . S
C374 C375 1.367 . S
C375 C374 1.367 . S
C375 C377 1.433 . S
C376 C372 1.350 . S
C376 C373 1.463 . S
C376 N380 1.427 . S
C377 H367 0.929 . S
C377 C375 1.433 . S
C377 N380 1.384 . S
C378 H369 0.929 . S
C378 C370 1.378 . S
C378 C373 1.350 . S
C379 H366 0.929 . S
C379 C371 1.433 . S
C379 N381 1.384 . S
N380 C376 1.427 . S
N380 C377 1.384 . S
N381 C373 1.427 . S
N381 C379 1.384 . S
H382 C388 0.930 . S
H383 C392 0.930 . S
H384 C397 0.929 . S
H385 C395 0.929 . S
H386 C390 0.929 . S
H387 C396 0.929 . S
C388 H382 0.930 . S
C388 C389 1.367 . S
C388 C396 1.378 . S
C389 C388 1.367 . S
C389 C397 1.433 . S
C390 H386 0.929 . S
C390 C392 1.378 . S
C390 C394 1.350 . S
C391 C394 1.463 . S
C391 C396 1.350 . S
C391 N399 1.427 . S
C392 H383 0.930 . S
C392 C390 1.378 . S
C392 C393 1.367 . S
C393 C392 1.367 . S
C393 C395 1.433 . S
C394 C390 1.350 . S
C394 C391 1.463 . S
C394 N398 1.427 . S
C395 H385 0.929 . S
C395 C393 1.433 . S
C395 N398 1.384 . S
C396 H387 0.929 . S
C396 C388 1.378 . S
C396 C391 1.350 . S
C397 H384 0.929 . S
C397 C389 1.433 . S
C397 N399 1.384 . S
N398 C394 1.427 . S
N398 C395 1.384 . S
N399 C391 1.427 . S
N399 C397 1.384 . S
H400 C406 0.930 . S
H401 C410 0.930 . S
H402 C415 0.929 . S
H403 C413 0.929 . S
H404 C408 0.929 . S
H405 C414 0.929 . S
C406 H400 0.930 . S
C406 C407 1.373 . S
C406 C414 1.378 . S
C407 C406 1.373 . S
C407 C415 1.430 1_656 S
C408 H404 0.929 . S
C408 C410 1.378 . S
C408 C412 1.350 . S
C409 C412 1.463 . S
C409 C414 1.350 1_455 S
C409 N417 1.427 1_556 S
C410 H401 0.930 . S
C410 C408 1.378 . S
C410 C411 1.367 . S
C411 C410 1.367 . S
C411 C413 1.433 . S
C412 C408 1.350 . S
C412 C409 1.463 . S
C412 N416 1.427 . S
C413 H403 0.929 . S
C413 C411 1.433 . S
C413 N416 1.384 . S
C414 H405 0.929 . S
C414 C406 1.378 . S
C414 C409 1.350 1_655 S
C415 H402 0.929 . S
C415 C407 1.430 1_454 S
C415 N417 1.384 . S
N416 C412 1.427 . S
N416 C413 1.384 . S
N417 C409 1.427 1_554 S
N417 C415 1.384 . S
H418 C424 0.930 . S
H419 C428 0.930 . S
H420 C433 0.929 . S
H421 C431 0.929 . S
H422 C426 0.929 . S
H423 C432 0.929 . S
C424 H418 0.930 . S
C424 C425 1.367 . S
C424 C432 1.378 . S
C425 C424 1.367 . S
C425 C433 1.433 1_556 S
C426 H422 0.929 . S
C426 C428 1.378 . S
C426 C430 1.350 1_545 S
C427 C430 1.463 . S
C427 C432 1.350 . S
C427 N435 1.427 . S
C428 H419 0.930 . S
C428 C426 1.378 . S
C428 C429 1.364 1_545 S
C429 C428 1.364 1_565 S
C429 C431 1.438 . S
C430 C426 1.350 1_565 S
C430 C427 1.463 . S
C430 N434 1.427 . S
C431 H421 0.929 . S
C431 C429 1.438 . S
C431 N434 1.384 . S
C432 H423 0.929 . S
C432 C424 1.378 . S
C432 C427 1.350 . S
C433 H420 0.929 . S
C433 C425 1.433 1_554 S
C433 N435 1.384 1_554 S
N434 C430 1.427 . S
N434 C431 1.384 . S
N435 C427 1.427 . S
N435 C433 1.384 1_556 S
H436 C442 0.930 . S
H437 C446 0.930 . S
H438 C451 0.929 . S
H439 C449 0.929 . S
H440 C444 0.929 . S
H441 C450 0.929 . S
C442 H436 0.930 . S
C442 C443 1.367 . S
C442 C450 1.378 . S
C443 C442 1.367 . S
C443 C451 1.433 1_554 S
C444 H440 0.929 . S
C444 C446 1.378 . S
C444 C448 1.350 . S
C445 C448 1.463 . S
C445 C450 1.350 1_556 S
C445 N453 1.427 . S
C446 H437 0.930 . S
C446 C444 1.378 . S
C446 C447 1.367 . S
C447 C446 1.367 . S
C447 C449 1.433 . S
C448 C444 1.350 . S
C448 C445 1.463 . S
C448 N452 1.427 . S
C449 H439 0.929 . S
C449 C447 1.433 . S
C449 N452 1.384 . S
C450 H441 0.929 . S
C450 C442 1.378 . S
C450 C445 1.350 1_554 S
C451 H438 0.929 . S
C451 C443 1.433 1_556 S
C451 N453 1.384 . S
N452 C448 1.427 . S
N452 C449 1.384 . S
N453 C445 1.427 . S
N453 C451 1.384 . S
H454 C460 0.930 . S
H455 C464 0.930 . S
H456 C469 0.929 . S
H457 C467 0.929 . S
H458 C462 0.929 . S
H459 C468 0.929 . S
C460 H454 0.930 . S
C460 C461 1.367 1_556 S
C460 C468 1.378 . S
C461 C460 1.367 1_554 S
C461 C469 1.433 . S
C462 H458 0.929 . S
C462 C464 1.378 . S
C462 C466 1.350 . S
C463 C466 1.463 . S
C463 C468 1.350 . S
C463 N471 1.427 1_556 S
C464 H455 0.930 . S
C464 C462 1.378 . S
C464 C465 1.367 . S
C465 C464 1.367 . S
C465 C467 1.433 . S
C466 C462 1.350 . S
C466 C463 1.463 . S
C466 N470 1.427 . S
C467 H457 0.929 . S
C467 C465 1.433 . S
C467 N470 1.384 . S
C468 H459 0.929 . S
C468 C460 1.378 . S
C468 C463 1.350 . S
C469 H456 0.929 . S
C469 C461 1.433 . S
C469 N471 1.384 . S
N470 C466 1.427 . S
N470 C467 1.384 . S
N471 C463 1.427 1_554 S
N471 C469 1.384 . S
H472 C478 0.930 . S
H473 C482 0.930 . S
H474 C487 0.929 . S
H475 C485 0.929 . S
H476 C480 0.929 . S
H477 C486 0.929 . S
C478 H472 0.930 . S
C478 C479 1.353 1_655 S
C478 C486 1.378 . S
C479 C478 1.353 1_455 S
C479 C487 1.450 . S
C480 H476 0.929 . S
C480 C482 1.378 . S
C480 C484 1.350 . S
C481 C484 1.463 . S
C481 C486 1.350 1_455 S
C481 N489 1.427 . S
C482 H473 0.930 . S
C482 C480 1.378 . S
C482 C483 1.367 . S
C483 C482 1.367 . S
C483 C485 1.433 1_455 S
C484 C480 1.350 . S
C484 C481 1.463 . S
C484 N488 1.427 1_455 S
C485 H475 0.929 . S
C485 C483 1.433 1_655 S
C485 N488 1.384 . S
C486 H477 0.929 . S
C486 C478 1.378 . S
C486 C481 1.350 1_655 S
C487 H474 0.929 . S
C487 C479 1.450 . S
C487 N489 1.384 . S
N488 C484 1.427 1_655 S
N488 C485 1.384 . S
N489 C481 1.427 . S
N489 C487 1.384 . S
H490 C496 0.930 . S
H491 C500 0.930 . S
H492 C505 0.948 1_554 S
H493 C503 0.929 . S
H494 C498 0.929 1_565 S
H495 C504 0.929 . S
C496 H490 0.930 . S
C496 C497 1.367 . S
C496 C504 1.378 . S
C497 C496 1.367 . S
C497 C505 1.433 . S
C498 H494 0.929 1_545 S
C498 C500 1.378 1_545 S
C498 C502 1.350 . S
C499 C502 1.463 . S
C499 C504 1.350 . S
C499 N507 1.427 . S
C500 H491 0.930 . S
C500 C498 1.378 1_565 S
C500 C501 1.367 1_565 S
C501 C500 1.367 1_545 S
C501 C503 1.433 . S
C502 C498 1.350 . S
C502 C499 1.463 . S
C502 N506 1.427 . S
C503 H493 0.929 . S
C503 C501 1.433 . S
C503 N506 1.384 . S
C504 H495 0.929 . S
C504 C496 1.378 . S
C504 C499 1.350 . S
C505 H492 0.948 1_556 S
C505 C497 1.433 . S
C505 N507 1.384 . S
N506 C502 1.427 . S
N506 C503 1.384 . S
N507 C499 1.427 . S
N507 C505 1.384 . S
H508 C514 0.930 . S
H509 C518 0.930 . S
H510 C523 0.929 . S
H511 C521 0.929 . S
H512 C516 0.929 . S
H513 C522 0.929 . S
C514 H508 0.930 . S
C514 C515 1.367 . S
C514 C522 1.378 . S
C515 C514 1.367 . S
C515 C523 1.433 . S
C516 H512 0.929 . S
C516 C518 1.378 . S
C516 C520 1.350 . S
C517 C520 1.463 . S
C517 C522 1.350 . S
C517 N525 1.427 . S
C518 H509 0.930 . S
C518 C516 1.378 . S
C518 C519 1.367 . S
C519 C518 1.367 . S
C519 C521 1.433 . S
C520 C516 1.350 . S
C520 C517 1.463 . S
C520 N524 1.427 . S
C521 H511 0.929 . S
C521 C519 1.433 . S
C521 N524 1.384 . S
C522 H513 0.929 . S
C522 C514 1.378 . S
C522 C517 1.350 . S
C523 H510 0.929 . S
C523 C515 1.433 . S
C523 N525 1.384 . S
N524 C520 1.427 . S
N524 C521 1.384 . S
N525 C517 1.427 . S
N525 C523 1.384 . S
H526 C532 0.930 1_554 S
H527 C536 0.930 . S
H528 C541 0.929 . S
H529 C539 0.929 . S
H530 C534 0.929 . S
H531 C540 0.929 . S
C532 H526 0.930 1_556 S
C532 C533 1.367 . S
C532 C540 1.378 . S
C533 C532 1.367 . S
C533 C541 1.433 . S
C534 H530 0.929 . S
C534 C536 1.378 . S
C534 C538 1.350 . S
C535 C538 1.463 . S
C535 C540 1.350 . S
C535 N543 1.427 . S
C536 H527 0.930 . S
C536 C534 1.378 . S
C536 C537 1.367 . S
C537 C536 1.367 . S
C537 C539 1.433 . S
C538 C534 1.350 . S
C538 C535 1.463 . S
C538 N542 1.427 . S
C539 H529 0.929 . S
C539 C537 1.433 . S
C539 N542 1.384 . S
C540 H531 0.929 . S
C540 C532 1.378 . S
C540 C535 1.350 . S
C541 H528 0.929 . S
C541 C533 1.433 . S
C541 N543 1.384 . S
N542 C538 1.427 . S
N542 C539 1.384 . S
N543 C535 1.427 . S
N543 C541 1.384 . S
H544 C550 0.930 . S
H545 C554 0.930 . S
H546 C559 0.929 . S
H547 C557 0.929 1_455 S
H548 C552 0.929 . S
H549 C558 0.929 . S
C550 H544 0.930 . S
C550 C551 1.359 1_455 S
C550 C558 1.378 . S
C551 C550 1.359 1_655 S
C551 C559 1.446 . S
C552 H548 0.929 . S
C552 C554 1.378 . S
C552 C556 1.350 . S
C553 C556 1.463 . S
C553 C558 1.350 1_655 S
C553 N561 1.427 . S
C554 H545 0.930 . S
C554 C552 1.378 . S
C554 C555 1.367 . S
C555 C554 1.367 . S
C555 C557 1.433 . S
C556 C552 1.350 . S
C556 C553 1.463 . S
C556 N560 1.431 . S
C557 H547 0.929 1_655 S
C557 C555 1.433 . S
C557 N560 1.386 . S
C558 H549 0.929 . S
C558 C550 1.378 . S
C558 C553 1.350 1_455 S
C559 H546 0.929 . S
C559 C551 1.446 . S
C559 N561 1.384 . S
N560 C556 1.431 . S
N560 C557 1.386 . S
N561 C553 1.427 . S
N561 C559 1.384 . S
H562 C568 0.905 1_545 S
H563 C572 0.930 . S
H564 C577 0.929 . S
H565 C575 0.929 . S
H566 C570 0.929 . S
H567 C576 0.929 1_545 S
C568 H562 0.905 1_565 S
C568 C569 1.367 . S
C568 C576 1.378 . S
C569 C568 1.367 . S
C569 C577 1.433 . S
C570 H566 0.929 . S
C570 C572 1.378 . S
C570 C574 1.350 . S
C571 C574 1.463 . S
C571 C576 1.350 . S
C571 N579 1.427 . S
C572 H563 0.930 . S
C572 C570 1.378 . S
C572 C573 1.367 . S
C573 C572 1.367 . S
C573 C575 1.433 1_565 S
C574 C570 1.350 . S
C574 C571 1.463 . S
C574 N578 1.397 1_565 S
C575 H565 0.929 . S
C575 C573 1.433 1_545 S
C575 N578 1.392 . S
C576 H567 0.929 1_565 S
C576 C568 1.378 . S
C576 C571 1.350 . S
C577 H564 0.929 . S
C577 C569 1.433 . S
C577 N579 1.384 . S
N578 C574 1.397 1_545 S
N578 C575 1.392 . S
N579 C571 1.427 . S
N579 C577 1.384 . S
H580 C586 0.930 . S
H581 C590 0.930 . S
H582 C595 0.929 . S
H583 C593 0.929 . S
H584 C588 0.929 . S
H585 C594 0.929 . S
C586 H580 0.930 . S
C586 C587 1.367 . S
C586 C594 1.378 . S
C587 C586 1.367 . S
C587 C595 1.433 . S
C588 H584 0.929 . S
C588 C590 1.378 . S
C588 C592 1.350 . S
C589 C592 1.463 . S
C589 C594 1.350 . S
C589 N597 1.427 . S
C590 H581 0.930 . S
C590 C588 1.378 . S
C590 C591 1.367 . S
C591 C590 1.367 . S
C591 C593 1.433 . S
C592 C588 1.350 . S
C592 C589 1.463 . S
C592 N596 1.427 . S
C593 H583 0.929 . S
C593 C591 1.433 . S
C593 N596 1.384 . S
C594 H585 0.929 . S
C594 C586 1.378 . S
C594 C589 1.350 . S
C595 H582 0.929 . S
C595 C587 1.433 . S
C595 N597 1.384 . S
N596 C592 1.427 . S
N596 C593 1.384 . S
N597 C589 1.427 . S
N597 C595 1.384 . S
H598 C604 0.930 . S
H599 C608 0.930 . S
H600 C613 0.929 . S
H601 C611 0.929 . S
H602 C606 0.929 . S
H603 C612 0.929 . S
C604 H598 0.930 . S
C604 C605 1.367 . S
C604 C612 1.378 . S
C605 C604 1.367 . S
C605 C613 1.433 . S
C606 H602 0.929 . S
C606 C608 1.378 . S
C606 C610 1.350 . S
C607 C610 1.463 . S
C607 C612 1.350 . S
C607 N615 1.427 . S
C608 H599 0.930 . S
C608 C606 1.378 . S
C608 C609 1.367 . S
C609 C608 1.367 . S
C609 C611 1.433 . S
C610 C606 1.350 . S
C610 C607 1.463 . S
C610 N614 1.427 . S
C611 H601 0.929 . S
C611 C609 1.433 . S
C611 N614 1.384 . S
C612 H603 0.929 . S
C612 C604 1.378 . S
C612 C607 1.350 . S
C613 H600 0.929 . S
C613 C605 1.433 . S
C613 N615 1.384 . S
N614 C610 1.427 . S
N614 C611 1.384 . S
N615 C607 1.427 . S
N615 C613 1.384 . S
C191 N80 1.681 . S
C195 C112 1.692 . S
C213 C142 1.796 . S
C209 N93 1.775 . S
C231 C152 1.552 . S
C227 N54 1.514 . S
C249 C172 1.437 . S
C245 N67 1.422 . S
C267 C113 1.699 . S
C263 N28 1.686 1_556 S
C281 N41 1.781 . S
C285 C143 1.793 . S
C299 N2 1.519 . S
C303 C153 1.548 . S
C317 N15 1.417 . S
C321 C173 1.439 . S
C339 C105 0.841 . S
C335 N70 0.839 1_455 S
C357 C126 0.577 . S
C353 N83 0.579 . S
C375 C145 0.966 . S
C371 N96 0.962 . S
C389 N57 0.734 . S
C393 C165 0.726 . S
C407 N18 0.834 1_556 S
C411 C106 0.829 . S
C429 C125 0.576 1_565 S
C425 N31 0.576 1_556 S
C447 C146 0.965 . S
C443 N44 0.962 . S
C461 N5 0.730 . S
C465 C166 0.730 . S
C479 N66 1.568 1_456 S
C483 C123 1.582 . S
C497 N79 1.437 1_556 S
C501 C133 1.472 . S
C519 C163 1.752 . S
C515 N92 1.724 . S
C537 C183 1.759 . S
C533 N53 1.738 . S
C551 N14 1.573 . S
C555 C122 1.579 . S
C573 C132 1.467 . S
C569 N27 1.440 . S
C591 C162 1.747 . S
C587 N40 1.741 . S
C605 N1 1.747 . S
C609 C182 1.758 . S
