# Generated by pormake.
# Topology tbo, (3,4)-cn, num edge types: 1
# Building blocks:
#     Node 0, Type 0, BuildingBlock: ESEHIV_clean_linker_0, # of connection points: 3
#     Node 1, Type 0, BuildingBlock: ESEHIV_clean_linker_0, # of connection points: 3
#     Node 2, Type 0, BuildingBlock: ESEHIV_clean_linker_0, # of connection points: 3
#     Node 3, Type 0, BuildingBlock: ESEHIV_clean_linker_0, # of connection points: 3
#     Node 4, Type 0, BuildingBlock: ESEHIV_clean_linker_0, # of connection points: 3
#     Node 5, Type 0, BuildingBlock: ESEHIV_clean_linker_0, # of connection points: 3
#     Node 6, Type 0, BuildingBlock: ESEHIV_clean_linker_0, # of connection points: 3
#     Node 7, Type 0, BuildingBlock: ESEHIV_clean_linker_0, # of connection points: 3
#     Node 8, Type 0, BuildingBlock: ESEHIV_clean_linker_0, # of connection points: 3
#     Node 9, Type 0, BuildingBlock: ESEHIV_clean_linker_0, # of connection points: 3
#     Node 10, Type 0, BuildingBlock: ESEHIV_clean_linker_0, # of connection points: 3
#     Node 11, Type 0, BuildingBlock: ESEHIV_clean_linker_0, # of connection points: 3
#     Node 12, Type 0, BuildingBlock: ESEHIV_clean_linker_0, # of connection points: 3
#     Node 13, Type 0, BuildingBlock: ESEHIV_clean_linker_0, # of connection points: 3
#     Node 14, Type 0, BuildingBlock: ESEHIV_clean_linker_0, # of connection points: 3
#     Node 15, Type 0, BuildingBlock: ESEHIV_clean_linker_0, # of connection points: 3
#     Node 16, Type 0, BuildingBlock: ESEHIV_clean_linker_0, # of connection points: 3
#     Node 17, Type 0, BuildingBlock: ESEHIV_clean_linker_0, # of connection points: 3
#     Node 18, Type 0, BuildingBlock: ESEHIV_clean_linker_0, # of connection points: 3
#     Node 19, Type 0, BuildingBlock: ESEHIV_clean_linker_0, # of connection points: 3
#     Node 20, Type 0, BuildingBlock: ESEHIV_clean_linker_0, # of connection points: 3
#     Node 21, Type 0, BuildingBlock: ESEHIV_clean_linker_0, # of connection points: 3
#     Node 22, Type 0, BuildingBlock: ESEHIV_clean_linker_0, # of connection points: 3
#     Node 23, Type 0, BuildingBlock: ESEHIV_clean_linker_0, # of connection points: 3
#     Node 24, Type 0, BuildingBlock: ESEHIV_clean_linker_0, # of connection points: 3
#     Node 25, Type 0, BuildingBlock: ESEHIV_clean_linker_0, # of connection points: 3
#     Node 26, Type 0, BuildingBlock: ESEHIV_clean_linker_0, # of connection points: 3
#     Node 27, Type 0, BuildingBlock: ESEHIV_clean_linker_0, # of connection points: 3
#     Node 28, Type 0, BuildingBlock: ESEHIV_clean_linker_0, # of connection points: 3
#     Node 29, Type 0, BuildingBlock: ESEHIV_clean_linker_0, # of connection points: 3
#     Node 30, Type 0, BuildingBlock: ESEHIV_clean_linker_0, # of connection points: 3
#     Node 31, Type 0, BuildingBlock: ESEHIV_clean_linker_0, # of connection points: 3
#     Node 32, Type 1, BuildingBlock: ESEHIV_clean_sbu_0, # of connection points: 4
#     Node 33, Type 1, BuildingBlock: ESEHIV_clean_sbu_0, # of connection points: 4
#     Node 34, Type 1, BuildingBlock: ESEHIV_clean_sbu_0, # of connection points: 4
#     Node 35, Type 1, BuildingBlock: ESEHIV_clean_sbu_0, # of connection points: 4
#     Node 36, Type 1, BuildingBlock: ESEHIV_clean_sbu_0, # of connection points: 4
#     Node 37, Type 1, BuildingBlock: ESEHIV_clean_sbu_0, # of connection points: 4
#     Node 38, Type 1, BuildingBlock: ESEHIV_clean_sbu_0, # of connection points: 4
#     Node 39, Type 1, BuildingBlock: ESEHIV_clean_sbu_0, # of connection points: 4
#     Node 40, Type 1, BuildingBlock: ESEHIV_clean_sbu_0, # of connection points: 4
#     Node 41, Type 1, BuildingBlock: ESEHIV_clean_sbu_0, # of connection points: 4
#     Node 42, Type 1, BuildingBlock: ESEHIV_clean_sbu_0, # of connection points: 4
#     Node 43, Type 1, BuildingBlock: ESEHIV_clean_sbu_0, # of connection points: 4
#     Node 44, Type 1, BuildingBlock: ESEHIV_clean_sbu_0, # of connection points: 4
#     Node 45, Type 1, BuildingBlock: ESEHIV_clean_sbu_0, # of connection points: 4
#     Node 46, Type 1, BuildingBlock: ESEHIV_clean_sbu_0, # of connection points: 4
#     Node 47, Type 1, BuildingBlock: ESEHIV_clean_sbu_0, # of connection points: 4
#     Node 48, Type 1, BuildingBlock: ESEHIV_clean_sbu_0, # of connection points: 4
#     Node 49, Type 1, BuildingBlock: ESEHIV_clean_sbu_0, # of connection points: 4
#     Node 50, Type 1, BuildingBlock: ESEHIV_clean_sbu_0, # of connection points: 4
#     Node 51, Type 1, BuildingBlock: ESEHIV_clean_sbu_0, # of connection points: 4
#     Node 52, Type 1, BuildingBlock: ESEHIV_clean_sbu_0, # of connection points: 4
#     Node 53, Type 1, BuildingBlock: ESEHIV_clean_sbu_0, # of connection points: 4
#     Node 54, Type 1, BuildingBlock: ESEHIV_clean_sbu_0, # of connection points: 4
#     Node 55, Type 1, BuildingBlock: ESEHIV_clean_sbu_0, # of connection points: 4
#     Edge 56, Type (0, 1), BuildingBlock: EZIPEK_clean_linker_0, # of connection points: 2
#     Edge 57, Type (0, 1), BuildingBlock: EZIPEK_clean_linker_0, # of connection points: 2
#     Edge 58, Type (0, 1), BuildingBlock: EZIPEK_clean_linker_0, # of connection points: 2
#     Edge 59, Type (0, 1), BuildingBlock: EZIPEK_clean_linker_0, # of connection points: 2
#     Edge 60, Type (0, 1), BuildingBlock: EZIPEK_clean_linker_0, # of connection points: 2
#     Edge 61, Type (0, 1), BuildingBlock: EZIPEK_clean_linker_0, # of connection points: 2
#     Edge 62, Type (0, 1), BuildingBlock: EZIPEK_clean_linker_0, # of connection points: 2
#     Edge 63, Type (0, 1), BuildingBlock: EZIPEK_clean_linker_0, # of connection points: 2
#     Edge 64, Type (0, 1), BuildingBlock: EZIPEK_clean_linker_0, # of connection points: 2
#     Edge 65, Type (0, 1), BuildingBlock: EZIPEK_clean_linker_0, # of connection points: 2
#     Edge 66, Type (0, 1), BuildingBlock: EZIPEK_clean_linker_0, # of connection points: 2
#     Edge 67, Type (0, 1), BuildingBlock: EZIPEK_clean_linker_0, # of connection points: 2
#     Edge 68, Type (0, 1), BuildingBlock: EZIPEK_clean_linker_0, # of connection points: 2
#     Edge 69, Type (0, 1), BuildingBlock: EZIPEK_clean_linker_0, # of connection points: 2
#     Edge 70, Type (0, 1), BuildingBlock: EZIPEK_clean_linker_0, # of connection points: 2
#     Edge 71, Type (0, 1), BuildingBlock: EZIPEK_clean_linker_0, # of connection points: 2
#     Edge 72, Type (0, 1), BuildingBlock: EZIPEK_clean_linker_0, # of connection points: 2
#     Edge 73, Type (0, 1), BuildingBlock: EZIPEK_clean_linker_0, # of connection points: 2
#     Edge 74, Type (0, 1), BuildingBlock: EZIPEK_clean_linker_0, # of connection points: 2
#     Edge 75, Type (0, 1), BuildingBlock: EZIPEK_clean_linker_0, # of connection points: 2
#     Edge 76, Type (0, 1), BuildingBlock: EZIPEK_clean_linker_0, # of connection points: 2
#     Edge 77, Type (0, 1), BuildingBlock: EZIPEK_clean_linker_0, # of connection points: 2
#     Edge 78, Type (0, 1), BuildingBlock: EZIPEK_clean_linker_0, # of connection points: 2
#     Edge 79, Type (0, 1), BuildingBlock: EZIPEK_clean_linker_0, # of connection points: 2
#     Edge 80, Type (0, 1), BuildingBlock: EZIPEK_clean_linker_0, # of connection points: 2
#     Edge 81, Type (0, 1), BuildingBlock: EZIPEK_clean_linker_0, # of connection points: 2
#     Edge 82, Type (0, 1), BuildingBlock: EZIPEK_clean_linker_0, # of connection points: 2
#     Edge 83, Type (0, 1), BuildingBlock: EZIPEK_clean_linker_0, # of connection points: 2
#     Edge 84, Type (0, 1), BuildingBlock: EZIPEK_clean_linker_0, # of connection points: 2
#     Edge 85, Type (0, 1), BuildingBlock: EZIPEK_clean_linker_0, # of connection points: 2
#     Edge 86, Type (0, 1), BuildingBlock: EZIPEK_clean_linker_0, # of connection points: 2
#     Edge 87, Type (0, 1), BuildingBlock: EZIPEK_clean_linker_0, # of connection points: 2
#     Edge 88, Type (0, 1), BuildingBlock: EZIPEK_clean_linker_0, # of connection points: 2
#     Edge 89, Type (0, 1), BuildingBlock: EZIPEK_clean_linker_0, # of connection points: 2
#     Edge 90, Type (0, 1), BuildingBlock: EZIPEK_clean_linker_0, # of connection points: 2
#     Edge 91, Type (0, 1), BuildingBlock: EZIPEK_clean_linker_0, # of connection points: 2
#     Edge 92, Type (0, 1), BuildingBlock: EZIPEK_clean_linker_0, # of connection points: 2
#     Edge 93, Type (0, 1), BuildingBlock: EZIPEK_clean_linker_0, # of connection points: 2
#     Edge 94, Type (0, 1), BuildingBlock: EZIPEK_clean_linker_0, # of connection points: 2
#     Edge 95, Type (0, 1), BuildingBlock: EZIPEK_clean_linker_0, # of connection points: 2
#     Edge 96, Type (0, 1), BuildingBlock: EZIPEK_clean_linker_0, # of connection points: 2
#     Edge 97, Type (0, 1), BuildingBlock: EZIPEK_clean_linker_0, # of connection points: 2
#     Edge 98, Type (0, 1), BuildingBlock: EZIPEK_clean_linker_0, # of connection points: 2
#     Edge 99, Type (0, 1), BuildingBlock: EZIPEK_clean_linker_0, # of connection points: 2
#     Edge 100, Type (0, 1), BuildingBlock: EZIPEK_clean_linker_0, # of connection points: 2
#     Edge 101, Type (0, 1), BuildingBlock: EZIPEK_clean_linker_0, # of connection points: 2
#     Edge 102, Type (0, 1), BuildingBlock: EZIPEK_clean_linker_0, # of connection points: 2
#     Edge 103, Type (0, 1), BuildingBlock: EZIPEK_clean_linker_0, # of connection points: 2
#     Edge 104, Type (0, 1), BuildingBlock: EZIPEK_clean_linker_0, # of connection points: 2
#     Edge 105, Type (0, 1), BuildingBlock: EZIPEK_clean_linker_0, # of connection points: 2
#     Edge 106, Type (0, 1), BuildingBlock: EZIPEK_clean_linker_0, # of connection points: 2
#     Edge 107, Type (0, 1), BuildingBlock: EZIPEK_clean_linker_0, # of connection points: 2
#     Edge 108, Type (0, 1), BuildingBlock: EZIPEK_clean_linker_0, # of connection points: 2
#     Edge 109, Type (0, 1), BuildingBlock: EZIPEK_clean_linker_0, # of connection points: 2
#     Edge 110, Type (0, 1), BuildingBlock: EZIPEK_clean_linker_0, # of connection points: 2
#     Edge 111, Type (0, 1), BuildingBlock: EZIPEK_clean_linker_0, # of connection points: 2
#     Edge 112, Type (0, 1), BuildingBlock: EZIPEK_clean_linker_0, # of connection points: 2
#     Edge 113, Type (0, 1), BuildingBlock: EZIPEK_clean_linker_0, # of connection points: 2
#     Edge 114, Type (0, 1), BuildingBlock: EZIPEK_clean_linker_0, # of connection points: 2
#     Edge 115, Type (0, 1), BuildingBlock: EZIPEK_clean_linker_0, # of connection points: 2
#     Edge 116, Type (0, 1), BuildingBlock: EZIPEK_clean_linker_0, # of connection points: 2
#     Edge 117, Type (0, 1), BuildingBlock: EZIPEK_clean_linker_0, # of connection points: 2
#     Edge 118, Type (0, 1), BuildingBlock: EZIPEK_clean_linker_0, # of connection points: 2
#     Edge 119, Type (0, 1), BuildingBlock: EZIPEK_clean_linker_0, # of connection points: 2
#     Edge 120, Type (0, 1), BuildingBlock: EZIPEK_clean_linker_0, # of connection points: 2
#     Edge 121, Type (0, 1), BuildingBlock: EZIPEK_clean_linker_0, # of connection points: 2
#     Edge 122, Type (0, 1), BuildingBlock: EZIPEK_clean_linker_0, # of connection points: 2
#     Edge 123, Type (0, 1), BuildingBlock: EZIPEK_clean_linker_0, # of connection points: 2
#     Edge 124, Type (0, 1), BuildingBlock: EZIPEK_clean_linker_0, # of connection points: 2
#     Edge 125, Type (0, 1), BuildingBlock: EZIPEK_clean_linker_0, # of connection points: 2
#     Edge 126, Type (0, 1), BuildingBlock: EZIPEK_clean_linker_0, # of connection points: 2
#     Edge 127, Type (0, 1), BuildingBlock: EZIPEK_clean_linker_0, # of connection points: 2
#     Edge 128, Type (0, 1), BuildingBlock: EZIPEK_clean_linker_0, # of connection points: 2
#     Edge 129, Type (0, 1), BuildingBlock: EZIPEK_clean_linker_0, # of connection points: 2
#     Edge 130, Type (0, 1), BuildingBlock: EZIPEK_clean_linker_0, # of connection points: 2
#     Edge 131, Type (0, 1), BuildingBlock: EZIPEK_clean_linker_0, # of connection points: 2
#     Edge 132, Type (0, 1), BuildingBlock: EZIPEK_clean_linker_0, # of connection points: 2
#     Edge 133, Type (0, 1), BuildingBlock: EZIPEK_clean_linker_0, # of connection points: 2
#     Edge 134, Type (0, 1), BuildingBlock: EZIPEK_clean_linker_0, # of connection points: 2
#     Edge 135, Type (0, 1), BuildingBlock: EZIPEK_clean_linker_0, # of connection points: 2
#     Edge 136, Type (0, 1), BuildingBlock: EZIPEK_clean_linker_0, # of connection points: 2
#     Edge 137, Type (0, 1), BuildingBlock: EZIPEK_clean_linker_0, # of connection points: 2
#     Edge 138, Type (0, 1), BuildingBlock: EZIPEK_clean_linker_0, # of connection points: 2
#     Edge 139, Type (0, 1), BuildingBlock: EZIPEK_clean_linker_0, # of connection points: 2
#     Edge 140, Type (0, 1), BuildingBlock: EZIPEK_clean_linker_0, # of connection points: 2
#     Edge 141, Type (0, 1), BuildingBlock: EZIPEK_clean_linker_0, # of connection points: 2
#     Edge 142, Type (0, 1), BuildingBlock: EZIPEK_clean_linker_0, # of connection points: 2
#     Edge 143, Type (0, 1), BuildingBlock: EZIPEK_clean_linker_0, # of connection points: 2
#     Edge 144, Type (0, 1), BuildingBlock: EZIPEK_clean_linker_0, # of connection points: 2
#     Edge 145, Type (0, 1), BuildingBlock: EZIPEK_clean_linker_0, # of connection points: 2
#     Edge 146, Type (0, 1), BuildingBlock: EZIPEK_clean_linker_0, # of connection points: 2
#     Edge 147, Type (0, 1), BuildingBlock: EZIPEK_clean_linker_0, # of connection points: 2
#     Edge 148, Type (0, 1), BuildingBlock: EZIPEK_clean_linker_0, # of connection points: 2
#     Edge 149, Type (0, 1), BuildingBlock: EZIPEK_clean_linker_0, # of connection points: 2
#     Edge 150, Type (0, 1), BuildingBlock: EZIPEK_clean_linker_0, # of connection points: 2
#     Edge 151, Type (0, 1), BuildingBlock: EZIPEK_clean_linker_0, # of connection points: 2
# Relax obj value: 0.005
# Max RMSD: 0.133
# Mean RMSD: 0.053
data_MOF--net-tbo--node1-ESEHIV_clean_sbu_0--node2-ESEHIV_clean_linker_0--edge1-EZIPEK_clean_linker_0
_symmetry_space_group_name_H-M    P1
_symmetry_Int_Tables_number       1
_symmetry_cell_setting            triclinic
loop_
_symmetry_equiv_pos_as_xyz
'x, y, z'
_cell_length_a     49.581366
_cell_length_b     49.546311
_cell_length_c     49.516781
_cell_angle_alpha  89.902491
_cell_angle_beta   94.204567
_cell_angle_gamma 91.544816
loop_
_atom_site_label
_atom_site_type_symbol
_atom_site_fract_x
_atom_site_fract_y
_atom_site_fract_z
_atom_type_partial_charge
H0 H 0.18685 0.21116 0.17721 0.0
H1 H 0.24539 0.1502 0.16704 0.0
H2 H 0.18819 0.1398 0.22744 0.0
C3 C 0.19543 0.19199 0.18321 0.0
C4 C 0.18426 0.17651 0.20389 0.0
C5 C 0.21821 0.18296 0.17075 0.0
C6 C 0.22848 0.1576 0.17734 0.0
C7 C 0.21757 0.14195 0.19754 0.0
C8 C 0.19622 0.15186 0.21143 0.0
H9 H 0.87856 0.1852 0.20592 0.0
H10 H 0.88862 0.25702 0.15815 0.0
H11 H 0.82223 0.20129 0.13771 0.0
C12 C 0.87195 0.19793 0.18901 0.0
C13 C 0.84848 0.19048 0.17261 0.0
C14 C 0.88664 0.222 0.18394 0.0
C15 C 0.8776 0.23841 0.16214 0.0
C16 C 0.85471 0.23081 0.1452 0.0
C17 C 0.84009 0.20697 0.15059 0.0
H18 H 0.82767 0.91266 0.16622 0.0
H19 H 0.87865 0.84418 0.17965 0.0
H20 H 0.88486 0.90994 0.23517 0.0
C21 C 0.84474 0.90292 0.17642 0.0
C22 C 0.85551 0.91442 0.2012 0.0
C23 C 0.85581 0.87941 0.16548 0.0
C24 C 0.87322 0.8646 0.1839 0.0
C25 C 0.88409 0.87574 0.20855 0.0
C26 C 0.87598 0.90108 0.21644 0.0
H27 H 0.12913 0.84838 0.24079 0.0
H28 H 0.19579 0.8594 0.19045 0.0
H29 H 0.1395 0.79236 0.17625 0.0
C30 C 0.14023 0.84195 0.22398 0.0
C31 C 0.13154 0.81875 0.20916 0.0
C32 C 0.16331 0.85681 0.21723 0.0
C33 C 0.17776 0.84823 0.19556 0.0
C34 C 0.16927 0.82493 0.18083 0.0
C35 C 0.14606 0.81037 0.18757 0.0
H36 H 0.21097 0.91126 0.85333 0.0
H37 H 0.20675 0.84651 0.91098 0.0
H38 H 0.26819 0.90955 0.923 0.0
C39 C 0.21863 0.90164 0.87193 0.0
C40 C 0.24117 0.91313 0.88701 0.0
C41 C 0.20622 0.87757 0.88027 0.0
C42 C 0.21635 0.86505 0.9044 0.0
C43 C 0.2386 0.87659 0.92026 0.0
C44 C 0.25092 0.90063 0.91124 0.0
H45 H 0.18755 0.24085 0.90523 0.0
H46 H 0.2456 0.18074 0.89056 0.0
H47 H 0.17377 0.18787 0.8365 0.0
C48 C 0.19389 0.22424 0.89314 0.0
C49 C 0.17776 0.21597 0.87009 0.0
C50 C 0.21811 0.21155 0.9008 0.0
C51 C 0.22665 0.19036 0.88487 0.0
C52 C 0.21078 0.18167 0.86154 0.0
C53 C 0.18611 0.19439 0.85439 0.0
H54 H 0.85121 0.17302 0.86586 0.0
H55 H 0.91023 0.19867 0.81087 0.0
H56 H 0.90111 0.24434 0.8832 0.0
C57 C 0.86697 0.18715 0.86041 0.0
C58 C 0.87429 0.20946 0.87726 0.0
C59 C 0.88004 0.18321 0.83644 0.0
C60 C 0.90026 0.20159 0.8294 0.0
C61 C 0.90819 0.22336 0.84634 0.0
C62 C 0.89513 0.2273 0.87019 0.0
H63 H 0.85654 0.91137 0.88954 0.0
H64 H 0.92722 0.8631 0.89442 0.0
H65 H 0.9209 0.92883 0.8375 0.0
C66 C 0.8765 0.90745 0.88311 0.0
C67 C 0.88693 0.92283 0.86222 0.0
C68 C 0.89129 0.8862 0.89484 0.0
C69 C 0.91637 0.88014 0.88571 0.0
C70 C 0.92739 0.89536 0.86517 0.0
C71 C 0.91281 0.91719 0.85374 0.0
H72 H 0.169 0.73684 0.64995 0.0
H73 H 0.23789 0.68904 0.63644 0.0
H74 H 0.19997 0.68141 0.7113 0.0
C75 C 0.18332 0.7218 0.65706 0.0
C76 C 0.18179 0.71024 0.68306 0.0
C77 C 0.20426 0.7151 0.64074 0.0
C78 C 0.22214 0.69474 0.64923 0.0
C79 C 0.21988 0.68176 0.67419 0.0
C80 C 0.20056 0.69046 0.6914 0.0
H81 H 0.92747 0.73479 0.722 0.0
H82 H 0.9189 0.7964 0.66071 0.0
H83 H 0.86103 0.72983 0.66113 0.0
C84 C 0.91662 0.74298 0.70415 0.0
C85 C 0.89313 0.72947 0.69304 0.0
C86 C 0.92618 0.76704 0.69255 0.0
C87 C 0.91177 0.77779 0.66963 0.0
C88 C 0.88821 0.76445 0.65817 0.0
C89 C 0.87906 0.74026 0.66994 0.0
H90 H 0.83124 0.41976 0.65882 0.0
H91 H 0.90163 0.37443 0.6833 0.0
H92 H 0.87803 0.43971 0.73308 0.0
C93 C 0.84826 0.41604 0.67321 0.0
C94 C 0.85353 0.43312 0.69585 0.0
C95 C 0.86513 0.39413 0.6693 0.0
C96 C 0.88802 0.3905 0.68721 0.0
C97 C 0.89283 0.40651 0.71064 0.0
C98 C 0.87481 0.42724 0.7151 0.0
H99 H 0.18329 0.40678 0.74927 0.0
H100 H 0.24313 0.39126 0.69272 0.0
H101 H 0.17607 0.33531 0.69988 0.0
C102 C 0.19087 0.39431 0.73368 0.0
C103 C 0.17691 0.37028 0.72566 0.0
C104 C 0.21478 0.40209 0.72187 0.0
C105 C 0.22468 0.38548 0.70195 0.0
C106 C 0.21065 0.36135 0.694 0.0
C107 C 0.18679 0.35398 0.70584 0.0
H108 H 0.17445 0.37901 0.32852 0.0
H109 H 0.1651 0.32457 0.39561 0.0
H110 H 0.23222 0.38164 0.39761 0.0
C111 C 0.18124 0.3716 0.34841 0.0
C112 C 0.20486 0.38285 0.36192 0.0
C113 C 0.16679 0.35028 0.36026 0.0
C114 C 0.17598 0.34094 0.38627 0.0
C115 C 0.19967 0.35225 0.39985 0.0
C116 C 0.21384 0.37307 0.38742 0.0
H117 H 0.184 0.69433 0.38467 0.0
H118 H 0.24064 0.6352 0.36368 0.0
H119 H 0.16718 0.64582 0.31292 0.0
C120 C 0.18964 0.67846 0.37129 0.0
C121 C 0.17248 0.67141 0.34844 0.0
C122 C 0.21416 0.66545 0.37682 0.0
C123 C 0.2215 0.64502 0.35948 0.0
C124 C 0.2047 0.63767 0.33636 0.0
C125 C 0.1801 0.65102 0.33085 0.0
H126 H 0.81068 0.65676 0.39736 0.0
H127 H 0.8716 0.65331 0.34028 0.0
H128 H 0.88066 0.7107 0.40556 0.0
C129 C 0.82982 0.6641 0.39052 0.0
C130 C 0.84451 0.685 0.40465 0.0
C131 C 0.84003 0.6521 0.36799 0.0
C132 C 0.8642 0.66204 0.35831 0.0
C133 C 0.87856 0.68358 0.37136 0.0
C134 C 0.86917 0.69448 0.39505 0.0
H135 H 0.84631 0.38341 0.3965 0.0
H136 H 0.88627 0.30814 0.41066 0.0
H137 H 0.90676 0.35882 0.34415 0.0
C138 C 0.86104 0.36903 0.39093 0.0
C139 C 0.876 0.37401 0.36828 0.0
C140 C 0.86417 0.34506 0.40583 0.0
C141 C 0.88364 0.32656 0.39905 0.0
C142 C 0.89973 0.33188 0.37728 0.0
C143 C 0.89518 0.35522 0.36161 0.0
H144 H 0.68577 0.23467 0.67502 0.0
H145 H 0.75088 0.17922 0.67117 0.0
H146 H 0.6913 0.16742 0.72964 0.0
C147 C 0.69598 0.21663 0.68215 0.0
C148 C 0.68641 0.2021 0.70386 0.0
C149 C 0.71911 0.20846 0.67012 0.0
C150 C 0.73277 0.18543 0.68017 0.0
C151 C 0.72257 0.17013 0.70153 0.0
C152 C 0.69923 0.17869 0.71303 0.0
H153 H 0.40346 0.23194 0.74039 0.0
H154 H 0.39412 0.29807 0.68446 0.0
H155 H 0.3321 0.23547 0.68554 0.0
C156 C 0.39137 0.24239 0.72473 0.0
C157 C 0.3663 0.2311 0.71481 0.0
C158 C 0.40141 0.26654 0.71393 0.0
C159 C 0.38605 0.27978 0.69327 0.0
C160 C 0.36096 0.2688 0.68297 0.0
C161 C 0.35108 0.24444 0.69388 0.0
H162 H 0.31492 0.92564 0.6586 0.0
H163 H 0.37364 0.8631 0.66296 0.0
H164 H 0.37956 0.92638 0.72226 0.0
C165 C 0.33295 0.91697 0.66836 0.0
C166 C 0.34611 0.92943 0.69167 0.0
C167 C 0.34323 0.8932 0.65778 0.0
C168 C 0.36602 0.88162 0.67085 0.0
C169 C 0.37902 0.8933 0.69403 0.0
C170 C 0.36938 0.9174 0.7042 0.0
H171 H 0.66137 0.89935 0.7387 0.0
H172 H 0.7091 0.8736 0.67488 0.0
H173 H 0.63815 0.82721 0.69304 0.0
C174 C 0.665 0.88494 0.72301 0.0
C175 C 0.64713 0.86264 0.71805 0.0
C176 C 0.68748 0.88871 0.70757 0.0
C177 C 0.6919 0.87045 0.68695 0.0
C178 C 0.67421 0.84834 0.68155 0.0
C179 C 0.65197 0.84424 0.69731 0.0
H180 H 0.66736 0.8818 0.32633 0.0
H181 H 0.68412 0.83034 0.39521 0.0
H182 H 0.73569 0.90009 0.38275 0.0
C183 C 0.67967 0.87709 0.34465 0.0
C184 C 0.70214 0.89375 0.35271 0.0
C185 C 0.67302 0.85431 0.3599 0.0
C186 C 0.68911 0.84808 0.38354 0.0
C187 C 0.71176 0.86449 0.39202 0.0
C188 C 0.71815 0.88746 0.37654 0.0
H189 H 0.66136 0.21321 0.38394 0.0
H190 H 0.73039 0.16311 0.37778 0.0
H191 H 0.66753 0.16323 0.31345 0.0
C192 C 0.67236 0.19886 0.3728 0.0
C193 C 0.66166 0.19014 0.34678 0.0
C194 C 0.69756 0.18956 0.38408 0.0
C195 C 0.71124 0.1707 0.36935 0.0
C196 C 0.70013 0.16032 0.34462 0.0
C197 C 0.67575 0.17067 0.33301 0.0
H198 H 0.3139 0.15466 0.39845 0.0
H199 H 0.37566 0.16055 0.34163 0.0
H200 H 0.37218 0.22059 0.4039 0.0
C201 C 0.33138 0.16506 0.39096 0.0
C202 C 0.34181 0.18861 0.40375 0.0
C203 C 0.34364 0.15473 0.36872 0.0
C204 C 0.36621 0.16844 0.35891 0.0
C205 C 0.37656 0.19233 0.3716 0.0
C206 C 0.36429 0.2022 0.39403 0.0
H207 H 0.31499 0.86077 0.35441 0.0
H208 H 0.37765 0.80297 0.37063 0.0
H209 H 0.37785 0.85367 0.29991 0.0
C210 C 0.33274 0.85065 0.34844 0.0
C211 C 0.34489 0.85897 0.32504 0.0
C212 C 0.34435 0.83038 0.36499 0.0
C213 C 0.36821 0.81822 0.3577 0.0
C214 C 0.38026 0.82658 0.33403 0.0
C215 C 0.36825 0.84666 0.31774 0.0
H216 H 0.67868 0.71501 0.14153 0.0
H217 H 0.73538 0.6523 0.15011 0.0
H218 H 0.66321 0.64548 0.19176 0.0
C219 C 0.68271 0.69491 0.14878 0.0
C220 C 0.6642 0.6799 0.16393 0.0
C221 C 0.70772 0.68451 0.14315 0.0
C222 C 0.71585 0.66008 0.15431 0.0
C223 C 0.6997 0.64615 0.17174 0.0
C224 C 0.67423 0.65609 0.17683 0.0
H225 H 0.41815 0.67402 0.23981 0.0
H226 H 0.4189 0.75133 0.20021 0.0
H227 H 0.35672 0.69139 0.17686 0.0
C228 C 0.40948 0.68766 0.22457 0.0
C229 C 0.38596 0.67968 0.20895 0.0
C230 C 0.42169 0.71316 0.22137 0.0
C231 C 0.40993 0.73131 0.20226 0.0
C232 C 0.38652 0.72349 0.18584 0.0
C233 C 0.37487 0.69747 0.18913 0.0
H234 H 0.32682 0.38165 0.16541 0.0
H235 H 0.3807 0.31577 0.1588 0.0
H236 H 0.39351 0.37264 0.22495 0.0
C237 C 0.34438 0.37068 0.1732 0.0
C238 C 0.35925 0.37994 0.19658 0.0
C239 C 0.35179 0.34758 0.15964 0.0
C240 C 0.3748 0.33345 0.16954 0.0
C241 C 0.39016 0.34216 0.19333 0.0
C242 C 0.38198 0.3655 0.20681 0.0
H243 H 0.67544 0.38644 0.23269 0.0
H244 H 0.73337 0.37636 0.17338 0.0
H245 H 0.6641 0.32191 0.17444 0.0
C246 C 0.68208 0.37564 0.21543 0.0
C247 C 0.66683 0.35343 0.20482 0.0
C248 C 0.70606 0.38378 0.20432 0.0
C249 C 0.71479 0.36992 0.18203 0.0
C250 C 0.69972 0.34763 0.17102 0.0
C251 C 0.67569 0.33928 0.18257 0.0
H252 H 0.70724 0.42231 0.82099 0.0
H253 H 0.69871 0.3556 0.87587 0.0
H254 H 0.76518 0.41266 0.88943 0.0
C255 C 0.71426 0.4114 0.83903 0.0
C256 C 0.73778 0.42049 0.85448 0.0
C257 C 0.7 0.38799 0.84679 0.0
C258 C 0.70942 0.37381 0.87001 0.0
C259 C 0.73284 0.3826 0.88542 0.0
C260 C 0.74695 0.40594 0.87763 0.0
H261 H 0.67784 0.74736 0.87925 0.0
H262 H 0.75151 0.70275 0.88132 0.0
H263 H 0.6878 0.68648 0.81924 0.0
C264 C 0.68989 0.73178 0.87116 0.0
C265 C 0.67977 0.7172 0.84807 0.0
C266 C 0.71579 0.7267 0.88345 0.0
C267 C 0.73141 0.70663 0.8723 0.0
C268 C 0.72132 0.69207 0.84908 0.0
C269 C 0.69553 0.69747 0.83723 0.0
H270 H 0.34067 0.67412 0.88943 0.0
H271 H 0.40453 0.68669 0.83625 0.0
H272 H 0.40464 0.73275 0.90992 0.0
C273 C 0.35921 0.68462 0.8847 0.0
C274 C 0.37107 0.70425 0.90261 0.0
C275 C 0.3717 0.67743 0.86139 0.0
C276 C 0.3952 0.69171 0.85466 0.0
C277 C 0.40686 0.71225 0.87175 0.0
C278 C 0.3952 0.71769 0.89618 0.0
H279 H 0.37842 0.42483 0.90889 0.0
H280 H 0.41797 0.34924 0.9189 0.0
H281 H 0.42993 0.39529 0.84881 0.0
C282 C 0.39254 0.41086 0.90164 0.0
C283 C 0.40609 0.41612 0.87758 0.0
C284 C 0.39662 0.3867 0.91658 0.0
C285 C 0.41377 0.3674 0.90722 0.0
C286 C 0.42676 0.37179 0.88372 0.0
C287 C 0.42148 0.3948 0.86821 0.0
Cu288 Cu 0.29791 0.29051 0.03835 0.0
N289 N 0.33051 0.30813 0.03199 0.0
N290 N 0.35716 0.33687 1.01046 0.0
C291 C 0.3352 0.32007 1.0083 0.0
C292 C 0.3669 0.33496 0.0366 0.0
C293 C 0.3508 0.31668 0.04964 0.0
O294 O 0.28537 0.27252 1.00457 0.0
C295 C 0.27244 0.33231 0.06915 0.0
O296 O 0.25232 0.34864 0.07144 0.0
H297 H 0.32185 0.3176 0.99011 0.0
H298 H 0.35277 0.31131 0.07085 0.0
N299 N 0.30028 0.26472 0.06568 0.0
N300 N 0.28561 0.23665 0.09697 0.0
C301 C 0.27917 0.2567 0.07953 0.0
C302 C 0.32084 0.24895 0.0744 0.0
C303 C 0.31177 0.23146 0.0938 0.0
C304 C 0.26266 0.25999 1.00091 0.0
O305 O 0.2463 0.25888 0.0206 0.0
H306 H 0.2592 0.26491 0.0764 0.0
H307 H 0.34079 0.24984 0.0669 0.0
O308 O 0.27216 0.3173 0.04811 0.0
H309 H 0.38403 0.34647 0.04578 0.0
H310 H 0.32337 0.21624 0.10479 0.0
Cu311 Cu 0.79914 0.29698 0.02263 0.0
N312 N 0.77237 0.29093 0.04707 0.0
N313 N 0.74509 0.29744 0.08036 0.0
C314 C 0.76649 0.30712 0.06761 0.0
C315 C 0.73692 0.27451 0.06727 0.0
C316 C 0.75377 0.27057 0.0467 0.0
O317 O 0.83099 0.31523 0.04029 0.0
C318 C 0.76643 0.31468 0.97675 0.0
O319 O 0.7545 0.29077 0.97821 0.0
H320 H 0.77712 0.32598 0.07264 0.0
H321 H 0.75219 0.25427 0.03213 0.0
N322 N 0.80897 0.2652 1.00564 0.0
N323 N 0.82491 0.23823 0.97466 0.0
C324 C 0.82045 0.26391 0.9818 0.0
C325 C 0.80621 0.23938 1.01383 0.0
C326 C 0.81604 0.22266 0.9947 0.0
C327 C 0.84576 0.31065 0.06193 0.0
O328 O 0.86613 0.3274 0.06856 0.0
H329 H 0.8255 0.28144 0.96992 0.0
H330 H 0.7979 0.23315 0.03251 0.0
O331 O 0.78557 0.32139 0.99417 0.0
H332 H 0.71988 0.26175 0.07212 0.0
H333 H 0.81671 0.20086 0.99543 0.0
Cu334 Cu 0.79885 0.78985 0.02419 0.0
N335 N 0.82931 0.79475 1.00466 0.0
N336 N 0.85657 0.81378 0.97602 0.0
C337 C 0.83256 0.81477 0.98677 0.0
C338 C 0.8693 0.79256 0.98759 0.0
C339 C 0.85231 0.78075 1.0054 0.0
O340 O 0.76877 0.78011 0.99726 0.0
C341 C 0.82021 0.82991 0.0609 0.0
O342 O 0.84182 0.82565 0.04792 0.0
H343 H 0.8179 0.83015 0.98206 0.0
H344 H 0.85659 0.76347 1.01819 0.0
N345 N 0.80118 0.759 0.04516 0.0
N346 N 0.78458 0.72964 0.07401 0.0
C347 C 0.78621 0.75563 0.06647 0.0
C348 C 0.80946 0.73424 0.039 0.0
C349 C 0.79926 0.71595 0.057 0.0
C350 C 0.76134 0.79212 0.97525 0.0
O351 O 0.76856 0.81753 0.97194 0.0
H352 H 0.77426 0.77139 0.07435 0.0
H353 H 0.81967 0.72941 0.02114 0.0
O354 O 0.79763 0.81886 0.05191 0.0
H355 H 0.88926 0.78614 0.98338 0.0
H356 H 0.80032 0.69419 0.05609 0.0
Cu357 Cu 0.29412 0.77854 0.05241 0.0
N358 N 0.26104 0.77551 0.06819 0.0
N359 N 0.22787 0.78276 0.09514 0.0
C360 C 0.25252 0.79091 0.08813 0.0
C361 C 0.22036 0.76156 0.07908 0.0
C362 C 0.24093 0.75714 0.06239 0.0
O363 O 0.32402 0.77735 0.08097 0.0
C364 C 0.27736 0.82715 0.02341 0.0
O365 O 0.26762 0.83498 0.046 0.0
H366 H 0.26396 0.80776 0.09736 0.0
H367 H 0.24136 0.74145 0.04728 0.0
N368 N 0.30023 0.74697 0.03383 0.0
N369 N 0.31986 0.72514 1.00137 0.0
C370 C 0.30342 0.74536 1.00709 0.0
C371 C 0.31421 0.72646 0.0452 0.0
C372 C 0.32648 0.7131 0.02531 0.0
C373 C 0.32764 0.78883 0.10402 0.0
O374 O 0.3138 0.81017 0.10922 0.0
H375 H 0.29664 0.76062 0.99266 0.0
H376 H 0.31803 0.72355 0.06679 0.0
O377 O 0.29194 0.80629 0.02373 0.0
H378 H 0.20159 0.74997 0.07972 0.0
H379 H 0.34094 0.69721 0.02845 0.0
Cu380 Cu 0.03328 0.26001 0.28182 0.0
N381 N 0.05223 0.23096 0.26766 0.0
N382 N 0.08611 0.20962 0.2494 0.0
C383 C 0.07924 0.22664 0.26914 0.0
C384 C 0.06273 0.20298 0.23522 0.0
C385 C 0.04222 0.21602 0.24626 0.0
O386 O 0.05942 0.29064 0.28863 0.0
C387 C 0.98323 0.24476 0.25567 0.0
O388 O 0.98853 0.22343 0.27069 0.0
H389 H 0.09379 0.2373 0.28288 0.0
H390 H 0.02186 0.2164 0.23715 0.0
N391 N 1.01752 0.25519 0.31488 0.0
N392 N 0.9859 0.2673 0.34224 0.0
C393 C 1.00438 0.27582 0.32526 0.0
C394 C 1.00781 0.23278 0.32665 0.0
C395 C 0.98812 0.24023 0.34345 0.0
C396 C 0.07584 0.28845 0.30974 0.0
O397 O 0.0742 0.26668 0.32476 0.0
H398 H 1.00574 0.29629 0.31769 0.0
H399 H 1.0123 0.21238 0.32106 0.0
O400 O 1.0007 0.26449 0.25645 0.0
H401 H 0.06089 0.19075 0.21703 0.0
H402 H 0.97489 0.22669 0.35388 0.0
Cu403 Cu 0.77144 0.04133 0.25717 0.0
N404 N 0.77225 0.06106 0.22485 0.0
N405 N 0.78695 0.09423 0.1984 0.0
C406 C 0.78562 0.08509 0.2239 0.0
C407 C 0.77374 0.07533 0.18246 0.0
C408 C 0.76471 0.05475 0.19889 0.0
O409 O 0.76933 0.06978 0.28416 0.0
C410 C 0.82075 1.01729 0.24307 0.0
O411 O 0.82858 0.04066 0.23337 0.0
H412 H 0.79535 0.09514 0.24157 0.0
H413 H 0.7545 0.03608 0.19231 0.0
N414 N 0.74207 1.01728 0.26088 0.0
N415 N 0.72052 0.98294 0.2804 0.0
C416 C 0.7444 0.99582 0.27764 0.0
C417 C 0.71564 1.01787 0.25244 0.0
C418 C 0.70223 0.99659 0.26452 0.0
C419 C 0.75604 0.06776 0.30516 0.0
O420 O 0.75049 0.04374 0.31487 0.0
H421 H 0.76315 0.99049 0.28871 0.0
H422 H 0.7066 0.03329 0.23951 0.0
O423 O 0.80117 1.01635 0.25834 0.0
H424 H 0.77166 0.07592 0.16055 0.0
H425 H 0.6807 0.99206 0.26258 0.0
Cu426 Cu 1.00903 0.75867 0.29677 0.0
N427 N 0.99185 0.79199 0.29641 0.0
N428 N 0.96361 0.82344 0.27998 0.0
C429 C 0.9732 0.79863 0.27649 0.0
C430 C 0.97664 0.83301 0.30299 0.0
C431 C 0.9941 0.81347 0.31317 0.0
O432 O 0.98083 0.73194 0.30348 0.0
C433 C 0.0433 0.77669 0.2613 0.0
O434 O 0.04621 0.79427 0.28118 0.0
H435 H 0.96684 0.78551 0.25962 0.0
H436 H 1.00746 0.81498 0.33136 0.0
N437 N 0.0382 0.75345 0.32248 0.0
N438 N 0.07675 0.735 0.3387 0.0
C439 C 0.05591 0.73364 0.31971 0.0
C440 C 0.04817 0.7678 0.34425 0.0
C441 C 0.07206 0.75638 0.35433 0.0
C442 C 0.9726 0.73314 0.32726 0.0
O443 O 0.98433 0.75046 0.34472 0.0
H444 H 0.05394 0.71888 0.30355 0.0
H445 H 0.03925 0.78566 0.35183 0.0
O446 O 0.02593 0.75732 0.26258 0.0
H447 H 0.97375 0.85266 0.31169 0.0
H448 H 0.08534 0.76364 0.37125 0.0
Cu449 Cu 0.27418 0.9991 0.26559 0.0
N450 N 0.29428 0.02097 0.29094 0.0
N451 N 0.31049 0.05553 0.31667 0.0
C452 C 0.288 0.04125 0.30742 0.0
C453 C 0.33136 0.04387 0.30587 0.0
C454 C 0.32131 0.02291 0.28991 0.0
O455 O 0.26656 0.02198 0.23453 0.0
C456 C 0.30032 0.95519 0.28245 0.0
O457 O 0.29032 0.96429 0.30441 0.0
H458 H 0.26756 0.04668 0.31097 0.0
H459 H 0.33263 1.01137 0.27638 0.0
N460 N 0.24158 0.9833 0.27503 0.0
N461 N 0.2087 0.95164 0.27113 0.0
C462 C 0.22967 0.96344 0.2596 0.0
C463 C 0.22747 0.98435 0.29723 0.0
C464 C 0.20692 0.96471 0.2948 0.0
C465 C 0.24986 0.04016 0.23921 0.0
O466 O 0.2384 0.03988 0.26228 0.0
H467 H 0.23716 0.95681 0.24078 0.0
H468 H 0.23254 0.99743 0.31443 0.0
O469 O 0.2965 0.96826 0.26037 0.0
H470 H 0.35218 0.05121 0.30803 0.0
H471 H 0.19272 0.95955 0.3097 0.0
Cu472 Cu 0.06918 0.80585 0.79065 0.0
N473 N 0.08368 0.77152 0.78594 0.0
N474 N 0.10642 0.74376 0.76043 0.0
C475 C 0.10556 0.76857 0.77166 0.0
C476 C 0.08466 0.73019 0.76901 0.0
C477 C 0.0711 0.74706 0.78516 0.0
O478 O 0.10019 0.83104 0.79834 0.0
C479 C 0.02239 0.7949 0.75801 0.0
O480 O 1.0215 0.776 0.77644 0.0
H481 H 0.1191 0.78525 0.76731 0.0
H482 H 0.05221 0.7422 0.79382 0.0
N483 N 0.04816 0.81105 0.81984 0.0
N484 N 1.01718 0.83479 0.8393 0.0
C485 C 0.03872 0.83578 0.82429 0.0
C486 C 0.03269 0.79378 0.83343 0.0
C487 C 1.01349 0.80848 0.8455 0.0
C488 C 0.11445 0.82531 0.82013 0.0
O489 O 0.10769 0.8038 0.8339 0.0
H490 H 0.04572 0.85383 0.81429 0.0
H491 H 0.03348 0.77202 0.83238 0.0
O492 O 0.04276 0.81155 0.75917 0.0
H493 H 0.07807 0.71001 0.76274 0.0
H494 H 0.99684 0.8003 0.8562 0.0
Cu495 Cu 0.29787 0.06308 0.78404 0.0
N496 N 0.32478 0.09009 0.77955 0.0
N497 N 0.3431 0.12874 0.76476 0.0
C498 C 0.32216 0.11074 0.76172 0.0
C499 C 0.35958 0.11921 0.78522 0.0
C500 C 0.34819 0.09544 0.79439 0.0
O501 O 0.26525 0.08366 0.78942 0.0
C502 C 0.32013 0.02778 0.74756 0.0
O503 O 0.34254 0.03826 0.75942 0.0
H504 H 0.30483 0.11297 0.74736 0.0
H505 H 0.35602 0.08356 0.81135 0.0
N506 N 0.30319 0.04137 0.81511 0.0
N507 N 0.29334 1.00741 0.84304 0.0
C508 C 0.2834 0.02577 0.82501 0.0
C509 C 0.32642 0.03256 0.82749 0.0
C510 C 0.32037 1.01162 0.84472 0.0
C511 C 0.26783 0.09901 0.8103 0.0
O512 O 0.29047 0.0987 0.8258 0.0
H513 H 0.26241 0.02623 0.81735 0.0
H514 H 0.34644 0.03903 0.82256 0.0
O515 O 0.29741 0.03683 0.75383 0.0
H516 H 0.37808 0.12917 0.79342 0.0
H517 H 0.33479 0.99919 0.85611 0.0
Cu518 Cu 0.03746 0.32806 0.80725 0.0
N519 N 1.0203 0.3618 0.8055 0.0
N520 N 0.98796 0.38566 0.78255 0.0
C521 C 0.9939 0.36293 0.79669 0.0
C522 C 1.01143 0.40009 0.78346 0.0
C523 C 0.03107 0.38564 0.79771 0.0
O524 O 1.00836 0.30083 0.80387 0.0
C525 C 0.08406 0.3442 0.78499 0.0
O526 O 0.08526 0.35861 0.80723 0.0
H527 H 0.98022 0.34571 0.79695 0.0
H528 H 0.05223 0.39127 0.79913 0.0
N529 N 0.05869 0.31715 0.83801 0.0
N530 N 0.09104 0.28995 0.85502 0.0
C531 C 0.06879 0.29215 0.83798 0.0
C532 C 0.07442 0.33105 0.85679 0.0
C533 C 0.09448 0.31423 0.86731 0.0
C534 C 0.99525 0.29848 0.82506 0.0
O535 O 1.00231 0.31384 0.84613 0.0
H536 H 0.062 0.27688 0.82324 0.0
H537 H 0.07336 0.35252 0.86033 0.0
O538 O 0.06352 0.32845 0.77954 0.0
H539 H 1.01476 0.41867 0.77251 0.0
H540 H 0.11149 0.32 0.88124 0.0
Cu541 Cu 0.8039 0.03556 0.76382 0.0
N542 N 0.83374 0.05545 0.75408 0.0
N543 N 0.85694 0.09379 0.76397 0.0
C544 C 0.84667 0.07068 0.77365 0.0
C545 C 0.85116 0.09284 0.73693 0.0
C546 C 0.83656 0.06913 0.73087 0.0
O547 O 0.7783 0.06495 0.76471 0.0
C548 C 0.81146 0.99483 0.80552 0.0
O549 O 0.78942 0.98273 0.79474 0.0
H550 H 0.84432 0.06728 0.79497 0.0
H551 H 0.82528 0.06451 0.71184 0.0
N552 N 0.79202 1.00901 0.73842 0.0
N553 N 0.7674 0.97456 0.71986 0.0
C554 C 0.76969 0.99309 0.73974 0.0
C555 C 0.8042 1.0002 0.71676 0.0
C556 C 0.78896 0.97882 0.70521 0.0
C557 C 0.75878 0.06761 0.74671 0.0
O558 O 0.74853 0.04616 0.73382 0.0
H559 H 0.75551 0.99475 0.75523 0.0
H560 H 0.82317 1.00825 0.71029 0.0
O561 O 0.81796 1.01843 0.79762 0.0
H562 H 0.85395 0.10958 0.72325 0.0
H563 H 0.79368 0.96687 0.68798 0.0
Cu564 Cu 0.28012 0.77865 0.51056 0.0
N565 N 0.30588 0.79284 0.53665 0.0
N566 N 0.32205 0.8202 0.57018 0.0
C567 C 0.30089 0.81398 0.55249 0.0
C568 C 0.34129 0.80249 0.5653 0.0
C569 C 0.33124 0.78556 0.54451 0.0
O570 O 0.24681 0.77553 0.52926 0.0
C571 C 0.30404 0.79855 0.46694 0.0
O572 O 0.32302 0.7839 0.47903 0.0
H573 H 0.28199 0.82448 0.55124 0.0
H574 H 0.34164 0.76911 0.5359 0.0
N575 N 0.28527 0.74389 0.49762 0.0
N576 N 0.27631 0.7096 0.46899 0.0
C577 C 0.26858 0.73378 0.4773 0.0
C578 C 0.30431 0.72523 0.50258 0.0
C579 C 0.29878 0.70388 0.48475 0.0
C580 C 0.24942 0.75871 0.54883 0.0
O581 O 0.27242 0.74636 0.55322 0.0
H582 H 0.25143 0.74441 0.46817 0.0
H583 H 0.3213 0.72725 0.51747 0.0
O584 O 0.28172 0.80094 0.47804 0.0
H585 H 0.361 0.80173 0.57618 0.0
H586 H 0.31065 0.68605 0.48293 0.0
Cu587 Cu 0.76842 0.79029 0.53823 0.0
N588 N 0.7784 0.75691 0.52539 0.0
N589 N 0.79793 0.7282 0.49856 0.0
C590 C 0.78238 0.75013 0.49969 0.0
C591 C 0.80322 0.72053 0.52451 0.0
C592 C 0.79099 0.73812 0.54096 0.0
O593 O 0.75767 0.81394 0.50719 0.0
C594 C 0.82315 0.79865 0.56169 0.0
O595 O 0.83104 0.79859 0.53695 0.0
H596 H 0.77596 0.76223 0.48236 0.0
H597 H 0.79337 0.73877 0.56284 0.0
N598 N 0.73817 0.78569 0.55836 0.0
N599 N 0.70963 0.79215 0.59042 0.0
C600 C 0.73312 0.8001 0.5804 0.0
C601 C 0.71714 0.768 0.55438 0.0
C602 C 0.69939 0.77199 0.5742 0.0
C603 C 0.77197 0.82352 0.48879 0.0
O604 O 0.79831 0.82081 0.4911 0.0
H605 H 0.74629 0.81622 0.58886 0.0
H606 H 0.71486 0.75335 0.53815 0.0
O607 O 0.79801 0.80051 0.56513 0.0
H608 H 0.81651 0.70445 0.53115 0.0
H609 H 0.68046 0.76113 0.57649 0.0
Cu610 Cu 0.78753 0.2777 0.53507 0.0
N611 N 0.78304 0.24399 0.51695 0.0
N612 N 0.75844 0.21937 0.48507 0.0
C613 C 0.77419 0.2418 0.49043 0.0
C614 C 0.7581 0.20646 0.50905 0.0
C615 C 0.7734 0.22133 0.52836 0.0
O616 O 0.78783 0.30504 0.50651 0.0
C617 C 0.76593 0.26236 0.58224 0.0
O618 O 0.79007 0.25204 0.58506 0.0
H619 H 0.77657 0.25779 0.4759 0.0
H620 H 0.77439 0.21728 0.54981 0.0
N621 N 0.81932 0.28667 0.55681 0.0
N622 N 0.84411 0.31177 0.5875 0.0
C623 C 0.82011 0.30843 0.57322 0.0
C624 C 0.84392 0.27578 0.5608 0.0
C625 C 0.85931 0.29131 0.57987 0.0
C626 C 0.80865 0.30255 0.49299 0.0
O627 O 0.82525 0.28293 0.49927 0.0
H628 H 0.8031 0.3214 0.575 0.0
H629 H 0.8501 0.25779 0.55085 0.0
O630 O 0.75944 0.27653 0.56116 0.0
H631 H 0.746 0.18852 0.51279 0.0
H632 H 0.87979 0.28763 0.58785 0.0
Cu633 Cu 0.28736 0.30167 0.5458 0.0
N634 N 0.26841 0.28816 0.57398 0.0
N635 N 0.24707 0.29321 0.61158 0.0
C636 C 0.26103 0.30547 0.59267 0.0
C637 C 0.24516 0.26688 0.60451 0.0
C638 C 0.25862 0.26375 0.58111 0.0
O639 O 0.31459 0.32647 0.56401 0.0
C640 C 0.26561 0.32369 0.49565 0.0
O641 O 0.29009 0.32014 0.48811 0.0
H642 H 0.26548 0.32697 0.59217 0.0
H643 H 0.26078 0.24524 0.57001 0.0
N644 N 0.30609 0.2774 0.52538 0.0
N645 N 0.31767 0.24766 0.49497 0.0
C646 C 0.29752 0.2564 0.5094 0.0
C647 C 0.33229 0.2818 0.52066 0.0
C648 C 0.33952 0.26339 0.50212 0.0
C649 C 0.32839 0.32813 0.58711 0.0
O650 O 0.34506 0.34907 0.59082 0.0
H651 H 0.27686 0.2487 0.50725 0.0
H652 H 0.34493 0.29817 0.52933 0.0
O653 O 0.26067 0.31885 0.52015 0.0
H654 H 0.23463 0.25128 0.61527 0.0
H655 H 0.35879 0.26262 0.49321 0.0
Cu656 Cu 0.80803 0.57356 0.76945 0.0
N657 N 0.83828 0.59614 0.76335 0.0
N658 N 0.86174 0.63109 0.74699 0.0
C659 C 0.83726 0.61862 0.7478 0.0
C660 C 0.87895 0.61591 0.76246 0.0
C661 C 0.86444 0.59434 0.77252 0.0
O662 O 0.77911 0.59788 0.77728 0.0
C663 C 0.8216 0.53161 0.7378 0.0
O664 O 0.84309 0.53476 0.75474 0.0
H665 H 0.8189 0.62571 0.73726 0.0
H666 H 0.87248 0.57846 0.78547 0.0
N667 N 0.81115 0.55043 0.7995 0.0
N668 N 0.79914 0.51519 0.82466 0.0
C669 C 0.79228 0.53095 0.80324 0.0
C670 C 0.83061 0.54704 0.81959 0.0
C671 C 0.82321 0.52517 0.8352 0.0
C672 C 0.78505 0.61303 0.79788 0.0
O673 O 0.8089 0.61114 0.81103 0.0
H674 H 0.77401 0.52805 0.79011 0.0
H675 H 0.84906 0.55914 0.82241 0.0
O676 O 0.80229 0.54811 0.73897 0.0
H677 H 0.90043 0.62014 0.76617 0.0
H678 H 0.83481 0.51684 0.85247 0.0
Cu679 Cu 0.31021 0.54173 0.76822 0.0
N680 N 0.3416 0.52143 0.77429 0.0
N681 N 0.37029 0.49566 0.79936 0.0
C682 C 0.34426 0.50234 0.79375 0.0
C683 C 0.38452 0.51078 0.78239 0.0
C684 C 0.36681 0.52634 0.76674 0.0
O685 O 0.27984 0.51565 0.76822 0.0
C686 C 0.33409 0.58607 0.79444 0.0
O687 O 0.35148 0.58111 0.77651 0.0
H688 H 0.32768 0.49501 0.80503 0.0
H689 H 0.37236 0.54151 0.75233 0.0
N690 N 0.30579 0.56078 0.73551 0.0
N691 N 0.2873 0.59332 0.70943 0.0
C692 C 0.28344 0.57507 0.7291 0.0
C693 C 0.32426 0.56994 0.71882 0.0
C694 C 0.31287 0.59009 0.70272 0.0
C695 C 0.28028 0.4975 0.74996 0.0
O696 O 0.29978 0.49851 0.73336 0.0
H697 H 0.26562 0.57402 0.7405 0.0
H698 H 0.34514 0.56415 0.71975 0.0
O699 O 0.31321 0.57043 0.79563 0.0
H700 H 0.40634 0.51127 0.78206 0.0
H701 H 0.32307 0.60259 0.68846 0.0
Cu702 Cu 0.29709 0.51865 0.26887 0.0
N703 N 0.29508 0.49734 0.29988 0.0
N704 N 0.2766 0.46599 0.32565 0.0
C705 C 0.27382 0.48037 0.30265 0.0
C706 C 0.30058 0.47404 0.33805 0.0
C707 C 0.31208 0.49348 0.32197 0.0
O708 O 0.30204 0.49168 0.2407 0.0
C709 C 0.26261 0.55341 0.29081 0.0
O710 O 0.28036 0.54895 0.3112 0.0
H711 H 0.25676 0.47828 0.28778 0.0
H712 H 0.33157 0.50357 0.32586 0.0
N713 N 0.32584 0.54401 0.26842 0.0
N714 N 0.34739 0.5806 0.25307 0.0
C715 C 0.33047 0.55943 0.2466 0.0
C716 C 0.3406 0.55574 0.28932 0.0
C717 C 0.35399 0.57827 0.27986 0.0
C718 C 0.32369 0.47831 0.2453 0.0
O719 O 0.34054 0.48529 0.26595 0.0
H720 H 0.31997 0.55642 0.22685 0.0
H721 H 0.34004 0.54966 0.31024 0.0
O722 O 0.26492 0.54121 0.2683 0.0
H723 H 0.3093 0.46605 0.35699 0.0
H724 H 0.36638 0.59272 0.29195 0.0
Cu725 Cu 0.79855 0.51612 0.27162 0.0
N726 N 0.8326 0.50077 0.27952 0.0
N727 N 0.85644 0.46963 0.30322 0.0
C728 C 0.83533 0.47424 0.2851 0.0
C729 C 0.86829 0.49403 0.30831 0.0
C730 C 0.85379 0.51305 0.29363 0.0
O731 O 0.77148 0.48708 0.26807 0.0
C732 C 0.80817 0.56394 0.29904 0.0
O733 O 0.82438 0.56697 0.27942 0.0
H734 H 0.82006 0.45903 0.27908 0.0
H735 H 0.85681 0.53452 0.29618 0.0
N736 N 0.79273 0.53544 0.23951 0.0
N737 N 0.76789 0.56419 0.21427 0.0
C738 C 0.76767 0.54388 0.23225 0.0
C739 C 0.80945 0.55014 0.22468 0.0
C740 C 0.79406 0.56805 0.20906 0.0
C741 C 0.77331 0.47243 0.24718 0.0
O742 O 0.79306 0.47738 0.23142 0.0
H743 H 0.74987 0.53701 0.24198 0.0
H744 H 0.8313 0.54974 0.227 0.0
O745 O 0.79356 0.54239 0.29999 0.0
H746 H 0.88467 0.49813 0.32356 0.0
H747 H 0.80161 0.58384 0.19626 0.0
Cu748 Cu 0.55765 0.3026 0.78754 0.0
N749 N 0.54389 0.30156 0.82133 0.0
N750 N 0.51472 0.31087 0.85161 0.0
C751 C 0.52423 0.3178 0.82786 0.0
C752 C 0.52916 0.28972 0.86094 0.0
C753 C 0.54742 0.28401 0.84205 0.0
O754 O 0.52642 0.30733 0.76154 0.0
C755 C 0.60696 0.32676 0.80458 0.0
O756 O 0.60866 0.30379 0.81778 0.0
H757 H 0.51636 0.33384 0.81498 0.0
H758 H 0.56153 0.26772 0.84297 0.0
N759 N 0.57278 0.26991 0.77971 0.0
N760 N 0.59961 0.2409 0.76159 0.0
C761 C 0.59273 0.26686 0.76315 0.0
C762 C 0.56664 0.24492 0.78862 0.0
C763 C 0.58339 0.22687 0.77749 0.0
C764 C 0.50686 0.29037 0.76391 0.0
O765 O 0.50928 0.27147 0.78245 0.0
H766 H 0.60224 0.28335 0.75269 0.0
H767 H 0.55116 0.24012 0.80226 0.0
O768 O 0.58597 0.33102 0.78878 0.0
H769 H 0.52619 0.27891 0.87955 0.0
H770 H 0.58389 0.20531 0.78095 0.0
Cu771 Cu 0.52019 0.79577 0.78661 0.0
N772 N 0.54085 0.76528 0.78331 0.0
N773 N 0.57642 0.73965 0.79362 0.0
C774 C 0.56602 0.76426 0.79531 0.0
C775 C 0.55718 0.7243 0.77984 0.0
C776 C 0.53503 0.74028 0.77351 0.0
O777 O 0.54858 0.824 0.79079 0.0
C778 C 0.50042 0.77194 0.83468 0.0
O779 O 0.5255 0.76542 0.84153 0.0
H780 H 0.57617 0.78099 0.80623 0.0
H781 H 0.51579 0.73387 0.76354 0.0
N782 N 0.49748 0.80354 0.756 0.0
N783 N 0.46518 0.82475 0.73116 0.0
C784 C 0.47783 0.82181 0.75593 0.0
C785 C 0.49695 0.79425 0.73042 0.0
C786 C 0.47699 0.80747 0.71494 0.0
C787 C 0.54948 0.84479 0.77565 0.0
O788 O 0.52687 0.85659 0.76769 0.0
H789 H 0.47328 0.83319 0.7736 0.0
H790 H 0.51048 0.77944 0.72343 0.0
O791 O 0.49558 0.78805 0.81493 0.0
H792 H 0.55872 0.70301 0.77552 0.0
H793 H 0.47177 0.80492 0.69347 0.0
Cu794 Cu 0.54647 0.76308 0.2763 0.0
N795 N 0.51705 0.78587 0.27508 0.0
N796 N 0.47905 0.80418 0.28696 0.0
C797 C 0.49833 0.78618 0.2934 0.0
C798 C 0.48622 0.81633 0.26407 0.0
C799 C 0.50977 0.80495 0.25676 0.0
O800 O 0.5378 0.73106 0.29741 0.0
C801 C 0.57929 0.78998 0.31822 0.0
O802 O 0.55913 0.78419 0.33321 0.0
H803 H 0.49898 0.77365 0.31126 0.0
H804 H 0.52065 0.81001 0.23921 0.0
N805 N 0.55532 0.75273 0.24176 0.0
N806 N 0.57719 0.73343 0.20925 0.0
C807 C 0.57774 0.73976 0.2358 0.0
C808 C 0.54034 0.75497 0.21809 0.0
C809 C 0.55371 0.74291 0.19803 0.0
C810 C 0.51638 0.71598 0.29657 0.0
O811 O 0.51539 0.69575 0.31367 0.0
H812 H 0.59378 0.73443 0.25071 0.0
H813 H 0.52061 0.76383 0.21576 0.0
O814 O 0.57788 0.78244 0.29358 0.0
H815 H 0.47482 0.8317 0.2531 0.0
H816 H 0.5466 0.74084 0.17692 0.0
Cu817 Cu 0.52007 0.27035 0.28326 0.0
N818 N 0.49991 0.27105 0.31359 0.0
N819 N 0.46775 0.25591 0.33953 0.0
C820 C 0.47635 0.25698 0.31441 0.0
C821 C 0.48654 0.26985 0.35536 0.0
C822 C 0.50655 0.27911 0.33925 0.0
O823 O 0.48997 0.27129 0.25429 0.0
C824 C 0.56811 0.2354 0.28482 0.0
O825 O 0.57554 0.24742 0.26289 0.0
H826 H 0.46654 0.24623 0.29721 0.0
H827 H 0.5253 0.28946 0.34604 0.0
N828 N 0.54185 0.30163 0.2798 0.0
N829 N 0.57409 0.32856 0.2642 0.0
C830 C 0.56011 0.30504 0.26114 0.0
C831 C 0.54399 0.32433 0.29488 0.0
C832 C 0.56394 0.34108 0.28523 0.0
C833 C 0.4892 0.28684 0.23356 0.0
O834 O 0.51204 0.29504 0.22406 0.0
H835 H 0.56316 0.29069 0.24536 0.0
H836 H 0.5323 0.3282 0.31198 0.0
O837 O 0.54458 0.23964 0.29283 0.0
H838 H 0.48647 0.27194 0.37711 0.0
H839 H 0.57114 0.36036 0.29356 0.0
C840 C 0.25352 0.21819 0.16147 0.0
C841 C 0.23265 0.19992 0.1513 0.0
C842 C 0.2461 0.20695 0.10497 0.0
C843 C 0.26789 0.22397 0.11535 0.0
N844 N 0.29337 0.24561 0.15272 0.0
N845 N 0.20833 0.17664 0.11409 0.0
C846 C 0.27179 0.22961 0.14343 0.0
C847 C 0.22856 0.19445 0.12314 0.0
N848 N 0.25562 0.22469 0.18841 0.0
N849 N 0.24263 0.2026 0.07767 0.0
H850 H 0.19446 0.16825 0.1268 0.0
H851 H 0.20529 0.16965 0.0943 0.0
H852 H 0.25645 0.20973 0.06429 0.0
H853 H 0.22605 0.19245 0.06796 0.0
H854 H 0.26866 0.23959 0.19703 0.0
H855 H 0.24303 0.21618 0.20228 0.0
H856 H 0.29958 0.24836 0.17307 0.0
H857 H 0.30592 0.25574 0.13985 0.0
C858 C 0.85599 0.24283 0.09588 0.0
C859 C 0.84645 0.24824 0.12162 0.0
C860 C 0.83091 0.29252 0.10582 0.0
C861 C 0.84103 0.28749 0.08023 0.0
N862 N 0.86019 0.25725 0.04933 0.0
N863 N 0.82 0.27496 0.14974 0.0
C864 C 0.85224 0.26221 0.07467 0.0
C865 C 0.83214 0.27202 0.12603 0.0
N866 N 0.86998 0.21982 0.09231 0.0
N867 N 0.82151 0.3175 0.11123 0.0
H868 H 0.82058 0.2602 0.16481 0.0
H869 H 0.80766 0.29089 0.15379 0.0
H870 H 0.81987 0.3328 0.09676 0.0
H871 H 0.81658 0.32371 0.13027 0.0
H872 H 0.8801 0.21566 0.0752 0.0
H873 H 0.87246 0.20497 0.10717 0.0
H874 H 0.86637 0.23858 0.04292 0.0
H875 H 0.85896 0.27156 0.03386 0.0
C876 C 0.85961 0.84531 0.12663 0.0
C877 C 0.84797 0.86898 0.13641 0.0
C878 C 0.81636 0.86768 0.09501 0.0
C879 C 0.82498 0.8415 0.08886 0.0
N880 N 0.85161 0.80322 0.10282 0.0
N881 N 0.82965 0.90992 0.11697 0.0
C882 C 0.8453 0.82958 0.10621 0.0
C883 C 0.82973 0.8824 0.11736 0.0
N884 N 0.88644 0.84079 0.1324 0.0
N885 N 0.79589 0.87879 0.07919 0.0
H886 H 0.84465 0.92143 0.12785 0.0
H887 H 0.81838 0.92107 0.10255 0.0
H888 H 0.78634 0.86873 0.06247 0.0
H889 H 0.7869 0.89672 0.08415 0.0
H890 H 0.89634 0.82497 0.12382 0.0
H891 H 0.89938 0.85527 0.14216 0.0
H892 H 0.86532 0.7934 0.11623 0.0
H893 H 0.84114 0.79073 0.08843 0.0
C894 C 0.17966 0.82433 0.13188 0.0
C895 C 0.18519 0.81496 0.15879 0.0
C896 C 0.21804 0.7834 0.14319 0.0
C897 C 0.21338 0.7936 0.1166 0.0
N898 N 0.19282 0.82541 0.08549 0.0
N899 N 0.21183 0.78839 0.1911 0.0
C900 C 0.19503 0.81459 0.11092 0.0
C901 C 0.20506 0.79528 0.16476 0.0
N902 N 0.15924 0.84198 0.12635 0.0
N903 N 0.23448 0.76188 0.1475 0.0
H904 H 0.20239 0.79634 0.20736 0.0
H905 H 0.22798 0.77627 0.19716 0.0
H906 H 0.24461 0.75324 0.13207 0.0
H907 H 0.23684 0.75149 0.16576 0.0
H908 H 0.15223 0.84752 0.10686 0.0
H909 H 0.14809 0.85005 0.14133 0.0
H910 H 0.18193 0.84256 0.08031 0.0
H911 H 0.20342 0.81805 0.06974 0.0
C912 C 0.2758 0.85477 0.95048 0.0
C913 C 0.24877 0.8638 0.94661 0.0
C914 C 0.23984 0.8453 0.9913 0.0
C915 C 0.26778 0.83987 0.99687 0.0
N916 N 0.31328 0.84418 0.98269 0.0
N917 N 0.20701 0.87302 0.96662 0.0
C918 C 0.28605 0.8459 0.97668 0.0
C919 C 0.23138 0.86067 0.96801 0.0
N920 N 0.29146 0.85367 0.92895 0.0
N921 N 0.22093 0.83438 1.00718 0.0
H922 H 0.20033 0.88518 0.95041 0.0
H923 H 0.1948 0.87349 0.98288 0.0
H924 H 0.22565 0.82101 0.02298 0.0
H925 H 0.20019 0.83582 1.00245 0.0
H926 H 0.31029 0.84473 0.92999 0.0
H927 H 0.2845 0.85918 0.90938 0.0
H928 H 0.32758 0.85083 0.9696 0.0
H929 H 0.32167 0.83874 1.00178 0.0
C930 C 0.23384 0.20703 0.95021 0.0
C931 C 0.23429 0.22154 0.92552 0.0
C932 C 0.25422 0.26117 0.94996 0.0
C933 C 0.25468 0.24637 0.97461 0.0
N934 N 0.25181 0.20315 0.99687 0.0
N935 N 0.25099 0.25961 0.90085 0.0
C936 C 0.24657 0.21863 0.97433 0.0
C937 C 0.2466 0.24769 0.92511 0.0
N938 N 0.22024 0.1827 0.95092 0.0
N939 N 0.25934 0.28843 0.95034 0.0
H940 H 0.24569 0.25014 0.88232 0.0
H941 H 0.2622 0.27753 0.89913 0.0
H942 H 0.26415 0.29938 0.96807 0.0
H943 H 0.25638 0.30067 0.93331 0.0
H944 H 0.21644 0.17276 0.96885 0.0
H945 H 0.21105 0.1733 0.93366 0.0
H946 H 0.2487 0.18228 0.99712 0.0
H947 H 0.26195 0.21073 1.01457 0.0
C948 C 0.8748 0.21098 0.92816 0.0
C949 C 0.86046 0.2145 0.90253 0.0
C950 C 0.82118 0.22984 0.92529 0.0
C951 C 0.83664 0.22933 0.95046 0.0
N952 N 0.87893 0.22248 0.97599 0.0
N953 N 0.82112 0.2305 0.8763 0.0
C954 C 0.86366 0.22059 0.95194 0.0
C955 C 0.83384 0.22467 0.90097 0.0
N956 N 0.89879 0.1979 0.92977 0.0
N957 N 0.79417 0.23465 0.92484 0.0
H958 H 0.82966 0.227 0.85805 0.0
H959 H 0.80301 0.24071 0.87397 0.0
H960 H 0.7845 0.23827 0.94245 0.0
H961 H 0.78103 0.2328 0.90752 0.0
H962 H 0.90897 0.19238 0.94799 0.0
H963 H 0.90738 0.1904 0.91279 0.0
H964 H 0.89963 0.21918 0.97801 0.0
H965 H 0.87122 0.22948 0.99363 0.0
C966 C 0.8856 0.87558 0.94358 0.0
C967 C 0.88026 0.86874 0.91585 0.0
C968 C 0.8618 0.82447 0.92822 0.0
C969 C 0.86591 0.8318 0.95582 0.0
N970 N 0.87884 0.86441 0.99046 0.0
N971 N 0.86012 0.83881 0.88125 0.0
C972 C 0.87696 0.85746 0.96369 0.0
C973 C 0.8674 0.84375 0.908 0.0
N974 N 0.89966 0.89897 0.95056 0.0
N975 N 0.85294 0.79883 0.92154 0.0
H976 H 0.86408 0.85249 0.86591 0.0
H977 H 0.84838 0.82216 0.87431 0.0
H978 H 0.84797 0.78459 0.93602 0.0
H979 H 0.85208 0.79105 0.90198 0.0
H980 H 0.90682 0.90383 0.97028 0.0
H981 H 0.90547 0.91311 0.93632 0.0
H982 H 0.88393 0.88376 0.99759 0.0
H983 H 0.87391 0.85091 1.00564 0.0
C984 C 0.13731 0.16702 0.21956 0.0
C985 C 0.15962 0.18536 0.21722 0.0
C986 C 0.13292 0.22091 0.23607 0.0
C987 C 0.11244 0.2016 0.2418 0.0
N988 N 0.09959 0.15467 0.24572 0.0
N989 N 0.18072 0.22825 0.23116 0.0
C990 C 0.11625 0.17409 0.23587 0.0
C991 C 0.15814 0.21187 0.22796 0.0
N992 N 0.13508 0.14369 0.20484 0.0
N993 N 0.12785 0.2478 0.2363 0.0
H994 H 0.19986 0.22185 0.22708 0.0
H995 H 0.18078 0.24695 0.2408 0.0
H996 H 0.10883 0.25509 0.23936 0.0
H997 H 0.14157 0.26245 0.2301 0.0
H998 H 0.11805 0.13085 0.20449 0.0
H999 H 0.14846 0.13899 0.19039 0.0
H1000 H 0.10277 0.13409 0.24355 0.0
H1001 H 0.08461 0.15927 0.2586 0.0
C1002 C 0.8075 0.16767 0.19111 0.0
C1003 C 0.83232 0.16551 0.17868 0.0
C1004 C 0.82726 0.11595 0.17965 0.0
C1005 C 0.80167 0.11821 0.19036 0.0
N1006 N 0.76547 0.14563 0.20279 0.0
N1007 N 0.86385 0.13793 0.15717 0.0
C1008 C 0.79125 0.14397 0.19507 0.0
C1009 C 0.84164 0.1397 0.17181 0.0
N1010 N 0.79993 0.19228 0.19996 0.0
N1011 N 0.83828 0.0911 0.17806 0.0
H1012 H 0.87497 0.15483 0.15127 0.0
H1013 H 0.87004 0.11995 0.14905 0.0
H1014 H 0.82822 0.07344 0.18364 0.0
H1015 H 0.85807 0.08813 0.17325 0.0
H1016 H 0.78359 0.19491 0.21164 0.0
H1017 H 0.81124 0.21004 0.19738 0.0
H1018 H 0.75539 0.16369 0.20409 0.0
H1019 H 0.7533 0.12853 0.2058 0.0
C1020 C 0.89612 0.84441 0.24752 0.0
C1021 C 0.90462 0.86119 0.22626 0.0
C1022 C 0.95221 0.85232 0.24027 0.0
C1023 C 0.94373 0.8368 0.26229 0.0
N1024 N 0.90864 0.81944 0.28879 0.0
N1025 N 0.94039 0.88315 0.20328 0.0
C1026 C 0.91591 0.83321 0.26641 0.0
C1027 C 0.93262 0.86563 0.22282 0.0
N1028 N 0.86912 0.83891 0.24928 0.0
N1029 N 0.97911 0.85382 0.23594 0.0
H1030 H 0.92664 0.8925 0.18957 0.0
H1031 H 0.96029 0.88962 0.20137 0.0
H1032 H 0.99383 0.84516 0.24912 0.0
H1033 H 0.98683 0.8623 0.21879 0.0
H1034 H 0.86141 0.82501 0.26267 0.0
H1035 H 0.85418 0.84715 0.23607 0.0
H1036 H 0.88898 0.81783 0.29473 0.0
H1037 H 0.92284 0.81076 0.30255 0.0
C1038 C 0.19394 0.87857 0.25427 0.0
C1039 C 0.1729 0.88104 0.23338 0.0
C1040 C 0.17323 0.93017 0.24026 0.0
C1041 C 0.19422 0.92769 0.26099 0.0
N1042 N 0.22235 0.90019 0.29063 0.0
N1043 N 0.13961 0.9081 0.20891 0.0
C1044 C 0.20376 0.90198 0.26897 0.0
C1045 C 0.16155 0.90656 0.22721 0.0
N1046 N 0.20503 0.85392 0.2594 0.0
N1047 N 0.16529 0.9554 0.23251 0.0
H1048 H 0.13118 0.89138 0.19829 0.0
H1049 H 0.12867 0.92552 0.2053 0.0
H1050 H 0.17285 0.97281 0.24258 0.0
H1051 H 0.15227 0.95932 0.21561 0.0
H1052 H 0.22233 0.85098 0.27212 0.0
H1053 H 0.19757 0.8362 0.24987 0.0
H1054 H 0.22867 0.88211 0.29936 0.0
H1055 H 0.23055 0.91714 0.30102 0.0
C1056 C 0.1861 0.85142 0.83937 0.0
C1057 C 0.18228 0.86583 0.86357 0.0
C1058 C 0.13311 0.8574 0.85652 0.0
C1059 C 0.13688 0.84323 0.83219 0.0
N1060 N 0.16594 0.83093 0.79771 0.0
N1061 N 0.15211 0.88716 0.89242 0.0
C1062 C 0.1631 0.84172 0.82269 0.0
C1063 C 0.15573 0.8702 0.87131 0.0
N1064 N 0.21178 0.84607 0.83294 0.0
N1065 N 0.10784 0.85804 0.86584 0.0
H1066 H 0.16815 0.89654 0.90394 0.0
H1067 H 0.13328 0.89361 0.89736 0.0
H1068 H 0.09058 0.85065 0.85466 0.0
H1069 H 0.10404 0.86478 0.88506 0.0
H1070 H 0.21616 0.83335 0.81725 0.0
H1071 H 0.229 0.85287 0.84459 0.0
H1072 H 0.18404 0.83132 0.7883 0.0
H1073 H 0.1495 0.82357 0.78528 0.0
C1074 C 0.21705 0.13213 0.85278 0.0
C1075 C 0.22053 0.1594 0.84456 0.0
C1076 C 0.24655 0.14433 0.80706 0.0
C1077 C 0.2466 0.11781 0.81786 0.0
N1078 N 0.23201 0.08586 0.85072 0.0
N1079 N 0.23906 0.19199 0.81432 0.0
C1080 C 0.23152 0.11148 0.84044 0.0
C1081 C 0.23506 0.16561 0.82151 0.0
N1082 N 0.19976 0.12605 0.87232 0.0
N1083 N 0.25777 0.14911 0.78305 0.0
H1084 H 0.23057 0.20799 0.82407 0.0
H1085 H 0.25203 0.19827 0.79981 0.0
H1086 H 0.26629 0.13385 0.77225 0.0
H1087 H 0.25663 0.16738 0.7727 0.0
H1088 H 0.19427 0.10644 0.87764 0.0
H1089 H 0.18912 0.14075 0.88184 0.0
H1090 H 0.22443 0.08042 0.86906 0.0
H1091 H 0.2411 0.07006 0.84119 0.0
C1092 C 0.95704 0.23302 0.83807 0.0
C1093 C 0.93022 0.24222 0.83885 0.0
C1094 C 0.94592 0.28833 0.82998 0.0
C1095 C 0.97235 0.27886 0.82686 0.0
N1096 N 1.00206 0.24138 0.8234 0.0
N1097 N 0.89804 0.27709 0.82864 0.0
C1098 C 0.97751 0.25088 0.82917 0.0
C1099 C 0.92431 0.26942 0.83265 0.0
N1100 N 0.96331 0.20777 0.84731 0.0
N1101 N 0.94143 0.31536 0.83137 0.0
H1102 H 0.8816 0.26369 0.83 0.0
H1103 H 0.8926 0.29605 0.82128 0.0
H1104 H 0.95652 0.33012 0.82981 0.0
H1105 H 0.92319 0.3231 0.83663 0.0
H1106 H 0.98303 0.20099 0.84996 0.0
H1107 H 0.94911 0.19438 0.85483 0.0
H1108 H 1.00594 0.22089 0.82198 0.0
H1109 H 1.01792 0.25387 0.81778 0.0
C1110 C 0.86277 0.96727 0.85982 0.0
C1111 C 0.86919 0.94265 0.84734 0.0
C1112 C 0.84213 0.95553 0.80624 0.0
C1113 C 0.83252 0.9781 0.8199 0.0
N1114 N 0.83222 1.00486 0.8604 0.0
N1115 N 0.85997 0.91078 0.81075 0.0
C1116 C 0.84257 0.98396 0.84689 0.0
C1117 C 0.85753 0.93608 0.82109 0.0
N1118 N 0.87631 0.97485 0.88374 0.0
N1119 N 0.83752 0.95318 0.77879 0.0
H1120 H 0.87002 0.89544 0.82143 0.0
H1121 H 0.84952 0.9042 0.79284 0.0
H1122 H 0.82762 0.9678 0.76691 0.0
H1123 H 0.84624 0.93841 0.76754 0.0
H1124 H 0.8745 0.99368 0.89264 0.0
H1125 H 0.8911 0.96305 0.89364 0.0
H1126 H 0.83654 1.00849 0.88099 0.0
H1127 H 0.81774 1.01757 0.85135 0.0
C1128 C 0.25461 0.11152 0.21567 0.0
C1129 C 0.22799 0.11461 0.2036 0.0
C1130 C 0.21851 0.06616 0.20822 0.0
C1131 C 0.24479 0.06324 0.2209 0.0
N1132 N 0.29038 0.08073 0.22934 0.0
N1133 N 0.18812 0.09408 0.18049 0.0
C1134 C 0.26378 0.08514 0.2219 0.0
C1135 C 0.211 0.09162 0.19735 0.0
N1136 N 0.27049 0.13378 0.22265 0.0
N1137 N 0.20051 0.04473 0.20734 0.0
H1138 H 0.18267 0.11233 0.17137 0.0
H1139 H 0.17608 0.07768 0.17337 0.0
H1140 H 0.20603 0.0254 0.21364 0.0
H1141 H 0.18002 0.04637 0.2015 0.0
H1142 H 0.28923 0.13291 0.2335 0.0
H1143 H 0.26417 0.15349 0.21937 0.0
H1144 H 0.30568 0.09541 0.22818 0.0
H1145 H 0.29753 0.06166 0.23445 0.0
C1146 C 0.26725 0.93607 0.85132 0.0
C1147 C 0.25517 0.93768 0.87639 0.0
C1148 C 0.26935 0.98566 0.87991 0.0
C1149 C 0.27904 0.98441 0.85377 0.0
N1150 N 0.28116 0.96028 0.81201 0.0
N1151 N 0.24079 0.96522 0.91258 0.0
C1152 C 0.27617 0.96012 0.83871 0.0
C1153 C 0.2552 0.96283 0.89025 0.0
N1154 N 0.27109 0.91146 0.83998 0.0
N1155 N 0.27388 1.0087 0.89481 0.0
H1156 H 0.22984 0.94914 0.92044 0.0
H1157 H 0.23785 0.98357 0.92199 0.0
H1158 H 0.28327 0.02589 0.88715 0.0
H1159 H 0.26992 1.01018 0.91511 0.0
H1160 H 0.28214 0.90899 0.82309 0.0
H1161 H 0.2657 0.89327 0.84903 0.0
H1162 H 0.27719 0.94375 0.79921 0.0
H1163 H 0.28629 0.97795 0.80201 0.0
C1164 C 0.13188 0.23101 0.88151 0.0
C1165 C 0.15244 0.23095 0.86294 0.0
C1166 C 0.12743 0.26435 0.83518 0.0
C1167 C 0.10994 0.26813 0.85629 0.0
N1168 N 0.09506 0.25507 0.89954 0.0
N1169 N 0.1715 0.25043 0.82358 0.0
C1170 C 0.112 0.25131 0.87943 0.0
C1171 C 0.15053 0.24814 0.83995 0.0
N1172 N 0.13126 0.21135 0.90087 0.0
N1173 N 0.12195 0.2759 0.81042 0.0
H1174 H 0.189 0.23929 0.82638 0.0
H1175 H 0.17255 0.26514 0.80859 0.0
H1176 H 0.1053 0.2878 0.80583 0.0
H1177 H 0.13253 0.27154 0.79361 0.0
H1178 H 0.11562 0.20883 0.91365 0.0
H1179 H 0.14522 0.19593 0.90244 0.0
H1180 H 0.0973 0.24566 0.91835 0.0
H1181 H 0.07943 0.2688 0.89776 0.0
C1182 C 0.89235 0.13895 0.81674 0.0
C1183 C 0.87327 0.15967 0.81838 0.0
C1184 C 0.84296 0.13655 0.78402 0.0
C1185 C 0.86316 0.11734 0.78052 0.0
N1186 N 0.90795 0.10153 0.79085 0.0
N1187 N 0.8324 0.18075 0.80055 0.0
C1188 C 0.88817 0.11901 0.79612 0.0
C1189 C 0.8491 0.15921 0.80116 0.0
N1190 N 0.91397 0.13788 0.83548 0.0
N1191 N 0.81751 0.13246 0.77199 0.0
H1192 H 0.83604 0.19762 0.81299 0.0
H1193 H 0.81612 0.18287 0.78624 0.0
H1194 H 0.81206 0.11599 0.75954 0.0
H1195 H 0.80118 0.14411 0.77625 0.0
H1196 H 0.92726 0.12196 0.83695 0.0
H1197 H 0.9173 0.15184 0.8512 0.0
H1198 H 0.92767 0.10306 0.79961 0.0
H1199 H 0.90509 0.08668 0.77591 0.0
C1200 C 0.95531 0.87598 0.82929 0.0
C1201 C 0.95377 0.88672 0.85571 0.0
C1202 C 0.99755 0.86706 0.86983 0.0
C1203 C 0.9987 0.85615 0.84362 0.0
N1204 N 0.98447 0.86003 0.79612 0.0
N1205 N 0.97718 0.89951 0.89832 0.0
C1206 C 0.97957 0.86393 0.82255 0.0
C1207 C 0.9763 0.88466 0.87504 0.0
N1208 N 0.93315 0.87522 0.81119 0.0
N1209 N 1.0165 0.86003 0.8898 0.0
H1210 H 0.96207 0.91294 0.90223 0.0
H1211 H 0.99389 0.90046 0.91234 0.0
H1212 H 0.03294 0.84825 0.88596 0.0
H1213 H 1.01525 0.86482 0.91013 0.0
H1214 H 0.93253 0.8646 0.79299 0.0
H1215 H 0.91462 0.88302 0.81523 0.0
H1216 H 0.97216 0.86758 0.78004 0.0
H1217 H 1.00222 0.85187 0.79023 0.0
C1218 C 0.83688 0.94251 0.23797 0.0
C1219 C 0.84593 0.94076 0.21145 0.0
C1220 C 0.83547 0.98845 0.20449 0.0
C1221 C 0.83081 0.99133 0.23243 0.0
N1222 N 0.83352 0.97114 0.27701 0.0
N1223 N 0.86051 0.96478 0.17231 0.0
C1224 C 0.8334 0.96835 0.24957 0.0
C1225 C 0.84728 0.96454 0.19555 0.0
N1226 N 0.83071 0.91958 0.25184 0.0
N1227 N 0.82697 1.0074 0.18591 0.0
H1228 H 0.87069 0.94819 0.16566 0.0
H1229 H 0.86391 0.98243 0.16141 0.0
H1230 H 0.81537 0.02372 0.19053 0.0
H1231 H 0.82819 1.00477 0.16515 0.0
H1232 H 0.82175 0.91991 0.27023 0.0
H1233 H 0.8317 0.90031 0.24357 0.0
H1234 H 0.8376 0.95525 0.29039 0.0
H1235 H 0.83277 0.98985 0.2865 0.0
C1236 C 0.10999 0.77927 0.23232 0.0
C1237 C 0.10714 0.80316 0.21657 0.0
C1238 C 0.05837 0.80237 0.22183 0.0
C1239 C 0.06165 0.77981 0.23923 0.0
N1240 N 0.08759 0.74178 0.25423 0.0
N1241 N 0.07833 0.83325 0.19021 0.0
C1242 C 0.08653 0.76645 0.24195 0.0
C1243 C 0.08111 0.81326 0.20919 0.0
N1244 N 0.1352 0.76979 0.23931 0.0
N1245 N 0.03367 0.814 0.2186 0.0
H1246 H 0.09473 0.8416 0.18073 0.0
H1247 H 0.05976 0.84015 0.18229 0.0
H1248 H 1.01652 0.80525 0.22647 0.0
H1249 H 0.03026 0.83237 0.20891 0.0
H1250 H 0.13893 0.75415 0.253 0.0
H1251 H 0.15281 0.77857 0.23251 0.0
H1252 H 0.10461 0.72987 0.25551 0.0
H1253 H 0.07032 0.7321 0.2608 0.0
C1254 C 0.9088 0.23506 0.22976 0.0
C1255 C 0.91121 0.23043 0.20184 0.0
C1256 C 0.95978 0.243 0.20834 0.0
C1257 C 0.95804 0.24351 0.23692 0.0
N1258 N 0.93075 0.23363 0.27472 0.0
N1259 N 0.94026 0.22565 0.16522 0.0
C1260 C 0.93252 0.23776 0.2476 0.0
C1261 C 0.93702 0.23349 0.19122 0.0
N1262 N 0.88381 0.23757 0.23931 0.0
N1263 N 0.98331 0.25074 0.19745 0.0
H1264 H 0.92448 0.2176 0.15237 0.0
H1265 H 0.95905 0.22456 0.15723 0.0
H1266 H 1.00089 0.25644 0.20904 0.0
H1267 H 0.98476 0.25358 0.17675 0.0
H1268 H 0.88106 0.2437 0.25902 0.0
H1269 H 0.86593 0.23643 0.22681 0.0
H1270 H 0.91315 0.22639 0.28285 0.0
H1271 H 0.94719 0.23512 0.28899 0.0
C1272 C 0.22192 0.75598 0.61637 0.0
C1273 C 0.20874 0.7301 0.6152 0.0
C1274 C 0.21421 0.7278 0.56637 0.0
C1275 C 0.22829 0.75309 0.56792 0.0
N1276 N 0.23809 0.7948 0.59151 0.0
N1277 N 0.18623 0.69456 0.5884 0.0
C1278 C 0.2293 0.76847 0.59198 0.0
C1279 C 0.20271 0.71714 0.58984 0.0
N1280 N 0.22927 0.76769 0.64087 0.0
N1281 N 0.21313 0.71347 0.54275 0.0
H1282 H 0.17767 0.68641 0.60535 0.0
H1283 H 0.17926 0.68527 0.57029 0.0
H1284 H 0.22025 0.72154 0.52503 0.0
H1285 H 0.20615 0.69351 0.54091 0.0
H1286 H 0.24151 0.78506 0.64316 0.0
H1287 H 0.22499 0.75888 0.65923 0.0
H1288 H 0.23742 0.80794 0.60783 0.0
H1289 H 0.24347 0.80411 0.57371 0.0
C1290 C 0.87724 0.76299 0.60776 0.0
C1291 C 0.87354 0.77514 0.63304 0.0
C1292 C 0.84181 0.80669 0.61013 0.0
C1293 C 0.84245 0.79198 0.58552 0.0
N1294 N 0.85824 0.75262 0.56267 0.0
N1295 N 0.8504 0.80703 0.65909 0.0
C1296 C 0.8597 0.76936 0.58468 0.0
C1297 C 0.85535 0.79666 0.63443 0.0
N1298 N 0.89783 0.74546 0.60568 0.0
N1299 N 0.82905 0.83079 0.61009 0.0
H1300 H 0.8603 0.80057 0.67718 0.0
H1301 H 0.8351 0.82054 0.66181 0.0
H1302 H 0.81982 0.83922 0.59256 0.0
H1303 H 0.83 0.84372 0.62671 0.0
H1304 H 0.90359 0.73839 0.58722 0.0
H1305 H 0.91087 0.73999 0.62217 0.0
H1306 H 0.86766 0.73408 0.56263 0.0
H1307 H 0.84577 0.75559 0.54522 0.0
C1308 C 0.86807 0.37754 0.62128 0.0
C1309 C 0.85857 0.37366 0.64744 0.0
C1310 C 0.84284 0.32754 0.63468 0.0
C1311 C 0.85069 0.33203 0.60811 0.0
N1312 N 0.86895 0.3612 0.57499 0.0
N1313 N 0.83401 0.34644 0.67829 0.0
C1314 C 0.86284 0.35706 0.60113 0.0
C1315 C 0.84514 0.34901 0.65392 0.0
N1316 N 0.8827 0.40048 0.61603 0.0
N1317 N 0.83383 0.30235 0.64159 0.0
H1318 H 0.83546 0.36162 0.69294 0.0
H1319 H 0.82159 0.3302 0.68329 0.0
H1320 H 0.83158 0.28648 0.6277 0.0
H1321 H 0.83049 0.29656 0.6613 0.0
H1322 H 0.89263 0.40355 0.59844 0.0
H1323 H 0.88614 0.41613 0.63004 0.0
H1324 H 0.87514 0.37976 0.56738 0.0
H1325 H 0.8666 0.34595 0.56046 0.0
C1326 C 0.23865 0.32265 0.68045 0.0
C1327 C 0.22032 0.34341 0.67295 0.0
C1328 C 0.21505 0.32591 0.62658 0.0
C1329 C 0.23547 0.30712 0.63326 0.0
N1330 N 0.26769 0.28756 0.66558 0.0
N1331 N 0.19264 0.36659 0.63872 0.0
C1332 C 0.2474 0.3053 0.66005 0.0
C1333 C 0.20888 0.34549 0.64595 0.0
N1334 N 0.24741 0.31949 0.70708 0.0
N1335 N 0.20125 0.32441 0.6017 0.0
H1336 H 0.18747 0.38119 0.65245 0.0
H1337 H 0.18587 0.37086 0.61882 0.0
H1338 H 0.20518 0.30978 0.58747 0.0
H1339 H 0.18443 0.33581 0.59605 0.0
H1340 H 0.25874 0.30336 0.71448 0.0
H1341 H 0.24208 0.33241 0.72231 0.0
H1342 H 0.27863 0.28606 0.68422 0.0
H1343 H 0.2745 0.27486 0.65092 0.0
C1344 C 0.22363 0.3169 0.42891 0.0
C1345 C 0.21101 0.34227 0.4268 0.0
C1346 C 0.23088 0.35437 0.47246 0.0
C1347 C 0.2434 0.32899 0.47438 0.0
N1348 N 0.2437 0.28307 0.45877 0.0
N1349 N 0.19692 0.38219 0.44896 0.0
C1350 C 0.23719 0.3093 0.45394 0.0
C1351 C 0.21274 0.36001 0.44948 0.0
N1352 N 0.22419 0.3007 0.40666 0.0
N1353 N 0.23721 0.37348 0.49191 0.0
H1354 H 0.18333 0.38657 0.43254 0.0
H1355 H 0.19541 0.39474 0.4656 0.0
H1356 H 0.24981 0.36968 0.50923 0.0
H1357 H 0.23126 0.39343 0.49019 0.0
H1358 H 0.23594 0.28359 0.40636 0.0
H1359 H 0.21472 0.30541 0.38783 0.0
H1360 H 0.23766 0.26729 0.44563 0.0
H1361 H 0.25254 0.27684 0.47739 0.0
C1362 C 0.25387 0.69335 0.39678 0.0
C1363 C 0.23264 0.67414 0.40046 0.0
C1364 C 0.24264 0.67609 0.44974 0.0
C1365 C 0.26394 0.69498 0.44601 0.0
N1366 N 0.29301 0.71869 0.41689 0.0
N1367 N 0.20961 0.64357 0.4295 0.0
C1368 C 0.2706 0.70256 0.4197 0.0
C1369 C 0.22794 0.66431 0.42671 0.0
N1370 N 0.25721 0.70359 0.37154 0.0
N1371 N 0.23585 0.67042 0.47542 0.0
H1372 H 0.19832 0.63475 0.41304 0.0
H1373 H 0.20694 0.63375 0.44774 0.0
H1374 H 0.24685 0.67831 0.49252 0.0
H1375 H 0.21866 0.65921 0.47982 0.0
H1376 H 0.27027 0.71973 0.36779 0.0
H1377 H 0.24569 0.69696 0.35423 0.0
H1378 H 0.30067 0.72332 0.39839 0.0
H1379 H 0.30516 0.72604 0.4335 0.0
C1380 C 0.82542 0.67905 0.4503 0.0
C1381 C 0.83377 0.69656 0.42952 0.0
C1382 C 0.8232 0.7351 0.45735 0.0
C1383 C 0.81004 0.71759 0.47523 0.0
N1384 N 0.7937 0.67251 0.48464 0.0
N1385 N 0.83382 0.74192 0.41106 0.0
C1386 C 0.80971 0.68939 0.47054 0.0
C1387 C 0.83074 0.72484 0.43234 0.0
N1388 N 0.83329 0.65285 0.45144 0.0
N1389 N 0.82998 0.76104 0.46476 0.0
H1390 H 0.83744 0.7352 0.39175 0.0
H1391 H 0.82961 0.7624 0.41196 0.0
H1392 H 0.82718 0.76855 0.48397 0.0
H1393 H 0.84138 0.77384 0.45301 0.0
H1394 H 0.8293 0.64003 0.46748 0.0
H1395 H 0.84652 0.64502 0.43822 0.0
H1396 H 0.79123 0.65197 0.4803 0.0
H1397 H 0.78058 0.67956 0.49839 0.0
C1398 C 0.85468 0.34772 0.45497 0.0
C1399 C 0.84644 0.33906 0.42826 0.0
C1400 C 0.80564 0.31718 0.44472 0.0
C1401 C 0.8164 0.32166 0.47162 0.0
N1402 N 0.84924 0.34299 0.50319 0.0
N1403 N 0.81373 0.31665 0.39689 0.0
C1404 C 0.84013 0.33796 0.47692 0.0
C1405 C 0.82155 0.32444 0.42283 0.0
N1406 N 0.87643 0.36515 0.45922 0.0
N1407 N 0.78028 0.30585 0.44036 0.0
H1408 H 0.82451 0.32224 0.38034 0.0
H1409 H 0.79736 0.30363 0.39174 0.0
H1410 H 0.76828 0.3013 0.4563 0.0
H1411 H 0.77017 0.30334 0.42134 0.0
H1412 H 0.88221 0.37419 0.47776 0.0
H1413 H 0.88788 0.37206 0.44363 0.0
H1414 H 0.868 0.35185 0.50907 0.0
H1415 H 0.83785 0.33754 0.51936 0.0
C1416 C 0.14728 0.69938 0.71751 0.0
C1417 C 0.16102 0.71885 0.70192 0.0
C1418 C 0.13292 0.75328 0.72024 0.0
C1419 C 0.12426 0.73506 0.74024 0.0
N1420 N 0.13037 0.6913 0.7613 0.0
N1421 N 0.17147 0.76663 0.69622 0.0
C1422 C 0.13344 0.70817 0.7399 0.0
C1423 C 0.1552 0.74655 0.70544 0.0
N1424 N 0.14638 0.67272 0.71056 0.0
N1425 N 0.11923 0.77625 0.7141 0.0
H1426 H 0.18984 0.76292 0.68821 0.0
H1427 H 0.16834 0.78698 0.70003 0.0
H1428 H 0.10068 0.78016 0.72173 0.0
H1429 H 0.1244 0.78914 0.69851 0.0
H1430 H 0.13506 0.65835 0.72063 0.0
H1431 H 0.154 0.66572 0.69286 0.0
H1432 H 0.13845 0.67207 0.76226 0.0
H1433 H 0.12304 0.69775 0.77933 0.0
C1434 C 0.86807 0.70523 0.72901 0.0
C1435 C 0.8834 0.70391 0.70589 0.0
C1436 C 0.88137 0.65422 0.70826 0.0
C1437 C 0.86826 0.65567 0.73268 0.0
N1438 N 0.85115 0.68196 0.76796 0.0
N1439 N 0.90683 0.67747 0.67466 0.0
C1440 C 0.86202 0.68106 0.74342 0.0
C1441 C 0.89056 0.67845 0.69575 0.0
N1442 N 0.85893 0.72958 0.73686 0.0
N1443 N 0.88434 0.62955 0.69676 0.0
H1444 H 0.9134 0.6947 0.66463 0.0
H1445 H 0.91526 0.65984 0.66814 0.0
H1446 H 0.87781 0.61163 0.70562 0.0
H1447 H 0.89126 0.62686 0.67764 0.0
H1448 H 0.84544 0.73177 0.75179 0.0
H1449 H 0.86328 0.74764 0.727 0.0
H1450 H 0.84846 0.69972 0.7785 0.0
H1451 H 0.84646 0.66457 0.77876 0.0
C1452 C 0.92349 0.3746 0.73785 0.0
C1453 C 0.91676 0.40142 0.73035 0.0
C1454 C 0.95385 0.41747 0.76232 0.0
C1455 C 0.96366 0.39089 0.76525 0.0
N1456 N 0.96148 0.34588 0.74577 0.0
N1457 N 0.93225 0.44836 0.73047 0.0
C1458 C 0.94954 0.36977 0.75027 0.0
C1459 C 0.93381 0.423 0.74117 0.0
N1460 N 0.90511 0.35373 0.73385 0.0
N1461 N 0.96293 0.43732 0.78002 0.0
H1462 H 0.92002 0.45284 0.71311 0.0
H1463 H 0.94573 0.46399 0.73686 0.0
H1464 H 0.97588 0.43353 0.79707 0.0
H1465 H 0.95486 0.45656 0.77946 0.0
H1466 H 0.90922 0.3342 0.74061 0.0
H1467 H 0.885 0.35663 0.72698 0.0
H1468 H 0.95192 0.33075 0.73364 0.0
H1469 H 0.98202 0.34294 0.7505 0.0
C1470 C 0.22597 0.45139 0.71479 0.0
C1471 C 0.22946 0.42767 0.73064 0.0
C1472 C 0.25986 0.453 0.76366 0.0
C1473 C 0.2592 0.47558 0.74599 0.0
N1474 N 0.24196 0.49685 0.70474 0.0
N1475 N 0.25066 0.40496 0.76936 0.0
C1476 C 0.24215 0.47497 0.72163 0.0
C1477 C 0.24645 0.4283 0.75505 0.0
N1478 N 0.20675 0.45147 0.69351 0.0
N1479 N 0.27339 0.4552 0.78865 0.0
H1480 H 0.24102 0.38661 0.76384 0.0
H1481 H 0.26504 0.4032 0.78561 0.0
H1482 H 0.28348 0.47292 0.7954 0.0
H1483 H 0.27269 0.44045 0.80359 0.0
H1484 H 0.20112 0.46875 0.68278 0.0
H1485 H 0.19485 0.43447 0.68772 0.0
H1486 H 0.23288 0.49669 0.68511 0.0
H1487 H 0.25193 0.51511 0.71006 0.0
C1488 C 0.14556 0.3213 0.32166 0.0
C1489 C 0.14245 0.33722 0.34509 0.0
C1490 C 0.09378 0.32499 0.34214 0.0
C1491 C 0.09687 0.30954 0.31846 0.0
N1492 N 0.12397 0.29841 0.28206 0.0
N1493 N 0.11261 0.35914 0.37389 0.0
C1494 C 0.12223 0.30962 0.307 0.0
C1495 C 0.1162 0.34057 0.35417 0.0
N1496 N 0.17092 0.316 0.31428 0.0
N1497 N 0.06949 0.32419 0.35354 0.0
H1498 H 0.12849 0.37094 0.38297 0.0
H1499 H 0.0937 0.36454 0.3796 0.0
H1500 H 0.05229 0.31445 0.34435 0.0
H1501 H 0.06668 0.33206 0.37259 0.0
H1502 H 0.17468 0.30222 0.29925 0.0
H1503 H 0.1885 0.32358 0.32474 0.0
H1504 H 0.14125 0.2998 0.27133 0.0
H1505 H 0.1071 0.29013 0.27093 0.0
C1506 C 0.20376 0.59041 0.31615 0.0
C1507 C 0.21465 0.61728 0.3174 0.0
C1508 C 0.25442 0.60281 0.2953 0.0
C1509 C 0.24375 0.5759 0.29395 0.0
N1510 N 0.206 0.54505 0.29759 0.0
N1511 N 0.24556 0.65032 0.30041 0.0
C1512 C 0.21744 0.57013 0.30227 0.0
C1513 C 0.23831 0.62386 0.30414 0.0
N1514 N 0.18143 0.58392 0.32966 0.0
N1515 N 0.28072 0.60803 0.29009 0.0
H1516 H 0.23398 0.66616 0.3066 0.0
H1517 H 0.26133 0.65642 0.28879 0.0
H1518 H 0.29335 0.59312 0.28391 0.0
H1519 H 0.29058 0.62662 0.29389 0.0
H1520 H 0.17425 0.56421 0.33219 0.0
H1521 H 0.17087 0.59822 0.33978 0.0
H1522 H 0.18606 0.53998 0.30115 0.0
H1523 H 0.21591 0.52992 0.28788 0.0
C1524 C 0.89913 0.71472 0.33794 0.0
C1525 C 0.90273 0.69545 0.3591 0.0
C1526 C 0.95174 0.6966 0.3544 0.0
C1527 C 0.94838 0.71768 0.33513 0.0
N1528 N 0.91958 0.74872 0.30996 0.0
N1529 N 0.93205 0.66887 0.38885 0.0
C1530 C 0.92222 0.72707 0.32704 0.0
C1531 C 0.92896 0.68653 0.36766 0.0
N1532 N 0.87356 0.72105 0.32812 0.0
N1533 N 0.97676 0.68593 0.35954 0.0
H1534 H 0.91574 0.6605 0.39843 0.0
H1535 H 0.95071 0.66367 0.3981 0.0
H1536 H 0.9937 0.69285 0.34998 0.0
H1537 H 0.98045 0.66894 0.37148 0.0
H1538 H 0.86942 0.73234 0.31064 0.0
H1539 H 0.85614 0.71359 0.33648 0.0
H1540 H 0.9016 0.75884 0.30594 0.0
H1541 H 0.93586 0.75772 0.30084 0.0
C1542 C 0.84434 0.40525 0.34175 0.0
C1543 C 0.87111 0.39857 0.3511 0.0
C1544 C 0.88806 0.43634 0.32447 0.0
C1545 C 0.86133 0.4454 0.31906 0.0
N1546 N 0.81518 0.44256 0.33201 0.0
N1547 N 0.91822 0.41324 0.3567 0.0
C1548 C 0.83967 0.43104 0.33033 0.0
C1549 C 0.89301 0.41567 0.34399 0.0
N1550 N 0.82341 0.3869 0.34288 0.0
N1551 N 0.90861 0.4469 0.31055 0.0
H1552 H 0.92233 0.39983 0.37262 0.0
H1553 H 0.93416 0.42676 0.35353 0.0
H1554 H 0.90539 0.461 0.29506 0.0
H1555 H 0.92809 0.43937 0.31236 0.0
H1556 H 0.80398 0.39068 0.33442 0.0
H1557 H 0.82614 0.367 0.34917 0.0
H1558 H 0.79952 0.43316 0.34178 0.0
H1559 H 0.8118 0.46272 0.32715 0.0
C1560 C 0.23603 0.63422 0.66805 0.0
C1561 C 0.23785 0.65903 0.68264 0.0
C1562 C 0.26901 0.63858 0.71702 0.0
C1563 C 0.26973 0.61503 0.7009 0.0
N1564 N 0.25626 0.5911 0.65984 0.0
N1565 N 0.2607 0.68646 0.71796 0.0
C1566 C 0.25401 0.61315 0.67593 0.0
C1567 C 0.25571 0.66168 0.70627 0.0
N1568 N 0.21628 0.63025 0.64759 0.0
N1569 N 0.2803 0.63861 0.74297 0.0
H1570 H 0.25197 0.70403 0.71019 0.0
H1571 H 0.27556 0.68999 0.73363 0.0
H1572 H 0.28906 0.62163 0.75185 0.0
H1573 H 0.27827 0.65436 0.75653 0.0
H1574 H 0.21227 0.61172 0.63804 0.0
H1575 H 0.20223 0.64479 0.6417 0.0
H1576 H 0.24764 0.58969 0.64005 0.0
H1577 H 0.26829 0.57487 0.66582 0.0
C1578 C 0.21768 0.43199 0.35723 0.0
C1579 C 0.22117 0.40472 0.34966 0.0
C1580 C 0.26176 0.41807 0.32669 0.0
C1581 C 0.25808 0.44525 0.33405 0.0
N1582 N 0.23127 0.47924 0.35256 0.0
N1583 N 0.24404 0.37178 0.32458 0.0
C1584 C 0.23557 0.45253 0.34819 0.0
C1585 C 0.24247 0.39777 0.33349 0.0
N1586 N 0.19774 0.43802 0.37374 0.0
N1587 N 0.28411 0.41183 0.31358 0.0
H1588 H 0.23051 0.35642 0.32962 0.0
H1589 H 0.25756 0.36555 0.31092 0.0
H1590 H 0.29806 0.42649 0.30785 0.0
H1591 H 0.28971 0.39228 0.30945 0.0
H1592 H 0.19586 0.45684 0.38259 0.0
H1593 H 0.18353 0.42369 0.37967 0.0
H1594 H 0.21386 0.48648 0.36021 0.0
H1595 H 0.24467 0.49451 0.34698 0.0
C1596 C 0.14618 0.70973 0.32704 0.0
C1597 C 0.14666 0.68607 0.34333 0.0
C1598 C 0.09993 0.69374 0.35457 0.0
C1599 C 0.10031 0.71842 0.34015 0.0
N1600 N 0.12323 0.75102 0.31355 0.0
N1601 N 0.12494 0.65578 0.37364 0.0
C1602 C 0.12328 0.72664 0.32649 0.0
C1603 C 0.12368 0.67804 0.35727 0.0
N1604 N 0.16756 0.7158 0.31195 0.0
N1605 N 0.07655 0.68532 0.36535 0.0
H1606 H 0.14148 0.64314 0.37505 0.0
H1607 H 0.11025 0.65035 0.38674 0.0
H1608 H 0.05926 0.69694 0.3643 0.0
H1609 H 0.07362 0.66637 0.3739 0.0
H1610 H 0.16771 0.73127 0.29773 0.0
H1611 H 0.18481 0.70417 0.31236 0.0
H1612 H 0.14007 0.75991 0.30543 0.0
H1613 H 0.10637 0.76324 0.3121 0.0
C1614 C 0.82893 0.6025 0.3631 0.0
C1615 C 0.82528 0.62931 0.35373 0.0
C1616 C 0.80447 0.61274 0.31058 0.0
C1617 C 0.80844 0.58571 0.31956 0.0
N1618 N 0.81863 0.55474 0.35648 0.0
N1619 N 0.80271 0.66005 0.32263 0.0
C1620 C 0.81838 0.58054 0.34668 0.0
C1621 C 0.81055 0.6344 0.32885 0.0
N1622 N 0.84397 0.59802 0.38687 0.0
N1623 N 0.79643 0.61788 0.28411 0.0
H1624 H 0.8072 0.67637 0.33565 0.0
H1625 H 0.78963 0.66469 0.30595 0.0
H1626 H 0.79163 0.60272 0.26993 0.0
H1627 H 0.7964 0.63714 0.27566 0.0
H1628 H 0.85036 0.57905 0.39325 0.0
H1629 H 0.85159 0.6136 0.3996 0.0
H1630 H 0.8231 0.55008 0.3768 0.0
H1631 H 0.81221 0.53795 0.3449 0.0
C1632 C 0.91886 0.30142 0.34349 0.0
C1633 C 0.92093 0.31287 0.36979 0.0
C1634 C 0.9648 0.29119 0.37893 0.0
C1635 C 0.96409 0.28287 0.35153 0.0
N1636 N 0.94305 0.2862 0.30616 0.0
N1637 N 0.94811 0.32207 0.41145 0.0
C1638 C 0.94187 0.28973 0.33334 0.0
C1639 C 0.94444 0.30852 0.3874 0.0
N1640 N 0.89467 0.30115 0.32835 0.0
N1641 N 0.9852 0.2828 0.39671 0.0
H1642 H 0.93411 0.33542 0.41809 0.0
H1643 H 0.96604 0.32186 0.42379 0.0
H1644 H 1.00098 0.27124 0.39066 0.0
H1645 H 0.98549 0.28576 0.41755 0.0
H1646 H 0.89142 0.29076 0.31006 0.0
H1647 H 0.8771 0.30876 0.33547 0.0
H1648 H 0.92854 0.29346 0.29187 0.0
H1649 H 0.95976 0.27846 0.29766 0.0
C1650 C 0.84929 0.48326 0.68957 0.0
C1651 C 0.83843 0.45852 0.69922 0.0
C1652 C 0.80772 0.48356 0.72628 0.0
C1653 C 0.82078 0.50808 0.71898 0.0
N1654 N 0.8478 0.5324 0.68848 0.0
N1655 N 0.80395 0.43448 0.72188 0.0
C1656 C 0.83945 0.50819 0.69869 0.0
C1657 C 0.81627 0.45853 0.71582 0.0
N1658 N 0.87007 0.48279 0.67289 0.0
N1659 N 0.78798 0.48437 0.74407 0.0
H1660 H 0.80994 0.41611 0.7143 0.0
H1661 H 0.78708 0.43254 0.73308 0.0
H1662 H 0.7805 0.50255 0.75047 0.0
H1663 H 0.77884 0.4675 0.75238 0.0
H1664 H 0.88115 0.49982 0.66747 0.0
H1665 H 0.87697 0.46494 0.66502 0.0
H1666 H 0.85998 0.53443 0.67233 0.0
H1667 H 0.84049 0.5507 0.69493 0.0
C1668 C 0.12645 0.36561 0.72733 0.0
C1669 C 0.15278 0.36107 0.73937 0.0
C1670 C 0.13389 0.3428 0.77994 0.0
C1671 C 0.10726 0.34647 0.76777 0.0
N1672 N 0.07797 0.35807 0.72852 0.0
N1673 N 0.18165 0.33949 0.77369 0.0
C1674 C 0.10346 0.35654 0.74087 0.0
C1675 C 0.15649 0.3478 0.76459 0.0
N1676 N 0.1235 0.37966 0.70354 0.0
N1677 N 0.13782 0.33555 0.80659 0.0
H1678 H 0.1989 0.34322 0.76326 0.0
H1679 H 0.18507 0.32677 0.79029 0.0
H1680 H 0.12221 0.3301 0.8186 0.0
H1681 H 0.15666 0.33639 0.8174 0.0
H1682 H 0.10508 0.38646 0.6951 0.0
H1683 H 0.1399 0.38617 0.69292 0.0
H1684 H 0.07404 0.36235 0.70805 0.0
H1685 H 0.06049 0.35342 0.7382 0.0
C1686 C 0.97641 0.77957 0.69515 0.0
C1687 C 0.95065 0.78133 0.70582 0.0
C1688 C 0.97218 0.79862 0.74861 0.0
C1689 C 0.99818 0.79667 0.7383 0.0
N1690 N 0.02461 0.79106 0.69993 0.0
N1691 N 0.92361 0.80051 0.73889 0.0
C1692 C 1.00009 0.78941 0.71079 0.0
C1693 C 0.94848 0.79369 0.73125 0.0
N1694 N 0.9784 0.76705 0.67084 0.0
N1695 N 0.97004 0.8034 0.77553 0.0
H1696 H 0.90587 0.79705 0.72655 0.0
H1697 H 0.92091 0.81199 0.75604 0.0
H1698 H 0.98669 0.80736 0.78912 0.0
H1699 H 0.95189 0.80164 0.78482 0.0
H1700 H 0.9967 0.76223 0.66327 0.0
H1701 H 0.96153 0.76001 0.6588 0.0
H1702 H 0.02714 0.78825 0.67945 0.0
H1703 H 0.04224 0.79757 0.71107 0.0
C1704 C 0.72091 0.2163 0.61996 0.0
C1705 C 0.72869 0.22455 0.64698 0.0
C1706 C 0.75343 0.26399 0.62992 0.0
C1707 C 0.74702 0.25479 0.60306 0.0
N1708 N 0.71976 0.22676 0.57179 0.0
N1709 N 0.74856 0.2581 0.67816 0.0
C1710 C 0.72901 0.23242 0.5979 0.0
C1711 C 0.74363 0.24915 0.65208 0.0
N1712 N 0.70635 0.19267 0.61551 0.0
N1713 N 0.7697 0.28655 0.63397 0.0
H1714 H 0.74296 0.24705 0.6949 0.0
H1715 H 0.75725 0.27684 0.68347 0.0
H1716 H 0.77563 0.29848 0.61792 0.0
H1717 H 0.77756 0.29349 0.65281 0.0
H1718 H 0.7023 0.18387 0.59655 0.0
H1719 H 0.69929 0.1809 0.63112 0.0
H1720 H 0.7052 0.2119 0.56627 0.0
H1721 H 0.72504 0.23871 0.55555 0.0
C1722 C 0.34986 0.27017 0.63269 0.0
C1723 C 0.34692 0.28141 0.65853 0.0
C1724 C 0.32309 0.31978 0.63683 0.0
C1725 C 0.3269 0.30885 0.61083 0.0
N1726 N 0.33384 0.26878 0.58579 0.0
N1727 N 0.32708 0.3144 0.686 0.0
C1728 C 0.33728 0.28255 0.60937 0.0
C1729 C 0.33221 0.30543 0.66083 0.0
N1730 N 0.3657 0.24825 0.63017 0.0
N1731 N 0.3111 0.34419 0.6383 0.0
H1732 H 0.3336 0.30428 0.70369 0.0
H1733 H 0.31489 0.3306 0.6895 0.0
H1734 H 0.30251 0.35386 0.62114 0.0
H1735 H 0.3098 0.35501 0.65611 0.0
H1736 H 0.37126 0.24129 0.61159 0.0
H1737 H 0.37518 0.23826 0.64666 0.0
H1738 H 0.33892 0.24872 0.58329 0.0
H1739 H 0.32125 0.27653 0.57055 0.0
C1740 C 0.31429 0.85586 0.63636 0.0
C1741 C 0.33097 0.87916 0.63305 0.0
C1742 C 0.33658 0.86594 0.586 0.0
C1743 C 0.32339 0.84087 0.59076 0.0
N1744 N 0.29986 0.81115 0.61989 0.0
N1745 N 0.35782 0.90716 0.60501 0.0
C1746 C 0.31189 0.83578 0.61568 0.0
C1747 C 0.34168 0.88467 0.60773 0.0
N1748 N 0.30109 0.85299 0.65951 0.0
N1749 N 0.34406 0.87166 0.56057 0.0
H1750 H 0.36084 0.92179 0.62016 0.0
H1751 H 0.36895 0.91095 0.58833 0.0
H1752 H 0.34079 0.85798 0.54458 0.0
H1753 H 0.35169 0.89039 0.5548 0.0
H1754 H 0.28695 0.8376 0.66263 0.0
H1755 H 0.30267 0.86751 0.67484 0.0
H1756 H 0.29326 0.80484 0.63839 0.0
H1757 H 0.29786 0.7962 0.60501 0.0
C1758 C 0.66849 0.8369 0.63209 0.0
C1759 C 0.67922 0.83023 0.65857 0.0
C1760 C 0.7061 0.79479 0.63978 0.0
C1761 C 0.69776 0.80361 0.61336 0.0
N1762 N 0.67232 0.83325 0.58354 0.0
N1763 N 0.70832 0.80337 0.68825 0.0
C1764 C 0.67902 0.82453 0.60929 0.0
C1765 C 0.69785 0.80907 0.66262 0.0
N1766 N 0.64826 0.85511 0.62889 0.0
N1767 N 0.72182 0.77262 0.64278 0.0
H1768 H 0.70179 0.81266 0.70542 0.0
H1769 H 0.72416 0.79034 0.69258 0.0
H1770 H 0.72836 0.76224 0.62624 0.0
H1771 H 0.72692 0.7634 0.66128 0.0
H1772 H 0.63777 0.8592 0.61043 0.0
H1773 H 0.64046 0.86481 0.64517 0.0
H1774 H 0.66105 0.85028 0.57894 0.0
H1775 H 0.67946 0.82417 0.56656 0.0
C1776 C 0.75032 0.83822 0.41395 0.0
C1777 C 0.72922 0.85657 0.41663 0.0
C1778 C 0.73964 0.85697 0.46611 0.0
C1779 C 0.7584 0.836 0.46375 0.0
N1780 N 0.77869 0.80399 0.43497 0.0
N1781 N 0.70201 0.88196 0.44528 0.0
C1782 C 0.7632 0.82611 0.43751 0.0
C1783 C 0.72344 0.86559 0.44274 0.0
N1784 N 0.75818 0.8324 0.38875 0.0
N1785 N 0.73809 0.86946 0.49052 0.0
H1786 H 0.69045 0.8895 0.42863 0.0
H1787 H 0.69461 0.88664 0.46379 0.0
H1788 H 0.75013 0.86429 0.50781 0.0
H1789 H 0.72687 0.88661 0.49309 0.0
H1790 H 0.77546 0.82172 0.38551 0.0
H1791 H 0.74879 0.84027 0.37102 0.0
H1792 H 0.78015 0.79383 0.41676 0.0
H1793 H 0.78829 0.79413 0.45135 0.0
C1794 C 0.71519 0.22567 0.41874 0.0
C1795 C 0.71009 0.19808 0.41162 0.0
C1796 C 0.73958 0.18519 0.45134 0.0
C1797 C 0.74197 0.2124 0.46029 0.0
N1798 N 0.72297 0.25684 0.45617 0.0
N1799 N 0.71042 0.1519 0.42754 0.0
C1800 C 0.72713 0.23225 0.44509 0.0
C1801 C 0.71998 0.17794 0.43004 0.0
N1802 N 0.70997 0.24567 0.40028 0.0
N1803 N 0.75692 0.1664 0.46203 0.0
H1804 H 0.69488 0.1461 0.4132 0.0
H1805 H 0.71574 0.13701 0.44171 0.0
H1806 H 0.77319 0.17135 0.47581 0.0
H1807 H 0.7571 0.14674 0.45457 0.0
H1808 H 0.71566 0.2658 0.40412 0.0
H1809 H 0.70278 0.24188 0.38033 0.0
H1810 H 0.71072 0.27116 0.44636 0.0
H1811 H 0.72857 0.26139 0.47637 0.0
C1812 C 0.31432 0.22396 0.42317 0.0
C1813 C 0.32894 0.19996 0.42706 0.0
C1814 C 0.32584 0.20335 0.47602 0.0
C1815 C 0.31598 0.22964 0.47227 0.0
N1816 N 0.30213 0.26614 0.44284 0.0
N1817 N 0.34874 0.16605 0.45681 0.0
C1818 C 0.31 0.24008 0.44595 0.0
C1819 C 0.33426 0.18905 0.45339 0.0
N1820 N 0.30492 0.23138 0.39767 0.0
N1821 N 0.32773 0.19264 0.50148 0.0
H1822 H 0.35502 0.15496 0.44064 0.0
H1823 H 0.35577 0.15864 0.47562 0.0
H1824 H 0.32193 0.2033 0.51819 0.0
H1825 H 0.33282 0.17275 0.50571 0.0
H1826 H 0.29208 0.24745 0.39376 0.0
H1827 H 0.30792 0.21985 0.38057 0.0
H1828 H 0.30039 0.27607 0.42427 0.0
H1829 H 0.29906 0.27847 0.45926 0.0
C1830 C 0.34085 0.83854 0.41476 0.0
C1831 C 0.33234 0.82363 0.39101 0.0
C1832 C 0.29881 0.79845 0.41617 0.0
C1833 C 0.30958 0.81102 0.4405 0.0
N1834 N 0.34087 0.84263 0.46366 0.0
N1835 N 0.30433 0.78865 0.36879 0.0
C1836 C 0.33046 0.83115 0.43991 0.0
C1837 C 0.31144 0.80351 0.39158 0.0
N1838 N 0.3586 0.86 0.41313 0.0
N1839 N 0.27653 0.78166 0.41667 0.0
H1840 H 0.31278 0.79218 0.35038 0.0
H1841 H 0.29141 0.77173 0.36836 0.0
H1842 H 0.26697 0.7776 0.43433 0.0
H1843 H 0.26612 0.77348 0.39945 0.0
H1844 H 0.36338 0.87359 0.42887 0.0
H1845 H 0.36741 0.8654 0.39533 0.0
H1846 H 0.35838 0.85476 0.46543 0.0
H1847 H 0.33243 0.83912 0.4821 0.0
C1848 C 0.63675 0.20583 0.70895 0.0
C1849 C 0.66383 0.21236 0.71839 0.0
C1850 C 0.64824 0.23571 0.75761 0.0
C1851 C 0.62124 0.23073 0.74724 0.0
N1852 N 0.58911 0.21474 0.7119 0.0
N1853 N 0.69583 0.23642 0.74929 0.0
C1854 C 0.61528 0.21673 0.72258 0.0
C1855 C 0.66974 0.22817 0.74207 0.0
N1856 N 0.63167 0.18882 0.68735 0.0
N1857 N 0.65313 0.24693 0.78274 0.0
H1858 H 0.7122 0.23091 0.73864 0.0
H1859 H 0.70112 0.25034 0.76463 0.0
H1860 H 0.63765 0.25252 0.79456 0.0
H1861 H 0.67229 0.2488 0.79279 0.0
H1862 H 0.61249 0.18104 0.68118 0.0
H1863 H 0.64696 0.181 0.67653 0.0
H1864 H 0.58346 0.20716 0.69265 0.0
H1865 H 0.57309 0.22255 0.72163 0.0
C1866 C 0.36821 0.18022 0.71551 0.0
C1867 C 0.35729 0.20425 0.72541 0.0
C1868 C 0.33551 0.17786 0.76042 0.0
C1869 C 0.34647 0.15399 0.75052 0.0
N1870 N 0.36953 0.13109 0.71684 0.0
N1871 N 0.32749 0.22585 0.75444 0.0
C1872 C 0.36168 0.15483 0.72743 0.0
C1873 C 0.33987 0.20299 0.74697 0.0
N1874 N 0.38541 0.18188 0.69516 0.0
N1875 N 0.32169 0.17641 0.78328 0.0
H1876 H 0.33076 0.24458 0.74543 0.0
H1877 H 0.3127 0.22616 0.76828 0.0
H1878 H 0.31785 0.15818 0.79304 0.0
H1879 H 0.31513 0.19311 0.79341 0.0
H1880 H 0.39652 0.16584 0.68889 0.0
H1881 H 0.38955 0.19986 0.68508 0.0
H1882 H 0.37857 0.12955 0.69863 0.0
H1883 H 0.36533 0.11242 0.72561 0.0
C1884 C 0.42883 0.88444 0.70009 0.0
C1885 C 0.40219 0.87888 0.70768 0.0
C1886 C 0.41738 0.83758 0.73094 0.0
C1887 C 0.44402 0.84333 0.72369 0.0
N1888 N 0.47656 0.87427 0.70634 0.0
N1889 N 0.37179 0.85339 0.73437 0.0
C1890 C 0.45017 0.86745 0.70975 0.0
C1891 C 0.39674 0.85647 0.72453 0.0
N1892 N 0.43346 0.90536 0.68286 0.0
N1893 N 0.41173 0.81343 0.74293 0.0
H1894 H 0.35627 0.86686 0.72988 0.0
H1895 H 0.36708 0.83893 0.74867 0.0
H1896 H 0.42653 0.79926 0.74771 0.0
H1897 H 0.39228 0.80653 0.74639 0.0
H1898 H 0.45165 0.90862 0.67396 0.0
H1899 H 0.41852 0.9188 0.67631 0.0
H1900 H 0.4829 0.89278 0.6987 0.0
H1901 H 0.49244 0.86206 0.71319 0.0
C1902 C 0.73061 0.90825 0.72984 0.0
C1903 C 0.70686 0.91185 0.71256 0.0
C1904 C 0.72264 0.95763 0.70132 0.0
C1905 C 0.7472 0.95317 0.71684 0.0
N1906 N 0.77617 0.92432 0.74414 0.0
N1907 N 0.6806 0.93865 0.68016 0.0
C1908 C 0.75159 0.92847 0.73069 0.0
C1909 C 0.70288 0.93627 0.6979 0.0
N1910 N 0.73284 0.88564 0.74565 0.0
N1911 N 0.71821 0.98255 0.69029 0.0
H1912 H 0.66527 0.92381 0.67791 0.0
H1913 H 0.67784 0.95462 0.66666 0.0
H1914 H 0.73279 0.99816 0.69189 0.0
H1915 H 0.69976 0.98833 0.681 0.0
H1916 H 0.74839 0.88278 0.76056 0.0
H1917 H 0.71797 0.87031 0.74523 0.0
H1918 H 0.782 0.90596 0.75261 0.0
H1919 H 0.79162 0.93903 0.74526 0.0
C1920 C 0.62261 0.84633 0.35357 0.0
C1921 C 0.64904 0.83694 0.3507 0.0
C1922 C 0.62959 0.79527 0.32957 0.0
C1923 C 0.6033 0.80597 0.32975 0.0
N1924 N 0.5752 0.84379 0.33773 0.0
N1925 N 0.67807 0.80429 0.33258 0.0
C1926 C 0.59988 0.83204 0.34076 0.0
C1927 C 0.65265 0.81186 0.3378 0.0
N1928 N 0.61921 0.86867 0.36899 0.0
N1929 N 0.63251 0.76889 0.32253 0.0
H1930 H 0.69546 0.81571 0.33853 0.0
H1931 H 0.68178 0.7878 0.3205 0.0
H1932 H 0.61614 0.75596 0.31682 0.0
H1933 H 0.65087 0.75911 0.32474 0.0
H1934 H 0.60039 0.87486 0.37426 0.0
H1935 H 0.63539 0.87969 0.37861 0.0
H1936 H 0.57214 0.86384 0.34269 0.0
H1937 H 0.55817 0.83438 0.32787 0.0
C1938 C 0.70067 0.11141 0.33036 0.0
C1939 C 0.71371 0.13724 0.33219 0.0
C1940 C 0.75563 0.1171 0.3189 0.0
C1941 C 0.7417 0.09186 0.31451 0.0
N1942 N 0.69822 0.06841 0.30754 0.0
N1943 N 0.75201 0.1657 0.32248 0.0
C1944 C 0.71342 0.08995 0.31779 0.0
C1945 C 0.74074 0.1404 0.32466 0.0
N1946 N 0.67659 0.10684 0.34158 0.0
N1947 N 0.78317 0.1187 0.31871 0.0
H1948 H 0.74148 0.18316 0.326 0.0
H1949 H 0.77067 0.16942 0.31461 0.0
H1950 H 0.79486 0.102 0.31546 0.0
H1951 H 0.79458 0.136 0.32441 0.0
H1952 H 0.66778 0.0876 0.3431 0.0
H1953 H 0.66684 0.12161 0.35188 0.0
H1954 H 0.67718 0.06743 0.30742 0.0
H1955 H 0.70604 0.0533 0.29608 0.0
C1956 C 0.42688 0.19899 0.36874 0.0
C1957 C 0.4002 0.20762 0.36167 0.0
C1958 C 0.41851 0.24922 0.34203 0.0
C1959 C 0.44504 0.23991 0.34775 0.0
N1960 N 0.47478 0.20431 0.36202 0.0
N1961 N 0.37024 0.23872 0.33808 0.0
C1962 C 0.44931 0.2143 0.35986 0.0
C1963 C 0.39591 0.23214 0.34726 0.0
N1964 N 0.43081 0.17669 0.3847 0.0
N1965 N 0.41513 0.27478 0.3322 0.0
H1966 H 0.35327 0.22662 0.34151 0.0
H1967 H 0.36584 0.25495 0.32529 0.0
H1968 H 0.43145 0.28752 0.32814 0.0
H1969 H 0.39653 0.28409 0.32998 0.0
H1970 H 0.4497 0.1711 0.39309 0.0
H1971 H 0.41491 0.1647 0.39117 0.0
H1972 H 0.47902 0.18463 0.36798 0.0
H1973 H 0.49154 0.21513 0.35574 0.0
C1974 C 0.31337 0.88105 0.29015 0.0
C1975 C 0.33546 0.88315 0.31001 0.0
C1976 C 0.34056 0.93138 0.3008 0.0
C1977 C 0.31579 0.93021 0.2848 0.0
N1978 N 0.27895 0.90451 0.26235 0.0
N1979 N 0.36961 0.91026 0.33558 0.0
C1980 C 0.3025 0.90508 0.2785 0.0
C1981 C 0.34919 0.90826 0.31547 0.0
N1982 N 0.30297 0.85614 0.28256 0.0
N1983 N 0.35578 0.95477 0.30176 0.0
H1984 H 0.37669 0.89379 0.34688 0.0
H1985 H 0.37823 0.92858 0.34255 0.0
H1986 H 0.34999 0.97157 0.29032 0.0
H1987 H 0.3752 0.95654 0.31123 0.0
H1988 H 0.28834 0.85293 0.26665 0.0
H1989 H 0.31033 0.83829 0.29114 0.0
H1990 H 0.26655 0.88738 0.25906 0.0
H1991 H 0.27145 0.9217 0.25258 0.0
C1992 C 0.73825 0.12229 0.69567 0.0
C1993 C 0.7357 0.14507 0.71251 0.0
C1994 C 0.74799 0.11715 0.75252 0.0
C1995 C 0.75231 0.09494 0.73543 0.0
N1996 N 0.76162 0.08079 0.69031 0.0
N1997 N 0.74608 0.16585 0.75623 0.0
C1998 C 0.75051 0.09881 0.70686 0.0
C1999 C 0.74316 0.14302 0.74075 0.0
N2000 N 0.72786 0.12229 0.66935 0.0
N2001 N 0.74732 0.11349 0.77981 0.0
H2002 H 0.74371 0.18514 0.74805 0.0
H2003 H 0.75366 0.1658 0.77642 0.0
H2004 H 0.74998 0.09479 0.78916 0.0
H2005 H 0.74163 0.1285 0.79279 0.0
H2006 H 0.72699 0.10504 0.65725 0.0
H2007 H 0.71764 0.1385 0.66043 0.0
H2008 H 0.76268 0.08407 0.6696 0.0
H2009 H 0.77289 0.06452 0.69764 0.0
C2010 C 0.69881 0.94328 0.34094 0.0
C2011 C 0.70877 0.91741 0.33532 0.0
C2012 C 0.72456 0.93462 0.29238 0.0
C2013 C 0.71581 0.96071 0.29863 0.0
N2014 N 0.69904 0.99127 0.33064 0.0
N2015 N 0.73458 0.88914 0.3079 0.0
C2016 C 0.70412 0.96541 0.32344 0.0
C2017 C 0.72272 0.91331 0.31166 0.0
N2018 N 0.6836 0.94649 0.36259 0.0
N2019 N 0.73387 0.93017 0.26752 0.0
H2020 H 0.73346 0.87312 0.32152 0.0
H2021 H 0.74727 0.88556 0.29253 0.0
H2022 H 0.73529 0.94546 0.25313 0.0
H2023 H 0.73823 0.91118 0.26033 0.0
H2024 H 0.67313 0.96393 0.36608 0.0
H2025 H 0.68002 0.931 0.37628 0.0
H2026 H 0.69321 0.99665 0.34963 0.0
H2027 H 0.70274 1.00777 0.31822 0.0
C2028 C 0.61278 0.18517 0.3265 0.0
C2029 C 0.63621 0.20187 0.33328 0.0
C2030 C 0.61141 0.24082 0.31447 0.0
C2031 C 0.58987 0.2236 0.3038 0.0
N2032 N 0.5706 0.17873 0.29844 0.0
N2033 N 0.659 0.24516 0.32874 0.0
C2034 C 0.59062 0.19556 0.30963 0.0
C2035 C 0.63577 0.22962 0.32606 0.0
N2036 N 0.61138 0.15965 0.33684 0.0
N2037 N 0.60831 0.2681 0.31441 0.0
H2038 H 0.6776 0.23765 0.33595 0.0
H2039 H 0.66036 0.26473 0.32112 0.0
H2040 H 0.59057 0.27709 0.30676 0.0
H2041 H 0.62203 0.28131 0.32489 0.0
H2042 H 0.59405 0.14728 0.33477 0.0
H2043 H 0.6268 0.15178 0.34974 0.0
H2044 H 0.57139 0.15776 0.29932 0.0
H2045 H 0.55393 0.18583 0.28672 0.0
C2046 C 0.31545 0.12986 0.33206 0.0
C2047 C 0.33276 0.12914 0.35615 0.0
C2048 C 0.32715 0.07988 0.35772 0.0
C2049 C 0.31311 0.08033 0.33185 0.0
N2050 N 0.29492 0.10515 0.29326 0.0
N2051 N 0.35669 0.10369 0.39146 0.0
C2052 C 0.30718 0.1052 0.31885 0.0
C2053 C 0.33885 0.10419 0.36905 0.0
N2054 N 0.30667 0.15408 0.32206 0.0
N2055 N 0.3292 0.05589 0.37123 0.0
H2056 H 0.36574 0.1211 0.40028 0.0
H2057 H 0.36408 0.08601 0.40023 0.0
H2058 H 0.32059 0.03796 0.36305 0.0
H2059 H 0.33714 0.05408 0.39117 0.0
H2060 H 0.29181 0.15587 0.30622 0.0
H2061 H 0.31273 0.17254 0.33097 0.0
H2062 H 0.29285 0.12237 0.28133 0.0
H2063 H 0.28798 0.08752 0.28336 0.0
C2064 C 0.4057 0.7997 0.30231 0.0
C2065 C 0.40626 0.81592 0.32591 0.0
C2066 C 0.4557 0.82107 0.32578 0.0
C2067 C 0.45457 0.80766 0.30045 0.0
N2068 N 0.42872 0.78586 0.26327 0.0
N2069 N 0.43123 0.84376 0.35949 0.0
C2070 C 0.42961 0.79733 0.28839 0.0
C2071 C 0.4312 0.82674 0.33777 0.0
N2072 N 0.38218 0.78642 0.29344 0.0
N2073 N 0.48026 0.82879 0.33804 0.0
H2074 H 0.41382 0.84792 0.36915 0.0
H2075 H 0.44815 0.85493 0.36712 0.0
H2076 H 0.49833 0.82666 0.32882 0.0
H2077 H 0.48296 0.83592 0.35784 0.0
H2078 H 0.3807 0.77253 0.27763 0.0
H2079 H 0.3645 0.78758 0.30356 0.0
H2080 H 0.41083 0.78104 0.25176 0.0
H2081 H 0.44603 0.78218 0.25328 0.0
C2082 C 0.32866 0.95305 0.73172 0.0
C2083 C 0.33516 0.95418 0.70429 0.0
C2084 C 0.32414 1.00258 0.70359 0.0
C2085 C 0.322 1.00205 0.73201 0.0
N2086 N 0.32847 0.97727 0.77389 0.0
N2087 N 0.34244 0.98148 0.66487 0.0
C2088 C 0.32588 0.97739 0.74627 0.0
C2089 C 0.33349 0.97931 0.69025 0.0
N2090 N 0.3246 0.92863 0.74385 0.0
N2091 N 0.31766 0.02546 0.68942 0.0
H2092 H 0.35022 0.96532 0.65478 0.0
H2093 H 0.34439 0.9998 0.65477 0.0
H2094 H 0.31131 0.04281 0.69877 0.0
H2095 H 0.31634 0.02643 0.66836 0.0
H2096 H 0.31749 0.92674 0.76308 0.0
H2097 H 0.32544 0.91035 0.73356 0.0
H2098 H 0.33451 0.96042 0.78517 0.0
H2099 H 0.32668 0.99457 0.78546 0.0
C2100 C 0.62437 0.85352 0.76163 0.0
C2101 C 0.62236 0.85939 0.73344 0.0
C2102 C 0.57314 0.85334 0.73261 0.0
C2103 C 0.57465 0.85074 0.76137 0.0
N2104 N 0.60207 0.85321 0.80366 0.0
N2105 N 0.59414 0.87181 0.69386 0.0
C2106 C 0.60042 0.85222 0.77602 0.0
C2107 C 0.59652 0.86154 0.71953 0.0
N2108 N 0.64898 0.84821 0.77448 0.0
N2109 N 0.55007 0.84598 0.71734 0.0
H2110 H 0.61073 0.87863 0.68372 0.0
H2111 H 0.57552 0.87621 0.68388 0.0
H2112 H 0.53321 0.83723 0.72548 0.0
H2113 H 0.54896 0.84521 0.69625 0.0
H2114 H 0.65131 0.841 0.79426 0.0
H2115 H 0.66686 0.84868 0.7646 0.0
H2116 H 0.62016 0.85688 0.81531 0.0
H2117 H 0.58505 0.85304 0.81485 0.0
C2118 C 0.43245 0.29622 0.74442 0.0
C2119 C 0.42903 0.27689 0.72323 0.0
C2120 C 0.47822 0.27164 0.72433 0.0
C2121 C 0.48156 0.29043 0.74596 0.0
N2122 N 0.46339 0.32527 0.77236 0.0
N2123 N 0.44828 0.25064 0.68889 0.0
C2124 C 0.45908 0.30433 0.75453 0.0
C2125 C 0.45187 0.26611 0.71178 0.0
N2126 N 0.41022 0.30592 0.75558 0.0
N2127 N 0.50017 0.25824 0.71665 0.0
H2128 H 0.42923 0.24586 0.67948 0.0
H2129 H 0.46408 0.24422 0.67799 0.0
H2130 H 0.51986 0.26294 0.72447 0.0
H2131 H 0.49889 0.24185 0.70347 0.0
H2132 H 0.41117 0.31762 0.77307 0.0
H2133 H 0.39047 0.30098 0.74815 0.0
H2134 H 0.44824 0.33767 0.77821 0.0
H2135 H 0.48278 0.33183 0.77939 0.0
C2136 C 0.75007 0.71166 0.1368 0.0
C2137 C 0.72599 0.69886 0.12525 0.0
C2138 C 0.73971 0.70874 0.07973 0.0
C2139 C 0.76501 0.71869 0.09127 0.0
N2140 N 0.7956 0.72846 0.12995 0.0
N2141 N 0.69883 0.68233 0.08597 0.0
C2142 C 0.77052 0.71991 0.11964 0.0
C2143 C 0.72095 0.69674 0.09675 0.0
N2144 N 0.75305 0.71626 0.16409 0.0
N2145 N 0.73337 0.71159 0.05257 0.0
H2146 H 0.68428 0.67364 0.09772 0.0
H2147 H 0.69582 0.67736 0.06553 0.0
H2148 H 0.74672 0.72025 0.03952 0.0
H2149 H 0.71416 0.70746 0.04332 0.0
H2150 H 0.76903 0.72752 0.17359 0.0
H2151 H 0.73827 0.71058 0.17711 0.0
H2152 H 0.80208 0.72753 0.15039 0.0
H2153 H 0.81071 0.73485 0.11759 0.0
C2154 C 0.34798 0.75383 0.17156 0.0
C2155 C 0.37312 0.74284 0.16603 0.0
C2156 C 0.37093 0.767 0.12236 0.0
C2157 C 0.3441 0.77481 0.1263 0.0
N2158 N 0.30517 0.77051 0.153 0.0
N2159 N 0.40748 0.73662 0.13479 0.0
C2160 C 0.33216 0.76707 0.15057 0.0
C2161 C 0.38441 0.74891 0.14108 0.0
N2162 N 0.33932 0.75195 0.19709 0.0
N2163 N 0.38383 0.77743 0.10107 0.0
H2164 H 0.418 0.72353 0.14801 0.0
H2165 H 0.41505 0.73776 0.11575 0.0
H2166 H 0.37478 0.79103 0.08732 0.0
H2167 H 0.40424 0.77469 0.09851 0.0
H2168 H 0.32255 0.76199 0.20308 0.0
H2169 H 0.35048 0.74266 0.21303 0.0
H2170 H 0.29493 0.76253 0.16896 0.0
H2171 H 0.29225 0.77875 0.13784 0.0
C2172 C 0.31091 0.32249 0.13819 0.0
C2173 C 0.33447 0.33882 0.13506 0.0
C2174 C 0.31772 0.35002 0.08854 0.0
C2175 C 0.29482 0.33261 0.09099 0.0
N2176 N 0.26794 0.3039 0.11841 0.0
N2177 N 0.36258 0.36484 0.10658 0.0
C2178 C 0.29107 0.3191 0.11589 0.0
C2179 C 0.33855 0.35151 0.10995 0.0
N2180 N 0.30716 0.31126 0.16296 0.0
N2181 N 0.31894 0.36618 0.0662 0.0
H2182 H 0.37814 0.36633 0.12191 0.0
H2183 H 0.36805 0.37242 0.08809 0.0
H2184 H 0.30463 0.36506 0.04968 0.0
H2185 H 0.33329 0.38169 0.06453 0.0
H2186 H 0.28959 0.30121 0.16802 0.0
H2187 H 0.32185 0.31242 0.17915 0.0
H2188 H 0.26406 0.29211 0.13512 0.0
H2189 H 0.25226 0.3026 0.1032 0.0
C2190 C 0.70206 0.34187 0.12072 0.0
C2191 C 0.70971 0.33311 0.14747 0.0
C2192 C 0.73909 0.2993 0.12944 0.0
C2193 C 0.73297 0.30937 0.10298 0.0
N2194 N 0.71004 0.34053 0.07278 0.0
N2195 N 0.73684 0.30511 0.17795 0.0
C2196 C 0.71477 0.33075 0.09846 0.0
C2197 C 0.7285 0.31212 0.152 0.0
N2198 N 0.68233 0.36053 0.11669 0.0
N2199 N 0.75488 0.2772 0.13279 0.0
H2200 H 0.72878 0.31333 0.19489 0.0
H2201 H 0.7527 0.29225 0.1829 0.0
H2202 H 0.76407 0.2684 0.11682 0.0
H2203 H 0.75783 0.2667 0.15094 0.0
H2204 H 0.67392 0.3662 0.09774 0.0
H2205 H 0.67296 0.36933 0.13256 0.0
H2206 H 0.69924 0.35781 0.068 0.0
H2207 H 0.71816 0.3319 0.05608 0.0
C2208 C 0.75889 0.34357 0.9051 0.0
C2209 C 0.74303 0.36641 0.90923 0.0
C2210 C 0.74509 0.35705 0.95814 0.0
C2211 C 0.75895 0.33291 0.95365 0.0
N2212 N 0.77782 0.30199 0.92299 0.0
N2213 N 0.71892 0.3941 0.93873 0.0
C2214 C 0.76549 0.32584 0.92713 0.0
C2215 C 0.7357 0.37305 0.93555 0.0
N2216 N 0.76822 0.33929 0.88017 0.0
N2217 N 0.74093 0.36465 0.98402 0.0
H2218 H 0.71228 0.40664 0.92279 0.0
H2219 H 0.71019 0.39828 0.95668 0.0
H2220 H 0.74616 0.35278 1.00091 0.0
H2221 H 0.73375 0.38339 0.98906 0.0
H2222 H 0.78226 0.32481 0.8763 0.0
H2223 H 0.76349 0.35163 0.86349 0.0
H2224 H 0.78013 0.29388 0.90395 0.0
H2225 H 0.78459 0.28935 0.93873 0.0
C2226 C 0.71657 0.74072 0.9329 0.0
C2227 C 0.72708 0.74359 0.90705 0.0
C2228 C 0.76111 0.77652 0.92639 0.0
C2229 C 0.74892 0.77587 0.95161 0.0
N2230 N 0.71208 0.76026 0.97729 0.0
N2231 N 0.75558 0.76868 0.87799 0.0
C2232 C 0.72582 0.75871 0.95443 0.0
C2233 C 0.74819 0.76285 0.90346 0.0
N2234 N 0.69829 0.72029 0.93713 0.0
N2235 N 0.78596 0.78871 0.92457 0.0
H2236 H 0.74661 0.75927 0.86063 0.0
H2237 H 0.7687 0.78469 0.87386 0.0
H2238 H 0.79714 0.79756 0.94099 0.0
H2239 H 0.79688 0.78735 0.90746 0.0
H2240 H 0.69204 0.71526 0.95616 0.0
H2241 H 0.69109 0.70682 0.92193 0.0
H2242 H 0.69359 0.75032 0.97948 0.0
H2243 H 0.71787 0.77349 0.99315 0.0
C2244 C 0.35228 0.73689 0.93549 0.0
C2245 C 0.35828 0.71006 0.92836 0.0
C2246 C 0.33434 0.69357 0.9669 0.0
C2247 C 0.33223 0.72034 0.97631 0.0
N2248 N 0.34794 0.76688 0.9731 0.0
N2249 N 0.36178 0.66357 0.94307 0.0
C2250 C 0.34364 0.74196 0.96164 0.0
C2251 C 0.35128 0.68852 0.94576 0.0
N2252 N 0.3538 0.75743 0.91722 0.0
N2253 N 0.31964 0.67302 0.97757 0.0
H2254 H 0.37629 0.65971 0.92949 0.0
H2255 H 0.35866 0.64788 0.95664 0.0
H2256 H 0.3057 0.67628 0.99193 0.0
H2257 H 0.31907 0.65344 0.96981 0.0
H2258 H 0.34754 0.77687 0.92117 0.0
H2259 H 0.35817 0.75432 0.89722 0.0
H2260 H 0.35796 0.78258 0.96357 0.0
H2261 H 0.34493 0.77075 0.99331 0.0
C2262 C 0.35731 0.37784 0.94627 0.0
C2263 C 0.38546 0.38134 0.94345 0.0
C2264 C 0.39508 0.35632 0.98548 0.0
C2265 C 0.36704 0.35401 0.98931 0.0
N2266 N 0.32295 0.37236 0.97828 0.0
N2267 N 0.4301 0.38348 0.96633 0.0
C2268 C 0.34854 0.36792 0.97127 0.0
C2269 C 0.40392 0.3741 0.96535 0.0
N2270 N 0.33895 0.38244 0.92499 0.0
N2271 N 0.41315 0.33995 0.99908 0.0
H2272 H 0.43676 0.39728 0.95215 0.0
H2273 H 0.44393 0.37997 0.98278 0.0
H2274 H 0.40735 0.32418 1.01149 0.0
H2275 H 0.43352 0.33979 0.99513 0.0
H2276 H 0.31842 0.37751 0.92557 0.0
H2277 H 0.34445 0.38903 0.90613 0.0
H2278 H 0.30935 0.38399 0.96653 0.0
H2279 H 0.31669 0.36738 0.99736 0.0
C2280 C 0.62763 0.71611 0.15919 0.0
C2281 C 0.63628 0.69058 0.16897 0.0
C2282 C 0.59996 0.69063 0.20011 0.0
C2283 C 0.59688 0.71871 0.19547 0.0
N2284 N 0.60842 0.75855 0.17034 0.0
N2285 N 0.61455 0.6489 0.18138 0.0
C2286 C 0.61077 0.73152 0.17479 0.0
C2287 C 0.61798 0.67612 0.18477 0.0
N2288 N 0.63122 0.72339 0.13312 0.0
N2289 N 0.58562 0.67773 0.21897 0.0
H2290 H 0.62402 0.63867 0.16642 0.0
H2291 H 0.59976 0.63741 0.19038 0.0
H2292 H 0.5711 0.6873 0.22935 0.0
H2293 H 0.58935 0.65801 0.22527 0.0
H2294 H 0.62317 0.74081 0.12427 0.0
H2295 H 0.63864 0.70986 0.11949 0.0
H2296 H 0.62003 0.76906 0.15684 0.0
H2297 H 0.59676 0.77067 0.18186 0.0
C2298 C 0.34731 0.65093 0.22539 0.0
C2299 C 0.37312 0.65275 0.21466 0.0
C2300 C 0.38021 0.60494 0.22591 0.0
C2301 C 0.35439 0.60324 0.23622 0.0
N2302 N 0.31002 0.62148 0.23662 0.0
N2303 N 0.41071 0.6296 0.19796 0.0
C2304 C 0.33681 0.62523 0.2329 0.0
C2305 C 0.38846 0.62905 0.2127 0.0
N2306 N 0.33353 0.67373 0.23023 0.0
N2307 N 0.39701 0.58365 0.22937 0.0
H2308 H 0.41676 0.64678 0.18751 0.0
H2309 H 0.42152 0.61252 0.19396 0.0
H2310 H 0.39084 0.56544 0.23791 0.0
H2311 H 0.41727 0.58453 0.22508 0.0
H2312 H 0.3161 0.67355 0.24078 0.0
H2313 H 0.34072 0.69311 0.22603 0.0
H2314 H 0.29577 0.6363 0.23253 0.0
H2315 H 0.30164 0.6025 0.24043 0.0
C2316 C 0.44076 0.34146 0.20624 0.0
C2317 C 0.41532 0.32747 0.20362 0.0
C2318 C 0.4385 0.28565 0.21831 0.0
C2319 C 0.46329 0.30047 0.22379 0.0
N2320 N 0.4846 0.34472 0.23083 0.0
N2321 N 0.38944 0.28696 0.21284 0.0
C2322 C 0.46347 0.32902 0.21995 0.0
C2323 C 0.41404 0.29971 0.21125 0.0
N2324 N 0.44368 0.36642 0.19488 0.0
N2325 N 0.43833 0.25809 0.21887 0.0
H2326 H 0.37119 0.29665 0.2087 0.0
H2327 H 0.38715 0.26765 0.22086 0.0
H2328 H 0.45574 0.24712 0.22335 0.0
H2329 H 0.42147 0.24617 0.21239 0.0
H2330 H 0.46242 0.37631 0.19401 0.0
H2331 H 0.42797 0.37589 0.18372 0.0
H2332 H 0.48449 0.36576 0.23058 0.0
H2333 H 0.50053 0.33707 0.24318 0.0
C2334 C 0.71978 0.43275 0.20386 0.0
C2335 C 0.722 0.40708 0.21633 0.0
C2336 C 0.75225 0.42648 0.25314 0.0
C2337 C 0.75276 0.45129 0.23885 0.0
N2338 N 0.73798 0.47836 0.20024 0.0
N2339 N 0.74171 0.37835 0.2514 0.0
C2340 C 0.73668 0.45454 0.21414 0.0
C2341 C 0.73845 0.40364 0.24073 0.0
N2342 N 0.70099 0.43643 0.18262 0.0
N2343 N 0.76496 0.42477 0.2785 0.0
H2344 H 0.73183 0.36118 0.24292 0.0
H2345 H 0.75567 0.37395 0.26742 0.0
H2346 H 0.77532 0.44108 0.28805 0.0
H2347 H 0.76331 0.40804 0.29107 0.0
H2348 H 0.69621 0.45525 0.17452 0.0
H2349 H 0.68852 0.42082 0.17428 0.0
H2350 H 0.72971 0.48091 0.1805 0.0
H2351 H 0.74849 0.49545 0.20802 0.0
C2352 C 0.6496 0.38564 0.83559 0.0
C2353 C 0.67575 0.37695 0.83031 0.0
C2354 C 0.65525 0.34113 0.80056 0.0
C2355 C 0.62943 0.34715 0.80921 0.0
N2356 N 0.60145 0.37475 0.83507 0.0
N2357 N 0.7041 0.34711 0.80744 0.0
C2358 C 0.62634 0.36968 0.82632 0.0
C2359 C 0.67872 0.3551 0.81234 0.0
N2360 N 0.64712 0.409 0.84974 0.0
N2361 N 0.65712 0.32206 0.7809 0.0
H2362 H 0.72162 0.35776 0.81457 0.0
H2363 H 0.70799 0.32941 0.79732 0.0
H2364 H 0.64018 0.31179 0.77185 0.0
H2365 H 0.67488 0.31796 0.77191 0.0
H2366 H 0.62872 0.41795 0.85221 0.0
H2367 H 0.6638 0.4207 0.85726 0.0
H2368 H 0.5982 0.38865 0.85013 0.0
H2369 H 0.58394 0.36397 0.82816 0.0
C2370 C 0.73413 0.64374 0.84223 0.0
C2371 C 0.73773 0.67156 0.83604 0.0
C2372 C 0.76761 0.65987 0.80048 0.0
C2373 C 0.76578 0.63233 0.80821 0.0
N2374 N 0.74937 0.59784 0.83764 0.0
N2375 N 0.7592 0.70672 0.8109 0.0
C2376 C 0.74946 0.62419 0.82933 0.0
C2377 C 0.75483 0.67979 0.81555 0.0
N2378 N 0.71566 0.636 0.86014 0.0
N2379 N 0.78133 0.66682 0.77841 0.0
H2380 H 0.74969 0.7218 0.82105 0.0
H2381 H 0.77351 0.71437 0.79836 0.0
H2382 H 0.79078 0.65264 0.76704 0.0
H2383 H 0.78167 0.68606 0.76998 0.0
H2384 H 0.70966 0.61602 0.86328 0.0
H2385 H 0.705 0.64977 0.87087 0.0
H2386 H 0.74072 0.59102 0.85501 0.0
H2387 H 0.75924 0.5828 0.82778 0.0
C2388 C 0.45585 0.71446 0.86077 0.0
C2389 C 0.43144 0.72794 0.86405 0.0
C2390 C 0.45429 0.77099 0.8535 0.0
C2391 C 0.47732 0.75693 0.84633 0.0
N2392 N 0.49627 0.71369 0.83655 0.0
N2393 N 0.40599 0.76868 0.85807 0.0
C2394 C 0.47722 0.72821 0.84831 0.0
C2395 C 0.43025 0.75617 0.859 0.0
N2396 N 0.45886 0.68859 0.86985 0.0
N2397 N 0.45548 0.79848 0.85572 0.0
H2398 H 0.38777 0.75837 0.86071 0.0
H2399 H 0.40359 0.78863 0.85185 0.0
H2400 H 0.47295 0.80996 0.8527 0.0
H2401 H 0.44014 0.80954 0.86333 0.0
H2402 H 0.47724 0.67879 0.87027 0.0
H2403 H 0.44388 0.67799 0.87955 0.0
H2404 H 0.49541 0.69268 0.83535 0.0
H2405 H 0.51092 0.72239 0.82502 0.0
C2406 C 0.41453 0.44496 0.83569 0.0
C2407 C 0.40286 0.44214 0.86087 0.0
C2408 C 0.37599 0.48204 0.84827 0.0
C2409 C 0.38136 0.47808 0.82062 0.0
N2410 N 0.40482 0.45279 0.78826 0.0
N2411 N 0.38904 0.47164 0.89537 0.0
C2412 C 0.40038 0.45869 0.81441 0.0
C2413 C 0.38772 0.46443 0.86872 0.0
N2414 N 0.441 0.43922 0.83352 0.0
N2415 N 0.36063 0.50306 0.85512 0.0
H2416 H 0.4026 0.46266 0.90957 0.0
H2417 H 0.38008 0.4886 0.90275 0.0
H2418 H 0.35549 0.51867 0.84178 0.0
H2419 H 0.35278 0.50488 0.87395 0.0
H2420 H 0.45081 0.44315 0.81593 0.0
H2421 H 0.45361 0.43403 0.85048 0.0
H2422 H 0.41787 0.43762 0.78342 0.0
H2423 H 0.39348 0.4609 0.77178 0.0
C2424 C 0.71584 0.59898 0.16847 0.0
C2425 C 0.71082 0.62146 0.18494 0.0
C2426 C 0.73589 0.60025 0.22334 0.0
C2427 C 0.74563 0.58101 0.20545 0.0
N2428 N 0.74401 0.56056 0.16149 0.0
N2429 N 0.71795 0.64477 0.22779 0.0
C2430 C 0.73509 0.57981 0.17815 0.0
C2431 C 0.72093 0.62226 0.21246 0.0
N2432 N 0.70215 0.59619 0.14362 0.0
N2433 N 0.74066 0.59751 0.25067 0.0
H2434 H 0.70712 0.66142 0.22077 0.0
H2435 H 0.72799 0.64778 0.24681 0.0
H2436 H 0.75114 0.58155 0.25962 0.0
H2437 H 0.73177 0.60954 0.26459 0.0
H2438 H 0.70328 0.57931 0.13131 0.0
H2439 H 0.6877 0.60989 0.13636 0.0
H2440 H 0.73956 0.5602 0.14062 0.0
H2441 H 0.75691 0.54541 0.16864 0.0
C2442 C 0.74923 0.4703 0.85903 0.0
C2443 C 0.75331 0.44513 0.84639 0.0
C2444 C 0.78937 0.46607 0.82111 0.0
C2445 C 0.78442 0.49136 0.83283 0.0
N2446 N 0.75845 0.51885 0.86041 0.0
N2447 N 0.77531 0.41907 0.81374 0.0
C2448 C 0.76401 0.49379 0.85116 0.0
C2449 C 0.77286 0.44303 0.82691 0.0
N2450 N 0.73151 0.47159 0.87887 0.0
N2451 N 0.81027 0.46423 0.80474 0.0
H2452 H 0.76427 0.4016 0.81816 0.0
H2453 H 0.78707 0.41665 0.79741 0.0
H2454 H 0.82212 0.48096 0.79971 0.0
H2455 H 0.81692 0.44619 0.79721 0.0
H2456 H 0.72958 0.48846 0.89098 0.0
H2457 H 0.71949 0.45513 0.8843 0.0
H2458 H 0.74206 0.52291 0.87159 0.0
H2459 H 0.7696 0.53612 0.85554 0.0
C2460 C 0.6515 0.73857 0.81007 0.0
C2461 C 0.65288 0.72302 0.83424 0.0
C2462 C 0.60336 0.71792 0.83124 0.0
C2463 C 0.60217 0.73186 0.80619 0.0
N2464 N 0.62443 0.75245 0.76974 0.0
N2465 N 0.63086 0.69451 0.86595 0.0
C2466 C 0.62613 0.74128 0.79503 0.0
C2467 C 0.62899 0.7117 0.8443 0.0
N2468 N 0.67433 0.75137 0.80198 0.0
N2469 N 0.57994 0.71171 0.84304 0.0
H2470 H 0.64923 0.68994 0.87636 0.0
H2471 H 0.61448 0.6833 0.87243 0.0
H2472 H 0.56093 0.7159 0.83384 0.0
H2473 H 0.57934 0.70426 0.86266 0.0
H2474 H 0.6743 0.76518 0.78612 0.0
H2475 H 0.69325 0.7498 0.81248 0.0
H2476 H 0.64115 0.75761 0.75909 0.0
H2477 H 0.60599 0.75455 0.75844 0.0
C2478 C 0.3495 0.65864 0.81773 0.0
C2479 C 0.3604 0.65423 0.84454 0.0
C2480 C 0.34725 0.60608 0.84032 0.0
C2481 C 0.33973 0.60992 0.8124 0.0
N2482 N 0.3393 0.63948 0.7733 0.0
N2483 N 0.37491 0.62266 0.87945 0.0
C2484 C 0.34241 0.6361 0.80074 0.0
C2485 C 0.36052 0.62766 0.85545 0.0
N2486 N 0.34536 0.68435 0.8086 0.0
N2487 N 0.34257 0.58168 0.85224 0.0
H2488 H 0.38644 0.63756 0.89015 0.0
H2489 H 0.37795 0.60334 0.8872 0.0
H2490 H 0.33398 0.56504 0.84166 0.0
H2491 H 0.34514 0.57861 0.87308 0.0
H2492 H 0.33482 0.6886 0.79016 0.0
H2493 H 0.35008 0.70139 0.82054 0.0
H2494 H 0.34406 0.65755 0.76373 0.0
H2495 H 0.33414 0.62377 0.75981 0.0
C2496 C 0.44396 0.33277 0.85827 0.0
C2497 C 0.44896 0.35408 0.87721 0.0
C2498 C 0.49729 0.34435 0.88163 0.0
C2499 C 0.49226 0.32303 0.86295 0.0
N2500 N 0.46178 0.29427 0.83555 0.0
N2501 N 0.47924 0.37874 0.9094 0.0
C2502 C 0.46575 0.31637 0.85199 0.0
C2503 C 0.4753 0.35932 0.88979 0.0
N2504 N 0.41857 0.32882 0.84591 0.0
N2505 N 0.52341 0.35111 0.89027 0.0
H2506 H 0.46414 0.3916 0.91454 0.0
H2507 H 0.4971 0.38139 0.92161 0.0
H2508 H 0.5398 0.33999 0.88497 0.0
H2509 H 0.52915 0.36837 0.90141 0.0
H2510 H 0.41384 0.31534 0.8301 0.0
H2511 H 0.4021 0.34006 0.85076 0.0
H2512 H 0.44292 0.28691 0.82789 0.0
H2513 H 0.47763 0.28212 0.83079 0.0
C2514 C 0.36224 0.43063 0.2024 0.0
C2515 C 0.35059 0.40532 0.20952 0.0
C2516 C 0.31693 0.42883 0.23452 0.0
C2517 C 0.33008 0.45397 0.22943 0.0
N2518 N 0.36638 0.47902 0.2103 0.0
N2519 N 0.31871 0.37979 0.23441 0.0
C2520 C 0.35304 0.45488 0.2138 0.0
C2521 C 0.32835 0.40431 0.22608 0.0
N2522 N 0.38157 0.43151 0.18406 0.0
N2523 N 0.29349 0.42844 0.24744 0.0
H2524 H 0.32654 0.36153 0.22855 0.0
H2525 H 0.30449 0.37738 0.24873 0.0
H2526 H 0.28491 0.44588 0.25433 0.0
H2527 H 0.28134 0.41123 0.24958 0.0
H2528 H 0.38867 0.44929 0.17551 0.0
H2529 H 0.38941 0.41422 0.17596 0.0
H2530 H 0.38516 0.48081 0.20227 0.0
H2531 H 0.35915 0.49738 0.21664 0.0
C2532 C 0.64584 0.33301 0.2447 0.0
C2533 C 0.64234 0.3448 0.21859 0.0
C2534 C 0.59329 0.34584 0.22267 0.0
C2535 C 0.59721 0.33629 0.24962 0.0
N2536 N 0.62724 0.3247 0.28792 0.0
N2537 N 0.61341 0.36535 0.18356 0.0
C2538 C 0.62354 0.33106 0.26111 0.0
C2539 C 0.61619 0.35191 0.20769 0.0
N2540 N 0.67043 0.32308 0.25348 0.0
N2541 N 0.56756 0.34892 0.21149 0.0
H2542 H 0.62965 0.36961 0.17184 0.0
H2543 H 0.5954 0.3737 0.17587 0.0
H2544 H 0.55061 0.34607 0.2226 0.0
H2545 H 0.5629 0.35292 0.19106 0.0
H2546 H 0.67368 0.31183 0.27114 0.0
H2547 H 0.68712 0.32392 0.24181 0.0
H2548 H 0.64618 0.32329 0.29831 0.0
H2549 H 0.61131 0.32314 0.30045 0.0
C2550 C 0.47222 0.71666 0.22993 0.0
C2551 C 0.44629 0.72019 0.23949 0.0
C2552 C 0.4671 0.72559 0.28595 0.0
C2553 C 0.49277 0.71976 0.27658 0.0
N2554 N 0.51792 0.70226 0.24103 0.0
N2555 N 0.41829 0.72605 0.27667 0.0
C2556 C 0.49495 0.71362 0.24887 0.0
C2557 C 0.44357 0.7243 0.26755 0.0
N2558 N 0.47508 0.71551 0.20273 0.0
N2559 N 0.46521 0.73225 0.31253 0.0
H2560 H 0.40083 0.72712 0.26364 0.0
H2561 H 0.41433 0.72556 0.29701 0.0
H2562 H 0.48172 0.73225 0.32685 0.0
H2563 H 0.4479 0.73982 0.32009 0.0
H2564 H 0.49385 0.71559 0.19454 0.0
H2565 H 0.4588 0.71681 0.18827 0.0
H2566 H 0.51949 0.69411 0.22184 0.0
H2567 H 0.53472 0.69896 0.25441 0.0
loop_
_geom_bond_atom_site_label_1
_geom_bond_atom_site_label_2
_geom_bond_distance
_geom_bond_site_symmetry_2
_ccdc_geom_bond_type
H0 C3 0.931 . S
H1 C6 0.928 . S
H2 C8 0.930 . S
C3 H0 0.931 . S
C3 C4 1.413 . S
C3 C5 1.360 . S
C4 C3 1.413 . S
C4 C8 1.429 . S
C5 C3 1.360 . S
C5 C6 1.372 . S
C6 H1 0.928 . S
C6 C5 1.372 . S
C6 C7 1.404 . S
C7 C6 1.404 . S
C7 C8 1.391 . S
C8 H2 0.930 . S
C8 C4 1.429 . S
C8 C7 1.391 . S
H9 C12 0.931 . S
H10 C15 0.928 . S
H11 C17 0.930 . S
C12 H9 0.931 . S
C12 C13 1.413 . S
C12 C14 1.360 . S
C13 C12 1.413 . S
C13 C17 1.429 . S
C14 C12 1.360 . S
C14 C15 1.372 . S
C15 H10 0.928 . S
C15 C14 1.372 . S
C15 C16 1.404 . S
C16 C15 1.404 . S
C16 C17 1.391 . S
C17 H11 0.930 . S
C17 C13 1.429 . S
C17 C16 1.391 . S
H18 C21 0.931 . S
H19 C24 0.928 . S
H20 C26 0.930 . S
C21 H18 0.931 . S
C21 C22 1.413 . S
C21 C23 1.360 . S
C22 C21 1.413 . S
C22 C26 1.429 . S
C23 C21 1.360 . S
C23 C24 1.372 . S
C24 H19 0.928 . S
C24 C23 1.372 . S
C24 C25 1.404 . S
C25 C24 1.404 . S
C25 C26 1.391 . S
C26 H20 0.930 . S
C26 C22 1.429 . S
C26 C25 1.391 . S
H27 C30 0.931 . S
H28 C33 0.928 . S
H29 C35 0.930 . S
C30 H27 0.931 . S
C30 C31 1.413 . S
C30 C32 1.360 . S
C31 C30 1.413 . S
C31 C35 1.429 . S
C32 C30 1.360 . S
C32 C33 1.372 . S
C33 H28 0.928 . S
C33 C32 1.372 . S
C33 C34 1.404 . S
C34 C33 1.404 . S
C34 C35 1.391 . S
C35 H29 0.930 . S
C35 C31 1.429 . S
C35 C34 1.391 . S
H36 C39 0.931 . S
H37 C42 0.928 . S
H38 C44 0.930 . S
C39 H36 0.931 . S
C39 C40 1.413 . S
C39 C41 1.360 . S
C40 C39 1.413 . S
C40 C44 1.429 . S
C41 C39 1.360 . S
C41 C42 1.372 . S
C42 H37 0.928 . S
C42 C41 1.372 . S
C42 C43 1.404 . S
C43 C42 1.404 . S
C43 C44 1.391 . S
C44 H38 0.930 . S
C44 C40 1.429 . S
C44 C43 1.391 . S
H45 C48 0.931 . S
H46 C51 0.928 . S
H47 C53 0.930 . S
C48 H45 0.931 . S
C48 C49 1.413 . S
C48 C50 1.360 . S
C49 C48 1.413 . S
C49 C53 1.429 . S
C50 C48 1.360 . S
C50 C51 1.372 . S
C51 H46 0.928 . S
C51 C50 1.372 . S
C51 C52 1.404 . S
C52 C51 1.404 . S
C52 C53 1.391 . S
C53 H47 0.930 . S
C53 C49 1.429 . S
C53 C52 1.391 . S
H54 C57 0.931 . S
H55 C60 0.928 . S
H56 C62 0.930 . S
C57 H54 0.931 . S
C57 C58 1.413 . S
C57 C59 1.360 . S
C58 C57 1.413 . S
C58 C62 1.429 . S
C59 C57 1.360 . S
C59 C60 1.372 . S
C60 H55 0.928 . S
C60 C59 1.372 . S
C60 C61 1.404 . S
C61 C60 1.404 . S
C61 C62 1.391 . S
C62 H56 0.930 . S
C62 C58 1.429 . S
C62 C61 1.391 . S
H63 C66 0.931 . S
H64 C69 0.928 . S
H65 C71 0.930 . S
C66 H63 0.931 . S
C66 C67 1.413 . S
C66 C68 1.360 . S
C67 C66 1.413 . S
C67 C71 1.429 . S
C68 C66 1.360 . S
C68 C69 1.372 . S
C69 H64 0.928 . S
C69 C68 1.372 . S
C69 C70 1.404 . S
C70 C69 1.404 . S
C70 C71 1.391 . S
C71 H65 0.930 . S
C71 C67 1.429 . S
C71 C70 1.391 . S
H72 C75 0.931 . S
H73 C78 0.928 . S
H74 C80 0.930 . S
C75 H72 0.931 . S
C75 C76 1.413 . S
C75 C77 1.360 . S
C76 C75 1.413 . S
C76 C80 1.429 . S
C77 C75 1.360 . S
C77 C78 1.372 . S
C78 H73 0.928 . S
C78 C77 1.372 . S
C78 C79 1.404 . S
C79 C78 1.404 . S
C79 C80 1.391 . S
C80 H74 0.930 . S
C80 C76 1.429 . S
C80 C79 1.391 . S
H81 C84 0.931 . S
H82 C87 0.928 . S
H83 C89 0.930 . S
C84 H81 0.931 . S
C84 C85 1.413 . S
C84 C86 1.360 . S
C85 C84 1.413 . S
C85 C89 1.429 . S
C86 C84 1.360 . S
C86 C87 1.372 . S
C87 H82 0.928 . S
C87 C86 1.372 . S
C87 C88 1.404 . S
C88 C87 1.404 . S
C88 C89 1.391 . S
C89 H83 0.930 . S
C89 C85 1.429 . S
C89 C88 1.391 . S
H90 C93 0.931 . S
H91 C96 0.928 . S
H92 C98 0.930 . S
C93 H90 0.931 . S
C93 C94 1.413 . S
C93 C95 1.360 . S
C94 C93 1.413 . S
C94 C98 1.429 . S
C95 C93 1.360 . S
C95 C96 1.372 . S
C96 H91 0.928 . S
C96 C95 1.372 . S
C96 C97 1.404 . S
C97 C96 1.404 . S
C97 C98 1.391 . S
C98 H92 0.930 . S
C98 C94 1.429 . S
C98 C97 1.391 . S
H99 C102 0.931 . S
H100 C105 0.928 . S
H101 C107 0.930 . S
C102 H99 0.931 . S
C102 C103 1.413 . S
C102 C104 1.360 . S
C103 C102 1.413 . S
C103 C107 1.429 . S
C104 C102 1.360 . S
C104 C105 1.372 . S
C105 H100 0.928 . S
C105 C104 1.372 . S
C105 C106 1.404 . S
C106 C105 1.404 . S
C106 C107 1.391 . S
C107 H101 0.930 . S
C107 C103 1.429 . S
C107 C106 1.391 . S
H108 C111 0.931 . S
H109 C114 0.928 . S
H110 C116 0.930 . S
C111 H108 0.931 . S
C111 C112 1.413 . S
C111 C113 1.360 . S
C112 C111 1.413 . S
C112 C116 1.429 . S
C113 C111 1.360 . S
C113 C114 1.372 . S
C114 H109 0.928 . S
C114 C113 1.372 . S
C114 C115 1.404 . S
C115 C114 1.404 . S
C115 C116 1.391 . S
C116 H110 0.930 . S
C116 C112 1.429 . S
C116 C115 1.391 . S
H117 C120 0.931 . S
H118 C123 0.928 . S
H119 C125 0.930 . S
C120 H117 0.931 . S
C120 C121 1.413 . S
C120 C122 1.360 . S
C121 C120 1.413 . S
C121 C125 1.429 . S
C122 C120 1.360 . S
C122 C123 1.372 . S
C123 H118 0.928 . S
C123 C122 1.372 . S
C123 C124 1.404 . S
C124 C123 1.404 . S
C124 C125 1.391 . S
C125 H119 0.930 . S
C125 C121 1.429 . S
C125 C124 1.391 . S
H126 C129 0.931 . S
H127 C132 0.928 . S
H128 C134 0.930 . S
C129 H126 0.931 . S
C129 C130 1.413 . S
C129 C131 1.360 . S
C130 C129 1.413 . S
C130 C134 1.429 . S
C131 C129 1.360 . S
C131 C132 1.372 . S
C132 H127 0.928 . S
C132 C131 1.372 . S
C132 C133 1.404 . S
C133 C132 1.404 . S
C133 C134 1.391 . S
C134 H128 0.930 . S
C134 C130 1.429 . S
C134 C133 1.391 . S
H135 C138 0.931 . S
H136 C141 0.928 . S
H137 C143 0.930 . S
C138 H135 0.931 . S
C138 C139 1.413 . S
C138 C140 1.360 . S
C139 C138 1.413 . S
C139 C143 1.429 . S
C140 C138 1.360 . S
C140 C141 1.372 . S
C141 H136 0.928 . S
C141 C140 1.372 . S
C141 C142 1.404 . S
C142 C141 1.404 . S
C142 C143 1.391 . S
C143 H137 0.930 . S
C143 C139 1.429 . S
C143 C142 1.391 . S
H144 C147 0.931 . S
H145 C150 0.928 . S
H146 C152 0.930 . S
C147 H144 0.931 . S
C147 C148 1.413 . S
C147 C149 1.360 . S
C148 C147 1.413 . S
C148 C152 1.429 . S
C149 C147 1.360 . S
C149 C150 1.372 . S
C150 H145 0.928 . S
C150 C149 1.372 . S
C150 C151 1.404 . S
C151 C150 1.404 . S
C151 C152 1.391 . S
C152 H146 0.930 . S
C152 C148 1.429 . S
C152 C151 1.391 . S
H153 C156 0.931 . S
H154 C159 0.928 . S
H155 C161 0.930 . S
C156 H153 0.931 . S
C156 C157 1.413 . S
C156 C158 1.360 . S
C157 C156 1.413 . S
C157 C161 1.429 . S
C158 C156 1.360 . S
C158 C159 1.372 . S
C159 H154 0.928 . S
C159 C158 1.372 . S
C159 C160 1.404 . S
C160 C159 1.404 . S
C160 C161 1.391 . S
C161 H155 0.930 . S
C161 C157 1.429 . S
C161 C160 1.391 . S
H162 C165 0.931 . S
H163 C168 0.928 . S
H164 C170 0.930 . S
C165 H162 0.931 . S
C165 C166 1.413 . S
C165 C167 1.360 . S
C166 C165 1.413 . S
C166 C170 1.429 . S
C167 C165 1.360 . S
C167 C168 1.372 . S
C168 H163 0.928 . S
C168 C167 1.372 . S
C168 C169 1.404 . S
C169 C168 1.404 . S
C169 C170 1.391 . S
C170 H164 0.930 . S
C170 C166 1.429 . S
C170 C169 1.391 . S
H171 C174 0.931 . S
H172 C177 0.928 . S
H173 C179 0.930 . S
C174 H171 0.931 . S
C174 C175 1.413 . S
C174 C176 1.360 . S
C175 C174 1.413 . S
C175 C179 1.429 . S
C176 C174 1.360 . S
C176 C177 1.372 . S
C177 H172 0.928 . S
C177 C176 1.372 . S
C177 C178 1.404 . S
C178 C177 1.404 . S
C178 C179 1.391 . S
C179 H173 0.930 . S
C179 C175 1.429 . S
C179 C178 1.391 . S
H180 C183 0.931 . S
H181 C186 0.928 . S
H182 C188 0.930 . S
C183 H180 0.931 . S
C183 C184 1.413 . S
C183 C185 1.360 . S
C184 C183 1.413 . S
C184 C188 1.429 . S
C185 C183 1.360 . S
C185 C186 1.372 . S
C186 H181 0.928 . S
C186 C185 1.372 . S
C186 C187 1.404 . S
C187 C186 1.404 . S
C187 C188 1.391 . S
C188 H182 0.930 . S
C188 C184 1.429 . S
C188 C187 1.391 . S
H189 C192 0.931 . S
H190 C195 0.928 . S
H191 C197 0.930 . S
C192 H189 0.931 . S
C192 C193 1.413 . S
C192 C194 1.360 . S
C193 C192 1.413 . S
C193 C197 1.429 . S
C194 C192 1.360 . S
C194 C195 1.372 . S
C195 H190 0.928 . S
C195 C194 1.372 . S
C195 C196 1.404 . S
C196 C195 1.404 . S
C196 C197 1.391 . S
C197 H191 0.930 . S
C197 C193 1.429 . S
C197 C196 1.391 . S
H198 C201 0.931 . S
H199 C204 0.928 . S
H200 C206 0.930 . S
C201 H198 0.931 . S
C201 C202 1.413 . S
C201 C203 1.360 . S
C202 C201 1.413 . S
C202 C206 1.429 . S
C203 C201 1.360 . S
C203 C204 1.372 . S
C204 H199 0.928 . S
C204 C203 1.372 . S
C204 C205 1.404 . S
C205 C204 1.404 . S
C205 C206 1.391 . S
C206 H200 0.930 . S
C206 C202 1.429 . S
C206 C205 1.391 . S
H207 C210 0.931 . S
H208 C213 0.928 . S
H209 C215 0.930 . S
C210 H207 0.931 . S
C210 C211 1.413 . S
C210 C212 1.360 . S
C211 C210 1.413 . S
C211 C215 1.429 . S
C212 C210 1.360 . S
C212 C213 1.372 . S
C213 H208 0.928 . S
C213 C212 1.372 . S
C213 C214 1.404 . S
C214 C213 1.404 . S
C214 C215 1.391 . S
C215 H209 0.930 . S
C215 C211 1.429 . S
C215 C214 1.391 . S
H216 C219 0.931 . S
H217 C222 0.928 . S
H218 C224 0.930 . S
C219 H216 0.931 . S
C219 C220 1.413 . S
C219 C221 1.360 . S
C220 C219 1.413 . S
C220 C224 1.429 . S
C221 C219 1.360 . S
C221 C222 1.372 . S
C222 H217 0.928 . S
C222 C221 1.372 . S
C222 C223 1.404 . S
C223 C222 1.404 . S
C223 C224 1.391 . S
C224 H218 0.930 . S
C224 C220 1.429 . S
C224 C223 1.391 . S
H225 C228 0.931 . S
H226 C231 0.928 . S
H227 C233 0.930 . S
C228 H225 0.931 . S
C228 C229 1.413 . S
C228 C230 1.360 . S
C229 C228 1.413 . S
C229 C233 1.429 . S
C230 C228 1.360 . S
C230 C231 1.372 . S
C231 H226 0.928 . S
C231 C230 1.372 . S
C231 C232 1.404 . S
C232 C231 1.404 . S
C232 C233 1.391 . S
C233 H227 0.930 . S
C233 C229 1.429 . S
C233 C232 1.391 . S
H234 C237 0.931 . S
H235 C240 0.928 . S
H236 C242 0.930 . S
C237 H234 0.931 . S
C237 C238 1.413 . S
C237 C239 1.360 . S
C238 C237 1.413 . S
C238 C242 1.429 . S
C239 C237 1.360 . S
C239 C240 1.372 . S
C240 H235 0.928 . S
C240 C239 1.372 . S
C240 C241 1.404 . S
C241 C240 1.404 . S
C241 C242 1.391 . S
C242 H236 0.930 . S
C242 C238 1.429 . S
C242 C241 1.391 . S
H243 C246 0.931 . S
H244 C249 0.928 . S
H245 C251 0.930 . S
C246 H243 0.931 . S
C246 C247 1.413 . S
C246 C248 1.360 . S
C247 C246 1.413 . S
C247 C251 1.429 . S
C248 C246 1.360 . S
C248 C249 1.372 . S
C249 H244 0.928 . S
C249 C248 1.372 . S
C249 C250 1.404 . S
C250 C249 1.404 . S
C250 C251 1.391 . S
C251 H245 0.930 . S
C251 C247 1.429 . S
C251 C250 1.391 . S
H252 C255 0.931 . S
H253 C258 0.928 . S
H254 C260 0.930 . S
C255 H252 0.931 . S
C255 C256 1.413 . S
C255 C257 1.360 . S
C256 C255 1.413 . S
C256 C260 1.429 . S
C257 C255 1.360 . S
C257 C258 1.372 . S
C258 H253 0.928 . S
C258 C257 1.372 . S
C258 C259 1.404 . S
C259 C258 1.404 . S
C259 C260 1.391 . S
C260 H254 0.930 . S
C260 C256 1.429 . S
C260 C259 1.391 . S
H261 C264 0.931 . S
H262 C267 0.928 . S
H263 C269 0.930 . S
C264 H261 0.931 . S
C264 C265 1.413 . S
C264 C266 1.360 . S
C265 C264 1.413 . S
C265 C269 1.429 . S
C266 C264 1.360 . S
C266 C267 1.372 . S
C267 H262 0.928 . S
C267 C266 1.372 . S
C267 C268 1.404 . S
C268 C267 1.404 . S
C268 C269 1.391 . S
C269 H263 0.930 . S
C269 C265 1.429 . S
C269 C268 1.391 . S
H270 C273 0.931 . S
H271 C276 0.928 . S
H272 C278 0.930 . S
C273 H270 0.931 . S
C273 C274 1.413 . S
C273 C275 1.360 . S
C274 C273 1.413 . S
C274 C278 1.429 . S
C275 C273 1.360 . S
C275 C276 1.372 . S
C276 H271 0.928 . S
C276 C275 1.372 . S
C276 C277 1.404 . S
C277 C276 1.404 . S
C277 C278 1.391 . S
C278 H272 0.930 . S
C278 C274 1.429 . S
C278 C277 1.391 . S
H279 C282 0.931 . S
H280 C285 0.928 . S
H281 C287 0.930 . S
C282 H279 0.931 . S
C282 C283 1.413 . S
C282 C284 1.360 . S
C283 C282 1.413 . S
C283 C287 1.429 . S
C284 C282 1.360 . S
C284 C285 1.372 . S
C285 H280 0.928 . S
C285 C284 1.372 . S
C285 C286 1.404 . S
C286 C285 1.404 . S
C286 C287 1.391 . S
C287 H281 0.930 . S
C287 C283 1.429 . S
C287 C286 1.391 . S
Cu288 N289 1.999 . S
Cu288 O294 1.974 1_554 S
Cu288 N299 1.985 . S
Cu288 O308 1.959 . S
N289 Cu288 1.999 . S
N289 C291 1.263 1_554 S
N289 C293 1.389 . S
N290 C291 1.358 . S
N290 C292 1.400 . S
C291 N289 1.263 1_556 S
C291 N290 1.358 . S
C291 H297 0.930 . S
C292 N290 1.400 . S
C292 C293 1.351 1_556 S
C292 H309 0.930 . S
C293 N289 1.389 . S
C293 C292 1.351 1_554 S
C293 H298 0.930 . S
O294 Cu288 1.974 1_556 S
O294 C304 1.282 . S
C295 O296 1.261 . S
C295 O308 1.251 . S
O296 C295 1.261 . S
H297 C291 0.930 . S
H298 C293 0.930 . S
N299 Cu288 1.985 . S
N299 C301 1.335 . S
N299 C302 1.390 . S
N300 C301 1.345 . S
N300 C303 1.336 . S
C301 N299 1.335 . S
C301 N300 1.345 . S
C301 H306 0.930 . S
C302 N299 1.390 . S
C302 C303 1.346 . S
C302 H307 0.930 . S
C303 N300 1.336 . S
C303 C302 1.346 . S
C303 H310 0.929 . S
C304 O294 1.282 . S
C304 O305 1.216 . S
O305 C304 1.216 . S
H306 C301 0.930 . S
H307 C302 0.930 . S
O308 Cu288 1.959 . S
O308 C295 1.251 . S
H309 C292 0.930 . S
H310 C303 0.929 . S
Cu311 N312 1.999 . S
Cu311 O317 1.974 . S
Cu311 N322 1.985 1_554 S
Cu311 O331 1.959 1_554 S
N312 Cu311 1.999 . S
N312 C314 1.263 . S
N312 C316 1.389 . S
N313 C314 1.358 . S
N313 C315 1.400 . S
C314 N312 1.263 . S
C314 N313 1.358 . S
C314 H320 0.930 . S
C315 N313 1.400 . S
C315 C316 1.351 . S
C315 H332 0.930 . S
C316 N312 1.389 . S
C316 C315 1.351 . S
C316 H321 0.930 . S
O317 Cu311 1.974 . S
O317 C327 1.282 . S
C318 O319 1.261 . S
C318 O331 1.251 . S
O319 C318 1.261 . S
H320 C314 0.930 . S
H321 C316 0.930 . S
N322 Cu311 1.985 1_556 S
N322 C324 1.335 . S
N322 C325 1.390 . S
N323 C324 1.345 . S
N323 C326 1.336 . S
C324 N322 1.335 . S
C324 N323 1.345 . S
C324 H329 0.930 . S
C325 N322 1.390 . S
C325 C326 1.346 . S
C325 H330 0.930 1_556 S
C326 N323 1.336 . S
C326 C325 1.346 . S
C326 H333 0.929 . S
C327 O317 1.282 . S
C327 O328 1.216 . S
O328 C327 1.216 . S
H329 C324 0.930 . S
H330 C325 0.930 1_554 S
O331 Cu311 1.959 1_556 S
O331 C318 1.251 . S
H332 C315 0.930 . S
H333 C326 0.929 . S
Cu334 N335 1.999 1_554 S
Cu334 O340 1.974 1_554 S
Cu334 N345 1.985 . S
Cu334 O354 1.959 . S
N335 Cu334 1.999 1_556 S
N335 C337 1.263 . S
N335 C339 1.389 . S
N336 C337 1.358 . S
N336 C338 1.400 . S
C337 N335 1.263 . S
C337 N336 1.358 . S
C337 H343 0.930 . S
C338 N336 1.400 . S
C338 C339 1.351 . S
C338 H355 0.930 . S
C339 N335 1.389 . S
C339 C338 1.351 . S
C339 H344 0.930 1_556 S
O340 Cu334 1.974 1_556 S
O340 C350 1.282 . S
C341 O342 1.261 . S
C341 O354 1.251 . S
O342 C341 1.261 . S
H343 C337 0.930 . S
H344 C339 0.930 1_554 S
N345 Cu334 1.985 . S
N345 C347 1.335 . S
N345 C348 1.390 . S
N346 C347 1.345 . S
N346 C349 1.336 . S
C347 N345 1.335 . S
C347 N346 1.345 . S
C347 H352 0.930 . S
C348 N345 1.390 . S
C348 C349 1.346 . S
C348 H353 0.908 1_554 S
C349 N346 1.336 . S
C349 C348 1.346 . S
C349 H356 0.929 . S
C350 O340 1.282 . S
C350 O351 1.216 . S
O351 C350 1.216 . S
H352 C347 0.930 . S
H353 C348 0.908 1_556 S
O354 Cu334 1.959 . S
O354 C341 1.251 . S
H355 C338 0.930 . S
H356 C349 0.929 . S
Cu357 N358 2.004 . S
Cu357 O363 1.979 . S
Cu357 N368 1.980 1_554 S
Cu357 O377 1.954 1_554 S
N358 Cu357 2.004 . S
N358 C360 1.263 . S
N358 C362 1.389 . S
N359 C360 1.358 . S
N359 C361 1.400 . S
C360 N358 1.263 . S
C360 N359 1.358 . S
C360 H366 0.930 . S
C361 N359 1.400 . S
C361 C362 1.351 . S
C361 H378 0.930 . S
C362 N358 1.389 . S
C362 C361 1.351 . S
C362 H367 0.930 . S
O363 Cu357 1.979 . S
O363 C373 1.282 . S
C364 O365 1.261 . S
C364 O377 1.251 . S
O365 C364 1.261 . S
H366 C360 0.930 . S
H367 C362 0.930 . S
N368 Cu357 1.980 1_556 S
N368 C370 1.335 . S
N368 C371 1.390 . S
N369 C370 1.345 . S
N369 C372 1.336 . S
C370 N368 1.335 . S
C370 N369 1.345 . S
C370 H375 0.930 . S
C371 N368 1.390 . S
C371 C372 1.346 . S
C371 H376 0.930 1_556 S
C372 N369 1.336 . S
C372 C371 1.346 . S
C372 H379 0.929 . S
C373 O363 1.282 . S
C373 O374 1.216 . S
O374 C373 1.216 . S
H375 C370 0.930 . S
H376 C371 0.930 1_554 S
O377 Cu357 1.954 1_556 S
O377 C364 1.251 . S
H378 C361 0.930 . S
H379 C372 0.929 . S
Cu380 N381 1.999 . S
Cu380 O386 1.974 . S
Cu380 N391 1.985 1_455 S
Cu380 O400 1.959 1_455 S
N381 Cu380 1.999 . S
N381 C383 1.263 . S
N381 C385 1.389 . S
N382 C383 1.358 . S
N382 C384 1.400 . S
C383 N381 1.263 . S
C383 N382 1.358 . S
C383 H389 0.930 . S
C384 N382 1.400 . S
C384 C385 1.351 . S
C384 H401 0.930 . S
C385 N381 1.389 . S
C385 C384 1.351 . S
C385 H390 0.930 . S
O386 Cu380 1.974 . S
O386 C396 1.282 . S
C387 O388 1.261 . S
C387 O400 1.251 . S
O388 C387 1.261 . S
H389 C383 0.930 . S
H390 C385 0.930 . S
N391 Cu380 1.985 1_655 S
N391 C393 1.335 . S
N391 C394 1.390 1_655 S
N392 C393 1.345 . S
N392 C395 1.336 . S
C393 N391 1.335 . S
C393 N392 1.345 . S
C393 H398 0.930 . S
C394 N391 1.390 1_455 S
C394 C395 1.346 1_455 S
C394 H399 0.930 . S
C395 N392 1.336 . S
C395 C394 1.346 1_655 S
C395 H402 0.929 . S
C396 O386 1.282 . S
C396 O397 1.216 . S
O397 C396 1.216 . S
H398 C393 0.930 . S
H399 C394 0.930 . S
O400 Cu380 1.959 1_655 S
O400 C387 1.251 . S
H401 C384 0.930 . S
H402 C395 0.929 . S
Cu403 N404 1.999 . S
Cu403 O409 1.974 . S
Cu403 N414 1.985 1_545 S
Cu403 O423 1.959 1_545 S
N404 Cu403 1.999 . S
N404 C406 1.263 . S
N404 C408 1.389 . S
N405 C406 1.358 . S
N405 C407 1.400 . S
C406 N404 1.263 . S
C406 N405 1.358 . S
C406 H412 0.930 . S
C407 N405 1.400 . S
C407 C408 1.351 . S
C407 H424 0.930 . S
C408 N404 1.389 . S
C408 C407 1.351 . S
C408 H413 0.930 . S
O409 Cu403 1.974 . S
O409 C419 1.282 . S
C410 O411 1.261 . S
C410 O423 1.251 . S
O411 C410 1.261 . S
H412 C406 0.930 . S
H413 C408 0.930 . S
N414 Cu403 1.985 1_565 S
N414 C416 1.335 . S
N414 C417 1.390 . S
N415 C416 1.345 . S
N415 C418 1.336 . S
C416 N414 1.335 . S
C416 N415 1.345 . S
C416 H421 0.930 . S
C417 N414 1.390 . S
C417 C418 1.346 . S
C417 H422 0.930 1_565 S
C418 N415 1.336 . S
C418 C417 1.346 . S
C418 H425 0.929 . S
C419 O409 1.282 . S
C419 O420 1.216 . S
O420 C419 1.216 . S
H421 C416 0.930 . S
H422 C417 0.930 1_545 S
O423 Cu403 1.959 1_565 S
O423 C410 1.251 . S
H424 C407 0.930 . S
H425 C418 0.929 . S
Cu426 N427 2.016 . S
Cu426 O432 1.994 . S
Cu426 N437 1.969 1_655 S
Cu426 O446 1.940 1_655 S
N427 Cu426 2.016 . S
N427 C429 1.263 . S
N427 C431 1.389 . S
N428 C429 1.358 . S
N428 C430 1.400 . S
C429 N427 1.263 . S
C429 N428 1.358 . S
C429 H435 0.930 . S
C430 N428 1.400 . S
C430 C431 1.351 . S
C430 H447 0.930 . S
C431 N427 1.389 . S
C431 C430 1.351 . S
C431 H436 0.930 . S
O432 Cu426 1.994 . S
O432 C442 1.282 . S
C433 O434 1.261 . S
C433 O446 1.251 . S
O434 C433 1.261 . S
H435 C429 0.930 . S
H436 C431 0.930 . S
N437 Cu426 1.969 1_455 S
N437 C439 1.335 . S
N437 C440 1.390 . S
N438 C439 1.345 . S
N438 C441 1.336 . S
C439 N437 1.335 . S
C439 N438 1.345 . S
C439 H444 0.930 . S
C440 N437 1.390 . S
C440 C441 1.346 . S
C440 H445 0.930 . S
C441 N438 1.336 . S
C441 C440 1.346 . S
C441 H448 0.929 . S
C442 O432 1.282 . S
C442 O443 1.216 . S
O443 C442 1.216 . S
H444 C439 0.930 . S
H445 C440 0.930 . S
O446 Cu426 1.940 1_455 S
O446 C433 1.251 . S
H447 C430 0.930 . S
H448 C441 0.929 . S
Cu449 N450 1.980 1_565 S
Cu449 O455 1.949 1_565 S
Cu449 N460 2.003 . S
Cu449 O469 1.984 . S
N450 Cu449 1.980 1_545 S
N450 C452 1.263 . S
N450 C454 1.389 . S
N451 C452 1.358 . S
N451 C453 1.400 . S
C452 N450 1.263 . S
C452 N451 1.358 . S
C452 H458 0.930 . S
C453 N451 1.400 . S
C453 C454 1.351 . S
C453 H470 0.930 . S
C454 N450 1.389 . S
C454 C453 1.351 . S
C454 H459 0.930 . S
O455 Cu449 1.949 1_545 S
O455 C465 1.282 . S
C456 O457 1.261 . S
C456 O469 1.251 . S
O457 C456 1.261 . S
H458 C452 0.930 . S
H459 C454 0.930 . S
N460 Cu449 2.003 . S
N460 C462 1.335 . S
N460 C463 1.390 . S
N461 C462 1.345 . S
N461 C464 1.336 . S
C462 N460 1.335 . S
C462 N461 1.345 . S
C462 H467 0.930 . S
C463 N460 1.390 . S
C463 C464 1.346 . S
C463 H468 0.930 . S
C464 N461 1.336 . S
C464 C463 1.346 . S
C464 H471 0.929 . S
C465 O455 1.282 . S
C465 O466 1.216 . S
O466 C465 1.216 . S
H467 C462 0.930 . S
H468 C463 0.930 . S
O469 Cu449 1.984 . S
O469 C456 1.251 . S
H470 C453 0.930 . S
H471 C464 0.929 . S
Cu472 N473 1.999 . S
Cu472 O478 1.974 . S
Cu472 N483 1.985 1_455 S
Cu472 O492 1.959 1_455 S
N473 Cu472 1.999 . S
N473 C475 1.263 . S
N473 C477 1.389 . S
N474 C475 1.358 . S
N474 C476 1.400 . S
C475 N473 1.263 . S
C475 N474 1.358 . S
C475 H481 0.930 . S
C476 N474 1.400 . S
C476 C477 1.351 . S
C476 H493 0.930 . S
C477 N473 1.389 . S
C477 C476 1.351 . S
C477 H482 0.930 . S
O478 Cu472 1.974 . S
O478 C488 1.282 . S
C479 O480 1.261 . S
C479 O492 1.251 . S
O480 C479 1.261 . S
H481 C475 0.930 . S
H482 C477 0.930 . S
N483 Cu472 1.985 1_655 S
N483 C485 1.335 . S
N483 C486 1.388 1_655 S
N484 C485 1.345 . S
N484 C487 1.336 . S
C485 N483 1.335 . S
C485 N484 1.345 . S
C485 H490 0.930 . S
C486 N483 1.388 1_455 S
C486 C487 1.338 1_455 S
C486 H491 0.939 . S
C487 N484 1.336 . S
C487 C486 1.338 1_655 S
C487 H494 0.929 . S
C488 O478 1.282 . S
C488 O489 1.216 . S
O489 C488 1.216 . S
H490 C485 0.930 . S
H491 C486 0.939 . S
O492 Cu472 1.959 1_655 S
O492 C479 1.251 . S
H493 C476 0.930 . S
H494 C487 0.929 . S
Cu495 N496 1.999 . S
Cu495 O501 1.974 . S
Cu495 N506 1.985 1_545 S
Cu495 O515 1.959 1_545 S
N496 Cu495 1.999 . S
N496 C498 1.263 . S
N496 C500 1.389 . S
N497 C498 1.358 . S
N497 C499 1.400 . S
C498 N496 1.263 . S
C498 N497 1.358 . S
C498 H504 0.930 . S
C499 N497 1.400 . S
C499 C500 1.351 . S
C499 H516 0.930 . S
C500 N496 1.389 . S
C500 C499 1.351 . S
C500 H505 0.930 . S
O501 Cu495 1.974 . S
O501 C511 1.282 . S
C502 O503 1.261 . S
C502 O515 1.251 . S
O503 C502 1.261 . S
H504 C498 0.930 . S
H505 C500 0.930 . S
N506 Cu495 1.985 1_565 S
N506 C508 1.335 . S
N506 C509 1.390 1_565 S
N507 C508 1.345 . S
N507 C510 1.336 . S
C508 N506 1.335 . S
C508 N507 1.345 . S
C508 H513 0.930 . S
C509 N506 1.390 1_545 S
C509 C510 1.346 1_545 S
C509 H514 0.930 . S
C510 N507 1.336 . S
C510 C509 1.346 1_565 S
C510 H517 0.929 . S
C511 O501 1.282 . S
C511 O512 1.216 . S
O512 C511 1.216 . S
H513 C508 0.930 . S
H514 C509 0.930 . S
O515 Cu495 1.959 1_565 S
O515 C502 1.251 . S
H516 C499 0.930 . S
H517 C510 0.929 . S
Cu518 N519 1.999 . S
Cu518 O524 1.974 . S
Cu518 N529 1.985 . S
Cu518 O538 1.959 . S
N519 Cu518 1.999 . S
N519 C521 1.263 1_455 S
N519 C523 1.389 . S
N520 C521 1.358 . S
N520 C522 1.400 . S
C521 N519 1.263 1_655 S
C521 N520 1.358 . S
C521 H527 0.930 . S
C522 N520 1.400 . S
C522 C523 1.351 1_655 S
C522 H539 0.930 . S
C523 N519 1.389 . S
C523 C522 1.351 1_455 S
C523 H528 0.930 . S
O524 Cu518 1.974 . S
O524 C534 1.282 1_455 S
C525 O526 1.261 . S
C525 O538 1.251 . S
O526 C525 1.261 . S
H527 C521 0.930 . S
H528 C523 0.930 . S
N529 Cu518 1.985 . S
N529 C531 1.335 . S
N529 C532 1.390 . S
N530 C531 1.345 . S
N530 C533 1.336 . S
C531 N529 1.335 . S
C531 N530 1.345 . S
C531 H536 0.930 . S
C532 N529 1.390 . S
C532 C533 1.346 . S
C532 H537 0.930 . S
C533 N530 1.336 . S
C533 C532 1.346 . S
C533 H540 0.929 . S
C534 O524 1.282 1_655 S
C534 O535 1.216 1_655 S
O535 C534 1.216 1_455 S
H536 C531 0.930 . S
H537 C532 0.930 . S
O538 Cu518 1.959 . S
O538 C525 1.251 . S
H539 C522 0.930 . S
H540 C533 0.929 . S
Cu541 N542 1.999 . S
Cu541 O547 1.974 . S
Cu541 N552 1.985 . S
Cu541 O561 1.959 1_545 S
N542 Cu541 1.999 . S
N542 C544 1.263 . S
N542 C546 1.389 . S
N543 C544 1.358 . S
N543 C545 1.400 . S
C544 N542 1.263 . S
C544 N543 1.358 . S
C544 H550 0.930 . S
C545 N543 1.400 . S
C545 C546 1.351 . S
C545 H562 0.930 . S
C546 N542 1.389 . S
C546 C545 1.351 . S
C546 H551 0.930 . S
O547 Cu541 1.974 . S
O547 C557 1.282 . S
C548 O549 1.261 1_565 S
C548 O561 1.251 . S
O549 C548 1.261 1_545 S
H550 C544 0.930 . S
H551 C546 0.930 . S
N552 Cu541 1.985 . S
N552 C554 1.335 1_545 S
N552 C555 1.390 . S
N553 C554 1.345 . S
N553 C556 1.336 . S
C554 N552 1.335 1_565 S
C554 N553 1.345 . S
C554 H559 0.930 . S
C555 N552 1.390 . S
C555 C556 1.346 1_545 S
C555 H560 0.930 . S
C556 N553 1.336 . S
C556 C555 1.346 1_565 S
C556 H563 0.929 . S
C557 O547 1.282 . S
C557 O558 1.216 . S
O558 C557 1.216 . S
H559 C554 0.930 . S
H560 C555 0.930 . S
O561 Cu541 1.959 1_565 S
O561 C548 1.251 . S
H562 C545 0.930 . S
H563 C556 0.929 . S
Cu564 N565 1.999 . S
Cu564 O570 1.974 . S
Cu564 N575 1.985 . S
Cu564 O584 1.959 . S
N565 Cu564 1.999 . S
N565 C567 1.263 . S
N565 C569 1.389 . S
N566 C567 1.358 . S
N566 C568 1.400 . S
C567 N565 1.263 . S
C567 N566 1.358 . S
C567 H573 0.930 . S
C568 N566 1.400 . S
C568 C569 1.351 . S
C568 H585 0.930 . S
C569 N565 1.389 . S
C569 C568 1.351 . S
C569 H574 0.930 . S
O570 Cu564 1.974 . S
O570 C580 1.282 . S
C571 O572 1.261 . S
C571 O584 1.251 . S
O572 C571 1.261 . S
H573 C567 0.930 . S
H574 C569 0.930 . S
N575 Cu564 1.985 . S
N575 C577 1.335 . S
N575 C578 1.390 . S
N576 C577 1.345 . S
N576 C579 1.336 . S
C577 N575 1.335 . S
C577 N576 1.345 . S
C577 H582 0.930 . S
C578 N575 1.390 . S
C578 C579 1.346 . S
C578 H583 0.930 . S
C579 N576 1.336 . S
C579 C578 1.346 . S
C579 H586 0.929 . S
C580 O570 1.282 . S
C580 O581 1.216 . S
O581 C580 1.216 . S
H582 C577 0.930 . S
H583 C578 0.930 . S
O584 Cu564 1.959 . S
O584 C571 1.251 . S
H585 C568 0.930 . S
H586 C579 0.929 . S
Cu587 N588 1.999 . S
Cu587 O593 1.974 . S
Cu587 N598 1.985 . S
Cu587 O607 1.959 . S
N588 Cu587 1.999 . S
N588 C590 1.263 . S
N588 C592 1.389 . S
N589 C590 1.358 . S
N589 C591 1.400 . S
C590 N588 1.263 . S
C590 N589 1.358 . S
C590 H596 0.930 . S
C591 N589 1.400 . S
C591 C592 1.351 . S
C591 H608 0.930 . S
C592 N588 1.389 . S
C592 C591 1.351 . S
C592 H597 0.930 . S
O593 Cu587 1.974 . S
O593 C603 1.282 . S
C594 O595 1.261 . S
C594 O607 1.251 . S
O595 C594 1.261 . S
H596 C590 0.930 . S
H597 C592 0.930 . S
N598 Cu587 1.985 . S
N598 C600 1.335 . S
N598 C601 1.390 . S
N599 C600 1.345 . S
N599 C602 1.336 . S
C600 N598 1.335 . S
C600 N599 1.345 . S
C600 H605 0.930 . S
C601 N598 1.390 . S
C601 C602 1.346 . S
C601 H606 0.930 . S
C602 N599 1.336 . S
C602 C601 1.346 . S
C602 H609 0.929 . S
C603 O593 1.282 . S
C603 O604 1.216 . S
O604 C603 1.216 . S
H605 C600 0.930 . S
H606 C601 0.930 . S
O607 Cu587 1.959 . S
O607 C594 1.251 . S
H608 C591 0.930 . S
H609 C602 0.929 . S
Cu610 N611 1.999 . S
Cu610 O616 1.974 . S
Cu610 N621 1.985 . S
Cu610 O630 1.959 . S
N611 Cu610 1.999 . S
N611 C613 1.263 . S
N611 C615 1.389 . S
N612 C613 1.358 . S
N612 C614 1.400 . S
C613 N611 1.263 . S
C613 N612 1.358 . S
C613 H619 0.930 . S
C614 N612 1.400 . S
C614 C615 1.351 . S
C614 H631 0.930 . S
C615 N611 1.389 . S
C615 C614 1.351 . S
C615 H620 0.930 . S
O616 Cu610 1.974 . S
O616 C626 1.282 . S
C617 O618 1.261 . S
C617 O630 1.251 . S
O618 C617 1.261 . S
H619 C613 0.930 . S
H620 C615 0.930 . S
N621 Cu610 1.985 . S
N621 C623 1.335 . S
N621 C624 1.390 . S
N622 C623 1.345 . S
N622 C625 1.336 . S
C623 N621 1.335 . S
C623 N622 1.345 . S
C623 H628 0.930 . S
C624 N621 1.390 . S
C624 C625 1.346 . S
C624 H629 0.930 . S
C625 N622 1.336 . S
C625 C624 1.346 . S
C625 H632 0.929 . S
C626 O616 1.282 . S
C626 O627 1.216 . S
O627 C626 1.216 . S
H628 C623 0.930 . S
H629 C624 0.930 . S
O630 Cu610 1.959 . S
O630 C617 1.251 . S
H631 C614 0.930 . S
H632 C625 0.929 . S
Cu633 N634 1.999 . S
Cu633 O639 1.974 . S
Cu633 N644 1.985 . S
Cu633 O653 1.959 . S
N634 Cu633 1.999 . S
N634 C636 1.263 . S
N634 C638 1.389 . S
N635 C636 1.358 . S
N635 C637 1.400 . S
C636 N634 1.263 . S
C636 N635 1.358 . S
C636 H642 0.930 . S
C637 N635 1.400 . S
C637 C638 1.351 . S
C637 H654 0.930 . S
C638 N634 1.389 . S
C638 C637 1.351 . S
C638 H643 0.930 . S
O639 Cu633 1.974 . S
O639 C649 1.282 . S
C640 O641 1.261 . S
C640 O653 1.251 . S
O641 C640 1.261 . S
H642 C636 0.930 . S
H643 C638 0.930 . S
N644 Cu633 1.985 . S
N644 C646 1.335 . S
N644 C647 1.390 . S
N645 C646 1.345 . S
N645 C648 1.336 . S
C646 N644 1.335 . S
C646 N645 1.345 . S
C646 H651 0.930 . S
C647 N644 1.390 . S
C647 C648 1.346 . S
C647 H652 0.930 . S
C648 N645 1.336 . S
C648 C647 1.346 . S
C648 H655 0.929 . S
C649 O639 1.282 . S
C649 O650 1.216 . S
O650 C649 1.216 . S
H651 C646 0.930 . S
H652 C647 0.930 . S
O653 Cu633 1.959 . S
O653 C640 1.251 . S
H654 C637 0.930 . S
H655 C648 0.929 . S
Cu656 N657 1.999 . S
Cu656 O662 1.974 . S
Cu656 N667 1.985 . S
Cu656 O676 1.959 . S
N657 Cu656 1.999 . S
N657 C659 1.263 . S
N657 C661 1.389 . S
N658 C659 1.358 . S
N658 C660 1.400 . S
C659 N657 1.263 . S
C659 N658 1.358 . S
C659 H665 0.930 . S
C660 N658 1.400 . S
C660 C661 1.351 . S
C660 H677 0.930 . S
C661 N657 1.389 . S
C661 C660 1.351 . S
C661 H666 0.930 . S
O662 Cu656 1.974 . S
O662 C672 1.282 . S
C663 O664 1.261 . S
C663 O676 1.251 . S
O664 C663 1.261 . S
H665 C659 0.930 . S
H666 C661 0.930 . S
N667 Cu656 1.985 . S
N667 C669 1.335 . S
N667 C670 1.390 . S
N668 C669 1.345 . S
N668 C671 1.336 . S
C669 N667 1.335 . S
C669 N668 1.345 . S
C669 H674 0.930 . S
C670 N667 1.390 . S
C670 C671 1.346 . S
C670 H675 0.930 . S
C671 N668 1.336 . S
C671 C670 1.346 . S
C671 H678 0.929 . S
C672 O662 1.282 . S
C672 O673 1.216 . S
O673 C672 1.216 . S
H674 C669 0.930 . S
H675 C670 0.930 . S
O676 Cu656 1.959 . S
O676 C663 1.251 . S
H677 C660 0.930 . S
H678 C671 0.929 . S
Cu679 N680 1.999 . S
Cu679 O685 1.974 . S
Cu679 N690 1.985 . S
Cu679 O699 1.959 . S
N680 Cu679 1.999 . S
N680 C682 1.263 . S
N680 C684 1.389 . S
N681 C682 1.358 . S
N681 C683 1.400 . S
C682 N680 1.263 . S
C682 N681 1.358 . S
C682 H688 0.930 . S
C683 N681 1.400 . S
C683 C684 1.351 . S
C683 H700 0.930 . S
C684 N680 1.389 . S
C684 C683 1.351 . S
C684 H689 0.930 . S
O685 Cu679 1.974 . S
O685 C695 1.282 . S
C686 O687 1.261 . S
C686 O699 1.251 . S
O687 C686 1.261 . S
H688 C682 0.930 . S
H689 C684 0.930 . S
N690 Cu679 1.985 . S
N690 C692 1.335 . S
N690 C693 1.390 . S
N691 C692 1.345 . S
N691 C694 1.336 . S
C692 N690 1.335 . S
C692 N691 1.345 . S
C692 H697 0.930 . S
C693 N690 1.390 . S
C693 C694 1.346 . S
C693 H698 0.930 . S
C694 N691 1.336 . S
C694 C693 1.346 . S
C694 H701 0.929 . S
C695 O685 1.282 . S
C695 O696 1.216 . S
O696 C695 1.216 . S
H697 C692 0.930 . S
H698 C693 0.930 . S
O699 Cu679 1.959 . S
O699 C686 1.251 . S
H700 C683 0.930 . S
H701 C694 0.929 . S
Cu702 N703 1.999 . S
Cu702 O708 1.974 . S
Cu702 N713 1.985 . S
Cu702 O722 1.959 . S
N703 Cu702 1.999 . S
N703 C705 1.263 . S
N703 C707 1.389 . S
N704 C705 1.358 . S
N704 C706 1.400 . S
C705 N703 1.263 . S
C705 N704 1.358 . S
C705 H711 0.930 . S
C706 N704 1.400 . S
C706 C707 1.351 . S
C706 H723 0.930 . S
C707 N703 1.389 . S
C707 C706 1.351 . S
C707 H712 0.930 . S
O708 Cu702 1.974 . S
O708 C718 1.282 . S
C709 O710 1.261 . S
C709 O722 1.251 . S
O710 C709 1.261 . S
H711 C705 0.930 . S
H712 C707 0.930 . S
N713 Cu702 1.985 . S
N713 C715 1.335 . S
N713 C716 1.390 . S
N714 C715 1.345 . S
N714 C717 1.336 . S
C715 N713 1.335 . S
C715 N714 1.345 . S
C715 H720 0.930 . S
C716 N713 1.390 . S
C716 C717 1.346 . S
C716 H721 0.930 . S
C717 N714 1.336 . S
C717 C716 1.346 . S
C717 H724 0.929 . S
C718 O708 1.282 . S
C718 O719 1.216 . S
O719 C718 1.216 . S
H720 C715 0.930 . S
H721 C716 0.930 . S
O722 Cu702 1.959 . S
O722 C709 1.251 . S
H723 C706 0.930 . S
H724 C717 0.929 . S
Cu725 N726 1.999 . S
Cu725 O731 1.974 . S
Cu725 N736 1.985 . S
Cu725 O745 1.959 . S
N726 Cu725 1.999 . S
N726 C728 1.263 . S
N726 C730 1.389 . S
N727 C728 1.358 . S
N727 C729 1.400 . S
C728 N726 1.263 . S
C728 N727 1.358 . S
C728 H734 0.930 . S
C729 N727 1.400 . S
C729 C730 1.351 . S
C729 H746 0.930 . S
C730 N726 1.389 . S
C730 C729 1.351 . S
C730 H735 0.930 . S
O731 Cu725 1.974 . S
O731 C741 1.282 . S
C732 O733 1.261 . S
C732 O745 1.251 . S
O733 C732 1.261 . S
H734 C728 0.930 . S
H735 C730 0.930 . S
N736 Cu725 1.985 . S
N736 C738 1.335 . S
N736 C739 1.390 . S
N737 C738 1.345 . S
N737 C740 1.336 . S
C738 N736 1.335 . S
C738 N737 1.345 . S
C738 H743 0.930 . S
C739 N736 1.390 . S
C739 C740 1.346 . S
C739 H744 0.930 . S
C740 N737 1.336 . S
C740 C739 1.346 . S
C740 H747 0.929 . S
C741 O731 1.282 . S
C741 O742 1.216 . S
O742 C741 1.216 . S
H743 C738 0.930 . S
H744 C739 0.930 . S
O745 Cu725 1.959 . S
O745 C732 1.251 . S
H746 C729 0.930 . S
H747 C740 0.929 . S
Cu748 N749 1.999 . S
Cu748 O754 1.974 . S
Cu748 N759 1.985 . S
Cu748 O768 1.959 . S
N749 Cu748 1.999 . S
N749 C751 1.263 . S
N749 C753 1.389 . S
N750 C751 1.358 . S
N750 C752 1.400 . S
C751 N749 1.263 . S
C751 N750 1.358 . S
C751 H757 0.930 . S
C752 N750 1.400 . S
C752 C753 1.351 . S
C752 H769 0.930 . S
C753 N749 1.389 . S
C753 C752 1.351 . S
C753 H758 0.930 . S
O754 Cu748 1.974 . S
O754 C764 1.282 . S
C755 O756 1.261 . S
C755 O768 1.251 . S
O756 C755 1.261 . S
H757 C751 0.930 . S
H758 C753 0.930 . S
N759 Cu748 1.985 . S
N759 C761 1.335 . S
N759 C762 1.390 . S
N760 C761 1.345 . S
N760 C763 1.336 . S
C761 N759 1.335 . S
C761 N760 1.345 . S
C761 H766 0.930 . S
C762 N759 1.390 . S
C762 C763 1.346 . S
C762 H767 0.930 . S
C763 N760 1.336 . S
C763 C762 1.346 . S
C763 H770 0.929 . S
C764 O754 1.282 . S
C764 O765 1.216 . S
O765 C764 1.216 . S
H766 C761 0.930 . S
H767 C762 0.930 . S
O768 Cu748 1.959 . S
O768 C755 1.251 . S
H769 C752 0.930 . S
H770 C763 0.929 . S
Cu771 N772 1.999 . S
Cu771 O777 1.974 . S
Cu771 N782 1.985 . S
Cu771 O791 1.959 . S
N772 Cu771 1.999 . S
N772 C774 1.263 . S
N772 C776 1.389 . S
N773 C774 1.358 . S
N773 C775 1.400 . S
C774 N772 1.263 . S
C774 N773 1.358 . S
C774 H780 0.930 . S
C775 N773 1.400 . S
C775 C776 1.351 . S
C775 H792 0.930 . S
C776 N772 1.389 . S
C776 C775 1.351 . S
C776 H781 0.930 . S
O777 Cu771 1.974 . S
O777 C787 1.282 . S
C778 O779 1.261 . S
C778 O791 1.251 . S
O779 C778 1.261 . S
H780 C774 0.930 . S
H781 C776 0.930 . S
N782 Cu771 1.985 . S
N782 C784 1.335 . S
N782 C785 1.390 . S
N783 C784 1.345 . S
N783 C786 1.336 . S
C784 N782 1.335 . S
C784 N783 1.345 . S
C784 H789 0.930 . S
C785 N782 1.390 . S
C785 C786 1.346 . S
C785 H790 0.930 . S
C786 N783 1.336 . S
C786 C785 1.346 . S
C786 H793 0.929 . S
C787 O777 1.282 . S
C787 O788 1.216 . S
O788 C787 1.216 . S
H789 C784 0.930 . S
H790 C785 0.930 . S
O791 Cu771 1.959 . S
O791 C778 1.251 . S
H792 C775 0.930 . S
H793 C786 0.929 . S
Cu794 N795 1.999 . S
Cu794 O800 1.974 . S
Cu794 N805 1.985 . S
Cu794 O814 1.959 . S
N795 Cu794 1.999 . S
N795 C797 1.263 . S
N795 C799 1.389 . S
N796 C797 1.358 . S
N796 C798 1.400 . S
C797 N795 1.263 . S
C797 N796 1.358 . S
C797 H803 0.930 . S
C798 N796 1.400 . S
C798 C799 1.351 . S
C798 H815 0.930 . S
C799 N795 1.389 . S
C799 C798 1.351 . S
C799 H804 0.930 . S
O800 Cu794 1.974 . S
O800 C810 1.282 . S
C801 O802 1.261 . S
C801 O814 1.251 . S
O802 C801 1.261 . S
H803 C797 0.930 . S
H804 C799 0.930 . S
N805 Cu794 1.985 . S
N805 C807 1.335 . S
N805 C808 1.390 . S
N806 C807 1.345 . S
N806 C809 1.336 . S
C807 N805 1.335 . S
C807 N806 1.345 . S
C807 H812 0.930 . S
C808 N805 1.390 . S
C808 C809 1.346 . S
C808 H813 0.930 . S
C809 N806 1.336 . S
C809 C808 1.346 . S
C809 H816 0.929 . S
C810 O800 1.282 . S
C810 O811 1.216 . S
O811 C810 1.216 . S
H812 C807 0.930 . S
H813 C808 0.930 . S
O814 Cu794 1.959 . S
O814 C801 1.251 . S
H815 C798 0.930 . S
H816 C809 0.929 . S
Cu817 N818 1.999 . S
Cu817 O823 1.974 . S
Cu817 N828 1.985 . S
Cu817 O837 1.959 . S
N818 Cu817 1.999 . S
N818 C820 1.263 . S
N818 C822 1.389 . S
N819 C820 1.358 . S
N819 C821 1.400 . S
C820 N818 1.263 . S
C820 N819 1.358 . S
C820 H826 0.930 . S
C821 N819 1.400 . S
C821 C822 1.351 . S
C821 H838 0.930 . S
C822 N818 1.389 . S
C822 C821 1.351 . S
C822 H827 0.930 . S
O823 Cu817 1.974 . S
O823 C833 1.282 . S
C824 O825 1.261 . S
C824 O837 1.251 . S
O825 C824 1.261 . S
H826 C820 0.930 . S
H827 C822 0.930 . S
N828 Cu817 1.985 . S
N828 C830 1.335 . S
N828 C831 1.390 . S
N829 C830 1.345 . S
N829 C832 1.336 . S
C830 N828 1.335 . S
C830 N829 1.345 . S
C830 H835 0.930 . S
C831 N828 1.390 . S
C831 C832 1.346 . S
C831 H836 0.930 . S
C832 N829 1.336 . S
C832 C831 1.346 . S
C832 H839 0.929 . S
C833 O823 1.282 . S
C833 O834 1.216 . S
O834 C833 1.216 . S
H835 C830 0.930 . S
H836 C831 0.930 . S
O837 Cu817 1.959 . S
O837 C824 1.251 . S
H838 C821 0.930 . S
H839 C832 0.929 . S
C840 C841 1.363 . S
C840 C846 1.379 . S
C840 N848 1.356 . S
C841 C840 1.363 . S
C841 C847 1.363 . S
C842 C843 1.363 . S
C842 C847 1.379 . S
C842 N849 1.356 . S
C843 C842 1.363 . S
C843 C846 1.363 . S
N844 C846 1.356 . S
N844 H856 0.984 . S
N844 H857 0.985 . S
N845 C847 1.356 . S
N845 H850 0.984 . S
N845 H851 0.985 . S
C846 C840 1.379 . S
C846 C843 1.363 . S
C846 N844 1.356 . S
C847 C841 1.363 . S
C847 C842 1.379 . S
C847 N845 1.356 . S
N848 C840 1.356 . S
N848 H854 0.984 . S
N848 H855 0.984 . S
N849 C842 1.356 . S
N849 H852 0.984 . S
N849 H853 0.985 . S
H850 N845 0.984 . S
H851 N845 0.985 . S
H852 N849 0.984 . S
H853 N849 0.985 . S
H854 N848 0.984 . S
H855 N848 0.984 . S
H856 N844 0.984 . S
H857 N844 0.985 . S
C858 C859 1.363 . S
C858 C864 1.379 . S
C858 N866 1.356 . S
C859 C858 1.363 . S
C859 C865 1.363 . S
C860 C861 1.363 . S
C860 C865 1.379 . S
C860 N867 1.356 . S
C861 C860 1.363 . S
C861 C864 1.363 . S
N862 C864 1.356 . S
N862 H874 0.984 . S
N862 H875 0.985 . S
N863 C865 1.356 . S
N863 H868 0.984 . S
N863 H869 0.985 . S
C864 C858 1.379 . S
C864 C861 1.363 . S
C864 N862 1.356 . S
C865 C859 1.363 . S
C865 C860 1.379 . S
C865 N863 1.356 . S
N866 C858 1.356 . S
N866 H872 0.984 . S
N866 H873 0.984 . S
N867 C860 1.356 . S
N867 H870 0.984 . S
N867 H871 0.985 . S
H868 N863 0.984 . S
H869 N863 0.985 . S
H870 N867 0.984 . S
H871 N867 0.985 . S
H872 N866 0.984 . S
H873 N866 0.984 . S
H874 N862 0.984 . S
H875 N862 0.985 . S
C876 C877 1.363 . S
C876 C882 1.379 . S
C876 N884 1.356 . S
C877 C876 1.363 . S
C877 C883 1.363 . S
C878 C879 1.363 . S
C878 C883 1.379 . S
C878 N885 1.356 . S
C879 C878 1.363 . S
C879 C882 1.363 . S
N880 C882 1.356 . S
N880 H892 0.984 . S
N880 H893 0.985 . S
N881 C883 1.356 . S
N881 H886 0.984 . S
N881 H887 0.985 . S
C882 C876 1.379 . S
C882 C879 1.363 . S
C882 N880 1.356 . S
C883 C877 1.363 . S
C883 C878 1.379 . S
C883 N881 1.356 . S
N884 C876 1.356 . S
N884 H890 0.984 . S
N884 H891 0.984 . S
N885 C878 1.356 . S
N885 H888 0.984 . S
N885 H889 0.985 . S
H886 N881 0.984 . S
H887 N881 0.985 . S
H888 N885 0.984 . S
H889 N885 0.985 . S
H890 N884 0.984 . S
H891 N884 0.984 . S
H892 N880 0.984 . S
H893 N880 0.985 . S
C894 C895 1.363 . S
C894 C900 1.379 . S
C894 N902 1.356 . S
C895 C894 1.363 . S
C895 C901 1.363 . S
C896 C897 1.363 . S
C896 C901 1.379 . S
C896 N903 1.356 . S
C897 C896 1.363 . S
C897 C900 1.363 . S
N898 C900 1.356 . S
N898 H910 0.984 . S
N898 H911 0.985 . S
N899 C901 1.356 . S
N899 H904 0.984 . S
N899 H905 0.985 . S
C900 C894 1.379 . S
C900 C897 1.363 . S
C900 N898 1.356 . S
C901 C895 1.363 . S
C901 C896 1.379 . S
C901 N899 1.356 . S
N902 C894 1.356 . S
N902 H908 0.984 . S
N902 H909 0.984 . S
N903 C896 1.356 . S
N903 H906 0.984 . S
N903 H907 0.985 . S
H904 N899 0.984 . S
H905 N899 0.985 . S
H906 N903 0.984 . S
H907 N903 0.985 . S
H908 N902 0.984 . S
H909 N902 0.984 . S
H910 N898 0.984 . S
H911 N898 0.985 . S
C912 C913 1.363 . S
C912 C918 1.379 . S
C912 N920 1.356 . S
C913 C912 1.363 . S
C913 C919 1.363 . S
C914 C915 1.363 . S
C914 C919 1.379 . S
C914 N921 1.356 . S
C915 C914 1.363 . S
C915 C918 1.363 . S
N916 C918 1.356 . S
N916 H928 0.984 . S
N916 H929 0.985 . S
N917 C919 1.356 . S
N917 H922 0.984 . S
N917 H923 0.985 . S
C918 C912 1.379 . S
C918 C915 1.363 . S
C918 N916 1.356 . S
C919 C913 1.363 . S
C919 C914 1.379 . S
C919 N917 1.356 . S
N920 C912 1.356 . S
N920 H926 0.984 . S
N920 H927 0.984 . S
N921 C914 1.356 . S
N921 H924 0.984 . S
N921 H925 0.985 . S
H922 N917 0.984 . S
H923 N917 0.985 . S
H924 N921 0.984 . S
H925 N921 0.985 . S
H926 N920 0.984 . S
H927 N920 0.984 . S
H928 N916 0.984 . S
H929 N916 0.985 . S
C930 C931 1.363 . S
C930 C936 1.379 . S
C930 N938 1.356 . S
C931 C930 1.363 . S
C931 C937 1.363 . S
C932 C933 1.363 . S
C932 C937 1.379 . S
C932 N939 1.356 . S
C933 C932 1.363 . S
C933 C936 1.363 . S
N934 C936 1.356 . S
N934 H946 0.984 . S
N934 H947 0.985 . S
N935 C937 1.356 . S
N935 H940 0.984 . S
N935 H941 0.985 . S
C936 C930 1.379 . S
C936 C933 1.363 . S
C936 N934 1.356 . S
C937 C931 1.363 . S
C937 C932 1.379 . S
C937 N935 1.356 . S
N938 C930 1.356 . S
N938 H944 0.984 . S
N938 H945 0.984 . S
N939 C932 1.356 . S
N939 H942 0.984 . S
N939 H943 0.985 . S
H940 N935 0.984 . S
H941 N935 0.985 . S
H942 N939 0.984 . S
H943 N939 0.985 . S
H944 N938 0.984 . S
H945 N938 0.984 . S
H946 N934 0.984 . S
H947 N934 0.985 . S
C948 C949 1.363 . S
C948 C954 1.379 . S
C948 N956 1.356 . S
C949 C948 1.363 . S
C949 C955 1.363 . S
C950 C951 1.363 . S
C950 C955 1.379 . S
C950 N957 1.356 . S
C951 C950 1.363 . S
C951 C954 1.363 . S
N952 C954 1.356 . S
N952 H964 0.984 . S
N952 H965 0.985 . S
N953 C955 1.356 . S
N953 H958 0.984 . S
N953 H959 0.985 . S
C954 C948 1.379 . S
C954 C951 1.363 . S
C954 N952 1.356 . S
C955 C949 1.363 . S
C955 C950 1.379 . S
C955 N953 1.356 . S
N956 C948 1.356 . S
N956 H962 0.984 . S
N956 H963 0.984 . S
N957 C950 1.356 . S
N957 H960 0.984 . S
N957 H961 0.985 . S
H958 N953 0.984 . S
H959 N953 0.985 . S
H960 N957 0.984 . S
H961 N957 0.985 . S
H962 N956 0.984 . S
H963 N956 0.984 . S
H964 N952 0.984 . S
H965 N952 0.985 . S
C966 C967 1.363 . S
C966 C972 1.379 . S
C966 N974 1.356 . S
C967 C966 1.363 . S
C967 C973 1.363 . S
C968 C969 1.363 . S
C968 C973 1.379 . S
C968 N975 1.356 . S
C969 C968 1.363 . S
C969 C972 1.363 . S
N970 C972 1.356 . S
N970 H982 0.984 . S
N970 H983 0.985 . S
N971 C973 1.356 . S
N971 H976 0.984 . S
N971 H977 0.985 . S
C972 C966 1.379 . S
C972 C969 1.363 . S
C972 N970 1.356 . S
C973 C967 1.363 . S
C973 C968 1.379 . S
C973 N971 1.356 . S
N974 C966 1.356 . S
N974 H980 0.984 . S
N974 H981 0.984 . S
N975 C968 1.356 . S
N975 H978 0.984 . S
N975 H979 0.985 . S
H976 N971 0.984 . S
H977 N971 0.985 . S
H978 N975 0.984 . S
H979 N975 0.985 . S
H980 N974 0.984 . S
H981 N974 0.984 . S
H982 N970 0.984 . S
H983 N970 0.985 . S
C984 C985 1.363 . S
C984 C990 1.379 . S
C984 N992 1.356 . S
C985 C984 1.363 . S
C985 C991 1.363 . S
C986 C987 1.363 . S
C986 C991 1.379 . S
C986 N993 1.356 . S
C987 C986 1.363 . S
C987 C990 1.363 . S
N988 C990 1.356 . S
N988 H1000 0.984 . S
N988 H1001 0.985 . S
N989 C991 1.356 . S
N989 H994 0.984 . S
N989 H995 0.985 . S
C990 C984 1.379 . S
C990 C987 1.363 . S
C990 N988 1.356 . S
C991 C985 1.363 . S
C991 C986 1.379 . S
C991 N989 1.356 . S
N992 C984 1.356 . S
N992 H998 0.984 . S
N992 H999 0.984 . S
N993 C986 1.356 . S
N993 H996 0.984 . S
N993 H997 0.985 . S
H994 N989 0.984 . S
H995 N989 0.985 . S
H996 N993 0.984 . S
H997 N993 0.985 . S
H998 N992 0.984 . S
H999 N992 0.984 . S
H1000 N988 0.984 . S
H1001 N988 0.985 . S
C1002 C1003 1.363 . S
C1002 C1008 1.379 . S
C1002 N1010 1.356 . S
C1003 C1002 1.363 . S
C1003 C1009 1.363 . S
C1004 C1005 1.363 . S
C1004 C1009 1.379 . S
C1004 N1011 1.356 . S
C1005 C1004 1.363 . S
C1005 C1008 1.363 . S
N1006 C1008 1.356 . S
N1006 H1018 0.984 . S
N1006 H1019 0.985 . S
N1007 C1009 1.356 . S
N1007 H1012 0.984 . S
N1007 H1013 0.985 . S
C1008 C1002 1.379 . S
C1008 C1005 1.363 . S
C1008 N1006 1.356 . S
C1009 C1003 1.363 . S
C1009 C1004 1.379 . S
C1009 N1007 1.356 . S
N1010 C1002 1.356 . S
N1010 H1016 0.984 . S
N1010 H1017 0.984 . S
N1011 C1004 1.356 . S
N1011 H1014 0.984 . S
N1011 H1015 0.985 . S
H1012 N1007 0.984 . S
H1013 N1007 0.985 . S
H1014 N1011 0.984 . S
H1015 N1011 0.985 . S
H1016 N1010 0.984 . S
H1017 N1010 0.984 . S
H1018 N1006 0.984 . S
H1019 N1006 0.985 . S
C1020 C1021 1.363 . S
C1020 C1026 1.379 . S
C1020 N1028 1.356 . S
C1021 C1020 1.363 . S
C1021 C1027 1.363 . S
C1022 C1023 1.363 . S
C1022 C1027 1.379 . S
C1022 N1029 1.356 . S
C1023 C1022 1.363 . S
C1023 C1026 1.363 . S
N1024 C1026 1.356 . S
N1024 H1036 0.984 . S
N1024 H1037 0.985 . S
N1025 C1027 1.356 . S
N1025 H1030 0.984 . S
N1025 H1031 0.985 . S
C1026 C1020 1.379 . S
C1026 C1023 1.363 . S
C1026 N1024 1.356 . S
C1027 C1021 1.363 . S
C1027 C1022 1.379 . S
C1027 N1025 1.356 . S
N1028 C1020 1.356 . S
N1028 H1034 0.984 . S
N1028 H1035 0.984 . S
N1029 C1022 1.356 . S
N1029 H1032 0.984 . S
N1029 H1033 0.985 . S
H1030 N1025 0.984 . S
H1031 N1025 0.985 . S
H1032 N1029 0.984 . S
H1033 N1029 0.985 . S
H1034 N1028 0.984 . S
H1035 N1028 0.984 . S
H1036 N1024 0.984 . S
H1037 N1024 0.985 . S
C1038 C1039 1.363 . S
C1038 C1044 1.379 . S
C1038 N1046 1.356 . S
C1039 C1038 1.363 . S
C1039 C1045 1.363 . S
C1040 C1041 1.363 . S
C1040 C1045 1.379 . S
C1040 N1047 1.356 . S
C1041 C1040 1.363 . S
C1041 C1044 1.363 . S
N1042 C1044 1.356 . S
N1042 H1054 0.984 . S
N1042 H1055 0.985 . S
N1043 C1045 1.356 . S
N1043 H1048 0.984 . S
N1043 H1049 0.985 . S
C1044 C1038 1.379 . S
C1044 C1041 1.363 . S
C1044 N1042 1.356 . S
C1045 C1039 1.363 . S
C1045 C1040 1.379 . S
C1045 N1043 1.356 . S
N1046 C1038 1.356 . S
N1046 H1052 0.984 . S
N1046 H1053 0.984 . S
N1047 C1040 1.356 . S
N1047 H1050 0.984 . S
N1047 H1051 0.985 . S
H1048 N1043 0.984 . S
H1049 N1043 0.985 . S
H1050 N1047 0.984 . S
H1051 N1047 0.985 . S
H1052 N1046 0.984 . S
H1053 N1046 0.984 . S
H1054 N1042 0.984 . S
H1055 N1042 0.985 . S
C1056 C1057 1.363 . S
C1056 C1062 1.379 . S
C1056 N1064 1.356 . S
C1057 C1056 1.363 . S
C1057 C1063 1.363 . S
C1058 C1059 1.363 . S
C1058 C1063 1.379 . S
C1058 N1065 1.356 . S
C1059 C1058 1.363 . S
C1059 C1062 1.363 . S
N1060 C1062 1.356 . S
N1060 H1072 0.984 . S
N1060 H1073 0.985 . S
N1061 C1063 1.356 . S
N1061 H1066 0.984 . S
N1061 H1067 0.985 . S
C1062 C1056 1.379 . S
C1062 C1059 1.363 . S
C1062 N1060 1.356 . S
C1063 C1057 1.363 . S
C1063 C1058 1.379 . S
C1063 N1061 1.356 . S
N1064 C1056 1.356 . S
N1064 H1070 0.984 . S
N1064 H1071 0.984 . S
N1065 C1058 1.356 . S
N1065 H1068 0.984 . S
N1065 H1069 0.985 . S
H1066 N1061 0.984 . S
H1067 N1061 0.985 . S
H1068 N1065 0.984 . S
H1069 N1065 0.985 . S
H1070 N1064 0.984 . S
H1071 N1064 0.984 . S
H1072 N1060 0.984 . S
H1073 N1060 0.985 . S
C1074 C1075 1.363 . S
C1074 C1080 1.379 . S
C1074 N1082 1.356 . S
C1075 C1074 1.363 . S
C1075 C1081 1.363 . S
C1076 C1077 1.363 . S
C1076 C1081 1.379 . S
C1076 N1083 1.356 . S
C1077 C1076 1.363 . S
C1077 C1080 1.363 . S
N1078 C1080 1.356 . S
N1078 H1090 0.984 . S
N1078 H1091 0.985 . S
N1079 C1081 1.356 . S
N1079 H1084 0.984 . S
N1079 H1085 0.985 . S
C1080 C1074 1.379 . S
C1080 C1077 1.363 . S
C1080 N1078 1.356 . S
C1081 C1075 1.363 . S
C1081 C1076 1.379 . S
C1081 N1079 1.356 . S
N1082 C1074 1.356 . S
N1082 H1088 0.984 . S
N1082 H1089 0.984 . S
N1083 C1076 1.356 . S
N1083 H1086 0.984 . S
N1083 H1087 0.985 . S
H1084 N1079 0.984 . S
H1085 N1079 0.985 . S
H1086 N1083 0.984 . S
H1087 N1083 0.985 . S
H1088 N1082 0.984 . S
H1089 N1082 0.984 . S
H1090 N1078 0.984 . S
H1091 N1078 0.985 . S
C1092 C1093 1.363 . S
C1092 C1098 1.379 . S
C1092 N1100 1.356 . S
C1093 C1092 1.363 . S
C1093 C1099 1.363 . S
C1094 C1095 1.363 . S
C1094 C1099 1.379 . S
C1094 N1101 1.356 . S
C1095 C1094 1.363 . S
C1095 C1098 1.363 . S
N1096 C1098 1.356 . S
N1096 H1108 0.984 . S
N1096 H1109 0.985 . S
N1097 C1099 1.356 . S
N1097 H1102 0.984 . S
N1097 H1103 0.985 . S
C1098 C1092 1.379 . S
C1098 C1095 1.363 . S
C1098 N1096 1.356 . S
C1099 C1093 1.363 . S
C1099 C1094 1.379 . S
C1099 N1097 1.356 . S
N1100 C1092 1.356 . S
N1100 H1106 0.984 . S
N1100 H1107 0.984 . S
N1101 C1094 1.356 . S
N1101 H1104 0.984 . S
N1101 H1105 0.985 . S
H1102 N1097 0.984 . S
H1103 N1097 0.985 . S
H1104 N1101 0.984 . S
H1105 N1101 0.985 . S
H1106 N1100 0.984 . S
H1107 N1100 0.984 . S
H1108 N1096 0.984 . S
H1109 N1096 0.985 . S
C1110 C1111 1.363 . S
C1110 C1116 1.379 . S
C1110 N1118 1.356 . S
C1111 C1110 1.363 . S
C1111 C1117 1.363 . S
C1112 C1113 1.363 . S
C1112 C1117 1.379 . S
C1112 N1119 1.356 . S
C1113 C1112 1.363 . S
C1113 C1116 1.363 . S
N1114 C1116 1.356 . S
N1114 H1126 0.984 . S
N1114 H1127 0.985 . S
N1115 C1117 1.356 . S
N1115 H1120 0.984 . S
N1115 H1121 0.985 . S
C1116 C1110 1.379 . S
C1116 C1113 1.363 . S
C1116 N1114 1.356 . S
C1117 C1111 1.363 . S
C1117 C1112 1.379 . S
C1117 N1115 1.356 . S
N1118 C1110 1.356 . S
N1118 H1124 0.984 . S
N1118 H1125 0.984 . S
N1119 C1112 1.356 . S
N1119 H1122 0.984 . S
N1119 H1123 0.985 . S
H1120 N1115 0.984 . S
H1121 N1115 0.985 . S
H1122 N1119 0.984 . S
H1123 N1119 0.985 . S
H1124 N1118 0.984 . S
H1125 N1118 0.984 . S
H1126 N1114 0.984 . S
H1127 N1114 0.985 . S
C1128 C1129 1.363 . S
C1128 C1134 1.379 . S
C1128 N1136 1.356 . S
C1129 C1128 1.363 . S
C1129 C1135 1.363 . S
C1130 C1131 1.363 . S
C1130 C1135 1.379 . S
C1130 N1137 1.356 . S
C1131 C1130 1.363 . S
C1131 C1134 1.363 . S
N1132 C1134 1.356 . S
N1132 H1144 0.984 . S
N1132 H1145 0.985 . S
N1133 C1135 1.356 . S
N1133 H1138 0.984 . S
N1133 H1139 0.985 . S
C1134 C1128 1.379 . S
C1134 C1131 1.363 . S
C1134 N1132 1.356 . S
C1135 C1129 1.363 . S
C1135 C1130 1.379 . S
C1135 N1133 1.356 . S
N1136 C1128 1.356 . S
N1136 H1142 0.984 . S
N1136 H1143 0.984 . S
N1137 C1130 1.356 . S
N1137 H1140 0.984 . S
N1137 H1141 0.985 . S
H1138 N1133 0.984 . S
H1139 N1133 0.985 . S
H1140 N1137 0.984 . S
H1141 N1137 0.985 . S
H1142 N1136 0.984 . S
H1143 N1136 0.984 . S
H1144 N1132 0.984 . S
H1145 N1132 0.985 . S
C1146 C1147 1.363 . S
C1146 C1152 1.379 . S
C1146 N1154 1.356 . S
C1147 C1146 1.363 . S
C1147 C1153 1.363 . S
C1148 C1149 1.363 . S
C1148 C1153 1.379 . S
C1148 N1155 1.356 . S
C1149 C1148 1.363 . S
C1149 C1152 1.363 . S
N1150 C1152 1.356 . S
N1150 H1162 0.984 . S
N1150 H1163 0.985 . S
N1151 C1153 1.356 . S
N1151 H1156 0.984 . S
N1151 H1157 0.985 . S
C1152 C1146 1.379 . S
C1152 C1149 1.363 . S
C1152 N1150 1.356 . S
C1153 C1147 1.363 . S
C1153 C1148 1.379 . S
C1153 N1151 1.356 . S
N1154 C1146 1.356 . S
N1154 H1160 0.984 . S
N1154 H1161 0.984 . S
N1155 C1148 1.356 . S
N1155 H1158 0.984 . S
N1155 H1159 0.985 . S
H1156 N1151 0.984 . S
H1157 N1151 0.985 . S
H1158 N1155 0.984 . S
H1159 N1155 0.985 . S
H1160 N1154 0.984 . S
H1161 N1154 0.984 . S
H1162 N1150 0.984 . S
H1163 N1150 0.985 . S
C1164 C1165 1.363 . S
C1164 C1170 1.379 . S
C1164 N1172 1.356 . S
C1165 C1164 1.363 . S
C1165 C1171 1.363 . S
C1166 C1167 1.363 . S
C1166 C1171 1.379 . S
C1166 N1173 1.356 . S
C1167 C1166 1.363 . S
C1167 C1170 1.363 . S
N1168 C1170 1.356 . S
N1168 H1180 0.984 . S
N1168 H1181 0.985 . S
N1169 C1171 1.356 . S
N1169 H1174 0.984 . S
N1169 H1175 0.985 . S
C1170 C1164 1.379 . S
C1170 C1167 1.363 . S
C1170 N1168 1.356 . S
C1171 C1165 1.363 . S
C1171 C1166 1.379 . S
C1171 N1169 1.356 . S
N1172 C1164 1.356 . S
N1172 H1178 0.984 . S
N1172 H1179 0.984 . S
N1173 C1166 1.356 . S
N1173 H1176 0.984 . S
N1173 H1177 0.985 . S
H1174 N1169 0.984 . S
H1175 N1169 0.985 . S
H1176 N1173 0.984 . S
H1177 N1173 0.985 . S
H1178 N1172 0.984 . S
H1179 N1172 0.984 . S
H1180 N1168 0.984 . S
H1181 N1168 0.985 . S
C1182 C1183 1.363 . S
C1182 C1188 1.379 . S
C1182 N1190 1.356 . S
C1183 C1182 1.363 . S
C1183 C1189 1.363 . S
C1184 C1185 1.363 . S
C1184 C1189 1.379 . S
C1184 N1191 1.356 . S
C1185 C1184 1.363 . S
C1185 C1188 1.363 . S
N1186 C1188 1.356 . S
N1186 H1198 0.984 . S
N1186 H1199 0.985 . S
N1187 C1189 1.356 . S
N1187 H1192 0.984 . S
N1187 H1193 0.985 . S
C1188 C1182 1.379 . S
C1188 C1185 1.363 . S
C1188 N1186 1.356 . S
C1189 C1183 1.363 . S
C1189 C1184 1.379 . S
C1189 N1187 1.356 . S
N1190 C1182 1.356 . S
N1190 H1196 0.984 . S
N1190 H1197 0.984 . S
N1191 C1184 1.356 . S
N1191 H1194 0.984 . S
N1191 H1195 0.985 . S
H1192 N1187 0.984 . S
H1193 N1187 0.985 . S
H1194 N1191 0.984 . S
H1195 N1191 0.985 . S
H1196 N1190 0.984 . S
H1197 N1190 0.984 . S
H1198 N1186 0.984 . S
H1199 N1186 0.985 . S
C1200 C1201 1.363 . S
C1200 C1206 1.379 . S
C1200 N1208 1.356 . S
C1201 C1200 1.363 . S
C1201 C1207 1.363 . S
C1202 C1203 1.363 . S
C1202 C1207 1.379 . S
C1202 N1209 1.356 . S
C1203 C1202 1.363 . S
C1203 C1206 1.363 . S
N1204 C1206 1.356 . S
N1204 H1216 0.984 . S
N1204 H1217 0.985 . S
N1205 C1207 1.356 . S
N1205 H1210 0.984 . S
N1205 H1211 0.985 . S
C1206 C1200 1.379 . S
C1206 C1203 1.363 . S
C1206 N1204 1.356 . S
C1207 C1201 1.363 . S
C1207 C1202 1.379 . S
C1207 N1205 1.356 . S
N1208 C1200 1.356 . S
N1208 H1214 0.984 . S
N1208 H1215 0.984 . S
N1209 C1202 1.356 . S
N1209 H1212 0.984 . S
N1209 H1213 0.985 . S
H1210 N1205 0.984 . S
H1211 N1205 0.985 . S
H1212 N1209 0.984 . S
H1213 N1209 0.985 . S
H1214 N1208 0.984 . S
H1215 N1208 0.984 . S
H1216 N1204 0.984 . S
H1217 N1204 0.985 . S
C1218 C1219 1.363 . S
C1218 C1224 1.379 . S
C1218 N1226 1.356 . S
C1219 C1218 1.363 . S
C1219 C1225 1.363 . S
C1220 C1221 1.363 . S
C1220 C1225 1.379 . S
C1220 N1227 1.356 . S
C1221 C1220 1.363 . S
C1221 C1224 1.363 . S
N1222 C1224 1.356 . S
N1222 H1234 0.984 . S
N1222 H1235 0.985 . S
N1223 C1225 1.356 . S
N1223 H1228 0.984 . S
N1223 H1229 0.985 . S
C1224 C1218 1.379 . S
C1224 C1221 1.363 . S
C1224 N1222 1.356 . S
C1225 C1219 1.363 . S
C1225 C1220 1.379 . S
C1225 N1223 1.356 . S
N1226 C1218 1.356 . S
N1226 H1232 0.984 . S
N1226 H1233 0.984 . S
N1227 C1220 1.356 . S
N1227 H1230 0.984 . S
N1227 H1231 0.985 . S
H1228 N1223 0.984 . S
H1229 N1223 0.985 . S
H1230 N1227 0.984 . S
H1231 N1227 0.985 . S
H1232 N1226 0.984 . S
H1233 N1226 0.984 . S
H1234 N1222 0.984 . S
H1235 N1222 0.985 . S
C1236 C1237 1.363 . S
C1236 C1242 1.379 . S
C1236 N1244 1.356 . S
C1237 C1236 1.363 . S
C1237 C1243 1.363 . S
C1238 C1239 1.363 . S
C1238 C1243 1.379 . S
C1238 N1245 1.356 . S
C1239 C1238 1.363 . S
C1239 C1242 1.363 . S
N1240 C1242 1.356 . S
N1240 H1252 0.984 . S
N1240 H1253 0.985 . S
N1241 C1243 1.356 . S
N1241 H1246 0.984 . S
N1241 H1247 0.985 . S
C1242 C1236 1.379 . S
C1242 C1239 1.363 . S
C1242 N1240 1.356 . S
C1243 C1237 1.363 . S
C1243 C1238 1.379 . S
C1243 N1241 1.356 . S
N1244 C1236 1.356 . S
N1244 H1250 0.984 . S
N1244 H1251 0.984 . S
N1245 C1238 1.356 . S
N1245 H1248 0.984 . S
N1245 H1249 0.985 . S
H1246 N1241 0.984 . S
H1247 N1241 0.985 . S
H1248 N1245 0.984 . S
H1249 N1245 0.985 . S
H1250 N1244 0.984 . S
H1251 N1244 0.984 . S
H1252 N1240 0.984 . S
H1253 N1240 0.985 . S
C1254 C1255 1.363 . S
C1254 C1260 1.379 . S
C1254 N1262 1.356 . S
C1255 C1254 1.363 . S
C1255 C1261 1.363 . S
C1256 C1257 1.363 . S
C1256 C1261 1.379 . S
C1256 N1263 1.356 . S
C1257 C1256 1.363 . S
C1257 C1260 1.363 . S
N1258 C1260 1.356 . S
N1258 H1270 0.984 . S
N1258 H1271 0.985 . S
N1259 C1261 1.356 . S
N1259 H1264 0.984 . S
N1259 H1265 0.985 . S
C1260 C1254 1.379 . S
C1260 C1257 1.363 . S
C1260 N1258 1.356 . S
C1261 C1255 1.363 . S
C1261 C1256 1.379 . S
C1261 N1259 1.356 . S
N1262 C1254 1.356 . S
N1262 H1268 0.984 . S
N1262 H1269 0.984 . S
N1263 C1256 1.356 . S
N1263 H1266 0.984 . S
N1263 H1267 0.985 . S
H1264 N1259 0.984 . S
H1265 N1259 0.985 . S
H1266 N1263 0.984 . S
H1267 N1263 0.985 . S
H1268 N1262 0.984 . S
H1269 N1262 0.984 . S
H1270 N1258 0.984 . S
H1271 N1258 0.985 . S
C1272 C1273 1.363 . S
C1272 C1278 1.379 . S
C1272 N1280 1.356 . S
C1273 C1272 1.363 . S
C1273 C1279 1.363 . S
C1274 C1275 1.363 . S
C1274 C1279 1.379 . S
C1274 N1281 1.356 . S
C1275 C1274 1.363 . S
C1275 C1278 1.363 . S
N1276 C1278 1.356 . S
N1276 H1288 0.984 . S
N1276 H1289 0.985 . S
N1277 C1279 1.356 . S
N1277 H1282 0.984 . S
N1277 H1283 0.985 . S
C1278 C1272 1.379 . S
C1278 C1275 1.363 . S
C1278 N1276 1.356 . S
C1279 C1273 1.363 . S
C1279 C1274 1.379 . S
C1279 N1277 1.356 . S
N1280 C1272 1.356 . S
N1280 H1286 0.984 . S
N1280 H1287 0.984 . S
N1281 C1274 1.356 . S
N1281 H1284 0.984 . S
N1281 H1285 0.985 . S
H1282 N1277 0.984 . S
H1283 N1277 0.985 . S
H1284 N1281 0.984 . S
H1285 N1281 0.985 . S
H1286 N1280 0.984 . S
H1287 N1280 0.984 . S
H1288 N1276 0.984 . S
H1289 N1276 0.985 . S
C1290 C1291 1.363 . S
C1290 C1296 1.379 . S
C1290 N1298 1.356 . S
C1291 C1290 1.363 . S
C1291 C1297 1.363 . S
C1292 C1293 1.363 . S
C1292 C1297 1.379 . S
C1292 N1299 1.356 . S
C1293 C1292 1.363 . S
C1293 C1296 1.363 . S
N1294 C1296 1.356 . S
N1294 H1306 0.984 . S
N1294 H1307 0.985 . S
N1295 C1297 1.356 . S
N1295 H1300 0.984 . S
N1295 H1301 0.985 . S
C1296 C1290 1.379 . S
C1296 C1293 1.363 . S
C1296 N1294 1.356 . S
C1297 C1291 1.363 . S
C1297 C1292 1.379 . S
C1297 N1295 1.356 . S
N1298 C1290 1.356 . S
N1298 H1304 0.984 . S
N1298 H1305 0.984 . S
N1299 C1292 1.356 . S
N1299 H1302 0.984 . S
N1299 H1303 0.985 . S
H1300 N1295 0.984 . S
H1301 N1295 0.985 . S
H1302 N1299 0.984 . S
H1303 N1299 0.985 . S
H1304 N1298 0.984 . S
H1305 N1298 0.984 . S
H1306 N1294 0.984 . S
H1307 N1294 0.985 . S
C1308 C1309 1.363 . S
C1308 C1314 1.379 . S
C1308 N1316 1.356 . S
C1309 C1308 1.363 . S
C1309 C1315 1.363 . S
C1310 C1311 1.363 . S
C1310 C1315 1.379 . S
C1310 N1317 1.356 . S
C1311 C1310 1.363 . S
C1311 C1314 1.363 . S
N1312 C1314 1.356 . S
N1312 H1324 0.984 . S
N1312 H1325 0.985 . S
N1313 C1315 1.356 . S
N1313 H1318 0.984 . S
N1313 H1319 0.985 . S
C1314 C1308 1.379 . S
C1314 C1311 1.363 . S
C1314 N1312 1.356 . S
C1315 C1309 1.363 . S
C1315 C1310 1.379 . S
C1315 N1313 1.356 . S
N1316 C1308 1.356 . S
N1316 H1322 0.984 . S
N1316 H1323 0.984 . S
N1317 C1310 1.356 . S
N1317 H1320 0.984 . S
N1317 H1321 0.985 . S
H1318 N1313 0.984 . S
H1319 N1313 0.985 . S
H1320 N1317 0.984 . S
H1321 N1317 0.985 . S
H1322 N1316 0.984 . S
H1323 N1316 0.984 . S
H1324 N1312 0.984 . S
H1325 N1312 0.985 . S
C1326 C1327 1.363 . S
C1326 C1332 1.379 . S
C1326 N1334 1.356 . S
C1327 C1326 1.363 . S
C1327 C1333 1.363 . S
C1328 C1329 1.363 . S
C1328 C1333 1.379 . S
C1328 N1335 1.356 . S
C1329 C1328 1.363 . S
C1329 C1332 1.363 . S
N1330 C1332 1.356 . S
N1330 H1342 0.984 . S
N1330 H1343 0.985 . S
N1331 C1333 1.356 . S
N1331 H1336 0.984 . S
N1331 H1337 0.985 . S
C1332 C1326 1.379 . S
C1332 C1329 1.363 . S
C1332 N1330 1.356 . S
C1333 C1327 1.363 . S
C1333 C1328 1.379 . S
C1333 N1331 1.356 . S
N1334 C1326 1.356 . S
N1334 H1340 0.984 . S
N1334 H1341 0.984 . S
N1335 C1328 1.356 . S
N1335 H1338 0.984 . S
N1335 H1339 0.985 . S
H1336 N1331 0.984 . S
H1337 N1331 0.985 . S
H1338 N1335 0.984 . S
H1339 N1335 0.985 . S
H1340 N1334 0.984 . S
H1341 N1334 0.984 . S
H1342 N1330 0.984 . S
H1343 N1330 0.985 . S
C1344 C1345 1.363 . S
C1344 C1350 1.379 . S
C1344 N1352 1.356 . S
C1345 C1344 1.363 . S
C1345 C1351 1.363 . S
C1346 C1347 1.363 . S
C1346 C1351 1.379 . S
C1346 N1353 1.356 . S
C1347 C1346 1.363 . S
C1347 C1350 1.363 . S
N1348 C1350 1.356 . S
N1348 H1360 0.984 . S
N1348 H1361 0.985 . S
N1349 C1351 1.356 . S
N1349 H1354 0.984 . S
N1349 H1355 0.985 . S
C1350 C1344 1.379 . S
C1350 C1347 1.363 . S
C1350 N1348 1.356 . S
C1351 C1345 1.363 . S
C1351 C1346 1.379 . S
C1351 N1349 1.356 . S
N1352 C1344 1.356 . S
N1352 H1358 0.984 . S
N1352 H1359 0.984 . S
N1353 C1346 1.356 . S
N1353 H1356 0.984 . S
N1353 H1357 0.985 . S
H1354 N1349 0.984 . S
H1355 N1349 0.985 . S
H1356 N1353 0.984 . S
H1357 N1353 0.985 . S
H1358 N1352 0.984 . S
H1359 N1352 0.984 . S
H1360 N1348 0.984 . S
H1361 N1348 0.985 . S
C1362 C1363 1.363 . S
C1362 C1368 1.379 . S
C1362 N1370 1.356 . S
C1363 C1362 1.363 . S
C1363 C1369 1.363 . S
C1364 C1365 1.363 . S
C1364 C1369 1.379 . S
C1364 N1371 1.356 . S
C1365 C1364 1.363 . S
C1365 C1368 1.363 . S
N1366 C1368 1.356 . S
N1366 H1378 0.984 . S
N1366 H1379 0.985 . S
N1367 C1369 1.356 . S
N1367 H1372 0.984 . S
N1367 H1373 0.985 . S
C1368 C1362 1.379 . S
C1368 C1365 1.363 . S
C1368 N1366 1.356 . S
C1369 C1363 1.363 . S
C1369 C1364 1.379 . S
C1369 N1367 1.356 . S
N1370 C1362 1.356 . S
N1370 H1376 0.984 . S
N1370 H1377 0.984 . S
N1371 C1364 1.356 . S
N1371 H1374 0.984 . S
N1371 H1375 0.985 . S
H1372 N1367 0.984 . S
H1373 N1367 0.985 . S
H1374 N1371 0.984 . S
H1375 N1371 0.985 . S
H1376 N1370 0.984 . S
H1377 N1370 0.984 . S
H1378 N1366 0.984 . S
H1379 N1366 0.985 . S
C1380 C1381 1.363 . S
C1380 C1386 1.379 . S
C1380 N1388 1.356 . S
C1381 C1380 1.363 . S
C1381 C1387 1.363 . S
C1382 C1383 1.363 . S
C1382 C1387 1.379 . S
C1382 N1389 1.356 . S
C1383 C1382 1.363 . S
C1383 C1386 1.363 . S
N1384 C1386 1.356 . S
N1384 H1396 0.984 . S
N1384 H1397 0.985 . S
N1385 C1387 1.356 . S
N1385 H1390 0.984 . S
N1385 H1391 0.985 . S
C1386 C1380 1.379 . S
C1386 C1383 1.363 . S
C1386 N1384 1.356 . S
C1387 C1381 1.363 . S
C1387 C1382 1.379 . S
C1387 N1385 1.356 . S
N1388 C1380 1.356 . S
N1388 H1394 0.984 . S
N1388 H1395 0.984 . S
N1389 C1382 1.356 . S
N1389 H1392 0.984 . S
N1389 H1393 0.985 . S
H1390 N1385 0.984 . S
H1391 N1385 0.985 . S
H1392 N1389 0.984 . S
H1393 N1389 0.985 . S
H1394 N1388 0.984 . S
H1395 N1388 0.984 . S
H1396 N1384 0.984 . S
H1397 N1384 0.985 . S
C1398 C1399 1.363 . S
C1398 C1404 1.379 . S
C1398 N1406 1.356 . S
C1399 C1398 1.363 . S
C1399 C1405 1.363 . S
C1400 C1401 1.363 . S
C1400 C1405 1.379 . S
C1400 N1407 1.356 . S
C1401 C1400 1.363 . S
C1401 C1404 1.363 . S
N1402 C1404 1.356 . S
N1402 H1414 0.984 . S
N1402 H1415 0.985 . S
N1403 C1405 1.356 . S
N1403 H1408 0.984 . S
N1403 H1409 0.985 . S
C1404 C1398 1.379 . S
C1404 C1401 1.363 . S
C1404 N1402 1.356 . S
C1405 C1399 1.363 . S
C1405 C1400 1.379 . S
C1405 N1403 1.356 . S
N1406 C1398 1.356 . S
N1406 H1412 0.984 . S
N1406 H1413 0.984 . S
N1407 C1400 1.356 . S
N1407 H1410 0.984 . S
N1407 H1411 0.985 . S
H1408 N1403 0.984 . S
H1409 N1403 0.985 . S
H1410 N1407 0.984 . S
H1411 N1407 0.985 . S
H1412 N1406 0.984 . S
H1413 N1406 0.984 . S
H1414 N1402 0.984 . S
H1415 N1402 0.985 . S
C1416 C1417 1.363 . S
C1416 C1422 1.379 . S
C1416 N1424 1.356 . S
C1417 C1416 1.363 . S
C1417 C1423 1.363 . S
C1418 C1419 1.363 . S
C1418 C1423 1.379 . S
C1418 N1425 1.356 . S
C1419 C1418 1.363 . S
C1419 C1422 1.363 . S
N1420 C1422 1.356 . S
N1420 H1432 0.984 . S
N1420 H1433 0.985 . S
N1421 C1423 1.356 . S
N1421 H1426 0.984 . S
N1421 H1427 0.985 . S
C1422 C1416 1.379 . S
C1422 C1419 1.363 . S
C1422 N1420 1.356 . S
C1423 C1417 1.363 . S
C1423 C1418 1.379 . S
C1423 N1421 1.356 . S
N1424 C1416 1.356 . S
N1424 H1430 0.984 . S
N1424 H1431 0.984 . S
N1425 C1418 1.356 . S
N1425 H1428 0.984 . S
N1425 H1429 0.985 . S
H1426 N1421 0.984 . S
H1427 N1421 0.985 . S
H1428 N1425 0.984 . S
H1429 N1425 0.985 . S
H1430 N1424 0.984 . S
H1431 N1424 0.984 . S
H1432 N1420 0.984 . S
H1433 N1420 0.985 . S
C1434 C1435 1.363 . S
C1434 C1440 1.379 . S
C1434 N1442 1.356 . S
C1435 C1434 1.363 . S
C1435 C1441 1.363 . S
C1436 C1437 1.363 . S
C1436 C1441 1.379 . S
C1436 N1443 1.356 . S
C1437 C1436 1.363 . S
C1437 C1440 1.363 . S
N1438 C1440 1.356 . S
N1438 H1450 0.984 . S
N1438 H1451 0.985 . S
N1439 C1441 1.356 . S
N1439 H1444 0.984 . S
N1439 H1445 0.985 . S
C1440 C1434 1.379 . S
C1440 C1437 1.363 . S
C1440 N1438 1.356 . S
C1441 C1435 1.363 . S
C1441 C1436 1.379 . S
C1441 N1439 1.356 . S
N1442 C1434 1.356 . S
N1442 H1448 0.984 . S
N1442 H1449 0.984 . S
N1443 C1436 1.356 . S
N1443 H1446 0.984 . S
N1443 H1447 0.985 . S
H1444 N1439 0.984 . S
H1445 N1439 0.985 . S
H1446 N1443 0.984 . S
H1447 N1443 0.985 . S
H1448 N1442 0.984 . S
H1449 N1442 0.984 . S
H1450 N1438 0.984 . S
H1451 N1438 0.985 . S
C1452 C1453 1.363 . S
C1452 C1458 1.379 . S
C1452 N1460 1.356 . S
C1453 C1452 1.363 . S
C1453 C1459 1.363 . S
C1454 C1455 1.363 . S
C1454 C1459 1.379 . S
C1454 N1461 1.356 . S
C1455 C1454 1.363 . S
C1455 C1458 1.363 . S
N1456 C1458 1.356 . S
N1456 H1468 0.984 . S
N1456 H1469 0.985 . S
N1457 C1459 1.356 . S
N1457 H1462 0.984 . S
N1457 H1463 0.985 . S
C1458 C1452 1.379 . S
C1458 C1455 1.363 . S
C1458 N1456 1.356 . S
C1459 C1453 1.363 . S
C1459 C1454 1.379 . S
C1459 N1457 1.356 . S
N1460 C1452 1.356 . S
N1460 H1466 0.984 . S
N1460 H1467 0.984 . S
N1461 C1454 1.356 . S
N1461 H1464 0.984 . S
N1461 H1465 0.985 . S
H1462 N1457 0.984 . S
H1463 N1457 0.985 . S
H1464 N1461 0.984 . S
H1465 N1461 0.985 . S
H1466 N1460 0.984 . S
H1467 N1460 0.984 . S
H1468 N1456 0.984 . S
H1469 N1456 0.985 . S
C1470 C1471 1.363 . S
C1470 C1476 1.379 . S
C1470 N1478 1.356 . S
C1471 C1470 1.363 . S
C1471 C1477 1.363 . S
C1472 C1473 1.363 . S
C1472 C1477 1.379 . S
C1472 N1479 1.356 . S
C1473 C1472 1.363 . S
C1473 C1476 1.363 . S
N1474 C1476 1.356 . S
N1474 H1486 0.984 . S
N1474 H1487 0.985 . S
N1475 C1477 1.356 . S
N1475 H1480 0.984 . S
N1475 H1481 0.985 . S
C1476 C1470 1.379 . S
C1476 C1473 1.363 . S
C1476 N1474 1.356 . S
C1477 C1471 1.363 . S
C1477 C1472 1.379 . S
C1477 N1475 1.356 . S
N1478 C1470 1.356 . S
N1478 H1484 0.984 . S
N1478 H1485 0.984 . S
N1479 C1472 1.356 . S
N1479 H1482 0.984 . S
N1479 H1483 0.985 . S
H1480 N1475 0.984 . S
H1481 N1475 0.985 . S
H1482 N1479 0.984 . S
H1483 N1479 0.985 . S
H1484 N1478 0.984 . S
H1485 N1478 0.984 . S
H1486 N1474 0.984 . S
H1487 N1474 0.985 . S
C1488 C1489 1.363 . S
C1488 C1494 1.379 . S
C1488 N1496 1.356 . S
C1489 C1488 1.363 . S
C1489 C1495 1.363 . S
C1490 C1491 1.363 . S
C1490 C1495 1.379 . S
C1490 N1497 1.356 . S
C1491 C1490 1.363 . S
C1491 C1494 1.363 . S
N1492 C1494 1.356 . S
N1492 H1504 0.984 . S
N1492 H1505 0.985 . S
N1493 C1495 1.356 . S
N1493 H1498 0.984 . S
N1493 H1499 0.985 . S
C1494 C1488 1.379 . S
C1494 C1491 1.363 . S
C1494 N1492 1.356 . S
C1495 C1489 1.363 . S
C1495 C1490 1.379 . S
C1495 N1493 1.356 . S
N1496 C1488 1.356 . S
N1496 H1502 0.984 . S
N1496 H1503 0.984 . S
N1497 C1490 1.356 . S
N1497 H1500 0.984 . S
N1497 H1501 0.985 . S
H1498 N1493 0.984 . S
H1499 N1493 0.985 . S
H1500 N1497 0.984 . S
H1501 N1497 0.985 . S
H1502 N1496 0.984 . S
H1503 N1496 0.984 . S
H1504 N1492 0.984 . S
H1505 N1492 0.985 . S
C1506 C1507 1.363 . S
C1506 C1512 1.379 . S
C1506 N1514 1.356 . S
C1507 C1506 1.363 . S
C1507 C1513 1.363 . S
C1508 C1509 1.363 . S
C1508 C1513 1.379 . S
C1508 N1515 1.356 . S
C1509 C1508 1.363 . S
C1509 C1512 1.363 . S
N1510 C1512 1.356 . S
N1510 H1522 0.984 . S
N1510 H1523 0.985 . S
N1511 C1513 1.356 . S
N1511 H1516 0.984 . S
N1511 H1517 0.985 . S
C1512 C1506 1.379 . S
C1512 C1509 1.363 . S
C1512 N1510 1.356 . S
C1513 C1507 1.363 . S
C1513 C1508 1.379 . S
C1513 N1511 1.356 . S
N1514 C1506 1.356 . S
N1514 H1520 0.984 . S
N1514 H1521 0.984 . S
N1515 C1508 1.356 . S
N1515 H1518 0.984 . S
N1515 H1519 0.985 . S
H1516 N1511 0.984 . S
H1517 N1511 0.985 . S
H1518 N1515 0.984 . S
H1519 N1515 0.985 . S
H1520 N1514 0.984 . S
H1521 N1514 0.984 . S
H1522 N1510 0.984 . S
H1523 N1510 0.985 . S
C1524 C1525 1.363 . S
C1524 C1530 1.379 . S
C1524 N1532 1.356 . S
C1525 C1524 1.363 . S
C1525 C1531 1.363 . S
C1526 C1527 1.363 . S
C1526 C1531 1.379 . S
C1526 N1533 1.356 . S
C1527 C1526 1.363 . S
C1527 C1530 1.363 . S
N1528 C1530 1.356 . S
N1528 H1540 0.984 . S
N1528 H1541 0.985 . S
N1529 C1531 1.356 . S
N1529 H1534 0.984 . S
N1529 H1535 0.985 . S
C1530 C1524 1.379 . S
C1530 C1527 1.363 . S
C1530 N1528 1.356 . S
C1531 C1525 1.363 . S
C1531 C1526 1.379 . S
C1531 N1529 1.356 . S
N1532 C1524 1.356 . S
N1532 H1538 0.984 . S
N1532 H1539 0.984 . S
N1533 C1526 1.356 . S
N1533 H1536 0.984 . S
N1533 H1537 0.985 . S
H1534 N1529 0.984 . S
H1535 N1529 0.985 . S
H1536 N1533 0.984 . S
H1537 N1533 0.985 . S
H1538 N1532 0.984 . S
H1539 N1532 0.984 . S
H1540 N1528 0.984 . S
H1541 N1528 0.985 . S
C1542 C1543 1.363 . S
C1542 C1548 1.379 . S
C1542 N1550 1.356 . S
C1543 C1542 1.363 . S
C1543 C1549 1.363 . S
C1544 C1545 1.363 . S
C1544 C1549 1.379 . S
C1544 N1551 1.356 . S
C1545 C1544 1.363 . S
C1545 C1548 1.363 . S
N1546 C1548 1.356 . S
N1546 H1558 0.984 . S
N1546 H1559 0.985 . S
N1547 C1549 1.356 . S
N1547 H1552 0.984 . S
N1547 H1553 0.985 . S
C1548 C1542 1.379 . S
C1548 C1545 1.363 . S
C1548 N1546 1.356 . S
C1549 C1543 1.363 . S
C1549 C1544 1.379 . S
C1549 N1547 1.356 . S
N1550 C1542 1.356 . S
N1550 H1556 0.984 . S
N1550 H1557 0.984 . S
N1551 C1544 1.356 . S
N1551 H1554 0.984 . S
N1551 H1555 0.985 . S
H1552 N1547 0.984 . S
H1553 N1547 0.985 . S
H1554 N1551 0.984 . S
H1555 N1551 0.985 . S
H1556 N1550 0.984 . S
H1557 N1550 0.984 . S
H1558 N1546 0.984 . S
H1559 N1546 0.985 . S
C1560 C1561 1.363 . S
C1560 C1566 1.379 . S
C1560 N1568 1.356 . S
C1561 C1560 1.363 . S
C1561 C1567 1.363 . S
C1562 C1563 1.363 . S
C1562 C1567 1.379 . S
C1562 N1569 1.356 . S
C1563 C1562 1.363 . S
C1563 C1566 1.363 . S
N1564 C1566 1.356 . S
N1564 H1576 0.984 . S
N1564 H1577 0.985 . S
N1565 C1567 1.356 . S
N1565 H1570 0.984 . S
N1565 H1571 0.985 . S
C1566 C1560 1.379 . S
C1566 C1563 1.363 . S
C1566 N1564 1.356 . S
C1567 C1561 1.363 . S
C1567 C1562 1.379 . S
C1567 N1565 1.356 . S
N1568 C1560 1.356 . S
N1568 H1574 0.984 . S
N1568 H1575 0.984 . S
N1569 C1562 1.356 . S
N1569 H1572 0.984 . S
N1569 H1573 0.985 . S
H1570 N1565 0.984 . S
H1571 N1565 0.985 . S
H1572 N1569 0.984 . S
H1573 N1569 0.985 . S
H1574 N1568 0.984 . S
H1575 N1568 0.984 . S
H1576 N1564 0.984 . S
H1577 N1564 0.985 . S
C1578 C1579 1.363 . S
C1578 C1584 1.379 . S
C1578 N1586 1.356 . S
C1579 C1578 1.363 . S
C1579 C1585 1.363 . S
C1580 C1581 1.363 . S
C1580 C1585 1.379 . S
C1580 N1587 1.356 . S
C1581 C1580 1.363 . S
C1581 C1584 1.363 . S
N1582 C1584 1.356 . S
N1582 H1594 0.984 . S
N1582 H1595 0.985 . S
N1583 C1585 1.356 . S
N1583 H1588 0.984 . S
N1583 H1589 0.985 . S
C1584 C1578 1.379 . S
C1584 C1581 1.363 . S
C1584 N1582 1.356 . S
C1585 C1579 1.363 . S
C1585 C1580 1.379 . S
C1585 N1583 1.356 . S
N1586 C1578 1.356 . S
N1586 H1592 0.984 . S
N1586 H1593 0.984 . S
N1587 C1580 1.356 . S
N1587 H1590 0.984 . S
N1587 H1591 0.985 . S
H1588 N1583 0.984 . S
H1589 N1583 0.985 . S
H1590 N1587 0.984 . S
H1591 N1587 0.985 . S
H1592 N1586 0.984 . S
H1593 N1586 0.984 . S
H1594 N1582 0.984 . S
H1595 N1582 0.985 . S
C1596 C1597 1.363 . S
C1596 C1602 1.379 . S
C1596 N1604 1.356 . S
C1597 C1596 1.363 . S
C1597 C1603 1.363 . S
C1598 C1599 1.363 . S
C1598 C1603 1.379 . S
C1598 N1605 1.356 . S
C1599 C1598 1.363 . S
C1599 C1602 1.363 . S
N1600 C1602 1.356 . S
N1600 H1612 0.984 . S
N1600 H1613 0.985 . S
N1601 C1603 1.356 . S
N1601 H1606 0.984 . S
N1601 H1607 0.985 . S
C1602 C1596 1.379 . S
C1602 C1599 1.363 . S
C1602 N1600 1.356 . S
C1603 C1597 1.363 . S
C1603 C1598 1.379 . S
C1603 N1601 1.356 . S
N1604 C1596 1.356 . S
N1604 H1610 0.984 . S
N1604 H1611 0.984 . S
N1605 C1598 1.356 . S
N1605 H1608 0.984 . S
N1605 H1609 0.985 . S
H1606 N1601 0.984 . S
H1607 N1601 0.985 . S
H1608 N1605 0.984 . S
H1609 N1605 0.985 . S
H1610 N1604 0.984 . S
H1611 N1604 0.984 . S
H1612 N1600 0.984 . S
H1613 N1600 0.985 . S
C1614 C1615 1.363 . S
C1614 C1620 1.379 . S
C1614 N1622 1.356 . S
C1615 C1614 1.363 . S
C1615 C1621 1.363 . S
C1616 C1617 1.363 . S
C1616 C1621 1.379 . S
C1616 N1623 1.356 . S
C1617 C1616 1.363 . S
C1617 C1620 1.363 . S
N1618 C1620 1.356 . S
N1618 H1630 0.984 . S
N1618 H1631 0.985 . S
N1619 C1621 1.356 . S
N1619 H1624 0.984 . S
N1619 H1625 0.985 . S
C1620 C1614 1.379 . S
C1620 C1617 1.363 . S
C1620 N1618 1.356 . S
C1621 C1615 1.363 . S
C1621 C1616 1.379 . S
C1621 N1619 1.356 . S
N1622 C1614 1.356 . S
N1622 H1628 0.984 . S
N1622 H1629 0.984 . S
N1623 C1616 1.356 . S
N1623 H1626 0.984 . S
N1623 H1627 0.985 . S
H1624 N1619 0.984 . S
H1625 N1619 0.985 . S
H1626 N1623 0.984 . S
H1627 N1623 0.985 . S
H1628 N1622 0.984 . S
H1629 N1622 0.984 . S
H1630 N1618 0.984 . S
H1631 N1618 0.985 . S
C1632 C1633 1.363 . S
C1632 C1638 1.379 . S
C1632 N1640 1.356 . S
C1633 C1632 1.363 . S
C1633 C1639 1.363 . S
C1634 C1635 1.363 . S
C1634 C1639 1.379 . S
C1634 N1641 1.356 . S
C1635 C1634 1.363 . S
C1635 C1638 1.363 . S
N1636 C1638 1.356 . S
N1636 H1648 0.984 . S
N1636 H1649 0.985 . S
N1637 C1639 1.356 . S
N1637 H1642 0.984 . S
N1637 H1643 0.985 . S
C1638 C1632 1.379 . S
C1638 C1635 1.363 . S
C1638 N1636 1.356 . S
C1639 C1633 1.363 . S
C1639 C1634 1.379 . S
C1639 N1637 1.356 . S
N1640 C1632 1.356 . S
N1640 H1646 0.984 . S
N1640 H1647 0.984 . S
N1641 C1634 1.356 . S
N1641 H1644 0.984 . S
N1641 H1645 0.985 . S
H1642 N1637 0.984 . S
H1643 N1637 0.985 . S
H1644 N1641 0.984 . S
H1645 N1641 0.985 . S
H1646 N1640 0.984 . S
H1647 N1640 0.984 . S
H1648 N1636 0.984 . S
H1649 N1636 0.985 . S
C1650 C1651 1.363 . S
C1650 C1656 1.379 . S
C1650 N1658 1.356 . S
C1651 C1650 1.363 . S
C1651 C1657 1.363 . S
C1652 C1653 1.363 . S
C1652 C1657 1.379 . S
C1652 N1659 1.356 . S
C1653 C1652 1.363 . S
C1653 C1656 1.363 . S
N1654 C1656 1.356 . S
N1654 H1666 0.984 . S
N1654 H1667 0.985 . S
N1655 C1657 1.356 . S
N1655 H1660 0.984 . S
N1655 H1661 0.985 . S
C1656 C1650 1.379 . S
C1656 C1653 1.363 . S
C1656 N1654 1.356 . S
C1657 C1651 1.363 . S
C1657 C1652 1.379 . S
C1657 N1655 1.356 . S
N1658 C1650 1.356 . S
N1658 H1664 0.984 . S
N1658 H1665 0.984 . S
N1659 C1652 1.356 . S
N1659 H1662 0.984 . S
N1659 H1663 0.985 . S
H1660 N1655 0.984 . S
H1661 N1655 0.985 . S
H1662 N1659 0.984 . S
H1663 N1659 0.985 . S
H1664 N1658 0.984 . S
H1665 N1658 0.984 . S
H1666 N1654 0.984 . S
H1667 N1654 0.985 . S
C1668 C1669 1.363 . S
C1668 C1674 1.379 . S
C1668 N1676 1.356 . S
C1669 C1668 1.363 . S
C1669 C1675 1.363 . S
C1670 C1671 1.363 . S
C1670 C1675 1.379 . S
C1670 N1677 1.356 . S
C1671 C1670 1.363 . S
C1671 C1674 1.363 . S
N1672 C1674 1.356 . S
N1672 H1684 0.984 . S
N1672 H1685 0.985 . S
N1673 C1675 1.356 . S
N1673 H1678 0.984 . S
N1673 H1679 0.985 . S
C1674 C1668 1.379 . S
C1674 C1671 1.363 . S
C1674 N1672 1.356 . S
C1675 C1669 1.363 . S
C1675 C1670 1.379 . S
C1675 N1673 1.356 . S
N1676 C1668 1.356 . S
N1676 H1682 0.984 . S
N1676 H1683 0.984 . S
N1677 C1670 1.356 . S
N1677 H1680 0.984 . S
N1677 H1681 0.985 . S
H1678 N1673 0.984 . S
H1679 N1673 0.985 . S
H1680 N1677 0.984 . S
H1681 N1677 0.985 . S
H1682 N1676 0.984 . S
H1683 N1676 0.984 . S
H1684 N1672 0.984 . S
H1685 N1672 0.985 . S
C1686 C1687 1.363 . S
C1686 C1692 1.379 . S
C1686 N1694 1.356 . S
C1687 C1686 1.363 . S
C1687 C1693 1.363 . S
C1688 C1689 1.363 . S
C1688 C1693 1.379 . S
C1688 N1695 1.356 . S
C1689 C1688 1.363 . S
C1689 C1692 1.363 . S
N1690 C1692 1.356 . S
N1690 H1702 0.984 . S
N1690 H1703 0.985 . S
N1691 C1693 1.356 . S
N1691 H1696 0.984 . S
N1691 H1697 0.985 . S
C1692 C1686 1.379 . S
C1692 C1689 1.363 . S
C1692 N1690 1.356 . S
C1693 C1687 1.363 . S
C1693 C1688 1.379 . S
C1693 N1691 1.356 . S
N1694 C1686 1.356 . S
N1694 H1700 0.984 . S
N1694 H1701 0.984 . S
N1695 C1688 1.356 . S
N1695 H1698 0.984 . S
N1695 H1699 0.985 . S
H1696 N1691 0.984 . S
H1697 N1691 0.985 . S
H1698 N1695 0.984 . S
H1699 N1695 0.985 . S
H1700 N1694 0.984 . S
H1701 N1694 0.984 . S
H1702 N1690 0.984 . S
H1703 N1690 0.985 . S
C1704 C1705 1.363 . S
C1704 C1710 1.379 . S
C1704 N1712 1.356 . S
C1705 C1704 1.363 . S
C1705 C1711 1.363 . S
C1706 C1707 1.363 . S
C1706 C1711 1.379 . S
C1706 N1713 1.356 . S
C1707 C1706 1.363 . S
C1707 C1710 1.363 . S
N1708 C1710 1.356 . S
N1708 H1720 0.984 . S
N1708 H1721 0.985 . S
N1709 C1711 1.356 . S
N1709 H1714 0.984 . S
N1709 H1715 0.985 . S
C1710 C1704 1.379 . S
C1710 C1707 1.363 . S
C1710 N1708 1.356 . S
C1711 C1705 1.363 . S
C1711 C1706 1.379 . S
C1711 N1709 1.356 . S
N1712 C1704 1.356 . S
N1712 H1718 0.984 . S
N1712 H1719 0.984 . S
N1713 C1706 1.356 . S
N1713 H1716 0.984 . S
N1713 H1717 0.985 . S
H1714 N1709 0.984 . S
H1715 N1709 0.985 . S
H1716 N1713 0.984 . S
H1717 N1713 0.985 . S
H1718 N1712 0.984 . S
H1719 N1712 0.984 . S
H1720 N1708 0.984 . S
H1721 N1708 0.985 . S
C1722 C1723 1.363 . S
C1722 C1728 1.379 . S
C1722 N1730 1.356 . S
C1723 C1722 1.363 . S
C1723 C1729 1.363 . S
C1724 C1725 1.363 . S
C1724 C1729 1.379 . S
C1724 N1731 1.356 . S
C1725 C1724 1.363 . S
C1725 C1728 1.363 . S
N1726 C1728 1.356 . S
N1726 H1738 0.984 . S
N1726 H1739 0.985 . S
N1727 C1729 1.356 . S
N1727 H1732 0.984 . S
N1727 H1733 0.985 . S
C1728 C1722 1.379 . S
C1728 C1725 1.363 . S
C1728 N1726 1.356 . S
C1729 C1723 1.363 . S
C1729 C1724 1.379 . S
C1729 N1727 1.356 . S
N1730 C1722 1.356 . S
N1730 H1736 0.984 . S
N1730 H1737 0.984 . S
N1731 C1724 1.356 . S
N1731 H1734 0.984 . S
N1731 H1735 0.985 . S
H1732 N1727 0.984 . S
H1733 N1727 0.985 . S
H1734 N1731 0.984 . S
H1735 N1731 0.985 . S
H1736 N1730 0.984 . S
H1737 N1730 0.984 . S
H1738 N1726 0.984 . S
H1739 N1726 0.985 . S
C1740 C1741 1.363 . S
C1740 C1746 1.379 . S
C1740 N1748 1.356 . S
C1741 C1740 1.363 . S
C1741 C1747 1.363 . S
C1742 C1743 1.363 . S
C1742 C1747 1.379 . S
C1742 N1749 1.356 . S
C1743 C1742 1.363 . S
C1743 C1746 1.363 . S
N1744 C1746 1.356 . S
N1744 H1756 0.984 . S
N1744 H1757 0.985 . S
N1745 C1747 1.356 . S
N1745 H1750 0.984 . S
N1745 H1751 0.985 . S
C1746 C1740 1.379 . S
C1746 C1743 1.363 . S
C1746 N1744 1.356 . S
C1747 C1741 1.363 . S
C1747 C1742 1.379 . S
C1747 N1745 1.356 . S
N1748 C1740 1.356 . S
N1748 H1754 0.984 . S
N1748 H1755 0.984 . S
N1749 C1742 1.356 . S
N1749 H1752 0.984 . S
N1749 H1753 0.985 . S
H1750 N1745 0.984 . S
H1751 N1745 0.985 . S
H1752 N1749 0.984 . S
H1753 N1749 0.985 . S
H1754 N1748 0.984 . S
H1755 N1748 0.984 . S
H1756 N1744 0.984 . S
H1757 N1744 0.985 . S
C1758 C1759 1.363 . S
C1758 C1764 1.379 . S
C1758 N1766 1.356 . S
C1759 C1758 1.363 . S
C1759 C1765 1.363 . S
C1760 C1761 1.363 . S
C1760 C1765 1.379 . S
C1760 N1767 1.356 . S
C1761 C1760 1.363 . S
C1761 C1764 1.363 . S
N1762 C1764 1.356 . S
N1762 H1774 0.984 . S
N1762 H1775 0.985 . S
N1763 C1765 1.356 . S
N1763 H1768 0.984 . S
N1763 H1769 0.985 . S
C1764 C1758 1.379 . S
C1764 C1761 1.363 . S
C1764 N1762 1.356 . S
C1765 C1759 1.363 . S
C1765 C1760 1.379 . S
C1765 N1763 1.356 . S
N1766 C1758 1.356 . S
N1766 H1772 0.984 . S
N1766 H1773 0.984 . S
N1767 C1760 1.356 . S
N1767 H1770 0.984 . S
N1767 H1771 0.985 . S
H1768 N1763 0.984 . S
H1769 N1763 0.985 . S
H1770 N1767 0.984 . S
H1771 N1767 0.985 . S
H1772 N1766 0.984 . S
H1773 N1766 0.984 . S
H1774 N1762 0.984 . S
H1775 N1762 0.985 . S
C1776 C1777 1.363 . S
C1776 C1782 1.379 . S
C1776 N1784 1.356 . S
C1777 C1776 1.363 . S
C1777 C1783 1.363 . S
C1778 C1779 1.363 . S
C1778 C1783 1.379 . S
C1778 N1785 1.356 . S
C1779 C1778 1.363 . S
C1779 C1782 1.363 . S
N1780 C1782 1.356 . S
N1780 H1792 0.984 . S
N1780 H1793 0.985 . S
N1781 C1783 1.356 . S
N1781 H1786 0.984 . S
N1781 H1787 0.985 . S
C1782 C1776 1.379 . S
C1782 C1779 1.363 . S
C1782 N1780 1.356 . S
C1783 C1777 1.363 . S
C1783 C1778 1.379 . S
C1783 N1781 1.356 . S
N1784 C1776 1.356 . S
N1784 H1790 0.984 . S
N1784 H1791 0.984 . S
N1785 C1778 1.356 . S
N1785 H1788 0.984 . S
N1785 H1789 0.985 . S
H1786 N1781 0.984 . S
H1787 N1781 0.985 . S
H1788 N1785 0.984 . S
H1789 N1785 0.985 . S
H1790 N1784 0.984 . S
H1791 N1784 0.984 . S
H1792 N1780 0.984 . S
H1793 N1780 0.985 . S
C1794 C1795 1.363 . S
C1794 C1800 1.379 . S
C1794 N1802 1.356 . S
C1795 C1794 1.363 . S
C1795 C1801 1.363 . S
C1796 C1797 1.363 . S
C1796 C1801 1.379 . S
C1796 N1803 1.356 . S
C1797 C1796 1.363 . S
C1797 C1800 1.363 . S
N1798 C1800 1.356 . S
N1798 H1810 0.984 . S
N1798 H1811 0.985 . S
N1799 C1801 1.356 . S
N1799 H1804 0.984 . S
N1799 H1805 0.985 . S
C1800 C1794 1.379 . S
C1800 C1797 1.363 . S
C1800 N1798 1.356 . S
C1801 C1795 1.363 . S
C1801 C1796 1.379 . S
C1801 N1799 1.356 . S
N1802 C1794 1.356 . S
N1802 H1808 0.984 . S
N1802 H1809 0.984 . S
N1803 C1796 1.356 . S
N1803 H1806 0.984 . S
N1803 H1807 0.985 . S
H1804 N1799 0.984 . S
H1805 N1799 0.985 . S
H1806 N1803 0.984 . S
H1807 N1803 0.985 . S
H1808 N1802 0.984 . S
H1809 N1802 0.984 . S
H1810 N1798 0.984 . S
H1811 N1798 0.985 . S
C1812 C1813 1.363 . S
C1812 C1818 1.379 . S
C1812 N1820 1.356 . S
C1813 C1812 1.363 . S
C1813 C1819 1.363 . S
C1814 C1815 1.363 . S
C1814 C1819 1.379 . S
C1814 N1821 1.356 . S
C1815 C1814 1.363 . S
C1815 C1818 1.363 . S
N1816 C1818 1.356 . S
N1816 H1828 0.984 . S
N1816 H1829 0.985 . S
N1817 C1819 1.356 . S
N1817 H1822 0.984 . S
N1817 H1823 0.985 . S
C1818 C1812 1.379 . S
C1818 C1815 1.363 . S
C1818 N1816 1.356 . S
C1819 C1813 1.363 . S
C1819 C1814 1.379 . S
C1819 N1817 1.356 . S
N1820 C1812 1.356 . S
N1820 H1826 0.984 . S
N1820 H1827 0.984 . S
N1821 C1814 1.356 . S
N1821 H1824 0.984 . S
N1821 H1825 0.985 . S
H1822 N1817 0.984 . S
H1823 N1817 0.985 . S
H1824 N1821 0.984 . S
H1825 N1821 0.985 . S
H1826 N1820 0.984 . S
H1827 N1820 0.984 . S
H1828 N1816 0.984 . S
H1829 N1816 0.985 . S
C1830 C1831 1.363 . S
C1830 C1836 1.379 . S
C1830 N1838 1.356 . S
C1831 C1830 1.363 . S
C1831 C1837 1.363 . S
C1832 C1833 1.363 . S
C1832 C1837 1.379 . S
C1832 N1839 1.356 . S
C1833 C1832 1.363 . S
C1833 C1836 1.363 . S
N1834 C1836 1.356 . S
N1834 H1846 0.984 . S
N1834 H1847 0.985 . S
N1835 C1837 1.356 . S
N1835 H1840 0.984 . S
N1835 H1841 0.985 . S
C1836 C1830 1.379 . S
C1836 C1833 1.363 . S
C1836 N1834 1.356 . S
C1837 C1831 1.363 . S
C1837 C1832 1.379 . S
C1837 N1835 1.356 . S
N1838 C1830 1.356 . S
N1838 H1844 0.984 . S
N1838 H1845 0.984 . S
N1839 C1832 1.356 . S
N1839 H1842 0.984 . S
N1839 H1843 0.985 . S
H1840 N1835 0.984 . S
H1841 N1835 0.985 . S
H1842 N1839 0.984 . S
H1843 N1839 0.985 . S
H1844 N1838 0.984 . S
H1845 N1838 0.984 . S
H1846 N1834 0.984 . S
H1847 N1834 0.985 . S
C1848 C1849 1.363 . S
C1848 C1854 1.379 . S
C1848 N1856 1.356 . S
C1849 C1848 1.363 . S
C1849 C1855 1.363 . S
C1850 C1851 1.363 . S
C1850 C1855 1.379 . S
C1850 N1857 1.356 . S
C1851 C1850 1.363 . S
C1851 C1854 1.363 . S
N1852 C1854 1.356 . S
N1852 H1864 0.984 . S
N1852 H1865 0.985 . S
N1853 C1855 1.356 . S
N1853 H1858 0.984 . S
N1853 H1859 0.985 . S
C1854 C1848 1.379 . S
C1854 C1851 1.363 . S
C1854 N1852 1.356 . S
C1855 C1849 1.363 . S
C1855 C1850 1.379 . S
C1855 N1853 1.356 . S
N1856 C1848 1.356 . S
N1856 H1862 0.984 . S
N1856 H1863 0.984 . S
N1857 C1850 1.356 . S
N1857 H1860 0.984 . S
N1857 H1861 0.985 . S
H1858 N1853 0.984 . S
H1859 N1853 0.985 . S
H1860 N1857 0.984 . S
H1861 N1857 0.985 . S
H1862 N1856 0.984 . S
H1863 N1856 0.984 . S
H1864 N1852 0.984 . S
H1865 N1852 0.985 . S
C1866 C1867 1.363 . S
C1866 C1872 1.379 . S
C1866 N1874 1.356 . S
C1867 C1866 1.363 . S
C1867 C1873 1.363 . S
C1868 C1869 1.363 . S
C1868 C1873 1.379 . S
C1868 N1875 1.356 . S
C1869 C1868 1.363 . S
C1869 C1872 1.363 . S
N1870 C1872 1.356 . S
N1870 H1882 0.984 . S
N1870 H1883 0.985 . S
N1871 C1873 1.356 . S
N1871 H1876 0.984 . S
N1871 H1877 0.985 . S
C1872 C1866 1.379 . S
C1872 C1869 1.363 . S
C1872 N1870 1.356 . S
C1873 C1867 1.363 . S
C1873 C1868 1.379 . S
C1873 N1871 1.356 . S
N1874 C1866 1.356 . S
N1874 H1880 0.984 . S
N1874 H1881 0.984 . S
N1875 C1868 1.356 . S
N1875 H1878 0.984 . S
N1875 H1879 0.985 . S
H1876 N1871 0.984 . S
H1877 N1871 0.985 . S
H1878 N1875 0.984 . S
H1879 N1875 0.985 . S
H1880 N1874 0.984 . S
H1881 N1874 0.984 . S
H1882 N1870 0.984 . S
H1883 N1870 0.985 . S
C1884 C1885 1.363 . S
C1884 C1890 1.379 . S
C1884 N1892 1.356 . S
C1885 C1884 1.363 . S
C1885 C1891 1.363 . S
C1886 C1887 1.363 . S
C1886 C1891 1.379 . S
C1886 N1893 1.356 . S
C1887 C1886 1.363 . S
C1887 C1890 1.363 . S
N1888 C1890 1.356 . S
N1888 H1900 0.984 . S
N1888 H1901 0.985 . S
N1889 C1891 1.356 . S
N1889 H1894 0.984 . S
N1889 H1895 0.985 . S
C1890 C1884 1.379 . S
C1890 C1887 1.363 . S
C1890 N1888 1.356 . S
C1891 C1885 1.363 . S
C1891 C1886 1.379 . S
C1891 N1889 1.356 . S
N1892 C1884 1.356 . S
N1892 H1898 0.984 . S
N1892 H1899 0.984 . S
N1893 C1886 1.356 . S
N1893 H1896 0.984 . S
N1893 H1897 0.985 . S
H1894 N1889 0.984 . S
H1895 N1889 0.985 . S
H1896 N1893 0.984 . S
H1897 N1893 0.985 . S
H1898 N1892 0.984 . S
H1899 N1892 0.984 . S
H1900 N1888 0.984 . S
H1901 N1888 0.985 . S
C1902 C1903 1.363 . S
C1902 C1908 1.379 . S
C1902 N1910 1.356 . S
C1903 C1902 1.363 . S
C1903 C1909 1.363 . S
C1904 C1905 1.363 . S
C1904 C1909 1.379 . S
C1904 N1911 1.356 . S
C1905 C1904 1.363 . S
C1905 C1908 1.363 . S
N1906 C1908 1.356 . S
N1906 H1918 0.984 . S
N1906 H1919 0.985 . S
N1907 C1909 1.356 . S
N1907 H1912 0.984 . S
N1907 H1913 0.985 . S
C1908 C1902 1.379 . S
C1908 C1905 1.363 . S
C1908 N1906 1.356 . S
C1909 C1903 1.363 . S
C1909 C1904 1.379 . S
C1909 N1907 1.356 . S
N1910 C1902 1.356 . S
N1910 H1916 0.984 . S
N1910 H1917 0.984 . S
N1911 C1904 1.356 . S
N1911 H1914 0.984 . S
N1911 H1915 0.985 . S
H1912 N1907 0.984 . S
H1913 N1907 0.985 . S
H1914 N1911 0.984 . S
H1915 N1911 0.985 . S
H1916 N1910 0.984 . S
H1917 N1910 0.984 . S
H1918 N1906 0.984 . S
H1919 N1906 0.985 . S
C1920 C1921 1.363 . S
C1920 C1926 1.379 . S
C1920 N1928 1.356 . S
C1921 C1920 1.363 . S
C1921 C1927 1.363 . S
C1922 C1923 1.363 . S
C1922 C1927 1.379 . S
C1922 N1929 1.356 . S
C1923 C1922 1.363 . S
C1923 C1926 1.363 . S
N1924 C1926 1.356 . S
N1924 H1936 0.984 . S
N1924 H1937 0.985 . S
N1925 C1927 1.356 . S
N1925 H1930 0.984 . S
N1925 H1931 0.985 . S
C1926 C1920 1.379 . S
C1926 C1923 1.363 . S
C1926 N1924 1.356 . S
C1927 C1921 1.363 . S
C1927 C1922 1.379 . S
C1927 N1925 1.356 . S
N1928 C1920 1.356 . S
N1928 H1934 0.984 . S
N1928 H1935 0.984 . S
N1929 C1922 1.356 . S
N1929 H1932 0.984 . S
N1929 H1933 0.985 . S
H1930 N1925 0.984 . S
H1931 N1925 0.985 . S
H1932 N1929 0.984 . S
H1933 N1929 0.985 . S
H1934 N1928 0.984 . S
H1935 N1928 0.984 . S
H1936 N1924 0.984 . S
H1937 N1924 0.985 . S
C1938 C1939 1.363 . S
C1938 C1944 1.379 . S
C1938 N1946 1.356 . S
C1939 C1938 1.363 . S
C1939 C1945 1.363 . S
C1940 C1941 1.363 . S
C1940 C1945 1.379 . S
C1940 N1947 1.356 . S
C1941 C1940 1.363 . S
C1941 C1944 1.363 . S
N1942 C1944 1.356 . S
N1942 H1954 0.984 . S
N1942 H1955 0.985 . S
N1943 C1945 1.356 . S
N1943 H1948 0.984 . S
N1943 H1949 0.985 . S
C1944 C1938 1.379 . S
C1944 C1941 1.363 . S
C1944 N1942 1.356 . S
C1945 C1939 1.363 . S
C1945 C1940 1.379 . S
C1945 N1943 1.356 . S
N1946 C1938 1.356 . S
N1946 H1952 0.984 . S
N1946 H1953 0.984 . S
N1947 C1940 1.356 . S
N1947 H1950 0.984 . S
N1947 H1951 0.985 . S
H1948 N1943 0.984 . S
H1949 N1943 0.985 . S
H1950 N1947 0.984 . S
H1951 N1947 0.985 . S
H1952 N1946 0.984 . S
H1953 N1946 0.984 . S
H1954 N1942 0.984 . S
H1955 N1942 0.985 . S
C1956 C1957 1.363 . S
C1956 C1962 1.379 . S
C1956 N1964 1.356 . S
C1957 C1956 1.363 . S
C1957 C1963 1.363 . S
C1958 C1959 1.363 . S
C1958 C1963 1.379 . S
C1958 N1965 1.356 . S
C1959 C1958 1.363 . S
C1959 C1962 1.363 . S
N1960 C1962 1.356 . S
N1960 H1972 0.984 . S
N1960 H1973 0.985 . S
N1961 C1963 1.356 . S
N1961 H1966 0.984 . S
N1961 H1967 0.985 . S
C1962 C1956 1.379 . S
C1962 C1959 1.363 . S
C1962 N1960 1.356 . S
C1963 C1957 1.363 . S
C1963 C1958 1.379 . S
C1963 N1961 1.356 . S
N1964 C1956 1.356 . S
N1964 H1970 0.984 . S
N1964 H1971 0.984 . S
N1965 C1958 1.356 . S
N1965 H1968 0.984 . S
N1965 H1969 0.985 . S
H1966 N1961 0.984 . S
H1967 N1961 0.985 . S
H1968 N1965 0.984 . S
H1969 N1965 0.985 . S
H1970 N1964 0.984 . S
H1971 N1964 0.984 . S
H1972 N1960 0.984 . S
H1973 N1960 0.985 . S
C1974 C1975 1.363 . S
C1974 C1980 1.379 . S
C1974 N1982 1.356 . S
C1975 C1974 1.363 . S
C1975 C1981 1.363 . S
C1976 C1977 1.363 . S
C1976 C1981 1.379 . S
C1976 N1983 1.356 . S
C1977 C1976 1.363 . S
C1977 C1980 1.363 . S
N1978 C1980 1.356 . S
N1978 H1990 0.984 . S
N1978 H1991 0.985 . S
N1979 C1981 1.356 . S
N1979 H1984 0.984 . S
N1979 H1985 0.985 . S
C1980 C1974 1.379 . S
C1980 C1977 1.363 . S
C1980 N1978 1.356 . S
C1981 C1975 1.363 . S
C1981 C1976 1.379 . S
C1981 N1979 1.356 . S
N1982 C1974 1.356 . S
N1982 H1988 0.984 . S
N1982 H1989 0.984 . S
N1983 C1976 1.356 . S
N1983 H1986 0.984 . S
N1983 H1987 0.985 . S
H1984 N1979 0.984 . S
H1985 N1979 0.985 . S
H1986 N1983 0.984 . S
H1987 N1983 0.985 . S
H1988 N1982 0.984 . S
H1989 N1982 0.984 . S
H1990 N1978 0.984 . S
H1991 N1978 0.985 . S
C1992 C1993 1.363 . S
C1992 C1998 1.379 . S
C1992 N2000 1.356 . S
C1993 C1992 1.363 . S
C1993 C1999 1.363 . S
C1994 C1995 1.363 . S
C1994 C1999 1.379 . S
C1994 N2001 1.356 . S
C1995 C1994 1.363 . S
C1995 C1998 1.363 . S
N1996 C1998 1.356 . S
N1996 H2008 0.984 . S
N1996 H2009 0.985 . S
N1997 C1999 1.356 . S
N1997 H2002 0.984 . S
N1997 H2003 0.985 . S
C1998 C1992 1.379 . S
C1998 C1995 1.363 . S
C1998 N1996 1.356 . S
C1999 C1993 1.363 . S
C1999 C1994 1.379 . S
C1999 N1997 1.356 . S
N2000 C1992 1.356 . S
N2000 H2006 0.984 . S
N2000 H2007 0.984 . S
N2001 C1994 1.356 . S
N2001 H2004 0.984 . S
N2001 H2005 0.985 . S
H2002 N1997 0.984 . S
H2003 N1997 0.985 . S
H2004 N2001 0.984 . S
H2005 N2001 0.985 . S
H2006 N2000 0.984 . S
H2007 N2000 0.984 . S
H2008 N1996 0.984 . S
H2009 N1996 0.985 . S
C2010 C2011 1.363 . S
C2010 C2016 1.379 . S
C2010 N2018 1.356 . S
C2011 C2010 1.363 . S
C2011 C2017 1.363 . S
C2012 C2013 1.363 . S
C2012 C2017 1.379 . S
C2012 N2019 1.356 . S
C2013 C2012 1.363 . S
C2013 C2016 1.363 . S
N2014 C2016 1.356 . S
N2014 H2026 0.984 . S
N2014 H2027 0.985 . S
N2015 C2017 1.356 . S
N2015 H2020 0.984 . S
N2015 H2021 0.985 . S
C2016 C2010 1.379 . S
C2016 C2013 1.363 . S
C2016 N2014 1.356 . S
C2017 C2011 1.363 . S
C2017 C2012 1.379 . S
C2017 N2015 1.356 . S
N2018 C2010 1.356 . S
N2018 H2024 0.984 . S
N2018 H2025 0.984 . S
N2019 C2012 1.356 . S
N2019 H2022 0.984 . S
N2019 H2023 0.985 . S
H2020 N2015 0.984 . S
H2021 N2015 0.985 . S
H2022 N2019 0.984 . S
H2023 N2019 0.985 . S
H2024 N2018 0.984 . S
H2025 N2018 0.984 . S
H2026 N2014 0.984 . S
H2027 N2014 0.985 . S
C2028 C2029 1.363 . S
C2028 C2034 1.379 . S
C2028 N2036 1.356 . S
C2029 C2028 1.363 . S
C2029 C2035 1.363 . S
C2030 C2031 1.363 . S
C2030 C2035 1.379 . S
C2030 N2037 1.356 . S
C2031 C2030 1.363 . S
C2031 C2034 1.363 . S
N2032 C2034 1.356 . S
N2032 H2044 0.984 . S
N2032 H2045 0.985 . S
N2033 C2035 1.356 . S
N2033 H2038 0.984 . S
N2033 H2039 0.985 . S
C2034 C2028 1.379 . S
C2034 C2031 1.363 . S
C2034 N2032 1.356 . S
C2035 C2029 1.363 . S
C2035 C2030 1.379 . S
C2035 N2033 1.356 . S
N2036 C2028 1.356 . S
N2036 H2042 0.984 . S
N2036 H2043 0.984 . S
N2037 C2030 1.356 . S
N2037 H2040 0.984 . S
N2037 H2041 0.985 . S
H2038 N2033 0.984 . S
H2039 N2033 0.985 . S
H2040 N2037 0.984 . S
H2041 N2037 0.985 . S
H2042 N2036 0.984 . S
H2043 N2036 0.984 . S
H2044 N2032 0.984 . S
H2045 N2032 0.985 . S
C2046 C2047 1.363 . S
C2046 C2052 1.379 . S
C2046 N2054 1.356 . S
C2047 C2046 1.363 . S
C2047 C2053 1.363 . S
C2048 C2049 1.363 . S
C2048 C2053 1.379 . S
C2048 N2055 1.356 . S
C2049 C2048 1.363 . S
C2049 C2052 1.363 . S
N2050 C2052 1.356 . S
N2050 H2062 0.984 . S
N2050 H2063 0.985 . S
N2051 C2053 1.356 . S
N2051 H2056 0.984 . S
N2051 H2057 0.985 . S
C2052 C2046 1.379 . S
C2052 C2049 1.363 . S
C2052 N2050 1.356 . S
C2053 C2047 1.363 . S
C2053 C2048 1.379 . S
C2053 N2051 1.356 . S
N2054 C2046 1.356 . S
N2054 H2060 0.984 . S
N2054 H2061 0.984 . S
N2055 C2048 1.356 . S
N2055 H2058 0.984 . S
N2055 H2059 0.985 . S
H2056 N2051 0.984 . S
H2057 N2051 0.985 . S
H2058 N2055 0.984 . S
H2059 N2055 0.985 . S
H2060 N2054 0.984 . S
H2061 N2054 0.984 . S
H2062 N2050 0.984 . S
H2063 N2050 0.985 . S
C2064 C2065 1.363 . S
C2064 C2070 1.379 . S
C2064 N2072 1.356 . S
C2065 C2064 1.363 . S
C2065 C2071 1.363 . S
C2066 C2067 1.363 . S
C2066 C2071 1.379 . S
C2066 N2073 1.356 . S
C2067 C2066 1.363 . S
C2067 C2070 1.363 . S
N2068 C2070 1.356 . S
N2068 H2080 0.984 . S
N2068 H2081 0.985 . S
N2069 C2071 1.356 . S
N2069 H2074 0.984 . S
N2069 H2075 0.985 . S
C2070 C2064 1.379 . S
C2070 C2067 1.363 . S
C2070 N2068 1.356 . S
C2071 C2065 1.363 . S
C2071 C2066 1.379 . S
C2071 N2069 1.356 . S
N2072 C2064 1.356 . S
N2072 H2078 0.984 . S
N2072 H2079 0.984 . S
N2073 C2066 1.356 . S
N2073 H2076 0.984 . S
N2073 H2077 0.985 . S
H2074 N2069 0.984 . S
H2075 N2069 0.985 . S
H2076 N2073 0.984 . S
H2077 N2073 0.985 . S
H2078 N2072 0.984 . S
H2079 N2072 0.984 . S
H2080 N2068 0.984 . S
H2081 N2068 0.985 . S
C2082 C2083 1.363 . S
C2082 C2088 1.379 . S
C2082 N2090 1.356 . S
C2083 C2082 1.363 . S
C2083 C2089 1.363 . S
C2084 C2085 1.363 . S
C2084 C2089 1.379 . S
C2084 N2091 1.356 . S
C2085 C2084 1.363 . S
C2085 C2088 1.363 . S
N2086 C2088 1.356 . S
N2086 H2098 0.984 . S
N2086 H2099 0.985 . S
N2087 C2089 1.356 . S
N2087 H2092 0.984 . S
N2087 H2093 0.985 . S
C2088 C2082 1.379 . S
C2088 C2085 1.363 . S
C2088 N2086 1.356 . S
C2089 C2083 1.363 . S
C2089 C2084 1.379 . S
C2089 N2087 1.356 . S
N2090 C2082 1.356 . S
N2090 H2096 0.984 . S
N2090 H2097 0.984 . S
N2091 C2084 1.356 . S
N2091 H2094 0.971 1_565 S
N2091 H2095 0.977 1_565 S
H2092 N2087 0.984 . S
H2093 N2087 0.985 . S
H2094 N2091 0.971 1_545 S
H2095 N2091 0.977 1_545 S
H2096 N2090 0.984 . S
H2097 N2090 0.984 . S
H2098 N2086 0.984 . S
H2099 N2086 0.985 . S
C2100 C2101 1.363 . S
C2100 C2106 1.379 . S
C2100 N2108 1.356 . S
C2101 C2100 1.363 . S
C2101 C2107 1.363 . S
C2102 C2103 1.363 . S
C2102 C2107 1.379 . S
C2102 N2109 1.356 . S
C2103 C2102 1.363 . S
C2103 C2106 1.363 . S
N2104 C2106 1.356 . S
N2104 H2116 0.984 . S
N2104 H2117 0.985 . S
N2105 C2107 1.356 . S
N2105 H2110 0.984 . S
N2105 H2111 0.985 . S
C2106 C2100 1.379 . S
C2106 C2103 1.363 . S
C2106 N2104 1.356 . S
C2107 C2101 1.363 . S
C2107 C2102 1.379 . S
C2107 N2105 1.356 . S
N2108 C2100 1.356 . S
N2108 H2114 0.984 . S
N2108 H2115 0.984 . S
N2109 C2102 1.356 . S
N2109 H2112 0.984 . S
N2109 H2113 0.985 . S
H2110 N2105 0.984 . S
H2111 N2105 0.985 . S
H2112 N2109 0.984 . S
H2113 N2109 0.985 . S
H2114 N2108 0.984 . S
H2115 N2108 0.984 . S
H2116 N2104 0.984 . S
H2117 N2104 0.985 . S
C2118 C2119 1.363 . S
C2118 C2124 1.379 . S
C2118 N2126 1.356 . S
C2119 C2118 1.363 . S
C2119 C2125 1.363 . S
C2120 C2121 1.363 . S
C2120 C2125 1.379 . S
C2120 N2127 1.356 . S
C2121 C2120 1.363 . S
C2121 C2124 1.363 . S
N2122 C2124 1.356 . S
N2122 H2134 0.984 . S
N2122 H2135 0.985 . S
N2123 C2125 1.356 . S
N2123 H2128 0.984 . S
N2123 H2129 0.985 . S
C2124 C2118 1.379 . S
C2124 C2121 1.363 . S
C2124 N2122 1.356 . S
C2125 C2119 1.363 . S
C2125 C2120 1.379 . S
C2125 N2123 1.356 . S
N2126 C2118 1.356 . S
N2126 H2132 0.984 . S
N2126 H2133 0.984 . S
N2127 C2120 1.356 . S
N2127 H2130 0.984 . S
N2127 H2131 0.985 . S
H2128 N2123 0.984 . S
H2129 N2123 0.985 . S
H2130 N2127 0.984 . S
H2131 N2127 0.985 . S
H2132 N2126 0.984 . S
H2133 N2126 0.984 . S
H2134 N2122 0.984 . S
H2135 N2122 0.985 . S
C2136 C2137 1.363 . S
C2136 C2142 1.379 . S
C2136 N2144 1.356 . S
C2137 C2136 1.363 . S
C2137 C2143 1.363 . S
C2138 C2139 1.363 . S
C2138 C2143 1.379 . S
C2138 N2145 1.356 . S
C2139 C2138 1.363 . S
C2139 C2142 1.363 . S
N2140 C2142 1.356 . S
N2140 H2152 0.984 . S
N2140 H2153 0.985 . S
N2141 C2143 1.356 . S
N2141 H2146 0.984 . S
N2141 H2147 0.985 . S
C2142 C2136 1.379 . S
C2142 C2139 1.363 . S
C2142 N2140 1.356 . S
C2143 C2137 1.363 . S
C2143 C2138 1.379 . S
C2143 N2141 1.356 . S
N2144 C2136 1.356 . S
N2144 H2150 0.984 . S
N2144 H2151 0.984 . S
N2145 C2138 1.356 . S
N2145 H2148 0.984 . S
N2145 H2149 0.985 . S
H2146 N2141 0.984 . S
H2147 N2141 0.985 . S
H2148 N2145 0.984 . S
H2149 N2145 0.985 . S
H2150 N2144 0.984 . S
H2151 N2144 0.984 . S
H2152 N2140 0.984 . S
H2153 N2140 0.985 . S
C2154 C2155 1.363 . S
C2154 C2160 1.379 . S
C2154 N2162 1.356 . S
C2155 C2154 1.363 . S
C2155 C2161 1.363 . S
C2156 C2157 1.363 . S
C2156 C2161 1.379 . S
C2156 N2163 1.356 . S
C2157 C2156 1.363 . S
C2157 C2160 1.363 . S
N2158 C2160 1.356 . S
N2158 H2170 0.984 . S
N2158 H2171 0.985 . S
N2159 C2161 1.356 . S
N2159 H2164 0.984 . S
N2159 H2165 0.985 . S
C2160 C2154 1.379 . S
C2160 C2157 1.363 . S
C2160 N2158 1.356 . S
C2161 C2155 1.363 . S
C2161 C2156 1.379 . S
C2161 N2159 1.356 . S
N2162 C2154 1.356 . S
N2162 H2168 0.984 . S
N2162 H2169 0.984 . S
N2163 C2156 1.356 . S
N2163 H2166 0.984 . S
N2163 H2167 0.985 . S
H2164 N2159 0.984 . S
H2165 N2159 0.985 . S
H2166 N2163 0.984 . S
H2167 N2163 0.985 . S
H2168 N2162 0.984 . S
H2169 N2162 0.984 . S
H2170 N2158 0.984 . S
H2171 N2158 0.985 . S
C2172 C2173 1.363 . S
C2172 C2178 1.379 . S
C2172 N2180 1.356 . S
C2173 C2172 1.363 . S
C2173 C2179 1.363 . S
C2174 C2175 1.363 . S
C2174 C2179 1.379 . S
C2174 N2181 1.356 . S
C2175 C2174 1.363 . S
C2175 C2178 1.363 . S
N2176 C2178 1.356 . S
N2176 H2188 0.984 . S
N2176 H2189 0.985 . S
N2177 C2179 1.356 . S
N2177 H2182 0.984 . S
N2177 H2183 0.985 . S
C2178 C2172 1.379 . S
C2178 C2175 1.363 . S
C2178 N2176 1.356 . S
C2179 C2173 1.363 . S
C2179 C2174 1.379 . S
C2179 N2177 1.356 . S
N2180 C2172 1.356 . S
N2180 H2186 0.984 . S
N2180 H2187 0.984 . S
N2181 C2174 1.356 . S
N2181 H2184 0.984 . S
N2181 H2185 0.985 . S
H2182 N2177 0.984 . S
H2183 N2177 0.985 . S
H2184 N2181 0.984 . S
H2185 N2181 0.985 . S
H2186 N2180 0.984 . S
H2187 N2180 0.984 . S
H2188 N2176 0.984 . S
H2189 N2176 0.985 . S
C2190 C2191 1.363 . S
C2190 C2196 1.379 . S
C2190 N2198 1.356 . S
C2191 C2190 1.363 . S
C2191 C2197 1.363 . S
C2192 C2193 1.363 . S
C2192 C2197 1.379 . S
C2192 N2199 1.356 . S
C2193 C2192 1.363 . S
C2193 C2196 1.363 . S
N2194 C2196 1.356 . S
N2194 H2206 0.984 . S
N2194 H2207 0.985 . S
N2195 C2197 1.356 . S
N2195 H2200 0.984 . S
N2195 H2201 0.985 . S
C2196 C2190 1.379 . S
C2196 C2193 1.363 . S
C2196 N2194 1.356 . S
C2197 C2191 1.363 . S
C2197 C2192 1.379 . S
C2197 N2195 1.356 . S
N2198 C2190 1.356 . S
N2198 H2204 0.984 . S
N2198 H2205 0.984 . S
N2199 C2192 1.356 . S
N2199 H2202 0.984 . S
N2199 H2203 0.985 . S
H2200 N2195 0.984 . S
H2201 N2195 0.985 . S
H2202 N2199 0.984 . S
H2203 N2199 0.985 . S
H2204 N2198 0.984 . S
H2205 N2198 0.984 . S
H2206 N2194 0.984 . S
H2207 N2194 0.985 . S
C2208 C2209 1.363 . S
C2208 C2214 1.379 . S
C2208 N2216 1.356 . S
C2209 C2208 1.363 . S
C2209 C2215 1.363 . S
C2210 C2211 1.363 . S
C2210 C2215 1.379 . S
C2210 N2217 1.356 . S
C2211 C2210 1.363 . S
C2211 C2214 1.363 . S
N2212 C2214 1.356 . S
N2212 H2224 0.984 . S
N2212 H2225 0.985 . S
N2213 C2215 1.356 . S
N2213 H2218 0.984 . S
N2213 H2219 0.985 . S
C2214 C2208 1.379 . S
C2214 C2211 1.363 . S
C2214 N2212 1.356 . S
C2215 C2209 1.363 . S
C2215 C2210 1.379 . S
C2215 N2213 1.356 . S
N2216 C2208 1.356 . S
N2216 H2222 0.984 . S
N2216 H2223 0.984 . S
N2217 C2210 1.356 . S
N2217 H2220 0.984 . S
N2217 H2221 0.985 . S
H2218 N2213 0.984 . S
H2219 N2213 0.985 . S
H2220 N2217 0.984 . S
H2221 N2217 0.985 . S
H2222 N2216 0.984 . S
H2223 N2216 0.984 . S
H2224 N2212 0.984 . S
H2225 N2212 0.985 . S
C2226 C2227 1.363 . S
C2226 C2232 1.379 . S
C2226 N2234 1.356 . S
C2227 C2226 1.363 . S
C2227 C2233 1.363 . S
C2228 C2229 1.363 . S
C2228 C2233 1.379 . S
C2228 N2235 1.356 . S
C2229 C2228 1.363 . S
C2229 C2232 1.363 . S
N2230 C2232 1.356 . S
N2230 H2242 0.984 . S
N2230 H2243 0.985 . S
N2231 C2233 1.356 . S
N2231 H2236 0.984 . S
N2231 H2237 0.985 . S
C2232 C2226 1.379 . S
C2232 C2229 1.363 . S
C2232 N2230 1.356 . S
C2233 C2227 1.363 . S
C2233 C2228 1.379 . S
C2233 N2231 1.356 . S
N2234 C2226 1.356 . S
N2234 H2240 0.984 . S
N2234 H2241 0.984 . S
N2235 C2228 1.356 . S
N2235 H2238 0.984 . S
N2235 H2239 0.985 . S
H2236 N2231 0.984 . S
H2237 N2231 0.985 . S
H2238 N2235 0.984 . S
H2239 N2235 0.985 . S
H2240 N2234 0.984 . S
H2241 N2234 0.984 . S
H2242 N2230 0.984 . S
H2243 N2230 0.985 . S
C2244 C2245 1.363 . S
C2244 C2250 1.379 . S
C2244 N2252 1.356 . S
C2245 C2244 1.363 . S
C2245 C2251 1.363 . S
C2246 C2247 1.363 . S
C2246 C2251 1.379 . S
C2246 N2253 1.356 . S
C2247 C2246 1.363 . S
C2247 C2250 1.363 . S
N2248 C2250 1.356 . S
N2248 H2260 0.984 . S
N2248 H2261 0.985 . S
N2249 C2251 1.356 . S
N2249 H2254 0.984 . S
N2249 H2255 0.985 . S
C2250 C2244 1.379 . S
C2250 C2247 1.363 . S
C2250 N2248 1.356 . S
C2251 C2245 1.363 . S
C2251 C2246 1.379 . S
C2251 N2249 1.356 . S
N2252 C2244 1.356 . S
N2252 H2258 0.984 . S
N2252 H2259 0.984 . S
N2253 C2246 1.356 . S
N2253 H2256 0.984 . S
N2253 H2257 0.985 . S
H2254 N2249 0.984 . S
H2255 N2249 0.985 . S
H2256 N2253 0.984 . S
H2257 N2253 0.985 . S
H2258 N2252 0.984 . S
H2259 N2252 0.984 . S
H2260 N2248 0.984 . S
H2261 N2248 0.985 . S
C2262 C2263 1.363 . S
C2262 C2268 1.379 . S
C2262 N2270 1.356 . S
C2263 C2262 1.363 . S
C2263 C2269 1.363 . S
C2264 C2265 1.363 . S
C2264 C2269 1.379 . S
C2264 N2271 1.356 . S
C2265 C2264 1.363 . S
C2265 C2268 1.363 . S
N2266 C2268 1.356 . S
N2266 H2278 0.984 . S
N2266 H2279 0.985 . S
N2267 C2269 1.356 . S
N2267 H2272 0.984 . S
N2267 H2273 0.985 . S
C2268 C2262 1.379 . S
C2268 C2265 1.363 . S
C2268 N2266 1.356 . S
C2269 C2263 1.363 . S
C2269 C2264 1.379 . S
C2269 N2267 1.356 . S
N2270 C2262 1.356 . S
N2270 H2276 0.984 . S
N2270 H2277 0.984 . S
N2271 C2264 1.356 . S
N2271 H2274 0.984 . S
N2271 H2275 0.985 . S
H2272 N2267 0.984 . S
H2273 N2267 0.985 . S
H2274 N2271 0.984 . S
H2275 N2271 0.985 . S
H2276 N2270 0.984 . S
H2277 N2270 0.984 . S
H2278 N2266 0.984 . S
H2279 N2266 0.985 . S
C2280 C2281 1.363 . S
C2280 C2286 1.379 . S
C2280 N2288 1.356 . S
C2281 C2280 1.363 . S
C2281 C2287 1.363 . S
C2282 C2283 1.363 . S
C2282 C2287 1.379 . S
C2282 N2289 1.356 . S
C2283 C2282 1.363 . S
C2283 C2286 1.363 . S
N2284 C2286 1.356 . S
N2284 H2296 0.984 . S
N2284 H2297 0.985 . S
N2285 C2287 1.356 . S
N2285 H2290 0.984 . S
N2285 H2291 0.985 . S
C2286 C2280 1.379 . S
C2286 C2283 1.363 . S
C2286 N2284 1.356 . S
C2287 C2281 1.363 . S
C2287 C2282 1.379 . S
C2287 N2285 1.356 . S
N2288 C2280 1.356 . S
N2288 H2294 0.984 . S
N2288 H2295 0.984 . S
N2289 C2282 1.356 . S
N2289 H2292 0.984 . S
N2289 H2293 0.985 . S
H2290 N2285 0.984 . S
H2291 N2285 0.985 . S
H2292 N2289 0.984 . S
H2293 N2289 0.985 . S
H2294 N2288 0.984 . S
H2295 N2288 0.984 . S
H2296 N2284 0.984 . S
H2297 N2284 0.985 . S
C2298 C2299 1.363 . S
C2298 C2304 1.379 . S
C2298 N2306 1.356 . S
C2299 C2298 1.363 . S
C2299 C2305 1.363 . S
C2300 C2301 1.363 . S
C2300 C2305 1.379 . S
C2300 N2307 1.356 . S
C2301 C2300 1.363 . S
C2301 C2304 1.363 . S
N2302 C2304 1.356 . S
N2302 H2314 0.984 . S
N2302 H2315 0.985 . S
N2303 C2305 1.356 . S
N2303 H2308 0.984 . S
N2303 H2309 0.985 . S
C2304 C2298 1.379 . S
C2304 C2301 1.363 . S
C2304 N2302 1.356 . S
C2305 C2299 1.363 . S
C2305 C2300 1.379 . S
C2305 N2303 1.356 . S
N2306 C2298 1.356 . S
N2306 H2312 0.984 . S
N2306 H2313 0.984 . S
N2307 C2300 1.356 . S
N2307 H2310 0.984 . S
N2307 H2311 0.985 . S
H2308 N2303 0.984 . S
H2309 N2303 0.985 . S
H2310 N2307 0.984 . S
H2311 N2307 0.985 . S
H2312 N2306 0.984 . S
H2313 N2306 0.984 . S
H2314 N2302 0.984 . S
H2315 N2302 0.985 . S
C2316 C2317 1.363 . S
C2316 C2322 1.379 . S
C2316 N2324 1.356 . S
C2317 C2316 1.363 . S
C2317 C2323 1.363 . S
C2318 C2319 1.363 . S
C2318 C2323 1.379 . S
C2318 N2325 1.356 . S
C2319 C2318 1.363 . S
C2319 C2322 1.363 . S
N2320 C2322 1.356 . S
N2320 H2332 0.984 . S
N2320 H2333 0.985 . S
N2321 C2323 1.356 . S
N2321 H2326 0.984 . S
N2321 H2327 0.985 . S
C2322 C2316 1.379 . S
C2322 C2319 1.363 . S
C2322 N2320 1.356 . S
C2323 C2317 1.363 . S
C2323 C2318 1.379 . S
C2323 N2321 1.356 . S
N2324 C2316 1.356 . S
N2324 H2330 0.984 . S
N2324 H2331 0.984 . S
N2325 C2318 1.356 . S
N2325 H2328 0.984 . S
N2325 H2329 0.985 . S
H2326 N2321 0.984 . S
H2327 N2321 0.985 . S
H2328 N2325 0.984 . S
H2329 N2325 0.985 . S
H2330 N2324 0.984 . S
H2331 N2324 0.984 . S
H2332 N2320 0.984 . S
H2333 N2320 0.985 . S
C2334 C2335 1.363 . S
C2334 C2340 1.379 . S
C2334 N2342 1.356 . S
C2335 C2334 1.363 . S
C2335 C2341 1.363 . S
C2336 C2337 1.363 . S
C2336 C2341 1.379 . S
C2336 N2343 1.356 . S
C2337 C2336 1.363 . S
C2337 C2340 1.363 . S
N2338 C2340 1.356 . S
N2338 H2350 0.984 . S
N2338 H2351 0.985 . S
N2339 C2341 1.356 . S
N2339 H2344 0.984 . S
N2339 H2345 0.985 . S
C2340 C2334 1.379 . S
C2340 C2337 1.363 . S
C2340 N2338 1.356 . S
C2341 C2335 1.363 . S
C2341 C2336 1.379 . S
C2341 N2339 1.356 . S
N2342 C2334 1.356 . S
N2342 H2348 0.984 . S
N2342 H2349 0.984 . S
N2343 C2336 1.356 . S
N2343 H2346 0.984 . S
N2343 H2347 0.985 . S
H2344 N2339 0.984 . S
H2345 N2339 0.985 . S
H2346 N2343 0.984 . S
H2347 N2343 0.985 . S
H2348 N2342 0.984 . S
H2349 N2342 0.984 . S
H2350 N2338 0.984 . S
H2351 N2338 0.985 . S
C2352 C2353 1.363 . S
C2352 C2358 1.379 . S
C2352 N2360 1.356 . S
C2353 C2352 1.363 . S
C2353 C2359 1.363 . S
C2354 C2355 1.363 . S
C2354 C2359 1.379 . S
C2354 N2361 1.356 . S
C2355 C2354 1.363 . S
C2355 C2358 1.363 . S
N2356 C2358 1.356 . S
N2356 H2368 0.984 . S
N2356 H2369 0.985 . S
N2357 C2359 1.356 . S
N2357 H2362 0.984 . S
N2357 H2363 0.985 . S
C2358 C2352 1.379 . S
C2358 C2355 1.363 . S
C2358 N2356 1.356 . S
C2359 C2353 1.363 . S
C2359 C2354 1.379 . S
C2359 N2357 1.356 . S
N2360 C2352 1.356 . S
N2360 H2366 0.984 . S
N2360 H2367 0.984 . S
N2361 C2354 1.356 . S
N2361 H2364 0.984 . S
N2361 H2365 0.985 . S
H2362 N2357 0.984 . S
H2363 N2357 0.985 . S
H2364 N2361 0.984 . S
H2365 N2361 0.985 . S
H2366 N2360 0.984 . S
H2367 N2360 0.984 . S
H2368 N2356 0.984 . S
H2369 N2356 0.985 . S
C2370 C2371 1.363 . S
C2370 C2376 1.379 . S
C2370 N2378 1.356 . S
C2371 C2370 1.363 . S
C2371 C2377 1.363 . S
C2372 C2373 1.363 . S
C2372 C2377 1.379 . S
C2372 N2379 1.356 . S
C2373 C2372 1.363 . S
C2373 C2376 1.363 . S
N2374 C2376 1.356 . S
N2374 H2386 0.984 . S
N2374 H2387 0.985 . S
N2375 C2377 1.356 . S
N2375 H2380 0.984 . S
N2375 H2381 0.985 . S
C2376 C2370 1.379 . S
C2376 C2373 1.363 . S
C2376 N2374 1.356 . S
C2377 C2371 1.363 . S
C2377 C2372 1.379 . S
C2377 N2375 1.356 . S
N2378 C2370 1.356 . S
N2378 H2384 0.984 . S
N2378 H2385 0.984 . S
N2379 C2372 1.356 . S
N2379 H2382 0.984 . S
N2379 H2383 0.985 . S
H2380 N2375 0.984 . S
H2381 N2375 0.985 . S
H2382 N2379 0.984 . S
H2383 N2379 0.985 . S
H2384 N2378 0.984 . S
H2385 N2378 0.984 . S
H2386 N2374 0.984 . S
H2387 N2374 0.985 . S
C2388 C2389 1.363 . S
C2388 C2394 1.379 . S
C2388 N2396 1.356 . S
C2389 C2388 1.363 . S
C2389 C2395 1.363 . S
C2390 C2391 1.363 . S
C2390 C2395 1.379 . S
C2390 N2397 1.356 . S
C2391 C2390 1.363 . S
C2391 C2394 1.363 . S
N2392 C2394 1.356 . S
N2392 H2404 0.984 . S
N2392 H2405 0.985 . S
N2393 C2395 1.356 . S
N2393 H2398 0.984 . S
N2393 H2399 0.985 . S
C2394 C2388 1.379 . S
C2394 C2391 1.363 . S
C2394 N2392 1.356 . S
C2395 C2389 1.363 . S
C2395 C2390 1.379 . S
C2395 N2393 1.356 . S
N2396 C2388 1.356 . S
N2396 H2402 0.984 . S
N2396 H2403 0.984 . S
N2397 C2390 1.356 . S
N2397 H2400 0.984 . S
N2397 H2401 0.985 . S
H2398 N2393 0.984 . S
H2399 N2393 0.985 . S
H2400 N2397 0.984 . S
H2401 N2397 0.985 . S
H2402 N2396 0.984 . S
H2403 N2396 0.984 . S
H2404 N2392 0.984 . S
H2405 N2392 0.985 . S
C2406 C2407 1.363 . S
C2406 C2412 1.379 . S
C2406 N2414 1.356 . S
C2407 C2406 1.363 . S
C2407 C2413 1.363 . S
C2408 C2409 1.363 . S
C2408 C2413 1.379 . S
C2408 N2415 1.356 . S
C2409 C2408 1.363 . S
C2409 C2412 1.363 . S
N2410 C2412 1.356 . S
N2410 H2422 0.984 . S
N2410 H2423 0.985 . S
N2411 C2413 1.356 . S
N2411 H2416 0.984 . S
N2411 H2417 0.985 . S
C2412 C2406 1.379 . S
C2412 C2409 1.363 . S
C2412 N2410 1.356 . S
C2413 C2407 1.363 . S
C2413 C2408 1.379 . S
C2413 N2411 1.356 . S
N2414 C2406 1.356 . S
N2414 H2420 0.984 . S
N2414 H2421 0.984 . S
N2415 C2408 1.356 . S
N2415 H2418 0.984 . S
N2415 H2419 0.985 . S
H2416 N2411 0.984 . S
H2417 N2411 0.985 . S
H2418 N2415 0.984 . S
H2419 N2415 0.985 . S
H2420 N2414 0.984 . S
H2421 N2414 0.984 . S
H2422 N2410 0.984 . S
H2423 N2410 0.985 . S
C2424 C2425 1.363 . S
C2424 C2430 1.379 . S
C2424 N2432 1.356 . S
C2425 C2424 1.363 . S
C2425 C2431 1.363 . S
C2426 C2427 1.363 . S
C2426 C2431 1.379 . S
C2426 N2433 1.356 . S
C2427 C2426 1.363 . S
C2427 C2430 1.363 . S
N2428 C2430 1.356 . S
N2428 H2440 0.984 . S
N2428 H2441 0.985 . S
N2429 C2431 1.356 . S
N2429 H2434 0.984 . S
N2429 H2435 0.985 . S
C2430 C2424 1.379 . S
C2430 C2427 1.363 . S
C2430 N2428 1.356 . S
C2431 C2425 1.363 . S
C2431 C2426 1.379 . S
C2431 N2429 1.356 . S
N2432 C2424 1.356 . S
N2432 H2438 0.984 . S
N2432 H2439 0.984 . S
N2433 C2426 1.356 . S
N2433 H2436 0.984 . S
N2433 H2437 0.985 . S
H2434 N2429 0.984 . S
H2435 N2429 0.985 . S
H2436 N2433 0.984 . S
H2437 N2433 0.985 . S
H2438 N2432 0.984 . S
H2439 N2432 0.984 . S
H2440 N2428 0.984 . S
H2441 N2428 0.985 . S
C2442 C2443 1.363 . S
C2442 C2448 1.379 . S
C2442 N2450 1.356 . S
C2443 C2442 1.363 . S
C2443 C2449 1.363 . S
C2444 C2445 1.363 . S
C2444 C2449 1.379 . S
C2444 N2451 1.356 . S
C2445 C2444 1.363 . S
C2445 C2448 1.363 . S
N2446 C2448 1.356 . S
N2446 H2458 0.984 . S
N2446 H2459 0.985 . S
N2447 C2449 1.356 . S
N2447 H2452 0.984 . S
N2447 H2453 0.985 . S
C2448 C2442 1.379 . S
C2448 C2445 1.363 . S
C2448 N2446 1.356 . S
C2449 C2443 1.363 . S
C2449 C2444 1.379 . S
C2449 N2447 1.356 . S
N2450 C2442 1.356 . S
N2450 H2456 0.984 . S
N2450 H2457 0.984 . S
N2451 C2444 1.356 . S
N2451 H2454 0.984 . S
N2451 H2455 0.985 . S
H2452 N2447 0.984 . S
H2453 N2447 0.985 . S
H2454 N2451 0.984 . S
H2455 N2451 0.985 . S
H2456 N2450 0.984 . S
H2457 N2450 0.984 . S
H2458 N2446 0.984 . S
H2459 N2446 0.985 . S
C2460 C2461 1.363 . S
C2460 C2466 1.379 . S
C2460 N2468 1.356 . S
C2461 C2460 1.363 . S
C2461 C2467 1.363 . S
C2462 C2463 1.363 . S
C2462 C2467 1.379 . S
C2462 N2469 1.356 . S
C2463 C2462 1.363 . S
C2463 C2466 1.363 . S
N2464 C2466 1.356 . S
N2464 H2476 0.984 . S
N2464 H2477 0.985 . S
N2465 C2467 1.356 . S
N2465 H2470 0.984 . S
N2465 H2471 0.985 . S
C2466 C2460 1.379 . S
C2466 C2463 1.363 . S
C2466 N2464 1.356 . S
C2467 C2461 1.363 . S
C2467 C2462 1.379 . S
C2467 N2465 1.356 . S
N2468 C2460 1.356 . S
N2468 H2474 0.984 . S
N2468 H2475 0.984 . S
N2469 C2462 1.356 . S
N2469 H2472 0.984 . S
N2469 H2473 0.985 . S
H2470 N2465 0.984 . S
H2471 N2465 0.985 . S
H2472 N2469 0.984 . S
H2473 N2469 0.985 . S
H2474 N2468 0.984 . S
H2475 N2468 0.984 . S
H2476 N2464 0.984 . S
H2477 N2464 0.985 . S
C2478 C2479 1.363 . S
C2478 C2484 1.379 . S
C2478 N2486 1.356 . S
C2479 C2478 1.363 . S
C2479 C2485 1.363 . S
C2480 C2481 1.363 . S
C2480 C2485 1.379 . S
C2480 N2487 1.356 . S
C2481 C2480 1.363 . S
C2481 C2484 1.363 . S
N2482 C2484 1.356 . S
N2482 H2494 0.984 . S
N2482 H2495 0.985 . S
N2483 C2485 1.356 . S
N2483 H2488 0.984 . S
N2483 H2489 0.985 . S
C2484 C2478 1.379 . S
C2484 C2481 1.363 . S
C2484 N2482 1.356 . S
C2485 C2479 1.363 . S
C2485 C2480 1.379 . S
C2485 N2483 1.356 . S
N2486 C2478 1.356 . S
N2486 H2492 0.984 . S
N2486 H2493 0.984 . S
N2487 C2480 1.356 . S
N2487 H2490 0.984 . S
N2487 H2491 0.985 . S
H2488 N2483 0.984 . S
H2489 N2483 0.985 . S
H2490 N2487 0.984 . S
H2491 N2487 0.985 . S
H2492 N2486 0.984 . S
H2493 N2486 0.984 . S
H2494 N2482 0.984 . S
H2495 N2482 0.985 . S
C2496 C2497 1.363 . S
C2496 C2502 1.379 . S
C2496 N2504 1.356 . S
C2497 C2496 1.363 . S
C2497 C2503 1.363 . S
C2498 C2499 1.363 . S
C2498 C2503 1.379 . S
C2498 N2505 1.356 . S
C2499 C2498 1.363 . S
C2499 C2502 1.363 . S
N2500 C2502 1.356 . S
N2500 H2512 0.984 . S
N2500 H2513 0.985 . S
N2501 C2503 1.356 . S
N2501 H2506 0.984 . S
N2501 H2507 0.985 . S
C2502 C2496 1.379 . S
C2502 C2499 1.363 . S
C2502 N2500 1.356 . S
C2503 C2497 1.363 . S
C2503 C2498 1.379 . S
C2503 N2501 1.356 . S
N2504 C2496 1.356 . S
N2504 H2510 0.984 . S
N2504 H2511 0.984 . S
N2505 C2498 1.356 . S
N2505 H2508 0.984 . S
N2505 H2509 0.985 . S
H2506 N2501 0.984 . S
H2507 N2501 0.985 . S
H2508 N2505 0.984 . S
H2509 N2505 0.985 . S
H2510 N2504 0.984 . S
H2511 N2504 0.984 . S
H2512 N2500 0.984 . S
H2513 N2500 0.985 . S
C2514 C2515 1.363 . S
C2514 C2520 1.379 . S
C2514 N2522 1.356 . S
C2515 C2514 1.363 . S
C2515 C2521 1.363 . S
C2516 C2517 1.363 . S
C2516 C2521 1.379 . S
C2516 N2523 1.356 . S
C2517 C2516 1.363 . S
C2517 C2520 1.363 . S
N2518 C2520 1.356 . S
N2518 H2530 0.984 . S
N2518 H2531 0.985 . S
N2519 C2521 1.356 . S
N2519 H2524 0.984 . S
N2519 H2525 0.985 . S
C2520 C2514 1.379 . S
C2520 C2517 1.363 . S
C2520 N2518 1.356 . S
C2521 C2515 1.363 . S
C2521 C2516 1.379 . S
C2521 N2519 1.356 . S
N2522 C2514 1.356 . S
N2522 H2528 0.984 . S
N2522 H2529 0.984 . S
N2523 C2516 1.356 . S
N2523 H2526 0.984 . S
N2523 H2527 0.985 . S
H2524 N2519 0.984 . S
H2525 N2519 0.985 . S
H2526 N2523 0.984 . S
H2527 N2523 0.985 . S
H2528 N2522 0.984 . S
H2529 N2522 0.984 . S
H2530 N2518 0.984 . S
H2531 N2518 0.985 . S
C2532 C2533 1.363 . S
C2532 C2538 1.379 . S
C2532 N2540 1.356 . S
C2533 C2532 1.363 . S
C2533 C2539 1.363 . S
C2534 C2535 1.363 . S
C2534 C2539 1.379 . S
C2534 N2541 1.356 . S
C2535 C2534 1.363 . S
C2535 C2538 1.363 . S
N2536 C2538 1.356 . S
N2536 H2548 0.984 . S
N2536 H2549 0.985 . S
N2537 C2539 1.356 . S
N2537 H2542 0.984 . S
N2537 H2543 0.985 . S
C2538 C2532 1.379 . S
C2538 C2535 1.363 . S
C2538 N2536 1.356 . S
C2539 C2533 1.363 . S
C2539 C2534 1.379 . S
C2539 N2537 1.356 . S
N2540 C2532 1.356 . S
N2540 H2546 0.984 . S
N2540 H2547 0.984 . S
N2541 C2534 1.356 . S
N2541 H2544 0.984 . S
N2541 H2545 0.985 . S
H2542 N2537 0.984 . S
H2543 N2537 0.985 . S
H2544 N2541 0.984 . S
H2545 N2541 0.985 . S
H2546 N2540 0.984 . S
H2547 N2540 0.984 . S
H2548 N2536 0.984 . S
H2549 N2536 0.985 . S
C2550 C2551 1.363 . S
C2550 C2556 1.379 . S
C2550 N2558 1.356 . S
C2551 C2550 1.363 . S
C2551 C2557 1.363 . S
C2552 C2553 1.363 . S
C2552 C2557 1.379 . S
C2552 N2559 1.356 . S
C2553 C2552 1.363 . S
C2553 C2556 1.363 . S
N2554 C2556 1.356 . S
N2554 H2566 0.984 . S
N2554 H2567 0.985 . S
N2555 C2557 1.356 . S
N2555 H2560 0.984 . S
N2555 H2561 0.985 . S
C2556 C2550 1.379 . S
C2556 C2553 1.363 . S
C2556 N2554 1.356 . S
C2557 C2551 1.363 . S
C2557 C2552 1.379 . S
C2557 N2555 1.356 . S
N2558 C2550 1.356 . S
N2558 H2564 0.984 . S
N2558 H2565 0.984 . S
N2559 C2552 1.356 . S
N2559 H2562 0.984 . S
N2559 H2563 0.985 . S
H2560 N2555 0.984 . S
H2561 N2555 0.985 . S
H2562 N2559 0.984 . S
H2563 N2559 0.985 . S
H2564 N2558 0.984 . S
H2565 N2558 0.984 . S
H2566 N2554 0.984 . S
H2567 N2554 0.985 . S
C843 N300 1.471 . S
C841 C5 1.520 . S
C861 C327 1.611 . S
C859 C16 1.611 . S
C877 C23 1.535 . S
C879 C341 1.530 . S
C897 N359 1.455 . S
C895 C34 1.486 . S
C913 C43 1.580 . S
C915 C364 1.579 . S
C931 C50 1.519 . S
C933 C304 1.521 . S
C949 C58 1.436 . S
C951 N323 1.400 . S
C969 N336 1.458 . S
C967 C68 1.490 . S
C987 N382 1.417 . S
C985 C4 1.451 . S
C1003 C13 1.551 . S
C1005 N405 1.531 . S
C1021 C25 1.565 . S
C1023 N428 1.558 . S
C1041 N461 1.415 . S
C1039 C32 1.458 . S
C1057 C41 1.562 . S
C1059 C488 1.547 . S
C1077 C511 1.589 . S
C1075 C52 1.590 . S
C1093 C61 1.511 . S
C1095 C534 1.513 . S
C1113 C548 1.445 . S
C1111 C67 1.446 . S
C1129 C7 1.471 . S
C1131 C465 1.471 . S
C1147 C40 1.494 . S
C1149 N507 1.461 . S
C1167 N530 1.447 . S
C1165 C49 1.490 . S
C1183 C59 1.491 . S
C1185 N543 1.459 . S
C1203 N484 1.416 . S
C1201 C70 1.464 . S
C1221 C410 1.668 . S
C1219 C22 1.670 . S
C1237 C31 1.508 . S
C1239 C433 1.504 . S
C1257 C387 1.613 . S
C1255 C14 1.618 . S
C1275 C580 1.469 . S
C1273 C77 1.472 . S
C1291 C88 1.600 . S
C1293 C594 1.600 . S
C1309 C95 1.510 . S
C1311 N622 1.461 . S
C1329 N635 1.438 . S
C1327 C106 1.469 . S
C1345 C115 1.594 . S
C1347 C640 1.594 . S
C1363 C122 1.510 . S
C1365 N576 1.461 . S
C1381 C130 1.516 . S
C1383 N589 1.491 . S
C1399 C140 1.465 . S
C1401 C626 1.455 . S
C1419 N474 1.428 . S
C1417 C76 1.454 . S
C1435 C85 1.511 . S
C1437 N658 1.467 . S
C1455 N520 1.453 . S
C1453 C97 1.479 . S
C1471 C104 1.515 . S
C1473 C695 1.519 . S
C1489 C113 1.607 . S
C1491 C396 1.605 . S
C1509 C709 1.605 . S
C1507 C124 1.605 . S
C1525 C133 1.537 . S
C1527 C442 1.529 . S
C1545 N727 1.414 . S
C1543 C139 1.446 . S
C1561 C79 1.478 . S
C1563 N691 1.434 . S
C1581 N704 1.490 . S
C1579 C112 1.528 . S
C1597 C121 1.506 . S
C1599 N438 1.456 . S
C1617 C732 1.436 . S
C1615 C131 1.436 . S
C1633 C142 1.450 . S
C1635 N392 1.410 . S
C1651 C94 1.572 . S
C1653 C663 1.572 . S
C1669 C103 1.567 . S
C1671 C525 1.561 . S
C1687 C86 1.591 . S
C1689 C479 1.592 . S
C1705 C149 1.535 . S
C1707 C617 1.534 . S
C1725 C649 1.550 . S
C1723 C160 1.557 . S
C1741 C167 1.491 . S
C1743 N566 1.467 . S
C1759 C178 1.467 . S
C1761 N599 1.424 . S
C1777 C187 1.596 . S
C1779 C603 1.586 . S
C1795 C194 1.550 . S
C1797 N612 1.526 . S
C1815 N645 1.363 . S
C1813 C202 1.406 . S
C1831 C212 1.502 . S
C1833 C571 1.501 . S
C1851 N760 1.437 . S
C1849 C148 1.478 . S
C1867 C157 1.480 . S
C1869 N497 1.445 . S
C1887 N783 1.389 . S
C1885 C169 1.438 . S
C1903 C176 1.500 . S
C1905 N553 1.463 . S
C1921 C185 1.569 . S
C1923 C801 1.569 . S
C1939 C196 1.665 . S
C1941 C419 1.665 . S
C1959 N819 1.376 . S
C1957 C205 1.418 . S
C1975 C211 1.500 . S
C1977 C456 1.497 . S
C1995 C557 1.501 . S
C1993 C151 1.503 . S
C2013 N415 1.500 . S
C2011 C184 1.558 . S
C2029 C193 1.582 . S
C2031 C824 1.580 . S
C2047 C203 1.400 . S
C2049 N451 1.356 . S
C2067 N796 1.481 . S
C2065 C214 1.506 . S
C2085 C502 1.573 . S
C2083 C166 1.571 . S
C2103 C787 1.580 . S
C2101 C175 1.582 . S
C2121 C764 1.583 . S
C2119 C158 1.582 . S
C2137 C221 1.428 . S
C2139 N346 1.389 . S
C2155 C232 1.573 . S
C2157 C373 1.565 . S
C2175 C295 1.555 . S
C2173 C239 1.557 . S
C2193 N313 1.389 . S
C2191 C250 1.422 . S
C2211 C318 1.604 . S
C2209 C259 1.609 . S
C2229 C350 1.544 . S
C2227 C266 1.532 . S
C2247 N369 1.481 . S
C2245 C274 1.524 . S
C2263 C284 1.514 . S
C2265 N290 1.490 . S
C2281 C220 1.405 . S
C2283 N806 1.363 . S
C2301 N714 1.482 . S
C2299 C229 1.514 . S
C2319 C833 1.601 . S
C2317 C241 1.594 . S
C2337 C741 1.380 . S
C2335 C248 1.387 . S
C2353 C257 1.589 . S
C2355 C755 1.584 . S
C2373 C672 1.590 . S
C2371 C268 1.594 . S
C2391 C778 1.639 . S
C2389 C277 1.644 . S
C2407 C283 1.480 . S
C2409 N681 1.444 . S
C2427 N737 1.366 . S
C2425 C223 1.405 . S
C2445 N668 1.465 . S
C2443 C256 1.495 . S
C2463 N773 1.426 . S
C2461 C265 1.446 . S
C2479 C275 1.514 . S
C2481 C686 1.510 . S
C2497 C286 1.439 . S
C2499 N750 1.408 . S
C2515 C238 1.683 . S
C2517 C718 1.678 . S
C2533 C247 1.431 . S
C2535 N829 1.399 . S
C2553 C810 1.551 . S
C2551 C230 1.556 . S
