# Generated by pormake.
# Topology zzz, (3,6)-cn, num edge types: 1
# Building blocks:
#     Node 0, Type 0, BuildingBlock: MIDCAF_clean_linker_0, # of connection points: 3
#     Node 1, Type 0, BuildingBlock: MIDCAF_clean_linker_0, # of connection points: 3
#     Node 2, Type 0, BuildingBlock: MIDCAF_clean_linker_0, # of connection points: 3
#     Node 3, Type 0, BuildingBlock: MIDCAF_clean_linker_0, # of connection points: 3
#     Node 4, Type 0, BuildingBlock: MIDCAF_clean_linker_0, # of connection points: 3
#     Node 5, Type 0, BuildingBlock: MIDCAF_clean_linker_0, # of connection points: 3
#     Node 6, Type 0, BuildingBlock: MIDCAF_clean_linker_0, # of connection points: 3
#     Node 7, Type 0, BuildingBlock: MIDCAF_clean_linker_0, # of connection points: 3
#     Node 8, Type 1, BuildingBlock: CIFDUS_clean_sbu_1, # of connection points: 6
#     Node 9, Type 1, BuildingBlock: CIFDUS_clean_sbu_1, # of connection points: 6
#     Node 10, Type 1, BuildingBlock: CIFDUS_clean_sbu_1, # of connection points: 6
#     Node 11, Type 1, BuildingBlock: CIFDUS_clean_sbu_1, # of connection points: 6
#     Edge 12, Type (0, 1), BuildingBlock: AJUNOK_clean_linker_0, # of connection points: 2
#     Edge 13, Type (0, 1), BuildingBlock: AJUNOK_clean_linker_0, # of connection points: 2
#     Edge 14, Type (0, 1), BuildingBlock: AJUNOK_clean_linker_0, # of connection points: 2
#     Edge 15, Type (0, 1), BuildingBlock: AJUNOK_clean_linker_0, # of connection points: 2
#     Edge 16, Type (0, 1), BuildingBlock: AJUNOK_clean_linker_0, # of connection points: 2
#     Edge 17, Type (0, 1), BuildingBlock: AJUNOK_clean_linker_0, # of connection points: 2
#     Edge 18, Type (0, 1), BuildingBlock: AJUNOK_clean_linker_0, # of connection points: 2
#     Edge 19, Type (0, 1), BuildingBlock: AJUNOK_clean_linker_0, # of connection points: 2
#     Edge 20, Type (0, 1), BuildingBlock: AJUNOK_clean_linker_0, # of connection points: 2
#     Edge 21, Type (0, 1), BuildingBlock: AJUNOK_clean_linker_0, # of connection points: 2
#     Edge 22, Type (0, 1), BuildingBlock: AJUNOK_clean_linker_0, # of connection points: 2
#     Edge 23, Type (0, 1), BuildingBlock: AJUNOK_clean_linker_0, # of connection points: 2
#     Edge 24, Type (0, 1), BuildingBlock: AJUNOK_clean_linker_0, # of connection points: 2
#     Edge 25, Type (0, 1), BuildingBlock: AJUNOK_clean_linker_0, # of connection points: 2
#     Edge 26, Type (0, 1), BuildingBlock: AJUNOK_clean_linker_0, # of connection points: 2
#     Edge 27, Type (0, 1), BuildingBlock: AJUNOK_clean_linker_0, # of connection points: 2
#     Edge 28, Type (0, 1), BuildingBlock: AJUNOK_clean_linker_0, # of connection points: 2
#     Edge 29, Type (0, 1), BuildingBlock: AJUNOK_clean_linker_0, # of connection points: 2
#     Edge 30, Type (0, 1), BuildingBlock: AJUNOK_clean_linker_0, # of connection points: 2
#     Edge 31, Type (0, 1), BuildingBlock: AJUNOK_clean_linker_0, # of connection points: 2
#     Edge 32, Type (0, 1), BuildingBlock: AJUNOK_clean_linker_0, # of connection points: 2
#     Edge 33, Type (0, 1), BuildingBlock: AJUNOK_clean_linker_0, # of connection points: 2
#     Edge 34, Type (0, 1), BuildingBlock: AJUNOK_clean_linker_0, # of connection points: 2
#     Edge 35, Type (0, 1), BuildingBlock: AJUNOK_clean_linker_0, # of connection points: 2
# Relax obj value: 0.311
# Max RMSD: 0.223
# Mean RMSD: 0.207
data_MOF--net-zzz--node1-CIFDUS_clean_sbu_1--node2-MIDCAF_clean_linker_0--edge1-AJUNOK_clean_linker_0
_symmetry_space_group_name_H-M    P1
_symmetry_Int_Tables_number       1
_symmetry_cell_setting            triclinic
loop_
_symmetry_equiv_pos_as_xyz
'x, y, z'
_cell_length_a     41.66728
_cell_length_b     44.859302
_cell_length_c     16.247927
_cell_angle_alpha  89.589568
_cell_angle_beta   90.237396
_cell_angle_gamma 88.783142
loop_
_atom_site_label
_atom_site_type_symbol
_atom_site_fract_x
_atom_site_fract_y
_atom_site_fract_z
_atom_type_partial_charge
C0 C 0.81293 0.55375 0.50404 0.0
C1 C 0.83624 0.57406 0.52926 0.0
C2 C 0.83274 0.60399 0.50488 0.0
C3 C 0.8084 0.61279 0.4496 0.0
H4 H 0.6877 0.57932 0.26877 0.0
H5 H 0.63907 0.56911 0.18861 0.0
H6 H 0.68934 0.59082 0.96486 0.0
H7 H 0.73638 0.60237 0.04348 0.0
H8 H 0.80944 0.58172 0.03248 0.0
H9 H 0.85719 0.56168 0.96424 0.0
H10 H 0.91347 0.5761 0.18324 0.0
H11 H 0.86616 0.59656 0.25194 0.0
H12 H 0.77412 0.54546 0.42045 0.0
H13 H 0.81507 0.53051 0.5222 0.0
H14 H 0.85019 0.62013 0.52405 0.0
H15 H 0.80863 0.63529 0.42487 0.0
N16 N 0.75064 0.59325 0.29163 0.0
N17 N 0.77488 0.59452 0.16065 0.0
N18 N 0.80659 0.59659 0.27817 0.0
C19 C 0.74779 0.59382 0.20722 0.0
C20 C 0.8043 0.59581 0.19578 0.0
C21 C 0.7805 0.59542 0.32668 0.0
C22 C 0.71633 0.5913 0.16307 0.0
C23 C 0.688 0.58268 0.20272 0.0
C24 C 0.66013 0.57675 0.15657 0.0
C25 C 0.65993 0.57935 0.06978 0.0
C26 C 0.68784 0.58937 0.03125 0.0
C27 C 0.71534 0.59548 0.07695 0.0
C28 C 0.83382 0.59036 0.14796 0.0
C29 C 0.83207 0.58134 0.06558 0.0
C30 C 0.85928 0.56971 0.02674 0.0
C31 C 0.88855 0.56701 0.06963 0.0
C32 C 0.89089 0.5776 0.14997 0.0
C33 C 0.86381 0.58948 0.18864 0.0
C34 C 0.78784 0.59164 0.41507 0.0
C35 C 0.78892 0.56247 0.44726 0.0
C36 C 0.96964 0.8214 0.47615 0.0
C37 C 1.00111 0.82989 0.49558 0.0
C38 C 0.02658 0.8116 0.4662 0.0
C39 C 0.02092 0.78787 0.41188 0.0
H40 H 0.02882 0.69303 0.20433 0.0
H41 H 0.03691 0.65039 0.11141 0.0
H42 H 0.95265 0.67803 0.97327 0.0
H43 H 0.9452 0.72053 0.06403 0.0
H44 H 1.00371 0.79858 0.01273 0.0
H45 H 0.02217 0.84564 0.95519 0.0
H46 H 0.97339 0.89387 0.14863 0.0
H47 H 0.95371 0.84719 0.20374 0.0
H48 H 0.93966 0.79397 0.40212 0.0
H49 H 0.94924 0.83485 0.49566 0.0
H50 H 0.0512 0.81687 0.48068 0.0
H51 H 0.0413 0.77688 0.38296 0.0
N52 N 0.98833 0.74428 0.26694 0.0
N53 N 0.97986 0.76444 0.13326 0.0
N54 N 0.97924 0.79572 0.24686 0.0
C55 C 0.9848 0.74019 0.18316 0.0
C56 C 0.97698 0.79219 0.16506 0.0
C57 C 0.98488 0.77261 0.29847 0.0
C58 C 0.98633 0.71031 0.14201 0.0
C59 C 1.01151 0.68941 0.15573 0.0
C60 C 0.01611 0.66492 0.10214 0.0
C61 C 0.9955 0.66062 0.03393 0.0
C62 C 0.96928 0.6806 0.02401 0.0
C63 C 0.96489 0.70498 0.07668 0.0
C64 C 0.97792 0.81924 0.11364 0.0
C65 C 0.99586 0.81929 0.04087 0.0
C66 C 1.00703 0.84614 1.00922 0.0
C67 C 1.00054 0.8731 0.05033 0.0
C68 C 0.97937 0.87333 0.11701 0.0
C69 C 0.96799 0.8466 0.14815 0.0
C70 C 0.98962 0.78151 0.38564 0.0
C71 C 0.96405 0.79744 0.42286 0.0
C72 C 0.71187 0.93077 0.49704 0.0
C73 C 0.70508 0.96155 0.49893 0.0
C74 C 0.72473 0.98074 0.4535 0.0
C75 C 0.74797 0.96914 0.39952 0.0
H76 H 0.85146 0.93766 0.24537 0.0
H77 H 0.89965 0.9485 0.16523 0.0
H78 H 0.8461 0.93619 0.94036 0.0
H79 H 0.79907 0.92418 0.01898 0.0
H80 H 0.72617 0.92059 0.01515 0.0
H81 H 0.67537 0.93561 0.95032 0.0
H82 H 0.62544 0.91872 0.17727 0.0
H83 H 0.67582 0.90286 0.2422 0.0
H84 H 0.73679 0.89526 0.43522 0.0
H85 H 0.69734 0.91542 0.53173 0.0
H86 H 0.72057 0.00464 0.4553 0.0
H87 H 0.76001 0.98431 0.35828 0.0
N88 N 0.78792 0.93147 0.26784 0.0
N89 N 0.76418 0.91671 0.14298 0.0
N90 N 0.7339 0.91779 0.26296 0.0
C91 C 0.79069 0.92525 0.18557 0.0
C92 C 0.7357 0.91292 0.1814 0.0
C93 C 0.75936 0.92701 0.30676 0.0
C94 C 0.82104 0.93038 0.13915 0.0
C95 C 0.85011 0.93702 0.17885 0.0
C96 C 0.87774 0.94337 0.13276 0.0
C97 C 0.87682 0.94365 0.04591 0.0
C98 C 0.84806 0.9359 1.00685 0.0
C99 C 0.82077 0.92927 0.0525 0.0
C100 C 0.70526 0.91136 0.13453 0.0
C101 C 0.70429 0.91884 0.05043 0.0
C102 C 0.67524 0.92758 0.01338 0.0
C103 C 0.64692 0.929 0.05994 0.0
C104 C 0.64719 0.91826 0.14094 0.0
C105 C 0.67609 0.90914 0.1777 0.0
C106 C 0.75172 0.93819 0.38963 0.0
C107 C 0.73492 0.91921 0.44277 0.0
C108 C 0.45204 0.65778 0.09794 0.0
C109 C 0.4664 0.64959 0.02366 0.0
C110 C 0.48429 0.67042 0.97933 0.0
C111 C 0.49006 0.69845 0.01247 0.0
H112 H 0.57199 0.79206 0.0604 0.0
H113 H 0.57515 0.83438 0.96411 0.0
H114 H 0.48155 0.86552 0.04222 0.0
H115 H 0.47885 0.82353 0.13898 0.0
H116 H 0.5791 0.71199 0.29782 0.0
H117 H 0.58518 0.67215 0.40107 0.0
H118 H 0.49195 0.6959 0.49852 0.0
H119 H 0.48686 0.73619 0.39797 0.0
H120 H 0.44903 0.69066 0.19243 0.0
H121 H 0.4381 0.64193 0.13257 0.0
H122 H 0.49541 0.66431 0.9215 0.0
H123 H 0.5061 0.71326 0.98055 0.0
N124 N 0.50176 0.75556 0.1052 0.0
N125 N 0.53018 0.76747 0.22678 0.0
N126 N 0.50405 0.72176 0.21509 0.0
C127 C 0.51934 0.77528 0.14897 0.0
C128 C 0.5222 0.74025 0.25962 0.0
C129 C 0.49383 0.72895 0.13868 0.0
C130 C 0.52553 0.80477 0.10912 0.0
C131 C 0.55268 0.80861 0.05921 0.0
C132 C 0.55418 0.83265 1.00282 0.0
C133 C 0.52836 0.85336 0.99383 0.0
C134 C 0.50202 0.85032 0.04724 0.0
C135 C 0.50052 0.82628 0.10333 0.0
C136 C 0.53293 0.72808 0.34091 0.0
C137 C 0.56084 0.70983 0.34462 0.0
C138 C 0.56379 0.68624 0.40236 0.0
C139 C 0.53863 0.67985 0.45729 0.0
C140 C 0.51201 0.69983 0.45798 0.0
C141 C 0.50923 0.72344 0.40083 0.0
C142 C 0.47842 0.70556 0.09087 0.0
C143 C 0.45814 0.68562 0.13161 0.0
C144 C 0.19144 0.41077 1.00489 0.0
C145 C 0.19745 0.43837 0.96672 0.0
C146 C 0.22725 0.4517 0.98422 0.0
C147 C 0.24806 0.43979 0.04534 0.0
H148 H 0.34472 0.42179 0.21315 0.0
H149 H 0.39552 0.43408 0.28076 0.0
H150 H 0.34954 0.42775 0.5178 0.0
H151 H 0.30021 0.41423 0.45211 0.0
H152 H 0.22723 0.42888 0.46367 0.0
H153 H 0.18095 0.45719 0.51423 0.0
H154 H 0.12235 0.42221 0.31935 0.0
H155 H 0.1681 0.39275 0.27064 0.0
H156 H 0.20611 0.37787 0.09304 0.0
H157 H 0.16879 0.39982 0.99822 0.0
H158 H 0.23363 0.47246 0.95485 0.0
H159 H 0.26854 0.45252 0.06453 0.0
N160 N 0.28059 0.41319 0.20466 0.0
N161 N 0.26033 0.40851 0.33959 0.0
N162 N 0.22608 0.4042 0.22769 0.0
C163 C 0.28582 0.41206 0.28831 0.0
C164 C 0.2304 0.40452 0.30962 0.0
C165 C 0.25034 0.40857 0.1745 0.0
C166 C 0.31794 0.41745 0.3265 0.0
C167 C 0.34564 0.42269 0.27969 0.0
C168 C 0.37475 0.42991 0.3186 0.0
C169 C 0.37671 0.43241 0.40512 0.0
C170 C 0.34935 0.4258 0.45139 0.0
C171 C 0.32065 0.41834 0.41301 0.0
C172 C 0.20167 0.40965 0.36096 0.0
C173 C 0.20423 0.42613 0.43365 0.0
C174 C 0.17789 0.44281 0.4616 0.0
C175 C 0.14885 0.44324 0.41709 0.0
C176 C 0.14484 0.423 0.35291 0.0
C177 C 0.17106 0.40604 0.32548 0.0
C178 C 0.24011 0.41363 0.08781 0.0
C179 C 0.21307 0.39806 0.06129 0.0
C180 C 1.01041 0.20611 0.9609 0.0
C181 C 0.03687 0.18596 0.96273 0.0
C182 C 0.06328 0.19335 0.01263 0.0
C183 C 0.06165 0.21806 0.06578 0.0
H184 H 1.01041 0.33763 0.21904 0.0
H185 H 1.01092 0.3823 0.30653 0.0
H186 H 0.05149 0.32962 0.50573 0.0
H187 H 0.05067 0.28542 0.41932 0.0
H188 H 1.00448 0.22221 0.44538 0.0
H189 H 0.99961 0.17397 0.51466 0.0
H190 H 0.96957 0.13446 0.28597 0.0
H191 H 0.97212 0.18265 0.2185 0.0
H192 H 0.98655 0.2435 0.01734 0.0
H193 H 0.98953 0.20148 0.92361 0.0
H194 H 0.08458 0.17912 0.01416 0.0
H195 H 0.08086 0.22087 0.11003 0.0
N196 N 0.03166 0.27398 0.1873 0.0
N197 N 1.00927 0.25767 0.31321 0.0
N198 N 1.00891 0.22669 0.19891 0.0
C199 C 0.02372 0.27939 0.26835 0.0
C200 C 1.0014 0.23147 0.27812 0.0
C201 C 0.02402 0.24706 0.15301 0.0
C202 C 0.03082 0.30792 0.31167 0.0
C203 C 0.02045 0.33587 0.28052 0.0
C204 C 0.02047 0.36141 0.33105 0.0
C205 C 0.03147 0.35977 0.41341 0.0
C206 C 0.04343 0.33208 0.44254 0.0
C207 C 0.04287 0.30661 0.39281 0.0
C208 C 0.98965 0.20599 0.32609 0.0
C209 C 0.99577 0.20347 0.41078 0.0
C210 C 0.9936 0.17574 0.44986 0.0
C211 C 0.98586 0.15025 0.40436 0.0
C212 C 0.97625 0.15357 0.32212 0.0
C213 C 0.97782 0.18125 0.28357 0.0
C214 C 0.0337 0.23621 0.07043 0.0
C215 C 1.00891 0.2308 0.01374 0.0
C216 C 0.32152 0.02821 0.00936 0.0
C217 C 0.33465 0.04791 0.95154 0.0
C218 C 0.32214 0.07719 0.94617 0.0
C219 C 0.29934 0.08738 1.00315 0.0
H220 H 0.20412 0.04246 0.24805 0.0
H221 H 0.16027 0.03102 0.34168 0.0
H222 H 0.17806 0.1118 0.47604 0.0
H223 H 0.2229 0.12227 0.38509 0.0
H224 H 0.31174 0.09416 0.4331 0.0
H225 H 0.36298 0.07973 0.49647 0.0
H226 H 0.41202 0.09948 0.27003 0.0
H227 H 0.3611 0.1148 0.20667 0.0
H228 H 0.29109 0.02346 0.11456 0.0
H229 H 0.33066 0.00548 0.01447 0.0
H230 H 0.33196 0.09289 0.90255 0.0
H231 H 0.2929 0.11091 1.0037 0.0
N232 N 0.25138 0.0778 0.18426 0.0
N233 N 0.27337 0.09829 0.30493 0.0
N234 N 0.30478 0.09328 0.18731 0.0
C235 C 0.24765 0.0873 0.2637 0.0
C236 C 0.3021 0.10123 0.26688 0.0
C237 C 0.28002 0.08172 0.14547 0.0
C238 C 0.21721 0.0831 0.30956 0.0
C239 C 0.19815 0.0581 0.29639 0.0
C240 C 0.17276 0.0517 0.34992 0.0
C241 C 0.16538 0.07052 0.41677 0.0
C242 C 0.18318 0.0966 0.42605 0.0
C243 C 0.20888 0.10264 0.37372 0.0
C244 C 0.3322 0.10476 0.3141 0.0
C245 C 0.33352 0.09684 0.39786 0.0
C246 C 0.36283 0.08836 0.43401 0.0
C247 C 0.39103 0.0877 0.38686 0.0
C248 C 0.39037 0.09928 0.30672 0.0
C249 C 0.3612 0.10815 0.27091 0.0
C250 C 0.28831 0.0684 0.06567 0.0
C251 C 0.29832 0.03831 0.06542 0.0
C252 C 0.57687 0.36892 0.31319 0.0
C253 C 0.57758 0.3722 0.39858 0.0
C254 C 0.57271 0.34737 0.4498 0.0
C255 C 0.56409 0.32012 0.41588 0.0
H256 H 0.52682 0.24144 0.47304 0.0
H257 H 0.52435 0.19826 0.56138 0.0
H258 H 0.48797 0.14648 0.36001 0.0
H259 H 0.49147 0.19051 0.26854 0.0
H260 H 0.52314 0.26615 0.03233 0.0
H261 H 0.52091 0.3045 0.92499 0.0
H262 H 0.45661 0.35751 0.0746 0.0
H263 H 0.4576 0.31837 0.17904 0.0
H264 H 0.56651 0.34031 0.2129 0.0
H265 H 0.58069 0.38788 0.27299 0.0
H266 H 0.57312 0.3497 0.51613 0.0
H267 H 0.55789 0.30199 0.45683 0.0
N268 N 0.53576 0.2677 0.33818 0.0
N269 N 0.50004 0.25224 0.23405 0.0
N270 N 0.52732 0.29748 0.22212 0.0
C271 C 0.51527 0.24692 0.30865 0.0
C272 C 0.50642 0.27802 0.19091 0.0
C273 C 0.54209 0.2928 0.29487 0.0
C274 C 0.50967 0.21983 0.36233 0.0
C275 C 0.51819 0.22104 0.44642 0.0
C276 C 0.51648 0.19604 0.49814 0.0
C277 C 0.50609 0.16845 0.46882 0.0
C278 C 0.49662 0.16712 0.38509 0.0
C279 C 0.49828 0.19251 0.3326 0.0
C280 C 0.49012 0.28868 0.11422 0.0
C281 C 0.50657 0.28488 0.03954 0.0
C282 C 0.50595 0.30746 0.97878 0.0
C283 C 0.48919 0.33479 0.9912 0.0
C284 C 0.46959 0.33696 0.06141 0.0
C285 C 0.46981 0.31411 0.12142 0.0
C286 C 0.56028 0.31755 0.33034 0.0
C287 C 0.56865 0.34169 0.27923 0.0
O288 O 0.02956 0.04866 0.79317 0.0
Mn289 Mn 0.02272 0.00704 0.73422 0.0
O290 O 0.98214 0.07329 0.77488 0.0
Mn291 Mn 0.95892 0.04228 0.72878 0.0
O292 O 1.01535 0.96533 0.67447 0.0
O293 O 0.06998 0.00532 0.70167 0.0
Mn294 Mn 0.08542 0.97013 0.73475 0.0
O295 O 0.03087 0.98427 0.84373 0.0
O296 O 0.06386 0.94194 0.67356 0.0
O297 O 1.0142 0.03053 0.62466 0.0
O298 O 0.96159 0.03942 0.61638 0.0
O299 O 0.11957 0.98869 0.68836 0.0
O300 O 0.08112 0.96637 0.84742 0.0
C301 C 0.94841 0.0048 0.80451 0.0
C302 C 1.01132 0.07229 0.7999 0.0
C303 C 0.03403 0.94292 0.65534 0.0
C304 C 0.09853 0.00957 0.67192 0.0
C305 C 0.05391 0.97041 0.88093 0.0
C306 C 0.9894 0.04049 0.58541 0.0
O307 O 0.97589 0.0089 0.76904 0.0
O308 O 0.92664 0.02489 0.7871 0.0
O309 O 0.54033 0.99323 0.8285 0.0
Mn310 Mn 0.51916 0.00709 0.71954 0.0
O311 O 0.56551 0.03142 0.8854 0.0
Mn312 Mn 0.57067 0.05006 0.78369 0.0
O313 O 0.49808 0.02119 0.61094 0.0
O314 O 0.50465 0.96453 0.70776 0.0
Mn315 Mn 0.46803 0.96459 0.65213 0.0
O316 O 0.47559 0.01699 0.77899 0.0
O317 O 0.47383 0.98331 0.55074 0.0
O318 O 0.56269 0.99701 0.65992 0.0
O319 O 0.59853 0.02861 0.71521 0.0
O320 O 0.47781 0.92518 0.68047 0.0
O321 O 0.43988 0.98634 0.71906 0.0
C322 C 0.53606 0.07809 0.71713 0.0
C323 C 0.5564 0.00447 0.88736 0.0
C324 C 0.48247 0.01039 0.55079 0.0
C325 C 0.50148 0.93617 0.72124 0.0
C326 C 0.44687 0.00731 0.76867 0.0
C327 C 0.59133 0.00718 0.66743 0.0
O328 O 0.53349 0.04969 0.73087 0.0
O329 O 0.56011 0.08936 0.7557 0.0
O330 O 0.5013 0.53185 0.82514 0.0
Mn331 Mn 0.52096 0.5069 0.72703 0.0
O332 O 0.44985 0.53901 0.79758 0.0
Mn333 Mn 0.4598 0.53878 0.68822 0.0
O334 O 0.54057 0.48221 0.62835 0.0
O335 O 0.56345 0.50997 0.79432 0.0
Mn336 Mn 0.58238 0.476 0.76416 0.0
O337 O 0.51036 0.46598 0.78946 0.0
O338 O 0.5922 0.47602 0.65478 0.0
O339 O 0.53177 0.54748 0.66436 0.0
O340 O 0.48365 0.57052 0.64985 0.0
O341 O 0.61161 0.49133 0.83158 0.0
O342 O 0.55903 0.44421 0.80316 0.0
C343 C 0.45199 0.50163 0.61653 0.0
C344 C 0.47317 0.54089 0.84677 0.0
C345 C 0.56886 0.47404 0.60576 0.0
C346 C 0.59007 0.51246 0.83768 0.0
C347 C 0.52868 0.44369 0.81255 0.0
C348 C 0.51404 0.57014 0.64152 0.0
O349 O 0.47846 0.50428 0.66019 0.0
O350 O 0.43078 0.52313 0.62051 0.0
O351 O 0.06572 0.4948 0.78124 0.0
Mn352 Mn 0.02293 0.51161 0.7261 0.0
O353 O 0.1021 0.53089 0.76596 0.0
Mn354 Mn 0.07612 0.55704 0.70435 0.0
O355 O 0.97942 0.52805 0.67317 0.0
O356 O 1.00791 0.46876 0.70569 0.0
Mn357 Mn 0.97136 0.46652 0.76164 0.0
O358 O 1.00193 0.51569 0.83912 0.0
O359 O 0.94337 0.49342 0.70971 0.0
O360 O 0.04446 0.50853 0.61208 0.0
O361 O 0.07417 0.54871 0.59296 0.0
O362 O 0.97746 0.42975 0.71577 0.0
O363 O 0.97583 0.47502 0.87255 0.0
C364 C 0.04111 0.58177 0.77273 0.0
C365 C 0.09408 0.50524 0.79258 0.0
C366 C 0.95037 0.51838 0.67666 0.0
C367 C 1.00194 0.44169 0.68049 0.0
C368 C 0.98464 0.50123 0.88895 0.0
C369 C 0.06298 0.52425 0.56755 0.0
O370 O 0.03738 0.5544 0.74757 0.0
O371 O 0.06697 0.59409 0.74642 0.0
C372 C 0.15194 0.06346 0.56617 0.0
C373 C 0.14266 0.061 0.48292 0.0
C374 C 0.13473 0.04965 0.62937 0.0
C375 C 0.10732 0.03303 0.61247 0.0
H376 H 0.17409 0.07418 0.58247 0.0
H377 H 0.14443 0.05001 0.69133 0.0
S378 S 0.06989 0.02317 0.40749 0.0
N379 N 0.1015 0.04377 0.38885 0.0
N380 N 0.07008 0.01674 0.50774 0.0
C381 C 0.09637 0.03208 0.53067 0.0
C382 C 0.11377 0.04635 0.46599 0.0
C383 C 0.49765 0.14525 0.60989 0.0
C384 C 0.50674 0.14171 0.52668 0.0
C385 C 0.50437 0.12313 0.67007 0.0
C386 C 0.51982 0.09595 0.65017 0.0
H387 H 0.48667 0.16606 0.62982 0.0
H388 H 0.49902 0.12807 0.7338 0.0
S389 S 0.54637 0.07378 0.44127 0.0
N390 N 0.5303 0.10743 0.42745 0.0
N391 N 0.54267 0.06608 0.54031 0.0
C392 C 0.52722 0.09118 0.56666 0.0
C393 C 0.52053 0.11383 0.50508 0.0
C394 C 0.41477 0.43408 0.52691 0.0
C395 C 0.40529 0.44502 0.44833 0.0
C396 C 0.43461 0.45062 0.57937 0.0
C397 C 0.44612 0.47843 0.55455 0.0
H398 H 0.40476 0.41367 0.55065 0.0
H399 H 0.43826 0.44298 0.6422 0.0
S400 S 0.43342 0.51491 0.35126 0.0
N401 N 0.41265 0.48406 0.34581 0.0
N402 N 0.45042 0.51433 0.44319 0.0
C403 C 0.43982 0.48796 0.47332 0.0
C404 C 0.4194 0.47144 0.42035 0.0
C405 C 0.99685 0.39985 0.47912 0.0
C406 C 0.02707 0.38549 0.47205 0.0
C407 C 0.99023 0.42018 0.54289 0.0
C408 C 1.01356 0.4277 0.60211 0.0
H409 H 0.97744 0.39392 0.43824 0.0
H410 H 0.9659 0.42891 0.54858 0.0
S411 S 0.09823 0.40068 0.6021 0.0
N412 N 0.08177 0.38304 0.52425 0.0
N413 N 0.06938 0.42176 0.6425 0.0
C414 C 0.04455 0.41532 0.59204 0.0
C415 C 0.05123 0.39412 0.5277 0.0
C416 C 0.91126 0.94142 0.91814 0.0
C417 C 0.904 0.95482 0.99459 0.0
C418 C 0.92989 0.95599 0.85855 0.0
C419 C 0.94242 0.98422 0.8738 0.0
H420 H 0.90054 0.92047 0.90183 0.0
H421 H 0.93201 0.94634 0.79785 0.0
S422 S 0.93495 0.02715 0.06696 0.0
N423 N 0.91423 0.9968 0.08435 0.0
N424 N 0.94953 0.02356 0.97317 0.0
C425 C 0.93806 0.99646 0.95241 0.0
C426 C 0.91897 0.98186 0.01282 0.0
C427 C 0.51603 0.90585 0.93855 0.0
C428 C 0.52724 0.87631 0.92482 0.0
C429 C 0.51063 0.92633 0.87287 0.0
C430 C 0.5163 0.91829 0.79036 0.0
H431 H 0.51034 0.91293 1.00046 0.0
H432 H 0.50015 0.94803 0.8865 0.0
S433 S 0.5457 0.84424 0.71964 0.0
N434 N 0.54411 0.84066 0.82074 0.0
N435 N 0.53398 0.87889 0.69896 0.0
C436 C 0.52838 0.88927 0.77604 0.0
C437 C 0.534 0.86847 0.84258 0.0
C438 C 0.6205 0.53938 0.0389 0.0
C439 C 0.63317 0.56729 0.01831 0.0
C440 C 0.60214 0.52345 0.98232 0.0
C441 C 0.59551 0.53465 0.90273 0.0
H442 H 0.62709 0.52843 0.09632 0.0
H443 H 0.59558 0.5009 0.99841 0.0
S444 S 0.61675 0.60916 0.82366 0.0
N445 N 0.63256 0.60774 0.91714 0.0
N446 N 0.59906 0.57694 0.81 0.0
C447 C 0.60515 0.56363 0.88391 0.0
C448 C 0.62371 0.58013 0.94187 0.0
C449 C 1.0014 0.64646 0.88422 0.0
C450 C 1.00285 0.63783 0.96796 0.0
C451 C 1.01108 0.62702 0.82081 0.0
C452 C 0.02205 0.59768 0.83729 0.0
H453 H 0.99427 0.66905 0.86743 0.0
H454 H 1.0114 0.63555 0.75827 0.0
S455 S 0.02899 0.56294 0.04468 0.0
N456 N 1.01466 0.59688 0.06293 0.0
N457 N 0.03341 0.56076 0.94387 0.0
C458 C 0.02258 0.58827 0.9202 0.0
C459 C 1.01284 0.60816 0.98523 0.0
C460 C 0.96562 0.09888 0.42973 0.0
C461 C 0.98965 0.12004 0.44061 0.0
C462 C 0.9676 0.07113 0.46948 0.0
C463 C 0.99358 0.06367 0.52184 0.0
H464 H 0.94432 0.10435 0.39378 0.0
H465 H 0.94752 0.05629 0.46402 0.0
S466 S 0.06491 0.10996 0.56122 0.0
N467 N 0.04235 0.13017 0.4975 0.0
N468 N 0.04511 0.079 0.57694 0.0
C469 C 0.0189 0.08385 0.5282 0.0
C470 C 0.01708 0.11187 0.48676 0.0
C471 C 0.4333 0.07884 0.49294 0.0
C472 C 0.4195 0.07097 0.41778 0.0
C473 C 0.45572 0.05991 0.53186 0.0
C474 C 0.46511 0.03225 0.4974 0.0
H475 H 0.42544 0.09901 0.52393 0.0
H476 H 0.46377 0.06612 0.59265 0.0
S477 S 0.43742 0.00258 0.2979 0.0
N478 N 0.41795 0.03485 0.30697 0.0
N479 N 0.46022 0.999 0.381 0.0
C480 C 0.4527 0.02489 0.42002 0.0
C481 C 0.42995 0.04437 0.37986 0.0
C482 C 0.60425 0.41099 0.48139 0.0
C483 C 0.57795 0.40212 0.43465 0.0
C484 C 0.60222 0.43669 0.52941 0.0
C485 C 0.57336 0.45379 0.53462 0.0
H486 H 0.6259 0.3972 0.48398 0.0
H487 H 0.62272 0.44167 0.56774 0.0
S488 S 0.4997 0.44177 0.41139 0.0
N489 N 0.52408 0.41392 0.386 0.0
N490 N 0.5196 0.46194 0.47841 0.0
C491 C 0.54789 0.44638 0.48205 0.0
C492 C 0.5503 0.42048 0.43186 0.0
C493 C 0.09196 0.45908 0.44505 0.0
C494 C 0.12415 0.46653 0.43363 0.0
C495 C 0.07 0.47987 0.47762 0.0
C496 C 0.07967 0.50875 0.49924 0.0
H497 H 0.08428 0.43657 0.43432 0.0
H498 H 0.04623 0.47237 0.49308 0.0
S499 S 0.15818 0.54198 0.44906 0.0
N500 N 0.16227 0.50661 0.42306 0.0
N501 N 0.12114 0.5459 0.48358 0.0
C502 C 0.11029 0.51776 0.47401 0.0
C503 C 0.13264 0.4965 0.44187 0.0
C504 C 0.99923 0.92742 0.01532 0.0
C505 C 0.01687 0.90065 0.02568 0.0
C506 C 1.01338 0.95235 0.97983 0.0
C507 C 0.0452 0.95102 0.9511 0.0
H508 H 0.97387 0.92858 0.02964 0.0
H509 H 0.99844 0.97185 0.96781 0.0
S510 S 0.10417 0.88931 0.99083 0.0
N511 N 0.06982 0.87676 0.02578 0.0
N512 N 0.09614 0.9233 0.95573 0.0
C513 C 0.06428 0.92586 0.97258 0.0
C514 C 0.05 0.90059 0.00977 0.0
C515 C 0.60486 0.93654 0.95263 0.0
C516 C 0.61862 0.94542 0.02698 0.0
C517 C 0.58254 0.955 0.91162 0.0
C518 C 0.57328 0.98314 0.94315 0.0
H519 H 0.61267 0.91591 0.92389 0.0
H520 H 0.57451 0.94801 0.85146 0.0
S521 S 0.60084 0.01543 0.13965 0.0
N522 N 0.62019 0.98298 0.13402 0.0
N523 N 0.57816 0.01794 0.0561 0.0
C524 C 0.58562 0.99151 0.01983 0.0
C525 C 0.60824 0.97252 0.06209 0.0
C526 C 0.43864 0.60691 0.95977 0.0
C527 C 0.46607 0.61844 0.99649 0.0
C528 C 0.44012 0.57933 0.92008 0.0
C529 C 0.46931 0.56273 0.91455 0.0
H530 H 0.41654 0.62007 0.95725 0.0
H531 H 0.41885 0.57236 0.88757 0.0
S532 S 0.54487 0.58029 0.02362 0.0
N533 N 0.52083 0.60916 0.04163 0.0
N534 N 0.5241 0.55728 0.96618 0.0
C535 C 0.49571 0.57259 0.96039 0.0
C536 C 0.49402 0.60061 1.00109 0.0
C537 C 0.92977 0.52584 0.06258 0.0
C538 C 0.91636 0.55254 0.03022 0.0
C539 C 0.95307 0.5095 0.01857 0.0
C540 C 0.96393 0.51987 0.94213 0.0
H541 H 0.92108 0.51687 0.12021 0.0
H542 H 0.96196 0.48839 0.04323 0.0
S543 S 0.93605 0.58922 0.83309 0.0
N544 N 0.91587 0.58913 0.92009 0.0
N545 N 0.95905 0.55887 0.83641 0.0
C546 C 0.9512 0.54725 0.91103 0.0
C547 C 0.92759 0.56353 0.95549 0.0
C548 C 0.02116 0.15536 0.8388 0.0
C549 C 0.03532 0.15656 0.91768 0.0
C550 C 1.01523 0.12804 0.79986 0.0
C551 C 0.02351 0.10041 0.83708 0.0
H552 H 1.01375 0.17576 0.80742 0.0
H553 H 1.00322 0.12855 0.74057 0.0
S554 S 0.06159 0.09036 0.04217 0.0
N555 N 0.05775 0.12691 0.03117 0.0
N556 N 0.04738 0.07591 0.95654 0.0
C557 C 0.03895 0.10109 0.9141 0.0
C558 C 0.04467 0.12899 0.95459 0.0
C559 C 0.39153 0.02846 0.94478 0.0
C560 C 0.36359 0.03892 0.90352 0.0
C561 C 0.41927 0.01979 0.90117 0.0
C562 C 0.41978 0.02082 0.81478 0.0
H563 H 0.39192 0.02694 0.01136 0.0
H564 H 0.43997 0.0112 0.93502 0.0
S565 S 0.35364 0.04753 0.67776 0.0
N566 N 0.33885 0.05097 0.77151 0.0
N567 N 0.39055 0.03395 0.68958 0.0
C568 C 0.39227 0.03172 0.77296 0.0
C569 C 0.3643 0.04101 0.81729 0.0
C570 C 0.529 0.36715 0.91887 0.0
C571 C 0.49683 0.36206 0.93979 0.0
C572 C 0.53825 0.39307 0.87726 0.0
C573 C 0.51603 0.41592 0.8538 0.0
H574 H 0.54772 0.35131 0.93708 0.0
H575 H 0.56361 0.39519 0.86472 0.0
S576 S 0.42812 0.41335 0.88887 0.0
N577 N 0.44206 0.38183 0.93004 0.0
N578 N 0.45962 0.43082 0.85236 0.0
C579 C 0.48352 0.41106 0.87271 0.0
C580 C 0.47396 0.38429 0.91556 0.0
C581 C 0.1691 0.48606 0.91938 0.0
C582 C 0.17147 0.45461 0.91747 0.0
C583 C 0.14402 0.50192 0.8795 0.0
C584 C 0.11927 0.48728 0.83775 0.0
H585 H 0.18632 0.49883 0.95354 0.0
H586 H 0.14379 0.52604 0.88277 0.0
S587 S 0.11306 0.40553 0.81337 0.0
N588 N 0.14689 0.40967 0.86449 0.0
N589 N 0.09811 0.43951 0.79863 0.0
C590 C 0.1207 0.45599 0.83647 0.0
C591 C 0.1471 0.43973 0.87382 0.0
C592 C 0.03277 0.87723 0.50811 0.0
C593 C 1.00762 0.85937 0.53699 0.0
C594 C 0.03983 0.90477 0.54425 0.0
C595 C 0.0218 0.9164 0.61027 0.0
H596 H 0.04734 0.86991 0.45674 0.0
H597 H 0.06007 0.91697 0.52086 0.0
S598 S 0.95392 0.87901 0.71188 0.0
N599 N 0.96493 0.85569 0.63839 0.0
N600 N 0.97787 0.90778 0.70419 0.0
C601 C 0.99617 0.89935 0.63907 0.0
C602 C 0.98915 0.8709 0.60299 0.0
C603 C 0.66891 0.96478 0.62271 0.0
C604 C 0.67552 0.97303 0.54081 0.0
C605 C 0.64089 0.97509 0.66239 0.0
C606 C 0.61811 0.99336 0.621 0.0
H607 H 0.68581 0.95074 0.65684 0.0
H608 H 0.63722 0.96908 0.72634 0.0
S609 S 0.62278 0.01993 0.40524 0.0
N610 N 0.65601 0.99971 0.4189 0.0
N611 N 0.60346 0.01875 0.49375 0.0
C612 C 0.62394 0.00118 0.53885 0.0
C613 C 0.65261 0.99107 0.49868 0.0
C614 C 0.52518 0.65204 0.5891 0.0
C615 C 0.53837 0.65158 0.50918 0.0
C616 C 0.51977 0.62559 0.63394 0.0
C617 C 0.52787 0.59727 0.6022 0.0
H618 H 0.51782 0.67303 0.61641 0.0
H619 H 0.50787 0.62727 0.69296 0.0
S620 S 0.56382 0.58282 0.39779 0.0
N621 N 0.55991 0.61952 0.40126 0.0
N622 N 0.55061 0.57029 0.48701 0.0
C623 C 0.54257 0.59634 0.52455 0.0
C624 C 0.54768 0.62329 0.47794 0.0
C625 C 0.8961 0.56504 0.53341 0.0
C626 C 0.86596 0.5633 0.57239 0.0
C627 C 0.92402 0.55191 0.56894 0.0
C628 C 0.92264 0.53659 0.64461 0.0
H629 H 0.89785 0.57557 0.47343 0.0
H630 H 0.94637 0.55255 0.53524 0.0
S631 S 0.8506 0.53021 0.77739 0.0
N632 N 0.83724 0.54802 0.69437 0.0
N633 N 0.88927 0.52382 0.76189 0.0
C634 C 0.89294 0.5364 0.68622 0.0
C635 C 0.86471 0.54957 0.64991 0.0
loop_
_geom_bond_atom_site_label_1
_geom_bond_atom_site_label_2
_geom_bond_distance
_geom_bond_site_symmetry_2
_ccdc_geom_bond_type
C0 C1 1.384 . S
C0 H13 0.947 . S
C0 C35 1.382 . S
C1 C0 1.384 . S
C1 C2 1.378 . S
C2 C1 1.378 . S
C2 C3 1.378 . S
C2 H14 0.952 . S
C3 C2 1.378 . S
C3 H15 0.950 . S
C3 C34 1.383 . S
H4 C23 0.947 . S
H5 C24 0.946 . S
H6 C26 0.953 . S
H7 C27 0.945 . S
H8 C29 0.952 . S
H9 C30 0.949 . S
H10 C32 0.950 . S
H11 C33 0.948 1_554 S
H12 C35 0.951 . S
H13 C0 0.947 . S
H14 C2 0.952 . S
H15 C3 0.950 . S
N16 C19 1.382 . S
N16 C21 1.363 . S
N17 C19 1.371 . S
N17 C20 1.372 . S
N18 C20 1.361 . S
N18 C21 1.377 . S
C19 N16 1.382 . S
C19 N17 1.371 . S
C19 C22 1.480 . S
C20 N17 1.372 . S
C20 N18 1.361 . S
C20 C28 1.457 1_554 S
C21 N16 1.363 . S
C21 N18 1.377 . S
C21 C34 1.479 . S
C22 C19 1.480 . S
C22 C23 1.383 . S
C22 C27 1.385 1_554 S
C23 H4 0.947 . S
C23 C22 1.383 . S
C23 C24 1.388 . S
C24 H5 0.946 . S
C24 C23 1.388 . S
C24 C25 1.384 . S
C25 C24 1.384 . S
C25 C26 1.377 1_554 S
C26 H6 0.953 . S
C26 C25 1.377 1_556 S
C26 C27 1.369 . S
C27 H7 0.945 . S
C27 C22 1.385 1_556 S
C27 C26 1.369 . S
C28 C20 1.457 1_556 S
C28 C29 1.372 . S
C28 C33 1.364 . S
C29 H8 0.952 . S
C29 C28 1.372 . S
C29 C30 1.389 . S
C30 H9 0.949 . S
C30 C29 1.389 . S
C30 C31 1.387 . S
C31 C30 1.387 . S
C31 C32 1.372 . S
C32 H10 0.950 . S
C32 C31 1.372 . S
C32 C33 1.379 . S
C33 H11 0.948 1_556 S
C33 C28 1.364 . S
C33 C32 1.379 . S
C34 C3 1.383 . S
C34 C21 1.479 . S
C34 C35 1.398 . S
C35 C0 1.382 . S
C35 H12 0.951 . S
C35 C34 1.398 . S
C36 C37 1.384 1_655 S
C36 H49 0.947 . S
C36 C71 1.382 1_655 S
C37 C36 1.384 1_455 S
C37 C38 1.378 . S
C38 C37 1.378 . S
C38 C39 1.378 . S
C38 H50 0.952 . S
C39 C38 1.378 . S
C39 H51 0.950 . S
C39 C70 1.383 . S
H40 C59 0.947 . S
H41 C60 0.953 . S
H42 C62 0.953 . S
H43 C63 0.945 . S
H44 C65 0.948 1_655 S
H45 C66 0.949 . S
H46 C68 0.950 . S
H47 C69 0.948 . S
H48 C71 0.951 1_655 S
H49 C36 0.947 . S
H50 C38 0.952 . S
H51 C39 0.950 . S
N52 C55 1.382 . S
N52 C57 1.363 . S
N53 C55 1.371 . S
N53 C56 1.372 . S
N54 C56 1.361 . S
N54 C57 1.377 . S
C55 N52 1.382 . S
C55 N53 1.371 . S
C55 C58 1.480 . S
C56 N53 1.372 . S
C56 N54 1.361 . S
C56 C64 1.457 1_554 S
C57 N52 1.363 . S
C57 N54 1.377 . S
C57 C70 1.479 . S
C58 C55 1.480 . S
C58 C59 1.383 . S
C58 C63 1.385 1_554 S
C59 H40 0.947 . S
C59 C58 1.383 . S
C59 C60 1.385 1_455 S
C60 H41 0.953 . S
C60 C59 1.385 1_655 S
C60 C61 1.382 1_655 S
C61 C60 1.382 1_455 S
C61 C62 1.377 1_554 S
C62 H42 0.953 . S
C62 C61 1.377 1_556 S
C62 C63 1.369 . S
C63 H43 0.945 . S
C63 C58 1.385 1_556 S
C63 C62 1.369 . S
C64 C56 1.457 1_556 S
C64 C65 1.377 . S
C64 C69 1.364 1_556 S
C65 H44 0.948 1_455 S
C65 C64 1.377 . S
C65 C66 1.388 1_455 S
C66 H45 0.949 . S
C66 C65 1.388 1_655 S
C66 C67 1.387 1_655 S
C67 C66 1.387 1_455 S
C67 C68 1.372 . S
C68 H46 0.950 . S
C68 C67 1.372 . S
C68 C69 1.379 1_556 S
C69 H47 0.948 . S
C69 C64 1.364 1_554 S
C69 C68 1.379 1_554 S
C70 C39 1.383 . S
C70 C57 1.479 . S
C70 C71 1.398 . S
C71 C36 1.382 1_455 S
C71 H48 0.951 1_455 S
C71 C70 1.398 . S
C72 C73 1.384 . S
C72 H85 0.947 . S
C72 C107 1.382 . S
C73 C72 1.384 . S
C73 C74 1.378 . S
C74 C73 1.378 . S
C74 C75 1.378 . S
C74 H86 0.952 . S
C75 C74 1.378 . S
C75 H87 0.950 . S
C75 C106 1.383 . S
H76 C95 0.947 . S
H77 C96 0.946 . S
H78 C98 0.953 . S
H79 C99 0.945 . S
H80 C101 0.952 . S
H81 C102 0.949 . S
H82 C104 0.950 . S
H83 C105 0.948 . S
H84 C107 0.951 . S
H85 C72 0.947 . S
H86 C74 0.952 . S
H87 C75 0.950 . S
N88 C91 1.382 . S
N88 C93 1.363 . S
N89 C91 1.371 . S
N89 C92 1.372 . S
N90 C92 1.361 . S
N90 C93 1.377 . S
C91 N88 1.382 . S
C91 N89 1.371 . S
C91 C94 1.480 . S
C92 N89 1.372 . S
C92 N90 1.361 . S
C92 C100 1.457 1_554 S
C93 N88 1.363 . S
C93 N90 1.377 . S
C93 C106 1.479 . S
C94 C91 1.480 . S
C94 C95 1.383 . S
C94 C99 1.385 1_554 S
C95 H76 0.947 . S
C95 C94 1.383 . S
C95 C96 1.388 . S
C96 H77 0.946 . S
C96 C95 1.388 . S
C96 C97 1.384 . S
C97 C96 1.384 . S
C97 C98 1.377 1_554 S
C98 H78 0.953 . S
C98 C97 1.377 1_556 S
C98 C99 1.369 . S
C99 H79 0.945 . S
C99 C94 1.385 1_556 S
C99 C98 1.369 . S
C100 C92 1.457 1_556 S
C100 C101 1.372 . S
C100 C105 1.364 1_556 S
C101 H80 0.952 . S
C101 C100 1.372 . S
C101 C102 1.389 . S
C102 H81 0.949 . S
C102 C101 1.389 . S
C102 C103 1.387 . S
C103 C102 1.387 . S
C103 C104 1.372 . S
C104 H82 0.950 . S
C104 C103 1.372 . S
C104 C105 1.379 1_556 S
C105 H83 0.948 . S
C105 C100 1.364 1_554 S
C105 C104 1.379 1_554 S
C106 C75 1.383 . S
C106 C93 1.479 . S
C106 C107 1.398 . S
C107 C72 1.382 . S
C107 H84 0.951 . S
C107 C106 1.398 . S
C108 C109 1.384 . S
C108 H121 0.947 . S
C108 C143 1.382 1_556 S
C109 C108 1.384 . S
C109 C110 1.378 . S
C110 C109 1.378 . S
C110 C111 1.378 . S
C110 H122 0.952 . S
C111 C110 1.378 . S
C111 H123 0.950 . S
C111 C142 1.383 . S
H112 C131 0.947 1_556 S
H113 C132 0.946 . S
H114 C134 0.953 . S
H115 C135 0.945 . S
H116 C137 0.952 . S
H117 C138 0.949 . S
H118 C140 0.950 . S
H119 C141 0.948 . S
H120 C143 0.951 . S
H121 C108 0.947 . S
H122 C110 0.952 . S
H123 C111 0.950 . S
N124 C127 1.382 . S
N124 C129 1.363 . S
N125 C127 1.371 . S
N125 C128 1.372 . S
N126 C128 1.361 . S
N126 C129 1.377 . S
C127 N124 1.382 . S
C127 N125 1.371 . S
C127 C130 1.480 . S
C128 N125 1.372 . S
C128 N126 1.361 . S
C128 C136 1.457 . S
C129 N124 1.363 . S
C129 N126 1.377 . S
C129 C142 1.479 1_554 S
C130 C127 1.480 . S
C130 C131 1.383 . S
C130 C135 1.385 . S
C131 H112 0.947 1_554 S
C131 C130 1.383 . S
C131 C132 1.388 1_554 S
C132 H113 0.946 . S
C132 C131 1.388 1_556 S
C132 C133 1.384 1_556 S
C133 C132 1.384 1_554 S
C133 C134 1.377 . S
C134 H114 0.953 . S
C134 C133 1.377 . S
C134 C135 1.369 . S
C135 H115 0.945 . S
C135 C130 1.385 . S
C135 C134 1.369 . S
C136 C128 1.457 . S
C136 C137 1.372 . S
C136 C141 1.364 . S
C137 H116 0.952 . S
C137 C136 1.372 . S
C137 C138 1.389 . S
C138 H117 0.949 . S
C138 C137 1.389 . S
C138 C139 1.387 . S
C139 C138 1.387 . S
C139 C140 1.372 . S
C140 H118 0.950 . S
C140 C139 1.372 . S
C140 C141 1.379 . S
C141 H119 0.948 . S
C141 C136 1.364 . S
C141 C140 1.379 . S
C142 C111 1.383 . S
C142 C129 1.479 1_556 S
C142 C143 1.398 1_556 S
C143 C108 1.382 1_554 S
C143 H120 0.951 . S
C143 C142 1.398 1_554 S
C144 C145 1.384 . S
C144 H157 0.947 . S
C144 C179 1.382 . S
C145 C144 1.384 . S
C145 C146 1.378 . S
C146 C145 1.378 . S
C146 C147 1.378 . S
C146 H158 0.952 1_554 S
C147 C146 1.378 . S
C147 H159 0.950 . S
C147 C178 1.383 . S
H148 C167 0.947 . S
H149 C168 0.946 . S
H150 C170 0.953 . S
H151 C171 0.945 . S
H152 C173 0.952 . S
H153 C174 0.949 . S
H154 C176 0.950 . S
H155 C177 0.948 . S
H156 C179 0.951 . S
H157 C144 0.947 . S
H158 C146 0.952 1_556 S
H159 C147 0.950 . S
N160 C163 1.382 . S
N160 C165 1.363 . S
N161 C163 1.371 . S
N161 C164 1.372 . S
N162 C164 1.361 . S
N162 C165 1.377 . S
C163 N160 1.382 . S
C163 N161 1.371 . S
C163 C166 1.480 . S
C164 N161 1.372 . S
C164 N162 1.361 . S
C164 C172 1.457 . S
C165 N160 1.363 . S
C165 N162 1.377 . S
C165 C178 1.479 . S
C166 C163 1.480 . S
C166 C167 1.383 . S
C166 C171 1.385 . S
C167 H148 0.947 . S
C167 C166 1.383 . S
C167 C168 1.388 . S
C168 H149 0.946 . S
C168 C167 1.388 . S
C168 C169 1.384 . S
C169 C168 1.384 . S
C169 C170 1.377 . S
C170 H150 0.953 . S
C170 C169 1.377 . S
C170 C171 1.369 . S
C171 H151 0.945 . S
C171 C166 1.385 . S
C171 C170 1.369 . S
C172 C164 1.457 . S
C172 C173 1.372 . S
C172 C177 1.364 . S
C173 H152 0.952 . S
C173 C172 1.372 . S
C173 C174 1.389 . S
C174 H153 0.949 . S
C174 C173 1.389 . S
C174 C175 1.387 . S
C175 C174 1.387 . S
C175 C176 1.372 . S
C176 H154 0.950 . S
C176 C175 1.372 . S
C176 C177 1.379 . S
C177 H155 0.948 . S
C177 C172 1.364 . S
C177 C176 1.379 . S
C178 C147 1.383 . S
C178 C165 1.479 . S
C178 C179 1.398 . S
C179 C144 1.382 . S
C179 H156 0.951 . S
C179 C178 1.398 . S
C180 C181 1.384 1_654 S
C180 H193 0.947 . S
C180 C215 1.382 1_655 S
C181 C180 1.384 1_456 S
C181 C182 1.378 1_556 S
C182 C181 1.378 1_554 S
C182 C183 1.378 . S
C182 H194 0.952 1_554 S
C183 C182 1.378 . S
C183 H195 0.950 . S
C183 C214 1.383 . S
H184 C203 0.947 . S
H185 C204 0.950 . S
H186 C206 0.953 . S
H187 C207 0.945 . S
H188 C209 0.948 1_655 S
H189 C210 0.954 . S
H190 C212 0.950 . S
H191 C213 0.948 . S
H192 C215 0.950 1_655 S
H193 C180 0.947 . S
H194 C182 0.952 1_556 S
H195 C183 0.950 . S
N196 C199 1.382 . S
N196 C201 1.363 . S
N197 C199 1.371 . S
N197 C200 1.372 . S
N198 C200 1.361 . S
N198 C201 1.377 . S
C199 N196 1.382 . S
C199 N197 1.371 . S
C199 C202 1.480 . S
C200 N197 1.372 . S
C200 N198 1.361 . S
C200 C208 1.457 . S
C201 N196 1.363 . S
C201 N198 1.377 . S
C201 C214 1.479 . S
C202 C199 1.480 . S
C202 C203 1.383 . S
C202 C207 1.385 . S
C203 H184 0.947 . S
C203 C202 1.383 . S
C203 C204 1.387 1_455 S
C204 H185 0.950 . S
C204 C203 1.387 1_655 S
C204 C205 1.382 1_655 S
C205 C204 1.382 1_455 S
C205 C206 1.377 . S
C206 H186 0.953 . S
C206 C205 1.377 . S
C206 C207 1.369 . S
C207 H187 0.945 . S
C207 C202 1.385 . S
C207 C206 1.369 . S
C208 C200 1.457 . S
C208 C209 1.379 . S
C208 C213 1.364 . S
C209 H188 0.948 1_455 S
C209 C208 1.379 . S
C209 C210 1.385 1_455 S
C210 H189 0.954 . S
C210 C209 1.385 1_655 S
C210 C211 1.384 1_655 S
C211 C210 1.384 1_455 S
C211 C212 1.372 . S
C212 H190 0.950 . S
C212 C211 1.372 . S
C212 C213 1.379 . S
C213 H191 0.948 . S
C213 C208 1.364 . S
C213 C212 1.379 . S
C214 C183 1.383 . S
C214 C201 1.479 . S
C214 C215 1.400 . S
C215 C180 1.382 1_455 S
C215 H192 0.950 1_455 S
C215 C214 1.400 . S
C216 C217 1.384 . S
C216 H229 0.947 . S
C216 C251 1.382 . S
C217 C216 1.384 . S
C217 C218 1.378 . S
C218 C217 1.378 . S
C218 C219 1.378 . S
C218 H230 0.952 1_554 S
C219 C218 1.378 . S
C219 H231 0.950 . S
C219 C250 1.383 . S
H220 C239 0.947 . S
H221 C240 0.946 . S
H222 C242 0.953 . S
H223 C243 0.945 . S
H224 C245 0.952 . S
H225 C246 0.949 . S
H226 C248 0.950 . S
H227 C249 0.948 . S
H228 C251 0.951 . S
H229 C216 0.947 . S
H230 C218 0.952 1_556 S
H231 C219 0.950 . S
N232 C235 1.382 . S
N232 C237 1.363 . S
N233 C235 1.371 . S
N233 C236 1.372 . S
N234 C236 1.361 . S
N234 C237 1.377 . S
C235 N232 1.382 . S
C235 N233 1.371 . S
C235 C238 1.480 . S
C236 N233 1.372 . S
C236 N234 1.361 . S
C236 C244 1.457 . S
C237 N232 1.363 . S
C237 N234 1.377 . S
C237 C250 1.479 . S
C238 C235 1.480 . S
C238 C239 1.383 . S
C238 C243 1.385 . S
C239 H220 0.947 . S
C239 C238 1.383 . S
C239 C240 1.388 . S
C240 H221 0.946 . S
C240 C239 1.388 . S
C240 C241 1.384 . S
C241 C240 1.384 . S
C241 C242 1.377 . S
C242 H222 0.953 . S
C242 C241 1.377 . S
C242 C243 1.369 . S
C243 H223 0.945 . S
C243 C238 1.385 . S
C243 C242 1.369 . S
C244 C236 1.457 . S
C244 C245 1.372 . S
C244 C249 1.364 . S
C245 H224 0.952 . S
C245 C244 1.372 . S
C245 C246 1.389 . S
C246 H225 0.949 . S
C246 C245 1.389 . S
C246 C247 1.387 . S
C247 C246 1.387 . S
C247 C248 1.372 . S
C248 H226 0.950 . S
C248 C247 1.372 . S
C248 C249 1.379 . S
C249 H227 0.948 . S
C249 C244 1.364 . S
C249 C248 1.379 . S
C250 C219 1.383 . S
C250 C237 1.479 . S
C250 C251 1.398 . S
C251 C216 1.382 . S
C251 H228 0.951 . S
C251 C250 1.398 . S
C252 C253 1.384 . S
C252 H265 0.947 . S
C252 C287 1.382 . S
C253 C252 1.384 . S
C253 C254 1.378 . S
C254 C253 1.378 . S
C254 C255 1.378 . S
C254 H266 0.952 . S
C255 C254 1.378 . S
C255 H267 0.950 . S
C255 C286 1.383 . S
H256 C275 0.947 . S
H257 C276 0.946 . S
H258 C278 0.953 . S
H259 C279 0.945 . S
H260 C281 0.952 . S
H261 C282 0.949 1_556 S
H262 C284 0.950 . S
H263 C285 0.948 . S
H264 C287 0.951 . S
H265 C252 0.947 . S
H266 C254 0.952 . S
H267 C255 0.950 . S
N268 C271 1.382 . S
N268 C273 1.363 . S
N269 C271 1.371 . S
N269 C272 1.372 . S
N270 C272 1.361 . S
N270 C273 1.377 . S
C271 N268 1.382 . S
C271 N269 1.371 . S
C271 C274 1.480 . S
C272 N269 1.372 . S
C272 N270 1.361 . S
C272 C280 1.457 . S
C273 N268 1.363 . S
C273 N270 1.377 . S
C273 C286 1.479 . S
C274 C271 1.480 . S
C274 C275 1.383 . S
C274 C279 1.385 . S
C275 H256 0.947 . S
C275 C274 1.383 . S
C275 C276 1.388 . S
C276 H257 0.946 . S
C276 C275 1.388 . S
C276 C277 1.384 . S
C277 C276 1.384 . S
C277 C278 1.377 . S
C278 H258 0.953 . S
C278 C277 1.377 . S
C278 C279 1.369 . S
C279 H259 0.945 . S
C279 C274 1.385 . S
C279 C278 1.369 . S
C280 C272 1.457 . S
C280 C281 1.372 . S
C280 C285 1.364 . S
C281 H260 0.952 . S
C281 C280 1.372 . S
C281 C282 1.389 . S
C282 H261 0.949 1_554 S
C282 C281 1.389 . S
C282 C283 1.387 1_554 S
C283 C282 1.387 1_556 S
C283 C284 1.372 1_556 S
C284 H262 0.950 . S
C284 C283 1.372 1_554 S
C284 C285 1.379 . S
C285 H263 0.948 . S
C285 C280 1.364 . S
C285 C284 1.379 . S
C286 C255 1.383 . S
C286 C273 1.479 . S
C286 C287 1.398 . S
C287 C252 1.382 . S
C287 H264 0.951 . S
C287 C286 1.398 . S
O288 Mn289 2.163 1_455 S
O288 C302 1.244 . S
Mn289 O288 2.163 1_655 S
Mn289 O292 2.160 1_545 S
Mn289 O293 2.221 1_655 S
Mn289 O295 2.163 1_645 S
Mn289 O297 2.160 . S
Mn289 O307 2.221 . S
O290 Mn291 2.087 . S
O290 C302 1.256 1_655 S
Mn291 O290 2.087 . S
Mn291 O298 2.089 . S
Mn291 O307 2.290 . S
Mn291 O308 2.251 . S
O292 Mn289 2.160 1_565 S
O292 C303 1.239 . S
O293 Mn289 2.221 1_455 S
O293 Mn294 2.290 1_545 S
O293 C304 1.278 . S
Mn294 O293 2.290 1_565 S
Mn294 O296 2.089 . S
Mn294 O299 2.251 . S
Mn294 O300 2.087 . S
O295 Mn289 2.163 1_465 S
O295 C305 1.244 . S
O296 Mn294 2.089 . S
O296 C303 1.256 1_455 S
O297 Mn289 2.160 . S
O297 C306 1.239 . S
O298 Mn291 2.089 . S
O298 C306 1.256 . S
O299 Mn294 2.251 . S
O299 C304 1.241 1_565 S
O300 Mn294 2.087 . S
O300 C305 1.256 . S
C301 O307 1.278 . S
C301 O308 1.241 . S
C302 O288 1.244 . S
C302 O290 1.256 1_455 S
C303 O292 1.239 . S
C303 O296 1.256 1_655 S
C304 O293 1.278 . S
C304 O299 1.241 1_545 S
C305 O295 1.244 . S
C305 O300 1.256 . S
C306 O297 1.239 . S
C306 O298 1.256 . S
O307 Mn289 2.221 . S
O307 Mn291 2.290 . S
O307 C301 1.278 . S
O308 Mn291 2.251 . S
O308 C301 1.241 . S
O309 Mn310 2.163 1_565 S
O309 C323 1.244 1_565 S
Mn310 O309 2.163 1_545 S
Mn310 O313 2.160 . S
Mn310 O314 2.221 1_545 S
Mn310 O316 2.163 . S
Mn310 O318 2.160 1_545 S
Mn310 O328 2.221 . S
O311 Mn312 2.087 . S
O311 C323 1.256 . S
Mn312 O311 2.087 . S
Mn312 O319 2.089 1_545 S
Mn312 O328 2.290 . S
Mn312 O329 2.251 . S
O313 Mn310 2.160 . S
O313 C324 1.239 . S
O314 Mn310 2.221 1_565 S
O314 Mn315 2.290 . S
O314 C325 1.278 . S
Mn315 O314 2.290 . S
Mn315 O317 2.089 1_565 S
Mn315 O320 2.251 . S
Mn315 O321 2.087 1_565 S
O316 Mn310 2.163 . S
O316 C326 1.244 . S
O317 Mn315 2.089 1_545 S
O317 C324 1.256 . S
O318 Mn310 2.160 1_565 S
O318 C327 1.239 . S
O319 Mn312 2.089 1_565 S
O319 C327 1.256 . S
O320 Mn315 2.251 . S
O320 C325 1.241 . S
O321 Mn315 2.087 1_545 S
O321 C326 1.256 . S
C322 O328 1.278 . S
C322 O329 1.241 . S
C323 O309 1.244 1_545 S
C323 O311 1.256 . S
C324 O313 1.239 . S
C324 O317 1.256 . S
C325 O314 1.278 . S
C325 O320 1.241 . S
C326 O316 1.244 . S
C326 O321 1.256 . S
C327 O318 1.239 . S
C327 O319 1.256 . S
O328 Mn310 2.221 . S
O328 Mn312 2.290 . S
O328 C322 1.278 . S
O329 Mn312 2.251 . S
O329 C322 1.241 . S
O330 Mn331 2.163 . S
O330 C344 1.244 . S
Mn331 O330 2.163 . S
Mn331 O334 2.160 . S
Mn331 O335 2.221 . S
Mn331 O337 2.163 . S
Mn331 O339 2.160 . S
Mn331 O349 2.221 . S
O332 Mn333 2.087 . S
O332 C344 1.256 . S
Mn333 O332 2.087 . S
Mn333 O340 2.089 . S
Mn333 O349 2.290 . S
Mn333 O350 2.251 . S
O334 Mn331 2.160 . S
O334 C345 1.239 . S
O335 Mn331 2.221 . S
O335 Mn336 2.290 . S
O335 C346 1.278 . S
Mn336 O335 2.290 . S
Mn336 O338 2.089 . S
Mn336 O341 2.251 . S
Mn336 O342 2.087 . S
O337 Mn331 2.163 . S
O337 C347 1.244 . S
O338 Mn336 2.089 . S
O338 C345 1.256 . S
O339 Mn331 2.160 . S
O339 C348 1.239 . S
O340 Mn333 2.089 . S
O340 C348 1.256 . S
O341 Mn336 2.251 . S
O341 C346 1.241 . S
O342 Mn336 2.087 . S
O342 C347 1.256 . S
C343 O349 1.278 . S
C343 O350 1.241 . S
C344 O330 1.244 . S
C344 O332 1.256 . S
C345 O334 1.239 . S
C345 O338 1.256 . S
C346 O335 1.278 . S
C346 O341 1.241 . S
C347 O337 1.244 . S
C347 O342 1.256 . S
C348 O339 1.239 . S
C348 O340 1.256 . S
O349 Mn331 2.221 . S
O349 Mn333 2.290 . S
O349 C343 1.278 . S
O350 Mn333 2.251 . S
O350 C343 1.241 . S
O351 Mn352 2.163 . S
O351 C365 1.244 . S
Mn352 O351 2.163 . S
Mn352 O355 2.160 1_455 S
Mn352 O356 2.221 1_455 S
Mn352 O358 2.163 1_455 S
Mn352 O360 2.160 . S
Mn352 O370 2.221 . S
O353 Mn354 2.087 . S
O353 C365 1.256 . S
Mn354 O353 2.087 . S
Mn354 O361 2.089 . S
Mn354 O370 2.290 . S
Mn354 O371 2.251 . S
O355 Mn352 2.160 1_655 S
O355 C366 1.239 . S
O356 Mn352 2.221 1_655 S
O356 Mn357 2.290 . S
O356 C367 1.278 . S
Mn357 O356 2.290 . S
Mn357 O359 2.089 . S
Mn357 O362 2.251 . S
Mn357 O363 2.087 . S
O358 Mn352 2.163 1_655 S
O358 C368 1.244 . S
O359 Mn357 2.089 . S
O359 C366 1.256 . S
O360 Mn352 2.160 . S
O360 C369 1.239 . S
O361 Mn354 2.089 . S
O361 C369 1.256 . S
O362 Mn357 2.251 . S
O362 C367 1.241 . S
O363 Mn357 2.087 . S
O363 C368 1.256 . S
C364 O370 1.278 . S
C364 O371 1.241 . S
C365 O351 1.244 . S
C365 O353 1.256 . S
C366 O355 1.239 . S
C366 O359 1.256 . S
C367 O356 1.278 . S
C367 O362 1.241 . S
C368 O358 1.244 . S
C368 O363 1.256 . S
C369 O360 1.239 . S
C369 O361 1.256 . S
O370 Mn352 2.221 . S
O370 Mn354 2.290 . S
O370 C364 1.278 . S
O371 Mn354 2.251 . S
O371 C364 1.241 . S
C372 C373 1.369 . S
C372 C374 1.419 . S
C372 H376 0.930 . S
C373 C372 1.369 . S
C373 C382 1.429 . S
C374 C372 1.419 . S
C374 C375 1.363 . S
C374 H377 0.929 . S
C375 C374 1.363 . S
C375 C381 1.428 . S
H376 C372 0.930 . S
H377 C374 0.929 . S
S378 N379 1.613 . S
S378 N380 1.610 . S
N379 S378 1.613 . S
N379 C382 1.350 . S
N380 S378 1.610 . S
N380 C381 1.351 . S
C381 C375 1.428 . S
C381 N380 1.351 . S
C381 C382 1.434 . S
C382 C373 1.429 . S
C382 N379 1.350 . S
C382 C381 1.434 . S
C383 C384 1.369 . S
C383 C385 1.419 . S
C383 H387 0.930 . S
C384 C383 1.369 . S
C384 C393 1.429 . S
C385 C383 1.419 . S
C385 C386 1.363 . S
C385 H388 0.929 . S
C386 C385 1.363 . S
C386 C392 1.428 . S
H387 C383 0.930 . S
H388 C385 0.929 . S
S389 N390 1.613 . S
S389 N391 1.610 . S
N390 S389 1.613 . S
N390 C393 1.350 . S
N391 S389 1.610 . S
N391 C392 1.351 . S
C392 C386 1.428 . S
C392 N391 1.351 . S
C392 C393 1.434 . S
C393 C384 1.429 . S
C393 N390 1.350 . S
C393 C392 1.434 . S
C394 C395 1.369 . S
C394 C396 1.419 . S
C394 H398 0.930 . S
C395 C394 1.369 . S
C395 C404 1.429 . S
C396 C394 1.419 . S
C396 C397 1.363 . S
C396 H399 0.929 . S
C397 C396 1.363 . S
C397 C403 1.428 . S
H398 C394 0.930 . S
H399 C396 0.929 . S
S400 N401 1.613 . S
S400 N402 1.610 . S
N401 S400 1.613 . S
N401 C404 1.350 . S
N402 S400 1.610 . S
N402 C403 1.351 . S
C403 C397 1.428 . S
C403 N402 1.351 . S
C403 C404 1.434 . S
C404 C395 1.429 . S
C404 N401 1.350 . S
C404 C403 1.434 . S
C405 C406 1.369 . S
C405 C407 1.419 . S
C405 H409 0.930 . S
C406 C405 1.369 . S
C406 C415 1.429 1_655 S
C407 C405 1.419 . S
C407 C408 1.363 . S
C407 H410 0.929 . S
C408 C407 1.363 . S
C408 C414 1.428 1_655 S
H409 C405 0.930 . S
H410 C407 0.929 . S
S411 N412 1.613 . S
S411 N413 1.610 . S
N412 S411 1.613 . S
N412 C415 1.350 . S
N413 S411 1.610 . S
N413 C414 1.351 . S
C414 C408 1.428 1_455 S
C414 N413 1.351 . S
C414 C415 1.434 . S
C415 C406 1.429 1_455 S
C415 N412 1.350 . S
C415 C414 1.434 . S
C416 C417 1.369 . S
C416 C418 1.419 . S
C416 H420 0.930 . S
C417 C416 1.369 . S
C417 C426 1.429 . S
C418 C416 1.419 . S
C418 C419 1.363 . S
C418 H421 0.929 . S
C419 C418 1.363 . S
C419 C425 1.428 . S
H420 C416 0.930 . S
H421 C418 0.929 . S
S422 N423 1.613 . S
S422 N424 1.610 1_554 S
N423 S422 1.613 . S
N423 C426 1.350 1_554 S
N424 S422 1.610 1_556 S
N424 C425 1.351 . S
C425 C419 1.428 . S
C425 N424 1.351 . S
C425 C426 1.434 . S
C426 C417 1.429 . S
C426 N423 1.350 1_556 S
C426 C425 1.434 . S
C427 C428 1.369 . S
C427 C429 1.419 . S
C427 H431 0.930 1_556 S
C428 C427 1.369 . S
C428 C437 1.429 . S
C429 C427 1.419 . S
C429 C430 1.363 . S
C429 H432 0.929 . S
C430 C429 1.363 . S
C430 C436 1.428 . S
H431 C427 0.930 1_554 S
H432 C429 0.929 . S
S433 N434 1.613 . S
S433 N435 1.610 . S
N434 S433 1.613 . S
N434 C437 1.350 . S
N435 S433 1.610 . S
N435 C436 1.351 . S
C436 C430 1.428 . S
C436 N435 1.351 . S
C436 C437 1.434 . S
C437 C428 1.429 . S
C437 N434 1.350 . S
C437 C436 1.434 . S
C438 C439 1.369 . S
C438 C440 1.419 . S
C438 H442 0.930 1_556 S
C439 C438 1.369 . S
C439 C448 1.429 . S
C440 C438 1.419 . S
C440 C441 1.363 . S
C440 H443 0.929 . S
C441 C440 1.363 . S
C441 C447 1.428 . S
H442 C438 0.930 1_554 S
H443 C440 0.929 . S
S444 N445 1.613 . S
S444 N446 1.610 . S
N445 S444 1.613 . S
N445 C448 1.350 . S
N446 S444 1.610 . S
N446 C447 1.351 . S
C447 C441 1.428 . S
C447 N446 1.351 . S
C447 C448 1.434 . S
C448 C439 1.429 . S
C448 N445 1.350 . S
C448 C447 1.434 . S
C449 C450 1.369 . S
C449 C451 1.419 . S
C449 H453 0.930 . S
C450 C449 1.369 . S
C450 C459 1.429 1_455 S
C451 C449 1.419 . S
C451 C452 1.363 . S
C451 H454 0.929 . S
C452 C451 1.363 . S
C452 C458 1.428 1_455 S
H453 C449 0.930 . S
H454 C451 0.929 . S
S455 N456 1.613 . S
S455 N457 1.610 1_554 S
N456 S455 1.613 . S
N456 C459 1.350 1_554 S
N457 S455 1.610 1_556 S
N457 C458 1.351 . S
C458 C452 1.428 1_655 S
C458 N457 1.351 . S
C458 C459 1.434 . S
C459 C450 1.429 1_655 S
C459 N456 1.350 1_556 S
C459 C458 1.434 . S
C460 C461 1.361 1_655 S
C460 C462 1.419 . S
C460 H464 0.930 . S
C461 C460 1.361 1_455 S
C461 C470 1.433 . S
C462 C460 1.419 . S
C462 C463 1.363 . S
C462 H465 0.929 . S
C463 C462 1.363 . S
C463 C469 1.428 1_655 S
H464 C460 0.930 . S
H465 C462 0.929 . S
S466 N467 1.613 . S
S466 N468 1.610 . S
N467 S466 1.613 . S
N467 C470 1.350 . S
N468 S466 1.610 . S
N468 C469 1.351 . S
C469 C463 1.428 1_455 S
C469 N468 1.351 . S
C469 C470 1.434 . S
C470 C461 1.433 . S
C470 N467 1.350 . S
C470 C469 1.434 . S
C471 C472 1.369 . S
C471 C473 1.419 . S
C471 H475 0.930 . S
C472 C471 1.369 . S
C472 C481 1.429 . S
C473 C471 1.419 . S
C473 C474 1.363 . S
C473 H476 0.929 . S
C474 C473 1.363 . S
C474 C480 1.428 . S
H475 C471 0.930 . S
H476 C473 0.929 . S
S477 N478 1.613 . S
S477 N479 1.610 . S
N478 S477 1.613 . S
N478 C481 1.350 . S
N479 S477 1.610 . S
N479 C480 1.351 . S
C480 C474 1.428 . S
C480 N479 1.351 . S
C480 C481 1.434 . S
C481 C472 1.429 . S
C481 N478 1.350 . S
C481 C480 1.434 . S
C482 C483 1.369 . S
C482 C484 1.419 . S
C482 H486 0.930 . S
C483 C482 1.369 . S
C483 C492 1.429 . S
C484 C482 1.419 . S
C484 C485 1.363 . S
C484 H487 0.929 . S
C485 C484 1.363 . S
C485 C491 1.428 . S
H486 C482 0.930 . S
H487 C484 0.929 . S
S488 N489 1.613 . S
S488 N490 1.610 . S
N489 S488 1.613 . S
N489 C492 1.350 . S
N490 S488 1.610 . S
N490 C491 1.351 . S
C491 C485 1.428 . S
C491 N490 1.351 . S
C491 C492 1.434 . S
C492 C483 1.429 . S
C492 N489 1.350 . S
C492 C491 1.434 . S
C493 C494 1.369 . S
C493 C495 1.419 . S
C493 H497 0.930 . S
C494 C493 1.369 . S
C494 C503 1.429 . S
C495 C493 1.419 . S
C495 C496 1.363 . S
C495 H498 0.929 . S
C496 C495 1.363 . S
C496 C502 1.428 . S
H497 C493 0.930 . S
H498 C495 0.929 . S
S499 N500 1.613 . S
S499 N501 1.610 . S
N500 S499 1.613 . S
N500 C503 1.350 . S
N501 S499 1.610 . S
N501 C502 1.351 . S
C502 C496 1.428 . S
C502 N501 1.351 . S
C502 C503 1.434 . S
C503 C494 1.429 . S
C503 N500 1.350 . S
C503 C502 1.434 . S
C504 C505 1.367 1_655 S
C504 C506 1.419 . S
C504 H508 0.930 . S
C505 C504 1.367 1_455 S
C505 C514 1.433 . S
C506 C504 1.419 . S
C506 C507 1.363 1_655 S
C506 H509 0.929 . S
C507 C506 1.363 1_455 S
C507 C513 1.428 . S
H508 C504 0.930 . S
H509 C506 0.929 . S
S510 N511 1.613 . S
S510 N512 1.610 . S
N511 S510 1.613 . S
N511 C514 1.350 . S
N512 S510 1.610 . S
N512 C513 1.351 . S
C513 C507 1.428 . S
C513 N512 1.351 . S
C513 C514 1.434 . S
C514 C505 1.433 . S
C514 N511 1.350 . S
C514 C513 1.434 . S
C515 C516 1.369 . S
C515 C517 1.419 . S
C515 H519 0.930 . S
C516 C515 1.369 . S
C516 C525 1.429 . S
C517 C515 1.419 . S
C517 C518 1.363 . S
C517 H520 0.929 . S
C518 C517 1.363 . S
C518 C524 1.428 . S
H519 C515 0.930 . S
H520 C517 0.929 . S
S521 N522 1.613 1_554 S
S521 N523 1.610 1_554 S
N522 S521 1.613 1_556 S
N522 C525 1.350 . S
N523 S521 1.610 1_556 S
N523 C524 1.351 . S
C524 C518 1.428 . S
C524 N523 1.351 . S
C524 C525 1.434 . S
C525 C516 1.429 . S
C525 N522 1.350 . S
C525 C524 1.434 . S
C526 C527 1.369 . S
C526 C528 1.419 . S
C526 H530 0.930 . S
C527 C526 1.369 . S
C527 C536 1.429 . S
C528 C526 1.419 . S
C528 C529 1.363 . S
C528 H531 0.929 . S
C529 C528 1.363 . S
C529 C535 1.428 . S
H530 C526 0.930 . S
H531 C528 0.929 . S
S532 N533 1.613 . S
S532 N534 1.610 . S
N533 S532 1.613 . S
N533 C536 1.350 . S
N534 S532 1.610 . S
N534 C535 1.351 . S
C535 C529 1.428 . S
C535 N534 1.351 . S
C535 C536 1.434 . S
C536 C527 1.429 . S
C536 N533 1.350 . S
C536 C535 1.434 . S
C537 C538 1.369 . S
C537 C539 1.419 . S
C537 H541 0.930 . S
C538 C537 1.369 . S
C538 C547 1.429 . S
C539 C537 1.419 . S
C539 C540 1.363 . S
C539 H542 0.929 . S
C540 C539 1.363 . S
C540 C546 1.428 . S
H541 C537 0.930 . S
H542 C539 0.929 . S
S543 N544 1.613 . S
S543 N545 1.610 . S
N544 S543 1.613 . S
N544 C547 1.350 . S
N545 S543 1.610 . S
N545 C546 1.351 . S
C546 C540 1.428 . S
C546 N545 1.351 . S
C546 C547 1.434 . S
C547 C538 1.429 . S
C547 N544 1.350 . S
C547 C546 1.434 . S
C548 C549 1.369 1_655 S
C548 C550 1.419 . S
C548 H552 0.930 . S
C549 C548 1.369 1_455 S
C549 C558 1.429 . S
C550 C548 1.419 . S
C550 C551 1.363 1_655 S
C550 H553 0.929 . S
C551 C550 1.363 1_455 S
C551 C557 1.428 . S
H552 C548 0.930 . S
H553 C550 0.929 . S
S554 N555 1.613 . S
S554 N556 1.610 . S
N555 S554 1.613 . S
N555 C558 1.350 . S
N556 S554 1.610 . S
N556 C557 1.351 . S
C557 C551 1.428 . S
C557 N556 1.351 . S
C557 C558 1.434 . S
C558 C549 1.429 . S
C558 N555 1.350 . S
C558 C557 1.434 . S
C559 C560 1.369 . S
C559 C561 1.419 . S
C559 H563 0.930 1_556 S
C560 C559 1.369 . S
C560 C569 1.429 . S
C561 C559 1.419 . S
C561 C562 1.363 . S
C561 H564 0.929 . S
C562 C561 1.363 . S
C562 C568 1.428 . S
H563 C559 0.930 1_554 S
H564 C561 0.929 . S
S565 N566 1.613 . S
S565 N567 1.610 . S
N566 S565 1.613 . S
N566 C569 1.350 . S
N567 S565 1.610 . S
N567 C568 1.351 . S
C568 C562 1.428 . S
C568 N567 1.351 . S
C568 C569 1.434 . S
C569 C560 1.429 . S
C569 N566 1.350 . S
C569 C568 1.434 . S
C570 C571 1.369 . S
C570 C572 1.419 . S
C570 H574 0.930 . S
C571 C570 1.369 . S
C571 C580 1.429 . S
C572 C570 1.419 . S
C572 C573 1.363 . S
C572 H575 0.929 . S
C573 C572 1.363 . S
C573 C579 1.428 . S
H574 C570 0.930 . S
H575 C572 0.929 . S
S576 N577 1.613 . S
S576 N578 1.610 . S
N577 S576 1.613 . S
N577 C580 1.350 . S
N578 S576 1.610 . S
N578 C579 1.351 . S
C579 C573 1.428 . S
C579 N578 1.351 . S
C579 C580 1.434 . S
C580 C571 1.429 . S
C580 N577 1.350 . S
C580 C579 1.434 . S
C581 C582 1.369 . S
C581 C583 1.419 . S
C581 H585 0.930 . S
C582 C581 1.369 . S
C582 C591 1.429 . S
C583 C581 1.419 . S
C583 C584 1.363 . S
C583 H586 0.929 . S
C584 C583 1.363 . S
C584 C590 1.428 . S
H585 C581 0.930 . S
H586 C583 0.929 . S
S587 N588 1.613 . S
S587 N589 1.610 . S
N588 S587 1.613 . S
N588 C591 1.350 . S
N589 S587 1.610 . S
N589 C590 1.351 . S
C590 C584 1.428 . S
C590 N589 1.351 . S
C590 C591 1.434 . S
C591 C582 1.429 . S
C591 N588 1.350 . S
C591 C590 1.434 . S
C592 C593 1.369 1_455 S
C592 C594 1.419 . S
C592 H596 0.930 . S
C593 C592 1.369 1_655 S
C593 C602 1.429 . S
C594 C592 1.419 . S
C594 C595 1.363 1_455 S
C594 H597 0.929 . S
C595 C594 1.363 1_655 S
C595 C601 1.428 . S
H596 C592 0.930 . S
H597 C594 0.929 . S
S598 N599 1.613 . S
S598 N600 1.610 . S
N599 S598 1.613 . S
N599 C602 1.350 . S
N600 S598 1.610 . S
N600 C601 1.351 . S
C601 C595 1.428 . S
C601 N600 1.351 . S
C601 C602 1.434 . S
C602 C593 1.429 . S
C602 N599 1.350 . S
C602 C601 1.434 . S
C603 C604 1.369 . S
C603 C605 1.419 . S
C603 H607 0.930 . S
C604 C603 1.369 . S
C604 C613 1.429 . S
C605 C603 1.419 . S
C605 C606 1.363 . S
C605 H608 0.929 . S
C606 C605 1.363 . S
C606 C612 1.428 . S
H607 C603 0.930 . S
H608 C605 0.929 . S
S609 N610 1.613 1_545 S
S609 N611 1.610 . S
N610 S609 1.613 1_565 S
N610 C613 1.350 . S
N611 S609 1.610 . S
N611 C612 1.351 1_545 S
C612 C606 1.428 . S
C612 N611 1.351 1_565 S
C612 C613 1.434 . S
C613 C604 1.429 . S
C613 N610 1.350 . S
C613 C612 1.434 . S
C614 C615 1.369 . S
C614 C616 1.419 . S
C614 H618 0.930 . S
C615 C614 1.369 . S
C615 C624 1.429 . S
C616 C614 1.419 . S
C616 C617 1.363 . S
C616 H619 0.929 . S
C617 C616 1.363 . S
C617 C623 1.428 . S
H618 C614 0.930 . S
H619 C616 0.929 . S
S620 N621 1.613 . S
S620 N622 1.610 . S
N621 S620 1.613 . S
N621 C624 1.350 . S
N622 S620 1.610 . S
N622 C623 1.351 . S
C623 C617 1.428 . S
C623 N622 1.351 . S
C623 C624 1.434 . S
C624 C615 1.429 . S
C624 N621 1.350 . S
C624 C623 1.434 . S
C625 C626 1.369 . S
C625 C627 1.419 . S
C625 H629 0.930 . S
C626 C625 1.369 . S
C626 C635 1.429 . S
C627 C625 1.419 . S
C627 C628 1.363 . S
C627 H630 0.929 . S
C628 C627 1.363 . S
C628 C634 1.428 . S
H629 C625 0.930 . S
H630 C627 0.929 . S
S631 N632 1.613 . S
S631 N633 1.610 . S
N632 S631 1.613 . S
N632 C635 1.350 . S
N633 S631 1.610 . S
N633 C634 1.351 . S
C634 C628 1.428 . S
C634 N633 1.351 . S
C634 C635 1.434 . S
C635 C626 1.429 . S
C635 N632 1.350 . S
C635 C634 1.434 . S
C373 C241 2.111 . S
C375 C304 2.149 . S
C386 C322 1.565 . S
C384 C277 1.789 . S
C397 C343 2.109 . S
C395 C169 2.082 . S
C408 C367 1.612 . S
C406 C205 1.747 1_655 S
C419 C301 1.988 1_565 S
C417 C97 1.854 1_556 S
C428 C133 1.588 1_556 S
C430 C325 1.397 . S
C439 C25 1.832 1_556 S
C441 C346 1.961 . S
C450 C61 1.562 1_556 S
C452 C364 1.429 . S
C463 C306 0.751 . S
C461 C211 0.731 . S
C474 C324 1.243 . S
C472 C247 1.164 . S
C485 C345 0.735 . S
C483 C253 0.705 . S
C494 C175 1.185 . S
C496 C369 1.238 . S
C505 C67 0.745 . S
C507 C305 0.766 . S
C518 C323 1.307 1_565 S
C516 C103 1.080 . S
C529 C344 0.749 . S
C527 C109 0.740 . S
C538 C31 1.102 . S
C540 C368 1.307 . S
C549 C181 2.005 . S
C551 C302 2.057 . S
C560 C217 2.209 1_556 S
C562 C326 2.273 . S
C573 C347 2.037 . S
C571 C283 1.960 . S
C584 C365 2.292 . S
C582 C145 2.217 1_556 S
C593 C37 1.926 1_655 S
C595 C303 1.932 . S
C606 C327 2.146 . S
C604 C73 2.063 . S
C617 C348 1.915 . S
C615 C139 1.832 . S
C626 C1 2.075 . S
C628 C366 2.163 . S
