# Generated by pormake.
# Topology zzz, (3,6)-cn, num edge types: 1
# Building blocks:
#     Node 0, Type 0, BuildingBlock: CUQRIR_clean_linker_1, # of connection points: 3
#     Node 1, Type 0, BuildingBlock: CUQRIR_clean_linker_1, # of connection points: 3
#     Node 2, Type 0, BuildingBlock: CUQRIR_clean_linker_1, # of connection points: 3
#     Node 3, Type 0, BuildingBlock: CUQRIR_clean_linker_1, # of connection points: 3
#     Node 4, Type 0, BuildingBlock: CUQRIR_clean_linker_1, # of connection points: 3
#     Node 5, Type 0, BuildingBlock: CUQRIR_clean_linker_1, # of connection points: 3
#     Node 6, Type 0, BuildingBlock: CUQRIR_clean_linker_1, # of connection points: 3
#     Node 7, Type 0, BuildingBlock: CUQRIR_clean_linker_1, # of connection points: 3
#     Node 8, Type 1, BuildingBlock: KUMBUR_clean_sbu_1, # of connection points: 6
#     Node 9, Type 1, BuildingBlock: KUMBUR_clean_sbu_1, # of connection points: 6
#     Node 10, Type 1, BuildingBlock: KUMBUR_clean_sbu_1, # of connection points: 6
#     Node 11, Type 1, BuildingBlock: KUMBUR_clean_sbu_1, # of connection points: 6
#     Edge 12, Type (0, 1), BuildingBlock: ZUJKAS_clean_linker_0, # of connection points: 2
#     Edge 13, Type (0, 1), BuildingBlock: ZUJKAS_clean_linker_0, # of connection points: 2
#     Edge 14, Type (0, 1), BuildingBlock: ZUJKAS_clean_linker_0, # of connection points: 2
#     Edge 15, Type (0, 1), BuildingBlock: ZUJKAS_clean_linker_0, # of connection points: 2
#     Edge 16, Type (0, 1), BuildingBlock: ZUJKAS_clean_linker_0, # of connection points: 2
#     Edge 17, Type (0, 1), BuildingBlock: ZUJKAS_clean_linker_0, # of connection points: 2
#     Edge 18, Type (0, 1), BuildingBlock: ZUJKAS_clean_linker_0, # of connection points: 2
#     Edge 19, Type (0, 1), BuildingBlock: ZUJKAS_clean_linker_0, # of connection points: 2
#     Edge 20, Type (0, 1), BuildingBlock: ZUJKAS_clean_linker_0, # of connection points: 2
#     Edge 21, Type (0, 1), BuildingBlock: ZUJKAS_clean_linker_0, # of connection points: 2
#     Edge 22, Type (0, 1), BuildingBlock: ZUJKAS_clean_linker_0, # of connection points: 2
#     Edge 23, Type (0, 1), BuildingBlock: ZUJKAS_clean_linker_0, # of connection points: 2
#     Edge 24, Type (0, 1), BuildingBlock: ZUJKAS_clean_linker_0, # of connection points: 2
#     Edge 25, Type (0, 1), BuildingBlock: ZUJKAS_clean_linker_0, # of connection points: 2
#     Edge 26, Type (0, 1), BuildingBlock: ZUJKAS_clean_linker_0, # of connection points: 2
#     Edge 27, Type (0, 1), BuildingBlock: ZUJKAS_clean_linker_0, # of connection points: 2
#     Edge 28, Type (0, 1), BuildingBlock: ZUJKAS_clean_linker_0, # of connection points: 2
#     Edge 29, Type (0, 1), BuildingBlock: ZUJKAS_clean_linker_0, # of connection points: 2
#     Edge 30, Type (0, 1), BuildingBlock: ZUJKAS_clean_linker_0, # of connection points: 2
#     Edge 31, Type (0, 1), BuildingBlock: ZUJKAS_clean_linker_0, # of connection points: 2
#     Edge 32, Type (0, 1), BuildingBlock: ZUJKAS_clean_linker_0, # of connection points: 2
#     Edge 33, Type (0, 1), BuildingBlock: ZUJKAS_clean_linker_0, # of connection points: 2
#     Edge 34, Type (0, 1), BuildingBlock: ZUJKAS_clean_linker_0, # of connection points: 2
#     Edge 35, Type (0, 1), BuildingBlock: ZUJKAS_clean_linker_0, # of connection points: 2
# Relax obj value: 0.170
# Max RMSD: 0.096
# Mean RMSD: 0.085
data_MOF--net-zzz--node1-KUMBUR_clean_sbu_1--node2-CUQRIR_clean_linker_1--edge1-ZUJKAS_clean_linker_0
_symmetry_space_group_name_H-M    P1
_symmetry_Int_Tables_number       1
_symmetry_cell_setting            triclinic
loop_
_symmetry_equiv_pos_as_xyz
'x, y, z'
_cell_length_a     61.380293
_cell_length_b     61.425176
_cell_length_c     18.673873
_cell_angle_alpha  89.892642
_cell_angle_beta   90.17224
_cell_angle_gamma 90.060246
loop_
_atom_site_label
_atom_site_type_symbol
_atom_site_fract_x
_atom_site_fract_y
_atom_site_fract_z
_atom_type_partial_charge
C0 C 0.7579 0.53603 0.2307 0.0
N1 N 0.77841 0.54426 0.238 0.0
N2 N 0.74745 0.54523 0.17349 0.0
C3 C 0.74811 0.51922 0.27913 0.0
C4 C 0.76258 0.55898 0.14598 0.0
N5 N 0.7811 0.55855 0.18535 0.0
C6 C 0.7597 0.57178 0.07782 0.0
H7 H 0.75187 0.50283 0.25762 0.0
H8 H 0.73014 0.52106 0.28138 0.0
H9 H 0.75516 0.52043 0.33378 0.0
H10 H 0.75023 0.58672 0.08963 0.0
H11 H 0.75041 0.56212 0.03789 0.0
H12 H 0.77556 0.57673 0.05459 0.0
C13 C 1.0072 0.75894 0.28032 0.0
N14 N 0.99601 0.77793 0.28842 0.0
N15 N 0.99521 0.74399 0.24319 0.0
C16 C 0.03021 0.75548 0.30471 0.0
C17 C 0.9764 0.75471 0.2293 0.0
N18 N 0.97702 0.77541 0.25464 0.0
C19 C 0.9579 0.74526 0.18609 0.0
H20 H 0.04137 0.76344 0.26604 0.0
H21 H 0.03413 0.73786 0.30745 0.0
H22 H 0.03281 0.76313 0.35784 0.0
H23 H 0.95293 0.72939 0.20921 0.0
H24 H 0.96345 0.74223 0.13048 0.0
H25 H 0.94352 0.75618 0.18536 0.0
C26 C 0.79907 1.01428 0.30081 0.0
N27 N 0.7786 1.00559 0.30268 0.0
N28 N 0.81046 1.00656 0.24361 0.0
C29 C 0.80779 0.03043 0.35364 0.0
C30 C 0.79613 0.99318 0.21051 0.0
N31 N 0.77696 0.99246 0.24628 0.0
C32 C 0.80006 0.98267 0.13871 0.0
H33 H 0.80316 0.04705 0.33594 0.0
H34 H 0.82583 0.02952 0.35652 0.0
H35 H 0.80068 0.02754 0.4074 0.0
H36 H 0.8021 0.96488 0.14639 0.0
H37 H 0.81485 0.98908 0.11199 0.0
H38 H 0.78588 0.98531 0.10275 0.0
C39 C 0.53787 0.79817 0.28122 0.0
N40 N 0.54359 0.77678 0.27255 0.0
N41 N 0.54194 0.80994 0.22049 0.0
C42 C 0.52885 0.80777 0.34859 0.0
C43 C 0.55012 0.79505 0.17485 0.0
N44 N 0.55129 0.77521 0.20614 0.0
C45 C 0.55513 0.79945 0.09701 0.0
H46 H 0.51087 0.80597 0.34812 0.0
H47 H 0.53277 0.82539 0.35185 0.0
H48 H 0.53543 0.7992 0.39631 0.0
H49 H 0.57305 0.79969 0.08972 0.0
H50 H 0.54847 0.81524 0.07827 0.0
H51 H 0.54837 0.78631 0.0628 0.0
C52 C 0.29165 0.50358 0.04367 0.0
N53 N 0.27021 0.49757 0.04581 0.0
N54 N 0.30239 0.49697 0.10405 0.0
C55 C 0.30213 0.51588 0.98356 0.0
C56 C 0.28674 0.48694 0.14285 0.0
N57 N 0.26744 0.48721 0.10778 0.0
C58 C 0.28974 0.47865 0.21831 0.0
H59 H 0.3198 0.51215 0.98093 0.0
H60 H 0.30024 0.53359 0.99335 0.0
H61 H 0.2942 0.51185 0.93176 0.0
H62 H 0.27754 0.48633 0.254 0.0
H63 H 0.30629 0.48189 0.23968 0.0
H64 H 0.28682 0.46084 0.21934 0.0
C65 C 0.03575 0.29828 0.06282 0.0
N66 N 0.04367 0.27753 0.05994 0.0
N67 N 0.0436 0.30903 0.12154 0.0
C68 C 0.02055 0.30805 1.00874 0.0
C69 C 0.05625 0.29394 0.15438 0.0
N70 N 0.0564 0.27506 0.11709 0.0
C71 C 0.06664 0.29686 0.22702 0.0
H72 H 0.02231 0.32603 1.00738 0.0
H73 H 1.00356 0.30405 0.02403 0.0
H74 H 0.02366 0.30117 0.95482 0.0
H75 H 0.05953 0.31076 0.25664 0.0
H76 H 0.08433 0.29983 0.21987 0.0
H77 H 0.06472 0.28192 0.25992 0.0
C78 C 0.25487 0.04143 0.07165 0.0
N79 N 0.27643 0.04688 0.07433 0.0
N80 N 0.24458 0.04692 0.13391 0.0
C81 C 0.24377 0.03133 1.00833 0.0
C82 C 0.26071 0.05556 0.17446 0.0
N83 N 0.27978 0.05562 0.13854 0.0
C84 C 0.25813 0.06251 0.2513 0.0
H85 H 0.22611 0.03522 1.00816 0.0
H86 H 0.24565 1.0134 1.01153 0.0
H87 H 0.25136 0.03703 0.95779 0.0
H88 H 0.27336 0.0598 0.28215 0.0
H89 H 0.24464 0.05356 0.27768 0.0
H90 H 0.25431 0.08016 0.25258 0.0
C91 C 0.51088 0.25734 0.07203 0.0
N92 N 0.50124 0.27698 0.05955 0.0
N93 N 0.49873 0.24493 0.1179 0.0
C94 C 0.53249 0.25072 0.04207 0.0
C95 C 0.48147 0.25795 0.13279 0.0
N96 N 0.48301 0.27727 0.09786 0.0
C97 C 0.46379 0.25225 0.18554 0.0
H98 H 0.5347 0.25764 0.98762 0.0
H99 H 0.53395 0.23273 0.04027 0.0
H100 H 0.5456 0.25726 0.07699 0.0
H101 H 0.47122 0.24742 0.23744 0.0
H102 H 0.45431 0.23819 0.16522 0.0
H103 H 0.45221 0.26581 0.19407 0.0
Tb104 Tb 1.00266 0.04047 0.597 0.0
C105 C 0.07807 0.05697 0.78414 0.0
N106 N 0.07575 0.04071 0.73548 0.0
C107 C 0.11091 0.04952 0.68671 0.0
C108 C 0.09638 0.07087 0.78367 0.0
C109 C 0.09269 0.03588 0.69073 0.0
C110 C 0.11255 0.06741 0.73238 0.0
C111 C 0.06534 0.07398 0.89329 0.0
C112 C 0.06291 0.05853 0.8382 0.0
C113 C 0.08303 0.08848 0.89147 0.0
C114 C 0.09845 0.08703 0.83647 0.0
Tb115 Tb 0.04431 0.02033 0.74439 0.0
N116 N 0.04601 0.0443 0.8378 0.0
C117 C 0.05025 0.07395 0.94937 0.0
C118 C 0.03194 0.04333 0.89441 0.0
C119 C 0.03365 0.05835 0.95043 0.0
H120 H 0.09256 0.02126 0.65881 0.0
H121 H 0.02215 0.05791 0.99424 0.0
H122 H 0.95688 1.01631 0.6414 0.0
H123 H 0.0404 0.05032 0.33707 0.0
H124 H 0.01905 0.03133 0.8951 0.0
H125 H 0.05153 0.08559 0.99273 0.0
H126 H 0.03144 0.06101 0.4607 0.0
H127 H 0.1239 0.04593 0.64954 0.0
H128 H 0.08523 0.10049 0.9333 0.0
H129 H 0.11233 0.09795 0.83673 0.0
H130 H 0.93158 0.98914 0.58893 0.0
H131 H 0.12686 0.07772 0.73007 0.0
H132 H 0.02201 0.01862 0.28171 0.0
N133 N 0.97862 1.01549 0.55308 0.0
C134 C 0.98225 1.00823 0.4857 0.0
C135 C 0.94589 0.99422 0.55959 0.0
C136 C 0.96845 0.9927 0.45366 0.0
C137 C 0.96021 1.00954 0.58919 0.0
C138 C 0.95023 0.98547 0.49199 0.0
N139 N 1.0104 0.03396 0.47881 0.0
C140 C 0.02419 0.04646 0.43862 0.0
C141 C 1.00284 1.0114 0.37602 0.0
C142 C 0.99907 1.01752 0.44762 0.0
C143 C 0.01855 0.02283 0.33685 0.0
C144 C 0.02897 0.04072 0.36791 0.0
H145 H 0.93914 0.9736 0.4692 0.0
H146 H 0.96267 0.97338 0.35842 0.0
H147 H 0.99291 0.98973 0.29035 0.0
O148 O 0.98665 0.06226 0.52735 0.0
O149 O 1.00342 1.00479 0.62004 0.0
O150 O 0.0385 0.99717 0.65607 0.0
O151 O 0.97834 0.06072 0.63881 0.0
O152 O 0.03775 0.04712 0.57993 0.0
O153 O 0.05496 1.018 0.63171 0.0
O154 O 0.03883 0.99799 0.82649 0.0
O155 O 0.02678 0.05173 0.75329 0.0
O156 O 0.02634 0.06415 0.63936 0.0
O157 O 0.07093 1.00199 0.78364 0.0
O158 O 1.01015 1.011 0.76491 0.0
O159 O 0.98943 0.03694 0.70598 0.0
C160 C 0.02009 0.99127 0.62499 0.0
C161 C 0.98024 0.09541 0.58864 0.0
C162 C 1.00227 0.12783 0.56644 0.0
C163 C 0.99046 0.1389 0.61962 0.0
C164 C 0.9685 0.10681 0.64087 0.0
C165 C 0.97364 0.12844 0.65627 0.0
C166 C 0.99698 0.10606 0.55129 0.0
C167 C 0.05364 0.03275 0.58062 0.0
C168 C 0.97665 0.07185 0.5799 0.0
C169 C 0.97287 0.98555 0.38376 0.0
C170 C 0.99011 0.99485 0.34505 0.0
C171 C 0.02762 0.0681 0.70822 0.0
C172 C 0.05966 0.96651 0.81965 0.0
C173 C 0.04509 0.93163 0.8599 0.0
C174 C 0.05829 0.92097 0.80945 0.0
C175 C 0.07274 0.95573 0.76942 0.0
C176 C 0.046 0.95437 0.86426 0.0
C177 C 0.07203 0.93301 0.76458 0.0
C178 C 0.99222 0.0227 0.75822 0.0
C179 C 0.05849 0.99035 0.82481 0.0
H180 H 0.99436 0.15556 0.63348 0.0
H181 H 0.95574 0.0988 0.67104 0.0
H182 H 0.96475 0.13705 0.69737 0.0
H183 H 1.00598 0.09737 0.51056 0.0
H184 H 0.05816 0.9034 0.805 0.0
H185 H 0.08324 0.96477 0.73354 0.0
H186 H 0.03543 0.96292 0.90112 0.0
H187 H 0.08208 0.92471 0.72573 0.0
Tb188 Tb 0.53564 0.04978 0.75058 0.0
C189 C 0.51345 0.95873 0.65559 0.0
N190 N 0.52837 0.97311 0.63078 0.0
C191 C 0.55572 0.94521 0.63221 0.0
C192 C 0.5193 0.93726 0.67389 0.0
C193 C 0.54909 0.96644 0.61553 0.0
C194 C 0.54086 0.93067 0.66283 0.0
C195 C 0.4757 0.95079 0.68082 0.0
C196 C 0.49208 0.96537 0.65854 0.0
C197 C 0.48152 0.92979 0.70404 0.0
C198 C 0.50331 0.923 0.70035 0.0
Tb199 Tb 0.51628 1.00746 0.60504 0.0
N200 N 0.48721 0.98553 0.6335 0.0
C201 C 0.45395 0.95744 0.67588 0.0
C202 C 0.46595 0.99121 0.6222 0.0
C203 C 0.44904 0.97758 0.64502 0.0
H204 H 0.56061 0.9777 0.59216 0.0
H205 H 0.43225 0.98248 0.63768 0.0
H206 H 0.49316 0.06392 0.85395 0.0
H207 H 0.59477 0.10212 0.6238 0.0
H208 H 0.46196 1.00618 0.59482 0.0
H209 H 0.44084 0.94676 0.69252 0.0
H210 H 0.58158 0.06806 0.68013 0.0
H211 H 0.57229 0.94013 0.6218 0.0
H212 H 0.4692 0.91842 0.72225 0.0
H213 H 0.5075 0.90653 0.71596 0.0
H214 H 0.46768 0.09481 0.86149 0.0
H215 H 0.54603 0.91428 0.67597 0.0
H216 H 0.57022 0.13398 0.6141 0.0
N217 N 0.5122 0.07815 0.77085 0.0
C218 C 0.51701 0.09689 0.7354 0.0
C219 C 0.48128 0.09547 0.82476 0.0
C220 C 0.50344 0.11533 0.74023 0.0
C221 C 0.49551 0.07778 0.8192 0.0
C222 C 0.48497 0.11416 0.7838 0.0
N223 N 0.5498 0.08046 0.69965 0.0
C224 C 0.57081 0.0819 0.67584 0.0
C225 C 0.54342 0.11793 0.66793 0.0
C226 C 0.5367 0.09824 0.69975 0.0
C227 C 0.5644 0.11911 0.63885 0.0
C228 C 0.57831 0.10116 0.64419 0.0
H229 H 0.4741 0.12795 0.78899 0.0
H230 H 0.49893 0.14883 0.70658 0.0
H231 H 0.53398 0.15109 0.64311 0.0
O232 O 0.55852 0.03706 0.82211 0.0
O233 O 0.53659 0.05738 0.63492 0.0
O234 O 0.50637 0.04157 0.5879 0.0
O235 O 0.5453 0.06889 0.83931 0.0
O236 O 0.56237 0.03077 0.70136 0.0
O237 O 0.54952 0.0203 0.58993 0.0
O238 O 0.50017 0.9966 0.51143 0.0
O239 O 0.5334 0.99734 0.7047 0.0
O240 O 0.52086 0.01971 0.79208 0.0
O241 O 0.53394 1.00535 0.50968 0.0
O242 O 0.48997 0.02832 0.65046 0.0
O243 O 0.50199 0.0374 0.76411 0.0
C244 C 0.51984 0.05815 0.59128 0.0
C245 C 0.58316 0.06333 0.86036 0.0
C246 C 0.62168 0.05354 0.86293 0.0
C247 C 0.62707 0.07498 0.84314 0.0
C248 C 0.58878 0.08477 0.84163 0.0
C249 C 0.61068 0.09053 0.83344 0.0
C250 C 0.59971 0.04817 0.87342 0.0
C251 C 0.56569 0.02431 0.63479 0.0
C252 C 0.56058 0.05525 0.85679 0.0
C253 C 0.50931 0.13459 0.70437 0.0
C254 C 0.5293 0.1359 0.66836 0.0
C255 C 0.52637 1.00013 0.77053 0.0
C256 C 0.51437 1.01377 0.4066 0.0
C257 C 0.49395 0.04013 0.33514 0.0
C258 C 0.51152 0.04148 0.28722 0.0
C259 C 0.53163 1.01518 0.35764 0.0
C260 C 0.49556 0.02627 0.39508 0.0
C261 C 0.53022 0.02902 0.29848 0.0
C262 C 0.48605 0.03348 0.71808 0.0
C263 C 0.51708 1.00029 0.47135 0.0
H264 H 0.64387 0.07968 0.8345 0.0
H265 H 0.57633 0.09685 0.831 0.0
H266 H 0.61494 0.10698 0.81791 0.0
H267 H 0.59526 0.03185 0.89013 0.0
H268 H 0.51084 0.0522 0.24117 0.0
H269 H 0.54638 1.0058 0.36584 0.0
H270 H 0.4821 0.025 0.43227 0.0
H271 H 0.54368 0.03015 0.26137 0.0
Tb272 Tb 0.54301 0.51753 0.57476 0.0
C273 C 0.48194 0.51616 0.86291 0.0
N274 N 0.47932 0.51518 0.79097 0.0
C275 C 0.44997 0.48971 0.80557 0.0
C276 C 0.46929 0.50327 0.90939 0.0
C277 C 0.46295 0.50292 0.7618 0.0
C278 C 0.45338 0.48963 0.87967 0.0
C279 C 0.49899 0.53388 0.96414 0.0
C280 C 0.49635 0.53127 0.8897 0.0
C281 C 0.48732 0.5203 1.01112 0.0
C282 C 0.47244 0.50504 0.98376 0.0
Tb283 Tb 0.50148 0.53702 0.72398 0.0
N284 N 0.50667 0.54444 0.84248 0.0
C285 C 0.5127 0.5505 0.9888 0.0
C286 C 0.51922 0.56134 0.86609 0.0
C287 C 0.52268 0.56445 0.9395 0.0
H288 H 0.46023 0.50295 0.70463 0.0
H289 H 0.53292 0.57766 0.95798 0.0
H290 H 0.59064 0.52184 0.66458 0.0
H291 H 0.51707 0.55776 0.33197 0.0
H292 H 0.52669 0.57236 0.82822 0.0
H293 H 0.51523 0.55306 0.04562 0.0
H294 H 0.51572 0.52978 0.42724 0.0
H295 H 0.43737 0.47963 0.78217 0.0
H296 H 0.48921 0.5219 0.06858 0.0
H297 H 0.46305 0.49513 0.02052 0.0
H298 H 0.61933 0.54926 0.68005 0.0
H299 H 0.44326 0.47946 0.91347 0.0
H300 H 0.5448 0.58701 0.33713 0.0
N301 N 0.57223 0.54071 0.58992 0.0
C302 C 0.57346 0.55749 0.54242 0.0
C303 C 0.60621 0.55211 0.64229 0.0
C304 C 0.59031 0.57309 0.54632 0.0
C305 C 0.58938 0.53689 0.63517 0.0
C306 C 0.60639 0.5706 0.59885 0.0
N307 N 0.54247 0.54307 0.48541 0.0
C308 C 0.52803 0.54236 0.42947 0.0
C309 C 0.5596 0.57486 0.43473 0.0
C310 C 0.55844 0.55836 0.48717 0.0
C311 C 0.54445 0.57463 0.37851 0.0
C312 C 0.52874 0.55817 0.37551 0.0
H313 H 0.61961 0.58222 0.60373 0.0
H314 H 0.60368 0.60243 0.49883 0.0
H315 H 0.57668 0.60403 0.40124 0.0
O316 O 0.54309 0.49998 0.47945 0.0
O317 O 0.52327 0.54784 0.57424 0.0
O318 O 0.52597 0.5602 0.6866 0.0
O319 O 0.5716 0.5005 0.54504 0.0
O320 O 0.51038 0.50674 0.54475 0.0
O321 O 0.48688 0.52317 0.62618 0.0
O322 O 0.4794 0.5601 0.76389 0.0
O323 O 0.50652 0.50149 0.72898 0.0
O324 O 0.53218 0.4901 0.64409 0.0
O325 O 0.48179 0.55384 0.65028 0.0
O326 O 0.53672 0.54156 0.74293 0.0
O327 O 0.5535 0.51291 0.68713 0.0
C328 C 0.52683 0.5642 0.61803 0.0
C329 C 0.56455 0.46859 0.47575 0.0
C330 C 0.55208 0.43645 0.41045 0.0
C331 C 0.56819 0.42401 0.44526 0.0
C332 C 0.58062 0.45599 0.50971 0.0
C333 C 0.58236 0.43378 0.49449 0.0
C334 C 0.5505 0.45868 0.42607 0.0
C335 C 0.49081 0.51258 0.56604 0.0
C336 C 0.56244 0.49216 0.48868 0.0
C337 C 0.59102 0.59015 0.49609 0.0
C338 C 0.57573 0.591 0.44029 0.0
C339 C 0.51853 0.4863 0.69802 0.0
C340 C 0.47528 0.58985 0.68394 0.0
C341 C 0.49121 0.62551 0.70778 0.0
C342 C 0.4794 0.63415 0.64968 0.0
C343 C 0.46353 0.59872 0.62639 0.0
C344 C 0.48931 0.60322 0.72349 0.0
C345 C 0.46571 0.62076 0.60915 0.0
C346 C 0.55184 0.52637 0.7418 0.0
C347 C 0.47379 0.56644 0.6996 0.0
H348 H 0.56998 0.40682 0.434 0.0
H349 H 0.59183 0.46325 0.54769 0.0
H350 H 0.59476 0.42411 0.52079 0.0
H351 H 0.53795 0.46831 0.4002 0.0
H352 H 0.48042 0.65128 0.63625 0.0
H353 H 0.45287 0.58854 0.59441 0.0
H354 H 0.49904 0.59617 0.76605 0.0
H355 H 0.45666 0.62751 0.56453 0.0
Tb356 Tb 0.02805 0.54735 0.59975 0.0
C357 C 0.04869 0.4753 0.80336 0.0
N358 N 0.03293 0.47608 0.75199 0.0
C359 C 0.04389 0.44071 0.71052 0.0
C360 C 0.06335 0.45767 0.80797 0.0
C361 C 0.02941 0.45826 0.70952 0.0
C362 C 0.06125 0.44062 0.75893 0.0
C363 C 0.06352 0.49014 0.91356 0.0
C364 C 0.04894 0.49132 0.85527 0.0
C365 C 0.07889 0.47325 0.91635 0.0
C366 C 0.07889 0.45711 0.86339 0.0
Tb367 Tb 1.01121 0.50666 0.75408 0.0
N368 N 0.03426 0.50774 0.84979 0.0
C369 C 0.06186 0.50574 0.9679 0.0
C370 C 0.03181 0.52237 0.9042 0.0
C371 C 0.0457 0.52172 0.96371 0.0
H372 H 1.01517 0.45708 0.67579 0.0
H373 H 0.04391 0.53351 1.00628 0.0
H374 H 1.00277 0.59218 0.64742 0.0
H375 H 0.03039 0.50642 0.34289 0.0
H376 H 0.01912 0.53449 0.90162 0.0
H377 H 0.07267 0.50533 0.01386 0.0
H378 H 0.04515 0.51795 0.45976 0.0
H379 H 0.04132 0.42699 0.67517 0.0
H380 H 0.09049 0.47224 0.96008 0.0
H381 H 0.09043 0.44382 0.8673 0.0
H382 H 0.97231 0.61498 0.60286 0.0
H383 H 0.0722 0.4268 0.76053 0.0
H384 H 0.99574 0.52206 0.29817 0.0
N385 N 1.00036 0.5694 0.5622 0.0
C386 C 0.991 0.5645 0.49843 0.0
C387 C 0.97729 0.6007 0.57326 0.0
C388 C 0.97354 0.57684 0.47103 0.0
C389 C 0.99447 0.58779 0.59841 0.0
C390 C 0.96653 0.59501 0.50983 0.0
N391 N 0.01774 0.5376 0.48579 0.0
C392 C 0.02943 0.52395 0.44282 0.0
C393 C 0.9911 0.54233 0.39164 0.0
C394 C 0.9997 0.5476 0.45953 0.0
C395 C 1.00182 0.52663 0.35059 0.0
C396 C 0.02135 0.51775 0.37569 0.0
H397 H 0.95318 0.60498 0.4906 0.0
H398 H 0.95032 0.57993 0.3841 0.0
H399 H 0.96568 0.54956 0.31424 0.0
O400 O 0.04713 0.57422 0.62923 0.0
O401 O 0.99361 0.5446 0.63437 0.0
O402 O 0.98829 0.5089 0.66321 0.0
O403 O 0.04757 0.56242 0.52128 0.0
O404 O 0.0369 0.51259 0.58479 0.0
O405 O 1.00992 0.49363 0.64349 0.0
O406 O 0.98318 0.51216 0.81553 0.0
O407 O 0.04235 0.52488 0.75948 0.0
O408 O 0.05343 0.52576 0.64357 0.0
O409 O 0.9976 0.48043 0.81162 0.0
O410 O 1.00281 0.54115 0.77514 0.0
O411 O 0.027 0.5617 0.70784 0.0
C412 C 0.98155 0.52691 0.63191 0.0
C413 C 0.08105 0.57347 0.5738 0.0
C414 C 0.11499 0.5541 0.55026 0.0
C415 C 0.12563 0.56749 0.60053 0.0
C416 C 0.09209 0.58694 0.62255 0.0
C417 C 0.11425 0.5839 0.63585 0.0
C418 C 0.09266 0.55728 0.53715 0.0
C419 C 0.0241 0.49539 0.59066 0.0
C420 C 0.05714 0.57482 0.56819 0.0
C421 C 0.96402 0.57089 0.40541 0.0
C422 C 0.97274 0.55359 0.36581 0.0
C423 C 0.05815 0.52462 0.71215 0.0
C424 C 0.98542 0.49298 0.92475 0.0
C425 C 0.97762 0.51114 0.03817 0.0
C426 C 0.98986 0.49533 0.07466 0.0
C427 C 0.99775 0.47732 0.96216 0.0
C428 C 0.97534 0.50973 0.96345 0.0
C429 C 0.99993 0.47855 0.03663 0.0
C430 C 1.01376 0.55935 0.76299 0.0
C431 C 0.98417 0.49306 0.84548 0.0
H432 H 0.14269 0.56517 0.61318 0.0
H433 H 0.0834 0.5994 0.65187 0.0
H434 H 0.12256 0.5941 0.67446 0.0
H435 H 0.08428 0.54705 0.49874 0.0
H436 H 0.99166 0.496 0.13234 0.0
H437 H 1.00595 0.46431 0.93397 0.0
H438 H 0.96555 0.52169 0.93528 0.0
H439 H 1.00949 0.46648 0.06495 0.0
H440 H 0.21578 0.07868 0.16277 0.0
H441 H 0.18135 0.07495 0.22852 0.0
H442 H 0.18883 1.00519 0.22778 0.0
H443 H 0.22341 1.00909 0.16203 0.0
H444 H 0.14135 0.05282 0.20651 0.0
H445 H 0.18554 0.01956 0.44227 0.0
H446 H 0.19944 0.03225 0.36808 0.0
H447 H 0.18951 1.00482 0.36036 0.0
C448 C 0.20967 0.06254 0.17479 0.0
C449 C 0.22212 0.04417 0.15638 0.0
C450 C 0.19006 0.0604 0.21291 0.0
C451 C 0.1825 0.0398 0.23465 0.0
C452 C 0.19437 0.02131 0.21291 0.0
H453 H 0.07942 0.99954 0.53261 0.0
H454 H 0.10943 1.00113 0.44658 0.0
C455 C 0.21397 0.02348 0.17431 0.0
C456 C 0.16298 0.03795 0.28307 0.0
H457 H 0.14732 0.02182 0.45113 0.0
C458 C 0.14267 0.046 0.25994 0.0
C459 C 0.16451 0.02915 0.3532 0.0
C460 C 0.18593 0.02111 0.383 0.0
C461 C 0.12398 0.04515 0.30409 0.0
C462 C 0.12557 0.03653 0.37455 0.0
C463 C 0.14588 0.02842 0.39743 0.0
C464 C 0.10651 0.03566 0.42543 0.0
C465 C 0.10257 0.05305 0.27389 0.0
C466 C 0.09466 0.05452 0.4435 0.0
C467 C 0.07733 0.0536 0.49277 0.0
C468 C 0.07147 0.03384 0.52591 0.0
C469 C 0.0834 1.01504 0.50815 0.0
C470 C 0.10064 1.01595 0.4588 0.0
H471 H 0.10253 0.05274 0.21439 0.0
H472 H 0.08875 0.04301 0.29347 0.0
H473 H 0.09987 0.07014 0.29088 0.0
H474 H 0.09908 0.07011 0.42068 0.0
H475 H 0.06886 0.0685 0.50617 0.0
H476 H 0.4738 0.20849 0.12092 0.0
H477 H 0.47826 0.17679 0.19922 0.0
H478 H 0.54034 0.20185 0.27002 0.0
H479 H 0.53488 0.23448 0.19572 0.0
H480 H 0.50292 0.14423 0.21417 0.0
H481 H 0.51547 0.1924 0.46074 0.0
H482 H 0.50797 0.20494 0.37701 0.0
H483 H 0.53602 0.19816 0.3955 0.0
C484 C 0.48833 0.2073 0.15364 0.0
C485 C 0.50375 0.22429 0.15297 0.0
C486 C 0.49099 0.18902 0.19832 0.0
C487 C 0.50933 0.18693 0.24337 0.0
C488 C 0.52556 0.20321 0.23869 0.0
H489 H 0.5528 0.08133 0.52811 0.0
H490 H 0.55001 0.11226 0.44524 0.0
C491 C 0.52268 0.22174 0.19482 0.0
C492 C 0.51115 0.1679 0.295 0.0
H493 H 0.52159 0.15429 0.47051 0.0
C494 C 0.50691 0.14661 0.27019 0.0
C495 C 0.51608 0.17056 0.36905 0.0
C496 C 0.5189 0.19275 0.40235 0.0
C497 C 0.5078 0.12827 0.31618 0.0
C498 C 0.51331 0.13098 0.38928 0.0
C499 C 0.51756 0.15212 0.41437 0.0
C500 C 0.51482 0.11207 0.44035 0.0
C501 C 0.50287 0.10599 0.28642 0.0
C502 C 0.496 0.10163 0.46641 0.0
C503 C 0.49759 0.08415 0.51523 0.0
C504 C 0.51801 0.07649 0.53852 0.0
C505 C 0.5368 0.08692 0.51209 0.0
C506 C 0.53523 0.10456 0.46419 0.0
H507 H 0.50185 0.10603 0.22702 0.0
H508 H 0.51554 0.09416 0.30351 0.0
H509 H 0.48704 0.10026 0.30799 0.0
H510 H 0.48004 0.10717 0.4496 0.0
H511 H 0.48283 0.07684 0.53588 0.0
H512 H 0.33773 0.4712 0.09164 0.0
H513 H 0.37164 0.47396 0.16219 0.0
H514 H 0.3493 0.53453 0.25162 0.0
H515 H 0.31558 0.53176 0.18037 0.0
H516 H 0.40536 0.51236 0.18253 0.0
H517 H 0.35797 0.48825 0.42336 0.0
H518 H 0.3487 0.48235 0.33353 0.0
H519 H 0.34686 0.50953 0.36783 0.0
C520 C 0.34055 0.48552 0.12407 0.0
C521 C 0.3243 0.50157 0.12901 0.0
C522 C 0.35982 0.487 0.165 0.0
C523 C 0.36308 0.5044 0.2128 0.0
C524 C 0.34726 0.52095 0.2153 0.0
H525 H 0.44943 0.52949 0.57458 0.0
H526 H 0.41989 0.52708 0.4876 0.0
C527 C 0.32811 0.51954 0.17391 0.0
C528 C 0.38203 0.50439 0.26402 0.0
H529 H 0.39493 0.4969 0.44092 0.0
C530 C 0.40313 0.50893 0.23902 0.0
C531 C 0.37921 0.49997 0.33786 0.0
C532 C 0.35703 0.4946 0.3677 0.0
C533 C 0.42129 0.50974 0.28594 0.0
C534 C 0.41853 0.50517 0.36013 0.0
C535 C 0.39735 0.5004 0.38458 0.0
C536 C 0.437 0.50604 0.41389 0.0
C537 C 0.44307 0.51635 0.25555 0.0
C538 C 0.45669 0.49465 0.40357 0.0
C539 C 0.47394 0.49624 0.45339 0.0
C540 C 0.47187 0.50886 0.51604 0.0
C541 C 0.45183 0.51951 0.52754 0.0
C542 C 0.43478 0.51818 0.47733 0.0
H543 H 0.44119 0.52561 0.20472 0.0
H544 H 0.45241 0.52652 0.29397 0.0
H545 H 0.4527 0.50153 0.24363 0.0
H546 H 0.45882 0.4845 0.35683 0.0
H547 H 0.48899 0.48769 0.4424 0.0
H548 H 1.00561 0.32404 0.17634 0.0
H549 H 1.00071 0.35745 0.24759 0.0
H550 H 0.06743 0.37535 0.2063 0.0
H551 H 0.0721 0.34212 0.13524 0.0
H552 H 0.02264 0.36786 0.37146 0.0
H553 H 0.03746 0.43326 0.1733 0.0
H554 H 0.03198 0.4055 0.14722 0.0
H555 H 0.05885 0.41338 0.17606 0.0
C556 C 0.01891 0.33557 0.18039 0.0
C557 C 0.03908 0.33072 0.1487 0.0
C558 C 1.01623 0.35457 0.22187 0.0
C559 C 0.0336 0.36932 0.23221 0.0
C560 C 0.05354 0.36475 0.1983 0.0
H561 H 0.0591 0.4831 0.50681 0.0
H562 H 0.06101 0.4531 0.42018 0.0
C563 C 0.05622 0.34574 0.15732 0.0
C564 C 0.03152 0.38839 0.28277 0.0
H565 H 0.03819 0.44376 0.29631 0.0
C566 C 0.02584 0.38446 0.35463 0.0
C567 C 0.03588 0.4102 0.26184 0.0
C568 C 0.04118 0.41593 0.18527 0.0
C569 C 0.02488 0.40138 0.40581 0.0
C570 C 0.02924 0.4232 0.38494 0.0
C571 C 0.03486 0.42717 0.31301 0.0
C572 C 0.02792 0.44202 0.43679 0.0
C573 C 0.01989 0.39554 0.48256 0.0
C574 C 1.00863 0.44632 0.47481 0.0
C575 C 1.0075 0.46354 0.52426 0.0
C576 C 0.02555 0.47721 0.53694 0.0
C577 C 0.04478 0.47312 0.49817 0.0
C578 C 0.04591 0.45586 0.44857 0.0
H579 H 0.02333 0.37811 0.49388 0.0
H580 H 0.02952 0.40567 0.52037 0.0
H581 H 1.00234 0.39841 0.49295 0.0
H582 H 0.99428 0.4364 0.466 0.0
H583 H 0.99235 0.46621 0.55243 0.0
H584 H 0.84706 0.98276 0.25557 0.0
H585 H 0.8803 0.98674 0.18361 0.0
H586 H 0.85404 0.04522 0.08893 0.0
H587 H 0.82121 0.0414 0.16286 0.0
H588 H 0.88354 0.98418 0.04425 0.0
H589 H 0.91503 0.06535 0.11878 0.0
H590 H 0.89427 0.05168 0.17025 0.0
H591 H 0.88714 0.06656 0.09032 0.0
C592 C 0.84893 0.99698 0.2218 0.0
C593 C 0.83189 1.01218 0.21672 0.0
C594 C 0.8678 0.99911 0.17971 0.0
C595 C 0.8701 1.01645 0.13076 0.0
C596 C 0.85325 0.03203 0.12734 0.0
H597 H 0.95471 0.04685 0.76985 0.0
H598 H 0.92632 0.04464 0.86092 0.0
C599 C 0.83445 0.02995 0.16995 0.0
C600 C 0.88908 1.01711 0.07939 0.0
H601 H 0.92903 0.0501 1.01033 0.0
C602 C 0.8936 0.99856 0.03767 0.0
C603 C 0.90241 0.03579 0.06983 0.0
C604 C 0.89963 0.05588 0.1152 0.0
C605 C 0.91042 0.99837 0.98609 0.0
C606 C 0.92345 1.01717 0.97567 0.0
C607 C 0.9191 0.03565 0.01773 0.0
C608 C 0.94117 1.01822 0.92003 0.0
C609 C 0.91364 0.97819 0.94143 0.0
C610 C 0.95933 1.00421 0.92233 0.0
C611 C 0.97578 1.00544 0.86991 0.0
C612 C 0.97455 0.02072 0.81358 0.0
C613 C 0.95635 0.03474 0.81174 0.0
C614 C 0.94002 0.03358 0.86424 0.0
H615 H 0.89933 0.96712 0.94408 0.0
H616 H 0.91663 0.98251 0.88454 0.0
H617 H 0.92806 0.96917 0.96164 0.0
H618 H 0.96093 0.99244 0.96524 0.0
H619 H 0.98953 0.99446 0.87383 0.0
H620 H 0.50356 0.82681 0.17624 0.0
H621 H 0.49876 0.86098 0.10878 0.0
H622 H 0.56616 0.8771 0.14644 0.0
H623 H 0.57079 0.84294 0.21373 0.0
H624 H 0.53825 0.91416 0.15216 0.0
H625 H 0.52405 0.86597 0.9052 0.0
H626 H 0.50584 0.85996 0.97779 0.0
H627 H 0.53436 0.85393 0.98676 0.0
C628 C 0.51704 0.83813 0.17263 0.0
C629 C 0.5374 0.83245 0.20197 0.0
C630 C 0.51444 0.85749 0.13285 0.0
C631 C 0.53219 0.87163 0.12103 0.0
C632 C 0.55217 0.86661 0.15436 0.0
H633 H 0.55313 0.96427 0.77133 0.0
H634 H 0.5536 0.93371 0.85581 0.0
C635 C 0.55477 0.8472 0.19372 0.0
C636 C 0.53044 0.89076 0.07047 0.0
H637 H 0.52146 0.90418 0.8943 0.0
C638 C 0.53445 0.91195 0.09589 0.0
C639 C 0.52589 0.88807 0.99642 0.0
C640 C 0.52247 0.86578 0.96446 0.0
C641 C 0.5338 0.93033 0.04998 0.0
C642 C 0.52886 0.92766 0.97617 0.0
C643 C 0.52506 0.90644 0.9507 0.0
C644 C 0.52825 0.94649 0.92409 0.0
C645 C 0.53903 0.95242 0.08071 0.0
C646 C 0.51371 0.96401 0.93292 0.0
C647 C 0.5132 0.98142 0.8836 0.0
C648 C 0.5271 0.98175 0.82368 0.0
C649 C 0.54173 0.9643 0.81532 0.0
C650 C 0.54215 0.94685 0.86426 0.0
H651 H 0.54768 0.95114 0.1329 0.0
H652 H 0.54924 0.96204 0.04321 0.0
H653 H 0.52364 0.96146 0.0896 0.0
H654 H 0.50251 0.96413 0.97758 0.0
H655 H 0.50168 0.99452 0.89187 0.0
H656 H 0.73052 0.50728 0.12289 0.0
H657 H 0.6961 0.50279 0.05581 0.0
H658 H 0.68113 0.57048 0.09086 0.0
H659 H 0.71552 0.57489 0.15654 0.0
H660 H 0.65231 0.50868 0.0838 0.0
H661 H 0.67775 0.56757 0.87546 0.0
H662 H 0.69641 0.55724 0.94209 0.0
H663 H 0.67802 0.57906 0.96367 0.0
C664 C 0.71963 0.52103 0.11725 0.0
C665 C 0.72572 0.54145 0.14485 0.0
C666 C 0.7 0.51853 0.0785 0.0
C667 C 0.68608 0.53642 0.0662 0.0
C668 C 0.69171 0.55652 0.09733 0.0
H669 H 0.56598 0.56097 0.82354 0.0
H670 H 0.59745 0.56257 0.90441 0.0
C671 C 0.71129 0.55901 0.13559 0.0
C672 C 0.66604 0.53436 0.0197 0.0
H673 H 0.64082 0.55602 0.8716 0.0
C674 C 0.6499 0.51896 0.0372 0.0
C675 C 0.66267 0.54768 0.95838 0.0
C676 C 0.67971 0.56366 0.93324 0.0
C677 C 0.63046 0.51695 0.9967 0.0
C678 C 0.62702 0.53045 0.93594 0.0
C679 C 0.64322 0.54573 0.91823 0.0
C680 C 0.60691 0.52895 0.8896 0.0
C681 C 0.61351 0.50072 0.02055 0.0
C682 C 0.60145 0.50955 0.85371 0.0
C683 C 0.58331 0.50858 0.80752 0.0
C684 C 0.57009 0.527 0.7956 0.0
C685 C 0.57543 0.54633 0.83218 0.0
C686 C 0.59362 0.54732 0.87814 0.0
H687 H 0.61575 0.49602 0.07758 0.0
H688 H 0.59681 0.50736 0.01346 0.0
H689 H 0.61491 0.48577 0.98762 0.0
H690 H 0.61154 0.49523 0.85999 0.0
H691 H 0.57983 0.49345 0.78007 0.0
H692 H 0.02431 0.73888 0.13574 0.0
H693 H 0.0287 0.70647 0.05952 0.0
H694 H 0.98393 0.67118 0.19409 0.0
H695 H 0.97954 0.70362 0.26953 0.0
H696 H 0.04165 0.66328 0.07984 0.0
H697 H 0.95466 0.66547 0.99971 0.0
H698 H 0.96755 0.68758 0.04722 0.0
H699 H 0.95889 0.66359 0.09465 0.0
C700 C 1.01594 0.72398 0.15005 0.0
C701 C 1.00173 0.72375 0.20906 0.0
C702 C 0.01825 0.70548 0.10605 0.0
C703 C 1.00625 0.68632 0.11949 0.0
C704 C 0.993 0.68577 0.18095 0.0
H705 H 0.98757 0.56308 0.88304 0.0
H706 H 0.98622 0.59305 0.96993 0.0
C707 C 0.99071 0.70424 0.22482 0.0
C708 C 1.00702 0.66729 0.06832 0.0
H709 H 0.97517 0.6353 0.95953 0.0
C710 C 0.02709 0.65725 0.05346 0.0
C711 C 0.9881 0.65914 0.03347 0.0
C712 C 0.9661 0.66959 0.04389 0.0
C713 C 0.02871 0.63929 1.00632 0.0
C714 C 1.00981 0.63125 0.97093 0.0
C715 C 0.98972 0.64124 0.98616 0.0
C716 C 1.01057 0.61284 0.91728 0.0
C717 C 0.05068 0.62874 0.99651 0.0
C718 C 0.02428 0.61388 0.85707 0.0
C719 C 0.02512 0.59673 0.80731 0.0
C720 C 1.01212 0.57792 0.8155 0.0
C721 C 0.99799 0.5771 0.87488 0.0
C722 C 0.99718 0.59431 0.9248 0.0
H723 H 0.06163 0.63199 0.04278 0.0
H724 H 0.04914 0.61085 0.98973 0.0
H725 H 0.05855 0.63557 0.94798 0.0
H726 H 0.03433 0.62812 0.84805 0.0
H727 H 0.0361 0.59826 0.76232 0.0
H728 H 0.03044 0.24134 0.14523 0.0
H729 H 0.03986 0.20867 0.21244 0.0
H730 H 0.10695 0.22969 0.22282 0.0
H731 H 0.09722 0.2628 0.15483 0.0
H732 H 0.06967 0.17412 0.20349 0.0
H733 H 0.08789 0.22974 0.43221 0.0
H734 H 0.07564 0.24015 0.35131 0.0
H735 H 0.10363 0.23169 0.35136 0.0
C736 C 0.0473 0.23859 0.15983 0.0
C737 C 0.06313 0.25439 0.14549 0.0
C738 C 0.05272 0.21997 0.19815 0.0
C739 C 0.07407 0.21687 0.22326 0.0
C740 C 0.09034 0.23192 0.2046 0.0
H741 H 0.04151 0.11119 0.52007 0.0
H742 H 0.06852 0.12925 0.44438 0.0
C743 C 0.08484 0.25071 0.166 0.0
C744 C 0.07764 0.19971 0.27755 0.0
H745 H 0.07458 0.19519 0.45911 0.0
C746 C 0.07163 0.17835 0.25953 0.0
C747 C 0.08048 0.20532 0.35045 0.0
C748 C 0.08725 0.22794 0.37305 0.0
C749 C 0.0651 0.1635 0.31241 0.0
C750 C 0.06513 0.17021 0.38481 0.0
C751 C 0.07436 0.19032 0.4033 0.0
C752 C 0.0508 0.1596 0.43784 0.0
C753 C 0.05575 0.14182 0.2898 0.0
C754 C 0.03227 0.17092 0.46091 0.0
C755 C 1.01689 0.16078 0.50426 0.0
C756 C 0.0197 0.13904 0.52553 0.0
C757 C 0.03871 0.12791 0.50426 0.0
C758 C 0.0542 0.13817 0.461 0.0
H759 H 0.05598 0.13963 0.23076 0.0
H760 H 0.06533 0.12846 0.31454 0.0
H761 H 0.03867 0.14029 0.30858 0.0
H762 H 0.02925 0.18745 0.44299 0.0
H763 H 1.00236 0.16974 0.51847 0.0
H764 H 0.31297 0.02786 0.15307 0.0
H765 H 0.34926 0.03588 0.20123 0.0
H766 H 0.32996 0.10238 0.23969 0.0
H767 H 0.29352 0.09427 0.18995 0.0
H768 H 0.37201 0.09654 0.16996 0.0
H769 H 0.36328 0.047 0.41585 0.0
H770 H 0.35511 0.0324 0.33702 0.0
H771 H 0.34017 0.05621 0.36388 0.0
C772 C 0.31659 0.04414 0.17189 0.0
C773 C 0.30077 0.06049 0.16838 0.0
C774 C 0.33714 0.04869 0.1996 0.0
C775 C 0.34205 0.06962 0.22486 0.0
C776 C 0.3263 0.08611 0.22087 0.0
H777 H 0.468 0.06087 0.43214 0.0
H778 H 0.4322 0.07679 0.4116 0.0
C779 C 0.30564 0.0815 0.193 0.0
C780 C 0.36393 0.07392 0.25413 0.0
H781 H 0.39998 0.05276 0.37381 0.0
C782 C 0.37812 0.08745 0.21565 0.0
C783 C 0.37161 0.06248 0.3147 0.0
C784 C 0.35667 0.04888 0.36073 0.0
C785 C 0.40039 0.08826 0.23256 0.0
C786 C 0.40851 0.07483 0.28816 0.0
C787 C 0.39387 0.0629 0.33057 0.0
C788 C 0.43202 0.0704 0.29765 0.0
C789 C 0.41504 0.10292 0.18925 0.0
C790 C 0.44413 0.0621 0.24017 0.0
C791 C 0.4648 0.05333 0.25173 0.0
C792 C 0.47355 0.05232 0.32125 0.0
C793 C 0.46178 0.0615 0.37808 0.0
C794 C 0.44131 0.07063 0.36634 0.0
H795 H 0.40619 0.1178 0.17186 0.0
H796 H 0.42975 0.10785 0.22002 0.0
H797 H 0.42029 0.09421 0.14023 0.0
H798 H 0.43707 0.06104 0.18708 0.0
H799 H 0.47326 0.04607 0.20694 0.0
H800 H 0.48055 0.29512 0.22756 0.0
H801 H 0.47178 0.33272 0.25324 0.0
H802 H 0.45292 0.34268 0.03284 0.0
H803 H 0.46138 0.30426 1.00747 0.0
H804 H 0.48827 0.3662 0.07081 0.0
H805 H 0.4269 0.38 0.27706 0.0
H806 H 0.44121 0.35561 0.30049 0.0
H807 H 0.42583 0.35669 0.21793 0.0
C808 C 0.47328 0.30496 0.18566 0.0
C809 C 0.47159 0.29693 0.11576 0.0
C810 C 0.46816 0.3265 0.20026 0.0
C811 C 0.46154 0.34056 0.14493 0.0
C812 C 0.45787 0.33205 0.07622 0.0
H813 H 0.53604 0.45358 0.28479 0.0
H814 H 0.50799 0.43812 0.20671 0.0
C815 C 0.46274 0.31024 0.0618 0.0
C816 C 0.46482 0.36414 0.15612 0.0
H817 H 0.46361 0.39752 0.30101 0.0
C818 C 0.48234 0.37372 0.11949 0.0
C819 C 0.45653 0.37443 0.21774 0.0
C820 C 0.43638 0.36619 0.25487 0.0
C821 C 0.49461 0.39039 0.15124 0.0
C822 C 0.48855 0.39792 0.21991 0.0
C823 C 0.46864 0.39118 0.24945 0.0
C824 C 0.50456 0.40842 0.26803 0.0
C825 C 0.51536 0.39778 0.11538 0.0
C826 C 0.51168 0.39698 0.32894 0.0
C827 C 0.52736 0.40589 0.37439 0.0
C828 C 0.53635 0.42642 0.35967 0.0
C829 C 0.52928 0.43781 0.29817 0.0
C830 C 0.51338 0.42895 0.25306 0.0
H831 H 0.51819 0.38938 0.06358 0.0
H832 H 0.51456 0.41554 0.10481 0.0
H833 H 0.52953 0.39471 0.15108 0.0
H834 H 0.50513 0.38101 0.3412 0.0
H835 H 0.53211 0.39685 0.42177 0.0
H836 H 0.23663 0.51692 0.13137 0.0
H837 H 0.20365 0.51223 0.20252 0.0
H838 H 0.21889 0.4442 0.23208 0.0
H839 H 0.25211 0.44904 0.1597 0.0
H840 H 0.1666 0.48368 0.19856 0.0
H841 H 0.22066 0.47056 0.43576 0.0
H842 H 0.2316 0.48023 0.35202 0.0
H843 H 0.22262 0.45253 0.3602 0.0
C844 C 0.23257 0.50088 0.15154 0.0
C845 C 0.24674 0.48336 0.14102 0.0
C846 C 0.21379 0.49817 0.19195 0.0
C847 C 0.20898 0.4779 0.22292 0.0
C848 C 0.22248 0.45998 0.20905 0.0
H849 H 0.10099 0.51317 0.50966 0.0
H850 H 0.12071 0.48654 0.43755 0.0
C851 C 0.24135 0.46274 0.16821 0.0
C852 C 0.1915 0.477 0.27682 0.0
H853 H 0.18579 0.48417 0.45667 0.0
C854 C 0.17042 0.48295 0.25528 0.0
C855 C 0.19667 0.47593 0.3506 0.0
C856 C 0.21909 0.46952 0.37658 0.0
C857 C 0.15517 0.49048 0.30518 0.0
C858 C 0.16128 0.49175 0.37808 0.0
C859 C 0.18135 0.48323 0.40049 0.0
C860 C 0.1497 0.50633 0.42761 0.0
C861 C 0.13363 0.49923 0.2788 0.0
C862 C 0.1597 0.526 0.44689 0.0
C863 C 0.14857 0.54124 0.48783 0.0
C864 C 0.12719 0.5371 0.51064 0.0
C865 C 0.11739 0.51703 0.49271 0.0
C866 C 0.1286 0.50173 0.45161 0.0
H867 H 0.13178 0.4977 0.21981 0.0
H868 H 0.12011 0.49021 0.30477 0.0
H869 H 0.13202 0.51666 0.29352 0.0
H870 H 0.17594 0.52988 0.42811 0.0
H871 H 0.1565 0.55661 0.49927 0.0
H872 H 0.95743 0.8092 0.32312 0.0
H873 H 0.95039 0.84479 0.26742 0.0
H874 H 0.96247 0.81709 0.05944 0.0
H875 H 0.97091 0.78254 0.11433 0.0
H876 H 0.99219 0.85287 0.19635 0.0
H877 H 0.9233 0.87109 0.01449 0.0
H878 H 0.92069 0.85367 0.09237 0.0
H879 H 0.93239 0.84331 1.0111 0.0
C880 C 0.95779 0.81065 0.26539 0.0
C881 C 0.9652 0.7933 0.2232 0.0
C882 C 0.95345 0.83084 0.23359 0.0
C883 C 0.95609 0.83356 0.15939 0.0
C884 C 0.95998 0.81531 0.1166 0.0
H885 H 0.02083 0.89516 0.82899 0.0
H886 H 0.99597 0.87569 0.90883 0.0
C887 C 0.96492 0.79546 0.14828 0.0
C888 C 0.96351 0.8546 0.13054 0.0
H889 H 0.95851 0.88639 0.98166 0.0
C890 C 0.98444 0.86107 0.15167 0.0
C891 C 0.95366 0.86437 0.07026 0.0
C892 C 0.93116 0.85788 0.04594 0.0
C893 C 0.99665 0.87568 0.11082 0.0
C894 C 0.98726 0.88468 0.04816 0.0
C895 C 0.96566 0.87945 0.02971 0.0
C896 C 1.00048 0.89774 0.99801 0.0
C897 C 0.02015 0.87962 0.13174 0.0
C898 C 1.01114 0.91655 0.02173 0.0
C899 C 0.02607 0.92706 0.97765 0.0
C900 C 0.02997 0.91955 0.90758 0.0
C901 C 0.0186 0.90113 0.88299 0.0
C902 C 1.00405 0.89025 0.92804 0.0
H903 H 0.02623 0.86722 0.17027 0.0
H904 H 0.03093 0.87943 0.08412 0.0
H905 H 0.02158 0.89577 0.15781 0.0
H906 H 1.00841 0.92274 0.07521 0.0
H907 H 0.03474 0.94096 0.99912 0.0
H908 H 0.74099 1.01608 0.22314 0.0
H909 H 0.70961 1.00573 0.15179 0.0
H910 H 0.73707 0.94187 0.12008 0.0
H911 H 0.76795 0.95174 0.1984 0.0
H912 H 0.73136 0.97255 0.99343 0.0
H913 H 0.6561 0.96191 0.15131 0.0
H914 H 0.67385 0.98228 0.18839 0.0
H915 H 0.6828 0.95441 0.18483 0.0
C916 C 0.73972 0.99942 0.20504 0.0
C917 C 0.75675 0.98466 0.21661 0.0
C918 C 0.72185 0.99352 0.16375 0.0
C919 C 0.721 0.97299 0.13127 0.0
C920 C 0.73737 0.95768 0.14565 0.0
H921 H 0.61989 1.01003 0.82909 0.0
H922 H 0.64389 0.98135 0.87433 0.0
C923 C 0.755 0.96339 0.18952 0.0
C924 C 0.70564 0.97023 0.07142 0.0
H925 H 0.65268 0.98338 0.04025 0.0
C926 C 0.71395 0.97379 1.00243 0.0
C927 C 0.68302 0.97167 0.08334 0.0
C928 C 0.67338 0.96714 0.15599 0.0
C929 C 0.70065 0.98237 0.94825 0.0
C930 C 0.67869 0.98697 0.96381 0.0
C931 C 0.66967 0.98002 0.02891 0.0
C932 C 0.66668 1.00365 0.92328 0.0
C933 C 0.71062 0.98881 0.87769 0.0
C934 C 0.67196 0.0256 0.93474 0.0
C935 C 0.658 0.04201 0.91111 0.0
C936 C 0.6386 0.03668 0.87523 0.0
C937 C 0.6344 1.01467 0.85845 0.0
C938 C 0.64817 0.99824 0.8834 0.0
H939 H 0.72557 0.97923 0.86644 0.0
H940 H 0.69879 0.98654 0.8332 0.0
H941 H 0.71517 1.0063 0.87958 0.0
H942 H 0.68615 0.02998 0.96631 0.0
H943 H 0.66171 0.05869 0.92533 0.0
H944 H 0.58743 0.76337 0.13456 0.0
H945 H 0.58935 0.73444 0.04367 0.0
H946 H 0.52445 0.71382 0.10029 0.0
H947 H 0.52234 0.74303 0.18906 0.0
H948 H 0.57198 0.68155 0.04748 0.0
H949 H 0.53117 0.74492 0.88131 0.0
H950 H 0.54984 0.75154 0.95303 0.0
H951 H 0.52264 0.74284 0.97327 0.0
C952 C 0.57393 0.75217 0.12859 0.0
C953 C 0.55466 0.75533 0.16754 0.0
C954 C 0.57507 0.73569 0.07735 0.0
C955 C 0.55701 0.72221 0.06564 0.0
C956 C 0.53856 0.72409 0.10926 0.0
H957 H 0.49637 0.62328 0.85267 0.0
H958 H 0.51906 0.64591 0.92847 0.0
C959 C 0.53735 0.74066 0.15981 0.0
C960 C 0.55542 0.70897 1.00055 0.0
H961 H 0.52773 0.70836 0.84264 0.0
C962 C 0.56279 0.68743 1.00166 0.0
C963 C 0.54395 0.717 0.94046 0.0
C964 C 0.53653 0.74039 0.93623 0.0
C965 C 0.55735 0.67309 0.94602 0.0
C966 C 0.54364 0.68049 0.88985 0.0
C967 C 0.53805 0.7026 0.88592 0.0
C968 C 0.53211 0.6653 0.84154 0.0
C969 C 0.56571 0.65003 0.94931 0.0
C970 C 0.5311 0.66922 0.76749 0.0
C971 C 0.51762 0.65655 0.72385 0.0
C972 C 0.50523 0.63949 0.75336 0.0
C973 C 0.50626 0.63575 0.8276 0.0
C974 C 0.51943 0.64857 0.87114 0.0
H975 H 0.58218 0.64951 0.97411 0.0
H976 H 0.55472 0.64011 0.98341 0.0
H977 H 0.56654 0.64254 0.89532 0.0
H978 H 0.54041 0.68235 0.74371 0.0
H979 H 0.51704 0.66005 0.66705 0.0
H980 H 0.80057 0.5958 0.22773 0.0
H981 H 0.83921 0.60541 0.20866 0.0
H982 H 0.84689 0.54789 0.07868 0.0
H983 H 0.80866 0.53849 0.09848 0.0
H984 H 0.87352 0.57954 0.25228 0.0
H985 H 0.87935 0.59326 0.96198 0.0
H986 H 0.8538 0.59515 1.0095 0.0
H987 H 0.86361 0.56918 0.97833 0.0
C988 C 0.81056 0.58573 0.1935 0.0
C989 C 0.80199 0.5666 0.16372 0.0
C990 C 0.83248 0.59113 0.18279 0.0
C991 C 0.84579 0.57758 0.14115 0.0
C992 C 0.8368 0.55892 0.10923 0.0
H993 H 0.95068 0.50626 0.15242 0.0
H994 H 0.92348 0.53228 0.19256 0.0
C995 C 0.81507 0.5535 0.12046 0.0
C996 C 0.86962 0.58085 0.13747 0.0
H997 H 0.91053 0.57418 0.01739 0.0
C998 C 0.88179 0.57917 0.20102 0.0
C999 C 0.88053 0.58117 0.07103 0.0
C1000 C 0.86859 0.58506 1.00148 0.0
C1001 C 0.90422 0.57482 0.19906 0.0
C1002 C 0.91438 0.57143 0.13214 0.0
C1003 C 0.90277 0.5762 0.06905 0.0
C1004 C 0.9348 0.55871 0.12513 0.0
C1005 C 0.9165 0.57276 0.26864 0.0
C1006 C 0.95079 0.56502 0.0756 0.0
C1007 C 0.96615 0.54995 0.05172 0.0
C1008 C 0.96578 0.5284 0.0771 0.0
C1009 C 0.95136 0.52279 0.13222 0.0
C1010 C 0.93588 0.53779 0.15566 0.0
H1011 H 0.9131 0.55663 0.29269 0.0
H1012 H 0.93434 0.57455 0.26091 0.0
H1013 H 0.91088 0.58525 0.30736 0.0
H1014 H 0.95033 0.58105 0.05132 0.0
H1015 H 0.97739 0.55467 1.00995 0.0
H1016 H 0.07457 0.2551 0.99006 0.0
H1017 H 0.07011 0.22149 0.92117 0.0
H1018 H 1.00045 0.2261 0.94504 0.0
H1019 H 1.00507 0.25997 0.01419 0.0
H1020 H 0.05367 0.18368 0.96975 0.0
H1021 H 1.00489 0.20962 0.73439 0.0
H1022 H 0.0186 0.22883 0.79219 0.0
H1023 H 0.99318 0.21684 0.81914 0.0
C1024 C 0.05826 0.24926 0.97884 0.0
C1025 C 0.04019 0.26046 1.00679 0.0
C1026 C 0.0557 0.22989 0.93982 0.0
C1027 C 0.03492 0.221 0.92691 0.0
C1028 C 1.01668 0.23261 0.95253 0.0
H1029 H 1.01093 0.08277 0.83512 0.0
H1030 H 1.01236 0.11949 0.88559 0.0
C1031 C 0.01928 0.25212 0.99187 0.0
C1032 C 0.03279 0.19892 0.89165 0.0
H1033 H 1.00999 0.1715 0.74963 0.0
C1034 C 0.04407 0.18113 0.92162 0.0
C1035 C 0.02052 0.19529 0.82813 0.0
C1036 C 1.00875 0.21366 0.79101 0.0
C1037 C 0.04327 0.16012 0.89092 0.0
C1038 C 0.03065 0.15636 0.82843 0.0
C1039 C 0.01956 0.17416 0.79769 0.0
C1040 C 0.02884 0.13404 0.79515 0.0
C1041 C 0.0565 0.14212 0.92462 0.0
C1042 C 0.03718 0.12968 0.7264 0.0
C1043 C 0.03658 0.10843 0.69762 0.0
C1044 C 0.02742 0.09102 0.73636 0.0
C1045 C 0.01852 0.09559 0.80415 0.0
C1046 C 0.01925 0.11671 0.83309 0.0
H1047 H 0.06875 0.14846 0.96322 0.0
H1048 H 0.0455 0.13085 0.95378 0.0
H1049 H 0.06505 0.13268 0.88265 0.0
H1050 H 0.04464 0.14263 0.69556 0.0
H1051 H 0.0438 0.1055 0.64582 0.0
H1052 H 0.28923 1.0106 1.00063 0.0
H1053 H 0.32228 1.00681 0.92723 0.0
H1054 H 0.33647 0.07493 0.95839 0.0
H1055 H 0.30287 0.07885 0.02695 0.0
H1056 H 0.34884 0.06577 0.83305 0.0
H1057 H 0.38166 0.99985 1.00411 0.0
H1058 H 0.35657 0.99233 0.96154 0.0
H1059 H 0.35697 1.01413 0.02604 0.0
C1060 C 0.29909 0.02485 0.98985 0.0
C1061 C 0.29336 0.04504 0.01986 0.0
C1062 C 0.31835 0.02261 0.94912 0.0
C1063 C 0.33266 0.0404 0.93861 0.0
C1064 C 0.32615 0.06078 0.9655 0.0
H1065 H 0.47232 0.03021 0.85726 0.0
H1066 H 0.43553 0.03232 0.90509 0.0
C1067 C 0.30683 0.06306 1.00493 0.0
C1068 C 0.3545 0.03808 0.9014 0.0
H1069 H 0.40218 1.00892 0.90148 0.0
C1070 C 0.36046 0.05329 0.84826 0.0
C1071 C 0.37018 0.02214 0.92132 0.0
C1072 C 0.36616 1.00634 0.98185 0.0
C1073 C 0.38126 0.05319 0.81554 0.0
C1074 C 0.39666 0.03678 0.83367 0.0
C1075 C 0.39061 0.02144 0.88633 0.0
C1076 C 0.41947 0.03586 0.80233 0.0
C1077 C 0.38672 0.07141 0.76435 0.0
C1078 C 0.42339 0.03705 0.72789 0.0
C1079 C 0.4448 0.03659 0.70025 0.0
C1080 C 0.46298 0.03421 0.74589 0.0
C1081 C 0.45896 0.03245 0.82001 0.0
C1082 C 0.43769 0.03339 0.84765 0.0
H1083 H 0.37635 0.08594 0.77374 0.0
H1084 H 0.40404 0.07641 0.76934 0.0
H1085 H 0.38369 0.06589 0.70867 0.0
H1086 H 0.40991 0.03826 0.6907 0.0
H1087 H 0.44706 0.03824 0.64306 0.0
H1088 H 0.52011 0.3138 0.11036 0.0
H1089 H 0.52545 0.34822 0.04509 0.0
H1090 H 0.50396 0.31726 0.85034 0.0
H1091 H 0.4986 0.28291 0.91621 0.0
H1092 H 0.549 0.36332 0.93088 0.0
H1093 H 0.46131 0.36706 0.86308 0.0
H1094 H 0.47235 0.34659 0.92212 0.0
H1095 H 0.47438 0.34344 0.8267 0.0
C1096 C 0.51718 0.31423 0.05317 0.0
C1097 C 0.50926 0.2955 0.01825 0.0
C1098 C 0.52001 0.33402 0.0158 0.0
C1099 C 0.51462 0.33581 0.94255 0.0
C1100 C 0.50781 0.31672 0.90692 0.0
H1101 H 0.54228 0.44946 0.66072 0.0
H1102 H 0.54212 0.41343 0.71809 0.0
C1103 C 0.50509 0.29691 0.94429 0.0
C1104 C 0.51532 0.35765 0.90452 0.0
H1105 H 0.48393 0.394 0.80951 0.0
C1106 C 0.53475 0.36992 0.90418 0.0
C1107 C 0.49673 0.36681 0.87028 0.0
C1108 C 0.47495 0.35542 0.87103 0.0
C1109 C 0.53617 0.39052 0.86993 0.0
C1110 C 0.51773 0.39937 0.83428 0.0
C1111 C 0.49823 0.3873 0.83569 0.0
C1112 C 0.518 0.42147 0.79806 0.0
C1113 C 0.55734 0.40293 0.87364 0.0
C1114 C 0.50429 0.43823 0.82225 0.0
C1115 C 0.50441 0.45893 0.78966 0.0
C1116 C 0.51796 0.46366 0.73058 0.0
C1117 C 0.53151 0.44671 0.70568 0.0
C1118 C 0.53155 0.42599 0.73896 0.0
H1119 H 0.56845 0.39626 0.91531 0.0
H1120 H 0.56569 0.40187 0.82115 0.0
H1121 H 0.55434 0.4204 0.88519 0.0
H1122 H 0.49364 0.43542 0.8675 0.0
H1123 H 0.49398 0.47131 0.81177 0.0
H1124 H 0.25907 0.53538 0.97591 0.0
H1125 H 0.22599 0.54189 0.9047 0.0
H1126 H 0.20684 0.47493 0.93564 0.0
H1127 H 0.24077 0.46808 0.99998 0.0
H1128 H 0.19342 0.48446 0.81561 0.0
H1129 H 0.16855 0.55466 0.981 0.0
H1130 H 0.19357 0.55987 0.93499 0.0
H1131 H 0.1923 0.53873 1.00209 0.0
C1132 C 0.24814 0.52192 0.96544 0.0
C1133 C 0.25266 0.50118 0.99405 0.0
C1134 C 0.2288 0.52576 0.92612 0.0
C1135 C 0.21306 0.50918 0.91638 0.0
C1136 C 0.21825 0.48825 0.94217 0.0
H1137 H 0.07442 0.53302 0.84643 0.0
H1138 H 0.11146 0.52854 0.89082 0.0
C1139 C 0.23775 0.4843 0.97948 0.0
C1140 C 0.19116 0.51326 0.88076 0.0
H1141 H 0.14657 0.54693 0.88024 0.0
C1142 C 0.18321 0.49812 0.83029 0.0
C1143 C 0.17726 0.53084 0.8997 0.0
C1144 C 0.18323 0.5468 0.95792 0.0
C1145 C 0.1621 0.49971 0.79995 0.0
C1146 C 0.14854 0.51775 0.81681 0.0
C1147 C 0.15667 0.53312 0.86618 0.0
C1148 C 0.12553 0.52037 0.78795 0.0
C1149 C 0.15431 0.48126 0.75308 0.0
C1150 C 0.12035 0.51764 0.71473 0.0
C1151 C 0.09864 0.519 0.69009 0.0
C1152 C 0.08148 0.52397 0.73711 0.0
C1153 C 0.08687 0.52814 0.80909 0.0
C1154 C 0.10836 0.52598 0.83435 0.0
H1155 H 0.16336 0.46598 0.76446 0.0
H1156 H 0.13668 0.47801 0.76079 0.0
H1157 H 0.15718 0.4855 0.69611 0.0
H1158 H 0.13305 0.51438 0.67621 0.0
H1159 H 0.09523 0.51597 0.63422 0.0
H1160 H 0.99009 0.78789 0.42776 0.0
H1161 H 0.99555 0.82338 0.48611 0.0
H1162 H 0.02236 0.84894 0.2902 0.0
H1163 H 1.01605 0.81355 0.23144 0.0
H1164 H 0.02853 0.84956 0.51871 0.0
H1165 H 0.97632 0.89354 0.32576 0.0
H1166 H 0.97967 0.86445 0.32247 0.0
H1167 H 0.99981 0.88223 0.28314 0.0
C1168 C 0.99749 0.80101 0.39766 0.0
C1169 C 1.00285 0.79779 0.32521 0.0
C1170 C 1.00053 0.82144 0.4309 0.0
C1171 C 1.00895 0.8394 0.3927 0.0
C1172 C 1.01525 0.8358 0.32096 0.0
H1173 H 0.05332 0.96254 0.59478 0.0
H1174 H 0.05106 0.92622 0.54146 0.0
C1175 C 1.01202 0.8154 0.2875 0.0
C1176 C 1.01072 0.86173 0.4276 0.0
H1177 H 0.99638 0.91553 0.40772 0.0
C1178 C 0.02145 0.86392 0.49414 0.0
C1179 C 1.00128 0.88081 0.39731 0.0
C1180 C 0.98842 0.88013 0.32859 0.0
C1181 C 0.02326 0.88425 0.52982 0.0
C1182 C 1.01438 0.90337 0.49821 0.0
C1183 C 1.00341 0.90114 0.43233 0.0
C1184 C 1.01589 0.9257 0.53264 0.0
C1185 C 0.03421 0.88489 0.60223 0.0
C1186 C 0.99702 0.93821 0.54501 0.0
C1187 C 0.99831 0.95917 0.57567 0.0
C1188 C 0.01851 0.96859 0.59395 0.0
C1189 C 0.03739 0.95602 0.58178 0.0
C1190 C 0.03611 0.93502 0.55142 0.0
H1191 H 0.03434 0.86859 0.62811 0.0
H1192 H 0.05137 0.89018 0.5956 0.0
H1193 H 0.02597 0.89655 0.63854 0.0
H1194 H 0.98114 0.93167 0.53154 0.0
H1195 H 0.98339 0.96787 0.5859 0.0
H1196 H 0.75708 0.97511 0.37832 0.0
H1197 H 0.72269 0.97941 0.44307 0.0
H1198 H 0.72423 0.04843 0.40112 0.0
H1199 H 0.75922 0.04407 0.33826 0.0
H1200 H 0.70681 0.0415 0.53018 0.0
H1201 H 0.66594 0.98555 0.34154 0.0
H1202 H 0.68804 0.97239 0.38708 0.0
H1203 H 0.69343 0.99494 0.32782 0.0
C1204 C 0.75034 0.99127 0.38462 0.0
C1205 C 0.76099 1.00923 0.35352 0.0
C1206 C 0.73042 0.99372 0.42067 0.0
C1207 C 0.72018 1.01417 0.42541 0.0
C1208 C 0.73148 0.0324 0.39805 0.0
H1209 H 0.57914 0.02382 0.49461 0.0
H1210 H 0.61612 0.0227 0.44748 0.0
C1211 C 0.75165 0.02997 0.36264 0.0
C1212 C 0.69751 1.01626 0.45644 0.0
H1213 H 0.64586 0.99511 0.44562 0.0
C1214 C 0.69348 0.0314 0.5114 0.0
C1215 C 0.6797 1.00355 0.4314 0.0
C1216 C 0.6819 0.98839 0.36822 0.0
C1217 C 0.67257 0.03385 0.54252 0.0
C1218 C 0.65501 0.0203 0.52004 0.0
C1219 C 0.65906 1.00541 0.46429 0.0
C1220 C 0.63219 0.02171 0.55089 0.0
C1221 C 0.6695 0.05152 0.59755 0.0
C1222 C 0.62823 0.02151 0.62539 0.0
C1223 C 0.60684 0.02263 0.65275 0.0
C1224 C 0.58864 0.02333 0.60656 0.0
C1225 C 0.59259 0.02317 0.53224 0.0
C1226 C 0.61392 0.0225 0.50501 0.0
H1227 H 0.68183 0.06464 0.59138 0.0
H1228 H 0.65304 0.05892 0.59359 0.0
H1229 H 0.67154 0.04448 0.65191 0.0
H1230 H 0.64166 0.02018 0.66282 0.0
H1231 H 0.60455 0.02261 0.71021 0.0
H1232 H 0.57392 0.74549 0.29487 0.0
H1233 H 0.56957 0.71107 0.35755 0.0
H1234 H 0.5071 0.73242 0.43607 0.0
H1235 H 0.51019 0.76565 0.36402 0.0
H1236 H 0.56847 0.69578 0.47386 0.0
H1237 H 0.48543 0.67671 0.37827 0.0
H1238 H 0.5002 0.69989 0.34519 0.0
H1239 H 0.48553 0.7014 0.42886 0.0
C1240 C 0.55903 0.74273 0.32443 0.0
C1241 C 0.54225 0.75837 0.3225 0.0
C1242 C 0.5566 0.72293 0.36143 0.0
C1243 C 0.53759 0.71818 0.40075 0.0
C1244 C 0.52151 0.73467 0.40379 0.0
H1245 H 0.54661 0.59979 0.67933 0.0
H1246 H 0.54919 0.63684 0.63228 0.0
C1247 C 0.52356 0.75419 0.36398 0.0
C1248 C 0.53508 0.69614 0.4377 0.0
H1249 H 0.49941 0.65415 0.47023 0.0
C1250 C 0.55333 0.68669 0.47184 0.0
C1251 C 0.51556 0.68357 0.43575 0.0
C1252 C 0.49568 0.6908 0.39438 0.0
C1253 C 0.5529 0.66545 0.50155 0.0
C1254 C 0.5331 0.65339 0.50284 0.0
C1255 C 0.51469 0.66302 0.47029 0.0
C1256 C 0.53118 0.63056 0.53426 0.0
C1257 C 0.57419 0.65596 0.52749 0.0
C1258 C 0.51933 0.61424 0.49793 0.0
C1259 C 0.51742 0.59305 0.52606 0.0
C1260 C 0.52755 0.58723 0.59099 0.0
C1261 C 0.53884 0.60355 0.62864 0.0
C1262 C 0.54057 0.62484 0.60088 0.0
H1263 H 0.58829 0.66352 0.49971 0.0
H1264 H 0.57611 0.65933 0.58552 0.0
H1265 H 0.57492 0.63812 0.51859 0.0
H1266 H 0.51173 0.61771 0.44678 0.0
H1267 H 0.5081 0.58111 0.49641 0.0
H1268 H 0.8012 0.50653 0.25275 0.0
H1269 H 0.8345 0.50106 0.32499 0.0
H1270 H 0.8287 0.56652 0.40573 0.0
H1271 H 0.79509 0.57132 0.33678 0.0
H1272 H 0.87284 0.51994 0.31877 0.0
H1273 H 0.84144 0.53723 0.58914 0.0
H1274 H 0.82352 0.53333 0.5136 0.0
H1275 H 0.83593 0.55951 0.52984 0.0
C1276 C 0.80665 0.51935 0.28825 0.0
C1277 C 0.79526 0.53918 0.29042 0.0
C1278 C 0.8259 0.51639 0.32882 0.0
C1279 C 0.83424 0.53322 0.37252 0.0
C1280 C 0.82255 0.55292 0.37494 0.0
H1281 H 0.95313 0.56116 0.61532 0.0
H1282 H 0.91833 0.56187 0.55033 0.0
C1283 C 0.80329 0.55574 0.33518 0.0
C1284 C 0.8556 0.53076 0.41244 0.0
H1285 H 0.88022 0.53918 0.57543 0.0
C1286 C 0.8743 0.52388 0.37515 0.0
C1287 C 0.85791 0.53584 0.48633 0.0
C1288 C 0.83857 0.54165 0.53216 0.0
C1289 C 0.895 0.52254 0.40865 0.0
C1290 C 0.89736 0.52835 0.48181 0.0
C1291 C 0.87866 0.53497 0.51927 0.0
C1292 C 0.919 0.52785 0.52044 0.0
C1293 C 0.91431 0.51542 0.36476 0.0
C1294 C 0.93114 0.50849 0.52686 0.0
C1295 C 0.95125 0.50817 0.56343 0.0
C1296 C 0.95982 0.52718 0.59485 0.0
C1297 C 0.9474 0.54638 0.59008 0.0
C1298 C 0.92733 0.54673 0.55335 0.0
H1299 H 0.91079 0.51598 0.30644 0.0
H1300 H 0.92874 0.5258 0.37619 0.0
H1301 H 0.91853 0.49838 0.3787 0.0
H1302 H 0.92498 0.49348 0.5042 0.0
H1303 H 0.9602 0.49302 0.56651 0.0
loop_
_geom_bond_atom_site_label_1
_geom_bond_atom_site_label_2
_geom_bond_distance
_geom_bond_site_symmetry_2
_ccdc_geom_bond_type
C0 N1 1.317 . S
C0 N2 1.348 . S
C0 C3 1.485 . S
N1 C0 1.317 . S
N1 N5 1.370 . S
N2 C0 1.348 . S
N2 C4 1.346 . S
C3 C0 1.485 . S
C3 H7 0.960 . S
C3 H8 0.961 . S
C3 H9 0.960 . S
C4 N2 1.346 . S
C4 N5 1.307 . S
C4 C6 1.486 . S
N5 N1 1.370 . S
N5 C4 1.307 . S
C6 C4 1.486 . S
C6 H10 0.960 . S
C6 H11 0.960 . S
C6 H12 0.959 . S
H7 C3 0.960 . S
H8 C3 0.961 . S
H9 C3 0.960 . S
H10 C6 0.960 . S
H11 C6 0.960 . S
H12 C6 0.959 . S
C13 N14 1.317 . S
C13 N15 1.348 . S
C13 C16 1.485 . S
N14 C13 1.317 . S
N14 N18 1.370 . S
N15 C13 1.348 . S
N15 C17 1.346 . S
C16 C13 1.485 . S
C16 H20 0.960 . S
C16 H21 0.961 . S
C16 H22 0.960 . S
C17 N15 1.346 . S
C17 N18 1.307 . S
C17 C19 1.486 . S
N18 N14 1.370 . S
N18 C17 1.307 . S
C19 C17 1.486 . S
C19 H23 0.960 . S
C19 H24 0.960 . S
C19 H25 0.959 . S
H20 C16 0.960 . S
H21 C16 0.961 . S
H22 C16 0.960 . S
H23 C19 0.960 . S
H24 C19 0.960 . S
H25 C19 0.959 . S
C26 N27 1.317 . S
C26 N28 1.348 . S
C26 C29 1.485 . S
N27 C26 1.317 . S
N27 N31 1.370 . S
N28 C26 1.348 . S
N28 C30 1.346 . S
C29 C26 1.485 . S
C29 H33 0.960 . S
C29 H34 0.961 . S
C29 H35 0.960 . S
C30 N28 1.346 . S
C30 N31 1.307 . S
C30 C32 1.486 . S
N31 N27 1.370 . S
N31 C30 1.307 . S
C32 C30 1.486 . S
C32 H36 0.960 . S
C32 H37 0.960 . S
C32 H38 0.959 . S
H33 C29 0.960 . S
H34 C29 0.961 . S
H35 C29 0.960 . S
H36 C32 0.960 . S
H37 C32 0.960 . S
H38 C32 0.959 . S
C39 N40 1.317 . S
C39 N41 1.348 . S
C39 C42 1.485 . S
N40 C39 1.317 . S
N40 N44 1.370 . S
N41 C39 1.348 . S
N41 C43 1.346 . S
C42 C39 1.485 . S
C42 H46 0.960 . S
C42 H47 0.961 . S
C42 H48 0.960 . S
C43 N41 1.346 . S
C43 N44 1.307 . S
C43 C45 1.486 . S
N44 N40 1.370 . S
N44 C43 1.307 . S
C45 C43 1.486 . S
C45 H49 0.960 . S
C45 H50 0.960 . S
C45 H51 0.959 . S
H46 C42 0.960 . S
H47 C42 0.961 . S
H48 C42 0.960 . S
H49 C45 0.960 . S
H50 C45 0.960 . S
H51 C45 0.959 . S
C52 N53 1.316 1_556 S
C52 N54 1.348 1_556 S
C52 C55 1.485 . S
N53 C52 1.316 1_554 S
N53 N57 1.387 . S
N54 C52 1.348 1_554 S
N54 C56 1.346 . S
C55 C52 1.485 . S
C55 H59 0.960 . S
C55 H60 0.961 . S
C55 H61 0.960 . S
C56 N54 1.346 . S
C56 N57 1.307 . S
C56 C58 1.486 . S
N57 N53 1.387 . S
N57 C56 1.307 . S
C58 C56 1.486 . S
C58 H62 0.960 . S
C58 H63 0.960 . S
C58 H64 0.959 . S
H59 C55 0.960 . S
H60 C55 0.961 . S
H61 C55 0.960 . S
H62 C58 0.960 . S
H63 C58 0.960 . S
H64 C58 0.959 . S
C65 N66 1.317 1_556 S
C65 N67 1.348 1_556 S
C65 C68 1.485 . S
N66 C65 1.317 1_554 S
N66 N70 1.370 . S
N67 C65 1.348 1_554 S
N67 C69 1.346 . S
C68 C65 1.485 . S
C68 H72 0.960 . S
C68 H73 0.961 . S
C68 H74 0.960 . S
C69 N67 1.346 . S
C69 N70 1.307 . S
C69 C71 1.486 . S
N70 N66 1.370 . S
N70 C69 1.307 . S
C71 C69 1.486 . S
C71 H75 0.960 . S
C71 H76 0.960 . S
C71 H77 0.959 . S
H72 C68 0.960 . S
H73 C68 0.961 . S
H74 C68 0.960 . S
H75 C71 0.960 . S
H76 C71 0.960 . S
H77 C71 0.959 . S
C78 N79 1.317 1_556 S
C78 N80 1.348 1_556 S
C78 C81 1.485 . S
N79 C78 1.317 1_554 S
N79 N83 1.370 . S
N80 C78 1.348 1_554 S
N80 C82 1.346 . S
C81 C78 1.485 . S
C81 H85 0.960 . S
C81 H86 0.961 . S
C81 H87 0.960 . S
C82 N80 1.346 . S
C82 N83 1.307 . S
C82 C84 1.486 . S
N83 N79 1.370 . S
N83 C82 1.307 . S
C84 C82 1.486 . S
C84 H88 0.960 . S
C84 H89 0.960 . S
C84 H90 0.959 . S
H85 C81 0.960 . S
H86 C81 0.961 . S
H87 C81 0.960 . S
H88 C84 0.960 . S
H89 C84 0.960 . S
H90 C84 0.959 . S
C91 N92 1.319 . S
C91 N93 1.348 1_556 S
C91 C94 1.485 . S
N92 C91 1.319 . S
N92 N96 1.354 1_556 S
N93 C91 1.348 1_554 S
N93 C95 1.346 . S
C94 C91 1.485 . S
C94 H98 0.960 . S
C94 H99 0.961 . S
C94 H100 0.960 . S
C95 N93 1.346 . S
C95 N96 1.307 . S
C95 C97 1.486 . S
N96 N92 1.354 1_554 S
N96 C95 1.307 . S
C97 C95 1.486 . S
C97 H101 0.960 . S
C97 H102 0.960 . S
C97 H103 0.959 . S
H98 C94 0.960 . S
H99 C94 0.961 . S
H100 C94 0.960 . S
H101 C97 0.960 . S
H102 C97 0.960 . S
H103 C97 0.959 . S
Tb104 N133 2.617 . S
Tb104 N139 2.572 . S
Tb104 O148 2.465 1_655 S
Tb104 O149 2.387 1_545 S
Tb104 O151 2.428 . S
Tb104 O152 2.308 1_655 S
Tb104 O156 2.349 1_655 S
Tb104 O159 2.393 . S
Tb104 C168 2.802 . S
C105 N106 1.379 . S
C105 C108 1.416 . S
C105 C112 1.424 . S
N106 C105 1.379 . S
N106 C109 1.334 . S
N106 Tb115 2.617 1_545 S
C107 C109 1.390 . S
C107 C110 1.339 . S
C107 H127 0.930 . S
C108 C105 1.416 . S
C108 C110 1.416 . S
C108 C114 1.448 . S
C109 N106 1.334 . S
C109 C107 1.390 . S
C109 H120 0.930 1_545 S
C110 C107 1.339 . S
C110 C108 1.416 . S
C110 H131 0.930 . S
C111 C112 1.413 . S
C111 C113 1.427 . S
C111 C117 1.416 . S
C112 C105 1.424 . S
C112 C111 1.413 . S
C112 N116 1.361 . S
C113 C111 1.427 . S
C113 C114 1.328 . S
C113 H128 0.929 1_556 S
C114 C108 1.448 . S
C114 C113 1.328 . S
C114 H129 0.930 . S
Tb115 N106 2.617 1_565 S
Tb115 N116 2.572 1_565 S
Tb115 O150 2.349 . S
Tb115 O153 2.393 1_565 S
Tb115 O154 2.465 . S
Tb115 O155 2.387 1_565 S
Tb115 O157 2.428 . S
Tb115 O158 2.308 1_465 S
Tb115 C179 2.802 . S
N116 C112 1.361 . S
N116 Tb115 2.572 1_545 S
N116 C118 1.340 . S
C117 C111 1.416 . S
C117 C119 1.332 . S
C117 H125 0.931 1_556 S
C118 N116 1.340 . S
C118 C119 1.407 . S
C118 H124 0.930 1_455 S
C119 C117 1.332 . S
C119 C118 1.407 . S
C119 H121 0.929 1_455 S
H120 C109 0.930 1_565 S
H121 C119 0.929 1_655 S
H122 C137 0.930 . S
H123 C144 0.934 . S
H124 C118 0.930 1_655 S
H125 C117 0.931 1_554 S
H126 C140 0.930 . S
H127 C107 0.930 . S
H128 C113 0.929 1_554 S
H129 C114 0.930 . S
H130 C135 0.930 . S
H131 C110 0.930 . S
H132 C143 0.931 . S
N133 Tb104 2.617 . S
N133 C134 1.379 . S
N133 C137 1.334 . S
C134 N133 1.379 . S
C134 C136 1.416 1_545 S
C134 C142 1.424 . S
C135 H130 0.930 . S
C135 C137 1.390 . S
C135 C138 1.335 1_545 S
C136 C134 1.416 1_565 S
C136 C138 1.417 . S
C136 C169 1.448 . S
C137 H122 0.930 . S
C137 N133 1.334 . S
C137 C135 1.390 . S
C138 C135 1.335 1_565 S
C138 C136 1.417 . S
C138 H145 0.933 . S
N139 Tb104 2.572 . S
N139 C140 1.340 1_655 S
N139 C142 1.361 . S
C140 H126 0.930 . S
C140 N139 1.340 1_455 S
C140 C144 1.391 1_545 S
C141 C142 1.413 1_565 S
C141 C143 1.416 . S
C141 C170 1.427 . S
C142 C134 1.424 . S
C142 N139 1.361 . S
C142 C141 1.413 1_545 S
C143 H132 0.931 . S
C143 C141 1.416 . S
C143 C144 1.346 1_655 S
C144 H123 0.934 . S
C144 C140 1.391 1_565 S
C144 C143 1.346 1_455 S
H145 C138 0.933 . S
H146 C169 0.930 . S
H147 C170 0.929 . S
O148 Tb104 2.465 1_455 S
O148 C168 1.264 1_455 S
O149 Tb104 2.387 1_565 S
O149 C160 1.264 . S
O150 Tb115 2.349 . S
O150 C160 1.243 1_455 S
O151 Tb104 2.428 . S
O151 C168 1.256 . S
O152 Tb104 2.308 1_455 S
O152 C167 1.266 . S
O153 Tb115 2.393 1_545 S
O153 C167 1.248 . S
O154 Tb115 2.465 . S
O154 C179 1.264 . S
O155 Tb115 2.387 1_545 S
O155 C171 1.264 . S
O156 Tb104 2.349 1_455 S
O156 C171 1.243 . S
O157 Tb115 2.428 . S
O157 C179 1.256 . S
O158 Tb115 2.308 1_645 S
O158 C178 1.266 . S
O159 Tb104 2.393 . S
O159 C178 1.248 . S
C160 O149 1.264 . S
C160 O150 1.243 1_655 S
C161 C164 1.399 . S
C161 C166 1.383 1_655 S
C161 C168 1.496 . S
C162 C163 1.399 . S
C162 C166 1.389 1_655 S
C163 C162 1.399 . S
C163 C165 1.380 . S
C163 H180 0.929 . S
C164 C161 1.399 . S
C164 C165 1.392 . S
C164 H181 0.929 . S
C165 C163 1.380 . S
C165 C164 1.392 . S
C165 H182 0.929 . S
C166 C161 1.383 1_455 S
C166 C162 1.389 1_455 S
C166 H183 0.931 . S
C167 O152 1.266 . S
C167 O153 1.248 . S
C168 Tb104 2.802 . S
C168 O148 1.264 1_655 S
C168 O151 1.256 . S
C168 C161 1.496 . S
C169 C136 1.448 . S
C169 H146 0.930 . S
C169 C170 1.328 . S
C170 C141 1.427 . S
C170 H147 0.929 . S
C170 C169 1.328 . S
C171 O155 1.264 . S
C171 O156 1.243 . S
C172 C175 1.399 . S
C172 C176 1.383 . S
C172 C179 1.496 . S
C173 C174 1.399 . S
C173 C176 1.389 . S
C174 C173 1.399 . S
C174 C177 1.380 . S
C174 H184 0.929 . S
C175 C172 1.399 . S
C175 C177 1.392 . S
C175 H185 0.929 . S
C176 C172 1.383 . S
C176 C173 1.389 . S
C176 H186 0.931 . S
C177 C174 1.380 . S
C177 C175 1.392 . S
C177 H187 0.929 . S
C178 O158 1.266 . S
C178 O159 1.248 . S
C179 Tb115 2.802 . S
C179 O154 1.264 . S
C179 O157 1.256 . S
C179 C172 1.496 . S
H180 C163 0.929 . S
H181 C164 0.929 . S
H182 C165 0.929 . S
H183 C166 0.931 . S
H184 C174 0.929 . S
H185 C175 0.929 . S
H186 C176 0.931 . S
H187 C177 0.929 . S
Tb188 N217 2.617 . S
Tb188 N223 2.572 . S
Tb188 O232 2.465 . S
Tb188 O233 2.387 . S
Tb188 O235 2.428 . S
Tb188 O236 2.308 . S
Tb188 O240 2.349 1_545 S
Tb188 O243 2.393 . S
Tb188 C252 2.802 . S
C189 N190 1.379 . S
C189 C192 1.416 . S
C189 C196 1.424 . S
N190 C189 1.379 . S
N190 C193 1.334 . S
N190 Tb199 2.617 . S
C191 C193 1.390 . S
C191 C194 1.339 . S
C191 H211 0.930 . S
C192 C189 1.416 . S
C192 C194 1.416 . S
C192 C198 1.448 . S
C193 N190 1.334 . S
C193 C191 1.390 . S
C193 H204 0.930 . S
C194 C191 1.339 . S
C194 C192 1.416 . S
C194 H215 0.930 . S
C195 C196 1.413 . S
C195 C197 1.427 . S
C195 C201 1.416 . S
C196 C189 1.424 . S
C196 C195 1.413 . S
C196 N200 1.361 . S
C197 C195 1.427 . S
C197 C198 1.328 . S
C197 H212 0.929 . S
C198 C192 1.448 . S
C198 C197 1.328 . S
C198 H213 0.930 . S
Tb199 N190 2.617 . S
Tb199 N200 2.572 . S
Tb199 O234 2.349 1_565 S
Tb199 O237 2.393 . S
Tb199 O238 2.463 1_565 S
Tb199 O239 2.387 . S
Tb199 O241 2.428 . S
Tb199 O242 2.308 1_565 S
Tb199 C263 2.802 . S
N200 C196 1.361 . S
N200 Tb199 2.572 . S
N200 C202 1.340 . S
C201 C195 1.416 . S
C201 C203 1.332 . S
C201 H209 0.931 . S
C202 N200 1.340 . S
C202 C203 1.407 . S
C202 H208 0.930 . S
C203 C201 1.332 . S
C203 C202 1.407 . S
C203 H205 0.929 . S
H204 C193 0.930 . S
H205 C203 0.929 . S
H206 C221 0.930 . S
H207 C228 0.929 . S
H208 C202 0.930 . S
H209 C201 0.931 . S
H210 C224 0.930 . S
H211 C191 0.930 . S
H212 C197 0.929 . S
H213 C198 0.930 . S
H214 C219 0.930 . S
H215 C194 0.930 . S
H216 C227 0.931 . S
N217 Tb188 2.617 . S
N217 C218 1.379 . S
N217 C221 1.334 . S
C218 N217 1.379 . S
C218 C220 1.416 . S
C218 C226 1.424 . S
C219 H214 0.930 . S
C219 C221 1.390 . S
C219 C222 1.339 . S
C220 C218 1.416 . S
C220 C222 1.416 . S
C220 C253 1.448 . S
C221 H206 0.930 . S
C221 N217 1.334 . S
C221 C219 1.390 . S
C222 C219 1.339 . S
C222 C220 1.416 . S
C222 H229 0.930 . S
N223 Tb188 2.572 . S
N223 C224 1.340 . S
N223 C226 1.361 . S
C224 H210 0.930 . S
C224 N223 1.340 . S
C224 C228 1.407 . S
C225 C226 1.413 . S
C225 C227 1.416 . S
C225 C254 1.427 . S
C226 C218 1.424 . S
C226 N223 1.361 . S
C226 C225 1.413 . S
C227 H216 0.931 . S
C227 C225 1.416 . S
C227 C228 1.332 . S
C228 H207 0.929 . S
C228 C224 1.407 . S
C228 C227 1.332 . S
H229 C222 0.930 . S
H230 C253 0.930 . S
H231 C254 0.929 . S
O232 Tb188 2.465 . S
O232 C252 1.264 . S
O233 Tb188 2.387 . S
O233 C244 1.264 . S
O234 Tb199 2.349 1_545 S
O234 C244 1.243 . S
O235 Tb188 2.428 . S
O235 C252 1.256 . S
O236 Tb188 2.308 . S
O236 C251 1.266 . S
O237 Tb199 2.393 . S
O237 C251 1.248 1_565 S
O238 Tb199 2.463 1_545 S
O238 C263 1.262 1_545 S
O239 Tb199 2.387 . S
O239 C255 1.264 . S
O240 Tb188 2.349 1_565 S
O240 C255 1.243 . S
O241 Tb199 2.428 . S
O241 C263 1.256 . S
O242 Tb199 2.308 1_545 S
O242 C262 1.266 . S
O243 Tb188 2.393 . S
O243 C262 1.248 . S
C244 O233 1.264 . S
C244 O234 1.243 . S
C245 C248 1.399 . S
C245 C250 1.383 . S
C245 C252 1.496 . S
C246 C247 1.399 1_556 S
C246 C250 1.389 . S
C247 C246 1.399 1_554 S
C247 C249 1.380 . S
C247 H264 0.929 . S
C248 C245 1.399 . S
C248 C249 1.392 1_556 S
C248 H265 0.929 . S
C249 C247 1.380 . S
C249 C248 1.392 1_554 S
C249 H266 0.929 . S
C250 C245 1.383 . S
C250 C246 1.389 . S
C250 H267 0.931 . S
C251 O236 1.266 . S
C251 O237 1.248 1_545 S
C252 Tb188 2.802 . S
C252 O232 1.264 . S
C252 O235 1.256 . S
C252 C245 1.496 . S
C253 C220 1.448 . S
C253 H230 0.930 . S
C253 C254 1.328 . S
C254 C225 1.427 . S
C254 H231 0.929 . S
C254 C253 1.328 . S
C255 O239 1.264 . S
C255 O240 1.243 . S
C256 C259 1.399 1_545 S
C256 C260 1.384 . S
C256 C263 1.496 1_545 S
C257 C258 1.399 . S
C257 C260 1.389 . S
C258 C257 1.399 . S
C258 C261 1.380 1_545 S
C258 H268 0.929 . S
C259 C256 1.399 1_565 S
C259 C261 1.392 . S
C259 H269 0.929 . S
C260 C256 1.384 . S
C260 C257 1.389 . S
C260 H270 0.931 . S
C261 C258 1.380 1_565 S
C261 C259 1.392 . S
C261 H271 0.929 . S
C262 O242 1.266 . S
C262 O243 1.248 . S
C263 Tb199 2.802 . S
C263 O238 1.262 1_565 S
C263 O241 1.256 . S
C263 C256 1.496 1_565 S
H264 C247 0.929 . S
H265 C248 0.929 . S
H266 C249 0.929 . S
H267 C250 0.931 . S
H268 C258 0.929 . S
H269 C259 0.929 . S
H270 C260 0.931 . S
H271 C261 0.929 . S
Tb272 N301 2.617 . S
Tb272 N307 2.572 . S
Tb272 O316 2.465 . S
Tb272 O317 2.387 . S
Tb272 O319 2.428 . S
Tb272 O320 2.308 . S
Tb272 O324 2.349 . S
Tb272 O327 2.393 . S
Tb272 C336 2.802 . S
C273 N274 1.379 . S
C273 C276 1.416 . S
C273 C280 1.424 . S
N274 C273 1.379 . S
N274 C277 1.334 . S
N274 Tb283 2.617 . S
C275 C277 1.390 . S
C275 C278 1.339 . S
C275 H295 0.930 . S
C276 C273 1.416 . S
C276 C278 1.416 . S
C276 C282 1.448 . S
C277 N274 1.334 . S
C277 C275 1.390 . S
C277 H288 0.930 . S
C278 C275 1.339 . S
C278 C276 1.416 . S
C278 H299 0.930 . S
C279 C280 1.413 . S
C279 C281 1.427 . S
C279 C285 1.416 . S
C280 C273 1.424 . S
C280 C279 1.413 . S
C280 N284 1.361 . S
C281 C279 1.427 . S
C281 C282 1.328 . S
C281 H296 0.929 1_556 S
C282 C276 1.448 . S
C282 C281 1.328 . S
C282 H297 0.930 . S
Tb283 N274 2.617 . S
Tb283 N284 2.572 . S
Tb283 O318 2.349 . S
Tb283 O321 2.393 . S
Tb283 O322 2.465 . S
Tb283 O323 2.387 . S
Tb283 O325 2.428 . S
Tb283 O326 2.308 . S
Tb283 C347 2.802 . S
N284 C280 1.361 . S
N284 Tb283 2.572 . S
N284 C286 1.340 . S
C285 C279 1.416 . S
C285 C287 1.332 . S
C285 H293 0.931 1_556 S
C286 N284 1.340 . S
C286 C287 1.407 . S
C286 H292 0.930 . S
C287 C285 1.332 . S
C287 C286 1.407 . S
C287 H289 0.929 . S
H288 C277 0.930 . S
H289 C287 0.929 . S
H290 C305 0.930 . S
H291 C312 0.929 . S
H292 C286 0.930 . S
H293 C285 0.931 1_554 S
H294 C308 0.930 . S
H295 C275 0.930 . S
H296 C281 0.929 1_554 S
H297 C282 0.930 . S
H298 C303 0.930 . S
H299 C278 0.930 . S
H300 C311 0.931 . S
N301 Tb272 2.617 . S
N301 C302 1.379 . S
N301 C305 1.334 . S
C302 N301 1.379 . S
C302 C304 1.416 . S
C302 C310 1.424 . S
C303 H298 0.930 . S
C303 C305 1.390 . S
C303 C306 1.339 . S
C304 C302 1.416 . S
C304 C306 1.416 . S
C304 C337 1.448 . S
C305 H290 0.930 . S
C305 N301 1.334 . S
C305 C303 1.390 . S
C306 C303 1.339 . S
C306 C304 1.416 . S
C306 H313 0.930 . S
N307 Tb272 2.572 . S
N307 C308 1.340 . S
N307 C310 1.361 . S
C308 H294 0.930 . S
C308 N307 1.340 . S
C308 C312 1.407 . S
C309 C310 1.413 . S
C309 C311 1.416 . S
C309 C338 1.427 . S
C310 C302 1.424 . S
C310 N307 1.361 . S
C310 C309 1.413 . S
C311 H300 0.931 . S
C311 C309 1.416 . S
C311 C312 1.332 . S
C312 H291 0.929 . S
C312 C308 1.407 . S
C312 C311 1.332 . S
H313 C306 0.930 . S
H314 C337 0.930 . S
H315 C338 0.929 . S
O316 Tb272 2.465 . S
O316 C336 1.264 . S
O317 Tb272 2.387 . S
O317 C328 1.264 . S
O318 Tb283 2.349 . S
O318 C328 1.243 . S
O319 Tb272 2.428 . S
O319 C336 1.256 . S
O320 Tb272 2.308 . S
O320 C335 1.266 . S
O321 Tb283 2.393 . S
O321 C335 1.248 . S
O322 Tb283 2.465 . S
O322 C347 1.264 . S
O323 Tb283 2.387 . S
O323 C339 1.264 . S
O324 Tb272 2.349 . S
O324 C339 1.243 . S
O325 Tb283 2.428 . S
O325 C347 1.256 . S
O326 Tb283 2.308 . S
O326 C346 1.266 . S
O327 Tb272 2.393 . S
O327 C346 1.248 . S
C328 O317 1.264 . S
C328 O318 1.243 . S
C329 C332 1.399 . S
C329 C334 1.383 . S
C329 C336 1.496 . S
C330 C331 1.399 . S
C330 C334 1.389 . S
C331 C330 1.399 . S
C331 C333 1.380 . S
C331 H348 0.929 . S
C332 C329 1.399 . S
C332 C333 1.392 . S
C332 H349 0.929 . S
C333 C331 1.380 . S
C333 C332 1.392 . S
C333 H350 0.929 . S
C334 C329 1.383 . S
C334 C330 1.389 . S
C334 H351 0.931 . S
C335 O320 1.266 . S
C335 O321 1.248 . S
C336 Tb272 2.802 . S
C336 O316 1.264 . S
C336 O319 1.256 . S
C336 C329 1.496 . S
C337 C304 1.448 . S
C337 H314 0.930 . S
C337 C338 1.328 . S
C338 C309 1.427 . S
C338 H315 0.929 . S
C338 C337 1.328 . S
C339 O323 1.264 . S
C339 O324 1.243 . S
C340 C343 1.399 . S
C340 C344 1.383 . S
C340 C347 1.496 . S
C341 C342 1.399 . S
C341 C344 1.389 . S
C342 C341 1.399 . S
C342 C345 1.380 . S
C342 H352 0.929 . S
C343 C340 1.399 . S
C343 C345 1.392 . S
C343 H353 0.929 . S
C344 C340 1.383 . S
C344 C341 1.389 . S
C344 H354 0.931 . S
C345 C342 1.380 . S
C345 C343 1.392 . S
C345 H355 0.929 . S
C346 O326 1.266 . S
C346 O327 1.248 . S
C347 Tb283 2.802 . S
C347 O322 1.264 . S
C347 O325 1.256 . S
C347 C340 1.496 . S
H348 C331 0.929 . S
H349 C332 0.929 . S
H350 C333 0.929 . S
H351 C334 0.931 . S
H352 C342 0.929 . S
H353 C343 0.929 . S
H354 C344 0.931 . S
H355 C345 0.929 . S
Tb356 N385 2.617 . S
Tb356 N391 2.572 . S
Tb356 O400 2.465 . S
Tb356 O401 2.387 1_455 S
Tb356 O403 2.428 . S
Tb356 O404 2.308 . S
Tb356 O408 2.349 . S
Tb356 O411 2.393 . S
Tb356 C420 2.802 . S
C357 N358 1.379 . S
C357 C360 1.416 . S
C357 C364 1.424 . S
N358 C357 1.379 . S
N358 C361 1.331 1_455 S
N358 Tb367 2.617 1_455 S
C359 C361 1.376 1_455 S
C359 C362 1.339 . S
C359 H379 0.930 . S
C360 C357 1.416 . S
C360 C362 1.416 . S
C360 C366 1.448 . S
C361 N358 1.331 1_655 S
C361 C359 1.376 1_655 S
C361 H372 0.950 . S
C362 C359 1.339 . S
C362 C360 1.416 . S
C362 H383 0.930 . S
C363 C364 1.413 . S
C363 C365 1.427 . S
C363 C369 1.416 . S
C364 C357 1.424 . S
C364 C363 1.413 . S
C364 N368 1.361 . S
C365 C363 1.427 . S
C365 C366 1.328 . S
C365 H380 0.929 1_556 S
C366 C360 1.448 . S
C366 C365 1.328 . S
C366 H381 0.930 . S
Tb367 N358 2.617 1_655 S
Tb367 N368 2.572 1_655 S
Tb367 O402 2.349 . S
Tb367 O405 2.393 . S
Tb367 O406 2.465 . S
Tb367 O407 2.387 1_655 S
Tb367 O409 2.428 . S
Tb367 O410 2.308 1_655 S
Tb367 C431 2.802 . S
N368 C364 1.361 . S
N368 Tb367 2.572 1_455 S
N368 C370 1.340 . S
C369 C363 1.416 . S
C369 C371 1.332 . S
C369 H377 0.931 1_556 S
C370 N368 1.340 . S
C370 C371 1.407 . S
C370 H376 0.930 . S
C371 C369 1.332 . S
C371 C370 1.407 . S
C371 H373 0.929 . S
H372 C361 0.950 . S
H373 C371 0.929 . S
H374 C389 0.930 . S
H375 C396 0.929 . S
H376 C370 0.930 . S
H377 C369 0.931 1_554 S
H378 C392 0.930 . S
H379 C359 0.930 . S
H380 C365 0.929 1_554 S
H381 C366 0.930 . S
H382 C387 0.930 . S
H383 C362 0.930 . S
H384 C395 0.931 . S
N385 Tb356 2.617 . S
N385 C386 1.379 . S
N385 C389 1.334 . S
C386 N385 1.379 . S
C386 C388 1.416 1_455 S
C386 C394 1.424 . S
C387 H382 0.930 . S
C387 C389 1.390 . S
C387 C390 1.339 1_455 S
C388 C386 1.416 1_655 S
C388 C390 1.416 . S
C388 C421 1.448 . S
C389 H374 0.930 . S
C389 N385 1.334 . S
C389 C387 1.390 . S
C390 C387 1.339 1_655 S
C390 C388 1.416 . S
C390 H397 0.930 . S
N391 Tb356 2.572 . S
N391 C392 1.340 . S
N391 C394 1.361 . S
C392 H378 0.930 . S
C392 N391 1.340 . S
C392 C396 1.407 1_455 S
C393 C394 1.413 1_655 S
C393 C395 1.416 . S
C393 C422 1.427 . S
C394 C386 1.424 . S
C394 N391 1.361 . S
C394 C393 1.413 1_455 S
C395 H384 0.931 . S
C395 C393 1.416 . S
C395 C396 1.332 . S
C396 H375 0.929 . S
C396 C392 1.407 1_655 S
C396 C395 1.332 . S
H397 C390 0.930 . S
H398 C421 0.930 . S
H399 C422 0.929 . S
O400 Tb356 2.465 . S
O400 C420 1.264 . S
O401 Tb356 2.387 1_655 S
O401 C412 1.264 . S
O402 Tb367 2.349 . S
O402 C412 1.243 . S
O403 Tb356 2.428 . S
O403 C420 1.256 . S
O404 Tb356 2.308 . S
O404 C419 1.266 . S
O405 Tb367 2.393 . S
O405 C419 1.248 1_655 S
O406 Tb367 2.465 . S
O406 C431 1.264 . S
O407 Tb367 2.387 1_455 S
O407 C423 1.264 . S
O408 Tb356 2.349 . S
O408 C423 1.243 . S
O409 Tb367 2.428 . S
O409 C431 1.256 . S
O410 Tb367 2.308 1_455 S
O410 C430 1.266 . S
O411 Tb356 2.393 . S
O411 C430 1.248 . S
C412 O401 1.264 . S
C412 O402 1.243 . S
C413 C416 1.399 . S
C413 C418 1.383 . S
C413 C420 1.496 . S
C414 C415 1.399 . S
C414 C418 1.389 . S
C415 C414 1.399 . S
C415 C417 1.380 . S
C415 H432 0.929 . S
C416 C413 1.399 . S
C416 C417 1.392 . S
C416 H433 0.929 . S
C417 C415 1.380 . S
C417 C416 1.392 . S
C417 H434 0.929 . S
C418 C413 1.383 . S
C418 C414 1.389 . S
C418 H435 0.931 . S
C419 O404 1.266 . S
C419 O405 1.248 1_455 S
C420 Tb356 2.802 . S
C420 O400 1.264 . S
C420 O403 1.256 . S
C420 C413 1.496 . S
C421 C388 1.448 . S
C421 H398 0.930 . S
C421 C422 1.328 . S
C422 C393 1.427 . S
C422 H399 0.929 . S
C422 C421 1.328 . S
C423 O407 1.264 . S
C423 O408 1.243 . S
C424 C427 1.399 . S
C424 C428 1.383 . S
C424 C431 1.496 . S
C425 C426 1.399 . S
C425 C428 1.389 . S
C426 C425 1.399 . S
C426 C429 1.380 . S
C426 H436 0.929 . S
C427 C424 1.399 . S
C427 C429 1.392 . S
C427 H437 0.929 . S
C428 C424 1.383 . S
C428 C425 1.389 . S
C428 H438 0.931 . S
C429 C426 1.380 . S
C429 C427 1.392 . S
C429 H439 0.929 . S
C430 O410 1.266 . S
C430 O411 1.248 . S
C431 Tb367 2.802 . S
C431 O406 1.264 . S
C431 O409 1.256 . S
C431 C424 1.496 . S
H432 C415 0.929 . S
H433 C416 0.929 . S
H434 C417 0.929 . S
H435 C418 0.931 . S
H436 C426 0.929 . S
H437 C427 0.929 . S
H438 C428 0.931 . S
H439 C429 0.929 . S
H440 C448 0.929 . S
H441 C450 0.930 . S
H442 C452 0.930 . S
H443 C455 0.929 . S
H444 C458 0.930 . S
H445 C460 0.960 . S
H446 C460 0.960 . S
H447 C460 0.960 . S
C448 H440 0.929 . S
C448 C449 1.377 . S
C448 C450 1.384 . S
C449 C448 1.377 . S
C449 C455 1.390 . S
C450 H441 0.930 . S
C450 C448 1.384 . S
C450 C451 1.372 . S
C451 C450 1.372 . S
C451 C452 1.400 . S
C451 C456 1.490 . S
C452 H442 0.930 . S
C452 C451 1.400 . S
C452 C455 1.386 . S
H453 C469 0.930 1_565 S
H454 C470 0.931 1_565 S
C455 H443 0.929 . S
C455 C449 1.390 . S
C455 C452 1.386 . S
C456 C451 1.490 . S
C456 C458 1.395 . S
C456 C459 1.403 . S
H457 C463 0.930 . S
C458 H444 0.930 . S
C458 C456 1.395 . S
C458 C461 1.403 . S
C459 C456 1.403 . S
C459 C460 1.524 . S
C459 C463 1.400 . S
C460 H445 0.960 . S
C460 H446 0.960 . S
C460 H447 0.960 . S
C460 C459 1.524 . S
C461 C458 1.403 . S
C461 C462 1.392 . S
C461 C465 1.495 . S
C462 C461 1.392 . S
C462 C463 1.385 . S
C462 C464 1.478 . S
C463 H457 0.930 . S
C463 C459 1.400 . S
C463 C462 1.385 . S
C464 C462 1.478 . S
C464 C466 1.381 . S
C464 C470 1.383 . S
C465 C461 1.495 . S
C465 H471 0.959 . S
C465 H472 0.961 . S
C465 H473 0.960 . S
C466 C464 1.381 . S
C466 C467 1.394 . S
C466 H474 0.930 . S
C467 C466 1.394 . S
C467 C468 1.383 . S
C467 H475 0.929 . S
C468 C467 1.383 . S
C468 C469 1.377 . S
C469 H453 0.930 1_545 S
C469 C468 1.377 . S
C469 C470 1.379 . S
C470 H454 0.931 1_545 S
C470 C464 1.383 . S
C470 C469 1.379 . S
H471 C465 0.959 . S
H472 C465 0.961 . S
H473 C465 0.960 . S
H474 C466 0.930 . S
H475 C467 0.929 . S
H476 C484 0.929 . S
H477 C486 0.930 . S
H478 C488 0.930 . S
H479 C491 0.929 . S
H480 C494 0.930 . S
H481 C496 0.960 . S
H482 C496 0.960 . S
H483 C496 0.960 . S
C484 H476 0.929 . S
C484 C485 1.377 . S
C484 C486 1.384 . S
C485 C484 1.377 . S
C485 C491 1.390 . S
C486 H477 0.930 . S
C486 C484 1.384 . S
C486 C487 1.372 . S
C487 C486 1.372 . S
C487 C488 1.400 . S
C487 C492 1.490 . S
C488 H478 0.930 . S
C488 C487 1.400 . S
C488 C491 1.386 . S
H489 C505 0.930 . S
H490 C506 0.931 . S
C491 H479 0.929 . S
C491 C485 1.390 . S
C491 C488 1.386 . S
C492 C487 1.490 . S
C492 C494 1.395 . S
C492 C495 1.403 . S
H493 C499 0.930 . S
C494 H480 0.930 . S
C494 C492 1.395 . S
C494 C497 1.403 . S
C495 C492 1.403 . S
C495 C496 1.524 . S
C495 C499 1.400 . S
C496 H481 0.960 . S
C496 H482 0.960 . S
C496 H483 0.960 . S
C496 C495 1.524 . S
C497 C494 1.403 . S
C497 C498 1.392 . S
C497 C501 1.495 . S
C498 C497 1.392 . S
C498 C499 1.385 . S
C498 C500 1.478 . S
C499 H493 0.930 . S
C499 C495 1.400 . S
C499 C498 1.385 . S
C500 C498 1.478 . S
C500 C502 1.381 . S
C500 C506 1.383 . S
C501 C497 1.495 . S
C501 H507 0.959 . S
C501 H508 0.961 . S
C501 H509 0.960 . S
C502 C500 1.381 . S
C502 C503 1.394 . S
C502 H510 0.930 . S
C503 C502 1.394 . S
C503 C504 1.383 . S
C503 H511 0.929 . S
C504 C503 1.383 . S
C504 C505 1.377 . S
C505 H489 0.930 . S
C505 C504 1.377 . S
C505 C506 1.379 . S
C506 H490 0.931 . S
C506 C500 1.383 . S
C506 C505 1.379 . S
H507 C501 0.959 . S
H508 C501 0.961 . S
H509 C501 0.960 . S
H510 C502 0.930 . S
H511 C503 0.929 . S
H512 C520 0.929 . S
H513 C522 0.930 . S
H514 C524 0.930 . S
H515 C527 0.929 . S
H516 C530 0.930 . S
H517 C532 0.960 . S
H518 C532 0.960 . S
H519 C532 0.960 . S
C520 H512 0.929 . S
C520 C521 1.377 . S
C520 C522 1.384 . S
C521 C520 1.377 . S
C521 C527 1.390 . S
C522 H513 0.930 . S
C522 C520 1.384 . S
C522 C523 1.372 . S
C523 C522 1.372 . S
C523 C524 1.400 . S
C523 C528 1.490 . S
C524 H514 0.930 . S
C524 C523 1.400 . S
C524 C527 1.386 . S
H525 C541 0.930 . S
H526 C542 0.931 . S
C527 H515 0.929 . S
C527 C521 1.390 . S
C527 C524 1.386 . S
C528 C523 1.490 . S
C528 C530 1.395 . S
C528 C531 1.403 . S
H529 C535 0.930 . S
C530 H516 0.930 . S
C530 C528 1.395 . S
C530 C533 1.403 . S
C531 C528 1.403 . S
C531 C532 1.524 . S
C531 C535 1.400 . S
C532 H517 0.960 . S
C532 H518 0.960 . S
C532 H519 0.960 . S
C532 C531 1.524 . S
C533 C530 1.403 . S
C533 C534 1.392 . S
C533 C537 1.495 . S
C534 C533 1.392 . S
C534 C535 1.385 . S
C534 C536 1.478 . S
C535 H529 0.930 . S
C535 C531 1.400 . S
C535 C534 1.385 . S
C536 C534 1.478 . S
C536 C538 1.381 . S
C536 C542 1.383 . S
C537 C533 1.495 . S
C537 H543 0.959 . S
C537 H544 0.961 . S
C537 H545 0.960 . S
C538 C536 1.381 . S
C538 C539 1.394 . S
C538 H546 0.930 . S
C539 C538 1.394 . S
C539 C540 1.383 . S
C539 H547 0.929 . S
C540 C539 1.383 . S
C540 C541 1.377 . S
C541 H525 0.930 . S
C541 C540 1.377 . S
C541 C542 1.379 . S
C542 H526 0.931 . S
C542 C536 1.383 . S
C542 C541 1.379 . S
H543 C537 0.959 . S
H544 C537 0.961 . S
H545 C537 0.960 . S
H546 C538 0.930 . S
H547 C539 0.929 . S
H548 C556 0.929 . S
H549 C558 0.930 . S
H550 C560 0.930 . S
H551 C563 0.929 . S
H552 C566 0.930 1_655 S
H553 C568 0.960 . S
H554 C568 0.960 . S
H555 C568 0.960 . S
C556 H548 0.929 . S
C556 C557 1.377 . S
C556 C558 1.384 . S
C557 C556 1.377 . S
C557 C563 1.390 . S
C558 H549 0.930 . S
C558 C556 1.384 . S
C558 C559 1.372 . S
C559 C558 1.372 . S
C559 C560 1.400 . S
C559 C564 1.490 . S
C560 H550 0.930 . S
C560 C559 1.400 . S
C560 C563 1.386 . S
H561 C577 0.930 . S
H562 C578 0.931 . S
C563 H551 0.929 . S
C563 C557 1.390 . S
C563 C560 1.386 . S
C564 C559 1.490 . S
C564 C566 1.395 . S
C564 C567 1.403 . S
H565 C571 0.930 . S
C566 H552 0.930 1_455 S
C566 C564 1.395 . S
C566 C569 1.403 . S
C567 C564 1.403 . S
C567 C568 1.524 . S
C567 C571 1.400 . S
C568 H553 0.960 . S
C568 H554 0.960 . S
C568 H555 0.960 . S
C568 C567 1.524 . S
C569 C566 1.403 . S
C569 C570 1.392 . S
C569 C573 1.495 1_455 S
C570 C569 1.392 . S
C570 C571 1.385 . S
C570 C572 1.478 . S
C571 H565 0.930 . S
C571 C567 1.400 . S
C571 C570 1.385 . S
C572 C570 1.478 . S
C572 C574 1.381 . S
C572 C578 1.383 . S
C573 C569 1.495 1_655 S
C573 H579 0.959 . S
C573 H580 0.961 . S
C573 H581 0.960 . S
C574 C572 1.381 . S
C574 C575 1.394 . S
C574 H582 0.930 . S
C575 C574 1.394 . S
C575 C576 1.383 . S
C575 H583 0.929 . S
C576 C575 1.383 . S
C576 C577 1.377 . S
C577 H561 0.930 . S
C577 C576 1.377 . S
C577 C578 1.379 . S
C578 H562 0.931 . S
C578 C572 1.383 . S
C578 C577 1.379 . S
H579 C573 0.959 . S
H580 C573 0.961 . S
H581 C573 0.960 . S
H582 C574 0.930 . S
H583 C575 0.929 . S
H584 C592 0.929 . S
H585 C594 0.930 . S
H586 C596 0.930 . S
H587 C599 0.940 . S
H588 C602 0.930 . S
H589 C604 0.960 . S
H590 C604 0.960 . S
H591 C604 0.960 . S
C592 H584 0.929 . S
C592 C593 1.377 . S
C592 C594 1.384 . S
C593 C592 1.377 . S
C593 C599 1.378 1_565 S
C594 H585 0.930 . S
C594 C592 1.384 . S
C594 C595 1.372 . S
C595 C594 1.372 . S
C595 C596 1.400 1_565 S
C595 C600 1.490 . S
C596 H586 0.930 . S
C596 C595 1.400 1_545 S
C596 C599 1.387 . S
H597 C613 0.930 . S
H598 C614 0.931 . S
C599 H587 0.940 . S
C599 C593 1.378 1_545 S
C599 C596 1.387 . S
C600 C595 1.490 . S
C600 C602 1.395 1_554 S
C600 C603 1.402 . S
H601 C607 0.930 . S
C602 H588 0.930 . S
C602 C600 1.395 1_556 S
C602 C605 1.403 . S
C603 C600 1.402 . S
C603 C604 1.524 1_565 S
C603 C607 1.400 1_565 S
C604 H589 0.960 . S
C604 H590 0.960 . S
C604 H591 0.960 . S
C604 C603 1.524 1_545 S
C605 C602 1.403 . S
C605 C606 1.392 . S
C605 C609 1.495 . S
C606 C605 1.392 . S
C606 C607 1.385 1_566 S
C606 C608 1.478 . S
C607 H601 0.930 . S
C607 C603 1.400 1_545 S
C607 C606 1.385 1_544 S
C608 C606 1.478 . S
C608 C610 1.381 . S
C608 C614 1.383 1_565 S
C609 C605 1.495 . S
C609 H615 0.959 . S
C609 H616 0.961 . S
C609 H617 0.960 . S
C610 C608 1.381 . S
C610 C611 1.394 . S
C610 H618 0.930 . S
C611 C610 1.394 . S
C611 C612 1.383 1_565 S
C611 H619 0.929 . S
C612 C611 1.383 1_545 S
C612 C613 1.377 . S
C613 H597 0.930 . S
C613 C612 1.377 . S
C613 C614 1.379 . S
C614 H598 0.931 . S
C614 C608 1.383 1_545 S
C614 C613 1.379 . S
H615 C609 0.959 . S
H616 C609 0.961 . S
H617 C609 0.960 . S
H618 C610 0.930 . S
H619 C611 0.929 . S
H620 C628 0.929 . S
H621 C630 0.930 . S
H622 C632 0.930 . S
H623 C635 0.929 . S
H624 C638 0.930 . S
H625 C640 0.960 . S
H626 C640 0.960 . S
H627 C640 0.960 . S
C628 H620 0.929 . S
C628 C629 1.377 . S
C628 C630 1.384 . S
C629 C628 1.377 . S
C629 C635 1.390 . S
C630 H621 0.930 . S
C630 C628 1.384 . S
C630 C631 1.372 . S
C631 C630 1.372 . S
C631 C632 1.400 . S
C631 C636 1.490 . S
C632 H622 0.930 . S
C632 C631 1.400 . S
C632 C635 1.386 . S
H633 C649 0.930 . S
H634 C650 0.931 . S
C635 H623 0.929 . S
C635 C629 1.390 . S
C635 C632 1.386 . S
C636 C631 1.490 . S
C636 C638 1.395 . S
C636 C639 1.403 1_554 S
H637 C643 0.930 . S
C638 H624 0.930 . S
C638 C636 1.395 . S
C638 C641 1.403 . S
C639 C636 1.403 1_556 S
C639 C640 1.524 . S
C639 C643 1.400 . S
C640 H625 0.960 . S
C640 H626 0.960 . S
C640 H627 0.960 . S
C640 C639 1.524 . S
C641 C638 1.403 . S
C641 C642 1.392 1_554 S
C641 C645 1.495 . S
C642 C641 1.392 1_556 S
C642 C643 1.385 . S
C642 C644 1.478 . S
C643 H637 0.930 . S
C643 C639 1.400 . S
C643 C642 1.385 . S
C644 C642 1.478 . S
C644 C646 1.381 . S
C644 C650 1.383 . S
C645 C641 1.495 . S
C645 H651 0.959 . S
C645 H652 0.961 . S
C645 H653 0.960 . S
C646 C644 1.381 . S
C646 C647 1.394 . S
C646 H654 0.930 . S
C647 C646 1.394 . S
C647 C648 1.383 . S
C647 H655 0.929 . S
C648 C647 1.383 . S
C648 C649 1.377 . S
C649 H633 0.930 . S
C649 C648 1.377 . S
C649 C650 1.379 . S
C650 H634 0.931 . S
C650 C644 1.383 . S
C650 C649 1.379 . S
H651 C645 0.959 . S
H652 C645 0.961 . S
H653 C645 0.960 . S
H654 C646 0.930 . S
H655 C647 0.929 . S
H656 C664 0.929 . S
H657 C666 0.930 . S
H658 C668 0.930 . S
H659 C671 0.929 . S
H660 C674 0.930 . S
H661 C676 0.960 . S
H662 C676 0.960 . S
H663 C676 0.960 . S
C664 H656 0.929 . S
C664 C665 1.377 . S
C664 C666 1.384 . S
C665 C664 1.377 . S
C665 C671 1.390 . S
C666 H657 0.930 . S
C666 C664 1.384 . S
C666 C667 1.372 . S
C667 C666 1.372 . S
C667 C668 1.400 . S
C667 C672 1.490 . S
C668 H658 0.930 . S
C668 C667 1.400 . S
C668 C671 1.386 . S
H669 C685 0.930 . S
H670 C686 0.931 . S
C671 H659 0.929 . S
C671 C665 1.390 . S
C671 C668 1.386 . S
C672 C667 1.490 . S
C672 C674 1.395 . S
C672 C675 1.403 1_554 S
H673 C679 0.930 . S
C674 H660 0.930 . S
C674 C672 1.395 . S
C674 C677 1.403 . S
C675 C672 1.403 1_556 S
C675 C676 1.524 . S
C675 C679 1.400 . S
C676 H661 0.960 . S
C676 H662 0.960 . S
C676 H663 0.960 . S
C676 C675 1.524 . S
C677 C674 1.403 . S
C677 C678 1.392 1_554 S
C677 C681 1.495 . S
C678 C677 1.392 1_556 S
C678 C679 1.385 . S
C678 C680 1.478 . S
C679 H673 0.930 . S
C679 C675 1.400 . S
C679 C678 1.385 . S
C680 C678 1.478 . S
C680 C682 1.381 . S
C680 C686 1.383 . S
C681 C677 1.495 . S
C681 H687 0.959 . S
C681 H688 0.961 . S
C681 H689 0.960 . S
C682 C680 1.381 . S
C682 C683 1.394 . S
C682 H690 0.930 . S
C683 C682 1.394 . S
C683 C684 1.383 . S
C683 H691 0.929 . S
C684 C683 1.383 . S
C684 C685 1.377 . S
C685 H669 0.930 . S
C685 C684 1.377 . S
C685 C686 1.379 . S
C686 H670 0.931 . S
C686 C680 1.383 . S
C686 C685 1.379 . S
H687 C681 0.959 . S
H688 C681 0.961 . S
H689 C681 0.960 . S
H690 C682 0.930 . S
H691 C683 0.929 . S
H692 C700 0.929 . S
H693 C702 0.930 1_455 S
H694 C704 0.930 . S
H695 C707 0.929 . S
H696 C710 0.930 . S
H697 C712 0.960 1_556 S
H698 C712 0.960 . S
H699 C712 0.960 . S
C700 H692 0.929 . S
C700 C701 1.377 . S
C700 C702 1.384 . S
C701 C700 1.377 . S
C701 C707 1.390 . S
C702 H693 0.930 1_655 S
C702 C700 1.384 . S
C702 C703 1.372 . S
C703 C702 1.372 . S
C703 C704 1.400 . S
C703 C708 1.490 . S
C704 H694 0.930 . S
C704 C703 1.400 . S
C704 C707 1.386 . S
H705 C721 0.930 . S
H706 C722 0.931 . S
C707 H695 0.929 . S
C707 C701 1.390 . S
C707 C704 1.386 . S
C708 C703 1.490 . S
C708 C710 1.395 1_655 S
C708 C711 1.403 . S
H709 C715 0.930 . S
C710 H696 0.930 . S
C710 C708 1.395 1_455 S
C710 C713 1.403 1_554 S
C711 C708 1.403 . S
C711 C712 1.524 . S
C711 C715 1.400 1_554 S
C712 H697 0.960 1_554 S
C712 H698 0.960 . S
C712 H699 0.960 . S
C712 C711 1.524 . S
C713 C710 1.403 1_556 S
C713 C714 1.392 1_455 S
C713 C717 1.495 . S
C714 C713 1.392 1_655 S
C714 C715 1.385 . S
C714 C716 1.484 . S
C715 H709 0.930 . S
C715 C711 1.400 1_556 S
C715 C714 1.385 . S
C716 C714 1.484 . S
C716 C718 1.360 1_655 S
C716 C722 1.402 . S
C717 C713 1.495 . S
C717 H723 0.959 1_556 S
C717 H724 0.961 . S
C717 H725 0.960 . S
C718 C716 1.360 1_455 S
C718 C719 1.394 . S
C718 H726 0.930 . S
C719 C718 1.394 . S
C719 C720 1.383 . S
C719 H727 0.929 . S
C720 C719 1.383 . S
C720 C721 1.377 1_455 S
C721 H705 0.930 . S
C721 C720 1.377 1_655 S
C721 C722 1.379 . S
C722 H706 0.931 . S
C722 C716 1.402 . S
C722 C721 1.379 . S
H723 C717 0.959 1_554 S
H724 C717 0.961 . S
H725 C717 0.960 . S
H726 C718 0.930 . S
H727 C719 0.929 . S
H728 C736 0.929 . S
H729 C738 0.947 . S
H730 C740 0.930 . S
H731 C743 0.929 . S
H732 C746 0.930 . S
H733 C748 0.960 . S
H734 C748 0.960 . S
H735 C748 0.960 . S
C736 H728 0.929 . S
C736 C737 1.377 . S
C736 C738 1.384 . S
C737 C736 1.377 . S
C737 C743 1.390 . S
C738 H729 0.947 . S
C738 C736 1.384 . S
C738 C739 1.372 . S
C739 C738 1.372 . S
C739 C740 1.400 . S
C739 C744 1.490 . S
C740 H730 0.930 . S
C740 C739 1.400 . S
C740 C743 1.386 . S
H741 C757 0.930 . S
H742 C758 0.931 . S
C743 H731 0.929 . S
C743 C737 1.390 . S
C743 C740 1.386 . S
C744 C739 1.490 . S
C744 C746 1.395 . S
C744 C747 1.403 . S
H745 C751 0.930 . S
C746 H732 0.930 . S
C746 C744 1.395 . S
C746 C749 1.403 . S
C747 C744 1.403 . S
C747 C748 1.524 . S
C747 C751 1.400 . S
C748 H733 0.960 . S
C748 H734 0.960 . S
C748 H735 0.960 . S
C748 C747 1.524 . S
C749 C746 1.403 . S
C749 C750 1.392 . S
C749 C753 1.495 1_455 S
C750 C749 1.392 . S
C750 C751 1.385 . S
C750 C752 1.478 . S
C751 H745 0.930 . S
C751 C747 1.400 . S
C751 C750 1.385 . S
C752 C750 1.478 . S
C752 C754 1.381 1_455 S
C752 C758 1.383 . S
C753 C749 1.495 1_655 S
C753 H759 0.959 . S
C753 H760 0.961 . S
C753 H761 0.960 . S
C754 C752 1.381 1_655 S
C754 C755 1.394 . S
C754 H762 0.930 . S
C755 C754 1.394 . S
C755 C756 1.383 1_655 S
C755 H763 0.929 . S
C756 C755 1.383 1_455 S
C756 C757 1.377 . S
C757 H741 0.930 . S
C757 C756 1.377 . S
C757 C758 1.379 . S
C758 H742 0.931 . S
C758 C752 1.383 . S
C758 C757 1.379 . S
H759 C753 0.959 . S
H760 C753 0.961 . S
H761 C753 0.960 . S
H762 C754 0.930 . S
H763 C755 0.929 . S
H764 C772 0.929 1_556 S
H765 C774 0.930 . S
H766 C776 0.930 . S
H767 C779 0.929 . S
H768 C782 0.930 . S
H769 C784 0.960 1_565 S
H770 C784 0.960 1_565 S
H771 C784 0.960 . S
C772 H764 0.929 1_554 S
C772 C773 1.377 . S
C772 C774 1.384 . S
C773 C772 1.377 . S
C773 C779 1.390 . S
C774 H765 0.930 . S
C774 C772 1.384 . S
C774 C775 1.372 . S
C775 C774 1.372 . S
C775 C776 1.400 . S
C775 C780 1.490 . S
C776 H766 0.930 . S
C776 C775 1.400 . S
C776 C779 1.386 . S
H777 C793 0.930 . S
H778 C794 0.931 . S
C779 H767 0.929 . S
C779 C773 1.390 . S
C779 C776 1.386 . S
C780 C775 1.490 . S
C780 C782 1.395 . S
C780 C783 1.403 . S
H781 C787 0.930 . S
C782 H768 0.930 . S
C782 C780 1.395 . S
C782 C785 1.403 . S
C783 C780 1.403 . S
C783 C784 1.524 . S
C783 C787 1.400 . S
C784 H769 0.960 1_545 S
C784 H770 0.960 1_545 S
C784 H771 0.960 . S
C784 C783 1.524 . S
C785 C782 1.403 . S
C785 C786 1.392 . S
C785 C789 1.495 . S
C786 C785 1.392 . S
C786 C787 1.385 . S
C786 C788 1.478 . S
C787 H781 0.930 . S
C787 C783 1.400 . S
C787 C786 1.385 . S
C788 C786 1.478 . S
C788 C790 1.381 . S
C788 C794 1.383 . S
C789 C785 1.495 . S
C789 H795 0.959 . S
C789 H796 0.961 . S
C789 H797 0.960 . S
C790 C788 1.381 . S
C790 C791 1.394 . S
C790 H798 0.930 . S
C791 C790 1.394 . S
C791 C792 1.383 . S
C791 H799 0.929 1_545 S
C792 C791 1.383 . S
C792 C793 1.377 . S
C793 H777 0.930 . S
C793 C792 1.377 . S
C793 C794 1.379 . S
C794 H778 0.931 . S
C794 C788 1.383 . S
C794 C793 1.379 . S
H795 C789 0.959 . S
H796 C789 0.961 . S
H797 C789 0.960 . S
H798 C790 0.930 . S
H799 C791 0.929 1_565 S
H800 C808 0.929 . S
H801 C810 0.930 . S
H802 C812 0.930 . S
H803 C815 0.929 . S
H804 C818 0.930 . S
H805 C820 0.960 . S
H806 C820 0.960 . S
H807 C820 0.960 . S
C808 H800 0.929 . S
C808 C809 1.377 . S
C808 C810 1.384 . S
C809 C808 1.377 . S
C809 C815 1.390 . S
C810 H801 0.930 . S
C810 C808 1.384 . S
C810 C811 1.372 . S
C811 C810 1.372 . S
C811 C812 1.400 . S
C811 C816 1.490 . S
C812 H802 0.930 . S
C812 C811 1.400 . S
C812 C815 1.386 . S
H813 C829 0.930 . S
H814 C830 0.931 . S
C815 H803 0.929 . S
C815 C809 1.390 . S
C815 C812 1.386 . S
C816 C811 1.490 . S
C816 C818 1.395 . S
C816 C819 1.403 . S
H817 C823 0.930 . S
C818 H804 0.930 . S
C818 C816 1.395 . S
C818 C821 1.403 . S
C819 C816 1.403 . S
C819 C820 1.524 . S
C819 C823 1.400 . S
C820 H805 0.960 . S
C820 H806 0.960 . S
C820 H807 0.960 . S
C820 C819 1.524 . S
C821 C818 1.403 . S
C821 C822 1.392 . S
C821 C825 1.495 . S
C822 C821 1.392 . S
C822 C823 1.385 . S
C822 C824 1.478 . S
C823 H817 0.930 . S
C823 C819 1.400 . S
C823 C822 1.385 . S
C824 C822 1.478 . S
C824 C826 1.381 . S
C824 C830 1.383 . S
C825 C821 1.495 . S
C825 H831 0.959 . S
C825 H832 0.961 . S
C825 H833 0.960 . S
C826 C824 1.381 . S
C826 C827 1.394 . S
C826 H834 0.930 . S
C827 C826 1.394 . S
C827 C828 1.383 . S
C827 H835 0.929 . S
C828 C827 1.383 . S
C828 C829 1.377 . S
C829 H813 0.930 . S
C829 C828 1.377 . S
C829 C830 1.379 . S
C830 H814 0.931 . S
C830 C824 1.383 . S
C830 C829 1.379 . S
H831 C825 0.959 . S
H832 C825 0.961 . S
H833 C825 0.960 . S
H834 C826 0.930 . S
H835 C827 0.929 . S
H836 C844 0.929 1_556 S
H837 C846 0.930 . S
H838 C848 0.930 . S
H839 C851 0.929 . S
H840 C854 0.930 . S
H841 C856 0.960 . S
H842 C856 0.960 . S
H843 C856 0.960 . S
C844 H836 0.929 1_554 S
C844 C845 1.377 . S
C844 C846 1.384 . S
C845 C844 1.377 . S
C845 C851 1.390 . S
C846 H837 0.930 . S
C846 C844 1.384 . S
C846 C847 1.372 . S
C847 C846 1.372 . S
C847 C848 1.400 . S
C847 C852 1.490 . S
C848 H838 0.930 . S
C848 C847 1.400 . S
C848 C851 1.386 . S
H849 C865 0.930 . S
H850 C866 0.931 . S
C851 H839 0.929 . S
C851 C845 1.390 . S
C851 C848 1.386 . S
C852 C847 1.490 . S
C852 C854 1.395 . S
C852 C855 1.403 . S
H853 C859 0.930 . S
C854 H840 0.930 . S
C854 C852 1.395 . S
C854 C857 1.403 . S
C855 C852 1.403 . S
C855 C856 1.524 . S
C855 C859 1.400 . S
C856 H841 0.960 . S
C856 H842 0.960 . S
C856 H843 0.960 . S
C856 C855 1.524 . S
C857 C854 1.403 . S
C857 C858 1.392 . S
C857 C861 1.495 . S
C858 C857 1.392 . S
C858 C859 1.385 . S
C858 C860 1.478 . S
C859 H853 0.930 . S
C859 C855 1.400 . S
C859 C858 1.385 . S
C860 C858 1.478 . S
C860 C862 1.381 . S
C860 C866 1.383 . S
C861 C857 1.495 . S
C861 H867 0.959 . S
C861 H868 0.961 . S
C861 H869 0.960 . S
C862 C860 1.381 . S
C862 C863 1.394 . S
C862 H870 0.930 . S
C863 C862 1.394 . S
C863 C864 1.383 . S
C863 H871 0.929 . S
C864 C863 1.383 . S
C864 C865 1.377 . S
C865 H849 0.930 . S
C865 C864 1.377 . S
C865 C866 1.379 . S
C866 H850 0.931 . S
C866 C860 1.383 . S
C866 C865 1.379 . S
H867 C861 0.959 . S
H868 C861 0.961 . S
H869 C861 0.960 . S
H870 C862 0.930 . S
H871 C863 0.929 . S
H872 C880 0.929 . S
H873 C882 0.930 . S
H874 C884 0.930 . S
H875 C887 0.929 . S
H876 C890 0.930 . S
H877 C892 0.960 1_556 S
H878 C892 0.960 . S
H879 C892 0.960 . S
C880 H872 0.929 . S
C880 C881 1.377 . S
C880 C882 1.384 . S
C881 C880 1.377 . S
C881 C887 1.390 . S
C882 H873 0.930 . S
C882 C880 1.384 . S
C882 C883 1.372 . S
C883 C882 1.372 . S
C883 C884 1.400 . S
C883 C888 1.490 . S
C884 H874 0.930 . S
C884 C883 1.400 . S
C884 C887 1.386 . S
H885 C901 0.930 . S
H886 C902 0.931 . S
C887 H875 0.929 . S
C887 C881 1.390 . S
C887 C884 1.386 . S
C888 C883 1.490 . S
C888 C890 1.395 1_655 S
C888 C891 1.403 . S
H889 C895 0.930 1_556 S
C890 H876 0.930 . S
C890 C888 1.395 1_455 S
C890 C893 1.403 . S
C891 C888 1.403 . S
C891 C892 1.524 . S
C891 C895 1.400 . S
C892 H877 0.960 1_554 S
C892 H878 0.960 . S
C892 H879 0.960 . S
C892 C891 1.524 . S
C893 C890 1.403 . S
C893 C894 1.368 1_455 S
C893 C897 1.495 . S
C894 C893 1.368 1_655 S
C894 C895 1.420 . S
C894 C896 1.469 1_655 S
C895 H889 0.930 1_554 S
C895 C891 1.400 . S
C895 C894 1.420 . S
C896 C894 1.469 1_455 S
C896 C898 1.378 1_455 S
C896 C902 1.383 1_554 S
C897 C893 1.495 . S
C897 H903 0.959 . S
C897 H904 0.961 . S
C897 H905 0.960 . S
C898 C896 1.378 1_655 S
C898 C899 1.392 1_654 S
C898 H906 0.936 . S
C899 C898 1.392 1_456 S
C899 C900 1.383 . S
C899 H907 0.922 1_456 S
C900 C899 1.383 . S
C900 C901 1.377 . S
C901 H885 0.930 . S
C901 C900 1.377 . S
C901 C902 1.379 . S
C902 H886 0.931 . S
C902 C896 1.383 1_556 S
C902 C901 1.379 . S
H903 C897 0.959 . S
H904 C897 0.961 . S
H905 C897 0.960 . S
H906 C898 0.936 . S
H907 C899 0.922 1_654 S
H908 C916 0.929 . S
H909 C918 0.930 . S
H910 C920 0.930 . S
H911 C923 0.929 . S
H912 C926 0.930 . S
H913 C928 0.960 . S
H914 C928 0.960 . S
H915 C928 0.960 . S
C916 H908 0.929 . S
C916 C917 1.377 . S
C916 C918 1.384 . S
C917 C916 1.377 . S
C917 C923 1.390 . S
C918 H909 0.930 . S
C918 C916 1.384 . S
C918 C919 1.372 . S
C919 C918 1.372 . S
C919 C920 1.400 . S
C919 C924 1.490 . S
C920 H910 0.930 . S
C920 C919 1.400 . S
C920 C923 1.386 . S
H921 C937 0.930 . S
H922 C938 0.940 . S
C923 H911 0.929 . S
C923 C917 1.390 . S
C923 C920 1.386 . S
C924 C919 1.490 . S
C924 C926 1.395 1_565 S
C924 C927 1.403 . S
H925 C931 0.930 . S
C926 H912 0.930 . S
C926 C924 1.395 1_545 S
C926 C929 1.403 . S
C927 C924 1.403 . S
C927 C928 1.524 . S
C927 C931 1.400 . S
C928 H913 0.960 . S
C928 H914 0.960 . S
C928 H915 0.960 . S
C928 C927 1.524 . S
C929 C926 1.403 . S
C929 C930 1.392 . S
C929 C933 1.495 . S
C930 C929 1.392 . S
C930 C931 1.385 1_545 S
C930 C932 1.478 . S
C931 H925 0.930 . S
C931 C927 1.400 . S
C931 C930 1.385 1_565 S
C932 C930 1.478 . S
C932 C934 1.381 . S
C932 C938 1.383 1_554 S
C933 C929 1.495 . S
C933 H939 0.959 . S
C933 H940 0.961 . S
C933 H941 0.960 . S
C934 C932 1.381 . S
C934 C935 1.394 1_554 S
C934 H942 0.930 . S
C935 C934 1.394 1_556 S
C935 C936 1.383 . S
C935 H943 0.929 1_556 S
C936 C935 1.383 . S
C936 C937 1.377 . S
C937 H921 0.930 . S
C937 C936 1.377 . S
C937 C938 1.379 . S
C938 H922 0.940 . S
C938 C932 1.383 1_556 S
C938 C937 1.379 . S
H939 C933 0.959 . S
H940 C933 0.961 . S
H941 C933 0.960 . S
H942 C934 0.930 . S
H943 C935 0.929 1_554 S
H944 C952 0.929 . S
H945 C954 0.930 . S
H946 C956 0.930 . S
H947 C959 0.929 . S
H948 C962 0.930 . S
H949 C964 0.960 . S
H950 C964 0.960 . S
H951 C964 0.960 . S
C952 H944 0.929 . S
C952 C953 1.377 . S
C952 C954 1.384 . S
C953 C952 1.377 . S
C953 C959 1.390 . S
C954 H945 0.930 . S
C954 C952 1.384 . S
C954 C955 1.372 . S
C955 C954 1.372 . S
C955 C956 1.400 . S
C955 C960 1.490 . S
C956 H946 0.930 . S
C956 C955 1.400 . S
C956 C959 1.386 . S
H957 C973 0.930 . S
H958 C974 0.931 . S
C959 H947 0.929 . S
C959 C953 1.390 . S
C959 C956 1.386 . S
C960 C955 1.490 . S
C960 C962 1.395 . S
C960 C963 1.403 . S
H961 C967 0.930 . S
C962 H948 0.930 . S
C962 C960 1.395 . S
C962 C965 1.403 . S
C963 C960 1.403 . S
C963 C964 1.524 . S
C963 C967 1.400 . S
C964 H949 0.960 . S
C964 H950 0.960 . S
C964 H951 0.960 . S
C964 C963 1.524 . S
C965 C962 1.403 . S
C965 C966 1.392 . S
C965 C969 1.495 . S
C966 C965 1.392 . S
C966 C967 1.385 . S
C966 C968 1.478 . S
C967 H961 0.930 . S
C967 C963 1.400 . S
C967 C966 1.385 . S
C968 C966 1.478 . S
C968 C970 1.381 1_554 S
C968 C974 1.383 . S
C969 C965 1.495 . S
C969 H975 0.959 . S
C969 H976 0.961 . S
C969 H977 0.960 . S
C970 C968 1.381 1_556 S
C970 C971 1.394 . S
C970 H978 0.930 . S
C971 C970 1.394 . S
C971 C972 1.383 . S
C971 H979 0.929 . S
C972 C971 1.383 . S
C972 C973 1.377 . S
C973 H957 0.930 . S
C973 C972 1.377 . S
C973 C974 1.379 1_556 S
C974 H958 0.931 . S
C974 C968 1.383 . S
C974 C973 1.379 1_554 S
H975 C969 0.959 . S
H976 C969 0.961 . S
H977 C969 0.960 . S
H978 C970 0.930 . S
H979 C971 0.929 . S
H980 C988 0.929 . S
H981 C990 0.930 . S
H982 C992 0.930 . S
H983 C995 0.929 . S
H984 C998 0.930 . S
H985 C1000 0.960 1_556 S
H986 C1000 0.960 . S
H987 C1000 0.960 . S
C988 H980 0.929 . S
C988 C989 1.377 . S
C988 C990 1.384 . S
C989 C988 1.377 . S
C989 C995 1.390 . S
C990 H981 0.930 . S
C990 C988 1.384 . S
C990 C991 1.372 . S
C991 C990 1.372 . S
C991 C992 1.400 . S
C991 C996 1.490 . S
C992 H982 0.930 . S
C992 C991 1.400 . S
C992 C995 1.386 . S
H993 C1009 0.930 . S
H994 C1010 0.931 . S
C995 H983 0.929 . S
C995 C989 1.390 . S
C995 C992 1.386 . S
C996 C991 1.490 . S
C996 C998 1.395 . S
C996 C999 1.403 . S
H997 C1003 0.930 1_556 S
C998 H984 0.930 . S
C998 C996 1.395 . S
C998 C1001 1.403 . S
C999 C996 1.403 . S
C999 C1000 1.524 . S
C999 C1003 1.400 . S
C1000 H985 0.960 1_554 S
C1000 H986 0.960 . S
C1000 H987 0.960 . S
C1000 C999 1.524 . S
C1001 C998 1.403 . S
C1001 C1002 1.392 . S
C1001 C1005 1.495 . S
C1002 C1001 1.392 . S
C1002 C1003 1.385 . S
C1002 C1004 1.478 . S
C1003 H997 0.930 1_554 S
C1003 C999 1.400 . S
C1003 C1002 1.385 . S
C1004 C1002 1.478 . S
C1004 C1006 1.381 . S
C1004 C1010 1.383 1_554 S
C1005 C1001 1.495 . S
C1005 H1011 0.959 . S
C1005 H1012 0.961 . S
C1005 H1013 0.960 . S
C1006 C1004 1.381 . S
C1006 C1007 1.394 1_554 S
C1006 H1014 0.930 . S
C1007 C1006 1.394 1_556 S
C1007 C1008 1.383 . S
C1007 H1015 0.929 . S
C1008 C1007 1.383 . S
C1008 C1009 1.377 . S
C1009 H993 0.930 . S
C1009 C1008 1.377 . S
C1009 C1010 1.379 . S
C1010 H994 0.931 . S
C1010 C1004 1.383 1_556 S
C1010 C1009 1.379 . S
H1011 C1005 0.959 . S
H1012 C1005 0.961 . S
H1013 C1005 0.960 . S
H1014 C1006 0.930 . S
H1015 C1007 0.929 . S
H1016 C1024 0.929 . S
H1017 C1026 0.930 . S
H1018 C1028 0.930 . S
H1019 C1031 0.929 1_554 S
H1020 C1034 0.930 . S
H1021 C1036 0.960 . S
H1022 C1036 0.960 . S
H1023 C1036 0.960 . S
C1024 H1016 0.929 . S
C1024 C1025 1.377 . S
C1024 C1026 1.384 . S
C1025 C1024 1.377 . S
C1025 C1031 1.390 . S
C1026 H1017 0.930 . S
C1026 C1024 1.384 . S
C1026 C1027 1.372 . S
C1027 C1026 1.372 . S
C1027 C1028 1.400 . S
C1027 C1032 1.490 . S
C1028 H1018 0.930 . S
C1028 C1027 1.400 . S
C1028 C1031 1.386 . S
H1029 C1045 0.930 . S
H1030 C1046 0.931 . S
C1031 H1019 0.929 1_556 S
C1031 C1025 1.390 . S
C1031 C1028 1.386 . S
C1032 C1027 1.490 . S
C1032 C1034 1.395 . S
C1032 C1035 1.403 . S
H1033 C1039 0.930 1_655 S
C1034 H1020 0.930 . S
C1034 C1032 1.395 . S
C1034 C1037 1.403 . S
C1035 C1032 1.403 . S
C1035 C1036 1.524 1_455 S
C1035 C1039 1.400 . S
C1036 H1021 0.960 . S
C1036 H1022 0.960 . S
C1036 H1023 0.960 . S
C1036 C1035 1.524 1_655 S
C1037 C1034 1.403 . S
C1037 C1038 1.392 . S
C1037 C1041 1.495 . S
C1038 C1037 1.392 . S
C1038 C1039 1.385 . S
C1038 C1040 1.478 . S
C1039 H1033 0.930 1_455 S
C1039 C1035 1.400 . S
C1039 C1038 1.385 . S
C1040 C1038 1.478 . S
C1040 C1042 1.381 . S
C1040 C1046 1.383 . S
C1041 C1037 1.495 . S
C1041 H1047 0.959 . S
C1041 H1048 0.961 . S
C1041 H1049 0.960 . S
C1042 C1040 1.381 . S
C1042 C1043 1.394 . S
C1042 H1050 0.930 . S
C1043 C1042 1.394 . S
C1043 C1044 1.383 . S
C1043 H1051 0.929 . S
C1044 C1043 1.383 . S
C1044 C1045 1.377 . S
C1045 H1029 0.930 . S
C1045 C1044 1.377 . S
C1045 C1046 1.379 . S
C1046 H1030 0.931 . S
C1046 C1040 1.383 . S
C1046 C1045 1.379 . S
H1047 C1041 0.959 . S
H1048 C1041 0.961 . S
H1049 C1041 0.960 . S
H1050 C1042 0.930 . S
H1051 C1043 0.929 . S
H1052 C1060 0.929 . S
H1053 C1062 0.930 . S
H1054 C1064 0.930 . S
H1055 C1067 0.929 1_554 S
H1056 C1070 0.930 . S
H1057 C1072 0.960 1_554 S
H1058 C1072 0.960 1_554 S
H1059 C1072 0.960 1_554 S
C1060 H1052 0.929 . S
C1060 C1061 1.377 . S
C1060 C1062 1.384 . S
C1061 C1060 1.377 . S
C1061 C1067 1.390 . S
C1062 H1053 0.930 . S
C1062 C1060 1.384 . S
C1062 C1063 1.372 . S
C1063 C1062 1.372 . S
C1063 C1064 1.400 . S
C1063 C1068 1.490 . S
C1064 H1054 0.930 . S
C1064 C1063 1.400 . S
C1064 C1067 1.386 . S
H1065 C1081 0.930 . S
H1066 C1082 0.931 . S
C1067 H1055 0.929 1_556 S
C1067 C1061 1.390 . S
C1067 C1064 1.386 . S
C1068 C1063 1.490 . S
C1068 C1070 1.395 . S
C1068 C1071 1.403 . S
H1069 C1075 0.930 . S
C1070 H1056 0.930 . S
C1070 C1068 1.395 . S
C1070 C1073 1.403 . S
C1071 C1068 1.403 . S
C1071 C1072 1.524 . S
C1071 C1075 1.400 . S
C1072 H1057 0.960 1_556 S
C1072 H1058 0.960 1_556 S
C1072 H1059 0.960 1_556 S
C1072 C1071 1.524 . S
C1073 C1070 1.403 . S
C1073 C1074 1.392 . S
C1073 C1077 1.495 . S
C1074 C1073 1.392 . S
C1074 C1075 1.385 . S
C1074 C1076 1.478 . S
C1075 H1069 0.930 . S
C1075 C1071 1.400 . S
C1075 C1074 1.385 . S
C1076 C1074 1.478 . S
C1076 C1078 1.381 . S
C1076 C1082 1.383 . S
C1077 C1073 1.495 . S
C1077 H1083 0.959 . S
C1077 H1084 0.961 . S
C1077 H1085 0.960 . S
C1078 C1076 1.381 . S
C1078 C1079 1.394 . S
C1078 H1086 0.932 . S
C1079 C1078 1.394 . S
C1079 C1080 1.383 . S
C1079 H1087 0.929 1_545 S
C1080 C1079 1.383 . S
C1080 C1081 1.377 . S
C1081 H1065 0.930 . S
C1081 C1080 1.377 . S
C1081 C1082 1.379 . S
C1082 H1066 0.931 . S
C1082 C1076 1.383 . S
C1082 C1081 1.379 . S
H1083 C1077 0.959 . S
H1084 C1077 0.961 . S
H1085 C1077 0.960 . S
H1086 C1078 0.932 . S
H1087 C1079 0.929 1_565 S
H1088 C1096 0.929 1_554 S
H1089 C1098 0.930 1_554 S
H1090 C1100 0.930 . S
H1091 C1103 0.929 . S
H1092 C1106 0.930 . S
H1093 C1108 0.960 . S
H1094 C1108 0.960 . S
H1095 C1108 0.960 . S
C1096 H1088 0.929 1_556 S
C1096 C1097 1.377 . S
C1096 C1098 1.384 . S
C1097 C1096 1.377 . S
C1097 C1103 1.390 . S
C1098 H1089 0.930 1_556 S
C1098 C1096 1.384 . S
C1098 C1099 1.372 . S
C1099 C1098 1.372 . S
C1099 C1100 1.400 . S
C1099 C1104 1.490 . S
C1100 H1090 0.930 . S
C1100 C1099 1.400 . S
C1100 C1103 1.386 . S
H1101 C1117 0.930 . S
H1102 C1118 0.931 . S
C1103 H1091 0.929 . S
C1103 C1097 1.390 . S
C1103 C1100 1.386 . S
C1104 C1099 1.490 . S
C1104 C1106 1.395 . S
C1104 C1107 1.403 . S
H1105 C1111 0.930 . S
C1106 H1092 0.930 . S
C1106 C1104 1.395 . S
C1106 C1109 1.403 . S
C1107 C1104 1.403 . S
C1107 C1108 1.524 . S
C1107 C1111 1.400 . S
C1108 H1093 0.960 . S
C1108 H1094 0.960 . S
C1108 H1095 0.960 . S
C1108 C1107 1.524 . S
C1109 C1106 1.403 . S
C1109 C1110 1.392 . S
C1109 C1113 1.495 . S
C1110 C1109 1.392 . S
C1110 C1111 1.385 . S
C1110 C1112 1.478 . S
C1111 H1105 0.930 . S
C1111 C1107 1.400 . S
C1111 C1110 1.385 . S
C1112 C1110 1.478 . S
C1112 C1114 1.381 . S
C1112 C1118 1.383 . S
C1113 C1109 1.495 . S
C1113 H1119 0.959 . S
C1113 H1120 0.961 . S
C1113 H1121 0.960 . S
C1114 C1112 1.381 . S
C1114 C1115 1.394 . S
C1114 H1122 0.930 . S
C1115 C1114 1.394 . S
C1115 C1116 1.383 . S
C1115 H1123 0.929 . S
C1116 C1115 1.383 . S
C1116 C1117 1.377 . S
C1117 H1101 0.930 . S
C1117 C1116 1.377 . S
C1117 C1118 1.379 . S
C1118 H1102 0.931 . S
C1118 C1112 1.383 . S
C1118 C1117 1.379 . S
H1119 C1113 0.959 . S
H1120 C1113 0.961 . S
H1121 C1113 0.960 . S
H1122 C1114 0.930 . S
H1123 C1115 0.929 . S
H1124 C1132 0.929 . S
H1125 C1134 0.930 . S
H1126 C1136 0.930 . S
H1127 C1139 0.929 1_554 S
H1128 C1142 0.930 . S
H1129 C1144 0.960 1_554 S
H1130 C1144 0.960 . S
H1131 C1144 0.960 1_554 S
C1132 H1124 0.929 . S
C1132 C1133 1.377 . S
C1132 C1134 1.384 . S
C1133 C1132 1.377 . S
C1133 C1139 1.390 . S
C1134 H1125 0.930 . S
C1134 C1132 1.384 . S
C1134 C1135 1.372 . S
C1135 C1134 1.372 . S
C1135 C1136 1.400 . S
C1135 C1140 1.490 . S
C1136 H1126 0.930 . S
C1136 C1135 1.400 . S
C1136 C1139 1.386 . S
H1137 C1153 0.930 . S
H1138 C1154 0.931 . S
C1139 H1127 0.929 1_556 S
C1139 C1133 1.390 . S
C1139 C1136 1.386 . S
C1140 C1135 1.490 . S
C1140 C1142 1.395 . S
C1140 C1143 1.403 . S
H1141 C1147 0.930 . S
C1142 H1128 0.930 . S
C1142 C1140 1.395 . S
C1142 C1145 1.403 . S
C1143 C1140 1.403 . S
C1143 C1144 1.524 . S
C1143 C1147 1.400 . S
C1144 H1129 0.960 1_556 S
C1144 H1130 0.960 . S
C1144 H1131 0.960 1_556 S
C1144 C1143 1.524 . S
C1145 C1142 1.403 . S
C1145 C1146 1.392 . S
C1145 C1149 1.495 . S
C1146 C1145 1.392 . S
C1146 C1147 1.385 . S
C1146 C1148 1.478 . S
C1147 H1141 0.930 . S
C1147 C1143 1.400 . S
C1147 C1146 1.385 . S
C1148 C1146 1.478 . S
C1148 C1150 1.381 . S
C1148 C1154 1.383 . S
C1149 C1145 1.495 . S
C1149 H1155 0.959 . S
C1149 H1156 0.961 . S
C1149 H1157 0.960 . S
C1150 C1148 1.381 . S
C1150 C1151 1.394 . S
C1150 H1158 0.930 . S
C1151 C1150 1.394 . S
C1151 C1152 1.383 . S
C1151 H1159 0.929 . S
C1152 C1151 1.383 . S
C1152 C1153 1.377 . S
C1153 H1137 0.930 . S
C1153 C1152 1.377 . S
C1153 C1154 1.379 . S
C1154 H1138 0.931 . S
C1154 C1148 1.383 . S
C1154 C1153 1.379 . S
H1155 C1149 0.959 . S
H1156 C1149 0.961 . S
H1157 C1149 0.960 . S
H1158 C1150 0.930 . S
H1159 C1151 0.929 . S
H1160 C1168 0.929 . S
H1161 C1170 0.930 . S
H1162 C1172 0.930 1_455 S
H1163 C1175 0.929 1_455 S
H1164 C1178 0.930 . S
H1165 C1180 0.960 . S
H1166 C1180 0.960 . S
H1167 C1180 0.960 . S
C1168 H1160 0.929 . S
C1168 C1169 1.377 . S
C1168 C1170 1.384 . S
C1169 C1168 1.377 . S
C1169 C1175 1.390 . S
C1170 H1161 0.930 . S
C1170 C1168 1.384 . S
C1170 C1171 1.372 . S
C1171 C1170 1.372 . S
C1171 C1172 1.400 . S
C1171 C1176 1.490 . S
C1172 H1162 0.930 1_655 S
C1172 C1171 1.400 . S
C1172 C1175 1.386 . S
H1173 C1189 0.930 . S
H1174 C1190 0.931 . S
C1175 H1163 0.929 1_655 S
C1175 C1169 1.390 . S
C1175 C1172 1.386 . S
C1176 C1171 1.490 . S
C1176 C1178 1.395 . S
C1176 C1179 1.403 . S
H1177 C1183 0.930 . S
C1178 H1164 0.930 . S
C1178 C1176 1.395 . S
C1178 C1181 1.403 . S
C1179 C1176 1.403 . S
C1179 C1180 1.524 . S
C1179 C1183 1.400 . S
C1180 H1165 0.960 . S
C1180 H1166 0.960 . S
C1180 H1167 0.960 . S
C1180 C1179 1.524 . S
C1181 C1178 1.403 . S
C1181 C1182 1.392 . S
C1181 C1185 1.495 . S
C1182 C1181 1.392 . S
C1182 C1183 1.385 . S
C1182 C1184 1.478 . S
C1183 H1177 0.930 . S
C1183 C1179 1.400 . S
C1183 C1182 1.385 . S
C1184 C1182 1.478 . S
C1184 C1186 1.381 . S
C1184 C1190 1.383 1_655 S
C1185 C1181 1.495 . S
C1185 H1191 0.959 . S
C1185 H1192 0.961 1_655 S
C1185 H1193 0.960 . S
C1186 C1184 1.381 . S
C1186 C1187 1.394 . S
C1186 H1194 0.930 . S
C1187 C1186 1.394 . S
C1187 C1188 1.383 . S
C1187 H1195 0.929 . S
C1188 C1187 1.383 . S
C1188 C1189 1.377 1_655 S
C1189 H1173 0.930 . S
C1189 C1188 1.377 1_455 S
C1189 C1190 1.379 . S
C1190 H1174 0.931 . S
C1190 C1184 1.383 1_455 S
C1190 C1189 1.379 . S
H1191 C1185 0.959 . S
H1192 C1185 0.961 1_455 S
H1193 C1185 0.960 . S
H1194 C1186 0.930 . S
H1195 C1187 0.929 . S
H1196 C1204 0.929 . S
H1197 C1206 0.930 . S
H1198 C1208 0.930 . S
H1199 C1211 0.907 1_545 S
H1200 C1214 0.930 . S
H1201 C1216 0.960 . S
H1202 C1216 0.960 . S
H1203 C1216 0.960 . S
C1204 H1196 0.929 . S
C1204 C1205 1.377 . S
C1204 C1206 1.384 . S
C1205 C1204 1.377 . S
C1205 C1211 1.415 . S
C1206 H1197 0.930 . S
C1206 C1204 1.384 . S
C1206 C1207 1.372 . S
C1207 C1206 1.372 . S
C1207 C1208 1.400 1_565 S
C1207 C1212 1.490 . S
C1208 H1198 0.930 . S
C1208 C1207 1.400 1_545 S
C1208 C1211 1.383 1_545 S
H1209 C1225 0.930 . S
H1210 C1226 0.931 . S
C1211 H1199 0.907 1_565 S
C1211 C1205 1.415 . S
C1211 C1208 1.383 1_565 S
C1212 C1207 1.490 . S
C1212 C1214 1.395 . S
C1212 C1215 1.400 . S
H1213 C1219 0.966 . S
C1214 H1200 0.930 . S
C1214 C1212 1.395 . S
C1214 C1217 1.403 . S
C1215 C1212 1.400 . S
C1215 C1216 1.526 1_565 S
C1215 C1219 1.398 1_565 S
C1216 H1201 0.960 . S
C1216 H1202 0.960 . S
C1216 H1203 0.960 . S
C1216 C1215 1.526 1_545 S
C1217 C1214 1.403 . S
C1217 C1218 1.392 . S
C1217 C1221 1.495 . S
C1218 C1217 1.392 . S
C1218 C1219 1.355 1_565 S
C1218 C1220 1.478 . S
C1219 H1213 0.966 . S
C1219 C1215 1.398 1_545 S
C1219 C1218 1.355 1_545 S
C1220 C1218 1.478 . S
C1220 C1222 1.381 . S
C1220 C1226 1.383 1_565 S
C1221 C1217 1.495 . S
C1221 H1227 0.959 . S
C1221 H1228 0.961 . S
C1221 H1229 0.960 . S
C1222 C1220 1.381 . S
C1222 C1223 1.394 . S
C1222 H1230 0.930 . S
C1223 C1222 1.394 . S
C1223 C1224 1.383 . S
C1223 H1231 0.929 . S
C1224 C1223 1.383 . S
C1224 C1225 1.377 1_565 S
C1225 H1209 0.930 . S
C1225 C1224 1.377 1_545 S
C1225 C1226 1.379 . S
C1226 H1210 0.931 . S
C1226 C1220 1.383 1_545 S
C1226 C1225 1.379 . S
H1227 C1221 0.959 . S
H1228 C1221 0.961 . S
H1229 C1221 0.960 . S
H1230 C1222 0.930 . S
H1231 C1223 0.929 . S
H1232 C1240 0.929 . S
H1233 C1242 0.930 . S
H1234 C1244 0.930 . S
H1235 C1247 0.929 . S
H1236 C1250 0.930 . S
H1237 C1252 0.960 . S
H1238 C1252 0.960 . S
H1239 C1252 0.960 . S
C1240 H1232 0.929 . S
C1240 C1241 1.377 . S
C1240 C1242 1.384 . S
C1241 C1240 1.377 . S
C1241 C1247 1.390 . S
C1242 H1233 0.930 . S
C1242 C1240 1.384 . S
C1242 C1243 1.372 . S
C1243 C1242 1.372 . S
C1243 C1244 1.400 . S
C1243 C1248 1.490 . S
C1244 H1234 0.930 . S
C1244 C1243 1.400 . S
C1244 C1247 1.386 . S
H1245 C1261 0.930 . S
H1246 C1262 0.931 . S
C1247 H1235 0.929 . S
C1247 C1241 1.390 . S
C1247 C1244 1.386 . S
C1248 C1243 1.490 . S
C1248 C1250 1.395 . S
C1248 C1251 1.403 . S
H1249 C1255 0.930 . S
C1250 H1236 0.930 . S
C1250 C1248 1.395 . S
C1250 C1253 1.403 . S
C1251 C1248 1.403 . S
C1251 C1252 1.524 . S
C1251 C1255 1.400 . S
C1252 H1237 0.960 . S
C1252 H1238 0.960 . S
C1252 H1239 0.960 . S
C1252 C1251 1.524 . S
C1253 C1250 1.403 . S
C1253 C1254 1.392 . S
C1253 C1257 1.495 . S
C1254 C1253 1.392 . S
C1254 C1255 1.385 . S
C1254 C1256 1.478 . S
C1255 H1249 0.930 . S
C1255 C1251 1.400 . S
C1255 C1254 1.385 . S
C1256 C1254 1.478 . S
C1256 C1258 1.381 . S
C1256 C1262 1.383 . S
C1257 C1253 1.495 . S
C1257 H1263 0.959 . S
C1257 H1264 0.961 . S
C1257 H1265 0.960 . S
C1258 C1256 1.381 . S
C1258 C1259 1.394 . S
C1258 H1266 0.930 . S
C1259 C1258 1.394 . S
C1259 C1260 1.383 . S
C1259 H1267 0.929 . S
C1260 C1259 1.383 . S
C1260 C1261 1.377 . S
C1261 H1245 0.930 . S
C1261 C1260 1.377 . S
C1261 C1262 1.379 . S
C1262 H1246 0.931 . S
C1262 C1256 1.383 . S
C1262 C1261 1.379 . S
H1263 C1257 0.959 . S
H1264 C1257 0.961 . S
H1265 C1257 0.960 . S
H1266 C1258 0.930 . S
H1267 C1259 0.929 . S
H1268 C1276 0.929 . S
H1269 C1278 0.930 . S
H1270 C1280 0.930 . S
H1271 C1283 0.929 . S
H1272 C1286 0.930 . S
H1273 C1288 0.960 . S
H1274 C1288 0.960 . S
H1275 C1288 0.960 . S
C1276 H1268 0.929 . S
C1276 C1277 1.377 . S
C1276 C1278 1.384 . S
C1277 C1276 1.377 . S
C1277 C1283 1.390 . S
C1278 H1269 0.930 . S
C1278 C1276 1.384 . S
C1278 C1279 1.372 . S
C1279 C1278 1.372 . S
C1279 C1280 1.400 . S
C1279 C1284 1.490 . S
C1280 H1270 0.930 . S
C1280 C1279 1.400 . S
C1280 C1283 1.386 . S
H1281 C1297 0.930 . S
H1282 C1298 0.931 . S
C1283 H1271 0.929 . S
C1283 C1277 1.390 . S
C1283 C1280 1.386 . S
C1284 C1279 1.490 . S
C1284 C1286 1.395 . S
C1284 C1287 1.403 . S
H1285 C1291 0.930 . S
C1286 H1272 0.930 . S
C1286 C1284 1.395 . S
C1286 C1289 1.403 . S
C1287 C1284 1.403 . S
C1287 C1288 1.524 . S
C1287 C1291 1.400 . S
C1288 H1273 0.960 . S
C1288 H1274 0.960 . S
C1288 H1275 0.960 . S
C1288 C1287 1.524 . S
C1289 C1286 1.403 . S
C1289 C1290 1.392 . S
C1289 C1293 1.495 . S
C1290 C1289 1.392 . S
C1290 C1291 1.385 . S
C1290 C1292 1.478 . S
C1291 H1285 0.930 . S
C1291 C1287 1.400 . S
C1291 C1290 1.385 . S
C1292 C1290 1.478 . S
C1292 C1294 1.381 . S
C1292 C1298 1.383 . S
C1293 C1289 1.495 . S
C1293 H1299 0.959 . S
C1293 H1300 0.961 . S
C1293 H1301 0.960 . S
C1294 C1292 1.381 . S
C1294 C1295 1.394 . S
C1294 H1302 0.930 . S
C1295 C1294 1.394 . S
C1295 C1296 1.383 . S
C1295 H1303 0.929 . S
C1296 C1295 1.383 . S
C1296 C1297 1.377 . S
C1297 H1281 0.930 . S
C1297 C1296 1.377 . S
C1297 C1298 1.379 . S
C1298 H1282 0.931 . S
C1298 C1292 1.383 . S
C1298 C1297 1.379 . S
H1299 C1293 0.959 . S
H1300 C1293 0.961 . S
H1301 C1293 0.960 . S
H1302 C1294 0.930 . S
H1303 C1295 0.929 . S
C449 N80 1.888 . S
C468 C167 1.930 . S
C504 C244 1.954 . S
C485 N93 1.897 . S
C540 C335 1.915 . S
C521 N54 1.879 . S
C576 C419 1.900 . S
C557 N67 1.875 . S
C612 C178 1.940 . S
C593 N28 1.900 . S
C629 N41 1.898 . S
C648 C255 1.948 . S
C665 N2 1.881 . S
C684 C346 1.916 . S
C701 N15 1.872 . S
C720 C430 1.900 . S
C756 C162 0.518 1_455 S
C737 N70 0.387 . S
C792 C257 0.474 . S
C773 N83 0.360 . S
C828 C330 0.444 . S
C809 N96 0.397 . S
C845 N57 0.376 . S
C864 C414 0.620 . S
C881 N18 0.400 . S
C900 C173 0.487 . S
C936 C246 0.496 . S
C917 N31 0.371 . S
C972 C341 0.618 . S
C953 N44 0.390 . S
C989 N5 0.381 . S
C1008 C425 0.529 . S
C1025 N66 1.932 1_556 S
C1044 C171 1.983 . S
C1061 N79 1.921 1_556 S
C1080 C262 1.982 . S
C1116 C339 2.003 . S
C1097 N92 1.951 . S
C1152 C423 1.999 . S
C1133 N53 1.942 1_556 S
C1169 N14 1.937 . S
C1188 C160 1.976 . S
C1224 C251 1.983 1_565 S
C1205 N27 1.930 . S
C1260 C328 2.003 . S
C1241 N40 1.952 . S
C1277 N1 1.963 . S
C1296 C412 2.014 . S
