# Generated by pormake.
# Topology ctn, (3,4)-cn, num edge types: 1
# Building blocks:
#     Node 0, Type 0, BuildingBlock: VETTIZ_charged_linker_0, # of connection points: 3
#     Node 1, Type 0, BuildingBlock: VETTIZ_charged_linker_0, # of connection points: 3
#     Node 2, Type 0, BuildingBlock: VETTIZ_charged_linker_0, # of connection points: 3
#     Node 3, Type 0, BuildingBlock: VETTIZ_charged_linker_0, # of connection points: 3
#     Node 4, Type 0, BuildingBlock: VETTIZ_charged_linker_0, # of connection points: 3
#     Node 5, Type 0, BuildingBlock: VETTIZ_charged_linker_0, # of connection points: 3
#     Node 6, Type 0, BuildingBlock: VETTIZ_charged_linker_0, # of connection points: 3
#     Node 7, Type 0, BuildingBlock: VETTIZ_charged_linker_0, # of connection points: 3
#     Node 8, Type 0, BuildingBlock: VETTIZ_charged_linker_0, # of connection points: 3
#     Node 9, Type 0, BuildingBlock: VETTIZ_charged_linker_0, # of connection points: 3
#     Node 10, Type 0, BuildingBlock: VETTIZ_charged_linker_0, # of connection points: 3
#     Node 11, Type 0, BuildingBlock: VETTIZ_charged_linker_0, # of connection points: 3
#     Node 12, Type 0, BuildingBlock: VETTIZ_charged_linker_0, # of connection points: 3
#     Node 13, Type 0, BuildingBlock: VETTIZ_charged_linker_0, # of connection points: 3
#     Node 14, Type 0, BuildingBlock: VETTIZ_charged_linker_0, # of connection points: 3
#     Node 15, Type 0, BuildingBlock: VETTIZ_charged_linker_0, # of connection points: 3
#     Node 16, Type 1, BuildingBlock: NAHDIM_clean_sbu_0, # of connection points: 4
#     Node 17, Type 1, BuildingBlock: NAHDIM_clean_sbu_0, # of connection points: 4
#     Node 18, Type 1, BuildingBlock: NAHDIM_clean_sbu_0, # of connection points: 4
#     Node 19, Type 1, BuildingBlock: NAHDIM_clean_sbu_0, # of connection points: 4
#     Node 20, Type 1, BuildingBlock: NAHDIM_clean_sbu_0, # of connection points: 4
#     Node 21, Type 1, BuildingBlock: NAHDIM_clean_sbu_0, # of connection points: 4
#     Node 22, Type 1, BuildingBlock: NAHDIM_clean_sbu_0, # of connection points: 4
#     Node 23, Type 1, BuildingBlock: NAHDIM_clean_sbu_0, # of connection points: 4
#     Node 24, Type 1, BuildingBlock: NAHDIM_clean_sbu_0, # of connection points: 4
#     Node 25, Type 1, BuildingBlock: NAHDIM_clean_sbu_0, # of connection points: 4
#     Node 26, Type 1, BuildingBlock: NAHDIM_clean_sbu_0, # of connection points: 4
#     Node 27, Type 1, BuildingBlock: NAHDIM_clean_sbu_0, # of connection points: 4
#     Edge 28, Type (0, 1), BuildingBlock: ZUJKAS_clean_linker_0, # of connection points: 2
#     Edge 29, Type (0, 1), BuildingBlock: ZUJKAS_clean_linker_0, # of connection points: 2
#     Edge 30, Type (0, 1), BuildingBlock: ZUJKAS_clean_linker_0, # of connection points: 2
#     Edge 31, Type (0, 1), BuildingBlock: ZUJKAS_clean_linker_0, # of connection points: 2
#     Edge 32, Type (0, 1), BuildingBlock: ZUJKAS_clean_linker_0, # of connection points: 2
#     Edge 33, Type (0, 1), BuildingBlock: ZUJKAS_clean_linker_0, # of connection points: 2
#     Edge 34, Type (0, 1), BuildingBlock: ZUJKAS_clean_linker_0, # of connection points: 2
#     Edge 35, Type (0, 1), BuildingBlock: ZUJKAS_clean_linker_0, # of connection points: 2
#     Edge 36, Type (0, 1), BuildingBlock: ZUJKAS_clean_linker_0, # of connection points: 2
#     Edge 37, Type (0, 1), BuildingBlock: ZUJKAS_clean_linker_0, # of connection points: 2
#     Edge 38, Type (0, 1), BuildingBlock: ZUJKAS_clean_linker_0, # of connection points: 2
#     Edge 39, Type (0, 1), BuildingBlock: ZUJKAS_clean_linker_0, # of connection points: 2
#     Edge 40, Type (0, 1), BuildingBlock: ZUJKAS_clean_linker_0, # of connection points: 2
#     Edge 41, Type (0, 1), BuildingBlock: ZUJKAS_clean_linker_0, # of connection points: 2
#     Edge 42, Type (0, 1), BuildingBlock: ZUJKAS_clean_linker_0, # of connection points: 2
#     Edge 43, Type (0, 1), BuildingBlock: ZUJKAS_clean_linker_0, # of connection points: 2
#     Edge 44, Type (0, 1), BuildingBlock: ZUJKAS_clean_linker_0, # of connection points: 2
#     Edge 45, Type (0, 1), BuildingBlock: ZUJKAS_clean_linker_0, # of connection points: 2
#     Edge 46, Type (0, 1), BuildingBlock: ZUJKAS_clean_linker_0, # of connection points: 2
#     Edge 47, Type (0, 1), BuildingBlock: ZUJKAS_clean_linker_0, # of connection points: 2
#     Edge 48, Type (0, 1), BuildingBlock: ZUJKAS_clean_linker_0, # of connection points: 2
#     Edge 49, Type (0, 1), BuildingBlock: ZUJKAS_clean_linker_0, # of connection points: 2
#     Edge 50, Type (0, 1), BuildingBlock: ZUJKAS_clean_linker_0, # of connection points: 2
#     Edge 51, Type (0, 1), BuildingBlock: ZUJKAS_clean_linker_0, # of connection points: 2
#     Edge 52, Type (0, 1), BuildingBlock: ZUJKAS_clean_linker_0, # of connection points: 2
#     Edge 53, Type (0, 1), BuildingBlock: ZUJKAS_clean_linker_0, # of connection points: 2
#     Edge 54, Type (0, 1), BuildingBlock: ZUJKAS_clean_linker_0, # of connection points: 2
#     Edge 55, Type (0, 1), BuildingBlock: ZUJKAS_clean_linker_0, # of connection points: 2
#     Edge 56, Type (0, 1), BuildingBlock: ZUJKAS_clean_linker_0, # of connection points: 2
#     Edge 57, Type (0, 1), BuildingBlock: ZUJKAS_clean_linker_0, # of connection points: 2
#     Edge 58, Type (0, 1), BuildingBlock: ZUJKAS_clean_linker_0, # of connection points: 2
#     Edge 59, Type (0, 1), BuildingBlock: ZUJKAS_clean_linker_0, # of connection points: 2
#     Edge 60, Type (0, 1), BuildingBlock: ZUJKAS_clean_linker_0, # of connection points: 2
#     Edge 61, Type (0, 1), BuildingBlock: ZUJKAS_clean_linker_0, # of connection points: 2
#     Edge 62, Type (0, 1), BuildingBlock: ZUJKAS_clean_linker_0, # of connection points: 2
#     Edge 63, Type (0, 1), BuildingBlock: ZUJKAS_clean_linker_0, # of connection points: 2
#     Edge 64, Type (0, 1), BuildingBlock: ZUJKAS_clean_linker_0, # of connection points: 2
#     Edge 65, Type (0, 1), BuildingBlock: ZUJKAS_clean_linker_0, # of connection points: 2
#     Edge 66, Type (0, 1), BuildingBlock: ZUJKAS_clean_linker_0, # of connection points: 2
#     Edge 67, Type (0, 1), BuildingBlock: ZUJKAS_clean_linker_0, # of connection points: 2
#     Edge 68, Type (0, 1), BuildingBlock: ZUJKAS_clean_linker_0, # of connection points: 2
#     Edge 69, Type (0, 1), BuildingBlock: ZUJKAS_clean_linker_0, # of connection points: 2
#     Edge 70, Type (0, 1), BuildingBlock: ZUJKAS_clean_linker_0, # of connection points: 2
#     Edge 71, Type (0, 1), BuildingBlock: ZUJKAS_clean_linker_0, # of connection points: 2
#     Edge 72, Type (0, 1), BuildingBlock: ZUJKAS_clean_linker_0, # of connection points: 2
#     Edge 73, Type (0, 1), BuildingBlock: ZUJKAS_clean_linker_0, # of connection points: 2
#     Edge 74, Type (0, 1), BuildingBlock: ZUJKAS_clean_linker_0, # of connection points: 2
#     Edge 75, Type (0, 1), BuildingBlock: ZUJKAS_clean_linker_0, # of connection points: 2
# Relax obj value: 0.002
# Max RMSD: 0.034
# Mean RMSD: 0.017
data_MOF--net-ctn--node1-NAHDIM_clean_sbu_0--node2-VETTIZ_charged_linker_0--edge1-ZUJKAS_clean_linker_0
_symmetry_space_group_name_H-M    P1
_symmetry_Int_Tables_number       1
_symmetry_cell_setting            triclinic
loop_
_symmetry_equiv_pos_as_xyz
'x, y, z'
_cell_length_a     83.752558
_cell_length_b     84.155597
_cell_length_c     83.378138
_cell_angle_alpha  91.059922
_cell_angle_beta   89.996428
_cell_angle_gamma 91.948166
loop_
_atom_site_label
_atom_site_type_symbol
_atom_site_fract_x
_atom_site_fract_y
_atom_site_fract_z
_atom_type_partial_charge
C0 C 0.03427 0.08944 0.00202 0.0
C1 C 0.02164 0.09992 0.0039 0.0
C2 C 0.01064 0.09747 0.0165 0.0
C3 C 0.02495 0.07456 0.02508 0.0
C4 C 0.03568 0.0769 0.01269 0.0
C5 C 0.04845 0.06475 0.01243 0.0
H6 H 0.08053 0.0 0.04503 0.0
C7 C 0.02985 0.06056 0.03407 0.0
C8 C 0.0436 0.05473 0.0267 0.0
H9 H 0.09757 0.02667 0.00421 0.0
H10 H 0.0756 0.04426 0.00699 0.0
H11 H 0.07298 0.0304 0.06674 0.0
H12 H 0.04329 0.00019 0.03607 0.0
H13 H 0.03222 0.00422 0.05349 0.0
H14 H 0.05063 0.99382 0.05505 0.0
H15 H 0.06662 0.01067 0.07226 0.0
H16 H 0.05461 0.02761 0.0766 0.0
C17 C 0.06482 0.07356 0.01511 0.0
C18 C 0.04704 0.05518 0.99641 0.0
C19 C 0.99828 0.04306 0.08311 0.0
C20 C 8e-05 0.03071 0.09404 0.0
C21 C 0.01261 0.02012 0.0917 0.0
C22 C 0.02324 0.0219 0.07883 0.0
C23 C 0.02139 0.03442 0.06814 0.0
C24 C 0.00902 0.04469 0.07033 0.0
C25 C 0.00891 0.0573 0.05779 0.0
C26 C 0.02333 0.05298 0.04779 0.0
C27 C 0.03059 0.03958 0.05392 0.0
C28 C 0.01132 0.07372 0.06634 0.0
C29 C 0.99314 0.05522 0.04813 0.0
C30 C 0.07963 0.0097 0.03676 0.0
C31 C 0.09085 0.01189 0.02437 0.0
C32 C 0.08901 0.02455 0.01373 0.0
C33 C 0.07628 0.03484 0.01542 0.0
C34 C 0.06522 0.03252 0.02792 0.0
C35 C 0.06702 0.02012 0.03832 0.0
C36 C 0.05425 0.01955 0.05099 0.0
C37 C 0.04447 0.03365 0.04646 0.0
C38 C 0.05094 0.04119 0.03293 0.0
C39 C 0.06242 0.02207 0.06758 0.0
C40 C 0.04459 0.00361 0.04898 0.0
H41 H 0.00345 0.08365 0.03637 0.0
H42 H 0.04303 0.09107 0.99259 0.0
H43 H 0.0343 0.05325 0.99287 0.0
H44 H 0.05174 0.04312 0.99716 0.0
H45 H 0.05323 0.06159 0.98655 0.0
H46 H 0.06365 0.0839 0.02348 0.0
H47 H 0.06975 0.07812 0.00365 0.0
H48 H 0.07372 0.06609 0.02079 0.0
H49 H 0.98867 0.05128 0.08441 0.0
H50 H 0.01441 0.01062 0.10003 0.0
H51 H 0.03256 0.01351 0.07779 0.0
H52 H 0.01974 0.07298 0.07661 0.0
H53 H -0.00016 0.07804 0.07113 0.0
H54 H 0.01677 0.08287 0.05854 0.0
H55 H 0.98942 0.04243 0.04689 0.0
H56 H 0.99426 0.05938 0.03569 0.0
H57 H 0.98327 0.06146 0.05419 0.0
H58 H 0.00067 0.10521 0.01808 0.0
C59 C 0.01222 0.08487 0.02707 0.0
C60 C 0.25946 0.66307 0.22311 0.0
C61 C 0.24664 0.65931 0.21266 0.0
C62 C 0.24388 0.66936 0.19967 0.0
C63 C 0.26646 0.68647 0.20767 0.0
C64 C 0.26918 0.67661 0.22038 0.0
C65 C 0.28342 0.68215 0.23024 0.0
H66 H 0.34466 0.7355 0.24268 0.0
C67 C 0.27881 0.69944 0.20815 0.0
C68 C 0.28881 0.69695 0.22132 0.0
H69 H 0.33173 0.69439 0.27087 0.0
H70 H 0.30971 0.68796 0.253 0.0
H71 H 0.30872 0.747 0.23816 0.0
H72 H 0.33942 0.71883 0.2086 0.0
H73 H 0.32908 0.7311 0.19567 0.0
H74 H 0.34219 0.74 0.21075 0.0
H75 H 0.32561 0.75541 0.22767 0.0
H76 H 0.30624 0.75307 0.21831 0.0
C77 C 0.27756 0.68616 0.24743 0.0
C78 C 0.296 0.66908 0.22934 0.0
C79 C 0.2786 0.74268 0.16634 0.0
C80 C 0.28871 0.75604 0.16358 0.0
C81 C 0.30191 0.75911 0.1738 0.0
C82 C 0.30495 0.7491 0.18661 0.0
C83 C 0.29472 0.73583 0.18925 0.0
C84 C 0.28185 0.73275 0.17915 0.0
C85 C 0.27247 0.71793 0.18362 0.0
C86 C 0.28172 0.71273 0.19817 0.0
C87 C 0.29469 0.7233 0.20143 0.0
C88 C 0.25529 0.72268 0.18807 0.0
C89 C 0.27341 0.70578 0.16948 0.0
C90 C 0.337 0.7252 0.24511 0.0
C91 C 0.33997 0.71546 0.25825 0.0
C92 C 0.32984 0.702 0.26075 0.0
C93 C 0.31699 0.69833 0.25041 0.0
C94 C 0.31417 0.70822 0.23738 0.0
C95 C 0.32411 0.72139 0.23492 0.0
C96 C 0.31931 0.73058 0.22051 0.0
C97 C 0.30483 0.72078 0.21472 0.0
C98 C 0.30188 0.70769 0.22463 0.0
C99 C 0.31481 0.74746 0.22631 0.0
C100 C 0.33318 0.73028 0.20821 0.0
H101 H 0.25093 0.69007 0.18707 0.0
H102 H 0.26204 0.65549 0.23308 0.0
H103 H 0.29606 0.66328 0.21724 0.0
H104 H 0.30835 0.6738 0.23113 0.0
H105 H 0.29341 0.65968 0.23824 0.0
H106 H 0.26553 0.69138 0.24714 0.0
H107 H 0.27664 0.67532 0.25483 0.0
H108 H 0.28524 0.69522 0.25367 0.0
H109 H 0.2685 0.73988 0.15856 0.0
H110 H 0.30978 0.7694 0.17203 0.0
H111 H 0.31514 0.75213 0.19397 0.0
H112 H 0.25548 0.73423 0.1948 0.0
H113 H 0.2479 0.72403 0.17715 0.0
H114 H 0.24916 0.71416 0.19609 0.0
H115 H 0.28511 0.70695 0.1632 0.0
H116 H 0.27267 0.69331 0.17339 0.0
H117 H 0.26389 0.70763 0.16049 0.0
H118 H 0.23398 0.66683 0.19154 0.0
C119 C 0.25369 0.6829 0.19713 0.0
C120 C 0.98179 0.42206 0.00384 0.0
C121 C 0.97291 0.41858 0.98981 0.0
C122 C 0.96017 0.42836 0.98592 0.0
C123 C 0.96537 0.44466 0.00976 0.0
C124 C 0.97785 0.43508 0.01356 0.0
C125 C 0.98613 0.44036 0.02884 0.0
H126 H 0.99253 0.49222 0.09169 0.0
C127 C 0.96446 0.45719 0.02236 0.0
C128 C 0.97662 0.45474 0.03356 0.0
H129 H 0.02113 0.45142 0.08152 0.0
H130 H 0.00572 0.44549 0.05758 0.0
H131 H 0.95922 0.47507 0.08317 0.0
H132 H 0.99123 0.50457 0.05529 0.0
H133 H 0.97172 0.51029 0.05107 0.0
H134 H 0.97928 0.51236 0.07128 0.0
H135 H 0.96109 0.4962 0.08629 0.0
H136 H 0.94731 0.48738 0.07178 0.0
C137 C 0.98412 0.42683 0.04112 0.0
C138 C 0.00371 0.44502 0.02476 0.0
C139 C 0.92163 0.49847 0.01956 0.0
C140 C 0.91788 0.51152 0.02948 0.0
C141 C 0.92731 0.51493 0.04321 0.0
C142 C 0.94017 0.50549 0.04704 0.0
C143 C 0.94372 0.49245 0.03705 0.0
C144 C 0.93454 0.48915 0.02354 0.0
C145 C 0.94015 0.47487 0.01429 0.0
C146 C 0.9541 0.47007 0.02455 0.0
C147 C 0.95611 0.48041 0.03786 0.0
C148 C 0.92642 0.46205 0.01407 0.0
C149 C 0.94563 0.48036 0.99747 0.0
C150 C 0.99557 0.4821 0.08421 0.0
C151 C 0.00808 0.47229 0.08848 0.0
C152 C 0.01145 0.45907 0.07857 0.0
C153 C 0.00254 0.45569 0.06462 0.0
C154 C 0.99005 0.4656 0.06053 0.0
C155 C 0.98672 0.47852 0.07029 0.0
C156 C 0.97283 0.48755 0.06422 0.0
C157 C 0.96844 0.47798 0.04915 0.0
C158 C 0.97859 0.46518 0.04703 0.0
C159 C 0.95938 0.48668 0.07699 0.0
C160 C 0.97892 0.50464 0.06033 0.0
H161 H 0.94658 0.44835 0.99214 0.0
H162 H 0.9915 0.41468 0.00733 0.0
H163 H 0.00451 0.45095 0.01296 0.0
H164 H 0.00917 0.4537 0.03338 0.0
H165 H 0.01117 0.43436 0.02408 0.0
H166 H 0.9724 0.42036 0.03955 0.0
H167 H 0.99361 0.41802 0.03964 0.0
H168 H 0.98407 0.43123 0.05368 0.0
H169 H 0.91476 0.49563 0.00881 0.0
H170 H 0.92457 0.52479 0.05117 0.0
H171 H 0.94681 0.50869 0.05768 0.0
H172 H 0.91997 0.46195 0.02574 0.0
H173 H 0.91758 0.46437 0.00454 0.0
H174 H 0.93067 0.44985 0.01245 0.0
H175 H 0.9512 0.49255 0.99811 0.0
H176 H 0.95495 0.47289 0.99221 0.0
H177 H 0.93538 0.48061 0.98903 0.0
H178 H 0.95325 0.42608 0.9751 0.0
C179 C 0.95637 0.44136 0.99579 0.0
C180 C 0.66393 0.79757 0.23955 0.0
C181 C 0.65344 0.78427 0.23746 0.0
C182 C 0.65582 0.7738 0.22432 0.0
C183 C 0.67871 0.78987 0.21576 0.0
C184 C 0.67642 0.80011 0.22863 0.0
C185 C 0.68874 0.81354 0.22926 0.0
H186 H 0.75368 0.85065 0.19671 0.0
C187 C 0.69276 0.79587 0.2067 0.0
C188 C 0.69869 0.80975 0.21455 0.0
H189 H 0.72896 0.86318 0.24039 0.0
H190 H 0.71024 0.84098 0.23624 0.0
H191 H 0.72181 0.84125 0.17523 0.0
H192 H 0.75399 0.81435 0.20338 0.0
H193 H 0.74893 0.80248 0.18652 0.0
H194 H 0.75928 0.82141 0.18385 0.0
H195 H 0.74202 0.83781 0.16929 0.0
H196 H 0.72593 0.82383 0.16424 0.0
C197 C 0.68001 0.82935 0.22755 0.0
C198 C 0.69843 0.81228 0.24501 0.0
C199 C 0.71144 0.7656 0.15721 0.0
C200 C 0.72425 0.76812 0.14653 0.0
C201 C 0.73429 0.7818 0.14862 0.0
C202 C 0.73175 0.79267 0.16121 0.0
C203 C 0.71906 0.78985 0.17193 0.0
C204 C 0.70911 0.77655 0.16977 0.0
C205 C 0.69631 0.77545 0.1824 0.0
C206 C 0.70034 0.79018 0.19258 0.0
C207 C 0.71367 0.79856 0.18638 0.0
C208 C 0.67988 0.77648 0.174 0.0
C209 C 0.69851 0.75995 0.19181 0.0
C210 C 0.74409 0.8487 0.20525 0.0
C211 C 0.74268 0.85868 0.21883 0.0
C212 C 0.73028 0.85558 0.22987 0.0
C213 C 0.71943 0.84271 0.22742 0.0
C214 C 0.72109 0.83272 0.21386 0.0
C215 C 0.7333 0.83578 0.20308 0.0
C216 C 0.7337 0.8235 0.18977 0.0
C217 C 0.71964 0.81264 0.19426 0.0
C218 C 0.71223 0.81815 0.20831 0.0
C219 C 0.73083 0.83193 0.17371 0.0
C220 C 0.74981 0.815 0.19074 0.0
H221 H 0.66952 0.7681 0.20379 0.0
H222 H 0.66239 0.80595 0.24941 0.0
H223 H 0.69922 0.79968 0.24868 0.0
H224 H 0.71099 0.81654 0.24377 0.0
H225 H 0.69277 0.81891 0.25503 0.0
H226 H 0.6703 0.82804 0.21846 0.0
H227 H 0.67451 0.83303 0.2391 0.0
H228 H 0.68787 0.83918 0.22329 0.0
H229 H 0.7036 0.75514 0.15605 0.0
H230 H 0.74409 0.78414 0.14043 0.0
H231 H 0.73983 0.8028 0.16215 0.0
H232 H 0.68065 0.78472 0.16372 0.0
H233 H 0.67565 0.76466 0.16926 0.0
H234 H 0.67061 0.78138 0.1819 0.0
H235 H 0.7114 0.75745 0.19313 0.0
H236 H 0.69394 0.76065 0.20421 0.0
H237 H 0.69266 0.74957 0.18551 0.0
H238 H 0.64811 0.76333 0.22253 0.0
C239 C 0.66834 0.77654 0.21348 0.0
C240 C 0.03443 0.92861 0.49711 0.0
C241 C 0.02137 0.91775 0.49538 0.0
C242 C 0.01041 0.91979 0.48279 0.0
C243 C 0.02556 0.9431 0.47402 0.0
C244 C 0.0363 0.94109 0.48633 0.0
C245 C 0.04959 0.95357 0.48643 0.0
H246 H 0.08477 0.01852 0.45301 0.0
C247 C 0.03099 0.95718 0.46491 0.0
C248 C 0.04509 0.96334 0.4721 0.0
H249 H 0.09966 0.9934 0.49499 0.0
H250 H 0.07728 0.97491 0.49188 0.0
H251 H 0.04717 0.01771 0.4622 0.0
H252 H 0.0753 0.98779 0.43164 0.0
H253 H 0.05702 0.99034 0.42187 0.0
H254 H 0.07005 0.00743 0.42604 0.0
H255 H 0.05506 0.0242 0.44331 0.0
H256 H 0.03608 0.01353 0.44465 0.0
C257 C 0.04866 0.96326 0.50239 0.0
C258 C 0.06556 0.94513 0.48375 0.0
C259 C 0.9987 0.97468 0.4172 0.0
C260 C 0.00081 0.98706 0.4062 0.0
C261 C 0.01437 0.9974 0.40774 0.0
C262 C 0.02554 0.9955 0.42002 0.0
C263 C 0.0232 0.9831 0.43093 0.0
C264 C 0.01 0.9729 0.42934 0.0
C265 C 0.00959 0.96022 0.44183 0.0
C266 C 0.02464 0.96459 0.45127 0.0
C267 C 0.03254 0.97803 0.44487 0.0
C268 C 0.99432 0.96218 0.45208 0.0
C269 C 0.01066 0.94384 0.43314 0.0
C270 C 0.08315 0.00911 0.46161 0.0
C271 C 0.09409 0.00742 0.47423 0.0
C272 C 0.0916 0.99485 0.48501 0.0
C273 C 0.0785 0.98416 0.48325 0.0
C274 C 0.0677 0.98601 0.47059 0.0
C275 C 0.07009 0.99834 0.46005 0.0
C276 C 0.05728 0.99853 0.44741 0.0
C277 C 0.04683 0.98427 0.45211 0.0
C278 C 0.05302 0.97698 0.46568 0.0
C279 C 0.04842 0.01432 0.44931 0.0
C280 C 0.06521 0.99601 0.43081 0.0
H281 H 0.00369 0.93325 0.46281 0.0
H282 H 0.04297 0.92753 0.50675 0.0
H283 H 0.06394 0.93489 0.4752 0.0
H284 H 0.07489 0.95286 0.47828 0.0
H285 H 0.07017 0.94048 0.49517 0.0
H286 H 0.03605 0.96437 0.50634 0.0
H287 H 0.05519 0.95742 0.51214 0.0
H288 H 0.05329 0.97564 0.50132 0.0
H289 H 0.98836 0.96661 0.41654 0.0
H290 H 0.01646 0.00688 0.39931 0.0
H291 H 0.03559 0.00374 0.42051 0.0
H292 H 0.99191 0.97498 0.45412 0.0
H293 H 0.98371 0.95656 0.44601 0.0
H294 H 0.99535 0.95726 0.4642 0.0
H295 H 0.01804 0.94477 0.42208 0.0
H296 H 0.01662 0.93495 0.44042 0.0
H297 H 0.99863 0.93906 0.42954 0.0
H298 H 0.00037 0.9115 0.48102 0.0
C299 C 0.01243 0.93238 0.47214 0.0
C300 C 0.23967 0.67427 0.79874 0.0
C301 C 0.23851 0.66375 0.78546 0.0
C302 C 0.22654 0.66592 0.77389 0.0
C303 C 0.21728 0.68883 0.78883 0.0
C304 C 0.22903 0.68667 0.80014 0.0
C305 C 0.22893 0.69909 0.81333 0.0
H306 H 0.19748 0.76543 0.84546 0.0
C307 C 0.20834 0.70295 0.79378 0.0
C308 C 0.21515 0.70902 0.80811 0.0
H309 H 0.23688 0.73884 0.86321 0.0
H310 H 0.23379 0.72012 0.84114 0.0
H311 H 0.17484 0.73459 0.83649 0.0
H312 H 0.2073 0.76369 0.80867 0.0
H313 H 0.19034 0.7595 0.79675 0.0
H314 H 0.1883 0.77048 0.81537 0.0
H315 H 0.17026 0.75433 0.8306 0.0
H316 H 0.16579 0.73724 0.81778 0.0
C317 C 0.22534 0.69061 0.82935 0.0
C318 C 0.24511 0.7086 0.81295 0.0
C319 C 0.16193 0.7206 0.75993 0.0
C320 C 0.15144 0.73324 0.76146 0.0
C321 C 0.15323 0.7439 0.77464 0.0
C322 C 0.16521 0.74199 0.7861 0.0
C323 C 0.17557 0.72928 0.78441 0.0
C324 C 0.17384 0.71886 0.77149 0.0
C325 C 0.18598 0.70609 0.77161 0.0
C326 C 0.1952 0.71052 0.78681 0.0
C327 C 0.18905 0.72412 0.79424 0.0
C328 C 0.17694 0.6898 0.77295 0.0
C329 C 0.1965 0.70781 0.75641 0.0
C330 C 0.20533 0.75548 0.84468 0.0
C331 C 0.21749 0.75367 0.85607 0.0
C332 C 0.22757 0.74065 0.85447 0.0
C333 C 0.22571 0.72973 0.84168 0.0
C334 C 0.21363 0.73181 0.83029 0.0
C335 C 0.20364 0.74447 0.83193 0.0
C336 C 0.19152 0.7448 0.81864 0.0
C337 C 0.19597 0.73031 0.8087 0.0
C338 C 0.20892 0.72277 0.81559 0.0
C339 C 0.17467 0.74275 0.82615 0.0
C340 C 0.19433 0.76044 0.80936 0.0
H341 H 0.20707 0.67938 0.76632 0.0
H342 H 0.24888 0.67307 0.80771 0.0
H343 H 0.2496 0.70971 0.80044 0.0
H344 H 0.24422 0.72098 0.81738 0.0
H345 H 0.25436 0.70262 0.81998 0.0
H346 H 0.21669 0.68041 0.82748 0.0
H347 H 0.23638 0.6859 0.83457 0.0
H348 H 0.21963 0.69835 0.83834 0.0
H349 H 0.16101 0.7123 0.74986 0.0
H350 H 0.14519 0.75362 0.77622 0.0
H351 H 0.1659 0.75047 0.79586 0.0
H352 H 0.16645 0.69073 0.78107 0.0
H353 H 0.17247 0.68549 0.76105 0.0
H354 H 0.18425 0.68057 0.77825 0.0
H355 H 0.19822 0.72052 0.75316 0.0
H356 H 0.20872 0.70358 0.7581 0.0
H357 H 0.19091 0.7014 0.74596 0.0
H358 H 0.22531 0.65789 0.76363 0.0
C359 C 0.21592 0.67837 0.77551 0.0
C360 C 0.91756 0.50802 0.4807 0.0
C361 C 0.91441 0.4942 0.47135 0.0
C362 C 0.9247 0.49061 0.45851 0.0
C363 C 0.9408 0.51451 0.46437 0.0
C364 C 0.93078 0.51791 0.47706 0.0
C365 C 0.93595 0.53287 0.48603 0.0
H366 H 0.98722 0.59637 0.49385 0.0
C367 C 0.9534 0.52722 0.46384 0.0
C368 C 0.95066 0.53797 0.47655 0.0
H369 H 0.94709 0.58346 0.52419 0.0
H370 H 0.94135 0.56025 0.50759 0.0
H371 H 0.97005 0.58752 0.46023 0.0
H372 H 0.00053 0.56151 0.49106 0.0
H373 H 0.00611 0.55686 0.47129 0.0
H374 H 0.00813 0.57716 0.47857 0.0
H375 H 0.99104 0.59212 0.46232 0.0
H376 H 0.98355 0.5775 0.44787 0.0
C377 C 0.92246 0.54491 0.48466 0.0
C378 C 0.94016 0.52842 0.50346 0.0
C379 C 0.99558 0.52648 0.41995 0.0
C380 C 0.00864 0.53677 0.41633 0.0
C381 C 0.01174 0.55026 0.42629 0.0
C382 C 0.00199 0.55352 0.4395 0.0
C383 C 0.98895 0.5432 0.44289 0.0
C384 C 0.98595 0.52991 0.43323 0.0
C385 C 0.9716 0.52024 0.43876 0.0
C386 C 0.96648 0.52996 0.45328 0.0
C387 C 0.97667 0.54339 0.45561 0.0
C388 C 0.95891 0.52002 0.42523 0.0
C389 C 0.97721 0.50359 0.44345 0.0
C390 C 0.97728 0.58849 0.49702 0.0
C391 C 0.96758 0.59186 0.51036 0.0
C392 C 0.95462 0.58134 0.51386 0.0
C393 C 0.95136 0.56777 0.50426 0.0
C394 C 0.96118 0.56459 0.49099 0.0
C395 C 0.97391 0.57484 0.4876 0.0
C396 C 0.98319 0.56944 0.47318 0.0
C397 C 0.97393 0.55424 0.46848 0.0
C398 C 0.96102 0.55151 0.47891 0.0
C399 C 0.98207 0.58228 0.46018 0.0
C400 C 0.00044 0.56614 0.47865 0.0
H401 H 0.94518 0.49735 0.44498 0.0
H402 H 0.91002 0.51097 0.49081 0.0
H403 H 0.94497 0.51627 0.5039 0.0
H404 H 0.9497 0.53625 0.50877 0.0
H405 H 0.92946 0.52862 0.51132 0.0
H406 H 0.91703 0.54431 0.47248 0.0
H407 H 0.91279 0.54235 0.49347 0.0
H408 H 0.92672 0.55739 0.4863 0.0
H409 H 0.99275 0.5161 0.41249 0.0
H410 H 0.02186 0.55824 0.42396 0.0
H411 H 0.00501 0.56397 0.44657 0.0
H412 H 0.95865 0.53179 0.41939 0.0
H413 H 0.9616 0.51099 0.41581 0.0
H414 H 0.94664 0.51776 0.42963 0.0
H415 H 0.98945 0.50437 0.44866 0.0
H416 H 0.96972 0.49807 0.45288 0.0
H417 H 0.97749 0.49543 0.43284 0.0
H418 H 0.92245 0.48007 0.45108 0.0
C419 C 0.93784 0.50069 0.45495 0.0
C420 C 0.79284 0.75557 0.83175 0.0
C421 C 0.78088 0.75739 0.84343 0.0
C422 C 0.77086 0.77049 0.84255 0.0
C423 C 0.78449 0.77939 0.81854 0.0
C424 C 0.79442 0.76666 0.81948 0.0
C425 C 0.80643 0.76643 0.80606 0.0
H426 H 0.83632 0.79942 0.73847 0.0
C427 C 0.7891 0.78855 0.80423 0.0
C428 C 0.80197 0.78104 0.79687 0.0
H429 H 0.85237 0.75788 0.76276 0.0
H430 H 0.83195 0.76097 0.78283 0.0
H431 H 0.83143 0.82078 0.77074 0.0
H432 H 0.7992 0.79134 0.74188 0.0
H433 H 0.78886 0.8083 0.74767 0.0
H434 H 0.80655 0.81046 0.73545 0.0
H435 H 0.8251 0.82627 0.75109 0.0
H436 H 0.81361 0.831 0.76872 0.0
C437 C 0.82336 0.76831 0.81352 0.0
C438 C 0.80347 0.75091 0.79605 0.0
C439 C 0.75831 0.83724 0.78988 0.0
C440 C 0.75944 0.84792 0.77713 0.0
C441 C 0.77133 0.84584 0.76538 0.0
C442 C 0.78192 0.83334 0.76632 0.0
C443 C 0.7806 0.82274 0.77913 0.0
C444 C 0.76892 0.8248 0.79061 0.0
C445 C 0.7691 0.81227 0.80323 0.0
C446 C 0.78285 0.80238 0.79745 0.0
C447 C 0.78956 0.80857 0.78335 0.0
C448 C 0.77279 0.82061 0.81961 0.0
C449 C 0.75292 0.80277 0.8025 0.0
C450 C 0.83554 0.79108 0.74819 0.0
C451 C 0.84598 0.77837 0.74899 0.0
C452 C 0.84435 0.76764 0.76173 0.0
C453 C 0.83254 0.76952 0.77345 0.0
C454 C 0.82219 0.78226 0.77246 0.0
C455 C 0.8238 0.79278 0.75999 0.0
C456 C 0.8117 0.80558 0.76084 0.0
C457 C 0.80262 0.80104 0.77592 0.0
C458 C 0.8088 0.78737 0.78266 0.0
C459 C 0.82081 0.82183 0.76284 0.0
C460 C 0.80102 0.80402 0.74567 0.0
H461 H 0.76458 0.79113 0.83022 0.0
H462 H 0.80065 0.74558 0.83196 0.0
H463 H 0.79047 0.74782 0.79519 0.0
H464 H 0.80751 0.75191 0.7835 0.0
H465 H 0.80937 0.74074 0.80161 0.0
H466 H 0.8233 0.77627 0.82433 0.0
H467 H 0.82779 0.75666 0.81726 0.0
H468 H 0.83216 0.77398 0.80538 0.0
H469 H 0.74916 0.83837 0.79898 0.0
H470 H 0.77255 0.854 0.75552 0.0
H471 H 0.79072 0.83242 0.75703 0.0
H472 H 0.78123 0.83098 0.81815 0.0
H473 H 0.76174 0.82505 0.82525 0.0
H474 H 0.7788 0.81286 0.82812 0.0
H475 H 0.7485 0.80155 0.78994 0.0
H476 H 0.75376 0.79044 0.80662 0.0
H477 H 0.74364 0.80883 0.80964 0.0
H478 H 0.76173 0.77235 0.85153 0.0
C479 C 0.77259 0.78146 0.8302 0.0
C480 C 0.29136 0.25506 0.33201 0.0
C481 C 0.27917 0.25628 0.34354 0.0
C482 C 0.26884 0.26914 0.34284 0.0
C483 C 0.28262 0.27901 0.31931 0.0
C484 C 0.29285 0.2665 0.32006 0.0
C485 C 0.30504 0.26688 0.3068 0.0
H486 H 0.33485 0.30209 0.2403 0.0
C487 C 0.28722 0.28864 0.30531 0.0
C488 C 0.30035 0.28161 0.29792 0.0
H489 H 0.35159 0.26034 0.26369 0.0
H490 H 0.3311 0.26268 0.28385 0.0
H491 H 0.32944 0.32244 0.27248 0.0
H492 H 0.29746 0.29297 0.2434 0.0
H493 H 0.28704 0.30988 0.24923 0.0
H494 H 0.30481 0.31215 0.23714 0.0
H495 H 0.32251 0.32844 0.25321 0.0
H496 H 0.31133 0.33227 0.27129 0.0
C497 C 0.32184 0.26896 0.31451 0.0
C498 C 0.30257 0.25156 0.29638 0.0
C499 C 0.25576 0.33724 0.29195 0.0
C500 C 0.25691 0.34829 0.27953 0.0
C501 C 0.26894 0.34667 0.26784 0.0
C502 C 0.27966 0.33427 0.26853 0.0
C503 C 0.27834 0.3233 0.28101 0.0
C504 C 0.26652 0.32489 0.29244 0.0
C505 C 0.26678 0.31203 0.3047 0.0
C506 C 0.28075 0.30251 0.29881 0.0
C507 C 0.28748 0.30917 0.28495 0.0
C508 C 0.27016 0.31997 0.32134 0.0
C509 C 0.25075 0.3023 0.30356 0.0
C510 C 0.33401 0.29337 0.24969 0.0
C511 C 0.34484 0.281 0.25039 0.0
C512 C 0.3435 0.27007 0.26297 0.0
C513 C 0.33153 0.2714 0.27463 0.0
C514 C 0.32077 0.28382 0.27374 0.0
C515 C 0.32216 0.29457 0.26145 0.0
C516 C 0.30982 0.3071 0.26252 0.0
C517 C 0.30076 0.30208 0.27745 0.0
C518 C 0.3072 0.28841 0.28394 0.0
C519 C 0.31861 0.32349 0.26489 0.0
C520 C 0.29923 0.30563 0.24728 0.0
H521 H 0.26224 0.28995 0.33097 0.0
H522 H 0.29941 0.24526 0.3321 0.0
H523 H 0.28963 0.24829 0.29514 0.0
H524 H 0.30691 0.25291 0.28397 0.0
H525 H 0.30849 0.24136 0.30185 0.0
H526 H 0.32145 0.27654 0.32558 0.0
H527 H 0.32656 0.25731 0.3179 0.0
H528 H 0.33058 0.27515 0.30668 0.0
H529 H 0.24652 0.33802 0.301 0.0
H530 H 0.27019 0.35513 0.25825 0.0
H531 H 0.28856 0.33372 0.25931 0.0
H532 H 0.27862 0.33038 0.32025 0.0
H533 H 0.259 0.32427 0.32688 0.0
H534 H 0.276 0.31203 0.32976 0.0
H535 H 0.24641 0.30145 0.29095 0.0
H536 H 0.25179 0.28983 0.30723 0.0
H537 H 0.24133 0.30794 0.31087 0.0
H538 H 0.25952 0.27053 0.35172 0.0
C539 C 0.27049 0.28048 0.33082 0.0
C540 C 0.48035 0.9225 0.50224 0.0
C541 C 0.47168 0.91986 0.48795 0.0
C542 C 0.45959 0.93037 0.48399 0.0
C543 C 0.46482 0.94566 0.50847 0.0
C544 C 0.47679 0.93546 0.51223 0.0
C545 C 0.48508 0.94012 0.52769 0.0
H546 H 0.49235 0.99031 0.59182 0.0
C547 C 0.46413 0.95788 0.5214 0.0
C548 C 0.47604 0.95475 0.53265 0.0
H549 H 0.52001 0.94904 0.58072 0.0
H550 H 0.50484 0.94428 0.55646 0.0
H551 H 0.4585 0.97376 0.58255 0.0
H552 H 0.49145 0.00369 0.55619 0.0
H553 H 0.47212 0.00988 0.55189 0.0
H554 H 0.47939 0.01118 0.57225 0.0
H555 H 0.4609 0.99472 0.5866 0.0
H556 H 0.44706 0.98689 0.57163 0.0
C557 C 0.48243 0.92638 0.53963 0.0
C558 C 0.50285 0.94423 0.52389 0.0
C559 C 0.42204 -7e-05 0.51968 0.0
C560 C 0.41836 0.01268 0.53002 0.0
C561 C 0.42776 0.01557 0.54387 0.0
C562 C 0.4405 0.00585 0.54743 0.0
C563 C 0.44393 0.99307 0.53706 0.0
C564 C 0.43481 0.99033 0.52341 0.0
C565 C 0.44027 0.97627 0.51372 0.0
C566 C 0.45404 0.97092 0.5239 0.0
C567 C 0.45611 0.98079 0.53755 0.0
C568 C 0.42636 0.96367 0.51299 0.0
C569 C 0.44598 0.98224 0.49712 0.0
C570 C 0.49506 0.98017 0.58424 0.0
C571 C 0.50745 0.97007 0.58822 0.0
C572 C 0.5107 0.95714 0.57785 0.0
C573 C 0.5018 0.95434 0.5638 0.0
C574 C 0.48946 0.96453 0.56001 0.0
C575 C 0.48626 0.97718 0.57018 0.0
C576 C 0.47263 0.98669 0.56429 0.0
C577 C 0.46824 0.97772 0.54887 0.0
C578 C 0.47813 0.96476 0.54643 0.0
C579 C 0.45903 0.98564 0.57689 0.0
C580 C 0.47908 0.00382 0.56106 0.0
H581 H 0.44671 0.95073 0.49054 0.0
H582 H 0.48987 0.91478 0.50549 0.0
H583 H 0.50408 0.9499 0.51199 0.0
H584 H 0.50833 0.95299 0.53244 0.0
H585 H 0.51004 0.93338 0.52362 0.0
H586 H 0.47027 0.92079 0.5382 0.0
H587 H 0.49121 0.91695 0.5376 0.0
H588 H 0.48304 0.9304 0.5523 0.0
H589 H 0.41521 0.99752 0.50882 0.0
H590 H 0.42509 0.0252 0.55213 0.0
H591 H 0.44712 0.00863 0.55819 0.0
H592 H 0.42004 0.96306 0.52471 0.0
H593 H 0.41746 0.96665 0.50373 0.0
H594 H 0.43037 0.9515 0.51061 0.0
H595 H 0.45126 0.99454 0.49809 0.0
H596 H 0.45561 0.9751 0.49195 0.0
H597 H 0.43591 0.9824 0.48847 0.0
H598 H 0.45268 0.9285 0.4731 0.0
C599 C 0.4561 0.94322 0.49418 0.0
C600 C 0.16399 0.30161 0.74054 0.0
C601 C 0.15237 0.28938 0.73786 0.0
C602 C 0.15389 0.27924 0.72432 0.0
C603 C 0.17837 0.29334 0.71668 0.0
C604 C 0.17678 0.30339 0.72984 0.0
C605 C 0.19007 0.31582 0.73097 0.0
H606 H 0.25865 0.34792 0.70086 0.0
C607 C 0.1931 0.2983 0.70809 0.0
C608 C 0.19997 0.31151 0.71638 0.0
H609 H 0.2327 0.3631 0.74298 0.0
H610 H 0.21279 0.34216 0.73828 0.0
H611 H 0.22803 0.34144 0.67837 0.0
H612 H 0.25542 0.31098 0.70781 0.0
H613 H 0.25041 0.29995 0.69037 0.0
H614 H 0.26258 0.31797 0.68884 0.0
H615 H 0.24776 0.33552 0.67308 0.0
H616 H 0.23027 0.32358 0.66749 0.0
C617 C 0.18269 0.33237 0.72945 0.0
C618 C 0.19926 0.31345 0.74683 0.0
C619 C 0.21077 0.26723 0.65863 0.0
C620 C 0.22411 0.26885 0.64844 0.0
C621 C 0.23535 0.28143 0.65136 0.0
C622 C 0.23341 0.29216 0.66418 0.0
C623 C 0.2201 0.29033 0.67431 0.0
C624 C 0.20904 0.27805 0.67145 0.0
C625 C 0.1957 0.27794 0.68355 0.0
C626 C 0.20066 0.29211 0.69418 0.0
C627 C 0.21496 0.2993 0.68868 0.0
C628 C 0.17984 0.28065 0.67459 0.0
C629 C 0.19603 0.26209 0.69269 0.0
C630 C 0.24875 0.34666 0.70916 0.0
C631 C 0.24728 0.35721 0.72231 0.0
C632 C 0.23404 0.35527 0.73265 0.0
C633 C 0.22252 0.34304 0.72994 0.0
C634 C 0.22421 0.33258 0.71675 0.0
C635 C 0.23716 0.33451 0.70663 0.0
C636 C 0.23705 0.32227 0.69326 0.0
C637 C 0.22186 0.31271 0.69699 0.0
C638 C 0.2144 0.31879 0.71076 0.0
C639 C 0.23583 0.33104 0.67714 0.0
C640 C 0.25215 0.31227 0.69498 0.0
H641 H 0.16727 0.27304 0.70369 0.0
H642 H 0.16333 0.30952 0.7509 0.0
H643 H 0.19998 0.30059 0.7495 0.0
H644 H 0.21181 0.31789 0.74636 0.0
H645 H 0.19321 0.31928 0.75711 0.0
H646 H 0.17232 0.33181 0.72108 0.0
H647 H 0.17837 0.33682 0.74124 0.0
H648 H 0.19104 0.34134 0.72431 0.0
H649 H 0.20182 0.25782 0.65665 0.0
H650 H 0.24587 0.28282 0.64388 0.0
H651 H 0.24244 0.3014 0.66576 0.0
H652 H 0.18182 0.2888 0.66436 0.0
H653 H 0.17458 0.26928 0.66968 0.0
H654 H 0.17089 0.28651 0.68219 0.0
H655 H 0.20855 0.25866 0.69488 0.0
H656 H 0.19056 0.26282 0.70471 0.0
H657 H 0.18998 0.25227 0.68569 0.0
H658 H 0.145 0.26989 0.72179 0.0
C659 C 0.1668 0.28115 0.71375 0.0
C660 C 0.75592 0.16295 0.72505 0.0
C661 C 0.74193 0.1603 0.7159 0.0
C662 C 0.73875 0.17069 0.70329 0.0
C663 C 0.76309 0.18607 0.70926 0.0
C664 C 0.76626 0.17583 0.72154 0.0
C665 C 0.78152 0.1804 0.73023 0.0
H666 H 0.8445 0.23201 0.7406 0.0
C667 C 0.7761 0.19838 0.70893 0.0
C668 C 0.78694 0.19511 0.72118 0.0
H669 H 0.83342 0.18907 0.76673 0.0
H670 H 0.81013 0.18393 0.75026 0.0
H671 H 0.80873 0.24394 0.73797 0.0
H672 H 0.83756 0.21627 0.70597 0.0
H673 H 0.82653 0.22884 0.69397 0.0
H674 H 0.84058 0.23738 0.7084 0.0
H675 H 0.82554 0.25228 0.72729 0.0
H676 H 0.80588 0.25091 0.71847 0.0
C677 C 0.77732 0.18436 0.74793 0.0
C678 C 0.79325 0.16667 0.728 0.0
C679 C 0.77476 0.2424 0.66809 0.0
C680 C 0.78507 0.25551 0.66491 0.0
C681 C 0.79892 0.25802 0.67437 0.0
C682 C 0.80242 0.24769 0.68678 0.0
C683 C 0.79199 0.23465 0.68981 0.0
C684 C 0.77845 0.23217 0.6805 0.0
C685 C 0.7688 0.21765 0.68537 0.0
C686 C 0.7788 0.21181 0.69911 0.0
C687 C 0.79233 0.22185 0.70168 0.0
C688 C 0.75221 0.22305 0.69111 0.0
C689 C 0.76828 0.2057 0.671 0.0
C690 C 0.83719 0.2214 0.74269 0.0
C691 C 0.84082 0.21101 0.75512 0.0
C692 C 0.83078 0.19745 0.75747 0.0
C693 C 0.81729 0.19442 0.74781 0.0
C694 C 0.81374 0.20502 0.73559 0.0
C695 C 0.82372 0.21815 0.73309 0.0
C696 C 0.81827 0.22793 0.71934 0.0
C697 C 0.80327 0.21861 0.71412 0.0
C698 C 0.80063 0.20526 0.72374 0.0
C699 C 0.81447 0.24471 0.72596 0.0
C700 C 0.83138 0.22777 0.70621 0.0
H701 H 0.74613 0.19096 0.69017 0.0
H702 H 0.75865 0.15531 0.73493 0.0
H703 H 0.79155 0.16064 0.71611 0.0
H704 H 0.8059 0.17084 0.72811 0.0
H705 H 0.79138 0.15755 0.73734 0.0
H706 H 0.76591 0.19075 0.74869 0.0
H707 H 0.77586 0.17336 0.75502 0.0
H708 H 0.78624 0.19241 0.75388 0.0
H709 H 0.76414 0.24 0.66092 0.0
H710 H 0.80696 0.26813 0.6723 0.0
H711 H 0.8131 0.2503 0.69357 0.0
H712 H 0.75323 0.23478 0.69747 0.0
H713 H 0.74395 0.22429 0.68082 0.0
H714 H 0.74658 0.21497 0.6999 0.0
H715 H 0.77977 0.20612 0.6643 0.0
H716 H 0.76671 0.19321 0.67471 0.0
H717 H 0.75863 0.20846 0.66245 0.0
H718 H 0.72819 0.1688 0.69591 0.0
C719 C 0.74924 0.18352 0.69992 0.0
C720 C 0.5334 0.58696 0.50142 0.0
C721 C 0.52093 0.59762 0.50346 0.0
C722 C 0.51037 0.5956 0.51651 0.0
C723 C 0.52465 0.57267 0.52507 0.0
C724 C 0.53503 0.57465 0.51232 0.0
C725 C 0.54767 0.56237 0.51194 0.0
H726 H 0.58 0.49788 0.54479 0.0
C727 C 0.52961 0.55873 0.53412 0.0
C728 C 0.5431 0.55264 0.52649 0.0
H729 H 0.59653 0.52403 0.50343 0.0
H730 H 0.57462 0.5417 0.5063 0.0
H731 H 0.5726 0.52881 0.56635 0.0
H732 H 0.5429 0.49792 0.53635 0.0
H733 H 0.53164 0.50256 0.55347 0.0
H734 H 0.5499 0.49201 0.55561 0.0
H735 H 0.56693 0.50888 0.57182 0.0
H736 H 0.55452 0.5254 0.57659 0.0
C737 C 0.56417 0.57108 0.51405 0.0
C738 C 0.54577 0.55253 0.49612 0.0
C739 C 0.49875 0.54197 0.58385 0.0
C740 C 0.50045 0.52953 0.5947 0.0
C741 C 0.5127 0.51868 0.59211 0.0
C742 C 0.52318 0.5203 0.57909 0.0
C743 C 0.52143 0.5329 0.56848 0.0
C744 C 0.50929 0.5434 0.57089 0.0
C745 C 0.50915 0.55597 0.5583 0.0
C746 C 0.52328 0.55136 0.54803 0.0
C747 C 0.53045 0.53787 0.55409 0.0
C748 C 0.51202 0.5724 0.56672 0.0
C749 C 0.49315 0.55411 0.549 0.0
C750 C 0.579 0.50749 0.53642 0.0
C751 C 0.59006 0.50952 0.52386 0.0
C752 C 0.58809 0.52204 0.51309 0.0
C753 C 0.57541 0.53238 0.51485 0.0
C754 C 0.56454 0.53025 0.52753 0.0
C755 C 0.56645 0.51796 0.53805 0.0
C756 C 0.55386 0.51758 0.55091 0.0
C757 C 0.54412 0.53172 0.54641 0.0
C758 C 0.55041 0.53907 0.5327 0.0
C759 C 0.56229 0.52018 0.56734 0.0
C760 C 0.54406 0.50168 0.54918 0.0
H761 H 0.50376 0.58237 0.53697 0.0
H762 H 0.54163 0.58805 0.49146 0.0
H763 H 0.53293 0.5505 0.49305 0.0
H764 H 0.55059 0.54053 0.49689 0.0
H765 H 0.55159 0.55882 0.48596 0.0
H766 H 0.56328 0.58172 0.52208 0.0
H767 H 0.56897 0.57517 0.50236 0.0
H768 H 0.57308 0.56371 0.51988 0.0
H769 H 0.48958 0.55062 0.58554 0.0
H770 H 0.51414 0.50883 0.6001 0.0
H771 H 0.53225 0.51167 0.57782 0.0
H772 H 0.52054 0.57155 0.57689 0.0
H773 H 0.50071 0.577 0.57162 0.0
H774 H 0.51756 0.58137 0.55878 0.0
H775 H 0.48924 0.54137 0.54783 0.0
H776 H 0.49404 0.55826 0.53654 0.0
H777 H 0.4835 0.56048 0.55528 0.0
H778 H 0.50083 0.60376 0.51854 0.0
C779 C 0.51215 0.58321 0.52728 0.0
C780 C 0.53376 0.42822 -7e-05 0.0
C781 C 0.51998 0.4182 0.99906 0.0
C782 C 0.5086 0.42074 0.98698 0.0
C783 C 0.52466 0.44303 0.97716 0.0
C784 C 0.53581 0.44049 0.98896 0.0
C785 C 0.54968 0.45228 0.98847 0.0
H786 H 0.58529 0.51721 0.95562 0.0
C787 C 0.53039 0.45686 0.96781 0.0
C788 C 0.54503 0.46232 0.9744 0.0
H789 H 0.60166 0.48955 0.99526 0.0
H790 H 0.57868 0.47181 0.99251 0.0
H791 H 0.54806 0.5165 0.9655 0.0
H792 H 0.5749 0.48697 0.93334 0.0
H793 H 0.55628 0.48966 0.92431 0.0
H794 H 0.56949 0.50669 0.92821 0.0
H795 H 0.55599 0.52345 0.94679 0.0
H796 H 0.53675 0.51329 0.94789 0.0
C797 C 0.54994 0.46195 0.00449 0.0
C798 C 0.56505 0.44305 0.985 0.0
C799 C 0.49738 0.47581 0.92124 0.0
C800 C 0.49966 0.48814 0.91023 0.0
C801 C 0.51356 0.49803 0.91142 0.0
C802 C 0.52495 0.49573 0.9234 0.0
C803 C 0.52248 0.48336 0.93432 0.0
C804 C 0.50889 0.47362 0.93309 0.0
C805 C 0.50836 0.46093 0.94555 0.0
C806 C 0.52385 0.46466 0.95449 0.0
C807 C 0.53204 0.47785 0.94791 0.0
C808 C 0.49353 0.46349 0.9563 0.0
C809 C 0.50849 0.44452 0.93682 0.0
C810 C 0.58398 0.50726 0.96362 0.0
C811 C 0.59527 0.50491 0.97579 0.0
C812 C 0.59302 0.49185 0.986 0.0
C813 C 0.57968 0.48148 0.98432 0.0
C814 C 0.56839 0.48412 0.97229 0.0
C815 C 0.57069 0.49675 0.9621 0.0
C816 C 0.55748 0.49756 0.94992 0.0
C817 C 0.54681 0.48346 0.95465 0.0
C818 C 0.55327 0.47568 0.96778 0.0
C819 C 0.54911 0.51355 0.95248 0.0
C820 C 0.56481 0.49523 0.93301 0.0
H821 H 0.50174 0.43442 0.96719 0.0
H822 H 0.54287 0.42648 0.00889 0.0
H823 H 0.56247 0.43261 0.97691 0.0
H824 H 0.57426 0.45021 0.97863 0.0
H825 H 0.57025 0.43857 0.99624 0.0
H826 H 0.53759 0.46388 0.00889 0.0
H827 H 0.55636 0.45562 0.01398 0.0
H828 H 0.55533 0.47403 0.00335 0.0
H829 H 0.48695 0.46785 0.92051 0.0
H830 H 0.51553 0.5077 0.90317 0.0
H831 H 0.53522 0.50369 0.92371 0.0
H832 H 0.4914 0.47638 0.95806 0.0
H833 H 0.4826 0.45788 0.9508 0.0
H834 H 0.49495 0.45894 0.96854 0.0
H835 H 0.51617 0.44504 0.92594 0.0
H836 H 0.51359 0.43517 0.94419 0.0
H837 H 0.49627 0.44059 0.93293 0.0
H838 H 0.49779 0.41333 0.98613 0.0
C839 C 0.51087 0.43308 0.97604 0.0
C840 C 0.74 0.1753 0.29825 0.0
C841 C 0.73822 0.16394 0.28573 0.0
C842 C 0.72535 0.16506 0.27495 0.0
C843 C 0.71656 0.18867 0.28902 0.0
C844 C 0.72909 0.18748 0.29966 0.0
C845 C 0.72937 0.20055 0.31221 0.0
H846 H 0.69727 0.26713 0.34322 0.0
C847 C 0.70758 0.20284 0.29368 0.0
C848 C 0.71502 0.20984 0.30728 0.0
H849 H 0.73849 0.24268 0.36 0.0
H850 H 0.73508 0.22307 0.33874 0.0
H851 H 0.67514 0.2351 0.3357 0.0
H852 H 0.7058 0.26466 0.30642 0.0
H853 H 0.68912 0.25902 0.29466 0.0
H854 H 0.68642 0.27073 0.31275 0.0
H855 H 0.67028 0.2549 0.33027 0.0
H856 H 0.66521 0.23799 0.31746 0.0
C857 C 0.72695 0.19285 0.32882 0.0
C858 C 0.74524 0.21041 0.31044 0.0
C859 C 0.65966 0.21816 0.26073 0.0
C860 C 0.64928 0.23092 0.26178 0.0
C861 C 0.65141 0.24229 0.27429 0.0
C862 C 0.66367 0.24097 0.28558 0.0
C863 C 0.67399 0.22818 0.28434 0.0
C864 C 0.67189 0.21706 0.27205 0.0
C865 C 0.68417 0.20444 0.2724 0.0
C866 C 0.69396 0.2098 0.28695 0.0
C867 C 0.68792 0.22368 0.29392 0.0
C868 C 0.67537 0.1882 0.27502 0.0
C869 C 0.69403 0.20539 0.25669 0.0
C870 C 0.70545 0.25745 0.34238 0.0
C871 C 0.71817 0.25645 0.35329 0.0
C872 C 0.72871 0.24381 0.35164 0.0
C873 C 0.72666 0.23239 0.33932 0.0
C874 C 0.71396 0.23361 0.32844 0.0
C875 C 0.70361 0.24598 0.33008 0.0
C876 C 0.69097 0.24548 0.31725 0.0
C877 C 0.69538 0.23072 0.30773 0.0
C878 C 0.70884 0.22382 0.31436 0.0
C879 C 0.67447 0.24337 0.32548 0.0
C880 C 0.693 0.26077 0.30724 0.0
H881 H 0.70506 0.17758 0.26788 0.0
H882 H 0.74962 0.17467 0.30688 0.0
H883 H 0.74885 0.21115 0.29763 0.0
H884 H 0.7443 0.2229 0.31452 0.0
H885 H 0.7551 0.20492 0.31705 0.0
H886 H 0.7186 0.1823 0.32794 0.0
H887 H 0.73844 0.18882 0.33371 0.0
H888 H 0.72141 0.20085 0.3377 0.0
H889 H 0.65848 0.20935 0.25113 0.0
H890 H 0.64347 0.25214 0.27544 0.0
H891 H 0.66464 0.24998 0.29483 0.0
H892 H 0.665 0.18954 0.28322 0.0
H893 H 0.67077 0.183 0.26351 0.0
H894 H 0.68292 0.17949 0.28088 0.0
H895 H 0.69562 0.21792 0.25279 0.0
H896 H 0.7063 0.2012 0.25805 0.0
H897 H 0.68798 0.19853 0.24679 0.0
H898 H 0.72379 0.15658 0.2651 0.0
C899 C 0.71453 0.17734 0.27653 0.0
C900 C 0.41814 0.00903 0.98383 0.0
C901 C 0.41437 0.99497 0.97505 0.0
C902 C 0.42411 0.99082 0.96192 0.0
C903 C 0.44094 0.01449 0.96658 0.0
C904 C 0.43139 0.01852 0.97943 0.0
C905 C 0.43697 0.03377 0.98761 0.0
H906 H 0.48971 0.09633 0.99207 0.0
C907 C 0.4537 0.02698 0.96519 0.0
C908 C 0.4514 0.03831 0.9775 0.0
H909 H 0.44983 0.08561 0.0235 0.0
H910 H 0.44305 0.06209 0.00771 0.0
H911 H 0.47184 0.08765 0.9595 0.0
H912 H 0.50176 0.06045 0.98976 0.0
H913 H 0.50727 0.05631 0.96984 0.0
H914 H 0.50941 0.07639 0.97765 0.0
H915 H 0.49316 0.09059 0.9599 0.0
H916 H 0.48348 0.07602 0.94665 0.0
C917 C 0.42357 0.04592 0.98617 0.0
C918 C 0.44168 0.02998 0.00509 0.0
C919 C 0.49572 0.02313 0.9213 0.0
C920 C 0.50882 0.0331 0.91699 0.0
C921 C 0.51175 0.04738 0.9258 0.0
C922 C 0.50201 0.05156 0.93874 0.0
C923 C 0.48911 0.04141 0.94298 0.0
C924 C 0.48605 0.02753 0.93425 0.0
C925 C 0.47159 0.0184 0.94036 0.0
C926 C 0.46661 0.02903 0.95428 0.0
C927 C 0.47697 0.04245 0.95577 0.0
C928 C 0.45888 0.01749 0.92685 0.0
C929 C 0.47699 0.00202 0.9461 0.0
C930 C 0.4796 0.08885 0.99565 0.0
C931 C 0.4703 0.09288 0.00909 0.0
C932 C 0.45707 0.08292 0.01311 0.0
C933 C 0.45322 0.06918 0.00398 0.0
C934 C 0.4627 0.06526 0.99067 0.0
C935 C 0.47562 0.07505 0.9867 0.0
C936 C 0.48442 0.06896 0.97224 0.0
C937 C 0.47468 0.05386 0.96824 0.0
C938 C 0.46198 0.05178 0.97904 0.0
C939 C 0.48334 0.08142 0.95884 0.0
C940 C 0.50167 0.0654 0.97748 0.0
H941 H 0.44433 0.99665 0.94759 0.0
H942 H 0.4108 0.01272 0.99384 0.0
H943 H 0.44669 0.01793 0.00579 0.0
H944 H 0.45121 0.0381 0.00993 0.0
H945 H 0.43116 0.03028 0.01319 0.0
H946 H 0.4175 0.04465 0.97432 0.0
H947 H 0.41435 0.04409 0.9956 0.0
H948 H 0.42808 0.05839 0.98677 0.0
H949 H 0.49315 0.01204 0.91488 0.0
H950 H 0.52151 0.05547 0.92258 0.0
H951 H 0.50492 0.06257 0.94492 0.0
H952 H 0.45915 0.02862 0.91984 0.0
H953 H 0.46105 0.00746 0.91836 0.0
H954 H 0.44654 0.01633 0.93144 0.0
H955 H 0.48887 0.00318 0.95206 0.0
H956 H 0.46895 0.99674 0.95518 0.0
H957 H 0.47803 0.9935 0.93585 0.0
H958 H 0.4216 0.97997 0.95505 0.0
C959 C 0.43736 0.00048 0.95765 0.0
C960 C 0.22085 0.90554 0.00625 0.0
O961 O 0.22674 0.90284 0.99189 0.0
O962 O 0.23914 0.86932 0.99549 0.0
Zn963 Zn 0.24484 0.88393 0.01417 0.0
O964 O 0.26467 0.89694 0.00875 0.0
C965 C 0.26173 0.8637 0.03521 0.0
O966 O 0.27291 0.86571 0.02432 0.0
O967 O 0.22677 0.89863 0.01818 0.0
C968 C 0.27285 0.90457 0.01936 0.0
O969 O 0.26821 0.90412 0.03441 0.0
C970 C 0.24995 0.86406 0.98632 0.0
O971 O 0.26495 0.86827 0.98917 0.0
O972 O 0.24857 0.87059 0.03357 0.0
C973 C 0.14802 0.47621 0.26939 0.0
O974 O 0.14578 0.48603 0.28156 0.0
O975 O 0.11279 0.49935 0.27344 0.0
Zn976 Zn 0.1266 0.49697 0.25376 0.0
O977 O 0.14037 0.51675 0.25067 0.0
C978 C 0.10178 0.50254 0.23082 0.0
O979 O 0.09941 0.51491 0.24025 0.0
O980 O 0.14089 0.47848 0.25622 0.0
C981 C 0.14656 0.51956 0.23706 0.0
O982 O 0.14387 0.5094 0.22514 0.0
C983 C 0.10938 0.51302 0.27893 0.0
O984 O 0.11502 0.52573 0.27165 0.0
O985 O 0.11272 0.49309 0.23428 0.0
C986 C 0.7835 0.60707 0.99442 0.0
O987 O 0.77633 0.60565 0.98043 0.0
O988 O 0.7643 0.64272 0.97988 0.0
Zn989 Zn 0.75927 0.62961 0.99924 0.0
O990 O 0.74053 0.6148 0.99423 0.0
C991 C 0.76089 0.65769 0.01935 0.0
O992 O 0.77201 0.66186 0.00899 0.0
O993 O 0.77827 0.61685 0.00479 0.0
C994 C 0.73298 0.60786 0.00546 0.0
O995 O 0.73764 0.61043 0.02036 0.0
C996 C 0.75305 0.64949 0.97276 0.0
O997 O 0.73838 0.64755 0.97816 0.0
O998 O 0.75377 0.64417 0.01772 0.0
C999 C 0.84751 0.03687 0.26672 0.0
O1000 O 0.8456 0.02412 0.27547 0.0
O1001 O 0.88498 0.01505 0.27236 0.0
Zn1002 Zn 0.87124 0.01771 0.25269 0.0
O1003 O 0.85592 0.99901 0.24889 0.0
C1004 C 0.8989 0.01415 0.23258 0.0
O1005 O 0.90374 0.0059 0.24477 0.0
O1006 O 0.85821 0.03711 0.25591 0.0
C1007 C 0.86028 0.98527 0.24455 0.0
O1008 O 0.87556 0.98273 0.24267 0.0
C1009 C 0.88423 0.00306 0.28141 0.0
O1010 O 0.8737 0.99149 0.27834 0.0
O1011 O 0.88533 0.02045 0.23327 0.0
C1012 C 0.28392 0.10838 0.4957 0.0
O1013 O 0.27704 0.10723 0.48154 0.0
O1014 O 0.26355 0.1428 0.48111 0.0
Zn1015 Zn 0.25902 0.13024 0.50101 0.0
O1016 O 0.24021 0.11508 0.49696 0.0
C1017 C 0.25915 0.15966 0.51952 0.0
O1018 O 0.26764 0.16493 0.50736 0.0
O1019 O 0.27826 0.11768 0.50627 0.0
C1020 C 0.2264 0.1177 0.50255 0.0
O1021 O 0.22426 0.13063 0.51125 0.0
C1022 C 0.25229 0.14924 0.47367 0.0
O1023 O 0.2376 0.14739 0.479 0.0
O1024 O 0.25432 0.14517 0.5195 0.0
C1025 C 0.35095 0.53904 0.76995 0.0
O1026 O 0.35207 0.52849 0.78129 0.0
O1027 O 0.38677 0.51643 0.77411 0.0
Zn1028 Zn 0.37274 0.51833 0.75456 0.0
O1029 O 0.35801 0.49909 0.75176 0.0
C1030 C 0.40077 0.51623 0.7346 0.0
O1031 O 0.40668 0.50992 0.74751 0.0
O1032 O 0.35906 0.53736 0.75719 0.0
C1033 C 0.36279 0.48565 0.74697 0.0
O1034 O 0.37802 0.48401 0.74382 0.0
C1035 C 0.38453 0.50578 0.78456 0.0
O1036 O 0.37236 0.49561 0.78298 0.0
O1037 O 0.38645 0.52077 0.73479 0.0
C1038 C 0.72129 0.40465 0.50582 0.0
O1039 O 0.72737 0.40219 0.49149 0.0
O1040 O 0.74075 0.36966 0.49442 0.0
Zn1041 Zn 0.74581 0.38361 0.51392 0.0
O1042 O 0.76556 0.39752 0.51022 0.0
C1043 C 0.75379 0.35579 0.53157 0.0
O1044 O 0.75687 0.35026 0.51711 0.0
O1045 O 0.7273 0.39782 0.51776 0.0
C1046 C 0.77961 0.39274 0.51245 0.0
O1047 O 0.78153 0.37819 0.51738 0.0
C1048 C 0.75065 0.36728 0.48315 0.0
O1049 O 0.76494 0.37416 0.48392 0.0
O1050 O 0.74889 0.36987 0.53322 0.0
C1051 C 0.64818 0.97393 0.7689 0.0
O1052 O 0.64678 0.98397 0.78103 0.0
O1053 O 0.61194 0.99706 0.77321 0.0
Zn1054 Zn 0.62623 0.99482 0.75386 0.0
O1055 O 0.64029 0.01444 0.75122 0.0
C1056 C 0.59826 0.99534 0.73344 0.0
O1057 O 0.59169 0.00162 0.74627 0.0
O1058 O 0.64032 0.97608 0.75613 0.0
C1059 C 0.63449 0.02788 0.74847 0.0
O1060 O 0.61891 0.02903 0.74762 0.0
C1061 C 0.61565 0.00594 0.78523 0.0
O1062 O 0.62943 0.01387 0.78533 0.0
O1063 O 0.6128 0.99151 0.73394 0.0
C1064 C 0.99791 0.23044 0.89852 0.0
O1065 O 0.98392 0.23706 0.8984 0.0
O1066 O 0.98457 0.24637 0.86081 0.0
Zn1067 Zn 0.00388 0.25309 0.87401 0.0
O1068 O 0.99927 0.2729 0.88683 0.0
C1069 C 0.02257 0.26806 0.84915 0.0
O1070 O 0.0101 0.27707 0.84842 0.0
O1071 O 0.00873 0.23547 0.88902 0.0
C1072 C 0.01044 0.28148 0.89314 0.0
O1073 O 0.0253 0.2773 0.89124 0.0
C1074 C 0.97483 0.25641 0.85577 0.0
O1075 O 0.97735 0.27157 0.85929 0.0
O1076 O 0.02268 0.25703 0.85935 0.0
C1077 C 0.49811 0.72728 0.39673 0.0
O1078 O 0.48358 0.73232 0.39472 0.0
O1079 O 0.48506 0.74721 0.36265 0.0
Zn1080 Zn 0.505 0.75274 0.37548 0.0
O1081 O 0.50142 0.77199 0.38961 0.0
C1082 C 0.52331 0.75215 0.34608 0.0
O1083 O 0.51068 0.74403 0.34072 0.0
O1084 O 0.50966 0.73428 0.38955 0.0
C1085 C 0.50498 0.78602 0.3851 0.0
O1086 O 0.51123 0.78811 0.37081 0.0
C1087 C 0.47654 0.7577 0.35644 0.0
O1088 O 0.48071 0.77279 0.35841 0.0
O1089 O 0.52362 0.75701 0.36062 0.0
C1090 C 0.99731 0.78697 0.60236 0.0
O1091 O 0.98267 0.78143 0.60475 0.0
O1092 O 0.98542 0.76425 0.63676 0.0
Zn1093 Zn 0.00484 0.76105 0.62284 0.0
O1094 O 0.00178 0.74157 0.60859 0.0
C1095 C 0.02196 0.75191 0.65085 0.0
O1096 O 0.00753 0.74728 0.65531 0.0
O1097 O 0.00886 0.78019 0.60899 0.0
C1098 C 0.99678 0.72831 0.61408 0.0
O1099 O 0.99344 0.72727 0.62943 0.0
C1100 C 0.97133 0.75937 0.63308 0.0
O1101 O 0.96878 0.75207 0.61921 0.0
O1102 O 0.02388 0.75825 0.63723 0.0
C1103 C 0.50159 0.29273 0.113 0.0
O1104 O 0.49521 0.29546 0.12713 0.0
O1105 O 0.48457 0.26368 0.13922 0.0
Zn1106 Zn 0.503 0.26037 0.12426 0.0
O1107 O 0.49846 0.24051 0.11108 0.0
C1108 C 0.52396 0.24547 0.14578 0.0
O1109 O 0.51258 0.23435 0.14479 0.0
O1110 O 0.50591 0.27879 0.10937 0.0
C1111 C 0.50954 0.23337 0.1038 0.0
O1112 O 0.5243 0.23907 0.10501 0.0
C1113 C 0.4704 0.26524 0.13419 0.0
O1114 O 0.46765 0.26493 0.11867 0.0
O1115 O 0.5227 0.258 0.13767 0.0
H1116 H 0.24571 0.76654 0.86751 0.0
H1117 H 0.2497 0.78568 0.88969 0.0
H1118 H 0.19874 0.78695 0.89664 0.0
H1119 H 0.19464 0.76746 0.87471 0.0
H1120 H 0.23752 0.81674 0.89249 0.0
H1121 H 0.21629 0.77757 0.94168 0.0
H1122 H 0.22157 0.7699 0.92209 0.0
H1123 H 0.2028 0.77922 0.92507 0.0
C1124 C 0.23536 0.77073 0.87389 0.0
C1125 C 0.21986 0.7654 0.86944 0.0
C1126 C 0.23765 0.78175 0.88647 0.0
C1127 C 0.22453 0.78756 0.8949 0.0
C1128 C 0.20903 0.78241 0.89042 0.0
H1129 H 0.22016 0.85319 0.97688 0.0
H1130 H 0.21338 0.83529 0.95424 0.0
C1131 C 0.20671 0.7714 0.8778 0.0
C1132 C 0.22715 0.79921 0.90822 0.0
H1133 H 0.22328 0.80421 0.94874 0.0
C1134 C 0.2344 0.81403 0.9048 0.0
C1135 C 0.22298 0.79562 0.92421 0.0
C1136 C 0.21559 0.77968 0.92859 0.0
C1137 C 0.23762 0.82541 0.91698 0.0
C1138 C 0.23375 0.8217 0.93302 0.0
C1139 C 0.22624 0.80699 0.93641 0.0
C1140 C 0.23784 0.83275 0.94653 0.0
C1141 C 0.24499 0.84134 0.91255 0.0
C1142 C 0.25385 0.83709 0.94978 0.0
C1143 C 0.25777 0.84731 0.96267 0.0
C1144 C 0.24574 0.8533 0.97263 0.0
C1145 C 0.22971 0.84882 0.96942 0.0
C1146 C 0.2258 0.83859 0.9565 0.0
H1147 H 0.24306 0.84391 0.89968 0.0
H1148 H 0.23998 0.85107 0.91996 0.0
H1149 H 0.25806 0.84129 0.91469 0.0
H1150 H 0.26334 0.83243 0.94243 0.0
H1151 H 0.27024 0.85044 0.96487 0.0
H1152 H 0.01941 0.50804 0.40558 0.0
H1153 H 0.03673 0.50297 0.3825 0.0
H1154 H 0.03865 0.55302 0.37224 0.0
H1155 H 0.02116 0.55819 0.39507 0.0
H1156 H 0.03166 0.51068 0.34942 0.0
H1157 H 0.08612 0.54095 0.37496 0.0
H1158 H 0.0692 0.53499 0.38714 0.0
H1159 H 0.06859 0.55268 0.37544 0.0
C1160 C 0.02341 0.51796 0.39834 0.0
C1161 C 0.01899 0.53355 0.40224 0.0
C1162 C 0.03336 0.51504 0.38522 0.0
C1163 C 0.03915 0.52766 0.37586 0.0
C1164 C 0.03457 0.54317 0.37954 0.0
H1165 H 0.09877 0.5404 0.2927 0.0
H1166 H 0.08156 0.54309 0.31618 0.0
C1167 C 0.02461 0.5461 0.39261 0.0
C1168 C 0.0498 0.52463 0.36206 0.0
H1169 H 0.08701 0.53353 0.34736 0.0
C1170 C 0.04381 0.51555 0.34898 0.0
C1171 C 0.06562 0.53103 0.36158 0.0
C1172 C 0.07286 0.54034 0.37557 0.0
C1173 C 0.05308 0.5131 0.33518 0.0
C1174 C 0.06884 0.51967 0.33462 0.0
C1175 C 0.0749 0.52855 0.34781 0.0
C1176 C 0.07916 0.51782 0.32032 0.0
C1177 C 0.04574 0.50396 0.32112 0.0
C1178 C 0.08365 0.50271 0.31496 0.0
C1179 C 0.09346 0.50111 0.3015 0.0
C1180 C 0.09905 0.51463 0.29323 0.0
C1181 C 0.09466 0.52975 0.29876 0.0
C1182 C 0.08483 0.53132 0.31219 0.0
H1183 H 0.0325 0.50314 0.32194 0.0
H1184 H 0.04912 0.5096 0.30962 0.0
H1185 H 0.05019 0.49169 0.32092 0.0
H1186 H 0.07967 0.49216 0.32127 0.0
H1187 H 0.09671 0.48931 0.29761 0.0
H1188 H 0.75282 0.74509 0.85548 0.0
H1189 H 0.74924 0.72628 0.87728 0.0
H1190 H 0.80035 0.72378 0.88208 0.0
H1191 H 0.80407 0.74306 0.86067 0.0
H1192 H 0.75968 0.69535 0.87926 0.0
H1193 H 0.78599 0.73397 0.92788 0.0
H1194 H 0.78047 0.74159 0.90864 0.0
H1195 H 0.79873 0.73122 0.9108 0.0
C1196 C 0.76331 0.74071 0.86132 0.0
C1197 C 0.77873 0.74569 0.85643 0.0
C1198 C 0.76124 0.72987 0.87368 0.0
C1199 C 0.77452 0.72383 0.88144 0.0
C1200 C 0.78994 0.72853 0.87644 0.0
H1201 H 0.78221 0.65775 0.96003 0.0
H1202 H 0.78775 0.67512 0.93732 0.0
C1203 C 0.79203 0.73941 0.86408 0.0
C1204 C 0.77216 0.71245 0.89463 0.0
H1205 H 0.77888 0.70746 0.93458 0.0
C1206 C 0.76386 0.69799 0.89136 0.0
C1207 C 0.77767 0.71595 0.91039 0.0
C1208 C 0.78609 0.73157 0.91473 0.0
C1209 C 0.76096 0.68686 0.90344 0.0
C1210 C 0.76634 0.69042 0.91921 0.0
C1211 C 0.77481 0.70479 0.92245 0.0
C1212 C 0.76292 0.67958 0.93263 0.0
C1213 C 0.75232 0.67133 0.89921 0.0
C1214 C 0.74713 0.67647 0.93756 0.0
C1215 C 0.74391 0.6666 0.95053 0.0
C1216 C 0.75645 0.65969 0.95884 0.0
C1217 C 0.77228 0.66284 0.95385 0.0
C1218 C 0.77548 0.67277 0.9409 0.0
H1219 H 0.75257 0.66875 0.88609 0.0
H1220 H 0.75767 0.66131 0.90555 0.0
H1221 H 0.73964 0.67196 0.90296 0.0
H1222 H 0.73729 0.68186 0.93149 0.0
H1223 H 0.7316 0.66447 0.9541 0.0
H1224 H 0.98484 0.96391 0.38833 0.0
H1225 H 0.96473 0.96742 0.36754 0.0
H1226 H 0.96996 0.0183 0.37352 0.0
H1227 H 0.98974 0.01497 0.3947 0.0
H1228 H 0.93478 0.98661 0.37176 0.0
H1229 H 0.97642 0.00725 0.32379 0.0
H1230 H 0.98296 0.99571 0.34048 0.0
H1231 H 0.97873 0.0163 0.34343 0.0
C1232 C 0.98163 0.97586 0.38536 0.0
C1233 C 0.98891 0.98917 0.39323 0.0
C1234 C 0.97021 0.97783 0.37341 0.0
C1235 C 0.96599 0.9931 0.36898 0.0
C1236 C 0.97323 0.00642 0.3767 0.0
H1237 H 0.90401 0.02654 0.29412 0.0
H1238 H 0.92316 0.02441 0.31605 0.0
C1239 C 0.98458 0.00448 0.38873 0.0
C1240 C 0.95378 0.99508 0.35645 0.0
H1241 H 0.94892 0.00659 0.3178 0.0
C1242 C 0.93782 0.99097 0.35995 0.0
C1243 C 0.95786 0.00088 0.34115 0.0
C1244 C 0.97492 0.00523 0.33684 0.0
C1245 C 0.92571 0.99265 0.34853 0.0
C1246 C 0.9298 0.99815 0.33306 0.0
C1247 C 0.9458 0.00235 0.32964 0.0
C1248 C 0.91772 0.99949 0.32017 0.0
C1249 C 0.90864 0.98884 0.35329 0.0
C1250 C 0.90836 0.98617 0.31513 0.0
C1251 C 0.89727 0.9874 0.30273 0.0
C1252 C 0.89555 0.00191 0.29492 0.0
C1253 C 0.90504 0.0152 0.2999 0.0
C1254 C 0.916 0.014 0.31242 0.0
H1255 H 0.90703 0.98968 0.3665 0.0
H1256 H 0.90028 0.99699 0.34755 0.0
H1257 H 0.90535 0.97648 0.34941 0.0
H1258 H 0.90979 0.97474 0.32061 0.0
H1259 H 0.89027 0.9769 0.29906 0.0
H1260 H 0.21884 0.2365 0.64824 0.0
H1261 H 0.22403 0.21756 0.62636 0.0
H1262 H 0.24026 0.25613 0.59649 0.0
H1263 H 0.23484 0.27518 0.61813 0.0
H1264 H 0.21186 0.21699 0.59336 0.0
H1265 H 0.27793 0.22484 0.59728 0.0
H1266 H 0.26479 0.23082 0.61331 0.0
H1267 H 0.26716 0.24288 0.59586 0.0
C1268 C 0.22332 0.24098 0.63695 0.0
C1269 C 0.22654 0.25736 0.63498 0.0
C1270 C 0.22635 0.23014 0.6245 0.0
C1271 C 0.23275 0.23546 0.60994 0.0
C1272 C 0.2356 0.25179 0.60777 0.0
H1273 H 0.26539 0.19168 0.52196 0.0
H1274 H 0.25832 0.2097 0.54396 0.0
C1275 C 0.23253 0.26264 0.62016 0.0
C1276 C 0.23657 0.22394 0.59701 0.0
H1277 H 0.26762 0.20935 0.57543 0.0
C1278 C 0.22404 0.21522 0.58946 0.0
C1279 C 0.25248 0.22174 0.592 0.0
C1280 C 0.26641 0.23045 0.60009 0.0
C1281 C 0.22697 0.2046 0.57669 0.0
C1282 C 0.2429 0.20242 0.57164 0.0
C1283 C 0.25543 0.21106 0.57931 0.0
C1284 C 0.24687 0.1914 0.55826 0.0
C1285 C 0.21296 0.19617 0.56845 0.0
C1286 C 0.24292 0.17509 0.55909 0.0
C1287 C 0.24687 0.16476 0.54649 0.0
C1288 C 0.25501 0.17053 0.53292 0.0
C1289 C 0.25912 0.18684 0.53224 0.0
C1290 C 0.25509 0.19717 0.54479 0.0
H1291 H 0.20162 0.20226 0.57084 0.0
H1292 H 0.21484 0.1954 0.55528 0.0
H1293 H 0.21163 0.1839 0.57302 0.0
H1294 H 0.23691 0.17033 0.56954 0.0
H1295 H 0.24363 0.15224 0.54744 0.0
H1296 H 0.5083 0.52175 0.62537 0.0
H1297 H 0.49057 0.51931 0.64853 0.0
H1298 H 0.45067 0.53218 0.61937 0.0
H1299 H 0.46818 0.53402 0.59596 0.0
H1300 H 0.47251 0.54246 0.6627 0.0
H1301 H 0.43362 0.49191 0.64069 0.0
H1302 H 0.4524 0.4973 0.6313 0.0
H1303 H 0.43492 0.50842 0.62736 0.0
C1304 C 0.4957 0.52379 0.6238 0.0
C1305 C 0.48964 0.52798 0.60877 0.0
C1306 C 0.48561 0.52251 0.63708 0.0
C1307 C 0.46927 0.52534 0.63562 0.0
C1308 C 0.46319 0.52964 0.62069 0.0
H1309 H 0.39169 0.52665 0.70514 0.0
H1310 H 0.40824 0.52938 0.68106 0.0
C1311 C 0.47326 0.53088 0.60737 0.0
C1312 C 0.45875 0.52426 0.64987 0.0
H1313 H 0.42579 0.5047 0.6649 0.0
C1314 C 0.46232 0.53417 0.6632 0.0
C1315 C 0.44544 0.51346 0.65046 0.0
C1316 C 0.44141 0.50206 0.63676 0.0
C1317 C 0.45288 0.53366 0.67709 0.0
C1318 C 0.43964 0.52282 0.6777 0.0
C1319 C 0.43595 0.51301 0.66433 0.0
C1320 C 0.42968 0.52124 0.69227 0.0
C1321 C 0.45702 0.54485 0.69094 0.0
C1322 C 0.43626 0.51558 0.70645 0.0
C1323 C 0.42685 0.51396 0.7202 0.0
C1324 C 0.41069 0.51796 0.72 0.0
C1325 C 0.40411 0.52353 0.70572 0.0
C1326 C 0.41353 0.52508 0.69195 0.0
H1327 H 0.46506 0.55488 0.6872 0.0
H1328 H 0.44605 0.54976 0.69631 0.0
H1329 H 0.46321 0.53823 0.70035 0.0
H1330 H 0.44865 0.51232 0.70685 0.0
H1331 H 0.43228 0.50959 0.73098 0.0
H1332 H 0.80573 0.2683 0.64285 0.0
H1333 H 0.79963 0.28618 0.62106 0.0
H1334 H 0.75012 0.28534 0.63535 0.0
H1335 H 0.75613 0.26745 0.65719 0.0
H1336 H 0.75403 0.28064 0.60285 0.0
H1337 H 0.7901 0.33334 0.62417 0.0
H1338 H 0.8013 0.31556 0.62255 0.0
H1339 H 0.78528 0.31669 0.63685 0.0
C1340 C 0.79359 0.27208 0.64149 0.0
C1341 C 0.78142 0.26651 0.65179 0.0
C1342 C 0.79012 0.28231 0.62904 0.0
C1343 C 0.77448 0.28728 0.62675 0.0
C1344 C 0.76229 0.28168 0.63695 0.0
H1345 H 0.748 0.3632 0.56313 0.0
H1346 H 0.75219 0.34655 0.58644 0.0
C1347 C 0.76573 0.27141 0.64937 0.0
C1348 C 0.77071 0.29787 0.61337 0.0
H1349 H 0.78024 0.33403 0.59738 0.0
C1350 C 0.75968 0.29236 0.6017 0.0
C1351 C 0.77793 0.31323 0.61202 0.0
C1352 C 0.7892 0.32015 0.62464 0.0
C1353 C 0.75597 0.30163 0.58848 0.0
C1354 C 0.76372 0.31671 0.58676 0.0
C1355 C 0.77444 0.3224 0.59864 0.0
C1356 C 0.76101 0.32668 0.57263 0.0
C1357 C 0.74367 0.29527 0.57657 0.0
C1358 C 0.76476 0.32108 0.55717 0.0
C1359 C 0.76235 0.33052 0.54385 0.0
C1360 C 0.75626 0.34582 0.54573 0.0
C1361 C 0.75267 0.35146 0.56126 0.0
C1362 C 0.75506 0.34198 0.57459 0.0
H1363 H 0.73574 0.28591 0.58186 0.0
H1364 H 0.73619 0.30492 0.57216 0.0
H1365 H 0.74986 0.2899 0.56612 0.0
H1366 H 0.7697 0.30945 0.55543 0.0
H1367 H 0.76535 0.32585 0.53208 0.0
H1368 H 0.49658 0.97913 0.61787 0.0
H1369 H 0.5122 0.98408 0.64234 0.0
H1370 H 0.5551 0.97176 0.61707 0.0
H1371 H 0.5397 0.96739 0.59239 0.0
H1372 H 0.5305 0.96313 0.65886 0.0
H1373 H 0.56792 0.01439 0.63804 0.0
H1374 H 0.55023 0.00721 0.62746 0.0
H1375 H 0.56868 0.9971 0.62517 0.0
C1376 C 0.50938 0.97771 0.61745 0.0
C1377 C 0.5169 0.97295 0.60314 0.0
C1378 C 0.51826 0.98043 0.63147 0.0
C1379 C 0.53483 0.97852 0.63146 0.0
C1380 C 0.54237 0.97361 0.61727 0.0
H1381 H 0.60866 0.98432 0.70431 0.0
H1382 H 0.593 0.98007 0.67973 0.0
C1383 C 0.53351 0.97092 0.60322 0.0
C1384 C 0.54415 0.98122 0.64642 0.0
H1385 H 0.57518 0.00326 0.66289 0.0
C1386 C 0.54021 0.97197 0.65978 0.0
C1387 C 0.55681 0.99275 0.64756 0.0
C1388 C 0.5611 0.00355 0.63385 0.0
C1389 C 0.5488 0.97374 0.67419 0.0
C1390 C 0.5615 0.9852 0.67529 0.0
C1391 C 0.56544 0.99446 0.66195 0.0
C1392 C 0.57087 0.98776 0.69021 0.0
C1393 C 0.54442 0.96314 0.68803 0.0
C1394 C 0.56361 0.99365 0.70415 0.0
C1395 C 0.57251 0.99613 0.71821 0.0
C1396 C 0.58884 0.99277 0.71854 0.0
C1397 C 0.59609 0.98697 0.70448 0.0
C1398 C 0.58719 0.98456 0.69042 0.0
H1399 H 0.53687 0.95266 0.68412 0.0
H1400 H 0.55531 0.95889 0.69396 0.0
H1401 H 0.53761 0.97 0.69704 0.0
H1402 H 0.55107 0.99643 0.70413 0.0
H1403 H 0.56658 0.00066 0.7288 0.0
H1404 H 0.87038 0.22329 0.74676 0.0
H1405 H 0.89295 0.22999 0.76441 0.0
H1406 H 0.86603 0.2126 0.80494 0.0
H1407 H 0.84307 0.20667 0.78753 0.0
H1408 H 0.88049 0.24071 0.81172 0.0
H1409 H 0.92429 0.20075 0.78401 0.0
H1410 H 0.91603 0.21396 0.76982 0.0
H1411 H 0.90326 0.19928 0.77931 0.0
C1412 C 0.86919 0.22097 0.75944 0.0
C1413 C 0.85487 0.21441 0.7657 0.0
C1414 C 0.88222 0.22459 0.76949 0.0
C1415 C 0.88129 0.22151 0.78595 0.0
C1416 C 0.86705 0.21494 0.79224 0.0
H1417 H 0.96363 0.22593 0.84998 0.0
H1418 H 0.94049 0.21726 0.83377 0.0
C1419 C 0.85398 0.21143 0.78224 0.0
C1420 C 0.89491 0.22579 0.79674 0.0
H1421 H 0.93477 0.22065 0.80233 0.0
C1422 C 0.89233 0.23623 0.80974 0.0
C1423 C 0.9103 0.21975 0.79429 0.0
C1424 C 0.91362 0.20769 0.7812 0.0
C1425 C 0.9048 0.24108 0.82015 0.0
C1426 C 0.92036 0.23568 0.81721 0.0
C1427 C 0.92287 0.22494 0.80444 0.0
C1428 C 0.93423 0.24103 0.82723 0.0
C1429 C 0.90109 0.25176 0.83431 0.0
C1430 C 0.9385 0.25725 0.8288 0.0
C1431 C 0.95161 0.26226 0.83817 0.0
C1432 C 0.96087 0.2511 0.84595 0.0
C1433 C 0.95673 0.23483 0.84416 0.0
C1434 C 0.94352 0.22985 0.83489 0.0
H1435 H 0.88824 0.25079 0.83761 0.0
H1436 H 0.90834 0.24886 0.84495 0.0
H1437 H 0.90386 0.2643 0.83115 0.0
H1438 H 0.93177 0.26606 0.82264 0.0
H1439 H 0.95459 0.27487 0.83917 0.0
H1440 H 0.4764 0.88915 0.49633 0.0
H1441 H 0.48229 0.86658 0.47854 0.0
H1442 H 0.48074 0.89705 0.43762 0.0
H1443 H 0.47491 0.91972 0.45532 0.0
H1444 H 0.46196 0.85602 0.44937 0.0
H1445 H 0.52535 0.87346 0.43645 0.0
H1446 H 0.51517 0.88025 0.45429 0.0
H1447 H 0.51071 0.88859 0.43525 0.0
C1448 C 0.47743 0.89106 0.48355 0.0
C1449 C 0.47523 0.9062 0.4772 0.0
C1450 C 0.48071 0.87816 0.47343 0.0
C1451 C 0.48204 0.88024 0.45684 0.0
C1452 C 0.47985 0.89529 0.45043 0.0
H1453 H 0.50707 0.81753 0.37765 0.0
H1454 H 0.50102 0.84031 0.39497 0.0
C1455 C 0.47643 0.90818 0.46053 0.0
C1456 C 0.48548 0.86656 0.44618 0.0
H1457 H 0.51463 0.85069 0.42291 0.0
C1458 C 0.47347 0.85479 0.44359 0.0
C1459 C 0.50046 0.86515 0.43862 0.0
C1460 C 0.51376 0.87745 0.44129 0.0
C1461 C 0.476 0.84164 0.43342 0.0
C1462 C 0.4911 0.84005 0.42603 0.0
C1463 C 0.50308 0.85191 0.42861 0.0
C1464 C 0.49473 0.82618 0.4156 0.0
C1465 C 0.46234 0.8298 0.43039 0.0
C1466 C 0.49344 0.81068 0.42152 0.0
C1467 C 0.49676 0.79763 0.41161 0.0
C1468 C 0.50168 0.79985 0.39566 0.0
C1469 C 0.50329 0.81541 0.38987 0.0
C1470 C 0.49984 0.82844 0.39975 0.0
H1471 H 0.45061 0.83508 0.43297 0.0
H1472 H 0.46231 0.82532 0.41778 0.0
H1473 H 0.46359 0.81954 0.4384 0.0
H1474 H 0.48993 0.80867 0.43383 0.0
H1475 H 0.49554 0.78581 0.4165 0.0
H1476 H 0.13509 0.31237 0.75296 0.0
H1477 H 0.11332 0.30864 0.77222 0.0
H1478 H 0.11681 0.25779 0.76744 0.0
H1479 H 0.13888 0.26135 0.74847 0.0
H1480 H 0.08461 0.2703 0.76512 0.0
H1481 H 0.1184 0.29202 0.81909 0.0
H1482 H 0.1194 0.30469 0.80195 0.0
H1483 H 0.12815 0.28553 0.80091 0.0
C1484 C 0.13137 0.30038 0.75613 0.0
C1485 C 0.13881 0.28716 0.74921 0.0
C1486 C 0.1189 0.29829 0.76709 0.0
C1487 C 0.11361 0.28295 0.77134 0.0
C1488 C 0.12077 0.26972 0.7643 0.0
H1489 H 0.05114 0.25321 0.84898 0.0
H1490 H 0.0732 0.25679 0.82997 0.0
C1491 C 0.13331 0.27179 0.75339 0.0
C1492 C 0.10048 0.28071 0.78301 0.0
H1493 H 0.09068 0.28654 0.82239 0.0
C1494 C 0.08591 0.27382 0.77764 0.0
C1495 C 0.10233 0.2852 0.79935 0.0
C1496 C 0.11793 0.29217 0.80578 0.0
C1497 C 0.073 0.27153 0.78818 0.0
C1498 C 0.07474 0.27633 0.80444 0.0
C1499 C 0.08939 0.28298 0.80987 0.0
C1500 C 0.06149 0.27442 0.81603 0.0
C1501 C 0.05765 0.26384 0.78191 0.0
C1502 C 0.04774 0.28333 0.81458 0.0
C1503 C 0.03515 0.28138 0.82544 0.0
C1504 C 0.0361 0.27045 0.83794 0.0
C1505 C 0.05 0.26168 0.83946 0.0
C1506 C 0.06262 0.26371 0.82864 0.0
H1507 H 0.05929 0.25796 0.77001 0.0
H1508 H 0.05287 0.25488 0.79044 0.0
H1509 H 0.0486 0.27307 0.78063 0.0
H1510 H 0.04675 0.2918 0.80503 0.0
H1511 H 0.02463 0.28835 0.82395 0.0
H1512 H 0.54429 0.61664 0.48991 0.0
H1513 H 0.54085 0.63858 0.47148 0.0
H1514 H 0.48977 0.63053 0.47303 0.0
H1515 H 0.49306 0.60842 0.49122 0.0
H1516 H 0.52482 0.63788 0.44071 0.0
H1517 H 0.49688 0.67836 0.48515 0.0
H1518 H 0.5079 0.66131 0.49096 0.0
H1519 H 0.48781 0.65873 0.4836 0.0
C1520 C 0.53232 0.61943 0.48622 0.0
C1521 C 0.51894 0.61082 0.49212 0.0
C1522 C 0.53039 0.63202 0.47576 0.0
C1523 C 0.51506 0.63629 0.47111 0.0
C1524 C 0.50169 0.6276 0.47675 0.0
H1525 H 0.47582 0.70868 0.41212 0.0
H1526 H 0.48044 0.68636 0.42966 0.0
C1527 C 0.5036 0.615 0.48717 0.0
C1528 C 0.51301 0.64976 0.46023 0.0
H1529 H 0.49709 0.68644 0.45809 0.0
C1530 C 0.51884 0.64855 0.44449 0.0
C1531 C 0.50518 0.6636 0.46525 0.0
C1532 C 0.49918 0.66572 0.4822 0.0
C1533 C 0.5167 0.66073 0.43348 0.0
C1534 C 0.50882 0.67458 0.43849 0.0
C1535 C 0.5031 0.6758 0.45428 0.0
C1536 C 0.50619 0.6879 0.42752 0.0
C1537 C 0.5225 0.65845 0.41648 0.0
C1538 C 0.51915 0.69625 0.4206 0.0
C1539 C 0.51656 0.70899 0.41049 0.0
C1540 C 0.50094 0.71369 0.40727 0.0
C1541 C 0.488 0.70536 0.41433 0.0
C1542 C 0.4906 0.6926 0.42437 0.0
H1543 H 0.52436 0.64572 0.41352 0.0
H1544 H 0.51389 0.66312 0.40776 0.0
H1545 H 0.53409 0.66503 0.41501 0.0
H1546 H 0.53129 0.69305 0.42315 0.0
H1547 H 0.52679 0.71522 0.40533 0.0
H1548 H 0.86532 0.80138 0.73557 0.0
H1549 H 0.88596 0.79791 0.71517 0.0
H1550 H 0.87581 0.74732 0.71414 0.0
H1551 H 0.85506 0.75068 0.73447 0.0
H1552 H 0.90831 0.75548 0.71632 0.0
H1553 H 0.87943 0.78772 0.66724 0.0
H1554 H 0.88138 0.79892 0.68573 0.0
H1555 H 0.86872 0.78124 0.68488 0.0
C1556 C 0.86734 0.78953 0.73086 0.0
C1557 C 0.85851 0.7763 0.7366 0.0
C1558 C 0.87913 0.78758 0.7192 0.0
C1559 C 0.88224 0.7724 0.71299 0.0
C1560 C 0.87355 0.75915 0.71876 0.0
H1561 H 0.93989 0.75013 0.62927 0.0
H1562 H 0.9182 0.75298 0.64868 0.0
C1563 C 0.86176 0.76109 0.73043 0.0
C1564 C 0.89489 0.77025 0.70081 0.0
H1565 H 0.90643 0.78075 0.66308 0.0
C1566 C 0.90789 0.76094 0.70465 0.0
C1567 C 0.89418 0.77724 0.68554 0.0
C1568 C 0.88011 0.78672 0.68049 0.0
C1569 C 0.92038 0.75869 0.69373 0.0
C1570 C 0.91995 0.76615 0.67868 0.0
C1571 C 0.90679 0.77518 0.6747 0.0
C1572 C 0.93305 0.76468 0.66688 0.0
C1573 C 0.93385 0.7482 0.69831 0.0
C1574 C 0.9485 0.77055 0.67061 0.0
C1575 C 0.96091 0.76894 0.65958 0.0
C1576 C 0.95807 0.76149 0.64456 0.0
C1577 C 0.94249 0.75588 0.64074 0.0
C1578 C 0.93008 0.75751 0.6518 0.0
H1579 H 0.93041 0.74023 0.7083 0.0
H1580 H 0.93765 0.74081 0.68792 0.0
H1581 H 0.94425 0.75578 0.70232 0.0
H1582 H 0.95095 0.7764 0.68207 0.0
H1583 H 0.97274 0.77347 0.66287 0.0
H1584 H 0.04434 0.899 0.5077 0.0
H1585 H 0.04063 0.87687 0.52612 0.0
H1586 H 0.98988 0.88385 0.52671 0.0
H1587 H 0.99346 0.90617 0.50854 0.0
H1588 H 0.02597 0.87727 0.55751 0.0
H1589 H 0.99424 0.83613 0.51439 0.0
H1590 H 0.00581 0.85341 0.50808 0.0
H1591 H 0.98616 0.85559 0.5163 0.0
C1592 C 0.03239 0.89593 0.51185 0.0
C1593 C 0.01918 0.90432 0.50659 0.0
C1594 C 0.0303 0.88323 0.5223 0.0
C1595 C 0.01497 0.87862 0.52758 0.0
C1596 C 0.00178 0.88705 0.52251 0.0
H1597 H 0.97515 0.80519 0.58816 0.0
H1598 H 0.97996 0.82772 0.57053 0.0
C1599 C 0.00385 0.89977 0.5121 0.0
C1600 C 0.01277 0.86511 0.53855 0.0
H1601 H 0.99532 0.82805 0.54141 0.0
C1602 C 0.01934 0.86645 0.55401 0.0
C1603 C 0.0041 0.85108 0.53389 0.0
C1604 C 0.99727 0.84883 0.51722 0.0
C1605 C 0.01715 0.85423 0.56511 0.0
C1606 C 0.00844 0.84019 0.56046 0.0
C1607 C 0.00197 0.83883 0.54495 0.0
C1608 C 0.00572 0.8268 0.57154 0.0
C1609 C 0.0238 0.85664 0.58183 0.0
C1610 C 0.01863 0.81874 0.57787 0.0
C1611 C 0.01593 0.80589 0.58803 0.0
C1612 C 0.00026 0.80077 0.59189 0.0
C1613 C 0.98737 0.80883 0.58545 0.0
C1614 C 0.99008 0.8217 0.57536 0.0
H1615 H 0.02634 0.86942 0.58471 0.0
H1616 H 0.01539 0.85175 0.59093 0.0
H1617 H 0.03518 0.85034 0.58278 0.0
H1618 H 0.03079 0.82226 0.57479 0.0
H1619 H 0.02612 0.79987 0.5927 0.0
H1620 H 0.14189 0.76087 0.74819 0.0
H1621 H 0.12029 0.76417 0.72891 0.0
H1622 H 0.11044 0.71353 0.72822 0.0
H1623 H 0.13196 0.71012 0.74757 0.0
H1624 H 0.11141 0.72694 0.6976 0.0
H1625 H 0.07237 0.76023 0.73924 0.0
H1626 H 0.09228 0.7686 0.73734 0.0
H1627 H 0.08921 0.74938 0.74609 0.0
C1628 C 0.13504 0.75045 0.74404 0.0
C1629 C 0.13858 0.73525 0.74948 0.0
C1630 C 0.12272 0.75236 0.73302 0.0
C1631 C 0.11364 0.73912 0.72733 0.0
C1632 C 0.1173 0.7239 0.7325 0.0
H1633 H 0.02178 0.73805 0.68019 0.0
H1634 H 0.04439 0.73476 0.69817 0.0
C1635 C 0.12964 0.72198 0.74351 0.0
C1636 C 0.10031 0.7411 0.71596 0.0
H1637 H 0.06418 0.75821 0.71207 0.0
C1638 C 0.10107 0.73377 0.70074 0.0
C1639 C 0.08677 0.74986 0.72019 0.0
C1640 C 0.08497 0.75736 0.73665 0.0
C1641 C 0.08868 0.73507 0.68955 0.0
C1642 C 0.07532 0.74415 0.69365 0.0
C1643 C 0.07451 0.75137 0.70892 0.0
C1644 C 0.0618 0.74595 0.68246 0.0
C1645 C 0.08983 0.72646 0.67358 0.0
C1646 C 0.06408 0.75344 0.66769 0.0
C1647 C 0.05117 0.75532 0.65734 0.0
C1648 C 0.03573 0.74983 0.66164 0.0
C1649 C 0.0335 0.74241 0.67649 0.0
C1650 C 0.04641 0.74052 0.6868 0.0
H1651 H 0.09876 0.71699 0.67384 0.0
H1652 H 0.07808 0.72101 0.66998 0.0
H1653 H 0.09359 0.73507 0.66428 0.0
H1654 H 0.07581 0.758 0.66426 0.0
H1655 H 0.05327 0.76116 0.64603 0.0
H1656 H 0.94612 0.61181 0.52423 0.0
H1657 H 0.9518 0.63504 0.54154 0.0
H1658 H 0.00235 0.62806 0.53658 0.0
H1659 H 0.99678 0.60434 0.5199 0.0
H1660 H 0.99411 0.63403 0.5674 0.0
H1661 H 0.96787 0.67862 0.52803 0.0
H1662 H 0.95404 0.66267 0.53284 0.0
H1663 H 0.9716 0.65861 0.52122 0.0
C1664 C 0.95845 0.61512 0.52692 0.0
C1665 C 0.97099 0.60621 0.52063 0.0
C1666 C 0.96168 0.62855 0.53663 0.0
C1667 C 0.9775 0.63346 0.54009 0.0
C1668 C 0.99005 0.62455 0.53394 0.0
H1669 H 0.00559 0.72541 0.5826 0.0
H1670 H 0.00168 0.70221 0.56478 0.0
C1671 C 0.98684 0.61107 0.5243 0.0
C1672 C 0.98097 0.6476 0.55053 0.0
H1673 H 0.97434 0.68726 0.55472 0.0
C1674 C 0.98987 0.6457 0.56459 0.0
C1675 C 0.97564 0.66286 0.54672 0.0
C1676 C 0.9669 0.66589 0.5313 0.0
C1677 C 0.99331 0.65856 0.57511 0.0
C1678 C 0.98735 0.67366 0.57167 0.0
C1679 C 0.97874 0.67564 0.55744 0.0
C1680 C 0.98994 0.68758 0.58263 0.0
C1681 C 0.00351 0.65589 0.58968 0.0
C1682 C 0.98449 0.68711 0.59854 0.0
C1683 C 0.98682 0.70031 0.6088 0.0
C1684 C 0.99445 0.7143 0.60326 0.0
C1685 C -0.0003 0.71481 0.58725 0.0
C1686 C 0.99746 0.70156 0.57704 0.0
H1687 H 0.0109 0.64526 0.58807 0.0
H1688 H 0.01156 0.66637 0.59234 0.0
H1689 H 0.99565 0.65388 0.60022 0.0
H1690 H 0.97828 0.67659 0.60299 0.0
H1691 H 0.9825 0.69958 0.62101 0.0
H1692 H 0.75255 0.88142 0.1978 0.0
H1693 H 0.77247 0.90301 0.20237 0.0
H1694 H 0.77952 0.88712 0.25069 0.0
H1695 H 0.75921 0.86586 0.24632 0.0
H1696 H 0.77819 0.91833 0.25037 0.0
H1697 H 0.81993 0.89932 0.20279 0.0
H1698 H 0.80043 0.90287 0.19506 0.0
H1699 H 0.80305 0.88703 0.20896 0.0
C1700 C 0.7584 0.88256 0.20937 0.0
C1701 C 0.75442 0.87197 0.22169 0.0
C1702 C 0.76984 0.89481 0.21194 0.0
C1703 C 0.77778 0.89647 0.22675 0.0
C1704 C 0.77362 0.88603 0.23914 0.0
H1705 H 0.86533 0.9534 0.24191 0.0
H1706 H 0.84526 0.93183 0.23826 0.0
C1707 C 0.762 0.87392 0.23666 0.0
C1708 C 0.79021 0.90922 0.22946 0.0
H1709 H 0.82509 0.92503 0.2145 0.0
C1710 C 0.7885 0.91974 0.24257 0.0
C1711 C 0.80381 0.9109 0.21946 0.0
C1712 C 0.80703 0.89933 0.20589 0.0
C1713 C 0.79986 0.93202 0.24583 0.0
C1714 C 0.81304 0.93417 0.23537 0.0
C1715 C 0.81489 0.9235 0.22241 0.0
C1716 C 0.82514 0.9473 0.23771 0.0
C1717 C 0.79777 0.94231 0.26065 0.0
C1718 C 0.82054 0.96318 0.23841 0.0
C1719 C 0.83195 0.97551 0.24073 0.0
C1720 C 0.84824 0.9722 0.24204 0.0
C1721 C 0.85287 0.95633 0.24095 0.0
C1722 C 0.84142 0.94399 0.23886 0.0
H1723 H 0.79026 0.93613 0.26977 0.0
H1724 H 0.80946 0.94577 0.26619 0.0
H1725 H 0.79167 0.95328 0.25734 0.0
H1726 H 0.80812 0.96608 0.23707 0.0
H1727 H 0.82802 0.98763 0.24132 0.0
H1728 H 0.77074 0.16634 0.2888 0.0
H1729 H 0.78986 0.14518 0.28551 0.0
H1730 H 0.75119 0.11144 0.27506 0.0
H1731 H 0.73196 0.1325 0.27841 0.0
H1732 H 0.79187 0.11684 0.30216 0.0
H1733 H 0.78171 0.10541 0.23711 0.0
H1734 H 0.77488 0.12298 0.2474 0.0
H1735 H 0.76386 0.10437 0.24903 0.0
C1736 C 0.76629 0.15439 0.28589 0.0
C1737 C 0.74983 0.1511 0.2838 0.0
C1738 C 0.77724 0.14235 0.28395 0.0
C1739 C 0.77195 0.12682 0.27981 0.0
C1740 C 0.75553 0.12343 0.27791 0.0
H1741 H 0.82296 0.03961 0.28807 0.0
H1742 H 0.80517 0.06183 0.29148 0.0
C1743 C 0.74457 0.13547 0.27982 0.0
C1744 C 0.78361 0.11411 0.27777 0.0
H1745 H 0.79754 0.08699 0.25071 0.0
C1746 C 0.79317 0.11034 0.2909 0.0
C1747 C 0.78541 0.10582 0.263 0.0
C1748 C 0.77604 0.10991 0.24827 0.0
C1749 C 0.80428 0.09826 0.28975 0.0
C1750 C 0.80566 0.08959 0.27515 0.0
C1751 C 0.79634 0.09357 0.26193 0.0
C1752 C 0.81668 0.07627 0.27334 0.0
C1753 C 0.81456 0.09502 0.30411 0.0
C1754 C 0.82885 0.0769 0.26178 0.0
C1755 C 0.83899 0.06417 0.25973 0.0
C1756 C 0.83706 0.05054 0.26914 0.0
C1757 C 0.82483 0.04996 0.28069 0.0
C1758 C 0.8147 0.06269 0.28273 0.0
H1759 H 0.81512 0.10529 0.31268 0.0
H1760 H 0.80941 0.0846 0.31051 0.0
H1761 H 0.82691 0.09226 0.30038 0.0
H1762 H 0.83052 0.08726 0.25436 0.0
H1763 H 0.84827 0.06498 0.2507 0.0
H1764 H 0.39256 0.97969 0.95509 0.0
H1765 H 0.36879 0.96382 0.96271 0.0
H1766 H 0.38042 0.97155 0.01268 0.0
H1767 H 0.40431 0.98719 0.00522 0.0
H1768 H 0.36654 0.93588 0.98246 0.0
H1769 H 0.334 0.98683 0.00828 0.0
H1770 H 0.35097 0.98943 0.99511 0.0
H1771 H 0.35391 0.98469 0.01579 0.0
C1772 C 0.39016 0.97787 0.9677 0.0
C1773 C 0.40027 0.98481 0.97955 0.0
C1774 C 0.37654 0.96888 0.97202 0.0
C1775 C 0.37275 0.96675 0.98825 0.0
C1776 C 0.38298 0.97334 0.0001 0.0
H1777 H 0.29415 0.92067 0.03915 0.0
H1778 H 0.31867 0.93525 0.03149 0.0
C1779 C 0.39661 0.98229 0.9958 0.0
C1780 C 0.35808 0.95764 0.99281 0.0
H1781 H 0.32223 0.96116 0.01179 0.0
C1782 C 0.35681 0.94139 0.98882 0.0
C1783 C 0.34547 0.9649 0.00114 0.0
C1784 C 0.34602 0.98245 0.00525 0.0
C1785 C 0.34333 0.93209 0.9932 0.0
C1786 C 0.33067 0.93935 0.00149 0.0
C1787 C 0.33196 0.95563 0.00547 0.0
C1788 C 0.31592 0.93033 0.00606 0.0
C1789 C 0.34293 0.9145 0.98925 0.0
C1790 C 0.30614 0.92292 0.99428 0.0
C1791 C 0.29216 0.91454 0.9986 0.0
C1792 C 0.2876 0.91356 0.0148 0.0
C1793 C 0.29732 0.92118 0.02657 0.0
C1794 C 0.31134 0.92951 0.02222 0.0
H1795 H 0.3551 0.9101 0.987 0.0
H1796 H 0.33737 0.90757 0.99911 0.0
H1797 H 0.33574 0.91222 0.97822 0.0
H1798 H 0.30925 0.92372 0.9817 0.0
H1799 H 0.2849 0.9089 0.98923 0.0
H1800 H 0.24655 0.36722 0.30416 0.0
H1801 H 0.22755 0.38865 0.3028 0.0
H1802 H 0.22292 0.38068 0.25175 0.0
H1803 H 0.24166 0.35904 0.25304 0.0
H1804 H 0.23032 0.41673 0.28364 0.0
H1805 H 0.17628 0.37924 0.26864 0.0
H1806 H 0.19413 0.37116 0.27692 0.0
H1807 H 0.19335 0.37604 0.25606 0.0
C1808 C 0.24136 0.36993 0.29267 0.0
C1809 C 0.24555 0.36141 0.27871 0.0
C1810 C 0.23059 0.38222 0.29191 0.0
C1811 C 0.22372 0.38609 0.27721 0.0
C1812 C 0.22794 0.3777 0.26324 0.0
H1813 H 0.15689 0.45517 0.24592 0.0
H1814 H 0.17545 0.43353 0.24823 0.0
C1815 C 0.23876 0.36546 0.26397 0.0
C1816 C 0.21236 0.39913 0.27644 0.0
H1817 H 0.17374 0.40716 0.26749 0.0
C1818 C 0.21792 0.41467 0.2802 0.0
C1819 C 0.19624 0.39634 0.2719 0.0
C1820 C 0.18955 0.37979 0.26827 0.0
C1821 C 0.20783 0.42759 0.27919 0.0
C1822 C 0.19168 0.42481 0.27465 0.0
C1823 C 0.18612 0.40924 0.27097 0.0
C1824 C 0.1804 0.43791 0.27342 0.0
C1825 C 0.21467 0.44414 0.28257 0.0
C1826 C 0.17686 0.4474 0.28689 0.0
C1827 C 0.16631 0.45983 0.2856 0.0
C1828 C 0.15898 0.46289 0.27085 0.0
C1829 C 0.16235 0.45316 0.25745 0.0
C1830 C 0.17294 0.44078 0.25874 0.0
H1831 H 0.22792 0.44463 0.28171 0.0
H1832 H 0.20982 0.45279 0.2741 0.0
H1833 H 0.21138 0.44789 0.29493 0.0
H1834 H 0.18221 0.44515 0.29842 0.0
H1835 H 0.16388 0.46702 0.29618 0.0
H1836 H 0.09492 0.03974 0.47057 0.0
H1837 H 0.11773 0.05834 0.47448 0.0
H1838 H 0.14737 0.01947 0.48676 0.0
H1839 H 0.12473 0.00073 0.48261 0.0
H1840 H 0.14889 0.04598 0.50872 0.0
H1841 H 0.15775 0.06395 0.44544 0.0
H1842 H 0.1377 0.06536 0.4529 0.0
H1843 H 0.1464 0.04622 0.45084 0.0
C1844 C 0.10634 0.0351 0.47386 0.0
C1845 C 0.10799 0.01873 0.47626 0.0
C1846 C 0.11935 0.04575 0.47611 0.0
C1847 C 0.13424 0.04023 0.48075 0.0
C1848 C 0.13596 0.02394 0.48316 0.0
H1849 H 0.22626 0.09083 0.48354 0.0
H1850 H 0.20388 0.07196 0.4784 0.0
C1851 C 0.12298 0.01327 0.48087 0.0
C1852 C 0.14793 0.05151 0.48364 0.0
H1853 H 0.17294 0.07835 0.46522 0.0
C1854 C 0.15418 0.05304 0.49922 0.0
C1855 C 0.15486 0.06057 0.47116 0.0
C1856 C 0.14896 0.0589 0.4541 0.0
C1857 C 0.16708 0.06361 0.50273 0.0
C1858 C 0.17377 0.07295 0.49034 0.0
C1859 C 0.16768 0.07124 0.4747 0.0
C1860 C 0.18719 0.08449 0.49338 0.0
C1861 C 0.17359 0.06456 0.5196 0.0
C1862 C 0.18512 0.09786 0.50335 0.0
C1863 C 0.19785 0.10868 0.5063 0.0
C1864 C 0.21288 0.10631 0.4993 0.0
C1865 C 0.21486 0.09297 0.48917 0.0
C1866 C 0.20209 0.08219 0.48619 0.0
H1867 H 0.16953 0.05419 0.52677 0.0
H1868 H 0.18686 0.06522 0.51951 0.0
H1869 H 0.16937 0.07549 0.52566 0.0
H1870 H 0.17362 0.09994 0.50882 0.0
H1871 H 0.1959 0.11886 0.5141 0.0
H1872 H 0.70925 0.16029 0.71642 0.0
H1873 H 0.69072 0.13813 0.72258 0.0
H1874 H 0.73048 0.10783 0.72986 0.0
H1875 H 0.7491 0.12987 0.72359 0.0
H1876 H 0.68749 0.10824 0.70702 0.0
H1877 H 0.70411 0.10241 0.77105 0.0
H1878 H 0.70959 0.11975 0.75958 0.0
H1879 H 0.72065 0.10191 0.75737 0.0
C1880 C 0.71405 0.14888 0.71923 0.0
C1881 C 0.73065 0.14685 0.71957 0.0
C1882 C 0.70345 0.13627 0.72283 0.0
C1883 C 0.70924 0.12144 0.72692 0.0
C1884 C 0.72578 0.1193 0.72709 0.0
H1885 H 0.66715 0.02933 0.74906 0.0
H1886 H 0.68485 0.05233 0.74379 0.0
C1887 C 0.7364 0.1319 0.7235 0.0
C1888 C 0.69796 0.10807 0.73059 0.0
H1889 H 0.68703 0.08201 0.75983 0.0
C1890 C 0.6873 0.10256 0.71859 0.0
C1891 C 0.69779 0.1007 0.7457 0.0
C1892 C 0.70854 0.10656 0.75923 0.0
C1893 C 0.67668 0.0896 0.72117 0.0
C1894 C 0.67656 0.08217 0.73626 0.0
C1895 C 0.68717 0.08774 0.74829 0.0
C1896 C 0.66571 0.0684 0.7397 0.0
C1897 C 0.66598 0.0837 0.70761 0.0
C1898 C 0.64908 0.0699 0.7394 0.0
C1899 C 0.63891 0.05677 0.74238 0.0
C1900 C 0.64521 0.04193 0.74581 0.0
C1901 C 0.66189 0.04057 0.7464 0.0
C1902 C 0.67204 0.0537 0.74341 0.0
H1903 H 0.67022 0.08813 0.69582 0.0
H1904 H 0.66528 0.0705 0.70705 0.0
H1905 H 0.65375 0.08798 0.70963 0.0
H1906 H 0.64396 0.08123 0.73687 0.0
H1907 H 0.62612 0.05824 0.74193 0.0
H1908 H 0.41714 0.04508 0.5329 0.0
H1909 H 0.39435 0.06169 0.52759 0.0
H1910 H 0.36609 0.01998 0.51346 0.0
H1911 H 0.38866 0.00324 0.51912 0.0
H1912 H 0.37744 0.06481 0.49859 0.0
H1913 H 0.33821 0.04206 0.54734 0.0
H1914 H 0.35939 0.03874 0.5467 0.0
H1915 H 0.34588 0.02691 0.53428 0.0
C1916 C 0.40602 0.03943 0.52882 0.0
C1917 C 0.40468 0.02283 0.52651 0.0
C1918 C 0.39306 0.04894 0.52571 0.0
C1919 C 0.3785 0.04203 0.52034 0.0
C1920 C 0.37716 0.02551 0.51783 0.0
H1921 H 0.29904 0.08759 0.47573 0.0
H1922 H 0.32226 0.07189 0.48176 0.0
C1923 C 0.39012 0.01599 0.52091 0.0
C1924 C 0.36478 0.05214 0.51713 0.0
H1925 H 0.3264 0.05889 0.52845 0.0
C1926 C 0.36629 0.06357 0.50514 0.0
C1927 C 0.35034 0.0506 0.52585 0.0
C1928 C 0.34834 0.03902 0.53937 0.0
C1929 C 0.35359 0.07332 0.50141 0.0
C1930 C 0.33898 0.07143 0.50977 0.0
C1931 C 0.33758 0.06021 0.52197 0.0
C1932 C 0.32499 0.08101 0.50607 0.0
C1933 C 0.35599 0.08571 0.48869 0.0
C1934 C 0.31863 0.09108 0.51786 0.0
C1935 C 0.30532 0.10002 0.51449 0.0
C1936 C 0.29806 0.09896 0.49928 0.0
C1937 C 0.30439 0.08875 0.48754 0.0
C1938 C 0.31771 0.07983 0.49092 0.0
H1939 H 0.36887 0.08835 0.48638 0.0
H1940 H 0.35046 0.08124 0.47732 0.0
H1941 H 0.35022 0.09693 0.49222 0.0
H1942 H 0.32404 0.09209 0.52966 0.0
H1943 H 0.30072 0.10774 0.52382 0.0
H1944 H 0.6085 0.49747 0.54759 0.0
H1945 H 0.63077 0.47958 0.5446 0.0
H1946 H 0.62487 0.47939 0.49324 0.0
H1947 H 0.60238 0.49702 0.49608 0.0
H1948 H 0.63032 0.44853 0.52883 0.0
H1949 H 0.67287 0.49195 0.50088 0.0
H1950 H 0.65536 0.49797 0.51175 0.0
H1951 H 0.65347 0.49004 0.49167 0.0
C1952 C 0.61183 0.49352 0.53566 0.0
C1953 C 0.60366 0.49871 0.52207 0.0
C1954 C 0.62461 0.48338 0.53398 0.0
C1955 C 0.62955 0.47835 0.5187 0.0
C1956 C 0.6214 0.48339 0.50512 0.0
H1957 H 0.70445 0.41915 0.48252 0.0
H1958 H 0.68194 0.43661 0.48599 0.0
C1959 C 0.60858 0.49349 0.50677 0.0
C1960 C 0.64308 0.46759 0.51699 0.0
H1961 H 0.68088 0.4653 0.50206 0.0
C1962 C 0.64141 0.45218 0.52304 0.0
C1963 C 0.65748 0.47243 0.5094 0.0
C1964 C 0.66004 0.48904 0.50314 0.0
C1965 C 0.65369 0.44132 0.52141 0.0
C1966 C 0.66814 0.44617 0.51385 0.0
C1967 C 0.6698 0.46162 0.50785 0.0
C1968 C 0.68165 0.43538 0.51189 0.0
C1969 C 0.65092 0.42465 0.52742 0.0
C1970 C 0.68906 0.42901 0.52532 0.0
C1971 C 0.70189 0.41895 0.52337 0.0
C1972 C 0.70765 0.41522 0.50796 0.0
C1973 C 0.7003 0.42177 0.49455 0.0
C1974 C 0.68744 0.43176 0.49651 0.0
H1975 H 0.63799 0.42162 0.52884 0.0
H1976 H 0.6562 0.41578 0.51914 0.0
H1977 H 0.65668 0.42367 0.53933 0.0
H1978 H 0.68502 0.43195 0.53732 0.0
H1979 H 0.70736 0.41421 0.53395 0.0
H1980 H 0.69561 0.26899 0.37311 0.0
H1981 H 0.6998 0.28883 0.39476 0.0
H1982 H 0.75029 0.29088 0.38455 0.0
H1983 H 0.7462 0.27125 0.36279 0.0
H1984 H 0.72116 0.28587 0.42218 0.0
H1985 H 0.73655 0.33813 0.38474 0.0
H1986 H 0.72609 0.32055 0.37684 0.0
H1987 H 0.74729 0.32049 0.38006 0.0
C1988 C 0.70757 0.27381 0.37538 0.0
C1989 C 0.72058 0.26859 0.36626 0.0
C1990 C 0.70995 0.28506 0.38777 0.0
C1991 C 0.72532 0.29141 0.3911 0.0
C1992 C 0.73831 0.28625 0.38201 0.0
H1993 H 0.77001 0.35707 0.45897 0.0
H1994 H 0.76302 0.33866 0.43687 0.0
C1995 C 0.73597 0.27494 0.3697 0.0
C1996 C 0.72792 0.30304 0.40441 0.0
H1997 H 0.74094 0.34115 0.41276 0.0
C1998 C 0.72535 0.298 0.42017 0.0
C1999 C 0.73343 0.31881 0.40166 0.0
C2000 C 0.7359 0.32492 0.38492 0.0
C2001 C 0.72865 0.30821 0.43334 0.0
C2002 C 0.7343 0.32398 0.43061 0.0
C2003 C 0.73663 0.32906 0.41482 0.0
C2004 C 0.73831 0.33526 0.44398 0.0
C2005 C 0.72659 0.30185 0.45005 0.0
C2006 C 0.72667 0.33962 0.45518 0.0
C2007 C 0.73065 0.35006 0.4679 0.0
C2008 C 0.74631 0.35647 0.46953 0.0
C2009 C 0.75785 0.35233 0.45808 0.0
C2010 C 0.75388 0.34182 0.44543 0.0
H2011 H 0.72622 0.28863 0.45005 0.0
H2012 H 0.73644 0.30627 0.45805 0.0
H2013 H 0.71516 0.30592 0.45513 0.0
H2014 H 0.71449 0.33498 0.45407 0.0
H2015 H 0.72144 0.35312 0.47643 0.0
H2016 H 0.54135 0.03699 0.91521 0.0
H2017 H 0.55861 0.03121 0.8924 0.0
H2018 H 0.51785 0.01279 0.86551 0.0
H2019 H 0.50033 0.01926 0.88801 0.0
H2020 H 0.56464 0.00321 0.87703 0.0
H2021 H 0.53734 0.04483 0.83488 0.0
H2022 H 0.53312 0.04517 0.8561 0.0
H2023 H 0.52345 0.03048 0.84314 0.0
C2024 C 0.53599 0.03191 0.90437 0.0
C2025 C 0.5194 0.02878 0.90338 0.0
C2026 C 0.54591 0.02848 0.8914 0.0
C2027 C 0.53948 0.02183 0.87716 0.0
C2028 C 0.52301 0.01825 0.87626 0.0
H2029 H 0.58472 0.99457 0.78707 0.0
H2030 H 0.56612 0.99757 0.8095 0.0
C2031 C 0.51304 0.02176 0.88922 0.0
C2032 C 0.55011 0.01866 0.86333 0.0
H2033 H 0.55714 0.02819 0.82425 0.0
C2034 C 0.56301 0.00868 0.8655 0.0
C2035 C 0.54796 0.02584 0.84829 0.0
C2036 C 0.53482 0.03729 0.84545 0.0
C2037 C 0.57378 0.00563 0.85301 0.0
C2038 C 0.57165 0.01285 0.83804 0.0
C2039 C 0.55866 0.02265 0.83577 0.0
C2040 C 0.58303 0.01072 0.82468 0.0
C2041 C 0.58733 0.99466 0.85586 0.0
C2042 C 0.59863 0.01724 0.82581 0.0
C2043 C 0.60926 0.01565 0.813 0.0
C2044 C 0.60447 0.00745 0.79887 0.0
C2045 C 0.58881 0.00089 0.79782 0.0
C2046 C 0.57816 0.0026 0.81059 0.0
H2047 H 0.5854 0.9875 0.8668 0.0
H2048 H 0.58884 0.98647 0.84542 0.0
H2049 H 0.59861 0.00184 0.85741 0.0
H2050 H 0.60252 0.02373 0.83653 0.0
H2051 H 0.62122 0.02086 0.81419 0.0
H2052 H 0.30247 0.24236 0.36096 0.0
H2053 H 0.29894 0.22263 0.38201 0.0
H2054 H 0.24783 0.22368 0.37623 0.0
H2055 H 0.25124 0.24295 0.35485 0.0
H2056 H 0.2827 0.22605 0.41078 0.0
H2057 H 0.2559 0.17619 0.37439 0.0
H2058 H 0.26599 0.19316 0.3655 0.0
H2059 H 0.2457 0.19446 0.37236 0.0
C2060 C 0.29049 0.2382 0.364 0.0
C2061 C 0.27713 0.2442 0.35621 0.0
C2062 C 0.2885 0.227 0.37609 0.0
C2063 C 0.27314 0.22153 0.38051 0.0
C2064 C 0.2598 0.22751 0.37279 0.0
H2065 H 0.23095 0.16388 0.45457 0.0
H2066 H 0.2368 0.18108 0.43183 0.0
C2067 C 0.26177 0.23868 0.36071 0.0
C2068 C 0.27099 0.21009 0.39369 0.0
H2069 H 0.25417 0.17385 0.40284 0.0
C2070 C 0.27661 0.21457 0.40903 0.0
C2071 C 0.26304 0.19513 0.39134 0.0
C2072 C 0.25744 0.18936 0.37498 0.0
C2073 C 0.27405 0.20467 0.42221 0.0
C2074 C 0.26584 0.18985 0.41991 0.0
C2075 C 0.26042 0.18527 0.40454 0.0
C2076 C 0.26243 0.17909 0.43341 0.0
C2077 C 0.27972 0.21035 0.43858 0.0
C2078 C 0.27491 0.1721 0.44163 0.0
C2079 C 0.27162 0.16225 0.45462 0.0
C2080 C 0.25577 0.15921 0.45958 0.0
C2081 C 0.24328 0.16602 0.4511 0.0
C2082 C 0.24659 0.17583 0.4381 0.0
H2083 H 0.28279 0.2233 0.43889 0.0
H2084 H 0.27044 0.20783 0.4478 0.0
H2085 H 0.29056 0.20392 0.44187 0.0
H2086 H 0.2872 0.17429 0.43802 0.0
H2087 H 0.28151 0.15714 0.46084 0.0
H2088 H 0.46715 0.48759 0.91321 0.0
H2089 H 0.44731 0.4908 0.89203 0.0
H2090 H 0.4851 0.49765 0.85748 0.0
H2091 H 0.50503 0.4942 0.87853 0.0
H2092 H 0.44412 0.51759 0.87094 0.0
H2093 H 0.45575 0.46088 0.83839 0.0
H2094 H 0.46206 0.46471 0.85886 0.0
H2095 H 0.47305 0.47351 0.8426 0.0
C2096 C 0.47123 0.48967 0.90108 0.0
C2097 C 0.48765 0.49056 0.89751 0.0
C2098 C 0.45989 0.49159 0.88903 0.0
C2099 C 0.46477 0.49428 0.8732 0.0
C2100 C 0.48113 0.4954 0.86961 0.0
H2101 H 0.40994 0.52578 0.79224 0.0
H2102 H 0.42902 0.52325 0.81419 0.0
C2103 C 0.49248 0.49356 0.88166 0.0
C2104 C 0.45271 0.49594 0.86043 0.0
H2105 H 0.438 0.47826 0.82608 0.0
C2106 C 0.44275 0.50901 0.86113 0.0
C2107 C 0.45088 0.4846 0.84779 0.0
C2108 C 0.46089 0.47004 0.84685 0.0
C2109 C 0.43113 0.51117 0.84931 0.0
C2110 C 0.42955 0.50003 0.83646 0.0
C2111 C 0.43934 0.48683 0.83591 0.0
C2112 C 0.41775 0.50181 0.82346 0.0
C2113 C 0.42049 0.52524 0.85073 0.0
C2114 C 0.40523 0.49048 0.82133 0.0
C2115 C 0.3943 0.49188 0.80881 0.0
C2116 C 0.39581 0.50457 0.79811 0.0
C2117 C 0.4084 0.51589 0.8003 0.0
C2118 C 0.41928 0.51451 0.81287 0.0
H2119 H 0.42083 0.53066 0.86299 0.0
H2120 H 0.42458 0.53444 0.84214 0.0
H2121 H 0.40794 0.5217 0.84772 0.0
H2122 H 0.40392 0.48054 0.82936 0.0
H2123 H 0.38478 0.48292 0.80744 0.0
H2124 H 0.70247 0.75291 0.12656 0.0
H2125 H 0.70769 0.7333 0.10526 0.0
H2126 H 0.75815 0.73755 0.11545 0.0
H2127 H 0.75303 0.75687 0.13696 0.0
H2128 H 0.72749 0.73733 0.07778 0.0
H2129 H 0.7479 0.68918 0.1167 0.0
H2130 H 0.73696 0.70582 0.12436 0.0
H2131 H 0.75795 0.70814 0.12017 0.0
C2132 C 0.71466 0.74954 0.12436 0.0
C2133 C 0.72734 0.7564 0.13347 0.0
C2134 C 0.71762 0.73842 0.11215 0.0
C2135 C 0.73327 0.73385 0.10895 0.0
C2136 C 0.74596 0.74075 0.11791 0.0
H2137 H 0.77262 0.68795 0.02513 0.0
H2138 H 0.76518 0.70625 0.04676 0.0
C2139 C 0.74302 0.75191 0.13008 0.0
C2140 C 0.73642 0.72213 0.09598 0.0
H2141 H 0.75202 0.68575 0.08863 0.0
C2142 C 0.73277 0.72601 0.08014 0.0
C2143 C 0.74312 0.70731 0.09915 0.0
C2144 C 0.74659 0.70225 0.11603 0.0
C2145 C 0.73606 0.71562 0.06729 0.0
C2146 C 0.74333 0.70107 0.07041 0.0
C2147 C 0.74658 0.697 0.08629 0.0
C2148 C 0.7478 0.68996 0.05732 0.0
C2149 C 0.73165 0.72024 0.05051 0.0
C2150 C 0.74073 0.67462 0.05632 0.0
C2151 C 0.74499 0.6641 0.04399 0.0
C2152 C 0.75649 0.66872 0.03253 0.0
C2153 C 0.76368 0.68404 0.03372 0.0
C2154 C 0.75938 0.69455 0.04601 0.0
H2155 H 0.7227 0.72968 0.05055 0.0
H2156 H 0.7425 0.72486 0.04427 0.0
H2157 H 0.72678 0.70979 0.04354 0.0
H2158 H 0.73183 0.67084 0.065 0.0
H2159 H 0.73925 0.65238 0.04344 0.0
H2160 H 0.98858 0.05433 0.11337 0.0
H2161 H 0.97094 0.0515 0.13659 0.0
H2162 H 0.96963 0.00055 0.12982 0.0
H2163 H 0.98684 0.00329 0.10624 0.0
H2164 H 0.93965 0.013 0.13579 0.0
H2165 H 0.98452 0.03543 0.18047 0.0
H2166 H 0.98135 0.04868 0.16422 0.0
H2167 H 0.98984 0.02967 0.16026 0.0
C2168 C 0.98441 0.04253 0.11671 0.0
C2169 C 0.98917 0.02902 0.10799 0.0
C2170 C 0.97448 0.04093 0.13009 0.0
C2171 C 0.96922 0.02581 0.13507 0.0
C2172 C 0.97368 0.01232 0.12624 0.0
H2173 H 0.92797 0.00135 0.227 0.0
H2174 H 0.94463 0.00397 0.20307 0.0
C2175 C 0.9836 0.0139 0.11285 0.0
C2176 C 0.95897 0.02404 0.14944 0.0
H2177 H 0.95797 0.03131 0.18983 0.0
C2178 C 0.94364 0.01697 0.14762 0.0
C2179 C 0.96432 0.02905 0.16487 0.0
C2180 C 0.98095 0.036 0.16766 0.0
C2181 C 0.93341 0.01496 0.16081 0.0
C2182 C 0.93859 0.02041 0.17617 0.0
C2183 C 0.95399 0.02728 0.17801 0.0
C2184 C 0.92832 0.01881 0.19055 0.0
C2185 C 0.91728 0.00677 0.15826 0.0
C2186 C 0.91371 0.02645 0.1915 0.0
C2187 C 0.90412 0.02495 0.20515 0.0
C2188 C 0.90906 0.01587 0.21815 0.0
C2189 C 0.9238 0.0084 0.21721 0.0
C2190 C 0.93335 0.00989 0.20355 0.0
H2191 H 0.91679 -0.00022 0.14682 0.0
H2192 H 0.91429 0.99869 0.16828 0.0
H2193 H 0.90801 0.01586 0.15776 0.0
H2194 H 0.90977 0.03366 0.18173 0.0
H2195 H 0.89288 0.03093 0.20553 0.0
H2196 H 0.26005 0.76767 0.1545 0.0
H2197 H 0.25497 0.78578 0.13251 0.0
H2198 H 0.30508 0.78704 0.12057 0.0
H2199 H 0.31023 0.76879 0.14236 0.0
H2200 H 0.2701 0.81734 0.1284 0.0
H2201 H 0.28133 0.77549 0.07759 0.0
H2202 H 0.27695 0.76883 0.09764 0.0
H2203 H 0.29651 0.77676 0.09286 0.0
C2204 C 0.26995 0.77167 0.14707 0.0
C2205 C 0.28554 0.7668 0.15013 0.0
C2206 C 0.26704 0.78206 0.1346 0.0
C2207 C 0.27963 0.78759 0.12487 0.0
C2208 C 0.29519 0.78274 0.12785 0.0
H2209 H 0.28911 0.84903 0.04327 0.0
H2210 H 0.29316 0.83108 0.06551 0.0
C2211 C 0.29812 0.77244 0.14038 0.0
C2212 C 0.27659 0.79876 0.11182 0.0
H2213 H 0.27791 0.80244 0.07115 0.0
C2214 C 0.27171 0.8141 0.11587 0.0
C2215 C 0.27878 0.79445 0.09553 0.0
C2216 C 0.28356 0.77795 0.09055 0.0
C2217 C 0.2693 0.82542 0.10402 0.0
C2218 C 0.27149 0.82112 0.0877 0.0
C2219 C 0.27627 0.80572 0.08367 0.0
C2220 C 0.26903 0.83243 0.07457 0.0
C2221 C 0.2649 0.842 0.10914 0.0
C2222 C 0.25408 0.83909 0.07225 0.0
C2223 C 0.25175 0.84945 0.0596 0.0
C2224 C 0.26428 0.85317 0.04893 0.0
C2225 C 0.27921 0.84642 0.05127 0.0
C2226 C 0.28155 0.83615 0.06396 0.0
H2227 H 0.26798 0.84456 0.12191 0.0
H2228 H 0.27104 0.85108 0.10161 0.0
H2229 H 0.25182 0.84319 0.10776 0.0
H2230 H 0.24415 0.83611 0.08007 0.0
H2231 H 0.24007 0.85434 0.05806 0.0
H2232 H 0.01741 0.4513 0.111 0.0
H2233 H 0.03307 0.45709 0.13535 0.0
H2234 H 0.03564 0.50684 0.12376 0.0
H2235 H 0.02016 0.50112 0.09926 0.0
H2236 H 0.06569 0.49291 0.1326 0.0
H2237 H 0.01681 0.481 0.17634 0.0
H2238 H 0.01956 0.46571 0.16133 0.0
H2239 H 0.01308 0.48487 0.15545 0.0
C2240 C 0.02138 0.46346 0.1136 0.0
C2241 C 0.01754 0.47577 0.10325 0.0
C2242 C 0.03019 0.46676 0.12757 0.0
C2243 C 0.03533 0.4824 0.1314 0.0
C2244 C 0.03167 0.4947 0.12103 0.0
H2245 H 0.07593 0.51896 0.22121 0.0
H2246 H 0.05993 0.51444 0.19688 0.0
C2247 C 0.02278 0.49143 0.10711 0.0
C2248 C 0.04478 0.48589 0.14609 0.0
H2249 H 0.0429 0.48525 0.18697 0.0
C2250 C 0.06072 0.49129 0.1445 0.0
C2251 C 0.03817 0.4839 0.16155 0.0
C2252 C 0.02093 0.47868 0.16387 0.0
C2253 C 0.07036 0.49446 0.15803 0.0
C2254 C 0.06388 0.49205 0.17348 0.0
C2255 C 0.04784 0.48697 0.17508 0.0
C2256 C 0.07358 0.49472 0.18816 0.0
C2257 C 0.08737 0.50048 0.15572 0.0
C2258 C 0.08642 0.48499 0.19134 0.0
C2259 C 0.09555 0.48748 0.20524 0.0
C2260 C 0.09198 0.49977 0.2162 0.0
C2261 C 0.07902 0.50943 0.213 0.0
C2262 C 0.06986 0.50687 0.19913 0.0
H2263 H 0.08942 0.50499 0.14342 0.0
H2264 H 0.09048 0.51014 0.16453 0.0
H2265 H 0.09557 0.49061 0.15766 0.0
H2266 H 0.08933 0.47541 0.18311 0.0
H2267 H 0.10543 0.4798 0.20736 0.0
H2268 H 0.36078 0.69499 0.27152 0.0
H2269 H 0.38334 0.70157 0.28938 0.0
H2270 H 0.37286 0.7513 0.28712 0.0
H2271 H 0.34998 0.74479 0.26977 0.0
H2272 H 0.40995 0.72088 0.28299 0.0
H2273 H 0.37666 0.74456 0.33522 0.0
H2274 H 0.36702 0.73309 0.31923 0.0
H2275 H 0.37199 0.75385 0.31667 0.0
C2276 C 0.36312 0.7073 0.27504 0.0
C2277 C 0.35354 0.71936 0.26926 0.0
C2278 C 0.37607 0.71104 0.28515 0.0
C2279 C 0.37963 0.72689 0.28975 0.0
C2280 C 0.37014 0.73896 0.28397 0.0
H2281 H 0.4552 0.77703 0.34241 0.0
H2282 H 0.43178 0.76907 0.32627 0.0
C2283 C 0.35718 0.73523 0.27389 0.0
C2284 C 0.39365 0.73089 0.30007 0.0
H2285 H 0.40489 0.74914 0.3354 0.0
C2286 C 0.40885 0.72694 0.29451 0.0
C2287 C 0.39215 0.73882 0.31508 0.0
C2288 C 0.37607 0.7427 0.322 0.0
C2289 C 0.42266 0.73105 0.30339 0.0
C2290 C 0.42117 0.73913 0.3183 0.0
C2291 C 0.40597 0.74298 0.32393 0.0
C2292 C 0.43528 0.74383 0.32819 0.0
C2293 C 0.43876 0.72708 0.29658 0.0
C2294 C 0.44485 0.73224 0.33477 0.0
C2295 C 0.45823 0.73674 0.34401 0.0
C2296 C 0.46224 0.75292 0.34686 0.0
C2297 C 0.45249 0.76448 0.3404 0.0
C2298 C 0.43909 0.75996 0.33119 0.0
H2299 H 0.43809 0.72411 0.28355 0.0
H2300 H 0.44751 0.73716 0.29845 0.0
H2301 H 0.44332 0.71662 0.30283 0.0
H2302 H 0.44194 0.71972 0.3328 0.0
H2303 H 0.46544 0.72753 0.34887 0.0
H2304 H 0.95228 0.39718 0.97477 0.0
H2305 H 0.95897 0.3742 0.95795 0.0
H2306 H 0.00914 0.38573 0.96444 0.0
H2307 H 0.00258 0.40882 0.98111 0.0
H2308 H 0.97745 0.37333 0.92925 0.0
H2309 H 0.00445 0.33887 0.97792 0.0
H2310 H 0.99204 0.35563 0.98188 0.0
H2311 H 0.0125 0.3588 0.97592 0.0
C2312 C 0.96474 0.39491 0.97251 0.0
C2313 C 0.9769 0.40479 0.97936 0.0
C2314 C 0.96853 0.38174 0.96297 0.0
C2315 C 0.98454 0.37815 0.96018 0.0
C2316 C 0.99671 0.38812 0.96675 0.0
H2317 H 0.0314 0.30267 0.90794 0.0
H2318 H 0.0251 0.32649 0.92365 0.0
C2319 C 0.99293 0.40129 0.97628 0.0
C2320 C 0.98851 0.36407 0.95025 0.0
H2321 H 0.00679 0.32847 0.95148 0.0
C2322 C 0.98382 0.36349 0.93409 0.0
C2323 C 0.99685 0.35129 0.95664 0.0
C2324 C 0.00166 0.35104 0.97407 0.0
C2325 C 0.98747 0.35054 0.92405 0.0
C2326 C 0.99575 0.33773 0.93045 0.0
C2327 C 0.00047 0.33833 0.94661 0.0
C2328 C 0.99951 0.32347 0.92064 0.0
C2329 C 0.98271 0.35085 0.9066 0.0
C2330 C 0.98719 0.31381 0.91389 0.0
C2331 C 0.99075 0.30021 0.90489 0.0
C2332 C 0.0067 0.29596 0.90258 0.0
C2333 C 0.019 0.30562 0.90946 0.0
C2334 C 0.01543 0.31923 0.91845 0.0
H2335 H 0.98042 0.36311 0.90268 0.0
H2336 H 0.99211 0.34582 0.89882 0.0
H2337 H 0.97155 0.34354 0.90481 0.0
H2338 H 0.97481 0.31668 0.91573 0.0
H2339 H 0.98098 0.29299 0.89983 0.0
H2340 H 0.6538 0.78825 0.27019 0.0
H2341 H 0.63187 0.78305 0.28898 0.0
H2342 H 0.6012 0.768 0.24966 0.0
H2343 H 0.62289 0.77349 0.23072 0.0
H2344 H 0.59995 0.79631 0.28862 0.0
H2345 H 0.59922 0.73044 0.28184 0.0
H2346 H 0.61612 0.74293 0.27602 0.0
H2347 H 0.59871 0.74126 0.26346 0.0
C2348 C 0.64235 0.78399 0.2655 0.0
C2349 C 0.64013 0.78123 0.24893 0.0
C2350 C 0.62987 0.78095 0.27627 0.0
C2351 C 0.61502 0.77496 0.2707 0.0
C2352 C 0.61268 0.77235 0.2542 0.0
H2353 H 0.52531 0.74566 0.31394 0.0
H2354 H 0.54767 0.75176 0.296 0.0
C2355 C 0.62511 0.77545 0.24341 0.0
C2356 C 0.60188 0.77159 0.28212 0.0
H2357 H 0.5783 0.74148 0.29701 0.0
C2358 C 0.59524 0.78433 0.29055 0.0
C2359 C 0.5958 0.75595 0.28452 0.0
C2360 C 0.60287 0.7418 0.2761 0.0
C2361 C 0.58234 0.78188 0.30109 0.0
C2362 C 0.57623 0.76622 0.3035 0.0
C2363 C 0.58299 0.75347 0.29513 0.0
C2364 C 0.56269 0.76277 0.31448 0.0
C2365 C 0.5751 0.79612 0.30916 0.0
C2366 C 0.56378 0.76678 0.33087 0.0
C2367 C 0.55098 0.76338 0.34116 0.0
C2368 C 0.53692 0.75574 0.33526 0.0
C2369 C 0.53595 0.75156 0.31887 0.0
C2370 C 0.54872 0.75503 0.3086 0.0
H2371 H 0.57823 0.8073 0.30281 0.0
H2372 H 0.56189 0.79469 0.30976 0.0
H2373 H 0.57976 0.79738 0.3216 0.0
H2374 H 0.57458 0.77241 0.33574 0.0
H2375 H 0.55214 0.76666 0.35373 0.0
H2376 H 0.02559 0.09982 0.97129 0.0
H2377 H 0.02276 0.12207 0.95311 0.0
H2378 H 0.01045 0.15246 0.99312 0.0
H2379 H 0.01372 0.13045 0.01143 0.0
H2380 H 0.99568 0.13961 0.94776 0.0
H2381 H 0.04598 0.17826 0.9706 0.0
H2382 H 0.04381 0.15745 0.97534 0.0
H2383 H 0.03217 0.17187 0.98585 0.0
C2384 C 0.0225 0.1113 0.97625 0.0
C2385 C 0.01994 0.11338 0.99282 0.0
C2386 C 0.02079 0.12396 0.96584 0.0
C2387 C 0.01661 0.13895 0.9718 0.0
C2388 C 0.01396 0.14106 0.98831 0.0
H2389 H 0.97719 0.21666 0.9199 0.0
H2390 H 0.98196 0.1943 0.93737 0.0
C2391 C 0.01565 0.12842 0.99873 0.0
C2392 C 0.01454 0.15226 0.9607 0.0
H2393 H 0.02802 0.18999 0.95251 0.0
C2394 C 0.00279 0.1506 0.94873 0.0
C2395 C 0.02398 0.1665 0.9619 0.0
C2396 C 0.0373 0.16863 0.97401 0.0
C2397 C -2e-05 0.16296 0.93813 0.0
C2398 C 0.00901 0.17742 0.93971 0.0
C2399 C 0.02101 0.17894 0.95144 0.0
C2400 C 0.0062 0.19109 0.92928 0.0
C2401 C 0.9875 0.16037 0.9252 0.0
C2402 C 0.0184 0.19697 0.91925 0.0
C2403 C 0.01576 0.20981 0.90931 0.0
C2404 C 0.00087 0.21706 0.90929 0.0
C2405 C 0.98876 0.21129 0.91955 0.0
C2406 C 0.99142 0.19845 0.92948 0.0
H2407 H 0.98468 0.14752 0.92297 0.0
H2408 H 0.97634 0.16607 0.92903 0.0
H2409 H 0.9915 0.16578 0.91378 0.0
H2410 H 0.02993 0.1915 0.91901 0.0
H2411 H 0.02535 0.21399 0.90159 0.0
H2412 H 0.37625 0.27444 0.25497 0.0
H2413 H 0.39712 0.27209 0.2346 0.0
H2414 H 0.36293 0.28167 0.19763 0.0
H2415 H 0.34201 0.28409 0.21793 0.0
H2416 H 0.39839 0.25117 0.20869 0.0
H2417 H 0.39923 0.31363 0.18826 0.0
H2418 H 0.38948 0.30748 0.20654 0.0
H2419 H 0.37989 0.30377 0.18748 0.0
C2420 C 0.37317 0.27599 0.2425 0.0
C2421 C 0.35751 0.27952 0.23806 0.0
C2422 C 0.38511 0.27471 0.23089 0.0
C2423 C 0.38162 0.27696 0.21464 0.0
C2424 C 0.36596 0.28028 0.21014 0.0
H2425 H 0.43889 0.27008 0.12772 0.0
H2426 H 0.41704 0.27265 0.14705 0.0
C2427 C 0.35402 0.28163 0.22175 0.0
C2428 C 0.39431 0.2754 0.2024 0.0
H2429 H 0.41468 0.29554 0.1732 0.0
C2430 C 0.40199 0.26088 0.20096 0.0
C2431 C 0.39894 0.28809 0.19231 0.0
C2432 C 0.39157 0.30418 0.19377 0.0
C2433 C 0.41411 0.25866 0.1896 0.0
C2434 C 0.41877 0.27136 0.17958 0.0
C2435 C 0.41102 0.28583 0.1809 0.0
C2436 C 0.43198 0.26995 0.16792 0.0
C2437 C 0.42169 0.24268 0.18828 0.0
C2438 C 0.4476 0.26783 0.17332 0.0
C2439 C 0.46009 0.2664 0.16235 0.0
C2440 C 0.45717 0.2671 0.14576 0.0
C2441 C 0.44152 0.26944 0.14041 0.0
C2442 C 0.42903 0.27092 0.15141 0.0
H2443 H 0.41423 0.23318 0.19398 0.0
H2444 H 0.42371 0.23927 0.17552 0.0
H2445 H 0.43346 0.24334 0.19442 0.0
H2446 H 0.45014 0.26733 0.18603 0.0
H2447 H 0.47201 0.26468 0.16689 0.0
H2448 H 0.5263 0.41914 0.03128 0.0
H2449 H 0.52313 0.39751 0.05031 0.0
H2450 H 0.50463 0.3664 0.01256 0.0
H2451 H 0.50805 0.38788 0.99331 0.0
H2452 H 0.48653 0.36623 0.04224 0.0
H2453 H 0.55141 0.35771 0.05134 0.0
H2454 H 0.54511 0.37782 0.05376 0.0
H2455 H 0.54371 0.36814 0.03441 0.0
C2456 C 0.52172 0.40765 0.02696 0.0
C2457 C 0.51754 0.40521 0.01073 0.0
C2458 C 0.51988 0.39534 0.03787 0.0
C2459 C 0.51384 0.38034 0.03277 0.0
C2460 C 0.50935 0.37791 0.01669 0.0
H2461 H 0.51595 0.29148 0.08357 0.0
H2462 H 0.51853 0.31268 0.06398 0.0
C2463 C 0.51123 0.39021 0.00574 0.0
C2464 C 0.51217 0.36723 0.04427 0.0
H2465 H 0.53361 0.34357 0.06848 0.0
C2466 C 0.4968 0.36123 0.04797 0.0
C2467 C 0.52563 0.36067 0.05156 0.0
C2468 C 0.54243 0.36628 0.04751 0.0
C2469 C 0.49452 0.34899 0.05903 0.0
C2470 C 0.50795 0.34272 0.06663 0.0
C2471 C 0.52334 0.34852 0.06271 0.0
C2472 C 0.50632 0.32998 0.07856 0.0
C2473 C 0.47778 0.34271 0.06236 0.0
C2474 C 0.49877 0.33279 0.09331 0.0
C2475 C 0.49732 0.32072 0.10457 0.0
C2476 C 0.5034 0.30564 0.10125 0.0
C2477 C 0.51109 0.30294 0.08649 0.0
C2478 C 0.51259 0.31503 0.07528 0.0
H2479 H 0.4692 0.34629 0.05304 0.0
H2480 H 0.47744 0.32954 0.06301 0.0
H2481 H 0.47376 0.34753 0.07411 0.0
H2482 H 0.49408 0.34434 0.09614 0.0
H2483 H 0.49136 0.3232 0.11583 0.0
H2484 H 0.6406 0.25771 0.24639 0.0
H2485 H 0.61939 0.26006 0.2264 0.0
H2486 H 0.60788 0.20992 0.22984 0.0
H2487 H 0.6289 0.20748 0.24998 0.0
H2488 H 0.61631 0.24188 0.19594 0.0
H2489 H 0.56469 0.23278 0.23712 0.0
H2490 H 0.58444 0.23864 0.24421 0.0
H2491 H 0.58004 0.21839 0.23816 0.0
C2492 C 0.63343 0.24722 0.24301 0.0
C2493 C 0.63636 0.23242 0.24979 0.0
C2494 C 0.62141 0.24857 0.23154 0.0
C2495 C 0.61202 0.23519 0.22679 0.0
C2496 C 0.61491 0.2204 0.23349 0.0
H2497 H 0.53124 0.21938 0.16299 0.0
H2498 H 0.55325 0.21679 0.1819 0.0
C2499 C 0.62699 0.21902 0.24489 0.0
C2500 C 0.59933 0.23664 0.21464 0.0
H2501 H 0.55893 0.23402 0.20944 0.0
C2502 C 0.60375 0.24022 0.19885 0.0
C2503 C 0.58301 0.2344 0.21854 0.0
C2504 C 0.57767 0.23095 0.23544 0.0
C2505 C 0.59223 0.24134 0.18673 0.0
C2506 C 0.57586 0.23919 0.19065 0.0
C2507 C 0.57148 0.23564 0.20647 0.0
C2508 C 0.56304 0.24062 0.17856 0.0
C2509 C 0.59772 0.24443 0.1698 0.0
C2510 C 0.56122 0.2549 0.17042 0.0
C2511 C 0.54871 0.25639 0.15952 0.0
C2512 C 0.53766 0.24369 0.15672 0.0
C2513 C 0.53954 0.22939 0.16487 0.0
C2514 C 0.5521 0.22789 0.1757 0.0
H2515 H 0.61038 0.24126 0.168 0.0
H2516 H 0.59019 0.23758 0.16095 0.0
H2517 H 0.59678 0.25727 0.16731 0.0
H2518 H 0.5693 0.26501 0.17273 0.0
H2519 H 0.54753 0.2676 0.15353 0.0
H2520 H 0.50008 0.10425 0.01803 0.0
H2521 H 0.50687 0.12808 0.03419 0.0
H2522 H 0.45688 0.1379 0.03878 0.0
H2523 H 0.44995 0.11426 0.02239 0.0
H2524 H 0.49846 0.16042 0.02788 0.0
H2525 H 0.47399 0.13839 0.08564 0.0
H2526 H 0.47831 0.12526 0.06892 0.0
H2527 H 0.46057 0.13667 0.06882 0.0
C2528 C 0.49052 0.11154 0.02236 0.0
C2529 C 0.47446 0.10733 0.01894 0.0
C2530 C 0.49443 0.1251 0.03166 0.0
C2531 C 0.48236 0.1346 0.03782 0.0
C2532 C 0.46634 0.13053 0.03437 0.0
H2533 H 0.48009 0.21997 0.09696 0.0
H2534 H 0.47389 0.19617 0.08059 0.0
C2535 C 0.46241 0.11701 0.02503 0.0
C2536 C 0.48656 0.14895 0.04763 0.0
H2537 H 0.48276 0.16541 0.08508 0.0
C2538 C 0.49511 0.16152 0.04041 0.0
C2539 C 0.4821 0.1503 0.06393 0.0
C2540 C 0.47335 0.13691 0.07238 0.0
C2541 C 0.49906 0.17561 0.049 0.0
C2542 C 0.49464 0.17696 0.06533 0.0
C2543 C 0.48613 0.16434 0.07256 0.0
C2544 C 0.49855 0.19143 0.07513 0.0
C2545 C 0.50756 0.18906 0.04039 0.0
C2546 C 0.51449 0.19655 0.07764 0.0
C2547 C 0.51809 0.21021 0.08693 0.0
C2548 C 0.50579 0.21888 0.09401 0.0
C2549 C 0.48984 0.21358 0.09166 0.0
C2550 C 0.48627 0.19998 0.08231 0.0
H2551 H 0.50623 0.1878 0.02716 0.0
H2552 H 0.50295 0.20073 0.04426 0.0
H2553 H 0.5205 0.18903 0.04324 0.0
H2554 H 0.52417 0.18992 0.07251 0.0
H2555 H 0.5305 0.2139 0.08862 0.0
H2556 H 0.24243 0.38803 0.73172 0.0
H2557 H 0.26261 0.40937 0.73623 0.0
H2558 H 0.2998 0.37711 0.72395 0.0
H2559 H 0.27976 0.35566 0.7196 0.0
H2560 H 0.28905 0.41012 0.75785 0.0
H2561 H 0.30832 0.41526 0.6943 0.0
H2562 H 0.28991 0.40511 0.70002 0.0
H2563 H 0.30862 0.39555 0.70222 0.0
C2564 C 0.25491 0.38544 0.7301 0.0
C2565 C 0.25948 0.37016 0.72523 0.0
C2566 C 0.26641 0.39766 0.7326 0.0
C2567 C 0.28265 0.39485 0.73019 0.0
C2568 C 0.28729 0.37959 0.72554 0.0
H2569 H 0.3689 0.45516 0.73739 0.0
H2570 H 0.34965 0.4328 0.73397 0.0
C2571 C 0.27582 0.36736 0.72305 0.0
C2572 C 0.29476 0.40786 0.73275 0.0
H2573 H 0.32321 0.43048 0.71361 0.0
C2574 C 0.29651 0.41462 0.74819 0.0
C2575 C 0.30448 0.41362 0.72011 0.0
C2576 C 0.30271 0.40713 0.70319 0.0
C2577 C 0.30787 0.42691 0.75137 0.0
C2578 C 0.3175 0.43277 0.7387 0.0
C2579 C 0.31582 0.42593 0.72329 0.0
C2580 C 0.32916 0.44622 0.7411 0.0
C2581 C 0.30965 0.43332 0.76832 0.0
C2582 C 0.32398 0.4612 0.74607 0.0
C2583 C 0.33492 0.47397 0.74807 0.0
C2584 C 0.35126 0.47204 0.74499 0.0
C2585 C 0.35641 0.45704 0.73989 0.0
C2586 C 0.34544 0.44425 0.73792 0.0
H2587 H 0.30472 0.42478 0.7772 0.0
H2588 H 0.32238 0.43609 0.77128 0.0
H2589 H 0.303 0.44446 0.76957 0.0
H2590 H 0.31142 0.46306 0.74825 0.0
H2591 H 0.33054 0.48538 0.75192 0.0
H2592 H 0.24855 0.64371 0.80854 0.0
H2593 H 0.26796 0.62272 0.80569 0.0
H2594 H 0.27332 0.63311 0.7555 0.0
H2595 H 0.25411 0.6543 0.75828 0.0
H2596 H 0.2663 0.59546 0.78366 0.0
H2597 H 0.31967 0.63529 0.77406 0.0
H2598 H 0.30139 0.64228 0.78276 0.0
H2599 H 0.3027 0.63867 0.76152 0.0
C2600 C 0.25395 0.64159 0.79692 0.0
C2601 C 0.24987 0.65069 0.78364 0.0
C2602 C 0.26496 0.62956 0.79531 0.0
C2603 C 0.27218 0.62653 0.78044 0.0
C2604 C 0.268 0.63543 0.76711 0.0
H2605 H 0.34343 0.56101 0.74762 0.0
H2606 H 0.32412 0.58206 0.75025 0.0
C2607 C 0.25693 0.64742 0.76869 0.0
C2608 C 0.28397 0.61392 0.77886 0.0
H2609 H 0.32332 0.60764 0.77129 0.0
C2610 C 0.27879 0.59808 0.781 0.0
C2611 C 0.3002 0.61745 0.77534 0.0
C2612 C 0.30643 0.63434 0.7734 0.0
C2613 C 0.28939 0.58559 0.77946 0.0
C2614 C 0.30568 0.58912 0.77607 0.0
C2615 C 0.31084 0.60498 0.77391 0.0
C2616 C 0.31755 0.57651 0.77467 0.0
C2617 C 0.28298 0.56872 0.78111 0.0
C2618 C 0.32048 0.56662 0.78764 0.0
C2619 C 0.33144 0.55454 0.78615 0.0
C2620 C 0.33981 0.55224 0.77172 0.0
C2621 C 0.33715 0.56244 0.75889 0.0
C2622 C 0.32613 0.57447 0.76037 0.0
H2623 H 0.26984 0.56781 0.77925 0.0
H2624 H 0.28876 0.5606 0.77239 0.0
H2625 H 0.28552 0.5646 0.79339 0.0
H2626 H 0.31428 0.56825 0.79892 0.0
H2627 H 0.33331 0.54698 0.79631 0.0
H2628 H 0.91346 0.46177 0.47303 0.0
H2629 H 0.89047 0.44432 0.47979 0.0
H2630 H 0.86107 0.48516 0.48502 0.0
H2631 H 0.88393 0.50267 0.47819 0.0
H2632 H 0.87075 0.44761 0.50996 0.0
H2633 H 0.83682 0.45274 0.453 0.0
H2634 H 0.85812 0.45673 0.45428 0.0
H2635 H 0.84455 0.47095 0.46216 0.0
C2636 C 0.90205 0.467 0.47546 0.0
C2637 C 0.90047 0.48357 0.47507 0.0
C2638 C 0.88899 0.45704 0.47939 0.0
C2639 C 0.87411 0.46348 0.48277 0.0
C2640 C 0.87245 0.47999 0.48231 0.0
H2641 H 0.77998 0.42428 0.50508 0.0
H2642 H 0.80317 0.44138 0.49856 0.0
C2643 C 0.88553 0.48996 0.47852 0.0
C2644 C 0.86037 0.45299 0.48718 0.0
H2645 H 0.82402 0.43874 0.47393 0.0
C2646 C 0.86053 0.44558 0.5021 0.0
C2647 C 0.84709 0.45053 0.47689 0.0
C2648 C 0.84656 0.45805 0.46062 0.0
C2649 C 0.84756 0.43593 0.50716 0.0
C2650 C 0.83429 0.43332 0.4968 0.0
C2651 C 0.83419 0.44074 0.48185 0.0
C2652 C 0.82036 0.42297 0.50122 0.0
C2653 C 0.84801 0.429 0.52371 0.0
C2654 C 0.8223 0.40692 0.50477 0.0
C2655 C 0.80909 0.39714 0.50864 0.0
C2656 C 0.79365 0.40319 0.50879 0.0
C2657 C 0.79172 0.41925 0.50509 0.0
C2658 C 0.80495 0.42904 0.50135 0.0
H2659 H 0.85655 0.43577 0.53167 0.0
H2660 H 0.83602 0.4289 0.52939 0.0
H2661 H 0.85198 0.41657 0.52279 0.0
H2662 H 0.83402 0.40187 0.50434 0.0
H2663 H 0.81097 0.38479 0.51128 0.0
H2664 H 0.74953 0.8676 0.80132 0.0
H2665 H 0.73031 0.8888 0.79967 0.0
H2666 H 0.72491 0.8794 0.74891 0.0
H2667 H 0.74389 0.85797 0.7505 0.0
H2668 H 0.73223 0.91639 0.77957 0.0
H2669 H 0.67857 0.87745 0.76691 0.0
H2670 H 0.69676 0.86999 0.77509 0.0
H2671 H 0.69551 0.87431 0.75413 0.0
C2672 C 0.74415 0.86997 0.78983 0.0
C2673 C 0.74816 0.86107 0.77605 0.0
C2674 C 0.73326 0.88212 0.7889 0.0
C2675 C 0.72608 0.88549 0.77422 0.0
C2676 C 0.73018 0.8768 0.7604 0.0
H2677 H 0.65596 0.95274 0.74512 0.0
H2678 H 0.67507 0.93148 0.74649 0.0
C2679 C 0.74113 0.86468 0.7613 0.0
C2680 C 0.71444 0.89828 0.77335 0.0
H2681 H 0.67526 0.90521 0.76581 0.0
C2682 C 0.71976 0.91398 0.77661 0.0
C2683 C 0.69822 0.89503 0.76943 0.0
C2684 C 0.69182 0.87828 0.7663 0.0
C2685 C 0.7093 0.92662 0.77582 0.0
C2686 C 0.69303 0.92338 0.77202 0.0
C2687 C 0.68773 0.90765 0.76873 0.0
C2688 C 0.68132 0.93615 0.77136 0.0
C2689 C 0.71586 0.94336 0.7787 0.0
C2690 C 0.67828 0.94562 0.78497 0.0
C2691 C 0.66742 0.95783 0.78421 0.0
C2692 C 0.65927 0.96067 0.76986 0.0
C2693 C 0.66206 0.9509 0.75635 0.0
C2694 C 0.67298 0.93874 0.75711 0.0
H2695 H 0.72903 0.94419 0.77708 0.0
H2696 H 0.7103 0.9518 0.77046 0.0
H2697 H 0.71318 0.94714 0.7912 0.0
H2698 H 0.6843 0.94357 0.7962 0.0
H2699 H 0.66545 0.96504 0.79487 0.0
H2700 H 0.60803 0.51645 0.00402 0.0
H2701 H 0.63161 0.53402 0.00778 0.0
H2702 H 0.63775 0.53629 0.95653 0.0
H2703 H 0.61427 0.51848 0.95261 0.0
H2704 H 0.66325 0.52828 0.99647 0.0
H2705 H 0.63885 0.58351 0.97196 0.0
H2706 H 0.6262 0.56687 0.978 0.0
H2707 H 0.63684 0.56601 0.95933 0.0
C2708 C 0.61444 0.5206 0.99353 0.0
C2709 C 0.60929 0.51602 0.978 0.0
C2710 C 0.62785 0.53071 0.99571 0.0
C2711 C 0.63631 0.53655 0.98244 0.0
C2712 C 0.6312 0.53211 0.96692 0.0
H2713 H 0.72068 0.59951 0.97596 0.0
H2714 H 0.69764 0.58173 0.97001 0.0
C2715 C 0.61778 0.52196 0.96471 0.0
C2716 C 0.65076 0.54689 0.98496 0.0
H2717 H 0.66604 0.58453 0.9796 0.0
C2718 C 0.66388 0.54058 0.99279 0.0
C2719 C 0.65153 0.56288 0.98005 0.0
C2720 C 0.63759 0.57033 0.97197 0.0
C2721 C 0.67782 0.54985 0.99583 0.0
C2722 C 0.6785 0.56595 0.9912 0.0
C2723 C 0.66546 0.57219 0.98316 0.0
C2724 C 0.69253 0.57659 0.99485 0.0
C2725 C 0.69178 0.54227 0.00376 0.0
C2726 C 0.69717 0.57972 0.0108 0.0
C2727 C 0.71035 0.58983 0.01425 0.0
C2728 C 0.71906 0.5971 0.0018 0.0
C2729 C 0.71426 0.59407 0.98583 0.0
C2730 C 0.70109 0.58393 0.9824 0.0
H2731 H 0.69108 0.5291 0.00241 0.0
H2732 H 0.7033 0.54672 0.99866 0.0
H2733 H 0.69172 0.54526 0.01677 0.0
H2734 H 0.6905 0.57444 0.0206 0.0
H2735 H 0.71364 0.592 0.02668 0.0
H2736 H 0.23438 0.64845 0.24098 0.0
H2737 H 0.21753 0.62452 0.24518 0.0
H2738 H 0.21831 0.614 0.19439 0.0
H2739 H 0.23541 0.63771 0.19011 0.0
H2740 H 0.1869 0.61679 0.23091 0.0
H2741 H 0.23236 0.57243 0.21542 0.0
H2742 H 0.23758 0.59295 0.2203 0.0
H2743 H 0.22975 0.58758 0.20082 0.0
C2744 C 0.23109 0.64095 0.23073 0.0
C2745 C 0.23627 0.64493 0.21522 0.0
C2746 C 0.22141 0.62736 0.23314 0.0
C2747 C 0.21686 0.61743 0.22012 0.0
C2748 C 0.22189 0.62141 0.20461 0.0
H2749 H 0.16032 0.5298 0.20921 0.0
H2750 H 0.17697 0.55384 0.20528 0.0
C2751 C 0.23152 0.63503 0.20218 0.0
C2752 C 0.20661 0.60304 0.22272 0.0
H2753 H 0.20588 0.56254 0.21943 0.0
C2754 C 0.19104 0.60491 0.22847 0.0
C2755 C 0.21208 0.5876 0.21948 0.0
C2756 C 0.2289 0.58493 0.21379 0.0
C2757 C 0.18064 0.59172 0.2308 0.0
C2758 C 0.18612 0.57626 0.22759 0.0
C2759 C 0.20172 0.57441 0.22186 0.0
C2760 C 0.17585 0.56183 0.23005 0.0
C2761 C 0.16377 0.59449 0.23628 0.0
C2762 C 0.16985 0.55826 0.24533 0.0
C2763 C 0.16027 0.54457 0.24761 0.0
C2764 C 0.15666 0.5341 0.23467 0.0
C2765 C 0.16285 0.53762 0.21942 0.0
C2766 C 0.17238 0.55135 0.21715 0.0
H2767 H 0.16021 0.60685 0.23401 0.0
H2768 H 0.15514 0.58612 0.23013 0.0
H2769 H 0.16292 0.59251 0.24937 0.0
H2770 H 0.17268 0.56601 0.25553 0.0
H2771 H 0.15579 0.54215 0.25954 0.0
H2772 H 0.91655 0.54395 0.0313 0.0
H2773 H 0.89365 0.56028 0.02568 0.0
H2774 H 0.86546 0.5181 0.01295 0.0
H2775 H 0.88816 0.50163 0.01895 0.0
H2776 H 0.87644 0.56254 0.99677 0.0
H2777 H 0.83782 0.54095 0.04653 0.0
H2778 H 0.85901 0.5377 0.04577 0.0
H2779 H 0.84543 0.52554 0.03375 0.0
C2780 C 0.90542 0.53813 0.02746 0.0
C2781 C 0.90414 0.52148 0.02567 0.0
C2782 C 0.8924 0.54748 0.02416 0.0
C2783 C 0.87782 0.54037 0.01912 0.0
C2784 C 0.87654 0.52379 0.01708 0.0
H2785 H 0.79784 0.58549 0.97473 0.0
H2786 H 0.8209 0.56956 0.98073 0.0
C2787 C 0.88957 0.51442 0.02035 0.0
C2788 C 0.86403 0.55034 0.01578 0.0
H2789 H 0.82585 0.55751 0.02754 0.0
C2790 C 0.86538 0.56148 0.00351 0.0
C2791 C 0.84971 0.54904 0.02474 0.0
C2792 C 0.84788 0.53777 0.03854 0.0
C2793 C 0.85267 0.57121 -0.00024 0.0
C2794 C 0.83819 0.56958 0.0084 0.0
C2795 C 0.83693 0.55862 0.02085 0.0
C2796 C 0.82423 0.57922 0.00477 0.0
C2797 C 0.85492 0.58331 0.98675 0.0
C2798 C 0.81826 0.58967 0.01643 0.0
C2799 C 0.80504 0.59875 0.01308 0.0
C2800 C 0.79749 0.59745 0.99802 0.0
C2801 C 0.80342 0.58684 0.98642 0.0
C2802 C 0.81665 0.57778 0.98978 0.0
H2803 H 0.86776 0.58577 0.9841 0.0
H2804 H 0.84909 0.57868 0.97558 0.0
H2805 H 0.84934 0.59467 0.99017 0.0
H2806 H 0.82391 0.59088 0.0281 0.0
H2807 H 0.80074 0.60678 0.0223 0.0
H2808 H 0.10901 -0.00046 0.04815 0.0
H2809 H 0.13119 0.98154 0.04519 0.0
H2810 H 0.12584 0.98194 0.99378 0.0
H2811 H 0.10344 -0.00031 0.99659 0.0
H2812 H 0.13063 0.95072 0.02926 0.0
H2813 H 0.17383 0.99384 0.00183 0.0
H2814 H 0.15627 -2e-05 0.01254 0.0
H2815 H 0.15452 0.99217 0.99241 0.0
C2816 C 0.11245 0.99571 0.03621 0.0
C2817 C 0.10445 0.00109 0.0226 0.0
C2818 C 0.12519 0.9855 0.03455 0.0
C2819 C 0.13025 0.9806 0.01928 0.0
C2820 C 0.12228 0.98585 0.00567 0.0
H2821 H 0.20432 0.92047 0.983 0.0
H2822 H 0.18214 0.93833 0.98654 0.0
C2823 C 0.10951 0.99602 0.0073 0.0
C2824 C 0.14367 0.96971 0.01759 0.0
H2825 H 0.1815 0.96706 0.0028 0.0
C2826 C 0.1418 0.95428 0.02355 0.0
C2827 C 0.15816 0.97443 0.01009 0.0
C2828 C 0.16095 0.99104 0.00395 0.0
C2829 C 0.15395 0.94328 0.02191 0.0
C2830 C 0.16848 0.948 0.01443 0.0
C2831 C 0.17035 0.96347 0.00853 0.0
C2832 C 0.18184 0.93704 0.01244 0.0
C2833 C 0.15096 0.9266 0.02782 0.0
C2834 C 0.18915 0.93052 0.02584 0.0
C2835 C 0.2018 0.92024 0.02386 0.0
C2836 C 0.20747 0.91642 0.00843 0.0
C2837 C 0.20024 0.92314 0.99505 0.0
C2838 C 0.18756 0.93336 0.99704 0.0
H2839 H 0.138 0.92372 0.02923 0.0
H2840 H 0.15612 0.91771 0.01947 0.0
H2841 H 0.15671 0.92547 0.03971 0.0
H2842 H 0.18516 0.93349 0.03785 0.0
H2843 H 0.20718 0.91537 0.03442 0.0
loop_
_geom_bond_atom_site_label_1
_geom_bond_atom_site_label_2
_geom_bond_distance
_geom_bond_site_symmetry_2
_ccdc_geom_bond_type
C0 C1 1.387 1_556 S
C0 C4 1.344 1_556 S
C0 H42 1.003 . S
C1 C0 1.387 1_554 S
C1 C2 1.413 . S
C2 C1 1.413 . S
C2 H58 0.947 . S
C2 C59 1.392 . S
C3 C4 1.391 . S
C3 C7 1.397 . S
C3 C59 1.419 . S
C4 C0 1.344 1_554 S
C4 C3 1.391 . S
C4 C5 1.399 . S
C5 C4 1.399 . S
C5 C8 1.396 . S
C5 C17 1.453 . S
C5 C18 1.684 1_554 S
H6 C30 0.948 1_565 S
C7 C3 1.397 . S
C7 C8 1.394 . S
C7 C26 1.723 . S
C8 C5 1.396 . S
C8 C7 1.394 . S
C8 C38 1.723 . S
H9 C32 0.947 . S
H10 C33 0.948 . S
H11 C39 0.982 . S
H12 C40 0.976 . S
H13 C40 0.981 1_545 S
H14 C40 0.978 . S
H15 C39 0.979 . S
H16 C39 0.977 . S
C17 C5 1.453 . S
C17 H46 0.982 . S
C17 H47 0.979 . S
C17 H48 0.977 . S
C18 C5 1.684 1_556 S
C18 H43 0.979 . S
C18 H44 0.980 . S
C18 H45 0.983 . S
C19 C20 1.391 . S
C19 C24 1.391 1_655 S
C19 H49 0.948 . S
C20 C19 1.391 . S
C20 C21 1.391 1_655 S
C21 C20 1.391 1_455 S
C21 C22 1.392 . S
C21 H50 0.947 . S
C22 C21 1.392 . S
C22 C23 1.419 . S
C22 H51 0.948 . S
C23 C22 1.419 . S
C23 C24 1.391 . S
C23 C27 1.397 . S
C24 C19 1.391 1_455 S
C24 C23 1.391 . S
C24 C25 1.399 . S
C25 C24 1.399 . S
C25 C26 1.396 . S
C25 C28 1.453 . S
C25 C29 1.684 1_455 S
C26 C7 1.723 . S
C26 C25 1.396 . S
C26 C27 1.394 . S
C27 C23 1.397 . S
C27 C26 1.394 . S
C27 C37 1.723 . S
C28 C25 1.453 . S
C28 H52 0.982 . S
C28 H53 0.979 1_455 S
C28 H54 0.977 . S
C29 C25 1.684 1_655 S
C29 H55 0.979 . S
C29 H56 0.980 . S
C29 H57 0.983 . S
C30 H6 0.948 1_545 S
C30 C31 1.391 . S
C30 C35 1.391 . S
C31 C30 1.391 . S
C31 C32 1.391 . S
C32 H9 0.947 . S
C32 C31 1.391 . S
C32 C33 1.392 . S
C33 H10 0.948 . S
C33 C32 1.392 . S
C33 C34 1.419 . S
C34 C33 1.419 . S
C34 C35 1.391 . S
C34 C38 1.397 . S
C35 C30 1.391 . S
C35 C34 1.391 . S
C35 C36 1.399 . S
C36 C35 1.399 . S
C36 C37 1.396 . S
C36 C39 1.453 . S
C36 C40 1.689 1_545 S
C37 C27 1.723 . S
C37 C36 1.396 . S
C37 C38 1.394 . S
C38 C8 1.723 . S
C38 C34 1.397 . S
C38 C37 1.394 . S
C39 H11 0.982 . S
C39 H15 0.979 . S
C39 H16 0.977 . S
C39 C36 1.453 . S
C40 H12 0.976 . S
C40 H13 0.981 1_565 S
C40 H14 0.978 . S
C40 C36 1.689 1_565 S
H41 C59 0.948 . S
H42 C0 1.003 . S
H43 C18 0.979 . S
H44 C18 0.980 . S
H45 C18 0.983 . S
H46 C17 0.982 . S
H47 C17 0.979 . S
H48 C17 0.977 . S
H49 C19 0.948 . S
H50 C21 0.947 . S
H51 C22 0.948 . S
H52 C28 0.982 . S
H53 C28 0.979 1_655 S
H54 C28 0.977 . S
H55 C29 0.979 . S
H56 C29 0.980 . S
H57 C29 0.983 . S
H58 C2 0.947 . S
C59 C2 1.392 . S
C59 C3 1.419 . S
C59 H41 0.948 . S
C60 C61 1.391 . S
C60 C64 1.391 . S
C60 H102 0.948 . S
C61 C60 1.391 . S
C61 C62 1.391 . S
C62 C61 1.391 . S
C62 H118 0.947 . S
C62 C119 1.392 . S
C63 C64 1.391 . S
C63 C67 1.397 . S
C63 C119 1.419 . S
C64 C60 1.391 . S
C64 C63 1.391 . S
C64 C65 1.399 . S
C65 C64 1.399 . S
C65 C68 1.396 . S
C65 C77 1.453 . S
C65 C78 1.684 . S
H66 C90 0.948 . S
C67 C63 1.397 . S
C67 C68 1.394 . S
C67 C86 1.723 . S
C68 C65 1.396 . S
C68 C67 1.394 . S
C68 C98 1.723 . S
H69 C92 0.947 . S
H70 C93 0.948 . S
H71 C99 0.982 . S
H72 C100 0.979 . S
H73 C100 0.980 . S
H74 C100 0.983 . S
H75 C99 0.979 . S
H76 C99 0.977 . S
C77 C65 1.453 . S
C77 H106 0.982 . S
C77 H107 0.979 . S
C77 H108 0.977 . S
C78 C65 1.684 . S
C78 H103 0.979 . S
C78 H104 0.980 . S
C78 H105 0.983 . S
C79 C80 1.391 . S
C79 C84 1.391 . S
C79 H109 0.948 . S
C80 C79 1.391 . S
C80 C81 1.391 . S
C81 C80 1.391 . S
C81 C82 1.392 . S
C81 H110 0.947 . S
C82 C81 1.392 . S
C82 C83 1.419 . S
C82 H111 0.948 . S
C83 C82 1.419 . S
C83 C84 1.391 . S
C83 C87 1.397 . S
C84 C79 1.391 . S
C84 C83 1.391 . S
C84 C85 1.399 . S
C85 C84 1.399 . S
C85 C86 1.396 . S
C85 C88 1.453 . S
C85 C89 1.684 . S
C86 C67 1.723 . S
C86 C85 1.396 . S
C86 C87 1.394 . S
C87 C83 1.397 . S
C87 C86 1.394 . S
C87 C97 1.723 . S
C88 C85 1.453 . S
C88 H112 0.982 . S
C88 H113 0.979 . S
C88 H114 0.977 . S
C89 C85 1.684 . S
C89 H115 0.979 . S
C89 H116 0.980 . S
C89 H117 0.983 . S
C90 H66 0.948 . S
C90 C91 1.391 . S
C90 C95 1.391 . S
C91 C90 1.391 . S
C91 C92 1.391 . S
C92 H69 0.947 . S
C92 C91 1.391 . S
C92 C93 1.392 . S
C93 H70 0.948 . S
C93 C92 1.392 . S
C93 C94 1.419 . S
C94 C93 1.419 . S
C94 C95 1.391 . S
C94 C98 1.397 . S
C95 C90 1.391 . S
C95 C94 1.391 . S
C95 C96 1.399 . S
C96 C95 1.399 . S
C96 C97 1.396 . S
C96 C99 1.453 . S
C96 C100 1.684 . S
C97 C87 1.723 . S
C97 C96 1.396 . S
C97 C98 1.394 . S
C98 C68 1.723 . S
C98 C94 1.397 . S
C98 C97 1.394 . S
C99 H71 0.982 . S
C99 H75 0.979 . S
C99 H76 0.977 . S
C99 C96 1.453 . S
C100 H72 0.979 . S
C100 H73 0.980 . S
C100 H74 0.983 . S
C100 C96 1.684 . S
H101 C119 0.948 . S
H102 C60 0.948 . S
H103 C78 0.979 . S
H104 C78 0.980 . S
H105 C78 0.983 . S
H106 C77 0.982 . S
H107 C77 0.979 . S
H108 C77 0.977 . S
H109 C79 0.948 . S
H110 C81 0.947 . S
H111 C82 0.948 . S
H112 C88 0.982 . S
H113 C88 0.979 . S
H114 C88 0.977 . S
H115 C89 0.979 . S
H116 C89 0.980 . S
H117 C89 0.983 . S
H118 C62 0.947 . S
C119 C62 1.392 . S
C119 C63 1.419 . S
C119 H101 0.948 . S
C120 C121 1.391 1_554 S
C120 C124 1.391 . S
C120 H162 0.948 . S
C121 C120 1.391 1_556 S
C121 C122 1.391 . S
C122 C121 1.391 . S
C122 H178 0.947 . S
C122 C179 1.392 . S
C123 C124 1.391 . S
C123 C127 1.397 . S
C123 C179 1.419 1_554 S
C124 C120 1.391 . S
C124 C123 1.391 . S
C124 C125 1.399 . S
C125 C124 1.399 . S
C125 C128 1.396 . S
C125 C137 1.453 . S
C125 C138 1.684 1_655 S
H126 C150 0.948 . S
C127 C123 1.397 . S
C127 C128 1.394 . S
C127 C146 1.723 . S
C128 C125 1.396 . S
C128 C127 1.394 . S
C128 C158 1.723 . S
H129 C152 0.947 . S
H130 C153 0.948 . S
H131 C159 0.982 . S
H132 C160 0.979 . S
H133 C160 0.980 . S
H134 C160 0.983 . S
H135 C159 0.979 . S
H136 C159 0.977 . S
C137 C125 1.453 . S
C137 H166 0.982 . S
C137 H167 0.979 . S
C137 H168 0.977 . S
C138 C125 1.684 1_455 S
C138 H163 0.979 . S
C138 H164 0.980 . S
C138 H165 0.983 . S
C139 C140 1.391 . S
C139 C144 1.391 . S
C139 H169 0.948 . S
C140 C139 1.391 . S
C140 C141 1.391 . S
C141 C140 1.391 . S
C141 C142 1.392 . S
C141 H170 0.947 . S
C142 C141 1.392 . S
C142 C143 1.419 . S
C142 H171 0.948 . S
C143 C142 1.419 . S
C143 C144 1.391 . S
C143 C147 1.397 . S
C144 C139 1.391 . S
C144 C143 1.391 . S
C144 C145 1.399 . S
C145 C144 1.399 . S
C145 C146 1.396 . S
C145 C148 1.453 . S
C145 C149 1.684 1_554 S
C146 C127 1.723 . S
C146 C145 1.396 . S
C146 C147 1.394 . S
C147 C143 1.397 . S
C147 C146 1.394 . S
C147 C157 1.723 . S
C148 C145 1.453 . S
C148 H172 0.982 . S
C148 H173 0.979 . S
C148 H174 0.977 . S
C149 C145 1.684 1_556 S
C149 H175 0.979 . S
C149 H176 0.980 . S
C149 H177 0.983 . S
C150 H126 0.948 . S
C150 C151 1.391 1_655 S
C150 C155 1.391 . S
C151 C150 1.391 1_455 S
C151 C152 1.391 . S
C152 H129 0.947 . S
C152 C151 1.391 . S
C152 C153 1.392 . S
C153 H130 0.948 . S
C153 C152 1.392 . S
C153 C154 1.419 1_455 S
C154 C153 1.419 1_655 S
C154 C155 1.391 . S
C154 C158 1.397 . S
C155 C150 1.391 . S
C155 C154 1.391 . S
C155 C156 1.399 . S
C156 C155 1.399 . S
C156 C157 1.396 . S
C156 C159 1.453 . S
C156 C160 1.684 . S
C157 C147 1.723 . S
C157 C156 1.396 . S
C157 C158 1.394 . S
C158 C128 1.723 . S
C158 C154 1.397 . S
C158 C157 1.394 . S
C159 H131 0.982 . S
C159 H135 0.979 . S
C159 H136 0.977 . S
C159 C156 1.453 . S
C160 H132 0.979 . S
C160 H133 0.980 . S
C160 H134 0.983 . S
C160 C156 1.684 . S
H161 C179 0.948 . S
H162 C120 0.948 . S
H163 C138 0.979 . S
H164 C138 0.980 . S
H165 C138 0.983 . S
H166 C137 0.982 . S
H167 C137 0.979 . S
H168 C137 0.977 . S
H169 C139 0.948 . S
H170 C141 0.947 . S
H171 C142 0.948 . S
H172 C148 0.982 . S
H173 C148 0.979 . S
H174 C148 0.977 . S
H175 C149 0.979 . S
H176 C149 0.980 . S
H177 C149 0.983 . S
H178 C122 0.947 . S
C179 C122 1.392 . S
C179 C123 1.419 1_556 S
C179 H161 0.948 . S
C180 C181 1.391 . S
C180 C184 1.391 . S
C180 H222 0.948 . S
C181 C180 1.391 . S
C181 C182 1.391 . S
C182 C181 1.391 . S
C182 H238 0.947 . S
C182 C239 1.392 . S
C183 C184 1.391 . S
C183 C187 1.397 . S
C183 C239 1.419 . S
C184 C180 1.391 . S
C184 C183 1.391 . S
C184 C185 1.399 . S
C185 C184 1.399 . S
C185 C188 1.396 . S
C185 C197 1.453 . S
C185 C198 1.684 . S
H186 C210 0.948 . S
C187 C183 1.397 . S
C187 C188 1.394 . S
C187 C206 1.723 . S
C188 C185 1.396 . S
C188 C187 1.394 . S
C188 C218 1.723 . S
H189 C212 0.947 . S
H190 C213 0.948 . S
H191 C219 0.982 . S
H192 C220 0.979 . S
H193 C220 0.980 . S
H194 C220 0.983 . S
H195 C219 0.979 . S
H196 C219 0.977 . S
C197 C185 1.453 . S
C197 H226 0.982 . S
C197 H227 0.979 . S
C197 H228 0.977 . S
C198 C185 1.684 . S
C198 H223 0.979 . S
C198 H224 0.980 . S
C198 H225 0.983 . S
C199 C200 1.391 . S
C199 C204 1.391 . S
C199 H229 0.948 . S
C200 C199 1.391 . S
C200 C201 1.391 . S
C201 C200 1.391 . S
C201 C202 1.392 . S
C201 H230 0.947 . S
C202 C201 1.392 . S
C202 C203 1.419 . S
C202 H231 0.948 . S
C203 C202 1.419 . S
C203 C204 1.391 . S
C203 C207 1.397 . S
C204 C199 1.391 . S
C204 C203 1.391 . S
C204 C205 1.399 . S
C205 C204 1.399 . S
C205 C206 1.396 . S
C205 C208 1.453 . S
C205 C209 1.684 . S
C206 C187 1.723 . S
C206 C205 1.396 . S
C206 C207 1.394 . S
C207 C203 1.397 . S
C207 C206 1.394 . S
C207 C217 1.723 . S
C208 C205 1.453 . S
C208 H232 0.982 . S
C208 H233 0.979 . S
C208 H234 0.977 . S
C209 C205 1.684 . S
C209 H235 0.979 . S
C209 H236 0.980 . S
C209 H237 0.983 . S
C210 H186 0.948 . S
C210 C211 1.391 . S
C210 C215 1.391 . S
C211 C210 1.391 . S
C211 C212 1.391 . S
C212 H189 0.947 . S
C212 C211 1.391 . S
C212 C213 1.392 . S
C213 H190 0.948 . S
C213 C212 1.392 . S
C213 C214 1.419 . S
C214 C213 1.419 . S
C214 C215 1.391 . S
C214 C218 1.397 . S
C215 C210 1.391 . S
C215 C214 1.391 . S
C215 C216 1.399 . S
C216 C215 1.399 . S
C216 C217 1.396 . S
C216 C219 1.453 . S
C216 C220 1.684 . S
C217 C207 1.723 . S
C217 C216 1.396 . S
C217 C218 1.394 . S
C218 C188 1.723 . S
C218 C214 1.397 . S
C218 C217 1.394 . S
C219 H191 0.982 . S
C219 H195 0.979 . S
C219 H196 0.977 . S
C219 C216 1.453 . S
C220 H192 0.979 . S
C220 H193 0.980 . S
C220 H194 0.983 . S
C220 C216 1.684 . S
H221 C239 0.948 . S
H222 C180 0.948 . S
H223 C198 0.979 . S
H224 C198 0.980 . S
H225 C198 0.983 . S
H226 C197 0.982 . S
H227 C197 0.979 . S
H228 C197 0.977 . S
H229 C199 0.948 . S
H230 C201 0.947 . S
H231 C202 0.948 . S
H232 C208 0.982 . S
H233 C208 0.979 . S
H234 C208 0.977 . S
H235 C209 0.979 . S
H236 C209 0.980 . S
H237 C209 0.983 . S
H238 C182 0.947 . S
C239 C182 1.392 . S
C239 C183 1.419 . S
C239 H221 0.948 . S
C240 C241 1.391 . S
C240 C244 1.391 . S
C240 H282 0.948 . S
C241 C240 1.391 . S
C241 C242 1.391 . S
C242 C241 1.391 . S
C242 H298 0.947 . S
C242 C299 1.392 . S
C243 C244 1.391 . S
C243 C247 1.397 . S
C243 C299 1.419 . S
C244 C240 1.391 . S
C244 C243 1.391 . S
C244 C245 1.399 . S
C245 C244 1.399 . S
C245 C248 1.396 . S
C245 C257 1.453 . S
C245 C258 1.684 . S
H246 C270 0.948 . S
C247 C243 1.397 . S
C247 C248 1.394 . S
C247 C266 1.723 . S
C248 C245 1.396 . S
C248 C247 1.394 . S
C248 C278 1.723 . S
H249 C272 0.947 . S
H250 C273 0.948 . S
H251 C279 0.982 . S
H252 C280 0.979 1_565 S
H253 C280 0.980 . S
H254 C280 0.983 . S
H255 C279 0.979 . S
H256 C279 0.977 . S
C257 C245 1.453 . S
C257 H286 0.982 . S
C257 H287 0.979 . S
C257 H288 0.977 . S
C258 C245 1.684 . S
C258 H283 0.979 . S
C258 H284 0.980 . S
C258 H285 0.983 . S
C259 C260 1.391 . S
C259 C264 1.391 1_655 S
C259 H289 0.948 . S
C260 C259 1.391 . S
C260 C261 1.391 1_655 S
C261 C260 1.391 1_455 S
C261 C262 1.392 . S
C261 H290 0.947 1_565 S
C262 C261 1.392 . S
C262 C263 1.419 . S
C262 H291 0.950 1_565 S
C263 C262 1.419 . S
C263 C264 1.391 . S
C263 C267 1.397 . S
C264 C259 1.391 1_455 S
C264 C263 1.391 . S
C264 C265 1.399 . S
C265 C264 1.399 . S
C265 C266 1.396 . S
C265 C268 1.453 1_455 S
C265 C269 1.684 . S
C266 C247 1.723 . S
C266 C265 1.396 . S
C266 C267 1.394 . S
C267 C263 1.397 . S
C267 C266 1.394 . S
C267 C277 1.723 . S
C268 C265 1.453 1_655 S
C268 H292 0.982 . S
C268 H293 0.979 . S
C268 H294 0.977 . S
C269 C265 1.684 . S
C269 H295 0.979 . S
C269 H296 0.980 . S
C269 H297 0.983 1_455 S
C270 H246 0.948 . S
C270 C271 1.391 . S
C270 C275 1.391 . S
C271 C270 1.391 . S
C271 C272 1.391 1_545 S
C272 H249 0.947 . S
C272 C271 1.391 1_565 S
C272 C273 1.392 . S
C273 H250 0.948 . S
C273 C272 1.392 . S
C273 C274 1.419 . S
C274 C273 1.419 . S
C274 C275 1.391 1_565 S
C274 C278 1.397 . S
C275 C270 1.391 . S
C275 C274 1.391 1_545 S
C275 C276 1.400 . S
C276 C275 1.400 . S
C276 C277 1.378 1_545 S
C276 C279 1.476 . S
C276 C280 1.688 . S
C277 C267 1.723 . S
C277 C276 1.378 1_565 S
C277 C278 1.394 . S
C278 C248 1.723 . S
C278 C274 1.397 . S
C278 C277 1.394 . S
C279 H251 0.982 . S
C279 H255 0.979 . S
C279 H256 0.977 . S
C279 C276 1.476 . S
C280 H252 0.979 1_545 S
C280 H253 0.980 . S
C280 H254 0.983 . S
C280 C276 1.688 . S
H281 C299 0.948 . S
H282 C240 0.948 . S
H283 C258 0.979 . S
H284 C258 0.980 . S
H285 C258 0.983 . S
H286 C257 0.982 . S
H287 C257 0.979 . S
H288 C257 0.977 . S
H289 C259 0.948 . S
H290 C261 0.947 1_545 S
H291 C262 0.950 1_545 S
H292 C268 0.982 . S
H293 C268 0.979 . S
H294 C268 0.977 . S
H295 C269 0.979 . S
H296 C269 0.980 . S
H297 C269 0.983 1_655 S
H298 C242 0.947 . S
C299 C242 1.392 . S
C299 C243 1.419 . S
C299 H281 0.948 . S
C300 C301 1.391 . S
C300 C304 1.391 . S
C300 H342 0.948 . S
C301 C300 1.391 . S
C301 C302 1.391 . S
C302 C301 1.391 . S
C302 H358 0.947 . S
C302 C359 1.392 . S
C303 C304 1.391 . S
C303 C307 1.397 . S
C303 C359 1.419 . S
C304 C300 1.391 . S
C304 C303 1.391 . S
C304 C305 1.399 . S
C305 C304 1.399 . S
C305 C308 1.396 . S
C305 C317 1.453 . S
C305 C318 1.684 . S
H306 C330 0.948 . S
C307 C303 1.397 . S
C307 C308 1.394 . S
C307 C326 1.723 . S
C308 C305 1.396 . S
C308 C307 1.394 . S
C308 C338 1.723 . S
H309 C332 0.947 . S
H310 C333 0.948 . S
H311 C339 0.982 . S
H312 C340 0.979 . S
H313 C340 0.980 . S
H314 C340 0.983 . S
H315 C339 0.979 . S
H316 C339 0.977 . S
C317 C305 1.453 . S
C317 H346 0.982 . S
C317 H347 0.979 . S
C317 H348 0.977 . S
C318 C305 1.684 . S
C318 H343 0.979 . S
C318 H344 0.980 . S
C318 H345 0.983 . S
C319 C320 1.391 . S
C319 C324 1.391 . S
C319 H349 0.948 . S
C320 C319 1.391 . S
C320 C321 1.391 . S
C321 C320 1.391 . S
C321 C322 1.392 . S
C321 H350 0.947 . S
C322 C321 1.392 . S
C322 C323 1.419 . S
C322 H351 0.948 . S
C323 C322 1.419 . S
C323 C324 1.391 . S
C323 C327 1.397 . S
C324 C319 1.391 . S
C324 C323 1.391 . S
C324 C325 1.399 . S
C325 C324 1.399 . S
C325 C326 1.396 . S
C325 C328 1.453 . S
C325 C329 1.684 . S
C326 C307 1.723 . S
C326 C325 1.396 . S
C326 C327 1.394 . S
C327 C323 1.397 . S
C327 C326 1.394 . S
C327 C337 1.723 . S
C328 C325 1.453 . S
C328 H352 0.982 . S
C328 H353 0.979 . S
C328 H354 0.977 . S
C329 C325 1.684 . S
C329 H355 0.979 . S
C329 H356 0.980 . S
C329 H357 0.983 . S
C330 H306 0.948 . S
C330 C331 1.391 . S
C330 C335 1.391 . S
C331 C330 1.391 . S
C331 C332 1.391 . S
C332 H309 0.947 . S
C332 C331 1.391 . S
C332 C333 1.392 . S
C333 H310 0.948 . S
C333 C332 1.392 . S
C333 C334 1.419 . S
C334 C333 1.419 . S
C334 C335 1.391 . S
C334 C338 1.397 . S
C335 C330 1.391 . S
C335 C334 1.391 . S
C335 C336 1.399 . S
C336 C335 1.399 . S
C336 C337 1.396 . S
C336 C339 1.453 . S
C336 C340 1.684 . S
C337 C327 1.723 . S
C337 C336 1.396 . S
C337 C338 1.394 . S
C338 C308 1.723 . S
C338 C334 1.397 . S
C338 C337 1.394 . S
C339 H311 0.982 . S
C339 H315 0.979 . S
C339 H316 0.977 . S
C339 C336 1.453 . S
C340 H312 0.979 . S
C340 H313 0.980 . S
C340 H314 0.983 . S
C340 C336 1.684 . S
H341 C359 0.948 . S
H342 C300 0.948 . S
H343 C318 0.979 . S
H344 C318 0.980 . S
H345 C318 0.983 . S
H346 C317 0.982 . S
H347 C317 0.979 . S
H348 C317 0.977 . S
H349 C319 0.948 . S
H350 C321 0.947 . S
H351 C322 0.948 . S
H352 C328 0.982 . S
H353 C328 0.979 . S
H354 C328 0.977 . S
H355 C329 0.979 . S
H356 C329 0.980 . S
H357 C329 0.983 . S
H358 C302 0.947 . S
C359 C302 1.392 . S
C359 C303 1.419 . S
C359 H341 0.948 . S
C360 C361 1.391 . S
C360 C364 1.391 . S
C360 H402 0.948 . S
C361 C360 1.391 . S
C361 C362 1.391 . S
C362 C361 1.391 . S
C362 H418 0.947 . S
C362 C419 1.392 . S
C363 C364 1.391 . S
C363 C367 1.397 . S
C363 C419 1.419 . S
C364 C360 1.391 . S
C364 C363 1.391 . S
C364 C365 1.399 . S
C365 C364 1.399 . S
C365 C368 1.396 . S
C365 C377 1.453 . S
C365 C378 1.684 . S
H366 C390 0.948 . S
C367 C363 1.397 . S
C367 C368 1.394 . S
C367 C386 1.723 . S
C368 C365 1.396 . S
C368 C367 1.394 . S
C368 C398 1.723 . S
H369 C392 0.947 . S
H370 C393 0.948 . S
H371 C399 0.982 . S
H372 C400 0.979 . S
H373 C400 0.980 . S
H374 C400 0.983 . S
H375 C399 0.979 . S
H376 C399 0.977 . S
C377 C365 1.453 . S
C377 H406 0.982 . S
C377 H407 0.979 . S
C377 H408 0.977 . S
C378 C365 1.684 . S
C378 H403 0.979 . S
C378 H404 0.980 . S
C378 H405 0.983 . S
C379 C380 1.391 1_655 S
C379 C384 1.391 . S
C379 H409 0.948 . S
C380 C379 1.391 1_455 S
C380 C381 1.391 . S
C381 C380 1.391 . S
C381 C382 1.392 . S
C381 H410 0.947 . S
C382 C381 1.392 . S
C382 C383 1.419 1_455 S
C382 H411 0.948 . S
C383 C382 1.419 1_655 S
C383 C384 1.391 . S
C383 C387 1.397 . S
C384 C379 1.391 . S
C384 C383 1.391 . S
C384 C385 1.399 . S
C385 C384 1.399 . S
C385 C386 1.396 . S
C385 C388 1.453 . S
C385 C389 1.684 . S
C386 C367 1.723 . S
C386 C385 1.396 . S
C386 C387 1.394 . S
C387 C383 1.397 . S
C387 C386 1.394 . S
C387 C397 1.723 . S
C388 C385 1.453 . S
C388 H412 0.982 . S
C388 H413 0.979 . S
C388 H414 0.977 . S
C389 C385 1.684 . S
C389 H415 0.979 . S
C389 H416 0.980 . S
C389 H417 0.983 . S
C390 H366 0.948 . S
C390 C391 1.391 . S
C390 C395 1.391 . S
C391 C390 1.391 . S
C391 C392 1.391 . S
C392 H369 0.947 . S
C392 C391 1.391 . S
C392 C393 1.392 . S
C393 H370 0.948 . S
C393 C392 1.392 . S
C393 C394 1.419 . S
C394 C393 1.419 . S
C394 C395 1.391 . S
C394 C398 1.397 . S
C395 C390 1.391 . S
C395 C394 1.391 . S
C395 C396 1.399 . S
C396 C395 1.399 . S
C396 C397 1.396 . S
C396 C399 1.453 . S
C396 C400 1.684 1_655 S
C397 C387 1.723 . S
C397 C396 1.396 . S
C397 C398 1.394 . S
C398 C368 1.723 . S
C398 C394 1.397 . S
C398 C397 1.394 . S
C399 H371 0.982 . S
C399 H375 0.979 . S
C399 H376 0.977 . S
C399 C396 1.453 . S
C400 H372 0.979 . S
C400 H373 0.980 . S
C400 H374 0.983 . S
C400 C396 1.684 1_455 S
H401 C419 0.948 . S
H402 C360 0.948 . S
H403 C378 0.979 . S
H404 C378 0.980 . S
H405 C378 0.983 . S
H406 C377 0.982 . S
H407 C377 0.979 . S
H408 C377 0.977 . S
H409 C379 0.948 . S
H410 C381 0.947 . S
H411 C382 0.948 . S
H412 C388 0.982 . S
H413 C388 0.979 . S
H414 C388 0.977 . S
H415 C389 0.979 . S
H416 C389 0.980 . S
H417 C389 0.983 . S
H418 C362 0.947 . S
C419 C362 1.392 . S
C419 C363 1.419 . S
C419 H401 0.948 . S
C420 C421 1.391 . S
C420 C424 1.391 . S
C420 H462 0.948 . S
C421 C420 1.391 . S
C421 C422 1.391 . S
C422 C421 1.391 . S
C422 H478 0.947 . S
C422 C479 1.392 . S
C423 C424 1.391 . S
C423 C427 1.397 . S
C423 C479 1.419 . S
C424 C420 1.391 . S
C424 C423 1.391 . S
C424 C425 1.399 . S
C425 C424 1.399 . S
C425 C428 1.396 . S
C425 C437 1.453 . S
C425 C438 1.684 . S
H426 C450 0.948 . S
C427 C423 1.397 . S
C427 C428 1.394 . S
C427 C446 1.723 . S
C428 C425 1.396 . S
C428 C427 1.394 . S
C428 C458 1.723 . S
H429 C452 0.947 . S
H430 C453 0.948 . S
H431 C459 0.982 . S
H432 C460 0.979 . S
H433 C460 0.980 . S
H434 C460 0.983 . S
H435 C459 0.979 . S
H436 C459 0.977 . S
C437 C425 1.453 . S
C437 H466 0.982 . S
C437 H467 0.979 . S
C437 H468 0.977 . S
C438 C425 1.684 . S
C438 H463 0.979 . S
C438 H464 0.980 . S
C438 H465 0.983 . S
C439 C440 1.391 . S
C439 C444 1.391 . S
C439 H469 0.948 . S
C440 C439 1.391 . S
C440 C441 1.391 . S
C441 C440 1.391 . S
C441 C442 1.392 . S
C441 H470 0.947 . S
C442 C441 1.392 . S
C442 C443 1.419 . S
C442 H471 0.948 . S
C443 C442 1.419 . S
C443 C444 1.391 . S
C443 C447 1.397 . S
C444 C439 1.391 . S
C444 C443 1.391 . S
C444 C445 1.399 . S
C445 C444 1.399 . S
C445 C446 1.396 . S
C445 C448 1.453 . S
C445 C449 1.684 . S
C446 C427 1.723 . S
C446 C445 1.396 . S
C446 C447 1.394 . S
C447 C443 1.397 . S
C447 C446 1.394 . S
C447 C457 1.723 . S
C448 C445 1.453 . S
C448 H472 0.982 . S
C448 H473 0.979 . S
C448 H474 0.977 . S
C449 C445 1.684 . S
C449 H475 0.979 . S
C449 H476 0.980 . S
C449 H477 0.983 . S
C450 H426 0.948 . S
C450 C451 1.391 . S
C450 C455 1.391 . S
C451 C450 1.391 . S
C451 C452 1.391 . S
C452 H429 0.947 . S
C452 C451 1.391 . S
C452 C453 1.392 . S
C453 H430 0.948 . S
C453 C452 1.392 . S
C453 C454 1.419 . S
C454 C453 1.419 . S
C454 C455 1.391 . S
C454 C458 1.397 . S
C455 C450 1.391 . S
C455 C454 1.391 . S
C455 C456 1.399 . S
C456 C455 1.399 . S
C456 C457 1.396 . S
C456 C459 1.453 . S
C456 C460 1.684 . S
C457 C447 1.723 . S
C457 C456 1.396 . S
C457 C458 1.394 . S
C458 C428 1.723 . S
C458 C454 1.397 . S
C458 C457 1.394 . S
C459 H431 0.982 . S
C459 H435 0.979 . S
C459 H436 0.977 . S
C459 C456 1.453 . S
C460 H432 0.979 . S
C460 H433 0.980 . S
C460 H434 0.983 . S
C460 C456 1.684 . S
H461 C479 0.948 . S
H462 C420 0.948 . S
H463 C438 0.979 . S
H464 C438 0.980 . S
H465 C438 0.983 . S
H466 C437 0.982 . S
H467 C437 0.979 . S
H468 C437 0.977 . S
H469 C439 0.948 . S
H470 C441 0.947 . S
H471 C442 0.948 . S
H472 C448 0.982 . S
H473 C448 0.979 . S
H474 C448 0.977 . S
H475 C449 0.979 . S
H476 C449 0.980 . S
H477 C449 0.983 . S
H478 C422 0.947 . S
C479 C422 1.392 . S
C479 C423 1.419 . S
C479 H461 0.948 . S
C480 C481 1.391 . S
C480 C484 1.391 . S
C480 H522 0.948 . S
C481 C480 1.391 . S
C481 C482 1.391 . S
C482 C481 1.391 . S
C482 H538 0.947 . S
C482 C539 1.392 . S
C483 C484 1.391 . S
C483 C487 1.397 . S
C483 C539 1.419 . S
C484 C480 1.391 . S
C484 C483 1.391 . S
C484 C485 1.399 . S
C485 C484 1.399 . S
C485 C488 1.396 . S
C485 C497 1.453 . S
C485 C498 1.684 . S
H486 C510 0.948 . S
C487 C483 1.397 . S
C487 C488 1.394 . S
C487 C506 1.723 . S
C488 C485 1.396 . S
C488 C487 1.394 . S
C488 C518 1.723 . S
H489 C512 0.947 . S
H490 C513 0.948 . S
H491 C519 0.982 . S
H492 C520 0.979 . S
H493 C520 0.980 . S
H494 C520 0.983 . S
H495 C519 0.979 . S
H496 C519 0.977 . S
C497 C485 1.453 . S
C497 H526 0.982 . S
C497 H527 0.979 . S
C497 H528 0.977 . S
C498 C485 1.684 . S
C498 H523 0.979 . S
C498 H524 0.980 . S
C498 H525 0.983 . S
C499 C500 1.391 . S
C499 C504 1.391 . S
C499 H529 0.948 . S
C500 C499 1.391 . S
C500 C501 1.391 . S
C501 C500 1.391 . S
C501 C502 1.392 . S
C501 H530 0.947 . S
C502 C501 1.392 . S
C502 C503 1.419 . S
C502 H531 0.948 . S
C503 C502 1.419 . S
C503 C504 1.391 . S
C503 C507 1.397 . S
C504 C499 1.391 . S
C504 C503 1.391 . S
C504 C505 1.399 . S
C505 C504 1.399 . S
C505 C506 1.396 . S
C505 C508 1.453 . S
C505 C509 1.684 . S
C506 C487 1.723 . S
C506 C505 1.396 . S
C506 C507 1.394 . S
C507 C503 1.397 . S
C507 C506 1.394 . S
C507 C517 1.723 . S
C508 C505 1.453 . S
C508 H532 0.982 . S
C508 H533 0.979 . S
C508 H534 0.977 . S
C509 C505 1.684 . S
C509 H535 0.979 . S
C509 H536 0.980 . S
C509 H537 0.983 . S
C510 H486 0.948 . S
C510 C511 1.391 . S
C510 C515 1.391 . S
C511 C510 1.391 . S
C511 C512 1.391 . S
C512 H489 0.947 . S
C512 C511 1.391 . S
C512 C513 1.392 . S
C513 H490 0.948 . S
C513 C512 1.392 . S
C513 C514 1.419 . S
C514 C513 1.419 . S
C514 C515 1.391 . S
C514 C518 1.397 . S
C515 C510 1.391 . S
C515 C514 1.391 . S
C515 C516 1.399 . S
C516 C515 1.399 . S
C516 C517 1.396 . S
C516 C519 1.453 . S
C516 C520 1.684 . S
C517 C507 1.723 . S
C517 C516 1.396 . S
C517 C518 1.394 . S
C518 C488 1.723 . S
C518 C514 1.397 . S
C518 C517 1.394 . S
C519 H491 0.982 . S
C519 H495 0.979 . S
C519 H496 0.977 . S
C519 C516 1.453 . S
C520 H492 0.979 . S
C520 H493 0.980 . S
C520 H494 0.983 . S
C520 C516 1.684 . S
H521 C539 0.948 . S
H522 C480 0.948 . S
H523 C498 0.979 . S
H524 C498 0.980 . S
H525 C498 0.983 . S
H526 C497 0.982 . S
H527 C497 0.979 . S
H528 C497 0.977 . S
H529 C499 0.948 . S
H530 C501 0.947 . S
H531 C502 0.948 . S
H532 C508 0.982 . S
H533 C508 0.979 . S
H534 C508 0.977 . S
H535 C509 0.979 . S
H536 C509 0.980 . S
H537 C509 0.983 . S
H538 C482 0.947 . S
C539 C482 1.392 . S
C539 C483 1.419 . S
C539 H521 0.948 . S
C540 C541 1.391 . S
C540 C544 1.391 . S
C540 H582 0.948 . S
C541 C540 1.391 . S
C541 C542 1.391 . S
C542 C541 1.391 . S
C542 H598 0.947 . S
C542 C599 1.392 . S
C543 C544 1.391 . S
C543 C547 1.397 . S
C543 C599 1.419 . S
C544 C540 1.391 . S
C544 C543 1.391 . S
C544 C545 1.399 . S
C545 C544 1.399 . S
C545 C548 1.396 . S
C545 C557 1.453 . S
C545 C558 1.684 . S
H546 C570 0.948 . S
C547 C543 1.397 . S
C547 C548 1.394 . S
C547 C566 1.723 . S
C548 C545 1.396 . S
C548 C547 1.394 . S
C548 C578 1.723 . S
H549 C572 0.947 . S
H550 C573 0.948 . S
H551 C579 0.982 . S
H552 C580 0.979 . S
H553 C580 0.980 . S
H554 C580 0.983 . S
H555 C579 0.979 . S
H556 C579 0.977 . S
C557 C545 1.453 . S
C557 H586 0.982 . S
C557 H587 0.979 . S
C557 H588 0.977 . S
C558 C545 1.684 . S
C558 H583 0.979 . S
C558 H584 0.980 . S
C558 H585 0.983 . S
C559 C560 1.391 1_565 S
C559 C564 1.391 . S
C559 H589 0.948 . S
C560 C559 1.391 1_545 S
C560 C561 1.391 . S
C561 C560 1.391 . S
C561 C562 1.392 . S
C561 H590 0.947 . S
C562 C561 1.392 . S
C562 C563 1.419 1_545 S
C562 H591 0.948 . S
C563 C562 1.419 1_565 S
C563 C564 1.391 . S
C563 C567 1.397 . S
C564 C559 1.391 . S
C564 C563 1.391 . S
C564 C565 1.399 . S
C565 C564 1.399 . S
C565 C566 1.396 . S
C565 C568 1.453 . S
C565 C569 1.684 . S
C566 C547 1.723 . S
C566 C565 1.396 . S
C566 C567 1.394 . S
C567 C563 1.397 . S
C567 C566 1.394 . S
C567 C577 1.723 . S
C568 C565 1.453 . S
C568 H592 0.982 . S
C568 H593 0.979 . S
C568 H594 0.977 . S
C569 C565 1.684 . S
C569 H595 0.979 . S
C569 H596 0.980 . S
C569 H597 0.983 . S
C570 H546 0.948 . S
C570 C571 1.391 . S
C570 C575 1.391 . S
C571 C570 1.391 . S
C571 C572 1.391 . S
C572 H549 0.947 . S
C572 C571 1.391 . S
C572 C573 1.392 . S
C573 H550 0.948 . S
C573 C572 1.392 . S
C573 C574 1.419 . S
C574 C573 1.419 . S
C574 C575 1.391 . S
C574 C578 1.397 . S
C575 C570 1.391 . S
C575 C574 1.391 . S
C575 C576 1.399 . S
C576 C575 1.399 . S
C576 C577 1.396 . S
C576 C579 1.453 . S
C576 C580 1.684 1_565 S
C577 C567 1.723 . S
C577 C576 1.396 . S
C577 C578 1.394 . S
C578 C548 1.723 . S
C578 C574 1.397 . S
C578 C577 1.394 . S
C579 H551 0.982 . S
C579 H555 0.979 . S
C579 H556 0.977 . S
C579 C576 1.453 . S
C580 H552 0.979 . S
C580 H553 0.980 . S
C580 H554 0.983 . S
C580 C576 1.684 1_545 S
H581 C599 0.948 . S
H582 C540 0.948 . S
H583 C558 0.979 . S
H584 C558 0.980 . S
H585 C558 0.983 . S
H586 C557 0.982 . S
H587 C557 0.979 . S
H588 C557 0.977 . S
H589 C559 0.948 . S
H590 C561 0.947 . S
H591 C562 0.948 . S
H592 C568 0.982 . S
H593 C568 0.979 . S
H594 C568 0.977 . S
H595 C569 0.979 . S
H596 C569 0.980 . S
H597 C569 0.983 . S
H598 C542 0.947 . S
C599 C542 1.392 . S
C599 C543 1.419 . S
C599 H581 0.948 . S
C600 C601 1.391 . S
C600 C604 1.391 . S
C600 H642 0.948 . S
C601 C600 1.391 . S
C601 C602 1.391 . S
C602 C601 1.391 . S
C602 H658 0.947 . S
C602 C659 1.392 . S
C603 C604 1.391 . S
C603 C607 1.397 . S
C603 C659 1.419 . S
C604 C600 1.391 . S
C604 C603 1.391 . S
C604 C605 1.399 . S
C605 C604 1.399 . S
C605 C608 1.396 . S
C605 C617 1.453 . S
C605 C618 1.684 . S
H606 C630 0.948 . S
C607 C603 1.397 . S
C607 C608 1.394 . S
C607 C626 1.723 . S
C608 C605 1.396 . S
C608 C607 1.394 . S
C608 C638 1.723 . S
H609 C632 0.947 . S
H610 C633 0.948 . S
H611 C639 0.982 . S
H612 C640 0.979 . S
H613 C640 0.980 . S
H614 C640 0.983 . S
H615 C639 0.979 . S
H616 C639 0.977 . S
C617 C605 1.453 . S
C617 H646 0.982 . S
C617 H647 0.979 . S
C617 H648 0.977 . S
C618 C605 1.684 . S
C618 H643 0.979 . S
C618 H644 0.980 . S
C618 H645 0.983 . S
C619 C620 1.391 . S
C619 C624 1.391 . S
C619 H649 0.948 . S
C620 C619 1.391 . S
C620 C621 1.391 . S
C621 C620 1.391 . S
C621 C622 1.392 . S
C621 H650 0.947 . S
C622 C621 1.392 . S
C622 C623 1.419 . S
C622 H651 0.948 . S
C623 C622 1.419 . S
C623 C624 1.391 . S
C623 C627 1.397 . S
C624 C619 1.391 . S
C624 C623 1.391 . S
C624 C625 1.399 . S
C625 C624 1.399 . S
C625 C626 1.396 . S
C625 C628 1.453 . S
C625 C629 1.684 . S
C626 C607 1.723 . S
C626 C625 1.396 . S
C626 C627 1.394 . S
C627 C623 1.397 . S
C627 C626 1.394 . S
C627 C637 1.723 . S
C628 C625 1.453 . S
C628 H652 0.982 . S
C628 H653 0.979 . S
C628 H654 0.977 . S
C629 C625 1.684 . S
C629 H655 0.979 . S
C629 H656 0.980 . S
C629 H657 0.983 . S
C630 H606 0.948 . S
C630 C631 1.391 . S
C630 C635 1.391 . S
C631 C630 1.391 . S
C631 C632 1.391 . S
C632 H609 0.947 . S
C632 C631 1.391 . S
C632 C633 1.392 . S
C633 H610 0.948 . S
C633 C632 1.392 . S
C633 C634 1.419 . S
C634 C633 1.419 . S
C634 C635 1.391 . S
C634 C638 1.397 . S
C635 C630 1.391 . S
C635 C634 1.391 . S
C635 C636 1.399 . S
C636 C635 1.399 . S
C636 C637 1.396 . S
C636 C639 1.453 . S
C636 C640 1.684 . S
C637 C627 1.723 . S
C637 C636 1.396 . S
C637 C638 1.394 . S
C638 C608 1.723 . S
C638 C634 1.397 . S
C638 C637 1.394 . S
C639 H611 0.982 . S
C639 H615 0.979 . S
C639 H616 0.977 . S
C639 C636 1.453 . S
C640 H612 0.979 . S
C640 H613 0.980 . S
C640 H614 0.983 . S
C640 C636 1.684 . S
H641 C659 0.948 . S
H642 C600 0.948 . S
H643 C618 0.979 . S
H644 C618 0.980 . S
H645 C618 0.983 . S
H646 C617 0.982 . S
H647 C617 0.979 . S
H648 C617 0.977 . S
H649 C619 0.948 . S
H650 C621 0.947 . S
H651 C622 0.948 . S
H652 C628 0.982 . S
H653 C628 0.979 . S
H654 C628 0.977 . S
H655 C629 0.979 . S
H656 C629 0.980 . S
H657 C629 0.983 . S
H658 C602 0.947 . S
C659 C602 1.392 . S
C659 C603 1.419 . S
C659 H641 0.948 . S
C660 C661 1.391 . S
C660 C664 1.391 . S
C660 H702 0.948 . S
C661 C660 1.391 . S
C661 C662 1.391 . S
C662 C661 1.391 . S
C662 H718 0.947 . S
C662 C719 1.392 . S
C663 C664 1.391 . S
C663 C667 1.397 . S
C663 C719 1.419 . S
C664 C660 1.391 . S
C664 C663 1.391 . S
C664 C665 1.399 . S
C665 C664 1.399 . S
C665 C668 1.396 . S
C665 C677 1.453 . S
C665 C678 1.684 . S
H666 C690 0.948 . S
C667 C663 1.397 . S
C667 C668 1.394 . S
C667 C686 1.723 . S
C668 C665 1.396 . S
C668 C667 1.394 . S
C668 C698 1.723 . S
H669 C692 0.947 . S
H670 C693 0.948 . S
H671 C699 0.982 . S
H672 C700 0.979 . S
H673 C700 0.980 . S
H674 C700 0.983 . S
H675 C699 0.979 . S
H676 C699 0.977 . S
C677 C665 1.453 . S
C677 H706 0.982 . S
C677 H707 0.979 . S
C677 H708 0.977 . S
C678 C665 1.684 . S
C678 H703 0.979 . S
C678 H704 0.980 . S
C678 H705 0.983 . S
C679 C680 1.391 . S
C679 C684 1.391 . S
C679 H709 0.948 . S
C680 C679 1.391 . S
C680 C681 1.391 . S
C681 C680 1.391 . S
C681 C682 1.392 . S
C681 H710 0.947 . S
C682 C681 1.392 . S
C682 C683 1.419 . S
C682 H711 0.948 . S
C683 C682 1.419 . S
C683 C684 1.391 . S
C683 C687 1.397 . S
C684 C679 1.391 . S
C684 C683 1.391 . S
C684 C685 1.399 . S
C685 C684 1.399 . S
C685 C686 1.396 . S
C685 C688 1.453 . S
C685 C689 1.684 . S
C686 C667 1.723 . S
C686 C685 1.396 . S
C686 C687 1.394 . S
C687 C683 1.397 . S
C687 C686 1.394 . S
C687 C697 1.723 . S
C688 C685 1.453 . S
C688 H712 0.982 . S
C688 H713 0.979 . S
C688 H714 0.977 . S
C689 C685 1.684 . S
C689 H715 0.979 . S
C689 H716 0.980 . S
C689 H717 0.983 . S
C690 H666 0.948 . S
C690 C691 1.391 . S
C690 C695 1.391 . S
C691 C690 1.391 . S
C691 C692 1.391 . S
C692 H669 0.947 . S
C692 C691 1.391 . S
C692 C693 1.392 . S
C693 H670 0.948 . S
C693 C692 1.392 . S
C693 C694 1.419 . S
C694 C693 1.419 . S
C694 C695 1.391 . S
C694 C698 1.397 . S
C695 C690 1.391 . S
C695 C694 1.391 . S
C695 C696 1.399 . S
C696 C695 1.399 . S
C696 C697 1.396 . S
C696 C699 1.453 . S
C696 C700 1.684 . S
C697 C687 1.723 . S
C697 C696 1.396 . S
C697 C698 1.394 . S
C698 C668 1.723 . S
C698 C694 1.397 . S
C698 C697 1.394 . S
C699 H671 0.982 . S
C699 H675 0.979 . S
C699 H676 0.977 . S
C699 C696 1.453 . S
C700 H672 0.979 . S
C700 H673 0.980 . S
C700 H674 0.983 . S
C700 C696 1.684 . S
H701 C719 0.948 . S
H702 C660 0.948 . S
H703 C678 0.979 . S
H704 C678 0.980 . S
H705 C678 0.983 . S
H706 C677 0.982 . S
H707 C677 0.979 . S
H708 C677 0.977 . S
H709 C679 0.948 . S
H710 C681 0.947 . S
H711 C682 0.948 . S
H712 C688 0.982 . S
H713 C688 0.979 . S
H714 C688 0.977 . S
H715 C689 0.979 . S
H716 C689 0.980 . S
H717 C689 0.983 . S
H718 C662 0.947 . S
C719 C662 1.392 . S
C719 C663 1.419 . S
C719 H701 0.948 . S
C720 C721 1.391 . S
C720 C724 1.391 . S
C720 H762 0.948 . S
C721 C720 1.391 . S
C721 C722 1.391 . S
C722 C721 1.391 . S
C722 H778 0.947 . S
C722 C779 1.392 . S
C723 C724 1.391 . S
C723 C727 1.397 . S
C723 C779 1.419 . S
C724 C720 1.391 . S
C724 C723 1.391 . S
C724 C725 1.399 . S
C725 C724 1.399 . S
C725 C728 1.396 . S
C725 C737 1.453 . S
C725 C738 1.684 . S
H726 C750 0.948 . S
C727 C723 1.397 . S
C727 C728 1.394 . S
C727 C746 1.723 . S
C728 C725 1.396 . S
C728 C727 1.394 . S
C728 C758 1.723 . S
H729 C752 0.947 . S
H730 C753 0.948 . S
H731 C759 0.982 . S
H732 C760 0.979 . S
H733 C760 0.980 . S
H734 C760 0.983 . S
H735 C759 0.979 . S
H736 C759 0.977 . S
C737 C725 1.453 . S
C737 H766 0.982 . S
C737 H767 0.979 . S
C737 H768 0.977 . S
C738 C725 1.684 . S
C738 H763 0.979 . S
C738 H764 0.980 . S
C738 H765 0.983 . S
C739 C740 1.391 . S
C739 C744 1.391 . S
C739 H769 0.948 . S
C740 C739 1.391 . S
C740 C741 1.391 . S
C741 C740 1.391 . S
C741 C742 1.392 . S
C741 H770 0.947 . S
C742 C741 1.392 . S
C742 C743 1.419 . S
C742 H771 0.948 . S
C743 C742 1.419 . S
C743 C744 1.391 . S
C743 C747 1.397 . S
C744 C739 1.391 . S
C744 C743 1.391 . S
C744 C745 1.399 . S
C745 C744 1.399 . S
C745 C746 1.396 . S
C745 C748 1.453 . S
C745 C749 1.684 . S
C746 C727 1.723 . S
C746 C745 1.396 . S
C746 C747 1.394 . S
C747 C743 1.397 . S
C747 C746 1.394 . S
C747 C757 1.723 . S
C748 C745 1.453 . S
C748 H772 0.982 . S
C748 H773 0.979 . S
C748 H774 0.977 . S
C749 C745 1.684 . S
C749 H775 0.979 . S
C749 H776 0.980 . S
C749 H777 0.983 . S
C750 H726 0.948 . S
C750 C751 1.391 . S
C750 C755 1.391 . S
C751 C750 1.391 . S
C751 C752 1.391 . S
C752 H729 0.947 . S
C752 C751 1.391 . S
C752 C753 1.392 . S
C753 H730 0.948 . S
C753 C752 1.392 . S
C753 C754 1.419 . S
C754 C753 1.419 . S
C754 C755 1.391 . S
C754 C758 1.397 . S
C755 C750 1.391 . S
C755 C754 1.391 . S
C755 C756 1.399 . S
C756 C755 1.399 . S
C756 C757 1.396 . S
C756 C759 1.453 . S
C756 C760 1.684 . S
C757 C747 1.723 . S
C757 C756 1.396 . S
C757 C758 1.394 . S
C758 C728 1.723 . S
C758 C754 1.397 . S
C758 C757 1.394 . S
C759 H731 0.982 . S
C759 H735 0.979 . S
C759 H736 0.977 . S
C759 C756 1.453 . S
C760 H732 0.979 . S
C760 H733 0.980 . S
C760 H734 0.983 . S
C760 C756 1.684 . S
H761 C779 0.948 . S
H762 C720 0.948 . S
H763 C738 0.979 . S
H764 C738 0.980 . S
H765 C738 0.983 . S
H766 C737 0.982 . S
H767 C737 0.979 . S
H768 C737 0.977 . S
H769 C739 0.948 . S
H770 C741 0.947 . S
H771 C742 0.948 . S
H772 C748 0.982 . S
H773 C748 0.979 . S
H774 C748 0.977 . S
H775 C749 0.979 . S
H776 C749 0.980 . S
H777 C749 0.983 . S
H778 C722 0.947 . S
C779 C722 1.392 . S
C779 C723 1.419 . S
C779 H761 0.948 . S
C780 C781 1.391 . S
C780 C784 1.391 . S
C780 H822 0.948 1_556 S
C781 C780 1.391 . S
C781 C782 1.391 . S
C782 C781 1.391 . S
C782 H838 0.947 . S
C782 C839 1.392 . S
C783 C784 1.391 . S
C783 C787 1.397 . S
C783 C839 1.419 . S
C784 C780 1.391 . S
C784 C783 1.391 . S
C784 C785 1.399 . S
C785 C784 1.399 . S
C785 C788 1.396 . S
C785 C797 1.453 1_556 S
C785 C798 1.684 . S
H786 C810 0.948 . S
C787 C783 1.397 . S
C787 C788 1.394 . S
C787 C806 1.723 . S
C788 C785 1.396 . S
C788 C787 1.394 . S
C788 C818 1.723 . S
H789 C812 0.947 . S
H790 C813 0.948 . S
H791 C819 0.982 . S
H792 C820 0.979 . S
H793 C820 0.980 . S
H794 C820 0.983 . S
H795 C819 0.979 . S
H796 C819 0.977 . S
C797 C785 1.453 1_554 S
C797 H826 0.982 . S
C797 H827 0.979 . S
C797 H828 0.965 1_554 S
C798 C785 1.684 . S
C798 H823 0.979 . S
C798 H824 0.980 . S
C798 H825 1.014 . S
C799 C800 1.391 . S
C799 C804 1.391 . S
C799 H829 0.948 . S
C800 C799 1.391 . S
C800 C801 1.391 . S
C801 C800 1.391 . S
C801 C802 1.392 . S
C801 H830 0.947 . S
C802 C801 1.392 . S
C802 C803 1.419 . S
C802 H831 0.948 . S
C803 C802 1.419 . S
C803 C804 1.391 . S
C803 C807 1.397 . S
C804 C799 1.391 . S
C804 C803 1.391 . S
C804 C805 1.399 . S
C805 C804 1.399 . S
C805 C806 1.396 . S
C805 C808 1.453 . S
C805 C809 1.684 . S
C806 C787 1.723 . S
C806 C805 1.396 . S
C806 C807 1.394 . S
C807 C803 1.397 . S
C807 C806 1.394 . S
C807 C817 1.723 . S
C808 C805 1.453 . S
C808 H832 0.982 . S
C808 H833 0.979 . S
C808 H834 0.977 . S
C809 C805 1.684 . S
C809 H835 0.979 . S
C809 H836 0.980 . S
C809 H837 0.983 . S
C810 H786 0.948 . S
C810 C811 1.391 . S
C810 C815 1.391 . S
C811 C810 1.391 . S
C811 C812 1.391 . S
C812 H789 0.947 . S
C812 C811 1.391 . S
C812 C813 1.392 . S
C813 H790 0.948 . S
C813 C812 1.392 . S
C813 C814 1.419 . S
C814 C813 1.419 . S
C814 C815 1.391 . S
C814 C818 1.397 . S
C815 C810 1.391 . S
C815 C814 1.391 . S
C815 C816 1.399 . S
C816 C815 1.399 . S
C816 C817 1.396 . S
C816 C819 1.453 . S
C816 C820 1.684 . S
C817 C807 1.723 . S
C817 C816 1.396 . S
C817 C818 1.394 . S
C818 C788 1.723 . S
C818 C814 1.397 . S
C818 C817 1.394 . S
C819 H791 0.982 . S
C819 H795 0.979 . S
C819 H796 0.977 . S
C819 C816 1.453 . S
C820 H792 0.979 . S
C820 H793 0.980 . S
C820 H794 0.983 . S
C820 C816 1.684 . S
H821 C839 0.948 . S
H822 C780 0.948 1_554 S
H823 C798 0.979 . S
H824 C798 0.980 . S
H825 C798 1.014 . S
H826 C797 0.982 . S
H827 C797 0.979 . S
H828 C797 0.965 1_556 S
H829 C799 0.948 . S
H830 C801 0.947 . S
H831 C802 0.948 . S
H832 C808 0.982 . S
H833 C808 0.979 . S
H834 C808 0.977 . S
H835 C809 0.979 . S
H836 C809 0.980 . S
H837 C809 0.983 . S
H838 C782 0.947 . S
C839 C782 1.392 . S
C839 C783 1.419 . S
C839 H821 0.948 . S
C840 C841 1.391 . S
C840 C844 1.391 . S
C840 H882 0.948 . S
C841 C840 1.391 . S
C841 C842 1.391 . S
C842 C841 1.391 . S
C842 H898 0.947 . S
C842 C899 1.392 . S
C843 C844 1.391 . S
C843 C847 1.397 . S
C843 C899 1.419 . S
C844 C840 1.391 . S
C844 C843 1.391 . S
C844 C845 1.399 . S
C845 C844 1.399 . S
C845 C848 1.396 . S
C845 C857 1.453 . S
C845 C858 1.684 . S
H846 C870 0.948 . S
C847 C843 1.397 . S
C847 C848 1.394 . S
C847 C866 1.723 . S
C848 C845 1.396 . S
C848 C847 1.394 . S
C848 C878 1.723 . S
H849 C872 0.947 . S
H850 C873 0.948 . S
H851 C879 0.982 . S
H852 C880 0.979 . S
H853 C880 0.980 . S
H854 C880 0.983 . S
H855 C879 0.979 . S
H856 C879 0.977 . S
C857 C845 1.453 . S
C857 H886 0.982 . S
C857 H887 0.979 . S
C857 H888 0.977 . S
C858 C845 1.684 . S
C858 H883 0.979 . S
C858 H884 0.980 . S
C858 H885 0.983 . S
C859 C860 1.391 . S
C859 C864 1.391 . S
C859 H889 0.948 . S
C860 C859 1.391 . S
C860 C861 1.391 . S
C861 C860 1.391 . S
C861 C862 1.392 . S
C861 H890 0.947 . S
C862 C861 1.392 . S
C862 C863 1.419 . S
C862 H891 0.948 . S
C863 C862 1.419 . S
C863 C864 1.391 . S
C863 C867 1.397 . S
C864 C859 1.391 . S
C864 C863 1.391 . S
C864 C865 1.399 . S
C865 C864 1.399 . S
C865 C866 1.396 . S
C865 C868 1.453 . S
C865 C869 1.684 . S
C866 C847 1.723 . S
C866 C865 1.396 . S
C866 C867 1.394 . S
C867 C863 1.397 . S
C867 C866 1.394 . S
C867 C877 1.723 . S
C868 C865 1.453 . S
C868 H892 0.982 . S
C868 H893 0.979 . S
C868 H894 0.977 . S
C869 C865 1.684 . S
C869 H895 0.979 . S
C869 H896 0.980 . S
C869 H897 0.983 . S
C870 H846 0.948 . S
C870 C871 1.391 . S
C870 C875 1.391 . S
C871 C870 1.391 . S
C871 C872 1.391 . S
C872 H849 0.947 . S
C872 C871 1.391 . S
C872 C873 1.392 . S
C873 H850 0.948 . S
C873 C872 1.392 . S
C873 C874 1.419 . S
C874 C873 1.419 . S
C874 C875 1.391 . S
C874 C878 1.397 . S
C875 C870 1.391 . S
C875 C874 1.391 . S
C875 C876 1.399 . S
C876 C875 1.399 . S
C876 C877 1.396 . S
C876 C879 1.453 . S
C876 C880 1.684 . S
C877 C867 1.723 . S
C877 C876 1.396 . S
C877 C878 1.394 . S
C878 C848 1.723 . S
C878 C874 1.397 . S
C878 C877 1.394 . S
C879 H851 0.982 . S
C879 H855 0.979 . S
C879 H856 0.977 . S
C879 C876 1.453 . S
C880 H852 0.979 . S
C880 H853 0.980 . S
C880 H854 0.983 . S
C880 C876 1.684 . S
H881 C899 0.948 . S
H882 C840 0.948 . S
H883 C858 0.979 . S
H884 C858 0.980 . S
H885 C858 0.983 . S
H886 C857 0.982 . S
H887 C857 0.979 . S
H888 C857 0.977 . S
H889 C859 0.948 . S
H890 C861 0.947 . S
H891 C862 0.948 . S
H892 C868 0.982 . S
H893 C868 0.979 . S
H894 C868 0.977 . S
H895 C869 0.979 . S
H896 C869 0.980 . S
H897 C869 0.983 . S
H898 C842 0.947 . S
C899 C842 1.392 . S
C899 C843 1.419 . S
C899 H881 0.948 . S
C900 C901 1.391 1_545 S
C900 C904 1.391 . S
C900 H942 0.948 . S
C901 C900 1.391 1_565 S
C901 C902 1.391 . S
C902 C901 1.391 . S
C902 H958 0.947 . S
C902 C959 1.392 1_565 S
C903 C904 1.391 . S
C903 C907 1.397 . S
C903 C959 1.419 . S
C904 C900 1.391 . S
C904 C903 1.391 . S
C904 C905 1.399 . S
C905 C904 1.399 . S
C905 C908 1.396 . S
C905 C917 1.453 . S
C905 C918 1.684 1_556 S
H906 C930 0.948 . S
C907 C903 1.397 . S
C907 C908 1.394 . S
C907 C926 1.723 . S
C908 C905 1.396 . S
C908 C907 1.394 . S
C908 C938 1.723 . S
H909 C932 0.947 . S
H910 C933 0.948 . S
H911 C939 0.982 . S
H912 C940 0.979 . S
H913 C940 0.980 . S
H914 C940 0.983 . S
H915 C939 0.979 . S
H916 C939 0.977 . S
C917 C905 1.453 . S
C917 H946 0.982 . S
C917 H947 0.979 . S
C917 H948 0.977 . S
C918 C905 1.684 1_554 S
C918 H943 0.979 . S
C918 H944 0.980 . S
C918 H945 0.983 . S
C919 C920 1.391 . S
C919 C924 1.391 . S
C919 H949 0.948 . S
C920 C919 1.391 . S
C920 C921 1.391 . S
C921 C920 1.391 . S
C921 C922 1.392 . S
C921 H950 0.947 . S
C922 C921 1.392 . S
C922 C923 1.419 . S
C922 H951 0.948 . S
C923 C922 1.419 . S
C923 C924 1.391 . S
C923 C927 1.397 . S
C924 C919 1.391 . S
C924 C923 1.391 . S
C924 C925 1.399 . S
C925 C924 1.399 . S
C925 C926 1.396 . S
C925 C928 1.453 . S
C925 C929 1.684 1_545 S
C926 C907 1.723 . S
C926 C925 1.396 . S
C926 C927 1.394 . S
C927 C923 1.397 . S
C927 C926 1.394 . S
C927 C937 1.723 . S
C928 C925 1.453 . S
C928 H952 0.982 . S
C928 H953 0.979 . S
C928 H954 0.977 . S
C929 C925 1.684 1_565 S
C929 H955 0.979 . S
C929 H956 0.980 . S
C929 H957 0.983 . S
C930 H906 0.948 . S
C930 C931 1.391 1_556 S
C930 C935 1.391 . S
C931 C930 1.391 1_554 S
C931 C932 1.391 . S
C932 H909 0.947 . S
C932 C931 1.391 . S
C932 C933 1.392 . S
C933 H910 0.948 . S
C933 C932 1.392 . S
C933 C934 1.419 1_554 S
C934 C933 1.419 1_556 S
C934 C935 1.391 . S
C934 C938 1.397 . S
C935 C930 1.391 . S
C935 C934 1.391 . S
C935 C936 1.399 . S
C936 C935 1.399 . S
C936 C937 1.396 . S
C936 C939 1.453 . S
C936 C940 1.684 . S
C937 C927 1.723 . S
C937 C936 1.396 . S
C937 C938 1.394 . S
C938 C908 1.723 . S
C938 C934 1.397 . S
C938 C937 1.394 . S
C939 H911 0.982 . S
C939 H915 0.979 . S
C939 H916 0.977 . S
C939 C936 1.453 . S
C940 H912 0.979 . S
C940 H913 0.980 . S
C940 H914 0.983 . S
C940 C936 1.684 . S
H941 C959 0.945 1_565 S
H942 C900 0.948 . S
H943 C918 0.979 . S
H944 C918 0.980 . S
H945 C918 0.983 . S
H946 C917 0.982 . S
H947 C917 0.979 . S
H948 C917 0.977 . S
H949 C919 0.948 . S
H950 C921 0.947 . S
H951 C922 0.948 . S
H952 C928 0.982 . S
H953 C928 0.979 . S
H954 C928 0.977 . S
H955 C929 0.979 . S
H956 C929 0.980 . S
H957 C929 0.983 . S
H958 C902 0.947 . S
C959 C902 1.392 1_545 S
C959 C903 1.419 . S
C959 H941 0.945 1_545 S
C960 O961 1.160 1_554 S
C960 O967 1.185 . S
O961 C960 1.160 1_556 S
O962 Zn963 1.899 1_556 S
O962 C970 1.284 . S
Zn963 O962 1.899 1_554 S
Zn963 O964 2.032 . S
Zn963 O967 2.086 . S
Zn963 O972 1.977 . S
O964 Zn963 2.032 . S
O964 C968 1.278 . S
C965 O966 1.203 . S
C965 O972 1.267 . S
O966 C965 1.203 . S
O967 C960 1.185 . S
O967 Zn963 2.086 . S
C968 O964 1.278 . S
C968 O969 1.211 . S
O969 C968 1.211 . S
C970 O962 1.284 . S
C970 O971 1.273 . S
O971 C970 1.273 . S
O972 Zn963 1.977 . S
O972 C965 1.267 . S
C973 O974 1.160 . S
C973 O980 1.185 . S
O974 C973 1.160 . S
O975 Zn976 1.899 . S
O975 C983 1.284 . S
Zn976 O975 1.899 . S
Zn976 O977 2.032 . S
Zn976 O980 2.086 . S
Zn976 O985 1.977 . S
O977 Zn976 2.032 . S
O977 C981 1.278 . S
C978 O979 1.203 . S
C978 O985 1.267 . S
O979 C978 1.203 . S
O980 C973 1.185 . S
O980 Zn976 2.086 . S
C981 O977 1.278 . S
C981 O982 1.211 . S
O982 C981 1.211 . S
C983 O975 1.284 . S
C983 O984 1.273 . S
O984 C983 1.273 . S
O985 Zn976 1.977 . S
O985 C978 1.267 . S
C986 O987 1.160 1_554 S
C986 O993 1.185 . S
O987 C986 1.160 1_556 S
O988 Zn989 1.899 1_556 S
O988 C996 1.284 . S
Zn989 O988 1.899 1_554 S
Zn989 O990 2.032 1_554 S
Zn989 O993 2.086 . S
Zn989 O998 1.977 . S
O990 Zn989 2.032 1_556 S
O990 C994 1.278 . S
C991 O992 1.203 . S
C991 O998 1.267 . S
O992 C991 1.203 . S
O993 C986 1.185 . S
O993 Zn989 2.086 . S
C994 O990 1.278 . S
C994 O995 1.211 1_556 S
O995 C994 1.211 1_554 S
C996 O988 1.284 . S
C996 O997 1.273 . S
O997 C996 1.273 . S
O998 Zn989 1.977 . S
O998 C991 1.267 . S
C999 O1000 1.160 . S
C999 O1006 1.185 . S
O1000 C999 1.160 . S
O1001 Zn1002 1.899 . S
O1001 C1009 1.284 . S
Zn1002 O1001 1.899 . S
Zn1002 O1003 2.032 . S
Zn1002 O1006 2.086 . S
Zn1002 O1011 1.977 . S
O1003 Zn1002 2.032 . S
O1003 C1007 1.278 1_545 S
C1004 O1005 1.203 . S
C1004 O1011 1.267 . S
O1005 C1004 1.203 . S
O1006 C999 1.185 . S
O1006 Zn1002 2.086 . S
C1007 O1003 1.278 1_565 S
C1007 O1008 1.211 . S
O1008 C1007 1.211 . S
C1009 O1001 1.284 . S
C1009 O1010 1.273 1_545 S
O1010 C1009 1.273 1_565 S
O1011 Zn1002 1.977 . S
O1011 C1004 1.267 . S
C1012 O1013 1.160 . S
C1012 O1019 1.185 . S
O1013 C1012 1.160 . S
O1014 Zn1015 1.899 . S
O1014 C1022 1.284 . S
Zn1015 O1014 1.899 . S
Zn1015 O1016 2.032 . S
Zn1015 O1019 2.086 . S
Zn1015 O1024 1.977 . S
O1016 Zn1015 2.032 . S
O1016 C1020 1.278 . S
C1017 O1018 1.203 . S
C1017 O1024 1.267 . S
O1018 C1017 1.203 . S
O1019 C1012 1.185 . S
O1019 Zn1015 2.086 . S
C1020 O1016 1.278 . S
C1020 O1021 1.211 . S
O1021 C1020 1.211 . S
C1022 O1014 1.284 . S
C1022 O1023 1.273 . S
O1023 C1022 1.273 . S
O1024 Zn1015 1.977 . S
O1024 C1017 1.267 . S
C1025 O1026 1.160 . S
C1025 O1032 1.185 . S
O1026 C1025 1.160 . S
O1027 Zn1028 1.899 . S
O1027 C1035 1.284 . S
Zn1028 O1027 1.899 . S
Zn1028 O1029 2.032 . S
Zn1028 O1032 2.086 . S
Zn1028 O1037 1.977 . S
O1029 Zn1028 2.032 . S
O1029 C1033 1.278 . S
C1030 O1031 1.203 . S
C1030 O1037 1.267 . S
O1031 C1030 1.203 . S
O1032 C1025 1.185 . S
O1032 Zn1028 2.086 . S
C1033 O1029 1.278 . S
C1033 O1034 1.211 . S
O1034 C1033 1.211 . S
C1035 O1027 1.284 . S
C1035 O1036 1.273 . S
O1036 C1035 1.273 . S
O1037 Zn1028 1.977 . S
O1037 C1030 1.267 . S
C1038 O1039 1.160 . S
C1038 O1045 1.185 . S
O1039 C1038 1.160 . S
O1040 Zn1041 1.899 . S
O1040 C1048 1.284 . S
Zn1041 O1040 1.899 . S
Zn1041 O1042 2.032 . S
Zn1041 O1045 2.086 . S
Zn1041 O1050 1.977 . S
O1042 Zn1041 2.032 . S
O1042 C1046 1.278 . S
C1043 O1044 1.203 . S
C1043 O1050 1.267 . S
O1044 C1043 1.203 . S
O1045 C1038 1.185 . S
O1045 Zn1041 2.086 . S
C1046 O1042 1.278 . S
C1046 O1047 1.211 . S
O1047 C1046 1.211 . S
C1048 O1040 1.284 . S
C1048 O1049 1.273 . S
O1049 C1048 1.273 . S
O1050 Zn1041 1.977 . S
O1050 C1043 1.267 . S
C1051 O1052 1.160 . S
C1051 O1058 1.185 . S
O1052 C1051 1.160 . S
O1053 Zn1054 1.899 . S
O1053 C1061 1.284 1_565 S
Zn1054 O1053 1.899 . S
Zn1054 O1055 2.032 1_565 S
Zn1054 O1058 2.086 . S
Zn1054 O1063 1.977 . S
O1055 Zn1054 2.032 1_545 S
O1055 C1059 1.278 . S
C1056 O1057 1.158 1_565 S
C1056 O1063 1.304 . S
O1057 C1056 1.158 1_545 S
O1058 C1051 1.185 . S
O1058 Zn1054 2.086 . S
C1059 O1055 1.278 . S
C1059 O1060 1.211 . S
O1060 C1059 1.211 . S
C1061 O1053 1.284 1_545 S
C1061 O1062 1.273 . S
O1062 C1061 1.273 . S
O1063 Zn1054 1.977 . S
O1063 C1056 1.304 . S
C1064 O1065 1.160 1_455 S
C1064 O1071 1.185 . S
O1065 C1064 1.160 1_655 S
O1066 Zn1067 1.899 1_655 S
O1066 C1074 1.284 . S
Zn1067 O1066 1.899 1_455 S
Zn1067 O1068 2.016 1_455 S
Zn1067 O1071 2.086 . S
Zn1067 O1076 1.977 . S
O1068 Zn1067 2.016 1_655 S
O1068 C1072 1.274 1_655 S
C1069 O1070 1.203 . S
C1069 O1076 1.267 . S
O1070 C1069 1.203 . S
O1071 C1064 1.185 . S
O1071 Zn1067 2.086 . S
C1072 O1068 1.274 1_455 S
C1072 O1073 1.230 . S
O1073 C1072 1.230 . S
C1074 O1066 1.284 . S
C1074 O1075 1.273 . S
O1075 C1074 1.273 . S
O1076 Zn1067 1.977 . S
O1076 C1069 1.267 . S
C1077 O1078 1.160 . S
C1077 O1084 1.185 . S
O1078 C1077 1.160 . S
O1079 Zn1080 1.899 . S
O1079 C1087 1.284 . S
Zn1080 O1079 1.899 . S
Zn1080 O1081 2.032 . S
Zn1080 O1084 2.086 . S
Zn1080 O1089 1.977 . S
O1081 Zn1080 2.032 . S
O1081 C1085 1.278 . S
C1082 O1083 1.203 . S
C1082 O1089 1.267 . S
O1083 C1082 1.203 . S
O1084 C1077 1.185 . S
O1084 Zn1080 2.086 . S
C1085 O1081 1.278 . S
C1085 O1086 1.211 . S
O1086 C1085 1.211 . S
C1087 O1079 1.284 . S
C1087 O1088 1.273 . S
O1088 C1087 1.273 . S
O1089 Zn1080 1.977 . S
O1089 C1082 1.267 . S
C1090 O1091 1.160 1_455 S
C1090 O1097 1.185 . S
O1091 C1090 1.160 1_655 S
O1092 Zn1093 1.899 1_655 S
O1092 C1100 1.284 . S
Zn1093 O1092 1.899 1_455 S
Zn1093 O1094 2.032 1_455 S
Zn1093 O1097 2.086 . S
Zn1093 O1102 1.977 . S
O1094 Zn1093 2.032 1_655 S
O1094 C1098 1.276 1_655 S
C1095 O1096 1.203 . S
C1095 O1102 1.267 . S
O1096 C1095 1.203 . S
O1097 C1090 1.185 . S
O1097 Zn1093 2.086 . S
C1098 O1094 1.276 1_455 S
C1098 O1099 1.215 . S
O1099 C1098 1.215 . S
C1100 O1092 1.284 . S
C1100 O1101 1.273 . S
O1101 C1100 1.273 . S
O1102 Zn1093 1.977 . S
O1102 C1095 1.267 . S
C1103 O1104 1.160 . S
C1103 O1110 1.185 . S
O1104 C1103 1.160 . S
O1105 Zn1106 1.899 . S
O1105 C1113 1.284 . S
Zn1106 O1105 1.899 . S
Zn1106 O1107 2.032 . S
Zn1106 O1110 2.086 . S
Zn1106 O1115 1.977 . S
O1107 Zn1106 2.032 . S
O1107 C1111 1.278 . S
C1108 O1109 1.203 . S
C1108 O1115 1.267 . S
O1109 C1108 1.203 . S
O1110 C1103 1.185 . S
O1110 Zn1106 2.086 . S
C1111 O1107 1.278 . S
C1111 O1112 1.211 . S
O1112 C1111 1.211 . S
C1113 O1105 1.284 . S
C1113 O1114 1.273 . S
O1114 C1113 1.273 . S
O1115 Zn1106 1.977 . S
O1115 C1108 1.267 . S
H1116 C1124 0.929 . S
H1117 C1126 0.930 . S
H1118 C1128 0.930 . S
H1119 C1131 0.929 . S
H1120 C1134 0.930 . S
H1121 C1136 0.960 . S
H1122 C1136 0.960 . S
H1123 C1136 0.960 . S
C1124 H1116 0.929 . S
C1124 C1125 1.377 . S
C1124 C1126 1.384 . S
C1125 C1124 1.377 . S
C1125 C1131 1.390 . S
C1126 H1117 0.930 . S
C1126 C1124 1.384 . S
C1126 C1127 1.372 . S
C1127 C1126 1.372 . S
C1127 C1128 1.400 . S
C1127 C1132 1.490 . S
C1128 H1118 0.930 . S
C1128 C1127 1.400 . S
C1128 C1131 1.386 . S
H1129 C1145 0.930 . S
H1130 C1146 0.931 . S
C1131 H1119 0.929 . S
C1131 C1125 1.390 . S
C1131 C1128 1.386 . S
C1132 C1127 1.490 . S
C1132 C1134 1.395 . S
C1132 C1135 1.403 . S
H1133 C1139 0.930 . S
C1134 H1120 0.930 . S
C1134 C1132 1.395 . S
C1134 C1137 1.403 . S
C1135 C1132 1.403 . S
C1135 C1136 1.524 . S
C1135 C1139 1.400 . S
C1136 H1121 0.960 . S
C1136 H1122 0.960 . S
C1136 H1123 0.960 . S
C1136 C1135 1.524 . S
C1137 C1134 1.403 . S
C1137 C1138 1.392 . S
C1137 C1141 1.495 . S
C1138 C1137 1.392 . S
C1138 C1139 1.385 . S
C1138 C1140 1.478 . S
C1139 H1133 0.930 . S
C1139 C1135 1.400 . S
C1139 C1138 1.385 . S
C1140 C1138 1.478 . S
C1140 C1142 1.381 . S
C1140 C1146 1.383 . S
C1141 C1137 1.495 . S
C1141 H1147 0.959 . S
C1141 H1148 0.961 . S
C1141 H1149 0.960 . S
C1142 C1140 1.381 . S
C1142 C1143 1.394 . S
C1142 H1150 0.930 . S
C1143 C1142 1.394 . S
C1143 C1144 1.383 . S
C1143 H1151 0.929 . S
C1144 C1143 1.383 . S
C1144 C1145 1.377 . S
C1145 H1129 0.930 . S
C1145 C1144 1.377 . S
C1145 C1146 1.379 . S
C1146 H1130 0.931 . S
C1146 C1140 1.383 . S
C1146 C1145 1.379 . S
H1147 C1141 0.959 . S
H1148 C1141 0.961 . S
H1149 C1141 0.960 . S
H1150 C1142 0.930 . S
H1151 C1143 0.929 . S
H1152 C1160 0.929 . S
H1153 C1162 0.930 . S
H1154 C1164 0.930 . S
H1155 C1167 0.929 . S
H1156 C1170 0.930 . S
H1157 C1172 0.960 . S
H1158 C1172 0.960 . S
H1159 C1172 0.960 . S
C1160 H1152 0.929 . S
C1160 C1161 1.377 . S
C1160 C1162 1.384 . S
C1161 C1160 1.377 . S
C1161 C1167 1.390 . S
C1162 H1153 0.930 . S
C1162 C1160 1.384 . S
C1162 C1163 1.372 . S
C1163 C1162 1.372 . S
C1163 C1164 1.400 . S
C1163 C1168 1.490 . S
C1164 H1154 0.930 . S
C1164 C1163 1.400 . S
C1164 C1167 1.386 . S
H1165 C1181 0.930 . S
H1166 C1182 0.931 . S
C1167 H1155 0.929 . S
C1167 C1161 1.390 . S
C1167 C1164 1.386 . S
C1168 C1163 1.490 . S
C1168 C1170 1.395 . S
C1168 C1171 1.403 . S
H1169 C1175 0.930 . S
C1170 H1156 0.930 . S
C1170 C1168 1.395 . S
C1170 C1173 1.403 . S
C1171 C1168 1.403 . S
C1171 C1172 1.524 . S
C1171 C1175 1.400 . S
C1172 H1157 0.960 . S
C1172 H1158 0.960 . S
C1172 H1159 0.960 . S
C1172 C1171 1.524 . S
C1173 C1170 1.403 . S
C1173 C1174 1.392 . S
C1173 C1177 1.495 . S
C1174 C1173 1.392 . S
C1174 C1175 1.385 . S
C1174 C1176 1.478 . S
C1175 H1169 0.930 . S
C1175 C1171 1.400 . S
C1175 C1174 1.385 . S
C1176 C1174 1.478 . S
C1176 C1178 1.381 . S
C1176 C1182 1.383 . S
C1177 C1173 1.495 . S
C1177 H1183 0.959 . S
C1177 H1184 0.961 . S
C1177 H1185 0.960 . S
C1178 C1176 1.381 . S
C1178 C1179 1.394 . S
C1178 H1186 0.930 . S
C1179 C1178 1.394 . S
C1179 C1180 1.383 . S
C1179 H1187 0.929 . S
C1180 C1179 1.383 . S
C1180 C1181 1.377 . S
C1181 H1165 0.930 . S
C1181 C1180 1.377 . S
C1181 C1182 1.379 . S
C1182 H1166 0.931 . S
C1182 C1176 1.383 . S
C1182 C1181 1.379 . S
H1183 C1177 0.959 . S
H1184 C1177 0.961 . S
H1185 C1177 0.960 . S
H1186 C1178 0.930 . S
H1187 C1179 0.929 . S
H1188 C1196 0.929 . S
H1189 C1198 0.930 . S
H1190 C1200 0.930 . S
H1191 C1203 0.929 . S
H1192 C1206 0.930 . S
H1193 C1208 0.960 . S
H1194 C1208 0.960 . S
H1195 C1208 0.960 . S
C1196 H1188 0.929 . S
C1196 C1197 1.377 . S
C1196 C1198 1.384 . S
C1197 C1196 1.377 . S
C1197 C1203 1.390 . S
C1198 H1189 0.930 . S
C1198 C1196 1.384 . S
C1198 C1199 1.372 . S
C1199 C1198 1.372 . S
C1199 C1200 1.400 . S
C1199 C1204 1.490 . S
C1200 H1190 0.930 . S
C1200 C1199 1.400 . S
C1200 C1203 1.386 . S
H1201 C1217 0.930 . S
H1202 C1218 0.931 . S
C1203 H1191 0.929 . S
C1203 C1197 1.390 . S
C1203 C1200 1.386 . S
C1204 C1199 1.490 . S
C1204 C1206 1.395 . S
C1204 C1207 1.403 . S
H1205 C1211 0.930 . S
C1206 H1192 0.930 . S
C1206 C1204 1.395 . S
C1206 C1209 1.403 . S
C1207 C1204 1.403 . S
C1207 C1208 1.524 . S
C1207 C1211 1.400 . S
C1208 H1193 0.960 . S
C1208 H1194 0.960 . S
C1208 H1195 0.960 . S
C1208 C1207 1.524 . S
C1209 C1206 1.403 . S
C1209 C1210 1.392 . S
C1209 C1213 1.495 . S
C1210 C1209 1.392 . S
C1210 C1211 1.385 . S
C1210 C1212 1.478 . S
C1211 H1205 0.930 . S
C1211 C1207 1.400 . S
C1211 C1210 1.385 . S
C1212 C1210 1.478 . S
C1212 C1214 1.381 . S
C1212 C1218 1.383 . S
C1213 C1209 1.495 . S
C1213 H1219 0.959 . S
C1213 H1220 0.961 . S
C1213 H1221 0.960 . S
C1214 C1212 1.381 . S
C1214 C1215 1.394 . S
C1214 H1222 0.930 . S
C1215 C1214 1.394 . S
C1215 C1216 1.383 . S
C1215 H1223 0.929 . S
C1216 C1215 1.383 . S
C1216 C1217 1.377 . S
C1217 H1201 0.930 . S
C1217 C1216 1.377 . S
C1217 C1218 1.379 . S
C1218 H1202 0.931 . S
C1218 C1212 1.383 . S
C1218 C1217 1.379 . S
H1219 C1213 0.959 . S
H1220 C1213 0.961 . S
H1221 C1213 0.960 . S
H1222 C1214 0.930 . S
H1223 C1215 0.929 . S
H1224 C1232 0.929 . S
H1225 C1234 0.930 . S
H1226 C1236 0.893 1_545 S
H1227 C1239 0.929 1_545 S
H1228 C1242 0.930 . S
H1229 C1244 0.960 . S
H1230 C1244 0.960 . S
H1231 C1244 0.960 . S
C1232 H1224 0.929 . S
C1232 C1233 1.377 . S
C1232 C1234 1.384 . S
C1233 C1232 1.377 . S
C1233 C1239 1.390 . S
C1234 H1225 0.930 . S
C1234 C1232 1.384 . S
C1234 C1235 1.372 . S
C1235 C1234 1.372 . S
C1235 C1236 1.428 . S
C1235 C1240 1.490 . S
C1236 H1226 0.893 1_565 S
C1236 C1235 1.428 . S
C1236 C1239 1.396 . S
H1237 C1253 0.930 . S
H1238 C1254 0.931 . S
C1239 H1227 0.929 1_565 S
C1239 C1233 1.390 . S
C1239 C1236 1.396 . S
C1240 C1235 1.490 . S
C1240 C1242 1.395 . S
C1240 C1243 1.403 1_565 S
H1241 C1247 0.930 . S
C1242 H1228 0.930 . S
C1242 C1240 1.395 . S
C1242 C1245 1.403 . S
C1243 C1240 1.403 1_545 S
C1243 C1244 1.524 . S
C1243 C1247 1.400 . S
C1244 H1229 0.960 . S
C1244 H1230 0.960 . S
C1244 H1231 0.960 . S
C1244 C1243 1.524 . S
C1245 C1242 1.403 . S
C1245 C1246 1.392 . S
C1245 C1249 1.495 . S
C1246 C1245 1.392 . S
C1246 C1247 1.385 1_565 S
C1246 C1248 1.478 . S
C1247 H1241 0.930 . S
C1247 C1243 1.400 . S
C1247 C1246 1.385 1_545 S
C1248 C1246 1.478 . S
C1248 C1250 1.381 . S
C1248 C1254 1.383 1_565 S
C1249 C1245 1.495 . S
C1249 H1255 0.959 . S
C1249 H1256 0.961 . S
C1249 H1257 0.960 . S
C1250 C1248 1.381 . S
C1250 C1251 1.394 . S
C1250 H1258 0.930 . S
C1251 C1250 1.394 . S
C1251 C1252 1.383 1_565 S
C1251 H1259 0.929 . S
C1252 C1251 1.383 1_545 S
C1252 C1253 1.377 . S
C1253 H1237 0.930 . S
C1253 C1252 1.377 . S
C1253 C1254 1.379 . S
C1254 H1238 0.931 . S
C1254 C1248 1.383 1_545 S
C1254 C1253 1.379 . S
H1255 C1249 0.959 . S
H1256 C1249 0.961 . S
H1257 C1249 0.960 . S
H1258 C1250 0.930 . S
H1259 C1251 0.929 . S
H1260 C1268 0.929 . S
H1261 C1270 0.930 . S
H1262 C1272 0.930 . S
H1263 C1275 0.929 . S
H1264 C1278 0.930 . S
H1265 C1280 0.960 . S
H1266 C1280 0.960 . S
H1267 C1280 0.960 . S
C1268 H1260 0.929 . S
C1268 C1269 1.377 . S
C1268 C1270 1.384 . S
C1269 C1268 1.377 . S
C1269 C1275 1.390 . S
C1270 H1261 0.930 . S
C1270 C1268 1.384 . S
C1270 C1271 1.372 . S
C1271 C1270 1.372 . S
C1271 C1272 1.400 . S
C1271 C1276 1.490 . S
C1272 H1262 0.930 . S
C1272 C1271 1.400 . S
C1272 C1275 1.386 . S
H1273 C1289 0.930 . S
H1274 C1290 0.931 . S
C1275 H1263 0.929 . S
C1275 C1269 1.390 . S
C1275 C1272 1.386 . S
C1276 C1271 1.490 . S
C1276 C1278 1.395 . S
C1276 C1279 1.403 . S
H1277 C1283 0.930 . S
C1278 H1264 0.930 . S
C1278 C1276 1.395 . S
C1278 C1281 1.403 . S
C1279 C1276 1.403 . S
C1279 C1280 1.524 . S
C1279 C1283 1.400 . S
C1280 H1265 0.960 . S
C1280 H1266 0.960 . S
C1280 H1267 0.960 . S
C1280 C1279 1.524 . S
C1281 C1278 1.403 . S
C1281 C1282 1.392 . S
C1281 C1285 1.495 . S
C1282 C1281 1.392 . S
C1282 C1283 1.385 . S
C1282 C1284 1.478 . S
C1283 H1277 0.930 . S
C1283 C1279 1.400 . S
C1283 C1282 1.385 . S
C1284 C1282 1.478 . S
C1284 C1286 1.381 . S
C1284 C1290 1.383 . S
C1285 C1281 1.495 . S
C1285 H1291 0.959 . S
C1285 H1292 0.961 . S
C1285 H1293 0.960 . S
C1286 C1284 1.381 . S
C1286 C1287 1.394 . S
C1286 H1294 0.930 . S
C1287 C1286 1.394 . S
C1287 C1288 1.383 . S
C1287 H1295 0.929 . S
C1288 C1287 1.383 . S
C1288 C1289 1.377 . S
C1289 H1273 0.930 . S
C1289 C1288 1.377 . S
C1289 C1290 1.379 . S
C1290 H1274 0.931 . S
C1290 C1284 1.383 . S
C1290 C1289 1.379 . S
H1291 C1285 0.959 . S
H1292 C1285 0.961 . S
H1293 C1285 0.960 . S
H1294 C1286 0.930 . S
H1295 C1287 0.929 . S
H1296 C1304 0.929 . S
H1297 C1306 0.930 . S
H1298 C1308 0.930 . S
H1299 C1311 0.929 . S
H1300 C1314 0.930 . S
H1301 C1316 0.960 . S
H1302 C1316 0.960 . S
H1303 C1316 0.960 . S
C1304 H1296 0.929 . S
C1304 C1305 1.377 . S
C1304 C1306 1.384 . S
C1305 C1304 1.377 . S
C1305 C1311 1.390 . S
C1306 H1297 0.930 . S
C1306 C1304 1.384 . S
C1306 C1307 1.372 . S
C1307 C1306 1.372 . S
C1307 C1308 1.400 . S
C1307 C1312 1.490 . S
C1308 H1298 0.930 . S
C1308 C1307 1.400 . S
C1308 C1311 1.386 . S
H1309 C1325 0.930 . S
H1310 C1326 0.931 . S
C1311 H1299 0.929 . S
C1311 C1305 1.390 . S
C1311 C1308 1.386 . S
C1312 C1307 1.490 . S
C1312 C1314 1.395 . S
C1312 C1315 1.403 . S
H1313 C1319 0.930 . S
C1314 H1300 0.930 . S
C1314 C1312 1.395 . S
C1314 C1317 1.403 . S
C1315 C1312 1.403 . S
C1315 C1316 1.524 . S
C1315 C1319 1.400 . S
C1316 H1301 0.960 . S
C1316 H1302 0.960 . S
C1316 H1303 0.960 . S
C1316 C1315 1.524 . S
C1317 C1314 1.403 . S
C1317 C1318 1.392 . S
C1317 C1321 1.495 . S
C1318 C1317 1.392 . S
C1318 C1319 1.385 . S
C1318 C1320 1.478 . S
C1319 H1313 0.930 . S
C1319 C1315 1.400 . S
C1319 C1318 1.385 . S
C1320 C1318 1.478 . S
C1320 C1322 1.381 . S
C1320 C1326 1.383 . S
C1321 C1317 1.495 . S
C1321 H1327 0.959 . S
C1321 H1328 0.961 . S
C1321 H1329 0.960 . S
C1322 C1320 1.381 . S
C1322 C1323 1.394 . S
C1322 H1330 0.930 . S
C1323 C1322 1.394 . S
C1323 C1324 1.383 . S
C1323 H1331 0.929 . S
C1324 C1323 1.383 . S
C1324 C1325 1.377 . S
C1325 H1309 0.930 . S
C1325 C1324 1.377 . S
C1325 C1326 1.379 . S
C1326 H1310 0.931 . S
C1326 C1320 1.383 . S
C1326 C1325 1.379 . S
H1327 C1321 0.959 . S
H1328 C1321 0.961 . S
H1329 C1321 0.960 . S
H1330 C1322 0.930 . S
H1331 C1323 0.929 . S
H1332 C1340 0.929 . S
H1333 C1342 0.930 . S
H1334 C1344 0.930 . S
H1335 C1347 0.929 . S
H1336 C1350 0.930 . S
H1337 C1352 0.960 . S
H1338 C1352 0.960 . S
H1339 C1352 0.960 . S
C1340 H1332 0.929 . S
C1340 C1341 1.377 . S
C1340 C1342 1.384 . S
C1341 C1340 1.377 . S
C1341 C1347 1.390 . S
C1342 H1333 0.930 . S
C1342 C1340 1.384 . S
C1342 C1343 1.372 . S
C1343 C1342 1.372 . S
C1343 C1344 1.400 . S
C1343 C1348 1.490 . S
C1344 H1334 0.930 . S
C1344 C1343 1.400 . S
C1344 C1347 1.386 . S
H1345 C1361 0.930 . S
H1346 C1362 0.931 . S
C1347 H1335 0.929 . S
C1347 C1341 1.390 . S
C1347 C1344 1.386 . S
C1348 C1343 1.490 . S
C1348 C1350 1.395 . S
C1348 C1351 1.403 . S
H1349 C1355 0.930 . S
C1350 H1336 0.930 . S
C1350 C1348 1.395 . S
C1350 C1353 1.403 . S
C1351 C1348 1.403 . S
C1351 C1352 1.524 . S
C1351 C1355 1.400 . S
C1352 H1337 0.960 . S
C1352 H1338 0.960 . S
C1352 H1339 0.960 . S
C1352 C1351 1.524 . S
C1353 C1350 1.403 . S
C1353 C1354 1.392 . S
C1353 C1357 1.495 . S
C1354 C1353 1.392 . S
C1354 C1355 1.385 . S
C1354 C1356 1.478 . S
C1355 H1349 0.930 . S
C1355 C1351 1.400 . S
C1355 C1354 1.385 . S
C1356 C1354 1.478 . S
C1356 C1358 1.381 . S
C1356 C1362 1.383 . S
C1357 C1353 1.495 . S
C1357 H1363 0.959 . S
C1357 H1364 0.961 . S
C1357 H1365 0.960 . S
C1358 C1356 1.381 . S
C1358 C1359 1.394 . S
C1358 H1366 0.930 . S
C1359 C1358 1.394 . S
C1359 C1360 1.383 . S
C1359 H1367 0.929 . S
C1360 C1359 1.383 . S
C1360 C1361 1.377 . S
C1361 H1345 0.930 . S
C1361 C1360 1.377 . S
C1361 C1362 1.379 . S
C1362 H1346 0.931 . S
C1362 C1356 1.383 . S
C1362 C1361 1.379 . S
H1363 C1357 0.959 . S
H1364 C1357 0.961 . S
H1365 C1357 0.960 . S
H1366 C1358 0.930 . S
H1367 C1359 0.929 . S
H1368 C1376 0.929 . S
H1369 C1378 0.930 . S
H1370 C1380 0.930 . S
H1371 C1383 0.929 . S
H1372 C1386 0.930 . S
H1373 C1388 0.960 . S
H1374 C1388 0.960 . S
H1375 C1388 0.960 . S
C1376 H1368 0.929 . S
C1376 C1377 1.377 . S
C1376 C1378 1.384 . S
C1377 C1376 1.377 . S
C1377 C1383 1.390 . S
C1378 H1369 0.930 . S
C1378 C1376 1.384 . S
C1378 C1379 1.372 . S
C1379 C1378 1.372 . S
C1379 C1380 1.400 . S
C1379 C1384 1.490 . S
C1380 H1370 0.930 . S
C1380 C1379 1.400 . S
C1380 C1383 1.386 . S
H1381 C1397 0.930 . S
H1382 C1398 0.931 . S
C1383 H1371 0.929 . S
C1383 C1377 1.390 . S
C1383 C1380 1.386 . S
C1384 C1379 1.490 . S
C1384 C1386 1.395 . S
C1384 C1387 1.420 . S
H1385 C1391 0.923 1_545 S
C1386 H1372 0.930 . S
C1386 C1384 1.395 . S
C1386 C1389 1.403 . S
C1387 C1384 1.420 . S
C1387 C1388 1.506 1_565 S
C1387 C1391 1.400 . S
C1388 H1373 0.960 . S
C1388 H1374 0.960 . S
C1388 H1375 0.960 . S
C1388 C1387 1.506 1_545 S
C1389 C1386 1.403 . S
C1389 C1390 1.392 . S
C1389 C1393 1.495 . S
C1390 C1389 1.392 . S
C1390 C1391 1.392 . S
C1390 C1392 1.478 . S
C1391 H1385 0.923 1_565 S
C1391 C1387 1.400 . S
C1391 C1390 1.392 . S
C1392 C1390 1.478 . S
C1392 C1394 1.381 . S
C1392 C1398 1.383 . S
C1393 C1389 1.495 . S
C1393 H1399 0.959 . S
C1393 H1400 0.961 . S
C1393 H1401 0.960 . S
C1394 C1392 1.381 . S
C1394 C1395 1.394 . S
C1394 H1402 0.930 . S
C1395 C1394 1.394 . S
C1395 C1396 1.383 . S
C1395 H1403 0.929 . S
C1396 C1395 1.383 . S
C1396 C1397 1.377 . S
C1397 H1381 0.930 . S
C1397 C1396 1.377 . S
C1397 C1398 1.379 . S
C1398 H1382 0.931 . S
C1398 C1392 1.383 . S
C1398 C1397 1.379 . S
H1399 C1393 0.959 . S
H1400 C1393 0.961 . S
H1401 C1393 0.960 . S
H1402 C1394 0.930 . S
H1403 C1395 0.929 . S
H1404 C1412 0.929 . S
H1405 C1414 0.930 . S
H1406 C1416 0.930 . S
H1407 C1419 0.929 . S
H1408 C1422 0.930 . S
H1409 C1424 0.960 . S
H1410 C1424 0.960 . S
H1411 C1424 0.960 . S
C1412 H1404 0.929 . S
C1412 C1413 1.377 . S
C1412 C1414 1.384 . S
C1413 C1412 1.377 . S
C1413 C1419 1.390 . S
C1414 H1405 0.930 . S
C1414 C1412 1.384 . S
C1414 C1415 1.372 . S
C1415 C1414 1.372 . S
C1415 C1416 1.400 . S
C1415 C1420 1.490 . S
C1416 H1406 0.930 . S
C1416 C1415 1.400 . S
C1416 C1419 1.386 . S
H1417 C1433 0.930 . S
H1418 C1434 0.931 . S
C1419 H1407 0.929 . S
C1419 C1413 1.390 . S
C1419 C1416 1.386 . S
C1420 C1415 1.490 . S
C1420 C1422 1.395 . S
C1420 C1423 1.403 . S
H1421 C1427 0.930 . S
C1422 H1408 0.930 . S
C1422 C1420 1.395 . S
C1422 C1425 1.403 . S
C1423 C1420 1.403 . S
C1423 C1424 1.524 . S
C1423 C1427 1.400 . S
C1424 H1409 0.960 . S
C1424 H1410 0.960 . S
C1424 H1411 0.960 . S
C1424 C1423 1.524 . S
C1425 C1422 1.403 . S
C1425 C1426 1.392 . S
C1425 C1429 1.495 . S
C1426 C1425 1.392 . S
C1426 C1427 1.385 . S
C1426 C1428 1.478 . S
C1427 H1421 0.930 . S
C1427 C1423 1.400 . S
C1427 C1426 1.385 . S
C1428 C1426 1.478 . S
C1428 C1430 1.381 . S
C1428 C1434 1.383 . S
C1429 C1425 1.495 . S
C1429 H1435 0.959 . S
C1429 H1436 0.961 . S
C1429 H1437 0.960 . S
C1430 C1428 1.381 . S
C1430 C1431 1.394 . S
C1430 H1438 0.930 . S
C1431 C1430 1.394 . S
C1431 C1432 1.383 . S
C1431 H1439 0.929 . S
C1432 C1431 1.383 . S
C1432 C1433 1.377 . S
C1433 H1417 0.930 . S
C1433 C1432 1.377 . S
C1433 C1434 1.379 . S
C1434 H1418 0.931 . S
C1434 C1428 1.383 . S
C1434 C1433 1.379 . S
H1435 C1429 0.959 . S
H1436 C1429 0.961 . S
H1437 C1429 0.960 . S
H1438 C1430 0.930 . S
H1439 C1431 0.929 . S
H1440 C1448 0.929 . S
H1441 C1450 0.930 . S
H1442 C1452 0.930 . S
H1443 C1455 0.929 . S
H1444 C1458 0.930 . S
H1445 C1460 0.960 . S
H1446 C1460 0.960 . S
H1447 C1460 0.960 . S
C1448 H1440 0.929 . S
C1448 C1449 1.377 . S
C1448 C1450 1.384 . S
C1449 C1448 1.377 . S
C1449 C1455 1.390 . S
C1450 H1441 0.930 . S
C1450 C1448 1.384 . S
C1450 C1451 1.372 . S
C1451 C1450 1.372 . S
C1451 C1452 1.400 . S
C1451 C1456 1.490 . S
C1452 H1442 0.930 . S
C1452 C1451 1.400 . S
C1452 C1455 1.386 . S
H1453 C1469 0.930 . S
H1454 C1470 0.931 . S
C1455 H1443 0.929 . S
C1455 C1449 1.390 . S
C1455 C1452 1.386 . S
C1456 C1451 1.490 . S
C1456 C1458 1.395 . S
C1456 C1459 1.403 . S
H1457 C1463 0.930 . S
C1458 H1444 0.930 . S
C1458 C1456 1.395 . S
C1458 C1461 1.403 . S
C1459 C1456 1.403 . S
C1459 C1460 1.524 . S
C1459 C1463 1.400 . S
C1460 H1445 0.960 . S
C1460 H1446 0.960 . S
C1460 H1447 0.960 . S
C1460 C1459 1.524 . S
C1461 C1458 1.403 . S
C1461 C1462 1.392 . S
C1461 C1465 1.495 . S
C1462 C1461 1.392 . S
C1462 C1463 1.385 . S
C1462 C1464 1.478 . S
C1463 H1457 0.930 . S
C1463 C1459 1.400 . S
C1463 C1462 1.385 . S
C1464 C1462 1.478 . S
C1464 C1466 1.381 . S
C1464 C1470 1.383 . S
C1465 C1461 1.495 . S
C1465 H1471 0.959 . S
C1465 H1472 0.961 . S
C1465 H1473 0.960 . S
C1466 C1464 1.381 . S
C1466 C1467 1.394 . S
C1466 H1474 0.930 . S
C1467 C1466 1.394 . S
C1467 C1468 1.383 . S
C1467 H1475 0.929 . S
C1468 C1467 1.383 . S
C1468 C1469 1.377 . S
C1469 H1453 0.930 . S
C1469 C1468 1.377 . S
C1469 C1470 1.379 . S
C1470 H1454 0.931 . S
C1470 C1464 1.383 . S
C1470 C1469 1.379 . S
H1471 C1465 0.959 . S
H1472 C1465 0.961 . S
H1473 C1465 0.960 . S
H1474 C1466 0.930 . S
H1475 C1467 0.929 . S
H1476 C1484 0.929 . S
H1477 C1486 0.930 . S
H1478 C1488 0.930 . S
H1479 C1491 0.929 . S
H1480 C1494 0.930 . S
H1481 C1496 0.960 . S
H1482 C1496 0.960 . S
H1483 C1496 0.960 . S
C1484 H1476 0.929 . S
C1484 C1485 1.377 . S
C1484 C1486 1.384 . S
C1485 C1484 1.377 . S
C1485 C1491 1.390 . S
C1486 H1477 0.930 . S
C1486 C1484 1.384 . S
C1486 C1487 1.372 . S
C1487 C1486 1.372 . S
C1487 C1488 1.400 . S
C1487 C1492 1.490 . S
C1488 H1478 0.930 . S
C1488 C1487 1.400 . S
C1488 C1491 1.386 . S
H1489 C1505 0.930 . S
H1490 C1506 0.931 . S
C1491 H1479 0.929 . S
C1491 C1485 1.390 . S
C1491 C1488 1.386 . S
C1492 C1487 1.490 . S
C1492 C1494 1.395 . S
C1492 C1495 1.403 . S
H1493 C1499 0.930 . S
C1494 H1480 0.930 . S
C1494 C1492 1.395 . S
C1494 C1497 1.403 . S
C1495 C1492 1.403 . S
C1495 C1496 1.524 . S
C1495 C1499 1.400 . S
C1496 H1481 0.960 . S
C1496 H1482 0.960 . S
C1496 H1483 0.960 . S
C1496 C1495 1.524 . S
C1497 C1494 1.403 . S
C1497 C1498 1.392 . S
C1497 C1501 1.495 . S
C1498 C1497 1.392 . S
C1498 C1499 1.385 . S
C1498 C1500 1.478 . S
C1499 H1493 0.930 . S
C1499 C1495 1.400 . S
C1499 C1498 1.385 . S
C1500 C1498 1.478 . S
C1500 C1502 1.381 . S
C1500 C1506 1.383 . S
C1501 C1497 1.495 . S
C1501 H1507 0.959 . S
C1501 H1508 0.961 . S
C1501 H1509 0.960 . S
C1502 C1500 1.381 . S
C1502 C1503 1.394 . S
C1502 H1510 0.930 . S
C1503 C1502 1.394 . S
C1503 C1504 1.383 . S
C1503 H1511 0.929 . S
C1504 C1503 1.383 . S
C1504 C1505 1.377 . S
C1505 H1489 0.930 . S
C1505 C1504 1.377 . S
C1505 C1506 1.379 . S
C1506 H1490 0.931 . S
C1506 C1500 1.383 . S
C1506 C1505 1.379 . S
H1507 C1501 0.959 . S
H1508 C1501 0.961 . S
H1509 C1501 0.960 . S
H1510 C1502 0.930 . S
H1511 C1503 0.929 . S
H1512 C1520 0.929 . S
H1513 C1522 0.930 . S
H1514 C1524 0.930 . S
H1515 C1527 0.929 . S
H1516 C1530 0.930 . S
H1517 C1532 0.960 . S
H1518 C1532 0.960 . S
H1519 C1532 0.960 . S
C1520 H1512 0.929 . S
C1520 C1521 1.377 . S
C1520 C1522 1.384 . S
C1521 C1520 1.377 . S
C1521 C1527 1.390 . S
C1522 H1513 0.930 . S
C1522 C1520 1.384 . S
C1522 C1523 1.372 . S
C1523 C1522 1.372 . S
C1523 C1524 1.400 . S
C1523 C1528 1.490 . S
C1524 H1514 0.930 . S
C1524 C1523 1.400 . S
C1524 C1527 1.386 . S
H1525 C1541 0.930 . S
H1526 C1542 0.931 . S
C1527 H1515 0.929 . S
C1527 C1521 1.390 . S
C1527 C1524 1.386 . S
C1528 C1523 1.490 . S
C1528 C1530 1.395 . S
C1528 C1531 1.403 . S
H1529 C1535 0.930 . S
C1530 H1516 0.930 . S
C1530 C1528 1.395 . S
C1530 C1533 1.403 . S
C1531 C1528 1.403 . S
C1531 C1532 1.524 . S
C1531 C1535 1.400 . S
C1532 H1517 0.960 . S
C1532 H1518 0.960 . S
C1532 H1519 0.960 . S
C1532 C1531 1.524 . S
C1533 C1530 1.403 . S
C1533 C1534 1.392 . S
C1533 C1537 1.495 . S
C1534 C1533 1.392 . S
C1534 C1535 1.385 . S
C1534 C1536 1.478 . S
C1535 H1529 0.930 . S
C1535 C1531 1.400 . S
C1535 C1534 1.385 . S
C1536 C1534 1.478 . S
C1536 C1538 1.381 . S
C1536 C1542 1.383 . S
C1537 C1533 1.495 . S
C1537 H1543 0.959 . S
C1537 H1544 0.961 . S
C1537 H1545 0.960 . S
C1538 C1536 1.381 . S
C1538 C1539 1.394 . S
C1538 H1546 0.930 . S
C1539 C1538 1.394 . S
C1539 C1540 1.383 . S
C1539 H1547 0.929 . S
C1540 C1539 1.383 . S
C1540 C1541 1.377 . S
C1541 H1525 0.930 . S
C1541 C1540 1.377 . S
C1541 C1542 1.379 . S
C1542 H1526 0.931 . S
C1542 C1536 1.383 . S
C1542 C1541 1.379 . S
H1543 C1537 0.959 . S
H1544 C1537 0.961 . S
H1545 C1537 0.960 . S
H1546 C1538 0.930 . S
H1547 C1539 0.929 . S
H1548 C1556 0.929 . S
H1549 C1558 0.930 . S
H1550 C1560 0.930 . S
H1551 C1563 0.929 . S
H1552 C1566 0.930 . S
H1553 C1568 0.960 . S
H1554 C1568 0.960 . S
H1555 C1568 0.960 . S
C1556 H1548 0.929 . S
C1556 C1557 1.377 . S
C1556 C1558 1.384 . S
C1557 C1556 1.377 . S
C1557 C1563 1.390 . S
C1558 H1549 0.930 . S
C1558 C1556 1.384 . S
C1558 C1559 1.372 . S
C1559 C1558 1.372 . S
C1559 C1560 1.400 . S
C1559 C1564 1.490 . S
C1560 H1550 0.930 . S
C1560 C1559 1.400 . S
C1560 C1563 1.386 . S
H1561 C1577 0.930 . S
H1562 C1578 0.931 . S
C1563 H1551 0.929 . S
C1563 C1557 1.390 . S
C1563 C1560 1.386 . S
C1564 C1559 1.490 . S
C1564 C1566 1.395 . S
C1564 C1567 1.403 . S
H1565 C1571 0.930 . S
C1566 H1552 0.930 . S
C1566 C1564 1.395 . S
C1566 C1569 1.403 . S
C1567 C1564 1.403 . S
C1567 C1568 1.524 . S
C1567 C1571 1.400 . S
C1568 H1553 0.960 . S
C1568 H1554 0.960 . S
C1568 H1555 0.960 . S
C1568 C1567 1.524 . S
C1569 C1566 1.403 . S
C1569 C1570 1.392 . S
C1569 C1573 1.495 . S
C1570 C1569 1.392 . S
C1570 C1571 1.385 . S
C1570 C1572 1.478 . S
C1571 H1565 0.930 . S
C1571 C1567 1.400 . S
C1571 C1570 1.385 . S
C1572 C1570 1.478 . S
C1572 C1574 1.381 . S
C1572 C1578 1.383 . S
C1573 C1569 1.495 . S
C1573 H1579 0.959 . S
C1573 H1580 0.961 . S
C1573 H1581 0.960 . S
C1574 C1572 1.381 . S
C1574 C1575 1.394 . S
C1574 H1582 0.930 . S
C1575 C1574 1.394 . S
C1575 C1576 1.383 . S
C1575 H1583 0.929 . S
C1576 C1575 1.383 . S
C1576 C1577 1.377 . S
C1577 H1561 0.930 . S
C1577 C1576 1.377 . S
C1577 C1578 1.379 . S
C1578 H1562 0.931 . S
C1578 C1572 1.383 . S
C1578 C1577 1.379 . S
H1579 C1573 0.959 . S
H1580 C1573 0.961 . S
H1581 C1573 0.960 . S
H1582 C1574 0.930 . S
H1583 C1575 0.929 . S
H1584 C1592 0.929 . S
H1585 C1594 0.930 . S
H1586 C1596 0.925 . S
H1587 C1599 0.929 . S
H1588 C1602 0.930 . S
H1589 C1604 0.960 . S
H1590 C1604 0.960 1_455 S
H1591 C1604 0.960 . S
C1592 H1584 0.929 . S
C1592 C1593 1.377 . S
C1592 C1594 1.384 . S
C1593 C1592 1.377 . S
C1593 C1599 1.390 . S
C1594 H1585 0.930 . S
C1594 C1592 1.384 . S
C1594 C1595 1.372 . S
C1595 C1594 1.372 . S
C1595 C1596 1.400 . S
C1595 C1600 1.490 . S
C1596 H1586 0.925 . S
C1596 C1595 1.400 . S
C1596 C1599 1.386 . S
H1597 C1613 0.930 . S
H1598 C1614 0.931 1_655 S
C1599 H1587 0.929 . S
C1599 C1593 1.390 . S
C1599 C1596 1.386 . S
C1600 C1595 1.490 . S
C1600 C1602 1.395 . S
C1600 C1603 1.403 . S
H1601 C1607 0.935 . S
C1602 H1588 0.930 . S
C1602 C1600 1.395 . S
C1602 C1605 1.403 . S
C1603 C1600 1.403 . S
C1603 C1604 1.524 1_455 S
C1603 C1607 1.400 . S
C1604 H1589 0.960 . S
C1604 H1590 0.960 1_655 S
C1604 H1591 0.960 . S
C1604 C1603 1.524 1_655 S
C1605 C1602 1.403 . S
C1605 C1606 1.392 . S
C1605 C1609 1.495 . S
C1606 C1605 1.392 . S
C1606 C1607 1.385 . S
C1606 C1608 1.478 . S
C1607 H1601 0.935 . S
C1607 C1603 1.400 . S
C1607 C1606 1.385 . S
C1608 C1606 1.478 . S
C1608 C1610 1.381 . S
C1608 C1614 1.383 . S
C1609 C1605 1.495 . S
C1609 H1615 0.959 . S
C1609 H1616 0.961 . S
C1609 H1617 0.960 . S
C1610 C1608 1.381 . S
C1610 C1611 1.394 . S
C1610 H1618 0.930 . S
C1611 C1610 1.394 . S
C1611 C1612 1.383 . S
C1611 H1619 0.929 . S
C1612 C1611 1.383 . S
C1612 C1613 1.377 1_455 S
C1613 H1597 0.930 . S
C1613 C1612 1.377 1_655 S
C1613 C1614 1.379 1_655 S
C1614 H1598 0.931 1_455 S
C1614 C1608 1.383 . S
C1614 C1613 1.379 1_455 S
H1615 C1609 0.959 . S
H1616 C1609 0.961 . S
H1617 C1609 0.960 . S
H1618 C1610 0.930 . S
H1619 C1611 0.929 . S
H1620 C1628 0.929 . S
H1621 C1630 0.930 . S
H1622 C1632 0.930 . S
H1623 C1635 0.929 . S
H1624 C1638 0.930 . S
H1625 C1640 0.960 . S
H1626 C1640 0.960 . S
H1627 C1640 0.960 . S
C1628 H1620 0.929 . S
C1628 C1629 1.377 . S
C1628 C1630 1.384 . S
C1629 C1628 1.377 . S
C1629 C1635 1.390 . S
C1630 H1621 0.930 . S
C1630 C1628 1.384 . S
C1630 C1631 1.372 . S
C1631 C1630 1.372 . S
C1631 C1632 1.400 . S
C1631 C1636 1.490 . S
C1632 H1622 0.930 . S
C1632 C1631 1.400 . S
C1632 C1635 1.386 . S
H1633 C1649 0.930 . S
H1634 C1650 0.931 . S
C1635 H1623 0.929 . S
C1635 C1629 1.390 . S
C1635 C1632 1.386 . S
C1636 C1631 1.490 . S
C1636 C1638 1.395 . S
C1636 C1639 1.403 . S
H1637 C1643 0.930 . S
C1638 H1624 0.930 . S
C1638 C1636 1.395 . S
C1638 C1641 1.403 . S
C1639 C1636 1.403 . S
C1639 C1640 1.524 . S
C1639 C1643 1.400 . S
C1640 H1625 0.960 . S
C1640 H1626 0.960 . S
C1640 H1627 0.960 . S
C1640 C1639 1.524 . S
C1641 C1638 1.403 . S
C1641 C1642 1.392 . S
C1641 C1645 1.495 . S
C1642 C1641 1.392 . S
C1642 C1643 1.385 . S
C1642 C1644 1.478 . S
C1643 H1637 0.930 . S
C1643 C1639 1.400 . S
C1643 C1642 1.385 . S
C1644 C1642 1.478 . S
C1644 C1646 1.381 . S
C1644 C1650 1.383 . S
C1645 C1641 1.495 . S
C1645 H1651 0.959 . S
C1645 H1652 0.961 . S
C1645 H1653 0.960 . S
C1646 C1644 1.381 . S
C1646 C1647 1.394 . S
C1646 H1654 0.930 . S
C1647 C1646 1.394 . S
C1647 C1648 1.383 . S
C1647 H1655 0.929 . S
C1648 C1647 1.383 . S
C1648 C1649 1.377 . S
C1649 H1633 0.930 . S
C1649 C1648 1.377 . S
C1649 C1650 1.379 . S
C1650 H1634 0.931 . S
C1650 C1644 1.383 . S
C1650 C1649 1.379 . S
H1651 C1645 0.959 . S
H1652 C1645 0.961 . S
H1653 C1645 0.960 . S
H1654 C1646 0.930 . S
H1655 C1647 0.929 . S
H1656 C1664 0.929 . S
H1657 C1666 0.930 . S
H1658 C1668 0.875 1_455 S
H1659 C1671 0.929 . S
H1660 C1674 0.930 . S
H1661 C1676 0.960 . S
H1662 C1676 0.960 . S
H1663 C1676 0.960 . S
C1664 H1656 0.929 . S
C1664 C1665 1.377 . S
C1664 C1666 1.384 . S
C1665 C1664 1.377 . S
C1665 C1671 1.390 . S
C1666 H1657 0.930 . S
C1666 C1664 1.384 . S
C1666 C1667 1.372 . S
C1667 C1666 1.372 . S
C1667 C1668 1.400 . S
C1667 C1672 1.490 . S
C1668 H1658 0.875 1_655 S
C1668 C1667 1.400 . S
C1668 C1671 1.386 . S
H1669 C1685 0.930 . S
H1670 C1686 0.931 . S
C1671 H1659 0.929 . S
C1671 C1665 1.390 . S
C1671 C1668 1.386 . S
C1672 C1667 1.490 . S
C1672 C1674 1.395 . S
C1672 C1675 1.403 . S
H1673 C1679 0.930 . S
C1674 H1660 0.930 . S
C1674 C1672 1.395 . S
C1674 C1677 1.403 . S
C1675 C1672 1.403 . S
C1675 C1676 1.524 . S
C1675 C1679 1.400 . S
C1676 H1661 0.960 . S
C1676 H1662 0.960 . S
C1676 H1663 0.960 . S
C1676 C1675 1.524 . S
C1677 C1674 1.403 . S
C1677 C1678 1.392 . S
C1677 C1681 1.495 . S
C1678 C1677 1.392 . S
C1678 C1679 1.385 . S
C1678 C1680 1.478 . S
C1679 H1673 0.930 . S
C1679 C1675 1.400 . S
C1679 C1678 1.385 . S
C1680 C1678 1.478 . S
C1680 C1682 1.381 . S
C1680 C1686 1.383 1_655 S
C1681 C1677 1.495 . S
C1681 H1687 0.959 . S
C1681 H1688 0.958 . S
C1681 H1689 0.960 . S
C1682 C1680 1.381 . S
C1682 C1683 1.394 . S
C1682 H1690 0.930 . S
C1683 C1682 1.394 . S
C1683 C1684 1.383 . S
C1683 H1691 0.929 . S
C1684 C1683 1.383 . S
C1684 C1685 1.377 1_655 S
C1685 H1669 0.930 . S
C1685 C1684 1.377 1_455 S
C1685 C1686 1.379 . S
C1686 H1670 0.931 . S
C1686 C1680 1.383 1_455 S
C1686 C1685 1.379 . S
H1687 C1681 0.959 . S
H1688 C1681 0.958 . S
H1689 C1681 0.960 . S
H1690 C1682 0.930 . S
H1691 C1683 0.929 . S
H1692 C1700 0.929 . S
H1693 C1702 0.930 . S
H1694 C1704 0.930 . S
H1695 C1707 0.929 . S
H1696 C1710 0.930 . S
H1697 C1712 0.960 . S
H1698 C1712 0.960 . S
H1699 C1712 0.960 . S
C1700 H1692 0.929 . S
C1700 C1701 1.377 . S
C1700 C1702 1.384 . S
C1701 C1700 1.377 . S
C1701 C1707 1.390 . S
C1702 H1693 0.930 . S
C1702 C1700 1.384 . S
C1702 C1703 1.372 . S
C1703 C1702 1.372 . S
C1703 C1704 1.400 . S
C1703 C1708 1.490 . S
C1704 H1694 0.930 . S
C1704 C1703 1.400 . S
C1704 C1707 1.386 . S
H1705 C1721 0.930 . S
H1706 C1722 0.931 . S
C1707 H1695 0.929 . S
C1707 C1701 1.390 . S
C1707 C1704 1.386 . S
C1708 C1703 1.490 . S
C1708 C1710 1.395 . S
C1708 C1711 1.403 . S
H1709 C1715 0.930 . S
C1710 H1696 0.930 . S
C1710 C1708 1.395 . S
C1710 C1713 1.403 . S
C1711 C1708 1.403 . S
C1711 C1712 1.524 . S
C1711 C1715 1.400 . S
C1712 H1697 0.960 . S
C1712 H1698 0.960 . S
C1712 H1699 0.960 . S
C1712 C1711 1.524 . S
C1713 C1710 1.403 . S
C1713 C1714 1.392 . S
C1713 C1717 1.495 . S
C1714 C1713 1.392 . S
C1714 C1715 1.385 . S
C1714 C1716 1.478 . S
C1715 H1709 0.930 . S
C1715 C1711 1.400 . S
C1715 C1714 1.385 . S
C1716 C1714 1.478 . S
C1716 C1718 1.381 . S
C1716 C1722 1.383 . S
C1717 C1713 1.495 . S
C1717 H1723 0.959 . S
C1717 H1724 0.961 . S
C1717 H1725 0.960 . S
C1718 C1716 1.381 . S
C1718 C1719 1.394 . S
C1718 H1726 0.930 . S
C1719 C1718 1.394 . S
C1719 C1720 1.383 . S
C1719 H1727 0.929 . S
C1720 C1719 1.383 . S
C1720 C1721 1.377 . S
C1721 H1705 0.930 . S
C1721 C1720 1.377 . S
C1721 C1722 1.379 . S
C1722 H1706 0.931 . S
C1722 C1716 1.383 . S
C1722 C1721 1.379 . S
H1723 C1717 0.959 . S
H1724 C1717 0.961 . S
H1725 C1717 0.960 . S
H1726 C1718 0.930 . S
H1727 C1719 0.929 . S
H1728 C1736 0.929 . S
H1729 C1738 0.930 . S
H1730 C1740 0.930 . S
H1731 C1743 0.929 . S
H1732 C1746 0.930 . S
H1733 C1748 0.960 . S
H1734 C1748 0.960 . S
H1735 C1748 0.960 . S
C1736 H1728 0.929 . S
C1736 C1737 1.377 . S
C1736 C1738 1.384 . S
C1737 C1736 1.377 . S
C1737 C1743 1.390 . S
C1738 H1729 0.930 . S
C1738 C1736 1.384 . S
C1738 C1739 1.372 . S
C1739 C1738 1.372 . S
C1739 C1740 1.400 . S
C1739 C1744 1.490 . S
C1740 H1730 0.930 . S
C1740 C1739 1.400 . S
C1740 C1743 1.386 . S
H1741 C1757 0.930 . S
H1742 C1758 0.931 . S
C1743 H1731 0.929 . S
C1743 C1737 1.390 . S
C1743 C1740 1.386 . S
C1744 C1739 1.490 . S
C1744 C1746 1.395 . S
C1744 C1747 1.403 . S
H1745 C1751 0.930 . S
C1746 H1732 0.930 . S
C1746 C1744 1.395 . S
C1746 C1749 1.403 . S
C1747 C1744 1.403 . S
C1747 C1748 1.524 . S
C1747 C1751 1.400 . S
C1748 H1733 0.960 . S
C1748 H1734 0.960 . S
C1748 H1735 0.960 . S
C1748 C1747 1.524 . S
C1749 C1746 1.403 . S
C1749 C1750 1.392 . S
C1749 C1753 1.495 . S
C1750 C1749 1.392 . S
C1750 C1751 1.385 . S
C1750 C1752 1.478 . S
C1751 H1745 0.930 . S
C1751 C1747 1.400 . S
C1751 C1750 1.385 . S
C1752 C1750 1.478 . S
C1752 C1754 1.381 . S
C1752 C1758 1.383 . S
C1753 C1749 1.495 . S
C1753 H1759 0.959 . S
C1753 H1760 0.961 . S
C1753 H1761 0.960 . S
C1754 C1752 1.381 . S
C1754 C1755 1.394 . S
C1754 H1762 0.930 . S
C1755 C1754 1.394 . S
C1755 C1756 1.383 . S
C1755 H1763 0.929 . S
C1756 C1755 1.383 . S
C1756 C1757 1.377 . S
C1757 H1741 0.930 . S
C1757 C1756 1.377 . S
C1757 C1758 1.379 . S
C1758 H1742 0.931 . S
C1758 C1752 1.383 . S
C1758 C1757 1.379 . S
H1759 C1753 0.959 . S
H1760 C1753 0.961 . S
H1761 C1753 0.960 . S
H1762 C1754 0.930 . S
H1763 C1755 0.929 . S
H1764 C1772 0.929 . S
H1765 C1774 0.930 . S
H1766 C1776 0.930 1_554 S
H1767 C1779 0.929 1_554 S
H1768 C1782 0.930 . S
H1769 C1784 0.960 . S
H1770 C1784 0.960 1_556 S
H1771 C1784 0.960 . S
C1772 H1764 0.929 . S
C1772 C1773 1.377 . S
C1772 C1774 1.384 . S
C1773 C1772 1.377 . S
C1773 C1779 1.390 . S
C1774 H1765 0.930 . S
C1774 C1772 1.384 . S
C1774 C1775 1.372 . S
C1775 C1774 1.372 . S
C1775 C1776 1.400 . S
C1775 C1780 1.490 . S
C1776 H1766 0.930 1_556 S
C1776 C1775 1.400 . S
C1776 C1779 1.386 . S
H1777 C1793 0.930 . S
H1778 C1794 0.931 . S
C1779 H1767 0.929 1_556 S
C1779 C1773 1.390 . S
C1779 C1776 1.386 . S
C1780 C1775 1.490 . S
C1780 C1782 1.395 . S
C1780 C1783 1.403 . S
H1781 C1787 0.914 1_554 S
C1782 H1768 0.930 . S
C1782 C1780 1.395 . S
C1782 C1785 1.403 . S
C1783 C1780 1.403 . S
C1783 C1784 1.524 1_556 S
C1783 C1787 1.403 . S
C1784 H1769 0.960 . S
C1784 H1770 0.960 1_554 S
C1784 H1771 0.960 . S
C1784 C1783 1.524 1_554 S
C1785 C1782 1.403 . S
C1785 C1786 1.392 . S
C1785 C1789 1.495 . S
C1786 C1785 1.392 . S
C1786 C1787 1.398 . S
C1786 C1788 1.478 . S
C1787 H1781 0.914 1_556 S
C1787 C1783 1.403 . S
C1787 C1786 1.398 . S
C1788 C1786 1.478 . S
C1788 C1790 1.381 . S
C1788 C1794 1.383 1_556 S
C1789 C1785 1.495 . S
C1789 H1795 0.959 . S
C1789 H1796 0.961 . S
C1789 H1797 0.960 . S
C1790 C1788 1.381 . S
C1790 C1791 1.394 . S
C1790 H1798 0.930 . S
C1791 C1790 1.394 . S
C1791 C1792 1.383 1_556 S
C1791 H1799 0.929 . S
C1792 C1791 1.383 1_554 S
C1792 C1793 1.377 . S
C1793 H1777 0.930 . S
C1793 C1792 1.377 . S
C1793 C1794 1.379 . S
C1794 H1778 0.931 . S
C1794 C1788 1.383 1_554 S
C1794 C1793 1.379 . S
H1795 C1789 0.959 . S
H1796 C1789 0.961 . S
H1797 C1789 0.960 . S
H1798 C1790 0.930 . S
H1799 C1791 0.929 . S
H1800 C1808 0.929 . S
H1801 C1810 0.930 . S
H1802 C1812 0.930 . S
H1803 C1815 0.929 . S
H1804 C1818 0.930 . S
H1805 C1820 0.960 . S
H1806 C1820 0.960 . S
H1807 C1820 0.960 . S
C1808 H1800 0.929 . S
C1808 C1809 1.377 . S
C1808 C1810 1.384 . S
C1809 C1808 1.377 . S
C1809 C1815 1.390 . S
C1810 H1801 0.930 . S
C1810 C1808 1.384 . S
C1810 C1811 1.372 . S
C1811 C1810 1.372 . S
C1811 C1812 1.400 . S
C1811 C1816 1.490 . S
C1812 H1802 0.930 . S
C1812 C1811 1.400 . S
C1812 C1815 1.386 . S
H1813 C1829 0.930 . S
H1814 C1830 0.931 . S
C1815 H1803 0.929 . S
C1815 C1809 1.390 . S
C1815 C1812 1.386 . S
C1816 C1811 1.490 . S
C1816 C1818 1.395 . S
C1816 C1819 1.403 . S
H1817 C1823 0.930 . S
C1818 H1804 0.930 . S
C1818 C1816 1.395 . S
C1818 C1821 1.403 . S
C1819 C1816 1.403 . S
C1819 C1820 1.524 . S
C1819 C1823 1.400 . S
C1820 H1805 0.960 . S
C1820 H1806 0.960 . S
C1820 H1807 0.960 . S
C1820 C1819 1.524 . S
C1821 C1818 1.403 . S
C1821 C1822 1.392 . S
C1821 C1825 1.495 . S
C1822 C1821 1.392 . S
C1822 C1823 1.385 . S
C1822 C1824 1.478 . S
C1823 H1817 0.930 . S
C1823 C1819 1.400 . S
C1823 C1822 1.385 . S
C1824 C1822 1.478 . S
C1824 C1826 1.381 . S
C1824 C1830 1.383 . S
C1825 C1821 1.495 . S
C1825 H1831 0.959 . S
C1825 H1832 0.961 . S
C1825 H1833 0.960 . S
C1826 C1824 1.381 . S
C1826 C1827 1.394 . S
C1826 H1834 0.930 . S
C1827 C1826 1.394 . S
C1827 C1828 1.383 . S
C1827 H1835 0.929 . S
C1828 C1827 1.383 . S
C1828 C1829 1.377 . S
C1829 H1813 0.930 . S
C1829 C1828 1.377 . S
C1829 C1830 1.379 . S
C1830 H1814 0.931 . S
C1830 C1824 1.383 . S
C1830 C1829 1.379 . S
H1831 C1825 0.959 . S
H1832 C1825 0.961 . S
H1833 C1825 0.960 . S
H1834 C1826 0.930 . S
H1835 C1827 0.929 . S
H1836 C1844 0.929 . S
H1837 C1846 0.930 . S
H1838 C1848 0.930 . S
H1839 C1851 0.929 . S
H1840 C1854 0.930 . S
H1841 C1856 0.960 . S
H1842 C1856 0.960 . S
H1843 C1856 0.960 . S
C1844 H1836 0.929 . S
C1844 C1845 1.377 . S
C1844 C1846 1.384 . S
C1845 C1844 1.377 . S
C1845 C1851 1.390 . S
C1846 H1837 0.930 . S
C1846 C1844 1.384 . S
C1846 C1847 1.372 . S
C1847 C1846 1.372 . S
C1847 C1848 1.400 . S
C1847 C1852 1.490 . S
C1848 H1838 0.930 . S
C1848 C1847 1.400 . S
C1848 C1851 1.386 . S
H1849 C1865 0.930 . S
H1850 C1866 0.931 . S
C1851 H1839 0.929 . S
C1851 C1845 1.390 . S
C1851 C1848 1.386 . S
C1852 C1847 1.490 . S
C1852 C1854 1.395 . S
C1852 C1855 1.403 . S
H1853 C1859 0.930 . S
C1854 H1840 0.930 . S
C1854 C1852 1.395 . S
C1854 C1857 1.403 . S
C1855 C1852 1.403 . S
C1855 C1856 1.524 . S
C1855 C1859 1.400 . S
C1856 H1841 0.960 . S
C1856 H1842 0.960 . S
C1856 H1843 0.960 . S
C1856 C1855 1.524 . S
C1857 C1854 1.403 . S
C1857 C1858 1.392 . S
C1857 C1861 1.495 . S
C1858 C1857 1.392 . S
C1858 C1859 1.385 . S
C1858 C1860 1.478 . S
C1859 H1853 0.930 . S
C1859 C1855 1.400 . S
C1859 C1858 1.385 . S
C1860 C1858 1.478 . S
C1860 C1862 1.381 . S
C1860 C1866 1.383 . S
C1861 C1857 1.495 . S
C1861 H1867 0.959 . S
C1861 H1868 0.961 . S
C1861 H1869 0.960 . S
C1862 C1860 1.381 . S
C1862 C1863 1.394 . S
C1862 H1870 0.930 . S
C1863 C1862 1.394 . S
C1863 C1864 1.383 . S
C1863 H1871 0.929 . S
C1864 C1863 1.383 . S
C1864 C1865 1.377 . S
C1865 H1849 0.930 . S
C1865 C1864 1.377 . S
C1865 C1866 1.379 . S
C1866 H1850 0.931 . S
C1866 C1860 1.383 . S
C1866 C1865 1.379 . S
H1867 C1861 0.959 . S
H1868 C1861 0.961 . S
H1869 C1861 0.960 . S
H1870 C1862 0.930 . S
H1871 C1863 0.929 . S
H1872 C1880 0.929 . S
H1873 C1882 0.930 . S
H1874 C1884 0.930 . S
H1875 C1887 0.929 . S
H1876 C1890 0.930 . S
H1877 C1892 0.960 . S
H1878 C1892 0.960 . S
H1879 C1892 0.960 . S
C1880 H1872 0.929 . S
C1880 C1881 1.377 . S
C1880 C1882 1.384 . S
C1881 C1880 1.377 . S
C1881 C1887 1.390 . S
C1882 H1873 0.930 . S
C1882 C1880 1.384 . S
C1882 C1883 1.372 . S
C1883 C1882 1.372 . S
C1883 C1884 1.400 . S
C1883 C1888 1.490 . S
C1884 H1874 0.930 . S
C1884 C1883 1.400 . S
C1884 C1887 1.386 . S
H1885 C1901 0.930 . S
H1886 C1902 0.931 . S
C1887 H1875 0.929 . S
C1887 C1881 1.390 . S
C1887 C1884 1.386 . S
C1888 C1883 1.490 . S
C1888 C1890 1.395 . S
C1888 C1891 1.403 . S
H1889 C1895 0.930 . S
C1890 H1876 0.930 . S
C1890 C1888 1.395 . S
C1890 C1893 1.403 . S
C1891 C1888 1.403 . S
C1891 C1892 1.524 . S
C1891 C1895 1.400 . S
C1892 H1877 0.960 . S
C1892 H1878 0.960 . S
C1892 H1879 0.960 . S
C1892 C1891 1.524 . S
C1893 C1890 1.403 . S
C1893 C1894 1.392 . S
C1893 C1897 1.495 . S
C1894 C1893 1.392 . S
C1894 C1895 1.385 . S
C1894 C1896 1.478 . S
C1895 H1889 0.930 . S
C1895 C1891 1.400 . S
C1895 C1894 1.385 . S
C1896 C1894 1.478 . S
C1896 C1898 1.381 . S
C1896 C1902 1.383 . S
C1897 C1893 1.495 . S
C1897 H1903 0.959 . S
C1897 H1904 0.961 . S
C1897 H1905 0.960 . S
C1898 C1896 1.381 . S
C1898 C1899 1.394 . S
C1898 H1906 0.930 . S
C1899 C1898 1.394 . S
C1899 C1900 1.383 . S
C1899 H1907 0.929 . S
C1900 C1899 1.383 . S
C1900 C1901 1.377 . S
C1901 H1885 0.930 . S
C1901 C1900 1.377 . S
C1901 C1902 1.379 . S
C1902 H1886 0.931 . S
C1902 C1896 1.383 . S
C1902 C1901 1.379 . S
H1903 C1897 0.959 . S
H1904 C1897 0.961 . S
H1905 C1897 0.960 . S
H1906 C1898 0.930 . S
H1907 C1899 0.929 . S
H1908 C1916 0.929 . S
H1909 C1918 0.930 . S
H1910 C1920 0.930 . S
H1911 C1923 0.929 . S
H1912 C1926 0.930 . S
H1913 C1928 0.960 . S
H1914 C1928 0.960 . S
H1915 C1928 0.960 . S
C1916 H1908 0.929 . S
C1916 C1917 1.377 . S
C1916 C1918 1.384 . S
C1917 C1916 1.377 . S
C1917 C1923 1.390 . S
C1918 H1909 0.930 . S
C1918 C1916 1.384 . S
C1918 C1919 1.372 . S
C1919 C1918 1.372 . S
C1919 C1920 1.400 . S
C1919 C1924 1.490 . S
C1920 H1910 0.930 . S
C1920 C1919 1.400 . S
C1920 C1923 1.386 . S
H1921 C1937 0.930 . S
H1922 C1938 0.931 . S
C1923 H1911 0.929 . S
C1923 C1917 1.390 . S
C1923 C1920 1.386 . S
C1924 C1919 1.490 . S
C1924 C1926 1.395 . S
C1924 C1927 1.403 . S
H1925 C1931 0.930 . S
C1926 H1912 0.930 . S
C1926 C1924 1.395 . S
C1926 C1929 1.403 . S
C1927 C1924 1.403 . S
C1927 C1928 1.524 . S
C1927 C1931 1.400 . S
C1928 H1913 0.960 . S
C1928 H1914 0.960 . S
C1928 H1915 0.960 . S
C1928 C1927 1.524 . S
C1929 C1926 1.403 . S
C1929 C1930 1.392 . S
C1929 C1933 1.495 . S
C1930 C1929 1.392 . S
C1930 C1931 1.385 . S
C1930 C1932 1.478 . S
C1931 H1925 0.930 . S
C1931 C1927 1.400 . S
C1931 C1930 1.385 . S
C1932 C1930 1.478 . S
C1932 C1934 1.381 . S
C1932 C1938 1.383 . S
C1933 C1929 1.495 . S
C1933 H1939 0.959 . S
C1933 H1940 0.961 . S
C1933 H1941 0.960 . S
C1934 C1932 1.381 . S
C1934 C1935 1.394 . S
C1934 H1942 0.930 . S
C1935 C1934 1.394 . S
C1935 C1936 1.383 . S
C1935 H1943 0.929 . S
C1936 C1935 1.383 . S
C1936 C1937 1.377 . S
C1937 H1921 0.930 . S
C1937 C1936 1.377 . S
C1937 C1938 1.379 . S
C1938 H1922 0.931 . S
C1938 C1932 1.383 . S
C1938 C1937 1.379 . S
H1939 C1933 0.959 . S
H1940 C1933 0.961 . S
H1941 C1933 0.960 . S
H1942 C1934 0.930 . S
H1943 C1935 0.929 . S
H1944 C1952 0.929 . S
H1945 C1954 0.930 . S
H1946 C1956 0.930 . S
H1947 C1959 0.929 . S
H1948 C1962 0.930 . S
H1949 C1964 0.960 . S
H1950 C1964 0.960 . S
H1951 C1964 0.960 . S
C1952 H1944 0.929 . S
C1952 C1953 1.377 . S
C1952 C1954 1.384 . S
C1953 C1952 1.377 . S
C1953 C1959 1.390 . S
C1954 H1945 0.930 . S
C1954 C1952 1.384 . S
C1954 C1955 1.372 . S
C1955 C1954 1.372 . S
C1955 C1956 1.400 . S
C1955 C1960 1.490 . S
C1956 H1946 0.930 . S
C1956 C1955 1.400 . S
C1956 C1959 1.386 . S
H1957 C1973 0.930 . S
H1958 C1974 0.931 . S
C1959 H1947 0.929 . S
C1959 C1953 1.390 . S
C1959 C1956 1.386 . S
C1960 C1955 1.490 . S
C1960 C1962 1.395 . S
C1960 C1963 1.403 . S
H1961 C1967 0.930 . S
C1962 H1948 0.930 . S
C1962 C1960 1.395 . S
C1962 C1965 1.403 . S
C1963 C1960 1.403 . S
C1963 C1964 1.524 . S
C1963 C1967 1.400 . S
C1964 H1949 0.960 . S
C1964 H1950 0.960 . S
C1964 H1951 0.960 . S
C1964 C1963 1.524 . S
C1965 C1962 1.403 . S
C1965 C1966 1.392 . S
C1965 C1969 1.495 . S
C1966 C1965 1.392 . S
C1966 C1967 1.385 . S
C1966 C1968 1.478 . S
C1967 H1961 0.930 . S
C1967 C1963 1.400 . S
C1967 C1966 1.385 . S
C1968 C1966 1.478 . S
C1968 C1970 1.381 . S
C1968 C1974 1.383 . S
C1969 C1965 1.495 . S
C1969 H1975 0.959 . S
C1969 H1976 0.961 . S
C1969 H1977 0.960 . S
C1970 C1968 1.381 . S
C1970 C1971 1.394 . S
C1970 H1978 0.930 . S
C1971 C1970 1.394 . S
C1971 C1972 1.383 . S
C1971 H1979 0.929 . S
C1972 C1971 1.383 . S
C1972 C1973 1.377 . S
C1973 H1957 0.930 . S
C1973 C1972 1.377 . S
C1973 C1974 1.379 . S
C1974 H1958 0.931 . S
C1974 C1968 1.383 . S
C1974 C1973 1.379 . S
H1975 C1969 0.959 . S
H1976 C1969 0.961 . S
H1977 C1969 0.960 . S
H1978 C1970 0.930 . S
H1979 C1971 0.929 . S
H1980 C1988 0.929 . S
H1981 C1990 0.930 . S
H1982 C1992 0.930 . S
H1983 C1995 0.929 . S
H1984 C1998 0.930 . S
H1985 C2000 0.960 . S
H1986 C2000 0.960 . S
H1987 C2000 0.960 . S
C1988 H1980 0.929 . S
C1988 C1989 1.377 . S
C1988 C1990 1.384 . S
C1989 C1988 1.377 . S
C1989 C1995 1.390 . S
C1990 H1981 0.930 . S
C1990 C1988 1.384 . S
C1990 C1991 1.372 . S
C1991 C1990 1.372 . S
C1991 C1992 1.400 . S
C1991 C1996 1.490 . S
C1992 H1982 0.930 . S
C1992 C1991 1.400 . S
C1992 C1995 1.386 . S
H1993 C2009 0.930 . S
H1994 C2010 0.931 . S
C1995 H1983 0.929 . S
C1995 C1989 1.390 . S
C1995 C1992 1.386 . S
C1996 C1991 1.490 . S
C1996 C1998 1.395 . S
C1996 C1999 1.403 . S
H1997 C2003 0.930 . S
C1998 H1984 0.930 . S
C1998 C1996 1.395 . S
C1998 C2001 1.403 . S
C1999 C1996 1.403 . S
C1999 C2000 1.524 . S
C1999 C2003 1.400 . S
C2000 H1985 0.960 . S
C2000 H1986 0.960 . S
C2000 H1987 0.960 . S
C2000 C1999 1.524 . S
C2001 C1998 1.403 . S
C2001 C2002 1.392 . S
C2001 C2005 1.495 . S
C2002 C2001 1.392 . S
C2002 C2003 1.385 . S
C2002 C2004 1.478 . S
C2003 H1997 0.930 . S
C2003 C1999 1.400 . S
C2003 C2002 1.385 . S
C2004 C2002 1.478 . S
C2004 C2006 1.381 . S
C2004 C2010 1.383 . S
C2005 C2001 1.495 . S
C2005 H2011 0.959 . S
C2005 H2012 0.961 . S
C2005 H2013 0.960 . S
C2006 C2004 1.381 . S
C2006 C2007 1.394 . S
C2006 H2014 0.930 . S
C2007 C2006 1.394 . S
C2007 C2008 1.383 . S
C2007 H2015 0.929 . S
C2008 C2007 1.383 . S
C2008 C2009 1.377 . S
C2009 H1993 0.930 . S
C2009 C2008 1.377 . S
C2009 C2010 1.379 . S
C2010 H1994 0.931 . S
C2010 C2004 1.383 . S
C2010 C2009 1.379 . S
H2011 C2005 0.959 . S
H2012 C2005 0.961 . S
H2013 C2005 0.960 . S
H2014 C2006 0.930 . S
H2015 C2007 0.929 . S
H2016 C2024 0.929 . S
H2017 C2026 0.930 . S
H2018 C2028 0.930 . S
H2019 C2031 0.929 . S
H2020 C2034 0.930 . S
H2021 C2036 0.960 . S
H2022 C2036 0.960 . S
H2023 C2036 0.960 . S
C2024 H2016 0.929 . S
C2024 C2025 1.377 . S
C2024 C2026 1.384 . S
C2025 C2024 1.377 . S
C2025 C2031 1.390 . S
C2026 H2017 0.930 . S
C2026 C2024 1.384 . S
C2026 C2027 1.372 . S
C2027 C2026 1.372 . S
C2027 C2028 1.400 . S
C2027 C2032 1.490 . S
C2028 H2018 0.930 . S
C2028 C2027 1.400 . S
C2028 C2031 1.386 . S
H2029 C2045 0.930 1_565 S
H2030 C2046 0.915 1_565 S
C2031 H2019 0.929 . S
C2031 C2025 1.390 . S
C2031 C2028 1.386 . S
C2032 C2027 1.490 . S
C2032 C2034 1.395 . S
C2032 C2035 1.403 . S
H2033 C2039 0.930 . S
C2034 H2020 0.930 . S
C2034 C2032 1.395 . S
C2034 C2037 1.403 . S
C2035 C2032 1.403 . S
C2035 C2036 1.524 . S
C2035 C2039 1.400 . S
C2036 H2021 0.960 . S
C2036 H2022 0.960 . S
C2036 H2023 0.960 . S
C2036 C2035 1.524 . S
C2037 C2034 1.403 . S
C2037 C2038 1.392 . S
C2037 C2041 1.495 1_545 S
C2038 C2037 1.392 . S
C2038 C2039 1.385 . S
C2038 C2040 1.478 . S
C2039 H2033 0.930 . S
C2039 C2035 1.400 . S
C2039 C2038 1.385 . S
C2040 C2038 1.478 . S
C2040 C2042 1.381 . S
C2040 C2046 1.383 . S
C2041 C2037 1.495 1_565 S
C2041 H2047 0.959 . S
C2041 H2048 0.961 . S
C2041 H2049 0.962 . S
C2042 C2040 1.381 . S
C2042 C2043 1.394 . S
C2042 H2050 0.930 . S
C2043 C2042 1.394 . S
C2043 C2044 1.383 . S
C2043 H2051 0.929 . S
C2044 C2043 1.383 . S
C2044 C2045 1.377 . S
C2045 H2029 0.930 1_545 S
C2045 C2044 1.377 . S
C2045 C2046 1.379 . S
C2046 H2030 0.915 1_545 S
C2046 C2040 1.383 . S
C2046 C2045 1.379 . S
H2047 C2041 0.959 . S
H2048 C2041 0.961 . S
H2049 C2041 0.962 . S
H2050 C2042 0.930 . S
H2051 C2043 0.929 . S
H2052 C2060 0.929 . S
H2053 C2062 0.930 . S
H2054 C2064 0.930 . S
H2055 C2067 0.929 . S
H2056 C2070 0.930 . S
H2057 C2072 0.960 . S
H2058 C2072 0.960 . S
H2059 C2072 0.960 . S
C2060 H2052 0.929 . S
C2060 C2061 1.377 . S
C2060 C2062 1.384 . S
C2061 C2060 1.377 . S
C2061 C2067 1.390 . S
C2062 H2053 0.930 . S
C2062 C2060 1.384 . S
C2062 C2063 1.372 . S
C2063 C2062 1.372 . S
C2063 C2064 1.400 . S
C2063 C2068 1.490 . S
C2064 H2054 0.930 . S
C2064 C2063 1.400 . S
C2064 C2067 1.386 . S
H2065 C2081 0.930 . S
H2066 C2082 0.931 . S
C2067 H2055 0.929 . S
C2067 C2061 1.390 . S
C2067 C2064 1.386 . S
C2068 C2063 1.490 . S
C2068 C2070 1.395 . S
C2068 C2071 1.403 . S
H2069 C2075 0.930 . S
C2070 H2056 0.930 . S
C2070 C2068 1.395 . S
C2070 C2073 1.403 . S
C2071 C2068 1.403 . S
C2071 C2072 1.524 . S
C2071 C2075 1.400 . S
C2072 H2057 0.960 . S
C2072 H2058 0.960 . S
C2072 H2059 0.960 . S
C2072 C2071 1.524 . S
C2073 C2070 1.403 . S
C2073 C2074 1.392 . S
C2073 C2077 1.495 . S
C2074 C2073 1.392 . S
C2074 C2075 1.385 . S
C2074 C2076 1.478 . S
C2075 H2069 0.930 . S
C2075 C2071 1.400 . S
C2075 C2074 1.385 . S
C2076 C2074 1.478 . S
C2076 C2078 1.381 . S
C2076 C2082 1.383 . S
C2077 C2073 1.495 . S
C2077 H2083 0.959 . S
C2077 H2084 0.961 . S
C2077 H2085 0.960 . S
C2078 C2076 1.381 . S
C2078 C2079 1.394 . S
C2078 H2086 0.930 . S
C2079 C2078 1.394 . S
C2079 C2080 1.383 . S
C2079 H2087 0.929 . S
C2080 C2079 1.383 . S
C2080 C2081 1.377 . S
C2081 H2065 0.930 . S
C2081 C2080 1.377 . S
C2081 C2082 1.379 . S
C2082 H2066 0.931 . S
C2082 C2076 1.383 . S
C2082 C2081 1.379 . S
H2083 C2077 0.959 . S
H2084 C2077 0.961 . S
H2085 C2077 0.960 . S
H2086 C2078 0.930 . S
H2087 C2079 0.929 . S
H2088 C2096 0.929 . S
H2089 C2098 0.930 . S
H2090 C2100 0.930 . S
H2091 C2103 0.929 . S
H2092 C2106 0.930 . S
H2093 C2108 0.960 . S
H2094 C2108 0.960 . S
H2095 C2108 0.960 . S
C2096 H2088 0.929 . S
C2096 C2097 1.377 . S
C2096 C2098 1.384 . S
C2097 C2096 1.377 . S
C2097 C2103 1.390 . S
C2098 H2089 0.930 . S
C2098 C2096 1.384 . S
C2098 C2099 1.372 . S
C2099 C2098 1.372 . S
C2099 C2100 1.400 . S
C2099 C2104 1.490 . S
C2100 H2090 0.930 . S
C2100 C2099 1.400 . S
C2100 C2103 1.386 . S
H2101 C2117 0.930 . S
H2102 C2118 0.931 . S
C2103 H2091 0.929 . S
C2103 C2097 1.390 . S
C2103 C2100 1.386 . S
C2104 C2099 1.490 . S
C2104 C2106 1.395 . S
C2104 C2107 1.403 . S
H2105 C2111 0.930 . S
C2106 H2092 0.930 . S
C2106 C2104 1.395 . S
C2106 C2109 1.403 . S
C2107 C2104 1.403 . S
C2107 C2108 1.524 . S
C2107 C2111 1.400 . S
C2108 H2093 0.960 . S
C2108 H2094 0.960 . S
C2108 H2095 0.960 . S
C2108 C2107 1.524 . S
C2109 C2106 1.403 . S
C2109 C2110 1.392 . S
C2109 C2113 1.495 . S
C2110 C2109 1.392 . S
C2110 C2111 1.385 . S
C2110 C2112 1.478 . S
C2111 H2105 0.930 . S
C2111 C2107 1.400 . S
C2111 C2110 1.385 . S
C2112 C2110 1.478 . S
C2112 C2114 1.381 . S
C2112 C2118 1.383 . S
C2113 C2109 1.495 . S
C2113 H2119 0.959 . S
C2113 H2120 0.961 . S
C2113 H2121 0.960 . S
C2114 C2112 1.381 . S
C2114 C2115 1.394 . S
C2114 H2122 0.930 . S
C2115 C2114 1.394 . S
C2115 C2116 1.383 . S
C2115 H2123 0.929 . S
C2116 C2115 1.383 . S
C2116 C2117 1.377 . S
C2117 H2101 0.930 . S
C2117 C2116 1.377 . S
C2117 C2118 1.379 . S
C2118 H2102 0.931 . S
C2118 C2112 1.383 . S
C2118 C2117 1.379 . S
H2119 C2113 0.959 . S
H2120 C2113 0.961 . S
H2121 C2113 0.960 . S
H2122 C2114 0.930 . S
H2123 C2115 0.929 . S
H2124 C2132 0.929 . S
H2125 C2134 0.930 . S
H2126 C2136 0.930 . S
H2127 C2139 0.929 . S
H2128 C2142 0.930 . S
H2129 C2144 0.960 . S
H2130 C2144 0.960 . S
H2131 C2144 0.960 . S
C2132 H2124 0.929 . S
C2132 C2133 1.377 . S
C2132 C2134 1.384 . S
C2133 C2132 1.377 . S
C2133 C2139 1.390 . S
C2134 H2125 0.930 . S
C2134 C2132 1.384 . S
C2134 C2135 1.372 . S
C2135 C2134 1.372 . S
C2135 C2136 1.400 . S
C2135 C2140 1.490 . S
C2136 H2126 0.930 . S
C2136 C2135 1.400 . S
C2136 C2139 1.386 . S
H2137 C2153 0.930 . S
H2138 C2154 0.931 . S
C2139 H2127 0.929 . S
C2139 C2133 1.390 . S
C2139 C2136 1.386 . S
C2140 C2135 1.490 . S
C2140 C2142 1.395 . S
C2140 C2143 1.403 . S
H2141 C2147 0.930 . S
C2142 H2128 0.930 . S
C2142 C2140 1.395 . S
C2142 C2145 1.403 . S
C2143 C2140 1.403 . S
C2143 C2144 1.524 . S
C2143 C2147 1.400 . S
C2144 H2129 0.960 . S
C2144 H2130 0.960 . S
C2144 H2131 0.960 . S
C2144 C2143 1.524 . S
C2145 C2142 1.403 . S
C2145 C2146 1.392 . S
C2145 C2149 1.495 . S
C2146 C2145 1.392 . S
C2146 C2147 1.385 . S
C2146 C2148 1.478 . S
C2147 H2141 0.930 . S
C2147 C2143 1.400 . S
C2147 C2146 1.385 . S
C2148 C2146 1.478 . S
C2148 C2150 1.381 . S
C2148 C2154 1.383 . S
C2149 C2145 1.495 . S
C2149 H2155 0.959 . S
C2149 H2156 0.961 . S
C2149 H2157 0.960 . S
C2150 C2148 1.381 . S
C2150 C2151 1.394 . S
C2150 H2158 0.930 . S
C2151 C2150 1.394 . S
C2151 C2152 1.383 . S
C2151 H2159 0.929 . S
C2152 C2151 1.383 . S
C2152 C2153 1.377 . S
C2153 H2137 0.930 . S
C2153 C2152 1.377 . S
C2153 C2154 1.379 . S
C2154 H2138 0.931 . S
C2154 C2148 1.383 . S
C2154 C2153 1.379 . S
H2155 C2149 0.959 . S
H2156 C2149 0.961 . S
H2157 C2149 0.960 . S
H2158 C2150 0.930 . S
H2159 C2151 0.929 . S
H2160 C2168 0.929 . S
H2161 C2170 0.930 . S
H2162 C2172 0.930 . S
H2163 C2175 0.929 . S
H2164 C2178 0.930 . S
H2165 C2180 0.960 . S
H2166 C2180 0.960 . S
H2167 C2180 0.960 . S
C2168 H2160 0.929 . S
C2168 C2169 1.377 . S
C2168 C2170 1.384 . S
C2169 C2168 1.377 . S
C2169 C2175 1.390 . S
C2170 H2161 0.930 . S
C2170 C2168 1.384 . S
C2170 C2171 1.372 . S
C2171 C2170 1.372 . S
C2171 C2172 1.400 . S
C2171 C2176 1.490 . S
C2172 H2162 0.930 . S
C2172 C2171 1.400 . S
C2172 C2175 1.386 . S
H2173 C2189 0.930 1_565 S
H2174 C2190 0.963 . S
C2175 H2163 0.929 . S
C2175 C2169 1.390 . S
C2175 C2172 1.386 . S
C2176 C2171 1.490 . S
C2176 C2178 1.395 . S
C2176 C2179 1.403 . S
H2177 C2183 0.930 . S
C2178 H2164 0.930 . S
C2178 C2176 1.395 . S
C2178 C2181 1.403 . S
C2179 C2176 1.403 . S
C2179 C2180 1.524 . S
C2179 C2183 1.400 . S
C2180 H2165 0.960 . S
C2180 H2166 0.960 . S
C2180 H2167 0.960 . S
C2180 C2179 1.524 . S
C2181 C2178 1.403 . S
C2181 C2182 1.392 . S
C2181 C2185 1.495 . S
C2182 C2181 1.392 . S
C2182 C2183 1.385 . S
C2182 C2184 1.478 . S
C2183 H2177 0.930 . S
C2183 C2179 1.400 . S
C2183 C2182 1.385 . S
C2184 C2182 1.478 . S
C2184 C2186 1.381 . S
C2184 C2190 1.383 . S
C2185 C2181 1.495 . S
C2185 H2191 0.959 . S
C2185 H2192 0.961 . S
C2185 H2193 0.960 . S
C2186 C2184 1.381 . S
C2186 C2187 1.394 . S
C2186 H2194 0.930 . S
C2187 C2186 1.394 . S
C2187 C2188 1.383 . S
C2187 H2195 0.929 . S
C2188 C2187 1.383 . S
C2188 C2189 1.377 . S
C2189 H2173 0.930 1_545 S
C2189 C2188 1.377 . S
C2189 C2190 1.379 . S
C2190 H2174 0.963 . S
C2190 C2184 1.383 . S
C2190 C2189 1.379 . S
H2191 C2185 0.959 . S
H2192 C2185 0.961 . S
H2193 C2185 0.960 . S
H2194 C2186 0.930 . S
H2195 C2187 0.929 . S
H2196 C2204 0.929 . S
H2197 C2206 0.930 . S
H2198 C2208 0.930 . S
H2199 C2211 0.929 . S
H2200 C2214 0.930 . S
H2201 C2216 0.960 . S
H2202 C2216 0.960 . S
H2203 C2216 0.960 . S
C2204 H2196 0.929 . S
C2204 C2205 1.377 . S
C2204 C2206 1.384 . S
C2205 C2204 1.377 . S
C2205 C2211 1.390 . S
C2206 H2197 0.930 . S
C2206 C2204 1.384 . S
C2206 C2207 1.372 . S
C2207 C2206 1.372 . S
C2207 C2208 1.400 . S
C2207 C2212 1.490 . S
C2208 H2198 0.930 . S
C2208 C2207 1.400 . S
C2208 C2211 1.386 . S
H2209 C2225 0.930 . S
H2210 C2226 0.931 . S
C2211 H2199 0.929 . S
C2211 C2205 1.390 . S
C2211 C2208 1.386 . S
C2212 C2207 1.490 . S
C2212 C2214 1.395 . S
C2212 C2215 1.403 . S
H2213 C2219 0.930 . S
C2214 H2200 0.930 . S
C2214 C2212 1.395 . S
C2214 C2217 1.403 . S
C2215 C2212 1.403 . S
C2215 C2216 1.524 . S
C2215 C2219 1.400 . S
C2216 H2201 0.960 . S
C2216 H2202 0.960 . S
C2216 H2203 0.960 . S
C2216 C2215 1.524 . S
C2217 C2214 1.403 . S
C2217 C2218 1.392 . S
C2217 C2221 1.495 . S
C2218 C2217 1.392 . S
C2218 C2219 1.385 . S
C2218 C2220 1.478 . S
C2219 H2213 0.930 . S
C2219 C2215 1.400 . S
C2219 C2218 1.385 . S
C2220 C2218 1.478 . S
C2220 C2222 1.381 . S
C2220 C2226 1.383 . S
C2221 C2217 1.495 . S
C2221 H2227 0.959 . S
C2221 H2228 0.961 . S
C2221 H2229 0.960 . S
C2222 C2220 1.381 . S
C2222 C2223 1.394 . S
C2222 H2230 0.930 . S
C2223 C2222 1.394 . S
C2223 C2224 1.383 . S
C2223 H2231 0.929 . S
C2224 C2223 1.383 . S
C2224 C2225 1.377 . S
C2225 H2209 0.930 . S
C2225 C2224 1.377 . S
C2225 C2226 1.379 . S
C2226 H2210 0.931 . S
C2226 C2220 1.383 . S
C2226 C2225 1.379 . S
H2227 C2221 0.959 . S
H2228 C2221 0.961 . S
H2229 C2221 0.960 . S
H2230 C2222 0.930 . S
H2231 C2223 0.929 . S
H2232 C2240 0.929 . S
H2233 C2242 0.930 . S
H2234 C2244 0.930 . S
H2235 C2247 0.929 . S
H2236 C2250 0.930 . S
H2237 C2252 0.960 . S
H2238 C2252 0.960 . S
H2239 C2252 0.960 . S
C2240 H2232 0.929 . S
C2240 C2241 1.377 . S
C2240 C2242 1.384 . S
C2241 C2240 1.377 . S
C2241 C2247 1.390 . S
C2242 H2233 0.930 . S
C2242 C2240 1.384 . S
C2242 C2243 1.372 . S
C2243 C2242 1.372 . S
C2243 C2244 1.400 . S
C2243 C2248 1.490 . S
C2244 H2234 0.930 . S
C2244 C2243 1.400 . S
C2244 C2247 1.386 . S
H2245 C2261 0.930 . S
H2246 C2262 0.931 . S
C2247 H2235 0.929 . S
C2247 C2241 1.390 . S
C2247 C2244 1.386 . S
C2248 C2243 1.490 . S
C2248 C2250 1.395 . S
C2248 C2251 1.403 . S
H2249 C2255 0.930 . S
C2250 H2236 0.930 . S
C2250 C2248 1.395 . S
C2250 C2253 1.403 . S
C2251 C2248 1.403 . S
C2251 C2252 1.524 . S
C2251 C2255 1.400 . S
C2252 H2237 0.960 . S
C2252 H2238 0.960 . S
C2252 H2239 0.960 . S
C2252 C2251 1.524 . S
C2253 C2250 1.403 . S
C2253 C2254 1.392 . S
C2253 C2257 1.495 . S
C2254 C2253 1.392 . S
C2254 C2255 1.385 . S
C2254 C2256 1.478 . S
C2255 H2249 0.930 . S
C2255 C2251 1.400 . S
C2255 C2254 1.385 . S
C2256 C2254 1.478 . S
C2256 C2258 1.381 . S
C2256 C2262 1.383 . S
C2257 C2253 1.495 . S
C2257 H2263 0.959 . S
C2257 H2264 0.961 . S
C2257 H2265 0.960 . S
C2258 C2256 1.381 . S
C2258 C2259 1.394 . S
C2258 H2266 0.930 . S
C2259 C2258 1.394 . S
C2259 C2260 1.383 . S
C2259 H2267 0.929 . S
C2260 C2259 1.383 . S
C2260 C2261 1.377 . S
C2261 H2245 0.930 . S
C2261 C2260 1.377 . S
C2261 C2262 1.379 . S
C2262 H2246 0.931 . S
C2262 C2256 1.383 . S
C2262 C2261 1.379 . S
H2263 C2257 0.959 . S
H2264 C2257 0.961 . S
H2265 C2257 0.960 . S
H2266 C2258 0.930 . S
H2267 C2259 0.929 . S
H2268 C2276 0.929 . S
H2269 C2278 0.930 . S
H2270 C2280 0.930 . S
H2271 C2283 0.929 . S
H2272 C2286 0.930 . S
H2273 C2288 0.960 . S
H2274 C2288 0.960 . S
H2275 C2288 0.960 . S
C2276 H2268 0.929 . S
C2276 C2277 1.377 . S
C2276 C2278 1.384 . S
C2277 C2276 1.377 . S
C2277 C2283 1.390 . S
C2278 H2269 0.930 . S
C2278 C2276 1.384 . S
C2278 C2279 1.372 . S
C2279 C2278 1.372 . S
C2279 C2280 1.400 . S
C2279 C2284 1.490 . S
C2280 H2270 0.930 . S
C2280 C2279 1.400 . S
C2280 C2283 1.386 . S
H2281 C2297 0.930 . S
H2282 C2298 0.931 . S
C2283 H2271 0.929 . S
C2283 C2277 1.390 . S
C2283 C2280 1.386 . S
C2284 C2279 1.490 . S
C2284 C2286 1.395 . S
C2284 C2287 1.403 . S
H2285 C2291 0.930 . S
C2286 H2272 0.930 . S
C2286 C2284 1.395 . S
C2286 C2289 1.403 . S
C2287 C2284 1.403 . S
C2287 C2288 1.524 . S
C2287 C2291 1.400 . S
C2288 H2273 0.960 . S
C2288 H2274 0.960 . S
C2288 H2275 0.960 . S
C2288 C2287 1.524 . S
C2289 C2286 1.403 . S
C2289 C2290 1.392 . S
C2289 C2293 1.495 . S
C2290 C2289 1.392 . S
C2290 C2291 1.385 . S
C2290 C2292 1.478 . S
C2291 H2285 0.930 . S
C2291 C2287 1.400 . S
C2291 C2290 1.385 . S
C2292 C2290 1.478 . S
C2292 C2294 1.381 . S
C2292 C2298 1.383 . S
C2293 C2289 1.495 . S
C2293 H2299 0.959 . S
C2293 H2300 0.961 . S
C2293 H2301 0.960 . S
C2294 C2292 1.381 . S
C2294 C2295 1.394 . S
C2294 H2302 0.930 . S
C2295 C2294 1.394 . S
C2295 C2296 1.383 . S
C2295 H2303 0.929 . S
C2296 C2295 1.383 . S
C2296 C2297 1.377 . S
C2297 H2281 0.930 . S
C2297 C2296 1.377 . S
C2297 C2298 1.379 . S
C2298 H2282 0.931 . S
C2298 C2292 1.383 . S
C2298 C2297 1.379 . S
H2299 C2293 0.959 . S
H2300 C2293 0.961 . S
H2301 C2293 0.960 . S
H2302 C2294 0.930 . S
H2303 C2295 0.929 . S
H2304 C2312 0.929 . S
H2305 C2314 0.930 . S
H2306 C2316 0.930 1_455 S
H2307 C2319 0.929 . S
H2308 C2322 0.930 . S
H2309 C2324 0.960 . S
H2310 C2324 0.960 . S
H2311 C2324 0.960 . S
C2312 H2304 0.929 . S
C2312 C2313 1.377 . S
C2312 C2314 1.384 . S
C2313 C2312 1.377 . S
C2313 C2319 1.390 . S
C2314 H2305 0.930 . S
C2314 C2312 1.384 . S
C2314 C2315 1.372 . S
C2315 C2314 1.372 . S
C2315 C2316 1.400 . S
C2315 C2320 1.490 . S
C2316 H2306 0.930 1_655 S
C2316 C2315 1.400 . S
C2316 C2319 1.386 . S
H2317 C2333 0.930 . S
H2318 C2334 0.931 . S
C2319 H2307 0.929 . S
C2319 C2313 1.390 . S
C2319 C2316 1.386 . S
C2320 C2315 1.490 . S
C2320 C2322 1.395 . S
C2320 C2323 1.403 . S
H2321 C2327 0.930 . S
C2322 H2308 0.930 . S
C2322 C2320 1.395 . S
C2322 C2325 1.403 . S
C2323 C2320 1.403 . S
C2323 C2324 1.524 . S
C2323 C2327 1.400 . S
C2324 H2309 0.960 . S
C2324 H2310 0.960 . S
C2324 H2311 0.960 . S
C2324 C2323 1.524 . S
C2325 C2322 1.403 . S
C2325 C2326 1.392 . S
C2325 C2329 1.495 . S
C2326 C2325 1.392 . S
C2326 C2327 1.385 . S
C2326 C2328 1.478 . S
C2327 H2321 0.930 . S
C2327 C2323 1.400 . S
C2327 C2326 1.385 . S
C2328 C2326 1.478 . S
C2328 C2330 1.381 . S
C2328 C2334 1.383 1_655 S
C2329 C2325 1.495 . S
C2329 H2335 0.959 . S
C2329 H2336 0.961 . S
C2329 H2337 0.960 . S
C2330 C2328 1.381 . S
C2330 C2331 1.394 . S
C2330 H2338 0.930 . S
C2331 C2330 1.394 . S
C2331 C2332 1.383 . S
C2331 H2339 0.929 . S
C2332 C2331 1.383 . S
C2332 C2333 1.377 1_655 S
C2333 H2317 0.930 . S
C2333 C2332 1.377 1_455 S
C2333 C2334 1.379 . S
C2334 H2318 0.931 . S
C2334 C2328 1.383 1_455 S
C2334 C2333 1.379 . S
H2335 C2329 0.959 . S
H2336 C2329 0.961 . S
H2337 C2329 0.960 . S
H2338 C2330 0.930 . S
H2339 C2331 0.929 . S
H2340 C2348 0.929 . S
H2341 C2350 0.930 . S
H2342 C2352 0.930 . S
H2343 C2355 0.929 . S
H2344 C2358 0.930 . S
H2345 C2360 0.960 . S
H2346 C2360 0.960 . S
H2347 C2360 0.960 . S
C2348 H2340 0.929 . S
C2348 C2349 1.377 . S
C2348 C2350 1.384 . S
C2349 C2348 1.377 . S
C2349 C2355 1.390 . S
C2350 H2341 0.930 . S
C2350 C2348 1.384 . S
C2350 C2351 1.372 . S
C2351 C2350 1.372 . S
C2351 C2352 1.400 . S
C2351 C2356 1.490 . S
C2352 H2342 0.930 . S
C2352 C2351 1.400 . S
C2352 C2355 1.386 . S
H2353 C2369 0.930 . S
H2354 C2370 0.931 . S
C2355 H2343 0.929 . S
C2355 C2349 1.390 . S
C2355 C2352 1.386 . S
C2356 C2351 1.490 . S
C2356 C2358 1.395 . S
C2356 C2359 1.403 . S
H2357 C2363 0.930 . S
C2358 H2344 0.930 . S
C2358 C2356 1.395 . S
C2358 C2361 1.403 . S
C2359 C2356 1.403 . S
C2359 C2360 1.524 . S
C2359 C2363 1.400 . S
C2360 H2345 0.960 . S
C2360 H2346 0.960 . S
C2360 H2347 0.960 . S
C2360 C2359 1.524 . S
C2361 C2358 1.403 . S
C2361 C2362 1.392 . S
C2361 C2365 1.495 . S
C2362 C2361 1.392 . S
C2362 C2363 1.385 . S
C2362 C2364 1.478 . S
C2363 H2357 0.930 . S
C2363 C2359 1.400 . S
C2363 C2362 1.385 . S
C2364 C2362 1.478 . S
C2364 C2366 1.381 . S
C2364 C2370 1.383 . S
C2365 C2361 1.495 . S
C2365 H2371 0.959 . S
C2365 H2372 0.961 . S
C2365 H2373 0.960 . S
C2366 C2364 1.381 . S
C2366 C2367 1.394 . S
C2366 H2374 0.930 . S
C2367 C2366 1.394 . S
C2367 C2368 1.383 . S
C2367 H2375 0.929 . S
C2368 C2367 1.383 . S
C2368 C2369 1.377 . S
C2369 H2353 0.930 . S
C2369 C2368 1.377 . S
C2369 C2370 1.379 . S
C2370 H2354 0.931 . S
C2370 C2364 1.383 . S
C2370 C2369 1.379 . S
H2371 C2365 0.959 . S
H2372 C2365 0.961 . S
H2373 C2365 0.960 . S
H2374 C2366 0.930 . S
H2375 C2367 0.929 . S
H2376 C2384 0.929 . S
H2377 C2386 0.930 . S
H2378 C2388 0.930 . S
H2379 C2391 0.887 1_554 S
H2380 C2394 0.930 . S
H2381 C2396 0.960 . S
H2382 C2396 0.960 . S
H2383 C2396 0.960 . S
C2384 H2376 0.929 . S
C2384 C2385 1.377 . S
C2384 C2386 1.384 . S
C2385 C2384 1.377 . S
C2385 C2391 1.390 . S
C2386 H2377 0.930 . S
C2386 C2384 1.384 . S
C2386 C2387 1.372 . S
C2387 C2386 1.372 . S
C2387 C2388 1.400 . S
C2387 C2392 1.490 . S
C2388 H2378 0.930 . S
C2388 C2387 1.400 . S
C2388 C2391 1.386 . S
H2389 C2405 0.930 . S
H2390 C2406 0.963 . S
C2391 H2379 0.887 1_556 S
C2391 C2385 1.390 . S
C2391 C2388 1.386 . S
C2392 C2387 1.490 . S
C2392 C2394 1.395 . S
C2392 C2395 1.403 . S
H2393 C2399 0.930 . S
C2394 H2380 0.930 . S
C2394 C2392 1.395 . S
C2394 C2397 1.403 . S
C2395 C2392 1.403 . S
C2395 C2396 1.524 . S
C2395 C2399 1.400 . S
C2396 H2381 0.960 . S
C2396 H2382 0.960 . S
C2396 H2383 0.960 . S
C2396 C2395 1.524 . S
C2397 C2394 1.403 . S
C2397 C2398 1.392 . S
C2397 C2401 1.495 . S
C2398 C2397 1.392 . S
C2398 C2399 1.385 . S
C2398 C2400 1.478 . S
C2399 H2393 0.930 . S
C2399 C2395 1.400 . S
C2399 C2398 1.385 . S
C2400 C2398 1.478 . S
C2400 C2402 1.381 . S
C2400 C2406 1.345 1_455 S
C2401 C2397 1.495 . S
C2401 H2407 0.959 . S
C2401 H2408 0.967 . S
C2401 H2409 0.960 . S
C2402 C2400 1.381 . S
C2402 C2403 1.394 . S
C2402 H2410 0.930 . S
C2403 C2402 1.394 . S
C2403 C2404 1.383 . S
C2403 H2411 0.929 . S
C2404 C2403 1.383 . S
C2404 C2405 1.377 1_455 S
C2405 H2389 0.930 . S
C2405 C2404 1.377 1_655 S
C2405 C2406 1.387 . S
C2406 H2390 0.963 . S
C2406 C2400 1.345 1_655 S
C2406 C2405 1.387 . S
H2407 C2401 0.959 . S
H2408 C2401 0.967 . S
H2409 C2401 0.960 . S
H2410 C2402 0.930 . S
H2411 C2403 0.929 . S
H2412 C2420 0.929 . S
H2413 C2422 0.930 . S
H2414 C2424 0.930 . S
H2415 C2427 0.929 . S
H2416 C2430 0.930 . S
H2417 C2432 0.960 . S
H2418 C2432 0.960 . S
H2419 C2432 0.960 . S
C2420 H2412 0.929 . S
C2420 C2421 1.377 . S
C2420 C2422 1.384 . S
C2421 C2420 1.377 . S
C2421 C2427 1.390 . S
C2422 H2413 0.930 . S
C2422 C2420 1.384 . S
C2422 C2423 1.372 . S
C2423 C2422 1.372 . S
C2423 C2424 1.400 . S
C2423 C2428 1.490 . S
C2424 H2414 0.930 . S
C2424 C2423 1.400 . S
C2424 C2427 1.386 . S
H2425 C2441 0.930 . S
H2426 C2442 0.931 . S
C2427 H2415 0.929 . S
C2427 C2421 1.390 . S
C2427 C2424 1.386 . S
C2428 C2423 1.490 . S
C2428 C2430 1.395 . S
C2428 C2431 1.403 . S
H2429 C2435 0.930 . S
C2430 H2416 0.930 . S
C2430 C2428 1.395 . S
C2430 C2433 1.403 . S
C2431 C2428 1.403 . S
C2431 C2432 1.524 . S
C2431 C2435 1.400 . S
C2432 H2417 0.960 . S
C2432 H2418 0.960 . S
C2432 H2419 0.960 . S
C2432 C2431 1.524 . S
C2433 C2430 1.403 . S
C2433 C2434 1.392 . S
C2433 C2437 1.495 . S
C2434 C2433 1.392 . S
C2434 C2435 1.385 . S
C2434 C2436 1.478 . S
C2435 H2429 0.930 . S
C2435 C2431 1.400 . S
C2435 C2434 1.385 . S
C2436 C2434 1.478 . S
C2436 C2438 1.381 . S
C2436 C2442 1.383 . S
C2437 C2433 1.495 . S
C2437 H2443 0.959 . S
C2437 H2444 0.961 . S
C2437 H2445 0.960 . S
C2438 C2436 1.381 . S
C2438 C2439 1.394 . S
C2438 H2446 0.930 . S
C2439 C2438 1.394 . S
C2439 C2440 1.383 . S
C2439 H2447 0.929 . S
C2440 C2439 1.383 . S
C2440 C2441 1.377 . S
C2441 H2425 0.930 . S
C2441 C2440 1.377 . S
C2441 C2442 1.379 . S
C2442 H2426 0.931 . S
C2442 C2436 1.383 . S
C2442 C2441 1.379 . S
H2443 C2437 0.959 . S
H2444 C2437 0.961 . S
H2445 C2437 0.960 . S
H2446 C2438 0.930 . S
H2447 C2439 0.929 . S
H2448 C2456 0.929 . S
H2449 C2458 0.930 . S
H2450 C2460 0.930 . S
H2451 C2463 0.929 1_556 S
H2452 C2466 0.930 . S
H2453 C2468 0.960 . S
H2454 C2468 0.960 . S
H2455 C2468 0.960 . S
C2456 H2448 0.929 . S
C2456 C2457 1.377 . S
C2456 C2458 1.384 . S
C2457 C2456 1.377 . S
C2457 C2463 1.390 . S
C2458 H2449 0.930 . S
C2458 C2456 1.384 . S
C2458 C2459 1.372 . S
C2459 C2458 1.372 . S
C2459 C2460 1.400 . S
C2459 C2464 1.490 . S
C2460 H2450 0.930 . S
C2460 C2459 1.400 . S
C2460 C2463 1.386 . S
H2461 C2477 0.930 . S
H2462 C2478 0.931 . S
C2463 H2451 0.929 1_554 S
C2463 C2457 1.390 . S
C2463 C2460 1.386 . S
C2464 C2459 1.490 . S
C2464 C2466 1.395 . S
C2464 C2467 1.403 . S
H2465 C2471 0.930 . S
C2466 H2452 0.930 . S
C2466 C2464 1.395 . S
C2466 C2469 1.403 . S
C2467 C2464 1.403 . S
C2467 C2468 1.524 . S
C2467 C2471 1.400 . S
C2468 H2453 0.960 . S
C2468 H2454 0.960 . S
C2468 H2455 0.960 . S
C2468 C2467 1.524 . S
C2469 C2466 1.403 . S
C2469 C2470 1.392 . S
C2469 C2473 1.495 . S
C2470 C2469 1.392 . S
C2470 C2471 1.385 . S
C2470 C2472 1.478 . S
C2471 H2465 0.930 . S
C2471 C2467 1.400 . S
C2471 C2470 1.385 . S
C2472 C2470 1.478 . S
C2472 C2474 1.381 . S
C2472 C2478 1.383 . S
C2473 C2469 1.495 . S
C2473 H2479 0.959 . S
C2473 H2480 0.961 . S
C2473 H2481 0.960 . S
C2474 C2472 1.381 . S
C2474 C2475 1.394 . S
C2474 H2482 0.930 . S
C2475 C2474 1.394 . S
C2475 C2476 1.383 . S
C2475 H2483 0.929 . S
C2476 C2475 1.383 . S
C2476 C2477 1.377 . S
C2477 H2461 0.930 . S
C2477 C2476 1.377 . S
C2477 C2478 1.379 . S
C2478 H2462 0.931 . S
C2478 C2472 1.383 . S
C2478 C2477 1.379 . S
H2479 C2473 0.959 . S
H2480 C2473 0.961 . S
H2481 C2473 0.960 . S
H2482 C2474 0.930 . S
H2483 C2475 0.929 . S
H2484 C2492 0.929 . S
H2485 C2494 0.930 . S
H2486 C2496 0.930 . S
H2487 C2499 0.929 . S
H2488 C2502 0.930 . S
H2489 C2504 0.960 . S
H2490 C2504 0.960 . S
H2491 C2504 0.960 . S
C2492 H2484 0.929 . S
C2492 C2493 1.377 . S
C2492 C2494 1.384 . S
C2493 C2492 1.377 . S
C2493 C2499 1.390 . S
C2494 H2485 0.930 . S
C2494 C2492 1.384 . S
C2494 C2495 1.372 . S
C2495 C2494 1.372 . S
C2495 C2496 1.400 . S
C2495 C2500 1.490 . S
C2496 H2486 0.930 . S
C2496 C2495 1.400 . S
C2496 C2499 1.386 . S
H2497 C2513 0.930 . S
H2498 C2514 0.931 . S
C2499 H2487 0.929 . S
C2499 C2493 1.390 . S
C2499 C2496 1.386 . S
C2500 C2495 1.490 . S
C2500 C2502 1.395 . S
C2500 C2503 1.403 . S
H2501 C2507 0.930 . S
C2502 H2488 0.930 . S
C2502 C2500 1.395 . S
C2502 C2505 1.403 . S
C2503 C2500 1.403 . S
C2503 C2504 1.524 . S
C2503 C2507 1.400 . S
C2504 H2489 0.960 . S
C2504 H2490 0.960 . S
C2504 H2491 0.960 . S
C2504 C2503 1.524 . S
C2505 C2502 1.403 . S
C2505 C2506 1.392 . S
C2505 C2509 1.495 . S
C2506 C2505 1.392 . S
C2506 C2507 1.385 . S
C2506 C2508 1.478 . S
C2507 H2501 0.930 . S
C2507 C2503 1.400 . S
C2507 C2506 1.385 . S
C2508 C2506 1.478 . S
C2508 C2510 1.381 . S
C2508 C2514 1.383 . S
C2509 C2505 1.495 . S
C2509 H2515 0.959 . S
C2509 H2516 0.961 . S
C2509 H2517 0.960 . S
C2510 C2508 1.381 . S
C2510 C2511 1.394 . S
C2510 H2518 0.930 . S
C2511 C2510 1.394 . S
C2511 C2512 1.383 . S
C2511 H2519 0.929 . S
C2512 C2511 1.383 . S
C2512 C2513 1.377 . S
C2513 H2497 0.930 . S
C2513 C2512 1.377 . S
C2513 C2514 1.379 . S
C2514 H2498 0.931 . S
C2514 C2508 1.383 . S
C2514 C2513 1.379 . S
H2515 C2509 0.959 . S
H2516 C2509 0.961 . S
H2517 C2509 0.960 . S
H2518 C2510 0.930 . S
H2519 C2511 0.929 . S
H2520 C2528 0.929 . S
H2521 C2530 0.930 . S
H2522 C2532 0.930 . S
H2523 C2535 0.929 . S
H2524 C2538 0.930 . S
H2525 C2540 0.960 . S
H2526 C2540 0.960 . S
H2527 C2540 0.960 . S
C2528 H2520 0.929 . S
C2528 C2529 1.377 . S
C2528 C2530 1.384 . S
C2529 C2528 1.377 . S
C2529 C2535 1.390 . S
C2530 H2521 0.930 . S
C2530 C2528 1.384 . S
C2530 C2531 1.372 . S
C2531 C2530 1.372 . S
C2531 C2532 1.400 . S
C2531 C2536 1.490 . S
C2532 H2522 0.930 . S
C2532 C2531 1.400 . S
C2532 C2535 1.386 . S
H2533 C2549 0.930 . S
H2534 C2550 0.931 . S
C2535 H2523 0.929 . S
C2535 C2529 1.390 . S
C2535 C2532 1.386 . S
C2536 C2531 1.490 . S
C2536 C2538 1.395 . S
C2536 C2539 1.403 . S
H2537 C2543 0.930 . S
C2538 H2524 0.930 . S
C2538 C2536 1.395 . S
C2538 C2541 1.403 . S
C2539 C2536 1.403 . S
C2539 C2540 1.524 . S
C2539 C2543 1.400 . S
C2540 H2525 0.960 . S
C2540 H2526 0.960 . S
C2540 H2527 0.960 . S
C2540 C2539 1.524 . S
C2541 C2538 1.403 . S
C2541 C2542 1.392 . S
C2541 C2545 1.495 . S
C2542 C2541 1.392 . S
C2542 C2543 1.385 . S
C2542 C2544 1.478 . S
C2543 H2537 0.930 . S
C2543 C2539 1.400 . S
C2543 C2542 1.385 . S
C2544 C2542 1.478 . S
C2544 C2546 1.381 . S
C2544 C2550 1.383 . S
C2545 C2541 1.495 . S
C2545 H2551 0.959 . S
C2545 H2552 0.961 . S
C2545 H2553 0.960 . S
C2546 C2544 1.381 . S
C2546 C2547 1.394 . S
C2546 H2554 0.930 . S
C2547 C2546 1.394 . S
C2547 C2548 1.383 . S
C2547 H2555 0.929 . S
C2548 C2547 1.383 . S
C2548 C2549 1.377 . S
C2549 H2533 0.930 . S
C2549 C2548 1.377 . S
C2549 C2550 1.379 . S
C2550 H2534 0.931 . S
C2550 C2544 1.383 . S
C2550 C2549 1.379 . S
H2551 C2545 0.959 . S
H2552 C2545 0.961 . S
H2553 C2545 0.960 . S
H2554 C2546 0.930 . S
H2555 C2547 0.929 . S
H2556 C2564 0.929 . S
H2557 C2566 0.930 . S
H2558 C2568 0.930 . S
H2559 C2571 0.929 . S
H2560 C2574 0.930 . S
H2561 C2576 0.960 . S
H2562 C2576 0.960 . S
H2563 C2576 0.960 . S
C2564 H2556 0.929 . S
C2564 C2565 1.377 . S
C2564 C2566 1.384 . S
C2565 C2564 1.377 . S
C2565 C2571 1.390 . S
C2566 H2557 0.930 . S
C2566 C2564 1.384 . S
C2566 C2567 1.372 . S
C2567 C2566 1.372 . S
C2567 C2568 1.400 . S
C2567 C2572 1.490 . S
C2568 H2558 0.930 . S
C2568 C2567 1.400 . S
C2568 C2571 1.386 . S
H2569 C2585 0.930 . S
H2570 C2586 0.931 . S
C2571 H2559 0.929 . S
C2571 C2565 1.390 . S
C2571 C2568 1.386 . S
C2572 C2567 1.490 . S
C2572 C2574 1.395 . S
C2572 C2575 1.403 . S
H2573 C2579 0.930 . S
C2574 H2560 0.930 . S
C2574 C2572 1.395 . S
C2574 C2577 1.403 . S
C2575 C2572 1.403 . S
C2575 C2576 1.524 . S
C2575 C2579 1.400 . S
C2576 H2561 0.960 . S
C2576 H2562 0.960 . S
C2576 H2563 0.960 . S
C2576 C2575 1.524 . S
C2577 C2574 1.403 . S
C2577 C2578 1.392 . S
C2577 C2581 1.495 . S
C2578 C2577 1.392 . S
C2578 C2579 1.385 . S
C2578 C2580 1.478 . S
C2579 H2573 0.930 . S
C2579 C2575 1.400 . S
C2579 C2578 1.385 . S
C2580 C2578 1.478 . S
C2580 C2582 1.381 . S
C2580 C2586 1.383 . S
C2581 C2577 1.495 . S
C2581 H2587 0.959 . S
C2581 H2588 0.961 . S
C2581 H2589 0.960 . S
C2582 C2580 1.381 . S
C2582 C2583 1.394 . S
C2582 H2590 0.930 . S
C2583 C2582 1.394 . S
C2583 C2584 1.383 . S
C2583 H2591 0.929 . S
C2584 C2583 1.383 . S
C2584 C2585 1.377 . S
C2585 H2569 0.930 . S
C2585 C2584 1.377 . S
C2585 C2586 1.379 . S
C2586 H2570 0.931 . S
C2586 C2580 1.383 . S
C2586 C2585 1.379 . S
H2587 C2581 0.959 . S
H2588 C2581 0.961 . S
H2589 C2581 0.960 . S
H2590 C2582 0.930 . S
H2591 C2583 0.929 . S
H2592 C2600 0.929 . S
H2593 C2602 0.930 . S
H2594 C2604 0.930 . S
H2595 C2607 0.929 . S
H2596 C2610 0.930 . S
H2597 C2612 0.960 . S
H2598 C2612 0.960 . S
H2599 C2612 0.960 . S
C2600 H2592 0.929 . S
C2600 C2601 1.377 . S
C2600 C2602 1.384 . S
C2601 C2600 1.377 . S
C2601 C2607 1.390 . S
C2602 H2593 0.930 . S
C2602 C2600 1.384 . S
C2602 C2603 1.372 . S
C2603 C2602 1.372 . S
C2603 C2604 1.400 . S
C2603 C2608 1.490 . S
C2604 H2594 0.930 . S
C2604 C2603 1.400 . S
C2604 C2607 1.386 . S
H2605 C2621 0.930 . S
H2606 C2622 0.931 . S
C2607 H2595 0.929 . S
C2607 C2601 1.390 . S
C2607 C2604 1.386 . S
C2608 C2603 1.490 . S
C2608 C2610 1.395 . S
C2608 C2611 1.403 . S
H2609 C2615 0.930 . S
C2610 H2596 0.930 . S
C2610 C2608 1.395 . S
C2610 C2613 1.403 . S
C2611 C2608 1.403 . S
C2611 C2612 1.524 . S
C2611 C2615 1.400 . S
C2612 H2597 0.960 . S
C2612 H2598 0.960 . S
C2612 H2599 0.960 . S
C2612 C2611 1.524 . S
C2613 C2610 1.403 . S
C2613 C2614 1.392 . S
C2613 C2617 1.495 . S
C2614 C2613 1.392 . S
C2614 C2615 1.385 . S
C2614 C2616 1.478 . S
C2615 H2609 0.930 . S
C2615 C2611 1.400 . S
C2615 C2614 1.385 . S
C2616 C2614 1.478 . S
C2616 C2618 1.381 . S
C2616 C2622 1.383 . S
C2617 C2613 1.495 . S
C2617 H2623 0.959 . S
C2617 H2624 0.961 . S
C2617 H2625 0.960 . S
C2618 C2616 1.381 . S
C2618 C2619 1.394 . S
C2618 H2626 0.930 . S
C2619 C2618 1.394 . S
C2619 C2620 1.383 . S
C2619 H2627 0.929 . S
C2620 C2619 1.383 . S
C2620 C2621 1.377 . S
C2621 H2605 0.930 . S
C2621 C2620 1.377 . S
C2621 C2622 1.379 . S
C2622 H2606 0.931 . S
C2622 C2616 1.383 . S
C2622 C2621 1.379 . S
H2623 C2617 0.959 . S
H2624 C2617 0.961 . S
H2625 C2617 0.960 . S
H2626 C2618 0.930 . S
H2627 C2619 0.929 . S
H2628 C2636 0.929 . S
H2629 C2638 0.930 . S
H2630 C2640 0.930 . S
H2631 C2643 0.929 . S
H2632 C2646 0.930 . S
H2633 C2648 0.960 . S
H2634 C2648 0.960 . S
H2635 C2648 0.960 . S
C2636 H2628 0.929 . S
C2636 C2637 1.377 . S
C2636 C2638 1.384 . S
C2637 C2636 1.377 . S
C2637 C2643 1.390 . S
C2638 H2629 0.930 . S
C2638 C2636 1.384 . S
C2638 C2639 1.372 . S
C2639 C2638 1.372 . S
C2639 C2640 1.400 . S
C2639 C2644 1.490 . S
C2640 H2630 0.930 . S
C2640 C2639 1.400 . S
C2640 C2643 1.386 . S
H2641 C2657 0.930 . S
H2642 C2658 0.931 . S
C2643 H2631 0.929 . S
C2643 C2637 1.390 . S
C2643 C2640 1.386 . S
C2644 C2639 1.490 . S
C2644 C2646 1.395 . S
C2644 C2647 1.403 . S
H2645 C2651 0.930 . S
C2646 H2632 0.930 . S
C2646 C2644 1.395 . S
C2646 C2649 1.403 . S
C2647 C2644 1.403 . S
C2647 C2648 1.524 . S
C2647 C2651 1.400 . S
C2648 H2633 0.960 . S
C2648 H2634 0.960 . S
C2648 H2635 0.960 . S
C2648 C2647 1.524 . S
C2649 C2646 1.403 . S
C2649 C2650 1.392 . S
C2649 C2653 1.495 . S
C2650 C2649 1.392 . S
C2650 C2651 1.385 . S
C2650 C2652 1.478 . S
C2651 H2645 0.930 . S
C2651 C2647 1.400 . S
C2651 C2650 1.385 . S
C2652 C2650 1.478 . S
C2652 C2654 1.381 . S
C2652 C2658 1.383 . S
C2653 C2649 1.495 . S
C2653 H2659 0.959 . S
C2653 H2660 0.961 . S
C2653 H2661 0.960 . S
C2654 C2652 1.381 . S
C2654 C2655 1.394 . S
C2654 H2662 0.930 . S
C2655 C2654 1.394 . S
C2655 C2656 1.383 . S
C2655 H2663 0.929 . S
C2656 C2655 1.383 . S
C2656 C2657 1.377 . S
C2657 H2641 0.930 . S
C2657 C2656 1.377 . S
C2657 C2658 1.379 . S
C2658 H2642 0.931 . S
C2658 C2652 1.383 . S
C2658 C2657 1.379 . S
H2659 C2653 0.959 . S
H2660 C2653 0.961 . S
H2661 C2653 0.960 . S
H2662 C2654 0.930 . S
H2663 C2655 0.929 . S
H2664 C2672 0.929 . S
H2665 C2674 0.930 . S
H2666 C2676 0.930 . S
H2667 C2679 0.929 . S
H2668 C2682 0.930 . S
H2669 C2684 0.960 . S
H2670 C2684 0.960 . S
H2671 C2684 0.960 . S
C2672 H2664 0.929 . S
C2672 C2673 1.377 . S
C2672 C2674 1.384 . S
C2673 C2672 1.377 . S
C2673 C2679 1.390 . S
C2674 H2665 0.930 . S
C2674 C2672 1.384 . S
C2674 C2675 1.372 . S
C2675 C2674 1.372 . S
C2675 C2676 1.400 . S
C2675 C2680 1.490 . S
C2676 H2666 0.930 . S
C2676 C2675 1.400 . S
C2676 C2679 1.386 . S
H2677 C2693 0.930 . S
H2678 C2694 0.931 . S
C2679 H2667 0.929 . S
C2679 C2673 1.390 . S
C2679 C2676 1.386 . S
C2680 C2675 1.490 . S
C2680 C2682 1.395 . S
C2680 C2683 1.403 . S
H2681 C2687 0.930 . S
C2682 H2668 0.930 . S
C2682 C2680 1.395 . S
C2682 C2685 1.403 . S
C2683 C2680 1.403 . S
C2683 C2684 1.524 . S
C2683 C2687 1.400 . S
C2684 H2669 0.960 . S
C2684 H2670 0.960 . S
C2684 H2671 0.960 . S
C2684 C2683 1.524 . S
C2685 C2682 1.403 . S
C2685 C2686 1.392 . S
C2685 C2689 1.495 . S
C2686 C2685 1.392 . S
C2686 C2687 1.385 . S
C2686 C2688 1.478 . S
C2687 H2681 0.930 . S
C2687 C2683 1.400 . S
C2687 C2686 1.385 . S
C2688 C2686 1.478 . S
C2688 C2690 1.381 . S
C2688 C2694 1.383 . S
C2689 C2685 1.495 . S
C2689 H2695 0.959 . S
C2689 H2696 0.961 . S
C2689 H2697 0.960 . S
C2690 C2688 1.381 . S
C2690 C2691 1.394 . S
C2690 H2698 0.930 . S
C2691 C2690 1.394 . S
C2691 C2692 1.383 . S
C2691 H2699 0.929 . S
C2692 C2691 1.383 . S
C2692 C2693 1.377 . S
C2693 H2677 0.930 . S
C2693 C2692 1.377 . S
C2693 C2694 1.379 . S
C2694 H2678 0.931 . S
C2694 C2688 1.383 . S
C2694 C2693 1.379 . S
H2695 C2689 0.959 . S
H2696 C2689 0.961 . S
H2697 C2689 0.960 . S
H2698 C2690 0.930 . S
H2699 C2691 0.929 . S
H2700 C2708 0.929 . S
H2701 C2710 0.930 . S
H2702 C2712 0.930 . S
H2703 C2715 0.929 . S
H2704 C2718 0.930 . S
H2705 C2720 0.960 . S
H2706 C2720 0.960 . S
H2707 C2720 0.960 . S
C2708 H2700 0.929 . S
C2708 C2709 1.377 . S
C2708 C2710 1.384 . S
C2709 C2708 1.377 . S
C2709 C2715 1.390 . S
C2710 H2701 0.930 . S
C2710 C2708 1.384 . S
C2710 C2711 1.372 . S
C2711 C2710 1.372 . S
C2711 C2712 1.400 . S
C2711 C2716 1.490 . S
C2712 H2702 0.930 . S
C2712 C2711 1.400 . S
C2712 C2715 1.386 . S
H2713 C2729 0.930 . S
H2714 C2730 0.931 . S
C2715 H2703 0.929 . S
C2715 C2709 1.390 . S
C2715 C2712 1.386 . S
C2716 C2711 1.490 . S
C2716 C2718 1.395 . S
C2716 C2719 1.403 . S
H2717 C2723 0.930 . S
C2718 H2704 0.930 . S
C2718 C2716 1.395 . S
C2718 C2721 1.403 . S
C2719 C2716 1.403 . S
C2719 C2720 1.524 . S
C2719 C2723 1.400 . S
C2720 H2705 0.960 . S
C2720 H2706 0.960 . S
C2720 H2707 0.960 . S
C2720 C2719 1.524 . S
C2721 C2718 1.403 . S
C2721 C2722 1.392 . S
C2721 C2725 1.495 . S
C2722 C2721 1.392 . S
C2722 C2723 1.385 . S
C2722 C2724 1.478 . S
C2723 H2717 0.930 . S
C2723 C2719 1.400 . S
C2723 C2722 1.385 . S
C2724 C2722 1.478 . S
C2724 C2726 1.381 1_556 S
C2724 C2730 1.383 . S
C2725 C2721 1.495 . S
C2725 H2731 0.959 . S
C2725 H2732 0.961 . S
C2725 H2733 0.960 . S
C2726 C2724 1.381 1_554 S
C2726 C2727 1.394 . S
C2726 H2734 0.930 . S
C2727 C2726 1.394 . S
C2727 C2728 1.383 1_554 S
C2727 H2735 0.929 . S
C2728 C2727 1.383 1_556 S
C2728 C2729 1.377 . S
C2729 H2713 0.930 . S
C2729 C2728 1.377 . S
C2729 C2730 1.379 . S
C2730 H2714 0.931 . S
C2730 C2724 1.383 . S
C2730 C2729 1.379 . S
H2731 C2725 0.959 . S
H2732 C2725 0.961 . S
H2733 C2725 0.960 . S
H2734 C2726 0.930 . S
H2735 C2727 0.929 . S
H2736 C2744 0.929 . S
H2737 C2746 0.930 . S
H2738 C2748 0.930 . S
H2739 C2751 0.929 . S
H2740 C2754 0.930 . S
H2741 C2756 0.960 . S
H2742 C2756 0.960 . S
H2743 C2756 0.960 . S
C2744 H2736 0.929 . S
C2744 C2745 1.377 . S
C2744 C2746 1.384 . S
C2745 C2744 1.377 . S
C2745 C2751 1.390 . S
C2746 H2737 0.930 . S
C2746 C2744 1.384 . S
C2746 C2747 1.372 . S
C2747 C2746 1.372 . S
C2747 C2748 1.400 . S
C2747 C2752 1.490 . S
C2748 H2738 0.930 . S
C2748 C2747 1.400 . S
C2748 C2751 1.386 . S
H2749 C2765 0.930 . S
H2750 C2766 0.931 . S
C2751 H2739 0.929 . S
C2751 C2745 1.390 . S
C2751 C2748 1.386 . S
C2752 C2747 1.490 . S
C2752 C2754 1.395 . S
C2752 C2755 1.403 . S
H2753 C2759 0.930 . S
C2754 H2740 0.930 . S
C2754 C2752 1.395 . S
C2754 C2757 1.403 . S
C2755 C2752 1.403 . S
C2755 C2756 1.524 . S
C2755 C2759 1.400 . S
C2756 H2741 0.960 . S
C2756 H2742 0.960 . S
C2756 H2743 0.960 . S
C2756 C2755 1.524 . S
C2757 C2754 1.403 . S
C2757 C2758 1.392 . S
C2757 C2761 1.495 . S
C2758 C2757 1.392 . S
C2758 C2759 1.385 . S
C2758 C2760 1.478 . S
C2759 H2753 0.930 . S
C2759 C2755 1.400 . S
C2759 C2758 1.385 . S
C2760 C2758 1.478 . S
C2760 C2762 1.381 . S
C2760 C2766 1.383 . S
C2761 C2757 1.495 . S
C2761 H2767 0.959 . S
C2761 H2768 0.961 . S
C2761 H2769 0.960 . S
C2762 C2760 1.381 . S
C2762 C2763 1.394 . S
C2762 H2770 0.930 . S
C2763 C2762 1.394 . S
C2763 C2764 1.383 . S
C2763 H2771 0.929 . S
C2764 C2763 1.383 . S
C2764 C2765 1.377 . S
C2765 H2749 0.930 . S
C2765 C2764 1.377 . S
C2765 C2766 1.379 . S
C2766 H2750 0.931 . S
C2766 C2760 1.383 . S
C2766 C2765 1.379 . S
H2767 C2761 0.959 . S
H2768 C2761 0.961 . S
H2769 C2761 0.960 . S
H2770 C2762 0.930 . S
H2771 C2763 0.929 . S
H2772 C2780 0.929 . S
H2773 C2782 0.930 . S
H2774 C2784 0.930 . S
H2775 C2787 0.929 . S
H2776 C2790 0.930 . S
H2777 C2792 0.960 . S
H2778 C2792 0.960 . S
H2779 C2792 0.960 . S
C2780 H2772 0.929 . S
C2780 C2781 1.377 . S
C2780 C2782 1.384 . S
C2781 C2780 1.377 . S
C2781 C2787 1.390 . S
C2782 H2773 0.930 . S
C2782 C2780 1.384 . S
C2782 C2783 1.372 . S
C2783 C2782 1.372 . S
C2783 C2784 1.400 . S
C2783 C2788 1.490 . S
C2784 H2774 0.930 . S
C2784 C2783 1.400 . S
C2784 C2787 1.386 . S
H2785 C2801 0.930 . S
H2786 C2802 0.931 . S
C2787 H2775 0.929 . S
C2787 C2781 1.390 . S
C2787 C2784 1.386 . S
C2788 C2783 1.490 . S
C2788 C2790 1.395 . S
C2788 C2791 1.403 . S
H2789 C2795 0.930 . S
C2790 H2776 0.930 . S
C2790 C2788 1.395 . S
C2790 C2793 1.403 . S
C2791 C2788 1.403 . S
C2791 C2792 1.524 . S
C2791 C2795 1.400 . S
C2792 H2777 0.960 . S
C2792 H2778 0.960 . S
C2792 H2779 0.960 . S
C2792 C2791 1.524 . S
C2793 C2790 1.403 . S
C2793 C2794 1.392 . S
C2793 C2797 1.504 . S
C2794 C2793 1.392 . S
C2794 C2795 1.385 . S
C2794 C2796 1.478 . S
C2795 H2789 0.930 . S
C2795 C2791 1.400 . S
C2795 C2794 1.385 . S
C2796 C2794 1.478 . S
C2796 C2798 1.381 . S
C2796 C2802 1.383 1_554 S
C2797 C2793 1.504 . S
C2797 H2803 0.956 1_554 S
C2797 H2804 0.943 1_554 S
C2797 H2805 0.972 . S
C2798 C2796 1.381 . S
C2798 C2799 1.394 . S
C2798 H2806 0.930 . S
C2799 C2798 1.394 . S
C2799 C2800 1.383 . S
C2799 H2807 0.929 . S
C2800 C2799 1.383 . S
C2800 C2801 1.377 1_554 S
C2801 H2785 0.930 . S
C2801 C2800 1.377 1_556 S
C2801 C2802 1.379 . S
C2802 H2786 0.931 . S
C2802 C2796 1.383 1_556 S
C2802 C2801 1.379 . S
H2803 C2797 0.956 1_556 S
H2804 C2797 0.943 1_556 S
H2805 C2797 0.972 . S
H2806 C2798 0.930 . S
H2807 C2799 0.929 . S
H2808 C2816 0.929 . S
H2809 C2818 0.930 . S
H2810 C2820 0.930 . S
H2811 C2823 0.929 1_545 S
H2812 C2826 0.930 . S
H2813 C2828 0.960 . S
H2814 C2828 0.960 . S
H2815 C2828 0.960 . S
C2816 H2808 0.929 . S
C2816 C2817 1.377 . S
C2816 C2818 1.384 . S
C2817 C2816 1.377 . S
C2817 C2823 1.390 . S
C2818 H2809 0.930 . S
C2818 C2816 1.384 . S
C2818 C2819 1.372 . S
C2819 C2818 1.372 . S
C2819 C2820 1.400 . S
C2819 C2824 1.490 . S
C2820 H2810 0.930 . S
C2820 C2819 1.400 . S
C2820 C2823 1.386 . S
H2821 C2837 0.930 1_556 S
H2822 C2838 0.931 1_556 S
C2823 H2811 0.929 1_565 S
C2823 C2817 1.390 . S
C2823 C2820 1.386 . S
C2824 C2819 1.490 . S
C2824 C2826 1.395 . S
C2824 C2827 1.403 . S
H2825 C2831 0.930 . S
C2826 H2812 0.930 . S
C2826 C2824 1.395 . S
C2826 C2829 1.403 . S
C2827 C2824 1.403 . S
C2827 C2828 1.524 . S
C2827 C2831 1.400 . S
C2828 H2813 0.960 . S
C2828 H2814 0.960 . S
C2828 H2815 0.960 . S
C2828 C2827 1.524 . S
C2829 C2826 1.403 . S
C2829 C2830 1.392 . S
C2829 C2833 1.495 . S
C2830 C2829 1.392 . S
C2830 C2831 1.385 . S
C2830 C2832 1.478 . S
C2831 H2825 0.930 . S
C2831 C2827 1.400 . S
C2831 C2830 1.385 . S
C2832 C2830 1.478 . S
C2832 C2834 1.381 . S
C2832 C2838 1.383 . S
C2833 C2829 1.495 . S
C2833 H2839 0.959 . S
C2833 H2840 0.961 . S
C2833 H2841 0.960 . S
C2834 C2832 1.381 . S
C2834 C2835 1.394 . S
C2834 H2842 0.930 . S
C2835 C2834 1.394 . S
C2835 C2836 1.383 . S
C2835 H2843 0.929 . S
C2836 C2835 1.383 . S
C2836 C2837 1.377 . S
C2837 H2821 0.930 1_554 S
C2837 C2836 1.377 . S
C2837 C2838 1.379 . S
C2838 H2822 0.931 1_554 S
C2838 C2832 1.383 . S
C2838 C2837 1.379 . S
H2839 C2833 0.959 . S
H2840 C2833 0.961 . S
H2841 C2833 0.960 . S
H2842 C2834 0.930 . S
H2843 C2835 0.929 . S
C1144 C970 1.388 . S
C1125 C331 1.384 . S
C1180 C983 1.621 . S
C1161 C380 1.610 . S
C1197 C421 1.420 . S
C1216 C996 1.422 . S
C1252 C1009 1.516 . S
C1233 C260 1.513 . S
C1288 C1017 1.454 . S
C1269 C620 1.462 . S
C1324 C1030 1.407 . S
C1305 C740 1.402 . S
C1341 C680 1.495 . S
C1360 C1043 1.476 . S
C1396 C1056 1.523 . S
C1377 C571 1.500 . S
C1413 C691 1.406 . S
C1432 C1074 1.400 . S
C1468 C1085 1.531 . S
C1449 C541 1.537 . S
C1485 C601 1.428 . S
C1504 C1069 1.409 . S
C1540 C1077 1.458 . S
C1521 C721 1.464 . S
C1557 C451 1.474 . S
C1576 C1100 1.487 . S
C1593 C241 1.498 . S
C1612 C1090 1.492 . S
C1629 C320 1.482 . S
C1648 C1095 1.500 . S
C1665 C391 1.562 . S
C1684 C1098 1.532 1_655 S
C1701 C211 1.416 . S
C1720 C1007 1.430 . S
C1737 C841 1.385 . S
C1756 C999 1.372 . S
C1792 C968 1.552 . S
C1773 C901 1.572 . S
C1828 C973 1.488 . S
C1809 C500 1.493 . S
C1845 C271 1.528 . S
C1864 C1020 1.510 . S
C1900 C1059 1.488 . S
C1881 C661 1.515 . S
C1936 C1012 1.467 . S
C1917 C560 1.494 . S
C1972 C1038 1.440 . S
C1953 C751 1.460 . S
C2008 C1048 1.412 . S
C1989 C871 1.387 . S
C2025 C920 1.607 . S
C2044 C1061 1.621 . S
C2061 C481 1.425 . S
C2080 C1022 1.440 . S
C2116 C1035 1.539 . S
C2097 C800 1.520 . S
C2133 C200 1.465 . S
C2152 C991 1.438 . S
C2188 C1004 1.419 . S
C2169 C20 1.409 . S
C2224 C965 1.512 . S
C2205 C80 1.501 . S
C2260 C978 1.506 . S
C2241 C151 1.495 . S
C2277 C91 1.402 . S
C2296 C1087 1.421 . S
C2313 C121 1.534 . S
C2332 C1072 1.488 1_655 S
C2349 C181 1.422 . S
C2368 C1082 1.413 . S
C2385 C1 1.449 1_556 S
C2404 C1064 1.441 . S
C2440 C1113 1.474 . S
C2421 C511 1.474 . S
C2476 C1103 1.476 . S
C2457 C781 1.505 1_554 S
C2512 C1108 1.500 . S
C2493 C860 1.483 . S
C2529 C931 1.559 . S
C2548 C1111 1.546 . S
C2565 C631 1.416 . S
C2584 C1033 1.431 . S
C2620 C1025 1.387 . S
C2601 C301 1.389 . S
C2656 C1046 1.541 . S
C2637 C361 1.569 . S
C2692 C1051 1.491 . S
C2673 C440 1.498 . S
C2709 C811 1.524 . S
C2728 C994 1.537 . S
C2764 C981 1.497 . S
C2745 C61 1.519 . S
C2781 C140 1.494 . S
C2800 C986 1.466 . S
C2836 C960 1.433 . S
C2817 C31 1.461 1_565 S
