# Generated by pormake.
# Topology nom, (4,4)-cn, num edge types: 1
# Building blocks:
#     Node 0, Type 0, BuildingBlock: MUDLON_clean_linker_0, # of connection points: 4
#     Node 1, Type 0, BuildingBlock: MUDLON_clean_linker_0, # of connection points: 4
#     Node 2, Type 0, BuildingBlock: MUDLON_clean_linker_0, # of connection points: 4
#     Node 3, Type 0, BuildingBlock: MUDLON_clean_linker_0, # of connection points: 4
#     Node 4, Type 0, BuildingBlock: MUDLON_clean_linker_0, # of connection points: 4
#     Node 5, Type 0, BuildingBlock: MUDLON_clean_linker_0, # of connection points: 4
#     Node 6, Type 1, BuildingBlock: NAHDIM_clean_sbu_0, # of connection points: 4
#     Node 7, Type 1, BuildingBlock: NAHDIM_clean_sbu_0, # of connection points: 4
#     Node 8, Type 1, BuildingBlock: NAHDIM_clean_sbu_0, # of connection points: 4
#     Node 9, Type 1, BuildingBlock: NAHDIM_clean_sbu_0, # of connection points: 4
#     Node 10, Type 1, BuildingBlock: NAHDIM_clean_sbu_0, # of connection points: 4
#     Node 11, Type 1, BuildingBlock: NAHDIM_clean_sbu_0, # of connection points: 4
#     Edge 12, Type (0, 1), BuildingBlock: UVAHIK_clean_linker_0, # of connection points: 2
#     Edge 13, Type (0, 1), BuildingBlock: UVAHIK_clean_linker_0, # of connection points: 2
#     Edge 14, Type (0, 1), BuildingBlock: UVAHIK_clean_linker_0, # of connection points: 2
#     Edge 15, Type (0, 1), BuildingBlock: UVAHIK_clean_linker_0, # of connection points: 2
#     Edge 16, Type (0, 1), BuildingBlock: UVAHIK_clean_linker_0, # of connection points: 2
#     Edge 17, Type (0, 1), BuildingBlock: UVAHIK_clean_linker_0, # of connection points: 2
#     Edge 18, Type (0, 1), BuildingBlock: UVAHIK_clean_linker_0, # of connection points: 2
#     Edge 19, Type (0, 1), BuildingBlock: UVAHIK_clean_linker_0, # of connection points: 2
#     Edge 20, Type (0, 1), BuildingBlock: UVAHIK_clean_linker_0, # of connection points: 2
#     Edge 21, Type (0, 1), BuildingBlock: UVAHIK_clean_linker_0, # of connection points: 2
#     Edge 22, Type (0, 1), BuildingBlock: UVAHIK_clean_linker_0, # of connection points: 2
#     Edge 23, Type (0, 1), BuildingBlock: UVAHIK_clean_linker_0, # of connection points: 2
#     Edge 24, Type (0, 1), BuildingBlock: UVAHIK_clean_linker_0, # of connection points: 2
#     Edge 25, Type (0, 1), BuildingBlock: UVAHIK_clean_linker_0, # of connection points: 2
#     Edge 26, Type (0, 1), BuildingBlock: UVAHIK_clean_linker_0, # of connection points: 2
#     Edge 27, Type (0, 1), BuildingBlock: UVAHIK_clean_linker_0, # of connection points: 2
#     Edge 28, Type (0, 1), BuildingBlock: UVAHIK_clean_linker_0, # of connection points: 2
#     Edge 29, Type (0, 1), BuildingBlock: UVAHIK_clean_linker_0, # of connection points: 2
#     Edge 30, Type (0, 1), BuildingBlock: UVAHIK_clean_linker_0, # of connection points: 2
#     Edge 31, Type (0, 1), BuildingBlock: UVAHIK_clean_linker_0, # of connection points: 2
#     Edge 32, Type (0, 1), BuildingBlock: UVAHIK_clean_linker_0, # of connection points: 2
#     Edge 33, Type (0, 1), BuildingBlock: UVAHIK_clean_linker_0, # of connection points: 2
#     Edge 34, Type (0, 1), BuildingBlock: UVAHIK_clean_linker_0, # of connection points: 2
#     Edge 35, Type (0, 1), BuildingBlock: UVAHIK_clean_linker_0, # of connection points: 2
# Relax obj value: 0.024
# Max RMSD: 0.121
# Mean RMSD: 0.106
data_MOF--net-nom--node1-NAHDIM_clean_sbu_0--node2-MUDLON_clean_linker_0--edge1-UVAHIK_clean_linker_0
_symmetry_space_group_name_H-M    P1
_symmetry_Int_Tables_number       1
_symmetry_cell_setting            triclinic
loop_
_symmetry_equiv_pos_as_xyz
'x, y, z'
_cell_length_a     72.49452
_cell_length_b     75.287915
_cell_length_c     73.931799
_cell_angle_alpha  90.284073
_cell_angle_beta   90.346036
_cell_angle_gamma 121.24793
loop_
_atom_site_label
_atom_site_type_symbol
_atom_site_fract_x
_atom_site_fract_y
_atom_site_fract_z
_atom_type_partial_charge
H0 H 0.10186 0.56227 0.3214 0.0
N1 N 0.07842 0.58061 0.32836 0.0
H2 H 0.13107 0.574 0.29971 0.0
H3 H 0.09018 0.61008 0.30373 0.0
H4 H 0.11981 0.62231 0.2822 0.0
H5 H 0.10375 0.61421 0.34814 0.0
H6 H 0.12145 0.61631 0.37686 0.0
H7 H 0.07254 0.54746 0.34851 0.0
H8 H 0.08885 0.54921 0.37783 0.0
H9 H 0.06425 0.54293 0.31131 0.0
H10 H 0.04312 0.58053 0.33754 0.0
H11 H 0.02701 0.5159 0.30555 0.0
H12 H 0.00557 0.55293 0.33273 0.0
H13 H 0.90415 0.42923 0.29133 0.0
H14 H 0.88979 0.41821 0.26054 0.0
H15 H 0.91732 0.48249 0.24568 0.0
H16 H 0.93179 0.49328 0.27605 0.0
H17 H 0.905 0.48952 0.29888 0.0
H18 H 0.87619 0.48805 0.31663 0.0
H19 H 0.87817 0.44379 0.35239 0.0
H20 H 0.90791 0.44613 0.33486 0.0
H21 H 0.95786 0.46277 0.31321 0.0
H22 H 0.99535 0.48985 0.31953 0.0
H23 H 0.97907 0.53677 0.30998 0.0
N24 N 0.92507 0.46756 0.30487 0.0
H25 H 0.94179 0.50982 0.30473 0.0
C26 C 0.09388 0.58542 0.3142 0.0
C27 C 0.10539 0.57513 0.31267 0.0
C28 C 0.12219 0.58194 0.30033 0.0
C29 C 0.12791 0.59922 0.28935 0.0
C30 C 0.1157 0.60884 0.29032 0.0
C31 C 0.09884 0.60196 0.30265 0.0
C32 C 0.08667 0.58079 0.34623 0.0
C33 C 0.10033 0.59999 0.35468 0.0
C34 C 0.11031 0.6011 0.37119 0.0
C35 C 0.10658 0.58291 0.37984 0.0
C36 C 0.09242 0.56358 0.37151 0.0
C37 C 0.08278 0.56252 0.35479 0.0
C38 C 0.05655 0.56408 0.32461 0.0
C39 C 0.05165 0.54547 0.31584 0.0
C40 C 0.03021 0.52979 0.31275 0.0
C41 C 0.01319 0.53219 0.31861 0.0
C42 C 0.01819 0.55068 0.32766 0.0
C43 C 0.03963 0.56644 0.33052 0.0
C44 C 0.91911 0.462 0.28611 0.0
C45 C 0.90738 0.4409 0.28129 0.0
C46 C 0.89907 0.43465 0.26376 0.0
C47 C 0.90235 0.44948 0.25068 0.0
C48 C 0.91474 0.47068 0.25535 0.0
C49 C 0.92301 0.47689 0.27286 0.0
C50 C 0.90873 0.46793 0.3156 0.0
C51 C 0.89959 0.47977 0.31069 0.0
C52 C 0.88287 0.47874 0.32079 0.0
C53 C 0.8747 0.46567 0.33588 0.0
C54 C 0.88421 0.45421 0.34099 0.0
C55 C 0.9011 0.45541 0.33095 0.0
C56 C 0.94697 0.48411 0.30842 0.0
C57 C 0.96246 0.47893 0.31258 0.0
C58 C 0.9839 0.49445 0.31603 0.0
C59 C 0.99032 0.51557 0.31522 0.0
C60 C 0.97471 0.52071 0.31104 0.0
C61 C 0.95326 0.50519 0.30783 0.0
H62 H 0.46929 0.91984 0.47124 0.0
N63 N 0.44722 0.93951 0.46394 0.0
H64 H 0.45807 0.8908 0.49164 0.0
H65 H 0.41494 0.92457 0.48725 0.0
H66 H 0.40283 0.89471 0.5071 0.0
H67 H 0.41168 0.9184 0.44407 0.0
H68 H 0.40759 0.90139 0.4149 0.0
H69 H 0.48006 0.94232 0.44358 0.0
H70 H 0.47636 0.926 0.41399 0.0
H71 H 0.4861 0.95462 0.48226 0.0
H72 H 0.44717 0.9727 0.45243 0.0
H73 H 0.51339 0.99077 0.48726 0.0
H74 H 0.47522 0.00917 0.45642 0.0
H75 H 0.59863 0.11085 0.50562 0.0
H76 H 0.60519 0.12428 0.53669 0.0
H77 H 0.53667 0.08842 0.54667 0.0
H78 H 0.53019 0.07556 0.51578 0.0
H79 H 0.53633 0.10573 0.49499 0.0
H80 H 0.54058 0.13651 0.48051 0.0
H81 H 0.5901 0.13933 0.44629 0.0
H82 H 0.58545 0.10798 0.46074 0.0
H83 H 0.56754 0.05745 0.48152 0.0
H84 H 0.54074 0.02126 0.47402 0.0
H85 H 0.4902 0.03541 0.47828 0.0
N86 N 0.56076 0.0881 0.48894 0.0
H87 H 0.51699 0.07139 0.48463 0.0
C88 C 0.44297 0.9245 0.47783 0.0
C89 C 0.45513 0.91487 0.4794 0.0
C90 C 0.44852 0.89805 0.49095 0.0
C91 C 0.42936 0.89017 0.50086 0.0
C92 C 0.4178 0.90046 0.49987 0.0
C93 C 0.42462 0.91749 0.48849 0.0
C94 C 0.44607 0.93165 0.44591 0.0
C95 C 0.42586 0.9203 0.43742 0.0
C96 C 0.42362 0.91071 0.4207 0.0
C97 C 0.44167 0.91238 0.41202 0.0
C98 C 0.46209 0.92421 0.42038 0.0
C99 C 0.46428 0.9337 0.43722 0.0
C100 C 0.46419 0.9608 0.46716 0.0
C101 C 0.48333 0.96626 0.47666 0.0
C102 C 0.49922 0.98713 0.47935 0.0
C103 C 0.49659 0.00302 0.4723 0.0
C104 C 0.47766 0.99745 0.46242 0.0
C105 C 0.46164 0.97661 0.46002 0.0
C106 C 0.56403 0.09224 0.50818 0.0
C107 C 0.5851 0.10552 0.51467 0.0
C108 C 0.5888 0.11314 0.53243 0.0
C109 C 0.5714 0.10759 0.54406 0.0
C110 C 0.55038 0.09326 0.53792 0.0
C111 C 0.54669 0.08571 0.52018 0.0
C112 C 0.56069 0.1045 0.47896 0.0
C113 C 0.54777 0.11257 0.48412 0.0
C114 C 0.55034 0.13034 0.47592 0.0
C115 C 0.56586 0.14048 0.46244 0.0
C116 C 0.57792 0.13178 0.45659 0.0
C117 C 0.57534 0.11395 0.46483 0.0
C118 C 0.54444 0.06719 0.48371 0.0
C119 C 0.55067 0.05269 0.4806 0.0
C120 C 0.53528 0.03199 0.4765 0.0
C121 C 0.5132 0.02528 0.47566 0.0
C122 C 0.50703 0.03997 0.4785 0.0
C123 C 0.52245 0.0607 0.4823 0.0
H124 H 0.50227 0.61591 0.6458 0.0
N125 N 0.50227 0.58238 0.65692 0.0
H126 H 0.47726 0.61743 0.62467 0.0
H127 H 0.47342 0.55048 0.63389 0.0
H128 H 0.44979 0.55228 0.6119 0.0
H129 H 0.46051 0.56392 0.66853 0.0
H130 H 0.44835 0.57016 0.69708 0.0
H131 H 0.52671 0.60622 0.68442 0.0
H132 H 0.51464 0.61207 0.71359 0.0
H133 H 0.53641 0.58418 0.64182 0.0
H134 H 0.4776 0.54255 0.66989 0.0
H135 H 0.54322 0.55574 0.63764 0.0
H136 H 0.48413 0.51435 0.66564 0.0
H137 H 0.55784 0.48122 0.62171 0.0
H138 H 0.57178 0.47709 0.59297 0.0
H139 H 0.50694 0.43113 0.57587 0.0
H140 H 0.4932 0.43506 0.60489 0.0
H141 H 0.49358 0.41932 0.64164 0.0
H142 H 0.50541 0.40065 0.66071 0.0
H143 H 0.56426 0.45854 0.67346 0.0
H144 H 0.5525 0.47692 0.65384 0.0
H145 H 0.52685 0.49319 0.61118 0.0
H146 H 0.52621 0.52385 0.61934 0.0
H147 H 0.50703 0.50079 0.67351 0.0
N148 N 0.51584 0.45915 0.63275 0.0
H149 H 0.50726 0.46957 0.66539 0.0
C150 C 0.48985 0.58319 0.64181 0.0
C151 C 0.49102 0.60203 0.63825 0.0
C152 C 0.47673 0.60287 0.62602 0.0
C153 C 0.46115 0.58488 0.61666 0.0
C154 C 0.46104 0.56633 0.61923 0.0
C155 C 0.47493 0.56536 0.63181 0.0
C156 C 0.49463 0.58478 0.67426 0.0
C157 C 0.47248 0.57443 0.67826 0.0
C158 C 0.46553 0.57788 0.69472 0.0
C159 C 0.48051 0.5916 0.70768 0.0
C160 C 0.50267 0.60161 0.70382 0.0
C161 C 0.50962 0.5982 0.68725 0.0
C162 C 0.50667 0.56572 0.65624 0.0
C163 C 0.52516 0.56904 0.64729 0.0
C164 C 0.52894 0.55276 0.64484 0.0
C165 C 0.51421 0.53279 0.65132 0.0
C166 C 0.496 0.52962 0.66077 0.0
C167 C 0.49223 0.54585 0.66319 0.0
C168 C 0.52443 0.45831 0.61541 0.0
C169 C 0.54665 0.47027 0.61177 0.0
C170 C 0.55456 0.46804 0.59528 0.0
C171 C 0.54046 0.45374 0.58219 0.0
C172 C 0.51823 0.4421 0.58577 0.0
C173 C 0.51033 0.44439 0.60224 0.0
C174 C 0.52207 0.44941 0.64629 0.0
C175 C 0.50884 0.42797 0.64883 0.0
C176 C 0.51563 0.41737 0.65981 0.0
C177 C 0.53587 0.42806 0.66859 0.0
C178 C 0.54875 0.44976 0.66666 0.0
C179 C 0.542 0.46033 0.65553 0.0
C180 C 0.51822 0.47897 0.63789 0.0
C181 C 0.52323 0.49469 0.62506 0.0
C182 C 0.52282 0.51246 0.62971 0.0
C183 C 0.51686 0.51493 0.64713 0.0
C184 C 0.51177 0.49939 0.65996 0.0
C185 C 0.51218 0.48158 0.65534 0.0
H186 H 0.11347 0.59223 0.80953 0.0
N187 N 0.08024 0.55731 0.79672 0.0
H188 H 0.14138 0.59614 0.8306 0.0
H189 H 0.07977 0.52577 0.81573 0.0
H190 H 0.10711 0.52949 0.83734 0.0
H191 H 0.09249 0.53127 0.78271 0.0
H192 H 0.11005 0.53521 0.75376 0.0
H193 H 0.08422 0.58256 0.77016 0.0
H194 H 0.10078 0.58601 0.74066 0.0
H195 H 0.05553 0.57111 0.80841 0.0
H196 H 0.05365 0.51532 0.79167 0.0
H197 H 0.01668 0.55121 0.81339 0.0
H198 H 0.01491 0.49496 0.79748 0.0
H199 H 0.89334 0.48819 0.83113 0.0
H200 H 0.87751 0.47885 0.86125 0.0
H201 H 0.91429 0.44964 0.87233 0.0
H202 H 0.9296 0.45864 0.84201 0.0
H203 H 0.91256 0.43913 0.81472 0.0
H204 H 0.88465 0.41039 0.79646 0.0
H205 H 0.86868 0.45254 0.77146 0.0
H206 H 0.89648 0.48113 0.78995 0.0
H207 H 0.95148 0.50955 0.83645 0.0
H208 H 0.99025 0.52707 0.83285 0.0
H209 H 0.98121 0.48868 0.78605 0.0
N210 N 0.92046 0.47887 0.81604 0.0
H211 H 0.9426 0.47041 0.79012 0.0
C212 C 0.09453 0.55884 0.81108 0.0
C213 C 0.11184 0.57854 0.81583 0.0
C214 C 0.1277 0.5807 0.82796 0.0
C215 C 0.12652 0.56311 0.83571 0.0
C216 C 0.10866 0.54335 0.83146 0.0
C217 C 0.09286 0.54121 0.81919 0.0
C218 C 0.08743 0.55695 0.77869 0.0
C219 C 0.09406 0.54312 0.77356 0.0
C220 C 0.10398 0.54531 0.75688 0.0
C221 C 0.10718 0.56117 0.74495 0.0
C222 C 0.09912 0.574 0.74969 0.0
C223 C 0.08946 0.57195 0.76644 0.0
C224 C 0.05744 0.54472 0.79985 0.0
C225 C 0.04668 0.55448 0.80605 0.0
C226 C 0.02451 0.54302 0.80902 0.0
C227 C 0.01261 0.52139 0.80602 0.0
C228 C 0.02349 0.51159 0.79979 0.0
C229 C 0.0457 0.52317 0.79662 0.0
C230 C 0.91261 0.47419 0.83436 0.0
C231 C 0.89806 0.47991 0.84015 0.0
C232 C 0.88914 0.47465 0.85739 0.0
C233 C 0.89467 0.46352 0.86923 0.0
C234 C 0.90949 0.45798 0.86347 0.0
C235 C 0.91834 0.46319 0.84618 0.0
C236 C 0.90636 0.46224 0.80379 0.0
C237 C 0.90316 0.44219 0.80523 0.0
C238 C 0.88724 0.42581 0.79478 0.0
C239 C 0.87443 0.42922 0.78262 0.0
C240 C 0.87845 0.44948 0.78058 0.0
C241 C 0.89423 0.4658 0.79114 0.0
C242 C 0.94361 0.48791 0.81414 0.0
C243 C 0.95774 0.50442 0.82568 0.0
C244 C 0.98002 0.51471 0.82343 0.0
C245 C 0.98893 0.50932 0.80914 0.0
C246 C 0.97496 0.49295 0.79745 0.0
C247 C 0.95261 0.48243 0.79984 0.0
H248 H 0.53632 0.10591 0.97728 0.0
N249 N 0.55445 0.08348 0.96659 0.0
H250 H 0.55295 0.13639 0.99706 0.0
H251 H 0.5902 0.09768 0.98624 0.0
H252 H 0.60746 0.12871 0.00559 0.0
H253 H 0.58558 0.10051 0.94239 0.0
H254 H 0.58464 0.11462 0.91295 0.0
H255 H 0.51923 0.0819 0.95106 0.0
H256 H 0.51789 0.09551 0.92138 0.0
H257 H 0.51802 0.07083 0.98705 0.0
H258 H 0.55299 0.04909 0.95635 0.0
H259 H 0.49075 0.03523 0.99422 0.0
H260 H 0.52505 0.01324 0.96253 0.0
H261 H 0.40283 0.91573 0.01165 0.0
H262 H 0.39573 0.90048 0.04185 0.0
H263 H 0.46432 0.92997 0.05158 0.0
H264 H 0.47126 0.94469 0.02152 0.0
H265 H 0.4643 0.91785 0.99739 0.0
H266 H 0.4587 0.88823 0.97955 0.0
H267 H 0.40774 0.8888 0.94949 0.0
H268 H 0.41363 0.91888 0.96744 0.0
H269 H 0.43465 0.9682 0.9894 0.0
H270 H 0.46183 0.00414 0.98213 0.0
H271 H 0.51144 0.98862 0.98546 0.0
N272 N 0.44061 0.93679 0.99527 0.0
H273 H 0.48427 0.95288 0.99158 0.0
C274 C 0.56207 0.09947 0.98032 0.0
C275 C 0.55155 0.11042 0.98378 0.0
C276 C 0.56121 0.128 0.99498 0.0
C277 C 0.58168 0.13517 0.00275 0.0
C278 C 0.5916 0.12354 0.0 0.0
C279 C 0.58183 0.10585 0.98891 0.0
C280 C 0.55255 0.09013 0.94882 0.0
C281 C 0.57072 0.09922 0.93775 0.0
C282 C 0.57008 0.10715 0.92092 0.0
C283 C 0.55114 0.1061 0.91476 0.0
C284 C 0.53277 0.09672 0.9258 0.0
C285 C 0.53346 0.08881 0.9427 0.0
C286 C 0.53789 0.06269 0.97137 0.0
C287 C 0.51992 0.05846 0.98182 0.0
C288 C 0.50409 0.03795 0.98575 0.0
C289 C 0.50566 0.02125 0.97904 0.0
C290 C 0.52349 0.02563 0.96832 0.0
C291 C 0.53943 0.0461 0.96466 0.0
C292 C 0.43747 0.93132 0.01417 0.0
C293 C 0.41631 0.91926 0.02049 0.0
C294 C 0.4123 0.91061 0.03775 0.0
C295 C 0.42948 0.91386 0.04902 0.0
C296 C 0.45074 0.92691 0.04308 0.0
C297 C 0.45473 0.93552 0.02583 0.0
C298 C 0.43942 0.92076 0.98366 0.0
C299 C 0.45231 0.91208 0.98668 0.0
C300 C 0.4491 0.89507 0.97644 0.0
C301 C 0.43279 0.88621 0.96313 0.0
C302 C 0.42036 0.89527 0.95973 0.0
C303 C 0.42375 0.91245 0.96988 0.0
C304 C 0.45726 0.95779 0.99111 0.0
C305 C 0.45142 0.97263 0.98846 0.0
C306 C 0.46701 0.99319 0.98447 0.0
C307 C 0.48892 -0.00062 0.98323 0.0
C308 C 0.49473 0.98443 0.98597 0.0
C309 C 0.4791 0.96385 0.98967 0.0
H310 H 0.51707 0.41608 0.13365 0.0
N311 N 0.51387 0.44581 0.14977 0.0
H312 H 0.54692 0.41998 0.11547 0.0
H313 H 0.54699 0.48268 0.13633 0.0
H314 H 0.57656 0.48673 0.11779 0.0
H315 H 0.55059 0.4734 0.16858 0.0
H316 H 0.56172 0.46783 0.19809 0.0
H317 H 0.49099 0.41434 0.172 0.0
H318 H 0.50221 0.40849 0.20164 0.0
H319 H 0.47611 0.43177 0.1335 0.0
H320 H 0.5272 0.48557 0.16123 0.0
H321 H 0.4563 0.44978 0.12956 0.0
H322 H 0.50757 0.50358 0.1574 0.0
H323 H 0.40487 0.49624 0.10363 0.0
H324 H 0.40329 0.50854 0.07335 0.0
H325 H 0.46109 0.56743 0.08551 0.0
H326 H 0.46235 0.55523 0.11565 0.0
H327 H 0.46553 0.55082 0.14909 0.0
H328 H 0.46285 0.57747 0.16563 0.0
H329 H 0.39373 0.54255 0.15774 0.0
H330 H 0.39654 0.51596 0.14096 0.0
H331 H 0.4174 0.48019 0.14325 0.0
H332 H 0.43751 0.46273 0.14883 0.0
H333 H 0.49618 0.51792 0.13213 0.0
N334 N 0.4323 0.5179 0.13031 0.0
H335 H 0.47609 0.53519 0.12664 0.0
C336 C 0.52968 0.44894 0.1364 0.0
C337 C 0.52977 0.43151 0.12985 0.0
C338 C 0.54683 0.43381 0.11941 0.0
C339 C 0.56424 0.4537 0.11526 0.0
C340 C 0.56356 0.4712 0.12098 0.0
C341 C 0.54649 0.46887 0.13149 0.0
C342 C 0.51989 0.44416 0.16803 0.0
C343 C 0.53973 0.45934 0.17576 0.0
C344 C 0.54617 0.45608 0.19262 0.0
C345 C 0.53293 0.43763 0.20209 0.0
C346 C 0.51269 0.42292 0.19471 0.0
C347 C 0.50628 0.42618 0.1778 0.0
C348 C 0.50309 0.45723 0.14756 0.0
C349 C 0.48303 0.44745 0.13871 0.0
C350 C 0.47171 0.4577 0.13659 0.0
C351 C 0.48037 0.47806 0.14324 0.0
C352 C 0.50058 0.48795 0.15202 0.0
C353 C 0.51181 0.47761 0.15425 0.0
C354 C 0.43358 0.52473 0.11193 0.0
C355 C 0.41737 0.51165 0.09959 0.0
C356 C 0.41655 0.51869 0.08232 0.0
C357 C 0.43198 0.53903 0.07712 0.0
C358 C 0.44881 0.55179 0.08923 0.0
C359 C 0.44962 0.54474 0.10646 0.0
C360 C 0.43114 0.53135 0.14362 0.0
C361 C 0.44972 0.54851 0.1513 0.0
C362 C 0.44819 0.56378 0.16083 0.0
C363 C 0.42812 0.56221 0.16274 0.0
C364 C 0.40945 0.5443 0.15624 0.0
C365 C 0.41099 0.52904 0.1468 0.0
C366 C 0.44513 0.50893 0.13461 0.0
C367 C 0.43463 0.48853 0.14098 0.0
C368 C 0.4461 0.47857 0.14402 0.0
C369 C 0.46839 0.48895 0.14083 0.0
C370 C 0.47904 0.50961 0.13486 0.0
C371 C 0.46752 0.5195 0.13169 0.0
C372 C 0.61211 0.34421 0.41485 0.0
O373 O 0.61598 0.35689 0.42856 0.0
O374 O 0.65335 0.39803 0.39224 0.0
Zn375 Zn 0.62124 0.38049 0.3954 0.0
O376 O 0.6122 0.39018 0.41706 0.0
C377 C 0.61568 0.38691 0.35806 0.0
O378 O 0.63448 0.38834 0.35679 0.0
O379 O 0.61311 0.35075 0.39886 0.0
C380 C 0.61983 0.40922 0.42091 0.0
O381 O 0.63432 0.42355 0.4103 0.0
C382 C 0.66695 0.40161 0.40477 0.0
O383 O 0.66002 0.39409 0.42097 0.0
O384 O 0.60652 0.3831 0.37334 0.0
C385 C 0.30627 0.6781 0.55075 0.0
O386 O 0.30829 0.66569 0.53946 0.0
O387 O 0.29371 0.62852 0.56206 0.0
Zn388 Zn 0.2731 0.63899 0.5625 0.0
O389 O 0.25389 0.63053 0.54036 0.0
C390 C 0.24721 0.6119 0.5918 0.0
O391 O 0.25135 0.59854 0.58424 0.0
O392 O 0.29153 0.67018 0.56255 0.0
C393 C 0.23759 0.61253 0.53733 0.0
O394 O 0.23256 0.59758 0.54892 0.0
C395 C 0.29049 0.61125 0.55615 0.0
O396 O 0.27152 0.59739 0.54944 0.0
O397 O 0.25498 0.62984 0.58499 0.0
C398 C 0.61708 0.29951 0.72491 0.0
O399 O 0.63805 0.30762 0.72495 0.0
O400 O 0.64847 0.27693 0.7343 0.0
Zn401 Zn 0.61617 0.26069 0.73032 0.0
O402 O 0.60882 0.24223 0.70821 0.0
C403 C 0.61086 0.23322 0.75899 0.0
O404 O 0.6292 0.23658 0.75248 0.0
O405 O 0.60473 0.28003 0.72708 0.0
C406 C 0.61927 0.23334 0.70463 0.0
O407 O 0.63525 0.23655 0.71534 0.0
C408 C 0.66172 0.285 0.72136 0.0
O409 O 0.65429 0.28313 0.70477 0.0
O410 O 0.60202 0.24235 0.75189 0.0
C411 C 0.38177 0.68157 0.91114 0.0
O412 O 0.36402 0.66596 0.91782 0.0
O413 O 0.35004 0.6337 0.89269 0.0
Zn414 Zn 0.38231 0.64752 0.8957 0.0
O415 O 0.38943 0.63535 0.91689 0.0
C416 C 0.38561 0.62889 0.86259 0.0
O417 O 0.36577 0.61456 0.86668 0.0
O418 O 0.39346 0.67774 0.90104 0.0
C419 C 0.39107 0.61938 0.91552 0.0
O420 O 0.38798 0.6102 0.8997 0.0
C421 C 0.33575 0.61489 0.8958 0.0
O422 O 0.34155 0.60178 0.9009 0.0
O423 O 0.39591 0.64468 0.87292 0.0
C424 C 0.73385 0.42042 0.07086 0.0
O425 O 0.75375 0.43129 0.07707 0.0
O426 O 0.72409 0.35865 0.05738 0.0
Zn427 Zn 0.74477 0.3892 0.06156 0.0
O428 O 0.76273 0.3941 0.08407 0.0
C429 C 0.77219 0.39096 0.03302 0.0
O430 O 0.76794 0.37332 0.04022 0.0
O431 O 0.72706 0.40258 0.06391 0.0
C432 C 0.78255 0.40832 0.08465 0.0
O433 O 0.79124 0.42018 0.07048 0.0
C434 C 0.72396 0.34416 0.06625 0.0
O435 O 0.73823 0.34887 0.07927 0.0
O436 O 0.76395 0.40075 0.0399 0.0
C437 C 0.39496 0.72812 0.2082 0.0
O438 O 0.38257 0.73018 0.19641 0.0
O439 O 0.35233 0.73248 0.23007 0.0
Zn440 Zn 0.38404 0.75356 0.22739 0.0
O441 O 0.3895 0.77236 0.20615 0.0
C442 C 0.38233 0.77528 0.25828 0.0
O443 O 0.36252 0.76728 0.25212 0.0
O444 O 0.39892 0.73757 0.22332 0.0
C445 C 0.37998 0.78244 0.20418 0.0
O446 O 0.3657 0.78036 0.21615 0.0
C447 C 0.33797 0.72678 0.21777 0.0
O448 O 0.34343 0.73501 0.20162 0.0
O449 O 0.39506 0.77115 0.2501 0.0
C450 C 0.16663 0.61022 0.28527 0.0
C451 C 0.14765 0.60829 0.27815 0.0
C452 C 0.18579 0.62029 0.27557 0.0
C453 C 0.21299 0.65975 0.24057 0.0
H454 H 0.255 0.64269 0.24398 0.0
C455 C 0.29853 0.7072 0.20972 0.0
C456 C 0.31528 0.71104 0.2218 0.0
C457 C 0.27705 0.6927 0.21394 0.0
C458 C 0.24341 0.64763 0.2429 0.0
H459 H 0.13374 0.61479 0.25494 0.0
H460 H 0.16734 0.6324 0.23789 0.0
H461 H 0.21878 0.62017 0.25573 0.0
H462 H 0.32269 0.70241 0.2476 0.0
H463 H 0.28536 0.67716 0.25488 0.0
H464 H 0.23784 0.6874 0.22801 0.0
C465 C 0.16739 0.62632 0.25112 0.0
C466 C 0.22269 0.63476 0.24965 0.0
C467 C 0.14816 0.61623 0.26087 0.0
C468 C 0.31017 0.69985 0.23801 0.0
C469 C 0.28879 0.68526 0.24212 0.0
C470 C 0.23371 0.67257 0.23371 0.0
C471 C 0.18649 0.62869 0.25847 0.0
C472 C 0.20742 0.64094 0.24903 0.0
C473 C 0.27199 0.68161 0.2302 0.0
C474 C 0.24929 0.66688 0.23526 0.0
H475 H 0.16693 0.60467 0.2987 0.0
H476 H 0.20027 0.6222 0.28182 0.0
H477 H 0.2017 0.66508 0.24003 0.0
H478 H 0.30196 0.71558 0.19712 0.0
H479 H 0.2644 0.69013 0.20448 0.0
C480 C 0.57396 0.16584 0.43724 0.0
C481 C 0.57067 0.16097 0.45572 0.0
C482 C 0.57908 0.1855 0.43128 0.0
C483 C 0.60266 0.23928 0.44756 0.0
H484 H 0.57227 0.24584 0.40727 0.0
C485 C 0.60555 0.31573 0.43592 0.0
C486 C 0.60734 0.32287 0.41813 0.0
C487 C 0.60171 0.29588 0.43923 0.0
C488 C 0.58112 0.24429 0.41838 0.0
H489 H 0.57051 0.17293 0.48244 0.0
H490 H 0.57923 0.20699 0.47206 0.0
H491 H 0.56465 0.21116 0.41518 0.0
H492 H 0.60628 0.31465 0.38981 0.0
H493 H 0.59976 0.27992 0.39564 0.0
H494 H 0.61907 0.27224 0.4509 0.0
C495 C 0.57789 0.19571 0.46217 0.0
C496 C 0.57675 0.22444 0.4229 0.0
C497 C 0.57264 0.1761 0.46809 0.0
C498 C 0.60496 0.30959 0.40368 0.0
C499 C 0.60114 0.28968 0.40701 0.0
C500 C 0.60708 0.25905 0.44302 0.0
C501 C 0.58128 0.20067 0.44373 0.0
C502 C 0.58718 0.22173 0.43777 0.0
C503 C 0.59966 0.28268 0.42484 0.0
C504 C 0.59606 0.26176 0.42862 0.0
H505 H 0.57248 0.15444 0.42742 0.0
H506 H 0.58168 0.18896 0.41699 0.0
H507 H 0.61127 0.2377 0.45887 0.0
H508 H 0.60715 0.32549 0.44736 0.0
H509 H 0.60021 0.29083 0.45312 0.0
C510 C 0.44811 0.60304 0.59625 0.0
C511 C 0.44402 0.58508 0.60552 0.0
C512 C 0.43136 0.6039 0.58768 0.0
C513 C 0.37167 0.57811 0.58908 0.0
H514 H 0.38055 0.61355 0.5481 0.0
C515 C 0.30307 0.58597 0.55795 0.0
C516 C 0.30787 0.6066 0.55769 0.0
C517 C 0.31944 0.5817 0.56098 0.0
C518 C 0.37787 0.60353 0.5595 0.0
H519 H 0.41888 0.55357 0.6122 0.0
H520 H 0.39026 0.55462 0.59629 0.0
H521 H 0.40968 0.60849 0.55813 0.0
H522 H 0.33363 0.63893 0.55947 0.0
H523 H 0.36223 0.63143 0.56441 0.0
H524 H 0.33981 0.57309 0.59029 0.0
C525 C 0.40627 0.56837 0.59621 0.0
C526 C 0.39457 0.60073 0.56535 0.0
C527 C 0.4229 0.56764 0.60509 0.0
C528 C 0.32943 0.62287 0.55973 0.0
C529 C 0.34582 0.6186 0.56242 0.0
C530 C 0.35491 0.58063 0.58303 0.0
C531 C 0.41011 0.5867 0.58785 0.0
C532 C 0.39183 0.58827 0.58045 0.0
C533 C 0.34092 0.59799 0.56342 0.0
C534 C 0.35797 0.59364 0.5684 0.0
H535 H 0.4642 0.61665 0.59592 0.0
H536 H 0.43501 0.61837 0.58151 0.0
H537 H 0.36899 0.56878 0.60098 0.0
H538 H 0.28659 0.57313 0.55644 0.0
H539 H 0.3153 0.56567 0.56167 0.0
C540 C 0.84125 0.39379 0.78305 0.0
C541 C 0.85571 0.41154 0.77327 0.0
C542 C 0.82213 0.3782 0.77499 0.0
C543 C 0.78443 0.37117 0.73813 0.0
H544 H 0.75658 0.31329 0.75188 0.0
C545 C 0.69972 0.30942 0.71159 0.0
C546 C 0.68518 0.29718 0.72512 0.0
C547 C 0.72179 0.3218 0.71546 0.0
C548 C 0.76419 0.32941 0.74792 0.0
H549 H 0.86215 0.42636 0.74713 0.0
H550 H 0.82893 0.3989 0.73287 0.0
H551 H 0.79361 0.33765 0.76178 0.0
H552 H 0.68245 0.28774 0.75314 0.0
H553 H 0.72094 0.30929 0.75986 0.0
H554 H 0.75491 0.36293 0.72444 0.0
C555 C 0.83209 0.39725 0.74691 0.0
C556 C 0.78537 0.34338 0.75362 0.0
C557 C 0.85115 0.41295 0.75503 0.0
C558 C 0.69322 0.29707 0.74244 0.0
C559 C 0.71529 0.30929 0.74626 0.0
C560 C 0.76334 0.35717 0.73231 0.0
C561 C 0.81709 0.37993 0.75693 0.0
C562 C 0.79559 0.36454 0.74912 0.0
C563 C 0.72975 0.32199 0.73288 0.0
C564 C 0.75286 0.33624 0.73746 0.0
H565 H 0.84419 0.39241 0.79721 0.0
H566 H 0.81086 0.36528 0.78324 0.0
H567 H 0.79161 0.38738 0.73464 0.0
H568 H 0.69404 0.30979 0.6981 0.0
H569 H 0.73261 0.33133 0.70487 0.0
C570 C 0.40612 0.84985 0.95313 0.0
C571 C 0.42759 0.8665 0.95408 0.0
C572 C 0.40132 0.83041 0.94677 0.0
C573 C 0.42156 0.80257 0.92059 0.0
H574 H 0.38526 0.7569 0.95237 0.0
C575 C 0.40811 0.72009 0.91108 0.0
C576 C 0.3875 0.70314 0.91497 0.0
C577 C 0.41332 0.7404 0.91501 0.0
C578 C 0.39513 0.76937 0.94316 0.0
H579 H 0.46077 0.87617 0.94826 0.0
H580 H 0.45232 0.84209 0.93698 0.0
H581 H 0.39321 0.79169 0.95974 0.0
H582 H 0.35601 0.69421 0.92553 0.0
H583 H 0.36482 0.72943 0.93185 0.0
H584 H 0.42324 0.78018 0.90383 0.0
C585 C 0.43925 0.84413 0.94123 0.0
C586 C 0.39972 0.78933 0.94743 0.0
C587 C 0.44408 0.86356 0.94777 0.0
C588 C 0.37213 0.70691 0.92257 0.0
C589 C 0.37724 0.72715 0.9263 0.0
C590 C 0.41677 0.7825 0.91618 0.0
C591 C 0.41787 0.82725 0.94109 0.0
C592 C 0.41292 0.80612 0.93619 0.0
C593 C 0.39796 0.74416 0.92275 0.0
C594 C 0.40343 0.76563 0.9274 0.0
H595 H 0.39309 0.8516 0.95805 0.0
H596 H 0.38467 0.8177 0.94664 0.0
H597 H 0.43174 0.81527 0.91166 0.0
H598 H 0.4203 0.71766 0.90524 0.0
H599 H 0.42951 0.7531 0.91228 0.0
C600 C 0.60448 0.47112 0.11298 0.0
C601 C 0.58382 0.45605 0.10656 0.0
C602 C 0.62281 0.47153 0.10665 0.0
C603 C 0.64263 0.45027 0.07122 0.0
H604 H 0.68207 0.45498 0.10925 0.0
C605 C 0.69827 0.41724 0.06474 0.0
C606 C 0.71906 0.42838 0.07249 0.0
C607 C 0.6838 0.42403 0.06701 0.0
C608 C 0.67147 0.45401 0.0984 0.0
H609 H 0.56641 0.43047 0.08757 0.0
H610 H 0.59829 0.4308 0.07689 0.0
H611 H 0.65306 0.46106 0.11629 0.0
H612 H 0.74116 0.45575 0.08829 0.0
H613 H 0.71579 0.4676 0.0923 0.0
H614 H 0.6607 0.44247 0.05349 0.0
C615 C 0.60038 0.44244 0.08671 0.0
C616 C 0.65482 0.45753 0.10242 0.0
C617 C 0.58205 0.44209 0.09299 0.0
C618 C 0.72524 0.44677 0.08221 0.0
C619 C 0.71069 0.45352 0.08456 0.0
C620 C 0.65926 0.44668 0.06721 0.0
C621 C 0.62093 0.45682 0.09381 0.0
C622 C 0.63996 0.45533 0.08896 0.0
C623 C 0.68974 0.44209 0.07714 0.0
C624 C 0.6736 0.44813 0.08084 0.0
H625 H 0.60647 0.48201 0.12354 0.0
H626 H 0.63843 0.48302 0.11219 0.0
H627 H 0.63168 0.44878 0.06048 0.0
H628 H 0.69299 0.40303 0.05713 0.0
H629 H 0.6677 0.41473 0.06132 0.0
C630 C 0.40902 0.86679 0.52696 0.0
C631 C 0.4204 0.87022 0.51073 0.0
C632 C 0.39883 0.84725 0.53511 0.0
C633 C 0.39686 0.79711 0.53548 0.0
H634 H 0.33642 0.77332 0.54691 0.0
C635 C 0.33732 0.70925 0.53659 0.0
C636 C 0.32088 0.70088 0.54953 0.0
C637 C 0.35093 0.7307 0.53504 0.0
C638 C 0.35338 0.77983 0.54413 0.0
H639 H 0.43006 0.85566 0.4905 0.0
H640 H 0.41273 0.82196 0.50483 0.0
H641 H 0.35829 0.80994 0.53897 0.0
H642 H 0.30603 0.70849 0.5712 0.0
H643 H 0.32994 0.7461 0.56851 0.0
H644 H 0.39187 0.76692 0.54017 0.0
C645 C 0.41189 0.83442 0.51139 0.0
C646 C 0.36591 0.80082 0.53959 0.0
C647 C 0.4219 0.85383 0.50319 0.0
C648 C 0.31851 0.71447 0.56105 0.0
C649 C 0.33214 0.736 0.55948 0.0
C650 C 0.38437 0.77617 0.54006 0.0
C651 C 0.39996 0.83081 0.52727 0.0
C652 C 0.38763 0.80952 0.53473 0.0
C653 C 0.34846 0.74434 0.5464 0.0
C654 C 0.36234 0.76714 0.54393 0.0
H655 H 0.40778 0.87914 0.53327 0.0
H656 H 0.38989 0.84495 0.54744 0.0
H657 H 0.41366 0.8035 0.53209 0.0
H658 H 0.33959 0.69924 0.52748 0.0
H659 H 0.36307 0.7366 0.52461 0.0
C660 C 0.56578 0.42204 0.6771 0.0
C661 C 0.54405 0.41636 0.67857 0.0
C662 C 0.57309 0.40995 0.68497 0.0
C663 C 0.55387 0.35649 0.69783 0.0
H664 H 0.60936 0.38041 0.72218 0.0
C665 C 0.58596 0.30532 0.72444 0.0
C666 C 0.60802 0.31293 0.72193 0.0
C667 C 0.57751 0.31806 0.72131 0.0
C668 C 0.59391 0.37348 0.71527 0.0
H669 H 0.51324 0.39396 0.69028 0.0
H670 H 0.52599 0.37262 0.70372 0.0
H671 H 0.59593 0.40281 0.7131 0.0
H672 H 0.63851 0.33987 0.71413 0.0
H673 H 0.62376 0.36182 0.70822 0.0
H674 H 0.55211 0.3273 0.69935 0.0
C675 C 0.53727 0.3864 0.69633 0.0
C676 C 0.5862 0.38632 0.71015 0.0
C677 C 0.52998 0.3986 0.68859 0.0
C678 C 0.62146 0.33355 0.71631 0.0
C679 C 0.613 0.34621 0.71305 0.0
C680 C 0.56166 0.34367 0.70281 0.0
C681 C 0.55883 0.3918 0.69437 0.0
C682 C 0.56622 0.378 0.70118 0.0
C683 C 0.59092 0.33865 0.71547 0.0
C684 C 0.58192 0.35204 0.71137 0.0
H685 H 0.57701 0.43538 0.66923 0.0
H686 H 0.58974 0.41436 0.68304 0.0
H687 H 0.53853 0.34968 0.69074 0.0
H688 H 0.5752 0.28954 0.72886 0.0
H689 H 0.56049 0.3118 0.72356 0.0
C690 C 0.152 0.55146 0.84498 0.0
C691 C 0.14475 0.56545 0.84698 0.0
C692 C 0.17093 0.55526 0.85362 0.0
C693 C 0.22244 0.59891 0.86742 0.0
H694 H 0.23131 0.55883 0.89257 0.0
C695 C 0.30618 0.62247 0.89479 0.0
C696 C 0.31278 0.608 0.89336 0.0
C697 C 0.2847 0.61643 0.89168 0.0
C698 C 0.22916 0.57014 0.8854 0.0
H699 H 0.15087 0.59354 0.86079 0.0
H700 H 0.18425 0.60044 0.87542 0.0
H701 H 0.19492 0.54922 0.88288 0.0
H702 H 0.30209 0.57576 0.88791 0.0
H703 H 0.26466 0.56529 0.8816 0.0
H704 H 0.25649 0.61952 0.86894 0.0
C705 C 0.17529 0.58662 0.86706 0.0
C706 C 0.20831 0.56465 0.87997 0.0
C707 C 0.15625 0.58271 0.8586 0.0
C708 C 0.29739 0.58722 0.88913 0.0
C709 C 0.27591 0.58122 0.88564 0.0
C710 C 0.24325 0.60429 0.87255 0.0
C711 C 0.18308 0.57322 0.86427 0.0
C712 C 0.2048 0.57903 0.87096 0.0
C713 C 0.26935 0.59584 0.88663 0.0
C714 C 0.24694 0.59001 0.88163 0.0
H715 H 0.14372 0.53814 0.83598 0.0
H716 H 0.17669 0.54477 0.85116 0.0
H717 H 0.22022 0.61015 0.86016 0.0
H718 H 0.31765 0.63854 0.89833 0.0
H719 H 0.28021 0.62801 0.89312 0.0
C720 C 0.60696 0.15906 0.02715 0.0
C721 C 0.59359 0.15573 0.01205 0.0
C722 C 0.61993 0.17902 0.03452 0.0
C723 C 0.64584 0.23367 0.02094 0.0
H724 H 0.65576 0.24579 0.07233 0.0
C725 C 0.69278 0.31745 0.04774 0.0
C726 C 0.70813 0.32222 0.06154 0.0
C727 C 0.67823 0.29685 0.04277 0.0
C728 C 0.65329 0.24258 0.05794 0.0
H729 H 0.58304 0.17079 0.9932 0.0
H730 H 0.6051 0.20528 0.00633 0.0
H731 H 0.63084 0.21011 0.06198 0.0
H732 H 0.71993 0.30905 0.08119 0.0
H733 H 0.69455 0.27297 0.07234 0.0
H734 H 0.66827 0.26597 0.0168 0.0
C735 C 0.60582 0.19255 0.01231 0.0
C736 C 0.63903 0.22218 0.05202 0.0
C737 C 0.59291 0.17267 0.00494 0.0
C738 C 0.70832 0.30589 0.07049 0.0
C739 C 0.69372 0.28522 0.06549 0.0
C740 C 0.66005 0.25398 0.02683 0.0
C741 C 0.61983 0.19604 0.02691 0.0
C742 C 0.63503 0.21755 0.03344 0.0
C743 C 0.67867 0.28051 0.05144 0.0
C744 C 0.66383 0.25872 0.04538 0.0
H745 H 0.60768 0.14631 0.03307 0.0
H746 H 0.63061 0.18122 0.04575 0.0
H747 H 0.64354 0.23056 0.00653 0.0
H748 H 0.69205 0.32963 0.04065 0.0
H749 H 0.66659 0.29373 0.03211 0.0
C750 C 0.41498 0.58677 0.15946 0.0
C751 C 0.4269 0.58018 0.16939 0.0
C752 C 0.41477 0.60445 0.1647 0.0
C753 C 0.42141 0.6379 0.20287 0.0
H754 H 0.42931 0.67704 0.16537 0.0
C755 C 0.41495 0.71037 0.21709 0.0
C756 C 0.40285 0.71391 0.20425 0.0
C757 C 0.42119 0.69595 0.21355 0.0
C758 C 0.42695 0.66623 0.17599 0.0
H759 H 0.44772 0.58678 0.19278 0.0
H760 H 0.44704 0.6178 0.2022 0.0
H761 H 0.43356 0.64776 0.15818 0.0
H762 H 0.38812 0.70533 0.17752 0.0
H763 H 0.39866 0.68014 0.17148 0.0
H764 H 0.41395 0.65593 0.22053 0.0
C765 C 0.43796 0.60919 0.19029 0.0
C766 C 0.42946 0.64951 0.17188 0.0
C767 C 0.4384 0.59154 0.18489 0.0
C768 C 0.39749 0.70305 0.1877 0.0
C769 C 0.40368 0.68868 0.18418 0.0
C770 C 0.41873 0.6546 0.20698 0.0
C771 C 0.42636 0.61594 0.18007 0.0
C772 C 0.4262 0.63491 0.18515 0.0
C773 C 0.41549 0.68483 0.19708 0.0
C774 C 0.42095 0.66865 0.19345 0.0
H775 H 0.40622 0.57854 0.1473 0.0
H776 H 0.40548 0.60917 0.1567 0.0
H777 H 0.41874 0.62681 0.21333 0.0
H778 H 0.41936 0.71853 0.22997 0.0
H779 H 0.43044 0.69348 0.2237 0.0
C780 C 0.83851 0.46246 0.33585 0.0
C781 C 0.85561 0.46319 0.34559 0.0
C782 C 0.82015 0.45933 0.34472 0.0
C783 C 0.78826 0.43586 0.38516 0.0
H784 H 0.75964 0.46501 0.37034 0.0
C785 C 0.70546 0.41509 0.41378 0.0
C786 C 0.69025 0.41286 0.40068 0.0
C787 C 0.72727 0.42434 0.40936 0.0
C788 C 0.76741 0.4567 0.3746 0.0
H789 H 0.86693 0.46163 0.37244 0.0
H790 H 0.83455 0.45578 0.38793 0.0
H791 H 0.79511 0.47552 0.35833 0.0
H792 H 0.68613 0.41922 0.37282 0.0
H793 H 0.72393 0.43506 0.36509 0.0
H794 H 0.76025 0.41656 0.40092 0.0
C795 C 0.83546 0.4576 0.37338 0.0
C796 C 0.78772 0.46274 0.36774 0.0
C797 C 0.85395 0.46088 0.3645 0.0
C798 C 0.6974 0.42067 0.38324 0.0
C799 C 0.71914 0.42991 0.37884 0.0
C800 C 0.7679 0.42977 0.39198 0.0
C801 C 0.81834 0.45672 0.36355 0.0
C802 C 0.79813 0.45206 0.3726 0.0
C803 C 0.73429 0.43161 0.39176 0.0
C804 C 0.75702 0.4398 0.38643 0.0
H805 H 0.839 0.46371 0.32125 0.0
H806 H 0.80705 0.45831 0.33673 0.0
H807 H 0.79581 0.42722 0.38904 0.0
H808 H 0.70048 0.40931 0.42736 0.0
H809 H 0.73859 0.42562 0.41966 0.0
C810 C 0.12482 0.5701 0.40065 0.0
C811 C 0.11809 0.58426 0.39705 0.0
C812 C 0.1367 0.57213 0.4163 0.0
C813 C 0.17628 0.61031 0.44627 0.0
H814 H 0.15742 0.56738 0.48249 0.0
C815 C 0.22353 0.62532 0.51296 0.0
C816 C 0.22391 0.60876 0.52119 0.0
C817 C 0.2102 0.6218 0.49799 0.0
C818 C 0.16318 0.5794 0.47237 0.0
H819 H 0.11798 0.61118 0.40771 0.0
H820 H 0.13968 0.61523 0.43448 0.0
H821 H 0.13464 0.56173 0.456 0.0
H822 H 0.21102 0.5756 0.52007 0.0
H823 H 0.18857 0.56952 0.49334 0.0
H824 H 0.20516 0.62771 0.4619 0.0
C825 C 0.13556 0.60254 0.42513 0.0
C826 C 0.15001 0.57618 0.4573 0.0
C827 C 0.12328 0.60027 0.40971 0.0
C828 C 0.21091 0.58863 0.51404 0.0
C829 C 0.19791 0.58516 0.49879 0.0
C830 C 0.18967 0.61337 0.46109 0.0
C831 C 0.14246 0.58857 0.42847 0.0
C832 C 0.1564 0.59169 0.44426 0.0
C833 C 0.19728 0.60169 0.49059 0.0
C834 C 0.18323 0.59806 0.47447 0.0
H835 H 0.12153 0.55779 0.39115 0.0
H836 H 0.14203 0.56127 0.4186 0.0
H837 H 0.1816 0.62237 0.4362 0.0
H838 H 0.2332 0.64098 0.51832 0.0
H839 H 0.20983 0.63489 0.49242 0.0
C840 C 0.56133 0.12533 0.56724 0.0
C841 C 0.57494 0.11817 0.56185 0.0
C842 C 0.56543 0.13671 0.58324 0.0
C843 C 0.59444 0.14926 0.6269 0.0
H844 H 0.59077 0.19881 0.62454 0.0
C845 C 0.62591 0.2106 0.68433 0.0
C846 C 0.61363 0.21958 0.68862 0.0
C847 C 0.62071 0.19762 0.66921 0.0
C848 C 0.59159 0.18488 0.62551 0.0
H849 H 0.60319 0.11687 0.56928 0.0
H850 H 0.61048 0.13699 0.59728 0.0
H851 H 0.58243 0.1769 0.59775 0.0
H852 H 0.58612 0.22182 0.68046 0.0
H853 H 0.57687 0.19895 0.65417 0.0
H854 H 0.60359 0.15726 0.65469 0.0
C855 C 0.59656 0.13365 0.58912 0.0
C856 C 0.58683 0.17233 0.61015 0.0
C857 C 0.5925 0.12229 0.57304 0.0
C858 C 0.59597 0.21522 0.67749 0.0
C859 C 0.59073 0.2022 0.66237 0.0
C860 C 0.59914 0.16179 0.64231 0.0
C861 C 0.58323 0.14123 0.59424 0.0
C862 C 0.5882 0.15439 0.61067 0.0
C863 C 0.60308 0.19328 0.65803 0.0
C864 C 0.59779 0.17976 0.64178 0.0
H865 H 0.54785 0.12268 0.55881 0.0
H866 H 0.55472 0.14213 0.58694 0.0
H867 H 0.5954 0.13541 0.62776 0.0
H868 H 0.63967 0.21367 0.6926 0.0
H869 H 0.63073 0.19125 0.66611 0.0
C870 C 0.45476 0.57976 0.73365 0.0
C871 C 0.47283 0.59583 0.72485 0.0
C872 C 0.44633 0.58397 0.74887 0.0
C873 C 0.45866 0.62123 0.78581 0.0
H874 H 0.39684 0.59838 0.78539 0.0
C875 C 0.41629 0.64218 0.84077 0.0
C876 C 0.39609 0.62607 0.84666 0.0
C877 C 0.42619 0.63922 0.82584 0.0
C878 C 0.41408 0.60466 0.78587 0.0
H879 H 0.49657 0.62889 0.72553 0.0
H880 H 0.48203 0.63612 0.75241 0.0
H881 H 0.41355 0.59145 0.76005 0.0
H882 H 0.37057 0.59414 0.84164 0.0
H883 H 0.38799 0.58882 0.816 0.0
H884 H 0.45917 0.63411 0.81182 0.0
C885 C 0.47443 0.62028 0.74743 0.0
C886 C 0.42364 0.60072 0.77132 0.0
C887 C 0.48278 0.6161 0.73208 0.0
C888 C 0.38605 0.60695 0.83736 0.0
C889 C 0.396 0.60393 0.82257 0.0
C890 C 0.44906 0.62502 0.8005 0.0
C891 C 0.45588 0.60431 0.75576 0.0
C892 C 0.44599 0.60885 0.77118 0.0
C893 C 0.41617 0.62003 0.81657 0.0
C894 C 0.42662 0.61667 0.80075 0.0
H895 H 0.44699 0.56389 0.7287 0.0
H896 H 0.43224 0.5713 0.75523 0.0
H897 H 0.47592 0.62759 0.78608 0.0
H898 H 0.42441 0.65713 0.84764 0.0
H899 H 0.44159 0.65205 0.82145 0.0
C900 C 0.87774 0.4374 0.8941 0.0
C901 C 0.88447 0.45724 0.88729 0.0
C902 C 0.86709 0.43108 0.91063 0.0
C903 C 0.8338 0.44126 0.94103 0.0
H904 H 0.84649 0.41074 0.976 0.0
C905 C 0.79273 0.41916 0.01055 0.0
C906 C 0.78626 0.39927 0.01705 0.0
C907 C 0.80577 0.42689 0.99531 0.0
C908 C 0.84259 0.41905 0.96629 0.0
H909 H 0.886 0.4863 0.89291 0.0
H910 H 0.86719 0.47517 0.92166 0.0
H911 H 0.86757 0.42309 0.94836 0.0
H912 H 0.78849 0.37193 0.01269 0.0
H913 H 0.81086 0.38524 0.98589 0.0
H914 H 0.80859 0.43694 0.95868 0.0
C915 C 0.86993 0.46442 0.91407 0.0
C916 C 0.85471 0.42616 0.95049 0.0
C917 C 0.88068 0.47077 0.89759 0.0
C918 C 0.79324 0.38734 0.00806 0.0
C919 C 0.80619 0.39503 0.99275 0.0
C920 C 0.82162 0.43407 0.95676 0.0
C921 C 0.86284 0.44444 0.92067 0.0
C922 C 0.85041 0.43731 0.93768 0.0
C923 C 0.81255 0.41487 0.98615 0.0
C924 C 0.82583 0.42284 0.96957 0.0
H925 H 0.88012 0.42648 0.8864 0.0
H926 H 0.86159 0.41551 0.91528 0.0
H927 H 0.82989 0.44952 0.93127 0.0
H928 H 0.78776 0.42881 0.01725 0.0
H929 H 0.81065 0.44237 0.99077 0.0
C930 C 0.43711 0.89283 0.07049 0.0
C931 C 0.42524 0.90223 0.06616 0.0
C932 C 0.43224 0.88054 0.08584 0.0
C933 C 0.4051 0.8689 0.12984 0.0
H934 H 0.40267 0.81648 0.12408 0.0
C935 C 0.37367 0.80672 0.18583 0.0
C936 C 0.3849 0.79633 0.18855 0.0
C937 C 0.37836 0.81988 0.17107 0.0
C938 C 0.40353 0.83117 0.12599 0.0
H939 H 0.3993 0.90656 0.07483 0.0
H940 H 0.39065 0.88488 0.1017 0.0
H941 H 0.41156 0.8394 0.09829 0.0
H942 H 0.41001 0.79175 0.17798 0.0
H943 H 0.41839 0.81489 0.15242 0.0
H944 H 0.3972 0.86069 0.15761 0.0
C945 C 0.40381 0.88715 0.0932 0.0
C946 C 0.40861 0.84429 0.1112 0.0
C947 C 0.40864 0.89941 0.07776 0.0
C948 C 0.40097 0.79943 0.17623 0.0
C949 C 0.4057 0.81261 0.16151 0.0
C950 C 0.40009 0.85578 0.14468 0.0
C951 C 0.41537 0.87735 0.09724 0.0
C952 C 0.40958 0.86335 0.11298 0.0
C953 C 0.39442 0.82296 0.15873 0.0
C954 C 0.39935 0.8368 0.14294 0.0
H955 H 0.4498 0.89445 0.06172 0.0
H956 H 0.44161 0.87341 0.08872 0.0
H957 H 0.40592 0.88358 0.13165 0.0
H958 H 0.36115 0.80463 0.19505 0.0
H959 H 0.36919 0.8274 0.16919 0.0
C960 C 0.52728 0.42436 0.23394 0.0
C961 C 0.54086 0.4332 0.21899 0.0
C962 C 0.53476 0.41962 0.24958 0.0
C963 C 0.58524 0.43124 0.27309 0.0
H964 H 0.54791 0.37945 0.29779 0.0
C965 C 0.61765 0.39828 0.32605 0.0
C966 C 0.606 0.39101 0.34218 0.0
C967 C 0.60907 0.40328 0.31135 0.0
C968 C 0.55843 0.39405 0.29112 0.0
H969 H 0.57276 0.4436 0.20857 0.0
H970 H 0.58572 0.43519 0.23568 0.0
H971 H 0.53411 0.38892 0.27168 0.0
H972 H 0.57598 0.38282 0.35539 0.0
H973 H 0.56095 0.39147 0.32961 0.0
H974 H 0.60966 0.43617 0.29234 0.0
C975 C 0.56947 0.43238 0.23556 0.0
C976 C 0.55053 0.39952 0.27621 0.0
C977 C 0.56205 0.4372 0.22001 0.0
C978 C 0.58537 0.38841 0.34315 0.0
C979 C 0.57672 0.39328 0.32838 0.0
C980 C 0.59316 0.42571 0.2879 0.0
C981 C 0.55594 0.42352 0.25054 0.0
C982 C 0.56391 0.4181 0.26693 0.0
C983 C 0.5886 0.40099 0.31241 0.0
C984 C 0.5799 0.40699 0.29698 0.0
H985 H 0.51092 0.42125 0.23358 0.0
H986 H 0.524 0.41305 0.26097 0.0
H987 H 0.59585 0.44586 0.2665 0.0
H988 H 0.63356 0.40042 0.32483 0.0
H989 H 0.61846 0.40893 0.29911 0.0
C990 C 0.42351 0.8988 0.38184 0.0
C991 C 0.43882 0.9009 0.39479 0.0
C992 C 0.41899 0.88609 0.36664 0.0
C993 C 0.43907 0.8609 0.33714 0.0
H994 H 0.37843 0.81978 0.32982 0.0
C995 C 0.40921 0.79535 0.28304 0.0
C996 C 0.38981 0.78967 0.27397 0.0
C997 C 0.41607 0.80905 0.29785 0.0
C998 C 0.3954 0.83134 0.33145 0.0
H999 H 0.46205 0.89189 0.40144 0.0
H1000 H 0.45451 0.87011 0.37453 0.0
H1001 H 0.38945 0.84455 0.35473 0.0
H1002 H 0.36264 0.79425 0.27299 0.0
H1003 H 0.37485 0.81851 0.29825 0.0
H1004 H 0.44502 0.84806 0.31357 0.0
C1005 C 0.44597 0.87827 0.37631 0.0
C1006 C 0.4017 0.84548 0.34578 0.0
C1007 C 0.45032 0.89082 0.39167 0.0
C1008 C 0.37754 0.79811 0.27983 0.0
C1009 C 0.38451 0.81196 0.29442 0.0
C1010 C 0.43274 0.84691 0.32259 0.0
C1011 C 0.42989 0.87541 0.36391 0.0
C1012 C 0.42355 0.86046 0.3487 0.0
C1013 C 0.40377 0.81751 0.30373 0.0
C1014 C 0.41079 0.83203 0.3195 0.0
H1015 H 0.41472 0.90672 0.38357 0.0
H1016 H 0.40676 0.88439 0.3571 0.0
H1017 H 0.45603 0.87237 0.33912 0.0
H1018 H 0.41898 0.78905 0.27883 0.0
H1019 H 0.43085 0.81277 0.30481 0.0
C1020 C 0.56529 0.46716 0.55555 0.0
C1021 C 0.54899 0.45032 0.56519 0.0
C1022 C 0.57371 0.46375 0.53984 0.0
C1023 C 0.57998 0.42365 0.51709 0.0
H1024 H 0.58939 0.45631 0.47396 0.0
C1025 C 0.59684 0.39944 0.44843 0.0
C1026 C 0.6125 0.41499 0.43733 0.0
C1027 C 0.58995 0.40468 0.46404 0.0
C1028 C 0.58713 0.44725 0.48598 0.0
H1029 H 0.52882 0.41673 0.56598 0.0
H1030 H 0.54329 0.4108 0.5385 0.0
H1031 H 0.57568 0.46384 0.50124 0.0
H1032 H 0.63318 0.44828 0.4339 0.0
H1033 H 0.62125 0.45745 0.46136 0.0
H1034 H 0.59134 0.40704 0.50193 0.0
C1035 C 0.54967 0.42663 0.54313 0.0
C1036 C 0.57926 0.45154 0.50158 0.0
C1037 C 0.5412 0.43003 0.55875 0.0
C1038 C 0.62106 0.43594 0.44216 0.0
C1039 C 0.61416 0.44119 0.45783 0.0
C1040 C 0.58787 0.4194 0.50155 0.0
C1041 C 0.56611 0.44343 0.53357 0.0
C1042 C 0.57536 0.43961 0.51722 0.0
C1043 C 0.59859 0.4256 0.46898 0.0
C1044 C 0.59128 0.43096 0.48574 0.0
H1045 H 0.57148 0.48298 0.56012 0.0
H1046 H 0.58645 0.477 0.53281 0.0
H1047 H 0.57755 0.41447 0.52905 0.0
H1048 H 0.58982 0.38314 0.44508 0.0
H1049 H 0.57767 0.3923 0.47216 0.0
C1050 C 0.13487 0.58596 0.72317 0.0
C1051 C 0.12029 0.56537 0.72835 0.0
C1052 C 0.14819 0.59017 0.70828 0.0
C1053 C 0.15554 0.56656 0.66694 0.0
H1054 H 0.21414 0.61369 0.67071 0.0
C1055 C 0.22109 0.58513 0.6133 0.0
C1056 C 0.23306 0.60595 0.60776 0.0
C1057 C 0.20728 0.57948 0.6281 0.0
C1058 C 0.19778 0.60056 0.66943 0.0
H1059 H 0.10803 0.53302 0.72156 0.0
H1060 H 0.13183 0.54041 0.69586 0.0
H1061 H 0.18993 0.60489 0.69624 0.0
H1062 H 0.24009 0.63717 0.61348 0.0
H1063 H 0.21616 0.6273 0.63937 0.0
H1064 H 0.16367 0.56218 0.64011 0.0
C1065 C 0.1327 0.5533 0.70321 0.0
C1066 C 0.18386 0.59554 0.68402 0.0
C1067 C 0.11921 0.54907 0.71808 0.0
C1068 C 0.2311 0.62101 0.61741 0.0
C1069 C 0.21748 0.61538 0.63229 0.0
C1070 C 0.16956 0.57149 0.65237 0.0
C1071 C 0.14751 0.57393 0.69825 0.0
C1072 C 0.16248 0.57864 0.68289 0.0
C1073 C 0.20537 0.59456 0.63774 0.0
C1074 C 0.19075 0.58868 0.65342 0.0
H1075 H 0.13644 0.59894 0.73088 0.0
H1076 H 0.15911 0.60623 0.70467 0.0
H1077 H 0.13913 0.55358 0.66552 0.0
H1078 H 0.22221 0.57316 0.60612 0.0
H1079 H 0.19824 0.56334 0.6321 0.0
C1080 C 0.56197 0.11384 0.88228 0.0
C1081 C 0.55101 0.11551 0.89718 0.0
C1082 C 0.56381 0.12441 0.86631 0.0
C1083 C 0.56311 0.17019 0.84997 0.0
H1084 H 0.56715 0.14896 0.8032 0.0
C1085 C 0.58339 0.21768 0.78365 0.0
C1086 C 0.60045 0.2185 0.77399 0.0
C1087 C 0.57385 0.20377 0.79794 0.0
C1088 C 0.566 0.15505 0.81618 0.0
H1089 H 0.53262 0.12898 0.9067 0.0
H1090 H 0.53528 0.14695 0.87858 0.0
H1091 H 0.55558 0.1262 0.82939 0.0
H1092 H 0.62064 0.20516 0.77151 0.0
H1093 H 0.60386 0.18082 0.79624 0.0
H1094 H 0.57375 0.19912 0.83666 0.0
C1095 C 0.54283 0.13777 0.8794 0.0
C1096 C 0.55946 0.14207 0.83119 0.0
C1097 C 0.54108 0.12726 0.89545 0.0
C1098 C 0.60758 0.20497 0.77872 0.0
C1099 C 0.59786 0.19091 0.79278 0.0
C1100 C 0.56944 0.18312 0.8349 0.0
C1101 C 0.55458 0.1368 0.86476 0.0
C1102 C 0.55853 0.14964 0.84838 0.0
C1103 C 0.58097 0.19021 0.80257 0.0
C1104 C 0.57151 0.17582 0.81797 0.0
H1105 H 0.56951 0.10466 0.88306 0.0
H1106 H 0.5732 0.12345 0.85543 0.0
H1107 H 0.56283 0.17664 0.86302 0.0
H1108 H 0.57757 0.22793 0.78031 0.0
H1109 H 0.56082 0.2035 0.80529 0.0
C1110 C 0.42366 0.53547 0.04376 0.0
C1111 C 0.4296 0.54744 0.05975 0.0
C1112 C 0.42025 0.54314 0.0277 0.0
C1113 C 0.40558 0.58025 0.01158 0.0
H1114 H 0.42794 0.57532 0.96553 0.0
C1115 C 0.40123 0.6219 0.94824 0.0
C1116 C 0.3961 0.61109 0.93167 0.0
C1117 C 0.40572 0.61397 0.96356 0.0
C1118 C 0.42136 0.57659 0.97825 0.0
H1119 H 0.43662 0.57683 0.07143 0.0
H1120 H 0.4309 0.59026 0.04342 0.0
H1121 H 0.43514 0.5616 0.99281 0.0
H1122 H 0.39173 0.58349 0.91815 0.0
H1123 H 0.39918 0.56947 0.94499 0.0
H1124 H 0.3916 0.59499 0.99715 0.0
C1125 C 0.4288 0.57492 0.0433 0.0
C1126 C 0.42552 0.56876 0.99385 0.0
C1127 C 0.43232 0.56732 0.05929 0.0
C1128 C 0.39569 0.59223 0.93071 0.0
C1129 C 0.40008 0.58425 0.94608 0.0
C1130 C 0.40133 0.58796 0.996 0.0
C1131 C 0.42252 0.56285 0.02739 0.0
C1132 C 0.4178 0.57067 0.01069 0.0
C1133 C 0.40506 0.59498 0.9627 0.0
C1134 C 0.4093 0.58637 0.97917 0.0
H1135 H 0.42157 0.52014 0.0437 0.0
H1136 H 0.41532 0.53346 0.01564 0.0
H1137 H 0.39908 0.58159 0.02432 0.0
H1138 H 0.40184 0.63654 0.94941 0.0
H1139 H 0.40987 0.62283 0.97607 0.0
C1140 C 0.90264 0.4539 0.217 0.0
C1141 C 0.89177 0.44298 0.2326 0.0
C1142 C 0.89197 0.44901 0.20027 0.0
C1143 C 0.84347 0.40864 0.17553 0.0
H1144 H 0.85126 0.45526 0.14726 0.0
C1145 C 0.78645 0.39929 0.11648 0.0
C1146 C 0.79574 0.4115 0.10106 0.0
C1147 C 0.79894 0.40245 0.132 0.0
C1148 C 0.84912 0.44206 0.15484 0.0
H1149 H 0.86124 0.41807 0.24277 0.0
H1150 H 0.84266 0.40952 0.2136 0.0
H1151 H 0.87205 0.46163 0.17504 0.0
H1152 H 0.8255 0.43642 0.08977 0.0
H1153 H 0.84728 0.44178 0.11676 0.0
H1154 H 0.82035 0.38908 0.15538 0.0
C1155 C 0.85952 0.4217 0.21426 0.0
C1156 C 0.86106 0.44571 0.17077 0.0
C1157 C 0.87019 0.4266 0.23098 0.0
C1158 C 0.81781 0.42682 0.10145 0.0
C1159 C 0.83028 0.42996 0.11696 0.0
C1160 C 0.83153 0.40499 0.15957 0.0
C1161 C 0.87018 0.43309 0.19877 0.0
C1162 C 0.85828 0.42906 0.18136 0.0
C1163 C 0.82098 0.41788 0.13244 0.0
C1164 C 0.83412 0.42166 0.1491 0.0
H1165 H 0.91937 0.46638 0.21775 0.0
H1166 H 0.90073 0.45783 0.18853 0.0
H1167 H 0.84116 0.39548 0.18329 0.0
H1168 H 0.76949 0.38736 0.11663 0.0
H1169 H 0.79121 0.39306 0.14378 0.0
loop_
_geom_bond_atom_site_label_1
_geom_bond_atom_site_label_2
_geom_bond_distance
_geom_bond_site_symmetry_2
_ccdc_geom_bond_type
H0 C27 0.929 . S
N1 C26 1.433 . S
N1 C32 1.435 . S
N1 C38 1.423 . S
H2 C28 0.930 . S
H3 C31 0.931 . S
H4 C30 0.929 . S
H5 C33 0.930 . S
H6 C34 0.932 . S
H7 C37 0.929 . S
H8 C36 0.931 . S
H9 C39 0.929 . S
H10 C43 0.932 . S
H11 C40 0.931 . S
H12 C42 0.929 . S
H13 C45 0.929 . S
H14 C46 0.930 . S
H15 C48 0.929 . S
H16 C49 0.931 . S
H17 C51 0.930 . S
H18 C52 0.932 . S
H19 C54 0.931 . S
H20 C55 0.929 . S
H21 C57 0.929 . S
H22 C58 0.931 . S
H23 C60 0.929 . S
N24 C44 1.433 . S
N24 C50 1.435 . S
N24 C56 1.423 . S
H25 C61 0.932 . S
C26 N1 1.433 . S
C26 C27 1.363 . S
C26 C31 1.370 . S
C27 H0 0.929 . S
C27 C26 1.363 . S
C27 C28 1.385 . S
C28 H2 0.930 . S
C28 C27 1.385 . S
C28 C29 1.357 . S
C29 C28 1.357 . S
C29 C30 1.406 . S
C30 H4 0.929 . S
C30 C29 1.406 . S
C30 C31 1.391 . S
C31 H3 0.931 . S
C31 C26 1.370 . S
C31 C30 1.391 . S
C32 N1 1.435 . S
C32 C33 1.358 . S
C32 C37 1.371 . S
C33 H5 0.930 . S
C33 C32 1.358 . S
C33 C34 1.405 . S
C34 H6 0.932 . S
C34 C33 1.405 . S
C34 C35 1.383 . S
C35 C34 1.383 . S
C35 C36 1.393 . S
C36 H8 0.931 . S
C36 C35 1.393 . S
C36 C37 1.382 . S
C37 H7 0.929 . S
C37 C32 1.371 . S
C37 C36 1.382 . S
C38 N1 1.423 . S
C38 C39 1.362 . S
C38 C43 1.388 . S
C39 H9 0.929 . S
C39 C38 1.362 . S
C39 C40 1.376 . S
C40 H11 0.931 . S
C40 C39 1.376 . S
C40 C41 1.396 . S
C41 C40 1.396 . S
C41 C42 1.348 . S
C41 C59 1.472 1_455 S
C42 H12 0.929 . S
C42 C41 1.348 . S
C42 C43 1.443 . S
C43 H10 0.932 . S
C43 C38 1.388 . S
C43 C42 1.443 . S
C44 N24 1.433 . S
C44 C45 1.363 . S
C44 C49 1.370 . S
C45 H13 0.929 . S
C45 C44 1.363 . S
C45 C46 1.385 . S
C46 H14 0.930 . S
C46 C45 1.385 . S
C46 C47 1.357 . S
C47 C46 1.357 . S
C47 C48 1.406 . S
C48 H15 0.929 . S
C48 C47 1.406 . S
C48 C49 1.391 . S
C49 H16 0.931 . S
C49 C44 1.370 . S
C49 C48 1.391 . S
C50 N24 1.435 . S
C50 C51 1.358 . S
C50 C55 1.371 . S
C51 H17 0.930 . S
C51 C50 1.358 . S
C51 C52 1.405 . S
C52 H18 0.932 . S
C52 C51 1.405 . S
C52 C53 1.383 . S
C53 C52 1.383 . S
C53 C54 1.393 . S
C54 H19 0.931 . S
C54 C53 1.393 . S
C54 C55 1.382 . S
C55 H20 0.929 . S
C55 C50 1.371 . S
C55 C54 1.382 . S
C56 N24 1.423 . S
C56 C57 1.362 . S
C56 C61 1.388 . S
C57 H21 0.929 . S
C57 C56 1.362 . S
C57 C58 1.376 . S
C58 H22 0.931 . S
C58 C57 1.376 . S
C58 C59 1.396 . S
C59 C41 1.472 1_655 S
C59 C58 1.396 . S
C59 C60 1.348 . S
C60 H23 0.929 . S
C60 C59 1.348 . S
C60 C61 1.443 . S
C61 H25 0.932 . S
C61 C56 1.388 . S
C61 C60 1.443 . S
H62 C89 0.929 . S
N63 C88 1.433 . S
N63 C94 1.435 . S
N63 C100 1.423 . S
H64 C90 0.930 . S
H65 C93 0.931 . S
H66 C92 0.929 . S
H67 C95 0.930 . S
H68 C96 0.932 . S
H69 C99 0.929 . S
H70 C98 0.931 . S
H71 C101 0.929 . S
H72 C105 0.932 . S
H73 C102 0.930 . S
H74 C104 0.983 . S
H75 C107 0.929 . S
H76 C108 0.930 . S
H77 C110 0.929 . S
H78 C111 0.931 . S
H79 C113 0.930 . S
H80 C114 0.932 . S
H81 C116 0.931 . S
H82 C117 0.929 . S
H83 C119 0.929 . S
H84 C120 0.931 . S
H85 C122 0.929 . S
N86 C106 1.433 . S
N86 C112 1.435 . S
N86 C118 1.423 . S
H87 C123 0.932 . S
C88 N63 1.433 . S
C88 C89 1.363 . S
C88 C93 1.370 . S
C89 H62 0.929 . S
C89 C88 1.363 . S
C89 C90 1.385 . S
C90 H64 0.930 . S
C90 C89 1.385 . S
C90 C91 1.357 . S
C91 C90 1.357 . S
C91 C92 1.406 . S
C92 H66 0.929 . S
C92 C91 1.406 . S
C92 C93 1.391 . S
C93 H65 0.931 . S
C93 C88 1.370 . S
C93 C92 1.391 . S
C94 N63 1.435 . S
C94 C95 1.358 . S
C94 C99 1.371 . S
C95 H67 0.930 . S
C95 C94 1.358 . S
C95 C96 1.405 . S
C96 H68 0.932 . S
C96 C95 1.405 . S
C96 C97 1.383 . S
C97 C96 1.383 . S
C97 C98 1.393 . S
C98 H70 0.931 . S
C98 C97 1.393 . S
C98 C99 1.382 . S
C99 H69 0.929 . S
C99 C94 1.371 . S
C99 C98 1.382 . S
C100 N63 1.423 . S
C100 C101 1.362 . S
C100 C105 1.388 . S
C101 H71 0.929 . S
C101 C100 1.362 . S
C101 C102 1.376 . S
C102 H73 0.930 . S
C102 C101 1.376 . S
C102 C103 1.396 1_565 S
C103 C102 1.396 1_545 S
C103 C104 1.350 . S
C103 C121 1.472 . S
C104 H74 0.983 . S
C104 C103 1.350 . S
C104 C105 1.392 1_545 S
C105 H72 0.932 . S
C105 C100 1.388 . S
C105 C104 1.392 1_565 S
C106 N86 1.433 . S
C106 C107 1.363 . S
C106 C111 1.370 . S
C107 H75 0.929 . S
C107 C106 1.363 . S
C107 C108 1.385 . S
C108 H76 0.930 . S
C108 C107 1.385 . S
C108 C109 1.357 . S
C109 C108 1.357 . S
C109 C110 1.406 . S
C110 H77 0.929 . S
C110 C109 1.406 . S
C110 C111 1.391 . S
C111 H78 0.931 . S
C111 C106 1.370 . S
C111 C110 1.391 . S
C112 N86 1.435 . S
C112 C113 1.358 . S
C112 C117 1.371 . S
C113 H79 0.930 . S
C113 C112 1.358 . S
C113 C114 1.405 . S
C114 H80 0.932 . S
C114 C113 1.405 . S
C114 C115 1.383 . S
C115 C114 1.383 . S
C115 C116 1.393 . S
C116 H81 0.931 . S
C116 C115 1.393 . S
C116 C117 1.382 . S
C117 H82 0.929 . S
C117 C112 1.371 . S
C117 C116 1.382 . S
C118 N86 1.423 . S
C118 C119 1.362 . S
C118 C123 1.388 . S
C119 H83 0.929 . S
C119 C118 1.362 . S
C119 C120 1.376 . S
C120 H84 0.931 . S
C120 C119 1.376 . S
C120 C121 1.396 . S
C121 C103 1.472 . S
C121 C120 1.396 . S
C121 C122 1.348 . S
C122 H85 0.929 . S
C122 C121 1.348 . S
C122 C123 1.443 . S
C123 H87 0.932 . S
C123 C118 1.388 . S
C123 C122 1.443 . S
H124 C151 0.929 . S
N125 C150 1.433 . S
N125 C156 1.435 . S
N125 C162 1.423 . S
H126 C152 0.930 . S
H127 C155 0.931 . S
H128 C154 0.929 . S
H129 C157 0.930 . S
H130 C158 0.932 . S
H131 C161 0.929 . S
H132 C160 0.931 . S
H133 C163 0.929 . S
H134 C167 0.932 . S
H135 C164 0.931 . S
H136 C166 0.929 . S
H137 C169 0.929 . S
H138 C170 0.930 . S
H139 C172 0.929 . S
H140 C173 0.931 . S
H141 C175 0.930 . S
H142 C176 0.932 . S
H143 C178 0.931 . S
H144 C179 0.929 . S
H145 C181 0.929 . S
H146 C182 0.931 . S
H147 C184 0.929 . S
N148 C168 1.433 . S
N148 C174 1.435 . S
N148 C180 1.423 . S
H149 C185 0.932 . S
C150 N125 1.433 . S
C150 C151 1.363 . S
C150 C155 1.370 . S
C151 H124 0.929 . S
C151 C150 1.363 . S
C151 C152 1.385 . S
C152 H126 0.930 . S
C152 C151 1.385 . S
C152 C153 1.357 . S
C153 C152 1.357 . S
C153 C154 1.406 . S
C154 H128 0.929 . S
C154 C153 1.406 . S
C154 C155 1.391 . S
C155 H127 0.931 . S
C155 C150 1.370 . S
C155 C154 1.391 . S
C156 N125 1.435 . S
C156 C157 1.358 . S
C156 C161 1.371 . S
C157 H129 0.930 . S
C157 C156 1.358 . S
C157 C158 1.405 . S
C158 H130 0.932 . S
C158 C157 1.405 . S
C158 C159 1.383 . S
C159 C158 1.383 . S
C159 C160 1.393 . S
C160 H132 0.931 . S
C160 C159 1.393 . S
C160 C161 1.382 . S
C161 H131 0.929 . S
C161 C156 1.371 . S
C161 C160 1.382 . S
C162 N125 1.423 . S
C162 C163 1.362 . S
C162 C167 1.388 . S
C163 H133 0.929 . S
C163 C162 1.362 . S
C163 C164 1.376 . S
C164 H135 0.931 . S
C164 C163 1.376 . S
C164 C165 1.396 . S
C165 C164 1.396 . S
C165 C166 1.348 . S
C165 C183 1.472 . S
C166 H136 0.929 . S
C166 C165 1.348 . S
C166 C167 1.443 . S
C167 H134 0.932 . S
C167 C162 1.388 . S
C167 C166 1.443 . S
C168 N148 1.433 . S
C168 C169 1.363 . S
C168 C173 1.370 . S
C169 H137 0.929 . S
C169 C168 1.363 . S
C169 C170 1.385 . S
C170 H138 0.930 . S
C170 C169 1.385 . S
C170 C171 1.357 . S
C171 C170 1.357 . S
C171 C172 1.406 . S
C172 H139 0.929 . S
C172 C171 1.406 . S
C172 C173 1.391 . S
C173 H140 0.931 . S
C173 C168 1.370 . S
C173 C172 1.391 . S
C174 N148 1.435 . S
C174 C175 1.358 . S
C174 C179 1.371 . S
C175 H141 0.930 . S
C175 C174 1.358 . S
C175 C176 1.405 . S
C176 H142 0.932 . S
C176 C175 1.405 . S
C176 C177 1.383 . S
C177 C176 1.383 . S
C177 C178 1.393 . S
C178 H143 0.931 . S
C178 C177 1.393 . S
C178 C179 1.382 . S
C179 H144 0.929 . S
C179 C174 1.371 . S
C179 C178 1.382 . S
C180 N148 1.423 . S
C180 C181 1.362 . S
C180 C185 1.388 . S
C181 H145 0.929 . S
C181 C180 1.362 . S
C181 C182 1.376 . S
C182 H146 0.931 . S
C182 C181 1.376 . S
C182 C183 1.396 . S
C183 C165 1.472 . S
C183 C182 1.396 . S
C183 C184 1.348 . S
C184 H147 0.929 . S
C184 C183 1.348 . S
C184 C185 1.443 . S
C185 H149 0.932 . S
C185 C180 1.388 . S
C185 C184 1.443 . S
H186 C213 0.929 . S
N187 C212 1.433 . S
N187 C218 1.435 . S
N187 C224 1.423 . S
H188 C214 0.930 . S
H189 C217 0.931 . S
H190 C216 0.929 . S
H191 C219 0.930 . S
H192 C220 0.932 . S
H193 C223 0.929 . S
H194 C222 0.931 . S
H195 C225 0.929 . S
H196 C229 0.932 . S
H197 C226 0.931 . S
H198 C228 0.929 . S
H199 C231 0.929 . S
H200 C232 0.930 . S
H201 C234 0.929 . S
H202 C235 0.931 . S
H203 C237 0.930 . S
H204 C238 0.932 . S
H205 C240 0.931 . S
H206 C241 0.929 . S
H207 C243 0.929 . S
H208 C244 0.931 . S
H209 C246 0.929 . S
N210 C230 1.433 . S
N210 C236 1.435 . S
N210 C242 1.423 . S
H211 C247 0.932 . S
C212 N187 1.433 . S
C212 C213 1.363 . S
C212 C217 1.370 . S
C213 H186 0.929 . S
C213 C212 1.363 . S
C213 C214 1.385 . S
C214 H188 0.930 . S
C214 C213 1.385 . S
C214 C215 1.357 . S
C215 C214 1.357 . S
C215 C216 1.406 . S
C216 H190 0.929 . S
C216 C215 1.406 . S
C216 C217 1.391 . S
C217 H189 0.931 . S
C217 C212 1.370 . S
C217 C216 1.391 . S
C218 N187 1.435 . S
C218 C219 1.358 . S
C218 C223 1.371 . S
C219 H191 0.930 . S
C219 C218 1.358 . S
C219 C220 1.405 . S
C220 H192 0.932 . S
C220 C219 1.405 . S
C220 C221 1.383 . S
C221 C220 1.383 . S
C221 C222 1.393 . S
C222 H194 0.931 . S
C222 C221 1.393 . S
C222 C223 1.382 . S
C223 H193 0.929 . S
C223 C218 1.371 . S
C223 C222 1.382 . S
C224 N187 1.423 . S
C224 C225 1.362 . S
C224 C229 1.388 . S
C225 H195 0.929 . S
C225 C224 1.362 . S
C225 C226 1.376 . S
C226 H197 0.931 . S
C226 C225 1.376 . S
C226 C227 1.396 . S
C227 C226 1.396 . S
C227 C228 1.348 . S
C227 C245 1.472 1_455 S
C228 H198 0.929 . S
C228 C227 1.348 . S
C228 C229 1.443 . S
C229 H196 0.932 . S
C229 C224 1.388 . S
C229 C228 1.443 . S
C230 N210 1.433 . S
C230 C231 1.363 . S
C230 C235 1.370 . S
C231 H199 0.929 . S
C231 C230 1.363 . S
C231 C232 1.385 . S
C232 H200 0.930 . S
C232 C231 1.385 . S
C232 C233 1.357 . S
C233 C232 1.357 . S
C233 C234 1.406 . S
C234 H201 0.929 . S
C234 C233 1.406 . S
C234 C235 1.391 . S
C235 H202 0.931 . S
C235 C230 1.370 . S
C235 C234 1.391 . S
C236 N210 1.435 . S
C236 C237 1.358 . S
C236 C241 1.371 . S
C237 H203 0.930 . S
C237 C236 1.358 . S
C237 C238 1.405 . S
C238 H204 0.932 . S
C238 C237 1.405 . S
C238 C239 1.383 . S
C239 C238 1.383 . S
C239 C240 1.393 . S
C240 H205 0.931 . S
C240 C239 1.393 . S
C240 C241 1.382 . S
C241 H206 0.929 . S
C241 C236 1.371 . S
C241 C240 1.382 . S
C242 N210 1.423 . S
C242 C243 1.362 . S
C242 C247 1.388 . S
C243 H207 0.929 . S
C243 C242 1.362 . S
C243 C244 1.376 . S
C244 H208 0.931 . S
C244 C243 1.376 . S
C244 C245 1.396 . S
C245 C227 1.472 1_655 S
C245 C244 1.396 . S
C245 C246 1.348 . S
C246 H209 0.929 . S
C246 C245 1.348 . S
C246 C247 1.443 . S
C247 H211 0.932 . S
C247 C242 1.388 . S
C247 C246 1.443 . S
H248 C275 0.929 . S
N249 C274 1.433 . S
N249 C280 1.435 . S
N249 C286 1.423 . S
H250 C276 0.930 . S
H251 C279 0.931 . S
H252 C278 0.929 . S
H253 C281 0.930 . S
H254 C282 0.932 . S
H255 C285 0.929 . S
H256 C284 0.931 . S
H257 C287 0.929 . S
H258 C291 0.932 . S
H259 C288 0.931 . S
H260 C290 0.929 . S
H261 C293 0.929 . S
H262 C294 0.930 . S
H263 C296 0.929 . S
H264 C297 0.931 . S
H265 C299 0.930 1_554 S
H266 C300 0.932 . S
H267 C302 0.931 . S
H268 C303 0.929 . S
H269 C305 0.929 . S
H270 C306 0.931 1_554 S
H271 C308 0.929 . S
N272 C292 1.433 . S
N272 C298 1.435 1_554 S
N272 C304 1.423 1_554 S
H273 C309 0.932 . S
C274 N249 1.433 . S
C274 C275 1.363 . S
C274 C279 1.370 . S
C275 H248 0.929 . S
C275 C274 1.363 . S
C275 C276 1.385 . S
C276 H250 0.930 . S
C276 C275 1.385 . S
C276 C277 1.357 1_556 S
C277 C276 1.357 1_554 S
C277 C278 1.406 . S
C278 H252 0.929 . S
C278 C277 1.406 . S
C278 C279 1.391 1_554 S
C279 H251 0.931 . S
C279 C274 1.370 . S
C279 C278 1.391 1_556 S
C280 N249 1.435 . S
C280 C281 1.358 . S
C280 C285 1.371 . S
C281 H253 0.930 . S
C281 C280 1.358 . S
C281 C282 1.405 . S
C282 H254 0.932 . S
C282 C281 1.405 . S
C282 C283 1.383 . S
C283 C282 1.383 . S
C283 C284 1.393 . S
C284 H256 0.931 . S
C284 C283 1.393 . S
C284 C285 1.382 . S
C285 H255 0.929 . S
C285 C280 1.371 . S
C285 C284 1.382 . S
C286 N249 1.423 . S
C286 C287 1.362 . S
C286 C291 1.388 . S
C287 H257 0.929 . S
C287 C286 1.362 . S
C287 C288 1.376 . S
C288 H259 0.931 . S
C288 C287 1.376 . S
C288 C289 1.396 . S
C289 C288 1.396 . S
C289 C290 1.348 . S
C289 C307 1.472 1_545 S
C290 H260 0.929 . S
C290 C289 1.348 . S
C290 C291 1.443 . S
C291 H258 0.932 . S
C291 C286 1.388 . S
C291 C290 1.443 . S
C292 N272 1.433 . S
C292 C293 1.363 . S
C292 C297 1.370 . S
C293 H261 0.929 . S
C293 C292 1.363 . S
C293 C294 1.385 . S
C294 H262 0.930 . S
C294 C293 1.385 . S
C294 C295 1.357 . S
C295 C294 1.357 . S
C295 C296 1.406 . S
C296 H263 0.929 . S
C296 C295 1.406 . S
C296 C297 1.391 . S
C297 H264 0.931 . S
C297 C292 1.370 . S
C297 C296 1.391 . S
C298 N272 1.435 1_556 S
C298 C299 1.358 . S
C298 C303 1.371 . S
C299 H265 0.930 1_556 S
C299 C298 1.358 . S
C299 C300 1.405 . S
C300 H266 0.932 . S
C300 C299 1.405 . S
C300 C301 1.383 . S
C301 C300 1.383 . S
C301 C302 1.393 . S
C302 H267 0.931 . S
C302 C301 1.393 . S
C302 C303 1.382 . S
C303 H268 0.929 . S
C303 C298 1.371 . S
C303 C302 1.382 . S
C304 N272 1.423 1_556 S
C304 C305 1.362 1_556 S
C304 C309 1.388 . S
C305 H269 0.929 . S
C305 C304 1.362 1_554 S
C305 C306 1.376 1_554 S
C306 H270 0.931 1_556 S
C306 C305 1.376 1_556 S
C306 C307 1.396 . S
C307 C289 1.472 1_565 S
C307 C306 1.396 . S
C307 C308 1.348 . S
C308 H271 0.929 . S
C308 C307 1.348 . S
C308 C309 1.443 . S
C309 H273 0.932 . S
C309 C304 1.388 . S
C309 C308 1.443 . S
H310 C337 0.929 . S
N311 C336 1.433 . S
N311 C342 1.435 . S
N311 C348 1.423 . S
H312 C338 0.930 . S
H313 C341 0.931 . S
H314 C340 0.929 . S
H315 C343 0.930 . S
H316 C344 0.932 . S
H317 C347 0.929 . S
H318 C346 0.931 . S
H319 C349 0.929 . S
H320 C353 0.932 . S
H321 C350 0.931 . S
H322 C352 0.929 . S
H323 C355 0.929 . S
H324 C356 0.930 . S
H325 C358 0.929 . S
H326 C359 0.931 . S
H327 C361 0.930 . S
H328 C362 0.932 . S
H329 C364 0.931 . S
H330 C365 0.929 . S
H331 C367 0.929 . S
H332 C368 0.931 . S
H333 C370 0.929 . S
N334 C354 1.433 . S
N334 C360 1.435 . S
N334 C366 1.423 . S
H335 C371 0.932 . S
C336 N311 1.433 . S
C336 C337 1.363 . S
C336 C341 1.370 . S
C337 H310 0.929 . S
C337 C336 1.363 . S
C337 C338 1.385 . S
C338 H312 0.930 . S
C338 C337 1.385 . S
C338 C339 1.357 . S
C339 C338 1.357 . S
C339 C340 1.406 . S
C340 H314 0.929 . S
C340 C339 1.406 . S
C340 C341 1.391 . S
C341 H313 0.931 . S
C341 C336 1.370 . S
C341 C340 1.391 . S
C342 N311 1.435 . S
C342 C343 1.358 . S
C342 C347 1.371 . S
C343 H315 0.930 . S
C343 C342 1.358 . S
C343 C344 1.405 . S
C344 H316 0.932 . S
C344 C343 1.405 . S
C344 C345 1.383 . S
C345 C344 1.383 . S
C345 C346 1.393 . S
C346 H318 0.931 . S
C346 C345 1.393 . S
C346 C347 1.382 . S
C347 H317 0.929 . S
C347 C342 1.371 . S
C347 C346 1.382 . S
C348 N311 1.423 . S
C348 C349 1.362 . S
C348 C353 1.388 . S
C349 H319 0.929 . S
C349 C348 1.362 . S
C349 C350 1.376 . S
C350 H321 0.931 . S
C350 C349 1.376 . S
C350 C351 1.396 . S
C351 C350 1.396 . S
C351 C352 1.348 . S
C351 C369 1.472 . S
C352 H322 0.929 . S
C352 C351 1.348 . S
C352 C353 1.443 . S
C353 H320 0.932 . S
C353 C348 1.388 . S
C353 C352 1.443 . S
C354 N334 1.433 . S
C354 C355 1.363 . S
C354 C359 1.370 . S
C355 H323 0.929 . S
C355 C354 1.363 . S
C355 C356 1.385 . S
C356 H324 0.930 . S
C356 C355 1.385 . S
C356 C357 1.357 . S
C357 C356 1.357 . S
C357 C358 1.406 . S
C358 H325 0.929 . S
C358 C357 1.406 . S
C358 C359 1.391 . S
C359 H326 0.931 . S
C359 C354 1.370 . S
C359 C358 1.391 . S
C360 N334 1.435 . S
C360 C361 1.358 . S
C360 C365 1.371 . S
C361 H327 0.930 . S
C361 C360 1.358 . S
C361 C362 1.405 . S
C362 H328 0.932 . S
C362 C361 1.405 . S
C362 C363 1.383 . S
C363 C362 1.383 . S
C363 C364 1.393 . S
C364 H329 0.931 . S
C364 C363 1.393 . S
C364 C365 1.382 . S
C365 H330 0.929 . S
C365 C360 1.371 . S
C365 C364 1.382 . S
C366 N334 1.423 . S
C366 C367 1.362 . S
C366 C371 1.388 . S
C367 H331 0.929 . S
C367 C366 1.362 . S
C367 C368 1.376 . S
C368 H332 0.931 . S
C368 C367 1.376 . S
C368 C369 1.396 . S
C369 C351 1.472 . S
C369 C368 1.396 . S
C369 C370 1.348 . S
C370 H333 0.929 . S
C370 C369 1.348 . S
C370 C371 1.443 . S
C371 H335 0.932 . S
C371 C366 1.388 . S
C371 C370 1.443 . S
C372 O373 1.160 . S
C372 O379 1.185 . S
O373 C372 1.160 . S
O374 Zn375 1.899 . S
O374 C382 1.284 . S
Zn375 O374 1.899 . S
Zn375 O376 2.032 . S
Zn375 O379 2.086 . S
Zn375 O384 1.977 . S
O376 Zn375 2.032 . S
O376 C380 1.278 . S
C377 O378 1.203 . S
C377 O384 1.267 . S
O378 C377 1.203 . S
O379 C372 1.185 . S
O379 Zn375 2.086 . S
C380 O376 1.278 . S
C380 O381 1.211 . S
O381 C380 1.211 . S
C382 O374 1.284 . S
C382 O383 1.273 . S
O383 C382 1.273 . S
O384 Zn375 1.977 . S
O384 C377 1.267 . S
C385 O386 1.160 . S
C385 O392 1.185 . S
O386 C385 1.160 . S
O387 Zn388 1.899 . S
O387 C395 1.284 . S
Zn388 O387 1.899 . S
Zn388 O389 2.032 . S
Zn388 O392 2.086 . S
Zn388 O397 1.977 . S
O389 Zn388 2.032 . S
O389 C393 1.278 . S
C390 O391 1.203 . S
C390 O397 1.267 . S
O391 C390 1.203 . S
O392 C385 1.185 . S
O392 Zn388 2.086 . S
C393 O389 1.278 . S
C393 O394 1.211 . S
O394 C393 1.211 . S
C395 O387 1.284 . S
C395 O396 1.273 . S
O396 C395 1.273 . S
O397 Zn388 1.977 . S
O397 C390 1.267 . S
C398 O399 1.160 . S
C398 O405 1.185 . S
O399 C398 1.160 . S
O400 Zn401 1.899 . S
O400 C408 1.284 . S
Zn401 O400 1.899 . S
Zn401 O402 2.032 . S
Zn401 O405 2.086 . S
Zn401 O410 1.977 . S
O402 Zn401 2.032 . S
O402 C406 1.278 . S
C403 O404 1.203 . S
C403 O410 1.267 . S
O404 C403 1.203 . S
O405 C398 1.185 . S
O405 Zn401 2.086 . S
C406 O402 1.278 . S
C406 O407 1.211 . S
O407 C406 1.211 . S
C408 O400 1.284 . S
C408 O409 1.273 . S
O409 C408 1.273 . S
O410 Zn401 1.977 . S
O410 C403 1.267 . S
C411 O412 1.160 . S
C411 O418 1.185 . S
O412 C411 1.160 . S
O413 Zn414 1.899 . S
O413 C421 1.284 . S
Zn414 O413 1.899 . S
Zn414 O415 2.032 . S
Zn414 O418 2.086 . S
Zn414 O423 1.977 . S
O415 Zn414 2.032 . S
O415 C419 1.278 . S
C416 O417 1.203 . S
C416 O423 1.267 . S
O417 C416 1.203 . S
O418 C411 1.185 . S
O418 Zn414 2.086 . S
C419 O415 1.278 . S
C419 O420 1.211 . S
O420 C419 1.211 . S
C421 O413 1.284 . S
C421 O422 1.273 . S
O422 C421 1.273 . S
O423 Zn414 1.977 . S
O423 C416 1.267 . S
C424 O425 1.160 . S
C424 O431 1.185 . S
O425 C424 1.160 . S
O426 Zn427 1.899 . S
O426 C434 1.284 . S
Zn427 O426 1.899 . S
Zn427 O428 2.032 . S
Zn427 O431 2.086 . S
Zn427 O436 1.977 . S
O428 Zn427 2.032 . S
O428 C432 1.278 . S
C429 O430 1.203 . S
C429 O436 1.267 . S
O430 C429 1.203 . S
O431 C424 1.185 . S
O431 Zn427 2.086 . S
C432 O428 1.278 . S
C432 O433 1.211 . S
O433 C432 1.211 . S
C434 O426 1.284 . S
C434 O435 1.273 . S
O435 C434 1.273 . S
O436 Zn427 1.977 . S
O436 C429 1.267 . S
C437 O438 1.160 . S
C437 O444 1.185 . S
O438 C437 1.160 . S
O439 Zn440 1.899 . S
O439 C447 1.284 . S
Zn440 O439 1.899 . S
Zn440 O441 2.032 . S
Zn440 O444 2.086 . S
Zn440 O449 1.977 . S
O441 Zn440 2.032 . S
O441 C445 1.278 . S
C442 O443 1.203 . S
C442 O449 1.267 . S
O443 C442 1.203 . S
O444 C437 1.185 . S
O444 Zn440 2.086 . S
C445 O441 1.278 . S
C445 O446 1.211 . S
O446 C445 1.211 . S
C447 O439 1.284 . S
C447 O448 1.273 . S
O448 C447 1.273 . S
O449 Zn440 1.977 . S
O449 C442 1.267 . S
C450 C451 1.349 . S
C450 C452 1.327 . S
C450 H475 0.950 . S
C451 C450 1.349 . S
C451 C467 1.349 . S
C452 C450 1.327 . S
C452 C471 1.429 . S
C452 H476 0.950 . S
C453 C470 1.574 . S
C453 C472 1.368 . S
C453 H477 0.949 . S
H454 C458 0.949 . S
C455 C456 1.349 . S
C455 C457 1.327 . S
C455 H478 0.950 . S
C456 C455 1.349 . S
C456 C468 1.349 . S
C457 C455 1.327 . S
C457 C473 1.429 . S
C457 H479 0.950 . S
C458 H454 0.949 . S
C458 C466 1.574 . S
C458 C474 1.368 . S
H459 C467 0.950 . S
H460 C465 0.950 . S
H461 C466 0.949 . S
H462 C468 0.950 . S
H463 C469 0.950 . S
H464 C470 0.949 . S
C465 H460 0.950 . S
C465 C467 1.327 . S
C465 C471 1.429 . S
C466 C458 1.574 . S
C466 H461 0.949 . S
C466 C472 1.368 . S
C467 C451 1.349 . S
C467 H459 0.950 . S
C467 C465 1.327 . S
C468 C456 1.349 . S
C468 H462 0.950 . S
C468 C469 1.327 . S
C469 H463 0.950 . S
C469 C468 1.327 . S
C469 C473 1.429 . S
C470 C453 1.574 . S
C470 H464 0.949 . S
C470 C474 1.368 . S
C471 C452 1.429 . S
C471 C465 1.429 . S
C471 C472 1.523 . S
C472 C453 1.368 . S
C472 C466 1.368 . S
C472 C471 1.523 . S
C473 C457 1.429 . S
C473 C469 1.429 . S
C473 C474 1.523 . S
C474 C458 1.368 . S
C474 C470 1.368 . S
C474 C473 1.523 . S
H475 C450 0.950 . S
H476 C452 0.950 . S
H477 C453 0.949 . S
H478 C455 0.950 . S
H479 C457 0.950 . S
C480 C481 1.349 . S
C480 C482 1.327 . S
C480 H505 0.950 . S
C481 C480 1.349 . S
C481 C497 1.349 . S
C482 C480 1.327 . S
C482 C501 1.429 . S
C482 H506 0.950 . S
C483 C500 1.574 . S
C483 C502 1.368 . S
C483 H507 0.949 . S
H484 C488 0.949 . S
C485 C486 1.349 . S
C485 C487 1.327 . S
C485 H508 0.950 . S
C486 C485 1.349 . S
C486 C498 1.349 . S
C487 C485 1.327 . S
C487 C503 1.429 . S
C487 H509 0.950 . S
C488 H484 0.949 . S
C488 C496 1.574 . S
C488 C504 1.368 . S
H489 C497 0.950 . S
H490 C495 0.950 . S
H491 C496 0.949 . S
H492 C498 0.950 . S
H493 C499 0.950 . S
H494 C500 0.949 . S
C495 H490 0.950 . S
C495 C497 1.327 . S
C495 C501 1.429 . S
C496 C488 1.574 . S
C496 H491 0.949 . S
C496 C502 1.368 . S
C497 C481 1.349 . S
C497 H489 0.950 . S
C497 C495 1.327 . S
C498 C486 1.349 . S
C498 H492 0.950 . S
C498 C499 1.327 . S
C499 H493 0.950 . S
C499 C498 1.327 . S
C499 C503 1.429 . S
C500 C483 1.574 . S
C500 H494 0.949 . S
C500 C504 1.368 . S
C501 C482 1.429 . S
C501 C495 1.429 . S
C501 C502 1.523 . S
C502 C483 1.368 . S
C502 C496 1.368 . S
C502 C501 1.523 . S
C503 C487 1.429 . S
C503 C499 1.429 . S
C503 C504 1.523 . S
C504 C488 1.368 . S
C504 C500 1.368 . S
C504 C503 1.523 . S
H505 C480 0.950 . S
H506 C482 0.950 . S
H507 C483 0.949 . S
H508 C485 0.950 . S
H509 C487 0.950 . S
C510 C511 1.349 . S
C510 C512 1.327 . S
C510 H535 0.950 . S
C511 C510 1.349 . S
C511 C527 1.349 . S
C512 C510 1.327 . S
C512 C531 1.429 . S
C512 H536 0.950 . S
C513 C530 1.574 . S
C513 C532 1.368 . S
C513 H537 0.949 . S
H514 C518 0.949 . S
C515 C516 1.349 . S
C515 C517 1.327 . S
C515 H538 0.950 . S
C516 C515 1.349 . S
C516 C528 1.349 . S
C517 C515 1.327 . S
C517 C533 1.429 . S
C517 H539 0.950 . S
C518 H514 0.949 . S
C518 C526 1.574 . S
C518 C534 1.368 . S
H519 C527 0.950 . S
H520 C525 0.950 . S
H521 C526 0.949 . S
H522 C528 0.950 . S
H523 C529 0.950 . S
H524 C530 0.949 . S
C525 H520 0.950 . S
C525 C527 1.327 . S
C525 C531 1.429 . S
C526 C518 1.574 . S
C526 H521 0.949 . S
C526 C532 1.368 . S
C527 C511 1.349 . S
C527 H519 0.950 . S
C527 C525 1.327 . S
C528 C516 1.349 . S
C528 H522 0.950 . S
C528 C529 1.327 . S
C529 H523 0.950 . S
C529 C528 1.327 . S
C529 C533 1.429 . S
C530 C513 1.574 . S
C530 H524 0.949 . S
C530 C534 1.368 . S
C531 C512 1.429 . S
C531 C525 1.429 . S
C531 C532 1.523 . S
C532 C513 1.368 . S
C532 C526 1.368 . S
C532 C531 1.523 . S
C533 C517 1.429 . S
C533 C529 1.429 . S
C533 C534 1.523 . S
C534 C518 1.368 . S
C534 C530 1.368 . S
C534 C533 1.523 . S
H535 C510 0.950 . S
H536 C512 0.950 . S
H537 C513 0.949 . S
H538 C515 0.950 . S
H539 C517 0.950 . S
C540 C541 1.349 . S
C540 C542 1.327 . S
C540 H565 0.950 . S
C541 C540 1.349 . S
C541 C557 1.349 . S
C542 C540 1.327 . S
C542 C561 1.429 . S
C542 H566 0.950 . S
C543 C560 1.574 . S
C543 C562 1.368 . S
C543 H567 0.949 . S
H544 C548 0.949 . S
C545 C546 1.349 . S
C545 C547 1.327 . S
C545 H568 0.950 . S
C546 C545 1.349 . S
C546 C558 1.349 . S
C547 C545 1.327 . S
C547 C563 1.429 . S
C547 H569 0.950 . S
C548 H544 0.949 . S
C548 C556 1.574 . S
C548 C564 1.368 . S
H549 C557 0.950 . S
H550 C555 0.950 . S
H551 C556 0.949 . S
H552 C558 0.950 . S
H553 C559 0.950 . S
H554 C560 0.949 . S
C555 H550 0.950 . S
C555 C557 1.327 . S
C555 C561 1.429 . S
C556 C548 1.574 . S
C556 H551 0.949 . S
C556 C562 1.368 . S
C557 C541 1.349 . S
C557 H549 0.950 . S
C557 C555 1.327 . S
C558 C546 1.349 . S
C558 H552 0.950 . S
C558 C559 1.327 . S
C559 H553 0.950 . S
C559 C558 1.327 . S
C559 C563 1.429 . S
C560 C543 1.574 . S
C560 H554 0.949 . S
C560 C564 1.368 . S
C561 C542 1.429 . S
C561 C555 1.429 . S
C561 C562 1.523 . S
C562 C543 1.368 . S
C562 C556 1.368 . S
C562 C561 1.523 . S
C563 C547 1.429 . S
C563 C559 1.429 . S
C563 C564 1.523 . S
C564 C548 1.368 . S
C564 C560 1.368 . S
C564 C563 1.523 . S
H565 C540 0.950 . S
H566 C542 0.950 . S
H567 C543 0.949 . S
H568 C545 0.950 . S
H569 C547 0.950 . S
C570 C571 1.349 . S
C570 C572 1.327 . S
C570 H595 0.950 . S
C571 C570 1.349 . S
C571 C587 1.349 . S
C572 C570 1.327 . S
C572 C591 1.429 . S
C572 H596 0.950 . S
C573 C590 1.574 . S
C573 C592 1.368 . S
C573 H597 0.949 . S
H574 C578 0.949 . S
C575 C576 1.349 . S
C575 C577 1.327 . S
C575 H598 0.950 . S
C576 C575 1.349 . S
C576 C588 1.349 . S
C577 C575 1.327 . S
C577 C593 1.429 . S
C577 H599 0.950 . S
C578 H574 0.949 . S
C578 C586 1.574 . S
C578 C594 1.368 . S
H579 C587 0.950 . S
H580 C585 0.950 . S
H581 C586 0.949 . S
H582 C588 0.950 . S
H583 C589 0.950 . S
H584 C590 0.949 . S
C585 H580 0.950 . S
C585 C587 1.327 . S
C585 C591 1.429 . S
C586 C578 1.574 . S
C586 H581 0.949 . S
C586 C592 1.368 . S
C587 C571 1.349 . S
C587 H579 0.950 . S
C587 C585 1.327 . S
C588 C576 1.349 . S
C588 H582 0.950 . S
C588 C589 1.327 . S
C589 H583 0.950 . S
C589 C588 1.327 . S
C589 C593 1.429 . S
C590 C573 1.574 . S
C590 H584 0.949 . S
C590 C594 1.368 . S
C591 C572 1.429 . S
C591 C585 1.429 . S
C591 C592 1.523 . S
C592 C573 1.368 . S
C592 C586 1.368 . S
C592 C591 1.523 . S
C593 C577 1.429 . S
C593 C589 1.429 . S
C593 C594 1.523 . S
C594 C578 1.368 . S
C594 C590 1.368 . S
C594 C593 1.523 . S
H595 C570 0.950 . S
H596 C572 0.950 . S
H597 C573 0.949 . S
H598 C575 0.950 . S
H599 C577 0.950 . S
C600 C601 1.349 . S
C600 C602 1.327 . S
C600 H625 0.950 . S
C601 C600 1.349 . S
C601 C617 1.349 . S
C602 C600 1.327 . S
C602 C621 1.429 . S
C602 H626 0.950 . S
C603 C620 1.574 . S
C603 C622 1.368 . S
C603 H627 0.949 . S
H604 C608 0.949 . S
C605 C606 1.349 . S
C605 C607 1.327 . S
C605 H628 0.950 . S
C606 C605 1.349 . S
C606 C618 1.349 . S
C607 C605 1.327 . S
C607 C623 1.429 . S
C607 H629 0.950 . S
C608 H604 0.949 . S
C608 C616 1.574 . S
C608 C624 1.368 . S
H609 C617 0.950 . S
H610 C615 0.950 . S
H611 C616 0.949 . S
H612 C618 0.950 . S
H613 C619 0.950 . S
H614 C620 0.949 . S
C615 H610 0.950 . S
C615 C617 1.327 . S
C615 C621 1.429 . S
C616 C608 1.574 . S
C616 H611 0.949 . S
C616 C622 1.368 . S
C617 C601 1.349 . S
C617 H609 0.950 . S
C617 C615 1.327 . S
C618 C606 1.349 . S
C618 H612 0.950 . S
C618 C619 1.327 . S
C619 H613 0.950 . S
C619 C618 1.327 . S
C619 C623 1.429 . S
C620 C603 1.574 . S
C620 H614 0.949 . S
C620 C624 1.368 . S
C621 C602 1.429 . S
C621 C615 1.429 . S
C621 C622 1.523 . S
C622 C603 1.368 . S
C622 C616 1.368 . S
C622 C621 1.523 . S
C623 C607 1.429 . S
C623 C619 1.429 . S
C623 C624 1.523 . S
C624 C608 1.368 . S
C624 C620 1.368 . S
C624 C623 1.523 . S
H625 C600 0.950 . S
H626 C602 0.950 . S
H627 C603 0.949 . S
H628 C605 0.950 . S
H629 C607 0.950 . S
C630 C631 1.349 . S
C630 C632 1.327 . S
C630 H655 0.950 . S
C631 C630 1.349 . S
C631 C647 1.349 . S
C632 C630 1.327 . S
C632 C651 1.429 . S
C632 H656 0.950 . S
C633 C650 1.574 . S
C633 C652 1.368 . S
C633 H657 0.949 . S
H634 C638 0.949 . S
C635 C636 1.349 . S
C635 C637 1.327 . S
C635 H658 0.950 . S
C636 C635 1.349 . S
C636 C648 1.349 . S
C637 C635 1.327 . S
C637 C653 1.429 . S
C637 H659 0.950 . S
C638 H634 0.949 . S
C638 C646 1.574 . S
C638 C654 1.368 . S
H639 C647 0.950 . S
H640 C645 0.950 . S
H641 C646 0.949 . S
H642 C648 0.950 . S
H643 C649 0.950 . S
H644 C650 0.949 . S
C645 H640 0.950 . S
C645 C647 1.327 . S
C645 C651 1.429 . S
C646 C638 1.574 . S
C646 H641 0.949 . S
C646 C652 1.368 . S
C647 C631 1.349 . S
C647 H639 0.950 . S
C647 C645 1.327 . S
C648 C636 1.349 . S
C648 H642 0.950 . S
C648 C649 1.327 . S
C649 H643 0.950 . S
C649 C648 1.327 . S
C649 C653 1.429 . S
C650 C633 1.574 . S
C650 H644 0.949 . S
C650 C654 1.368 . S
C651 C632 1.429 . S
C651 C645 1.429 . S
C651 C652 1.523 . S
C652 C633 1.368 . S
C652 C646 1.368 . S
C652 C651 1.523 . S
C653 C637 1.429 . S
C653 C649 1.429 . S
C653 C654 1.523 . S
C654 C638 1.368 . S
C654 C650 1.368 . S
C654 C653 1.523 . S
H655 C630 0.950 . S
H656 C632 0.950 . S
H657 C633 0.949 . S
H658 C635 0.950 . S
H659 C637 0.950 . S
C660 C661 1.349 . S
C660 C662 1.327 . S
C660 H685 0.950 . S
C661 C660 1.349 . S
C661 C677 1.349 . S
C662 C660 1.327 . S
C662 C681 1.429 . S
C662 H686 0.950 . S
C663 C680 1.574 . S
C663 C682 1.368 . S
C663 H687 0.949 . S
H664 C668 0.949 . S
C665 C666 1.349 . S
C665 C667 1.327 . S
C665 H688 0.950 . S
C666 C665 1.349 . S
C666 C678 1.349 . S
C667 C665 1.327 . S
C667 C683 1.429 . S
C667 H689 0.950 . S
C668 H664 0.949 . S
C668 C676 1.574 . S
C668 C684 1.368 . S
H669 C677 0.950 . S
H670 C675 0.950 . S
H671 C676 0.949 . S
H672 C678 0.950 . S
H673 C679 0.950 . S
H674 C680 0.949 . S
C675 H670 0.950 . S
C675 C677 1.327 . S
C675 C681 1.429 . S
C676 C668 1.574 . S
C676 H671 0.949 . S
C676 C682 1.368 . S
C677 C661 1.349 . S
C677 H669 0.950 . S
C677 C675 1.327 . S
C678 C666 1.349 . S
C678 H672 0.950 . S
C678 C679 1.327 . S
C679 H673 0.950 . S
C679 C678 1.327 . S
C679 C683 1.429 . S
C680 C663 1.574 . S
C680 H674 0.949 . S
C680 C684 1.368 . S
C681 C662 1.429 . S
C681 C675 1.429 . S
C681 C682 1.523 . S
C682 C663 1.368 . S
C682 C676 1.368 . S
C682 C681 1.523 . S
C683 C667 1.429 . S
C683 C679 1.429 . S
C683 C684 1.523 . S
C684 C668 1.368 . S
C684 C680 1.368 . S
C684 C683 1.523 . S
H685 C660 0.950 . S
H686 C662 0.950 . S
H687 C663 0.949 . S
H688 C665 0.950 . S
H689 C667 0.950 . S
C690 C691 1.349 . S
C690 C692 1.327 . S
C690 H715 0.950 . S
C691 C690 1.349 . S
C691 C707 1.349 . S
C692 C690 1.327 . S
C692 C711 1.429 . S
C692 H716 0.950 . S
C693 C710 1.574 . S
C693 C712 1.368 . S
C693 H717 0.949 . S
H694 C698 0.949 . S
C695 C696 1.349 . S
C695 C697 1.327 . S
C695 H718 0.950 . S
C696 C695 1.349 . S
C696 C708 1.349 . S
C697 C695 1.327 . S
C697 C713 1.429 . S
C697 H719 0.950 . S
C698 H694 0.949 . S
C698 C706 1.574 . S
C698 C714 1.368 . S
H699 C707 0.950 . S
H700 C705 0.950 . S
H701 C706 0.949 . S
H702 C708 0.950 . S
H703 C709 0.950 . S
H704 C710 0.949 . S
C705 H700 0.950 . S
C705 C707 1.327 . S
C705 C711 1.429 . S
C706 C698 1.574 . S
C706 H701 0.949 . S
C706 C712 1.368 . S
C707 C691 1.349 . S
C707 H699 0.950 . S
C707 C705 1.327 . S
C708 C696 1.349 . S
C708 H702 0.950 . S
C708 C709 1.327 . S
C709 H703 0.950 . S
C709 C708 1.327 . S
C709 C713 1.429 . S
C710 C693 1.574 . S
C710 H704 0.949 . S
C710 C714 1.368 . S
C711 C692 1.429 . S
C711 C705 1.429 . S
C711 C712 1.523 . S
C712 C693 1.368 . S
C712 C706 1.368 . S
C712 C711 1.523 . S
C713 C697 1.429 . S
C713 C709 1.429 . S
C713 C714 1.523 . S
C714 C698 1.368 . S
C714 C710 1.368 . S
C714 C713 1.523 . S
H715 C690 0.950 . S
H716 C692 0.950 . S
H717 C693 0.949 . S
H718 C695 0.950 . S
H719 C697 0.950 . S
C720 C721 1.349 . S
C720 C722 1.327 . S
C720 H745 0.950 . S
C721 C720 1.349 . S
C721 C737 1.349 . S
C722 C720 1.327 . S
C722 C741 1.429 . S
C722 H746 0.950 . S
C723 C740 1.574 . S
C723 C742 1.368 . S
C723 H747 0.949 . S
H724 C728 0.949 . S
C725 C726 1.349 . S
C725 C727 1.327 . S
C725 H748 0.950 . S
C726 C725 1.349 . S
C726 C738 1.349 . S
C727 C725 1.327 . S
C727 C743 1.429 . S
C727 H749 0.950 . S
C728 H724 0.949 . S
C728 C736 1.574 . S
C728 C744 1.368 . S
H729 C737 0.950 . S
H730 C735 0.950 . S
H731 C736 0.949 . S
H732 C738 0.950 . S
H733 C739 0.950 . S
H734 C740 0.949 . S
C735 H730 0.950 . S
C735 C737 1.327 . S
C735 C741 1.429 . S
C736 C728 1.574 . S
C736 H731 0.949 . S
C736 C742 1.368 . S
C737 C721 1.349 . S
C737 H729 0.950 . S
C737 C735 1.327 . S
C738 C726 1.349 . S
C738 H732 0.950 . S
C738 C739 1.327 . S
C739 H733 0.950 . S
C739 C738 1.327 . S
C739 C743 1.429 . S
C740 C723 1.574 . S
C740 H734 0.949 . S
C740 C744 1.368 . S
C741 C722 1.429 . S
C741 C735 1.429 . S
C741 C742 1.523 . S
C742 C723 1.368 . S
C742 C736 1.368 . S
C742 C741 1.523 . S
C743 C727 1.429 . S
C743 C739 1.429 . S
C743 C744 1.523 . S
C744 C728 1.368 . S
C744 C740 1.368 . S
C744 C743 1.523 . S
H745 C720 0.950 . S
H746 C722 0.950 . S
H747 C723 0.949 . S
H748 C725 0.950 . S
H749 C727 0.950 . S
C750 C751 1.349 . S
C750 C752 1.327 . S
C750 H775 0.950 . S
C751 C750 1.349 . S
C751 C767 1.349 . S
C752 C750 1.327 . S
C752 C771 1.429 . S
C752 H776 0.950 . S
C753 C770 1.574 . S
C753 C772 1.368 . S
C753 H777 0.949 . S
H754 C758 0.949 . S
C755 C756 1.349 . S
C755 C757 1.327 . S
C755 H778 0.950 . S
C756 C755 1.349 . S
C756 C768 1.349 . S
C757 C755 1.327 . S
C757 C773 1.429 . S
C757 H779 0.950 . S
C758 H754 0.949 . S
C758 C766 1.574 . S
C758 C774 1.368 . S
H759 C767 0.950 . S
H760 C765 0.950 . S
H761 C766 0.949 . S
H762 C768 0.950 . S
H763 C769 0.950 . S
H764 C770 0.949 . S
C765 H760 0.950 . S
C765 C767 1.327 . S
C765 C771 1.429 . S
C766 C758 1.574 . S
C766 H761 0.949 . S
C766 C772 1.368 . S
C767 C751 1.349 . S
C767 H759 0.950 . S
C767 C765 1.327 . S
C768 C756 1.349 . S
C768 H762 0.950 . S
C768 C769 1.327 . S
C769 H763 0.950 . S
C769 C768 1.327 . S
C769 C773 1.429 . S
C770 C753 1.574 . S
C770 H764 0.949 . S
C770 C774 1.368 . S
C771 C752 1.429 . S
C771 C765 1.429 . S
C771 C772 1.523 . S
C772 C753 1.368 . S
C772 C766 1.368 . S
C772 C771 1.523 . S
C773 C757 1.429 . S
C773 C769 1.429 . S
C773 C774 1.523 . S
C774 C758 1.368 . S
C774 C770 1.368 . S
C774 C773 1.523 . S
H775 C750 0.950 . S
H776 C752 0.950 . S
H777 C753 0.949 . S
H778 C755 0.950 . S
H779 C757 0.950 . S
C780 C781 1.349 . S
C780 C782 1.327 . S
C780 H805 0.950 . S
C781 C780 1.349 . S
C781 C797 1.349 . S
C782 C780 1.327 . S
C782 C801 1.429 . S
C782 H806 0.950 . S
C783 C800 1.574 . S
C783 C802 1.368 . S
C783 H807 0.949 . S
H784 C788 0.949 . S
C785 C786 1.349 . S
C785 C787 1.327 . S
C785 H808 0.950 . S
C786 C785 1.349 . S
C786 C798 1.349 . S
C787 C785 1.327 . S
C787 C803 1.429 . S
C787 H809 0.950 . S
C788 H784 0.949 . S
C788 C796 1.574 . S
C788 C804 1.368 . S
H789 C797 0.950 . S
H790 C795 0.950 . S
H791 C796 0.949 . S
H792 C798 0.950 . S
H793 C799 0.950 . S
H794 C800 0.949 . S
C795 H790 0.950 . S
C795 C797 1.327 . S
C795 C801 1.429 . S
C796 C788 1.574 . S
C796 H791 0.949 . S
C796 C802 1.368 . S
C797 C781 1.349 . S
C797 H789 0.950 . S
C797 C795 1.327 . S
C798 C786 1.349 . S
C798 H792 0.950 . S
C798 C799 1.327 . S
C799 H793 0.950 . S
C799 C798 1.327 . S
C799 C803 1.429 . S
C800 C783 1.574 . S
C800 H794 0.949 . S
C800 C804 1.368 . S
C801 C782 1.429 . S
C801 C795 1.429 . S
C801 C802 1.523 . S
C802 C783 1.368 . S
C802 C796 1.368 . S
C802 C801 1.523 . S
C803 C787 1.429 . S
C803 C799 1.429 . S
C803 C804 1.523 . S
C804 C788 1.368 . S
C804 C800 1.368 . S
C804 C803 1.523 . S
H805 C780 0.950 . S
H806 C782 0.950 . S
H807 C783 0.949 . S
H808 C785 0.950 . S
H809 C787 0.950 . S
C810 C811 1.349 . S
C810 C812 1.327 . S
C810 H835 0.950 . S
C811 C810 1.349 . S
C811 C827 1.349 . S
C812 C810 1.327 . S
C812 C831 1.429 . S
C812 H836 0.950 . S
C813 C830 1.574 . S
C813 C832 1.368 . S
C813 H837 0.949 . S
H814 C818 0.949 . S
C815 C816 1.349 . S
C815 C817 1.327 . S
C815 H838 0.950 . S
C816 C815 1.349 . S
C816 C828 1.349 . S
C817 C815 1.327 . S
C817 C833 1.429 . S
C817 H839 0.950 . S
C818 H814 0.949 . S
C818 C826 1.574 . S
C818 C834 1.368 . S
H819 C827 0.950 . S
H820 C825 0.950 . S
H821 C826 0.949 . S
H822 C828 0.950 . S
H823 C829 0.950 . S
H824 C830 0.949 . S
C825 H820 0.950 . S
C825 C827 1.327 . S
C825 C831 1.429 . S
C826 C818 1.574 . S
C826 H821 0.949 . S
C826 C832 1.368 . S
C827 C811 1.349 . S
C827 H819 0.950 . S
C827 C825 1.327 . S
C828 C816 1.349 . S
C828 H822 0.950 . S
C828 C829 1.327 . S
C829 H823 0.950 . S
C829 C828 1.327 . S
C829 C833 1.429 . S
C830 C813 1.574 . S
C830 H824 0.949 . S
C830 C834 1.368 . S
C831 C812 1.429 . S
C831 C825 1.429 . S
C831 C832 1.523 . S
C832 C813 1.368 . S
C832 C826 1.368 . S
C832 C831 1.523 . S
C833 C817 1.429 . S
C833 C829 1.429 . S
C833 C834 1.523 . S
C834 C818 1.368 . S
C834 C830 1.368 . S
C834 C833 1.523 . S
H835 C810 0.950 . S
H836 C812 0.950 . S
H837 C813 0.949 . S
H838 C815 0.950 . S
H839 C817 0.950 . S
C840 C841 1.349 . S
C840 C842 1.327 . S
C840 H865 0.950 . S
C841 C840 1.349 . S
C841 C857 1.349 . S
C842 C840 1.327 . S
C842 C861 1.429 . S
C842 H866 0.950 . S
C843 C860 1.574 . S
C843 C862 1.368 . S
C843 H867 0.949 . S
H844 C848 0.949 . S
C845 C846 1.349 . S
C845 C847 1.327 . S
C845 H868 0.950 . S
C846 C845 1.349 . S
C846 C858 1.349 . S
C847 C845 1.327 . S
C847 C863 1.429 . S
C847 H869 0.950 . S
C848 H844 0.949 . S
C848 C856 1.574 . S
C848 C864 1.368 . S
H849 C857 0.950 . S
H850 C855 0.950 . S
H851 C856 0.949 . S
H852 C858 0.950 . S
H853 C859 0.950 . S
H854 C860 0.949 . S
C855 H850 0.950 . S
C855 C857 1.327 . S
C855 C861 1.429 . S
C856 C848 1.574 . S
C856 H851 0.949 . S
C856 C862 1.368 . S
C857 C841 1.349 . S
C857 H849 0.950 . S
C857 C855 1.327 . S
C858 C846 1.349 . S
C858 H852 0.950 . S
C858 C859 1.327 . S
C859 H853 0.950 . S
C859 C858 1.327 . S
C859 C863 1.429 . S
C860 C843 1.574 . S
C860 H854 0.949 . S
C860 C864 1.368 . S
C861 C842 1.429 . S
C861 C855 1.429 . S
C861 C862 1.523 . S
C862 C843 1.368 . S
C862 C856 1.368 . S
C862 C861 1.523 . S
C863 C847 1.429 . S
C863 C859 1.429 . S
C863 C864 1.523 . S
C864 C848 1.368 . S
C864 C860 1.368 . S
C864 C863 1.523 . S
H865 C840 0.950 . S
H866 C842 0.950 . S
H867 C843 0.949 . S
H868 C845 0.950 . S
H869 C847 0.950 . S
C870 C871 1.349 . S
C870 C872 1.327 . S
C870 H895 0.950 . S
C871 C870 1.349 . S
C871 C887 1.349 . S
C872 C870 1.327 . S
C872 C891 1.429 . S
C872 H896 0.950 . S
C873 C890 1.574 . S
C873 C892 1.368 . S
C873 H897 0.949 . S
H874 C878 0.949 . S
C875 C876 1.349 . S
C875 C877 1.327 . S
C875 H898 0.950 . S
C876 C875 1.349 . S
C876 C888 1.349 . S
C877 C875 1.327 . S
C877 C893 1.429 . S
C877 H899 0.950 . S
C878 H874 0.949 . S
C878 C886 1.574 . S
C878 C894 1.368 . S
H879 C887 0.950 . S
H880 C885 0.950 . S
H881 C886 0.949 . S
H882 C888 0.950 . S
H883 C889 0.950 . S
H884 C890 0.949 . S
C885 H880 0.950 . S
C885 C887 1.327 . S
C885 C891 1.429 . S
C886 C878 1.574 . S
C886 H881 0.949 . S
C886 C892 1.368 . S
C887 C871 1.349 . S
C887 H879 0.950 . S
C887 C885 1.327 . S
C888 C876 1.349 . S
C888 H882 0.950 . S
C888 C889 1.327 . S
C889 H883 0.950 . S
C889 C888 1.327 . S
C889 C893 1.429 . S
C890 C873 1.574 . S
C890 H884 0.949 . S
C890 C894 1.368 . S
C891 C872 1.429 . S
C891 C885 1.429 . S
C891 C892 1.523 . S
C892 C873 1.368 . S
C892 C886 1.368 . S
C892 C891 1.523 . S
C893 C877 1.429 . S
C893 C889 1.429 . S
C893 C894 1.523 . S
C894 C878 1.368 . S
C894 C890 1.368 . S
C894 C893 1.523 . S
H895 C870 0.950 . S
H896 C872 0.950 . S
H897 C873 0.949 . S
H898 C875 0.950 . S
H899 C877 0.950 . S
C900 C901 1.349 . S
C900 C902 1.327 . S
C900 H925 0.950 . S
C901 C900 1.349 . S
C901 C917 1.349 . S
C902 C900 1.327 . S
C902 C921 1.429 . S
C902 H926 0.950 . S
C903 C920 1.574 . S
C903 C922 1.368 . S
C903 H927 0.949 . S
H904 C908 0.949 . S
C905 C906 1.349 . S
C905 C907 1.327 1_554 S
C905 H928 0.950 . S
C906 C905 1.349 . S
C906 C918 1.349 . S
C907 C905 1.327 1_556 S
C907 C923 1.429 . S
C907 H929 0.950 . S
C908 H904 0.949 . S
C908 C916 1.574 . S
C908 C924 1.368 . S
H909 C917 0.950 . S
H910 C915 0.950 . S
H911 C916 0.949 . S
H912 C918 0.950 . S
H913 C919 0.950 . S
H914 C920 0.949 . S
C915 H910 0.950 . S
C915 C917 1.327 . S
C915 C921 1.429 . S
C916 C908 1.574 . S
C916 H911 0.949 . S
C916 C922 1.368 . S
C917 C901 1.349 . S
C917 H909 0.950 . S
C917 C915 1.327 . S
C918 C906 1.349 . S
C918 H912 0.950 . S
C918 C919 1.327 1_554 S
C919 H913 0.950 . S
C919 C918 1.327 1_556 S
C919 C923 1.429 . S
C920 C903 1.574 . S
C920 H914 0.949 . S
C920 C924 1.368 . S
C921 C902 1.429 . S
C921 C915 1.429 . S
C921 C922 1.523 . S
C922 C903 1.368 . S
C922 C916 1.368 . S
C922 C921 1.523 . S
C923 C907 1.429 . S
C923 C919 1.429 . S
C923 C924 1.523 . S
C924 C908 1.368 . S
C924 C920 1.368 . S
C924 C923 1.523 . S
H925 C900 0.950 . S
H926 C902 0.950 . S
H927 C903 0.949 . S
H928 C905 0.950 . S
H929 C907 0.950 . S
C930 C931 1.349 . S
C930 C932 1.327 . S
C930 H955 0.950 . S
C931 C930 1.349 . S
C931 C947 1.349 . S
C932 C930 1.327 . S
C932 C951 1.429 . S
C932 H956 0.950 . S
C933 C950 1.574 . S
C933 C952 1.368 . S
C933 H957 0.949 . S
H934 C938 0.949 . S
C935 C936 1.349 . S
C935 C937 1.327 . S
C935 H958 0.950 . S
C936 C935 1.349 . S
C936 C948 1.349 . S
C937 C935 1.327 . S
C937 C953 1.429 . S
C937 H959 0.950 . S
C938 H934 0.949 . S
C938 C946 1.574 . S
C938 C954 1.368 . S
H939 C947 0.950 . S
H940 C945 0.950 . S
H941 C946 0.949 . S
H942 C948 0.950 . S
H943 C949 0.950 . S
H944 C950 0.949 . S
C945 H940 0.950 . S
C945 C947 1.327 . S
C945 C951 1.429 . S
C946 C938 1.574 . S
C946 H941 0.949 . S
C946 C952 1.368 . S
C947 C931 1.349 . S
C947 H939 0.950 . S
C947 C945 1.327 . S
C948 C936 1.349 . S
C948 H942 0.950 . S
C948 C949 1.327 . S
C949 H943 0.950 . S
C949 C948 1.327 . S
C949 C953 1.429 . S
C950 C933 1.574 . S
C950 H944 0.949 . S
C950 C954 1.368 . S
C951 C932 1.429 . S
C951 C945 1.429 . S
C951 C952 1.523 . S
C952 C933 1.368 . S
C952 C946 1.368 . S
C952 C951 1.523 . S
C953 C937 1.429 . S
C953 C949 1.429 . S
C953 C954 1.523 . S
C954 C938 1.368 . S
C954 C950 1.368 . S
C954 C953 1.523 . S
H955 C930 0.950 . S
H956 C932 0.950 . S
H957 C933 0.949 . S
H958 C935 0.950 . S
H959 C937 0.950 . S
C960 C961 1.349 . S
C960 C962 1.327 . S
C960 H985 0.950 . S
C961 C960 1.349 . S
C961 C977 1.349 . S
C962 C960 1.327 . S
C962 C981 1.429 . S
C962 H986 0.950 . S
C963 C980 1.574 . S
C963 C982 1.368 . S
C963 H987 0.949 . S
H964 C968 0.949 . S
C965 C966 1.349 . S
C965 C967 1.327 . S
C965 H988 0.950 . S
C966 C965 1.349 . S
C966 C978 1.349 . S
C967 C965 1.327 . S
C967 C983 1.429 . S
C967 H989 0.950 . S
C968 H964 0.949 . S
C968 C976 1.574 . S
C968 C984 1.368 . S
H969 C977 0.950 . S
H970 C975 0.950 . S
H971 C976 0.949 . S
H972 C978 0.950 . S
H973 C979 0.950 . S
H974 C980 0.949 . S
C975 H970 0.950 . S
C975 C977 1.327 . S
C975 C981 1.429 . S
C976 C968 1.574 . S
C976 H971 0.949 . S
C976 C982 1.368 . S
C977 C961 1.349 . S
C977 H969 0.950 . S
C977 C975 1.327 . S
C978 C966 1.349 . S
C978 H972 0.950 . S
C978 C979 1.327 . S
C979 H973 0.950 . S
C979 C978 1.327 . S
C979 C983 1.429 . S
C980 C963 1.574 . S
C980 H974 0.949 . S
C980 C984 1.368 . S
C981 C962 1.429 . S
C981 C975 1.429 . S
C981 C982 1.523 . S
C982 C963 1.368 . S
C982 C976 1.368 . S
C982 C981 1.523 . S
C983 C967 1.429 . S
C983 C979 1.429 . S
C983 C984 1.523 . S
C984 C968 1.368 . S
C984 C980 1.368 . S
C984 C983 1.523 . S
H985 C960 0.950 . S
H986 C962 0.950 . S
H987 C963 0.949 . S
H988 C965 0.950 . S
H989 C967 0.950 . S
C990 C991 1.349 . S
C990 C992 1.327 . S
C990 H1015 0.950 . S
C991 C990 1.349 . S
C991 C1007 1.349 . S
C992 C990 1.327 . S
C992 C1011 1.429 . S
C992 H1016 0.950 . S
C993 C1010 1.574 . S
C993 C1012 1.368 . S
C993 H1017 0.949 . S
H994 C998 0.949 . S
C995 C996 1.349 . S
C995 C997 1.327 . S
C995 H1018 0.950 . S
C996 C995 1.349 . S
C996 C1008 1.349 . S
C997 C995 1.327 . S
C997 C1013 1.429 . S
C997 H1019 0.950 . S
C998 H994 0.949 . S
C998 C1006 1.574 . S
C998 C1014 1.368 . S
H999 C1007 0.950 . S
H1000 C1005 0.950 . S
H1001 C1006 0.949 . S
H1002 C1008 0.950 . S
H1003 C1009 0.950 . S
H1004 C1010 0.949 . S
C1005 H1000 0.950 . S
C1005 C1007 1.327 . S
C1005 C1011 1.429 . S
C1006 C998 1.574 . S
C1006 H1001 0.949 . S
C1006 C1012 1.368 . S
C1007 C991 1.349 . S
C1007 H999 0.950 . S
C1007 C1005 1.327 . S
C1008 C996 1.349 . S
C1008 H1002 0.950 . S
C1008 C1009 1.327 . S
C1009 H1003 0.950 . S
C1009 C1008 1.327 . S
C1009 C1013 1.429 . S
C1010 C993 1.574 . S
C1010 H1004 0.949 . S
C1010 C1014 1.368 . S
C1011 C992 1.429 . S
C1011 C1005 1.429 . S
C1011 C1012 1.523 . S
C1012 C993 1.368 . S
C1012 C1006 1.368 . S
C1012 C1011 1.523 . S
C1013 C997 1.429 . S
C1013 C1009 1.429 . S
C1013 C1014 1.523 . S
C1014 C998 1.368 . S
C1014 C1010 1.368 . S
C1014 C1013 1.523 . S
H1015 C990 0.950 . S
H1016 C992 0.950 . S
H1017 C993 0.949 . S
H1018 C995 0.950 . S
H1019 C997 0.950 . S
C1020 C1021 1.349 . S
C1020 C1022 1.327 . S
C1020 H1045 0.950 . S
C1021 C1020 1.349 . S
C1021 C1037 1.349 . S
C1022 C1020 1.327 . S
C1022 C1041 1.429 . S
C1022 H1046 0.950 . S
C1023 C1040 1.574 . S
C1023 C1042 1.368 . S
C1023 H1047 0.949 . S
H1024 C1028 0.949 . S
C1025 C1026 1.349 . S
C1025 C1027 1.327 . S
C1025 H1048 0.950 . S
C1026 C1025 1.349 . S
C1026 C1038 1.349 . S
C1027 C1025 1.327 . S
C1027 C1043 1.429 . S
C1027 H1049 0.950 . S
C1028 H1024 0.949 . S
C1028 C1036 1.574 . S
C1028 C1044 1.368 . S
H1029 C1037 0.950 . S
H1030 C1035 0.950 . S
H1031 C1036 0.949 . S
H1032 C1038 0.950 . S
H1033 C1039 0.950 . S
H1034 C1040 0.949 . S
C1035 H1030 0.950 . S
C1035 C1037 1.327 . S
C1035 C1041 1.429 . S
C1036 C1028 1.574 . S
C1036 H1031 0.949 . S
C1036 C1042 1.368 . S
C1037 C1021 1.349 . S
C1037 H1029 0.950 . S
C1037 C1035 1.327 . S
C1038 C1026 1.349 . S
C1038 H1032 0.950 . S
C1038 C1039 1.327 . S
C1039 H1033 0.950 . S
C1039 C1038 1.327 . S
C1039 C1043 1.429 . S
C1040 C1023 1.574 . S
C1040 H1034 0.949 . S
C1040 C1044 1.368 . S
C1041 C1022 1.429 . S
C1041 C1035 1.429 . S
C1041 C1042 1.523 . S
C1042 C1023 1.368 . S
C1042 C1036 1.368 . S
C1042 C1041 1.523 . S
C1043 C1027 1.429 . S
C1043 C1039 1.429 . S
C1043 C1044 1.523 . S
C1044 C1028 1.368 . S
C1044 C1040 1.368 . S
C1044 C1043 1.523 . S
H1045 C1020 0.950 . S
H1046 C1022 0.950 . S
H1047 C1023 0.949 . S
H1048 C1025 0.950 . S
H1049 C1027 0.950 . S
C1050 C1051 1.349 . S
C1050 C1052 1.327 . S
C1050 H1075 0.950 . S
C1051 C1050 1.349 . S
C1051 C1067 1.349 . S
C1052 C1050 1.327 . S
C1052 C1071 1.429 . S
C1052 H1076 0.950 . S
C1053 C1070 1.574 . S
C1053 C1072 1.368 . S
C1053 H1077 0.949 . S
H1054 C1058 0.949 . S
C1055 C1056 1.349 . S
C1055 C1057 1.327 . S
C1055 H1078 0.950 . S
C1056 C1055 1.349 . S
C1056 C1068 1.349 . S
C1057 C1055 1.327 . S
C1057 C1073 1.429 . S
C1057 H1079 0.950 . S
C1058 H1054 0.949 . S
C1058 C1066 1.574 . S
C1058 C1074 1.368 . S
H1059 C1067 0.950 . S
H1060 C1065 0.950 . S
H1061 C1066 0.949 . S
H1062 C1068 0.950 . S
H1063 C1069 0.950 . S
H1064 C1070 0.949 . S
C1065 H1060 0.950 . S
C1065 C1067 1.327 . S
C1065 C1071 1.429 . S
C1066 C1058 1.574 . S
C1066 H1061 0.949 . S
C1066 C1072 1.368 . S
C1067 C1051 1.349 . S
C1067 H1059 0.950 . S
C1067 C1065 1.327 . S
C1068 C1056 1.349 . S
C1068 H1062 0.950 . S
C1068 C1069 1.327 . S
C1069 H1063 0.950 . S
C1069 C1068 1.327 . S
C1069 C1073 1.429 . S
C1070 C1053 1.574 . S
C1070 H1064 0.949 . S
C1070 C1074 1.368 . S
C1071 C1052 1.429 . S
C1071 C1065 1.429 . S
C1071 C1072 1.523 . S
C1072 C1053 1.368 . S
C1072 C1066 1.368 . S
C1072 C1071 1.523 . S
C1073 C1057 1.429 . S
C1073 C1069 1.429 . S
C1073 C1074 1.523 . S
C1074 C1058 1.368 . S
C1074 C1070 1.368 . S
C1074 C1073 1.523 . S
H1075 C1050 0.950 . S
H1076 C1052 0.950 . S
H1077 C1053 0.949 . S
H1078 C1055 0.950 . S
H1079 C1057 0.950 . S
C1080 C1081 1.349 . S
C1080 C1082 1.327 . S
C1080 H1105 0.950 . S
C1081 C1080 1.349 . S
C1081 C1097 1.349 . S
C1082 C1080 1.327 . S
C1082 C1101 1.429 . S
C1082 H1106 0.950 . S
C1083 C1100 1.574 . S
C1083 C1102 1.368 . S
C1083 H1107 0.949 . S
H1084 C1088 0.949 . S
C1085 C1086 1.349 . S
C1085 C1087 1.327 . S
C1085 H1108 0.950 . S
C1086 C1085 1.349 . S
C1086 C1098 1.349 . S
C1087 C1085 1.327 . S
C1087 C1103 1.429 . S
C1087 H1109 0.950 . S
C1088 H1084 0.949 . S
C1088 C1096 1.574 . S
C1088 C1104 1.368 . S
H1089 C1097 0.950 . S
H1090 C1095 0.950 . S
H1091 C1096 0.949 . S
H1092 C1098 0.950 . S
H1093 C1099 0.950 . S
H1094 C1100 0.949 . S
C1095 H1090 0.950 . S
C1095 C1097 1.327 . S
C1095 C1101 1.429 . S
C1096 C1088 1.574 . S
C1096 H1091 0.949 . S
C1096 C1102 1.368 . S
C1097 C1081 1.349 . S
C1097 H1089 0.950 . S
C1097 C1095 1.327 . S
C1098 C1086 1.349 . S
C1098 H1092 0.950 . S
C1098 C1099 1.327 . S
C1099 H1093 0.950 . S
C1099 C1098 1.327 . S
C1099 C1103 1.429 . S
C1100 C1083 1.574 . S
C1100 H1094 0.949 . S
C1100 C1104 1.368 . S
C1101 C1082 1.429 . S
C1101 C1095 1.429 . S
C1101 C1102 1.523 . S
C1102 C1083 1.368 . S
C1102 C1096 1.368 . S
C1102 C1101 1.523 . S
C1103 C1087 1.429 . S
C1103 C1099 1.429 . S
C1103 C1104 1.523 . S
C1104 C1088 1.368 . S
C1104 C1100 1.368 . S
C1104 C1103 1.523 . S
H1105 C1080 0.950 . S
H1106 C1082 0.950 . S
H1107 C1083 0.949 . S
H1108 C1085 0.950 . S
H1109 C1087 0.950 . S
C1110 C1111 1.349 . S
C1110 C1112 1.327 . S
C1110 H1135 0.950 . S
C1111 C1110 1.349 . S
C1111 C1127 1.349 . S
C1112 C1110 1.327 . S
C1112 C1131 1.429 . S
C1112 H1136 0.950 . S
C1113 C1130 1.574 1_554 S
C1113 C1132 1.368 . S
C1113 H1137 0.949 . S
H1114 C1118 0.949 . S
C1115 C1116 1.349 . S
C1115 C1117 1.327 . S
C1115 H1138 0.950 . S
C1116 C1115 1.349 . S
C1116 C1128 1.349 . S
C1117 C1115 1.327 . S
C1117 C1133 1.429 . S
C1117 H1139 0.950 . S
C1118 H1114 0.949 . S
C1118 C1126 1.574 . S
C1118 C1134 1.368 . S
H1119 C1127 0.950 . S
H1120 C1125 0.950 . S
H1121 C1126 0.949 . S
H1122 C1128 0.950 . S
H1123 C1129 0.950 . S
H1124 C1130 0.949 . S
C1125 H1120 0.950 . S
C1125 C1127 1.327 . S
C1125 C1131 1.429 . S
C1126 C1118 1.574 . S
C1126 H1121 0.949 . S
C1126 C1132 1.368 1_556 S
C1127 C1111 1.349 . S
C1127 H1119 0.950 . S
C1127 C1125 1.327 . S
C1128 C1116 1.349 . S
C1128 H1122 0.950 . S
C1128 C1129 1.327 . S
C1129 H1123 0.950 . S
C1129 C1128 1.327 . S
C1129 C1133 1.429 . S
C1130 C1113 1.574 1_556 S
C1130 H1124 0.949 . S
C1130 C1134 1.368 . S
C1131 C1112 1.429 . S
C1131 C1125 1.429 . S
C1131 C1132 1.523 . S
C1132 C1113 1.368 . S
C1132 C1126 1.368 1_554 S
C1132 C1131 1.523 . S
C1133 C1117 1.429 . S
C1133 C1129 1.429 . S
C1133 C1134 1.523 . S
C1134 C1118 1.368 . S
C1134 C1130 1.368 . S
C1134 C1133 1.523 . S
H1135 C1110 0.950 . S
H1136 C1112 0.950 . S
H1137 C1113 0.949 . S
H1138 C1115 0.950 . S
H1139 C1117 0.950 . S
C1140 C1141 1.349 . S
C1140 C1142 1.327 . S
C1140 H1165 0.950 . S
C1141 C1140 1.349 . S
C1141 C1157 1.349 . S
C1142 C1140 1.327 . S
C1142 C1161 1.429 . S
C1142 H1166 0.950 . S
C1143 C1160 1.574 . S
C1143 C1162 1.368 . S
C1143 H1167 0.949 . S
H1144 C1148 0.949 . S
C1145 C1146 1.349 . S
C1145 C1147 1.327 . S
C1145 H1168 0.950 . S
C1146 C1145 1.349 . S
C1146 C1158 1.349 . S
C1147 C1145 1.327 . S
C1147 C1163 1.429 . S
C1147 H1169 0.950 . S
C1148 H1144 0.949 . S
C1148 C1156 1.574 . S
C1148 C1164 1.368 . S
H1149 C1157 0.950 . S
H1150 C1155 0.950 . S
H1151 C1156 0.949 . S
H1152 C1158 0.950 . S
H1153 C1159 0.950 . S
H1154 C1160 0.949 . S
C1155 H1150 0.950 . S
C1155 C1157 1.327 . S
C1155 C1161 1.429 . S
C1156 C1148 1.574 . S
C1156 H1151 0.949 . S
C1156 C1162 1.368 . S
C1157 C1141 1.349 . S
C1157 H1149 0.950 . S
C1157 C1155 1.327 . S
C1158 C1146 1.349 . S
C1158 H1152 0.950 . S
C1158 C1159 1.327 . S
C1159 H1153 0.950 . S
C1159 C1158 1.327 . S
C1159 C1163 1.429 . S
C1160 C1143 1.574 . S
C1160 H1154 0.949 . S
C1160 C1164 1.368 . S
C1161 C1142 1.429 . S
C1161 C1155 1.429 . S
C1161 C1162 1.523 . S
C1162 C1143 1.368 . S
C1162 C1156 1.368 . S
C1162 C1161 1.523 . S
C1163 C1147 1.429 . S
C1163 C1159 1.429 . S
C1163 C1164 1.523 . S
C1164 C1148 1.368 . S
C1164 C1160 1.368 . S
C1164 C1163 1.523 . S
H1165 C1140 0.950 . S
H1166 C1142 0.950 . S
H1167 C1143 0.949 . S
H1168 C1145 0.950 . S
H1169 C1147 0.950 . S
C456 C447 1.622 . S
C451 C29 1.533 . S
C481 C115 1.489 . S
C486 C372 1.445 . S
C511 C153 1.556 . S
C516 C395 1.657 . S
C541 C239 1.371 . S
C546 C408 1.391 . S
C576 C411 1.534 . S
C571 C301 1.570 . S
C601 C339 1.717 . S
C606 C424 1.765 . S
C631 C91 1.465 . S
C636 C385 1.510 . S
C661 C177 1.529 . S
C666 C398 1.484 . S
C691 C215 1.400 . S
C696 C421 1.485 . S
C726 C434 1.940 . S
C721 C277 1.823 . S
C756 C437 1.497 . S
C751 C363 1.532 . S
C786 C382 1.524 . S
C781 C53 1.500 . S
C811 C35 1.519 . S
C816 C393 1.508 . S
C841 C109 1.366 . S
C846 C406 1.426 . S
C876 C416 1.409 . S
C871 C159 1.422 . S
C901 C233 1.579 . S
C906 C429 1.658 . S
C936 C445 1.497 . S
C931 C295 1.424 . S
C966 C377 1.291 . S
C961 C345 1.308 . S
C996 C442 1.369 . S
C991 C97 1.379 . S
C1021 C171 1.408 . S
C1026 C380 1.473 . S
C1056 C390 1.501 . S
C1051 C221 1.514 . S
C1081 C283 1.351 . S
C1086 C403 1.332 . S
C1111 C357 1.377 . S
C1116 C419 1.446 . S
C1141 C47 1.588 . S
C1146 C432 1.659 . S
