# Generated by pormake.
# Topology anh, (6,3)-cn, num edge types: 1
# Building blocks:
#     Node 0, Type 0, BuildingBlock: CUWYAW_clean_sbu_0, # of connection points: 6
#     Node 1, Type 0, BuildingBlock: CUWYAW_clean_sbu_0, # of connection points: 6
#     Node 2, Type 0, BuildingBlock: CUWYAW_clean_sbu_0, # of connection points: 6
#     Node 3, Type 1, BuildingBlock: VETTIZ_charged_linker_0, # of connection points: 3
#     Node 4, Type 1, BuildingBlock: VETTIZ_charged_linker_0, # of connection points: 3
#     Node 5, Type 1, BuildingBlock: VETTIZ_charged_linker_0, # of connection points: 3
#     Node 6, Type 1, BuildingBlock: VETTIZ_charged_linker_0, # of connection points: 3
#     Node 7, Type 1, BuildingBlock: VETTIZ_charged_linker_0, # of connection points: 3
#     Node 8, Type 1, BuildingBlock: VETTIZ_charged_linker_0, # of connection points: 3
#     Edge 9, Type (0, 1), BuildingBlock: KIFKEQ_clean_linker_1, # of connection points: 2
#     Edge 10, Type (0, 1), BuildingBlock: KIFKEQ_clean_linker_1, # of connection points: 2
#     Edge 11, Type (0, 1), BuildingBlock: KIFKEQ_clean_linker_1, # of connection points: 2
#     Edge 12, Type (0, 1), BuildingBlock: KIFKEQ_clean_linker_1, # of connection points: 2
#     Edge 13, Type (0, 1), BuildingBlock: KIFKEQ_clean_linker_1, # of connection points: 2
#     Edge 14, Type (0, 1), BuildingBlock: KIFKEQ_clean_linker_1, # of connection points: 2
#     Edge 15, Type (0, 1), BuildingBlock: KIFKEQ_clean_linker_1, # of connection points: 2
#     Edge 16, Type (0, 1), BuildingBlock: KIFKEQ_clean_linker_1, # of connection points: 2
#     Edge 17, Type (0, 1), BuildingBlock: KIFKEQ_clean_linker_1, # of connection points: 2
#     Edge 18, Type (0, 1), BuildingBlock: KIFKEQ_clean_linker_1, # of connection points: 2
#     Edge 19, Type (0, 1), BuildingBlock: KIFKEQ_clean_linker_1, # of connection points: 2
#     Edge 20, Type (0, 1), BuildingBlock: KIFKEQ_clean_linker_1, # of connection points: 2
#     Edge 21, Type (0, 1), BuildingBlock: KIFKEQ_clean_linker_1, # of connection points: 2
#     Edge 22, Type (0, 1), BuildingBlock: KIFKEQ_clean_linker_1, # of connection points: 2
#     Edge 23, Type (0, 1), BuildingBlock: KIFKEQ_clean_linker_1, # of connection points: 2
#     Edge 24, Type (0, 1), BuildingBlock: KIFKEQ_clean_linker_1, # of connection points: 2
#     Edge 25, Type (0, 1), BuildingBlock: KIFKEQ_clean_linker_1, # of connection points: 2
#     Edge 26, Type (0, 1), BuildingBlock: KIFKEQ_clean_linker_1, # of connection points: 2
# Relax obj value: 0.244
# Max RMSD: 0.187
# Mean RMSD: 0.158
data_MOF--net-anh--node1-CUWYAW_clean_sbu_0--node2-VETTIZ_charged_linker_0--edge1-KIFKEQ_clean_linker_1
_symmetry_space_group_name_H-M    P1
_symmetry_Int_Tables_number       1
_symmetry_cell_setting            triclinic
loop_
_symmetry_equiv_pos_as_xyz
'x, y, z'
_cell_length_a     37.151375
_cell_length_b     37.301471
_cell_length_c     67.465395
_cell_angle_alpha  89.57833
_cell_angle_beta   90.24651
_cell_angle_gamma 120.22158
loop_
_atom_site_label
_atom_site_type_symbol
_atom_site_fract_x
_atom_site_fract_y
_atom_site_fract_z
_atom_type_partial_charge
C0 C 1.06079 0.47167 0.14993 0.0
Eu1 Eu 0.09064 0.53968 0.17001 0.0
C2 C 1.01833 0.44244 0.14415 0.0
C3 C 0.986 0.44118 0.1552 0.0
C4 C 0.94591 0.42116 0.14773 0.0
C5 C 0.93744 0.40223 0.12903 0.0
C6 C 0.96949 0.402 0.11825 0.0
C7 C 1.01011 0.4226 0.12572 0.0
C8 C 0.08955 0.55247 0.21002 0.0
C9 C 1.02921 0.5812 0.17286 0.0
C10 C 0.1781 0.70858 0.18547 0.0
Eu11 Eu 0.13031 0.63252 0.17661 0.0
C12 C 0.21687 0.73257 0.17443 0.0
C13 C 0.2171 0.72556 0.15392 0.0
C14 C 0.25446 0.74018 0.14379 0.0
C15 C 0.29214 0.76158 0.15404 0.0
C16 C 0.29195 0.76912 0.17448 0.0
C17 C 0.25453 0.7546 0.18461 0.0
C18 C 0.11625 0.60823 0.13849 0.0
C19 C 0.19289 0.59152 0.17209 0.0
O20 O 1.07448 0.50815 0.14183 0.0
O21 O 1.06936 0.47356 0.1689 0.0
O22 O 1.07449 0.5161 0.20203 0.0
O23 O 0.10339 0.5794 0.19643 0.0
O24 O 1.03393 0.55019 0.16599 0.0
O25 O 1.06163 0.61405 0.18106 0.0
O26 O 0.17688 0.67876 0.19635 0.0
O27 O 0.14414 0.69656 0.17508 0.0
O28 O 0.11062 0.6374 0.14523 0.0
O29 O 0.13021 0.595 0.15188 0.0
O30 O 0.18988 0.62572 0.17382 0.0
O31 O 0.15847 0.55461 0.1712 0.0
H32 H 0.99199 0.45706 0.16927 0.0
H33 H 0.92135 0.42031 0.1567 0.0
H34 H 0.96317 0.38653 0.10407 0.0
H35 H 1.03522 0.42428 0.1169 0.0
H36 H 0.1884 0.70756 0.14574 0.0
H37 H 0.25398 0.73481 0.12801 0.0
H38 H 0.32083 0.78696 0.18257 0.0
H39 H 0.25496 0.7594 0.20045 0.0
C40 C 0.56244 0.12884 0.48857 0.0
Eu41 Eu 0.60433 0.09892 0.50532 0.0
C42 C 0.57671 0.17205 0.48441 0.0
C43 C 0.60558 0.20174 0.49744 0.0
C44 C 0.63148 0.2419 0.4909 0.0
C45 C 0.62894 0.253 0.47124 0.0
C46 C 0.59803 0.22413 0.4586 0.0
C47 C 0.57203 0.18357 0.46518 0.0
C48 C 0.62084 0.09844 0.54461 0.0
C49 C 0.70785 0.16262 0.50541 0.0
C50 C 0.68725 1.01384 0.51457 0.0
Eu51 Eu 0.65781 0.06194 0.50741 0.0
C52 C 0.66465 0.96973 0.50952 0.0
C53 C 0.68138 0.95497 0.49542 0.0
C54 C 0.65596 0.91725 0.48606 0.0
C55 C 0.6128 0.89366 0.49028 0.0
C56 C 0.59673 0.90858 0.50484 0.0
C57 C 0.62246 0.94545 0.51464 0.0
C58 C 0.64456 0.08042 0.47064 0.0
C59 C 0.55371 0.99836 0.50508 0.0
O60 O 0.58357 0.11561 0.47869 0.0
O61 O 0.55769 0.11783 0.50729 0.0
O62 O 0.59935 0.11381 0.53709 0.0
O63 O 0.6344 0.08506 0.53101 0.0
O64 O 0.67058 0.15802 0.50091 0.0
O65 O 0.70993 0.12958 0.51123 0.0
O66 O 0.67074 1.02528 0.52851 0.0
O67 O 0.69845 1.03831 0.49908 0.0
O68 O 0.68119 0.08931 0.47686 0.0
O69 O 0.61768 0.0628 0.48405 0.0
O70 O 0.59153 1.00263 0.50335 0.0
O71 O 0.55079 1.03183 0.5078 0.0
H72 H 0.61027 0.19334 0.51225 0.0
H73 H 0.65391 0.26421 0.50119 0.0
H74 H 0.59497 0.23262 0.44357 0.0
H75 H 0.55043 0.16058 0.45486 0.0
H76 H 0.71378 0.97341 0.49106 0.0
H77 H 0.67086 0.90681 0.47574 0.0
H78 H 0.56419 0.89225 0.50883 0.0
H79 H 0.60847 0.95596 0.5255 0.0
C80 C 0.72708 0.62221 0.8283 0.0
Eu81 Eu 0.65067 0.5875 0.84014 0.0
C82 C 0.74839 0.60287 0.81884 0.0
C83 C 0.75412 0.57364 0.8294 0.0
C84 C 0.76708 0.54964 0.81965 0.0
C85 C 0.77481 0.55437 0.79915 0.0
C86 C 0.77068 0.5846 0.78862 0.0
C87 C 0.75725 0.60862 0.79842 0.0
C88 C 0.62546 0.58028 0.87855 0.0
C89 C 0.61167 0.48497 0.84083 0.0
C90 C 0.48628 0.50518 0.85044 0.0
Eu91 Eu 0.56422 0.53647 0.84369 0.0
C92 C 0.46119 0.51762 0.83865 0.0
C93 C 0.46458 0.51939 0.81779 0.0
C94 C 0.44884 0.53991 0.80659 0.0
C95 C 0.43025 0.55957 0.8161 0.0
C96 C 0.42595 0.55696 0.83689 0.0
C97 C 0.44129 0.53611 0.84807 0.0
C98 C 0.58946 0.54538 0.80559 0.0
C99 C 0.60298 0.63971 0.83864 0.0
O100 O 0.69738 0.6215 0.81761 0.0
O101 O 0.71623 0.61218 0.84685 0.0
O102 O 0.65374 0.6144 0.87037 0.0
O103 O 0.61228 0.55066 0.86641 0.0
O104 O 0.6425 0.52162 0.83453 0.0
O105 O 0.57821 0.48361 0.84843 0.0
O106 O 0.51453 0.53465 0.86154 0.0
O107 O 0.50076 0.48493 0.84078 0.0
O108 O 0.56151 0.51058 0.81317 0.0
O109 O 0.60173 0.574 0.81809 0.0
O110 O 0.56948 0.60246 0.84207 0.0
O111 O 0.63932 0.64183 0.83664 0.0
H112 H 0.74769 0.56844 0.84513 0.0
H113 H 0.772 0.5279 0.82832 0.0
H114 H 0.77788 0.58957 0.77295 0.0
H115 H 0.75278 0.63092 0.79 0.0
H116 H 0.48062 0.50614 0.81007 0.0
H117 H 0.45137 0.54068 0.79058 0.0
H118 H 0.41013 0.57059 0.84449 0.0
H119 H 0.43902 0.53575 0.86409 0.0
C120 C 0.67548 0.23225 0.20054 0.0
C121 C 0.71296 0.26372 0.20816 0.0
C122 C 0.72178 0.26365 0.22851 0.0
C123 C 0.65568 0.19968 0.23289 0.0
C124 C 0.64813 0.20049 0.21289 0.0
C125 C 0.61093 0.16204 0.20573 0.0
H126 H 0.46669 0.96486 0.2197 0.0
C127 C 0.62134 0.16015 0.24086 0.0
C128 C 0.59528 0.13845 0.22494 0.0
H129 H 0.50554 1.03768 0.16575 0.0
H130 H 0.54638 0.09943 0.18433 0.0
H131 H 0.55261 1.00424 0.2416 0.0
H132 H 0.46002 1.04152 0.24571 0.0
H133 H 0.482 1.04577 0.26929 0.0
H134 H 0.45322 0.99546 0.25776 0.0
H135 H 0.502 0.97169 0.25231 0.0
H136 H 0.54393 1.01076 0.2667 0.0
C137 C 0.62648 0.14036 0.19119 0.0
C138 C 0.58 0.1743 0.19672 0.0
C139 C 0.61431 0.12542 0.31405 0.0
C140 C 0.58569 0.09148 0.3256 0.0
C141 C 0.551 0.05831 0.3162 0.0
C142 C 0.54516 0.05879 0.29567 0.0
C143 C 0.57433 0.09271 0.28436 0.0
C144 C 0.60791 0.12555 0.29361 0.0
C145 C 0.63534 0.1594 0.2793 0.0
C146 C 0.61191 0.1421 0.26008 0.0
C147 C 0.57663 0.10254 0.26302 0.0
C148 C 0.67866 0.16285 0.27906 0.0
C149 C 0.63631 0.1998 0.28534 0.0
C150 C 0.48393 0.99452 0.21219 0.0
C151 C 0.48432 0.99701 0.19135 0.0
C152 C 0.50589 1.03553 0.18178 0.0
C153 C 0.52962 0.07129 0.19266 0.0
C154 C 0.53251 0.06834 0.21329 0.0
C155 C 0.50857 1.03096 0.22297 0.0
C156 C 0.51589 1.0351 0.24512 0.0
C157 C 0.55138 0.07994 0.24659 0.0
C158 C 0.56042 0.09863 0.22784 0.0
C159 C 0.52915 1.00376 0.25196 0.0
C160 C 0.47574 1.02889 0.25516 0.0
H161 H 0.70094 0.23296 0.25643 0.0
H162 H 0.66889 0.23038 0.18478 0.0
H163 H 0.5837 0.203 0.20359 0.0
H164 H 0.54702 0.1506 0.19948 0.0
H165 H 0.58498 0.18018 0.18053 0.0
H166 H 0.65915 0.14856 0.19444 0.0
H167 H 0.62561 0.1495 0.17557 0.0
H168 H 0.60886 0.10617 0.19238 0.0
H169 H 0.64159 0.15117 0.32069 0.0
H170 H 0.5281 1.03205 0.32475 0.0
H171 H 0.51831 1.03266 0.28936 0.0
H172 H 0.67576 0.13189 0.2812 0.0
H173 H 0.69885 0.18334 0.2911 0.0
H174 H 0.6949 0.17425 0.26474 0.0
H175 H 0.6045 0.19328 0.28925 0.0
H176 H 0.64701 0.22305 0.27329 0.0
H177 H 0.6567 0.21402 0.29845 0.0
H178 H 0.75127 0.28739 0.2345 0.0
C179 C 0.69282 0.23192 0.24107 0.0
C180 C 0.68771 0.71139 0.53513 0.0
C181 C 0.66736 0.73136 0.54224 0.0
C182 C 0.66016 0.73131 0.56271 0.0
C183 C 0.68428 0.68245 0.56777 0.0
C184 C 0.69423 0.68584 0.54786 0.0
C185 C 0.70414 0.65384 0.5411 0.0
H186 H 0.68313 0.46751 0.55245 0.0
C187 C 0.68602 0.64635 0.57572 0.0
C188 C 0.69716 0.62945 0.56011 0.0
H189 H 0.73676 0.55522 0.50376 0.0
H190 H 0.73259 0.60624 0.5225 0.0
H191 H 0.74421 0.53949 0.58464 0.0
H192 H 0.61503 0.49276 0.5695 0.0
H193 H 0.62172 0.49355 0.59556 0.0
H194 H 0.6337 0.46122 0.58063 0.0
H195 H 0.70363 0.4904 0.59379 0.0
H196 H 0.71746 0.53836 0.60622 0.0
C197 C 0.7505 0.67664 0.53444 0.0
C198 C 0.67201 0.62762 0.52471 0.0
C199 C 0.65445 0.60514 0.64797 0.0
C200 C 0.64981 0.57104 0.65912 0.0
C201 C 0.6517 0.53878 0.6492 0.0
C202 C 0.65902 0.54094 0.62871 0.0
C203 C 0.66455 0.57571 0.61796 0.0
C204 C 0.66154 0.60674 0.62756 0.0
C205 C 0.66551 0.64008 0.61356 0.0
C206 C 0.67534 0.62593 0.59439 0.0
C207 C 0.67432 0.58791 0.59694 0.0
C208 C 0.70223 0.68233 0.62029 0.0
C209 C 0.62298 0.63856 0.61271 0.0
C210 C 0.69406 0.49793 0.54599 0.0
C211 C 0.70841 0.50678 0.52618 0.0
C212 C 0.72381 0.547 0.51857 0.0
C213 C 0.72189 0.57701 0.52962 0.0
C214 C 0.70474 0.56722 0.54865 0.0
C215 C 0.693 0.52915 0.5571 0.0
C216 C 0.68069 0.52764 0.57861 0.0
C217 C 0.68413 0.57001 0.58076 0.0
C218 C 0.69713 0.59195 0.56285 0.0
C219 C 0.71282 0.52348 0.59163 0.0
C220 C 0.63541 0.49179 0.58137 0.0
H221 H 0.66184 0.70677 0.59107 0.0
H222 H 0.69336 0.7113 0.51937 0.0
H223 H 0.64065 0.62295 0.52819 0.0
H224 H 0.66673 0.59597 0.52316 0.0
H225 H 0.6815 0.64329 0.51003 0.0
H226 H 0.76829 0.70892 0.54014 0.0
H227 H 0.75322 0.67865 0.51803 0.0
H228 H 0.76743 0.66138 0.54032 0.0
H229 H 0.65313 0.63047 0.65497 0.0
H230 H 0.64707 0.51155 0.65723 0.0
H231 H 0.65977 0.51537 0.62197 0.0
H232 H 0.73022 0.67967 0.62343 0.0
H233 H 0.69421 0.69307 0.634 0.0
H234 H 0.71156 0.70676 0.60885 0.0
H235 H 0.59691 0.6081 0.61785 0.0
H236 H 0.61418 0.64202 0.59741 0.0
H237 H 0.62311 0.66282 0.62221 0.0
H238 H 0.64468 0.74716 0.56837 0.0
C239 C 0.66919 0.7072 0.57568 0.0
C240 C 0.18454 0.5268 0.86584 0.0
C241 C 0.22421 0.5404 0.87325 0.0
C242 C 0.23118 0.5435 0.89386 0.0
C243 C 0.15901 0.52455 0.89904 0.0
C244 C 0.15291 0.51981 0.8788 0.0
C245 C 0.11088 0.51066 0.87237 0.0
H246 H 0.93191 0.50498 0.88972 0.0
C247 C 0.12017 0.51955 0.90772 0.0
C248 C 0.09235 0.51163 0.89205 0.0
H249 H 0.97907 0.48245 0.83551 0.0
H250 H 1.03795 0.48936 0.85254 0.0
H251 H 0.95385 0.44547 0.91683 0.0
H252 H 1.0235 0.57816 0.9078 0.0
H253 H 1.0211 0.56649 0.93336 0.0
H254 H 0.97375 0.55194 0.91998 0.0
H255 H 0.9391 0.4792 0.92855 0.0
H256 H 0.97736 0.4687 0.93942 0.0
C257 C 0.08846 0.46659 0.86306 0.0
C258 C 0.11664 0.54658 0.85833 0.0
C259 C 0.10774 0.53503 0.98169 0.0
C260 C 1.07701 0.53591 0.9935 0.0
C261 C 1.04091 0.53156 0.98416 0.0
C262 C 1.03541 0.52623 0.96361 0.0
C263 C 1.06636 0.52543 0.95212 0.0
C264 C 0.10194 0.53004 0.96115 0.0
C265 C 0.13258 0.53072 0.94642 0.0
C266 C 0.10861 0.52365 0.92723 0.0
C267 C 1.06977 0.5207 0.93062 0.0
C268 C 0.14027 0.49452 0.95117 0.0
C269 C 0.1724 0.57411 0.94704 0.0
C270 C 0.95505 0.50114 0.88182 0.0
C271 C 0.95091 0.49263 0.86132 0.0
C272 C 0.98126 0.48795 0.85135 0.0
C273 C 1.0157 0.49213 0.86135 0.0
C274 C 1.0202 0.50113 0.88163 0.0
C275 C 0.98999 0.50462 0.8918 0.0
C276 C 1.00023 0.51203 0.91367 0.0
C277 C 1.04204 0.51348 0.9145 0.0
C278 C 1.05331 0.50795 0.89554 0.0
C279 C 0.96588 0.4747 0.92538 0.0
C280 C 1.00472 0.55426 0.91917 0.0
H281 H 0.20501 0.53856 0.92255 0.0
H282 H 0.17873 0.52392 0.84999 0.0
H283 H 0.14444 0.57657 0.8626 0.0
H284 H 0.09072 0.55297 0.85893 0.0
H285 H 0.12105 0.54032 0.84273 0.0
H286 H 0.10196 0.44746 0.86826 0.0
H287 H 0.09084 0.46827 0.84664 0.0
H288 H 1.0552 0.44827 0.86738 0.0
H289 H 0.13583 0.53815 0.98824 0.0
H290 H 1.01713 0.53313 0.99269 0.0
H291 H 1.0075 0.52347 0.95741 0.0
H292 H 0.11028 0.46554 0.9542 0.0
H293 H 0.16039 0.50143 0.96447 0.0
H294 H 0.1548 0.48737 0.93874 0.0
H295 H 0.16467 0.59865 0.95035 0.0
H296 H 0.18886 0.58349 0.9327 0.0
H297 H 0.19424 0.57542 0.9587 0.0
H298 H 0.26199 0.55353 0.8997 0.0
C299 C 0.19836 0.53526 0.90694 0.0
C300 C 1.02172 0.47567 0.48836 0.0
C301 C 0.98721 0.44112 0.47835 0.0
C302 C 0.98805 0.44215 0.45756 0.0
C303 C 1.05383 0.50828 0.45655 0.0
C304 C 1.05514 0.50911 0.47702 0.0
C305 C 0.09575 0.54883 0.48374 0.0
H306 H 0.27797 0.72973 0.45017 0.0
C307 C 0.09127 0.54591 0.44831 0.0
C308 C 0.11722 0.57093 0.46397 0.0
H309 H 0.25012 0.69697 0.51186 0.0
H310 H 0.18396 0.63415 0.50232 0.0
H311 H 0.25241 0.64017 0.43525 0.0
H312 H 0.19059 0.71093 0.4383 0.0
H313 H 0.17317 0.68313 0.41614 0.0
H314 H 0.22798 0.71985 0.41937 0.0
H315 H 0.26524 0.68389 0.41945 0.0
H316 H 0.22579 0.63205 0.41271 0.0
C317 C 0.1232 0.53625 0.49551 0.0
C318 C 0.08451 0.57617 0.49615 0.0
C319 C 0.10065 0.56044 0.37281 0.0
C320 C 0.12888 0.59129 0.3596 0.0
C321 C 0.16346 0.62666 0.36786 0.0
C322 C 0.16989 0.63096 0.38848 0.0
C323 C 0.14131 0.59988 0.40142 0.0
C324 C 0.10731 0.5656 0.39343 0.0
C325 C 1.07943 0.53626 0.40925 0.0
C326 C 0.10233 0.5583 0.42816 0.0
C327 C 0.13872 0.59538 0.42351 0.0
C328 C 1.07843 0.49442 0.40655 0.0
C329 C 1.03652 0.53383 0.40742 0.0
C330 C 0.25876 0.7093 0.46196 0.0
C331 C 0.27126 0.71932 0.48186 0.0
C332 C 0.24258 0.69108 0.49627 0.0
C333 C 0.2041 0.65433 0.49078 0.0
C334 C 0.19303 0.64494 0.47055 0.0
C335 C 0.22092 0.67317 0.45681 0.0
C336 C 0.20631 0.66108 0.436 0.0
C337 C 0.16557 0.62079 0.4389 0.0
C338 C 0.15611 0.60976 0.45925 0.0
C339 C 0.23904 0.65415 0.4251 0.0
C340 C 0.19935 0.69545 0.4268 0.0
H341 H 1.01738 0.4719 0.43113 0.0
H342 H 1.02292 0.4763 0.50438 0.0
H343 H 1.06374 0.58403 0.48759 0.0
H344 H 0.11279 0.60558 0.5003 0.0
H345 H 1.06811 0.55976 0.50996 0.0
H346 H 0.13007 0.51557 0.48651 0.0
H347 H 0.1072 0.51941 0.50932 0.0
H348 H 0.15324 0.56379 0.49965 0.0
H349 H 1.07391 0.53246 0.36735 0.0
H350 H 0.18552 0.65162 0.35843 0.0
H351 H 0.19701 0.65861 0.39351 0.0
H352 H 0.10801 0.49924 0.40001 0.0
H353 H 1.05269 0.47333 0.39655 0.0
H354 H 1.07568 0.47825 0.42076 0.0
H355 H 1.03991 0.56323 0.40139 0.0
H356 H 1.02101 0.52983 0.42188 0.0
H357 H 1.01528 0.50845 0.39735 0.0
H358 H 0.96308 0.4171 0.44928 0.0
C359 C 1.02025 0.47467 0.44688 0.0
C360 C 0.60376 0.95225 0.82171 0.0
C361 C 0.60603 0.91958 0.81121 0.0
C362 C 0.60919 0.92356 0.79046 0.0
C363 C 0.60914 0.98909 0.79051 0.0
C364 C 0.6056 0.98717 0.81092 0.0
C365 C 0.60487 1.02647 0.81817 0.0
H366 H 0.61367 0.21271 0.78588 0.0
C367 C 0.61045 1.02747 0.78279 0.0
C368 C 0.60808 1.05089 0.79877 0.0
H369 H 0.60311 0.17727 0.8475 0.0
H370 H 0.60366 0.11329 0.83785 0.0
H371 H 0.67778 0.19186 0.77358 0.0
H372 H 0.54449 0.12463 0.772 0.0
H373 H 0.55932 0.1115 0.74988 0.0
H374 H 0.5753 0.1651 0.7546 0.0
H375 H 0.64858 0.20197 0.7554 0.0
H376 H 0.66545 0.16502 0.75112 0.0
C377 C 0.64245 1.05213 0.83174 0.0
C378 C 0.56371 1.01332 0.82896 0.0
C379 C 0.61955 1.04843 0.70733 0.0
C380 C 0.61803 0.07816 0.69487 0.0
C381 C 0.61564 0.11102 0.70369 0.0
C382 C 0.61442 0.11419 0.72433 0.0
C383 C 0.61521 0.084 0.73669 0.0
C384 C 0.61762 1.0518 0.72811 0.0
C385 C 0.61641 1.0218 0.74352 0.0
C386 C 0.6131 1.04139 0.7628 0.0
C387 C 0.61292 0.07801 0.75867 0.0
C388 C 0.65828 1.02208 0.74224 0.0
C389 C 0.57677 0.97906 0.7396 0.0
C390 C 0.61045 0.19174 0.79776 0.0
C391 C 0.60754 0.2017 0.81759 0.0
C392 C 0.6054 0.17197 0.83193 0.0
C393 C 0.60557 0.13449 0.82638 0.0
C394 C 0.60786 0.12552 0.80615 0.0
C395 C 0.61002 0.15479 0.79258 0.0
C396 C 0.61128 0.14274 0.77173 0.0
C397 C 0.61105 0.10231 0.77434 0.0
C398 C 0.60873 0.09021 0.79457 0.0
C399 C 0.65262 0.17708 0.76229 0.0
C400 C 0.57083 0.13588 0.76134 0.0
H401 H 0.61385 0.95683 0.76465 0.0
H402 H 0.60152 0.95109 0.83771 0.0
H403 H 0.5368 0.99416 0.81909 0.0
H404 H 0.56185 1.04083 0.83354 0.0
H405 H 0.5609 0.99471 0.84242 0.0
H406 H 0.67196 0.06074 0.82386 0.0
H407 H 0.64072 1.0341 0.84525 0.0
H408 H 0.64356 0.0811 0.8364 0.0
H409 H 0.62096 1.02251 0.70107 0.0
H410 H 0.61487 0.13461 0.69453 0.0
H411 H 0.6128 0.14025 0.72976 0.0
H412 H 0.68431 1.05337 0.73804 0.0
H413 H 0.65679 0.99985 0.73095 0.0
H414 H 0.6681 1.01525 0.7566 0.0
H415 H 0.55227 0.98254 0.73175 0.0
H416 H 0.56139 0.96227 0.75342 0.0
H417 H 0.58395 0.95901 0.7303 0.0
H418 H 0.6105 0.90003 0.78168 0.0
C419 C 0.61093 0.95722 0.78036 0.0
C420 C 0.71764 0.5852 0.15599 0.0
C421 C 0.75051 0.5826 0.14573 0.0
C422 C 0.74853 0.58191 0.12494 0.0
C423 C 0.68358 0.58358 0.12447 0.0
C424 C 0.68407 0.58552 0.14491 0.0
C425 C 0.64509 0.58747 0.15186 0.0
H426 H 0.45969 0.58078 0.11914 0.0
C427 C 0.6454 0.58256 0.11652 0.0
C428 C 0.62137 0.58466 0.1323 0.0
H429 H 0.49888 0.59778 0.18022 0.0
H430 H 0.56196 0.59499 0.17063 0.0
H431 H 0.54345 0.64256 0.10181 0.0
H432 H 0.48106 0.51066 0.10997 0.0
H433 H 0.50494 0.51998 0.08668 0.0
H434 H 0.46645 0.53502 0.09109 0.0
H435 H 0.50161 0.60742 0.08609 0.0
H436 H 0.55517 0.62386 0.08054 0.0
C437 C 0.65935 0.62902 0.16225 0.0
C438 C 0.61826 0.55061 0.16564 0.0
C439 C 0.62654 0.57247 0.04135 0.0
C440 C 0.59449 0.56809 0.02862 0.0
C441 C 0.55844 0.56518 0.03699 0.0
C442 C 0.55481 0.5676 0.05761 0.0
C443 C 0.58739 0.57253 0.07023 0.0
C444 C 0.62206 0.57413 0.06197 0.0
C445 C 0.6526 0.57728 0.07749 0.0
C446 C 0.63143 0.57889 0.09653 0.0
C447 C 0.59343 0.57639 0.09219 0.0
C448 C 0.69417 0.61842 0.07375 0.0
C449 C 0.65538 0.5371 0.07631 0.0
C450 C 0.4808 0.58327 0.13086 0.0
C451 C 0.47245 0.58882 0.15059 0.0
C452 C 0.50332 0.59341 0.16478 0.0
C453 C 0.54002 0.59167 0.15926 0.0
C454 C 0.54707 0.58571 0.13922 0.0
C455 C 0.51698 0.5819 0.12568 0.0
C456 C 0.52753 0.57698 0.10497 0.0
C457 C 0.56889 0.57879 0.10766 0.0
C458 C 0.5818 0.58339 0.12784 0.0
C459 C 0.53196 0.61429 0.09255 0.0
C460 C 0.49325 0.53365 0.0976 0.0
H461 H 0.71822 0.58169 0.09878 0.0
H462 H 0.71764 0.58607 0.17202 0.0
H463 H 0.60904 0.52085 0.15806 0.0
H464 H 0.58948 0.55049 0.17004 0.0
H465 H 0.6358 0.55215 0.1793 0.0
H466 H 0.67951 0.65535 0.15223 0.0
H467 H 0.67743 0.6315 0.17585 0.0
H468 H 0.63239 0.63226 0.16651 0.0
H469 H 0.65441 0.57418 0.03541 0.0
H470 H 0.53337 0.56195 0.02752 0.0
H471 H 0.52678 0.56588 0.06285 0.0
H472 H 0.68852 0.64257 0.06713 0.0
H473 H 0.71459 0.61373 0.0634 0.0
H474 H 0.71157 0.63269 0.08755 0.0
H475 H 0.62608 0.51055 0.07045 0.0
H476 H 0.65929 0.52613 0.09101 0.0
H477 H 0.68109 0.54143 0.06641 0.0
H478 H 0.77255 0.58067 0.11641 0.0
C479 C 0.71623 0.58246 0.11453 0.0
H480 H 0.20795 0.52961 0.16025 0.0
H481 H 0.27556 0.65751 0.17825 0.0
H482 H 0.27283 0.52964 0.15628 0.0
H483 H 0.34165 0.65772 0.17419 0.0
H484 H 0.4559 0.63398 0.17928 0.0
H485 H 0.39172 0.63669 0.18466 0.0
H486 H 0.33177 0.54867 0.13757 0.0
H487 H 0.3943 0.54491 0.13277 0.0
C488 C 0.23666 0.55805 0.16346 0.0
C489 C 0.23523 0.59344 0.16977 0.0
C490 C 0.27467 0.55819 0.16097 0.0
C491 C 0.31401 0.59368 0.16476 0.0
C492 C 0.31278 0.62931 0.17119 0.0
C493 C 0.27442 0.6293 0.17347 0.0
C494 C 0.42897 0.61476 0.17018 0.0
C495 C 0.43179 0.58941 0.1554 0.0
C496 C 0.39176 0.61668 0.17313 0.0
C497 C 0.35513 0.59292 0.16166 0.0
C498 C 0.35808 0.56733 0.14712 0.0
C499 C 0.39498 0.56557 0.14413 0.0
H500 H 0.72126 0.2434 0.49838 0.0
H501 H 0.78956 0.17943 0.50686 0.0
H502 H 0.78726 0.30921 0.49425 0.0
H503 H 0.85492 0.24441 0.503 0.0
H504 H 0.96962 0.3602 0.47716 0.0
H505 H 0.90434 0.29626 0.48359 0.0
H506 H 0.85051 0.36746 0.50512 0.0
H507 H 0.91648 0.43188 0.49814 0.0
C508 C 0.75016 0.24303 0.49948 0.0
C509 C 0.74884 0.20487 0.50312 0.0
C510 C 0.78868 0.28139 0.49718 0.0
C511 C 0.82813 0.28376 0.49815 0.0
C512 C 0.8264 0.24538 0.50177 0.0
C513 C 0.78813 0.20735 0.50422 0.0
C514 C 0.94446 0.36247 0.48393 0.0
C515 C 0.95001 0.40223 0.48774 0.0
C516 C 0.90615 0.32515 0.48758 0.0
C517 C 0.87043 0.32499 0.49509 0.0
C518 C 0.87617 0.36491 0.49924 0.0
C519 C 0.91482 0.40245 0.49561 0.0
H520 H 0.66726 0.71873 0.83049 0.0
H521 H 0.53521 0.65486 0.84138 0.0
H522 H 0.66827 0.78359 0.82685 0.0
H523 H 0.53565 0.72078 0.83702 0.0
H524 H 0.55008 0.85413 0.83685 0.0
H525 H 0.54756 0.78793 0.84417 0.0
H526 H 0.65975 0.82977 0.80997 0.0
H527 H 0.66305 0.89514 0.80385 0.0
C528 C 0.63798 0.71815 0.83205 0.0
C529 C 0.60122 0.68021 0.83634 0.0
C530 C 0.63842 0.75624 0.82969 0.0
C531 C 0.60199 0.75934 0.83127 0.0
C532 C 0.56489 0.72125 0.83571 0.0
C533 C 0.5645 0.68274 0.83815 0.0
C534 C 0.57502 0.84976 0.83148 0.0
C535 C 0.6073 0.88157 0.81996 0.0
C536 C 0.57321 0.81091 0.83537 0.0
C537 C 0.60347 0.80165 0.82788 0.0
C538 C 0.63592 0.83413 0.81672 0.0
C539 C 0.63786 0.87257 0.81304 0.0
H540 H 1.00983 0.64336 0.17988 0.0
H541 H 0.95133 0.51676 0.16041 0.0
H542 H 0.94467 0.64304 0.17543 0.0
H543 H 0.88559 0.51523 0.15666 0.0
H544 H 0.76926 0.52101 0.14014 0.0
H545 H 0.83292 0.52037 0.14646 0.0
H546 H 0.88237 0.63705 0.17723 0.0
H547 H 0.81812 0.63778 0.1699 0.0
C548 C 0.98293 0.615 0.17483 0.0
C549 C 0.98707 0.58004 0.17068 0.0
C550 C 0.94455 0.61465 0.17227 0.0
C551 C 0.90744 0.5791 0.16557 0.0
C552 C 0.91191 0.54401 0.16157 0.0
C553 C 0.95044 0.5446 0.16391 0.0
C554 C 0.79327 0.54624 0.14871 0.0
C555 C 0.78692 0.57892 0.15478 0.0
C556 C 0.83092 0.54609 0.15238 0.0
C557 C 0.86528 0.57872 0.16251 0.0
C558 C 0.85831 0.61102 0.16919 0.0
C559 C 0.82039 0.61122 0.16533 0.0
H560 H 0.53962 0.92676 0.4851 0.0
H561 H 0.47412 0.97338 0.5188 0.0
H562 H 0.47473 0.86059 0.48087 0.0
H563 H 0.4089 0.90808 0.51409 0.0
H564 H 0.29567 0.774 0.51447 0.0
H565 H 0.36191 0.83802 0.52053 0.0
H566 H 0.41064 0.82047 0.4659 0.0
H567 H 0.34569 0.75635 0.46033 0.0
C568 C 0.51159 0.92287 0.49196 0.0
C569 C 0.51337 0.95605 0.50278 0.0
C570 C 0.47354 0.88463 0.48921 0.0
C571 C 0.43494 0.87737 0.49709 0.0
C572 C 0.437 0.91082 0.50791 0.0
C573 C 0.47498 0.94902 0.51056 0.0
C574 C 0.32051 0.78332 0.50379 0.0
C575 C 0.31368 0.75877 0.48671 0.0
C576 C 0.35902 0.82093 0.50717 0.0
C577 C 0.39317 0.83607 0.49377 0.0
C578 C 0.38642 0.811 0.47692 0.0
C579 C 0.34807 0.77369 0.47353 0.0
H580 H 0.57526 0.42658 0.81115 0.0
H581 H 0.6495 0.44959 0.86356 0.0
H582 H 0.5729 0.36088 0.8065 0.0
H583 H 0.64847 0.38391 0.85894 0.0
H584 H 0.62822 0.25056 0.85271 0.0
H585 H 0.62929 0.31581 0.85853 0.0
H586 H 0.5883 0.31363 0.79839 0.0
H587 H 0.58393 0.24824 0.79332 0.0
C588 C 0.59152 0.41778 0.82172 0.0
C589 C 0.61266 0.44445 0.83773 0.0
C590 C 0.59051 0.37937 0.81901 0.0
C591 C 0.6106 0.36485 0.83218 0.0
C592 C 0.63195 0.39203 0.84825 0.0
C593 C 0.63295 0.43061 0.85092 0.0
C594 C 0.61891 0.26355 0.84071 0.0
C595 C 0.60686 0.24254 0.82227 0.0
C596 C 0.62 0.30214 0.84399 0.0
C597 C 0.60923 0.32242 0.82905 0.0
C598 C 0.59672 0.30087 0.81079 0.0
C599 C 0.59508 0.2624 0.80763 0.0
H600 H 0.53833 0.82698 0.50502 0.0
H601 H 0.624 0.85859 0.45598 0.0
H602 H 0.53317 0.76071 0.5077 0.0
H603 H 0.62159 0.79275 0.46045 0.0
H604 H 0.60586 0.6794 0.51796 0.0
H605 H 0.56906 0.69704 0.49286 0.0
H606 H 0.64465 0.82629 0.50839 0.0
H607 H 0.68077 0.80856 0.53375 0.0
C608 C 0.55515 0.81991 0.49421 0.0
C609 C 0.58709 0.85073 0.48234 0.0
C610 C 0.55131 0.78091 0.49558 0.0
C611 C 0.58036 0.77413 0.4857 0.0
C612 C 0.60087 0.79887 0.46917 0.0
C613 C 0.60326 0.83723 0.46712 0.0
C614 C 0.61445 0.71158 0.51587 0.0
C615 C 0.64556 0.74286 0.52773 0.0
C616 C 0.5938 0.72146 0.50148 0.0
C617 C 0.60473 0.76276 0.49864 0.0
C618 C 0.63642 0.79415 0.51027 0.0
C619 C 0.6566 0.7842 0.52485 0.0
H620 H 0.85007 0.58893 0.78147 0.0
H621 H 0.74483 0.47107 0.79842 0.0
H622 H 0.89699 0.56473 0.79175 0.0
H623 H 0.79161 0.44709 0.80919 0.0
H624 H 0.89669 0.43097 0.8373 0.0
H625 H 0.85574 0.43768 0.81045 0.0
H626 H 0.89326 0.56154 0.8303 0.0
H627 H 0.93429 0.55485 0.8569 0.0
C628 C 0.83683 0.55676 0.78595 0.0
C629 C 0.79433 0.53252 0.79036 0.0
C630 C 0.86374 0.54312 0.79213 0.0
C631 C 0.84767 0.50514 0.8023 0.0
C632 C 0.8047 0.47694 0.8018 0.0
C633 C 0.77784 0.49053 0.79543 0.0
C634 C 0.89522 0.45918 0.83608 0.0
C635 C 0.91798 0.49228 0.84917 0.0
C636 C 0.87256 0.46323 0.82059 0.0
C637 C 0.87283 0.5006 0.81792 0.0
C638 C 0.89394 0.53291 0.83164 0.0
C639 C 0.91634 0.52876 0.84718 0.0
H640 H 0.36326 0.75986 0.16217 0.0
H641 H 0.31078 0.81209 0.12207 0.0
H642 H 0.42994 0.82392 0.16054 0.0
H643 H 0.37735 0.87599 0.12056 0.0
H644 H 0.40201 0.9446 0.18619 0.0
H645 H 0.36966 0.8859 0.16343 0.0
H646 H 0.49107 0.9085 0.14587 0.0
H647 H 0.52354 0.96819 0.16847 0.0
C648 C 0.36688 0.78383 0.15183 0.0
C649 C 0.33179 0.78255 0.14325 0.0
C650 C 0.40518 0.82043 0.15075 0.0
C651 C 0.40745 0.85517 0.14137 0.0
C652 C 0.37561 0.8496 0.1283 0.0
C653 C 0.33733 0.81298 0.12929 0.0
C654 C 0.42157 0.93692 0.17743 0.0
C655 C 0.46484 0.95996 0.17907 0.0
C656 C 0.40337 0.90415 0.16418 0.0
C657 C 0.42828 0.89392 0.15254 0.0
C658 C 0.47162 0.91673 0.15435 0.0
C659 C 0.48989 0.9501 0.16739 0.0
H660 H 0.60414 0.30289 0.45472 0.0
H661 H 0.71312 0.30055 0.47526 0.0
H662 H 0.63742 0.37583 0.46193 0.0
H663 H 0.74733 0.37451 0.4824 0.0
H664 H 0.72687 0.44578 0.53448 0.0
H665 H 0.72308 0.39353 0.51173 0.0
H666 H 0.68583 0.44683 0.46437 0.0
H667 H 0.6858 0.49617 0.48739 0.0
C668 C 0.63633 0.31869 0.45956 0.0
C669 C 0.65558 0.29631 0.46528 0.0
C670 C 0.65559 0.3607 0.4638 0.0
C671 C 0.69424 0.38032 0.47365 0.0
C672 C 0.71686 0.3596 0.47549 0.0
C673 C 0.6975 0.3175 0.47125 0.0
C674 C 0.71767 0.44605 0.51924 0.0
C675 C 0.70664 0.47496 0.51275 0.0
C676 C 0.71658 0.41692 0.50605 0.0
C677 C 0.70473 0.41653 0.48613 0.0
C678 C 0.69517 0.44643 0.47956 0.0
C679 C 0.6953 0.47476 0.4928 0.0
H680 H 0.44178 0.63765 0.81822 0.0
H681 H 0.36881 0.51993 0.78916 0.0
H682 H 0.37998 0.6431 0.82214 0.0
H683 H 0.30688 0.52534 0.79308 0.0
H684 H 0.26233 0.49875 0.86157 0.0
H685 H 0.30727 0.51469 0.83265 0.0
H686 H 0.3015 0.62608 0.82183 0.0
H687 H 0.25631 0.60977 0.85097 0.0
C688 C 0.41319 0.61467 0.81116 0.0
C689 C 0.40887 0.57701 0.80474 0.0
C690 C 0.37761 0.61775 0.81339 0.0
C691 C 0.33861 0.58296 0.80929 0.0
C692 C 0.33674 0.55171 0.7971 0.0
C693 C 0.37232 0.54862 0.79485 0.0
C694 C 0.27137 0.5269 0.85316 0.0
C695 C 0.2575 0.55388 0.85867 0.0
C696 C 0.29582 0.53542 0.83629 0.0
C697 C 0.30654 0.57098 0.82465 0.0
C698 C 0.29283 0.59813 0.83032 0.0
C699 C 0.2681 0.5894 0.84715 0.0
H700 H 0.89273 0.31991 0.12186 0.0
H701 H 0.88341 0.43043 0.12368 0.0
H702 H 0.82411 0.28044 0.13684 0.0
H703 H 0.81581 0.39173 0.13943 0.0
H704 H 0.70448 0.31091 0.17979 0.0
H705 H 0.74561 0.33599 0.14933 0.0
H706 H 0.83112 0.29967 0.1728 0.0
H707 H 0.78942 0.27371 0.20281 0.0
C708 C 0.87475 0.33512 0.12412 0.0
C709 C 0.89377 0.37836 0.12283 0.0
C710 C 0.83578 0.31271 0.13303 0.0
C711 C 0.81633 0.33386 0.14045 0.0
C712 C 0.83072 0.3749 0.13434 0.0
C713 C 0.86936 0.39706 0.12512 0.0
C714 C 0.73277 0.30944 0.17852 0.0
C715 C 0.74424 0.29091 0.19361 0.0
C716 C 0.75569 0.32294 0.16101 0.0
C717 C 0.79041 0.31814 0.1584 0.0
C718 C 0.80338 0.30212 0.17408 0.0
C719 C 0.78045 0.28858 0.19154 0.0
H720 H 0.15665 0.57619 0.1181 0.0
H721 H 1.06122 0.60923 0.11227 0.0
H722 H 0.14731 0.55561 0.08311 0.0
H723 H 1.05097 0.58749 0.07753 0.0
H724 H 1.01788 0.50158 0.02284 0.0
H725 H 1.02691 0.51667 0.05825 0.0
H726 H 0.15864 0.59868 0.04935 0.0
H727 H 0.14971 0.58543 0.01381 0.0
C728 C 0.13347 0.57867 0.10935 0.0
C729 C 0.10974 0.59441 0.11773 0.0
C730 C 0.12822 0.56703 0.0894 0.0
C731 C 0.09838 0.56993 0.07771 0.0
C732 C 1.07401 0.58476 0.08628 0.0
C733 C 1.08001 0.59739 0.10606 0.0
C734 C 1.04876 0.52317 0.02833 0.0
C735 C 0.08296 0.54258 0.01532 0.0
C736 C 1.05388 0.53152 0.04863 0.0
C737 C 0.09341 0.55887 0.05645 0.0
C738 C 0.12788 0.57718 0.04368 0.0
C739 C 0.12269 0.56939 0.02332 0.0
H740 H 0.57126 1.03258 0.45155 0.0
H741 H 0.69549 0.13645 0.44305 0.0
H742 H 0.55578 1.03584 0.41649 0.0
H743 H 0.67963 0.14046 0.40803 0.0
H744 H 0.6141 0.15578 0.35195 0.0
H745 H 0.62797 0.15456 0.38732 0.0
H746 H 0.5855 1.02374 0.38383 0.0
H747 H 0.57283 1.025 0.34837 0.0
C748 C 0.59505 0.05636 0.44219 0.0
C749 C 0.63461 0.08413 0.44986 0.0
C750 C 0.58627 0.05811 0.42217 0.0
C751 C 0.61657 0.0883 0.40961 0.0
C752 C 0.65573 0.11695 0.41745 0.0
C753 C 0.66485 0.11456 0.43739 0.0
C754 C 0.60807 0.12682 0.35866 0.0
C755 C 0.59241 0.09048 0.34729 0.0
C756 C 0.6159 0.12616 0.37891 0.0
C757 C 0.60773 0.08906 0.38824 0.0
C758 C 0.59156 1.05264 0.377 0.0
C759 C 0.58417 1.05336 0.35673 0.0
H760 H 0.58193 0.48662 0.77992 0.0
H761 H 0.62287 0.61711 0.78384 0.0
H762 H 0.59934 0.49501 0.74464 0.0
H763 H 0.63941 0.62533 0.74829 0.0
H764 H 0.60413 0.59741 0.68005 0.0
H765 H 0.59336 0.59449 0.7158 0.0
H766 H 0.66764 0.53627 0.72345 0.0
H767 H 0.68019 0.54072 0.68779 0.0
C768 C 0.59464 0.51707 0.77318 0.0
C769 C 0.60102 0.55121 0.78449 0.0
C770 C 0.60477 0.5219 0.75307 0.0
C771 C 0.62068 0.56079 0.74381 0.0
C772 C 0.62704 0.59501 0.75512 0.0
C773 C 0.61776 0.59035 0.77539 0.0
C774 C 0.61887 0.58466 0.68932 0.0
C775 C 0.64297 0.56916 0.68094 0.0
C776 C 0.61256 0.58294 0.70979 0.0
C777 C 0.62962 0.56511 0.7223 0.0
C778 C 0.65384 0.54981 0.71405 0.0
C779 C 0.6607 0.55209 0.69361 0.0
H780 H 0.64526 1.04988 0.56571 0.0
H781 H 0.60682 0.14051 0.57297 0.0
H782 H 0.64444 1.04121 0.60196 0.0
H783 H 0.60737 0.13324 0.60863 0.0
H784 H 0.56427 0.08331 0.66915 0.0
H785 H 0.56659 0.08585 0.63318 0.0
H786 H 0.67429 0.07035 0.63415 0.0
H787 H 0.6708 0.06638 0.67054 0.0
C788 C 0.63728 0.06837 0.57502 0.0
C789 C 0.62572 0.09561 0.56642 0.0
C790 C 0.6368 0.06346 0.59582 0.0
C791 C 0.6249 0.0858 0.60841 0.0
C792 C 0.61532 0.11434 0.59961 0.0
C793 C 0.61543 0.11889 0.57903 0.0
C794 C 0.58835 0.08023 0.66171 0.0
C795 C 0.61767 0.07521 0.67276 0.0
C796 C 0.58995 0.08199 0.641 0.0
C797 C 0.62135 0.07945 0.63054 0.0
C798 C 0.64967 0.0725 0.64157 0.0
C799 C 0.64773 0.07025 0.66244 0.0
H800 H 0.55317 0.53812 0.89978 0.0
H801 H 0.68643 0.6104 0.90635 0.0
H802 H 0.54511 0.53465 0.93575 0.0
H803 H 0.67941 0.60384 0.94211 0.0
H804 H 0.65902 0.62392 0.00576 0.0
H805 H 0.66554 0.62581 0.96997 0.0
H806 H 0.54738 0.51094 0.96615 0.0
H807 H 0.53993 0.5115 0.00199 0.0
C808 C 0.58078 0.55258 0.90902 0.0
C809 C 0.62036 0.57488 0.90033 0.0
C810 C 0.57634 0.55038 0.92975 0.0
C811 C 0.61155 0.56932 0.94236 0.0
C812 C 0.65122 0.59008 0.93334 0.0
C813 C 0.65546 0.59349 0.91269 0.0
C814 C 0.63453 0.5991 0.9972 0.0
C815 C 0.599 0.56762 0.00669 0.0
C816 C 0.63832 0.59982 0.97652 0.0
C817 C 0.60718 0.56834 0.96464 0.0
C818 C 0.57183 0.53638 0.97437 0.0
C819 C 0.56759 0.53637 0.99505 0.0
H820 H 1.04945 0.49641 0.23961 0.0
H821 H 0.13849 0.62587 0.22973 0.0
H822 H 1.05804 0.507 0.27541 0.0
H823 H 0.14761 0.63648 0.26571 0.0
H824 H 0.18808 0.62049 0.32973 0.0
H825 H 0.17735 0.61385 0.29401 0.0
H826 H 1.04443 0.54385 0.30291 0.0
H827 H 1.0547 0.55197 0.33864 0.0
C828 C 1.0707 0.52725 0.2451 0.0
C829 C 0.09324 0.56029 0.23179 0.0
C830 C 1.07553 0.53335 0.26566 0.0
C831 C 0.10361 0.57257 0.27352 0.0
C832 C 0.12597 0.60579 0.26019 0.0
C833 C 0.12056 0.5998 0.23957 0.0
C834 C 0.15642 0.60433 0.32423 0.0
C835 C 0.12234 0.58687 0.33745 0.0
C836 C 0.15033 0.60041 0.30361 0.0
C837 C 0.11003 0.57831 0.2955 0.0
C838 C 1.07595 0.56072 0.30861 0.0
C839 C 1.08196 0.56519 0.32922 0.0
loop_
_geom_bond_atom_site_label_1
_geom_bond_atom_site_label_2
_geom_bond_distance
_geom_bond_site_symmetry_2
_ccdc_geom_bond_type
C0 Eu1 2.853 . S
C0 C2 1.500 . S
C0 O20 1.257 . S
C0 O21 1.260 . S
Eu1 C0 2.853 . S
Eu1 O20 2.490 . S
Eu1 O21 2.494 . S
Eu1 O22 2.431 1_655 S
Eu1 O23 2.668 1_655 S
Eu1 O24 2.418 . S
Eu1 O29 2.360 1_655 S
Eu1 O31 2.350 1_655 S
C2 C0 1.500 . S
C2 C3 1.377 . S
C2 C7 1.377 . S
C3 C2 1.377 . S
C3 C4 1.395 . S
C3 H32 0.931 . S
C4 C3 1.395 . S
C4 C5 1.383 . S
C4 H33 0.931 . S
C5 C4 1.383 . S
C5 C6 1.394 . S
C6 C5 1.394 . S
C6 C7 1.378 . S
C6 H34 0.931 . S
C7 C2 1.377 . S
C7 C6 1.378 . S
C7 H35 0.931 . S
C8 O22 1.259 . S
C8 O23 1.270 . S
C9 O24 1.251 . S
C9 O25 1.251 . S
C10 Eu11 2.835 . S
C10 C12 1.500 . S
C10 O26 1.257 . S
C10 O27 1.260 . S
Eu11 C10 2.835 . S
Eu11 O23 2.355 . S
Eu11 O25 2.374 1_455 S
Eu11 O26 2.473 . S
Eu11 O27 2.480 . S
Eu11 O28 2.430 . S
Eu11 O29 2.670 . S
Eu11 O30 2.394 . S
C12 C10 1.500 . S
C12 C13 1.377 . S
C12 C17 1.377 . S
C13 C12 1.377 . S
C13 C14 1.395 . S
C13 H36 0.931 . S
C14 C13 1.395 . S
C14 C15 1.383 . S
C14 H37 0.931 . S
C15 C14 1.383 . S
C15 C16 1.394 . S
C16 C15 1.394 . S
C16 C17 1.378 . S
C16 H38 0.931 . S
C17 C12 1.377 . S
C17 C16 1.378 . S
C17 H39 0.931 . S
C18 O28 1.259 . S
C18 O29 1.270 . S
C19 O30 1.251 . S
C19 O31 1.251 . S
O20 C0 1.257 . S
O20 Eu1 2.490 . S
O21 C0 1.260 . S
O21 Eu1 2.494 . S
O22 Eu1 2.431 1_455 S
O22 C8 1.259 . S
O23 Eu1 2.668 1_455 S
O23 C8 1.270 . S
O23 Eu11 2.355 . S
O24 Eu1 2.418 . S
O24 C9 1.251 . S
O25 C9 1.251 . S
O25 Eu11 2.374 1_655 S
O26 C10 1.257 . S
O26 Eu11 2.473 . S
O27 C10 1.260 . S
O27 Eu11 2.480 . S
O28 Eu11 2.430 . S
O28 C18 1.259 . S
O29 Eu1 2.360 1_455 S
O29 Eu11 2.670 . S
O29 C18 1.270 . S
O30 Eu11 2.394 . S
O30 C19 1.251 . S
O31 Eu1 2.350 1_455 S
O31 C19 1.251 . S
H32 C3 0.931 . S
H33 C4 0.931 . S
H34 C6 0.931 . S
H35 C7 0.931 . S
H36 C13 0.931 . S
H37 C14 0.931 . S
H38 C16 0.931 . S
H39 C17 0.931 . S
C40 Eu41 2.835 . S
C40 C42 1.500 . S
C40 O60 1.257 . S
C40 O61 1.260 . S
Eu41 C40 2.835 . S
Eu41 O60 2.473 . S
Eu41 O61 2.480 . S
Eu41 O62 2.430 . S
Eu41 O63 2.670 . S
Eu41 O64 2.394 . S
Eu41 O69 2.355 . S
Eu41 O71 2.374 1_545 S
C42 C40 1.500 . S
C42 C43 1.377 . S
C42 C47 1.377 . S
C43 C42 1.377 . S
C43 C44 1.395 . S
C43 H72 0.931 . S
C44 C43 1.395 . S
C44 C45 1.383 . S
C44 H73 0.931 . S
C45 C44 1.383 . S
C45 C46 1.394 . S
C46 C45 1.394 . S
C46 C47 1.378 . S
C46 H74 0.931 . S
C47 C42 1.377 . S
C47 C46 1.378 . S
C47 H75 0.931 . S
C48 O62 1.259 . S
C48 O63 1.270 . S
C49 O64 1.251 . S
C49 O65 1.251 . S
C50 Eu51 2.835 1_565 S
C50 C52 1.500 . S
C50 O66 1.257 . S
C50 O67 1.260 . S
Eu51 C50 2.835 1_545 S
Eu51 O63 2.355 . S
Eu51 O65 2.374 . S
Eu51 O66 2.473 1_545 S
Eu51 O67 2.480 1_545 S
Eu51 O68 2.430 . S
Eu51 O69 2.670 . S
Eu51 O70 2.394 1_545 S
C52 C50 1.500 . S
C52 C53 1.377 . S
C52 C57 1.377 . S
C53 C52 1.377 . S
C53 C54 1.395 . S
C53 H76 0.931 . S
C54 C53 1.395 . S
C54 C55 1.383 . S
C54 H77 0.931 . S
C55 C54 1.383 . S
C55 C56 1.394 . S
C56 C55 1.394 . S
C56 C57 1.378 . S
C56 H78 0.931 . S
C57 C52 1.377 . S
C57 C56 1.378 . S
C57 H79 0.931 . S
C58 O68 1.259 . S
C58 O69 1.270 . S
C59 O70 1.251 . S
C59 O71 1.251 . S
O60 C40 1.257 . S
O60 Eu41 2.473 . S
O61 C40 1.260 . S
O61 Eu41 2.480 . S
O62 Eu41 2.430 . S
O62 C48 1.259 . S
O63 Eu41 2.670 . S
O63 C48 1.270 . S
O63 Eu51 2.355 . S
O64 Eu41 2.394 . S
O64 C49 1.251 . S
O65 C49 1.251 . S
O65 Eu51 2.374 . S
O66 C50 1.257 . S
O66 Eu51 2.473 1_565 S
O67 C50 1.260 . S
O67 Eu51 2.480 1_565 S
O68 Eu51 2.430 . S
O68 C58 1.259 . S
O69 Eu41 2.355 . S
O69 Eu51 2.670 . S
O69 C58 1.270 . S
O70 Eu51 2.394 1_565 S
O70 C59 1.251 . S
O71 Eu41 2.374 1_565 S
O71 C59 1.251 . S
H72 C43 0.931 . S
H73 C44 0.931 . S
H74 C46 0.931 . S
H75 C47 0.931 . S
H76 C53 0.931 . S
H77 C54 0.931 . S
H78 C56 0.931 . S
H79 C57 0.931 . S
C80 Eu81 2.835 . S
C80 C82 1.500 . S
C80 O100 1.257 . S
C80 O101 1.260 . S
Eu81 C80 2.835 . S
Eu81 O100 2.473 . S
Eu81 O101 2.480 . S
Eu81 O102 2.430 . S
Eu81 O103 2.670 . S
Eu81 O104 2.394 . S
Eu81 O109 2.355 . S
Eu81 O111 2.374 . S
C82 C80 1.500 . S
C82 C83 1.377 . S
C82 C87 1.377 . S
C83 C82 1.377 . S
C83 C84 1.395 . S
C83 H112 0.931 . S
C84 C83 1.395 . S
C84 C85 1.383 . S
C84 H113 0.931 . S
C85 C84 1.383 . S
C85 C86 1.394 . S
C86 C85 1.394 . S
C86 C87 1.378 . S
C86 H114 0.931 . S
C87 C82 1.377 . S
C87 C86 1.378 . S
C87 H115 0.931 . S
C88 O102 1.259 . S
C88 O103 1.270 . S
C89 O104 1.251 . S
C89 O105 1.251 . S
C90 Eu91 2.835 . S
C90 C92 1.500 . S
C90 O106 1.257 . S
C90 O107 1.260 . S
Eu91 C90 2.835 . S
Eu91 O103 2.355 . S
Eu91 O105 2.374 . S
Eu91 O106 2.473 . S
Eu91 O107 2.480 . S
Eu91 O108 2.430 . S
Eu91 O109 2.670 . S
Eu91 O110 2.394 . S
C92 C90 1.500 . S
C92 C93 1.377 . S
C92 C97 1.377 . S
C93 C92 1.377 . S
C93 C94 1.395 . S
C93 H116 0.931 . S
C94 C93 1.395 . S
C94 C95 1.383 . S
C94 H117 0.931 . S
C95 C94 1.383 . S
C95 C96 1.394 . S
C96 C95 1.394 . S
C96 C97 1.378 . S
C96 H118 0.931 . S
C97 C92 1.377 . S
C97 C96 1.378 . S
C97 H119 0.931 . S
C98 O108 1.259 . S
C98 O109 1.270 . S
C99 O110 1.251 . S
C99 O111 1.251 . S
O100 C80 1.257 . S
O100 Eu81 2.473 . S
O101 C80 1.260 . S
O101 Eu81 2.480 . S
O102 Eu81 2.430 . S
O102 C88 1.259 . S
O103 Eu81 2.670 . S
O103 C88 1.270 . S
O103 Eu91 2.355 . S
O104 Eu81 2.394 . S
O104 C89 1.251 . S
O105 C89 1.251 . S
O105 Eu91 2.374 . S
O106 C90 1.257 . S
O106 Eu91 2.473 . S
O107 C90 1.260 . S
O107 Eu91 2.480 . S
O108 Eu91 2.430 . S
O108 C98 1.259 . S
O109 Eu81 2.355 . S
O109 Eu91 2.670 . S
O109 C98 1.270 . S
O110 Eu91 2.394 . S
O110 C99 1.251 . S
O111 Eu81 2.374 . S
O111 C99 1.251 . S
H112 C83 0.931 . S
H113 C84 0.931 . S
H114 C86 0.931 . S
H115 C87 0.931 . S
H116 C93 0.931 . S
H117 C94 0.931 . S
H118 C96 0.931 . S
H119 C97 0.931 . S
C120 C121 1.391 . S
C120 C124 1.391 . S
C120 H162 0.948 . S
C121 C120 1.391 . S
C121 C122 1.391 . S
C122 C121 1.391 . S
C122 H178 0.947 . S
C122 C179 1.392 . S
C123 C124 1.391 . S
C123 C127 1.397 . S
C123 C179 1.419 . S
C124 C120 1.391 . S
C124 C123 1.391 . S
C124 C125 1.399 . S
C125 C124 1.399 . S
C125 C128 1.396 . S
C125 C137 1.453 . S
C125 C138 1.684 . S
H126 C150 0.948 . S
C127 C123 1.397 . S
C127 C128 1.394 . S
C127 C146 1.723 . S
C128 C125 1.396 . S
C128 C127 1.394 . S
C128 C158 1.723 . S
H129 C152 0.947 . S
H130 C153 0.933 1_545 S
H131 C159 0.982 . S
H132 C160 0.979 . S
H133 C160 0.980 . S
H134 C160 0.983 . S
H135 C159 0.979 . S
H136 C159 0.977 . S
C137 C125 1.453 . S
C137 H166 0.982 . S
C137 H167 0.979 . S
C137 H168 0.977 . S
C138 C125 1.684 . S
C138 H163 0.979 . S
C138 H164 0.980 . S
C138 H165 0.983 . S
C139 C140 1.391 . S
C139 C144 1.391 . S
C139 H169 0.948 . S
C140 C139 1.391 . S
C140 C141 1.391 . S
C141 C140 1.391 . S
C141 C142 1.392 . S
C141 H170 0.947 1_545 S
C142 C141 1.392 . S
C142 C143 1.419 . S
C142 H171 0.948 1_545 S
C143 C142 1.419 . S
C143 C144 1.391 . S
C143 C147 1.397 . S
C144 C139 1.391 . S
C144 C143 1.391 . S
C144 C145 1.399 . S
C145 C144 1.399 . S
C145 C146 1.396 . S
C145 C148 1.453 . S
C145 C149 1.684 . S
C146 C127 1.723 . S
C146 C145 1.396 . S
C146 C147 1.394 . S
C147 C143 1.397 . S
C147 C146 1.394 . S
C147 C157 1.723 . S
C148 C145 1.453 . S
C148 H172 0.982 . S
C148 H173 0.979 . S
C148 H174 0.977 . S
C149 C145 1.684 . S
C149 H175 0.979 . S
C149 H176 0.980 . S
C149 H177 0.983 . S
C150 H126 0.948 . S
C150 C151 1.391 . S
C150 C155 1.391 . S
C151 C150 1.391 . S
C151 C152 1.391 . S
C152 H129 0.947 . S
C152 C151 1.391 . S
C152 C153 1.405 . S
C153 H130 0.933 1_565 S
C153 C152 1.405 . S
C153 C154 1.420 . S
C154 C153 1.420 . S
C154 C155 1.395 . S
C154 C158 1.393 1_565 S
C155 C150 1.391 . S
C155 C154 1.395 . S
C155 C156 1.399 . S
C156 C155 1.399 . S
C156 C157 1.396 1_565 S
C156 C159 1.453 . S
C156 C160 1.684 . S
C157 C147 1.723 . S
C157 C156 1.396 1_545 S
C157 C158 1.394 . S
C158 C128 1.723 . S
C158 C154 1.393 1_545 S
C158 C157 1.394 . S
C159 H131 0.982 . S
C159 H135 0.979 . S
C159 H136 0.977 . S
C159 C156 1.453 . S
C160 H132 0.979 . S
C160 H133 0.980 . S
C160 H134 0.983 . S
C160 C156 1.684 . S
H161 C179 0.948 . S
H162 C120 0.948 . S
H163 C138 0.979 . S
H164 C138 0.980 . S
H165 C138 0.983 . S
H166 C137 0.982 . S
H167 C137 0.979 . S
H168 C137 0.977 . S
H169 C139 0.948 . S
H170 C141 0.947 1_565 S
H171 C142 0.948 1_565 S
H172 C148 0.982 . S
H173 C148 0.979 . S
H174 C148 0.977 . S
H175 C149 0.979 . S
H176 C149 0.980 . S
H177 C149 0.983 . S
H178 C122 0.947 . S
C179 C122 1.392 . S
C179 C123 1.419 . S
C179 H161 0.948 . S
C180 C181 1.391 . S
C180 C184 1.391 . S
C180 H222 0.948 . S
C181 C180 1.391 . S
C181 C182 1.391 . S
C182 C181 1.391 . S
C182 H238 0.947 . S
C182 C239 1.392 . S
C183 C184 1.391 . S
C183 C187 1.397 . S
C183 C239 1.419 . S
C184 C180 1.391 . S
C184 C183 1.391 . S
C184 C185 1.399 . S
C185 C184 1.399 . S
C185 C188 1.396 . S
C185 C197 1.453 . S
C185 C198 1.684 . S
H186 C210 0.948 . S
C187 C183 1.397 . S
C187 C188 1.394 . S
C187 C206 1.723 . S
C188 C185 1.396 . S
C188 C187 1.394 . S
C188 C218 1.723 . S
H189 C212 0.947 . S
H190 C213 0.948 . S
H191 C219 0.982 . S
H192 C220 0.979 . S
H193 C220 0.980 . S
H194 C220 0.983 . S
H195 C219 0.979 . S
H196 C219 0.977 . S
C197 C185 1.453 . S
C197 H226 0.982 . S
C197 H227 0.979 . S
C197 H228 0.977 . S
C198 C185 1.684 . S
C198 H223 0.979 . S
C198 H224 0.980 . S
C198 H225 0.983 . S
C199 C200 1.391 . S
C199 C204 1.391 . S
C199 H229 0.948 . S
C200 C199 1.391 . S
C200 C201 1.391 . S
C201 C200 1.391 . S
C201 C202 1.392 . S
C201 H230 0.947 . S
C202 C201 1.392 . S
C202 C203 1.419 . S
C202 H231 0.948 . S
C203 C202 1.419 . S
C203 C204 1.391 . S
C203 C207 1.397 . S
C204 C199 1.391 . S
C204 C203 1.391 . S
C204 C205 1.399 . S
C205 C204 1.399 . S
C205 C206 1.396 . S
C205 C208 1.453 . S
C205 C209 1.684 . S
C206 C187 1.723 . S
C206 C205 1.396 . S
C206 C207 1.394 . S
C207 C203 1.397 . S
C207 C206 1.394 . S
C207 C217 1.723 . S
C208 C205 1.453 . S
C208 H232 0.982 . S
C208 H233 0.979 . S
C208 H234 0.977 . S
C209 C205 1.684 . S
C209 H235 0.979 . S
C209 H236 0.980 . S
C209 H237 0.983 . S
C210 H186 0.948 . S
C210 C211 1.391 . S
C210 C215 1.391 . S
C211 C210 1.391 . S
C211 C212 1.391 . S
C212 H189 0.947 . S
C212 C211 1.391 . S
C212 C213 1.392 . S
C213 H190 0.948 . S
C213 C212 1.392 . S
C213 C214 1.419 . S
C214 C213 1.419 . S
C214 C215 1.391 . S
C214 C218 1.397 . S
C215 C210 1.391 . S
C215 C214 1.391 . S
C215 C216 1.399 . S
C216 C215 1.399 . S
C216 C217 1.396 . S
C216 C219 1.453 . S
C216 C220 1.684 . S
C217 C207 1.723 . S
C217 C216 1.396 . S
C217 C218 1.394 . S
C218 C188 1.723 . S
C218 C214 1.397 . S
C218 C217 1.394 . S
C219 H191 0.982 . S
C219 H195 0.979 . S
C219 H196 0.977 . S
C219 C216 1.453 . S
C220 H192 0.979 . S
C220 H193 0.980 . S
C220 H194 0.983 . S
C220 C216 1.684 . S
H221 C239 0.948 . S
H222 C180 0.948 . S
H223 C198 0.979 . S
H224 C198 0.980 . S
H225 C198 0.983 . S
H226 C197 0.982 . S
H227 C197 0.979 . S
H228 C197 0.977 . S
H229 C199 0.948 . S
H230 C201 0.947 . S
H231 C202 0.948 . S
H232 C208 0.982 . S
H233 C208 0.979 . S
H234 C208 0.977 . S
H235 C209 0.979 . S
H236 C209 0.980 . S
H237 C209 0.983 . S
H238 C182 0.947 . S
C239 C182 1.392 . S
C239 C183 1.419 . S
C239 H221 0.948 . S
C240 C241 1.391 . S
C240 C244 1.391 . S
C240 H282 0.948 . S
C241 C240 1.391 . S
C241 C242 1.391 . S
C242 C241 1.391 . S
C242 H298 0.947 . S
C242 C299 1.392 . S
C243 C244 1.391 . S
C243 C247 1.397 . S
C243 C299 1.419 . S
C244 C240 1.391 . S
C244 C243 1.391 . S
C244 C245 1.399 . S
C245 C244 1.399 . S
C245 C248 1.396 . S
C245 C257 1.453 . S
C245 C258 1.684 . S
H246 C270 0.948 . S
C247 C243 1.397 . S
C247 C248 1.394 . S
C247 C266 1.723 . S
C248 C245 1.396 . S
C248 C247 1.394 . S
C248 C278 1.723 1_455 S
H249 C272 0.947 . S
H250 C273 0.948 . S
H251 C279 0.982 . S
H252 C280 0.979 . S
H253 C280 0.980 . S
H254 C280 0.983 . S
H255 C279 0.979 . S
H256 C279 0.977 . S
C257 C245 1.453 . S
C257 H286 0.977 . S
C257 H287 0.979 . S
C257 H288 0.977 1_455 S
C258 C245 1.684 . S
C258 H283 0.979 . S
C258 H284 0.980 . S
C258 H285 0.983 . S
C259 C260 1.391 . S
C259 C264 1.391 . S
C259 H289 0.948 . S
C260 C259 1.391 . S
C260 C261 1.391 1_455 S
C261 C260 1.391 1_655 S
C261 C262 1.392 . S
C261 H290 0.947 . S
C262 C261 1.392 . S
C262 C263 1.419 . S
C262 H291 0.948 . S
C263 C262 1.419 . S
C263 C264 1.391 1_655 S
C263 C267 1.397 . S
C264 C259 1.391 . S
C264 C263 1.391 1_455 S
C264 C265 1.399 . S
C265 C264 1.399 . S
C265 C266 1.396 . S
C265 C268 1.453 . S
C265 C269 1.684 . S
C266 C247 1.723 . S
C266 C265 1.396 . S
C266 C267 1.394 1_455 S
C267 C263 1.397 . S
C267 C266 1.394 1_655 S
C267 C277 1.723 . S
C268 C265 1.453 . S
C268 H292 0.982 . S
C268 H293 0.979 . S
C268 H294 0.977 . S
C269 C265 1.684 . S
C269 H295 0.979 . S
C269 H296 0.980 . S
C269 H297 0.983 . S
C270 H246 0.948 . S
C270 C271 1.391 . S
C270 C275 1.391 . S
C271 C270 1.391 . S
C271 C272 1.391 . S
C272 H249 0.947 . S
C272 C271 1.391 . S
C272 C273 1.392 . S
C273 H250 0.948 . S
C273 C272 1.392 . S
C273 C274 1.419 . S
C274 C273 1.419 . S
C274 C275 1.391 . S
C274 C278 1.397 . S
C275 C270 1.391 . S
C275 C274 1.391 . S
C275 C276 1.399 . S
C276 C275 1.399 . S
C276 C277 1.396 . S
C276 C279 1.453 . S
C276 C280 1.684 . S
C277 C267 1.723 . S
C277 C276 1.396 . S
C277 C278 1.394 . S
C278 C248 1.723 1_655 S
C278 C274 1.397 . S
C278 C277 1.394 . S
C279 H251 0.982 . S
C279 H255 0.979 . S
C279 H256 0.977 . S
C279 C276 1.453 . S
C280 H252 0.979 . S
C280 H253 0.980 . S
C280 H254 0.983 . S
C280 C276 1.684 . S
H281 C299 0.948 . S
H282 C240 0.948 . S
H283 C258 0.979 . S
H284 C258 0.980 . S
H285 C258 0.983 . S
H286 C257 0.977 . S
H287 C257 0.979 . S
H288 C257 0.977 1_655 S
H289 C259 0.948 . S
H290 C261 0.947 . S
H291 C262 0.948 . S
H292 C268 0.982 . S
H293 C268 0.979 . S
H294 C268 0.977 . S
H295 C269 0.979 . S
H296 C269 0.980 . S
H297 C269 0.983 . S
H298 C242 0.947 . S
C299 C242 1.392 . S
C299 C243 1.419 . S
C299 H281 0.948 . S
C300 C301 1.391 . S
C300 C304 1.391 . S
C300 H342 0.948 . S
C301 C300 1.391 . S
C301 C302 1.391 . S
C302 C301 1.391 . S
C302 H358 0.947 . S
C302 C359 1.392 . S
C303 C304 1.391 . S
C303 C307 1.397 1_655 S
C303 C359 1.419 . S
C304 C300 1.391 . S
C304 C303 1.391 . S
C304 C305 1.399 1_655 S
C305 C304 1.399 1_455 S
C305 C308 1.396 . S
C305 C317 1.453 . S
C305 C318 1.684 . S
H306 C330 0.948 . S
C307 C303 1.397 1_455 S
C307 C308 1.394 . S
C307 C326 1.723 . S
C308 C305 1.396 . S
C308 C307 1.394 . S
C308 C338 1.723 . S
H309 C332 0.947 . S
H310 C333 0.948 . S
H311 C339 0.982 . S
H312 C340 0.979 . S
H313 C340 0.980 . S
H314 C340 0.983 . S
H315 C339 0.979 . S
H316 C339 0.977 . S
C317 C305 1.453 . S
C317 H346 0.982 . S
C317 H347 0.979 . S
C317 H348 0.977 . S
C318 C305 1.684 . S
C318 H343 0.979 . S
C318 H344 0.980 . S
C318 H345 0.983 . S
C319 C320 1.391 . S
C319 C324 1.391 . S
C319 H349 0.948 . S
C320 C319 1.391 . S
C320 C321 1.391 . S
C321 C320 1.391 . S
C321 C322 1.392 . S
C321 H350 0.947 . S
C322 C321 1.392 . S
C322 C323 1.419 . S
C322 H351 0.948 . S
C323 C322 1.419 . S
C323 C324 1.391 . S
C323 C327 1.397 . S
C324 C319 1.391 . S
C324 C323 1.391 . S
C324 C325 1.399 . S
C325 C324 1.399 . S
C325 C326 1.396 . S
C325 C328 1.453 1_455 S
C325 C329 1.684 1_455 S
C326 C307 1.723 . S
C326 C325 1.396 . S
C326 C327 1.394 . S
C327 C323 1.397 . S
C327 C326 1.394 . S
C327 C337 1.723 . S
C328 C325 1.453 1_655 S
C328 H352 0.982 1_655 S
C328 H353 0.979 . S
C328 H354 0.977 . S
C329 C325 1.684 1_655 S
C329 H355 0.979 . S
C329 H356 0.980 . S
C329 H357 0.983 . S
C330 H306 0.948 . S
C330 C331 1.391 . S
C330 C335 1.391 . S
C331 C330 1.391 . S
C331 C332 1.391 . S
C332 H309 0.947 . S
C332 C331 1.391 . S
C332 C333 1.392 . S
C333 H310 0.948 . S
C333 C332 1.392 . S
C333 C334 1.419 . S
C334 C333 1.419 . S
C334 C335 1.391 . S
C334 C338 1.397 . S
C335 C330 1.391 . S
C335 C334 1.391 . S
C335 C336 1.399 . S
C336 C335 1.399 . S
C336 C337 1.396 . S
C336 C339 1.453 . S
C336 C340 1.684 . S
C337 C327 1.723 . S
C337 C336 1.396 . S
C337 C338 1.394 . S
C338 C308 1.723 . S
C338 C334 1.397 . S
C338 C337 1.394 . S
C339 H311 0.982 . S
C339 H315 0.979 . S
C339 H316 0.977 . S
C339 C336 1.453 . S
C340 H312 0.979 . S
C340 H313 0.980 . S
C340 H314 0.983 . S
C340 C336 1.684 . S
H341 C359 0.948 . S
H342 C300 0.948 . S
H343 C318 0.979 . S
H344 C318 0.980 . S
H345 C318 0.983 . S
H346 C317 0.982 . S
H347 C317 0.979 . S
H348 C317 0.977 . S
H349 C319 0.948 . S
H350 C321 0.947 . S
H351 C322 0.948 . S
H352 C328 0.982 1_455 S
H353 C328 0.979 . S
H354 C328 0.977 . S
H355 C329 0.979 . S
H356 C329 0.980 . S
H357 C329 0.983 . S
H358 C302 0.947 . S
C359 C302 1.392 . S
C359 C303 1.419 . S
C359 H341 0.948 . S
C360 C361 1.391 . S
C360 C364 1.391 . S
C360 H402 0.948 . S
C361 C360 1.391 . S
C361 C362 1.391 . S
C362 C361 1.391 . S
C362 H418 0.947 . S
C362 C419 1.392 . S
C363 C364 1.391 . S
C363 C367 1.397 . S
C363 C419 1.419 . S
C364 C360 1.391 . S
C364 C363 1.391 . S
C364 C365 1.399 . S
C365 C364 1.399 . S
C365 C368 1.396 . S
C365 C377 1.453 . S
C365 C378 1.684 . S
H366 C390 0.948 . S
C367 C363 1.397 . S
C367 C368 1.394 . S
C367 C386 1.723 . S
C368 C365 1.396 . S
C368 C367 1.394 . S
C368 C398 1.723 1_565 S
H369 C392 0.947 . S
H370 C393 0.948 . S
H371 C399 0.982 . S
H372 C400 0.979 . S
H373 C400 0.980 . S
H374 C400 0.983 . S
H375 C399 0.979 . S
H376 C399 0.977 . S
C377 C365 1.453 . S
C377 H406 0.982 1_565 S
C377 H407 0.979 . S
C377 H408 0.977 1_565 S
C378 C365 1.684 . S
C378 H403 0.979 . S
C378 H404 0.980 . S
C378 H405 0.983 . S
C379 C380 1.391 1_565 S
C379 C384 1.391 . S
C379 H409 0.948 . S
C380 C379 1.391 1_545 S
C380 C381 1.391 . S
C381 C380 1.391 . S
C381 C382 1.392 . S
C381 H410 0.947 . S
C382 C381 1.392 . S
C382 C383 1.419 . S
C382 H411 0.948 . S
C383 C382 1.419 . S
C383 C384 1.391 1_545 S
C383 C387 1.397 . S
C384 C379 1.391 . S
C384 C383 1.391 1_565 S
C384 C385 1.399 . S
C385 C384 1.399 . S
C385 C386 1.396 . S
C385 C388 1.453 . S
C385 C389 1.684 . S
C386 C367 1.723 . S
C386 C385 1.396 . S
C386 C387 1.394 1_565 S
C387 C383 1.397 . S
C387 C386 1.394 1_545 S
C387 C397 1.723 . S
C388 C385 1.453 . S
C388 H412 0.982 . S
C388 H413 0.979 . S
C388 H414 0.977 . S
C389 C385 1.684 . S
C389 H415 0.979 . S
C389 H416 0.980 . S
C389 H417 0.983 . S
C390 H366 0.948 . S
C390 C391 1.391 . S
C390 C395 1.391 . S
C391 C390 1.391 . S
C391 C392 1.391 . S
C392 H369 0.947 . S
C392 C391 1.391 . S
C392 C393 1.392 . S
C393 H370 0.948 . S
C393 C392 1.392 . S
C393 C394 1.419 . S
C394 C393 1.419 . S
C394 C395 1.391 . S
C394 C398 1.397 . S
C395 C390 1.391 . S
C395 C394 1.391 . S
C395 C396 1.399 . S
C396 C395 1.399 . S
C396 C397 1.396 . S
C396 C399 1.453 . S
C396 C400 1.684 . S
C397 C387 1.723 . S
C397 C396 1.396 . S
C397 C398 1.394 . S
C398 C368 1.723 1_545 S
C398 C394 1.397 . S
C398 C397 1.394 . S
C399 H371 0.982 . S
C399 H375 0.979 . S
C399 H376 0.977 . S
C399 C396 1.453 . S
C400 H372 0.979 . S
C400 H373 0.980 . S
C400 H374 0.983 . S
C400 C396 1.684 . S
H401 C419 0.948 . S
H402 C360 0.948 . S
H403 C378 0.979 . S
H404 C378 0.980 . S
H405 C378 0.983 . S
H406 C377 0.982 1_545 S
H407 C377 0.979 . S
H408 C377 0.977 1_545 S
H409 C379 0.948 . S
H410 C381 0.947 . S
H411 C382 0.948 . S
H412 C388 0.982 . S
H413 C388 0.979 . S
H414 C388 0.977 . S
H415 C389 0.979 . S
H416 C389 0.980 . S
H417 C389 0.983 . S
H418 C362 0.947 . S
C419 C362 1.392 . S
C419 C363 1.419 . S
C419 H401 0.948 . S
C420 C421 1.391 . S
C420 C424 1.391 . S
C420 H462 0.948 . S
C421 C420 1.391 . S
C421 C422 1.391 . S
C422 C421 1.391 . S
C422 H478 0.947 . S
C422 C479 1.392 . S
C423 C424 1.391 . S
C423 C427 1.397 . S
C423 C479 1.419 . S
C424 C420 1.391 . S
C424 C423 1.391 . S
C424 C425 1.399 . S
C425 C424 1.399 . S
C425 C428 1.396 . S
C425 C437 1.453 . S
C425 C438 1.684 . S
H426 C450 0.948 . S
C427 C423 1.397 . S
C427 C428 1.394 . S
C427 C446 1.723 . S
C428 C425 1.396 . S
C428 C427 1.394 . S
C428 C458 1.723 . S
H429 C452 0.947 . S
H430 C453 0.948 . S
H431 C459 0.982 . S
H432 C460 0.979 . S
H433 C460 0.980 . S
H434 C460 0.983 . S
H435 C459 0.979 . S
H436 C459 0.977 . S
C437 C425 1.453 . S
C437 H466 0.982 . S
C437 H467 0.979 . S
C437 H468 0.977 . S
C438 C425 1.684 . S
C438 H463 0.979 . S
C438 H464 0.980 . S
C438 H465 0.983 . S
C439 C440 1.391 . S
C439 C444 1.391 . S
C439 H469 0.948 . S
C440 C439 1.391 . S
C440 C441 1.391 . S
C441 C440 1.391 . S
C441 C442 1.392 . S
C441 H470 0.947 . S
C442 C441 1.392 . S
C442 C443 1.419 . S
C442 H471 0.948 . S
C443 C442 1.419 . S
C443 C444 1.391 . S
C443 C447 1.397 . S
C444 C439 1.391 . S
C444 C443 1.391 . S
C444 C445 1.399 . S
C445 C444 1.399 . S
C445 C446 1.396 . S
C445 C448 1.453 . S
C445 C449 1.684 . S
C446 C427 1.723 . S
C446 C445 1.396 . S
C446 C447 1.394 . S
C447 C443 1.397 . S
C447 C446 1.394 . S
C447 C457 1.723 . S
C448 C445 1.453 . S
C448 H472 0.982 . S
C448 H473 0.979 . S
C448 H474 0.977 . S
C449 C445 1.684 . S
C449 H475 0.979 . S
C449 H476 0.980 . S
C449 H477 0.983 . S
C450 H426 0.948 . S
C450 C451 1.391 . S
C450 C455 1.391 . S
C451 C450 1.391 . S
C451 C452 1.391 . S
C452 H429 0.947 . S
C452 C451 1.391 . S
C452 C453 1.392 . S
C453 H430 0.948 . S
C453 C452 1.392 . S
C453 C454 1.419 . S
C454 C453 1.419 . S
C454 C455 1.391 . S
C454 C458 1.397 . S
C455 C450 1.391 . S
C455 C454 1.391 . S
C455 C456 1.399 . S
C456 C455 1.399 . S
C456 C457 1.396 . S
C456 C459 1.453 . S
C456 C460 1.684 . S
C457 C447 1.723 . S
C457 C456 1.396 . S
C457 C458 1.394 . S
C458 C428 1.723 . S
C458 C454 1.397 . S
C458 C457 1.394 . S
C459 H431 0.982 . S
C459 H435 0.979 . S
C459 H436 0.977 . S
C459 C456 1.453 . S
C460 H432 0.979 . S
C460 H433 0.980 . S
C460 H434 0.983 . S
C460 C456 1.684 . S
H461 C479 0.948 . S
H462 C420 0.948 . S
H463 C438 0.979 . S
H464 C438 0.980 . S
H465 C438 0.983 . S
H466 C437 0.982 . S
H467 C437 0.979 . S
H468 C437 0.977 . S
H469 C439 0.948 . S
H470 C441 0.947 . S
H471 C442 0.948 . S
H472 C448 0.982 . S
H473 C448 0.979 . S
H474 C448 0.977 . S
H475 C449 0.979 . S
H476 C449 0.980 . S
H477 C449 0.983 . S
H478 C422 0.947 . S
C479 C422 1.392 . S
C479 C423 1.419 . S
C479 H461 0.948 . S
H480 C488 0.950 . S
H481 C493 0.950 . S
H482 C490 0.950 . S
H483 C492 0.950 . S
H484 C494 0.950 . S
H485 C496 0.950 . S
H486 C498 0.950 . S
H487 C499 0.950 . S
C488 H480 0.950 . S
C488 C489 1.386 . S
C488 C490 1.391 . S
C489 C488 1.386 . S
C489 C493 1.393 . S
C490 H482 0.950 . S
C490 C488 1.391 . S
C490 C491 1.400 . S
C491 C490 1.400 . S
C491 C492 1.398 . S
C491 C497 1.491 . S
C492 H483 0.950 . S
C492 C491 1.398 . S
C492 C493 1.391 . S
C493 H481 0.950 . S
C493 C489 1.393 . S
C493 C492 1.391 . S
C494 H484 0.950 . S
C494 C495 1.386 . S
C494 C496 1.391 . S
C495 C494 1.386 . S
C495 C499 1.393 . S
C496 H485 0.950 . S
C496 C494 1.391 . S
C496 C497 1.400 . S
C497 C491 1.491 . S
C497 C496 1.400 . S
C497 C498 1.398 . S
C498 H486 0.950 . S
C498 C497 1.398 . S
C498 C499 1.391 . S
C499 H487 0.950 . S
C499 C495 1.393 . S
C499 C498 1.391 . S
H500 C508 0.950 . S
H501 C513 0.950 . S
H502 C510 0.950 . S
H503 C512 0.950 . S
H504 C514 0.950 . S
H505 C516 0.950 . S
H506 C518 0.950 . S
H507 C519 0.950 . S
C508 H500 0.950 . S
C508 C509 1.386 . S
C508 C510 1.391 . S
C509 C508 1.386 . S
C509 C513 1.393 . S
C510 H502 0.950 . S
C510 C508 1.391 . S
C510 C511 1.400 . S
C511 C510 1.400 . S
C511 C512 1.398 . S
C511 C517 1.491 . S
C512 H503 0.950 . S
C512 C511 1.398 . S
C512 C513 1.391 . S
C513 H501 0.950 . S
C513 C509 1.393 . S
C513 C512 1.391 . S
C514 H504 0.950 . S
C514 C515 1.386 . S
C514 C516 1.391 . S
C515 C514 1.386 . S
C515 C519 1.393 . S
C516 H505 0.950 . S
C516 C514 1.391 . S
C516 C517 1.400 . S
C517 C511 1.491 . S
C517 C516 1.400 . S
C517 C518 1.398 . S
C518 H506 0.950 . S
C518 C517 1.398 . S
C518 C519 1.391 . S
C519 H507 0.950 . S
C519 C515 1.393 . S
C519 C518 1.391 . S
H520 C528 0.950 . S
H521 C533 0.950 . S
H522 C530 0.950 . S
H523 C532 0.950 . S
H524 C534 0.950 . S
H525 C536 0.950 . S
H526 C538 0.950 . S
H527 C539 0.950 . S
C528 H520 0.950 . S
C528 C529 1.386 . S
C528 C530 1.391 . S
C529 C528 1.386 . S
C529 C533 1.393 . S
C530 H522 0.950 . S
C530 C528 1.391 . S
C530 C531 1.400 . S
C531 C530 1.400 . S
C531 C532 1.398 . S
C531 C537 1.491 . S
C532 H523 0.950 . S
C532 C531 1.398 . S
C532 C533 1.391 . S
C533 H521 0.950 . S
C533 C529 1.393 . S
C533 C532 1.391 . S
C534 H524 0.950 . S
C534 C535 1.386 . S
C534 C536 1.391 . S
C535 C534 1.386 . S
C535 C539 1.393 . S
C536 H525 0.950 . S
C536 C534 1.391 . S
C536 C537 1.400 . S
C537 C531 1.491 . S
C537 C536 1.400 . S
C537 C538 1.398 . S
C538 H526 0.950 . S
C538 C537 1.398 . S
C538 C539 1.391 . S
C539 H527 0.950 . S
C539 C535 1.393 . S
C539 C538 1.391 . S
H540 C548 0.950 . S
H541 C553 0.950 . S
H542 C550 0.950 . S
H543 C552 0.950 . S
H544 C554 0.950 . S
H545 C556 0.950 . S
H546 C558 0.950 . S
H547 C559 0.950 . S
C548 H540 0.950 . S
C548 C549 1.386 . S
C548 C550 1.391 . S
C549 C548 1.386 . S
C549 C553 1.393 . S
C550 H542 0.950 . S
C550 C548 1.391 . S
C550 C551 1.400 . S
C551 C550 1.400 . S
C551 C552 1.398 . S
C551 C557 1.491 . S
C552 H543 0.950 . S
C552 C551 1.398 . S
C552 C553 1.391 . S
C553 H541 0.950 . S
C553 C549 1.393 . S
C553 C552 1.391 . S
C554 H544 0.950 . S
C554 C555 1.386 . S
C554 C556 1.391 . S
C555 C554 1.386 . S
C555 C559 1.393 . S
C556 H545 0.950 . S
C556 C554 1.391 . S
C556 C557 1.400 . S
C557 C551 1.491 . S
C557 C556 1.400 . S
C557 C558 1.398 . S
C558 H546 0.950 . S
C558 C557 1.398 . S
C558 C559 1.391 . S
C559 H547 0.950 . S
C559 C555 1.393 . S
C559 C558 1.391 . S
H560 C568 0.950 . S
H561 C573 0.950 . S
H562 C570 0.950 . S
H563 C572 0.950 . S
H564 C574 0.950 . S
H565 C576 0.950 . S
H566 C578 0.950 . S
H567 C579 0.950 . S
C568 H560 0.950 . S
C568 C569 1.386 . S
C568 C570 1.391 . S
C569 C568 1.386 . S
C569 C573 1.393 . S
C570 H562 0.950 . S
C570 C568 1.391 . S
C570 C571 1.400 . S
C571 C570 1.400 . S
C571 C572 1.398 . S
C571 C577 1.491 . S
C572 H563 0.950 . S
C572 C571 1.398 . S
C572 C573 1.391 . S
C573 H561 0.950 . S
C573 C569 1.393 . S
C573 C572 1.391 . S
C574 H564 0.950 . S
C574 C575 1.386 . S
C574 C576 1.391 . S
C575 C574 1.386 . S
C575 C579 1.393 . S
C576 H565 0.950 . S
C576 C574 1.391 . S
C576 C577 1.400 . S
C577 C571 1.491 . S
C577 C576 1.400 . S
C577 C578 1.398 . S
C578 H566 0.950 . S
C578 C577 1.398 . S
C578 C579 1.391 . S
C579 H567 0.950 . S
C579 C575 1.393 . S
C579 C578 1.391 . S
H580 C588 0.950 . S
H581 C593 0.950 . S
H582 C590 0.950 . S
H583 C592 0.950 . S
H584 C594 0.950 . S
H585 C596 0.950 . S
H586 C598 0.950 . S
H587 C599 0.950 . S
C588 H580 0.950 . S
C588 C589 1.386 . S
C588 C590 1.391 . S
C589 C588 1.386 . S
C589 C593 1.393 . S
C590 H582 0.950 . S
C590 C588 1.391 . S
C590 C591 1.400 . S
C591 C590 1.400 . S
C591 C592 1.398 . S
C591 C597 1.491 . S
C592 H583 0.950 . S
C592 C591 1.398 . S
C592 C593 1.391 . S
C593 H581 0.950 . S
C593 C589 1.393 . S
C593 C592 1.391 . S
C594 H584 0.950 . S
C594 C595 1.386 . S
C594 C596 1.391 . S
C595 C594 1.386 . S
C595 C599 1.393 . S
C596 H585 0.950 . S
C596 C594 1.391 . S
C596 C597 1.400 . S
C597 C591 1.491 . S
C597 C596 1.400 . S
C597 C598 1.398 . S
C598 H586 0.950 . S
C598 C597 1.398 . S
C598 C599 1.391 . S
C599 H587 0.950 . S
C599 C595 1.393 . S
C599 C598 1.391 . S
H600 C608 0.950 . S
H601 C613 0.950 . S
H602 C610 0.950 . S
H603 C612 0.950 . S
H604 C614 0.950 . S
H605 C616 0.950 . S
H606 C618 0.950 . S
H607 C619 0.950 . S
C608 H600 0.950 . S
C608 C609 1.386 . S
C608 C610 1.391 . S
C609 C608 1.386 . S
C609 C613 1.393 . S
C610 H602 0.950 . S
C610 C608 1.391 . S
C610 C611 1.400 . S
C611 C610 1.400 . S
C611 C612 1.398 . S
C611 C617 1.491 . S
C612 H603 0.950 . S
C612 C611 1.398 . S
C612 C613 1.391 . S
C613 H601 0.950 . S
C613 C609 1.393 . S
C613 C612 1.391 . S
C614 H604 0.950 . S
C614 C615 1.386 . S
C614 C616 1.391 . S
C615 C614 1.386 . S
C615 C619 1.393 . S
C616 H605 0.950 . S
C616 C614 1.391 . S
C616 C617 1.400 . S
C617 C611 1.491 . S
C617 C616 1.400 . S
C617 C618 1.398 . S
C618 H606 0.950 . S
C618 C617 1.398 . S
C618 C619 1.391 . S
C619 H607 0.950 . S
C619 C615 1.393 . S
C619 C618 1.391 . S
H620 C628 0.950 . S
H621 C633 0.950 . S
H622 C630 0.950 . S
H623 C632 0.950 . S
H624 C634 0.950 . S
H625 C636 0.950 . S
H626 C638 0.950 . S
H627 C639 0.950 . S
C628 H620 0.950 . S
C628 C629 1.386 . S
C628 C630 1.391 . S
C629 C628 1.386 . S
C629 C633 1.393 . S
C630 H622 0.950 . S
C630 C628 1.391 . S
C630 C631 1.400 . S
C631 C630 1.400 . S
C631 C632 1.398 . S
C631 C637 1.491 . S
C632 H623 0.950 . S
C632 C631 1.398 . S
C632 C633 1.391 . S
C633 H621 0.950 . S
C633 C629 1.393 . S
C633 C632 1.391 . S
C634 H624 0.950 . S
C634 C635 1.386 . S
C634 C636 1.391 . S
C635 C634 1.386 . S
C635 C639 1.393 . S
C636 H625 0.950 . S
C636 C634 1.391 . S
C636 C637 1.400 . S
C637 C631 1.491 . S
C637 C636 1.400 . S
C637 C638 1.398 . S
C638 H626 0.950 . S
C638 C637 1.398 . S
C638 C639 1.391 . S
C639 H627 0.950 . S
C639 C635 1.393 . S
C639 C638 1.391 . S
H640 C648 0.950 . S
H641 C653 0.950 . S
H642 C650 0.950 . S
H643 C652 0.950 . S
H644 C654 0.950 . S
H645 C656 0.950 . S
H646 C658 0.950 . S
H647 C659 0.950 . S
C648 H640 0.950 . S
C648 C649 1.386 . S
C648 C650 1.391 . S
C649 C648 1.386 . S
C649 C653 1.393 . S
C650 H642 0.950 . S
C650 C648 1.391 . S
C650 C651 1.400 . S
C651 C650 1.400 . S
C651 C652 1.398 . S
C651 C657 1.491 . S
C652 H643 0.950 . S
C652 C651 1.398 . S
C652 C653 1.391 . S
C653 H641 0.950 . S
C653 C649 1.393 . S
C653 C652 1.391 . S
C654 H644 0.950 . S
C654 C655 1.386 . S
C654 C656 1.391 . S
C655 C654 1.386 . S
C655 C659 1.393 . S
C656 H645 0.950 . S
C656 C654 1.391 . S
C656 C657 1.400 . S
C657 C651 1.491 . S
C657 C656 1.400 . S
C657 C658 1.398 . S
C658 H646 0.950 . S
C658 C657 1.398 . S
C658 C659 1.391 . S
C659 H647 0.950 . S
C659 C655 1.393 . S
C659 C658 1.391 . S
H660 C668 0.950 . S
H661 C673 0.950 . S
H662 C670 0.950 . S
H663 C672 0.950 . S
H664 C674 0.950 . S
H665 C676 0.950 . S
H666 C678 0.950 . S
H667 C679 0.950 . S
C668 H660 0.950 . S
C668 C669 1.386 . S
C668 C670 1.391 . S
C669 C668 1.386 . S
C669 C673 1.393 . S
C670 H662 0.950 . S
C670 C668 1.391 . S
C670 C671 1.400 . S
C671 C670 1.400 . S
C671 C672 1.398 . S
C671 C677 1.491 . S
C672 H663 0.950 . S
C672 C671 1.398 . S
C672 C673 1.391 . S
C673 H661 0.950 . S
C673 C669 1.393 . S
C673 C672 1.391 . S
C674 H664 0.950 . S
C674 C675 1.386 . S
C674 C676 1.391 . S
C675 C674 1.386 . S
C675 C679 1.393 . S
C676 H665 0.950 . S
C676 C674 1.391 . S
C676 C677 1.400 . S
C677 C671 1.491 . S
C677 C676 1.400 . S
C677 C678 1.398 . S
C678 H666 0.950 . S
C678 C677 1.398 . S
C678 C679 1.391 . S
C679 H667 0.950 . S
C679 C675 1.393 . S
C679 C678 1.391 . S
H680 C688 0.950 . S
H681 C693 0.950 . S
H682 C690 0.950 . S
H683 C692 0.950 . S
H684 C694 0.950 . S
H685 C696 0.950 . S
H686 C698 0.950 . S
H687 C699 0.950 . S
C688 H680 0.950 . S
C688 C689 1.386 . S
C688 C690 1.391 . S
C689 C688 1.386 . S
C689 C693 1.393 . S
C690 H682 0.950 . S
C690 C688 1.391 . S
C690 C691 1.400 . S
C691 C690 1.400 . S
C691 C692 1.398 . S
C691 C697 1.491 . S
C692 H683 0.950 . S
C692 C691 1.398 . S
C692 C693 1.391 . S
C693 H681 0.950 . S
C693 C689 1.393 . S
C693 C692 1.391 . S
C694 H684 0.950 . S
C694 C695 1.386 . S
C694 C696 1.391 . S
C695 C694 1.386 . S
C695 C699 1.393 . S
C696 H685 0.950 . S
C696 C694 1.391 . S
C696 C697 1.400 . S
C697 C691 1.491 . S
C697 C696 1.400 . S
C697 C698 1.398 . S
C698 H686 0.950 . S
C698 C697 1.398 . S
C698 C699 1.391 . S
C699 H687 0.950 . S
C699 C695 1.393 . S
C699 C698 1.391 . S
H700 C708 0.950 . S
H701 C713 0.950 . S
H702 C710 0.950 . S
H703 C712 0.950 . S
H704 C714 0.950 . S
H705 C716 0.950 . S
H706 C718 0.950 . S
H707 C719 0.950 . S
C708 H700 0.950 . S
C708 C709 1.386 . S
C708 C710 1.391 . S
C709 C708 1.386 . S
C709 C713 1.393 . S
C710 H702 0.950 . S
C710 C708 1.391 . S
C710 C711 1.400 . S
C711 C710 1.400 . S
C711 C712 1.398 . S
C711 C717 1.491 . S
C712 H703 0.950 . S
C712 C711 1.398 . S
C712 C713 1.391 . S
C713 H701 0.950 . S
C713 C709 1.393 . S
C713 C712 1.391 . S
C714 H704 0.950 . S
C714 C715 1.386 . S
C714 C716 1.391 . S
C715 C714 1.386 . S
C715 C719 1.393 . S
C716 H705 0.950 . S
C716 C714 1.391 . S
C716 C717 1.400 . S
C717 C711 1.491 . S
C717 C716 1.400 . S
C717 C718 1.398 . S
C718 H706 0.950 . S
C718 C717 1.398 . S
C718 C719 1.391 . S
C719 H707 0.950 . S
C719 C715 1.393 . S
C719 C718 1.391 . S
H720 C728 0.950 . S
H721 C733 0.950 . S
H722 C730 0.950 . S
H723 C732 0.950 . S
H724 C734 0.950 . S
H725 C736 0.950 . S
H726 C738 0.950 . S
H727 C739 0.950 . S
C728 H720 0.950 . S
C728 C729 1.386 . S
C728 C730 1.391 . S
C729 C728 1.386 . S
C729 C733 1.393 1_455 S
C730 H722 0.950 . S
C730 C728 1.391 . S
C730 C731 1.400 . S
C731 C730 1.400 . S
C731 C732 1.398 1_455 S
C731 C737 1.491 . S
C732 H723 0.950 . S
C732 C731 1.398 1_655 S
C732 C733 1.391 . S
C733 H721 0.950 . S
C733 C729 1.393 1_655 S
C733 C732 1.391 . S
C734 H724 0.950 . S
C734 C735 1.386 1_655 S
C734 C736 1.391 . S
C735 C734 1.386 1_455 S
C735 C739 1.393 . S
C736 H725 0.950 . S
C736 C734 1.391 . S
C736 C737 1.400 1_655 S
C737 C731 1.491 . S
C737 C736 1.400 1_455 S
C737 C738 1.398 . S
C738 H726 0.950 . S
C738 C737 1.398 . S
C738 C739 1.391 . S
C739 H727 0.950 . S
C739 C735 1.393 . S
C739 C738 1.391 . S
H740 C748 0.950 1_565 S
H741 C753 0.950 . S
H742 C750 0.950 1_565 S
H743 C752 0.950 . S
H744 C754 0.950 . S
H745 C756 0.950 . S
H746 C758 0.950 . S
H747 C759 0.950 . S
C748 H740 0.950 1_545 S
C748 C749 1.386 . S
C748 C750 1.391 . S
C749 C748 1.386 . S
C749 C753 1.393 . S
C750 H742 0.950 1_545 S
C750 C748 1.391 . S
C750 C751 1.400 . S
C751 C750 1.400 . S
C751 C752 1.398 . S
C751 C757 1.491 . S
C752 H743 0.950 . S
C752 C751 1.398 . S
C752 C753 1.391 . S
C753 H741 0.950 . S
C753 C749 1.393 . S
C753 C752 1.391 . S
C754 H744 0.950 . S
C754 C755 1.386 . S
C754 C756 1.391 . S
C755 C754 1.386 . S
C755 C759 1.393 . S
C756 H745 0.950 . S
C756 C754 1.391 . S
C756 C757 1.400 . S
C757 C751 1.491 . S
C757 C756 1.400 . S
C757 C758 1.398 . S
C758 H746 0.950 . S
C758 C757 1.398 . S
C758 C759 1.391 . S
C759 H747 0.950 . S
C759 C755 1.393 . S
C759 C758 1.391 . S
H760 C768 0.950 . S
H761 C773 0.950 . S
H762 C770 0.950 . S
H763 C772 0.950 . S
H764 C774 0.950 . S
H765 C776 0.950 . S
H766 C778 0.950 . S
H767 C779 0.950 . S
C768 H760 0.950 . S
C768 C769 1.386 . S
C768 C770 1.391 . S
C769 C768 1.386 . S
C769 C773 1.393 . S
C770 H762 0.950 . S
C770 C768 1.391 . S
C770 C771 1.400 . S
C771 C770 1.400 . S
C771 C772 1.398 . S
C771 C777 1.491 . S
C772 H763 0.950 . S
C772 C771 1.398 . S
C772 C773 1.391 . S
C773 H761 0.950 . S
C773 C769 1.393 . S
C773 C772 1.391 . S
C774 H764 0.950 . S
C774 C775 1.386 . S
C774 C776 1.391 . S
C775 C774 1.386 . S
C775 C779 1.393 . S
C776 H765 0.950 . S
C776 C774 1.391 . S
C776 C777 1.400 . S
C777 C771 1.491 . S
C777 C776 1.400 . S
C777 C778 1.398 . S
C778 H766 0.950 . S
C778 C777 1.398 . S
C778 C779 1.391 . S
C779 H767 0.950 . S
C779 C775 1.393 . S
C779 C778 1.391 . S
H780 C788 0.950 1_565 S
H781 C793 0.950 . S
H782 C790 0.950 1_565 S
H783 C792 0.950 . S
H784 C794 0.950 . S
H785 C796 0.950 . S
H786 C798 0.950 . S
H787 C799 0.950 . S
C788 H780 0.950 1_545 S
C788 C789 1.386 . S
C788 C790 1.391 . S
C789 C788 1.386 . S
C789 C793 1.393 . S
C790 H782 0.950 1_545 S
C790 C788 1.391 . S
C790 C791 1.400 . S
C791 C790 1.400 . S
C791 C792 1.398 . S
C791 C797 1.491 . S
C792 H783 0.950 . S
C792 C791 1.398 . S
C792 C793 1.391 . S
C793 H781 0.950 . S
C793 C789 1.393 . S
C793 C792 1.391 . S
C794 H784 0.950 . S
C794 C795 1.386 . S
C794 C796 1.391 . S
C795 C794 1.386 . S
C795 C799 1.393 1_545 S
C796 H785 0.950 . S
C796 C794 1.391 . S
C796 C797 1.400 . S
C797 C791 1.491 . S
C797 C796 1.400 . S
C797 C798 1.398 1_545 S
C798 H786 0.950 . S
C798 C797 1.398 1_565 S
C798 C799 1.391 . S
C799 H787 0.950 . S
C799 C795 1.393 1_565 S
C799 C798 1.391 . S
H800 C808 0.950 . S
H801 C813 0.950 . S
H802 C810 0.950 . S
H803 C812 0.950 . S
H804 C814 0.950 . S
H805 C816 0.950 . S
H806 C818 0.950 . S
H807 C819 0.950 . S
C808 H800 0.950 . S
C808 C809 1.386 . S
C808 C810 1.391 . S
C809 C808 1.386 . S
C809 C813 1.393 . S
C810 H802 0.950 . S
C810 C808 1.391 . S
C810 C811 1.400 . S
C811 C810 1.400 . S
C811 C812 1.398 . S
C811 C817 1.491 . S
C812 H803 0.950 . S
C812 C811 1.398 . S
C812 C813 1.391 . S
C813 H801 0.950 . S
C813 C809 1.393 . S
C813 C812 1.391 . S
C814 H804 0.950 . S
C814 C815 1.404 . S
C814 C816 1.391 . S
C815 C814 1.404 . S
C815 C819 1.411 . S
C816 H805 0.950 . S
C816 C814 1.391 . S
C816 C817 1.400 . S
C817 C811 1.491 . S
C817 C816 1.400 . S
C817 C818 1.398 . S
C818 H806 0.950 . S
C818 C817 1.398 . S
C818 C819 1.391 . S
C819 H807 0.950 . S
C819 C815 1.411 . S
C819 C818 1.391 . S
H820 C828 0.949 1_655 S
H821 C833 0.950 . S
H822 C830 0.950 1_655 S
H823 C832 0.950 . S
H824 C834 0.950 . S
H825 C836 0.950 . S
H826 C838 0.950 1_655 S
H827 C839 0.950 1_655 S
C828 H820 0.949 1_455 S
C828 C829 1.386 . S
C828 C830 1.391 . S
C829 C828 1.386 . S
C829 C833 1.393 . S
C830 H822 0.950 1_455 S
C830 C828 1.391 . S
C830 C831 1.400 . S
C831 C830 1.400 . S
C831 C832 1.398 . S
C831 C837 1.491 . S
C832 H823 0.950 . S
C832 C831 1.398 . S
C832 C833 1.391 . S
C833 H821 0.950 . S
C833 C829 1.393 . S
C833 C832 1.391 . S
C834 H824 0.950 . S
C834 C835 1.386 . S
C834 C836 1.391 . S
C835 C834 1.386 . S
C835 C839 1.393 . S
C836 H825 0.950 . S
C836 C834 1.391 . S
C836 C837 1.400 . S
C837 C831 1.491 . S
C837 C836 1.400 . S
C837 C838 1.398 . S
C838 H826 0.950 1_455 S
C838 C837 1.398 . S
C838 C839 1.391 . S
C839 H827 0.950 1_455 S
C839 C835 1.393 . S
C839 C838 1.391 . S
C489 C19 2.983 . S
C495 C451 2.994 . S
C509 C49 3.074 . S
C515 C301 2.899 . S
C529 C99 2.983 . S
C535 C361 2.838 . S
C549 C9 3.078 . S
C555 C421 2.917 . S
C575 C331 2.991 . S
C569 C59 2.988 . S
C595 C391 3.066 . S
C589 C89 3.078 . S
C609 C55 0.409 . S
C615 C181 0.539 . S
C629 C85 0.374 . S
C635 C271 0.333 . S
C649 C15 0.396 . S
C655 C151 0.355 . S
C675 C211 0.376 . S
C669 C45 0.401 . S
C695 C241 0.466 . S
C689 C95 0.403 . S
C709 C5 0.375 . S
C715 C121 0.421 . S
C735 C260 1.035 1_554 S
C729 C18 1.063 . S
C749 C58 1.062 . S
C755 C140 1.074 . S
C769 C98 1.044 . S
C775 C200 1.066 . S
C795 C380 1.771 . S
C789 C48 1.713 . S
C815 C440 1.736 1_556 S
C809 C88 1.716 . S
C829 C8 1.700 . S
C835 C320 1.765 . S
