# Generated by pormake.
# Topology anh, (6,3)-cn, num edge types: 1
# Building blocks:
#     Node 0, Type 0, BuildingBlock: MIFKUJ_clean_sbu_0, # of connection points: 6
#     Node 1, Type 0, BuildingBlock: MIFKUJ_clean_sbu_0, # of connection points: 6
#     Node 2, Type 0, BuildingBlock: MIFKUJ_clean_sbu_0, # of connection points: 6
#     Node 3, Type 1, BuildingBlock: MIDCAF_clean_linker_0, # of connection points: 3
#     Node 4, Type 1, BuildingBlock: MIDCAF_clean_linker_0, # of connection points: 3
#     Node 5, Type 1, BuildingBlock: MIDCAF_clean_linker_0, # of connection points: 3
#     Node 6, Type 1, BuildingBlock: MIDCAF_clean_linker_0, # of connection points: 3
#     Node 7, Type 1, BuildingBlock: MIDCAF_clean_linker_0, # of connection points: 3
#     Node 8, Type 1, BuildingBlock: MIDCAF_clean_linker_0, # of connection points: 3
#     Edge 9, Type (0, 1), BuildingBlock: XIVTED_clean_linker_0, # of connection points: 2
#     Edge 10, Type (0, 1), BuildingBlock: XIVTED_clean_linker_0, # of connection points: 2
#     Edge 11, Type (0, 1), BuildingBlock: XIVTED_clean_linker_0, # of connection points: 2
#     Edge 12, Type (0, 1), BuildingBlock: XIVTED_clean_linker_0, # of connection points: 2
#     Edge 13, Type (0, 1), BuildingBlock: XIVTED_clean_linker_0, # of connection points: 2
#     Edge 14, Type (0, 1), BuildingBlock: XIVTED_clean_linker_0, # of connection points: 2
#     Edge 15, Type (0, 1), BuildingBlock: XIVTED_clean_linker_0, # of connection points: 2
#     Edge 16, Type (0, 1), BuildingBlock: XIVTED_clean_linker_0, # of connection points: 2
#     Edge 17, Type (0, 1), BuildingBlock: XIVTED_clean_linker_0, # of connection points: 2
#     Edge 18, Type (0, 1), BuildingBlock: XIVTED_clean_linker_0, # of connection points: 2
#     Edge 19, Type (0, 1), BuildingBlock: XIVTED_clean_linker_0, # of connection points: 2
#     Edge 20, Type (0, 1), BuildingBlock: XIVTED_clean_linker_0, # of connection points: 2
#     Edge 21, Type (0, 1), BuildingBlock: XIVTED_clean_linker_0, # of connection points: 2
#     Edge 22, Type (0, 1), BuildingBlock: XIVTED_clean_linker_0, # of connection points: 2
#     Edge 23, Type (0, 1), BuildingBlock: XIVTED_clean_linker_0, # of connection points: 2
#     Edge 24, Type (0, 1), BuildingBlock: XIVTED_clean_linker_0, # of connection points: 2
#     Edge 25, Type (0, 1), BuildingBlock: XIVTED_clean_linker_0, # of connection points: 2
#     Edge 26, Type (0, 1), BuildingBlock: XIVTED_clean_linker_0, # of connection points: 2
# Relax obj value: 0.135
# Max RMSD: 0.184
# Mean RMSD: 0.145
data_MOF--net-anh--node1-MIFKUJ_clean_sbu_0--node2-MIDCAF_clean_linker_0--edge1-XIVTED_clean_linker_0
_symmetry_space_group_name_H-M    P1
_symmetry_Int_Tables_number       1
_symmetry_cell_setting            triclinic
loop_
_symmetry_equiv_pos_as_xyz
'x, y, z'
_cell_length_a     36.882862
_cell_length_b     36.74566
_cell_length_c     63.991608
_cell_angle_alpha  93.622696
_cell_angle_beta   90.718971
_cell_angle_gamma 119.46056
loop_
_atom_site_label
_atom_site_type_symbol
_atom_site_fract_x
_atom_site_fract_y
_atom_site_fract_z
_atom_type_partial_charge
Zn0 Zn 0.04773 0.58404 0.16153 0.0
Zn1 Zn 0.9653 0.49251 0.15922 0.0
C2 C 0.11673 0.57213 0.17339 0.0
O3 O 0.12098 0.59962 0.18876 0.0
C4 C 0.90422 0.5113 0.14464 0.0
O5 O 0.90725 0.48964 0.12828 0.0
O6 O 0.08592 0.646 0.16171 0.0
O7 O 0.01423 0.56898 0.13414 0.0
O8 O 0.99277 0.5013 0.13177 0.0
C9 C 0.11058 0.65864 0.1468 0.0
O10 O 0.10956 0.63095 0.13243 0.0
O11 O 0.08614 0.55895 0.16006 0.0
C12 C 0.90581 0.42083 0.17642 0.0
O13 O 0.91499 0.44995 0.19177 0.0
O14 O 0.92451 0.43116 0.15945 0.0
O15 O 1.00161 0.50654 0.18546 0.0
O16 O 0.01944 0.57312 0.18911 0.0
O17 O 0.92832 0.51935 0.16075 0.0
C18 C 1.0043 0.53517 0.1231 0.0
C19 C 0.01068 0.53926 0.19721 0.0
Zn20 Zn 0.54622 0.04834 0.50146 0.0
Zn21 Zn 0.53815 0.94918 0.50293 0.0
C22 C 0.63284 0.10816 0.50813 0.0
O23 O 0.61934 0.11273 0.52648 0.0
C24 C 0.4623 0.87559 0.48833 0.0
O25 O 0.48906 0.8701 0.47711 0.0
O26 O 0.52808 0.09118 0.49929 0.0
O27 O 0.51172 0.00279 0.47912 0.0
O28 O 0.55666 0.98036 0.47686 0.0
C29 C 0.53719 0.11097 0.48283 0.0
O30 O 0.55612 0.10127 0.46806 0.0
O31 O 0.60732 0.07981 0.49459 0.0
C32 C 0.60193 0.92341 0.50259 0.0
O33 O 0.6295 0.96354 0.50521 0.0
O34 O 0.5633 0.91177 0.50194 0.0
O35 O 0.55181 0.97929 0.53187 0.0
O36 O 0.54214 0.03429 0.53137 0.0
O37 O 0.47553 0.90909 0.5003 0.0
C38 C 0.53201 0.99005 0.468 0.0
C39 C 0.54885 0.00916 0.54132 0.0
Zn40 Zn 0.56644 0.5468 0.8326 0.0
Zn41 Zn 0.4762 0.53122 0.82472 0.0
C42 C 0.54912 0.46484 0.84267 0.0
O43 O 0.56863 0.48675 0.86025 0.0
C44 C 0.48212 0.60908 0.81587 0.0
O45 O 0.45471 0.58331 0.80117 0.0
O46 O 0.628 0.56896 0.83627 0.0
O47 O 0.55976 0.57021 0.80621 0.0
O48 O 0.49775 0.51619 0.79877 0.0
C49 C 0.64536 0.56219 0.82062 0.0
O50 O 0.6226 0.54245 0.80336 0.0
O51 O 0.54233 0.48338 0.82821 0.0
C52 C 0.38554 0.47209 0.82351 0.0
O53 O 0.39434 0.44731 0.83376 0.0
O54 O 0.41486 0.50698 0.81853 0.0
O55 O 0.48243 0.51044 0.8523 0.0
O56 O 0.54676 0.56142 0.85939 0.0
O57 O 0.49863 0.59472 0.82817 0.0
C58 C 0.53223 0.54437 0.7927 0.0
C59 C 0.51169 0.53451 0.86559 0.0
C60 C 0.359 0.93828 0.20096 0.0
C61 C 0.3573 0.9323 0.17899 0.0
C62 C 0.39446 0.95287 0.16839 0.0
C63 C 0.43272 0.97707 0.17964 0.0
H64 H 0.55934 0.08787 0.18182 0.0
H65 H 0.62509 0.14481 0.17104 0.0
H66 H 0.69195 0.11991 0.21887 0.0
H67 H 0.6265 0.06391 0.22993 0.0
H68 H 0.58024 0.03745 0.27292 0.0
H69 H 0.58093 0.0292 0.31032 0.0
H70 H 0.44628 0.96078 0.30749 0.0
H71 H 0.44533 0.96945 0.27012 0.0
H72 H 0.39713 0.9648 0.22911 0.0
H73 H 0.33115 0.92249 0.20969 0.0
H74 H 0.39409 0.94916 0.15145 0.0
H75 H 0.46097 0.99125 0.17109 0.0
N76 N 0.51118 0.02584 0.2048 0.0
N77 N 0.54826 0.03547 0.23665 0.0
N78 N 0.47569 0.99422 0.23446 0.0
C79 C 0.54807 0.04301 0.21616 0.0
C80 C 0.51224 0.01116 0.24594 0.0
C81 C 0.47481 1.00121 0.21392 0.0
C82 C 0.58769 0.07202 0.20701 0.0
C83 C 0.58816 0.09404 0.18974 0.0
C84 C 0.62584 0.12654 0.18351 0.0
C85 C 0.66359 0.13731 0.19438 0.0
C86 C 0.66325 0.113 0.21053 0.0
C87 C 0.62573 0.08086 0.21684 0.0
C88 C 0.51272 0.00432 0.26848 0.0
C89 C 0.55072 0.02049 0.2802 0.0
C90 C 0.55117 0.01554 0.30164 0.0
C91 C 0.51366 0.99443 0.31185 0.0
C92 C 0.47568 0.97766 0.3001 0.0
C93 C 0.4752 0.98246 0.27864 0.0
C94 C 0.43447 0.98081 0.20168 0.0
C95 C 0.39705 0.96219 0.21215 0.0
C96 C 0.55226 0.38978 0.53095 0.0
C97 C 0.55776 0.38573 0.50943 0.0
C98 C 0.57811 0.42215 0.49858 0.0
C99 C 0.59317 0.46183 0.50919 0.0
H100 H 0.62631 0.58882 0.502 0.0
H101 H 0.63813 0.65216 0.48609 0.0
H102 H 0.68957 0.72416 0.54552 0.0
H103 H 0.67874 0.66154 0.56124 0.0
H104 H 0.64132 0.61602 0.60251 0.0
H105 H 0.62892 0.61733 0.63979 0.0
H106 H 0.57521 0.48276 0.63719 0.0
H107 H 0.5869 0.48113 0.59995 0.0
H108 H 0.56283 0.43074 0.55816 0.0
H109 H 0.53752 0.3625 0.53991 0.0
H110 H 0.58267 0.41999 0.48196 0.0
H111 H 0.60911 0.48934 0.50048 0.0
N112 N 0.62164 0.54318 0.53261 0.0
N113 N 0.63513 0.5825 0.56498 0.0
N114 N 0.60441 0.5096 0.56385 0.0
C115 C 0.63668 0.58099 0.54375 0.0
C116 C 0.61909 0.54695 0.57516 0.0
C117 C 0.60561 0.5073 0.54264 0.0
C118 C 0.65074 0.61993 0.53302 0.0
C119 C 0.64109 0.61835 0.51154 0.0
C120 C 0.64771 0.65461 0.50243 0.0
C121 C 0.66428 0.69309 0.5146 0.0
C122 C 0.67703 0.69517 0.53562 0.0
C123 C 0.67034 0.65902 0.54472 0.0
C124 C 0.61483 0.54843 0.59814 0.0
C125 C 0.62712 0.5867 0.60989 0.0
C126 C 0.62019 0.58752 0.63129 0.0
C127 C 0.60077 0.55011 0.64137 0.0
C128 C 0.58956 0.51203 0.62977 0.0
C129 C 0.59653 0.51118 0.60842 0.0
C130 C 0.58841 0.46573 0.53085 0.0
C131 C 0.56733 0.42916 0.54151 0.0
C132 C 0.9552 0.61359 0.85757 0.0
C133 C 0.92476 0.58711 0.84198 0.0
C134 C 0.92696 0.55249 0.83269 0.0
C135 C 0.95675 0.54269 0.84008 0.0
H136 H 0.06442 0.51607 0.82708 0.0
H137 H 0.1073 0.48994 0.81037 0.0
H138 H 0.12576 0.44964 0.86963 0.0
H139 H 0.08261 0.47462 0.88612 0.0
H140 H 0.08641 0.53821 0.92843 0.0
H141 H 0.08377 0.53895 0.96669 0.0
H142 H 0.96908 0.5433 0.96302 0.0
H143 H 0.97193 0.54345 0.92493 0.0
H144 H 0.00567 0.62285 0.87815 0.0
H145 H 0.95531 0.64122 0.86463 0.0
H146 H 0.90395 0.53126 0.82072 0.0
H147 H 0.95612 0.5144 0.83362 0.0
N148 N 0.02742 0.53266 0.85795 0.0
N149 N 0.04941 0.52091 0.89022 0.0
N150 N 0.00976 0.55462 0.88959 0.0
C151 C 0.04828 0.51744 0.86891 0.0
C152 C 0.03004 0.53923 0.90063 0.0
C153 C 0.00847 0.55166 0.86833 0.0
C154 C 0.0705 0.498 0.85802 0.0
C155 C 0.07709 0.50101 0.83645 0.0
C156 C 0.10175 0.48616 0.82688 0.0
C157 C 0.12006 0.46781 0.83867 0.0
C158 C 0.11171 0.46302 0.85997 0.0
C159 C 0.08728 0.4779 0.86952 0.0
C160 C 0.0294 0.54081 0.92371 0.0
C161 C 0.06074 0.5395 0.93581 0.0
C162 C 0.05937 0.54008 0.95764 0.0
C163 C 0.02615 0.54103 0.96763 0.0
C164 C 0.99485 0.54232 0.95558 0.0
C165 C 0.99667 0.54264 0.93383 0.0
C166 C 0.98427 0.56697 0.85707 0.0
C167 C 0.98427 0.6033 0.86522 0.0
C168 C 0.13866 0.64954 0.46846 0.0
C169 C 0.16538 0.6421 0.4811 0.0
C170 C 0.15159 0.60105 0.48678 0.0
C171 C 0.11287 0.5678 0.47897 0.0
H172 H 0.96532 0.45703 0.48813 0.0
H173 H 0.90869 0.39185 0.49968 0.0
H174 H 0.90352 0.32809 0.43962 0.0
H175 H 0.95828 0.39332 0.42793 0.0
H176 H 0.95937 0.45458 0.39006 0.0
H177 H 0.95525 0.46112 0.35261 0.0
H178 H 0.06235 0.58563 0.36022 0.0
H179 H 0.066 0.57964 0.39769 0.0
H180 H 0.08169 0.62284 0.44975 0.0
H181 H 0.1484 0.68063 0.46364 0.0
H182 H 0.17142 0.59444 0.49662 0.0
H183 H 0.10396 0.53621 0.48268 0.0
N184 N 0.0263 0.50302 0.46106 0.0
N185 N 0.99136 0.47543 0.428 0.0
N186 N 0.04714 0.54396 0.43213 0.0
C187 C 0.99552 0.47068 0.44863 0.0
C188 C 0.01695 0.51197 0.41963 0.0
C189 C 0.0522 0.53989 0.45274 0.0
C190 C 0.96588 0.43042 0.45705 0.0
C191 C 0.95232 0.42888 0.47755 0.0
C192 C 0.91987 0.39141 0.48416 0.0
C193 C 0.90076 0.35458 0.47047 0.0
C194 C 0.91631 0.3559 0.45041 0.0
C195 C 0.94807 0.39333 0.44374 0.0
C196 C 0.01314 0.51649 0.39696 0.0
C197 C 0.98193 0.48348 0.38381 0.0
C198 C 0.97968 0.48712 0.36229 0.0
C199 C 0.00861 0.52382 0.35339 0.0
C200 C 0.03928 0.55712 0.36658 0.0
C201 C 0.0415 0.55353 0.3881 0.0
C202 C 0.08775 0.57502 0.46506 0.0
C203 C 0.10048 0.61636 0.46042 0.0
C204 C 0.49366 0.14995 0.80031 0.0
C205 C 0.5175 0.17678 0.81779 0.0
C206 C 0.54164 0.16489 0.82992 0.0
C207 C 0.54384 0.12857 0.82389 0.0
H208 H 0.49222 0.96709 0.82748 0.0
H209 H 0.48531 0.90147 0.8389 0.0
H210 H 0.59325 0.92195 0.80486 0.0
H211 H 0.59977 0.98678 0.7934 0.0
H212 H 0.57675 0.99925 0.74232 0.0
H213 H 0.58247 0.99555 0.70449 0.0
H214 H 0.53008 0.07721 0.69898 0.0
H215 H 0.52557 0.082 0.73679 0.0
H216 H 0.47916 0.09555 0.78 0.0
H217 H 0.47363 0.15707 0.79095 0.0
H218 H 0.56056 0.1847 0.84344 0.0
H219 H 0.56441 0.12145 0.83281 0.0
N220 N 0.53527 0.04345 0.80776 0.0
N221 N 0.55042 0.01509 0.77727 0.0
N222 N 0.53638 0.07017 0.77515 0.0
C223 C 0.54485 0.01511 0.79821 0.0
C224 C 0.54611 0.04235 0.76561 0.0
C225 C 0.5313 0.07134 0.79611 0.0
C226 C 0.54648 0.98196 0.80954 0.0
C227 C 0.5152 0.95817 0.82306 0.0
C228 C 0.51103 0.92044 0.8294 0.0
C229 C 0.53856 0.90631 0.82265 0.0
C230 C 0.57172 0.93196 0.81049 0.0
C231 C 0.5754 0.9691 0.80387 0.0
C232 C 0.55065 0.04089 0.74264 0.0
C233 C 0.56659 0.01656 0.73306 0.0
C234 C 0.56967 0.01425 0.71132 0.0
C235 C 0.55665 0.03598 0.69863 0.0
C236 C 0.54105 0.06059 0.70826 0.0
C237 C 0.53824 0.06314 0.72999 0.0
C238 C 0.52234 0.1038 0.80551 0.0
C239 C 0.49641 0.11429 0.79415 0.0
C240 C 0.61022 0.48785 0.12152 0.0
C241 C 0.63648 0.51712 0.13765 0.0
C242 C 0.62177 0.54036 0.14955 0.0
C243 C 0.58279 0.53655 0.14425 0.0
H244 H 0.46318 0.5713 0.15095 0.0
H245 H 0.40375 0.57718 0.16397 0.0
H246 H 0.31923 0.46046 0.12854 0.0
H247 H 0.37837 0.45604 0.115 0.0
H248 H 0.44688 0.54133 0.0634 0.0
H249 H 0.44639 0.54404 0.02526 0.0
H250 H 0.51503 0.47704 0.02047 0.0
H251 H 0.51637 0.47497 0.05856 0.0
H252 H 0.55331 0.46263 0.10304 0.0
H253 H 0.62009 0.46867 0.11242 0.0
H254 H 0.64131 0.56304 0.16214 0.0
H255 H 0.57314 0.55653 0.15275 0.0
N256 N 0.49302 0.51418 0.12978 0.0
N257 N 0.45592 0.5115 0.09889 0.0
N258 N 0.51742 0.50838 0.09661 0.0
C259 C 0.45952 0.51381 0.12015 0.0
C260 C 0.48491 0.5091 0.08704 0.0
C261 C 0.52195 0.51102 0.11784 0.0
C262 C 0.42519 0.5133 0.13198 0.0
C263 C 0.43179 0.54657 0.14643 0.0
C264 C 0.39769 0.54988 0.15382 0.0
C265 C 0.35651 0.51975 0.14696 0.0
C266 C 0.35034 0.48497 0.13368 0.0
C267 C 0.38421 0.48208 0.12611 0.0
C268 C 0.4818 0.50807 0.06395 0.0
C269 C 0.46153 0.52686 0.05419 0.0
C270 C 0.46141 0.52861 0.03243 0.0
C271 C 0.48069 0.51076 0.02004 0.0
C272 C 0.49976 0.49081 0.02971 0.0
C273 C 0.50068 0.48984 0.05149 0.0
C274 C 0.55825 0.50951 0.12698 0.0
C275 C 0.5718 0.48422 0.11622 0.0
H276 H 0.12355 0.52402 0.14075 0.0
H277 H 0.3422 0.55279 0.18402 0.0
H278 H 0.18499 0.59327 0.19945 0.0
H279 H 0.28801 0.50098 0.12164 0.0
H280 H 0.28265 0.56315 0.19138 0.0
H281 H 0.18069 0.50933 0.13516 0.0
C282 C 0.14887 0.53587 0.15256 0.0
C283 C 0.14946 0.56008 0.17056 0.0
C284 C 0.2838 0.54932 0.17613 0.0
C285 C 0.21532 0.54353 0.1642 0.0
C286 C 0.31791 0.54356 0.17187 0.0
C287 C 0.32024 0.52565 0.15221 0.0
C288 C 0.25168 0.53708 0.16063 0.0
C289 C 0.28741 0.51401 0.13719 0.0
C290 C 0.18163 0.52761 0.14932 0.0
C291 C 0.18324 0.57461 0.18529 0.0
N292 N 0.25469 0.5199 0.14171 0.0
N293 N 0.21482 0.56623 0.18177 0.0
H294 H 0.66478 0.1223 0.46907 0.0
H295 H 0.88275 0.32259 0.50938 0.0
H296 H 0.69744 0.16611 0.53438 0.0
H297 H 0.83287 0.29729 0.44539 0.0
H298 H 0.8199 0.25982 0.51869 0.0
H299 H 0.73201 0.1799 0.45998 0.0
C300 C 0.68629 0.14365 0.48153 0.0
C301 C 0.67532 0.13948 0.50251 0.0
C302 C 0.82296 0.26799 0.50259 0.0
C303 C 0.75227 0.20565 0.49221 0.0
C304 C 0.85876 0.30401 0.49727 0.0
C305 C 0.86349 0.31556 0.47651 0.0
C306 C 0.79166 0.24306 0.48707 0.0
C307 C 0.83135 0.28953 0.4615 0.0
C308 C 0.72457 0.1767 0.47632 0.0
C309 C 0.70446 0.16826 0.51798 0.0
N310 N 0.79698 0.25467 0.46707 0.0
N311 N 0.7415 0.20017 0.51252 0.0
H312 H 0.43588 0.64103 0.8 0.0
H313 H 0.59412 0.88062 0.83441 0.0
H314 H 0.54745 0.67746 0.83821 0.0
H315 H 0.46412 0.83326 0.81758 0.0
H316 H 0.58055 0.80812 0.83471 0.0
H317 H 0.44882 0.71279 0.80441 0.0
C318 C 0.46326 0.66417 0.8093 0.0
C319 C 0.49071 0.65311 0.81869 0.0
C320 C 0.55495 0.81369 0.83123 0.0
C321 C 0.50581 0.73593 0.82377 0.0
C322 C 0.56265 0.855 0.83103 0.0
C323 C 0.5302 0.86309 0.82597 0.0
C324 C 0.51467 0.7802 0.82594 0.0
C325 C 0.49002 0.82865 0.82178 0.0
C326 C 0.47046 0.70519 0.81192 0.0
C327 C 0.52548 0.68459 0.8307 0.0
N328 N 0.48354 0.78886 0.82161 0.0
N329 N 0.53227 0.72471 0.83275 0.0
H330 H 0.86382 0.51827 0.11072 0.0
H331 H 0.68119 0.52433 0.1743 0.0
H332 H 0.86684 0.52765 0.17832 0.0
H333 H 0.69099 0.5282 0.10731 0.0
H334 H 0.75076 0.53042 0.17716 0.0
H335 H 0.80253 0.52682 0.11004 0.0
C336 C 0.85174 0.52253 0.12547 0.0
C337 C 0.87037 0.52201 0.14459 0.0
C338 C 0.73772 0.53026 0.16188 0.0
C339 C 0.79926 0.53122 0.14398 0.0
C340 C 0.69812 0.5269 0.16026 0.0
C341 C 0.67994 0.52494 0.1405 0.0
C342 C 0.75915 0.53186 0.1436 0.0
C343 C 0.70329 0.52853 0.12282 0.0
C344 C 0.81662 0.52741 0.12509 0.0
C345 C 0.85345 0.52796 0.16322 0.0
N346 N 0.74131 0.53149 0.12478 0.0
N347 N 0.81848 0.53179 0.16246 0.0
H348 H 0.4293 0.79532 0.47099 0.0
H349 H 0.19324 0.72446 0.49496 0.0
H350 H 0.39511 0.87767 0.50561 0.0
H351 H 0.23695 0.63777 0.47779 0.0
H352 H 0.26575 0.78183 0.49805 0.0
H353 H 0.35771 0.73837 0.47168 0.0
C354 C 0.40669 0.80154 0.47868 0.0
C355 C 0.41831 0.84147 0.48822 0.0
C356 C 0.25944 0.75017 0.49385 0.0
C357 C 0.33588 0.77599 0.48909 0.0
C358 C 0.21811 0.71744 0.49208 0.0
C359 C 0.20899 0.67622 0.4861 0.0
C360 C 0.29186 0.74174 0.48928 0.0
C361 C 0.24246 0.66891 0.48265 0.0
C362 C 0.36579 0.76884 0.47918 0.0
C363 C 0.38755 0.84742 0.49805 0.0
N364 N 0.28229 0.70136 0.48406 0.0
N365 N 0.34765 0.81508 0.49813 0.0
H366 H 0.52193 0.41341 0.80611 0.0
H367 H 0.52381 0.21926 0.85621 0.0
H368 H 0.55398 0.41496 0.87138 0.0
H369 H 0.51548 0.22936 0.78965 0.0
H370 H 0.52827 0.28783 0.86266 0.0
H371 H 0.51145 0.34227 0.80046 0.0
C372 C 0.52639 0.3987 0.8193 0.0
C373 C 0.53906 0.42038 0.83923 0.0
C374 C 0.52524 0.27484 0.84666 0.0
C375 C 0.52726 0.33883 0.83285 0.0
C376 C 0.5229 0.23572 0.84294 0.0
C377 C 0.51902 0.21802 0.82234 0.0
C378 C 0.52359 0.29657 0.82967 0.0
C379 C 0.51751 0.24095 0.80583 0.0
C380 C 0.52059 0.35811 0.81604 0.0
C381 C 0.54444 0.39962 0.85571 0.0
N382 N 0.51979 0.27882 0.80986 0.0
N383 N 0.53862 0.36014 0.85215 0.0
H384 H 0.5544 0.84163 0.488 0.0
H385 H 0.72226 0.77713 0.52078 0.0
H386 H 0.67923 0.93231 0.51134 0.0
H387 H 0.60153 0.69157 0.49084 0.0
H388 H 0.71105 0.83576 0.51394 0.0
H389 H 0.57444 0.7877 0.48577 0.0
C390 C 0.58615 0.85024 0.49263 0.0
C391 C 0.61506 0.89143 0.50015 0.0
C392 C 0.68738 0.8042 0.50854 0.0
C393 C 0.6383 0.82955 0.49768 0.0
C394 C 0.69373 0.77073 0.51246 0.0
C395 C 0.66257 0.7293 0.50662 0.0
C396 C 0.64947 0.79609 0.49887 0.0
C397 C 0.62652 0.72289 0.49558 0.0
C398 C 0.59766 0.81941 0.49124 0.0
C399 C 0.6559 0.90085 0.5056 0.0
N400 N 0.62074 0.75584 0.49236 0.0
N401 N 0.66621 0.86997 0.50451 0.0
H402 H 0.69149 0.55161 0.79012 0.0
H403 H 0.88385 0.612 0.8697 0.0
H404 H 0.70022 0.59821 0.85471 0.0
H405 H 0.881 0.57337 0.80424 0.0
H406 H 0.81976 0.61361 0.86334 0.0
H407 H 0.76307 0.56492 0.79394 0.0
C408 C 0.70855 0.56495 0.80507 0.0
C409 C 0.68969 0.57342 0.8222 0.0
C410 C 0.8333 0.6052 0.85028 0.0
C411 C 0.77158 0.58862 0.82666 0.0
C412 C 0.8703 0.60467 0.85385 0.0
C413 C 0.88812 0.59254 0.83747 0.0
C414 C 0.81338 0.59303 0.83023 0.0
C415 C 0.86817 0.58233 0.81741 0.0
C416 C 0.74945 0.57257 0.80722 0.0
C417 C 0.71339 0.59092 0.84113 0.0
N418 N 0.83166 0.58245 0.81439 0.0
N419 N 0.75296 0.59761 0.84288 0.0
H420 H 0.17546 0.69392 0.12088 0.0
H421 H 0.27782 0.91726 0.18572 0.0
H422 H 0.11791 0.72514 0.17207 0.0
H423 H 0.34637 0.87399 0.14711 0.0
H424 H 0.21304 0.85426 0.17333 0.0
H425 H 0.23204 0.76663 0.12331 0.0
C426 C 0.17444 0.71616 0.13247 0.0
C427 C 0.14231 0.70331 0.14656 0.0
C428 C 0.24223 0.85899 0.1673 0.0
C429 C 0.20679 0.78647 0.14931 0.0
C430 C 0.2792 0.89489 0.17436 0.0
C431 C 0.31769 0.90047 0.16781 0.0
C432 C 0.24377 0.82853 0.15356 0.0
C433 C 0.3175 0.87101 0.15265 0.0
C434 C 0.20674 0.75763 0.13383 0.0
C435 C 0.14241 0.73356 0.16112 0.0
N436 N 0.28116 0.83596 0.14629 0.0
N437 N 0.17439 0.77368 0.16224 0.0
H438 H 0.57267 0.1731 0.45604 0.0
H439 H 0.48651 0.31158 0.51435 0.0
H440 H 0.48851 0.13251 0.5066 0.0
H441 H 0.60037 0.36376 0.48118 0.0
H442 H 0.47363 0.2412 0.50324 0.0
H443 H 0.56969 0.23828 0.45721 0.0
C444 C 0.55303 0.17758 0.46716 0.0
C445 C 0.53126 0.14765 0.48147 0.0
C446 C 0.50109 0.26809 0.49814 0.0
C447 C 0.52758 0.22184 0.48275 0.0
C448 C 0.50853 0.30824 0.50449 0.0
C449 C 0.5451 0.34363 0.49909 0.0
C450 C 0.53028 0.26326 0.48621 0.0
C451 C 0.57188 0.33743 0.48579 0.0
C452 C 0.55145 0.21479 0.46783 0.0
C453 C 0.50623 0.15503 0.49549 0.0
N454 N 0.56424 0.29795 0.48003 0.0
N455 N 0.5053 0.19154 0.49588 0.0
H456 H 0.3574 0.5129 0.79964 0.0
H457 H 0.13097 0.40037 0.84494 0.0
H458 H 0.31439 0.40921 0.83871 0.0
H459 H 0.18137 0.51326 0.8123 0.0
H460 H 0.19165 0.39329 0.83614 0.0
H461 H 0.28722 0.50326 0.79749 0.0
C462 C 0.33307 0.48776 0.8076 0.0
C463 C 0.34195 0.4623 0.81972 0.0
C464 C 0.18905 0.4192 0.83061 0.0
C465 C 0.26143 0.45129 0.8174 0.0
C466 C 0.15448 0.42333 0.83566 0.0
C467 C 0.15144 0.45792 0.8297 0.0
C468 C 0.22082 0.44992 0.81954 0.0
C469 C 0.18231 0.48611 0.81726 0.0
C470 C 0.29294 0.48226 0.80634 0.0
C471 C 0.30902 0.42985 0.82939 0.0
N472 N 0.21599 0.48182 0.81287 0.0
N473 N 0.27027 0.42564 0.82828 0.0
H474 H 0.87133 0.38678 0.2125 0.0
H475 H 0.69489 0.16925 0.15672 0.0
H476 H 0.86585 0.356 0.14588 0.0
H477 H 0.71992 0.19506 0.22368 0.0
H478 H 0.75658 0.23712 0.15179 0.0
H479 H 0.81496 0.31611 0.2164 0.0
C480 C 0.85832 0.36505 0.19868 0.0
C481 C 0.87317 0.3773 0.17883 0.0
C482 C 0.74871 0.22759 0.16753 0.0
C483 C 0.8083 0.29616 0.18315 0.0
C484 C 0.71349 0.18902 0.17034 0.0
C485 C 0.70236 0.1764 0.19063 0.0
C486 C 0.77252 0.25378 0.18515 0.0
C487 C 0.72763 0.20311 0.20774 0.0
C488 C 0.82616 0.3246 0.20092 0.0
C489 C 0.85528 0.34774 0.16148 0.0
N490 N 0.76128 0.24054 0.2046 0.0
N491 N 0.82347 0.30852 0.16401 0.0
H492 H 0.9646 0.46856 0.09378 0.0
H493 H 0.08513 0.59377 -0.00242 0.0
H494 H 0.04876 0.60221 0.10014 0.0
H495 H 0.96167 0.4863 0.98959 0.0
H496 H 0.07958 0.59247 0.03578 0.0
H497 H 0.96994 0.46965 0.05565 0.0
C498 C 0.98424 0.49808 0.08716 0.0
C499 C 0.00634 0.53535 0.10011 0.0
C500 C 0.05375 0.56923 0.02562 0.0
C501 C 0.01298 0.53662 0.05675 0.0
C502 C 0.057 0.56983 0.00393 0.0
C503 C 0.02374 0.54017 0.99059 0.0
C504 C 0.01736 0.53821 0.0339 0.0
C505 C 0.98782 0.50984 -0.00054 0.0
C506 C 0.98714 0.49867 0.06546 0.0
C507 C 0.03118 0.57278 0.09072 0.0
N508 N 0.98564 0.50943 0.02062 0.0
N509 N 0.03414 0.57242 0.06959 0.0
H510 H 0.57313 0.96726 0.43927 0.0
H511 H 0.46473 0.00569 0.34037 0.0
H512 H 0.48276 0.00942 0.44411 0.0
H513 H 0.56405 0.97595 0.33557 0.0
H514 H 0.46762 0.00244 0.3783 0.0
H515 H 0.56737 0.96611 0.40112 0.0
C516 C 0.55204 0.97622 0.43232 0.0
C517 C 0.52846 0.98855 0.44491 0.0
C518 C 0.48874 0.99654 0.36896 0.0
C519 C 0.52167 0.98722 0.40128 0.0
C520 C 0.4869 0.9981 0.34729 0.0
C521 C 0.51422 0.99111 0.3348 0.0
C522 C 0.51804 0.98782 0.37824 0.0
C523 C 0.54275 0.98204 0.34464 0.0
C524 C 0.54878 0.97557 0.41054 0.0
C525 C 0.50157 0.99975 0.43503 0.0
N526 N 0.54393 0.98066 0.36579 0.0
N527 N 0.49894 0.99883 0.41381 0.0
H528 H 0.4811 0.49325 0.75955 0.0
H529 H 0.65008 0.60512 0.67408 0.0
H530 H 0.6038 0.59914 0.77469 0.0
H531 H 0.5292 0.49619 0.65959 0.0
H532 H 0.63294 0.60503 0.71088 0.0
H533 H 0.49743 0.49532 0.72265 0.0
C534 C 0.51144 0.51701 0.75512 0.0
C535 C 0.54114 0.54601 0.77024 0.0
C536 C 0.61018 0.58113 0.69965 0.0
C537 C 0.56009 0.54853 0.72802 0.0
C538 C 0.61988 0.5813 0.67863 0.0
C539 C 0.5911 0.55052 0.66377 0.0
C540 C 0.57135 0.55006 0.70582 0.0
C541 C 0.55259 0.52012 0.67058 0.0
C542 C 0.52077 0.51815 0.73404 0.0
C543 C 0.57994 0.57614 0.76357 0.0
N544 N 0.54385 0.52067 0.69109 0.0
N545 N 0.58831 0.57656 0.74295 0.0
H546 H 0.55735 0.07583 0.56689 0.0
H547 H 0.54009 0.96627 0.67289 0.0
H548 H 0.54896 0.95462 0.56865 0.0
H549 H 0.57693 0.09726 0.67133 0.0
H550 H 0.54095 0.96049 0.63472 0.0
H551 H 0.56168 0.08318 0.60515 0.0
C552 C 0.55643 0.05075 0.5753 0.0
C553 C 0.55262 0.01446 0.56451 0.0
C554 C 0.54903 0.99054 0.64275 0.0
C555 C 0.55747 0.0227 0.60837 0.0
C556 C 0.54878 0.99396 0.66458 0.0
C557 C 0.55839 0.03233 0.67543 0.0
C558 C 0.55862 0.02563 0.6316 0.0
C559 C 0.56861 0.06686 0.66368 0.0
C560 C 0.55905 0.05505 0.59717 0.0
C561 C 0.55188 0.98314 0.57629 0.0
N562 N 0.56827 0.06264 0.64242 0.0
N563 N 0.55403 0.98788 0.59758 0.0
H564 H 0.45382 0.46663 0.88464 0.0
H565 H 0.5084 0.58177 -0.00049 0.0
H566 H 0.55486 0.59326 0.89801 0.0
H567 H 0.45768 0.44812 0.9888 0.0
H568 H 0.5148 0.58782 0.96159 0.0
H569 H 0.44432 0.46049 0.92236 0.0
C570 C 0.47386 0.49318 0.8955 0.0
C571 C 0.50525 0.53049 0.88823 0.0
C572 C 0.50216 0.55719 0.96757 0.0
C573 C 0.49416 0.5238 0.93119 0.0
C574 C 0.49825 0.5537 0.98911 0.0
C575 C 0.48253 0.51441 -0.00283 0.0
C576 C 0.48953 0.52102 0.95403 0.0
C577 C 0.47015 0.47898 0.98313 0.0
C578 C 0.46851 0.48957 0.91697 0.0
C579 C 0.53045 0.56387 0.90298 0.0
N580 N 0.4737 0.48307 0.96218 0.0
N581 N 0.52419 0.55984 0.92378 0.0
H582 H 0.99276 0.4714 0.21907 0.0
H583 H 0.02169 0.5916 0.33205 0.0
H584 H 0.02765 0.60227 0.22786 0.0
H585 H 0.99395 0.46296 0.32218 0.0
H586 H 0.02246 0.59614 0.29407 0.0
H587 H 0.99137 0.46775 0.2569 0.0
C588 C 1.00022 0.49947 0.22895 0.0
C589 C 0.01039 0.53726 0.22023 0.0
C590 C 0.01612 0.56691 0.30023 0.0
C591 C 0.00877 0.5332 0.26375 0.0
C592 C 0.01584 0.56433 0.32192 0.0
C593 C 0.00772 0.52682 0.33036 0.0
C594 C 0.00825 0.53173 0.28687 0.0
C595 C 0.99975 0.49234 0.31643 0.0
C596 C 0.99939 0.49732 0.2506 0.0
C597 C 0.01967 0.5725 0.23389 0.0
N598 N 1.00029 0.49567 0.29542 0.0
N599 N 0.01863 0.56962 0.25499 0.0
loop_
_geom_bond_atom_site_label_1
_geom_bond_atom_site_label_2
_geom_bond_distance
_geom_bond_site_symmetry_2
_ccdc_geom_bond_type
Zn0 O6 1.969 . S
Zn0 O7 1.965 . S
Zn0 O11 2.024 . S
Zn0 O16 1.969 . S
Zn1 O8 1.969 . S
Zn1 O14 1.969 . S
Zn1 O15 1.965 . S
Zn1 O17 2.024 . S
C2 O3 1.229 . S
C2 O11 1.058 . S
O3 C2 1.229 . S
C4 O5 1.229 . S
C4 O17 1.058 . S
O5 C4 1.229 . S
O6 Zn0 1.969 . S
O6 C9 1.267 . S
O7 Zn0 1.965 . S
O7 C18 1.260 1_455 S
O8 Zn1 1.969 . S
O8 C18 1.258 . S
C9 O6 1.267 . S
C9 O10 1.228 . S
O10 C9 1.228 . S
O11 Zn0 2.024 . S
O11 C2 1.058 . S
C12 O13 1.228 . S
C12 O14 1.267 . S
O13 C12 1.228 . S
O14 Zn1 1.969 . S
O14 C12 1.267 . S
O15 Zn1 1.965 . S
O15 C19 1.260 1_655 S
O16 Zn0 1.969 . S
O16 C19 1.258 . S
O17 Zn1 2.024 . S
O17 C4 1.058 . S
C18 O7 1.260 1_655 S
C18 O8 1.258 . S
C19 O15 1.260 1_455 S
C19 O16 1.258 . S
Zn20 O26 1.969 . S
Zn20 O27 1.965 . S
Zn20 O31 2.024 . S
Zn20 O36 1.969 . S
Zn21 O28 1.969 . S
Zn21 O34 1.969 . S
Zn21 O35 1.965 . S
Zn21 O37 2.024 . S
C22 O23 1.229 . S
C22 O31 1.058 . S
O23 C22 1.229 . S
C24 O25 1.229 . S
C24 O37 1.058 . S
O25 C24 1.229 . S
O26 Zn20 1.969 . S
O26 C29 1.267 . S
O27 Zn20 1.965 . S
O27 C38 1.260 . S
O28 Zn21 1.969 . S
O28 C38 1.258 1_565 S
C29 O26 1.267 . S
C29 O30 1.228 . S
O30 C29 1.228 . S
O31 Zn20 2.024 . S
O31 C22 1.058 . S
C32 O33 1.228 . S
C32 O34 1.267 . S
O33 C32 1.228 . S
O34 Zn21 1.969 . S
O34 C32 1.267 . S
O35 Zn21 1.965 . S
O35 C39 1.260 1_565 S
O36 Zn20 1.969 . S
O36 C39 1.258 . S
O37 Zn21 2.024 . S
O37 C24 1.058 . S
C38 O27 1.260 . S
C38 O28 1.258 1_545 S
C39 O35 1.260 1_545 S
C39 O36 1.258 . S
Zn40 O46 1.969 . S
Zn40 O47 1.965 . S
Zn40 O51 2.024 . S
Zn40 O56 1.969 . S
Zn41 O48 1.969 . S
Zn41 O54 1.969 . S
Zn41 O55 1.965 . S
Zn41 O57 2.024 . S
C42 O43 1.229 . S
C42 O51 1.058 . S
O43 C42 1.229 . S
C44 O45 1.229 . S
C44 O57 1.058 . S
O45 C44 1.229 . S
O46 Zn40 1.969 . S
O46 C49 1.267 . S
O47 Zn40 1.965 . S
O47 C58 1.260 . S
O48 Zn41 1.969 . S
O48 C58 1.258 . S
C49 O46 1.267 . S
C49 O50 1.228 . S
O50 C49 1.228 . S
O51 Zn40 2.024 . S
O51 C42 1.058 . S
C52 O53 1.228 . S
C52 O54 1.267 . S
O53 C52 1.228 . S
O54 Zn41 1.969 . S
O54 C52 1.267 . S
O55 Zn41 1.965 . S
O55 C59 1.260 . S
O56 Zn40 1.969 . S
O56 C59 1.258 . S
O57 Zn41 2.024 . S
O57 C44 1.058 . S
C58 O47 1.260 . S
C58 O48 1.258 . S
C59 O55 1.260 . S
C59 O56 1.258 . S
C60 C61 1.384 . S
C60 H73 0.947 . S
C60 C95 1.382 . S
C61 C60 1.384 . S
C61 C62 1.378 . S
C62 C61 1.378 . S
C62 C63 1.378 . S
C62 H74 0.952 . S
C63 C62 1.378 . S
C63 H75 0.950 . S
C63 C94 1.383 . S
H64 C83 0.947 . S
H65 C84 0.946 . S
H66 C86 0.953 . S
H67 C87 0.945 . S
H68 C89 0.952 . S
H69 C90 0.949 . S
H70 C92 0.950 . S
H71 C93 0.948 . S
H72 C95 0.951 . S
H73 C60 0.947 . S
H74 C62 0.952 . S
H75 C63 0.950 . S
N76 C79 1.382 . S
N76 C81 1.363 1_545 S
N77 C79 1.371 . S
N77 C80 1.372 . S
N78 C80 1.361 1_565 S
N78 C81 1.377 . S
C79 N76 1.382 . S
C79 N77 1.371 . S
C79 C82 1.480 . S
C80 N77 1.372 . S
C80 N78 1.361 1_545 S
C80 C88 1.457 . S
C81 N76 1.363 1_565 S
C81 N78 1.377 . S
C81 C94 1.479 . S
C82 C79 1.480 . S
C82 C83 1.383 . S
C82 C87 1.385 . S
C83 H64 0.947 . S
C83 C82 1.383 . S
C83 C84 1.388 . S
C84 H65 0.946 . S
C84 C83 1.388 . S
C84 C85 1.384 . S
C85 C84 1.384 . S
C85 C86 1.377 . S
C86 H66 0.953 . S
C86 C85 1.377 . S
C86 C87 1.369 . S
C87 H67 0.945 . S
C87 C82 1.385 . S
C87 C86 1.369 . S
C88 C80 1.457 . S
C88 C89 1.372 . S
C88 C93 1.364 1_545 S
C89 H68 0.952 . S
C89 C88 1.372 . S
C89 C90 1.389 . S
C90 H69 0.949 . S
C90 C89 1.389 . S
C90 C91 1.387 . S
C91 C90 1.387 . S
C91 C92 1.372 1_545 S
C92 H70 0.950 . S
C92 C91 1.372 1_565 S
C92 C93 1.379 . S
C93 H71 0.948 . S
C93 C88 1.364 1_565 S
C93 C92 1.379 . S
C94 C63 1.383 . S
C94 C81 1.479 . S
C94 C95 1.398 . S
C95 C60 1.382 . S
C95 H72 0.951 . S
C95 C94 1.398 . S
C96 C97 1.384 . S
C96 H109 0.947 . S
C96 C131 1.382 . S
C97 C96 1.384 . S
C97 C98 1.378 . S
C98 C97 1.378 . S
C98 C99 1.378 . S
C98 H110 0.952 . S
C99 C98 1.378 . S
C99 H111 0.950 . S
C99 C130 1.383 . S
H100 C119 0.947 . S
H101 C120 0.946 . S
H102 C122 0.953 . S
H103 C123 0.945 . S
H104 C125 0.952 . S
H105 C126 0.949 . S
H106 C128 0.950 . S
H107 C129 0.948 . S
H108 C131 0.951 . S
H109 C96 0.947 . S
H110 C98 0.952 . S
H111 C99 0.950 . S
N112 C115 1.382 . S
N112 C117 1.363 . S
N113 C115 1.371 . S
N113 C116 1.372 . S
N114 C116 1.361 . S
N114 C117 1.377 . S
C115 N112 1.382 . S
C115 N113 1.371 . S
C115 C118 1.480 . S
C116 N113 1.372 . S
C116 N114 1.361 . S
C116 C124 1.457 . S
C117 N112 1.363 . S
C117 N114 1.377 . S
C117 C130 1.479 . S
C118 C115 1.480 . S
C118 C119 1.383 . S
C118 C123 1.385 . S
C119 H100 0.947 . S
C119 C118 1.383 . S
C119 C120 1.388 . S
C120 H101 0.946 . S
C120 C119 1.388 . S
C120 C121 1.384 . S
C121 C120 1.384 . S
C121 C122 1.377 . S
C122 H102 0.953 . S
C122 C121 1.377 . S
C122 C123 1.369 . S
C123 H103 0.945 . S
C123 C118 1.385 . S
C123 C122 1.369 . S
C124 C116 1.457 . S
C124 C125 1.372 . S
C124 C129 1.364 . S
C125 H104 0.952 . S
C125 C124 1.372 . S
C125 C126 1.389 . S
C126 H105 0.949 . S
C126 C125 1.389 . S
C126 C127 1.387 . S
C127 C126 1.387 . S
C127 C128 1.372 . S
C128 H106 0.950 . S
C128 C127 1.372 . S
C128 C129 1.379 . S
C129 H107 0.948 . S
C129 C124 1.364 . S
C129 C128 1.379 . S
C130 C99 1.383 . S
C130 C117 1.479 . S
C130 C131 1.398 . S
C131 C96 1.382 . S
C131 H108 0.951 . S
C131 C130 1.398 . S
C132 C133 1.384 . S
C132 H145 0.947 . S
C132 C167 1.382 . S
C133 C132 1.384 . S
C133 C134 1.378 . S
C134 C133 1.378 . S
C134 C135 1.378 . S
C134 H146 0.952 . S
C135 C134 1.378 . S
C135 H147 0.950 . S
C135 C166 1.383 . S
H136 C155 0.947 . S
H137 C156 0.946 . S
H138 C158 0.953 . S
H139 C159 0.945 . S
H140 C161 0.952 . S
H141 C162 0.949 . S
H142 C164 0.950 . S
H143 C165 0.948 . S
H144 C167 0.951 . S
H145 C132 0.947 . S
H146 C134 0.952 . S
H147 C135 0.950 . S
N148 C151 1.382 . S
N148 C153 1.363 1_455 S
N149 C151 1.371 . S
N149 C152 1.372 . S
N150 C152 1.361 1_655 S
N150 C153 1.377 . S
C151 N148 1.382 . S
C151 N149 1.371 . S
C151 C154 1.480 . S
C152 N149 1.372 . S
C152 N150 1.361 1_455 S
C152 C160 1.457 . S
C153 N148 1.363 1_655 S
C153 N150 1.377 . S
C153 C166 1.479 . S
C154 C151 1.480 . S
C154 C155 1.383 . S
C154 C159 1.385 . S
C155 H136 0.947 . S
C155 C154 1.383 . S
C155 C156 1.388 . S
C156 H137 0.946 . S
C156 C155 1.388 . S
C156 C157 1.384 . S
C157 C156 1.384 . S
C157 C158 1.377 . S
C158 H138 0.953 . S
C158 C157 1.377 . S
C158 C159 1.369 . S
C159 H139 0.945 . S
C159 C154 1.385 . S
C159 C158 1.369 . S
C160 C152 1.457 . S
C160 C161 1.372 . S
C160 C165 1.364 1_455 S
C161 H140 0.952 . S
C161 C160 1.372 . S
C161 C162 1.389 . S
C162 H141 0.949 . S
C162 C161 1.389 . S
C162 C163 1.387 . S
C163 C162 1.387 . S
C163 C164 1.372 1_455 S
C164 H142 0.950 . S
C164 C163 1.372 1_655 S
C164 C165 1.379 . S
C165 H143 0.948 . S
C165 C160 1.364 1_655 S
C165 C164 1.379 . S
C166 C135 1.383 . S
C166 C153 1.479 . S
C166 C167 1.398 . S
C167 C132 1.382 . S
C167 H144 0.951 . S
C167 C166 1.398 . S
C168 C169 1.384 . S
C168 H181 0.947 . S
C168 C203 1.382 . S
C169 C168 1.384 . S
C169 C170 1.378 . S
C170 C169 1.378 . S
C170 C171 1.378 . S
C170 H182 0.952 . S
C171 C170 1.378 . S
C171 H183 0.950 . S
C171 C202 1.383 . S
H172 C191 0.947 . S
H173 C192 0.946 . S
H174 C194 0.953 . S
H175 C195 0.945 . S
H176 C197 0.952 . S
H177 C198 0.949 . S
H178 C200 0.950 . S
H179 C201 0.948 . S
H180 C203 0.951 . S
H181 C168 0.947 . S
H182 C170 0.952 . S
H183 C171 0.950 . S
N184 C187 1.382 1_455 S
N184 C189 1.363 . S
N185 C187 1.371 . S
N185 C188 1.372 1_655 S
N186 C188 1.361 . S
N186 C189 1.377 . S
C187 N184 1.382 1_655 S
C187 N185 1.371 . S
C187 C190 1.480 . S
C188 N185 1.372 1_455 S
C188 N186 1.361 . S
C188 C196 1.457 . S
C189 N184 1.363 . S
C189 N186 1.377 . S
C189 C202 1.479 . S
C190 C187 1.480 . S
C190 C191 1.383 . S
C190 C195 1.385 . S
C191 H172 0.947 . S
C191 C190 1.383 . S
C191 C192 1.388 . S
C192 H173 0.946 . S
C192 C191 1.388 . S
C192 C193 1.384 . S
C193 C192 1.384 . S
C193 C194 1.377 . S
C194 H174 0.953 . S
C194 C193 1.377 . S
C194 C195 1.369 . S
C195 H175 0.945 . S
C195 C190 1.385 . S
C195 C194 1.369 . S
C196 C188 1.457 . S
C196 C197 1.372 1_455 S
C196 C201 1.364 . S
C197 H176 0.952 . S
C197 C196 1.372 1_655 S
C197 C198 1.389 . S
C198 H177 0.949 . S
C198 C197 1.389 . S
C198 C199 1.387 1_655 S
C199 C198 1.387 1_455 S
C199 C200 1.372 . S
C200 H178 0.950 . S
C200 C199 1.372 . S
C200 C201 1.379 . S
C201 H179 0.948 . S
C201 C196 1.364 . S
C201 C200 1.379 . S
C202 C171 1.383 . S
C202 C189 1.479 . S
C202 C203 1.398 . S
C203 C168 1.382 . S
C203 H180 0.951 . S
C203 C202 1.398 . S
C204 C205 1.384 . S
C204 H217 0.947 . S
C204 C239 1.382 . S
C205 C204 1.384 . S
C205 C206 1.378 . S
C206 C205 1.378 . S
C206 C207 1.378 . S
C206 H218 0.952 . S
C207 C206 1.378 . S
C207 H219 0.950 . S
C207 C238 1.383 . S
H208 C227 0.947 . S
H209 C228 0.946 . S
H210 C230 0.953 . S
H211 C231 0.945 . S
H212 C233 0.952 . S
H213 C234 0.949 . S
H214 C236 0.950 . S
H215 C237 0.948 . S
H216 C239 0.951 . S
H217 C204 0.947 . S
H218 C206 0.952 . S
H219 C207 0.950 . S
N220 C223 1.382 1_545 S
N220 C225 1.363 . S
N221 C223 1.371 . S
N221 C224 1.372 1_565 S
N222 C224 1.361 . S
N222 C225 1.377 . S
C223 N220 1.382 1_565 S
C223 N221 1.371 . S
C223 C226 1.480 . S
C224 N221 1.372 1_545 S
C224 N222 1.361 . S
C224 C232 1.457 . S
C225 N220 1.363 . S
C225 N222 1.377 . S
C225 C238 1.479 . S
C226 C223 1.480 . S
C226 C227 1.383 . S
C226 C231 1.385 . S
C227 H208 0.947 . S
C227 C226 1.383 . S
C227 C228 1.388 . S
C228 H209 0.946 . S
C228 C227 1.388 . S
C228 C229 1.384 . S
C229 C228 1.384 . S
C229 C230 1.377 . S
C230 H210 0.953 . S
C230 C229 1.377 . S
C230 C231 1.369 . S
C231 H211 0.945 . S
C231 C226 1.385 . S
C231 C230 1.369 . S
C232 C224 1.457 . S
C232 C233 1.372 1_545 S
C232 C237 1.364 . S
C233 H212 0.952 . S
C233 C232 1.372 1_565 S
C233 C234 1.389 . S
C234 H213 0.949 . S
C234 C233 1.389 . S
C234 C235 1.387 1_565 S
C235 C234 1.387 1_545 S
C235 C236 1.372 . S
C236 H214 0.950 . S
C236 C235 1.372 . S
C236 C237 1.379 . S
C237 H215 0.948 . S
C237 C232 1.364 . S
C237 C236 1.379 . S
C238 C207 1.383 . S
C238 C225 1.479 . S
C238 C239 1.398 . S
C239 C204 1.382 . S
C239 H216 0.951 . S
C239 C238 1.398 . S
C240 C241 1.384 . S
C240 H253 0.947 . S
C240 C275 1.382 . S
C241 C240 1.384 . S
C241 C242 1.378 . S
C242 C241 1.378 . S
C242 C243 1.378 . S
C242 H254 0.952 . S
C243 C242 1.378 . S
C243 H255 0.950 . S
C243 C274 1.383 . S
H244 C263 0.947 . S
H245 C264 0.946 . S
H246 C266 0.953 . S
H247 C267 0.945 . S
H248 C269 0.952 . S
H249 C270 0.949 . S
H250 C272 0.950 . S
H251 C273 0.948 . S
H252 C275 0.951 . S
H253 C240 0.947 . S
H254 C242 0.952 . S
H255 C243 0.950 . S
N256 C259 1.382 . S
N256 C261 1.363 . S
N257 C259 1.371 . S
N257 C260 1.372 . S
N258 C260 1.361 . S
N258 C261 1.377 . S
C259 N256 1.382 . S
C259 N257 1.371 . S
C259 C262 1.480 . S
C260 N257 1.372 . S
C260 N258 1.361 . S
C260 C268 1.457 . S
C261 N256 1.363 . S
C261 N258 1.377 . S
C261 C274 1.479 . S
C262 C259 1.480 . S
C262 C263 1.383 . S
C262 C267 1.385 . S
C263 H244 0.947 . S
C263 C262 1.383 . S
C263 C264 1.388 . S
C264 H245 0.946 . S
C264 C263 1.388 . S
C264 C265 1.384 . S
C265 C264 1.384 . S
C265 C266 1.377 . S
C266 H246 0.953 . S
C266 C265 1.377 . S
C266 C267 1.369 . S
C267 H247 0.945 . S
C267 C262 1.385 . S
C267 C266 1.369 . S
C268 C260 1.457 . S
C268 C269 1.372 . S
C268 C273 1.364 . S
C269 H248 0.952 . S
C269 C268 1.372 . S
C269 C270 1.389 . S
C270 H249 0.949 . S
C270 C269 1.389 . S
C270 C271 1.387 . S
C271 C270 1.387 . S
C271 C272 1.372 . S
C272 H250 0.950 . S
C272 C271 1.372 . S
C272 C273 1.379 . S
C273 H251 0.948 . S
C273 C268 1.364 . S
C273 C272 1.379 . S
C274 C243 1.383 . S
C274 C261 1.479 . S
C274 C275 1.398 . S
C275 C240 1.382 . S
C275 H252 0.951 . S
C275 C274 1.398 . S
H276 C282 0.930 . S
H277 C286 0.930 . S
H278 C291 0.929 . S
H279 C289 0.929 . S
H280 C284 0.929 . S
H281 C290 0.929 . S
C282 H276 0.930 . S
C282 C283 1.367 . S
C282 C290 1.378 . S
C283 C282 1.367 . S
C283 C291 1.433 . S
C284 H280 0.929 . S
C284 C286 1.378 . S
C284 C288 1.350 . S
C285 C288 1.463 . S
C285 C290 1.350 . S
C285 N293 1.427 . S
C286 H277 0.930 . S
C286 C284 1.378 . S
C286 C287 1.367 . S
C287 C286 1.367 . S
C287 C289 1.433 . S
C288 C284 1.350 . S
C288 C285 1.463 . S
C288 N292 1.427 . S
C289 H279 0.929 . S
C289 C287 1.433 . S
C289 N292 1.384 . S
C290 H281 0.929 . S
C290 C282 1.378 . S
C290 C285 1.350 . S
C291 H278 0.929 . S
C291 C283 1.433 . S
C291 N293 1.384 . S
N292 C288 1.427 . S
N292 C289 1.384 . S
N293 C285 1.427 . S
N293 C291 1.384 . S
H294 C300 0.930 . S
H295 C304 0.930 . S
H296 C309 0.929 . S
H297 C307 0.929 . S
H298 C302 0.929 . S
H299 C308 0.929 . S
C300 H294 0.930 . S
C300 C301 1.367 . S
C300 C308 1.378 . S
C301 C300 1.367 . S
C301 C309 1.433 . S
C302 H298 0.929 . S
C302 C304 1.378 . S
C302 C306 1.350 . S
C303 C306 1.463 . S
C303 C308 1.350 . S
C303 N311 1.427 . S
C304 H295 0.930 . S
C304 C302 1.378 . S
C304 C305 1.367 . S
C305 C304 1.367 . S
C305 C307 1.433 . S
C306 C302 1.350 . S
C306 C303 1.463 . S
C306 N310 1.427 . S
C307 H297 0.929 . S
C307 C305 1.433 . S
C307 N310 1.384 . S
C308 H299 0.929 . S
C308 C300 1.378 . S
C308 C303 1.350 . S
C309 H296 0.929 . S
C309 C301 1.433 . S
C309 N311 1.384 . S
N310 C306 1.427 . S
N310 C307 1.384 . S
N311 C303 1.427 . S
N311 C309 1.384 . S
H312 C318 0.930 . S
H313 C322 0.930 . S
H314 C327 0.929 . S
H315 C325 0.929 . S
H316 C320 0.929 . S
H317 C326 0.929 . S
C318 H312 0.930 . S
C318 C319 1.367 . S
C318 C326 1.378 . S
C319 C318 1.367 . S
C319 C327 1.433 . S
C320 H316 0.929 . S
C320 C322 1.378 . S
C320 C324 1.350 . S
C321 C324 1.463 . S
C321 C326 1.350 . S
C321 N329 1.427 . S
C322 H313 0.930 . S
C322 C320 1.378 . S
C322 C323 1.367 . S
C323 C322 1.367 . S
C323 C325 1.433 . S
C324 C320 1.350 . S
C324 C321 1.463 . S
C324 N328 1.427 . S
C325 H315 0.929 . S
C325 C323 1.433 . S
C325 N328 1.384 . S
C326 H317 0.929 . S
C326 C318 1.378 . S
C326 C321 1.350 . S
C327 H314 0.929 . S
C327 C319 1.433 . S
C327 N329 1.384 . S
N328 C324 1.427 . S
N328 C325 1.384 . S
N329 C321 1.427 . S
N329 C327 1.384 . S
H330 C336 0.930 . S
H331 C340 0.930 . S
H332 C345 0.929 . S
H333 C343 0.929 . S
H334 C338 0.929 . S
H335 C344 0.929 . S
C336 H330 0.930 . S
C336 C337 1.367 . S
C336 C344 1.378 . S
C337 C336 1.367 . S
C337 C345 1.433 . S
C338 H334 0.929 . S
C338 C340 1.378 . S
C338 C342 1.350 . S
C339 C342 1.463 . S
C339 C344 1.350 . S
C339 N347 1.427 . S
C340 H331 0.930 . S
C340 C338 1.378 . S
C340 C341 1.367 . S
C341 C340 1.367 . S
C341 C343 1.433 . S
C342 C338 1.350 . S
C342 C339 1.463 . S
C342 N346 1.427 . S
C343 H333 0.929 . S
C343 C341 1.433 . S
C343 N346 1.384 . S
C344 H335 0.929 . S
C344 C336 1.378 . S
C344 C339 1.350 . S
C345 H332 0.929 . S
C345 C337 1.433 . S
C345 N347 1.384 . S
N346 C342 1.427 . S
N346 C343 1.384 . S
N347 C339 1.427 . S
N347 C345 1.384 . S
H348 C354 0.930 . S
H349 C358 0.930 . S
H350 C363 0.929 . S
H351 C361 0.929 . S
H352 C356 0.929 . S
H353 C362 0.929 . S
C354 H348 0.930 . S
C354 C355 1.367 . S
C354 C362 1.378 . S
C355 C354 1.367 . S
C355 C363 1.433 . S
C356 H352 0.929 . S
C356 C358 1.378 . S
C356 C360 1.350 . S
C357 C360 1.463 . S
C357 C362 1.350 . S
C357 N365 1.427 . S
C358 H349 0.930 . S
C358 C356 1.378 . S
C358 C359 1.367 . S
C359 C358 1.367 . S
C359 C361 1.433 . S
C360 C356 1.350 . S
C360 C357 1.463 . S
C360 N364 1.427 . S
C361 H351 0.929 . S
C361 C359 1.433 . S
C361 N364 1.384 . S
C362 H353 0.929 . S
C362 C354 1.378 . S
C362 C357 1.350 . S
C363 H350 0.929 . S
C363 C355 1.433 . S
C363 N365 1.384 . S
N364 C360 1.427 . S
N364 C361 1.384 . S
N365 C357 1.427 . S
N365 C363 1.384 . S
H366 C372 0.930 . S
H367 C376 0.930 . S
H368 C381 0.929 . S
H369 C379 0.929 . S
H370 C374 0.929 . S
H371 C380 0.929 . S
C372 H366 0.930 . S
C372 C373 1.367 . S
C372 C380 1.378 . S
C373 C372 1.367 . S
C373 C381 1.433 . S
C374 H370 0.929 . S
C374 C376 1.378 . S
C374 C378 1.350 . S
C375 C378 1.463 . S
C375 C380 1.350 . S
C375 N383 1.427 . S
C376 H367 0.930 . S
C376 C374 1.378 . S
C376 C377 1.367 . S
C377 C376 1.367 . S
C377 C379 1.433 . S
C378 C374 1.350 . S
C378 C375 1.463 . S
C378 N382 1.427 . S
C379 H369 0.929 . S
C379 C377 1.433 . S
C379 N382 1.384 . S
C380 H371 0.929 . S
C380 C372 1.378 . S
C380 C375 1.350 . S
C381 H368 0.929 . S
C381 C373 1.433 . S
C381 N383 1.384 . S
N382 C378 1.427 . S
N382 C379 1.384 . S
N383 C375 1.427 . S
N383 C381 1.384 . S
H384 C390 0.930 . S
H385 C394 0.930 . S
H386 C399 0.929 . S
H387 C397 0.929 . S
H388 C392 0.929 . S
H389 C398 0.929 . S
C390 H384 0.930 . S
C390 C391 1.367 . S
C390 C398 1.378 . S
C391 C390 1.367 . S
C391 C399 1.433 . S
C392 H388 0.929 . S
C392 C394 1.378 . S
C392 C396 1.350 . S
C393 C396 1.463 . S
C393 C398 1.350 . S
C393 N401 1.427 . S
C394 H385 0.930 . S
C394 C392 1.378 . S
C394 C395 1.367 . S
C395 C394 1.367 . S
C395 C397 1.433 . S
C396 C392 1.350 . S
C396 C393 1.463 . S
C396 N400 1.427 . S
C397 H387 0.929 . S
C397 C395 1.433 . S
C397 N400 1.384 . S
C398 H389 0.929 . S
C398 C390 1.378 . S
C398 C393 1.350 . S
C399 H386 0.929 . S
C399 C391 1.433 . S
C399 N401 1.384 . S
N400 C396 1.427 . S
N400 C397 1.384 . S
N401 C393 1.427 . S
N401 C399 1.384 . S
H402 C408 0.930 . S
H403 C412 0.930 . S
H404 C417 0.929 . S
H405 C415 0.929 . S
H406 C410 0.929 . S
H407 C416 0.929 . S
C408 H402 0.930 . S
C408 C409 1.367 . S
C408 C416 1.378 . S
C409 C408 1.367 . S
C409 C417 1.433 . S
C410 H406 0.929 . S
C410 C412 1.378 . S
C410 C414 1.350 . S
C411 C414 1.463 . S
C411 C416 1.350 . S
C411 N419 1.427 . S
C412 H403 0.930 . S
C412 C410 1.378 . S
C412 C413 1.367 . S
C413 C412 1.367 . S
C413 C415 1.433 . S
C414 C410 1.350 . S
C414 C411 1.463 . S
C414 N418 1.427 . S
C415 H405 0.929 . S
C415 C413 1.433 . S
C415 N418 1.384 . S
C416 H407 0.929 . S
C416 C408 1.378 . S
C416 C411 1.350 . S
C417 H404 0.929 . S
C417 C409 1.433 . S
C417 N419 1.384 . S
N418 C414 1.427 . S
N418 C415 1.384 . S
N419 C411 1.427 . S
N419 C417 1.384 . S
H420 C426 0.930 . S
H421 C430 0.930 . S
H422 C435 0.929 . S
H423 C433 0.929 . S
H424 C428 0.929 . S
H425 C434 0.929 . S
C426 H420 0.930 . S
C426 C427 1.367 . S
C426 C434 1.378 . S
C427 C426 1.367 . S
C427 C435 1.433 . S
C428 H424 0.929 . S
C428 C430 1.378 . S
C428 C432 1.350 . S
C429 C432 1.463 . S
C429 C434 1.350 . S
C429 N437 1.427 . S
C430 H421 0.930 . S
C430 C428 1.378 . S
C430 C431 1.367 . S
C431 C430 1.367 . S
C431 C433 1.433 . S
C432 C428 1.350 . S
C432 C429 1.463 . S
C432 N436 1.427 . S
C433 H423 0.929 . S
C433 C431 1.433 . S
C433 N436 1.384 . S
C434 H425 0.929 . S
C434 C426 1.378 . S
C434 C429 1.350 . S
C435 H422 0.929 . S
C435 C427 1.433 . S
C435 N437 1.384 . S
N436 C432 1.427 . S
N436 C433 1.384 . S
N437 C429 1.427 . S
N437 C435 1.384 . S
H438 C444 0.930 . S
H439 C448 0.930 . S
H440 C453 0.929 . S
H441 C451 0.929 . S
H442 C446 0.929 . S
H443 C452 0.929 . S
C444 H438 0.930 . S
C444 C445 1.367 . S
C444 C452 1.378 . S
C445 C444 1.367 . S
C445 C453 1.433 . S
C446 H442 0.929 . S
C446 C448 1.378 . S
C446 C450 1.350 . S
C447 C450 1.463 . S
C447 C452 1.350 . S
C447 N455 1.427 . S
C448 H439 0.930 . S
C448 C446 1.378 . S
C448 C449 1.367 . S
C449 C448 1.367 . S
C449 C451 1.433 . S
C450 C446 1.350 . S
C450 C447 1.463 . S
C450 N454 1.427 . S
C451 H441 0.929 . S
C451 C449 1.433 . S
C451 N454 1.384 . S
C452 H443 0.929 . S
C452 C444 1.378 . S
C452 C447 1.350 . S
C453 H440 0.929 . S
C453 C445 1.433 . S
C453 N455 1.384 . S
N454 C450 1.427 . S
N454 C451 1.384 . S
N455 C447 1.427 . S
N455 C453 1.384 . S
H456 C462 0.930 . S
H457 C466 0.930 . S
H458 C471 0.929 . S
H459 C469 0.929 . S
H460 C464 0.929 . S
H461 C470 0.929 . S
C462 H456 0.930 . S
C462 C463 1.367 . S
C462 C470 1.378 . S
C463 C462 1.367 . S
C463 C471 1.433 . S
C464 H460 0.929 . S
C464 C466 1.378 . S
C464 C468 1.350 . S
C465 C468 1.463 . S
C465 C470 1.350 . S
C465 N473 1.427 . S
C466 H457 0.930 . S
C466 C464 1.378 . S
C466 C467 1.367 . S
C467 C466 1.367 . S
C467 C469 1.433 . S
C468 C464 1.350 . S
C468 C465 1.463 . S
C468 N472 1.427 . S
C469 H459 0.929 . S
C469 C467 1.433 . S
C469 N472 1.384 . S
C470 H461 0.929 . S
C470 C462 1.378 . S
C470 C465 1.350 . S
C471 H458 0.929 . S
C471 C463 1.433 . S
C471 N473 1.384 . S
N472 C468 1.427 . S
N472 C469 1.384 . S
N473 C465 1.427 . S
N473 C471 1.384 . S
H474 C480 0.930 . S
H475 C484 0.930 . S
H476 C489 0.929 . S
H477 C487 0.929 . S
H478 C482 0.929 . S
H479 C488 0.929 . S
C480 H474 0.930 . S
C480 C481 1.367 . S
C480 C488 1.378 . S
C481 C480 1.367 . S
C481 C489 1.433 . S
C482 H478 0.929 . S
C482 C484 1.378 . S
C482 C486 1.350 . S
C483 C486 1.463 . S
C483 C488 1.350 . S
C483 N491 1.427 . S
C484 H475 0.930 . S
C484 C482 1.378 . S
C484 C485 1.367 . S
C485 C484 1.367 . S
C485 C487 1.433 . S
C486 C482 1.350 . S
C486 C483 1.463 . S
C486 N490 1.427 . S
C487 H477 0.929 . S
C487 C485 1.433 . S
C487 N490 1.384 . S
C488 H479 0.929 . S
C488 C480 1.378 . S
C488 C483 1.350 . S
C489 H476 0.929 . S
C489 C481 1.433 . S
C489 N491 1.384 . S
N490 C486 1.427 . S
N490 C487 1.384 . S
N491 C483 1.427 . S
N491 C489 1.384 . S
H492 C498 0.930 . S
H493 C502 0.930 . S
H494 C507 0.929 . S
H495 C505 0.929 1_655 S
H496 C500 0.929 . S
H497 C506 0.929 . S
C498 H492 0.930 . S
C498 C499 1.367 1_655 S
C498 C506 1.378 . S
C499 C498 1.367 1_455 S
C499 C507 1.433 . S
C500 H496 0.929 . S
C500 C502 1.378 . S
C500 C504 1.350 . S
C501 C504 1.463 . S
C501 C506 1.350 1_455 S
C501 N509 1.427 . S
C502 H493 0.930 . S
C502 C500 1.378 . S
C502 C503 1.367 . S
C503 C502 1.367 . S
C503 C505 1.433 . S
C504 C500 1.350 . S
C504 C501 1.463 . S
C504 N508 1.425 1_455 S
C505 H495 0.929 1_455 S
C505 C503 1.433 . S
C505 N508 1.382 1_455 S
C506 H497 0.929 . S
C506 C498 1.378 . S
C506 C501 1.350 1_655 S
C507 H494 0.929 . S
C507 C499 1.433 . S
C507 N509 1.384 . S
N508 C504 1.425 1_655 S
N508 C505 1.382 1_655 S
N509 C501 1.427 . S
N509 C507 1.384 . S
H510 C516 0.930 . S
H511 C520 0.930 1_565 S
H512 C525 0.929 . S
H513 C523 0.929 . S
H514 C518 0.930 . S
H515 C524 0.929 . S
C516 H510 0.930 . S
C516 C517 1.367 . S
C516 C524 1.378 . S
C517 C516 1.367 . S
C517 C525 1.433 1_545 S
C518 H514 0.930 . S
C518 C520 1.377 1_565 S
C518 C522 1.349 1_565 S
C519 C522 1.463 . S
C519 C524 1.350 . S
C519 N527 1.427 1_545 S
C520 H511 0.930 1_545 S
C520 C518 1.377 1_545 S
C520 C521 1.367 . S
C521 C520 1.367 . S
C521 C523 1.433 . S
C522 C518 1.349 1_545 S
C522 C519 1.463 . S
C522 N526 1.427 . S
C523 H513 0.929 . S
C523 C521 1.433 . S
C523 N526 1.384 . S
C524 H515 0.929 . S
C524 C516 1.378 . S
C524 C519 1.350 . S
C525 H512 0.929 . S
C525 C517 1.433 1_565 S
C525 N527 1.384 . S
N526 C522 1.427 . S
N526 C523 1.384 . S
N527 C519 1.427 1_565 S
N527 C525 1.384 . S
H528 C534 0.930 . S
H529 C538 0.930 . S
H530 C543 0.929 . S
H531 C541 0.929 . S
H532 C536 0.929 . S
H533 C542 0.929 . S
C534 H528 0.930 . S
C534 C535 1.367 . S
C534 C542 1.378 . S
C535 C534 1.367 . S
C535 C543 1.433 . S
C536 H532 0.929 . S
C536 C538 1.378 . S
C536 C540 1.350 . S
C537 C540 1.463 . S
C537 C542 1.350 . S
C537 N545 1.427 . S
C538 H529 0.930 . S
C538 C536 1.378 . S
C538 C539 1.367 . S
C539 C538 1.367 . S
C539 C541 1.433 . S
C540 C536 1.350 . S
C540 C537 1.463 . S
C540 N544 1.427 . S
C541 H531 0.929 . S
C541 C539 1.433 . S
C541 N544 1.384 . S
C542 H533 0.929 . S
C542 C534 1.378 . S
C542 C537 1.350 . S
C543 H530 0.929 . S
C543 C535 1.433 . S
C543 N545 1.384 . S
N544 C540 1.427 . S
N544 C541 1.384 . S
N545 C537 1.427 . S
N545 C543 1.384 . S
H546 C552 0.930 . S
H547 C556 0.930 . S
H548 C561 0.929 . S
H549 C559 0.929 . S
H550 C554 0.929 . S
H551 C560 0.929 . S
C552 H546 0.930 . S
C552 C553 1.367 . S
C552 C560 1.378 . S
C553 C552 1.367 . S
C553 C561 1.433 1_545 S
C554 H550 0.929 . S
C554 C556 1.378 . S
C554 C558 1.350 1_565 S
C555 C558 1.463 . S
C555 C560 1.350 . S
C555 N563 1.427 1_545 S
C556 H547 0.930 . S
C556 C554 1.378 . S
C556 C557 1.367 1_565 S
C557 C556 1.367 1_545 S
C557 C559 1.433 . S
C558 C554 1.350 1_545 S
C558 C555 1.463 . S
C558 N562 1.427 . S
C559 H549 0.929 . S
C559 C557 1.433 . S
C559 N562 1.384 . S
C560 H551 0.929 . S
C560 C552 1.378 . S
C560 C555 1.350 . S
C561 H548 0.929 . S
C561 C553 1.433 1_565 S
C561 N563 1.384 . S
N562 C558 1.427 . S
N562 C559 1.384 . S
N563 C555 1.427 1_565 S
N563 C561 1.384 . S
H564 C570 0.930 . S
H565 C574 0.930 . S
H566 C579 0.929 . S
H567 C577 0.929 . S
H568 C572 0.929 . S
H569 C578 0.929 . S
C570 H564 0.930 . S
C570 C571 1.367 . S
C570 C578 1.378 . S
C571 C570 1.367 . S
C571 C579 1.433 . S
C572 H568 0.929 . S
C572 C574 1.378 . S
C572 C576 1.350 . S
C573 C576 1.463 . S
C573 C578 1.350 . S
C573 N581 1.427 . S
C574 H565 0.930 . S
C574 C572 1.378 . S
C574 C575 1.367 . S
C575 C574 1.367 . S
C575 C577 1.433 . S
C576 C572 1.350 . S
C576 C573 1.463 . S
C576 N580 1.427 . S
C577 H567 0.929 . S
C577 C575 1.433 . S
C577 N580 1.384 . S
C578 H569 0.929 . S
C578 C570 1.378 . S
C578 C573 1.350 . S
C579 H566 0.929 . S
C579 C571 1.433 . S
C579 N581 1.384 . S
N580 C576 1.427 . S
N580 C577 1.384 . S
N581 C573 1.427 . S
N581 C579 1.384 . S
H582 C588 0.930 . S
H583 C592 0.930 . S
H584 C597 0.929 . S
H585 C595 0.929 . S
H586 C590 0.929 . S
H587 C596 0.929 . S
C588 H582 0.930 . S
C588 C589 1.360 . S
C588 C596 1.378 . S
C589 C588 1.360 . S
C589 C597 1.440 1_655 S
C590 H586 0.929 . S
C590 C592 1.378 . S
C590 C594 1.350 . S
C591 C594 1.463 . S
C591 C596 1.350 1_455 S
C591 N599 1.427 . S
C592 H583 0.930 . S
C592 C590 1.378 . S
C592 C593 1.367 . S
C593 C592 1.367 . S
C593 C595 1.433 1_455 S
C594 C590 1.350 . S
C594 C591 1.463 . S
C594 N598 1.427 1_455 S
C595 H585 0.929 . S
C595 C593 1.433 1_655 S
C595 N598 1.384 . S
C596 H587 0.929 . S
C596 C588 1.378 . S
C596 C591 1.350 1_655 S
C597 H584 0.929 . S
C597 C589 1.440 1_455 S
C597 N599 1.384 . S
N598 C594 1.427 1_655 S
N598 C595 1.384 . S
N599 C591 1.427 . S
N599 C597 1.384 . S
C283 C2 1.364 . S
C287 C265 1.424 . S
C301 C22 1.333 . S
C305 C193 1.407 . S
C319 C44 1.392 . S
C323 C229 1.450 . S
C337 C4 1.555 . S
C341 C241 1.641 . S
C359 C169 1.661 . S
C355 C24 1.585 . S
C377 C205 1.600 . S
C373 C42 1.511 . S
C391 C32 1.333 . S
C395 C121 1.322 . S
C409 C49 1.288 . S
C413 C133 1.285 . S
C427 C9 1.272 . S
C431 C61 1.277 . S
C449 C97 1.283 . S
C445 C29 1.233 . S
C467 C157 1.285 . S
C463 C52 1.267 . S
C481 C12 1.257 . S
C485 C85 1.281 . S
C503 C163 1.437 1_554 S
C499 C18 1.432 1_455 S
C517 C38 1.430 . S
C521 C91 1.433 . S
C535 C58 1.424 . S
C539 C127 1.443 . S
C557 C235 1.502 . S
C553 C39 1.484 . S
C575 C271 1.492 1_556 S
C571 C59 1.464 . S
C589 C19 1.466 1_655 S
C593 C199 1.492 . S
