# Generated by pormake.
# Topology pth, (4,4)-cn, num edge types: 1
# Building blocks:
#     Node 0, Type 0, BuildingBlock: CEKHIL_clean_sbu_0, # of connection points: 4
#     Node 1, Type 0, BuildingBlock: CEKHIL_clean_sbu_0, # of connection points: 4
#     Node 2, Type 0, BuildingBlock: CEKHIL_clean_sbu_0, # of connection points: 4
#     Node 3, Type 1, BuildingBlock: MUDLON_clean_linker_0, # of connection points: 4
#     Node 4, Type 1, BuildingBlock: MUDLON_clean_linker_0, # of connection points: 4
#     Node 5, Type 1, BuildingBlock: MUDLON_clean_linker_0, # of connection points: 4
#     Edge 6, Type (0, 1), BuildingBlock: UVAHIK_clean_linker_0, # of connection points: 2
#     Edge 7, Type (0, 1), BuildingBlock: UVAHIK_clean_linker_0, # of connection points: 2
#     Edge 8, Type (0, 1), BuildingBlock: UVAHIK_clean_linker_0, # of connection points: 2
#     Edge 9, Type (0, 1), BuildingBlock: UVAHIK_clean_linker_0, # of connection points: 2
#     Edge 10, Type (0, 1), BuildingBlock: UVAHIK_clean_linker_0, # of connection points: 2
#     Edge 11, Type (0, 1), BuildingBlock: UVAHIK_clean_linker_0, # of connection points: 2
#     Edge 12, Type (0, 1), BuildingBlock: UVAHIK_clean_linker_0, # of connection points: 2
#     Edge 13, Type (0, 1), BuildingBlock: UVAHIK_clean_linker_0, # of connection points: 2
#     Edge 14, Type (0, 1), BuildingBlock: UVAHIK_clean_linker_0, # of connection points: 2
#     Edge 15, Type (0, 1), BuildingBlock: UVAHIK_clean_linker_0, # of connection points: 2
#     Edge 16, Type (0, 1), BuildingBlock: UVAHIK_clean_linker_0, # of connection points: 2
#     Edge 17, Type (0, 1), BuildingBlock: UVAHIK_clean_linker_0, # of connection points: 2
# Relax obj value: 0.034
# Max RMSD: 0.091
# Mean RMSD: 0.088
data_MOF--net-pth--node1-CEKHIL_clean_sbu_0--node2-MUDLON_clean_linker_0--edge1-UVAHIK_clean_linker_0
_symmetry_space_group_name_H-M    P1
_symmetry_Int_Tables_number       1
_symmetry_cell_setting            triclinic
loop_
_symmetry_equiv_pos_as_xyz
'x, y, z'
_cell_length_a     40.550925
_cell_length_b     40.658935
_cell_length_c     84.326853
_cell_angle_alpha  90.786882
_cell_angle_beta   89.988636
_cell_angle_gamma 120.26551
loop_
_atom_site_label
_atom_site_type_symbol
_atom_site_fract_x
_atom_site_fract_y
_atom_site_fract_z
_atom_type_partial_charge
Co0 Co 0.0095 0.01618 0.05059 0.0
O1 O 0.98674 0.97646 0.06589 0.0
O2 O 0.03438 0.98609 0.05011 0.0
C3 C 0.01503 0.06349 0.06662 0.0
O4 O 0.04114 0.05531 0.0339 0.0
Co5 Co 0.96589 0.05671 0.03976 0.0
O6 O 0.01435 0.09097 0.02881 0.0
C7 C 0.93943 0.97807 0.02919 0.0
C8 C 0.01082 0.96622 0.06128 0.0
C9 C 0.04121 0.08356 0.02713 0.0
O10 O 0.97091 0.98131 0.03422 0.0
O11 O 0.93033 0.00363 0.03165 0.0
O12 O 0.04047 0.05303 0.06712 0.0
O13 O 0.98559 0.04268 0.05774 0.0
Co14 Co 0.01383 0.02155 0.37089 0.0
O15 O 0.98896 0.03698 0.35582 0.0
O16 O 0.03748 0.07653 0.37124 0.0
C17 C 0.01901 0.98002 0.3546 0.0
O18 O 0.04789 0.01613 0.38725 0.0
Co19 Co 0.97527 0.93786 0.38207 0.0
O20 O 0.02736 0.9538 0.38989 0.0
C21 C 0.94863 0.98855 0.39465 0.0
C22 C 0.01299 0.07178 0.36019 0.0
C23 C 0.05219 0.98875 0.39232 0.0
O24 O 0.97636 0.01709 0.3877 0.0
O25 O 0.94199 0.95436 0.39306 0.0
O26 O 0.04383 0.0162 0.354 0.0
O27 O 0.99043 0.97075 0.3639 0.0
Co28 Co 0.01035 0.01363 0.70204 0.0
O29 O 0.05161 0.0344 0.68719 0.0
O30 O 0.03844 0.98682 0.70336 0.0
C31 C 0.96488 0.00922 0.68534 0.0
O32 O 0.96937 0.98398 0.71848 0.0
Co33 Co 0.97114 0.05994 0.71149 0.0
O34 O 0.93444 0.01229 0.72227 0.0
C35 C 0.04906 0.08484 0.72267 0.0
C36 C 0.05995 0.0095 0.69231 0.0
C37 C 0.94076 0.98501 0.72459 0.0
O38 O 0.04487 0.05237 0.7185 0.0
O39 O 0.02456 0.09484 0.71939 0.0
O40 O 0.97401 0.98283 0.6853 0.0
O41 O 0.98599 0.03869 0.69416 0.0
H42 H 0.9251 0.63583 0.22302 0.0
N43 N 0.97379 0.62279 0.20708 0.0
H44 H 0.93888 0.67913 0.24572 0.0
H45 H 0.04254 0.66335 0.22256 0.0
H46 H 0.05649 0.70605 0.24536 0.0
H47 H 0.0422 0.67696 0.19505 0.0
H48 H 0.05103 0.71406 0.17123 0.0
H49 H 0.9215 0.61029 0.18533 0.0
H50 H 0.93011 0.64576 0.16104 0.0
H51 H 0.9151 0.55309 0.21007 0.0
H52 H 0.03743 0.61595 0.20566 0.0
H53 H 0.91616 0.49387 0.21205 0.0
H54 H 0.03948 0.55742 0.20893 0.0
H55 H 0.92263 0.31854 0.2325 0.0
H56 H 0.93529 0.29468 0.25691 0.0
H57 H 0.05308 0.3852 0.25589 0.0
H58 H 0.03973 0.40959 0.23164 0.0
H59 H 0.04253 0.39223 0.20516 0.0
H60 H 0.05599 0.36282 0.18264 0.0
H61 H 0.93504 0.29554 0.17229 0.0
H62 H 0.92218 0.32663 0.19451 0.0
H63 H 0.92802 0.3978 0.23013 0.0
H64 H 0.93073 0.45893 0.22901 0.0
H65 H 0.02685 0.50012 0.19722 0.0
N66 N 0.97202 0.37651 0.21531 0.0
H67 H 0.02574 0.44022 0.19941 0.0
C68 C 0.98262 0.64634 0.22111 0.0
C69 C 0.95371 0.65085 0.22799 0.0
C70 C 0.96164 0.67541 0.24099 0.0
C71 C 0.99882 0.69605 0.24735 0.0
C72 C 0.02766 0.69088 0.24062 0.0
C73 C 0.01965 0.66624 0.22761 0.0
C74 C 0.98097 0.64136 0.19206 0.0
C75 C 0.01769 0.66989 0.18764 0.0
C76 C 0.02272 0.69089 0.17391 0.0
C77 C 0.99117 0.68337 0.16432 0.0
C78 C 0.9549 0.65306 0.16834 0.0
C79 C 0.9499 0.63249 0.18212 0.0
C80 C 0.97606 0.58877 0.208 0.0
C81 C 0.94225 0.554 0.20975 0.0
C82 C 0.94307 0.52028 0.21107 0.0
C83 C 0.978 0.52067 0.21096 0.0
C84 C 0.012 0.55578 0.20899 0.0
C85 C 0.011 0.58948 0.20734 0.0
C86 C 0.98024 0.36537 0.23023 0.0
C87 C 0.951 0.33346 0.2377 0.0
C88 C 0.95827 0.32003 0.25163 0.0
C89 C 0.99519 0.3381 0.25826 0.0
C90 C 0.02445 0.37063 0.25094 0.0
C91 C 0.01693 0.38447 0.2371 0.0
C92 C 0.98122 0.36169 0.20145 0.0
C93 C 0.01896 0.37154 0.19793 0.0
C94 C 0.02658 0.35443 0.18508 0.0
C95 C 0.99661 0.32657 0.17565 0.0
C96 C 0.95893 0.31729 0.17909 0.0
C97 C 0.95143 0.33481 0.19183 0.0
C98 C 0.97619 0.41389 0.21478 0.0
C99 C 0.94994 0.42025 0.22307 0.0
C100 C 0.95131 0.45515 0.22225 0.0
C101 C 0.97858 0.4845 0.21276 0.0
C102 C 0.00559 0.47846 0.20475 0.0
C103 C 0.00472 0.44373 0.20588 0.0
H104 H 0.67636 0.04905 0.55368 0.0
N105 N 0.61265 0.98754 0.54083 0.0
H106 H 0.71272 0.04886 0.57657 0.0
H107 H 0.59427 0.9304 0.56053 0.0
H108 H 0.63028 0.93011 0.58386 0.0
H109 H 0.61526 0.93594 0.52221 0.0
H110 H 0.65656 0.94711 0.49928 0.0
H111 H 0.66065 0.05676 0.52773 0.0
H112 H 0.70321 0.06832 0.5051 0.0
H113 H 0.61432 0.0454 0.55918 0.0
H114 H 0.55054 0.961 0.52285 0.0
H115 H 0.56564 0.06314 0.56008 0.0
H116 H 0.50291 0.98072 0.52277 0.0
H117 H 0.39357 0.10853 0.56112 0.0
H118 H 0.35348 0.09494 0.58446 0.0
H119 H 0.34411 0.98446 0.58766 0.0
H120 H 0.38209 0.99739 0.5639 0.0
H121 H 0.34613 0.99792 0.53708 0.0
H122 H 0.30604 0.99031 0.51416 0.0
H123 H 0.38648 0.1054 0.50019 0.0
H124 H 0.42613 0.11293 0.52343 0.0
H125 H 0.48651 0.10881 0.55036 0.0
H126 H 0.53731 0.09339 0.54801 0.0
H127 H 0.45255 0.97623 0.53702 0.0
N128 N 0.41207 0.06267 0.54599 0.0
H129 H 0.40287 0.99277 0.53819 0.0
C130 C 0.63253 0.98954 0.55533 0.0
C131 C 0.66586 0.02301 0.56021 0.0
C132 C 0.68651 0.02296 0.57344 0.0
C133 C 0.67445 0.98944 0.58203 0.0
C134 C 0.64054 0.95628 0.57739 0.0
C135 C 0.61982 0.95643 0.56416 0.0
C136 C 0.63525 0.99541 0.52673 0.0
C137 C 0.63401 0.96484 0.51837 0.0
C138 C 0.65748 0.97128 0.5053 0.0
C139 C 0.68308 0.00858 0.50048 0.0
C140 C 0.68387 0.03933 0.50867 0.0
C141 C 0.65975 0.03277 0.5216 0.0
C142 C 0.58593 0.00118 0.54106 0.0
C143 C 0.59015 0.03084 0.55122 0.0
C144 C 0.56221 0.04137 0.55161 0.0
C145 C 0.52989 0.02326 0.54159 0.0
C146 C 0.52667 0.99469 0.53101 0.0
C147 C 0.55412 0.9836 0.53089 0.0
C148 C 0.39139 0.05445 0.56073 0.0
C149 C 0.38312 0.08155 0.56698 0.0
C150 C 0.36034 0.07373 0.58041 0.0
C151 C 0.34552 0.03856 0.58807 0.0
C152 C 0.35449 0.01163 0.58198 0.0
C153 C 0.37682 0.01928 0.56839 0.0
C154 C 0.38914 0.05618 0.53197 0.0
C155 C 0.35536 0.02138 0.52902 0.0
C156 C 0.33252 0.01703 0.51584 0.0
C157 C 0.34298 0.04731 0.50536 0.0
C158 C 0.37731 0.08171 0.50815 0.0
C159 C 0.40011 0.08601 0.52133 0.0
C160 C 0.44095 0.05203 0.54467 0.0
C161 C 0.47914 0.07988 0.54738 0.0
C162 C 0.50807 0.07085 0.54615 0.0
C163 C 0.49928 0.03341 0.54241 0.0
C164 C 0.46078 0.00553 0.53964 0.0
C165 C 0.43204 0.01483 0.54053 0.0
H166 H 0.62027 0.71813 0.89151 0.0
N167 N 0.61245 0.65837 0.87517 0.0
H168 H 0.65979 0.74792 0.91512 0.0
H169 H 0.65313 0.63258 0.89127 0.0
H170 H 0.69156 0.66109 0.91519 0.0
H171 H 0.67165 0.65177 0.86368 0.0
H172 H 0.71132 0.68556 0.84096 0.0
H173 H 0.59825 0.69716 0.8539 0.0
H174 H 0.63614 0.72928 0.83062 0.0
H175 H 0.54192 0.64621 0.87534 0.0
H176 H 0.6063 0.58845 0.87445 0.0
H177 H 0.48249 0.58522 0.87605 0.0
H178 H 0.54727 0.52708 0.87654 0.0
H179 H 0.3094 0.40598 0.8971 0.0
H180 H 0.28277 0.36786 0.92094 0.0
H181 H 0.36558 0.33105 0.91769 0.0
H182 H 0.39314 0.3707 0.89413 0.0
H183 H 0.37883 0.35613 0.86721 0.0
H184 H 0.34976 0.31703 0.84346 0.0
H185 H 0.28809 0.37646 0.83535 0.0
H186 H 0.3183 0.41615 0.85894 0.0
H187 H 0.38376 0.47707 0.8931 0.0
H188 H 0.44493 0.53625 0.89273 0.0
H189 H 0.49185 0.48075 0.86405 0.0
N190 N 0.36546 0.41113 0.87924 0.0
H191 H 0.43145 0.42111 0.86564 0.0
C192 C 0.63361 0.67319 0.88972 0.0
C193 C 0.63554 0.70546 0.89676 0.0
C194 C 0.65795 0.72223 0.9103 0.0
C195 C 0.67883 0.70685 0.91711 0.0
C196 C 0.67622 0.67394 0.91016 0.0
C197 C 0.65392 0.65733 0.89655 0.0
C198 C 0.63247 0.67264 0.86055 0.0
C199 C 0.6637 0.66845 0.85643 0.0
C200 C 0.68618 0.68761 0.84335 0.0
C201 C 0.67741 0.71081 0.83408 0.0
C202 C 0.64448 0.71265 0.83773 0.0
C203 C 0.62249 0.69399 0.8509 0.0
C204 C 0.57828 0.62176 0.87516 0.0
C205 C 0.54306 0.62017 0.8755 0.0
C206 C 0.50918 0.58521 0.87611 0.0
C207 C 0.50982 0.55092 0.87671 0.0
C208 C 0.54543 0.55269 0.87604 0.0
C209 C 0.57936 0.58782 0.87508 0.0
C210 C 0.35268 0.39062 0.8938 0.0
C211 C 0.32209 0.3901 0.90169 0.0
C212 C 0.30707 0.36848 0.91528 0.0
C213 C 0.32213 0.34651 0.92108 0.0
C214 C 0.35339 0.34761 0.91335 0.0
C215 C 0.36896 0.36999 0.8999 0.0
C216 C 0.35071 0.38917 0.8648 0.0
C217 C 0.35937 0.36101 0.86025 0.0
C218 C 0.34253 0.33848 0.84669 0.0
C219 C 0.31652 0.34351 0.83748 0.0
C220 C 0.30845 0.37218 0.84198 0.0
C221 C 0.32547 0.39477 0.85549 0.0
C222 C 0.40271 0.44482 0.87924 0.0
C223 C 0.40745 0.47771 0.88689 0.0
C224 C 0.44241 0.51165 0.88647 0.0
C225 C 0.47341 0.51379 0.87805 0.0
C226 C 0.46887 0.48037 0.87073 0.0
C227 C 0.43401 0.4461 0.87149 0.0
C228 C 0.0484 0.11478 0.08719 0.0
C229 C 0.01888 0.09623 0.07595 0.0
C230 C 0.05039 0.14396 0.09684 0.0
C231 C 0.01708 0.21295 0.10097 0.0
H232 H 0.02831 0.20309 0.14603 0.0
C233 C 0.98264 0.29445 0.14874 0.0
C234 C 0.00435 0.30583 0.16285 0.0
C235 C 0.98808 0.27246 0.13729 0.0
C236 C 0.02588 0.20682 0.13348 0.0
H237 H 0.96916 0.09459 0.06553 0.0
H238 H 0.97273 0.14565 0.08235 0.0
H239 H 0.03204 0.15897 0.1274 0.0
H240 H 0.04953 0.30357 0.17572 0.0
H241 H 0.06008 0.26681 0.15553 0.0
H242 H 0.01088 0.26084 0.10706 0.0
C243 C 0.99435 0.13768 0.08369 0.0
C244 C 0.02794 0.18141 0.1228 0.0
C245 C 0.99217 0.10829 0.07414 0.0
C246 C 0.03252 0.29575 0.16496 0.0
C247 C 0.03819 0.2741 0.15346 0.0
C248 C 0.01535 0.23864 0.11166 0.0
C249 C 0.02308 0.15535 0.09533 0.0
C250 C 0.02322 0.18397 0.10646 0.0
C251 C 0.01557 0.26155 0.13962 0.0
C252 C 0.01939 0.23567 0.12807 0.0
H253 H 0.06948 0.10619 0.08881 0.0
H254 H 0.07309 0.15737 0.1056 0.0
H255 H 0.0137 0.21578 0.08841 0.0
H256 H 0.96111 0.30218 0.14659 0.0
H257 H 0.96991 0.26309 0.12684 0.0
C258 C 0.92155 0.02901 0.40414 0.0
C259 C 0.92291 0.99518 0.40499 0.0
C260 C 0.89585 0.03412 0.41348 0.0
C261 C 0.80635 0.97838 0.43612 0.0
H262 H 0.83362 0.0759 0.45553 0.0
C263 C 0.69683 0.99437 0.47314 0.0
C264 C 0.71007 0.01494 0.48747 0.0
C265 C 0.72259 0.99646 0.46165 0.0
C266 C 0.8256 0.04842 0.45025 0.0
H267 H 0.89936 0.94088 0.41679 0.0
H268 H 0.85563 0.95018 0.43327 0.0
H269 H 0.87984 0.07012 0.43893 0.0
H270 H 0.76041 0.05487 0.50086 0.0
H271 H 0.80561 0.05774 0.48103 0.0
H272 H 0.75303 0.95606 0.44796 0.0
C273 C 0.87342 0.97232 0.42506 0.0
C274 C 0.85197 0.04521 0.44058 0.0
C275 C 0.89874 0.96708 0.41565 0.0
C276 C 0.7495 0.03895 0.48984 0.0
C277 C 0.77536 0.04063 0.47843 0.0
C278 C 0.78022 0.98149 0.44585 0.0
C279 C 0.87119 0.00562 0.42394 0.0
C280 C 0.8428 0.00999 0.43356 0.0
C281 C 0.76223 0.01865 0.46436 0.0
C282 C 0.78952 0.01645 0.45316 0.0
H283 H 0.93972 0.0512 0.39601 0.0
H284 H 0.89473 0.06001 0.41223 0.0
H285 H 0.79797 0.95097 0.43068 0.0
H286 H 0.66651 0.97601 0.47097 0.0
H287 H 0.71137 0.97993 0.45079 0.0
C288 C 0.915 0.91955 0.73595 0.0
C289 C 0.91391 0.95349 0.73487 0.0
C290 C 0.88881 0.88978 0.74545 0.0
C291 C 0.79501 0.85455 0.765 0.0
H292 H 0.82707 0.79853 0.79161 0.0
C293 C 0.70986 0.77192 0.81909 0.0
C294 C 0.70357 0.73496 0.82135 0.0
C295 C 0.73457 0.79512 0.80737 0.0
C296 C 0.81763 0.8136 0.78407 0.0
H297 H 0.8849 0.98293 0.74328 0.0
H298 H 0.84021 0.93182 0.75994 0.0
H299 H 0.87258 0.84589 0.77331 0.0
H300 H 0.71882 0.69369 0.81295 0.0
H301 H 0.7629 0.73491 0.79262 0.0
H302 H 0.74053 0.82326 0.77612 0.0
C303 C 0.86051 0.9276 0.75316 0.0
C304 C 0.84364 0.84068 0.77358 0.0
C305 C 0.88641 0.95713 0.74365 0.0
C306 C 0.72317 0.72206 0.81165 0.0
C307 C 0.74833 0.74557 0.79999 0.0
C308 C 0.76923 0.82782 0.77554 0.0
C309 C 0.86108 0.8934 0.75409 0.0
C310 C 0.83283 0.86206 0.76416 0.0
C311 C 0.75404 0.78225 0.79769 0.0
C312 C 0.78045 0.8076 0.7854 0.0
H313 H 0.93577 0.91575 0.72931 0.0
H314 H 0.8899 0.86374 0.74582 0.0
H315 H 0.78538 0.86973 0.75763 0.0
H316 H 0.69625 0.78337 0.8266 0.0
H317 H 0.739 0.82355 0.80609 0.0
C318 C 0.0412 0.92646 0.06632 0.0
C319 C 0.01093 0.93348 0.06862 0.0
C320 C 0.04139 0.89622 0.07404 0.0
C321 C 0.97747 0.80554 0.09399 0.0
H322 H 0.06675 0.82605 0.11865 0.0
C323 C 0.96719 0.71832 0.14813 0.0
C324 C 0.99535 0.70852 0.15087 0.0
C325 C 0.97104 0.74266 0.13589 0.0
C326 C 0.04183 0.81963 0.11159 0.0
H327 H 0.95685 0.91392 0.0805 0.0
H328 H 0.95712 0.8615 0.09378 0.0
H329 H 0.07008 0.87444 0.10071 0.0
H330 H 0.04976 0.71679 0.14274 0.0
H331 H 0.05673 0.76005 0.12138 0.0
H332 H 0.94881 0.75134 0.10517 0.0
C333 C 0.98062 0.87906 0.08601 0.0
C334 C 0.04375 0.84732 0.10132 0.0
C335 C 0.98062 0.90933 0.07848 0.0
C336 C 0.02766 0.72394 0.14104 0.0
C337 C 0.03164 0.74864 0.12879 0.0
C338 C 0.97556 0.77797 0.10421 0.0
C339 C 0.01105 0.87223 0.08397 0.0
C340 C 0.0112 0.84098 0.09281 0.0
C341 C 0.00327 0.75816 0.12608 0.0
C342 C 0.00733 0.78515 0.11351 0.0
H343 H 0.06497 0.94468 0.0588 0.0
H344 H 0.06517 0.89154 0.07224 0.0
H345 H 0.95213 0.79956 0.08734 0.0
H346 H 0.94245 0.70793 0.1557 0.0
H347 H 0.94911 0.75015 0.13437 0.0
C348 C 0.10961 0.03391 0.40878 0.0
C349 C 0.08634 0.99756 0.40195 0.0
C350 C 0.14006 0.04087 0.41882 0.0
C351 C 0.17219 0.98916 0.44443 0.0
H352 H 0.26877 0.08431 0.4452 0.0
C353 C 0.29802 0.00929 0.48309 0.0
C354 C 0.31738 0.04345 0.49195 0.0
C355 C 0.27216 0.00488 0.47115 0.0
C356 C 0.24184 0.05768 0.44518 0.0
H357 H 0.07818 0.94066 0.39963 0.0
H358 H 0.13139 0.953 0.41678 0.0
H359 H 0.21942 0.07477 0.42599 0.0
H360 H 0.32502 0.09996 0.49502 0.0
H361 H 0.27999 0.09228 0.47414 0.0
H362 H 0.19437 0.97206 0.4636 0.0
C363 C 0.12557 0.97585 0.41479 0.0
C364 C 0.21356 0.05224 0.4342 0.0
C365 C 0.09511 0.96884 0.40488 0.0
C366 C 0.31099 0.07345 0.48829 0.0
C367 C 0.28516 0.06906 0.47632 0.0
C368 C 0.20042 0.99454 0.45533 0.0
C369 C 0.14797 0.01169 0.42215 0.0
C370 C 0.1784 0.01786 0.43369 0.0
C371 C 0.26506 0.03453 0.46777 0.0
C372 C 0.23558 0.02883 0.45584 0.0
H373 H 0.10364 0.05665 0.40676 0.0
H374 H 0.15661 0.06875 0.42437 0.0
H375 H 0.14516 0.96265 0.44462 0.0
H376 H 0.30279 0.98587 0.48542 0.0
H377 H 0.2576 0.97815 0.46458 0.0
C378 C 0.10107 0.09887 0.7424 0.0
C379 C 0.08302 0.11182 0.73207 0.0
C380 C 0.13078 0.12459 0.7524 0.0
C381 C 0.16866 0.22116 0.7701 0.0
H382 H 0.25269 0.20821 0.78371 0.0
C383 C 0.28875 0.33239 0.80997 0.0
C384 C 0.29652 0.318 0.82365 0.0
C385 C 0.26679 0.3079 0.79761 0.0
C386 C 0.2293 0.21207 0.78 0.0
H387 H 0.08364 0.16195 0.72325 0.0
H388 H 0.1362 0.20677 0.74008 0.0
H389 H 0.20698 0.16422 0.76394 0.0
H390 H 0.28828 0.26656 0.83477 0.0
H391 H 0.25042 0.22393 0.81303 0.0
H392 H 0.19102 0.26903 0.78605 0.0
C393 C 0.12655 0.17673 0.74105 0.0
C394 C 0.20303 0.18682 0.76874 0.0
C395 C 0.09653 0.15105 0.73131 0.0
C396 C 0.28323 0.2787 0.82434 0.0
C397 C 0.26149 0.25423 0.8119 0.0
C398 C 0.19507 0.24654 0.78116 0.0
C399 C 0.14336 0.16381 0.75207 0.0
C400 C 0.17227 0.19101 0.76368 0.0
C401 C 0.25235 0.2685 0.79858 0.0
C402 C 0.22558 0.24222 0.78628 0.0
H403 H 0.0912 0.06874 0.74323 0.0
H404 H 0.14281 0.11352 0.7608 0.0
H405 H 0.14485 0.22479 0.76687 0.0
H406 H 0.29922 0.36257 0.80889 0.0
H407 H 0.26063 0.31972 0.78735 0.0
C408 C 0.92267 0.03443 0.67725 0.0
C409 C 0.93175 0.00538 0.67642 0.0
C410 C 0.89199 0.03149 0.66854 0.0
C411 C 0.80345 0.96291 0.64714 0.0
H412 H 0.81977 0.05267 0.62488 0.0
C413 C 0.70523 0.95815 0.59642 0.0
C414 C 0.6985 0.98872 0.59516 0.0
C415 C 0.73074 0.95904 0.6078 0.0
C416 C 0.81446 0.0275 0.63122 0.0
H417 H 0.9155 0.95015 0.66603 0.0
H418 H 0.86209 0.94517 0.65063 0.0
H419 H 0.87007 0.05635 0.64184 0.0
H420 H 0.71176 0.04329 0.60539 0.0
H421 H 0.75622 0.04481 0.62528 0.0
H422 H 0.74793 0.93395 0.6363 0.0
C423 C 0.87844 0.97005 0.65816 0.0
C424 C 0.84335 0.02959 0.64093 0.0
C425 C 0.90918 0.97301 0.66689 0.0
C426 C 0.71682 0.01958 0.60589 0.0
C427 C 0.7423 0.02047 0.61727 0.0
C428 C 0.7745 0.96081 0.63741 0.0
C429 C 0.86971 0.99943 0.65879 0.0
C430 C 0.8383 0.99728 0.64893 0.0
C431 C 0.75009 0.99052 0.61817 0.0
C432 C 0.77979 0.99303 0.62925 0.0
H433 H 0.9394 0.05964 0.68457 0.0
H434 H 0.88568 0.05435 0.66947 0.0
H435 H 0.79847 0.93765 0.65332 0.0
H436 H 0.69199 0.93418 0.5882 0.0
H437 H 0.73643 0.93573 0.60803 0.0
C438 C 0.87465 0.93464 0.01755 0.0
C439 C 0.91268 0.9437 0.01984 0.0
C440 C 0.84958 0.90312 0.00828 0.0
C441 C 0.84824 0.84513 0.97493 0.0
H442 H 0.74308 0.77797 0.98716 0.0
C443 C 0.74064 0.72948 0.93188 0.0
C444 C 0.70445 0.72617 0.93096 0.0
C445 C 0.76596 0.75039 0.9442 0.0
C446 C 0.77228 0.7966 0.98352 0.0
H447 H 0.95398 0.92624 0.01439 0.0
H448 H 0.91012 0.87136 0.9979 0.0
H449 H 0.78789 0.82542 0.0061 0.0
H450 H 0.66587 0.74072 0.94278 0.0
H451 H 0.7104 0.77829 0.96387 0.0
H452 H 0.83249 0.81777 0.95214 0.0
C453 C 0.89987 0.88876 0.00338 0.0
C454 C 0.79794 0.82364 0.99439 0.0
C455 C 0.92489 0.92007 0.01285 0.0
C456 C 0.69374 0.7432 0.94297 0.0
C457 C 0.71914 0.76431 0.95522 0.0
C458 C 0.82251 0.81835 0.96399 0.0
C459 C 0.86203 0.88013 0.00094 0.0
C460 C 0.83599 0.84863 0.9901 0.0
C461 C 0.75582 0.7687 0.95586 0.0
C462 C 0.78401 0.79424 0.96805 0.0
H463 H 0.86421 0.95207 0.02284 0.0
H464 H 0.8207 0.8974 0.00647 0.0
H465 H 0.87731 0.8643 0.97125 0.0
H466 H 0.74999 0.71701 0.92278 0.0
H467 H 0.79375 0.75268 0.94445 0.0
C468 C 0.05441 0.96205 0.33529 0.0
C469 C 0.02324 0.95118 0.34544 0.0
C470 C 0.05725 0.93475 0.32607 0.0
C471 C 0.01947 0.83073 0.3217 0.0
H472 H 0.045 0.85446 0.27743 0.0
C473 C 0.98198 0.71604 0.27298 0.0
C474 C 0.00768 0.72418 0.26044 0.0
C475 C 0.98874 0.74372 0.28455 0.0
C476 C 0.03848 0.84755 0.28982 0.0
H477 H 0.97111 0.90318 0.3542 0.0
H478 H 0.97577 0.8557 0.338 0.0
H479 H 0.04822 0.90318 0.2955 0.0
H480 H 0.06121 0.7675 0.25047 0.0
H481 H 0.07332 0.81557 0.27081 0.0
H482 H 0.00884 0.77475 0.31588 0.0
C483 C 0.9983 0.88518 0.33727 0.0
C484 C 0.04033 0.87552 0.30018 0.0
C485 C 0.99547 0.91244 0.34648 0.0
C486 C 0.04097 0.7602 0.26003 0.0
C487 C 0.04771 0.7879 0.27159 0.0
C488 C 0.01759 0.80272 0.31132 0.0
C489 C 0.02899 0.89604 0.32682 0.0
C490 C 0.03028 0.86727 0.31619 0.0
C491 C 0.02135 0.78019 0.28382 0.0
C492 C 0.02652 0.81067 0.2952 0.0
H493 H 0.07637 0.99169 0.33431 0.0
H494 H 0.08149 0.94398 0.31828 0.0
H495 H 0.01214 0.82366 0.33403 0.0
H496 H 0.95631 0.6884 0.27374 0.0
H497 H 0.9677 0.73694 0.29373 0.0
C498 C 0.12364 0.04033 0.67953 0.0
C499 C 0.09236 0.00735 0.68556 0.0
C500 C 0.15326 0.03845 0.67198 0.0
C501 C 0.17077 0.97914 0.64644 0.0
H502 H 0.27771 0.04661 0.65677 0.0
C503 C 0.2885 0.99268 0.60407 0.0
C504 C 0.3197 0.02965 0.60195 0.0
C505 C 0.26279 0.98502 0.61645 0.0
C506 C 0.24803 0.0278 0.65361 0.0
H507 H 0.06755 0.94661 0.68868 0.0
H508 H 0.11906 0.94306 0.67476 0.0
H509 H 0.2287 0.04264 0.67475 0.0
H510 H 0.34907 0.08708 0.61185 0.0
H511 H 0.30332 0.07443 0.63269 0.0
H512 H 0.18945 0.96629 0.62478 0.0
C513 C 0.12078 0.9704 0.67622 0.0
C514 C 0.22005 0.02528 0.66401 0.0
C515 C 0.09151 0.97246 0.68419 0.0
C516 C 0.32502 0.05844 0.61285 0.0
C517 C 0.29901 0.05094 0.62506 0.0
C518 C 0.1987 0.9822 0.63586 0.0
C519 C 0.15175 0.00341 0.66999 0.0
C520 C 0.18121 0.00151 0.66036 0.0
C521 C 0.26722 0.01423 0.62694 0.0
C522 C 0.23774 0.00729 0.63911 0.0
H523 H 0.125 0.06759 0.68049 0.0
H524 H 0.17669 0.06421 0.66715 0.0
H525 H 0.14093 0.96091 0.64331 0.0
H526 H 0.28314 0.96975 0.59587 0.0
H527 H 0.23911 0.95624 0.61764 0.0
C528 C 0.10942 0.11148 0.01839 0.0
C529 C 0.07366 0.10892 0.01691 0.0
C530 C 0.1404 0.13741 0.00929 0.0
C531 C 0.17249 0.22533 0.98604 0.0
H532 H 0.24614 0.20116 0.9684 0.0
C533 C 0.29534 0.33484 0.94846 0.0
C534 C 0.3034 0.32093 0.93457 0.0
C535 C 0.27283 0.30986 0.96028 0.0
C536 C 0.22572 0.20832 0.97318 0.0
H537 H 0.04195 0.13026 0.00419 0.0
H538 H 0.09517 0.17422 0.98809 0.0
H539 H 0.19448 0.15472 0.98482 0.0
H540 H 0.29561 0.27036 0.92231 0.0
H541 H 0.25518 0.22642 0.94264 0.0
H542 H 0.20204 0.27781 0.9738 0.0
C543 C 0.09993 0.15737 0.99664 0.0
C544 C 0.19634 0.18183 0.98276 0.0
C545 C 0.06924 0.13191 0.00582 0.0
C546 C 0.29002 0.28178 0.93299 0.0
C547 C 0.26694 0.25665 0.9447 0.0
C548 C 0.2015 0.25153 0.97638 0.0
C549 C 0.13611 0.16103 0.99844 0.0
C550 C 0.16898 0.1898 0.9891 0.0
C551 C 0.25719 0.27028 0.95831 0.0
C552 C 0.22832 0.2433 0.96966 0.0
H553 H 0.11374 0.0942 0.02687 0.0
H554 H 0.16789 0.1396 0.01106 0.0
H555 H 0.15249 0.23288 0.99099 0.0
H556 H 0.30571 0.36501 0.95 0.0
H557 H 0.26687 0.32156 0.97077 0.0
C558 C 0.03923 0.14204 0.35673 0.0
C559 C 0.01269 0.10411 0.35249 0.0
C560 C 0.03921 0.17221 0.34889 0.0
C561 C 0.97811 0.19381 0.32331 0.0
H562 H 0.07392 0.27988 0.30988 0.0
C563 C 0.0332 0.31365 0.27194 0.0
C564 C 0.0031 0.32132 0.27222 0.0
C565 C 0.03719 0.29266 0.28403 0.0
C566 C 0.04691 0.25601 0.31351 0.0
H567 H 0.96528 0.06813 0.33676 0.0
H568 H 0.96558 0.12029 0.32305 0.0
H569 H 0.07436 0.2313 0.32643 0.0
H570 H 0.95529 0.3156 0.28586 0.0
H571 H 0.96283 0.27998 0.30722 0.0
H572 H 0.95049 0.21707 0.30979 0.0
C573 C 0.98601 0.12698 0.33258 0.0
C574 C 0.04718 0.22839 0.32317 0.0
C575 C 0.98601 0.09699 0.34039 0.0
C576 C 0.97844 0.3096 0.28527 0.0
C577 C 0.98268 0.28903 0.29744 0.0
C578 C 0.97782 0.22122 0.31363 0.0
C579 C 0.01259 0.16498 0.33669 0.0
C580 C 0.01273 0.19654 0.3279 0.0
C581 C 0.01135 0.27921 0.29673 0.0
C582 C 0.01218 0.25237 0.30837 0.0
H583 H 0.06014 0.14841 0.36602 0.0
H584 H 0.05989 0.20116 0.35242 0.0
H585 H 0.95104 0.17 0.32695 0.0
H586 H 0.05241 0.32209 0.26194 0.0
H587 H 0.05934 0.28534 0.28296 0.0
loop_
_geom_bond_atom_site_label_1
_geom_bond_atom_site_label_2
_geom_bond_distance
_geom_bond_site_symmetry_2
_ccdc_geom_bond_type
Co0 O1 2.216 1_445 S
Co0 O2 2.091 1_545 S
Co0 O4 2.004 . S
Co0 O10 2.021 1_445 S
Co0 O12 2.137 . S
Co0 O13 2.244 1_455 S
O1 Co0 2.216 1_665 S
O1 C8 1.247 1_655 S
O2 Co0 2.091 1_565 S
O2 C8 1.261 . S
C3 O12 1.247 . S
C3 O13 1.272 1_455 S
O4 Co0 2.004 . S
O4 C9 1.259 . S
Co5 O6 2.061 1_655 S
Co5 O11 2.052 . S
Co5 O13 2.135 . S
O6 Co5 2.061 1_455 S
O6 C9 1.235 . S
C7 O10 1.238 . S
C7 O11 1.241 1_565 S
C8 O1 1.247 1_455 S
C8 O2 1.261 . S
C9 O4 1.259 . S
C9 O6 1.235 . S
O10 Co0 2.021 1_665 S
O10 C7 1.238 . S
O11 Co5 2.052 . S
O11 C7 1.241 1_545 S
O12 Co0 2.137 . S
O12 C3 1.247 . S
O13 Co0 2.244 1_655 S
O13 C3 1.272 1_655 S
O13 Co5 2.135 . S
Co14 O15 2.216 1_455 S
Co14 O16 2.091 . S
Co14 O18 2.004 . S
Co14 O24 2.021 1_455 S
Co14 O26 2.137 . S
Co14 O27 2.244 1_445 S
O15 Co14 2.216 1_655 S
O15 C22 1.247 1_655 S
O16 Co14 2.091 . S
O16 C22 1.261 . S
C17 O26 1.247 1_565 S
C17 O27 1.272 1_455 S
O18 Co14 2.004 . S
O18 C23 1.259 . S
Co19 O20 2.061 1_655 S
Co19 O25 2.052 . S
Co19 O27 2.135 . S
O20 Co19 2.061 1_455 S
O20 C23 1.235 1_565 S
C21 O24 1.238 . S
C21 O25 1.241 1_545 S
C22 O15 1.247 1_455 S
C22 O16 1.261 . S
C23 O18 1.259 . S
C23 O20 1.235 1_545 S
O24 Co14 2.021 1_655 S
O24 C21 1.238 . S
O25 Co19 2.052 . S
O25 C21 1.241 1_565 S
O26 Co14 2.137 . S
O26 C17 1.247 1_545 S
O27 Co14 2.244 1_665 S
O27 C17 1.272 1_655 S
O27 Co19 2.135 . S
Co28 O29 2.216 . S
Co28 O30 2.091 1_545 S
Co28 O32 2.004 1_445 S
Co28 O38 2.021 . S
Co28 O40 2.137 1_445 S
Co28 O41 2.244 1_455 S
O29 Co28 2.216 . S
O29 C36 1.247 . S
O30 Co28 2.091 1_565 S
O30 C36 1.261 1_565 S
C31 O40 1.247 1_545 S
C31 O41 1.272 . S
O32 Co28 2.004 1_665 S
O32 C37 1.259 . S
Co33 O34 2.061 1_545 S
Co33 O39 2.052 1_655 S
Co33 O41 2.135 . S
O34 Co33 2.061 1_565 S
O34 C37 1.235 . S
C35 O38 1.238 . S
C35 O39 1.241 . S
C36 O29 1.247 . S
C36 O30 1.261 1_545 S
C37 O32 1.259 . S
C37 O34 1.235 . S
O38 Co28 2.021 . S
O38 C35 1.238 . S
O39 Co33 2.052 1_455 S
O39 C35 1.241 . S
O40 Co28 2.137 1_665 S
O40 C31 1.247 1_565 S
O41 Co28 2.244 1_655 S
O41 C31 1.272 . S
O41 Co33 2.135 . S
H42 C69 0.929 . S
N43 C68 1.433 . S
N43 C74 1.435 . S
N43 C80 1.423 . S
H44 C70 0.930 . S
H45 C73 0.931 . S
H46 C72 0.929 . S
H47 C75 0.930 . S
H48 C76 0.932 . S
H49 C79 0.929 . S
H50 C78 0.931 . S
H51 C81 0.929 . S
H52 C85 0.932 . S
H53 C82 0.931 . S
H54 C84 0.929 1_455 S
H55 C87 0.929 . S
H56 C88 0.930 . S
H57 C90 0.929 . S
H58 C91 0.931 . S
H59 C93 0.930 . S
H60 C94 0.932 . S
H61 C96 0.931 . S
H62 C97 0.929 . S
H63 C99 0.929 . S
H64 C100 0.931 . S
H65 C102 0.929 1_455 S
N66 C86 1.433 . S
N66 C92 1.435 . S
N66 C98 1.423 . S
H67 C103 0.932 . S
C68 N43 1.433 . S
C68 C69 1.363 . S
C68 C73 1.370 1_655 S
C69 H42 0.929 . S
C69 C68 1.363 . S
C69 C70 1.385 . S
C70 H44 0.930 . S
C70 C69 1.385 . S
C70 C71 1.357 1_655 S
C71 C70 1.357 1_455 S
C71 C72 1.406 . S
C72 H46 0.929 . S
C72 C71 1.406 . S
C72 C73 1.391 . S
C73 H45 0.931 . S
C73 C68 1.370 1_455 S
C73 C72 1.391 . S
C74 N43 1.435 . S
C74 C75 1.358 1_655 S
C74 C79 1.371 . S
C75 H47 0.930 . S
C75 C74 1.358 1_455 S
C75 C76 1.405 . S
C76 H48 0.932 . S
C76 C75 1.405 . S
C76 C77 1.383 . S
C77 C76 1.383 . S
C77 C78 1.393 1_455 S
C78 H50 0.931 . S
C78 C77 1.393 1_655 S
C78 C79 1.382 . S
C79 H49 0.929 . S
C79 C74 1.371 . S
C79 C78 1.382 . S
C80 N43 1.423 . S
C80 C81 1.362 . S
C80 C85 1.388 1_655 S
C81 H51 0.929 . S
C81 C80 1.362 . S
C81 C82 1.376 . S
C82 H53 0.931 . S
C82 C81 1.376 . S
C82 C83 1.396 . S
C83 C82 1.396 . S
C83 C84 1.348 . S
C83 C101 1.472 . S
C84 H54 0.929 1_655 S
C84 C83 1.348 . S
C84 C85 1.443 1_655 S
C85 H52 0.932 . S
C85 C80 1.388 1_455 S
C85 C84 1.443 1_455 S
C86 N66 1.433 . S
C86 C87 1.363 . S
C86 C91 1.370 1_655 S
C87 H55 0.929 . S
C87 C86 1.363 . S
C87 C88 1.385 . S
C88 H56 0.930 . S
C88 C87 1.385 . S
C88 C89 1.357 1_655 S
C89 C88 1.357 1_455 S
C89 C90 1.406 . S
C90 H57 0.929 . S
C90 C89 1.406 . S
C90 C91 1.391 . S
C91 H58 0.931 . S
C91 C86 1.370 1_455 S
C91 C90 1.391 . S
C92 N66 1.435 . S
C92 C93 1.358 1_655 S
C92 C97 1.371 . S
C93 H59 0.930 . S
C93 C92 1.358 1_455 S
C93 C94 1.405 . S
C94 H60 0.932 . S
C94 C93 1.405 . S
C94 C95 1.383 . S
C95 C94 1.383 . S
C95 C96 1.393 1_455 S
C96 H61 0.931 . S
C96 C95 1.393 1_655 S
C96 C97 1.382 . S
C97 H62 0.929 . S
C97 C92 1.371 . S
C97 C96 1.382 . S
C98 N66 1.423 . S
C98 C99 1.362 . S
C98 C103 1.388 1_655 S
C99 H63 0.929 . S
C99 C98 1.362 . S
C99 C100 1.376 . S
C100 H64 0.931 . S
C100 C99 1.376 . S
C100 C101 1.396 . S
C101 C83 1.472 . S
C101 C100 1.396 . S
C101 C102 1.348 . S
C102 H65 0.929 1_655 S
C102 C101 1.348 . S
C102 C103 1.443 1_655 S
C103 H67 0.932 . S
C103 C98 1.388 1_455 S
C103 C102 1.443 1_455 S
H104 C131 0.929 . S
N105 C130 1.433 . S
N105 C136 1.435 . S
N105 C142 1.423 . S
H106 C132 0.930 . S
H107 C135 0.930 . S
H108 C134 0.929 . S
H109 C137 0.930 . S
H110 C138 0.932 . S
H111 C141 0.929 . S
H112 C140 0.931 . S
H113 C143 0.929 . S
H114 C147 0.932 1_565 S
H115 C144 0.931 . S
H116 C146 0.929 . S
H117 C149 0.929 . S
H118 C150 0.930 . S
H119 C152 0.929 . S
H120 C153 0.936 . S
H121 C155 0.930 . S
H122 C156 0.932 . S
H123 C158 0.931 . S
H124 C159 0.929 . S
H125 C161 0.929 . S
H126 C162 0.931 . S
H127 C164 0.929 . S
N128 C148 1.433 . S
N128 C154 1.435 . S
N128 C160 1.423 . S
H129 C165 0.932 1_565 S
C130 N105 1.433 . S
C130 C131 1.363 . S
C130 C135 1.369 1_545 S
C131 H104 0.929 . S
C131 C130 1.363 . S
C131 C132 1.385 . S
C132 H106 0.930 . S
C132 C131 1.385 . S
C132 C133 1.357 . S
C133 C132 1.357 . S
C133 C134 1.406 1_545 S
C134 H108 0.929 . S
C134 C133 1.406 1_565 S
C134 C135 1.393 . S
C135 H107 0.930 . S
C135 C130 1.369 1_565 S
C135 C134 1.393 . S
C136 N105 1.435 . S
C136 C137 1.358 1_545 S
C136 C141 1.371 . S
C137 H109 0.930 . S
C137 C136 1.358 1_565 S
C137 C138 1.405 . S
C138 H110 0.932 . S
C138 C137 1.405 . S
C138 C139 1.383 1_565 S
C139 C138 1.383 1_545 S
C139 C140 1.393 . S
C140 H112 0.931 . S
C140 C139 1.393 . S
C140 C141 1.382 . S
C141 H111 0.929 . S
C141 C136 1.371 . S
C141 C140 1.382 . S
C142 N105 1.423 . S
C142 C143 1.362 . S
C142 C147 1.388 . S
C143 H113 0.929 . S
C143 C142 1.362 . S
C143 C144 1.376 . S
C144 H115 0.931 . S
C144 C143 1.376 . S
C144 C145 1.396 . S
C145 C144 1.396 . S
C145 C146 1.348 . S
C145 C163 1.472 . S
C146 H116 0.929 . S
C146 C145 1.348 . S
C146 C147 1.443 . S
C147 H114 0.932 1_545 S
C147 C142 1.388 . S
C147 C146 1.443 . S
C148 N128 1.433 . S
C148 C149 1.363 . S
C148 C153 1.365 1_545 S
C149 H117 0.929 . S
C149 C148 1.363 . S
C149 C150 1.385 . S
C150 H118 0.930 . S
C150 C149 1.385 . S
C150 C151 1.357 . S
C151 C150 1.357 . S
C151 C152 1.406 1_545 S
C152 H119 0.929 . S
C152 C151 1.406 1_565 S
C152 C153 1.391 . S
C153 H120 0.936 . S
C153 C148 1.365 1_565 S
C153 C152 1.391 . S
C154 N128 1.435 . S
C154 C155 1.358 1_545 S
C154 C159 1.371 . S
C155 H121 0.930 . S
C155 C154 1.358 1_565 S
C155 C156 1.405 . S
C156 H122 0.932 . S
C156 C155 1.405 . S
C156 C157 1.383 1_565 S
C157 C156 1.383 1_545 S
C157 C158 1.393 . S
C158 H123 0.931 . S
C158 C157 1.393 . S
C158 C159 1.382 . S
C159 H124 0.929 . S
C159 C154 1.371 . S
C159 C158 1.382 . S
C160 N128 1.423 . S
C160 C161 1.362 . S
C160 C165 1.388 . S
C161 H125 0.929 . S
C161 C160 1.362 . S
C161 C162 1.376 . S
C162 H126 0.931 . S
C162 C161 1.376 . S
C162 C163 1.396 . S
C163 C145 1.472 . S
C163 C162 1.396 . S
C163 C164 1.348 . S
C164 H127 0.929 . S
C164 C163 1.348 . S
C164 C165 1.443 . S
C165 H129 0.932 1_545 S
C165 C160 1.388 . S
C165 C164 1.443 . S
H166 C193 0.929 . S
N167 C192 1.433 . S
N167 C198 1.435 . S
N167 C204 1.423 . S
H168 C194 0.930 . S
H169 C197 0.931 . S
H170 C196 0.929 . S
H171 C199 0.930 . S
H172 C200 0.932 . S
H173 C203 0.929 . S
H174 C202 0.931 . S
H175 C205 0.929 . S
H176 C209 0.932 . S
H177 C206 0.931 . S
H178 C208 0.929 . S
H179 C211 0.929 . S
H180 C212 0.930 . S
H181 C214 0.929 . S
H182 C215 0.931 . S
H183 C217 0.930 . S
H184 C218 0.932 . S
H185 C220 0.931 . S
H186 C221 0.929 . S
H187 C223 0.929 . S
H188 C224 0.931 . S
H189 C226 0.929 . S
N190 C210 1.433 . S
N190 C216 1.435 . S
N190 C222 1.423 . S
H191 C227 0.932 . S
C192 N167 1.433 . S
C192 C193 1.363 . S
C192 C197 1.370 . S
C193 H166 0.929 . S
C193 C192 1.363 . S
C193 C194 1.385 . S
C194 H168 0.930 . S
C194 C193 1.385 . S
C194 C195 1.357 . S
C195 C194 1.357 . S
C195 C196 1.406 . S
C196 H170 0.929 . S
C196 C195 1.406 . S
C196 C197 1.391 . S
C197 H169 0.931 . S
C197 C192 1.370 . S
C197 C196 1.391 . S
C198 N167 1.435 . S
C198 C199 1.358 . S
C198 C203 1.371 . S
C199 H171 0.930 . S
C199 C198 1.358 . S
C199 C200 1.405 . S
C200 H172 0.932 . S
C200 C199 1.405 . S
C200 C201 1.383 . S
C201 C200 1.383 . S
C201 C202 1.393 . S
C202 H174 0.931 . S
C202 C201 1.393 . S
C202 C203 1.382 . S
C203 H173 0.929 . S
C203 C198 1.371 . S
C203 C202 1.382 . S
C204 N167 1.423 . S
C204 C205 1.362 . S
C204 C209 1.388 . S
C205 H175 0.929 . S
C205 C204 1.362 . S
C205 C206 1.376 . S
C206 H177 0.931 . S
C206 C205 1.376 . S
C206 C207 1.396 . S
C207 C206 1.396 . S
C207 C208 1.348 . S
C207 C225 1.472 . S
C208 H178 0.929 . S
C208 C207 1.348 . S
C208 C209 1.443 . S
C209 H176 0.932 . S
C209 C204 1.388 . S
C209 C208 1.443 . S
C210 N190 1.433 . S
C210 C211 1.363 . S
C210 C215 1.370 . S
C211 H179 0.929 . S
C211 C210 1.363 . S
C211 C212 1.385 . S
C212 H180 0.930 . S
C212 C211 1.385 . S
C212 C213 1.357 . S
C213 C212 1.357 . S
C213 C214 1.406 . S
C214 H181 0.929 . S
C214 C213 1.406 . S
C214 C215 1.391 . S
C215 H182 0.931 . S
C215 C210 1.370 . S
C215 C214 1.391 . S
C216 N190 1.435 . S
C216 C217 1.358 . S
C216 C221 1.371 . S
C217 H183 0.930 . S
C217 C216 1.358 . S
C217 C218 1.405 . S
C218 H184 0.932 . S
C218 C217 1.405 . S
C218 C219 1.383 . S
C219 C218 1.383 . S
C219 C220 1.393 . S
C220 H185 0.931 . S
C220 C219 1.393 . S
C220 C221 1.382 . S
C221 H186 0.929 . S
C221 C216 1.371 . S
C221 C220 1.382 . S
C222 N190 1.423 . S
C222 C223 1.362 . S
C222 C227 1.388 . S
C223 H187 0.929 . S
C223 C222 1.362 . S
C223 C224 1.376 . S
C224 H188 0.931 . S
C224 C223 1.376 . S
C224 C225 1.396 . S
C225 C207 1.472 . S
C225 C224 1.396 . S
C225 C226 1.348 . S
C226 H189 0.929 . S
C226 C225 1.348 . S
C226 C227 1.443 . S
C227 H191 0.932 . S
C227 C222 1.388 . S
C227 C226 1.443 . S
C228 C229 1.349 1_655 S
C228 C230 1.327 . S
C228 H253 0.950 . S
C229 C228 1.349 1_455 S
C229 C245 1.349 . S
C230 C228 1.327 . S
C230 C249 1.429 1_655 S
C230 H254 0.950 . S
C231 C248 1.574 . S
C231 C250 1.368 . S
C231 H255 0.949 . S
H232 C236 0.949 . S
C233 C234 1.349 . S
C233 C235 1.327 . S
C233 H256 0.950 . S
C234 C233 1.349 . S
C234 C246 1.349 1_455 S
C235 C233 1.327 . S
C235 C251 1.429 . S
C235 H257 0.950 . S
C236 H232 0.949 . S
C236 C244 1.574 . S
C236 C252 1.368 1_655 S
H237 C245 0.950 . S
H238 C243 0.950 . S
H239 C244 0.949 . S
H240 C246 0.950 . S
H241 C247 0.950 . S
H242 C248 0.949 . S
C243 H238 0.950 . S
C243 C245 1.327 . S
C243 C249 1.429 . S
C244 C236 1.574 . S
C244 H239 0.949 . S
C244 C250 1.368 1_655 S
C245 C229 1.349 . S
C245 H237 0.950 . S
C245 C243 1.327 . S
C246 C234 1.349 1_655 S
C246 H240 0.950 . S
C246 C247 1.327 . S
C247 H241 0.950 . S
C247 C246 1.327 . S
C247 C251 1.429 1_655 S
C248 C231 1.574 . S
C248 H242 0.949 . S
C248 C252 1.368 . S
C249 C230 1.429 1_455 S
C249 C243 1.429 . S
C249 C250 1.523 . S
C250 C231 1.368 . S
C250 C244 1.368 1_455 S
C250 C249 1.523 . S
C251 C235 1.429 . S
C251 C247 1.429 1_455 S
C251 C252 1.523 . S
C252 C236 1.368 1_455 S
C252 C248 1.368 . S
C252 C251 1.523 . S
H253 C228 0.950 . S
H254 C230 0.950 . S
H255 C231 0.949 . S
H256 C233 0.950 . S
H257 C235 0.950 . S
C258 C259 1.349 . S
C258 C260 1.327 . S
C258 H283 0.950 . S
C259 C258 1.349 . S
C259 C275 1.349 1_545 S
C260 C258 1.327 . S
C260 C279 1.429 . S
C260 H284 0.950 . S
C261 C278 1.574 . S
C261 C280 1.368 1_565 S
C261 H285 0.949 . S
H262 C266 0.949 . S
C263 C264 1.349 1_565 S
C263 C265 1.327 . S
C263 H286 0.950 . S
C264 C263 1.349 1_545 S
C264 C276 1.349 . S
C265 C263 1.327 . S
C265 C281 1.429 1_565 S
C265 H287 0.950 . S
C266 H262 0.949 . S
C266 C274 1.574 . S
C266 C282 1.368 . S
H267 C275 0.950 . S
H268 C273 0.950 . S
H269 C274 0.949 . S
H270 C276 0.950 . S
H271 C277 0.950 . S
H272 C278 0.949 . S
C273 H268 0.950 . S
C273 C275 1.327 . S
C273 C279 1.429 1_565 S
C274 C266 1.574 . S
C274 H269 0.949 . S
C274 C280 1.368 . S
C275 C259 1.349 1_565 S
C275 H267 0.950 . S
C275 C273 1.327 . S
C276 C264 1.349 . S
C276 H270 0.950 . S
C276 C277 1.327 . S
C277 H271 0.950 . S
C277 C276 1.327 . S
C277 C281 1.429 . S
C278 C261 1.574 . S
C278 H272 0.949 . S
C278 C282 1.368 1_565 S
C279 C260 1.429 . S
C279 C273 1.429 1_545 S
C279 C280 1.523 . S
C280 C261 1.368 1_545 S
C280 C274 1.368 . S
C280 C279 1.523 . S
C281 C265 1.429 1_545 S
C281 C277 1.429 . S
C281 C282 1.523 . S
C282 C266 1.368 . S
C282 C278 1.368 1_545 S
C282 C281 1.523 . S
H283 C258 0.950 . S
H284 C260 0.950 . S
H285 C261 0.949 . S
H286 C263 0.950 . S
H287 C265 0.950 . S
C288 C289 1.349 . S
C288 C290 1.327 . S
C288 H313 0.950 . S
C289 C288 1.349 . S
C289 C305 1.349 . S
C290 C288 1.327 . S
C290 C309 1.429 . S
C290 H314 0.950 . S
C291 C308 1.574 . S
C291 C310 1.368 . S
C291 H315 0.949 . S
H292 C296 0.949 . S
C293 C294 1.349 . S
C293 C295 1.327 . S
C293 H316 0.950 . S
C294 C293 1.349 . S
C294 C306 1.349 . S
C295 C293 1.327 . S
C295 C311 1.429 . S
C295 H317 0.950 . S
C296 H292 0.949 . S
C296 C304 1.574 . S
C296 C312 1.368 . S
H297 C305 0.950 . S
H298 C303 0.950 . S
H299 C304 0.949 . S
H300 C306 0.950 . S
H301 C307 0.950 . S
H302 C308 0.949 . S
C303 H298 0.950 . S
C303 C305 1.327 . S
C303 C309 1.429 . S
C304 C296 1.574 . S
C304 H299 0.949 . S
C304 C310 1.368 . S
C305 C289 1.349 . S
C305 H297 0.950 . S
C305 C303 1.327 . S
C306 C294 1.349 . S
C306 H300 0.950 . S
C306 C307 1.327 . S
C307 H301 0.950 . S
C307 C306 1.327 . S
C307 C311 1.429 . S
C308 C291 1.574 . S
C308 H302 0.949 . S
C308 C312 1.368 . S
C309 C290 1.429 . S
C309 C303 1.429 . S
C309 C310 1.523 . S
C310 C291 1.368 . S
C310 C304 1.368 . S
C310 C309 1.523 . S
C311 C295 1.429 . S
C311 C307 1.429 . S
C311 C312 1.523 . S
C312 C296 1.368 . S
C312 C308 1.368 . S
C312 C311 1.523 . S
H313 C288 0.950 . S
H314 C290 0.950 . S
H315 C291 0.949 . S
H316 C293 0.950 . S
H317 C295 0.950 . S
C318 C319 1.349 . S
C318 C320 1.327 . S
C318 H343 0.950 . S
C319 C318 1.349 . S
C319 C335 1.349 1_455 S
C320 C318 1.327 . S
C320 C339 1.429 . S
C320 H344 0.950 . S
C321 C338 1.574 . S
C321 C340 1.368 1_655 S
C321 H345 0.949 . S
H322 C326 0.949 . S
C323 C324 1.349 1_655 S
C323 C325 1.327 . S
C323 H346 0.950 . S
C324 C323 1.349 1_455 S
C324 C336 1.349 . S
C325 C323 1.327 . S
C325 C341 1.429 1_655 S
C325 H347 0.950 . S
C326 H322 0.949 . S
C326 C334 1.574 . S
C326 C342 1.368 . S
H327 C335 0.950 . S
H328 C333 0.950 . S
H329 C334 0.949 . S
H330 C336 0.950 . S
H331 C337 0.950 . S
H332 C338 0.949 . S
C333 H328 0.950 . S
C333 C335 1.327 . S
C333 C339 1.429 1_655 S
C334 C326 1.574 . S
C334 H329 0.949 . S
C334 C340 1.368 . S
C335 C319 1.349 1_655 S
C335 H327 0.950 . S
C335 C333 1.327 . S
C336 C324 1.349 . S
C336 H330 0.950 . S
C336 C337 1.327 . S
C337 H331 0.950 . S
C337 C336 1.327 . S
C337 C341 1.429 . S
C338 C321 1.574 . S
C338 H332 0.949 . S
C338 C342 1.368 1_655 S
C339 C320 1.429 . S
C339 C333 1.429 1_455 S
C339 C340 1.523 . S
C340 C321 1.368 1_455 S
C340 C334 1.368 . S
C340 C339 1.523 . S
C341 C325 1.429 1_455 S
C341 C337 1.429 . S
C341 C342 1.523 . S
C342 C326 1.368 . S
C342 C338 1.368 1_455 S
C342 C341 1.523 . S
H343 C318 0.950 . S
H344 C320 0.950 . S
H345 C321 0.949 . S
H346 C323 0.950 . S
H347 C325 0.950 . S
C348 C349 1.349 . S
C348 C350 1.327 . S
C348 H373 0.950 . S
C349 C348 1.349 . S
C349 C365 1.349 1_545 S
C350 C348 1.327 . S
C350 C369 1.429 . S
C350 H374 0.950 . S
C351 C368 1.574 . S
C351 C370 1.368 1_565 S
C351 H375 0.949 . S
H352 C356 0.949 . S
C353 C354 1.349 1_565 S
C353 C355 1.327 . S
C353 H376 0.950 . S
C354 C353 1.349 1_545 S
C354 C366 1.349 . S
C355 C353 1.327 . S
C355 C371 1.429 1_565 S
C355 H377 0.950 . S
C356 H352 0.949 . S
C356 C364 1.574 . S
C356 C372 1.368 . S
H357 C365 0.950 . S
H358 C363 0.950 . S
H359 C364 0.949 . S
H360 C366 0.950 . S
H361 C367 0.950 . S
H362 C368 0.949 . S
C363 H358 0.950 . S
C363 C365 1.327 . S
C363 C369 1.429 1_565 S
C364 C356 1.574 . S
C364 H359 0.949 . S
C364 C370 1.368 . S
C365 C349 1.349 1_565 S
C365 H357 0.950 . S
C365 C363 1.327 . S
C366 C354 1.349 . S
C366 H360 0.950 . S
C366 C367 1.327 . S
C367 H361 0.950 . S
C367 C366 1.327 . S
C367 C371 1.429 . S
C368 C351 1.574 . S
C368 H362 0.949 . S
C368 C372 1.368 1_565 S
C369 C350 1.429 . S
C369 C363 1.429 1_545 S
C369 C370 1.523 . S
C370 C351 1.368 1_545 S
C370 C364 1.368 . S
C370 C369 1.523 . S
C371 C355 1.429 1_545 S
C371 C367 1.429 . S
C371 C372 1.523 . S
C372 C356 1.368 . S
C372 C368 1.368 1_545 S
C372 C371 1.523 . S
H373 C348 0.950 . S
H374 C350 0.950 . S
H375 C351 0.949 . S
H376 C353 0.950 . S
H377 C355 0.950 . S
C378 C379 1.349 . S
C378 C380 1.327 . S
C378 H403 0.950 . S
C379 C378 1.349 . S
C379 C395 1.349 . S
C380 C378 1.327 . S
C380 C399 1.429 . S
C380 H404 0.950 . S
C381 C398 1.574 . S
C381 C400 1.368 . S
C381 H405 0.949 . S
H382 C386 0.949 . S
C383 C384 1.349 . S
C383 C385 1.327 . S
C383 H406 0.950 . S
C384 C383 1.349 . S
C384 C396 1.349 . S
C385 C383 1.327 . S
C385 C401 1.429 . S
C385 H407 0.950 . S
C386 H382 0.949 . S
C386 C394 1.574 . S
C386 C402 1.368 . S
H387 C395 0.950 . S
H388 C393 0.950 . S
H389 C394 0.949 . S
H390 C396 0.950 . S
H391 C397 0.950 . S
H392 C398 0.949 . S
C393 H388 0.950 . S
C393 C395 1.327 . S
C393 C399 1.429 . S
C394 C386 1.574 . S
C394 H389 0.949 . S
C394 C400 1.368 . S
C395 C379 1.349 . S
C395 H387 0.950 . S
C395 C393 1.327 . S
C396 C384 1.349 . S
C396 H390 0.950 . S
C396 C397 1.327 . S
C397 H391 0.950 . S
C397 C396 1.327 . S
C397 C401 1.429 . S
C398 C381 1.574 . S
C398 H392 0.949 . S
C398 C402 1.368 . S
C399 C380 1.429 . S
C399 C393 1.429 . S
C399 C400 1.523 . S
C400 C381 1.368 . S
C400 C394 1.368 . S
C400 C399 1.523 . S
C401 C385 1.429 . S
C401 C397 1.429 . S
C401 C402 1.523 . S
C402 C386 1.368 . S
C402 C398 1.368 . S
C402 C401 1.523 . S
H403 C378 0.950 . S
H404 C380 0.950 . S
H405 C381 0.949 . S
H406 C383 0.950 . S
H407 C385 0.950 . S
C408 C409 1.349 . S
C408 C410 1.327 . S
C408 H433 0.950 . S
C409 C408 1.349 . S
C409 C425 1.349 1_545 S
C410 C408 1.327 . S
C410 C429 1.429 . S
C410 H434 0.950 . S
C411 C428 1.574 . S
C411 C430 1.368 1_565 S
C411 H435 0.949 . S
H412 C416 0.949 . S
C413 C414 1.349 1_565 S
C413 C415 1.327 . S
C413 H436 0.950 . S
C414 C413 1.349 1_545 S
C414 C426 1.349 . S
C415 C413 1.327 . S
C415 C431 1.429 1_565 S
C415 H437 0.950 . S
C416 H412 0.949 . S
C416 C424 1.574 . S
C416 C432 1.368 . S
H417 C425 0.950 . S
H418 C423 0.950 . S
H419 C424 0.949 . S
H420 C426 0.950 . S
H421 C427 0.950 . S
H422 C428 0.949 . S
C423 H418 0.950 . S
C423 C425 1.327 . S
C423 C429 1.429 1_565 S
C424 C416 1.574 . S
C424 H419 0.949 . S
C424 C430 1.368 . S
C425 C409 1.349 1_565 S
C425 H417 0.950 . S
C425 C423 1.327 . S
C426 C414 1.349 . S
C426 H420 0.950 . S
C426 C427 1.327 . S
C427 H421 0.950 . S
C427 C426 1.327 . S
C427 C431 1.429 . S
C428 C411 1.574 . S
C428 H422 0.949 . S
C428 C432 1.368 1_565 S
C429 C410 1.429 . S
C429 C423 1.429 1_545 S
C429 C430 1.523 . S
C430 C411 1.368 1_545 S
C430 C424 1.368 . S
C430 C429 1.523 . S
C431 C415 1.429 1_545 S
C431 C427 1.429 . S
C431 C432 1.523 . S
C432 C416 1.368 . S
C432 C428 1.368 1_545 S
C432 C431 1.523 . S
H433 C408 0.950 . S
H434 C410 0.950 . S
H435 C411 0.949 . S
H436 C413 0.950 . S
H437 C415 0.950 . S
C438 C439 1.349 . S
C438 C440 1.327 . S
C438 H463 0.950 . S
C439 C438 1.349 . S
C439 C455 1.349 1_554 S
C440 C438 1.327 . S
C440 C459 1.429 1_554 S
C440 H464 0.950 . S
C441 C458 1.574 . S
C441 C460 1.368 . S
C441 H465 0.949 . S
H442 C446 0.949 . S
C443 C444 1.349 . S
C443 C445 1.327 . S
C443 H466 0.950 . S
C444 C443 1.349 . S
C444 C456 1.349 . S
C445 C443 1.327 . S
C445 C461 1.429 . S
C445 H467 0.950 . S
C446 H442 0.949 . S
C446 C454 1.574 . S
C446 C462 1.368 . S
H447 C455 0.950 . S
H448 C453 0.950 . S
H449 C454 0.949 1_554 S
H450 C456 0.950 . S
H451 C457 0.950 . S
H452 C458 0.949 . S
C453 H448 0.950 . S
C453 C455 1.327 . S
C453 C459 1.429 . S
C454 C446 1.574 . S
C454 H449 0.949 1_556 S
C454 C460 1.368 . S
C455 C439 1.349 1_556 S
C455 H447 0.950 . S
C455 C453 1.327 . S
C456 C444 1.349 . S
C456 H450 0.950 . S
C456 C457 1.327 . S
C457 H451 0.950 . S
C457 C456 1.327 . S
C457 C461 1.429 . S
C458 C441 1.574 . S
C458 H452 0.949 . S
C458 C462 1.368 . S
C459 C440 1.429 1_556 S
C459 C453 1.429 . S
C459 C460 1.523 . S
C460 C441 1.368 . S
C460 C454 1.368 . S
C460 C459 1.523 . S
C461 C445 1.429 . S
C461 C457 1.429 . S
C461 C462 1.523 . S
C462 C446 1.368 . S
C462 C458 1.368 . S
C462 C461 1.523 . S
H463 C438 0.950 . S
H464 C440 0.950 . S
H465 C441 0.949 . S
H466 C443 0.950 . S
H467 C445 0.950 . S
C468 C469 1.349 . S
C468 C470 1.327 . S
C468 H493 0.950 . S
C469 C468 1.349 . S
C469 C485 1.349 1_455 S
C470 C468 1.327 . S
C470 C489 1.429 . S
C470 H494 0.950 . S
C471 C488 1.574 . S
C471 C490 1.368 1_655 S
C471 H495 0.949 . S
H472 C476 0.949 . S
C473 C474 1.349 1_655 S
C473 C475 1.327 . S
C473 H496 0.950 . S
C474 C473 1.349 1_455 S
C474 C486 1.349 . S
C475 C473 1.327 . S
C475 C491 1.429 1_655 S
C475 H497 0.950 . S
C476 H472 0.949 . S
C476 C484 1.574 . S
C476 C492 1.368 . S
H477 C485 0.950 . S
H478 C483 0.950 . S
H479 C484 0.949 . S
H480 C486 0.950 . S
H481 C487 0.950 . S
H482 C488 0.949 . S
C483 H478 0.950 . S
C483 C485 1.327 . S
C483 C489 1.429 1_655 S
C484 C476 1.574 . S
C484 H479 0.949 . S
C484 C490 1.368 . S
C485 C469 1.349 1_655 S
C485 H477 0.950 . S
C485 C483 1.327 . S
C486 C474 1.349 . S
C486 H480 0.950 . S
C486 C487 1.327 . S
C487 H481 0.950 . S
C487 C486 1.327 . S
C487 C491 1.429 . S
C488 C471 1.574 . S
C488 H482 0.949 . S
C488 C492 1.368 1_655 S
C489 C470 1.429 . S
C489 C483 1.429 1_455 S
C489 C490 1.523 . S
C490 C471 1.368 1_455 S
C490 C484 1.368 . S
C490 C489 1.523 . S
C491 C475 1.429 1_455 S
C491 C487 1.429 . S
C491 C492 1.523 . S
C492 C476 1.368 . S
C492 C488 1.368 1_455 S
C492 C491 1.523 . S
H493 C468 0.950 . S
H494 C470 0.950 . S
H495 C471 0.949 . S
H496 C473 0.950 . S
H497 C475 0.950 . S
C498 C499 1.349 . S
C498 C500 1.327 . S
C498 H523 0.950 . S
C499 C498 1.349 . S
C499 C515 1.349 1_545 S
C500 C498 1.327 . S
C500 C519 1.429 . S
C500 H524 0.950 . S
C501 C518 1.574 . S
C501 C520 1.368 1_565 S
C501 H525 0.949 . S
H502 C506 0.949 . S
C503 C504 1.349 1_565 S
C503 C505 1.327 . S
C503 H526 0.950 . S
C504 C503 1.349 1_545 S
C504 C516 1.349 . S
C505 C503 1.327 . S
C505 C521 1.429 1_565 S
C505 H527 0.950 . S
C506 H502 0.949 . S
C506 C514 1.574 . S
C506 C522 1.368 . S
H507 C515 0.950 . S
H508 C513 0.950 . S
H509 C514 0.949 . S
H510 C516 0.950 . S
H511 C517 0.950 . S
H512 C518 0.949 . S
C513 H508 0.950 . S
C513 C515 1.327 . S
C513 C519 1.429 1_565 S
C514 C506 1.574 . S
C514 H509 0.949 . S
C514 C520 1.368 . S
C515 C499 1.349 1_565 S
C515 H507 0.950 . S
C515 C513 1.327 . S
C516 C504 1.349 . S
C516 H510 0.950 . S
C516 C517 1.327 . S
C517 H511 0.950 . S
C517 C516 1.327 . S
C517 C521 1.429 . S
C518 C501 1.574 . S
C518 H512 0.949 . S
C518 C522 1.368 1_565 S
C519 C500 1.429 . S
C519 C513 1.429 1_545 S
C519 C520 1.523 . S
C520 C501 1.368 1_545 S
C520 C514 1.368 . S
C520 C519 1.523 . S
C521 C505 1.429 1_545 S
C521 C517 1.429 . S
C521 C522 1.523 . S
C522 C506 1.368 . S
C522 C518 1.368 1_545 S
C522 C521 1.523 . S
H523 C498 0.950 . S
H524 C500 0.950 . S
H525 C501 0.949 . S
H526 C503 0.950 . S
H527 C505 0.950 . S
C528 C529 1.349 . S
C528 C530 1.327 . S
C528 H553 0.950 . S
C529 C528 1.349 . S
C529 C545 1.332 1_554 S
C530 C528 1.327 . S
C530 C549 1.429 1_554 S
C530 H554 0.950 . S
C531 C548 1.574 . S
C531 C550 1.368 . S
C531 H555 0.949 . S
H532 C536 0.949 . S
C533 C534 1.349 . S
C533 C535 1.327 . S
C533 H556 0.950 . S
C534 C533 1.349 . S
C534 C546 1.349 . S
C535 C533 1.327 . S
C535 C551 1.429 . S
C535 H557 0.950 . S
C536 H532 0.949 . S
C536 C544 1.574 . S
C536 C552 1.368 . S
H537 C545 0.953 . S
H538 C543 0.950 . S
H539 C544 0.949 . S
H540 C546 0.950 . S
H541 C547 0.950 . S
H542 C548 0.949 . S
C543 H538 0.950 . S
C543 C545 1.341 . S
C543 C549 1.429 . S
C544 C536 1.574 . S
C544 H539 0.949 . S
C544 C550 1.368 . S
C545 C529 1.332 1_556 S
C545 H537 0.953 . S
C545 C543 1.341 . S
C546 C534 1.349 . S
C546 H540 0.950 . S
C546 C547 1.327 . S
C547 H541 0.950 . S
C547 C546 1.327 . S
C547 C551 1.429 . S
C548 C531 1.574 . S
C548 H542 0.949 . S
C548 C552 1.368 . S
C549 C530 1.429 1_556 S
C549 C543 1.429 . S
C549 C550 1.523 . S
C550 C531 1.368 . S
C550 C544 1.368 . S
C550 C549 1.523 . S
C551 C535 1.429 . S
C551 C547 1.429 . S
C551 C552 1.523 . S
C552 C536 1.368 . S
C552 C548 1.368 . S
C552 C551 1.523 . S
H553 C528 0.950 . S
H554 C530 0.950 . S
H555 C531 0.949 . S
H556 C533 0.950 . S
H557 C535 0.950 . S
C558 C559 1.349 . S
C558 C560 1.327 . S
C558 H583 0.950 . S
C559 C558 1.349 . S
C559 C575 1.349 . S
C560 C558 1.327 . S
C560 C579 1.429 . S
C560 H584 0.950 . S
C561 C578 1.574 . S
C561 C580 1.368 . S
C561 H585 0.949 . S
H562 C566 0.949 . S
C563 C564 1.349 . S
C563 C565 1.327 . S
C563 H586 0.950 . S
C564 C563 1.349 . S
C564 C576 1.349 . S
C565 C563 1.327 . S
C565 C581 1.429 . S
C565 H587 0.950 . S
C566 H562 0.949 . S
C566 C574 1.574 . S
C566 C582 1.368 . S
H567 C575 0.950 . S
H568 C573 0.950 . S
H569 C574 0.949 . S
H570 C576 0.950 . S
H571 C577 0.950 . S
H572 C578 0.949 . S
C573 H568 0.950 . S
C573 C575 1.327 . S
C573 C579 1.429 . S
C574 C566 1.574 . S
C574 H569 0.949 . S
C574 C580 1.368 . S
C575 C559 1.349 . S
C575 H567 0.950 . S
C575 C573 1.327 . S
C576 C564 1.349 . S
C576 H570 0.950 . S
C576 C577 1.327 . S
C577 H571 0.950 . S
C577 C576 1.327 . S
C577 C581 1.429 . S
C578 C561 1.574 . S
C578 H572 0.949 . S
C578 C582 1.368 . S
C579 C560 1.429 . S
C579 C573 1.429 . S
C579 C580 1.523 . S
C580 C561 1.368 . S
C580 C574 1.368 . S
C580 C579 1.523 . S
C581 C565 1.429 . S
C581 C577 1.429 . S
C581 C582 1.523 . S
C582 C566 1.368 . S
C582 C578 1.368 . S
C582 C581 1.523 . S
H583 C558 0.950 . S
H584 C560 0.950 . S
H585 C561 0.949 . S
H586 C563 0.950 . S
H587 C565 0.950 . S
C234 C95 1.374 . S
C229 C3 1.383 . S
C259 C21 1.409 . S
C264 C139 1.418 . S
C289 C37 1.391 . S
C294 C201 1.401 . S
C319 C8 1.400 . S
C324 C77 1.388 . S
C354 C157 1.407 . S
C349 C23 1.402 . S
C379 C35 1.393 . S
C384 C219 1.406 . S
C414 C133 1.613 . S
C409 C31 1.711 . S
C439 C7 1.737 . S
C444 C195 1.661 . S
C474 C71 1.636 . S
C469 C17 1.735 . S
C504 C151 1.621 . S
C499 C36 1.725 . S
C534 C213 1.658 . S
C529 C9 1.730 . S
C559 C22 1.746 . S
C564 C89 1.645 . S
