# Generated by pormake.
# Topology pyr, (3,6)-cn, num edge types: 1
# Building blocks:
#     Node 0, Type 0, BuildingBlock: KAKCAD_clean_linker_0, # of connection points: 3
#     Node 1, Type 0, BuildingBlock: KAKCAD_clean_linker_0, # of connection points: 3
#     Node 2, Type 0, BuildingBlock: KAKCAD_clean_linker_0, # of connection points: 3
#     Node 3, Type 0, BuildingBlock: KAKCAD_clean_linker_0, # of connection points: 3
#     Node 4, Type 0, BuildingBlock: KAKCAD_clean_linker_0, # of connection points: 3
#     Node 5, Type 0, BuildingBlock: KAKCAD_clean_linker_0, # of connection points: 3
#     Node 6, Type 0, BuildingBlock: KAKCAD_clean_linker_0, # of connection points: 3
#     Node 7, Type 0, BuildingBlock: KAKCAD_clean_linker_0, # of connection points: 3
#     Node 8, Type 1, BuildingBlock: MIDCAF_clean_sbu_0, # of connection points: 6
#     Node 9, Type 1, BuildingBlock: MIDCAF_clean_sbu_0, # of connection points: 6
#     Node 10, Type 1, BuildingBlock: MIDCAF_clean_sbu_0, # of connection points: 6
#     Node 11, Type 1, BuildingBlock: MIDCAF_clean_sbu_0, # of connection points: 6
#     Edge 12, Type (0, 1), BuildingBlock: TEMPAE_clean_linker_10, # of connection points: 2
#     Edge 13, Type (0, 1), BuildingBlock: TEMPAE_clean_linker_10, # of connection points: 2
#     Edge 14, Type (0, 1), BuildingBlock: TEMPAE_clean_linker_10, # of connection points: 2
#     Edge 15, Type (0, 1), BuildingBlock: TEMPAE_clean_linker_10, # of connection points: 2
#     Edge 16, Type (0, 1), BuildingBlock: TEMPAE_clean_linker_10, # of connection points: 2
#     Edge 17, Type (0, 1), BuildingBlock: TEMPAE_clean_linker_10, # of connection points: 2
#     Edge 18, Type (0, 1), BuildingBlock: TEMPAE_clean_linker_10, # of connection points: 2
#     Edge 19, Type (0, 1), BuildingBlock: TEMPAE_clean_linker_10, # of connection points: 2
#     Edge 20, Type (0, 1), BuildingBlock: TEMPAE_clean_linker_10, # of connection points: 2
#     Edge 21, Type (0, 1), BuildingBlock: TEMPAE_clean_linker_10, # of connection points: 2
#     Edge 22, Type (0, 1), BuildingBlock: TEMPAE_clean_linker_10, # of connection points: 2
#     Edge 23, Type (0, 1), BuildingBlock: TEMPAE_clean_linker_10, # of connection points: 2
#     Edge 24, Type (0, 1), BuildingBlock: TEMPAE_clean_linker_10, # of connection points: 2
#     Edge 25, Type (0, 1), BuildingBlock: TEMPAE_clean_linker_10, # of connection points: 2
#     Edge 26, Type (0, 1), BuildingBlock: TEMPAE_clean_linker_10, # of connection points: 2
#     Edge 27, Type (0, 1), BuildingBlock: TEMPAE_clean_linker_10, # of connection points: 2
#     Edge 28, Type (0, 1), BuildingBlock: TEMPAE_clean_linker_10, # of connection points: 2
#     Edge 29, Type (0, 1), BuildingBlock: TEMPAE_clean_linker_10, # of connection points: 2
#     Edge 30, Type (0, 1), BuildingBlock: TEMPAE_clean_linker_10, # of connection points: 2
#     Edge 31, Type (0, 1), BuildingBlock: TEMPAE_clean_linker_10, # of connection points: 2
#     Edge 32, Type (0, 1), BuildingBlock: TEMPAE_clean_linker_10, # of connection points: 2
#     Edge 33, Type (0, 1), BuildingBlock: TEMPAE_clean_linker_10, # of connection points: 2
#     Edge 34, Type (0, 1), BuildingBlock: TEMPAE_clean_linker_10, # of connection points: 2
#     Edge 35, Type (0, 1), BuildingBlock: TEMPAE_clean_linker_10, # of connection points: 2
# Relax obj value: 0.019
# Max RMSD: 0.063
# Mean RMSD: 0.024
data_MOF--net-pyr--node1-MIDCAF_clean_sbu_0--node2-KAKCAD_clean_linker_0--edge1-TEMPAE_clean_linker_10
_symmetry_space_group_name_H-M    P1
_symmetry_Int_Tables_number       1
_symmetry_cell_setting            triclinic
loop_
_symmetry_equiv_pos_as_xyz
'x, y, z'
_cell_length_a     44.32421
_cell_length_b     44.336919
_cell_length_c     44.278279
_cell_angle_alpha  90.235915
_cell_angle_beta   89.908157
_cell_angle_gamma 90.326679
loop_
_atom_site_label
_atom_site_type_symbol
_atom_site_fract_x
_atom_site_fract_y
_atom_site_fract_z
_atom_type_partial_charge
C0 C 0.16491 0.20128 0.31456 0.0
C1 C 0.18102 0.191 0.33975 0.0
C2 C 0.17986 0.21533 0.29066 0.0
C3 C 0.21133 0.21943 0.29133 0.0
C4 C 0.22743 0.20975 0.31683 0.0
C5 C 0.21238 0.1958 0.3409 0.0
C6 C 0.22714 0.23265 0.26483 0.0
C7 C 0.21448 0.25717 0.24954 0.0
C8 C 0.22702 0.26775 0.22242 0.0
C9 C 0.25327 0.25413 0.2111 0.0
C10 C 0.26638 0.22947 0.22605 0.0
C11 C 0.25328 0.21912 0.2531 0.0
C12 C 0.29186 0.21267 0.21199 0.0
C13 C 0.29198 0.20695 0.18074 0.0
C14 C 0.31537 0.20094 0.22968 0.0
C15 C 0.33816 0.18349 0.21647 0.0
C16 C 0.33784 0.1773 0.1853 0.0
C17 C 0.21097 0.29107 0.20469 0.0
C18 C 0.17956 0.2889 0.20088 0.0
C19 C 0.2266 0.3151 0.191 0.0
C20 C 0.21103 0.3366 0.174 0.0
C21 C 0.17963 0.33419 0.17008 0.0
C22 C 0.16411 0.31016 0.18382 0.0
C23 C 0.3147 0.1896 0.16758 0.0
H24 H 0.1407 0.1981 0.31315 0.0
H25 H 0.16682 0.22217 0.27121 0.0
H26 H 0.25166 0.21277 0.31805 0.0
H27 H 0.22538 0.1879 0.35995 0.0
H28 H 0.19439 0.26779 0.25854 0.0
H29 H 0.26231 0.19932 0.26406 0.0
H30 H 0.26281 0.26202 0.19 0.0
H31 H 0.27406 0.21519 0.16644 0.0
H32 H 0.31608 0.20512 0.25379 0.0
H33 H 0.35561 0.17429 0.23076 0.0
H34 H 0.16689 0.27044 0.21076 0.0
H35 H 0.2508 0.31739 0.19362 0.0
H36 H 0.31403 0.18573 0.14342 0.0
H37 H 0.13987 0.30788 0.18155 0.0
H38 H 0.22358 0.35484 0.16357 0.0
C39 C 0.33452 0.84571 0.83766 0.0
C40 C 0.36612 0.84815 0.83582 0.0
C41 C 0.31799 0.83278 0.81398 0.0
C42 C 0.33272 0.82193 0.78801 0.0
C43 C 0.36439 0.82374 0.78656 0.0
C44 C 0.38087 0.83662 0.81019 0.0
C45 C 0.3153 0.80984 0.76191 0.0
C46 C 0.28921 0.82458 0.7518 0.0
C47 C 0.27439 0.81503 0.72534 0.0
C48 C 0.28568 0.79006 0.70928 0.0
C49 C 0.31184 0.77527 0.71891 0.0
C50 C 0.32615 0.78498 0.74551 0.0
C51 C 0.32586 0.75155 0.69983 0.0
C52 C 0.30836 0.7286 0.6864 0.0
C53 C 0.35705 0.75243 0.69418 0.0
C54 C 0.37048 0.73096 0.67551 0.0
C55 C 0.35308 0.70803 0.662 0.0
C56 C 0.24894 0.83282 0.71291 0.0
C57 C 0.22629 0.84454 0.73185 0.0
C58 C 0.24782 0.83911 0.68186 0.0
C59 C 0.22482 0.85677 0.67003 0.0
C60 C 0.20237 0.86884 0.68892 0.0
C61 C 0.20315 0.8623 0.71995 0.0
C62 C 0.32189 0.70691 0.66778 0.0
H63 H 0.32247 0.85464 0.857 0.0
H64 H 0.29365 0.83149 0.81589 0.0
H65 H 0.37648 0.81598 0.76675 0.0
H66 H 0.4052 0.83789 0.80821 0.0
H67 H 0.28146 0.8446 0.76352 0.0
H68 H 0.34613 0.77334 0.75323 0.0
H69 H 0.27477 0.78283 0.68858 0.0
H70 H 0.28428 0.72733 0.69043 0.0
H71 H 0.37108 0.77007 0.70383 0.0
H72 H 0.39462 0.73217 0.67184 0.0
H73 H 0.22645 0.83996 0.75586 0.0
H74 H 0.26512 0.83088 0.66666 0.0
H75 H 0.30793 0.68951 0.6576 0.0
H76 H 0.1862 0.87133 0.73508 0.0
H77 H 0.22461 0.86095 0.64594 0.0
C78 C 0.80733 0.36672 0.83168 0.0
C79 C 0.83142 0.34954 0.84277 0.0
C80 C 0.78284 0.35275 0.81737 0.0
C81 C 0.78183 0.32123 0.81375 0.0
C82 C 0.80635 0.30411 0.82404 0.0
C83 C 0.83085 0.3181 0.83838 0.0
C84 C 0.75461 0.30629 0.80063 0.0
C85 C 0.73936 0.31932 0.77615 0.0
C86 C 0.71234 0.30669 0.76513 0.0
C87 C 0.70083 0.2804 0.77862 0.0
C88 C 0.71574 0.26695 0.80306 0.0
C89 C 0.74272 0.27993 0.81376 0.0
C90 C 0.70217 0.24051 0.81867 0.0
C91 C 0.67121 0.24 0.82554 0.0
C92 C 0.72011 0.21612 0.82771 0.0
C93 C 0.70741 0.19192 0.84357 0.0
C94 C 0.6765 0.19165 0.8509 0.0
C95 C 0.69532 0.32185 0.74061 0.0
C96 C 0.69194 0.35335 0.74089 0.0
C97 C 0.68173 0.30506 0.71722 0.0
C98 C 0.66512 0.31948 0.69466 0.0
C99 C 0.66158 0.35098 0.69514 0.0
C100 C 0.67531 0.36772 0.71846 0.0
C101 C 0.65855 0.21593 0.84151 0.0
H102 H 0.80677 0.39091 0.83512 0.0
H103 H 0.76416 0.36661 0.81018 0.0
H104 H 0.8065 0.27984 0.8212 0.0
H105 H 0.84924 0.30425 0.84632 0.0
H106 H 0.74857 0.33937 0.7656 0.0
H107 H 0.75364 0.27033 0.83335 0.0
H108 H 0.6798 0.27075 0.77054 0.0
H109 H 0.65686 0.25868 0.81937 0.0
H110 H 0.74398 0.21574 0.82247 0.0
H111 H 0.72182 0.17343 0.8501 0.0
H112 H 0.70179 0.36693 0.75877 0.0
H113 H 0.68409 0.28078 0.71625 0.0
H114 H 0.63482 0.21682 0.84726 0.0
H115 H 0.6734 0.39205 0.71926 0.0
H116 H 0.65472 0.30595 0.67708 0.0
C117 C 0.83563 0.70026 0.19467 0.0
C118 C 0.86697 0.69613 0.19715 0.0
C119 C 0.81945 0.71442 0.21784 0.0
C120 C 0.83426 0.72495 0.24392 0.0
C121 C 0.86573 0.72156 0.24599 0.0
C122 C 0.88187 0.70729 0.22291 0.0
C123 C 0.81692 0.73827 0.26946 0.0
C124 C 0.79003 0.72446 0.2795 0.0
C125 C 0.77472 0.73546 0.30508 0.0
C126 C 0.78629 0.76093 0.3202 0.0
C127 C 0.81319 0.77482 0.31078 0.0
C128 C 0.82821 0.76357 0.28518 0.0
C129 C 0.82654 0.79973 0.32899 0.0
C130 C 0.83864 0.82556 0.31509 0.0
C131 C 0.82789 0.79737 0.36063 0.0
C132 C 0.84146 0.82004 0.37794 0.0
C133 C 0.85387 0.8457 0.36406 0.0
C134 C 0.74784 0.71939 0.31745 0.0
C135 C 0.7254 0.70729 0.29838 0.0
C136 C 0.74464 0.71591 0.34884 0.0
C137 C 0.7195 0.70128 0.36092 0.0
C138 C 0.69689 0.68951 0.34199 0.0
C139 C 0.70019 0.6924 0.31055 0.0
C140 C 0.85203 0.84841 0.33248 0.0
H141 H 0.82345 0.69167 0.17524 0.0
H142 H 0.79527 0.71691 0.21546 0.0
H143 H 0.87781 0.72911 0.26589 0.0
H144 H 0.90602 0.70467 0.22539 0.0
H145 H 0.78188 0.70422 0.26832 0.0
H146 H 0.84914 0.77404 0.27796 0.0
H147 H 0.77441 0.76995 0.33962 0.0
H148 H 0.83777 0.82806 0.29079 0.0
H149 H 0.81905 0.7776 0.37199 0.0
H150 H 0.8424 0.81743 0.40224 0.0
H151 H 0.72712 0.70968 0.27411 0.0
H152 H 0.76183 0.72414 0.3642 0.0
H153 H 0.86166 0.86782 0.32116 0.0
H154 H 0.6831 0.68352 0.29542 0.0
H155 H 0.71804 0.69872 0.3852 0.0
C156 C 0.97505 0.91661 0.81189 0.0
C157 C 0.97618 0.94733 0.8047 0.0
C158 C 0.96027 0.90696 0.83808 0.0
C159 C 0.94675 0.92793 0.85787 0.0
C160 C 0.94964 0.95888 0.85136 0.0
C161 C 0.96389 0.96843 0.82487 0.0
C162 C 0.92758 0.91738 0.88355 0.0
C163 C 0.93444 0.89055 0.89891 0.0
C164 C 0.9142 0.87797 0.92001 0.0
C165 C 0.88742 0.89348 0.92665 0.0
C166 C 0.8809 0.92099 0.91266 0.0
C167 C 0.90089 0.93276 0.89113 0.0
C168 C 0.85233 0.93664 0.91956 0.0
C169 C 0.82475 0.92121 0.91672 0.0
C170 C 0.85248 0.96667 0.92979 0.0
C171 C 0.82548 0.98072 0.93804 0.0
C172 C 0.79791 0.96513 0.93548 0.0
C173 C 0.92006 0.84784 0.93366 0.0
C174 C 0.93432 0.82516 0.91667 0.0
C175 C 0.91052 0.84102 0.96323 0.0
C176 C 0.91453 0.81213 0.97517 0.0
C177 C 0.92862 0.78944 0.95802 0.0
C178 C 0.93886 0.79657 0.92878 0.0
C179 C 0.79777 0.9354 0.92439 0.0
H180 H 0.98413 0.89996 0.79643 0.0
H181 H 0.95818 0.88294 0.8419 0.0
H182 H 0.94021 0.97576 0.86631 0.0
H183 H 0.96467 0.99229 0.81972 0.0
H184 H 0.95552 0.87926 0.89416 0.0
H185 H 0.8947 0.95312 0.87925 0.0
H186 H 0.87118 0.88399 0.94232 0.0
H187 H 0.82411 0.89809 0.90873 0.0
H188 H 0.87356 0.97893 0.9322 0.0
H189 H 0.8261 0.00364 0.94659 0.0
H190 H 0.94158 0.82919 0.89368 0.0
H191 H 0.89987 0.85796 0.97725 0.0
H192 H 0.77684 0.92279 0.92255 0.0
H193 H 0.95054 0.78005 0.91507 0.0
H194 H 0.9062 0.80755 0.99769 0.0
C195 C 0.58153 0.07538 0.32042 0.0
C196 C 0.56697 0.09709 0.30273 0.0
C197 C 0.59622 0.08377 0.34706 0.0
C198 C 0.59701 0.11414 0.35631 0.0
C199 C 0.5815 0.13566 0.33898 0.0
C200 C 0.56643 0.12716 0.31257 0.0
C201 C 0.61545 0.12372 0.38277 0.0
C202 C 0.64389 0.11086 0.38793 0.0
C203 C 0.66257 0.12129 0.41148 0.0
C204 C 0.65262 0.14571 0.42933 0.0
C205 C 0.62487 0.15973 0.42364 0.0
C206 C 0.60586 0.14751 0.40133 0.0
C207 C 0.61738 0.18919 0.4381 0.0
C208 C 0.62609 0.19616 0.46793 0.0
C209 C 0.6032 0.21163 0.42094 0.0
C210 C 0.59822 0.2402 0.43295 0.0
C211 C 0.60795 0.24763 0.46225 0.0
C212 C 0.69314 0.10796 0.41614 0.0
C213 C 0.6988 0.07738 0.40957 0.0
C214 C 0.71713 0.12583 0.42697 0.0
C215 C 0.74549 0.11342 0.43195 0.0
C216 C 0.75137 0.08297 0.42505 0.0
C217 C 0.72758 0.06519 0.41353 0.0
C218 C 0.62152 0.22513 0.47985 0.0
H219 H 0.58199 0.05197 0.31332 0.0
H220 H 0.6074 0.06653 0.36011 0.0
H221 H 0.58201 0.15934 0.34504 0.0
H222 H 0.5556 0.14431 0.29909 0.0
H223 H 0.65206 0.09366 0.37261 0.0
H224 H 0.58379 0.1572 0.39776 0.0
H225 H 0.66695 0.1546 0.44701 0.0
H226 H 0.63672 0.17939 0.48199 0.0
H227 H 0.59664 0.20757 0.39773 0.0
H228 H 0.58686 0.25659 0.41898 0.0
H229 H 0.68098 0.06261 0.40158 0.0
H230 H 0.71431 0.14962 0.43158 0.0
H231 H 0.6292 0.23004 0.50255 0.0
H232 H 0.73101 0.04179 0.40748 0.0
H233 H 0.76264 0.12792 0.44168 0.0
C234 C 0.29656 0.5593 0.12514 0.0
C235 C 0.28441 0.56178 0.09603 0.0
C236 C 0.32403 0.57336 0.13221 0.0
C237 C 0.34003 0.58981 0.11014 0.0
C238 C 0.32835 0.59096 0.08065 0.0
C239 C 0.30075 0.57731 0.07376 0.0
C240 C 0.36795 0.60696 0.11808 0.0
C241 C 0.38866 0.59546 0.139 0.0
C242 C 0.41402 0.61244 0.14802 0.0
C243 C 0.41939 0.6406 0.13446 0.0
C244 C 0.39901 0.65261 0.11335 0.0
C245 C 0.3732 0.63567 0.1057 0.0
C246 C 0.40384 0.68333 0.10032 0.0
C247 C 0.41756 0.70631 0.11752 0.0
C248 C 0.39443 0.69013 0.07074 0.0
C249 C 0.39837 0.71911 0.05889 0.0
C250 C 0.41244 0.74198 0.07602 0.0
C251 C 0.43338 0.60187 0.17333 0.0
C252 C 0.42004 0.58788 0.19852 0.0
C253 C 0.46477 0.60711 0.17356 0.0
C254 C 0.4822 0.59907 0.19864 0.0
C255 C 0.46864 0.58534 0.22381 0.0
C256 C 0.43743 0.57965 0.22332 0.0
C257 C 0.4222 0.73497 0.10542 0.0
H258 H 0.28422 0.54757 0.14271 0.0
H259 H 0.3321 0.57226 0.15524 0.0
H260 H 0.34034 0.60277 0.06291 0.0
H261 H 0.29195 0.5792 0.05103 0.0
H262 H 0.38496 0.57325 0.14845 0.0
H263 H 0.35646 0.64535 0.0909 0.0
H264 H 0.43911 0.65352 0.14102 0.0
H265 H 0.42461 0.70242 0.14055 0.0
H266 H 0.38418 0.67302 0.05652 0.0
H267 H 0.39024 0.7235 0.0363 0.0
H268 H 0.3959 0.58415 0.1996 0.0
H269 H 0.47587 0.61753 0.15444 0.0
H270 H 0.43386 0.75151 0.11922 0.0
H271 H 0.42617 0.56971 0.24264 0.0
H272 H 0.50623 0.60359 0.19836 0.0
C273 C 0.13334 0.31736 0.56349 0.0
C274 C 0.10311 0.30823 0.56144 0.0
C275 C 0.141 0.34402 0.57867 0.0
C276 C 0.11848 0.3623 0.5917 0.0
C277 C 0.08806 0.3539 0.58785 0.0
C278 C 0.08049 0.32698 0.57314 0.0
C279 C 0.12689 0.38843 0.61132 0.0
C280 C 0.15275 0.40576 0.60499 0.0
C281 C 0.16365 0.4274 0.62568 0.0
C282 C 0.14691 0.43306 0.6521 0.0
C283 C 0.12019 0.41692 0.65823 0.0
C284 C 0.11058 0.39448 0.6379 0.0
C285 C 0.10309 0.42236 0.68662 0.0
C286 C 0.11842 0.42622 0.71412 0.0
C287 C 0.07136 0.4235 0.68651 0.0
C288 C 0.05537 0.42892 0.71326 0.0
C289 C 0.0708 0.43335 0.74062 0.0
C290 C 0.19352 0.44231 0.6206 0.0
C291 C 0.21696 0.42625 0.60657 0.0
C292 C 0.19931 0.47209 0.63029 0.0
C293 C 0.22784 0.48528 0.62616 0.0
C294 C 0.25116 0.46915 0.61187 0.0
C295 C 0.24508 0.43957 0.60186 0.0
C296 C 0.10247 0.43163 0.74077 0.0
H297 H 0.15113 0.30303 0.55488 0.0
H298 H 0.16468 0.34939 0.58151 0.0
H299 H 0.07008 0.36768 0.59693 0.0
H300 H 0.05697 0.32034 0.57164 0.0
H301 H 0.16472 0.40198 0.584 0.0
H302 H 0.09114 0.38074 0.64365 0.0
H303 H 0.15495 0.44958 0.66831 0.0
H304 H 0.14278 0.42476 0.71512 0.0
H305 H 0.05892 0.42077 0.66563 0.0
H306 H 0.031 0.43035 0.71239 0.0
H307 H 0.21386 0.40307 0.59938 0.0
H308 H 0.18181 0.48537 0.64092 0.0
H309 H 0.11499 0.43434 0.76161 0.0
H310 H 0.26197 0.42655 0.58999 0.0
H311 H 0.2316 0.50803 0.63434 0.0
Zn312 Zn 0.98658 0.0669 0.55992 0.0
Zn313 Zn 0.05412 0.99341 0.49371 0.0
Zn314 Zn 0.0195 0.03031 0.52675 0.0
C315 C 0.07433 0.0519 0.48247 0.0
C316 C 0.99433 0.98427 0.47512 0.0
O317 O 0.02314 0.01723 0.57513 0.0
O318 O 0.99765 0.05202 0.60033 0.0
C319 C 0.02666 0.10325 0.52877 0.0
O320 O 0.05253 0.0578 0.50088 0.0
O321 O 0.08063 0.02492 0.4759 0.0
O322 O 0.02093 0.9762 0.46896 0.0
O323 O 0.98952 0.00421 0.49586 0.0
O324 O 0.00415 0.10533 0.54609 0.0
O325 O 0.03599 0.07722 0.51978 0.0
O326 O 0.97229 0.02677 0.51066 0.0
O327 O 0.94711 0.05558 0.54276 0.0
C328 C 0.94732 0.03842 0.51995 0.0
O329 O 0.04308 0.99938 0.55798 0.0
O330 O 0.0695 0.96938 0.52798 0.0
C331 C 0.01355 0.02851 0.60026 0.0
C332 C 0.06149 0.97724 0.55423 0.0
Zn333 Zn 0.49216 0.04552 0.99334 0.0
Zn334 Zn 0.55085 0.97257 0.06488 0.0
Zn335 Zn 0.5234 0.00875 0.02843 0.0
C336 C 0.5948 0.99486 0.0261 0.0
C337 C 0.50941 0.93675 0.03603 0.0
O338 O 0.49796 0.04172 0.05694 0.0
O339 O 0.47161 0.06928 0.02497 0.0
C340 C 0.55379 0.05384 0.97978 0.0
O341 O 0.5722 0.01012 0.01616 0.0
O342 O 0.59135 0.97666 0.04765 0.0
O343 O 0.52968 0.93499 0.05585 0.0
O344 O 0.50409 0.96217 0.02301 0.0
O345 O 0.52795 0.06418 0.97412 0.0
O346 O 0.557 0.03208 0.99876 0.0
O347 O 0.49224 0.98098 0.00058 0.0
O348 O 0.46895 0.01388 0.97139 0.0
C349 C 0.47336 0.98693 0.9793 0.0
O350 O 0.51685 0.02487 0.07561 0.0
O351 O 0.54152 0.99202 0.10367 0.0
C352 C 0.47879 0.06289 0.05174 0.0
C353 C 0.52568 0.01544 0.10164 0.0
Zn354 Zn 0.55397 0.55457 0.53952 0.0
Zn355 Zn 0.48048 0.48946 0.46841 0.0
Zn356 Zn 0.51678 0.5216 0.50366 0.0
C357 C 0.52251 0.44985 0.49347 0.0
C358 C 0.50866 0.53106 0.43125 0.0
O359 O 0.48807 0.54816 0.53428 0.0
O360 O 0.52032 0.57624 0.56044 0.0
C361 C 0.56591 0.49392 0.55095 0.0
O362 O 0.53116 0.4742 0.50698 0.0
O363 O 0.5008 0.45042 0.47505 0.0
O364 O 0.48801 0.5114 0.43048 0.0
O365 O 0.52243 0.53724 0.45617 0.0
O366 O 0.57334 0.52 0.55988 0.0
O367 O 0.54618 0.49053 0.52977 0.0
O368 O 0.54274 0.55286 0.47461 0.0
O369 O 0.57593 0.57417 0.50553 0.0
C370 C 0.56549 0.57051 0.47924 0.0
O371 O 0.46965 0.52622 0.52038 0.0
O372 O 0.44251 0.49704 0.49009 0.0
C373 C 0.49346 0.56885 0.55411 0.0
C374 C 0.44412 0.51437 0.5127 0.0
Zn375 Zn 0.04353 0.54277 0.9743 0.0
Zn376 Zn 0.97209 0.48227 0.05063 0.0
Zn377 Zn 0.00889 0.5133 0.01254 0.0
C378 C 0.03302 0.46918 0.06493 0.0
C379 C 0.9593 0.46277 0.99188 0.0
O380 O 0.99558 0.56157 0.01421 0.0
O381 O 0.02803 0.58338 0.98306 0.0
C382 C 0.08216 0.51673 0.01564 0.0
O383 O 0.03812 0.48861 0.04394 0.0
O384 O 0.00626 0.46213 0.07203 0.0
O385 O 0.94925 0.46037 0.01847 0.0
O386 O 0.98184 0.48036 0.9861 0.0
O387 O 0.08301 0.53141 0.9913 0.0
O388 O 0.05663 0.50826 0.02689 0.0
O389 O 0.00181 0.49476 0.96621 0.0
O390 O 0.03026 0.52327 0.93654 0.0
C391 C 0.01174 0.50186 0.93977 0.0
O392 O 0.98025 0.54621 0.0376 0.0
O393 O 0.95329 0.5183 0.0692 0.0
C394 C 0.00597 0.58535 0.001 0.0
C395 C 0.96069 0.54391 0.05913 0.0
C396 C 0.14518 0.15049 0.35566 0.0
C397 C 0.16525 0.17368 0.36372 0.0
C398 C 0.13065 0.13306 0.37768 0.0
C399 C 0.13607 0.13911 0.40863 0.0
C400 C 0.15587 0.1629 0.41701 0.0
C401 C 0.17049 0.17973 0.3944 0.0
C402 C 0.1101 0.1076 0.36774 0.0
C403 C 0.16249 0.17022 0.44966 0.0
C404 C 0.07701 0.10311 0.45912 0.0
C405 C 0.09134 0.07634 0.46742 0.0
C406 C 0.0922 0.12504 0.44199 0.0
C407 C 0.12192 0.11933 0.43177 0.0
C408 C 0.13684 0.09278 0.44096 0.0
C409 C 0.12139 0.07164 0.45876 0.0
C410 C 0.07591 0.15358 0.43359 0.0
C411 C 0.1686 0.086 0.43075 0.0
H412 H 0.14142 0.14544 0.33198 0.0
H413 H 0.18592 0.19773 0.40074 0.0
H414 H 0.11881 0.08583 0.37629 0.0
H415 H 0.08722 0.11073 0.37742 0.0
H416 H 0.1081 0.10606 0.34277 0.0
H417 H 0.16751 0.19463 0.45266 0.0
H418 H 0.14354 0.16394 0.46482 0.0
H419 H 0.18272 0.15751 0.45684 0.0
H420 H 0.05349 0.10637 0.46483 0.0
H421 H 0.13254 0.05093 0.46516 0.0
H422 H 0.06881 0.15225 0.40961 0.0
H423 H 0.09109 0.17343 0.43599 0.0
H424 H 0.05554 0.15719 0.44777 0.0
H425 H 0.16912 0.08337 0.40582 0.0
H426 H 0.17754 0.06509 0.4411 0.0
H427 H 0.18382 0.10507 0.43666 0.0
C428 C 0.40617 0.88489 0.85158 0.0
C429 C 0.38352 0.86422 0.85967 0.0
C430 C 0.42158 0.9018 0.87354 0.0
C431 C 0.41413 0.89806 0.90439 0.0
C432 C 0.39208 0.87644 0.91283 0.0
C433 C 0.37694 0.85984 0.89035 0.0
C434 C 0.44508 0.9245 0.8636 0.0
C435 C 0.38412 0.87131 0.94552 0.0
C436 C 0.47027 0.93439 0.95837 0.0
C437 C 0.45696 0.96258 0.96328 0.0
C438 C 0.45567 0.91218 0.9409 0.0
C439 C 0.42758 0.91879 0.92727 0.0
C440 C 0.41363 0.94687 0.93304 0.0
C441 C 0.42849 0.96839 0.95098 0.0
C442 C 0.47123 0.88241 0.93583 0.0
C443 C 0.38364 0.9548 0.9191 0.0
H444 H 0.41118 0.88865 0.82792 0.0
H445 H 0.35981 0.84352 0.89676 0.0
H446 H 0.43751 0.94761 0.86948 0.0
H447 H 0.46661 0.92054 0.87565 0.0
H448 H 0.44942 0.92348 0.8389 0.0
H449 H 0.36836 0.85199 0.94856 0.0
H450 H 0.40492 0.867 0.95863 0.0
H451 H 0.37354 0.89187 0.95506 0.0
H452 H 0.49254 0.92999 0.96736 0.0
H453 H 0.41807 0.99014 0.95483 0.0
H454 H 0.48446 0.88355 0.91457 0.0
H455 H 0.45478 0.86358 0.93365 0.0
H456 H 0.48701 0.87726 0.95458 0.0
H457 H 0.38612 0.95631 0.89421 0.0
H458 H 0.37481 0.97664 0.92764 0.0
H459 H 0.36673 0.9369 0.92384 0.0
C460 C 0.64757 0.35903 0.64078 0.0
C461 C 0.64398 0.36663 0.67137 0.0
C462 C 0.63318 0.37567 0.61807 0.0
C463 C 0.61493 0.40055 0.62613 0.0
C464 C 0.60991 0.40723 0.65702 0.0
C465 C 0.62448 0.39021 0.67923 0.0
C466 C 0.63849 0.36739 0.58545 0.0
C467 C 0.59013 0.43318 0.66664 0.0
C468 C 0.60913 0.46989 0.57699 0.0
C469 C 0.57952 0.4677 0.56618 0.0
C470 C 0.62147 0.44722 0.59505 0.0
C471 C 0.6037 0.42172 0.60268 0.0
C472 C 0.57432 0.41855 0.59041 0.0
C473 C 0.56244 0.44178 0.57251 0.0
C474 C 0.65302 0.4514 0.60729 0.0
C475 C 0.55459 0.39168 0.59752 0.0
H476 H 0.66258 0.34083 0.63451 0.0
H477 H 0.621 0.39572 0.70285 0.0
H478 H 0.61683 0.3671 0.57299 0.0
H479 H 0.65326 0.38462 0.57481 0.0
H480 H 0.64936 0.345 0.58297 0.0
H481 H 0.58687 0.43411 0.6915 0.0
H482 H 0.60045 0.45478 0.65921 0.0
H483 H 0.5677 0.43126 0.65568 0.0
H484 H 0.62243 0.48987 0.57199 0.0
H485 H 0.5394 0.44015 0.56448 0.0
H486 H 0.66669 0.43097 0.60283 0.0
H487 H 0.65202 0.45464 0.63214 0.0
H488 H 0.66472 0.47118 0.59722 0.0
H489 H 0.56804 0.37098 0.60107 0.0
H490 H 0.53805 0.38738 0.57913 0.0
H491 H 0.54178 0.39632 0.61857 0.0
C492 C 0.90422 0.65634 0.18269 0.0
C493 C 0.88369 0.67859 0.17387 0.0
C494 C 0.91828 0.6377 0.16128 0.0
C495 C 0.91176 0.64137 0.13022 0.0
C496 C 0.8922 0.66474 0.12105 0.0
C497 C 0.87824 0.68297 0.14299 0.0
C498 C 0.93912 0.61317 0.17203 0.0
C499 C 0.88553 0.67 0.08812 0.0
C500 C 0.96377 0.59742 0.07777 0.0
C501 C 0.94706 0.57084 0.07339 0.0
C502 C 0.95183 0.62163 0.09451 0.0
C503 C 0.92293 0.61868 0.10799 0.0
C504 C 0.9056 0.59227 0.10264 0.0
C505 C 0.91786 0.56877 0.08539 0.0
C506 C 0.97103 0.64947 0.09903 0.0
C507 C 0.87469 0.58811 0.11648 0.0
H508 H 0.90838 0.65266 0.20651 0.0
H509 H 0.86283 0.7005 0.136 0.0
H510 H 0.92925 0.59075 0.16654 0.0
H511 H 0.96114 0.61483 0.16018 0.0
H512 H 0.94318 0.61434 0.19676 0.0
H513 H 0.87185 0.69057 0.08448 0.0
H514 H 0.90698 0.67224 0.0754 0.0
H515 H 0.87318 0.65031 0.07862 0.0
H516 H 0.9866 0.59892 0.06906 0.0
H517 H 0.90484 0.54825 0.08201 0.0
H518 H 0.98503 0.64659 0.11956 0.0
H519 H 0.95714 0.66999 0.10211 0.0
H520 H 0.98649 0.65298 0.07955 0.0
H521 H 0.87669 0.58716 0.14144 0.0
H522 H 0.86337 0.56712 0.10853 0.0
H523 H 0.8601 0.60757 0.11098 0.0
C524 C 0.39179 0.16086 0.17852 0.0
C525 C 0.36114 0.15779 0.17103 0.0
C526 C 0.41398 0.14413 0.1632 0.0
C527 C 0.40531 0.12412 0.13972 0.0
C528 C 0.37433 0.1199 0.13311 0.0
C529 C 0.35268 0.13665 0.1489 0.0
C530 C 0.44674 0.14887 0.17122 0.0
C531 C 0.36408 0.09859 0.10842 0.0
C532 C 0.45552 0.10958 0.07212 0.0
C533 C 0.46399 0.07954 0.0766 0.0
C534 C 0.43777 0.12487 0.09336 0.0
C535 C 0.42836 0.10979 0.11991 0.0
C536 C 0.43834 0.08001 0.12543 0.0
C537 C 0.4556 0.06502 0.10339 0.0
C538 C 0.42763 0.15658 0.08651 0.0
C539 C 0.42944 0.06325 0.15367 0.0
H540 H 0.39856 0.17713 0.19558 0.0
H541 H 0.32901 0.13353 0.14356 0.0
H542 H 0.45901 0.12713 0.17115 0.0
H543 H 0.45753 0.16359 0.15408 0.0
H544 H 0.44938 0.15977 0.19371 0.0
H545 H 0.33911 0.09681 0.10706 0.0
H546 H 0.37277 0.10653 0.0863 0.0
H547 H 0.37338 0.07576 0.11229 0.0
H548 H 0.462 0.12088 0.0514 0.0
H549 H 0.46127 0.04152 0.10655 0.0
H550 H 0.43266 0.17177 0.10584 0.0
H551 H 0.40284 0.15675 0.08304 0.0
H552 H 0.43867 0.16585 0.06598 0.0
H553 H 0.42816 0.07863 0.17345 0.0
H554 H 0.44561 0.04491 0.15876 0.0
H555 H 0.40682 0.05292 0.15039 0.0
C556 C 0.18603 0.90958 0.65385 0.0
C557 C 0.17845 0.88818 0.67584 0.0
C558 C 0.1637 0.92546 0.63834 0.0
C559 C 0.13292 0.92014 0.64523 0.0
C560 C 0.12513 0.90003 0.66883 0.0
C561 C 0.14803 0.88418 0.6838 0.0
C562 C 0.17307 0.94668 0.61337 0.0
C563 C 0.09276 0.89366 0.67739 0.0
C564 C 0.08258 0.97708 0.60669 0.0
C565 C 0.07492 0.96146 0.5802 0.0
C566 C 0.09916 0.963 0.62963 0.0
C567 C 0.10945 0.93311 0.62522 0.0
C568 C 0.10041 0.9168 0.59919 0.0
C569 C 0.08316 0.93115 0.57707 0.0
C570 C 0.10711 0.98086 0.65759 0.0
C571 C 0.1105 0.88475 0.5938 0.0
H572 H 0.20954 0.91335 0.64815 0.0
H573 H 0.14194 0.86769 0.7008 0.0
H574 H 0.16421 0.93826 0.59144 0.0
H575 H 0.16335 0.96934 0.61733 0.0
H576 H 0.19797 0.94901 0.6115 0.0
H577 H 0.09053 0.89192 0.70232 0.0
H578 H 0.07699 0.91111 0.66917 0.0
H579 H 0.08585 0.87157 0.66766 0.0
H580 H 0.07696 0.00072 0.60891 0.0
H581 H 0.07711 0.91896 0.55666 0.0
H582 H 0.12886 0.99279 0.6539 0.0
H583 H 0.10959 0.96606 0.67757 0.0
H584 H 0.08966 0.99809 0.66257 0.0
H585 H 0.13545 0.88415 0.59157 0.0
H586 H 0.1004 0.87478 0.57306 0.0
H587 H 0.10422 0.87046 0.61335 0.0
C588 C 0.86557 0.35108 0.88781 0.0
C589 C 0.85579 0.36424 0.8608 0.0
C590 C 0.88573 0.36627 0.90706 0.0
C591 C 0.89633 0.39539 0.8992 0.0
C592 C 0.88802 0.40805 0.87115 0.0
C593 C 0.86775 0.39236 0.85231 0.0
C594 C 0.89442 0.3518 0.93658 0.0
C595 C 0.89927 0.43882 0.86174 0.0
C596 C 0.91229 0.44729 0.96562 0.0
C597 C 0.94378 0.44642 0.96734 0.0
C598 C 0.89674 0.4314 0.94302 0.0
C599 C 0.91311 0.4138 0.9219 0.0
C600 C 0.94502 0.41285 0.92358 0.0
C601 C 0.95999 0.42926 0.94637 0.0
C602 C 0.86273 0.43311 0.94203 0.0
C603 C 0.96332 0.39441 0.90155 0.0
H604 H 0.85634 0.32949 0.89468 0.0
H605 H 0.86073 0.40243 0.83121 0.0
H606 H 0.91925 0.35266 0.93963 0.0
H607 H 0.88414 0.3645 0.95561 0.0
H608 H 0.88682 0.32792 0.93794 0.0
H609 H 0.89376 0.44388 0.83784 0.0
H610 H 0.88883 0.4563 0.87633 0.0
H611 H 0.92406 0.44057 0.86477 0.0
H612 H 0.89981 0.46057 0.98198 0.0
H613 H 0.98426 0.42789 0.94848 0.0
H614 H 0.85284 0.41037 0.9457 0.0
H615 H 0.85527 0.44084 0.91945 0.0
H616 H 0.85352 0.44871 0.9594 0.0
H617 H 0.95369 0.37138 0.89907 0.0
H618 H 0.98728 0.39254 0.90857 0.0
H619 H 0.96261 0.40522 0.87904 0.0
C620 C 0.65653 0.68571 0.38128 0.0
C621 C 0.67058 0.67364 0.35557 0.0
C622 C 0.63517 0.66897 0.39758 0.0
C623 C 0.62768 0.63939 0.38798 0.0
C624 C 0.63975 0.6281 0.36057 0.0
C625 C 0.66119 0.64535 0.34466 0.0
C626 C 0.62212 0.68219 0.4262 0.0
C627 C 0.63134 0.5971 0.34911 0.0
C628 C 0.61228 0.58686 0.45333 0.0
C629 C 0.58074 0.58572 0.4539 0.0
C630 C 0.6277 0.60307 0.43101 0.0
C631 C 0.61113 0.619 0.40895 0.0
C632 C 0.57918 0.61719 0.40888 0.0
C633 C 0.56433 0.60049 0.43145 0.0
C634 C 0.66178 0.60408 0.43179 0.0
C635 C 0.56045 0.63417 0.38629 0.0
H636 H 0.66312 0.70792 0.38932 0.0
H637 H 0.6718 0.63598 0.32468 0.0
H638 H 0.59723 0.6794 0.42644 0.0
H639 H 0.63117 0.66997 0.44601 0.0
H640 H 0.62765 0.70653 0.42879 0.0
H641 H 0.63945 0.59315 0.32568 0.0
H642 H 0.64132 0.57977 0.36404 0.0
H643 H 0.60649 0.59401 0.34972 0.0
H644 H 0.62494 0.57527 0.47067 0.0
H645 H 0.53989 0.60015 0.43232 0.0
H646 H 0.66953 0.62744 0.43667 0.0
H647 H 0.67112 0.59753 0.40946 0.0
H648 H 0.67125 0.58888 0.44921 0.0
H649 H 0.55525 0.65682 0.39561 0.0
H650 H 0.53869 0.62239 0.38199 0.0
H651 H 0.57249 0.63729 0.36456 0.0
C652 C 0.14046 0.3465 0.13159 0.0
C653 C 0.16268 0.35646 0.15185 0.0
C654 C 0.12197 0.367 0.11642 0.0
C655 C 0.12583 0.39833 0.12153 0.0
C656 C 0.14916 0.40864 0.14091 0.0
C657 C 0.16732 0.38755 0.15588 0.0
C658 C 0.09745 0.35503 0.0959 0.0
C659 C 0.1541 0.44175 0.14732 0.0
C660 C 0.08506 0.44748 0.06484 0.0
C661 C 0.05823 0.45388 0.0803 0.0
C662 C 0.10824 0.43111 0.07868 0.0
C663 C 0.10387 0.41977 0.10822 0.0
C664 C 0.07707 0.42674 0.12417 0.0
C665 C 0.05461 0.44375 0.11004 0.0
C666 C 0.13683 0.425 0.06123 0.0
C667 C 0.07168 0.41532 0.15581 0.0
H668 H 0.13715 0.3225 0.12799 0.0
H669 H 0.18433 0.39541 0.17166 0.0
H670 H 0.07502 0.3613 0.1051 0.0
H671 H 0.09949 0.36531 0.07319 0.0
H672 H 0.09823 0.3301 0.09339 0.0
H673 H 0.1783 0.44662 0.15182 0.0
H674 H 0.14642 0.45617 0.12848 0.0
H675 H 0.14116 0.4481 0.16783 0.0
H676 H 0.08755 0.45433 0.04152 0.0
H677 H 0.03389 0.44866 0.12208 0.0
H678 H 0.13636 0.40148 0.0526 0.0
H679 H 0.15689 0.42743 0.07601 0.0
H680 H 0.13942 0.44047 0.0417 0.0
H681 H 0.07109 0.39028 0.15569 0.0
H682 H 0.05016 0.42367 0.16554 0.0
H683 H 0.09048 0.42247 0.17077 0.0
C684 C 0.67882 0.15543 0.8943 0.0
C685 C 0.66314 0.16695 0.86943 0.0
C686 C 0.66541 0.13421 0.91368 0.0
C687 C 0.63562 0.12393 0.90794 0.0
C688 C 0.62005 0.13478 0.88227 0.0
C689 C 0.63402 0.156 0.86331 0.0
C690 C 0.68324 0.12327 0.9404 0.0
C691 C 0.58801 0.12507 0.87557 0.0
C692 C 0.59762 0.05551 0.94395 0.0
C693 C 0.57974 0.0695 0.96596 0.0
C694 C 0.61749 0.07269 0.92589 0.0
C695 C 0.61929 0.10441 0.93007 0.0
C696 C 0.60253 0.11813 0.95358 0.0
C697 C 0.5829 0.10052 0.9711 0.0
C698 C 0.63539 0.05725 0.90139 0.0
C699 C 0.60376 0.15178 0.95897 0.0
H700 H 0.70126 0.16385 0.89934 0.0
H701 H 0.6219 0.16438 0.84387 0.0
H702 H 0.66895 0.12158 0.9609 0.0
H703 H 0.69218 0.10059 0.93503 0.0
H704 H 0.70272 0.1383 0.94555 0.0
H705 H 0.57957 0.1345 0.85399 0.0
H706 H 0.58642 0.10012 0.87439 0.0
H707 H 0.57293 0.13264 0.89411 0.0
H708 H 0.5949 0.03153 0.93982 0.0
H709 H 0.56882 0.11129 0.98801 0.0
H710 H 0.6597 0.06283 0.90387 0.0
H711 H 0.62822 0.06555 0.87894 0.0
H712 H 0.63243 0.03237 0.90183 0.0
H713 H 0.62749 0.15939 0.96166 0.0
H714 H 0.59082 0.15864 0.97935 0.0
H715 H 0.59433 0.16367 0.93912 0.0
C716 C 0.86508 0.89963 0.37773 0.0
C717 C 0.87004 0.86879 0.38236 0.0
C718 C 0.88157 0.92153 0.39386 0.0
C719 C 0.90382 0.91233 0.41475 0.0
C720 C 0.9082 0.88121 0.42018 0.0
C721 C 0.89121 0.85984 0.40399 0.0
C722 C 0.87548 0.95445 0.38832 0.0
C723 C 0.93168 0.87042 0.44226 0.0
C724 C 0.97394 0.9593 0.42905 0.0
C725 C 0.96921 0.96955 0.45864 0.0
C726 C 0.9521 0.94196 0.41398 0.0
C727 C 0.92468 0.93478 0.42881 0.0
C728 C 0.91904 0.9465 0.4581 0.0
C729 C 0.94165 0.9633 0.47291 0.0
C730 C 0.95909 0.93 0.38276 0.0
C731 C 0.88993 0.94007 0.47461 0.0
H732 H 0.84833 0.90661 0.3614 0.0
H733 H 0.89526 0.83602 0.40752 0.0
H734 H 0.86966 0.96564 0.40997 0.0
H735 H 0.89607 0.96564 0.37938 0.0
H736 H 0.85673 0.95793 0.3721 0.0
H737 H 0.93131 0.84551 0.44493 0.0
H738 H 0.95447 0.87735 0.43441 0.0
H739 H 0.92797 0.88098 0.46471 0.0
H740 H 0.99522 0.96414 0.4179 0.0
H741 H 0.93808 0.97072 0.49599 0.0
H742 H 0.94057 0.93557 0.36695 0.0
H743 H 0.96085 0.90505 0.38349 0.0
H744 H 0.98054 0.9393 0.37361 0.0
H745 H 0.87057 0.93821 0.45885 0.0
H746 H 0.88501 0.95796 0.49155 0.0
H747 H 0.89196 0.91833 0.48673 0.0
C748 C 0.36189 0.65443 0.64603 0.0
C749 C 0.3679 0.68529 0.64237 0.0
C750 C 0.37853 0.63268 0.63007 0.0
C751 C 0.4017 0.64207 0.6101 0.0
C752 C 0.40652 0.67322 0.60496 0.0
C753 C 0.38959 0.69443 0.62116 0.0
C754 C 0.37226 0.59973 0.63565 0.0
C755 C 0.43057 0.68419 0.58338 0.0
C756 C 0.47249 0.59603 0.59866 0.0
C757 C 0.46847 0.58482 0.56932 0.0
C758 C 0.45016 0.6134 0.61273 0.0
C759 C 0.42315 0.61983 0.59703 0.0
C760 C 0.41838 0.60742 0.56789 0.0
C761 C 0.44132 0.59039 0.5542 0.0
C762 C 0.45604 0.62592 0.64396 0.0
C763 C 0.38982 0.61325 0.55042 0.0
H764 H 0.34512 0.64724 0.66238 0.0
H765 H 0.39381 0.71828 0.61776 0.0
H766 H 0.37151 0.5872 0.61396 0.0
H767 H 0.39077 0.59012 0.64935 0.0
H768 H 0.35062 0.59608 0.64782 0.0
H769 H 0.42991 0.70902 0.5802 0.0
H770 H 0.45317 0.67807 0.59211 0.0
H771 H 0.42784 0.67308 0.56105 0.0
H772 H 0.49341 0.59163 0.61047 0.0
H773 H 0.43831 0.58215 0.53132 0.0
H774 H 0.43695 0.62037 0.65924 0.0
H775 H 0.45784 0.65087 0.64291 0.0
H776 H 0.47715 0.61701 0.65395 0.0
H777 H 0.36987 0.61434 0.56553 0.0
H778 H 0.38581 0.5955 0.53306 0.0
H779 H 0.39191 0.63526 0.53875 0.0
C780 C 0.01681 0.95202 0.76547 0.0
C781 C 0.98701 0.95708 0.77472 0.0
C782 C 0.0268 0.96139 0.7368 0.0
C783 C 0.00625 0.97551 0.71694 0.0
C784 C 0.97594 0.97991 0.72611 0.0
C785 C 0.96682 0.97095 0.75501 0.0
C786 C 0.05945 0.95704 0.72829 0.0
C787 C 0.9531 0.99433 0.70547 0.0
C788 C 0.02456 0.03085 0.65513 0.0
C789 C 0.01887 0.0134 0.62931 0.0
C790 C 0.02366 0.01795 0.68396 0.0
C791 C 0.0161 0.98707 0.68698 0.0
C792 C 0.01289 0.96883 0.6608 0.0
C793 C 0.01431 0.98227 0.63215 0.0
C794 C 0.02847 0.03792 0.71124 0.0
C795 C 0.00536 0.93569 0.66302 0.0
H796 H 0.03237 0.94126 0.78087 0.0
H797 H 0.94368 0.97444 0.76215 0.0
H798 H 0.07045 0.93974 0.74256 0.0
H799 H 0.06172 0.95039 0.70427 0.0
H800 H 0.07176 0.9787 0.73134 0.0
H801 H 0.93007 0.99446 0.7154 0.0
H802 H 0.95988 0.01795 0.70068 0.0
H803 H 0.95227 0.98208 0.68357 0.0
H804 H 0.02844 0.0549 0.65284 0.0
H805 H 0.00992 0.9688 0.61212 0.0
H806 H 0.04315 0.02659 0.72794 0.0
H807 H 0.00645 0.04229 0.72234 0.0
H808 H 0.03883 0.05993 0.7051 0.0
H809 H 0.01899 0.92476 0.68084 0.0
H810 H 0.00926 0.92373 0.64127 0.0
H811 H 0.98124 0.93304 0.66929 0.0
C812 C 0.52505 0.09579 0.26476 0.0
C813 C 0.55475 0.08876 0.27281 0.0
C814 C 0.51344 0.08724 0.23645 0.0
C815 C 0.5324 0.07216 0.21555 0.0
C816 C 0.56275 0.06601 0.22339 0.0
C817 C 0.57341 0.07411 0.25201 0.0
C818 C 0.481 0.09456 0.2295 0.0
C819 C 0.58396 0.05036 0.2017 0.0
C820 C 0.51165 0.01595 0.15569 0.0
C821 C 0.51891 0.03212 0.12956 0.0
C822 C 0.51206 0.03 0.18403 0.0
C823 C 0.52087 0.06062 0.1862 0.0
C824 C 0.52466 0.07786 0.15961 0.0
C825 C 0.52374 0.0633 0.13137 0.0
C826 C 0.50581 0.01141 0.21184 0.0
C827 C 0.5324 0.11096 0.16112 0.0
H828 H 0.51068 0.10739 0.28085 0.0
H829 H 0.59655 0.06921 0.25811 0.0
H830 H 0.47918 0.11914 0.22535 0.0
H831 H 0.4721 0.08227 0.20955 0.0
H832 H 0.46648 0.08931 0.24928 0.0
H833 H 0.60736 0.04915 0.21057 0.0
H834 H 0.57584 0.02705 0.19727 0.0
H835 H 0.58448 0.06241 0.17979 0.0
H836 H 0.5072 0.99192 0.15411 0.0
H837 H 0.52895 0.07585 0.11103 0.0
H838 H 0.49146 0.02419 0.22792 0.0
H839 H 0.5274 0.00636 0.22338 0.0
H840 H 0.49442 0.98972 0.20622 0.0
H841 H 0.5183 0.12246 0.17835 0.0
H842 H 0.52916 0.12219 0.13898 0.0
H843 H 0.55636 0.11368 0.16793 0.0
C844 C 0.48101 0.55083 0.26639 0.0
C845 C 0.48618 0.57814 0.2514 0.0
C846 C 0.49259 0.54584 0.29534 0.0
C847 C 0.50989 0.56872 0.30969 0.0
C848 C 0.51758 0.59517 0.29353 0.0
C849 C 0.50553 0.59964 0.26452 0.0
C850 C 0.48421 0.51702 0.31147 0.0
C851 C 0.53682 0.61957 0.30761 0.0
C852 C 0.49168 0.56672 0.39262 0.0
C853 C 0.51451 0.54811 0.40351 0.0
C854 C 0.49173 0.57637 0.36257 0.0
C855 C 0.51502 0.56674 0.34287 0.0
C856 C 0.53976 0.55044 0.35465 0.0
C857 C 0.53915 0.54114 0.38501 0.0
C858 C 0.46516 0.59424 0.35125 0.0
C859 C 0.56534 0.54019 0.33469 0.0
H860 H 0.46667 0.53385 0.25599 0.0
H861 H 0.50976 0.62075 0.25295 0.0
H862 H 0.50451 0.5066 0.32156 0.0
H863 H 0.46829 0.52215 0.33015 0.0
H864 H 0.47334 0.50031 0.29615 0.0
H865 H 0.54457 0.63637 0.2907 0.0
H866 H 0.52363 0.63151 0.32524 0.0
H867 H 0.55682 0.60959 0.31867 0.0
H868 H 0.47265 0.57198 0.40711 0.0
H869 H 0.55672 0.52657 0.39356 0.0
H870 H 0.45073 0.57955 0.33687 0.0
H871 H 0.47292 0.61343 0.3372 0.0
H872 H 0.45114 0.60317 0.37005 0.0
H873 H 0.55888 0.5187 0.32344 0.0
H874 H 0.58611 0.53613 0.34806 0.0
H875 H 0.57043 0.55695 0.31684 0.0
C876 C 0.02801 0.42486 0.77722 0.0
C877 C 0.05428 0.44067 0.76891 0.0
C878 C 0.01338 0.43092 0.80482 0.0
C879 C 0.02548 0.45313 0.82448 0.0
C880 C 0.05143 0.46976 0.81566 0.0
C881 C 0.06538 0.46337 0.78803 0.0
C882 C 0.98571 0.41282 0.81324 0.0
C883 C 0.06498 0.49393 0.83575 0.0
C884 C 0.98963 0.49527 0.88887 0.0
C885 C 0.00545 0.48307 0.9132 0.0
C886 C 0.99265 0.48297 0.85976 0.0
C887 C 0.01258 0.45854 0.85506 0.0
C888 C 0.02576 0.44411 0.88023 0.0
C889 C 0.02225 0.45679 0.90906 0.0
C890 C 0.97739 0.49839 0.83366 0.0
C891 C 0.04656 0.41756 0.87634 0.0
H892 H 0.01937 0.4072 0.76255 0.0
H893 H 0.08523 0.47614 0.7814 0.0
H894 H 0.99218 0.39486 0.8293 0.0
H895 H 0.96861 0.42717 0.82453 0.0
H896 H 0.97525 0.4019 0.79317 0.0
H897 H 0.08472 0.50527 0.82514 0.0
H898 H 0.04784 0.51128 0.84112 0.0
H899 H 0.07238 0.48386 0.85739 0.0
H900 H 0.9769 0.51584 0.89216 0.0
H901 H 0.03481 0.44768 0.92792 0.0
H902 H 0.96926 0.48164 0.81682 0.0
H903 H 0.99387 0.51342 0.8222 0.0
H904 H 0.95802 0.51226 0.84135 0.0
H905 H 0.03708 0.40115 0.85989 0.0
H906 H 0.0506 0.40581 0.89807 0.0
H907 H 0.06859 0.42555 0.86738 0.0
C908 C 0.74363 0.97773 0.92794 0.0
C909 C 0.7694 0.97873 0.94619 0.0
C910 C 0.71532 0.9858 0.93952 0.0
C911 C 0.71271 0.99443 0.97023 0.0
C912 C 0.73901 0.9974 0.98816 0.0
C913 C 0.76714 0.98967 0.97582 0.0
C914 C 0.68796 0.98286 0.91947 0.0
C915 C 0.73721 0.00619 0.02108 0.0
C916 C 0.63709 0.02246 1.00013 0.0
C917 C 0.62455 0.9957 0.01119 0.0
C918 C 0.66592 0.02258 0.98676 0.0
C919 C 0.6824 0.99537 0.98465 0.0
C920 C 0.66978 0.96836 0.99608 0.0
C921 C 0.64107 0.96889 0.00917 0.0
C922 C 0.67883 0.05176 0.97515 0.0
C923 C 0.68658 0.93882 0.99452 0.0
H924 H 0.74546 0.96956 0.90489 0.0
H925 H 0.78707 0.99029 0.98999 0.0
H926 H 0.67572 0.96168 0.925 0.0
H927 H 0.67226 0.00185 0.92335 0.0
H928 H 0.69421 0.98219 0.89517 0.0
H929 H 0.75972 0.01207 0.03049 0.0
H930 H 0.72191 0.02563 0.02436 0.0
H931 H 0.72781 0.98703 0.0342 0.0
H932 H 0.62473 0.04332 0.00263 0.0
H933 H 0.63139 0.9481 0.01775 0.0
H934 H 0.68623 0.0489 0.95139 0.0
H935 H 0.699 0.05822 0.98852 0.0
H936 H 0.66222 0.07034 0.97653 0.0
H937 H 0.69104 0.93271 0.97061 0.0
H938 H 0.67384 0.92003 0.00523 0.0
H939 H 0.70873 0.94109 0.00596 0.0
C940 C 0.80764 0.08855 0.43028 0.0
C941 C 0.78186 0.06996 0.43109 0.0
C942 C 0.83542 0.07857 0.44131 0.0
C943 C 0.83815 0.04855 0.45161 0.0
C944 C 0.81337 0.0285 0.44892 0.0
C945 C 0.78528 0.03961 0.43955 0.0
C946 C 0.86129 0.1008 0.44366 0.0
C947 C 0.81595 0.99567 0.45737 0.0
C948 C 0.91937 0.03076 0.47138 0.0
C949 C 0.91899 0.03482 0.50277 0.0
C950 C 0.89268 0.03236 0.45445 0.0
C951 C 0.86529 0.03988 0.46915 0.0
C952 C 0.86469 0.04302 0.501 0.0
C953 C 0.89143 0.03989 0.5174 0.0
C954 C 0.8946 0.02772 0.42075 0.0
C955 C 0.83631 0.05204 0.51764 0.0
H956 H 0.80598 0.11147 0.42213 0.0
H957 H 0.76593 0.02463 0.44017 0.0
H958 H 0.86925 0.10231 0.46738 0.0
H959 H 0.88047 0.09301 0.42964 0.0
H960 H 0.85493 0.12376 0.43609 0.0
H961 H 0.79957 0.98161 0.4445 0.0
H962 H 0.83903 0.98707 0.45312 0.0
H963 H 0.81086 0.99294 0.48174 0.0
H964 H 0.94067 0.02767 0.45977 0.0
H965 H 0.89104 0.04311 0.54169 0.0
H966 H 0.90353 0.04853 0.41008 0.0
H967 H 0.87239 0.02221 0.41055 0.0
H968 H 0.9107 0.00934 0.41538 0.0
H969 H 0.82807 0.07394 0.50891 0.0
H970 H 0.83993 0.0543 0.54237 0.0
H971 H 0.81827 0.03506 0.5138 0.0
C972 C 0.23238 0.56951 0.07701 0.0
C973 C 0.25389 0.55004 0.08915 0.0
C974 C 0.20372 0.55895 0.06881 0.0
C975 C 0.1965 0.528 0.07241 0.0
C976 C 0.21786 0.50835 0.08553 0.0
C977 C 0.24635 0.51969 0.09395 0.0
C978 C 0.1815 0.58084 0.05536 0.0
C979 C 0.21131 0.47518 0.08943 0.0
C980 C 0.11256 0.51556 0.0631 0.0
C981 C 0.1108 0.5118 0.03172 0.0
C982 C 0.14072 0.51781 0.07751 0.0
C983 C 0.16746 0.51646 0.05998 0.0
C984 C 0.16564 0.50947 0.02883 0.0
C985 C 0.1373 0.5075 0.01502 0.0
C986 C 0.14168 0.52442 0.11092 0.0
C987 C 0.19359 0.50677 0.00952 0.0
H988 H 0.23813 0.59308 0.07375 0.0
H989 H 0.26307 0.50465 0.10333 0.0
H990 H 0.17693 0.5746 0.0315 0.0
H991 H 0.15975 0.57974 0.06775 0.0
H992 H 0.18994 0.60448 0.05598 0.0
H993 H 0.21611 0.46324 0.0679 0.0
H994 H 0.22563 0.46517 0.10731 0.0
H995 H 0.18729 0.47115 0.09511 0.0
H996 H 0.09206 0.51877 0.07607 0.0
H997 H 0.13589 0.5041 0.99079 0.0
H998 H 0.14451 0.54908 0.11442 0.0
H999 H 0.16104 0.51304 0.1218 0.0
H1000 H 0.12051 0.51717 0.12232 0.0
H1001 H 0.20371 0.52948 0.0062 0.0
H1002 H 0.18855 0.49689 0.98697 0.0
H1003 H 0.21067 0.49258 0.02085 0.0
C1004 C 0.28465 0.51354 0.59872 0.0
C1005 C 0.28147 0.48292 0.60625 0.0
C1006 C 0.31245 0.52525 0.58872 0.0
C1007 C 0.33734 0.50563 0.58511 0.0
C1008 C 0.33484 0.47532 0.59481 0.0
C1009 C 0.30724 0.46466 0.60601 0.0
C1010 C 0.31413 0.5582 0.58045 0.0
C1011 C 0.36061 0.45339 0.5913 0.0
C1012 C 0.38838 0.51474 0.51748 0.0
C1013 C 0.41664 0.51864 0.5311 0.0
C1014 C 0.3621 0.51237 0.53486 0.0
C1015 C 0.36399 0.5147 0.56672 0.0
C1016 C 0.39216 0.52135 0.58042 0.0
C1017 C 0.41829 0.52261 0.56245 0.0
C1018 C 0.33266 0.50524 0.51913 0.0
C1019 C 0.39546 0.52545 0.61408 0.0
H1020 H 0.26517 0.52819 0.5991 0.0
H1021 H 0.30555 0.4414 0.61327 0.0
H1022 H 0.33738 0.56604 0.5754 0.0
H1023 H 0.29967 0.56235 0.56047 0.0
H1024 H 0.30498 0.57206 0.59927 0.0
H1025 H 0.35427 0.43013 0.59816 0.0
H1026 H 0.36832 0.45274 0.56744 0.0
H1027 H 0.37996 0.46084 0.60533 0.0
H1028 H 0.387 0.51196 0.49318 0.0
H1029 H 0.44011 0.52528 0.5732 0.0
H1030 H 0.31626 0.52356 0.52343 0.0
H1031 H 0.32283 0.48403 0.52818 0.0
H1032 H 0.33541 0.50269 0.49431 0.0
H1033 H 0.37371 0.53052 0.62537 0.0
H1034 H 0.41175 0.54397 0.61899 0.0
H1035 H 0.40493 0.50462 0.62399 0.0
C1036 C 0.9318 0.73338 0.95096 0.0
C1037 C 0.93312 0.7585 0.97032 0.0
C1038 C 0.94012 0.70466 0.96088 0.0
C1039 C 0.94896 0.7006 0.99129 0.0
C1040 C 0.94755 0.72519 0.01172 0.0
C1041 C 0.94017 0.75397 0.00091 0.0
C1042 C 0.9412 0.67905 0.9383 0.0
C1043 C 0.95535 0.72162 0.04466 0.0
C1044 C 0.96045 0.61777 0.00917 0.0
C1045 C 0.99161 0.61513 0.00465 0.0
C1046 C 0.94632 0.64603 0.00762 0.0
C1047 C 0.96368 0.67189 1.0001 0.0
C1048 C 0.99537 0.66945 0.99702 0.0
C1049 C 0.00892 0.64118 0.99966 0.0
C1050 C 0.91265 0.64748 0.01219 0.0
C1051 C 0.01478 0.69628 0.98864 0.0
H1052 H 0.92513 0.73627 0.92762 0.0
H1053 H 0.94118 0.77304 0.01626 0.0
H1054 H 0.96466 0.67065 0.93623 0.0
H1055 H 0.92695 0.66001 0.9462 0.0
H1056 H 0.93329 0.68589 0.91555 0.0
H1057 H 0.94305 0.73826 0.05881 0.0
H1058 H 0.94998 0.6986 0.05282 0.0
H1059 H 0.97986 0.72566 0.04783 0.0
H1060 H 0.94687 0.59767 0.01258 0.0
H1061 H 0.03308 0.63923 0.99632 0.0
H1062 H 0.90117 0.64103 0.99086 0.0
H1063 H 0.90508 0.67038 0.01883 0.0
H1064 H 0.90537 0.63116 0.02978 0.0
H1065 H 0.00786 0.70494 0.96622 0.0
H1066 H 0.03915 0.69062 0.98766 0.0
H1067 H 0.01167 0.71476 0.00526 0.0
C1068 C 0.42481 0.77674 0.0325 0.0
C1069 C 0.41805 0.7727 0.06328 0.0
C1070 C 0.43409 0.80497 0.02139 0.0
C1071 C 0.43799 0.8294 0.04172 0.0
C1072 C 0.42914 0.82606 0.07226 0.0
C1073 C 0.41861 0.79803 0.08244 0.0
C1074 C 0.44148 0.80778 0.98824 0.0
C1075 C 0.43294 0.85143 0.09485 0.0
C1076 C 0.50513 0.88123 0.03339 0.0
C1077 C 0.49135 0.90935 0.02995 0.0
C1078 C 0.48799 0.85475 0.03528 0.0
C1079 C 0.45618 0.85629 0.03293 0.0
C1080 C 0.44234 0.88431 0.02649 0.0
C1081 C 0.46009 0.91069 0.02564 0.0
C1082 C 0.50387 0.82553 0.04232 0.0
C1083 C 0.40871 0.88708 0.02243 0.0
H1084 H 0.42433 0.75766 0.01717 0.0
H1085 H 0.41199 0.79573 0.10588 0.0
H1086 H 0.44114 0.83153 0.98051 0.0
H1087 H 0.46425 0.79844 0.98392 0.0
H1088 H 0.42521 0.79445 0.97448 0.0
H1089 H 0.42507 0.8451 0.11782 0.0
H1090 H 0.45708 0.85811 0.09626 0.0
H1091 H 0.42011 0.87145 0.08744 0.0
H1092 H 0.52938 0.88016 0.03646 0.0
H1093 H 0.44929 0.93242 0.02325 0.0
H1094 H 0.49891 0.80853 0.02458 0.0
H1095 H 0.49552 0.81639 0.06412 0.0
H1096 H 0.52874 0.82838 0.04384 0.0
H1097 H 0.3981 0.86544 0.0154 0.0
H1098 H 0.40354 0.90459 0.00535 0.0
H1099 H 0.39835 0.89442 0.04404 0.0
C1100 C 0.10285 0.26821 0.52119 0.0
C1101 C 0.09537 0.27767 0.55048 0.0
C1102 C 0.09509 0.23906 0.51105 0.0
C1103 C 0.08013 0.219 0.53098 0.0
C1104 C 0.07346 0.22836 0.56089 0.0
C1105 C 0.08088 0.25767 0.57012 0.0
C1106 C 0.10202 0.23016 0.47888 0.0
C1107 C 0.05801 0.20757 0.58311 0.0
C1108 C 0.02579 0.1565 0.5125 0.0
C1109 C 0.04262 0.13125 0.52075 0.0
C1110 C 0.03899 0.18525 0.51195 0.0
C1111 C 0.06948 0.18879 0.52076 0.0
C1112 C 0.08734 0.16291 0.52601 0.0
C1113 C 0.07362 0.13426 0.52594 0.0
C1114 C 0.01941 0.21209 0.50505 0.0
C1115 C 0.12006 0.1656 0.53495 0.0
H1116 H 0.11416 0.28381 0.50609 0.0
H1117 H 0.07558 0.26497 0.59292 0.0
H1118 H 0.11126 0.20702 0.47785 0.0
H1119 H 0.08086 0.23016 0.46552 0.0
H1120 H 0.11832 0.24592 0.4681 0.0
H1121 H 0.0563 0.2177 0.60604 0.0
H1122 H 0.03489 0.20213 0.57511 0.0
H1123 H 0.07052 0.18604 0.58481 0.0
H1124 H 0.00184 0.15398 0.5081 0.0
H1125 H 0.0866 0.11461 0.53222 0.0
H1126 H 0.03182 0.22868 0.49096 0.0
H1127 H 0.01309 0.22351 0.52647 0.0
H1128 H 0.99837 0.20534 0.49314 0.0
H1129 H 0.13157 0.18392 0.52233 0.0
H1130 H 0.13232 0.14416 0.53096 0.0
H1131 H 0.12146 0.17117 0.55937 0.0
C1132 C 0.60644 0.30333 0.45406 0.0
C1133 C 0.60351 0.27885 0.47385 0.0
C1134 C 0.59695 0.33221 0.46243 0.0
C1135 C 0.58539 0.33712 0.49185 0.0
C1136 C 0.58554 0.31327 0.51307 0.0
C1137 C 0.59422 0.28426 0.50369 0.0
C1138 C 0.59726 0.35688 0.43898 0.0
C1139 C 0.5749 0.31746 0.54519 0.0
C1140 C 0.56921 0.42021 0.5041 0.0
C1141 C 0.53821 0.421 0.49813 0.0
C1142 C 0.58472 0.3927 0.50485 0.0
C1143 C 0.56896 0.36556 0.49821 0.0
C1144 C 0.53739 0.36625 0.49339 0.0
C1145 C 0.52241 0.39392 0.4937 0.0
C1146 C 0.61813 0.3934 0.51117 0.0
C1147 C 0.51964 0.33797 0.48601 0.0
H1148 H 0.61492 0.29964 0.43138 0.0
H1149 H 0.59221 0.26566 0.51938 0.0
H1150 H 0.57408 0.36562 0.43565 0.0
H1151 H 0.61156 0.37593 0.4468 0.0
H1152 H 0.60602 0.34898 0.41681 0.0
H1153 H 0.59113 0.30687 0.56096 0.0
H1154 H 0.57223 0.34148 0.55158 0.0
H1155 H 0.55292 0.30572 0.54821 0.0
H1156 H 0.58166 0.44111 0.50701 0.0
H1157 H 0.49836 0.39448 0.48928 0.0
H1158 H 0.63025 0.40207 0.49102 0.0
H1159 H 0.62724 0.3709 0.51692 0.0
H1160 H 0.62302 0.40929 0.53004 0.0
H1161 H 0.5292 0.32689 0.46562 0.0
H1162 H 0.4954 0.34262 0.48182 0.0
H1163 H 0.52126 0.32179 0.50495 0.0
loop_
_geom_bond_atom_site_label_1
_geom_bond_atom_site_label_2
_geom_bond_distance
_geom_bond_site_symmetry_2
_ccdc_geom_bond_type
C0 C1 1.386 . S
C0 C2 1.397 . S
C0 H24 0.931 . S
C1 C0 1.386 . S
C1 C5 1.397 . S
C2 C0 1.397 . S
C2 C3 1.384 . S
C2 H25 0.930 . S
C3 C2 1.384 . S
C3 C4 1.377 . S
C3 C6 1.481 . S
C4 C3 1.377 . S
C4 C5 1.389 . S
C4 H26 0.929 . S
C5 C1 1.397 . S
C5 C4 1.389 . S
C5 H27 0.931 . S
C6 C3 1.481 . S
C6 C7 1.387 . S
C6 C11 1.390 . S
C7 C6 1.387 . S
C7 C8 1.401 . S
C7 H28 0.930 . S
C8 C7 1.401 . S
C8 C9 1.376 . S
C8 C17 1.511 . S
C9 C8 1.376 . S
C9 C10 1.392 . S
C9 H30 0.931 . S
C10 C9 1.392 . S
C10 C11 1.361 . S
C10 C12 1.500 . S
C11 C6 1.390 . S
C11 C10 1.361 . S
C11 H29 0.931 . S
C12 C10 1.500 . S
C12 C13 1.371 . S
C12 C14 1.365 . S
C13 C12 1.371 . S
C13 C23 1.386 . S
C13 H31 0.931 . S
C14 C12 1.365 . S
C14 C15 1.409 . S
C14 H32 0.929 . S
C15 C14 1.409 . S
C15 C16 1.380 . S
C15 H33 0.930 . S
C16 C15 1.380 . S
C16 C23 1.357 . S
C17 C8 1.511 . S
C17 C18 1.341 . S
C17 C19 1.371 . S
C18 C17 1.341 . S
C18 C22 1.394 . S
C18 H34 0.930 . S
C19 C17 1.371 . S
C19 C20 1.392 . S
C19 H35 0.931 . S
C20 C19 1.392 . S
C20 C21 1.331 . S
C20 H38 0.932 . S
C21 C20 1.331 . S
C21 C22 1.336 . S
C22 C18 1.394 . S
C22 C21 1.336 . S
C22 H37 0.929 . S
C23 C13 1.386 . S
C23 C16 1.357 . S
C23 H36 0.928 . S
H24 C0 0.931 . S
H25 C2 0.930 . S
H26 C4 0.929 . S
H27 C5 0.931 . S
H28 C7 0.930 . S
H29 C11 0.931 . S
H30 C9 0.931 . S
H31 C13 0.931 . S
H32 C14 0.929 . S
H33 C15 0.930 . S
H34 C18 0.930 . S
H35 C19 0.931 . S
H36 C23 0.928 . S
H37 C22 0.929 . S
H38 C20 0.932 . S
C39 C40 1.386 . S
C39 C41 1.397 . S
C39 H63 0.931 . S
C40 C39 1.386 . S
C40 C44 1.397 . S
C41 C39 1.397 . S
C41 C42 1.384 . S
C41 H64 0.930 . S
C42 C41 1.384 . S
C42 C43 1.377 . S
C42 C45 1.481 . S
C43 C42 1.377 . S
C43 C44 1.389 . S
C43 H65 0.929 . S
C44 C40 1.397 . S
C44 C43 1.389 . S
C44 H66 0.931 . S
C45 C42 1.481 . S
C45 C46 1.387 . S
C45 C50 1.390 . S
C46 C45 1.387 . S
C46 C47 1.401 . S
C46 H67 0.930 . S
C47 C46 1.401 . S
C47 C48 1.376 . S
C47 C56 1.511 . S
C48 C47 1.376 . S
C48 C49 1.392 . S
C48 H69 0.931 . S
C49 C48 1.392 . S
C49 C50 1.361 . S
C49 C51 1.500 . S
C50 C45 1.390 . S
C50 C49 1.361 . S
C50 H68 0.931 . S
C51 C49 1.500 . S
C51 C52 1.371 . S
C51 C53 1.365 . S
C52 C51 1.371 . S
C52 C62 1.386 . S
C52 H70 0.931 . S
C53 C51 1.365 . S
C53 C54 1.409 . S
C53 H71 0.929 . S
C54 C53 1.409 . S
C54 C55 1.380 . S
C54 H72 0.930 . S
C55 C54 1.380 . S
C55 C62 1.357 . S
C56 C47 1.511 . S
C56 C57 1.341 . S
C56 C58 1.371 . S
C57 C56 1.341 . S
C57 C61 1.394 . S
C57 H73 0.930 . S
C58 C56 1.371 . S
C58 C59 1.392 . S
C58 H74 0.931 . S
C59 C58 1.392 . S
C59 C60 1.331 . S
C59 H77 0.932 . S
C60 C59 1.331 . S
C60 C61 1.336 . S
C61 C57 1.394 . S
C61 C60 1.336 . S
C61 H76 0.929 . S
C62 C52 1.386 . S
C62 C55 1.357 . S
C62 H75 0.928 . S
H63 C39 0.931 . S
H64 C41 0.930 . S
H65 C43 0.929 . S
H66 C44 0.931 . S
H67 C46 0.930 . S
H68 C50 0.931 . S
H69 C48 0.931 . S
H70 C52 0.931 . S
H71 C53 0.929 . S
H72 C54 0.930 . S
H73 C57 0.930 . S
H74 C58 0.931 . S
H75 C62 0.928 . S
H76 C61 0.929 . S
H77 C59 0.932 . S
C78 C79 1.386 . S
C78 C80 1.397 . S
C78 H102 0.931 . S
C79 C78 1.386 . S
C79 C83 1.397 . S
C80 C78 1.397 . S
C80 C81 1.384 . S
C80 H103 0.930 . S
C81 C80 1.384 . S
C81 C82 1.377 . S
C81 C84 1.481 . S
C82 C81 1.377 . S
C82 C83 1.389 . S
C82 H104 0.929 . S
C83 C79 1.397 . S
C83 C82 1.389 . S
C83 H105 0.931 . S
C84 C81 1.481 . S
C84 C85 1.387 . S
C84 C89 1.390 . S
C85 C84 1.387 . S
C85 C86 1.401 . S
C85 H106 0.930 . S
C86 C85 1.401 . S
C86 C87 1.376 . S
C86 C95 1.511 . S
C87 C86 1.376 . S
C87 C88 1.392 . S
C87 H108 0.931 . S
C88 C87 1.392 . S
C88 C89 1.361 . S
C88 C90 1.500 . S
C89 C84 1.390 . S
C89 C88 1.361 . S
C89 H107 0.931 . S
C90 C88 1.500 . S
C90 C91 1.371 . S
C90 C92 1.365 . S
C91 C90 1.371 . S
C91 C101 1.386 . S
C91 H109 0.931 . S
C92 C90 1.365 . S
C92 C93 1.409 . S
C92 H110 0.929 . S
C93 C92 1.409 . S
C93 C94 1.380 . S
C93 H111 0.930 . S
C94 C93 1.380 . S
C94 C101 1.357 . S
C95 C86 1.511 . S
C95 C96 1.341 . S
C95 C97 1.371 . S
C96 C95 1.341 . S
C96 C100 1.394 . S
C96 H112 0.930 . S
C97 C95 1.371 . S
C97 C98 1.392 . S
C97 H113 0.931 . S
C98 C97 1.392 . S
C98 C99 1.331 . S
C98 H116 0.932 . S
C99 C98 1.331 . S
C99 C100 1.336 . S
C100 C96 1.394 . S
C100 C99 1.336 . S
C100 H115 0.929 . S
C101 C91 1.386 . S
C101 C94 1.357 . S
C101 H114 0.928 . S
H102 C78 0.931 . S
H103 C80 0.930 . S
H104 C82 0.929 . S
H105 C83 0.931 . S
H106 C85 0.930 . S
H107 C89 0.931 . S
H108 C87 0.931 . S
H109 C91 0.931 . S
H110 C92 0.929 . S
H111 C93 0.930 . S
H112 C96 0.930 . S
H113 C97 0.931 . S
H114 C101 0.928 . S
H115 C100 0.929 . S
H116 C98 0.932 . S
C117 C118 1.386 . S
C117 C119 1.397 . S
C117 H141 0.931 . S
C118 C117 1.386 . S
C118 C122 1.397 . S
C119 C117 1.397 . S
C119 C120 1.384 . S
C119 H142 0.930 . S
C120 C119 1.384 . S
C120 C121 1.377 . S
C120 C123 1.481 . S
C121 C120 1.377 . S
C121 C122 1.389 . S
C121 H143 0.929 . S
C122 C118 1.397 . S
C122 C121 1.389 . S
C122 H144 0.931 . S
C123 C120 1.481 . S
C123 C124 1.387 . S
C123 C128 1.390 . S
C124 C123 1.387 . S
C124 C125 1.401 . S
C124 H145 0.930 . S
C125 C124 1.401 . S
C125 C126 1.376 . S
C125 C134 1.511 . S
C126 C125 1.376 . S
C126 C127 1.392 . S
C126 H147 0.931 . S
C127 C126 1.392 . S
C127 C128 1.361 . S
C127 C129 1.500 . S
C128 C123 1.390 . S
C128 C127 1.361 . S
C128 H146 0.931 . S
C129 C127 1.500 . S
C129 C130 1.371 . S
C129 C131 1.365 . S
C130 C129 1.371 . S
C130 C140 1.386 . S
C130 H148 0.931 . S
C131 C129 1.365 . S
C131 C132 1.409 . S
C131 H149 0.929 . S
C132 C131 1.409 . S
C132 C133 1.380 . S
C132 H150 0.930 . S
C133 C132 1.380 . S
C133 C140 1.357 . S
C134 C125 1.511 . S
C134 C135 1.341 . S
C134 C136 1.371 . S
C135 C134 1.341 . S
C135 C139 1.394 . S
C135 H151 0.930 . S
C136 C134 1.371 . S
C136 C137 1.392 . S
C136 H152 0.931 . S
C137 C136 1.392 . S
C137 C138 1.331 . S
C137 H155 0.932 . S
C138 C137 1.331 . S
C138 C139 1.336 . S
C139 C135 1.394 . S
C139 C138 1.336 . S
C139 H154 0.929 . S
C140 C130 1.386 . S
C140 C133 1.357 . S
C140 H153 0.928 . S
H141 C117 0.931 . S
H142 C119 0.930 . S
H143 C121 0.929 . S
H144 C122 0.931 . S
H145 C124 0.930 . S
H146 C128 0.931 . S
H147 C126 0.931 . S
H148 C130 0.931 . S
H149 C131 0.929 . S
H150 C132 0.930 . S
H151 C135 0.930 . S
H152 C136 0.931 . S
H153 C140 0.928 . S
H154 C139 0.929 . S
H155 C137 0.932 . S
C156 C157 1.386 . S
C156 C158 1.397 . S
C156 H180 0.931 . S
C157 C156 1.386 . S
C157 C161 1.397 1_565 S
C158 C156 1.397 . S
C158 C159 1.384 . S
C158 H181 0.930 . S
C159 C158 1.384 . S
C159 C160 1.377 . S
C159 C162 1.481 . S
C160 C159 1.377 . S
C160 C161 1.389 1_565 S
C160 H182 0.929 1_565 S
C161 C157 1.397 1_545 S
C161 C160 1.389 1_545 S
C161 H183 0.931 . S
C162 C159 1.481 . S
C162 C163 1.387 . S
C162 C167 1.390 . S
C163 C162 1.387 . S
C163 C164 1.401 . S
C163 H184 0.930 . S
C164 C163 1.401 . S
C164 C165 1.376 . S
C164 C173 1.511 . S
C165 C164 1.376 . S
C165 C166 1.392 . S
C165 H186 0.931 . S
C166 C165 1.392 . S
C166 C167 1.361 . S
C166 C168 1.500 . S
C167 C162 1.390 . S
C167 C166 1.361 . S
C167 H185 0.931 . S
C168 C166 1.500 . S
C168 C169 1.371 . S
C168 C170 1.365 . S
C169 C168 1.371 . S
C169 C179 1.386 . S
C169 H187 0.931 . S
C170 C168 1.365 . S
C170 C171 1.407 1_565 S
C170 H188 0.926 1_565 S
C171 C170 1.407 1_545 S
C171 C172 1.377 1_545 S
C171 H189 0.935 . S
C172 C171 1.377 1_565 S
C172 C179 1.357 . S
C173 C164 1.511 . S
C173 C174 1.341 . S
C173 C175 1.371 . S
C174 C173 1.341 . S
C174 C178 1.394 . S
C174 H190 0.930 . S
C175 C173 1.371 . S
C175 C176 1.392 . S
C175 H191 0.931 . S
C176 C175 1.392 . S
C176 C177 1.331 . S
C176 H194 0.932 1_556 S
C177 C176 1.331 . S
C177 C178 1.336 . S
C178 C174 1.394 . S
C178 C177 1.336 . S
C178 H193 0.929 1_655 S
C179 C169 1.386 . S
C179 C172 1.357 . S
C179 H192 0.928 . S
H180 C156 0.931 . S
H181 C158 0.930 . S
H182 C160 0.929 1_545 S
H183 C161 0.931 . S
H184 C163 0.930 . S
H185 C167 0.931 . S
H186 C165 0.931 . S
H187 C169 0.931 . S
H188 C170 0.926 1_545 S
H189 C171 0.935 . S
H190 C174 0.930 . S
H191 C175 0.931 . S
H192 C179 0.928 . S
H193 C178 0.929 1_455 S
H194 C176 0.932 1_554 S
C195 C196 1.386 . S
C195 C197 1.397 . S
C195 H219 0.931 . S
C196 C195 1.386 . S
C196 C200 1.397 . S
C197 C195 1.397 . S
C197 C198 1.384 . S
C197 H220 0.930 . S
C198 C197 1.384 . S
C198 C199 1.377 . S
C198 C201 1.481 . S
C199 C198 1.377 . S
C199 C200 1.389 . S
C199 H221 0.929 . S
C200 C196 1.397 . S
C200 C199 1.389 . S
C200 H222 0.931 . S
C201 C198 1.481 . S
C201 C202 1.387 . S
C201 C206 1.390 . S
C202 C201 1.387 . S
C202 C203 1.401 . S
C202 H223 0.930 . S
C203 C202 1.401 . S
C203 C204 1.376 . S
C203 C212 1.511 . S
C204 C203 1.376 . S
C204 C205 1.392 . S
C204 H225 0.931 . S
C205 C204 1.392 . S
C205 C206 1.361 . S
C205 C207 1.500 . S
C206 C201 1.390 . S
C206 C205 1.361 . S
C206 H224 0.931 . S
C207 C205 1.500 . S
C207 C208 1.371 . S
C207 C209 1.365 . S
C208 C207 1.371 . S
C208 C218 1.386 . S
C208 H226 0.931 . S
C209 C207 1.365 . S
C209 C210 1.409 . S
C209 H227 0.929 . S
C210 C209 1.409 . S
C210 C211 1.380 . S
C210 H228 0.930 . S
C211 C210 1.380 . S
C211 C218 1.357 . S
C212 C203 1.511 . S
C212 C213 1.341 . S
C212 C214 1.371 . S
C213 C212 1.341 . S
C213 C217 1.394 . S
C213 H229 0.930 . S
C214 C212 1.371 . S
C214 C215 1.392 . S
C214 H230 0.931 . S
C215 C214 1.392 . S
C215 C216 1.331 . S
C215 H233 0.932 . S
C216 C215 1.331 . S
C216 C217 1.336 . S
C217 C213 1.394 . S
C217 C216 1.336 . S
C217 H232 0.929 . S
C218 C208 1.386 . S
C218 C211 1.357 . S
C218 H231 0.928 . S
H219 C195 0.931 . S
H220 C197 0.930 . S
H221 C199 0.929 . S
H222 C200 0.931 . S
H223 C202 0.930 . S
H224 C206 0.931 . S
H225 C204 0.931 . S
H226 C208 0.931 . S
H227 C209 0.929 . S
H228 C210 0.930 . S
H229 C213 0.930 . S
H230 C214 0.931 . S
H231 C218 0.928 . S
H232 C217 0.929 . S
H233 C215 0.932 . S
C234 C235 1.386 . S
C234 C236 1.397 . S
C234 H258 0.931 . S
C235 C234 1.386 . S
C235 C239 1.397 . S
C236 C234 1.397 . S
C236 C237 1.384 . S
C236 H259 0.930 . S
C237 C236 1.384 . S
C237 C238 1.377 . S
C237 C240 1.481 . S
C238 C237 1.377 . S
C238 C239 1.389 . S
C238 H260 0.929 . S
C239 C235 1.397 . S
C239 C238 1.389 . S
C239 H261 0.931 . S
C240 C237 1.481 . S
C240 C241 1.387 . S
C240 C245 1.390 . S
C241 C240 1.387 . S
C241 C242 1.401 . S
C241 H262 0.930 . S
C242 C241 1.401 . S
C242 C243 1.376 . S
C242 C251 1.511 . S
C243 C242 1.376 . S
C243 C244 1.392 . S
C243 H264 0.931 . S
C244 C243 1.392 . S
C244 C245 1.361 . S
C244 C246 1.500 . S
C245 C240 1.390 . S
C245 C244 1.361 . S
C245 H263 0.931 . S
C246 C244 1.500 . S
C246 C247 1.371 . S
C246 C248 1.365 . S
C247 C246 1.371 . S
C247 C257 1.386 . S
C247 H265 0.931 . S
C248 C246 1.365 . S
C248 C249 1.409 . S
C248 H266 0.929 . S
C249 C248 1.409 . S
C249 C250 1.380 . S
C249 H267 0.930 . S
C250 C249 1.380 . S
C250 C257 1.357 . S
C251 C242 1.511 . S
C251 C252 1.341 . S
C251 C253 1.371 . S
C252 C251 1.341 . S
C252 C256 1.394 . S
C252 H268 0.930 . S
C253 C251 1.371 . S
C253 C254 1.392 . S
C253 H269 0.931 . S
C254 C253 1.392 . S
C254 C255 1.331 . S
C254 H272 0.932 . S
C255 C254 1.331 . S
C255 C256 1.336 . S
C256 C252 1.394 . S
C256 C255 1.336 . S
C256 H271 0.929 . S
C257 C247 1.386 . S
C257 C250 1.357 . S
C257 H270 0.928 . S
H258 C234 0.931 . S
H259 C236 0.930 . S
H260 C238 0.929 . S
H261 C239 0.931 . S
H262 C241 0.930 . S
H263 C245 0.931 . S
H264 C243 0.931 . S
H265 C247 0.931 . S
H266 C248 0.929 . S
H267 C249 0.930 . S
H268 C252 0.930 . S
H269 C253 0.931 . S
H270 C257 0.928 . S
H271 C256 0.929 . S
H272 C254 0.932 . S
C273 C274 1.386 . S
C273 C275 1.397 . S
C273 H297 0.931 . S
C274 C273 1.386 . S
C274 C278 1.397 . S
C275 C273 1.397 . S
C275 C276 1.384 . S
C275 H298 0.930 . S
C276 C275 1.384 . S
C276 C277 1.377 . S
C276 C279 1.481 . S
C277 C276 1.377 . S
C277 C278 1.389 . S
C277 H299 0.929 . S
C278 C274 1.397 . S
C278 C277 1.389 . S
C278 H300 0.931 . S
C279 C276 1.481 . S
C279 C280 1.387 . S
C279 C284 1.390 . S
C280 C279 1.387 . S
C280 C281 1.401 . S
C280 H301 0.930 . S
C281 C280 1.401 . S
C281 C282 1.376 . S
C281 C290 1.511 . S
C282 C281 1.376 . S
C282 C283 1.392 . S
C282 H303 0.931 . S
C283 C282 1.392 . S
C283 C284 1.361 . S
C283 C285 1.500 . S
C284 C279 1.390 . S
C284 C283 1.361 . S
C284 H302 0.931 . S
C285 C283 1.500 . S
C285 C286 1.371 . S
C285 C287 1.365 . S
C286 C285 1.371 . S
C286 C296 1.386 . S
C286 H304 0.931 . S
C287 C285 1.365 . S
C287 C288 1.409 . S
C287 H305 0.929 . S
C288 C287 1.409 . S
C288 C289 1.380 . S
C288 H306 0.930 . S
C289 C288 1.380 . S
C289 C296 1.357 . S
C290 C281 1.511 . S
C290 C291 1.341 . S
C290 C292 1.371 . S
C291 C290 1.341 . S
C291 C295 1.394 . S
C291 H307 0.930 . S
C292 C290 1.371 . S
C292 C293 1.392 . S
C292 H308 0.931 . S
C293 C292 1.392 . S
C293 C294 1.331 . S
C293 H311 0.932 . S
C294 C293 1.331 . S
C294 C295 1.336 . S
C295 C291 1.394 . S
C295 C294 1.336 . S
C295 H310 0.929 . S
C296 C286 1.386 . S
C296 C289 1.357 . S
C296 H309 0.928 . S
H297 C273 0.931 . S
H298 C275 0.930 . S
H299 C277 0.929 . S
H300 C278 0.931 . S
H301 C280 0.930 . S
H302 C284 0.931 . S
H303 C282 0.931 . S
H304 C286 0.931 . S
H305 C287 0.929 . S
H306 C288 0.930 . S
H307 C291 0.930 . S
H308 C292 0.931 . S
H309 C296 0.928 . S
H310 C295 0.929 . S
H311 C293 0.932 . S
Zn312 O318 1.920 . S
Zn312 O324 1.898 . S
Zn312 O327 1.905 . S
Zn313 O321 1.905 1_565 S
Zn313 O322 1.898 . S
Zn313 O330 1.920 . S
Zn314 O317 2.080 1_455 S
Zn314 O320 2.114 . S
Zn314 O323 2.120 1_445 S
Zn314 O325 2.120 . S
Zn314 O326 2.114 1_455 S
Zn314 O329 2.080 . S
C315 O320 1.166 . S
C315 O321 1.182 . S
C316 O322 1.167 1_655 S
C316 O323 1.299 . S
O317 Zn314 2.080 1_655 S
O317 C331 1.305 . S
O318 Zn312 1.920 . S
O318 C331 1.234 . S
C319 O324 1.167 1_455 S
C319 O325 1.299 . S
O320 Zn314 2.114 . S
O320 C315 1.166 . S
O321 Zn313 1.905 1_545 S
O321 C315 1.182 . S
O322 Zn313 1.898 . S
O322 C316 1.167 1_455 S
O323 Zn314 2.120 1_665 S
O323 C316 1.299 . S
O324 Zn312 1.898 . S
O324 C319 1.167 1_655 S
O325 Zn314 2.120 . S
O325 C319 1.299 . S
O326 Zn314 2.114 1_655 S
O326 C328 1.166 . S
O327 Zn312 1.905 . S
O327 C328 1.182 . S
C328 O326 1.166 . S
C328 O327 1.182 . S
O329 Zn314 2.080 . S
O329 C332 1.305 1_545 S
O330 Zn313 1.920 . S
O330 C332 1.234 . S
C331 O317 1.305 . S
C331 O318 1.234 . S
C332 O329 1.305 1_565 S
C332 O330 1.234 . S
Zn333 O339 1.920 1_556 S
Zn333 O345 1.898 . S
Zn333 O348 1.905 . S
Zn334 O342 1.905 . S
Zn334 O343 1.898 . S
Zn334 O351 1.920 . S
Zn335 O338 2.080 . S
Zn335 O341 2.114 1_545 S
Zn335 O344 2.120 1_545 S
Zn335 O346 2.120 . S
Zn335 O347 2.114 1_544 S
Zn335 O350 2.080 . S
C336 O341 1.166 . S
C336 O342 1.182 . S
C337 O343 1.167 . S
C337 O344 1.299 . S
O338 Zn335 2.080 . S
O338 C352 1.305 . S
O339 Zn333 1.920 1_554 S
O339 C352 1.234 . S
C340 O345 1.167 . S
C340 O346 1.299 1_556 S
O341 Zn335 2.114 1_565 S
O341 C336 1.166 . S
O342 Zn334 1.905 . S
O342 C336 1.182 . S
O343 Zn334 1.898 . S
O343 C337 1.167 . S
O344 Zn335 2.120 1_565 S
O344 C337 1.299 . S
O345 Zn333 1.898 . S
O345 C340 1.167 . S
O346 Zn335 2.120 . S
O346 C340 1.299 1_554 S
O347 Zn335 2.114 1_566 S
O347 C349 1.166 . S
O348 Zn333 1.905 . S
O348 C349 1.182 1_545 S
C349 O347 1.166 . S
C349 O348 1.182 1_565 S
O350 Zn335 2.080 . S
O350 C353 1.305 . S
O351 Zn334 1.920 . S
O351 C353 1.234 1_565 S
C352 O338 1.305 . S
C352 O339 1.234 . S
C353 O350 1.305 . S
C353 O351 1.234 1_545 S
Zn354 O360 1.920 . S
Zn354 O366 1.898 . S
Zn354 O369 1.905 . S
Zn355 O363 1.905 . S
Zn355 O364 1.898 . S
Zn355 O372 1.920 . S
Zn356 O359 2.080 . S
Zn356 O362 2.114 . S
Zn356 O365 2.120 . S
Zn356 O367 2.120 . S
Zn356 O368 2.114 . S
Zn356 O371 2.080 . S
C357 O362 1.166 . S
C357 O363 1.182 . S
C358 O364 1.167 . S
C358 O365 1.299 . S
O359 Zn356 2.080 . S
O359 C373 1.305 . S
O360 Zn354 1.920 . S
O360 C373 1.234 . S
C361 O366 1.167 . S
C361 O367 1.299 . S
O362 Zn356 2.114 . S
O362 C357 1.166 . S
O363 Zn355 1.905 . S
O363 C357 1.182 . S
O364 Zn355 1.898 . S
O364 C358 1.167 . S
O365 Zn356 2.120 . S
O365 C358 1.299 . S
O366 Zn354 1.898 . S
O366 C361 1.167 . S
O367 Zn356 2.120 . S
O367 C361 1.299 . S
O368 Zn356 2.114 . S
O368 C370 1.166 . S
O369 Zn354 1.905 . S
O369 C370 1.182 . S
C370 O368 1.166 . S
C370 O369 1.182 . S
O371 Zn356 2.080 . S
O371 C374 1.305 . S
O372 Zn355 1.920 . S
O372 C374 1.234 . S
C373 O359 1.305 . S
C373 O360 1.234 . S
C374 O371 1.305 . S
C374 O372 1.234 . S
Zn375 O381 1.920 . S
Zn375 O387 1.898 . S
Zn375 O390 1.905 . S
Zn376 O384 1.905 1_655 S
Zn376 O385 1.898 . S
Zn376 O393 1.920 . S
Zn377 O380 2.080 1_554 S
Zn377 O383 2.114 . S
Zn377 O386 2.120 1_454 S
Zn377 O388 2.120 . S
Zn377 O389 2.114 1_554 S
Zn377 O392 2.080 . S
C378 O383 1.166 . S
C378 O384 1.182 . S
C379 O385 1.167 1_556 S
C379 O386 1.299 . S
O380 Zn377 2.080 1_556 S
O380 C394 1.305 . S
O381 Zn375 1.920 . S
O381 C394 1.234 . S
C382 O387 1.167 1_554 S
C382 O388 1.299 . S
O383 Zn377 2.114 . S
O383 C378 1.166 . S
O384 Zn376 1.905 1_455 S
O384 C378 1.182 . S
O385 Zn376 1.898 . S
O385 C379 1.167 1_554 S
O386 Zn377 2.120 1_656 S
O386 C379 1.299 . S
O387 Zn375 1.898 . S
O387 C382 1.167 1_556 S
O388 Zn377 2.120 . S
O388 C382 1.299 . S
O389 Zn377 2.114 1_556 S
O389 C391 1.166 . S
O390 Zn375 1.905 . S
O390 C391 1.182 . S
C391 O389 1.166 . S
C391 O390 1.182 . S
O392 Zn377 2.080 . S
O392 C395 1.305 1_455 S
O393 Zn376 1.920 . S
O393 C395 1.234 . S
C394 O380 1.305 . S
C394 O381 1.234 . S
C395 O392 1.305 1_655 S
C395 O393 1.234 . S
C396 C397 1.391 . S
C396 C398 1.394 . S
C396 H412 0.931 . S
C397 C396 1.391 . S
C397 C401 1.376 . S
C398 C396 1.394 . S
C398 C399 1.369 . S
C398 C402 1.531 . S
C399 C398 1.369 . S
C399 C400 1.410 . S
C399 C407 1.503 . S
C400 C399 1.410 . S
C400 C401 1.392 . S
C400 C403 1.511 . S
C401 C397 1.376 . S
C401 C400 1.392 . S
C401 H413 0.929 . S
C402 C398 1.531 . S
C402 H414 0.960 . S
C402 H415 0.962 . S
C402 H416 0.960 . S
C403 C400 1.511 . S
C403 H417 0.961 . S
C403 H418 0.961 . S
C403 H419 0.961 . S
C404 C405 1.370 . S
C404 C406 1.363 . S
C404 H420 0.931 . S
C405 C404 1.370 . S
C405 C409 1.408 . S
C406 C404 1.363 . S
C406 C407 1.370 . S
C406 C410 1.524 . S
C407 C399 1.503 . S
C407 C406 1.370 . S
C407 C408 1.403 . S
C408 C407 1.403 . S
C408 C409 1.404 . S
C408 C411 1.539 . S
C409 C405 1.408 . S
C409 C408 1.404 . S
C409 H421 0.930 . S
C410 C406 1.524 . S
C410 H422 0.956 . S
C410 H423 0.961 . S
C410 H424 0.961 . S
C411 C408 1.539 . S
C411 H425 0.958 . S
C411 H426 0.961 . S
C411 H427 0.960 . S
H412 C396 0.931 . S
H413 C401 0.929 . S
H414 C402 0.960 . S
H415 C402 0.962 . S
H416 C402 0.960 . S
H417 C403 0.961 . S
H418 C403 0.961 . S
H419 C403 0.961 . S
H420 C404 0.931 . S
H421 C409 0.930 . S
H422 C410 0.956 . S
H423 C410 0.961 . S
H424 C410 0.961 . S
H425 C411 0.958 . S
H426 C411 0.961 . S
H427 C411 0.960 . S
C428 C429 1.391 . S
C428 C430 1.394 . S
C428 H444 0.931 . S
C429 C428 1.391 . S
C429 C433 1.376 . S
C430 C428 1.394 . S
C430 C431 1.369 . S
C430 C434 1.531 . S
C431 C430 1.369 . S
C431 C432 1.410 . S
C431 C439 1.503 . S
C432 C431 1.410 . S
C432 C433 1.392 . S
C432 C435 1.511 . S
C433 C429 1.376 . S
C433 C432 1.392 . S
C433 H445 0.929 . S
C434 C430 1.531 . S
C434 H446 0.960 . S
C434 H447 0.962 . S
C434 H448 0.960 . S
C435 C432 1.511 . S
C435 H449 0.961 . S
C435 H450 0.961 . S
C435 H451 0.961 . S
C436 C437 1.370 . S
C436 C438 1.363 . S
C436 H452 0.931 . S
C437 C436 1.370 . S
C437 C441 1.408 . S
C438 C436 1.363 . S
C438 C439 1.370 . S
C438 C442 1.524 . S
C439 C431 1.503 . S
C439 C438 1.370 . S
C439 C440 1.403 . S
C440 C439 1.403 . S
C440 C441 1.404 . S
C440 C443 1.539 . S
C441 C437 1.408 . S
C441 C440 1.404 . S
C441 H453 0.945 . S
C442 C438 1.524 . S
C442 H454 0.956 . S
C442 H455 0.961 . S
C442 H456 0.961 . S
C443 C440 1.539 . S
C443 H457 0.958 1_565 S
C443 H458 0.961 . S
C443 H459 0.960 . S
H444 C428 0.931 . S
H445 C433 0.929 . S
H446 C434 0.960 . S
H447 C434 0.962 . S
H448 C434 0.960 . S
H449 C435 0.961 . S
H450 C435 0.961 . S
H451 C435 0.961 . S
H452 C436 0.931 . S
H453 C441 0.945 . S
H454 C442 0.956 . S
H455 C442 0.961 . S
H456 C442 0.961 . S
H457 C443 0.958 1_545 S
H458 C443 0.961 . S
H459 C443 0.960 . S
C460 C461 1.391 . S
C460 C462 1.394 . S
C460 H476 0.931 . S
C461 C460 1.391 . S
C461 C465 1.376 . S
C462 C460 1.394 . S
C462 C463 1.369 . S
C462 C466 1.531 . S
C463 C462 1.369 . S
C463 C464 1.410 . S
C463 C471 1.503 . S
C464 C463 1.410 . S
C464 C465 1.392 . S
C464 C467 1.511 . S
C465 C461 1.376 . S
C465 C464 1.392 . S
C465 H477 0.929 . S
C466 C462 1.531 . S
C466 H478 0.960 . S
C466 H479 0.962 . S
C466 H480 0.960 . S
C467 C464 1.511 . S
C467 H481 0.961 . S
C467 H482 0.961 . S
C467 H483 0.961 . S
C468 C469 1.370 . S
C468 C470 1.363 . S
C468 H484 0.931 . S
C469 C468 1.370 . S
C469 C473 1.408 . S
C470 C468 1.363 . S
C470 C471 1.370 . S
C470 C474 1.524 . S
C471 C463 1.503 . S
C471 C470 1.370 . S
C471 C472 1.403 . S
C472 C471 1.403 . S
C472 C473 1.404 . S
C472 C475 1.539 . S
C473 C469 1.408 . S
C473 C472 1.404 . S
C473 H485 0.930 . S
C474 C470 1.524 . S
C474 H486 0.956 . S
C474 H487 0.961 . S
C474 H488 0.961 . S
C475 C472 1.539 . S
C475 H489 0.958 . S
C475 H490 0.961 . S
C475 H491 0.960 . S
H476 C460 0.931 . S
H477 C465 0.929 . S
H478 C466 0.960 . S
H479 C466 0.962 . S
H480 C466 0.960 . S
H481 C467 0.961 . S
H482 C467 0.961 . S
H483 C467 0.961 . S
H484 C468 0.931 . S
H485 C473 0.930 . S
H486 C474 0.956 . S
H487 C474 0.961 . S
H488 C474 0.961 . S
H489 C475 0.958 . S
H490 C475 0.961 . S
H491 C475 0.960 . S
C492 C493 1.391 . S
C492 C494 1.394 . S
C492 H508 0.931 . S
C493 C492 1.391 . S
C493 C497 1.376 . S
C494 C492 1.394 . S
C494 C495 1.369 . S
C494 C498 1.531 . S
C495 C494 1.369 . S
C495 C496 1.410 . S
C495 C503 1.503 . S
C496 C495 1.410 . S
C496 C497 1.392 . S
C496 C499 1.511 . S
C497 C493 1.376 . S
C497 C496 1.392 . S
C497 H509 0.929 . S
C498 C494 1.531 . S
C498 H510 0.960 . S
C498 H511 0.962 . S
C498 H512 0.960 . S
C499 C496 1.511 . S
C499 H513 0.961 . S
C499 H514 0.961 . S
C499 H515 0.961 . S
C500 C501 1.370 . S
C500 C502 1.363 . S
C500 H516 0.931 1_655 S
C501 C500 1.370 . S
C501 C505 1.408 . S
C502 C500 1.363 . S
C502 C503 1.370 . S
C502 C506 1.522 . S
C503 C495 1.503 . S
C503 C502 1.370 . S
C503 C504 1.403 . S
C504 C503 1.403 . S
C504 C505 1.404 . S
C504 C507 1.539 . S
C505 C501 1.408 . S
C505 C504 1.404 . S
C505 H517 0.930 . S
C506 C502 1.522 . S
C506 H518 0.955 . S
C506 H519 0.960 . S
C506 H520 0.965 1_655 S
C507 C504 1.539 . S
C507 H521 0.958 . S
C507 H522 0.961 . S
C507 H523 0.960 . S
H508 C492 0.931 . S
H509 C497 0.929 . S
H510 C498 0.960 . S
H511 C498 0.962 . S
H512 C498 0.960 . S
H513 C499 0.961 . S
H514 C499 0.961 . S
H515 C499 0.961 . S
H516 C500 0.931 1_455 S
H517 C505 0.930 . S
H518 C506 0.955 . S
H519 C506 0.960 . S
H520 C506 0.965 1_455 S
H521 C507 0.958 . S
H522 C507 0.961 . S
H523 C507 0.960 . S
C524 C525 1.391 . S
C524 C526 1.394 . S
C524 H540 0.931 . S
C525 C524 1.391 . S
C525 C529 1.376 . S
C526 C524 1.394 . S
C526 C527 1.369 . S
C526 C530 1.531 . S
C527 C526 1.369 . S
C527 C528 1.410 . S
C527 C535 1.503 . S
C528 C527 1.410 . S
C528 C529 1.392 . S
C528 C531 1.511 . S
C529 C525 1.376 . S
C529 C528 1.392 . S
C529 H541 0.929 . S
C530 C526 1.531 . S
C530 H542 0.960 . S
C530 H543 0.962 . S
C530 H544 0.960 . S
C531 C528 1.511 . S
C531 H545 0.961 . S
C531 H546 0.961 . S
C531 H547 0.961 . S
C532 C533 1.370 . S
C532 C534 1.363 . S
C532 H548 0.931 . S
C533 C532 1.370 . S
C533 C537 1.408 . S
C534 C532 1.363 . S
C534 C535 1.370 . S
C534 C538 1.524 . S
C535 C527 1.503 . S
C535 C534 1.370 . S
C535 C536 1.403 . S
C536 C535 1.403 . S
C536 C537 1.404 . S
C536 C539 1.539 . S
C537 C533 1.408 . S
C537 C536 1.404 . S
C537 H549 0.930 . S
C538 C534 1.524 . S
C538 H550 0.956 . S
C538 H551 0.961 . S
C538 H552 0.961 . S
C539 C536 1.539 . S
C539 H553 0.958 . S
C539 H554 0.961 . S
C539 H555 0.960 . S
H540 C524 0.931 . S
H541 C529 0.929 . S
H542 C530 0.960 . S
H543 C530 0.962 . S
H544 C530 0.960 . S
H545 C531 0.961 . S
H546 C531 0.961 . S
H547 C531 0.961 . S
H548 C532 0.931 . S
H549 C537 0.930 . S
H550 C538 0.956 . S
H551 C538 0.961 . S
H552 C538 0.961 . S
H553 C539 0.958 . S
H554 C539 0.961 . S
H555 C539 0.960 . S
C556 C557 1.391 . S
C556 C558 1.394 . S
C556 H572 0.931 . S
C557 C556 1.391 . S
C557 C561 1.376 . S
C558 C556 1.394 . S
C558 C559 1.369 . S
C558 C562 1.531 . S
C559 C558 1.369 . S
C559 C560 1.410 . S
C559 C567 1.503 . S
C560 C559 1.410 . S
C560 C561 1.392 . S
C560 C563 1.511 . S
C561 C557 1.376 . S
C561 C560 1.392 . S
C561 H573 0.929 . S
C562 C558 1.531 . S
C562 H574 0.956 1_565 S
C562 H575 0.962 1_565 S
C562 H576 0.960 1_565 S
C563 C560 1.511 . S
C563 H577 0.961 . S
C563 H578 0.961 . S
C563 H579 0.961 . S
C564 C565 1.370 . S
C564 C566 1.363 . S
C564 H580 0.931 . S
C565 C564 1.370 . S
C565 C569 1.408 . S
C566 C564 1.363 . S
C566 C567 1.370 . S
C566 C570 1.524 . S
C567 C559 1.503 . S
C567 C566 1.370 . S
C567 C568 1.403 . S
C568 C567 1.403 . S
C568 C569 1.404 . S
C568 C571 1.539 . S
C569 C565 1.408 . S
C569 C568 1.404 . S
C569 H581 0.930 . S
C570 C566 1.524 . S
C570 H582 0.956 . S
C570 H583 0.961 . S
C570 H584 0.961 . S
C571 C568 1.539 . S
C571 H585 0.958 . S
C571 H586 0.961 . S
C571 H587 0.960 . S
H572 C556 0.931 . S
H573 C561 0.929 . S
H574 C562 0.956 1_545 S
H575 C562 0.962 1_545 S
H576 C562 0.960 1_545 S
H577 C563 0.961 . S
H578 C563 0.961 . S
H579 C563 0.961 . S
H580 C564 0.931 . S
H581 C569 0.930 . S
H582 C570 0.956 . S
H583 C570 0.961 . S
H584 C570 0.961 . S
H585 C571 0.958 . S
H586 C571 0.961 . S
H587 C571 0.960 . S
C588 C589 1.391 . S
C588 C590 1.394 . S
C588 H604 0.931 . S
C589 C588 1.391 . S
C589 C593 1.376 . S
C590 C588 1.394 . S
C590 C591 1.369 . S
C590 C594 1.531 . S
C591 C590 1.369 . S
C591 C592 1.410 . S
C591 C599 1.503 . S
C592 C591 1.410 . S
C592 C593 1.392 . S
C592 C595 1.511 . S
C593 C589 1.376 . S
C593 C592 1.392 . S
C593 H605 0.929 . S
C594 C590 1.531 . S
C594 H606 0.960 . S
C594 H607 0.962 . S
C594 H608 0.960 . S
C595 C592 1.511 . S
C595 H609 0.961 . S
C595 H610 0.961 . S
C595 H611 0.961 . S
C596 C597 1.370 . S
C596 C598 1.363 . S
C596 H612 0.909 1_556 S
C597 C596 1.370 . S
C597 C601 1.408 . S
C598 C596 1.363 . S
C598 C599 1.370 . S
C598 C602 1.524 . S
C599 C591 1.503 . S
C599 C598 1.370 . S
C599 C600 1.403 . S
C600 C599 1.403 . S
C600 C601 1.404 . S
C600 C603 1.539 . S
C601 C597 1.408 . S
C601 C600 1.404 . S
C601 H613 0.930 . S
C602 C598 1.524 . S
C602 H614 0.956 . S
C602 H615 0.961 . S
C602 H616 0.964 1_556 S
C603 C600 1.539 . S
C603 H617 0.958 . S
C603 H618 0.961 . S
C603 H619 0.960 . S
H604 C588 0.931 . S
H605 C593 0.929 . S
H606 C594 0.960 . S
H607 C594 0.962 . S
H608 C594 0.960 . S
H609 C595 0.961 . S
H610 C595 0.961 . S
H611 C595 0.961 . S
H612 C596 0.909 1_554 S
H613 C601 0.930 . S
H614 C602 0.956 . S
H615 C602 0.961 . S
H616 C602 0.964 1_554 S
H617 C603 0.958 . S
H618 C603 0.961 . S
H619 C603 0.960 . S
C620 C621 1.391 . S
C620 C622 1.394 . S
C620 H636 0.931 . S
C621 C620 1.391 . S
C621 C625 1.376 . S
C622 C620 1.394 . S
C622 C623 1.369 . S
C622 C626 1.531 . S
C623 C622 1.369 . S
C623 C624 1.410 . S
C623 C631 1.503 . S
C624 C623 1.410 . S
C624 C625 1.392 . S
C624 C627 1.511 . S
C625 C621 1.376 . S
C625 C624 1.392 . S
C625 H637 0.929 . S
C626 C622 1.531 . S
C626 H638 0.960 . S
C626 H639 0.962 . S
C626 H640 0.960 . S
C627 C624 1.511 . S
C627 H641 0.961 . S
C627 H642 0.961 . S
C627 H643 0.961 . S
C628 C629 1.370 . S
C628 C630 1.363 . S
C628 H644 0.931 . S
C629 C628 1.370 . S
C629 C633 1.408 . S
C630 C628 1.363 . S
C630 C631 1.370 . S
C630 C634 1.524 . S
C631 C623 1.503 . S
C631 C630 1.370 . S
C631 C632 1.403 . S
C632 C631 1.403 . S
C632 C633 1.404 . S
C632 C635 1.539 . S
C633 C629 1.408 . S
C633 C632 1.404 . S
C633 H645 0.930 . S
C634 C630 1.524 . S
C634 H646 0.956 . S
C634 H647 0.961 . S
C634 H648 0.961 . S
C635 C632 1.539 . S
C635 H649 0.958 . S
C635 H650 0.961 . S
C635 H651 0.960 . S
H636 C620 0.931 . S
H637 C625 0.929 . S
H638 C626 0.960 . S
H639 C626 0.962 . S
H640 C626 0.960 . S
H641 C627 0.961 . S
H642 C627 0.961 . S
H643 C627 0.961 . S
H644 C628 0.931 . S
H645 C633 0.930 . S
H646 C634 0.956 . S
H647 C634 0.961 . S
H648 C634 0.961 . S
H649 C635 0.958 . S
H650 C635 0.961 . S
H651 C635 0.960 . S
C652 C653 1.391 . S
C652 C654 1.394 . S
C652 H668 0.931 . S
C653 C652 1.391 . S
C653 C657 1.376 . S
C654 C652 1.394 . S
C654 C655 1.369 . S
C654 C658 1.531 . S
C655 C654 1.369 . S
C655 C656 1.410 . S
C655 C663 1.503 . S
C656 C655 1.410 . S
C656 C657 1.392 . S
C656 C659 1.511 . S
C657 C653 1.376 . S
C657 C656 1.392 . S
C657 H669 0.929 . S
C658 C654 1.531 . S
C658 H670 0.960 . S
C658 H671 0.962 . S
C658 H672 0.960 . S
C659 C656 1.511 . S
C659 H673 0.961 . S
C659 H674 0.961 . S
C659 H675 0.961 . S
C660 C661 1.370 . S
C660 C662 1.363 . S
C660 H676 0.931 . S
C661 C660 1.370 . S
C661 C665 1.408 . S
C662 C660 1.363 . S
C662 C663 1.370 . S
C662 C666 1.524 . S
C663 C655 1.503 . S
C663 C662 1.370 . S
C663 C664 1.403 . S
C664 C663 1.403 . S
C664 C665 1.404 . S
C664 C667 1.539 . S
C665 C661 1.408 . S
C665 C664 1.404 . S
C665 H677 0.930 . S
C666 C662 1.524 . S
C666 H678 0.956 . S
C666 H679 0.961 . S
C666 H680 0.961 . S
C667 C664 1.539 . S
C667 H681 0.958 . S
C667 H682 0.961 . S
C667 H683 0.960 . S
H668 C652 0.931 . S
H669 C657 0.929 . S
H670 C658 0.960 . S
H671 C658 0.962 . S
H672 C658 0.960 . S
H673 C659 0.961 . S
H674 C659 0.961 . S
H675 C659 0.961 . S
H676 C660 0.931 . S
H677 C665 0.930 . S
H678 C666 0.956 . S
H679 C666 0.961 . S
H680 C666 0.961 . S
H681 C667 0.958 . S
H682 C667 0.961 . S
H683 C667 0.960 . S
C684 C685 1.391 . S
C684 C686 1.394 . S
C684 H700 0.931 . S
C685 C684 1.391 . S
C685 C689 1.376 . S
C686 C684 1.394 . S
C686 C687 1.369 . S
C686 C690 1.531 . S
C687 C686 1.369 . S
C687 C688 1.410 . S
C687 C695 1.503 . S
C688 C687 1.410 . S
C688 C689 1.392 . S
C688 C691 1.511 . S
C689 C685 1.376 . S
C689 C688 1.392 . S
C689 H701 0.929 . S
C690 C686 1.531 . S
C690 H702 0.965 . S
C690 H703 0.962 . S
C690 H704 0.955 1_556 S
C691 C688 1.511 . S
C691 H705 0.961 . S
C691 H706 0.961 . S
C691 H707 0.961 . S
C692 C693 1.370 . S
C692 C694 1.363 . S
C692 H708 0.931 . S
C693 C692 1.370 . S
C693 C697 1.408 . S
C694 C692 1.363 . S
C694 C695 1.370 . S
C694 C698 1.524 . S
C695 C687 1.503 . S
C695 C694 1.370 . S
C695 C696 1.403 . S
C696 C695 1.403 . S
C696 C697 1.404 . S
C696 C699 1.539 . S
C697 C693 1.408 . S
C697 C696 1.404 . S
C697 H709 0.930 . S
C698 C694 1.524 . S
C698 H710 0.956 . S
C698 H711 0.961 . S
C698 H712 0.961 . S
C699 C696 1.539 . S
C699 H713 0.958 . S
C699 H714 0.961 . S
C699 H715 0.960 . S
H700 C684 0.931 . S
H701 C689 0.929 . S
H702 C690 0.965 . S
H703 C690 0.962 . S
H704 C690 0.955 1_554 S
H705 C691 0.961 . S
H706 C691 0.961 . S
H707 C691 0.961 . S
H708 C692 0.931 . S
H709 C697 0.930 . S
H710 C698 0.956 . S
H711 C698 0.961 . S
H712 C698 0.961 . S
H713 C699 0.958 . S
H714 C699 0.961 . S
H715 C699 0.960 . S
C716 C717 1.391 . S
C716 C718 1.394 . S
C716 H732 0.931 . S
C717 C716 1.391 . S
C717 C721 1.376 . S
C718 C716 1.394 . S
C718 C719 1.369 . S
C718 C722 1.531 . S
C719 C718 1.369 . S
C719 C720 1.410 . S
C719 C727 1.503 . S
C720 C719 1.410 . S
C720 C721 1.392 . S
C720 C723 1.511 . S
C721 C717 1.376 . S
C721 C720 1.392 . S
C721 H733 0.929 . S
C722 C718 1.531 . S
C722 H734 0.960 . S
C722 H735 0.962 . S
C722 H736 0.960 . S
C723 C720 1.511 . S
C723 H737 0.961 . S
C723 H738 0.961 . S
C723 H739 0.961 . S
C724 C725 1.370 . S
C724 C726 1.363 . S
C724 H740 0.931 . S
C725 C724 1.370 . S
C725 C729 1.408 . S
C726 C724 1.363 . S
C726 C727 1.370 . S
C726 C730 1.524 . S
C727 C719 1.503 . S
C727 C726 1.370 . S
C727 C728 1.403 . S
C728 C727 1.403 . S
C728 C729 1.404 . S
C728 C731 1.539 . S
C729 C725 1.408 . S
C729 C728 1.404 . S
C729 H741 0.930 . S
C730 C726 1.524 . S
C730 H742 0.956 . S
C730 H743 0.961 . S
C730 H744 0.961 . S
C731 C728 1.539 . S
C731 H745 0.958 . S
C731 H746 0.961 . S
C731 H747 0.960 . S
H732 C716 0.931 . S
H733 C721 0.929 . S
H734 C722 0.960 . S
H735 C722 0.962 . S
H736 C722 0.960 . S
H737 C723 0.961 . S
H738 C723 0.961 . S
H739 C723 0.961 . S
H740 C724 0.931 . S
H741 C729 0.930 . S
H742 C730 0.956 . S
H743 C730 0.961 . S
H744 C730 0.961 . S
H745 C731 0.958 . S
H746 C731 0.961 . S
H747 C731 0.960 . S
C748 C749 1.391 . S
C748 C750 1.394 . S
C748 H764 0.931 . S
C749 C748 1.391 . S
C749 C753 1.376 . S
C750 C748 1.394 . S
C750 C751 1.369 . S
C750 C754 1.531 . S
C751 C750 1.369 . S
C751 C752 1.410 . S
C751 C759 1.503 . S
C752 C751 1.410 . S
C752 C753 1.392 . S
C752 C755 1.511 . S
C753 C749 1.376 . S
C753 C752 1.392 . S
C753 H765 0.929 . S
C754 C750 1.531 . S
C754 H766 0.960 . S
C754 H767 0.962 . S
C754 H768 0.960 . S
C755 C752 1.511 . S
C755 H769 0.961 . S
C755 H770 0.961 . S
C755 H771 0.961 . S
C756 C757 1.370 . S
C756 C758 1.363 . S
C756 H772 0.931 . S
C757 C756 1.370 . S
C757 C761 1.408 . S
C758 C756 1.363 . S
C758 C759 1.370 . S
C758 C762 1.524 . S
C759 C751 1.503 . S
C759 C758 1.370 . S
C759 C760 1.403 . S
C760 C759 1.403 . S
C760 C761 1.404 . S
C760 C763 1.539 . S
C761 C757 1.408 . S
C761 C760 1.404 . S
C761 H773 0.930 . S
C762 C758 1.524 . S
C762 H774 0.956 . S
C762 H775 0.961 . S
C762 H776 0.961 . S
C763 C760 1.539 . S
C763 H777 0.958 . S
C763 H778 0.961 . S
C763 H779 0.960 . S
H764 C748 0.931 . S
H765 C753 0.929 . S
H766 C754 0.960 . S
H767 C754 0.962 . S
H768 C754 0.960 . S
H769 C755 0.961 . S
H770 C755 0.961 . S
H771 C755 0.961 . S
H772 C756 0.931 . S
H773 C761 0.930 . S
H774 C762 0.956 . S
H775 C762 0.961 . S
H776 C762 0.961 . S
H777 C763 0.958 . S
H778 C763 0.961 . S
H779 C763 0.960 . S
C780 C781 1.391 1_455 S
C780 C782 1.394 . S
C780 H796 0.931 . S
C781 C780 1.391 1_655 S
C781 C785 1.376 1_565 S
C782 C780 1.394 . S
C782 C783 1.383 1_455 S
C782 C786 1.531 . S
C783 C782 1.383 1_655 S
C783 C784 1.397 1_565 S
C783 C791 1.499 1_565 S
C784 C783 1.397 1_545 S
C784 C785 1.392 . S
C784 C787 1.511 . S
C785 C781 1.376 1_545 S
C785 C784 1.392 . S
C785 H797 0.929 . S
C786 C782 1.531 . S
C786 H798 0.960 . S
C786 H799 0.962 . S
C786 H800 0.960 . S
C787 C784 1.511 . S
C787 H801 0.961 . S
C787 H802 0.961 . S
C787 H803 0.961 . S
C788 C789 1.370 1_455 S
C788 C790 1.365 . S
C788 H804 0.931 . S
C789 C788 1.370 1_655 S
C789 C793 1.408 1_545 S
C790 C788 1.365 . S
C790 C791 1.362 1_455 S
C790 C794 1.531 . S
C791 C783 1.499 1_545 S
C791 C790 1.362 1_655 S
C791 C792 1.403 1_545 S
C792 C791 1.403 1_565 S
C792 C793 1.404 . S
C792 C795 1.539 . S
C793 C789 1.408 1_565 S
C793 C792 1.404 . S
C793 H805 0.930 . S
C794 C790 1.531 . S
C794 H806 0.956 . S
C794 H807 0.961 . S
C794 H808 0.961 . S
C795 C792 1.539 . S
C795 H809 0.958 . S
C795 H810 0.961 . S
C795 H811 0.960 . S
H796 C780 0.931 . S
H797 C785 0.929 . S
H798 C786 0.960 . S
H799 C786 0.962 . S
H800 C786 0.960 . S
H801 C787 0.961 . S
H802 C787 0.961 . S
H803 C787 0.961 . S
H804 C788 0.931 . S
H805 C793 0.930 . S
H806 C794 0.956 . S
H807 C794 0.961 . S
H808 C794 0.961 . S
H809 C795 0.958 . S
H810 C795 0.961 . S
H811 C795 0.960 . S
C812 C813 1.391 . S
C812 C814 1.394 . S
C812 H828 0.931 . S
C813 C812 1.391 . S
C813 C817 1.376 . S
C814 C812 1.394 . S
C814 C815 1.369 . S
C814 C818 1.531 . S
C815 C814 1.369 . S
C815 C816 1.410 . S
C815 C823 1.503 . S
C816 C815 1.410 . S
C816 C817 1.392 . S
C816 C819 1.511 . S
C817 C813 1.376 . S
C817 C816 1.392 . S
C817 H829 0.929 . S
C818 C814 1.531 . S
C818 H830 0.960 . S
C818 H831 0.962 . S
C818 H832 0.960 . S
C819 C816 1.511 . S
C819 H833 0.961 . S
C819 H834 0.961 . S
C819 H835 0.961 . S
C820 C821 1.370 . S
C820 C822 1.363 . S
C820 H836 0.931 1_545 S
C821 C820 1.370 . S
C821 C825 1.408 . S
C822 C820 1.363 . S
C822 C823 1.370 . S
C822 C826 1.524 1_545 S
C823 C815 1.503 . S
C823 C822 1.370 . S
C823 C824 1.403 . S
C824 C823 1.403 . S
C824 C825 1.404 . S
C824 C827 1.539 . S
C825 C821 1.408 . S
C825 C824 1.404 . S
C825 H837 0.930 . S
C826 C822 1.524 1_565 S
C826 H838 0.956 . S
C826 H839 0.961 . S
C826 H840 0.961 . S
C827 C824 1.539 . S
C827 H841 0.958 . S
C827 H842 0.961 . S
C827 H843 0.960 . S
H828 C812 0.931 . S
H829 C817 0.929 . S
H830 C818 0.960 . S
H831 C818 0.962 . S
H832 C818 0.960 . S
H833 C819 0.961 . S
H834 C819 0.961 . S
H835 C819 0.961 . S
H836 C820 0.931 1_565 S
H837 C825 0.930 . S
H838 C826 0.956 . S
H839 C826 0.961 . S
H840 C826 0.961 . S
H841 C827 0.958 . S
H842 C827 0.961 . S
H843 C827 0.960 . S
C844 C845 1.391 . S
C844 C846 1.394 . S
C844 H860 0.931 . S
C845 C844 1.391 . S
C845 C849 1.376 . S
C846 C844 1.394 . S
C846 C847 1.369 . S
C846 C850 1.531 . S
C847 C846 1.369 . S
C847 C848 1.410 . S
C847 C855 1.503 . S
C848 C847 1.410 . S
C848 C849 1.392 . S
C848 C851 1.511 . S
C849 C845 1.376 . S
C849 C848 1.392 . S
C849 H861 0.929 . S
C850 C846 1.531 . S
C850 H862 0.960 . S
C850 H863 0.962 . S
C850 H864 0.960 . S
C851 C848 1.511 . S
C851 H865 0.961 . S
C851 H866 0.961 . S
C851 H867 0.961 . S
C852 C853 1.370 . S
C852 C854 1.363 . S
C852 H868 0.931 . S
C853 C852 1.370 . S
C853 C857 1.408 . S
C854 C852 1.363 . S
C854 C855 1.370 . S
C854 C858 1.524 . S
C855 C847 1.503 . S
C855 C854 1.370 . S
C855 C856 1.403 . S
C856 C855 1.403 . S
C856 C857 1.404 . S
C856 C859 1.539 . S
C857 C853 1.408 . S
C857 C856 1.404 . S
C857 H869 0.930 . S
C858 C854 1.524 . S
C858 H870 0.956 . S
C858 H871 0.961 . S
C858 H872 0.961 . S
C859 C856 1.539 . S
C859 H873 0.958 . S
C859 H874 0.961 . S
C859 H875 0.960 . S
H860 C844 0.931 . S
H861 C849 0.929 . S
H862 C850 0.960 . S
H863 C850 0.962 . S
H864 C850 0.960 . S
H865 C851 0.961 . S
H866 C851 0.961 . S
H867 C851 0.961 . S
H868 C852 0.931 . S
H869 C857 0.930 . S
H870 C858 0.956 . S
H871 C858 0.961 . S
H872 C858 0.961 . S
H873 C859 0.958 . S
H874 C859 0.961 . S
H875 C859 0.960 . S
C876 C877 1.391 . S
C876 C878 1.394 . S
C876 H892 0.931 . S
C877 C876 1.391 . S
C877 C881 1.376 . S
C878 C876 1.394 . S
C878 C879 1.369 . S
C878 C882 1.531 . S
C879 C878 1.369 . S
C879 C880 1.410 . S
C879 C887 1.503 . S
C880 C879 1.410 . S
C880 C881 1.392 . S
C880 C883 1.511 . S
C881 C877 1.376 . S
C881 C880 1.392 . S
C881 H893 0.929 . S
C882 C878 1.531 . S
C882 H894 0.960 . S
C882 H895 0.962 1_455 S
C882 H896 0.960 . S
C883 C880 1.511 . S
C883 H897 0.961 . S
C883 H898 0.961 . S
C883 H899 0.961 . S
C884 C885 1.370 . S
C884 C886 1.363 . S
C884 H900 0.931 . S
C885 C884 1.370 . S
C885 C889 1.408 . S
C886 C884 1.363 . S
C886 C887 1.370 . S
C886 C890 1.524 . S
C887 C879 1.503 . S
C887 C886 1.370 . S
C887 C888 1.403 . S
C888 C887 1.403 . S
C888 C889 1.404 . S
C888 C891 1.539 . S
C889 C885 1.408 . S
C889 C888 1.404 . S
C889 H901 0.930 . S
C890 C886 1.524 . S
C890 H902 0.956 1_455 S
C890 H903 0.961 . S
C890 H904 0.961 1_455 S
C891 C888 1.539 . S
C891 H905 0.958 . S
C891 H906 0.961 . S
C891 H907 0.960 . S
H892 C876 0.931 . S
H893 C881 0.929 . S
H894 C882 0.960 . S
H895 C882 0.962 1_655 S
H896 C882 0.960 . S
H897 C883 0.961 . S
H898 C883 0.961 . S
H899 C883 0.961 . S
H900 C884 0.931 . S
H901 C889 0.930 . S
H902 C890 0.956 1_655 S
H903 C890 0.961 . S
H904 C890 0.961 1_655 S
H905 C891 0.958 . S
H906 C891 0.961 . S
H907 C891 0.960 . S
C908 C909 1.391 . S
C908 C910 1.394 . S
C908 H924 0.931 . S
C909 C908 1.391 . S
C909 C913 1.376 1_556 S
C910 C908 1.394 . S
C910 C911 1.369 1_556 S
C910 C914 1.531 . S
C911 C910 1.369 1_554 S
C911 C912 1.410 . S
C911 C919 1.503 . S
C912 C911 1.410 . S
C912 C913 1.392 . S
C912 C915 1.511 1_565 S
C913 C909 1.376 1_554 S
C913 C912 1.392 . S
C913 H925 0.929 1_565 S
C914 C910 1.531 . S
C914 H926 0.960 . S
C914 H927 0.962 . S
C914 H928 0.960 . S
C915 C912 1.511 1_545 S
C915 H929 0.961 . S
C915 H930 0.961 . S
C915 H931 0.961 1_545 S
C916 C917 1.370 1_546 S
C916 C918 1.363 . S
C916 H932 0.931 . S
C917 C916 1.370 1_564 S
C917 C921 1.408 . S
C918 C916 1.363 . S
C918 C919 1.370 1_546 S
C918 C922 1.524 . S
C919 C911 1.503 . S
C919 C918 1.370 1_564 S
C919 C920 1.403 . S
C920 C919 1.403 . S
C920 C921 1.404 . S
C920 C923 1.539 . S
C921 C917 1.408 . S
C921 C920 1.404 . S
C921 H933 0.930 . S
C922 C918 1.524 . S
C922 H934 0.956 . S
C922 H935 0.961 . S
C922 H936 0.961 . S
C923 C920 1.539 . S
C923 H937 0.958 . S
C923 H938 0.961 . S
C923 H939 0.960 . S
H924 C908 0.931 . S
H925 C913 0.929 1_545 S
H926 C914 0.960 . S
H927 C914 0.962 . S
H928 C914 0.960 . S
H929 C915 0.961 . S
H930 C915 0.961 . S
H931 C915 0.961 1_565 S
H932 C916 0.931 . S
H933 C921 0.930 . S
H934 C922 0.956 . S
H935 C922 0.961 . S
H936 C922 0.961 . S
H937 C923 0.958 . S
H938 C923 0.961 . S
H939 C923 0.960 . S
C940 C941 1.391 . S
C940 C942 1.394 . S
C940 H956 0.931 . S
C941 C940 1.391 . S
C941 C945 1.376 . S
C942 C940 1.394 . S
C942 C943 1.369 . S
C942 C946 1.531 . S
C943 C942 1.369 . S
C943 C944 1.410 . S
C943 C951 1.503 . S
C944 C943 1.410 . S
C944 C945 1.392 . S
C944 C947 1.483 1_545 S
C945 C941 1.376 . S
C945 C944 1.392 . S
C945 H957 0.929 . S
C946 C942 1.531 . S
C946 H958 0.960 . S
C946 H959 0.962 . S
C946 H960 0.960 . S
C947 C944 1.483 1_565 S
C947 H961 0.987 . S
C947 H962 0.965 . S
C947 H963 0.960 . S
C948 C949 1.370 . S
C948 C950 1.363 . S
C948 H964 0.931 . S
C949 C948 1.370 . S
C949 C953 1.408 . S
C950 C948 1.363 . S
C950 C951 1.370 . S
C950 C954 1.524 . S
C951 C943 1.503 . S
C951 C950 1.370 . S
C951 C952 1.403 . S
C952 C951 1.403 . S
C952 C953 1.404 . S
C952 C955 1.539 . S
C953 C949 1.408 . S
C953 C952 1.404 . S
C953 H965 0.930 . S
C954 C950 1.524 . S
C954 H966 0.956 . S
C954 H967 0.961 . S
C954 H968 0.961 . S
C955 C952 1.539 . S
C955 H969 0.958 . S
C955 H970 0.961 . S
C955 H971 0.960 . S
H956 C940 0.931 . S
H957 C945 0.929 . S
H958 C946 0.960 . S
H959 C946 0.962 . S
H960 C946 0.960 . S
H961 C947 0.987 . S
H962 C947 0.965 . S
H963 C947 0.960 . S
H964 C948 0.931 . S
H965 C953 0.930 . S
H966 C954 0.956 . S
H967 C954 0.961 . S
H968 C954 0.961 . S
H969 C955 0.958 . S
H970 C955 0.961 . S
H971 C955 0.960 . S
C972 C973 1.391 . S
C972 C974 1.394 . S
C972 H988 0.931 1_554 S
C973 C972 1.391 . S
C973 C977 1.376 . S
C974 C972 1.394 . S
C974 C975 1.369 . S
C974 C978 1.531 1_554 S
C975 C974 1.369 . S
C975 C976 1.410 . S
C975 C983 1.503 . S
C976 C975 1.410 . S
C976 C977 1.392 . S
C976 C979 1.511 . S
C977 C973 1.376 . S
C977 C976 1.392 . S
C977 H989 0.929 . S
C978 C974 1.531 1_556 S
C978 H990 0.960 . S
C978 H991 0.962 . S
C978 H992 0.960 . S
C979 C976 1.511 . S
C979 H993 0.961 . S
C979 H994 0.961 . S
C979 H995 0.961 . S
C980 C981 1.370 . S
C980 C982 1.363 . S
C980 H996 0.931 . S
C981 C980 1.370 . S
C981 C985 1.408 . S
C982 C980 1.363 . S
C982 C983 1.370 . S
C982 C986 1.524 . S
C983 C975 1.503 . S
C983 C982 1.370 . S
C983 C984 1.403 . S
C984 C983 1.403 . S
C984 C985 1.404 . S
C984 C987 1.539 . S
C985 C981 1.408 . S
C985 C984 1.404 . S
C985 H997 0.930 . S
C986 C982 1.524 . S
C986 H998 0.956 . S
C986 H999 0.961 . S
C986 H1000 0.961 . S
C987 C984 1.539 . S
C987 H1001 0.958 1_554 S
C987 H1002 0.961 . S
C987 H1003 0.960 . S
H988 C972 0.931 1_556 S
H989 C977 0.929 . S
H990 C978 0.960 . S
H991 C978 0.962 . S
H992 C978 0.960 . S
H993 C979 0.961 . S
H994 C979 0.961 . S
H995 C979 0.961 . S
H996 C980 0.931 . S
H997 C985 0.930 . S
H998 C986 0.956 . S
H999 C986 0.961 . S
H1000 C986 0.961 . S
H1001 C987 0.958 1_556 S
H1002 C987 0.961 . S
H1003 C987 0.960 . S
C1004 C1005 1.391 . S
C1004 C1006 1.394 . S
C1004 H1020 0.931 . S
C1005 C1004 1.391 . S
C1005 C1009 1.376 . S
C1006 C1004 1.394 . S
C1006 C1007 1.369 . S
C1006 C1010 1.531 . S
C1007 C1006 1.369 . S
C1007 C1008 1.410 . S
C1007 C1015 1.503 . S
C1008 C1007 1.410 . S
C1008 C1009 1.392 . S
C1008 C1011 1.511 . S
C1009 C1005 1.376 . S
C1009 C1008 1.392 . S
C1009 H1021 0.929 . S
C1010 C1006 1.531 . S
C1010 H1022 0.960 . S
C1010 H1023 0.962 . S
C1010 H1024 0.960 . S
C1011 C1008 1.511 . S
C1011 H1025 0.961 . S
C1011 H1026 0.961 . S
C1011 H1027 0.961 . S
C1012 C1013 1.370 . S
C1012 C1014 1.363 . S
C1012 H1028 0.931 . S
C1013 C1012 1.370 . S
C1013 C1017 1.408 . S
C1014 C1012 1.363 . S
C1014 C1015 1.370 . S
C1014 C1018 1.524 . S
C1015 C1007 1.503 . S
C1015 C1014 1.370 . S
C1015 C1016 1.403 . S
C1016 C1015 1.403 . S
C1016 C1017 1.404 . S
C1016 C1019 1.539 . S
C1017 C1013 1.408 . S
C1017 C1016 1.404 . S
C1017 H1029 0.930 . S
C1018 C1014 1.524 . S
C1018 H1030 0.956 . S
C1018 H1031 0.961 . S
C1018 H1032 0.961 . S
C1019 C1016 1.539 . S
C1019 H1033 0.958 . S
C1019 H1034 0.961 . S
C1019 H1035 0.960 . S
H1020 C1004 0.931 . S
H1021 C1009 0.929 . S
H1022 C1010 0.960 . S
H1023 C1010 0.962 . S
H1024 C1010 0.960 . S
H1025 C1011 0.961 . S
H1026 C1011 0.961 . S
H1027 C1011 0.961 . S
H1028 C1012 0.931 . S
H1029 C1017 0.930 . S
H1030 C1018 0.956 . S
H1031 C1018 0.961 . S
H1032 C1018 0.961 . S
H1033 C1019 0.958 . S
H1034 C1019 0.961 . S
H1035 C1019 0.960 . S
C1036 C1037 1.391 . S
C1036 C1038 1.394 . S
C1036 H1052 0.931 . S
C1037 C1036 1.391 . S
C1037 C1041 1.376 1_655 S
C1038 C1036 1.394 . S
C1038 C1039 1.369 1_655 S
C1038 C1042 1.531 . S
C1039 C1038 1.369 1_455 S
C1039 C1040 1.410 . S
C1039 C1047 1.503 . S
C1040 C1039 1.410 . S
C1040 C1041 1.392 . S
C1040 C1043 1.511 1_556 S
C1041 C1037 1.376 1_455 S
C1041 C1040 1.392 . S
C1041 H1053 0.929 1_556 S
C1042 C1038 1.531 . S
C1042 H1054 0.960 . S
C1042 H1055 0.962 . S
C1042 H1056 0.960 . S
C1043 C1040 1.511 1_554 S
C1043 H1057 0.961 . S
C1043 H1058 0.961 . S
C1043 H1059 0.961 1_554 S
C1044 C1045 1.370 1_654 S
C1044 C1046 1.363 . S
C1044 H1060 0.931 . S
C1045 C1044 1.370 1_456 S
C1045 C1049 1.408 . S
C1046 C1044 1.363 . S
C1046 C1047 1.370 1_654 S
C1046 C1050 1.524 . S
C1047 C1039 1.503 . S
C1047 C1046 1.370 1_456 S
C1047 C1048 1.403 . S
C1048 C1047 1.403 . S
C1048 C1049 1.404 . S
C1048 C1051 1.539 . S
C1049 C1045 1.408 . S
C1049 C1048 1.404 . S
C1049 H1061 0.930 . S
C1050 C1046 1.524 . S
C1050 H1062 0.956 . S
C1050 H1063 0.961 . S
C1050 H1064 0.961 . S
C1051 C1048 1.539 . S
C1051 H1065 0.958 . S
C1051 H1066 0.961 . S
C1051 H1067 0.960 . S
H1052 C1036 0.931 . S
H1053 C1041 0.929 1_554 S
H1054 C1042 0.960 . S
H1055 C1042 0.962 . S
H1056 C1042 0.960 . S
H1057 C1043 0.961 . S
H1058 C1043 0.961 . S
H1059 C1043 0.961 1_556 S
H1060 C1044 0.931 . S
H1061 C1049 0.930 . S
H1062 C1050 0.956 . S
H1063 C1050 0.961 . S
H1064 C1050 0.961 . S
H1065 C1051 0.958 . S
H1066 C1051 0.961 . S
H1067 C1051 0.960 . S
C1068 C1069 1.391 . S
C1068 C1070 1.394 . S
C1068 H1084 0.931 . S
C1069 C1068 1.391 . S
C1069 C1073 1.376 . S
C1070 C1068 1.394 . S
C1070 C1071 1.369 . S
C1070 C1074 1.531 . S
C1071 C1070 1.369 . S
C1071 C1072 1.410 . S
C1071 C1079 1.503 . S
C1072 C1071 1.410 . S
C1072 C1073 1.392 . S
C1072 C1075 1.511 . S
C1073 C1069 1.376 . S
C1073 C1072 1.392 . S
C1073 H1085 0.929 . S
C1074 C1070 1.531 . S
C1074 H1086 0.963 . S
C1074 H1087 0.962 . S
C1074 H1088 0.960 1_554 S
C1075 C1072 1.511 . S
C1075 H1089 0.961 . S
C1075 H1090 0.961 . S
C1075 H1091 0.961 . S
C1076 C1077 1.370 . S
C1076 C1078 1.363 . S
C1076 H1092 0.931 . S
C1077 C1076 1.370 . S
C1077 C1081 1.408 . S
C1078 C1076 1.363 . S
C1078 C1079 1.370 . S
C1078 C1082 1.524 . S
C1079 C1071 1.503 . S
C1079 C1078 1.370 . S
C1079 C1080 1.403 . S
C1080 C1079 1.403 . S
C1080 C1081 1.404 . S
C1080 C1083 1.539 1_554 S
C1081 C1077 1.408 . S
C1081 C1080 1.404 . S
C1081 H1093 0.930 . S
C1082 C1078 1.524 . S
C1082 H1094 0.956 . S
C1082 H1095 0.961 . S
C1082 H1096 0.961 . S
C1083 C1080 1.539 1_556 S
C1083 H1097 0.958 . S
C1083 H1098 0.961 . S
C1083 H1099 0.960 . S
H1084 C1068 0.931 . S
H1085 C1073 0.929 . S
H1086 C1074 0.963 . S
H1087 C1074 0.962 . S
H1088 C1074 0.960 1_556 S
H1089 C1075 0.961 . S
H1090 C1075 0.961 . S
H1091 C1075 0.961 . S
H1092 C1076 0.931 . S
H1093 C1081 0.930 . S
H1094 C1082 0.956 . S
H1095 C1082 0.961 . S
H1096 C1082 0.961 . S
H1097 C1083 0.958 . S
H1098 C1083 0.961 . S
H1099 C1083 0.960 . S
C1100 C1101 1.391 . S
C1100 C1102 1.394 . S
C1100 H1116 0.931 1_455 S
C1101 C1100 1.391 . S
C1101 C1105 1.376 . S
C1102 C1100 1.394 . S
C1102 C1103 1.369 . S
C1102 C1106 1.531 1_455 S
C1103 C1102 1.369 . S
C1103 C1104 1.410 . S
C1103 C1111 1.503 . S
C1104 C1103 1.410 . S
C1104 C1105 1.392 . S
C1104 C1107 1.511 . S
C1105 C1101 1.376 . S
C1105 C1104 1.392 . S
C1105 H1117 0.929 . S
C1106 C1102 1.531 1_655 S
C1106 H1118 0.960 . S
C1106 H1119 0.962 . S
C1106 H1120 0.960 . S
C1107 C1104 1.511 . S
C1107 H1121 0.961 . S
C1107 H1122 0.961 . S
C1107 H1123 0.961 . S
C1108 C1109 1.370 . S
C1108 C1110 1.363 . S
C1108 H1124 0.931 . S
C1109 C1108 1.370 . S
C1109 C1113 1.408 . S
C1110 C1108 1.363 . S
C1110 C1111 1.370 . S
C1110 C1114 1.524 . S
C1111 C1103 1.503 . S
C1111 C1110 1.370 . S
C1111 C1112 1.403 . S
C1112 C1111 1.403 . S
C1112 C1113 1.404 . S
C1112 C1115 1.539 . S
C1113 C1109 1.408 . S
C1113 C1112 1.404 . S
C1113 H1125 0.930 . S
C1114 C1110 1.524 . S
C1114 H1126 0.956 1_455 S
C1114 H1127 0.961 . S
C1114 H1128 0.961 . S
C1115 C1112 1.539 . S
C1115 H1129 0.958 . S
C1115 H1130 0.961 . S
C1115 H1131 0.960 . S
H1116 C1100 0.931 1_655 S
H1117 C1105 0.929 . S
H1118 C1106 0.960 . S
H1119 C1106 0.962 . S
H1120 C1106 0.960 . S
H1121 C1107 0.961 . S
H1122 C1107 0.961 . S
H1123 C1107 0.961 . S
H1124 C1108 0.931 . S
H1125 C1113 0.930 . S
H1126 C1114 0.956 1_655 S
H1127 C1114 0.961 . S
H1128 C1114 0.961 . S
H1129 C1115 0.958 . S
H1130 C1115 0.961 . S
H1131 C1115 0.960 . S
C1132 C1133 1.391 . S
C1132 C1134 1.394 . S
C1132 H1148 0.931 . S
C1133 C1132 1.391 . S
C1133 C1137 1.376 . S
C1134 C1132 1.394 . S
C1134 C1135 1.369 . S
C1134 C1138 1.531 . S
C1135 C1134 1.369 . S
C1135 C1136 1.410 . S
C1135 C1143 1.503 . S
C1136 C1135 1.410 . S
C1136 C1137 1.392 . S
C1136 C1139 1.511 . S
C1137 C1133 1.376 . S
C1137 C1136 1.392 . S
C1137 H1149 0.929 . S
C1138 C1134 1.531 . S
C1138 H1150 0.960 . S
C1138 H1151 0.962 . S
C1138 H1152 0.960 . S
C1139 C1136 1.511 . S
C1139 H1153 0.961 . S
C1139 H1154 0.961 . S
C1139 H1155 0.961 . S
C1140 C1141 1.370 . S
C1140 C1142 1.363 . S
C1140 H1156 0.931 . S
C1141 C1140 1.370 . S
C1141 C1145 1.408 . S
C1142 C1140 1.363 . S
C1142 C1143 1.370 . S
C1142 C1146 1.524 . S
C1143 C1135 1.503 . S
C1143 C1142 1.370 . S
C1143 C1144 1.403 . S
C1144 C1143 1.403 . S
C1144 C1145 1.404 . S
C1144 C1147 1.539 . S
C1145 C1141 1.408 . S
C1145 C1144 1.404 . S
C1145 H1157 0.930 . S
C1146 C1142 1.524 . S
C1146 H1158 0.956 . S
C1146 H1159 0.961 . S
C1146 H1160 0.961 . S
C1147 C1144 1.539 . S
C1147 H1161 0.958 . S
C1147 H1162 0.961 . S
C1147 H1163 0.960 . S
H1148 C1132 0.931 . S
H1149 C1137 0.929 . S
H1150 C1138 0.960 . S
H1151 C1138 0.962 . S
H1152 C1138 0.960 . S
H1153 C1139 0.961 . S
H1154 C1139 0.961 . S
H1155 C1139 0.961 . S
H1156 C1140 0.931 . S
H1157 C1145 0.930 . S
H1158 C1146 0.956 . S
H1159 C1146 0.961 . S
H1160 C1146 0.961 . S
H1161 C1147 0.958 . S
H1162 C1147 0.961 . S
H1163 C1147 0.960 . S
C397 C1 1.545 . S
C405 C315 1.434 . S
C429 C40 1.505 . S
C437 C349 1.399 . S
C469 C361 1.415 . S
C461 C99 1.501 . S
C493 C118 1.498 . S
C501 C395 1.400 . S
C533 C352 1.432 . S
C525 C16 1.538 . S
C565 C332 1.385 . S
C557 C60 1.505 . S
C597 C379 1.415 . S
C589 C79 1.506 . S
C629 C370 1.402 . S
C621 C138 1.486 . S
C653 C21 1.529 . S
C661 C378 1.411 . S
C693 C340 1.393 . S
C685 C94 1.510 . S
C717 C133 1.492 . S
C725 C316 1.373 . S
C749 C55 1.514 . S
C757 C373 1.420 . S
C789 C331 1.642 . S
C781 C157 1.693 . S
C813 C196 1.686 . S
C821 C353 1.629 . S
C845 C255 1.739 . S
C853 C358 1.649 . S
C877 C289 1.701 . S
C885 C391 1.652 . S
C909 C172 1.727 . S
C917 C336 1.640 . S
C949 C328 1.639 . S
C941 C216 1.751 . S
C981 C382 1.664 . S
C973 C235 1.766 . S
C1013 C374 1.623 . S
C1005 C294 1.660 . S
C1037 C177 1.686 . S
C1045 C394 1.601 . S
C1077 C337 1.675 . S
C1069 C250 1.754 . S
C1109 C319 1.625 . S
C1101 C274 1.707 . S
C1133 C211 1.704 . S
C1141 C357 1.620 . S
