# Generated by pormake.
# Topology tsx, (6,3)-cn, num edge types: 1
# Building blocks:
#     Node 0, Type 0, BuildingBlock: CIFDUS_clean_sbu_1, # of connection points: 6
#     Node 1, Type 0, BuildingBlock: CIFDUS_clean_sbu_1, # of connection points: 6
#     Node 2, Type 1, BuildingBlock: BETDIP_clean_linker_0, # of connection points: 3
#     Node 3, Type 1, BuildingBlock: BETDIP_clean_linker_0, # of connection points: 3
#     Node 4, Type 1, BuildingBlock: BETDIP_clean_linker_0, # of connection points: 3
#     Node 5, Type 1, BuildingBlock: BETDIP_clean_linker_0, # of connection points: 3
#     Edge 6, Type (0, 1), BuildingBlock: XUDNAN_clean_linker_2, # of connection points: 2
#     Edge 7, Type (0, 1), BuildingBlock: XUDNAN_clean_linker_2, # of connection points: 2
#     Edge 8, Type (0, 1), BuildingBlock: XUDNAN_clean_linker_2, # of connection points: 2
#     Edge 9, Type (0, 1), BuildingBlock: XUDNAN_clean_linker_2, # of connection points: 2
#     Edge 10, Type (0, 1), BuildingBlock: XUDNAN_clean_linker_2, # of connection points: 2
#     Edge 11, Type (0, 1), BuildingBlock: XUDNAN_clean_linker_2, # of connection points: 2
#     Edge 12, Type (0, 1), BuildingBlock: XUDNAN_clean_linker_2, # of connection points: 2
#     Edge 13, Type (0, 1), BuildingBlock: XUDNAN_clean_linker_2, # of connection points: 2
#     Edge 14, Type (0, 1), BuildingBlock: XUDNAN_clean_linker_2, # of connection points: 2
#     Edge 15, Type (0, 1), BuildingBlock: XUDNAN_clean_linker_2, # of connection points: 2
#     Edge 16, Type (0, 1), BuildingBlock: XUDNAN_clean_linker_2, # of connection points: 2
#     Edge 17, Type (0, 1), BuildingBlock: XUDNAN_clean_linker_2, # of connection points: 2
# Relax obj value: 0.096
# Max RMSD: 0.148
# Mean RMSD: 0.111
data_MOF--net-tsx--node1-CIFDUS_clean_sbu_1--node2-BETDIP_clean_linker_0--edge1-XUDNAN_clean_linker_2
_symmetry_space_group_name_H-M    P1
_symmetry_Int_Tables_number       1
_symmetry_cell_setting            triclinic
loop_
_symmetry_equiv_pos_as_xyz
'x, y, z'
_cell_length_a     18.245202
_cell_length_b     22.622797
_cell_length_c     34.39685
_cell_angle_alpha  97.511081
_cell_angle_beta   103.81266
_cell_angle_gamma 91.968123
loop_
_atom_site_label
_atom_site_type_symbol
_atom_site_fract_x
_atom_site_fract_y
_atom_site_fract_z
_atom_type_partial_charge
O0 O 0.97696 0.09665 0.99775 0.0
Mn1 Mn 0.03904 0.01988 0.00246 0.0
O2 O 0.87242 0.06865 0.94705 0.0
Mn3 Mn 0.89623 0.9911 0.93218 0.0
O4 O 0.09909 0.94167 0.00458 0.0
O5 O 0.13597 0.07324 0.02723 0.0
Mn6 Mn 0.18663 0.03985 0.06844 0.0
O7 O 1.019 0.01411 0.05958 0.0
O8 O 0.21203 0.96604 0.04814 0.0
O9 O 0.06134 0.02521 0.94591 0.0
O10 O 0.96095 0.98147 0.89844 0.0
O11 O 0.24644 0.10551 0.06795 0.0
O12 O 0.12894 0.04098 0.1057 0.0
C13 C 0.8855 0.9281 0.97157 0.0
C14 C 0.91291 0.10738 0.97497 0.0
C15 C 0.16631 0.9289 0.02176 0.0
C16 C 0.19276 0.11333 0.03716 0.0
C17 C 0.05856 0.02575 0.09636 0.0
C18 C 0.02883 0.00374 0.90913 0.0
O19 O 0.94239 0.96718 0.97792 0.0
O20 O 0.83587 0.92772 0.93763 0.0
O21 O 0.53394 0.6093 0.49746 0.0
Mn22 Mn 0.59848 0.53417 0.50541 0.0
O23 O 0.42908 0.57753 0.44857 0.0
Mn24 Mn 0.46179 0.50453 0.432 0.0
O25 O 0.66201 0.45952 0.51301 0.0
O26 O 0.69115 0.58911 0.53418 0.0
Mn27 Mn 0.73323 0.56207 0.57995 0.0
O28 O 0.56514 0.53074 0.55959 0.0
O29 O 0.76108 0.48567 0.56659 0.0
O30 O 0.63183 0.53746 0.45125 0.0
O31 O 0.53007 0.50491 0.40033 0.0
O32 O 0.79429 0.62724 0.57819 0.0
O33 O 0.66381 0.56755 0.61106 0.0
C34 C 0.45621 0.4332 0.46639 0.0
C35 C 0.46788 0.61765 0.47588 0.0
C36 C 0.7232 0.44789 0.5374 0.0
C37 C 0.74634 0.63024 0.54416 0.0
C38 C 0.59507 0.54812 0.59734 0.0
C39 C 0.59971 0.52208 0.41354 0.0
O40 O 0.50775 0.47724 0.47659 0.0
O41 O 0.4071 0.43531 0.43259 0.0
H42 H 0.17254 0.01917 0.4915 0.0
H43 H 0.03018 0.07594 0.38602 0.0
H44 H 0.15575 0.92121 0.37314 0.0
H45 H 0.05858 0.16634 0.42498 0.0
C46 C 0.04928 0.15413 0.45303 0.0
C47 C 0.15002 0.01329 0.45902 0.0
C48 C 0.16925 0.96443 0.43458 0.0
C49 C 0.10088 0.05431 0.44178 0.0
C50 C 0.07049 0.04605 0.39968 0.0
C51 C 0.09008 0.99828 0.37477 0.0
C52 C 0.13919 0.95749 0.39242 0.0
N53 N 0.07976 0.10183 0.46733 0.0
H54 H 0.06073 0.01879 0.5223 0.0
H55 H 0.19129 0.07661 0.64393 0.0
H56 H 0.99005 0.96149 0.62265 0.0
H57 H 0.21788 0.15737 0.62224 0.0
C58 C 0.22243 0.14405 0.5915 0.0
C59 C 0.06923 0.01972 0.55461 0.0
C60 C 1.02056 0.98423 0.56964 0.0
C61 C 0.12862 0.05648 0.58148 0.0
C62 C 0.1412 0.0541 0.62323 0.0
C63 C 0.09058 0.02194 0.63885 0.0
C64 C 0.02994 0.98717 0.61158 0.0
N65 N 0.17537 0.09514 0.56638 0.0
H66 H 0.55566 0.45145 0.9699 0.0
H67 H 0.44346 0.54283 0.87332 0.0
H68 H 0.62769 0.43448 0.8587 0.0
H69 H 0.52063 0.61409 0.96159 0.0
C70 C 0.46595 0.59296 0.96124 0.0
C71 C 0.54902 0.46113 0.93925 0.0
C72 C 0.59731 0.43743 0.91572 0.0
C73 C 0.49526 0.50045 0.92404 0.0
C74 C 0.4869 0.51361 0.88468 0.0
C75 C 0.53355 0.48967 0.86032 0.0
C76 C 0.58943 0.45199 0.87641 0.0
N77 N 0.45246 0.53033 0.94893 0.0
H78 H 0.45097 0.53378 0.02734 0.0
H79 H 0.61758 0.59809 0.13763 0.0
H80 H 0.49347 0.429 0.12508 0.0
H81 H 0.56261 0.68915 0.11716 0.0
C82 C 0.5779 0.67968 0.0884 0.0
C83 C 0.48223 0.52757 0.05726 0.0
C84 C 0.46726 0.47559 0.0731 0.0
C85 C 0.53628 0.57205 0.08041 0.0
C86 C 0.57505 0.56431 0.11972 0.0
C87 C 0.55992 0.51311 0.1362 0.0
C88 C 0.50681 0.46828 0.1124 0.0
N89 N 0.55258 0.62381 0.06377 0.0
H90 H 0.31244 0.14331 0.01025 0.0
H91 H 0.09846 0.20362 0.02622 0.0
H92 H 0.13896 0.3066 0.01959 0.0
H93 H 0.41477 0.2471 0.07545 0.0
H94 H 0.49039 0.25861 0.05116 0.0
H95 H 0.43611 0.18833 0.03987 0.0
H96 H 0.40157 0.1978 0.96361 0.0
H97 H 0.45723 0.26811 0.97449 0.0
H98 H 0.35949 0.26388 0.94685 0.0
H99 H 0.21449 0.40471 0.02983 0.0
H100 H 0.31524 0.48634 0.05619 0.0
H101 H 0.48462 0.36225 0.04079 0.0
C102 C 0.2724 0.17768 0.00941 0.0
C103 C 0.20091 0.16544 0.0167 0.0
C104 C 0.15128 0.21165 0.01806 0.0
C105 C 0.17471 0.27045 0.01501 0.0
C106 C 0.24813 0.28202 0.01085 0.0
C107 C 0.29599 0.23645 0.00746 0.0
C108 C 0.37653 0.26088 0.01189 0.0
C109 C 0.43261 0.23736 0.04667 0.0
C110 C 0.40007 0.24685 0.97182 0.0
C111 C 0.36807 0.32703 0.02165 0.0
C112 C 0.29322 0.33871 0.01929 0.0
C113 C 0.27282 0.39614 0.03073 0.0
C114 C 0.33024 0.4422 0.04573 0.0
C115 C 0.40706 0.43018 0.05004 0.0
C116 C 0.42594 0.37235 0.03702 0.0
H117 H 0.31328 0.90192 0.03228 0.0
H118 H 0.08398 0.82273 0.98505 0.0
H119 H 0.13507 0.72494 0.96787 0.0
H120 H 0.3903 0.82507 0.95631 0.0
H121 H 0.48042 0.81804 0.99041 0.0
H122 H 0.42496 0.87978 0.00066 0.0
H123 H 0.42867 0.85027 0.07155 0.0
H124 H 0.48433 0.78866 0.06117 0.0
H125 H 0.39706 0.77537 0.07547 0.0
H126 H 0.21425 0.63494 0.95649 0.0
H127 H 0.31206 0.56529 0.94582 0.0
H128 H 0.48691 0.70739 0.99784 0.0
C129 C 0.27342 0.86402 0.01866 0.0
C130 C 0.19445 0.86987 0.01041 0.0
C131 C 0.14464 0.81927 0.99175 0.0
C132 C 0.17321 0.76356 0.9821 0.0
C133 C 0.25161 0.75949 0.991 0.0
C134 C 0.30082 0.80875 0.00851 0.0
C135 C 0.38253 0.79418 0.01318 0.0
C136 C 0.42182 0.83147 0.98866 0.0
C137 C 0.42564 0.80261 0.05801 0.0
C138 C 0.37203 0.72895 0.9953 0.0
C139 C 0.29634 0.70921 0.9832 0.0
C140 C 0.27354 0.65013 0.96583 0.0
C141 C 0.32942 0.61083 0.96002 0.0
C142 C 0.40685 0.63121 0.97104 0.0
C143 C 0.42806 0.69074 0.98923 0.0
H144 H 0.83112 0.8129 0.95685 0.0
H145 H 0.88828 0.96622 0.05038 0.0
H146 H 0.82494 0.91439 0.09352 0.0
H147 H 0.64995 0.78991 0.96464 0.0
H148 H 0.64395 0.70944 0.95494 0.0
H149 H 0.70805 0.75183 0.93502 0.0
H150 H 0.82081 0.69583 0.97063 0.0
H151 H 0.7566 0.65208 0.98984 0.0
H152 H 0.83787 0.69343 0.02421 0.0
H153 H 0.73847 0.85271 0.12152 0.0
H154 H 0.64286 0.78276 0.13456 0.0
H155 H 0.63688 0.67111 0.02116 0.0
C156 C 0.83361 0.8341 0.98731 0.0
C157 C 0.86841 0.8922 0.00138 0.0
C158 C 0.86676 0.92028 0.04028 0.0
C159 C 0.82938 0.89152 0.06459 0.0
C160 C 0.7935 0.83492 0.04928 0.0
C161 C 0.796 0.80616 0.01166 0.0
C162 C 0.74582 0.74861 0.00022 0.0
C163 C 0.68327 0.7501 0.96142 0.0
C164 C 0.79311 0.69427 0.99599 0.0
C165 C 0.71312 0.75021 0.03679 0.0
C166 C 0.74167 0.80015 0.06485 0.0
C167 C 0.71674 0.81299 0.10008 0.0
C168 C 0.66215 0.7733 0.10709 0.0
C169 C 0.63291 0.72162 0.07898 0.0
C170 C 0.65864 0.71008 0.04334 0.0
H171 H 0.76967 0.1349 0.97678 0.0
H172 H 0.9892 0.21423 0.97731 0.0
H173 H 0.93435 0.31182 0.96997 0.0
H174 H 0.66575 0.20439 0.90158 0.0
H175 H 0.58504 0.21591 0.92267 0.0
H176 H 0.64353 0.15539 0.93512 0.0
H177 H 0.66582 0.19489 0.01145 0.0
H178 H 0.60658 0.25532 -0.0008 0.0
H179 H 0.70177 0.27116 0.03004 0.0
H180 H 0.85132 0.39513 0.95058 0.0
H181 H 0.74877 0.4605 0.92676 0.0
H182 H 0.58298 0.32863 0.94103 0.0
C183 C 0.80658 0.17349 0.97687 0.0
C184 C 0.8843 0.16768 0.97893 0.0
C185 C 0.93055 0.21844 0.97767 0.0
C186 C 0.89945 0.27383 0.97295 0.0
C187 C 0.82212 0.27773 0.96996 0.0
C188 C 0.77649 0.22912 0.97263 0.0
C189 C 0.69419 0.24382 0.96554 0.0
C190 C 0.64424 0.20243 0.92906 0.0
C191 C 0.66541 0.24115 0.00385 0.0
C192 C 0.70009 0.30745 0.95669 0.0
C193 C 0.77442 0.32627 0.95957 0.0
C194 C 0.79325 0.38138 0.94919 0.0
C195 C 0.73476 0.41804 0.93551 0.0
C196 C 0.65847 0.39969 0.93258 0.0
C197 C 0.64112 0.34407 0.94383 0.0
H198 H 0.87433 0.65478 0.52244 0.0
H199 H 0.65116 0.71521 0.51795 0.0
H200 H 0.6938 0.81489 0.50611 0.0
H201 H 0.96914 0.76803 0.58038 0.0
H202 H 0.04859 0.77378 0.55808 0.0
H203 H 0.99552 0.7036 0.55126 0.0
H204 H 0.96949 0.69789 0.47348 0.0
H205 H 0.02396 0.76811 0.48002 0.0
H206 H 0.92817 0.75909 0.44932 0.0
H207 H 0.77008 0.91264 0.51746 0.0
H208 H 0.86866 0.99559 0.54474 0.0
H209 H 0.04265 0.87219 0.53941 0.0
C210 C 0.83337 0.68799 0.51617 0.0
C211 C 0.75909 0.67738 0.52024 0.0
C212 C 0.70743 0.72214 0.51369 0.0
C213 C 0.73167 0.77902 0.50726 0.0
C214 C 0.80734 0.78968 0.50655 0.0
C215 C 0.85694 0.74457 0.50955 0.0
C216 C 0.93772 0.76895 0.51469 0.0
C217 C 0.99071 0.75266 0.5534 0.0
C218 C 0.96651 0.74723 0.47713 0.0
C219 C 0.92714 0.83532 0.518 0.0
C220 C 0.85137 0.84654 0.51218 0.0
C221 C 0.82908 0.90443 0.52029 0.0
C222 C 0.88528 0.95138 0.53571 0.0
C223 C 0.96273 0.94017 0.5427 0.0
C224 C 0.9836 0.88192 0.53248 0.0
H225 H 0.74949 0.39712 0.46656 0.0
H226 H 0.7769 0.37357 0.59205 0.0
H227 H 0.85479 0.2879 0.58246 0.0
H228 H 0.75335 0.23677 0.4236 0.0
H229 H 0.80859 0.2562 0.38954 0.0
H230 H 0.74288 0.3071 0.40419 0.0
H231 H 0.85107 0.39042 0.42876 0.0
H232 H 0.9175 0.33982 0.41494 0.0
H233 H 0.93494 0.37791 0.46602 0.0
H234 H 0.94018 0.21183 0.56098 0.0
H235 H 0.02828 0.15273 0.52959 0.0
H236 H 0.95303 0.23229 0.42 0.0
C237 C 0.76937 0.37217 0.49144 0.0
C238 C 0.75603 0.3905 0.52973 0.0
C239 C 0.78572 0.35908 0.56232 0.0
C240 C 0.82993 0.31055 0.55714 0.0
C241 C 0.84463 0.29479 0.51933 0.0
C242 C 0.81517 0.32466 0.487 0.0
C243 C 0.84706 0.30413 0.45112 0.0
C244 C 0.78422 0.27425 0.41498 0.0
C245 C 0.8902 0.35617 0.43957 0.0
C246 C 0.90025 0.25911 0.46858 0.0
C247 C 0.89707 0.25346 0.50768 0.0
C248 C 0.94268 0.2155 0.53027 0.0
C249 C 0.99265 0.1823 0.5123 0.0
C250 C 0.99723 0.18833 0.47251 0.0
C251 C 0.95051 0.22715 0.45054 0.0
H252 H 0.35916 0.33485 0.4422 0.0
H253 H 0.53398 0.42122 0.54459 0.0
H254 H 0.50107 0.34816 0.58638 0.0
H255 H 0.22436 0.30968 0.49277 0.0
H256 H 0.18799 0.23764 0.46447 0.0
H257 H 0.2323 0.29095 0.44141 0.0
H258 H 0.32686 0.21383 0.42572 0.0
H259 H 0.28207 0.15994 0.44844 0.0
H260 H 0.3824 0.17889 0.46609 0.0
H261 H 0.43442 0.27634 0.61891 0.0
H262 H 0.34669 0.20733 0.63884 0.0
H263 H 0.22061 0.16361 0.51382 0.0
C264 C 0.39193 0.33781 0.47319 0.0
C265 C 0.44827 0.38471 0.49044 0.0
C266 C 0.48979 0.38662 0.53098 0.0
C267 C 0.47173 0.34491 0.5548 0.0
C268 C 0.41347 0.3008 0.53715 0.0
C269 C 0.37528 0.29627 0.49698 0.0
C270 C 0.31165 0.24752 0.48572 0.0
C271 C 0.23457 0.27301 0.47021 0.0
C272 C 0.32669 0.19705 0.45466 0.0
C273 C 0.31768 0.22678 0.52631 0.0
C274 C 0.37709 0.25781 0.55553 0.0
C275 C 0.38913 0.25083 0.59613 0.0
C276 C 0.33894 0.21172 0.60714 0.0
C277 C 0.27799 0.17963 0.57771 0.0
C278 C 0.26803 0.18642 0.53669 0.0
H279 H 0.32625 0.64415 0.43853 0.0
H280 H 0.52962 0.72272 0.52633 0.0
H281 H 0.47201 0.82041 0.52975 0.0
H282 H 0.2915 0.76198 0.38391 0.0
H283 H 0.19003 0.7535 0.37513 0.0
H284 H 0.24522 0.68979 0.38265 0.0
H285 H 0.1867 0.67033 0.44196 0.0
H286 H 0.13086 0.73391 0.4344 0.0
H287 H 0.19203 0.7294 0.48335 0.0
H288 H 0.39322 0.9119 0.51826 0.0
H289 H 0.30288 0.9861 0.49357 0.0
H290 H 0.15213 0.84322 0.41564 0.0
C291 C 0.35906 0.68148 0.45889 0.0
C292 C 0.4335 0.67581 0.48155 0.0
C293 C 0.47331 0.7261 0.50801 0.0
C294 C 0.44068 0.78163 0.51038 0.0
C295 C 0.3677 0.78564 0.48671 0.0
C296 C 0.32731 0.73644 0.46187 0.0
C297 C 0.25127 0.75193 0.43813 0.0
C298 C 0.24416 0.73852 0.39226 0.0
C299 C 0.18641 0.71947 0.4502 0.0
C300 C 0.25581 0.81819 0.45228 0.0
C301 C 0.32277 0.83707 0.48066 0.0
C302 C 0.34032 0.89731 0.49644 0.0
C303 C 0.28862 0.9391 0.48235 0.0
C304 C 0.22069 0.92037 0.45254 0.0
C305 C 0.20388 0.85898 0.43813 0.0
H306 H 0.06118 0.10485 0.16263 0.0
H307 H 0.99293 0.92205 0.10785 0.0
H308 H 0.9737 0.89754 0.17283 0.0
H309 H 0.1726 0.07331 0.24778 0.0
H310 H 0.15184 0.13393 0.28217 0.0
H311 H 0.14017 0.14153 0.22979 0.0
H312 H 1.00019 0.16495 0.22346 0.0
H313 H 1.0117 0.15878 0.27628 0.0
H314 H 0.93754 0.11423 0.23868 0.0
H315 H 0.9908 0.88829 0.24652 0.0
H316 H 0.03037 0.89741 0.32125 0.0
H317 H 0.08841 0.08648 0.3278 0.0
C318 C 0.03814 0.06059 0.16397 0.0
C319 C 0.02537 0.01583 0.13007 0.0
C320 C 0.99906 0.95752 0.13302 0.0
C321 C 0.98906 0.94312 0.16999 0.0
C322 C 1.00548 0.98774 0.20352 0.0
C323 C 0.02795 0.04573 0.20059 0.0
C324 C 0.05132 0.08363 0.24175 0.0
C325 C 0.13385 0.10956 0.25087 0.0
C326 C 0.99692 0.13333 0.24524 0.0
C327 C 0.04272 0.03724 0.26852 0.0
C328 C 1.01536 0.98235 0.24602 0.0
C329 C 1.01028 0.93141 0.2644 0.0
C330 C 0.03353 0.93683 0.30677 0.0
C331 C 0.06159 0.99277 0.33021 0.0
C332 C 0.06528 0.04351 0.31068 0.0
H333 H 1.01789 0.92522 0.84097 0.0
H334 H 0.1225 0.09744 0.90354 0.0
H335 H 0.16203 0.11705 0.84211 0.0
H336 H 0.16174 0.89442 0.77872 0.0
H337 H 0.08932 0.85813 0.73618 0.0
H338 H 0.08114 0.85413 0.78699 0.0
H339 H 0.94919 0.89683 0.7694 0.0
H340 H 0.9575 0.90229 0.71895 0.0
H341 H 0.94007 0.96766 0.75059 0.0
H342 H 0.16468 0.12594 0.77061 0.0
H343 H 0.14835 0.1185 0.69722 0.0
H344 H 0.05394 0.93544 0.6825 0.0
C345 C 0.05139 0.96616 0.84208 0.0
C346 C 0.06736 0.0099 0.87674 0.0
C347 C 0.11061 0.0632 0.8773 0.0
C348 C 0.13292 0.07473 0.84253 0.0
C349 C 0.11314 0.03174 0.80811 0.0
C350 C 0.07529 0.97774 0.80802 0.0
C351 C 0.05665 0.94061 0.76653 0.0
C352 C 0.09981 0.88344 0.76715 0.0
C353 C 0.97078 0.92604 0.75045 0.0
C354 C 0.08609 0.98353 0.7427 0.0
C355 C 0.11863 0.03571 0.76724 0.0
C356 C 0.14208 0.08443 0.75135 0.0
C357 C 0.13276 0.07951 0.70941 0.0
C358 C 0.10121 0.02583 0.68357 0.0
C359 C 0.07828 0.97718 0.7009 0.0
H360 H 0.57802 0.45132 0.6336 0.0
H361 H 0.52441 0.63588 0.63178 0.0
H362 H 0.48783 0.63711 0.69664 0.0
H363 H 0.42898 0.40601 0.68781 0.0
H364 H 0.4933 0.35911 0.71592 0.0
H365 H 0.49791 0.36894 0.66537 0.0
H366 H 0.63969 0.40319 0.6922 0.0
H367 H 0.63553 0.39538 0.74298 0.0
H368 H 0.66792 0.46598 0.73187 0.0
H369 H 0.48386 0.62501 0.76677 0.0
H370 H 0.49895 0.5979 0.83494 0.0
H371 H 0.55126 0.41896 0.79161 0.0
C372 C 0.55439 0.49071 0.6459 0.0
C373 C 0.55129 0.54295 0.62741 0.0
C374 C 0.52448 0.59503 0.64509 0.0
C375 C 0.50418 0.59614 0.68199 0.0
C376 C 0.51114 0.54471 0.7006 0.0
C377 C 0.53414 0.49247 0.68282 0.0
C378 C 0.54513 0.44577 0.71121 0.0
C379 C 0.48788 0.39176 0.69407 0.0
C380 C 0.62692 0.4265 0.72007 0.0
C381 C 0.52837 0.48085 0.74838 0.0
C382 C 0.50821 0.53757 0.74144 0.0
C383 C 0.49703 0.58007 0.7722 0.0
C384 C 0.50562 0.56406 0.81094 0.0
C385 C 0.5249 0.50578 0.81881 0.0
C386 C 0.53622 0.46377 0.78682 0.0
H387 H 0.60522 0.60957 0.36838 0.0
H388 H 0.67819 0.4333 0.38624 0.0
H389 H 0.69851 0.41744 0.31721 0.0
H390 H 0.49527 0.57278 0.27889 0.0
H391 H 0.51348 0.63725 0.256 0.0
H392 H 0.5288 0.64363 0.30988 0.0
H393 H 0.66801 0.68267 0.31994 0.0
H394 H 0.6528 0.6783 0.26584 0.0
H395 H 0.7288 0.64059 0.29408 0.0
H396 H 0.67478 0.41017 0.24192 0.0
H397 H 0.62583 0.41753 0.16916 0.0
H398 H 0.56979 0.5993 0.20051 0.0
C399 C 0.63074 0.56955 0.3586 0.0
C400 C 0.64261 0.5234 0.3827 0.0
C401 C 0.67153 0.46987 0.36851 0.0
C402 C 0.68253 0.46038 0.32921 0.0
C403 C 0.66506 0.50523 0.30487 0.0
C404 C 0.64193 0.55964 0.31948 0.0
C405 C 0.61584 0.59691 0.28588 0.0
C406 C 0.53351 0.61353 0.28249 0.0
C407 C 0.66959 0.65294 0.29178 0.0
C408 C 0.62243 0.55342 0.24976 0.0
C409 C 0.65201 0.50112 0.26123 0.0
C410 C 0.65407 0.45167 0.23267 0.0
C411 C 0.62545 0.45595 0.19147 0.0
C412 C 0.59518 0.50927 0.1793 0.0
C413 C 0.59481 0.55864 0.20893 0.0
loop_
_geom_bond_atom_site_label_1
_geom_bond_atom_site_label_2
_geom_bond_distance
_geom_bond_site_symmetry_2
_ccdc_geom_bond_type
O0 Mn1 2.162 1_554 S
O0 C14 1.244 1_454 S
Mn1 O0 2.162 1_556 S
Mn1 O4 2.161 1_545 S
Mn1 O5 2.221 1_556 S
Mn1 O7 2.141 1_556 S
Mn1 O9 2.182 . S
Mn1 O19 2.223 1_445 S
O2 Mn3 2.087 1_545 S
O2 C14 1.256 . S
Mn3 O2 2.087 1_565 S
Mn3 O10 2.089 1_565 S
Mn3 O19 2.290 . S
Mn3 O20 2.251 . S
O4 Mn1 2.161 1_565 S
O4 C15 1.239 1_556 S
O5 Mn1 2.221 1_554 S
O5 Mn6 2.290 . S
O5 C16 1.278 . S
Mn6 O5 2.290 . S
Mn6 O8 2.089 1_545 S
Mn6 O11 2.251 . S
Mn6 O12 2.087 . S
O7 Mn1 2.141 1_554 S
O7 C17 1.244 . S
O8 Mn6 2.089 1_565 S
O8 C15 1.256 . S
O9 Mn1 2.182 . S
O9 C18 1.239 . S
O10 Mn3 2.089 1_545 S
O10 C18 1.256 1_655 S
O11 Mn6 2.251 . S
O11 C16 1.241 . S
O12 Mn6 2.087 . S
O12 C17 1.256 . S
C13 O19 1.278 . S
C13 O20 1.241 . S
C14 O0 1.244 1_656 S
C14 O2 1.256 . S
C15 O4 1.239 1_554 S
C15 O8 1.256 . S
C16 O5 1.278 . S
C16 O11 1.241 . S
C17 O7 1.244 . S
C17 O12 1.256 . S
C18 O9 1.239 . S
C18 O10 1.256 1_455 S
O19 Mn1 2.223 1_665 S
O19 Mn3 2.290 . S
O19 C13 1.278 . S
O20 Mn3 2.251 . S
O20 C13 1.241 . S
O21 Mn22 2.163 . S
O21 C35 1.244 . S
Mn22 O21 2.163 . S
Mn22 O25 2.160 . S
Mn22 O26 2.221 . S
Mn22 O28 2.163 . S
Mn22 O30 2.160 . S
Mn22 O40 2.221 . S
O23 Mn24 2.087 . S
O23 C35 1.256 . S
Mn24 O23 2.087 . S
Mn24 O31 2.089 . S
Mn24 O40 2.290 . S
Mn24 O41 2.251 . S
O25 Mn22 2.160 . S
O25 C36 1.239 . S
O26 Mn22 2.221 . S
O26 Mn27 2.290 . S
O26 C37 1.278 . S
Mn27 O26 2.290 . S
Mn27 O29 2.089 . S
Mn27 O32 2.251 . S
Mn27 O33 2.087 . S
O28 Mn22 2.163 . S
O28 C38 1.244 . S
O29 Mn27 2.089 . S
O29 C36 1.256 . S
O30 Mn22 2.160 . S
O30 C39 1.239 . S
O31 Mn24 2.089 . S
O31 C39 1.256 . S
O32 Mn27 2.251 . S
O32 C37 1.241 . S
O33 Mn27 2.087 . S
O33 C38 1.256 . S
C34 O40 1.278 . S
C34 O41 1.241 . S
C35 O21 1.244 . S
C35 O23 1.256 . S
C36 O25 1.239 . S
C36 O29 1.256 . S
C37 O26 1.278 . S
C37 O32 1.241 . S
C38 O28 1.244 . S
C38 O33 1.256 . S
C39 O30 1.239 . S
C39 O31 1.256 . S
O40 Mn22 2.221 . S
O40 Mn24 2.290 . S
O40 C34 1.278 . S
O41 Mn24 2.251 . S
O41 C34 1.241 . S
H42 C47 0.930 . S
H43 C50 0.930 . S
H44 C52 0.930 . S
H45 C46 1.016 . S
C46 H45 1.016 . S
C46 N53 1.286 . S
C47 H42 0.930 . S
C47 C48 1.397 . S
C47 C49 1.361 1_565 S
C48 C47 1.397 . S
C48 C52 1.390 . S
C49 C47 1.361 1_545 S
C49 C50 1.393 . S
C49 N53 1.413 1_455 S
C50 H43 0.930 . S
C50 C49 1.393 . S
C50 C51 1.399 1_545 S
C51 C50 1.399 1_565 S
C51 C52 1.381 . S
C52 H44 0.930 . S
C52 C48 1.390 . S
C52 C51 1.381 . S
N53 C46 1.286 . S
N53 C49 1.413 1_655 S
H54 C59 0.930 . S
H55 C62 0.930 . S
H56 C64 0.930 1_565 S
H57 C58 1.016 . S
C58 H57 1.016 . S
C58 N65 1.286 . S
C59 H54 0.930 . S
C59 C60 1.397 1_545 S
C59 C61 1.361 1_655 S
C60 C59 1.397 1_565 S
C60 C64 1.390 1_565 S
C61 C59 1.361 1_455 S
C61 C62 1.393 . S
C61 N65 1.413 . S
C62 H55 0.930 . S
C62 C61 1.393 . S
C62 C63 1.399 1_455 S
C63 C62 1.399 1_655 S
C63 C64 1.381 . S
C64 H56 0.930 1_545 S
C64 C60 1.390 1_545 S
C64 C63 1.381 . S
N65 C58 1.286 . S
N65 C61 1.413 . S
H66 C71 0.930 . S
H67 C74 0.930 . S
H68 C76 0.930 . S
H69 C70 1.016 . S
C70 H69 1.016 . S
C70 N77 1.286 . S
C71 H66 0.930 . S
C71 C72 1.397 . S
C71 C73 1.361 . S
C72 C71 1.397 . S
C72 C76 1.390 . S
C73 C71 1.361 . S
C73 C74 1.393 . S
C73 N77 1.413 . S
C74 H67 0.930 . S
C74 C73 1.393 . S
C74 C75 1.399 . S
C75 C74 1.399 . S
C75 C76 1.381 . S
C76 H68 0.930 . S
C76 C72 1.390 . S
C76 C75 1.381 . S
N77 C70 1.286 . S
N77 C73 1.413 . S
H78 C83 0.930 . S
H79 C86 0.930 . S
H80 C88 0.930 . S
H81 C82 1.016 . S
C82 H81 1.016 . S
C82 N89 1.286 . S
C83 H78 0.930 . S
C83 C84 1.397 . S
C83 C85 1.361 . S
C84 C83 1.397 . S
C84 C88 1.390 . S
C85 C83 1.361 . S
C85 C86 1.393 . S
C85 N89 1.413 . S
C86 H79 0.930 . S
C86 C85 1.393 . S
C86 C87 1.399 . S
C87 C86 1.399 . S
C87 C88 1.381 . S
C88 H80 0.930 . S
C88 C84 1.390 . S
C88 C87 1.381 . S
N89 C82 1.286 . S
N89 C85 1.413 . S
H90 C102 0.930 . S
H91 C104 0.930 . S
H92 C105 0.930 . S
H93 C109 0.959 . S
H94 C109 0.959 . S
H95 C109 0.961 . S
H96 C110 0.960 . S
H97 C110 0.961 . S
H98 C110 0.959 . S
H99 C113 0.929 . S
H100 C114 0.931 . S
H101 C116 0.930 1_556 S
C102 H90 0.930 . S
C102 C103 1.399 1_556 S
C102 C107 1.399 1_556 S
C103 C102 1.399 1_554 S
C103 C104 1.376 . S
C104 H91 0.930 . S
C104 C103 1.376 . S
C104 C105 1.388 . S
C105 H92 0.930 . S
C105 C104 1.388 . S
C105 C106 1.390 . S
C106 C105 1.390 . S
C106 C107 1.394 . S
C106 C112 1.465 . S
C107 C102 1.399 1_554 S
C107 C106 1.394 . S
C107 C108 1.516 1_554 S
C108 C107 1.516 1_556 S
C108 C109 1.502 . S
C108 C110 1.561 . S
C108 C111 1.526 1_556 S
C109 H93 0.959 . S
C109 H94 0.959 . S
C109 H95 0.961 . S
C109 C108 1.502 . S
C110 H96 0.960 . S
C110 H97 0.961 . S
C110 H98 0.959 . S
C110 C108 1.561 . S
C111 C108 1.526 1_554 S
C111 C112 1.396 . S
C111 C116 1.390 . S
C112 C106 1.465 . S
C112 C111 1.396 . S
C112 C113 1.399 . S
C113 H99 0.929 . S
C113 C112 1.399 . S
C113 C114 1.385 . S
C114 H100 0.931 . S
C114 C113 1.385 . S
C114 C115 1.389 . S
C115 C114 1.389 . S
C115 C116 1.387 . S
C116 H101 0.930 1_554 S
C116 C111 1.390 . S
C116 C115 1.387 . S
H117 C129 0.930 . S
H118 C131 0.930 . S
H119 C132 0.930 . S
H120 C136 0.959 . S
H121 C136 0.959 . S
H122 C136 0.961 . S
H123 C137 0.960 . S
H124 C137 0.961 . S
H125 C137 0.959 . S
H126 C140 0.929 . S
H127 C141 0.931 . S
H128 C143 0.930 . S
C129 H117 0.930 . S
C129 C130 1.399 . S
C129 C134 1.399 . S
C130 C129 1.399 . S
C130 C131 1.376 1_554 S
C131 H118 0.930 . S
C131 C130 1.376 1_556 S
C131 C132 1.388 . S
C132 H119 0.930 . S
C132 C131 1.388 . S
C132 C133 1.390 . S
C133 C132 1.390 . S
C133 C134 1.394 1_556 S
C133 C139 1.465 . S
C134 C129 1.399 . S
C134 C133 1.394 1_554 S
C134 C135 1.516 . S
C135 C134 1.516 . S
C135 C136 1.502 . S
C135 C137 1.561 . S
C135 C138 1.526 . S
C136 H120 0.959 . S
C136 H121 0.959 . S
C136 H122 0.961 . S
C136 C135 1.502 . S
C137 H123 0.960 . S
C137 H124 0.961 . S
C137 H125 0.959 . S
C137 C135 1.561 . S
C138 C135 1.526 . S
C138 C139 1.396 1_554 S
C138 C143 1.390 . S
C139 C133 1.465 . S
C139 C138 1.396 1_556 S
C139 C140 1.399 . S
C140 H126 0.929 . S
C140 C139 1.399 . S
C140 C141 1.385 . S
C141 H127 0.931 . S
C141 C140 1.385 . S
C141 C142 1.389 . S
C142 C141 1.389 . S
C142 C143 1.387 1_556 S
C143 H128 0.930 . S
C143 C138 1.390 . S
C143 C142 1.387 1_554 S
H144 C156 0.930 . S
H145 C158 0.930 . S
H146 C159 0.930 . S
H147 C163 0.959 . S
H148 C163 0.959 . S
H149 C163 0.961 . S
H150 C164 0.960 . S
H151 C164 0.961 . S
H152 C164 0.959 . S
H153 C167 0.929 . S
H154 C168 0.931 . S
H155 C170 0.926 1_556 S
C156 H144 0.930 . S
C156 C157 1.399 1_556 S
C156 C161 1.399 1_556 S
C157 C156 1.399 1_554 S
C157 C158 1.376 . S
C158 H145 0.930 . S
C158 C157 1.376 . S
C158 C159 1.388 . S
C159 H146 0.930 . S
C159 C158 1.388 . S
C159 C160 1.390 . S
C160 C159 1.390 . S
C160 C161 1.394 . S
C160 C166 1.465 . S
C161 C156 1.399 1_554 S
C161 C160 1.394 . S
C161 C162 1.516 1_554 S
C162 C161 1.516 1_556 S
C162 C163 1.502 . S
C162 C164 1.561 1_556 S
C162 C165 1.526 1_556 S
C163 H147 0.959 . S
C163 H148 0.959 . S
C163 H149 0.961 . S
C163 C162 1.502 . S
C164 H150 0.960 . S
C164 H151 0.961 . S
C164 H152 0.959 . S
C164 C162 1.561 1_554 S
C165 C162 1.526 1_554 S
C165 C166 1.396 . S
C165 C170 1.390 . S
C166 C160 1.465 . S
C166 C165 1.396 . S
C166 C167 1.399 . S
C167 H153 0.929 . S
C167 C166 1.399 . S
C167 C168 1.385 . S
C168 H154 0.931 . S
C168 C167 1.385 . S
C168 C169 1.389 . S
C169 C168 1.389 . S
C169 C170 1.387 . S
C170 H155 0.926 1_554 S
C170 C165 1.390 . S
C170 C169 1.387 . S
H171 C183 0.930 . S
H172 C185 0.930 . S
H173 C186 0.930 . S
H174 C190 0.959 . S
H175 C190 0.959 . S
H176 C190 0.961 . S
H177 C191 0.960 . S
H178 C191 0.961 . S
H179 C191 0.959 . S
H180 C194 0.929 . S
H181 C195 0.931 . S
H182 C197 0.930 1_554 S
C183 H171 0.930 . S
C183 C184 1.399 1_554 S
C183 C188 1.399 1_554 S
C184 C183 1.399 1_556 S
C184 C185 1.376 . S
C185 H172 0.930 . S
C185 C184 1.376 . S
C185 C186 1.388 . S
C186 H173 0.930 . S
C186 C185 1.388 . S
C186 C187 1.390 . S
C187 C186 1.390 . S
C187 C188 1.394 . S
C187 C193 1.465 . S
C188 C183 1.399 1_556 S
C188 C187 1.394 . S
C188 C189 1.516 1_556 S
C189 C188 1.516 1_554 S
C189 C190 1.502 . S
C189 C191 1.561 . S
C189 C192 1.526 1_554 S
C190 H174 0.959 . S
C190 H175 0.959 . S
C190 H176 0.961 . S
C190 C189 1.502 . S
C191 H177 0.960 . S
C191 H178 0.961 . S
C191 H179 0.959 . S
C191 C189 1.561 . S
C192 C189 1.526 1_556 S
C192 C193 1.396 . S
C192 C197 1.390 . S
C193 C187 1.465 . S
C193 C192 1.396 . S
C193 C194 1.399 . S
C194 H180 0.929 . S
C194 C193 1.399 . S
C194 C195 1.385 . S
C195 H181 0.931 . S
C195 C194 1.385 . S
C195 C196 1.389 . S
C196 C195 1.389 . S
C196 C197 1.387 . S
C197 H182 0.930 1_556 S
C197 C192 1.390 . S
C197 C196 1.387 . S
H198 C210 0.930 . S
H199 C212 0.930 . S
H200 C213 0.930 . S
H201 C217 0.959 . S
H202 C217 0.959 . S
H203 C217 0.961 . S
H204 C218 0.960 . S
H205 C218 0.961 . S
H206 C218 0.959 . S
H207 C221 0.929 . S
H208 C222 0.931 . S
H209 C224 0.930 . S
C210 H198 0.930 . S
C210 C211 1.399 . S
C210 C215 1.399 . S
C211 C210 1.399 . S
C211 C212 1.376 . S
C212 H199 0.930 . S
C212 C211 1.376 . S
C212 C213 1.388 . S
C213 H200 0.930 . S
C213 C212 1.388 . S
C213 C214 1.390 . S
C214 C213 1.390 . S
C214 C215 1.394 . S
C214 C220 1.465 . S
C215 C210 1.399 . S
C215 C214 1.394 . S
C215 C216 1.516 . S
C216 C215 1.516 . S
C216 C217 1.502 . S
C216 C218 1.561 . S
C216 C219 1.526 . S
C217 H201 0.959 . S
C217 H202 0.959 . S
C217 H203 0.961 . S
C217 C216 1.502 . S
C218 H204 0.960 . S
C218 H205 0.961 . S
C218 H206 0.959 . S
C218 C216 1.561 . S
C219 C216 1.526 . S
C219 C220 1.396 . S
C219 C224 1.390 . S
C220 C214 1.465 . S
C220 C219 1.396 . S
C220 C221 1.399 . S
C221 H207 0.929 . S
C221 C220 1.399 . S
C221 C222 1.385 . S
C222 H208 0.931 . S
C222 C221 1.385 . S
C222 C223 1.389 . S
C223 C222 1.389 . S
C223 C224 1.387 . S
C224 H209 0.930 . S
C224 C219 1.390 . S
C224 C223 1.387 . S
H225 C237 0.930 . S
H226 C239 0.930 . S
H227 C240 0.930 . S
H228 C244 0.959 . S
H229 C244 0.959 . S
H230 C244 0.961 . S
H231 C245 0.960 . S
H232 C245 0.961 . S
H233 C245 0.959 . S
H234 C248 0.929 . S
H235 C249 0.931 . S
H236 C251 0.930 . S
C237 H225 0.930 . S
C237 C238 1.399 . S
C237 C242 1.399 . S
C238 C237 1.399 . S
C238 C239 1.376 . S
C239 H226 0.930 . S
C239 C238 1.376 . S
C239 C240 1.388 . S
C240 H227 0.930 . S
C240 C239 1.388 . S
C240 C241 1.390 . S
C241 C240 1.390 . S
C241 C242 1.394 . S
C241 C247 1.465 . S
C242 C237 1.399 . S
C242 C241 1.394 . S
C242 C243 1.516 . S
C243 C242 1.516 . S
C243 C244 1.502 . S
C243 C245 1.561 . S
C243 C246 1.526 . S
C244 H228 0.959 . S
C244 H229 0.959 . S
C244 H230 0.961 . S
C244 C243 1.502 . S
C245 H231 0.960 . S
C245 H232 0.961 . S
C245 H233 0.959 . S
C245 C243 1.561 . S
C246 C243 1.526 . S
C246 C247 1.396 . S
C246 C251 1.390 . S
C247 C241 1.465 . S
C247 C246 1.396 . S
C247 C248 1.399 . S
C248 H234 0.929 . S
C248 C247 1.399 . S
C248 C249 1.385 . S
C249 H235 0.931 . S
C249 C248 1.385 . S
C249 C250 1.389 . S
C250 C249 1.389 . S
C250 C251 1.387 . S
C251 H236 0.930 . S
C251 C246 1.390 . S
C251 C250 1.387 . S
H252 C264 0.930 . S
H253 C266 0.930 . S
H254 C267 0.930 . S
H255 C271 0.959 . S
H256 C271 0.959 . S
H257 C271 0.961 . S
H258 C272 0.960 . S
H259 C272 0.961 . S
H260 C272 0.959 . S
H261 C275 0.929 . S
H262 C276 0.931 . S
H263 C278 0.930 . S
C264 H252 0.930 . S
C264 C265 1.399 . S
C264 C269 1.399 . S
C265 C264 1.399 . S
C265 C266 1.376 . S
C266 H253 0.930 . S
C266 C265 1.376 . S
C266 C267 1.388 . S
C267 H254 0.930 . S
C267 C266 1.388 . S
C267 C268 1.390 . S
C268 C267 1.390 . S
C268 C269 1.394 . S
C268 C274 1.465 . S
C269 C264 1.399 . S
C269 C268 1.394 . S
C269 C270 1.516 . S
C270 C269 1.516 . S
C270 C271 1.502 . S
C270 C272 1.561 . S
C270 C273 1.526 . S
C271 H255 0.959 . S
C271 H256 0.959 . S
C271 H257 0.961 . S
C271 C270 1.502 . S
C272 H258 0.960 . S
C272 H259 0.961 . S
C272 H260 0.959 . S
C272 C270 1.561 . S
C273 C270 1.526 . S
C273 C274 1.396 . S
C273 C278 1.390 . S
C274 C268 1.465 . S
C274 C273 1.396 . S
C274 C275 1.399 . S
C275 H261 0.929 . S
C275 C274 1.399 . S
C275 C276 1.385 . S
C276 H262 0.931 . S
C276 C275 1.385 . S
C276 C277 1.389 . S
C277 C276 1.389 . S
C277 C278 1.387 . S
C278 H263 0.930 . S
C278 C273 1.390 . S
C278 C277 1.387 . S
H279 C291 0.930 . S
H280 C293 0.930 . S
H281 C294 0.930 . S
H282 C298 0.959 . S
H283 C298 0.959 . S
H284 C298 0.961 . S
H285 C299 0.960 . S
H286 C299 0.961 . S
H287 C299 0.959 . S
H288 C302 0.929 . S
H289 C303 0.931 . S
H290 C305 0.930 . S
C291 H279 0.930 . S
C291 C292 1.399 . S
C291 C296 1.399 . S
C292 C291 1.399 . S
C292 C293 1.376 . S
C293 H280 0.930 . S
C293 C292 1.376 . S
C293 C294 1.388 . S
C294 H281 0.930 . S
C294 C293 1.388 . S
C294 C295 1.390 . S
C295 C294 1.390 . S
C295 C296 1.394 . S
C295 C301 1.465 . S
C296 C291 1.399 . S
C296 C295 1.394 . S
C296 C297 1.516 . S
C297 C296 1.516 . S
C297 C298 1.502 . S
C297 C299 1.561 . S
C297 C300 1.526 . S
C298 H282 0.959 . S
C298 H283 0.959 . S
C298 H284 0.961 . S
C298 C297 1.502 . S
C299 H285 0.960 . S
C299 H286 0.961 . S
C299 H287 0.959 . S
C299 C297 1.561 . S
C300 C297 1.526 . S
C300 C301 1.396 . S
C300 C305 1.390 . S
C301 C295 1.465 . S
C301 C300 1.396 . S
C301 C302 1.399 . S
C302 H288 0.929 . S
C302 C301 1.399 . S
C302 C303 1.385 . S
C303 H289 0.931 . S
C303 C302 1.385 . S
C303 C304 1.389 . S
C304 C303 1.389 . S
C304 C305 1.387 . S
C305 H290 0.930 . S
C305 C300 1.390 . S
C305 C304 1.387 . S
H306 C318 0.930 . S
H307 C320 0.930 . S
H308 C321 0.930 1_655 S
H309 C325 0.959 . S
H310 C325 0.959 . S
H311 C325 0.961 . S
H312 C326 0.960 . S
H313 C326 0.961 . S
H314 C326 0.959 . S
H315 C329 0.929 1_655 S
H316 C330 0.931 . S
H317 C332 0.930 . S
C318 H306 0.930 . S
C318 C319 1.399 1_545 S
C318 C323 1.399 . S
C319 C318 1.399 1_565 S
C319 C320 1.376 . S
C320 H307 0.930 . S
C320 C319 1.376 . S
C320 C321 1.388 . S
C321 H308 0.930 1_455 S
C321 C320 1.388 . S
C321 C322 1.390 . S
C322 C321 1.390 . S
C322 C323 1.394 1_565 S
C322 C328 1.465 . S
C323 C318 1.399 . S
C323 C322 1.394 1_545 S
C323 C324 1.516 . S
C324 C323 1.516 . S
C324 C325 1.502 . S
C324 C326 1.561 . S
C324 C327 1.526 . S
C325 H309 0.959 . S
C325 H310 0.959 . S
C325 H311 0.961 . S
C325 C324 1.502 . S
C326 H312 0.960 . S
C326 H313 0.961 . S
C326 H314 0.959 . S
C326 C324 1.561 . S
C327 C324 1.526 . S
C327 C328 1.396 1_545 S
C327 C332 1.390 . S
C328 C322 1.465 . S
C328 C327 1.396 1_565 S
C328 C329 1.399 . S
C329 H315 0.929 1_455 S
C329 C328 1.399 . S
C329 C330 1.385 . S
C330 H316 0.931 . S
C330 C329 1.385 . S
C330 C331 1.389 . S
C331 C330 1.389 . S
C331 C332 1.387 1_565 S
C332 H317 0.930 . S
C332 C327 1.390 . S
C332 C331 1.387 1_545 S
H333 C345 0.930 . S
H334 C347 0.930 . S
H335 C348 0.930 . S
H336 C352 0.959 . S
H337 C352 0.959 . S
H338 C352 0.961 . S
H339 C353 0.960 . S
H340 C353 0.961 . S
H341 C353 0.959 . S
H342 C356 0.929 . S
H343 C357 0.931 . S
H344 C359 0.930 1_565 S
C345 H333 0.930 . S
C345 C346 1.399 1_565 S
C345 C350 1.399 1_565 S
C346 C345 1.399 1_545 S
C346 C347 1.376 . S
C347 H334 0.930 . S
C347 C346 1.376 . S
C347 C348 1.388 1_455 S
C348 H335 0.930 . S
C348 C347 1.388 1_655 S
C348 C349 1.390 1_655 S
C349 C348 1.390 1_455 S
C349 C350 1.394 . S
C349 C355 1.465 1_455 S
C350 C345 1.399 1_545 S
C350 C349 1.394 . S
C350 C351 1.516 1_545 S
C351 C350 1.516 1_565 S
C351 C352 1.502 . S
C351 C353 1.561 1_455 S
C351 C354 1.526 1_565 S
C352 H336 0.959 . S
C352 H337 0.959 . S
C352 H338 0.961 . S
C352 C351 1.502 . S
C353 H339 0.960 . S
C353 H340 0.961 . S
C353 H341 0.959 . S
C353 C351 1.561 1_655 S
C354 C351 1.526 1_545 S
C354 C355 1.396 1_455 S
C354 C359 1.390 . S
C355 C349 1.465 1_655 S
C355 C354 1.396 1_655 S
C355 C356 1.399 . S
C356 H342 0.929 . S
C356 C355 1.399 . S
C356 C357 1.385 . S
C357 H343 0.931 . S
C357 C356 1.385 . S
C357 C358 1.389 . S
C358 C357 1.389 . S
C358 C359 1.387 1_655 S
C359 H344 0.930 1_545 S
C359 C354 1.390 . S
C359 C358 1.387 1_455 S
H360 C372 0.930 . S
H361 C374 0.930 . S
H362 C375 0.930 . S
H363 C379 0.959 . S
H364 C379 0.959 . S
H365 C379 0.961 . S
H366 C380 0.960 . S
H367 C380 0.961 . S
H368 C380 0.959 . S
H369 C383 0.929 . S
H370 C384 0.931 . S
H371 C386 0.930 . S
C372 H360 0.930 . S
C372 C373 1.399 . S
C372 C377 1.399 . S
C373 C372 1.399 . S
C373 C374 1.376 . S
C374 H361 0.930 . S
C374 C373 1.376 . S
C374 C375 1.388 . S
C375 H362 0.930 . S
C375 C374 1.388 . S
C375 C376 1.390 . S
C376 C375 1.390 . S
C376 C377 1.394 . S
C376 C382 1.465 . S
C377 C372 1.399 . S
C377 C376 1.394 . S
C377 C378 1.516 . S
C378 C377 1.516 . S
C378 C379 1.502 . S
C378 C380 1.561 . S
C378 C381 1.526 . S
C379 H363 0.959 . S
C379 H364 0.959 . S
C379 H365 0.961 . S
C379 C378 1.502 . S
C380 H366 0.960 . S
C380 H367 0.961 . S
C380 H368 0.959 . S
C380 C378 1.561 . S
C381 C378 1.526 . S
C381 C382 1.396 . S
C381 C386 1.390 . S
C382 C376 1.465 . S
C382 C381 1.396 . S
C382 C383 1.399 . S
C383 H369 0.929 . S
C383 C382 1.399 . S
C383 C384 1.385 . S
C384 H370 0.931 . S
C384 C383 1.385 . S
C384 C385 1.389 . S
C385 C384 1.389 . S
C385 C386 1.387 . S
C386 H371 0.930 . S
C386 C381 1.390 . S
C386 C385 1.387 . S
H387 C399 0.930 . S
H388 C401 0.930 . S
H389 C402 0.930 . S
H390 C406 0.959 . S
H391 C406 0.959 . S
H392 C406 0.961 . S
H393 C407 0.960 . S
H394 C407 0.961 . S
H395 C407 0.959 . S
H396 C410 0.929 . S
H397 C411 0.931 . S
H398 C413 0.930 . S
C399 H387 0.930 . S
C399 C400 1.399 . S
C399 C404 1.399 . S
C400 C399 1.399 . S
C400 C401 1.376 . S
C401 H388 0.930 . S
C401 C400 1.376 . S
C401 C402 1.388 . S
C402 H389 0.930 . S
C402 C401 1.388 . S
C402 C403 1.390 . S
C403 C402 1.390 . S
C403 C404 1.394 . S
C403 C409 1.465 . S
C404 C399 1.399 . S
C404 C403 1.394 . S
C404 C405 1.516 . S
C405 C404 1.516 . S
C405 C406 1.502 . S
C405 C407 1.561 . S
C405 C408 1.526 . S
C406 H390 0.959 . S
C406 H391 0.959 . S
C406 H392 0.961 . S
C406 C405 1.502 . S
C407 H393 0.960 . S
C407 H394 0.961 . S
C407 H395 0.959 . S
C407 C405 1.561 . S
C408 C405 1.526 . S
C408 C409 1.396 . S
C408 C413 1.390 . S
C409 C403 1.465 . S
C409 C408 1.396 . S
C409 C410 1.399 . S
C410 H396 0.929 . S
C410 C409 1.399 . S
C410 C411 1.385 . S
C411 H397 0.931 . S
C411 C410 1.385 . S
C411 C412 1.389 . S
C412 C411 1.389 . S
C412 C413 1.387 . S
C413 H398 0.930 . S
C413 C408 1.390 . S
C413 C412 1.387 . S
C115 C84 1.428 . S
C103 C16 1.306 . S
C130 C15 1.441 . S
C142 C70 1.356 . S
C157 C13 1.278 1_554 S
C169 C82 1.391 . S
C184 C14 1.433 . S
C196 C72 1.431 . S
C211 C37 1.312 . S
C223 C60 1.431 . S
C238 C36 1.396 . S
C250 C46 1.428 . S
C277 C58 1.424 . S
C265 C34 1.210 . S
C304 C48 1.470 . S
C292 C35 1.414 . S
C319 C17 1.604 1_565 S
C331 C51 1.610 . S
C346 C18 1.371 . S
C358 C63 1.434 . S
C385 C75 1.616 . S
C373 C38 1.544 . S
C400 C39 1.413 . S
C412 C87 1.399 . S
