# Generated by pormake.
# Topology nom, (4,4)-cn, num edge types: 1
# Building blocks:
#     Node 0, Type 0, BuildingBlock: AZAVOO_clean_linker_0, # of connection points: 4
#     Node 1, Type 0, BuildingBlock: AZAVOO_clean_linker_0, # of connection points: 4
#     Node 2, Type 0, BuildingBlock: AZAVOO_clean_linker_0, # of connection points: 4
#     Node 3, Type 0, BuildingBlock: AZAVOO_clean_linker_0, # of connection points: 4
#     Node 4, Type 0, BuildingBlock: AZAVOO_clean_linker_0, # of connection points: 4
#     Node 5, Type 0, BuildingBlock: AZAVOO_clean_linker_0, # of connection points: 4
#     Node 6, Type 1, BuildingBlock: AZAVOO_clean_sbu_0, # of connection points: 4
#     Node 7, Type 1, BuildingBlock: AZAVOO_clean_sbu_0, # of connection points: 4
#     Node 8, Type 1, BuildingBlock: AZAVOO_clean_sbu_0, # of connection points: 4
#     Node 9, Type 1, BuildingBlock: AZAVOO_clean_sbu_0, # of connection points: 4
#     Node 10, Type 1, BuildingBlock: AZAVOO_clean_sbu_0, # of connection points: 4
#     Node 11, Type 1, BuildingBlock: AZAVOO_clean_sbu_0, # of connection points: 4
#     Edge 12, Type (0, 1), BuildingBlock: TEMPAE_clean_linker_10, # of connection points: 2
#     Edge 13, Type (0, 1), BuildingBlock: TEMPAE_clean_linker_10, # of connection points: 2
#     Edge 14, Type (0, 1), BuildingBlock: TEMPAE_clean_linker_10, # of connection points: 2
#     Edge 15, Type (0, 1), BuildingBlock: TEMPAE_clean_linker_10, # of connection points: 2
#     Edge 16, Type (0, 1), BuildingBlock: TEMPAE_clean_linker_10, # of connection points: 2
#     Edge 17, Type (0, 1), BuildingBlock: TEMPAE_clean_linker_10, # of connection points: 2
#     Edge 18, Type (0, 1), BuildingBlock: TEMPAE_clean_linker_10, # of connection points: 2
#     Edge 19, Type (0, 1), BuildingBlock: TEMPAE_clean_linker_10, # of connection points: 2
#     Edge 20, Type (0, 1), BuildingBlock: TEMPAE_clean_linker_10, # of connection points: 2
#     Edge 21, Type (0, 1), BuildingBlock: TEMPAE_clean_linker_10, # of connection points: 2
#     Edge 22, Type (0, 1), BuildingBlock: TEMPAE_clean_linker_10, # of connection points: 2
#     Edge 23, Type (0, 1), BuildingBlock: TEMPAE_clean_linker_10, # of connection points: 2
#     Edge 24, Type (0, 1), BuildingBlock: TEMPAE_clean_linker_10, # of connection points: 2
#     Edge 25, Type (0, 1), BuildingBlock: TEMPAE_clean_linker_10, # of connection points: 2
#     Edge 26, Type (0, 1), BuildingBlock: TEMPAE_clean_linker_10, # of connection points: 2
#     Edge 27, Type (0, 1), BuildingBlock: TEMPAE_clean_linker_10, # of connection points: 2
#     Edge 28, Type (0, 1), BuildingBlock: TEMPAE_clean_linker_10, # of connection points: 2
#     Edge 29, Type (0, 1), BuildingBlock: TEMPAE_clean_linker_10, # of connection points: 2
#     Edge 30, Type (0, 1), BuildingBlock: TEMPAE_clean_linker_10, # of connection points: 2
#     Edge 31, Type (0, 1), BuildingBlock: TEMPAE_clean_linker_10, # of connection points: 2
#     Edge 32, Type (0, 1), BuildingBlock: TEMPAE_clean_linker_10, # of connection points: 2
#     Edge 33, Type (0, 1), BuildingBlock: TEMPAE_clean_linker_10, # of connection points: 2
#     Edge 34, Type (0, 1), BuildingBlock: TEMPAE_clean_linker_10, # of connection points: 2
#     Edge 35, Type (0, 1), BuildingBlock: TEMPAE_clean_linker_10, # of connection points: 2
# Relax obj value: 0.192
# Max RMSD: 0.231
# Mean RMSD: 0.192
data_MOF--net-nom--node1-AZAVOO_clean_sbu_0--node2-AZAVOO_clean_linker_0--edge1-TEMPAE_clean_linker_10
_symmetry_space_group_name_H-M    P1
_symmetry_Int_Tables_number       1
_symmetry_cell_setting            triclinic
loop_
_symmetry_equiv_pos_as_xyz
'x, y, z'
_cell_length_a     48.204406
_cell_length_b     50.103343
_cell_length_c     58.63143
_cell_angle_alpha  90.812356
_cell_angle_beta   90.731789
_cell_angle_gamma 120.95382
loop_
_atom_site_label
_atom_site_type_symbol
_atom_site_fract_x
_atom_site_fract_y
_atom_site_fract_z
_atom_type_partial_charge
H0 H 0.08575 0.44474 0.17323 0.0
H1 H 0.24073 0.63028 0.39556 0.0
H2 H 0.01249 0.41765 0.28427 0.0
H3 H 0.97223 0.392 0.25334 0.0
H4 H 0.951 0.46588 0.25667 0.0
H5 H 0.99178 0.49166 0.28739 0.0
H6 H 0.08955 0.45593 0.27283 0.0
H7 H 0.09243 0.44628 0.23213 0.0
H8 H 0.04875 0.5007 0.21587 0.0
H9 H 0.04653 0.51059 0.25657 0.0
H10 H 0.149 0.50524 0.31015 0.0
H11 H 0.20288 0.5436 0.29686 0.0
H12 H 0.16177 0.59065 0.26118 0.0
H13 H 0.10875 0.55366 0.27575 0.0
H14 H 0.11847 0.49141 0.36016 0.0
H15 H 0.16621 0.52252 0.38489 0.0
H16 H 0.17995 0.60644 0.35435 0.0
H17 H 0.13188 0.57507 0.32996 0.0
H18 H 0.04634 0.45872 0.37416 0.0
H19 H 0.06249 0.47313 0.41446 0.0
H20 H 0.09337 0.56861 0.40024 0.0
H21 H 0.07633 0.55398 0.36024 0.0
H22 H 0.97964 0.42259 0.33006 0.0
H23 H 0.92514 0.40878 0.34184 0.0
H24 H 0.95974 0.50572 0.35653 0.0
H25 H 0.01343 0.51957 0.34375 0.0
O26 O 0.08463 0.44906 0.18921 0.0
O27 O 0.06184 0.47701 0.18179 0.0
O28 O 0.2147 0.57348 0.40018 0.0
O29 O 0.22199 0.61741 0.38578 0.0
C30 C 0.03456 0.47535 0.3027 0.0
C31 C 0.06519 0.48881 0.29242 0.0
C32 C 0.09366 0.50783 0.3055 0.0
C33 C 0.09176 0.51199 0.32916 0.0
C34 C 0.06123 0.49917 0.33945 0.0
C35 C 0.03248 0.48146 0.32614 0.0
C36 C 0.00507 0.45651 0.28808 0.0
C37 C 0.99848 0.42782 0.27875 0.0
C38 C 0.9755 0.41323 0.26106 0.0
C39 C 0.95873 0.42712 0.25236 0.0
C40 C 0.96391 0.45487 0.26277 0.0
C41 C 0.98686 0.46942 0.28052 0.0
C42 C 0.06754 0.48367 0.26764 0.0
C43 C 0.08074 0.46583 0.26043 0.0
C44 C 0.08228 0.4603 0.23718 0.0
C45 C 0.07068 0.4726 0.22074 0.0
C46 C 0.05778 0.49078 0.22807 0.0
C47 C 0.05637 0.49637 0.25131 0.0
C48 C 0.12501 0.52681 0.29405 0.0
C49 C 0.15168 0.52365 0.29923 0.0
C50 C 0.18238 0.54549 0.29153 0.0
C51 C 0.18671 0.57051 0.27829 0.0
C52 C 0.15944 0.57215 0.27184 0.0
C53 C 0.12899 0.55073 0.27984 0.0
C54 C 0.12183 0.53098 0.34322 0.0
C55 C 0.13192 0.51651 0.35878 0.0
C56 C 0.15918 0.53433 0.37288 0.0
C57 C 0.17692 0.56699 0.37158 0.0
C58 C 0.16686 0.58137 0.35578 0.0
C59 C 0.13952 0.56351 0.34175 0.0
C60 C 0.06037 0.50533 0.36425 0.0
C61 C 0.05512 0.48243 0.37997 0.0
C62 C 0.06455 0.49072 0.40291 0.0
C63 C 0.07958 0.52204 0.41025 0.0
C64 C 0.08205 0.54437 0.39491 0.0
C65 C 0.07211 0.53599 0.37214 0.0
C66 C 0.00061 0.47212 0.33605 0.0
C67 C 0.9755 0.4408 0.33601 0.0
C68 C 0.94451 0.43292 0.34279 0.0
C69 C 0.93845 0.4562 0.35022 0.0
C70 C 0.96395 0.48731 0.35123 0.0
C71 C 0.99463 0.49522 0.34398 0.0
C72 C 0.07207 0.46644 0.19607 0.0
C73 C 0.20566 0.58603 0.38672 0.0
H74 H 0.54442 0.06413 0.35056 0.0
H75 H 0.51465 0.20412 0.57623 0.0
H76 H 0.52566 0.00231 0.47088 0.0
H77 H 0.5244 0.96665 0.44146 0.0
H78 H 0.4218 0.92871 0.43096 0.0
H79 H 0.42333 0.96461 0.46067 0.0
H80 H 0.54586 0.06928 0.45035 0.0
H81 H 0.55513 0.07243 0.40926 0.0
H82 H 0.45171 0.02181 0.39624 0.0
H83 H 0.44284 0.01916 0.43737 0.0
H84 H 0.55445 0.11981 0.48719 0.0
H85 H 0.57112 0.17 0.46998 0.0
H86 H 0.47462 0.13214 0.44137 0.0
H87 H 0.45826 0.08202 0.4586 0.0
H88 H 0.54555 0.09687 0.53627 0.0
H89 H 0.56102 0.14272 0.5606 0.0
H90 H 0.47487 0.14191 0.5379 0.0
H91 H 0.45963 0.09595 0.5137 0.0
H92 H 0.52015 0.02586 0.54607 0.0
H93 H 0.53255 0.04005 0.58669 0.0
H94 H 0.45478 0.05872 0.58974 0.0
H95 H 0.4421 0.0442 0.54909 0.0
H96 H 0.49352 0.96805 0.51105 0.0
H97 H 0.4627 0.91471 0.52486 0.0
H98 H 0.38178 0.92692 0.53788 0.0
H99 H 0.41225 0.97957 0.52325 0.0
O100 O 0.54022 0.063 0.36672 0.0
O101 O 0.48686 0.03678 0.36096 0.0
O102 O 0.55262 0.18488 0.57828 0.0
O103 O 0.50924 0.18615 0.56661 0.0
C104 C 0.47746 0.01199 0.48202 0.0
C105 C 0.48823 0.04096 0.4717 0.0
C106 C 0.49473 0.06718 0.48513 0.0
C107 C 0.49177 0.06476 0.50903 0.0
C108 C 0.48024 0.03558 0.51934 0.0
C109 C 0.472 0.00891 0.50572 0.0
C110 C 0.47458 0.9859 0.4679 0.0
C111 C 0.50273 0.98561 0.46272 0.0
C112 C 0.50195 0.96522 0.44594 0.0
C113 C 0.47302 0.945 0.43386 0.0
C114 C 0.44445 0.9442 0.43994 0.0
C115 C 0.4452 0.96445 0.45696 0.0
C116 C 0.49371 0.04397 0.44677 0.0
C117 C 0.52528 0.05911 0.43857 0.0
C118 C 0.53048 0.06077 0.4151 0.0
C119 C 0.50415 0.04728 0.39946 0.0
C120 C 0.47252 0.03239 0.40781 0.0
C121 C 0.46737 0.03083 0.43127 0.0
C122 C 0.50514 0.09736 0.47419 0.0
C123 C 0.53694 0.12243 0.47724 0.0
C124 C 0.54635 0.15107 0.46749 0.0
C125 C 0.52413 0.15507 0.4544 0.0
C126 C 0.49236 0.12972 0.45119 0.0
C127 C 0.48295 0.10113 0.46103 0.0
C128 C 0.50141 0.09305 0.52334 0.0
C129 C 0.53005 0.10662 0.53661 0.0
C130 C 0.53882 0.13281 0.55048 0.0
C131 C 0.51909 0.1459 0.55128 0.0
C132 C 0.49056 0.13238 0.53773 0.0
C133 C 0.48182 0.10618 0.52386 0.0
C134 C 0.48035 0.03417 0.54462 0.0
C135 C 0.50479 0.03158 0.55571 0.0
C136 C 0.51197 0.03981 0.57882 0.0
C137 C 0.49456 0.0504 0.59108 0.0
C138 C 0.46823 0.05029 0.58054 0.0
C139 C 0.46099 0.04199 0.55742 0.0
C140 C 0.45499 0.97757 0.51588 0.0
C141 C 0.46911 0.95912 0.51682 0.0
C142 C 0.45154 0.92875 0.52489 0.0
C143 C 0.41961 0.9164 0.53226 0.0
C144 C 0.40602 0.93542 0.5319 0.0
C145 C 0.42352 0.96563 0.52376 0.0
C146 C 0.50975 0.04866 0.37455 0.0
C147 C 0.52811 0.17348 0.56621 0.0
H148 H 0.6077 0.53427 0.75959 0.0
H149 H 0.60023 0.41323 0.50967 0.0
H150 H 0.59869 0.59551 0.64823 0.0
H151 H 0.58798 0.61993 0.68062 0.0
H152 H 0.4853 0.55603 0.67033 0.0
H153 H 0.49632 0.53193 0.63774 0.0
H154 H 0.62097 0.54756 0.66073 0.0
H155 H 0.62529 0.54629 0.70229 0.0
H156 H 0.5209 0.49524 0.70578 0.0
H157 H 0.51696 0.49633 0.66418 0.0
H158 H 0.63214 0.50873 0.62493 0.0
H159 H 0.64173 0.47134 0.64501 0.0
H160 H 0.53934 0.41446 0.65727 0.0
H161 H 0.5301 0.45185 0.6374 0.0
H162 H 0.63305 0.53536 0.57652 0.0
H163 H 0.65021 0.51145 0.54763 0.0
H164 H 0.55857 0.42518 0.55247 0.0
H165 H 0.54169 0.44949 0.58132 0.0
H166 H 0.60814 0.57719 0.56323 0.0
H167 H 0.62258 0.57459 0.52371 0.0
H168 H 0.53619 0.484 0.51481 0.0
H169 H 0.52193 0.48683 0.55426 0.0
H170 H 0.56565 0.60457 0.60364 0.0
H171 H 0.52827 0.6227 0.59445 0.0
H172 H 0.45865 0.53109 0.56746 0.0
H173 H 0.49536 0.51294 0.57732 0.0
O174 O 0.60544 0.53413 0.74317 0.0
O175 O 0.55169 0.50808 0.74403 0.0
O176 O 0.64167 0.4674 0.52049 0.0
O177 O 0.59457 0.4228 0.52178 0.0
C178 C 0.55556 0.54316 0.62492 0.0
C179 C 0.56629 0.52409 0.63433 0.0
C180 C 0.57445 0.50658 0.6199 0.0
C181 C 0.57443 0.51002 0.59615 0.0
C182 C 0.56288 0.52845 0.58664 0.0
C183 C 0.55204 0.544 0.60098 0.0
C184 C 0.54827 0.56198 0.64071 0.0
C185 C 0.57386 0.58741 0.65259 0.0
C186 C 0.56772 0.60109 0.67119 0.0
C187 C 0.53584 0.58957 0.67821 0.0
C188 C 0.5101 0.5655 0.66525 0.0
C189 C 0.5163 0.55175 0.64662 0.0
C190 C 0.56868 0.5222 0.6595 0.0
C191 C 0.59909 0.53595 0.67051 0.0
C192 C 0.60147 0.53527 0.69425 0.0
C193 C 0.57344 0.52078 0.70737 0.0
C194 C 0.54297 0.50668 0.6962 0.0
C195 C 0.54064 0.5073 0.67246 0.0
C196 C 0.58046 0.48294 0.62982 0.0
C197 C 0.61182 0.48794 0.63169 0.0
C198 C 0.61721 0.46662 0.64312 0.0
C199 C 0.59129 0.44017 0.65289 0.0
C200 C 0.55983 0.43487 0.65025 0.0
C201 C 0.55448 0.45605 0.63881 0.0
C202 C 0.58617 0.49412 0.58097 0.0
C203 C 0.61692 0.51117 0.57154 0.0
C204 C 0.62659 0.4975 0.55497 0.0
C205 C 0.60564 0.46646 0.5476 0.0
C206 C 0.57522 0.44916 0.55768 0.0
C207 C 0.56559 0.46288 0.57427 0.0
C208 C 0.56404 0.53219 0.56159 0.0
C209 C 0.5915 0.55752 0.55239 0.0
C210 C 0.59994 0.5558 0.52994 0.0
C211 C 0.5808 0.52884 0.51639 0.0
C212 C 0.55133 0.50509 0.52484 0.0
C213 C 0.54302 0.50676 0.54733 0.0
C214 C 0.53323 0.55734 0.59128 0.0
C215 C 0.54256 0.58859 0.59539 0.0
C216 C 0.52122 0.5989 0.59015 0.0
C217 C 0.49053 0.57827 0.58029 0.0
C218 C 0.48226 0.54763 0.57478 0.0
C219 C 0.5033 0.53724 0.58036 0.0
C220 C 0.57606 0.52053 0.73261 0.0
C221 C 0.6152 0.45234 0.52918 0.0
H222 H 0.01575 0.5165 0.9964 0.0
H223 H 0.21767 0.53572 0.78916 0.0
H224 H 0.98089 0.51456 0.87576 0.0
H225 H 0.94357 0.5044 0.90681 0.0
H226 H 0.91032 0.40636 0.90122 0.0
H227 H 0.94792 0.41679 0.87014 0.0
H228 H 0.04607 0.5364 0.89955 0.0
H229 H 0.03881 0.5377 0.94074 0.0
H230 H 0.99516 0.4377 0.94181 0.0
H231 H 0.00288 0.43681 0.9007 0.0
H232 H 0.10629 0.55431 0.86743 0.0
H233 H 0.16092 0.56923 0.88053 0.0
H234 H 0.12673 0.4738 0.89769 0.0
H235 H 0.07207 0.45909 0.8846 0.0
H236 H 0.0897 0.54803 0.81334 0.0
H237 H 0.14183 0.56846 0.79486 0.0
H238 H 0.14683 0.48934 0.81777 0.0
H239 H 0.09429 0.46875 0.83561 0.0
H240 H 0.01699 0.51764 0.79408 0.0
H241 H 0.03633 0.5293 0.75486 0.0
H242 H 0.06499 0.4608 0.75821 0.0
H243 H 0.04474 0.44853 0.79707 0.0
H244 H 0.95035 0.486 0.82881 0.0
H245 H 0.89793 0.45439 0.80871 0.0
H246 H 0.9247 0.38726 0.78942 0.0
H247 H 0.97636 0.41828 0.80996 0.0
O248 O 0.01955 0.51562 0.98031 0.0
O249 O 0.99693 0.46415 0.97984 0.0
O250 O 0.19207 0.56706 0.78332 0.0
O251 O 0.19683 0.52795 0.79603 0.0
C252 C 0.99719 0.47434 0.85864 0.0
C253 C 0.02597 0.48538 0.87191 0.0
C254 C 0.05548 0.49529 0.86118 0.0
C255 C 0.05661 0.49473 0.83714 0.0
C256 C 0.02774 0.4825 0.82381 0.0
C257 C 0.99777 0.47156 0.83459 0.0
C258 C 0.96714 0.46642 0.87074 0.0
C259 C 0.96453 0.49072 0.88056 0.0
C260 C 0.94355 0.48495 0.89849 0.0
C261 C 0.92453 0.4547 0.9067 0.0
C262 C 0.92468 0.42991 0.89521 0.0
C263 C 0.94594 0.43576 0.87734 0.0
C264 C 0.02495 0.48652 0.8972 0.0
C265 C 0.03543 0.51489 0.90881 0.0
C266 C 0.03106 0.51552 0.93229 0.0
C267 C 0.0162 0.48777 0.94455 0.0
C268 C 0.00659 0.45948 0.93289 0.0
C269 C 0.01105 0.45891 0.90944 0.0
C270 C 0.08546 0.50562 0.87488 0.0
C271 C 0.1104 0.53688 0.87477 0.0
C272 C 0.14153 0.54527 0.8821 0.0
C273 C 0.14803 0.52252 0.88973 0.0
C274 C 0.12231 0.49177 0.89194 0.0
C275 C 0.09114 0.48335 0.88452 0.0
C276 C 0.08829 0.50699 0.82588 0.0
C277 C 0.10204 0.53509 0.81424 0.0
C278 C 0.13184 0.54673 0.80376 0.0
C279 C 0.14856 0.53058 0.80491 0.0
C280 C 0.13465 0.5024 0.81659 0.0
C281 C 0.1047 0.49063 0.82687 0.0
C282 C 0.02983 0.48252 0.79852 0.0
C283 C 0.02609 0.50417 0.78599 0.0
C284 C 0.03725 0.5109 0.76366 0.0
C285 C 0.0525 0.49621 0.75376 0.0
C286 C 0.0535 0.47254 0.76559 0.0
C287 C 0.04185 0.46546 0.7877 0.0
C288 C 0.96712 0.45436 0.82099 0.0
C289 C 0.94489 0.46452 0.82019 0.0
C290 C 0.9151 0.44657 0.80865 0.0
C291 C 0.90739 0.41849 0.79744 0.0
C292 C 0.9302 0.40903 0.79759 0.0
C293 C 0.95967 0.42668 0.80939 0.0
C294 C 0.01033 0.48835 0.9693 0.0
C295 C 0.18042 0.54304 0.79406 0.0
H296 H 0.37668 0.90097 0.85723 0.0
H297 H 0.36581 0.8289 0.11995 0.0
H298 H 0.43481 0.02689 0.97571 0.0
H299 H 0.45523 0.06168 0.94321 0.0
H300 H 0.51045 0.01987 0.92274 0.0
H301 H 0.4904 0.98556 0.95547 0.0
H302 H 0.38896 0.95616 0.94817 0.0
H303 H 0.37838 0.93694 0.90851 0.0
H304 H 0.43881 0.89738 0.91885 0.0
H305 H 0.44969 0.91726 0.95829 0.0
H306 H 0.35523 0.88927 0.97296 0.0
H307 H 0.3399 0.83886 0.95489 0.0
H308 H 0.41793 0.83879 0.99187 0.0
H309 H 0.43364 0.88922 0.00918 0.0
H310 H 0.3517 0.90182 0.03005 0.0
H311 H 0.32648 0.8648 0.0608 0.0
H312 H 0.4208 0.88401 0.08367 0.0
H313 H 0.44561 0.92052 0.05269 0.0
H314 H 0.39329 0.96971 0.05579 0.0
H315 H 0.39772 0.97218 0.09757 0.0
H316 H 0.49634 0.9934 0.0937 0.0
H317 H 0.49142 0.98954 0.05214 0.0
H318 H 0.45221 0.04074 0.02833 0.0
H319 H 0.49966 0.08999 0.0423 0.0
H320 H 0.56256 0.05841 0.01844 0.0
H321 H 0.51545 0.00984 0.00419 0.0
O322 O 0.38156 0.90875 0.87285 0.0
O323 O 0.41208 0.88807 0.87929 0.0
O324 O 0.32746 0.83621 0.09637 0.0
O325 O 0.37509 0.84325 0.10755 0.0
C326 C 0.44587 0.98055 0.98608 0.0
C327 C 0.42526 0.94863 0.98042 0.0
C328 C 0.4111 0.92675 0.99794 0.0
C329 C 0.41573 0.93709 0.02094 0.0
C330 C 0.43624 0.96913 0.02656 0.0
C331 C 0.45259 0.99055 0.00917 0.0
C332 C 0.46082 0.00349 0.96774 0.0
C333 C 0.45165 0.02557 0.96436 0.0
C334 C 0.46326 0.04533 0.94583 0.0
C335 C 0.48406 0.04313 0.93035 0.0
C336 C 0.49398 0.02163 0.9342 0.0
C337 C 0.48266 0.00214 0.95287 0.0
C338 C 0.41987 0.9379 0.95612 0.0
C339 C 0.40003 0.94351 0.94177 0.0
C340 C 0.39397 0.93243 0.91916 0.0
C341 C 0.40763 0.91549 0.91054 0.0
C342 C 0.42785 0.91027 0.92494 0.0
C343 C 0.43405 0.92154 0.94749 0.0
C344 C 0.39572 0.89302 0.99223 0.0
C345 C 0.36833 0.87785 0.97766 0.0
C346 C 0.35969 0.84921 0.96732 0.0
C347 C 0.37792 0.83513 0.97187 0.0
C348 C 0.40328 0.84896 0.98821 0.0
C349 C 0.41222 0.87775 0.99819 0.0
C350 C 0.40047 0.91402 0.03926 0.0
C351 C 0.36683 0.89787 0.04167 0.0
C352 C 0.35252 0.87684 0.05928 0.0
C353 C 0.37165 0.87151 0.07473 0.0
C354 C 0.40536 0.88755 0.0721 0.0
C355 C 0.41961 0.90852 0.05447 0.0
C356 C 0.44199 0.97937 0.05092 0.0
C357 C 0.41622 0.97602 0.06396 0.0
C358 C 0.41878 0.97756 0.08774 0.0
C359 C 0.4474 0.98311 0.0987 0.0
C360 C 0.47425 0.98964 0.08559 0.0
C361 C 0.47146 0.98746 0.06184 0.0
C362 C 0.48048 0.02186 0.0152 0.0
C363 C 0.47628 0.04479 0.02579 0.0
C364 C 0.50326 0.07271 0.03379 0.0
C365 C 0.53455 0.07762 0.03163 0.0
C366 C 0.53862 0.05494 0.0205 0.0
C367 C 0.51182 0.02741 0.01219 0.0
C368 C 0.40066 0.90325 0.88664 0.0
C369 C 0.35662 0.84926 0.0935 0.0
H370 H 0.60079 0.5949 0.95943 0.0
H371 H 0.69369 0.50096 0.19824 0.0
H372 H 0.55334 0.59566 0.08559 0.0
H373 H 0.53329 0.61063 0.0529 0.0
H374 H 0.62975 0.68818 0.04206 0.0
H375 H 0.64965 0.67283 0.0751 0.0
H376 H 0.57917 0.56448 0.05592 0.0
H377 H 0.57934 0.56893 0.0144 0.0
H378 H 0.68028 0.64155 0.01855 0.0
H379 H 0.6796 0.63707 0.06012 0.0
H380 H 0.6015 0.52054 0.0897 0.0
H381 H 0.62197 0.48692 0.07855 0.0
H382 H 0.71759 0.56788 0.07173 0.0
H383 H 0.69686 0.60125 0.08393 0.0
H384 H 0.58883 0.52373 0.139 0.0
H385 H 0.59953 0.49119 0.16399 0.0
H386 H 0.70209 0.55852 0.16197 0.0
H387 H 0.69095 0.59103 0.13717 0.0
H388 H 0.56144 0.56315 0.15206 0.0
H389 H 0.55061 0.54035 0.18994 0.0
H390 H 0.65206 0.5977 0.20817 0.0
H391 H 0.66274 0.62025 0.17021 0.0
H392 H 0.55293 0.60955 0.12605 0.0
H393 H 0.53917 0.64285 0.14827 0.0
H394 H 0.64009 0.70351 0.16695 0.0
H395 H 0.65365 0.67037 0.14446 0.0
O396 O 0.60165 0.5926 0.97577 0.0
O397 O 0.65412 0.62821 0.97854 0.0
O398 O 0.63604 0.4785 0.18756 0.0
O399 O 0.68889 0.51298 0.18789 0.0
C400 C 0.61574 0.61784 0.09717 0.0
C401 C 0.62781 0.60061 0.08617 0.0
C402 C 0.6365 0.58243 0.09906 0.0
C403 C 0.63222 0.58064 0.12286 0.0
C404 C 0.62041 0.598 0.13386 0.0
C405 C 0.61296 0.61722 0.12112 0.0
C406 C 0.60285 0.63336 0.08289 0.0
C407 C 0.56983 0.61685 0.07695 0.0
C408 C 0.55847 0.62535 0.05808 0.0
C409 C 0.58 0.65043 0.04472 0.0
C410 C 0.61266 0.66854 0.05188 0.0
C411 C 0.62399 0.66009 0.0709 0.0
C412 C 0.6294 0.60035 0.06093 0.0
C413 C 0.60141 0.58097 0.04777 0.0
C414 C 0.60154 0.58371 0.02408 0.0
C415 C 0.62978 0.60572 0.01317 0.0
C416 C 0.65811 0.62439 0.02642 0.0
C417 C 0.65788 0.62173 0.05013 0.0
C418 C 0.64775 0.56322 0.08772 0.0
C419 C 0.62669 0.53101 0.08526 0.0
C420 C 0.63847 0.51187 0.0787 0.0
C421 C 0.67155 0.52465 0.07431 0.0
C422 C 0.69211 0.55725 0.07527 0.0
C423 C 0.6803 0.57637 0.08204 0.0
C424 C 0.63912 0.55975 0.13638 0.0
C425 C 0.61359 0.53131 0.14389 0.0
C426 C 0.61978 0.51279 0.15816 0.0
C427 C 0.65167 0.52234 0.16508 0.0
C428 C 0.67725 0.55054 0.15704 0.0
C429 C 0.671 0.56909 0.1428 0.0
C430 C 0.61289 0.59314 0.15841 0.0
C431 C 0.58105 0.57184 0.1646 0.0
C432 C 0.57493 0.5587 0.18614 0.0
C433 C 0.60056 0.56707 0.20181 0.0
C434 C 0.63186 0.59103 0.19645 0.0
C435 C 0.63801 0.60394 0.17481 0.0
C436 C 0.60435 0.63797 0.13325 0.0
C437 C 0.57209 0.63038 0.13453 0.0
C438 C 0.56428 0.64928 0.14733 0.0
C439 C 0.58859 0.67574 0.15933 0.0
C440 C 0.62086 0.68314 0.15804 0.0
C441 C 0.62865 0.66443 0.14507 0.0
C442 C 0.62941 0.60955 0.98812 0.0
C443 C 0.65827 0.50319 0.18081 0.0
Mg444 Mg 0.65004 0.41249 0.34279 0.0
O445 O 0.6487 0.44255 0.37211 0.0
O446 O 0.67887 0.49237 0.36249 0.0
Mg447 Mg 0.70069 0.49423 0.32765 0.0
C448 C 0.66032 0.47152 0.37633 0.0
C449 C 0.60299 0.35951 0.37659 0.0
O450 O 0.58666 0.37391 0.37599 0.0
O451 O 0.70103 0.42495 0.35337 0.0
O452 O 0.73059 0.47409 0.34211 0.0
O453 O 0.60837 0.41303 0.32559 0.0
O454 O 0.6599 0.44715 0.31984 0.0
C455 C 0.72834 0.44979 0.35078 0.0
C456 C 0.63004 0.43814 0.31592 0.0
O457 O 0.62873 0.37005 0.36528 0.0
Mg458 Mg 0.25267 0.62826 0.59987 0.0
O459 O 0.21959 0.604 0.5683 0.0
O460 O 0.19812 0.55276 0.57244 0.0
Mg461 Mg 0.21335 0.54423 0.60749 0.0
C462 C 0.20187 0.57586 0.561 0.0
C463 C 0.28474 0.69912 0.59297 0.0
O464 O 0.27409 0.69617 0.61385 0.0
O465 O 0.28957 0.61587 0.58754 0.0
O466 O 0.26591 0.56555 0.59582 0.0
O467 O 0.21215 0.62804 0.61831 0.0
O468 O 0.22243 0.58996 0.61947 0.0
C469 C 0.2901 0.59071 0.58878 0.0
C470 C 0.20431 0.6007 0.62537 0.0
O471 O 0.27918 0.67481 0.58184 0.0
Mg472 Mg 0.60837 0.23064 0.77133 0.0
O473 O 0.59171 0.1935 0.7429 0.0
O474 O 0.60959 0.16159 0.75168 0.0
Mg475 Mg 0.634 0.17618 0.78723 0.0
C476 C 0.59461 0.1701 0.73829 0.0
C477 C 0.61978 0.29082 0.74969 0.0
O478 O 0.64305 0.30134 0.76532 0.0
O479 O 0.66069 0.25373 0.76054 0.0
O480 O 0.67636 0.22193 0.77391 0.0
O481 O 0.56219 0.20105 0.78951 0.0
O482 O 0.6068 0.19956 0.79488 0.0
C483 C 0.68261 0.24722 0.76447 0.0
C484 C 0.57692 0.18874 0.79954 0.0
O485 O 0.60002 0.26165 0.7478 0.0
Mg486 Mg 0.43678 0.65009 0.85569 0.0
O487 O 0.4697 0.64893 0.88363 0.0
O488 O 0.46406 0.60182 0.88107 0.0
Mg489 Mg 0.43314 0.5759 0.84914 0.0
C490 C 0.47576 0.62851 0.89092 0.0
C491 C 0.40668 0.68593 0.87398 0.0
O492 O 0.38334 0.66293 0.86179 0.0
O493 O 0.39356 0.6153 0.87498 0.0
O494 O 0.38731 0.56877 0.86717 0.0
O495 O 0.47698 0.67151 0.831 0.0
O496 O 0.44426 0.62095 0.83495 0.0
C497 C 0.37766 0.5858 0.87635 0.0
C498 C 0.46852 0.6433 0.8249 0.0
O499 O 0.43454 0.68891 0.87448 0.0
Mg500 Mg 0.7621 0.35146 0.08036 0.0
O501 O 0.80033 0.35542 0.10544 0.0
O502 O 0.8309 0.33911 0.08963 0.0
Mg503 Mg 0.81276 0.32659 0.0521 0.0
C504 C 0.8233 0.34993 0.10672 0.0
C505 C 0.71847 0.36354 0.11987 0.0
O506 O 0.70688 0.35501 0.14039 0.0
O507 O 0.73392 0.29872 0.08189 0.0
O508 O 0.76343 0.28458 0.06164 0.0
O509 O 0.7964 0.40007 0.06761 0.0
O510 O 0.79208 0.35727 0.05314 0.0
C511 C 0.73791 0.27782 0.07255 0.0
C512 C 0.80588 0.38701 0.05297 0.0
O513 O 0.73469 0.35229 0.11167 0.0
Mg514 Mg 0.45936 0.81945 0.23779 0.0
O515 O 0.4747 0.84071 0.27368 0.0
O516 O 0.52356 0.88345 0.27153 0.0
Mg517 Mg 0.53895 0.8892 0.23412 0.0
C518 C 0.49908 0.86453 0.28301 0.0
C519 C 0.40037 0.75509 0.23638 0.0
O520 O 0.40624 0.76275 0.21488 0.0
O521 O 0.49375 0.80143 0.23876 0.0
O522 O 0.5416 0.84434 0.23321 0.0
O523 O 0.43729 0.84831 0.23175 0.0
O524 O 0.48756 0.86254 0.22317 0.0
C525 C 0.52407 0.81487 0.23544 0.0
C526 C 0.46496 0.86903 0.22382 0.0
O527 O 0.41906 0.77439 0.25171 0.0
C528 C 0.24364 0.58982 0.26594 0.0
C529 C 0.21958 0.59604 0.27245 0.0
C530 C 0.27469 0.6141 0.26044 0.0
C531 C 0.2816 0.6452 0.26127 0.0
C532 C 0.25752 0.65161 0.26803 0.0
C533 C 0.22696 0.62702 0.27372 0.0
C534 C 0.29996 0.6065 0.25352 0.0
C535 C 0.26391 0.68448 0.26903 0.0
C536 C 0.36679 0.71533 0.26506 0.0
C537 C 0.37135 0.72543 0.2425 0.0
C538 C 0.33827 0.68826 0.27124 0.0
C539 C 0.31366 0.67122 0.2545 0.0
C540 C 0.31859 0.68075 0.23157 0.0
C541 C 0.34747 0.70764 0.22582 0.0
C542 C 0.334 0.67853 0.29581 0.0
C543 C 0.29274 0.66338 0.21329 0.0
H544 H 0.23809 0.56595 0.26483 0.0
H545 H 0.20882 0.63214 0.27933 0.0
H546 H 0.30704 0.61351 0.23568 0.0
H547 H 0.32205 0.61987 0.26447 0.0
H548 H 0.29122 0.58129 0.25481 0.0
H549 H 0.24249 0.68545 0.27458 0.0
H550 H 0.28442 0.69905 0.28102 0.0
H551 H 0.27086 0.69497 0.25197 0.0
H552 H 0.3853 0.72883 0.27799 0.0
H553 H 0.35085 0.71527 0.20834 0.0
H554 H 0.32607 0.65351 0.29685 0.0
H555 H 0.31483 0.68158 0.30344 0.0
H556 H 0.35662 0.69235 0.3062 0.0
H557 H 0.28463 0.63827 0.21317 0.0
H558 H 0.30125 0.67251 0.19602 0.0
H559 H 0.27134 0.66537 0.21701 0.0
C560 C 0.52507 0.18674 0.42139 0.0
C561 C 0.53418 0.18551 0.44398 0.0
C562 C 0.5352 0.21535 0.41109 0.0
C563 C 0.55491 0.24342 0.4237 0.0
C564 C 0.56369 0.24234 0.44665 0.0
C565 C 0.55325 0.21339 0.45651 0.0
C566 C 0.52545 0.21554 0.38654 0.0
C567 C 0.58456 0.27176 0.46067 0.0
C568 C 0.60875 0.3153 0.38972 0.0
C569 C 0.5911 0.3305 0.3895 0.0
C570 C 0.59741 0.28719 0.40103 0.0
C571 C 0.56768 0.27388 0.41246 0.0
C572 C 0.54997 0.28931 0.41266 0.0
C573 C 0.56189 0.31746 0.40117 0.0
C574 C 0.61706 0.2715 0.40045 0.0
C575 C 0.51821 0.27585 0.42474 0.0
H576 H 0.51062 0.16529 0.41155 0.0
H577 H 0.55996 0.21257 0.47409 0.0
H578 H 0.51338 0.22926 0.38506 0.0
H579 H 0.54731 0.22693 0.37593 0.0
H580 H 0.50883 0.19171 0.37945 0.0
H581 H 0.58801 0.2669 0.47858 0.0
H582 H 0.60866 0.28549 0.45289 0.0
H583 H 0.57353 0.28649 0.46078 0.0
H584 H 0.6314 0.3252 0.38082 0.0
H585 H 0.54813 0.32906 0.40114 0.0
H586 H 0.60275 0.24823 0.39195 0.0
H587 H 0.62286 0.26785 0.41808 0.0
H588 H 0.64005 0.28526 0.39125 0.0
H589 H 0.50041 0.25288 0.4169 0.0
H590 H 0.50794 0.29123 0.42398 0.0
H591 H 0.52151 0.27194 0.4429 0.0
C592 C 0.44601 0.57912 0.5583 0.0
C593 C 0.46564 0.58719 0.57807 0.0
C594 C 0.41904 0.58282 0.55747 0.0
C595 C 0.41126 0.59441 0.57701 0.0
C596 C 0.43201 0.60413 0.59658 0.0
C597 C 0.45904 0.60054 0.59682 0.0
C598 C 0.39788 0.57269 0.53615 0.0
C599 C 0.42448 0.61635 0.61785 0.0
C600 C 0.3475 0.61776 0.57526 0.0
C601 C 0.3204 0.59103 0.5836 0.0
C602 C 0.37704 0.61896 0.5723 0.0
C603 C 0.37964 0.59296 0.57805 0.0
C604 C 0.35217 0.56566 0.58585 0.0
C605 C 0.32293 0.56497 0.5884 0.0
C606 C 0.40568 0.6483 0.56361 0.0
C607 C 0.35391 0.53744 0.59227 0.0
H608 H 0.45122 0.56902 0.5437 0.0
H609 H 0.47392 0.60647 0.61224 0.0
H610 H 0.37472 0.55092 0.53938 0.0
H611 H 0.39198 0.59059 0.53137 0.0
H612 H 0.40956 0.56835 0.52151 0.0
H613 H 0.44454 0.62563 0.63078 0.0
H614 H 0.41957 0.63506 0.61359 0.0
H615 H 0.40234 0.59731 0.62557 0.0
H616 H 0.34582 0.63798 0.5714 0.0
H617 H 0.30225 0.54417 0.59484 0.0
H618 H 0.41641 0.64269 0.54903 0.0
H619 H 0.42467 0.65933 0.57724 0.0
H620 H 0.39901 0.66543 0.55807 0.0
H621 H 0.36247 0.52949 0.57767 0.0
H622 H 0.33014 0.51775 0.59749 0.0
H623 H 0.37162 0.54363 0.60658 0.0
C624 C 0.84738 0.38943 0.80035 0.0
C625 C 0.87467 0.3975 0.78737 0.0
C626 C 0.81648 0.36605 0.79271 0.0
C627 C 0.81278 0.35067 0.77143 0.0
C628 C 0.84001 0.36007 0.75761 0.0
C629 C 0.87075 0.38321 0.76586 0.0
C630 C 0.78811 0.35657 0.80806 0.0
C631 C 0.83692 0.34473 0.73462 0.0
C632 C 0.74175 0.26799 0.77046 0.0
C633 C 0.71693 0.27177 0.76139 0.0
C634 C 0.77361 0.2932 0.77251 0.0
C635 C 0.78097 0.32282 0.76499 0.0
C636 C 0.75671 0.32616 0.7539 0.0
C637 C 0.7249 0.30061 0.75233 0.0
C638 C 0.79879 0.28861 0.78441 0.0
C639 C 0.76382 0.35718 0.74511 0.0
H640 H 0.8504 0.40022 0.81708 0.0
H641 H 0.89185 0.38966 0.75573 0.0
H642 H 0.7682 0.3569 0.79864 0.0
H643 H 0.77865 0.33239 0.8137 0.0
H644 H 0.79474 0.37206 0.82344 0.0
H645 H 0.85921 0.35785 0.72457 0.0
H646 H 0.83224 0.32085 0.737 0.0
H647 H 0.81615 0.34262 0.72463 0.0
H648 H 0.736 0.24579 0.77733 0.0
H649 H 0.70601 0.30373 0.74502 0.0
H650 H 0.8055 0.30118 0.80118 0.0
H651 H 0.82108 0.29846 0.77428 0.0
H652 H 0.78999 0.26366 0.78733 0.0
H653 H 0.76646 0.3727 0.75971 0.0
H654 H 0.74417 0.35476 0.73355 0.0
H655 H 0.78692 0.3687 0.73585 0.0
C656 C 0.37462 0.78386 0.96724 0.0
C657 C 0.37407 0.80893 0.95743 0.0
C658 C 0.37692 0.76187 0.9536 0.0
C659 C 0.37905 0.76532 0.92965 0.0
C660 C 0.37689 0.78973 0.91959 0.0
C661 C 0.37434 0.81122 0.93362 0.0
C662 C 0.37871 0.7359 0.96491 0.0
C663 C 0.37921 0.79426 0.89413 0.0
C664 C 0.42502 0.73403 0.89802 0.0
C665 C 0.39977 0.70655 0.88793 0.0
C666 C 0.41854 0.75342 0.91157 0.0
C667 C 0.38604 0.7449 0.91529 0.0
C668 C 0.36044 0.71707 0.90528 0.0
C669 C 0.36762 0.69829 0.89162 0.0
C670 C 0.44649 0.78304 0.9219 0.0
C671 C 0.32551 0.70705 0.90909 0.0
H672 H 0.37432 0.78206 0.98565 0.0
H673 H 0.37447 0.83089 0.92601 0.0
H674 H 0.36138 0.71317 0.95654 0.0
H675 H 0.40331 0.73959 0.96303 0.0
H676 H 0.37342 0.73463 0.98339 0.0
H677 H 0.3745 0.81282 0.88888 0.0
H678 H 0.40378 0.80067 0.88864 0.0
H679 H 0.36172 0.77226 0.88495 0.0
H680 H 0.44988 0.7405 0.89523 0.0
H681 H 0.34795 0.67688 0.88407 0.0
H682 H 0.44501 0.78264 0.94077 0.0
H683 H 0.44519 0.80339 0.91618 0.0
H684 H 0.47033 0.78644 0.91718 0.0
H685 H 0.32065 0.70508 0.92762 0.0
H686 H 0.30845 0.68434 0.90051 0.0
H687 H 0.32053 0.72489 0.90256 0.0
C688 C 0.71342 0.51099 0.08392 0.0
C689 C 0.68485 0.50374 0.07201 0.0
C690 C 0.7223 0.48859 0.08666 0.0
C691 C 0.70187 0.45811 0.07757 0.0
C692 C 0.67491 0.45162 0.06353 0.0
C693 C 0.6668 0.4746 0.06082 0.0
C694 C 0.75162 0.49666 0.1014 0.0
C695 C 0.65267 0.41951 0.05333 0.0
C696 C 0.72713 0.39829 0.0867 0.0
C697 C 0.71276 0.38598 0.10759 0.0
C698 C 0.72348 0.42147 0.07627 0.0
C699 C 0.70455 0.43207 0.0869 0.0
C700 C 0.68885 0.41867 0.10748 0.0
C701 C 0.69327 0.39598 0.11757 0.0
C702 C 0.74077 0.43532 0.05441 0.0
C703 C 0.66799 0.42889 0.11929 0.0
H704 H 0.72758 0.53334 0.09272 0.0
H705 H 0.64517 0.46908 0.05106 0.0
H706 H 0.74369 0.48683 0.11856 0.0
H707 H 0.76528 0.48643 0.09403 0.0
H708 H 0.76813 0.52224 0.10347 0.0
H709 H 0.63695 0.4198 0.03943 0.0
H710 H 0.66667 0.40933 0.04652 0.0
H711 H 0.63691 0.40402 0.06683 0.0
H712 H 0.74164 0.39022 0.07871 0.0
H713 H 0.68167 0.38637 0.13358 0.0
H714 H 0.76133 0.45927 0.05801 0.0
H715 H 0.72439 0.43708 0.04186 0.0
H716 H 0.75038 0.42146 0.04658 0.0
H717 H 0.683 0.45372 0.12479 0.0
H718 H 0.65613 0.41494 0.13453 0.0
H719 H 0.64893 0.42683 0.10733 0.0
C720 C 0.41432 0.87115 0.55402 0.0
C721 C 0.40024 0.88373 0.54006 0.0
C722 C 0.39593 0.84065 0.56197 0.0
C723 C 0.36264 0.8223 0.55588 0.0
C724 C 0.3484 0.83469 0.54153 0.0
C725 C 0.36737 0.86517 0.53375 0.0
C726 C 0.41201 0.82824 0.57722 0.0
C727 C 0.313 0.81589 0.53463 0.0
C728 C 0.31931 0.73438 0.56212 0.0
C729 C 0.30404 0.73044 0.58308 0.0
C730 C 0.33852 0.76414 0.55307 0.0
C731 C 0.3424 0.79055 0.56518 0.0
C732 C 0.32679 0.78668 0.58621 0.0
C733 C 0.30791 0.75672 0.59492 0.0
C734 C 0.35487 0.76734 0.53063 0.0
C735 C 0.3301 0.81422 0.59955 0.0
H736 H 0.43959 0.88539 0.55916 0.0
H737 H 0.35641 0.87447 0.52262 0.0
H738 H 0.40078 0.82318 0.59422 0.0
H739 H 0.40831 0.80604 0.56996 0.0
H740 H 0.4384 0.84492 0.57954 0.0
H741 H 0.3058 0.82866 0.52294 0.0
H742 H 0.30746 0.79375 0.52607 0.0
H743 H 0.29795 0.80978 0.55003 0.0
H744 H 0.31655 0.71423 0.55288 0.0
H745 H 0.29616 0.75394 0.61108 0.0
H746 H 0.38147 0.78251 0.53301 0.0
H747 H 0.347 0.77867 0.51812 0.0
H748 H 0.34942 0.74452 0.52332 0.0
H749 H 0.35594 0.83084 0.60397 0.0
H750 H 0.31624 0.80724 0.61556 0.0
H751 H 0.32142 0.82677 0.58897 0.0
C752 C 0.61708 0.40814 0.65876 0.0
C753 C 0.59693 0.41868 0.66658 0.0
C754 C 0.62186 0.38726 0.67152 0.0
C755 C 0.60625 0.37691 0.69263 0.0
C756 C 0.5862 0.38779 0.7007 0.0
C757 C 0.58178 0.40852 0.68758 0.0
C758 C 0.64335 0.37607 0.66237 0.0
C759 C 0.56937 0.37752 0.72322 0.0
C760 C 0.59227 0.30162 0.7177 0.0
C761 C 0.61685 0.31269 0.73456 0.0
C762 C 0.58899 0.32225 0.70355 0.0
C763 C 0.61078 0.35469 0.70639 0.0
C764 C 0.63595 0.36598 0.72311 0.0
C765 C 0.6387 0.34484 0.73699 0.0
C766 C 0.56188 0.30937 0.68585 0.0
C767 C 0.6596 0.40043 0.72666 0.0
H768 H 0.62865 0.4158 0.64246 0.0
H769 H 0.56663 0.41705 0.69387 0.0
H770 H 0.66333 0.38185 0.67479 0.0
H771 H 0.62927 0.35036 0.66006 0.0
H772 H 0.65395 0.38656 0.64578 0.0
H773 H 0.55472 0.38829 0.72709 0.0
H774 H 0.55323 0.35184 0.723 0.0
H775 H 0.58749 0.38375 0.73725 0.0
H776 H 0.57539 0.27681 0.71564 0.0
H777 H 0.65786 0.3536 0.7499 0.0
H778 H 0.57173 0.318 0.66875 0.0
H779 H 0.54503 0.31762 0.68977 0.0
H780 H 0.54795 0.28351 0.68509 0.0
H781 H 0.67148 0.41087 0.71039 0.0
H782 H 0.67862 0.40533 0.73974 0.0
H783 H 0.64651 0.4122 0.7321 0.0
C784 C 0.20321 0.54539 0.87439 0.0
C785 C 0.18186 0.52992 0.89205 0.0
C786 C 0.23498 0.55158 0.87532 0.0
C787 C 0.24577 0.54215 0.89445 0.0
C788 C 0.22432 0.52638 0.91235 0.0
C789 C 0.19242 0.52025 0.91087 0.0
C790 C 0.25695 0.56818 0.85572 0.0
C791 C 0.23513 0.51616 0.93301 0.0
C792 C 0.32118 0.54074 0.88024 0.0
C793 C 0.34512 0.57138 0.88625 0.0
C794 C 0.28852 0.52966 0.88473 0.0
C795 C 0.27985 0.54973 0.89553 0.0
C796 C 0.30428 0.57949 0.90373 0.0
C797 C 0.33663 0.58994 0.89901 0.0
C798 C 0.26316 0.49767 0.87587 0.0
C799 C 0.29614 0.60156 0.91547 0.0
H800 H 0.19481 0.55213 0.85954 0.0
H801 H 0.17579 0.50812 0.92446 0.0
H802 H 0.27817 0.59048 0.86195 0.0
H803 H 0.26621 0.5538 0.84839 0.0
H804 H 0.24447 0.57326 0.84189 0.0
H805 H 0.2153 0.50362 0.94523 0.0
H806 H 0.24417 0.50071 0.92768 0.0
H807 H 0.25549 0.53674 0.94194 0.0
H808 H 0.32756 0.52618 0.87052 0.0
H809 H 0.35509 0.6135 0.90408 0.0
H810 H 0.25164 0.49995 0.86009 0.0
H811 H 0.24386 0.48551 0.88847 0.0
H812 H 0.27372 0.48307 0.87176 0.0
H813 H 0.28678 0.61121 0.90261 0.0
H814 H 0.31765 0.62132 0.92423 0.0
H815 H 0.27698 0.58923 0.92814 0.0
C816 C 0.57015 0.13542 0.03423 0.0
C817 C 0.56316 0.10605 0.04119 0.0
C818 C 0.59883 0.16238 0.0416 0.0
C819 C 0.62056 0.15981 0.05665 0.0
C820 C 0.61283 0.13022 0.06448 0.0
C821 C 0.58435 0.10361 0.05643 0.0
C822 C 0.60645 0.19347 0.0326 0.0
C823 C 0.63499 0.1266 0.08091 0.0
C824 C 0.7081 0.22505 0.05379 0.0
C825 C 0.71006 0.2454 0.07128 0.0
C826 C 0.6794 0.19658 0.04935 0.0
C827 C 0.6522 0.18795 0.06303 0.0
C828 C 0.65472 0.20732 0.08173 0.0
C829 C 0.68354 0.23599 0.0855 0.0
C830 C 0.67761 0.17669 0.02912 0.0
C831 C 0.6265 0.19846 0.09708 0.0
H832 H 0.55376 0.13715 0.02234 0.0
H833 H 0.57866 0.0808 0.06192 0.0
H834 H 0.61085 0.20993 0.04696 0.0
H835 H 0.62893 0.20366 0.02263 0.0
H836 H 0.58664 0.19156 0.02149 0.0
H837 H 0.62402 0.10239 0.08696 0.0
H838 H 0.65801 0.13303 0.07249 0.0
H839 H 0.64106 0.14255 0.09592 0.0
H840 H 0.72838 0.23213 0.04264 0.0
H841 H 0.68493 0.25147 0.09916 0.0
H842 H 0.66015 0.17579 0.01616 0.0
H843 H 0.66869 0.15247 0.03438 0.0
H844 H 0.70144 0.18578 0.02102 0.0
H845 H 0.60724 0.19977 0.08753 0.0
H846 H 0.63359 0.21404 0.11243 0.0
H847 H 0.61599 0.17411 0.10265 0.0
C848 C 0.59325 0.70548 0.19533 0.0
C849 C 0.5804 0.69567 0.17312 0.0
C850 C 0.58603 0.72475 0.20841 0.0
C851 C 0.56576 0.73465 0.19892 0.0
C852 C 0.55268 0.72473 0.17651 0.0
C853 C 0.56003 0.70523 0.16394 0.0
C854 C 0.60005 0.73451 0.23233 0.0
C855 C 0.53119 0.73502 0.1657 0.0
C856 C 0.51989 0.76294 0.23385 0.0
C857 C 0.53809 0.79516 0.23044 0.0
C858 C 0.52973 0.74306 0.22492 0.0
C859 C 0.55831 0.75567 0.21213 0.0
C860 C 0.57796 0.78832 0.21004 0.0
C861 C 0.56772 0.8077 0.21934 0.0
C862 C 0.50843 0.7084 0.2279 0.0
C863 C 0.60862 0.80268 0.19654 0.0
H864 H 0.60874 0.69782 0.20255 0.0
H865 H 0.55035 0.69794 0.1467 0.0
H866 H 0.61542 0.76023 0.23372 0.0
H867 H 0.58029 0.72726 0.24466 0.0
H868 H 0.61487 0.72428 0.23735 0.0
H869 H 0.52307 0.72529 0.14811 0.0
H870 H 0.50952 0.72761 0.17618 0.0
H871 H 0.54435 0.7608 0.16506 0.0
H872 H 0.49713 0.75303 0.24261 0.0
H873 H 0.58202 0.83254 0.21664 0.0
H874 H 0.52312 0.69819 0.23316 0.0
H875 H 0.49624 0.69713 0.21137 0.0
H876 H 0.48955 0.70269 0.24076 0.0
H877 H 0.62399 0.79319 0.2018 0.0
H878 H 0.62295 0.82844 0.19863 0.0
H879 H 0.60237 0.7967 0.17815 0.0
C880 C 0.88104 0.43388 0.33771 0.0
C881 C 0.90517 0.4489 0.35469 0.0
C882 C 0.85096 0.43163 0.33977 0.0
C883 C 0.84476 0.44423 0.3595 0.0
C884 C 0.86828 0.45748 0.37741 0.0
C885 C 0.89844 0.46002 0.37466 0.0
C886 C 0.82673 0.41773 0.32013 0.0
C887 C 0.8623 0.4705 0.39891 0.0
C888 C 0.78844 0.47481 0.34932 0.0
C889 C 0.75854 0.4497 0.35586 0.0
C890 C 0.8168 0.47365 0.35114 0.0
C891 C 0.81542 0.44688 0.36001 0.0
C892 C 0.78572 0.42213 0.36783 0.0
C893 C 0.75755 0.42374 0.36553 0.0
C894 C 0.84799 0.50052 0.34252 0.0
C895 C 0.78348 0.39351 0.37782 0.0
H896 H 0.88641 0.42559 0.32216 0.0
H897 H 0.91713 0.47152 0.38783 0.0
H898 H 0.80262 0.40002 0.32632 0.0
H899 H 0.82411 0.43626 0.31209 0.0
H900 H 0.83415 0.40671 0.30688 0.0
H901 H 0.88073 0.4755 0.4125 0.0
H902 H 0.86301 0.49246 0.3951 0.0
H903 H 0.83796 0.45401 0.40549 0.0
H904 H 0.7896 0.49505 0.34191 0.0
H905 H 0.73464 0.4043 0.3708 0.0
H906 H 0.85639 0.49248 0.32787 0.0
H907 H 0.86718 0.5093 0.35603 0.0
H908 H 0.84522 0.52014 0.33694 0.0
H909 H 0.78723 0.3801 0.36426 0.0
H910 H 0.75961 0.37807 0.38553 0.0
H911 H 0.80276 0.40023 0.39106 0.0
C912 C 0.12984 0.55379 0.43378 0.0
C913 C 0.09654 0.53203 0.43274 0.0
C914 C 0.14721 0.56209 0.45461 0.0
C915 C 0.13074 0.54868 0.47498 0.0
C916 C 0.09688 0.52734 0.47408 0.0
C917 C 0.08022 0.51891 0.45288 0.0
C918 C 0.18338 0.58426 0.45465 0.0
C919 C 0.07832 0.51315 0.49547 0.0
C920 C 0.1779 0.5434 0.52542 0.0
C921 C 0.18445 0.56954 0.53876 0.0
C922 C 0.16085 0.53663 0.5045 0.0
C923 C 0.14921 0.55593 0.49704 0.0
C924 C 0.15553 0.58224 0.51054 0.0
C925 C 0.1735 0.58899 0.53109 0.0
C926 C 0.15549 0.50891 0.4903 0.0
C927 C 0.143 0.60303 0.50338 0.0
H928 H 0.14252 0.56355 0.41811 0.0
H929 H 0.05446 0.5021 0.45202 0.0
H930 H 0.19082 0.60294 0.46783 0.0
H931 H 0.19579 0.57141 0.45892 0.0
H932 H 0.19189 0.5952 0.43785 0.0
H933 H 0.05181 0.4988 0.49207 0.0
H934 H 0.0865 0.49822 0.50323 0.0
H935 H 0.08319 0.53174 0.50821 0.0
H936 H 0.18652 0.52843 0.53122 0.0
H937 H 0.17827 0.60906 0.54146 0.0
H938 H 0.16548 0.51648 0.47307 0.0
H939 H 0.1292 0.492 0.488 0.0
H940 H 0.16699 0.49682 0.49818 0.0
H941 H 0.1532 0.61352 0.48674 0.0
H942 H 0.14923 0.62206 0.51609 0.0
H943 H 0.11629 0.58906 0.50102 0.0
C944 C 0.49672 0.05122 0.63374 0.0
C945 C 0.50753 0.06673 0.61319 0.0
C946 C 0.50995 0.06708 0.6547 0.0
C947 C 0.53448 0.09903 0.65487 0.0
C948 C 0.54517 0.11468 0.634 0.0
C949 C 0.53153 0.09828 0.61341 0.0
C950 C 0.49782 0.04971 0.67661 0.0
C951 C 0.57119 0.14868 0.63339 0.0
C952 C 0.5518 0.1507 0.70755 0.0
C953 C 0.57913 0.15163 0.7171 0.0
C954 C 0.53644 0.13291 0.68768 0.0
C955 C 0.54918 0.11625 0.67679 0.0
C956 C 0.57681 0.11716 0.68631 0.0
C957 C 0.59123 0.13455 0.70652 0.0
C958 C 0.50669 0.13208 0.67827 0.0
C959 C 0.59151 0.10024 0.67492 0.0
H960 H 0.47811 0.02675 0.63337 0.0
H961 H 0.53971 0.11006 0.59736 0.0
H962 H 0.51802 0.04999 0.68611 0.0
H963 H 0.48856 0.06142 0.68768 0.0
H964 H 0.47824 0.02512 0.67355 0.0
H965 H 0.57691 0.15725 0.61569 0.0
H966 H 0.5634 0.16294 0.64286 0.0
H967 H 0.59363 0.15245 0.64194 0.0
H968 H 0.54211 0.16356 0.71582 0.0
H969 H 0.61241 0.13529 0.7138 0.0
H970 H 0.48642 0.10762 0.67626 0.0
H971 H 0.51156 0.14239 0.66111 0.0
H972 H 0.49887 0.14501 0.68942 0.0
H973 H 0.5732 0.07508 0.67296 0.0
H974 H 0.61273 0.10291 0.68468 0.0
H975 H 0.59931 0.10929 0.65755 0.0
C976 C 0.50428 0.60653 0.7017 0.0
C977 C 0.52969 0.60073 0.70005 0.0
C978 C 0.49702 0.61507 0.72268 0.0
C979 C 0.51557 0.61777 0.74246 0.0
C980 C 0.54168 0.61257 0.74081 0.0
C981 C 0.54839 0.60406 0.71962 0.0
C982 C 0.46902 0.62051 0.72378 0.0
C983 C 0.5619 0.61507 0.76152 0.0
C984 C 0.508 0.66139 0.79319 0.0
C985 C 0.48403 0.63687 0.80569 0.0
C986 C 0.51938 0.65553 0.77293 0.0
C987 C 0.50648 0.62443 0.76504 0.0
C988 C 0.48346 0.59957 0.77817 0.0
C989 C 0.47251 0.60609 0.79833 0.0
C990 C 0.54417 0.68262 0.75946 0.0
C991 C 0.46929 0.56606 0.77041 0.0
H992 H 0.48995 0.6042 0.68658 0.0
H993 H 0.56771 0.59906 0.71852 0.0
H994 H 0.45014 0.60311 0.73494 0.0
H995 H 0.47722 0.64388 0.73139 0.0
H996 H 0.45791 0.61879 0.70669 0.0
H997 H 0.5826 0.61224 0.75708 0.0
H998 H 0.5714 0.63797 0.77035 0.0
H999 H 0.54665 0.5969 0.7738 0.0
H1000 H 0.51704 0.68525 0.79878 0.0
H1001 H 0.454 0.587 0.80785 0.0
H1002 H 0.53309 0.68364 0.74305 0.0
H1003 H 0.56472 0.67946 0.75534 0.0
H1004 H 0.55371 0.70521 0.76882 0.0
H1005 H 0.45495 0.56162 0.75437 0.0
H1006 H 0.45332 0.54944 0.78334 0.0
H1007 H 0.48888 0.56131 0.76671 0.0
C1008 C 0.92454 0.46858 0.94781 0.0
C1009 C 0.90776 0.44962 0.92868 0.0
C1010 C 0.9103 0.46264 0.96931 0.0
C1011 C 0.87843 0.43717 0.97172 0.0
C1012 C 0.86101 0.41854 0.9523 0.0
C1013 C 0.87599 0.42486 0.93104 0.0
C1014 C 0.92998 0.48274 0.98956 0.0
C1015 C 0.82687 0.39131 0.95411 0.0
C1016 C 0.8498 0.39443 0.02723 0.0
C1017 C 0.82941 0.4046 0.03518 0.0
C1018 C 0.86732 0.40619 0.00726 0.0
C1019 C 0.86401 0.42837 0.99472 0.0
C1020 C 0.84498 0.44015 0.00342 0.0
C1021 C 0.82804 0.42825 0.02371 0.0
C1022 C 0.88798 0.39357 0.99893 0.0
C1023 C 0.84095 0.46388 0.99059 0.0
H1024 H 0.94936 0.48744 0.94615 0.0
H1025 H 0.86295 0.41025 0.91627 0.0
H1026 H 0.9154 0.48928 0.00018 0.0
H1027 H 0.93743 0.46945 0.00043 0.0
H1028 H 0.95212 0.50432 0.9843 0.0
H1029 H 0.81586 0.38057 0.93718 0.0
H1030 H 0.82684 0.37328 0.9649 0.0
H1031 H 0.81145 0.39889 0.96247 0.0
H1032 H 0.85133 0.37655 0.03629 0.0
H1033 H 0.81208 0.43597 0.02974 0.0
H1034 H 0.9125 0.41294 0.99481 0.0
H1035 H 0.87705 0.37949 0.98302 0.0
H1036 H 0.89041 0.37869 0.01171 0.0
H1037 H 0.86489 0.48379 0.986 0.0
H1038 H 0.82791 0.47282 0.00063 0.0
H1039 H 0.82713 0.45313 0.97443 0.0
C1040 C 0.47131 0.99501 0.13836 0.0
C1041 C 0.44703 0.97476 0.12275 0.0
C1042 C 0.47511 0.98428 0.15951 0.0
C1043 C 0.45511 0.95235 0.16447 0.0
C1044 C 0.42915 0.93246 0.14935 0.0
C1045 C 0.42524 0.94406 0.12879 0.0
C1046 C 0.50191 0.00662 0.1757 0.0
C1047 C 0.40756 0.89811 0.15357 0.0
C1048 C 0.48821 0.90746 0.19319 0.0
C1049 C 0.46861 0.89655 0.2123 0.0
C1050 C 0.48577 0.92768 0.17819 0.0
C1051 C 0.4642 0.93822 0.18301 0.0
C1052 C 0.44741 0.9303 0.20378 0.0
C1053 C 0.44917 0.90883 0.21797 0.0
C1054 C 0.50382 0.93513 0.15608 0.0
C1055 C 0.42575 0.9426 0.21014 0.0
H1056 H 0.48811 0.0188 0.13363 0.0
H1057 H 0.40675 0.92832 0.11652 0.0
H1058 H 0.49521 0.00056 0.19374 0.0
H1059 H 0.52398 0.0056 0.17255 0.0
H1060 H 0.50798 0.03096 0.17311 0.0
H1061 H 0.38608 0.88701 0.14183 0.0
H1062 H 0.42151 0.88632 0.15101 0.0
H1063 H 0.39898 0.89409 0.17133 0.0
H1064 H 0.50331 0.89802 0.18882 0.0
H1065 H 0.43436 0.90073 0.23297 0.0
H1066 H 0.51773 0.9606 0.1536 0.0
H1067 H 0.48627 0.92438 0.14154 0.0
H1068 H 0.52083 0.9264 0.15551 0.0
H1069 H 0.43672 0.96733 0.20539 0.0
H1070 H 0.42095 0.94064 0.22871 0.0
H1071 H 0.40223 0.92902 0.20077 0.0
C1072 C 0.58302 0.51515 0.21753 0.0
C1073 C 0.59611 0.54714 0.22144 0.0
C1074 C 0.58434 0.49645 0.23453 0.0
C1075 C 0.59861 0.51001 0.25608 0.0
C1076 C 0.60966 0.54183 0.26065 0.0
C1077 C 0.60869 0.56018 0.24312 0.0
C1078 C 0.57292 0.46282 0.22876 0.0
C1079 C 0.62449 0.55697 0.28354 0.0
C1080 C 0.59155 0.45475 0.30267 0.0
C1081 C 0.62151 0.45665 0.3012 0.0
C1082 C 0.58394 0.47269 0.28854 0.0
C1083 C 0.60653 0.49223 0.2723 0.0
C1084 C 0.63673 0.49403 0.27076 0.0
C1085 C 0.64396 0.47652 0.2854 0.0
C1086 C 0.55181 0.47072 0.29092 0.0
C1087 C 0.66124 0.51402 0.25332 0.0
H1088 H 0.57374 0.50514 0.20064 0.0
H1089 H 0.61879 0.58492 0.24611 0.0
H1090 H 0.59405 0.45963 0.22828 0.0
H1091 H 0.55665 0.44743 0.24207 0.0
H1092 H 0.55995 0.45521 0.21197 0.0
H1093 H 0.62677 0.5801 0.28562 0.0
H1094 H 0.60978 0.54192 0.29758 0.0
H1095 H 0.64898 0.56018 0.28528 0.0
H1096 H 0.57427 0.43957 0.315 0.0
H1097 H 0.66707 0.47788 0.28411 0.0
H1098 H 0.53726 0.46121 0.27489 0.0
H1099 H 0.55568 0.49434 0.29387 0.0
H1100 H 0.53767 0.45573 0.30519 0.0
H1101 H 0.65039 0.50682 0.23588 0.0
H1102 H 0.68339 0.51243 0.25416 0.0
H1103 H 0.66841 0.53873 0.25601 0.0
C1104 C 0.45968 0.92902 0.3928 0.0
C1105 C 0.47372 0.92752 0.41345 0.0
C1106 C 0.46359 0.91617 0.37257 0.0
C1107 C 0.48185 0.90128 0.37302 0.0
C1108 C 0.495 0.8986 0.39399 0.0
C1109 C 0.49092 0.91191 0.41396 0.0
C1110 C 0.44934 0.91971 0.35053 0.0
C1111 C 0.51428 0.88259 0.3952 0.0
C1112 C 0.47103 0.85134 0.3205 0.0
C1113 C 0.49723 0.87216 0.30731 0.0
C1114 C 0.4665 0.85997 0.3424 0.0
C1115 C 0.48857 0.89018 0.35128 0.0
C1116 C 0.5159 0.91075 0.33855 0.0
C1117 C 0.51998 0.90145 0.31677 0.0
C1118 C 0.43727 0.83725 0.35557 0.0
C1119 C 0.53999 0.9432 0.34744 0.0
H1120 H 0.44683 0.94152 0.39225 0.0
H1121 H 0.50166 0.91059 0.42995 0.0
H1122 H 0.46908 0.9344 0.3388 0.0
H1123 H 0.434 0.89667 0.34191 0.0
H1124 H 0.43448 0.93055 0.35327 0.0
H1125 H 0.52051 0.88014 0.41305 0.0
H1126 H 0.50051 0.85914 0.38691 0.0
H1127 H 0.53705 0.89615 0.38577 0.0
H1128 H 0.45342 0.82856 0.31346 0.0
H1129 H 0.54032 0.91772 0.30679 0.0
H1130 H 0.42017 0.84579 0.35673 0.0
H1131 H 0.4445 0.83545 0.37326 0.0
H1132 H 0.42437 0.81366 0.3474 0.0
H1133 H 0.528 0.95702 0.34879 0.0
H1134 H 0.5611 0.95554 0.33619 0.0
H1135 H 0.54888 0.94231 0.36479 0.0
C1136 C 0.57405 0.51117 0.47539 0.0
C1137 C 0.59364 0.52342 0.49512 0.0
C1138 C 0.58536 0.5035 0.45587 0.0
C1139 C 0.6168 0.50777 0.45628 0.0
C1140 C 0.63672 0.52031 0.47613 0.0
C1141 C 0.62495 0.52812 0.49526 0.0
C1142 C 0.56352 0.49041 0.43494 0.0
C1143 C 0.67019 0.52483 0.47736 0.0
C1144 C 0.63358 0.45953 0.41432 0.0
C1145 C 0.6505 0.48112 0.39733 0.0
C1146 C 0.62277 0.46798 0.43371 0.0
C1147 C 0.62869 0.49866 0.43606 0.0
C1148 C 0.64597 0.52064 0.41912 0.0
C1149 C 0.6568 0.51166 0.40003 0.0
C1150 C 0.6048 0.44402 0.45161 0.0
C1151 C 0.65264 0.55353 0.42101 0.0
H1152 H 0.54982 0.50747 0.47529 0.0
H1153 H 0.63992 0.53697 0.51066 0.0
H1154 H 0.57579 0.50476 0.41997 0.0
H1155 H 0.55832 0.46651 0.43104 0.0
H1156 H 0.5402 0.48952 0.43712 0.0
H1157 H 0.68266 0.53501 0.49406 0.0
H1158 H 0.66866 0.50215 0.47461 0.0
H1159 H 0.68521 0.54035 0.46363 0.0
H1160 H 0.62866 0.43591 0.41245 0.0
H1161 H 0.66968 0.5285 0.38697 0.0
H1162 H 0.58009 0.4401 0.4533 0.0
H1163 H 0.61733 0.45263 0.46846 0.0
H1164 H 0.60278 0.42137 0.44748 0.0
H1165 H 0.62948 0.55321 0.42181 0.0
H1166 H 0.6665 0.56785 0.40639 0.0
H1167 H 0.66652 0.56496 0.43701 0.0
C1168 C 0.10478 0.51991 0.73383 0.0
C1169 C 0.07149 0.50866 0.73289 0.0
C1170 C 0.12413 0.53391 0.71494 0.0
C1171 C 0.10971 0.53617 0.69442 0.0
C1172 C 0.07591 0.52418 0.69321 0.0
C1173 C 0.05722 0.51095 0.71263 0.0
C1174 C 0.16014 0.54697 0.71718 0.0
C1175 C 0.05958 0.52552 0.67149 0.0
C1176 C 0.16716 0.59968 0.65505 0.0
C1177 C 0.17689 0.5834 0.64081 0.0
C1178 C 0.1444 0.58439 0.67208 0.0
C1179 C 0.13046 0.5519 0.67456 0.0
C1180 C 0.13872 0.53505 0.6593 0.0
C1181 C 0.16215 0.55108 0.64279 0.0
C1182 C 0.13675 0.60333 0.68827 0.0
C1183 C 0.12377 0.50028 0.66098 0.0
H1184 H 0.11586 0.51857 0.74966 0.0
H1185 H 0.03145 0.50226 0.71199 0.0
H1186 H 0.16782 0.53586 0.70424 0.0
H1187 H 0.17338 0.57231 0.71394 0.0
H1188 H 0.16749 0.54336 0.73435 0.0
H1189 H 0.03288 0.51355 0.67296 0.0
H1190 H 0.0689 0.55012 0.66709 0.0
H1191 H 0.0653 0.51458 0.65715 0.0
H1192 H 0.17858 0.6247 0.65367 0.0
H1193 H 0.16923 0.5383 0.63166 0.0
H1194 H 0.14581 0.60294 0.70569 0.0
H1195 H 0.11022 0.59307 0.68921 0.0
H1196 H 0.14793 0.62795 0.68312 0.0
H1197 H 0.13274 0.495 0.67679 0.0
H1198 H 0.1297 0.49015 0.64619 0.0
H1199 H 0.09708 0.48867 0.66203 0.0
C1200 C 0.49351 0.04977 0.88847 0.0
C1201 C 0.4951 0.06294 0.91007 0.0
C1202 C 0.50443 0.06832 0.86914 0.0
C1203 C 0.51756 0.10081 0.87158 0.0
C1204 C 0.51879 0.11415 0.89331 0.0
C1205 C 0.50738 0.095 0.91229 0.0
C1206 C 0.50242 0.05326 0.84621 0.0
C1207 C 0.53297 0.14877 0.89661 0.0
C1208 C 0.57891 0.15488 0.82943 0.0
C1209 C 0.56068 0.16398 0.8164 0.0
C1210 C 0.56491 0.13375 0.84707 0.0
C1211 C 0.53181 0.12122 0.85172 0.0
C1212 C 0.51293 0.12938 0.83811 0.0
C1213 C 0.52766 0.15083 0.82064 0.0
C1214 C 0.58588 0.12571 0.86127 0.0
C1215 C 0.47745 0.11615 0.84243 0.0
H1216 H 0.48357 0.02488 0.8867 0.0
H1217 H 0.50879 0.1052 0.92902 0.0
H1218 H 0.48954 0.0596 0.83359 0.0
H1219 H 0.52713 0.06197 0.83984 0.0
H1220 H 0.48972 0.02748 0.847 0.0
H1221 H 0.53104 0.15528 0.91446 0.0
H1222 H 0.55888 0.16137 0.89209 0.0
H1223 H 0.52047 0.15684 0.8851 0.0
H1224 H 0.60448 0.16504 0.82637 0.0
H1225 H 0.51344 0.15771 0.81059 0.0
H1226 H 0.57508 0.10011 0.86147 0.0
H1227 H 0.58724 0.13384 0.87918 0.0
H1228 H 0.61087 0.13645 0.85481 0.0
H1229 H 0.46462 0.09036 0.84276 0.0
H1230 H 0.46565 0.12302 0.82928 0.0
H1231 H 0.47454 0.12442 0.85938 0.0
C1232 C 0.53825 0.65102 0.01915 0.0
C1233 C 0.569 0.65479 0.02203 0.0
C1234 C 0.52533 0.64974 0.99732 0.0
C1235 C 0.54374 0.65262 0.97789 0.0
C1236 C 0.57551 0.65818 0.98072 0.0
C1237 C 0.58771 0.65905 0.00276 0.0
C1238 C 0.49128 0.64362 0.99503 0.0
C1239 C 0.59602 0.66168 0.96044 0.0
C1240 C 0.4955 0.61109 0.92393 0.0
C1241 C 0.49541 0.6353 0.91225 0.0
C1242 C 0.51171 0.61659 0.94508 0.0
C1243 C 0.52863 0.64714 0.95469 0.0
C1244 C 0.52968 0.6719 0.94264 0.0
C1245 C 0.51287 0.66566 0.92164 0.0
C1246 C 0.50982 0.58949 0.95748 0.0
C1247 C 0.54797 0.70485 0.95217 0.0
H1248 H 0.52383 0.64803 0.034 0.0
H1249 H 0.6113 0.66149 0.00479 0.0
H1250 H 0.49076 0.66122 0.98407 0.0
H1251 H 0.47544 0.62049 0.98664 0.0
H1252 H 0.48101 0.64398 0.0118 0.0
H1253 H 0.62119 0.66873 0.96558 0.0
H1254 H 0.58516 0.63926 0.95071 0.0
H1255 H 0.59676 0.67923 0.94874 0.0
H1256 H 0.48205 0.58755 0.91689 0.0
H1257 H 0.51315 0.68458 0.91268 0.0
H1258 H 0.49747 0.58646 0.97392 0.0
H1259 H 0.53449 0.59417 0.96153 0.0
H1260 H 0.49648 0.56734 0.94738 0.0
H1261 H 0.53654 0.70638 0.96805 0.0
H1262 H 0.54845 0.72181 0.93994 0.0
H1263 H 0.57323 0.71169 0.95671 0.0
C1264 C 0.94049 0.43376 0.21379 0.0
C1265 C 0.93788 0.41401 0.23143 0.0
C1266 C 0.92199 0.42187 0.19352 0.0
C1267 C 0.90023 0.38941 0.19076 0.0
C1268 C 0.89752 0.3693 0.20847 0.0
C1269 C 0.91644 0.38184 0.22857 0.0
C1270 C 0.92572 0.44411 0.17504 0.0
C1271 C 0.87445 0.33459 0.20624 0.0
C1272 C 0.83101 0.36549 0.14813 0.0
C1273 C 0.8421 0.35757 0.1286 0.0
C1274 C 0.84926 0.375 0.1686 0.0
C1275 C 0.87951 0.3768 0.16967 0.0
C1276 C 0.89052 0.36803 0.15027 0.0
C1277 C 0.87164 0.35844 0.12997 0.0
C1278 C 0.83653 0.38395 0.18891 0.0
C1279 C 0.92268 0.36968 0.15076 0.0
H1280 H 0.9575 0.45857 0.21568 0.0
H1281 H 0.91424 0.36648 0.24217 0.0
H1282 H 0.93269 0.43753 0.15889 0.0
H1283 H 0.90227 0.44268 0.17171 0.0
H1284 H 0.94422 0.46863 0.17963 0.0
H1285 H 0.87578 0.32206 0.22131 0.0
H1286 H 0.84928 0.32955 0.20417 0.0
H1287 H 0.87985 0.32523 0.19077 0.0
H1288 H 0.80811 0.36469 0.14739 0.0
H1289 H 0.88045 0.3524 0.11502 0.0
H1290 H 0.85284 0.40904 0.19322 0.0
H1291 H 0.83613 0.37072 0.20404 0.0
H1292 H 0.81175 0.37958 0.18569 0.0
H1293 H 0.94252 0.39422 0.1534 0.0
H1294 H 0.92696 0.36041 0.13471 0.0
H1295 H 0.92397 0.35635 0.16526 0.0
loop_
_geom_bond_atom_site_label_1
_geom_bond_atom_site_label_2
_geom_bond_distance
_geom_bond_site_symmetry_2
_ccdc_geom_bond_type
H0 O26 0.856 . S
H1 O29 0.854 . S
H2 C37 0.930 1_455 S
H3 C38 0.930 . S
H4 C40 0.930 . S
H5 C41 0.930 . S
H6 C43 0.931 . S
H7 C44 0.930 . S
H8 C46 0.930 . S
H9 C47 0.929 . S
H10 C49 0.930 . S
H11 C50 0.931 . S
H12 C52 0.930 . S
H13 C53 0.929 . S
H14 C55 0.931 . S
H15 C56 0.930 . S
H16 C58 0.930 . S
H17 C59 0.932 . S
H18 C61 0.930 . S
H19 C62 0.929 . S
H20 C64 0.931 . S
H21 C65 0.930 . S
H22 C67 0.929 . S
H23 C68 0.931 . S
H24 C70 0.930 . S
H25 C71 0.929 . S
O26 H0 0.856 . S
O26 C72 1.300 . S
O27 C72 1.209 . S
O28 C73 1.199 . S
O29 H1 0.854 . S
O29 C73 1.297 . S
C30 C31 1.404 . S
C30 C35 1.397 . S
C30 C36 1.492 . S
C31 C30 1.404 . S
C31 C32 1.396 . S
C31 C42 1.492 . S
C32 C31 1.396 . S
C32 C33 1.397 . S
C32 C48 1.509 . S
C33 C32 1.397 . S
C33 C34 1.412 . S
C33 C54 1.485 . S
C34 C33 1.412 . S
C34 C35 1.388 . S
C34 C60 1.490 . S
C35 C30 1.397 . S
C35 C34 1.388 . S
C35 C66 1.519 1_455 S
C36 C30 1.492 . S
C36 C37 1.363 1_455 S
C36 C41 1.390 1_455 S
C37 H2 0.930 1_655 S
C37 C36 1.363 1_655 S
C37 C38 1.372 . S
C38 H3 0.930 . S
C38 C37 1.372 . S
C38 C39 1.383 . S
C39 C38 1.383 . S
C39 C40 1.395 . S
C40 H4 0.930 . S
C40 C39 1.395 . S
C40 C41 1.362 . S
C41 H5 0.930 . S
C41 C36 1.390 1_655 S
C41 C40 1.362 . S
C42 C31 1.492 . S
C42 C43 1.377 . S
C42 C47 1.397 . S
C43 H6 0.931 . S
C43 C42 1.377 . S
C43 C44 1.376 . S
C44 H7 0.930 . S
C44 C43 1.376 . S
C44 C45 1.376 . S
C45 C44 1.376 . S
C45 C46 1.378 . S
C45 C72 1.486 . S
C46 H8 0.930 . S
C46 C45 1.378 . S
C46 C47 1.376 . S
C47 H9 0.929 . S
C47 C42 1.397 . S
C47 C46 1.376 . S
C48 C32 1.509 . S
C48 C49 1.391 . S
C48 C53 1.386 . S
C49 H10 0.930 . S
C49 C48 1.391 . S
C49 C50 1.375 . S
C50 H11 0.931 . S
C50 C49 1.375 . S
C50 C51 1.375 . S
C51 C50 1.375 . S
C51 C52 1.361 . S
C52 H12 0.930 . S
C52 C51 1.361 . S
C52 C53 1.399 . S
C53 H13 0.929 . S
C53 C48 1.386 . S
C53 C52 1.399 . S
C54 C33 1.485 . S
C54 C55 1.394 . S
C54 C59 1.360 . S
C55 H14 0.931 . S
C55 C54 1.394 . S
C55 C56 1.372 . S
C56 H15 0.930 . S
C56 C55 1.372 . S
C56 C57 1.397 . S
C57 C56 1.397 . S
C57 C58 1.390 . S
C57 C73 1.476 . S
C58 H16 0.930 . S
C58 C57 1.390 . S
C58 C59 1.366 . S
C59 H17 0.932 . S
C59 C54 1.360 . S
C59 C58 1.366 . S
C60 C34 1.490 . S
C60 C61 1.380 . S
C60 C65 1.386 . S
C61 H18 0.930 . S
C61 C60 1.380 . S
C61 C62 1.381 . S
C62 H19 0.929 . S
C62 C61 1.381 . S
C62 C63 1.371 . S
C63 C62 1.371 . S
C63 C64 1.380 . S
C64 H20 0.931 . S
C64 C63 1.380 . S
C64 C65 1.387 . S
C65 H21 0.930 . S
C65 C60 1.386 . S
C65 C64 1.387 . S
C66 C35 1.519 1_655 S
C66 C67 1.377 . S
C66 C71 1.361 . S
C67 H22 0.929 . S
C67 C66 1.377 . S
C67 C68 1.386 . S
C68 H23 0.931 . S
C68 C67 1.386 . S
C68 C69 1.363 . S
C69 C68 1.363 . S
C69 C70 1.385 . S
C70 H24 0.930 . S
C70 C69 1.385 . S
C70 C71 1.396 . S
C71 H25 0.929 . S
C71 C66 1.361 . S
C71 C70 1.396 . S
C72 O26 1.300 . S
C72 O27 1.209 . S
C72 C45 1.486 . S
C73 O28 1.199 . S
C73 O29 1.297 . S
C73 C57 1.476 . S
H74 O100 0.856 . S
H75 O103 0.854 . S
H76 C111 0.930 . S
H77 C112 0.930 . S
H78 C114 0.930 . S
H79 C115 0.930 . S
H80 C117 0.931 . S
H81 C118 0.930 . S
H82 C120 0.930 . S
H83 C121 0.929 . S
H84 C123 0.930 . S
H85 C124 0.931 . S
H86 C126 0.930 . S
H87 C127 0.929 . S
H88 C129 0.931 . S
H89 C130 0.930 . S
H90 C132 0.930 . S
H91 C133 0.932 . S
H92 C135 0.930 . S
H93 C136 0.929 . S
H94 C138 0.931 . S
H95 C139 0.930 . S
H96 C141 0.929 . S
H97 C142 0.931 . S
H98 C144 0.930 . S
H99 C145 0.929 . S
O100 H74 0.856 . S
O100 C146 1.300 . S
O101 C146 1.209 . S
O102 C147 1.199 . S
O103 H75 0.854 . S
O103 C147 1.297 . S
C104 C105 1.404 . S
C104 C109 1.397 . S
C104 C110 1.492 . S
C105 C104 1.404 . S
C105 C106 1.396 . S
C105 C116 1.492 . S
C106 C105 1.396 . S
C106 C107 1.397 . S
C106 C122 1.509 . S
C107 C106 1.397 . S
C107 C108 1.412 . S
C107 C128 1.485 . S
C108 C107 1.412 . S
C108 C109 1.388 . S
C108 C134 1.490 . S
C109 C104 1.397 . S
C109 C108 1.388 . S
C109 C140 1.519 1_545 S
C110 C104 1.492 . S
C110 C111 1.363 . S
C110 C115 1.390 1_545 S
C111 H76 0.930 . S
C111 C110 1.363 . S
C111 C112 1.372 1_545 S
C112 H77 0.930 . S
C112 C111 1.372 1_565 S
C112 C113 1.383 . S
C113 C112 1.383 . S
C113 C114 1.395 . S
C114 H78 0.930 . S
C114 C113 1.395 . S
C114 C115 1.362 . S
C115 H79 0.930 . S
C115 C110 1.390 1_565 S
C115 C114 1.362 . S
C116 C105 1.492 . S
C116 C117 1.377 . S
C116 C121 1.397 . S
C117 H80 0.931 . S
C117 C116 1.377 . S
C117 C118 1.376 . S
C118 H81 0.930 . S
C118 C117 1.376 . S
C118 C119 1.376 . S
C119 C118 1.376 . S
C119 C120 1.378 . S
C119 C146 1.486 . S
C120 H82 0.930 . S
C120 C119 1.378 . S
C120 C121 1.376 . S
C121 H83 0.929 . S
C121 C116 1.397 . S
C121 C120 1.376 . S
C122 C106 1.509 . S
C122 C123 1.391 . S
C122 C127 1.386 . S
C123 H84 0.930 . S
C123 C122 1.391 . S
C123 C124 1.375 . S
C124 H85 0.931 . S
C124 C123 1.375 . S
C124 C125 1.375 . S
C125 C124 1.375 . S
C125 C126 1.361 . S
C126 H86 0.930 . S
C126 C125 1.361 . S
C126 C127 1.399 . S
C127 H87 0.929 . S
C127 C122 1.386 . S
C127 C126 1.399 . S
C128 C107 1.485 . S
C128 C129 1.394 . S
C128 C133 1.360 . S
C129 H88 0.931 . S
C129 C128 1.394 . S
C129 C130 1.372 . S
C130 H89 0.930 . S
C130 C129 1.372 . S
C130 C131 1.397 . S
C131 C130 1.397 . S
C131 C132 1.390 . S
C131 C147 1.476 . S
C132 H90 0.930 . S
C132 C131 1.390 . S
C132 C133 1.366 . S
C133 H91 0.932 . S
C133 C128 1.360 . S
C133 C132 1.366 . S
C134 C108 1.490 . S
C134 C135 1.380 . S
C134 C139 1.386 . S
C135 H92 0.930 . S
C135 C134 1.380 . S
C135 C136 1.381 . S
C136 H93 0.929 . S
C136 C135 1.381 . S
C136 C137 1.371 . S
C137 C136 1.371 . S
C137 C138 1.380 . S
C138 H94 0.931 . S
C138 C137 1.380 . S
C138 C139 1.387 . S
C139 H95 0.930 . S
C139 C134 1.386 . S
C139 C138 1.387 . S
C140 C109 1.519 1_565 S
C140 C141 1.377 . S
C140 C145 1.361 . S
C141 H96 0.929 . S
C141 C140 1.377 . S
C141 C142 1.386 . S
C142 H97 0.931 . S
C142 C141 1.386 . S
C142 C143 1.363 . S
C143 C142 1.363 . S
C143 C144 1.385 . S
C144 H98 0.930 . S
C144 C143 1.385 . S
C144 C145 1.396 . S
C145 H99 0.929 . S
C145 C140 1.361 . S
C145 C144 1.396 . S
C146 O100 1.300 . S
C146 O101 1.209 . S
C146 C119 1.486 . S
C147 O102 1.199 . S
C147 O103 1.297 . S
C147 C131 1.476 . S
H148 O174 0.856 . S
H149 O177 0.854 . S
H150 C185 0.930 . S
H151 C186 0.930 . S
H152 C188 0.930 . S
H153 C189 0.930 . S
H154 C191 0.931 . S
H155 C192 0.930 . S
H156 C194 0.930 . S
H157 C195 0.929 . S
H158 C197 0.930 . S
H159 C198 0.931 . S
H160 C200 0.930 . S
H161 C201 0.929 . S
H162 C203 0.931 . S
H163 C204 0.930 . S
H164 C206 0.930 . S
H165 C207 0.932 . S
H166 C209 0.930 . S
H167 C210 0.929 . S
H168 C212 0.931 . S
H169 C213 0.930 . S
H170 C215 0.929 . S
H171 C216 0.931 . S
H172 C218 0.930 . S
H173 C219 0.929 . S
O174 H148 0.856 . S
O174 C220 1.300 . S
O175 C220 1.209 . S
O176 C221 1.199 . S
O177 H149 0.854 . S
O177 C221 1.297 . S
C178 C179 1.404 . S
C178 C183 1.397 . S
C178 C184 1.492 . S
C179 C178 1.404 . S
C179 C180 1.396 . S
C179 C190 1.492 . S
C180 C179 1.396 . S
C180 C181 1.397 . S
C180 C196 1.509 . S
C181 C180 1.397 . S
C181 C182 1.412 . S
C181 C202 1.485 . S
C182 C181 1.412 . S
C182 C183 1.388 . S
C182 C208 1.490 . S
C183 C178 1.397 . S
C183 C182 1.388 . S
C183 C214 1.519 . S
C184 C178 1.492 . S
C184 C185 1.363 . S
C184 C189 1.390 . S
C185 H150 0.930 . S
C185 C184 1.363 . S
C185 C186 1.372 . S
C186 H151 0.930 . S
C186 C185 1.372 . S
C186 C187 1.383 . S
C187 C186 1.383 . S
C187 C188 1.395 . S
C188 H152 0.930 . S
C188 C187 1.395 . S
C188 C189 1.362 . S
C189 H153 0.930 . S
C189 C184 1.390 . S
C189 C188 1.362 . S
C190 C179 1.492 . S
C190 C191 1.377 . S
C190 C195 1.397 . S
C191 H154 0.931 . S
C191 C190 1.377 . S
C191 C192 1.376 . S
C192 H155 0.930 . S
C192 C191 1.376 . S
C192 C193 1.376 . S
C193 C192 1.376 . S
C193 C194 1.378 . S
C193 C220 1.486 . S
C194 H156 0.930 . S
C194 C193 1.378 . S
C194 C195 1.376 . S
C195 H157 0.929 . S
C195 C190 1.397 . S
C195 C194 1.376 . S
C196 C180 1.509 . S
C196 C197 1.391 . S
C196 C201 1.386 . S
C197 H158 0.930 . S
C197 C196 1.391 . S
C197 C198 1.375 . S
C198 H159 0.931 . S
C198 C197 1.375 . S
C198 C199 1.375 . S
C199 C198 1.375 . S
C199 C200 1.361 . S
C200 H160 0.930 . S
C200 C199 1.361 . S
C200 C201 1.399 . S
C201 H161 0.929 . S
C201 C196 1.386 . S
C201 C200 1.399 . S
C202 C181 1.485 . S
C202 C203 1.394 . S
C202 C207 1.360 . S
C203 H162 0.931 . S
C203 C202 1.394 . S
C203 C204 1.372 . S
C204 H163 0.930 . S
C204 C203 1.372 . S
C204 C205 1.397 . S
C205 C204 1.397 . S
C205 C206 1.390 . S
C205 C221 1.476 . S
C206 H164 0.930 . S
C206 C205 1.390 . S
C206 C207 1.366 . S
C207 H165 0.932 . S
C207 C202 1.360 . S
C207 C206 1.366 . S
C208 C182 1.490 . S
C208 C209 1.380 . S
C208 C213 1.386 . S
C209 H166 0.930 . S
C209 C208 1.380 . S
C209 C210 1.381 . S
C210 H167 0.929 . S
C210 C209 1.381 . S
C210 C211 1.371 . S
C211 C210 1.371 . S
C211 C212 1.380 . S
C212 H168 0.931 . S
C212 C211 1.380 . S
C212 C213 1.387 . S
C213 H169 0.930 . S
C213 C208 1.386 . S
C213 C212 1.387 . S
C214 C183 1.519 . S
C214 C215 1.377 . S
C214 C219 1.361 . S
C215 H170 0.929 . S
C215 C214 1.377 . S
C215 C216 1.386 . S
C216 H171 0.931 . S
C216 C215 1.386 . S
C216 C217 1.363 . S
C217 C216 1.363 . S
C217 C218 1.385 . S
C218 H172 0.930 . S
C218 C217 1.385 . S
C218 C219 1.396 . S
C219 H173 0.929 . S
C219 C214 1.361 . S
C219 C218 1.396 . S
C220 O174 1.300 . S
C220 O175 1.209 . S
C220 C193 1.486 . S
C221 O176 1.199 . S
C221 O177 1.297 . S
C221 C205 1.476 . S
H222 O248 0.856 . S
H223 O251 0.854 . S
H224 C259 0.930 1_455 S
H225 C260 0.930 . S
H226 C262 0.930 . S
H227 C263 0.930 . S
H228 C265 0.931 . S
H229 C266 0.930 . S
H230 C268 0.930 . S
H231 C269 0.929 . S
H232 C271 0.930 . S
H233 C272 0.931 . S
H234 C274 0.930 . S
H235 C275 0.929 . S
H236 C277 0.931 . S
H237 C278 0.930 . S
H238 C280 0.930 . S
H239 C281 0.932 . S
H240 C283 0.930 . S
H241 C284 0.929 . S
H242 C286 0.931 . S
H243 C287 0.930 . S
H244 C289 0.929 . S
H245 C290 0.931 . S
H246 C292 0.930 . S
H247 C293 0.929 . S
O248 H222 0.856 . S
O248 C294 1.300 . S
O249 C294 1.209 . S
O250 C295 1.199 . S
O251 H223 0.854 . S
O251 C295 1.297 . S
C252 C253 1.404 . S
C252 C257 1.397 . S
C252 C258 1.492 1_455 S
C253 C252 1.404 . S
C253 C254 1.396 . S
C253 C264 1.492 . S
C254 C253 1.396 . S
C254 C255 1.397 . S
C254 C270 1.509 . S
C255 C254 1.397 . S
C255 C256 1.412 . S
C255 C276 1.485 . S
C256 C255 1.412 . S
C256 C257 1.388 . S
C256 C282 1.490 . S
C257 C252 1.397 . S
C257 C256 1.388 . S
C257 C288 1.519 1_455 S
C258 C252 1.492 1_655 S
C258 C259 1.363 . S
C258 C263 1.390 . S
C259 H224 0.930 1_655 S
C259 C258 1.363 . S
C259 C260 1.372 . S
C260 H225 0.930 . S
C260 C259 1.372 . S
C260 C261 1.383 . S
C261 C260 1.383 . S
C261 C262 1.395 . S
C262 H226 0.930 . S
C262 C261 1.395 . S
C262 C263 1.362 . S
C263 H227 0.930 . S
C263 C258 1.390 . S
C263 C262 1.362 . S
C264 C253 1.492 . S
C264 C265 1.377 . S
C264 C269 1.397 . S
C265 H228 0.931 . S
C265 C264 1.377 . S
C265 C266 1.376 . S
C266 H229 0.930 . S
C266 C265 1.376 . S
C266 C267 1.376 . S
C267 C266 1.376 . S
C267 C268 1.378 . S
C267 C294 1.486 . S
C268 H230 0.930 . S
C268 C267 1.378 . S
C268 C269 1.376 . S
C269 H231 0.929 . S
C269 C264 1.397 . S
C269 C268 1.376 . S
C270 C254 1.509 . S
C270 C271 1.391 . S
C270 C275 1.386 . S
C271 H232 0.930 . S
C271 C270 1.391 . S
C271 C272 1.375 . S
C272 H233 0.931 . S
C272 C271 1.375 . S
C272 C273 1.375 . S
C273 C272 1.375 . S
C273 C274 1.361 . S
C274 H234 0.930 . S
C274 C273 1.361 . S
C274 C275 1.399 . S
C275 H235 0.929 . S
C275 C270 1.386 . S
C275 C274 1.399 . S
C276 C255 1.485 . S
C276 C277 1.394 . S
C276 C281 1.360 . S
C277 H236 0.931 . S
C277 C276 1.394 . S
C277 C278 1.372 . S
C278 H237 0.930 . S
C278 C277 1.372 . S
C278 C279 1.397 . S
C279 C278 1.397 . S
C279 C280 1.390 . S
C279 C295 1.476 . S
C280 H238 0.930 . S
C280 C279 1.390 . S
C280 C281 1.366 . S
C281 H239 0.932 . S
C281 C276 1.360 . S
C281 C280 1.366 . S
C282 C256 1.490 . S
C282 C283 1.380 . S
C282 C287 1.386 . S
C283 H240 0.930 . S
C283 C282 1.380 . S
C283 C284 1.381 . S
C284 H241 0.929 . S
C284 C283 1.381 . S
C284 C285 1.371 . S
C285 C284 1.371 . S
C285 C286 1.380 . S
C286 H242 0.931 . S
C286 C285 1.380 . S
C286 C287 1.387 . S
C287 H243 0.930 . S
C287 C282 1.386 . S
C287 C286 1.387 . S
C288 C257 1.519 1_655 S
C288 C289 1.377 . S
C288 C293 1.361 . S
C289 H244 0.929 . S
C289 C288 1.377 . S
C289 C290 1.386 . S
C290 H245 0.931 . S
C290 C289 1.386 . S
C290 C291 1.363 . S
C291 C290 1.363 . S
C291 C292 1.385 . S
C292 H246 0.930 . S
C292 C291 1.385 . S
C292 C293 1.396 . S
C293 H247 0.929 . S
C293 C288 1.361 . S
C293 C292 1.396 . S
C294 O248 1.300 . S
C294 O249 1.209 . S
C294 C267 1.486 . S
C295 O250 1.199 . S
C295 O251 1.297 . S
C295 C279 1.476 . S
H296 O322 0.856 . S
H297 O325 0.854 . S
H298 C333 0.930 . S
H299 C334 0.930 . S
H300 C336 0.930 . S
H301 C337 0.930 . S
H302 C339 0.931 . S
H303 C340 0.930 . S
H304 C342 0.930 . S
H305 C343 0.929 . S
H306 C345 0.930 . S
H307 C346 0.931 . S
H308 C348 0.930 . S
H309 C349 0.929 . S
H310 C351 0.931 . S
H311 C352 0.930 . S
H312 C354 0.930 . S
H313 C355 0.932 . S
H314 C357 0.930 . S
H315 C358 0.929 1_545 S
H316 C360 0.931 . S
H317 C361 0.930 . S
H318 C363 0.930 . S
H319 C364 0.931 . S
H320 C366 0.930 . S
H321 C367 0.929 . S
O322 H296 0.856 . S
O322 C368 1.300 . S
O323 C368 1.209 . S
O324 C369 1.199 . S
O325 H297 0.854 . S
O325 C369 1.297 . S
C326 C327 1.398 1_545 S
C326 C331 1.398 . S
C326 C332 1.497 . S
C327 C326 1.398 1_565 S
C327 C328 1.396 . S
C327 C338 1.492 . S
C328 C327 1.396 . S
C328 C329 1.397 . S
C328 C344 1.509 . S
C329 C328 1.397 . S
C329 C330 1.412 1_556 S
C329 C350 1.485 1_556 S
C330 C329 1.412 1_554 S
C330 C331 1.388 1_564 S
C330 C356 1.490 . S
C331 C326 1.398 . S
C331 C330 1.388 1_546 S
C331 C362 1.519 1_556 S
C332 C326 1.497 . S
C332 C333 1.363 . S
C332 C337 1.390 . S
C333 H298 0.930 . S
C333 C332 1.363 . S
C333 C334 1.372 . S
C334 H299 0.930 . S
C334 C333 1.372 . S
C334 C335 1.383 . S
C335 C334 1.383 . S
C335 C336 1.395 . S
C336 H300 0.930 . S
C336 C335 1.395 . S
C336 C337 1.362 . S
C337 H301 0.930 . S
C337 C332 1.390 . S
C337 C336 1.362 . S
C338 C327 1.492 . S
C338 C339 1.377 . S
C338 C343 1.397 . S
C339 H302 0.931 . S
C339 C338 1.377 . S
C339 C340 1.376 . S
C340 H303 0.930 . S
C340 C339 1.376 . S
C340 C341 1.376 . S
C341 C340 1.376 . S
C341 C342 1.378 . S
C341 C368 1.486 . S
C342 H304 0.930 . S
C342 C341 1.378 . S
C342 C343 1.376 . S
C343 H305 0.929 . S
C343 C338 1.397 . S
C343 C342 1.376 . S
C344 C328 1.509 . S
C344 C345 1.391 . S
C344 C349 1.386 . S
C345 H306 0.930 . S
C345 C344 1.391 . S
C345 C346 1.375 . S
C346 H307 0.931 . S
C346 C345 1.375 . S
C346 C347 1.375 . S
C347 C346 1.375 . S
C347 C348 1.361 . S
C348 H308 0.930 . S
C348 C347 1.361 . S
C348 C349 1.399 . S
C349 H309 0.929 . S
C349 C344 1.386 . S
C349 C348 1.399 . S
C350 C329 1.485 1_554 S
C350 C351 1.394 . S
C350 C355 1.360 . S
C351 H310 0.931 . S
C351 C350 1.394 . S
C351 C352 1.372 . S
C352 H311 0.930 . S
C352 C351 1.372 . S
C352 C353 1.397 . S
C353 C352 1.397 . S
C353 C354 1.390 . S
C353 C369 1.476 . S
C354 H312 0.930 . S
C354 C353 1.390 . S
C354 C355 1.366 . S
C355 H313 0.932 . S
C355 C350 1.360 . S
C355 C354 1.366 . S
C356 C330 1.490 . S
C356 C357 1.380 . S
C356 C361 1.386 . S
C357 H314 0.930 . S
C357 C356 1.380 . S
C357 C358 1.381 . S
C358 H315 0.929 1_565 S
C358 C357 1.381 . S
C358 C359 1.371 . S
C359 C358 1.371 . S
C359 C360 1.380 . S
C360 H316 0.931 . S
C360 C359 1.380 . S
C360 C361 1.387 . S
C361 H317 0.930 . S
C361 C356 1.386 . S
C361 C360 1.387 . S
C362 C331 1.519 1_554 S
C362 C363 1.377 1_554 S
C362 C367 1.361 . S
C363 H318 0.930 . S
C363 C362 1.377 1_556 S
C363 C364 1.386 1_556 S
C364 H319 0.931 . S
C364 C363 1.386 1_554 S
C364 C365 1.363 . S
C365 C364 1.363 . S
C365 C366 1.385 . S
C366 H320 0.930 . S
C366 C365 1.385 . S
C366 C367 1.396 . S
C367 H321 0.929 . S
C367 C362 1.361 . S
C367 C366 1.396 . S
C368 O322 1.300 . S
C368 O323 1.209 . S
C368 C341 1.486 . S
C369 O324 1.199 . S
C369 O325 1.297 . S
C369 C353 1.476 . S
H370 O396 0.856 1_556 S
H371 O399 0.854 . S
H372 C407 0.930 . S
H373 C408 0.930 . S
H374 C410 0.930 . S
H375 C411 0.930 . S
H376 C413 0.931 . S
H377 C414 0.930 . S
H378 C416 0.930 . S
H379 C417 0.929 . S
H380 C419 0.930 . S
H381 C420 0.931 . S
H382 C422 0.930 . S
H383 C423 0.929 . S
H384 C425 0.931 . S
H385 C426 0.930 . S
H386 C428 0.930 . S
H387 C429 0.932 . S
H388 C431 0.930 . S
H389 C432 0.929 . S
H390 C434 0.931 . S
H391 C435 0.930 . S
H392 C437 0.929 . S
H393 C438 0.931 . S
H394 C440 0.930 . S
H395 C441 0.929 . S
O396 H370 0.856 1_554 S
O396 C442 1.300 . S
O397 C442 1.209 . S
O398 C443 1.199 . S
O399 H371 0.854 . S
O399 C443 1.297 . S
C400 C401 1.404 . S
C400 C405 1.397 . S
C400 C406 1.492 . S
C401 C400 1.404 . S
C401 C402 1.396 . S
C401 C412 1.492 . S
C402 C401 1.396 . S
C402 C403 1.397 . S
C402 C418 1.509 . S
C403 C402 1.397 . S
C403 C404 1.412 . S
C403 C424 1.485 . S
C404 C403 1.412 . S
C404 C405 1.388 . S
C404 C430 1.490 . S
C405 C400 1.397 . S
C405 C404 1.388 . S
C405 C436 1.519 . S
C406 C400 1.492 . S
C406 C407 1.363 . S
C406 C411 1.390 . S
C407 H372 0.930 . S
C407 C406 1.363 . S
C407 C408 1.372 . S
C408 H373 0.930 . S
C408 C407 1.372 . S
C408 C409 1.383 . S
C409 C408 1.383 . S
C409 C410 1.395 . S
C410 H374 0.930 . S
C410 C409 1.395 . S
C410 C411 1.362 . S
C411 H375 0.930 . S
C411 C406 1.390 . S
C411 C410 1.362 . S
C412 C401 1.492 . S
C412 C413 1.377 . S
C412 C417 1.397 . S
C413 H376 0.931 . S
C413 C412 1.377 . S
C413 C414 1.376 . S
C414 H377 0.930 . S
C414 C413 1.376 . S
C414 C415 1.376 . S
C415 C414 1.376 . S
C415 C416 1.378 . S
C415 C442 1.486 . S
C416 H378 0.930 . S
C416 C415 1.378 . S
C416 C417 1.376 . S
C417 H379 0.929 . S
C417 C412 1.397 . S
C417 C416 1.376 . S
C418 C402 1.509 . S
C418 C419 1.391 . S
C418 C423 1.386 . S
C419 H380 0.930 . S
C419 C418 1.391 . S
C419 C420 1.375 . S
C420 H381 0.931 . S
C420 C419 1.375 . S
C420 C421 1.375 . S
C421 C420 1.375 . S
C421 C422 1.361 . S
C422 H382 0.930 . S
C422 C421 1.361 . S
C422 C423 1.399 . S
C423 H383 0.929 . S
C423 C418 1.386 . S
C423 C422 1.399 . S
C424 C403 1.485 . S
C424 C425 1.394 . S
C424 C429 1.360 . S
C425 H384 0.931 . S
C425 C424 1.394 . S
C425 C426 1.372 . S
C426 H385 0.930 . S
C426 C425 1.372 . S
C426 C427 1.397 . S
C427 C426 1.397 . S
C427 C428 1.390 . S
C427 C443 1.476 . S
C428 H386 0.930 . S
C428 C427 1.390 . S
C428 C429 1.366 . S
C429 H387 0.932 . S
C429 C424 1.360 . S
C429 C428 1.366 . S
C430 C404 1.490 . S
C430 C431 1.380 . S
C430 C435 1.386 . S
C431 H388 0.930 . S
C431 C430 1.380 . S
C431 C432 1.381 . S
C432 H389 0.929 . S
C432 C431 1.381 . S
C432 C433 1.371 . S
C433 C432 1.371 . S
C433 C434 1.380 . S
C434 H390 0.931 . S
C434 C433 1.380 . S
C434 C435 1.387 . S
C435 H391 0.930 . S
C435 C430 1.386 . S
C435 C434 1.387 . S
C436 C405 1.519 . S
C436 C437 1.377 . S
C436 C441 1.361 . S
C437 H392 0.929 . S
C437 C436 1.377 . S
C437 C438 1.386 . S
C438 H393 0.931 . S
C438 C437 1.386 . S
C438 C439 1.363 . S
C439 C438 1.363 . S
C439 C440 1.385 . S
C440 H394 0.930 . S
C440 C439 1.385 . S
C440 C441 1.396 . S
C441 H395 0.929 . S
C441 C436 1.361 . S
C441 C440 1.396 . S
C442 O396 1.300 . S
C442 O397 1.209 . S
C442 C415 1.486 . S
C443 O398 1.199 . S
C443 O399 1.297 . S
C443 C427 1.476 . S
Mg444 O445 2.028 . S
Mg444 O451 1.986 . S
Mg444 O453 2.114 . S
Mg444 O454 2.251 . S
Mg444 O457 2.010 . S
O445 Mg444 2.028 . S
O445 C448 1.250 . S
O446 Mg447 2.028 . S
O446 C448 1.248 . S
Mg447 O446 2.028 . S
Mg447 O452 2.032 . S
Mg447 O454 2.079 . S
C448 O445 1.250 . S
C448 O446 1.248 . S
C449 O450 1.264 . S
C449 O457 1.249 . S
O450 C449 1.264 . S
O451 Mg444 1.986 . S
O451 C455 1.246 . S
O452 Mg447 2.032 . S
O452 C455 1.259 . S
O453 Mg444 2.114 . S
O453 C456 1.252 . S
O454 Mg444 2.251 . S
O454 Mg447 2.079 . S
O454 C456 1.273 . S
C455 O451 1.246 . S
C455 O452 1.259 . S
C456 O453 1.252 . S
C456 O454 1.273 . S
O457 Mg444 2.010 . S
O457 C449 1.249 . S
Mg458 O459 2.028 . S
Mg458 O465 1.986 . S
Mg458 O467 2.114 . S
Mg458 O468 2.251 . S
Mg458 O471 2.010 . S
O459 Mg458 2.028 . S
O459 C462 1.250 . S
O460 Mg461 2.028 . S
O460 C462 1.248 . S
Mg461 O460 2.028 . S
Mg461 O466 2.032 . S
Mg461 O468 2.079 . S
C462 O459 1.250 . S
C462 O460 1.248 . S
C463 O464 1.264 . S
C463 O471 1.249 . S
O464 C463 1.264 . S
O465 Mg458 1.986 . S
O465 C469 1.246 . S
O466 Mg461 2.032 . S
O466 C469 1.259 . S
O467 Mg458 2.114 . S
O467 C470 1.252 . S
O468 Mg458 2.251 . S
O468 Mg461 2.079 . S
O468 C470 1.273 . S
C469 O465 1.246 . S
C469 O466 1.259 . S
C470 O467 1.252 . S
C470 O468 1.273 . S
O471 Mg458 2.010 . S
O471 C463 1.249 . S
Mg472 O473 2.028 . S
Mg472 O479 1.986 . S
Mg472 O481 2.114 . S
Mg472 O482 2.251 . S
Mg472 O485 2.010 . S
O473 Mg472 2.028 . S
O473 C476 1.250 . S
O474 Mg475 2.028 . S
O474 C476 1.248 . S
Mg475 O474 2.028 . S
Mg475 O480 2.032 . S
Mg475 O482 2.079 . S
C476 O473 1.250 . S
C476 O474 1.248 . S
C477 O478 1.264 . S
C477 O485 1.249 . S
O478 C477 1.264 . S
O479 Mg472 1.986 . S
O479 C483 1.246 . S
O480 Mg475 2.032 . S
O480 C483 1.259 . S
O481 Mg472 2.114 . S
O481 C484 1.252 . S
O482 Mg472 2.251 . S
O482 Mg475 2.079 . S
O482 C484 1.273 . S
C483 O479 1.246 . S
C483 O480 1.259 . S
C484 O481 1.252 . S
C484 O482 1.273 . S
O485 Mg472 2.010 . S
O485 C477 1.249 . S
Mg486 O487 2.028 . S
Mg486 O493 1.986 . S
Mg486 O495 2.114 . S
Mg486 O496 2.251 . S
Mg486 O499 2.010 . S
O487 Mg486 2.028 . S
O487 C490 1.250 . S
O488 Mg489 2.028 . S
O488 C490 1.248 . S
Mg489 O488 2.028 . S
Mg489 O494 2.032 . S
Mg489 O496 2.079 . S
C490 O487 1.250 . S
C490 O488 1.248 . S
C491 O492 1.264 . S
C491 O499 1.249 . S
O492 C491 1.264 . S
O493 Mg486 1.986 . S
O493 C497 1.246 . S
O494 Mg489 2.032 . S
O494 C497 1.259 . S
O495 Mg486 2.114 . S
O495 C498 1.252 . S
O496 Mg486 2.251 . S
O496 Mg489 2.079 . S
O496 C498 1.273 . S
C497 O493 1.246 . S
C497 O494 1.259 . S
C498 O495 1.252 . S
C498 O496 1.273 . S
O499 Mg486 2.010 . S
O499 C491 1.249 . S
Mg500 O501 2.028 . S
Mg500 O507 1.986 . S
Mg500 O509 2.114 . S
Mg500 O510 2.251 . S
Mg500 O513 2.010 . S
O501 Mg500 2.028 . S
O501 C504 1.250 . S
O502 Mg503 2.028 . S
O502 C504 1.248 . S
Mg503 O502 2.028 . S
Mg503 O508 2.032 . S
Mg503 O510 2.079 . S
C504 O501 1.250 . S
C504 O502 1.248 . S
C505 O506 1.264 . S
C505 O513 1.249 . S
O506 C505 1.264 . S
O507 Mg500 1.986 . S
O507 C511 1.246 . S
O508 Mg503 2.032 . S
O508 C511 1.259 . S
O509 Mg500 2.114 . S
O509 C512 1.252 . S
O510 Mg500 2.251 . S
O510 Mg503 2.079 . S
O510 C512 1.273 . S
C511 O507 1.246 . S
C511 O508 1.259 . S
C512 O509 1.252 . S
C512 O510 1.273 . S
O513 Mg500 2.010 . S
O513 C505 1.249 . S
Mg514 O515 2.028 . S
Mg514 O521 1.986 . S
Mg514 O523 2.114 . S
Mg514 O524 2.251 . S
Mg514 O527 2.010 . S
O515 Mg514 2.028 . S
O515 C518 1.250 . S
O516 Mg517 2.028 . S
O516 C518 1.248 . S
Mg517 O516 2.028 . S
Mg517 O522 2.032 . S
Mg517 O524 2.079 . S
C518 O515 1.250 . S
C518 O516 1.248 . S
C519 O520 1.264 . S
C519 O527 1.249 . S
O520 C519 1.264 . S
O521 Mg514 1.986 . S
O521 C525 1.246 . S
O522 Mg517 2.032 . S
O522 C525 1.259 . S
O523 Mg514 2.114 . S
O523 C526 1.252 . S
O524 Mg514 2.251 . S
O524 Mg517 2.079 . S
O524 C526 1.273 . S
C525 O521 1.246 . S
C525 O522 1.259 . S
C526 O523 1.252 . S
C526 O524 1.273 . S
O527 Mg514 2.010 . S
O527 C519 1.249 . S
C528 C529 1.391 . S
C528 C530 1.394 . S
C528 H544 0.931 . S
C529 C528 1.391 . S
C529 C533 1.376 . S
C530 C528 1.394 . S
C530 C531 1.369 . S
C530 C534 1.531 . S
C531 C530 1.369 . S
C531 C532 1.410 . S
C531 C539 1.503 . S
C532 C531 1.410 . S
C532 C533 1.392 . S
C532 C535 1.511 . S
C533 C529 1.376 . S
C533 C532 1.392 . S
C533 H545 0.929 . S
C534 C530 1.531 . S
C534 H546 0.960 . S
C534 H547 0.962 . S
C534 H548 0.960 . S
C535 C532 1.511 . S
C535 H549 0.961 . S
C535 H550 0.961 . S
C535 H551 0.961 . S
C536 C537 1.370 . S
C536 C538 1.363 . S
C536 H552 0.931 . S
C537 C536 1.370 . S
C537 C541 1.408 . S
C538 C536 1.363 . S
C538 C539 1.370 . S
C538 C542 1.524 . S
C539 C531 1.503 . S
C539 C538 1.370 . S
C539 C540 1.403 . S
C540 C539 1.403 . S
C540 C541 1.404 . S
C540 C543 1.539 . S
C541 C537 1.408 . S
C541 C540 1.404 . S
C541 H553 0.930 . S
C542 C538 1.524 . S
C542 H554 0.956 . S
C542 H555 0.961 . S
C542 H556 0.961 . S
C543 C540 1.539 . S
C543 H557 0.958 . S
C543 H558 0.961 . S
C543 H559 0.960 . S
H544 C528 0.931 . S
H545 C533 0.929 . S
H546 C534 0.960 . S
H547 C534 0.962 . S
H548 C534 0.960 . S
H549 C535 0.961 . S
H550 C535 0.961 . S
H551 C535 0.961 . S
H552 C536 0.931 . S
H553 C541 0.930 . S
H554 C542 0.956 . S
H555 C542 0.961 . S
H556 C542 0.961 . S
H557 C543 0.958 . S
H558 C543 0.961 . S
H559 C543 0.960 . S
C560 C561 1.391 . S
C560 C562 1.394 . S
C560 H576 0.931 . S
C561 C560 1.391 . S
C561 C565 1.376 . S
C562 C560 1.394 . S
C562 C563 1.369 . S
C562 C566 1.531 . S
C563 C562 1.369 . S
C563 C564 1.410 . S
C563 C571 1.503 . S
C564 C563 1.410 . S
C564 C565 1.392 . S
C564 C567 1.511 . S
C565 C561 1.376 . S
C565 C564 1.392 . S
C565 H577 0.929 . S
C566 C562 1.531 . S
C566 H578 0.960 . S
C566 H579 0.962 . S
C566 H580 0.960 . S
C567 C564 1.511 . S
C567 H581 0.961 . S
C567 H582 0.961 . S
C567 H583 0.961 . S
C568 C569 1.370 . S
C568 C570 1.363 . S
C568 H584 0.931 . S
C569 C568 1.370 . S
C569 C573 1.408 . S
C570 C568 1.363 . S
C570 C571 1.370 . S
C570 C574 1.524 . S
C571 C563 1.503 . S
C571 C570 1.370 . S
C571 C572 1.403 . S
C572 C571 1.403 . S
C572 C573 1.404 . S
C572 C575 1.539 . S
C573 C569 1.408 . S
C573 C572 1.404 . S
C573 H585 0.930 . S
C574 C570 1.524 . S
C574 H586 0.956 . S
C574 H587 0.961 . S
C574 H588 0.961 . S
C575 C572 1.539 . S
C575 H589 0.958 . S
C575 H590 0.961 . S
C575 H591 0.960 . S
H576 C560 0.931 . S
H577 C565 0.929 . S
H578 C566 0.960 . S
H579 C566 0.962 . S
H580 C566 0.960 . S
H581 C567 0.961 . S
H582 C567 0.961 . S
H583 C567 0.961 . S
H584 C568 0.931 . S
H585 C573 0.930 . S
H586 C574 0.956 . S
H587 C574 0.961 . S
H588 C574 0.961 . S
H589 C575 0.958 . S
H590 C575 0.961 . S
H591 C575 0.960 . S
C592 C593 1.391 . S
C592 C594 1.394 . S
C592 H608 0.931 . S
C593 C592 1.391 . S
C593 C597 1.376 . S
C594 C592 1.394 . S
C594 C595 1.369 . S
C594 C598 1.531 . S
C595 C594 1.369 . S
C595 C596 1.410 . S
C595 C603 1.503 . S
C596 C595 1.410 . S
C596 C597 1.392 . S
C596 C599 1.511 . S
C597 C593 1.376 . S
C597 C596 1.392 . S
C597 H609 0.929 . S
C598 C594 1.531 . S
C598 H610 0.960 . S
C598 H611 0.962 . S
C598 H612 0.960 . S
C599 C596 1.511 . S
C599 H613 0.961 . S
C599 H614 0.961 . S
C599 H615 0.961 . S
C600 C601 1.370 . S
C600 C602 1.363 . S
C600 H616 0.931 . S
C601 C600 1.370 . S
C601 C605 1.408 . S
C602 C600 1.363 . S
C602 C603 1.370 . S
C602 C606 1.524 . S
C603 C595 1.503 . S
C603 C602 1.370 . S
C603 C604 1.403 . S
C604 C603 1.403 . S
C604 C605 1.404 . S
C604 C607 1.539 . S
C605 C601 1.408 . S
C605 C604 1.404 . S
C605 H617 0.930 . S
C606 C602 1.524 . S
C606 H618 0.956 . S
C606 H619 0.961 . S
C606 H620 0.961 . S
C607 C604 1.539 . S
C607 H621 0.958 . S
C607 H622 0.961 . S
C607 H623 0.960 . S
H608 C592 0.931 . S
H609 C597 0.929 . S
H610 C598 0.960 . S
H611 C598 0.962 . S
H612 C598 0.960 . S
H613 C599 0.961 . S
H614 C599 0.961 . S
H615 C599 0.961 . S
H616 C600 0.931 . S
H617 C605 0.930 . S
H618 C606 0.956 . S
H619 C606 0.961 . S
H620 C606 0.961 . S
H621 C607 0.958 . S
H622 C607 0.961 . S
H623 C607 0.960 . S
C624 C625 1.391 . S
C624 C626 1.394 . S
C624 H640 0.931 . S
C625 C624 1.391 . S
C625 C629 1.376 . S
C626 C624 1.394 . S
C626 C627 1.369 . S
C626 C630 1.531 . S
C627 C626 1.369 . S
C627 C628 1.410 . S
C627 C635 1.503 . S
C628 C627 1.410 . S
C628 C629 1.392 . S
C628 C631 1.511 . S
C629 C625 1.376 . S
C629 C628 1.392 . S
C629 H641 0.929 . S
C630 C626 1.531 . S
C630 H642 0.960 . S
C630 H643 0.962 . S
C630 H644 0.960 . S
C631 C628 1.511 . S
C631 H645 0.961 . S
C631 H646 0.961 . S
C631 H647 0.961 . S
C632 C633 1.370 . S
C632 C634 1.363 . S
C632 H648 0.931 . S
C633 C632 1.370 . S
C633 C637 1.408 . S
C634 C632 1.363 . S
C634 C635 1.370 . S
C634 C638 1.524 . S
C635 C627 1.503 . S
C635 C634 1.370 . S
C635 C636 1.403 . S
C636 C635 1.403 . S
C636 C637 1.404 . S
C636 C639 1.539 . S
C637 C633 1.408 . S
C637 C636 1.404 . S
C637 H649 0.930 . S
C638 C634 1.524 . S
C638 H650 0.956 . S
C638 H651 0.961 . S
C638 H652 0.961 . S
C639 C636 1.539 . S
C639 H653 0.958 . S
C639 H654 0.961 . S
C639 H655 0.960 . S
H640 C624 0.931 . S
H641 C629 0.929 . S
H642 C630 0.960 . S
H643 C630 0.962 . S
H644 C630 0.960 . S
H645 C631 0.961 . S
H646 C631 0.961 . S
H647 C631 0.961 . S
H648 C632 0.931 . S
H649 C637 0.930 . S
H650 C638 0.956 . S
H651 C638 0.961 . S
H652 C638 0.961 . S
H653 C639 0.958 . S
H654 C639 0.961 . S
H655 C639 0.960 . S
C656 C657 1.391 . S
C656 C658 1.394 . S
C656 H672 0.931 . S
C657 C656 1.391 . S
C657 C661 1.376 . S
C658 C656 1.394 . S
C658 C659 1.369 . S
C658 C662 1.531 . S
C659 C658 1.369 . S
C659 C660 1.410 . S
C659 C667 1.503 . S
C660 C659 1.410 . S
C660 C661 1.392 . S
C660 C663 1.511 . S
C661 C657 1.376 . S
C661 C660 1.392 . S
C661 H673 0.929 . S
C662 C658 1.531 . S
C662 H674 0.960 . S
C662 H675 0.962 . S
C662 H676 0.960 . S
C663 C660 1.511 . S
C663 H677 0.961 . S
C663 H678 0.961 . S
C663 H679 0.961 . S
C664 C665 1.370 . S
C664 C666 1.363 . S
C664 H680 0.931 . S
C665 C664 1.370 . S
C665 C669 1.408 . S
C666 C664 1.363 . S
C666 C667 1.370 . S
C666 C670 1.524 . S
C667 C659 1.503 . S
C667 C666 1.370 . S
C667 C668 1.403 . S
C668 C667 1.403 . S
C668 C669 1.404 . S
C668 C671 1.539 . S
C669 C665 1.408 . S
C669 C668 1.404 . S
C669 H681 0.930 . S
C670 C666 1.524 . S
C670 H682 0.956 . S
C670 H683 0.961 . S
C670 H684 0.961 . S
C671 C668 1.539 . S
C671 H685 0.958 . S
C671 H686 0.961 . S
C671 H687 0.960 . S
H672 C656 0.931 . S
H673 C661 0.929 . S
H674 C662 0.960 . S
H675 C662 0.962 . S
H676 C662 0.960 . S
H677 C663 0.961 . S
H678 C663 0.961 . S
H679 C663 0.961 . S
H680 C664 0.931 . S
H681 C669 0.930 . S
H682 C670 0.956 . S
H683 C670 0.961 . S
H684 C670 0.961 . S
H685 C671 0.958 . S
H686 C671 0.961 . S
H687 C671 0.960 . S
C688 C689 1.391 . S
C688 C690 1.394 . S
C688 H704 0.931 . S
C689 C688 1.391 . S
C689 C693 1.376 . S
C690 C688 1.394 . S
C690 C691 1.369 . S
C690 C694 1.531 . S
C691 C690 1.369 . S
C691 C692 1.410 . S
C691 C699 1.503 . S
C692 C691 1.410 . S
C692 C693 1.392 . S
C692 C695 1.511 . S
C693 C689 1.376 . S
C693 C692 1.392 . S
C693 H705 0.929 . S
C694 C690 1.531 . S
C694 H706 0.960 . S
C694 H707 0.962 . S
C694 H708 0.960 . S
C695 C692 1.511 . S
C695 H709 0.961 . S
C695 H710 0.961 . S
C695 H711 0.961 . S
C696 C697 1.370 . S
C696 C698 1.363 . S
C696 H712 0.931 . S
C697 C696 1.370 . S
C697 C701 1.408 . S
C698 C696 1.363 . S
C698 C699 1.370 . S
C698 C702 1.524 . S
C699 C691 1.503 . S
C699 C698 1.370 . S
C699 C700 1.403 . S
C700 C699 1.403 . S
C700 C701 1.404 . S
C700 C703 1.539 . S
C701 C697 1.408 . S
C701 C700 1.404 . S
C701 H713 0.930 . S
C702 C698 1.524 . S
C702 H714 0.956 . S
C702 H715 0.961 . S
C702 H716 0.961 . S
C703 C700 1.539 . S
C703 H717 0.958 . S
C703 H718 0.961 . S
C703 H719 0.960 . S
H704 C688 0.931 . S
H705 C693 0.929 . S
H706 C694 0.960 . S
H707 C694 0.962 . S
H708 C694 0.960 . S
H709 C695 0.961 . S
H710 C695 0.961 . S
H711 C695 0.961 . S
H712 C696 0.931 . S
H713 C701 0.930 . S
H714 C702 0.956 . S
H715 C702 0.961 . S
H716 C702 0.961 . S
H717 C703 0.958 . S
H718 C703 0.961 . S
H719 C703 0.960 . S
C720 C721 1.391 . S
C720 C722 1.394 . S
C720 H736 0.931 . S
C721 C720 1.391 . S
C721 C725 1.376 . S
C722 C720 1.394 . S
C722 C723 1.369 . S
C722 C726 1.531 . S
C723 C722 1.369 . S
C723 C724 1.410 . S
C723 C731 1.503 . S
C724 C723 1.410 . S
C724 C725 1.392 . S
C724 C727 1.511 . S
C725 C721 1.376 . S
C725 C724 1.392 . S
C725 H737 0.929 . S
C726 C722 1.531 . S
C726 H738 0.960 . S
C726 H739 0.962 . S
C726 H740 0.960 . S
C727 C724 1.511 . S
C727 H741 0.961 . S
C727 H742 0.961 . S
C727 H743 0.961 . S
C728 C729 1.370 . S
C728 C730 1.363 . S
C728 H744 0.931 . S
C729 C728 1.370 . S
C729 C733 1.408 . S
C730 C728 1.363 . S
C730 C731 1.370 . S
C730 C734 1.524 . S
C731 C723 1.503 . S
C731 C730 1.370 . S
C731 C732 1.403 . S
C732 C731 1.403 . S
C732 C733 1.404 . S
C732 C735 1.539 . S
C733 C729 1.408 . S
C733 C732 1.404 . S
C733 H745 0.930 . S
C734 C730 1.524 . S
C734 H746 0.956 . S
C734 H747 0.961 . S
C734 H748 0.961 . S
C735 C732 1.539 . S
C735 H749 0.958 . S
C735 H750 0.961 . S
C735 H751 0.960 . S
H736 C720 0.931 . S
H737 C725 0.929 . S
H738 C726 0.960 . S
H739 C726 0.962 . S
H740 C726 0.960 . S
H741 C727 0.961 . S
H742 C727 0.961 . S
H743 C727 0.961 . S
H744 C728 0.931 . S
H745 C733 0.930 . S
H746 C734 0.956 . S
H747 C734 0.961 . S
H748 C734 0.961 . S
H749 C735 0.958 . S
H750 C735 0.961 . S
H751 C735 0.960 . S
C752 C753 1.391 . S
C752 C754 1.394 . S
C752 H768 0.931 . S
C753 C752 1.391 . S
C753 C757 1.376 . S
C754 C752 1.394 . S
C754 C755 1.369 . S
C754 C758 1.531 . S
C755 C754 1.369 . S
C755 C756 1.410 . S
C755 C763 1.503 . S
C756 C755 1.410 . S
C756 C757 1.392 . S
C756 C759 1.511 . S
C757 C753 1.376 . S
C757 C756 1.392 . S
C757 H769 0.929 . S
C758 C754 1.531 . S
C758 H770 0.960 . S
C758 H771 0.962 . S
C758 H772 0.960 . S
C759 C756 1.511 . S
C759 H773 0.961 . S
C759 H774 0.961 . S
C759 H775 0.961 . S
C760 C761 1.370 . S
C760 C762 1.363 . S
C760 H776 0.931 . S
C761 C760 1.370 . S
C761 C765 1.408 . S
C762 C760 1.363 . S
C762 C763 1.370 . S
C762 C766 1.524 . S
C763 C755 1.503 . S
C763 C762 1.370 . S
C763 C764 1.403 . S
C764 C763 1.403 . S
C764 C765 1.404 . S
C764 C767 1.539 . S
C765 C761 1.408 . S
C765 C764 1.404 . S
C765 H777 0.930 . S
C766 C762 1.524 . S
C766 H778 0.956 . S
C766 H779 0.961 . S
C766 H780 0.961 . S
C767 C764 1.539 . S
C767 H781 0.958 . S
C767 H782 0.961 . S
C767 H783 0.960 . S
H768 C752 0.931 . S
H769 C757 0.929 . S
H770 C758 0.960 . S
H771 C758 0.962 . S
H772 C758 0.960 . S
H773 C759 0.961 . S
H774 C759 0.961 . S
H775 C759 0.961 . S
H776 C760 0.931 . S
H777 C765 0.930 . S
H778 C766 0.956 . S
H779 C766 0.961 . S
H780 C766 0.961 . S
H781 C767 0.958 . S
H782 C767 0.961 . S
H783 C767 0.960 . S
C784 C785 1.391 . S
C784 C786 1.394 . S
C784 H800 0.931 . S
C785 C784 1.391 . S
C785 C789 1.376 . S
C786 C784 1.394 . S
C786 C787 1.369 . S
C786 C790 1.531 . S
C787 C786 1.369 . S
C787 C788 1.410 . S
C787 C795 1.503 . S
C788 C787 1.410 . S
C788 C789 1.392 . S
C788 C791 1.511 . S
C789 C785 1.376 . S
C789 C788 1.392 . S
C789 H801 0.929 . S
C790 C786 1.531 . S
C790 H802 0.960 . S
C790 H803 0.962 . S
C790 H804 0.960 . S
C791 C788 1.511 . S
C791 H805 0.961 . S
C791 H806 0.961 . S
C791 H807 0.961 . S
C792 C793 1.370 . S
C792 C794 1.363 . S
C792 H808 0.931 . S
C793 C792 1.370 . S
C793 C797 1.408 . S
C794 C792 1.363 . S
C794 C795 1.370 . S
C794 C798 1.524 . S
C795 C787 1.503 . S
C795 C794 1.370 . S
C795 C796 1.403 . S
C796 C795 1.403 . S
C796 C797 1.404 . S
C796 C799 1.539 . S
C797 C793 1.408 . S
C797 C796 1.404 . S
C797 H809 0.930 . S
C798 C794 1.524 . S
C798 H810 0.956 . S
C798 H811 0.961 . S
C798 H812 0.961 . S
C799 C796 1.539 . S
C799 H813 0.958 . S
C799 H814 0.961 . S
C799 H815 0.960 . S
H800 C784 0.931 . S
H801 C789 0.929 . S
H802 C790 0.960 . S
H803 C790 0.962 . S
H804 C790 0.960 . S
H805 C791 0.961 . S
H806 C791 0.961 . S
H807 C791 0.961 . S
H808 C792 0.931 . S
H809 C797 0.930 . S
H810 C798 0.956 . S
H811 C798 0.961 . S
H812 C798 0.961 . S
H813 C799 0.958 . S
H814 C799 0.961 . S
H815 C799 0.960 . S
C816 C817 1.391 . S
C816 C818 1.394 . S
C816 H832 0.967 . S
C817 C816 1.391 . S
C817 C821 1.376 . S
C818 C816 1.394 . S
C818 C819 1.369 . S
C818 C822 1.531 . S
C819 C818 1.369 . S
C819 C820 1.410 . S
C819 C827 1.503 . S
C820 C819 1.410 . S
C820 C821 1.392 . S
C820 C823 1.511 . S
C821 C817 1.376 . S
C821 C820 1.392 . S
C821 H833 0.929 . S
C822 C818 1.531 . S
C822 H834 0.960 . S
C822 H835 0.962 . S
C822 H836 0.960 1_554 S
C823 C820 1.511 . S
C823 H837 0.961 . S
C823 H838 0.961 . S
C823 H839 0.961 . S
C824 C825 1.370 . S
C824 C826 1.363 . S
C824 H840 0.931 . S
C825 C824 1.370 . S
C825 C829 1.408 . S
C826 C824 1.363 . S
C826 C827 1.370 . S
C826 C830 1.524 . S
C827 C819 1.503 . S
C827 C826 1.370 . S
C827 C828 1.403 . S
C828 C827 1.403 . S
C828 C829 1.404 . S
C828 C831 1.539 . S
C829 C825 1.408 . S
C829 C828 1.404 . S
C829 H841 0.930 . S
C830 C826 1.524 . S
C830 H842 0.956 . S
C830 H843 0.961 . S
C830 H844 0.961 . S
C831 C828 1.539 . S
C831 H845 0.999 . S
C831 H846 0.961 . S
C831 H847 0.960 . S
H832 C816 0.967 . S
H833 C821 0.929 . S
H834 C822 0.960 . S
H835 C822 0.962 . S
H836 C822 0.960 1_556 S
H837 C823 0.961 . S
H838 C823 0.961 . S
H839 C823 0.961 . S
H840 C824 0.931 . S
H841 C829 0.930 . S
H842 C830 0.956 . S
H843 C830 0.961 . S
H844 C830 0.961 . S
H845 C831 0.999 . S
H846 C831 0.961 . S
H847 C831 0.960 . S
C848 C849 1.391 . S
C848 C850 1.394 . S
C848 H864 0.931 . S
C849 C848 1.391 . S
C849 C853 1.376 . S
C850 C848 1.394 . S
C850 C851 1.369 . S
C850 C854 1.531 . S
C851 C850 1.369 . S
C851 C852 1.410 . S
C851 C859 1.503 . S
C852 C851 1.410 . S
C852 C853 1.392 . S
C852 C855 1.511 . S
C853 C849 1.376 . S
C853 C852 1.392 . S
C853 H865 0.929 . S
C854 C850 1.531 . S
C854 H866 0.960 . S
C854 H867 0.962 . S
C854 H868 0.960 . S
C855 C852 1.511 . S
C855 H869 0.961 . S
C855 H870 0.961 . S
C855 H871 0.961 . S
C856 C857 1.370 . S
C856 C858 1.363 . S
C856 H872 0.931 . S
C857 C856 1.370 . S
C857 C861 1.408 . S
C858 C856 1.363 . S
C858 C859 1.370 . S
C858 C862 1.524 . S
C859 C851 1.503 . S
C859 C858 1.370 . S
C859 C860 1.403 . S
C860 C859 1.403 . S
C860 C861 1.404 . S
C860 C863 1.539 . S
C861 C857 1.408 . S
C861 C860 1.404 . S
C861 H873 0.930 . S
C862 C858 1.524 . S
C862 H874 0.956 . S
C862 H875 0.961 . S
C862 H876 0.961 . S
C863 C860 1.539 . S
C863 H877 0.958 . S
C863 H878 0.961 . S
C863 H879 0.960 . S
H864 C848 0.931 . S
H865 C853 0.929 . S
H866 C854 0.960 . S
H867 C854 0.962 . S
H868 C854 0.960 . S
H869 C855 0.961 . S
H870 C855 0.961 . S
H871 C855 0.961 . S
H872 C856 0.931 . S
H873 C861 0.930 . S
H874 C862 0.956 . S
H875 C862 0.961 . S
H876 C862 0.961 . S
H877 C863 0.958 . S
H878 C863 0.961 . S
H879 C863 0.960 . S
C880 C881 1.391 . S
C880 C882 1.394 . S
C880 H896 0.931 . S
C881 C880 1.391 . S
C881 C885 1.376 . S
C882 C880 1.394 . S
C882 C883 1.369 . S
C882 C886 1.531 . S
C883 C882 1.369 . S
C883 C884 1.410 . S
C883 C891 1.503 . S
C884 C883 1.410 . S
C884 C885 1.392 . S
C884 C887 1.511 . S
C885 C881 1.376 . S
C885 C884 1.392 . S
C885 H897 0.929 . S
C886 C882 1.531 . S
C886 H898 0.960 . S
C886 H899 0.962 . S
C886 H900 0.960 . S
C887 C884 1.511 . S
C887 H901 0.961 . S
C887 H902 0.961 . S
C887 H903 0.961 . S
C888 C889 1.370 . S
C888 C890 1.363 . S
C888 H904 0.931 . S
C889 C888 1.370 . S
C889 C893 1.408 . S
C890 C888 1.363 . S
C890 C891 1.370 . S
C890 C894 1.524 . S
C891 C883 1.503 . S
C891 C890 1.370 . S
C891 C892 1.403 . S
C892 C891 1.403 . S
C892 C893 1.404 . S
C892 C895 1.539 . S
C893 C889 1.408 . S
C893 C892 1.404 . S
C893 H905 0.930 . S
C894 C890 1.524 . S
C894 H906 0.956 . S
C894 H907 0.961 . S
C894 H908 0.961 . S
C895 C892 1.539 . S
C895 H909 0.958 . S
C895 H910 0.961 . S
C895 H911 0.960 . S
H896 C880 0.931 . S
H897 C885 0.929 . S
H898 C886 0.960 . S
H899 C886 0.962 . S
H900 C886 0.960 . S
H901 C887 0.961 . S
H902 C887 0.961 . S
H903 C887 0.961 . S
H904 C888 0.931 . S
H905 C893 0.930 . S
H906 C894 0.956 . S
H907 C894 0.961 . S
H908 C894 0.961 . S
H909 C895 0.958 . S
H910 C895 0.961 . S
H911 C895 0.960 . S
C912 C913 1.391 . S
C912 C914 1.394 . S
C912 H928 0.931 . S
C913 C912 1.391 . S
C913 C917 1.376 . S
C914 C912 1.394 . S
C914 C915 1.369 . S
C914 C918 1.531 . S
C915 C914 1.369 . S
C915 C916 1.410 . S
C915 C923 1.503 . S
C916 C915 1.410 . S
C916 C917 1.392 . S
C916 C919 1.511 . S
C917 C913 1.376 . S
C917 C916 1.392 . S
C917 H929 0.929 . S
C918 C914 1.531 . S
C918 H930 0.960 . S
C918 H931 0.962 . S
C918 H932 0.960 . S
C919 C916 1.511 . S
C919 H933 0.961 . S
C919 H934 0.961 . S
C919 H935 0.961 . S
C920 C921 1.370 . S
C920 C922 1.363 . S
C920 H936 0.931 . S
C921 C920 1.370 . S
C921 C925 1.408 . S
C922 C920 1.363 . S
C922 C923 1.370 . S
C922 C926 1.524 . S
C923 C915 1.503 . S
C923 C922 1.370 . S
C923 C924 1.403 . S
C924 C923 1.403 . S
C924 C925 1.404 . S
C924 C927 1.539 . S
C925 C921 1.408 . S
C925 C924 1.404 . S
C925 H937 0.930 . S
C926 C922 1.524 . S
C926 H938 0.956 . S
C926 H939 0.961 . S
C926 H940 0.961 . S
C927 C924 1.539 . S
C927 H941 0.958 . S
C927 H942 0.961 . S
C927 H943 0.960 . S
H928 C912 0.931 . S
H929 C917 0.929 . S
H930 C918 0.960 . S
H931 C918 0.962 . S
H932 C918 0.960 . S
H933 C919 0.961 . S
H934 C919 0.961 . S
H935 C919 0.961 . S
H936 C920 0.931 . S
H937 C925 0.930 . S
H938 C926 0.956 . S
H939 C926 0.961 . S
H940 C926 0.961 . S
H941 C927 0.958 . S
H942 C927 0.961 . S
H943 C927 0.960 . S
C944 C945 1.391 . S
C944 C946 1.394 . S
C944 H960 0.931 . S
C945 C944 1.391 . S
C945 C949 1.376 . S
C946 C944 1.394 . S
C946 C947 1.369 . S
C946 C950 1.531 . S
C947 C946 1.369 . S
C947 C948 1.410 . S
C947 C955 1.503 . S
C948 C947 1.410 . S
C948 C949 1.392 . S
C948 C951 1.511 . S
C949 C945 1.376 . S
C949 C948 1.392 . S
C949 H961 0.929 . S
C950 C946 1.531 . S
C950 H962 0.960 . S
C950 H963 0.962 . S
C950 H964 0.960 . S
C951 C948 1.511 . S
C951 H965 0.961 . S
C951 H966 0.961 . S
C951 H967 0.961 . S
C952 C953 1.370 . S
C952 C954 1.363 . S
C952 H968 0.931 . S
C953 C952 1.370 . S
C953 C957 1.408 . S
C954 C952 1.363 . S
C954 C955 1.370 . S
C954 C958 1.524 . S
C955 C947 1.503 . S
C955 C954 1.370 . S
C955 C956 1.403 . S
C956 C955 1.403 . S
C956 C957 1.404 . S
C956 C959 1.539 . S
C957 C953 1.408 . S
C957 C956 1.404 . S
C957 H969 0.930 . S
C958 C954 1.524 . S
C958 H970 0.956 . S
C958 H971 0.961 . S
C958 H972 0.961 . S
C959 C956 1.539 . S
C959 H973 0.958 . S
C959 H974 0.961 . S
C959 H975 0.960 . S
H960 C944 0.931 . S
H961 C949 0.929 . S
H962 C950 0.960 . S
H963 C950 0.962 . S
H964 C950 0.960 . S
H965 C951 0.961 . S
H966 C951 0.961 . S
H967 C951 0.961 . S
H968 C952 0.931 . S
H969 C957 0.930 . S
H970 C958 0.956 . S
H971 C958 0.961 . S
H972 C958 0.961 . S
H973 C959 0.958 . S
H974 C959 0.961 . S
H975 C959 0.960 . S
C976 C977 1.391 . S
C976 C978 1.394 . S
C976 H992 0.931 . S
C977 C976 1.391 . S
C977 C981 1.376 . S
C978 C976 1.394 . S
C978 C979 1.369 . S
C978 C982 1.531 . S
C979 C978 1.369 . S
C979 C980 1.410 . S
C979 C987 1.503 . S
C980 C979 1.410 . S
C980 C981 1.392 . S
C980 C983 1.511 . S
C981 C977 1.376 . S
C981 C980 1.392 . S
C981 H993 0.929 . S
C982 C978 1.531 . S
C982 H994 0.960 . S
C982 H995 0.962 . S
C982 H996 0.960 . S
C983 C980 1.511 . S
C983 H997 0.961 . S
C983 H998 0.961 . S
C983 H999 0.961 . S
C984 C985 1.370 . S
C984 C986 1.363 . S
C984 H1000 0.931 . S
C985 C984 1.370 . S
C985 C989 1.408 . S
C986 C984 1.363 . S
C986 C987 1.370 . S
C986 C990 1.524 . S
C987 C979 1.503 . S
C987 C986 1.370 . S
C987 C988 1.403 . S
C988 C987 1.403 . S
C988 C989 1.404 . S
C988 C991 1.539 . S
C989 C985 1.408 . S
C989 C988 1.404 . S
C989 H1001 0.930 . S
C990 C986 1.524 . S
C990 H1002 0.956 . S
C990 H1003 0.961 . S
C990 H1004 0.961 . S
C991 C988 1.539 . S
C991 H1005 0.958 . S
C991 H1006 0.961 . S
C991 H1007 0.960 . S
H992 C976 0.931 . S
H993 C981 0.929 . S
H994 C982 0.960 . S
H995 C982 0.962 . S
H996 C982 0.960 . S
H997 C983 0.961 . S
H998 C983 0.961 . S
H999 C983 0.961 . S
H1000 C984 0.931 . S
H1001 C989 0.930 . S
H1002 C990 0.956 . S
H1003 C990 0.961 . S
H1004 C990 0.961 . S
H1005 C991 0.958 . S
H1006 C991 0.961 . S
H1007 C991 0.960 . S
C1008 C1009 1.391 . S
C1008 C1010 1.394 . S
C1008 H1024 0.931 . S
C1009 C1008 1.391 . S
C1009 C1013 1.376 . S
C1010 C1008 1.394 . S
C1010 C1011 1.369 . S
C1010 C1014 1.531 . S
C1011 C1010 1.369 . S
C1011 C1012 1.410 . S
C1011 C1019 1.503 . S
C1012 C1011 1.410 . S
C1012 C1013 1.392 . S
C1012 C1015 1.511 . S
C1013 C1009 1.376 . S
C1013 C1012 1.392 . S
C1013 H1025 0.929 . S
C1014 C1010 1.531 . S
C1014 H1026 0.960 . S
C1014 H1027 0.962 . S
C1014 H1028 0.960 . S
C1015 C1012 1.511 . S
C1015 H1029 0.961 . S
C1015 H1030 0.961 . S
C1015 H1031 0.961 . S
C1016 C1017 1.370 . S
C1016 C1018 1.363 1_554 S
C1016 H1032 0.931 . S
C1017 C1016 1.370 . S
C1017 C1021 1.408 1_554 S
C1018 C1016 1.363 1_556 S
C1018 C1019 1.370 . S
C1018 C1022 1.524 . S
C1019 C1011 1.503 . S
C1019 C1018 1.370 . S
C1019 C1020 1.403 . S
C1020 C1019 1.403 . S
C1020 C1021 1.404 . S
C1020 C1023 1.539 . S
C1021 C1017 1.408 1_556 S
C1021 C1020 1.404 . S
C1021 H1033 0.930 1_556 S
C1022 C1018 1.524 . S
C1022 H1034 0.956 . S
C1022 H1035 0.961 . S
C1022 H1036 0.961 . S
C1023 C1020 1.539 . S
C1023 H1037 0.958 . S
C1023 H1038 0.961 . S
C1023 H1039 0.960 . S
H1024 C1008 0.931 . S
H1025 C1013 0.929 . S
H1026 C1014 0.960 . S
H1027 C1014 0.962 . S
H1028 C1014 0.960 . S
H1029 C1015 0.961 . S
H1030 C1015 0.961 . S
H1031 C1015 0.961 . S
H1032 C1016 0.931 . S
H1033 C1021 0.930 1_554 S
H1034 C1022 0.956 . S
H1035 C1022 0.961 . S
H1036 C1022 0.961 . S
H1037 C1023 0.958 . S
H1038 C1023 0.961 . S
H1039 C1023 0.960 . S
C1040 C1041 1.391 . S
C1040 C1042 1.394 . S
C1040 H1056 0.931 1_565 S
C1041 C1040 1.391 . S
C1041 C1045 1.376 . S
C1042 C1040 1.394 . S
C1042 C1043 1.369 . S
C1042 C1046 1.531 . S
C1043 C1042 1.369 . S
C1043 C1044 1.410 . S
C1043 C1051 1.503 . S
C1044 C1043 1.410 . S
C1044 C1045 1.392 . S
C1044 C1047 1.511 . S
C1045 C1041 1.376 . S
C1045 C1044 1.392 . S
C1045 H1057 0.929 . S
C1046 C1042 1.531 . S
C1046 H1058 0.960 . S
C1046 H1059 0.962 . S
C1046 H1060 0.960 1_565 S
C1047 C1044 1.511 . S
C1047 H1061 0.961 . S
C1047 H1062 0.961 . S
C1047 H1063 0.961 . S
C1048 C1049 1.370 . S
C1048 C1050 1.363 . S
C1048 H1064 0.931 . S
C1049 C1048 1.370 . S
C1049 C1053 1.408 . S
C1050 C1048 1.363 . S
C1050 C1051 1.370 . S
C1050 C1054 1.524 . S
C1051 C1043 1.503 . S
C1051 C1050 1.370 . S
C1051 C1052 1.403 . S
C1052 C1051 1.403 . S
C1052 C1053 1.404 . S
C1052 C1055 1.539 . S
C1053 C1049 1.408 . S
C1053 C1052 1.404 . S
C1053 H1065 0.930 . S
C1054 C1050 1.524 . S
C1054 H1066 0.956 . S
C1054 H1067 0.961 . S
C1054 H1068 0.961 . S
C1055 C1052 1.539 . S
C1055 H1069 0.958 . S
C1055 H1070 0.961 . S
C1055 H1071 0.960 . S
H1056 C1040 0.931 1_545 S
H1057 C1045 0.929 . S
H1058 C1046 0.960 . S
H1059 C1046 0.962 . S
H1060 C1046 0.960 1_545 S
H1061 C1047 0.961 . S
H1062 C1047 0.961 . S
H1063 C1047 0.961 . S
H1064 C1048 0.931 . S
H1065 C1053 0.930 . S
H1066 C1054 0.956 . S
H1067 C1054 0.961 . S
H1068 C1054 0.961 . S
H1069 C1055 0.958 . S
H1070 C1055 0.961 . S
H1071 C1055 0.960 . S
C1072 C1073 1.391 . S
C1072 C1074 1.394 . S
C1072 H1088 0.931 . S
C1073 C1072 1.391 . S
C1073 C1077 1.376 . S
C1074 C1072 1.394 . S
C1074 C1075 1.369 . S
C1074 C1078 1.531 . S
C1075 C1074 1.369 . S
C1075 C1076 1.410 . S
C1075 C1083 1.503 . S
C1076 C1075 1.410 . S
C1076 C1077 1.392 . S
C1076 C1079 1.511 . S
C1077 C1073 1.376 . S
C1077 C1076 1.392 . S
C1077 H1089 0.929 . S
C1078 C1074 1.531 . S
C1078 H1090 0.960 . S
C1078 H1091 0.962 . S
C1078 H1092 0.960 . S
C1079 C1076 1.511 . S
C1079 H1093 0.961 . S
C1079 H1094 0.961 . S
C1079 H1095 0.961 . S
C1080 C1081 1.370 . S
C1080 C1082 1.363 . S
C1080 H1096 0.931 . S
C1081 C1080 1.370 . S
C1081 C1085 1.408 . S
C1082 C1080 1.363 . S
C1082 C1083 1.370 . S
C1082 C1086 1.524 . S
C1083 C1075 1.503 . S
C1083 C1082 1.370 . S
C1083 C1084 1.403 . S
C1084 C1083 1.403 . S
C1084 C1085 1.404 . S
C1084 C1087 1.539 . S
C1085 C1081 1.408 . S
C1085 C1084 1.404 . S
C1085 H1097 0.930 . S
C1086 C1082 1.524 . S
C1086 H1098 0.956 . S
C1086 H1099 0.961 . S
C1086 H1100 0.961 . S
C1087 C1084 1.539 . S
C1087 H1101 0.958 . S
C1087 H1102 0.961 . S
C1087 H1103 0.960 . S
H1088 C1072 0.931 . S
H1089 C1077 0.929 . S
H1090 C1078 0.960 . S
H1091 C1078 0.962 . S
H1092 C1078 0.960 . S
H1093 C1079 0.961 . S
H1094 C1079 0.961 . S
H1095 C1079 0.961 . S
H1096 C1080 0.931 . S
H1097 C1085 0.930 . S
H1098 C1086 0.956 . S
H1099 C1086 0.961 . S
H1100 C1086 0.961 . S
H1101 C1087 0.958 . S
H1102 C1087 0.961 . S
H1103 C1087 0.960 . S
C1104 C1105 1.391 . S
C1104 C1106 1.394 . S
C1104 H1120 0.931 . S
C1105 C1104 1.391 . S
C1105 C1109 1.376 . S
C1106 C1104 1.394 . S
C1106 C1107 1.369 . S
C1106 C1110 1.531 . S
C1107 C1106 1.369 . S
C1107 C1108 1.410 . S
C1107 C1115 1.503 . S
C1108 C1107 1.410 . S
C1108 C1109 1.392 . S
C1108 C1111 1.511 . S
C1109 C1105 1.376 . S
C1109 C1108 1.392 . S
C1109 H1121 0.929 . S
C1110 C1106 1.531 . S
C1110 H1122 0.960 . S
C1110 H1123 0.962 . S
C1110 H1124 0.960 . S
C1111 C1108 1.511 . S
C1111 H1125 0.961 . S
C1111 H1126 0.961 . S
C1111 H1127 0.961 . S
C1112 C1113 1.370 . S
C1112 C1114 1.363 . S
C1112 H1128 0.931 . S
C1113 C1112 1.370 . S
C1113 C1117 1.408 . S
C1114 C1112 1.363 . S
C1114 C1115 1.370 . S
C1114 C1118 1.524 . S
C1115 C1107 1.503 . S
C1115 C1114 1.370 . S
C1115 C1116 1.403 . S
C1116 C1115 1.403 . S
C1116 C1117 1.404 . S
C1116 C1119 1.539 . S
C1117 C1113 1.408 . S
C1117 C1116 1.404 . S
C1117 H1129 0.930 . S
C1118 C1114 1.524 . S
C1118 H1130 0.956 . S
C1118 H1131 0.961 . S
C1118 H1132 0.961 . S
C1119 C1116 1.539 . S
C1119 H1133 0.958 . S
C1119 H1134 0.961 . S
C1119 H1135 0.960 . S
H1120 C1104 0.931 . S
H1121 C1109 0.929 . S
H1122 C1110 0.960 . S
H1123 C1110 0.962 . S
H1124 C1110 0.960 . S
H1125 C1111 0.961 . S
H1126 C1111 0.961 . S
H1127 C1111 0.961 . S
H1128 C1112 0.931 . S
H1129 C1117 0.930 . S
H1130 C1118 0.956 . S
H1131 C1118 0.961 . S
H1132 C1118 0.961 . S
H1133 C1119 0.958 . S
H1134 C1119 0.961 . S
H1135 C1119 0.960 . S
C1136 C1137 1.391 . S
C1136 C1138 1.394 . S
C1136 H1152 0.931 . S
C1137 C1136 1.391 . S
C1137 C1141 1.376 . S
C1138 C1136 1.394 . S
C1138 C1139 1.369 . S
C1138 C1142 1.531 . S
C1139 C1138 1.369 . S
C1139 C1140 1.410 . S
C1139 C1147 1.503 . S
C1140 C1139 1.410 . S
C1140 C1141 1.392 . S
C1140 C1143 1.511 . S
C1141 C1137 1.376 . S
C1141 C1140 1.392 . S
C1141 H1153 0.929 . S
C1142 C1138 1.531 . S
C1142 H1154 0.960 . S
C1142 H1155 0.962 . S
C1142 H1156 0.960 . S
C1143 C1140 1.511 . S
C1143 H1157 0.961 . S
C1143 H1158 0.961 . S
C1143 H1159 0.961 . S
C1144 C1145 1.370 . S
C1144 C1146 1.363 . S
C1144 H1160 0.931 . S
C1145 C1144 1.370 . S
C1145 C1149 1.408 . S
C1146 C1144 1.363 . S
C1146 C1147 1.370 . S
C1146 C1150 1.524 . S
C1147 C1139 1.503 . S
C1147 C1146 1.370 . S
C1147 C1148 1.403 . S
C1148 C1147 1.403 . S
C1148 C1149 1.404 . S
C1148 C1151 1.539 . S
C1149 C1145 1.408 . S
C1149 C1148 1.404 . S
C1149 H1161 0.930 . S
C1150 C1146 1.524 . S
C1150 H1162 0.956 . S
C1150 H1163 0.961 . S
C1150 H1164 0.961 . S
C1151 C1148 1.539 . S
C1151 H1165 0.958 . S
C1151 H1166 0.961 . S
C1151 H1167 0.960 . S
H1152 C1136 0.931 . S
H1153 C1141 0.929 . S
H1154 C1142 0.960 . S
H1155 C1142 0.962 . S
H1156 C1142 0.960 . S
H1157 C1143 0.961 . S
H1158 C1143 0.961 . S
H1159 C1143 0.961 . S
H1160 C1144 0.931 . S
H1161 C1149 0.930 . S
H1162 C1150 0.956 . S
H1163 C1150 0.961 . S
H1164 C1150 0.961 . S
H1165 C1151 0.958 . S
H1166 C1151 0.961 . S
H1167 C1151 0.960 . S
C1168 C1169 1.391 . S
C1168 C1170 1.394 . S
C1168 H1184 0.931 . S
C1169 C1168 1.391 . S
C1169 C1173 1.376 . S
C1170 C1168 1.394 . S
C1170 C1171 1.369 . S
C1170 C1174 1.531 . S
C1171 C1170 1.369 . S
C1171 C1172 1.410 . S
C1171 C1179 1.503 . S
C1172 C1171 1.410 . S
C1172 C1173 1.392 . S
C1172 C1175 1.511 . S
C1173 C1169 1.376 . S
C1173 C1172 1.392 . S
C1173 H1185 0.929 . S
C1174 C1170 1.531 . S
C1174 H1186 0.960 . S
C1174 H1187 0.962 . S
C1174 H1188 0.960 . S
C1175 C1172 1.511 . S
C1175 H1189 0.961 . S
C1175 H1190 0.961 . S
C1175 H1191 0.961 . S
C1176 C1177 1.370 . S
C1176 C1178 1.363 . S
C1176 H1192 0.931 . S
C1177 C1176 1.370 . S
C1177 C1181 1.408 . S
C1178 C1176 1.363 . S
C1178 C1179 1.370 . S
C1178 C1182 1.524 . S
C1179 C1171 1.503 . S
C1179 C1178 1.370 . S
C1179 C1180 1.403 . S
C1180 C1179 1.403 . S
C1180 C1181 1.404 . S
C1180 C1183 1.539 . S
C1181 C1177 1.408 . S
C1181 C1180 1.404 . S
C1181 H1193 0.930 . S
C1182 C1178 1.524 . S
C1182 H1194 0.956 . S
C1182 H1195 0.961 . S
C1182 H1196 0.961 . S
C1183 C1180 1.539 . S
C1183 H1197 0.958 . S
C1183 H1198 0.961 . S
C1183 H1199 0.960 . S
H1184 C1168 0.931 . S
H1185 C1173 0.929 . S
H1186 C1174 0.960 . S
H1187 C1174 0.962 . S
H1188 C1174 0.960 . S
H1189 C1175 0.961 . S
H1190 C1175 0.961 . S
H1191 C1175 0.961 . S
H1192 C1176 0.931 . S
H1193 C1181 0.930 . S
H1194 C1182 0.956 . S
H1195 C1182 0.961 . S
H1196 C1182 0.961 . S
H1197 C1183 0.958 . S
H1198 C1183 0.961 . S
H1199 C1183 0.960 . S
C1200 C1201 1.391 . S
C1200 C1202 1.394 . S
C1200 H1216 0.931 . S
C1201 C1200 1.391 . S
C1201 C1205 1.376 . S
C1202 C1200 1.394 . S
C1202 C1203 1.369 . S
C1202 C1206 1.531 . S
C1203 C1202 1.369 . S
C1203 C1204 1.410 . S
C1203 C1211 1.503 . S
C1204 C1203 1.410 . S
C1204 C1205 1.392 . S
C1204 C1207 1.511 . S
C1205 C1201 1.376 . S
C1205 C1204 1.392 . S
C1205 H1217 0.929 . S
C1206 C1202 1.531 . S
C1206 H1218 0.960 . S
C1206 H1219 0.962 . S
C1206 H1220 0.960 . S
C1207 C1204 1.511 . S
C1207 H1221 0.961 . S
C1207 H1222 0.961 . S
C1207 H1223 0.961 . S
C1208 C1209 1.370 . S
C1208 C1210 1.363 . S
C1208 H1224 0.931 . S
C1209 C1208 1.370 . S
C1209 C1213 1.408 . S
C1210 C1208 1.363 . S
C1210 C1211 1.370 . S
C1210 C1214 1.524 . S
C1211 C1203 1.503 . S
C1211 C1210 1.370 . S
C1211 C1212 1.403 . S
C1212 C1211 1.403 . S
C1212 C1213 1.404 . S
C1212 C1215 1.539 . S
C1213 C1209 1.408 . S
C1213 C1212 1.404 . S
C1213 H1225 0.930 . S
C1214 C1210 1.524 . S
C1214 H1226 0.956 . S
C1214 H1227 0.961 . S
C1214 H1228 0.961 . S
C1215 C1212 1.539 . S
C1215 H1229 0.958 . S
C1215 H1230 0.961 . S
C1215 H1231 0.960 . S
H1216 C1200 0.931 . S
H1217 C1205 0.929 . S
H1218 C1206 0.960 . S
H1219 C1206 0.962 . S
H1220 C1206 0.960 . S
H1221 C1207 0.961 . S
H1222 C1207 0.961 . S
H1223 C1207 0.961 . S
H1224 C1208 0.931 . S
H1225 C1213 0.930 . S
H1226 C1214 0.956 . S
H1227 C1214 0.961 . S
H1228 C1214 0.961 . S
H1229 C1215 0.958 . S
H1230 C1215 0.961 . S
H1231 C1215 0.960 . S
C1232 C1233 1.391 . S
C1232 C1234 1.394 . S
C1232 H1248 0.931 . S
C1233 C1232 1.391 . S
C1233 C1237 1.376 . S
C1234 C1232 1.394 . S
C1234 C1235 1.369 . S
C1234 C1238 1.531 . S
C1235 C1234 1.369 . S
C1235 C1236 1.410 . S
C1235 C1243 1.503 1_554 S
C1236 C1235 1.410 . S
C1236 C1237 1.392 . S
C1236 C1239 1.511 . S
C1237 C1233 1.376 . S
C1237 C1236 1.392 . S
C1237 H1249 0.929 . S
C1238 C1234 1.531 . S
C1238 H1250 0.960 . S
C1238 H1251 0.962 . S
C1238 H1252 0.960 . S
C1239 C1236 1.511 . S
C1239 H1253 0.961 . S
C1239 H1254 0.961 1_554 S
C1239 H1255 0.961 1_554 S
C1240 C1241 1.370 . S
C1240 C1242 1.363 . S
C1240 H1256 0.931 . S
C1241 C1240 1.370 . S
C1241 C1245 1.408 . S
C1242 C1240 1.363 . S
C1242 C1243 1.370 . S
C1242 C1246 1.524 1_556 S
C1243 C1235 1.503 1_556 S
C1243 C1242 1.370 . S
C1243 C1244 1.403 . S
C1244 C1243 1.403 . S
C1244 C1245 1.404 . S
C1244 C1247 1.539 . S
C1245 C1241 1.408 . S
C1245 C1244 1.404 . S
C1245 H1257 0.930 . S
C1246 C1242 1.524 1_554 S
C1246 H1258 0.956 . S
C1246 H1259 0.961 . S
C1246 H1260 0.963 . S
C1247 C1244 1.539 . S
C1247 H1261 0.958 . S
C1247 H1262 0.961 . S
C1247 H1263 0.960 . S
H1248 C1232 0.931 . S
H1249 C1237 0.929 . S
H1250 C1238 0.960 . S
H1251 C1238 0.962 . S
H1252 C1238 0.960 . S
H1253 C1239 0.961 . S
H1254 C1239 0.961 1_556 S
H1255 C1239 0.961 1_556 S
H1256 C1240 0.931 . S
H1257 C1245 0.930 . S
H1258 C1246 0.956 . S
H1259 C1246 0.961 . S
H1260 C1246 0.963 . S
H1261 C1247 0.958 . S
H1262 C1247 0.961 . S
H1263 C1247 0.960 . S
C1264 C1265 1.391 . S
C1264 C1266 1.394 . S
C1264 H1280 0.931 . S
C1265 C1264 1.391 . S
C1265 C1269 1.376 . S
C1266 C1264 1.394 . S
C1266 C1267 1.369 . S
C1266 C1270 1.531 . S
C1267 C1266 1.369 . S
C1267 C1268 1.410 . S
C1267 C1275 1.503 . S
C1268 C1267 1.410 . S
C1268 C1269 1.392 . S
C1268 C1271 1.511 . S
C1269 C1265 1.376 . S
C1269 C1268 1.392 . S
C1269 H1281 0.929 . S
C1270 C1266 1.531 . S
C1270 H1282 0.960 . S
C1270 H1283 0.962 . S
C1270 H1284 0.960 . S
C1271 C1268 1.511 . S
C1271 H1285 0.961 . S
C1271 H1286 0.961 . S
C1271 H1287 0.961 . S
C1272 C1273 1.370 . S
C1272 C1274 1.363 . S
C1272 H1288 0.931 . S
C1273 C1272 1.370 . S
C1273 C1277 1.408 . S
C1274 C1272 1.363 . S
C1274 C1275 1.370 . S
C1274 C1278 1.524 . S
C1275 C1267 1.503 . S
C1275 C1274 1.370 . S
C1275 C1276 1.403 . S
C1276 C1275 1.403 . S
C1276 C1277 1.404 . S
C1276 C1279 1.539 . S
C1277 C1273 1.408 . S
C1277 C1276 1.404 . S
C1277 H1289 0.930 . S
C1278 C1274 1.524 . S
C1278 H1290 0.956 . S
C1278 H1291 0.961 . S
C1278 H1292 0.961 . S
C1279 C1276 1.539 . S
C1279 H1293 0.958 . S
C1279 H1294 0.961 . S
C1279 H1295 0.960 . S
H1280 C1264 0.931 . S
H1281 C1269 0.929 . S
H1282 C1270 0.960 . S
H1283 C1270 0.962 . S
H1284 C1270 0.960 . S
H1285 C1271 0.961 . S
H1286 C1271 0.961 . S
H1287 C1271 0.961 . S
H1288 C1272 0.931 . S
H1289 C1277 0.930 . S
H1290 C1278 0.956 . S
H1291 C1278 0.961 . S
H1292 C1278 0.961 . S
H1293 C1279 0.958 . S
H1294 C1279 0.961 . S
H1295 C1279 0.960 . S
C537 C519 1.011 . S
C529 C51 1.302 . S
C561 C125 1.431 . S
C569 C449 1.172 . S
C593 C217 2.566 . S
C601 C469 2.614 . S
C625 C291 1.405 . S
C633 C483 1.407 . S
C665 C491 0.743 . S
C657 C347 0.916 . S
C689 C421 0.760 . S
C697 C505 0.808 . S
C721 C143 2.269 . S
C729 C463 1.942 . S
C753 C199 1.494 . S
C761 C477 1.206 . S
C785 C273 0.369 . S
C793 C497 0.402 . S
C825 C511 1.624 . S
C817 C365 1.598 . S
C857 C525 1.785 . S
C849 C439 1.785 . S
C889 C455 2.457 . S
C881 C69 2.395 . S
C913 C63 1.374 . S
C921 C462 1.481 . S
C945 C137 1.491 . S
C953 C476 1.611 . S
C985 C498 1.274 . S
C977 C187 1.220 . S
C1009 C261 1.424 . S
C1017 C512 1.456 . S
C1049 C526 1.484 . S
C1041 C359 1.394 . S
C1081 C456 1.086 . S
C1073 C433 0.978 . S
C1113 C518 1.637 . S
C1105 C113 1.560 . S
C1137 C211 1.303 . S
C1145 C448 1.348 . S
C1177 C470 1.621 . S
C1169 C285 1.559 . S
C1201 C335 1.287 . S
C1209 C484 1.368 . S
C1233 C409 1.257 . S
C1241 C490 1.326 . S
C1265 C39 1.593 . S
C1273 C504 1.662 . S
