# Generated by pormake.
# Topology zzz, (3,6)-cn, num edge types: 1
# Building blocks:
#     Node 0, Type 0, BuildingBlock: BETDIP_clean_linker_0, # of connection points: 3
#     Node 1, Type 0, BuildingBlock: BETDIP_clean_linker_0, # of connection points: 3
#     Node 2, Type 0, BuildingBlock: BETDIP_clean_linker_0, # of connection points: 3
#     Node 3, Type 0, BuildingBlock: BETDIP_clean_linker_0, # of connection points: 3
#     Node 4, Type 0, BuildingBlock: BETDIP_clean_linker_0, # of connection points: 3
#     Node 5, Type 0, BuildingBlock: BETDIP_clean_linker_0, # of connection points: 3
#     Node 6, Type 0, BuildingBlock: BETDIP_clean_linker_0, # of connection points: 3
#     Node 7, Type 0, BuildingBlock: BETDIP_clean_linker_0, # of connection points: 3
#     Node 8, Type 1, BuildingBlock: NUHQIS_clean_sbu_0, # of connection points: 6
#     Node 9, Type 1, BuildingBlock: NUHQIS_clean_sbu_0, # of connection points: 6
#     Node 10, Type 1, BuildingBlock: NUHQIS_clean_sbu_0, # of connection points: 6
#     Node 11, Type 1, BuildingBlock: NUHQIS_clean_sbu_0, # of connection points: 6
#     Edge 12, Type (0, 1), BuildingBlock: XUDNAN_clean_linker_2, # of connection points: 2
#     Edge 13, Type (0, 1), BuildingBlock: XUDNAN_clean_linker_2, # of connection points: 2
#     Edge 14, Type (0, 1), BuildingBlock: XUDNAN_clean_linker_2, # of connection points: 2
#     Edge 15, Type (0, 1), BuildingBlock: XUDNAN_clean_linker_2, # of connection points: 2
#     Edge 16, Type (0, 1), BuildingBlock: XUDNAN_clean_linker_2, # of connection points: 2
#     Edge 17, Type (0, 1), BuildingBlock: XUDNAN_clean_linker_2, # of connection points: 2
#     Edge 18, Type (0, 1), BuildingBlock: XUDNAN_clean_linker_2, # of connection points: 2
#     Edge 19, Type (0, 1), BuildingBlock: XUDNAN_clean_linker_2, # of connection points: 2
#     Edge 20, Type (0, 1), BuildingBlock: XUDNAN_clean_linker_2, # of connection points: 2
#     Edge 21, Type (0, 1), BuildingBlock: XUDNAN_clean_linker_2, # of connection points: 2
#     Edge 22, Type (0, 1), BuildingBlock: XUDNAN_clean_linker_2, # of connection points: 2
#     Edge 23, Type (0, 1), BuildingBlock: XUDNAN_clean_linker_2, # of connection points: 2
#     Edge 24, Type (0, 1), BuildingBlock: XUDNAN_clean_linker_2, # of connection points: 2
#     Edge 25, Type (0, 1), BuildingBlock: XUDNAN_clean_linker_2, # of connection points: 2
#     Edge 26, Type (0, 1), BuildingBlock: XUDNAN_clean_linker_2, # of connection points: 2
#     Edge 27, Type (0, 1), BuildingBlock: XUDNAN_clean_linker_2, # of connection points: 2
#     Edge 28, Type (0, 1), BuildingBlock: XUDNAN_clean_linker_2, # of connection points: 2
#     Edge 29, Type (0, 1), BuildingBlock: XUDNAN_clean_linker_2, # of connection points: 2
#     Edge 30, Type (0, 1), BuildingBlock: XUDNAN_clean_linker_2, # of connection points: 2
#     Edge 31, Type (0, 1), BuildingBlock: XUDNAN_clean_linker_2, # of connection points: 2
#     Edge 32, Type (0, 1), BuildingBlock: XUDNAN_clean_linker_2, # of connection points: 2
#     Edge 33, Type (0, 1), BuildingBlock: XUDNAN_clean_linker_2, # of connection points: 2
#     Edge 34, Type (0, 1), BuildingBlock: XUDNAN_clean_linker_2, # of connection points: 2
#     Edge 35, Type (0, 1), BuildingBlock: XUDNAN_clean_linker_2, # of connection points: 2
# Relax obj value: 0.254
# Max RMSD: 0.156
# Mean RMSD: 0.136
data_MOF--net-zzz--node1-NUHQIS_clean_sbu_0--node2-BETDIP_clean_linker_0--edge1-XUDNAN_clean_linker_2
_symmetry_space_group_name_H-M    P1
_symmetry_Int_Tables_number       1
_symmetry_cell_setting            triclinic
loop_
_symmetry_equiv_pos_as_xyz
'x, y, z'
_cell_length_a     52.301836
_cell_length_b     52.088771
_cell_length_c     13.847766
_cell_angle_alpha  90.191216
_cell_angle_beta   90.012242
_cell_angle_gamma 89.620066
loop_
_atom_site_label
_atom_site_type_symbol
_atom_site_fract_x
_atom_site_fract_y
_atom_site_fract_z
_atom_type_partial_charge
H0 H 0.7627 0.52573 0.44913 0.0
H1 H 0.7497 0.46719 0.23251 0.0
H2 H 0.81739 0.46464 0.4055 0.0
H3 H 0.7338 0.50299 0.15503 0.0
C4 C 0.72063 0.50919 0.21133 0.0
C5 C 0.76837 0.50811 0.41308 0.0
C6 C 0.79185 0.49604 0.43745 0.0
C7 C 0.75296 0.498 0.33783 0.0
C8 C 0.76105 0.47539 0.29016 0.0
C9 C 0.78403 0.46329 0.31514 0.0
C10 C 0.79907 0.47353 0.38902 0.0
N11 N 0.72987 0.51076 0.30849 0.0
H12 H 1.00879 0.76298 0.54198 0.0
H13 H 0.9729 0.74958 0.26517 0.0
H14 H 0.97407 0.82522 0.38533 0.0
H15 H 0.96111 0.71171 0.35135 0.0
C16 C 0.98117 0.70698 0.36269 0.0
C17 C 0.99798 0.76995 0.48062 0.0
C18 C 0.99212 0.79657 0.47276 0.0
C19 C 0.99021 0.75251 0.40688 0.0
C20 C 0.97732 0.76215 0.32528 0.0
C21 C 0.97144 0.7882 0.3172 0.0
C22 C 0.9782 0.80491 0.39232 0.0
N23 N 0.99678 0.72573 0.41001 0.0
H24 H 0.75137 1.01098 0.3977 0.0
H25 H 0.768 0.07137 0.19594 0.0
H26 H 0.69552 0.06974 0.34102 0.0
H27 H 0.78245 0.03079 0.11205 0.0
C28 C 0.79558 0.02711 0.17138 0.0
C29 C 0.74573 0.02855 0.36165 0.0
C30 C 0.72175 0.04003 0.38219 0.0
C31 C 0.76217 0.03944 0.2921 0.0
C32 C 0.75502 0.06253 0.24663 0.0
C33 C 0.73126 0.07414 0.26578 0.0
C34 C 0.71475 0.06231 0.3319 0.0
N35 N 0.78582 0.02718 0.26777 0.0
H36 H 0.51475 0.77266 0.5063 0.0
H37 H 0.5465 0.79001 0.22689 0.0
H38 H 0.55374 0.71419 0.34068 0.0
H39 H 0.55562 0.83168 0.34747 0.0
C40 C 0.53498 0.83189 0.33812 0.0
C41 C 0.52578 0.76677 0.44378 0.0
C42 C 0.53505 0.7411 0.43626 0.0
C43 C 0.53094 0.78493 0.36993 0.0
C44 C 0.54422 0.77693 0.28695 0.0
C45 C 0.55252 0.75155 0.277 0.0
C46 C 0.54849 0.73414 0.35228 0.0
N47 N 0.52082 0.81048 0.37371 0.0
H48 H 0.25878 0.50867 0.09825 0.0
H49 H 0.27554 0.56177 0.32985 0.0
H50 H 0.20257 0.56445 0.18894 0.0
H51 H 0.31795 0.5573 0.22985 0.0
C52 C 0.31727 0.5372 0.25049 0.0
C53 C 0.25317 0.52461 0.14414 0.0
C54 C 0.22852 0.53561 0.13476 0.0
C55 C 0.27057 0.53434 0.21343 0.0
C56 C 0.26286 0.55477 0.27389 0.0
C57 C 0.23845 0.56561 0.26447 0.0
C58 C 0.22157 0.55609 0.19498 0.0
N59 N 0.29511 0.52266 0.22619 0.0
H60 H 1.01538 0.27579 0.05401 0.0
H61 H 0.05264 0.28515 0.33073 0.0
H62 H 0.05917 0.21405 0.17953 0.0
H63 H 1.00881 0.30439 0.35025 0.0
C64 C 1.0138 0.31838 0.29535 0.0
C65 C 0.02767 0.26833 0.11036 0.0
C66 C 0.03765 0.24292 0.1032 0.0
C67 C 0.03294 0.28378 0.19293 0.0
C68 C 0.04866 0.27384 0.26672 0.0
C69 C 0.05887 0.24911 0.25941 0.0
C70 C 0.05305 0.23397 0.17891 0.0
N71 N 0.02219 0.30899 0.20331 0.0
H72 H 0.26424 0.04179 0.09597 0.0
H73 H 0.23745 0.98153 0.28271 0.0
H74 H 0.30989 0.97381 0.14029 0.0
H75 H 0.19573 1.00058 0.17306 0.0
C76 C 0.20066 1.01661 0.21979 0.0
C77 C 0.26669 0.02289 0.12712 0.0
C78 C 0.28934 1.00874 0.10936 0.0
C79 C 0.24743 1.01274 0.1874 0.0
C80 C 0.25129 0.9887 0.23137 0.0
C81 C 0.27374 0.97467 0.21398 0.0
C82 C 0.29227 0.98454 0.15173 0.0
N83 N 0.22541 0.02768 0.21145 0.0
H84 H 0.50759 0.26565 0.07699 0.0
H85 H 0.57158 0.24528 0.25978 0.0
H86 H 0.56976 0.31822 0.11788 0.0
H87 H 0.56059 0.20349 0.19343 0.0
C88 C 0.54074 0.20526 0.21591 0.0
C89 C 0.52613 0.27006 0.10748 0.0
C90 C 0.53737 0.29425 0.08949 0.0
C91 C 0.53873 0.25177 0.16707 0.0
C92 C 0.56237 0.25825 0.20941 0.0
C93 C 0.57367 0.282 0.19057 0.0
C94 C 0.56124 0.29956 0.13008 0.0
N95 N 0.52671 0.22793 0.19014 0.0
Tb96 Tb 0.02787 1.01767 0.86662 0.0
Eu97 Eu 0.99443 0.02616 0.67161 0.0
C98 C 0.05586 0.02947 0.66861 0.0
C99 C 1.01385 0.0739 0.80494 0.0
C100 C 0.0406 0.98436 0.08211 0.0
C101 C 0.04473 0.93842 0.10521 0.0
C102 C 0.05601 0.96245 0.09333 0.0
C103 C 1.01417 0.9824 0.09838 0.0
C104 C 1.00286 0.95848 0.10855 0.0
C105 C 0.01791 0.93608 0.10547 0.0
C106 C 0.04979 1.00534 0.02061 0.0
O107 O 0.98854 0.02476 0.91387 0.0
O108 O 0.96545 1.01262 0.78073 0.0
O109 O 1.00872 0.98518 0.66658 0.0
O110 O 1.01172 0.97994 0.8291 0.0
C111 C 0.96682 1.01788 0.87354 0.0
O112 O 0.96635 0.04784 0.5874 0.0
O113 O 0.98492 1.01483 0.52359 0.0
O114 O 0.03437 0.03792 0.63138 0.0
O115 O 0.05675 1.01809 0.75303 0.0
O116 O 0.03172 0.05893 0.8417 0.0
O117 O 0.99541 0.06435 0.75126 0.0
C118 C 1.01037 0.97007 0.74169 0.0
O119 O 0.05744 0.99751 0.93587 0.0
O120 O 0.03492 0.02548 0.01365 0.0
C121 C 0.98629 0.05396 0.43852 0.0
C122 C 0.01853 0.09573 0.40129 0.0
C123 C 0.99176 0.0991 0.40287 0.0
C124 C 0.97575 0.07837 0.42209 0.0
C125 C 1.01243 0.04989 0.41883 0.0
C126 C 0.0285 0.07065 0.40219 0.0
C127 C 0.97345 0.03669 0.50716 0.0
H128 H 0.05696 0.92158 0.10712 0.0
H129 H 0.07647 0.96348 0.08176 0.0
H130 H 1.00179 0.99897 0.09145 0.0
H131 H 0.98219 0.95759 0.10964 0.0
H132 H 0.98326 0.11805 0.39701 0.0
H133 H 0.95563 0.082 0.43533 0.0
H134 H 0.02112 0.03117 0.4285 0.0
H135 H 0.0489 0.06712 0.39957 0.0
Tb136 Tb 0.51583 0.03363 0.84094 0.0
Eu137 Eu 0.50032 0.99533 0.66595 0.0
C138 C 0.50819 0.05479 0.63005 0.0
C139 C 0.45801 0.0208 0.80649 0.0
C140 C 0.55042 0.08513 0.96357 0.0
C141 C 0.57003 0.12393 0.02599 0.0
C142 C 0.54924 0.10712 0.02204 0.0
C143 C 0.57173 0.08112 0.90404 0.0
C144 C 0.59247 0.09763 0.90845 0.0
C145 C 0.59236 0.11882 0.97194 0.0
C146 C 0.53005 0.06584 0.96625 0.0
O147 O 0.52046 0.99478 0.90091 0.0
O148 O 0.49201 0.97386 0.80376 0.0
O149 O 0.54282 0.99072 0.68608 0.0
O150 O 0.55004 0.03046 0.74975 0.0
C151 C 0.50576 0.97488 0.88299 0.0
O152 O 0.50193 0.95722 0.60054 0.0
O153 O 0.48135 0.98789 0.52855 0.0
O154 O 0.51376 0.03203 0.59466 0.0
O155 O 0.50201 0.05743 0.72148 0.0
O156 O 0.47602 0.02417 0.87162 0.0
O157 O 0.46371 1.0145 0.7169 0.0
C158 C 0.55843 1.0096 0.70596 0.0
O159 O 0.51096 0.06973 0.9078 0.0
O160 O 0.53782 0.04202 0.96348 0.0
C161 C 0.46373 0.94678 0.5206 0.0
C162 C 0.41645 0.92221 0.49481 0.0
C163 C 0.42445 0.9298 0.5875 0.0
C164 C 0.44785 0.94211 0.60021 0.0
C165 C 0.45669 0.93776 0.42919 0.0
C166 C 0.43323 0.92553 0.41628 0.0
C167 C 0.48615 0.96329 0.53119 0.0
H168 H 0.56905 0.14025 0.07451 0.0
H169 H 0.53267 0.11079 0.06706 0.0
H170 H 0.57295 0.06446 0.85741 0.0
H171 H 0.60926 0.09254 0.86679 0.0
H172 H 0.41206 0.92735 0.64943 0.0
H173 H 0.45302 0.94902 0.67146 0.0
H174 H 0.46873 0.9413 0.36701 0.0
H175 H 0.42754 0.92031 0.34367 0.0
Tb176 Tb 0.49569 0.5218 0.84425 0.0
Eu177 Eu 0.53252 0.51039 0.6626 0.0
C178 C 0.47212 0.51075 0.64365 0.0
C179 C 0.51215 0.46427 0.80045 0.0
C180 C 0.47173 0.56451 0.01679 0.0
C181 C 0.50215 0.59276 0.09491 0.0
C182 C 0.48919 0.56945 0.0916 0.0
C183 C 0.46419 0.58498 0.95663 0.0
C184 C 0.47716 0.60827 0.95991 0.0
C185 C 0.49754 0.61163 0.02447 0.0
C186 C 0.469 0.53784 0.98134 0.0
O187 O 0.53403 0.5338 0.88774 0.0
O188 O 0.55597 0.50466 0.79754 0.0
O189 O 0.53415 0.55366 0.67876 0.0
O190 O 0.49692 0.55812 0.76403 0.0
C191 C 0.55477 0.52006 0.87237 0.0
O192 O 0.57058 0.51041 0.59715 0.0
O193 O 0.53813 0.4964 0.51577 0.0
O194 O 0.49301 0.52013 0.60524 0.0
O195 O 0.47212 0.50344 0.73427 0.0
O196 O 0.50557 0.48135 0.86645 0.0
O197 O 0.51909 0.47124 0.71291 0.0
C198 C 0.51559 0.56816 0.7131 0.0
O199 O 0.46008 0.53546 0.89376 0.0
O200 O 0.48913 0.52326 0.994 0.0
C201 C 0.57695 0.47322 0.50312 0.0
C202 C 0.60388 0.42657 0.47598 0.0
C203 C 0.61645 0.45025 0.46634 0.0
C204 C 0.60306 0.4734 0.47973 0.0
C205 C 0.5645 0.44963 0.51398 0.0
C206 C 0.5777 0.42667 0.49965 0.0
C207 C 0.56303 0.49742 0.52183 0.0
H208 H 0.5169 0.59535 0.14892 0.0
H209 H 0.49501 0.5543 0.14051 0.0
H210 H 0.45036 0.58212 0.8994 0.0
H211 H 0.47262 0.62273 0.90649 0.0
H212 H 0.63659 0.45092 0.44843 0.0
H213 H 0.6131 0.49141 0.4723 0.0
H214 H 0.54444 0.44883 0.53318 0.0
H215 H 0.56703 0.40898 0.50484 0.0
Tb216 Tb 1.00551 0.49994 0.87137 0.0
Eu217 Eu 1.01358 0.54347 0.70537 0.0
C218 C 1.01246 0.48306 0.65243 0.0
C219 C 0.06154 0.52072 0.82716 0.0
C220 C 0.97597 0.44683 1.0016 0.0
C221 C 0.93816 0.42752 0.9313 0.0
C222 C 0.96054 0.4417 0.92096 0.0
C223 C 0.96979 0.43618 0.09112 0.0
C224 C 0.94734 0.42209 0.10167 0.0
C225 C 0.93074 0.41853 0.02265 0.0
C226 C 0.99646 0.46579 0.995 0.0
O227 O 1.01637 0.53485 0.94926 0.0
O228 O 0.99941 0.56316 0.84188 0.0
O229 O 0.9739 0.52892 0.6789 0.0
O230 O 0.96677 0.5132 0.83101 0.0
C231 C 1.00785 0.55795 0.92889 0.0
O232 O 1.00776 0.58317 0.65926 0.0
O233 O 0.02804 0.5566 0.56649 0.0
O234 O 0.02242 0.5055 0.63188 0.0
O235 O 1.00101 0.47904 0.73544 0.0
O236 O 0.04719 0.50177 0.85834 0.0
O237 O 0.05203 0.54008 0.77801 0.0
C238 C 0.95827 0.52033 0.74523 0.0
O239 O 1.01237 0.46272 0.92339 0.0
O240 O 0.9889 0.48961 1.0034 0.0
C241 C 0.04434 0.59794 0.57828 0.0
C242 C 0.09283 0.62021 0.55852 0.0
C243 C 0.0841 0.61247 0.64972 0.0
C244 C 0.06004 0.60139 0.65952 0.0
C245 C 0.05211 0.60747 0.48868 0.0
C246 C 0.07617 0.6187 0.47886 0.0
C247 C 0.02246 0.58057 0.58387 0.0
H248 H 0.9259 0.42492 0.86902 0.0
H249 H 0.96505 0.44984 0.85114 0.0
H250 H 0.98149 0.44005 0.15405 0.0
H251 H 0.94208 0.41577 0.17334 0.0
H252 H 0.09655 0.61344 0.71217 0.0
H253 H 0.05444 0.59395 0.7293 0.0
H254 H 0.04037 0.60457 0.42518 0.0
H255 H 0.08252 0.62413 0.40739 0.0
H256 H 0.14898 1.01025 0.2165 0.0
H257 H 0.21021 0.04082 0.39271 0.0
H258 H 0.17935 0.04945 0.52471 0.0
H259 H 0.09932 0.05707 0.30107 0.0
H260 H 0.07446 0.03332 0.29492 0.0
H261 H 0.10123 0.03147 0.21331 0.0
H262 H 0.1101 0.98493 0.27093 0.0
H263 H 0.08369 0.98705 0.35381 0.0
H264 H 0.11516 0.97891 0.39771 0.0
H265 H 0.14262 0.04947 0.64459 0.0
H266 H 0.10204 0.04575 0.73588 0.0
H267 H 0.064 1.01872 0.47737 0.0
C268 C 0.15574 0.01924 0.28229 0.0
C269 C 0.18194 0.02497 0.29443 0.0
C270 C 0.19019 0.03654 0.38153 0.0
C271 C 0.17279 0.04141 0.45701 0.0
C272 C 0.14712 0.03512 0.44341 0.0
C273 C 0.1385 0.02482 0.3573 0.0
C274 C 0.10999 0.01959 0.36135 0.0
C275 C 0.0954 0.03637 0.28834 0.0
C276 C 0.10443 0.99092 0.34503 0.0
C277 C 0.10407 0.0277 0.4643 0.0
C278 C 0.12576 0.0365 0.51062 0.0
C279 C 0.12543 0.04316 0.60836 0.0
C280 C 0.10237 0.04088 0.65977 0.0
C281 C 0.07985 0.03246 0.61311 0.0
C282 C 0.08076 0.02595 0.51402 0.0
H283 H 0.56227 0.1584 0.25397 0.0
H284 H 0.49465 0.20441 0.31333 0.0
H285 H 0.47844 0.17019 0.42041 0.0
H286 H 0.53072 0.09632 0.24983 0.0
H287 H 0.55663 0.07955 0.30855 0.0
H288 H 0.56316 0.10727 0.23547 0.0
H289 H 0.58591 0.12969 0.37817 0.0
H290 H 0.58045 0.10154 0.45025 0.0
H291 H 0.56972 0.13256 0.4925 0.0
H292 H 0.47142 0.13245 0.53222 0.0
H293 H 0.47233 0.09278 0.62988 0.0
H294 H 0.54299 0.06945 0.49057 0.0
C295 C 0.54389 0.16112 0.28866 0.0
C296 C 0.52967 0.1841 0.27491 0.0
C297 C 0.50581 0.18699 0.32207 0.0
C298 C 0.49649 0.16764 0.38331 0.0
C299 C 0.5111 0.14533 0.39607 0.0
C300 C 0.53419 0.14185 0.34923 0.0
C301 C 0.54632 0.11621 0.37635 0.0
C302 C 0.54936 0.09881 0.28719 0.0
C303 C 0.57213 0.12024 0.42736 0.0
C304 C 0.52645 0.10577 0.44578 0.0
C305 C 0.50646 0.12306 0.45703 0.0
C306 C 0.48675 0.11862 0.52259 0.0
C307 C 0.48744 0.09605 0.57794 0.0
C308 C 0.50743 0.07781 0.56658 0.0
C309 C 0.5271 0.08272 0.49893 0.0
H310 H 0.36516 0.55701 0.26692 0.0
H311 H 0.31849 0.49354 0.36268 0.0
H312 H 0.35383 0.47872 0.46839 0.0
H313 H 0.42631 0.52098 0.2647 0.0
H314 H 0.44443 0.5483 0.30514 0.0
H315 H 0.41595 0.55299 0.23392 0.0
H316 H 0.39732 0.5827 0.36718 0.0
H317 H 0.42563 0.57796 0.439 0.0
H318 H 0.39466 0.57088 0.48899 0.0
H319 H 0.39281 0.47364 0.57641 0.0
H320 H 0.43353 0.47622 0.66667 0.0
H321 H 0.45624 0.54118 0.49226 0.0
C322 C 0.36257 0.53974 0.30905 0.0
C323 C 0.33911 0.52636 0.30639 0.0
C324 C 0.33634 0.50395 0.36286 0.0
C325 C 0.3563 0.49546 0.42338 0.0
C326 C 0.37909 0.50932 0.42537 0.0
C327 C 0.38247 0.53075 0.36833 0.0
C328 C 0.40871 0.54238 0.3844 0.0
C329 C 0.4248 0.54107 0.29152 0.0
C330 C 0.40643 0.57012 0.42215 0.0
C331 C 0.41937 0.52456 0.46125 0.0
C332 C 0.40192 0.50569 0.48421 0.0
C333 C 0.40675 0.48806 0.55771 0.0
C334 C 0.42991 0.48973 0.60887 0.0
C335 C 0.44823 0.50867 0.58579 0.0
C336 C 0.44287 0.52614 0.51026 0.0
H337 H 0.99863 0.33791 0.46759 0.0
H338 H 0.02921 0.36118 0.19084 0.0
H339 H 0.03116 0.40629 0.24949 0.0
H340 H 0.95957 0.39507 0.5111 0.0
H341 H 0.9659 0.39506 0.63906 0.0
H342 H 0.9659 0.36526 0.57268 0.0
H343 H 1.01171 0.35535 0.63394 0.0
H344 H 1.01188 0.38516 0.70007 0.0
H345 H 0.03677 0.37831 0.61352 0.0
H346 H 0.03176 0.44905 0.3453 0.0
H347 H 0.0296 0.48469 0.46387 0.0
H348 H 0.99811 0.43267 0.6764 0.0
C349 C 1.0055 0.35255 0.41883 0.0
C350 C 1.01371 0.34602 0.32447 0.0
C351 C 0.02272 0.3657 0.2632 0.0
C352 C 0.02393 0.39138 0.29615 0.0
C353 C 1.01599 0.39707 0.39044 0.0
C354 C 1.00677 0.37812 0.45048 0.0
C355 C 0.99985 0.38886 0.54914 0.0
C356 C 0.97109 0.38589 0.56913 0.0
C357 C 1.01602 0.37617 0.62884 0.0
C358 C 1.00688 0.41682 0.5363 0.0
C359 C 1.01613 0.42129 0.44436 0.0
C360 C 0.02439 0.44566 0.41713 0.0
C361 C 0.02314 0.46584 0.48525 0.0
C362 C 1.01364 0.46168 0.5799 0.0
C363 C 1.00536 0.43672 0.60484 0.0
H364 H 0.81648 0.02004 0.99322 0.0
H365 H 0.83676 0.02546 0.29618 0.0
H366 H 0.8826 0.02199 0.25268 0.0
H367 H 0.86678 0.9736 0.92643 0.0
H368 H 0.87192 0.98792 0.80979 0.0
H369 H 0.8408 0.98965 0.86535 0.0
H370 H 0.84117 0.03918 0.84979 0.0
H371 H 0.87231 0.03762 0.79466 0.0
H372 H 0.86731 0.05704 0.90105 0.0
H373 H 0.92622 0.02169 0.17453 0.0
H374 H 0.96425 0.02172 0.07047 0.0
H375 H 0.91602 1.01387 0.8171 0.0
C376 C 0.8306 0.02017 0.05047 0.0
C377 C 0.82307 0.02296 0.14817 0.0
C378 C 0.84205 0.02319 0.22103 0.0
C379 C 0.86813 0.02128 0.19686 0.0
C380 C 0.87491 1.01886 0.09963 0.0
C381 C 0.85667 1.01798 0.02762 0.0
C382 C 0.86904 1.01562 0.92861 0.0
C383 C 0.86169 0.99018 0.87967 0.0
C384 C 0.86204 0.03875 0.86479 0.0
C385 C 0.89715 1.01582 0.95583 0.0
C386 C 0.90006 1.01775 0.05486 0.0
C387 C 0.92412 0.01969 0.09712 0.0
C388 C 0.94572 0.0196 0.03699 0.0
C389 C 0.94339 1.01724 0.93521 0.0
C390 C 0.91863 1.01524 0.89451 0.0
H391 H 0.55742 0.87682 0.2864 0.0
H392 H 0.48745 0.83376 0.24992 0.0
H393 H 0.47157 0.86665 0.13504 0.0
H394 H 0.52722 0.94114 0.27292 0.0
H395 H 0.55403 0.95474 0.20979 0.0
H396 H 0.55899 0.92864 0.29297 0.0
H397 H 0.5814 0.90231 0.15803 0.0
H398 H 0.57638 0.92821 0.07429 0.0
H399 H 0.56481 0.89655 0.04595 0.0
H400 H 0.46534 0.9025 0.01143 0.0
H401 H 0.46763 0.93943 0.90035 0.0
H402 H 0.54086 0.96055 0.02326 0.0
C403 C 0.53855 0.87455 0.25541 0.0
C404 C 0.52362 0.85274 0.27754 0.0
C405 C 0.49913 0.85036 0.23496 0.0
C406 C 0.49002 0.86895 0.16926 0.0
C407 C 0.50544 0.89001 0.14776 0.0
C408 C 0.52905 0.89309 0.19088 0.0
C409 C 0.5421 0.91722 0.1547 0.0
C410 C 0.5458 0.93658 0.23753 0.0
C411 C 0.56768 0.91067 0.10531 0.0
C412 C 0.52253 0.92695 0.08224 0.0
C413 C 0.50152 0.91097 0.0793 0.0
C414 C 0.48157 0.91527 0.01432 0.0
C415 C 0.48311 0.9363 0.95105 0.0
C416 C 0.50434 0.95312 0.95307 0.0
C417 C 0.52419 0.94835 0.02052 0.0
H418 H 0.69939 0.49691 0.03984 0.0
H419 H 0.6807 0.53145 0.3162 0.0
H420 H 0.63608 0.53878 0.25973 0.0
H421 H 0.66126 0.538 0.89054 0.0
H422 H 0.65191 0.5126 0.80947 0.0
H423 H 0.68204 0.51067 0.87206 0.0
H424 H 0.66936 0.46651 0.9425 0.0
H425 H 0.63922 0.46828 0.87991 0.0
H426 H 0.63986 0.46364 1.00882 0.0
H427 H 0.59316 0.54328 0.16685 0.0
H428 H 0.55637 0.54179 0.05415 0.0
H429 H 0.60371 0.50226 0.843 0.0
C430 C 0.68592 0.50609 0.08857 0.0
C431 C 0.69354 0.51377 0.18221 0.0
C432 C 0.6753 0.52546 0.24413 0.0
C433 C 0.64994 0.52972 0.21243 0.0
C434 C 0.6431 0.52194 0.11906 0.0
C435 C 0.66063 0.51013 0.05861 0.0
C436 C 0.64865 0.50286 0.96274 0.0
C437 C 0.66175 0.51687 0.87877 0.0
C438 C 0.64931 0.47359 0.94765 0.0
C439 C 0.62158 0.51255 0.97771 0.0
C440 C 0.61868 0.52369 0.0679 0.0
C441 C 0.59531 0.53443 0.09647 0.0
C442 C 0.5745 0.53356 0.03175 0.0
C443 C 0.57701 0.52179 0.93964 0.0
C444 C 0.60099 0.51124 0.91293 0.0
H445 H 0.95954 0.68449 0.20681 0.0
H446 H 0.02568 0.67856 0.39391 0.0
H447 H 0.03998 0.63965 0.30348 0.0
H448 H 0.9467 0.61806 0.17785 0.0
H449 H 0.93819 0.62053 0.05206 0.0
H450 H 0.93354 0.64762 0.13135 0.0
H451 H 0.96108 0.67583 0.01866 0.0
H452 H 0.96568 0.64885 0.93866 0.0
H453 H 0.99297 0.66544 0.98729 0.0
H454 H 0.04431 0.59836 0.19909 0.0
H455 H 0.04216 0.5634 0.0774 0.0
H456 H 0.97516 0.59923 0.95054 0.0
C457 C 0.97707 0.67498 0.22889 0.0
C458 C 0.9914 0.6844 0.30801 0.0
C459 C 1.01438 0.67167 0.33376 0.0
C460 C 0.02251 0.64945 0.28313 0.0
C461 C 1.00763 0.64043 0.20617 0.0
C462 C 0.98565 0.65322 0.1781 0.0
C463 C 0.97348 0.64049 0.09081 0.0
C464 C 0.94638 0.63112 0.11448 0.0
C465 C 0.9733 0.65874 1.00371 0.0
C466 C 0.99169 0.61812 0.07468 0.0
C467 C 1.01112 0.61816 0.1426 0.0
C468 C 0.02939 0.59849 0.14492 0.0
C469 C 0.02793 0.5786 0.07575 0.0
C470 C 1.00862 0.57864 1.00379 0.0
C471 C 0.99036 0.5988 1.00365 0.0
H472 H 0.03775 0.23964 0.43187 0.0
H473 H 0.10618 0.22703 0.26446 0.0
H474 H 0.11029 0.18365 0.33043 0.0
H475 H 0.05657 0.1854 0.63786 0.0
H476 H 0.02308 0.17779 0.64553 0.0
H477 H 0.03301 0.21074 0.63329 0.0
H478 H 1.00393 0.2154 0.48436 0.0
H479 H 0.99432 0.18268 0.49213 0.0
H480 H 1.00854 0.19425 0.38206 0.0
H481 H 0.09399 0.14016 0.33382 0.0
H482 H 0.06658 0.10214 0.32193 0.0
H483 H 1.00978 0.14023 0.50139 0.0
C484 C 0.05485 0.22849 0.41702 0.0
C485 C 0.0712 0.23604 0.34171 0.0
C486 C 0.0934 0.22133 0.322 0.0
C487 C 0.09566 0.19643 0.3585 0.0
C488 C 0.0763 0.18736 0.41836 0.0
C489 C 0.05713 0.20349 0.45337 0.0
C490 C 0.03597 0.18809 0.50029 0.0
C491 C 0.03723 0.19065 0.61081 0.0
C492 C 1.00916 0.19554 0.4622 0.0
C493 C 0.04371 0.16133 0.46893 0.0
C494 C 0.06745 0.16109 0.42507 0.0
C495 C 0.07609 0.13973 0.37293 0.0
C496 C 0.06022 0.11822 0.36563 0.0
C497 C 0.03585 0.11815 0.41019 0.0
C498 C 0.02809 0.13974 0.46513 0.0
H499 H 0.28353 0.97545 0.40343 0.0
H500 H 0.28372 0.92581 0.15333 0.0
H501 H 0.31386 0.89646 0.2345 0.0
H502 H 0.34248 0.97931 0.42394 0.0
H503 H 0.34644 0.97965 0.55334 0.0
H504 H 0.31662 0.98932 0.50199 0.0
H505 H 0.29278 0.95524 0.60255 0.0
H506 H 0.32276 0.94563 0.65628 0.0
H507 H 0.30289 0.92212 0.59762 0.0
H508 H 0.35378 0.88264 0.30947 0.0
H509 H 0.39786 0.88515 0.37161 0.0
H510 H 0.37419 0.94471 0.57208 0.0
C511 C 0.28849 0.95732 0.3696 0.0
C512 C 0.28105 0.95244 0.27366 0.0
C513 C 0.28879 0.92939 0.22802 0.0
C514 C 0.306 0.91268 0.27376 0.0
C515 C 0.31526 0.91936 0.36498 0.0
C516 C 0.30628 0.94094 0.41368 0.0
C517 C 0.32337 0.94754 0.49852 0.0
C518 C 0.33279 0.97557 0.49391 0.0
C519 C 0.30963 0.9423 0.59443 0.0
C520 C 0.34492 0.92846 0.48257 0.0
C521 C 0.33936 0.91156 0.40827 0.0
C522 C 0.35801 0.89515 0.36988 0.0
C523 C 0.38309 0.89685 0.40498 0.0
C524 C 0.38941 0.91508 0.47692 0.0
C525 C 0.36977 0.93004 0.51923 0.0
H526 H 0.57705 0.28818 0.38289 0.0
H527 H 0.61865 0.29921 0.1173 0.0
H528 H 0.64457 0.33262 0.19487 0.0
H529 H 0.56386 0.344 0.42586 0.0
H530 H 0.56772 0.34647 0.55497 0.0
H531 H 0.56212 0.31585 0.50125 0.0
H532 H 0.60351 0.29758 0.57714 0.0
H533 H 0.6091 0.32827 0.63387 0.0
H534 H 0.63348 0.31378 0.55914 0.0
H535 H 0.65057 0.37436 0.26768 0.0
H536 H 0.63926 0.41666 0.33369 0.0
H537 H 0.59689 0.38016 0.56377 0.0
C538 C 0.59305 0.29629 0.34425 0.0
C539 C 0.59611 0.29119 0.245 0.0
C540 C 0.61638 0.30271 0.19401 0.0
C541 C 0.63115 0.32179 0.23775 0.0
C542 C 0.62563 0.32882 0.33288 0.0
C543 C 0.60768 0.31569 0.38722 0.0
C544 C 0.60117 0.33032 0.47898 0.0
C545 C 0.57203 0.33442 0.49065 0.0
C546 C 0.6125 0.31667 0.56752 0.0
C547 C 0.61495 0.35528 0.45999 0.0
C548 C 0.62989 0.35366 0.37769 0.0
C549 C 0.63993 0.37561 0.33455 0.0
C550 C 0.63338 0.39973 0.37273 0.0
C551 C 0.61692 0.40177 0.45349 0.0
C552 C 0.60929 0.37916 0.50133 0.0
H553 H 0.22218 0.55775 0.44586 0.0
H554 H 0.22999 0.61604 0.22707 0.0
H555 H 0.19953 0.64391 0.31501 0.0
H556 H 0.1614 0.55873 0.4523 0.0
H557 H 0.15583 0.5537 0.57926 0.0
H558 H 0.18525 0.54314 0.52623 0.0
H559 H 0.21104 0.57005 0.6489 0.0
H560 H 0.18156 0.58055 0.70434 0.0
H561 H 0.20433 0.60386 0.66262 0.0
H562 H 0.15961 0.65821 0.39083 0.0
H563 H 0.11516 0.65823 0.45097 0.0
H564 H 0.13211 0.59086 0.62242 0.0
C565 C 0.21874 0.57715 0.42093 0.0
C566 C 0.2288 0.58525 0.33195 0.0
C567 C 0.22295 0.61001 0.29692 0.0
C568 C 0.20563 0.62589 0.34648 0.0
C569 C 0.1944 0.61666 0.43082 0.0
C570 C 0.20112 0.59298 0.46909 0.0
C571 C 0.18258 0.58497 0.54733 0.0
C572 C 0.17056 0.55862 0.52478 0.0
C573 C 0.19567 0.58487 0.64669 0.0
C574 C 0.16313 0.60653 0.54051 0.0
C575 C 0.17067 0.62508 0.47533 0.0
C576 C 0.15391 0.6444 0.44475 0.0
C577 C 0.12865 0.64421 0.47874 0.0
C578 C 0.12041 0.6248 0.54241 0.0
C579 C 0.13821 0.60649 0.57665 0.0
H580 H 0.93563 0.82518 0.28607 0.0
H581 H 0.99162 0.77779 0.13994 0.0
H582 H 0.99873 0.81169 0.02208 0.0
H583 H 0.92242 0.87422 0.0592 0.0
H584 H 0.921 0.89989 0.14669 0.0
H585 H 0.90727 0.86908 0.17434 0.0
H586 H 0.93433 0.86788 0.32957 0.0
H587 H 0.94938 0.89756 0.30149 0.0
H588 H 0.96869 0.86925 0.32078 0.0
H589 H 1.0159 0.85283 0.9806 0.0
H590 H 0.03493 0.89557 0.99543 0.0
H591 H 0.97305 0.91918 0.18503 0.0
C592 C 0.94795 0.82157 0.22462 0.0
C593 C 0.96367 0.7995 0.22358 0.0
C594 C 0.97948 0.79471 0.14278 0.0
C595 C 0.98379 0.81412 0.07546 0.0
C596 C 0.97205 0.83795 0.09025 0.0
C597 C 0.95345 0.84154 0.16078 0.0
C598 C 0.94904 0.86991 0.18079 0.0
C599 C 0.92342 0.8788 0.13762 0.0
C600 C 0.9505 0.87651 0.28949 0.0
C601 C 0.97112 0.88112 0.12506 0.0
C602 C 0.98309 0.86269 0.06863 0.0
C603 C 1.00617 0.86757 0.02205 0.0
C604 C 0.01721 0.89178 0.033 0.0
C605 C 1.00565 0.91069 0.09264 0.0
C606 C 0.98206 0.90532 0.13744 0.0
H607 H 0.69946 0.11261 0.32868 0.0
H608 H 0.7408 0.08644 0.07527 0.0
H609 H 0.7145 0.11458 0.97419 0.0
H610 H 0.64621 0.09726 0.24067 0.0
H611 H 0.62616 0.12214 0.2915 0.0
H612 H 0.6554 0.11377 0.34991 0.0
H613 H 0.67037 0.16096 0.33976 0.0
H614 H 0.64075 0.16956 0.28095 0.0
H615 H 0.67087 0.17712 0.22488 0.0
H616 H 0.67686 0.13248 0.89489 0.0
H617 H 0.63179 0.13012 0.84684 0.0
H618 H 0.60919 0.13604 0.14719 0.0
C619 C 0.70347 0.11341 0.25211 0.0
C620 C 0.72189 0.09685 0.21017 0.0
C621 C 0.72703 0.09898 0.11018 0.0
C622 C 0.71204 0.11507 0.05177 0.0
C623 C 0.69169 0.12857 0.09377 0.0
C624 C 0.68738 0.12784 0.19245 0.0
C625 C 0.6604 0.13644 0.21706 0.0
C626 C 0.64625 0.11618 0.27812 0.0
C627 C 0.66062 0.16259 0.26869 0.0
C628 C 0.64927 0.13895 0.11655 0.0
C629 C 0.66811 0.13646 0.04679 0.0
C630 C 0.66207 0.13475 0.94893 0.0
C631 C 0.63631 0.13314 0.92233 0.0
C632 C 0.61695 0.13194 0.99369 0.0
C633 C 0.62345 0.13707 0.09086 0.0
H634 H 0.52259 0.75199 0.12116 0.0
H635 H 0.59552 0.72479 0.22575 0.0
H636 H 0.59441 0.68908 0.1099 0.0
H637 H 0.49338 0.70431 0.1428 0.0
H638 H 0.47321 0.70235 0.03735 0.0
H639 H 0.48533 0.73271 0.07441 0.0
H640 H 0.50618 0.73967 0.90752 0.0
H641 H 0.49333 0.70934 0.8679 0.0
H642 H 0.52707 0.71543 0.85729 0.0
H643 H 0.57773 0.64915 0.05095 0.0
H644 H 0.54962 0.61165 0.04213 0.0
H645 H 0.48481 0.66154 0.98516 0.0
C646 C 0.53917 0.73962 0.11311 0.0
C647 C 0.55909 0.7409 0.18133 0.0
C648 C 0.58028 0.72416 0.17283 0.0
C649 C 0.57966 0.70372 0.10716 0.0
C650 C 0.55775 0.70044 0.05077 0.0
C651 C 0.53814 0.71857 0.05016 0.0
C652 C 0.51406 0.70763 1.00511 0.0
C653 C 0.49016 0.71197 0.06891 0.0
C654 C 0.50993 0.71867 0.90343 0.0
C655 C 0.52157 0.6796 0.99898 0.0
C656 C 0.54732 0.67614 0.01877 0.0
C657 C 0.55778 0.65173 0.03242 0.0
C658 C 0.54153 0.63054 0.0294 0.0
C659 C 0.51492 0.63384 0.01496 0.0
C660 C 0.50512 0.65854 0.99526 0.0
H661 H 0.79638 0.46677 0.12754 0.0
H662 H 0.79901 0.41536 0.37147 0.0
H663 H 0.83064 0.38816 0.28672 0.0
H664 H 0.81673 0.41612 0.92704 0.0
H665 H 0.8357 0.44058 0.87023 0.0
H666 H 0.80584 0.44902 0.92769 0.0
H667 H 0.82943 0.48278 0.03168 0.0
H668 H 0.85909 0.47431 0.97585 0.0
H669 H 0.85611 0.47275 0.10545 0.0
H670 H 0.87031 0.37566 0.20603 0.0
H671 H 0.91389 0.37966 0.1404 0.0
H672 H 0.88756 0.44011 0.94992 0.0
C673 C 0.80241 0.44879 0.15959 0.0
C674 C 0.79504 0.4427 0.25449 0.0
C675 C 0.80413 0.41989 0.29769 0.0
C676 C 0.82207 0.40434 0.2498 0.0
C677 C 0.83072 0.41195 0.15897 0.0
C678 C 0.82083 0.43352 0.11336 0.0
C679 C 0.83722 0.44118 0.02809 0.0
C680 C 0.82302 0.43642 0.93261 0.0
C681 C 0.84599 0.46938 0.03598 0.0
C682 C 0.85929 0.42249 0.03969 0.0
C683 C 0.85464 0.405 0.1125 0.0
C684 C 0.87385 0.38868 0.14687 0.0
C685 C 0.89863 0.3912 0.10972 0.0
C686 C 0.90407 0.41016 0.03989 0.0
C687 C 0.88382 0.42491 1.00104 0.0
H688 H 0.0682 0.20499 0.02344 0.0
H689 H 0.99116 0.23616 0.00937 0.0
H690 H 0.97785 0.19817 0.91403 0.0
H691 H 0.07034 0.1689 0.79478 0.0
H692 H 0.08688 0.14222 0.84953 0.0
H693 H 0.0915 0.17429 0.89541 0.0
H694 H 0.07827 0.15911 0.06607 0.0
H695 H 0.07337 0.12711 0.02079 0.0
H696 H 0.04781 0.14376 0.08245 0.0
H697 H 0.97208 0.15364 0.83495 0.0
H698 H 0.97375 0.10788 0.78739 0.0
H699 H 0.05321 0.10385 0.87606 0.0
C700 C 0.04853 0.2042 0.9994 0.0
C701 C 0.03074 0.22385 0.02516 0.0
C702 C 1.00536 0.22183 0.99006 0.0
C703 C 0.99757 0.20007 0.93646 0.0
C704 C 1.01526 0.18029 0.91902 0.0
C705 C 0.04026 0.18226 0.94989 0.0
C706 C 0.05482 0.15721 0.93473 0.0
C707 C 0.07721 0.16088 0.86441 0.0
C708 C 0.0641 0.14616 0.03174 0.0
C709 C 0.03415 0.14061 0.89053 0.0
C710 C 1.01159 0.15437 0.88028 0.0
C711 C 0.98972 0.14285 0.84253 0.0
C712 C 0.99088 0.11675 0.81562 0.0
C713 C 1.01359 0.10204 0.82806 0.0
C714 C 0.03552 0.11439 0.86561 0.0
H715 H 0.33893 1.01381 0.16615 0.0
H716 H 0.28897 0.02417 0.91973 0.0
H717 H 0.32687 0.03125 0.81529 0.0
H718 H 0.38845 0.06103 0.09345 0.0
H719 H 0.41397 0.04114 0.13959 0.0
H720 H 0.38284 0.04031 0.19519 0.0
H721 H 0.38151 0.99107 0.16943 0.0
H722 H 0.41241 0.99175 0.11252 0.0
H723 H 0.38555 0.97811 0.04947 0.0
H724 H 0.37088 0.03105 0.73492 0.0
H725 H 0.41645 0.02796 0.68822 0.0
H726 H 0.43744 1.01874 0.98925 0.0
C727 C 0.33596 1.01837 0.09068 0.0
C728 C 0.31101 1.01871 0.05096 0.0
C729 C 0.30786 0.02429 0.95176 0.0
C730 C 0.32931 0.02812 0.89197 0.0
C731 C 0.35374 0.02663 0.93288 0.0
C732 C 0.35708 0.02235 0.03051 0.0
C733 C 0.38521 0.02021 0.05629 0.0
C734 C 0.39308 0.04197 0.1252 0.0
C735 C 0.39153 0.99371 0.09944 0.0
C736 C 0.3973 0.02339 0.95765 0.0
C737 C 0.37887 0.02703 0.88726 0.0
C738 C 0.38543 0.0287 0.78983 0.0
C739 C 0.4114 0.0268 0.76392 0.0
C740 C 0.43064 0.02339 0.83503 0.0
C741 C 0.42332 0.02182 0.93319 0.0
H742 H 0.52482 0.3426 0.15017 0.0
H743 H 0.52488 0.29378 0.89661 0.0
H744 H 0.51571 0.33181 0.79417 0.0
H745 H 0.47407 0.38855 0.06755 0.0
H746 H 0.49013 0.41544 0.12229 0.0
H747 H 0.49305 0.38395 0.1749 0.0
H748 H 0.54234 0.38724 0.16467 0.0
H749 H 0.53962 0.41849 0.11055 0.0
H750 H 0.55718 0.39334 0.0496 0.0
H751 H 0.51292 0.37665 0.718 0.0
H752 H 0.5121 0.42282 0.67672 0.0
H753 H 0.51271 0.4422 0.98159 0.0
C754 C 0.52188 0.33979 0.07343 0.0
C755 C 0.52506 0.3151 0.03147 0.0
C756 C 0.52187 0.31233 0.93051 0.0
C757 C 0.51693 0.33392 0.8718 0.0
C758 C 0.51496 0.35816 0.91522 0.0
C759 C 0.51684 0.36107 0.0142 0.0
C760 C 0.51549 0.38923 0.04305 0.0
C761 C 0.49177 0.3946 0.10564 0.0
C762 C 0.54012 0.39755 0.09501 0.0
C763 C 0.5131 0.40188 0.94486 0.0
C764 C 0.51289 0.38368 0.87188 0.0
C765 C 0.51256 0.39094 0.77488 0.0
C766 C 0.5122 0.4173 0.75206 0.0
C767 C 0.512 0.43632 0.82568 0.0
C768 C 0.51235 0.42828 0.92337 0.0
H769 H 0.18379 0.51086 0.17131 0.0
H770 H 0.22852 0.54361 0.94016 0.0
H771 H 0.19114 0.54051 0.83054 0.0
H772 H 0.14489 0.46622 0.01569 0.0
H773 H 0.11674 0.47139 0.08844 0.0
H774 H 0.14799 0.47288 0.14299 0.0
H775 H 0.13741 0.5184 0.20783 0.0
H776 H 0.10636 0.5173 0.15216 0.0
H777 H 0.12784 0.54316 0.12437 0.0
H778 H 0.14662 0.54101 0.75658 0.0
H779 H 0.10054 0.53928 0.7163 0.0
H780 H 0.08523 0.5034 0.99212 0.0
C781 C 0.18599 0.51623 0.09628 0.0
C782 C 0.20923 0.52682 0.06319 0.0
C783 C 0.21115 0.53472 0.96585 0.0
C784 C 0.18991 0.53326 0.90354 0.0
C785 C 0.16695 0.52356 0.93942 0.0
C786 C 0.16506 0.51458 0.03298 0.0
C787 C 0.13789 0.50642 0.05574 0.0
C788 C 0.13682 0.4775 0.07694 0.0
C789 C 0.12673 0.52227 0.13999 0.0
C790 C 0.12458 0.5128 0.96136 0.0
C791 C 0.14162 0.52286 0.89536 0.0
C792 C 0.1333 0.53247 0.80667 0.0
C793 C 0.10705 0.53153 0.78459 0.0
C794 C 0.08935 0.52071 0.85014 0.0
C795 C 0.09839 0.51109 0.93938 0.0
H796 H 0.01758 0.8407 0.42977 0.0
H797 H 0.98393 0.80011 0.67018 0.0
H798 H 0.98797 0.83941 0.77152 0.0
H799 H 0.06145 0.88261 0.57219 0.0
H800 H 0.05611 0.90933 0.49214 0.0
H801 H 0.05462 0.87695 0.44632 0.0
H802 H 1.00944 0.88632 0.38025 0.0
H803 H 1.01024 0.91843 0.42775 0.0
H804 H 0.98466 0.89729 0.46165 0.0
H805 H 0.99085 0.88591 0.83921 0.0
H806 H 0.9948 0.9327 0.86958 0.0
H807 H 0.02376 0.94272 0.57896 0.0
C808 C 1.01182 0.83977 0.50481 0.0
C809 C 1.0007 0.81706 0.54226 0.0
C810 C 0.99299 0.81694 0.6403 0.0
C811 C 0.99497 0.83935 0.69798 0.0
C812 C 1.00476 0.86179 0.65677 0.0
C813 C 1.01336 0.86194 0.56242 0.0
C814 C 0.02132 0.88873 0.53188 0.0
C815 C 0.05009 0.88944 0.50934 0.0
C816 C 1.00545 0.89823 0.4453 0.0
C817 C 1.01515 0.90397 0.62255 0.0
C818 C 1.00601 0.88814 0.69456 0.0
C819 C 0.99854 0.89825 0.78395 0.0
C820 C 1.00072 0.92494 0.80038 0.0
C821 C 1.00956 0.94155 0.72675 0.0
C822 C 0.01689 0.93067 0.6369 0.0
H823 H 0.69045 0.06541 0.51076 0.0
H824 H 0.70825 0.98916 0.40209 0.0
H825 H 0.6704 0.97221 0.48768 0.0
H826 H 0.66267 0.04649 0.74648 0.0
H827 H 0.63833 0.07107 0.73989 0.0
H828 H 0.66902 0.07613 0.68426 0.0
H829 H 0.64653 0.08539 0.52108 0.0
H830 H 0.61586 0.08013 0.57608 0.0
H831 H 0.62515 0.06185 0.47091 0.0
H832 H 0.62723 0.96484 0.56693 0.0
H833 H 0.58398 0.96713 0.63783 0.0
H834 H 0.59367 0.04868 0.69031 0.0
C835 C 0.68676 0.045 0.50651 0.0
C836 C 0.7025 0.02861 0.44948 0.0
C837 C 0.69686 1.00206 0.44624 0.0
C838 C 0.67523 0.99231 0.49412 0.0
C839 C 0.65946 1.0093 0.5455 0.0
C840 C 0.66515 0.03508 0.55273 0.0
C841 C 0.6441 0.0498 0.605 0.0
C842 C 0.65414 0.06156 0.69954 0.0
C843 C 0.63222 0.0705 0.53934 0.0
C844 C 0.62535 0.02837 0.62471 0.0
C845 C 0.63462 1.00513 0.5904 0.0
C846 C 0.62002 0.98287 0.59523 0.0
C847 C 0.59537 0.9844 0.63548 0.0
C848 C 0.58535 1.00804 0.67058 0.0
C849 C 0.60081 0.03021 0.66581 0.0
H850 H 0.56615 0.70097 0.49464 0.0
H851 H 0.48998 0.73252 0.53649 0.0
H852 H 0.47783 0.6932 0.62515 0.0
H853 H 0.54678 0.63956 0.43595 0.0
H854 H 0.57296 0.62312 0.49428 0.0
H855 H 0.5771 0.65535 0.451 0.0
H856 H 0.59103 0.67023 0.62174 0.0
H857 H 0.58726 0.63791 0.66542 0.0
H858 H 0.57055 0.66407 0.72368 0.0
H859 H 0.47267 0.64754 0.69303 0.0
H860 H 0.47506 0.60152 0.7345 0.0
H861 H 0.55396 0.59891 0.63842 0.0
C862 C 0.54697 0.69993 0.52366 0.0
C863 C 0.52904 0.72014 0.50777 0.0
C864 C 0.50427 0.71773 0.54831 0.0
C865 C 0.49713 0.69525 0.59825 0.0
C866 C 0.51493 0.67521 0.60759 0.0
C867 C 0.53945 0.67753 0.57199 0.0
C868 C 0.55445 0.65262 0.58389 0.0
C869 C 0.56333 0.64205 0.48543 0.0
C870 C 0.57717 0.65644 0.65279 0.0
C871 C 0.53435 0.6355 0.62889 0.0
C872 C 0.5118 0.649 0.6437 0.0
C873 C 0.49035 0.637 0.68232 0.0
C874 C 0.49192 0.61072 0.70583 0.0
C875 C 0.51472 0.59634 0.6903 0.0
C876 C 0.53621 0.60916 0.65147 0.0
H877 H 0.83726 0.51777 0.39282 0.0
H878 H 0.7905 0.4955 0.63569 0.0
H879 H 0.82753 0.50183 0.74557 0.0
H880 H 0.89137 0.48489 0.46192 0.0
H881 H 0.91406 0.50824 0.42007 0.0
H882 H 0.88312 0.50613 0.36404 0.0
H883 H 0.87442 0.55422 0.4 0.0
H884 H 0.9056 0.55667 0.45454 0.0
H885 H 0.87756 0.5661 0.52184 0.0
H886 H 0.87212 0.50503 0.82464 0.0
H887 H 0.91808 0.50815 0.86638 0.0
H888 H 0.93505 0.52841 0.56965 0.0
C889 C 0.83454 0.51543 0.46984 0.0
C890 C 0.81079 0.50697 0.50636 0.0
C891 C 0.80825 0.50285 0.60685 0.0
C892 C 0.8293 0.50613 0.66947 0.0
C893 C 0.85277 0.5136 0.63044 0.0
C894 C 0.8553 0.5186 0.53287 0.0
C895 C 0.88283 0.52447 0.50698 0.0
C896 C 0.89345 0.50476 0.43396 0.0
C897 C 0.88524 0.55201 0.4686 0.0
C898 C 0.8956 0.52164 0.60467 0.0
C899 C 0.87805 0.51536 0.67526 0.0
C900 C 0.88586 0.51039 0.77 0.0
C901 C 0.91209 0.51214 0.79306 0.0
C902 C 0.93036 0.51882 0.72185 0.0
C903 C 0.92173 0.52363 0.62654 0.0
loop_
_geom_bond_atom_site_label_1
_geom_bond_atom_site_label_2
_geom_bond_distance
_geom_bond_site_symmetry_2
_ccdc_geom_bond_type
H0 C5 0.930 . S
H1 C8 0.930 . S
H2 C10 0.930 . S
H3 C4 1.016 . S
C4 H3 1.016 . S
C4 N11 1.286 . S
C5 H0 0.930 . S
C5 C6 1.397 . S
C5 C7 1.361 . S
C6 C5 1.397 . S
C6 C10 1.390 . S
C7 C5 1.361 . S
C7 C8 1.393 . S
C7 N11 1.413 . S
C8 H1 0.930 . S
C8 C7 1.393 . S
C8 C9 1.399 . S
C9 C8 1.399 . S
C9 C10 1.381 . S
C10 H2 0.930 . S
C10 C6 1.390 . S
C10 C9 1.381 . S
N11 C4 1.286 . S
N11 C7 1.413 . S
H12 C17 0.930 . S
H13 C20 0.930 . S
H14 C22 0.930 . S
H15 C16 1.029 . S
C16 H15 1.029 . S
C16 N23 1.268 1_655 S
C17 H12 0.930 . S
C17 C18 1.397 . S
C17 C19 1.361 . S
C18 C17 1.397 . S
C18 C22 1.390 1_455 S
C19 C17 1.361 . S
C19 C20 1.393 . S
C19 N23 1.413 . S
C20 H13 0.930 . S
C20 C19 1.393 . S
C20 C21 1.402 . S
C21 C20 1.402 . S
C21 C22 1.379 1_455 S
C22 H14 0.930 . S
C22 C18 1.390 1_655 S
C22 C21 1.379 1_655 S
N23 C16 1.268 1_455 S
N23 C19 1.413 . S
H24 C29 0.930 . S
H25 C32 0.930 . S
H26 C34 0.930 . S
H27 C28 1.030 . S
C28 H27 1.030 . S
C28 N35 1.268 1_565 S
C29 H24 0.930 . S
C29 C30 1.397 . S
C29 C31 1.361 . S
C30 C29 1.397 . S
C30 C34 1.390 1_545 S
C31 C29 1.361 . S
C31 C32 1.393 . S
C31 N35 1.413 . S
C32 H25 0.930 . S
C32 C31 1.393 . S
C32 C33 1.402 . S
C33 C32 1.402 . S
C33 C34 1.379 1_545 S
C34 H26 0.930 . S
C34 C30 1.390 1_565 S
C34 C33 1.379 1_565 S
N35 C28 1.268 1_545 S
N35 C31 1.413 . S
H36 C41 0.930 . S
H37 C44 0.930 . S
H38 C46 0.930 . S
H39 C40 1.016 . S
C40 H39 1.016 . S
C40 N47 1.286 . S
C41 H36 0.930 . S
C41 C42 1.397 . S
C41 C43 1.361 . S
C42 C41 1.397 . S
C42 C46 1.390 . S
C43 C41 1.361 . S
C43 C44 1.393 . S
C43 N47 1.413 . S
C44 H37 0.930 . S
C44 C43 1.393 . S
C44 C45 1.399 . S
C45 C44 1.399 . S
C45 C46 1.381 . S
C46 H38 0.930 . S
C46 C42 1.390 . S
C46 C45 1.381 . S
N47 C40 1.286 . S
N47 C43 1.413 . S
H48 C53 0.930 . S
H49 C56 0.930 . S
H50 C58 0.930 . S
H51 C52 1.016 . S
C52 H51 1.016 . S
C52 N59 1.286 . S
C53 H48 0.930 . S
C53 C54 1.397 . S
C53 C55 1.361 1_556 S
C54 C53 1.397 . S
C54 C58 1.390 1_556 S
C55 C53 1.361 1_554 S
C55 C56 1.393 . S
C55 N59 1.413 . S
C56 H49 0.930 . S
C56 C55 1.393 . S
C56 C57 1.399 . S
C57 C56 1.399 . S
C57 C58 1.381 . S
C58 H50 0.930 . S
C58 C54 1.390 1_554 S
C58 C57 1.381 . S
N59 C52 1.286 . S
N59 C55 1.413 . S
H60 C65 0.930 . S
H61 C68 0.930 . S
H62 C70 0.930 . S
H63 C64 1.026 . S
C64 H63 1.026 . S
C64 N71 1.273 1_655 S
C65 H60 0.930 . S
C65 C66 1.397 . S
C65 C67 1.361 1_556 S
C66 C65 1.397 . S
C66 C70 1.390 1_456 S
C67 C65 1.361 1_554 S
C67 C68 1.393 . S
C67 N71 1.413 . S
C68 H61 0.930 . S
C68 C67 1.393 . S
C68 C69 1.404 . S
C69 C68 1.404 . S
C69 C70 1.378 1_455 S
C70 H62 0.930 . S
C70 C66 1.390 1_654 S
C70 C69 1.378 1_655 S
N71 C64 1.273 1_455 S
N71 C67 1.413 . S
H72 C77 0.930 . S
H73 C80 0.930 . S
H74 C82 0.930 . S
H75 C76 1.026 . S
C76 H75 1.026 . S
C76 N83 1.273 1_565 S
C77 H72 0.930 . S
C77 C78 1.397 . S
C77 C79 1.361 1_556 S
C78 C77 1.397 . S
C78 C82 1.390 1_546 S
C79 C77 1.361 1_554 S
C79 C80 1.393 . S
C79 N83 1.413 . S
C80 H73 0.930 . S
C80 C79 1.393 . S
C80 C81 1.404 . S
C81 C80 1.404 . S
C81 C82 1.378 1_545 S
C82 H74 0.930 . S
C82 C78 1.390 1_564 S
C82 C81 1.378 1_565 S
N83 C76 1.273 1_545 S
N83 C79 1.413 . S
H84 C89 0.930 . S
H85 C92 0.930 . S
H86 C94 0.930 . S
H87 C88 1.016 . S
C88 H87 1.016 . S
C88 N95 1.286 . S
C89 H84 0.930 . S
C89 C90 1.397 . S
C89 C91 1.361 1_556 S
C90 C89 1.397 . S
C90 C94 1.390 1_556 S
C91 C89 1.361 1_554 S
C91 C92 1.393 . S
C91 N95 1.413 . S
C92 H85 0.930 . S
C92 C91 1.393 . S
C92 C93 1.399 . S
C93 C92 1.399 . S
C93 C94 1.381 . S
C94 H86 0.930 . S
C94 C90 1.390 1_554 S
C94 C93 1.381 . S
N95 C88 1.286 . S
N95 C91 1.413 . S
Tb96 C106 2.825 . S
Tb96 O107 2.347 1_455 S
Tb96 O110 2.366 . S
Tb96 O115 2.418 . S
Tb96 O116 2.384 1_565 S
Tb96 O119 2.479 . S
Tb96 O120 2.471 . S
Eu97 O108 2.418 . S
Eu97 O109 2.384 1_545 S
Eu97 O112 2.479 . S
Eu97 O113 2.471 . S
Eu97 O114 2.347 1_655 S
Eu97 O117 2.366 . S
Eu97 C127 2.825 . S
C98 O114 1.259 1_565 S
C98 O115 1.265 . S
C99 O116 1.255 . S
C99 O117 1.265 1_455 S
C100 C102 1.380 . S
C100 C103 1.374 . S
C100 C106 1.507 1_554 S
C101 C102 1.384 . S
C101 C105 1.387 . S
C101 H128 0.930 . S
C102 C100 1.380 . S
C102 C101 1.384 . S
C102 H129 0.931 . S
C103 C100 1.374 . S
C103 C104 1.390 . S
C103 H130 0.930 1_455 S
C104 C103 1.390 . S
C104 C105 1.391 . S
C104 H131 0.930 1_455 S
C105 C101 1.387 . S
C105 C104 1.391 . S
C106 Tb96 2.825 . S
C106 C100 1.507 1_556 S
C106 O119 1.238 . S
C106 O120 1.247 . S
O107 Tb96 2.347 1_655 S
O107 C111 1.259 1_565 S
O108 Eu97 2.418 . S
O108 C111 1.265 . S
O109 Eu97 2.384 1_565 S
O109 C118 1.255 . S
O110 Tb96 2.366 . S
O110 C118 1.265 1_455 S
C111 O107 1.259 1_545 S
C111 O108 1.265 . S
O112 Eu97 2.479 . S
O112 C127 1.238 . S
O113 Eu97 2.471 . S
O113 C127 1.247 . S
O114 Eu97 2.347 1_455 S
O114 C98 1.259 1_545 S
O115 Tb96 2.418 . S
O115 C98 1.265 . S
O116 Tb96 2.384 1_545 S
O116 C99 1.255 . S
O117 Eu97 2.366 . S
O117 C99 1.265 1_655 S
C118 O109 1.255 . S
C118 O110 1.265 1_655 S
O119 Tb96 2.479 . S
O119 C106 1.238 . S
O120 Tb96 2.471 . S
O120 C106 1.247 . S
C121 C124 1.380 . S
C121 C125 1.374 . S
C121 C127 1.507 . S
C122 C123 1.387 . S
C122 C126 1.391 . S
C123 C122 1.387 . S
C123 C124 1.384 . S
C123 H132 0.930 . S
C124 C121 1.380 . S
C124 C123 1.384 . S
C124 H133 0.931 . S
C125 C121 1.374 . S
C125 C126 1.390 . S
C125 H134 0.930 1_655 S
C126 C122 1.391 . S
C126 C125 1.390 . S
C126 H135 0.930 1_655 S
C127 Eu97 2.825 . S
C127 O112 1.238 . S
C127 O113 1.247 . S
C127 C121 1.507 . S
H128 C101 0.930 . S
H129 C102 0.931 . S
H130 C103 0.930 1_655 S
H131 C104 0.930 1_655 S
H132 C123 0.930 . S
H133 C124 0.931 . S
H134 C125 0.930 1_455 S
H135 C126 0.930 1_455 S
Tb136 C146 2.825 . S
Tb136 O147 2.347 1_545 S
Tb136 O150 2.366 . S
Tb136 O155 2.418 . S
Tb136 O156 2.384 . S
Tb136 O159 2.479 . S
Tb136 O160 2.471 . S
Eu137 O148 2.418 . S
Eu137 O149 2.384 . S
Eu137 O152 2.479 . S
Eu137 O153 2.471 . S
Eu137 O154 2.347 1_565 S
Eu137 O157 2.366 . S
Eu137 C167 2.825 . S
C138 O154 1.259 . S
C138 O155 1.265 . S
C139 O156 1.255 . S
C139 O157 1.265 1_545 S
C140 C142 1.380 . S
C140 C143 1.374 . S
C140 C146 1.507 1_554 S
C141 C142 1.384 . S
C141 C145 1.387 . S
C141 H168 0.930 . S
C142 C140 1.380 . S
C142 C141 1.384 . S
C142 H169 0.931 . S
C143 C140 1.374 . S
C143 C144 1.390 . S
C143 H170 0.930 1_545 S
C144 C143 1.390 . S
C144 C145 1.391 . S
C144 H171 0.930 1_545 S
C145 C141 1.387 . S
C145 C144 1.391 . S
C146 Tb136 2.825 . S
C146 C140 1.507 1_556 S
C146 O159 1.238 . S
C146 O160 1.247 . S
O147 Tb136 2.347 1_565 S
O147 C151 1.259 . S
O148 Eu137 2.418 . S
O148 C151 1.265 . S
O149 Eu137 2.384 . S
O149 C158 1.255 . S
O150 Tb136 2.366 . S
O150 C158 1.265 1_545 S
C151 O147 1.259 . S
C151 O148 1.265 . S
O152 Eu137 2.479 . S
O152 C167 1.238 . S
O153 Eu137 2.471 . S
O153 C167 1.247 . S
O154 Eu137 2.347 1_545 S
O154 C138 1.259 . S
O155 Tb136 2.418 . S
O155 C138 1.265 . S
O156 Tb136 2.384 . S
O156 C139 1.255 . S
O157 Eu137 2.366 . S
O157 C139 1.265 1_565 S
C158 O149 1.255 . S
C158 O150 1.265 1_565 S
O159 Tb136 2.479 . S
O159 C146 1.238 . S
O160 Tb136 2.471 . S
O160 C146 1.247 . S
C161 C164 1.380 . S
C161 C165 1.374 . S
C161 C167 1.507 . S
C162 C163 1.387 . S
C162 C166 1.391 . S
C163 C162 1.387 . S
C163 C164 1.384 . S
C163 H172 0.930 . S
C164 C161 1.380 . S
C164 C163 1.384 . S
C164 H173 0.931 . S
C165 C161 1.374 . S
C165 C166 1.390 . S
C165 H174 0.930 1_565 S
C166 C162 1.391 . S
C166 C165 1.390 . S
C166 H175 0.930 1_565 S
C167 Eu137 2.825 . S
C167 O152 1.238 . S
C167 O153 1.247 . S
C167 C161 1.507 . S
H168 C141 0.930 . S
H169 C142 0.931 . S
H170 C143 0.930 1_565 S
H171 C144 0.930 1_565 S
H172 C163 0.930 . S
H173 C164 0.931 . S
H174 C165 0.930 1_545 S
H175 C166 0.930 1_545 S
Tb176 C186 2.825 . S
Tb176 O187 2.347 . S
Tb176 O190 2.366 . S
Tb176 O195 2.418 . S
Tb176 O196 2.384 . S
Tb176 O199 2.479 . S
Tb176 O200 2.471 . S
Eu177 O188 2.418 . S
Eu177 O189 2.384 . S
Eu177 O192 2.479 . S
Eu177 O193 2.471 . S
Eu177 O194 2.347 . S
Eu177 O197 2.366 . S
Eu177 C207 2.825 . S
C178 O194 1.259 . S
C178 O195 1.265 . S
C179 O196 1.255 . S
C179 O197 1.265 . S
C180 C182 1.380 . S
C180 C183 1.374 . S
C180 C186 1.507 1_554 S
C181 C182 1.384 . S
C181 C185 1.387 . S
C181 H208 0.930 . S
C182 C180 1.380 . S
C182 C181 1.384 . S
C182 H209 0.931 . S
C183 C180 1.374 . S
C183 C184 1.390 . S
C183 H210 0.930 . S
C184 C183 1.390 . S
C184 C185 1.391 . S
C184 H211 0.930 . S
C185 C181 1.387 . S
C185 C184 1.391 . S
C186 Tb176 2.825 . S
C186 C180 1.507 1_556 S
C186 O199 1.238 . S
C186 O200 1.247 . S
O187 Tb176 2.347 . S
O187 C191 1.259 . S
O188 Eu177 2.418 . S
O188 C191 1.265 . S
O189 Eu177 2.384 . S
O189 C198 1.255 . S
O190 Tb176 2.366 . S
O190 C198 1.265 . S
C191 O187 1.259 . S
C191 O188 1.265 . S
O192 Eu177 2.479 . S
O192 C207 1.238 . S
O193 Eu177 2.471 . S
O193 C207 1.247 . S
O194 Eu177 2.347 . S
O194 C178 1.259 . S
O195 Tb176 2.418 . S
O195 C178 1.265 . S
O196 Tb176 2.384 . S
O196 C179 1.255 . S
O197 Eu177 2.366 . S
O197 C179 1.265 . S
C198 O189 1.255 . S
C198 O190 1.265 . S
O199 Tb176 2.479 . S
O199 C186 1.238 . S
O200 Tb176 2.471 . S
O200 C186 1.247 . S
C201 C204 1.380 . S
C201 C205 1.374 . S
C201 C207 1.507 . S
C202 C203 1.387 . S
C202 C206 1.391 . S
C203 C202 1.387 . S
C203 C204 1.384 . S
C203 H212 0.930 . S
C204 C201 1.380 . S
C204 C203 1.384 . S
C204 H213 0.931 . S
C205 C201 1.374 . S
C205 C206 1.390 . S
C205 H214 0.930 . S
C206 C202 1.391 . S
C206 C205 1.390 . S
C206 H215 0.930 . S
C207 Eu177 2.825 . S
C207 O192 1.238 . S
C207 O193 1.247 . S
C207 C201 1.507 . S
H208 C181 0.930 . S
H209 C182 0.931 . S
H210 C183 0.930 . S
H211 C184 0.930 . S
H212 C203 0.930 . S
H213 C204 0.931 . S
H214 C205 0.930 . S
H215 C206 0.930 . S
Tb216 C226 2.825 . S
Tb216 O227 2.347 . S
Tb216 O230 2.366 . S
Tb216 O235 2.418 . S
Tb216 O236 2.384 1_655 S
Tb216 O239 2.479 . S
Tb216 O240 2.471 . S
Eu217 O228 2.418 . S
Eu217 O229 2.384 1_455 S
Eu217 O232 2.479 . S
Eu217 O233 2.471 . S
Eu217 O234 2.347 . S
Eu217 O237 2.366 . S
Eu217 C247 2.825 . S
C218 O234 1.259 1_655 S
C218 O235 1.265 . S
C219 O236 1.255 . S
C219 O237 1.265 . S
C220 C222 1.380 . S
C220 C223 1.374 . S
C220 C226 1.507 1_554 S
C221 C222 1.384 . S
C221 C225 1.387 . S
C221 H248 0.930 . S
C222 C220 1.380 . S
C222 C221 1.384 . S
C222 H249 0.931 . S
C223 C220 1.374 . S
C223 C224 1.390 . S
C223 H250 0.930 . S
C224 C223 1.390 . S
C224 C225 1.391 . S
C224 H251 0.930 . S
C225 C221 1.387 . S
C225 C224 1.391 . S
C226 Tb216 2.825 . S
C226 C220 1.507 1_556 S
C226 O239 1.238 . S
C226 O240 1.247 . S
O227 Tb216 2.347 . S
O227 C231 1.259 1_655 S
O228 Eu217 2.418 . S
O228 C231 1.265 . S
O229 Eu217 2.384 1_655 S
O229 C238 1.255 . S
O230 Tb216 2.366 . S
O230 C238 1.265 . S
C231 O227 1.259 1_455 S
C231 O228 1.265 . S
O232 Eu217 2.479 . S
O232 C247 1.238 . S
O233 Eu217 2.471 . S
O233 C247 1.247 . S
O234 Eu217 2.347 . S
O234 C218 1.259 1_455 S
O235 Tb216 2.418 . S
O235 C218 1.265 . S
O236 Tb216 2.384 1_455 S
O236 C219 1.255 . S
O237 Eu217 2.366 . S
O237 C219 1.265 . S
C238 O229 1.255 . S
C238 O230 1.265 . S
O239 Tb216 2.479 . S
O239 C226 1.238 . S
O240 Tb216 2.471 . S
O240 C226 1.247 . S
C241 C244 1.380 . S
C241 C245 1.374 . S
C241 C247 1.507 . S
C242 C243 1.387 . S
C242 C246 1.391 . S
C243 C242 1.387 . S
C243 C244 1.384 . S
C243 H252 0.930 . S
C244 C241 1.380 . S
C244 C243 1.384 . S
C244 H253 0.931 . S
C245 C241 1.374 . S
C245 C246 1.390 . S
C245 H254 0.930 . S
C246 C242 1.391 . S
C246 C245 1.390 . S
C246 H255 0.930 . S
C247 Eu217 2.825 . S
C247 O232 1.238 . S
C247 O233 1.247 . S
C247 C241 1.507 . S
H248 C221 0.930 . S
H249 C222 0.931 . S
H250 C223 0.930 . S
H251 C224 0.930 . S
H252 C243 0.930 . S
H253 C244 0.931 . S
H254 C245 0.930 . S
H255 C246 0.930 . S
H256 C268 0.930 . S
H257 C270 0.930 . S
H258 C271 0.930 . S
H259 C275 0.959 . S
H260 C275 0.959 . S
H261 C275 0.961 . S
H262 C276 0.960 . S
H263 C276 0.961 . S
H264 C276 0.959 . S
H265 C279 0.929 . S
H266 C280 0.931 . S
H267 C282 0.930 . S
C268 H256 0.930 . S
C268 C269 1.399 1_545 S
C268 C273 1.399 . S
C269 C268 1.399 1_565 S
C269 C270 1.376 . S
C270 H257 0.930 . S
C270 C269 1.376 . S
C270 C271 1.388 . S
C271 H258 0.930 . S
C271 C270 1.388 . S
C271 C272 1.390 . S
C272 C271 1.390 . S
C272 C273 1.394 1_565 S
C272 C278 1.465 . S
C273 C268 1.399 . S
C273 C272 1.394 1_545 S
C273 C274 1.516 . S
C274 C273 1.516 . S
C274 C275 1.502 . S
C274 C276 1.561 . S
C274 C277 1.526 . S
C275 H259 0.959 . S
C275 H260 0.959 . S
C275 H261 0.961 . S
C275 C274 1.502 . S
C276 H262 0.960 . S
C276 H263 0.961 . S
C276 H264 0.959 . S
C276 C274 1.561 . S
C277 C274 1.526 . S
C277 C278 1.396 1_545 S
C277 C282 1.390 . S
C278 C272 1.465 . S
C278 C277 1.396 1_565 S
C278 C279 1.399 . S
C279 H265 0.929 . S
C279 C278 1.399 . S
C279 C280 1.385 . S
C280 H266 0.931 . S
C280 C279 1.385 . S
C280 C281 1.389 . S
C281 C280 1.389 . S
C281 C282 1.387 1_565 S
C282 H267 0.930 . S
C282 C277 1.390 . S
C282 C281 1.387 1_545 S
H283 C295 0.930 . S
H284 C297 0.930 . S
H285 C298 0.930 . S
H286 C302 0.959 . S
H287 C302 0.959 . S
H288 C302 0.961 . S
H289 C303 0.960 . S
H290 C303 0.961 . S
H291 C303 0.959 . S
H292 C306 0.929 . S
H293 C307 0.931 . S
H294 C309 0.930 . S
C295 H283 0.930 . S
C295 C296 1.399 . S
C295 C300 1.399 . S
C296 C295 1.399 . S
C296 C297 1.376 . S
C297 H284 0.930 . S
C297 C296 1.376 . S
C297 C298 1.388 . S
C298 H285 0.930 . S
C298 C297 1.388 . S
C298 C299 1.390 . S
C299 C298 1.390 . S
C299 C300 1.394 . S
C299 C305 1.465 . S
C300 C295 1.399 . S
C300 C299 1.394 . S
C300 C301 1.516 . S
C301 C300 1.516 . S
C301 C302 1.502 . S
C301 C303 1.561 . S
C301 C304 1.526 . S
C302 H286 0.959 . S
C302 H287 0.959 . S
C302 H288 0.961 . S
C302 C301 1.502 . S
C303 H289 0.960 . S
C303 H290 0.961 . S
C303 H291 0.959 . S
C303 C301 1.561 . S
C304 C301 1.526 . S
C304 C305 1.396 . S
C304 C309 1.390 . S
C305 C299 1.465 . S
C305 C304 1.396 . S
C305 C306 1.399 . S
C306 H292 0.929 . S
C306 C305 1.399 . S
C306 C307 1.385 . S
C307 H293 0.931 . S
C307 C306 1.385 . S
C307 C308 1.389 . S
C308 C307 1.389 . S
C308 C309 1.387 . S
C309 H294 0.930 . S
C309 C304 1.390 . S
C309 C308 1.387 . S
H310 C322 0.930 . S
H311 C324 0.930 . S
H312 C325 0.930 . S
H313 C329 0.959 . S
H314 C329 0.959 . S
H315 C329 0.961 . S
H316 C330 0.960 . S
H317 C330 0.961 . S
H318 C330 0.959 . S
H319 C333 0.929 . S
H320 C334 0.931 . S
H321 C336 0.930 . S
C322 H310 0.930 . S
C322 C323 1.399 . S
C322 C327 1.399 . S
C323 C322 1.399 . S
C323 C324 1.376 . S
C324 H311 0.930 . S
C324 C323 1.376 . S
C324 C325 1.388 . S
C325 H312 0.930 . S
C325 C324 1.388 . S
C325 C326 1.390 . S
C326 C325 1.390 . S
C326 C327 1.394 . S
C326 C332 1.465 . S
C327 C322 1.399 . S
C327 C326 1.394 . S
C327 C328 1.516 . S
C328 C327 1.516 . S
C328 C329 1.502 . S
C328 C330 1.561 . S
C328 C331 1.526 . S
C329 H313 0.959 . S
C329 H314 0.959 . S
C329 H315 0.961 . S
C329 C328 1.502 . S
C330 H316 0.960 . S
C330 H317 0.961 . S
C330 H318 0.959 . S
C330 C328 1.561 . S
C331 C328 1.526 . S
C331 C332 1.396 . S
C331 C336 1.390 . S
C332 C326 1.465 . S
C332 C331 1.396 . S
C332 C333 1.399 . S
C333 H319 0.929 . S
C333 C332 1.399 . S
C333 C334 1.385 . S
C334 H320 0.931 . S
C334 C333 1.385 . S
C334 C335 1.389 . S
C335 C334 1.389 . S
C335 C336 1.387 . S
C336 H321 0.930 . S
C336 C331 1.390 . S
C336 C335 1.387 . S
H337 C349 0.930 . S
H338 C351 0.930 . S
H339 C352 0.930 . S
H340 C356 0.959 . S
H341 C356 0.959 . S
H342 C356 0.961 . S
H343 C357 0.960 . S
H344 C357 0.961 . S
H345 C357 0.959 . S
H346 C360 0.929 . S
H347 C361 0.931 . S
H348 C363 0.930 . S
C349 H337 0.930 . S
C349 C350 1.399 1_655 S
C349 C354 1.399 . S
C350 C349 1.399 1_455 S
C350 C351 1.376 . S
C351 H338 0.930 . S
C351 C350 1.376 . S
C351 C352 1.388 . S
C352 H339 0.930 . S
C352 C351 1.388 . S
C352 C353 1.390 . S
C353 C352 1.390 . S
C353 C354 1.394 1_455 S
C353 C359 1.465 . S
C354 C349 1.399 . S
C354 C353 1.394 1_655 S
C354 C355 1.516 . S
C355 C354 1.516 . S
C355 C356 1.502 . S
C355 C357 1.561 . S
C355 C358 1.526 . S
C356 H340 0.959 . S
C356 H341 0.959 . S
C356 H342 0.961 . S
C356 C355 1.502 . S
C357 H343 0.960 . S
C357 H344 0.961 . S
C357 H345 0.959 . S
C357 C355 1.561 . S
C358 C355 1.526 . S
C358 C359 1.396 1_655 S
C358 C363 1.390 . S
C359 C353 1.465 . S
C359 C358 1.396 1_455 S
C359 C360 1.399 . S
C360 H346 0.929 . S
C360 C359 1.399 . S
C360 C361 1.385 . S
C361 H347 0.931 . S
C361 C360 1.385 . S
C361 C362 1.389 . S
C362 C361 1.389 . S
C362 C363 1.387 1_455 S
C363 H348 0.930 . S
C363 C358 1.390 . S
C363 C362 1.387 1_655 S
H364 C376 0.930 . S
H365 C378 0.930 . S
H366 C379 0.930 . S
H367 C383 0.959 . S
H368 C383 0.959 . S
H369 C383 0.961 . S
H370 C384 0.960 . S
H371 C384 0.961 . S
H372 C384 0.959 . S
H373 C387 0.929 . S
H374 C388 0.931 . S
H375 C390 0.930 . S
C376 H364 0.930 . S
C376 C377 1.399 1_565 S
C376 C381 1.399 . S
C377 C376 1.399 1_545 S
C377 C378 1.376 . S
C378 H365 0.930 . S
C378 C377 1.376 . S
C378 C379 1.388 . S
C379 H366 0.930 . S
C379 C378 1.388 . S
C379 C380 1.390 . S
C380 C379 1.390 . S
C380 C381 1.394 1_545 S
C380 C386 1.465 . S
C381 C376 1.399 . S
C381 C380 1.394 1_565 S
C381 C382 1.516 . S
C382 C381 1.516 . S
C382 C383 1.502 . S
C382 C384 1.561 . S
C382 C385 1.526 . S
C383 H367 0.959 . S
C383 H368 0.959 . S
C383 H369 0.961 . S
C383 C382 1.502 . S
C384 H370 0.960 . S
C384 H371 0.961 . S
C384 H372 0.959 . S
C384 C382 1.561 . S
C385 C382 1.526 . S
C385 C386 1.396 1_565 S
C385 C390 1.390 1_554 S
C386 C380 1.465 . S
C386 C385 1.396 1_545 S
C386 C387 1.399 . S
C387 H373 0.929 . S
C387 C386 1.399 . S
C387 C388 1.385 1_554 S
C388 H374 0.931 . S
C388 C387 1.385 1_556 S
C388 C389 1.389 . S
C389 C388 1.389 . S
C389 C390 1.387 1_545 S
C390 H375 0.930 . S
C390 C385 1.390 1_556 S
C390 C389 1.387 1_565 S
H391 C403 0.930 . S
H392 C405 0.930 . S
H393 C406 0.930 . S
H394 C410 0.959 . S
H395 C410 0.959 . S
H396 C410 0.961 . S
H397 C411 0.960 . S
H398 C411 0.961 . S
H399 C411 0.959 . S
H400 C414 0.929 . S
H401 C415 0.931 . S
H402 C417 0.930 . S
C403 H391 0.930 . S
C403 C404 1.399 . S
C403 C408 1.399 . S
C404 C403 1.399 . S
C404 C405 1.376 . S
C405 H392 0.930 . S
C405 C404 1.376 . S
C405 C406 1.388 . S
C406 H393 0.930 . S
C406 C405 1.388 . S
C406 C407 1.390 . S
C407 C406 1.390 . S
C407 C408 1.394 . S
C407 C413 1.465 . S
C408 C403 1.399 . S
C408 C407 1.394 . S
C408 C409 1.516 . S
C409 C408 1.516 . S
C409 C410 1.502 . S
C409 C411 1.561 . S
C409 C412 1.526 . S
C410 H394 0.959 . S
C410 H395 0.959 . S
C410 H396 0.961 . S
C410 C409 1.502 . S
C411 H397 0.960 . S
C411 H398 0.961 . S
C411 H399 0.959 . S
C411 C409 1.561 . S
C412 C409 1.526 . S
C412 C413 1.396 . S
C412 C417 1.390 . S
C413 C407 1.465 . S
C413 C412 1.396 . S
C413 C414 1.399 1_554 S
C414 H400 0.929 . S
C414 C413 1.399 1_556 S
C414 C415 1.385 . S
C415 H401 0.931 . S
C415 C414 1.385 . S
C415 C416 1.389 . S
C416 C415 1.389 . S
C416 C417 1.387 1_556 S
C417 H402 0.930 . S
C417 C412 1.390 . S
C417 C416 1.387 1_554 S
H418 C430 0.930 . S
H419 C432 0.930 . S
H420 C433 0.930 . S
H421 C437 0.959 . S
H422 C437 0.959 1_556 S
H423 C437 0.961 . S
H424 C438 0.960 . S
H425 C438 0.961 . S
H426 C438 0.959 . S
H427 C441 0.929 . S
H428 C442 0.931 . S
H429 C444 0.930 . S
C430 H418 0.930 . S
C430 C431 1.399 . S
C430 C435 1.399 . S
C431 C430 1.399 . S
C431 C432 1.376 . S
C432 H419 0.930 . S
C432 C431 1.376 . S
C432 C433 1.388 . S
C433 H420 0.930 . S
C433 C432 1.388 . S
C433 C434 1.390 . S
C434 C433 1.390 . S
C434 C435 1.394 . S
C434 C440 1.465 . S
C435 C430 1.399 . S
C435 C434 1.394 . S
C435 C436 1.516 . S
C436 C435 1.516 . S
C436 C437 1.502 . S
C436 C438 1.561 . S
C436 C439 1.526 . S
C437 H421 0.959 . S
C437 H422 0.959 1_554 S
C437 H423 0.961 . S
C437 C436 1.502 . S
C438 H424 0.960 . S
C438 H425 0.961 . S
C438 H426 0.959 . S
C438 C436 1.561 . S
C439 C436 1.526 . S
C439 C440 1.396 . S
C439 C444 1.390 1_554 S
C440 C434 1.465 . S
C440 C439 1.396 . S
C440 C441 1.399 . S
C441 H427 0.929 . S
C441 C440 1.399 . S
C441 C442 1.385 1_554 S
C442 H428 0.931 . S
C442 C441 1.385 1_556 S
C442 C443 1.389 . S
C443 C442 1.389 . S
C443 C444 1.387 . S
C444 H429 0.930 . S
C444 C439 1.390 1_556 S
C444 C443 1.387 . S
H445 C457 0.930 . S
H446 C459 0.930 . S
H447 C460 0.930 . S
H448 C464 0.959 . S
H449 C464 0.959 . S
H450 C464 0.961 . S
H451 C465 0.960 . S
H452 C465 0.961 . S
H453 C465 0.959 . S
H454 C468 0.929 . S
H455 C469 0.931 . S
H456 C471 0.930 . S
C457 H445 0.930 . S
C457 C458 1.399 1_455 S
C457 C462 1.399 . S
C458 C457 1.399 1_655 S
C458 C459 1.376 . S
C459 H446 0.930 . S
C459 C458 1.376 . S
C459 C460 1.388 . S
C460 H447 0.930 . S
C460 C459 1.388 . S
C460 C461 1.390 . S
C461 C460 1.390 . S
C461 C462 1.394 1_655 S
C461 C467 1.465 . S
C462 C457 1.399 . S
C462 C461 1.394 1_455 S
C462 C463 1.516 . S
C463 C462 1.516 . S
C463 C464 1.502 . S
C463 C465 1.561 . S
C463 C466 1.526 . S
C464 H448 0.959 . S
C464 H449 0.959 . S
C464 H450 0.961 . S
C464 C463 1.502 . S
C465 H451 0.960 . S
C465 H452 0.961 . S
C465 H453 0.959 . S
C465 C463 1.561 . S
C466 C463 1.526 . S
C466 C467 1.396 1_455 S
C466 C471 1.390 1_554 S
C467 C461 1.465 . S
C467 C466 1.396 1_655 S
C467 C468 1.399 . S
C468 H454 0.929 . S
C468 C467 1.399 . S
C468 C469 1.385 1_554 S
C469 H455 0.931 . S
C469 C468 1.385 1_556 S
C469 C470 1.389 . S
C470 C469 1.389 . S
C470 C471 1.387 1_655 S
C471 H456 0.930 . S
C471 C466 1.390 1_556 S
C471 C470 1.387 1_455 S
H472 C484 0.924 1_455 S
H473 C486 0.930 . S
H474 C487 0.930 . S
H475 C491 0.959 . S
H476 C491 0.951 1_655 S
H477 C491 0.961 . S
H478 C492 0.960 . S
H479 C492 0.961 . S
H480 C492 0.959 . S
H481 C495 0.929 . S
H482 C496 0.931 . S
H483 C498 0.930 . S
C484 H472 0.924 1_655 S
C484 C485 1.397 1_655 S
C484 C489 1.399 . S
C485 C484 1.397 1_455 S
C485 C486 1.373 1_455 S
C486 H473 0.930 . S
C486 C485 1.373 1_655 S
C486 C487 1.388 . S
C487 H474 0.930 . S
C487 C486 1.388 . S
C487 C488 1.390 . S
C488 C487 1.390 . S
C488 C489 1.394 . S
C488 C494 1.465 . S
C489 C484 1.399 . S
C489 C488 1.394 . S
C489 C490 1.516 . S
C490 C489 1.516 . S
C490 C491 1.502 1_655 S
C490 C492 1.561 . S
C490 C493 1.526 . S
C491 H475 0.959 . S
C491 H476 0.951 1_455 S
C491 H477 0.961 . S
C491 C490 1.502 1_455 S
C492 H478 0.960 . S
C492 H479 0.961 . S
C492 H480 0.959 . S
C492 C490 1.561 . S
C493 C490 1.526 . S
C493 C494 1.396 . S
C493 C498 1.390 . S
C494 C488 1.465 . S
C494 C493 1.396 . S
C494 C495 1.399 . S
C495 H481 0.929 . S
C495 C494 1.399 . S
C495 C496 1.385 . S
C496 H482 0.931 . S
C496 C495 1.385 . S
C496 C497 1.389 . S
C497 C496 1.389 . S
C497 C498 1.387 . S
C498 H483 0.930 . S
C498 C493 1.390 . S
C498 C497 1.387 . S
H499 C511 0.930 . S
H500 C513 0.930 . S
H501 C514 0.930 . S
H502 C518 0.959 . S
H503 C518 0.959 . S
H504 C518 0.961 . S
H505 C519 0.960 . S
H506 C519 0.961 . S
H507 C519 0.959 . S
H508 C522 0.929 . S
H509 C523 0.931 . S
H510 C525 0.930 1_545 S
C511 H499 0.930 . S
C511 C512 1.377 1_545 S
C511 C516 1.399 . S
C512 C511 1.377 1_565 S
C512 C513 1.415 . S
C513 H500 0.930 . S
C513 C512 1.415 . S
C513 C514 1.388 . S
C514 H501 0.930 . S
C514 C513 1.388 . S
C514 C515 1.390 . S
C515 C514 1.390 . S
C515 C516 1.394 1_565 S
C515 C521 1.465 . S
C516 C511 1.399 . S
C516 C515 1.394 1_545 S
C516 C517 1.516 . S
C517 C516 1.516 . S
C517 C518 1.502 . S
C517 C519 1.561 . S
C517 C520 1.526 1_545 S
C518 H502 0.959 . S
C518 H503 0.959 . S
C518 H504 0.961 . S
C518 C517 1.502 . S
C519 H505 0.960 . S
C519 H506 0.961 . S
C519 H507 0.959 . S
C519 C517 1.561 . S
C520 C517 1.526 1_565 S
C520 C521 1.396 . S
C520 C525 1.390 . S
C521 C515 1.465 . S
C521 C520 1.396 . S
C521 C522 1.399 . S
C522 H508 0.929 . S
C522 C521 1.399 . S
C522 C523 1.385 . S
C523 H509 0.931 . S
C523 C522 1.385 . S
C523 C524 1.389 . S
C524 C523 1.389 . S
C524 C525 1.387 . S
C525 H510 0.930 1_565 S
C525 C520 1.390 . S
C525 C524 1.387 . S
H526 C538 0.930 . S
H527 C540 0.930 . S
H528 C541 0.930 . S
H529 C545 0.959 . S
H530 C545 0.959 . S
H531 C545 0.961 . S
H532 C546 0.960 . S
H533 C546 0.961 . S
H534 C546 0.959 . S
H535 C549 0.929 . S
H536 C550 0.931 . S
H537 C552 0.930 . S
C538 H526 0.930 . S
C538 C539 1.399 . S
C538 C543 1.399 . S
C539 C538 1.399 . S
C539 C540 1.376 . S
C540 H527 0.930 . S
C540 C539 1.376 . S
C540 C541 1.388 . S
C541 H528 0.930 . S
C541 C540 1.388 . S
C541 C542 1.390 . S
C542 C541 1.390 . S
C542 C543 1.394 . S
C542 C548 1.465 . S
C543 C538 1.399 . S
C543 C542 1.394 . S
C543 C544 1.516 . S
C544 C543 1.516 . S
C544 C545 1.502 . S
C544 C546 1.561 . S
C544 C547 1.526 . S
C545 H529 0.959 . S
C545 H530 0.959 . S
C545 H531 0.961 . S
C545 C544 1.502 . S
C546 H532 0.960 . S
C546 H533 0.961 . S
C546 H534 0.959 . S
C546 C544 1.561 . S
C547 C544 1.526 . S
C547 C548 1.396 . S
C547 C552 1.390 . S
C548 C542 1.465 . S
C548 C547 1.396 . S
C548 C549 1.399 . S
C549 H535 0.929 . S
C549 C548 1.399 . S
C549 C550 1.385 . S
C550 H536 0.931 . S
C550 C549 1.385 . S
C550 C551 1.389 . S
C551 C550 1.389 . S
C551 C552 1.387 . S
C552 H537 0.930 . S
C552 C547 1.390 . S
C552 C551 1.387 . S
H553 C565 0.930 . S
H554 C567 0.930 . S
H555 C568 0.930 . S
H556 C572 0.959 . S
H557 C572 0.959 . S
H558 C572 0.961 . S
H559 C573 0.960 . S
H560 C573 0.961 . S
H561 C573 0.959 . S
H562 C576 0.929 . S
H563 C577 0.931 . S
H564 C579 0.930 . S
C565 H553 0.930 . S
C565 C566 1.399 . S
C565 C570 1.399 . S
C566 C565 1.399 . S
C566 C567 1.376 . S
C567 H554 0.930 . S
C567 C566 1.376 . S
C567 C568 1.388 . S
C568 H555 0.930 . S
C568 C567 1.388 . S
C568 C569 1.390 . S
C569 C568 1.390 . S
C569 C570 1.394 . S
C569 C575 1.465 . S
C570 C565 1.399 . S
C570 C569 1.394 . S
C570 C571 1.516 . S
C571 C570 1.516 . S
C571 C572 1.502 . S
C571 C573 1.561 . S
C571 C574 1.526 . S
C572 H556 0.959 . S
C572 H557 0.959 . S
C572 H558 0.961 . S
C572 C571 1.502 . S
C573 H559 0.960 . S
C573 H560 0.961 . S
C573 H561 0.959 . S
C573 C571 1.561 . S
C574 C571 1.526 . S
C574 C575 1.396 . S
C574 C579 1.390 . S
C575 C569 1.465 . S
C575 C574 1.396 . S
C575 C576 1.399 . S
C576 H562 0.929 . S
C576 C575 1.399 . S
C576 C577 1.385 . S
C577 H563 0.931 . S
C577 C576 1.385 . S
C577 C578 1.389 . S
C578 C577 1.389 . S
C578 C579 1.387 . S
C579 H564 0.930 . S
C579 C574 1.390 . S
C579 C578 1.387 . S
H580 C592 0.930 . S
H581 C594 0.930 . S
H582 C595 0.930 . S
H583 C599 0.959 . S
H584 C599 0.959 . S
H585 C599 0.961 . S
H586 C600 0.960 1_655 S
H587 C600 0.961 1_655 S
H588 C600 0.959 . S
H589 C603 0.929 . S
H590 C604 0.931 . S
H591 C606 0.930 . S
C592 H580 0.930 . S
C592 C593 1.385 1_655 S
C592 C597 1.399 1_655 S
C593 C592 1.385 1_455 S
C593 C594 1.408 . S
C594 H581 0.930 . S
C594 C593 1.408 . S
C594 C595 1.388 . S
C595 H582 0.930 . S
C595 C594 1.388 . S
C595 C596 1.390 . S
C596 C595 1.390 . S
C596 C597 1.394 . S
C596 C602 1.465 . S
C597 C592 1.399 1_455 S
C597 C596 1.394 . S
C597 C598 1.516 1_455 S
C598 C597 1.516 1_655 S
C598 C599 1.502 . S
C598 C600 1.561 1_655 S
C598 C601 1.526 1_655 S
C599 H583 0.959 . S
C599 H584 0.959 . S
C599 H585 0.961 . S
C599 C598 1.502 . S
C600 H586 0.960 1_455 S
C600 H587 0.961 1_455 S
C600 H588 0.959 . S
C600 C598 1.561 1_455 S
C601 C598 1.526 1_455 S
C601 C602 1.396 . S
C601 C606 1.390 . S
C602 C596 1.465 . S
C602 C601 1.396 . S
C602 C603 1.399 . S
C603 H589 0.929 . S
C603 C602 1.399 . S
C603 C604 1.385 . S
C604 H590 0.931 . S
C604 C603 1.385 . S
C604 C605 1.389 . S
C605 C604 1.389 . S
C605 C606 1.387 . S
C606 H591 0.930 . S
C606 C601 1.390 . S
C606 C605 1.387 . S
H607 C619 0.930 . S
H608 C621 0.930 . S
H609 C622 0.930 . S
H610 C626 0.959 . S
H611 C626 0.959 . S
H612 C626 0.961 . S
H613 C627 0.960 . S
H614 C627 0.961 . S
H615 C627 0.959 . S
H616 C630 0.929 1_565 S
H617 C631 0.931 1_556 S
H618 C633 0.930 . S
C619 H607 0.930 . S
C619 C620 1.399 1_545 S
C619 C624 1.399 . S
C620 C619 1.399 1_565 S
C620 C621 1.376 . S
C621 H608 0.930 . S
C621 C620 1.376 . S
C621 C622 1.388 . S
C622 H609 0.930 . S
C622 C621 1.388 . S
C622 C623 1.390 1_565 S
C623 C622 1.390 1_545 S
C623 C624 1.394 . S
C623 C629 1.465 . S
C624 C619 1.399 . S
C624 C623 1.394 . S
C624 C625 1.516 . S
C625 C624 1.516 . S
C625 C626 1.502 . S
C625 C627 1.561 . S
C625 C628 1.526 . S
C626 H610 0.959 . S
C626 H611 0.959 . S
C626 H612 0.961 . S
C626 C625 1.502 . S
C627 H613 0.960 . S
C627 H614 0.961 . S
C627 H615 0.959 . S
C627 C625 1.561 . S
C628 C625 1.526 . S
C628 C629 1.396 . S
C628 C633 1.390 . S
C629 C623 1.465 . S
C629 C628 1.396 . S
C629 C630 1.399 . S
C630 H616 0.929 1_545 S
C630 C629 1.399 . S
C630 C631 1.385 . S
C631 H617 0.931 1_554 S
C631 C630 1.385 . S
C631 C632 1.389 . S
C632 C631 1.389 . S
C632 C633 1.387 . S
C633 H618 0.930 . S
C633 C628 1.390 . S
C633 C632 1.387 . S
H634 C646 0.930 . S
H635 C648 0.930 . S
H636 C649 0.930 . S
H637 C653 0.959 . S
H638 C653 0.959 . S
H639 C653 0.961 . S
H640 C654 0.960 . S
H641 C654 0.961 . S
H642 C654 0.959 . S
H643 C657 0.929 . S
H644 C658 0.931 . S
H645 C660 0.930 . S
C646 H634 0.930 . S
C646 C647 1.399 . S
C646 C651 1.399 . S
C647 C646 1.399 . S
C647 C648 1.376 . S
C648 H635 0.930 . S
C648 C647 1.376 . S
C648 C649 1.388 . S
C649 H636 0.930 . S
C649 C648 1.388 . S
C649 C650 1.390 . S
C650 C649 1.390 . S
C650 C651 1.394 . S
C650 C656 1.465 . S
C651 C646 1.399 . S
C651 C650 1.394 . S
C651 C652 1.516 . S
C652 C651 1.516 . S
C652 C653 1.502 . S
C652 C654 1.561 . S
C652 C655 1.526 . S
C653 H637 0.959 . S
C653 H638 0.959 . S
C653 H639 0.961 . S
C653 C652 1.502 . S
C654 H640 0.960 . S
C654 H641 0.961 . S
C654 H642 0.959 . S
C654 C652 1.561 . S
C655 C652 1.526 . S
C655 C656 1.396 . S
C655 C660 1.390 . S
C656 C650 1.465 . S
C656 C655 1.396 . S
C656 C657 1.399 . S
C657 H643 0.929 . S
C657 C656 1.399 . S
C657 C658 1.385 . S
C658 H644 0.931 . S
C658 C657 1.385 . S
C658 C659 1.389 . S
C659 C658 1.389 . S
C659 C660 1.387 . S
C660 H645 0.930 . S
C660 C655 1.390 . S
C660 C659 1.387 . S
H661 C673 0.930 . S
H662 C675 0.930 . S
H663 C676 0.930 . S
H664 C680 0.959 . S
H665 C680 0.959 . S
H666 C680 0.961 . S
H667 C681 0.960 . S
H668 C681 0.961 . S
H669 C681 0.959 . S
H670 C684 0.929 . S
H671 C685 0.931 . S
H672 C687 0.930 . S
C673 H661 0.930 . S
C673 C674 1.399 . S
C673 C678 1.399 . S
C674 C673 1.399 . S
C674 C675 1.376 . S
C675 H662 0.930 . S
C675 C674 1.376 . S
C675 C676 1.388 . S
C676 H663 0.930 . S
C676 C675 1.388 . S
C676 C677 1.390 . S
C677 C676 1.390 . S
C677 C678 1.394 . S
C677 C683 1.465 . S
C678 C673 1.399 . S
C678 C677 1.394 . S
C678 C679 1.516 . S
C679 C678 1.516 . S
C679 C680 1.502 . S
C679 C681 1.561 . S
C679 C682 1.526 . S
C680 H664 0.959 . S
C680 H665 0.959 . S
C680 H666 0.961 . S
C680 C679 1.502 . S
C681 H667 0.960 . S
C681 H668 0.961 . S
C681 H669 0.959 . S
C681 C679 1.561 . S
C682 C679 1.526 . S
C682 C683 1.396 . S
C682 C687 1.390 . S
C683 C677 1.465 . S
C683 C682 1.396 . S
C683 C684 1.399 . S
C684 H670 0.929 . S
C684 C683 1.399 . S
C684 C685 1.385 . S
C685 H671 0.931 . S
C685 C684 1.385 . S
C685 C686 1.389 . S
C686 C685 1.389 . S
C686 C687 1.387 . S
C687 H672 0.930 . S
C687 C682 1.390 . S
C687 C686 1.387 . S
H688 C700 0.930 1_554 S
H689 C702 0.930 . S
H690 C703 0.930 . S
H691 C707 0.959 . S
H692 C707 0.959 . S
H693 C707 0.961 . S
H694 C708 0.960 . S
H695 C708 0.961 . S
H696 C708 0.959 1_556 S
H697 C711 0.929 . S
H698 C712 0.931 . S
H699 C714 0.930 . S
C700 H688 0.930 1_556 S
C700 C701 1.398 1_655 S
C700 C705 1.399 1_655 S
C701 C700 1.398 1_455 S
C701 C702 1.379 . S
C702 H689 0.930 . S
C702 C701 1.379 . S
C702 C703 1.388 . S
C703 H690 0.930 . S
C703 C702 1.388 . S
C703 C704 1.390 . S
C704 C703 1.390 . S
C704 C705 1.396 . S
C704 C710 1.465 . S
C705 C700 1.399 1_455 S
C705 C704 1.396 . S
C705 C706 1.515 1_455 S
C706 C705 1.515 1_655 S
C706 C707 1.502 1_656 S
C706 C708 1.561 1_556 S
C706 C709 1.526 1_655 S
C707 H691 0.959 . S
C707 H692 0.959 . S
C707 H693 0.961 . S
C707 C706 1.502 1_454 S
C708 H694 0.960 . S
C708 H695 0.961 . S
C708 H696 0.959 1_554 S
C708 C706 1.561 1_554 S
C709 C706 1.526 1_455 S
C709 C710 1.396 . S
C709 C714 1.390 . S
C710 C704 1.465 . S
C710 C709 1.396 . S
C710 C711 1.399 . S
C711 H697 0.929 . S
C711 C710 1.399 . S
C711 C712 1.385 . S
C712 H698 0.931 . S
C712 C711 1.385 . S
C712 C713 1.389 . S
C713 C712 1.389 . S
C713 C714 1.387 . S
C714 H699 0.930 . S
C714 C709 1.390 . S
C714 C713 1.387 . S
H715 C727 0.930 1_554 S
H716 C729 0.930 . S
H717 C730 0.930 . S
H718 C734 0.959 1_556 S
H719 C734 0.959 . S
H720 C734 0.961 . S
H721 C735 0.960 . S
H722 C735 0.960 . S
H723 C735 0.959 . S
H724 C738 0.929 . S
H725 C739 0.931 . S
H726 C741 0.930 . S
C727 H715 0.930 1_556 S
C727 C728 1.395 1_545 S
C727 C732 1.399 . S
C728 C727 1.395 1_565 S
C728 C729 1.382 . S
C729 H716 0.930 . S
C729 C728 1.382 . S
C729 C730 1.388 . S
C730 H717 0.930 . S
C730 C729 1.388 . S
C730 C731 1.390 . S
C731 C730 1.390 . S
C731 C732 1.394 1_565 S
C731 C737 1.465 . S
C732 C727 1.399 . S
C732 C731 1.394 1_545 S
C732 C733 1.516 . S
C733 C732 1.516 . S
C733 C734 1.502 1_556 S
C733 C735 1.561 1_546 S
C733 C736 1.526 . S
C734 H718 0.959 1_554 S
C734 H719 0.959 . S
C734 H720 0.961 . S
C734 C733 1.502 1_554 S
C735 H721 0.960 . S
C735 H722 0.960 . S
C735 H723 0.959 . S
C735 C733 1.561 1_564 S
C736 C733 1.526 . S
C736 C737 1.396 1_545 S
C736 C741 1.390 . S
C737 C731 1.465 . S
C737 C736 1.396 1_565 S
C737 C738 1.399 . S
C738 H724 0.929 . S
C738 C737 1.399 . S
C738 C739 1.385 . S
C739 H725 0.931 . S
C739 C738 1.385 . S
C739 C740 1.389 1_565 S
C740 C739 1.389 1_545 S
C740 C741 1.387 . S
C741 H726 0.930 . S
C741 C736 1.390 . S
C741 C740 1.387 . S
H742 C754 0.930 . S
H743 C756 0.930 . S
H744 C757 0.930 . S
H745 C761 0.959 . S
H746 C761 0.959 . S
H747 C761 0.961 . S
H748 C762 0.960 . S
H749 C762 0.961 . S
H750 C762 0.959 . S
H751 C765 0.929 . S
H752 C766 0.931 . S
H753 C768 0.930 . S
C754 H742 0.930 . S
C754 C755 1.399 . S
C754 C759 1.399 . S
C755 C754 1.399 . S
C755 C756 1.376 . S
C756 H743 0.930 . S
C756 C755 1.376 . S
C756 C757 1.388 . S
C757 H744 0.930 . S
C757 C756 1.388 . S
C757 C758 1.390 . S
C758 C757 1.390 . S
C758 C759 1.394 . S
C758 C764 1.465 . S
C759 C754 1.399 . S
C759 C758 1.394 . S
C759 C760 1.516 . S
C760 C759 1.516 . S
C760 C761 1.502 . S
C760 C762 1.561 1_556 S
C760 C763 1.526 . S
C761 H745 0.959 . S
C761 H746 0.959 . S
C761 H747 0.961 . S
C761 C760 1.502 . S
C762 H748 0.960 . S
C762 H749 0.961 . S
C762 H750 0.959 . S
C762 C760 1.561 1_554 S
C763 C760 1.526 . S
C763 C764 1.396 . S
C763 C768 1.390 . S
C764 C758 1.465 . S
C764 C763 1.396 . S
C764 C765 1.399 . S
C765 H751 0.929 . S
C765 C764 1.399 . S
C765 C766 1.385 . S
C766 H752 0.931 . S
C766 C765 1.385 . S
C766 C767 1.389 . S
C767 C766 1.389 . S
C767 C768 1.387 . S
C768 H753 0.930 . S
C768 C763 1.390 . S
C768 C767 1.387 . S
H769 C781 0.930 . S
H770 C783 0.930 . S
H771 C784 0.930 . S
H772 C788 0.959 . S
H773 C788 0.959 . S
H774 C788 0.961 . S
H775 C789 0.960 . S
H776 C789 0.961 . S
H777 C789 0.959 . S
H778 C792 0.929 . S
H779 C793 0.931 . S
H780 C795 0.930 . S
C781 H769 0.930 . S
C781 C782 1.399 . S
C781 C786 1.399 . S
C782 C781 1.399 . S
C782 C783 1.376 . S
C783 H770 0.930 . S
C783 C782 1.376 . S
C783 C784 1.388 . S
C784 H771 0.930 . S
C784 C783 1.388 . S
C784 C785 1.390 . S
C785 C784 1.390 . S
C785 C786 1.394 . S
C785 C791 1.465 . S
C786 C781 1.399 . S
C786 C785 1.394 . S
C786 C787 1.516 . S
C787 C786 1.516 . S
C787 C788 1.502 . S
C787 C789 1.561 1_556 S
C787 C790 1.526 . S
C788 H772 0.959 . S
C788 H773 0.959 . S
C788 H774 0.961 . S
C788 C787 1.502 . S
C789 H775 0.960 . S
C789 H776 0.961 . S
C789 H777 0.959 . S
C789 C787 1.561 1_554 S
C790 C787 1.526 . S
C790 C791 1.396 . S
C790 C795 1.390 . S
C791 C785 1.465 . S
C791 C790 1.396 . S
C791 C792 1.399 . S
C792 H778 0.929 . S
C792 C791 1.399 . S
C792 C793 1.385 . S
C793 H779 0.931 . S
C793 C792 1.385 . S
C793 C794 1.389 . S
C794 C793 1.389 . S
C794 C795 1.387 . S
C795 H780 0.930 . S
C795 C790 1.390 . S
C795 C794 1.387 . S
H796 C808 0.930 . S
H797 C810 0.930 . S
H798 C811 0.930 . S
H799 C815 0.959 . S
H800 C815 0.959 . S
H801 C815 0.961 . S
H802 C816 0.960 . S
H803 C816 0.961 . S
H804 C816 0.959 . S
H805 C819 0.929 . S
H806 C820 0.931 . S
H807 C822 0.930 1_455 S
C808 H796 0.930 . S
C808 C809 1.399 1_455 S
C808 C813 1.399 1_455 S
C809 C808 1.399 1_655 S
C809 C810 1.376 . S
C810 H797 0.930 . S
C810 C809 1.376 . S
C810 C811 1.388 . S
C811 H798 0.930 . S
C811 C810 1.388 . S
C811 C812 1.390 . S
C812 C811 1.390 . S
C812 C813 1.394 . S
C812 C818 1.465 . S
C813 C808 1.399 1_655 S
C813 C812 1.394 . S
C813 C814 1.516 1_655 S
C814 C813 1.516 1_455 S
C814 C815 1.502 . S
C814 C816 1.561 1_455 S
C814 C817 1.526 1_455 S
C815 H799 0.959 . S
C815 H800 0.959 . S
C815 H801 0.961 . S
C815 C814 1.502 . S
C816 H802 0.960 . S
C816 H803 0.961 . S
C816 H804 0.959 . S
C816 C814 1.561 1_655 S
C817 C814 1.526 1_655 S
C817 C818 1.396 . S
C817 C822 1.390 . S
C818 C812 1.465 . S
C818 C817 1.396 . S
C818 C819 1.399 . S
C819 H805 0.929 . S
C819 C818 1.399 . S
C819 C820 1.385 . S
C820 H806 0.931 . S
C820 C819 1.385 . S
C820 C821 1.389 . S
C821 C820 1.389 . S
C821 C822 1.387 . S
C822 H807 0.930 1_655 S
C822 C817 1.390 . S
C822 C821 1.387 . S
H823 C835 0.930 . S
H824 C837 0.930 . S
H825 C838 0.930 . S
H826 C842 0.959 . S
H827 C842 0.959 . S
H828 C842 0.961 . S
H829 C843 0.960 . S
H830 C843 0.961 . S
H831 C843 0.959 . S
H832 C846 0.929 . S
H833 C847 0.931 . S
H834 C849 0.920 1_545 S
C835 H823 0.930 . S
C835 C836 1.399 1_545 S
C835 C840 1.399 1_545 S
C836 C835 1.399 1_565 S
C836 C837 1.376 . S
C837 H824 0.930 . S
C837 C836 1.376 . S
C837 C838 1.388 . S
C838 H825 0.930 . S
C838 C837 1.388 . S
C838 C839 1.390 . S
C839 C838 1.390 . S
C839 C840 1.394 . S
C839 C845 1.465 . S
C840 C835 1.399 1_565 S
C840 C839 1.394 . S
C840 C841 1.514 1_565 S
C841 C840 1.514 1_545 S
C841 C842 1.520 . S
C841 C843 1.547 1_545 S
C841 C844 1.522 1_545 S
C842 H826 0.959 . S
C842 H827 0.959 . S
C842 H828 0.961 . S
C842 C841 1.520 . S
C843 H829 0.960 . S
C843 H830 0.961 . S
C843 H831 0.959 . S
C843 C841 1.547 1_565 S
C844 C841 1.522 1_565 S
C844 C845 1.396 . S
C844 C849 1.390 . S
C845 C839 1.465 . S
C845 C844 1.396 . S
C845 C846 1.399 . S
C846 H832 0.929 . S
C846 C845 1.399 . S
C846 C847 1.385 . S
C847 H833 0.931 . S
C847 C846 1.385 . S
C847 C848 1.389 . S
C848 C847 1.389 . S
C848 C849 1.387 . S
C849 H834 0.920 1_565 S
C849 C844 1.390 . S
C849 C848 1.387 . S
H850 C862 0.930 . S
H851 C864 0.930 . S
H852 C865 0.930 . S
H853 C869 0.959 . S
H854 C869 0.959 . S
H855 C869 0.961 . S
H856 C870 0.960 . S
H857 C870 0.961 . S
H858 C870 0.959 . S
H859 C873 0.929 . S
H860 C874 0.931 . S
H861 C876 0.930 . S
C862 H850 0.930 . S
C862 C863 1.399 . S
C862 C867 1.399 . S
C863 C862 1.399 . S
C863 C864 1.376 . S
C864 H851 0.930 . S
C864 C863 1.376 . S
C864 C865 1.388 . S
C865 H852 0.930 . S
C865 C864 1.388 . S
C865 C866 1.390 . S
C866 C865 1.390 . S
C866 C867 1.394 . S
C866 C872 1.465 . S
C867 C862 1.399 . S
C867 C866 1.394 . S
C867 C868 1.516 . S
C868 C867 1.516 . S
C868 C869 1.502 . S
C868 C870 1.561 . S
C868 C871 1.526 . S
C869 H853 0.959 . S
C869 H854 0.959 . S
C869 H855 0.961 . S
C869 C868 1.502 . S
C870 H856 0.960 . S
C870 H857 0.961 . S
C870 H858 0.959 . S
C870 C868 1.561 . S
C871 C868 1.526 . S
C871 C872 1.396 . S
C871 C876 1.390 . S
C872 C866 1.465 . S
C872 C871 1.396 . S
C872 C873 1.399 . S
C873 H859 0.929 . S
C873 C872 1.399 . S
C873 C874 1.385 . S
C874 H860 0.931 . S
C874 C873 1.385 . S
C874 C875 1.389 . S
C875 C874 1.389 . S
C875 C876 1.387 . S
C876 H861 0.930 . S
C876 C871 1.390 . S
C876 C875 1.387 . S
H877 C889 0.930 . S
H878 C891 0.930 . S
H879 C892 0.930 . S
H880 C896 0.959 . S
H881 C896 0.959 . S
H882 C896 0.961 . S
H883 C897 0.960 . S
H884 C897 0.961 . S
H885 C897 0.959 . S
H886 C900 0.929 . S
H887 C901 0.931 . S
H888 C903 0.930 . S
C889 H877 0.930 . S
C889 C890 1.399 . S
C889 C894 1.399 . S
C890 C889 1.399 . S
C890 C891 1.376 . S
C891 H878 0.930 . S
C891 C890 1.376 . S
C891 C892 1.388 . S
C892 H879 0.930 . S
C892 C891 1.388 . S
C892 C893 1.390 . S
C893 C892 1.390 . S
C893 C894 1.394 . S
C893 C899 1.465 . S
C894 C889 1.399 . S
C894 C893 1.394 . S
C894 C895 1.516 . S
C895 C894 1.516 . S
C895 C896 1.502 . S
C895 C897 1.561 . S
C895 C898 1.526 . S
C896 H880 0.959 . S
C896 H881 0.959 . S
C896 H882 0.961 . S
C896 C895 1.502 . S
C897 H883 0.960 . S
C897 H884 0.961 . S
C897 H885 0.959 . S
C897 C895 1.561 . S
C898 C895 1.526 . S
C898 C899 1.396 . S
C898 C903 1.390 . S
C899 C893 1.465 . S
C899 C898 1.396 . S
C899 C900 1.399 . S
C900 H886 0.929 . S
C900 C899 1.399 . S
C900 C901 1.385 . S
C901 H887 0.931 . S
C901 C900 1.385 . S
C901 C902 1.389 . S
C902 C901 1.389 . S
C902 C903 1.387 . S
C903 H888 0.930 . S
C903 C898 1.390 . S
C903 C902 1.387 . S
C269 C76 1.831 . S
C281 C98 1.967 . S
C308 C138 1.987 . S
C296 C88 1.783 . S
C335 C178 2.005 . S
C323 C52 1.807 . S
C362 C218 1.995 1_455 S
C350 C64 1.829 1_455 S
C389 C111 1.970 . S
C377 C28 1.798 1_545 S
C404 C40 1.789 . S
C416 C151 1.994 . S
C431 C4 1.865 . S
C443 C191 2.005 . S
C458 C16 1.856 . S
C470 C231 1.997 1_655 S
C497 C122 0.463 . S
C485 C69 0.382 . S
C524 C162 0.538 . S
C512 C81 0.500 1_565 S
C551 C202 0.492 . S
C539 C93 0.412 . S
C566 C57 0.545 . S
C578 C242 0.526 . S
C593 C21 0.470 . S
C605 C105 0.528 . S
C632 C145 0.467 . S
C620 C33 0.589 1_565 S
C659 C185 0.421 . S
C647 C45 0.551 . S
C674 C9 0.407 . S
C686 C225 0.489 . S
C701 C66 2.102 . S
C713 C99 2.295 . S
C728 C78 2.063 1_565 S
C740 C139 2.269 . S
C767 C179 2.255 . S
C755 C90 2.016 . S
C794 C219 2.284 . S
C782 C54 2.036 . S
C809 C18 2.095 1_655 S
C821 C118 2.313 . S
C848 C158 2.278 . S
C836 C30 2.069 1_565 S
C875 C198 2.254 . S
C863 C42 2.062 . S
C890 C6 2.079 . S
C902 C238 2.288 . S
