# Generated by pormake.
# Topology nom, (4,4)-cn, num edge types: 1
# Building blocks:
#     Node 0, Type 0, BuildingBlock: AZAVOO_clean_linker_0, # of connection points: 4
#     Node 1, Type 0, BuildingBlock: AZAVOO_clean_linker_0, # of connection points: 4
#     Node 2, Type 0, BuildingBlock: AZAVOO_clean_linker_0, # of connection points: 4
#     Node 3, Type 0, BuildingBlock: AZAVOO_clean_linker_0, # of connection points: 4
#     Node 4, Type 0, BuildingBlock: AZAVOO_clean_linker_0, # of connection points: 4
#     Node 5, Type 0, BuildingBlock: AZAVOO_clean_linker_0, # of connection points: 4
#     Node 6, Type 1, BuildingBlock: CEKHIL_clean_sbu_0, # of connection points: 4
#     Node 7, Type 1, BuildingBlock: CEKHIL_clean_sbu_0, # of connection points: 4
#     Node 8, Type 1, BuildingBlock: CEKHIL_clean_sbu_0, # of connection points: 4
#     Node 9, Type 1, BuildingBlock: CEKHIL_clean_sbu_0, # of connection points: 4
#     Node 10, Type 1, BuildingBlock: CEKHIL_clean_sbu_0, # of connection points: 4
#     Node 11, Type 1, BuildingBlock: CEKHIL_clean_sbu_0, # of connection points: 4
#     Edge 12, Type (0, 1), BuildingBlock: UVAHIK_clean_linker_0, # of connection points: 2
#     Edge 13, Type (0, 1), BuildingBlock: UVAHIK_clean_linker_0, # of connection points: 2
#     Edge 14, Type (0, 1), BuildingBlock: UVAHIK_clean_linker_0, # of connection points: 2
#     Edge 15, Type (0, 1), BuildingBlock: UVAHIK_clean_linker_0, # of connection points: 2
#     Edge 16, Type (0, 1), BuildingBlock: UVAHIK_clean_linker_0, # of connection points: 2
#     Edge 17, Type (0, 1), BuildingBlock: UVAHIK_clean_linker_0, # of connection points: 2
#     Edge 18, Type (0, 1), BuildingBlock: UVAHIK_clean_linker_0, # of connection points: 2
#     Edge 19, Type (0, 1), BuildingBlock: UVAHIK_clean_linker_0, # of connection points: 2
#     Edge 20, Type (0, 1), BuildingBlock: UVAHIK_clean_linker_0, # of connection points: 2
#     Edge 21, Type (0, 1), BuildingBlock: UVAHIK_clean_linker_0, # of connection points: 2
#     Edge 22, Type (0, 1), BuildingBlock: UVAHIK_clean_linker_0, # of connection points: 2
#     Edge 23, Type (0, 1), BuildingBlock: UVAHIK_clean_linker_0, # of connection points: 2
#     Edge 24, Type (0, 1), BuildingBlock: UVAHIK_clean_linker_0, # of connection points: 2
#     Edge 25, Type (0, 1), BuildingBlock: UVAHIK_clean_linker_0, # of connection points: 2
#     Edge 26, Type (0, 1), BuildingBlock: UVAHIK_clean_linker_0, # of connection points: 2
#     Edge 27, Type (0, 1), BuildingBlock: UVAHIK_clean_linker_0, # of connection points: 2
#     Edge 28, Type (0, 1), BuildingBlock: UVAHIK_clean_linker_0, # of connection points: 2
#     Edge 29, Type (0, 1), BuildingBlock: UVAHIK_clean_linker_0, # of connection points: 2
#     Edge 30, Type (0, 1), BuildingBlock: UVAHIK_clean_linker_0, # of connection points: 2
#     Edge 31, Type (0, 1), BuildingBlock: UVAHIK_clean_linker_0, # of connection points: 2
#     Edge 32, Type (0, 1), BuildingBlock: UVAHIK_clean_linker_0, # of connection points: 2
#     Edge 33, Type (0, 1), BuildingBlock: UVAHIK_clean_linker_0, # of connection points: 2
#     Edge 34, Type (0, 1), BuildingBlock: UVAHIK_clean_linker_0, # of connection points: 2
#     Edge 35, Type (0, 1), BuildingBlock: UVAHIK_clean_linker_0, # of connection points: 2
# Relax obj value: 0.131
# Max RMSD: 0.224
# Mean RMSD: 0.146
data_MOF--net-nom--node1-CEKHIL_clean_sbu_0--node2-AZAVOO_clean_linker_0--edge1-UVAHIK_clean_linker_0
_symmetry_space_group_name_H-M    P1
_symmetry_Int_Tables_number       1
_symmetry_cell_setting            triclinic
loop_
_symmetry_equiv_pos_as_xyz
'x, y, z'
_cell_length_a     60.869057
_cell_length_b     60.836144
_cell_length_c     74.709645
_cell_angle_alpha  90.025843
_cell_angle_beta   90.023779
_cell_angle_gamma 123.0687
loop_
_atom_site_label
_atom_site_type_symbol
_atom_site_fract_x
_atom_site_fract_y
_atom_site_fract_z
_atom_type_partial_charge
H0 H 0.06141 0.60149 0.19718 0.0
H1 H 0.1897 0.69913 0.38008 0.0
H2 H 0.00182 0.55949 0.28746 0.0
H3 H 0.96715 0.53817 0.26517 0.0
H4 H 0.95217 0.59958 0.27113 0.0
H5 H 0.98781 0.62132 0.29324 0.0
H6 H 0.05919 0.58924 0.27494 0.0
H7 H 0.06244 0.58921 0.24229 0.0
H8 H 0.04073 0.64595 0.23896 0.0
H9 H 0.03784 0.64601 0.27164 0.0
H10 H 0.09731 0.6064 0.30377 0.0
H11 H 0.1422 0.62715 0.2927 0.0
H12 H 0.14347 0.69726 0.28017 0.0
H13 H 0.09823 0.67587 0.29073 0.0
H14 H 0.07986 0.59864 0.34436 0.0
H15 H 0.11793 0.61488 0.36397 0.0
H16 H 0.14367 0.6946 0.35045 0.0
H17 H 0.10525 0.67806 0.33114 0.0
H18 H 0.02178 0.5732 0.35345 0.0
H19 H 0.03141 0.572 0.38513 0.0
H20 H 0.06839 0.65603 0.38827 0.0
H21 H 0.05802 0.65682 0.35684 0.0
H22 H 0.97455 0.55741 0.3242 0.0
H23 H 0.9314 0.54492 0.33546 0.0
H24 H 0.96286 0.62564 0.34993 0.0
H25 H 0.00585 0.63789 0.33867 0.0
O26 O 0.0602 0.60195 0.21007 0.0
O27 O 0.04891 0.63107 0.2091 0.0
O28 O 0.1602 0.65083 0.3791 0.0
O29 O 0.17451 0.69217 0.37238 0.0
C30 C 0.02098 0.60618 0.30342 0.0
C31 C 0.04594 0.61733 0.29542 0.0
C32 C 0.06847 0.62798 0.30625 0.0
C33 C 0.06613 0.62723 0.32504 0.0
C34 C 0.04131 0.61688 0.33306 0.0
C35 C 0.01876 0.60685 0.32224 0.0
C36 C 0.99732 0.59193 0.29192 0.0
C37 C 0.99077 0.56812 0.28416 0.0
C38 C 0.9708 0.55588 0.27148 0.0
C39 C 0.95678 0.56712 0.26634 0.0
C40 C 0.96275 0.59056 0.27466 0.0
C41 C 0.9829 0.60288 0.28739 0.0
C42 C 0.04841 0.61772 0.27563 0.0
C43 C 0.05536 0.6018 0.26713 0.0
C44 C 0.0571 0.60175 0.24848 0.0
C45 C 0.05184 0.61758 0.23801 0.0
C46 C 0.04491 0.63354 0.24662 0.0
C47 C 0.04324 0.6336 0.26527 0.0
C48 C 0.09467 0.6397 0.29803 0.0
C49 C 0.10725 0.62611 0.2984 0.0
C50 C 0.13293 0.63809 0.29221 0.0
C51 C 0.14655 0.66398 0.28571 0.0
C52 C 0.1335 0.67722 0.2849 0.0
C53 C 0.10772 0.66512 0.29097 0.0
C54 C 0.08981 0.63719 0.33639 0.0
C55 C 0.09375 0.61959 0.34568 0.0
C56 C 0.11552 0.62893 0.35684 0.0
C57 C 0.13385 0.65606 0.35879 0.0
C58 C 0.12994 0.6736 0.34927 0.0
C59 C 0.10808 0.66423 0.33818 0.0
C60 C 0.03933 0.61511 0.35286 0.0
C61 C 0.03092 0.59114 0.36122 0.0
C62 C 0.0368 0.59056 0.37924 0.0
C63 C 0.05114 0.61398 0.38915 0.0
C64 C 0.05721 0.63759 0.38112 0.0
C65 C 0.05127 0.63812 0.36314 0.0
C66 C 0.99324 0.59857 0.3305 0.0
C67 C 0.97211 0.57232 0.32991 0.0
C68 C 0.94751 0.56527 0.33628 0.0
C69 C 0.9437 0.58435 0.34346 0.0
C70 C 0.9652 0.61047 0.34462 0.0
C71 C 0.98974 0.6175 0.33817 0.0
C72 C 0.05354 0.61736 0.2182 0.0
C73 C 0.15694 0.66608 0.37071 0.0
H74 H 0.604 0.11006 0.37018 0.0
H75 H 0.56577 0.19413 0.55293 0.0
H76 H 0.57111 0.03252 0.45697 0.0
H77 H 0.56165 -0.00135 0.43495 0.0
H78 H 0.48087 0.97614 0.43288 0.0
H79 H 0.49043 0.00927 0.45549 0.0
H80 H 0.59848 0.09685 0.44796 0.0
H81 H 0.60872 0.10623 0.4161 0.0
H82 H 0.52596 0.06645 0.40427 0.0
H83 H 0.51603 0.05746 0.43617 0.0
H84 H 0.60594 0.1357 0.47853 0.0
H85 H 0.62037 0.18047 0.46969 0.0
H86 H 0.54287 0.15146 0.44877 0.0
H87 H 0.52907 0.10699 0.45718 0.0
H88 H 0.59215 0.11039 0.51719 0.0
H89 H 0.60303 0.14553 0.53851 0.0
H90 H 0.5366 0.14697 0.51971 0.0
H91 H 0.52582 0.11164 0.4986 0.0
H92 H 0.56651 0.05342 0.52488 0.0
H93 H 0.56503 0.05691 0.55731 0.0
H94 H 0.49678 0.06141 0.55201 0.0
H95 H 0.49935 0.05914 0.51945 0.0
H96 H 0.54279 0.00257 0.49229 0.0
H97 H 0.51314 0.95681 0.50189 0.0
H98 H 0.45074 0.97019 0.50814 0.0
H99 H 0.48034 0.01559 0.49858 0.0
O100 O 0.59953 0.10613 0.3827 0.0
O101 O 0.55675 0.08533 0.37734 0.0
O102 O 0.59582 0.1787 0.55382 0.0
O103 O 0.562 0.18032 0.54458 0.0
C104 C 0.53776 0.04493 0.47024 0.0
C105 C 0.55044 0.07088 0.46367 0.0
C106 C 0.55665 0.09163 0.47546 0.0
C107 C 0.55126 0.08667 0.49389 0.0
C108 C 0.53832 0.06074 0.50042 0.0
C109 C 0.53088 0.03976 0.48853 0.0
C110 C 0.53144 0.02325 0.45779 0.0
C111 C 0.55132 0.01997 0.45189 0.0
C112 C 0.54589 0.00075 0.4392 0.0
C113 C 0.5205 0.98467 0.432 0.0
C114 C 0.50053 0.98779 0.43829 0.0
C115 C 0.50594 0.00682 0.45114 0.0
C116 C 0.55653 0.0763 0.44432 0.0
C117 C 0.58261 0.09018 0.43845 0.0
C118 C 0.58839 0.09549 0.42025 0.0
C119 C 0.56815 0.08703 0.40762 0.0
C120 C 0.54201 0.07318 0.41362 0.0
C121 C 0.53627 0.06793 0.43182 0.0
C122 C 0.56653 0.1182 0.46839 0.0
C123 C 0.59232 0.13909 0.47175 0.0
C124 C 0.60041 0.16462 0.46683 0.0
C125 C 0.58276 0.1696 0.45856 0.0
C126 C 0.55714 0.14836 0.45482 0.0
C127 C 0.54915 0.12291 0.45965 0.0
C128 C 0.55826 0.10856 0.50638 0.0
C129 C 0.58002 0.11837 0.51771 0.0
C130 C 0.58617 0.13842 0.52985 0.0
C131 C 0.57066 0.14906 0.53082 0.0
C132 C 0.54895 0.13924 0.51932 0.0
C133 C 0.54278 0.11913 0.50722 0.0
C134 C 0.53308 0.05607 0.51987 0.0
C135 C 0.55081 0.05439 0.53079 0.0
C136 C 0.54985 0.05635 0.54937 0.0
C137 C 0.53095 0.05978 0.55736 0.0
C138 C 0.51195 0.05937 0.54634 0.0
C139 C 0.51314 0.05773 0.52775 0.0
C140 C 0.51372 0.01239 0.4949 0.0
C141 C 0.52273 0.99555 0.4958 0.0
C142 C 0.50578 0.96947 0.5012 0.0
C143 C 0.47966 0.95997 0.50586 0.0
C144 C 0.47085 0.97702 0.50495 0.0
C145 C 0.4877 0.00294 0.49948 0.0
C146 C 0.57435 0.09272 0.38831 0.0
C147 C 0.57701 0.17024 0.54378 0.0
H148 H 0.44187 0.42517 0.76604 0.0
H149 H 0.51411 0.3894 0.57701 0.0
H150 H 0.44697 0.49564 0.68221 0.0
H151 H 0.42533 0.50481 0.70583 0.0
H152 H 0.35039 0.43786 0.68916 0.0
H153 H 0.37232 0.42914 0.66511 0.0
H154 H 0.47275 0.46238 0.69251 0.0
H155 H 0.46756 0.45201 0.72449 0.0
H156 H 0.38572 0.39214 0.71568 0.0
H157 H 0.3913 0.40252 0.68369 0.0
H158 H 0.50099 0.45087 0.6609 0.0
H159 H 0.51841 0.42544 0.67198 0.0
H160 H 0.4395 0.35725 0.677 0.0
H161 H 0.42227 0.38288 0.66586 0.0
H162 H 0.50386 0.4762 0.62472 0.0
H163 H 0.52926 0.46642 0.6047 0.0
H164 H 0.46547 0.38477 0.60391 0.0
H165 H 0.44011 0.39492 0.6237 0.0
H166 H 0.4786 0.50673 0.61964 0.0
H167 H 0.49723 0.52084 0.58955 0.0
H168 H 0.44303 0.44215 0.56998 0.0
H169 H 0.42448 0.42847 0.5999 0.0
H170 H 0.43963 0.51094 0.64981 0.0
H171 H 0.41502 0.53015 0.64044 0.0
H172 H 0.36633 0.46312 0.60653 0.0
H173 H 0.39022 0.44336 0.6166 0.0
O174 O 0.44356 0.42873 0.75332 0.0
O175 O 0.40161 0.39821 0.74808 0.0
O176 O 0.53654 0.43609 0.58556 0.0
O177 O 0.50449 0.39382 0.58493 0.0
C178 C 0.42503 0.45435 0.65969 0.0
C179 C 0.43552 0.44029 0.66656 0.0
C180 C 0.44988 0.43395 0.65532 0.0
C181 C 0.45445 0.44242 0.63733 0.0
C182 C 0.44409 0.45668 0.6305 0.0
C183 C 0.42895 0.46226 0.64157 0.0
C184 C 0.41115 0.46184 0.67198 0.0
C185 C 0.42581 0.48342 0.68334 0.0
C186 C 0.41341 0.48865 0.69675 0.0
C187 C 0.38619 0.47207 0.69923 0.0
C188 C 0.37139 0.45093 0.68744 0.0
C189 C 0.38381 0.44599 0.67375 0.0
C190 C 0.43239 0.43323 0.68584 0.0
C191 C 0.45377 0.44692 0.69752 0.0
C192 C 0.45072 0.44101 0.71577 0.0
C193 C 0.4262 0.42129 0.72265 0.0
C194 C 0.40486 0.40746 0.71083 0.0
C195 C 0.40797 0.41336 0.69257 0.0
C196 C 0.46039 0.41867 0.66248 0.0
C197 C 0.4875 0.43043 0.66435 0.0
C198 C 0.49738 0.41586 0.67065 0.0
C199 C 0.48031 0.3893 0.67529 0.0
C200 C 0.45312 0.37772 0.67369 0.0
C201 C 0.44326 0.39228 0.66728 0.0
C202 C 0.47012 0.43629 0.62557 0.0
C203 C 0.49538 0.45624 0.62015 0.0
C204 C 0.50986 0.45059 0.60875 0.0
C205 C 0.49938 0.4248 0.60269 0.0
C206 C 0.47412 0.40482 0.60831 0.0
C207 C 0.45961 0.41054 0.61964 0.0
C208 C 0.45031 0.46657 0.61189 0.0
C209 C 0.47017 0.49286 0.60867 0.0
C210 C 0.48093 0.5008 0.59155 0.0
C211 C 0.47178 0.48256 0.57743 0.0
C212 C 0.45035 0.45678 0.58048 0.0
C213 C 0.43972 0.44886 0.59758 0.0
C214 C 0.41643 0.47552 0.63415 0.0
C215 C 0.42362 0.50035 0.64041 0.0
C216 C 0.40964 0.51132 0.63502 0.0
C217 C 0.3887 0.49796 0.6229 0.0
C218 C 0.38243 0.47378 0.61588 0.0
C219 C 0.39606 0.46254 0.62158 0.0
C220 C 0.42295 0.41529 0.74209 0.0
C221 C 0.51466 0.41869 0.59055 0.0
H222 H 0.04998 0.60415 0.94118 0.0
H223 H 0.16962 0.61016 0.7576 0.0
H224 H 0.98893 0.58157 0.85474 0.0
H225 H 0.95675 0.56118 0.87886 0.0
H226 H 0.93983 0.48512 0.86288 0.0
H227 H 0.9729 0.50584 0.8394 0.0
H228 H 0.05251 0.6151 0.86327 0.0
H229 H 0.0551 0.61849 0.89595 0.0
H230 H 0.01839 0.53453 0.89965 0.0
H231 H 0.01634 0.53149 0.86699 0.0
H232 H 0.10125 0.62987 0.83516 0.0
H233 H 0.14338 0.63964 0.84703 0.0
H234 H 0.10653 0.55815 0.86178 0.0
H235 H 0.06499 0.54871 0.84997 0.0
H236 H 0.08112 0.62695 0.7966 0.0
H237 H 0.11909 0.64327 0.7769 0.0
H238 H 0.11897 0.57331 0.78748 0.0
H239 H 0.08084 0.55715 0.807 0.0
H240 H 0.0307 0.60017 0.78045 0.0
H241 H 0.04482 0.60385 0.74922 0.0
H242 H 0.04303 0.53231 0.7549 0.0
H243 H 0.02984 0.52922 0.7862 0.0
H244 H 0.96695 0.5639 0.81011 0.0
H245 H 0.92312 0.53296 0.79767 0.0
H246 H 0.94409 0.47628 0.78944 0.0
H247 H 0.98744 0.50713 0.80178 0.0
O248 O 0.04889 0.60239 0.92828 0.0
O249 O 0.02971 0.55912 0.92944 0.0
O250 O 0.15394 0.63987 0.76044 0.0
O251 O 0.15494 0.60442 0.76559 0.0
C252 C 0.00749 0.5581 0.83423 0.0
C253 C 0.03219 0.57116 0.84292 0.0
C254 C 0.05533 0.58134 0.83279 0.0
C255 C 0.05404 0.5802 0.81397 0.0
C256 C 0.02945 0.56697 0.80525 0.0
C257 C 0.00613 0.55527 0.81538 0.0
C258 C 0.98331 0.54522 0.84532 0.0
C259 C 0.9777 0.56042 0.85614 0.0
C260 C 0.95926 0.5487 0.86991 0.0
C261 C 0.94601 0.52154 0.87299 0.0
C262 C 0.95008 0.50615 0.86109 0.0
C263 C 0.96867 0.5179 0.84746 0.0
C264 C 0.03394 0.57303 0.86278 0.0
C265 C 0.04509 0.59749 0.87118 0.0
C266 C 0.0465 0.59935 0.88984 0.0
C267 C 0.03684 0.57676 0.90042 0.0
C268 C 0.02591 0.5523 0.89191 0.0
C269 C 0.02461 0.55049 0.87326 0.0
C270 C 0.0801 0.58863 0.84183 0.0
C271 C 0.10232 0.61432 0.84124 0.0
C272 C 0.12629 0.61981 0.84794 0.0
C273 C 0.12822 0.59967 0.8554 0.0
C274 C 0.10562 0.5742 0.85647 0.0
C275 C 0.08186 0.56874 0.8497 0.0
C276 C 0.07834 0.59094 0.80322 0.0
C277 C 0.08948 0.61531 0.79474 0.0
C278 C 0.11111 0.62453 0.78347 0.0
C279 C 0.12202 0.60954 0.78057 0.0
C280 C 0.11104 0.58532 0.78939 0.0
C281 C 0.08935 0.57609 0.80061 0.0
C282 C 0.0289 0.56425 0.78551 0.0
C283 C 0.03224 0.5847 0.77471 0.0
C284 C 0.04052 0.58691 0.75698 0.0
C285 C 0.04506 0.56839 0.74977 0.0
C286 C 0.03937 0.54664 0.76012 0.0
C287 C 0.0316 0.54473 0.77793 0.0
C288 C 0.98048 0.5379 0.80652 0.0
C289 C 0.9621 0.54494 0.80534 0.0
C290 C 0.9371 0.52722 0.79834 0.0
C291 C 0.93021 0.50223 0.79245 0.0
C292 C 0.94893 0.49555 0.79345 0.0
C293 C 0.97376 0.51317 0.80047 0.0
C294 C 0.03822 0.57878 0.92024 0.0
C295 C 0.1446 0.61896 0.76827 0.0
H296 H 0.54822 0.96027 0.86833 0.0
H297 H 0.59142 0.87546 0.04807 0.0
H298 H 0.56778 0.02346 0.95415 0.0
H299 H 0.56963 0.05439 0.93232 0.0
H300 H 0.65414 0.10082 0.9361 0.0
H301 H 0.65213 0.06954 0.95785 0.0
H302 H 0.55167 0.96735 0.94649 0.0
H303 H 0.54234 0.95923 0.91445 0.0
H304 H 0.62513 0.01058 0.90305 0.0
H305 H 0.6342 0.0183 0.93514 0.0
H306 H 0.54654 0.93569 0.97856 0.0
H307 H 0.53063 0.89035 0.97073 0.0
H308 H 0.60564 0.91614 0.94684 0.0
H309 H 0.62132 0.96167 0.95459 0.0
H310 H 0.56192 0.95927 0.01716 0.0
H311 H 0.55285 0.9239 0.03766 0.0
H312 H 0.6185 0.92384 0.0156 0.0
H313 H 0.62759 0.9595 0.99537 0.0
H314 H 0.58341 0.01868 0.02296 0.0
H315 H 0.58337 0.01524 0.05551 0.0
H316 H 0.64819 0.00504 0.05235 0.0
H317 H 0.64802 0.00849 0.01968 0.0
H318 H 0.59157 0.05658 0.99181 0.0
H319 H 0.61177 0.10166 0.00269 0.0
H320 H 0.68506 0.10718 0.01027 0.0
H321 H 0.66461 0.06212 -0.00039 0.0
O322 O 0.55236 0.96358 0.88095 0.0
O323 O 0.59513 0.99015 0.87582 0.0
O324 O 0.56138 0.89067 0.05125 0.0
O325 O 0.59462 0.8895 0.04016 0.0
C326 C 0.60837 0.02391 0.96947 0.0
C327 C 0.59923 -0.00135 0.96255 0.0
C328 C 0.59551 0.97858 0.97411 0.0
C329 C 0.60098 0.98365 0.99255 0.0
C330 C 0.61107 0.00909 -0.00061 0.0
C331 C 0.61495 0.02928 0.98783 0.0
C332 C 0.60982 0.04417 0.9575 0.0
C333 C 0.58669 0.0404 0.95034 0.0
C334 C 0.58777 0.05803 0.93786 0.0
C335 C 0.61203 0.07993 0.93244 0.0
C336 C 0.63516 0.08422 0.94015 0.0
C337 C 0.63407 0.06639 0.95253 0.0
C338 C 0.59361 0.99329 0.94312 0.0
C339 C 0.56777 0.97664 0.93705 0.0
C340 C 0.56249 0.97212 0.91874 0.0
C341 C 0.58299 0.98426 0.90618 0.0
C342 C 0.60889 0.00092 0.91236 0.0
C343 C 0.61413 0.00537 0.93067 0.0
C344 C 0.58506 0.95182 0.96719 0.0
C345 C 0.55939 0.93155 0.97142 0.0
C346 C 0.55045 0.9057 0.96709 0.0
C347 C 0.56706 0.89968 0.95843 0.0
C348 C 0.59242 0.92022 0.95347 0.0
C349 C 0.60138 0.94616 0.95786 0.0
C350 C 0.59544 0.96197 0.00484 0.0
C351 C 0.57437 0.95165 0.01684 0.0
C352 C 0.56921 0.93142 0.0285 0.0
C353 C 0.58497 0.92104 0.02827 0.0
C354 C 0.606 0.93137 0.01613 0.0
C355 C 0.6112 0.9517 0.00454 0.0
C356 C 0.6156 0.01367 0.01897 0.0
C357 C 0.5982 0.01665 0.02934 0.0
C358 C 0.59821 0.01464 0.04796 0.0
C359 C 0.61559 0.00954 0.05651 0.0
C360 C 0.63432 0.00858 0.04613 0.0
C361 C 0.63439 0.01074 0.02751 0.0
C362 C 0.62669 0.0562 0.99488 0.0
C363 C 0.61196 0.06758 0.99586 0.0
C364 C 0.62356 0.09331 0.002 0.0
C365 C 0.65003 0.10799 0.00732 0.0
C366 C 0.66455 0.0963 0.00652 0.0
C367 C 0.65296 0.07063 0.00036 0.0
C368 C 0.57731 0.97957 0.88673 0.0
C369 C 0.57953 0.89951 0.04061 0.0
H370 H 0.43254 0.40865 0.04528 0.0
H371 H 0.58711 0.44187 0.21134 0.0
H372 H 0.42049 0.45806 0.13241 0.0
H373 H 0.39786 0.46734 0.10948 0.0
H374 H 0.46514 0.54701 0.10576 0.0
H375 H 0.48754 0.53756 0.12863 0.0
H376 H 0.4469 0.42417 0.12276 0.0
H377 H 0.43607 0.40988 0.09156 0.0
H378 H 0.48605 0.49047 0.07421 0.0
H379 H 0.49703 0.50442 0.10541 0.0
H380 H 0.48648 0.41848 0.14898 0.0
H381 H 0.51488 0.40479 0.13714 0.0
H382 H 0.56164 0.47944 0.11011 0.0
H383 H 0.53318 0.49257 0.1217 0.0
H384 H 0.47874 0.43858 0.19029 0.0
H385 H 0.50085 0.42307 0.20877 0.0
H386 H 0.57311 0.47464 0.18019 0.0
H387 H 0.55087 0.49023 0.16199 0.0
H388 H 0.46026 0.48211 0.19925 0.0
H389 H 0.47279 0.49532 0.23046 0.0
H390 H 0.55451 0.53433 0.21567 0.0
H391 H 0.54178 0.52231 0.18451 0.0
H392 H 0.43533 0.50045 0.16807 0.0
H393 H 0.43396 0.53828 0.17804 0.0
H394 H 0.51859 0.58668 0.17724 0.0
H395 H 0.5198 0.54931 0.16698 0.0
O396 O 0.43712 0.4147 0.05752 0.0
O397 O 0.46271 0.4565 0.04934 0.0
O398 O 0.54032 0.42172 0.21865 0.0
O399 O 0.57791 0.44773 0.20427 0.0
C400 C 0.47107 0.48988 0.14303 0.0
C401 C 0.47887 0.4739 0.13533 0.0
C402 C 0.49396 0.46715 0.14539 0.0
C403 C 0.49944 0.47452 0.16357 0.0
C404 C 0.49247 0.49125 0.17105 0.0
C405 C 0.47933 0.49991 0.16051 0.0
C406 C 0.45562 0.49713 0.13214 0.0
C407 C 0.42999 0.47771 0.12698 0.0
C408 C 0.41717 0.48299 0.11385 0.0
C409 C 0.42981 0.50783 0.10575 0.0
C410 C 0.45477 0.52778 0.11191 0.0
C411 C 0.46762 0.52243 0.12496 0.0
C412 C 0.47249 0.46534 0.11635 0.0
C413 C 0.4555 0.43868 0.11219 0.0
C414 C 0.44933 0.43059 0.09436 0.0
C415 C 0.46011 0.44905 0.08039 0.0
C416 C 0.47732 0.47575 0.08464 0.0
C417 C 0.48353 0.48379 0.10245 0.0
C418 C 0.5078 0.45649 0.13617 0.0
C419 C 0.50253 0.43153 0.14016 0.0
C420 C 0.51886 0.42386 0.13349 0.0
C421 C 0.54061 0.44106 0.12272 0.0
C422 C 0.54487 0.46549 0.11808 0.0
C423 C 0.52863 0.47309 0.12473 0.0
C424 C 0.51313 0.46533 0.17471 0.0
C425 C 0.49934 0.4465 0.18806 0.0
C426 C 0.51202 0.43767 0.19858 0.0
C427 C 0.53875 0.44756 0.19591 0.0
C428 C 0.55252 0.46656 0.18256 0.0
C429 C 0.53984 0.47543 0.1721 0.0
C430 C 0.5001 0.50074 0.18973 0.0
C431 C 0.48085 0.49384 0.20278 0.0
C432 C 0.48806 0.50131 0.22059 0.0
C433 C 0.51466 0.51568 0.22564 0.0
C434 C 0.53387 0.52355 0.2123 0.0
C435 C 0.52664 0.51631 0.19451 0.0
C436 C 0.47768 0.52209 0.16693 0.0
C437 C 0.45351 0.51925 0.17006 0.0
C438 C 0.45277 0.5408 0.17573 0.0
C439 C 0.4762 0.56531 0.17857 0.0
C440 C 0.50027 0.56794 0.17548 0.0
C441 C 0.50098 0.54662 0.1696 0.0
C442 C 0.45346 0.44042 0.06147 0.0
C443 C 0.55227 0.43817 0.207 0.0
Co444 Co 0.64044 0.4609 0.40403 0.0
O445 O 0.6666 0.46708 0.38695 0.0
O446 O 0.67021 0.497 0.40581 0.0
C447 C 0.63373 0.42283 0.41435 0.0
O448 O 0.61716 0.4609 0.42368 0.0
Co449 Co 0.58408 0.41095 0.39954 0.0
O450 O 0.57795 0.42243 0.42271 0.0
C451 C 0.60127 0.45757 0.37699 0.0
C452 C 0.68054 0.49079 0.39312 0.0
C453 C 0.59382 0.44484 0.4297 0.0
O454 O 0.62296 0.47082 0.38573 0.0
O455 O 0.5844 0.43309 0.37958 0.0
O456 O 0.6529 0.44508 0.42058 0.0
O457 O 0.62091 0.42443 0.40122 0.0
Co458 Co 0.24739 0.65773 0.56833 0.0
O459 O 0.2699 0.65364 0.584 0.0
O460 O 0.24065 0.62275 0.56579 0.0
C461 C 0.27942 0.69731 0.55778 0.0
O462 O 0.22168 0.65551 0.54961 0.0
Co463 Co 0.23974 0.70375 0.57405 0.0
O464 O 0.22247 0.69291 0.55039 0.0
C465 C 0.21092 0.6566 0.59689 0.0
C466 C 0.25925 0.63019 0.57753 0.0
C467 C 0.21494 0.67078 0.54337 0.0
O468 O 0.22005 0.64527 0.58783 0.0
O469 O 0.21757 0.68023 0.59412 0.0
O470 O 0.27587 0.67595 0.55098 0.0
O471 O 0.26501 0.69413 0.57146 0.0
Co472 Co 0.63264 0.24714 0.74221 0.0
O473 O 0.62615 0.26484 0.72378 0.0
O474 O 0.59779 0.24045 0.74498 0.0
C475 C 0.67271 0.28178 0.74946 0.0
O476 O 0.63313 0.22705 0.764 0.0
Co477 Co 0.67811 0.23867 0.73856 0.0
O478 O 0.67158 0.23003 0.76431 0.0
C479 C 0.62955 0.20516 0.71793 0.0
C480 C 0.60343 0.25559 0.73111 0.0
C481 C 0.65012 0.22386 0.77177 0.0
O482 O 0.61877 0.21556 0.72611 0.0
O483 O 0.65348 0.21259 0.72029 0.0
O484 O 0.65178 0.27938 0.75607 0.0
O485 O 0.66877 0.26444 0.73764 0.0
Co486 Co 0.39061 0.59311 0.89966 0.0
O487 O 0.37665 0.60734 0.88371 0.0
O488 O 0.35308 0.57386 0.90215 0.0
C489 C 0.42311 0.63164 0.91063 0.0
O490 O 0.39766 0.57402 0.91879 0.0
Co491 Co 0.44586 0.60403 0.89522 0.0
O492 O 0.44101 0.59216 0.92046 0.0
C493 C 0.40405 0.56744 0.87052 0.0
C494 C 0.35384 0.58987 0.89026 0.0
C495 C 0.41806 0.57796 0.92701 0.0
O496 O 0.38735 0.56858 0.88029 0.0
O497 O 0.42875 0.5813 0.87356 0.0
O498 O 0.39949 0.62036 0.91696 0.0
O499 O 0.42608 0.62055 0.89686 0.0
Co500 Co 0.79193 0.41709 0.07475 0.0
O501 O 0.76397 0.40776 0.09126 0.0
O502 O 0.78113 0.44149 0.07258 0.0
C503 C 0.77508 0.37637 0.06405 0.0
O504 O 0.81957 0.43192 0.05509 0.0
Co505 Co 0.82718 0.39546 0.07884 0.0
O506 O 0.83837 0.40884 0.05409 0.0
C507 C 0.8318 0.43452 0.10448 0.0
C508 C 0.76377 0.42743 0.08477 0.0
C509 C 0.83416 0.42546 0.04736 0.0
O510 O 0.81831 0.43934 0.09383 0.0
O511 O 0.83559 0.41606 0.1017 0.0
O512 O 0.76723 0.39091 0.05787 0.0
O513 O 0.79116 0.38598 0.07744 0.0
Co514 Co 0.46311 0.819 0.23429 0.0
O515 O 0.45993 0.79708 0.21464 0.0
O516 O 0.48881 0.80977 0.23662 0.0
C517 C 0.41991 0.79665 0.24029 0.0
O518 O 0.47114 0.84023 0.25735 0.0
Co519 Co 0.43718 0.85083 0.23354 0.0
O520 O 0.44051 0.84985 0.25987 0.0
C521 C 0.48647 0.87014 0.21355 0.0
C522 C 0.47844 0.79587 0.22218 0.0
C523 C 0.45834 0.84751 0.26661 0.0
O524 O 0.48812 0.85143 0.21995 0.0
O525 O 0.4672 0.87254 0.21674 0.0
O526 O 0.4343 0.78863 0.24648 0.0
O527 O 0.43157 0.81666 0.22969 0.0
C528 C 0.19181 0.67376 0.2906 0.0
C529 C 0.17457 0.67747 0.28051 0.0
C530 C 0.21827 0.68677 0.28603 0.0
C531 C 0.27074 0.74492 0.26298 0.0
H532 H 0.3047 0.70646 0.26154 0.0
C533 C 0.37626 0.79089 0.23666 0.0
C534 C 0.39217 0.78407 0.24536 0.0
C535 C 0.34973 0.77825 0.241 0.0
C536 C 0.29563 0.71759 0.26213 0.0
H537 H 0.17166 0.69761 0.25756 0.0
H538 H 0.21809 0.7207 0.24978 0.0
H539 H 0.25825 0.68351 0.26885 0.0
H540 H 0.39306 0.75923 0.26576 0.0
H541 H 0.34694 0.73761 0.27367 0.0
H542 H 0.30816 0.7791 0.25657 0.0
C543 C 0.21101 0.70776 0.26127 0.0
C544 C 0.269 0.7044 0.26625 0.0
C545 C 0.18446 0.69457 0.26576 0.0
C546 C 0.3812 0.76474 0.25872 0.0
C547 C 0.35473 0.75224 0.26317 0.0
C548 C 0.29745 0.75818 0.259 0.0
C549 C 0.22814 0.70395 0.27137 0.0
C550 C 0.2563 0.71793 0.26672 0.0
C551 C 0.3386 0.75865 0.25424 0.0
C552 C 0.31022 0.74467 0.25854 0.0
H553 H 0.185 0.66119 0.30228 0.0
H554 H 0.23113 0.68377 0.29419 0.0
H555 H 0.26148 0.75588 0.26347 0.0
H556 H 0.3842 0.80569 0.22626 0.0
H557 H 0.33782 0.78345 0.2337 0.0
C558 C 0.60582 0.21733 0.46675 0.0
C559 C 0.59042 0.19683 0.45459 0.0
C560 C 0.61119 0.24248 0.46368 0.0
C561 C 0.58401 0.27562 0.44113 0.0
H562 H 0.65416 0.33823 0.44382 0.0
C563 C 0.60867 0.37407 0.41261 0.0
C564 C 0.62758 0.39737 0.42125 0.0
C565 C 0.60384 0.35 0.41832 0.0
C566 C 0.63438 0.32101 0.44334 0.0
H567 H 0.56969 0.18711 0.42924 0.0
H568 H 0.5786 0.23082 0.42413 0.0
H569 H 0.64708 0.2955 0.45049 0.0
H570 H 0.65576 0.41377 0.44297 0.0
H571 H 0.6469 0.37154 0.45325 0.0
H572 H 0.57111 0.30087 0.43417 0.0
C573 C 0.58625 0.22729 0.43612 0.0
C574 C 0.63038 0.29656 0.44707 0.0
C575 C 0.58113 0.20227 0.43907 0.0
C576 C 0.64115 0.3961 0.43601 0.0
C577 C 0.63619 0.37193 0.44181 0.0
C578 C 0.58793 0.30003 0.43759 0.0
C579 C 0.60103 0.24753 0.4485 0.0
C580 C 0.60523 0.27362 0.44567 0.0
C581 C 0.61765 0.34861 0.43291 0.0
C582 C 0.61323 0.32298 0.4383 0.0
H583 H 0.613 0.21377 0.47896 0.0
H584 H 0.62256 0.25776 0.47346 0.0
H585 H 0.56433 0.25825 0.44029 0.0
H586 H 0.59797 0.37444 0.40115 0.0
H587 H 0.58976 0.33253 0.41094 0.0
C588 C 0.36133 0.51513 0.63195 0.0
C589 C 0.37269 0.50871 0.6183 0.0
C590 C 0.34627 0.52539 0.62781 0.0
C591 C 0.31299 0.53642 0.5899 0.0
H592 H 0.31817 0.58865 0.62245 0.0
C593 C 0.25608 0.58708 0.57811 0.0
C594 C 0.26932 0.61377 0.58271 0.0
C595 C 0.26654 0.57226 0.58286 0.0
C596 C 0.31664 0.5743 0.61307 0.0
H597 H 0.37723 0.50774 0.58965 0.0
H598 H 0.352 0.52692 0.58232 0.0
H599 H 0.34115 0.56751 0.6293 0.0
H600 H 0.30412 0.64592 0.59554 0.0
H601 H 0.32262 0.62067 0.60316 0.0
H602 H 0.28971 0.54458 0.57313 0.0
C603 C 0.35392 0.52331 0.59624 0.0
C604 C 0.32952 0.56174 0.61719 0.0
C605 C 0.36857 0.51252 0.6004 0.0
C606 C 0.2932 0.62532 0.592 0.0
C607 C 0.30377 0.61071 0.5965 0.0
C608 C 0.3004 0.54934 0.58563 0.0
C609 C 0.34266 0.53004 0.60991 0.0
C610 C 0.32804 0.5427 0.60564 0.0
C611 C 0.29058 0.58393 0.59212 0.0
C612 C 0.30232 0.5687 0.59708 0.0
H613 H 0.36388 0.51193 0.64585 0.0
H614 H 0.33741 0.5296 0.63872 0.0
H615 H 0.31095 0.52157 0.58079 0.0
H616 H 0.23764 0.57766 0.57094 0.0
H617 H 0.25568 0.55164 0.57941 0.0
C618 C 0.88139 0.47866 0.79562 0.0
C619 C 0.90322 0.48244 0.78627 0.0
C620 C 0.85608 0.45804 0.79106 0.0
C621 C 0.81722 0.40933 0.75548 0.0
H622 H 0.77127 0.36899 0.7949 0.0
C623 C 0.72139 0.30805 0.74533 0.0
C624 C 0.69921 0.3039 0.75437 0.0
C625 C 0.74626 0.33004 0.74922 0.0
C626 C 0.78379 0.38019 0.78375 0.0
H627 H 0.91553 0.46845 0.76418 0.0
H628 H 0.87149 0.4322 0.75646 0.0
H629 H 0.81436 0.40807 0.8011 0.0
H630 H 0.68566 0.31911 0.77483 0.0
H631 H 0.72904 0.3574 0.78164 0.0
H632 H 0.78669 0.38118 0.73816 0.0
C633 C 0.87384 0.44521 0.76725 0.0
C634 C 0.80843 0.40265 0.78729 0.0
C635 C 0.89912 0.46583 0.77179 0.0
C636 C 0.70241 0.32179 0.76765 0.0
C637 C 0.72726 0.34367 0.7716 0.0
C638 C 0.7926 0.3868 0.75195 0.0
C639 C 0.85207 0.44076 0.77706 0.0
C640 C 0.82547 0.41747 0.7732 0.0
C641 C 0.74942 0.34818 0.7623 0.0
C642 C 0.77564 0.37197 0.76605 0.0
H643 H 0.8839 0.491 0.80692 0.0
H644 H 0.83968 0.45539 0.79869 0.0
H645 H 0.82972 0.42049 0.74432 0.0
H646 H 0.71951 0.29456 0.73506 0.0
H647 H 0.76304 0.33283 0.742 0.0
C648 C 0.5441 0.85312 0.9686 0.0
C649 C 0.55801 0.87195 0.95521 0.0
C650 C 0.53381 0.82668 0.96533 0.0
C651 C 0.53601 0.7797 0.93541 0.0
H652 H 0.46261 0.73474 0.94823 0.0
C653 C 0.46554 0.6749 0.90713 0.0
C654 C 0.44449 0.65682 0.91795 0.0
C655 C 0.48316 0.70049 0.91323 0.0
C656 C 0.48324 0.7468 0.94489 0.0
H657 H 0.5731 0.878 0.92815 0.0
H658 H 0.55494 0.8315 0.92237 0.0
H659 H 0.48659 0.78086 0.95592 0.0
H660 H 0.42667 0.65019 0.94414 0.0
H661 H 0.45788 0.69436 0.95506 0.0
H662 H 0.53242 0.74542 0.92419 0.0
C663 C 0.55217 0.83735 0.93544 0.0
C664 C 0.49697 0.77332 0.94926 0.0
C665 C 0.56248 0.86391 0.93872 0.0
C666 C 0.4425 0.66397 0.93542 0.0
C667 C 0.46029 0.6893 0.94162 0.0
C668 C 0.52225 0.75297 0.93113 0.0
C669 C 0.53723 0.81844 0.94859 0.0
C670 C 0.52343 0.79009 0.9445 0.0
C671 C 0.48013 0.7082 0.93034 0.0
C672 C 0.49565 0.73625 0.93576 0.0
H673 H 0.54093 0.85882 0.98161 0.0
H674 H 0.52279 0.81258 0.97582 0.0
H675 H 0.55646 0.79221 0.93168 0.0
H676 H 0.46746 0.66978 0.89358 0.0
H677 H 0.49815 0.71455 0.90417 0.0
C678 C 0.57303 0.44293 0.10097 0.0
C679 C 0.56032 0.43496 0.11765 0.0
C680 C 0.59446 0.44109 0.0973 0.0
C681 C 0.64584 0.43753 0.12096 0.0
H682 H 0.66144 0.42434 0.07334 0.0
C683 C 0.72761 0.41932 0.10511 0.0
C684 C 0.74317 0.43194 0.08998 0.0
C685 C 0.70603 0.42084 0.10893 0.0
C686 C 0.65743 0.42832 0.08666 0.0
H687 H 0.55938 0.41747 0.14318 0.0
H688 H 0.59594 0.41312 0.13645 0.0
H689 H 0.62055 0.42173 0.07868 0.0
H690 H 0.74895 0.45675 0.06728 0.0
H691 H 0.71093 0.45917 0.07388 0.0
H692 H 0.68254 0.44351 0.12894 0.0
C693 C 0.58986 0.42157 0.12641 0.0
C694 C 0.63401 0.42682 0.08974 0.0
C695 C 0.56857 0.42364 0.13015 0.0
C696 C 0.73731 0.44687 0.07906 0.0
C697 C 0.71548 0.44809 0.08274 0.0
C698 C 0.6691 0.43873 0.1179 0.0
C699 C 0.60354 0.43097 0.11014 0.0
C700 C 0.62794 0.43147 0.10693 0.0
C701 C 0.69942 0.43474 0.09755 0.0
C702 C 0.67515 0.43423 0.10072 0.0
H703 H 0.56692 0.45136 0.09093 0.0
H704 H 0.60453 0.44865 0.08466 0.0
H705 H 0.64214 0.44181 0.13427 0.0
H706 H 0.7317 0.4077 0.11378 0.0
H707 H 0.69392 0.41029 0.12039 0.0
C708 C 0.46014 0.91165 0.50218 0.0
C709 C 0.46138 0.93236 0.51153 0.0
C710 C 0.44171 0.8856 0.50694 0.0
C711 C 0.39819 0.84469 0.54401 0.0
H712 H 0.35782 0.79421 0.50657 0.0
C713 C 0.30328 0.74608 0.55945 0.0
C714 C 0.29964 0.72364 0.55109 0.0
C715 C 0.32356 0.77105 0.55408 0.0
C716 C 0.36914 0.80801 0.51716 0.0
H717 H 0.44493 0.94205 0.53355 0.0
H718 H 0.41264 0.89674 0.54169 0.0
H719 H 0.39323 0.83874 0.49856 0.0
H720 H 0.3139 0.70972 0.53024 0.0
H721 H 0.34947 0.75349 0.52084 0.0
H722 H 0.37396 0.81414 0.56261 0.0
C723 C 0.42594 0.90054 0.53075 0.0
C724 C 0.38945 0.83348 0.51258 0.0
C725 C 0.44426 0.92651 0.52597 0.0
C726 C 0.31625 0.72668 0.53692 0.0
C727 C 0.33655 0.75172 0.53151 0.0
C728 C 0.3779 0.81929 0.54858 0.0
C729 C 0.42429 0.87977 0.52122 0.0
C730 C 0.40397 0.8522 0.52597 0.0
C731 C 0.34065 0.77416 0.54022 0.0
C732 C 0.36292 0.80076 0.53521 0.0
H733 H 0.47297 0.91557 0.49091 0.0
H734 H 0.44108 0.87002 0.49945 0.0
H735 H 0.40933 0.85848 0.55465 0.0
H736 H 0.29071 0.74439 0.57034 0.0
H737 H 0.32591 0.78797 0.56083 0.0
C738 C 0.47961 0.35625 0.69595 0.0
C739 C 0.49093 0.37365 0.68143 0.0
C740 C 0.48996 0.34182 0.70177 0.0
C741 C 0.5508 0.34206 0.69979 0.0
H742 H 0.50604 0.269 0.71374 0.0
C743 C 0.59282 0.27894 0.7089 0.0
C744 C 0.58617 0.26402 0.72465 0.0
C745 C 0.57912 0.29026 0.70382 0.0
C746 C 0.51875 0.28945 0.71003 0.0
H747 H 0.52139 0.38885 0.66124 0.0
H748 H 0.5393 0.36366 0.67125 0.0
H749 H 0.48635 0.29326 0.70467 0.0
H750 H 0.55901 0.24805 0.74693 0.0
H751 H 0.53487 0.26799 0.73796 0.0
H752 H 0.58313 0.33831 0.70494 0.0
C753 C 0.52282 0.36157 0.67845 0.0
C754 C 0.50751 0.30336 0.70487 0.0
C755 C 0.51256 0.37602 0.6727 0.0
C756 C 0.56457 0.25947 0.73473 0.0
C757 C 0.55076 0.27086 0.72959 0.0
C758 C 0.56196 0.32818 0.70485 0.0
C759 C 0.51181 0.34445 0.69314 0.0
C760 C 0.52344 0.32975 0.69946 0.0
C761 C 0.55843 0.28699 0.71434 0.0
C762 C 0.5461 0.30165 0.70978 0.0
H763 H 0.46306 0.35418 0.70304 0.0
H764 H 0.48118 0.32902 0.71323 0.0
H765 H 0.56368 0.36252 0.69616 0.0
H766 H 0.60917 0.28258 0.70072 0.0
H767 H 0.5851 0.30209 0.69178 0.0
C768 C 0.17585 0.61865 0.84962 0.0
C769 C 0.15386 0.60432 0.86077 0.0
C770 C 0.19883 0.61949 0.8532 0.0
C771 C 0.23276 0.60476 0.88794 0.0
H772 H 0.26477 0.59388 0.84688 0.0
C773 C 0.30709 0.57481 0.89535 0.0
C774 C 0.33027 0.58966 0.88538 0.0
C775 C 0.28574 0.57692 0.892 0.0
C776 C 0.25614 0.59712 0.85844 0.0
H777 H 0.13926 0.58118 0.88506 0.0
H778 H 0.17903 0.5821 0.89107 0.0
H779 H 0.2283 0.59932 0.84242 0.0
H780 H 0.34894 0.61746 0.8636 0.0
H781 H 0.3115 0.6209 0.85764 0.0
H782 H 0.2603 0.60196 0.90395 0.0
C783 C 0.1787 0.59285 0.87963 0.0
C784 C 0.23538 0.60041 0.8559 0.0
C785 C 0.1558 0.59209 0.8761 0.0
C786 C 0.33133 0.60582 0.87153 0.0
C787 C 0.3099 0.60774 0.86807 0.0
C788 C 0.25338 0.60127 0.89047 0.0
C789 C 0.20025 0.60599 0.86797 0.0
C790 C 0.22336 0.60415 0.87063 0.0
C791 C 0.28711 0.59371 0.87852 0.0
C792 C 0.26518 0.59729 0.87576 0.0
H793 H 0.17491 0.62813 0.83765 0.0
H794 H 0.21526 0.63019 0.84414 0.0
H795 H 0.2242 0.60798 0.89954 0.0
H796 H 0.3057 0.56216 0.9061 0.0
H797 H 0.26823 0.5656 0.90008 0.0
C798 C 0.6579 0.15281 0.00427 0.0
C799 C 0.6627 0.13559 0.01332 0.0
C800 C 0.67054 0.17903 0.00952 0.0
C801 C 0.72884 0.23084 0.03363 0.0
H802 H 0.69009 0.26442 0.03605 0.0
C803 C 0.77106 0.33321 0.06527 0.0
C804 C 0.7648 0.34982 0.05698 0.0
C805 C 0.75957 0.30736 0.05938 0.0
C806 C 0.70129 0.25544 0.03521 0.0
H807 H 0.68402 0.13222 0.03528 0.0
H808 H 0.70613 0.17803 0.04443 0.0
H809 H 0.66762 0.21854 0.02717 0.0
H810 H 0.74246 0.35283 0.0356 0.0
H811 H 0.72275 0.30791 0.02516 0.0
H812 H 0.76253 0.26778 0.04166 0.0
C813 C 0.6929 0.17133 0.03309 0.0
C814 C 0.68839 0.22914 0.03015 0.0
C815 C 0.68022 0.1451 0.02786 0.0
C816 C 0.74751 0.3404 0.04234 0.0
C817 C 0.73608 0.31462 0.03644 0.0
C818 C 0.74177 0.25719 0.03866 0.0
C819 C 0.68828 0.1886 0.02393 0.0
C820 C 0.70201 0.21654 0.02932 0.0
C821 C 0.74165 0.29767 0.04506 0.0
C822 C 0.72813 0.26979 0.0395 0.0
H823 H 0.64482 0.14618 0.99285 0.0
H824 H 0.66683 0.19194 0.00206 0.0
H825 H 0.73995 0.22176 0.03287 0.0
H826 H 0.78433 0.33995 0.07659 0.0
H827 H 0.76412 0.29474 0.0664 0.0
C828 C 0.49289 0.60511 0.19778 0.0
C829 C 0.47593 0.58852 0.1842 0.0
C830 C 0.49456 0.62834 0.20199 0.0
C831 C 0.48462 0.67728 0.18209 0.0
H832 H 0.48606 0.69894 0.23113 0.0
C833 C 0.47181 0.76146 0.20061 0.0
C834 C 0.48457 0.77676 0.21585 0.0
C835 C 0.47373 0.74029 0.19617 0.0
C836 C 0.48621 0.69346 0.21736 0.0
H837 H 0.44698 0.58288 0.16465 0.0
H838 H 0.44984 0.62357 0.17203 0.0
H839 H 0.48186 0.65738 0.22515 0.0
H840 H 0.51065 0.78283 0.23777 0.0
H841 H 0.5145 0.74609 0.22977 0.0
H842 H 0.4891 0.71332 0.17424 0.0
C843 C 0.46196 0.61863 0.17934 0.0
C844 C 0.48362 0.66955 0.21395 0.0
C845 C 0.46011 0.59524 0.17524 0.0
C846 C 0.50054 0.77136 0.22597 0.0
C847 C 0.50251 0.75015 0.22149 0.0
C848 C 0.4874 0.70127 0.18549 0.0
C849 C 0.47946 0.63559 0.1926 0.0
C850 C 0.48251 0.66109 0.19628 0.0
C851 C 0.48856 0.73394 0.2068 0.0
C852 C 0.48793 0.70953 0.20317 0.0
H853 H 0.50516 0.60027 0.20498 0.0
H854 H 0.50827 0.64104 0.21223 0.0
H855 H 0.48434 0.6715 0.16834 0.0
H856 H 0.45934 0.76509 0.19251 0.0
H857 H 0.4625 0.72816 0.18487 0.0
C858 C 0.91344 0.58753 0.36469 0.0
C859 C 0.91716 0.57727 0.34894 0.0
C860 C 0.88837 0.58102 0.36959 0.0
C861 C 0.81854 0.53037 0.36167 0.0
H862 H 0.80589 0.58174 0.38096 0.0
C863 C 0.71437 0.50396 0.36977 0.0
C864 C 0.70765 0.50849 0.38671 0.0
C865 C 0.74055 0.51609 0.36483 0.0
C866 C 0.80921 0.56721 0.37569 0.0
H867 H 0.89766 0.55285 0.32571 0.0
H868 H 0.8541 0.54155 0.33418 0.0
H869 H 0.85069 0.59495 0.37332 0.0
H870 H 0.72284 0.53078 0.41128 0.0
H871 H 0.76907 0.552 0.40267 0.0
H872 H 0.77732 0.50266 0.36395 0.0
C873 C 0.87039 0.55417 0.34298 0.0
C874 C 0.83482 0.57471 0.37136 0.0
C875 C 0.89536 0.56061 0.33812 0.0
C876 C 0.72756 0.52703 0.39811 0.0
C877 C 0.75396 0.53911 0.3932 0.0
C878 C 0.7931 0.52295 0.36591 0.0
C879 C 0.86654 0.56414 0.35882 0.0
C880 C 0.83969 0.55639 0.36411 0.0
C881 C 0.76065 0.53283 0.3768 0.0
C882 C 0.78806 0.5413 0.37274 0.0
H883 H 0.92985 0.6003 0.37336 0.0
H884 H 0.88602 0.58879 0.38196 0.0
H885 H 0.82164 0.5156 0.35657 0.0
H886 H 0.69938 0.49002 0.36062 0.0
H887 H 0.74509 0.51143 0.35191 0.0
C888 C 0.0648 0.63151 0.42046 0.0
C889 C 0.06265 0.61449 0.40684 0.0
C890 C 0.07925 0.63499 0.43594 0.0
C891 C 0.10924 0.60765 0.46342 0.0
H892 H 0.15961 0.6806 0.47527 0.0
C893 C 0.19114 0.6408 0.51711 0.0
C894 C 0.1968 0.66227 0.52786 0.0
C895 C 0.17409 0.63341 0.50244 0.0
C896 C 0.14545 0.6601 0.47235 0.0
H897 H 0.0733 0.58704 0.3992 0.0
H898 H 0.09807 0.59278 0.42638 0.0
H899 H 0.12948 0.66969 0.45049 0.0
H900 H 0.1882 0.69221 0.53191 0.0
H901 H 0.15838 0.67907 0.50689 0.0
H902 H 0.1251 0.5981 0.48549 0.0
C903 C 0.08847 0.60334 0.42507 0.0
C904 C 0.12816 0.65387 0.45812 0.0
C905 C 0.07415 0.59998 0.40952 0.0
C906 C 0.18469 0.67582 0.5238 0.0
C907 C 0.1676 0.66835 0.50934 0.0
C908 C 0.12644 0.61389 0.47783 0.0
C909 C 0.09177 0.62142 0.43821 0.0
C910 C 0.10975 0.62761 0.45356 0.0
C911 C 0.16227 0.64726 0.49832 0.0
C912 C 0.14462 0.64023 0.48256 0.0
H913 H 0.05587 0.64268 0.41894 0.0
H914 H 0.08111 0.64874 0.446 0.0
H915 H 0.09522 0.58722 0.46018 0.0
H916 H 0.20012 0.62993 0.51988 0.0
H917 H 0.17055 0.61717 0.49416 0.0
C918 C 0.5283 0.08584 0.5824 0.0
C919 C 0.53297 0.06668 0.5767 0.0
C920 C 0.5337 0.09515 0.59999 0.0
C921 C 0.57967 0.10799 0.63514 0.0
H922 H 0.5364 0.12224 0.6646 0.0
C923 C 0.62024 0.16566 0.70074 0.0
C924 C 0.61389 0.18411 0.70472 0.0
C925 C 0.60685 0.147 0.6873 0.0
C926 C 0.54886 0.11865 0.65648 0.0
H927 H 0.54538 0.04108 0.58552 0.0
H928 H 0.55567 0.0581 0.6161 0.0
H929 H 0.5185 0.09694 0.637 0.0
H930 H 0.58809 0.19712 0.69805 0.0
H931 H 0.56551 0.16541 0.67404 0.0
H932 H 0.61055 0.13085 0.65374 0.0
C933 C 0.54781 0.06582 0.60684 0.0
C934 C 0.53849 0.10398 0.64075 0.0
C935 C 0.54204 0.05621 0.58931 0.0
C936 C 0.59334 0.18305 0.69533 0.0
C937 C 0.58027 0.1647 0.68161 0.0
C938 C 0.59018 0.12299 0.65066 0.0
C939 C 0.54423 0.08579 0.61222 0.0
C940 C 0.55392 0.09877 0.62984 0.0
C941 C 0.58713 0.14668 0.6772 0.0
C942 C 0.57505 0.12883 0.66146 0.0
H943 H 0.52181 0.09477 0.57306 0.0
H944 H 0.53105 0.11077 0.60372 0.0
H945 H 0.59214 0.10462 0.62682 0.0
H946 H 0.63574 0.16576 0.70795 0.0
H947 H 0.61224 0.13303 0.68469 0.0
C948 C 0.36016 0.4543 0.72731 0.0
C949 C 0.37427 0.47535 0.71539 0.0
C950 C 0.35426 0.45865 0.7445 0.0
C951 C 0.37091 0.48059 0.78213 0.0
H952 H 0.35374 0.5312 0.7952 0.0
C953 C 0.41094 0.54526 0.84487 0.0
C954 C 0.3943 0.55023 0.85455 0.0
C955 C 0.40237 0.53084 0.82899 0.0
C956 C 0.35816 0.5167 0.79181 0.0
H957 H 0.39121 0.51684 0.71134 0.0
H958 H 0.38079 0.52448 0.74131 0.0
H959 H 0.34693 0.51509 0.76441 0.0
H960 H 0.35527 0.54321 0.85538 0.0
H961 H 0.34051 0.51824 0.82752 0.0
H962 H 0.38321 0.48304 0.80932 0.0
C963 C 0.37429 0.50465 0.73746 0.0
C964 C 0.3544 0.50762 0.77419 0.0
C965 C 0.3804 0.50034 0.72036 0.0
C966 C 0.36862 0.53977 0.84826 0.0
C967 C 0.36016 0.52556 0.83227 0.0
C968 C 0.37489 0.48984 0.79969 0.0
C969 C 0.36217 0.48406 0.74995 0.0
C970 C 0.36139 0.49 0.76908 0.0
C971 C 0.37707 0.52126 0.82238 0.0
C972 C 0.36922 0.50852 0.80458 0.0
H973 H 0.35539 0.43487 0.72383 0.0
H974 H 0.3447 0.44241 0.75382 0.0
H975 H 0.37675 0.46723 0.77855 0.0
H976 H 0.43079 0.55295 0.84935 0.0
H977 H 0.41592 0.52805 0.82152 0.0
C978 C 0.91452 0.51794 0.89656 0.0
C979 C 0.93049 0.50984 0.88963 0.0
C980 C 0.90184 0.50837 0.91304 0.0
C981 C 0.88152 0.4549 0.94587 0.0
H982 H 0.88524 0.50455 0.98031 0.0
C983 C 0.86096 0.42961 0.02054 0.0
C984 C 0.84565 0.43692 0.0296 0.0
C985 C 0.87017 0.43876 0.00327 0.0
C986 C 0.88375 0.49038 0.97078 0.0
H987 H 0.94579 0.48549 0.89474 0.0
H988 H 0.92359 0.46871 0.9232 0.0
H989 H 0.90204 0.51921 0.95003 0.0
H990 H 0.82856 0.4602 0.02763 0.0
H991 H 0.84467 0.47614 0.99744 0.0
H992 H 0.86355 0.42616 0.96662 0.0
C993 C 0.92044 0.48208 0.9158 0.0
C994 C 0.89332 0.49876 0.95341 0.0
C995 C 0.93312 0.49166 0.89941 0.0
C996 C 0.84033 0.45418 0.02109 0.0
C997 C 0.84961 0.46338 0.00379 0.0
C998 C 0.87199 0.44655 0.9632 0.0
C999 C 0.90484 0.49047 0.92291 0.0
C1000 C 0.89266 0.48119 0.94085 0.0
C1001 C 0.86434 0.45548 0.9946 0.0
C1002 C 0.87334 0.46426 0.97594 0.0
H1003 H 0.91195 0.53179 0.8893 0.0
H1004 H 0.88972 0.515 0.91808 0.0
H1005 H 0.88028 0.44077 0.93642 0.0
H1006 H 0.86557 0.41645 0.02666 0.0
H1007 H 0.88189 0.4327 0.99669 0.0
C1008 C 0.61199 0.98013 0.08138 0.0
C1009 C 0.61195 0.00216 0.07574 0.0
C1010 C 0.6044 0.97044 0.09878 0.0
C1011 C 0.56117 0.96756 0.13378 0.0
H1012 H 0.58934 0.93482 0.16186 0.0
C1013 C 0.51072 0.91405 0.19872 0.0
C1014 C 0.50721 0.88945 0.20131 0.0
C1015 C 0.52809 0.9313 0.18577 0.0
C1016 C 0.58117 0.94376 0.15413 0.0
H1017 H 0.60575 0.03241 0.08432 0.0
H1018 H 0.59249 0.0155 0.11473 0.0
H1019 H 0.61231 0.95945 0.13486 0.0
H1020 H 0.5201 0.86415 0.1929 0.0
H1021 H 0.54991 0.89396 0.16985 0.0
H1022 H 0.52956 0.9512 0.15241 0.0
C1023 C 0.598 0.00548 0.10559 0.0
C1024 C 0.59437 0.95793 0.1387 0.0
C1025 C 0.6056 0.01518 0.08819 0.0
C1026 C 0.5224 0.88298 0.19123 0.0
C1027 C 0.53958 0.90015 0.17806 0.0
C1028 C 0.54794 0.95334 0.14907 0.0
C1029 C 0.59655 0.98254 0.1109 0.0
C1030 C 0.58433 0.96974 0.12825 0.0
C1031 C 0.54212 0.92425 0.17486 0.0
C1032 C 0.55758 0.941 0.15937 0.0
H1033 H 0.61638 0.9694 0.07206 0.0
H1034 H 0.60323 0.95258 0.10237 0.0
H1035 H 0.55258 0.97592 0.12584 0.0
H1036 H 0.49964 0.91982 0.20649 0.0
H1037 H 0.53006 0.94997 0.18403 0.0
C1038 C 0.54581 0.543 0.25042 0.0
C1039 C 0.52239 0.52009 0.24481 0.0
C1040 C 0.55537 0.54489 0.26775 0.0
C1041 C 0.57949 0.52929 0.29685 0.0
H1042 H 0.5352 0.49673 0.33844 0.0
C1043 C 0.61285 0.49751 0.35897 0.0
C1044 C 0.59454 0.47132 0.36392 0.0
C1045 C 0.60583 0.51034 0.34695 0.0
C1046 C 0.54788 0.50606 0.32698 0.0
H1047 H 0.48988 0.48191 0.25347 0.0
H1048 H 0.50625 0.4854 0.28357 0.0
H1049 H 0.51859 0.50831 0.31281 0.0
H1050 H 0.55442 0.43824 0.36022 0.0
H1051 H 0.54246 0.46042 0.33934 0.0
H1052 H 0.60822 0.52566 0.31061 0.0
C1053 C 0.51721 0.50199 0.27465 0.0
C1054 C 0.5384 0.51272 0.31236 0.0
C1055 C 0.50778 0.49999 0.25733 0.0
C1056 C 0.56911 0.45837 0.35671 0.0
C1057 C 0.56209 0.4712 0.34488 0.0
C1058 C 0.58898 0.5226 0.3115 0.0
C1059 C 0.54153 0.52403 0.27985 0.0
C1060 C 0.55367 0.52329 0.29683 0.0
C1061 C 0.58032 0.49729 0.33987 0.0
C1062 C 0.57279 0.50981 0.32634 0.0
H1063 H 0.55726 0.55909 0.24122 0.0
H1064 H 0.57404 0.56224 0.27149 0.0
H1065 H 0.59167 0.53725 0.28503 0.0
H1066 H 0.63259 0.50808 0.36432 0.0
H1067 H 0.62029 0.53045 0.34326 0.0
C1068 C 0.53389 0.97195 0.40395 0.0
C1069 C 0.51511 0.96565 0.41739 0.0
C1070 C 0.5281 0.95507 0.38946 0.0
C1071 C 0.47304 0.90847 0.36231 0.0
H1072 H 0.5193 0.88892 0.34318 0.0
C1073 C 0.44506 0.84817 0.29793 0.0
C1074 C 0.46509 0.85486 0.28556 0.0
C1075 C 0.45106 0.85762 0.31544 0.0
C1076 C 0.50627 0.89442 0.34822 0.0
H1077 H 0.47598 0.9358 0.42648 0.0
H1078 H 0.46564 0.90687 0.40081 0.0
H1079 H 0.53048 0.91347 0.37128 0.0
H1080 H 0.50707 0.87579 0.28182 0.0
H1081 H 0.51779 0.89357 0.3122 0.0
H1082 H 0.44956 0.89105 0.33904 0.0
C1083 C 0.48482 0.92494 0.40159 0.0
C1084 C 0.51263 0.90833 0.36437 0.0
C1085 C 0.49071 0.94162 0.41621 0.0
C1086 C 0.49129 0.87031 0.29118 0.0
C1087 C 0.49737 0.88037 0.30864 0.0
C1088 C 0.46691 0.89502 0.34607 0.0
C1089 C 0.50332 0.93169 0.38795 0.0
C1090 C 0.49609 0.91554 0.37151 0.0
C1091 C 0.47729 0.87468 0.32088 0.0
C1092 C 0.48345 0.88784 0.33873 0.0
H1093 H 0.55273 0.99041 0.4042 0.0
H1094 H 0.54261 0.96088 0.37901 0.0
H1095 H 0.46018 0.91419 0.36736 0.0
H1096 H 0.42466 0.83592 0.29395 0.0
H1097 H 0.43502 0.85199 0.32458 0.0
C1098 C 0.514 0.50181 0.56061 0.0
C1099 C 0.48652 0.48896 0.56037 0.0
C1100 C 0.52748 0.50253 0.54524 0.0
C1101 C 0.51521 0.45964 0.50834 0.0
H1102 H 0.58069 0.51591 0.48797 0.0
C1103 C 0.55651 0.44155 0.4459 0.0
C1104 C 0.58368 0.45311 0.44444 0.0
C1105 C 0.5462 0.449 0.45943 0.0
C1106 C 0.56258 0.49995 0.49368 0.0
H1107 H 0.45202 0.46926 0.54343 0.0
H1108 H 0.47555 0.47021 0.51667 0.0
H1109 H 0.55981 0.52543 0.5122 0.0
H1110 H 0.62146 0.48202 0.45588 0.0
H1111 H 0.60324 0.49441 0.48025 0.0
H1112 H 0.51813 0.43388 0.49069 0.0
C1113 C 0.48656 0.47944 0.5288 0.0
C1114 C 0.55058 0.50546 0.50742 0.0
C1115 C 0.47311 0.47886 0.5441 0.0
C1116 C 0.60042 0.47267 0.45676 0.0
C1117 C 0.58998 0.47988 0.4706 0.0
C1118 C 0.5273 0.45409 0.49491 0.0
C1119 C 0.51367 0.49028 0.52946 0.0
C1120 C 0.52659 0.48534 0.51466 0.0
C1121 C 0.56268 0.46788 0.47218 0.0
C1122 C 0.55093 0.47417 0.48718 0.0
H1123 H 0.52489 0.50957 0.57298 0.0
H1124 H 0.54837 0.51089 0.5461 0.0
H1125 H 0.49711 0.44364 0.51406 0.0
H1126 H 0.54305 0.42688 0.43638 0.0
H1127 H 0.52517 0.43992 0.45983 0.0
C1128 C 0.04971 0.55477 0.71901 0.0
C1129 C 0.05929 0.57368 0.73267 0.0
C1130 C 0.06439 0.55949 0.7034 0.0
C1131 C 0.13164 0.59668 0.68666 0.0
H1132 H 0.10195 0.59338 0.64003 0.0
C1133 C 0.19079 0.62152 0.62053 0.0
C1134 C 0.19123 0.64167 0.61099 0.0
C1135 C 0.17292 0.6087 0.63455 0.0
C1136 C 0.11036 0.59406 0.65296 0.0
H1137 H 0.09177 0.61193 0.74107 0.0
H1138 H 0.11754 0.62003 0.71395 0.0
H1139 H 0.074 0.57963 0.66669 0.0
H1140 H 0.17257 0.66334 0.60808 0.0
H1141 H 0.14118 0.64065 0.6322 0.0
H1142 H 0.16811 0.61162 0.67301 0.0
C1143 C 0.09863 0.60173 0.71518 0.0
C1144 C 0.0944 0.58614 0.66816 0.0
C1145 C 0.08379 0.59725 0.73057 0.0
C1146 C 0.17288 0.64806 0.61529 0.0
C1147 C 0.15474 0.63492 0.62898 0.0
C1148 C 0.14749 0.60417 0.67144 0.0
C1149 C 0.08913 0.58289 0.70147 0.0
C1150 C 0.10509 0.58807 0.68519 0.0
C1151 C 0.15482 0.6154 0.63892 0.0
C1152 C 0.13715 0.60358 0.65452 0.0
H1153 H 0.03095 0.53637 0.72044 0.0
H1154 H 0.0567 0.54467 0.693 0.0
H1155 H 0.14026 0.59815 0.69966 0.0
H1156 H 0.20472 0.61621 0.61749 0.0
H1157 H 0.17333 0.59369 0.64205 0.0
C1158 C 0.59831 0.08653 0.90238 0.0
C1159 C 0.61322 0.09737 0.91805 0.0
C1160 C 0.60041 0.10267 0.88831 0.0
C1161 C 0.64627 0.16861 0.86963 0.0
H1162 H 0.58787 0.14892 0.83788 0.0
C1163 C 0.62215 0.20584 0.79955 0.0
C1164 C 0.64466 0.21198 0.7899 0.0
C1165 C 0.61731 0.19437 0.81658 0.0
C1166 C 0.60432 0.15497 0.84673 0.0
H1167 H 0.64127 0.13366 0.93155 0.0
H1168 H 0.64466 0.16201 0.90709 0.0
H1169 H 0.58038 0.12462 0.86557 0.0
H1170 H 0.67969 0.21078 0.7907 0.0
H1171 H 0.67102 0.19054 0.81988 0.0
H1172 H 0.67017 0.19909 0.85092 0.0
C1173 C 0.63174 0.14097 0.9055 0.0
C1174 C 0.60009 0.14081 0.86252 0.0
C1175 C 0.6298 0.12476 0.91954 0.0
C1176 C 0.6622 0.2065 0.7977 0.0
C1177 C 0.65735 0.19504 0.81459 0.0
C1178 C 0.65045 0.18285 0.85394 0.0
C1179 C 0.61735 0.1301 0.88959 0.0
C1180 C 0.62114 0.14703 0.87394 0.0
C1181 C 0.63488 0.18882 0.82428 0.0
C1182 C 0.62968 0.17577 0.84204 0.0
H1183 H 0.58565 0.06546 0.90074 0.0
H1184 H 0.58942 0.09352 0.87617 0.0
H1185 H 0.66301 0.17393 0.87798 0.0
H1186 H 0.60827 0.20987 0.79399 0.0
H1187 H 0.5999 0.18999 0.82373 0.0
C1188 C 0.40936 0.49342 0.07551 0.0
C1189 C 0.41883 0.51203 0.08938 0.0
C1190 C 0.40353 0.49917 0.05878 0.0
C1191 C 0.38642 0.51351 0.02499 0.0
H1192 H 0.44174 0.58235 0.00836 0.0
C1193 C 0.3901 0.55291 0.95345 0.0
C1194 C 0.41489 0.56695 0.9452 0.0
C1195 C 0.38757 0.54514 0.97133 0.0
C1196 C 0.42619 0.56303 0.01279 0.0
H1197 H 0.42762 0.55037 0.0971 0.0
H1198 H 0.4172 0.56038 0.06784 0.0
H1199 H 0.44058 0.57072 0.03962 0.0
H1200 H 0.45631 0.58285 0.94913 0.0
H1201 H 0.4518 0.569 0.98017 0.0
H1202 H 0.3727 0.50558 -0.00212 0.0
C1203 C 0.41478 0.54154 0.06982 0.0
C1204 C 0.42526 0.5565 0.03078 0.0
C1205 C 0.42069 0.53581 0.08656 0.0
C1206 C 0.43693 0.57219 0.95505 0.0
C1207 C 0.43439 0.56445 0.9729 0.0
C1208 C 0.38733 0.52008 0.00696 0.0
C1209 C 0.40704 0.52365 0.05558 0.0
C1210 C 0.40566 0.53151 0.03703 0.0
C1211 C 0.40978 0.55131 0.98133 0.0
C1212 C 0.40757 0.54472 0.00062 0.0
H1213 H 0.40808 0.47507 0.07719 0.0
H1214 H 0.39791 0.48507 0.04806 0.0
H1215 H 0.37095 0.49418 0.02945 0.0
H1216 H 0.37269 0.54855 0.94628 0.0
H1217 H 0.36836 0.53509 0.97749 0.0
C1218 C 0.92144 0.52772 0.24962 0.0
C1219 C 0.93742 0.55513 0.25146 0.0
C1220 C 0.9063 0.51634 0.23426 0.0
C1221 C 0.90442 0.53223 0.18669 0.0
H1222 H 0.84125 0.46228 0.18671 0.0
C1223 C 0.84629 0.47518 0.12251 0.0
C1224 C 0.84261 0.45032 0.12103 0.0
C1225 C 0.85577 0.48955 0.13844 0.0
C1226 C 0.85884 0.48187 0.18654 0.0
H1227 H 0.94866 0.59205 0.239 0.0
H1228 H 0.92134 0.57218 0.21253 0.0
H1229 H 0.85971 0.4849 0.21506 0.0
H1230 H 0.84574 0.42098 0.13518 0.0
H1231 H 0.86172 0.44584 0.16301 0.0
H1232 H 0.90321 0.52901 0.15805 0.0
C1233 C 0.92114 0.55945 0.22274 0.0
C1234 C 0.86953 0.49481 0.20276 0.0
C1235 C 0.93653 0.57086 0.23807 0.0
C1236 C 0.8485 0.44012 0.13582 0.0
C1237 C 0.85744 0.45423 0.15181 0.0
C1238 C 0.89343 0.51942 0.17044 0.0
C1239 C 0.90643 0.53205 0.22039 0.0
C1240 C 0.89291 0.51987 0.2031 0.0
C1241 C 0.86114 0.47904 0.15328 0.0
C1242 C 0.87096 0.49386 0.17027 0.0
H1243 H 0.92126 0.51498 0.25982 0.0
H1244 H 0.89548 0.49521 0.23297 0.0
H1245 H 0.9226 0.55132 0.18634 0.0
H1246 H 0.84195 0.48356 0.11135 0.0
H1247 H 0.85851 0.50867 0.13928 0.0
loop_
_geom_bond_atom_site_label_1
_geom_bond_atom_site_label_2
_geom_bond_distance
_geom_bond_site_symmetry_2
_ccdc_geom_bond_type
H0 O26 0.856 . S
H1 O29 0.854 . S
H2 C37 0.930 . S
H3 C38 0.930 . S
H4 C40 0.930 . S
H5 C41 0.930 . S
H6 C43 0.931 . S
H7 C44 0.930 . S
H8 C46 0.930 . S
H9 C47 0.929 . S
H10 C49 0.930 . S
H11 C50 0.931 . S
H12 C52 0.930 . S
H13 C53 0.929 . S
H14 C55 0.931 . S
H15 C56 0.930 . S
H16 C58 0.930 . S
H17 C59 0.932 . S
H18 C61 0.930 . S
H19 C62 0.929 . S
H20 C64 0.931 . S
H21 C65 0.930 . S
H22 C67 0.929 . S
H23 C68 0.931 . S
H24 C70 0.930 . S
H25 C71 0.929 1_455 S
O26 H0 0.856 . S
O26 C72 1.300 . S
O27 C72 1.209 . S
O28 C73 1.199 . S
O29 H1 0.854 . S
O29 C73 1.297 . S
C30 C31 1.404 . S
C30 C35 1.397 . S
C30 C36 1.492 . S
C31 C30 1.404 . S
C31 C32 1.396 . S
C31 C42 1.492 . S
C32 C31 1.396 . S
C32 C33 1.397 . S
C32 C48 1.509 . S
C33 C32 1.397 . S
C33 C34 1.412 . S
C33 C54 1.485 . S
C34 C33 1.412 . S
C34 C35 1.388 . S
C34 C60 1.490 . S
C35 C30 1.397 . S
C35 C34 1.388 . S
C35 C66 1.519 . S
C36 C30 1.492 . S
C36 C37 1.363 . S
C36 C41 1.390 1_455 S
C37 H2 0.930 . S
C37 C36 1.363 . S
C37 C38 1.372 1_455 S
C38 H3 0.930 . S
C38 C37 1.372 1_655 S
C38 C39 1.383 . S
C39 C38 1.383 . S
C39 C40 1.395 . S
C40 H4 0.930 . S
C40 C39 1.395 . S
C40 C41 1.362 . S
C41 H5 0.930 . S
C41 C36 1.390 1_655 S
C41 C40 1.362 . S
C42 C31 1.492 . S
C42 C43 1.377 . S
C42 C47 1.397 . S
C43 H6 0.931 . S
C43 C42 1.377 . S
C43 C44 1.376 . S
C44 H7 0.930 . S
C44 C43 1.376 . S
C44 C45 1.376 . S
C45 C44 1.376 . S
C45 C46 1.378 . S
C45 C72 1.486 . S
C46 H8 0.930 . S
C46 C45 1.378 . S
C46 C47 1.376 . S
C47 H9 0.929 . S
C47 C42 1.397 . S
C47 C46 1.376 . S
C48 C32 1.509 . S
C48 C49 1.391 . S
C48 C53 1.386 . S
C49 H10 0.930 . S
C49 C48 1.391 . S
C49 C50 1.375 . S
C50 H11 0.931 . S
C50 C49 1.375 . S
C50 C51 1.375 . S
C51 C50 1.375 . S
C51 C52 1.361 . S
C52 H12 0.930 . S
C52 C51 1.361 . S
C52 C53 1.399 . S
C53 H13 0.929 . S
C53 C48 1.386 . S
C53 C52 1.399 . S
C54 C33 1.485 . S
C54 C55 1.394 . S
C54 C59 1.360 . S
C55 H14 0.931 . S
C55 C54 1.394 . S
C55 C56 1.372 . S
C56 H15 0.930 . S
C56 C55 1.372 . S
C56 C57 1.397 . S
C57 C56 1.397 . S
C57 C58 1.390 . S
C57 C73 1.476 . S
C58 H16 0.930 . S
C58 C57 1.390 . S
C58 C59 1.366 . S
C59 H17 0.932 . S
C59 C54 1.360 . S
C59 C58 1.366 . S
C60 C34 1.490 . S
C60 C61 1.380 . S
C60 C65 1.386 . S
C61 H18 0.930 . S
C61 C60 1.380 . S
C61 C62 1.381 . S
C62 H19 0.929 . S
C62 C61 1.381 . S
C62 C63 1.371 . S
C63 C62 1.371 . S
C63 C64 1.380 . S
C64 H20 0.931 . S
C64 C63 1.380 . S
C64 C65 1.387 . S
C65 H21 0.930 . S
C65 C60 1.386 . S
C65 C64 1.387 . S
C66 C35 1.519 . S
C66 C67 1.377 1_455 S
C66 C71 1.361 1_455 S
C67 H22 0.929 . S
C67 C66 1.377 1_655 S
C67 C68 1.386 . S
C68 H23 0.931 . S
C68 C67 1.386 . S
C68 C69 1.363 . S
C69 C68 1.363 . S
C69 C70 1.385 . S
C70 H24 0.930 . S
C70 C69 1.385 . S
C70 C71 1.396 . S
C71 H25 0.929 1_655 S
C71 C66 1.361 1_655 S
C71 C70 1.396 . S
C72 O26 1.300 . S
C72 O27 1.209 . S
C72 C45 1.486 . S
C73 O28 1.199 . S
C73 O29 1.297 . S
C73 C57 1.476 . S
H74 O100 0.856 . S
H75 O103 0.854 . S
H76 C111 0.930 . S
H77 C112 0.930 . S
H78 C114 0.930 1_565 S
H79 C115 0.930 . S
H80 C117 0.931 . S
H81 C118 0.930 . S
H82 C120 0.930 . S
H83 C121 0.929 . S
H84 C123 0.930 . S
H85 C124 0.931 . S
H86 C126 0.930 . S
H87 C127 0.929 . S
H88 C129 0.931 . S
H89 C130 0.930 . S
H90 C132 0.930 . S
H91 C133 0.932 . S
H92 C135 0.930 . S
H93 C136 0.929 . S
H94 C138 0.931 . S
H95 C139 0.930 . S
H96 C141 0.929 . S
H97 C142 0.931 . S
H98 C144 0.930 . S
H99 C145 0.929 . S
O100 H74 0.856 . S
O100 C146 1.300 . S
O101 C146 1.209 . S
O102 C147 1.199 . S
O103 H75 0.854 . S
O103 C147 1.297 . S
C104 C105 1.404 . S
C104 C109 1.397 . S
C104 C110 1.492 . S
C105 C104 1.404 . S
C105 C106 1.396 . S
C105 C116 1.492 . S
C106 C105 1.396 . S
C106 C107 1.397 . S
C106 C122 1.509 . S
C107 C106 1.397 . S
C107 C108 1.412 . S
C107 C128 1.485 . S
C108 C107 1.412 . S
C108 C109 1.388 . S
C108 C134 1.490 . S
C109 C104 1.397 . S
C109 C108 1.388 . S
C109 C140 1.519 . S
C110 C104 1.492 . S
C110 C111 1.363 . S
C110 C115 1.390 . S
C111 H76 0.930 . S
C111 C110 1.363 . S
C111 C112 1.372 . S
C112 H77 0.930 . S
C112 C111 1.372 . S
C112 C113 1.375 1_545 S
C113 C112 1.375 1_565 S
C113 C114 1.375 1_565 S
C114 H78 0.930 1_545 S
C114 C113 1.375 1_545 S
C114 C115 1.362 . S
C115 H79 0.930 . S
C115 C110 1.390 . S
C115 C114 1.362 . S
C116 C105 1.492 . S
C116 C117 1.377 . S
C116 C121 1.397 . S
C117 H80 0.931 . S
C117 C116 1.377 . S
C117 C118 1.376 . S
C118 H81 0.930 . S
C118 C117 1.376 . S
C118 C119 1.376 . S
C119 C118 1.376 . S
C119 C120 1.378 . S
C119 C146 1.486 . S
C120 H82 0.930 . S
C120 C119 1.378 . S
C120 C121 1.376 . S
C121 H83 0.929 . S
C121 C116 1.397 . S
C121 C120 1.376 . S
C122 C106 1.509 . S
C122 C123 1.391 . S
C122 C127 1.386 . S
C123 H84 0.930 . S
C123 C122 1.391 . S
C123 C124 1.375 . S
C124 H85 0.931 . S
C124 C123 1.375 . S
C124 C125 1.375 . S
C125 C124 1.375 . S
C125 C126 1.361 . S
C126 H86 0.930 . S
C126 C125 1.361 . S
C126 C127 1.399 . S
C127 H87 0.929 . S
C127 C122 1.386 . S
C127 C126 1.399 . S
C128 C107 1.485 . S
C128 C129 1.394 . S
C128 C133 1.360 . S
C129 H88 0.931 . S
C129 C128 1.394 . S
C129 C130 1.372 . S
C130 H89 0.930 . S
C130 C129 1.372 . S
C130 C131 1.397 . S
C131 C130 1.397 . S
C131 C132 1.390 . S
C131 C147 1.476 . S
C132 H90 0.930 . S
C132 C131 1.390 . S
C132 C133 1.366 . S
C133 H91 0.932 . S
C133 C128 1.360 . S
C133 C132 1.366 . S
C134 C108 1.490 . S
C134 C135 1.380 . S
C134 C139 1.386 . S
C135 H92 0.930 . S
C135 C134 1.380 . S
C135 C136 1.381 . S
C136 H93 0.929 . S
C136 C135 1.381 . S
C136 C137 1.371 . S
C137 C136 1.371 . S
C137 C138 1.380 . S
C138 H94 0.931 . S
C138 C137 1.380 . S
C138 C139 1.387 . S
C139 H95 0.930 . S
C139 C134 1.386 . S
C139 C138 1.387 . S
C140 C109 1.519 . S
C140 C141 1.377 . S
C140 C145 1.361 . S
C141 H96 0.929 . S
C141 C140 1.377 . S
C141 C142 1.386 1_545 S
C142 H97 0.931 . S
C142 C141 1.386 1_565 S
C142 C143 1.363 . S
C143 C142 1.363 . S
C143 C144 1.385 . S
C144 H98 0.930 . S
C144 C143 1.385 . S
C144 C145 1.396 1_565 S
C145 H99 0.929 . S
C145 C140 1.361 . S
C145 C144 1.396 1_545 S
C146 O100 1.300 . S
C146 O101 1.209 . S
C146 C119 1.486 . S
C147 O102 1.199 . S
C147 O103 1.297 . S
C147 C131 1.476 . S
H148 O174 0.856 . S
H149 O177 0.854 . S
H150 C185 0.930 . S
H151 C186 0.930 . S
H152 C188 0.930 . S
H153 C189 0.930 . S
H154 C191 0.931 . S
H155 C192 0.930 . S
H156 C194 0.930 . S
H157 C195 0.929 . S
H158 C197 0.930 . S
H159 C198 0.931 . S
H160 C200 0.930 . S
H161 C201 0.929 . S
H162 C203 0.931 . S
H163 C204 0.930 . S
H164 C206 0.930 . S
H165 C207 0.932 . S
H166 C209 0.930 . S
H167 C210 0.929 . S
H168 C212 0.931 . S
H169 C213 0.930 . S
H170 C215 0.929 . S
H171 C216 0.931 . S
H172 C218 0.930 . S
H173 C219 0.929 . S
O174 H148 0.856 . S
O174 C220 1.300 . S
O175 C220 1.209 . S
O176 C221 1.199 . S
O177 H149 0.854 . S
O177 C221 1.297 . S
C178 C179 1.404 . S
C178 C183 1.397 . S
C178 C184 1.492 . S
C179 C178 1.404 . S
C179 C180 1.396 . S
C179 C190 1.492 . S
C180 C179 1.396 . S
C180 C181 1.397 . S
C180 C196 1.509 . S
C181 C180 1.397 . S
C181 C182 1.412 . S
C181 C202 1.485 . S
C182 C181 1.412 . S
C182 C183 1.388 . S
C182 C208 1.490 . S
C183 C178 1.397 . S
C183 C182 1.388 . S
C183 C214 1.519 . S
C184 C178 1.492 . S
C184 C185 1.363 . S
C184 C189 1.390 . S
C185 H150 0.930 . S
C185 C184 1.363 . S
C185 C186 1.372 . S
C186 H151 0.930 . S
C186 C185 1.372 . S
C186 C187 1.383 . S
C187 C186 1.383 . S
C187 C188 1.395 . S
C188 H152 0.930 . S
C188 C187 1.395 . S
C188 C189 1.362 . S
C189 H153 0.930 . S
C189 C184 1.390 . S
C189 C188 1.362 . S
C190 C179 1.492 . S
C190 C191 1.377 . S
C190 C195 1.397 . S
C191 H154 0.931 . S
C191 C190 1.377 . S
C191 C192 1.376 . S
C192 H155 0.930 . S
C192 C191 1.376 . S
C192 C193 1.376 . S
C193 C192 1.376 . S
C193 C194 1.378 . S
C193 C220 1.486 . S
C194 H156 0.930 . S
C194 C193 1.378 . S
C194 C195 1.376 . S
C195 H157 0.929 . S
C195 C190 1.397 . S
C195 C194 1.376 . S
C196 C180 1.509 . S
C196 C197 1.391 . S
C196 C201 1.386 . S
C197 H158 0.930 . S
C197 C196 1.391 . S
C197 C198 1.375 . S
C198 H159 0.931 . S
C198 C197 1.375 . S
C198 C199 1.375 . S
C199 C198 1.375 . S
C199 C200 1.361 . S
C200 H160 0.930 . S
C200 C199 1.361 . S
C200 C201 1.399 . S
C201 H161 0.929 . S
C201 C196 1.386 . S
C201 C200 1.399 . S
C202 C181 1.485 . S
C202 C203 1.394 . S
C202 C207 1.360 . S
C203 H162 0.931 . S
C203 C202 1.394 . S
C203 C204 1.372 . S
C204 H163 0.930 . S
C204 C203 1.372 . S
C204 C205 1.397 . S
C205 C204 1.397 . S
C205 C206 1.390 . S
C205 C221 1.476 . S
C206 H164 0.930 . S
C206 C205 1.390 . S
C206 C207 1.366 . S
C207 H165 0.932 . S
C207 C202 1.360 . S
C207 C206 1.366 . S
C208 C182 1.490 . S
C208 C209 1.380 . S
C208 C213 1.386 . S
C209 H166 0.930 . S
C209 C208 1.380 . S
C209 C210 1.381 . S
C210 H167 0.929 . S
C210 C209 1.381 . S
C210 C211 1.371 . S
C211 C210 1.371 . S
C211 C212 1.380 . S
C212 H168 0.931 . S
C212 C211 1.380 . S
C212 C213 1.387 . S
C213 H169 0.930 . S
C213 C208 1.386 . S
C213 C212 1.387 . S
C214 C183 1.519 . S
C214 C215 1.377 . S
C214 C219 1.361 . S
C215 H170 0.929 . S
C215 C214 1.377 . S
C215 C216 1.386 . S
C216 H171 0.931 . S
C216 C215 1.386 . S
C216 C217 1.363 . S
C217 C216 1.363 . S
C217 C218 1.385 . S
C218 H172 0.930 . S
C218 C217 1.385 . S
C218 C219 1.396 . S
C219 H173 0.929 . S
C219 C214 1.361 . S
C219 C218 1.396 . S
C220 O174 1.300 . S
C220 O175 1.209 . S
C220 C193 1.486 . S
C221 O176 1.199 . S
C221 O177 1.297 . S
C221 C205 1.476 . S
H222 O248 0.856 . S
H223 O251 0.854 . S
H224 C259 0.930 1_455 S
H225 C260 0.930 . S
H226 C262 0.930 . S
H227 C263 0.930 . S
H228 C265 0.931 . S
H229 C266 0.930 . S
H230 C268 0.930 . S
H231 C269 0.929 . S
H232 C271 0.930 . S
H233 C272 0.931 . S
H234 C274 0.930 . S
H235 C275 0.929 . S
H236 C277 0.931 . S
H237 C278 0.930 . S
H238 C280 0.930 . S
H239 C281 0.932 . S
H240 C283 0.930 . S
H241 C284 0.929 . S
H242 C286 0.931 . S
H243 C287 0.930 . S
H244 C289 0.929 . S
H245 C290 0.931 . S
H246 C292 0.930 . S
H247 C293 0.929 . S
O248 H222 0.856 . S
O248 C294 1.300 . S
O249 C294 1.209 . S
O250 C295 1.199 . S
O251 H223 0.854 . S
O251 C295 1.297 . S
C252 C253 1.404 . S
C252 C257 1.397 . S
C252 C258 1.492 1_455 S
C253 C252 1.404 . S
C253 C254 1.396 . S
C253 C264 1.492 . S
C254 C253 1.396 . S
C254 C255 1.397 . S
C254 C270 1.509 . S
C255 C254 1.397 . S
C255 C256 1.412 . S
C255 C276 1.485 . S
C256 C255 1.412 . S
C256 C257 1.388 . S
C256 C282 1.490 . S
C257 C252 1.397 . S
C257 C256 1.388 . S
C257 C288 1.519 1_455 S
C258 C252 1.492 1_655 S
C258 C259 1.363 . S
C258 C263 1.390 . S
C259 H224 0.930 1_655 S
C259 C258 1.363 . S
C259 C260 1.372 . S
C260 H225 0.930 . S
C260 C259 1.372 . S
C260 C261 1.383 . S
C261 C260 1.383 . S
C261 C262 1.395 . S
C262 H226 0.930 . S
C262 C261 1.395 . S
C262 C263 1.362 . S
C263 H227 0.930 . S
C263 C258 1.390 . S
C263 C262 1.362 . S
C264 C253 1.492 . S
C264 C265 1.377 . S
C264 C269 1.397 . S
C265 H228 0.931 . S
C265 C264 1.377 . S
C265 C266 1.376 . S
C266 H229 0.930 . S
C266 C265 1.376 . S
C266 C267 1.376 . S
C267 C266 1.376 . S
C267 C268 1.378 . S
C267 C294 1.486 . S
C268 H230 0.930 . S
C268 C267 1.378 . S
C268 C269 1.376 . S
C269 H231 0.929 . S
C269 C264 1.397 . S
C269 C268 1.376 . S
C270 C254 1.509 . S
C270 C271 1.391 . S
C270 C275 1.386 . S
C271 H232 0.930 . S
C271 C270 1.391 . S
C271 C272 1.375 . S
C272 H233 0.931 . S
C272 C271 1.375 . S
C272 C273 1.375 . S
C273 C272 1.375 . S
C273 C274 1.361 . S
C274 H234 0.930 . S
C274 C273 1.361 . S
C274 C275 1.399 . S
C275 H235 0.929 . S
C275 C270 1.386 . S
C275 C274 1.399 . S
C276 C255 1.485 . S
C276 C277 1.394 . S
C276 C281 1.360 . S
C277 H236 0.931 . S
C277 C276 1.394 . S
C277 C278 1.372 . S
C278 H237 0.930 . S
C278 C277 1.372 . S
C278 C279 1.397 . S
C279 C278 1.397 . S
C279 C280 1.390 . S
C279 C295 1.476 . S
C280 H238 0.930 . S
C280 C279 1.390 . S
C280 C281 1.366 . S
C281 H239 0.932 . S
C281 C276 1.360 . S
C281 C280 1.366 . S
C282 C256 1.490 . S
C282 C283 1.380 . S
C282 C287 1.386 . S
C283 H240 0.930 . S
C283 C282 1.380 . S
C283 C284 1.381 . S
C284 H241 0.929 . S
C284 C283 1.381 . S
C284 C285 1.371 . S
C285 C284 1.371 . S
C285 C286 1.380 . S
C286 H242 0.931 . S
C286 C285 1.380 . S
C286 C287 1.387 . S
C287 H243 0.930 . S
C287 C282 1.386 . S
C287 C286 1.387 . S
C288 C257 1.519 1_655 S
C288 C289 1.377 . S
C288 C293 1.361 . S
C289 H244 0.929 . S
C289 C288 1.377 . S
C289 C290 1.386 . S
C290 H245 0.931 . S
C290 C289 1.386 . S
C290 C291 1.363 . S
C291 C290 1.363 . S
C291 C292 1.385 . S
C292 H246 0.930 . S
C292 C291 1.385 . S
C292 C293 1.396 . S
C293 H247 0.929 . S
C293 C288 1.361 . S
C293 C292 1.396 . S
C294 O248 1.300 . S
C294 O249 1.209 . S
C294 C267 1.486 . S
C295 O250 1.199 . S
C295 O251 1.297 . S
C295 C279 1.476 . S
H296 O322 0.856 . S
H297 O325 0.854 . S
H298 C333 0.930 . S
H299 C334 0.930 . S
H300 C336 0.930 . S
H301 C337 0.930 . S
H302 C339 0.931 . S
H303 C340 0.930 . S
H304 C342 0.930 1_545 S
H305 C343 0.929 1_545 S
H306 C345 0.930 . S
H307 C346 0.931 . S
H308 C348 0.930 . S
H309 C349 0.929 . S
H310 C351 0.931 . S
H311 C352 0.930 . S
H312 C354 0.930 . S
H313 C355 0.944 . S
H314 C357 0.930 . S
H315 C358 0.929 . S
H316 C360 0.931 . S
H317 C361 0.930 . S
H318 C363 0.929 . S
H319 C364 0.931 . S
H320 C366 0.930 . S
H321 C367 0.929 . S
O322 H296 0.856 . S
O322 C368 1.300 . S
O323 C368 1.209 . S
O324 C369 1.199 . S
O325 H297 0.854 . S
O325 C369 1.297 . S
C326 C327 1.404 1_545 S
C326 C331 1.397 . S
C326 C332 1.492 . S
C327 C326 1.404 1_565 S
C327 C328 1.396 . S
C327 C338 1.492 . S
C328 C327 1.396 . S
C328 C329 1.397 . S
C328 C344 1.509 . S
C329 C328 1.397 . S
C329 C330 1.412 1_556 S
C329 C350 1.485 1_556 S
C330 C329 1.412 1_554 S
C330 C331 1.388 1_564 S
C330 C356 1.499 . S
C331 C326 1.397 . S
C331 C330 1.388 1_546 S
C331 C362 1.519 . S
C332 C326 1.492 . S
C332 C333 1.363 . S
C332 C337 1.390 . S
C333 H298 0.930 . S
C333 C332 1.363 . S
C333 C334 1.372 . S
C334 H299 0.930 . S
C334 C333 1.372 . S
C334 C335 1.383 . S
C335 C334 1.383 . S
C335 C336 1.395 . S
C336 H300 0.930 . S
C336 C335 1.395 . S
C336 C337 1.362 . S
C337 H301 0.930 . S
C337 C332 1.390 . S
C337 C336 1.362 . S
C338 C327 1.492 . S
C338 C339 1.377 . S
C338 C343 1.397 . S
C339 H302 0.931 . S
C339 C338 1.377 . S
C339 C340 1.376 . S
C340 H303 0.930 . S
C340 C339 1.376 . S
C340 C341 1.376 . S
C341 C340 1.376 . S
C341 C342 1.378 . S
C341 C368 1.486 . S
C342 H304 0.930 1_565 S
C342 C341 1.378 . S
C342 C343 1.376 . S
C343 H305 0.929 1_565 S
C343 C338 1.397 . S
C343 C342 1.376 . S
C344 C328 1.509 . S
C344 C345 1.391 . S
C344 C349 1.386 . S
C345 H306 0.930 . S
C345 C344 1.391 . S
C345 C346 1.375 . S
C346 H307 0.931 . S
C346 C345 1.375 . S
C346 C347 1.375 . S
C347 C346 1.375 . S
C347 C348 1.361 . S
C348 H308 0.930 . S
C348 C347 1.361 . S
C348 C349 1.399 . S
C349 H309 0.929 . S
C349 C344 1.386 . S
C349 C348 1.399 . S
C350 C329 1.485 1_554 S
C350 C351 1.394 . S
C350 C355 1.360 . S
C351 H310 0.931 . S
C351 C350 1.394 . S
C351 C352 1.372 . S
C352 H311 0.930 . S
C352 C351 1.372 . S
C352 C353 1.397 . S
C353 C352 1.397 . S
C353 C354 1.390 . S
C353 C369 1.476 . S
C354 H312 0.930 . S
C354 C353 1.390 . S
C354 C355 1.366 . S
C355 H313 0.944 . S
C355 C350 1.360 . S
C355 C354 1.366 . S
C356 C330 1.499 . S
C356 C357 1.345 1_565 S
C356 C361 1.414 . S
C357 H314 0.930 . S
C357 C356 1.345 1_545 S
C357 C358 1.381 . S
C358 H315 0.929 . S
C358 C357 1.381 . S
C358 C359 1.371 . S
C359 C358 1.371 . S
C359 C360 1.380 1_545 S
C360 H316 0.931 . S
C360 C359 1.380 1_565 S
C360 C361 1.387 . S
C361 H317 0.930 . S
C361 C356 1.414 . S
C361 C360 1.387 . S
C362 C331 1.519 . S
C362 C363 1.377 . S
C362 C367 1.361 1_556 S
C363 H318 0.929 . S
C363 C362 1.377 . S
C363 C364 1.386 1_556 S
C364 H319 0.931 . S
C364 C363 1.386 1_554 S
C364 C365 1.363 . S
C365 C364 1.363 . S
C365 C366 1.385 . S
C366 H320 0.930 . S
C366 C365 1.385 . S
C366 C367 1.396 . S
C367 H321 0.929 . S
C367 C362 1.361 1_554 S
C367 C366 1.396 . S
C368 O322 1.300 . S
C368 O323 1.209 . S
C368 C341 1.486 . S
C369 O324 1.199 . S
C369 O325 1.297 . S
C369 C353 1.476 . S
H370 O396 0.856 . S
H371 O399 0.854 . S
H372 C407 0.930 . S
H373 C408 0.930 . S
H374 C410 0.930 . S
H375 C411 0.930 . S
H376 C413 0.931 . S
H377 C414 0.930 . S
H378 C416 0.930 . S
H379 C417 0.929 . S
H380 C419 0.930 . S
H381 C420 0.931 . S
H382 C422 0.930 . S
H383 C423 0.929 . S
H384 C425 0.931 . S
H385 C426 0.930 . S
H386 C428 0.930 . S
H387 C429 0.932 . S
H388 C431 0.930 . S
H389 C432 0.929 . S
H390 C434 0.931 . S
H391 C435 0.930 . S
H392 C437 0.929 . S
H393 C438 0.931 . S
H394 C440 0.930 . S
H395 C441 0.929 . S
O396 H370 0.856 . S
O396 C442 1.300 . S
O397 C442 1.209 . S
O398 C443 1.199 . S
O399 H371 0.854 . S
O399 C443 1.297 . S
C400 C401 1.404 . S
C400 C405 1.397 . S
C400 C406 1.492 . S
C401 C400 1.404 . S
C401 C402 1.396 . S
C401 C412 1.492 . S
C402 C401 1.396 . S
C402 C403 1.397 . S
C402 C418 1.509 . S
C403 C402 1.397 . S
C403 C404 1.412 . S
C403 C424 1.485 . S
C404 C403 1.412 . S
C404 C405 1.388 . S
C404 C430 1.490 . S
C405 C400 1.397 . S
C405 C404 1.388 . S
C405 C436 1.519 . S
C406 C400 1.492 . S
C406 C407 1.363 . S
C406 C411 1.390 . S
C407 H372 0.930 . S
C407 C406 1.363 . S
C407 C408 1.372 . S
C408 H373 0.930 . S
C408 C407 1.372 . S
C408 C409 1.383 . S
C409 C408 1.383 . S
C409 C410 1.395 . S
C410 H374 0.930 . S
C410 C409 1.395 . S
C410 C411 1.362 . S
C411 H375 0.930 . S
C411 C406 1.390 . S
C411 C410 1.362 . S
C412 C401 1.492 . S
C412 C413 1.377 . S
C412 C417 1.397 . S
C413 H376 0.931 . S
C413 C412 1.377 . S
C413 C414 1.376 . S
C414 H377 0.930 . S
C414 C413 1.376 . S
C414 C415 1.376 . S
C415 C414 1.376 . S
C415 C416 1.378 . S
C415 C442 1.486 . S
C416 H378 0.930 . S
C416 C415 1.378 . S
C416 C417 1.376 . S
C417 H379 0.929 . S
C417 C412 1.397 . S
C417 C416 1.376 . S
C418 C402 1.509 . S
C418 C419 1.391 . S
C418 C423 1.386 . S
C419 H380 0.930 . S
C419 C418 1.391 . S
C419 C420 1.375 . S
C420 H381 0.931 . S
C420 C419 1.375 . S
C420 C421 1.375 . S
C421 C420 1.375 . S
C421 C422 1.361 . S
C422 H382 0.930 . S
C422 C421 1.361 . S
C422 C423 1.399 . S
C423 H383 0.929 . S
C423 C418 1.386 . S
C423 C422 1.399 . S
C424 C403 1.485 . S
C424 C425 1.394 . S
C424 C429 1.360 . S
C425 H384 0.931 . S
C425 C424 1.394 . S
C425 C426 1.372 . S
C426 H385 0.930 . S
C426 C425 1.372 . S
C426 C427 1.397 . S
C427 C426 1.397 . S
C427 C428 1.390 . S
C427 C443 1.476 . S
C428 H386 0.930 . S
C428 C427 1.390 . S
C428 C429 1.366 . S
C429 H387 0.932 . S
C429 C424 1.360 . S
C429 C428 1.366 . S
C430 C404 1.490 . S
C430 C431 1.380 . S
C430 C435 1.386 . S
C431 H388 0.930 . S
C431 C430 1.380 . S
C431 C432 1.381 . S
C432 H389 0.929 . S
C432 C431 1.381 . S
C432 C433 1.371 . S
C433 C432 1.371 . S
C433 C434 1.380 . S
C434 H390 0.931 . S
C434 C433 1.380 . S
C434 C435 1.387 . S
C435 H391 0.930 . S
C435 C430 1.386 . S
C435 C434 1.387 . S
C436 C405 1.519 . S
C436 C437 1.377 . S
C436 C441 1.361 . S
C437 H392 0.929 . S
C437 C436 1.377 . S
C437 C438 1.386 . S
C438 H393 0.931 . S
C438 C437 1.386 . S
C438 C439 1.363 . S
C439 C438 1.363 . S
C439 C440 1.385 . S
C440 H394 0.930 . S
C440 C439 1.385 . S
C440 C441 1.396 . S
C441 H395 0.929 . S
C441 C436 1.361 . S
C441 C440 1.396 . S
C442 O396 1.300 . S
C442 O397 1.209 . S
C442 C415 1.486 . S
C443 O398 1.199 . S
C443 O399 1.297 . S
C443 C427 1.476 . S
Co444 O445 2.216 . S
Co444 O446 2.091 . S
Co444 O448 2.004 . S
Co444 O454 2.021 . S
Co444 O456 2.137 . S
Co444 O457 2.244 . S
O445 Co444 2.216 . S
O445 C452 1.247 . S
O446 Co444 2.091 . S
O446 C452 1.261 . S
C447 O456 1.247 . S
C447 O457 1.272 . S
O448 Co444 2.004 . S
O448 C453 1.259 . S
Co449 O450 2.061 . S
Co449 O455 2.052 . S
Co449 O457 2.135 . S
O450 Co449 2.061 . S
O450 C453 1.235 . S
C451 O454 1.238 . S
C451 O455 1.241 . S
C452 O445 1.247 . S
C452 O446 1.261 . S
C453 O448 1.259 . S
C453 O450 1.235 . S
O454 Co444 2.021 . S
O454 C451 1.238 . S
O455 Co449 2.052 . S
O455 C451 1.241 . S
O456 Co444 2.137 . S
O456 C447 1.247 . S
O457 Co444 2.244 . S
O457 C447 1.272 . S
O457 Co449 2.135 . S
Co458 O459 2.216 . S
Co458 O460 2.091 . S
Co458 O462 2.004 . S
Co458 O468 2.021 . S
Co458 O470 2.137 . S
Co458 O471 2.244 . S
O459 Co458 2.216 . S
O459 C466 1.247 . S
O460 Co458 2.091 . S
O460 C466 1.261 . S
C461 O470 1.247 . S
C461 O471 1.272 . S
O462 Co458 2.004 . S
O462 C467 1.259 . S
Co463 O464 2.061 . S
Co463 O469 2.052 . S
Co463 O471 2.135 . S
O464 Co463 2.061 . S
O464 C467 1.235 . S
C465 O468 1.238 . S
C465 O469 1.241 . S
C466 O459 1.247 . S
C466 O460 1.261 . S
C467 O462 1.259 . S
C467 O464 1.235 . S
O468 Co458 2.021 . S
O468 C465 1.238 . S
O469 Co463 2.052 . S
O469 C465 1.241 . S
O470 Co458 2.137 . S
O470 C461 1.247 . S
O471 Co458 2.244 . S
O471 C461 1.272 . S
O471 Co463 2.135 . S
Co472 O473 2.216 . S
Co472 O474 2.091 . S
Co472 O476 2.004 . S
Co472 O482 2.021 . S
Co472 O484 2.137 . S
Co472 O485 2.244 . S
O473 Co472 2.216 . S
O473 C480 1.247 . S
O474 Co472 2.091 . S
O474 C480 1.261 . S
C475 O484 1.247 . S
C475 O485 1.272 . S
O476 Co472 2.004 . S
O476 C481 1.259 . S
Co477 O478 2.061 . S
Co477 O483 2.052 . S
Co477 O485 2.135 . S
O478 Co477 2.061 . S
O478 C481 1.235 . S
C479 O482 1.238 . S
C479 O483 1.241 . S
C480 O473 1.247 . S
C480 O474 1.261 . S
C481 O476 1.259 . S
C481 O478 1.235 . S
O482 Co472 2.021 . S
O482 C479 1.238 . S
O483 Co477 2.052 . S
O483 C479 1.241 . S
O484 Co472 2.137 . S
O484 C475 1.247 . S
O485 Co472 2.244 . S
O485 C475 1.272 . S
O485 Co477 2.135 . S
Co486 O487 2.216 . S
Co486 O488 2.091 . S
Co486 O490 2.004 . S
Co486 O496 2.021 . S
Co486 O498 2.137 . S
Co486 O499 2.244 . S
O487 Co486 2.216 . S
O487 C494 1.247 . S
O488 Co486 2.091 . S
O488 C494 1.261 . S
C489 O498 1.247 . S
C489 O499 1.272 . S
O490 Co486 2.004 . S
O490 C495 1.259 . S
Co491 O492 2.061 . S
Co491 O497 2.052 . S
Co491 O499 2.135 . S
O492 Co491 2.061 . S
O492 C495 1.235 . S
C493 O496 1.238 . S
C493 O497 1.241 . S
C494 O487 1.247 . S
C494 O488 1.261 . S
C495 O490 1.259 . S
C495 O492 1.235 . S
O496 Co486 2.021 . S
O496 C493 1.238 . S
O497 Co491 2.052 . S
O497 C493 1.241 . S
O498 Co486 2.137 . S
O498 C489 1.247 . S
O499 Co486 2.244 . S
O499 C489 1.272 . S
O499 Co491 2.135 . S
Co500 O501 2.216 . S
Co500 O502 2.091 . S
Co500 O504 2.004 . S
Co500 O510 2.021 . S
Co500 O512 2.137 . S
Co500 O513 2.244 . S
O501 Co500 2.216 . S
O501 C508 1.247 . S
O502 Co500 2.091 . S
O502 C508 1.261 . S
C503 O512 1.247 . S
C503 O513 1.272 . S
O504 Co500 2.004 . S
O504 C509 1.259 . S
Co505 O506 2.061 . S
Co505 O511 2.052 . S
Co505 O513 2.135 . S
O506 Co505 2.061 . S
O506 C509 1.235 . S
C507 O510 1.238 . S
C507 O511 1.241 . S
C508 O501 1.247 . S
C508 O502 1.261 . S
C509 O504 1.259 . S
C509 O506 1.235 . S
O510 Co500 2.021 . S
O510 C507 1.238 . S
O511 Co505 2.052 . S
O511 C507 1.241 . S
O512 Co500 2.137 . S
O512 C503 1.247 . S
O513 Co500 2.244 . S
O513 C503 1.272 . S
O513 Co505 2.135 . S
Co514 O515 2.216 . S
Co514 O516 2.091 . S
Co514 O518 2.004 . S
Co514 O524 2.021 . S
Co514 O526 2.137 . S
Co514 O527 2.244 . S
O515 Co514 2.216 . S
O515 C522 1.247 . S
O516 Co514 2.091 . S
O516 C522 1.261 . S
C517 O526 1.247 . S
C517 O527 1.272 . S
O518 Co514 2.004 . S
O518 C523 1.259 . S
Co519 O520 2.061 . S
Co519 O525 2.052 . S
Co519 O527 2.135 . S
O520 Co519 2.061 . S
O520 C523 1.235 . S
C521 O524 1.238 . S
C521 O525 1.241 . S
C522 O515 1.247 . S
C522 O516 1.261 . S
C523 O518 1.259 . S
C523 O520 1.235 . S
O524 Co514 2.021 . S
O524 C521 1.238 . S
O525 Co519 2.052 . S
O525 C521 1.241 . S
O526 Co514 2.137 . S
O526 C517 1.247 . S
O527 Co514 2.244 . S
O527 C517 1.272 . S
O527 Co519 2.135 . S
C528 C529 1.349 . S
C528 C530 1.327 . S
C528 H553 0.950 . S
C529 C528 1.349 . S
C529 C545 1.349 . S
C530 C528 1.327 . S
C530 C549 1.429 . S
C530 H554 0.950 . S
C531 C548 1.574 . S
C531 C550 1.368 . S
C531 H555 0.949 . S
H532 C536 0.949 . S
C533 C534 1.349 . S
C533 C535 1.327 . S
C533 H556 0.950 . S
C534 C533 1.349 . S
C534 C546 1.349 . S
C535 C533 1.327 . S
C535 C551 1.429 . S
C535 H557 0.950 . S
C536 H532 0.949 . S
C536 C544 1.574 . S
C536 C552 1.368 . S
H537 C545 0.950 . S
H538 C543 0.950 . S
H539 C544 0.949 . S
H540 C546 0.950 . S
H541 C547 0.950 . S
H542 C548 0.949 . S
C543 H538 0.950 . S
C543 C545 1.327 . S
C543 C549 1.429 . S
C544 C536 1.574 . S
C544 H539 0.949 . S
C544 C550 1.368 . S
C545 C529 1.349 . S
C545 H537 0.950 . S
C545 C543 1.327 . S
C546 C534 1.349 . S
C546 H540 0.950 . S
C546 C547 1.327 . S
C547 H541 0.950 . S
C547 C546 1.327 . S
C547 C551 1.429 . S
C548 C531 1.574 . S
C548 H542 0.949 . S
C548 C552 1.368 . S
C549 C530 1.429 . S
C549 C543 1.429 . S
C549 C550 1.523 . S
C550 C531 1.368 . S
C550 C544 1.368 . S
C550 C549 1.523 . S
C551 C535 1.429 . S
C551 C547 1.429 . S
C551 C552 1.523 . S
C552 C536 1.368 . S
C552 C548 1.368 . S
C552 C551 1.523 . S
H553 C528 0.950 . S
H554 C530 0.950 . S
H555 C531 0.949 . S
H556 C533 0.950 . S
H557 C535 0.950 . S
C558 C559 1.349 . S
C558 C560 1.327 . S
C558 H583 0.950 . S
C559 C558 1.349 . S
C559 C575 1.349 . S
C560 C558 1.327 . S
C560 C579 1.429 . S
C560 H584 0.950 . S
C561 C578 1.574 . S
C561 C580 1.368 . S
C561 H585 0.949 . S
H562 C566 0.949 . S
C563 C564 1.349 . S
C563 C565 1.327 . S
C563 H586 0.950 . S
C564 C563 1.349 . S
C564 C576 1.349 . S
C565 C563 1.327 . S
C565 C581 1.429 . S
C565 H587 0.950 . S
C566 H562 0.949 . S
C566 C574 1.574 . S
C566 C582 1.368 . S
H567 C575 0.950 . S
H568 C573 0.950 . S
H569 C574 0.949 . S
H570 C576 0.950 . S
H571 C577 0.950 . S
H572 C578 0.949 . S
C573 H568 0.950 . S
C573 C575 1.327 . S
C573 C579 1.429 . S
C574 C566 1.574 . S
C574 H569 0.949 . S
C574 C580 1.368 . S
C575 C559 1.349 . S
C575 H567 0.950 . S
C575 C573 1.327 . S
C576 C564 1.349 . S
C576 H570 0.950 . S
C576 C577 1.327 . S
C577 H571 0.950 . S
C577 C576 1.327 . S
C577 C581 1.429 . S
C578 C561 1.574 . S
C578 H572 0.949 . S
C578 C582 1.368 . S
C579 C560 1.429 . S
C579 C573 1.429 . S
C579 C580 1.523 . S
C580 C561 1.368 . S
C580 C574 1.368 . S
C580 C579 1.523 . S
C581 C565 1.429 . S
C581 C577 1.429 . S
C581 C582 1.523 . S
C582 C566 1.368 . S
C582 C578 1.368 . S
C582 C581 1.523 . S
H583 C558 0.950 . S
H584 C560 0.950 . S
H585 C561 0.949 . S
H586 C563 0.950 . S
H587 C565 0.950 . S
C588 C589 1.349 . S
C588 C590 1.327 . S
C588 H613 0.950 . S
C589 C588 1.349 . S
C589 C605 1.349 . S
C590 C588 1.327 . S
C590 C609 1.429 . S
C590 H614 0.950 . S
C591 C608 1.574 . S
C591 C610 1.368 . S
C591 H615 0.949 . S
H592 C596 0.949 . S
C593 C594 1.349 . S
C593 C595 1.327 . S
C593 H616 0.950 . S
C594 C593 1.349 . S
C594 C606 1.349 . S
C595 C593 1.327 . S
C595 C611 1.429 . S
C595 H617 0.950 . S
C596 H592 0.949 . S
C596 C604 1.574 . S
C596 C612 1.368 . S
H597 C605 0.950 . S
H598 C603 0.950 . S
H599 C604 0.949 . S
H600 C606 0.950 . S
H601 C607 0.950 . S
H602 C608 0.949 . S
C603 H598 0.950 . S
C603 C605 1.327 . S
C603 C609 1.429 . S
C604 C596 1.574 . S
C604 H599 0.949 . S
C604 C610 1.368 . S
C605 C589 1.349 . S
C605 H597 0.950 . S
C605 C603 1.327 . S
C606 C594 1.349 . S
C606 H600 0.950 . S
C606 C607 1.327 . S
C607 H601 0.950 . S
C607 C606 1.327 . S
C607 C611 1.429 . S
C608 C591 1.574 . S
C608 H602 0.949 . S
C608 C612 1.368 . S
C609 C590 1.429 . S
C609 C603 1.429 . S
C609 C610 1.523 . S
C610 C591 1.368 . S
C610 C604 1.368 . S
C610 C609 1.523 . S
C611 C595 1.429 . S
C611 C607 1.429 . S
C611 C612 1.523 . S
C612 C596 1.368 . S
C612 C608 1.368 . S
C612 C611 1.523 . S
H613 C588 0.950 . S
H614 C590 0.950 . S
H615 C591 0.949 . S
H616 C593 0.950 . S
H617 C595 0.950 . S
C618 C619 1.349 . S
C618 C620 1.327 . S
C618 H643 0.950 . S
C619 C618 1.349 . S
C619 C635 1.349 . S
C620 C618 1.327 . S
C620 C639 1.429 . S
C620 H644 0.950 . S
C621 C638 1.574 . S
C621 C640 1.368 . S
C621 H645 0.949 . S
H622 C626 0.949 . S
C623 C624 1.349 . S
C623 C625 1.327 . S
C623 H646 0.950 . S
C624 C623 1.349 . S
C624 C636 1.349 . S
C625 C623 1.327 . S
C625 C641 1.429 . S
C625 H647 0.950 . S
C626 H622 0.949 . S
C626 C634 1.574 . S
C626 C642 1.368 . S
H627 C635 0.950 . S
H628 C633 0.950 . S
H629 C634 0.949 . S
H630 C636 0.950 . S
H631 C637 0.950 . S
H632 C638 0.949 . S
C633 H628 0.950 . S
C633 C635 1.327 . S
C633 C639 1.429 . S
C634 C626 1.574 . S
C634 H629 0.949 . S
C634 C640 1.368 . S
C635 C619 1.349 . S
C635 H627 0.950 . S
C635 C633 1.327 . S
C636 C624 1.349 . S
C636 H630 0.950 . S
C636 C637 1.327 . S
C637 H631 0.950 . S
C637 C636 1.327 . S
C637 C641 1.429 . S
C638 C621 1.574 . S
C638 H632 0.949 . S
C638 C642 1.368 . S
C639 C620 1.429 . S
C639 C633 1.429 . S
C639 C640 1.523 . S
C640 C621 1.368 . S
C640 C634 1.368 . S
C640 C639 1.523 . S
C641 C625 1.429 . S
C641 C637 1.429 . S
C641 C642 1.523 . S
C642 C626 1.368 . S
C642 C638 1.368 . S
C642 C641 1.523 . S
H643 C618 0.950 . S
H644 C620 0.950 . S
H645 C621 0.949 . S
H646 C623 0.950 . S
H647 C625 0.950 . S
C648 C649 1.349 . S
C648 C650 1.327 . S
C648 H673 0.950 . S
C649 C648 1.349 . S
C649 C665 1.349 . S
C650 C648 1.327 . S
C650 C669 1.429 . S
C650 H674 0.950 . S
C651 C668 1.574 . S
C651 C670 1.368 . S
C651 H675 0.949 . S
H652 C656 0.949 . S
C653 C654 1.349 . S
C653 C655 1.327 . S
C653 H676 0.950 . S
C654 C653 1.349 . S
C654 C666 1.349 . S
C655 C653 1.327 . S
C655 C671 1.429 . S
C655 H677 0.950 . S
C656 H652 0.949 . S
C656 C664 1.574 . S
C656 C672 1.368 . S
H657 C665 0.950 . S
H658 C663 0.950 . S
H659 C664 0.949 . S
H660 C666 0.950 . S
H661 C667 0.950 . S
H662 C668 0.949 . S
C663 H658 0.950 . S
C663 C665 1.327 . S
C663 C669 1.429 . S
C664 C656 1.574 . S
C664 H659 0.949 . S
C664 C670 1.368 . S
C665 C649 1.349 . S
C665 H657 0.950 . S
C665 C663 1.327 . S
C666 C654 1.349 . S
C666 H660 0.950 . S
C666 C667 1.327 . S
C667 H661 0.950 . S
C667 C666 1.327 . S
C667 C671 1.429 . S
C668 C651 1.574 . S
C668 H662 0.949 . S
C668 C672 1.368 . S
C669 C650 1.429 . S
C669 C663 1.429 . S
C669 C670 1.523 . S
C670 C651 1.368 . S
C670 C664 1.368 . S
C670 C669 1.523 . S
C671 C655 1.429 . S
C671 C667 1.429 . S
C671 C672 1.523 . S
C672 C656 1.368 . S
C672 C668 1.368 . S
C672 C671 1.523 . S
H673 C648 0.950 . S
H674 C650 0.950 . S
H675 C651 0.949 . S
H676 C653 0.950 . S
H677 C655 0.950 . S
C678 C679 1.349 . S
C678 C680 1.327 . S
C678 H703 0.950 . S
C679 C678 1.349 . S
C679 C695 1.349 . S
C680 C678 1.327 . S
C680 C699 1.429 . S
C680 H704 0.950 . S
C681 C698 1.574 . S
C681 C700 1.368 . S
C681 H705 0.949 . S
H682 C686 0.949 . S
C683 C684 1.349 . S
C683 C685 1.327 . S
C683 H706 0.950 . S
C684 C683 1.349 . S
C684 C696 1.349 . S
C685 C683 1.327 . S
C685 C701 1.429 . S
C685 H707 0.950 . S
C686 H682 0.949 . S
C686 C694 1.574 . S
C686 C702 1.368 . S
H687 C695 0.950 . S
H688 C693 0.950 . S
H689 C694 0.949 . S
H690 C696 0.950 . S
H691 C697 0.950 . S
H692 C698 0.949 . S
C693 H688 0.950 . S
C693 C695 1.327 . S
C693 C699 1.429 . S
C694 C686 1.574 . S
C694 H689 0.949 . S
C694 C700 1.368 . S
C695 C679 1.349 . S
C695 H687 0.950 . S
C695 C693 1.327 . S
C696 C684 1.349 . S
C696 H690 0.950 . S
C696 C697 1.327 . S
C697 H691 0.950 . S
C697 C696 1.327 . S
C697 C701 1.429 . S
C698 C681 1.574 . S
C698 H692 0.949 . S
C698 C702 1.368 . S
C699 C680 1.429 . S
C699 C693 1.429 . S
C699 C700 1.523 . S
C700 C681 1.368 . S
C700 C694 1.368 . S
C700 C699 1.523 . S
C701 C685 1.429 . S
C701 C697 1.429 . S
C701 C702 1.523 . S
C702 C686 1.368 . S
C702 C698 1.368 . S
C702 C701 1.523 . S
H703 C678 0.950 . S
H704 C680 0.950 . S
H705 C681 0.949 . S
H706 C683 0.950 . S
H707 C685 0.950 . S
C708 C709 1.349 . S
C708 C710 1.327 . S
C708 H733 0.950 . S
C709 C708 1.349 . S
C709 C725 1.349 . S
C710 C708 1.327 . S
C710 C729 1.429 . S
C710 H734 0.950 . S
C711 C728 1.574 . S
C711 C730 1.368 . S
C711 H735 0.949 . S
H712 C716 0.949 . S
C713 C714 1.349 . S
C713 C715 1.327 . S
C713 H736 0.950 . S
C714 C713 1.349 . S
C714 C726 1.349 . S
C715 C713 1.327 . S
C715 C731 1.429 . S
C715 H737 0.950 . S
C716 H712 0.949 . S
C716 C724 1.574 . S
C716 C732 1.368 . S
H717 C725 0.950 . S
H718 C723 0.950 . S
H719 C724 0.949 . S
H720 C726 0.950 . S
H721 C727 0.950 . S
H722 C728 0.949 . S
C723 H718 0.950 . S
C723 C725 1.327 . S
C723 C729 1.429 . S
C724 C716 1.574 . S
C724 H719 0.949 . S
C724 C730 1.368 . S
C725 C709 1.349 . S
C725 H717 0.950 . S
C725 C723 1.327 . S
C726 C714 1.349 . S
C726 H720 0.950 . S
C726 C727 1.327 . S
C727 H721 0.950 . S
C727 C726 1.327 . S
C727 C731 1.429 . S
C728 C711 1.574 . S
C728 H722 0.949 . S
C728 C732 1.368 . S
C729 C710 1.429 . S
C729 C723 1.429 . S
C729 C730 1.523 . S
C730 C711 1.368 . S
C730 C724 1.368 . S
C730 C729 1.523 . S
C731 C715 1.429 . S
C731 C727 1.429 . S
C731 C732 1.523 . S
C732 C716 1.368 . S
C732 C728 1.368 . S
C732 C731 1.523 . S
H733 C708 0.950 . S
H734 C710 0.950 . S
H735 C711 0.949 . S
H736 C713 0.950 . S
H737 C715 0.950 . S
C738 C739 1.349 . S
C738 C740 1.327 . S
C738 H763 0.950 . S
C739 C738 1.349 . S
C739 C755 1.349 . S
C740 C738 1.327 . S
C740 C759 1.429 . S
C740 H764 0.950 . S
C741 C758 1.574 . S
C741 C760 1.368 . S
C741 H765 0.949 . S
H742 C746 0.949 . S
C743 C744 1.349 . S
C743 C745 1.327 . S
C743 H766 0.950 . S
C744 C743 1.349 . S
C744 C756 1.349 . S
C745 C743 1.327 . S
C745 C761 1.429 . S
C745 H767 0.950 . S
C746 H742 0.949 . S
C746 C754 1.574 . S
C746 C762 1.368 . S
H747 C755 0.950 . S
H748 C753 0.950 . S
H749 C754 0.949 . S
H750 C756 0.950 . S
H751 C757 0.950 . S
H752 C758 0.949 . S
C753 H748 0.950 . S
C753 C755 1.327 . S
C753 C759 1.429 . S
C754 C746 1.574 . S
C754 H749 0.949 . S
C754 C760 1.368 . S
C755 C739 1.349 . S
C755 H747 0.950 . S
C755 C753 1.327 . S
C756 C744 1.349 . S
C756 H750 0.950 . S
C756 C757 1.327 . S
C757 H751 0.950 . S
C757 C756 1.327 . S
C757 C761 1.429 . S
C758 C741 1.574 . S
C758 H752 0.949 . S
C758 C762 1.368 . S
C759 C740 1.429 . S
C759 C753 1.429 . S
C759 C760 1.523 . S
C760 C741 1.368 . S
C760 C754 1.368 . S
C760 C759 1.523 . S
C761 C745 1.429 . S
C761 C757 1.429 . S
C761 C762 1.523 . S
C762 C746 1.368 . S
C762 C758 1.368 . S
C762 C761 1.523 . S
H763 C738 0.950 . S
H764 C740 0.950 . S
H765 C741 0.949 . S
H766 C743 0.950 . S
H767 C745 0.950 . S
C768 C769 1.349 . S
C768 C770 1.327 . S
C768 H793 0.950 . S
C769 C768 1.349 . S
C769 C785 1.349 . S
C770 C768 1.327 . S
C770 C789 1.429 . S
C770 H794 0.950 . S
C771 C788 1.574 . S
C771 C790 1.368 . S
C771 H795 0.949 . S
H772 C776 0.949 . S
C773 C774 1.349 . S
C773 C775 1.327 . S
C773 H796 0.950 . S
C774 C773 1.349 . S
C774 C786 1.349 . S
C775 C773 1.327 . S
C775 C791 1.429 . S
C775 H797 0.950 . S
C776 H772 0.949 . S
C776 C784 1.574 . S
C776 C792 1.368 . S
H777 C785 0.950 . S
H778 C783 0.950 . S
H779 C784 0.949 . S
H780 C786 0.950 . S
H781 C787 0.950 . S
H782 C788 0.949 . S
C783 H778 0.950 . S
C783 C785 1.327 . S
C783 C789 1.429 . S
C784 C776 1.574 . S
C784 H779 0.949 . S
C784 C790 1.368 . S
C785 C769 1.349 . S
C785 H777 0.950 . S
C785 C783 1.327 . S
C786 C774 1.349 . S
C786 H780 0.950 . S
C786 C787 1.327 . S
C787 H781 0.950 . S
C787 C786 1.327 . S
C787 C791 1.429 . S
C788 C771 1.574 . S
C788 H782 0.949 . S
C788 C792 1.368 . S
C789 C770 1.429 . S
C789 C783 1.429 . S
C789 C790 1.523 . S
C790 C771 1.368 . S
C790 C784 1.368 . S
C790 C789 1.523 . S
C791 C775 1.429 . S
C791 C787 1.429 . S
C791 C792 1.523 . S
C792 C776 1.368 . S
C792 C788 1.368 . S
C792 C791 1.523 . S
H793 C768 0.950 . S
H794 C770 0.950 . S
H795 C771 0.949 . S
H796 C773 0.950 . S
H797 C775 0.950 . S
C798 C799 1.349 . S
C798 C800 1.327 . S
C798 H823 0.950 1_554 S
C799 C798 1.349 . S
C799 C815 1.349 . S
C800 C798 1.327 . S
C800 C819 1.429 . S
C800 H824 0.950 . S
C801 C818 1.574 . S
C801 C820 1.368 . S
C801 H825 0.949 . S
H802 C806 0.949 . S
C803 C804 1.349 . S
C803 C805 1.327 . S
C803 H826 0.950 . S
C804 C803 1.349 . S
C804 C816 1.349 . S
C805 C803 1.327 . S
C805 C821 1.429 . S
C805 H827 0.950 . S
C806 H802 0.949 . S
C806 C814 1.574 . S
C806 C822 1.368 . S
H807 C815 0.950 . S
H808 C813 0.950 . S
H809 C814 0.949 . S
H810 C816 0.950 . S
H811 C817 0.950 . S
H812 C818 0.949 . S
C813 H808 0.950 . S
C813 C815 1.327 . S
C813 C819 1.429 . S
C814 C806 1.574 . S
C814 H809 0.949 . S
C814 C820 1.368 . S
C815 C799 1.349 . S
C815 H807 0.950 . S
C815 C813 1.327 . S
C816 C804 1.349 . S
C816 H810 0.950 . S
C816 C817 1.327 . S
C817 H811 0.950 . S
C817 C816 1.327 . S
C817 C821 1.429 . S
C818 C801 1.574 . S
C818 H812 0.949 . S
C818 C822 1.368 . S
C819 C800 1.429 . S
C819 C813 1.429 . S
C819 C820 1.523 . S
C820 C801 1.368 . S
C820 C814 1.368 . S
C820 C819 1.523 . S
C821 C805 1.429 . S
C821 C817 1.429 . S
C821 C822 1.523 . S
C822 C806 1.368 . S
C822 C818 1.368 . S
C822 C821 1.523 . S
H823 C798 0.950 1_556 S
H824 C800 0.950 . S
H825 C801 0.949 . S
H826 C803 0.950 . S
H827 C805 0.950 . S
C828 C829 1.349 . S
C828 C830 1.327 . S
C828 H853 0.950 . S
C829 C828 1.349 . S
C829 C845 1.349 . S
C830 C828 1.327 . S
C830 C849 1.429 . S
C830 H854 0.950 . S
C831 C848 1.574 . S
C831 C850 1.368 . S
C831 H855 0.949 . S
H832 C836 0.949 . S
C833 C834 1.349 . S
C833 C835 1.327 . S
C833 H856 0.950 . S
C834 C833 1.349 . S
C834 C846 1.349 . S
C835 C833 1.327 . S
C835 C851 1.429 . S
C835 H857 0.950 . S
C836 H832 0.949 . S
C836 C844 1.574 . S
C836 C852 1.368 . S
H837 C845 0.950 . S
H838 C843 0.950 . S
H839 C844 0.949 . S
H840 C846 0.950 . S
H841 C847 0.950 . S
H842 C848 0.949 . S
C843 H838 0.950 . S
C843 C845 1.327 . S
C843 C849 1.429 . S
C844 C836 1.574 . S
C844 H839 0.949 . S
C844 C850 1.368 . S
C845 C829 1.349 . S
C845 H837 0.950 . S
C845 C843 1.327 . S
C846 C834 1.349 . S
C846 H840 0.950 . S
C846 C847 1.327 . S
C847 H841 0.950 . S
C847 C846 1.327 . S
C847 C851 1.429 . S
C848 C831 1.574 . S
C848 H842 0.949 . S
C848 C852 1.368 . S
C849 C830 1.429 . S
C849 C843 1.429 . S
C849 C850 1.523 . S
C850 C831 1.368 . S
C850 C844 1.368 . S
C850 C849 1.523 . S
C851 C835 1.429 . S
C851 C847 1.429 . S
C851 C852 1.523 . S
C852 C836 1.368 . S
C852 C848 1.368 . S
C852 C851 1.523 . S
H853 C828 0.950 . S
H854 C830 0.950 . S
H855 C831 0.949 . S
H856 C833 0.950 . S
H857 C835 0.950 . S
C858 C859 1.349 . S
C858 C860 1.327 . S
C858 H883 0.950 . S
C859 C858 1.349 . S
C859 C875 1.349 . S
C860 C858 1.327 . S
C860 C879 1.429 . S
C860 H884 0.950 . S
C861 C878 1.574 . S
C861 C880 1.368 . S
C861 H885 0.949 . S
H862 C866 0.949 . S
C863 C864 1.349 . S
C863 C865 1.327 . S
C863 H886 0.950 . S
C864 C863 1.349 . S
C864 C876 1.349 . S
C865 C863 1.327 . S
C865 C881 1.429 . S
C865 H887 0.950 . S
C866 H862 0.949 . S
C866 C874 1.574 . S
C866 C882 1.368 . S
H867 C875 0.950 . S
H868 C873 0.950 . S
H869 C874 0.949 . S
H870 C876 0.950 . S
H871 C877 0.950 . S
H872 C878 0.949 . S
C873 H868 0.950 . S
C873 C875 1.327 . S
C873 C879 1.429 . S
C874 C866 1.574 . S
C874 H869 0.949 . S
C874 C880 1.368 . S
C875 C859 1.349 . S
C875 H867 0.950 . S
C875 C873 1.327 . S
C876 C864 1.349 . S
C876 H870 0.950 . S
C876 C877 1.327 . S
C877 H871 0.950 . S
C877 C876 1.327 . S
C877 C881 1.429 . S
C878 C861 1.574 . S
C878 H872 0.949 . S
C878 C882 1.368 . S
C879 C860 1.429 . S
C879 C873 1.429 . S
C879 C880 1.523 . S
C880 C861 1.368 . S
C880 C874 1.368 . S
C880 C879 1.523 . S
C881 C865 1.429 . S
C881 C877 1.429 . S
C881 C882 1.523 . S
C882 C866 1.368 . S
C882 C878 1.368 . S
C882 C881 1.523 . S
H883 C858 0.950 . S
H884 C860 0.950 . S
H885 C861 0.949 . S
H886 C863 0.950 . S
H887 C865 0.950 . S
C888 C889 1.349 . S
C888 C890 1.327 . S
C888 H913 0.950 . S
C889 C888 1.349 . S
C889 C905 1.349 . S
C890 C888 1.327 . S
C890 C909 1.429 . S
C890 H914 0.950 . S
C891 C908 1.574 . S
C891 C910 1.368 . S
C891 H915 0.949 . S
H892 C896 0.949 . S
C893 C894 1.349 . S
C893 C895 1.327 . S
C893 H916 0.950 . S
C894 C893 1.349 . S
C894 C906 1.349 . S
C895 C893 1.327 . S
C895 C911 1.429 . S
C895 H917 0.950 . S
C896 H892 0.949 . S
C896 C904 1.574 . S
C896 C912 1.368 . S
H897 C905 0.950 . S
H898 C903 0.950 . S
H899 C904 0.949 . S
H900 C906 0.950 . S
H901 C907 0.950 . S
H902 C908 0.949 . S
C903 H898 0.950 . S
C903 C905 1.327 . S
C903 C909 1.429 . S
C904 C896 1.574 . S
C904 H899 0.949 . S
C904 C910 1.368 . S
C905 C889 1.349 . S
C905 H897 0.950 . S
C905 C903 1.327 . S
C906 C894 1.349 . S
C906 H900 0.950 . S
C906 C907 1.327 . S
C907 H901 0.950 . S
C907 C906 1.327 . S
C907 C911 1.429 . S
C908 C891 1.574 . S
C908 H902 0.949 . S
C908 C912 1.368 . S
C909 C890 1.429 . S
C909 C903 1.429 . S
C909 C910 1.523 . S
C910 C891 1.368 . S
C910 C904 1.368 . S
C910 C909 1.523 . S
C911 C895 1.429 . S
C911 C907 1.429 . S
C911 C912 1.523 . S
C912 C896 1.368 . S
C912 C908 1.368 . S
C912 C911 1.523 . S
H913 C888 0.950 . S
H914 C890 0.950 . S
H915 C891 0.949 . S
H916 C893 0.950 . S
H917 C895 0.950 . S
C918 C919 1.349 . S
C918 C920 1.327 . S
C918 H943 0.950 . S
C919 C918 1.349 . S
C919 C935 1.349 . S
C920 C918 1.327 . S
C920 C939 1.429 . S
C920 H944 0.950 . S
C921 C938 1.574 . S
C921 C940 1.368 . S
C921 H945 0.949 . S
H922 C926 0.949 . S
C923 C924 1.349 . S
C923 C925 1.327 . S
C923 H946 0.950 . S
C924 C923 1.349 . S
C924 C936 1.349 . S
C925 C923 1.327 . S
C925 C941 1.429 . S
C925 H947 0.950 . S
C926 H922 0.949 . S
C926 C934 1.574 . S
C926 C942 1.368 . S
H927 C935 0.950 . S
H928 C933 0.950 . S
H929 C934 0.949 . S
H930 C936 0.950 . S
H931 C937 0.950 . S
H932 C938 0.949 . S
C933 H928 0.950 . S
C933 C935 1.327 . S
C933 C939 1.429 . S
C934 C926 1.574 . S
C934 H929 0.949 . S
C934 C940 1.368 . S
C935 C919 1.349 . S
C935 H927 0.950 . S
C935 C933 1.327 . S
C936 C924 1.349 . S
C936 H930 0.950 . S
C936 C937 1.327 . S
C937 H931 0.950 . S
C937 C936 1.327 . S
C937 C941 1.429 . S
C938 C921 1.574 . S
C938 H932 0.949 . S
C938 C942 1.368 . S
C939 C920 1.429 . S
C939 C933 1.429 . S
C939 C940 1.523 . S
C940 C921 1.368 . S
C940 C934 1.368 . S
C940 C939 1.523 . S
C941 C925 1.429 . S
C941 C937 1.429 . S
C941 C942 1.523 . S
C942 C926 1.368 . S
C942 C938 1.368 . S
C942 C941 1.523 . S
H943 C918 0.950 . S
H944 C920 0.950 . S
H945 C921 0.949 . S
H946 C923 0.950 . S
H947 C925 0.950 . S
C948 C949 1.349 . S
C948 C950 1.327 . S
C948 H973 0.950 . S
C949 C948 1.349 . S
C949 C965 1.349 . S
C950 C948 1.327 . S
C950 C969 1.429 . S
C950 H974 0.950 . S
C951 C968 1.574 . S
C951 C970 1.368 . S
C951 H975 0.949 . S
H952 C956 0.949 . S
C953 C954 1.349 . S
C953 C955 1.327 . S
C953 H976 0.950 . S
C954 C953 1.349 . S
C954 C966 1.349 . S
C955 C953 1.327 . S
C955 C971 1.429 . S
C955 H977 0.950 . S
C956 H952 0.949 . S
C956 C964 1.574 . S
C956 C972 1.368 . S
H957 C965 0.950 . S
H958 C963 0.950 . S
H959 C964 0.949 . S
H960 C966 0.950 . S
H961 C967 0.950 . S
H962 C968 0.949 . S
C963 H958 0.950 . S
C963 C965 1.327 . S
C963 C969 1.429 . S
C964 C956 1.574 . S
C964 H959 0.949 . S
C964 C970 1.368 . S
C965 C949 1.349 . S
C965 H957 0.950 . S
C965 C963 1.327 . S
C966 C954 1.349 . S
C966 H960 0.950 . S
C966 C967 1.327 . S
C967 H961 0.950 . S
C967 C966 1.327 . S
C967 C971 1.429 . S
C968 C951 1.574 . S
C968 H962 0.949 . S
C968 C972 1.368 . S
C969 C950 1.429 . S
C969 C963 1.429 . S
C969 C970 1.523 . S
C970 C951 1.368 . S
C970 C964 1.368 . S
C970 C969 1.523 . S
C971 C955 1.429 . S
C971 C967 1.429 . S
C971 C972 1.523 . S
C972 C956 1.368 . S
C972 C968 1.368 . S
C972 C971 1.523 . S
H973 C948 0.950 . S
H974 C950 0.950 . S
H975 C951 0.949 . S
H976 C953 0.950 . S
H977 C955 0.950 . S
C978 C979 1.349 . S
C978 C980 1.327 . S
C978 H1003 0.950 . S
C979 C978 1.349 . S
C979 C995 1.349 . S
C980 C978 1.327 . S
C980 C999 1.429 . S
C980 H1004 0.950 . S
C981 C998 1.574 . S
C981 C1000 1.368 . S
C981 H1005 0.949 . S
H982 C986 0.949 . S
C983 C984 1.349 . S
C983 C985 1.327 . S
C983 H1006 0.950 . S
C984 C983 1.349 . S
C984 C996 1.349 . S
C985 C983 1.327 . S
C985 C1001 1.429 1_554 S
C985 H1007 0.950 1_554 S
C986 H982 0.949 . S
C986 C994 1.574 . S
C986 C1002 1.368 . S
H987 C995 0.950 . S
H988 C993 0.950 . S
H989 C994 0.949 . S
H990 C996 0.950 . S
H991 C997 0.955 . S
H992 C998 0.949 . S
C993 H988 0.950 . S
C993 C995 1.327 . S
C993 C999 1.429 . S
C994 C986 1.574 . S
C994 H989 0.949 . S
C994 C1000 1.368 . S
C995 C979 1.349 . S
C995 H987 0.950 . S
C995 C993 1.327 . S
C996 C984 1.349 . S
C996 H990 0.950 . S
C996 C997 1.318 1_554 S
C997 H991 0.955 . S
C997 C996 1.318 1_556 S
C997 C1001 1.433 . S
C998 C981 1.574 . S
C998 H992 0.949 . S
C998 C1002 1.368 . S
C999 C980 1.429 . S
C999 C993 1.429 . S
C999 C1000 1.523 . S
C1000 C981 1.368 . S
C1000 C994 1.368 . S
C1000 C999 1.523 . S
C1001 C985 1.429 1_556 S
C1001 C997 1.433 . S
C1001 C1002 1.523 . S
C1002 C986 1.368 . S
C1002 C998 1.368 . S
C1002 C1001 1.523 . S
H1003 C978 0.950 . S
H1004 C980 0.950 . S
H1005 C981 0.949 . S
H1006 C983 0.950 . S
H1007 C985 0.950 1_556 S
C1008 C1009 1.349 1_565 S
C1008 C1010 1.327 . S
C1008 H1033 0.950 . S
C1009 C1008 1.349 1_545 S
C1009 C1025 1.349 . S
C1010 C1008 1.327 . S
C1010 C1029 1.429 . S
C1010 H1034 0.950 . S
C1011 C1028 1.574 . S
C1011 C1030 1.368 . S
C1011 H1035 0.949 . S
H1012 C1016 0.949 . S
C1013 C1014 1.349 . S
C1013 C1015 1.327 . S
C1013 H1036 0.950 . S
C1014 C1013 1.349 . S
C1014 C1026 1.349 . S
C1015 C1013 1.327 . S
C1015 C1031 1.429 . S
C1015 H1037 0.950 . S
C1016 H1012 0.949 . S
C1016 C1024 1.574 . S
C1016 C1032 1.368 . S
H1017 C1025 0.950 . S
H1018 C1023 0.950 1_545 S
H1019 C1024 0.949 . S
H1020 C1026 0.950 . S
H1021 C1027 0.950 . S
H1022 C1028 0.949 . S
C1023 H1018 0.950 1_565 S
C1023 C1025 1.327 1_565 S
C1023 C1029 1.429 . S
C1024 C1016 1.574 . S
C1024 H1019 0.949 . S
C1024 C1030 1.368 . S
C1025 C1009 1.349 . S
C1025 H1017 0.950 . S
C1025 C1023 1.327 1_545 S
C1026 C1014 1.349 . S
C1026 H1020 0.950 . S
C1026 C1027 1.327 . S
C1027 H1021 0.950 . S
C1027 C1026 1.327 . S
C1027 C1031 1.429 . S
C1028 C1011 1.574 . S
C1028 H1022 0.949 . S
C1028 C1032 1.368 . S
C1029 C1010 1.429 . S
C1029 C1023 1.429 . S
C1029 C1030 1.523 . S
C1030 C1011 1.368 . S
C1030 C1024 1.368 . S
C1030 C1029 1.523 . S
C1031 C1015 1.429 . S
C1031 C1027 1.429 . S
C1031 C1032 1.523 . S
C1032 C1016 1.368 . S
C1032 C1028 1.368 . S
C1032 C1031 1.523 . S
H1033 C1008 0.950 . S
H1034 C1010 0.950 . S
H1035 C1011 0.949 . S
H1036 C1013 0.950 . S
H1037 C1015 0.950 . S
C1038 C1039 1.349 . S
C1038 C1040 1.327 . S
C1038 H1063 0.950 . S
C1039 C1038 1.349 . S
C1039 C1055 1.349 . S
C1040 C1038 1.327 . S
C1040 C1059 1.429 . S
C1040 H1064 0.950 . S
C1041 C1058 1.574 . S
C1041 C1060 1.368 . S
C1041 H1065 0.949 . S
H1042 C1046 0.949 . S
C1043 C1044 1.349 . S
C1043 C1045 1.327 . S
C1043 H1066 0.950 . S
C1044 C1043 1.349 . S
C1044 C1056 1.349 . S
C1045 C1043 1.327 . S
C1045 C1061 1.429 . S
C1045 H1067 0.950 . S
C1046 H1042 0.949 . S
C1046 C1054 1.574 . S
C1046 C1062 1.368 . S
H1047 C1055 0.950 . S
H1048 C1053 0.950 . S
H1049 C1054 0.949 . S
H1050 C1056 0.950 . S
H1051 C1057 0.950 . S
H1052 C1058 0.949 . S
C1053 H1048 0.950 . S
C1053 C1055 1.327 . S
C1053 C1059 1.429 . S
C1054 C1046 1.574 . S
C1054 H1049 0.949 . S
C1054 C1060 1.368 . S
C1055 C1039 1.349 . S
C1055 H1047 0.950 . S
C1055 C1053 1.327 . S
C1056 C1044 1.349 . S
C1056 H1050 0.950 . S
C1056 C1057 1.327 . S
C1057 H1051 0.950 . S
C1057 C1056 1.327 . S
C1057 C1061 1.429 . S
C1058 C1041 1.574 . S
C1058 H1052 0.949 . S
C1058 C1062 1.368 . S
C1059 C1040 1.429 . S
C1059 C1053 1.429 . S
C1059 C1060 1.523 . S
C1060 C1041 1.368 . S
C1060 C1054 1.368 . S
C1060 C1059 1.523 . S
C1061 C1045 1.429 . S
C1061 C1057 1.429 . S
C1061 C1062 1.523 . S
C1062 C1046 1.368 . S
C1062 C1058 1.368 . S
C1062 C1061 1.523 . S
H1063 C1038 0.950 . S
H1064 C1040 0.950 . S
H1065 C1041 0.949 . S
H1066 C1043 0.950 . S
H1067 C1045 0.950 . S
C1068 C1069 1.349 . S
C1068 C1070 1.327 . S
C1068 H1093 0.950 1_565 S
C1069 C1068 1.349 . S
C1069 C1085 1.349 . S
C1070 C1068 1.327 . S
C1070 C1089 1.429 . S
C1070 H1094 0.950 . S
C1071 C1088 1.574 . S
C1071 C1090 1.368 . S
C1071 H1095 0.949 . S
H1072 C1076 0.949 . S
C1073 C1074 1.349 . S
C1073 C1075 1.327 . S
C1073 H1096 0.950 . S
C1074 C1073 1.349 . S
C1074 C1086 1.349 . S
C1075 C1073 1.327 . S
C1075 C1091 1.429 . S
C1075 H1097 0.950 . S
C1076 H1072 0.949 . S
C1076 C1084 1.574 . S
C1076 C1092 1.368 . S
H1077 C1085 0.950 . S
H1078 C1083 0.950 . S
H1079 C1084 0.949 . S
H1080 C1086 0.950 . S
H1081 C1087 0.950 . S
H1082 C1088 0.949 . S
C1083 H1078 0.950 . S
C1083 C1085 1.327 . S
C1083 C1089 1.429 . S
C1084 C1076 1.574 . S
C1084 H1079 0.949 . S
C1084 C1090 1.368 . S
C1085 C1069 1.349 . S
C1085 H1077 0.950 . S
C1085 C1083 1.327 . S
C1086 C1074 1.349 . S
C1086 H1080 0.950 . S
C1086 C1087 1.327 . S
C1087 H1081 0.950 . S
C1087 C1086 1.327 . S
C1087 C1091 1.429 . S
C1088 C1071 1.574 . S
C1088 H1082 0.949 . S
C1088 C1092 1.368 . S
C1089 C1070 1.429 . S
C1089 C1083 1.429 . S
C1089 C1090 1.523 . S
C1090 C1071 1.368 . S
C1090 C1084 1.368 . S
C1090 C1089 1.523 . S
C1091 C1075 1.429 . S
C1091 C1087 1.429 . S
C1091 C1092 1.523 . S
C1092 C1076 1.368 . S
C1092 C1088 1.368 . S
C1092 C1091 1.523 . S
H1093 C1068 0.950 1_545 S
H1094 C1070 0.950 . S
H1095 C1071 0.949 . S
H1096 C1073 0.950 . S
H1097 C1075 0.950 . S
C1098 C1099 1.349 . S
C1098 C1100 1.327 . S
C1098 H1123 0.950 . S
C1099 C1098 1.349 . S
C1099 C1115 1.349 . S
C1100 C1098 1.327 . S
C1100 C1119 1.429 . S
C1100 H1124 0.950 . S
C1101 C1118 1.574 . S
C1101 C1120 1.368 . S
C1101 H1125 0.949 . S
H1102 C1106 0.949 . S
C1103 C1104 1.349 . S
C1103 C1105 1.327 . S
C1103 H1126 0.950 . S
C1104 C1103 1.349 . S
C1104 C1116 1.349 . S
C1105 C1103 1.327 . S
C1105 C1121 1.429 . S
C1105 H1127 0.950 . S
C1106 H1102 0.949 . S
C1106 C1114 1.574 . S
C1106 C1122 1.368 . S
H1107 C1115 0.950 . S
H1108 C1113 0.950 . S
H1109 C1114 0.949 . S
H1110 C1116 0.950 . S
H1111 C1117 0.950 . S
H1112 C1118 0.949 . S
C1113 H1108 0.950 . S
C1113 C1115 1.327 . S
C1113 C1119 1.429 . S
C1114 C1106 1.574 . S
C1114 H1109 0.949 . S
C1114 C1120 1.368 . S
C1115 C1099 1.349 . S
C1115 H1107 0.950 . S
C1115 C1113 1.327 . S
C1116 C1104 1.349 . S
C1116 H1110 0.950 . S
C1116 C1117 1.327 . S
C1117 H1111 0.950 . S
C1117 C1116 1.327 . S
C1117 C1121 1.429 . S
C1118 C1101 1.574 . S
C1118 H1112 0.949 . S
C1118 C1122 1.368 . S
C1119 C1100 1.429 . S
C1119 C1113 1.429 . S
C1119 C1120 1.523 . S
C1120 C1101 1.368 . S
C1120 C1114 1.368 . S
C1120 C1119 1.523 . S
C1121 C1105 1.429 . S
C1121 C1117 1.429 . S
C1121 C1122 1.523 . S
C1122 C1106 1.368 . S
C1122 C1118 1.368 . S
C1122 C1121 1.523 . S
H1123 C1098 0.950 . S
H1124 C1100 0.950 . S
H1125 C1101 0.949 . S
H1126 C1103 0.950 . S
H1127 C1105 0.950 . S
C1128 C1129 1.349 . S
C1128 C1130 1.327 . S
C1128 H1153 0.950 . S
C1129 C1128 1.349 . S
C1129 C1145 1.349 . S
C1130 C1128 1.327 . S
C1130 C1149 1.429 . S
C1130 H1154 0.950 . S
C1131 C1148 1.574 . S
C1131 C1150 1.368 . S
C1131 H1155 0.949 . S
H1132 C1136 0.949 . S
C1133 C1134 1.349 . S
C1133 C1135 1.327 . S
C1133 H1156 0.950 . S
C1134 C1133 1.349 . S
C1134 C1146 1.349 . S
C1135 C1133 1.327 . S
C1135 C1151 1.429 . S
C1135 H1157 0.950 . S
C1136 H1132 0.949 . S
C1136 C1144 1.574 . S
C1136 C1152 1.368 . S
H1137 C1145 0.950 . S
H1138 C1143 0.950 . S
H1139 C1144 0.949 . S
H1140 C1146 0.950 . S
H1141 C1147 0.950 . S
H1142 C1148 0.949 . S
C1143 H1138 0.950 . S
C1143 C1145 1.327 . S
C1143 C1149 1.429 . S
C1144 C1136 1.574 . S
C1144 H1139 0.949 . S
C1144 C1150 1.368 . S
C1145 C1129 1.349 . S
C1145 H1137 0.950 . S
C1145 C1143 1.327 . S
C1146 C1134 1.349 . S
C1146 H1140 0.950 . S
C1146 C1147 1.327 . S
C1147 H1141 0.950 . S
C1147 C1146 1.327 . S
C1147 C1151 1.429 . S
C1148 C1131 1.574 . S
C1148 H1142 0.949 . S
C1148 C1152 1.368 . S
C1149 C1130 1.429 . S
C1149 C1143 1.429 . S
C1149 C1150 1.523 . S
C1150 C1131 1.368 . S
C1150 C1144 1.368 . S
C1150 C1149 1.523 . S
C1151 C1135 1.429 . S
C1151 C1147 1.429 . S
C1151 C1152 1.523 . S
C1152 C1136 1.368 . S
C1152 C1148 1.368 . S
C1152 C1151 1.523 . S
H1153 C1128 0.950 . S
H1154 C1130 0.950 . S
H1155 C1131 0.949 . S
H1156 C1133 0.950 . S
H1157 C1135 0.950 . S
C1158 C1159 1.349 . S
C1158 C1160 1.327 . S
C1158 H1183 0.950 . S
C1159 C1158 1.349 . S
C1159 C1175 1.349 . S
C1160 C1158 1.327 . S
C1160 C1179 1.429 . S
C1160 H1184 0.950 . S
C1161 C1178 1.574 . S
C1161 C1180 1.368 . S
C1161 H1185 0.949 . S
H1162 C1166 0.949 . S
C1163 C1164 1.349 . S
C1163 C1165 1.327 . S
C1163 H1186 0.950 . S
C1164 C1163 1.349 . S
C1164 C1176 1.349 . S
C1165 C1163 1.327 . S
C1165 C1181 1.429 . S
C1165 H1187 0.950 . S
C1166 H1162 0.949 . S
C1166 C1174 1.574 . S
C1166 C1182 1.368 . S
H1167 C1175 0.950 . S
H1168 C1173 0.950 . S
H1169 C1174 0.949 . S
H1170 C1176 0.950 . S
H1171 C1177 0.950 . S
H1172 C1178 0.949 . S
C1173 H1168 0.950 . S
C1173 C1175 1.327 . S
C1173 C1179 1.429 . S
C1174 C1166 1.574 . S
C1174 H1169 0.949 . S
C1174 C1180 1.368 . S
C1175 C1159 1.349 . S
C1175 H1167 0.950 . S
C1175 C1173 1.327 . S
C1176 C1164 1.349 . S
C1176 H1170 0.950 . S
C1176 C1177 1.327 . S
C1177 H1171 0.950 . S
C1177 C1176 1.327 . S
C1177 C1181 1.429 . S
C1178 C1161 1.574 . S
C1178 H1172 0.949 . S
C1178 C1182 1.368 . S
C1179 C1160 1.429 . S
C1179 C1173 1.429 . S
C1179 C1180 1.523 . S
C1180 C1161 1.368 . S
C1180 C1174 1.368 . S
C1180 C1179 1.523 . S
C1181 C1165 1.429 . S
C1181 C1177 1.429 . S
C1181 C1182 1.523 . S
C1182 C1166 1.368 . S
C1182 C1178 1.368 . S
C1182 C1181 1.523 . S
H1183 C1158 0.950 . S
H1184 C1160 0.950 . S
H1185 C1161 0.949 . S
H1186 C1163 0.950 . S
H1187 C1165 0.950 . S
C1188 C1189 1.349 . S
C1188 C1190 1.327 . S
C1188 H1213 0.950 . S
C1189 C1188 1.349 . S
C1189 C1205 1.349 . S
C1190 C1188 1.327 . S
C1190 C1209 1.429 . S
C1190 H1214 0.950 . S
C1191 C1208 1.574 . S
C1191 C1210 1.368 . S
C1191 H1215 0.949 . S
H1192 C1196 0.949 1_556 S
C1193 C1194 1.349 . S
C1193 C1195 1.327 . S
C1193 H1216 0.950 . S
C1194 C1193 1.349 . S
C1194 C1206 1.349 . S
C1195 C1193 1.327 . S
C1195 C1211 1.429 . S
C1195 H1217 0.950 . S
C1196 H1192 0.949 1_554 S
C1196 C1204 1.574 . S
C1196 C1212 1.368 . S
H1197 C1205 0.950 . S
H1198 C1203 0.950 . S
H1199 C1204 0.949 . S
H1200 C1206 0.950 . S
H1201 C1207 0.950 . S
H1202 C1208 0.949 . S
C1203 H1198 0.950 . S
C1203 C1205 1.327 . S
C1203 C1209 1.429 . S
C1204 C1196 1.574 . S
C1204 H1199 0.949 . S
C1204 C1210 1.368 . S
C1205 C1189 1.349 . S
C1205 H1197 0.950 . S
C1205 C1203 1.327 . S
C1206 C1194 1.349 . S
C1206 H1200 0.950 . S
C1206 C1207 1.327 . S
C1207 H1201 0.950 . S
C1207 C1206 1.327 . S
C1207 C1211 1.429 . S
C1208 C1191 1.574 . S
C1208 H1202 0.949 . S
C1208 C1212 1.368 . S
C1209 C1190 1.429 . S
C1209 C1203 1.429 . S
C1209 C1210 1.523 . S
C1210 C1191 1.368 . S
C1210 C1204 1.368 . S
C1210 C1209 1.523 . S
C1211 C1195 1.429 . S
C1211 C1207 1.429 . S
C1211 C1212 1.523 1_556 S
C1212 C1196 1.368 . S
C1212 C1208 1.368 . S
C1212 C1211 1.523 1_554 S
H1213 C1188 0.950 . S
H1214 C1190 0.950 . S
H1215 C1191 0.949 . S
H1216 C1193 0.950 . S
H1217 C1195 0.950 . S
C1218 C1219 1.349 . S
C1218 C1220 1.327 . S
C1218 H1243 0.950 . S
C1219 C1218 1.349 . S
C1219 C1235 1.349 . S
C1220 C1218 1.327 . S
C1220 C1239 1.429 . S
C1220 H1244 0.950 . S
C1221 C1238 1.574 . S
C1221 C1240 1.368 . S
C1221 H1245 0.949 . S
H1222 C1226 0.949 . S
C1223 C1224 1.349 . S
C1223 C1225 1.327 . S
C1223 H1246 0.950 . S
C1224 C1223 1.349 . S
C1224 C1236 1.349 . S
C1225 C1223 1.327 . S
C1225 C1241 1.429 . S
C1225 H1247 0.950 . S
C1226 H1222 0.949 . S
C1226 C1234 1.574 . S
C1226 C1242 1.368 . S
H1227 C1235 0.950 . S
H1228 C1233 0.950 . S
H1229 C1234 0.949 . S
H1230 C1236 0.950 . S
H1231 C1237 0.950 . S
H1232 C1238 0.949 . S
C1233 H1228 0.950 . S
C1233 C1235 1.327 . S
C1233 C1239 1.429 . S
C1234 C1226 1.574 . S
C1234 H1229 0.949 . S
C1234 C1240 1.368 . S
C1235 C1219 1.349 . S
C1235 H1227 0.950 . S
C1235 C1233 1.327 . S
C1236 C1224 1.349 . S
C1236 H1230 0.950 . S
C1236 C1237 1.327 . S
C1237 H1231 0.950 . S
C1237 C1236 1.327 . S
C1237 C1241 1.429 . S
C1238 C1221 1.574 . S
C1238 H1232 0.949 . S
C1238 C1242 1.368 . S
C1239 C1220 1.429 . S
C1239 C1233 1.429 . S
C1239 C1240 1.523 . S
C1240 C1221 1.368 . S
C1240 C1234 1.368 . S
C1240 C1239 1.523 . S
C1241 C1225 1.429 . S
C1241 C1237 1.429 . S
C1241 C1242 1.523 . S
C1242 C1226 1.368 . S
C1242 C1238 1.368 . S
C1242 C1241 1.523 . S
H1243 C1218 0.950 . S
H1244 C1220 0.950 . S
H1245 C1221 0.949 . S
H1246 C1223 0.950 . S
H1247 C1225 0.950 . S
C534 C517 0.974 . S
C529 C51 0.967 . S
C559 C125 1.823 . S
C564 C447 1.840 . S
C589 C217 2.419 . S
C594 C466 2.415 . S
C619 C291 2.062 . S
C624 C475 2.094 . S
C654 C489 0.397 . S
C649 C347 0.422 . S
C679 C421 1.118 . S
C684 C508 1.134 . S
C709 C143 2.763 . S
C714 C461 2.789 . S
C739 C199 1.107 . S
C744 C480 1.109 . S
C769 C273 0.874 . S
C774 C494 0.881 . S
C804 C503 1.257 . S
C799 C365 1.255 . S
C834 C522 2.322 . S
C829 C439 2.299 . S
C864 C452 2.041 . S
C859 C69 2.058 . S
C889 C63 1.470 . S
C894 C467 1.523 . S
C919 C137 1.352 . S
C924 C479 1.397 . S
C954 C493 1.373 . S
C949 C187 1.343 . S
C979 C261 1.472 . S
C984 C509 1.531 . S
C1014 C521 1.262 . S
C1009 C359 1.221 . S
C1044 C451 1.190 . S
C1039 C433 1.159 . S
C1074 C523 1.501 . S
C1069 C113 1.507 . S
C1099 C211 1.416 . S
C1104 C453 1.440 . S
C1134 C465 1.492 . S
C1129 C285 1.421 . S
C1159 C335 1.257 . S
C1164 C481 1.261 . S
C1189 C409 1.425 . S
C1194 C495 1.484 . S
C1219 C39 1.762 . S
C1224 C507 1.798 . S
