# Generated by pormake.
# Topology ssb, (4,4)-cn, num edge types: 1
# Building blocks:
#     Node 0, Type 0, BuildingBlock: MIFKUJ_clean_linker_1, # of connection points: 4
#     Node 1, Type 0, BuildingBlock: MIFKUJ_clean_linker_1, # of connection points: 4
#     Node 2, Type 0, BuildingBlock: MIFKUJ_clean_linker_1, # of connection points: 4
#     Node 3, Type 0, BuildingBlock: MIFKUJ_clean_linker_1, # of connection points: 4
#     Node 4, Type 0, BuildingBlock: MIFKUJ_clean_linker_1, # of connection points: 4
#     Node 5, Type 0, BuildingBlock: MIFKUJ_clean_linker_1, # of connection points: 4
#     Node 6, Type 0, BuildingBlock: MIFKUJ_clean_linker_1, # of connection points: 4
#     Node 7, Type 0, BuildingBlock: MIFKUJ_clean_linker_1, # of connection points: 4
#     Node 8, Type 1, BuildingBlock: NAWXER_clean_sbu_0, # of connection points: 4
#     Node 9, Type 1, BuildingBlock: NAWXER_clean_sbu_0, # of connection points: 4
#     Node 10, Type 1, BuildingBlock: NAWXER_clean_sbu_0, # of connection points: 4
#     Node 11, Type 1, BuildingBlock: NAWXER_clean_sbu_0, # of connection points: 4
#     Node 12, Type 1, BuildingBlock: NAWXER_clean_sbu_0, # of connection points: 4
#     Node 13, Type 1, BuildingBlock: NAWXER_clean_sbu_0, # of connection points: 4
#     Node 14, Type 1, BuildingBlock: NAWXER_clean_sbu_0, # of connection points: 4
#     Node 15, Type 1, BuildingBlock: NAWXER_clean_sbu_0, # of connection points: 4
#     Edge 16, Type (0, 1), BuildingBlock: UVAHIK_clean_linker_0, # of connection points: 2
#     Edge 17, Type (0, 1), BuildingBlock: UVAHIK_clean_linker_0, # of connection points: 2
#     Edge 18, Type (0, 1), BuildingBlock: UVAHIK_clean_linker_0, # of connection points: 2
#     Edge 19, Type (0, 1), BuildingBlock: UVAHIK_clean_linker_0, # of connection points: 2
#     Edge 20, Type (0, 1), BuildingBlock: UVAHIK_clean_linker_0, # of connection points: 2
#     Edge 21, Type (0, 1), BuildingBlock: UVAHIK_clean_linker_0, # of connection points: 2
#     Edge 22, Type (0, 1), BuildingBlock: UVAHIK_clean_linker_0, # of connection points: 2
#     Edge 23, Type (0, 1), BuildingBlock: UVAHIK_clean_linker_0, # of connection points: 2
#     Edge 24, Type (0, 1), BuildingBlock: UVAHIK_clean_linker_0, # of connection points: 2
#     Edge 25, Type (0, 1), BuildingBlock: UVAHIK_clean_linker_0, # of connection points: 2
#     Edge 26, Type (0, 1), BuildingBlock: UVAHIK_clean_linker_0, # of connection points: 2
#     Edge 27, Type (0, 1), BuildingBlock: UVAHIK_clean_linker_0, # of connection points: 2
#     Edge 28, Type (0, 1), BuildingBlock: UVAHIK_clean_linker_0, # of connection points: 2
#     Edge 29, Type (0, 1), BuildingBlock: UVAHIK_clean_linker_0, # of connection points: 2
#     Edge 30, Type (0, 1), BuildingBlock: UVAHIK_clean_linker_0, # of connection points: 2
#     Edge 31, Type (0, 1), BuildingBlock: UVAHIK_clean_linker_0, # of connection points: 2
#     Edge 32, Type (0, 1), BuildingBlock: UVAHIK_clean_linker_0, # of connection points: 2
#     Edge 33, Type (0, 1), BuildingBlock: UVAHIK_clean_linker_0, # of connection points: 2
#     Edge 34, Type (0, 1), BuildingBlock: UVAHIK_clean_linker_0, # of connection points: 2
#     Edge 35, Type (0, 1), BuildingBlock: UVAHIK_clean_linker_0, # of connection points: 2
#     Edge 36, Type (0, 1), BuildingBlock: UVAHIK_clean_linker_0, # of connection points: 2
#     Edge 37, Type (0, 1), BuildingBlock: UVAHIK_clean_linker_0, # of connection points: 2
#     Edge 38, Type (0, 1), BuildingBlock: UVAHIK_clean_linker_0, # of connection points: 2
#     Edge 39, Type (0, 1), BuildingBlock: UVAHIK_clean_linker_0, # of connection points: 2
#     Edge 40, Type (0, 1), BuildingBlock: UVAHIK_clean_linker_0, # of connection points: 2
#     Edge 41, Type (0, 1), BuildingBlock: UVAHIK_clean_linker_0, # of connection points: 2
#     Edge 42, Type (0, 1), BuildingBlock: UVAHIK_clean_linker_0, # of connection points: 2
#     Edge 43, Type (0, 1), BuildingBlock: UVAHIK_clean_linker_0, # of connection points: 2
#     Edge 44, Type (0, 1), BuildingBlock: UVAHIK_clean_linker_0, # of connection points: 2
#     Edge 45, Type (0, 1), BuildingBlock: UVAHIK_clean_linker_0, # of connection points: 2
#     Edge 46, Type (0, 1), BuildingBlock: UVAHIK_clean_linker_0, # of connection points: 2
#     Edge 47, Type (0, 1), BuildingBlock: UVAHIK_clean_linker_0, # of connection points: 2
# Relax obj value: 0.000
# Max RMSD: 0.000
# Mean RMSD: 0.000
data_MOF--net-ssb--node1-NAWXER_clean_sbu_0--node2-MIFKUJ_clean_linker_1--edge1-UVAHIK_clean_linker_0
_symmetry_space_group_name_H-M    P1
_symmetry_Int_Tables_number       1
_symmetry_cell_setting            triclinic
loop_
_symmetry_equiv_pos_as_xyz
'x, y, z'
_cell_length_a     67.552318
_cell_length_b     67.58096
_cell_length_c     59.10195
_cell_angle_alpha  89.997897
_cell_angle_beta   90.071893
_cell_angle_gamma 90.006297
loop_
_atom_site_label
_atom_site_type_symbol
_atom_site_fract_x
_atom_site_fract_y
_atom_site_fract_z
_atom_type_partial_charge
H0 H 0.26016 0.20647 0.18376 0.0
H1 H 0.28892 0.20637 0.15866 0.0
H2 H 0.30854 0.26158 0.18806 0.0
H3 H 0.27961 0.2617 0.21279 0.0
H4 H 0.25927 0.20602 0.23016 0.0
H5 H 0.23359 0.24976 0.17055 0.0
H6 H 0.234 0.2786 0.14529 0.0
H7 H 0.24267 0.31695 0.20291 0.0
H8 H 0.24207 0.28813 0.22807 0.0
H9 H 0.20788 0.26024 0.27792 0.0
H10 H 0.18038 0.25847 0.30469 0.0
H11 H 0.16311 0.20201 0.27653 0.0
H12 H 0.19074 0.20383 0.24992 0.0
H13 H 0.2103 0.26071 0.23251 0.0
H14 H 0.23152 0.21972 0.2924 0.0
H15 H 0.22903 0.19269 0.31969 0.0
H16 H 0.23181 0.15029 0.26514 0.0
H17 H 0.23367 0.17745 0.23771 0.0
C18 C 0.26763 0.23419 0.19996 0.0
C19 C 0.27064 0.21857 0.1847 0.0
C20 C 0.28715 0.21849 0.17046 0.0
C21 C 0.30107 0.23397 0.17132 0.0
C22 C 0.29797 0.2496 0.18665 0.0
C23 C 0.28143 0.24969 0.20084 0.0
C24 C 0.25045 0.23387 0.21556 0.0
C25 C 0.24836 0.2178 0.23042 0.0
C26 C 0.23671 0.24963 0.21656 0.0
C27 C 0.23786 0.26685 0.20113 0.0
C28 C 0.2357 0.26438 0.17768 0.0
C29 C 0.23583 0.28083 0.16332 0.0
C30 C 0.23837 0.29997 0.17218 0.0
C31 C 0.24085 0.30235 0.19563 0.0
C32 C 0.24042 0.28594 0.21 0.0
C33 C 0.20147 0.23209 0.26208 0.0
C34 C 0.19805 0.24758 0.27739 0.0
C35 C 0.18231 0.24654 0.29266 0.0
C36 C 0.16961 0.23004 0.29282 0.0
C37 C 0.17282 0.21475 0.27711 0.0
C38 C 0.18855 0.21581 0.26183 0.0
C39 C 0.21887 0.23267 0.24681 0.0
C40 C 0.2211 0.24884 0.23216 0.0
C41 C 0.23295 0.21715 0.24632 0.0
C42 C 0.2324 0.20065 0.26294 0.0
C43 C 0.23133 0.20463 0.28624 0.0
C44 C 0.22992 0.18919 0.30183 0.0
C45 C 0.23004 0.16943 0.29449 0.0
C46 C 0.23171 0.16541 0.27123 0.0
C47 C 0.23281 0.18089 0.25558 0.0
H48 H 0.67823 0.26897 0.26296 0.0
H49 H 0.65112 0.27191 0.23552 0.0
H50 H 0.69355 0.27297 0.18097 0.0
H51 H 0.72051 0.26935 0.20827 0.0
H52 H 0.70625 0.2426 0.2709 0.0
H53 H 0.70579 0.31127 0.2499 0.0
H54 H 0.70494 0.33853 0.22272 0.0
H55 H 0.76074 0.31882 0.19496 0.0
H56 H 0.76158 0.29177 0.22238 0.0
H57 H 0.78882 0.25943 0.27375 0.0
H58 H 0.8174 0.25949 0.29929 0.0
H59 H 0.77837 0.26808 0.35628 0.0
H60 H 0.74977 0.2679 0.3306 0.0
H61 H 0.76179 0.29062 0.26822 0.0
H62 H 0.7619 0.2219 0.28951 0.0
H63 H 0.76142 0.19337 0.31486 0.0
H64 H 0.7057 0.21335 0.3426 0.0
H65 H 0.70619 0.24173 0.31692 0.0
C66 C 0.70144 0.2693 0.23774 0.0
C67 C 0.68168 0.26962 0.24509 0.0
C68 C 0.66623 0.27135 0.22943 0.0
C69 C 0.6703 0.27292 0.20618 0.0
C70 C 0.69004 0.27215 0.19883 0.0
C71 C 0.70543 0.27011 0.21442 0.0
C72 C 0.71794 0.26852 0.25438 0.0
C73 C 0.71823 0.25329 0.27056 0.0
C74 C 0.73374 0.28228 0.25375 0.0
C75 C 0.73368 0.29941 0.23804 0.0
C76 C 0.71784 0.31286 0.23796 0.0
C77 C 0.71734 0.32838 0.22235 0.0
C78 C 0.73273 0.33082 0.20658 0.0
C79 C 0.74876 0.31753 0.20703 0.0
C80 C 0.74926 0.30203 0.22267 0.0
C81 C 0.76721 0.26357 0.30032 0.0
C82 C 0.78643 0.26118 0.29176 0.0
C83 C 0.8027 0.26113 0.30636 0.0
C84 C 0.80008 0.26381 0.32974 0.0
C85 C 0.78081 0.26611 0.3383 0.0
C86 C 0.76449 0.26589 0.32371 0.0
C87 C 0.75016 0.26463 0.28459 0.0
C88 C 0.74974 0.28 0.26865 0.0
C89 C 0.7342 0.25111 0.28563 0.0
C90 C 0.73419 0.23408 0.30149 0.0
C91 C 0.74969 0.22025 0.30122 0.0
C92 C 0.74939 0.20394 0.31576 0.0
C93 C 0.73353 0.20106 0.33083 0.0
C94 C 0.71801 0.21495 0.33102 0.0
C95 C 0.71831 0.23124 0.31644 0.0
H96 H 0.74175 0.79736 0.18344 0.0
H97 H 0.71231 0.79804 0.1597 0.0
H98 H 0.70057 0.73691 0.17684 0.0
H99 H 0.729 0.73698 0.20212 0.0
H100 H 0.7451 0.79416 0.22628 0.0
H101 H 0.7715 0.75311 0.1641 0.0
H102 H 0.77158 0.7247 0.13815 0.0
H103 H 0.76731 0.685 0.19521 0.0
H104 H 0.76729 0.71333 0.22097 0.0
H105 H 0.7983 0.74086 0.2718 0.0
H106 H 0.82522 0.74291 0.29939 0.0
H107 H 0.84102 0.8006 0.27347 0.0
H108 H 0.81394 0.7985 0.24608 0.0
H109 H 0.79661 0.74185 0.22593 0.0
H110 H 0.77354 0.78004 0.28775 0.0
H111 H 0.77549 0.80648 0.31589 0.0
H112 H 0.77129 0.85008 0.2627 0.0
H113 H 0.76996 0.82355 0.23444 0.0
C114 C 0.73787 0.76704 0.1944 0.0
C115 C 0.7328 0.78411 0.18214 0.0
C116 C 0.71601 0.78439 0.16831 0.0
C117 C 0.70395 0.7675 0.16615 0.0
C118 C 0.70923 0.75032 0.17825 0.0
C119 C 0.72581 0.7502 0.19244 0.0
C120 C 0.75512 0.76735 0.21011 0.0
C121 C 0.75654 0.7829 0.22585 0.0
C122 C 0.76968 0.75224 0.21035 0.0
C123 C 0.76928 0.7353 0.19443 0.0
C124 C 0.7705 0.73827 0.17096 0.0
C125 C 0.77066 0.72207 0.1562 0.0
C126 C 0.7694 0.70267 0.16469 0.0
C127 C 0.76809 0.69979 0.18818 0.0
C128 C 0.76818 0.71594 0.20291 0.0
C129 C 0.80402 0.76959 0.25704 0.0
C130 C 0.80771 0.75385 0.27192 0.0
C131 C 0.82312 0.75505 0.28766 0.0
C132 C 0.83522 0.77198 0.28872 0.0
C133 C 0.83177 0.78751 0.27337 0.0
C134 C 0.81637 0.78629 0.25763 0.0
C135 C 0.78676 0.76889 0.24151 0.0
C136 C 0.78526 0.75322 0.22605 0.0
C137 C 0.77199 0.78373 0.24173 0.0
C138 C 0.77198 0.7998 0.25891 0.0
C139 C 0.77326 0.79528 0.28208 0.0
C140 C 0.77437 0.81038 0.29816 0.0
C141 C 0.77373 0.8303 0.29144 0.0
C142 C 0.77179 0.83483 0.26832 0.0
C143 C 0.77099 0.81971 0.2522 0.0
H144 H 0.24184 0.70455 0.32038 0.0
H145 H 0.21332 0.70408 0.34585 0.0
H146 H 0.19322 0.75952 0.31742 0.0
H147 H 0.2219 0.76001 0.29236 0.0
H148 H 0.24225 0.7046 0.27395 0.0
H149 H 0.26832 0.74773 0.33369 0.0
H150 H 0.26827 0.77622 0.35947 0.0
H151 H 0.25915 0.81538 0.30266 0.0
H152 H 0.25934 0.78692 0.277 0.0
H153 H 0.29105 0.76016 0.22542 0.0
H154 H 0.31754 0.75944 0.19732 0.0
H155 H 0.3373 0.70312 0.22366 0.0
H156 H 0.31061 0.70386 0.25157 0.0
H157 H 0.29058 0.75986 0.27112 0.0
H158 H 0.26806 0.71949 0.21113 0.0
H159 H 0.27089 0.69291 0.1833 0.0
H160 H 0.27052 0.64973 0.23713 0.0
H161 H 0.26836 0.67646 0.2651 0.0
C162 C 0.23412 0.73242 0.30467 0.0
C163 C 0.23131 0.71663 0.31974 0.0
C164 C 0.21494 0.71634 0.3342 0.0
C165 C 0.20096 0.73177 0.33373 0.0
C166 C 0.20386 0.74757 0.31856 0.0
C167 C 0.22025 0.74787 0.30418 0.0
C168 C 0.2511 0.73236 0.28879 0.0
C169 C 0.25303 0.71649 0.27359 0.0
C170 C 0.2647 0.74825 0.28771 0.0
C171 C 0.26376 0.76525 0.30348 0.0
C172 C 0.26618 0.76245 0.32685 0.0
C173 C 0.26628 0.7787 0.3415 0.0
C174 C 0.26371 0.79797 0.33303 0.0
C175 C 0.261 0.80068 0.30965 0.0
C176 C 0.26119 0.78447 0.29499 0.0
C177 C 0.29877 0.732 0.24046 0.0
C178 C 0.30121 0.74776 0.22527 0.0
C179 C 0.31638 0.74733 0.20924 0.0
C180 C 0.32951 0.73118 0.20819 0.0
C181 C 0.32726 0.71561 0.22377 0.0
C182 C 0.31207 0.71605 0.23979 0.0
C183 C 0.28191 0.73197 0.25652 0.0
C184 C 0.27992 0.74785 0.2716 0.0
C185 C 0.26805 0.71626 0.25719 0.0
C186 C 0.26842 0.70001 0.24026 0.0
C187 C 0.26881 0.70433 0.21701 0.0
C188 C 0.2704 0.68915 0.20111 0.0
C189 C 0.27112 0.66931 0.20811 0.0
C190 C 0.26998 0.66492 0.23131 0.0
C191 C 0.26871 0.68015 0.24727 0.0
H192 H 0.17527 0.77633 0.7704 0.0
H193 H 0.14821 0.77912 0.74301 0.0
H194 H 0.18925 0.76653 0.68876 0.0
H195 H 0.2162 0.76445 0.71618 0.0
H196 H 0.2026 0.74466 0.77916 0.0
H197 H 0.20263 0.8126 0.7554 0.0
H198 H 0.20164 0.83886 0.727 0.0
H199 H 0.25649 0.81725 0.69866 0.0
H200 H 0.25745 0.7911 0.72728 0.0
H201 H 0.28533 0.76185 0.77974 0.0
H202 H 0.31439 0.76239 0.80449 0.0
H203 H 0.27649 0.77135 0.86239 0.0
H204 H 0.24736 0.77073 0.83747 0.0
H205 H 0.25845 0.79207 0.77362 0.0
H206 H 0.26011 0.72589 0.80074 0.0
H207 H 0.2594 0.69766 0.82621 0.0
H208 H 0.19963 0.71294 0.84579 0.0
H209 H 0.20119 0.74217 0.82183 0.0
C210 C 0.19771 0.77032 0.74527 0.0
C211 C 0.17834 0.77408 0.7526 0.0
C212 C 0.1629 0.77563 0.73691 0.0
C213 C 0.16653 0.77319 0.71361 0.0
C214 C 0.18595 0.76895 0.70647 0.0
C215 C 0.20136 0.76758 0.72213 0.0
C216 C 0.21431 0.76992 0.76166 0.0
C217 C 0.21468 0.7552 0.77837 0.0
C218 C 0.2302 0.78342 0.76002 0.0
C219 C 0.23003 0.7998 0.74332 0.0
C220 C 0.21441 0.8135 0.74302 0.0
C221 C 0.21382 0.82845 0.72672 0.0
C222 C 0.22893 0.8301 0.71048 0.0
C223 C 0.24473 0.81653 0.71107 0.0
C224 C 0.2453 0.80156 0.72738 0.0
C225 C 0.26421 0.76616 0.8068 0.0
C226 C 0.28328 0.76382 0.79778 0.0
C227 C 0.29983 0.76403 0.81193 0.0
C228 C 0.29767 0.7669 0.83535 0.0
C229 C 0.27856 0.76923 0.84438 0.0
C230 C 0.26194 0.76875 0.83022 0.0
C231 C 0.24686 0.76676 0.79144 0.0
C232 C 0.24634 0.78158 0.77479 0.0
C233 C 0.23083 0.7533 0.79329 0.0
C234 C 0.23084 0.73649 0.80959 0.0
C235 C 0.24707 0.72356 0.81104 0.0
C236 C 0.24647 0.70709 0.82533 0.0
C237 C 0.22939 0.70279 0.83808 0.0
C238 C 0.21319 0.71583 0.83663 0.0
C239 C 0.21396 0.73251 0.82268 0.0
H240 H 0.32583 0.27597 0.73212 0.0
H241 H 0.3521 0.27636 0.76087 0.0
H242 H 0.30854 0.26563 0.81288 0.0
H243 H 0.28237 0.26541 0.78413 0.0
H244 H 0.29721 0.24563 0.72186 0.0
H245 H 0.30107 0.31179 0.74946 0.0
H246 H 0.30213 0.33661 0.77921 0.0
H247 H 0.2414 0.32301 0.79647 0.0
H248 H 0.24113 0.29694 0.76803 0.0
H249 H 0.21589 0.26621 0.71945 0.0
H250 H 0.18696 0.26649 0.69453 0.0
H251 H 0.22522 0.27333 0.63656 0.0
H252 H 0.25425 0.27294 0.66168 0.0
H253 H 0.24369 0.29579 0.72488 0.0
H254 H 0.23973 0.22916 0.69911 0.0
H255 H 0.23966 0.20075 0.67391 0.0
H256 H 0.3002 0.21362 0.65512 0.0
H257 H 0.29947 0.24307 0.67883 0.0
C258 C 0.3022 0.27076 0.75605 0.0
C259 C 0.322 0.2736 0.74971 0.0
C260 C 0.33692 0.27397 0.76612 0.0
C261 C 0.3323 0.27109 0.78906 0.0
C262 C 0.31251 0.26779 0.79529 0.0
C263 C 0.29757 0.26771 0.77893 0.0
C264 C 0.28624 0.27148 0.73888 0.0
C265 C 0.28567 0.25679 0.72214 0.0
C266 C 0.27103 0.28585 0.73981 0.0
C267 C 0.27119 0.30209 0.75681 0.0
C268 C 0.28809 0.3139 0.75992 0.0
C269 C 0.28855 0.32839 0.77676 0.0
C270 C 0.27189 0.33186 0.79049 0.0
C271 C 0.25471 0.32051 0.7867 0.0
C272 C 0.25442 0.30573 0.77017 0.0
C273 C 0.23719 0.26947 0.69239 0.0
C274 C 0.21805 0.26771 0.70137 0.0
C275 C 0.20157 0.26777 0.68712 0.0
C276 C 0.20387 0.2699 0.66363 0.0
C277 C 0.22304 0.27177 0.65463 0.0
C278 C 0.2396 0.27144 0.6689 0.0
C279 C 0.25448 0.26977 0.70785 0.0
C280 C 0.25533 0.28474 0.72431 0.0
C281 C 0.26988 0.25556 0.70667 0.0
C282 C 0.26946 0.23861 0.69059 0.0
C283 C 0.25278 0.22627 0.68903 0.0
C284 C 0.25293 0.20969 0.67491 0.0
C285 C 0.26998 0.20466 0.66246 0.0
C286 C 0.28666 0.21709 0.66406 0.0
C287 C 0.28635 0.23389 0.67784 0.0
H288 H 0.74439 0.20297 0.82316 0.0
H289 H 0.7147 0.20234 0.84687 0.0
H290 H 0.69521 0.25722 0.81669 0.0
H291 H 0.72481 0.25763 0.79282 0.0
H292 H 0.74567 0.20207 0.77673 0.0
H293 H 0.76468 0.24688 0.83637 0.0
H294 H 0.76374 0.27606 0.86092 0.0
H295 H 0.76895 0.31388 0.80237 0.0
H296 H 0.76918 0.2848 0.7778 0.0
H297 H 0.79399 0.25699 0.72743 0.0
H298 H 0.82037 0.25615 0.69916 0.0
H299 H 0.8406 0.20024 0.72618 0.0
H300 H 0.81406 0.20111 0.75422 0.0
H301 H 0.79425 0.25706 0.77348 0.0
H302 H 0.76557 0.21728 0.71501 0.0
H303 H 0.76678 0.19133 0.68619 0.0
H304 H 0.77901 0.14792 0.738 0.0
H305 H 0.77773 0.17406 0.76689 0.0
C306 C 0.73688 0.23042 0.80636 0.0
C307 C 0.73376 0.21491 0.82175 0.0
C308 C 0.71685 0.21462 0.83536 0.0
C309 C 0.70262 0.22972 0.83362 0.0
C310 C 0.70583 0.24529 0.81826 0.0
C311 C 0.72281 0.24564 0.80477 0.0
C312 C 0.75432 0.23011 0.79116 0.0
C313 C 0.75646 0.21396 0.77638 0.0
C314 C 0.768 0.246 0.79003 0.0
C315 C 0.76679 0.26357 0.80515 0.0
C316 C 0.76523 0.26143 0.82874 0.0
C317 C 0.76479 0.2781 0.84278 0.0
C318 C 0.76635 0.2972 0.83352 0.0
C319 C 0.76794 0.29932 0.80996 0.0
C320 C 0.76806 0.2827 0.79593 0.0
C321 C 0.80197 0.22905 0.7428 0.0
C322 C 0.80421 0.24463 0.72734 0.0
C323 C 0.81932 0.24414 0.71122 0.0
C324 C 0.83257 0.22808 0.71035 0.0
C325 C 0.83045 0.21264 0.72612 0.0
C326 C 0.81534 0.21315 0.74222 0.0
C327 C 0.78539 0.22918 0.75922 0.0
C328 C 0.78345 0.24519 0.77413 0.0
C329 C 0.77156 0.21353 0.76015 0.0
C330 C 0.77161 0.19755 0.74302 0.0
C331 C 0.76845 0.20216 0.72016 0.0
C332 C 0.76907 0.18733 0.70375 0.0
C333 C 0.77299 0.16763 0.70988 0.0
C334 C 0.7761 0.16302 0.73282 0.0
C335 C 0.77524 0.17786 0.74931 0.0
H336 H 0.75426 0.70378 0.67774 0.0
H337 H 0.7833 0.70332 0.65307 0.0
H338 H 0.80325 0.7583 0.68277 0.0
H339 H 0.77402 0.7588 0.707 0.0
H340 H 0.75325 0.70336 0.72424 0.0
H341 H 0.7285 0.74726 0.6644 0.0
H342 H 0.72918 0.77609 0.63914 0.0
H343 H 0.73677 0.81449 0.69691 0.0
H344 H 0.73598 0.78568 0.72205 0.0
H345 H 0.70307 0.75824 0.77225 0.0
H346 H 0.67617 0.75675 0.79983 0.0
H347 H 0.65765 0.7005 0.77214 0.0
H348 H 0.68468 0.70205 0.74471 0.0
H349 H 0.70477 0.7585 0.72661 0.0
H350 H 0.72631 0.71767 0.78659 0.0
H351 H 0.72289 0.69089 0.81409 0.0
H352 H 0.72422 0.64811 0.75986 0.0
H353 H 0.72699 0.67505 0.73222 0.0
C354 C 0.76186 0.73143 0.69402 0.0
C355 C 0.76486 0.71577 0.67881 0.0
C356 C 0.78154 0.71548 0.66482 0.0
C357 C 0.79565 0.73077 0.6659 0.0
C358 C 0.79254 0.74646 0.68116 0.0
C359 C 0.77583 0.74677 0.69507 0.0
C360 C 0.74462 0.73125 0.70953 0.0
C361 C 0.74245 0.71524 0.72449 0.0
C362 C 0.73101 0.74713 0.71051 0.0
C363 C 0.73228 0.76436 0.69506 0.0
C364 C 0.73044 0.76189 0.67157 0.0
C365 C 0.73069 0.77834 0.6572 0.0
C366 C 0.73302 0.7975 0.66609 0.0
C367 C 0.73512 0.79988 0.68959 0.0
C368 C 0.73459 0.78347 0.70396 0.0
C369 C 0.69598 0.73018 0.75658 0.0
C370 C 0.69308 0.7457 0.77198 0.0
C371 C 0.67768 0.74482 0.78771 0.0
C372 C 0.66483 0.72844 0.78827 0.0
C373 C 0.6675 0.71315 0.77242 0.0
C374 C 0.68287 0.71406 0.75667 0.0
C375 C 0.7132 0.73046 0.74102 0.0
C376 C 0.71547 0.74653 0.72622 0.0
C377 C 0.72713 0.71481 0.74052 0.0
C378 C 0.7265 0.69841 0.75727 0.0
C379 C 0.72566 0.70256 0.78055 0.0
C380 C 0.72373 0.68726 0.79626 0.0
C381 C 0.72309 0.66747 0.78906 0.0
C382 C 0.72469 0.66326 0.76584 0.0
C383 C 0.72631 0.67861 0.75007 0.0
C384 C 0.97792 0.23458 0.53284 0.0
C385 C 0.02272 0.23415 0.46814 0.0
O386 O 0.98249 0.25203 0.52608 0.0
Zn387 Zn 1.00001 0.26545 0.49996 0.0
O388 O 0.98497 0.21962 0.52261 0.0
Zn389 Zn 0.00037 0.23398 0.50051 0.0
O390 O 0.02262 0.24806 0.52089 0.0
O391 O 0.01957 0.28038 0.5168 0.0
O392 O 0.01605 0.21931 0.47893 0.0
O393 O 0.01778 0.25167 0.4743 0.0
O394 O 0.98023 0.27949 0.48247 0.0
O395 O 0.97794 0.24701 0.47948 0.0
C396 C 0.02845 0.26566 0.52554 0.0
C397 C 0.97177 0.26434 0.47414 0.0
C398 C 0.76994 0.02242 0.53198 0.0
C399 C 0.77062 0.97727 0.46746 0.0
O400 O 0.78503 0.0147 0.52263 0.0
Zn401 Zn 0.7708 0.99946 0.50018 0.0
O402 O 0.75255 0.01796 0.52485 0.0
Zn403 Zn 0.73924 0.9997 0.49919 0.0
O404 O 0.72451 0.98005 0.51636 0.0
O405 O 0.75684 0.97741 0.52053 0.0
O406 O 0.75311 0.98227 0.47354 0.0
O407 O 0.78547 0.98369 0.47846 0.0
O408 O 0.75764 0.02233 0.47965 0.0
O409 O 0.72514 0.01915 0.48135 0.0
C410 C 0.73932 0.97143 0.52524 0.0
C411 C 0.74028 0.02826 0.47394 0.0
C412 C 0.97058 0.73788 0.5267 0.0
C413 C 0.02838 0.73836 0.47688 0.0
O414 O 0.97657 0.75534 0.52171 0.0
Zn415 Zn 0.99945 0.76909 0.50229 0.0
O416 O 0.97977 0.72297 0.51883 0.0
Zn417 Zn 0.99956 0.73754 0.50178 0.0
O418 O 0.01723 0.75088 0.52784 0.0
O419 O 0.0143 0.78331 0.52511 0.0
O420 O 0.01922 0.72328 0.48439 0.0
O421 O 0.02242 0.75574 0.48234 0.0
O422 O 0.98446 0.78379 0.48 0.0
O423 O 0.98234 0.75143 0.4757 0.0
C424 C 0.02162 0.76827 0.53495 0.0
C425 C 0.97775 0.76895 0.46922 0.0
C426 C 0.26547 0.02734 0.52716 0.0
C427 C 0.26323 0.97073 0.47576 0.0
O428 O 0.28009 0.01863 0.51801 0.0
Zn429 Zn 0.26491 0.99904 0.50134 0.0
O430 O 0.24781 0.02156 0.52275 0.0
Zn431 Zn 0.23336 0.99974 0.5023 0.0
O432 O 0.21905 0.98437 0.5245 0.0
O433 O 0.2515 0.98157 0.52754 0.0
O434 O 0.24602 0.97714 0.48126 0.0
O435 O 0.27858 0.97905 0.48383 0.0
O436 O 0.25111 0.01667 0.47564 0.0
O437 O 0.21877 0.01583 0.48089 0.0
C438 C 0.23407 0.97712 0.53449 0.0
C439 C 0.23362 0.02197 0.46973 0.0
C440 C 0.47714 0.73558 0.03263 0.0
C441 C 0.52243 0.73417 0.96835 0.0
O442 O 0.48239 0.75289 0.02605 0.0
Zn443 Zn 0.50065 0.76592 0.00035 0.0
O444 O 0.48384 0.72041 0.02248 0.0
Zn445 Zn 0.49998 0.73441 0.00071 0.0
O446 O 0.52235 0.7476 0.02163 0.0
O447 O 0.52061 0.78003 0.01753 0.0
O448 O 0.51537 0.71945 0.97904 0.0
O449 O 0.51797 0.75177 0.97465 0.0
O450 O 0.48139 0.78071 0.98288 0.0
O451 O 0.47806 0.74833 0.97971 0.0
C452 C 0.52875 0.76497 0.02644 0.0
C453 C 0.47245 0.76588 0.97446 0.0
C454 C 0.26768 0.52348 0.03179 0.0
C455 C 0.26628 0.47703 0.96873 0.0
O456 O 0.28221 0.51736 0.0201 0.0
Zn457 Zn 0.26721 0.50078 0.99969 0.0
O458 O 0.25008 0.51785 0.02676 0.0
Zn459 Zn 0.23589 0.49952 0.00189 0.0
O460 O 0.22277 0.48008 0.02041 0.0
O461 O 0.25541 0.47822 0.02187 0.0
O462 O 0.24893 0.48099 0.9763 0.0
O463 O 0.2813 0.48554 0.9773 0.0
O464 O 0.25195 0.52197 0.97922 0.0
O465 O 0.21992 0.5183 0.98506 0.0
C466 C 0.23834 0.4719 0.02811 0.0
C467 C 0.23405 0.52723 0.97525 0.0
C468 C 0.5294 0.23893 0.9753 0.0
C469 C 0.4726 0.24044 0.02653 0.0
O470 O 0.52335 0.25649 0.9797 0.0
Zn471 Zn 0.50076 0.27064 0.99908 0.0
O472 O 0.5205 0.22422 0.98403 0.0
Zn473 Zn 0.50088 0.23915 0.00097 0.0
O474 O 0.48244 0.25148 0.97497 0.0
O475 O 0.48534 0.284 0.97604 0.0
O476 O 0.48174 0.22523 0.01934 0.0
O477 O 0.47827 0.25771 0.02025 0.0
O478 O 0.51616 0.28617 0.02025 0.0
O479 O 0.51827 0.25399 0.02621 0.0
C480 C 0.4778 0.26859 0.96721 0.0
C481 C 0.52292 0.27175 0.03171 0.0
C482 C 0.76181 0.53064 0.02146 0.0
C483 C 0.75955 0.47253 0.97225 0.0
O484 O 0.77628 0.52223 0.01165 0.0
Zn485 Zn 0.76111 0.50191 0.99621 0.0
O486 O 0.74419 0.52418 0.01818 0.0
Zn487 Zn 0.72973 0.50136 0.99919 0.0
O488 O 0.7169 0.48623 0.02264 0.0
O489 O 0.74953 0.48429 0.02362 0.0
O490 O 0.74237 0.47818 0.97887 0.0
O491 O 0.77479 0.48231 0.97815 0.0
O492 O 0.74558 0.51837 0.97091 0.0
O493 O 0.7136 0.51617 0.97796 0.0
C494 C 0.73257 0.47949 0.03175 0.0
C495 C 0.72766 0.52274 0.96582 0.0
C496 C 0.14178 0.24545 0.31471 0.0
C497 C 0.15321 0.2287 0.30947 0.0
C498 C 0.12661 0.24432 0.33069 0.0
C499 C 0.10955 0.21487 0.37947 0.0
H500 H 0.06076 0.24399 0.37008 0.0
C501 C 0.04433 0.21299 0.44333 0.0
C502 C 0.03627 0.23158 0.44869 0.0
C503 C 0.05764 0.211 0.42532 0.0
C504 C 0.07434 0.23584 0.37298 0.0
H505 H 0.15769 0.1976 0.31701 0.0
H506 H 0.13093 0.19553 0.34461 0.0
H507 H 0.08582 0.24356 0.34045 0.0
H508 H 0.03563 0.26259 0.4391 0.0
H509 H 0.05872 0.25911 0.40789 0.0
H510 H 0.09807 0.20734 0.41214 0.0
C511 C 0.13383 0.20959 0.33649 0.0
C512 C 0.08872 0.23563 0.35603 0.0
C513 C 0.14902 0.21073 0.32049 0.0
C514 C 0.04156 0.24804 0.43547 0.0
C515 C 0.0547 0.24603 0.41744 0.0
C516 C 0.09512 0.21504 0.39642 0.0
C517 C 0.12248 0.22639 0.34181 0.0
C518 C 0.10663 0.22542 0.35922 0.0
C519 C 0.06297 0.22753 0.41221 0.0
C520 C 0.0775 0.22581 0.3935 0.0
H521 H 0.14449 0.25947 0.30638 0.0
H522 H 0.11833 0.2576 0.3346 0.0
H523 H 0.12326 0.20703 0.38257 0.0
H524 H 0.04055 0.20002 0.4532 0.0
H525 H 0.06369 0.19652 0.42158 0.0
C526 C 0.75059 0.17693 0.35671 0.0
C527 C 0.73315 0.18358 0.34617 0.0
C528 C 0.7503 0.16041 0.37093 0.0
C529 C 0.72093 0.11573 0.38479 0.0
H530 H 0.75361 0.11558 0.43877 0.0
C531 C 0.71962 0.05229 0.45143 0.0
C532 C 0.73823 0.04593 0.45924 0.0
C533 C 0.71798 0.06924 0.43789 0.0
C534 C 0.7445 0.11534 0.42367 0.0
H535 H 0.70172 0.17789 0.34225 0.0
H536 H 0.70113 0.14937 0.36752 0.0
H537 H 0.75262 0.14494 0.41489 0.0
H538 H 0.76973 0.05239 0.4588 0.0
H539 H 0.76684 0.08175 0.43532 0.0
H540 H 0.71283 0.08605 0.39371 0.0
C541 C 0.71509 0.15681 0.36456 0.0
C542 C 0.74396 0.13216 0.40995 0.0
C543 C 0.71539 0.17332 0.35029 0.0
C544 C 0.75513 0.05684 0.45315 0.0
C545 C 0.75348 0.07379 0.43979 0.0
C546 C 0.7214 0.09891 0.39861 0.0
C547 C 0.73255 0.15014 0.37506 0.0
C548 C 0.73236 0.1325 0.39018 0.0
C549 C 0.7349 0.08025 0.43208 0.0
C550 C 0.73339 0.09845 0.41805 0.0
H551 H 0.76449 0.18458 0.35413 0.0
H552 H 0.76408 0.15555 0.37848 0.0
H553 H 0.712 0.11538 0.36956 0.0
H554 H 0.70631 0.04422 0.45581 0.0
H555 H 0.70344 0.07393 0.43229 0.0
C556 C 0.86297 0.75703 0.31127 0.0
C557 C 0.85118 0.77352 0.30597 0.0
C558 C 0.87767 0.75832 0.32784 0.0
C559 C 0.89273 0.78756 0.37778 0.0
H560 H 0.94233 0.75955 0.36981 0.0
C561 C 0.95647 0.79005 0.44387 0.0
C562 C 0.96461 0.77151 0.44936 0.0
C563 C 0.94354 0.79199 0.42544 0.0
C564 C 0.92852 0.7674 0.37231 0.0
H565 H 0.84557 0.80433 0.31405 0.0
H566 H 0.87156 0.80672 0.34263 0.0
H567 H 0.91806 0.75981 0.33927 0.0
H568 H 0.96579 0.74056 0.43958 0.0
H569 H 0.94341 0.74399 0.40763 0.0
H570 H 0.90323 0.79499 0.41095 0.0
C571 C 0.86929 0.79271 0.33411 0.0
C572 C 0.91458 0.7675 0.35484 0.0
C573 C 0.85455 0.7914 0.31753 0.0
C574 C 0.95979 0.75507 0.43586 0.0
C575 C 0.94705 0.75704 0.41742 0.0
C576 C 0.90673 0.78752 0.39525 0.0
C577 C 0.881 0.77616 0.3395 0.0
C578 C 0.89637 0.77729 0.3575 0.0
C579 C 0.93871 0.77548 0.41204 0.0
C580 C 0.92463 0.77714 0.39283 0.0
H581 H 0.8609 0.74309 0.30254 0.0
H582 H 0.88622 0.74521 0.33176 0.0
H583 H 0.87877 0.79507 0.3805 0.0
H584 H 0.95988 0.803 0.45395 0.0
H585 H 0.9374 0.80642 0.42161 0.0
C586 C 0.24943 0.82993 0.34692 0.0
C587 C 0.26413 0.81529 0.34841 0.0
C588 C 0.24996 0.84643 0.36114 0.0
C589 C 0.28336 0.87749 0.39437 0.0
H590 H 0.23562 0.8933 0.42587 0.0
C591 C 0.28202 0.94194 0.45949 0.0
C592 C 0.26479 0.95354 0.46037 0.0
C593 C 0.28267 0.92491 0.44597 0.0
C594 C 0.24903 0.88932 0.41695 0.0
H595 H 0.29101 0.80649 0.36573 0.0
H596 H 0.29207 0.83555 0.39051 0.0
H597 H 0.23522 0.86395 0.40202 0.0
H598 H 0.23506 0.95693 0.447 0.0
H599 H 0.23641 0.92788 0.42296 0.0
H600 H 0.29707 0.90314 0.40877 0.0
C601 C 0.28011 0.83416 0.37838 0.0
C602 C 0.24879 0.87242 0.40338 0.0
C603 C 0.27942 0.8175 0.36437 0.0
C604 C 0.24848 0.94816 0.44694 0.0
C605 C 0.24921 0.93137 0.43326 0.0
C606 C 0.28355 0.89458 0.40775 0.0
C607 C 0.26535 0.84876 0.37694 0.0
C608 C 0.2659 0.86639 0.39186 0.0
C609 C 0.26616 0.91929 0.43287 0.0
C610 C 0.26632 0.9008 0.4191 0.0
H611 H 0.23743 0.82854 0.33484 0.0
H612 H 0.23847 0.85752 0.35958 0.0
H613 H 0.29673 0.87323 0.38552 0.0
H614 H 0.2948 0.94569 0.46973 0.0
H615 H 0.29592 0.91591 0.44627 0.0
C616 C 0.1536 0.78369 0.67551 0.0
C617 C 0.1502 0.77497 0.69677 0.0
C618 C 0.13854 0.78459 0.65932 0.0
C619 C 0.09109 0.76062 0.64409 0.0
H620 H 0.08757 0.80401 0.60134 0.0
C621 C 0.04574 0.75385 0.56241 0.0
C622 C 0.03538 0.77044 0.55433 0.0
C623 C 0.05877 0.75555 0.58061 0.0
C624 C 0.08816 0.79189 0.61331 0.0
H625 H 0.12802 0.76071 0.71772 0.0
H626 H 0.1016 0.763 0.68987 0.0
H627 H 0.1115 0.80557 0.63217 0.0
H628 H 0.03057 0.80188 0.5591 0.0
H629 H 0.0531 0.8048 0.59135 0.0
H630 H 0.06746 0.74715 0.62564 0.0
C631 C 0.11606 0.76874 0.68549 0.0
C632 C 0.10209 0.79265 0.63083 0.0
C633 C 0.13118 0.76767 0.70162 0.0
C634 C 0.03837 0.78883 0.5649 0.0
C635 C 0.05136 0.79051 0.58331 0.0
C636 C 0.07708 0.75994 0.62672 0.0
C637 C 0.11961 0.77698 0.66401 0.0
C638 C 0.10393 0.77689 0.64626 0.0
C639 C 0.06169 0.77385 0.59142 0.0
C640 C 0.07565 0.77539 0.61087 0.0
H641 H 0.16795 0.7898 0.6713 0.0
H642 H 0.14193 0.79085 0.64291 0.0
H643 H 0.09217 0.74809 0.65544 0.0
H644 H 0.04395 0.73949 0.55454 0.0
H645 H 0.06679 0.7425 0.586 0.0
C646 C 0.2602 0.16921 0.65531 0.0
C647 C 0.27054 0.18628 0.64844 0.0
C648 C 0.26059 0.15202 0.6422 0.0
C649 C 0.28955 0.12421 0.60157 0.0
H650 H 0.2394 0.10117 0.58359 0.0
C651 C 0.28428 0.05744 0.53977 0.0
C652 C 0.26833 0.04434 0.5425 0.0
C653 C 0.28551 0.07466 0.55293 0.0
C654 C 0.25358 0.10711 0.58878 0.0
H655 H 0.28946 0.19836 0.6221 0.0
H656 H 0.29072 0.16798 0.59978 0.0
H657 H 0.23977 0.13119 0.60625 0.0
H658 H 0.24187 0.03825 0.56196 0.0
H659 H 0.24452 0.06747 0.58564 0.0
H660 H 0.30344 0.09981 0.58484 0.0
C661 C 0.28224 0.16813 0.61533 0.0
C662 C 0.25373 0.12443 0.60163 0.0
C663 C 0.28156 0.18549 0.62822 0.0
C664 C 0.25418 0.04826 0.55927 0.0
C665 C 0.25562 0.06516 0.57271 0.0
C666 C 0.28942 0.10662 0.58904 0.0
C667 C 0.27163 0.15131 0.62213 0.0
C668 C 0.27169 0.13312 0.60817 0.0
C669 C 0.271 0.07891 0.56936 0.0
C670 C 0.2714 0.09776 0.58254 0.0
H671 H 0.25196 0.16895 0.671 0.0
H672 H 0.25245 0.13914 0.64791 0.0
H673 H 0.30359 0.13061 0.60655 0.0
H674 H 0.29533 0.05481 0.52686 0.0
H675 H 0.29748 0.08491 0.54967 0.0
C676 C 0.85318 0.2096 0.68195 0.0
C677 C 0.84848 0.22742 0.69301 0.0
C678 C 0.86805 0.20904 0.66552 0.0
C679 C 0.91168 0.23686 0.64479 0.0
H680 H 0.90313 0.20707 0.58954 0.0
C681 C 0.95848 0.24886 0.56484 0.0
C682 C 0.96433 0.23219 0.55229 0.0
C683 C 0.9453 0.24697 0.58286 0.0
C684 C 0.90586 0.21523 0.60501 0.0
H685 H 0.85593 0.25856 0.69564 0.0
H686 H 0.88147 0.25768 0.66664 0.0
H687 H 0.87815 0.20636 0.61934 0.0
H688 H 0.961 0.20041 0.54895 0.0
H689 H 0.93784 0.19711 0.58054 0.0
H690 H 0.9392 0.24602 0.63028 0.0
C691 C 0.87386 0.24407 0.67086 0.0
C692 C 0.89155 0.21483 0.62209 0.0
C693 C 0.85902 0.24463 0.68729 0.0
C694 C 0.95679 0.21353 0.55829 0.0
C695 C 0.94345 0.21165 0.57629 0.0
C696 C 0.92593 0.23731 0.6277 0.0
C697 C 0.87855 0.22627 0.65977 0.0
C698 C 0.89419 0.22583 0.64208 0.0
C699 C 0.93757 0.22838 0.58875 0.0
C700 C 0.92307 0.2267 0.60751 0.0
H701 H 0.84519 0.19612 0.68576 0.0
H702 H 0.8714 0.19505 0.65744 0.0
H703 H 0.91439 0.24517 0.66015 0.0
H704 H 0.96399 0.26347 0.5607 0.0
H705 H 0.94085 0.26017 0.59192 0.0
C706 C 0.74765 0.82969 0.65336 0.0
C707 C 0.73305 0.81503 0.65099 0.0
C708 C 0.74758 0.84636 0.63936 0.0
C709 C 0.7154 0.87771 0.6048 0.0
H710 H 0.76436 0.89389 0.57613 0.0
C711 C 0.71955 0.94279 0.54044 0.0
C712 C 0.73686 0.95432 0.54061 0.0
C713 C 0.71824 0.9257 0.55382 0.0
C714 C 0.7506 0.88981 0.58426 0.0
H715 H 0.7068 0.80641 0.63233 0.0
H716 H 0.70655 0.83574 0.60795 0.0
H717 H 0.76383 0.86434 0.59961 0.0
H718 H 0.76593 0.95756 0.55577 0.0
H719 H 0.7634 0.92843 0.57955 0.0
H720 H 0.70225 0.90347 0.58995 0.0
C721 C 0.71808 0.83425 0.62059 0.0
C722 C 0.75031 0.87279 0.59763 0.0
C723 C 0.71832 0.81742 0.63439 0.0
C724 C 0.75249 0.94884 0.555 0.0
C725 C 0.75109 0.932 0.56853 0.0
C726 C 0.71573 0.89493 0.59162 0.0
C727 C 0.73275 0.84885 0.6229 0.0
C728 C 0.73276 0.86662 0.60815 0.0
C729 C 0.73413 0.91994 0.56781 0.0
C730 C 0.7334 0.9013 0.58132 0.0
H731 H 0.75923 0.82818 0.66593 0.0
H732 H 0.759 0.85744 0.64161 0.0
H733 H 0.70168 0.87334 0.61286 0.0
H734 H 0.70729 0.94662 0.52946 0.0
H735 H 0.705 0.91672 0.55268 0.0
C736 C 0.82371 0.71234 0.64738 0.0
C737 C 0.8137 0.73025 0.65146 0.0
C738 C 0.84094 0.71198 0.63428 0.0
C739 C 0.88165 0.74403 0.61521 0.0
H740 H 0.88956 0.70442 0.56861 0.0
C741 C 0.94241 0.75236 0.5484 0.0
C742 C 0.953 0.73553 0.54144 0.0
C743 C 0.92589 0.75059 0.56236 0.0
C744 C 0.88772 0.7154 0.58178 0.0
H745 H 0.81376 0.76175 0.64435 0.0
H746 H 0.84391 0.76114 0.6218 0.0
H747 H 0.85967 0.70346 0.59187 0.0
H748 H 0.9544 0.70353 0.54369 0.0
H749 H 0.92552 0.70043 0.56845 0.0
H750 H 0.9096 0.75598 0.60531 0.0
C751 C 0.83855 0.7474 0.62898 0.0
C752 C 0.87057 0.71487 0.59507 0.0
C753 C 0.82127 0.74775 0.64194 0.0
C754 C 0.94657 0.71679 0.54874 0.0
C755 C 0.92997 0.71502 0.56283 0.0
C756 C 0.89878 0.7445 0.60206 0.0
C757 C 0.84864 0.72954 0.6251 0.0
C758 C 0.86723 0.72937 0.61169 0.0
C759 C 0.9195 0.73194 0.56989 0.0
C760 C 0.9019 0.7304 0.58492 0.0
H761 H 0.81848 0.69862 0.65471 0.0
H762 H 0.8485 0.69801 0.63177 0.0
H763 H 0.87969 0.75516 0.62821 0.0
H764 H 0.94681 0.76703 0.54299 0.0
H765 H 0.91796 0.76391 0.56703 0.0
C766 C 0.24549 0.85618 0.68688 0.0
C767 C 0.22821 0.84593 0.69303 0.0
C768 C 0.24483 0.8711 0.67054 0.0
C769 C 0.21486 0.88978 0.62275 0.0
H770 H 0.2467 0.93698 0.63106 0.0
C771 C 0.21316 0.95589 0.56002 0.0
C772 C 0.23181 0.96336 0.55382 0.0
C773 C 0.21143 0.94233 0.57783 0.0
C774 C 0.2378 0.92384 0.62844 0.0
H775 H 0.19671 0.84316 0.68656 0.0
H776 H 0.19549 0.86949 0.65835 0.0
H777 H 0.24617 0.91173 0.66048 0.0
H778 H 0.26321 0.96265 0.5617 0.0
H779 H 0.26017 0.93912 0.59256 0.0
H780 H 0.20661 0.90191 0.59059 0.0
C781 C 0.20959 0.86587 0.66605 0.0
C782 C 0.23754 0.90935 0.64527 0.0
C783 C 0.21026 0.85093 0.6824 0.0
C784 C 0.2486 0.95721 0.566 0.0
C785 C 0.24686 0.9438 0.58382 0.0
C786 C 0.21509 0.90433 0.60592 0.0
C787 C 0.22687 0.87615 0.65995 0.0
C788 C 0.22628 0.89201 0.64251 0.0
C789 C 0.22829 0.93613 0.5899 0.0
C790 C 0.22678 0.92139 0.60845 0.0
H791 H 0.25953 0.85283 0.69488 0.0
H792 H 0.25847 0.87852 0.66602 0.0
H793 H 0.20619 0.87652 0.61997 0.0
H794 H 0.19994 0.96033 0.55097 0.0
H795 H 0.1969 0.93677 0.58225 0.0
C796 C 0.18389 0.28527 0.63238 0.0
C797 C 0.18619 0.27036 0.64874 0.0
C798 C 0.16664 0.2863 0.6193 0.0
C799 C 0.11451 0.26827 0.61833 0.0
H800 H 0.11646 0.28389 0.55523 0.0
C801 C 0.05147 0.25297 0.55522 0.0
C802 C 0.04562 0.26843 0.54078 0.0
C803 C 0.06812 0.25496 0.56902 0.0
C804 C 0.11568 0.27974 0.57291 0.0
H805 H 0.17265 0.24441 0.66364 0.0
H806 H 0.14288 0.24576 0.64043 0.0
H807 H 0.14689 0.28339 0.57758 0.0
H808 H 0.0526 0.29817 0.52956 0.0
H809 H 0.08211 0.30149 0.55353 0.0
H810 H 0.0834 0.26394 0.61333 0.0
C811 C 0.15402 0.25711 0.63814 0.0
C812 C 0.13311 0.27947 0.58576 0.0
C813 C 0.17114 0.25623 0.65137 0.0
C814 C 0.05672 0.28603 0.54057 0.0
C815 C 0.07363 0.2879 0.55416 0.0
C816 C 0.09718 0.26831 0.60542 0.0
C817 C 0.15139 0.27231 0.62213 0.0
C818 C 0.13279 0.27349 0.60859 0.0
C819 C 0.07948 0.27235 0.56849 0.0
C820 C 0.09762 0.27385 0.58254 0.0
H821 H 0.19521 0.29646 0.63016 0.0
H822 H 0.16508 0.29834 0.60735 0.0
H823 H 0.11355 0.26409 0.63598 0.0
H824 H 0.04321 0.23924 0.55583 0.0
H825 H 0.07239 0.24268 0.57975 0.0
C826 C 0.75891 0.15092 0.67572 0.0
C827 C 0.77378 0.15204 0.69228 0.0
C828 C 0.75989 0.13673 0.6586 0.0
C829 C 0.7842 0.08944 0.64251 0.0
H830 H 0.76523 0.10413 0.58287 0.0
C831 C 0.79 0.03911 0.56243 0.0
C832 C 0.77209 0.03698 0.55052 0.0
C833 C 0.79168 0.05306 0.57987 0.0
C834 C 0.77055 0.09983 0.59946 0.0
H835 H 0.80133 0.1392 0.70398 0.0
H836 H 0.80333 0.11461 0.67373 0.0
H837 H 0.76555 0.12867 0.61302 0.0
H838 H 0.74198 0.0479 0.54748 0.0
H839 H 0.74506 0.07232 0.57752 0.0
H840 H 0.7894 0.06058 0.62856 0.0
C841 C 0.79068 0.12443 0.67421 0.0
C842 C 0.77062 0.11383 0.6168 0.0
C843 C 0.78957 0.13853 0.69152 0.0
C844 C 0.75598 0.04911 0.55634 0.0
C845 C 0.75775 0.06319 0.57345 0.0
C846 C 0.78434 0.07547 0.62502 0.0
C847 C 0.7759 0.12344 0.65743 0.0
C848 C 0.77708 0.10875 0.63868 0.0
C849 C 0.7756 0.06534 0.58538 0.0
C850 C 0.77717 0.08045 0.60345 0.0
H851 H 0.74642 0.16096 0.6761 0.0
H852 H 0.74797 0.13611 0.64636 0.0
H853 H 0.78912 0.08493 0.65917 0.0
H854 H 0.80266 0.02994 0.55836 0.0
H855 H 0.80562 0.05449 0.5888 0.0
C856 C 0.8326 0.25047 0.34328 0.0
C857 C 0.8175 0.26466 0.345 0.0
C858 C 0.84936 0.25164 0.35708 0.0
C859 C 0.86866 0.27525 0.40961 0.0
H860 H 0.91923 0.25898 0.38479 0.0
C861 C 0.94358 0.2838 0.45743 0.0
C862 C 0.95484 0.26633 0.4584 0.0
C863 C 0.92703 0.28502 0.44318 0.0
C864 C 0.90519 0.26355 0.39194 0.0
H865 H 0.80811 0.29125 0.36239 0.0
H866 H 0.83759 0.29364 0.38614 0.0
H867 H 0.88983 0.25839 0.36089 0.0
H868 H 0.95789 0.23665 0.44481 0.0
H869 H 0.92934 0.23896 0.41974 0.0
H870 H 0.88431 0.28065 0.44061 0.0
C871 C 0.83633 0.2813 0.37454 0.0
C872 C 0.88829 0.26309 0.37831 0.0
C873 C 0.81944 0.27998 0.3609 0.0
C874 C 0.94949 0.2503 0.44452 0.0
C875 C 0.93321 0.25165 0.43006 0.0
C876 C 0.88565 0.27595 0.42316 0.0
C877 C 0.85157 0.26719 0.37275 0.0
C878 C 0.86973 0.26863 0.38704 0.0
C879 C 0.92171 0.26894 0.42936 0.0
C880 C 0.90401 0.26982 0.41454 0.0
H881 H 0.83137 0.23836 0.33135 0.0
H882 H 0.86052 0.24022 0.35556 0.0
H883 H 0.85463 0.2794 0.41704 0.0
H884 H 0.94732 0.29636 0.46799 0.0
H885 H 0.91844 0.29855 0.44287 0.0
C886 C 0.78941 0.84576 0.32561 0.0
C887 C 0.77488 0.84628 0.30857 0.0
C888 C 0.79017 0.86058 0.34211 0.0
C889 C 0.75864 0.89603 0.37133 0.0
H890 H 0.80745 0.92272 0.38765 0.0
C891 C 0.75768 0.96197 0.43208 0.0
C892 C 0.77304 0.96378 0.44797 0.0
C893 C 0.75897 0.94831 0.41447 0.0
C894 C 0.79374 0.91523 0.38353 0.0
H895 H 0.74982 0.86263 0.29536 0.0
H896 H 0.75099 0.8884 0.32439 0.0
H897 H 0.80773 0.89731 0.35818 0.0
H898 H 0.80203 0.95298 0.45763 0.0
H899 H 0.80408 0.92853 0.42719 0.0
H900 H 0.74465 0.9133 0.39693 0.0
C901 C 0.76182 0.87659 0.32491 0.0
C902 C 0.79391 0.90074 0.3666 0.0
C903 C 0.76123 0.86194 0.30824 0.0
C904 C 0.79 0.95194 0.44556 0.0
C905 C 0.79118 0.93799 0.42806 0.0
C906 C 0.7585 0.91028 0.38841 0.0
C907 C 0.77624 0.87601 0.34206 0.0
C908 C 0.77631 0.89115 0.36021 0.0
C909 C 0.77552 0.9358 0.41248 0.0
C910 C 0.776 0.92025 0.3946 0.0
H911 H 0.80021 0.83392 0.32613 0.0
H912 H 0.80137 0.85972 0.35522 0.0
H913 H 0.74493 0.8886 0.36703 0.0
H914 H 0.74453 0.97109 0.43329 0.0
H915 H 0.74688 0.94751 0.40246 0.0
C916 C 0.17619 0.7488 0.35877 0.0
C917 C 0.18327 0.73132 0.34873 0.0
C918 C 0.15922 0.74853 0.37226 0.0
C919 C 0.12743 0.71594 0.40647 0.0
H920 H 0.08883 0.75777 0.39816 0.0
C921 C 0.0521 0.71764 0.45405 0.0
C922 C 0.04587 0.73625 0.46195 0.0
C923 C 0.06856 0.71606 0.43973 0.0
C924 C 0.09954 0.74608 0.40088 0.0
H925 H 0.17797 0.6998 0.34512 0.0
H926 H 0.14848 0.69932 0.36895 0.0
H927 H 0.11829 0.75696 0.37453 0.0
H928 H 0.05228 0.76774 0.46125 0.0
H929 H 0.08091 0.76493 0.43679 0.0
H930 H 0.10877 0.70523 0.43309 0.0
C931 C 0.15618 0.71321 0.36645 0.0
C932 C 0.11643 0.74562 0.3873 0.0
C933 C 0.17311 0.71349 0.35283 0.0
C934 C 0.05653 0.75317 0.45537 0.0
C935 C 0.07292 0.75158 0.44118 0.0
C936 C 0.11054 0.71645 0.42016 0.0
C937 C 0.14896 0.73076 0.37615 0.0
C938 C 0.13068 0.73068 0.3901 0.0
C939 C 0.0791 0.73305 0.43304 0.0
C940 C 0.0965 0.73168 0.4177 0.0
H941 H 0.18384 0.76272 0.35635 0.0
H942 H 0.15423 0.76224 0.37983 0.0
H943 H 0.13822 0.70431 0.40912 0.0
H944 H 0.0442 0.70433 0.45878 0.0
H945 H 0.07283 0.70157 0.43363 0.0
C946 C 0.24215 0.13725 0.31029 0.0
C947 C 0.22874 0.15311 0.31115 0.0
C948 C 0.24158 0.12237 0.3267 0.0
C949 C 0.20992 0.09822 0.36874 0.0
H950 H 0.25949 0.08523 0.3983 0.0
C951 C 0.21434 0.04742 0.4479 0.0
C952 C 0.2312 0.03542 0.45021 0.0
C953 C 0.21311 0.06125 0.4303 0.0
C954 C 0.24555 0.08837 0.39 0.0
H955 H 0.20383 0.16556 0.32932 0.0
H956 H 0.2027 0.13936 0.35793 0.0
H957 H 0.25901 0.10991 0.36839 0.0
H958 H 0.25946 0.0277 0.43527 0.0
H959 H 0.25701 0.0511 0.40425 0.0
H960 H 0.19648 0.0764 0.39003 0.0
C961 C 0.21369 0.13852 0.34463 0.0
C962 C 0.24529 0.1026 0.3729 0.0
C963 C 0.21443 0.15355 0.32839 0.0
C964 C 0.2464 0.03696 0.43413 0.0
C965 C 0.24505 0.05051 0.41641 0.0
C966 C 0.2102 0.08375 0.38568 0.0
C967 C 0.22743 0.12293 0.3441 0.0
C968 C 0.22751 0.10766 0.36209 0.0
C969 C 0.2286 0.06316 0.41451 0.0
C970 C 0.22805 0.07859 0.3965 0.0
H971 H 0.25339 0.13661 0.29726 0.0
H972 H 0.25225 0.11044 0.32583 0.0
H973 H 0.19601 0.1018 0.36056 0.0
H974 H 0.20243 0.04659 0.46011 0.0
H975 H 0.20029 0.07084 0.42951 0.0
C976 C 0.64483 0.70926 0.81661 0.0
C977 C 0.64888 0.72721 0.8055 0.0
C978 C 0.63009 0.70822 0.83317 0.0
C979 C 0.58582 0.73471 0.85441 0.0
H980 H 0.59631 0.70614 0.91007 0.0
C981 C 0.54113 0.7478 0.93545 0.0
C982 C 0.53571 0.73139 0.94869 0.0
C983 C 0.55385 0.74558 0.91707 0.0
C984 C 0.59304 0.71392 0.89449 0.0
H985 H 0.64039 0.75807 0.80283 0.0
H986 H 0.61504 0.75639 0.832 0.0
H987 H 0.62068 0.70556 0.87959 0.0
H988 H 0.53937 0.69972 0.95291 0.0
H989 H 0.56181 0.69587 0.92067 0.0
H990 H 0.55841 0.74345 0.8695 0.0
C991 C 0.62306 0.74303 0.82775 0.0
C992 C 0.60699 0.7136 0.87702 0.0
C993 C 0.63777 0.74406 0.81121 0.0
C994 C 0.54327 0.71265 0.94304 0.0
C995 C 0.55617 0.71045 0.92466 0.0
C996 C 0.57193 0.73509 0.87187 0.0
C997 C 0.61906 0.72511 0.83896 0.0
C998 C 0.60368 0.72426 0.85691 0.0
C999 C 0.56156 0.72692 0.91148 0.0
C1000 C 0.57553 0.72497 0.89224 0.0
H1001 H 0.65327 0.69605 0.81278 0.0
H1002 H 0.62728 0.69416 0.84135 0.0
H1003 H 0.5826 0.74273 0.83897 0.0
H1004 H 0.5356 0.76246 0.93929 0.0
H1005 H 0.55795 0.7586 0.90747 0.0
C1006 C 0.23773 0.66697 0.84527 0.0
C1007 C 0.22823 0.68448 0.8522 0.0
C1008 C 0.23649 0.64975 0.85827 0.0
C1009 C 0.2231 0.6317 0.91598 0.0
H1010 H 0.22479 0.58064 0.88608 0.0
C1011 C 0.21379 0.55633 0.96258 0.0
C1012 C 0.23029 0.54393 0.95971 0.0
C1013 C 0.21146 0.57317 0.94901 0.0
C1014 C 0.22423 0.59483 0.89461 0.0
H1015 H 0.21003 0.69737 0.87863 0.0
H1016 H 0.20689 0.66715 0.9005 0.0
H1017 H 0.2244 0.61079 0.86344 0.0
H1018 H 0.2568 0.53888 0.93988 0.0
H1019 H 0.25231 0.56787 0.91571 0.0
H1020 H 0.22248 0.61543 0.94716 0.0
C1021 C 0.21579 0.66684 0.88529 0.0
C1022 C 0.22421 0.61215 0.88168 0.0
C1023 C 0.21734 0.68418 0.87248 0.0
C1024 C 0.24398 0.54823 0.94251 0.0
C1025 C 0.24139 0.56474 0.92864 0.0
C1026 C 0.22272 0.61435 0.92887 0.0
C1027 C 0.22538 0.64936 0.8784 0.0
C1028 C 0.22405 0.63087 0.89218 0.0
C1029 C 0.2253 0.57753 0.93199 0.0
C1030 C 0.22362 0.59579 0.9183 0.0
H1031 H 0.24599 0.6664 0.8296 0.0
H1032 H 0.24444 0.63679 0.85253 0.0
H1033 H 0.22328 0.64575 0.92479 0.0
H1034 H 0.20309 0.5534 0.9758 0.0
H1035 H 0.19891 0.58284 0.95185 0.0
C1036 C 0.34928 0.25642 0.82278 0.0
C1037 C 0.34806 0.27152 0.80651 0.0
C1038 C 0.36411 0.25679 0.83927 0.0
C1039 C 0.39685 0.2898 0.87063 0.0
H1040 H 0.42754 0.24231 0.88171 0.0
C1041 C 0.46128 0.28754 0.93577 0.0
C1042 C 0.46346 0.27002 0.94832 0.0
C1043 C 0.44789 0.28842 0.91766 0.0
C1044 C 0.41895 0.25564 0.87909 0.0
H1045 H 0.36112 0.29897 0.79488 0.0
H1046 H 0.38696 0.29977 0.82403 0.0
H1047 H 0.40264 0.24245 0.85191 0.0
H1048 H 0.45292 0.23988 0.95214 0.0
H1049 H 0.42929 0.24158 0.92133 0.0
H1050 H 0.41266 0.30284 0.89828 0.0
C1051 C 0.37651 0.28761 0.82387 0.0
C1052 C 0.40475 0.25572 0.86192 0.0
C1053 C 0.36185 0.28708 0.80714 0.0
C1054 C 0.45179 0.25354 0.94264 0.0
C1055 C 0.4383 0.25448 0.92481 0.0
C1056 C 0.4109 0.28966 0.88805 0.0
C1057 C 0.37783 0.27241 0.84002 0.0
C1058 C 0.39345 0.27273 0.85764 0.0
C1059 C 0.43627 0.27185 0.91191 0.0
C1060 C 0.422 0.2725 0.89266 0.0
H1061 H 0.33889 0.24422 0.8226 0.0
H1062 H 0.36471 0.24497 0.85163 0.0
H1063 H 0.38822 0.30308 0.86775 0.0
H1064 H 0.47011 0.30047 0.9397 0.0
H1065 H 0.44688 0.30199 0.90798 0.0
C1066 C 0.78094 0.32967 0.84542 0.0
C1067 C 0.76651 0.3149 0.84833 0.0
C1068 C 0.78092 0.34656 0.85908 0.0
C1069 C 0.74804 0.37791 0.89224 0.0
H1070 H 0.79582 0.39632 0.92199 0.0
C1071 C 0.74544 0.44105 0.95719 0.0
C1072 C 0.76128 0.45449 0.95818 0.0
C1073 C 0.74667 0.42404 0.94389 0.0
C1074 C 0.7824 0.3916 0.91353 0.0
H1075 H 0.74077 0.30619 0.86773 0.0
H1076 H 0.74054 0.33592 0.89143 0.0
H1077 H 0.79689 0.36659 0.89853 0.0
H1078 H 0.79088 0.46063 0.94598 0.0
H1079 H 0.79283 0.4312 0.92206 0.0
H1080 H 0.73358 0.40304 0.90652 0.0
C1081 C 0.7519 0.33434 0.87865 0.0
C1082 C 0.78302 0.3745 0.90019 0.0
C1083 C 0.7521 0.31731 0.86522 0.0
C1084 C 0.77846 0.4505 0.94561 0.0
C1085 C 0.7796 0.43356 0.932 0.0
C1086 C 0.74747 0.39513 0.90528 0.0
C1087 C 0.76629 0.34915 0.87568 0.0
C1088 C 0.7658 0.3674 0.88959 0.0
C1089 C 0.76367 0.42012 0.93091 0.0
C1090 C 0.76458 0.40212 0.91632 0.0
H1091 H 0.7923 0.32811 0.83262 0.0
H1092 H 0.79212 0.35779 0.85636 0.0
H1093 H 0.73462 0.37295 0.88394 0.0
H1094 H 0.73208 0.44354 0.96689 0.0
H1095 H 0.7343 0.41385 0.94401 0.0
C1096 C 0.63746 0.26286 0.19015 0.0
C1097 C 0.65404 0.27536 0.18956 0.0
C1098 C 0.62246 0.26473 0.17399 0.0
C1099 C 0.61269 0.28571 0.11688 0.0
H1100 H 0.55826 0.27358 0.13237 0.0
C1101 C 0.54753 0.29246 0.05308 0.0
C1102 C 0.53627 0.27505 0.05118 0.0
C1103 C 0.56114 0.29469 0.07081 0.0
C1104 C 0.5734 0.27704 0.12784 0.0
H1105 H 0.66769 0.30002 0.17215 0.0
H1106 H 0.64126 0.30376 0.14432 0.0
H1107 H 0.5835 0.27364 0.1619 0.0
H1108 H 0.52986 0.24669 0.06674 0.0
H1109 H 0.55323 0.2508 0.09782 0.0
H1110 H 0.60237 0.28925 0.08279 0.0
C1111 C 0.64004 0.29209 0.1568 0.0
C1112 C 0.58792 0.27695 0.14471 0.0
C1113 C 0.65517 0.29003 0.17278 0.0
C1114 C 0.5384 0.26024 0.06769 0.0
C1115 C 0.55168 0.26262 0.08557 0.0
C1116 C 0.5981 0.28608 0.10008 0.0
C1117 C 0.62355 0.27935 0.15704 0.0
C1118 C 0.60783 0.28091 0.13939 0.0
C1119 C 0.56337 0.27974 0.08716 0.0
C1120 C 0.57839 0.2814 0.10534 0.0
H1121 H 0.63634 0.25129 0.20278 0.0
H1122 H 0.61024 0.25438 0.1745 0.0
H1123 H 0.62787 0.28855 0.11201 0.0
H1124 H 0.54623 0.30409 0.04055 0.0
H1125 H 0.56995 0.30806 0.07173 0.0
C1126 C 0.78383 0.68379 0.13202 0.0
C1127 C 0.7696 0.68536 0.14924 0.0
C1128 C 0.78457 0.66695 0.11826 0.0
C1129 C 0.76733 0.61459 0.11629 0.0
H1130 H 0.77997 0.61867 0.05247 0.0
C1131 C 0.75001 0.55309 0.05211 0.0
C1132 C 0.76489 0.54777 0.03666 0.0
C1133 C 0.75236 0.56949 0.06619 0.0
C1134 C 0.77666 0.6173 0.07033 0.0
H1135 H 0.74454 0.67094 0.16502 0.0
H1136 H 0.74539 0.64189 0.1407 0.0
H1137 H 0.78008 0.6484 0.076 0.0
H1138 H 0.79394 0.55552 0.02385 0.0
H1139 H 0.79788 0.58462 0.04834 0.0
H1140 H 0.76322 0.5836 0.11037 0.0
C1141 C 0.75644 0.65328 0.13821 0.0
C1142 C 0.77674 0.63432 0.08385 0.0
C1143 C 0.75586 0.66999 0.15209 0.0
C1144 C 0.78225 0.55923 0.03564 0.0
C1145 C 0.78446 0.5759 0.04954 0.0
C1146 C 0.76702 0.59767 0.10274 0.0
C1147 C 0.77096 0.65139 0.12127 0.0
C1148 C 0.77183 0.63322 0.10697 0.0
C1149 C 0.76953 0.58114 0.06497 0.0
C1150 C 0.77146 0.59888 0.07958 0.0
H1151 H 0.79472 0.69536 0.12959 0.0
H1152 H 0.7961 0.66595 0.1056 0.0
H1153 H 0.76399 0.61303 0.13412 0.0
H1154 H 0.73649 0.54455 0.05337 0.0
H1155 H 0.74054 0.57329 0.07777 0.0
C1156 C 0.34975 0.7128 0.17934 0.0
C1157 C 0.34531 0.73053 0.19073 0.0
C1158 C 0.36424 0.71237 0.16246 0.0
C1159 C 0.38994 0.74495 0.12223 0.0
H1160 H 0.42865 0.70267 0.11882 0.0
C1161 C 0.45724 0.75056 0.06379 0.0
C1162 C 0.46292 0.73366 0.05155 0.0
C1163 C 0.44312 0.74927 0.0809 0.0
C1164 C 0.41779 0.71444 0.11938 0.0
H1165 H 0.35307 0.76157 0.19375 0.0
H1166 H 0.37819 0.76084 0.16423 0.0
H1167 H 0.40346 0.7021 0.14849 0.0
H1168 H 0.45847 0.70203 0.04802 0.0
H1169 H 0.4335 0.69981 0.07787 0.0
H1170 H 0.40408 0.75728 0.09316 0.0
C1171 C 0.37026 0.74733 0.16813 0.0
C1172 C 0.40339 0.71413 0.13638 0.0
C1173 C 0.35586 0.74775 0.18503 0.0
C1174 C 0.45442 0.71532 0.05716 0.0
C1175 C 0.44017 0.71404 0.0743 0.0
C1176 C 0.40425 0.74523 0.10523 0.0
C1177 C 0.37453 0.72968 0.15654 0.0
C1178 C 0.38945 0.72951 0.13812 0.0
C1179 C 0.43419 0.73106 0.08617 0.0
C1180 C 0.4185 0.73012 0.10375 0.0
H1181 H 0.34171 0.69933 0.1831 0.0
H1182 H 0.36705 0.69859 0.15367 0.0
H1183 H 0.37915 0.75679 0.12283 0.0
H1184 H 0.46362 0.76491 0.06009 0.0
H1185 H 0.43919 0.7626 0.09003 0.0
C1186 C 0.22271 0.31994 0.14125 0.0
C1187 C 0.238 0.3175 0.15712 0.0
C1188 C 0.22192 0.33687 0.12766 0.0
C1189 C 0.24199 0.38815 0.12361 0.0
H1190 H 0.22309 0.38457 0.06175 0.0
C1191 C 0.25356 0.44954 0.05696 0.0
C1192 C 0.23703 0.45497 0.0439 0.0
C1193 C 0.2527 0.43321 0.07141 0.0
C1194 C 0.22822 0.3858 0.07907 0.0
H1195 H 0.26472 0.3305 0.17086 0.0
H1196 H 0.26383 0.35969 0.14665 0.0
H1197 H 0.22407 0.35491 0.08525 0.0
H1198 H 0.20661 0.44755 0.03576 0.0
H1199 H 0.20527 0.41866 0.06078 0.0
H1200 H 0.24677 0.41897 0.117 0.0
C1201 C 0.25203 0.34893 0.14512 0.0
C1202 C 0.22873 0.36883 0.0926 0.0
C1203 C 0.25265 0.33214 0.15891 0.0
C1204 C 0.21956 0.44376 0.04567 0.0
C1205 C 0.21882 0.42719 0.05986 0.0
C1206 C 0.24173 0.40504 0.10997 0.0
C1207 C 0.23656 0.35162 0.12943 0.0
C1208 C 0.2357 0.36975 0.11505 0.0
C1209 C 0.2354 0.42177 0.07285 0.0
C1210 C 0.2349 0.40402 0.08756 0.0
H1211 H 0.21109 0.30897 0.13973 0.0
H1212 H 0.20959 0.33852 0.11609 0.0
H1213 H 0.24702 0.3896 0.14093 0.0
H1214 H 0.26721 0.45791 0.05603 0.0
H1215 H 0.26574 0.42926 0.0811 0.0
C1216 C 0.32591 0.25129 0.14663 0.0
C1217 C 0.31887 0.23372 0.15651 0.0
C1218 C 0.34286 0.25115 0.13311 0.0
C1219 C 0.37445 0.21863 0.09854 0.0
H1220 H 0.41301 0.2606 0.1062 0.0
C1221 C 0.44928 0.22004 0.05021 0.0
C1222 C 0.45541 0.23856 0.04194 0.0
C1223 C 0.43302 0.21861 0.06482 0.0
C1224 C 0.40231 0.24888 0.10367 0.0
H1225 H 0.3243 0.2022 0.15993 0.0
H1226 H 0.35377 0.20196 0.1361 0.0
H1227 H 0.38374 0.2598 0.13017 0.0
H1228 H 0.44908 0.27006 0.04238 0.0
H1229 H 0.42075 0.26751 0.06738 0.0
H1230 H 0.39292 0.20787 0.07179 0.0
C1231 C 0.34603 0.21581 0.13871 0.0
C1232 C 0.38553 0.24842 0.11743 0.0
C1233 C 0.32912 0.21596 0.15232 0.0
C1234 C 0.44488 0.25555 0.04852 0.0
C1235 C 0.42867 0.25412 0.06301 0.0
C1236 C 0.39123 0.21913 0.08468 0.0
C1237 C 0.35316 0.23342 0.12906 0.0
C1238 C 0.37131 0.23342 0.11489 0.0
C1239 C 0.42256 0.23566 0.07144 0.0
C1240 C 0.40525 0.23439 0.08692 0.0
H1241 H 0.3182 0.26516 0.14914 0.0
H1242 H 0.34778 0.26491 0.1256 0.0
H1243 H 0.36367 0.20696 0.09605 0.0
H1244 H 0.45709 0.20667 0.0455 0.0
H1245 H 0.42881 0.20417 0.07115 0.0
C1246 C 0.74922 0.35745 0.1837 0.0
C1247 C 0.73197 0.34699 0.18953 0.0
C1248 C 0.74866 0.37224 0.1672 0.0
C1249 C 0.71512 0.40635 0.13714 0.0
H1250 H 0.7571 0.4073 0.09249 0.0
C1251 C 0.71347 0.45727 0.05797 0.0
C1252 C 0.73156 0.46561 0.05111 0.0
C1253 C 0.71294 0.44322 0.07538 0.0
C1254 C 0.74539 0.40744 0.10499 0.0
H1255 H 0.70058 0.34392 0.1825 0.0
H1256 H 0.6996 0.3699 0.15383 0.0
H1257 H 0.75733 0.38213 0.12191 0.0
H1258 H 0.76317 0.46627 0.05772 0.0
H1259 H 0.76218 0.44219 0.0882 0.0
H1260 H 0.70325 0.43178 0.12025 0.0
C1261 C 0.71351 0.36675 0.16221 0.0
C1262 C 0.74552 0.39297 0.12184 0.0
C1263 C 0.71408 0.35188 0.17867 0.0
C1264 C 0.749 0.46001 0.06241 0.0
C1265 C 0.74845 0.44608 0.07983 0.0
C1266 C 0.71503 0.42091 0.1203 0.0
C1267 C 0.73083 0.37698 0.15618 0.0
C1268 C 0.73045 0.3923 0.13817 0.0
C1269 C 0.73048 0.43729 0.08632 0.0
C1270 C 0.73024 0.42169 0.10409 0.0
H1271 H 0.76317 0.35431 0.19201 0.0
H1272 H 0.76219 0.38008 0.16319 0.0
H1273 H 0.70339 0.40632 0.14962 0.0
H1274 H 0.69978 0.46125 0.04957 0.0
H1275 H 0.69887 0.43663 0.07984 0.0
C1276 C 0.66881 0.75705 0.15792 0.0
C1277 C 0.68576 0.76793 0.15174 0.0
C1278 C 0.65181 0.75739 0.14443 0.0
C1279 C 0.62414 0.78698 0.10419 0.0
H1280 H 0.60216 0.73711 0.08374 0.0
C1281 C 0.55885 0.7831 0.04034 0.0
C1282 C 0.54575 0.76704 0.04202 0.0
C1283 C 0.57583 0.78392 0.05394 0.0
C1284 C 0.60779 0.7512 0.08961 0.0
H1285 H 0.69784 0.78766 0.12619 0.0
H1286 H 0.66779 0.78883 0.10327 0.0
H1287 H 0.6317 0.73721 0.10732 0.0
H1288 H 0.53952 0.73981 0.06 0.0
H1289 H 0.56835 0.7417 0.08446 0.0
H1290 H 0.59992 0.80104 0.08726 0.0
C1291 C 0.66788 0.78 0.11857 0.0
C1292 C 0.62484 0.75121 0.103 0.0
C1293 C 0.68505 0.77937 0.13181 0.0
C1294 C 0.54951 0.75225 0.05812 0.0
C1295 C 0.56619 0.75326 0.07201 0.0
C1296 C 0.60682 0.78699 0.09115 0.0
C1297 C 0.65117 0.76891 0.1247 0.0
C1298 C 0.63317 0.76907 0.11039 0.0
C1299 C 0.57986 0.76887 0.06982 0.0
C1300 C 0.59837 0.76907 0.08369 0.0
H1301 H 0.66851 0.74844 0.17336 0.0
H1302 H 0.63902 0.74886 0.14961 0.0
H1303 H 0.63025 0.80096 0.10985 0.0
H1304 H 0.55635 0.79465 0.02795 0.0
H1305 H 0.58605 0.79607 0.05151 0.0
C1306 C 0.26037 0.63687 0.19172 0.0
C1307 C 0.27306 0.65329 0.19115 0.0
C1308 C 0.26175 0.62211 0.17523 0.0
C1309 C 0.28156 0.61303 0.11748 0.0
H1310 H 0.26944 0.55845 0.13228 0.0
C1311 C 0.28796 0.54859 0.05289 0.0
C1312 C 0.27071 0.53707 0.05108 0.0
C1313 C 0.29011 0.56215 0.07064 0.0
C1314 C 0.27287 0.57365 0.12794 0.0
H1315 H 0.29756 0.66693 0.17343 0.0
H1316 H 0.30045 0.64092 0.14502 0.0
H1317 H 0.27004 0.58327 0.16222 0.0
H1318 H 0.24249 0.53026 0.06677 0.0
H1319 H 0.24646 0.5536 0.09788 0.0
H1320 H 0.28458 0.60318 0.08317 0.0
C1321 C 0.289 0.63964 0.15774 0.0
C1322 C 0.27309 0.58791 0.14505 0.0
C1323 C 0.28742 0.65452 0.17406 0.0
C1324 C 0.25592 0.53899 0.06765 0.0
C1325 C 0.25823 0.55225 0.08554 0.0
C1326 C 0.28161 0.59869 0.10043 0.0
C1327 C 0.27606 0.62331 0.15797 0.0
C1328 C 0.27711 0.60787 0.14 0.0
C1329 C 0.27524 0.56411 0.08709 0.0
C1330 C 0.27696 0.57893 0.10545 0.0
H1331 H 0.24903 0.63568 0.2046 0.0
H1332 H 0.25126 0.61001 0.17575 0.0
H1333 H 0.28442 0.62825 0.11282 0.0
H1334 H 0.29957 0.54745 0.04034 0.0
H1335 H 0.3034 0.57109 0.07153 0.0
C1336 C 0.3305 0.75365 0.84795 0.0
C1337 C 0.31542 0.76781 0.85011 0.0
C1338 C 0.34763 0.75491 0.86113 0.0
C1339 C 0.36838 0.77862 0.91282 0.0
H1340 H 0.41819 0.76241 0.88605 0.0
C1341 C 0.44444 0.78606 0.95849 0.0
C1342 C 0.45548 0.76843 0.95889 0.0
C1343 C 0.42766 0.7877 0.94464 0.0
C1344 C 0.40438 0.76698 0.89374 0.0
H1345 H 0.30641 0.79442 0.86774 0.0
H1346 H 0.33653 0.79695 0.89046 0.0
H1347 H 0.38814 0.76198 0.86324 0.0
H1348 H 0.45795 0.73895 0.94464 0.0
H1349 H 0.42902 0.74197 0.92027 0.0
H1350 H 0.38489 0.78379 0.94329 0.0
C1351 C 0.33498 0.78458 0.87894 0.0
C1352 C 0.3871 0.76661 0.88074 0.0
C1353 C 0.31773 0.78317 0.8659 0.0
C1354 C 0.44973 0.75271 0.94477 0.0
C1355 C 0.43322 0.75446 0.93072 0.0
C1356 C 0.38574 0.77921 0.92575 0.0
C1357 C 0.35023 0.77053 0.87662 0.0
C1358 C 0.36879 0.77207 0.8902 0.0
C1359 C 0.4219 0.77187 0.93066 0.0
C1360 C 0.40384 0.77308 0.91643 0.0
H1361 H 0.329 0.7415 0.83611 0.0
H1362 H 0.35878 0.74353 0.85925 0.0
H1363 H 0.35455 0.78273 0.92079 0.0
H1364 H 0.44849 0.7984 0.96924 0.0
H1365 H 0.41921 0.80132 0.94482 0.0
C1366 C 0.28359 0.36452 0.80633 0.0
C1367 C 0.2725 0.34702 0.80884 0.0
C1368 C 0.28442 0.37851 0.82373 0.0
C1369 C 0.27349 0.38473 0.88534 0.0
H1370 H 0.27619 0.4406 0.87063 0.0
C1371 C 0.254 0.44763 0.94746 0.0
C1372 C 0.26856 0.46224 0.95054 0.0
C1373 C 0.25596 0.43347 0.93042 0.0
C1374 C 0.27562 0.42503 0.87492 0.0
H1375 H 0.25368 0.33065 0.832 0.0
H1376 H 0.25404 0.35548 0.8615 0.0
H1377 H 0.27618 0.41616 0.84023 0.0
H1378 H 0.29649 0.47364 0.93808 0.0
H1379 H 0.29957 0.44911 0.9076 0.0
H1380 H 0.27189 0.39387 0.92003 0.0
C1381 C 0.26266 0.35819 0.84639 0.0
C1382 C 0.27571 0.41097 0.85755 0.0
C1383 C 0.26212 0.34404 0.82918 0.0
C1384 C 0.28508 0.4625 0.93611 0.0
C1385 C 0.28681 0.44857 0.91868 0.0
C1386 C 0.27299 0.39881 0.90264 0.0
C1387 C 0.27392 0.37558 0.844 0.0
C1388 C 0.27451 0.39061 0.8625 0.0
C1389 C 0.27231 0.43389 0.91582 0.0
C1390 C 0.27396 0.41905 0.89756 0.0
H1391 H 0.29156 0.36756 0.79084 0.0
H1392 H 0.29348 0.39155 0.82129 0.0
H1393 H 0.27307 0.36924 0.88996 0.0
H1394 H 0.24115 0.44699 0.95839 0.0
H1395 H 0.24454 0.42234 0.92843 0.0
C1396 C 0.66582 0.23323 0.83765 0.0
C1397 C 0.6843 0.22904 0.84748 0.0
C1398 C 0.64856 0.23265 0.85064 0.0
C1399 C 0.62809 0.21435 0.90521 0.0
H1400 H 0.58897 0.25531 0.8948 0.0
C1401 C 0.55307 0.21737 0.95341 0.0
C1402 C 0.54672 0.23626 0.96024 0.0
C1403 C 0.5694 0.21529 0.93898 0.0
C1404 C 0.59978 0.24382 0.89803 0.0
H1405 H 0.69917 0.221 0.87866 0.0
H1406 H 0.66911 0.22036 0.90148 0.0
H1407 H 0.61846 0.2541 0.87138 0.0
H1408 H 0.55281 0.26773 0.95753 0.0
H1409 H 0.58122 0.26408 0.93293 0.0
H1410 H 0.60966 0.20458 0.9325 0.0
C1411 C 0.66787 0.22367 0.88361 0.0
C1412 C 0.6166 0.24296 0.88438 0.0
C1413 C 0.68512 0.22412 0.87056 0.0
C1414 C 0.55714 0.25295 0.95249 0.0
C1415 C 0.57341 0.25087 0.93821 0.0
C1416 C 0.61125 0.21526 0.91897 0.0
C1417 C 0.64936 0.22802 0.87383 0.0
C1418 C 0.63107 0.22832 0.88789 0.0
C1419 C 0.5797 0.23205 0.93113 0.0
C1420 C 0.59701 0.23016 0.91571 0.0
H1421 H 0.66467 0.23672 0.81981 0.0
H1422 H 0.63455 0.23572 0.84243 0.0
H1423 H 0.63879 0.2027 0.9082 0.0
H1424 H 0.54536 0.20422 0.95906 0.0
H1425 H 0.57378 0.20058 0.93371 0.0
C1426 C 0.7062 0.65253 0.82268 0.0
C1427 C 0.72078 0.65132 0.80582 0.0
C1428 C 0.70432 0.63756 0.83886 0.0
C1429 C 0.71988 0.5857 0.85158 0.0
H1430 H 0.70829 0.60092 0.91344 0.0
C1431 C 0.73821 0.53749 0.9291 0.0
C1432 C 0.72378 0.53559 0.94607 0.0
C1433 C 0.73535 0.55041 0.91098 0.0
C1434 C 0.71126 0.59643 0.89618 0.0
H1435 H 0.74484 0.63362 0.79263 0.0
H1436 H 0.74206 0.60778 0.82122 0.0
H1437 H 0.70842 0.626 0.8838 0.0
H1438 H 0.69491 0.54557 0.95724 0.0
H1439 H 0.69009 0.56864 0.92563 0.0
H1440 H 0.72362 0.55625 0.86435 0.0
C1441 C 0.73165 0.61995 0.82167 0.0
C1442 C 0.71129 0.61078 0.87913 0.0
C1443 C 0.73334 0.6348 0.80532 0.0
C1444 C 0.70625 0.54669 0.94437 0.0
C1445 C 0.70353 0.55993 0.92638 0.0
C1446 C 0.7201 0.57143 0.86868 0.0
C1447 C 0.71715 0.62115 0.83873 0.0
C1448 C 0.71585 0.60566 0.85663 0.0
C1449 C 0.71812 0.56196 0.90959 0.0
C1450 C 0.71602 0.57669 0.89118 0.0
H1451 H 0.69614 0.66501 0.82325 0.0
H1452 H 0.69274 0.63885 0.85143 0.0
H1453 H 0.723 0.58109 0.83441 0.0
H1454 H 0.75185 0.52908 0.92989 0.0
H1455 H 0.74691 0.55181 0.8984 0.0
loop_
_geom_bond_atom_site_label_1
_geom_bond_atom_site_label_2
_geom_bond_distance
_geom_bond_site_symmetry_2
_ccdc_geom_bond_type
H0 C19 0.949 . S
H1 C20 0.950 . S
H2 C22 0.950 . S
H3 C23 0.950 . S
H4 C25 0.950 . S
H5 C28 0.950 . S
H6 C29 0.950 . S
H7 C31 0.951 . S
H8 C32 0.949 . S
H9 C34 0.949 . S
H10 C35 0.950 . S
H11 C37 0.950 . S
H12 C38 0.950 . S
H13 C40 0.950 . S
H14 C43 0.950 . S
H15 C44 0.950 . S
H16 C46 0.951 . S
H17 C47 0.949 . S
C18 C19 1.376 . S
C18 C23 1.386 . S
C18 C24 1.483 . S
C19 H0 0.949 . S
C19 C18 1.376 . S
C19 C20 1.397 . S
C20 H1 0.950 . S
C20 C19 1.397 . S
C20 C21 1.391 . S
C21 C20 1.391 . S
C21 C22 1.405 . S
C22 H2 0.950 . S
C22 C21 1.405 . S
C22 C23 1.367 . S
C23 H3 0.950 . S
C23 C18 1.386 . S
C23 C22 1.367 . S
C24 C18 1.483 . S
C24 C25 1.382 . S
C24 C26 1.403 . S
C25 H4 0.950 . S
C25 C24 1.382 . S
C25 C41 1.411 . S
C26 C24 1.403 . S
C26 C27 1.489 . S
C26 C40 1.411 . S
C27 C26 1.489 . S
C27 C28 1.383 . S
C27 C32 1.382 . S
C28 H5 0.950 . S
C28 C27 1.383 . S
C28 C29 1.395 . S
C29 H6 0.950 . S
C29 C28 1.395 . S
C29 C30 1.288 . S
C30 C29 1.288 . S
C30 C31 1.392 . S
C31 H7 0.951 . S
C31 C30 1.392 . S
C31 C32 1.392 . S
C32 H8 0.949 . S
C32 C27 1.382 . S
C32 C31 1.392 . S
C33 C34 1.376 . S
C33 C38 1.386 . S
C33 C39 1.483 . S
C34 H9 0.949 . S
C34 C33 1.376 . S
C34 C35 1.397 . S
C35 H10 0.950 . S
C35 C34 1.397 . S
C35 C36 1.391 . S
C36 C35 1.391 . S
C36 C37 1.405 . S
C37 H11 0.950 . S
C37 C36 1.405 . S
C37 C38 1.367 . S
C38 H12 0.950 . S
C38 C33 1.386 . S
C38 C37 1.367 . S
C39 C33 1.483 . S
C39 C40 1.382 . S
C39 C41 1.403 . S
C40 H13 0.950 . S
C40 C26 1.411 . S
C40 C39 1.382 . S
C41 C25 1.411 . S
C41 C39 1.403 . S
C41 C42 1.489 . S
C42 C41 1.489 . S
C42 C43 1.383 . S
C42 C47 1.382 . S
C43 H14 0.950 . S
C43 C42 1.383 . S
C43 C44 1.395 . S
C44 H15 0.950 . S
C44 C43 1.395 . S
C44 C45 1.288 . S
C45 C44 1.288 . S
C45 C46 1.392 . S
C46 H16 0.951 . S
C46 C45 1.392 . S
C46 C47 1.392 . S
C47 H17 0.949 . S
C47 C42 1.382 . S
C47 C46 1.392 . S
H48 C67 0.949 . S
H49 C68 0.950 . S
H50 C70 0.950 . S
H51 C71 0.950 . S
H52 C73 0.950 . S
H53 C76 0.950 . S
H54 C77 0.950 . S
H55 C79 0.951 . S
H56 C80 0.949 . S
H57 C82 0.949 . S
H58 C83 0.950 . S
H59 C85 0.950 . S
H60 C86 0.950 . S
H61 C88 0.950 . S
H62 C91 0.950 . S
H63 C92 0.950 . S
H64 C94 0.951 . S
H65 C95 0.949 . S
C66 C67 1.376 . S
C66 C71 1.386 . S
C66 C72 1.483 . S
C67 H48 0.949 . S
C67 C66 1.376 . S
C67 C68 1.397 . S
C68 H49 0.950 . S
C68 C67 1.397 . S
C68 C69 1.391 . S
C69 C68 1.391 . S
C69 C70 1.405 . S
C70 H50 0.950 . S
C70 C69 1.405 . S
C70 C71 1.367 . S
C71 H51 0.950 . S
C71 C66 1.386 . S
C71 C70 1.367 . S
C72 C66 1.483 . S
C72 C73 1.382 . S
C72 C74 1.403 . S
C73 H52 0.950 . S
C73 C72 1.382 . S
C73 C89 1.411 . S
C74 C72 1.403 . S
C74 C75 1.489 . S
C74 C88 1.411 . S
C75 C74 1.489 . S
C75 C76 1.383 . S
C75 C80 1.382 . S
C76 H53 0.950 . S
C76 C75 1.383 . S
C76 C77 1.395 . S
C77 H54 0.950 . S
C77 C76 1.395 . S
C77 C78 1.288 . S
C78 C77 1.288 . S
C78 C79 1.392 . S
C79 H55 0.951 . S
C79 C78 1.392 . S
C79 C80 1.392 . S
C80 H56 0.949 . S
C80 C75 1.382 . S
C80 C79 1.392 . S
C81 C82 1.376 . S
C81 C86 1.386 . S
C81 C87 1.483 . S
C82 H57 0.949 . S
C82 C81 1.376 . S
C82 C83 1.397 . S
C83 H58 0.950 . S
C83 C82 1.397 . S
C83 C84 1.391 . S
C84 C83 1.391 . S
C84 C85 1.405 . S
C85 H59 0.950 . S
C85 C84 1.405 . S
C85 C86 1.367 . S
C86 H60 0.950 . S
C86 C81 1.386 . S
C86 C85 1.367 . S
C87 C81 1.483 . S
C87 C88 1.382 . S
C87 C89 1.403 . S
C88 H61 0.950 . S
C88 C74 1.411 . S
C88 C87 1.382 . S
C89 C73 1.411 . S
C89 C87 1.403 . S
C89 C90 1.489 . S
C90 C89 1.489 . S
C90 C91 1.383 . S
C90 C95 1.382 . S
C91 H62 0.950 . S
C91 C90 1.383 . S
C91 C92 1.395 . S
C92 H63 0.950 . S
C92 C91 1.395 . S
C92 C93 1.288 . S
C93 C92 1.288 . S
C93 C94 1.392 . S
C94 H64 0.951 . S
C94 C93 1.392 . S
C94 C95 1.392 . S
C95 H65 0.949 . S
C95 C90 1.382 . S
C95 C94 1.392 . S
H96 C115 0.949 . S
H97 C116 0.950 . S
H98 C118 0.950 . S
H99 C119 0.950 . S
H100 C121 0.950 . S
H101 C124 0.950 . S
H102 C125 0.950 . S
H103 C127 0.951 . S
H104 C128 0.949 . S
H105 C130 0.949 . S
H106 C131 0.950 . S
H107 C133 0.950 . S
H108 C134 0.950 . S
H109 C136 0.950 . S
H110 C139 0.950 . S
H111 C140 0.950 . S
H112 C142 0.951 . S
H113 C143 0.949 . S
C114 C115 1.376 . S
C114 C119 1.386 . S
C114 C120 1.483 . S
C115 H96 0.949 . S
C115 C114 1.376 . S
C115 C116 1.397 . S
C116 H97 0.950 . S
C116 C115 1.397 . S
C116 C117 1.391 . S
C117 C116 1.391 . S
C117 C118 1.405 . S
C118 H98 0.950 . S
C118 C117 1.405 . S
C118 C119 1.367 . S
C119 H99 0.950 . S
C119 C114 1.386 . S
C119 C118 1.367 . S
C120 C114 1.483 . S
C120 C121 1.382 . S
C120 C122 1.403 . S
C121 H100 0.950 . S
C121 C120 1.382 . S
C121 C137 1.411 . S
C122 C120 1.403 . S
C122 C123 1.489 . S
C122 C136 1.411 . S
C123 C122 1.489 . S
C123 C124 1.383 . S
C123 C128 1.382 . S
C124 H101 0.950 . S
C124 C123 1.383 . S
C124 C125 1.395 . S
C125 H102 0.950 . S
C125 C124 1.395 . S
C125 C126 1.288 . S
C126 C125 1.288 . S
C126 C127 1.392 . S
C127 H103 0.951 . S
C127 C126 1.392 . S
C127 C128 1.392 . S
C128 H104 0.949 . S
C128 C123 1.382 . S
C128 C127 1.392 . S
C129 C130 1.376 . S
C129 C134 1.386 . S
C129 C135 1.483 . S
C130 H105 0.949 . S
C130 C129 1.376 . S
C130 C131 1.397 . S
C131 H106 0.950 . S
C131 C130 1.397 . S
C131 C132 1.391 . S
C132 C131 1.391 . S
C132 C133 1.405 . S
C133 H107 0.950 . S
C133 C132 1.405 . S
C133 C134 1.367 . S
C134 H108 0.950 . S
C134 C129 1.386 . S
C134 C133 1.367 . S
C135 C129 1.483 . S
C135 C136 1.382 . S
C135 C137 1.403 . S
C136 H109 0.950 . S
C136 C122 1.411 . S
C136 C135 1.382 . S
C137 C121 1.411 . S
C137 C135 1.403 . S
C137 C138 1.489 . S
C138 C137 1.489 . S
C138 C139 1.383 . S
C138 C143 1.382 . S
C139 H110 0.950 . S
C139 C138 1.383 . S
C139 C140 1.395 . S
C140 H111 0.950 . S
C140 C139 1.395 . S
C140 C141 1.288 . S
C141 C140 1.288 . S
C141 C142 1.392 . S
C142 H112 0.951 . S
C142 C141 1.392 . S
C142 C143 1.392 . S
C143 H113 0.949 . S
C143 C138 1.382 . S
C143 C142 1.392 . S
H144 C163 0.949 . S
H145 C164 0.950 . S
H146 C166 0.950 . S
H147 C167 0.950 . S
H148 C169 0.950 . S
H149 C172 0.950 . S
H150 C173 0.950 . S
H151 C175 0.951 . S
H152 C176 0.949 . S
H153 C178 0.949 . S
H154 C179 0.950 . S
H155 C181 0.950 . S
H156 C182 0.950 . S
H157 C184 0.950 . S
H158 C187 0.950 . S
H159 C188 0.950 . S
H160 C190 0.951 . S
H161 C191 0.949 . S
C162 C163 1.376 . S
C162 C167 1.386 . S
C162 C168 1.483 . S
C163 H144 0.949 . S
C163 C162 1.376 . S
C163 C164 1.397 . S
C164 H145 0.950 . S
C164 C163 1.397 . S
C164 C165 1.391 . S
C165 C164 1.391 . S
C165 C166 1.405 . S
C166 H146 0.950 . S
C166 C165 1.405 . S
C166 C167 1.367 . S
C167 H147 0.950 . S
C167 C162 1.386 . S
C167 C166 1.367 . S
C168 C162 1.483 . S
C168 C169 1.382 . S
C168 C170 1.403 . S
C169 H148 0.950 . S
C169 C168 1.382 . S
C169 C185 1.411 . S
C170 C168 1.403 . S
C170 C171 1.489 . S
C170 C184 1.411 . S
C171 C170 1.489 . S
C171 C172 1.383 . S
C171 C176 1.382 . S
C172 H149 0.950 . S
C172 C171 1.383 . S
C172 C173 1.395 . S
C173 H150 0.950 . S
C173 C172 1.395 . S
C173 C174 1.288 . S
C174 C173 1.288 . S
C174 C175 1.392 . S
C175 H151 0.951 . S
C175 C174 1.392 . S
C175 C176 1.392 . S
C176 H152 0.949 . S
C176 C171 1.382 . S
C176 C175 1.392 . S
C177 C178 1.376 . S
C177 C182 1.386 . S
C177 C183 1.483 . S
C178 H153 0.949 . S
C178 C177 1.376 . S
C178 C179 1.397 . S
C179 H154 0.950 . S
C179 C178 1.397 . S
C179 C180 1.391 . S
C180 C179 1.391 . S
C180 C181 1.405 . S
C181 H155 0.950 . S
C181 C180 1.405 . S
C181 C182 1.367 . S
C182 H156 0.950 . S
C182 C177 1.386 . S
C182 C181 1.367 . S
C183 C177 1.483 . S
C183 C184 1.382 . S
C183 C185 1.403 . S
C184 H157 0.950 . S
C184 C170 1.411 . S
C184 C183 1.382 . S
C185 C169 1.411 . S
C185 C183 1.403 . S
C185 C186 1.489 . S
C186 C185 1.489 . S
C186 C187 1.383 . S
C186 C191 1.382 . S
C187 H158 0.950 . S
C187 C186 1.383 . S
C187 C188 1.395 . S
C188 H159 0.950 . S
C188 C187 1.395 . S
C188 C189 1.288 . S
C189 C188 1.288 . S
C189 C190 1.392 . S
C190 H160 0.951 . S
C190 C189 1.392 . S
C190 C191 1.392 . S
C191 H161 0.949 . S
C191 C186 1.382 . S
C191 C190 1.392 . S
H192 C211 0.949 . S
H193 C212 0.950 . S
H194 C214 0.950 . S
H195 C215 0.950 . S
H196 C217 0.950 . S
H197 C220 0.950 . S
H198 C221 0.950 . S
H199 C223 0.951 . S
H200 C224 0.949 . S
H201 C226 0.949 . S
H202 C227 0.950 . S
H203 C229 0.950 . S
H204 C230 0.950 . S
H205 C232 0.950 . S
H206 C235 0.950 . S
H207 C236 0.950 . S
H208 C238 0.951 . S
H209 C239 0.949 . S
C210 C211 1.376 . S
C210 C215 1.386 . S
C210 C216 1.483 . S
C211 H192 0.949 . S
C211 C210 1.376 . S
C211 C212 1.397 . S
C212 H193 0.950 . S
C212 C211 1.397 . S
C212 C213 1.391 . S
C213 C212 1.391 . S
C213 C214 1.405 . S
C214 H194 0.950 . S
C214 C213 1.405 . S
C214 C215 1.367 . S
C215 H195 0.950 . S
C215 C210 1.386 . S
C215 C214 1.367 . S
C216 C210 1.483 . S
C216 C217 1.382 . S
C216 C218 1.403 . S
C217 H196 0.950 . S
C217 C216 1.382 . S
C217 C233 1.411 . S
C218 C216 1.403 . S
C218 C219 1.489 . S
C218 C232 1.411 . S
C219 C218 1.489 . S
C219 C220 1.383 . S
C219 C224 1.382 . S
C220 H197 0.950 . S
C220 C219 1.383 . S
C220 C221 1.395 . S
C221 H198 0.950 . S
C221 C220 1.395 . S
C221 C222 1.288 . S
C222 C221 1.288 . S
C222 C223 1.392 . S
C223 H199 0.951 . S
C223 C222 1.392 . S
C223 C224 1.392 . S
C224 H200 0.949 . S
C224 C219 1.382 . S
C224 C223 1.392 . S
C225 C226 1.376 . S
C225 C230 1.386 . S
C225 C231 1.483 . S
C226 H201 0.949 . S
C226 C225 1.376 . S
C226 C227 1.397 . S
C227 H202 0.950 . S
C227 C226 1.397 . S
C227 C228 1.391 . S
C228 C227 1.391 . S
C228 C229 1.405 . S
C229 H203 0.950 . S
C229 C228 1.405 . S
C229 C230 1.367 . S
C230 H204 0.950 . S
C230 C225 1.386 . S
C230 C229 1.367 . S
C231 C225 1.483 . S
C231 C232 1.382 . S
C231 C233 1.403 . S
C232 H205 0.950 . S
C232 C218 1.411 . S
C232 C231 1.382 . S
C233 C217 1.411 . S
C233 C231 1.403 . S
C233 C234 1.489 . S
C234 C233 1.489 . S
C234 C235 1.383 . S
C234 C239 1.382 . S
C235 H206 0.950 . S
C235 C234 1.383 . S
C235 C236 1.395 . S
C236 H207 0.950 . S
C236 C235 1.395 . S
C236 C237 1.288 . S
C237 C236 1.288 . S
C237 C238 1.392 . S
C238 H208 0.951 . S
C238 C237 1.392 . S
C238 C239 1.392 . S
C239 H209 0.949 . S
C239 C234 1.382 . S
C239 C238 1.392 . S
H240 C259 0.949 . S
H241 C260 0.950 . S
H242 C262 0.950 . S
H243 C263 0.950 . S
H244 C265 0.950 . S
H245 C268 0.950 . S
H246 C269 0.950 . S
H247 C271 0.951 . S
H248 C272 0.949 . S
H249 C274 0.949 . S
H250 C275 0.950 . S
H251 C277 0.950 . S
H252 C278 0.950 . S
H253 C280 0.950 . S
H254 C283 0.950 . S
H255 C284 0.950 . S
H256 C286 0.951 . S
H257 C287 0.949 . S
C258 C259 1.376 . S
C258 C263 1.386 . S
C258 C264 1.483 . S
C259 H240 0.949 . S
C259 C258 1.376 . S
C259 C260 1.397 . S
C260 H241 0.950 . S
C260 C259 1.397 . S
C260 C261 1.391 . S
C261 C260 1.391 . S
C261 C262 1.405 . S
C262 H242 0.950 . S
C262 C261 1.405 . S
C262 C263 1.367 . S
C263 H243 0.950 . S
C263 C258 1.386 . S
C263 C262 1.367 . S
C264 C258 1.483 . S
C264 C265 1.382 . S
C264 C266 1.403 . S
C265 H244 0.950 . S
C265 C264 1.382 . S
C265 C281 1.411 . S
C266 C264 1.403 . S
C266 C267 1.489 . S
C266 C280 1.411 . S
C267 C266 1.489 . S
C267 C268 1.383 . S
C267 C272 1.382 . S
C268 H245 0.950 . S
C268 C267 1.383 . S
C268 C269 1.395 . S
C269 H246 0.950 . S
C269 C268 1.395 . S
C269 C270 1.288 . S
C270 C269 1.288 . S
C270 C271 1.392 . S
C271 H247 0.951 . S
C271 C270 1.392 . S
C271 C272 1.392 . S
C272 H248 0.949 . S
C272 C267 1.382 . S
C272 C271 1.392 . S
C273 C274 1.376 . S
C273 C278 1.386 . S
C273 C279 1.483 . S
C274 H249 0.949 . S
C274 C273 1.376 . S
C274 C275 1.397 . S
C275 H250 0.950 . S
C275 C274 1.397 . S
C275 C276 1.391 . S
C276 C275 1.391 . S
C276 C277 1.405 . S
C277 H251 0.950 . S
C277 C276 1.405 . S
C277 C278 1.367 . S
C278 H252 0.950 . S
C278 C273 1.386 . S
C278 C277 1.367 . S
C279 C273 1.483 . S
C279 C280 1.382 . S
C279 C281 1.403 . S
C280 H253 0.950 . S
C280 C266 1.411 . S
C280 C279 1.382 . S
C281 C265 1.411 . S
C281 C279 1.403 . S
C281 C282 1.489 . S
C282 C281 1.489 . S
C282 C283 1.383 . S
C282 C287 1.382 . S
C283 H254 0.950 . S
C283 C282 1.383 . S
C283 C284 1.395 . S
C284 H255 0.950 . S
C284 C283 1.395 . S
C284 C285 1.288 . S
C285 C284 1.288 . S
C285 C286 1.392 . S
C286 H256 0.951 . S
C286 C285 1.392 . S
C286 C287 1.392 . S
C287 H257 0.949 . S
C287 C282 1.382 . S
C287 C286 1.392 . S
H288 C307 0.949 . S
H289 C308 0.950 . S
H290 C310 0.950 . S
H291 C311 0.950 . S
H292 C313 0.950 . S
H293 C316 0.950 . S
H294 C317 0.950 . S
H295 C319 0.951 . S
H296 C320 0.949 . S
H297 C322 0.949 . S
H298 C323 0.950 . S
H299 C325 0.950 . S
H300 C326 0.950 . S
H301 C328 0.950 . S
H302 C331 0.950 . S
H303 C332 0.950 . S
H304 C334 0.951 . S
H305 C335 0.949 . S
C306 C307 1.376 . S
C306 C311 1.386 . S
C306 C312 1.483 . S
C307 H288 0.949 . S
C307 C306 1.376 . S
C307 C308 1.397 . S
C308 H289 0.950 . S
C308 C307 1.397 . S
C308 C309 1.391 . S
C309 C308 1.391 . S
C309 C310 1.405 . S
C310 H290 0.950 . S
C310 C309 1.405 . S
C310 C311 1.367 . S
C311 H291 0.950 . S
C311 C306 1.386 . S
C311 C310 1.367 . S
C312 C306 1.483 . S
C312 C313 1.382 . S
C312 C314 1.403 . S
C313 H292 0.950 . S
C313 C312 1.382 . S
C313 C329 1.411 . S
C314 C312 1.403 . S
C314 C315 1.489 . S
C314 C328 1.411 . S
C315 C314 1.489 . S
C315 C316 1.383 . S
C315 C320 1.382 . S
C316 H293 0.950 . S
C316 C315 1.383 . S
C316 C317 1.395 . S
C317 H294 0.950 . S
C317 C316 1.395 . S
C317 C318 1.288 . S
C318 C317 1.288 . S
C318 C319 1.392 . S
C319 H295 0.951 . S
C319 C318 1.392 . S
C319 C320 1.392 . S
C320 H296 0.949 . S
C320 C315 1.382 . S
C320 C319 1.392 . S
C321 C322 1.376 . S
C321 C326 1.386 . S
C321 C327 1.483 . S
C322 H297 0.949 . S
C322 C321 1.376 . S
C322 C323 1.397 . S
C323 H298 0.950 . S
C323 C322 1.397 . S
C323 C324 1.391 . S
C324 C323 1.391 . S
C324 C325 1.405 . S
C325 H299 0.950 . S
C325 C324 1.405 . S
C325 C326 1.367 . S
C326 H300 0.950 . S
C326 C321 1.386 . S
C326 C325 1.367 . S
C327 C321 1.483 . S
C327 C328 1.382 . S
C327 C329 1.403 . S
C328 H301 0.950 . S
C328 C314 1.411 . S
C328 C327 1.382 . S
C329 C313 1.411 . S
C329 C327 1.403 . S
C329 C330 1.489 . S
C330 C329 1.489 . S
C330 C331 1.383 . S
C330 C335 1.382 . S
C331 H302 0.950 . S
C331 C330 1.383 . S
C331 C332 1.395 . S
C332 H303 0.950 . S
C332 C331 1.395 . S
C332 C333 1.288 . S
C333 C332 1.288 . S
C333 C334 1.392 . S
C334 H304 0.951 . S
C334 C333 1.392 . S
C334 C335 1.392 . S
C335 H305 0.949 . S
C335 C330 1.382 . S
C335 C334 1.392 . S
H336 C355 0.949 . S
H337 C356 0.950 . S
H338 C358 0.950 . S
H339 C359 0.950 . S
H340 C361 0.950 . S
H341 C364 0.950 . S
H342 C365 0.950 . S
H343 C367 0.951 . S
H344 C368 0.949 . S
H345 C370 0.949 . S
H346 C371 0.950 . S
H347 C373 0.950 . S
H348 C374 0.950 . S
H349 C376 0.950 . S
H350 C379 0.950 . S
H351 C380 0.950 . S
H352 C382 0.951 . S
H353 C383 0.949 . S
C354 C355 1.376 . S
C354 C359 1.386 . S
C354 C360 1.483 . S
C355 H336 0.949 . S
C355 C354 1.376 . S
C355 C356 1.397 . S
C356 H337 0.950 . S
C356 C355 1.397 . S
C356 C357 1.391 . S
C357 C356 1.391 . S
C357 C358 1.405 . S
C358 H338 0.950 . S
C358 C357 1.405 . S
C358 C359 1.367 . S
C359 H339 0.950 . S
C359 C354 1.386 . S
C359 C358 1.367 . S
C360 C354 1.483 . S
C360 C361 1.382 . S
C360 C362 1.403 . S
C361 H340 0.950 . S
C361 C360 1.382 . S
C361 C377 1.411 . S
C362 C360 1.403 . S
C362 C363 1.489 . S
C362 C376 1.411 . S
C363 C362 1.489 . S
C363 C364 1.383 . S
C363 C368 1.382 . S
C364 H341 0.950 . S
C364 C363 1.383 . S
C364 C365 1.395 . S
C365 H342 0.950 . S
C365 C364 1.395 . S
C365 C366 1.288 . S
C366 C365 1.288 . S
C366 C367 1.392 . S
C367 H343 0.951 . S
C367 C366 1.392 . S
C367 C368 1.392 . S
C368 H344 0.949 . S
C368 C363 1.382 . S
C368 C367 1.392 . S
C369 C370 1.376 . S
C369 C374 1.386 . S
C369 C375 1.483 . S
C370 H345 0.949 . S
C370 C369 1.376 . S
C370 C371 1.397 . S
C371 H346 0.950 . S
C371 C370 1.397 . S
C371 C372 1.391 . S
C372 C371 1.391 . S
C372 C373 1.405 . S
C373 H347 0.950 . S
C373 C372 1.405 . S
C373 C374 1.367 . S
C374 H348 0.950 . S
C374 C369 1.386 . S
C374 C373 1.367 . S
C375 C369 1.483 . S
C375 C376 1.382 . S
C375 C377 1.403 . S
C376 H349 0.950 . S
C376 C362 1.411 . S
C376 C375 1.382 . S
C377 C361 1.411 . S
C377 C375 1.403 . S
C377 C378 1.489 . S
C378 C377 1.489 . S
C378 C379 1.383 . S
C378 C383 1.382 . S
C379 H350 0.950 . S
C379 C378 1.383 . S
C379 C380 1.395 . S
C380 H351 0.950 . S
C380 C379 1.395 . S
C380 C381 1.288 . S
C381 C380 1.288 . S
C381 C382 1.392 . S
C382 H352 0.951 . S
C382 C381 1.392 . S
C382 C383 1.392 . S
C383 H353 0.949 . S
C383 C378 1.382 . S
C383 C382 1.392 . S
C384 O386 1.247 . S
C384 O388 1.258 . S
C385 O392 1.247 . S
C385 O393 1.258 . S
O386 C384 1.247 . S
O386 Zn387 2.032 1_655 S
Zn387 O386 2.032 1_455 S
Zn387 O391 2.031 . S
Zn387 O393 2.031 . S
Zn387 O394 2.032 1_455 S
O388 C384 1.258 . S
O388 Zn389 2.025 1_655 S
Zn389 O388 2.025 1_455 S
Zn389 O390 2.038 . S
Zn389 O392 2.038 . S
Zn389 O395 2.025 1_455 S
O390 Zn389 2.038 . S
O390 C396 1.247 . S
O391 Zn387 2.031 . S
O391 C396 1.258 . S
O392 C385 1.247 . S
O392 Zn389 2.038 . S
O393 C385 1.258 . S
O393 Zn387 2.031 . S
O394 Zn387 2.032 1_655 S
O394 C397 1.247 . S
O395 Zn389 2.025 1_655 S
O395 C397 1.258 . S
C396 O390 1.247 . S
C396 O391 1.258 . S
C397 O394 1.247 . S
C397 O395 1.258 . S
C398 O400 1.247 . S
C398 O402 1.258 . S
C399 O406 1.247 . S
C399 O407 1.258 . S
O400 C398 1.247 . S
O400 Zn401 2.036 . S
Zn401 O400 2.036 . S
Zn401 O405 2.027 1_545 S
Zn401 O407 2.027 1_545 S
Zn401 O408 2.036 . S
O402 C398 1.258 . S
O402 Zn403 2.038 1_545 S
Zn403 O402 2.038 1_565 S
Zn403 O404 2.025 . S
Zn403 O406 2.025 . S
Zn403 O409 2.038 1_565 S
O404 Zn403 2.025 . S
O404 C410 1.247 . S
O405 Zn401 2.027 1_565 S
O405 C410 1.258 . S
O406 C399 1.247 . S
O406 Zn403 2.025 . S
O407 C399 1.258 . S
O407 Zn401 2.027 1_565 S
O408 Zn401 2.036 . S
O408 C411 1.247 . S
O409 Zn403 2.038 1_545 S
O409 C411 1.258 . S
C410 O404 1.247 . S
C410 O405 1.258 . S
C411 O408 1.247 . S
C411 O409 1.258 . S
C412 O414 1.247 . S
C412 O416 1.258 . S
C413 O420 1.247 . S
C413 O421 1.258 . S
O414 C412 1.247 . S
O414 Zn415 2.026 . S
Zn415 O414 2.026 . S
Zn415 O419 2.037 1_655 S
Zn415 O421 2.037 1_655 S
Zn415 O422 2.026 . S
O416 C412 1.258 . S
O416 Zn417 2.028 1_655 S
Zn417 O416 2.028 1_455 S
Zn417 O418 2.035 . S
Zn417 O420 2.035 . S
Zn417 O423 2.028 1_455 S
O418 Zn417 2.035 . S
O418 C424 1.247 . S
O419 Zn415 2.037 1_455 S
O419 C424 1.258 . S
O420 C413 1.247 . S
O420 Zn417 2.035 . S
O421 C413 1.258 . S
O421 Zn415 2.037 1_455 S
O422 Zn415 2.026 . S
O422 C425 1.247 . S
O423 Zn417 2.028 1_655 S
O423 C425 1.258 . S
C424 O418 1.247 . S
C424 O419 1.258 . S
C425 O422 1.247 . S
C425 O423 1.258 . S
C426 O428 1.247 . S
C426 O430 1.258 . S
C427 O434 1.247 . S
C427 O435 1.258 . S
O428 C426 1.247 . S
O428 Zn429 2.036 . S
Zn429 O428 2.036 . S
Zn429 O433 2.027 1_545 S
Zn429 O435 2.027 1_545 S
Zn429 O436 2.036 . S
O430 C426 1.258 . S
O430 Zn431 2.039 1_545 S
Zn431 O430 2.039 1_565 S
Zn431 O432 2.024 . S
Zn431 O434 2.024 . S
Zn431 O437 2.039 1_565 S
O432 Zn431 2.024 . S
O432 C438 1.247 . S
O433 Zn429 2.027 1_565 S
O433 C438 1.258 . S
O434 C427 1.247 . S
O434 Zn431 2.024 . S
O435 C427 1.258 . S
O435 Zn429 2.027 1_565 S
O436 Zn429 2.036 . S
O436 C439 1.247 . S
O437 Zn431 2.039 1_545 S
O437 C439 1.258 . S
C438 O432 1.247 . S
C438 O433 1.258 . S
C439 O436 1.247 . S
C439 O437 1.258 . S
C440 O442 1.247 . S
C440 O444 1.258 . S
C441 O448 1.247 . S
C441 O449 1.258 . S
O442 C440 1.247 . S
O442 Zn443 2.028 . S
Zn443 O442 2.028 . S
Zn443 O447 2.035 . S
Zn443 O449 2.035 1_554 S
Zn443 O450 2.028 1_554 S
O444 C440 1.258 . S
O444 Zn445 2.035 . S
Zn445 O444 2.035 . S
Zn445 O446 2.028 . S
Zn445 O448 2.028 1_554 S
Zn445 O451 2.035 1_554 S
O446 Zn445 2.028 . S
O446 C452 1.247 . S
O447 Zn443 2.035 . S
O447 C452 1.258 . S
O448 C441 1.247 . S
O448 Zn445 2.028 1_556 S
O449 C441 1.258 . S
O449 Zn443 2.035 1_556 S
O450 Zn443 2.028 1_556 S
O450 C453 1.247 . S
O451 Zn445 2.035 1_556 S
O451 C453 1.258 . S
C452 O446 1.247 . S
C452 O447 1.258 . S
C453 O450 1.247 . S
C453 O451 1.258 . S
C454 O456 1.247 . S
C454 O458 1.258 . S
C455 O462 1.247 . S
C455 O463 1.258 . S
O456 C454 1.247 . S
O456 Zn457 2.028 . S
Zn457 O456 2.028 . S
Zn457 O461 2.035 . S
Zn457 O463 2.035 1_554 S
Zn457 O464 2.028 1_554 S
O458 C454 1.258 . S
O458 Zn459 2.035 . S
Zn459 O458 2.035 . S
Zn459 O460 2.028 . S
Zn459 O462 2.028 1_554 S
Zn459 O465 2.035 1_554 S
O460 Zn459 2.028 . S
O460 C466 1.247 . S
O461 Zn457 2.035 . S
O461 C466 1.258 . S
O462 C455 1.247 . S
O462 Zn459 2.028 1_556 S
O463 C455 1.258 . S
O463 Zn457 2.035 1_556 S
O464 Zn457 2.028 1_556 S
O464 C467 1.247 . S
O465 Zn459 2.035 1_556 S
O465 C467 1.258 . S
C466 O460 1.247 . S
C466 O461 1.258 . S
C467 O464 1.247 . S
C467 O465 1.258 . S
C468 O470 1.247 . S
C468 O472 1.258 . S
C469 O476 1.247 . S
C469 O477 1.258 . S
O470 C468 1.247 . S
O470 Zn471 2.028 1_556 S
Zn471 O470 2.028 1_554 S
Zn471 O475 2.035 1_554 S
Zn471 O477 2.035 . S
Zn471 O478 2.028 . S
O472 C468 1.258 . S
O472 Zn473 2.035 1_556 S
Zn473 O472 2.035 1_554 S
Zn473 O474 2.028 1_554 S
Zn473 O476 2.028 . S
Zn473 O479 2.035 . S
O474 Zn473 2.028 1_556 S
O474 C480 1.247 . S
O475 Zn471 2.035 1_556 S
O475 C480 1.258 . S
O476 C469 1.247 . S
O476 Zn473 2.028 . S
O477 C469 1.258 . S
O477 Zn471 2.035 . S
O478 Zn471 2.028 . S
O478 C481 1.247 . S
O479 Zn473 2.035 . S
O479 C481 1.258 . S
C480 O474 1.247 . S
C480 O475 1.258 . S
C481 O478 1.247 . S
C481 O479 1.258 . S
C482 O484 1.247 . S
C482 O486 1.258 . S
C483 O490 1.247 . S
C483 O491 1.258 . S
O484 C482 1.247 . S
O484 Zn485 2.028 . S
Zn485 O484 2.028 . S
Zn485 O489 2.035 . S
Zn485 O491 2.035 1_554 S
Zn485 O492 2.028 1_554 S
O486 C482 1.258 . S
O486 Zn487 2.035 . S
Zn487 O486 2.035 . S
Zn487 O488 2.028 . S
Zn487 O490 2.028 1_554 S
Zn487 O493 2.035 1_554 S
O488 Zn487 2.028 . S
O488 C494 1.247 . S
O489 Zn485 2.035 . S
O489 C494 1.258 . S
O490 C483 1.247 . S
O490 Zn487 2.028 1_556 S
O491 C483 1.258 . S
O491 Zn485 2.035 1_556 S
O492 Zn485 2.028 1_556 S
O492 C495 1.247 . S
O493 Zn487 2.035 1_556 S
O493 C495 1.258 . S
C494 O488 1.247 . S
C494 O489 1.258 . S
C495 O492 1.247 . S
C495 O493 1.258 . S
C496 C497 1.349 . S
C496 C498 1.327 . S
C496 H521 0.950 . S
C497 C496 1.349 . S
C497 C513 1.349 . S
C498 C496 1.327 . S
C498 C517 1.429 . S
C498 H522 0.950 . S
C499 C516 1.574 . S
C499 C518 1.368 . S
C499 H523 0.949 . S
H500 C504 0.949 . S
C501 C502 1.349 . S
C501 C503 1.327 . S
C501 H524 0.950 . S
C502 C501 1.349 . S
C502 C514 1.349 . S
C503 C501 1.327 . S
C503 C519 1.429 . S
C503 H525 0.950 . S
C504 H500 0.949 . S
C504 C512 1.574 . S
C504 C520 1.368 . S
H505 C513 0.950 . S
H506 C511 0.950 . S
H507 C512 0.949 . S
H508 C514 0.950 . S
H509 C515 0.950 . S
H510 C516 0.949 . S
C511 H506 0.950 . S
C511 C513 1.327 . S
C511 C517 1.429 . S
C512 C504 1.574 . S
C512 H507 0.949 . S
C512 C518 1.368 . S
C513 C497 1.349 . S
C513 H505 0.950 . S
C513 C511 1.327 . S
C514 C502 1.349 . S
C514 H508 0.950 . S
C514 C515 1.327 . S
C515 H509 0.950 . S
C515 C514 1.327 . S
C515 C519 1.429 . S
C516 C499 1.574 . S
C516 H510 0.949 . S
C516 C520 1.368 . S
C517 C498 1.429 . S
C517 C511 1.429 . S
C517 C518 1.523 . S
C518 C499 1.368 . S
C518 C512 1.368 . S
C518 C517 1.523 . S
C519 C503 1.429 . S
C519 C515 1.429 . S
C519 C520 1.523 . S
C520 C504 1.368 . S
C520 C516 1.368 . S
C520 C519 1.523 . S
H521 C496 0.950 . S
H522 C498 0.950 . S
H523 C499 0.949 . S
H524 C501 0.950 . S
H525 C503 0.950 . S
C526 C527 1.349 . S
C526 C528 1.327 . S
C526 H551 0.950 . S
C527 C526 1.349 . S
C527 C543 1.349 . S
C528 C526 1.327 . S
C528 C547 1.429 . S
C528 H552 0.950 . S
C529 C546 1.574 . S
C529 C548 1.368 . S
C529 H553 0.949 . S
H530 C534 0.949 . S
C531 C532 1.349 . S
C531 C533 1.327 . S
C531 H554 0.950 . S
C532 C531 1.349 . S
C532 C544 1.349 . S
C533 C531 1.327 . S
C533 C549 1.429 . S
C533 H555 0.950 . S
C534 H530 0.949 . S
C534 C542 1.574 . S
C534 C550 1.368 . S
H535 C543 0.950 . S
H536 C541 0.950 . S
H537 C542 0.949 . S
H538 C544 0.950 . S
H539 C545 0.950 . S
H540 C546 0.949 . S
C541 H536 0.950 . S
C541 C543 1.327 . S
C541 C547 1.429 . S
C542 C534 1.574 . S
C542 H537 0.949 . S
C542 C548 1.368 . S
C543 C527 1.349 . S
C543 H535 0.950 . S
C543 C541 1.327 . S
C544 C532 1.349 . S
C544 H538 0.950 . S
C544 C545 1.327 . S
C545 H539 0.950 . S
C545 C544 1.327 . S
C545 C549 1.429 . S
C546 C529 1.574 . S
C546 H540 0.949 . S
C546 C550 1.368 . S
C547 C528 1.429 . S
C547 C541 1.429 . S
C547 C548 1.523 . S
C548 C529 1.368 . S
C548 C542 1.368 . S
C548 C547 1.523 . S
C549 C533 1.429 . S
C549 C545 1.429 . S
C549 C550 1.523 . S
C550 C534 1.368 . S
C550 C546 1.368 . S
C550 C549 1.523 . S
H551 C526 0.950 . S
H552 C528 0.950 . S
H553 C529 0.949 . S
H554 C531 0.950 . S
H555 C533 0.950 . S
C556 C557 1.349 . S
C556 C558 1.327 . S
C556 H581 0.950 . S
C557 C556 1.349 . S
C557 C573 1.349 . S
C558 C556 1.327 . S
C558 C577 1.429 . S
C558 H582 0.950 . S
C559 C576 1.574 . S
C559 C578 1.368 . S
C559 H583 0.949 . S
H560 C564 0.949 . S
C561 C562 1.349 . S
C561 C563 1.327 . S
C561 H584 0.950 . S
C562 C561 1.349 . S
C562 C574 1.349 . S
C563 C561 1.327 . S
C563 C579 1.429 . S
C563 H585 0.950 . S
C564 H560 0.949 . S
C564 C572 1.574 . S
C564 C580 1.368 . S
H565 C573 0.950 . S
H566 C571 0.950 . S
H567 C572 0.949 . S
H568 C574 0.950 . S
H569 C575 0.950 . S
H570 C576 0.949 . S
C571 H566 0.950 . S
C571 C573 1.327 . S
C571 C577 1.429 . S
C572 C564 1.574 . S
C572 H567 0.949 . S
C572 C578 1.368 . S
C573 C557 1.349 . S
C573 H565 0.950 . S
C573 C571 1.327 . S
C574 C562 1.349 . S
C574 H568 0.950 . S
C574 C575 1.327 . S
C575 H569 0.950 . S
C575 C574 1.327 . S
C575 C579 1.429 . S
C576 C559 1.574 . S
C576 H570 0.949 . S
C576 C580 1.368 . S
C577 C558 1.429 . S
C577 C571 1.429 . S
C577 C578 1.523 . S
C578 C559 1.368 . S
C578 C572 1.368 . S
C578 C577 1.523 . S
C579 C563 1.429 . S
C579 C575 1.429 . S
C579 C580 1.523 . S
C580 C564 1.368 . S
C580 C576 1.368 . S
C580 C579 1.523 . S
H581 C556 0.950 . S
H582 C558 0.950 . S
H583 C559 0.949 . S
H584 C561 0.950 . S
H585 C563 0.950 . S
C586 C587 1.349 . S
C586 C588 1.327 . S
C586 H611 0.950 . S
C587 C586 1.349 . S
C587 C603 1.349 . S
C588 C586 1.327 . S
C588 C607 1.429 . S
C588 H612 0.950 . S
C589 C606 1.574 . S
C589 C608 1.368 . S
C589 H613 0.949 . S
H590 C594 0.949 . S
C591 C592 1.349 . S
C591 C593 1.327 . S
C591 H614 0.950 . S
C592 C591 1.349 . S
C592 C604 1.349 . S
C593 C591 1.327 . S
C593 C609 1.429 . S
C593 H615 0.950 . S
C594 H590 0.949 . S
C594 C602 1.574 . S
C594 C610 1.368 . S
H595 C603 0.950 . S
H596 C601 0.950 . S
H597 C602 0.949 . S
H598 C604 0.950 . S
H599 C605 0.950 . S
H600 C606 0.949 . S
C601 H596 0.950 . S
C601 C603 1.327 . S
C601 C607 1.429 . S
C602 C594 1.574 . S
C602 H597 0.949 . S
C602 C608 1.368 . S
C603 C587 1.349 . S
C603 H595 0.950 . S
C603 C601 1.327 . S
C604 C592 1.349 . S
C604 H598 0.950 . S
C604 C605 1.327 . S
C605 H599 0.950 . S
C605 C604 1.327 . S
C605 C609 1.429 . S
C606 C589 1.574 . S
C606 H600 0.949 . S
C606 C610 1.368 . S
C607 C588 1.429 . S
C607 C601 1.429 . S
C607 C608 1.523 . S
C608 C589 1.368 . S
C608 C602 1.368 . S
C608 C607 1.523 . S
C609 C593 1.429 . S
C609 C605 1.429 . S
C609 C610 1.523 . S
C610 C594 1.368 . S
C610 C606 1.368 . S
C610 C609 1.523 . S
H611 C586 0.950 . S
H612 C588 0.950 . S
H613 C589 0.949 . S
H614 C591 0.950 . S
H615 C593 0.950 . S
C616 C617 1.349 . S
C616 C618 1.327 . S
C616 H641 0.950 . S
C617 C616 1.349 . S
C617 C633 1.349 . S
C618 C616 1.327 . S
C618 C637 1.429 . S
C618 H642 0.950 . S
C619 C636 1.574 . S
C619 C638 1.368 . S
C619 H643 0.949 . S
H620 C624 0.949 . S
C621 C622 1.349 . S
C621 C623 1.327 . S
C621 H644 0.950 . S
C622 C621 1.349 . S
C622 C634 1.349 . S
C623 C621 1.327 . S
C623 C639 1.429 . S
C623 H645 0.950 . S
C624 H620 0.949 . S
C624 C632 1.574 . S
C624 C640 1.368 . S
H625 C633 0.950 . S
H626 C631 0.950 . S
H627 C632 0.949 . S
H628 C634 0.950 . S
H629 C635 0.950 . S
H630 C636 0.949 . S
C631 H626 0.950 . S
C631 C633 1.327 . S
C631 C637 1.429 . S
C632 C624 1.574 . S
C632 H627 0.949 . S
C632 C638 1.368 . S
C633 C617 1.349 . S
C633 H625 0.950 . S
C633 C631 1.327 . S
C634 C622 1.349 . S
C634 H628 0.950 . S
C634 C635 1.327 . S
C635 H629 0.950 . S
C635 C634 1.327 . S
C635 C639 1.429 . S
C636 C619 1.574 . S
C636 H630 0.949 . S
C636 C640 1.368 . S
C637 C618 1.429 . S
C637 C631 1.429 . S
C637 C638 1.523 . S
C638 C619 1.368 . S
C638 C632 1.368 . S
C638 C637 1.523 . S
C639 C623 1.429 . S
C639 C635 1.429 . S
C639 C640 1.523 . S
C640 C624 1.368 . S
C640 C636 1.368 . S
C640 C639 1.523 . S
H641 C616 0.950 . S
H642 C618 0.950 . S
H643 C619 0.949 . S
H644 C621 0.950 . S
H645 C623 0.950 . S
C646 C647 1.349 . S
C646 C648 1.327 . S
C646 H671 0.950 . S
C647 C646 1.349 . S
C647 C663 1.349 . S
C648 C646 1.327 . S
C648 C667 1.429 . S
C648 H672 0.950 . S
C649 C666 1.574 . S
C649 C668 1.368 . S
C649 H673 0.949 . S
H650 C654 0.949 . S
C651 C652 1.349 . S
C651 C653 1.327 . S
C651 H674 0.950 . S
C652 C651 1.349 . S
C652 C664 1.349 . S
C653 C651 1.327 . S
C653 C669 1.429 . S
C653 H675 0.950 . S
C654 H650 0.949 . S
C654 C662 1.574 . S
C654 C670 1.368 . S
H655 C663 0.950 . S
H656 C661 0.950 . S
H657 C662 0.949 . S
H658 C664 0.950 . S
H659 C665 0.950 . S
H660 C666 0.949 . S
C661 H656 0.950 . S
C661 C663 1.327 . S
C661 C667 1.429 . S
C662 C654 1.574 . S
C662 H657 0.949 . S
C662 C668 1.368 . S
C663 C647 1.349 . S
C663 H655 0.950 . S
C663 C661 1.327 . S
C664 C652 1.349 . S
C664 H658 0.950 . S
C664 C665 1.327 . S
C665 H659 0.950 . S
C665 C664 1.327 . S
C665 C669 1.429 . S
C666 C649 1.574 . S
C666 H660 0.949 . S
C666 C670 1.368 . S
C667 C648 1.429 . S
C667 C661 1.429 . S
C667 C668 1.523 . S
C668 C649 1.368 . S
C668 C662 1.368 . S
C668 C667 1.523 . S
C669 C653 1.429 . S
C669 C665 1.429 . S
C669 C670 1.523 . S
C670 C654 1.368 . S
C670 C666 1.368 . S
C670 C669 1.523 . S
H671 C646 0.950 . S
H672 C648 0.950 . S
H673 C649 0.949 . S
H674 C651 0.950 . S
H675 C653 0.950 . S
C676 C677 1.349 . S
C676 C678 1.327 . S
C676 H701 0.950 . S
C677 C676 1.349 . S
C677 C693 1.349 . S
C678 C676 1.327 . S
C678 C697 1.429 . S
C678 H702 0.950 . S
C679 C696 1.574 . S
C679 C698 1.368 . S
C679 H703 0.949 . S
H680 C684 0.949 . S
C681 C682 1.349 . S
C681 C683 1.327 . S
C681 H704 0.950 . S
C682 C681 1.349 . S
C682 C694 1.349 . S
C683 C681 1.327 . S
C683 C699 1.429 . S
C683 H705 0.950 . S
C684 H680 0.949 . S
C684 C692 1.574 . S
C684 C700 1.368 . S
H685 C693 0.950 . S
H686 C691 0.950 . S
H687 C692 0.949 . S
H688 C694 0.950 . S
H689 C695 0.950 . S
H690 C696 0.949 . S
C691 H686 0.950 . S
C691 C693 1.327 . S
C691 C697 1.429 . S
C692 C684 1.574 . S
C692 H687 0.949 . S
C692 C698 1.368 . S
C693 C677 1.349 . S
C693 H685 0.950 . S
C693 C691 1.327 . S
C694 C682 1.349 . S
C694 H688 0.950 . S
C694 C695 1.327 . S
C695 H689 0.950 . S
C695 C694 1.327 . S
C695 C699 1.429 . S
C696 C679 1.574 . S
C696 H690 0.949 . S
C696 C700 1.368 . S
C697 C678 1.429 . S
C697 C691 1.429 . S
C697 C698 1.523 . S
C698 C679 1.368 . S
C698 C692 1.368 . S
C698 C697 1.523 . S
C699 C683 1.429 . S
C699 C695 1.429 . S
C699 C700 1.523 . S
C700 C684 1.368 . S
C700 C696 1.368 . S
C700 C699 1.523 . S
H701 C676 0.950 . S
H702 C678 0.950 . S
H703 C679 0.949 . S
H704 C681 0.950 . S
H705 C683 0.950 . S
C706 C707 1.349 . S
C706 C708 1.327 . S
C706 H731 0.950 . S
C707 C706 1.349 . S
C707 C723 1.349 . S
C708 C706 1.327 . S
C708 C727 1.429 . S
C708 H732 0.950 . S
C709 C726 1.574 . S
C709 C728 1.368 . S
C709 H733 0.949 . S
H710 C714 0.949 . S
C711 C712 1.349 . S
C711 C713 1.327 . S
C711 H734 0.950 . S
C712 C711 1.349 . S
C712 C724 1.349 . S
C713 C711 1.327 . S
C713 C729 1.429 . S
C713 H735 0.950 . S
C714 H710 0.949 . S
C714 C722 1.574 . S
C714 C730 1.368 . S
H715 C723 0.950 . S
H716 C721 0.950 . S
H717 C722 0.949 . S
H718 C724 0.950 . S
H719 C725 0.950 . S
H720 C726 0.949 . S
C721 H716 0.950 . S
C721 C723 1.327 . S
C721 C727 1.429 . S
C722 C714 1.574 . S
C722 H717 0.949 . S
C722 C728 1.368 . S
C723 C707 1.349 . S
C723 H715 0.950 . S
C723 C721 1.327 . S
C724 C712 1.349 . S
C724 H718 0.950 . S
C724 C725 1.327 . S
C725 H719 0.950 . S
C725 C724 1.327 . S
C725 C729 1.429 . S
C726 C709 1.574 . S
C726 H720 0.949 . S
C726 C730 1.368 . S
C727 C708 1.429 . S
C727 C721 1.429 . S
C727 C728 1.523 . S
C728 C709 1.368 . S
C728 C722 1.368 . S
C728 C727 1.523 . S
C729 C713 1.429 . S
C729 C725 1.429 . S
C729 C730 1.523 . S
C730 C714 1.368 . S
C730 C726 1.368 . S
C730 C729 1.523 . S
H731 C706 0.950 . S
H732 C708 0.950 . S
H733 C709 0.949 . S
H734 C711 0.950 . S
H735 C713 0.950 . S
C736 C737 1.349 . S
C736 C738 1.327 . S
C736 H761 0.950 . S
C737 C736 1.349 . S
C737 C753 1.349 . S
C738 C736 1.327 . S
C738 C757 1.429 . S
C738 H762 0.950 . S
C739 C756 1.574 . S
C739 C758 1.368 . S
C739 H763 0.949 . S
H740 C744 0.949 . S
C741 C742 1.349 . S
C741 C743 1.327 . S
C741 H764 0.950 . S
C742 C741 1.349 . S
C742 C754 1.349 . S
C743 C741 1.327 . S
C743 C759 1.429 . S
C743 H765 0.950 . S
C744 H740 0.949 . S
C744 C752 1.574 . S
C744 C760 1.368 . S
H745 C753 0.950 . S
H746 C751 0.950 . S
H747 C752 0.949 . S
H748 C754 0.950 . S
H749 C755 0.950 . S
H750 C756 0.949 . S
C751 H746 0.950 . S
C751 C753 1.327 . S
C751 C757 1.429 . S
C752 C744 1.574 . S
C752 H747 0.949 . S
C752 C758 1.368 . S
C753 C737 1.349 . S
C753 H745 0.950 . S
C753 C751 1.327 . S
C754 C742 1.349 . S
C754 H748 0.950 . S
C754 C755 1.327 . S
C755 H749 0.950 . S
C755 C754 1.327 . S
C755 C759 1.429 . S
C756 C739 1.574 . S
C756 H750 0.949 . S
C756 C760 1.368 . S
C757 C738 1.429 . S
C757 C751 1.429 . S
C757 C758 1.523 . S
C758 C739 1.368 . S
C758 C752 1.368 . S
C758 C757 1.523 . S
C759 C743 1.429 . S
C759 C755 1.429 . S
C759 C760 1.523 . S
C760 C744 1.368 . S
C760 C756 1.368 . S
C760 C759 1.523 . S
H761 C736 0.950 . S
H762 C738 0.950 . S
H763 C739 0.949 . S
H764 C741 0.950 . S
H765 C743 0.950 . S
C766 C767 1.349 . S
C766 C768 1.327 . S
C766 H791 0.950 . S
C767 C766 1.349 . S
C767 C783 1.349 . S
C768 C766 1.327 . S
C768 C787 1.429 . S
C768 H792 0.950 . S
C769 C786 1.574 . S
C769 C788 1.368 . S
C769 H793 0.949 . S
H770 C774 0.949 . S
C771 C772 1.349 . S
C771 C773 1.327 . S
C771 H794 0.950 . S
C772 C771 1.349 . S
C772 C784 1.349 . S
C773 C771 1.327 . S
C773 C789 1.429 . S
C773 H795 0.950 . S
C774 H770 0.949 . S
C774 C782 1.574 . S
C774 C790 1.368 . S
H775 C783 0.950 . S
H776 C781 0.950 . S
H777 C782 0.949 . S
H778 C784 0.950 . S
H779 C785 0.950 . S
H780 C786 0.949 . S
C781 H776 0.950 . S
C781 C783 1.327 . S
C781 C787 1.429 . S
C782 C774 1.574 . S
C782 H777 0.949 . S
C782 C788 1.368 . S
C783 C767 1.349 . S
C783 H775 0.950 . S
C783 C781 1.327 . S
C784 C772 1.349 . S
C784 H778 0.950 . S
C784 C785 1.327 . S
C785 H779 0.950 . S
C785 C784 1.327 . S
C785 C789 1.429 . S
C786 C769 1.574 . S
C786 H780 0.949 . S
C786 C790 1.368 . S
C787 C768 1.429 . S
C787 C781 1.429 . S
C787 C788 1.523 . S
C788 C769 1.368 . S
C788 C782 1.368 . S
C788 C787 1.523 . S
C789 C773 1.429 . S
C789 C785 1.429 . S
C789 C790 1.523 . S
C790 C774 1.368 . S
C790 C786 1.368 . S
C790 C789 1.523 . S
H791 C766 0.950 . S
H792 C768 0.950 . S
H793 C769 0.949 . S
H794 C771 0.950 . S
H795 C773 0.950 . S
C796 C797 1.349 . S
C796 C798 1.327 . S
C796 H821 0.950 . S
C797 C796 1.349 . S
C797 C813 1.349 . S
C798 C796 1.327 . S
C798 C817 1.429 . S
C798 H822 0.950 . S
C799 C816 1.574 . S
C799 C818 1.368 . S
C799 H823 0.949 . S
H800 C804 0.949 . S
C801 C802 1.349 . S
C801 C803 1.327 . S
C801 H824 0.950 . S
C802 C801 1.349 . S
C802 C814 1.349 . S
C803 C801 1.327 . S
C803 C819 1.429 . S
C803 H825 0.950 . S
C804 H800 0.949 . S
C804 C812 1.574 . S
C804 C820 1.368 . S
H805 C813 0.950 . S
H806 C811 0.950 . S
H807 C812 0.949 . S
H808 C814 0.950 . S
H809 C815 0.950 . S
H810 C816 0.949 . S
C811 H806 0.950 . S
C811 C813 1.327 . S
C811 C817 1.429 . S
C812 C804 1.574 . S
C812 H807 0.949 . S
C812 C818 1.368 . S
C813 C797 1.349 . S
C813 H805 0.950 . S
C813 C811 1.327 . S
C814 C802 1.349 . S
C814 H808 0.950 . S
C814 C815 1.327 . S
C815 H809 0.950 . S
C815 C814 1.327 . S
C815 C819 1.429 . S
C816 C799 1.574 . S
C816 H810 0.949 . S
C816 C820 1.368 . S
C817 C798 1.429 . S
C817 C811 1.429 . S
C817 C818 1.523 . S
C818 C799 1.368 . S
C818 C812 1.368 . S
C818 C817 1.523 . S
C819 C803 1.429 . S
C819 C815 1.429 . S
C819 C820 1.523 . S
C820 C804 1.368 . S
C820 C816 1.368 . S
C820 C819 1.523 . S
H821 C796 0.950 . S
H822 C798 0.950 . S
H823 C799 0.949 . S
H824 C801 0.950 . S
H825 C803 0.950 . S
C826 C827 1.349 . S
C826 C828 1.327 . S
C826 H851 0.950 . S
C827 C826 1.349 . S
C827 C843 1.349 . S
C828 C826 1.327 . S
C828 C847 1.429 . S
C828 H852 0.950 . S
C829 C846 1.574 . S
C829 C848 1.368 . S
C829 H853 0.949 . S
H830 C834 0.949 . S
C831 C832 1.349 . S
C831 C833 1.327 . S
C831 H854 0.950 . S
C832 C831 1.349 . S
C832 C844 1.349 . S
C833 C831 1.327 . S
C833 C849 1.429 . S
C833 H855 0.950 . S
C834 H830 0.949 . S
C834 C842 1.574 . S
C834 C850 1.368 . S
H835 C843 0.950 . S
H836 C841 0.950 . S
H837 C842 0.949 . S
H838 C844 0.950 . S
H839 C845 0.950 . S
H840 C846 0.949 . S
C841 H836 0.950 . S
C841 C843 1.327 . S
C841 C847 1.429 . S
C842 C834 1.574 . S
C842 H837 0.949 . S
C842 C848 1.368 . S
C843 C827 1.349 . S
C843 H835 0.950 . S
C843 C841 1.327 . S
C844 C832 1.349 . S
C844 H838 0.950 . S
C844 C845 1.327 . S
C845 H839 0.950 . S
C845 C844 1.327 . S
C845 C849 1.429 . S
C846 C829 1.574 . S
C846 H840 0.949 . S
C846 C850 1.368 . S
C847 C828 1.429 . S
C847 C841 1.429 . S
C847 C848 1.523 . S
C848 C829 1.368 . S
C848 C842 1.368 . S
C848 C847 1.523 . S
C849 C833 1.429 . S
C849 C845 1.429 . S
C849 C850 1.523 . S
C850 C834 1.368 . S
C850 C846 1.368 . S
C850 C849 1.523 . S
H851 C826 0.950 . S
H852 C828 0.950 . S
H853 C829 0.949 . S
H854 C831 0.950 . S
H855 C833 0.950 . S
C856 C857 1.349 . S
C856 C858 1.327 . S
C856 H881 0.950 . S
C857 C856 1.349 . S
C857 C873 1.349 . S
C858 C856 1.327 . S
C858 C877 1.429 . S
C858 H882 0.950 . S
C859 C876 1.574 . S
C859 C878 1.368 . S
C859 H883 0.949 . S
H860 C864 0.949 . S
C861 C862 1.349 . S
C861 C863 1.327 . S
C861 H884 0.950 . S
C862 C861 1.349 . S
C862 C874 1.349 . S
C863 C861 1.327 . S
C863 C879 1.429 . S
C863 H885 0.950 . S
C864 H860 0.949 . S
C864 C872 1.574 . S
C864 C880 1.368 . S
H865 C873 0.950 . S
H866 C871 0.950 . S
H867 C872 0.949 . S
H868 C874 0.950 . S
H869 C875 0.950 . S
H870 C876 0.949 . S
C871 H866 0.950 . S
C871 C873 1.327 . S
C871 C877 1.429 . S
C872 C864 1.574 . S
C872 H867 0.949 . S
C872 C878 1.368 . S
C873 C857 1.349 . S
C873 H865 0.950 . S
C873 C871 1.327 . S
C874 C862 1.349 . S
C874 H868 0.950 . S
C874 C875 1.327 . S
C875 H869 0.950 . S
C875 C874 1.327 . S
C875 C879 1.429 . S
C876 C859 1.574 . S
C876 H870 0.949 . S
C876 C880 1.368 . S
C877 C858 1.429 . S
C877 C871 1.429 . S
C877 C878 1.523 . S
C878 C859 1.368 . S
C878 C872 1.368 . S
C878 C877 1.523 . S
C879 C863 1.429 . S
C879 C875 1.429 . S
C879 C880 1.523 . S
C880 C864 1.368 . S
C880 C876 1.368 . S
C880 C879 1.523 . S
H881 C856 0.950 . S
H882 C858 0.950 . S
H883 C859 0.949 . S
H884 C861 0.950 . S
H885 C863 0.950 . S
C886 C887 1.349 . S
C886 C888 1.327 . S
C886 H911 0.950 . S
C887 C886 1.349 . S
C887 C903 1.349 . S
C888 C886 1.327 . S
C888 C907 1.429 . S
C888 H912 0.950 . S
C889 C906 1.574 . S
C889 C908 1.368 . S
C889 H913 0.949 . S
H890 C894 0.949 . S
C891 C892 1.349 . S
C891 C893 1.327 . S
C891 H914 0.950 . S
C892 C891 1.349 . S
C892 C904 1.349 . S
C893 C891 1.327 . S
C893 C909 1.429 . S
C893 H915 0.950 . S
C894 H890 0.949 . S
C894 C902 1.574 . S
C894 C910 1.368 . S
H895 C903 0.950 . S
H896 C901 0.950 . S
H897 C902 0.949 . S
H898 C904 0.950 . S
H899 C905 0.950 . S
H900 C906 0.949 . S
C901 H896 0.950 . S
C901 C903 1.327 . S
C901 C907 1.429 . S
C902 C894 1.574 . S
C902 H897 0.949 . S
C902 C908 1.368 . S
C903 C887 1.349 . S
C903 H895 0.950 . S
C903 C901 1.327 . S
C904 C892 1.349 . S
C904 H898 0.950 . S
C904 C905 1.327 . S
C905 H899 0.950 . S
C905 C904 1.327 . S
C905 C909 1.429 . S
C906 C889 1.574 . S
C906 H900 0.949 . S
C906 C910 1.368 . S
C907 C888 1.429 . S
C907 C901 1.429 . S
C907 C908 1.523 . S
C908 C889 1.368 . S
C908 C902 1.368 . S
C908 C907 1.523 . S
C909 C893 1.429 . S
C909 C905 1.429 . S
C909 C910 1.523 . S
C910 C894 1.368 . S
C910 C906 1.368 . S
C910 C909 1.523 . S
H911 C886 0.950 . S
H912 C888 0.950 . S
H913 C889 0.949 . S
H914 C891 0.950 . S
H915 C893 0.950 . S
C916 C917 1.349 . S
C916 C918 1.327 . S
C916 H941 0.950 . S
C917 C916 1.349 . S
C917 C933 1.349 . S
C918 C916 1.327 . S
C918 C937 1.429 . S
C918 H942 0.950 . S
C919 C936 1.574 . S
C919 C938 1.368 . S
C919 H943 0.949 . S
H920 C924 0.949 . S
C921 C922 1.349 . S
C921 C923 1.327 . S
C921 H944 0.950 . S
C922 C921 1.349 . S
C922 C934 1.349 . S
C923 C921 1.327 . S
C923 C939 1.429 . S
C923 H945 0.950 . S
C924 H920 0.949 . S
C924 C932 1.574 . S
C924 C940 1.368 . S
H925 C933 0.950 . S
H926 C931 0.950 . S
H927 C932 0.949 . S
H928 C934 0.950 . S
H929 C935 0.950 . S
H930 C936 0.949 . S
C931 H926 0.950 . S
C931 C933 1.327 . S
C931 C937 1.429 . S
C932 C924 1.574 . S
C932 H927 0.949 . S
C932 C938 1.368 . S
C933 C917 1.349 . S
C933 H925 0.950 . S
C933 C931 1.327 . S
C934 C922 1.349 . S
C934 H928 0.950 . S
C934 C935 1.327 . S
C935 H929 0.950 . S
C935 C934 1.327 . S
C935 C939 1.429 . S
C936 C919 1.574 . S
C936 H930 0.949 . S
C936 C940 1.368 . S
C937 C918 1.429 . S
C937 C931 1.429 . S
C937 C938 1.523 . S
C938 C919 1.368 . S
C938 C932 1.368 . S
C938 C937 1.523 . S
C939 C923 1.429 . S
C939 C935 1.429 . S
C939 C940 1.523 . S
C940 C924 1.368 . S
C940 C936 1.368 . S
C940 C939 1.523 . S
H941 C916 0.950 . S
H942 C918 0.950 . S
H943 C919 0.949 . S
H944 C921 0.950 . S
H945 C923 0.950 . S
C946 C947 1.349 . S
C946 C948 1.327 . S
C946 H971 0.950 . S
C947 C946 1.349 . S
C947 C963 1.349 . S
C948 C946 1.327 . S
C948 C967 1.429 . S
C948 H972 0.950 . S
C949 C966 1.574 . S
C949 C968 1.368 . S
C949 H973 0.949 . S
H950 C954 0.949 . S
C951 C952 1.349 . S
C951 C953 1.327 . S
C951 H974 0.950 . S
C952 C951 1.349 . S
C952 C964 1.349 . S
C953 C951 1.327 . S
C953 C969 1.429 . S
C953 H975 0.950 . S
C954 H950 0.949 . S
C954 C962 1.574 . S
C954 C970 1.368 . S
H955 C963 0.950 . S
H956 C961 0.950 . S
H957 C962 0.949 . S
H958 C964 0.950 . S
H959 C965 0.950 . S
H960 C966 0.949 . S
C961 H956 0.950 . S
C961 C963 1.327 . S
C961 C967 1.429 . S
C962 C954 1.574 . S
C962 H957 0.949 . S
C962 C968 1.368 . S
C963 C947 1.349 . S
C963 H955 0.950 . S
C963 C961 1.327 . S
C964 C952 1.349 . S
C964 H958 0.950 . S
C964 C965 1.327 . S
C965 H959 0.950 . S
C965 C964 1.327 . S
C965 C969 1.429 . S
C966 C949 1.574 . S
C966 H960 0.949 . S
C966 C970 1.368 . S
C967 C948 1.429 . S
C967 C961 1.429 . S
C967 C968 1.523 . S
C968 C949 1.368 . S
C968 C962 1.368 . S
C968 C967 1.523 . S
C969 C953 1.429 . S
C969 C965 1.429 . S
C969 C970 1.523 . S
C970 C954 1.368 . S
C970 C966 1.368 . S
C970 C969 1.523 . S
H971 C946 0.950 . S
H972 C948 0.950 . S
H973 C949 0.949 . S
H974 C951 0.950 . S
H975 C953 0.950 . S
C976 C977 1.349 . S
C976 C978 1.327 . S
C976 H1001 0.950 . S
C977 C976 1.349 . S
C977 C993 1.349 . S
C978 C976 1.327 . S
C978 C997 1.429 . S
C978 H1002 0.950 . S
C979 C996 1.574 . S
C979 C998 1.368 . S
C979 H1003 0.949 . S
H980 C984 0.949 . S
C981 C982 1.349 . S
C981 C983 1.327 . S
C981 H1004 0.950 . S
C982 C981 1.349 . S
C982 C994 1.349 . S
C983 C981 1.327 . S
C983 C999 1.429 . S
C983 H1005 0.950 . S
C984 H980 0.949 . S
C984 C992 1.574 . S
C984 C1000 1.368 . S
H985 C993 0.950 . S
H986 C991 0.950 . S
H987 C992 0.949 . S
H988 C994 0.950 . S
H989 C995 0.950 . S
H990 C996 0.949 . S
C991 H986 0.950 . S
C991 C993 1.327 . S
C991 C997 1.429 . S
C992 C984 1.574 . S
C992 H987 0.949 . S
C992 C998 1.368 . S
C993 C977 1.349 . S
C993 H985 0.950 . S
C993 C991 1.327 . S
C994 C982 1.349 . S
C994 H988 0.950 . S
C994 C995 1.327 . S
C995 H989 0.950 . S
C995 C994 1.327 . S
C995 C999 1.429 . S
C996 C979 1.574 . S
C996 H990 0.949 . S
C996 C1000 1.368 . S
C997 C978 1.429 . S
C997 C991 1.429 . S
C997 C998 1.523 . S
C998 C979 1.368 . S
C998 C992 1.368 . S
C998 C997 1.523 . S
C999 C983 1.429 . S
C999 C995 1.429 . S
C999 C1000 1.523 . S
C1000 C984 1.368 . S
C1000 C996 1.368 . S
C1000 C999 1.523 . S
H1001 C976 0.950 . S
H1002 C978 0.950 . S
H1003 C979 0.949 . S
H1004 C981 0.950 . S
H1005 C983 0.950 . S
C1006 C1007 1.349 . S
C1006 C1008 1.327 . S
C1006 H1031 0.950 . S
C1007 C1006 1.349 . S
C1007 C1023 1.349 . S
C1008 C1006 1.327 . S
C1008 C1027 1.429 . S
C1008 H1032 0.950 . S
C1009 C1026 1.574 . S
C1009 C1028 1.368 . S
C1009 H1033 0.949 . S
H1010 C1014 0.949 . S
C1011 C1012 1.349 . S
C1011 C1013 1.327 . S
C1011 H1034 0.950 . S
C1012 C1011 1.349 . S
C1012 C1024 1.349 . S
C1013 C1011 1.327 . S
C1013 C1029 1.429 . S
C1013 H1035 0.950 . S
C1014 H1010 0.949 . S
C1014 C1022 1.574 . S
C1014 C1030 1.368 . S
H1015 C1023 0.950 . S
H1016 C1021 0.950 . S
H1017 C1022 0.949 . S
H1018 C1024 0.950 . S
H1019 C1025 0.950 . S
H1020 C1026 0.949 . S
C1021 H1016 0.950 . S
C1021 C1023 1.327 . S
C1021 C1027 1.429 . S
C1022 C1014 1.574 . S
C1022 H1017 0.949 . S
C1022 C1028 1.368 . S
C1023 C1007 1.349 . S
C1023 H1015 0.950 . S
C1023 C1021 1.327 . S
C1024 C1012 1.349 . S
C1024 H1018 0.950 . S
C1024 C1025 1.327 . S
C1025 H1019 0.950 . S
C1025 C1024 1.327 . S
C1025 C1029 1.429 . S
C1026 C1009 1.574 . S
C1026 H1020 0.949 . S
C1026 C1030 1.368 . S
C1027 C1008 1.429 . S
C1027 C1021 1.429 . S
C1027 C1028 1.523 . S
C1028 C1009 1.368 . S
C1028 C1022 1.368 . S
C1028 C1027 1.523 . S
C1029 C1013 1.429 . S
C1029 C1025 1.429 . S
C1029 C1030 1.523 . S
C1030 C1014 1.368 . S
C1030 C1026 1.368 . S
C1030 C1029 1.523 . S
H1031 C1006 0.950 . S
H1032 C1008 0.950 . S
H1033 C1009 0.949 . S
H1034 C1011 0.950 . S
H1035 C1013 0.950 . S
C1036 C1037 1.349 . S
C1036 C1038 1.327 . S
C1036 H1061 0.950 . S
C1037 C1036 1.349 . S
C1037 C1053 1.349 . S
C1038 C1036 1.327 . S
C1038 C1057 1.429 . S
C1038 H1062 0.950 . S
C1039 C1056 1.574 . S
C1039 C1058 1.368 . S
C1039 H1063 0.949 . S
H1040 C1044 0.949 . S
C1041 C1042 1.349 . S
C1041 C1043 1.327 . S
C1041 H1064 0.950 . S
C1042 C1041 1.349 . S
C1042 C1054 1.349 . S
C1043 C1041 1.327 . S
C1043 C1059 1.429 . S
C1043 H1065 0.950 . S
C1044 H1040 0.949 . S
C1044 C1052 1.574 . S
C1044 C1060 1.368 . S
H1045 C1053 0.950 . S
H1046 C1051 0.950 . S
H1047 C1052 0.949 . S
H1048 C1054 0.950 . S
H1049 C1055 0.950 . S
H1050 C1056 0.949 . S
C1051 H1046 0.950 . S
C1051 C1053 1.327 . S
C1051 C1057 1.429 . S
C1052 C1044 1.574 . S
C1052 H1047 0.949 . S
C1052 C1058 1.368 . S
C1053 C1037 1.349 . S
C1053 H1045 0.950 . S
C1053 C1051 1.327 . S
C1054 C1042 1.349 . S
C1054 H1048 0.950 . S
C1054 C1055 1.327 . S
C1055 H1049 0.950 . S
C1055 C1054 1.327 . S
C1055 C1059 1.429 . S
C1056 C1039 1.574 . S
C1056 H1050 0.949 . S
C1056 C1060 1.368 . S
C1057 C1038 1.429 . S
C1057 C1051 1.429 . S
C1057 C1058 1.523 . S
C1058 C1039 1.368 . S
C1058 C1052 1.368 . S
C1058 C1057 1.523 . S
C1059 C1043 1.429 . S
C1059 C1055 1.429 . S
C1059 C1060 1.523 . S
C1060 C1044 1.368 . S
C1060 C1056 1.368 . S
C1060 C1059 1.523 . S
H1061 C1036 0.950 . S
H1062 C1038 0.950 . S
H1063 C1039 0.949 . S
H1064 C1041 0.950 . S
H1065 C1043 0.950 . S
C1066 C1067 1.349 . S
C1066 C1068 1.327 . S
C1066 H1091 0.950 . S
C1067 C1066 1.349 . S
C1067 C1083 1.349 . S
C1068 C1066 1.327 . S
C1068 C1087 1.429 . S
C1068 H1092 0.950 . S
C1069 C1086 1.574 . S
C1069 C1088 1.368 . S
C1069 H1093 0.949 . S
H1070 C1074 0.949 . S
C1071 C1072 1.349 . S
C1071 C1073 1.327 . S
C1071 H1094 0.950 . S
C1072 C1071 1.349 . S
C1072 C1084 1.349 . S
C1073 C1071 1.327 . S
C1073 C1089 1.429 . S
C1073 H1095 0.950 . S
C1074 H1070 0.949 . S
C1074 C1082 1.574 . S
C1074 C1090 1.368 . S
H1075 C1083 0.950 . S
H1076 C1081 0.950 . S
H1077 C1082 0.949 . S
H1078 C1084 0.950 . S
H1079 C1085 0.950 . S
H1080 C1086 0.949 . S
C1081 H1076 0.950 . S
C1081 C1083 1.327 . S
C1081 C1087 1.429 . S
C1082 C1074 1.574 . S
C1082 H1077 0.949 . S
C1082 C1088 1.368 . S
C1083 C1067 1.349 . S
C1083 H1075 0.950 . S
C1083 C1081 1.327 . S
C1084 C1072 1.349 . S
C1084 H1078 0.950 . S
C1084 C1085 1.327 . S
C1085 H1079 0.950 . S
C1085 C1084 1.327 . S
C1085 C1089 1.429 . S
C1086 C1069 1.574 . S
C1086 H1080 0.949 . S
C1086 C1090 1.368 . S
C1087 C1068 1.429 . S
C1087 C1081 1.429 . S
C1087 C1088 1.523 . S
C1088 C1069 1.368 . S
C1088 C1082 1.368 . S
C1088 C1087 1.523 . S
C1089 C1073 1.429 . S
C1089 C1085 1.429 . S
C1089 C1090 1.523 . S
C1090 C1074 1.368 . S
C1090 C1086 1.368 . S
C1090 C1089 1.523 . S
H1091 C1066 0.950 . S
H1092 C1068 0.950 . S
H1093 C1069 0.949 . S
H1094 C1071 0.950 . S
H1095 C1073 0.950 . S
C1096 C1097 1.349 . S
C1096 C1098 1.327 . S
C1096 H1121 0.950 . S
C1097 C1096 1.349 . S
C1097 C1113 1.349 . S
C1098 C1096 1.327 . S
C1098 C1117 1.429 . S
C1098 H1122 0.950 . S
C1099 C1116 1.574 . S
C1099 C1118 1.368 . S
C1099 H1123 0.949 . S
H1100 C1104 0.949 . S
C1101 C1102 1.349 . S
C1101 C1103 1.327 . S
C1101 H1124 0.950 . S
C1102 C1101 1.349 . S
C1102 C1114 1.349 . S
C1103 C1101 1.327 . S
C1103 C1119 1.429 . S
C1103 H1125 0.950 . S
C1104 H1100 0.949 . S
C1104 C1112 1.574 . S
C1104 C1120 1.368 . S
H1105 C1113 0.950 . S
H1106 C1111 0.950 . S
H1107 C1112 0.949 . S
H1108 C1114 0.950 . S
H1109 C1115 0.950 . S
H1110 C1116 0.949 . S
C1111 H1106 0.950 . S
C1111 C1113 1.327 . S
C1111 C1117 1.429 . S
C1112 C1104 1.574 . S
C1112 H1107 0.949 . S
C1112 C1118 1.368 . S
C1113 C1097 1.349 . S
C1113 H1105 0.950 . S
C1113 C1111 1.327 . S
C1114 C1102 1.349 . S
C1114 H1108 0.950 . S
C1114 C1115 1.327 . S
C1115 H1109 0.950 . S
C1115 C1114 1.327 . S
C1115 C1119 1.429 . S
C1116 C1099 1.574 . S
C1116 H1110 0.949 . S
C1116 C1120 1.368 . S
C1117 C1098 1.429 . S
C1117 C1111 1.429 . S
C1117 C1118 1.523 . S
C1118 C1099 1.368 . S
C1118 C1112 1.368 . S
C1118 C1117 1.523 . S
C1119 C1103 1.429 . S
C1119 C1115 1.429 . S
C1119 C1120 1.523 . S
C1120 C1104 1.368 . S
C1120 C1116 1.368 . S
C1120 C1119 1.523 . S
H1121 C1096 0.950 . S
H1122 C1098 0.950 . S
H1123 C1099 0.949 . S
H1124 C1101 0.950 . S
H1125 C1103 0.950 . S
C1126 C1127 1.349 . S
C1126 C1128 1.327 . S
C1126 H1151 0.950 . S
C1127 C1126 1.349 . S
C1127 C1143 1.349 . S
C1128 C1126 1.327 . S
C1128 C1147 1.429 . S
C1128 H1152 0.950 . S
C1129 C1146 1.574 . S
C1129 C1148 1.368 . S
C1129 H1153 0.949 . S
H1130 C1134 0.949 . S
C1131 C1132 1.349 . S
C1131 C1133 1.327 . S
C1131 H1154 0.950 . S
C1132 C1131 1.349 . S
C1132 C1144 1.349 . S
C1133 C1131 1.327 . S
C1133 C1149 1.429 . S
C1133 H1155 0.950 . S
C1134 H1130 0.949 . S
C1134 C1142 1.574 . S
C1134 C1150 1.368 . S
H1135 C1143 0.950 . S
H1136 C1141 0.950 . S
H1137 C1142 0.949 . S
H1138 C1144 0.950 . S
H1139 C1145 0.950 . S
H1140 C1146 0.949 . S
C1141 H1136 0.950 . S
C1141 C1143 1.327 . S
C1141 C1147 1.429 . S
C1142 C1134 1.574 . S
C1142 H1137 0.949 . S
C1142 C1148 1.368 . S
C1143 C1127 1.349 . S
C1143 H1135 0.950 . S
C1143 C1141 1.327 . S
C1144 C1132 1.349 . S
C1144 H1138 0.950 . S
C1144 C1145 1.327 . S
C1145 H1139 0.950 . S
C1145 C1144 1.327 . S
C1145 C1149 1.429 . S
C1146 C1129 1.574 . S
C1146 H1140 0.949 . S
C1146 C1150 1.368 . S
C1147 C1128 1.429 . S
C1147 C1141 1.429 . S
C1147 C1148 1.523 . S
C1148 C1129 1.368 . S
C1148 C1142 1.368 . S
C1148 C1147 1.523 . S
C1149 C1133 1.429 . S
C1149 C1145 1.429 . S
C1149 C1150 1.523 . S
C1150 C1134 1.368 . S
C1150 C1146 1.368 . S
C1150 C1149 1.523 . S
H1151 C1126 0.950 . S
H1152 C1128 0.950 . S
H1153 C1129 0.949 . S
H1154 C1131 0.950 . S
H1155 C1133 0.950 . S
C1156 C1157 1.349 . S
C1156 C1158 1.327 . S
C1156 H1181 0.950 . S
C1157 C1156 1.349 . S
C1157 C1173 1.349 . S
C1158 C1156 1.327 . S
C1158 C1177 1.429 . S
C1158 H1182 0.950 . S
C1159 C1176 1.574 . S
C1159 C1178 1.368 . S
C1159 H1183 0.949 . S
H1160 C1164 0.949 . S
C1161 C1162 1.349 . S
C1161 C1163 1.327 . S
C1161 H1184 0.950 . S
C1162 C1161 1.349 . S
C1162 C1174 1.349 . S
C1163 C1161 1.327 . S
C1163 C1179 1.429 . S
C1163 H1185 0.950 . S
C1164 H1160 0.949 . S
C1164 C1172 1.574 . S
C1164 C1180 1.368 . S
H1165 C1173 0.950 . S
H1166 C1171 0.950 . S
H1167 C1172 0.949 . S
H1168 C1174 0.950 . S
H1169 C1175 0.950 . S
H1170 C1176 0.949 . S
C1171 H1166 0.950 . S
C1171 C1173 1.327 . S
C1171 C1177 1.429 . S
C1172 C1164 1.574 . S
C1172 H1167 0.949 . S
C1172 C1178 1.368 . S
C1173 C1157 1.349 . S
C1173 H1165 0.950 . S
C1173 C1171 1.327 . S
C1174 C1162 1.349 . S
C1174 H1168 0.950 . S
C1174 C1175 1.327 . S
C1175 H1169 0.950 . S
C1175 C1174 1.327 . S
C1175 C1179 1.429 . S
C1176 C1159 1.574 . S
C1176 H1170 0.949 . S
C1176 C1180 1.368 . S
C1177 C1158 1.429 . S
C1177 C1171 1.429 . S
C1177 C1178 1.523 . S
C1178 C1159 1.368 . S
C1178 C1172 1.368 . S
C1178 C1177 1.523 . S
C1179 C1163 1.429 . S
C1179 C1175 1.429 . S
C1179 C1180 1.523 . S
C1180 C1164 1.368 . S
C1180 C1176 1.368 . S
C1180 C1179 1.523 . S
H1181 C1156 0.950 . S
H1182 C1158 0.950 . S
H1183 C1159 0.949 . S
H1184 C1161 0.950 . S
H1185 C1163 0.950 . S
C1186 C1187 1.349 . S
C1186 C1188 1.327 . S
C1186 H1211 0.950 . S
C1187 C1186 1.349 . S
C1187 C1203 1.349 . S
C1188 C1186 1.327 . S
C1188 C1207 1.429 . S
C1188 H1212 0.950 . S
C1189 C1206 1.574 . S
C1189 C1208 1.368 . S
C1189 H1213 0.949 . S
H1190 C1194 0.949 . S
C1191 C1192 1.349 . S
C1191 C1193 1.327 . S
C1191 H1214 0.950 . S
C1192 C1191 1.349 . S
C1192 C1204 1.349 . S
C1193 C1191 1.327 . S
C1193 C1209 1.429 . S
C1193 H1215 0.950 . S
C1194 H1190 0.949 . S
C1194 C1202 1.574 . S
C1194 C1210 1.368 . S
H1195 C1203 0.950 . S
H1196 C1201 0.950 . S
H1197 C1202 0.949 . S
H1198 C1204 0.950 . S
H1199 C1205 0.950 . S
H1200 C1206 0.949 . S
C1201 H1196 0.950 . S
C1201 C1203 1.327 . S
C1201 C1207 1.429 . S
C1202 C1194 1.574 . S
C1202 H1197 0.949 . S
C1202 C1208 1.368 . S
C1203 C1187 1.349 . S
C1203 H1195 0.950 . S
C1203 C1201 1.327 . S
C1204 C1192 1.349 . S
C1204 H1198 0.950 . S
C1204 C1205 1.327 . S
C1205 H1199 0.950 . S
C1205 C1204 1.327 . S
C1205 C1209 1.429 . S
C1206 C1189 1.574 . S
C1206 H1200 0.949 . S
C1206 C1210 1.368 . S
C1207 C1188 1.429 . S
C1207 C1201 1.429 . S
C1207 C1208 1.523 . S
C1208 C1189 1.368 . S
C1208 C1202 1.368 . S
C1208 C1207 1.523 . S
C1209 C1193 1.429 . S
C1209 C1205 1.429 . S
C1209 C1210 1.523 . S
C1210 C1194 1.368 . S
C1210 C1206 1.368 . S
C1210 C1209 1.523 . S
H1211 C1186 0.950 . S
H1212 C1188 0.950 . S
H1213 C1189 0.949 . S
H1214 C1191 0.950 . S
H1215 C1193 0.950 . S
C1216 C1217 1.349 . S
C1216 C1218 1.327 . S
C1216 H1241 0.950 . S
C1217 C1216 1.349 . S
C1217 C1233 1.349 . S
C1218 C1216 1.327 . S
C1218 C1237 1.429 . S
C1218 H1242 0.950 . S
C1219 C1236 1.574 . S
C1219 C1238 1.368 . S
C1219 H1243 0.949 . S
H1220 C1224 0.949 . S
C1221 C1222 1.349 . S
C1221 C1223 1.327 . S
C1221 H1244 0.950 . S
C1222 C1221 1.349 . S
C1222 C1234 1.349 . S
C1223 C1221 1.327 . S
C1223 C1239 1.429 . S
C1223 H1245 0.950 . S
C1224 H1220 0.949 . S
C1224 C1232 1.574 . S
C1224 C1240 1.368 . S
H1225 C1233 0.950 . S
H1226 C1231 0.950 . S
H1227 C1232 0.949 . S
H1228 C1234 0.950 . S
H1229 C1235 0.950 . S
H1230 C1236 0.949 . S
C1231 H1226 0.950 . S
C1231 C1233 1.327 . S
C1231 C1237 1.429 . S
C1232 C1224 1.574 . S
C1232 H1227 0.949 . S
C1232 C1238 1.368 . S
C1233 C1217 1.349 . S
C1233 H1225 0.950 . S
C1233 C1231 1.327 . S
C1234 C1222 1.349 . S
C1234 H1228 0.950 . S
C1234 C1235 1.327 . S
C1235 H1229 0.950 . S
C1235 C1234 1.327 . S
C1235 C1239 1.429 . S
C1236 C1219 1.574 . S
C1236 H1230 0.949 . S
C1236 C1240 1.368 . S
C1237 C1218 1.429 . S
C1237 C1231 1.429 . S
C1237 C1238 1.523 . S
C1238 C1219 1.368 . S
C1238 C1232 1.368 . S
C1238 C1237 1.523 . S
C1239 C1223 1.429 . S
C1239 C1235 1.429 . S
C1239 C1240 1.523 . S
C1240 C1224 1.368 . S
C1240 C1236 1.368 . S
C1240 C1239 1.523 . S
H1241 C1216 0.950 . S
H1242 C1218 0.950 . S
H1243 C1219 0.949 . S
H1244 C1221 0.950 . S
H1245 C1223 0.950 . S
C1246 C1247 1.349 . S
C1246 C1248 1.327 . S
C1246 H1271 0.950 . S
C1247 C1246 1.349 . S
C1247 C1263 1.349 . S
C1248 C1246 1.327 . S
C1248 C1267 1.429 . S
C1248 H1272 0.950 . S
C1249 C1266 1.574 . S
C1249 C1268 1.368 . S
C1249 H1273 0.949 . S
H1250 C1254 0.949 . S
C1251 C1252 1.349 . S
C1251 C1253 1.327 . S
C1251 H1274 0.950 . S
C1252 C1251 1.349 . S
C1252 C1264 1.349 . S
C1253 C1251 1.327 . S
C1253 C1269 1.429 . S
C1253 H1275 0.950 . S
C1254 H1250 0.949 . S
C1254 C1262 1.574 . S
C1254 C1270 1.368 . S
H1255 C1263 0.950 . S
H1256 C1261 0.950 . S
H1257 C1262 0.949 . S
H1258 C1264 0.950 . S
H1259 C1265 0.950 . S
H1260 C1266 0.949 . S
C1261 H1256 0.950 . S
C1261 C1263 1.327 . S
C1261 C1267 1.429 . S
C1262 C1254 1.574 . S
C1262 H1257 0.949 . S
C1262 C1268 1.368 . S
C1263 C1247 1.349 . S
C1263 H1255 0.950 . S
C1263 C1261 1.327 . S
C1264 C1252 1.349 . S
C1264 H1258 0.950 . S
C1264 C1265 1.327 . S
C1265 H1259 0.950 . S
C1265 C1264 1.327 . S
C1265 C1269 1.429 . S
C1266 C1249 1.574 . S
C1266 H1260 0.949 . S
C1266 C1270 1.368 . S
C1267 C1248 1.429 . S
C1267 C1261 1.429 . S
C1267 C1268 1.523 . S
C1268 C1249 1.368 . S
C1268 C1262 1.368 . S
C1268 C1267 1.523 . S
C1269 C1253 1.429 . S
C1269 C1265 1.429 . S
C1269 C1270 1.523 . S
C1270 C1254 1.368 . S
C1270 C1266 1.368 . S
C1270 C1269 1.523 . S
H1271 C1246 0.950 . S
H1272 C1248 0.950 . S
H1273 C1249 0.949 . S
H1274 C1251 0.950 . S
H1275 C1253 0.950 . S
C1276 C1277 1.349 . S
C1276 C1278 1.327 . S
C1276 H1301 0.950 . S
C1277 C1276 1.349 . S
C1277 C1293 1.349 . S
C1278 C1276 1.327 . S
C1278 C1297 1.429 . S
C1278 H1302 0.950 . S
C1279 C1296 1.574 . S
C1279 C1298 1.368 . S
C1279 H1303 0.949 . S
H1280 C1284 0.949 . S
C1281 C1282 1.349 . S
C1281 C1283 1.327 . S
C1281 H1304 0.950 . S
C1282 C1281 1.349 . S
C1282 C1294 1.349 . S
C1283 C1281 1.327 . S
C1283 C1299 1.429 . S
C1283 H1305 0.950 . S
C1284 H1280 0.949 . S
C1284 C1292 1.574 . S
C1284 C1300 1.368 . S
H1285 C1293 0.950 . S
H1286 C1291 0.950 . S
H1287 C1292 0.949 . S
H1288 C1294 0.950 . S
H1289 C1295 0.950 . S
H1290 C1296 0.949 . S
C1291 H1286 0.950 . S
C1291 C1293 1.327 . S
C1291 C1297 1.429 . S
C1292 C1284 1.574 . S
C1292 H1287 0.949 . S
C1292 C1298 1.368 . S
C1293 C1277 1.349 . S
C1293 H1285 0.950 . S
C1293 C1291 1.327 . S
C1294 C1282 1.349 . S
C1294 H1288 0.950 . S
C1294 C1295 1.327 . S
C1295 H1289 0.950 . S
C1295 C1294 1.327 . S
C1295 C1299 1.429 . S
C1296 C1279 1.574 . S
C1296 H1290 0.949 . S
C1296 C1300 1.368 . S
C1297 C1278 1.429 . S
C1297 C1291 1.429 . S
C1297 C1298 1.523 . S
C1298 C1279 1.368 . S
C1298 C1292 1.368 . S
C1298 C1297 1.523 . S
C1299 C1283 1.429 . S
C1299 C1295 1.429 . S
C1299 C1300 1.523 . S
C1300 C1284 1.368 . S
C1300 C1296 1.368 . S
C1300 C1299 1.523 . S
H1301 C1276 0.950 . S
H1302 C1278 0.950 . S
H1303 C1279 0.949 . S
H1304 C1281 0.950 . S
H1305 C1283 0.950 . S
C1306 C1307 1.349 . S
C1306 C1308 1.327 . S
C1306 H1331 0.950 . S
C1307 C1306 1.349 . S
C1307 C1323 1.349 . S
C1308 C1306 1.327 . S
C1308 C1327 1.429 . S
C1308 H1332 0.950 . S
C1309 C1326 1.574 . S
C1309 C1328 1.368 . S
C1309 H1333 0.949 . S
H1310 C1314 0.949 . S
C1311 C1312 1.349 . S
C1311 C1313 1.327 . S
C1311 H1334 0.950 . S
C1312 C1311 1.349 . S
C1312 C1324 1.349 . S
C1313 C1311 1.327 . S
C1313 C1329 1.429 . S
C1313 H1335 0.950 . S
C1314 H1310 0.949 . S
C1314 C1322 1.574 . S
C1314 C1330 1.368 . S
H1315 C1323 0.950 . S
H1316 C1321 0.950 . S
H1317 C1322 0.949 . S
H1318 C1324 0.950 . S
H1319 C1325 0.950 . S
H1320 C1326 0.949 . S
C1321 H1316 0.950 . S
C1321 C1323 1.327 . S
C1321 C1327 1.429 . S
C1322 C1314 1.574 . S
C1322 H1317 0.949 . S
C1322 C1328 1.368 . S
C1323 C1307 1.349 . S
C1323 H1315 0.950 . S
C1323 C1321 1.327 . S
C1324 C1312 1.349 . S
C1324 H1318 0.950 . S
C1324 C1325 1.327 . S
C1325 H1319 0.950 . S
C1325 C1324 1.327 . S
C1325 C1329 1.429 . S
C1326 C1309 1.574 . S
C1326 H1320 0.949 . S
C1326 C1330 1.368 . S
C1327 C1308 1.429 . S
C1327 C1321 1.429 . S
C1327 C1328 1.523 . S
C1328 C1309 1.368 . S
C1328 C1322 1.368 . S
C1328 C1327 1.523 . S
C1329 C1313 1.429 . S
C1329 C1325 1.429 . S
C1329 C1330 1.523 . S
C1330 C1314 1.368 . S
C1330 C1326 1.368 . S
C1330 C1329 1.523 . S
H1331 C1306 0.950 . S
H1332 C1308 0.950 . S
H1333 C1309 0.949 . S
H1334 C1311 0.950 . S
H1335 C1313 0.950 . S
C1336 C1337 1.349 . S
C1336 C1338 1.327 . S
C1336 H1361 0.950 . S
C1337 C1336 1.349 . S
C1337 C1353 1.349 . S
C1338 C1336 1.327 . S
C1338 C1357 1.429 . S
C1338 H1362 0.950 . S
C1339 C1356 1.574 . S
C1339 C1358 1.368 . S
C1339 H1363 0.949 . S
H1340 C1344 0.949 . S
C1341 C1342 1.349 . S
C1341 C1343 1.327 . S
C1341 H1364 0.950 . S
C1342 C1341 1.349 . S
C1342 C1354 1.349 . S
C1343 C1341 1.327 . S
C1343 C1359 1.429 . S
C1343 H1365 0.950 . S
C1344 H1340 0.949 . S
C1344 C1352 1.574 . S
C1344 C1360 1.368 . S
H1345 C1353 0.950 . S
H1346 C1351 0.950 . S
H1347 C1352 0.949 . S
H1348 C1354 0.950 . S
H1349 C1355 0.950 . S
H1350 C1356 0.949 . S
C1351 H1346 0.950 . S
C1351 C1353 1.327 . S
C1351 C1357 1.429 . S
C1352 C1344 1.574 . S
C1352 H1347 0.949 . S
C1352 C1358 1.368 . S
C1353 C1337 1.349 . S
C1353 H1345 0.950 . S
C1353 C1351 1.327 . S
C1354 C1342 1.349 . S
C1354 H1348 0.950 . S
C1354 C1355 1.327 . S
C1355 H1349 0.950 . S
C1355 C1354 1.327 . S
C1355 C1359 1.429 . S
C1356 C1339 1.574 . S
C1356 H1350 0.949 . S
C1356 C1360 1.368 . S
C1357 C1338 1.429 . S
C1357 C1351 1.429 . S
C1357 C1358 1.523 . S
C1358 C1339 1.368 . S
C1358 C1352 1.368 . S
C1358 C1357 1.523 . S
C1359 C1343 1.429 . S
C1359 C1355 1.429 . S
C1359 C1360 1.523 . S
C1360 C1344 1.368 . S
C1360 C1356 1.368 . S
C1360 C1359 1.523 . S
H1361 C1336 0.950 . S
H1362 C1338 0.950 . S
H1363 C1339 0.949 . S
H1364 C1341 0.950 . S
H1365 C1343 0.950 . S
C1366 C1367 1.349 . S
C1366 C1368 1.327 . S
C1366 H1391 0.950 . S
C1367 C1366 1.349 . S
C1367 C1383 1.349 . S
C1368 C1366 1.327 . S
C1368 C1387 1.429 . S
C1368 H1392 0.950 . S
C1369 C1386 1.574 . S
C1369 C1388 1.368 . S
C1369 H1393 0.949 . S
H1370 C1374 0.949 . S
C1371 C1372 1.349 . S
C1371 C1373 1.327 . S
C1371 H1394 0.950 . S
C1372 C1371 1.349 . S
C1372 C1384 1.349 . S
C1373 C1371 1.327 . S
C1373 C1389 1.429 . S
C1373 H1395 0.950 . S
C1374 H1370 0.949 . S
C1374 C1382 1.574 . S
C1374 C1390 1.368 . S
H1375 C1383 0.950 . S
H1376 C1381 0.950 . S
H1377 C1382 0.949 . S
H1378 C1384 0.950 . S
H1379 C1385 0.950 . S
H1380 C1386 0.949 . S
C1381 H1376 0.950 . S
C1381 C1383 1.327 . S
C1381 C1387 1.429 . S
C1382 C1374 1.574 . S
C1382 H1377 0.949 . S
C1382 C1388 1.368 . S
C1383 C1367 1.349 . S
C1383 H1375 0.950 . S
C1383 C1381 1.327 . S
C1384 C1372 1.349 . S
C1384 H1378 0.950 . S
C1384 C1385 1.327 . S
C1385 H1379 0.950 . S
C1385 C1384 1.327 . S
C1385 C1389 1.429 . S
C1386 C1369 1.574 . S
C1386 H1380 0.949 . S
C1386 C1390 1.368 . S
C1387 C1368 1.429 . S
C1387 C1381 1.429 . S
C1387 C1388 1.523 . S
C1388 C1369 1.368 . S
C1388 C1382 1.368 . S
C1388 C1387 1.523 . S
C1389 C1373 1.429 . S
C1389 C1385 1.429 . S
C1389 C1390 1.523 . S
C1390 C1374 1.368 . S
C1390 C1386 1.368 . S
C1390 C1389 1.523 . S
H1391 C1366 0.950 . S
H1392 C1368 0.950 . S
H1393 C1369 0.949 . S
H1394 C1371 0.950 . S
H1395 C1373 0.950 . S
C1396 C1397 1.349 . S
C1396 C1398 1.327 . S
C1396 H1421 0.950 . S
C1397 C1396 1.349 . S
C1397 C1413 1.349 . S
C1398 C1396 1.327 . S
C1398 C1417 1.429 . S
C1398 H1422 0.950 . S
C1399 C1416 1.574 . S
C1399 C1418 1.368 . S
C1399 H1423 0.949 . S
H1400 C1404 0.949 . S
C1401 C1402 1.349 . S
C1401 C1403 1.327 . S
C1401 H1424 0.950 . S
C1402 C1401 1.349 . S
C1402 C1414 1.349 . S
C1403 C1401 1.327 . S
C1403 C1419 1.429 . S
C1403 H1425 0.950 . S
C1404 H1400 0.949 . S
C1404 C1412 1.574 . S
C1404 C1420 1.368 . S
H1405 C1413 0.950 . S
H1406 C1411 0.950 . S
H1407 C1412 0.949 . S
H1408 C1414 0.950 . S
H1409 C1415 0.950 . S
H1410 C1416 0.949 . S
C1411 H1406 0.950 . S
C1411 C1413 1.327 . S
C1411 C1417 1.429 . S
C1412 C1404 1.574 . S
C1412 H1407 0.949 . S
C1412 C1418 1.368 . S
C1413 C1397 1.349 . S
C1413 H1405 0.950 . S
C1413 C1411 1.327 . S
C1414 C1402 1.349 . S
C1414 H1408 0.950 . S
C1414 C1415 1.327 . S
C1415 H1409 0.950 . S
C1415 C1414 1.327 . S
C1415 C1419 1.429 . S
C1416 C1399 1.574 . S
C1416 H1410 0.949 . S
C1416 C1420 1.368 . S
C1417 C1398 1.429 . S
C1417 C1411 1.429 . S
C1417 C1418 1.523 . S
C1418 C1399 1.368 . S
C1418 C1412 1.368 . S
C1418 C1417 1.523 . S
C1419 C1403 1.429 . S
C1419 C1415 1.429 . S
C1419 C1420 1.523 . S
C1420 C1404 1.368 . S
C1420 C1416 1.368 . S
C1420 C1419 1.523 . S
H1421 C1396 0.950 . S
H1422 C1398 0.950 . S
H1423 C1399 0.949 . S
H1424 C1401 0.950 . S
H1425 C1403 0.950 . S
C1426 C1427 1.349 . S
C1426 C1428 1.327 . S
C1426 H1451 0.950 . S
C1427 C1426 1.349 . S
C1427 C1443 1.349 . S
C1428 C1426 1.327 . S
C1428 C1447 1.429 . S
C1428 H1452 0.950 . S
C1429 C1446 1.574 . S
C1429 C1448 1.368 . S
C1429 H1453 0.949 . S
H1430 C1434 0.949 . S
C1431 C1432 1.349 . S
C1431 C1433 1.327 . S
C1431 H1454 0.950 . S
C1432 C1431 1.349 . S
C1432 C1444 1.349 . S
C1433 C1431 1.327 . S
C1433 C1449 1.429 . S
C1433 H1455 0.950 . S
C1434 H1430 0.949 . S
C1434 C1442 1.574 . S
C1434 C1450 1.368 . S
H1435 C1443 0.950 . S
H1436 C1441 0.950 . S
H1437 C1442 0.949 . S
H1438 C1444 0.950 . S
H1439 C1445 0.950 . S
H1440 C1446 0.949 . S
C1441 H1436 0.950 . S
C1441 C1443 1.327 . S
C1441 C1447 1.429 . S
C1442 C1434 1.574 . S
C1442 H1437 0.949 . S
C1442 C1448 1.368 . S
C1443 C1427 1.349 . S
C1443 H1435 0.950 . S
C1443 C1441 1.327 . S
C1444 C1432 1.349 . S
C1444 H1438 0.950 . S
C1444 C1445 1.327 . S
C1445 H1439 0.950 . S
C1445 C1444 1.327 . S
C1445 C1449 1.429 . S
C1446 C1429 1.574 . S
C1446 H1440 0.949 . S
C1446 C1450 1.368 . S
C1447 C1428 1.429 . S
C1447 C1441 1.429 . S
C1447 C1448 1.523 . S
C1448 C1429 1.368 . S
C1448 C1442 1.368 . S
C1448 C1447 1.523 . S
C1449 C1433 1.429 . S
C1449 C1445 1.429 . S
C1449 C1450 1.523 . S
C1450 C1434 1.368 . S
C1450 C1446 1.368 . S
C1450 C1449 1.523 . S
H1451 C1426 0.950 . S
H1452 C1428 0.950 . S
H1453 C1429 0.949 . S
H1454 C1431 0.950 . S
H1455 C1433 0.950 . S
C502 C385 1.502 . S
C497 C36 1.502 . S
C532 C411 1.501 . S
C527 C93 1.497 . S
C562 C425 1.502 . S
C557 C132 1.502 . S
C592 C427 1.501 . S
C587 C174 1.498 . S
C617 C213 1.502 . S
C622 C424 1.501 . S
C652 C426 1.501 . S
C647 C285 1.497 . S
C682 C384 1.502 . S
C677 C324 1.502 . S
C712 C410 1.501 . S
C707 C366 1.498 . S
C742 C412 1.502 . S
C737 C357 1.502 . S
C772 C438 1.501 . S
C767 C222 1.498 . S
C802 C396 1.502 . S
C797 C276 1.502 . S
C832 C398 1.501 . S
C827 C333 1.498 . S
C862 C397 1.502 . S
C857 C84 1.502 . S
C892 C399 1.501 . S
C887 C141 1.498 . S
C922 C413 1.502 . S
C917 C165 1.501 . S
C952 C439 1.501 . S
C947 C45 1.498 . S
C982 C441 1.502 . S
C977 C372 1.505 . S
C1007 C237 1.497 . S
C1012 C467 1.504 . S
C1037 C261 1.502 . S
C1042 C480 1.505 . S
C1067 C318 1.498 . S
C1072 C483 1.504 . S
C1097 C69 1.502 . S
C1102 C481 1.498 . S
C1127 C126 1.498 . S
C1132 C482 1.498 . S
C1157 C180 1.502 . S
C1162 C440 1.498 . S
C1192 C466 1.501 . S
C1187 C30 1.494 . S
C1222 C469 1.502 . S
C1217 C21 1.498 . S
C1247 C78 1.497 . S
C1252 C494 1.498 . S
C1277 C117 1.502 . S
C1282 C452 1.498 . S
C1307 C189 1.498 . S
C1312 C454 1.497 . S
C1342 C453 1.502 . S
C1337 C228 1.506 . S
C1372 C455 1.501 . S
C1367 C270 1.501 . S
C1397 C309 1.502 . S
C1402 C468 1.505 . S
C1432 C495 1.501 . S
C1427 C381 1.502 . S
