# Generated by pormake.
# Topology eea, (3,6)-cn, num edge types: 1
# Building blocks:
#     Node 0, Type 0, BuildingBlock: KAKCAD_clean_linker_0, # of connection points: 3
#     Node 1, Type 0, BuildingBlock: KAKCAD_clean_linker_0, # of connection points: 3
#     Node 2, Type 0, BuildingBlock: KAKCAD_clean_linker_0, # of connection points: 3
#     Node 3, Type 0, BuildingBlock: KAKCAD_clean_linker_0, # of connection points: 3
#     Node 4, Type 0, BuildingBlock: KAKCAD_clean_linker_0, # of connection points: 3
#     Node 5, Type 0, BuildingBlock: KAKCAD_clean_linker_0, # of connection points: 3
#     Node 6, Type 0, BuildingBlock: KAKCAD_clean_linker_0, # of connection points: 3
#     Node 7, Type 0, BuildingBlock: KAKCAD_clean_linker_0, # of connection points: 3
#     Node 8, Type 0, BuildingBlock: KAKCAD_clean_linker_0, # of connection points: 3
#     Node 9, Type 0, BuildingBlock: KAKCAD_clean_linker_0, # of connection points: 3
#     Node 10, Type 0, BuildingBlock: KAKCAD_clean_linker_0, # of connection points: 3
#     Node 11, Type 0, BuildingBlock: KAKCAD_clean_linker_0, # of connection points: 3
#     Node 12, Type 0, BuildingBlock: KAKCAD_clean_linker_0, # of connection points: 3
#     Node 13, Type 0, BuildingBlock: KAKCAD_clean_linker_0, # of connection points: 3
#     Node 14, Type 0, BuildingBlock: KAKCAD_clean_linker_0, # of connection points: 3
#     Node 15, Type 0, BuildingBlock: KAKCAD_clean_linker_0, # of connection points: 3
#     Node 16, Type 0, BuildingBlock: KAKCAD_clean_linker_0, # of connection points: 3
#     Node 17, Type 0, BuildingBlock: KAKCAD_clean_linker_0, # of connection points: 3
#     Node 18, Type 1, BuildingBlock: CUWYAW_clean_sbu_0, # of connection points: 6
#     Node 19, Type 1, BuildingBlock: CUWYAW_clean_sbu_0, # of connection points: 6
#     Node 20, Type 1, BuildingBlock: CUWYAW_clean_sbu_0, # of connection points: 6
#     Node 21, Type 1, BuildingBlock: CUWYAW_clean_sbu_0, # of connection points: 6
#     Node 22, Type 1, BuildingBlock: CUWYAW_clean_sbu_0, # of connection points: 6
#     Node 23, Type 1, BuildingBlock: CUWYAW_clean_sbu_0, # of connection points: 6
#     Node 24, Type 1, BuildingBlock: CUWYAW_clean_sbu_0, # of connection points: 6
#     Node 25, Type 1, BuildingBlock: CUWYAW_clean_sbu_0, # of connection points: 6
#     Node 26, Type 1, BuildingBlock: CUWYAW_clean_sbu_0, # of connection points: 6
#     Edge 27, Type (0, 1), BuildingBlock: KIFKEQ_clean_linker_1, # of connection points: 2
#     Edge 28, Type (0, 1), BuildingBlock: KIFKEQ_clean_linker_1, # of connection points: 2
#     Edge 29, Type (0, 1), BuildingBlock: KIFKEQ_clean_linker_1, # of connection points: 2
#     Edge 30, Type (0, 1), BuildingBlock: KIFKEQ_clean_linker_1, # of connection points: 2
#     Edge 31, Type (0, 1), BuildingBlock: KIFKEQ_clean_linker_1, # of connection points: 2
#     Edge 32, Type (0, 1), BuildingBlock: KIFKEQ_clean_linker_1, # of connection points: 2
#     Edge 33, Type (0, 1), BuildingBlock: KIFKEQ_clean_linker_1, # of connection points: 2
#     Edge 34, Type (0, 1), BuildingBlock: KIFKEQ_clean_linker_1, # of connection points: 2
#     Edge 35, Type (0, 1), BuildingBlock: KIFKEQ_clean_linker_1, # of connection points: 2
#     Edge 36, Type (0, 1), BuildingBlock: KIFKEQ_clean_linker_1, # of connection points: 2
#     Edge 37, Type (0, 1), BuildingBlock: KIFKEQ_clean_linker_1, # of connection points: 2
#     Edge 38, Type (0, 1), BuildingBlock: KIFKEQ_clean_linker_1, # of connection points: 2
#     Edge 39, Type (0, 1), BuildingBlock: KIFKEQ_clean_linker_1, # of connection points: 2
#     Edge 40, Type (0, 1), BuildingBlock: KIFKEQ_clean_linker_1, # of connection points: 2
#     Edge 41, Type (0, 1), BuildingBlock: KIFKEQ_clean_linker_1, # of connection points: 2
#     Edge 42, Type (0, 1), BuildingBlock: KIFKEQ_clean_linker_1, # of connection points: 2
#     Edge 43, Type (0, 1), BuildingBlock: KIFKEQ_clean_linker_1, # of connection points: 2
#     Edge 44, Type (0, 1), BuildingBlock: KIFKEQ_clean_linker_1, # of connection points: 2
#     Edge 45, Type (0, 1), BuildingBlock: KIFKEQ_clean_linker_1, # of connection points: 2
#     Edge 46, Type (0, 1), BuildingBlock: KIFKEQ_clean_linker_1, # of connection points: 2
#     Edge 47, Type (0, 1), BuildingBlock: KIFKEQ_clean_linker_1, # of connection points: 2
#     Edge 48, Type (0, 1), BuildingBlock: KIFKEQ_clean_linker_1, # of connection points: 2
#     Edge 49, Type (0, 1), BuildingBlock: KIFKEQ_clean_linker_1, # of connection points: 2
#     Edge 50, Type (0, 1), BuildingBlock: KIFKEQ_clean_linker_1, # of connection points: 2
#     Edge 51, Type (0, 1), BuildingBlock: KIFKEQ_clean_linker_1, # of connection points: 2
#     Edge 52, Type (0, 1), BuildingBlock: KIFKEQ_clean_linker_1, # of connection points: 2
#     Edge 53, Type (0, 1), BuildingBlock: KIFKEQ_clean_linker_1, # of connection points: 2
#     Edge 54, Type (0, 1), BuildingBlock: KIFKEQ_clean_linker_1, # of connection points: 2
#     Edge 55, Type (0, 1), BuildingBlock: KIFKEQ_clean_linker_1, # of connection points: 2
#     Edge 56, Type (0, 1), BuildingBlock: KIFKEQ_clean_linker_1, # of connection points: 2
#     Edge 57, Type (0, 1), BuildingBlock: KIFKEQ_clean_linker_1, # of connection points: 2
#     Edge 58, Type (0, 1), BuildingBlock: KIFKEQ_clean_linker_1, # of connection points: 2
#     Edge 59, Type (0, 1), BuildingBlock: KIFKEQ_clean_linker_1, # of connection points: 2
#     Edge 60, Type (0, 1), BuildingBlock: KIFKEQ_clean_linker_1, # of connection points: 2
#     Edge 61, Type (0, 1), BuildingBlock: KIFKEQ_clean_linker_1, # of connection points: 2
#     Edge 62, Type (0, 1), BuildingBlock: KIFKEQ_clean_linker_1, # of connection points: 2
#     Edge 63, Type (0, 1), BuildingBlock: KIFKEQ_clean_linker_1, # of connection points: 2
#     Edge 64, Type (0, 1), BuildingBlock: KIFKEQ_clean_linker_1, # of connection points: 2
#     Edge 65, Type (0, 1), BuildingBlock: KIFKEQ_clean_linker_1, # of connection points: 2
#     Edge 66, Type (0, 1), BuildingBlock: KIFKEQ_clean_linker_1, # of connection points: 2
#     Edge 67, Type (0, 1), BuildingBlock: KIFKEQ_clean_linker_1, # of connection points: 2
#     Edge 68, Type (0, 1), BuildingBlock: KIFKEQ_clean_linker_1, # of connection points: 2
#     Edge 69, Type (0, 1), BuildingBlock: KIFKEQ_clean_linker_1, # of connection points: 2
#     Edge 70, Type (0, 1), BuildingBlock: KIFKEQ_clean_linker_1, # of connection points: 2
#     Edge 71, Type (0, 1), BuildingBlock: KIFKEQ_clean_linker_1, # of connection points: 2
#     Edge 72, Type (0, 1), BuildingBlock: KIFKEQ_clean_linker_1, # of connection points: 2
#     Edge 73, Type (0, 1), BuildingBlock: KIFKEQ_clean_linker_1, # of connection points: 2
#     Edge 74, Type (0, 1), BuildingBlock: KIFKEQ_clean_linker_1, # of connection points: 2
#     Edge 75, Type (0, 1), BuildingBlock: KIFKEQ_clean_linker_1, # of connection points: 2
#     Edge 76, Type (0, 1), BuildingBlock: KIFKEQ_clean_linker_1, # of connection points: 2
#     Edge 77, Type (0, 1), BuildingBlock: KIFKEQ_clean_linker_1, # of connection points: 2
#     Edge 78, Type (0, 1), BuildingBlock: KIFKEQ_clean_linker_1, # of connection points: 2
#     Edge 79, Type (0, 1), BuildingBlock: KIFKEQ_clean_linker_1, # of connection points: 2
#     Edge 80, Type (0, 1), BuildingBlock: KIFKEQ_clean_linker_1, # of connection points: 2
# Relax obj value: 0.034
# Max RMSD: 0.134
# Mean RMSD: 0.074
data_MOF--net-eea--node1-CUWYAW_clean_sbu_0--node2-KAKCAD_clean_linker_0--edge1-KIFKEQ_clean_linker_1
_symmetry_space_group_name_H-M    P1
_symmetry_Int_Tables_number       1
_symmetry_cell_setting            triclinic
loop_
_symmetry_equiv_pos_as_xyz
'x, y, z'
_cell_length_a     63.641613
_cell_length_b     63.366016
_cell_length_c     91.878094
_cell_angle_alpha  93.65632
_cell_angle_beta   93.331399
_cell_angle_gamma 119.89327
loop_
_atom_site_label
_atom_site_type_symbol
_atom_site_fract_x
_atom_site_fract_y
_atom_site_fract_z
_atom_type_partial_charge
C0 C 0.26927 0.15629 0.47212 0.0
C1 C 0.28509 0.14844 0.47742 0.0
C2 C 0.26222 0.15337 0.45711 0.0
C3 C 0.27098 0.14268 0.44705 0.0
C4 C 0.28732 0.13542 0.45236 0.0
C5 C 0.29423 0.13819 0.46738 0.0
C6 C 0.26231 0.13821 0.43118 0.0
C7 C 0.25866 0.15545 0.42425 0.0
C8 C 0.24905 0.15064 0.40947 0.0
C9 C 0.2434 0.12842 0.40157 0.0
C10 C 0.24715 0.1111 0.40826 0.0
C11 C 0.25662 0.11614 0.42305 0.0
C12 C 0.24028 0.08731 0.39997 0.0
C13 C 0.21794 0.07403 0.39115 0.0
C14 C 0.25581 0.07756 0.40099 0.0
C15 C 0.24912 0.05497 0.39335 0.0
C16 C 0.22669 0.04158 0.38458 0.0
C17 C 0.24389 0.16827 0.40242 0.0
C18 C 0.23348 0.18009 0.41008 0.0
C19 C 0.24834 0.17259 0.38778 0.0
C20 C 0.24186 0.18781 0.38084 0.0
C21 C 0.23094 0.19915 0.3884 0.0
C22 C 0.22713 0.19542 0.40315 0.0
C23 C 0.2112 0.05141 0.38356 0.0
H24 H 0.26173 0.16401 0.47963 0.0
H25 H 0.24932 0.15882 0.45343 0.0
H26 H 0.29475 0.12752 0.4449 0.0
H27 H 0.30676 0.13232 0.47115 0.0
H28 H 0.26347 0.17273 0.43034 0.0
H29 H 0.2586 0.10238 0.42839 0.0
H30 H 0.23572 0.12439 0.39022 0.0
H31 H 0.20541 0.08089 0.39034 0.0
H32 H 0.27327 0.08753 0.40758 0.0
H33 H 0.26164 0.0481 0.3942 0.0
H34 H 0.22948 0.17689 0.42129 0.0
H35 H 0.25674 0.16412 0.38166 0.0
H36 H 0.1936 0.0414 0.37713 0.0
H37 H 0.21849 0.2037 0.40921 0.0
H38 H 0.24536 0.19066 0.36953 0.0
C39 C 0.88059 0.16 0.47655 0.0
C40 C 0.87394 0.14068 0.48537 0.0
C41 C 0.8852 0.1574 0.46202 0.0
C42 C 0.88304 0.13538 0.456 0.0
C43 C 0.87714 0.11641 0.46493 0.0
C44 C 0.87277 0.11906 0.47944 0.0
C45 C 0.88585 0.13155 0.44031 0.0
C46 C 0.90613 0.14886 0.4339 0.0
C47 C 0.90923 0.14434 0.41921 0.0
C48 C 0.89146 0.12252 0.4109 0.0
C49 C 0.87095 0.10518 0.4171 0.0
C50 C 0.86832 0.10994 0.4318 0.0
C51 C 0.85256 0.08185 0.40837 0.0
C52 C 0.84522 0.08142 0.39356 0.0
C53 C 0.84234 0.05971 0.41479 0.0
C54 C 0.82521 0.03773 0.40663 0.0
C55 C 0.818 0.0373 0.39182 0.0
C56 C 0.93135 0.16187 0.41261 0.0
C57 C 0.94043 0.18723 0.41487 0.0
C58 C 0.94342 0.15323 0.40382 0.0
C59 C 0.96384 0.16948 0.39727 0.0
C60 C 0.97275 0.19481 0.39932 0.0
C61 C 0.9609 0.20353 0.40828 0.0
C62 C 0.82818 0.05938 0.38536 0.0
H63 H 0.8815 0.17684 0.48072 0.0
H64 H 0.88964 0.17227 0.45533 0.0
H65 H 0.87579 0.09939 0.46064 0.0
H66 H 0.86835 0.10405 0.486 0.0
H67 H 0.91995 0.16533 0.44053 0.0
H68 H 0.85237 0.09689 0.43665 0.0
H69 H 0.89379 0.1189 0.39959 0.0
H70 H 0.85245 0.09817 0.38833 0.0
H71 H 0.8479 0.05928 0.42608 0.0
H72 H 0.818 0.02095 0.41183 0.0
H73 H 0.93141 0.19443 0.42148 0.0
H74 H 0.9372 0.13385 0.40211 0.0
H75 H 0.82277 0.05964 0.37401 0.0
H76 H 0.96716 0.22291 0.40998 0.0
H77 H 0.97282 0.16217 0.39071 0.0
C78 C 0.89463 0.74025 0.48451 0.0
C79 C 0.87068 0.72404 0.48749 0.0
C80 C 0.89928 0.74856 0.47065 0.0
C81 C 0.88009 0.74073 0.45946 0.0
C82 C 0.85628 0.7238 0.46232 0.0
C83 C 0.85163 0.71562 0.47617 0.0
C84 C 0.88463 0.75112 0.44512 0.0
C85 C 0.90527 0.75519 0.43817 0.0
C86 C 0.91009 0.76597 0.42489 0.0
C87 C 0.89363 0.77244 0.4186 0.0
C88 C 0.87254 0.76779 0.42514 0.0
C89 C 0.86836 0.7574 0.43845 0.0
C90 C 0.85457 0.77336 0.41797 0.0
C91 C 0.86227 0.79544 0.41175 0.0
C92 C 0.82949 0.75635 0.41715 0.0
C93 C 0.81249 0.76122 0.4102 0.0
C94 C 0.82016 0.78325 0.40393 0.0
C95 C 0.9321 0.77037 0.41753 0.0
C96 C 0.95397 0.77606 0.42577 0.0
C97 C 0.93154 0.76917 0.40215 0.0
C98 C 0.95229 0.77417 0.39526 0.0
C99 C 0.97416 0.7798 0.40347 0.0
C100 C 0.97457 0.78039 0.41884 0.0
C101 C 0.84524 0.80036 0.40484 0.0
H102 H 0.90967 0.7472 0.49303 0.0
H103 H 0.91779 0.76177 0.46886 0.0
H104 H 0.84114 0.71698 0.45387 0.0
H105 H 0.83305 0.70275 0.47805 0.0
H106 H 0.91726 0.74942 0.44301 0.0
H107 H 0.85262 0.75474 0.44382 0.0
H108 H 0.89703 0.78097 0.4085 0.0
H109 H 0.88145 0.809 0.4123 0.0
H110 H 0.82299 0.73906 0.42172 0.0
H111 H 0.7933 0.74777 0.40982 0.0
H112 H 0.95542 0.77752 0.43763 0.0
H113 H 0.91502 0.7643 0.3953 0.0
H114 H 0.85174 0.81742 0.40001 0.0
H115 H 0.99076 0.78414 0.42563 0.0
H116 H 0.95111 0.77391 0.38345 0.0
C117 C 0.12812 0.24266 0.52356 0.0
C118 C 0.12584 0.26256 0.51961 0.0
C119 C 0.12339 0.23485 0.53748 0.0
C120 C 0.1162 0.2467 0.54781 0.0
C121 C 0.11311 0.26607 0.54374 0.0
C122 C 0.11791 0.27394 0.52978 0.0
C123 C 0.11298 0.23946 0.56296 0.0
C124 C 0.12998 0.2348 0.57032 0.0
C125 C 0.12737 0.22817 0.58462 0.0
C126 C 0.10753 0.22591 0.59165 0.0
C127 C 0.09005 0.2301 0.58442 0.0
C128 C 0.09309 0.23717 0.57011 0.0
C129 C 0.06832 0.22633 0.59167 0.0
C130 C 0.05572 0.2058 0.59935 0.0
C131 C 0.05992 0.24301 0.59092 0.0
C132 C 0.03941 0.23927 0.59775 0.0
C133 C 0.02676 0.21866 0.60538 0.0
C134 C 0.14543 0.22341 0.59215 0.0
C135 C 0.1451 0.20145 0.58848 0.0
C136 C 0.16336 0.24101 0.60276 0.0
C137 C 0.18099 0.23681 0.60954 0.0
C138 C 0.18077 0.21472 0.60599 0.0
C139 C 0.16246 0.19703 0.59541 0.0
C140 C 0.03518 0.202 0.6061 0.0
H141 H 0.13367 0.23314 0.51589 0.0
H142 H 0.12546 0.21955 0.54019 0.0
H143 H 0.10778 0.27568 0.55149 0.0
H144 H 0.11618 0.28945 0.52715 0.0
H145 H 0.14557 0.23674 0.56505 0.0
H146 H 0.07955 0.24008 0.56436 0.0
H147 H 0.10569 0.22081 0.60275 0.0
H148 H 0.06156 0.19246 0.6 0.0
H149 H 0.06933 0.25909 0.58516 0.0
H150 H 0.03326 0.25235 0.59691 0.0
H151 H 0.13129 0.18765 0.58031 0.0
H152 H 0.16395 0.25817 0.60562 0.0
H153 H 0.02601 0.18608 0.61202 0.0
H154 H 0.16131 0.17962 0.59256 0.0
H155 H 0.19499 0.25107 0.6174 0.0
C156 C 0.7034 0.83751 0.53933 0.0
C157 C 0.71558 0.85673 0.53061 0.0
C158 C 0.71076 0.84065 0.55435 0.0
C159 C 0.73027 0.8631 0.56092 0.0
C160 C 0.74253 0.88218 0.55218 0.0
C161 C 0.73534 0.87901 0.53722 0.0
C162 C 0.73831 0.86682 0.57679 0.0
C163 C 0.74224 0.84956 0.58341 0.0
C164 C 0.75233 0.85433 0.59808 0.0
C165 C 0.75798 0.87641 0.60621 0.0
C166 C 0.75389 0.89375 0.59978 0.0
C167 C 0.74379 0.88862 0.58511 0.0
C168 C 0.76128 0.91775 0.60807 0.0
C169 C 0.75759 0.91942 0.62294 0.0
C170 C 0.77237 0.93932 0.6011 0.0
C171 C 0.77935 0.96193 0.60874 0.0
C172 C 0.77559 0.9636 0.62358 0.0
C173 C 0.75866 0.83712 0.60453 0.0
C174 C 0.74226 0.81173 0.60256 0.0
C175 C 0.78162 0.84601 0.61234 0.0
C176 C 0.78814 0.8299 0.61795 0.0
C177 C 0.77183 0.80452 0.61593 0.0
C178 C 0.74873 0.79558 0.60828 0.0
C179 C 0.76473 0.94213 0.63063 0.0
H180 H 0.68798 0.82019 0.53461 0.0
H181 H 0.70096 0.82567 0.56086 0.0
H182 H 0.75799 0.89951 0.5569 0.0
H183 H 0.74554 0.89399 0.53079 0.0
H184 H 0.73873 0.83304 0.5769 0.0
H185 H 0.74028 0.90172 0.58007 0.0
H186 H 0.76616 0.88034 0.61744 0.0
H187 H 0.74888 0.90314 0.6286 0.0
H188 H 0.77603 0.93881 0.58975 0.0
H189 H 0.78808 0.97821 0.60308 0.0
H190 H 0.72441 0.8044 0.59662 0.0
H191 H 0.79476 0.86545 0.61389 0.0
H192 H 0.76143 0.94286 0.64204 0.0
H193 H 0.73584 0.7761 0.60651 0.0
H194 H 0.80595 0.83734 0.62397 0.0
C195 C 0.11034 0.84488 0.52953 0.0
C196 C 0.13414 0.85186 0.52634 0.0
C197 C 0.10536 0.84674 0.54405 0.0
C198 C 0.12406 0.85548 0.55565 0.0
C199 C 0.1476 0.86141 0.55244 0.0
C200 C 0.15259 0.85971 0.53796 0.0
C201 C 0.11954 0.85977 0.57097 0.0
C202 C 0.09791 0.84321 0.57665 0.0
C203 C 0.09393 0.84768 0.59111 0.0
C204 C 0.11138 0.869 0.59984 0.0
C205 C 0.1328 0.88587 0.59426 0.0
C206 C 0.13685 0.88106 0.5799 0.0
C207 C 0.15051 0.90911 0.60312 0.0
C208 C 0.14268 0.92436 0.60949 0.0
C209 C 0.1754 0.91665 0.60476 0.0
C210 C 0.19221 0.93913 0.6126 0.0
C211 C 0.18453 0.95478 0.61874 0.0
C212 C 0.07144 0.83033 0.59721 0.0
C213 C 0.0489 0.82716 0.59178 0.0
C214 C 0.07264 0.81796 0.60905 0.0
C215 C 0.05158 0.80267 0.61546 0.0
C216 C 0.02892 0.79992 0.61039 0.0
C217 C 0.02789 0.8123 0.59839 0.0
C218 C 0.1595 0.94702 0.61711 0.0
H219 H 0.09578 0.83887 0.52077 0.0
H220 H 0.08707 0.84221 0.54613 0.0
H221 H 0.16231 0.86766 0.56113 0.0
H222 H 0.171 0.86475 0.53585 0.0
H223 H 0.08439 0.82664 0.56998 0.0
H224 H 0.15317 0.89446 0.57552 0.0
H225 H 0.10815 0.87258 0.61095 0.0
H226 H 0.12359 0.91908 0.6082 0.0
H227 H 0.18182 0.90507 0.60002 0.0
H228 H 0.21122 0.94418 0.61386 0.0
H229 H 0.04771 0.83681 0.58274 0.0
H230 H 0.08992 0.82016 0.61334 0.0
H231 H 0.15287 0.95868 0.62138 0.0
H232 H 0.01099 0.8111 0.5943 0.0
H233 H 0.05314 0.79306 0.6244 0.0
C234 C 0.9432 0.49627 0.80715 0.0
C235 C 0.95741 0.48655 0.81239 0.0
C236 C 0.93637 0.49386 0.79213 0.0
C237 C 0.94377 0.48184 0.78205 0.0
C238 C 0.95869 0.47286 0.7873 0.0
C239 C 0.96535 0.47511 0.80231 0.0
C240 C 0.93505 0.47765 0.76621 0.0
C241 C 0.93316 0.49576 0.7592 0.0
C242 C 0.92334 0.49126 0.74448 0.0
C243 C 0.9167 0.4687 0.73655 0.0
C244 C 0.91871 0.45036 0.74329 0.0
C245 C 0.92753 0.45498 0.75822 0.0
C246 C 0.91095 0.42612 0.73499 0.0
C247 C 0.89171 0.41582 0.72364 0.0
C248 C 0.92249 0.4128 0.73852 0.0
C249 C 0.91457 0.38965 0.73127 0.0
C250 C 0.89538 0.37936 0.71989 0.0
C251 C 0.91849 0.50939 0.7377 0.0
C252 C 0.91072 0.52308 0.7461 0.0
C253 C 0.92014 0.51218 0.72266 0.0
C254 C 0.91312 0.52732 0.7161 0.0
C255 C 0.90473 0.5405 0.72446 0.0
C256 C 0.90422 0.53861 0.73961 0.0
C257 C 0.88433 0.39301 0.71605 0.0
H258 H 0.93664 0.50497 0.81469 0.0
H259 H 0.92461 0.5007 0.78849 0.0
H260 H 0.96509 0.46392 0.77981 0.0
H261 H 0.97665 0.46778 0.80604 0.0
H262 H 0.9393 0.5134 0.76528 0.0
H263 H 0.92778 0.4406 0.76385 0.0
H264 H 0.90947 0.46523 0.72516 0.0
H265 H 0.88195 0.42509 0.72067 0.0
H266 H 0.93772 0.42017 0.74694 0.0
H267 H 0.9234 0.37978 0.73484 0.0
H268 H 0.90887 0.52129 0.75767 0.0
H269 H 0.92652 0.50238 0.71586 0.0
H270 H 0.8699 0.3862 0.70716 0.0
H271 H 0.89846 0.54887 0.74652 0.0
H272 H 0.91363 0.52807 0.70438 0.0
C273 C 0.55655 0.49988 0.8129 0.0
C274 C 0.5477 0.48006 0.82143 0.0
C275 C 0.55916 0.4965 0.79805 0.0
C276 C 0.55281 0.4732 0.79142 0.0
C277 C 0.54457 0.45357 0.80005 0.0
C278 C 0.54203 0.45695 0.81485 0.0
C279 C 0.55376 0.46896 0.77545 0.0
C280 C 0.57397 0.48509 0.76852 0.0
C281 C 0.575 0.4807 0.75341 0.0
C282 C 0.55532 0.45977 0.74535 0.0
C283 C 0.5352 0.44322 0.75219 0.0
C284 C 0.53445 0.44824 0.76718 0.0
C285 C 0.51555 0.42004 0.74392 0.0
C286 C 0.50706 0.41943 0.72933 0.0
C287 C 0.50567 0.39806 0.75051 0.0
C288 C 0.48799 0.37601 0.74267 0.0
C289 C 0.47986 0.37534 0.72802 0.0
C290 C 0.59686 0.49742 0.74614 0.0
C291 C 0.61004 0.52276 0.75054 0.0
C292 C 0.60485 0.48813 0.73476 0.0
C293 C 0.62512 0.50371 0.72783 0.0
C294 C 0.63849 0.52901 0.73232 0.0
C295 C 0.63068 0.53829 0.74383 0.0
C296 C 0.48946 0.3973 0.72145 0.0
H297 H 0.5613 0.51797 0.81768 0.0
H298 H 0.56548 0.51195 0.79166 0.0
H299 H 0.53985 0.43546 0.79531 0.0
H300 H 0.53491 0.44122 0.82104 0.0
H301 H 0.58924 0.50058 0.77504 0.0
H302 H 0.51863 0.43599 0.77244 0.0
H303 H 0.55581 0.45605 0.73375 0.0
H304 H 0.51401 0.43606 0.724 0.0
H305 H 0.5121 0.39772 0.76162 0.0
H306 H 0.48125 0.35934 0.74795 0.0
H307 H 0.60437 0.53074 0.75912 0.0
H308 H 0.59562 0.46872 0.7312 0.0
H309 H 0.48336 0.39734 0.71021 0.0
H310 H 0.64061 0.55756 0.74781 0.0
H311 H 0.63014 0.49578 0.71887 0.0
C312 C 0.56186 0.07765 0.81893 0.0
C313 C 0.53841 0.05881 0.82112 0.0
C314 C 0.56701 0.08591 0.80508 0.0
C315 C 0.54879 0.07559 0.79318 0.0
C316 C 0.52559 0.05633 0.79527 0.0
C317 C 0.5205 0.04798 0.80904 0.0
C318 C 0.5535 0.08544 0.77873 0.0
C319 C 0.57478 0.09029 0.77233 0.0
C320 C 0.57889 0.09924 0.75853 0.0
C321 C 0.56165 0.10376 0.75132 0.0
C322 C 0.54042 0.09927 0.75763 0.0
C323 C 0.53648 0.09002 0.77131 0.0
C324 C 0.52242 0.10437 0.75001 0.0
C325 C 0.53024 0.12588 0.74312 0.0
C326 C 0.49728 0.08785 0.74966 0.0
C327 C 0.48035 0.09274 0.74261 0.0
C328 C 0.48816 0.11428 0.73574 0.0
C329 C 0.60101 0.10371 0.75149 0.0
C330 C 0.62406 0.11552 0.75962 0.0
C331 C 0.59925 0.09664 0.73645 0.0
C332 C 0.62006 0.10169 0.72962 0.0
C333 C 0.6432 0.11398 0.73765 0.0
C334 C 0.64494 0.12063 0.75277 0.0
C335 C 0.51331 0.13078 0.73608 0.0
H336 H 0.57603 0.08657 0.828 0.0
H337 H 0.585 0.1009 0.80381 0.0
H338 H 0.51131 0.04773 0.78622 0.0
H339 H 0.50243 0.03304 0.81022 0.0
H340 H 0.58777 0.08639 0.77788 0.0
H341 H 0.52038 0.08696 0.7764 0.0
H342 H 0.56476 0.1108 0.74073 0.0
H343 H 0.54946 0.13916 0.74339 0.0
H344 H 0.49068 0.07094 0.75467 0.0
H345 H 0.46113 0.07946 0.74235 0.0
H346 H 0.62605 0.12138 0.7712 0.0
H347 H 0.5817 0.08708 0.72994 0.0
H348 H 0.51994 0.14772 0.73111 0.0
H349 H 0.6625 0.13034 0.75925 0.0
H350 H 0.61798 0.09584 0.71803 0.0
C351 C 0.79601 0.58036 0.85671 0.0
C352 C 0.7932 0.60011 0.8531 0.0
C353 C 0.79124 0.57187 0.87047 0.0
C354 C 0.78346 0.58284 0.88099 0.0
C355 C 0.77992 0.60211 0.87727 0.0
C356 C 0.78477 0.61068 0.86348 0.0
C357 C 0.77995 0.57468 0.89593 0.0
C358 C 0.7971 0.57008 0.90317 0.0
C359 C 0.7941 0.56199 0.91717 0.0
C360 C 0.77357 0.55852 0.92399 0.0
C361 C 0.75616 0.56302 0.91697 0.0
C362 C 0.75961 0.57129 0.90297 0.0
C363 C 0.73417 0.55858 0.9242 0.0
C364 C 0.72144 0.53749 0.9314 0.0
C365 C 0.72584 0.57537 0.92405 0.0
C366 C 0.70537 0.57126 0.93106 0.0
C367 C 0.69267 0.55016 0.93829 0.0
C368 C 0.81243 0.55714 0.92461 0.0
C369 C 0.82236 0.54506 0.91671 0.0
C370 C 0.82034 0.56476 0.93961 0.0
C371 C 0.8379 0.56054 0.9465 0.0
C372 C 0.8479 0.54855 0.93857 0.0
C373 C 0.83986 0.5408 0.9236 0.0
C374 C 0.70094 0.53332 0.93834 0.0
H375 H 0.80193 0.57142 0.84888 0.0
H376 H 0.79368 0.55667 0.87289 0.0
H377 H 0.77412 0.61106 0.88518 0.0
H378 H 0.78261 0.62605 0.86111 0.0
H379 H 0.81318 0.57335 0.89799 0.0
H380 H 0.74605 0.57433 0.89734 0.0
H381 H 0.77107 0.55219 0.93478 0.0
H382 H 0.72721 0.52405 0.93159 0.0
H383 H 0.73535 0.59188 0.91868 0.0
H384 H 0.69934 0.58449 0.9307 0.0
H385 H 0.81647 0.53872 0.90518 0.0
H386 H 0.81322 0.5743 0.94598 0.0
H387 H 0.69174 0.51701 0.94392 0.0
H388 H 0.84734 0.53172 0.91713 0.0
H389 H 0.84348 0.56651 0.95808 0.0
C390 C 0.37983 0.17032 0.87275 0.0
C391 C 0.39191 0.18956 0.86402 0.0
C392 C 0.38674 0.17369 0.88784 0.0
C393 C 0.40571 0.1964 0.8945 0.0
C394 C 0.41796 0.21548 0.88576 0.0
C395 C 0.41122 0.21208 0.87071 0.0
C396 C 0.41296 0.20046 0.9105 0.0
C397 C 0.41702 0.18362 0.91757 0.0
C398 C 0.42606 0.18865 0.93246 0.0
C399 C 0.43046 0.21046 0.94033 0.0
C400 C 0.42615 0.22732 0.93348 0.0
C401 C 0.41725 0.22205 0.91857 0.0
C402 C 0.43202 0.25093 0.94168 0.0
C403 C 0.42712 0.25199 0.95636 0.0
C404 C 0.44312 0.27273 0.93494 0.0
C405 C 0.4492 0.29503 0.94268 0.0
C406 C 0.4445 0.2961 0.95738 0.0
C407 C 0.4324 0.17195 0.9396 0.0
C408 C 0.41626 0.14652 0.93792 0.0
C409 C 0.45493 0.18148 0.94807 0.0
C410 C 0.46122 0.16595 0.95473 0.0
C411 C 0.44509 0.14053 0.95313 0.0
C412 C 0.42248 0.13095 0.94471 0.0
C413 C 0.43338 0.27436 0.96414 0.0
H414 H 0.36473 0.15281 0.86798 0.0
H415 H 0.37695 0.15871 0.89435 0.0
H416 H 0.433 0.23303 0.89055 0.0
H417 H 0.42133 0.22711 0.8643 0.0
H418 H 0.41435 0.16722 0.91132 0.0
H419 H 0.41361 0.23479 0.91318 0.0
H420 H 0.43778 0.21453 0.95176 0.0
H421 H 0.41829 0.2355 0.96181 0.0
H422 H 0.44762 0.27269 0.92375 0.0
H423 H 0.4581 0.31155 0.93725 0.0
H424 H 0.39875 0.13872 0.93148 0.0
H425 H 0.46785 0.20097 0.94941 0.0
H426 H 0.4293 0.27462 0.97541 0.0
H427 H 0.40976 0.11142 0.94323 0.0
H428 H 0.47866 0.17387 0.96127 0.0
C429 C 0.77332 0.17978 0.86092 0.0
C430 C 0.79656 0.18541 0.85723 0.0
C431 C 0.76935 0.18252 0.87556 0.0
C432 C 0.78861 0.1912 0.88678 0.0
C433 C 0.81173 0.19646 0.8831 0.0
C434 C 0.81565 0.19351 0.8685 0.0
C435 C 0.78494 0.19554 0.90224 0.0
C436 C 0.76469 0.178 0.90853 0.0
C437 C 0.76145 0.18207 0.92323 0.0
C438 C 0.77891 0.20389 0.93166 0.0
C439 C 0.79902 0.22203 0.92547 0.0
C440 C 0.80172 0.21756 0.9107 0.0
C441 C 0.81668 0.24588 0.93422 0.0
C442 C 0.80904 0.25618 0.94527 0.0
C443 C 0.84125 0.25894 0.93137 0.0
C444 C 0.85739 0.28189 0.93896 0.0
C445 C 0.84973 0.29221 0.94998 0.0
C446 C 0.73936 0.16406 0.92968 0.0
C447 C 0.71628 0.15319 0.92166 0.0
C448 C 0.741 0.15853 0.94414 0.0
C449 C 0.72001 0.14304 0.95055 0.0
C450 C 0.69687 0.13268 0.94266 0.0
C451 C 0.69529 0.13769 0.92807 0.0
C452 C 0.82538 0.27873 0.95318 0.0
H453 H 0.75824 0.17333 0.85247 0.0
H454 H 0.75137 0.17845 0.87808 0.0
H455 H 0.82685 0.20297 0.89153 0.0
H456 H 0.8338 0.19821 0.866 0.0
H457 H 0.75167 0.16099 0.90203 0.0
H458 H 0.81652 0.23152 0.9055 0.0
H459 H 0.77651 0.20685 0.94302 0.0
H460 H 0.79028 0.24712 0.94772 0.0
H461 H 0.84816 0.25157 0.92323 0.0
H462 H 0.8758 0.29161 0.93591 0.0
H463 H 0.71435 0.15722 0.91054 0.0
H464 H 0.75853 0.16636 0.95056 0.0
H465 H 0.8187 0.28551 0.9618 0.0
H466 H 0.67779 0.12973 0.9216 0.0
H467 H 0.72189 0.13972 0.96184 0.0
C468 C 0.60188 0.82508 0.13836 0.0
C469 C 0.61615 0.81564 0.14394 0.0
C470 C 0.59586 0.82292 0.12325 0.0
C471 C 0.60416 0.81143 0.11342 0.0
C472 C 0.61909 0.8027 0.11904 0.0
C473 C 0.62492 0.80469 0.13413 0.0
C474 C 0.59665 0.80772 0.09741 0.0
C475 C 0.59511 0.82594 0.0903 0.0
C476 C 0.58742 0.82213 0.07524 0.0
C477 C 0.58215 0.80013 0.06718 0.0
C478 C 0.58333 0.78151 0.07409 0.0
C479 C 0.59032 0.78548 0.08927 0.0
C480 C 0.57646 0.75761 0.06567 0.0
C481 C 0.55842 0.74775 0.05364 0.0
C482 C 0.58748 0.74408 0.06982 0.0
C483 C 0.58006 0.72107 0.06255 0.0
C484 C 0.56194 0.71114 0.05055 0.0
C485 C 0.58336 0.84039 0.06808 0.0
C486 C 0.57221 0.85182 0.07533 0.0
C487 C 0.5891 0.84535 0.05368 0.0
C488 C 0.58302 0.86068 0.04651 0.0
C489 C 0.57125 0.87152 0.05364 0.0
C490 C 0.56629 0.86728 0.0682 0.0
C491 C 0.55157 0.72508 0.04605 0.0
H492 H 0.59473 0.83345 0.14571 0.0
H493 H 0.5841 0.82958 0.11931 0.0
H494 H 0.62622 0.79423 0.11177 0.0
H495 H 0.63631 0.79763 0.13813 0.0
H496 H 0.60002 0.84318 0.09648 0.0
H497 H 0.5901 0.77092 0.09494 0.0
H498 H 0.57657 0.79735 0.05554 0.0
H499 H 0.54911 0.75722 0.05015 0.0
H500 H 0.60185 0.75115 0.07878 0.0
H501 H 0.58835 0.71096 0.0666 0.0
H502 H 0.56716 0.84812 0.08633 0.0
H503 H 0.59808 0.8372 0.04787 0.0
H504 H 0.53801 0.71857 0.03667 0.0
H505 H 0.55698 0.87515 0.07391 0.0
H506 H 0.58738 0.86393 0.03536 0.0
C507 C 0.21984 0.83258 0.14425 0.0
C508 C 0.21143 0.81303 0.15298 0.0
C509 C 0.22319 0.82914 0.12953 0.0
C510 C 0.21802 0.80603 0.12324 0.0
C511 C 0.20997 0.78663 0.13205 0.0
C512 C 0.20668 0.79006 0.1467 0.0
C513 C 0.22056 0.80177 0.10751 0.0
C514 C 0.2411 0.81852 0.10104 0.0
C515 C 0.24411 0.81353 0.08641 0.0
C516 C 0.22615 0.7917 0.07822 0.0
C517 C 0.20537 0.7749 0.08446 0.0
C518 C 0.20268 0.78025 0.09906 0.0
C519 C 0.18686 0.75139 0.07594 0.0
C520 C 0.17972 0.75045 0.06103 0.0
C521 C 0.17636 0.72957 0.08269 0.0
C522 C 0.15917 0.70739 0.07474 0.0
C523 C 0.15216 0.70643 0.05983 0.0
C524 C 0.26641 0.8306 0.07982 0.0
C525 C 0.27545 0.85597 0.08155 0.0
C526 C 0.27881 0.82154 0.07168 0.0
C527 C 0.29973 0.83746 0.06538 0.0
C528 C 0.30869 0.86281 0.06701 0.0
C529 C 0.29631 0.87191 0.07514 0.0
C530 C 0.1626 0.7282 0.05305 0.0
H531 H 0.22385 0.85055 0.14879 0.0
H532 H 0.22935 0.84441 0.12301 0.0
H533 H 0.20617 0.76868 0.1276 0.0
H534 H 0.19989 0.77452 0.15303 0.0
H535 H 0.25523 0.83493 0.10756 0.0
H536 H 0.18647 0.76764 0.10387 0.0
H537 H 0.22854 0.78765 0.067 0.0
H538 H 0.18718 0.76695 0.05554 0.0
H539 H 0.18177 0.72951 0.09408 0.0
H540 H 0.15177 0.69087 0.08021 0.0
H541 H 0.2662 0.86345 0.0877 0.0
H542 H 0.27244 0.8021 0.07028 0.0
H543 H 0.15735 0.72806 0.0416 0.0
H544 H 0.3029 0.89138 0.07668 0.0
H545 H 0.30873 0.82987 0.05907 0.0
C546 C 0.23165 0.41425 0.15289 0.0
C547 C 0.20777 0.39782 0.15588 0.0
C548 C 0.23627 0.42199 0.13889 0.0
C549 C 0.2171 0.41335 0.12759 0.0
C550 C 0.19338 0.39624 0.1305 0.0
C551 C 0.18876 0.38866 0.14448 0.0
C552 C 0.22148 0.42273 0.11296 0.0
C553 C 0.24222 0.42667 0.10619 0.0
C554 C 0.24607 0.43534 0.0923 0.0
C555 C 0.2289 0.44012 0.08523 0.0
C556 C 0.20814 0.43641 0.09186 0.0
C557 C 0.20472 0.42787 0.10574 0.0
C558 C 0.18999 0.44148 0.0844 0.0
C559 C 0.19754 0.46245 0.07699 0.0
C560 C 0.16489 0.42551 0.08485 0.0
C561 C 0.14777 0.43049 0.07818 0.0
C562 C 0.15531 0.45153 0.07085 0.0
C563 C 0.26797 0.43942 0.08513 0.0
C564 C 0.29109 0.45102 0.09317 0.0
C565 C 0.26598 0.43213 0.0701 0.0
C566 C 0.28663 0.43663 0.06322 0.0
C567 C 0.30984 0.44862 0.07119 0.0
C568 C 0.31178 0.45561 0.08628 0.0
C569 C 0.18039 0.46741 0.07029 0.0
H570 H 0.24664 0.42172 0.16149 0.0
H571 H 0.25471 0.43532 0.13705 0.0
H572 H 0.17828 0.38876 0.12198 0.0
H573 H 0.17025 0.3756 0.14637 0.0
H574 H 0.25505 0.42238 0.11154 0.0
H575 H 0.18917 0.42575 0.11112 0.0
H576 H 0.23171 0.44676 0.07453 0.0
H577 H 0.21673 0.47531 0.07662 0.0
H578 H 0.15844 0.40898 0.09025 0.0
H579 H 0.12859 0.41766 0.07859 0.0
H580 H 0.29327 0.4571 0.10473 0.0
H581 H 0.24838 0.42276 0.06365 0.0
H582 H 0.18681 0.48393 0.06488 0.0
H583 H 0.32938 0.46515 0.09272 0.0
H584 H 0.28437 0.43055 0.05166 0.0
C585 C 0.45934 0.91324 0.18974 0.0
C586 C 0.45692 0.93332 0.18644 0.0
C587 C 0.45533 0.90497 0.2036 0.0
C588 C 0.44868 0.91651 0.21446 0.0
C589 C 0.44571 0.93626 0.21109 0.0
C590 C 0.44992 0.94466 0.19723 0.0
C591 C 0.44561 0.90834 0.22938 0.0
C592 C 0.46281 0.90353 0.23632 0.0
C593 C 0.46013 0.8954 0.25032 0.0
C594 C 0.43985 0.89204 0.25739 0.0
C595 C 0.42239 0.89672 0.25064 0.0
C596 C 0.42554 0.90509 0.23666 0.0
C597 C 0.4006 0.89225 0.25806 0.0
C598 C 0.3879 0.871 0.26513 0.0
C599 C 0.39231 0.90909 0.25814 0.0
C600 C 0.37185 0.90481 0.26521 0.0
C601 C 0.35913 0.88352 0.27225 0.0
C602 C 0.4785 0.89038 0.25749 0.0
C603 C 0.48805 0.87812 0.24938 0.0
C604 C 0.48678 0.89797 0.27245 0.0
C605 C 0.50429 0.8935 0.27912 0.0
C606 C 0.5139 0.88131 0.271 0.0
C607 C 0.50553 0.87362 0.25606 0.0
C608 C 0.36741 0.86668 0.27213 0.0
H609 H 0.46494 0.90425 0.18172 0.0
H610 H 0.45751 0.88955 0.20583 0.0
H611 H 0.44072 0.94558 0.21927 0.0
H612 H 0.44773 0.96006 0.19497 0.0
H613 H 0.47865 0.90664 0.23091 0.0
H614 H 0.41195 0.90827 0.23124 0.0
H615 H 0.43758 0.88563 0.26816 0.0
H616 H 0.39364 0.85753 0.26514 0.0
H617 H 0.4018 0.92571 0.25287 0.0
H618 H 0.36581 0.91804 0.265 0.0
H619 H 0.48188 0.87182 0.23788 0.0
H620 H 0.47995 0.90765 0.27897 0.0
H621 H 0.35819 0.85022 0.27758 0.0
H622 H 0.5127 0.86438 0.24946 0.0
H623 H 0.51015 0.89943 0.29069 0.0
C624 C 0.0419 0.49816 0.20654 0.0
C625 C 0.05365 0.51652 0.19724 0.0
C626 C 0.04936 0.50275 0.22159 0.0
C627 C 0.06845 0.52589 0.22762 0.0
C628 C 0.08016 0.5442 0.21831 0.0
C629 C 0.0729 0.53954 0.20328 0.0
C630 C 0.07637 0.53107 0.24355 0.0
C631 C 0.08091 0.51484 0.25098 0.0
C632 C 0.09016 0.52063 0.26584 0.0
C633 C 0.0943 0.54261 0.27332 0.0
C634 C 0.08955 0.55891 0.26611 0.0
C635 C 0.08053 0.55293 0.25122 0.0
C636 C 0.09495 0.58257 0.274 0.0
C637 C 0.0899 0.58387 0.28862 0.0
C638 C 0.10585 0.60418 0.26707 0.0
C639 C 0.11181 0.62659 0.27464 0.0
C640 C 0.10714 0.62792 0.28932 0.0
C641 C 0.09673 0.5044 0.27339 0.0
C642 C 0.08095 0.47892 0.27185 0.0
C643 C 0.11905 0.51443 0.28216 0.0
C644 C 0.12541 0.49936 0.28932 0.0
C645 C 0.10957 0.47388 0.28795 0.0
C646 C 0.08728 0.4638 0.27909 0.0
C647 C 0.09601 0.60632 0.29622 0.0
H648 H 0.02708 0.48022 0.20215 0.0
H649 H 0.04 0.48835 0.22855 0.0
H650 H 0.0951 0.56212 0.22264 0.0
H651 H 0.08211 0.55412 0.1964 0.0
H652 H 0.07834 0.49825 0.24502 0.0
H653 H 0.07658 0.56524 0.24555 0.0
H654 H 0.10167 0.54722 0.28475 0.0
H655 H 0.08116 0.56751 0.2942 0.0
H656 H 0.11038 0.60392 0.2559 0.0
H657 H 0.12069 0.64299 0.2691 0.0
H658 H 0.06355 0.47072 0.26523 0.0
H659 H 0.13181 0.53396 0.28331 0.0
H660 H 0.0919 0.60675 0.30747 0.0
H661 H 0.07455 0.44427 0.27792 0.0
H662 H 0.14295 0.50768 0.29579 0.0
C663 C 0.44086 0.51165 0.19536 0.0
C664 C 0.46401 0.51673 0.19181 0.0
C665 C 0.43671 0.51437 0.20997 0.0
C666 C 0.4557 0.52244 0.22129 0.0
C667 C 0.47868 0.52698 0.21776 0.0
C668 C 0.48277 0.52408 0.20319 0.0
C669 C 0.45196 0.52734 0.23666 0.0
C670 C 0.43099 0.51066 0.24283 0.0
C671 C 0.4273 0.51563 0.2573 0.0
C672 C 0.44472 0.53771 0.2655 0.0
C673 C 0.46566 0.55466 0.25947 0.0
C674 C 0.46921 0.54923 0.24509 0.0
C675 C 0.48343 0.57838 0.26802 0.0
C676 C 0.47524 0.59197 0.27609 0.0
C677 C 0.50863 0.58779 0.26799 0.0
C678 C 0.52528 0.61033 0.27586 0.0
C679 C 0.51708 0.62398 0.2839 0.0
C680 C 0.40516 0.49809 0.26388 0.0
C681 C 0.38208 0.48668 0.25581 0.0
C682 C 0.40687 0.4933 0.2785 0.0
C683 C 0.38598 0.47794 0.28502 0.0
C684 C 0.36283 0.46697 0.27707 0.0
C685 C 0.36114 0.47128 0.26233 0.0
C686 C 0.49185 0.6145 0.28392 0.0
H687 H 0.42599 0.50575 0.18683 0.0
H688 H 0.41886 0.51088 0.21235 0.0
H689 H 0.4936 0.53302 0.22628 0.0
H690 H 0.50086 0.52833 0.2008 0.0
H691 H 0.41779 0.4936 0.23645 0.0
H692 H 0.48502 0.5625 0.24024 0.0
H693 H 0.44188 0.54185 0.27659 0.0
H694 H 0.45594 0.58541 0.27612 0.0
H695 H 0.51549 0.57761 0.262 0.0
H696 H 0.54458 0.61694 0.27577 0.0
H697 H 0.38011 0.4902 0.24458 0.0
H698 H 0.42443 0.50144 0.28494 0.0
H699 H 0.4849 0.62472 0.28976 0.0
H700 H 0.34357 0.46331 0.25595 0.0
H701 H 0.38796 0.47462 0.29629 0.0
C702 C 0.53548 0.0212 0.04764 0.0
Eu703 Eu 0.51646 0.01385 0.02062 0.0
C704 C 0.52662 0.01205 0.06167 0.0
C705 C 0.53501 0.02846 0.07445 0.0
C706 C 0.52651 0.02031 0.08784 0.0
C707 C 0.50946 0.9955 0.08874 0.0
C708 C 0.50102 0.97909 0.07585 0.0
C709 C 0.50949 0.98729 0.06245 0.0
C710 C 0.4994 0.04044 0.0081 0.0
C711 C 0.45826 0.97262 0.0181 0.0
C712 C 0.46738 0.98483 0.96363 0.0
Eu713 Eu 0.48707 0.99172 0.99046 0.0
C714 C 0.4758 0.99176 0.9492 0.0
C715 C 0.49961 0.99833 0.94632 0.0
C716 C 0.50733 0.00514 0.93255 0.0
C717 C 0.49136 0.00552 0.92143 0.0
C718 C 0.46759 0.99912 0.92449 0.0
C719 C 0.45992 0.99229 0.93823 0.0
C720 C 0.50484 0.96549 0.00282 0.0
C721 C 0.54567 0.03241 0.99294 0.0
O722 O 0.53566 0.0056 0.03767 0.0
O723 O 0.52774 0.03495 0.04216 0.0
O724 O 0.52052 0.05012 0.0157 0.0
O725 O 0.48792 0.01749 0.00802 0.0
O726 O 0.47993 0.9828 0.02575 0.0
O727 O 0.45578 0.97619 0.00425 0.0
O728 O 0.4708 0.00274 0.97318 0.0
O729 O 0.47242 0.96932 0.96941 0.0
O730 O 0.48378 0.95549 0.9951 0.0
O731 O 0.51581 0.98839 0.00294 0.0
O732 O 0.52413 0.02155 0.98506 0.0
O733 O 0.54796 0.02982 0.00701 0.0
H734 H 0.54807 0.04767 0.07405 0.0
H735 H 0.5331 0.03354 0.09747 0.0
H736 H 0.48813 0.95983 0.07614 0.0
H737 H 0.50265 0.97427 0.05271 0.0
H738 H 0.51218 0.99814 0.95471 0.0
H739 H 0.52567 0.00979 0.93056 0.0
H740 H 0.45497 0.99967 0.91631 0.0
H741 H 0.44156 0.98752 0.94032 0.0
C742 C 0.98745 0.51795 0.0457 0.0
Eu743 Eu 0.99238 0.5046 0.01932 0.0
C744 C 0.99373 0.51532 0.06089 0.0
C745 C 0.97577 0.50758 0.07063 0.0
C746 C 0.98117 0.50499 0.08512 0.0
C747 C 0.00475 0.51029 0.09021 0.0
C748 C 0.02268 0.51783 0.08035 0.0
C749 C 0.0172 0.52024 0.06581 0.0
C750 C 0.96289 0.45986 0.00467 0.0
C751 C 0.03137 0.48511 0.02009 0.0
C752 C 0.01334 0.48002 0.96488 0.0
Eu753 Eu 0.00941 0.49458 0.99119 0.0
C754 C 0.00668 0.48215 0.94967 0.0
C755 C 0.02402 0.48838 0.93958 0.0
C756 C 0.01824 0.49054 0.92507 0.0
C757 C 0.99494 0.48634 0.92037 0.0
C758 C 0.9776 0.48022 0.93052 0.0
C759 C 0.98345 0.47825 0.94508 0.0
C760 C 0.03908 0.53958 0.00563 0.0
C761 C 0.97094 0.51471 0.99044 0.0
O762 O 0.00544 0.53191 0.03829 0.0
O763 O 0.97082 0.4979 0.03787 0.0
O764 O 0.95491 0.47303 0.01091 0.0
O765 O 0.98576 0.47046 0.00663 0.0
O766 O 0.02268 0.4974 0.02726 0.0
O767 O 0.02559 0.47838 0.00588 0.0
O768 O 0.99551 0.46659 0.97255 0.0
O769 O 0.03033 0.50022 0.97241 0.0
O770 O 0.04693 0.52673 0.99882 0.0
O771 O 0.01616 0.52875 0.00394 0.0
O772 O 0.97941 0.5022 0.98327 0.0
O773 O 0.97671 0.52139 0.00466 0.0
H774 H 0.9575 0.50351 0.067 0.0
H775 H 0.96679 0.49871 0.09231 0.0
H776 H 0.0411 0.52234 0.08393 0.0
H777 H 0.03138 0.52611 0.05848 0.0
H778 H 0.04203 0.49148 0.94293 0.0
H779 H 0.03186 0.495 0.91744 0.0
H780 H 0.95957 0.4771 0.92722 0.0
H781 H 0.96981 0.47362 0.95271 0.0
C782 C 0.46641 0.4747 0.96441 0.0
Eu783 Eu 0.48665 0.49375 0.99097 0.0
C784 C 0.47574 0.47676 0.95001 0.0
C785 C 0.49877 0.49629 0.94795 0.0
C786 C 0.50786 0.49781 0.93434 0.0
C787 C 0.49409 0.47975 0.92257 0.0
C788 C 0.471 0.46022 0.92472 0.0
C789 C 0.46192 0.45875 0.93834 0.0
C790 C 0.50269 0.54029 0.00201 0.0
C791 C 0.54573 0.51556 0.99159 0.0
C792 C 0.53891 0.53048 0.04643 0.0
Eu793 Eu 0.51857 0.51032 0.02004 0.0
C794 C 0.53022 0.52795 0.06103 0.0
C795 C 0.50845 0.50714 0.0636 0.0
C796 C 0.50012 0.50503 0.07748 0.0
C797 C 0.51333 0.5238 0.08898 0.0
C798 C 0.53505 0.54468 0.0863 0.0
C799 C 0.54342 0.54671 0.07244 0.0
C800 C 0.5021 0.46345 0.00925 0.0
C801 C 0.45921 0.48774 0.01934 0.0
O802 O 0.47321 0.46368 0.97354 0.0
O803 O 0.46768 0.49448 0.97069 0.0
O804 O 0.48091 0.52593 0.99553 0.0
O805 O 0.51516 0.52991 0.00192 0.0
O806 O 0.5237 0.50134 0.98459 0.0
O807 O 0.54877 0.52472 0.00538 0.0
O808 O 0.53038 0.54024 0.0374 0.0
O809 O 0.53916 0.5115 0.04013 0.0
O810 O 0.52356 0.47741 0.01628 0.0
O811 O 0.49008 0.47427 0.00908 0.0
O812 O 0.48117 0.50172 0.02653 0.0
O813 O 0.45635 0.47908 0.00546 0.0
H814 H 0.50979 0.51028 0.9569 0.0
H815 H 0.52582 0.51288 0.93309 0.0
H816 H 0.45987 0.44617 0.91583 0.0
H817 H 0.44414 0.44352 0.93978 0.0
H818 H 0.49786 0.49257 0.05486 0.0
H819 H 0.48317 0.48888 0.07915 0.0
H820 H 0.54573 0.55933 0.09498 0.0
H821 H 0.5602 0.56294 0.07061 0.0
C822 C 0.20011 0.35402 0.3808 0.0
Eu823 Eu 0.18128 0.34574 0.35365 0.0
C824 C 0.19172 0.34452 0.39481 0.0
C825 C 0.20228 0.36007 0.40788 0.0
C826 C 0.19449 0.35147 0.42132 0.0
C827 C 0.17595 0.32711 0.42191 0.0
C828 C 0.16525 0.31161 0.40873 0.0
C829 C 0.17308 0.32024 0.39529 0.0
C830 C 0.16571 0.37261 0.33998 0.0
C831 C 0.12281 0.30488 0.35076 0.0
C832 C 0.13456 0.31458 0.29612 0.0
Eu833 Eu 0.15273 0.32277 0.32339 0.0
C834 C 0.1437 0.32446 0.28229 0.0
C835 C 0.13615 0.30851 0.26934 0.0
C836 C 0.14497 0.31739 0.25614 0.0
C837 C 0.16147 0.34244 0.25565 0.0
C838 C 0.16905 0.3584 0.26867 0.0
C839 C 0.16032 0.34948 0.28189 0.0
C840 C 0.16868 0.29619 0.33712 0.0
C841 C 0.21107 0.36374 0.32622 0.0
O842 O 0.20144 0.33903 0.37091 0.0
O843 O 0.19089 0.3665 0.37523 0.0
O844 O 0.18647 0.38213 0.34798 0.0
O845 O 0.15372 0.34973 0.34017 0.0
O846 O 0.14423 0.31553 0.35875 0.0
O847 O 0.12084 0.30742 0.33667 0.0
O848 O 0.13263 0.32924 0.30595 0.0
O849 O 0.14359 0.30204 0.30183 0.0
O850 O 0.14781 0.28647 0.32923 0.0
O851 O 0.18043 0.31902 0.33679 0.0
O852 O 0.18963 0.35318 0.31828 0.0
O853 O 0.21309 0.36107 0.34029 0.0
H854 H 0.21655 0.37891 0.4077 0.0
H855 H 0.20286 0.36399 0.43123 0.0
H856 H 0.15112 0.29269 0.4088 0.0
H857 H 0.16468 0.30792 0.3853 0.0
H858 H 0.1234 0.28914 0.26944 0.0
H859 H 0.13858 0.30469 0.24627 0.0
H860 H 0.18195 0.37775 0.26866 0.0
H861 H 0.16662 0.36212 0.29179 0.0
C862 C 0.65644 0.85261 0.37717 0.0
Eu863 Eu 0.65955 0.83746 0.3508 0.0
C864 C 0.66276 0.85026 0.39241 0.0
C865 C 0.64498 0.84323 0.40226 0.0
C866 C 0.65059 0.84142 0.41688 0.0
C867 C 0.67419 0.84683 0.42193 0.0
C868 C 0.69192 0.85354 0.412 0.0
C869 C 0.68623 0.85514 0.39734 0.0
C870 C 0.62996 0.79187 0.33714 0.0
C871 C 0.69884 0.81836 0.35113 0.0
C872 C 0.678 0.81117 0.29577 0.0
Eu873 Eu 0.67534 0.82644 0.32221 0.0
C874 C 0.6704 0.81293 0.28068 0.0
C875 C 0.68715 0.8193 0.2702 0.0
C876 C 0.68048 0.82121 0.25582 0.0
C877 C 0.65687 0.81663 0.25163 0.0
C878 C 0.64011 0.81034 0.26215 0.0
C879 C 0.64685 0.80861 0.27658 0.0
C880 C 0.70499 0.87197 0.33594 0.0
C881 C 0.63636 0.84593 0.32196 0.0
O882 O 0.67446 0.86544 0.36947 0.0
O883 O 0.63888 0.83275 0.36964 0.0
O884 O 0.62211 0.80464 0.34403 0.0
O885 O 0.65289 0.80311 0.33833 0.0
O886 O 0.69018 0.83063 0.35836 0.0
O887 O 0.69269 0.81125 0.33695 0.0
O888 O 0.66074 0.79792 0.30383 0.0
O889 O 0.69529 0.83154 0.303 0.0
O890 O 0.71283 0.8592 0.32902 0.0
O891 O 0.68205 0.86075 0.33468 0.0
O892 O 0.64466 0.83331 0.31473 0.0
O893 O 0.6428 0.8532 0.3361 0.0
H894 H 0.62677 0.83938 0.39867 0.0
H895 H 0.63666 0.83647 0.42432 0.0
H896 H 0.71018 0.85758 0.41559 0.0
H897 H 0.70025 0.86039 0.38993 0.0
H898 H 0.7054 0.82272 0.27316 0.0
H899 H 0.69367 0.82582 0.24789 0.0
H900 H 0.62186 0.80694 0.25925 0.0
H901 H 0.63365 0.80387 0.2845 0.0
C902 C 0.13178 0.80665 0.29655 0.0
Eu903 Eu 0.15185 0.82622 0.32307 0.0
C904 C 0.14064 0.80927 0.282 0.0
C905 C 0.16338 0.82914 0.2798 0.0
C906 C 0.17209 0.83098 0.26604 0.0
C907 C 0.15827 0.81289 0.25429 0.0
C908 C 0.13545 0.79309 0.25658 0.0
C909 C 0.12672 0.79131 0.27032 0.0
C910 C 0.16876 0.87315 0.33388 0.0
C911 C 0.2109 0.84751 0.32438 0.0
C912 C 0.20324 0.86106 0.37916 0.0
Eu913 Eu 0.183 0.84229 0.35257 0.0
C914 C 0.19514 0.85946 0.39397 0.0
C915 C 0.20743 0.85473 0.40529 0.0
C916 C 0.20003 0.85288 0.4194 0.0
C917 C 0.18025 0.85593 0.42253 0.0
C918 C 0.16786 0.86054 0.4111 0.0
C919 C 0.17516 0.86219 0.39695 0.0
C920 C 0.16588 0.79531 0.34159 0.0
C921 C 0.1242 0.82125 0.35124 0.0
O922 O 0.14009 0.79666 0.30552 0.0
O923 O 0.1317 0.82567 0.30292 0.0
O924 O 0.14744 0.85945 0.32665 0.0
O925 O 0.18055 0.86206 0.33432 0.0
O926 O 0.18903 0.83367 0.31709 0.0
O927 O 0.21362 0.85641 0.3382 0.0
O928 O 0.19644 0.87216 0.37008 0.0
O929 O 0.20186 0.84126 0.37287 0.0
O930 O 0.18731 0.80897 0.34868 0.0
O931 O 0.15425 0.80654 0.34134 0.0
O932 O 0.14602 0.83592 0.35839 0.0
O933 O 0.12152 0.81147 0.33764 0.0
H934 H 0.17448 0.84307 0.28875 0.0
H935 H 0.18986 0.84628 0.26467 0.0
H936 H 0.12428 0.779 0.24771 0.0
H937 H 0.10918 0.77582 0.27187 0.0
H938 H 0.22275 0.85236 0.40321 0.0
H939 H 0.20972 0.84884 0.42783 0.0
H940 H 0.15274 0.86327 0.41311 0.0
H941 H 0.16522 0.86569 0.38838 0.0
C942 C 0.86136 0.69639 0.71448 0.0
Eu943 Eu 0.84481 0.68294 0.68684 0.0
C944 C 0.8542 0.68616 0.72848 0.0
C945 C 0.86558 0.70112 0.74167 0.0
C946 C 0.85868 0.69186 0.75509 0.0
C947 C 0.84022 0.6674 0.75555 0.0
C948 C 0.82883 0.65247 0.74224 0.0
C949 C 0.83575 0.66177 0.72882 0.0
C950 C 0.82943 0.7062 0.66938 0.0
C951 C 0.78765 0.63866 0.68339 0.0
C952 C 0.80254 0.64315 0.62899 0.0
Eu953 Eu 0.81926 0.65496 0.65661 0.0
C954 C 0.81125 0.65258 0.61501 0.0
C955 C 0.80345 0.63627 0.60221 0.0
C956 C 0.81166 0.64478 0.58883 0.0
C957 C 0.8278 0.66983 0.58801 0.0
C958 C 0.83568 0.68614 0.60089 0.0
C959 C 0.82756 0.67758 0.6143 0.0
C960 C 0.83485 0.63152 0.67384 0.0
C961 C 0.87691 0.69808 0.66008 0.0
O962 O 0.86888 0.68525 0.70552 0.0
O963 O 0.84676 0.70243 0.70775 0.0
O964 O 0.84934 0.71737 0.67824 0.0
O965 O 0.81789 0.68361 0.67074 0.0
O966 O 0.80839 0.65185 0.69192 0.0
O967 O 0.78637 0.6387 0.669 0.0
O968 O 0.79781 0.65682 0.63793 0.0
O969 O 0.814 0.63367 0.63573 0.0
O970 O 0.8157 0.62028 0.66435 0.0
O971 O 0.8461 0.65421 0.67277 0.0
O972 O 0.85629 0.68473 0.65148 0.0
O973 O 0.87791 0.69874 0.67452 0.0
H974 H 0.87973 0.72004 0.7416 0.0
H975 H 0.86758 0.70398 0.7651 0.0
H976 H 0.81476 0.63349 0.74218 0.0
H977 H 0.82672 0.64993 0.71874 0.0
H978 H 0.79093 0.61691 0.60257 0.0
H979 H 0.80504 0.63181 0.57908 0.0
H980 H 0.84831 0.70549 0.60064 0.0
H981 H 0.83401 0.69046 0.62409 0.0
C982 C 0.31975 0.17833 0.71168 0.0
Eu983 Eu 0.32626 0.16835 0.68495 0.0
C984 C 0.32816 0.17738 0.72673 0.0
C985 C 0.31149 0.16972 0.73726 0.0
C986 C 0.31899 0.16893 0.7517 0.0
C987 C 0.34337 0.17592 0.75587 0.0
C988 C 0.36002 0.18331 0.74524 0.0
C989 C 0.35245 0.18393 0.73076 0.0
C990 C 0.29868 0.12545 0.66801 0.0
C991 C 0.36776 0.1523 0.68449 0.0
C992 C 0.3551 0.1569 0.62987 0.0
Eu993 Eu 0.34638 0.1648 0.65643 0.0
C994 C 0.34639 0.15676 0.6147 0.0
C995 C 0.36308 0.16455 0.60419 0.0
C996 C 0.35545 0.16479 0.58969 0.0
C997 C 0.33093 0.15713 0.58543 0.0
C998 C 0.3142 0.14939 0.596 0.0
C999 C 0.3219 0.14933 0.61057 0.0
C1000 C 0.37331 0.2076 0.67366 0.0
C1001 C 0.30383 0.17935 0.65674 0.0
O1002 O 0.33577 0.19462 0.70412 0.0
O1003 O 0.30571 0.15723 0.70394 0.0
O1004 O 0.28985 0.13582 0.67627 0.0
O1005 O 0.32167 0.13698 0.66993 0.0
O1006 O 0.35729 0.16206 0.69229 0.0
O1007 O 0.36378 0.1484 0.67006 0.0
O1008 O 0.34016 0.13951 0.6373 0.0
O1009 O 0.36685 0.17825 0.63763 0.0
O1010 O 0.3826 0.1966 0.66639 0.0
O1011 O 0.35042 0.19599 0.67121 0.0
O1012 O 0.31463 0.16992 0.64895 0.0
O1013 O 0.30796 0.18364 0.67116 0.0
H1014 H 0.29267 0.16454 0.73433 0.0
H1015 H 0.30583 0.16343 0.75968 0.0
H1016 H 0.37887 0.18857 0.74813 0.0
H1017 H 0.36559 0.18966 0.72276 0.0
H1018 H 0.38206 0.1704 0.60721 0.0
H1019 H 0.36868 0.17057 0.58175 0.0
H1020 H 0.29523 0.1436 0.59304 0.0
H1021 H 0.30877 0.14349 0.61857 0.0
C1022 C 0.79976 0.14716 0.62988 0.0
Eu1023 Eu 0.82015 0.16409 0.65663 0.0
C1024 C 0.80842 0.14675 0.61539 0.0
C1025 C 0.79897 0.15333 0.60348 0.0
C1026 C 0.80744 0.15382 0.58973 0.0
C1027 C 0.82549 0.1476 0.58764 0.0
C1028 C 0.83493 0.14098 0.59959 0.0
C1029 C 0.82654 0.14063 0.61336 0.0
C1030 C 0.83583 0.20986 0.66898 0.0
C1031 C 0.87895 0.18512 0.65722 0.0
C1032 C 0.87221 0.19789 0.71221 0.0
Eu1033 Eu 0.85187 0.17894 0.68567 0.0
C1034 C 0.86334 0.19523 0.72677 0.0
C1035 C 0.84158 0.17434 0.72927 0.0
C1036 C 0.83299 0.17223 0.74307 0.0
C1037 C 0.84591 0.19109 0.75456 0.0
C1038 C 0.86764 0.21204 0.75197 0.0
C1039 C 0.87628 0.21406 0.73818 0.0
C1040 C 0.83569 0.13266 0.6738 0.0
C1041 C 0.79256 0.15654 0.68509 0.0
O1042 O 0.80255 0.13381 0.63926 0.0
O1043 O 0.80504 0.16869 0.63595 0.0
O1044 O 0.81394 0.19562 0.66261 0.0
O1045 O 0.84847 0.1997 0.66828 0.0
O1046 O 0.85693 0.17091 0.6502 0.0
O1047 O 0.88199 0.19405 0.67105 0.0
O1048 O 0.86442 0.20848 0.70336 0.0
O1049 O 0.8718 0.17871 0.70567 0.0
O1050 O 0.85707 0.14635 0.68098 0.0
O1051 O 0.82354 0.14337 0.67404 0.0
O1052 O 0.8145 0.16973 0.69242 0.0
O1053 O 0.78965 0.14912 0.67098 0.0
H1054 H 0.78504 0.15818 0.60482 0.0
H1055 H 0.79962 0.15872 0.58069 0.0
H1056 H 0.84903 0.13636 0.59835 0.0
H1057 H 0.83431 0.13569 0.6224 0.0
H1058 H 0.83117 0.15972 0.72052 0.0
H1059 H 0.81605 0.15603 0.74469 0.0
H1060 H 0.87809 0.22676 0.76064 0.0
H1061 H 0.89303 0.23037 0.73641 0.0
H1062 H 0.35134 0.8623 0.06685 0.0
H1063 H 0.31605 0.90121 0.0517 0.0
H1064 H 0.38733 0.88902 0.05501 0.0
H1065 H 0.3523 0.92831 0.0401 0.0
H1066 H 0.45642 0.95807 0.04562 0.0
H1067 H 0.42044 0.93228 0.05764 0.0
H1068 H 0.37433 0.92568 0.01919 0.0
H1069 H 0.41034 0.95171 0.00714 0.0
C1070 C 0.35129 0.87657 0.06099 0.0
C1071 C 0.33084 0.87961 0.06018 0.0
C1072 C 0.37197 0.89201 0.05432 0.0
C1073 C 0.37265 0.91077 0.04662 0.0
C1074 C 0.35224 0.91388 0.04585 0.0
C1075 C 0.33159 0.89853 0.05261 0.0
C1076 C 0.43864 0.95117 0.0397 0.0
C1077 C 0.4363 0.95695 0.02539 0.0
C1078 C 0.41801 0.93628 0.04658 0.0
C1079 C 0.39454 0.92691 0.03936 0.0
C1080 C 0.39217 0.93282 0.02509 0.0
C1081 C 0.41282 0.94762 0.01816 0.0
H1082 H 0.11404 0.44678 0.08156 0.0
H1083 H 0.15524 0.46812 0.04409 0.0
H1084 H 0.08346 0.45426 0.06958 0.0
H1085 H 0.1251 0.47633 0.03233 0.0
H1086 H 0.05341 0.46116 0.00871 0.0
H1087 H 0.08293 0.45306 0.02127 0.0
H1088 H 0.07818 0.48802 0.06187 0.0
H1089 H 0.04825 0.49588 0.04933 0.0
C1090 C 0.11657 0.45306 0.07077 0.0
C1091 C 0.13704 0.45676 0.06376 0.0
C1092 C 0.09918 0.45759 0.06397 0.0
C1093 C 0.1018 0.46582 0.04998 0.0
C1094 C 0.12238 0.46971 0.04303 0.0
C1095 C 0.1398 0.46526 0.04984 0.0
C1096 C 0.05853 0.46706 0.02034 0.0
C1097 C 0.04847 0.47924 0.028 0.0
C1098 C 0.07561 0.46255 0.02751 0.0
C1099 C 0.08307 0.47007 0.04254 0.0
C1100 C 0.07269 0.48185 0.0503 0.0
C1101 C 0.0556 0.48643 0.0431 0.0
H1102 H 0.58822 0.68755 0.04703 0.0
H1103 H 0.51639 0.67762 0.03682 0.0
H1104 H 0.5738 0.64631 0.0363 0.0
H1105 H 0.50298 0.63773 0.02432 0.0
H1106 H 0.47612 0.55745 0.01485 0.0
H1107 H 0.4906 0.59823 0.02698 0.0
H1108 H 0.56343 0.62031 0.01573 0.0
H1109 H 0.54899 0.57874 0.00488 0.0
C1110 C 0.56937 0.67674 0.04245 0.0
C1111 C 0.55355 0.68622 0.043 0.0
C1112 C 0.56118 0.65306 0.03594 0.0
C1113 C 0.5371 0.63833 0.02933 0.0
C1114 C 0.52147 0.64806 0.02954 0.0
C1115 C 0.52943 0.67142 0.03647 0.0
C1116 C 0.49522 0.57113 0.01506 0.0
C1117 C 0.51148 0.56515 0.00896 0.0
C1118 C 0.50358 0.59465 0.02189 0.0
C1119 C 0.52829 0.61299 0.02232 0.0
C1120 C 0.54443 0.60679 0.01599 0.0
C1121 C 0.53617 0.58302 0.00961 0.0
H1122 H 0.83893 0.32639 0.96175 0.0
H1123 H 0.89974 0.31495 0.95631 0.0
H1124 H 0.8661 0.36568 0.97523 0.0
H1125 H 0.92736 0.35575 0.96803 0.0
H1126 H 0.97055 0.42133 0.00201 0.0
H1127 H 0.94339 0.38079 0.98918 0.0
H1128 H 0.89399 0.40517 0.97415 0.0
H1129 H 0.92023 0.44475 0.9882 0.0
C1130 C 0.85808 0.33213 0.96335 0.0
C1131 C 0.86684 0.31701 0.95791 0.0
C1132 C 0.87392 0.3552 0.97084 0.0
C1133 C 0.89923 0.36438 0.97272 0.0
C1134 C 0.90806 0.34942 0.9671 0.0
C1135 C 0.8921 0.32599 0.96002 0.0
C1136 C 0.95378 0.41779 0.99598 0.0
C1137 C 0.94723 0.43589 0.99618 0.0
C1138 C 0.93823 0.39461 0.98847 0.0
C1139 C 0.91616 0.38929 0.98057 0.0
C1140 C 0.91026 0.40799 0.98043 0.0
C1141 C 0.92541 0.43085 0.98836 0.0
H1142 H 0.68642 0.58312 0.95558 0.0
H1143 H 0.64967 0.50703 0.93799 0.0
H1144 H 0.65087 0.57549 0.96814 0.0
H1145 H 0.61449 0.49926 0.95087 0.0
H1146 H 0.59405 0.54511 0.00168 0.0
H1147 H 0.62938 0.5539 0.98861 0.0
H1148 H 0.58158 0.50854 0.9503 0.0
H1149 H 0.54632 0.4994 0.96338 0.0
C1150 C 0.67073 0.56479 0.95434 0.0
C1151 C 0.6709 0.54568 0.94579 0.0
C1152 C 0.65046 0.56036 0.96167 0.0
C1153 C 0.62984 0.53675 0.96054 0.0
C1154 C 0.62996 0.51771 0.95187 0.0
C1155 C 0.65024 0.52211 0.94461 0.0
C1156 C 0.59106 0.53703 0.99047 0.0
C1157 C 0.56731 0.52148 0.98362 0.0
C1158 C 0.61133 0.5422 0.98294 0.0
C1159 C 0.60832 0.53188 0.96842 0.0
C1160 C 0.58456 0.51652 0.96154 0.0
C1161 C 0.56432 0.51139 0.96904 0.0
H1162 H 0.4173 0.1028 0.96894 0.0
H1163 H 0.48845 0.14162 0.95355 0.0
H1164 H 0.42978 0.07793 0.98216 0.0
H1165 H 0.50084 0.11658 0.96649 0.0
H1166 H 0.52442 0.08896 0.00492 0.0
H1167 H 0.51048 0.11223 0.99134 0.0
H1168 H 0.4407 0.04653 0.97927 0.0
H1169 H 0.45447 0.02347 0.99341 0.0
C1170 C 0.43548 0.10575 0.96822 0.0
C1171 C 0.45198 0.12426 0.96033 0.0
C1172 C 0.44264 0.09151 0.97577 0.0
C1173 C 0.4664 0.09542 0.9755 0.0
C1174 C 0.4826 0.11347 0.96722 0.0
C1175 C 0.4755 0.12777 0.95977 0.0
C1176 C 0.50608 0.07954 0.99942 0.0
C1177 C 0.49058 0.05441 1.0001 0.0
C1178 C 0.49814 0.0928 0.99152 0.0
C1179 C 0.47454 0.0812 0.98408 0.0
C1180 C 0.45892 0.05606 0.98495 0.0
C1181 C 0.46686 0.04282 0.99293 0.0
H1182 H 0.689 0.09781 0.96124 0.0
H1183 H 0.65402 0.13309 0.94028 0.0
H1184 H 0.65252 0.0736 0.97338 0.0
H1185 H 0.61758 0.10882 0.95234 0.0
H1186 H 0.54817 0.04306 0.96448 0.0
H1187 H 0.5845 0.06659 0.9522 0.0
H1188 H 0.62969 0.07915 0.99241 0.0
H1189 H 0.59335 0.0552 0.00468 0.0
C1190 C 0.67359 0.10049 0.95927 0.0
C1191 C 0.67444 0.11737 0.94976 0.0
C1192 C 0.65269 0.08663 0.96624 0.0
C1193 C 0.63215 0.08929 0.96383 0.0
C1194 C 0.63295 0.10606 0.95426 0.0
C1195 C 0.65384 0.11994 0.94732 0.0
C1196 C 0.56583 0.0508 0.97073 0.0
C1197 C 0.56781 0.04719 0.98558 0.0
C1198 C 0.58667 0.06442 0.96369 0.0
C1199 C 0.61 0.07474 0.97132 0.0
C1200 C 0.61199 0.07117 0.98617 0.0
C1201 C 0.59113 0.05758 0.99323 0.0
H1202 H 0.85165 0.50732 0.93519 0.0
H1203 H 0.88671 0.57991 0.95843 0.0
H1204 H 0.88224 0.50005 0.94728 0.0
H1205 H 0.91732 0.57267 0.97051 0.0
H1206 H 0.94967 0.53972 0.00154 0.0
H1207 H 0.92057 0.5482 0.98876 0.0
H1208 H 0.92527 0.51264 0.94837 0.0
H1209 H 0.95409 0.5037 0.96123 0.0
C1210 C 0.86602 0.52183 0.94277 0.0
C1211 C 0.86668 0.54418 0.94587 0.0
C1212 C 0.88359 0.51767 0.94969 0.0
C1213 C 0.90225 0.53577 0.95987 0.0
C1214 C 0.90299 0.55819 0.96289 0.0
C1215 C 0.88542 0.56234 0.95598 0.0
C1216 C 0.94462 0.53378 0.98991 0.0
C1217 C 0.95421 0.52097 0.98243 0.0
C1218 C 0.928 0.53878 0.98257 0.0
C1219 C 0.92055 0.53109 0.96754 0.0
C1220 C 0.93038 0.51854 0.96 0.0
C1221 C 0.94703 0.51355 0.96735 0.0
H1222 H 0.43758 0.33255 0.94825 0.0
H1223 H 0.46765 0.31352 0.98511 0.0
H1224 H 0.45103 0.37263 0.96138 0.0
H1225 H 0.48074 0.35349 0.99836 0.0
H1226 H 0.52645 0.43829 0.00797 0.0
H1227 H 0.51156 0.39708 0.99594 0.0
H1228 H 0.44205 0.39081 0.98333 0.0
H1229 H 0.45693 0.43194 0.99538 0.0
C1230 C 0.44701 0.33694 0.95917 0.0
C1231 C 0.45163 0.31995 0.96564 0.0
C1232 C 0.45452 0.35978 0.96674 0.0
C1233 C 0.46695 0.36618 0.98089 0.0
C1234 C 0.47137 0.34911 0.98742 0.0
C1235 C 0.46369 0.32618 0.9799 0.0
C1236 C 0.50796 0.42801 0.00269 0.0
C1237 C 0.49289 0.4383 0.00249 0.0
C1238 C 0.49941 0.40442 0.99587 0.0
C1239 C 0.47567 0.39078 0.98866 0.0
C1240 C 0.46052 0.40102 0.98864 0.0
C1241 C 0.46901 0.42452 0.99555 0.0
H1242 H 0.15487 0.68905 0.03243 0.0
H1243 H 0.10953 0.67004 0.0681 0.0
H1244 H 0.12673 0.64917 0.01893 0.0
H1245 H 0.08167 0.62993 0.05473 0.0
H1246 H 0.02547 0.56957 0.01957 0.0
H1247 H 0.05213 0.61057 0.03233 0.0
H1248 H 0.11517 0.60619 0.02167 0.0
H1249 H 0.08855 0.56533 0.00894 0.0
C1250 C 0.13878 0.67643 0.03733 0.0
C1251 C 0.13444 0.68265 0.05134 0.0
C1252 C 0.12281 0.65351 0.02966 0.0
C1253 C 0.10207 0.63638 0.03581 0.0
C1254 C 0.09742 0.64281 0.04968 0.0
C1255 C 0.11348 0.66567 0.05738 0.0
C1256 C 0.04502 0.5774 0.02 0.0
C1257 C 0.05498 0.56431 0.01331 0.0
C1258 C 0.06027 0.60081 0.02732 0.0
C1259 C 0.08575 0.61163 0.02796 0.0
C1260 C 0.09563 0.59849 0.02119 0.0
C1261 C 0.0804 0.57506 0.01398 0.0
H1262 H 0.34958 0.44561 0.08143 0.0
H1263 H 0.32021 0.46426 0.04403 0.0
H1264 H 0.3857 0.45477 0.06911 0.0
H1265 H 0.35615 0.47318 0.03171 0.0
H1266 H 0.41136 0.46174 0.008 0.0
H1267 H 0.37551 0.45189 0.02067 0.0
H1268 H 0.42165 0.48977 0.06095 0.0
H1269 H 0.45757 0.4994 0.04835 0.0
C1270 C 0.35088 0.45182 0.07063 0.0
C1271 C 0.33191 0.45411 0.06372 0.0
C1272 C 0.37158 0.45705 0.06357 0.0
C1273 C 0.37378 0.46463 0.0494 0.0
C1274 C 0.35485 0.46697 0.04251 0.0
C1275 C 0.33421 0.46182 0.04958 0.0
C1276 C 0.41391 0.46793 0.01957 0.0
C1277 C 0.43739 0.4814 0.02713 0.0
C1278 C 0.39333 0.4624 0.02681 0.0
C1279 C 0.39571 0.47012 0.04181 0.0
C1280 C 0.41917 0.48335 0.04943 0.0
C1281 C 0.43978 0.48899 0.04217 0.0
H1282 H 0.57563 0.91531 0.06351 0.0
H1283 H 0.54805 0.86073 0.02598 0.0
H1284 H 0.55982 0.93819 0.05097 0.0
H1285 H 0.53262 0.88381 0.01335 0.0
H1286 H 0.48277 0.91634 0.00439 0.0
H1287 H 0.49975 0.89399 0.01642 0.0
H1288 H 0.56712 0.9619 0.0292 0.0
H1289 H 0.5502 0.98417 0.01708 0.0
C1290 C 0.56628 0.90828 0.05256 0.0
C1291 C 0.56307 0.88625 0.04572 0.0
C1292 C 0.5574 0.92145 0.04535 0.0
C1293 C 0.54493 0.91272 0.0312 0.0
C1294 C 0.54195 0.89083 0.02431 0.0
C1295 C 0.55101 0.87778 0.03147 0.0
C1296 C 0.50121 0.92643 0.00974 0.0
C1297 C 0.51512 0.95196 0.00992 0.0
C1298 C 0.51096 0.91366 0.01656 0.0
C1299 C 0.53474 0.92623 0.02376 0.0
C1300 C 0.54865 0.95178 0.02389 0.0
C1301 C 0.53897 0.96451 0.01696 0.0
H1302 H 0.98311 0.18884 0.3714 0.0
H1303 H 0.01109 0.23953 0.41081 0.0
H1304 H 0.01915 0.21584 0.35982 0.0
H1305 H 0.04674 0.26708 0.39899 0.0
H1306 H 0.11962 0.29477 0.37934 0.0
H1307 H 0.08317 0.26894 0.39092 0.0
H1308 H 0.0389 0.25499 0.35008 0.0
H1309 H 0.07543 0.28039 0.33836 0.0
C1310 C 0.99695 0.20578 0.37759 0.0
C1311 C 0.99427 0.21193 0.39207 0.0
C1312 C 0.01748 0.22142 0.37088 0.0
C1313 C 0.03587 0.24364 0.37847 0.0
C1314 C 0.03306 0.24997 0.39289 0.0
C1315 C 0.01249 0.23431 0.39961 0.0
C1316 C 0.10214 0.28622 0.3728 0.0
C1317 C 0.10051 0.2896 0.35788 0.0
C1318 C 0.08119 0.27154 0.37949 0.0
C1319 C 0.05808 0.25987 0.37144 0.0
C1320 C 0.05643 0.26343 0.35655 0.0
C1321 C 0.07739 0.27811 0.34985 0.0
H1322 H 0.81927 0.82611 0.40567 0.0
H1323 H 0.78005 0.75161 0.38507 0.0
H1324 H 0.78969 0.83429 0.393 0.0
H1325 H 0.75011 0.75958 0.37276 0.0
H1326 H 0.71872 0.79171 0.3404 0.0
H1327 H 0.74781 0.78327 0.3533 0.0
H1328 H 0.74667 0.82318 0.39287 0.0
H1329 H 0.7178 0.83195 0.37994 0.0
C1330 C 0.80435 0.8115 0.39843 0.0
C1331 C 0.80203 0.78822 0.39636 0.0
C1332 C 0.78726 0.8161 0.3913 0.0
C1333 C 0.76753 0.79758 0.38189 0.0
C1334 C 0.76521 0.77431 0.37983 0.0
C1335 C 0.78224 0.76968 0.38701 0.0
C1336 C 0.7246 0.79866 0.35187 0.0
C1337 C 0.71591 0.81254 0.35912 0.0
C1338 C 0.7412 0.79369 0.35928 0.0
C1339 C 0.74957 0.80256 0.37411 0.0
C1340 C 0.7408 0.81633 0.3814 0.0
C1341 C 0.72412 0.82123 0.374 0.0
H1342 H 0.23301 0.00504 0.39447 0.0
H1343 H 0.20345 0.0231 0.35686 0.0
H1344 H 0.21977 0.96476 0.38178 0.0
H1345 H 0.18995 0.98268 0.34427 0.0
H1346 H 0.14456 0.89841 0.33489 0.0
H1347 H 0.1593 0.93956 0.34687 0.0
H1348 H 0.22842 0.94554 0.3603 0.0
H1349 H 0.21363 0.90436 0.34832 0.0
C1350 C 0.22394 0.00054 0.38344 0.0
C1351 C 0.21925 0.0173 0.37669 0.0
C1352 C 0.21632 0.97745 0.37618 0.0
C1353 C 0.20376 0.97055 0.36205 0.0
C1354 C 0.19927 0.98735 0.35525 0.0
C1355 C 0.20698 0.01048 0.36247 0.0
C1356 C 0.16293 0.90859 0.34035 0.0
C1357 C 0.17793 0.89822 0.34075 0.0
C1358 C 0.1714 0.93216 0.34715 0.0
C1359 C 0.19501 0.94576 0.35454 0.0
C1360 C 0.21005 0.93539 0.35484 0.0
C1361 C 0.20162 0.91187 0.34796 0.0
H1362 H 0.51439 0.64234 0.31106 0.0
H1363 H 0.55961 0.66034 0.27531 0.0
H1364 H 0.54218 0.68265 0.32404 0.0
H1365 H 0.58755 0.70061 0.2884 0.0
H1366 H 0.64359 0.76172 0.32342 0.0
H1367 H 0.61694 0.72066 0.31072 0.0
H1368 H 0.5539 0.72534 0.321 0.0
H1369 H 0.5805 0.76622 0.33369 0.0
C1370 C 0.5302 0.65493 0.30594 0.0
C1371 C 0.53468 0.64814 0.2921 0.0
C1372 C 0.54614 0.67801 0.31339 0.0
C1373 C 0.56699 0.69485 0.30721 0.0
C1374 C 0.57177 0.68793 0.29352 0.0
C1375 C 0.55577 0.66485 0.28603 0.0
C1376 C 0.62404 0.75395 0.32291 0.0
C1377 C 0.61408 0.76711 0.3295 0.0
C1378 C 0.6088 0.7305 0.31562 0.0
C1379 C 0.58332 0.71974 0.3149 0.0
C1380 C 0.57344 0.73298 0.32154 0.0
C1381 C 0.58866 0.75643 0.32874 0.0
H1382 H 0.3527 0.91595 0.2899 0.0
H1383 H 0.31612 0.84031 0.27143 0.0
H1384 H 0.31684 0.9079 0.30226 0.0
H1385 H 0.28062 0.83211 0.28409 0.0
H1386 H 0.21221 0.83235 0.29608 0.0
H1387 H 0.24788 0.84176 0.28337 0.0
H1388 H 0.29473 0.88538 0.32238 0.0
H1389 H 0.259 0.87628 0.3351 0.0
C1390 C 0.33698 0.89764 0.28844 0.0
C1391 C 0.33727 0.87877 0.27969 0.0
C1392 C 0.31654 0.89296 0.29564 0.0
C1393 C 0.29588 0.86936 0.29418 0.0
C1394 C 0.29614 0.85055 0.28534 0.0
C1395 C 0.31658 0.85519 0.2782 0.0
C1396 C 0.23009 0.84398 0.30198 0.0
C1397 C 0.23271 0.8535 0.31665 0.0
C1398 C 0.25055 0.84927 0.29469 0.0
C1399 C 0.27415 0.86425 0.30187 0.0
C1400 C 0.2768 0.87398 0.31649 0.0
C1401 C 0.25631 0.86864 0.32381 0.0
H1402 H 0.10274 0.42901 0.27778 0.0
H1403 H 0.13193 0.48284 0.31578 0.0
H1404 H 0.11563 0.40389 0.29037 0.0
H1405 H 0.14508 0.45793 0.3282 0.0
H1406 H 0.19043 0.42151 0.33783 0.0
H1407 H 0.17604 0.44538 0.32518 0.0
H1408 H 0.10679 0.37968 0.31207 0.0
H1409 H 0.12119 0.35581 0.32482 0.0
C1410 C 0.11167 0.43537 0.28886 0.0
C1411 C 0.11645 0.45802 0.29573 0.0
C1412 C 0.11908 0.421 0.29604 0.0
C1413 C 0.13152 0.42906 0.31021 0.0
C1414 C 0.13593 0.45147 0.31717 0.0
C1415 C 0.12842 0.46575 0.31004 0.0
C1416 C 0.17213 0.4122 0.33225 0.0
C1417 C 0.15694 0.38684 0.33223 0.0
C1418 C 0.16387 0.42585 0.32506 0.0
C1419 C 0.14027 0.41439 0.31767 0.0
C1420 C 0.12514 0.38895 0.31756 0.0
C1421 C 0.13336 0.37531 0.32485 0.0
H1422 H 0.32244 0.42362 0.26577 0.0
H1423 H 0.35275 0.47557 0.3046 0.0
H1424 H 0.28586 0.39857 0.27763 0.0
H1425 H 0.31622 0.45062 0.31642 0.0
H1426 H 0.25854 0.38726 0.33839 0.0
H1427 H 0.2951 0.41167 0.32645 0.0
H1428 H 0.25061 0.39919 0.28593 0.0
H1429 H 0.21408 0.37437 0.29775 0.0
C1430 C 0.32123 0.42978 0.2768 0.0
C1431 C 0.34055 0.45156 0.28425 0.0
C1432 C 0.30026 0.41543 0.28359 0.0
C1433 C 0.29812 0.42256 0.29799 0.0
C1434 C 0.31744 0.44437 0.30542 0.0
C1435 C 0.33839 0.45868 0.29864 0.0
C1436 C 0.25653 0.3897 0.32693 0.0
C1437 C 0.23334 0.37883 0.31904 0.0
C1438 C 0.2775 0.40382 0.3201 0.0
C1439 C 0.2758 0.40741 0.30523 0.0
C1440 C 0.2526 0.39653 0.29734 0.0
C1441 C 0.23163 0.38241 0.30417 0.0
H1442 H 0.55323 0.91238 0.29058 0.0
H1443 H 0.51688 0.83967 0.26741 0.0
H1444 H 0.58359 0.90455 0.30243 0.0
H1445 H 0.54722 0.83182 0.27928 0.0
H1446 H 0.61891 0.83462 0.29285 0.0
H1447 H 0.59018 0.84385 0.28016 0.0
H1448 H 0.58631 0.87974 0.32066 0.0
H1449 H 0.6153 0.87098 0.33327 0.0
C1450 C 0.55162 0.89466 0.28809 0.0
C1451 C 0.53258 0.87663 0.27808 0.0
C1452 C 0.56903 0.89018 0.29488 0.0
C1453 C 0.56782 0.86755 0.29182 0.0
C1454 C 0.5489 0.84958 0.28171 0.0
C1455 C 0.53149 0.85407 0.27492 0.0
C1456 C 0.61202 0.84457 0.29903 0.0
C1457 C 0.61943 0.85204 0.31409 0.0
C1458 C 0.59543 0.84974 0.29177 0.0
C1459 C 0.58591 0.86251 0.29939 0.0
C1460 C 0.59352 0.87017 0.31441 0.0
C1461 C 0.61007 0.865 0.32166 0.0
H1462 H 0.13014 0.64529 0.31707 0.0
H1463 H 0.10087 0.66472 0.28001 0.0
H1464 H 0.14345 0.6853 0.33028 0.0
H1465 H 0.11461 0.70491 0.29312 0.0
H1466 H 0.12085 0.76449 0.32726 0.0
H1467 H 0.10574 0.72345 0.31496 0.0
H1468 H 0.17462 0.72863 0.328 0.0
H1469 H 0.18973 0.7697 0.34027 0.0
C1470 C 0.1264 0.65805 0.3118 0.0
C1471 C 0.11448 0.6519 0.29751 0.0
C1472 C 0.13422 0.68102 0.3193 0.0
C1473 C 0.13012 0.69823 0.31271 0.0
C1474 C 0.11785 0.69194 0.29851 0.0
C1475 C 0.11019 0.66904 0.29097 0.0
C1476 C 0.13274 0.75684 0.32747 0.0
C1477 C 0.15649 0.77026 0.33461 0.0
C1478 C 0.12412 0.7334 0.32041 0.0
C1479 C 0.13902 0.72287 0.3205 0.0
C1480 C 0.16265 0.73619 0.32787 0.0
C1481 C 0.17133 0.7597 0.33484 0.0
H1482 H 0.77553 0.00033 0.39985 0.0
H1483 H 0.82069 0.02107 0.3641 0.0
H1484 H 0.74764 0.96068 0.38598 0.0
H1485 H 0.79256 0.98163 0.35013 0.0
H1486 H 0.75445 0.89783 0.3391 0.0
H1487 H 0.78107 0.93838 0.35221 0.0
H1488 H 0.71804 0.94233 0.36343 0.0
H1489 H 0.69137 0.90167 0.35024 0.0
C1490 C 0.77944 0.99643 0.38901 0.0
C1491 C 0.80034 0.01376 0.38308 0.0
C1492 C 0.76336 0.97384 0.38102 0.0
C1493 C 0.76796 0.96803 0.36699 0.0
C1494 C 0.78867 0.9855 0.36098 0.0
C1495 C 0.80464 0.00816 0.36892 0.0
C1496 C 0.74629 0.90741 0.34432 0.0
C1497 C 0.72088 0.89662 0.34371 0.0
C1498 C 0.76153 0.93066 0.35177 0.0
C1499 C 0.75164 0.94355 0.35883 0.0
C1500 C 0.72617 0.93274 0.3582 0.0
C1501 C 0.71092 0.90952 0.35064 0.0
H1502 H 0.97673 0.76141 0.376 0.0
H1503 H 0.0225 0.81063 0.4139 0.0
H1504 H 0.01238 0.77223 0.36338 0.0
H1505 H 0.05831 0.81907 0.40195 0.0
H1506 H 0.11881 0.84973 0.37241 0.0
H1507 H 0.08276 0.83987 0.38479 0.0
H1508 H 0.04509 0.76773 0.36055 0.0
H1509 H 0.08061 0.77861 0.34742 0.0
C1510 C 0.99435 0.77448 0.38174 0.0
C1511 C 0.9964 0.78525 0.39603 0.0
C1512 C 0.01503 0.78033 0.37454 0.0
C1513 C 0.03856 0.79658 0.38154 0.0
C1514 C 0.04065 0.80688 0.39597 0.0
C1515 C 0.01992 0.80157 0.40302 0.0
C1516 C 0.10271 0.83182 0.36972 0.0
C1517 C 0.1024 0.81499 0.35891 0.0
C1518 C 0.08203 0.826 0.37693 0.0
C1519 C 0.0607 0.80288 0.37379 0.0
C1520 C 0.06074 0.78593 0.36309 0.0
C1521 C 0.0812 0.79205 0.35559 0.0
H1522 H 0.2367 0.24351 0.39844 0.0
H1523 H 0.20626 0.18826 0.3612 0.0
H1524 H 0.22159 0.26717 0.38613 0.0
H1525 H 0.19159 0.21211 0.3488 0.0
H1526 H 0.14474 0.2473 0.33957 0.0
H1527 H 0.16022 0.22411 0.35206 0.0
H1528 H 0.22918 0.29061 0.36422 0.0
H1529 H 0.21372 0.31374 0.35165 0.0
C1530 C 0.22682 0.23646 0.38762 0.0
C1531 C 0.22266 0.21405 0.38077 0.0
C1532 C 0.21835 0.25008 0.38054 0.0
C1533 C 0.20537 0.24144 0.36653 0.0
C1534 C 0.20133 0.2191 0.35966 0.0
C1535 C 0.20995 0.20558 0.36668 0.0
C1536 C 0.1632 0.25692 0.34491 0.0
C1537 C 0.178 0.28229 0.34473 0.0
C1538 C 0.17209 0.24366 0.352 0.0
C1539 C 0.19591 0.25557 0.35911 0.0
C1540 C 0.21066 0.281 0.35898 0.0
C1541 C 0.20182 0.29422 0.35179 0.0
H1542 H 0.65537 0.57705 0.72729 0.0
H1543 H 0.67178 0.51871 0.72078 0.0
H1544 H 0.69157 0.60396 0.71568 0.0
H1545 H 0.70685 0.54533 0.70829 0.0
H1546 H 0.74671 0.59701 0.67102 0.0
H1547 H 0.71039 0.57047 0.68291 0.0
H1548 H 0.74177 0.61879 0.72309 0.0
H1549 H 0.77841 0.645 0.71144 0.0
C1550 C 0.6666 0.56989 0.72348 0.0
C1551 C 0.66043 0.54553 0.72504 0.0
C1552 C 0.6872 0.5853 0.71672 0.0
C1553 C 0.70175 0.57656 0.71106 0.0
C1554 C 0.69566 0.55232 0.71245 0.0
C1555 C 0.67542 0.53706 0.71951 0.0
C1556 C 0.74581 0.60201 0.68237 0.0
C1557 C 0.76536 0.62305 0.69031 0.0
C1558 C 0.72513 0.5868 0.68915 0.0
C1559 C 0.72343 0.59274 0.70385 0.0
C1560 C 0.74272 0.61398 0.71172 0.0
C1561 C 0.76364 0.62886 0.70506 0.0
H1562 H 0.44506 0.10702 0.74495 0.0
H1563 H 0.4905 0.13344 0.70961 0.0
H1564 H 0.41538 0.11526 0.73255 0.0
H1565 H 0.46131 0.14258 0.69751 0.0
H1566 H 0.39216 0.13139 0.67229 0.0
H1567 H 0.42063 0.1217 0.68473 0.0
H1568 H 0.41068 0.14952 0.72635 0.0
H1569 H 0.38179 0.15878 0.71396 0.0
C1570 C 0.4487 0.11454 0.73452 0.0
C1571 C 0.47015 0.11953 0.72826 0.0
C1572 C 0.43182 0.11953 0.7275 0.0
C1573 C 0.43596 0.12959 0.71403 0.0
C1574 C 0.45741 0.13458 0.70778 0.0
C1575 C 0.47429 0.12961 0.71481 0.0
C1576 C 0.39596 0.13539 0.68411 0.0
C1577 C 0.38468 0.14591 0.69212 0.0
C1578 C 0.41242 0.12996 0.69122 0.0
C1579 C 0.41803 0.13492 0.70653 0.0
C1580 C 0.40657 0.14522 0.71456 0.0
C1581 C 0.39008 0.15065 0.70744 0.0
H1582 H 0.84912 0.34526 0.70735 0.0
H1583 H 0.92189 0.35639 0.71489 0.0
H1584 H 0.83547 0.30561 0.69442 0.0
H1585 H 0.90741 0.31537 0.7038 0.0
H1586 H 0.88177 0.2488 0.6714 0.0
H1587 H 0.89612 0.28991 0.68298 0.0
H1588 H 0.82405 0.26613 0.69625 0.0
H1589 H 0.80955 0.22581 0.68338 0.0
C1590 C 0.86231 0.33937 0.70633 0.0
C1591 C 0.88677 0.35446 0.71222 0.0
C1592 C 0.85425 0.31613 0.69916 0.0
C1593 C 0.87015 0.30682 0.69806 0.0
C1594 C 0.89454 0.32179 0.7041 0.0
C1595 C 0.9028 0.34536 0.71083 0.0
C1596 C 0.86909 0.25259 0.67675 0.0
C1597 C 0.84459 0.2344 0.67644 0.0
C1598 C 0.87731 0.27611 0.68355 0.0
C1599 C 0.86136 0.28171 0.69066 0.0
C1600 C 0.83686 0.26302 0.69058 0.0
C1601 C 0.8285 0.23976 0.68333 0.0
H1602 H 0.23119 0.98637 0.61254 0.0
H1603 H 0.17877 0.97895 0.64268 0.0
H1604 H 0.26018 0.02646 0.62507 0.0
H1605 H 0.20686 0.01985 0.65432 0.0
H1606 H 0.26827 0.08589 0.68108 0.0
H1607 H 0.2423 0.04393 0.66978 0.0
H1608 H 0.26859 0.06687 0.62792 0.0
H1609 H 0.29535 0.10847 0.63959 0.0
C1610 C 0.2258 0.99319 0.62186 0.0
C1611 C 0.20251 0.97927 0.62655 0.0
C1612 C 0.24235 0.01647 0.62891 0.0
C1613 C 0.23595 0.02662 0.6407 0.0
C1614 C 0.21271 0.01262 0.64544 0.0
C1615 C 0.19633 0.98921 0.63856 0.0
C1616 C 0.26859 0.08174 0.66949 0.0
C1617 C 0.28394 0.10013 0.66118 0.0
C1618 C 0.25358 0.05777 0.66296 0.0
C1619 C 0.25314 0.05186 0.64786 0.0
C1620 C 0.26873 0.07048 0.63961 0.0
C1621 C 0.28411 0.09436 0.64625 0.0
H1622 H 0.02009 0.25211 0.6218 0.0
H1623 H 0.98382 0.1756 0.60519 0.0
H1624 H 0.98422 0.24482 0.63392 0.0
H1625 H 0.9483 0.16819 0.6176 0.0
H1626 H 0.87983 0.16868 0.62912 0.0
H1627 H 0.91529 0.17759 0.61629 0.0
H1628 H 0.96263 0.22357 0.65458 0.0
H1629 H 0.92713 0.21492 0.66741 0.0
C1630 C 0.00443 0.23377 0.62068 0.0
C1631 C 0.00482 0.21442 0.61255 0.0
C1632 C 0.98398 0.22954 0.62775 0.0
C1633 C 0.96342 0.20592 0.62675 0.0
C1634 C 0.96374 0.18665 0.61848 0.0
C1635 C 0.9842 0.19084 0.61149 0.0
C1636 C 0.89777 0.18074 0.63482 0.0
C1637 C 0.90059 0.19101 0.64933 0.0
C1638 C 0.91812 0.18576 0.62747 0.0
C1639 C 0.94179 0.20123 0.63442 0.0
C1640 C 0.94464 0.21178 0.64886 0.0
C1641 C 0.92427 0.20669 0.65624 0.0
H1642 H 0.74507 0.76534 0.63104 0.0
H1643 H 0.81492 0.80553 0.61423 0.0
H1644 H 0.75848 0.73981 0.64261 0.0
H1645 H 0.82824 0.77989 0.62561 0.0
H1646 H 0.85381 0.754 0.66473 0.0
H1647 H 0.83908 0.77594 0.65047 0.0
H1648 H 0.77043 0.70887 0.63858 0.0
H1649 H 0.7851 0.68701 0.65329 0.0
C1650 C 0.76314 0.76843 0.62962 0.0
C1651 C 0.77906 0.7876 0.62189 0.0
C1652 C 0.77081 0.75378 0.63621 0.0
C1653 C 0.79452 0.75798 0.63515 0.0
C1654 C 0.81005 0.77652 0.6269 0.0
C1655 C 0.80243 0.7912 0.62037 0.0
C1656 C 0.83561 0.74393 0.65902 0.0
C1657 C 0.82058 0.71885 0.6601 0.0
C1658 C 0.82722 0.75644 0.65075 0.0
C1659 C 0.8036 0.74414 0.64333 0.0
C1660 C 0.78865 0.7189 0.64426 0.0
C1661 C 0.79708 0.70636 0.65257 0.0
H1662 H 0.98139 0.77212 0.598 0.0
H1663 H 0.02564 0.79301 0.63963 0.0
H1664 H 0.94515 0.7488 0.61015 0.0
H1665 H 0.98968 0.76765 0.65152 0.0
H1666 H 0.91849 0.73966 0.67192 0.0
H1667 H 0.95487 0.76452 0.65994 0.0
H1668 H 0.92284 0.71328 0.62072 0.0
H1669 H 0.88606 0.68952 0.63244 0.0
C1670 C 0.9835 0.77173 0.60973 0.0
C1671 C 0.00665 0.78464 0.61776 0.0
C1672 C 0.96263 0.75789 0.61671 0.0
C1673 C 0.96429 0.75609 0.63188 0.0
C1674 C 0.98747 0.76879 0.63988 0.0
C1675 C 0.00829 0.78304 0.63296 0.0
C1676 C 0.91932 0.73378 0.66075 0.0
C1677 C 0.89944 0.71271 0.65312 0.0
C1678 C 0.94025 0.74794 0.65386 0.0
C1679 C 0.94199 0.74104 0.63928 0.0
C1680 C 0.92212 0.71963 0.6318 0.0
C1681 C 0.90103 0.70582 0.63857 0.0
H1682 H 0.20198 0.18981 0.59416 0.0
H1683 H 0.2022 0.2292 0.63442 0.0
H1684 H 0.2311 0.18089 0.60631 0.0
H1685 H 0.23294 0.2222 0.64617 0.0
H1686 H 0.26784 0.18408 0.66838 0.0
H1687 H 0.23834 0.19232 0.656 0.0
H1688 H 0.27148 0.19669 0.61566 0.0
H1689 H 0.30013 0.18701 0.62796 0.0
C1690 C 0.20824 0.19664 0.60559 0.0
C1691 C 0.19947 0.21011 0.61328 0.0
C1692 C 0.22535 0.19188 0.61252 0.0
C1693 C 0.23451 0.20077 0.62729 0.0
C1694 C 0.22606 0.21462 0.63489 0.0
C1695 C 0.20866 0.21903 0.62803 0.0
C1696 C 0.26884 0.18684 0.65687 0.0
C1697 C 0.28634 0.18495 0.64915 0.0
C1698 C 0.25199 0.19175 0.64976 0.0
C1699 C 0.25248 0.19537 0.63479 0.0
C1700 C 0.27018 0.19362 0.62711 0.0
C1701 C 0.28676 0.18824 0.63418 0.0
H1702 H 0.80004 0.98205 0.65098 0.0
H1703 H 0.76835 0.99972 0.61424 0.0
H1704 H 0.81385 0.02255 0.66374 0.0
H1705 H 0.78255 0.04029 0.62684 0.0
H1706 H 0.79024 0.10115 0.66025 0.0
H1707 H 0.77484 0.05967 0.64862 0.0
H1708 H 0.84445 0.06579 0.66068 0.0
H1709 H 0.85985 0.10734 0.67231 0.0
C1710 C 0.79589 0.99453 0.64568 0.0
C1711 C 0.78317 0.98776 0.6316 0.0
C1712 C 0.80399 0.01777 0.65292 0.0
C1713 C 0.79933 0.0346 0.64627 0.0
C1714 C 0.78624 0.02765 0.6323 0.0
C1715 C 0.77831 0.00451 0.62503 0.0
C1716 C 0.80225 0.09364 0.66037 0.0
C1717 C 0.82627 0.10746 0.66707 0.0
C1718 C 0.79345 0.06993 0.6537 0.0
C1719 C 0.80845 0.05951 0.65372 0.0
C1720 C 0.83239 0.07325 0.66063 0.0
C1721 C 0.84124 0.09704 0.66721 0.0
H1722 H 0.43826 0.33783 0.73659 0.0
H1723 H 0.48212 0.35907 0.70027 0.0
H1724 H 0.41152 0.2973 0.72333 0.0
H1725 H 0.45518 0.31876 0.68692 0.0
H1726 H 0.42258 0.23562 0.67761 0.0
H1727 H 0.44711 0.27673 0.69038 0.0
H1728 H 0.38157 0.27627 0.70079 0.0
H1729 H 0.35693 0.23499 0.6879 0.0
C1730 C 0.44206 0.33388 0.72573 0.0
C1731 C 0.46234 0.35157 0.71949 0.0
C1732 C 0.42666 0.31077 0.71811 0.0
C1733 C 0.43138 0.30484 0.70414 0.0
C1734 C 0.45128 0.32274 0.69775 0.0
C1735 C 0.46655 0.34589 0.70532 0.0
C1736 C 0.4134 0.24429 0.68263 0.0
C1737 C 0.38788 0.23216 0.68179 0.0
C1738 C 0.42744 0.26788 0.68986 0.0
C1739 C 0.41624 0.27977 0.69649 0.0
C1740 C 0.39068 0.26748 0.69583 0.0
C1741 C 0.3766 0.24391 0.68847 0.0
H1742 H 0.68333 0.11141 0.74757 0.0
H1743 H 0.65343 0.13083 0.7108 0.0
H1744 H 0.7195 0.12139 0.73508 0.0
H1745 H 0.68943 0.14066 0.69833 0.0
H1746 H 0.79106 0.16697 0.71429 0.0
H1747 H 0.75522 0.15662 0.72713 0.0
H1748 H 0.70889 0.12014 0.68672 0.0
H1749 H 0.74466 0.13076 0.67382 0.0
C1750 C 0.68454 0.11797 0.73688 0.0
C1751 C 0.6654 0.12019 0.73017 0.0
C1752 C 0.70526 0.12368 0.72972 0.0
C1753 C 0.70731 0.13171 0.71567 0.0
C1754 C 0.68825 0.13408 0.70902 0.0
C1755 C 0.66758 0.12842 0.71617 0.0
C1756 C 0.77324 0.15671 0.70813 0.0
C1757 C 0.77077 0.14976 0.693 0.0
C1758 C 0.75268 0.15066 0.71552 0.0
C1759 C 0.72919 0.13761 0.70794 0.0
C1760 C 0.72674 0.13051 0.69284 0.0
C1761 C 0.74727 0.13649 0.68546 0.0
H1762 H 0.92122 0.56705 0.70087 0.0
H1763 H 0.86713 0.54737 0.73172 0.0
H1764 H 0.90445 0.58924 0.68852 0.0
H1765 H 0.85163 0.57084 0.71984 0.0
H1766 H 0.85255 0.6396 0.70246 0.0
H1767 H 0.87065 0.61855 0.71504 0.0
H1768 H 0.85927 0.5739 0.6746 0.0
H1769 H 0.84081 0.59477 0.66214 0.0
C1770 C 0.90584 0.5674 0.70505 0.0
C1771 C 0.89559 0.5553 0.71733 0.0
C1772 C 0.89638 0.58026 0.69802 0.0
C1773 C 0.87686 0.58172 0.7033 0.0
C1774 C 0.86689 0.57015 0.71569 0.0
C1775 C 0.87596 0.55687 0.72254 0.0
C1776 C 0.85423 0.62552 0.69629 0.0
C1777 C 0.84566 0.61893 0.68138 0.0
C1778 C 0.86435 0.61337 0.70347 0.0
C1779 C 0.86647 0.59481 0.69571 0.0
C1780 C 0.85802 0.58834 0.68074 0.0
C1781 C 0.84738 0.60012 0.67367 0.0
H1782 H 0.44338 0.90707 0.15937 0.0
H1783 H 0.48342 0.98103 0.18075 0.0
H1784 H 0.45526 0.9225 0.13575 0.0
H1785 H 0.49485 0.9965 0.15708 0.0
H1786 H 0.5359 0.00957 0.11571 0.0
H1787 H 0.52178 0.9952 0.13913 0.0
H1788 H 0.44921 0.94696 0.11773 0.0
H1789 H 0.46321 0.96161 0.09426 0.0
C1790 C 0.45461 0.92663 0.159 0.0
C1791 C 0.46255 0.94282 0.17194 0.0
C1792 C 0.46123 0.93548 0.14546 0.0
C1793 C 0.47608 0.96071 0.14455 0.0
C1794 C 0.48361 0.97694 0.15745 0.0
C1795 C 0.47685 0.9681 0.17098 0.0
C1796 C 0.51685 0.99616 0.11599 0.0
C1797 C 0.50071 0.98678 0.10306 0.0
C1798 C 0.50876 0.98791 0.12944 0.0
C1799 C 0.48437 0.96997 0.13029 0.0
C1800 C 0.46819 0.9606 0.1174 0.0
C1801 C 0.47624 0.96895 0.10395 0.0
H1802 H 0.08207 0.52803 0.17462 0.0
H1803 H 0.00712 0.49525 0.18403 0.0
H1804 H 0.06918 0.52407 0.14854 0.0
H1805 H 0.99417 0.49099 0.1579 0.0
H1806 H 0.98896 0.52311 0.1145 0.0
H1807 H 0.99952 0.52137 0.1401 0.0
H1808 H 0.0452 0.49254 0.12706 0.0
H1809 H 0.0342 0.49368 0.10133 0.0
C1810 C 0.06283 0.51981 0.17108 0.0
C1811 C 0.0456 0.51208 0.18134 0.0
C1812 C 0.05543 0.51735 0.15616 0.0
C1813 C 0.03069 0.50731 0.15121 0.0
C1814 C 0.01339 0.49899 0.16143 0.0
C1815 C 0.02077 0.50124 0.17635 0.0
C1816 C 1.00089 0.51595 0.11703 0.0
C1817 C 0.01072 0.50854 0.10582 0.0
C1818 C 0.00695 0.51499 0.13172 0.0
C1819 C 0.02315 0.50679 0.13557 0.0
C1820 C 0.03284 0.49916 0.1244 0.0
C1821 C 0.02661 0.49993 0.10968 0.0
H1822 H 0.48952 0.49703 0.17965 0.0
H1823 H 0.45001 0.53399 0.16891 0.0
H1824 H 0.50021 0.49782 0.1545 0.0
H1825 H 0.46028 0.53434 0.1437 0.0
H1826 H 0.51145 0.55882 0.10687 0.0
H1827 H 0.49808 0.55568 0.13141 0.0
H1828 H 0.48153 0.48056 0.12888 0.0
H1829 H 0.49536 0.48386 0.10442 0.0
C1830 C 0.48301 0.50519 0.17189 0.0
C1831 C 0.46898 0.51551 0.17627 0.0
C1832 C 0.48895 0.50546 0.15746 0.0
C1833 C 0.48116 0.51623 0.14714 0.0
C1834 C 0.46676 0.52613 0.15145 0.0
C1835 C 0.46066 0.5257 0.16585 0.0
C1836 C 0.50505 0.54167 0.11158 0.0
C1837 C 0.50454 0.52162 0.10374 0.0
C1838 C 0.49715 0.53979 0.12557 0.0
C1839 C 0.48872 0.51785 0.13207 0.0
C1840 C 0.48809 0.49775 0.1242 0.0
C1841 C 0.49581 0.49958 0.11015 0.0
H1842 H 0.97377 0.5255 0.83336 0.0
H1843 H 0.9535 0.44929 0.8274 0.0
H1844 H 0.98214 0.52626 0.8598 0.0
H1845 H 0.96212 0.45013 0.85372 0.0
H1846 H 0.95388 0.45376 0.90269 0.0
H1847 H 0.94441 0.45463 0.87666 0.0
H1848 H 0.01248 0.52243 0.87687 0.0
H1849 H 0.02183 0.52173 0.90297 0.0
C1850 C 0.9711 0.50895 0.83771 0.0
C1851 C 0.96306 0.48736 0.82835 0.0
C1852 C 0.97602 0.50942 0.8528 0.0
C1853 C 0.97268 0.48823 0.85879 0.0
C1854 C 0.9646 0.46666 0.84941 0.0
C1855 C 0.95992 0.46625 0.83434 0.0
C1856 C 0.96666 0.469 0.89721 0.0
C1857 C 0.98861 0.48764 0.90482 0.0
C1858 C 0.96135 0.46938 0.8823 0.0
C1859 C 0.97779 0.48853 0.87475 0.0
C1860 C 0.99944 0.50752 0.88245 0.0
C1861 C 0.00486 0.50702 0.89733 0.0
H1862 H 0.52782 0.50615 0.83309 0.0
H1863 H 0.55725 0.46036 0.84482 0.0
H1864 H 0.51678 0.50754 0.85797 0.0
H1865 H 0.54605 0.46164 0.86966 0.0
H1866 H 0.49242 0.44261 0.90479 0.0
H1867 H 0.50745 0.44459 0.88083 0.0
H1868 H 0.53344 0.5222 0.88391 0.0
H1869 H 0.51778 0.52008 0.90776 0.0
C1870 C 0.53234 0.49675 0.84104 0.0
C1871 C 0.54325 0.48299 0.83693 0.0
C1872 C 0.52597 0.49752 0.8553 0.0
C1873 C 0.53033 0.4845 0.86574 0.0
C1874 C 0.54203 0.47147 0.86178 0.0
C1875 C 0.54844 0.47075 0.84755 0.0
C1876 C 0.50122 0.46007 0.90032 0.0
C1877 C 0.50382 0.48116 0.90814 0.0
C1878 C 0.51009 0.46127 0.88667 0.0
C1879 C 0.52171 0.48358 0.88049 0.0
C1880 C 0.52443 0.50472 0.88834 0.0
C1881 C 0.51566 0.50354 0.90205 0.0
H1882 H 0.49634 0.04693 0.83346 0.0
H1883 H 0.56671 0.05311 0.84255 0.0
H1884 H 0.48582 0.03352 0.85754 0.0
H1885 H 0.5562 0.03999 0.86686 0.0
H1886 H 0.53569 0.042 0.91479 0.0
H1887 H 0.54783 0.05449 0.89062 0.0
H1888 H 0.4771 0.99765 0.87063 0.0
H1889 H 0.46505 0.98495 0.89467 0.0
C1890 C 0.5095 0.0452 0.84053 0.0
C1891 C 0.53231 0.05091 0.83598 0.0
C1892 C 0.50346 0.03755 0.85436 0.0
C1893 C 0.52011 0.03554 0.86407 0.0
C1894 C 0.54306 0.04155 0.85966 0.0
C1895 C 0.54908 0.0491 0.84574 0.0
C1896 C 0.52284 0.03195 0.90522 0.0
C1897 C 0.4993 0.01259 0.90671 0.0
C1898 C 0.52981 0.03914 0.89138 0.0
C1899 C 0.51336 0.02719 0.87873 0.0
C1900 C 0.49004 0.00752 0.88019 0.0
C1901 C 0.48312 0.00028 0.89399 0.0
H1902 H 0.16472 0.26816 0.5056 0.0
H1903 H 0.10244 0.27825 0.50093 0.0
H1904 H 0.17603 0.28326 0.48196 0.0
H1905 H 0.11435 0.29432 0.47743 0.0
H1906 H 0.12952 0.29691 0.42883 0.0
H1907 H 0.11702 0.2811 0.4523 0.0
H1908 H 0.19218 0.32134 0.47102 0.0
H1909 H 0.20473 0.33633 0.44749 0.0
C1910 C 0.15337 0.27351 0.4995 0.0
C1911 C 0.1326 0.27188 0.50514 0.0
C1912 C 0.16004 0.28248 0.48601 0.0
C1913 C 0.14616 0.29011 0.47782 0.0
C1914 C 0.12532 0.2884 0.48341 0.0
C1915 C 0.11864 0.27944 0.49695 0.0
C1916 C 0.14338 0.30221 0.43793 0.0
C1917 C 0.16814 0.31785 0.43627 0.0
C1918 C 0.13619 0.29337 0.45143 0.0
C1919 C 0.1536 0.29992 0.46354 0.0
C1920 C 0.17832 0.31569 0.46188 0.0
C1921 C 0.18549 0.32452 0.44842 0.0
H1922 H 0.71332 0.89039 0.51442 0.0
H1923 H 0.70042 0.8164 0.51068 0.0
H1924 H 0.70358 0.88684 0.48806 0.0
H1925 H 0.69 0.81273 0.48423 0.0
H1926 H 0.64843 0.81173 0.43984 0.0
H1927 H 0.65773 0.81299 0.46624 0.0
H1928 H 0.72344 0.88275 0.46579 0.0
H1929 H 0.71408 0.88162 0.43951 0.0
C1930 C 0.7085 0.87339 0.50798 0.0
C1931 C 0.70795 0.85378 0.51466 0.0
C1932 C 0.70287 0.87137 0.49288 0.0
C1933 C 0.69629 0.84961 0.48411 0.0
C1934 C 0.69494 0.82969 0.49078 0.0
C1935 C 0.70082 0.83178 0.50591 0.0
C1936 C 0.66488 0.82727 0.44541 0.0
C1937 C 0.68052 0.84661 0.43766 0.0
C1938 C 0.67027 0.8279 0.46046 0.0
C1939 C 0.69121 0.84803 0.46803 0.0
C1940 C 0.70704 0.86713 0.46023 0.0
C1941 C 0.70181 0.86638 0.44518 0.0
H1942 H 0.17225 0.88819 0.51462 0.0
H1943 H 0.10933 0.81617 0.50333 0.0
H1944 H 0.18264 0.88892 0.48954 0.0
H1945 H 0.12004 0.81653 0.47817 0.0
H1946 H 0.134 0.83589 0.43108 0.0
H1947 H 0.12232 0.83505 0.45592 0.0
H1948 H 0.19814 0.871 0.47317 0.0
H1949 H 0.20986 0.87324 0.44841 0.0
C1950 C 0.16079 0.87237 0.50678 0.0
C1951 C 0.14009 0.85204 0.51096 0.0
C1952 C 0.16677 0.87274 0.49239 0.0
C1953 C 0.15232 0.85269 0.48182 0.0
C1954 C 0.13143 0.83241 0.48597 0.0
C1955 C 0.12532 0.83214 0.50038 0.0
C1956 C 0.1482 0.8439 0.44017 0.0
C1957 C 0.1729 0.8547 0.43769 0.0
C1958 C 0.14147 0.84311 0.45444 0.0
C1959 C 0.15927 0.853 0.46659 0.0
C1960 C 0.18393 0.86354 0.4641 0.0
C1961 C 0.19065 0.86449 0.44986 0.0
H1962 H 0.63154 0.85448 0.16488 0.0
H1963 H 0.6122 0.77853 0.15911 0.0
H1964 H 0.64024 0.85554 0.19133 0.0
H1965 H 0.62111 0.77965 0.18542 0.0
H1966 H 0.61517 0.78363 0.23457 0.0
H1967 H 0.60426 0.78416 0.20871 0.0
H1968 H 0.67152 0.85241 0.20796 0.0
H1969 H 0.6823 0.85205 0.23389 0.0
C1970 C 0.62907 0.83802 0.16929 0.0
C1971 C 0.62129 0.81645 0.15996 0.0
C1972 C 0.63418 0.83867 0.18437 0.0
C1973 C 0.63129 0.81766 0.19041 0.0
C1974 C 0.62326 0.79604 0.18109 0.0
C1975 C 0.6184 0.79547 0.16602 0.0
C1976 C 0.62745 0.7989 0.22893 0.0
C1977 C 0.64962 0.81775 0.23621 0.0
C1978 C 0.62131 0.7991 0.21412 0.0
C1979 C 0.6371 0.81827 0.20633 0.0
C1980 C 0.65894 0.83749 0.21372 0.0
C1981 C 0.6652 0.83717 0.2285 0.0
H1982 H 0.22198 0.79462 0.17666 0.0
H1983 H 0.19034 0.83823 0.16428 0.0
H1984 H 0.21075 0.79604 0.20146 0.0
H1985 H 0.17928 0.83981 0.18918 0.0
H1986 H 0.18083 0.85313 0.23922 0.0
H1987 H 0.19615 0.8553 0.21522 0.0
H1988 H 0.17193 0.77809 0.21252 0.0
H1989 H 0.15718 0.77605 0.23658 0.0
C1990 C 0.21265 0.80454 0.17924 0.0
C1991 C 0.20682 0.81608 0.16844 0.0
C1992 C 0.20623 0.80536 0.19345 0.0
C1993 C 0.1939 0.81782 0.19724 0.0
C1994 C 0.18893 0.83021 0.18662 0.0
C1995 C 0.1953 0.82933 0.17236 0.0
C1996 C 0.179 0.83669 0.23354 0.0
C1997 C 0.16775 0.8144 0.23977 0.0
C1998 C 0.18758 0.8379 0.21976 0.0
C1999 C 0.18529 0.81688 0.21199 0.0
C2000 C 0.17422 0.79467 0.2183 0.0
C2001 C 0.16552 0.79343 0.232 0.0
H2002 H 0.23243 0.38415 0.17496 0.0
H2003 H 0.17104 0.39565 0.17075 0.0
H2004 H 0.22293 0.37199 0.1996 0.0
H2005 H 0.16135 0.38318 0.19517 0.0
H2006 H 0.16563 0.38339 0.24483 0.0
H2007 H 0.17854 0.39798 0.22116 0.0
H2008 H 0.18976 0.33712 0.21076 0.0
H2009 H 0.17726 0.32276 0.23456 0.0
C2010 C 0.217 0.38417 0.17933 0.0
C2011 C 0.20242 0.39075 0.17091 0.0
C2012 C 0.21145 0.37705 0.19337 0.0
C2013 C 0.19141 0.37665 0.19932 0.0
C2014 C 0.17705 0.38353 0.19095 0.0
C2015 C 0.18245 0.39042 0.1769 0.0
C2016 C 0.17114 0.37331 0.23756 0.0
C2017 C 0.17034 0.35188 0.24153 0.0
C2018 C 0.17833 0.38154 0.22397 0.0
C2019 C 0.18506 0.36864 0.21408 0.0
C2020 C 0.18484 0.34754 0.21819 0.0
C2021 C 0.17745 0.33919 0.23174 0.0
H2022 H 0.76916 0.61588 0.83496 0.0
H2023 H 0.83215 0.60685 0.83869 0.0
H2024 H 0.78045 0.63255 0.81156 0.0
H2025 H 0.84282 0.62248 0.81511 0.0
H2026 H 0.86992 0.67584 0.78063 0.0
H2027 H 0.85826 0.66027 0.80415 0.0
H2028 H 0.78264 0.62022 0.78632 0.0
H2029 H 0.79423 0.63667 0.76293 0.0
C2030 C 0.7854 0.61744 0.8308 0.0
C2031 C 0.79972 0.60998 0.83872 0.0
C2032 C 0.79173 0.62674 0.81731 0.0
C2033 C 0.81255 0.62886 0.81143 0.0
C2034 C 0.82682 0.62138 0.81936 0.0
C2035 C 0.82051 0.61211 0.83282 0.0
C2036 C 0.85077 0.66394 0.78176 0.0
C2037 C 0.83302 0.65756 0.76987 0.0
C2038 C 0.8441 0.65476 0.79521 0.0
C2039 C 0.81951 0.63891 0.79714 0.0
C2040 C 0.80173 0.63257 0.78527 0.0
C2041 C 0.8084 0.64176 0.7718 0.0
H2042 H 0.37756 0.14928 0.84419 0.0
H2043 H 0.3891 0.22275 0.84764 0.0
H2044 H 0.36622 0.14491 0.81782 0.0
H2045 H 0.37836 0.21851 0.82135 0.0
H2046 H 0.38401 0.21216 0.77232 0.0
H2047 H 0.39603 0.21444 0.79835 0.0
H2048 H 0.3328 0.14343 0.80063 0.0
H2049 H 0.32094 0.14099 0.7745 0.0
C2050 C 0.37753 0.16442 0.83937 0.0
C2051 C 0.38442 0.18644 0.84804 0.0
C2052 C 0.37113 0.16193 0.82427 0.0
C2053 C 0.37167 0.18146 0.81753 0.0
C2054 C 0.37827 0.20333 0.8262 0.0
C2055 C 0.38446 0.20575 0.84127 0.0
C2056 C 0.37288 0.19689 0.77833 0.0
C2057 C 0.35151 0.17643 0.7714 0.0
C2058 C 0.37963 0.19829 0.79325 0.0
C2059 C 0.36525 0.17919 0.80152 0.0
C2060 C 0.34428 0.15838 0.7945 0.0
C2061 C 0.3374 0.15707 0.7796 0.0
H2062 H 0.7816 0.20146 0.8341 0.0
H2063 H 0.82239 0.16598 0.84528 0.0
H2064 H 0.79165 0.20133 0.80884 0.0
H2065 H 0.8328 0.16624 0.8201 0.0
H2066 H 0.82807 0.15136 0.77016 0.0
H2067 H 0.81395 0.14821 0.79455 0.0
H2068 H 0.82953 0.22298 0.79651 0.0
H2069 H 0.84323 0.22599 0.77206 0.0
C2070 C 0.79248 0.19339 0.83112 0.0
C2071 C 0.80126 0.18378 0.84168 0.0
C2072 C 0.79843 0.19353 0.8167 0.0
C2073 C 0.81312 0.18389 0.81251 0.0
C2074 C 0.82132 0.17366 0.82297 0.0
C2075 C 0.81553 0.17369 0.83741 0.0
C2076 C 0.82824 0.16703 0.77576 0.0
C2077 C 0.83682 0.18895 0.76922 0.0
C2078 C 0.82034 0.16528 0.78975 0.0
C2079 C 0.82065 0.18535 0.79744 0.0
C2080 C 0.82887 0.20713 0.79081 0.0
C2081 C 0.83695 0.20894 0.77687 0.0
H2082 H 0.28586 0.11353 0.49295 0.0
H2083 H 0.29849 0.18731 0.49797 0.0
H2084 H 0.29609 0.11621 0.51927 0.0
H2085 H 0.30835 0.18986 0.52439 0.0
H2086 H 0.35303 0.1927 0.5672 0.0
H2087 H 0.34137 0.19091 0.54115 0.0
H2088 H 0.27892 0.11902 0.5426 0.0
H2089 H 0.29082 0.12064 0.5686 0.0
C2090 C 0.29091 0.13035 0.49968 0.0
C2091 C 0.29147 0.15024 0.49341 0.0
C2092 C 0.2965 0.13178 0.51476 0.0
C2093 C 0.30292 0.15321 0.52388 0.0
C2094 C 0.30358 0.17316 0.51761 0.0
C2095 C 0.29779 0.17165 0.50252 0.0
C2096 C 0.3368 0.17654 0.56194 0.0
C2097 C 0.32288 0.15676 0.5699 0.0
C2098 C 0.33003 0.1756 0.54707 0.0
C2099 C 0.3093 0.15479 0.53984 0.0
C2100 C 0.29513 0.1352 0.54786 0.0
C2101 C 0.30179 0.13621 0.56276 0.0
H2102 H 0.83751 0.10504 0.49883 0.0
H2103 H 0.89543 0.18064 0.50623 0.0
H2104 H 0.82719 0.10749 0.52371 0.0
H2105 H 0.88463 0.18315 0.53114 0.0
H2106 H 0.83738 0.18228 0.56846 0.0
H2107 H 0.84983 0.18133 0.54385 0.0
H2108 H 0.84578 0.11221 0.54918 0.0
H2109 H 0.83295 0.11295 0.57364 0.0
C2110 C 0.84823 0.12214 0.5058 0.0
C2111 C 0.86749 0.14258 0.50054 0.0
C2112 C 0.84225 0.12353 0.52006 0.0
C2113 C 0.8552 0.14545 0.52941 0.0
C2114 C 0.87421 0.16605 0.52414 0.0
C2115 C 0.88035 0.16461 0.50986 0.0
C2116 C 0.83911 0.16687 0.56435 0.0
C2117 C 0.83409 0.14763 0.57295 0.0
C2118 C 0.84645 0.16645 0.55032 0.0
C2119 C 0.84869 0.14665 0.54457 0.0
C2120 C 0.84398 0.12759 0.55326 0.0
C2121 C 0.83684 0.12811 0.56731 0.0
H2122 H 0.83415 0.72167 0.50271 0.0
H2123 H 0.89532 0.70972 0.50615 0.0
H2124 H 0.82502 0.70922 0.5272 0.0
H2125 H 0.88644 0.69768 0.53085 0.0
H2126 H 0.84283 0.64974 0.56666 0.0
H2127 H 0.85409 0.66339 0.54258 0.0
H2128 H 0.84279 0.72421 0.55298 0.0
H2129 H 0.83105 0.71028 0.57694 0.0
C2130 C 0.84561 0.7163 0.50869 0.0
C2131 C 0.86539 0.71656 0.50246 0.0
C2132 C 0.84054 0.70944 0.52278 0.0
C2133 C 0.85505 0.70253 0.53098 0.0
C2134 C 0.87484 0.70275 0.52476 0.0
C2135 C 0.88003 0.70982 0.51068 0.0
C2136 C 0.84272 0.666 0.56379 0.0
C2137 C 0.83594 0.67887 0.57368 0.0
C2138 C 0.84939 0.67395 0.55005 0.0
C2139 C 0.84925 0.69483 0.54586 0.0
C2140 C 0.84283 0.7079 0.55584 0.0
C2141 C 0.83634 0.70006 0.56961 0.0
loop_
_geom_bond_atom_site_label_1
_geom_bond_atom_site_label_2
_geom_bond_distance
_geom_bond_site_symmetry_2
_ccdc_geom_bond_type
C0 C1 1.386 . S
C0 C2 1.397 . S
C0 H24 0.931 . S
C1 C0 1.386 . S
C1 C5 1.397 . S
C2 C0 1.397 . S
C2 C3 1.384 . S
C2 H25 0.930 . S
C3 C2 1.384 . S
C3 C4 1.377 . S
C3 C6 1.481 . S
C4 C3 1.377 . S
C4 C5 1.389 . S
C4 H26 0.929 . S
C5 C1 1.397 . S
C5 C4 1.389 . S
C5 H27 0.931 . S
C6 C3 1.481 . S
C6 C7 1.387 . S
C6 C11 1.390 . S
C7 C6 1.387 . S
C7 C8 1.401 . S
C7 H28 0.930 . S
C8 C7 1.401 . S
C8 C9 1.376 . S
C8 C17 1.511 . S
C9 C8 1.376 . S
C9 C10 1.392 . S
C9 H30 0.931 . S
C10 C9 1.392 . S
C10 C11 1.361 . S
C10 C12 1.500 . S
C11 C6 1.390 . S
C11 C10 1.361 . S
C11 H29 0.931 . S
C12 C10 1.500 . S
C12 C13 1.371 . S
C12 C14 1.365 . S
C13 C12 1.371 . S
C13 C23 1.386 . S
C13 H31 0.931 . S
C14 C12 1.365 . S
C14 C15 1.409 . S
C14 H32 0.929 . S
C15 C14 1.409 . S
C15 C16 1.380 . S
C15 H33 0.930 . S
C16 C15 1.380 . S
C16 C23 1.357 . S
C17 C8 1.511 . S
C17 C18 1.341 . S
C17 C19 1.371 . S
C18 C17 1.341 . S
C18 C22 1.394 . S
C18 H34 0.930 . S
C19 C17 1.371 . S
C19 C20 1.392 . S
C19 H35 0.931 . S
C20 C19 1.392 . S
C20 C21 1.331 . S
C20 H38 0.932 . S
C21 C20 1.331 . S
C21 C22 1.336 . S
C22 C18 1.394 . S
C22 C21 1.336 . S
C22 H37 0.929 . S
C23 C13 1.386 . S
C23 C16 1.357 . S
C23 H36 0.928 . S
H24 C0 0.931 . S
H25 C2 0.930 . S
H26 C4 0.929 . S
H27 C5 0.931 . S
H28 C7 0.930 . S
H29 C11 0.931 . S
H30 C9 0.931 . S
H31 C13 0.931 . S
H32 C14 0.929 . S
H33 C15 0.930 . S
H34 C18 0.930 . S
H35 C19 0.931 . S
H36 C23 0.928 . S
H37 C22 0.929 . S
H38 C20 0.932 . S
C39 C40 1.386 . S
C39 C41 1.397 . S
C39 H63 0.931 . S
C40 C39 1.386 . S
C40 C44 1.397 . S
C41 C39 1.397 . S
C41 C42 1.384 . S
C41 H64 0.930 . S
C42 C41 1.384 . S
C42 C43 1.377 . S
C42 C45 1.481 . S
C43 C42 1.377 . S
C43 C44 1.389 . S
C43 H65 0.929 . S
C44 C40 1.397 . S
C44 C43 1.389 . S
C44 H66 0.931 . S
C45 C42 1.481 . S
C45 C46 1.387 . S
C45 C50 1.390 . S
C46 C45 1.387 . S
C46 C47 1.401 . S
C46 H67 0.930 . S
C47 C46 1.401 . S
C47 C48 1.376 . S
C47 C56 1.511 . S
C48 C47 1.376 . S
C48 C49 1.392 . S
C48 H69 0.931 . S
C49 C48 1.392 . S
C49 C50 1.361 . S
C49 C51 1.500 . S
C50 C45 1.390 . S
C50 C49 1.361 . S
C50 H68 0.931 . S
C51 C49 1.500 . S
C51 C52 1.371 . S
C51 C53 1.365 . S
C52 C51 1.371 . S
C52 C62 1.386 . S
C52 H70 0.931 . S
C53 C51 1.365 . S
C53 C54 1.409 . S
C53 H71 0.929 . S
C54 C53 1.409 . S
C54 C55 1.380 . S
C54 H72 0.930 . S
C55 C54 1.380 . S
C55 C62 1.357 . S
C56 C47 1.511 . S
C56 C57 1.341 . S
C56 C58 1.371 . S
C57 C56 1.341 . S
C57 C61 1.394 . S
C57 H73 0.930 . S
C58 C56 1.371 . S
C58 C59 1.392 . S
C58 H74 0.931 . S
C59 C58 1.392 . S
C59 C60 1.331 . S
C59 H77 0.932 . S
C60 C59 1.331 . S
C60 C61 1.336 . S
C61 C57 1.394 . S
C61 C60 1.336 . S
C61 H76 0.929 . S
C62 C52 1.386 . S
C62 C55 1.357 . S
C62 H75 0.928 . S
H63 C39 0.931 . S
H64 C41 0.930 . S
H65 C43 0.929 . S
H66 C44 0.931 . S
H67 C46 0.930 . S
H68 C50 0.931 . S
H69 C48 0.931 . S
H70 C52 0.931 . S
H71 C53 0.929 . S
H72 C54 0.930 . S
H73 C57 0.930 . S
H74 C58 0.931 . S
H75 C62 0.928 . S
H76 C61 0.929 . S
H77 C59 0.932 . S
C78 C79 1.386 . S
C78 C80 1.397 . S
C78 H102 0.931 . S
C79 C78 1.386 . S
C79 C83 1.397 . S
C80 C78 1.397 . S
C80 C81 1.384 . S
C80 H103 0.930 . S
C81 C80 1.384 . S
C81 C82 1.377 . S
C81 C84 1.481 . S
C82 C81 1.377 . S
C82 C83 1.389 . S
C82 H104 0.929 . S
C83 C79 1.397 . S
C83 C82 1.389 . S
C83 H105 0.931 . S
C84 C81 1.481 . S
C84 C85 1.387 . S
C84 C89 1.390 . S
C85 C84 1.387 . S
C85 C86 1.401 . S
C85 H106 0.930 . S
C86 C85 1.401 . S
C86 C87 1.376 . S
C86 C95 1.511 . S
C87 C86 1.376 . S
C87 C88 1.392 . S
C87 H108 0.931 . S
C88 C87 1.392 . S
C88 C89 1.361 . S
C88 C90 1.500 . S
C89 C84 1.390 . S
C89 C88 1.361 . S
C89 H107 0.931 . S
C90 C88 1.500 . S
C90 C91 1.371 . S
C90 C92 1.365 . S
C91 C90 1.371 . S
C91 C101 1.386 . S
C91 H109 0.931 . S
C92 C90 1.365 . S
C92 C93 1.409 . S
C92 H110 0.929 . S
C93 C92 1.409 . S
C93 C94 1.380 . S
C93 H111 0.930 . S
C94 C93 1.380 . S
C94 C101 1.357 . S
C95 C86 1.511 . S
C95 C96 1.341 . S
C95 C97 1.371 . S
C96 C95 1.341 . S
C96 C100 1.394 . S
C96 H112 0.930 . S
C97 C95 1.371 . S
C97 C98 1.392 . S
C97 H113 0.931 . S
C98 C97 1.392 . S
C98 C99 1.331 . S
C98 H116 0.932 . S
C99 C98 1.331 . S
C99 C100 1.336 . S
C100 C96 1.394 . S
C100 C99 1.336 . S
C100 H115 0.929 . S
C101 C91 1.386 . S
C101 C94 1.357 . S
C101 H114 0.928 . S
H102 C78 0.931 . S
H103 C80 0.930 . S
H104 C82 0.929 . S
H105 C83 0.931 . S
H106 C85 0.930 . S
H107 C89 0.931 . S
H108 C87 0.931 . S
H109 C91 0.931 . S
H110 C92 0.929 . S
H111 C93 0.930 . S
H112 C96 0.930 . S
H113 C97 0.931 . S
H114 C101 0.928 . S
H115 C100 0.929 . S
H116 C98 0.932 . S
C117 C118 1.386 . S
C117 C119 1.397 . S
C117 H141 0.931 . S
C118 C117 1.386 . S
C118 C122 1.397 . S
C119 C117 1.397 . S
C119 C120 1.384 . S
C119 H142 0.930 . S
C120 C119 1.384 . S
C120 C121 1.377 . S
C120 C123 1.481 . S
C121 C120 1.377 . S
C121 C122 1.389 . S
C121 H143 0.929 . S
C122 C118 1.397 . S
C122 C121 1.389 . S
C122 H144 0.931 . S
C123 C120 1.481 . S
C123 C124 1.387 . S
C123 C128 1.390 . S
C124 C123 1.387 . S
C124 C125 1.401 . S
C124 H145 0.930 . S
C125 C124 1.401 . S
C125 C126 1.376 . S
C125 C134 1.511 . S
C126 C125 1.376 . S
C126 C127 1.392 . S
C126 H147 0.931 . S
C127 C126 1.392 . S
C127 C128 1.361 . S
C127 C129 1.500 . S
C128 C123 1.390 . S
C128 C127 1.361 . S
C128 H146 0.931 . S
C129 C127 1.500 . S
C129 C130 1.371 . S
C129 C131 1.365 . S
C130 C129 1.371 . S
C130 C140 1.386 . S
C130 H148 0.931 . S
C131 C129 1.365 . S
C131 C132 1.409 . S
C131 H149 0.929 . S
C132 C131 1.409 . S
C132 C133 1.380 . S
C132 H150 0.930 . S
C133 C132 1.380 . S
C133 C140 1.357 . S
C134 C125 1.511 . S
C134 C135 1.341 . S
C134 C136 1.371 . S
C135 C134 1.341 . S
C135 C139 1.394 . S
C135 H151 0.930 . S
C136 C134 1.371 . S
C136 C137 1.392 . S
C136 H152 0.931 . S
C137 C136 1.392 . S
C137 C138 1.331 . S
C137 H155 0.932 . S
C138 C137 1.331 . S
C138 C139 1.336 . S
C139 C135 1.394 . S
C139 C138 1.336 . S
C139 H154 0.929 . S
C140 C130 1.386 . S
C140 C133 1.357 . S
C140 H153 0.928 . S
H141 C117 0.931 . S
H142 C119 0.930 . S
H143 C121 0.929 . S
H144 C122 0.931 . S
H145 C124 0.930 . S
H146 C128 0.931 . S
H147 C126 0.931 . S
H148 C130 0.931 . S
H149 C131 0.929 . S
H150 C132 0.930 . S
H151 C135 0.930 . S
H152 C136 0.931 . S
H153 C140 0.928 . S
H154 C139 0.929 . S
H155 C137 0.932 . S
C156 C157 1.386 . S
C156 C158 1.397 . S
C156 H180 0.931 . S
C157 C156 1.386 . S
C157 C161 1.397 . S
C158 C156 1.397 . S
C158 C159 1.384 . S
C158 H181 0.930 . S
C159 C158 1.384 . S
C159 C160 1.377 . S
C159 C162 1.481 . S
C160 C159 1.377 . S
C160 C161 1.389 . S
C160 H182 0.929 . S
C161 C157 1.397 . S
C161 C160 1.389 . S
C161 H183 0.931 . S
C162 C159 1.481 . S
C162 C163 1.387 . S
C162 C167 1.390 . S
C163 C162 1.387 . S
C163 C164 1.401 . S
C163 H184 0.930 . S
C164 C163 1.401 . S
C164 C165 1.376 . S
C164 C173 1.511 . S
C165 C164 1.376 . S
C165 C166 1.392 . S
C165 H186 0.931 . S
C166 C165 1.392 . S
C166 C167 1.361 . S
C166 C168 1.500 . S
C167 C162 1.390 . S
C167 C166 1.361 . S
C167 H185 0.931 . S
C168 C166 1.500 . S
C168 C169 1.371 . S
C168 C170 1.365 . S
C169 C168 1.371 . S
C169 C179 1.386 . S
C169 H187 0.931 . S
C170 C168 1.365 . S
C170 C171 1.409 . S
C170 H188 0.929 . S
C171 C170 1.409 . S
C171 C172 1.380 . S
C171 H189 0.930 . S
C172 C171 1.380 . S
C172 C179 1.357 . S
C173 C164 1.511 . S
C173 C174 1.341 . S
C173 C175 1.371 . S
C174 C173 1.341 . S
C174 C178 1.394 . S
C174 H190 0.930 . S
C175 C173 1.371 . S
C175 C176 1.392 . S
C175 H191 0.931 . S
C176 C175 1.392 . S
C176 C177 1.331 . S
C176 H194 0.932 . S
C177 C176 1.331 . S
C177 C178 1.336 . S
C178 C174 1.394 . S
C178 C177 1.336 . S
C178 H193 0.929 . S
C179 C169 1.386 . S
C179 C172 1.357 . S
C179 H192 0.928 . S
H180 C156 0.931 . S
H181 C158 0.930 . S
H182 C160 0.929 . S
H183 C161 0.931 . S
H184 C163 0.930 . S
H185 C167 0.931 . S
H186 C165 0.931 . S
H187 C169 0.931 . S
H188 C170 0.929 . S
H189 C171 0.930 . S
H190 C174 0.930 . S
H191 C175 0.931 . S
H192 C179 0.928 . S
H193 C178 0.929 . S
H194 C176 0.932 . S
C195 C196 1.386 . S
C195 C197 1.397 . S
C195 H219 0.931 . S
C196 C195 1.386 . S
C196 C200 1.397 . S
C197 C195 1.397 . S
C197 C198 1.384 . S
C197 H220 0.930 . S
C198 C197 1.384 . S
C198 C199 1.377 . S
C198 C201 1.481 . S
C199 C198 1.377 . S
C199 C200 1.389 . S
C199 H221 0.929 . S
C200 C196 1.397 . S
C200 C199 1.389 . S
C200 H222 0.931 . S
C201 C198 1.481 . S
C201 C202 1.387 . S
C201 C206 1.390 . S
C202 C201 1.387 . S
C202 C203 1.401 . S
C202 H223 0.930 . S
C203 C202 1.401 . S
C203 C204 1.376 . S
C203 C212 1.511 . S
C204 C203 1.376 . S
C204 C205 1.392 . S
C204 H225 0.931 . S
C205 C204 1.392 . S
C205 C206 1.361 . S
C205 C207 1.500 . S
C206 C201 1.390 . S
C206 C205 1.361 . S
C206 H224 0.931 . S
C207 C205 1.500 . S
C207 C208 1.371 . S
C207 C209 1.365 . S
C208 C207 1.371 . S
C208 C218 1.386 . S
C208 H226 0.931 . S
C209 C207 1.365 . S
C209 C210 1.409 . S
C209 H227 0.929 . S
C210 C209 1.409 . S
C210 C211 1.380 . S
C210 H228 0.930 . S
C211 C210 1.380 . S
C211 C218 1.357 . S
C212 C203 1.511 . S
C212 C213 1.341 . S
C212 C214 1.371 . S
C213 C212 1.341 . S
C213 C217 1.394 . S
C213 H229 0.930 . S
C214 C212 1.371 . S
C214 C215 1.392 . S
C214 H230 0.931 . S
C215 C214 1.392 . S
C215 C216 1.331 . S
C215 H233 0.932 . S
C216 C215 1.331 . S
C216 C217 1.336 . S
C217 C213 1.394 . S
C217 C216 1.336 . S
C217 H232 0.929 . S
C218 C208 1.386 . S
C218 C211 1.357 . S
C218 H231 0.928 . S
H219 C195 0.931 . S
H220 C197 0.930 . S
H221 C199 0.929 . S
H222 C200 0.931 . S
H223 C202 0.930 . S
H224 C206 0.931 . S
H225 C204 0.931 . S
H226 C208 0.931 . S
H227 C209 0.929 . S
H228 C210 0.930 . S
H229 C213 0.930 . S
H230 C214 0.931 . S
H231 C218 0.928 . S
H232 C217 0.929 . S
H233 C215 0.932 . S
C234 C235 1.386 . S
C234 C236 1.397 . S
C234 H258 0.931 . S
C235 C234 1.386 . S
C235 C239 1.397 1_655 S
C236 C234 1.397 . S
C236 C237 1.384 . S
C236 H259 0.930 . S
C237 C236 1.384 . S
C237 C238 1.377 . S
C237 C240 1.481 . S
C238 C237 1.377 . S
C238 C239 1.389 1_655 S
C238 H260 0.910 1_655 S
C239 C235 1.397 1_455 S
C239 C238 1.389 1_455 S
C239 H261 0.931 . S
C240 C237 1.481 . S
C240 C241 1.387 . S
C240 C245 1.390 . S
C241 C240 1.387 . S
C241 C242 1.401 . S
C241 H262 0.930 . S
C242 C241 1.401 . S
C242 C243 1.376 . S
C242 C251 1.511 . S
C243 C242 1.376 . S
C243 C244 1.392 . S
C243 H264 0.931 . S
C244 C243 1.392 . S
C244 C245 1.361 . S
C244 C246 1.500 . S
C245 C240 1.390 . S
C245 C244 1.361 . S
C245 H263 0.931 . S
C246 C244 1.500 . S
C246 C247 1.371 . S
C246 C248 1.365 . S
C247 C246 1.371 . S
C247 C257 1.386 . S
C247 H265 0.931 . S
C248 C246 1.365 . S
C248 C249 1.409 . S
C248 H266 0.929 . S
C249 C248 1.409 . S
C249 C250 1.380 . S
C249 H267 0.930 . S
C250 C249 1.380 . S
C250 C257 1.357 . S
C251 C242 1.511 . S
C251 C252 1.341 . S
C251 C253 1.371 . S
C252 C251 1.341 . S
C252 C256 1.394 . S
C252 H268 0.930 . S
C253 C251 1.371 . S
C253 C254 1.392 . S
C253 H269 0.931 . S
C254 C253 1.392 . S
C254 C255 1.331 . S
C254 H272 0.932 . S
C255 C254 1.331 . S
C255 C256 1.336 . S
C256 C252 1.394 . S
C256 C255 1.336 . S
C256 H271 0.929 . S
C257 C247 1.386 . S
C257 C250 1.357 . S
C257 H270 0.928 . S
H258 C234 0.931 . S
H259 C236 0.930 . S
H260 C238 0.910 1_455 S
H261 C239 0.931 . S
H262 C241 0.930 . S
H263 C245 0.931 . S
H264 C243 0.931 . S
H265 C247 0.931 . S
H266 C248 0.929 . S
H267 C249 0.930 . S
H268 C252 0.930 . S
H269 C253 0.931 . S
H270 C257 0.928 . S
H271 C256 0.929 . S
H272 C254 0.932 . S
C273 C274 1.386 . S
C273 C275 1.397 . S
C273 H297 0.931 . S
C274 C273 1.386 . S
C274 C278 1.397 . S
C275 C273 1.397 . S
C275 C276 1.384 . S
C275 H298 0.930 . S
C276 C275 1.384 . S
C276 C277 1.377 . S
C276 C279 1.481 . S
C277 C276 1.377 . S
C277 C278 1.389 . S
C277 H299 0.929 . S
C278 C274 1.397 . S
C278 C277 1.389 . S
C278 H300 0.931 . S
C279 C276 1.481 . S
C279 C280 1.387 . S
C279 C284 1.390 . S
C280 C279 1.387 . S
C280 C281 1.401 . S
C280 H301 0.930 . S
C281 C280 1.401 . S
C281 C282 1.376 . S
C281 C290 1.511 . S
C282 C281 1.376 . S
C282 C283 1.392 . S
C282 H303 0.931 . S
C283 C282 1.392 . S
C283 C284 1.361 . S
C283 C285 1.500 . S
C284 C279 1.390 . S
C284 C283 1.361 . S
C284 H302 0.931 . S
C285 C283 1.500 . S
C285 C286 1.371 . S
C285 C287 1.365 . S
C286 C285 1.371 . S
C286 C296 1.386 . S
C286 H304 0.931 . S
C287 C285 1.365 . S
C287 C288 1.409 . S
C287 H305 0.929 . S
C288 C287 1.409 . S
C288 C289 1.380 . S
C288 H306 0.930 . S
C289 C288 1.380 . S
C289 C296 1.357 . S
C290 C281 1.511 . S
C290 C291 1.341 . S
C290 C292 1.371 . S
C291 C290 1.341 . S
C291 C295 1.394 . S
C291 H307 0.930 . S
C292 C290 1.371 . S
C292 C293 1.392 . S
C292 H308 0.931 . S
C293 C292 1.392 . S
C293 C294 1.331 . S
C293 H311 0.932 . S
C294 C293 1.331 . S
C294 C295 1.336 . S
C295 C291 1.394 . S
C295 C294 1.336 . S
C295 H310 0.929 . S
C296 C286 1.386 . S
C296 C289 1.357 . S
C296 H309 0.928 . S
H297 C273 0.931 . S
H298 C275 0.930 . S
H299 C277 0.929 . S
H300 C278 0.931 . S
H301 C280 0.930 . S
H302 C284 0.931 . S
H303 C282 0.931 . S
H304 C286 0.931 . S
H305 C287 0.929 . S
H306 C288 0.930 . S
H307 C291 0.930 . S
H308 C292 0.931 . S
H309 C296 0.928 . S
H310 C295 0.929 . S
H311 C293 0.932 . S
C312 C313 1.386 . S
C312 C314 1.397 . S
C312 H336 0.931 . S
C313 C312 1.386 . S
C313 C317 1.397 . S
C314 C312 1.397 . S
C314 C315 1.384 . S
C314 H337 0.930 . S
C315 C314 1.384 . S
C315 C316 1.377 . S
C315 C318 1.481 . S
C316 C315 1.377 . S
C316 C317 1.389 . S
C316 H338 0.929 . S
C317 C313 1.397 . S
C317 C316 1.389 . S
C317 H339 0.931 . S
C318 C315 1.481 . S
C318 C319 1.387 . S
C318 C323 1.390 . S
C319 C318 1.387 . S
C319 C320 1.401 . S
C319 H340 0.930 . S
C320 C319 1.401 . S
C320 C321 1.376 . S
C320 C329 1.511 . S
C321 C320 1.376 . S
C321 C322 1.392 . S
C321 H342 0.931 . S
C322 C321 1.392 . S
C322 C323 1.361 . S
C322 C324 1.500 . S
C323 C318 1.390 . S
C323 C322 1.361 . S
C323 H341 0.931 . S
C324 C322 1.500 . S
C324 C325 1.371 . S
C324 C326 1.365 . S
C325 C324 1.371 . S
C325 C335 1.386 . S
C325 H343 0.931 . S
C326 C324 1.365 . S
C326 C327 1.409 . S
C326 H344 0.929 . S
C327 C326 1.409 . S
C327 C328 1.380 . S
C327 H345 0.930 . S
C328 C327 1.380 . S
C328 C335 1.357 . S
C329 C320 1.511 . S
C329 C330 1.341 . S
C329 C331 1.371 . S
C330 C329 1.341 . S
C330 C334 1.394 . S
C330 H346 0.930 . S
C331 C329 1.371 . S
C331 C332 1.392 . S
C331 H347 0.931 . S
C332 C331 1.392 . S
C332 C333 1.331 . S
C332 H350 0.932 . S
C333 C332 1.331 . S
C333 C334 1.336 . S
C334 C330 1.394 . S
C334 C333 1.336 . S
C334 H349 0.929 . S
C335 C325 1.386 . S
C335 C328 1.357 . S
C335 H348 0.928 . S
H336 C312 0.931 . S
H337 C314 0.930 . S
H338 C316 0.929 . S
H339 C317 0.931 . S
H340 C319 0.930 . S
H341 C323 0.931 . S
H342 C321 0.931 . S
H343 C325 0.931 . S
H344 C326 0.929 . S
H345 C327 0.930 . S
H346 C330 0.930 . S
H347 C331 0.931 . S
H348 C335 0.928 . S
H349 C334 0.929 . S
H350 C332 0.932 . S
C351 C352 1.386 . S
C351 C353 1.397 . S
C351 H375 0.931 . S
C352 C351 1.386 . S
C352 C356 1.397 . S
C353 C351 1.397 . S
C353 C354 1.384 . S
C353 H376 0.930 . S
C354 C353 1.384 . S
C354 C355 1.377 . S
C354 C357 1.481 . S
C355 C354 1.377 . S
C355 C356 1.389 . S
C355 H377 0.929 . S
C356 C352 1.397 . S
C356 C355 1.389 . S
C356 H378 0.931 . S
C357 C354 1.481 . S
C357 C358 1.387 . S
C357 C362 1.390 . S
C358 C357 1.387 . S
C358 C359 1.401 . S
C358 H379 0.930 . S
C359 C358 1.401 . S
C359 C360 1.376 . S
C359 C368 1.511 . S
C360 C359 1.376 . S
C360 C361 1.392 . S
C360 H381 0.931 . S
C361 C360 1.392 . S
C361 C362 1.361 . S
C361 C363 1.500 . S
C362 C357 1.390 . S
C362 C361 1.361 . S
C362 H380 0.931 . S
C363 C361 1.500 . S
C363 C364 1.371 . S
C363 C365 1.365 . S
C364 C363 1.371 . S
C364 C374 1.386 . S
C364 H382 0.931 . S
C365 C363 1.365 . S
C365 C366 1.409 . S
C365 H383 0.929 . S
C366 C365 1.409 . S
C366 C367 1.380 . S
C366 H384 0.930 . S
C367 C366 1.380 . S
C367 C374 1.357 . S
C368 C359 1.511 . S
C368 C369 1.341 . S
C368 C370 1.371 . S
C369 C368 1.341 . S
C369 C373 1.394 . S
C369 H385 0.930 . S
C370 C368 1.371 . S
C370 C371 1.392 . S
C370 H386 0.931 . S
C371 C370 1.392 . S
C371 C372 1.331 . S
C371 H389 0.932 . S
C372 C371 1.331 . S
C372 C373 1.336 . S
C373 C369 1.394 . S
C373 C372 1.336 . S
C373 H388 0.929 . S
C374 C364 1.386 . S
C374 C367 1.357 . S
C374 H387 0.928 . S
H375 C351 0.931 . S
H376 C353 0.930 . S
H377 C355 0.929 . S
H378 C356 0.931 . S
H379 C358 0.930 . S
H380 C362 0.931 . S
H381 C360 0.931 . S
H382 C364 0.931 . S
H383 C365 0.929 . S
H384 C366 0.930 . S
H385 C369 0.930 . S
H386 C370 0.931 . S
H387 C374 0.928 . S
H388 C373 0.929 . S
H389 C371 0.932 . S
C390 C391 1.386 . S
C390 C392 1.397 . S
C390 H414 0.931 . S
C391 C390 1.386 . S
C391 C395 1.397 . S
C392 C390 1.397 . S
C392 C393 1.384 . S
C392 H415 0.930 . S
C393 C392 1.384 . S
C393 C394 1.377 . S
C393 C396 1.481 . S
C394 C393 1.377 . S
C394 C395 1.389 . S
C394 H416 0.929 . S
C395 C391 1.397 . S
C395 C394 1.389 . S
C395 H417 0.931 . S
C396 C393 1.481 . S
C396 C397 1.387 . S
C396 C401 1.390 . S
C397 C396 1.387 . S
C397 C398 1.401 . S
C397 H418 0.930 . S
C398 C397 1.401 . S
C398 C399 1.376 . S
C398 C407 1.511 . S
C399 C398 1.376 . S
C399 C400 1.392 . S
C399 H420 0.931 . S
C400 C399 1.392 . S
C400 C401 1.361 . S
C400 C402 1.500 . S
C401 C396 1.390 . S
C401 C400 1.361 . S
C401 H419 0.931 . S
C402 C400 1.500 . S
C402 C403 1.371 . S
C402 C404 1.365 . S
C403 C402 1.371 . S
C403 C413 1.386 . S
C403 H421 0.931 . S
C404 C402 1.365 . S
C404 C405 1.409 . S
C404 H422 0.929 . S
C405 C404 1.409 . S
C405 C406 1.380 . S
C405 H423 0.930 . S
C406 C405 1.380 . S
C406 C413 1.357 . S
C407 C398 1.511 . S
C407 C408 1.341 . S
C407 C409 1.371 . S
C408 C407 1.341 . S
C408 C412 1.394 . S
C408 H424 0.930 . S
C409 C407 1.371 . S
C409 C410 1.392 . S
C409 H425 0.931 . S
C410 C409 1.392 . S
C410 C411 1.331 . S
C410 H428 0.932 . S
C411 C410 1.331 . S
C411 C412 1.336 . S
C412 C408 1.394 . S
C412 C411 1.336 . S
C412 H427 0.929 . S
C413 C403 1.386 . S
C413 C406 1.357 . S
C413 H426 0.928 . S
H414 C390 0.931 . S
H415 C392 0.930 . S
H416 C394 0.929 . S
H417 C395 0.931 . S
H418 C397 0.930 . S
H419 C401 0.931 . S
H420 C399 0.931 . S
H421 C403 0.931 . S
H422 C404 0.929 . S
H423 C405 0.930 . S
H424 C408 0.930 . S
H425 C409 0.931 . S
H426 C413 0.928 . S
H427 C412 0.929 . S
H428 C410 0.932 . S
C429 C430 1.386 . S
C429 C431 1.397 . S
C429 H453 0.931 . S
C430 C429 1.386 . S
C430 C434 1.397 . S
C431 C429 1.397 . S
C431 C432 1.384 . S
C431 H454 0.930 . S
C432 C431 1.384 . S
C432 C433 1.377 . S
C432 C435 1.481 . S
C433 C432 1.377 . S
C433 C434 1.389 . S
C433 H455 0.929 . S
C434 C430 1.397 . S
C434 C433 1.389 . S
C434 H456 0.931 . S
C435 C432 1.481 . S
C435 C436 1.387 . S
C435 C440 1.390 . S
C436 C435 1.387 . S
C436 C437 1.401 . S
C436 H457 0.930 . S
C437 C436 1.401 . S
C437 C438 1.376 . S
C437 C446 1.511 . S
C438 C437 1.376 . S
C438 C439 1.392 . S
C438 H459 0.931 . S
C439 C438 1.392 . S
C439 C440 1.361 . S
C439 C441 1.500 . S
C440 C435 1.390 . S
C440 C439 1.361 . S
C440 H458 0.931 . S
C441 C439 1.500 . S
C441 C442 1.371 . S
C441 C443 1.365 . S
C442 C441 1.371 . S
C442 C452 1.386 . S
C442 H460 0.931 . S
C443 C441 1.365 . S
C443 C444 1.409 . S
C443 H461 0.929 . S
C444 C443 1.409 . S
C444 C445 1.380 . S
C444 H462 0.930 . S
C445 C444 1.380 . S
C445 C452 1.357 . S
C446 C437 1.511 . S
C446 C447 1.341 . S
C446 C448 1.371 . S
C447 C446 1.341 . S
C447 C451 1.394 . S
C447 H463 0.930 . S
C448 C446 1.371 . S
C448 C449 1.392 . S
C448 H464 0.931 . S
C449 C448 1.392 . S
C449 C450 1.331 . S
C449 H467 0.932 . S
C450 C449 1.331 . S
C450 C451 1.336 . S
C451 C447 1.394 . S
C451 C450 1.336 . S
C451 H466 0.929 . S
C452 C442 1.386 . S
C452 C445 1.357 . S
C452 H465 0.928 . S
H453 C429 0.931 . S
H454 C431 0.930 . S
H455 C433 0.929 . S
H456 C434 0.931 . S
H457 C436 0.930 . S
H458 C440 0.931 . S
H459 C438 0.931 . S
H460 C442 0.931 . S
H461 C443 0.929 . S
H462 C444 0.930 . S
H463 C447 0.930 . S
H464 C448 0.931 . S
H465 C452 0.928 . S
H466 C451 0.929 . S
H467 C449 0.932 . S
C468 C469 1.386 . S
C468 C470 1.397 . S
C468 H492 0.931 . S
C469 C468 1.386 . S
C469 C473 1.397 . S
C470 C468 1.397 . S
C470 C471 1.384 . S
C470 H493 0.930 . S
C471 C470 1.384 . S
C471 C472 1.377 . S
C471 C474 1.481 . S
C472 C471 1.377 . S
C472 C473 1.389 . S
C472 H494 0.929 . S
C473 C469 1.397 . S
C473 C472 1.389 . S
C473 H495 0.931 . S
C474 C471 1.481 . S
C474 C475 1.387 . S
C474 C479 1.390 . S
C475 C474 1.387 . S
C475 C476 1.401 . S
C475 H496 0.930 . S
C476 C475 1.401 . S
C476 C477 1.376 . S
C476 C485 1.511 . S
C477 C476 1.376 . S
C477 C478 1.392 . S
C477 H498 0.931 . S
C478 C477 1.392 . S
C478 C479 1.361 . S
C478 C480 1.500 . S
C479 C474 1.390 . S
C479 C478 1.361 . S
C479 H497 0.931 . S
C480 C478 1.500 . S
C480 C481 1.371 . S
C480 C482 1.365 . S
C481 C480 1.371 . S
C481 C491 1.386 . S
C481 H499 0.931 . S
C482 C480 1.365 . S
C482 C483 1.409 . S
C482 H500 0.929 . S
C483 C482 1.409 . S
C483 C484 1.380 . S
C483 H501 0.930 . S
C484 C483 1.380 . S
C484 C491 1.357 . S
C485 C476 1.511 . S
C485 C486 1.341 . S
C485 C487 1.371 . S
C486 C485 1.341 . S
C486 C490 1.394 . S
C486 H502 0.930 . S
C487 C485 1.371 . S
C487 C488 1.392 . S
C487 H503 0.931 . S
C488 C487 1.392 . S
C488 C489 1.331 . S
C488 H506 0.932 . S
C489 C488 1.331 . S
C489 C490 1.336 . S
C490 C486 1.394 . S
C490 C489 1.336 . S
C490 H505 0.929 . S
C491 C481 1.386 . S
C491 C484 1.357 . S
C491 H504 0.928 . S
H492 C468 0.931 . S
H493 C470 0.930 . S
H494 C472 0.929 . S
H495 C473 0.931 . S
H496 C475 0.930 . S
H497 C479 0.931 . S
H498 C477 0.931 . S
H499 C481 0.931 . S
H500 C482 0.929 . S
H501 C483 0.930 . S
H502 C486 0.930 . S
H503 C487 0.931 . S
H504 C491 0.928 . S
H505 C490 0.929 . S
H506 C488 0.932 . S
C507 C508 1.386 . S
C507 C509 1.397 . S
C507 H531 0.931 . S
C508 C507 1.386 . S
C508 C512 1.397 . S
C509 C507 1.397 . S
C509 C510 1.384 . S
C509 H532 0.930 . S
C510 C509 1.384 . S
C510 C511 1.377 . S
C510 C513 1.481 . S
C511 C510 1.377 . S
C511 C512 1.389 . S
C511 H533 0.929 . S
C512 C508 1.397 . S
C512 C511 1.389 . S
C512 H534 0.931 . S
C513 C510 1.481 . S
C513 C514 1.387 . S
C513 C518 1.390 . S
C514 C513 1.387 . S
C514 C515 1.401 . S
C514 H535 0.930 . S
C515 C514 1.401 . S
C515 C516 1.376 . S
C515 C524 1.511 . S
C516 C515 1.376 . S
C516 C517 1.392 . S
C516 H537 0.931 . S
C517 C516 1.392 . S
C517 C518 1.361 . S
C517 C519 1.500 . S
C518 C513 1.390 . S
C518 C517 1.361 . S
C518 H536 0.931 . S
C519 C517 1.500 . S
C519 C520 1.371 . S
C519 C521 1.365 . S
C520 C519 1.371 . S
C520 C530 1.386 . S
C520 H538 0.931 . S
C521 C519 1.365 . S
C521 C522 1.409 . S
C521 H539 0.929 . S
C522 C521 1.409 . S
C522 C523 1.380 . S
C522 H540 0.930 . S
C523 C522 1.380 . S
C523 C530 1.357 . S
C524 C515 1.511 . S
C524 C525 1.341 . S
C524 C526 1.371 . S
C525 C524 1.341 . S
C525 C529 1.394 . S
C525 H541 0.930 . S
C526 C524 1.371 . S
C526 C527 1.392 . S
C526 H542 0.931 . S
C527 C526 1.392 . S
C527 C528 1.331 . S
C527 H545 0.932 . S
C528 C527 1.331 . S
C528 C529 1.336 . S
C529 C525 1.394 . S
C529 C528 1.336 . S
C529 H544 0.929 . S
C530 C520 1.386 . S
C530 C523 1.357 . S
C530 H543 0.928 . S
H531 C507 0.931 . S
H532 C509 0.930 . S
H533 C511 0.929 . S
H534 C512 0.931 . S
H535 C514 0.930 . S
H536 C518 0.931 . S
H537 C516 0.931 . S
H538 C520 0.931 . S
H539 C521 0.929 . S
H540 C522 0.930 . S
H541 C525 0.930 . S
H542 C526 0.931 . S
H543 C530 0.928 . S
H544 C529 0.929 . S
H545 C527 0.932 . S
C546 C547 1.386 . S
C546 C548 1.397 . S
C546 H570 0.931 . S
C547 C546 1.386 . S
C547 C551 1.397 . S
C548 C546 1.397 . S
C548 C549 1.384 . S
C548 H571 0.930 . S
C549 C548 1.384 . S
C549 C550 1.377 . S
C549 C552 1.481 . S
C550 C549 1.377 . S
C550 C551 1.389 . S
C550 H572 0.929 . S
C551 C547 1.397 . S
C551 C550 1.389 . S
C551 H573 0.931 . S
C552 C549 1.481 . S
C552 C553 1.387 . S
C552 C557 1.390 . S
C553 C552 1.387 . S
C553 C554 1.401 . S
C553 H574 0.930 . S
C554 C553 1.401 . S
C554 C555 1.376 . S
C554 C563 1.511 . S
C555 C554 1.376 . S
C555 C556 1.392 . S
C555 H576 0.931 . S
C556 C555 1.392 . S
C556 C557 1.361 . S
C556 C558 1.500 . S
C557 C552 1.390 . S
C557 C556 1.361 . S
C557 H575 0.931 . S
C558 C556 1.500 . S
C558 C559 1.371 . S
C558 C560 1.365 . S
C559 C558 1.371 . S
C559 C569 1.386 . S
C559 H577 0.931 . S
C560 C558 1.365 . S
C560 C561 1.409 . S
C560 H578 0.929 . S
C561 C560 1.409 . S
C561 C562 1.380 . S
C561 H579 0.930 . S
C562 C561 1.380 . S
C562 C569 1.357 . S
C563 C554 1.511 . S
C563 C564 1.341 . S
C563 C565 1.371 . S
C564 C563 1.341 . S
C564 C568 1.394 . S
C564 H580 0.930 . S
C565 C563 1.371 . S
C565 C566 1.392 . S
C565 H581 0.931 . S
C566 C565 1.392 . S
C566 C567 1.331 . S
C566 H584 0.932 . S
C567 C566 1.331 . S
C567 C568 1.336 . S
C568 C564 1.394 . S
C568 C567 1.336 . S
C568 H583 0.929 . S
C569 C559 1.386 . S
C569 C562 1.357 . S
C569 H582 0.928 . S
H570 C546 0.931 . S
H571 C548 0.930 . S
H572 C550 0.929 . S
H573 C551 0.931 . S
H574 C553 0.930 . S
H575 C557 0.931 . S
H576 C555 0.931 . S
H577 C559 0.931 . S
H578 C560 0.929 . S
H579 C561 0.930 . S
H580 C564 0.930 . S
H581 C565 0.931 . S
H582 C569 0.928 . S
H583 C568 0.929 . S
H584 C566 0.932 . S
C585 C586 1.386 . S
C585 C587 1.397 . S
C585 H609 0.931 . S
C586 C585 1.386 . S
C586 C590 1.397 . S
C587 C585 1.397 . S
C587 C588 1.384 . S
C587 H610 0.930 . S
C588 C587 1.384 . S
C588 C589 1.377 . S
C588 C591 1.481 . S
C589 C588 1.377 . S
C589 C590 1.389 . S
C589 H611 0.929 . S
C590 C586 1.397 . S
C590 C589 1.389 . S
C590 H612 0.931 . S
C591 C588 1.481 . S
C591 C592 1.387 . S
C591 C596 1.390 . S
C592 C591 1.387 . S
C592 C593 1.401 . S
C592 H613 0.930 . S
C593 C592 1.401 . S
C593 C594 1.376 . S
C593 C602 1.511 . S
C594 C593 1.376 . S
C594 C595 1.392 . S
C594 H615 0.931 . S
C595 C594 1.392 . S
C595 C596 1.361 . S
C595 C597 1.500 . S
C596 C591 1.390 . S
C596 C595 1.361 . S
C596 H614 0.931 . S
C597 C595 1.500 . S
C597 C598 1.371 . S
C597 C599 1.365 . S
C598 C597 1.371 . S
C598 C608 1.386 . S
C598 H616 0.931 . S
C599 C597 1.365 . S
C599 C600 1.409 . S
C599 H617 0.929 . S
C600 C599 1.409 . S
C600 C601 1.380 . S
C600 H618 0.930 . S
C601 C600 1.380 . S
C601 C608 1.357 . S
C602 C593 1.511 . S
C602 C603 1.341 . S
C602 C604 1.371 . S
C603 C602 1.341 . S
C603 C607 1.394 . S
C603 H619 0.930 . S
C604 C602 1.371 . S
C604 C605 1.392 . S
C604 H620 0.931 . S
C605 C604 1.392 . S
C605 C606 1.331 . S
C605 H623 0.932 . S
C606 C605 1.331 . S
C606 C607 1.336 . S
C607 C603 1.394 . S
C607 C606 1.336 . S
C607 H622 0.929 . S
C608 C598 1.386 . S
C608 C601 1.357 . S
C608 H621 0.928 . S
H609 C585 0.931 . S
H610 C587 0.930 . S
H611 C589 0.929 . S
H612 C590 0.931 . S
H613 C592 0.930 . S
H614 C596 0.931 . S
H615 C594 0.931 . S
H616 C598 0.931 . S
H617 C599 0.929 . S
H618 C600 0.930 . S
H619 C603 0.930 . S
H620 C604 0.931 . S
H621 C608 0.928 . S
H622 C607 0.929 . S
H623 C605 0.932 . S
C624 C625 1.384 1_655 S
C624 C626 1.392 1_655 S
C624 H648 0.939 . S
C625 C624 1.384 1_455 S
C625 C629 1.397 . S
C626 C624 1.392 1_455 S
C626 C627 1.384 . S
C626 H649 0.928 1_455 S
C627 C626 1.384 . S
C627 C628 1.377 . S
C627 C630 1.481 . S
C628 C627 1.377 . S
C628 C629 1.389 . S
C628 H650 0.929 . S
C629 C625 1.397 . S
C629 C628 1.389 . S
C629 H651 0.931 . S
C630 C627 1.481 . S
C630 C631 1.387 . S
C630 C635 1.390 . S
C631 C630 1.387 . S
C631 C632 1.401 . S
C631 H652 0.930 . S
C632 C631 1.401 . S
C632 C633 1.376 . S
C632 C641 1.511 . S
C633 C632 1.376 . S
C633 C634 1.392 . S
C633 H654 0.931 . S
C634 C633 1.392 . S
C634 C635 1.361 . S
C634 C636 1.500 . S
C635 C630 1.390 . S
C635 C634 1.361 . S
C635 H653 0.931 . S
C636 C634 1.500 . S
C636 C637 1.371 . S
C636 C638 1.365 . S
C637 C636 1.371 . S
C637 C647 1.386 . S
C637 H655 0.931 . S
C638 C636 1.365 . S
C638 C639 1.409 . S
C638 H656 0.929 . S
C639 C638 1.409 . S
C639 C640 1.380 . S
C639 H657 0.930 . S
C640 C639 1.380 . S
C640 C647 1.357 . S
C641 C632 1.511 . S
C641 C642 1.341 . S
C641 C643 1.371 . S
C642 C641 1.341 . S
C642 C646 1.394 . S
C642 H658 0.930 . S
C643 C641 1.371 . S
C643 C644 1.392 . S
C643 H659 0.931 . S
C644 C643 1.392 . S
C644 C645 1.331 . S
C644 H662 0.932 . S
C645 C644 1.331 . S
C645 C646 1.336 . S
C646 C642 1.394 . S
C646 C645 1.336 . S
C646 H661 0.929 . S
C647 C637 1.386 . S
C647 C640 1.357 . S
C647 H660 0.928 . S
H648 C624 0.939 . S
H649 C626 0.928 1_655 S
H650 C628 0.929 . S
H651 C629 0.931 . S
H652 C631 0.930 . S
H653 C635 0.931 . S
H654 C633 0.931 . S
H655 C637 0.931 . S
H656 C638 0.929 . S
H657 C639 0.930 . S
H658 C642 0.930 . S
H659 C643 0.931 . S
H660 C647 0.928 . S
H661 C646 0.929 . S
H662 C644 0.932 . S
C663 C664 1.386 . S
C663 C665 1.397 . S
C663 H687 0.931 . S
C664 C663 1.386 . S
C664 C668 1.397 . S
C665 C663 1.397 . S
C665 C666 1.384 . S
C665 H688 0.930 . S
C666 C665 1.384 . S
C666 C667 1.377 . S
C666 C669 1.481 . S
C667 C666 1.377 . S
C667 C668 1.389 . S
C667 H689 0.929 . S
C668 C664 1.397 . S
C668 C667 1.389 . S
C668 H690 0.931 . S
C669 C666 1.481 . S
C669 C670 1.387 . S
C669 C674 1.390 . S
C670 C669 1.387 . S
C670 C671 1.401 . S
C670 H691 0.930 . S
C671 C670 1.401 . S
C671 C672 1.376 . S
C671 C680 1.511 . S
C672 C671 1.376 . S
C672 C673 1.392 . S
C672 H693 0.931 . S
C673 C672 1.392 . S
C673 C674 1.361 . S
C673 C675 1.500 . S
C674 C669 1.390 . S
C674 C673 1.361 . S
C674 H692 0.931 . S
C675 C673 1.500 . S
C675 C676 1.371 . S
C675 C677 1.365 . S
C676 C675 1.371 . S
C676 C686 1.386 . S
C676 H694 0.931 . S
C677 C675 1.365 . S
C677 C678 1.409 . S
C677 H695 0.929 . S
C678 C677 1.409 . S
C678 C679 1.380 . S
C678 H696 0.930 . S
C679 C678 1.380 . S
C679 C686 1.357 . S
C680 C671 1.511 . S
C680 C681 1.341 . S
C680 C682 1.371 . S
C681 C680 1.341 . S
C681 C685 1.394 . S
C681 H697 0.930 . S
C682 C680 1.371 . S
C682 C683 1.392 . S
C682 H698 0.931 . S
C683 C682 1.392 . S
C683 C684 1.331 . S
C683 H701 0.932 . S
C684 C683 1.331 . S
C684 C685 1.336 . S
C685 C681 1.394 . S
C685 C684 1.336 . S
C685 H700 0.929 . S
C686 C676 1.386 . S
C686 C679 1.357 . S
C686 H699 0.928 . S
H687 C663 0.931 . S
H688 C665 0.930 . S
H689 C667 0.929 . S
H690 C668 0.931 . S
H691 C670 0.930 . S
H692 C674 0.931 . S
H693 C672 0.931 . S
H694 C676 0.931 . S
H695 C677 0.929 . S
H696 C678 0.930 . S
H697 C681 0.930 . S
H698 C682 0.931 . S
H699 C686 0.928 . S
H700 C685 0.929 . S
H701 C683 0.932 . S
C702 Eu703 2.835 . S
C702 C704 1.500 . S
C702 O722 1.257 1_545 S
C702 O723 1.260 . S
Eu703 C702 2.835 . S
Eu703 O722 2.473 1_545 S
Eu703 O723 2.480 . S
Eu703 O724 2.430 . S
Eu703 O725 2.670 1_554 S
Eu703 O726 2.394 1_545 S
Eu703 O731 2.355 1_545 S
Eu703 O733 2.374 . S
C704 C702 1.500 . S
C704 C705 1.377 . S
C704 C709 1.377 1_545 S
C705 C704 1.377 . S
C705 C706 1.395 . S
C705 H734 0.931 . S
C706 C705 1.395 . S
C706 C707 1.383 1_545 S
C706 H735 0.931 . S
C707 C706 1.383 1_565 S
C707 C708 1.394 . S
C708 C707 1.394 . S
C708 C709 1.378 . S
C708 H736 0.931 . S
C709 C704 1.377 1_565 S
C709 C708 1.378 . S
C709 H737 0.931 . S
C710 O724 1.259 . S
C710 O725 1.270 1_554 S
C711 O726 1.251 . S
C711 O727 1.252 . S
C712 Eu713 2.835 . S
C712 C714 1.500 . S
C712 O728 1.257 1_565 S
C712 O729 1.260 . S
Eu713 C712 2.835 . S
Eu713 O725 2.355 1_565 S
Eu713 O727 2.373 1_556 S
Eu713 O728 2.473 1_565 S
Eu713 O729 2.480 . S
Eu713 O730 2.430 . S
Eu713 O731 2.670 1_556 S
Eu713 O732 2.394 1_565 S
C714 C712 1.500 . S
C714 C715 1.377 . S
C714 C719 1.377 1_565 S
C715 C714 1.377 . S
C715 C716 1.395 . S
C715 H738 0.931 . S
C716 C715 1.395 . S
C716 C717 1.383 1_565 S
C716 H739 0.931 . S
C717 C716 1.383 1_545 S
C717 C718 1.394 . S
C718 C717 1.394 . S
C718 C719 1.378 . S
C718 H740 0.931 . S
C719 C714 1.377 1_545 S
C719 C718 1.378 . S
C719 H741 0.931 . S
C720 O730 1.259 1_554 S
C720 O731 1.270 . S
C721 O732 1.251 . S
C721 O733 1.251 1_556 S
O722 C702 1.257 1_565 S
O722 Eu703 2.473 1_565 S
O723 C702 1.260 . S
O723 Eu703 2.480 . S
O724 Eu703 2.430 . S
O724 C710 1.259 . S
O725 Eu703 2.670 1_556 S
O725 C710 1.270 1_556 S
O725 Eu713 2.355 1_545 S
O726 Eu703 2.394 1_565 S
O726 C711 1.251 . S
O727 C711 1.252 . S
O727 Eu713 2.373 1_554 S
O728 C712 1.257 1_545 S
O728 Eu713 2.473 1_545 S
O729 C712 1.260 . S
O729 Eu713 2.480 . S
O730 Eu713 2.430 . S
O730 C720 1.259 1_556 S
O731 Eu703 2.355 1_565 S
O731 Eu713 2.670 1_554 S
O731 C720 1.270 . S
O732 Eu713 2.394 1_545 S
O732 C721 1.251 . S
O733 Eu703 2.374 . S
O733 C721 1.251 1_554 S
H734 C705 0.931 . S
H735 C706 0.931 . S
H736 C708 0.931 . S
H737 C709 0.931 . S
H738 C715 0.931 . S
H739 C716 0.931 . S
H740 C718 0.931 . S
H741 C719 0.931 . S
C742 Eu743 2.835 . S
C742 C744 1.500 1_655 S
C742 O762 1.257 1_655 S
C742 O763 1.260 . S
Eu743 C742 2.835 . S
Eu743 O762 2.473 1_655 S
Eu743 O763 2.480 . S
Eu743 O764 2.430 . S
Eu743 O765 2.670 1_554 S
Eu743 O766 2.394 1_655 S
Eu743 O771 2.355 1_655 S
Eu743 O773 2.374 . S
C744 C742 1.500 1_455 S
C744 C745 1.377 1_455 S
C744 C749 1.377 . S
C745 C744 1.377 1_655 S
C745 C746 1.395 . S
C745 H774 0.931 . S
C746 C745 1.395 . S
C746 C747 1.383 1_655 S
C746 H775 0.931 . S
C747 C746 1.383 1_455 S
C747 C748 1.394 . S
C748 C747 1.394 . S
C748 C749 1.378 . S
C748 H776 0.931 . S
C749 C744 1.377 . S
C749 C748 1.378 . S
C749 H777 0.931 . S
C750 O764 1.259 1_556 S
C750 O765 1.270 . S
C751 O766 1.251 . S
C751 O767 1.251 . S
C752 Eu753 2.835 . S
C752 C754 1.500 1_455 S
C752 O768 1.257 1_455 S
C752 O769 1.260 . S
Eu753 C752 2.835 . S
Eu753 O765 2.355 1_455 S
Eu753 O767 2.374 1_556 S
Eu753 O768 2.473 1_455 S
Eu753 O769 2.480 . S
Eu753 O770 2.430 . S
Eu753 O771 2.670 1_556 S
Eu753 O772 2.394 1_455 S
C754 C752 1.500 1_655 S
C754 C755 1.377 1_655 S
C754 C759 1.377 . S
C755 C754 1.377 1_455 S
C755 C756 1.395 . S
C755 H778 0.931 . S
C756 C755 1.395 . S
C756 C757 1.383 1_455 S
C756 H779 0.931 . S
C757 C756 1.383 1_655 S
C757 C758 1.394 . S
C758 C757 1.394 . S
C758 C759 1.378 . S
C758 H780 0.931 . S
C759 C754 1.377 . S
C759 C758 1.378 . S
C759 H781 0.931 . S
C760 O770 1.259 1_554 S
C760 O771 1.270 . S
C761 O772 1.251 . S
C761 O773 1.251 1_556 S
O762 C742 1.257 1_455 S
O762 Eu743 2.473 1_455 S
O763 C742 1.260 . S
O763 Eu743 2.480 . S
O764 Eu743 2.430 . S
O764 C750 1.259 1_554 S
O765 Eu743 2.670 1_556 S
O765 C750 1.270 . S
O765 Eu753 2.355 1_655 S
O766 Eu743 2.394 1_455 S
O766 C751 1.251 . S
O767 C751 1.251 . S
O767 Eu753 2.374 1_554 S
O768 C752 1.257 1_655 S
O768 Eu753 2.473 1_655 S
O769 C752 1.260 . S
O769 Eu753 2.480 . S
O770 Eu753 2.430 . S
O770 C760 1.259 1_556 S
O771 Eu743 2.355 1_455 S
O771 Eu753 2.670 1_554 S
O771 C760 1.270 . S
O772 Eu753 2.394 1_655 S
O772 C761 1.251 . S
O773 Eu743 2.374 . S
O773 C761 1.251 1_554 S
H774 C745 0.931 . S
H775 C746 0.931 . S
H776 C748 0.931 . S
H777 C749 0.931 . S
H778 C755 0.931 . S
H779 C756 0.931 . S
H780 C758 0.931 . S
H781 C759 0.931 . S
C782 Eu783 2.835 . S
C782 C784 1.500 . S
C782 O802 1.257 . S
C782 O803 1.260 . S
Eu783 C782 2.835 . S
Eu783 O802 2.473 . S
Eu783 O803 2.480 . S
Eu783 O804 2.430 . S
Eu783 O805 2.670 1_556 S
Eu783 O806 2.394 . S
Eu783 O811 2.355 . S
Eu783 O813 2.374 1_556 S
C784 C782 1.500 . S
C784 C785 1.377 . S
C784 C789 1.377 . S
C785 C784 1.377 . S
C785 C786 1.395 . S
C785 H814 0.931 . S
C786 C785 1.395 . S
C786 C787 1.383 . S
C786 H815 0.931 . S
C787 C786 1.383 . S
C787 C788 1.394 . S
C788 C787 1.394 . S
C788 C789 1.378 . S
C788 H816 0.931 . S
C789 C784 1.377 . S
C789 C788 1.378 . S
C789 H817 0.931 . S
C790 O804 1.259 1_554 S
C790 O805 1.270 . S
C791 O806 1.251 . S
C791 O807 1.251 1_556 S
C792 Eu793 2.835 . S
C792 C794 1.500 . S
C792 O808 1.257 . S
C792 O809 1.260 . S
Eu793 C792 2.835 . S
Eu793 O805 2.355 . S
Eu793 O807 2.374 . S
Eu793 O808 2.473 . S
Eu793 O809 2.480 . S
Eu793 O810 2.430 . S
Eu793 O811 2.670 1_554 S
Eu793 O812 2.394 . S
C794 C792 1.500 . S
C794 C795 1.377 . S
C794 C799 1.377 . S
C795 C794 1.377 . S
C795 C796 1.395 . S
C795 H818 0.931 . S
C796 C795 1.395 . S
C796 C797 1.383 . S
C796 H819 0.931 . S
C797 C796 1.383 . S
C797 C798 1.394 . S
C798 C797 1.394 . S
C798 C799 1.378 . S
C798 H820 0.931 . S
C799 C794 1.377 . S
C799 C798 1.378 . S
C799 H821 0.931 . S
C800 O810 1.260 1_556 S
C800 O811 1.269 . S
C801 O812 1.251 . S
C801 O813 1.251 . S
O802 C782 1.257 . S
O802 Eu783 2.473 . S
O803 C782 1.260 . S
O803 Eu783 2.480 . S
O804 Eu783 2.430 . S
O804 C790 1.259 1_556 S
O805 Eu783 2.670 1_554 S
O805 C790 1.270 . S
O805 Eu793 2.355 . S
O806 Eu783 2.394 . S
O806 C791 1.251 . S
O807 C791 1.251 1_554 S
O807 Eu793 2.374 . S
O808 C792 1.257 . S
O808 Eu793 2.473 . S
O809 C792 1.260 . S
O809 Eu793 2.480 . S
O810 Eu793 2.430 . S
O810 C800 1.260 1_554 S
O811 Eu783 2.355 . S
O811 Eu793 2.670 1_556 S
O811 C800 1.269 . S
O812 Eu793 2.394 . S
O812 C801 1.251 . S
O813 Eu783 2.374 1_554 S
O813 C801 1.251 . S
H814 C785 0.931 . S
H815 C786 0.931 . S
H816 C788 0.931 . S
H817 C789 0.931 . S
H818 C795 0.931 . S
H819 C796 0.931 . S
H820 C798 0.931 . S
H821 C799 0.931 . S
C822 Eu823 2.835 . S
C822 C824 1.500 . S
C822 O842 1.257 . S
C822 O843 1.260 . S
Eu823 C822 2.835 . S
Eu823 O842 2.473 . S
Eu823 O843 2.480 . S
Eu823 O844 2.430 . S
Eu823 O845 2.670 . S
Eu823 O846 2.394 . S
Eu823 O851 2.355 . S
Eu823 O853 2.374 . S
C824 C822 1.500 . S
C824 C825 1.377 . S
C824 C829 1.377 . S
C825 C824 1.377 . S
C825 C826 1.395 . S
C825 H854 0.931 . S
C826 C825 1.395 . S
C826 C827 1.383 . S
C826 H855 0.931 . S
C827 C826 1.383 . S
C827 C828 1.394 . S
C828 C827 1.394 . S
C828 C829 1.378 . S
C828 H856 0.931 . S
C829 C824 1.377 . S
C829 C828 1.378 . S
C829 H857 0.931 . S
C830 O844 1.259 . S
C830 O845 1.270 . S
C831 O846 1.251 . S
C831 O847 1.251 . S
C832 Eu833 2.835 . S
C832 C834 1.500 . S
C832 O848 1.257 . S
C832 O849 1.260 . S
Eu833 C832 2.835 . S
Eu833 O845 2.355 . S
Eu833 O847 2.374 . S
Eu833 O848 2.473 . S
Eu833 O849 2.480 . S
Eu833 O850 2.430 . S
Eu833 O851 2.670 . S
Eu833 O852 2.394 . S
C834 C832 1.500 . S
C834 C835 1.377 . S
C834 C839 1.377 . S
C835 C834 1.377 . S
C835 C836 1.395 . S
C835 H858 0.931 . S
C836 C835 1.395 . S
C836 C837 1.383 . S
C836 H859 0.931 . S
C837 C836 1.383 . S
C837 C838 1.394 . S
C838 C837 1.394 . S
C838 C839 1.378 . S
C838 H860 0.931 . S
C839 C834 1.377 . S
C839 C838 1.378 . S
C839 H861 0.931 . S
C840 O850 1.259 . S
C840 O851 1.270 . S
C841 O852 1.251 . S
C841 O853 1.251 . S
O842 C822 1.257 . S
O842 Eu823 2.473 . S
O843 C822 1.260 . S
O843 Eu823 2.480 . S
O844 Eu823 2.430 . S
O844 C830 1.259 . S
O845 Eu823 2.670 . S
O845 C830 1.270 . S
O845 Eu833 2.355 . S
O846 Eu823 2.394 . S
O846 C831 1.251 . S
O847 C831 1.251 . S
O847 Eu833 2.374 . S
O848 C832 1.257 . S
O848 Eu833 2.473 . S
O849 C832 1.260 . S
O849 Eu833 2.480 . S
O850 Eu833 2.430 . S
O850 C840 1.259 . S
O851 Eu823 2.355 . S
O851 Eu833 2.670 . S
O851 C840 1.270 . S
O852 Eu833 2.394 . S
O852 C841 1.251 . S
O853 Eu823 2.374 . S
O853 C841 1.251 . S
H854 C825 0.931 . S
H855 C826 0.931 . S
H856 C828 0.931 . S
H857 C829 0.931 . S
H858 C835 0.931 . S
H859 C836 0.931 . S
H860 C838 0.931 . S
H861 C839 0.931 . S
C862 Eu863 2.835 . S
C862 C864 1.500 . S
C862 O882 1.257 . S
C862 O883 1.260 . S
Eu863 C862 2.835 . S
Eu863 O882 2.473 . S
Eu863 O883 2.480 . S
Eu863 O884 2.430 . S
Eu863 O885 2.670 . S
Eu863 O886 2.394 . S
Eu863 O891 2.355 . S
Eu863 O893 2.374 . S
C864 C862 1.500 . S
C864 C865 1.377 . S
C864 C869 1.377 . S
C865 C864 1.377 . S
C865 C866 1.395 . S
C865 H894 0.931 . S
C866 C865 1.395 . S
C866 C867 1.383 . S
C866 H895 0.931 . S
C867 C866 1.383 . S
C867 C868 1.394 . S
C868 C867 1.394 . S
C868 C869 1.378 . S
C868 H896 0.931 . S
C869 C864 1.377 . S
C869 C868 1.378 . S
C869 H897 0.931 . S
C870 O884 1.259 . S
C870 O885 1.270 . S
C871 O886 1.251 . S
C871 O887 1.251 . S
C872 Eu873 2.835 . S
C872 C874 1.500 . S
C872 O888 1.257 . S
C872 O889 1.260 . S
Eu873 C872 2.835 . S
Eu873 O885 2.355 . S
Eu873 O887 2.374 . S
Eu873 O888 2.473 . S
Eu873 O889 2.480 . S
Eu873 O890 2.430 . S
Eu873 O891 2.670 . S
Eu873 O892 2.394 . S
C874 C872 1.500 . S
C874 C875 1.377 . S
C874 C879 1.377 . S
C875 C874 1.377 . S
C875 C876 1.395 . S
C875 H898 0.931 . S
C876 C875 1.395 . S
C876 C877 1.383 . S
C876 H899 0.931 . S
C877 C876 1.383 . S
C877 C878 1.394 . S
C878 C877 1.394 . S
C878 C879 1.378 . S
C878 H900 0.931 . S
C879 C874 1.377 . S
C879 C878 1.378 . S
C879 H901 0.931 . S
C880 O890 1.259 . S
C880 O891 1.270 . S
C881 O892 1.251 . S
C881 O893 1.251 . S
O882 C862 1.257 . S
O882 Eu863 2.473 . S
O883 C862 1.260 . S
O883 Eu863 2.480 . S
O884 Eu863 2.430 . S
O884 C870 1.259 . S
O885 Eu863 2.670 . S
O885 C870 1.270 . S
O885 Eu873 2.355 . S
O886 Eu863 2.394 . S
O886 C871 1.251 . S
O887 C871 1.251 . S
O887 Eu873 2.374 . S
O888 C872 1.257 . S
O888 Eu873 2.473 . S
O889 C872 1.260 . S
O889 Eu873 2.480 . S
O890 Eu873 2.430 . S
O890 C880 1.259 . S
O891 Eu863 2.355 . S
O891 Eu873 2.670 . S
O891 C880 1.270 . S
O892 Eu873 2.394 . S
O892 C881 1.251 . S
O893 Eu863 2.374 . S
O893 C881 1.251 . S
H894 C865 0.931 . S
H895 C866 0.931 . S
H896 C868 0.931 . S
H897 C869 0.931 . S
H898 C875 0.931 . S
H899 C876 0.931 . S
H900 C878 0.931 . S
H901 C879 0.931 . S
C902 Eu903 2.835 . S
C902 C904 1.500 . S
C902 O922 1.257 . S
C902 O923 1.260 . S
Eu903 C902 2.835 . S
Eu903 O922 2.473 . S
Eu903 O923 2.480 . S
Eu903 O924 2.430 . S
Eu903 O925 2.670 . S
Eu903 O926 2.394 . S
Eu903 O931 2.355 . S
Eu903 O933 2.374 . S
C904 C902 1.500 . S
C904 C905 1.377 . S
C904 C909 1.377 . S
C905 C904 1.377 . S
C905 C906 1.395 . S
C905 H934 0.931 . S
C906 C905 1.395 . S
C906 C907 1.383 . S
C906 H935 0.931 . S
C907 C906 1.383 . S
C907 C908 1.394 . S
C908 C907 1.394 . S
C908 C909 1.378 . S
C908 H936 0.931 . S
C909 C904 1.377 . S
C909 C908 1.378 . S
C909 H937 0.931 . S
C910 O924 1.259 . S
C910 O925 1.270 . S
C911 O926 1.251 . S
C911 O927 1.251 . S
C912 Eu913 2.835 . S
C912 C914 1.500 . S
C912 O928 1.257 . S
C912 O929 1.260 . S
Eu913 C912 2.835 . S
Eu913 O925 2.355 . S
Eu913 O927 2.374 . S
Eu913 O928 2.473 . S
Eu913 O929 2.480 . S
Eu913 O930 2.430 . S
Eu913 O931 2.670 . S
Eu913 O932 2.394 . S
C914 C912 1.500 . S
C914 C915 1.377 . S
C914 C919 1.377 . S
C915 C914 1.377 . S
C915 C916 1.395 . S
C915 H938 0.931 . S
C916 C915 1.395 . S
C916 C917 1.383 . S
C916 H939 0.931 . S
C917 C916 1.383 . S
C917 C918 1.394 . S
C918 C917 1.394 . S
C918 C919 1.378 . S
C918 H940 0.931 . S
C919 C914 1.377 . S
C919 C918 1.378 . S
C919 H941 0.931 . S
C920 O930 1.259 . S
C920 O931 1.270 . S
C921 O932 1.251 . S
C921 O933 1.251 . S
O922 C902 1.257 . S
O922 Eu903 2.473 . S
O923 C902 1.260 . S
O923 Eu903 2.480 . S
O924 Eu903 2.430 . S
O924 C910 1.259 . S
O925 Eu903 2.670 . S
O925 C910 1.270 . S
O925 Eu913 2.355 . S
O926 Eu903 2.394 . S
O926 C911 1.251 . S
O927 C911 1.251 . S
O927 Eu913 2.374 . S
O928 C912 1.257 . S
O928 Eu913 2.473 . S
O929 C912 1.260 . S
O929 Eu913 2.480 . S
O930 Eu913 2.430 . S
O930 C920 1.259 . S
O931 Eu903 2.355 . S
O931 Eu913 2.670 . S
O931 C920 1.270 . S
O932 Eu913 2.394 . S
O932 C921 1.251 . S
O933 Eu903 2.374 . S
O933 C921 1.251 . S
H934 C905 0.931 . S
H935 C906 0.931 . S
H936 C908 0.931 . S
H937 C909 0.931 . S
H938 C915 0.931 . S
H939 C916 0.931 . S
H940 C918 0.931 . S
H941 C919 0.931 . S
C942 Eu943 2.835 . S
C942 C944 1.500 . S
C942 O962 1.257 . S
C942 O963 1.260 . S
Eu943 C942 2.835 . S
Eu943 O962 2.473 . S
Eu943 O963 2.480 . S
Eu943 O964 2.430 . S
Eu943 O965 2.670 . S
Eu943 O966 2.394 . S
Eu943 O971 2.355 . S
Eu943 O973 2.374 . S
C944 C942 1.500 . S
C944 C945 1.377 . S
C944 C949 1.377 . S
C945 C944 1.377 . S
C945 C946 1.395 . S
C945 H974 0.931 . S
C946 C945 1.395 . S
C946 C947 1.383 . S
C946 H975 0.931 . S
C947 C946 1.383 . S
C947 C948 1.394 . S
C948 C947 1.394 . S
C948 C949 1.378 . S
C948 H976 0.931 . S
C949 C944 1.377 . S
C949 C948 1.378 . S
C949 H977 0.931 . S
C950 O964 1.259 . S
C950 O965 1.270 . S
C951 O966 1.251 . S
C951 O967 1.251 . S
C952 Eu953 2.835 . S
C952 C954 1.500 . S
C952 O968 1.257 . S
C952 O969 1.260 . S
Eu953 C952 2.835 . S
Eu953 O965 2.355 . S
Eu953 O967 2.374 . S
Eu953 O968 2.473 . S
Eu953 O969 2.480 . S
Eu953 O970 2.430 . S
Eu953 O971 2.670 . S
Eu953 O972 2.394 . S
C954 C952 1.500 . S
C954 C955 1.377 . S
C954 C959 1.377 . S
C955 C954 1.377 . S
C955 C956 1.395 . S
C955 H978 0.931 . S
C956 C955 1.395 . S
C956 C957 1.383 . S
C956 H979 0.931 . S
C957 C956 1.383 . S
C957 C958 1.394 . S
C958 C957 1.394 . S
C958 C959 1.378 . S
C958 H980 0.931 . S
C959 C954 1.377 . S
C959 C958 1.378 . S
C959 H981 0.931 . S
C960 O970 1.259 . S
C960 O971 1.270 . S
C961 O972 1.251 . S
C961 O973 1.251 . S
O962 C942 1.257 . S
O962 Eu943 2.473 . S
O963 C942 1.260 . S
O963 Eu943 2.480 . S
O964 Eu943 2.430 . S
O964 C950 1.259 . S
O965 Eu943 2.670 . S
O965 C950 1.270 . S
O965 Eu953 2.355 . S
O966 Eu943 2.394 . S
O966 C951 1.251 . S
O967 C951 1.251 . S
O967 Eu953 2.374 . S
O968 C952 1.257 . S
O968 Eu953 2.473 . S
O969 C952 1.260 . S
O969 Eu953 2.480 . S
O970 Eu953 2.430 . S
O970 C960 1.259 . S
O971 Eu943 2.355 . S
O971 Eu953 2.670 . S
O971 C960 1.270 . S
O972 Eu953 2.394 . S
O972 C961 1.251 . S
O973 Eu943 2.374 . S
O973 C961 1.251 . S
H974 C945 0.931 . S
H975 C946 0.931 . S
H976 C948 0.931 . S
H977 C949 0.931 . S
H978 C955 0.931 . S
H979 C956 0.931 . S
H980 C958 0.931 . S
H981 C959 0.931 . S
C982 Eu983 2.835 . S
C982 C984 1.500 . S
C982 O1002 1.257 . S
C982 O1003 1.260 . S
Eu983 C982 2.835 . S
Eu983 O1002 2.473 . S
Eu983 O1003 2.480 . S
Eu983 O1004 2.430 . S
Eu983 O1005 2.670 . S
Eu983 O1006 2.394 . S
Eu983 O1011 2.355 . S
Eu983 O1013 2.374 . S
C984 C982 1.500 . S
C984 C985 1.377 . S
C984 C989 1.377 . S
C985 C984 1.377 . S
C985 C986 1.395 . S
C985 H1014 0.931 . S
C986 C985 1.395 . S
C986 C987 1.383 . S
C986 H1015 0.931 . S
C987 C986 1.383 . S
C987 C988 1.394 . S
C988 C987 1.394 . S
C988 C989 1.378 . S
C988 H1016 0.931 . S
C989 C984 1.377 . S
C989 C988 1.378 . S
C989 H1017 0.931 . S
C990 O1004 1.259 . S
C990 O1005 1.270 . S
C991 O1006 1.251 . S
C991 O1007 1.251 . S
C992 Eu993 2.835 . S
C992 C994 1.500 . S
C992 O1008 1.257 . S
C992 O1009 1.260 . S
Eu993 C992 2.835 . S
Eu993 O1005 2.355 . S
Eu993 O1007 2.374 . S
Eu993 O1008 2.473 . S
Eu993 O1009 2.480 . S
Eu993 O1010 2.430 . S
Eu993 O1011 2.670 . S
Eu993 O1012 2.394 . S
C994 C992 1.500 . S
C994 C995 1.377 . S
C994 C999 1.377 . S
C995 C994 1.377 . S
C995 C996 1.395 . S
C995 H1018 0.931 . S
C996 C995 1.395 . S
C996 C997 1.383 . S
C996 H1019 0.931 . S
C997 C996 1.383 . S
C997 C998 1.394 . S
C998 C997 1.394 . S
C998 C999 1.378 . S
C998 H1020 0.931 . S
C999 C994 1.377 . S
C999 C998 1.378 . S
C999 H1021 0.931 . S
C1000 O1010 1.259 . S
C1000 O1011 1.270 . S
C1001 O1012 1.251 . S
C1001 O1013 1.251 . S
O1002 C982 1.257 . S
O1002 Eu983 2.473 . S
O1003 C982 1.260 . S
O1003 Eu983 2.480 . S
O1004 Eu983 2.430 . S
O1004 C990 1.259 . S
O1005 Eu983 2.670 . S
O1005 C990 1.270 . S
O1005 Eu993 2.355 . S
O1006 Eu983 2.394 . S
O1006 C991 1.251 . S
O1007 C991 1.251 . S
O1007 Eu993 2.374 . S
O1008 C992 1.257 . S
O1008 Eu993 2.473 . S
O1009 C992 1.260 . S
O1009 Eu993 2.480 . S
O1010 Eu993 2.430 . S
O1010 C1000 1.259 . S
O1011 Eu983 2.355 . S
O1011 Eu993 2.670 . S
O1011 C1000 1.270 . S
O1012 Eu993 2.394 . S
O1012 C1001 1.251 . S
O1013 Eu983 2.374 . S
O1013 C1001 1.251 . S
H1014 C985 0.931 . S
H1015 C986 0.931 . S
H1016 C988 0.931 . S
H1017 C989 0.931 . S
H1018 C995 0.931 . S
H1019 C996 0.931 . S
H1020 C998 0.931 . S
H1021 C999 0.931 . S
C1022 Eu1023 2.835 . S
C1022 C1024 1.500 . S
C1022 O1042 1.257 . S
C1022 O1043 1.260 . S
Eu1023 C1022 2.835 . S
Eu1023 O1042 2.473 . S
Eu1023 O1043 2.480 . S
Eu1023 O1044 2.430 . S
Eu1023 O1045 2.670 . S
Eu1023 O1046 2.394 . S
Eu1023 O1051 2.355 . S
Eu1023 O1053 2.374 . S
C1024 C1022 1.500 . S
C1024 C1025 1.377 . S
C1024 C1029 1.377 . S
C1025 C1024 1.377 . S
C1025 C1026 1.395 . S
C1025 H1054 0.931 . S
C1026 C1025 1.395 . S
C1026 C1027 1.383 . S
C1026 H1055 0.931 . S
C1027 C1026 1.383 . S
C1027 C1028 1.394 . S
C1028 C1027 1.394 . S
C1028 C1029 1.378 . S
C1028 H1056 0.931 . S
C1029 C1024 1.377 . S
C1029 C1028 1.378 . S
C1029 H1057 0.931 . S
C1030 O1044 1.259 . S
C1030 O1045 1.270 . S
C1031 O1046 1.251 . S
C1031 O1047 1.251 . S
C1032 Eu1033 2.835 . S
C1032 C1034 1.500 . S
C1032 O1048 1.257 . S
C1032 O1049 1.260 . S
Eu1033 C1032 2.835 . S
Eu1033 O1045 2.355 . S
Eu1033 O1047 2.374 . S
Eu1033 O1048 2.473 . S
Eu1033 O1049 2.480 . S
Eu1033 O1050 2.430 . S
Eu1033 O1051 2.670 . S
Eu1033 O1052 2.394 . S
C1034 C1032 1.500 . S
C1034 C1035 1.377 . S
C1034 C1039 1.377 . S
C1035 C1034 1.377 . S
C1035 C1036 1.395 . S
C1035 H1058 0.931 . S
C1036 C1035 1.395 . S
C1036 C1037 1.383 . S
C1036 H1059 0.931 . S
C1037 C1036 1.383 . S
C1037 C1038 1.394 . S
C1038 C1037 1.394 . S
C1038 C1039 1.378 . S
C1038 H1060 0.931 . S
C1039 C1034 1.377 . S
C1039 C1038 1.378 . S
C1039 H1061 0.931 . S
C1040 O1050 1.259 . S
C1040 O1051 1.270 . S
C1041 O1052 1.251 . S
C1041 O1053 1.251 . S
O1042 C1022 1.257 . S
O1042 Eu1023 2.473 . S
O1043 C1022 1.260 . S
O1043 Eu1023 2.480 . S
O1044 Eu1023 2.430 . S
O1044 C1030 1.259 . S
O1045 Eu1023 2.670 . S
O1045 C1030 1.270 . S
O1045 Eu1033 2.355 . S
O1046 Eu1023 2.394 . S
O1046 C1031 1.251 . S
O1047 C1031 1.251 . S
O1047 Eu1033 2.374 . S
O1048 C1032 1.257 . S
O1048 Eu1033 2.473 . S
O1049 C1032 1.260 . S
O1049 Eu1033 2.480 . S
O1050 Eu1033 2.430 . S
O1050 C1040 1.259 . S
O1051 Eu1023 2.355 . S
O1051 Eu1033 2.670 . S
O1051 C1040 1.270 . S
O1052 Eu1033 2.394 . S
O1052 C1041 1.251 . S
O1053 Eu1023 2.374 . S
O1053 C1041 1.251 . S
H1054 C1025 0.931 . S
H1055 C1026 0.931 . S
H1056 C1028 0.931 . S
H1057 C1029 0.931 . S
H1058 C1035 0.931 . S
H1059 C1036 0.931 . S
H1060 C1038 0.931 . S
H1061 C1039 0.931 . S
H1062 C1070 0.950 . S
H1063 C1075 0.950 . S
H1064 C1072 0.950 . S
H1065 C1074 0.950 . S
H1066 C1076 0.950 . S
H1067 C1078 0.950 . S
H1068 C1080 0.950 . S
H1069 C1081 0.950 . S
C1070 H1062 0.950 . S
C1070 C1071 1.386 . S
C1070 C1072 1.391 . S
C1071 C1070 1.386 . S
C1071 C1075 1.393 . S
C1072 H1064 0.950 . S
C1072 C1070 1.391 . S
C1072 C1073 1.400 . S
C1073 C1072 1.400 . S
C1073 C1074 1.398 . S
C1073 C1079 1.491 . S
C1074 H1065 0.950 . S
C1074 C1073 1.398 . S
C1074 C1075 1.391 . S
C1075 H1063 0.950 . S
C1075 C1071 1.393 . S
C1075 C1074 1.391 . S
C1076 H1066 0.950 . S
C1076 C1077 1.386 . S
C1076 C1078 1.391 . S
C1077 C1076 1.386 . S
C1077 C1081 1.393 . S
C1078 H1067 0.950 . S
C1078 C1076 1.391 . S
C1078 C1079 1.400 . S
C1079 C1073 1.491 . S
C1079 C1078 1.400 . S
C1079 C1080 1.398 . S
C1080 H1068 0.950 . S
C1080 C1079 1.398 . S
C1080 C1081 1.391 . S
C1081 H1069 0.950 . S
C1081 C1077 1.393 . S
C1081 C1080 1.391 . S
H1082 C1090 0.950 . S
H1083 C1095 0.950 . S
H1084 C1092 0.950 . S
H1085 C1094 0.950 . S
H1086 C1096 0.950 . S
H1087 C1098 0.950 . S
H1088 C1100 0.950 . S
H1089 C1101 0.950 . S
C1090 H1082 0.950 . S
C1090 C1091 1.386 . S
C1090 C1092 1.391 . S
C1091 C1090 1.386 . S
C1091 C1095 1.393 . S
C1092 H1084 0.950 . S
C1092 C1090 1.391 . S
C1092 C1093 1.400 . S
C1093 C1092 1.400 . S
C1093 C1094 1.398 . S
C1093 C1099 1.491 . S
C1094 H1085 0.950 . S
C1094 C1093 1.398 . S
C1094 C1095 1.391 . S
C1095 H1083 0.950 . S
C1095 C1091 1.393 . S
C1095 C1094 1.391 . S
C1096 H1086 0.950 . S
C1096 C1097 1.386 . S
C1096 C1098 1.391 . S
C1097 C1096 1.386 . S
C1097 C1101 1.393 . S
C1098 H1087 0.950 . S
C1098 C1096 1.391 . S
C1098 C1099 1.400 . S
C1099 C1093 1.491 . S
C1099 C1098 1.400 . S
C1099 C1100 1.398 . S
C1100 H1088 0.950 . S
C1100 C1099 1.398 . S
C1100 C1101 1.391 . S
C1101 H1089 0.950 . S
C1101 C1097 1.393 . S
C1101 C1100 1.391 . S
H1102 C1110 0.950 . S
H1103 C1115 0.950 . S
H1104 C1112 0.950 . S
H1105 C1114 0.950 . S
H1106 C1116 0.950 . S
H1107 C1118 0.950 . S
H1108 C1120 0.950 . S
H1109 C1121 0.950 . S
C1110 H1102 0.950 . S
C1110 C1111 1.386 . S
C1110 C1112 1.391 . S
C1111 C1110 1.386 . S
C1111 C1115 1.393 . S
C1112 H1104 0.950 . S
C1112 C1110 1.391 . S
C1112 C1113 1.400 . S
C1113 C1112 1.400 . S
C1113 C1114 1.398 . S
C1113 C1119 1.491 . S
C1114 H1105 0.950 . S
C1114 C1113 1.398 . S
C1114 C1115 1.391 . S
C1115 H1103 0.950 . S
C1115 C1111 1.393 . S
C1115 C1114 1.391 . S
C1116 H1106 0.950 . S
C1116 C1117 1.386 . S
C1116 C1118 1.391 . S
C1117 C1116 1.386 . S
C1117 C1121 1.393 . S
C1118 H1107 0.950 . S
C1118 C1116 1.391 . S
C1118 C1119 1.400 . S
C1119 C1113 1.491 . S
C1119 C1118 1.400 . S
C1119 C1120 1.398 . S
C1120 H1108 0.950 . S
C1120 C1119 1.398 . S
C1120 C1121 1.391 . S
C1121 H1109 0.950 . S
C1121 C1117 1.393 . S
C1121 C1120 1.391 . S
H1122 C1130 0.950 . S
H1123 C1135 0.950 . S
H1124 C1132 0.950 . S
H1125 C1134 0.950 . S
H1126 C1136 0.950 1_554 S
H1127 C1138 0.950 . S
H1128 C1140 0.950 . S
H1129 C1141 0.950 . S
C1130 H1122 0.950 . S
C1130 C1131 1.386 . S
C1130 C1132 1.391 . S
C1131 C1130 1.386 . S
C1131 C1135 1.393 . S
C1132 H1124 0.950 . S
C1132 C1130 1.391 . S
C1132 C1133 1.400 . S
C1133 C1132 1.400 . S
C1133 C1134 1.398 . S
C1133 C1139 1.491 . S
C1134 H1125 0.950 . S
C1134 C1133 1.398 . S
C1134 C1135 1.391 . S
C1135 H1123 0.950 . S
C1135 C1131 1.393 . S
C1135 C1134 1.391 . S
C1136 H1126 0.950 1_556 S
C1136 C1137 1.386 . S
C1136 C1138 1.391 . S
C1137 C1136 1.386 . S
C1137 C1141 1.393 . S
C1138 H1127 0.950 . S
C1138 C1136 1.391 . S
C1138 C1139 1.400 . S
C1139 C1133 1.491 . S
C1139 C1138 1.400 . S
C1139 C1140 1.398 . S
C1140 H1128 0.950 . S
C1140 C1139 1.398 . S
C1140 C1141 1.391 . S
C1141 H1129 0.950 . S
C1141 C1137 1.393 . S
C1141 C1140 1.391 . S
H1142 C1150 0.950 . S
H1143 C1155 0.950 . S
H1144 C1152 0.950 . S
H1145 C1154 0.950 . S
H1146 C1156 0.950 . S
H1147 C1158 0.950 . S
H1148 C1160 0.950 . S
H1149 C1161 0.950 . S
C1150 H1142 0.950 . S
C1150 C1151 1.386 . S
C1150 C1152 1.391 . S
C1151 C1150 1.386 . S
C1151 C1155 1.393 . S
C1152 H1144 0.950 . S
C1152 C1150 1.391 . S
C1152 C1153 1.400 . S
C1153 C1152 1.400 . S
C1153 C1154 1.398 . S
C1153 C1159 1.491 . S
C1154 H1145 0.950 . S
C1154 C1153 1.398 . S
C1154 C1155 1.391 . S
C1155 H1143 0.950 . S
C1155 C1151 1.393 . S
C1155 C1154 1.391 . S
C1156 H1146 0.950 . S
C1156 C1157 1.386 . S
C1156 C1158 1.391 . S
C1157 C1156 1.386 . S
C1157 C1161 1.393 . S
C1158 H1147 0.950 . S
C1158 C1156 1.391 . S
C1158 C1159 1.400 . S
C1159 C1153 1.491 . S
C1159 C1158 1.400 . S
C1159 C1160 1.398 . S
C1160 H1148 0.950 . S
C1160 C1159 1.398 . S
C1160 C1161 1.391 . S
C1161 H1149 0.950 . S
C1161 C1157 1.393 . S
C1161 C1160 1.391 . S
H1162 C1170 0.950 . S
H1163 C1175 0.950 . S
H1164 C1172 0.950 . S
H1165 C1174 0.950 . S
H1166 C1176 0.950 . S
H1167 C1178 0.950 . S
H1168 C1180 0.950 . S
H1169 C1181 0.936 1_554 S
C1170 H1162 0.950 . S
C1170 C1171 1.386 . S
C1170 C1172 1.391 . S
C1171 C1170 1.386 . S
C1171 C1175 1.393 . S
C1172 H1164 0.950 . S
C1172 C1170 1.391 . S
C1172 C1173 1.400 . S
C1173 C1172 1.400 . S
C1173 C1174 1.398 . S
C1173 C1179 1.491 . S
C1174 H1165 0.950 . S
C1174 C1173 1.398 . S
C1174 C1175 1.391 . S
C1175 H1163 0.950 . S
C1175 C1171 1.393 . S
C1175 C1174 1.391 . S
C1176 H1166 0.950 . S
C1176 C1177 1.386 . S
C1176 C1178 1.391 . S
C1177 C1176 1.386 . S
C1177 C1181 1.393 . S
C1178 H1167 0.950 . S
C1178 C1176 1.391 . S
C1178 C1179 1.400 . S
C1179 C1173 1.491 . S
C1179 C1178 1.400 . S
C1179 C1180 1.398 . S
C1180 H1168 0.950 . S
C1180 C1179 1.398 . S
C1180 C1181 1.391 . S
C1181 H1169 0.936 1_556 S
C1181 C1177 1.393 . S
C1181 C1180 1.391 . S
H1182 C1190 0.950 . S
H1183 C1195 0.950 . S
H1184 C1192 0.950 . S
H1185 C1194 0.950 . S
H1186 C1196 0.950 . S
H1187 C1198 0.950 . S
H1188 C1200 0.950 . S
H1189 C1201 0.950 1_554 S
C1190 H1182 0.950 . S
C1190 C1191 1.386 . S
C1190 C1192 1.391 . S
C1191 C1190 1.386 . S
C1191 C1195 1.393 . S
C1192 H1184 0.950 . S
C1192 C1190 1.391 . S
C1192 C1193 1.400 . S
C1193 C1192 1.400 . S
C1193 C1194 1.398 . S
C1193 C1199 1.491 . S
C1194 H1185 0.950 . S
C1194 C1193 1.398 . S
C1194 C1195 1.391 . S
C1195 H1183 0.950 . S
C1195 C1191 1.393 . S
C1195 C1194 1.391 . S
C1196 H1186 0.950 . S
C1196 C1197 1.386 . S
C1196 C1198 1.391 . S
C1197 C1196 1.386 . S
C1197 C1201 1.393 . S
C1198 H1187 0.950 . S
C1198 C1196 1.391 . S
C1198 C1199 1.400 . S
C1199 C1193 1.491 . S
C1199 C1198 1.400 . S
C1199 C1200 1.398 . S
C1200 H1188 0.950 . S
C1200 C1199 1.398 . S
C1200 C1201 1.391 . S
C1201 H1189 0.950 1_556 S
C1201 C1197 1.393 . S
C1201 C1200 1.391 . S
H1202 C1210 0.950 . S
H1203 C1215 0.950 . S
H1204 C1212 0.950 . S
H1205 C1214 0.950 . S
H1206 C1216 0.950 1_554 S
H1207 C1218 0.950 . S
H1208 C1220 0.950 . S
H1209 C1221 0.950 . S
C1210 H1202 0.950 . S
C1210 C1211 1.386 . S
C1210 C1212 1.391 . S
C1211 C1210 1.386 . S
C1211 C1215 1.393 . S
C1212 H1204 0.950 . S
C1212 C1210 1.391 . S
C1212 C1213 1.400 . S
C1213 C1212 1.400 . S
C1213 C1214 1.398 . S
C1213 C1219 1.491 . S
C1214 H1205 0.950 . S
C1214 C1213 1.398 . S
C1214 C1215 1.391 . S
C1215 H1203 0.950 . S
C1215 C1211 1.393 . S
C1215 C1214 1.391 . S
C1216 H1206 0.950 1_556 S
C1216 C1217 1.386 . S
C1216 C1218 1.391 . S
C1217 C1216 1.386 . S
C1217 C1221 1.393 . S
C1218 H1207 0.950 . S
C1218 C1216 1.391 . S
C1218 C1219 1.400 . S
C1219 C1213 1.491 . S
C1219 C1218 1.400 . S
C1219 C1220 1.398 . S
C1220 H1208 0.950 . S
C1220 C1219 1.398 . S
C1220 C1221 1.391 . S
C1221 H1209 0.950 . S
C1221 C1217 1.393 . S
C1221 C1220 1.391 . S
H1222 C1230 0.950 . S
H1223 C1235 0.950 . S
H1224 C1232 0.950 . S
H1225 C1234 0.950 . S
H1226 C1236 0.950 . S
H1227 C1238 0.950 . S
H1228 C1240 0.941 1_554 S
H1229 C1241 0.950 1_554 S
C1230 H1222 0.950 . S
C1230 C1231 1.386 . S
C1230 C1232 1.391 . S
C1231 C1230 1.386 . S
C1231 C1235 1.393 . S
C1232 H1224 0.950 . S
C1232 C1230 1.391 . S
C1232 C1233 1.400 . S
C1233 C1232 1.400 . S
C1233 C1234 1.398 . S
C1233 C1239 1.491 . S
C1234 H1225 0.950 . S
C1234 C1233 1.398 . S
C1234 C1235 1.391 . S
C1235 H1223 0.950 . S
C1235 C1231 1.393 . S
C1235 C1234 1.391 . S
C1236 H1226 0.950 . S
C1236 C1237 1.386 . S
C1236 C1238 1.391 . S
C1237 C1236 1.386 . S
C1237 C1241 1.393 . S
C1238 H1227 0.950 . S
C1238 C1236 1.391 . S
C1238 C1239 1.400 . S
C1239 C1233 1.491 . S
C1239 C1238 1.400 . S
C1239 C1240 1.398 . S
C1240 H1228 0.941 1_556 S
C1240 C1239 1.398 . S
C1240 C1241 1.391 . S
C1241 H1229 0.950 1_556 S
C1241 C1237 1.393 . S
C1241 C1240 1.391 . S
H1242 C1250 0.950 . S
H1243 C1255 0.950 . S
H1244 C1252 0.950 . S
H1245 C1254 0.950 . S
H1246 C1256 0.950 . S
H1247 C1258 0.950 . S
H1248 C1260 0.950 . S
H1249 C1261 0.950 . S
C1250 H1242 0.950 . S
C1250 C1251 1.386 . S
C1250 C1252 1.391 . S
C1251 C1250 1.386 . S
C1251 C1255 1.393 . S
C1252 H1244 0.950 . S
C1252 C1250 1.391 . S
C1252 C1253 1.400 . S
C1253 C1252 1.400 . S
C1253 C1254 1.398 . S
C1253 C1259 1.491 . S
C1254 H1245 0.950 . S
C1254 C1253 1.398 . S
C1254 C1255 1.391 . S
C1255 H1243 0.950 . S
C1255 C1251 1.393 . S
C1255 C1254 1.391 . S
C1256 H1246 0.950 . S
C1256 C1257 1.386 . S
C1256 C1258 1.391 . S
C1257 C1256 1.386 . S
C1257 C1261 1.393 . S
C1258 H1247 0.950 . S
C1258 C1256 1.391 . S
C1258 C1259 1.400 . S
C1259 C1253 1.491 . S
C1259 C1258 1.400 . S
C1259 C1260 1.398 . S
C1260 H1248 0.950 . S
C1260 C1259 1.398 . S
C1260 C1261 1.391 . S
C1261 H1249 0.950 . S
C1261 C1257 1.393 . S
C1261 C1260 1.391 . S
H1262 C1270 0.950 . S
H1263 C1275 0.950 . S
H1264 C1272 0.950 . S
H1265 C1274 0.950 . S
H1266 C1276 0.950 . S
H1267 C1278 0.950 . S
H1268 C1280 0.950 . S
H1269 C1281 0.950 . S
C1270 H1262 0.950 . S
C1270 C1271 1.386 . S
C1270 C1272 1.391 . S
C1271 C1270 1.386 . S
C1271 C1275 1.393 . S
C1272 H1264 0.950 . S
C1272 C1270 1.391 . S
C1272 C1273 1.400 . S
C1273 C1272 1.400 . S
C1273 C1274 1.398 . S
C1273 C1279 1.491 . S
C1274 H1265 0.950 . S
C1274 C1273 1.398 . S
C1274 C1275 1.391 . S
C1275 H1263 0.950 . S
C1275 C1271 1.393 . S
C1275 C1274 1.391 . S
C1276 H1266 0.950 . S
C1276 C1277 1.386 . S
C1276 C1278 1.391 . S
C1277 C1276 1.386 . S
C1277 C1281 1.393 . S
C1278 H1267 0.950 . S
C1278 C1276 1.391 . S
C1278 C1279 1.400 . S
C1279 C1273 1.491 . S
C1279 C1278 1.400 . S
C1279 C1280 1.398 . S
C1280 H1268 0.950 . S
C1280 C1279 1.398 . S
C1280 C1281 1.391 . S
C1281 H1269 0.950 . S
C1281 C1277 1.393 . S
C1281 C1280 1.391 . S
H1282 C1290 0.950 . S
H1283 C1295 0.950 . S
H1284 C1292 0.950 . S
H1285 C1294 0.950 . S
H1286 C1296 0.950 . S
H1287 C1298 0.950 . S
H1288 C1300 0.950 . S
H1289 C1301 0.950 . S
C1290 H1282 0.950 . S
C1290 C1291 1.386 . S
C1290 C1292 1.391 . S
C1291 C1290 1.386 . S
C1291 C1295 1.393 . S
C1292 H1284 0.950 . S
C1292 C1290 1.391 . S
C1292 C1293 1.400 . S
C1293 C1292 1.400 . S
C1293 C1294 1.398 . S
C1293 C1299 1.491 . S
C1294 H1285 0.950 . S
C1294 C1293 1.398 . S
C1294 C1295 1.391 . S
C1295 H1283 0.950 . S
C1295 C1291 1.393 . S
C1295 C1294 1.391 . S
C1296 H1286 0.950 . S
C1296 C1297 1.386 . S
C1296 C1298 1.391 . S
C1297 C1296 1.386 . S
C1297 C1301 1.393 . S
C1298 H1287 0.950 . S
C1298 C1296 1.391 . S
C1298 C1299 1.400 . S
C1299 C1293 1.491 . S
C1299 C1298 1.400 . S
C1299 C1300 1.398 . S
C1300 H1288 0.950 . S
C1300 C1299 1.398 . S
C1300 C1301 1.391 . S
C1301 H1289 0.950 . S
C1301 C1297 1.393 . S
C1301 C1300 1.391 . S
H1302 C1310 0.950 . S
H1303 C1315 0.950 . S
H1304 C1312 0.950 . S
H1305 C1314 0.950 . S
H1306 C1316 0.950 . S
H1307 C1318 0.950 . S
H1308 C1320 0.950 . S
H1309 C1321 0.950 . S
C1310 H1302 0.950 . S
C1310 C1311 1.386 . S
C1310 C1312 1.391 1_655 S
C1311 C1310 1.386 . S
C1311 C1315 1.393 . S
C1312 H1304 0.950 . S
C1312 C1310 1.391 1_455 S
C1312 C1313 1.400 . S
C1313 C1312 1.400 . S
C1313 C1314 1.398 . S
C1313 C1319 1.491 . S
C1314 H1305 0.950 . S
C1314 C1313 1.398 . S
C1314 C1315 1.391 1_455 S
C1315 H1303 0.950 . S
C1315 C1311 1.393 . S
C1315 C1314 1.391 1_655 S
C1316 H1306 0.950 . S
C1316 C1317 1.386 . S
C1316 C1318 1.391 . S
C1317 C1316 1.386 . S
C1317 C1321 1.393 . S
C1318 H1307 0.950 . S
C1318 C1316 1.391 . S
C1318 C1319 1.400 . S
C1319 C1313 1.491 . S
C1319 C1318 1.400 . S
C1319 C1320 1.398 . S
C1320 H1308 0.950 . S
C1320 C1319 1.398 . S
C1320 C1321 1.391 . S
C1321 H1309 0.950 . S
C1321 C1317 1.393 . S
C1321 C1320 1.391 . S
H1322 C1330 0.950 . S
H1323 C1335 0.950 . S
H1324 C1332 0.950 . S
H1325 C1334 0.950 . S
H1326 C1336 0.950 . S
H1327 C1338 0.950 . S
H1328 C1340 0.950 . S
H1329 C1341 0.950 . S
C1330 H1322 0.950 . S
C1330 C1331 1.386 . S
C1330 C1332 1.391 . S
C1331 C1330 1.386 . S
C1331 C1335 1.393 . S
C1332 H1324 0.950 . S
C1332 C1330 1.391 . S
C1332 C1333 1.400 . S
C1333 C1332 1.400 . S
C1333 C1334 1.398 . S
C1333 C1339 1.491 . S
C1334 H1325 0.950 . S
C1334 C1333 1.398 . S
C1334 C1335 1.391 . S
C1335 H1323 0.950 . S
C1335 C1331 1.393 . S
C1335 C1334 1.391 . S
C1336 H1326 0.950 . S
C1336 C1337 1.386 . S
C1336 C1338 1.391 . S
C1337 C1336 1.386 . S
C1337 C1341 1.393 . S
C1338 H1327 0.950 . S
C1338 C1336 1.391 . S
C1338 C1339 1.400 . S
C1339 C1333 1.491 . S
C1339 C1338 1.400 . S
C1339 C1340 1.398 . S
C1340 H1328 0.950 . S
C1340 C1339 1.398 . S
C1340 C1341 1.391 . S
C1341 H1329 0.950 . S
C1341 C1337 1.393 . S
C1341 C1340 1.391 . S
H1342 C1350 0.950 . S
H1343 C1355 0.950 . S
H1344 C1352 0.918 1_565 S
H1345 C1354 0.950 1_565 S
H1346 C1356 0.950 . S
H1347 C1358 0.950 . S
H1348 C1360 0.950 . S
H1349 C1361 0.950 . S
C1350 H1342 0.950 . S
C1350 C1351 1.386 . S
C1350 C1352 1.427 . S
C1351 C1350 1.386 . S
C1351 C1355 1.393 . S
C1352 H1344 0.918 1_545 S
C1352 C1350 1.427 . S
C1352 C1353 1.397 1_545 S
C1353 C1352 1.397 1_565 S
C1353 C1354 1.398 1_565 S
C1353 C1359 1.491 . S
C1354 H1345 0.950 1_545 S
C1354 C1353 1.398 1_545 S
C1354 C1355 1.391 . S
C1355 H1343 0.950 . S
C1355 C1351 1.393 . S
C1355 C1354 1.391 . S
C1356 H1346 0.950 . S
C1356 C1357 1.386 . S
C1356 C1358 1.391 . S
C1357 C1356 1.386 . S
C1357 C1361 1.393 . S
C1358 H1347 0.950 . S
C1358 C1356 1.391 . S
C1358 C1359 1.400 . S
C1359 C1353 1.491 . S
C1359 C1358 1.400 . S
C1359 C1360 1.398 . S
C1360 H1348 0.950 . S
C1360 C1359 1.398 . S
C1360 C1361 1.391 . S
C1361 H1349 0.950 . S
C1361 C1357 1.393 . S
C1361 C1360 1.391 . S
H1362 C1370 0.950 . S
H1363 C1375 0.950 . S
H1364 C1372 0.950 . S
H1365 C1374 0.950 . S
H1366 C1376 0.950 . S
H1367 C1378 0.950 . S
H1368 C1380 0.950 . S
H1369 C1381 0.950 . S
C1370 H1362 0.950 . S
C1370 C1371 1.386 . S
C1370 C1372 1.391 . S
C1371 C1370 1.386 . S
C1371 C1375 1.393 . S
C1372 H1364 0.950 . S
C1372 C1370 1.391 . S
C1372 C1373 1.400 . S
C1373 C1372 1.400 . S
C1373 C1374 1.398 . S
C1373 C1379 1.491 . S
C1374 H1365 0.950 . S
C1374 C1373 1.398 . S
C1374 C1375 1.391 . S
C1375 H1363 0.950 . S
C1375 C1371 1.393 . S
C1375 C1374 1.391 . S
C1376 H1366 0.950 . S
C1376 C1377 1.386 . S
C1376 C1378 1.391 . S
C1377 C1376 1.386 . S
C1377 C1381 1.393 . S
C1378 H1367 0.950 . S
C1378 C1376 1.391 . S
C1378 C1379 1.400 . S
C1379 C1373 1.491 . S
C1379 C1378 1.400 . S
C1379 C1380 1.398 . S
C1380 H1368 0.950 . S
C1380 C1379 1.398 . S
C1380 C1381 1.391 . S
C1381 H1369 0.950 . S
C1381 C1377 1.393 . S
C1381 C1380 1.391 . S
H1382 C1390 0.950 . S
H1383 C1395 0.950 . S
H1384 C1392 0.950 . S
H1385 C1394 0.950 . S
H1386 C1396 0.950 . S
H1387 C1398 0.950 . S
H1388 C1400 0.950 . S
H1389 C1401 0.950 . S
C1390 H1382 0.950 . S
C1390 C1391 1.386 . S
C1390 C1392 1.391 . S
C1391 C1390 1.386 . S
C1391 C1395 1.393 . S
C1392 H1384 0.950 . S
C1392 C1390 1.391 . S
C1392 C1393 1.400 . S
C1393 C1392 1.400 . S
C1393 C1394 1.398 . S
C1393 C1399 1.491 . S
C1394 H1385 0.950 . S
C1394 C1393 1.398 . S
C1394 C1395 1.391 . S
C1395 H1383 0.950 . S
C1395 C1391 1.393 . S
C1395 C1394 1.391 . S
C1396 H1386 0.950 . S
C1396 C1397 1.386 . S
C1396 C1398 1.391 . S
C1397 C1396 1.386 . S
C1397 C1401 1.393 . S
C1398 H1387 0.950 . S
C1398 C1396 1.391 . S
C1398 C1399 1.400 . S
C1399 C1393 1.491 . S
C1399 C1398 1.400 . S
C1399 C1400 1.398 . S
C1400 H1388 0.950 . S
C1400 C1399 1.398 . S
C1400 C1401 1.391 . S
C1401 H1389 0.950 . S
C1401 C1397 1.393 . S
C1401 C1400 1.391 . S
H1402 C1410 0.950 . S
H1403 C1415 0.950 . S
H1404 C1412 0.950 . S
H1405 C1414 0.950 . S
H1406 C1416 0.950 . S
H1407 C1418 0.950 . S
H1408 C1420 0.950 . S
H1409 C1421 0.950 . S
C1410 H1402 0.950 . S
C1410 C1411 1.386 . S
C1410 C1412 1.391 . S
C1411 C1410 1.386 . S
C1411 C1415 1.393 . S
C1412 H1404 0.950 . S
C1412 C1410 1.391 . S
C1412 C1413 1.400 . S
C1413 C1412 1.400 . S
C1413 C1414 1.398 . S
C1413 C1419 1.491 . S
C1414 H1405 0.950 . S
C1414 C1413 1.398 . S
C1414 C1415 1.391 . S
C1415 H1403 0.950 . S
C1415 C1411 1.393 . S
C1415 C1414 1.391 . S
C1416 H1406 0.950 . S
C1416 C1417 1.386 . S
C1416 C1418 1.391 . S
C1417 C1416 1.386 . S
C1417 C1421 1.393 . S
C1418 H1407 0.950 . S
C1418 C1416 1.391 . S
C1418 C1419 1.400 . S
C1419 C1413 1.491 . S
C1419 C1418 1.400 . S
C1419 C1420 1.398 . S
C1420 H1408 0.950 . S
C1420 C1419 1.398 . S
C1420 C1421 1.391 . S
C1421 H1409 0.950 . S
C1421 C1417 1.393 . S
C1421 C1420 1.391 . S
H1422 C1430 0.950 . S
H1423 C1435 0.950 . S
H1424 C1432 0.950 . S
H1425 C1434 0.950 . S
H1426 C1436 0.950 . S
H1427 C1438 0.950 . S
H1428 C1440 0.950 . S
H1429 C1441 0.950 . S
C1430 H1422 0.950 . S
C1430 C1431 1.386 . S
C1430 C1432 1.391 . S
C1431 C1430 1.386 . S
C1431 C1435 1.393 . S
C1432 H1424 0.950 . S
C1432 C1430 1.391 . S
C1432 C1433 1.400 . S
C1433 C1432 1.400 . S
C1433 C1434 1.398 . S
C1433 C1439 1.491 . S
C1434 H1425 0.950 . S
C1434 C1433 1.398 . S
C1434 C1435 1.391 . S
C1435 H1423 0.950 . S
C1435 C1431 1.393 . S
C1435 C1434 1.391 . S
C1436 H1426 0.950 . S
C1436 C1437 1.386 . S
C1436 C1438 1.391 . S
C1437 C1436 1.386 . S
C1437 C1441 1.393 . S
C1438 H1427 0.950 . S
C1438 C1436 1.391 . S
C1438 C1439 1.400 . S
C1439 C1433 1.491 . S
C1439 C1438 1.400 . S
C1439 C1440 1.398 . S
C1440 H1428 0.950 . S
C1440 C1439 1.398 . S
C1440 C1441 1.391 . S
C1441 H1429 0.950 . S
C1441 C1437 1.393 . S
C1441 C1440 1.391 . S
H1442 C1450 0.950 . S
H1443 C1455 0.950 . S
H1444 C1452 0.950 . S
H1445 C1454 0.950 . S
H1446 C1456 0.950 . S
H1447 C1458 0.950 . S
H1448 C1460 0.950 . S
H1449 C1461 0.950 . S
C1450 H1442 0.950 . S
C1450 C1451 1.386 . S
C1450 C1452 1.391 . S
C1451 C1450 1.386 . S
C1451 C1455 1.393 . S
C1452 H1444 0.950 . S
C1452 C1450 1.391 . S
C1452 C1453 1.400 . S
C1453 C1452 1.400 . S
C1453 C1454 1.398 . S
C1453 C1459 1.491 . S
C1454 H1445 0.950 . S
C1454 C1453 1.398 . S
C1454 C1455 1.391 . S
C1455 H1443 0.950 . S
C1455 C1451 1.393 . S
C1455 C1454 1.391 . S
C1456 H1446 0.950 . S
C1456 C1457 1.386 . S
C1456 C1458 1.391 . S
C1457 C1456 1.386 . S
C1457 C1461 1.393 . S
C1458 H1447 0.950 . S
C1458 C1456 1.391 . S
C1458 C1459 1.400 . S
C1459 C1453 1.491 . S
C1459 C1458 1.400 . S
C1459 C1460 1.398 . S
C1460 H1448 0.950 . S
C1460 C1459 1.398 . S
C1460 C1461 1.391 . S
C1461 H1449 0.950 . S
C1461 C1457 1.393 . S
C1461 C1460 1.391 . S
H1462 C1470 0.950 . S
H1463 C1475 0.950 . S
H1464 C1472 0.950 . S
H1465 C1474 0.950 . S
H1466 C1476 0.950 . S
H1467 C1478 0.950 . S
H1468 C1480 0.950 . S
H1469 C1481 0.950 . S
C1470 H1462 0.950 . S
C1470 C1471 1.386 . S
C1470 C1472 1.391 . S
C1471 C1470 1.386 . S
C1471 C1475 1.393 . S
C1472 H1464 0.950 . S
C1472 C1470 1.391 . S
C1472 C1473 1.400 . S
C1473 C1472 1.400 . S
C1473 C1474 1.398 . S
C1473 C1479 1.491 . S
C1474 H1465 0.950 . S
C1474 C1473 1.398 . S
C1474 C1475 1.391 . S
C1475 H1463 0.950 . S
C1475 C1471 1.393 . S
C1475 C1474 1.391 . S
C1476 H1466 0.950 . S
C1476 C1477 1.386 . S
C1476 C1478 1.391 . S
C1477 C1476 1.386 . S
C1477 C1481 1.393 . S
C1478 H1467 0.950 . S
C1478 C1476 1.391 . S
C1478 C1479 1.400 . S
C1479 C1473 1.491 . S
C1479 C1478 1.400 . S
C1479 C1480 1.398 . S
C1480 H1468 0.950 . S
C1480 C1479 1.398 . S
C1480 C1481 1.391 . S
C1481 H1469 0.950 . S
C1481 C1477 1.393 . S
C1481 C1480 1.391 . S
H1482 C1490 0.950 . S
H1483 C1495 0.950 . S
H1484 C1492 0.950 . S
H1485 C1494 0.950 . S
H1486 C1496 0.950 . S
H1487 C1498 0.950 . S
H1488 C1500 0.950 . S
H1489 C1501 0.950 . S
C1490 H1482 0.950 . S
C1490 C1491 1.386 . S
C1490 C1492 1.391 1_545 S
C1491 C1490 1.386 . S
C1491 C1495 1.393 . S
C1492 H1484 0.950 . S
C1492 C1490 1.391 1_565 S
C1492 C1493 1.400 . S
C1493 C1492 1.400 . S
C1493 C1494 1.398 . S
C1493 C1499 1.491 . S
C1494 H1485 0.950 . S
C1494 C1493 1.398 . S
C1494 C1495 1.391 1_565 S
C1495 H1483 0.950 . S
C1495 C1491 1.393 . S
C1495 C1494 1.391 1_545 S
C1496 H1486 0.950 . S
C1496 C1497 1.386 . S
C1496 C1498 1.391 . S
C1497 C1496 1.386 . S
C1497 C1501 1.393 . S
C1498 H1487 0.950 . S
C1498 C1496 1.391 . S
C1498 C1499 1.400 . S
C1499 C1493 1.491 . S
C1499 C1498 1.400 . S
C1499 C1500 1.398 . S
C1500 H1488 0.950 . S
C1500 C1499 1.398 . S
C1500 C1501 1.391 . S
C1501 H1489 0.950 . S
C1501 C1497 1.393 . S
C1501 C1500 1.391 . S
H1502 C1510 0.950 . S
H1503 C1515 0.950 . S
H1504 C1512 0.950 . S
H1505 C1514 0.950 . S
H1506 C1516 0.950 . S
H1507 C1518 0.950 . S
H1508 C1520 0.950 . S
H1509 C1521 0.950 . S
C1510 H1502 0.950 . S
C1510 C1511 1.386 . S
C1510 C1512 1.391 1_655 S
C1511 C1510 1.386 . S
C1511 C1515 1.393 1_655 S
C1512 H1504 0.950 . S
C1512 C1510 1.391 1_455 S
C1512 C1513 1.400 . S
C1513 C1512 1.400 . S
C1513 C1514 1.398 . S
C1513 C1519 1.491 . S
C1514 H1505 0.950 . S
C1514 C1513 1.398 . S
C1514 C1515 1.391 . S
C1515 H1503 0.950 . S
C1515 C1511 1.393 1_455 S
C1515 C1514 1.391 . S
C1516 H1506 0.950 . S
C1516 C1517 1.386 . S
C1516 C1518 1.391 . S
C1517 C1516 1.386 . S
C1517 C1521 1.393 . S
C1518 H1507 0.950 . S
C1518 C1516 1.391 . S
C1518 C1519 1.400 . S
C1519 C1513 1.491 . S
C1519 C1518 1.400 . S
C1519 C1520 1.398 . S
C1520 H1508 0.950 . S
C1520 C1519 1.398 . S
C1520 C1521 1.391 . S
C1521 H1509 0.950 . S
C1521 C1517 1.393 . S
C1521 C1520 1.391 . S
H1522 C1530 0.950 . S
H1523 C1535 0.950 . S
H1524 C1532 0.950 . S
H1525 C1534 0.950 . S
H1526 C1536 0.950 . S
H1527 C1538 0.950 . S
H1528 C1540 0.950 . S
H1529 C1541 0.950 . S
C1530 H1522 0.950 . S
C1530 C1531 1.386 . S
C1530 C1532 1.391 . S
C1531 C1530 1.386 . S
C1531 C1535 1.393 . S
C1532 H1524 0.950 . S
C1532 C1530 1.391 . S
C1532 C1533 1.400 . S
C1533 C1532 1.400 . S
C1533 C1534 1.398 . S
C1533 C1539 1.491 . S
C1534 H1525 0.950 . S
C1534 C1533 1.398 . S
C1534 C1535 1.391 . S
C1535 H1523 0.950 . S
C1535 C1531 1.393 . S
C1535 C1534 1.391 . S
C1536 H1526 0.950 . S
C1536 C1537 1.386 . S
C1536 C1538 1.391 . S
C1537 C1536 1.386 . S
C1537 C1541 1.393 . S
C1538 H1527 0.950 . S
C1538 C1536 1.391 . S
C1538 C1539 1.400 . S
C1539 C1533 1.491 . S
C1539 C1538 1.400 . S
C1539 C1540 1.398 . S
C1540 H1528 0.950 . S
C1540 C1539 1.398 . S
C1540 C1541 1.391 . S
C1541 H1529 0.950 . S
C1541 C1537 1.393 . S
C1541 C1540 1.391 . S
H1542 C1550 0.950 . S
H1543 C1555 0.950 . S
H1544 C1552 0.950 . S
H1545 C1554 0.950 . S
H1546 C1556 0.950 . S
H1547 C1558 0.950 . S
H1548 C1560 0.950 . S
H1549 C1561 0.950 . S
C1550 H1542 0.950 . S
C1550 C1551 1.386 . S
C1550 C1552 1.391 . S
C1551 C1550 1.386 . S
C1551 C1555 1.393 . S
C1552 H1544 0.950 . S
C1552 C1550 1.391 . S
C1552 C1553 1.400 . S
C1553 C1552 1.400 . S
C1553 C1554 1.398 . S
C1553 C1559 1.491 . S
C1554 H1545 0.950 . S
C1554 C1553 1.398 . S
C1554 C1555 1.391 . S
C1555 H1543 0.950 . S
C1555 C1551 1.393 . S
C1555 C1554 1.391 . S
C1556 H1546 0.950 . S
C1556 C1557 1.386 . S
C1556 C1558 1.391 . S
C1557 C1556 1.386 . S
C1557 C1561 1.393 . S
C1558 H1547 0.950 . S
C1558 C1556 1.391 . S
C1558 C1559 1.400 . S
C1559 C1553 1.491 . S
C1559 C1558 1.400 . S
C1559 C1560 1.398 . S
C1560 H1548 0.950 . S
C1560 C1559 1.398 . S
C1560 C1561 1.391 . S
C1561 H1549 0.950 . S
C1561 C1557 1.393 . S
C1561 C1560 1.391 . S
H1562 C1570 0.950 . S
H1563 C1575 0.950 . S
H1564 C1572 0.950 . S
H1565 C1574 0.950 . S
H1566 C1576 0.950 . S
H1567 C1578 0.950 . S
H1568 C1580 0.950 . S
H1569 C1581 0.950 . S
C1570 H1562 0.950 . S
C1570 C1571 1.386 . S
C1570 C1572 1.391 . S
C1571 C1570 1.386 . S
C1571 C1575 1.393 . S
C1572 H1564 0.950 . S
C1572 C1570 1.391 . S
C1572 C1573 1.400 . S
C1573 C1572 1.400 . S
C1573 C1574 1.398 . S
C1573 C1579 1.491 . S
C1574 H1565 0.950 . S
C1574 C1573 1.398 . S
C1574 C1575 1.391 . S
C1575 H1563 0.950 . S
C1575 C1571 1.393 . S
C1575 C1574 1.391 . S
C1576 H1566 0.950 . S
C1576 C1577 1.386 . S
C1576 C1578 1.391 . S
C1577 C1576 1.386 . S
C1577 C1581 1.393 . S
C1578 H1567 0.950 . S
C1578 C1576 1.391 . S
C1578 C1579 1.400 . S
C1579 C1573 1.491 . S
C1579 C1578 1.400 . S
C1579 C1580 1.398 . S
C1580 H1568 0.950 . S
C1580 C1579 1.398 . S
C1580 C1581 1.391 . S
C1581 H1569 0.950 . S
C1581 C1577 1.393 . S
C1581 C1580 1.391 . S
H1582 C1590 0.950 . S
H1583 C1595 0.950 . S
H1584 C1592 0.950 . S
H1585 C1594 0.950 . S
H1586 C1596 0.950 . S
H1587 C1598 0.950 . S
H1588 C1600 0.950 . S
H1589 C1601 0.950 . S
C1590 H1582 0.950 . S
C1590 C1591 1.386 . S
C1590 C1592 1.391 . S
C1591 C1590 1.386 . S
C1591 C1595 1.393 . S
C1592 H1584 0.950 . S
C1592 C1590 1.391 . S
C1592 C1593 1.400 . S
C1593 C1592 1.400 . S
C1593 C1594 1.398 . S
C1593 C1599 1.491 . S
C1594 H1585 0.950 . S
C1594 C1593 1.398 . S
C1594 C1595 1.391 . S
C1595 H1583 0.950 . S
C1595 C1591 1.393 . S
C1595 C1594 1.391 . S
C1596 H1586 0.950 . S
C1596 C1597 1.386 . S
C1596 C1598 1.391 . S
C1597 C1596 1.386 . S
C1597 C1601 1.393 . S
C1598 H1587 0.950 . S
C1598 C1596 1.391 . S
C1598 C1599 1.400 . S
C1599 C1593 1.491 . S
C1599 C1598 1.400 . S
C1599 C1600 1.398 . S
C1600 H1588 0.950 . S
C1600 C1599 1.398 . S
C1600 C1601 1.391 . S
C1601 H1589 0.950 . S
C1601 C1597 1.393 . S
C1601 C1600 1.391 . S
H1602 C1610 0.950 . S
H1603 C1615 0.950 . S
H1604 C1612 0.950 . S
H1605 C1614 0.950 . S
H1606 C1616 0.950 . S
H1607 C1618 0.950 . S
H1608 C1620 0.950 . S
H1609 C1621 0.950 . S
C1610 H1602 0.950 . S
C1610 C1611 1.386 . S
C1610 C1612 1.391 1_565 S
C1611 C1610 1.386 . S
C1611 C1615 1.393 . S
C1612 H1604 0.950 . S
C1612 C1610 1.391 1_545 S
C1612 C1613 1.400 . S
C1613 C1612 1.400 . S
C1613 C1614 1.401 . S
C1613 C1619 1.491 . S
C1614 H1605 0.950 . S
C1614 C1613 1.401 . S
C1614 C1615 1.388 1_545 S
C1615 H1603 0.950 . S
C1615 C1611 1.393 . S
C1615 C1614 1.388 1_565 S
C1616 H1606 0.950 . S
C1616 C1617 1.386 . S
C1616 C1618 1.391 . S
C1617 C1616 1.386 . S
C1617 C1621 1.393 . S
C1618 H1607 0.950 . S
C1618 C1616 1.391 . S
C1618 C1619 1.400 . S
C1619 C1613 1.491 . S
C1619 C1618 1.400 . S
C1619 C1620 1.398 . S
C1620 H1608 0.950 . S
C1620 C1619 1.398 . S
C1620 C1621 1.391 . S
C1621 H1609 0.950 . S
C1621 C1617 1.393 . S
C1621 C1620 1.391 . S
H1622 C1630 0.950 . S
H1623 C1635 0.950 . S
H1624 C1632 0.950 . S
H1625 C1634 0.950 . S
H1626 C1636 0.950 . S
H1627 C1638 0.950 . S
H1628 C1640 0.950 . S
H1629 C1641 0.950 . S
C1630 H1622 0.950 . S
C1630 C1631 1.386 . S
C1630 C1632 1.391 1_455 S
C1631 C1630 1.386 . S
C1631 C1635 1.393 1_455 S
C1632 H1624 0.950 . S
C1632 C1630 1.391 1_655 S
C1632 C1633 1.400 . S
C1633 C1632 1.400 . S
C1633 C1634 1.398 . S
C1633 C1639 1.491 . S
C1634 H1625 0.950 . S
C1634 C1633 1.398 . S
C1634 C1635 1.391 . S
C1635 H1623 0.950 . S
C1635 C1631 1.393 1_655 S
C1635 C1634 1.391 . S
C1636 H1626 0.950 . S
C1636 C1637 1.386 . S
C1636 C1638 1.391 . S
C1637 C1636 1.386 . S
C1637 C1641 1.393 . S
C1638 H1627 0.950 . S
C1638 C1636 1.391 . S
C1638 C1639 1.400 . S
C1639 C1633 1.491 . S
C1639 C1638 1.400 . S
C1639 C1640 1.398 . S
C1640 H1628 0.950 . S
C1640 C1639 1.398 . S
C1640 C1641 1.391 . S
C1641 H1629 0.950 . S
C1641 C1637 1.393 . S
C1641 C1640 1.391 . S
H1642 C1650 0.950 . S
H1643 C1655 0.950 . S
H1644 C1652 0.950 . S
H1645 C1654 0.950 . S
H1646 C1656 0.950 . S
H1647 C1658 0.950 . S
H1648 C1660 0.950 . S
H1649 C1661 0.950 . S
C1650 H1642 0.950 . S
C1650 C1651 1.386 . S
C1650 C1652 1.391 . S
C1651 C1650 1.386 . S
C1651 C1655 1.393 . S
C1652 H1644 0.950 . S
C1652 C1650 1.391 . S
C1652 C1653 1.400 . S
C1653 C1652 1.400 . S
C1653 C1654 1.398 . S
C1653 C1659 1.491 . S
C1654 H1645 0.950 . S
C1654 C1653 1.398 . S
C1654 C1655 1.391 . S
C1655 H1643 0.950 . S
C1655 C1651 1.393 . S
C1655 C1654 1.391 . S
C1656 H1646 0.950 . S
C1656 C1657 1.386 . S
C1656 C1658 1.391 . S
C1657 C1656 1.386 . S
C1657 C1661 1.393 . S
C1658 H1647 0.950 . S
C1658 C1656 1.391 . S
C1658 C1659 1.400 . S
C1659 C1653 1.491 . S
C1659 C1658 1.400 . S
C1659 C1660 1.398 . S
C1660 H1648 0.950 . S
C1660 C1659 1.398 . S
C1660 C1661 1.391 . S
C1661 H1649 0.950 . S
C1661 C1657 1.393 . S
C1661 C1660 1.391 . S
H1662 C1670 0.950 . S
H1663 C1675 0.950 . S
H1664 C1672 0.950 . S
H1665 C1674 0.950 . S
H1666 C1676 0.950 . S
H1667 C1678 0.950 . S
H1668 C1680 0.950 . S
H1669 C1681 0.950 . S
C1670 H1662 0.950 . S
C1670 C1671 1.386 . S
C1670 C1672 1.391 1_455 S
C1671 C1670 1.386 . S
C1671 C1675 1.393 . S
C1672 H1664 0.950 . S
C1672 C1670 1.391 1_655 S
C1672 C1673 1.400 . S
C1673 C1672 1.400 . S
C1673 C1674 1.398 . S
C1673 C1679 1.491 . S
C1674 H1665 0.950 . S
C1674 C1673 1.398 . S
C1674 C1675 1.391 1_655 S
C1675 H1663 0.950 . S
C1675 C1671 1.393 . S
C1675 C1674 1.391 1_455 S
C1676 H1666 0.950 . S
C1676 C1677 1.386 . S
C1676 C1678 1.391 . S
C1677 C1676 1.386 . S
C1677 C1681 1.393 . S
C1678 H1667 0.950 . S
C1678 C1676 1.391 . S
C1678 C1679 1.400 . S
C1679 C1673 1.491 . S
C1679 C1678 1.400 . S
C1679 C1680 1.398 . S
C1680 H1668 0.950 . S
C1680 C1679 1.398 . S
C1680 C1681 1.391 . S
C1681 H1669 0.950 . S
C1681 C1677 1.393 . S
C1681 C1680 1.391 . S
H1682 C1690 0.950 . S
H1683 C1695 0.950 . S
H1684 C1692 0.950 . S
H1685 C1694 0.950 . S
H1686 C1696 0.950 . S
H1687 C1698 0.950 . S
H1688 C1700 0.950 . S
H1689 C1701 0.950 . S
C1690 H1682 0.950 . S
C1690 C1691 1.386 . S
C1690 C1692 1.391 . S
C1691 C1690 1.386 . S
C1691 C1695 1.393 . S
C1692 H1684 0.950 . S
C1692 C1690 1.391 . S
C1692 C1693 1.400 . S
C1693 C1692 1.400 . S
C1693 C1694 1.398 . S
C1693 C1699 1.491 . S
C1694 H1685 0.950 . S
C1694 C1693 1.398 . S
C1694 C1695 1.391 . S
C1695 H1683 0.950 . S
C1695 C1691 1.393 . S
C1695 C1694 1.391 . S
C1696 H1686 0.950 . S
C1696 C1697 1.386 . S
C1696 C1698 1.391 . S
C1697 C1696 1.386 . S
C1697 C1701 1.393 . S
C1698 H1687 0.950 . S
C1698 C1696 1.391 . S
C1698 C1699 1.400 . S
C1699 C1693 1.491 . S
C1699 C1698 1.400 . S
C1699 C1700 1.398 . S
C1700 H1688 0.950 . S
C1700 C1699 1.398 . S
C1700 C1701 1.391 . S
C1701 H1689 0.950 . S
C1701 C1697 1.393 . S
C1701 C1700 1.391 . S
H1702 C1710 0.950 . S
H1703 C1715 0.950 . S
H1704 C1712 0.947 1_545 S
H1705 C1714 0.950 1_545 S
H1706 C1716 0.950 . S
H1707 C1718 0.950 . S
H1708 C1720 0.950 . S
H1709 C1721 0.950 . S
C1710 H1702 0.950 . S
C1710 C1711 1.386 . S
C1710 C1712 1.420 . S
C1711 C1710 1.386 . S
C1711 C1715 1.393 . S
C1712 H1704 0.947 1_565 S
C1712 C1710 1.420 . S
C1712 C1713 1.376 1_565 S
C1713 C1712 1.376 1_545 S
C1713 C1714 1.398 1_545 S
C1713 C1719 1.491 . S
C1714 H1705 0.950 1_565 S
C1714 C1713 1.398 1_565 S
C1714 C1715 1.391 . S
C1715 H1703 0.950 . S
C1715 C1711 1.393 . S
C1715 C1714 1.391 . S
C1716 H1706 0.950 . S
C1716 C1717 1.386 . S
C1716 C1718 1.391 . S
C1717 C1716 1.386 . S
C1717 C1721 1.393 . S
C1718 H1707 0.950 . S
C1718 C1716 1.391 . S
C1718 C1719 1.400 . S
C1719 C1713 1.491 . S
C1719 C1718 1.400 . S
C1719 C1720 1.398 . S
C1720 H1708 0.950 . S
C1720 C1719 1.398 . S
C1720 C1721 1.391 . S
C1721 H1709 0.950 . S
C1721 C1717 1.393 . S
C1721 C1720 1.391 . S
H1722 C1730 0.950 . S
H1723 C1735 0.950 . S
H1724 C1732 0.950 . S
H1725 C1734 0.950 . S
H1726 C1736 0.950 . S
H1727 C1738 0.950 . S
H1728 C1740 0.950 . S
H1729 C1741 0.950 . S
C1730 H1722 0.950 . S
C1730 C1731 1.386 . S
C1730 C1732 1.391 . S
C1731 C1730 1.386 . S
C1731 C1735 1.393 . S
C1732 H1724 0.950 . S
C1732 C1730 1.391 . S
C1732 C1733 1.400 . S
C1733 C1732 1.400 . S
C1733 C1734 1.398 . S
C1733 C1739 1.491 . S
C1734 H1725 0.950 . S
C1734 C1733 1.398 . S
C1734 C1735 1.391 . S
C1735 H1723 0.950 . S
C1735 C1731 1.393 . S
C1735 C1734 1.391 . S
C1736 H1726 0.950 . S
C1736 C1737 1.386 . S
C1736 C1738 1.391 . S
C1737 C1736 1.386 . S
C1737 C1741 1.393 . S
C1738 H1727 0.950 . S
C1738 C1736 1.391 . S
C1738 C1739 1.400 . S
C1739 C1733 1.491 . S
C1739 C1738 1.400 . S
C1739 C1740 1.398 . S
C1740 H1728 0.950 . S
C1740 C1739 1.398 . S
C1740 C1741 1.391 . S
C1741 H1729 0.950 . S
C1741 C1737 1.393 . S
C1741 C1740 1.391 . S
H1742 C1750 0.950 . S
H1743 C1755 0.950 . S
H1744 C1752 0.950 . S
H1745 C1754 0.950 . S
H1746 C1756 0.950 . S
H1747 C1758 0.950 . S
H1748 C1760 0.950 . S
H1749 C1761 0.950 . S
C1750 H1742 0.950 . S
C1750 C1751 1.386 . S
C1750 C1752 1.391 . S
C1751 C1750 1.386 . S
C1751 C1755 1.393 . S
C1752 H1744 0.950 . S
C1752 C1750 1.391 . S
C1752 C1753 1.400 . S
C1753 C1752 1.400 . S
C1753 C1754 1.398 . S
C1753 C1759 1.491 . S
C1754 H1745 0.950 . S
C1754 C1753 1.398 . S
C1754 C1755 1.391 . S
C1755 H1743 0.950 . S
C1755 C1751 1.393 . S
C1755 C1754 1.391 . S
C1756 H1746 0.950 . S
C1756 C1757 1.386 . S
C1756 C1758 1.391 . S
C1757 C1756 1.386 . S
C1757 C1761 1.393 . S
C1758 H1747 0.950 . S
C1758 C1756 1.391 . S
C1758 C1759 1.400 . S
C1759 C1753 1.491 . S
C1759 C1758 1.400 . S
C1759 C1760 1.398 . S
C1760 H1748 0.950 . S
C1760 C1759 1.398 . S
C1760 C1761 1.391 . S
C1761 H1749 0.950 . S
C1761 C1757 1.393 . S
C1761 C1760 1.391 . S
H1762 C1770 0.950 . S
H1763 C1775 0.950 . S
H1764 C1772 0.950 . S
H1765 C1774 0.950 . S
H1766 C1776 0.950 . S
H1767 C1778 0.950 . S
H1768 C1780 0.950 . S
H1769 C1781 0.950 . S
C1770 H1762 0.950 . S
C1770 C1771 1.386 . S
C1770 C1772 1.391 . S
C1771 C1770 1.386 . S
C1771 C1775 1.393 . S
C1772 H1764 0.950 . S
C1772 C1770 1.391 . S
C1772 C1773 1.400 . S
C1773 C1772 1.400 . S
C1773 C1774 1.398 . S
C1773 C1779 1.491 . S
C1774 H1765 0.950 . S
C1774 C1773 1.398 . S
C1774 C1775 1.391 . S
C1775 H1763 0.950 . S
C1775 C1771 1.393 . S
C1775 C1774 1.391 . S
C1776 H1766 0.950 . S
C1776 C1777 1.386 . S
C1776 C1778 1.391 . S
C1777 C1776 1.386 . S
C1777 C1781 1.393 . S
C1778 H1767 0.950 . S
C1778 C1776 1.391 . S
C1778 C1779 1.400 . S
C1779 C1773 1.491 . S
C1779 C1778 1.400 . S
C1779 C1780 1.398 . S
C1780 H1768 0.950 . S
C1780 C1779 1.398 . S
C1780 C1781 1.391 . S
C1781 H1769 0.950 . S
C1781 C1777 1.393 . S
C1781 C1780 1.391 . S
H1782 C1790 0.950 . S
H1783 C1795 0.950 . S
H1784 C1792 0.950 . S
H1785 C1794 0.950 1_545 S
H1786 C1796 0.950 . S
H1787 C1798 0.950 . S
H1788 C1800 0.950 . S
H1789 C1801 0.950 . S
C1790 H1782 0.950 . S
C1790 C1791 1.386 . S
C1790 C1792 1.391 . S
C1791 C1790 1.386 . S
C1791 C1795 1.393 . S
C1792 H1784 0.950 . S
C1792 C1790 1.391 . S
C1792 C1793 1.400 . S
C1793 C1792 1.400 . S
C1793 C1794 1.398 . S
C1793 C1799 1.491 . S
C1794 H1785 0.950 1_565 S
C1794 C1793 1.398 . S
C1794 C1795 1.391 . S
C1795 H1783 0.950 . S
C1795 C1791 1.393 . S
C1795 C1794 1.391 . S
C1796 H1786 0.950 . S
C1796 C1797 1.386 1_545 S
C1796 C1798 1.391 . S
C1797 C1796 1.386 1_565 S
C1797 C1801 1.393 . S
C1798 H1787 0.950 . S
C1798 C1796 1.391 . S
C1798 C1799 1.400 1_545 S
C1799 C1793 1.491 . S
C1799 C1798 1.400 1_565 S
C1799 C1800 1.398 . S
C1800 H1788 0.950 . S
C1800 C1799 1.398 . S
C1800 C1801 1.391 . S
C1801 H1789 0.950 . S
C1801 C1797 1.393 . S
C1801 C1800 1.391 . S
H1802 C1810 0.950 . S
H1803 C1815 0.950 . S
H1804 C1812 0.950 . S
H1805 C1814 0.950 . S
H1806 C1816 0.950 . S
H1807 C1818 0.950 . S
H1808 C1820 0.950 . S
H1809 C1821 0.950 . S
C1810 H1802 0.950 . S
C1810 C1811 1.386 . S
C1810 C1812 1.391 . S
C1811 C1810 1.386 . S
C1811 C1815 1.393 1_455 S
C1812 H1804 0.950 . S
C1812 C1810 1.391 . S
C1812 C1813 1.400 . S
C1813 C1812 1.400 . S
C1813 C1814 1.398 1_455 S
C1813 C1819 1.491 . S
C1814 H1805 0.950 . S
C1814 C1813 1.398 1_655 S
C1814 C1815 1.391 . S
C1815 H1803 0.950 . S
C1815 C1811 1.393 1_655 S
C1815 C1814 1.391 . S
C1816 H1806 0.950 . S
C1816 C1817 1.386 1_655 S
C1816 C1818 1.391 . S
C1817 C1816 1.386 1_455 S
C1817 C1821 1.393 . S
C1818 H1807 0.950 . S
C1818 C1816 1.391 . S
C1818 C1819 1.400 1_655 S
C1819 C1813 1.491 . S
C1819 C1818 1.400 1_455 S
C1819 C1820 1.398 . S
C1820 H1808 0.950 . S
C1820 C1819 1.398 . S
C1820 C1821 1.391 . S
C1821 H1809 0.950 . S
C1821 C1817 1.393 . S
C1821 C1820 1.391 . S
H1822 C1830 0.950 . S
H1823 C1835 0.950 . S
H1824 C1832 0.950 . S
H1825 C1834 0.950 . S
H1826 C1836 0.950 . S
H1827 C1838 0.950 . S
H1828 C1840 0.950 . S
H1829 C1841 0.950 . S
C1830 H1822 0.950 . S
C1830 C1831 1.386 . S
C1830 C1832 1.391 . S
C1831 C1830 1.386 . S
C1831 C1835 1.393 . S
C1832 H1824 0.950 . S
C1832 C1830 1.391 . S
C1832 C1833 1.400 . S
C1833 C1832 1.400 . S
C1833 C1834 1.398 . S
C1833 C1839 1.491 . S
C1834 H1825 0.950 . S
C1834 C1833 1.398 . S
C1834 C1835 1.391 . S
C1835 H1823 0.950 . S
C1835 C1831 1.393 . S
C1835 C1834 1.391 . S
C1836 H1826 0.950 . S
C1836 C1837 1.386 . S
C1836 C1838 1.391 . S
C1837 C1836 1.386 . S
C1837 C1841 1.393 . S
C1838 H1827 0.950 . S
C1838 C1836 1.391 . S
C1838 C1839 1.400 . S
C1839 C1833 1.491 . S
C1839 C1838 1.400 . S
C1839 C1840 1.398 . S
C1840 H1828 0.950 . S
C1840 C1839 1.398 . S
C1840 C1841 1.391 . S
C1841 H1829 0.950 . S
C1841 C1837 1.393 . S
C1841 C1840 1.391 . S
H1842 C1850 0.950 . S
H1843 C1855 0.950 . S
H1844 C1852 0.950 . S
H1845 C1854 0.950 . S
H1846 C1856 0.950 . S
H1847 C1858 0.950 . S
H1848 C1860 0.950 . S
H1849 C1861 0.950 . S
C1850 H1842 0.950 . S
C1850 C1851 1.386 . S
C1850 C1852 1.391 . S
C1851 C1850 1.386 . S
C1851 C1855 1.393 . S
C1852 H1844 0.950 . S
C1852 C1850 1.391 . S
C1852 C1853 1.400 . S
C1853 C1852 1.400 . S
C1853 C1854 1.398 . S
C1853 C1859 1.491 . S
C1854 H1845 0.950 . S
C1854 C1853 1.398 . S
C1854 C1855 1.391 . S
C1855 H1843 0.950 . S
C1855 C1851 1.393 . S
C1855 C1854 1.391 . S
C1856 H1846 0.950 . S
C1856 C1857 1.386 . S
C1856 C1858 1.391 . S
C1857 C1856 1.386 . S
C1857 C1861 1.393 . S
C1858 H1847 0.950 . S
C1858 C1856 1.391 . S
C1858 C1859 1.400 . S
C1859 C1853 1.491 . S
C1859 C1858 1.400 . S
C1859 C1860 1.398 . S
C1860 H1848 0.950 . S
C1860 C1859 1.398 . S
C1860 C1861 1.391 . S
C1861 H1849 0.950 . S
C1861 C1857 1.393 . S
C1861 C1860 1.391 . S
H1862 C1870 0.950 . S
H1863 C1875 0.950 . S
H1864 C1872 0.950 . S
H1865 C1874 0.950 . S
H1866 C1876 0.950 . S
H1867 C1878 0.950 . S
H1868 C1880 0.950 . S
H1869 C1881 0.950 . S
C1870 H1862 0.950 . S
C1870 C1871 1.386 . S
C1870 C1872 1.391 . S
C1871 C1870 1.386 . S
C1871 C1875 1.393 . S
C1872 H1864 0.950 . S
C1872 C1870 1.391 . S
C1872 C1873 1.400 . S
C1873 C1872 1.400 . S
C1873 C1874 1.398 . S
C1873 C1879 1.491 . S
C1874 H1865 0.950 . S
C1874 C1873 1.398 . S
C1874 C1875 1.391 . S
C1875 H1863 0.950 . S
C1875 C1871 1.393 . S
C1875 C1874 1.391 . S
C1876 H1866 0.950 . S
C1876 C1877 1.386 . S
C1876 C1878 1.391 . S
C1877 C1876 1.386 . S
C1877 C1881 1.393 . S
C1878 H1867 0.950 . S
C1878 C1876 1.391 . S
C1878 C1879 1.400 . S
C1879 C1873 1.491 . S
C1879 C1878 1.400 . S
C1879 C1880 1.398 . S
C1880 H1868 0.950 . S
C1880 C1879 1.398 . S
C1880 C1881 1.391 . S
C1881 H1869 0.950 . S
C1881 C1877 1.393 . S
C1881 C1880 1.391 . S
H1882 C1890 0.950 . S
H1883 C1895 0.950 . S
H1884 C1892 0.950 . S
H1885 C1894 0.950 . S
H1886 C1896 0.989 . S
H1887 C1898 0.950 1_565 S
H1888 C1900 0.950 . S
H1889 C1901 0.950 . S
C1890 H1882 0.950 . S
C1890 C1891 1.386 . S
C1890 C1892 1.391 . S
C1891 C1890 1.386 . S
C1891 C1895 1.393 . S
C1892 H1884 0.950 . S
C1892 C1890 1.391 . S
C1892 C1893 1.400 . S
C1893 C1892 1.400 . S
C1893 C1894 1.398 . S
C1893 C1899 1.491 . S
C1894 H1885 0.950 . S
C1894 C1893 1.398 . S
C1894 C1895 1.391 . S
C1895 H1883 0.950 . S
C1895 C1891 1.393 . S
C1895 C1894 1.391 . S
C1896 H1886 0.989 . S
C1896 C1897 1.358 1_565 S
C1896 C1898 1.381 1_565 S
C1897 C1896 1.358 1_545 S
C1897 C1901 1.393 . S
C1898 H1887 0.950 1_545 S
C1898 C1896 1.381 1_545 S
C1898 C1899 1.400 . S
C1899 C1893 1.491 . S
C1899 C1898 1.400 . S
C1899 C1900 1.398 . S
C1900 H1888 0.950 . S
C1900 C1899 1.398 . S
C1900 C1901 1.391 . S
C1901 H1889 0.950 . S
C1901 C1897 1.393 . S
C1901 C1900 1.391 . S
H1902 C1910 0.950 . S
H1903 C1915 0.950 . S
H1904 C1912 0.950 . S
H1905 C1914 0.950 . S
H1906 C1916 0.950 . S
H1907 C1918 0.950 . S
H1908 C1920 0.950 . S
H1909 C1921 0.950 . S
C1910 H1902 0.950 . S
C1910 C1911 1.386 . S
C1910 C1912 1.391 . S
C1911 C1910 1.386 . S
C1911 C1915 1.393 . S
C1912 H1904 0.950 . S
C1912 C1910 1.391 . S
C1912 C1913 1.400 . S
C1913 C1912 1.400 . S
C1913 C1914 1.398 . S
C1913 C1919 1.491 . S
C1914 H1905 0.950 . S
C1914 C1913 1.398 . S
C1914 C1915 1.391 . S
C1915 H1903 0.950 . S
C1915 C1911 1.393 . S
C1915 C1914 1.391 . S
C1916 H1906 0.950 . S
C1916 C1917 1.386 . S
C1916 C1918 1.391 . S
C1917 C1916 1.386 . S
C1917 C1921 1.393 . S
C1918 H1907 0.950 . S
C1918 C1916 1.391 . S
C1918 C1919 1.400 . S
C1919 C1913 1.491 . S
C1919 C1918 1.400 . S
C1919 C1920 1.398 . S
C1920 H1908 0.950 . S
C1920 C1919 1.398 . S
C1920 C1921 1.391 . S
C1921 H1909 0.950 . S
C1921 C1917 1.393 . S
C1921 C1920 1.391 . S
H1922 C1930 0.950 . S
H1923 C1935 0.950 . S
H1924 C1932 0.950 . S
H1925 C1934 0.950 . S
H1926 C1936 0.950 . S
H1927 C1938 0.950 . S
H1928 C1940 0.950 . S
H1929 C1941 0.950 . S
C1930 H1922 0.950 . S
C1930 C1931 1.386 . S
C1930 C1932 1.391 . S
C1931 C1930 1.386 . S
C1931 C1935 1.393 . S
C1932 H1924 0.950 . S
C1932 C1930 1.391 . S
C1932 C1933 1.400 . S
C1933 C1932 1.400 . S
C1933 C1934 1.398 . S
C1933 C1939 1.491 . S
C1934 H1925 0.950 . S
C1934 C1933 1.398 . S
C1934 C1935 1.391 . S
C1935 H1923 0.950 . S
C1935 C1931 1.393 . S
C1935 C1934 1.391 . S
C1936 H1926 0.950 . S
C1936 C1937 1.386 . S
C1936 C1938 1.391 . S
C1937 C1936 1.386 . S
C1937 C1941 1.393 . S
C1938 H1927 0.950 . S
C1938 C1936 1.391 . S
C1938 C1939 1.400 . S
C1939 C1933 1.491 . S
C1939 C1938 1.400 . S
C1939 C1940 1.398 . S
C1940 H1928 0.950 . S
C1940 C1939 1.398 . S
C1940 C1941 1.391 . S
C1941 H1929 0.950 . S
C1941 C1937 1.393 . S
C1941 C1940 1.391 . S
H1942 C1950 0.950 . S
H1943 C1955 0.950 . S
H1944 C1952 0.950 . S
H1945 C1954 0.950 . S
H1946 C1956 0.950 . S
H1947 C1958 0.950 . S
H1948 C1960 0.950 . S
H1949 C1961 0.950 . S
C1950 H1942 0.950 . S
C1950 C1951 1.386 . S
C1950 C1952 1.391 . S
C1951 C1950 1.386 . S
C1951 C1955 1.393 . S
C1952 H1944 0.950 . S
C1952 C1950 1.391 . S
C1952 C1953 1.400 . S
C1953 C1952 1.400 . S
C1953 C1954 1.398 . S
C1953 C1959 1.491 . S
C1954 H1945 0.950 . S
C1954 C1953 1.398 . S
C1954 C1955 1.391 . S
C1955 H1943 0.950 . S
C1955 C1951 1.393 . S
C1955 C1954 1.391 . S
C1956 H1946 0.950 . S
C1956 C1957 1.386 . S
C1956 C1958 1.391 . S
C1957 C1956 1.386 . S
C1957 C1961 1.393 . S
C1958 H1947 0.950 . S
C1958 C1956 1.391 . S
C1958 C1959 1.400 . S
C1959 C1953 1.491 . S
C1959 C1958 1.400 . S
C1959 C1960 1.398 . S
C1960 H1948 0.950 . S
C1960 C1959 1.398 . S
C1960 C1961 1.391 . S
C1961 H1949 0.950 . S
C1961 C1957 1.393 . S
C1961 C1960 1.391 . S
H1962 C1970 0.950 . S
H1963 C1975 0.950 . S
H1964 C1972 0.950 . S
H1965 C1974 0.950 . S
H1966 C1976 0.950 . S
H1967 C1978 0.950 . S
H1968 C1980 0.950 . S
H1969 C1981 0.950 . S
C1970 H1962 0.950 . S
C1970 C1971 1.386 . S
C1970 C1972 1.391 . S
C1971 C1970 1.386 . S
C1971 C1975 1.393 . S
C1972 H1964 0.950 . S
C1972 C1970 1.391 . S
C1972 C1973 1.400 . S
C1973 C1972 1.400 . S
C1973 C1974 1.398 . S
C1973 C1979 1.491 . S
C1974 H1965 0.950 . S
C1974 C1973 1.398 . S
C1974 C1975 1.391 . S
C1975 H1963 0.950 . S
C1975 C1971 1.393 . S
C1975 C1974 1.391 . S
C1976 H1966 0.950 . S
C1976 C1977 1.386 . S
C1976 C1978 1.391 . S
C1977 C1976 1.386 . S
C1977 C1981 1.393 . S
C1978 H1967 0.950 . S
C1978 C1976 1.391 . S
C1978 C1979 1.400 . S
C1979 C1973 1.491 . S
C1979 C1978 1.400 . S
C1979 C1980 1.398 . S
C1980 H1968 0.950 . S
C1980 C1979 1.398 . S
C1980 C1981 1.391 . S
C1981 H1969 0.950 . S
C1981 C1977 1.393 . S
C1981 C1980 1.391 . S
H1982 C1990 0.950 . S
H1983 C1995 0.950 . S
H1984 C1992 0.950 . S
H1985 C1994 0.950 . S
H1986 C1996 0.950 . S
H1987 C1998 0.950 . S
H1988 C2000 0.950 . S
H1989 C2001 0.950 . S
C1990 H1982 0.950 . S
C1990 C1991 1.386 . S
C1990 C1992 1.391 . S
C1991 C1990 1.386 . S
C1991 C1995 1.393 . S
C1992 H1984 0.950 . S
C1992 C1990 1.391 . S
C1992 C1993 1.400 . S
C1993 C1992 1.400 . S
C1993 C1994 1.398 . S
C1993 C1999 1.491 . S
C1994 H1985 0.950 . S
C1994 C1993 1.398 . S
C1994 C1995 1.391 . S
C1995 H1983 0.950 . S
C1995 C1991 1.393 . S
C1995 C1994 1.391 . S
C1996 H1986 0.950 . S
C1996 C1997 1.386 . S
C1996 C1998 1.391 . S
C1997 C1996 1.386 . S
C1997 C2001 1.393 . S
C1998 H1987 0.950 . S
C1998 C1996 1.391 . S
C1998 C1999 1.400 . S
C1999 C1993 1.491 . S
C1999 C1998 1.400 . S
C1999 C2000 1.398 . S
C2000 H1988 0.950 . S
C2000 C1999 1.398 . S
C2000 C2001 1.391 . S
C2001 H1989 0.950 . S
C2001 C1997 1.393 . S
C2001 C2000 1.391 . S
H2002 C2010 0.950 . S
H2003 C2015 0.950 . S
H2004 C2012 0.950 . S
H2005 C2014 0.950 . S
H2006 C2016 0.950 . S
H2007 C2018 0.950 . S
H2008 C2020 0.950 . S
H2009 C2021 0.950 . S
C2010 H2002 0.950 . S
C2010 C2011 1.386 . S
C2010 C2012 1.391 . S
C2011 C2010 1.386 . S
C2011 C2015 1.393 . S
C2012 H2004 0.950 . S
C2012 C2010 1.391 . S
C2012 C2013 1.400 . S
C2013 C2012 1.400 . S
C2013 C2014 1.398 . S
C2013 C2019 1.491 . S
C2014 H2005 0.950 . S
C2014 C2013 1.398 . S
C2014 C2015 1.391 . S
C2015 H2003 0.950 . S
C2015 C2011 1.393 . S
C2015 C2014 1.391 . S
C2016 H2006 0.950 . S
C2016 C2017 1.386 . S
C2016 C2018 1.391 . S
C2017 C2016 1.386 . S
C2017 C2021 1.393 . S
C2018 H2007 0.950 . S
C2018 C2016 1.391 . S
C2018 C2019 1.400 . S
C2019 C2013 1.491 . S
C2019 C2018 1.400 . S
C2019 C2020 1.398 . S
C2020 H2008 0.950 . S
C2020 C2019 1.398 . S
C2020 C2021 1.391 . S
C2021 H2009 0.950 . S
C2021 C2017 1.393 . S
C2021 C2020 1.391 . S
H2022 C2030 0.950 . S
H2023 C2035 0.950 . S
H2024 C2032 0.950 . S
H2025 C2034 0.950 . S
H2026 C2036 0.950 . S
H2027 C2038 0.950 . S
H2028 C2040 0.950 . S
H2029 C2041 0.950 . S
C2030 H2022 0.950 . S
C2030 C2031 1.386 . S
C2030 C2032 1.391 . S
C2031 C2030 1.386 . S
C2031 C2035 1.393 . S
C2032 H2024 0.950 . S
C2032 C2030 1.391 . S
C2032 C2033 1.400 . S
C2033 C2032 1.400 . S
C2033 C2034 1.398 . S
C2033 C2039 1.491 . S
C2034 H2025 0.950 . S
C2034 C2033 1.398 . S
C2034 C2035 1.391 . S
C2035 H2023 0.950 . S
C2035 C2031 1.393 . S
C2035 C2034 1.391 . S
C2036 H2026 0.950 . S
C2036 C2037 1.386 . S
C2036 C2038 1.391 . S
C2037 C2036 1.386 . S
C2037 C2041 1.393 . S
C2038 H2027 0.950 . S
C2038 C2036 1.391 . S
C2038 C2039 1.400 . S
C2039 C2033 1.491 . S
C2039 C2038 1.400 . S
C2039 C2040 1.398 . S
C2040 H2028 0.950 . S
C2040 C2039 1.398 . S
C2040 C2041 1.391 . S
C2041 H2029 0.950 . S
C2041 C2037 1.393 . S
C2041 C2040 1.391 . S
H2042 C2050 0.950 . S
H2043 C2055 0.950 . S
H2044 C2052 0.950 . S
H2045 C2054 0.950 . S
H2046 C2056 0.950 . S
H2047 C2058 0.950 . S
H2048 C2060 0.950 . S
H2049 C2061 0.950 . S
C2050 H2042 0.950 . S
C2050 C2051 1.386 . S
C2050 C2052 1.391 . S
C2051 C2050 1.386 . S
C2051 C2055 1.393 . S
C2052 H2044 0.950 . S
C2052 C2050 1.391 . S
C2052 C2053 1.400 . S
C2053 C2052 1.400 . S
C2053 C2054 1.398 . S
C2053 C2059 1.491 . S
C2054 H2045 0.950 . S
C2054 C2053 1.398 . S
C2054 C2055 1.391 . S
C2055 H2043 0.950 . S
C2055 C2051 1.393 . S
C2055 C2054 1.391 . S
C2056 H2046 0.950 . S
C2056 C2057 1.386 . S
C2056 C2058 1.391 . S
C2057 C2056 1.386 . S
C2057 C2061 1.393 . S
C2058 H2047 0.950 . S
C2058 C2056 1.391 . S
C2058 C2059 1.400 . S
C2059 C2053 1.491 . S
C2059 C2058 1.400 . S
C2059 C2060 1.398 . S
C2060 H2048 0.950 . S
C2060 C2059 1.398 . S
C2060 C2061 1.391 . S
C2061 H2049 0.950 . S
C2061 C2057 1.393 . S
C2061 C2060 1.391 . S
H2062 C2070 0.950 . S
H2063 C2075 0.950 . S
H2064 C2072 0.950 . S
H2065 C2074 0.950 . S
H2066 C2076 0.950 . S
H2067 C2078 0.950 . S
H2068 C2080 0.950 . S
H2069 C2081 0.950 . S
C2070 H2062 0.950 . S
C2070 C2071 1.386 . S
C2070 C2072 1.391 . S
C2071 C2070 1.386 . S
C2071 C2075 1.393 . S
C2072 H2064 0.950 . S
C2072 C2070 1.391 . S
C2072 C2073 1.400 . S
C2073 C2072 1.400 . S
C2073 C2074 1.398 . S
C2073 C2079 1.491 . S
C2074 H2065 0.950 . S
C2074 C2073 1.398 . S
C2074 C2075 1.391 . S
C2075 H2063 0.950 . S
C2075 C2071 1.393 . S
C2075 C2074 1.391 . S
C2076 H2066 0.950 . S
C2076 C2077 1.386 . S
C2076 C2078 1.391 . S
C2077 C2076 1.386 . S
C2077 C2081 1.393 . S
C2078 H2067 0.950 . S
C2078 C2076 1.391 . S
C2078 C2079 1.400 . S
C2079 C2073 1.491 . S
C2079 C2078 1.400 . S
C2079 C2080 1.398 . S
C2080 H2068 0.950 . S
C2080 C2079 1.398 . S
C2080 C2081 1.391 . S
C2081 H2069 0.950 . S
C2081 C2077 1.393 . S
C2081 C2080 1.391 . S
H2082 C2090 0.950 . S
H2083 C2095 0.950 . S
H2084 C2092 0.950 . S
H2085 C2094 0.950 . S
H2086 C2096 0.950 . S
H2087 C2098 0.950 . S
H2088 C2100 0.950 . S
H2089 C2101 0.950 . S
C2090 H2082 0.950 . S
C2090 C2091 1.386 . S
C2090 C2092 1.391 . S
C2091 C2090 1.386 . S
C2091 C2095 1.393 . S
C2092 H2084 0.950 . S
C2092 C2090 1.391 . S
C2092 C2093 1.400 . S
C2093 C2092 1.400 . S
C2093 C2094 1.398 . S
C2093 C2099 1.491 . S
C2094 H2085 0.950 . S
C2094 C2093 1.398 . S
C2094 C2095 1.391 . S
C2095 H2083 0.950 . S
C2095 C2091 1.393 . S
C2095 C2094 1.391 . S
C2096 H2086 0.950 . S
C2096 C2097 1.386 . S
C2096 C2098 1.391 . S
C2097 C2096 1.386 . S
C2097 C2101 1.393 . S
C2098 H2087 0.950 . S
C2098 C2096 1.391 . S
C2098 C2099 1.400 . S
C2099 C2093 1.491 . S
C2099 C2098 1.400 . S
C2099 C2100 1.398 . S
C2100 H2088 0.950 . S
C2100 C2099 1.398 . S
C2100 C2101 1.391 . S
C2101 H2089 0.950 . S
C2101 C2097 1.393 . S
C2101 C2100 1.391 . S
H2102 C2110 0.950 . S
H2103 C2115 0.950 . S
H2104 C2112 0.950 . S
H2105 C2114 0.950 . S
H2106 C2116 0.950 . S
H2107 C2118 0.950 . S
H2108 C2120 0.950 . S
H2109 C2121 0.950 . S
C2110 H2102 0.950 . S
C2110 C2111 1.386 . S
C2110 C2112 1.391 . S
C2111 C2110 1.386 . S
C2111 C2115 1.393 . S
C2112 H2104 0.950 . S
C2112 C2110 1.391 . S
C2112 C2113 1.400 . S
C2113 C2112 1.400 . S
C2113 C2114 1.398 . S
C2113 C2119 1.491 . S
C2114 H2105 0.950 . S
C2114 C2113 1.398 . S
C2114 C2115 1.391 . S
C2115 H2103 0.950 . S
C2115 C2111 1.393 . S
C2115 C2114 1.391 . S
C2116 H2106 0.950 . S
C2116 C2117 1.386 . S
C2116 C2118 1.391 . S
C2117 C2116 1.386 . S
C2117 C2121 1.393 . S
C2118 H2107 0.950 . S
C2118 C2116 1.391 . S
C2118 C2119 1.400 . S
C2119 C2113 1.491 . S
C2119 C2118 1.400 . S
C2119 C2120 1.398 . S
C2120 H2108 0.950 . S
C2120 C2119 1.398 . S
C2120 C2121 1.391 . S
C2121 H2109 0.950 . S
C2121 C2117 1.393 . S
C2121 C2120 1.391 . S
H2122 C2130 0.950 . S
H2123 C2135 0.950 . S
H2124 C2132 0.950 . S
H2125 C2134 0.950 . S
H2126 C2136 0.950 . S
H2127 C2138 0.950 . S
H2128 C2140 0.950 . S
H2129 C2141 0.950 . S
C2130 H2122 0.950 . S
C2130 C2131 1.386 . S
C2130 C2132 1.391 . S
C2131 C2130 1.386 . S
C2131 C2135 1.393 . S
C2132 H2124 0.950 . S
C2132 C2130 1.391 . S
C2132 C2133 1.400 . S
C2133 C2132 1.400 . S
C2133 C2134 1.398 . S
C2133 C2139 1.491 . S
C2134 H2125 0.950 . S
C2134 C2133 1.398 . S
C2134 C2135 1.391 . S
C2135 H2123 0.950 . S
C2135 C2131 1.393 . S
C2135 C2134 1.391 . S
C2136 H2126 0.950 . S
C2136 C2137 1.386 . S
C2136 C2138 1.391 . S
C2137 C2136 1.386 . S
C2137 C2141 1.393 . S
C2138 H2127 0.950 . S
C2138 C2136 1.391 . S
C2138 C2139 1.400 . S
C2139 C2133 1.491 . S
C2139 C2138 1.400 . S
C2139 C2140 1.398 . S
C2140 H2128 0.950 . S
C2140 C2139 1.398 . S
C2140 C2141 1.391 . S
C2141 H2129 0.950 . S
C2141 C2137 1.393 . S
C2141 C2140 1.391 . S
C1071 C528 1.661 . S
C1077 C711 1.639 . S
C1091 C562 1.797 . S
C1097 C751 1.769 . S
C1111 C484 1.730 . S
C1117 C790 1.738 . S
C1131 C445 1.575 . S
C1137 C750 1.573 . S
C1157 C791 1.462 . S
C1151 C367 1.483 . S
C1171 C411 1.412 . S
C1177 C710 1.423 1_556 S
C1197 C721 1.643 . S
C1191 C450 1.654 . S
C1217 C761 1.763 . S
C1211 C372 1.781 . S
C1231 C406 1.737 . S
C1237 C800 1.756 . S
C1251 C523 1.563 . S
C1257 C760 1.552 . S
C1271 C567 1.469 . S
C1277 C801 1.461 . S
C1297 C720 1.462 . S
C1291 C489 1.422 . S
C1317 C831 1.639 . S
C1311 C60 1.662 . S
C1331 C94 1.797 . S
C1337 C871 1.769 . S
C1351 C16 1.729 . S
C1357 C910 1.743 . S
C1371 C679 1.581 . S
C1377 C870 1.564 . S
C1391 C601 1.495 . S
C1397 C911 1.481 . S
C1411 C645 1.404 . S
C1417 C830 1.427 . S
C1431 C684 1.668 . S
C1437 C841 1.658 . S
C1451 C606 1.772 . S
C1457 C881 1.751 . S
C1477 C920 1.739 . S
C1471 C640 1.727 . S
C1491 C55 1.575 . S
C1497 C880 1.572 . S
C1517 C921 1.446 . S
C1511 C99 1.456 . S
C1531 C21 1.424 . S
C1537 C840 1.462 . S
C1557 C951 1.619 . S
C1551 C294 1.647 . S
C1571 C328 1.797 . S
C1577 C991 1.768 . S
C1597 C1030 1.754 . S
C1591 C250 1.750 . S
C1617 C990 1.571 . S
C1611 C211 1.569 . S
C1637 C1031 1.472 . S
C1631 C133 1.491 . S
C1651 C177 1.419 . S
C1657 C950 1.425 . S
C1671 C216 1.664 . S
C1677 C961 1.653 . S
C1691 C138 1.783 . S
C1697 C1001 1.766 . S
C1717 C1040 1.738 . S
C1711 C172 1.736 . S
C1731 C289 1.573 . S
C1737 C1000 1.573 . S
C1751 C333 1.463 . S
C1757 C1041 1.455 . S
C1771 C255 1.411 . S
C1777 C960 1.456 . S
C1791 C586 1.340 . S
C1797 C707 1.333 . S
C1817 C747 1.854 . S
C1811 C625 1.843 . S
C1831 C664 1.569 . S
C1837 C797 1.583 . S
C1851 C235 1.841 . S
C1857 C757 1.865 . S
C1871 C274 1.556 . S
C1877 C787 1.570 . S
C1897 C717 1.332 . S
C1891 C313 1.340 . S
C1911 C118 1.337 . S
C1917 C827 1.340 . S
C1931 C157 1.835 . S
C1937 C867 1.853 . S
C1951 C196 1.576 . S
C1957 C917 1.585 . S
C1971 C469 1.841 . S
C1977 C877 1.865 . S
C1997 C907 1.570 . S
C1991 C508 1.564 . S
C2011 C547 1.335 . S
C2017 C837 1.336 . S
C2031 C352 1.343 . S
C2037 C947 1.331 . S
C2051 C391 1.847 . S
C2057 C987 1.860 . S
C2077 C1037 1.583 . S
C2071 C430 1.566 . S
C2091 C1 1.854 . S
C2097 C997 1.872 . S
C2111 C40 1.556 . S
C2117 C1027 1.569 . S
C2131 C79 1.340 . S
C2137 C957 1.333 . S
