# Generated by pormake.
# Topology pyr, (3,6)-cn, num edge types: 1
# Building blocks:
#     Node 0, Type 0, BuildingBlock: QEWDON_clean_linker_0, # of connection points: 3
#     Node 1, Type 0, BuildingBlock: QEWDON_clean_linker_0, # of connection points: 3
#     Node 2, Type 0, BuildingBlock: QEWDON_clean_linker_0, # of connection points: 3
#     Node 3, Type 0, BuildingBlock: QEWDON_clean_linker_0, # of connection points: 3
#     Node 4, Type 0, BuildingBlock: QEWDON_clean_linker_0, # of connection points: 3
#     Node 5, Type 0, BuildingBlock: QEWDON_clean_linker_0, # of connection points: 3
#     Node 6, Type 0, BuildingBlock: QEWDON_clean_linker_0, # of connection points: 3
#     Node 7, Type 0, BuildingBlock: QEWDON_clean_linker_0, # of connection points: 3
#     Node 8, Type 1, BuildingBlock: PAMTOO_clean_sbu_0, # of connection points: 6
#     Node 9, Type 1, BuildingBlock: PAMTOO_clean_sbu_0, # of connection points: 6
#     Node 10, Type 1, BuildingBlock: PAMTOO_clean_sbu_0, # of connection points: 6
#     Node 11, Type 1, BuildingBlock: PAMTOO_clean_sbu_0, # of connection points: 6
#     Edge 12, Type (0, 1), BuildingBlock: CIFDUS_clean_linker_0, # of connection points: 2
#     Edge 13, Type (0, 1), BuildingBlock: CIFDUS_clean_linker_0, # of connection points: 2
#     Edge 14, Type (0, 1), BuildingBlock: CIFDUS_clean_linker_0, # of connection points: 2
#     Edge 15, Type (0, 1), BuildingBlock: CIFDUS_clean_linker_0, # of connection points: 2
#     Edge 16, Type (0, 1), BuildingBlock: CIFDUS_clean_linker_0, # of connection points: 2
#     Edge 17, Type (0, 1), BuildingBlock: CIFDUS_clean_linker_0, # of connection points: 2
#     Edge 18, Type (0, 1), BuildingBlock: CIFDUS_clean_linker_0, # of connection points: 2
#     Edge 19, Type (0, 1), BuildingBlock: CIFDUS_clean_linker_0, # of connection points: 2
#     Edge 20, Type (0, 1), BuildingBlock: CIFDUS_clean_linker_0, # of connection points: 2
#     Edge 21, Type (0, 1), BuildingBlock: CIFDUS_clean_linker_0, # of connection points: 2
#     Edge 22, Type (0, 1), BuildingBlock: CIFDUS_clean_linker_0, # of connection points: 2
#     Edge 23, Type (0, 1), BuildingBlock: CIFDUS_clean_linker_0, # of connection points: 2
#     Edge 24, Type (0, 1), BuildingBlock: CIFDUS_clean_linker_0, # of connection points: 2
#     Edge 25, Type (0, 1), BuildingBlock: CIFDUS_clean_linker_0, # of connection points: 2
#     Edge 26, Type (0, 1), BuildingBlock: CIFDUS_clean_linker_0, # of connection points: 2
#     Edge 27, Type (0, 1), BuildingBlock: CIFDUS_clean_linker_0, # of connection points: 2
#     Edge 28, Type (0, 1), BuildingBlock: CIFDUS_clean_linker_0, # of connection points: 2
#     Edge 29, Type (0, 1), BuildingBlock: CIFDUS_clean_linker_0, # of connection points: 2
#     Edge 30, Type (0, 1), BuildingBlock: CIFDUS_clean_linker_0, # of connection points: 2
#     Edge 31, Type (0, 1), BuildingBlock: CIFDUS_clean_linker_0, # of connection points: 2
#     Edge 32, Type (0, 1), BuildingBlock: CIFDUS_clean_linker_0, # of connection points: 2
#     Edge 33, Type (0, 1), BuildingBlock: CIFDUS_clean_linker_0, # of connection points: 2
#     Edge 34, Type (0, 1), BuildingBlock: CIFDUS_clean_linker_0, # of connection points: 2
#     Edge 35, Type (0, 1), BuildingBlock: CIFDUS_clean_linker_0, # of connection points: 2
# Relax obj value: 0.166
# Max RMSD: 0.247
# Mean RMSD: 0.179
data_MOF--net-pyr--node1-PAMTOO_clean_sbu_0--node2-QEWDON_clean_linker_0--edge1-CIFDUS_clean_linker_0
_symmetry_space_group_name_H-M    P1
_symmetry_Int_Tables_number       1
_symmetry_cell_setting            triclinic
loop_
_symmetry_equiv_pos_as_xyz
'x, y, z'
_cell_length_a     32.982424
_cell_length_b     35.569178
_cell_length_c     37.131675
_cell_angle_alpha  90.62522
_cell_angle_beta   90.215899
_cell_angle_gamma 114.5563
loop_
_atom_site_label
_atom_site_type_symbol
_atom_site_fract_x
_atom_site_fract_y
_atom_site_fract_z
_atom_type_partial_charge
H0 H 0.43627 0.3442 0.20093 0.0
C1 C 0.41611 0.32727 0.22326 0.0
C2 C 0.4127 0.28743 0.23087 0.0
C3 C 0.39226 0.34475 0.24345 0.0
H4 H 0.38182 0.23426 0.26466 0.0
C5 C 0.38586 0.26556 0.25954 0.0
C6 C 0.36212 0.28282 0.28023 0.0
C7 C 0.3657 0.32253 0.27201 0.0
C8 C 0.39297 0.38523 0.23353 0.0
H9 H 0.34796 0.33643 0.28797 0.0
C10 C 0.35269 0.38942 0.22928 0.0
C11 C 0.35251 0.42732 0.21911 0.0
C12 C 0.43345 0.41944 0.22758 0.0
H13 H 0.4649 0.41694 0.23077 0.0
C14 C 0.4336 0.45732 0.21789 0.0
H15 H 0.32139 0.36266 0.23272 0.0
C16 C 0.39347 0.46134 0.21364 0.0
H17 H 0.39452 0.4911 0.20626 0.0
H18 H 0.46494 0.48368 0.21361 0.0
H19 H 0.14802 0.83187 0.77996 0.0
C20 C 0.17373 0.8231 0.7699 0.0
C21 C 0.21194 0.83145 0.79096 0.0
C22 C 0.16851 0.80349 0.73604 0.0
H23 H 0.27524 0.82742 0.7939 0.0
C24 C 0.24527 0.82022 0.77795 0.0
C25 C 0.24103 0.80117 0.744 0.0
C26 C 0.20221 0.79227 0.7234 0.0
C27 C 0.12904 0.79676 0.71311 0.0
H28 H 0.19923 0.77846 0.6968 0.0
C29 C 0.11417 0.82834 0.70934 0.0
C30 C 0.07801 0.82311 0.68644 0.0
C31 C 0.10673 0.75928 0.6942 0.0
H32 H 0.11723 0.73434 0.69682 0.0
C33 C 0.07042 0.75355 0.67191 0.0
H34 H 0.13129 0.85728 0.72391 0.0
C35 C 0.05622 0.7852 0.66785 0.0
H36 H 0.02883 0.78023 0.6495 0.0
H37 H 0.05349 0.7246 0.65736 0.0
H38 H 0.70628 0.49255 0.90859 0.0
C39 C 0.69234 0.45966 0.91356 0.0
C40 C 0.71414 0.44323 0.93763 0.0
C41 C 0.6505 0.43426 0.89817 0.0
H42 H 0.7094 0.38757 0.96361 0.0
C43 C 0.6933 0.4006 0.94532 0.0
C44 C 0.65105 0.37479 0.93114 0.0
C45 C 0.63063 0.39196 0.9069 0.0
C46 C 0.62249 0.45251 0.87981 0.0
H47 H 0.59805 0.37277 0.89572 0.0
C48 C 0.63355 0.47365 0.84647 0.0
C49 C 0.60426 0.48916 0.83071 0.0
C50 C 0.58252 0.44754 0.89669 0.0
H51 H 0.5733 0.43175 0.92217 0.0
C52 C 0.55404 0.46283 0.88127 0.0
H53 H 0.66418 0.47781 0.83302 0.0
C54 C 0.56473 0.4834 0.84866 0.0
H55 H 0.54182 0.49488 0.83725 0.0
H56 H 0.52342 0.4587 0.89469 0.0
H57 H 0.92261 0.80437 0.37705 0.0
C58 C 0.89649 0.78802 0.39602 0.0
C59 C 0.89508 0.8069 0.42944 0.0
C60 C 0.8618 0.74954 0.38603 0.0
H61 H 0.85912 0.80133 0.47863 0.0
C62 C 0.8597 0.78663 0.45302 0.0
C63 C 0.82456 0.74875 0.4437 0.0
C64 C 0.82646 0.73014 0.41042 0.0
C65 C 0.85649 0.73295 0.34811 0.0
H66 H 0.79886 0.70157 0.40231 0.0
C67 C 0.88811 0.72166 0.33035 0.0
C68 C 0.87825 0.70248 0.29555 0.0
C69 C 0.81667 0.7266 0.32986 0.0
H70 H 0.79219 0.73543 0.34232 0.0
C71 C 0.80751 0.70867 0.29562 0.0
H72 H 0.91904 0.72634 0.34385 0.0
C73 C 0.8377 0.69643 0.27876 0.0
H74 H 0.82952 0.68254 0.25208 0.0
H75 H 0.77659 0.70399 0.28212 0.0
H76 H 0.68559 0.76914 0.97094 0.0
C77 C 0.69894 0.78952 0.94832 0.0
C78 C 0.73802 0.79183 0.93175 0.0
C79 C 0.6778 0.81428 0.93627 0.0
H80 H 0.78654 0.82118 0.89081 0.0
C81 C 0.756 0.8191 0.90328 0.0
C82 C 0.73597 0.84466 0.89151 0.0
C83 C 0.69647 0.84168 0.90774 0.0
C84 C 0.63739 0.81308 0.95441 0.0
H85 H 0.68073 0.86129 0.89865 0.0
C86 C 0.63419 0.85015 0.96367 0.0
C87 C 0.59592 0.8497 0.98043 0.0
C88 C 0.60188 0.77523 0.96239 0.0
H89 H 0.60347 0.74624 0.95539 0.0
C90 C 0.5636 0.77457 0.9789 0.0
H91 H 0.66162 0.87947 0.95783 0.0
C92 C 0.56049 0.81154 0.9878 0.0
H93 H 0.53071 0.81029 1.00097 0.0
H94 H 0.53627 0.7453 0.98484 0.0
H95 H 0.92907 0.32811 0.49315 0.0
C96 C 0.91234 0.31282 0.46849 0.0
C97 C 0.91627 0.27687 0.4565 0.0
C98 C 0.88593 0.32847 0.44947 0.0
H99 H 0.89543 0.22841 0.41608 0.0
C100 C 0.89399 0.25701 0.4248 0.0
C101 C 0.86779 0.27239 0.40529 0.0
C102 C 0.86391 0.30814 0.4178 0.0
C103 C 0.88048 0.36542 0.46324 0.0
H104 H 0.84423 0.32051 0.40257 0.0
C105 C 0.83813 0.36619 0.46357 0.0
C106 C 0.8326 0.40079 0.47728 0.0
C107 C 0.91743 0.39983 0.47669 0.0
H108 H 0.95045 0.40025 0.47648 0.0
C109 C 0.91219 0.43424 0.49026 0.0
H110 H 0.80942 0.33974 0.45337 0.0
C111 C 0.87015 0.43478 0.49066 0.0
H112 H 0.86694 0.4616 0.50199 0.0
H113 H 0.94082 0.46054 0.50068 0.0
H114 H 0.45438 0.81198 0.26844 0.0
C115 C 0.42102 0.79321 0.25849 0.0
C116 C 0.40145 0.80926 0.23239 0.0
C117 C 0.39863 0.75227 0.27082 0.0
H118 H 0.34657 0.79415 0.19577 0.0
C119 C 0.35944 0.7831 0.21815 0.0
C120 C 0.33562 0.74232 0.23028 0.0
C121 C 0.35555 0.72759 0.25732 0.0
C122 C 0.42431 0.7324 0.29019 0.0
H123 H 0.33889 0.69618 0.26668 0.0
C124 C 0.41596 0.71822 0.32626 0.0
C125 C 0.4404 0.69747 0.34183 0.0
C126 C 0.4572 0.72595 0.27054 0.0
H127 H 0.46408 0.73626 0.24297 0.0
C128 C 0.48092 0.7055 0.28571 0.0
H129 H 0.39083 0.7231 0.34186 0.0
C130 C 0.47254 0.69127 0.32087 0.0
H131 H 0.49198 0.67592 0.33203 0.0
H132 H 0.506 0.70063 0.27008 0.0
H133 H 0.20418 0.47382 0.77149 0.0
C134 C 0.19367 0.44146 0.7645 0.0
C135 C 0.21885 0.42954 0.73983 0.0
C136 C 0.15362 0.41174 0.77879 0.0
H137 H 0.2207 0.3788 0.709 0.0
C138 C 0.20317 0.38759 0.72974 0.0
C139 C 0.16427 0.35705 0.74422 0.0
C140 C 0.13951 0.36961 0.76866 0.0
C141 C 0.12207 0.42491 0.79849 0.0
H142 H 0.10864 0.34684 0.7793 0.0
C143 C 0.13193 0.44616 0.83234 0.0
C144 C 0.10023 0.45823 0.8489 0.0
C145 C 0.08064 0.41599 0.782 0.0
H146 H 0.07228 0.40001 0.75617 0.0
C147 C 0.04974 0.42793 0.79812 0.0
H148 H 0.16364 0.45313 0.84554 0.0
C149 C 0.05939 0.44885 0.83111 0.0
H150 H 0.03437 0.45728 0.84311 0.0
H151 H 0.01802 0.42086 0.78494 0.0
Dy152 Dy 0.08396 0.0951 0.57318 0.0
Dy153 Dy 0.9812 0.06232 0.60195 0.0
C154 C 0.05837 0.13692 0.643 0.0
O155 O 0.0814 0.06238 0.62436 0.0
O156 O 0.00793 0.01776 0.62172 0.0
O157 O 0.14713 0.14472 0.56059 0.0
O158 O 0.1389 0.0812 0.55611 0.0
O159 O 0.97822 0.04194 0.54452 0.0
O160 O 0.04368 0.03497 0.54387 0.0
O161 O 0.997 0.12148 0.574 0.0
O162 O 0.05027 0.12127 0.53471 0.0
O163 O 0.91619 1.01151 0.60585 0.0
O164 O 0.92622 0.07299 0.6235 0.0
C165 C 0.04895 0.02694 0.63248 0.0
O166 O 0.08417 0.14156 0.61487 0.0
O167 O 0.02092 0.10374 0.64698 0.0
C168 C 0.1899 0.12984 0.51722 0.0
C169 C 0.23898 0.15627 0.45348 0.0
C170 C 0.26091 0.1605 0.48684 0.0
C171 C 0.23653 0.14738 0.51841 0.0
C172 C 0.16766 0.12442 0.48403 0.0
C173 C 0.19204 0.13747 0.45234 0.0
C174 C 0.16527 0.11991 0.55105 0.0
C175 C 1.00288 0.0241 0.53158 0.0
C176 C 0.02076 0.13505 0.54492 0.0
C177 C 0.87207 0.01621 0.65382 0.0
C178 C 0.82178 0.97833 0.71478 0.0
C179 C 0.80786 0.9612 0.6802 0.0
C180 C 0.83275 0.98008 0.65001 0.0
C181 C 0.88559 0.03403 0.68817 0.0
C182 C 0.86051 0.01536 0.71836 0.0
C183 C 0.89875 0.03405 0.62174 0.0
H184 H 0.29694 0.17537 0.48877 0.0
H185 H 0.25411 0.15196 0.54393 0.0
H186 H 0.13156 0.11092 0.48276 0.0
H187 H 0.17418 0.13335 0.42703 0.0
H188 H 0.77861 0.93241 0.67652 0.0
H189 H 0.82182 0.96592 0.62368 0.0
H190 H 0.91582 0.06201 0.6918 0.0
H191 H 0.87178 0.02965 0.74457 0.0
Dy192 Dy 0.4742 0.08063 0.0628 0.0
Dy193 Dy 0.57278 0.10375 0.10134 0.0
C194 C 0.48611 0.0255 0.12762 0.0
O195 O 0.48929 0.13716 0.09578 0.0
O196 O 0.53408 0.1269 0.13816 0.0
O197 O 0.40261 0.05993 0.06737 0.0
O198 O 0.43449 0.07428 1.01527 0.0
O199 O 0.5872 0.1517 0.05902 0.0
O200 O 0.5196 0.13438 0.03033 0.0
O201 O 0.57324 0.0693 0.05104 0.0
O202 O 0.49771 0.03401 0.04282 0.0
O203 O 0.63601 0.15124 0.11823 0.0
O204 O 0.62167 0.08688 0.12711 0.0
C205 C 0.50832 0.14472 0.12763 0.0
O206 O 0.46076 0.04153 0.11247 0.0
O207 O 0.52941 0.04134 0.12269 0.0
C208 C 0.36381 0.01994 1.01682 0.0
C209 C 0.30678 0.95226 0.97453 0.0
C210 C 0.34769 0.95395 0.98749 0.0
C211 C 0.37582 0.98739 1.00859 0.0
C212 C 0.32198 0.01727 1.00604 0.0
C213 C 0.2935 0.98354 0.98525 0.0
C214 C 0.39685 0.0586 0.0325 0.0
C215 C 0.56234 0.1581 0.03425 0.0
C216 C 0.53861 0.03829 0.03718 0.0
C217 C 0.67032 0.13689 0.16812 0.0
C218 C 0.71102 0.16625 0.23556 0.0
C219 C 0.73608 0.17711 0.20376 0.0
C220 C 0.7159 0.16245 0.17041 0.0
C221 C 0.64498 0.12553 0.19962 0.0
C222 C 0.66526 0.14001 0.23318 0.0
C223 C 0.64974 0.12524 0.13237 0.0
H224 H 0.35941 0.93083 0.97955 0.0
H225 H 0.40808 0.98899 1.01675 0.0
H226 H 0.31217 0.04212 1.01232 0.0
H227 H 0.26186 0.9828 0.97639 0.0
H228 H 0.77111 0.19795 0.20447 0.0
H229 H 0.73574 0.17192 0.14624 0.0
H230 H 0.60954 0.10607 0.19821 0.0
H231 H 0.64512 0.13082 0.25719 0.0
Dy232 Dy 0.50884 0.53647 0.56186 0.0
Dy233 Dy 0.52214 0.62321 0.60328 0.0
C234 C 0.56115 0.56098 0.63765 0.0
O235 O 0.45863 0.51823 0.60565 0.0
O236 O 0.45085 0.57881 0.61325 0.0
O237 O 0.4984 0.47228 0.56264 0.0
O238 O 0.50433 0.50308 0.51192 0.0
O239 O 0.49993 0.6279 0.54679 0.0
O240 O 0.46354 0.55911 0.53276 0.0
O241 O 0.59034 0.63788 0.58055 0.0
O242 O 0.57068 0.58455 0.53904 0.0
O243 O 0.53352 0.68761 0.60209 0.0
O244 O 0.52153 0.65565 0.65269 0.0
C245 C 0.43756 0.53913 0.61945 0.0
O246 O 0.55852 0.54368 0.60574 0.0
O247 O 0.54535 0.58897 0.6433 0.0
C248 C 0.54355 0.46206 0.51862 0.0
C249 C 0.61919 0.44986 0.49774 0.0
C250 C 0.62356 0.4832 0.52037 0.0
C251 C 0.58613 0.48909 0.53081 0.0
C252 C 0.53869 0.42828 0.49641 0.0
C253 C 0.57638 0.42199 0.48623 0.0
C254 C 0.50547 0.47127 0.52821 0.0
C255 C 0.47288 0.59804 0.52572 0.0
C256 C 0.59965 0.6197 0.55262 0.0
C257 C 0.48887 0.70211 0.64465 0.0
C258 C 0.41758 0.72177 0.66514 0.0
C259 C 0.41414 0.69746 0.63416 0.0
C260 C 0.44935 0.68755 0.62412 0.0
C261 C 0.49285 0.72689 0.67517 0.0
C262 C 0.45754 0.73665 0.68537 0.0
C263 C 0.52429 0.68862 0.63608 0.0
H264 H 0.65603 0.50475 0.53012 0.0
H265 H 0.59049 0.51518 0.54816 0.0
H266 H 0.50602 0.40719 0.48669 0.0
H267 H 0.57224 0.39602 0.46878 0.0
H268 H 0.38416 0.68592 0.61769 0.0
H269 H 0.44542 0.66793 0.60064 0.0
H270 H 0.52286 0.73789 0.69161 0.0
H271 H 0.46112 0.75488 0.70969 0.0
Dy272 Dy 0.02864 0.63369 0.06724 0.0
Dy273 Dy 0.01972 0.54733 0.1048 0.0
C274 C 0.9834 0.60729 0.14498 0.0
O275 O 0.09799 0.64755 0.08538 0.0
O276 O 0.08143 0.59761 0.12833 0.0
O277 O 0.0429 0.69857 0.07217 0.0
O278 O 0.0246 0.66749 1.02043 0.0
O279 O 0.06072 0.55127 0.05524 0.0
O280 O 0.0462 0.59937 1.02354 0.0
O281 O 0.95755 0.52774 0.07117 0.0
O282 O 0.95679 0.5908 0.05842 0.0
O283 O 0.00914 0.48318 0.1024 0.0
O284 O 0.02302 0.51598 0.15352 0.0
C285 C 0.10885 0.63252 0.11414 0.0
O286 O 0.00995 0.63752 0.12486 0.0
O287 O 0.9751 0.56857 0.13703 0.0
C288 C 0.9952 0.71517 0.0345 0.0
C289 C 0.92206 0.73411 1.02034 0.0
C290 C 0.92403 0.71432 0.05237 0.0
C291 C 0.96018 0.7046 0.05928 0.0
C292 C 0.99398 0.7361 1.00311 0.0
C293 C 0.95764 0.74546 0.99603 0.0
C294 C 0.03032 0.70044 0.03919 0.0
C295 C 0.06104 0.57035 1.02499 0.0
C296 C 0.93803 0.55015 0.05768 0.0
C297 C 0.05827 0.47134 0.14307 0.0
C298 C 0.1367 0.45994 0.157 0.0
C299 C 0.12085 0.45824 0.12153 0.0
C300 C 0.0822 0.46402 0.11461 0.0
C301 C 0.07288 0.47112 0.1786 0.0
C302 C 0.11176 0.46562 0.18552 0.0
C303 C 0.02109 0.48333 0.13596 0.0
H304 H 0.89688 0.70504 0.07139 0.0
H305 H 0.96013 0.68775 0.08343 0.0
H306 H 0.0205 0.74412 0.98358 0.0
H307 H 0.95709 0.76116 0.97132 0.0
H308 H 0.13871 0.45305 0.09898 0.0
H309 H 0.07191 0.46393 0.08686 0.0
H310 H 0.05512 0.47679 0.20101 0.0
H311 H 0.12314 0.46744 0.21314 0.0
H312 H 0.37804 0.23406 0.32936 0.0
H313 H 0.2794 0.27778 0.29717 0.0
H314 H 0.2321 0.24131 0.34707 0.0
H315 H 0.22004 0.19939 0.40113 0.0
H316 H 0.31706 0.15333 0.43223 0.0
H317 H 0.36348 0.18802 0.38114 0.0
C318 C 0.34593 0.23516 0.33294 0.0
C319 C 0.33259 0.25904 0.30974 0.0
C320 C 0.3186 0.21375 0.36149 0.0
C321 C 0.29102 0.26042 0.31506 0.0
C322 C 0.26374 0.23931 0.34344 0.0
C323 C 0.2509 0.19623 0.39638 0.0
C324 C 0.26509 0.17391 0.42057 0.0
C325 C 0.27738 0.2162 0.36699 0.0
C326 C 0.30563 0.1708 0.4143 0.0
C327 C 0.33213 0.19052 0.38504 0.0
H328 H 0.23568 0.8117 0.85571 0.0
H329 H 0.20493 0.90403 0.80266 0.0
H330 H 0.22716 0.94801 0.85669 0.0
H331 H 0.26363 0.96343 0.9158 0.0
H332 H 0.29294 0.87062 0.96992 0.0
H333 H 0.26316 0.82363 0.91847 0.0
C334 C 0.23338 0.84125 0.85627 0.0
C335 C 0.21914 0.85489 0.82531 0.0
C336 C 0.24639 0.8664 0.88734 0.0
C337 C 0.21568 0.89292 0.8263 0.0
C338 C 0.22863 0.91814 0.85707 0.0
C339 C 0.26236 0.93253 0.91698 0.0
C340 C 0.28117 0.92092 0.94661 0.0
C341 C 0.24511 0.90563 0.88739 0.0
C342 C 0.27965 0.88079 0.94717 0.0
C343 C 0.26249 0.85382 0.9178 0.0
H344 H 0.60061 0.4591 0.76181 0.0
H345 H 0.62266 0.57 0.82224 0.0
H346 H 0.61418 0.60357 0.7674 0.0
H347 H 0.5909 0.59841 0.70359 0.0
H348 H 0.56976 0.48789 0.64249 0.0
H349 H 0.58759 0.45759 0.69564 0.0
C350 C 0.60525 0.49112 0.76264 0.0
C351 C 0.61288 0.51218 0.7961 0.0
C352 C 0.59942 0.51011 0.73084 0.0
C353 C 0.61754 0.55335 0.79681 0.0
C354 C 0.61211 0.5724 0.76547 0.0
C355 C 0.59084 0.56794 0.70171 0.0
C356 C 0.57849 0.54548 0.66891 0.0
C357 C 0.60149 0.55063 0.73252 0.0
C358 C 0.57906 0.5061 0.66717 0.0
C359 C 0.58915 0.48857 0.69772 0.0
H360 H 0.86006 0.62569 0.26856 0.0
H361 H 0.96403 0.74913 0.27429 0.0
H362 H 1.00653 0.73051 0.22868 0.0
H363 H 0.01058 0.68065 0.1829 0.0
H364 H 0.90686 0.55667 0.17877 0.0
H365 H 0.86789 0.57393 0.22769 0.0
C366 C 0.89256 0.64824 0.26044 0.0
C367 C 0.90891 0.68879 0.27502 0.0
C368 C 0.91647 0.63736 0.23389 0.0
C369 C 0.95094 0.71765 0.264 0.0
C370 C 0.97496 0.70709 0.23753 0.0
C371 C 0.97957 0.6573 0.19284 0.0
C372 C 0.96152 0.6174 0.17667 0.0
C373 C 0.9575 0.66733 0.22154 0.0
C374 C 0.9216 0.58753 0.19043 0.0
C375 C 0.89922 0.59744 0.21847 0.0
H376 H 0.4584 0.24193 0.2504 0.0
H377 H 0.41361 0.28682 0.15764 0.0
H378 H 0.44228 0.24891 0.11775 0.0
H379 H 0.47515 0.1996 0.1092 0.0
H380 H 0.51942 0.15299 0.20111 0.0
H381 H 0.49596 0.19513 0.24142 0.0
C382 C 0.45511 0.24346 0.22144 0.0
C383 C 0.43384 0.26712 0.20702 0.0
C384 C 0.47129 0.22116 0.19857 0.0
C385 C 0.43029 0.26928 0.16944 0.0
C386 C 0.44636 0.24735 0.1466 0.0
C387 C 0.47986 0.19868 0.13806 0.0
C388 C 0.49844 0.17278 0.15218 0.0
C389 C 0.4662 0.2227 0.16089 0.0
C390 C 0.50505 0.17258 0.18957 0.0
C391 C 0.49149 0.19654 0.21261 0.0
H392 H 0.13169 0.90551 0.68221 0.0
H393 H 0.99339 0.81868 0.67748 0.0
H394 H 0.97173 0.8746 0.66299 0.0
H395 H 0.99257 0.94746 0.64801 0.0
H396 H 0.13092 0.03406 0.65455 0.0
H397 H 0.15163 0.97901 0.67335 0.0
C398 C 0.09667 0.89875 0.67887 0.0
C399 C 0.06435 0.85767 0.68066 0.0
C400 C 0.08434 0.9311 0.67097 0.0
C401 C 0.01919 0.84977 0.67552 0.0
C402 C 1.00669 0.88181 0.66749 0.0
C403 C 0.02718 0.95448 0.65407 0.0
C404 C 0.06012 0.99487 0.64949 0.0
C405 C 0.03907 0.92251 0.66456 0.0
C406 C 0.10479 1.0033 0.65763 0.0
C407 C 0.11677 0.97175 0.66825 0.0
H408 H 0.7427 0.43486 1.00579 0.0
H409 H 0.78365 0.51386 0.91301 0.0
H410 H 0.8543 0.55595 0.94318 0.0
H411 H 0.90686 0.56815 0.99479 0.0
H412 H 0.86861 0.48284 0.08295 0.0
H413 H 0.79523 0.44472 0.05516 0.0
C414 C 0.76716 0.46057 0.99142 0.0
C415 C 0.75729 0.4703 0.95652 0.0
C416 C 0.80866 0.48358 1.00821 0.0
C417 C 0.78947 0.50535 0.9398 0.0
C418 C 0.83029 0.52938 0.95698 0.0
C419 C 0.88223 0.54137 1.00795 0.0
C420 C 0.89303 0.52846 0.04106 0.0
C421 C 0.84051 0.51854 0.99104 0.0
C422 C 0.86113 0.49335 0.05753 0.0
C423 C 0.81916 0.47158 0.04163 0.0
H424 H 0.77314 0.6671 0.45853 0.0
H425 H 0.78446 0.79018 0.48221 0.0
H426 H 0.71922 0.76204 0.52057 0.0
H427 H 0.65589 0.70199 0.54559 0.0
H428 H 0.64226 0.57913 0.51828 0.0
H429 H 0.71056 0.60746 0.48354 0.0
C430 C 0.7613 0.68783 0.4719 0.0
C431 C 0.78441 0.73084 0.46748 0.0
C432 C 0.72292 0.6714 0.49352 0.0
C433 C 0.76836 0.75701 0.48551 0.0
C434 C 0.73062 0.74091 0.50736 0.0
C435 C 0.66826 0.68152 0.53243 0.0
C436 C 0.64384 0.63844 0.53472 0.0
C437 C 0.70738 0.69811 0.51149 0.0
C438 C 0.66015 0.61238 0.517 0.0
C439 C 0.69931 0.62857 0.49697 0.0
H440 H 0.3313 0.4673 0.16515 0.0
H441 H 0.27701 0.39476 0.25983 0.0
H442 H 0.20538 0.39771 0.24867 0.0
H443 H 0.15785 0.42012 0.21154 0.0
H444 H 0.21347 0.4952 0.11837 0.0
H445 H 0.28475 0.49184 0.12942 0.0
C446 C 0.30402 0.45262 0.18365 0.0
C447 C 0.30959 0.43081 0.21325 0.0
C448 C 0.26299 0.45459 0.1772 0.0
C449 C 0.27353 0.41133 0.23657 0.0
C450 C 0.23258 0.41313 0.2303 0.0
C451 C 0.18565 0.43607 0.19383 0.0
C452 C 0.18004 0.45759 0.16401 0.0
C453 C 0.22687 0.43453 0.2006 0.0
C454 C 0.21642 0.47766 0.14111 0.0
C455 C 0.25739 0.47608 0.14757 0.0
H456 H 0.68529 0.31898 0.95057 0.0
H457 H 0.56111 0.33225 0.94361 0.0
H458 H 0.52222 0.26498 0.97105 0.0
H459 H 0.52397 0.20451 1.00213 0.0
H460 H 0.64947 0.19507 1.01451 0.0
H461 H 0.68702 0.25867 0.98081 0.0
C462 C 0.64977 0.30752 0.95517 0.0
C463 C 0.62662 0.3314 0.94478 0.0
C464 C 0.62763 0.26929 0.97246 0.0
C465 C 0.58019 0.31482 0.95043 0.0
C466 C 0.55778 0.27631 0.96665 0.0
C467 C 0.55942 0.21608 0.99702 0.0
C468 C 0.58377 0.19486 1.01086 0.0
C469 C 0.58122 0.25354 0.97839 0.0
C470 C 0.62985 0.21073 1.00435 0.0
C471 C 0.65142 0.24719 0.98504 0.0
H472 H 0.8769 0.8737 0.43473 0.0
H473 H 0.98317 0.83493 0.44946 0.0
H474 H 0.02855 0.90099 0.48004 0.0
H475 H 0.03385 0.96657 0.50889 0.0
H476 H 0.92503 1.00273 0.49454 0.0
H477 H 0.88519 0.94141 0.45755 0.0
C478 C 0.91053 0.88028 0.44377 0.0
C479 C 0.92689 0.84974 0.43957 0.0
C480 C 0.93573 0.91774 0.462 0.0
C481 C 0.97019 0.85825 0.45187 0.0
C482 C 0.99586 0.89585 0.46972 0.0
C483 C 1.00178 0.96139 0.49716 0.0
C484 C 0.98244 0.98932 0.50499 0.0
C485 C 0.97844 0.9254 0.47592 0.0
C486 C 0.94074 0.98184 0.48947 0.0
C487 C 0.91778 0.94665 0.46819 0.0
H488 H 0.23706 0.73047 0.71182 0.0
H489 H 0.32895 0.85373 0.74346 0.0
H490 H 0.39138 0.84045 0.72122 0.0
H491 H 0.42003 0.7938 0.69328 0.0
H492 H 0.32875 0.6695 0.66355 0.0
H493 H 0.266 0.68353 0.68371 0.0
C494 C 0.27075 0.75444 0.71358 0.0
C495 C 0.27842 0.7929 0.72946 0.0
C496 C 0.30661 0.74651 0.70093 0.0
C497 C 0.32226 0.82365 0.73182 0.0
C498 C 0.35796 0.81616 0.71896 0.0
C499 C 0.38648 0.76962 0.69148 0.0
C500 C 0.37929 0.73068 0.67686 0.0
C501 C 0.35057 0.77762 0.7037 0.0
C502 C 0.33536 0.69999 0.67416 0.0
C503 C 0.2994 0.70787 0.68594 0.0
H504 H 0.69658 0.86226 0.83334 0.0
H505 H 0.82392 0.89591 0.88619 0.0
H506 H 0.86127 0.9419 0.837 0.0
H507 H 0.85844 0.96858 0.77737 0.0
H508 H 0.73151 0.93705 0.72448 0.0
H509 H 0.69325 0.89417 0.77543 0.0
C510 C 0.7324 0.88016 0.83429 0.0
C511 C 0.75753 0.87522 0.86304 0.0
C512 C 0.75375 0.90664 0.80588 0.0
C513 C 0.80396 0.89849 0.86392 0.0
C514 C 0.82533 0.92494 0.83592 0.0
C515 C 0.82233 0.95315 0.77726 0.0
C516 C 0.79793 0.95591 0.74709 0.0
C517 C 0.80065 0.92868 0.80651 0.0
C518 C 0.75116 0.93496 0.74717 0.0
C519 C 0.72925 0.91056 0.77633 0.0
H520 H 0.78221 0.25497 0.38566 0.0
H521 H 0.89963 0.24029 0.351 0.0
H522 H 0.86033 0.20356 0.29678 0.0
H523 H 0.79347 0.1771 0.25868 0.0
H524 H 0.67716 0.19494 0.29142 0.0
H525 H 0.71496 0.22829 0.34729 0.0
C526 C 0.79929 0.24405 0.36606 0.0
C527 C 0.8438 0.25046 0.37227 0.0
C528 C 0.77662 0.22324 0.3348 0.0
C529 C 0.86525 0.23543 0.34698 0.0
C530 C 0.84287 0.21456 0.31593 0.0
C531 C 0.77643 0.18851 0.2779 0.0
C532 C 0.73263 0.18371 0.27072 0.0
C533 C 0.79867 0.20849 0.30951 0.0
C534 C 0.7107 0.1978 0.29638 0.0
C535 C 0.73244 0.21724 0.3282 0.0
H536 H 0.41912 0.61952 0.36567 0.0
H537 H 0.45382 0.74394 0.40369 0.0
H538 H 0.46461 0.72394 0.46487 0.0
H539 H 0.47232 0.67251 0.5061 0.0
H540 H 0.43598 0.54774 0.4673 0.0
H541 H 0.41757 0.56629 0.40837 0.0
C542 C 0.42786 0.64198 0.38758 0.0
C543 C 0.43541 0.68319 0.38006 0.0
C544 C 0.43447 0.63028 0.4226 0.0
C545 C 0.44711 0.71197 0.40874 0.0
C546 C 0.45384 0.70058 0.44368 0.0
C547 C 0.45981 0.6492 0.48492 0.0
C548 C 0.45607 0.60871 0.49139 0.0
C549 C 0.44892 0.66008 0.45075 0.0
C550 C 0.43937 0.57904 0.46346 0.0
C551 C 0.42891 0.58969 0.42953 0.0
H552 H 0.09599 0.53114 0.86419 0.0
H553 H 0.11674 0.43214 0.91466 0.0
H554 H 0.10922 0.45909 0.97438 0.0
H555 H 0.08833 0.50707 1.012 0.0
H556 H 0.06761 0.60545 0.95922 0.0
H557 H 0.08342 0.58256 0.90132 0.0
C558 C 0.09996 0.51601 0.88831 0.0
C559 C 0.10711 0.47972 0.88486 0.0
C560 C 0.09474 0.53125 0.9224 0.0
C561 C 0.11188 0.4604 0.91644 0.0
C562 C 0.10699 0.47558 0.95063 0.0
C563 C 0.08784 0.52385 0.98792 0.0
C564 C 0.07612 0.55787 0.99045 0.0
C565 C 0.0971 0.51039 0.95398 0.0
C566 C 0.07597 0.57906 0.95862 0.0
C567 C 0.0851 0.56599 0.9252 0.0
H568 H 0.5265 0.87077 0.96993 0.0
H569 H 0.66016 0.9171 1.01346 0.0
H570 H 0.65603 0.98168 0.03131 0.0
H571 H 0.61282 0.02308 0.03799 0.0
H572 H 0.47817 0.97588 0.99617 0.0
H573 H 0.48449 0.91376 0.97398 0.0
C574 C 0.55462 0.89499 0.98343 0.0
C575 C 0.59345 0.88911 0.99053 0.0
C576 C 0.55194 0.93193 0.99381 0.0
C577 C 0.62998 0.921 1.00748 0.0
C578 C 0.62761 0.95788 1.01779 0.0
C579 C 0.58511 0.99957 1.02347 0.0
C580 C 0.54505 1.00409 1.01889 0.0
C581 C 0.5886 0.96351 1.01142 0.0
C582 C 0.50936 0.97313 1.00023 0.0
C583 C 0.51284 0.93748 0.98763 0.0
H584 H 0.97121 0.24161 0.43317 0.0
H585 H 0.91458 0.26883 0.52938 0.0
H586 H 0.94672 0.23117 0.56538 0.0
H587 H 0.98414 0.18524 0.56891 0.0
H588 H 0.03814 0.15397 0.47333 0.0
H589 H 0.01389 0.19872 0.4376 0.0
C590 C 0.96608 0.23939 0.46204 0.0
C591 C 0.94032 0.2579 0.4785 0.0
C592 C 0.98384 0.21678 0.48259 0.0
C593 C 0.93464 0.25538 0.51602 0.0
C594 C 0.95268 0.23351 0.53663 0.0
C595 C 0.99087 0.18829 0.54025 0.0
C596 C 0.01218 0.1658 0.52361 0.0
C597 C 0.97632 0.21332 0.52006 0.0
C598 C 0.02158 0.17086 0.48668 0.0
C599 C 0.00752 0.19624 0.46628 0.0
H600 H 0.27359 0.76481 0.19801 0.0
H601 H 0.29773 0.65683 0.22098 0.0
H602 H 0.22946 0.61358 0.18891 0.0
H603 H 0.16381 0.60627 0.15162 0.0
H604 H 0.14775 0.71599 0.12114 0.0
H605 H 0.2132 0.75866 0.15714 0.0
C606 C 0.26508 0.73203 0.19551 0.0
C607 C 0.29197 0.71484 0.21224 0.0
C608 C 0.2272 0.70742 0.17493 0.0
C609 C 0.27805 0.67162 0.20942 0.0
C610 C 0.23904 0.64663 0.19047 0.0
C611 C 0.17494 0.63957 0.1527 0.0
C612 C 0.15098 0.65794 0.13362 0.0
C613 C 0.21357 0.66422 0.17274 0.0
C614 C 0.16584 0.70111 0.13517 0.0
C615 C 0.2031 0.72551 0.15601 0.0
H616 H 0.29489 0.42011 0.7265 0.0
H617 H 0.23632 0.50718 0.71295 0.0
H618 H 0.29982 0.55053 0.67592 0.0
H619 H 0.3697 0.56046 0.64287 0.0
H620 H 0.4221 0.46816 0.65412 0.0
H621 H 0.36299 0.42995 0.6954 0.0
C622 C 0.29577 0.44854 0.71545 0.0
C623 C 0.26033 0.45988 0.72225 0.0
C624 C 0.33116 0.47219 0.69299 0.0
C625 C 0.26305 0.49757 0.70843 0.0
C626 C 0.29919 0.52217 0.68683 0.0
C627 C 0.3681 0.53201 0.65439 0.0
C628 C 0.40029 0.51713 0.64476 0.0
C629 C 0.33304 0.50929 0.67814 0.0
C630 C 0.39765 0.48024 0.66027 0.0
C631 C 0.36389 0.45831 0.68422 0.0
H632 H 0.76786 0.79294 0.99987 0.0
H633 H 0.76594 0.74145 0.89392 0.0
H634 H 0.82104 0.71621 0.91309 0.0
H635 H 0.87545 0.71566 0.95786 0.0
H636 H 0.87972 0.76904 0.06337 0.0
H637 H 0.81765 0.78641 0.04676 0.0
C638 C 0.77868 0.77517 0.9814 0.0
C639 C 0.76316 0.76901 0.94561 0.0
C640 C 0.81123 0.76179 0.99235 0.0
C641 C 0.77769 0.7465 0.9216 0.0
C642 C 0.8093 0.73234 0.93247 0.0
C643 C 0.86265 0.73101 0.9772 0.0
C644 C 0.88242 0.74175 1.01151 0.0
C645 C 0.82737 0.74106 0.96738 0.0
C646 C 0.86501 0.7607 0.03671 0.0
C647 C 0.82965 0.77067 1.02721 0.0
H648 H 0.36645 0.86385 0.21279 0.0
H649 H 0.49092 0.85109 0.21717 0.0
H650 H 0.52833 0.91749 0.18733 0.0
H651 H 0.52492 0.97731 0.15628 0.0
H652 H 0.39929 0.98777 0.14947 0.0
H653 H 0.36335 0.92407 0.18324 0.0
C654 C 0.40178 0.8754 0.20719 0.0
C655 C 0.42554 0.85192 0.21728 0.0
C656 C 0.42296 0.91325 0.18914 0.0
C657 C 0.47158 0.86828 0.2103 0.0
C658 C 0.49302 0.90623 0.19283 0.0
C659 C 0.48973 0.9659 0.16237 0.0
C660 C 0.465 0.98764 0.15008 0.0
C661 C 0.46893 0.92873 0.18161 0.0
C662 C 0.41935 0.97196 0.15831 0.0
C663 C 0.39866 0.93539 0.17771 0.0
H664 H 0.07872 0.2972 0.73098 0.0
H665 H 0.21688 0.31624 0.72956 0.0
H666 H 0.19651 0.24997 0.69919 0.0
H667 H 0.14047 0.18883 0.66815 0.0
H668 H 1.00167 0.16545 0.67432 0.0
H669 H 0.02112 0.2303 0.70817 0.0
C670 C 0.10435 0.28658 0.72481 0.0
C671 C 0.14961 0.31287 0.73167 0.0
C672 C 0.0923 0.24745 0.70793 0.0
C673 C 0.18198 0.29784 0.72349 0.0
C674 C 0.17037 0.25961 0.70625 0.0
C675 C 0.11445 0.19764 0.67744 0.0
C676 C 0.06973 0.17246 0.66854 0.0
C677 C 0.12583 0.23463 0.69744 0.0
C678 C 0.03635 0.18413 0.681 0.0
C679 C 0.04751 0.22141 0.70017 0.0
H680 H 0.8112 0.46467 0.4612 0.0
H681 H 0.75315 0.33793 0.49588 0.0
H682 H 0.68053 0.34046 0.50157 0.0
H683 H 0.63491 0.38069 0.50159 0.0
H684 H 0.69455 0.50831 0.46963 0.0
H685 H 0.76515 0.50356 0.45824 0.0
C686 C 0.78271 0.43762 0.47011 0.0
C687 C 0.78778 0.40133 0.4784 0.0
C688 C 0.74132 0.43952 0.47399 0.0
C689 C 0.75021 0.36623 0.4891 0.0
C690 C 0.70869 0.36772 0.49259 0.0
C691 C 0.66321 0.40715 0.49154 0.0
C692 C 0.65974 0.44483 0.48665 0.0
C693 C 0.70401 0.40442 0.4857 0.0
C694 C 0.69668 0.47909 0.47391 0.0
C695 C 0.737 0.47641 0.46741 0.0
loop_
_geom_bond_atom_site_label_1
_geom_bond_atom_site_label_2
_geom_bond_distance
_geom_bond_site_symmetry_2
_ccdc_geom_bond_type
H0 C1 0.949 . S
C1 H0 0.949 . S
C1 C2 1.395 . S
C1 C3 1.391 . S
C2 C1 1.395 . S
C2 C5 1.390 . S
C3 C1 1.391 . S
C3 C7 1.387 . S
C3 C8 1.491 . S
H4 C5 0.950 . S
C5 C2 1.390 . S
C5 H4 0.950 . S
C5 C6 1.378 . S
C6 C5 1.378 . S
C6 C7 1.409 . S
C7 C3 1.387 . S
C7 C6 1.409 . S
C7 H9 0.951 . S
C8 C3 1.491 . S
C8 C10 1.382 . S
C8 C12 1.404 . S
H9 C7 0.951 . S
C10 C8 1.382 . S
C10 C11 1.390 . S
C10 H15 0.949 . S
C11 C10 1.390 . S
C11 C16 1.399 . S
C12 C8 1.404 . S
C12 H13 0.950 . S
C12 C14 1.375 . S
H13 C12 0.950 . S
C14 C12 1.375 . S
C14 C16 1.382 . S
C14 H18 0.950 . S
H15 C10 0.949 . S
C16 C11 1.399 . S
C16 C14 1.382 . S
C16 H17 0.952 . S
H17 C16 0.952 . S
H18 C14 0.950 . S
H19 C20 0.949 . S
C20 H19 0.949 . S
C20 C21 1.395 . S
C20 C22 1.391 . S
C21 C20 1.395 . S
C21 C24 1.390 . S
C22 C20 1.391 . S
C22 C26 1.387 . S
C22 C27 1.491 . S
H23 C24 0.950 . S
C24 C21 1.390 . S
C24 H23 0.950 . S
C24 C25 1.378 . S
C25 C24 1.378 . S
C25 C26 1.409 . S
C26 C22 1.387 . S
C26 C25 1.409 . S
C26 H28 0.951 . S
C27 C22 1.491 . S
C27 C29 1.382 . S
C27 C31 1.404 . S
H28 C26 0.951 . S
C29 C27 1.382 . S
C29 C30 1.390 . S
C29 H34 0.949 . S
C30 C29 1.390 . S
C30 C35 1.399 1_455 S
C31 C27 1.404 . S
C31 H32 0.950 . S
C31 C33 1.375 . S
H32 C31 0.950 . S
C33 C31 1.375 . S
C33 C35 1.382 1_455 S
C33 H37 0.950 1_455 S
H34 C29 0.949 . S
C35 C30 1.399 1_655 S
C35 C33 1.382 1_655 S
C35 H36 0.952 . S
H36 C35 0.952 . S
H37 C33 0.950 1_655 S
H38 C39 0.949 . S
C39 H38 0.949 . S
C39 C40 1.395 . S
C39 C41 1.391 . S
C40 C39 1.395 . S
C40 C43 1.390 . S
C41 C39 1.391 . S
C41 C45 1.387 . S
C41 C46 1.491 . S
H42 C43 0.950 . S
C43 C40 1.390 . S
C43 H42 0.950 . S
C43 C44 1.378 . S
C44 C43 1.378 . S
C44 C45 1.409 . S
C45 C41 1.387 . S
C45 C44 1.409 . S
C45 H47 0.951 . S
C46 C41 1.491 . S
C46 C48 1.382 . S
C46 C50 1.404 . S
H47 C45 0.951 . S
C48 C46 1.382 . S
C48 C49 1.390 . S
C48 H53 0.949 . S
C49 C48 1.390 . S
C49 C54 1.399 . S
C50 C46 1.404 . S
C50 H51 0.950 . S
C50 C52 1.375 . S
H51 C50 0.950 . S
C52 C50 1.375 . S
C52 C54 1.382 . S
C52 H56 0.950 . S
H53 C48 0.949 . S
C54 C49 1.399 . S
C54 C52 1.382 . S
C54 H55 0.952 . S
H55 C54 0.952 . S
H56 C52 0.950 . S
H57 C58 0.949 . S
C58 H57 0.949 . S
C58 C59 1.395 . S
C58 C60 1.391 . S
C59 C58 1.395 . S
C59 C62 1.390 . S
C60 C58 1.391 . S
C60 C64 1.387 . S
C60 C65 1.491 . S
H61 C62 0.950 . S
C62 C59 1.390 . S
C62 H61 0.950 . S
C62 C63 1.378 . S
C63 C62 1.378 . S
C63 C64 1.409 . S
C64 C60 1.387 . S
C64 C63 1.409 . S
C64 H66 0.951 . S
C65 C60 1.491 . S
C65 C67 1.382 . S
C65 C69 1.404 . S
H66 C64 0.951 . S
C67 C65 1.382 . S
C67 C68 1.390 . S
C67 H72 0.949 . S
C68 C67 1.390 . S
C68 C73 1.399 . S
C69 C65 1.404 . S
C69 H70 0.950 . S
C69 C71 1.375 . S
H70 C69 0.950 . S
C71 C69 1.375 . S
C71 C73 1.382 . S
C71 H75 0.950 . S
H72 C67 0.949 . S
C73 C68 1.399 . S
C73 C71 1.382 . S
C73 H74 0.952 . S
H74 C73 0.952 . S
H75 C71 0.950 . S
H76 C77 0.949 . S
C77 H76 0.949 . S
C77 C78 1.395 . S
C77 C79 1.391 . S
C78 C77 1.395 . S
C78 C81 1.390 . S
C79 C77 1.391 . S
C79 C83 1.387 . S
C79 C84 1.491 . S
H80 C81 0.950 . S
C81 C78 1.390 . S
C81 H80 0.950 . S
C81 C82 1.378 . S
C82 C81 1.378 . S
C82 C83 1.409 . S
C83 C79 1.387 . S
C83 C82 1.409 . S
C83 H85 0.951 . S
C84 C79 1.491 . S
C84 C86 1.382 . S
C84 C88 1.404 . S
H85 C83 0.951 . S
C86 C84 1.382 . S
C86 C87 1.390 . S
C86 H91 0.949 . S
C87 C86 1.390 . S
C87 C92 1.399 . S
C88 C84 1.404 . S
C88 H89 0.950 . S
C88 C90 1.375 . S
H89 C88 0.950 . S
C90 C88 1.375 . S
C90 C92 1.382 . S
C90 H94 0.950 . S
H91 C86 0.949 . S
C92 C87 1.399 . S
C92 C90 1.382 . S
C92 H93 0.952 . S
H93 C92 0.952 . S
H94 C90 0.950 . S
H95 C96 0.949 . S
C96 H95 0.949 . S
C96 C97 1.395 . S
C96 C98 1.391 . S
C97 C96 1.395 . S
C97 C100 1.390 . S
C98 C96 1.391 . S
C98 C102 1.387 . S
C98 C103 1.491 . S
H99 C100 0.950 . S
C100 C97 1.390 . S
C100 H99 0.950 . S
C100 C101 1.378 . S
C101 C100 1.378 . S
C101 C102 1.409 . S
C102 C98 1.387 . S
C102 C101 1.409 . S
C102 H104 0.951 . S
C103 C98 1.491 . S
C103 C105 1.382 . S
C103 C107 1.404 . S
H104 C102 0.951 . S
C105 C103 1.382 . S
C105 C106 1.390 . S
C105 H110 0.949 . S
C106 C105 1.390 . S
C106 C111 1.399 . S
C107 C103 1.404 . S
C107 H108 0.950 . S
C107 C109 1.375 . S
H108 C107 0.950 . S
C109 C107 1.375 . S
C109 C111 1.382 . S
C109 H113 0.950 . S
H110 C105 0.949 . S
C111 C106 1.399 . S
C111 C109 1.382 . S
C111 H112 0.952 . S
H112 C111 0.952 . S
H113 C109 0.950 . S
H114 C115 0.949 . S
C115 H114 0.949 . S
C115 C116 1.395 . S
C115 C117 1.391 . S
C116 C115 1.395 . S
C116 C119 1.390 . S
C117 C115 1.391 . S
C117 C121 1.387 . S
C117 C122 1.491 . S
H118 C119 0.950 . S
C119 C116 1.390 . S
C119 H118 0.950 . S
C119 C120 1.378 . S
C120 C119 1.378 . S
C120 C121 1.409 . S
C121 C117 1.387 . S
C121 C120 1.409 . S
C121 H123 0.951 . S
C122 C117 1.491 . S
C122 C124 1.382 . S
C122 C126 1.404 . S
H123 C121 0.951 . S
C124 C122 1.382 . S
C124 C125 1.390 . S
C124 H129 0.949 . S
C125 C124 1.390 . S
C125 C130 1.399 . S
C126 C122 1.404 . S
C126 H127 0.950 . S
C126 C128 1.375 . S
H127 C126 0.950 . S
C128 C126 1.375 . S
C128 C130 1.382 . S
C128 H132 0.950 . S
H129 C124 0.949 . S
C130 C125 1.399 . S
C130 C128 1.382 . S
C130 H131 0.952 . S
H131 C130 0.952 . S
H132 C128 0.950 . S
H133 C134 0.949 . S
C134 H133 0.949 . S
C134 C135 1.395 . S
C134 C136 1.391 . S
C135 C134 1.395 . S
C135 C138 1.390 . S
C136 C134 1.391 . S
C136 C140 1.387 . S
C136 C141 1.491 . S
H137 C138 0.950 . S
C138 C135 1.390 . S
C138 H137 0.950 . S
C138 C139 1.378 . S
C139 C138 1.378 . S
C139 C140 1.409 . S
C140 C136 1.387 . S
C140 C139 1.409 . S
C140 H142 0.951 . S
C141 C136 1.491 . S
C141 C143 1.382 . S
C141 C145 1.404 . S
H142 C140 0.951 . S
C143 C141 1.382 . S
C143 C144 1.390 . S
C143 H148 0.949 . S
C144 C143 1.390 . S
C144 C149 1.399 . S
C145 C141 1.404 . S
C145 H146 0.950 . S
C145 C147 1.375 . S
H146 C145 0.950 . S
C147 C145 1.375 . S
C147 C149 1.382 . S
C147 H151 0.950 . S
H148 C143 0.949 . S
C149 C144 1.399 . S
C149 C147 1.382 . S
C149 H150 0.952 . S
H150 C149 0.952 . S
H151 C147 0.950 . S
Dy152 O155 2.307 . S
Dy152 O157 2.395 . S
Dy152 O158 2.379 . S
Dy152 O160 2.339 1_545 S
Dy152 O162 2.298 . S
Dy152 O166 2.275 . S
Dy152 C174 2.738 . S
Dy153 O156 2.298 1_655 S
Dy153 O159 2.275 1_545 S
Dy153 O161 2.307 . S
Dy153 O163 2.395 1_545 S
Dy153 O164 2.379 . S
Dy153 O167 2.339 1_655 S
Dy153 C183 2.738 1_545 S
C154 O166 1.254 . S
C154 O167 1.257 . S
O155 Dy152 2.307 . S
O155 C165 1.266 1_545 S
O156 Dy153 2.298 1_455 S
O156 C165 1.236 1_545 S
O157 Dy152 2.395 . S
O157 C174 1.255 . S
O158 Dy152 2.379 . S
O158 C174 1.249 . S
O159 Dy153 2.275 1_565 S
O159 C175 1.254 . S
O160 Dy152 2.339 1_565 S
O160 C175 1.257 1_455 S
O161 Dy153 2.307 . S
O161 C176 1.266 . S
O162 Dy152 2.298 . S
O162 C176 1.236 1_455 S
O163 Dy153 2.395 1_565 S
O163 C183 1.255 . S
O164 Dy153 2.379 . S
O164 C183 1.249 1_545 S
C165 O155 1.266 1_565 S
C165 O156 1.236 1_565 S
O166 Dy152 2.275 . S
O166 C154 1.254 . S
O167 Dy153 2.339 1_455 S
O167 C154 1.257 . S
C168 C171 1.344 . S
C168 C172 1.328 . S
C168 C174 1.516 . S
C169 C170 1.304 . S
C169 C173 1.323 . S
C170 C169 1.304 . S
C170 C171 1.371 . S
C170 H184 0.930 . S
C171 C168 1.344 . S
C171 C170 1.371 . S
C171 H185 0.931 . S
C172 C168 1.328 . S
C172 C173 1.433 . S
C172 H186 0.931 . S
C173 C169 1.323 . S
C173 C172 1.433 . S
C173 H187 0.933 . S
C174 Dy152 2.738 . S
C174 O157 1.255 . S
C174 O158 1.249 . S
C174 C168 1.516 . S
C175 O159 1.254 . S
C175 O160 1.257 1_655 S
C176 O161 1.266 . S
C176 O162 1.236 1_655 S
C177 C180 1.344 . S
C177 C181 1.328 . S
C177 C183 1.516 . S
C178 C179 1.304 . S
C178 C182 1.323 . S
C179 C178 1.304 . S
C179 C180 1.371 . S
C179 H188 0.930 . S
C180 C177 1.344 . S
C180 C179 1.371 . S
C180 H189 0.931 . S
C181 C177 1.328 . S
C181 C182 1.433 . S
C181 H190 0.931 . S
C182 C178 1.323 . S
C182 C181 1.433 . S
C182 H191 0.933 . S
C183 Dy153 2.738 1_565 S
C183 O163 1.255 . S
C183 O164 1.249 1_565 S
C183 C177 1.516 . S
H184 C170 0.930 . S
H185 C171 0.931 . S
H186 C172 0.931 . S
H187 C173 0.933 . S
H188 C179 0.930 . S
H189 C180 0.931 . S
H190 C181 0.931 . S
H191 C182 0.933 . S
Dy192 O195 2.307 . S
Dy192 O197 2.395 1_545 S
Dy192 O198 2.379 1_554 S
Dy192 O200 2.339 . S
Dy192 O202 2.298 1_545 S
Dy192 O206 2.275 1_545 S
Dy192 C214 2.738 1_544 S
Dy193 O196 2.298 . S
Dy193 O199 2.275 . S
Dy193 O201 2.315 . S
Dy193 O203 2.395 . S
Dy193 O204 2.379 . S
Dy193 O207 2.339 1_545 S
Dy193 C223 2.738 . S
C194 O206 1.254 . S
C194 O207 1.257 . S
O195 Dy192 2.307 . S
O195 C205 1.266 . S
O196 Dy193 2.298 . S
O196 C205 1.236 . S
O197 Dy192 2.395 1_565 S
O197 C214 1.255 1_554 S
O198 Dy192 2.379 1_556 S
O198 C214 1.249 1_545 S
O199 Dy193 2.275 . S
O199 C215 1.254 . S
O200 Dy192 2.339 . S
O200 C215 1.257 . S
O201 Dy193 2.315 . S
O201 C216 1.265 1_545 S
O202 Dy192 2.298 1_565 S
O202 C216 1.236 . S
O203 Dy193 2.395 . S
O203 C223 1.255 . S
O204 Dy193 2.379 . S
O204 C223 1.249 . S
C205 O195 1.266 . S
C205 O196 1.236 . S
O206 Dy192 2.275 1_565 S
O206 C194 1.254 . S
O207 Dy193 2.339 1_565 S
O207 C194 1.257 . S
C208 C211 1.344 . S
C208 C212 1.328 . S
C208 C214 1.516 . S
C209 C210 1.304 . S
C209 C213 1.323 . S
C210 C209 1.304 . S
C210 C211 1.371 . S
C210 H224 0.930 . S
C211 C208 1.344 . S
C211 C210 1.371 . S
C211 H225 0.931 . S
C212 C208 1.328 . S
C212 C213 1.433 . S
C212 H226 0.931 . S
C213 C209 1.323 . S
C213 C212 1.433 . S
C213 H227 0.933 . S
C214 Dy192 2.738 1_566 S
C214 O197 1.255 1_556 S
C214 O198 1.249 1_565 S
C214 C208 1.516 . S
C215 O199 1.254 . S
C215 O200 1.257 . S
C216 O201 1.265 1_565 S
C216 O202 1.236 . S
C217 C220 1.344 . S
C217 C221 1.328 . S
C217 C223 1.516 . S
C218 C219 1.304 . S
C218 C222 1.323 . S
C219 C218 1.304 . S
C219 C220 1.371 . S
C219 H228 0.930 . S
C220 C217 1.344 . S
C220 C219 1.371 . S
C220 H229 0.931 . S
C221 C217 1.328 . S
C221 C222 1.433 . S
C221 H230 0.931 . S
C222 C218 1.323 . S
C222 C221 1.433 . S
C222 H231 0.933 . S
C223 Dy193 2.738 . S
C223 O203 1.255 . S
C223 O204 1.249 . S
C223 C217 1.516 . S
H224 C210 0.930 . S
H225 C211 0.931 . S
H226 C212 0.931 . S
H227 C213 0.933 . S
H228 C219 0.930 . S
H229 C220 0.931 . S
H230 C221 0.931 . S
H231 C222 0.933 . S
Dy232 O235 2.307 . S
Dy232 O237 2.395 . S
Dy232 O238 2.379 . S
Dy232 O240 2.339 . S
Dy232 O242 2.298 . S
Dy232 O246 2.275 . S
Dy232 C254 2.738 . S
Dy233 O236 2.298 . S
Dy233 O239 2.275 . S
Dy233 O241 2.307 . S
Dy233 O243 2.395 . S
Dy233 O244 2.379 . S
Dy233 O247 2.339 . S
Dy233 C263 2.738 . S
C234 O246 1.254 . S
C234 O247 1.257 . S
O235 Dy232 2.307 . S
O235 C245 1.266 . S
O236 Dy233 2.298 . S
O236 C245 1.236 . S
O237 Dy232 2.395 . S
O237 C254 1.255 . S
O238 Dy232 2.379 . S
O238 C254 1.249 . S
O239 Dy233 2.275 . S
O239 C255 1.254 . S
O240 Dy232 2.339 . S
O240 C255 1.257 . S
O241 Dy233 2.307 . S
O241 C256 1.266 . S
O242 Dy232 2.298 . S
O242 C256 1.236 . S
O243 Dy233 2.395 . S
O243 C263 1.255 . S
O244 Dy233 2.379 . S
O244 C263 1.249 . S
C245 O235 1.266 . S
C245 O236 1.236 . S
O246 Dy232 2.275 . S
O246 C234 1.254 . S
O247 Dy233 2.339 . S
O247 C234 1.257 . S
C248 C251 1.344 . S
C248 C252 1.328 . S
C248 C254 1.516 . S
C249 C250 1.304 . S
C249 C253 1.323 . S
C250 C249 1.304 . S
C250 C251 1.371 . S
C250 H264 0.930 . S
C251 C248 1.344 . S
C251 C250 1.371 . S
C251 H265 0.931 . S
C252 C248 1.328 . S
C252 C253 1.433 . S
C252 H266 0.931 . S
C253 C249 1.323 . S
C253 C252 1.433 . S
C253 H267 0.933 . S
C254 Dy232 2.738 . S
C254 O237 1.255 . S
C254 O238 1.249 . S
C254 C248 1.516 . S
C255 O239 1.254 . S
C255 O240 1.257 . S
C256 O241 1.266 . S
C256 O242 1.236 . S
C257 C260 1.344 . S
C257 C261 1.328 . S
C257 C263 1.516 . S
C258 C259 1.304 . S
C258 C262 1.323 . S
C259 C258 1.304 . S
C259 C260 1.371 . S
C259 H268 0.930 . S
C260 C257 1.344 . S
C260 C259 1.371 . S
C260 H269 0.931 . S
C261 C257 1.328 . S
C261 C262 1.433 . S
C261 H270 0.931 . S
C262 C258 1.323 . S
C262 C261 1.433 . S
C262 H271 0.933 . S
C263 Dy233 2.738 . S
C263 O243 1.255 . S
C263 O244 1.249 . S
C263 C257 1.516 . S
H264 C250 0.930 . S
H265 C251 0.931 . S
H266 C252 0.931 . S
H267 C253 0.933 . S
H268 C259 0.930 . S
H269 C260 0.931 . S
H270 C261 0.931 . S
H271 C262 0.933 . S
Dy272 O275 2.307 1_556 S
Dy272 O277 2.395 1_455 S
Dy272 O278 2.379 . S
Dy272 O280 2.339 . S
Dy272 O282 2.298 1_455 S
Dy272 O286 2.275 1_556 S
Dy272 C294 2.736 1_455 S
Dy273 O276 2.298 . S
Dy273 O279 2.275 1_554 S
Dy273 O281 2.307 1_455 S
Dy273 O283 2.395 . S
Dy273 O284 2.379 . S
Dy273 O287 2.339 . S
Dy273 C303 2.738 . S
C274 O286 1.254 . S
C274 O287 1.257 . S
O275 Dy272 2.307 1_554 S
O275 C285 1.266 . S
O276 Dy273 2.298 . S
O276 C285 1.236 . S
O277 Dy272 2.395 1_655 S
O277 C294 1.255 . S
O278 Dy272 2.379 . S
O278 C294 1.248 1_455 S
O279 Dy273 2.275 1_556 S
O279 C295 1.254 . S
O280 Dy272 2.339 . S
O280 C295 1.257 . S
O281 Dy273 2.307 1_655 S
O281 C296 1.266 1_554 S
O282 Dy272 2.298 1_655 S
O282 C296 1.236 . S
O283 Dy273 2.395 . S
O283 C303 1.255 . S
O284 Dy273 2.379 . S
O284 C303 1.249 . S
C285 O275 1.266 . S
C285 O276 1.236 . S
O286 Dy272 2.275 1_554 S
O286 C274 1.254 . S
O287 Dy273 2.339 . S
O287 C274 1.257 . S
C288 C291 1.344 . S
C288 C292 1.328 . S
C288 C294 1.517 . S
C289 C290 1.304 . S
C289 C293 1.323 . S
C290 C289 1.304 . S
C290 C291 1.371 . S
C290 H304 0.930 . S
C291 C288 1.344 . S
C291 C290 1.371 . S
C291 H305 0.931 . S
C292 C288 1.328 . S
C292 C293 1.433 . S
C292 H306 0.931 1_655 S
C293 C289 1.323 . S
C293 C292 1.433 . S
C293 H307 0.933 . S
C294 Dy272 2.736 1_655 S
C294 O277 1.255 . S
C294 O278 1.248 1_655 S
C294 C288 1.517 . S
C295 O279 1.254 . S
C295 O280 1.257 . S
C296 O281 1.266 1_556 S
C296 O282 1.236 . S
C297 C300 1.344 . S
C297 C301 1.328 . S
C297 C303 1.516 . S
C298 C299 1.304 . S
C298 C302 1.323 . S
C299 C298 1.304 . S
C299 C300 1.371 . S
C299 H308 0.930 . S
C300 C297 1.344 . S
C300 C299 1.371 . S
C300 H309 0.931 . S
C301 C297 1.328 . S
C301 C302 1.433 . S
C301 H310 0.931 . S
C302 C298 1.323 . S
C302 C301 1.433 . S
C302 H311 0.933 . S
C303 Dy273 2.738 . S
C303 O283 1.255 . S
C303 O284 1.249 . S
C303 C297 1.516 . S
H304 C290 0.930 . S
H305 C291 0.931 . S
H306 C292 0.931 1_455 S
H307 C293 0.933 . S
H308 C299 0.930 . S
H309 C300 0.931 . S
H310 C301 0.931 . S
H311 C302 0.933 . S
H312 C318 0.930 . S
H313 C321 0.930 . S
H314 C322 0.930 . S
H315 C323 0.930 . S
H316 C326 0.930 . S
H317 C327 0.930 . S
C318 H312 0.930 . S
C318 C319 1.355 . S
C318 C320 1.415 . S
C319 C318 1.355 . S
C319 C321 1.419 . S
C320 C318 1.415 . S
C320 C325 1.425 . S
C320 C327 1.409 . S
C321 H313 0.930 . S
C321 C319 1.419 . S
C321 C322 1.362 . S
C322 H314 0.930 . S
C322 C321 1.362 . S
C322 C325 1.409 . S
C323 H315 0.930 . S
C323 C324 1.355 . S
C323 C325 1.415 . S
C324 C323 1.355 . S
C324 C326 1.419 . S
C325 C320 1.425 . S
C325 C322 1.409 . S
C325 C323 1.415 . S
C326 H316 0.930 . S
C326 C324 1.419 . S
C326 C327 1.362 . S
C327 H317 0.930 . S
C327 C320 1.409 . S
C327 C326 1.362 . S
H328 C334 0.930 . S
H329 C337 0.930 . S
H330 C338 0.930 . S
H331 C339 0.930 . S
H332 C342 0.930 . S
H333 C343 0.930 . S
C334 H328 0.930 . S
C334 C335 1.355 . S
C334 C336 1.415 . S
C335 C334 1.355 . S
C335 C337 1.419 . S
C336 C334 1.415 . S
C336 C341 1.425 . S
C336 C343 1.409 . S
C337 H329 0.930 . S
C337 C335 1.419 . S
C337 C338 1.362 . S
C338 H330 0.930 . S
C338 C337 1.362 . S
C338 C341 1.409 . S
C339 H331 0.930 . S
C339 C340 1.355 . S
C339 C341 1.415 . S
C340 C339 1.355 . S
C340 C342 1.419 . S
C341 C336 1.425 . S
C341 C338 1.409 . S
C341 C339 1.415 . S
C342 H332 0.930 . S
C342 C340 1.419 . S
C342 C343 1.362 . S
C343 H333 0.930 . S
C343 C336 1.409 . S
C343 C342 1.362 . S
H344 C350 0.930 . S
H345 C353 0.930 . S
H346 C354 0.930 . S
H347 C355 0.930 . S
H348 C358 0.930 . S
H349 C359 0.930 . S
C350 H344 0.930 . S
C350 C351 1.355 . S
C350 C352 1.415 . S
C351 C350 1.355 . S
C351 C353 1.419 . S
C352 C350 1.415 . S
C352 C357 1.425 . S
C352 C359 1.409 . S
C353 H345 0.930 . S
C353 C351 1.419 . S
C353 C354 1.362 . S
C354 H346 0.930 . S
C354 C353 1.362 . S
C354 C357 1.409 . S
C355 H347 0.930 . S
C355 C356 1.355 . S
C355 C357 1.415 . S
C356 C355 1.355 . S
C356 C358 1.419 . S
C357 C352 1.425 . S
C357 C354 1.409 . S
C357 C355 1.415 . S
C358 H348 0.930 . S
C358 C356 1.419 . S
C358 C359 1.362 . S
C359 H349 0.930 . S
C359 C352 1.409 . S
C359 C358 1.362 . S
H360 C366 0.930 . S
H361 C369 0.930 . S
H362 C370 0.930 . S
H363 C371 0.930 . S
H364 C374 0.930 . S
H365 C375 0.930 . S
C366 H360 0.930 . S
C366 C367 1.355 . S
C366 C368 1.415 . S
C367 C366 1.355 . S
C367 C369 1.419 . S
C368 C366 1.415 . S
C368 C373 1.425 . S
C368 C375 1.409 1_655 S
C369 H361 0.930 . S
C369 C367 1.419 . S
C369 C370 1.362 . S
C370 H362 0.930 . S
C370 C369 1.362 . S
C370 C373 1.409 . S
C371 H363 0.930 . S
C371 C372 1.355 . S
C371 C373 1.415 . S
C372 C371 1.355 . S
C372 C374 1.419 1_655 S
C373 C368 1.425 . S
C373 C370 1.409 . S
C373 C371 1.415 . S
C374 H364 0.930 . S
C374 C372 1.419 1_455 S
C374 C375 1.362 . S
C375 H365 0.930 . S
C375 C368 1.409 1_455 S
C375 C374 1.362 . S
H376 C382 0.930 . S
H377 C385 0.930 . S
H378 C386 0.930 . S
H379 C387 0.930 . S
H380 C390 0.930 . S
H381 C391 0.930 . S
C382 H376 0.930 . S
C382 C383 1.355 . S
C382 C384 1.415 . S
C383 C382 1.355 . S
C383 C385 1.419 . S
C384 C382 1.415 . S
C384 C389 1.425 . S
C384 C391 1.409 . S
C385 H377 0.930 . S
C385 C383 1.419 . S
C385 C386 1.362 . S
C386 H378 0.930 . S
C386 C385 1.362 . S
C386 C389 1.409 . S
C387 H379 0.930 . S
C387 C388 1.355 . S
C387 C389 1.415 . S
C388 C387 1.355 . S
C388 C390 1.419 . S
C389 C384 1.425 . S
C389 C386 1.409 . S
C389 C387 1.415 . S
C390 H380 0.930 . S
C390 C388 1.419 . S
C390 C391 1.362 . S
C391 H381 0.930 . S
C391 C384 1.409 . S
C391 C390 1.362 . S
H392 C398 0.930 . S
H393 C401 0.930 . S
H394 C402 0.930 . S
H395 C403 0.930 1_655 S
H396 C406 0.930 . S
H397 C407 0.930 . S
C398 H392 0.930 . S
C398 C399 1.355 . S
C398 C400 1.415 . S
C399 C398 1.355 . S
C399 C401 1.419 1_455 S
C400 C398 1.415 . S
C400 C405 1.425 . S
C400 C407 1.409 . S
C401 H393 0.930 . S
C401 C399 1.419 1_655 S
C401 C402 1.362 . S
C402 H394 0.930 . S
C402 C401 1.362 . S
C402 C405 1.409 1_655 S
C403 H395 0.930 1_455 S
C403 C404 1.355 . S
C403 C405 1.415 . S
C404 C403 1.355 . S
C404 C406 1.419 . S
C405 C400 1.425 . S
C405 C402 1.409 1_455 S
C405 C403 1.415 . S
C406 H396 0.930 . S
C406 C404 1.419 . S
C406 C407 1.362 . S
C407 H397 0.930 . S
C407 C400 1.409 . S
C407 C406 1.362 . S
H408 C414 0.930 . S
H409 C417 0.930 . S
H410 C418 0.930 . S
H411 C419 0.930 . S
H412 C422 0.930 . S
H413 C423 0.932 . S
C414 H408 0.930 . S
C414 C415 1.355 . S
C414 C416 1.415 . S
C415 C414 1.355 . S
C415 C417 1.419 . S
C416 C414 1.415 . S
C416 C421 1.425 . S
C416 C423 1.407 1_556 S
C417 H409 0.930 . S
C417 C415 1.419 . S
C417 C418 1.362 . S
C418 H410 0.930 . S
C418 C417 1.362 . S
C418 C421 1.409 . S
C419 H411 0.930 . S
C419 C420 1.355 . S
C419 C421 1.415 . S
C420 C419 1.355 . S
C420 C422 1.419 1_556 S
C421 C416 1.425 . S
C421 C418 1.409 . S
C421 C419 1.415 . S
C422 H412 0.930 . S
C422 C420 1.419 1_554 S
C422 C423 1.363 . S
C423 H413 0.932 . S
C423 C416 1.407 1_554 S
C423 C422 1.363 . S
H424 C430 0.930 . S
H425 C433 0.930 . S
H426 C434 0.930 . S
H427 C435 0.930 . S
H428 C438 0.930 . S
H429 C439 0.930 . S
C430 H424 0.930 . S
C430 C431 1.355 . S
C430 C432 1.415 . S
C431 C430 1.355 . S
C431 C433 1.419 . S
C432 C430 1.415 . S
C432 C437 1.425 . S
C432 C439 1.409 . S
C433 H425 0.930 . S
C433 C431 1.419 . S
C433 C434 1.362 . S
C434 H426 0.930 . S
C434 C433 1.362 . S
C434 C437 1.409 . S
C435 H427 0.930 . S
C435 C436 1.355 . S
C435 C437 1.415 . S
C436 C435 1.355 . S
C436 C438 1.419 . S
C437 C432 1.425 . S
C437 C434 1.409 . S
C437 C435 1.415 . S
C438 H428 0.930 . S
C438 C436 1.419 . S
C438 C439 1.362 . S
C439 H429 0.930 . S
C439 C432 1.409 . S
C439 C438 1.362 . S
H440 C446 0.930 . S
H441 C449 0.930 . S
H442 C450 0.930 . S
H443 C451 0.930 . S
H444 C454 0.930 . S
H445 C455 0.930 . S
C446 H440 0.930 . S
C446 C447 1.355 . S
C446 C448 1.415 . S
C447 C446 1.355 . S
C447 C449 1.419 . S
C448 C446 1.415 . S
C448 C453 1.425 . S
C448 C455 1.409 . S
C449 H441 0.930 . S
C449 C447 1.419 . S
C449 C450 1.362 . S
C450 H442 0.930 . S
C450 C449 1.362 . S
C450 C453 1.409 . S
C451 H443 0.930 . S
C451 C452 1.355 . S
C451 C453 1.415 . S
C452 C451 1.355 . S
C452 C454 1.419 . S
C453 C448 1.425 . S
C453 C450 1.409 . S
C453 C451 1.415 . S
C454 H444 0.930 . S
C454 C452 1.419 . S
C454 C455 1.362 . S
C455 H445 0.930 . S
C455 C448 1.409 . S
C455 C454 1.362 . S
H456 C462 0.930 . S
H457 C465 0.930 . S
H458 C466 0.930 . S
H459 C467 0.930 . S
H460 C470 0.930 . S
H461 C471 0.930 . S
C462 H456 0.930 . S
C462 C463 1.355 . S
C462 C464 1.415 . S
C463 C462 1.355 . S
C463 C465 1.419 . S
C464 C462 1.415 . S
C464 C469 1.425 . S
C464 C471 1.409 1_556 S
C465 H457 0.930 . S
C465 C463 1.419 . S
C465 C466 1.362 . S
C466 H458 0.930 . S
C466 C465 1.362 . S
C466 C469 1.409 . S
C467 H459 0.930 . S
C467 C468 1.355 1_556 S
C467 C469 1.415 . S
C468 C467 1.355 1_554 S
C468 C470 1.419 . S
C469 C464 1.425 . S
C469 C466 1.409 . S
C469 C467 1.415 . S
C470 H460 0.930 . S
C470 C468 1.419 . S
C470 C471 1.362 . S
C471 H461 0.930 . S
C471 C464 1.409 1_554 S
C471 C470 1.362 . S
H472 C478 0.930 . S
H473 C481 0.930 . S
H474 C482 0.930 . S
H475 C483 0.930 . S
H476 C486 0.930 . S
H477 C487 0.930 . S
C478 H472 0.930 . S
C478 C479 1.355 . S
C478 C480 1.415 . S
C479 C478 1.355 . S
C479 C481 1.419 . S
C480 C478 1.415 . S
C480 C485 1.425 . S
C480 C487 1.409 . S
C481 H473 0.930 . S
C481 C479 1.419 . S
C481 C482 1.362 . S
C482 H474 0.930 . S
C482 C481 1.362 . S
C482 C485 1.409 . S
C483 H475 0.930 . S
C483 C484 1.355 . S
C483 C485 1.415 . S
C484 C483 1.355 . S
C484 C486 1.419 . S
C485 C480 1.425 . S
C485 C482 1.409 . S
C485 C483 1.415 . S
C486 H476 0.930 . S
C486 C484 1.419 . S
C486 C487 1.362 . S
C487 H477 0.930 . S
C487 C480 1.409 . S
C487 C486 1.362 . S
H488 C494 0.930 . S
H489 C497 0.930 . S
H490 C498 0.930 . S
H491 C499 0.930 . S
H492 C502 0.930 . S
H493 C503 0.930 . S
C494 H488 0.930 . S
C494 C495 1.355 . S
C494 C496 1.415 . S
C495 C494 1.355 . S
C495 C497 1.419 . S
C496 C494 1.415 . S
C496 C501 1.425 . S
C496 C503 1.409 . S
C497 H489 0.930 . S
C497 C495 1.419 . S
C497 C498 1.362 . S
C498 H490 0.930 . S
C498 C497 1.362 . S
C498 C501 1.409 . S
C499 H491 0.930 . S
C499 C500 1.355 . S
C499 C501 1.415 . S
C500 C499 1.355 . S
C500 C502 1.419 . S
C501 C496 1.425 . S
C501 C498 1.409 . S
C501 C499 1.415 . S
C502 H492 0.930 . S
C502 C500 1.419 . S
C502 C503 1.362 . S
C503 H493 0.930 . S
C503 C496 1.409 . S
C503 C502 1.362 . S
H504 C510 0.930 . S
H505 C513 0.930 . S
H506 C514 0.930 . S
H507 C515 0.930 . S
H508 C518 0.930 . S
H509 C519 0.930 . S
C510 H504 0.930 . S
C510 C511 1.355 . S
C510 C512 1.415 . S
C511 C510 1.355 . S
C511 C513 1.419 . S
C512 C510 1.415 . S
C512 C517 1.425 . S
C512 C519 1.409 . S
C513 H505 0.930 . S
C513 C511 1.419 . S
C513 C514 1.362 . S
C514 H506 0.930 . S
C514 C513 1.362 . S
C514 C517 1.409 . S
C515 H507 0.930 . S
C515 C516 1.355 . S
C515 C517 1.415 . S
C516 C515 1.355 . S
C516 C518 1.419 . S
C517 C512 1.425 . S
C517 C514 1.409 . S
C517 C515 1.415 . S
C518 H508 0.930 . S
C518 C516 1.419 . S
C518 C519 1.362 . S
C519 H509 0.930 . S
C519 C512 1.409 . S
C519 C518 1.362 . S
H520 C526 0.930 . S
H521 C529 0.930 . S
H522 C530 0.930 . S
H523 C531 0.930 . S
H524 C534 0.930 . S
H525 C535 0.930 . S
C526 H520 0.930 . S
C526 C527 1.355 . S
C526 C528 1.415 . S
C527 C526 1.355 . S
C527 C529 1.419 . S
C528 C526 1.415 . S
C528 C533 1.425 . S
C528 C535 1.409 . S
C529 H521 0.930 . S
C529 C527 1.419 . S
C529 C530 1.362 . S
C530 H522 0.930 . S
C530 C529 1.362 . S
C530 C533 1.409 . S
C531 H523 0.930 . S
C531 C532 1.355 . S
C531 C533 1.415 . S
C532 C531 1.355 . S
C532 C534 1.419 . S
C533 C528 1.425 . S
C533 C530 1.409 . S
C533 C531 1.415 . S
C534 H524 0.930 . S
C534 C532 1.419 . S
C534 C535 1.362 . S
C535 H525 0.930 . S
C535 C528 1.409 . S
C535 C534 1.362 . S
H536 C542 0.930 . S
H537 C545 0.930 . S
H538 C546 0.930 . S
H539 C547 0.930 . S
H540 C550 0.930 . S
H541 C551 0.930 . S
C542 H536 0.930 . S
C542 C543 1.355 . S
C542 C544 1.415 . S
C543 C542 1.355 . S
C543 C545 1.419 . S
C544 C542 1.415 . S
C544 C549 1.425 . S
C544 C551 1.409 . S
C545 H537 0.930 . S
C545 C543 1.419 . S
C545 C546 1.362 . S
C546 H538 0.930 . S
C546 C545 1.362 . S
C546 C549 1.409 . S
C547 H539 0.930 . S
C547 C548 1.355 . S
C547 C549 1.415 . S
C548 C547 1.355 . S
C548 C550 1.419 . S
C549 C544 1.425 . S
C549 C546 1.409 . S
C549 C547 1.415 . S
C550 H540 0.930 . S
C550 C548 1.419 . S
C550 C551 1.362 . S
C551 H541 0.930 . S
C551 C544 1.409 . S
C551 C550 1.362 . S
H552 C558 0.930 . S
H553 C561 0.930 . S
H554 C562 0.930 . S
H555 C563 0.930 . S
H556 C566 0.930 . S
H557 C567 0.930 . S
C558 H552 0.930 . S
C558 C559 1.355 . S
C558 C560 1.415 . S
C559 C558 1.355 . S
C559 C561 1.419 . S
C560 C558 1.415 . S
C560 C565 1.425 . S
C560 C567 1.409 . S
C561 H553 0.930 . S
C561 C559 1.419 . S
C561 C562 1.362 . S
C562 H554 0.930 . S
C562 C561 1.362 . S
C562 C565 1.409 . S
C563 H555 0.930 . S
C563 C564 1.355 . S
C563 C565 1.415 . S
C564 C563 1.355 . S
C564 C566 1.419 . S
C565 C560 1.425 . S
C565 C562 1.409 . S
C565 C563 1.415 . S
C566 H556 0.930 . S
C566 C564 1.419 . S
C566 C567 1.362 . S
C567 H557 0.930 . S
C567 C560 1.409 . S
C567 C566 1.362 . S
H568 C574 0.930 . S
H569 C577 0.930 . S
H570 C578 0.930 . S
H571 C579 0.930 . S
H572 C582 0.930 . S
H573 C583 0.930 . S
C574 H568 0.930 . S
C574 C575 1.355 . S
C574 C576 1.415 . S
C575 C574 1.355 . S
C575 C577 1.419 . S
C576 C574 1.415 . S
C576 C581 1.426 1_556 S
C576 C583 1.409 . S
C577 H569 0.930 . S
C577 C575 1.419 . S
C577 C578 1.362 1_556 S
C578 H570 0.930 . S
C578 C577 1.362 1_554 S
C578 C581 1.409 . S
C579 H571 0.930 . S
C579 C580 1.355 . S
C579 C581 1.414 . S
C580 C579 1.355 . S
C580 C582 1.419 1_554 S
C581 C576 1.426 1_554 S
C581 C578 1.409 . S
C581 C579 1.414 . S
C582 H572 0.930 . S
C582 C580 1.419 1_556 S
C582 C583 1.362 . S
C583 H573 0.930 . S
C583 C576 1.409 . S
C583 C582 1.362 . S
H584 C590 0.914 1_455 S
H585 C593 0.930 . S
H586 C594 0.930 . S
H587 C595 0.930 . S
H588 C598 0.930 . S
H589 C599 0.930 . S
C590 H584 0.914 1_655 S
C590 C591 1.355 . S
C590 C592 1.415 . S
C591 C590 1.355 . S
C591 C593 1.419 . S
C592 C590 1.415 . S
C592 C597 1.425 . S
C592 C599 1.409 1_655 S
C593 H585 0.930 . S
C593 C591 1.419 . S
C593 C594 1.362 . S
C594 H586 0.930 . S
C594 C593 1.362 . S
C594 C597 1.409 . S
C595 H587 0.930 . S
C595 C596 1.355 . S
C595 C597 1.415 . S
C596 C595 1.355 . S
C596 C598 1.419 1_655 S
C597 C592 1.425 . S
C597 C594 1.409 . S
C597 C595 1.415 . S
C598 H588 0.930 . S
C598 C596 1.419 1_455 S
C598 C599 1.362 . S
C599 H589 0.930 . S
C599 C592 1.409 1_455 S
C599 C598 1.362 . S
H600 C606 0.930 . S
H601 C609 0.930 . S
H602 C610 0.930 . S
H603 C611 0.930 . S
H604 C614 0.930 . S
H605 C615 0.930 . S
C606 H600 0.930 . S
C606 C607 1.355 . S
C606 C608 1.415 . S
C607 C606 1.355 . S
C607 C609 1.419 . S
C608 C606 1.415 . S
C608 C613 1.425 . S
C608 C615 1.409 . S
C609 H601 0.930 . S
C609 C607 1.419 . S
C609 C610 1.362 . S
C610 H602 0.930 . S
C610 C609 1.362 . S
C610 C613 1.409 . S
C611 H603 0.930 . S
C611 C612 1.355 . S
C611 C613 1.415 . S
C612 C611 1.355 . S
C612 C614 1.419 . S
C613 C608 1.425 . S
C613 C610 1.409 . S
C613 C611 1.415 . S
C614 H604 0.930 . S
C614 C612 1.419 . S
C614 C615 1.362 . S
C615 H605 0.930 . S
C615 C608 1.409 . S
C615 C614 1.362 . S
H616 C622 0.930 . S
H617 C625 0.930 . S
H618 C626 0.930 . S
H619 C627 0.930 . S
H620 C630 0.930 . S
H621 C631 0.930 . S
C622 H616 0.930 . S
C622 C623 1.355 . S
C622 C624 1.415 . S
C623 C622 1.355 . S
C623 C625 1.419 . S
C624 C622 1.415 . S
C624 C629 1.425 . S
C624 C631 1.409 . S
C625 H617 0.930 . S
C625 C623 1.419 . S
C625 C626 1.362 . S
C626 H618 0.930 . S
C626 C625 1.362 . S
C626 C629 1.409 . S
C627 H619 0.930 . S
C627 C628 1.355 . S
C627 C629 1.415 . S
C628 C627 1.355 . S
C628 C630 1.419 . S
C629 C624 1.425 . S
C629 C626 1.409 . S
C629 C627 1.415 . S
C630 H620 0.930 . S
C630 C628 1.419 . S
C630 C631 1.362 . S
C631 H621 0.930 . S
C631 C624 1.409 . S
C631 C630 1.362 . S
H632 C638 0.930 . S
H633 C641 0.930 . S
H634 C642 0.930 . S
H635 C643 0.930 . S
H636 C646 0.930 . S
H637 C647 0.930 . S
C638 H632 0.930 . S
C638 C639 1.355 . S
C638 C640 1.415 . S
C639 C638 1.355 . S
C639 C641 1.419 . S
C640 C638 1.415 . S
C640 C645 1.425 . S
C640 C647 1.409 . S
C641 H633 0.930 . S
C641 C639 1.419 . S
C641 C642 1.362 . S
C642 H634 0.930 . S
C642 C641 1.362 . S
C642 C645 1.409 . S
C643 H635 0.930 . S
C643 C644 1.355 . S
C643 C645 1.415 . S
C644 C643 1.355 . S
C644 C646 1.419 . S
C645 C640 1.425 . S
C645 C642 1.409 . S
C645 C643 1.415 . S
C646 H636 0.930 . S
C646 C644 1.419 . S
C646 C647 1.362 . S
C647 H637 0.930 . S
C647 C640 1.409 . S
C647 C646 1.362 . S
H648 C654 0.930 . S
H649 C657 0.930 . S
H650 C658 0.930 . S
H651 C659 0.930 . S
H652 C662 0.930 . S
H653 C663 0.930 . S
C654 H648 0.930 . S
C654 C655 1.355 . S
C654 C656 1.415 . S
C655 C654 1.355 . S
C655 C657 1.419 . S
C656 C654 1.415 . S
C656 C661 1.425 . S
C656 C663 1.409 . S
C657 H649 0.930 . S
C657 C655 1.419 . S
C657 C658 1.362 . S
C658 H650 0.930 . S
C658 C657 1.362 . S
C658 C661 1.409 . S
C659 H651 0.930 . S
C659 C660 1.355 . S
C659 C661 1.415 . S
C660 C659 1.355 . S
C660 C662 1.419 . S
C661 C656 1.425 . S
C661 C658 1.409 . S
C661 C659 1.415 . S
C662 H652 0.930 . S
C662 C660 1.419 . S
C662 C663 1.362 . S
C663 H653 0.930 . S
C663 C656 1.409 . S
C663 C662 1.362 . S
H664 C670 0.930 . S
H665 C673 0.930 . S
H666 C674 0.930 . S
H667 C675 0.930 . S
H668 C678 0.930 . S
H669 C679 0.930 . S
C670 H664 0.930 . S
C670 C671 1.355 . S
C670 C672 1.415 . S
C671 C670 1.355 . S
C671 C673 1.419 . S
C672 C670 1.415 . S
C672 C677 1.425 . S
C672 C679 1.409 . S
C673 H665 0.930 . S
C673 C671 1.419 . S
C673 C674 1.362 . S
C674 H666 0.930 . S
C674 C673 1.362 . S
C674 C677 1.409 . S
C675 H667 0.930 . S
C675 C676 1.355 . S
C675 C677 1.415 . S
C676 C675 1.355 . S
C676 C678 1.419 . S
C677 C672 1.425 . S
C677 C674 1.409 . S
C677 C675 1.415 . S
C678 H668 0.930 . S
C678 C676 1.419 . S
C678 C679 1.362 . S
C679 H669 0.930 . S
C679 C672 1.409 . S
C679 C678 1.362 . S
H680 C686 0.930 . S
H681 C689 0.930 . S
H682 C690 0.930 . S
H683 C691 0.930 . S
H684 C694 0.930 . S
H685 C695 0.930 . S
C686 H680 0.930 . S
C686 C687 1.355 . S
C686 C688 1.415 . S
C687 C686 1.355 . S
C687 C689 1.419 . S
C688 C686 1.415 . S
C688 C693 1.425 . S
C688 C695 1.409 . S
C689 H681 0.930 . S
C689 C687 1.419 . S
C689 C690 1.362 . S
C690 H682 0.930 . S
C690 C689 1.362 . S
C690 C693 1.409 . S
C691 H683 0.930 . S
C691 C692 1.355 . S
C691 C693 1.415 . S
C692 C691 1.355 . S
C692 C694 1.419 . S
C693 C688 1.425 . S
C693 C690 1.409 . S
C693 C691 1.415 . S
C694 H684 0.930 . S
C694 C692 1.419 . S
C694 C695 1.362 . S
C695 H685 0.930 . S
C695 C688 1.409 . S
C695 C694 1.362 . S
C319 C6 1.142 . S
C324 C169 1.204 . S
C335 C21 1.390 . S
C340 C209 1.460 . S
C356 C234 1.917 . S
C351 C49 1.924 . S
C367 C68 2.158 . S
C372 C274 2.230 1_655 S
C388 C205 2.449 . S
C383 C2 2.366 . S
C404 C165 1.517 . S
C399 C30 1.494 . S
C420 C296 1.681 . S
C415 C40 1.692 . S
C436 C256 1.582 . S
C431 C63 1.657 . S
C447 C11 1.141 . S
C452 C298 1.276 . S
C468 C215 2.453 . S
C463 C44 2.482 . S
C479 C59 1.788 . S
C484 C175 1.778 . S
C495 C25 1.893 . S
C500 C258 1.853 . S
C516 C178 1.370 . S
C511 C82 1.335 . S
C527 C101 1.220 . S
C532 C218 1.235 . S
C543 C125 2.239 . S
C548 C255 2.235 . S
C559 C144 1.938 . S
C564 C295 1.979 . S
C575 C87 1.498 . S
C580 C216 1.544 . S
C596 C176 2.386 . S
C591 C97 2.262 . S
C612 C285 1.546 . S
C607 C120 1.635 . S
C628 C245 1.686 . S
C623 C135 1.705 . S
C639 C78 1.877 . S
C644 C289 1.935 . S
C660 C194 1.754 . S
C655 C116 1.764 . S
C676 C154 2.396 . S
C671 C139 2.454 . S
C687 C106 0.903 . S
C692 C249 1.277 . S
