# Generated by pormake.
# Topology zzz, (3,6)-cn, num edge types: 1
# Building blocks:
#     Node 0, Type 0, BuildingBlock: KAKCAD_clean_linker_0, # of connection points: 3
#     Node 1, Type 0, BuildingBlock: KAKCAD_clean_linker_0, # of connection points: 3
#     Node 2, Type 0, BuildingBlock: KAKCAD_clean_linker_0, # of connection points: 3
#     Node 3, Type 0, BuildingBlock: KAKCAD_clean_linker_0, # of connection points: 3
#     Node 4, Type 0, BuildingBlock: KAKCAD_clean_linker_0, # of connection points: 3
#     Node 5, Type 0, BuildingBlock: KAKCAD_clean_linker_0, # of connection points: 3
#     Node 6, Type 0, BuildingBlock: KAKCAD_clean_linker_0, # of connection points: 3
#     Node 7, Type 0, BuildingBlock: KAKCAD_clean_linker_0, # of connection points: 3
#     Node 8, Type 1, BuildingBlock: KUMBUR_clean_sbu_1, # of connection points: 6
#     Node 9, Type 1, BuildingBlock: KUMBUR_clean_sbu_1, # of connection points: 6
#     Node 10, Type 1, BuildingBlock: KUMBUR_clean_sbu_1, # of connection points: 6
#     Node 11, Type 1, BuildingBlock: KUMBUR_clean_sbu_1, # of connection points: 6
#     Edge 12, Type (0, 1), BuildingBlock: MIFKUJ_clean_linker_0, # of connection points: 2
#     Edge 13, Type (0, 1), BuildingBlock: MIFKUJ_clean_linker_0, # of connection points: 2
#     Edge 14, Type (0, 1), BuildingBlock: MIFKUJ_clean_linker_0, # of connection points: 2
#     Edge 15, Type (0, 1), BuildingBlock: MIFKUJ_clean_linker_0, # of connection points: 2
#     Edge 16, Type (0, 1), BuildingBlock: MIFKUJ_clean_linker_0, # of connection points: 2
#     Edge 17, Type (0, 1), BuildingBlock: MIFKUJ_clean_linker_0, # of connection points: 2
#     Edge 18, Type (0, 1), BuildingBlock: MIFKUJ_clean_linker_0, # of connection points: 2
#     Edge 19, Type (0, 1), BuildingBlock: MIFKUJ_clean_linker_0, # of connection points: 2
#     Edge 20, Type (0, 1), BuildingBlock: MIFKUJ_clean_linker_0, # of connection points: 2
#     Edge 21, Type (0, 1), BuildingBlock: MIFKUJ_clean_linker_0, # of connection points: 2
#     Edge 22, Type (0, 1), BuildingBlock: MIFKUJ_clean_linker_0, # of connection points: 2
#     Edge 23, Type (0, 1), BuildingBlock: MIFKUJ_clean_linker_0, # of connection points: 2
#     Edge 24, Type (0, 1), BuildingBlock: MIFKUJ_clean_linker_0, # of connection points: 2
#     Edge 25, Type (0, 1), BuildingBlock: MIFKUJ_clean_linker_0, # of connection points: 2
#     Edge 26, Type (0, 1), BuildingBlock: MIFKUJ_clean_linker_0, # of connection points: 2
#     Edge 27, Type (0, 1), BuildingBlock: MIFKUJ_clean_linker_0, # of connection points: 2
#     Edge 28, Type (0, 1), BuildingBlock: MIFKUJ_clean_linker_0, # of connection points: 2
#     Edge 29, Type (0, 1), BuildingBlock: MIFKUJ_clean_linker_0, # of connection points: 2
#     Edge 30, Type (0, 1), BuildingBlock: MIFKUJ_clean_linker_0, # of connection points: 2
#     Edge 31, Type (0, 1), BuildingBlock: MIFKUJ_clean_linker_0, # of connection points: 2
#     Edge 32, Type (0, 1), BuildingBlock: MIFKUJ_clean_linker_0, # of connection points: 2
#     Edge 33, Type (0, 1), BuildingBlock: MIFKUJ_clean_linker_0, # of connection points: 2
#     Edge 34, Type (0, 1), BuildingBlock: MIFKUJ_clean_linker_0, # of connection points: 2
#     Edge 35, Type (0, 1), BuildingBlock: MIFKUJ_clean_linker_0, # of connection points: 2
# Relax obj value: 0.285
# Max RMSD: 0.209
# Mean RMSD: 0.179
data_MOF--net-zzz--node1-KUMBUR_clean_sbu_1--node2-KAKCAD_clean_linker_0--edge1-MIFKUJ_clean_linker_0
_symmetry_space_group_name_H-M    P1
_symmetry_Int_Tables_number       1
_symmetry_cell_setting            triclinic
loop_
_symmetry_equiv_pos_as_xyz
'x, y, z'
_cell_length_a     71.216508
_cell_length_b     71.291265
_cell_length_c     26.328607
_cell_angle_alpha  90.056335
_cell_angle_beta   89.789643
_cell_angle_gamma 90.402416
loop_
_atom_site_label
_atom_site_type_symbol
_atom_site_fract_x
_atom_site_fract_y
_atom_site_fract_z
_atom_type_partial_charge
C0 C 0.77045 0.57067 0.05087 0.0
C1 C 0.7864 0.55933 0.04989 0.0
C2 C 0.75761 0.56887 0.09077 0.0
C3 C 0.76072 0.55561 0.12925 0.0
C4 C 0.77651 0.54399 0.12697 0.0
C5 C 0.7893 0.54591 0.08771 0.0
C6 C 0.74755 0.55326 0.17167 0.0
C7 C 0.72843 0.55117 0.16261 0.0
C8 C 0.71596 0.54607 0.20152 0.0
C9 C 0.7234 0.54272 0.25144 0.0
C10 C 0.7431 0.54553 0.26087 0.0
C11 C 0.75457 0.55111 0.22054 0.0
C12 C 0.75367 0.54233 0.30966 0.0
C13 C 0.76152 0.55801 0.33478 0.0
C14 C 0.76237 0.52487 0.31775 0.0
C15 C 0.7789 0.52337 0.34717 0.0
C16 C 0.78754 0.53932 0.36922 0.0
C17 C 0.69579 0.54405 0.18483 0.0
C18 C 0.68677 0.55986 0.16424 0.0
C19 C 0.68835 0.52631 0.17224 0.0
C20 C 0.6731 0.52445 0.13817 0.0
C21 C 0.66493 0.54026 0.11447 0.0
C22 C 0.67175 0.55804 0.12977 0.0
C23 C 0.77807 0.55656 0.36392 0.0
H24 H 0.76809 0.58093 0.02128 0.0
H25 H 0.74543 0.57787 0.09188 0.0
H26 H 0.7789 0.53329 0.15539 0.0
H27 H 0.80142 0.53679 0.08653 0.0
H28 H 0.72328 0.55273 0.1241 0.0
H29 H 0.76952 0.55311 0.22688 0.0
H30 H 0.71417 0.53826 0.28192 0.0
H31 H 0.7558 0.57182 0.32805 0.0
H32 H 0.7574 0.51262 0.29737 0.0
H33 H 0.7856 0.50982 0.34951 0.0
H34 H 0.69246 0.57375 0.17138 0.0
H35 H 0.69521 0.51377 0.18577 0.0
H36 H 0.78385 0.56921 0.38062 0.0
H37 H 0.6664 0.57072 0.11276 0.0
H38 H 0.66824 0.51044 0.12916 0.0
C39 C 0.95292 0.77817 0.06288 0.0
C40 C 0.96916 0.78881 0.05286 0.0
C41 C 0.95343 0.76403 0.09936 0.0
C42 C 0.97015 0.76066 0.12547 0.0
C43 C 0.98655 0.77057 0.1134 0.0
C44 C 0.9861 0.78451 0.07704 0.0
C45 C 0.97068 0.74775 0.16791 0.0
C46 C 0.9717 0.72866 0.15888 0.0
C47 C 0.97577 0.71609 0.19801 0.0
C48 C 0.979 0.72352 0.24823 0.0
C49 C 0.97736 0.74338 0.25734 0.0
C50 C 0.97312 0.75496 0.2164 0.0
C51 C 0.98058 0.75395 0.30633 0.0
C52 C 0.96495 0.76143 0.33229 0.0
C53 C 0.99802 0.76301 0.314 0.0
C54 C 0.99958 0.77943 0.34398 0.0
C55 C 0.98372 0.78764 0.36748 0.0
C56 C 0.97693 0.69589 0.1809 0.0
C57 C 0.96117 0.68799 0.15605 0.0
C58 C 0.99447 0.68742 0.17187 0.0
C59 C 0.99628 0.67235 0.13701 0.0
C60 C 0.98071 0.66563 0.10907 0.0
C61 C 0.96305 0.67336 0.12044 0.0
C62 C 0.96649 0.77782 0.36241 0.0
H63 H 0.93978 0.78132 0.04425 0.0
H64 H 0.94073 0.75628 0.10861 0.0
H65 H 0.99957 0.76784 0.1332 0.0
H66 H 0.99886 0.79232 0.06883 0.0
H67 H 0.97012 0.72364 0.12014 0.0
H68 H 0.97245 0.77006 0.22183 0.0
H69 H 0.98256 0.71418 0.27906 0.0
H70 H 0.95113 0.75547 0.32586 0.0
H71 H 0.01022 0.75837 0.29289 0.0
H72 H 0.01313 0.78635 0.34568 0.0
H73 H 0.94752 0.69439 0.16064 0.0
H74 H 0.00702 0.69343 0.18853 0.0
H75 H 0.95388 0.78314 0.38017 0.0
H76 H 0.95069 0.66855 0.10026 0.0
H77 H 0.01013 0.66683 0.12933 0.0
C78 C 0.74971 0.95074 0.04391 0.0
C79 C 0.73361 0.96193 0.04411 0.0
C80 C 0.76321 0.95316 0.08174 0.0
C81 C 0.76064 0.96686 0.11949 0.0
C82 C 0.74494 0.97858 0.11784 0.0
C83 C 0.73151 0.97609 0.08057 0.0
C84 C 0.774 0.96912 0.16137 0.0
C85 C 0.79315 0.97076 0.15173 0.0
C86 C 0.8058 0.97535 0.19051 0.0
C87 C 0.7986 0.97858 0.24075 0.0
C88 C 0.77891 0.97626 0.25073 0.0
C89 C 0.76716 0.97124 0.21063 0.0
C90 C 0.76873 0.9797 0.29998 0.0
C91 C 0.76131 0.96422 0.32684 0.0
C92 C 0.75995 0.99714 0.30742 0.0
C93 C 0.74365 0.9988 0.33775 0.0
C94 C 0.7354 0.98305 0.36193 0.0
C95 C 0.82596 0.97699 0.17372 0.0
C96 C 0.83471 0.96101 0.153 0.0
C97 C 0.83376 0.99464 0.16162 0.0
C98 C 0.84911 0.99627 0.12762 0.0
C99 C 0.85695 0.9803 0.10396 0.0
C100 C 0.84987 0.96262 0.11876 0.0
C101 C 0.74507 0.96586 0.35744 0.0
H102 H 0.75155 0.9399 0.0155 0.0
H103 H 0.77534 0.94409 0.0823 0.0
H104 H 0.74297 0.98961 0.14566 0.0
H105 H 0.7194 0.98522 0.08032 0.0
H106 H 0.79822 0.96918 0.11302 0.0
H107 H 0.7522 0.96959 0.21758 0.0
H108 H 0.80801 0.98265 0.27106 0.0
H109 H 0.76715 0.9504 0.32068 0.0
H110 H 0.76464 0.00921 0.28573 0.0
H111 H 0.73683 0.0123 0.33907 0.0
H112 H 0.82879 0.94721 0.16013 0.0
H113 H 0.82703 0.00728 0.17516 0.0
H114 H 0.73971 0.95336 0.37589 0.0
H115 H 0.85557 0.94993 0.10237 0.0
H116 H 0.85399 0.01017 0.11726 0.0
C117 C 0.52614 0.74522 0.34361 0.0
C118 C 0.5417 0.73431 0.35931 0.0
C119 C 0.52845 0.76143 0.31304 0.0
C120 C 0.5464 0.76773 0.29817 0.0
C121 C 0.56193 0.75796 0.31774 0.0
C122 C 0.55968 0.74157 0.34696 0.0
C123 C 0.54916 0.77898 0.25012 0.0
C124 C 0.54499 0.79845 0.24242 0.0
C125 C 0.54883 0.80702 0.19409 0.0
C126 C 0.55605 0.79589 0.15491 0.0
C127 C 0.55959 0.77693 0.16204 0.0
C128 C 0.5563 0.7687 0.20918 0.0
C129 C 0.56464 0.76498 0.11875 0.0
C130 C 0.55362 0.76546 0.0748 0.0
C131 C 0.57859 0.7513 0.12377 0.0
C132 C 0.5805 0.7374 0.08701 0.0
C133 C 0.56845 0.73702 0.04497 0.0
C134 C 0.54553 0.82715 0.17952 0.0
C135 C 0.52756 0.833 0.16456 0.0
C136 C 0.561 0.83801 0.1628 0.0
C137 C 0.55876 0.85322 0.12929 0.0
C138 C 0.54087 0.85839 0.1113 0.0
C139 C 0.52524 0.84843 0.13149 0.0
C140 C 0.55548 0.75156 0.0382 0.0
H141 H 0.51196 0.74097 0.35304 0.0
H142 H 0.5161 0.76821 0.29798 0.0
H143 H 0.57601 0.76201 0.30615 0.0
H144 H 0.57229 0.73409 0.35677 0.0
H145 H 0.53926 0.80672 0.27321 0.0
H146 H 0.55864 0.75376 0.21355 0.0
H147 H 0.55861 0.80199 0.11773 0.0
H148 H 0.5426 0.77573 0.07053 0.0
H149 H 0.58732 0.75083 0.15735 0.0
H150 H 0.5907 0.72641 0.09273 0.0
H151 H 0.51534 0.82474 0.17521 0.0
H152 H 0.57512 0.8336 0.17195 0.0
H153 H 0.54576 0.75144 0.00664 0.0
H154 H 0.51113 0.85202 0.12028 0.0
H155 H 0.57131 0.86003 0.11495 0.0
C156 C 0.24841 0.47138 0.18887 0.0
C157 C 0.23326 0.4589 0.18264 0.0
C158 C 0.26234 0.47261 0.15197 0.0
C159 C 0.2613 0.46142 0.10819 0.0
C160 C 0.24701 0.44787 0.10389 0.0
C161 C 0.23306 0.4466 0.14096 0.0
C162 C 0.27322 0.46619 0.06428 0.0
C163 C 0.29214 0.4704 0.07121 0.0
C164 C 0.30288 0.47878 0.0328 0.0
C165 C 0.29412 0.48251 0.98474 0.0
C166 C 0.27483 0.47724 0.97661 0.0
C167 C 0.26486 0.46928 0.01725 0.0
C168 C 0.26336 0.48001 0.92885 0.0
C169 C 0.25718 0.49795 0.91411 0.0
C170 C 0.2536 0.46437 0.90852 0.0
C171 C 0.23752 0.46652 0.8781 0.0
C172 C 0.23072 0.4844 0.86577 0.0
C173 C 0.32252 0.48406 0.04885 0.0
C174 C 0.3252 0.5005 0.07774 0.0
C175 C 0.33615 0.46993 0.05368 0.0
C176 C 0.35138 0.4718 0.08769 0.0
C177 C 0.35345 0.48778 0.11925 0.0
C178 C 0.34028 0.50234 0.11215 0.0
C179 C 0.24118 0.5001 0.88269 0.0
H180 H 0.2488 0.48123 0.22021 0.0
H181 H 0.27306 0.48337 0.15585 0.0
H182 H 0.24608 0.43898 0.07057 0.0
H183 H 0.22164 0.43668 0.13578 0.0
H184 H 0.29841 0.46789 0.1081 0.0
H185 H 0.24997 0.46639 0.01299 0.0
H186 H 0.30207 0.48922 0.95462 0.0
H187 H 0.26381 0.51034 0.93 0.0
H188 H 0.25753 0.45033 0.91985 0.0
H189 H 0.22988 0.45412 0.86599 0.0
H190 H 0.31461 0.51133 0.07714 0.0
H191 H 0.33424 0.45673 0.03385 0.0
H192 H 0.23633 0.5141 0.87408 0.0
H193 H 0.34077 0.5148 0.13552 0.0
H194 H 0.36114 0.4603 0.0903 0.0
C195 C 0.05468 0.25201 0.18259 0.0
C196 C 0.0655 0.2358 0.17603 0.0
C197 C 0.05412 0.26552 0.14472 0.0
C198 C 0.06437 0.26312 0.09952 0.0
C199 C 0.07633 0.24765 0.09458 0.0
C200 C 0.07688 0.23406 0.13263 0.0
C201 C 0.06003 0.27508 0.05546 0.0
C202 C 0.05674 0.29416 0.06257 0.0
C203 C 0.04756 0.30482 0.02579 0.0
C204 C 0.0423 0.29603 0.97906 0.0
C205 C 0.04693 0.27682 0.97016 0.0
C206 C 0.05575 0.26675 0.00884 0.0
C207 C 0.04156 0.26546 0.92431 0.0
C208 C 0.02451 0.25536 0.92472 0.0
C209 C 0.05567 0.25952 0.89032 0.0
C210 C 0.05313 0.24351 0.85945 0.0
C211 C 0.03652 0.23266 0.86234 0.0
C212 C 0.04236 0.32421 0.04257 0.0
C213 C 0.02577 0.3266 0.07101 0.0
C214 C 0.05656 0.33796 0.04758 0.0
C215 C 0.05467 0.35302 0.08198 0.0
C216 C 0.03862 0.35464 0.11323 0.0
C217 C 0.02392 0.34155 0.1057 0.0
C218 C 0.02203 0.23924 0.89431 0.0
H219 H 0.04549 0.2536 0.21516 0.0
H220 H 0.04447 0.27709 0.1493 0.0
H221 H 0.08449 0.24558 0.06026 0.0
H222 H 0.08549 0.22175 0.127 0.0
H223 H 0.06021 0.30054 0.09884 0.0
H224 H 0.05802 0.25182 1.00375 0.0
H225 H 0.03467 0.30386 0.9507 0.0
H226 H 0.0136 0.25905 0.95166 0.0
H227 H 0.06926 0.26645 0.89046 0.0
H228 H 0.06473 0.23892 0.8359 0.0
H229 H 0.01484 0.31597 0.0697 0.0
H230 H 0.06982 0.33618 0.02796 0.0
H231 H 0.00896 0.23147 0.89741 0.0
H232 H 0.01122 0.34237 0.12828 0.0
H233 H 0.06638 0.36262 0.08661 0.0
C234 C 0.2686 0.05681 0.18414 0.0
C235 C 0.28353 0.06975 0.18196 0.0
C236 C 0.25586 0.05558 0.1446 0.0
C237 C 0.2578 0.06715 0.10177 0.0
C238 C 0.27203 0.08082 0.10053 0.0
C239 C 0.28471 0.08225 0.14067 0.0
C240 C 0.24649 0.06281 0.05657 0.0
C241 C 0.22749 0.05866 0.06276 0.0
C242 C 0.2176 0.04839 0.02632 0.0
C243 C 0.22698 0.04321 0.98035 0.0
C244 C 0.24601 0.04902 0.97185 0.0
C245 C 0.25541 0.05876 0.01056 0.0
C246 C 0.25787 0.04382 0.92673 0.0
C247 C 0.26783 0.02685 0.92701 0.0
C248 C 0.26395 0.05793 0.89283 0.0
C249 C 0.27989 0.05543 0.86164 0.0
C250 C 0.29057 0.03887 0.86417 0.0
C251 C 0.19869 0.0416 0.04377 0.0
C252 C 0.198 0.02599 0.07648 0.0
C253 C 0.1836 0.0543 0.04575 0.0
C254 C 0.16885 0.052 0.08125 0.0
C255 C 0.16904 0.0372 0.11671 0.0
C256 C 0.1835 0.02389 0.11255 0.0
C257 C 0.28392 0.02442 0.89632 0.0
H258 H 0.26748 0.04663 0.21452 0.0
H259 H 0.24525 0.04461 0.14602 0.0
H260 H 0.27374 0.08987 0.06778 0.0
H261 H 0.29594 0.09253 0.13825 0.0
H262 H 0.22077 0.06193 0.09877 0.0
H263 H 0.27028 0.06182 1.00636 0.0
H264 H 0.21979 0.0347 0.95236 0.0
H265 H 0.26402 0.01595 0.95382 0.0
H266 H 0.2571 0.07146 0.89301 0.0
H267 H 0.28456 0.06699 0.83797 0.0
H268 H 0.20969 0.01637 0.07761 0.0
H269 H 0.18405 0.06691 0.02286 0.0
H270 H 0.29157 0.0114 0.89918 0.0
H271 H 0.18409 0.01227 0.13895 0.0
H272 H 0.15806 0.0626 0.08346 0.0
C273 C 0.46513 0.27814 0.85992 0.0
C274 C 0.48205 0.28859 0.85945 0.0
C275 C 0.46295 0.26203 0.89058 0.0
C276 C 0.47757 0.2556 0.92205 0.0
C277 C 0.49488 0.26522 0.91895 0.0
C278 C 0.49712 0.28134 0.88816 0.0
C279 C 0.47258 0.24511 0.97007 0.0
C280 C 0.47879 0.22681 0.98473 0.0
C281 C 0.4746 0.21981 0.03465 0.0
C282 C 0.46579 0.23182 0.06942 0.0
C283 C 0.46033 0.24992 0.05565 0.0
C284 C 0.46251 0.2557 1.00533 0.0
C285 C 0.45525 0.26393 0.09492 0.0
C286 C 0.44561 0.25873 0.13957 0.0
C287 C 0.46196 0.28249 0.09002 0.0
C288 C 0.45951 0.29533 0.12895 0.0
C289 C 0.45079 0.28981 0.17419 0.0
C290 C 0.48008 0.20094 0.05563 0.0
C291 C 0.46673 0.18623 0.05803 0.0
C292 C 0.49572 0.19974 0.08805 0.0
C293 C 0.49756 0.18488 0.12302 0.0
C294 C 0.4838 0.17059 0.12724 0.0
C295 C 0.46865 0.17121 0.09277 0.0
C296 C 0.44366 0.27155 0.17938 0.0
H297 H 0.4532 0.28279 0.83803 0.0
H298 H 0.4492 0.25548 0.89304 0.0
H299 H 0.50624 0.26131 0.94396 0.0
H300 H 0.51037 0.28884 0.88976 0.0
H301 H 0.48672 0.21832 0.95827 0.0
H302 H 0.45761 0.26949 0.99436 0.0
H303 H 0.46414 0.22724 0.10845 0.0
H304 H 0.44013 0.24465 0.14446 0.0
H305 H 0.4701 0.28696 0.05736 0.0
H306 H 0.46558 0.30925 0.12505 0.0
H307 H 0.45409 0.18702 0.0354 0.0
H308 H 0.50592 0.21108 0.08888 0.0
H309 H 0.43714 0.2671 0.21464 0.0
H310 H 0.45762 0.16071 0.09471 0.0
H311 H 0.50958 0.18495 0.14808 0.0
Tb312 Tb 0.99414 0.02153 0.56753 0.0
C313 C 0.06347 0.02632 0.71328 0.0
N314 N 0.06129 0.01711 0.66837 0.0
C315 C 0.09321 0.02471 0.64566 0.0
C316 C 0.08038 0.03576 0.72503 0.0
C317 C 0.07636 0.0152 0.63625 0.0
C318 C 0.09513 0.03532 0.68986 0.0
C319 C 0.05139 0.03354 0.79739 0.0
C320 C 0.0493 0.025 0.7494 0.0
C321 C 0.0679 0.04353 0.80843 0.0
C322 C 0.08241 0.04453 0.77247 0.0
Tb323 Tb 0.03304 1.00178 0.65862 0.0
N324 N 0.03375 0.01469 0.73814 0.0
C325 C 0.0371 0.03121 0.83352 0.0
C326 C 0.02049 0.01119 0.77468 0.0
C327 C 0.0217 0.01976 0.82231 0.0
H328 H 0.07551 1.00623 0.60319 0.0
H329 H 0.01094 0.01721 0.85068 0.0
H330 H 0.9554 0.0106 0.63259 0.0
H331 H 0.00721 0.02092 0.36443 0.0
H332 H 0.00927 1.00136 0.76779 0.0
H333 H 0.03816 0.03762 0.87074 0.0
H334 H 0.01255 0.03097 0.45273 0.0
H335 H 0.10483 0.02353 0.61929 0.0
H336 H 0.06982 0.05 0.8453 0.0
H337 H 0.09539 0.05164 0.78225 0.0
H338 H 0.92679 0.9918 0.61912 0.0
H339 H 0.10832 0.04242 0.6975 0.0
H340 H 0.98078 0.99951 0.34412 0.0
N341 N 0.96617 1.00606 0.55816 0.0
C342 C 0.96248 0.99932 0.51099 0.0
C343 C 0.93682 0.9936 0.5885 0.0
C344 C 0.94599 0.98891 0.50102 0.0
C345 C 0.95328 1.00399 0.59632 0.0
C346 C 0.93327 0.9858 0.5408 0.0
N347 N 0.99022 0.01428 0.48324 0.0
C348 C 1.00119 0.02128 0.44471 0.0
C349 C 0.97113 0.99777 0.42208 0.0
C350 C 0.97497 1.00352 0.47226 0.0
C351 C 0.98321 1.00367 0.38315 0.0
C352 C 0.99813 0.01575 0.39444 0.0
H353 H 0.92044 0.97787 0.53472 0.0
H354 H 0.92999 0.9743 0.44315 0.0
H355 H 0.95178 0.9825 0.3738 0.0
O356 O 0.99536 0.04651 0.52699 0.0
O357 O 0.99237 0.99073 0.57845 0.0
O358 O 0.02309 0.98303 0.59646 0.0
O359 O 0.97155 0.04067 0.57735 0.0
O360 O 0.0199 0.01172 0.52931 0.0
O361 O 0.04343 0.01551 0.58831 0.0
O362 O 0.03683 0.98192 0.71601 0.0
O363 O 0.02207 0.02974 0.6777 0.0
O364 O 0.01655 0.04008 0.59776 0.0
O365 O 0.05442 0.98182 0.64992 0.0
O366 O 1.00345 0.99431 0.67604 0.0
O367 O 0.98799 0.02076 0.64975 0.0
C368 C 0.00612 0.97838 0.58 0.0
C369 C 0.97204 0.07069 0.53157 0.0
C370 C 0.977 0.10087 0.49058 0.0
C371 C 0.95988 0.10718 0.51054 0.0
C372 C 0.95481 0.07699 0.55083 0.0
C373 C 0.94876 0.09518 0.54016 0.0
C374 C 0.98293 0.08263 0.50092 0.0
C375 C 0.03767 0.01449 0.54082 0.0
C376 C 0.97956 0.05234 0.54585 0.0
C377 C 0.94253 0.9824 0.45157 0.0
C378 C 0.95502 0.98694 0.41212 0.0
C379 C 0.0198 0.04368 0.64592 0.0
C380 C 0.04699 0.95256 0.68655 0.0
C381 C 0.03139 0.92407 0.71485 0.0
C382 C 0.04075 0.91386 0.67698 0.0
C383 C 0.05673 0.94217 0.64962 0.0
C384 C 0.03457 0.94331 0.71954 0.0
C385 C 0.05349 0.9229 0.64473 0.0
C386 C 0.98933 1.00614 0.68002 0.0
C387 C 0.04969 0.97294 0.69107 0.0
H388 H 0.95508 0.12127 0.5028 0.0
H389 H 0.9462 0.06801 0.5747 0.0
H390 H 0.93551 0.10005 0.55528 0.0
H391 H 0.99638 0.07801 0.48618 0.0
H392 H 0.03853 0.89887 0.67319 0.0
H393 H 0.06663 0.94895 0.62416 0.0
H394 H 0.02717 0.95105 0.74885 0.0
H395 H 0.06089 0.91498 0.61596 0.0
Tb396 Tb 0.52056 0.03016 0.6638 0.0
C397 C 0.50579 0.94845 0.56359 0.0
N398 N 0.51442 0.96368 0.54289 0.0
C399 C 0.5347 0.94355 0.4945 0.0
C400 C 0.51125 0.9301 0.55025 0.0
C401 C 0.52873 0.96145 0.50852 0.0
C402 C 0.52593 0.92779 0.51541 0.0
C403 C 0.48165 0.93572 0.61914 0.0
C404 C 0.49127 0.95125 0.5979 0.0
C405 C 0.48703 0.91745 0.60593 0.0
C406 C 0.50181 0.91464 0.57164 0.0
Tb407 Tb 0.50219 0.99211 0.5656 0.0
N408 N 0.4865 0.96916 0.61018 0.0
C409 C 0.46675 0.939 0.65262 0.0
C410 C 0.47156 0.9723 0.64171 0.0
C411 C 0.46165 0.95738 0.66375 0.0
H412 H 0.53514 0.97344 0.49019 0.0
H413 H 0.44994 0.9601 0.68896 0.0
H414 H 0.48193 0.04764 0.71777 0.0
H415 H 0.58449 0.06629 0.60927 0.0
H416 H 0.46677 0.98608 0.64956 0.0
H417 H 0.459 0.92746 0.66964 0.0
H418 H 0.56577 0.03962 0.64127 0.0
H419 H 0.54591 0.94193 0.467 0.0
H420 H 0.4798 0.90539 0.62187 0.0
H421 H 0.50577 0.90046 0.56167 0.0
H422 H 0.46558 0.07775 0.71975 0.0
H423 H 0.53048 0.91393 0.5041 0.0
H424 H 0.56943 0.09706 0.59565 0.0
N425 N 0.50488 0.05781 0.6737 0.0
C426 C 0.51369 0.07329 0.65502 0.0
C427 C 0.47894 0.07668 0.70062 0.0
C428 C 0.50513 0.09105 0.65672 0.0
C429 C 0.48807 0.05943 0.69832 0.0
C430 C 0.48734 0.09253 0.679 0.0
N431 N 0.5398 0.0542 0.63841 0.0
C432 C 0.55876 0.05256 0.63232 0.0
C433 C 0.54203 0.08731 0.62043 0.0
C434 C 0.53179 0.07141 0.63663 0.0
C435 C 0.56102 0.0852 0.60814 0.0
C436 C 0.56955 0.06784 0.61555 0.0
H437 H 0.48028 0.10592 0.68131 0.0
H438 H 0.50842 0.12051 0.63818 0.0
H439 H 0.54083 0.11726 0.60661 0.0
O440 O 0.54162 0.0212 0.71241 0.0
O441 O 0.50869 0.04163 0.59223 0.0
O442 O 0.51365 0.01827 0.53353 0.0
O443 O 0.52134 0.04172 0.73733 0.0
O444 O 0.54328 0.01624 0.61914 0.0
O445 O 0.53187 0.99881 0.55054 0.0
O446 O 0.47542 0.99294 0.53287 0.0
O447 O 0.51614 0.98016 0.63334 0.0
O448 O 0.50917 1.00313 0.68956 0.0
O449 O 0.50003 0.98488 0.48813 0.0
O450 O 0.48161 0.01267 0.59699 0.0
O451 O 0.49223 0.01896 0.677 0.0
C452 C 0.50925 0.03568 0.5447 0.0
C453 C 0.55112 0.04153 0.7779 0.0
C454 C 0.58034 0.03798 0.82348 0.0
C455 C 0.57852 0.05612 0.84336 0.0
C456 C 0.54938 0.05983 0.79712 0.0
C457 C 0.56312 0.06708 0.82971 0.0
C458 C 0.56668 0.03081 0.79099 0.0
C459 C 0.54578 1.00604 0.57747 0.0
C460 C 0.5362 0.03221 0.74914 0.0
C461 C 0.51483 0.10676 0.63762 0.0
C462 C 0.53326 0.1049 0.61953 0.0
C463 C 0.51662 0.98674 0.67997 0.0
C464 C 0.47017 0.98515 0.44474 0.0
C465 C 0.44309 0.99514 0.39727 0.0
C466 C 0.44929 0.98476 0.35517 0.0
C467 C 0.47633 0.97465 0.40281 0.0
C468 C 0.45334 0.99503 0.44219 0.0
C469 C 0.46577 0.97435 0.35824 0.0
C470 C 0.47854 0.01865 0.64372 0.0
C471 C 0.48209 0.98761 0.48907 0.0
H472 H 0.58902 0.06178 0.86887 0.0
H473 H 0.53732 0.06833 0.7879 0.0
H474 H 0.56172 0.08111 0.84488 0.0
H475 H 0.56795 0.01652 0.77711 0.0
H476 H 0.44144 0.98483 0.32 0.0
H477 H 0.48941 0.96701 0.4042 0.0
H478 H 0.44874 1.00355 0.47403 0.0
H479 H 0.47058 0.96639 0.32575 0.0
Tb480 Tb 0.53087 0.50183 0.57305 0.0
C481 C 0.45794 0.49665 0.69843 0.0
N482 N 0.46183 0.50724 0.65666 0.0
C483 C 0.43068 0.5017 0.6252 0.0
C484 C 0.44024 0.48798 0.70481 0.0
C485 C 0.4484 0.51008 0.6205 0.0
C486 C 0.42658 0.49058 0.66746 0.0
C487 C 0.46841 0.48322 0.77813 0.0
C488 C 0.47191 0.49426 0.73465 0.0
C489 C 0.45076 0.47463 0.78465 0.0
C490 C 0.43673 0.47701 0.74812 0.0
Tb491 Tb 0.4907 0.52137 0.65665 0.0
N492 N 0.48903 0.50241 0.72659 0.0
C493 C 0.48272 0.48119 0.8139 0.0
C494 C 0.50261 0.50131 0.76293 0.0
C495 C 0.49982 0.49044 0.80647 0.0
H496 H 0.45094 0.51941 0.58898 0.0
H497 H 0.51076 0.48953 0.83481 0.0
H498 H 0.5708 0.50098 0.63899 0.0
H499 H 0.51343 0.53312 0.39214 0.0
H500 H 0.51531 0.50928 0.76004 0.0
H501 H 0.48057 0.47286 0.84785 0.0
H502 H 0.50792 0.51336 0.46648 0.0
H503 H 0.42009 0.50407 0.59657 0.0
H504 H 0.44782 0.46613 0.81786 0.0
H505 H 0.42319 0.47028 0.75372 0.0
H506 H 0.60244 0.51482 0.63226 0.0
H507 H 0.41279 0.4842 0.67108 0.0
H508 H 0.54421 0.54867 0.37973 0.0
N509 N 0.56078 0.51371 0.57131 0.0
C510 C 0.56528 0.52421 0.52989 0.0
C511 C 0.59207 0.51773 0.60345 0.0
C512 C 0.58336 0.53208 0.52392 0.0
C513 C 0.57395 0.51021 0.60769 0.0
C514 C 0.59679 0.52877 0.56148 0.0
N515 N 0.53429 0.51939 0.50072 0.0
C516 C 0.52095 0.52083 0.46384 0.0
C517 C 0.55574 0.5379 0.44978 0.0
C518 C 0.55165 0.52705 0.49325 0.0
C519 C 0.54167 0.54038 0.41356 0.0
C520 C 0.52425 0.53168 0.4205 0.0
H521 H 0.61086 0.53452 0.55821 0.0
H522 H 0.60132 0.54905 0.47543 0.0
H523 H 0.57711 0.55419 0.4106 0.0
O524 O 0.52521 0.47923 0.52378 0.0
O525 O 0.52959 0.533 0.57682 0.0
O526 O 0.49893 0.54103 0.59535 0.0
O527 O 0.5531 0.48343 0.55651 0.0
O528 O 0.50142 0.49675 0.54756 0.0
O529 O 0.48427 0.522 0.57508 0.0
O530 O 0.49217 0.53996 0.7183 0.0
O531 O 0.49195 0.49031 0.64592 0.0
O532 O 0.52332 0.48467 0.63937 0.0
O533 O 0.4676 0.53874 0.67117 0.0
O534 O 0.52 0.52867 0.67923 0.0
O535 O 0.53712 0.50313 0.65464 0.0
C536 C 0.51567 0.54514 0.5764 0.0
C537 C 0.54921 0.45665 0.50085 0.0
C538 C 0.54255 0.42703 0.45852 0.0
C539 C 0.56194 0.42435 0.45142 0.0
C540 C 0.56851 0.45377 0.49385 0.0
C541 C 0.57481 0.43767 0.46913 0.0
C542 C 0.53632 0.44325 0.48337 0.0
C543 C 0.48678 0.50794 0.54337 0.0
C544 C 0.54243 0.47331 0.52748 0.0
C545 C 0.58749 0.5429 0.4807 0.0
C546 C 0.57371 0.54583 0.44377 0.0
C547 C 0.50624 0.47873 0.64982 0.0
C548 C 0.47299 0.56708 0.71584 0.0
C549 C 0.48236 0.59663 0.75492 0.0
C550 C 0.46522 0.60451 0.73999 0.0
C551 C 0.45607 0.57531 0.70039 0.0
C552 C 0.48614 0.57787 0.74296 0.0
C553 C 0.45227 0.59394 0.71239 0.0
C554 C 0.535 0.51799 0.68372 0.0
C555 C 0.47557 0.54677 0.70977 0.0
H556 H 0.56715 0.41212 0.43163 0.0
H557 H 0.57869 0.46396 0.50731 0.0
H558 H 0.58971 0.43553 0.46352 0.0
H559 H 0.52144 0.44528 0.49006 0.0
H560 H 0.46185 0.61887 0.74969 0.0
H561 H 0.44555 0.56719 0.68029 0.0
H562 H 0.49923 0.57169 0.75524 0.0
H563 H 0.43913 0.60014 0.70087 0.0
Tb564 Tb 0.02202 0.53431 0.56216 0.0
C565 C 0.0231 0.46629 0.70933 0.0
N566 N 0.01756 0.4685 0.66024 0.0
C567 C 0.03288 0.43966 0.63797 0.0
C568 C 0.03426 0.45097 0.72415 0.0
C569 C 0.02177 0.45501 0.62515 0.0
C570 C 0.03937 0.43774 0.68753 0.0
C571 C 0.02138 0.47662 0.79713 0.0
C572 C 0.01674 0.47893 0.7455 0.0
C573 C 0.03309 0.46182 0.81162 0.0
C574 C 0.03941 0.44897 0.77526 0.0
Tb575 Tb 0.99947 0.49451 0.64543 0.0
N576 N 1.00538 0.49306 0.73031 0.0
C577 C 0.01359 0.48886 0.83287 0.0
C578 C 0.99656 0.50405 0.76545 0.0
C579 C 1.00082 0.50239 0.81704 0.0
H580 H 0.01625 0.45546 0.58759 0.0
H581 H 0.99413 0.51146 0.84458 0.0
H582 H 0.01798 0.57356 0.62847 0.0
H583 H 0.99474 0.51375 0.37676 0.0
H584 H 0.98608 0.51406 0.75414 0.0
H585 H 0.0168 0.48754 0.8729 0.0
H586 H 0.013 0.50958 0.45322 0.0
H587 H 0.03617 0.42913 0.60971 0.0
H588 H 0.03687 0.45985 0.85107 0.0
H589 H 0.0478 0.43722 0.78737 0.0
H590 H 1.00282 0.60419 0.61876 0.0
H591 H 0.04781 0.42571 0.69745 0.0
H592 H 0.97804 0.54346 0.36193 0.0
N593 N 0.0072 0.56246 0.55926 0.0
C594 C 0.99802 0.5663 0.5154 0.0
C595 C 1.00113 0.59358 0.58967 0.0
C596 C 0.98931 0.58378 0.50794 0.0
C597 C 0.00943 0.57601 0.59545 0.0
C598 C 0.99089 0.59744 0.5459 0.0
N599 N 0.00583 0.53583 0.48655 0.0
C600 C 1.00534 0.52225 0.44985 0.0
C601 C 0.98688 0.55577 0.43319 0.0
C602 C 0.99707 0.55249 0.47821 0.0
C603 C 0.98581 0.54154 0.39682 0.0
C604 C 0.99514 0.52474 0.40516 0.0
H605 H 0.98448 0.61108 0.54149 0.0
H606 H 0.97258 0.60045 0.4566 0.0
H607 H 0.97025 0.57584 0.39144 0.0
O608 O 0.03963 0.54456 0.50405 0.0
O609 O 0.99105 0.53426 0.57387 0.0
O610 O 0.98618 0.50294 0.57399 0.0
O611 O 0.04283 0.55392 0.58135 0.0
O612 O 0.02794 0.50586 0.53187 0.0
O613 O 0.00579 0.48531 0.56689 0.0
O614 O 0.97136 0.4981 0.6658 0.0
O615 O 0.02826 0.5036 0.6672 0.0
O616 O 0.0413 0.51261 0.59115 0.0
O617 O 0.98308 0.47037 0.65931 0.0
O618 O 0.995 0.52389 0.66993 0.0
O619 O 0.02157 0.53987 0.64468 0.0
C620 C 0.97965 0.51988 0.56689 0.0
C621 C 0.06995 0.55414 0.53143 0.0
C622 C 0.0988 0.54007 0.50046 0.0
C623 C 0.10914 0.55447 0.52428 0.0
C624 C 0.08047 0.56837 0.55498 0.0
C625 C 0.09999 0.56846 0.55158 0.0
C626 C 0.07914 0.53989 0.50454 0.0
C627 C 0.01882 0.48954 0.53258 0.0
C628 C 0.04945 0.55477 0.53542 0.0
C629 C 0.97937 0.58711 0.46297 0.0
C630 C 0.97806 0.5731 0.42584 0.0
C631 C 0.04315 0.50656 0.63819 0.0
C632 C 0.95955 0.47539 0.722 0.0
C633 C 0.93676 0.48322 0.78718 0.0
C634 C 0.94148 0.46701 0.81412 0.0
C635 C 0.96425 0.45911 0.74912 0.0
C636 C 0.94563 0.48729 0.74118 0.0
C637 C 0.95518 0.45496 0.79497 0.0
C638 C 0.00766 0.5372 0.677 0.0
C639 C 0.96866 0.48024 0.67355 0.0
H640 H 0.12429 0.55518 0.52088 0.0
H641 H 0.07355 0.57946 0.5759 0.0
H642 H 0.10803 0.57953 0.56959 0.0
H643 H 0.07106 0.52873 0.48687 0.0
H644 H 0.93441 0.46359 0.84945 0.0
H645 H 0.97486 0.4496 0.73498 0.0
H646 H 0.94163 0.49976 0.72035 0.0
H647 H 0.95873 0.44236 0.81559 0.0
H648 H 0.1768 0.03339 0.21784 0.0
H649 H 0.15508 0.03179 0.28964 0.0
H650 H 0.10826 0.03715 0.18737 0.0
H651 H 0.13025 0.03998 0.11545 0.0
H652 H 0.09886 0.05416 0.26899 0.0
H653 H 0.12439 0.99253 0.24402 0.0
H654 H 0.15013 0.9699 0.23287 0.0
H655 H 0.17179 0.98446 0.37985 0.0
H656 H 0.14628 0.00733 0.3916 0.0
H657 H 0.03518 1.00241 0.44154 0.0
H658 H 0.05708 0.00821 0.37113 0.0
H659 H 0.09474 0.03678 0.47319 0.0
H660 H 0.07212 0.0326 0.54273 0.0
H661 H 0.10813 1.00276 0.39318 0.0
H662 H 0.08152 0.06467 0.41661 0.0
H663 H 0.05428 0.08542 0.42746 0.0
H664 H 0.03358 0.06903 0.28101 0.0
H665 H 0.06032 0.0475 0.27018 0.0
C666 C 0.16187 0.03417 0.21051 0.0
C667 C 0.15533 0.03642 0.16048 0.0
C668 C 0.14934 0.03316 0.25183 0.0
C669 C 0.12974 0.03362 0.24458 0.0
C670 C 0.12319 0.03651 0.19466 0.0
C671 C 0.13581 0.03805 0.15329 0.0
C672 C 0.11627 0.03062 0.28868 0.0
C673 C 0.10092 0.04279 0.29565 0.0
C674 C 0.11864 0.01593 0.32464 0.0
C675 C 0.13352 1.00169 0.31853 0.0
C676 C 0.13465 0.99089 0.27393 0.0
C677 C 0.14921 0.97805 0.26748 0.0
C678 C 0.16261 0.97577 0.30559 0.0
C679 C 0.16141 0.98624 0.35037 0.0
C680 C 0.14688 0.99912 0.35699 0.0
C681 C 0.0479 0.01029 0.449 0.0
C682 C 0.05166 0.0171 0.49829 0.0
C683 C 0.06056 0.01341 0.40862 0.0
C684 C 0.07762 0.02299 0.41655 0.0
C685 C 0.08172 0.02934 0.46591 0.0
C686 C 0.0688 0.02671 0.50597 0.0
C687 C 0.09108 0.02634 0.3733 0.0
C688 C 0.10625 0.01415 0.36643 0.0
C689 C 0.08845 0.04087 0.3374 0.0
C690 C 0.07276 0.05425 0.34295 0.0
C691 C 0.07105 0.0653 0.38699 0.0
C692 C 0.05573 0.07723 0.3931 0.0
C693 C 0.04223 0.07854 0.35496 0.0
C694 C 0.04404 0.06795 0.31056 0.0
C695 C 0.05925 0.05583 0.30448 0.0
H696 H 0.03038 0.08775 0.35985 0.0
H697 H 0.17391 0.96587 0.30046 0.0
H698 H 0.47487 0.13242 0.12443 0.0
H699 H 0.47761 0.10907 0.19231 0.0
H700 H 0.49675 0.15233 0.29477 0.0
H701 H 0.49471 0.17536 0.22682 0.0
H702 H 0.51675 0.12575 0.31372 0.0
H703 H 0.44968 0.12671 0.29249 0.0
H704 H 0.41884 0.12306 0.25117 0.0
H705 H 0.43079 0.06531 0.21889 0.0
H706 H 0.46185 0.0687 0.25905 0.0
H707 H 0.50827 0.07462 0.54657 0.0
H708 H 0.50281 0.09633 0.47625 0.0
H709 H 0.49597 0.04958 0.37401 0.0
H710 H 0.50161 0.02779 0.44421 0.0
H711 H 0.46978 0.07634 0.35389 0.0
H712 H 0.53661 0.07593 0.37499 0.0
H713 H 0.56621 0.07897 0.4227 0.0
H714 H 0.553 0.13609 0.4594 0.0
H715 H 0.52317 0.13329 0.41254 0.0
C716 C 0.4796 0.137 0.16147 0.0
C717 C 0.48479 0.15596 0.16928 0.0
C718 C 0.48105 0.12354 0.20083 0.0
C719 C 0.48729 0.12859 0.24997 0.0
C720 C 0.49209 0.14763 0.25776 0.0
C721 C 0.49094 0.16095 0.21839 0.0
C722 C 0.48977 0.11431 0.29268 0.0
C723 C 0.50617 0.11524 0.32259 0.0
C724 C 0.47653 0.09982 0.30454 0.0
C725 C 0.45824 0.09806 0.2781 0.0
C726 C 0.44586 0.11331 0.27587 0.0
C727 C 0.42831 0.11127 0.25278 0.0
C728 C 0.42289 0.09399 0.23222 0.0
C729 C 0.43503 0.07872 0.23461 0.0
C730 C 0.45262 0.0807 0.25745 0.0
C731 C 0.50569 0.06887 0.50925 0.0
C732 C 0.5057 0.04927 0.50162 0.0
C733 C 0.50256 0.0814 0.46866 0.0
C734 C 0.49913 0.07482 0.41894 0.0
C735 C 0.49864 0.05524 0.41151 0.0
C736 C 0.50201 0.04271 0.45195 0.0
C737 C 0.49642 0.08827 0.37483 0.0
C738 C 0.48016 0.08703 0.34471 0.0
C739 C 0.50964 0.10259 0.36285 0.0
C740 C 0.5276 0.10434 0.39071 0.0
C741 C 0.53996 0.08909 0.39356 0.0
C742 C 0.55678 0.09078 0.42042 0.0
C743 C 0.56146 0.1077 0.44421 0.0
C744 C 0.54935 0.12298 0.44105 0.0
C745 C 0.53249 0.12136 0.41433 0.0
H746 H 0.57449 0.10897 0.46498 0.0
H747 H 0.40926 0.09242 0.2146 0.0
H748 H 0.37117 0.45878 0.17187 0.0
H749 H 0.39435 0.46068 0.23928 0.0
H750 H 0.39237 0.52103 0.23363 0.0
H751 H 0.37045 0.5193 0.1631 0.0
H752 H 0.42607 0.51313 0.25109 0.0
H753 H 0.36917 0.48872 0.33055 0.0
H754 H 0.3432 0.46595 0.34116 0.0
H755 H 0.38288 0.42176 0.36495 0.0
H756 H 0.40908 0.44423 0.35378 0.0
H757 H 0.46357 0.53361 0.49716 0.0
H758 H 0.4422 0.52885 0.42523 0.0
H759 H 0.45714 0.47045 0.41954 0.0
H760 H 0.47889 0.47525 0.4908 0.0
H761 H 0.41805 0.47553 0.4081 0.0
H762 H 0.47389 0.49679 0.3285 0.0
H763 H 0.50162 0.51693 0.31367 0.0
H764 H 0.46586 0.56425 0.28841 0.0
H765 H 0.43786 0.5443 0.30284 0.0
C766 C 0.37578 0.47256 0.18387 0.0
C767 C 0.3684 0.48887 0.16091 0.0
C768 C 0.38897 0.47363 0.22381 0.0
C769 C 0.39503 0.49104 0.24372 0.0
C770 C 0.38803 0.50731 0.22019 0.0
C771 C 0.3751 0.50627 0.17968 0.0
C772 C 0.40861 0.49247 0.28836 0.0
C773 C 0.42395 0.50508 0.28559 0.0
C774 C 0.40681 0.48153 0.33347 0.0
C775 C 0.39106 0.46812 0.34089 0.0
C776 C 0.37234 0.47413 0.33782 0.0
C777 C 0.35759 0.46128 0.34392 0.0
C778 C 0.36139 0.44241 0.3536 0.0
C779 C 0.37996 0.43637 0.35738 0.0
C780 C 0.39476 0.44916 0.3512 0.0
C781 C 0.46228 0.51971 0.48085 0.0
C782 C 0.47305 0.50484 0.50032 0.0
C783 C 0.45005 0.517 0.43933 0.0
C784 C 0.44789 0.49926 0.41623 0.0
C785 C 0.45836 0.48429 0.43626 0.0
C786 C 0.4709 0.48708 0.47714 0.0
C787 C 0.43498 0.49652 0.37095 0.0
C788 C 0.41993 0.48365 0.37363 0.0
C789 C 0.43714 0.50698 0.3255 0.0
C790 C 0.45382 0.51913 0.31732 0.0
C791 C 0.47195 0.51153 0.32019 0.0
C792 C 0.48771 0.52289 0.31168 0.0
C793 C 0.48551 0.5419 0.30047 0.0
C794 C 0.46753 0.54954 0.29728 0.0
C795 C 0.45171 0.5382 0.30542 0.0
H796 H 0.49775 0.55069 0.29407 0.0
H797 H 0.34995 0.43248 0.35827 0.0
H798 H 0.02479 0.34998 0.21023 0.0
H799 H 0.02342 0.37261 0.27962 0.0
H800 H 0.0493 0.41454 0.18403 0.0
H801 H 0.0511 0.39168 0.11435 0.0
H802 H 0.06298 0.41766 0.27859 0.0
H803 H 0.9994 0.41301 0.21139 0.0
H804 H 0.97137 0.3948 0.18592 0.0
H805 H 0.96639 0.37255 0.33694 0.0
H806 H 0.99447 0.39052 0.36313 0.0
H807 H 0.04382 0.49241 0.45201 0.0
H808 H 0.04748 0.47159 0.37959 0.0
H809 H 0.00742 0.433 0.44631 0.0
H810 H 1.0011 0.4555 0.51302 0.0
H811 H 1.00147 0.42874 0.36139 0.0
H812 H 0.06413 0.42992 0.43221 0.0
H813 H 0.09345 0.44482 0.46217 0.0
H814 H 0.1023 0.46934 0.31507 0.0
H815 H 0.07292 0.4547 0.28432 0.0
C816 C 0.03002 0.36406 0.20346 0.0
C817 C 0.03773 0.36893 0.1558 0.0
C818 C 0.02925 0.37709 0.24356 0.0
C819 C 0.03581 0.39565 0.23736 0.0
C820 C 0.04399 0.40045 0.19025 0.0
C821 C 0.04498 0.3873 0.15016 0.0
C822 C 0.03373 0.40998 0.27952 0.0
C823 C 0.04949 0.4202 0.29651 0.0
C824 C 0.01634 0.41316 0.30438 0.0
C825 C 0.99902 0.40305 0.28912 0.0
C826 C 0.99229 0.40425 0.23912 0.0
C827 C 0.97642 0.39396 0.22457 0.0
C828 C 0.96711 0.38252 0.25978 0.0
C829 C 0.97359 0.38143 0.30972 0.0
C830 C 0.98945 0.3917 0.32447 0.0
C831 C 0.0357 0.47951 0.45129 0.0
C832 C 0.02244 0.47569 0.48996 0.0
C833 C 0.03812 0.46722 0.40979 0.0
C834 C 0.02838 0.44991 0.40695 0.0
C835 C 0.01534 0.44602 0.44619 0.0
C836 C 0.01203 0.45886 0.4858 0.0
C837 C 0.03092 0.43622 0.36279 0.0
C838 C 0.01514 0.42622 0.34463 0.0
C839 C 0.04846 0.43283 0.3381 0.0
C840 C 0.06627 0.44135 0.35615 0.0
C841 C 0.07231 0.43852 0.40632 0.0
C842 C 0.08892 0.44692 0.42341 0.0
C843 C 0.09968 0.45804 0.39057 0.0
C844 C 0.09392 0.46073 0.34045 0.0
C845 C 0.07731 0.45236 0.32314 0.0
H846 H 0.11248 0.46455 0.40402 0.0
H847 H 0.95487 0.3745 0.24838 0.0
H848 H 0.88722 1.00482 0.09631 0.0
H849 H 0.90982 0.00829 0.02664 0.0
H850 H 0.88211 0.96366 0.9449 0.0
H851 H 0.85984 0.95979 0.01508 0.0
H852 H 0.91748 0.96044 0.92668 0.0
H853 H 0.8762 0.01349 0.91855 0.0
H854 H 0.86007 0.04104 0.95436 0.0
H855 H 0.9133 0.06724 0.98535 0.0
H856 H 0.92974 0.03973 0.95028 0.0
H857 H 0.963 0.9782 0.6908 0.0
H858 H 0.93931 0.97451 0.75749 0.0
H859 H 0.96129 0.02364 0.83347 0.0
H860 H 0.98285 0.02889 0.76209 0.0
H861 H 0.92848 0.02391 0.85532 0.0
H862 H 0.96993 0.96935 0.86356 0.0
H863 H 0.98491 0.94254 0.82027 0.0
H864 H 0.93064 0.91928 0.78584 0.0
H865 H 0.91536 0.94598 0.82849 0.0
C866 C 0.88587 0.99573 0.06355 0.0
C867 C 0.87147 0.98208 0.06184 0.0
C868 C 0.89886 0.99776 0.02329 0.0
C869 C 0.89766 0.98656 0.97912 0.0
C870 C 0.88356 0.9726 0.97795 0.0
C871 C 0.87074 0.97038 0.01851 0.0
C872 C 0.91063 0.98969 0.93386 0.0
C873 C 0.91979 0.97435 0.91114 0.0
C874 C 0.91402 0.00775 0.91276 0.0
C875 C 0.90418 0.02454 0.93213 0.0
C876 C 0.88445 0.02513 0.93306 0.0
C877 C 0.87526 0.04072 0.95328 0.0
C878 C 0.88566 0.05587 0.9722 0.0
C879 C 0.90527 0.0555 0.9707 0.0
C880 C 0.91453 0.03993 0.95061 0.0
C881 C 0.96267 0.98824 0.72171 0.0
C882 C 0.97512 1.0036 0.72166 0.0
C883 C 0.94926 0.98596 0.76074 0.0
C884 C 0.94883 0.99811 0.80327 0.0
C885 C 0.96114 0.01374 0.80226 0.0
C886 C 0.9737 0.01669 0.76149 0.0
C887 C 0.93578 0.99471 0.84849 0.0
C888 C 0.92649 0.01 0.87118 0.0
C889 C 0.93231 0.9766 0.86956 0.0
C890 C 0.94153 0.95969 0.84884 0.0
C891 C 0.96123 0.95845 0.84698 0.0
C892 C 0.96975 0.94335 0.82229 0.0
C893 C 0.9587 0.92938 0.79981 0.0
C894 C 0.93914 0.93022 0.80292 0.0
C895 C 0.93055 0.94527 0.8275 0.0
H896 H 0.96522 0.91783 0.78019 0.0
H897 H 0.87851 0.0679 0.98796 0.0
H898 H 0.51314 0.86116 0.03759 0.0
H899 H 0.51032 0.88359 0.96872 0.0
H900 H 0.56144 0.91095 0.01611 0.0
H901 H 0.56374 0.88932 0.08776 0.0
H902 H 0.53874 0.93706 0.98369 0.0
H903 H 0.55946 0.87973 0.90968 0.0
H904 H 0.55878 0.84562 0.89389 0.0
H905 H 0.50362 0.8501 0.82981 0.0
H906 H 0.50392 0.88422 0.8457 0.0
H907 H 0.54498 0.98889 0.75066 0.0
H908 H 0.55124 0.96802 0.82206 0.0
H909 H 0.50318 0.93418 0.78088 0.0
H910 H 0.49784 0.95446 0.70776 0.0
H911 H 0.5271 0.91167 0.81117 0.0
H912 H 0.50711 0.97044 0.88814 0.0
H913 H 0.51003 1.00463 0.90084 0.0
H914 H 0.56595 0.99766 0.95795 0.0
H915 H 0.5633 0.96348 0.94584 0.0
C916 C 0.52368 0.8721 0.03462 0.0
C917 C 0.53873 0.87302 0.06941 0.0
C918 C 0.52219 0.88489 0.99408 0.0
C919 C 0.53587 0.89895 0.98568 0.0
C920 C 0.55067 0.90028 0.02089 0.0
C921 C 0.55207 0.88761 0.06194 0.0
C922 C 0.53483 0.91184 0.93982 0.0
C923 C 0.53635 0.93143 0.94597 0.0
C924 C 0.53173 0.90487 0.88995 0.0
C925 C 0.53167 0.88447 0.87916 0.0
C926 C 0.54717 0.87341 0.89234 0.0
C927 C 0.54685 0.85409 0.88339 0.0
C928 C 0.53115 0.84569 0.86095 0.0
C929 C 0.51577 0.85662 0.84719 0.0
C930 C 0.51602 0.87596 0.85606 0.0
C931 C 0.53567 0.97708 0.75687 0.0
C932 C 0.52066 0.97364 0.72338 0.0
C933 C 0.5392 0.96509 0.79833 0.0
C934 C 0.52738 0.94957 0.80898 0.0
C935 C 0.51258 0.94597 0.77469 0.0
C936 C 0.50941 0.95769 0.73251 0.0
C937 C 0.53031 0.93701 0.85501 0.0
C938 C 0.52931 0.91739 0.84887 0.0
C939 C 0.53404 0.94401 0.90473 0.0
C940 C 0.53512 0.96442 0.91527 0.0
C941 C 0.52001 0.97621 0.90347 0.0
C942 C 0.52161 0.9956 0.91058 0.0
C943 C 0.5382 1.00333 0.92991 0.0
C944 C 0.55313 0.99167 0.94281 0.0
C945 C 0.55157 0.97228 0.93591 0.0
H946 H 0.53947 0.01835 0.93506 0.0
H947 H 0.53091 0.83072 0.85415 0.0
H948 H 0.65927 0.51071 0.04664 0.0
H949 H 0.63694 0.50795 0.97753 0.0
H950 H 0.61562 0.56293 0.01174 0.0
H951 H 0.63695 0.56527 0.08385 0.0
H952 H 0.58726 0.54339 0.98229 0.0
H953 H 0.64723 0.553 0.90665 0.0
H954 H 0.68098 0.54741 0.89244 0.0
H955 H 0.66878 0.49132 0.84224 0.0
H956 H 0.63496 0.49652 0.85671 0.0
H957 H 0.53973 0.54993 0.74235 0.0
H958 H 0.56134 0.55514 0.81336 0.0
H959 H 0.58247 0.499 0.79554 0.0
H960 H 0.5611 0.49385 0.72436 0.0
H961 H 0.61102 0.52127 0.81552 0.0
H962 H 0.54959 0.51346 0.89349 0.0
H963 H 0.51619 0.5218 0.90261 0.0
H964 H 0.5318 0.57807 0.94387 0.0
H965 H 0.56531 0.57012 0.93427 0.0
C966 C 0.64967 0.52218 0.04073 0.0
C967 C 0.65038 0.53829 0.07208 0.0
C968 C 0.63696 0.52069 0.99992 0.0
C969 C 0.62464 0.5354 0.98758 0.0
C970 C 0.62492 0.55132 0.0194 0.0
C971 C 0.63747 0.55273 0.06078 0.0
C972 C 0.61182 0.53421 0.9414 0.0
C973 C 0.59262 0.53874 0.94582 0.0
C974 C 0.61836 0.52817 0.89298 0.0
C975 C 0.6386 0.5251 0.88313 0.0
C976 C 0.65177 0.53945 0.89275 0.0
C977 C 0.6709 0.53636 0.88465 0.0
C978 C 0.67703 0.51901 0.86655 0.0
C979 C 0.66402 0.50475 0.85629 0.0
C980 C 0.64486 0.50777 0.86435 0.0
C981 C 0.54903 0.53869 0.75332 0.0
C982 C 0.54866 0.52151 0.72669 0.0
C983 C 0.56139 0.54165 0.79445 0.0
C984 C 0.57362 0.52741 0.81111 0.0
C985 C 0.57338 0.51034 0.78406 0.0
C986 C 0.5611 0.50741 0.74287 0.0
C987 C 0.58645 0.53005 0.85669 0.0
C988 C 0.60568 0.52585 0.85207 0.0
C989 C 0.57998 0.53672 0.90456 0.0
C990 C 0.55993 0.54122 0.91296 0.0
C991 C 0.54589 0.5276 0.90457 0.0
C992 C 0.52694 0.53227 0.9097 0.0
C993 C 0.52188 0.55046 0.92373 0.0
C994 C 0.53575 0.56399 0.93298 0.0
C995 C 0.55472 0.5594 0.92778 0.0
H996 H 0.5072 0.55407 0.92749 0.0
H997 H 0.69185 0.51662 0.86041 0.0
H998 H 0.99864 0.63133 0.1092 0.0
H999 H 1.00191 0.60878 0.03958 0.0
H1000 H 0.97197 0.64611 0.94022 0.0
H1001 H 0.96746 0.66793 0.01108 0.0
H1002 H 0.96275 0.6143 0.91052 0.0
H1003 H 0.02528 0.63833 0.94621 0.0
H1004 H 0.05241 0.64502 1.00157 0.0
H1005 H 0.05739 0.58634 0.03527 0.0
H1006 H 0.03017 0.57935 0.98054 0.0
H1007 H 0.98854 0.57038 0.68071 0.0
H1008 H 0.98668 0.59283 0.75011 0.0
H1009 H 0.01699 0.5548 0.84669 0.0
H1010 H 0.02236 0.53425 0.77317 0.0
H1011 H 0.02523 0.58623 0.87873 0.0
H1012 H 0.96149 0.56253 0.84531 0.0
H1013 H 0.93933 0.55508 0.77613 0.0
H1014 H 0.93902 0.61301 0.7315 0.0
H1015 H 0.96089 0.62083 0.80104 0.0
C1016 C 0.99274 0.63473 0.07253 0.0
C1017 C 0.9829 0.65162 0.0661 0.0
C1018 C 0.99477 0.62182 0.03213 0.0
C1019 C 0.9878 0.62568 0.98297 0.0
C1020 C 0.97767 0.64248 0.97696 0.0
C1021 C 0.97514 0.65511 0.01778 0.0
C1022 C 0.99124 0.61256 0.93796 0.0
C1023 C 0.97651 0.60834 0.90385 0.0
C1024 C 0.009 0.6042 0.928 0.0
C1025 C 0.02564 0.60835 0.95966 0.0
C1026 C 0.03217 0.62688 0.9655 0.0
C1027 C 0.04754 0.63072 0.99679 0.0
C1028 C 0.05659 0.61612 0.022 0.0
C1029 C 0.05036 0.59763 0.01576 0.0
C1030 C 0.03498 0.59372 0.98458 0.0
C1031 C 0.99528 0.56703 0.71625 0.0
C1032 C 0.00555 0.5504 0.72109 0.0
C1033 C 0.99362 0.57968 0.75705 0.0
C1034 C 1.00056 0.57534 0.80586 0.0
C1035 C 0.01107 0.55869 0.81041 0.0
C1036 C 0.01389 0.54667 0.76839 0.0
C1037 C 0.99682 0.58795 0.8517 0.0
C1038 C 0.01144 0.59205 0.88588 0.0
C1039 C 0.979 0.59615 0.86177 0.0
C1040 C 0.96284 0.59223 0.82813 0.0
C1041 C 0.95633 0.57372 0.82144 0.0
C1042 C 0.94402 0.5694 0.78181 0.0
C1043 C 0.93812 0.5835 0.74878 0.0
C1044 C 0.94384 0.60208 0.75667 0.0
C1045 C 0.95595 0.60651 0.79667 0.0
H1046 H 0.92882 0.58012 0.71765 0.0
H1047 H 0.06846 0.61913 0.04631 0.0
H1048 H 0.06069 0.19917 0.15005 0.0
H1049 H 0.04959 0.17384 0.20487 0.0
H1050 H 0.05086 0.21124 0.33382 0.0
H1051 H 0.06274 0.2365 0.27954 0.0
H1052 H 0.06214 0.17617 0.35853 0.0
H1053 H 0.01061 0.20478 0.26999 0.0
H1054 H 0.99302 0.21562 0.19514 0.0
H1055 H 0.99127 0.15937 0.13677 0.0
H1056 H 0.00906 0.14824 0.21102 0.0
H1057 H 0.99104 0.13516 0.51596 0.0
H1058 H 0.01097 0.15566 0.46337 0.0
H1059 H 0.00964 0.11466 0.34275 0.0
H1060 H 0.99008 0.09397 0.3956 0.0
H1061 H 0.99984 0.14986 0.31184 0.0
H1062 H 0.05058 0.1212 0.40238 0.0
H1063 H 0.06907 0.11081 0.4763 0.0
H1064 H 0.07185 0.16745 0.53135 0.0
H1065 H 0.05338 0.17816 0.45791 0.0
C1066 C 0.05927 0.20183 0.19038 0.0
C1067 C 0.06253 0.2198 0.21062 0.0
C1068 C 0.05268 0.18742 0.22146 0.0
C1069 C 0.04908 0.19087 0.27296 0.0
C1070 C 0.05349 0.20841 0.29398 0.0
C1071 C 0.06019 0.22281 0.26299 0.0
C1072 C 0.0396 0.17658 0.30429 0.0
C1073 C 0.04844 0.1705 0.34866 0.0
C1074 C 0.02192 0.16902 0.29058 0.0
C1075 C 0.01135 0.17572 0.24573 0.0
C1076 C 0.00662 0.19476 0.24095 0.0
C1077 C 0.99659 0.20094 0.1987 0.0
C1078 C 0.99108 0.1882 0.16115 0.0
C1079 C 0.99558 0.16923 0.16583 0.0
C1080 C 0.00562 0.16298 0.208 0.0
C1081 C 0.99509 0.13058 0.47825 0.0
C1082 C 0.98895 0.11321 0.45931 0.0
C1083 C 0.0066 0.14213 0.44861 0.0
C1084 C 0.0119 0.13648 0.39958 0.0
C1085 C 0.00583 0.11908 0.38078 0.0
C1086 C 0.99463 0.10739 0.41072 0.0
C1087 C 0.02236 0.14943 0.36625 0.0
C1088 C 0.01362 0.15536 0.32152 0.0
C1089 C 0.04006 0.15692 0.37981 0.0
C1090 C 0.05042 0.15042 0.42507 0.0
C1091 C 0.05494 0.13138 0.43064 0.0
C1092 C 0.06548 0.12545 0.47228 0.0
C1093 C 0.07154 0.13844 0.50856 0.0
C1094 C 0.06711 0.1574 0.50328 0.0
C1095 C 0.05664 0.16341 0.46163 0.0
H1096 H 0.07974 0.13382 0.54069 0.0
H1097 H 0.9833 0.19301 0.12848 0.0
H1098 H 0.32096 0.07316 0.16193 0.0
H1099 H 0.3466 0.06358 0.21612 0.0
H1100 H 0.30737 0.05058 0.33654 0.0
H1101 H 0.28156 0.06166 0.28383 0.0
H1102 H 0.33909 0.06294 0.37548 0.0
H1103 H 0.32199 0.01584 0.2574 0.0
H1104 H 0.31444 1.00049 0.17594 0.0
H1105 H 0.36954 0.01382 0.11922 0.0
H1106 H 0.37733 0.02949 0.20002 0.0
H1107 H 0.41082 0.99288 0.45243 0.0
H1108 H 0.38174 0.01036 0.43657 0.0
H1109 H 0.41016 0.04223 0.31965 0.0
H1110 H 0.43891 0.02456 0.33454 0.0
H1111 H 0.38006 0.01637 0.29058 0.0
H1112 H 0.39496 0.06507 0.41696 0.0
H1113 H 0.40081 0.076 0.50446 0.0
H1114 H 0.3474 0.05371 0.55198 0.0
H1115 H 0.34134 0.04247 0.4649 0.0
C1116 C 0.31776 0.06906 0.2006 0.0
C1117 C 0.29915 0.06797 0.21833 0.0
C1118 C 0.33243 0.06325 0.23123 0.0
C1119 C 0.32871 0.05579 0.27949 0.0
C1120 C 0.31041 0.05607 0.29902 0.0
C1121 C 0.29571 0.06227 0.26873 0.0
C1122 C 0.34386 0.04662 0.30764 0.0
C1123 C 0.34796 0.05261 0.3572 0.0
C1124 C 0.35506 0.03277 0.28416 0.0
C1125 C 0.35017 0.02401 0.23466 0.0
C1126 C 0.33241 0.01571 0.22733 0.0
C1127 C 0.32811 0.0069 0.18132 0.0
C1128 C 0.34148 1.00622 0.14239 0.0
C1129 C 0.35918 0.01438 0.14936 0.0
C1130 C 0.36355 0.02323 0.19526 0.0
C1131 C 0.4108 1.00391 0.42413 0.0
C1132 C 0.42663 0.00715 0.39337 0.0
C1133 C 0.39439 0.01398 0.41566 0.0
C1134 C 0.39399 0.02747 0.37704 0.0
C1135 C 0.41037 0.03184 0.34969 0.0
C1136 C 0.42661 0.02164 0.35762 0.0
C1137 C 0.37605 0.03375 0.35655 0.0
C1138 C 0.37118 0.02675 0.30874 0.0
C1139 C 0.36398 0.04615 0.38232 0.0
C1140 C 0.36781 0.05275 0.4346 0.0
C1141 C 0.38457 0.06232 0.44621 0.0
C1142 C 0.38789 0.06862 0.4957 0.0
C1143 C 0.37452 0.06549 0.53381 0.0
C1144 C 0.35777 0.05609 0.52249 0.0
C1145 C 0.35437 0.04977 0.47308 0.0
H1146 H 0.37712 0.07039 0.57209 0.0
H1147 H 0.33815 0.99933 0.10687 0.0
H1148 H 0.43434 0.32372 0.18551 0.0
H1149 H 0.4439 0.34808 0.24612 0.0
H1150 H 0.48214 0.30908 0.31592 0.0
H1151 H 0.47178 0.2846 0.25732 0.0
H1152 H 0.46936 0.33083 0.38451 0.0
H1153 H 0.49586 0.33981 0.21776 0.0
H1154 H 0.49548 0.34451 0.12494 0.0
H1155 H 0.46413 0.39527 0.14447 0.0
H1156 H 0.46417 0.39075 0.23742 0.0
H1157 H 0.54503 0.38884 0.46182 0.0
H1158 H 0.52341 0.36601 0.42476 0.0
H1159 H 0.48685 0.4108 0.37814 0.0
H1160 H 0.50893 0.43379 0.41246 0.0
H1161 H 0.4948 0.38813 0.30172 0.0
H1162 H 0.4712 0.37734 0.4754 0.0
H1163 H 0.47366 0.36954 0.56654 0.0
H1164 H 0.50529 0.32036 0.53032 0.0
H1165 H 0.50239 0.32735 0.43891 0.0
C1166 C 0.44415 0.32027 0.21539 0.0
C1167 C 0.45221 0.30243 0.2177 0.0
C1168 C 0.4498 0.33417 0.24935 0.0
C1169 C 0.46404 0.33047 0.2846 0.0
C1170 C 0.47112 0.31222 0.28903 0.0
C1171 C 0.46514 0.29823 0.25588 0.0
C1172 C 0.47277 0.34578 0.31399 0.0
C1173 C 0.47493 0.34337 0.3664 0.0
C1174 C 0.47996 0.36215 0.29031 0.0
C1175 C 0.4798 0.36481 0.23443 0.0
C1176 C 0.48875 0.35189 0.2022 0.0
C1177 C 0.48863 0.35454 0.1496 0.0
C1178 C 0.47973 0.37015 0.12881 0.0
C1179 C 0.47098 0.38316 0.16061 0.0
C1180 C 0.47105 0.38057 0.21325 0.0
C1181 C 0.5324 0.39382 0.44363 0.0
C1182 C 0.52877 0.4131 0.43965 0.0
C1183 C 0.51988 0.38075 0.42336 0.0
C1184 C 0.50338 0.38673 0.39954 0.0
C1185 C 0.49943 0.40593 0.39685 0.0
C1186 C 0.51203 0.41902 0.41664 0.0
C1187 C 0.49145 0.37312 0.37228 0.0
C1188 C 0.48881 0.37582 0.32004 0.0
C1189 C 0.48438 0.35672 0.39575 0.0
C1190 C 0.48673 0.35296 0.45055 0.0
C1191 C 0.47881 0.36496 0.48696 0.0
C1192 C 0.48024 0.36067 0.5386 0.0
C1193 C 0.48987 0.3447 0.55425 0.0
C1194 C 0.49791 0.33279 0.51821 0.0
C1195 C 0.49624 0.3368 0.4665 0.0
H1196 H 0.49097 0.34149 0.59429 0.0
H1197 H 0.47966 0.37218 0.08808 0.0
H1198 H 0.23248 0.46378 0.28538 0.0
H1199 H 0.2054 0.47265 0.33676 0.0
H1200 H 0.16948 0.46709 0.20582 0.0
H1201 H 0.19667 0.45919 0.15352 0.0
H1202 H 0.16481 0.50007 0.25427 0.0
H1203 H 0.16709 0.43508 0.30176 0.0
H1204 H 0.18389 0.4068 0.32963 0.0
H1205 H 0.19898 0.43426 0.46902 0.0
H1206 H 0.18251 0.46281 0.44163 0.0
H1207 H 0.08829 0.52602 0.40794 0.0
H1208 H 0.10678 0.50591 0.35199 0.0
H1209 H 0.1502 0.50295 0.46564 0.0
H1210 H 0.13136 0.52211 0.52279 0.0
H1211 H 0.14736 0.47083 0.41892 0.0
H1212 H 0.15101 0.53588 0.37029 0.0
H1213 H 0.13911 0.5666 0.3426 0.0
H1214 H 0.11686 0.54147 0.20708 0.0
H1215 H 0.12837 0.51051 0.23443 0.0
C1216 C 0.21877 0.46422 0.26773 0.0
C1217 C 0.21664 0.46071 0.21561 0.0
C1218 C 0.20332 0.46915 0.29712 0.0
C1219 C 0.18547 0.47026 0.27502 0.0
C1220 C 0.18317 0.46614 0.22342 0.0
C1221 C 0.19865 0.4614 0.19386 0.0
C1222 C 0.16949 0.47698 0.30527 0.0
C1223 C 0.16056 0.49342 0.28959 0.0
C1224 C 0.16451 0.46854 0.35192 0.0
C1225 C 0.17355 0.45106 0.36965 0.0
C1226 C 0.17397 0.43507 0.33838 0.0
C1227 C 0.18347 0.41901 0.35404 0.0
C1228 C 0.19249 0.41873 0.40108 0.0
C1229 C 0.19195 0.43448 0.43265 0.0
C1230 C 0.1825 0.4506 0.41713 0.0
C1231 C 0.10153 0.52065 0.42154 0.0
C1232 C 0.10858 0.5259 0.46938 0.0
C1233 C 0.11214 0.50932 0.38936 0.0
C1234 C 0.13 0.50336 0.40434 0.0
C1235 C 0.13648 0.50755 0.45329 0.0
C1236 C 0.12582 0.51866 0.48565 0.0
C1237 C 0.14267 0.49402 0.36812 0.0
C1238 C 0.1511 0.47716 0.38279 0.0
C1239 C 0.14744 0.50228 0.32087 0.0
C1240 C 0.14026 0.52083 0.30482 0.0
C1241 C 0.14338 0.53686 0.33489 0.0
C1242 C 0.13675 0.55433 0.3192 0.0
C1243 C 0.12716 0.55597 0.27323 0.0
C1244 C 0.12422 0.54016 0.24279 0.0
C1245 C 0.13077 0.52265 0.25838 0.0
H1246 H 0.12207 0.56951 0.2611 0.0
H1247 H 0.19989 0.4063 0.41306 0.0
H1248 H 0.95472 0.7909 0.95731 0.0
H1249 H 0.95807 0.81748 0.89864 0.0
H1250 H 0.9864 0.8493 0.01571 0.0
H1251 H 0.98227 0.82335 0.07451 0.0
H1252 H 0.96554 0.87125 0.96393 0.0
H1253 H 0.01065 0.8233 0.92925 0.0
H1254 H 0.02221 0.79185 0.90662 0.0
H1255 H 0.99367 0.7948 0.76346 0.0
H1256 H 0.98168 0.82617 0.78566 0.0
H1257 H 0.03313 0.92552 0.81746 0.0
H1258 H 0.01516 0.90661 0.87741 0.0
H1259 H 0.98285 0.88326 0.7539 0.0
H1260 H 1.00165 0.90148 0.69328 0.0
H1261 H 1.00189 0.8579 0.80728 0.0
H1262 H 0.94683 0.90185 0.88954 0.0
H1263 H 0.93785 0.93135 0.93204 0.0
H1264 H 0.99285 0.93593 0.99718 0.0
H1265 H 1.00164 0.90585 0.95774 0.0
C1266 C 0.96119 0.8038 0.97053 0.0
C1267 C 0.96857 0.80516 0.01966 0.0
C1268 C 0.9632 0.81883 0.93717 0.0
C1269 C 0.97275 0.83509 0.95287 0.0
C1270 C 0.97901 0.83681 1.003 0.0
C1271 C 0.97683 0.82197 0.03629 0.0
C1272 C 0.97773 0.84986 0.91663 0.0
C1273 C 0.97338 0.86838 0.92936 0.0
C1274 C 0.9882 0.84598 0.87229 0.0
C1275 C 0.995 0.82693 0.85948 0.0
C1276 C 0.00664 0.81714 0.89324 0.0
C1277 C 0.01331 0.79935 0.88043 0.0
C1278 C 0.0086 0.79129 0.83373 0.0
C1279 C 0.99723 0.80102 0.79972 0.0
C1280 C 0.99048 0.81879 0.81241 0.0
C1281 C 0.02183 0.9167 0.80339 0.0
C1282 C 0.01881 0.91465 0.75104 0.0
C1283 C 0.01126 0.90624 0.83784 0.0
C1284 C 0.99717 0.89406 0.8204 0.0
C1285 C 0.99347 0.89286 0.7681 0.0
C1286 C 1.00428 0.90305 0.73358 0.0
C1287 C 0.98956 0.87946 0.85411 0.0
C1288 C 0.99357 0.86083 0.84098 0.0
C1289 C 0.97959 0.8833 0.89939 0.0
C1290 C 0.97532 0.90235 0.91772 0.0
C1291 C 0.95713 0.90944 0.91187 0.0
C1292 C 0.95196 0.92607 0.93617 0.0
C1293 C 0.96494 0.93583 0.96606 0.0
C1294 C 0.98296 0.92866 0.9729 0.0
C1295 C 0.98803 0.91179 0.94965 0.0
H1296 H 0.96092 0.94876 0.98455 0.0
H1297 H 0.01383 0.77755 0.82382 0.0
H1298 H 0.73659 0.96309 0.9411 0.0
H1299 H 0.71037 0.96757 0.88212 0.0
H1300 H 0.67117 0.96072 1.00651 0.0
H1301 H 0.69712 0.95558 0.06442 0.0
H1302 H 0.65558 0.94895 0.92334 0.0
H1303 H 0.69109 1.00378 0.97795 0.0
H1304 H 0.71899 0.02426 0.98621 0.0
H1305 H 0.72423 0.02683 0.82381 0.0
H1306 H 0.69647 1.00618 0.81468 0.0
H1307 H 0.5897 0.02462 0.91645 0.0
H1308 H 0.61539 1.00289 0.93589 0.0
H1309 H 0.63175 1.00256 0.77818 0.0
H1310 H 0.60566 0.02376 0.75824 0.0
H1311 H 0.65981 0.01374 0.85548 0.0
H1312 H 0.61587 0.96532 0.81098 0.0
H1313 H 0.58626 0.94721 0.81369 0.0
H1314 H 0.59477 0.93552 0.97182 0.0
H1315 H 0.62421 0.95393 0.97044 0.0
C1316 C 0.72231 0.96171 0.955 0.0
C1317 C 0.71865 0.95926 0.00691 0.0
C1318 C 0.70741 0.96438 0.92158 0.0
C1319 C 0.68893 0.96485 0.94032 0.0
C1320 C 0.68532 0.96041 0.99129 0.0
C1321 C 0.70012 0.95759 0.02438 0.0
C1322 C 0.67362 0.97285 0.91018 0.0
C1323 C 0.65648 0.96306 0.9081 0.0
C1324 C 0.67495 0.99124 0.89017 0.0
C1325 C 0.69195 1.00317 0.89564 0.0
C1326 C 0.69834 0.00854 0.94404 0.0
C1327 C 0.71409 0.02022 0.94888 0.0
C1328 C 0.72343 0.02677 0.90556 0.0
C1329 C 0.71703 0.02168 0.85732 0.0
C1330 C 0.70131 0.00997 0.85229 0.0
C1331 C 0.59887 0.0199 0.88618 0.0
C1332 C 0.59625 0.02604 0.8362 0.0
C1333 C 0.61324 0.00736 0.89703 0.0
C1334 C 0.62511 1.0011 0.85802 0.0
C1335 C 0.62243 0.00718 0.80817 0.0
C1336 C 0.60786 0.01938 0.79713 0.0
C1337 C 0.6417 0.99007 0.87038 0.0
C1338 C 0.65904 0.99938 0.8691 0.0
C1339 C 0.64033 0.97159 0.88915 0.0
C1340 C 0.62223 0.96111 0.89061 0.0
C1341 C 0.61131 0.95912 0.84652 0.0
C1342 C 0.59459 0.94872 0.84777 0.0
C1343 C 0.58871 0.94012 0.8928 0.0
C1344 C 0.59941 0.94209 0.93688 0.0
C1345 C 0.6161 0.95253 0.93589 0.0
H1346 H 0.57582 0.93199 0.8936 0.0
H1347 H 0.73559 0.03585 0.90936 0.0
H1348 H 0.56839 0.70065 0.07568 0.0
H1349 H 0.55905 0.67342 0.02537 0.0
H1350 H 0.55487 0.70836 0.89225 0.0
H1351 H 0.56459 0.73568 0.94208 0.0
H1352 H 0.52159 0.68923 0.92144 0.0
H1353 H 0.588 0.67679 0.89685 0.0
H1354 H 0.6198 0.67192 0.93084 0.0
H1355 H 0.60026 0.62359 0.01324 0.0
H1356 H 0.56824 0.62836 0.98036 0.0
H1357 H 0.49358 0.63222 0.7333 0.0
H1358 H 0.51496 0.65193 0.78083 0.0
H1359 H 0.52216 0.60789 0.89126 0.0
H1360 H 0.5021 0.58707 0.8402 0.0
H1361 H 0.55384 0.62929 0.88281 0.0
H1362 H 0.4887 0.64006 0.91063 0.0
H1363 H 0.45584 0.64453 0.8843 0.0
H1364 H 0.47134 0.69543 0.80727 0.0
H1365 H 0.50435 0.69111 0.8325 0.0
C1366 C 0.56625 0.7024 0.03525 0.0
C1367 C 0.56717 0.72025 0.01262 0.0
C1368 C 0.56081 0.68687 0.00675 0.0
C1369 C 0.55629 0.68904 0.95543 0.0
C1370 C 0.55834 0.70657 0.93198 0.0
C1371 C 0.56386 0.72209 0.96036 0.0
C1372 C 0.54727 0.67363 0.92768 0.0
C1373 C 0.5287 0.67622 0.91233 0.0
C1374 C 0.55632 0.65639 0.91868 0.0
C1375 C 0.57573 0.65298 0.93635 0.0
C1376 C 0.59048 0.66514 0.92231 0.0
C1377 C 0.60854 0.66242 0.94141 0.0
C1378 C 0.61205 0.64747 0.97423 0.0
C1379 C 0.59752 0.63516 0.9878 0.0
C1380 C 0.57942 0.63785 0.96888 0.0
C1381 C 0.50022 0.62638 0.76648 0.0
C1382 C 0.49622 0.60807 0.78283 0.0
C1383 C 0.51233 0.63775 0.79393 0.0
C1384 C 0.51964 0.6315 0.84018 0.0
C1385 C 0.51652 0.61293 0.85568 0.0
C1386 C 0.50498 0.60116 0.82676 0.0
C1387 C 0.52843 0.64527 0.87442 0.0
C1388 C 0.54676 0.6423 0.89185 0.0
C1389 C 0.519 0.66211 0.88668 0.0
C1390 C 0.49901 0.66522 0.87333 0.0
C1391 C 0.4851 0.6522 0.88805 0.0
C1392 C 0.46645 0.65469 0.87325 0.0
C1393 C 0.46151 0.67024 0.84409 0.0
C1394 C 0.47519 0.68339 0.82989 0.0
C1395 C 0.49386 0.68095 0.84452 0.0
H1396 H 0.44707 0.67211 0.83254 0.0
H1397 H 0.62603 0.64541 0.98912 0.0
H1398 H 0.78226 0.54722 0.95357 0.0
H1399 H 0.8083 0.53876 0.89692 0.0
H1400 H 0.84757 0.56387 1.00204 0.0
H1401 H 0.82159 0.5725 0.05793 0.0
H1402 H 0.85865 0.56856 0.90643 0.0
H1403 H 0.83659 0.51902 0.01335 0.0
H1404 H 0.81342 0.49704 0.05024 0.0
H1405 H 0.80359 0.47308 0.90293 0.0
H1406 H 0.82648 0.49517 0.86498 0.0
H1407 H 0.93966 0.51081 0.8578 0.0
H1408 H 0.91399 0.52986 0.89224 0.0
H1409 H 0.87517 0.50229 0.79043 0.0
H1410 H 0.90078 0.48324 0.75655 0.0
H1411 H 0.86359 0.49974 0.88358 0.0
H1412 H 0.87789 0.56193 0.78349 0.0
H1413 H 0.89469 0.59137 0.76284 0.0
H1414 H 0.91995 0.59165 0.91071 0.0
H1415 H 0.90284 0.56252 0.93256 0.0
C1416 C 0.79639 0.55171 0.96294 0.0
C1417 C 0.80019 0.56056 0.00928 0.0
C1418 C 0.81119 0.54667 0.93121 0.0
C1419 C 0.82973 0.55038 0.94619 0.0
C1420 C 0.83331 0.56089 0.99013 0.0
C1421 C 0.81855 0.56593 0.02171 0.0
C1422 C 0.84549 0.54178 0.91926 0.0
C1423 C 0.85978 0.55349 0.90127 0.0
C1424 C 0.84691 0.52214 0.9135 0.0
C1425 C 0.83306 0.50892 0.93621 0.0
C1426 C 0.82934 0.5092 0.98872 0.0
C1427 C 0.81629 0.4967 0.00985 0.0
C1428 C 0.807 0.48371 0.97892 0.0
C1429 C 0.81077 0.48318 0.92681 0.0
C1430 C 0.82377 0.4957 0.90547 0.0
C1431 C 0.92562 0.5091 0.84268 0.0
C1432 C 0.92187 0.49552 0.8055 0.0
C1433 C 0.91107 0.52015 0.86163 0.0
C1434 C 0.89273 0.51768 0.84331 0.0
C1435 C 0.88925 0.50445 0.80487 0.0
C1436 C 0.90376 0.49355 0.78576 0.0
C1437 C 0.87671 0.52661 0.86893 0.0
C1438 C 0.86237 0.51484 0.88762 0.0
C1439 C 0.87547 0.54616 0.8767 0.0
C1440 C 0.88957 0.55985 0.85901 0.0
C1441 C 0.88753 0.56796 0.81086 0.0
C1442 C 0.89675 0.5848 0.79942 0.0
C1443 C 0.90817 0.59348 0.83575 0.0
C1444 C 0.911 0.58497 0.8828 0.0
C1445 C 0.90158 0.56829 0.89468 0.0
H1446 H 0.91482 0.60681 0.82748 0.0
H1447 H 0.79692 0.47402 0.99535 0.0
H1448 H 0.04764 0.22279 0.76463 0.0
H1449 H 0.04544 0.1919 0.72313 0.0
H1450 H 0.02007 0.16883 0.85825 0.0
H1451 H 0.02207 0.19952 0.8996 0.0
H1452 H 0.0498 0.1468 0.81846 0.0
H1453 H 0.99422 0.17847 0.75492 0.0
H1454 H 0.97806 0.20356 0.70825 0.0
H1455 H 0.00845 0.18933 0.57256 0.0
H1456 H 0.02508 0.1644 0.61869 0.0
H1457 H 0.02043 0.05634 0.7445 0.0
H1458 H 0.0241 0.08826 0.77599 0.0
H1459 H 0.02857 0.10855 0.62203 0.0
H1460 H 0.02404 0.07648 0.59036 0.0
H1461 H 0.01152 0.13337 0.66572 0.0
H1462 H 0.06846 0.1065 0.71494 0.0
H1463 H 0.09243 0.08599 0.75231 0.0
H1464 H 0.06793 0.09357 0.90015 0.0
H1465 H 0.04386 0.11426 0.86362 0.0
C1466 C 0.04151 0.21117 0.78551 0.0
C1467 C 0.03486 0.2139 0.83557 0.0
C1468 C 0.04018 0.19346 0.76154 0.0
C1469 C 0.03242 0.17786 0.78716 0.0
C1470 C 0.02601 0.18052 0.83725 0.0
C1471 C 0.02705 0.19823 0.86085 0.0
C1472 C 0.03137 0.15863 0.76297 0.0
C1473 C 0.04118 0.14381 0.78551 0.0
C1474 C 0.02111 0.15474 0.71801 0.0
C1475 C 0.01104 0.16971 0.69044 0.0
C1476 C 0.9976 0.18081 0.71528 0.0
C1477 C 0.98833 0.19499 0.68889 0.0
C1478 C 0.99226 0.19808 0.63752 0.0
C1479 C 1.00545 0.18696 0.61239 0.0
C1480 C 0.0148 0.17281 0.63864 0.0
C1481 C 0.02235 0.06752 0.71715 0.0
C1482 C 0.02216 0.06356 0.66469 0.0
C1483 C 0.02461 0.08597 0.73537 0.0
C1484 C 0.02717 0.10125 0.70192 0.0
C1485 C 0.02674 0.09732 0.6493 0.0
C1486 C 0.02421 0.07882 0.63101 0.0
C1487 C 0.02968 0.12116 0.72196 0.0
C1488 C 0.02017 0.13617 0.69871 0.0
C1489 C 0.04098 0.12547 0.76494 0.0
C1490 C 0.05429 0.11178 0.78649 0.0
C1491 C 0.06804 0.10359 0.75531 0.0
C1492 C 0.08173 0.09206 0.77641 0.0
C1493 C 0.08176 0.08857 0.82863 0.0
C1494 C 0.06794 0.09638 0.85976 0.0
C1495 C 0.0543 0.10804 0.8389 0.0
H1496 H 0.09246 0.07975 0.84498 0.0
H1497 H 0.98506 0.20905 0.61715 0.0
H1498 H 0.29998 0.04943 0.76571 0.0
H1499 H 0.33064 0.04718 0.72278 0.0
H1500 H 0.35434 0.02292 0.85768 0.0
H1501 H 0.32384 0.02496 0.90042 0.0
H1502 H 0.37672 0.05207 0.81596 0.0
H1503 H 0.34389 0.9962 0.75544 0.0
H1504 H 0.31819 0.97974 0.71098 0.0
H1505 H 0.33124 0.00985 0.57396 0.0
H1506 H 0.35683 0.02671 0.61787 0.0
H1507 H 0.46508 0.01829 0.74171 0.0
H1508 H 0.43326 0.02339 0.77249 0.0
H1509 H 0.41429 0.03127 0.61871 0.0
H1510 H 0.44641 0.02584 0.5875 0.0
H1511 H 0.38834 0.0132 0.66295 0.0
H1512 H 0.41576 0.07077 0.71096 0.0
H1513 H 0.43772 0.09413 0.74682 0.0
H1514 H 0.43313 0.06795 0.89317 0.0
H1515 H 0.4106 0.0448 0.8585 0.0
C1516 C 0.31169 0.04355 0.78623 0.0
C1517 C 0.3092 0.0372 0.83663 0.0
C1518 C 0.32927 0.04219 0.76147 0.0
C1519 C 0.34499 0.03473 0.7866 0.0
C1520 C 0.34256 0.02864 0.83705 0.0
C1521 C 0.32497 0.0297 0.86146 0.0
C1522 C 0.36407 0.03353 0.76135 0.0
C1523 C 0.37926 0.04333 0.78293 0.0
C1524 C 0.36746 0.02307 0.71634 0.0
C1525 C 0.35212 0.01287 0.6901 0.0
C1526 C 0.34116 0.99944 0.71597 0.0
C1527 C 0.32663 0.99001 0.69084 0.0
C1528 C 0.32304 0.99378 0.63972 0.0
C1529 C 0.334 0.00696 0.61358 0.0
C1530 C 0.34852 0.01645 0.63857 0.0
C1531 C 0.45426 0.02136 0.71421 0.0
C1532 C 0.45864 0.02202 0.66193 0.0
C1533 C 0.43589 0.02439 0.73206 0.0
C1534 C 0.42105 0.02826 0.69847 0.0
C1535 C 0.42527 0.02851 0.64599 0.0
C1536 C 0.44376 0.02543 0.62801 0.0
C1537 C 0.40125 0.03134 0.71848 0.0
C1538 C 0.38589 0.02195 0.69597 0.0
C1539 C 0.39747 0.04284 0.76142 0.0
C1540 C 0.41176 0.05592 0.782 0.0
C1541 C 0.4196 0.06989 0.75067 0.0
C1542 C 0.43202 0.08317 0.77086 0.0
C1543 C 0.43701 0.08237 0.82208 0.0
C1544 C 0.42935 0.06847 0.85343 0.0
C1545 C 0.41663 0.05536 0.83364 0.0
H1546 H 0.44673 0.09261 0.83754 0.0
H1547 H 0.3118 0.98645 0.62033 0.0
H1548 H 0.51305 0.30479 0.81168 0.0
H1549 H 0.51605 0.33575 0.77271 0.0
H1550 H 0.45781 0.34666 0.80479 0.0
H1551 H 0.45467 0.3157 0.84408 0.0
H1552 H 0.46687 0.36173 0.71325 0.0
H1553 H 0.49391 0.36539 0.88033 0.0
H1554 H 0.51482 0.35445 0.94847 0.0
H1555 H 0.56278 0.36326 0.85179 0.0
H1556 H 0.54209 0.37407 0.78288 0.0
H1557 H 0.47289 0.46096 0.67654 0.0
H1558 H 0.46812 0.42964 0.71155 0.0
H1559 H 0.52746 0.41905 0.69779 0.0
H1560 H 0.53245 0.45105 0.66674 0.0
H1561 H 0.51712 0.40349 0.77944 0.0
H1562 H 0.49003 0.40302 0.61402 0.0
H1563 H 0.46899 0.41325 0.54554 0.0
H1564 H 0.42095 0.39791 0.63576 0.0
H1565 H 0.44169 0.38801 0.70542 0.0
C1566 C 0.50081 0.31369 0.81084 0.0
C1567 C 0.48364 0.30739 0.83197 0.0
C1568 C 0.50255 0.33157 0.78819 0.0
C1569 C 0.48727 0.34404 0.78617 0.0
C1570 C 0.46992 0.33757 0.80553 0.0
C1571 C 0.46815 0.31965 0.8281 0.0
C1572 C 0.48966 0.36398 0.76634 0.0
C1573 C 0.47772 0.37092 0.72821 0.0
C1574 C 0.50399 0.37617 0.78458 0.0
C1575 C 0.51648 0.37043 0.82648 0.0
C1576 C 0.50892 0.36498 0.87366 0.0
C1577 C 0.52072 0.35879 0.91237 0.0
C1578 C 0.54012 0.35814 0.90444 0.0
C1579 C 0.54776 0.36378 0.85787 0.0
C1580 C 0.53601 0.36997 0.81902 0.0
C1581 C 0.48503 0.4522 0.68186 0.0
C1582 C 0.50314 0.45898 0.66939 0.0
C1583 C 0.48223 0.43395 0.70125 0.0
C1584 C 0.49733 0.4214 0.70692 0.0
C1585 C 0.51542 0.42815 0.6942 0.0
C1586 C 0.51828 0.44657 0.67598 0.0
C1587 C 0.4944 0.4014 0.72592 0.0
C1588 C 0.50624 0.39441 0.76413 0.0
C1589 C 0.47998 0.38923 0.70748 0.0
C1590 C 0.46746 0.39493 0.66527 0.0
C1591 C 0.47498 0.40205 0.61961 0.0
C1592 C 0.4631 0.40779 0.58053 0.0
C1593 C 0.44364 0.40628 0.58635 0.0
C1594 C 0.43603 0.39906 0.6313 0.0
C1595 C 0.44785 0.39338 0.67061 0.0
H1596 H 0.43447 0.41067 0.55599 0.0
H1597 H 0.54924 0.35328 0.9344 0.0
H1598 H 0.22346 0.49322 0.76545 0.0
H1599 H 0.19297 0.49518 0.72263 0.0
H1600 H 0.1649 0.4826 0.86419 0.0
H1601 H 0.19548 0.47945 0.90575 0.0
H1602 H 0.146 0.46624 0.7979 0.0
H1603 H 0.17047 0.53072 0.79577 0.0
H1604 H 0.19403 0.55483 0.77266 0.0
H1605 H 0.18797 0.54057 0.61501 0.0
H1606 H 0.16455 0.51625 0.63727 0.0
H1607 H 0.05357 0.49649 0.73579 0.0
H1608 H 0.08502 0.49192 0.77012 0.0
H1609 H 0.10905 0.50467 0.62351 0.0
H1610 H 0.07756 0.50962 0.58933 0.0
H1611 H 0.13058 0.5199 0.68658 0.0
H1612 H 0.10645 0.45813 0.68093 0.0
H1613 H 0.08519 0.43124 0.69545 0.0
H1614 H 0.0921 0.43719 0.85661 0.0
H1615 H 0.11318 0.46435 0.84312 0.0
C1616 C 0.21076 0.49097 0.78741 0.0
C1617 C 0.21201 0.48645 0.83934 0.0
C1618 C 0.19314 0.49225 0.76293 0.0
C1619 C 0.17607 0.48966 0.78987 0.0
C1620 C 0.17749 0.48487 0.84178 0.0
C1621 C 0.19509 0.48318 0.86589 0.0
C1622 C 0.15682 0.49172 0.76478 0.0
C1623 C 0.14265 0.47822 0.77438 0.0
C1624 C 0.15215 0.50671 0.73147 0.0
C1625 C 0.16589 0.5216 0.71824 0.0
C1626 C 0.1742 0.53272 0.75622 0.0
C1627 C 0.18754 0.5464 0.74326 0.0
C1628 C 0.19252 0.5492 0.69241 0.0
C1629 C 0.18412 0.53838 0.65437 0.0
C1630 C 0.17081 0.52466 0.66713 0.0
C1631 C 0.06547 0.49818 0.71052 0.0
C1632 C 0.06267 0.5033 0.65932 0.0
C1633 C 0.08367 0.49545 0.73033 0.0
C1634 C 0.09989 0.49756 0.69971 0.0
C1635 C 0.09709 0.50283 0.6486 0.0
C1636 C 0.07889 0.50562 0.62882 0.0
C1637 C 0.1196 0.49473 0.72106 0.0
C1638 C 0.13386 0.508 0.71051 0.0
C1639 C 0.12446 0.47931 0.75259 0.0
C1640 C 0.11129 0.46339 0.76101 0.0
C1641 C 0.10328 0.45385 0.7195 0.0
C1642 C 0.0913 0.43852 0.72754 0.0
C1643 C 0.08737 0.43246 0.7769 0.0
C1644 C 0.09522 0.44186 0.81838 0.0
C1645 C 0.10718 0.45723 0.81056 0.0
H1646 H 0.07824 0.42048 0.78302 0.0
H1647 H 0.20287 0.55978 0.68247 0.0
H1648 H 0.01383 0.80403 0.41932 0.0
H1649 H 0.01632 0.8352 0.45697 0.0
H1650 H 0.95886 0.84624 0.41693 0.0
H1651 H 0.95658 0.81551 0.37657 0.0
H1652 H 0.97594 0.87635 0.40042 0.0
H1653 H 0.97596 0.8379 0.54618 0.0
H1654 H 0.98501 0.81271 0.60513 0.0
H1655 H 0.04051 0.83624 0.61633 0.0
H1656 H 0.03187 0.86145 0.55689 0.0
H1657 H 0.97293 0.96181 0.54655 0.0
H1658 H 0.9677 0.92989 0.51504 0.0
H1659 H 0.02619 0.91749 0.53831 0.0
H1660 H 0.03141 0.94941 0.56963 0.0
H1661 H 0.00677 0.88804 0.56597 0.0
H1662 H 1.00367 0.92733 0.41505 0.0
H1663 H 0.9909 0.95257 0.36146 0.0
H1664 H 0.93622 0.92691 0.36817 0.0
H1665 H 0.94858 0.90171 0.42248 0.0
C1666 C 1.00166 0.813 0.41797 0.0
C1667 C 0.98496 0.80671 0.39427 0.0
C1668 C 1.00304 0.83099 0.44053 0.0
C1669 C 0.98773 0.84348 0.44106 0.0
C1670 C 0.97102 0.83721 0.41768 0.0
C1671 C 0.96965 0.81927 0.39486 0.0
C1672 C 0.98932 0.86314 0.46413 0.0
C1673 C 0.98248 0.87871 0.43701 0.0
C1674 C 0.99788 0.86684 0.51195 0.0
C1675 C 1.00334 0.85143 0.54655 0.0
C1676 C 0.99017 0.83758 0.56073 0.0
C1677 C 0.9952 0.82333 0.59436 0.0
C1678 C 0.01334 0.82284 0.61434 0.0
C1679 C 0.02648 0.83661 0.60073 0.0
C1680 C 0.02152 0.85089 0.56708 0.0
C1681 C 0.98476 0.9524 0.54471 0.0
C1682 C 1.00269 0.95856 0.5607 0.0
C1683 C 0.98175 0.93396 0.52636 0.0
C1684 C 0.99657 0.92093 0.52293 0.0
C1685 C 0.01438 0.92697 0.53994 0.0
C1686 C 0.01739 0.9454 0.5581 0.0
C1687 C 0.99371 0.90116 0.50177 0.0
C1688 C 1.00028 0.88559 0.52933 0.0
C1689 C 0.98445 0.89741 0.45502 0.0
C1690 C 0.97703 0.9127 0.42297 0.0
C1691 C 0.9889 0.92716 0.40537 0.0
C1692 C 0.98173 0.94144 0.37485 0.0
C1693 C 0.96279 0.94127 0.36123 0.0
C1694 C 0.9509 0.92697 0.3786 0.0
C1695 C 0.95798 0.9127 0.40925 0.0
H1696 H 0.95732 0.95217 0.33699 0.0
H1697 H 0.0172 0.81182 0.64048 0.0
H1698 H 0.70755 0.95563 0.37277 0.0
H1699 H 0.67672 0.95804 0.4124 0.0
H1700 H 0.68778 0.016 0.44863 0.0
H1701 H 0.71921 0.01336 0.41233 0.0
H1702 H 0.66917 1.00256 0.52302 0.0
H1703 H 0.65832 0.99876 0.34285 0.0
H1704 H 0.66088 0.9844 0.25786 0.0
H1705 H 0.63289 0.93476 0.31231 0.0
H1706 H 0.63041 0.94874 0.39784 0.0
H1707 H 0.57385 0.03224 0.55792 0.0
H1708 H 0.60581 0.02714 0.52692 0.0
H1709 H 0.59418 0.96797 0.51402 0.0
H1710 H 0.5626 0.97297 0.54894 0.0
H1711 H 0.61285 0.98047 0.42968 0.0
H1712 H 0.62184 0.98501 0.6078 0.0
H1713 H 0.61989 0.9987 0.6933 0.0
H1714 H 0.65201 0.04655 0.64359 0.0
H1715 H 0.6536 0.03338 0.55705 0.0
C1716 C 0.70375 0.96888 0.38988 0.0
C1717 C 0.71634 0.98431 0.3885 0.0
C1718 C 0.68572 0.97033 0.412 0.0
C1719 C 0.6793 0.98739 0.43276 0.0
C1720 C 0.69199 1.00266 0.4327 0.0
C1721 C 0.71011 1.00116 0.41113 0.0
C1722 C 0.65951 0.98943 0.4542 0.0
C1723 C 0.6569 0.99797 0.50197 0.0
C1724 C 0.64317 0.98299 0.42829 0.0
C1725 C 0.64433 0.97472 0.37677 0.0
C1726 C 0.65278 0.98475 0.33671 0.0
C1727 C 0.65422 0.97668 0.28847 0.0
C1728 C 0.64709 0.95866 0.27972 0.0
C1729 C 0.63843 0.9487 0.31916 0.0
C1730 C 0.63699 0.9567 0.36751 0.0
C1731 C 0.57823 0.01806 0.55066 0.0
C1732 C 0.56553 1.00303 0.55772 0.0
C1733 C 0.59657 0.01514 0.5318 0.0
C1734 C 0.60281 0.99708 0.51824 0.0
C1735 C 0.58998 0.98207 0.52399 0.0
C1736 C 0.57175 0.98498 0.54377 0.0
C1737 C 0.62255 0.99395 0.49792 0.0
C1738 C 0.62513 0.98513 0.45054 0.0
C1739 C 0.63887 1.00017 0.5241 0.0
C1740 C 0.63765 0.00831 0.57579 0.0
C1741 C 0.62828 0.99857 0.61489 0.0
C1742 C 0.62728 1.00624 0.66363 0.0
C1743 C 0.63587 0.02351 0.67398 0.0
C1744 C 0.64535 0.03319 0.63549 0.0
C1745 C 0.64627 0.02565 0.58655 0.0
H1746 H 0.63526 0.02941 0.7118 0.0
H1747 H 0.64823 0.95243 0.24234 0.0
H1748 H 0.5676 0.71351 0.41672 0.0
H1749 H 0.56442 0.68203 0.45113 0.0
H1750 H 0.50716 0.67936 0.40021 0.0
H1751 H 0.51035 0.71027 0.36229 0.0
H1752 H 0.51142 0.66609 0.50008 0.0
H1753 H 0.54089 0.6564 0.33671 0.0
H1754 H 0.56579 0.66166 0.27287 0.0
H1755 H 0.60699 0.64072 0.37671 0.0
H1756 H 0.58236 0.63564 0.44154 0.0
H1757 H 0.48957 0.57015 0.53988 0.0
H1758 H 0.49478 0.60097 0.50147 0.0
H1759 H 0.55451 0.59485 0.52104 0.0
H1760 H 0.54934 0.56351 0.55688 0.0
H1761 H 0.55089 0.61345 0.44008 0.0
H1762 H 0.52206 0.61986 0.60042 0.0
H1763 H 0.49781 0.61332 0.66405 0.0
H1764 H 0.45748 0.64392 0.57664 0.0
H1765 H 0.48097 0.64853 0.50883 0.0
C1766 C 0.55431 0.70639 0.41146 0.0
C1767 C 0.53934 0.71514 0.38525 0.0
C1768 C 0.55251 0.68815 0.43196 0.0
C1769 C 0.53559 0.67796 0.42816 0.0
C1770 C 0.52044 0.68673 0.40385 0.0
C1771 C 0.52232 0.70479 0.38233 0.0
C1772 C 0.53358 0.65823 0.44919 0.0
C1773 C 0.51987 0.65453 0.48638 0.0
C1774 C 0.54508 0.6431 0.43331 0.0
C1775 C 0.55982 0.64582 0.39411 0.0
C1776 C 0.55528 0.65304 0.34605 0.0
C1777 C 0.56934 0.65598 0.30968 0.0
C1778 C 0.58797 0.65157 0.32077 0.0
C1779 C 0.59256 0.64416 0.36821 0.0
C1780 C 0.57856 0.64124 0.40477 0.0
C1781 C 0.50385 0.5753 0.53604 0.0
C1782 C 0.51896 0.5642 0.55243 0.0
C1783 C 0.50687 0.59313 0.51401 0.0
C1784 C 0.52509 0.60094 0.50921 0.0
C1785 C 0.54025 0.58959 0.52424 0.0
C1786 C 0.53726 0.57154 0.5452 0.0
C1787 C 0.52821 0.62101 0.49036 0.0
C1788 C 0.5423 0.62488 0.4539 0.0
C1789 C 0.51724 0.63644 0.50765 0.0
C1790 C 0.50326 0.63432 0.54913 0.0
C1791 C 0.50796 0.625 0.5943 0.0
C1792 C 0.49428 0.62156 0.63114 0.0
C1793 C 0.47615 0.62857 0.62507 0.0
C1794 C 0.47155 0.63855 0.58135 0.0
C1795 C 0.48497 0.64128 0.54323 0.0
H1796 H 0.46561 0.62629 0.65396 0.0
H1797 H 0.59883 0.65387 0.29257 0.0
H1798 H 0.81659 0.56552 0.36835 0.0
H1799 H 0.8479 0.5634 0.40544 0.0
H1800 H 0.83454 0.50846 0.46347 0.0
H1801 H 0.80291 0.51063 0.42739 0.0
H1802 H 0.85527 0.52974 0.53436 0.0
H1803 H 0.8614 0.51489 0.35361 0.0
H1804 H 0.85712 0.52254 0.26303 0.0
H1805 H 0.88985 0.57288 0.28179 0.0
H1806 H 0.89412 0.56564 0.37262 0.0
H1807 H 0.95009 0.49441 0.56659 0.0
H1808 H 0.91758 0.49902 0.53842 0.0
H1809 H 0.93077 0.55614 0.49843 0.0
H1810 H 0.9627 0.55208 0.5302 0.0
H1811 H 0.91037 0.53521 0.41938 0.0
H1812 H 0.90552 0.55442 0.58664 0.0
H1813 H 0.9083 0.55516 0.67974 0.0
H1814 H 0.87296 0.50632 0.69134 0.0
H1815 H 0.87024 0.50503 0.59791 0.0
C1816 C 0.82005 0.55303 0.38959 0.0
C1817 C 0.80681 0.53825 0.39437 0.0
C1818 C 0.83823 0.55176 0.41056 0.0
C1819 C 0.84403 0.53564 0.43709 0.0
C1820 C 0.83071 0.52107 0.44319 0.0
C1821 C 0.81252 0.52228 0.42198 0.0
C1822 C 0.86401 0.53375 0.45678 0.0
C1823 C 0.86724 0.53051 0.50887 0.0
C1824 C 0.88001 0.53582 0.42473 0.0
C1825 C 0.878 0.53977 0.36985 0.0
C1826 C 0.86765 0.5276 0.33838 0.0
C1827 C 0.86522 0.53187 0.28704 0.0
C1828 C 0.87319 0.5482 0.26668 0.0
C1829 C 0.88369 0.56024 0.29759 0.0
C1830 C 0.88614 0.55605 0.34897 0.0
C1831 C 0.94614 0.50802 0.552 0.0
C1832 C 0.95951 0.52274 0.54988 0.0
C1833 C 0.92741 0.51064 0.53582 0.0
C1834 C 0.92149 0.52791 0.51554 0.0
C1835 C 0.9348 0.5426 0.51327 0.0
C1836 C 0.95329 0.54018 0.53122 0.0
C1837 C 0.90157 0.53057 0.49659 0.0
C1838 C 0.89838 0.53407 0.44475 0.0
C1839 C 0.88567 0.52951 0.52921 0.0
C1840 C 0.88797 0.52941 0.58515 0.0
C1841 C 0.89865 0.54358 0.60889 0.0
C1842 C 0.90014 0.54417 0.66173 0.0
C1843 C 0.89087 0.53079 0.69137 0.0
C1844 C 0.88019 0.51666 0.66825 0.0
C1845 C 0.87868 0.51597 0.61531 0.0
H1846 H 0.89187 0.53156 0.73224 0.0
H1847 H 0.87124 0.55151 0.22695 0.0
loop_
_geom_bond_atom_site_label_1
_geom_bond_atom_site_label_2
_geom_bond_distance
_geom_bond_site_symmetry_2
_ccdc_geom_bond_type
C0 C1 1.386 . S
C0 C2 1.397 . S
C0 H24 0.931 1_554 S
C1 C0 1.386 . S
C1 C5 1.397 . S
C2 C0 1.397 . S
C2 C3 1.384 . S
C2 H25 0.930 . S
C3 C2 1.384 . S
C3 C4 1.377 . S
C3 C6 1.481 . S
C4 C3 1.377 . S
C4 C5 1.389 . S
C4 H26 0.929 . S
C5 C1 1.397 . S
C5 C4 1.389 . S
C5 H27 0.931 . S
C6 C3 1.481 . S
C6 C7 1.387 . S
C6 C11 1.390 . S
C7 C6 1.387 . S
C7 C8 1.401 . S
C7 H28 0.930 . S
C8 C7 1.401 . S
C8 C9 1.376 . S
C8 C17 1.511 . S
C9 C8 1.376 . S
C9 C10 1.392 . S
C9 H30 0.931 . S
C10 C9 1.392 . S
C10 C11 1.361 . S
C10 C12 1.500 . S
C11 C6 1.390 . S
C11 C10 1.361 . S
C11 H29 0.931 . S
C12 C10 1.500 . S
C12 C13 1.371 . S
C12 C14 1.365 . S
C13 C12 1.371 . S
C13 C23 1.386 . S
C13 H31 0.931 . S
C14 C12 1.365 . S
C14 C15 1.409 . S
C14 H32 0.929 . S
C15 C14 1.409 . S
C15 C16 1.380 . S
C15 H33 0.930 . S
C16 C15 1.380 . S
C16 C23 1.357 . S
C17 C8 1.511 . S
C17 C18 1.341 . S
C17 C19 1.371 . S
C18 C17 1.341 . S
C18 C22 1.394 . S
C18 H34 0.930 . S
C19 C17 1.371 . S
C19 C20 1.392 . S
C19 H35 0.931 . S
C20 C19 1.392 . S
C20 C21 1.331 . S
C20 H38 0.932 . S
C21 C20 1.331 . S
C21 C22 1.336 . S
C22 C18 1.394 . S
C22 C21 1.336 . S
C22 H37 0.929 . S
C23 C13 1.386 . S
C23 C16 1.357 . S
C23 H36 0.928 . S
H24 C0 0.931 1_556 S
H25 C2 0.930 . S
H26 C4 0.929 . S
H27 C5 0.931 . S
H28 C7 0.930 . S
H29 C11 0.931 . S
H30 C9 0.931 . S
H31 C13 0.931 . S
H32 C14 0.929 . S
H33 C15 0.930 . S
H34 C18 0.930 . S
H35 C19 0.931 . S
H36 C23 0.928 . S
H37 C22 0.929 . S
H38 C20 0.932 . S
C39 C40 1.386 . S
C39 C41 1.397 . S
C39 H63 0.931 1_554 S
C40 C39 1.386 . S
C40 C44 1.397 . S
C41 C39 1.397 . S
C41 C42 1.384 . S
C41 H64 0.930 . S
C42 C41 1.384 . S
C42 C43 1.377 . S
C42 C45 1.481 . S
C43 C42 1.377 . S
C43 C44 1.389 . S
C43 H65 0.929 . S
C44 C40 1.397 . S
C44 C43 1.389 . S
C44 H66 0.931 . S
C45 C42 1.481 . S
C45 C46 1.387 . S
C45 C50 1.390 . S
C46 C45 1.387 . S
C46 C47 1.401 . S
C46 H67 0.930 . S
C47 C46 1.401 . S
C47 C48 1.376 . S
C47 C56 1.511 . S
C48 C47 1.376 . S
C48 C49 1.392 . S
C48 H69 0.931 . S
C49 C48 1.392 . S
C49 C50 1.361 . S
C49 C51 1.500 . S
C50 C45 1.390 . S
C50 C49 1.361 . S
C50 H68 0.931 . S
C51 C49 1.500 . S
C51 C52 1.371 . S
C51 C53 1.365 . S
C52 C51 1.371 . S
C52 C62 1.386 . S
C52 H70 0.931 . S
C53 C51 1.365 . S
C53 C54 1.409 . S
C53 H71 0.929 . S
C54 C53 1.409 . S
C54 C55 1.380 . S
C54 H72 0.930 . S
C55 C54 1.380 . S
C55 C62 1.357 . S
C56 C47 1.511 . S
C56 C57 1.341 . S
C56 C58 1.371 . S
C57 C56 1.341 . S
C57 C61 1.394 . S
C57 H73 0.930 . S
C58 C56 1.371 . S
C58 C59 1.392 . S
C58 H74 0.931 . S
C59 C58 1.392 . S
C59 C60 1.331 . S
C59 H77 0.932 . S
C60 C59 1.331 . S
C60 C61 1.336 . S
C61 C57 1.394 . S
C61 C60 1.336 . S
C61 H76 0.929 . S
C62 C52 1.386 . S
C62 C55 1.357 . S
C62 H75 0.928 . S
H63 C39 0.931 1_556 S
H64 C41 0.930 . S
H65 C43 0.929 . S
H66 C44 0.931 . S
H67 C46 0.930 . S
H68 C50 0.931 . S
H69 C48 0.931 . S
H70 C52 0.931 . S
H71 C53 0.929 . S
H72 C54 0.930 . S
H73 C57 0.930 . S
H74 C58 0.931 . S
H75 C62 0.928 . S
H76 C61 0.929 . S
H77 C59 0.932 . S
C78 C79 1.386 . S
C78 C80 1.397 . S
C78 H102 0.931 1_554 S
C79 C78 1.386 . S
C79 C83 1.397 . S
C80 C78 1.397 . S
C80 C81 1.384 . S
C80 H103 0.930 . S
C81 C80 1.384 . S
C81 C82 1.377 . S
C81 C84 1.481 . S
C82 C81 1.377 . S
C82 C83 1.389 . S
C82 H104 0.929 . S
C83 C79 1.397 . S
C83 C82 1.389 . S
C83 H105 0.931 . S
C84 C81 1.481 . S
C84 C85 1.387 . S
C84 C89 1.390 . S
C85 C84 1.387 . S
C85 C86 1.401 . S
C85 H106 0.930 . S
C86 C85 1.401 . S
C86 C87 1.376 . S
C86 C95 1.511 . S
C87 C86 1.376 . S
C87 C88 1.392 . S
C87 H108 0.931 . S
C88 C87 1.392 . S
C88 C89 1.361 . S
C88 C90 1.500 . S
C89 C84 1.390 . S
C89 C88 1.361 . S
C89 H107 0.931 . S
C90 C88 1.500 . S
C90 C91 1.371 . S
C90 C92 1.365 . S
C91 C90 1.371 . S
C91 C101 1.386 . S
C91 H109 0.931 . S
C92 C90 1.365 . S
C92 C93 1.409 . S
C92 H110 0.929 . S
C93 C92 1.409 . S
C93 C94 1.380 . S
C93 H111 0.930 . S
C94 C93 1.380 . S
C94 C101 1.357 . S
C95 C86 1.511 . S
C95 C96 1.341 . S
C95 C97 1.371 . S
C96 C95 1.341 . S
C96 C100 1.394 . S
C96 H112 0.930 . S
C97 C95 1.371 . S
C97 C98 1.392 . S
C97 H113 0.931 . S
C98 C97 1.392 . S
C98 C99 1.331 . S
C98 H116 0.932 . S
C99 C98 1.331 . S
C99 C100 1.336 . S
C100 C96 1.394 . S
C100 C99 1.336 . S
C100 H115 0.929 . S
C101 C91 1.386 . S
C101 C94 1.357 . S
C101 H114 0.928 . S
H102 C78 0.931 1_556 S
H103 C80 0.930 . S
H104 C82 0.929 . S
H105 C83 0.931 . S
H106 C85 0.930 . S
H107 C89 0.931 . S
H108 C87 0.931 . S
H109 C91 0.931 . S
H110 C92 0.929 . S
H111 C93 0.930 . S
H112 C96 0.930 . S
H113 C97 0.931 . S
H114 C101 0.928 . S
H115 C100 0.929 . S
H116 C98 0.932 . S
C117 C118 1.386 . S
C117 C119 1.397 . S
C117 H141 0.931 . S
C118 C117 1.386 . S
C118 C122 1.397 . S
C119 C117 1.397 . S
C119 C120 1.384 . S
C119 H142 0.930 . S
C120 C119 1.384 . S
C120 C121 1.377 . S
C120 C123 1.481 . S
C121 C120 1.377 . S
C121 C122 1.389 . S
C121 H143 0.929 . S
C122 C118 1.397 . S
C122 C121 1.389 . S
C122 H144 0.931 . S
C123 C120 1.481 . S
C123 C124 1.387 . S
C123 C128 1.390 . S
C124 C123 1.387 . S
C124 C125 1.401 . S
C124 H145 0.930 . S
C125 C124 1.401 . S
C125 C126 1.376 . S
C125 C134 1.511 . S
C126 C125 1.376 . S
C126 C127 1.392 . S
C126 H147 0.931 . S
C127 C126 1.392 . S
C127 C128 1.361 . S
C127 C129 1.500 . S
C128 C123 1.390 . S
C128 C127 1.361 . S
C128 H146 0.931 . S
C129 C127 1.500 . S
C129 C130 1.371 . S
C129 C131 1.365 . S
C130 C129 1.371 . S
C130 C140 1.386 . S
C130 H148 0.931 . S
C131 C129 1.365 . S
C131 C132 1.409 . S
C131 H149 0.929 . S
C132 C131 1.409 . S
C132 C133 1.380 . S
C132 H150 0.930 . S
C133 C132 1.380 . S
C133 C140 1.357 . S
C134 C125 1.511 . S
C134 C135 1.341 . S
C134 C136 1.371 . S
C135 C134 1.341 . S
C135 C139 1.394 . S
C135 H151 0.930 . S
C136 C134 1.371 . S
C136 C137 1.392 . S
C136 H152 0.931 . S
C137 C136 1.392 . S
C137 C138 1.331 . S
C137 H155 0.932 . S
C138 C137 1.331 . S
C138 C139 1.336 . S
C139 C135 1.394 . S
C139 C138 1.336 . S
C139 H154 0.929 . S
C140 C130 1.386 . S
C140 C133 1.357 . S
C140 H153 0.928 1_554 S
H141 C117 0.931 . S
H142 C119 0.930 . S
H143 C121 0.929 . S
H144 C122 0.931 . S
H145 C124 0.930 . S
H146 C128 0.931 . S
H147 C126 0.931 . S
H148 C130 0.931 . S
H149 C131 0.929 . S
H150 C132 0.930 . S
H151 C135 0.930 . S
H152 C136 0.931 . S
H153 C140 0.928 1_556 S
H154 C139 0.929 . S
H155 C137 0.932 . S
C156 C157 1.386 . S
C156 C158 1.397 . S
C156 H180 0.931 . S
C157 C156 1.386 . S
C157 C161 1.397 . S
C158 C156 1.397 . S
C158 C159 1.384 . S
C158 H181 0.930 . S
C159 C158 1.384 . S
C159 C160 1.377 . S
C159 C162 1.481 . S
C160 C159 1.377 . S
C160 C161 1.389 . S
C160 H182 0.929 . S
C161 C157 1.397 . S
C161 C160 1.389 . S
C161 H183 0.931 . S
C162 C159 1.481 . S
C162 C163 1.387 . S
C162 C167 1.390 . S
C163 C162 1.387 . S
C163 C164 1.401 . S
C163 H184 0.930 . S
C164 C163 1.401 . S
C164 C165 1.376 1_554 S
C164 C173 1.511 . S
C165 C164 1.376 1_556 S
C165 C166 1.392 . S
C165 H186 0.931 . S
C166 C165 1.392 . S
C166 C167 1.361 1_556 S
C166 C168 1.500 . S
C167 C162 1.390 . S
C167 C166 1.361 1_554 S
C167 H185 0.931 . S
C168 C166 1.500 . S
C168 C169 1.371 . S
C168 C170 1.365 . S
C169 C168 1.371 . S
C169 C179 1.386 . S
C169 H187 0.931 . S
C170 C168 1.365 . S
C170 C171 1.409 . S
C170 H188 0.929 . S
C171 C170 1.409 . S
C171 C172 1.380 . S
C171 H189 0.930 . S
C172 C171 1.380 . S
C172 C179 1.357 . S
C173 C164 1.511 . S
C173 C174 1.341 . S
C173 C175 1.371 . S
C174 C173 1.341 . S
C174 C178 1.394 . S
C174 H190 0.930 . S
C175 C173 1.371 . S
C175 C176 1.392 . S
C175 H191 0.931 1_554 S
C176 C175 1.392 . S
C176 C177 1.331 . S
C176 H194 0.932 . S
C177 C176 1.331 . S
C177 C178 1.336 . S
C178 C174 1.394 . S
C178 C177 1.336 . S
C178 H193 0.929 . S
C179 C169 1.386 . S
C179 C172 1.357 . S
C179 H192 0.928 . S
H180 C156 0.931 . S
H181 C158 0.930 . S
H182 C160 0.929 . S
H183 C161 0.931 . S
H184 C163 0.930 . S
H185 C167 0.931 . S
H186 C165 0.931 . S
H187 C169 0.931 . S
H188 C170 0.929 . S
H189 C171 0.930 . S
H190 C174 0.930 . S
H191 C175 0.931 1_556 S
H192 C179 0.928 . S
H193 C178 0.929 . S
H194 C176 0.932 . S
C195 C196 1.386 . S
C195 C197 1.397 . S
C195 H219 0.931 . S
C196 C195 1.386 . S
C196 C200 1.397 . S
C197 C195 1.397 . S
C197 C198 1.384 . S
C197 H220 0.930 . S
C198 C197 1.384 . S
C198 C199 1.377 . S
C198 C201 1.481 . S
C199 C198 1.377 . S
C199 C200 1.389 . S
C199 H221 0.929 . S
C200 C196 1.397 . S
C200 C199 1.389 . S
C200 H222 0.931 . S
C201 C198 1.481 . S
C201 C202 1.387 . S
C201 C206 1.390 . S
C202 C201 1.387 . S
C202 C203 1.401 . S
C202 H223 0.930 . S
C203 C202 1.401 . S
C203 C204 1.376 1_554 S
C203 C212 1.511 . S
C204 C203 1.376 1_556 S
C204 C205 1.392 . S
C204 H225 0.931 . S
C205 C204 1.392 . S
C205 C206 1.361 1_556 S
C205 C207 1.500 . S
C206 C201 1.390 . S
C206 C205 1.361 1_554 S
C206 H224 0.931 . S
C207 C205 1.500 . S
C207 C208 1.371 . S
C207 C209 1.365 . S
C208 C207 1.371 . S
C208 C218 1.386 . S
C208 H226 0.931 . S
C209 C207 1.365 . S
C209 C210 1.409 . S
C209 H227 0.929 . S
C210 C209 1.409 . S
C210 C211 1.380 . S
C210 H228 0.930 . S
C211 C210 1.380 . S
C211 C218 1.357 . S
C212 C203 1.511 . S
C212 C213 1.341 . S
C212 C214 1.371 . S
C213 C212 1.341 . S
C213 C217 1.394 . S
C213 H229 0.930 . S
C214 C212 1.371 . S
C214 C215 1.392 . S
C214 H230 0.931 1_554 S
C215 C214 1.392 . S
C215 C216 1.331 . S
C215 H233 0.932 . S
C216 C215 1.331 . S
C216 C217 1.336 . S
C217 C213 1.394 . S
C217 C216 1.336 . S
C217 H232 0.929 . S
C218 C208 1.386 . S
C218 C211 1.357 . S
C218 H231 0.928 . S
H219 C195 0.931 . S
H220 C197 0.930 . S
H221 C199 0.929 . S
H222 C200 0.931 . S
H223 C202 0.930 . S
H224 C206 0.931 . S
H225 C204 0.931 . S
H226 C208 0.931 . S
H227 C209 0.929 . S
H228 C210 0.930 . S
H229 C213 0.930 . S
H230 C214 0.931 1_556 S
H231 C218 0.928 . S
H232 C217 0.929 . S
H233 C215 0.932 . S
C234 C235 1.386 . S
C234 C236 1.397 . S
C234 H258 0.931 . S
C235 C234 1.386 . S
C235 C239 1.397 . S
C236 C234 1.397 . S
C236 C237 1.384 . S
C236 H259 0.930 . S
C237 C236 1.384 . S
C237 C238 1.377 . S
C237 C240 1.481 . S
C238 C237 1.377 . S
C238 C239 1.389 . S
C238 H260 0.929 . S
C239 C235 1.397 . S
C239 C238 1.389 . S
C239 H261 0.931 . S
C240 C237 1.481 . S
C240 C241 1.387 . S
C240 C245 1.390 . S
C241 C240 1.387 . S
C241 C242 1.401 . S
C241 H262 0.930 . S
C242 C241 1.401 . S
C242 C243 1.376 1_554 S
C242 C251 1.511 . S
C243 C242 1.376 1_556 S
C243 C244 1.392 . S
C243 H264 0.931 . S
C244 C243 1.392 . S
C244 C245 1.361 1_556 S
C244 C246 1.500 . S
C245 C240 1.390 . S
C245 C244 1.361 1_554 S
C245 H263 0.931 . S
C246 C244 1.500 . S
C246 C247 1.371 . S
C246 C248 1.365 . S
C247 C246 1.371 . S
C247 C257 1.386 . S
C247 H265 0.931 . S
C248 C246 1.365 . S
C248 C249 1.409 . S
C248 H266 0.929 . S
C249 C248 1.409 . S
C249 C250 1.380 . S
C249 H267 0.930 . S
C250 C249 1.380 . S
C250 C257 1.357 . S
C251 C242 1.511 . S
C251 C252 1.341 . S
C251 C253 1.371 . S
C252 C251 1.341 . S
C252 C256 1.394 . S
C252 H268 0.930 . S
C253 C251 1.371 . S
C253 C254 1.392 . S
C253 H269 0.931 1_554 S
C254 C253 1.392 . S
C254 C255 1.331 . S
C254 H272 0.932 . S
C255 C254 1.331 . S
C255 C256 1.336 . S
C256 C252 1.394 . S
C256 C255 1.336 . S
C256 H271 0.929 . S
C257 C247 1.386 . S
C257 C250 1.357 . S
C257 H270 0.928 . S
H258 C234 0.931 . S
H259 C236 0.930 . S
H260 C238 0.929 . S
H261 C239 0.931 . S
H262 C241 0.930 . S
H263 C245 0.931 . S
H264 C243 0.931 . S
H265 C247 0.931 . S
H266 C248 0.929 . S
H267 C249 0.930 . S
H268 C252 0.930 . S
H269 C253 0.931 1_556 S
H270 C257 0.928 . S
H271 C256 0.929 . S
H272 C254 0.932 . S
C273 C274 1.386 . S
C273 C275 1.397 . S
C273 H297 0.931 . S
C274 C273 1.386 . S
C274 C278 1.397 . S
C275 C273 1.397 . S
C275 C276 1.384 . S
C275 H298 0.930 . S
C276 C275 1.384 . S
C276 C277 1.377 . S
C276 C279 1.481 . S
C277 C276 1.377 . S
C277 C278 1.389 . S
C277 H299 0.929 . S
C278 C274 1.397 . S
C278 C277 1.389 . S
C278 H300 0.931 . S
C279 C276 1.481 . S
C279 C280 1.387 . S
C279 C284 1.390 1_556 S
C280 C279 1.387 . S
C280 C281 1.401 1_556 S
C280 H301 0.930 . S
C281 C280 1.401 1_554 S
C281 C282 1.376 . S
C281 C290 1.511 . S
C282 C281 1.376 . S
C282 C283 1.392 . S
C282 H303 0.931 . S
C283 C282 1.392 . S
C283 C284 1.361 . S
C283 C285 1.500 . S
C284 C279 1.390 1_554 S
C284 C283 1.361 . S
C284 H302 0.931 . S
C285 C283 1.500 . S
C285 C286 1.371 . S
C285 C287 1.365 . S
C286 C285 1.371 . S
C286 C296 1.386 . S
C286 H304 0.931 . S
C287 C285 1.365 . S
C287 C288 1.409 . S
C287 H305 0.929 . S
C288 C287 1.409 . S
C288 C289 1.380 . S
C288 H306 0.930 . S
C289 C288 1.380 . S
C289 C296 1.357 . S
C290 C281 1.511 . S
C290 C291 1.341 . S
C290 C292 1.371 . S
C291 C290 1.341 . S
C291 C295 1.394 . S
C291 H307 0.930 1_554 S
C292 C290 1.371 . S
C292 C293 1.392 . S
C292 H308 0.931 . S
C293 C292 1.392 . S
C293 C294 1.331 . S
C293 H311 0.932 . S
C294 C293 1.331 . S
C294 C295 1.336 . S
C295 C291 1.394 . S
C295 C294 1.336 . S
C295 H310 0.929 . S
C296 C286 1.386 . S
C296 C289 1.357 . S
C296 H309 0.928 . S
H297 C273 0.931 . S
H298 C275 0.930 . S
H299 C277 0.929 . S
H300 C278 0.931 . S
H301 C280 0.930 . S
H302 C284 0.931 . S
H303 C282 0.931 . S
H304 C286 0.931 . S
H305 C287 0.929 . S
H306 C288 0.930 . S
H307 C291 0.930 1_556 S
H308 C292 0.931 . S
H309 C296 0.928 . S
H310 C295 0.929 . S
H311 C293 0.932 . S
Tb312 N341 2.617 . S
Tb312 N347 2.572 . S
Tb312 O356 2.446 1_655 S
Tb312 O357 2.387 1_545 S
Tb312 O359 2.428 . S
Tb312 O360 2.308 1_655 S
Tb312 O364 2.349 1_655 S
Tb312 O367 2.393 . S
Tb312 C376 2.802 . S
C313 N314 1.379 1_545 S
C313 C316 1.416 . S
C313 C320 1.424 . S
N314 C313 1.379 1_565 S
N314 C317 1.334 . S
N314 Tb323 2.617 . S
C315 C317 1.390 1_545 S
C315 C318 1.339 . S
C315 H335 0.930 . S
C316 C313 1.416 . S
C316 C318 1.416 . S
C316 C322 1.448 . S
C317 N314 1.334 . S
C317 C315 1.390 1_565 S
C317 H328 0.930 . S
C318 C315 1.339 . S
C318 C316 1.416 . S
C318 H339 0.930 . S
C319 C320 1.413 . S
C319 C321 1.427 . S
C319 C325 1.416 . S
C320 C313 1.424 . S
C320 C319 1.413 . S
C320 N324 1.361 . S
C321 C319 1.427 . S
C321 C322 1.328 . S
C321 H336 0.929 . S
C322 C316 1.448 . S
C322 C321 1.328 . S
C322 H337 0.930 . S
Tb323 N314 2.617 . S
Tb323 N324 2.572 1_565 S
Tb323 O358 2.349 . S
Tb323 O361 2.393 . S
Tb323 O362 2.465 . S
Tb323 O363 2.387 1_565 S
Tb323 O365 2.428 . S
Tb323 O366 2.299 1_465 S
Tb323 C387 2.802 . S
N324 C320 1.361 . S
N324 Tb323 2.572 1_545 S
N324 C326 1.340 . S
C325 C319 1.416 . S
C325 C327 1.332 . S
C325 H333 0.931 . S
C326 N324 1.340 . S
C326 C327 1.407 . S
C326 H332 0.896 1_445 S
C327 C325 1.332 . S
C327 C326 1.407 . S
C327 H329 0.929 . S
H328 C317 0.930 . S
H329 C327 0.929 . S
H330 C345 0.930 . S
H331 C352 0.926 1_455 S
H332 C326 0.896 1_665 S
H333 C325 0.931 . S
H334 C348 0.955 . S
H335 C315 0.930 . S
H336 C321 0.929 . S
H337 C322 0.930 . S
H338 C343 0.930 . S
H339 C318 0.930 . S
H340 C351 0.931 . S
N341 Tb312 2.617 . S
N341 C342 1.379 . S
N341 C345 1.334 . S
C342 N341 1.379 . S
C342 C344 1.416 1_545 S
C342 C350 1.424 . S
C343 H338 0.930 . S
C343 C345 1.390 . S
C343 C346 1.341 1_545 S
C344 C342 1.416 1_565 S
C344 C346 1.416 . S
C344 C377 1.448 . S
C345 H330 0.930 . S
C345 N341 1.334 . S
C345 C343 1.390 . S
C346 C343 1.341 1_565 S
C346 C344 1.416 . S
C346 H353 0.928 . S
N347 Tb312 2.572 . S
N347 C348 1.317 1_655 S
N347 C350 1.361 . S
C348 H334 0.955 . S
C348 N347 1.317 1_455 S
C348 C352 1.388 1_445 S
C349 C350 1.413 1_565 S
C349 C351 1.416 . S
C349 C378 1.427 . S
C350 C342 1.424 . S
C350 N347 1.361 . S
C350 C349 1.413 1_545 S
C351 H340 0.931 . S
C351 C349 1.416 . S
C351 C352 1.357 . S
C352 H331 0.926 1_655 S
C352 C348 1.388 1_665 S
C352 C351 1.357 . S
H353 C346 0.928 . S
H354 C377 0.930 . S
H355 C378 0.929 . S
O356 Tb312 2.446 1_455 S
O356 C376 1.217 1_455 S
O357 Tb312 2.387 1_565 S
O357 C368 1.264 . S
O358 Tb323 2.349 . S
O358 C368 1.243 1_455 S
O359 Tb312 2.428 . S
O359 C376 1.256 . S
O360 Tb312 2.308 1_455 S
O360 C375 1.266 . S
O361 Tb323 2.393 . S
O361 C375 1.248 1_565 S
O362 Tb323 2.465 . S
O362 C387 1.264 . S
O363 Tb323 2.387 1_545 S
O363 C379 1.264 . S
O364 Tb312 2.349 1_455 S
O364 C379 1.243 . S
O365 Tb323 2.428 . S
O365 C387 1.256 . S
O366 Tb323 2.299 1_645 S
O366 C386 1.274 . S
O367 Tb312 2.393 . S
O367 C386 1.248 . S
C368 O357 1.264 . S
C368 O358 1.243 1_655 S
C369 C372 1.399 . S
C369 C374 1.406 . S
C369 C376 1.496 . S
C370 C371 1.399 . S
C370 C374 1.393 . S
C371 C370 1.399 . S
C371 C373 1.380 . S
C371 H388 0.929 . S
C372 C369 1.399 . S
C372 C373 1.392 . S
C372 H389 0.929 . S
C373 C371 1.380 . S
C373 C372 1.392 . S
C373 H390 0.929 . S
C374 C369 1.406 . S
C374 C370 1.393 . S
C374 H391 0.904 1_655 S
C375 O360 1.266 . S
C375 O361 1.248 1_545 S
C376 Tb312 2.802 . S
C376 O356 1.217 1_655 S
C376 O359 1.256 . S
C376 C369 1.496 . S
C377 C344 1.448 . S
C377 H354 0.930 . S
C377 C378 1.328 . S
C378 C349 1.427 . S
C378 H355 0.929 . S
C378 C377 1.328 . S
C379 O363 1.264 . S
C379 O364 1.243 . S
C380 C383 1.399 . S
C380 C384 1.383 . S
C380 C387 1.496 . S
C381 C382 1.399 . S
C381 C384 1.389 . S
C382 C381 1.399 . S
C382 C385 1.380 . S
C382 H392 0.929 . S
C383 C380 1.399 . S
C383 C385 1.392 . S
C383 H393 0.929 . S
C384 C380 1.383 . S
C384 C381 1.389 . S
C384 H394 0.975 . S
C385 C382 1.380 . S
C385 C383 1.392 . S
C385 H395 0.929 . S
C386 O366 1.274 . S
C386 O367 1.248 . S
C387 Tb323 2.802 . S
C387 O362 1.264 . S
C387 O365 1.256 . S
C387 C380 1.496 . S
H388 C371 0.929 . S
H389 C372 0.929 . S
H390 C373 0.929 . S
H391 C374 0.904 1_455 S
H392 C382 0.929 . S
H393 C383 0.929 . S
H394 C384 0.975 . S
H395 C385 0.929 . S
Tb396 N425 2.617 . S
Tb396 N431 2.572 . S
Tb396 O440 2.465 . S
Tb396 O441 2.387 . S
Tb396 O443 2.428 . S
Tb396 O444 2.308 . S
Tb396 O448 2.349 1_545 S
Tb396 O451 2.393 . S
Tb396 C460 2.802 . S
C397 N398 1.379 . S
C397 C400 1.416 . S
C397 C404 1.424 . S
N398 C397 1.379 . S
N398 C401 1.334 . S
N398 Tb407 2.617 . S
C399 C401 1.390 . S
C399 C402 1.339 . S
C399 H419 0.930 . S
C400 C397 1.416 . S
C400 C402 1.416 . S
C400 C406 1.448 . S
C401 N398 1.334 . S
C401 C399 1.390 . S
C401 H412 0.930 . S
C402 C399 1.339 . S
C402 C400 1.416 . S
C402 H423 0.930 . S
C403 C404 1.413 . S
C403 C405 1.427 . S
C403 C409 1.416 . S
C404 C397 1.424 . S
C404 C403 1.413 . S
C404 N408 1.361 . S
C405 C403 1.427 . S
C405 C406 1.328 . S
C405 H420 0.929 . S
C406 C400 1.448 . S
C406 C405 1.328 . S
C406 H421 0.930 . S
Tb407 N398 2.617 . S
Tb407 N408 2.572 . S
Tb407 O442 2.349 1_565 S
Tb407 O445 2.393 . S
Tb407 O446 2.465 . S
Tb407 O447 2.387 . S
Tb407 O449 2.428 . S
Tb407 O450 2.308 1_565 S
Tb407 C471 2.802 . S
N408 C404 1.361 . S
N408 Tb407 2.572 . S
N408 C410 1.340 . S
C409 C403 1.416 . S
C409 C411 1.332 . S
C409 H417 0.931 . S
C410 N408 1.340 . S
C410 C411 1.407 . S
C410 H416 0.930 . S
C411 C409 1.332 . S
C411 C410 1.407 . S
C411 H413 0.929 . S
H412 C401 0.930 . S
H413 C411 0.929 . S
H414 C429 0.930 . S
H415 C436 0.929 . S
H416 C410 0.930 . S
H417 C409 0.931 . S
H418 C432 0.930 . S
H419 C399 0.930 . S
H420 C405 0.929 . S
H421 C406 0.930 . S
H422 C427 0.930 . S
H423 C402 0.930 . S
H424 C435 0.931 . S
N425 Tb396 2.617 . S
N425 C426 1.379 . S
N425 C429 1.334 . S
C426 N425 1.379 . S
C426 C428 1.416 . S
C426 C434 1.424 . S
C427 H422 0.930 . S
C427 C429 1.390 . S
C427 C430 1.339 . S
C428 C426 1.416 . S
C428 C430 1.416 . S
C428 C461 1.448 . S
C429 H414 0.930 . S
C429 N425 1.334 . S
C429 C427 1.390 . S
C430 C427 1.339 . S
C430 C428 1.416 . S
C430 H437 0.930 . S
N431 Tb396 2.572 . S
N431 C432 1.340 . S
N431 C434 1.361 . S
C432 H418 0.930 . S
C432 N431 1.340 . S
C432 C436 1.407 . S
C433 C434 1.413 . S
C433 C435 1.416 . S
C433 C462 1.427 . S
C434 C426 1.424 . S
C434 N431 1.361 . S
C434 C433 1.413 . S
C435 H424 0.931 . S
C435 C433 1.416 . S
C435 C436 1.332 . S
C436 H415 0.929 . S
C436 C432 1.407 . S
C436 C435 1.332 . S
H437 C430 0.930 . S
H438 C461 0.930 . S
H439 C462 0.929 . S
O440 Tb396 2.465 . S
O440 C460 1.264 . S
O441 Tb396 2.387 . S
O441 C452 1.264 . S
O442 Tb407 2.349 1_545 S
O442 C452 1.243 . S
O443 Tb396 2.428 . S
O443 C460 1.256 . S
O444 Tb396 2.308 . S
O444 C459 1.266 1_545 S
O445 Tb407 2.393 . S
O445 C459 1.248 . S
O446 Tb407 2.465 . S
O446 C471 1.264 . S
O447 Tb407 2.387 . S
O447 C463 1.264 . S
O448 Tb396 2.349 1_565 S
O448 C463 1.243 . S
O449 Tb407 2.428 . S
O449 C471 1.256 . S
O450 Tb407 2.308 1_545 S
O450 C470 1.266 . S
O451 Tb396 2.393 . S
O451 C470 1.248 . S
C452 O441 1.264 . S
C452 O442 1.243 . S
C453 C456 1.399 . S
C453 C458 1.383 . S
C453 C460 1.496 . S
C454 C455 1.399 . S
C454 C458 1.389 . S
C455 C454 1.399 . S
C455 C457 1.380 . S
C455 H472 0.929 . S
C456 C453 1.399 . S
C456 C457 1.392 . S
C456 H473 0.929 . S
C457 C455 1.380 . S
C457 C456 1.392 . S
C457 H474 0.929 . S
C458 C453 1.383 . S
C458 C454 1.389 . S
C458 H475 0.931 . S
C459 O444 1.266 1_565 S
C459 O445 1.248 . S
C460 Tb396 2.802 . S
C460 O440 1.264 . S
C460 O443 1.256 . S
C460 C453 1.496 . S
C461 C428 1.448 . S
C461 H438 0.930 . S
C461 C462 1.328 . S
C462 C433 1.427 . S
C462 H439 0.929 . S
C462 C461 1.328 . S
C463 O447 1.264 . S
C463 O448 1.243 . S
C464 C467 1.399 . S
C464 C468 1.383 1_565 S
C464 C471 1.496 . S
C465 C466 1.399 1_545 S
C465 C468 1.389 . S
C466 C465 1.399 1_565 S
C466 C469 1.380 . S
C466 H476 0.929 . S
C467 C464 1.399 . S
C467 C469 1.392 . S
C467 H477 0.929 . S
C468 C464 1.383 1_545 S
C468 C465 1.389 . S
C468 H478 0.931 . S
C469 C466 1.380 . S
C469 C467 1.392 . S
C469 H479 0.929 . S
C470 O450 1.266 . S
C470 O451 1.248 . S
C471 Tb407 2.802 . S
C471 O446 1.264 . S
C471 O449 1.256 . S
C471 C464 1.496 . S
H472 C455 0.929 . S
H473 C456 0.929 . S
H474 C457 0.929 . S
H475 C458 0.931 . S
H476 C466 0.929 . S
H477 C467 0.929 . S
H478 C468 0.931 . S
H479 C469 0.929 . S
Tb480 N509 2.617 . S
Tb480 N515 2.572 . S
Tb480 O524 2.465 . S
Tb480 O525 2.387 . S
Tb480 O527 2.428 . S
Tb480 O528 2.308 . S
Tb480 O532 2.349 . S
Tb480 O535 2.393 . S
Tb480 C544 2.802 . S
C481 N482 1.379 . S
C481 C484 1.416 . S
C481 C488 1.424 . S
N482 C481 1.379 . S
N482 C485 1.334 . S
N482 Tb491 2.617 . S
C483 C485 1.390 . S
C483 C486 1.339 . S
C483 H503 0.930 . S
C484 C481 1.416 . S
C484 C486 1.416 . S
C484 C490 1.448 . S
C485 N482 1.334 . S
C485 C483 1.390 . S
C485 H496 0.930 . S
C486 C483 1.339 . S
C486 C484 1.416 . S
C486 H507 0.930 . S
C487 C488 1.413 . S
C487 C489 1.427 . S
C487 C493 1.416 . S
C488 C481 1.424 . S
C488 C487 1.413 . S
C488 N492 1.361 . S
C489 C487 1.427 . S
C489 C490 1.328 . S
C489 H504 0.929 . S
C490 C484 1.448 . S
C490 C489 1.328 . S
C490 H505 0.930 . S
Tb491 N482 2.617 . S
Tb491 N492 2.572 . S
Tb491 O526 2.349 . S
Tb491 O529 2.393 . S
Tb491 O530 2.465 . S
Tb491 O531 2.387 . S
Tb491 O533 2.428 . S
Tb491 O534 2.308 . S
Tb491 C555 2.802 . S
N492 C488 1.361 . S
N492 Tb491 2.572 . S
N492 C494 1.340 . S
C493 C487 1.416 . S
C493 C495 1.332 . S
C493 H501 0.931 . S
C494 N492 1.340 . S
C494 C495 1.407 . S
C494 H500 0.930 . S
C495 C493 1.332 . S
C495 C494 1.407 . S
C495 H497 0.929 . S
H496 C485 0.930 . S
H497 C495 0.929 . S
H498 C513 0.930 . S
H499 C520 0.929 . S
H500 C494 0.930 . S
H501 C493 0.931 . S
H502 C516 0.930 . S
H503 C483 0.930 . S
H504 C489 0.929 . S
H505 C490 0.930 . S
H506 C511 0.930 . S
H507 C486 0.930 . S
H508 C519 0.931 . S
N509 Tb480 2.617 . S
N509 C510 1.379 . S
N509 C513 1.334 . S
C510 N509 1.379 . S
C510 C512 1.416 . S
C510 C518 1.424 . S
C511 H506 0.930 . S
C511 C513 1.390 . S
C511 C514 1.339 . S
C512 C510 1.416 . S
C512 C514 1.416 . S
C512 C545 1.448 . S
C513 H498 0.930 . S
C513 N509 1.334 . S
C513 C511 1.390 . S
C514 C511 1.339 . S
C514 C512 1.416 . S
C514 H521 0.930 . S
N515 Tb480 2.572 . S
N515 C516 1.340 . S
N515 C518 1.361 . S
C516 H502 0.930 . S
C516 N515 1.340 . S
C516 C520 1.407 . S
C517 C518 1.413 . S
C517 C519 1.416 . S
C517 C546 1.427 . S
C518 C510 1.424 . S
C518 N515 1.361 . S
C518 C517 1.413 . S
C519 H508 0.931 . S
C519 C517 1.416 . S
C519 C520 1.332 . S
C520 H499 0.929 . S
C520 C516 1.407 . S
C520 C519 1.332 . S
H521 C514 0.930 . S
H522 C545 0.930 . S
H523 C546 0.929 . S
O524 Tb480 2.465 . S
O524 C544 1.264 . S
O525 Tb480 2.387 . S
O525 C536 1.264 . S
O526 Tb491 2.349 . S
O526 C536 1.243 . S
O527 Tb480 2.428 . S
O527 C544 1.256 . S
O528 Tb480 2.308 . S
O528 C543 1.266 . S
O529 Tb491 2.393 . S
O529 C543 1.248 . S
O530 Tb491 2.465 . S
O530 C555 1.264 . S
O531 Tb491 2.387 . S
O531 C547 1.264 . S
O532 Tb480 2.349 . S
O532 C547 1.243 . S
O533 Tb491 2.428 . S
O533 C555 1.256 . S
O534 Tb491 2.308 . S
O534 C554 1.266 . S
O535 Tb480 2.393 . S
O535 C554 1.248 . S
C536 O525 1.264 . S
C536 O526 1.243 . S
C537 C540 1.399 . S
C537 C542 1.383 . S
C537 C544 1.496 . S
C538 C539 1.399 . S
C538 C542 1.389 . S
C539 C538 1.399 . S
C539 C541 1.380 . S
C539 H556 0.929 . S
C540 C537 1.399 . S
C540 C541 1.392 . S
C540 H557 0.929 . S
C541 C539 1.380 . S
C541 C540 1.392 . S
C541 H558 0.929 . S
C542 C537 1.383 . S
C542 C538 1.389 . S
C542 H559 0.931 . S
C543 O528 1.266 . S
C543 O529 1.248 . S
C544 Tb480 2.802 . S
C544 O524 1.264 . S
C544 O527 1.256 . S
C544 C537 1.496 . S
C545 C512 1.448 . S
C545 H522 0.930 . S
C545 C546 1.328 . S
C546 C517 1.427 . S
C546 H523 0.929 . S
C546 C545 1.328 . S
C547 O531 1.264 . S
C547 O532 1.243 . S
C548 C551 1.399 . S
C548 C552 1.383 . S
C548 C555 1.496 . S
C549 C550 1.399 . S
C549 C552 1.389 . S
C550 C549 1.399 . S
C550 C553 1.380 . S
C550 H560 0.929 . S
C551 C548 1.399 . S
C551 C553 1.392 . S
C551 H561 0.929 . S
C552 C548 1.383 . S
C552 C549 1.389 . S
C552 H562 0.931 . S
C553 C550 1.380 . S
C553 C551 1.392 . S
C553 H563 0.929 . S
C554 O534 1.266 . S
C554 O535 1.248 . S
C555 Tb491 2.802 . S
C555 O530 1.264 . S
C555 O533 1.256 . S
C555 C548 1.496 . S
H556 C539 0.929 . S
H557 C540 0.929 . S
H558 C541 0.929 . S
H559 C542 0.931 . S
H560 C550 0.929 . S
H561 C551 0.929 . S
H562 C552 0.931 . S
H563 C553 0.929 . S
Tb564 N593 2.617 . S
Tb564 N599 2.572 . S
Tb564 O608 2.465 . S
Tb564 O609 2.387 1_455 S
Tb564 O611 2.428 . S
Tb564 O612 2.308 . S
Tb564 O616 2.349 . S
Tb564 O619 2.393 . S
Tb564 C628 2.802 . S
C565 N566 1.379 1_455 S
C565 C568 1.416 . S
C565 C572 1.424 . S
N566 C565 1.379 1_655 S
N566 C569 1.334 . S
N566 Tb575 2.617 . S
C567 C569 1.390 1_455 S
C567 C570 1.339 . S
C567 H587 0.931 . S
C568 C565 1.416 . S
C568 C570 1.416 . S
C568 C574 1.448 . S
C569 N566 1.334 . S
C569 C567 1.390 1_655 S
C569 H580 0.930 . S
C570 C567 1.339 . S
C570 C568 1.416 . S
C570 H591 0.930 . S
C571 C572 1.413 . S
C571 C573 1.427 . S
C571 C577 1.416 . S
C572 C565 1.424 . S
C572 C571 1.413 . S
C572 N576 1.361 . S
C573 C571 1.427 . S
C573 C574 1.328 . S
C573 H588 0.929 . S
C574 C568 1.448 . S
C574 C573 1.328 . S
C574 H589 0.930 . S
Tb575 N566 2.617 . S
Tb575 N576 2.572 1_655 S
Tb575 O610 2.349 . S
Tb575 O613 2.393 . S
Tb575 O614 2.465 . S
Tb575 O615 2.387 1_655 S
Tb575 O617 2.428 . S
Tb575 O618 2.296 1_655 S
Tb575 C639 2.802 . S
N576 C572 1.361 . S
N576 Tb575 2.572 1_455 S
N576 C578 1.340 . S
C577 C571 1.416 . S
C577 C579 1.332 . S
C577 H585 0.931 . S
C578 N576 1.340 . S
C578 C579 1.407 . S
C578 H584 0.917 1_455 S
C579 C577 1.332 . S
C579 C578 1.407 . S
C579 H581 0.929 . S
H580 C569 0.930 . S
H581 C579 0.929 . S
H582 C597 0.930 . S
H583 C604 0.931 . S
H584 C578 0.917 1_655 S
H585 C577 0.931 . S
H586 C600 0.930 . S
H587 C567 0.931 . S
H588 C573 0.929 . S
H589 C574 0.930 . S
H590 C595 0.930 . S
H591 C570 0.930 . S
H592 C603 0.931 . S
N593 Tb564 2.617 . S
N593 C594 1.379 . S
N593 C597 1.334 . S
C594 N593 1.379 . S
C594 C596 1.413 1_455 S
C594 C602 1.424 . S
C595 H590 0.930 . S
C595 C597 1.390 . S
C595 C598 1.339 . S
C596 C594 1.413 1_655 S
C596 C598 1.416 1_655 S
C596 C629 1.452 . S
C597 H582 0.930 . S
C597 N593 1.334 . S
C597 C595 1.390 . S
C598 C595 1.339 . S
C598 C596 1.416 1_455 S
C598 H605 0.930 1_455 S
N599 Tb564 2.572 . S
N599 C600 1.340 . S
N599 C602 1.361 . S
C600 H586 0.930 . S
C600 N599 1.340 . S
C600 C604 1.399 1_455 S
C601 C602 1.413 1_655 S
C601 C603 1.416 . S
C601 C630 1.427 . S
C602 C594 1.424 . S
C602 N599 1.361 . S
C602 C601 1.413 1_455 S
C603 H592 0.931 . S
C603 C601 1.416 . S
C603 C604 1.339 . S
C604 H583 0.931 . S
C604 C600 1.399 1_655 S
C604 C603 1.339 . S
H605 C598 0.930 1_655 S
H606 C629 0.930 . S
H607 C630 0.929 . S
O608 Tb564 2.465 . S
O608 C628 1.264 . S
O609 Tb564 2.387 1_655 S
O609 C620 1.264 . S
O610 Tb575 2.349 . S
O610 C620 1.243 . S
O611 Tb564 2.428 . S
O611 C628 1.256 . S
O612 Tb564 2.308 . S
O612 C627 1.266 . S
O613 Tb575 2.393 . S
O613 C627 1.248 1_655 S
O614 Tb575 2.465 . S
O614 C639 1.264 . S
O615 Tb575 2.387 1_455 S
O615 C631 1.264 . S
O616 Tb564 2.349 . S
O616 C631 1.243 . S
O617 Tb575 2.428 . S
O617 C639 1.256 . S
O618 Tb575 2.296 1_455 S
O618 C638 1.277 . S
O619 Tb564 2.393 . S
O619 C638 1.248 . S
C620 O609 1.264 . S
C620 O610 1.243 . S
C621 C624 1.399 . S
C621 C626 1.383 . S
C621 C628 1.496 . S
C622 C623 1.399 . S
C622 C626 1.389 . S
C623 C622 1.399 . S
C623 C625 1.380 . S
C623 H640 0.929 . S
C624 C621 1.399 . S
C624 C625 1.392 . S
C624 H641 0.929 . S
C625 C623 1.380 . S
C625 C624 1.392 . S
C625 H642 0.929 . S
C626 C621 1.383 . S
C626 C622 1.389 . S
C626 H643 0.931 . S
C627 O612 1.266 . S
C627 O613 1.248 1_455 S
C628 Tb564 2.802 . S
C628 O608 1.264 . S
C628 O611 1.256 . S
C628 C621 1.496 . S
C629 C596 1.452 . S
C629 H606 0.930 . S
C629 C630 1.328 . S
C630 C601 1.427 . S
C630 H607 0.929 . S
C630 C629 1.328 . S
C631 O615 1.264 . S
C631 O616 1.243 . S
C632 C635 1.399 . S
C632 C636 1.383 . S
C632 C639 1.496 . S
C633 C634 1.399 . S
C633 C636 1.389 . S
C634 C633 1.399 . S
C634 C637 1.380 . S
C634 H644 0.929 . S
C635 C632 1.399 . S
C635 C637 1.392 . S
C635 H645 0.929 . S
C636 C632 1.383 . S
C636 C633 1.389 . S
C636 H646 0.931 . S
C637 C634 1.380 . S
C637 C635 1.392 . S
C637 H647 0.929 . S
C638 O618 1.277 . S
C638 O619 1.248 . S
C639 Tb575 2.802 . S
C639 O614 1.264 . S
C639 O617 1.256 . S
C639 C632 1.496 . S
H640 C623 0.929 . S
H641 C624 0.929 . S
H642 C625 0.929 . S
H643 C626 0.931 . S
H644 C634 0.929 . S
H645 C635 0.929 . S
H646 C636 0.931 . S
H647 C637 0.929 . S
H648 C666 0.951 . S
H649 C668 0.951 . S
H650 C670 0.950 . S
H651 C671 0.950 . S
H652 C673 0.950 . S
H653 C676 0.950 . S
H654 C677 0.950 . S
H655 C679 0.950 . S
H656 C680 0.950 . S
H657 C681 0.951 . S
H658 C683 0.951 . S
H659 C685 0.950 . S
H660 C686 0.950 . S
H661 C688 0.950 . S
H662 C691 0.950 . S
H663 C692 0.950 . S
H664 C694 0.950 . S
H665 C695 0.950 . S
C666 H648 0.951 . S
C666 C667 1.366 . S
C666 C668 1.388 . S
C667 C666 1.366 . S
C667 C671 1.385 . S
C668 H649 0.951 . S
C668 C666 1.388 . S
C668 C669 1.366 . S
C669 C668 1.366 . S
C669 C670 1.414 . S
C669 C672 1.499 . S
C670 H650 0.950 . S
C670 C669 1.414 . S
C670 C671 1.374 . S
C671 H651 0.950 . S
C671 C667 1.385 . S
C671 C670 1.374 . S
C672 C669 1.499 . S
C672 C673 1.373 . S
C672 C674 1.389 . S
C673 H652 0.950 . S
C673 C672 1.373 . S
C673 C689 1.377 . S
C674 C672 1.389 . S
C674 C675 1.524 . S
C674 C688 1.377 . S
C675 C674 1.524 . S
C675 C676 1.397 1_545 S
C675 C680 1.363 . S
C676 H653 0.950 . S
C676 C675 1.397 1_565 S
C676 C677 1.334 . S
C677 H654 0.950 . S
C677 C676 1.334 . S
C677 C678 1.287 . S
C678 C677 1.287 . S
C678 C679 1.524 . S
C678 H697 0.913 . S
C679 H655 0.950 . S
C679 C678 1.524 . S
C679 C680 1.415 1_565 S
C680 H656 0.950 . S
C680 C675 1.363 . S
C680 C679 1.415 1_545 S
C681 H657 0.951 . S
C681 C682 1.366 . S
C681 C683 1.388 . S
C682 C681 1.366 . S
C682 C686 1.385 . S
C683 H658 0.951 . S
C683 C681 1.388 . S
C683 C684 1.366 . S
C684 C683 1.366 . S
C684 C685 1.414 . S
C684 C687 1.499 . S
C685 H659 0.950 . S
C685 C684 1.414 . S
C685 C686 1.374 . S
C686 H660 0.950 . S
C686 C682 1.385 . S
C686 C685 1.374 . S
C687 C684 1.499 . S
C687 C688 1.373 . S
C687 C689 1.389 . S
C688 H661 0.950 . S
C688 C674 1.377 . S
C688 C687 1.373 . S
C689 C673 1.377 . S
C689 C687 1.389 . S
C689 C690 1.524 . S
C690 C689 1.524 . S
C690 C691 1.397 . S
C690 C695 1.363 . S
C691 H662 0.950 . S
C691 C690 1.397 . S
C691 C692 1.334 . S
C692 H663 0.950 . S
C692 C691 1.334 . S
C692 C693 1.287 . S
C693 C692 1.287 . S
C693 C694 1.524 . S
C693 H696 0.999 . S
C694 H664 0.950 . S
C694 C693 1.524 . S
C694 C695 1.415 . S
C695 H665 0.950 . S
C695 C690 1.363 . S
C695 C694 1.415 . S
H696 C693 0.999 . S
H697 C678 0.913 . S
H698 C716 0.951 . S
H699 C718 0.951 . S
H700 C720 0.950 . S
H701 C721 0.950 . S
H702 C723 0.950 . S
H703 C726 0.950 . S
H704 C727 0.950 . S
H705 C729 0.950 . S
H706 C730 0.950 . S
H707 C731 0.951 . S
H708 C733 0.951 . S
H709 C735 0.950 . S
H710 C736 0.950 . S
H711 C738 0.950 . S
H712 C741 0.950 . S
H713 C742 0.950 . S
H714 C744 0.950 . S
H715 C745 0.950 . S
C716 H698 0.951 . S
C716 C717 1.366 . S
C716 C718 1.388 . S
C717 C716 1.366 . S
C717 C721 1.385 . S
C718 H699 0.951 . S
C718 C716 1.388 . S
C718 C719 1.366 . S
C719 C718 1.366 . S
C719 C720 1.414 . S
C719 C722 1.499 . S
C720 H700 0.950 . S
C720 C719 1.414 . S
C720 C721 1.374 . S
C721 H701 0.950 . S
C721 C717 1.385 . S
C721 C720 1.374 . S
C722 C719 1.499 . S
C722 C723 1.373 . S
C722 C724 1.389 . S
C723 H702 0.950 . S
C723 C722 1.373 . S
C723 C739 1.377 . S
C724 C722 1.389 . S
C724 C725 1.524 . S
C724 C738 1.377 . S
C725 C724 1.524 . S
C725 C726 1.397 . S
C725 C730 1.363 . S
C726 H703 0.950 . S
C726 C725 1.397 . S
C726 C727 1.334 . S
C727 H704 0.950 . S
C727 C726 1.334 . S
C727 C728 1.287 . S
C728 C727 1.287 . S
C728 C729 1.524 . S
C728 H747 0.913 . S
C729 H705 0.950 . S
C729 C728 1.524 . S
C729 C730 1.415 . S
C730 H706 0.950 . S
C730 C725 1.363 . S
C730 C729 1.415 . S
C731 H707 0.951 . S
C731 C732 1.366 . S
C731 C733 1.388 . S
C732 C731 1.366 . S
C732 C736 1.385 . S
C733 H708 0.951 . S
C733 C731 1.388 . S
C733 C734 1.366 . S
C734 C733 1.366 . S
C734 C735 1.414 . S
C734 C737 1.499 . S
C735 H709 0.950 . S
C735 C734 1.414 . S
C735 C736 1.374 . S
C736 H710 0.950 . S
C736 C732 1.385 . S
C736 C735 1.374 . S
C737 C734 1.499 . S
C737 C738 1.373 . S
C737 C739 1.389 . S
C738 H711 0.950 . S
C738 C724 1.377 . S
C738 C737 1.373 . S
C739 C723 1.377 . S
C739 C737 1.389 . S
C739 C740 1.524 . S
C740 C739 1.524 . S
C740 C741 1.397 . S
C740 C745 1.363 . S
C741 H712 0.950 . S
C741 C740 1.397 . S
C741 C742 1.334 . S
C742 H713 0.950 . S
C742 C741 1.334 . S
C742 C743 1.287 . S
C743 C742 1.287 . S
C743 C744 1.524 . S
C743 H746 0.999 . S
C744 H714 0.950 . S
C744 C743 1.524 . S
C744 C745 1.415 . S
C745 H715 0.950 . S
C745 C740 1.363 . S
C745 C744 1.415 . S
H746 C743 0.999 . S
H747 C728 0.913 . S
H748 C766 0.951 . S
H749 C768 0.951 . S
H750 C770 0.950 . S
H751 C771 0.950 . S
H752 C773 0.950 . S
H753 C776 0.950 . S
H754 C777 0.950 . S
H755 C779 0.950 . S
H756 C780 0.950 . S
H757 C781 0.951 . S
H758 C783 0.951 . S
H759 C785 0.950 . S
H760 C786 0.950 . S
H761 C788 0.950 . S
H762 C791 0.950 . S
H763 C792 0.950 . S
H764 C794 0.950 . S
H765 C795 0.950 . S
C766 H748 0.951 . S
C766 C767 1.366 . S
C766 C768 1.388 . S
C767 C766 1.366 . S
C767 C771 1.385 . S
C768 H749 0.951 . S
C768 C766 1.388 . S
C768 C769 1.366 . S
C769 C768 1.366 . S
C769 C770 1.414 . S
C769 C772 1.499 . S
C770 H750 0.950 . S
C770 C769 1.414 . S
C770 C771 1.374 . S
C771 H751 0.950 . S
C771 C767 1.385 . S
C771 C770 1.374 . S
C772 C769 1.499 . S
C772 C773 1.373 . S
C772 C774 1.389 . S
C773 H752 0.950 . S
C773 C772 1.373 . S
C773 C789 1.377 . S
C774 C772 1.389 . S
C774 C775 1.524 . S
C774 C788 1.377 . S
C775 C774 1.524 . S
C775 C776 1.397 . S
C775 C780 1.363 . S
C776 H753 0.950 . S
C776 C775 1.397 . S
C776 C777 1.334 . S
C777 H754 0.950 . S
C777 C776 1.334 . S
C777 C778 1.287 . S
C778 C777 1.287 . S
C778 C779 1.524 . S
C778 H797 0.913 . S
C779 H755 0.950 . S
C779 C778 1.524 . S
C779 C780 1.415 . S
C780 H756 0.950 . S
C780 C775 1.363 . S
C780 C779 1.415 . S
C781 H757 0.951 . S
C781 C782 1.366 . S
C781 C783 1.388 . S
C782 C781 1.366 . S
C782 C786 1.385 . S
C783 H758 0.951 . S
C783 C781 1.388 . S
C783 C784 1.366 . S
C784 C783 1.366 . S
C784 C785 1.414 . S
C784 C787 1.499 . S
C785 H759 0.950 . S
C785 C784 1.414 . S
C785 C786 1.374 . S
C786 H760 0.950 . S
C786 C782 1.385 . S
C786 C785 1.374 . S
C787 C784 1.499 . S
C787 C788 1.373 . S
C787 C789 1.389 . S
C788 H761 0.950 . S
C788 C774 1.377 . S
C788 C787 1.373 . S
C789 C773 1.377 . S
C789 C787 1.389 . S
C789 C790 1.524 . S
C790 C789 1.524 . S
C790 C791 1.397 . S
C790 C795 1.363 . S
C791 H762 0.950 . S
C791 C790 1.397 . S
C791 C792 1.334 . S
C792 H763 0.950 . S
C792 C791 1.334 . S
C792 C793 1.287 . S
C793 C792 1.287 . S
C793 C794 1.524 . S
C793 H796 0.999 . S
C794 H764 0.950 . S
C794 C793 1.524 . S
C794 C795 1.415 . S
C795 H765 0.950 . S
C795 C790 1.363 . S
C795 C794 1.415 . S
H796 C793 0.999 . S
H797 C778 0.913 . S
H798 C816 0.951 . S
H799 C818 0.951 . S
H800 C820 0.950 . S
H801 C821 0.950 . S
H802 C823 0.950 . S
H803 C826 0.950 . S
H804 C827 0.950 . S
H805 C829 0.950 . S
H806 C830 0.950 . S
H807 C831 0.951 . S
H808 C833 0.951 . S
H809 C835 0.950 . S
H810 C836 0.950 . S
H811 C838 0.950 . S
H812 C841 0.950 . S
H813 C842 0.950 . S
H814 C844 0.950 . S
H815 C845 0.950 . S
C816 H798 0.951 . S
C816 C817 1.366 . S
C816 C818 1.388 . S
C817 C816 1.366 . S
C817 C821 1.385 . S
C818 H799 0.951 . S
C818 C816 1.388 . S
C818 C819 1.366 . S
C819 C818 1.366 . S
C819 C820 1.414 . S
C819 C822 1.499 . S
C820 H800 0.950 . S
C820 C819 1.414 . S
C820 C821 1.374 . S
C821 H801 0.950 . S
C821 C817 1.385 . S
C821 C820 1.374 . S
C822 C819 1.499 . S
C822 C823 1.373 . S
C822 C824 1.389 . S
C823 H802 0.950 . S
C823 C822 1.373 . S
C823 C839 1.377 . S
C824 C822 1.389 . S
C824 C825 1.499 1_455 S
C824 C838 1.377 . S
C825 C824 1.499 1_655 S
C825 C826 1.410 . S
C825 C830 1.376 . S
C826 H803 0.950 . S
C826 C825 1.410 . S
C826 C827 1.334 . S
C827 H804 0.950 . S
C827 C826 1.334 . S
C827 C828 1.287 . S
C828 C827 1.287 . S
C828 C829 1.524 . S
C828 H847 0.913 . S
C829 H805 0.950 . S
C829 C828 1.524 . S
C829 C830 1.415 . S
C830 H806 0.950 . S
C830 C825 1.376 . S
C830 C829 1.415 . S
C831 H807 0.951 . S
C831 C832 1.366 . S
C831 C833 1.388 . S
C832 C831 1.366 . S
C832 C836 1.385 . S
C833 H808 0.951 . S
C833 C831 1.388 . S
C833 C834 1.366 . S
C834 C833 1.366 . S
C834 C835 1.414 . S
C834 C837 1.499 . S
C835 H809 0.950 . S
C835 C834 1.414 . S
C835 C836 1.374 . S
C836 H810 0.950 . S
C836 C832 1.385 . S
C836 C835 1.374 . S
C837 C834 1.499 . S
C837 C838 1.373 . S
C837 C839 1.389 . S
C838 H811 0.950 . S
C838 C824 1.377 . S
C838 C837 1.373 . S
C839 C823 1.377 . S
C839 C837 1.389 . S
C839 C840 1.524 . S
C840 C839 1.524 . S
C840 C841 1.397 . S
C840 C845 1.363 . S
C841 H812 0.950 . S
C841 C840 1.397 . S
C841 C842 1.334 . S
C842 H813 0.950 . S
C842 C841 1.334 . S
C842 C843 1.287 . S
C843 C842 1.287 . S
C843 C844 1.524 . S
C843 H846 0.999 . S
C844 H814 0.950 . S
C844 C843 1.524 . S
C844 C845 1.415 . S
C845 H815 0.950 . S
C845 C840 1.363 . S
C845 C844 1.415 . S
H846 C843 0.999 . S
H847 C828 0.913 . S
H848 C866 0.951 . S
H849 C868 0.951 . S
H850 C870 0.950 . S
H851 C871 0.950 . S
H852 C873 0.950 . S
H853 C876 0.950 . S
H854 C877 0.950 . S
H855 C879 0.950 . S
H856 C880 0.950 . S
H857 C881 0.951 . S
H858 C883 0.951 . S
H859 C885 0.950 . S
H860 C886 0.950 . S
H861 C888 0.904 1_545 S
H862 C891 0.950 . S
H863 C892 0.950 . S
H864 C894 0.950 . S
H865 C895 0.950 . S
C866 H848 0.951 . S
C866 C867 1.366 . S
C866 C868 1.388 . S
C867 C866 1.366 . S
C867 C871 1.385 . S
C868 H849 0.951 . S
C868 C866 1.388 . S
C868 C869 1.366 1_554 S
C869 C868 1.366 1_556 S
C869 C870 1.414 . S
C869 C872 1.499 . S
C870 H850 0.950 . S
C870 C869 1.414 . S
C870 C871 1.374 1_556 S
C871 H851 0.950 . S
C871 C867 1.385 . S
C871 C870 1.374 1_554 S
C872 C869 1.499 . S
C872 C873 1.373 . S
C872 C874 1.389 . S
C873 H852 0.950 . S
C873 C872 1.373 . S
C873 C889 1.377 . S
C874 C872 1.389 . S
C874 C875 1.524 1_565 S
C874 C888 1.386 . S
C875 C874 1.524 1_545 S
C875 C876 1.397 . S
C875 C880 1.363 . S
C876 H853 0.950 . S
C876 C875 1.397 . S
C876 C877 1.334 . S
C877 H854 0.950 . S
C877 C876 1.334 . S
C877 C878 1.287 . S
C878 C877 1.287 . S
C878 C879 1.524 . S
C878 H897 0.913 . S
C879 H855 0.950 . S
C879 C878 1.524 . S
C879 C880 1.415 . S
C880 H856 0.950 . S
C880 C875 1.363 . S
C880 C879 1.415 . S
C881 H857 0.951 . S
C881 C882 1.366 . S
C881 C883 1.388 . S
C882 C881 1.366 . S
C882 C886 1.385 1_565 S
C883 H858 0.951 . S
C883 C881 1.388 . S
C883 C884 1.366 . S
C884 C883 1.366 . S
C884 C885 1.414 1_565 S
C884 C887 1.499 . S
C885 H859 0.950 . S
C885 C884 1.414 1_545 S
C885 C886 1.374 . S
C886 H860 0.950 . S
C886 C882 1.385 1_545 S
C886 C885 1.374 . S
C887 C884 1.499 . S
C887 C888 1.412 . S
C887 C889 1.389 . S
C888 H861 0.904 1_565 S
C888 C874 1.386 . S
C888 C887 1.412 . S
C889 C873 1.377 . S
C889 C887 1.389 . S
C889 C890 1.524 . S
C890 C889 1.524 . S
C890 C891 1.397 . S
C890 C895 1.363 . S
C891 H862 0.950 . S
C891 C890 1.397 . S
C891 C892 1.334 . S
C892 H863 0.950 . S
C892 C891 1.334 . S
C892 C893 1.287 . S
C893 C892 1.287 . S
C893 C894 1.524 . S
C893 H896 0.999 . S
C894 H864 0.950 . S
C894 C893 1.524 . S
C894 C895 1.415 . S
C895 H865 0.950 . S
C895 C890 1.363 . S
C895 C894 1.415 . S
H896 C893 0.999 . S
H897 C878 0.913 . S
H898 C916 0.951 . S
H899 C918 0.951 1_556 S
H900 C920 0.950 . S
H901 C921 0.950 . S
H902 C923 0.950 . S
H903 C926 0.950 . S
H904 C927 0.950 . S
H905 C929 0.950 . S
H906 C930 0.950 . S
H907 C931 0.951 . S
H908 C933 0.951 . S
H909 C935 0.950 . S
H910 C936 0.950 . S
H911 C938 0.950 . S
H912 C941 0.950 . S
H913 C942 0.950 . S
H914 C944 0.950 . S
H915 C945 0.950 . S
C916 H898 0.951 . S
C916 C917 1.366 . S
C916 C918 1.388 . S
C917 C916 1.366 . S
C917 C921 1.385 . S
C918 H899 0.951 1_554 S
C918 C916 1.388 . S
C918 C919 1.366 1_554 S
C919 C918 1.366 1_556 S
C919 C920 1.414 1_556 S
C919 C922 1.499 . S
C920 H900 0.950 . S
C920 C919 1.414 1_554 S
C920 C921 1.374 . S
C921 H901 0.950 . S
C921 C917 1.385 . S
C921 C920 1.374 . S
C922 C919 1.499 . S
C922 C923 1.373 . S
C922 C924 1.389 . S
C923 H902 0.950 . S
C923 C922 1.373 . S
C923 C939 1.377 . S
C924 C922 1.389 . S
C924 C925 1.524 . S
C924 C938 1.377 . S
C925 C924 1.524 . S
C925 C926 1.397 . S
C925 C930 1.363 . S
C926 H903 0.950 . S
C926 C925 1.397 . S
C926 C927 1.334 . S
C927 H904 0.950 . S
C927 C926 1.334 . S
C927 C928 1.287 . S
C928 C927 1.287 . S
C928 C929 1.524 . S
C928 H947 0.913 . S
C929 H905 0.950 . S
C929 C928 1.524 . S
C929 C930 1.415 . S
C930 H906 0.950 . S
C930 C925 1.363 . S
C930 C929 1.415 . S
C931 H907 0.951 . S
C931 C932 1.366 . S
C931 C933 1.388 . S
C932 C931 1.366 . S
C932 C936 1.385 . S
C933 H908 0.951 . S
C933 C931 1.388 . S
C933 C934 1.366 . S
C934 C933 1.366 . S
C934 C935 1.414 . S
C934 C937 1.499 . S
C935 H909 0.950 . S
C935 C934 1.414 . S
C935 C936 1.374 . S
C936 H910 0.950 . S
C936 C932 1.385 . S
C936 C935 1.374 . S
C937 C934 1.499 . S
C937 C938 1.373 . S
C937 C939 1.389 . S
C938 H911 0.950 . S
C938 C924 1.377 . S
C938 C937 1.373 . S
C939 C923 1.377 . S
C939 C937 1.389 . S
C939 C940 1.524 . S
C940 C939 1.524 . S
C940 C941 1.397 . S
C940 C945 1.363 . S
C941 H912 0.950 . S
C941 C940 1.397 . S
C941 C942 1.334 . S
C942 H913 0.950 . S
C942 C941 1.334 . S
C942 C943 1.287 . S
C943 C942 1.287 . S
C943 C944 1.524 . S
C943 H946 0.999 1_565 S
C944 H914 0.950 . S
C944 C943 1.524 . S
C944 C945 1.415 . S
C945 H915 0.950 . S
C945 C940 1.363 . S
C945 C944 1.415 . S
H946 C943 0.999 1_545 S
H947 C928 0.913 . S
H948 C966 0.951 . S
H949 C968 0.951 1_556 S
H950 C970 0.955 . S
H951 C971 0.950 . S
H952 C973 0.950 . S
H953 C976 0.950 . S
H954 C977 0.950 . S
H955 C979 0.950 . S
H956 C980 0.950 . S
H957 C981 0.951 . S
H958 C983 0.951 . S
H959 C985 0.950 . S
H960 C986 0.950 . S
H961 C988 0.950 . S
H962 C991 0.950 . S
H963 C992 0.950 . S
H964 C994 0.950 . S
H965 C995 0.950 . S
C966 H948 0.951 . S
C966 C967 1.366 . S
C966 C968 1.388 . S
C967 C966 1.366 . S
C967 C971 1.385 . S
C968 H949 0.951 1_554 S
C968 C966 1.388 . S
C968 C969 1.366 1_554 S
C969 C968 1.366 1_556 S
C969 C970 1.414 1_556 S
C969 C972 1.499 . S
C970 H950 0.955 . S
C970 C969 1.414 1_554 S
C970 C971 1.374 . S
C971 H951 0.950 . S
C971 C967 1.385 . S
C971 C970 1.374 . S
C972 C969 1.499 . S
C972 C973 1.373 . S
C972 C974 1.389 . S
C973 H952 0.950 . S
C973 C972 1.373 . S
C973 C989 1.377 . S
C974 C972 1.389 . S
C974 C975 1.524 . S
C974 C988 1.377 . S
C975 C974 1.524 . S
C975 C976 1.397 . S
C975 C980 1.363 . S
C976 H953 0.950 . S
C976 C975 1.397 . S
C976 C977 1.334 . S
C977 H954 0.950 . S
C977 C976 1.334 . S
C977 C978 1.287 . S
C978 C977 1.287 . S
C978 C979 1.524 . S
C978 H997 0.913 . S
C979 H955 0.950 . S
C979 C978 1.524 . S
C979 C980 1.415 . S
C980 H956 0.950 . S
C980 C975 1.363 . S
C980 C979 1.415 . S
C981 H957 0.951 . S
C981 C982 1.366 . S
C981 C983 1.388 . S
C982 C981 1.366 . S
C982 C986 1.385 . S
C983 H958 0.951 . S
C983 C981 1.388 . S
C983 C984 1.366 . S
C984 C983 1.366 . S
C984 C985 1.414 . S
C984 C987 1.499 . S
C985 H959 0.950 . S
C985 C984 1.414 . S
C985 C986 1.374 . S
C986 H960 0.950 . S
C986 C982 1.385 . S
C986 C985 1.374 . S
C987 C984 1.499 . S
C987 C988 1.373 . S
C987 C989 1.389 . S
C988 H961 0.950 . S
C988 C974 1.377 . S
C988 C987 1.373 . S
C989 C973 1.377 . S
C989 C987 1.389 . S
C989 C990 1.524 . S
C990 C989 1.524 . S
C990 C991 1.397 . S
C990 C995 1.363 . S
C991 H962 0.950 . S
C991 C990 1.397 . S
C991 C992 1.334 . S
C992 H963 0.950 . S
C992 C991 1.334 . S
C992 C993 1.287 . S
C993 C992 1.287 . S
C993 C994 1.524 . S
C993 H996 0.999 . S
C994 H964 0.950 . S
C994 C993 1.524 . S
C994 C995 1.415 . S
C995 H965 0.950 . S
C995 C990 1.363 . S
C995 C994 1.415 . S
H996 C993 0.999 . S
H997 C978 0.913 . S
H998 C1016 0.951 . S
H999 C1018 0.951 . S
H1000 C1020 0.950 . S
H1001 C1021 0.950 . S
H1002 C1023 0.950 . S
H1003 C1026 0.950 . S
H1004 C1027 0.950 . S
H1005 C1029 0.950 . S
H1006 C1030 0.950 . S
H1007 C1031 0.951 . S
H1008 C1033 0.951 . S
H1009 C1035 0.941 1_455 S
H1010 C1036 0.950 . S
H1011 C1038 0.924 1_455 S
H1012 C1041 0.950 . S
H1013 C1042 0.950 . S
H1014 C1044 0.950 . S
H1015 C1045 0.950 . S
C1016 H998 0.951 . S
C1016 C1017 1.366 . S
C1016 C1018 1.388 . S
C1017 C1016 1.366 . S
C1017 C1021 1.385 . S
C1018 H999 0.951 . S
C1018 C1016 1.388 . S
C1018 C1019 1.366 1_554 S
C1019 C1018 1.366 1_556 S
C1019 C1020 1.414 . S
C1019 C1022 1.499 . S
C1020 H1000 0.950 . S
C1020 C1019 1.414 . S
C1020 C1021 1.374 1_556 S
C1021 H1001 0.950 . S
C1021 C1017 1.385 . S
C1021 C1020 1.374 1_554 S
C1022 C1019 1.499 . S
C1022 C1023 1.373 . S
C1022 C1024 1.389 . S
C1023 H1002 0.950 . S
C1023 C1022 1.373 . S
C1023 C1039 1.377 . S
C1024 C1022 1.389 . S
C1024 C1025 1.524 1_655 S
C1024 C1038 1.381 . S
C1025 C1024 1.524 1_455 S
C1025 C1026 1.397 . S
C1025 C1030 1.363 . S
C1026 H1003 0.950 . S
C1026 C1025 1.397 . S
C1026 C1027 1.334 1_556 S
C1027 H1004 0.950 . S
C1027 C1026 1.334 1_554 S
C1027 C1028 1.287 . S
C1028 C1027 1.287 . S
C1028 C1029 1.524 . S
C1028 H1047 0.913 . S
C1029 H1005 0.950 . S
C1029 C1028 1.524 . S
C1029 C1030 1.415 1_554 S
C1030 H1006 0.950 . S
C1030 C1025 1.363 . S
C1030 C1029 1.415 1_556 S
C1031 H1007 0.951 . S
C1031 C1032 1.366 . S
C1031 C1033 1.388 . S
C1032 C1031 1.366 . S
C1032 C1036 1.385 1_655 S
C1033 H1008 0.951 . S
C1033 C1031 1.388 . S
C1033 C1034 1.366 . S
C1034 C1033 1.366 . S
C1034 C1035 1.414 . S
C1034 C1037 1.499 . S
C1035 H1009 0.941 1_655 S
C1035 C1034 1.414 . S
C1035 C1036 1.374 1_655 S
C1036 H1010 0.950 . S
C1036 C1032 1.385 1_455 S
C1036 C1035 1.374 1_455 S
C1037 C1034 1.499 . S
C1037 C1038 1.396 . S
C1037 C1039 1.389 . S
C1038 H1011 0.924 1_655 S
C1038 C1024 1.381 . S
C1038 C1037 1.396 . S
C1039 C1023 1.377 . S
C1039 C1037 1.389 . S
C1039 C1040 1.524 . S
C1040 C1039 1.524 . S
C1040 C1041 1.397 . S
C1040 C1045 1.363 . S
C1041 H1012 0.950 . S
C1041 C1040 1.397 . S
C1041 C1042 1.334 . S
C1042 H1013 0.950 . S
C1042 C1041 1.334 . S
C1042 C1043 1.287 . S
C1043 C1042 1.287 . S
C1043 C1044 1.524 . S
C1043 H1046 0.999 . S
C1044 H1014 0.950 . S
C1044 C1043 1.524 . S
C1044 C1045 1.415 . S
C1045 H1015 0.950 . S
C1045 C1040 1.363 . S
C1045 C1044 1.415 . S
H1046 C1043 0.999 . S
H1047 C1028 0.913 . S
H1048 C1066 0.951 . S
H1049 C1068 0.951 . S
H1050 C1070 0.950 . S
H1051 C1071 0.950 . S
H1052 C1073 0.950 . S
H1053 C1076 0.950 . S
H1054 C1077 0.950 . S
H1055 C1079 0.950 . S
H1056 C1080 0.950 1_455 S
H1057 C1081 0.951 . S
H1058 C1083 0.951 . S
H1059 C1085 0.950 . S
H1060 C1086 0.950 . S
H1061 C1088 0.950 . S
H1062 C1091 0.950 . S
H1063 C1092 0.950 . S
H1064 C1094 0.950 . S
H1065 C1095 0.950 . S
C1066 H1048 0.951 . S
C1066 C1067 1.366 . S
C1066 C1068 1.388 . S
C1067 C1066 1.366 . S
C1067 C1071 1.385 . S
C1068 H1049 0.951 . S
C1068 C1066 1.388 . S
C1068 C1069 1.366 . S
C1069 C1068 1.366 . S
C1069 C1070 1.414 . S
C1069 C1072 1.499 . S
C1070 H1050 0.950 . S
C1070 C1069 1.414 . S
C1070 C1071 1.374 . S
C1071 H1051 0.950 . S
C1071 C1067 1.385 . S
C1071 C1070 1.374 . S
C1072 C1069 1.499 . S
C1072 C1073 1.373 . S
C1072 C1074 1.389 . S
C1073 H1052 0.950 . S
C1073 C1072 1.373 . S
C1073 C1089 1.377 . S
C1074 C1072 1.389 . S
C1074 C1075 1.524 . S
C1074 C1088 1.377 . S
C1075 C1074 1.524 . S
C1075 C1076 1.397 1_455 S
C1075 C1080 1.363 1_455 S
C1076 H1053 0.950 . S
C1076 C1075 1.397 1_655 S
C1076 C1077 1.334 . S
C1077 H1054 0.950 . S
C1077 C1076 1.334 . S
C1077 C1078 1.287 . S
C1078 C1077 1.287 . S
C1078 C1079 1.524 . S
C1078 H1097 0.913 . S
C1079 H1055 0.950 . S
C1079 C1078 1.524 . S
C1079 C1080 1.415 . S
C1080 H1056 0.950 1_655 S
C1080 C1075 1.363 1_655 S
C1080 C1079 1.415 . S
C1081 H1057 0.951 . S
C1081 C1082 1.366 . S
C1081 C1083 1.388 . S
C1082 C1081 1.366 . S
C1082 C1086 1.385 . S
C1083 H1058 0.951 . S
C1083 C1081 1.388 . S
C1083 C1084 1.366 . S
C1084 C1083 1.366 . S
C1084 C1085 1.414 . S
C1084 C1087 1.499 . S
C1085 H1059 0.950 . S
C1085 C1084 1.414 . S
C1085 C1086 1.374 . S
C1086 H1060 0.950 . S
C1086 C1082 1.385 . S
C1086 C1085 1.374 . S
C1087 C1084 1.499 . S
C1087 C1088 1.373 . S
C1087 C1089 1.389 . S
C1088 H1061 0.950 . S
C1088 C1074 1.377 . S
C1088 C1087 1.373 . S
C1089 C1073 1.377 . S
C1089 C1087 1.389 . S
C1089 C1090 1.524 . S
C1090 C1089 1.524 . S
C1090 C1091 1.397 . S
C1090 C1095 1.363 . S
C1091 H1062 0.950 . S
C1091 C1090 1.397 . S
C1091 C1092 1.334 . S
C1092 H1063 0.950 . S
C1092 C1091 1.334 . S
C1092 C1093 1.287 . S
C1093 C1092 1.287 . S
C1093 C1094 1.524 . S
C1093 H1096 0.999 . S
C1094 H1064 0.950 . S
C1094 C1093 1.524 . S
C1094 C1095 1.415 . S
C1095 H1065 0.950 . S
C1095 C1090 1.363 . S
C1095 C1094 1.415 . S
H1096 C1093 0.999 . S
H1097 C1078 0.913 . S
H1098 C1116 0.951 . S
H1099 C1118 0.951 . S
H1100 C1120 0.950 . S
H1101 C1121 0.950 . S
H1102 C1123 0.950 . S
H1103 C1126 0.949 . S
H1104 C1127 0.950 . S
H1105 C1129 0.950 . S
H1106 C1130 0.950 . S
H1107 C1131 0.951 1_565 S
H1108 C1133 0.951 . S
H1109 C1135 0.950 . S
H1110 C1136 0.950 . S
H1111 C1138 0.950 . S
H1112 C1141 0.950 . S
H1113 C1142 0.950 . S
H1114 C1144 0.950 . S
H1115 C1145 0.950 . S
C1116 H1098 0.951 . S
C1116 C1117 1.366 . S
C1116 C1118 1.388 . S
C1117 C1116 1.366 . S
C1117 C1121 1.385 . S
C1118 H1099 0.951 . S
C1118 C1116 1.388 . S
C1118 C1119 1.366 . S
C1119 C1118 1.366 . S
C1119 C1120 1.414 . S
C1119 C1122 1.499 . S
C1120 H1100 0.950 . S
C1120 C1119 1.414 . S
C1120 C1121 1.374 . S
C1121 H1101 0.950 . S
C1121 C1117 1.385 . S
C1121 C1120 1.374 . S
C1122 C1119 1.499 . S
C1122 C1123 1.373 . S
C1122 C1124 1.389 . S
C1123 H1102 0.950 . S
C1123 C1122 1.373 . S
C1123 C1139 1.377 . S
C1124 C1122 1.389 . S
C1124 C1125 1.524 . S
C1124 C1138 1.377 . S
C1125 C1124 1.524 . S
C1125 C1126 1.423 . S
C1125 C1130 1.363 . S
C1126 H1103 0.949 . S
C1126 C1125 1.423 . S
C1126 C1127 1.310 1_545 S
C1127 H1104 0.950 . S
C1127 C1126 1.310 1_565 S
C1127 C1128 1.287 . S
C1128 C1127 1.287 . S
C1128 C1129 1.524 1_565 S
C1128 H1147 0.913 . S
C1129 H1105 0.950 . S
C1129 C1128 1.524 1_545 S
C1129 C1130 1.415 . S
C1130 H1106 0.950 . S
C1130 C1125 1.363 . S
C1130 C1129 1.415 . S
C1131 H1107 0.951 1_545 S
C1131 C1132 1.366 . S
C1131 C1133 1.388 . S
C1132 C1131 1.366 . S
C1132 C1136 1.385 . S
C1133 H1108 0.951 . S
C1133 C1131 1.388 . S
C1133 C1134 1.366 . S
C1134 C1133 1.366 . S
C1134 C1135 1.414 . S
C1134 C1137 1.499 . S
C1135 H1109 0.950 . S
C1135 C1134 1.414 . S
C1135 C1136 1.374 . S
C1136 H1110 0.950 . S
C1136 C1132 1.385 . S
C1136 C1135 1.374 . S
C1137 C1134 1.499 . S
C1137 C1138 1.373 . S
C1137 C1139 1.389 . S
C1138 H1111 0.950 . S
C1138 C1124 1.377 . S
C1138 C1137 1.373 . S
C1139 C1123 1.377 . S
C1139 C1137 1.389 . S
C1139 C1140 1.524 . S
C1140 C1139 1.524 . S
C1140 C1141 1.397 . S
C1140 C1145 1.363 . S
C1141 H1112 0.950 . S
C1141 C1140 1.397 . S
C1141 C1142 1.334 . S
C1142 H1113 0.950 . S
C1142 C1141 1.334 . S
C1142 C1143 1.287 . S
C1143 C1142 1.287 . S
C1143 C1144 1.524 . S
C1143 H1146 0.999 . S
C1144 H1114 0.950 . S
C1144 C1143 1.524 . S
C1144 C1145 1.415 . S
C1145 H1115 0.950 . S
C1145 C1140 1.363 . S
C1145 C1144 1.415 . S
H1146 C1143 0.999 . S
H1147 C1128 0.913 . S
H1148 C1166 0.951 . S
H1149 C1168 0.951 . S
H1150 C1170 0.950 . S
H1151 C1171 0.950 . S
H1152 C1173 0.950 . S
H1153 C1176 0.950 . S
H1154 C1177 0.950 . S
H1155 C1179 0.950 . S
H1156 C1180 0.950 . S
H1157 C1181 0.951 . S
H1158 C1183 0.951 . S
H1159 C1185 0.950 . S
H1160 C1186 0.950 . S
H1161 C1188 0.950 . S
H1162 C1191 0.950 . S
H1163 C1192 0.950 . S
H1164 C1194 0.950 . S
H1165 C1195 0.950 . S
C1166 H1148 0.951 . S
C1166 C1167 1.366 . S
C1166 C1168 1.388 . S
C1167 C1166 1.366 . S
C1167 C1171 1.385 . S
C1168 H1149 0.951 . S
C1168 C1166 1.388 . S
C1168 C1169 1.366 . S
C1169 C1168 1.366 . S
C1169 C1170 1.414 . S
C1169 C1172 1.499 . S
C1170 H1150 0.950 . S
C1170 C1169 1.414 . S
C1170 C1171 1.374 . S
C1171 H1151 0.950 . S
C1171 C1167 1.385 . S
C1171 C1170 1.374 . S
C1172 C1169 1.499 . S
C1172 C1173 1.373 . S
C1172 C1174 1.389 . S
C1173 H1152 0.950 . S
C1173 C1172 1.373 . S
C1173 C1189 1.377 . S
C1174 C1172 1.389 . S
C1174 C1175 1.524 . S
C1174 C1188 1.377 . S
C1175 C1174 1.524 . S
C1175 C1176 1.397 . S
C1175 C1180 1.363 . S
C1176 H1153 0.950 . S
C1176 C1175 1.397 . S
C1176 C1177 1.334 . S
C1177 H1154 0.950 . S
C1177 C1176 1.334 . S
C1177 C1178 1.287 . S
C1178 C1177 1.287 . S
C1178 C1179 1.524 . S
C1178 H1197 0.913 . S
C1179 H1155 0.950 . S
C1179 C1178 1.524 . S
C1179 C1180 1.415 . S
C1180 H1156 0.950 . S
C1180 C1175 1.363 . S
C1180 C1179 1.415 . S
C1181 H1157 0.951 . S
C1181 C1182 1.366 . S
C1181 C1183 1.388 . S
C1182 C1181 1.366 . S
C1182 C1186 1.385 . S
C1183 H1158 0.951 . S
C1183 C1181 1.388 . S
C1183 C1184 1.366 . S
C1184 C1183 1.366 . S
C1184 C1185 1.414 . S
C1184 C1187 1.499 . S
C1185 H1159 0.950 . S
C1185 C1184 1.414 . S
C1185 C1186 1.374 . S
C1186 H1160 0.950 . S
C1186 C1182 1.385 . S
C1186 C1185 1.374 . S
C1187 C1184 1.499 . S
C1187 C1188 1.373 . S
C1187 C1189 1.389 . S
C1188 H1161 0.950 . S
C1188 C1174 1.377 . S
C1188 C1187 1.373 . S
C1189 C1173 1.377 . S
C1189 C1187 1.389 . S
C1189 C1190 1.524 . S
C1190 C1189 1.524 . S
C1190 C1191 1.397 . S
C1190 C1195 1.363 . S
C1191 H1162 0.950 . S
C1191 C1190 1.397 . S
C1191 C1192 1.334 . S
C1192 H1163 0.950 . S
C1192 C1191 1.334 . S
C1192 C1193 1.287 . S
C1193 C1192 1.287 . S
C1193 C1194 1.524 . S
C1193 H1196 0.999 . S
C1194 H1164 0.950 . S
C1194 C1193 1.524 . S
C1194 C1195 1.415 . S
C1195 H1165 0.950 . S
C1195 C1190 1.363 . S
C1195 C1194 1.415 . S
H1196 C1193 0.999 . S
H1197 C1178 0.913 . S
H1198 C1216 0.951 . S
H1199 C1218 0.951 . S
H1200 C1220 0.950 . S
H1201 C1221 0.950 . S
H1202 C1223 0.950 . S
H1203 C1226 0.950 . S
H1204 C1227 0.950 . S
H1205 C1229 0.950 . S
H1206 C1230 0.950 . S
H1207 C1231 0.951 . S
H1208 C1233 0.951 . S
H1209 C1235 0.950 . S
H1210 C1236 0.950 . S
H1211 C1238 0.950 . S
H1212 C1241 0.950 . S
H1213 C1242 0.950 . S
H1214 C1244 0.950 . S
H1215 C1245 0.950 . S
C1216 H1198 0.951 . S
C1216 C1217 1.366 . S
C1216 C1218 1.388 . S
C1217 C1216 1.366 . S
C1217 C1221 1.385 . S
C1218 H1199 0.951 . S
C1218 C1216 1.388 . S
C1218 C1219 1.366 . S
C1219 C1218 1.366 . S
C1219 C1220 1.414 . S
C1219 C1222 1.499 . S
C1220 H1200 0.950 . S
C1220 C1219 1.414 . S
C1220 C1221 1.374 . S
C1221 H1201 0.950 . S
C1221 C1217 1.385 . S
C1221 C1220 1.374 . S
C1222 C1219 1.499 . S
C1222 C1223 1.373 . S
C1222 C1224 1.389 . S
C1223 H1202 0.950 . S
C1223 C1222 1.373 . S
C1223 C1239 1.377 . S
C1224 C1222 1.389 . S
C1224 C1225 1.524 . S
C1224 C1238 1.377 . S
C1225 C1224 1.524 . S
C1225 C1226 1.397 . S
C1225 C1230 1.363 . S
C1226 H1203 0.950 . S
C1226 C1225 1.397 . S
C1226 C1227 1.334 . S
C1227 H1204 0.950 . S
C1227 C1226 1.334 . S
C1227 C1228 1.287 . S
C1228 C1227 1.287 . S
C1228 C1229 1.524 . S
C1228 H1247 0.913 . S
C1229 H1205 0.950 . S
C1229 C1228 1.524 . S
C1229 C1230 1.415 . S
C1230 H1206 0.950 . S
C1230 C1225 1.363 . S
C1230 C1229 1.415 . S
C1231 H1207 0.951 . S
C1231 C1232 1.366 . S
C1231 C1233 1.388 . S
C1232 C1231 1.366 . S
C1232 C1236 1.385 . S
C1233 H1208 0.951 . S
C1233 C1231 1.388 . S
C1233 C1234 1.366 . S
C1234 C1233 1.366 . S
C1234 C1235 1.414 . S
C1234 C1237 1.499 . S
C1235 H1209 0.950 . S
C1235 C1234 1.414 . S
C1235 C1236 1.374 . S
C1236 H1210 0.950 . S
C1236 C1232 1.385 . S
C1236 C1235 1.374 . S
C1237 C1234 1.499 . S
C1237 C1238 1.373 . S
C1237 C1239 1.389 . S
C1238 H1211 0.950 . S
C1238 C1224 1.377 . S
C1238 C1237 1.373 . S
C1239 C1223 1.377 . S
C1239 C1237 1.389 . S
C1239 C1240 1.524 . S
C1240 C1239 1.524 . S
C1240 C1241 1.397 . S
C1240 C1245 1.363 . S
C1241 H1212 0.950 . S
C1241 C1240 1.397 . S
C1241 C1242 1.334 . S
C1242 H1213 0.950 . S
C1242 C1241 1.334 . S
C1242 C1243 1.287 . S
C1243 C1242 1.287 . S
C1243 C1244 1.524 . S
C1243 H1246 0.999 . S
C1244 H1214 0.950 . S
C1244 C1243 1.524 . S
C1244 C1245 1.415 . S
C1245 H1215 0.950 . S
C1245 C1240 1.363 . S
C1245 C1244 1.415 . S
H1246 C1243 0.999 . S
H1247 C1228 0.913 . S
H1248 C1266 0.951 . S
H1249 C1268 0.951 . S
H1250 C1270 0.950 . S
H1251 C1271 0.950 . S
H1252 C1273 0.950 . S
H1253 C1276 0.950 . S
H1254 C1277 0.950 . S
H1255 C1279 0.950 . S
H1256 C1280 0.950 . S
H1257 C1281 0.951 . S
H1258 C1283 0.951 . S
H1259 C1285 0.950 . S
H1260 C1286 0.950 . S
H1261 C1288 0.950 . S
H1262 C1291 0.950 . S
H1263 C1292 0.950 . S
H1264 C1294 0.950 . S
H1265 C1295 0.950 1_554 S
C1266 H1248 0.951 . S
C1266 C1267 1.366 1_556 S
C1266 C1268 1.388 . S
C1267 C1266 1.366 1_554 S
C1267 C1271 1.385 . S
C1268 H1249 0.951 . S
C1268 C1266 1.388 . S
C1268 C1269 1.366 . S
C1269 C1268 1.366 . S
C1269 C1270 1.414 1_556 S
C1269 C1272 1.499 . S
C1270 H1250 0.950 . S
C1270 C1269 1.414 1_554 S
C1270 C1271 1.374 . S
C1271 H1251 0.950 . S
C1271 C1267 1.385 . S
C1271 C1270 1.374 . S
C1272 C1269 1.499 . S
C1272 C1273 1.373 . S
C1272 C1274 1.389 . S
C1273 H1252 0.950 . S
C1273 C1272 1.373 . S
C1273 C1289 1.377 . S
C1274 C1272 1.389 . S
C1274 C1275 1.524 . S
C1274 C1288 1.377 . S
C1275 C1274 1.524 . S
C1275 C1276 1.397 1_655 S
C1275 C1280 1.363 . S
C1276 H1253 0.950 . S
C1276 C1275 1.397 1_455 S
C1276 C1277 1.334 . S
C1277 H1254 0.950 . S
C1277 C1276 1.334 . S
C1277 C1278 1.287 . S
C1278 C1277 1.287 . S
C1278 C1279 1.524 1_455 S
C1278 H1297 0.913 . S
C1279 H1255 0.950 . S
C1279 C1278 1.524 1_655 S
C1279 C1280 1.415 . S
C1280 H1256 0.950 . S
C1280 C1275 1.363 . S
C1280 C1279 1.415 . S
C1281 H1257 0.951 . S
C1281 C1282 1.366 . S
C1281 C1283 1.388 . S
C1282 C1281 1.366 . S
C1282 C1286 1.385 1_455 S
C1283 H1258 0.951 . S
C1283 C1281 1.388 . S
C1283 C1284 1.366 1_455 S
C1284 C1283 1.366 1_655 S
C1284 C1285 1.414 . S
C1284 C1287 1.499 . S
C1285 H1259 0.950 . S
C1285 C1284 1.414 . S
C1285 C1286 1.374 . S
C1286 H1260 0.950 . S
C1286 C1282 1.385 1_655 S
C1286 C1285 1.374 . S
C1287 C1284 1.499 . S
C1287 C1288 1.373 . S
C1287 C1289 1.389 . S
C1288 H1261 0.950 . S
C1288 C1274 1.377 . S
C1288 C1287 1.373 . S
C1289 C1273 1.377 . S
C1289 C1287 1.389 . S
C1289 C1290 1.524 . S
C1290 C1289 1.524 . S
C1290 C1291 1.397 . S
C1290 C1295 1.363 . S
C1291 H1262 0.950 . S
C1291 C1290 1.397 . S
C1291 C1292 1.334 . S
C1292 H1263 0.950 . S
C1292 C1291 1.334 . S
C1292 C1293 1.287 . S
C1293 C1292 1.287 . S
C1293 C1294 1.524 1_556 S
C1293 H1296 0.999 . S
C1294 H1264 0.950 . S
C1294 C1293 1.524 1_554 S
C1294 C1295 1.415 1_554 S
C1295 H1265 0.950 1_556 S
C1295 C1290 1.363 . S
C1295 C1294 1.415 1_556 S
H1296 C1293 0.999 . S
H1297 C1278 0.913 . S
H1298 C1316 0.951 . S
H1299 C1318 0.951 . S
H1300 C1320 0.950 . S
H1301 C1321 0.950 . S
H1302 C1323 0.950 . S
H1303 C1326 0.950 . S
H1304 C1327 0.950 . S
H1305 C1329 0.950 . S
H1306 C1330 0.950 . S
H1307 C1331 0.951 . S
H1308 C1333 0.951 . S
H1309 C1335 0.959 . S
H1310 C1336 0.950 . S
H1311 C1338 0.950 1_545 S
H1312 C1341 0.950 . S
H1313 C1342 0.950 . S
H1314 C1344 0.950 . S
H1315 C1345 0.950 . S
C1316 H1298 0.951 . S
C1316 C1317 1.366 1_556 S
C1316 C1318 1.388 . S
C1317 C1316 1.366 1_554 S
C1317 C1321 1.385 . S
C1318 H1299 0.951 . S
C1318 C1316 1.388 . S
C1318 C1319 1.366 . S
C1319 C1318 1.366 . S
C1319 C1320 1.414 1_556 S
C1319 C1322 1.499 . S
C1320 H1300 0.950 . S
C1320 C1319 1.414 1_554 S
C1320 C1321 1.374 . S
C1321 H1301 0.950 . S
C1321 C1317 1.385 . S
C1321 C1320 1.374 . S
C1322 C1319 1.499 . S
C1322 C1323 1.373 . S
C1322 C1324 1.389 . S
C1323 H1302 0.950 . S
C1323 C1322 1.373 . S
C1323 C1339 1.377 . S
C1324 C1322 1.389 . S
C1324 C1325 1.524 1_565 S
C1324 C1338 1.377 . S
C1325 C1324 1.524 1_545 S
C1325 C1326 1.397 . S
C1325 C1330 1.363 . S
C1326 H1303 0.950 . S
C1326 C1325 1.397 . S
C1326 C1327 1.334 . S
C1327 H1304 0.950 . S
C1327 C1326 1.334 . S
C1327 C1328 1.287 . S
C1328 C1327 1.287 . S
C1328 C1329 1.524 . S
C1328 H1347 0.913 . S
C1329 H1305 0.950 . S
C1329 C1328 1.524 . S
C1329 C1330 1.415 . S
C1330 H1306 0.950 . S
C1330 C1325 1.363 . S
C1330 C1329 1.415 . S
C1331 H1307 0.951 . S
C1331 C1332 1.366 . S
C1331 C1333 1.388 1_545 S
C1332 C1331 1.366 . S
C1332 C1336 1.385 . S
C1333 H1308 0.951 . S
C1333 C1331 1.388 1_565 S
C1333 C1334 1.366 . S
C1334 C1333 1.366 . S
C1334 C1335 1.428 . S
C1334 C1337 1.499 . S
C1335 H1309 0.959 . S
C1335 C1334 1.428 . S
C1335 C1336 1.355 1_565 S
C1336 H1310 0.950 . S
C1336 C1332 1.385 . S
C1336 C1335 1.355 1_545 S
C1337 C1334 1.499 . S
C1337 C1338 1.373 . S
C1337 C1339 1.389 . S
C1338 H1311 0.950 1_565 S
C1338 C1324 1.377 . S
C1338 C1337 1.373 . S
C1339 C1323 1.377 . S
C1339 C1337 1.389 . S
C1339 C1340 1.524 . S
C1340 C1339 1.524 . S
C1340 C1341 1.397 . S
C1340 C1345 1.363 . S
C1341 H1312 0.950 . S
C1341 C1340 1.397 . S
C1341 C1342 1.334 . S
C1342 H1313 0.950 . S
C1342 C1341 1.334 . S
C1342 C1343 1.287 . S
C1343 C1342 1.287 . S
C1343 C1344 1.524 . S
C1343 H1346 0.999 . S
C1344 H1314 0.950 . S
C1344 C1343 1.524 . S
C1344 C1345 1.415 . S
C1345 H1315 0.950 . S
C1345 C1340 1.363 . S
C1345 C1344 1.415 . S
H1346 C1343 0.999 . S
H1347 C1328 0.913 . S
H1348 C1366 0.951 . S
H1349 C1368 0.951 . S
H1350 C1370 0.950 . S
H1351 C1371 0.950 . S
H1352 C1373 0.950 . S
H1353 C1376 0.950 . S
H1354 C1377 0.950 . S
H1355 C1379 0.950 1_554 S
H1356 C1380 0.950 . S
H1357 C1381 0.951 . S
H1358 C1383 0.951 . S
H1359 C1385 0.950 . S
H1360 C1386 0.950 . S
H1361 C1388 0.950 . S
H1362 C1391 0.950 . S
H1363 C1392 0.950 . S
H1364 C1394 0.950 . S
H1365 C1395 0.950 . S
C1366 H1348 0.951 . S
C1366 C1367 1.366 . S
C1366 C1368 1.388 . S
C1367 C1366 1.366 . S
C1367 C1371 1.385 1_554 S
C1368 H1349 0.951 . S
C1368 C1366 1.388 . S
C1368 C1369 1.366 1_554 S
C1369 C1368 1.366 1_556 S
C1369 C1370 1.414 . S
C1369 C1372 1.499 . S
C1370 H1350 0.950 . S
C1370 C1369 1.414 . S
C1370 C1371 1.374 . S
C1371 H1351 0.950 . S
C1371 C1367 1.385 1_556 S
C1371 C1370 1.374 . S
C1372 C1369 1.499 . S
C1372 C1373 1.373 . S
C1372 C1374 1.389 . S
C1373 H1352 0.950 . S
C1373 C1372 1.373 . S
C1373 C1389 1.377 . S
C1374 C1372 1.389 . S
C1374 C1375 1.524 . S
C1374 C1388 1.377 . S
C1375 C1374 1.524 . S
C1375 C1376 1.397 . S
C1375 C1380 1.363 . S
C1376 H1353 0.950 . S
C1376 C1375 1.397 . S
C1376 C1377 1.334 . S
C1377 H1354 0.950 . S
C1377 C1376 1.334 . S
C1377 C1378 1.287 . S
C1378 C1377 1.287 . S
C1378 C1379 1.524 . S
C1378 H1397 0.913 . S
C1379 H1355 0.950 1_556 S
C1379 C1378 1.524 . S
C1379 C1380 1.415 . S
C1380 H1356 0.950 . S
C1380 C1375 1.363 . S
C1380 C1379 1.415 . S
C1381 H1357 0.951 . S
C1381 C1382 1.366 . S
C1381 C1383 1.388 . S
C1382 C1381 1.366 . S
C1382 C1386 1.385 . S
C1383 H1358 0.951 . S
C1383 C1381 1.388 . S
C1383 C1384 1.366 . S
C1384 C1383 1.366 . S
C1384 C1385 1.414 . S
C1384 C1387 1.499 . S
C1385 H1359 0.950 . S
C1385 C1384 1.414 . S
C1385 C1386 1.374 . S
C1386 H1360 0.950 . S
C1386 C1382 1.385 . S
C1386 C1385 1.374 . S
C1387 C1384 1.499 . S
C1387 C1388 1.373 . S
C1387 C1389 1.389 . S
C1388 H1361 0.950 . S
C1388 C1374 1.377 . S
C1388 C1387 1.373 . S
C1389 C1373 1.377 . S
C1389 C1387 1.389 . S
C1389 C1390 1.524 . S
C1390 C1389 1.524 . S
C1390 C1391 1.397 . S
C1390 C1395 1.363 . S
C1391 H1362 0.950 . S
C1391 C1390 1.397 . S
C1391 C1392 1.334 . S
C1392 H1363 0.950 . S
C1392 C1391 1.334 . S
C1392 C1393 1.287 . S
C1393 C1392 1.287 . S
C1393 C1394 1.524 . S
C1393 H1396 0.999 . S
C1394 H1364 0.950 . S
C1394 C1393 1.524 . S
C1394 C1395 1.415 . S
C1395 H1365 0.950 . S
C1395 C1390 1.363 . S
C1395 C1394 1.415 . S
H1396 C1393 0.999 . S
H1397 C1378 0.913 . S
H1398 C1416 0.951 . S
H1399 C1418 0.951 . S
H1400 C1420 0.950 . S
H1401 C1421 0.950 . S
H1402 C1423 0.950 . S
H1403 C1426 0.950 1_554 S
H1404 C1427 0.950 1_554 S
H1405 C1429 0.950 . S
H1406 C1430 0.950 . S
H1407 C1431 0.951 . S
H1408 C1433 0.951 . S
H1409 C1435 0.950 . S
H1410 C1436 0.950 . S
H1411 C1438 0.950 . S
H1412 C1441 0.950 . S
H1413 C1442 0.950 . S
H1414 C1444 0.950 . S
H1415 C1445 0.950 . S
C1416 H1398 0.951 . S
C1416 C1417 1.366 1_556 S
C1416 C1418 1.388 . S
C1417 C1416 1.366 1_554 S
C1417 C1421 1.385 . S
C1418 H1399 0.951 . S
C1418 C1416 1.388 . S
C1418 C1419 1.366 . S
C1419 C1418 1.366 . S
C1419 C1420 1.414 1_556 S
C1419 C1422 1.499 . S
C1420 H1400 0.950 . S
C1420 C1419 1.414 1_554 S
C1420 C1421 1.374 . S
C1421 H1401 0.950 . S
C1421 C1417 1.385 . S
C1421 C1420 1.374 . S
C1422 C1419 1.499 . S
C1422 C1423 1.373 . S
C1422 C1424 1.389 . S
C1423 H1402 0.950 . S
C1423 C1422 1.373 . S
C1423 C1439 1.377 . S
C1424 C1422 1.389 . S
C1424 C1425 1.524 . S
C1424 C1438 1.377 . S
C1425 C1424 1.524 . S
C1425 C1426 1.397 . S
C1425 C1430 1.363 . S
C1426 H1403 0.950 1_556 S
C1426 C1425 1.397 . S
C1426 C1427 1.334 . S
C1427 H1404 0.950 1_556 S
C1427 C1426 1.334 . S
C1427 C1428 1.287 . S
C1428 C1427 1.287 . S
C1428 C1429 1.524 . S
C1428 H1447 0.913 . S
C1429 H1405 0.950 . S
C1429 C1428 1.524 . S
C1429 C1430 1.415 . S
C1430 H1406 0.950 . S
C1430 C1425 1.363 . S
C1430 C1429 1.415 . S
C1431 H1407 0.951 . S
C1431 C1432 1.366 . S
C1431 C1433 1.388 . S
C1432 C1431 1.366 . S
C1432 C1436 1.385 . S
C1433 H1408 0.951 . S
C1433 C1431 1.388 . S
C1433 C1434 1.366 . S
C1434 C1433 1.366 . S
C1434 C1435 1.414 . S
C1434 C1437 1.499 . S
C1435 H1409 0.950 . S
C1435 C1434 1.414 . S
C1435 C1436 1.374 . S
C1436 H1410 0.950 . S
C1436 C1432 1.385 . S
C1436 C1435 1.374 . S
C1437 C1434 1.499 . S
C1437 C1438 1.373 . S
C1437 C1439 1.389 . S
C1438 H1411 0.950 . S
C1438 C1424 1.377 . S
C1438 C1437 1.373 . S
C1439 C1423 1.377 . S
C1439 C1437 1.389 . S
C1439 C1440 1.524 . S
C1440 C1439 1.524 . S
C1440 C1441 1.397 . S
C1440 C1445 1.363 . S
C1441 H1412 0.950 . S
C1441 C1440 1.397 . S
C1441 C1442 1.334 . S
C1442 H1413 0.950 . S
C1442 C1441 1.334 . S
C1442 C1443 1.287 . S
C1443 C1442 1.287 . S
C1443 C1444 1.524 . S
C1443 H1446 0.999 . S
C1444 H1414 0.950 . S
C1444 C1443 1.524 . S
C1444 C1445 1.415 . S
C1445 H1415 0.950 . S
C1445 C1440 1.363 . S
C1445 C1444 1.415 . S
H1446 C1443 0.999 . S
H1447 C1428 0.913 . S
H1448 C1466 0.951 . S
H1449 C1468 0.951 . S
H1450 C1470 0.950 . S
H1451 C1471 0.950 . S
H1452 C1473 0.950 . S
H1453 C1476 0.950 . S
H1454 C1477 0.950 . S
H1455 C1479 0.950 . S
H1456 C1480 0.950 . S
H1457 C1481 0.951 . S
H1458 C1483 0.951 . S
H1459 C1485 0.950 . S
H1460 C1486 0.950 . S
H1461 C1488 0.950 . S
H1462 C1491 0.950 . S
H1463 C1492 0.950 . S
H1464 C1494 0.950 . S
H1465 C1495 0.950 . S
C1466 H1448 0.951 . S
C1466 C1467 1.366 . S
C1466 C1468 1.388 . S
C1467 C1466 1.366 . S
C1467 C1471 1.385 . S
C1468 H1449 0.951 . S
C1468 C1466 1.388 . S
C1468 C1469 1.366 . S
C1469 C1468 1.366 . S
C1469 C1470 1.414 . S
C1469 C1472 1.499 . S
C1470 H1450 0.950 . S
C1470 C1469 1.414 . S
C1470 C1471 1.374 . S
C1471 H1451 0.950 . S
C1471 C1467 1.385 . S
C1471 C1470 1.374 . S
C1472 C1469 1.499 . S
C1472 C1473 1.373 . S
C1472 C1474 1.389 . S
C1473 H1452 0.950 . S
C1473 C1472 1.373 . S
C1473 C1489 1.377 . S
C1474 C1472 1.389 . S
C1474 C1475 1.524 . S
C1474 C1488 1.377 . S
C1475 C1474 1.524 . S
C1475 C1476 1.397 1_455 S
C1475 C1480 1.363 . S
C1476 H1453 0.950 . S
C1476 C1475 1.397 1_655 S
C1476 C1477 1.334 . S
C1477 H1454 0.950 . S
C1477 C1476 1.334 . S
C1477 C1478 1.287 . S
C1478 C1477 1.287 . S
C1478 C1479 1.524 . S
C1478 H1497 0.913 . S
C1479 H1455 0.950 . S
C1479 C1478 1.524 . S
C1479 C1480 1.415 1_655 S
C1480 H1456 0.950 . S
C1480 C1475 1.363 . S
C1480 C1479 1.415 1_455 S
C1481 H1457 0.951 . S
C1481 C1482 1.366 . S
C1481 C1483 1.388 . S
C1482 C1481 1.366 . S
C1482 C1486 1.385 . S
C1483 H1458 0.951 . S
C1483 C1481 1.388 . S
C1483 C1484 1.366 . S
C1484 C1483 1.366 . S
C1484 C1485 1.414 . S
C1484 C1487 1.499 . S
C1485 H1459 0.950 . S
C1485 C1484 1.414 . S
C1485 C1486 1.374 . S
C1486 H1460 0.950 . S
C1486 C1482 1.385 . S
C1486 C1485 1.374 . S
C1487 C1484 1.499 . S
C1487 C1488 1.373 . S
C1487 C1489 1.389 . S
C1488 H1461 0.950 . S
C1488 C1474 1.377 . S
C1488 C1487 1.373 . S
C1489 C1473 1.377 . S
C1489 C1487 1.389 . S
C1489 C1490 1.524 . S
C1490 C1489 1.524 . S
C1490 C1491 1.397 . S
C1490 C1495 1.363 . S
C1491 H1462 0.950 . S
C1491 C1490 1.397 . S
C1491 C1492 1.334 . S
C1492 H1463 0.950 . S
C1492 C1491 1.334 . S
C1492 C1493 1.287 . S
C1493 C1492 1.287 . S
C1493 C1494 1.524 . S
C1493 H1496 0.999 . S
C1494 H1464 0.950 . S
C1494 C1493 1.524 . S
C1494 C1495 1.415 . S
C1495 H1465 0.950 . S
C1495 C1490 1.363 . S
C1495 C1494 1.415 . S
H1496 C1493 0.999 . S
H1497 C1478 0.913 . S
H1498 C1516 0.951 . S
H1499 C1518 0.951 . S
H1500 C1520 0.950 . S
H1501 C1521 0.950 . S
H1502 C1523 0.950 . S
H1503 C1526 0.954 . S
H1504 C1527 0.950 . S
H1505 C1529 0.950 . S
H1506 C1530 0.950 . S
H1507 C1531 0.951 . S
H1508 C1533 0.951 . S
H1509 C1535 0.950 . S
H1510 C1536 0.950 . S
H1511 C1538 0.950 . S
H1512 C1541 0.950 . S
H1513 C1542 0.950 . S
H1514 C1544 0.950 . S
H1515 C1545 0.950 . S
C1516 H1498 0.951 . S
C1516 C1517 1.366 . S
C1516 C1518 1.388 . S
C1517 C1516 1.366 . S
C1517 C1521 1.385 . S
C1518 H1499 0.951 . S
C1518 C1516 1.388 . S
C1518 C1519 1.366 . S
C1519 C1518 1.366 . S
C1519 C1520 1.414 . S
C1519 C1522 1.499 . S
C1520 H1500 0.950 . S
C1520 C1519 1.414 . S
C1520 C1521 1.374 . S
C1521 H1501 0.950 . S
C1521 C1517 1.385 . S
C1521 C1520 1.374 . S
C1522 C1519 1.499 . S
C1522 C1523 1.373 . S
C1522 C1524 1.389 . S
C1523 H1502 0.950 . S
C1523 C1522 1.373 . S
C1523 C1539 1.377 . S
C1524 C1522 1.389 . S
C1524 C1525 1.524 . S
C1524 C1538 1.377 . S
C1525 C1524 1.524 . S
C1525 C1526 1.397 1_545 S
C1525 C1530 1.363 . S
C1526 H1503 0.954 . S
C1526 C1525 1.397 1_565 S
C1526 C1527 1.334 . S
C1527 H1504 0.950 . S
C1527 C1526 1.334 . S
C1527 C1528 1.287 . S
C1528 C1527 1.287 . S
C1528 C1529 1.524 . S
C1528 H1547 0.913 . S
C1529 H1505 0.950 . S
C1529 C1528 1.524 . S
C1529 C1530 1.415 1_565 S
C1530 H1506 0.950 . S
C1530 C1525 1.363 . S
C1530 C1529 1.415 1_545 S
C1531 H1507 0.951 . S
C1531 C1532 1.366 . S
C1531 C1533 1.388 . S
C1532 C1531 1.366 . S
C1532 C1536 1.385 . S
C1533 H1508 0.951 . S
C1533 C1531 1.388 . S
C1533 C1534 1.366 . S
C1534 C1533 1.366 . S
C1534 C1535 1.414 . S
C1534 C1537 1.499 . S
C1535 H1509 0.950 . S
C1535 C1534 1.414 . S
C1535 C1536 1.374 . S
C1536 H1510 0.950 . S
C1536 C1532 1.385 . S
C1536 C1535 1.374 . S
C1537 C1534 1.499 . S
C1537 C1538 1.373 . S
C1537 C1539 1.389 . S
C1538 H1511 0.950 . S
C1538 C1524 1.377 . S
C1538 C1537 1.373 . S
C1539 C1523 1.377 . S
C1539 C1537 1.389 . S
C1539 C1540 1.524 . S
C1540 C1539 1.524 . S
C1540 C1541 1.397 . S
C1540 C1545 1.363 . S
C1541 H1512 0.950 . S
C1541 C1540 1.397 . S
C1541 C1542 1.334 . S
C1542 H1513 0.950 . S
C1542 C1541 1.334 . S
C1542 C1543 1.287 . S
C1543 C1542 1.287 . S
C1543 C1544 1.524 . S
C1543 H1546 0.999 . S
C1544 H1514 0.950 . S
C1544 C1543 1.524 . S
C1544 C1545 1.415 . S
C1545 H1515 0.950 . S
C1545 C1540 1.363 . S
C1545 C1544 1.415 . S
H1546 C1543 0.999 . S
H1547 C1528 0.913 . S
H1548 C1566 0.951 . S
H1549 C1568 0.951 . S
H1550 C1570 0.950 . S
H1551 C1571 0.950 . S
H1552 C1573 0.950 . S
H1553 C1576 0.950 . S
H1554 C1577 0.950 . S
H1555 C1579 0.950 . S
H1556 C1580 0.950 . S
H1557 C1581 0.951 . S
H1558 C1583 0.951 . S
H1559 C1585 0.950 . S
H1560 C1586 0.950 . S
H1561 C1588 0.950 . S
H1562 C1591 0.950 . S
H1563 C1592 0.950 . S
H1564 C1594 0.950 . S
H1565 C1595 0.950 . S
C1566 H1548 0.951 . S
C1566 C1567 1.366 . S
C1566 C1568 1.388 . S
C1567 C1566 1.366 . S
C1567 C1571 1.385 . S
C1568 H1549 0.951 . S
C1568 C1566 1.388 . S
C1568 C1569 1.366 . S
C1569 C1568 1.366 . S
C1569 C1570 1.414 . S
C1569 C1572 1.499 . S
C1570 H1550 0.950 . S
C1570 C1569 1.414 . S
C1570 C1571 1.374 . S
C1571 H1551 0.950 . S
C1571 C1567 1.385 . S
C1571 C1570 1.374 . S
C1572 C1569 1.499 . S
C1572 C1573 1.373 . S
C1572 C1574 1.389 . S
C1573 H1552 0.950 . S
C1573 C1572 1.373 . S
C1573 C1589 1.377 . S
C1574 C1572 1.389 . S
C1574 C1575 1.524 . S
C1574 C1588 1.377 . S
C1575 C1574 1.524 . S
C1575 C1576 1.397 . S
C1575 C1580 1.363 . S
C1576 H1553 0.950 . S
C1576 C1575 1.397 . S
C1576 C1577 1.334 . S
C1577 H1554 0.950 . S
C1577 C1576 1.334 . S
C1577 C1578 1.287 . S
C1578 C1577 1.287 . S
C1578 C1579 1.524 . S
C1578 H1597 0.913 . S
C1579 H1555 0.950 . S
C1579 C1578 1.524 . S
C1579 C1580 1.415 . S
C1580 H1556 0.950 . S
C1580 C1575 1.363 . S
C1580 C1579 1.415 . S
C1581 H1557 0.951 . S
C1581 C1582 1.366 . S
C1581 C1583 1.388 . S
C1582 C1581 1.366 . S
C1582 C1586 1.385 . S
C1583 H1558 0.951 . S
C1583 C1581 1.388 . S
C1583 C1584 1.366 . S
C1584 C1583 1.366 . S
C1584 C1585 1.414 . S
C1584 C1587 1.499 . S
C1585 H1559 0.950 . S
C1585 C1584 1.414 . S
C1585 C1586 1.374 . S
C1586 H1560 0.950 . S
C1586 C1582 1.385 . S
C1586 C1585 1.374 . S
C1587 C1584 1.499 . S
C1587 C1588 1.373 . S
C1587 C1589 1.389 . S
C1588 H1561 0.950 . S
C1588 C1574 1.377 . S
C1588 C1587 1.373 . S
C1589 C1573 1.377 . S
C1589 C1587 1.389 . S
C1589 C1590 1.524 . S
C1590 C1589 1.524 . S
C1590 C1591 1.397 . S
C1590 C1595 1.363 . S
C1591 H1562 0.950 . S
C1591 C1590 1.397 . S
C1591 C1592 1.334 . S
C1592 H1563 0.950 . S
C1592 C1591 1.334 . S
C1592 C1593 1.287 . S
C1593 C1592 1.287 . S
C1593 C1594 1.524 . S
C1593 H1596 0.999 . S
C1594 H1564 0.950 . S
C1594 C1593 1.524 . S
C1594 C1595 1.415 . S
C1595 H1565 0.950 . S
C1595 C1590 1.363 . S
C1595 C1594 1.415 . S
H1596 C1593 0.999 . S
H1597 C1578 0.913 . S
H1598 C1616 0.951 . S
H1599 C1618 0.951 . S
H1600 C1620 0.950 . S
H1601 C1621 0.950 . S
H1602 C1623 0.950 . S
H1603 C1626 0.950 . S
H1604 C1627 0.950 . S
H1605 C1629 0.950 . S
H1606 C1630 0.950 . S
H1607 C1631 0.951 . S
H1608 C1633 0.951 . S
H1609 C1635 0.950 . S
H1610 C1636 0.950 . S
H1611 C1638 0.950 . S
H1612 C1641 0.950 . S
H1613 C1642 0.950 . S
H1614 C1644 0.950 . S
H1615 C1645 0.950 . S
C1616 H1598 0.951 . S
C1616 C1617 1.366 . S
C1616 C1618 1.388 . S
C1617 C1616 1.366 . S
C1617 C1621 1.385 . S
C1618 H1599 0.951 . S
C1618 C1616 1.388 . S
C1618 C1619 1.366 . S
C1619 C1618 1.366 . S
C1619 C1620 1.414 . S
C1619 C1622 1.499 . S
C1620 H1600 0.950 . S
C1620 C1619 1.414 . S
C1620 C1621 1.374 . S
C1621 H1601 0.950 . S
C1621 C1617 1.385 . S
C1621 C1620 1.374 . S
C1622 C1619 1.499 . S
C1622 C1623 1.373 . S
C1622 C1624 1.389 . S
C1623 H1602 0.950 . S
C1623 C1622 1.373 . S
C1623 C1639 1.377 . S
C1624 C1622 1.389 . S
C1624 C1625 1.524 . S
C1624 C1638 1.377 . S
C1625 C1624 1.524 . S
C1625 C1626 1.397 . S
C1625 C1630 1.363 . S
C1626 H1603 0.950 . S
C1626 C1625 1.397 . S
C1626 C1627 1.334 . S
C1627 H1604 0.950 . S
C1627 C1626 1.334 . S
C1627 C1628 1.287 . S
C1628 C1627 1.287 . S
C1628 C1629 1.524 . S
C1628 H1647 0.913 . S
C1629 H1605 0.950 . S
C1629 C1628 1.524 . S
C1629 C1630 1.415 . S
C1630 H1606 0.950 . S
C1630 C1625 1.363 . S
C1630 C1629 1.415 . S
C1631 H1607 0.951 . S
C1631 C1632 1.366 . S
C1631 C1633 1.388 . S
C1632 C1631 1.366 . S
C1632 C1636 1.385 . S
C1633 H1608 0.951 . S
C1633 C1631 1.388 . S
C1633 C1634 1.366 . S
C1634 C1633 1.366 . S
C1634 C1635 1.414 . S
C1634 C1637 1.499 . S
C1635 H1609 0.950 . S
C1635 C1634 1.414 . S
C1635 C1636 1.374 . S
C1636 H1610 0.950 . S
C1636 C1632 1.385 . S
C1636 C1635 1.374 . S
C1637 C1634 1.499 . S
C1637 C1638 1.373 . S
C1637 C1639 1.389 . S
C1638 H1611 0.950 . S
C1638 C1624 1.377 . S
C1638 C1637 1.373 . S
C1639 C1623 1.377 . S
C1639 C1637 1.389 . S
C1639 C1640 1.524 . S
C1640 C1639 1.524 . S
C1640 C1641 1.397 . S
C1640 C1645 1.363 . S
C1641 H1612 0.950 . S
C1641 C1640 1.397 . S
C1641 C1642 1.334 . S
C1642 H1613 0.950 . S
C1642 C1641 1.334 . S
C1642 C1643 1.287 . S
C1643 C1642 1.287 . S
C1643 C1644 1.524 . S
C1643 H1646 0.999 . S
C1644 H1614 0.950 . S
C1644 C1643 1.524 . S
C1644 C1645 1.415 . S
C1645 H1615 0.950 . S
C1645 C1640 1.363 . S
C1645 C1644 1.415 . S
H1646 C1643 0.999 . S
H1647 C1628 0.913 . S
H1648 C1666 0.951 . S
H1649 C1668 0.951 1_455 S
H1650 C1670 0.950 . S
H1651 C1671 0.950 . S
H1652 C1673 0.950 . S
H1653 C1676 0.950 . S
H1654 C1677 0.950 . S
H1655 C1679 0.950 . S
H1656 C1680 0.950 . S
H1657 C1681 0.951 . S
H1658 C1683 0.951 . S
H1659 C1685 0.950 . S
H1660 C1686 0.950 . S
H1661 C1688 0.950 . S
H1662 C1691 0.950 . S
H1663 C1692 0.950 . S
H1664 C1694 0.950 . S
H1665 C1695 0.950 . S
C1666 H1648 0.951 . S
C1666 C1667 1.366 . S
C1666 C1668 1.388 . S
C1667 C1666 1.366 . S
C1667 C1671 1.385 . S
C1668 H1649 0.951 1_655 S
C1668 C1666 1.388 . S
C1668 C1669 1.366 . S
C1669 C1668 1.366 . S
C1669 C1670 1.414 . S
C1669 C1672 1.499 . S
C1670 H1650 0.950 . S
C1670 C1669 1.414 . S
C1670 C1671 1.374 . S
C1671 H1651 0.950 . S
C1671 C1667 1.385 . S
C1671 C1670 1.374 . S
C1672 C1669 1.499 . S
C1672 C1673 1.373 . S
C1672 C1674 1.389 . S
C1673 H1652 0.950 . S
C1673 C1672 1.373 . S
C1673 C1689 1.377 . S
C1674 C1672 1.389 . S
C1674 C1675 1.524 . S
C1674 C1688 1.377 . S
C1675 C1674 1.524 . S
C1675 C1676 1.397 . S
C1675 C1680 1.363 1_655 S
C1676 H1653 0.950 . S
C1676 C1675 1.397 . S
C1676 C1677 1.334 . S
C1677 H1654 0.950 . S
C1677 C1676 1.334 . S
C1677 C1678 1.287 1_655 S
C1678 C1677 1.287 1_455 S
C1678 C1679 1.524 . S
C1678 H1697 0.913 . S
C1679 H1655 0.950 . S
C1679 C1678 1.524 . S
C1679 C1680 1.415 . S
C1680 H1656 0.950 . S
C1680 C1675 1.363 1_455 S
C1680 C1679 1.415 . S
C1681 H1657 0.951 . S
C1681 C1682 1.366 . S
C1681 C1683 1.388 . S
C1682 C1681 1.366 . S
C1682 C1686 1.385 1_655 S
C1683 H1658 0.951 . S
C1683 C1681 1.388 . S
C1683 C1684 1.366 . S
C1684 C1683 1.366 . S
C1684 C1685 1.414 1_655 S
C1684 C1687 1.499 . S
C1685 H1659 0.950 . S
C1685 C1684 1.414 1_455 S
C1685 C1686 1.374 . S
C1686 H1660 0.950 . S
C1686 C1682 1.385 1_455 S
C1686 C1685 1.374 . S
C1687 C1684 1.499 . S
C1687 C1688 1.373 . S
C1687 C1689 1.389 . S
C1688 H1661 0.950 . S
C1688 C1674 1.377 . S
C1688 C1687 1.373 . S
C1689 C1673 1.377 . S
C1689 C1687 1.389 . S
C1689 C1690 1.524 . S
C1690 C1689 1.524 . S
C1690 C1691 1.397 . S
C1690 C1695 1.363 . S
C1691 H1662 0.950 . S
C1691 C1690 1.397 . S
C1691 C1692 1.334 . S
C1692 H1663 0.950 . S
C1692 C1691 1.334 . S
C1692 C1693 1.287 . S
C1693 C1692 1.287 . S
C1693 C1694 1.524 . S
C1693 H1696 0.999 . S
C1694 H1664 0.950 . S
C1694 C1693 1.524 . S
C1694 C1695 1.415 . S
C1695 H1665 0.950 . S
C1695 C1690 1.363 . S
C1695 C1694 1.415 . S
H1696 C1693 0.999 . S
H1697 C1678 0.913 . S
H1698 C1716 0.951 . S
H1699 C1718 0.951 . S
H1700 C1720 0.950 . S
H1701 C1721 0.950 . S
H1702 C1723 0.950 . S
H1703 C1726 0.950 . S
H1704 C1727 0.950 . S
H1705 C1729 0.950 . S
H1706 C1730 0.950 . S
H1707 C1731 0.951 . S
H1708 C1733 0.951 . S
H1709 C1735 0.950 . S
H1710 C1736 0.950 . S
H1711 C1738 0.950 . S
H1712 C1741 0.950 . S
H1713 C1742 0.950 . S
H1714 C1744 0.950 . S
H1715 C1745 0.950 . S
C1716 H1698 0.951 . S
C1716 C1717 1.366 . S
C1716 C1718 1.388 . S
C1717 C1716 1.366 . S
C1717 C1721 1.385 . S
C1718 H1699 0.951 . S
C1718 C1716 1.388 . S
C1718 C1719 1.366 . S
C1719 C1718 1.366 . S
C1719 C1720 1.414 . S
C1719 C1722 1.499 . S
C1720 H1700 0.950 . S
C1720 C1719 1.414 . S
C1720 C1721 1.374 . S
C1721 H1701 0.950 . S
C1721 C1717 1.385 . S
C1721 C1720 1.374 . S
C1722 C1719 1.499 . S
C1722 C1723 1.373 . S
C1722 C1724 1.389 . S
C1723 H1702 0.950 . S
C1723 C1722 1.373 . S
C1723 C1739 1.377 . S
C1724 C1722 1.389 . S
C1724 C1725 1.524 . S
C1724 C1738 1.377 . S
C1725 C1724 1.524 . S
C1725 C1726 1.397 . S
C1725 C1730 1.363 . S
C1726 H1703 0.950 . S
C1726 C1725 1.397 . S
C1726 C1727 1.334 . S
C1727 H1704 0.950 . S
C1727 C1726 1.334 . S
C1727 C1728 1.287 . S
C1728 C1727 1.287 . S
C1728 C1729 1.524 . S
C1728 H1747 0.913 . S
C1729 H1705 0.950 . S
C1729 C1728 1.524 . S
C1729 C1730 1.415 . S
C1730 H1706 0.950 . S
C1730 C1725 1.363 . S
C1730 C1729 1.415 . S
C1731 H1707 0.951 . S
C1731 C1732 1.366 1_545 S
C1731 C1733 1.388 . S
C1732 C1731 1.366 1_565 S
C1732 C1736 1.385 . S
C1733 H1708 0.951 . S
C1733 C1731 1.388 . S
C1733 C1734 1.366 1_545 S
C1734 C1733 1.366 1_565 S
C1734 C1735 1.414 . S
C1734 C1737 1.499 . S
C1735 H1709 0.950 . S
C1735 C1734 1.414 . S
C1735 C1736 1.374 . S
C1736 H1710 0.950 . S
C1736 C1732 1.385 . S
C1736 C1735 1.374 . S
C1737 C1734 1.499 . S
C1737 C1738 1.373 . S
C1737 C1739 1.389 . S
C1738 H1711 0.950 . S
C1738 C1724 1.377 . S
C1738 C1737 1.373 . S
C1739 C1723 1.377 . S
C1739 C1737 1.389 . S
C1739 C1740 1.524 . S
C1740 C1739 1.524 . S
C1740 C1741 1.397 . S
C1740 C1745 1.363 1_565 S
C1741 H1712 0.950 . S
C1741 C1740 1.397 . S
C1741 C1742 1.334 . S
C1742 H1713 0.950 . S
C1742 C1741 1.334 . S
C1742 C1743 1.303 . S
C1743 C1742 1.303 . S
C1743 C1744 1.511 1_565 S
C1743 H1746 0.993 1_565 S
C1744 H1714 0.950 . S
C1744 C1743 1.511 1_545 S
C1744 C1745 1.415 . S
C1745 H1715 0.950 . S
C1745 C1740 1.363 1_545 S
C1745 C1744 1.415 . S
H1746 C1743 0.993 1_545 S
H1747 C1728 0.913 . S
H1748 C1766 0.951 . S
H1749 C1768 0.951 . S
H1750 C1770 0.950 . S
H1751 C1771 0.950 . S
H1752 C1773 0.950 . S
H1753 C1776 0.950 . S
H1754 C1777 0.950 . S
H1755 C1779 0.950 . S
H1756 C1780 0.950 . S
H1757 C1781 0.951 . S
H1758 C1783 0.951 . S
H1759 C1785 0.950 . S
H1760 C1786 0.950 . S
H1761 C1788 0.950 . S
H1762 C1791 0.950 . S
H1763 C1792 0.950 . S
H1764 C1794 0.950 . S
H1765 C1795 0.950 . S
C1766 H1748 0.951 . S
C1766 C1767 1.366 . S
C1766 C1768 1.388 . S
C1767 C1766 1.366 . S
C1767 C1771 1.385 . S
C1768 H1749 0.951 . S
C1768 C1766 1.388 . S
C1768 C1769 1.366 . S
C1769 C1768 1.366 . S
C1769 C1770 1.414 . S
C1769 C1772 1.499 . S
C1770 H1750 0.950 . S
C1770 C1769 1.414 . S
C1770 C1771 1.374 . S
C1771 H1751 0.950 . S
C1771 C1767 1.385 . S
C1771 C1770 1.374 . S
C1772 C1769 1.499 . S
C1772 C1773 1.373 . S
C1772 C1774 1.389 . S
C1773 H1752 0.950 . S
C1773 C1772 1.373 . S
C1773 C1789 1.377 . S
C1774 C1772 1.389 . S
C1774 C1775 1.524 . S
C1774 C1788 1.377 . S
C1775 C1774 1.524 . S
C1775 C1776 1.397 . S
C1775 C1780 1.363 . S
C1776 H1753 0.950 . S
C1776 C1775 1.397 . S
C1776 C1777 1.334 . S
C1777 H1754 0.950 . S
C1777 C1776 1.334 . S
C1777 C1778 1.287 . S
C1778 C1777 1.287 . S
C1778 C1779 1.524 . S
C1778 H1797 0.913 . S
C1779 H1755 0.950 . S
C1779 C1778 1.524 . S
C1779 C1780 1.415 . S
C1780 H1756 0.950 . S
C1780 C1775 1.363 . S
C1780 C1779 1.415 . S
C1781 H1757 0.951 . S
C1781 C1782 1.366 . S
C1781 C1783 1.388 . S
C1782 C1781 1.366 . S
C1782 C1786 1.385 . S
C1783 H1758 0.951 . S
C1783 C1781 1.388 . S
C1783 C1784 1.366 . S
C1784 C1783 1.366 . S
C1784 C1785 1.414 . S
C1784 C1787 1.499 . S
C1785 H1759 0.950 . S
C1785 C1784 1.414 . S
C1785 C1786 1.374 . S
C1786 H1760 0.950 . S
C1786 C1782 1.385 . S
C1786 C1785 1.374 . S
C1787 C1784 1.499 . S
C1787 C1788 1.373 . S
C1787 C1789 1.389 . S
C1788 H1761 0.950 . S
C1788 C1774 1.377 . S
C1788 C1787 1.373 . S
C1789 C1773 1.377 . S
C1789 C1787 1.389 . S
C1789 C1790 1.524 . S
C1790 C1789 1.524 . S
C1790 C1791 1.397 . S
C1790 C1795 1.363 . S
C1791 H1762 0.950 . S
C1791 C1790 1.397 . S
C1791 C1792 1.334 . S
C1792 H1763 0.950 . S
C1792 C1791 1.334 . S
C1792 C1793 1.287 . S
C1793 C1792 1.287 . S
C1793 C1794 1.524 . S
C1793 H1796 0.999 . S
C1794 H1764 0.950 . S
C1794 C1793 1.524 . S
C1794 C1795 1.415 . S
C1795 H1765 0.950 . S
C1795 C1790 1.363 . S
C1795 C1794 1.415 . S
H1796 C1793 0.999 . S
H1797 C1778 0.913 . S
H1798 C1816 0.951 . S
H1799 C1818 0.951 . S
H1800 C1820 0.950 . S
H1801 C1821 0.950 . S
H1802 C1823 0.950 . S
H1803 C1826 0.950 . S
H1804 C1827 0.950 . S
H1805 C1829 0.950 . S
H1806 C1830 0.950 . S
H1807 C1831 0.951 . S
H1808 C1833 0.951 . S
H1809 C1835 0.950 . S
H1810 C1836 0.950 . S
H1811 C1838 0.950 . S
H1812 C1841 0.950 . S
H1813 C1842 0.950 . S
H1814 C1844 0.950 . S
H1815 C1845 0.950 . S
C1816 H1798 0.951 . S
C1816 C1817 1.366 . S
C1816 C1818 1.388 . S
C1817 C1816 1.366 . S
C1817 C1821 1.385 . S
C1818 H1799 0.951 . S
C1818 C1816 1.388 . S
C1818 C1819 1.366 . S
C1819 C1818 1.366 . S
C1819 C1820 1.414 . S
C1819 C1822 1.499 . S
C1820 H1800 0.950 . S
C1820 C1819 1.414 . S
C1820 C1821 1.374 . S
C1821 H1801 0.950 . S
C1821 C1817 1.385 . S
C1821 C1820 1.374 . S
C1822 C1819 1.499 . S
C1822 C1823 1.373 . S
C1822 C1824 1.389 . S
C1823 H1802 0.950 . S
C1823 C1822 1.373 . S
C1823 C1839 1.377 . S
C1824 C1822 1.389 . S
C1824 C1825 1.524 . S
C1824 C1838 1.377 . S
C1825 C1824 1.524 . S
C1825 C1826 1.397 . S
C1825 C1830 1.363 . S
C1826 H1803 0.950 . S
C1826 C1825 1.397 . S
C1826 C1827 1.334 . S
C1827 H1804 0.950 . S
C1827 C1826 1.334 . S
C1827 C1828 1.287 . S
C1828 C1827 1.287 . S
C1828 C1829 1.524 . S
C1828 H1847 0.913 . S
C1829 H1805 0.950 . S
C1829 C1828 1.524 . S
C1829 C1830 1.415 . S
C1830 H1806 0.950 . S
C1830 C1825 1.363 . S
C1830 C1829 1.415 . S
C1831 H1807 0.951 . S
C1831 C1832 1.366 . S
C1831 C1833 1.388 . S
C1832 C1831 1.366 . S
C1832 C1836 1.385 . S
C1833 H1808 0.951 . S
C1833 C1831 1.388 . S
C1833 C1834 1.366 . S
C1834 C1833 1.366 . S
C1834 C1835 1.414 . S
C1834 C1837 1.499 . S
C1835 H1809 0.950 . S
C1835 C1834 1.414 . S
C1835 C1836 1.374 . S
C1836 H1810 0.950 . S
C1836 C1832 1.385 . S
C1836 C1835 1.374 . S
C1837 C1834 1.499 . S
C1837 C1838 1.373 . S
C1837 C1839 1.389 . S
C1838 H1811 0.950 . S
C1838 C1824 1.377 . S
C1838 C1837 1.373 . S
C1839 C1823 1.377 . S
C1839 C1837 1.389 . S
C1839 C1840 1.524 . S
C1840 C1839 1.524 . S
C1840 C1841 1.397 . S
C1840 C1845 1.363 . S
C1841 H1812 0.950 . S
C1841 C1840 1.397 . S
C1841 C1842 1.334 . S
C1842 H1813 0.950 . S
C1842 C1841 1.334 . S
C1842 C1843 1.287 . S
C1843 C1842 1.287 . S
C1843 C1844 1.524 . S
C1843 H1846 0.999 . S
C1844 H1814 0.950 . S
C1844 C1843 1.524 . S
C1844 C1845 1.415 . S
C1845 H1815 0.950 . S
C1845 C1840 1.363 . S
C1845 C1844 1.415 . S
H1846 C1843 0.999 . S
H1847 C1828 0.913 . S
C667 C255 2.087 . S
C682 C375 2.197 . S
C732 C452 2.219 . S
C717 C294 2.093 . S
C782 C543 2.187 . S
C767 C177 2.076 . S
C832 C627 2.174 . S
C817 C216 2.065 . S
C882 C386 2.197 1_565 S
C867 C99 2.094 . S
C917 C138 2.087 . S
C932 C463 2.220 . S
C967 C21 2.085 . S
C982 C554 2.188 . S
C1017 C60 2.072 . S
C1032 C638 2.174 1_655 S
C1082 C370 0.428 1_455 S
C1067 C196 0.312 . S
C1132 C465 0.523 . S
C1117 C235 0.300 . S
C1182 C538 0.426 . S
C1167 C289 0.319 . S
C1217 C157 0.301 . S
C1232 C622 0.426 . S
C1267 C40 0.296 . S
C1282 C381 0.428 . S
C1332 C454 0.525 . S
C1317 C79 0.281 . S
C1382 C549 0.428 . S
C1367 C133 0.307 . S
C1417 C1 0.289 . S
C1432 C633 0.423 . S
C1467 C211 2.417 . S
C1482 C379 2.656 . S
C1517 C250 2.399 . S
C1532 C470 2.661 . S
C1582 C547 2.682 . S
C1567 C274 2.446 . S
C1632 C631 2.678 . S
C1617 C172 2.437 . S
C1667 C55 2.413 . S
C1682 C368 2.655 . S
C1732 C459 2.661 . S
C1717 C94 2.398 . S
C1782 C536 2.682 . S
C1767 C118 2.443 . S
C1817 C16 2.436 . S
C1832 C620 2.678 . S
