# Generated by pormake.
# Topology ssa, (4,4)-cn, num edge types: 1
# Building blocks:
#     Node 0, Type 0, BuildingBlock: ESEHIV_clean_sbu_0, # of connection points: 4
#     Node 1, Type 0, BuildingBlock: ESEHIV_clean_sbu_0, # of connection points: 4
#     Node 2, Type 0, BuildingBlock: ESEHIV_clean_sbu_0, # of connection points: 4
#     Node 3, Type 0, BuildingBlock: ESEHIV_clean_sbu_0, # of connection points: 4
#     Node 4, Type 0, BuildingBlock: ESEHIV_clean_sbu_0, # of connection points: 4
#     Node 5, Type 0, BuildingBlock: ESEHIV_clean_sbu_0, # of connection points: 4
#     Node 6, Type 1, BuildingBlock: NAWXER_clean_linker_0, # of connection points: 4
#     Node 7, Type 1, BuildingBlock: NAWXER_clean_linker_0, # of connection points: 4
#     Node 8, Type 1, BuildingBlock: NAWXER_clean_linker_0, # of connection points: 4
#     Node 9, Type 1, BuildingBlock: NAWXER_clean_linker_0, # of connection points: 4
#     Node 10, Type 1, BuildingBlock: NAWXER_clean_linker_0, # of connection points: 4
#     Node 11, Type 1, BuildingBlock: NAWXER_clean_linker_0, # of connection points: 4
#     Edge 12, Type (0, 1), BuildingBlock: AJUNOK_clean_linker_0, # of connection points: 2
#     Edge 13, Type (0, 1), BuildingBlock: AJUNOK_clean_linker_0, # of connection points: 2
#     Edge 14, Type (0, 1), BuildingBlock: AJUNOK_clean_linker_0, # of connection points: 2
#     Edge 15, Type (0, 1), BuildingBlock: AJUNOK_clean_linker_0, # of connection points: 2
#     Edge 16, Type (0, 1), BuildingBlock: AJUNOK_clean_linker_0, # of connection points: 2
#     Edge 17, Type (0, 1), BuildingBlock: AJUNOK_clean_linker_0, # of connection points: 2
#     Edge 18, Type (0, 1), BuildingBlock: AJUNOK_clean_linker_0, # of connection points: 2
#     Edge 19, Type (0, 1), BuildingBlock: AJUNOK_clean_linker_0, # of connection points: 2
#     Edge 20, Type (0, 1), BuildingBlock: AJUNOK_clean_linker_0, # of connection points: 2
#     Edge 21, Type (0, 1), BuildingBlock: AJUNOK_clean_linker_0, # of connection points: 2
#     Edge 22, Type (0, 1), BuildingBlock: AJUNOK_clean_linker_0, # of connection points: 2
#     Edge 23, Type (0, 1), BuildingBlock: AJUNOK_clean_linker_0, # of connection points: 2
#     Edge 24, Type (0, 1), BuildingBlock: AJUNOK_clean_linker_0, # of connection points: 2
#     Edge 25, Type (0, 1), BuildingBlock: AJUNOK_clean_linker_0, # of connection points: 2
#     Edge 26, Type (0, 1), BuildingBlock: AJUNOK_clean_linker_0, # of connection points: 2
#     Edge 27, Type (0, 1), BuildingBlock: AJUNOK_clean_linker_0, # of connection points: 2
#     Edge 28, Type (0, 1), BuildingBlock: AJUNOK_clean_linker_0, # of connection points: 2
#     Edge 29, Type (0, 1), BuildingBlock: AJUNOK_clean_linker_0, # of connection points: 2
#     Edge 30, Type (0, 1), BuildingBlock: AJUNOK_clean_linker_0, # of connection points: 2
#     Edge 31, Type (0, 1), BuildingBlock: AJUNOK_clean_linker_0, # of connection points: 2
#     Edge 32, Type (0, 1), BuildingBlock: AJUNOK_clean_linker_0, # of connection points: 2
#     Edge 33, Type (0, 1), BuildingBlock: AJUNOK_clean_linker_0, # of connection points: 2
#     Edge 34, Type (0, 1), BuildingBlock: AJUNOK_clean_linker_0, # of connection points: 2
#     Edge 35, Type (0, 1), BuildingBlock: AJUNOK_clean_linker_0, # of connection points: 2
# Relax obj value: 0.010
# Max RMSD: 0.108
# Mean RMSD: 0.056
data_MOF--net-ssa--node1-ESEHIV_clean_sbu_0--node2-NAWXER_clean_linker_0--edge1-AJUNOK_clean_linker_0
_symmetry_space_group_name_H-M    P1
_symmetry_Int_Tables_number       1
_symmetry_cell_setting            triclinic
loop_
_symmetry_equiv_pos_as_xyz
'x, y, z'
_cell_length_a     45.53047
_cell_length_b     49.141492
_cell_length_c     32.846459
_cell_angle_alpha  88.192626
_cell_angle_beta   90.959911
_cell_angle_gamma 123.0208
loop_
_atom_site_label
_atom_site_type_symbol
_atom_site_fract_x
_atom_site_fract_y
_atom_site_fract_z
_atom_type_partial_charge
Cu0 Cu 1.01175 0.52277 0.98839 0.0
N1 N 0.01684 0.50415 0.94255 0.0
N2 N 1.00194 0.46355 0.90095 0.0
C3 C 0.99379 0.47273 0.93486 0.0
C4 C 0.03115 0.49047 0.88612 0.0
C5 C 0.04056 0.51556 0.91219 0.0
O6 O 0.96761 0.52038 0.9793 0.0
C7 C 0.04412 0.49936 0.03261 0.0
O8 O 0.06579 0.51592 1.00243 0.0
H9 H 0.97089 0.45708 0.95351 0.0
H10 H 0.06303 0.54015 0.9091 0.0
N11 N 0.04821 0.56573 0.9966 0.0
N12 N 0.08791 0.60769 0.03316 0.0
C13 C 0.05833 0.57785 0.03407 0.0
C14 C 0.07213 0.58888 0.97089 0.0
C15 C 0.09692 0.61479 0.99352 0.0
C16 C 0.96676 0.53315 0.94513 0.0
O17 O 0.99529 0.54811 0.92272 0.0
H18 H 0.04533 0.56418 0.06172 0.0
H19 H 0.07229 0.58678 0.93827 0.0
O20 O 0.01558 0.49849 0.03451 0.0
H21 H 0.0447 0.49183 0.8586 0.0
H22 H 0.1201 0.63679 0.98192 0.0
Cu23 Cu 0.52335 0.01214 0.53336 0.0
N24 N 0.55263 0.01198 0.49413 0.0
N25 N 0.57042 0.98954 0.45072 0.0
C26 C 0.54596 0.98429 0.47805 0.0
C27 C 0.59385 0.022 0.45 0.0
C28 C 0.5827 0.03584 0.47672 0.0
O29 O 0.47688 0.97699 0.51737 0.0
C30 C 0.56675 0.00889 0.59352 0.0
O31 O 0.57929 1.0 0.5648 0.0
H32 H 0.524 0.96058 0.48744 0.0
H33 H 0.59576 0.06133 0.4833 0.0
N34 N 0.52568 0.05141 0.53595 0.0
N35 N 0.52561 0.09194 0.56563 0.0
C36 C 0.51742 0.06107 0.5695 0.0
C37 C 0.5392 0.0769 0.50955 0.0
C38 C 0.53896 0.10183 0.52766 0.0
C39 C 0.46856 0.98033 0.48118 0.0
O40 O 0.48884 1.00837 0.46196 0.0
H41 H 0.506 0.04569 0.59644 0.0
H42 H 0.54952 0.07771 0.47981 0.0
O43 O 0.53811 1.00719 0.58731 0.0
H44 H 0.61731 0.03479 0.43148 0.0
H45 H 0.54905 0.1258 0.51445 0.0
Cu46 Cu 0.50825 0.50417 0.05732 0.0
N47 N 0.50456 0.46426 0.05435 0.0
N48 N 0.50246 0.42302 0.02358 0.0
C49 C 0.50304 0.45071 0.01863 0.0
C50 C 0.50281 0.41862 0.06441 0.0
C51 C 0.50426 0.44412 0.08326 0.0
O52 O 0.53258 0.52632 1.00711 0.0
C53 C 0.4492 0.48379 0.09986 0.0
O54 O 0.46625 0.47481 0.12339 0.0
H55 H 0.50372 0.46175 0.98933 0.0
H56 H 0.50528 0.44775 0.11568 0.0
N57 N 0.53462 0.53038 0.10092 0.0
N58 N 0.55659 0.57249 0.14238 0.0
C59 C 0.53827 0.55892 0.10808 0.0
C60 C 0.5514 0.52567 0.1317 0.0
C61 C 0.56507 0.5517 0.15733 0.0
C62 C 0.56441 0.53457 1.00754 0.0
O63 O 0.57815 0.53303 0.0423 0.0
H64 H 0.52683 0.56912 0.08891 0.0
H65 H 0.55338 0.50479 0.1354 0.0
O66 O 0.46201 0.49643 0.06491 0.0
H67 H 0.50177 0.39834 0.07985 0.0
H68 H 0.58029 0.55514 0.18458 0.0
Cu69 Cu 0.99163 0.50806 0.49924 0.0
N70 N 0.97931 0.48933 0.4483 0.0
N71 N 0.99015 0.47015 0.39382 0.0
C72 C 0.99018 0.47074 0.4348 0.0
C73 C 0.97731 0.48807 0.3811 0.0
C74 C 0.97052 0.49981 0.41482 0.0
O75 O 0.03993 0.54593 0.49321 0.0
C76 C 0.9483 0.45009 0.5394 0.0
O77 O 0.928 0.45053 0.51084 0.0
H78 H 1.00294 0.46204 0.45433 0.0
H79 H 0.96383 0.51778 0.41451 0.0
N80 N 0.96452 0.52444 0.51219 0.0
N81 N 0.9304 0.53451 0.54803 0.0
C82 C 0.94583 0.51769 0.54658 0.0
C83 C 0.96109 0.54656 0.4913 0.0
C84 C 0.93968 0.55256 0.51317 0.0
C85 C 0.06421 0.54606 0.47414 0.0
O86 O 0.06035 0.51825 0.46638 0.0
H87 H 0.94342 0.5006 0.56996 0.0
H88 H 0.97375 0.55795 0.46258 0.0
O89 O 0.98045 0.4736 0.54017 0.0
H90 H 0.97678 0.49529 0.34974 0.0
H91 H 0.93205 0.56931 0.50454 0.0
Cu92 Cu 0.54808 0.03024 0.05415 0.0
N93 N 0.54351 0.06577 0.05182 0.0
N94 N 0.53793 0.10436 0.02245 0.0
C95 C 0.5315 0.07427 0.01943 0.0
C96 C 0.55415 0.11501 0.05867 0.0
C97 C 0.55745 0.0911 0.07677 0.0
O98 O 0.57673 0.03558 1.00717 0.0
C99 C 0.48369 0.98986 0.09119 0.0
O100 O 0.4947 0.01748 0.10875 0.0
H101 H 0.51965 0.05927 0.99325 0.0
H102 H 0.57101 0.09294 0.10489 0.0
N103 N 0.5749 0.03242 0.09857 0.0
N104 N 0.59705 0.01303 0.14303 0.0
C105 C 0.57024 1.00589 0.11789 0.0
C106 C 0.60577 0.05747 0.11196 0.0
C107 C 0.61945 0.04556 0.13975 0.0
C108 C 0.57041 0.03684 0.96947 0.0
O109 O 0.53838 0.02673 0.95784 0.0
H110 H 0.54895 0.98145 0.11107 0.0
H111 H 0.61847 0.08223 0.10044 0.0
O112 O 0.50243 0.98949 0.06293 0.0
H113 H 0.56519 0.13917 0.06998 0.0
H114 H 0.64448 0.05954 0.155 0.0
Cu115 Cu 0.48642 0.48748 0.49854 0.0
N116 N 0.51414 0.51366 0.45501 0.0
N117 N 0.54036 0.55825 0.41516 0.0
C118 C 0.52777 0.54571 0.45251 0.0
C119 C 0.53501 0.53324 0.39312 0.0
C120 C 0.51872 0.50556 0.41795 0.0
O121 O 0.43997 0.47982 0.48835 0.0
C122 C 0.5435 0.52115 0.55057 0.0
O123 O 0.55979 0.52391 0.51659 0.0
H124 H 0.52624 0.55923 0.47684 0.0
H125 H 0.50853 0.481 0.4088 0.0
N126 N 0.48099 0.44715 0.49981 0.0
N127 N 0.47577 0.40402 0.5318 0.0
C128 C 0.49208 0.43652 0.53091 0.0
C129 C 0.45716 0.42043 0.4798 0.0
C130 C 0.45386 0.39365 0.49957 0.0
C131 C 0.43493 0.50246 0.47983 0.0
O132 O 0.46028 0.53257 0.48663 0.0
H133 H 0.50881 0.45181 0.55506 0.0
H134 H 0.44096 0.42014 0.45512 0.0
O135 O 0.51022 0.50729 0.54995 0.0
H136 H 0.53966 0.53437 0.36071 0.0
H137 H 0.4351 0.36848 0.49259 0.0
C138 C 0.33856 0.50143 0.20624 0.0
C139 C 0.33213 0.48026 0.17459 0.0
C140 C 0.31075 0.49867 0.22772 0.0
C141 C 0.27601 0.47403 0.2187 0.0
C142 C 0.29741 0.45637 0.16463 0.0
C143 C 0.26963 0.45334 0.18645 0.0
C144 C 0.24598 0.47083 0.2405 0.0
C145 C 0.31077 0.45946 0.33835 0.0
C146 C 0.32151 0.48122 0.37056 0.0
C147 C 0.28571 0.45627 0.30999 0.0
C148 C 0.27137 0.4753 0.31262 0.0
C149 C 0.30666 0.49978 0.37344 0.0
C150 C 0.28186 0.49676 0.345 0.0
C151 C 0.24414 0.47208 0.28355 0.0
C152 C 0.09517 0.43552 0.30303 0.0
C153 C 0.09945 0.46094 0.3262 0.0
C154 C 0.12441 0.43681 0.28802 0.0
C155 C 0.15831 0.46354 0.29594 0.0
C156 C 0.13342 0.48714 0.33523 0.0
C157 C 0.16268 0.4883 0.32047 0.0
C158 C 0.18893 0.46675 0.27616 0.0
C159 C 0.13522 0.49249 0.1812 0.0
C160 C 0.11558 0.46747 0.15359 0.0
C161 C 0.15962 0.49197 0.20712 0.0
C162 C 0.16505 0.46646 0.20601 0.0
C163 C 0.1204 0.44146 0.15342 0.0
C164 C 0.14524 0.4412 0.17897 0.0
C165 C 0.19108 0.46616 0.23356 0.0
H166 H 0.36516 0.52019 0.21426 0.0
H167 H 0.31646 0.51585 0.25123 0.0
H168 H 0.2918 0.43953 0.14067 0.0
H169 H 0.24306 0.43447 0.17846 0.0
H170 H 0.32203 0.44515 0.3347 0.0
H171 H 0.27749 0.43882 0.28614 0.0
H172 H 0.31407 0.51659 0.39795 0.0
H173 H 0.271 0.51146 0.34819 0.0
H174 H 0.06923 0.41518 0.29553 0.0
H175 H 0.12058 0.41732 0.26939 0.0
H176 H 0.13727 0.50689 0.35335 0.0
H177 H 0.18864 0.50909 0.32687 0.0
H178 H 0.1325 0.51304 0.18194 0.0
H179 H 0.17473 0.51181 0.22766 0.0
H180 H 0.10513 0.42135 0.13334 0.0
H181 H 0.1487 0.4211 0.17797 0.0
N182 N 0.2193 0.46789 0.21733 0.0
N183 N 0.21556 0.47005 0.29954 0.0
C184 C 0.90929 0.32699 0.79812 0.0
C185 C 0.90356 0.33991 0.83229 0.0
C186 C 0.88152 0.29896 0.78063 0.0
C187 C 0.84737 0.28403 0.79631 0.0
C188 C 0.86977 0.32412 0.84908 0.0
C189 C 0.84193 0.29636 0.8313 0.0
C190 C 0.81712 0.25607 0.77597 0.0
C191 C 0.85945 0.3425 0.69158 0.0
C192 C 0.87463 0.34083 0.65558 0.0
C193 C 0.83873 0.31479 0.71625 0.0
C194 C 0.83327 0.28474 0.70621 0.0
C195 C 0.86907 0.31075 0.64535 0.0
C196 C 0.84837 0.28293 0.67025 0.0
C197 C 0.81181 0.2555 0.73333 0.0
C198 C 0.66883 0.13177 0.71619 0.0
C199 C 0.67535 0.11579 0.68632 0.0
C200 C 0.69633 0.16053 0.73259 0.0
C201 C 0.73104 0.17337 0.72039 0.0
C202 C 0.70992 0.12981 0.67249 0.0
C203 C 0.7375 0.15825 0.68949 0.0
C204 C 0.76079 0.20173 0.74069 0.0
C205 C 0.70076 0.11906 0.83096 0.0
C206 C 0.68717 0.12693 0.86335 0.0
C207 C 0.72738 0.14362 0.80612 0.0
C208 C 0.73997 0.17649 0.81225 0.0
C209 C 0.70128 0.15979 0.87104 0.0
C210 C 0.72731 0.18429 0.84571 0.0
C211 C 0.76525 0.20294 0.78356 0.0
H212 H 0.93521 0.33863 0.78491 0.0
H213 H 0.88663 0.28931 0.75442 0.0
H214 H 0.86468 0.33385 0.87524 0.0
H215 H 0.81592 0.28516 0.84411 0.0
H216 H 0.86348 0.36531 0.70064 0.0
H217 H 0.82692 0.3169 0.74333 0.0
H218 H 0.88016 0.30862 0.61764 0.0
H219 H 0.84443 0.26007 0.66164 0.0
H220 H 0.64249 0.12187 0.7272 0.0
H221 H 0.69057 0.17228 0.75562 0.0
H222 H 0.71571 0.11897 0.64828 0.0
H223 H 0.764 0.16807 0.67908 0.0
H224 H 0.69075 0.09391 0.82488 0.0
H225 H 0.73749 0.13686 0.7815 0.0
H226 H 0.69138 0.16649 0.89598 0.0
H227 H 0.73676 0.20936 0.85152 0.0
N228 N 0.79332 0.23011 0.79941 0.0
N229 N 0.78418 0.22803 0.71723 0.0
C230 C 0.61024 0.70975 0.2369 0.0
C231 C 0.58509 0.69329 0.20638 0.0
C232 C 0.6147 0.73754 0.25384 0.0
C233 C 0.59358 0.74903 0.2413 0.0
C234 C 0.56569 0.70612 0.19181 0.0
C235 C 0.56985 0.73372 0.2092 0.0
C236 C 0.59339 0.77444 0.2646 0.0
C237 C 0.54133 0.68176 0.33384 0.0
C238 C 0.56629 0.68153 0.35923 0.0
C239 C 0.54692 0.71105 0.31879 0.0
C240 C 0.57749 0.74053 0.32904 0.0
C241 C 0.59619 0.71111 0.37088 0.0
C242 C 0.60165 0.74052 0.35605 0.0
C243 C 0.58636 0.77057 0.30686 0.0
C244 C 0.55935 0.87599 0.33374 0.0
C245 C 0.57805 0.89012 0.36972 0.0
C246 C 0.56234 0.85269 0.31432 0.0
C247 C 0.58504 0.84371 0.32952 0.0
C248 C 0.59988 0.8803 0.38569 0.0
C249 C 0.60322 0.85723 0.36587 0.0
C250 C 0.59029 0.82086 0.30691 0.0
C251 C 0.63263 0.91282 0.23821 0.0
C252 C 0.60913 0.90934 0.20748 0.0
C253 C 0.63076 0.8855 0.25512 0.0
C254 C 0.60523 0.85435 0.24168 0.0
C255 C 0.58513 0.87837 0.1923 0.0
C256 C 0.58339 0.85107 0.20907 0.0
C257 C 0.59833 0.8252 0.26478 0.0
H258 H 0.62609 0.70083 0.24808 0.0
H259 H 0.63382 0.74939 0.27786 0.0
H260 H 0.54627 0.69399 0.16814 0.0
H261 H 0.55331 0.74213 0.19895 0.0
H262 H 0.51805 0.65921 0.32457 0.0
H263 H 0.52813 0.71069 0.29774 0.0
H264 H 0.61547 0.71142 0.39098 0.0
H265 H 0.6255 0.76311 0.36396 0.0
H266 H 0.54285 0.88334 0.32004 0.0
H267 H 0.54728 0.84208 0.2869 0.0
H268 H 0.61443 0.8905 0.41353 0.0
H269 H 0.62063 0.85051 0.37844 0.0
H270 H 0.65122 0.93643 0.25051 0.0
H271 H 0.64803 0.88848 0.28012 0.0
H272 H 0.56696 0.87522 0.16833 0.0
H273 H 0.56357 0.82725 0.1983 0.0
N274 N 0.59897 0.80162 0.2449 0.0
N275 N 0.585 0.79377 0.32662 0.0
C276 C 0.84943 0.54792 0.70405 0.0
C277 C 0.83714 0.52605 0.67197 0.0
C278 C 0.82589 0.54727 0.73149 0.0
C279 C 0.78972 0.52443 0.72762 0.0
C280 C 0.80104 0.50312 0.6683 0.0
C281 C 0.77757 0.50235 0.69584 0.0
C282 C 0.7641 0.5256 0.75341 0.0
C283 C 0.82712 0.50257 0.83702 0.0
C284 C 0.84503 0.52443 0.86853 0.0
C285 C 0.80146 0.50358 0.81415 0.0
C286 C 0.79376 0.52714 0.82136 0.0
C287 C 0.83621 0.54698 0.87712 0.0
C288 C 0.81082 0.54826 0.85384 0.0
C289 C 0.76725 0.52918 0.79628 0.0
C290 C 0.63221 0.51227 0.84371 0.0
C291 C 0.64389 0.5379 0.8705 0.0
C292 C 0.656 0.51119 0.81872 0.0
C293 C 0.69179 0.53576 0.82015 0.0
C294 C 0.67945 0.56302 0.871 0.0
C295 C 0.70334 0.56182 0.84618 0.0
C296 C 0.71728 0.5334 0.79597 0.0
C297 C 0.65579 0.55524 0.70635 0.0
C298 C 0.63413 0.52932 0.68069 0.0
C299 C 0.68131 0.55497 0.7305 0.0
C300 C 0.68575 0.52884 0.7293 0.0
C301 C 0.63822 0.50297 0.68005 0.0
C302 C 0.66403 0.5029 0.70379 0.0
C303 C 0.71359 0.52881 0.75361 0.0
H304 H 0.8771 0.56627 0.707 0.0
H305 H 0.8359 0.56531 0.75484 0.0
H306 H 0.79096 0.48602 0.64381 0.0
H307 H 0.74977 0.48476 0.69194 0.0
H308 H 0.83312 0.48473 0.82995 0.0
H309 H 0.78777 0.48593 0.79068 0.0
H310 H 0.84978 0.56433 0.90095 0.0
H311 H 0.80511 0.56636 0.86062 0.0
H312 H 0.60494 0.4924 0.84348 0.0
H313 H 0.64662 0.49057 0.79936 0.0
H314 H 0.68898 0.58263 0.8921 0.0
H315 H 0.73088 0.5809 0.84778 0.0
H316 H 0.65322 0.57586 0.70734 0.0
H317 H 0.69804 0.57549 0.7495 0.0
H318 H 0.62215 0.48286 0.66019 0.0
H319 H 0.66703 0.48255 0.70225 0.0
N320 N 0.73717 0.52515 0.73402 0.0
N321 N 0.74382 0.53334 0.81573 0.0
C322 C 0.18806 0.67041 0.19605 0.0
C323 C 0.16819 0.67937 0.17298 0.0
C324 C 0.21077 0.69062 0.22649 0.0
C325 C 0.21427 0.72026 0.23366 0.0
C326 C 0.17066 0.70835 0.18149 0.0
C327 C 0.1938 0.72878 0.21126 0.0
C328 C 0.2429 0.74479 0.25928 0.0
C329 C 0.15925 0.67309 0.34857 0.0
C330 C 0.17043 0.65896 0.37768 0.0
C331 C 0.18347 0.69902 0.32313 0.0
C332 C 0.21949 0.71136 0.32599 0.0
C333 C 0.20639 0.6711 0.38024 0.0
C334 C 0.23062 0.69718 0.35502 0.0
C335 C 0.24595 0.7406 0.3016 0.0
C336 C 0.34993 0.87611 0.35101 0.0
C337 C 0.36901 0.8714 0.3814 0.0
C338 C 0.32778 0.85119 0.32478 0.0
C339 C 0.32417 0.82096 0.32825 0.0
C340 C 0.36548 0.84113 0.38474 0.0
C341 C 0.34292 0.81602 0.35873 0.0
C342 C 0.29857 0.79383 0.30253 0.0
C343 C 0.38411 0.86445 0.21443 0.0
C344 C 0.37341 0.87712 0.18276 0.0
C345 C 0.35936 0.83907 0.24016 0.0
C346 C 0.32328 0.82574 0.23476 0.0
C347 C 0.33736 0.8635 0.17709 0.0
C348 C 0.31265 0.83807 0.20261 0.0
C349 C 0.29632 0.79724 0.25983 0.0
H350 H 0.18659 0.64818 0.18983 0.0
H351 H 0.22685 0.68393 0.24294 0.0
H352 H 0.15586 0.71589 0.1638 0.0
H353 H 0.19655 0.75179 0.21597 0.0
H354 H 0.1317 0.66406 0.34544 0.0
H355 H 0.17403 0.70993 0.302 0.0
H356 H 0.21586 0.6608 0.40236 0.0
H357 H 0.25822 0.70638 0.35829 0.0
H358 H 0.35177 0.89899 0.34786 0.0
H359 H 0.31282 0.85534 0.30234 0.0
H360 H 0.38041 0.83693 0.40713 0.0
H361 H 0.3403 0.7928 0.3622 0.0
H362 H 0.4117 0.8744 0.21954 0.0
H363 H 0.36845 0.82948 0.26374 0.0
H364 H 0.32821 0.87233 0.15259 0.0
H365 H 0.28508 0.828 0.19719 0.0
N366 N 0.26825 0.77269 0.24021 0.0
N367 N 0.27367 0.7655 0.32153 0.0
C368 C 0.50454 0.16713 0.86092 0.0
C369 C 0.52921 0.18145 0.89239 0.0
C370 C 0.50156 0.18655 0.83124 0.0
C371 C 0.52382 0.22058 0.83207 0.0
C372 C 0.55208 0.21531 0.89257 0.0
C373 C 0.54942 0.23467 0.86269 0.0
C374 C 0.51737 0.24182 0.80568 0.0
C375 C 0.54025 0.18849 0.71368 0.0
C376 C 0.51401 0.17119 0.68436 0.0
C377 C 0.53796 0.20892 0.74055 0.0
C378 C 0.50925 0.21238 0.73888 0.0
C379 C 0.48536 0.17468 0.68278 0.0
C380 C 0.48306 0.19505 0.7096 0.0
C381 C 0.50794 0.23644 0.76408 0.0
C382 C 0.50569 0.35107 0.70509 0.0
C383 C 0.48003 0.33479 0.67485 0.0
C384 C 0.51037 0.33357 0.73616 0.0
C385 C 0.48919 0.29948 0.73774 0.0
C386 C 0.45807 0.3008 0.67755 0.0
C387 C 0.46247 0.28343 0.70872 0.0
C388 C 0.49843 0.27996 0.76358 0.0
C389 C 0.47772 0.32952 0.86675 0.0
C390 C 0.50765 0.3499 0.89041 0.0
C391 C 0.47857 0.31025 0.83661 0.0
C392 C 0.50934 0.31094 0.82961 0.0
C393 C 0.53892 0.35198 0.88131 0.0
C394 C 0.53958 0.33239 0.8518 0.0
C395 C 0.50902 0.28602 0.80475 0.0
H396 H 0.48654 0.14101 0.86039 0.0
H397 H 0.48075 0.17497 0.80897 0.0
H398 H 0.57156 0.22682 0.91633 0.0
H399 H 0.56673 0.26083 0.86427 0.0
H400 H 0.56313 0.18703 0.71505 0.0
H401 H 0.55924 0.22281 0.76166 0.0
H402 H 0.46469 0.16169 0.66064 0.0
H403 H 0.46083 0.19748 0.70719 0.0
H404 H 0.523 0.37728 0.70383 0.0
H405 H 0.5319 0.34665 0.75722 0.0
H406 H 0.43867 0.28738 0.6543 0.0
H407 H 0.44607 0.25714 0.70886 0.0
H408 H 0.45322 0.32737 0.87277 0.0
H409 H 0.45472 0.29355 0.8204 0.0
H410 H 0.56284 0.36827 0.89765 0.0
H411 H 0.56363 0.33336 0.84702 0.0
N412 N 0.51784 0.26655 0.82395 0.0
N413 N 0.49861 0.25562 0.74511 0.0
C414 C 0.05208 0.48752 0.10569 0.0
C415 C 0.05534 0.48442 0.06389 0.0
C416 C 0.07036 0.48057 0.13484 0.0
C417 C 0.09231 0.47007 0.12321 0.0
H418 H 0.03715 0.49728 0.11574 0.0
H419 H 0.06821 0.48448 0.16663 0.0
S420 S 0.10686 0.45539 0.0174 0.0
N421 N 0.07965 0.46763 0.01252 0.0
N422 N 0.11438 0.45533 0.06671 0.0
C423 C 0.09402 0.46516 0.08157 0.0
C424 C 0.07547 0.47216 0.05211 0.0
C425 C 0.58833 0.0577 0.63543 0.0
C426 C 0.59145 0.03204 0.62395 0.0
C427 C 0.615 0.08404 0.65674 0.0
C428 C 0.64588 0.08572 0.6679 0.0
H429 H 0.5661 0.05854 0.62557 0.0
H430 H 0.61206 0.104 0.66266 0.0
S431 S 0.66452 0.02215 0.65118 0.0
N432 N 0.62625 1.00827 0.62895 0.0
N433 N 0.67606 0.05729 0.67049 0.0
C434 C 0.64835 0.05914 0.65912 0.0
C435 C 0.62124 0.03243 0.63688 0.0
C436 C 0.5723 0.6291 0.13308 0.0
C437 C 0.56461 0.60267 0.15914 0.0
C438 C 0.57902 0.65832 0.1485 0.0
C439 C 0.5784 0.66231 0.19063 0.0
H440 H 0.57332 0.6272 0.10045 0.0
H441 H 0.58497 0.67803 0.12732 0.0
S442 S 0.5561 0.59958 0.27156 0.0
N443 N 0.55448 0.5818 0.229 0.0
N444 N 0.56733 0.6367 0.25801 0.0
C445 C 0.57036 0.636 0.21702 0.0
C446 C 0.56345 0.60622 0.2013 0.0
C447 C 0.87805 0.53329 0.56927 0.0
C448 C 0.90786 0.53283 0.57959 0.0
C449 C 0.85521 0.53082 0.59936 0.0
C450 C 0.8616 0.52822 0.6409 0.0
H451 H 0.87206 0.53504 0.53764 0.0
H452 H 0.83252 0.53126 0.59007 0.0
S453 S 0.93643 0.52668 0.68407 0.0
N454 N 0.94297 0.53024 0.63435 0.0
N455 N 0.89982 0.52538 0.6909 0.0
C456 C 0.89144 0.528 0.6517 0.0
C457 C 0.91459 0.53029 0.62105 0.0
C458 C 0.45271 0.93095 0.11359 0.0
C459 C 0.45291 0.95965 0.10909 0.0
C460 C 0.42678 0.90421 0.13706 0.0
C461 C 0.39978 0.90497 0.15632 0.0
H462 H 0.4736 0.92969 0.10052 0.0
H463 H 0.42809 0.8829 0.14055 0.0
S464 S 0.38764 0.97379 0.15233 0.0
N465 N 0.42306 0.98667 0.1247 0.0
N466 N 0.37452 0.93663 0.16822 0.0
C467 C 0.3991 0.93311 0.15081 0.0
C468 C 0.42559 0.96035 0.12739 0.0
C469 C 0.50805 0.39252 0.58275 0.0
C470 C 0.47602 0.38518 0.56599 0.0
C471 C 0.50912 0.37642 0.61819 0.0
C472 C 0.47815 0.35275 0.6386 0.0
H473 H 0.53242 0.41086 0.56818 0.0
H474 H 0.5344 0.3823 0.62936 0.0
S475 S 0.38776 0.3276 0.60935 0.0
N476 N 0.41281 0.35436 0.57354 0.0
N477 N 0.41463 0.3246 0.64077 0.0
C478 C 0.44595 0.34579 0.62255 0.0
C479 C 0.44492 0.36188 0.58613 0.0
C480 C 0.60415 0.96853 0.42224 0.0
C481 C 0.57188 0.96516 0.42896 0.0
C482 C 0.60586 0.94416 0.40331 0.0
C483 C 0.57538 0.91549 0.39008 0.0
H484 H 0.62824 0.98988 0.43244 0.0
H485 H 0.63135 0.94792 0.39876 0.0
S486 S 0.4843 0.89538 0.39912 0.0
N487 N 0.50878 0.93152 0.4192 0.0
N488 N 0.5118 0.88537 0.38505 0.0
C489 C 0.54292 0.91203 0.39622 0.0
C490 C 0.54122 0.93688 0.41533 0.0
C491 C 0.5914 0.55736 0.93876 0.0
C492 C 0.5811 0.53376 0.97012 0.0
C493 C 0.6113 0.55845 0.90567 0.0
C494 C 0.62042 0.53542 0.90279 0.0
H495 H 0.5853 0.57573 0.94068 0.0
H496 H 0.62003 0.57756 0.88259 0.0
S497 S 0.59858 0.46827 0.97632 0.0
N498 N 0.58116 0.48686 0.99596 0.0
N499 N 0.61704 0.48814 0.93321 0.0
C500 C 0.60916 0.51116 0.93324 0.0
C501 C 0.58983 0.51052 0.9671 0.0
C502 C 0.11952 0.57598 0.43231 0.0
C503 C 0.09335 0.57657 0.45396 0.0
C504 C 0.1447 0.60285 0.40861 0.0
C505 C 0.14467 0.63146 0.40505 0.0
H506 H 0.12015 0.55425 0.4328 0.0
H507 H 0.16371 0.60083 0.39189 0.0
S508 S 0.0839 0.64697 0.45773 0.0
N509 N 0.07056 0.6094 0.47187 0.0
N510 N 0.11774 0.65962 0.42732 0.0
C511 C 0.11945 0.63286 0.42745 0.0
C512 C 0.09394 0.60559 0.45191 0.0
C513 C 0.53805 0.11797 0.94929 0.0
C514 C 0.53419 0.12301 0.99038 0.0
C515 C 0.53591 0.13664 0.91767 0.0
C516 C 0.53025 0.16126 0.92601 0.0
H517 H 0.5436 0.09998 0.94145 0.0
H518 H 0.53947 0.13227 0.88655 0.0
S519 S 0.51536 0.18247 0.02757 0.0
N520 N 0.52196 0.15301 0.03714 0.0
N521 N 0.51878 0.18862 0.97767 0.0
C522 C 0.52573 0.16624 0.96671 0.0
C523 C 0.52755 0.14703 0.9989 0.0
C524 C 0.40307 0.52203 0.43778 0.0
C525 C 0.40377 0.49586 0.45542 0.0
C526 C 0.37632 0.51699 0.41092 0.0
C527 C 0.3489 0.48554 0.4004 0.0
H528 H 0.42392 0.54684 0.44376 0.0
H529 H 0.37769 0.53806 0.39744 0.0
S530 S 0.33642 0.40847 0.44077 0.0
N531 N 0.37327 0.43705 0.46198 0.0
N532 N 0.32279 0.42767 0.41208 0.0
C533 C 0.3486 0.45907 0.41872 0.0
C534 C 0.37596 0.46419 0.44609 0.0
C535 C 0.97474 0.42916 0.84118 0.0
C536 C 0.98145 0.43205 0.88328 0.0
C537 C 0.95051 0.39891 0.82451 0.0
C538 C 0.93228 0.37069 0.84946 0.0
H539 H 0.98696 0.45061 0.82141 0.0
H540 H 0.94483 0.39783 0.79222 0.0
S541 S 0.94493 0.3646 0.9603 0.0
N542 N 0.97133 0.40363 0.94859 0.0
N543 N 0.92549 0.34691 0.91733 0.0
C544 C 0.94034 0.373 0.89113 0.0
C545 C 0.96504 0.40367 0.90801 0.0
C546 C 0.93119 0.53053 0.88502 0.0
C547 C 0.93426 0.52927 0.92773 0.0
C548 C 0.90206 0.52836 0.86651 0.0
C549 C 0.87477 0.52532 0.8898 0.0
H550 H 0.95156 0.53321 0.86542 0.0
H551 H 0.90124 0.52974 0.83356 0.0
S552 S 0.86923 0.52013 1.00267 0.0
N553 N 0.9068 0.5239 0.99286 0.0
N554 N 0.85214 0.52043 0.95799 0.0
C555 C 0.87719 0.52379 0.93256 0.0
C556 C 0.90679 0.52549 0.95152 0.0
C557 C 0.43876 0.95607 0.41544 0.0
C558 C 0.44111 0.95219 0.45782 0.0
C559 C 0.41551 0.92989 0.39132 0.0
C560 C 0.39327 0.89856 0.40839 0.0
H561 H 0.45558 0.97947 0.40031 0.0
H562 H 0.41543 0.93419 0.35877 0.0
S563 S 0.38728 0.8754 0.51808 0.0
N564 N 0.41824 0.91452 0.51609 0.0
N565 N 0.37377 0.86532 0.47073 0.0
C566 C 0.39475 0.89428 0.45083 0.0
C567 C 0.41874 0.92105 0.47552 0.0
C568 C 0.48769 0.40232 0.95321 0.0
C569 C 0.50307 0.40371 0.99138 0.0
C570 C 0.48903 0.38482 0.92097 0.0
C571 C 0.50602 0.36803 0.92531 0.0
H572 H 0.4743 0.41479 0.94816 0.0
H573 H 0.47707 0.38484 0.8922 0.0
S574 S 0.55034 0.36355 0.01895 0.0
N575 N 0.53627 0.38686 0.03121 0.0
N576 N 0.53765 0.35312 0.9715 0.0
C577 C 0.52121 0.36892 0.96345 0.0
C578 C 0.51995 0.38685 0.99622 0.0
C579 C 0.03904 0.4896 0.34595 0.0
C580 C 0.01311 0.46464 0.37125 0.0
C581 C 0.06643 0.4878 0.33071 0.0
C582 C 0.06867 0.46086 0.33995 0.0
H583 H 0.03933 0.51152 0.33984 0.0
H584 H 0.08648 0.50797 0.31235 0.0
S585 S 1.00616 0.38831 0.40272 0.0
N586 N 0.99039 0.41165 0.40324 0.0
N587 N 0.04186 0.40804 0.3743 0.0
C588 C 0.04207 0.43508 0.36362 0.0
C589 C 0.01432 0.43706 0.37939 0.0
C590 C 0.63434 0.07778 0.95661 0.0
C591 C 0.60049 0.05627 0.94084 0.0
C592 C 0.66236 0.09997 0.93127 0.0
C593 C 0.65796 0.10119 0.88897 0.0
H594 H 0.63908 0.07855 0.98911 0.0
H595 H 0.68756 0.11673 0.94497 0.0
S596 S 0.57575 0.04926 0.83152 0.0
N597 N 0.56486 0.03704 0.87948 0.0
N598 N 0.61782 0.07835 0.83196 0.0
C599 C 0.62482 0.07906 0.87242 0.0
C600 C 0.59605 0.05674 0.89829 0.0
C601 C 0.52287 0.59725 0.40671 0.0
C602 C 0.54736 0.58889 0.39995 0.0
C603 C 0.5293 0.62732 0.39346 0.0
C604 C 0.56069 0.65025 0.37351 0.0
H605 H 0.49844 0.58023 0.42216 0.0
H606 H 0.5097 0.6328 0.39916 0.0
S607 S 0.63283 0.6397 0.34779 0.0
N608 N 0.60366 0.60529 0.3715 0.0
N609 N 0.61623 0.6624 0.34679 0.0
C610 C 0.58542 0.64219 0.3665 0.0
C611 C 0.57857 0.61127 0.37956 0.0
C612 C 0.51445 0.13412 0.58398 0.0
C613 C 0.52238 0.11104 0.59593 0.0
C614 C 0.51154 0.15319 0.61267 0.0
C615 C 0.51687 0.15033 0.65457 0.0
H616 H 0.51013 0.13727 0.55215 0.0
H617 H 0.5055 0.17066 0.60185 0.0
S618 S 0.53866 0.09397 0.70214 0.0
N619 N 0.53592 0.08688 0.65299 0.0
N620 N 0.53019 0.12241 0.70661 0.0
C621 C 0.52489 0.12745 0.66699 0.0
C622 C 0.52761 0.10786 0.63783 0.0
C623 C 0.41403 0.47984 0.15956 0.0
C624 C 0.41869 0.48283 0.11696 0.0
C625 C 0.38628 0.4795 0.17769 0.0
C626 C 0.36169 0.4817 0.15403 0.0
H627 H 0.43221 0.47809 0.1794 0.0
H628 H 0.38378 0.47706 0.21057 0.0
S629 S 0.36169 0.4901 0.04143 0.0
N630 N 0.39634 0.4884 0.05158 0.0
N631 N 0.34359 0.48721 0.08588 0.0
C632 C 0.36575 0.48459 0.11143 0.0
C633 C 0.39443 0.48537 0.09285 0.0
C634 C 0.94643 0.40705 0.5857 0.0
C635 C 0.93179 0.42462 0.57221 0.0
C636 C 0.92797 0.38001 0.61277 0.0
C637 C 0.89457 0.37003 0.62784 0.0
H638 H 0.97163 0.41346 0.57413 0.0
H639 H 0.93983 0.36673 0.62187 0.0
S640 S 0.84587 0.40926 0.60328 0.0
N641 N 0.88266 0.43097 0.57718 0.0
N642 N 0.8483 0.38065 0.62764 0.0
C643 C 0.88031 0.38813 0.61534 0.0
C644 C 0.89882 0.41526 0.58767 0.0
C645 C 0.57284 0.96074 0.17967 0.0
C646 C 0.60201 0.98941 0.16322 0.0
C647 C 0.57559 0.93522 0.19441 0.0
C648 C 0.60766 0.93742 0.1933 0.0
H649 H 0.5475 0.95783 0.18039 0.0
H650 H 0.55235 0.91344 0.20646 0.0
S651 S 0.69191 1.00706 0.15336 0.0
N652 N 0.66406 0.01848 0.14674 0.0
N653 N 0.66928 0.97047 0.17509 0.0
C654 C 0.63729 0.96622 0.17804 0.0
C655 C 0.63447 0.99226 0.16285 0.0
C656 C 0.55109 0.50355 0.62023 0.0
C657 C 0.56345 0.52759 0.58902 0.0
C658 C 0.57372 0.50487 0.65098 0.0
C659 C 0.6092 0.53064 0.65209 0.0
H660 H 0.52454 0.48243 0.61926 0.0
H661 H 0.56376 0.485 0.67318 0.0
S662 S 0.65329 0.60116 0.57973 0.0
N663 N 0.61267 0.5789 0.56275 0.0
N664 N 0.65479 0.58182 0.62095 0.0
C665 C 0.62111 0.55588 0.62269 0.0
C666 C 0.59832 0.55424 0.59109 0.0
C667 C 0.14383 0.63918 0.07034 0.0
C668 C 0.10764 0.62599 0.06793 0.0
C669 C 0.16308 0.65565 0.10501 0.0
C670 C 0.14685 0.65995 0.13805 0.0
H671 H 0.15715 0.63624 0.04554 0.0
H672 H 0.19095 0.66557 0.10572 0.0
S673 S 0.05294 0.63057 0.14627 0.0
N674 N 0.0564 0.61839 0.10131 0.0
N675 N 0.09271 0.64993 0.16612 0.0
C676 C 0.11078 0.6471 0.13585 0.0
C677 C 0.09112 0.62992 0.10089 0.0
loop_
_geom_bond_atom_site_label_1
_geom_bond_atom_site_label_2
_geom_bond_distance
_geom_bond_site_symmetry_2
_ccdc_geom_bond_type
Cu0 N1 1.999 1_554 S
Cu0 O6 1.977 1_554 S
Cu0 N11 1.985 1_655 S
Cu0 O20 1.955 1_655 S
N1 Cu0 1.999 1_556 S
N1 C3 1.263 . S
N1 C5 1.389 1_556 S
N2 C3 1.358 . S
N2 C4 1.400 . S
C3 N1 1.263 . S
C3 N2 1.358 . S
C3 H9 0.930 . S
C4 N2 1.400 . S
C4 C5 1.351 1_556 S
C4 H21 0.930 . S
C5 N1 1.389 1_554 S
C5 C4 1.351 1_554 S
C5 H10 0.930 . S
O6 Cu0 1.977 1_556 S
O6 C16 1.282 . S
C7 O8 1.261 1_554 S
C7 O20 1.251 . S
O8 C7 1.261 1_556 S
H9 C3 0.930 . S
H10 C5 0.930 . S
N11 Cu0 1.985 1_455 S
N11 C13 1.335 . S
N11 C14 1.390 . S
N12 C13 1.345 . S
N12 C15 1.336 . S
C13 N11 1.335 . S
C13 N12 1.345 . S
C13 H18 0.930 . S
C14 N11 1.390 . S
C14 C15 1.346 . S
C14 H19 0.930 1_554 S
C15 N12 1.336 . S
C15 C14 1.346 . S
C15 H22 0.929 . S
C16 O6 1.282 . S
C16 O17 1.216 1_655 S
O17 C16 1.216 1_455 S
H18 C13 0.930 . S
H19 C14 0.930 1_556 S
O20 Cu0 1.955 1_455 S
O20 C7 1.251 . S
H21 C4 0.930 . S
H22 C15 0.929 . S
Cu23 N24 1.999 . S
Cu23 O29 1.974 . S
Cu23 N34 1.985 1_565 S
Cu23 O43 1.959 1_565 S
N24 Cu23 1.999 . S
N24 C26 1.263 . S
N24 C28 1.389 . S
N25 C26 1.358 . S
N25 C27 1.400 . S
C26 N24 1.263 . S
C26 N25 1.358 . S
C26 H32 0.930 . S
C27 N25 1.400 . S
C27 C28 1.351 . S
C27 H44 0.930 . S
C28 N24 1.389 . S
C28 C27 1.351 . S
C28 H33 0.930 . S
O29 Cu23 1.974 . S
O29 C39 1.282 . S
C30 O31 1.261 . S
C30 O43 1.251 . S
O31 C30 1.261 . S
H32 C26 0.930 . S
H33 C28 0.930 . S
N34 Cu23 1.985 1_545 S
N34 C36 1.335 . S
N34 C37 1.390 . S
N35 C36 1.345 . S
N35 C38 1.336 . S
C36 N34 1.335 . S
C36 N35 1.345 . S
C36 H41 0.930 . S
C37 N34 1.390 . S
C37 C38 1.346 . S
C37 H42 0.930 . S
C38 N35 1.336 . S
C38 C37 1.346 . S
C38 H45 0.929 . S
C39 O29 1.282 . S
C39 O40 1.216 . S
O40 C39 1.216 . S
H41 C36 0.930 . S
H42 C37 0.930 . S
O43 Cu23 1.959 1_545 S
O43 C30 1.251 . S
H44 C27 0.930 . S
H45 C38 0.929 . S
Cu46 N47 1.999 1_554 S
Cu46 O52 1.974 1_554 S
Cu46 N57 1.985 . S
Cu46 O66 1.959 . S
N47 Cu46 1.999 1_556 S
N47 C49 1.263 . S
N47 C51 1.389 . S
N48 C49 1.358 . S
N48 C50 1.400 . S
C49 N47 1.263 . S
C49 N48 1.358 . S
C49 H55 0.930 . S
C50 N48 1.400 . S
C50 C51 1.351 . S
C50 H67 0.930 . S
C51 N47 1.389 . S
C51 C50 1.351 . S
C51 H56 0.930 . S
O52 Cu46 1.974 1_556 S
O52 C62 1.282 . S
C53 O54 1.261 . S
C53 O66 1.251 . S
O54 C53 1.261 . S
H55 C49 0.930 . S
H56 C51 0.930 . S
N57 Cu46 1.985 . S
N57 C59 1.335 . S
N57 C60 1.390 . S
N58 C59 1.345 . S
N58 C61 1.336 . S
C59 N57 1.335 . S
C59 N58 1.345 . S
C59 H64 0.930 . S
C60 N57 1.390 . S
C60 C61 1.346 . S
C60 H65 0.930 . S
C61 N58 1.336 . S
C61 C60 1.346 . S
C61 H68 0.929 . S
C62 O52 1.282 . S
C62 O63 1.216 1_556 S
O63 C62 1.216 1_554 S
H64 C59 0.930 . S
H65 C60 0.930 . S
O66 Cu46 1.959 . S
O66 C53 1.251 . S
H67 C50 0.930 . S
H68 C61 0.929 . S
Cu69 N70 1.999 1_655 S
Cu69 O75 1.974 1_655 S
Cu69 N80 1.985 . S
Cu69 O89 1.959 . S
N70 Cu69 1.999 1_455 S
N70 C72 1.263 . S
N70 C74 1.389 1_455 S
N71 C72 1.358 . S
N71 C73 1.400 . S
C72 N70 1.263 . S
C72 N71 1.358 . S
C72 H78 0.930 . S
C73 N71 1.400 . S
C73 C74 1.351 1_455 S
C73 H90 0.930 . S
C74 N70 1.389 1_655 S
C74 C73 1.351 1_655 S
C74 H79 0.930 . S
O75 Cu69 1.974 1_455 S
O75 C85 1.282 . S
C76 O77 1.258 1_655 S
C76 O89 1.251 . S
O77 C76 1.258 1_455 S
H78 C72 0.930 . S
H79 C74 0.930 . S
N80 Cu69 1.985 . S
N80 C82 1.335 . S
N80 C83 1.390 . S
N81 C82 1.345 . S
N81 C84 1.336 . S
C82 N80 1.335 . S
C82 N81 1.345 . S
C82 H87 0.930 . S
C83 N80 1.390 . S
C83 C84 1.346 . S
C83 H88 0.930 1_655 S
C84 N81 1.336 . S
C84 C83 1.346 . S
C84 H91 0.929 . S
C85 O75 1.282 . S
C85 O86 1.216 . S
O86 C85 1.216 . S
H87 C82 0.930 . S
H88 C83 0.930 1_455 S
O89 Cu69 1.959 . S
O89 C76 1.251 . S
H90 C73 0.930 . S
H91 C84 0.929 . S
Cu92 N93 1.999 . S
Cu92 O98 1.974 1_554 S
Cu92 N103 1.985 1_545 S
Cu92 O112 1.959 1_545 S
N93 Cu92 1.999 . S
N93 C95 1.263 1_554 S
N93 C97 1.389 . S
N94 C95 1.358 . S
N94 C96 1.400 1_556 S
C95 N93 1.263 1_556 S
C95 N94 1.358 . S
C95 H101 0.930 . S
C96 N94 1.400 1_554 S
C96 C97 1.351 . S
C96 H113 0.930 . S
C97 N93 1.389 . S
C97 C96 1.351 . S
C97 H102 0.930 . S
O98 Cu92 1.974 1_556 S
O98 C108 1.282 . S
C99 O100 1.261 . S
C99 O112 1.251 . S
O100 C99 1.261 . S
H101 C95 0.930 . S
H102 C97 0.930 . S
N103 Cu92 1.985 1_565 S
N103 C105 1.335 . S
N103 C106 1.390 . S
N104 C105 1.345 . S
N104 C107 1.336 . S
C105 N103 1.335 . S
C105 N104 1.345 . S
C105 H110 0.930 . S
C106 N103 1.390 . S
C106 C107 1.346 . S
C106 H111 0.929 . S
C107 N104 1.336 . S
C107 C106 1.346 . S
C107 H114 0.929 . S
C108 O98 1.282 . S
C108 O109 1.216 . S
O109 C108 1.216 . S
H110 C105 0.930 . S
H111 C106 0.929 . S
O112 Cu92 1.959 1_565 S
O112 C99 1.251 . S
H113 C96 0.930 . S
H114 C107 0.929 . S
Cu115 N116 1.999 . S
Cu115 O121 1.974 . S
Cu115 N126 1.985 . S
Cu115 O135 1.959 . S
N116 Cu115 1.999 . S
N116 C118 1.263 . S
N116 C120 1.389 . S
N117 C118 1.358 . S
N117 C119 1.400 . S
C118 N116 1.263 . S
C118 N117 1.358 . S
C118 H124 0.930 . S
C119 N117 1.400 . S
C119 C120 1.351 . S
C119 H136 0.930 . S
C120 N116 1.389 . S
C120 C119 1.351 . S
C120 H125 0.930 . S
O121 Cu115 1.974 . S
O121 C131 1.282 . S
C122 O123 1.261 . S
C122 O135 1.251 . S
O123 C122 1.261 . S
H124 C118 0.930 . S
H125 C120 0.930 . S
N126 Cu115 1.985 . S
N126 C128 1.335 . S
N126 C129 1.390 . S
N127 C128 1.345 . S
N127 C130 1.336 . S
C128 N126 1.335 . S
C128 N127 1.345 . S
C128 H133 0.930 . S
C129 N126 1.390 . S
C129 C130 1.346 . S
C129 H134 0.930 . S
C130 N127 1.336 . S
C130 C129 1.346 . S
C130 H137 0.929 . S
C131 O121 1.282 . S
C131 O132 1.216 . S
O132 C131 1.216 . S
H133 C128 0.930 . S
H134 C129 0.930 . S
O135 Cu115 1.959 . S
O135 C122 1.251 . S
H136 C119 0.930 . S
H137 C130 0.929 . S
C138 C139 1.384 . S
C138 C140 1.384 . S
C138 H166 0.931 . S
C139 C138 1.384 . S
C139 C142 1.382 . S
C140 C138 1.384 . S
C140 C141 1.381 . S
C140 H167 0.930 . S
C141 C140 1.381 . S
C141 C143 1.381 . S
C141 C144 1.487 . S
C142 C139 1.382 . S
C142 C143 1.387 . S
C142 H168 0.930 . S
C143 C141 1.381 . S
C143 C142 1.387 . S
C143 H169 0.931 . S
C144 C141 1.487 . S
C144 C151 1.399 . S
C144 N182 1.343 . S
C145 C146 1.384 . S
C145 C147 1.384 . S
C145 H170 0.931 . S
C146 C145 1.384 . S
C146 C149 1.382 . S
C147 C145 1.384 . S
C147 C148 1.381 . S
C147 H171 0.930 . S
C148 C147 1.381 . S
C148 C150 1.381 . S
C148 C151 1.487 . S
C149 C146 1.382 . S
C149 C150 1.387 . S
C149 H172 0.930 . S
C150 C148 1.381 . S
C150 C149 1.387 . S
C150 H173 0.931 . S
C151 C144 1.399 . S
C151 C148 1.487 . S
C151 N183 1.343 . S
C152 C153 1.384 . S
C152 C154 1.384 . S
C152 H174 0.931 . S
C153 C152 1.384 . S
C153 C156 1.382 . S
C154 C152 1.384 . S
C154 C155 1.381 . S
C154 H175 0.930 . S
C155 C154 1.381 . S
C155 C157 1.381 . S
C155 C158 1.487 . S
C156 C153 1.382 . S
C156 C157 1.387 . S
C156 H176 0.930 . S
C157 C155 1.381 . S
C157 C156 1.387 . S
C157 H177 0.931 . S
C158 C155 1.487 . S
C158 C165 1.399 . S
C158 N183 1.343 . S
C159 C160 1.384 . S
C159 C161 1.384 . S
C159 H178 0.931 . S
C160 C159 1.384 . S
C160 C163 1.382 . S
C161 C159 1.384 . S
C161 C162 1.381 . S
C161 H179 0.930 . S
C162 C161 1.381 . S
C162 C164 1.381 . S
C162 C165 1.487 . S
C163 C160 1.382 . S
C163 C164 1.387 . S
C163 H180 0.930 . S
C164 C162 1.381 . S
C164 C163 1.387 . S
C164 H181 0.931 . S
C165 C158 1.399 . S
C165 C162 1.487 . S
C165 N182 1.343 . S
H166 C138 0.931 . S
H167 C140 0.930 . S
H168 C142 0.930 . S
H169 C143 0.931 . S
H170 C145 0.931 . S
H171 C147 0.930 . S
H172 C149 0.930 . S
H173 C150 0.931 . S
H174 C152 0.931 . S
H175 C154 0.930 . S
H176 C156 0.930 . S
H177 C157 0.931 . S
H178 C159 0.931 . S
H179 C161 0.930 . S
H180 C163 0.930 . S
H181 C164 0.931 . S
N182 C144 1.343 . S
N182 C165 1.343 . S
N183 C151 1.343 . S
N183 C158 1.343 . S
C184 C185 1.384 . S
C184 C186 1.384 . S
C184 H212 0.931 . S
C185 C184 1.384 . S
C185 C188 1.382 . S
C186 C184 1.384 . S
C186 C187 1.381 . S
C186 H213 0.930 . S
C187 C186 1.381 . S
C187 C189 1.381 . S
C187 C190 1.487 . S
C188 C185 1.382 . S
C188 C189 1.387 . S
C188 H214 0.930 . S
C189 C187 1.381 . S
C189 C188 1.387 . S
C189 H215 0.931 . S
C190 C187 1.487 . S
C190 C197 1.399 . S
C190 N228 1.343 . S
C191 C192 1.384 . S
C191 C193 1.384 . S
C191 H216 0.931 . S
C192 C191 1.384 . S
C192 C195 1.382 . S
C193 C191 1.384 . S
C193 C194 1.381 . S
C193 H217 0.930 . S
C194 C193 1.381 . S
C194 C196 1.381 . S
C194 C197 1.487 . S
C195 C192 1.382 . S
C195 C196 1.387 . S
C195 H218 0.930 . S
C196 C194 1.381 . S
C196 C195 1.387 . S
C196 H219 0.931 . S
C197 C190 1.399 . S
C197 C194 1.487 . S
C197 N229 1.343 . S
C198 C199 1.384 . S
C198 C200 1.384 . S
C198 H220 0.931 . S
C199 C198 1.384 . S
C199 C202 1.382 . S
C200 C198 1.384 . S
C200 C201 1.381 . S
C200 H221 0.930 . S
C201 C200 1.381 . S
C201 C203 1.381 . S
C201 C204 1.487 . S
C202 C199 1.382 . S
C202 C203 1.387 . S
C202 H222 0.930 . S
C203 C201 1.381 . S
C203 C202 1.387 . S
C203 H223 0.931 . S
C204 C201 1.487 . S
C204 C211 1.399 . S
C204 N229 1.343 . S
C205 C206 1.384 . S
C205 C207 1.384 . S
C205 H224 0.931 . S
C206 C205 1.384 . S
C206 C209 1.382 . S
C207 C205 1.384 . S
C207 C208 1.381 . S
C207 H225 0.930 . S
C208 C207 1.381 . S
C208 C210 1.381 . S
C208 C211 1.487 . S
C209 C206 1.382 . S
C209 C210 1.387 . S
C209 H226 0.930 . S
C210 C208 1.381 . S
C210 C209 1.387 . S
C210 H227 0.931 . S
C211 C204 1.399 . S
C211 C208 1.487 . S
C211 N228 1.343 . S
H212 C184 0.931 . S
H213 C186 0.930 . S
H214 C188 0.930 . S
H215 C189 0.931 . S
H216 C191 0.931 . S
H217 C193 0.930 . S
H218 C195 0.930 . S
H219 C196 0.931 . S
H220 C198 0.931 . S
H221 C200 0.930 . S
H222 C202 0.930 . S
H223 C203 0.931 . S
H224 C205 0.931 . S
H225 C207 0.930 . S
H226 C209 0.930 . S
H227 C210 0.931 . S
N228 C190 1.343 . S
N228 C211 1.343 . S
N229 C197 1.343 . S
N229 C204 1.343 . S
C230 C231 1.384 . S
C230 C232 1.384 . S
C230 H258 0.931 . S
C231 C230 1.384 . S
C231 C234 1.382 . S
C232 C230 1.384 . S
C232 C233 1.381 . S
C232 H259 0.930 . S
C233 C232 1.381 . S
C233 C235 1.381 . S
C233 C236 1.487 . S
C234 C231 1.382 . S
C234 C235 1.387 . S
C234 H260 0.930 . S
C235 C233 1.381 . S
C235 C234 1.387 . S
C235 H261 0.931 . S
C236 C233 1.487 . S
C236 C243 1.399 . S
C236 N274 1.343 . S
C237 C238 1.384 . S
C237 C239 1.384 . S
C237 H262 0.931 . S
C238 C237 1.384 . S
C238 C241 1.382 . S
C239 C237 1.384 . S
C239 C240 1.381 . S
C239 H263 0.930 . S
C240 C239 1.381 . S
C240 C242 1.381 . S
C240 C243 1.487 . S
C241 C238 1.382 . S
C241 C242 1.387 . S
C241 H264 0.930 . S
C242 C240 1.381 . S
C242 C241 1.387 . S
C242 H265 0.931 . S
C243 C236 1.399 . S
C243 C240 1.487 . S
C243 N275 1.343 . S
C244 C245 1.384 . S
C244 C246 1.384 . S
C244 H266 0.931 . S
C245 C244 1.384 . S
C245 C248 1.382 . S
C246 C244 1.384 . S
C246 C247 1.381 . S
C246 H267 0.930 . S
C247 C246 1.381 . S
C247 C249 1.381 . S
C247 C250 1.487 . S
C248 C245 1.382 . S
C248 C249 1.387 . S
C248 H268 0.930 . S
C249 C247 1.381 . S
C249 C248 1.387 . S
C249 H269 0.931 . S
C250 C247 1.487 . S
C250 C257 1.399 . S
C250 N275 1.343 . S
C251 C252 1.384 . S
C251 C253 1.384 . S
C251 H270 0.931 . S
C252 C251 1.384 . S
C252 C255 1.382 . S
C253 C251 1.384 . S
C253 C254 1.381 . S
C253 H271 0.930 . S
C254 C253 1.381 . S
C254 C256 1.381 . S
C254 C257 1.487 . S
C255 C252 1.382 . S
C255 C256 1.387 . S
C255 H272 0.930 . S
C256 C254 1.381 . S
C256 C255 1.387 . S
C256 H273 0.931 . S
C257 C250 1.399 . S
C257 C254 1.487 . S
C257 N274 1.343 . S
H258 C230 0.931 . S
H259 C232 0.930 . S
H260 C234 0.930 . S
H261 C235 0.931 . S
H262 C237 0.931 . S
H263 C239 0.930 . S
H264 C241 0.930 . S
H265 C242 0.931 . S
H266 C244 0.931 . S
H267 C246 0.930 . S
H268 C248 0.930 . S
H269 C249 0.931 . S
H270 C251 0.931 . S
H271 C253 0.930 . S
H272 C255 0.930 . S
H273 C256 0.931 . S
N274 C236 1.343 . S
N274 C257 1.343 . S
N275 C243 1.343 . S
N275 C250 1.343 . S
C276 C277 1.384 . S
C276 C278 1.384 . S
C276 H304 0.931 . S
C277 C276 1.384 . S
C277 C280 1.382 . S
C278 C276 1.384 . S
C278 C279 1.381 . S
C278 H305 0.930 . S
C279 C278 1.381 . S
C279 C281 1.381 . S
C279 C282 1.487 . S
C280 C277 1.382 . S
C280 C281 1.387 . S
C280 H306 0.930 . S
C281 C279 1.381 . S
C281 C280 1.387 . S
C281 H307 0.931 . S
C282 C279 1.487 . S
C282 C289 1.399 . S
C282 N320 1.343 . S
C283 C284 1.384 . S
C283 C285 1.384 . S
C283 H308 0.931 . S
C284 C283 1.384 . S
C284 C287 1.382 . S
C285 C283 1.384 . S
C285 C286 1.381 . S
C285 H309 0.930 . S
C286 C285 1.381 . S
C286 C288 1.381 . S
C286 C289 1.487 . S
C287 C284 1.382 . S
C287 C288 1.387 . S
C287 H310 0.930 . S
C288 C286 1.381 . S
C288 C287 1.387 . S
C288 H311 0.931 . S
C289 C282 1.399 . S
C289 C286 1.487 . S
C289 N321 1.343 . S
C290 C291 1.384 . S
C290 C292 1.384 . S
C290 H312 0.931 . S
C291 C290 1.384 . S
C291 C294 1.382 . S
C292 C290 1.384 . S
C292 C293 1.381 . S
C292 H313 0.930 . S
C293 C292 1.381 . S
C293 C295 1.381 . S
C293 C296 1.487 . S
C294 C291 1.382 . S
C294 C295 1.387 . S
C294 H314 0.930 . S
C295 C293 1.381 . S
C295 C294 1.387 . S
C295 H315 0.931 . S
C296 C293 1.487 . S
C296 C303 1.399 . S
C296 N321 1.343 . S
C297 C298 1.384 . S
C297 C299 1.384 . S
C297 H316 0.931 . S
C298 C297 1.384 . S
C298 C301 1.382 . S
C299 C297 1.384 . S
C299 C300 1.381 . S
C299 H317 0.930 . S
C300 C299 1.381 . S
C300 C302 1.381 . S
C300 C303 1.487 . S
C301 C298 1.382 . S
C301 C302 1.387 . S
C301 H318 0.930 . S
C302 C300 1.381 . S
C302 C301 1.387 . S
C302 H319 0.931 . S
C303 C296 1.399 . S
C303 C300 1.487 . S
C303 N320 1.343 . S
H304 C276 0.931 . S
H305 C278 0.930 . S
H306 C280 0.930 . S
H307 C281 0.931 . S
H308 C283 0.931 . S
H309 C285 0.930 . S
H310 C287 0.930 . S
H311 C288 0.931 . S
H312 C290 0.931 . S
H313 C292 0.930 . S
H314 C294 0.930 . S
H315 C295 0.931 . S
H316 C297 0.931 . S
H317 C299 0.930 . S
H318 C301 0.930 . S
H319 C302 0.931 . S
N320 C282 1.343 . S
N320 C303 1.343 . S
N321 C289 1.343 . S
N321 C296 1.343 . S
C322 C323 1.384 . S
C322 C324 1.384 . S
C322 H350 0.931 . S
C323 C322 1.384 . S
C323 C326 1.382 . S
C324 C322 1.384 . S
C324 C325 1.381 . S
C324 H351 0.930 . S
C325 C324 1.381 . S
C325 C327 1.381 . S
C325 C328 1.487 . S
C326 C323 1.382 . S
C326 C327 1.387 . S
C326 H352 0.930 . S
C327 C325 1.381 . S
C327 C326 1.387 . S
C327 H353 0.931 . S
C328 C325 1.487 . S
C328 C335 1.399 . S
C328 N366 1.343 . S
C329 C330 1.384 . S
C329 C331 1.384 . S
C329 H354 0.931 . S
C330 C329 1.384 . S
C330 C333 1.382 . S
C331 C329 1.384 . S
C331 C332 1.381 . S
C331 H355 0.930 . S
C332 C331 1.381 . S
C332 C334 1.381 . S
C332 C335 1.487 . S
C333 C330 1.382 . S
C333 C334 1.387 . S
C333 H356 0.930 . S
C334 C332 1.381 . S
C334 C333 1.387 . S
C334 H357 0.931 . S
C335 C328 1.399 . S
C335 C332 1.487 . S
C335 N367 1.343 . S
C336 C337 1.384 . S
C336 C338 1.384 . S
C336 H358 0.931 . S
C337 C336 1.384 . S
C337 C340 1.382 . S
C338 C336 1.384 . S
C338 C339 1.381 . S
C338 H359 0.930 . S
C339 C338 1.381 . S
C339 C341 1.381 . S
C339 C342 1.487 . S
C340 C337 1.382 . S
C340 C341 1.387 . S
C340 H360 0.930 . S
C341 C339 1.381 . S
C341 C340 1.387 . S
C341 H361 0.931 . S
C342 C339 1.487 . S
C342 C349 1.399 . S
C342 N367 1.343 . S
C343 C344 1.384 . S
C343 C345 1.384 . S
C343 H362 0.931 . S
C344 C343 1.384 . S
C344 C347 1.382 . S
C345 C343 1.384 . S
C345 C346 1.381 . S
C345 H363 0.930 . S
C346 C345 1.381 . S
C346 C348 1.381 . S
C346 C349 1.487 . S
C347 C344 1.382 . S
C347 C348 1.387 . S
C347 H364 0.930 . S
C348 C346 1.381 . S
C348 C347 1.387 . S
C348 H365 0.931 . S
C349 C342 1.399 . S
C349 C346 1.487 . S
C349 N366 1.343 . S
H350 C322 0.931 . S
H351 C324 0.930 . S
H352 C326 0.930 . S
H353 C327 0.931 . S
H354 C329 0.931 . S
H355 C331 0.930 . S
H356 C333 0.930 . S
H357 C334 0.931 . S
H358 C336 0.931 . S
H359 C338 0.930 . S
H360 C340 0.930 . S
H361 C341 0.931 . S
H362 C343 0.931 . S
H363 C345 0.930 . S
H364 C347 0.930 . S
H365 C348 0.931 . S
N366 C328 1.343 . S
N366 C349 1.343 . S
N367 C335 1.343 . S
N367 C342 1.343 . S
C368 C369 1.384 . S
C368 C370 1.384 . S
C368 H396 0.931 . S
C369 C368 1.384 . S
C369 C372 1.382 . S
C370 C368 1.384 . S
C370 C371 1.381 . S
C370 H397 0.930 . S
C371 C370 1.381 . S
C371 C373 1.381 . S
C371 C374 1.487 . S
C372 C369 1.382 . S
C372 C373 1.387 . S
C372 H398 0.930 . S
C373 C371 1.381 . S
C373 C372 1.387 . S
C373 H399 0.931 . S
C374 C371 1.487 . S
C374 C381 1.399 . S
C374 N412 1.343 . S
C375 C376 1.384 . S
C375 C377 1.384 . S
C375 H400 0.931 . S
C376 C375 1.384 . S
C376 C379 1.382 . S
C377 C375 1.384 . S
C377 C378 1.381 . S
C377 H401 0.930 . S
C378 C377 1.381 . S
C378 C380 1.381 . S
C378 C381 1.487 . S
C379 C376 1.382 . S
C379 C380 1.387 . S
C379 H402 0.930 . S
C380 C378 1.381 . S
C380 C379 1.387 . S
C380 H403 0.931 . S
C381 C374 1.399 . S
C381 C378 1.487 . S
C381 N413 1.343 . S
C382 C383 1.384 . S
C382 C384 1.384 . S
C382 H404 0.931 . S
C383 C382 1.384 . S
C383 C386 1.382 . S
C384 C382 1.384 . S
C384 C385 1.381 . S
C384 H405 0.930 . S
C385 C384 1.381 . S
C385 C387 1.381 . S
C385 C388 1.487 . S
C386 C383 1.382 . S
C386 C387 1.387 . S
C386 H406 0.930 . S
C387 C385 1.381 . S
C387 C386 1.387 . S
C387 H407 0.931 . S
C388 C385 1.487 . S
C388 C395 1.399 . S
C388 N413 1.343 . S
C389 C390 1.384 . S
C389 C391 1.384 . S
C389 H408 0.931 . S
C390 C389 1.384 . S
C390 C393 1.382 . S
C391 C389 1.384 . S
C391 C392 1.381 . S
C391 H409 0.930 . S
C392 C391 1.381 . S
C392 C394 1.381 . S
C392 C395 1.487 . S
C393 C390 1.382 . S
C393 C394 1.387 . S
C393 H410 0.930 . S
C394 C392 1.381 . S
C394 C393 1.387 . S
C394 H411 0.931 . S
C395 C388 1.399 . S
C395 C392 1.487 . S
C395 N412 1.343 . S
H396 C368 0.931 . S
H397 C370 0.930 . S
H398 C372 0.930 . S
H399 C373 0.931 . S
H400 C375 0.931 . S
H401 C377 0.930 . S
H402 C379 0.930 . S
H403 C380 0.931 . S
H404 C382 0.931 . S
H405 C384 0.930 . S
H406 C386 0.930 . S
H407 C387 0.931 . S
H408 C389 0.931 . S
H409 C391 0.930 . S
H410 C393 0.930 . S
H411 C394 0.931 . S
N412 C374 1.343 . S
N412 C395 1.343 . S
N413 C381 1.343 . S
N413 C388 1.343 . S
C414 C415 1.369 . S
C414 C416 1.419 . S
C414 H418 0.930 . S
C415 C414 1.369 . S
C415 C424 1.429 . S
C416 C414 1.419 . S
C416 C417 1.363 . S
C416 H419 0.929 . S
C417 C416 1.363 . S
C417 C423 1.428 . S
H418 C414 0.930 . S
H419 C416 0.929 . S
S420 N421 1.613 . S
S420 N422 1.610 . S
N421 S420 1.613 . S
N421 C424 1.350 . S
N422 S420 1.610 . S
N422 C423 1.351 . S
C423 C417 1.428 . S
C423 N422 1.351 . S
C423 C424 1.434 . S
C424 C415 1.429 . S
C424 N421 1.350 . S
C424 C423 1.434 . S
C425 C426 1.369 . S
C425 C427 1.419 . S
C425 H429 0.930 . S
C426 C425 1.369 . S
C426 C435 1.429 . S
C427 C425 1.419 . S
C427 C428 1.363 . S
C427 H430 0.929 . S
C428 C427 1.363 . S
C428 C434 1.428 . S
H429 C425 0.930 . S
H430 C427 0.929 . S
S431 N432 1.613 . S
S431 N433 1.610 . S
N432 S431 1.613 . S
N432 C435 1.350 . S
N433 S431 1.610 . S
N433 C434 1.351 . S
C434 C428 1.428 . S
C434 N433 1.351 . S
C434 C435 1.434 . S
C435 C426 1.429 . S
C435 N432 1.350 . S
C435 C434 1.434 . S
C436 C437 1.369 . S
C436 C438 1.419 . S
C436 H440 0.930 . S
C437 C436 1.369 . S
C437 C446 1.429 . S
C438 C436 1.419 . S
C438 C439 1.363 . S
C438 H441 0.929 . S
C439 C438 1.363 . S
C439 C445 1.428 . S
H440 C436 0.930 . S
H441 C438 0.929 . S
S442 N443 1.613 . S
S442 N444 1.610 . S
N443 S442 1.613 . S
N443 C446 1.350 . S
N444 S442 1.610 . S
N444 C445 1.351 . S
C445 C439 1.428 . S
C445 N444 1.351 . S
C445 C446 1.434 . S
C446 C437 1.429 . S
C446 N443 1.350 . S
C446 C445 1.434 . S
C447 C448 1.369 . S
C447 C449 1.419 . S
C447 H451 0.930 . S
C448 C447 1.369 . S
C448 C457 1.429 . S
C449 C447 1.419 . S
C449 C450 1.363 . S
C449 H452 0.929 . S
C450 C449 1.363 . S
C450 C456 1.428 . S
H451 C447 0.930 . S
H452 C449 0.929 . S
S453 N454 1.613 . S
S453 N455 1.610 . S
N454 S453 1.613 . S
N454 C457 1.350 . S
N455 S453 1.610 . S
N455 C456 1.351 . S
C456 C450 1.428 . S
C456 N455 1.351 . S
C456 C457 1.434 . S
C457 C448 1.429 . S
C457 N454 1.350 . S
C457 C456 1.434 . S
C458 C459 1.369 . S
C458 C460 1.419 . S
C458 H462 0.930 . S
C459 C458 1.369 . S
C459 C468 1.429 . S
C460 C458 1.419 . S
C460 C461 1.363 . S
C460 H463 0.929 . S
C461 C460 1.363 . S
C461 C467 1.428 . S
H462 C458 0.930 . S
H463 C460 0.929 . S
S464 N465 1.613 . S
S464 N466 1.610 . S
N465 S464 1.613 . S
N465 C468 1.350 . S
N466 S464 1.610 . S
N466 C467 1.351 . S
C467 C461 1.428 . S
C467 N466 1.351 . S
C467 C468 1.434 . S
C468 C459 1.429 . S
C468 N465 1.350 . S
C468 C467 1.434 . S
C469 C470 1.369 . S
C469 C471 1.419 . S
C469 H473 0.930 . S
C470 C469 1.369 . S
C470 C479 1.429 . S
C471 C469 1.419 . S
C471 C472 1.363 . S
C471 H474 0.929 . S
C472 C471 1.363 . S
C472 C478 1.428 . S
H473 C469 0.930 . S
H474 C471 0.929 . S
S475 N476 1.613 . S
S475 N477 1.610 . S
N476 S475 1.613 . S
N476 C479 1.350 . S
N477 S475 1.610 . S
N477 C478 1.351 . S
C478 C472 1.428 . S
C478 N477 1.351 . S
C478 C479 1.434 . S
C479 C470 1.429 . S
C479 N476 1.350 . S
C479 C478 1.434 . S
C480 C481 1.369 . S
C480 C482 1.419 . S
C480 H484 0.930 . S
C481 C480 1.369 . S
C481 C490 1.429 . S
C482 C480 1.419 . S
C482 C483 1.363 . S
C482 H485 0.929 . S
C483 C482 1.363 . S
C483 C489 1.428 . S
H484 C480 0.930 . S
H485 C482 0.929 . S
S486 N487 1.613 . S
S486 N488 1.610 . S
N487 S486 1.613 . S
N487 C490 1.350 . S
N488 S486 1.610 . S
N488 C489 1.351 . S
C489 C483 1.428 . S
C489 N488 1.351 . S
C489 C490 1.434 . S
C490 C481 1.429 . S
C490 N487 1.350 . S
C490 C489 1.434 . S
C491 C492 1.369 . S
C491 C493 1.419 . S
C491 H495 0.930 . S
C492 C491 1.369 . S
C492 C501 1.429 . S
C493 C491 1.419 . S
C493 C494 1.363 . S
C493 H496 0.929 . S
C494 C493 1.363 . S
C494 C500 1.428 . S
H495 C491 0.930 . S
H496 C493 0.929 . S
S497 N498 1.613 . S
S497 N499 1.610 . S
N498 S497 1.613 . S
N498 C501 1.350 . S
N499 S497 1.610 . S
N499 C500 1.351 . S
C500 C494 1.428 . S
C500 N499 1.351 . S
C500 C501 1.434 . S
C501 C492 1.429 . S
C501 N498 1.350 . S
C501 C500 1.434 . S
C502 C503 1.369 . S
C502 C504 1.419 . S
C502 H506 0.930 . S
C503 C502 1.369 . S
C503 C512 1.429 . S
C504 C502 1.419 . S
C504 C505 1.363 . S
C504 H507 0.929 . S
C505 C504 1.363 . S
C505 C511 1.428 . S
H506 C502 0.930 . S
H507 C504 0.929 . S
S508 N509 1.613 . S
S508 N510 1.610 . S
N509 S508 1.613 . S
N509 C512 1.350 . S
N510 S508 1.610 . S
N510 C511 1.351 . S
C511 C505 1.428 . S
C511 N510 1.351 . S
C511 C512 1.434 . S
C512 C503 1.429 . S
C512 N509 1.350 . S
C512 C511 1.434 . S
C513 C514 1.369 . S
C513 C515 1.419 . S
C513 H517 0.930 . S
C514 C513 1.369 . S
C514 C523 1.429 . S
C515 C513 1.419 . S
C515 C516 1.363 . S
C515 H518 0.929 . S
C516 C515 1.363 . S
C516 C522 1.428 . S
H517 C513 0.930 . S
H518 C515 0.929 . S
S519 N520 1.613 1_554 S
S519 N521 1.610 1_554 S
N520 S519 1.613 1_556 S
N520 C523 1.350 . S
N521 S519 1.610 1_556 S
N521 C522 1.351 . S
C522 C516 1.428 . S
C522 N521 1.351 . S
C522 C523 1.434 . S
C523 C514 1.429 . S
C523 N520 1.350 . S
C523 C522 1.434 . S
C524 C525 1.369 . S
C524 C526 1.419 . S
C524 H528 0.930 . S
C525 C524 1.369 . S
C525 C534 1.429 . S
C526 C524 1.419 . S
C526 C527 1.363 . S
C526 H529 0.929 . S
C527 C526 1.363 . S
C527 C533 1.428 . S
H528 C524 0.930 . S
H529 C526 0.929 . S
S530 N531 1.613 . S
S530 N532 1.610 . S
N531 S530 1.613 . S
N531 C534 1.350 . S
N532 S530 1.610 . S
N532 C533 1.351 . S
C533 C527 1.428 . S
C533 N532 1.351 . S
C533 C534 1.434 . S
C534 C525 1.429 . S
C534 N531 1.350 . S
C534 C533 1.434 . S
C535 C536 1.369 . S
C535 C537 1.419 . S
C535 H539 0.930 . S
C536 C535 1.369 . S
C536 C545 1.429 . S
C537 C535 1.419 . S
C537 C538 1.363 . S
C537 H540 0.929 . S
C538 C537 1.363 . S
C538 C544 1.428 . S
H539 C535 0.930 . S
H540 C537 0.929 . S
S541 N542 1.613 . S
S541 N543 1.610 . S
N542 S541 1.613 . S
N542 C545 1.350 . S
N543 S541 1.610 . S
N543 C544 1.351 . S
C544 C538 1.428 . S
C544 N543 1.351 . S
C544 C545 1.434 . S
C545 C536 1.429 . S
C545 N542 1.350 . S
C545 C544 1.434 . S
C546 C547 1.369 . S
C546 C548 1.419 . S
C546 H550 0.930 . S
C547 C546 1.369 . S
C547 C556 1.429 . S
C548 C546 1.419 . S
C548 C549 1.363 . S
C548 H551 0.929 . S
C549 C548 1.363 . S
C549 C555 1.428 . S
H550 C546 0.930 . S
H551 C548 0.929 . S
S552 N553 1.613 1_554 S
S552 N554 1.610 1_554 S
N553 S552 1.613 1_556 S
N553 C556 1.350 . S
N554 S552 1.610 1_556 S
N554 C555 1.351 . S
C555 C549 1.428 . S
C555 N554 1.351 . S
C555 C556 1.434 . S
C556 C547 1.429 . S
C556 N553 1.350 . S
C556 C555 1.434 . S
C557 C558 1.369 . S
C557 C559 1.419 . S
C557 H561 0.930 . S
C558 C557 1.369 . S
C558 C567 1.429 . S
C559 C557 1.419 . S
C559 C560 1.363 . S
C559 H562 0.929 . S
C560 C559 1.363 . S
C560 C566 1.428 . S
H561 C557 0.930 . S
H562 C559 0.929 . S
S563 N564 1.613 . S
S563 N565 1.610 . S
N564 S563 1.613 . S
N564 C567 1.350 . S
N565 S563 1.610 . S
N565 C566 1.351 . S
C566 C560 1.428 . S
C566 N565 1.351 . S
C566 C567 1.434 . S
C567 C558 1.429 . S
C567 N564 1.350 . S
C567 C566 1.434 . S
C568 C569 1.369 . S
C568 C570 1.419 . S
C568 H572 0.930 . S
C569 C568 1.369 . S
C569 C578 1.429 . S
C570 C568 1.419 . S
C570 C571 1.363 . S
C570 H573 0.929 . S
C571 C570 1.363 . S
C571 C577 1.428 . S
H572 C568 0.930 . S
H573 C570 0.929 . S
S574 N575 1.613 . S
S574 N576 1.610 . S
N575 S574 1.613 . S
N575 C578 1.350 . S
N576 S574 1.610 . S
N576 C577 1.351 . S
C577 C571 1.428 . S
C577 N576 1.351 . S
C577 C578 1.434 . S
C578 C569 1.429 . S
C578 N575 1.350 . S
C578 C577 1.434 . S
C579 C580 1.369 . S
C579 C581 1.419 . S
C579 H583 0.930 . S
C580 C579 1.369 . S
C580 C589 1.429 . S
C581 C579 1.419 . S
C581 C582 1.363 . S
C581 H584 0.929 . S
C582 C581 1.363 . S
C582 C588 1.428 . S
H583 C579 0.930 . S
H584 C581 0.929 . S
S585 N586 1.613 . S
S585 N587 1.610 . S
N586 S585 1.613 . S
N586 C589 1.350 . S
N587 S585 1.610 . S
N587 C588 1.351 . S
C588 C582 1.428 . S
C588 N587 1.351 . S
C588 C589 1.434 . S
C589 C580 1.429 . S
C589 N586 1.350 . S
C589 C588 1.434 . S
C590 C591 1.369 . S
C590 C592 1.419 . S
C590 H594 0.930 . S
C591 C590 1.369 . S
C591 C600 1.429 . S
C592 C590 1.419 . S
C592 C593 1.363 . S
C592 H595 0.929 . S
C593 C592 1.363 . S
C593 C599 1.428 . S
H594 C590 0.930 . S
H595 C592 0.929 . S
S596 N597 1.613 . S
S596 N598 1.610 . S
N597 S596 1.613 . S
N597 C600 1.350 . S
N598 S596 1.610 . S
N598 C599 1.351 . S
C599 C593 1.428 . S
C599 N598 1.351 . S
C599 C600 1.434 . S
C600 C591 1.429 . S
C600 N597 1.350 . S
C600 C599 1.434 . S
C601 C602 1.369 . S
C601 C603 1.419 . S
C601 H605 0.930 . S
C602 C601 1.369 . S
C602 C611 1.429 . S
C603 C601 1.419 . S
C603 C604 1.363 . S
C603 H606 0.929 . S
C604 C603 1.363 . S
C604 C610 1.428 . S
H605 C601 0.930 . S
H606 C603 0.929 . S
S607 N608 1.613 . S
S607 N609 1.610 . S
N608 S607 1.613 . S
N608 C611 1.350 . S
N609 S607 1.610 . S
N609 C610 1.351 . S
C610 C604 1.428 . S
C610 N609 1.351 . S
C610 C611 1.434 . S
C611 C602 1.429 . S
C611 N608 1.350 . S
C611 C610 1.434 . S
C612 C613 1.369 . S
C612 C614 1.419 . S
C612 H616 0.930 . S
C613 C612 1.369 . S
C613 C622 1.429 . S
C614 C612 1.419 . S
C614 C615 1.363 . S
C614 H617 0.929 . S
C615 C614 1.363 . S
C615 C621 1.428 . S
H616 C612 0.930 . S
H617 C614 0.929 . S
S618 N619 1.613 . S
S618 N620 1.610 . S
N619 S618 1.613 . S
N619 C622 1.350 . S
N620 S618 1.610 . S
N620 C621 1.351 . S
C621 C615 1.428 . S
C621 N620 1.351 . S
C621 C622 1.434 . S
C622 C613 1.429 . S
C622 N619 1.350 . S
C622 C621 1.434 . S
C623 C624 1.369 . S
C623 C625 1.419 . S
C623 H627 0.930 . S
C624 C623 1.369 . S
C624 C633 1.429 . S
C625 C623 1.419 . S
C625 C626 1.363 . S
C625 H628 0.929 . S
C626 C625 1.363 . S
C626 C632 1.428 . S
H627 C623 0.930 . S
H628 C625 0.929 . S
S629 N630 1.613 . S
S629 N631 1.610 . S
N630 S629 1.613 . S
N630 C633 1.350 . S
N631 S629 1.610 . S
N631 C632 1.351 . S
C632 C626 1.428 . S
C632 N631 1.351 . S
C632 C633 1.434 . S
C633 C624 1.429 . S
C633 N630 1.350 . S
C633 C632 1.434 . S
C634 C635 1.369 . S
C634 C636 1.419 . S
C634 H638 0.930 . S
C635 C634 1.369 . S
C635 C644 1.429 . S
C636 C634 1.419 . S
C636 C637 1.363 . S
C636 H639 0.929 . S
C637 C636 1.363 . S
C637 C643 1.428 . S
H638 C634 0.930 . S
H639 C636 0.929 . S
S640 N641 1.613 . S
S640 N642 1.610 . S
N641 S640 1.613 . S
N641 C644 1.350 . S
N642 S640 1.610 . S
N642 C643 1.351 . S
C643 C637 1.428 . S
C643 N642 1.351 . S
C643 C644 1.434 . S
C644 C635 1.429 . S
C644 N641 1.350 . S
C644 C643 1.434 . S
C645 C646 1.369 . S
C645 C647 1.419 . S
C645 H649 0.930 . S
C646 C645 1.369 . S
C646 C655 1.429 . S
C647 C645 1.419 . S
C647 C648 1.363 . S
C647 H650 0.929 . S
C648 C647 1.363 . S
C648 C654 1.428 . S
H649 C645 0.930 . S
H650 C647 0.929 . S
S651 N652 1.613 1_545 S
S651 N653 1.610 1_545 S
N652 S651 1.613 1_565 S
N652 C655 1.350 . S
N653 S651 1.610 1_565 S
N653 C654 1.351 . S
C654 C648 1.428 . S
C654 N653 1.351 . S
C654 C655 1.434 . S
C655 C646 1.429 . S
C655 N652 1.350 . S
C655 C654 1.434 . S
C656 C657 1.369 . S
C656 C658 1.419 . S
C656 H660 0.930 . S
C657 C656 1.369 . S
C657 C666 1.429 . S
C658 C656 1.419 . S
C658 C659 1.363 . S
C658 H661 0.929 . S
C659 C658 1.363 . S
C659 C665 1.428 . S
H660 C656 0.930 . S
H661 C658 0.929 . S
S662 N663 1.613 . S
S662 N664 1.610 . S
N663 S662 1.613 . S
N663 C666 1.350 . S
N664 S662 1.610 . S
N664 C665 1.351 . S
C665 C659 1.428 . S
C665 N664 1.351 . S
C665 C666 1.434 . S
C666 C657 1.429 . S
C666 N663 1.350 . S
C666 C665 1.434 . S
C667 C668 1.369 . S
C667 C669 1.419 . S
C667 H671 0.930 . S
C668 C667 1.369 . S
C668 C677 1.429 . S
C669 C667 1.419 . S
C669 C670 1.363 . S
C669 H672 0.929 . S
C670 C669 1.363 . S
C670 C676 1.428 . S
H671 C667 0.930 . S
H672 C669 0.929 . S
S673 N674 1.613 . S
S673 N675 1.610 . S
N674 S673 1.613 . S
N674 C677 1.350 . S
N675 S673 1.610 . S
N675 C676 1.351 . S
C676 C670 1.428 . S
C676 N675 1.351 . S
C676 C677 1.434 . S
C677 C668 1.429 . S
C677 N674 1.350 . S
C677 C676 1.434 . S
C415 C7 1.903 . S
C417 C160 1.880 . S
C426 C30 1.670 . S
C428 C199 1.654 . S
C439 C231 1.751 . S
C437 N58 1.727 . S
C450 C277 1.515 . S
C448 N81 1.471 . S
C461 C344 1.798 . S
C459 C99 1.812 . S
C472 C383 1.579 . S
C470 N127 1.526 . S
C481 N25 1.759 . S
C483 C245 1.770 . S
C492 C62 1.677 . S
C494 C291 1.649 . S
C505 C330 1.808 . S
C503 C85 1.841 . S
C516 C369 1.568 . S
C514 N94 1.573 . S
C525 C131 1.862 . S
C527 C146 1.817 . S
C538 C185 1.510 . S
C536 N2 1.502 . S
C549 C284 1.821 . S
C547 C16 1.837 . S
C558 C39 1.624 . S
C560 C337 1.592 . S
C571 C390 1.729 . S
C569 N48 1.722 . S
C580 N71 1.465 . S
C582 C153 1.483 . S
C591 C108 1.790 . S
C593 C206 1.769 . S
C602 N117 1.516 . S
C604 C238 1.562 . S
C613 N35 1.713 . S
C615 C376 1.755 . S
C626 C139 1.637 . S
C624 C53 1.660 . S
C635 C76 1.873 . S
C637 C192 1.847 . S
C646 N104 1.509 . S
C648 C252 1.532 . S
C657 C122 1.784 . S
C659 C298 1.754 . S
C668 N12 1.437 . S
C670 C323 1.494 . S
