# Generated by pormake.
# Topology pto, (3,4)-cn, num edge types: 1
# Building blocks:
#     Node 0, Type 0, BuildingBlock: OLANEW_clean_sbu_2, # of connection points: 3
#     Node 1, Type 0, BuildingBlock: OLANEW_clean_sbu_2, # of connection points: 3
#     Node 2, Type 0, BuildingBlock: OLANEW_clean_sbu_2, # of connection points: 3
#     Node 3, Type 0, BuildingBlock: OLANEW_clean_sbu_2, # of connection points: 3
#     Node 4, Type 0, BuildingBlock: OLANEW_clean_sbu_2, # of connection points: 3
#     Node 5, Type 0, BuildingBlock: OLANEW_clean_sbu_2, # of connection points: 3
#     Node 6, Type 0, BuildingBlock: OLANEW_clean_sbu_2, # of connection points: 3
#     Node 7, Type 0, BuildingBlock: OLANEW_clean_sbu_2, # of connection points: 3
#     Node 8, Type 1, BuildingBlock: NAWXER_clean_linker_0, # of connection points: 4
#     Node 9, Type 1, BuildingBlock: NAWXER_clean_linker_0, # of connection points: 4
#     Node 10, Type 1, BuildingBlock: NAWXER_clean_linker_0, # of connection points: 4
#     Node 11, Type 1, BuildingBlock: NAWXER_clean_linker_0, # of connection points: 4
#     Node 12, Type 1, BuildingBlock: NAWXER_clean_linker_0, # of connection points: 4
#     Node 13, Type 1, BuildingBlock: NAWXER_clean_linker_0, # of connection points: 4
#     Edge 14, Type (0, 1), BuildingBlock: OJICUG_clean_linker_0, # of connection points: 2
#     Edge 15, Type (0, 1), BuildingBlock: OJICUG_clean_linker_0, # of connection points: 2
#     Edge 16, Type (0, 1), BuildingBlock: OJICUG_clean_linker_0, # of connection points: 2
#     Edge 17, Type (0, 1), BuildingBlock: OJICUG_clean_linker_0, # of connection points: 2
#     Edge 18, Type (0, 1), BuildingBlock: OJICUG_clean_linker_0, # of connection points: 2
#     Edge 19, Type (0, 1), BuildingBlock: OJICUG_clean_linker_0, # of connection points: 2
#     Edge 20, Type (0, 1), BuildingBlock: OJICUG_clean_linker_0, # of connection points: 2
#     Edge 21, Type (0, 1), BuildingBlock: OJICUG_clean_linker_0, # of connection points: 2
#     Edge 22, Type (0, 1), BuildingBlock: OJICUG_clean_linker_0, # of connection points: 2
#     Edge 23, Type (0, 1), BuildingBlock: OJICUG_clean_linker_0, # of connection points: 2
#     Edge 24, Type (0, 1), BuildingBlock: OJICUG_clean_linker_0, # of connection points: 2
#     Edge 25, Type (0, 1), BuildingBlock: OJICUG_clean_linker_0, # of connection points: 2
#     Edge 26, Type (0, 1), BuildingBlock: OJICUG_clean_linker_0, # of connection points: 2
#     Edge 27, Type (0, 1), BuildingBlock: OJICUG_clean_linker_0, # of connection points: 2
#     Edge 28, Type (0, 1), BuildingBlock: OJICUG_clean_linker_0, # of connection points: 2
#     Edge 29, Type (0, 1), BuildingBlock: OJICUG_clean_linker_0, # of connection points: 2
#     Edge 30, Type (0, 1), BuildingBlock: OJICUG_clean_linker_0, # of connection points: 2
#     Edge 31, Type (0, 1), BuildingBlock: OJICUG_clean_linker_0, # of connection points: 2
#     Edge 32, Type (0, 1), BuildingBlock: OJICUG_clean_linker_0, # of connection points: 2
#     Edge 33, Type (0, 1), BuildingBlock: OJICUG_clean_linker_0, # of connection points: 2
#     Edge 34, Type (0, 1), BuildingBlock: OJICUG_clean_linker_0, # of connection points: 2
#     Edge 35, Type (0, 1), BuildingBlock: OJICUG_clean_linker_0, # of connection points: 2
#     Edge 36, Type (0, 1), BuildingBlock: OJICUG_clean_linker_0, # of connection points: 2
#     Edge 37, Type (0, 1), BuildingBlock: OJICUG_clean_linker_0, # of connection points: 2
# Relax obj value: 0.009
# Max RMSD: 0.122
# Mean RMSD: 0.052
data_MOF--net-pto--node1-OLANEW_clean_sbu_2--node2-NAWXER_clean_linker_0--edge1-OJICUG_clean_linker_0
_symmetry_space_group_name_H-M    P1
_symmetry_Int_Tables_number       1
_symmetry_cell_setting            triclinic
loop_
_symmetry_equiv_pos_as_xyz
'x, y, z'
_cell_length_a     32.81344
_cell_length_b     47.157766
_cell_length_c     39.764524
_cell_angle_alpha  92.658655
_cell_angle_beta   89.750295
_cell_angle_gamma 105.90538
loop_
_atom_site_label
_atom_site_type_symbol
_atom_site_fract_x
_atom_site_fract_y
_atom_site_fract_z
_atom_type_partial_charge
O0 O 0.3004 0.32112 0.25802 0.0
Cd1 Cd 0.2502 0.32099 0.3035 0.0
O2 O 0.34909 0.36103 0.2759 0.0
Cd3 Cd 0.30716 0.36999 0.31523 0.0
O4 O 0.25683 0.38839 0.33405 0.0
C5 C 0.22945 0.38955 0.31204 0.0
O6 O 0.23276 0.37871 0.28142 0.0
C7 C 0.33668 0.33926 0.25482 0.0
C8 C 0.25578 0.2783 0.3479 0.0
O9 O 0.23318 0.2714 0.32102 0.0
O10 O 0.27512 0.30556 0.35425 0.0
O11 O 0.36004 0.87128 0.76938 0.0
Cd12 Cd 0.30682 0.86099 0.72418 0.0
O13 O 0.4087 0.85716 0.74017 0.0
Cd14 Cd 0.36352 0.83976 0.69923 0.0
O15 O 0.30866 0.80397 0.68272 0.0
C16 C 0.28761 0.79013 0.70669 0.0
O17 O 0.29968 0.799 0.7378 0.0
C18 C 0.39712 0.86782 0.76737 0.0
C19 C 0.31063 0.90904 0.68477 0.0
O20 O 0.28963 0.90565 0.71225 0.0
O21 O 0.33028 0.88984 0.67609 0.0
O22 O 0.76497 0.77887 0.34013 0.0
Cd23 Cd 0.74499 0.73074 0.3095 0.0
O24 O 0.69899 0.77375 0.35558 0.0
Cd25 Cd 0.67408 0.73792 0.31831 0.0
O26 O 0.65684 0.73869 0.26559 0.0
C27 C 0.67499 0.76316 0.2529 0.0
O28 O 0.70217 0.78331 0.27161 0.0
C29 C 0.73788 0.78828 0.35698 0.0
C30 C 0.80065 0.6965 0.31931 0.0
O31 O 0.80342 0.71199 0.29331 0.0
O32 O 0.7719 0.69746 0.3409 0.0
O33 O 0.79644 0.32109 0.645 0.0
Cd34 Cd 0.73876 0.27564 0.64307 0.0
O35 O 0.79918 0.32413 0.70038 0.0
Cd36 Cd 0.74238 0.28867 0.71009 0.0
O37 O 0.69334 0.28196 0.7486 0.0
C38 C 0.69114 0.30606 0.76318 0.0
O39 O 0.71605 0.33092 0.75284 0.0
C40 C 0.81362 0.33396 0.67222 0.0
C41 C 0.76469 0.22937 0.61185 0.0
O42 O 0.74957 0.2465 0.5946 0.0
O43 O 0.76738 0.23407 0.64388 0.0
O44 O 0.80589 0.8027 0.6264 0.0
Cd45 Cd 0.78142 0.75705 0.65622 0.0
O46 O 0.811 0.83097 0.67263 0.0
Cd47 Cd 0.78469 0.79611 0.7071 0.0
O48 O 0.74793 0.79078 0.75335 0.0
C49 C 0.7507 0.81517 0.76944 0.0
O50 O 0.77524 0.83946 0.75751 0.0
C51 C 0.81519 0.82825 0.64097 0.0
C52 C 0.84167 0.72534 0.65817 0.0
O53 O 0.81661 0.72247 0.63284 0.0
O54 O 0.83849 0.74343 0.68248 0.0
O55 O 0.80264 0.29093 0.28405 0.0
Cd56 Cd 0.7574 0.24207 0.26579 0.0
O57 O 0.7685 0.29643 0.33053 0.0
Cd58 Cd 0.71478 0.26204 0.30971 0.0
O59 O 0.67559 0.25791 0.26453 0.0
C60 C 0.68307 0.28201 0.24952 0.0
O61 O 0.71144 0.30519 0.26264 0.0
C62 C 0.79999 0.30552 0.31132 0.0
C63 C 0.76663 0.19781 0.30712 0.0
O64 O 0.79309 0.20715 0.28364 0.0
O65 O 0.73571 0.20931 0.31111 0.0
O66 O 0.29575 0.34269 0.77317 0.0
Cd67 Cd 0.25147 0.33917 0.72278 0.0
O68 O 0.35258 0.37589 0.75674 0.0
Cd69 Cd 0.32696 0.36831 0.70568 0.0
O70 O 0.31227 0.33238 0.66721 0.0
C71 C 0.30896 0.30721 0.67891 0.0
O72 O 0.31348 0.30553 0.71152 0.0
C73 C 0.33276 0.35947 0.77937 0.0
C74 C 0.21755 0.38681 0.71583 0.0
O75 O 0.20137 0.36652 0.73617 0.0
O76 O 0.25017 0.38489 0.69902 0.0
O77 O 0.40537 0.85762 0.28317 0.0
Cd78 Cd 0.37463 0.8489 0.3392 0.0
O79 O 0.35114 0.8243 0.2599 0.0
Cd80 Cd 0.31335 0.81364 0.30523 0.0
O81 O 0.26016 0.78227 0.32808 0.0
C82 C 0.22856 0.77196 0.30848 0.0
O83 O 0.22974 0.78238 0.27829 0.0
C84 C 0.38712 0.84292 0.25721 0.0
C85 C 0.3593 0.89852 0.37172 0.0
O86 O 0.39557 0.89337 0.37383 0.0
O87 O 0.33038 0.88034 0.35385 0.0
C88 C 0.9522 0.43185 0.31696 0.0
C89 C 0.91591 0.42177 0.33679 0.0
C90 C 0.97695 0.46105 0.32036 0.0
C91 C 0.96742 0.48069 0.34481 0.0
C92 C 0.906 0.44163 0.36094 0.0
C93 C 0.93153 0.47073 0.36491 0.0
C94 C 0.99248 0.51215 0.34757 0.0
C95 C 0.08622 0.45916 0.36331 0.0
C96 C 0.11476 0.46147 0.33644 0.0
C97 C 0.06093 0.47868 0.36694 0.0
C98 C 0.06413 0.50084 0.34383 0.0
C99 C 0.11841 0.48406 0.31388 0.0
C100 C 0.0936 0.50367 0.31771 0.0
C101 C 0.03724 0.52136 0.34621 0.0
C102 C 0.08199 0.65402 0.36236 0.0
C103 C 0.10935 0.661 0.33483 0.0
C104 C 0.05751 0.62491 0.36603 0.0
C105 C 0.06067 0.60249 0.34246 0.0
C106 C 0.11251 0.63844 0.31151 0.0
C107 C 0.08874 0.60944 0.31549 0.0
C108 C 0.03556 0.57155 0.34549 0.0
C109 C 0.94644 0.62301 0.31565 0.0
C110 C 0.91094 0.62072 0.33641 0.0
C111 C 0.97216 0.60411 0.31884 0.0
C112 C 0.96419 0.58317 0.34378 0.0
C113 C 0.9023 0.59911 0.36076 0.0
C114 C 0.92867 0.58061 0.3644 0.0
C115 C 0.99083 0.56254 0.34689 0.0
H116 H 0.96141 0.41732 0.29839 0.0
H117 H 0.00308 0.4683 0.30324 0.0
H118 H 0.87788 0.43505 0.3762 0.0
H119 H 0.92289 0.48558 0.38345 0.0
H120 H 0.08295 0.44196 0.38108 0.0
H121 H 0.03879 0.47642 0.38758 0.0
H122 H 0.14067 0.48665 0.29329 0.0
H123 H 0.0968 0.52074 0.29976 0.0
H124 H 0.07922 0.67109 0.38069 0.0
H125 H 0.03635 0.61987 0.38724 0.0
H126 H 0.13384 0.64322 0.29036 0.0
H127 H 0.09179 0.59242 0.29715 0.0
H128 H 0.95456 0.63943 0.2968 0.0
H129 H 0.99796 0.60571 0.30135 0.0
H130 H 0.87474 0.59607 0.37668 0.0
H131 H 0.92121 0.56417 0.3833 0.0
N132 N 0.97109 0.53318 0.34819 0.0
N133 N 0.05685 0.55062 0.345 0.0
C134 C 0.97272 0.45469 0.64949 0.0
C135 C 0.93802 0.44749 0.67139 0.0
C136 C 0.99982 0.48337 0.65019 0.0
C137 C 0.99264 0.50524 0.67283 0.0
C138 C 0.93057 0.46961 0.69353 0.0
C139 C 0.95744 0.49822 0.69408 0.0
C140 C 0.02085 0.53567 0.67418 0.0
C141 C 0.09555 0.47711 0.71166 0.0
C142 C 0.13412 0.4784 0.69527 0.0
C143 C 0.07364 0.49804 0.70622 0.0
C144 C 0.0886 0.52011 0.68309 0.0
C145 C 0.14995 0.50134 0.6732 0.0
C146 C 0.12737 0.52185 0.66711 0.0
C147 C 0.0655 0.54249 0.67704 0.0
C148 C 0.11863 0.67368 0.70273 0.0
C149 C 0.15534 0.68117 0.68295 0.0
C150 C 0.09039 0.64552 0.69948 0.0
C151 C 0.09788 0.62438 0.67599 0.0
C152 C 0.16255 0.66004 0.65923 0.0
C153 C 0.13419 0.63188 0.65593 0.0
C154 C 0.07002 0.59378 0.67409 0.0
C155 C 0.98599 0.65009 0.64276 0.0
C156 C 0.95391 0.65041 0.66623 0.0
C157 C 0.00994 0.62982 0.64494 0.0
C158 C 0.00188 0.60942 0.67044 0.0
C159 C 0.94617 0.63007 0.6918 0.0
C160 C 0.96965 0.60958 0.69366 0.0
C161 C 0.02539 0.58693 0.67238 0.0
H162 H 0.97917 0.43809 0.63215 0.0
H163 H 0.02634 0.48847 0.63309 0.0
H164 H 0.90362 0.46486 0.71024 0.0
H165 H 0.95105 0.51484 0.71146 0.0
H166 H 0.08182 0.45977 0.72858 0.0
H167 H 0.04502 0.49692 0.72035 0.0
H168 H 0.18003 0.50375 0.66077 0.0
H169 H 0.14024 0.53908 0.6498 0.0
H170 H 0.11202 0.68947 0.72112 0.0
H171 H 0.06333 0.64007 0.71602 0.0
H172 H 0.19085 0.6649 0.644 0.0
H173 H 0.14091 0.6158 0.63796 0.0
H174 H 0.99257 0.66556 0.62282 0.0
H175 H 0.03426 0.62976 0.62645 0.0
H176 H 0.92127 0.62958 0.70993 0.0
H177 H 0.96273 0.59387 0.71336 0.0
N178 N 0.00261 0.55817 0.67245 0.0
N179 N 0.08831 0.57129 0.67638 0.0
C180 C 0.2524 0.18165 0.46328 0.0
C181 C 0.27736 0.1887 0.43455 0.0
C182 C 0.2576 0.15963 0.48381 0.0
C183 C 0.28908 0.14512 0.47671 0.0
C184 C 0.30769 0.17353 0.42664 0.0
C185 C 0.31363 0.15201 0.44763 0.0
C186 C 0.29524 0.1218 0.49839 0.0
C187 C 0.32117 0.20369 0.56592 0.0
C188 C 0.29287 0.2024 0.59281 0.0
C189 C 0.32128 0.17818 0.54665 0.0
C190 C 0.2926 0.15098 0.55353 0.0
C191 C 0.26438 0.1751 0.59976 0.0
C192 C 0.2644 0.14962 0.58039 0.0
C193 C 0.29342 0.12367 0.53395 0.0
C194 C 0.3406 0.01648 0.577 0.0
C195 C 0.30763 0.00491 0.59951 0.0
C196 C 0.33838 0.03908 0.55612 0.0
C197 C 0.30311 0.0505 0.55729 0.0
C198 C 0.2725 0.01662 0.60065 0.0
C199 C 0.27048 0.03934 0.57997 0.0
C200 C 0.30052 0.07477 0.53592 0.0
C201 C 0.29172 0.99507 0.46649 0.0
C202 C 0.32638 0.99894 0.44459 0.0
C203 C 0.2844 0.01922 0.48476 0.0
C204 C 0.31165 0.04764 0.48144 0.0
C205 C 0.3532 0.02749 0.44099 0.0
C206 C 0.34568 0.05164 0.45905 0.0
C207 C 0.30459 0.07348 0.50057 0.0
H208 H 0.22828 0.19275 0.46942 0.0
H209 H 0.23671 0.15385 0.50505 0.0
H210 H 0.32713 0.1786 0.40445 0.0
H211 H 0.33765 0.14087 0.44126 0.0
H212 H 0.34409 0.22425 0.56039 0.0
H213 H 0.34425 0.17965 0.52671 0.0
H214 H 0.24204 0.17344 0.6202 0.0
H215 H 0.24225 0.12883 0.58631 0.0
H216 H 0.36849 0.00843 0.57586 0.0
H217 H 0.36442 0.04788 0.53936 0.0
H218 H 0.24621 0.008 0.61725 0.0
H219 H 0.24307 0.04795 0.58135 0.0
H220 H 0.27061 0.9733 0.46985 0.0
H221 H 0.25742 0.01572 0.50139 0.0
H222 H 0.37979 0.0312 0.42395 0.0
H223 H 0.36681 0.07344 0.45588 0.0
N224 N 0.30155 0.09695 0.48316 0.0
N225 N 0.2953 0.09987 0.55126 0.0
C226 C 0.53401 0.87756 0.89471 0.0
C227 C 0.49002 0.86682 0.88947 0.0
C228 C 0.55277 0.87117 0.92393 0.0
C229 C 0.52798 0.85321 0.94793 0.0
C230 C 0.46518 0.84986 0.91413 0.0
C231 C 0.48395 0.84317 0.94303 0.0
C232 C 0.54684 0.84499 0.97855 0.0
C233 C 0.6096 0.8101 0.89041 0.0
C234 C 0.65354 0.82337 0.88955 0.0
C235 C 0.58637 0.81352 0.91917 0.0
C236 C 0.6067 0.83042 0.94741 0.0
C237 C 0.67383 0.83965 0.9182 0.0
C238 C 0.65066 0.84298 0.94689 0.0
C239 C 0.58307 0.83424 0.97821 0.0
C240 C 0.57877 0.78579 0.11597 0.0
C241 C 0.6221 0.79484 0.12458 0.0
C242 C 0.56399 0.79607 0.08734 0.0
C243 C 0.5921 0.81607 0.06711 0.0
C244 C 0.65039 0.81374 0.10332 0.0
C245 C 0.63553 0.82418 0.07484 0.0
C246 C 0.57674 0.82798 0.03737 0.0
C247 C 0.5189 0.8587 0.12892 0.0
C248 C 0.47432 0.84933 0.12942 0.0
C249 C 0.54083 0.85663 0.0991 0.0
C250 C 0.51876 0.84429 0.06933 0.0
C251 C 0.45235 0.83888 0.099 0.0
C252 C 0.47432 0.83633 0.06935 0.0
C253 C 0.54145 0.83976 0.03803 0.0
H254 H 0.55382 0.891 0.8763 0.0
H255 H 0.58661 0.88016 0.92766 0.0
H256 H 0.43126 0.841 0.91065 0.0
H257 H 0.46406 0.82953 0.96126 0.0
H258 H 0.59309 0.79749 0.86869 0.0
H259 H 0.55259 0.80303 0.91935 0.0
H260 H 0.70773 0.84971 0.9185 0.0
H261 H 0.66704 0.8557 0.96862 0.0
H262 H 0.55605 0.77136 0.1318 0.0
H263 H 0.53048 0.78869 0.08126 0.0
H264 H 0.68407 0.82064 0.10878 0.0
H265 H 0.6579 0.83909 0.0592 0.0
H266 H 0.53704 0.86683 0.15173 0.0
H267 H 0.57511 0.86414 0.09953 0.0
H268 H 0.41805 0.83232 0.09808 0.0
H269 H 0.4565 0.82741 0.04657 0.0
N270 N 0.52754 0.84732 0.00849 0.0
N271 N 0.59656 0.82621 0.00762 0.0
C272 C 0.76454 0.10154 0.4241 0.0
C273 C 0.78727 0.10697 0.39384 0.0
C274 C 0.77056 0.0803 0.44549 0.0
C275 C 0.80056 0.06475 0.43777 0.0
C276 C 0.81569 0.09019 0.38544 0.0
C277 C 0.82228 0.0694 0.40719 0.0
C278 C 0.80879 0.04297 0.46066 0.0
C279 C 0.83283 0.1303 0.51895 0.0
C280 C 0.80684 0.12874 0.54742 0.0
C281 C 0.83751 0.10449 0.50251 0.0
C282 C 0.81535 0.0767 0.51378 0.0
C283 C 0.78641 0.10095 0.55951 0.0
C284 C 0.79066 0.07524 0.54289 0.0
C285 C 0.81672 0.04882 0.49567 0.0
C286 C 0.8603 0.937 0.53337 0.0
C287 C 0.83795 0.93181 0.5637 0.0
C288 C 0.85692 0.95996 0.51353 0.0
C289 C 0.83042 0.97773 0.52334 0.0
C290 C 0.81339 0.95071 0.57435 0.0
C291 C 0.80978 0.9735 0.5544 0.0
C292 C 0.82258 0.99989 0.50086 0.0
C293 C 0.76437 0.91127 0.45225 0.0
C294 C 0.78377 0.90518 0.42222 0.0
C295 C 0.77335 0.93999 0.46624 0.0
C296 C 0.80271 0.96321 0.45101 0.0
C297 C 0.81261 0.92858 0.40662 0.0
C298 C 0.82182 0.95738 0.42083 0.0
C299 C 0.81244 0.99356 0.46635 0.0
H300 H 0.74253 0.11399 0.43166 0.0
H301 H 0.75207 0.07632 0.46827 0.0
H302 H 0.83285 0.09298 0.36197 0.0
H303 H 0.84485 0.05716 0.40027 0.0
H304 H 0.84945 0.15147 0.5094 0.0
H305 H 0.85778 0.10622 0.4807 0.0
H306 H 0.76594 0.09902 0.58123 0.0
H307 H 0.77352 0.05409 0.55223 0.0
H308 H 0.88003 0.92312 0.52482 0.0
H309 H 0.87419 0.96337 0.49012 0.0
H310 H 0.7955 0.94714 0.59747 0.0
H311 H 0.78938 0.98704 0.56259 0.0
H312 H 0.74225 0.89382 0.46508 0.0
H313 H 0.75729 0.94404 0.48907 0.0
H314 H 0.82751 0.92473 0.38314 0.0
H315 H 0.8441 0.97506 0.40842 0.0
N316 N 0.80686 0.01549 0.44742 0.0
N317 N 0.82348 0.02705 0.51428 0.0
C318 C 0.46796 0.35481 0.90036 0.0
C319 C 0.42347 0.34396 0.89882 0.0
C320 C 0.49085 0.34858 0.92733 0.0
C321 C 0.46999 0.33041 0.95275 0.0
C322 C 0.40262 0.32716 0.92534 0.0
C323 C 0.42559 0.32033 0.95177 0.0
C324 C 0.49323 0.32307 0.98161 0.0
C325 C 0.55251 0.29262 0.88889 0.0
C326 C 0.59495 0.30892 0.88493 0.0
C327 C 0.53179 0.29452 0.91942 0.0
C328 C 0.5532 0.31278 0.9464 0.0
C329 C 0.61647 0.32658 0.91229 0.0
C330 C 0.59588 0.32832 0.94277 0.0
C331 C 0.53199 0.31546 0.97878 0.0
C332 C 0.55551 0.2781 0.11941 0.0
C333 C 0.59848 0.29299 0.12513 0.0
C334 C 0.53451 0.28312 0.0907 0.0
C335 C 0.5559 0.30348 0.06746 0.0
C336 C 0.62031 0.3121 0.10081 0.0
C337 C 0.59924 0.31722 0.07225 0.0
C338 C 0.53347 0.31084 0.0383 0.0
C339 C 0.47573 0.34037 0.13178 0.0
C340 C 0.43203 0.32693 0.13486 0.0
C341 C 0.49632 0.33795 0.10136 0.0
C342 C 0.47382 0.32148 0.07365 0.0
C343 C 0.40947 0.31121 0.10671 0.0
C344 C 0.43014 0.30855 0.07648 0.0
C345 C 0.49486 0.31853 0.04117 0.0
H346 H 0.48536 0.36775 0.88051 0.0
H347 H 0.52484 0.35806 0.92817 0.0
H348 H 0.36841 0.31919 0.92585 0.0
H349 H 0.40848 0.30693 0.97145 0.0
H350 H 0.53518 0.27882 0.86823 0.0
H351 H 0.49905 0.28187 0.92193 0.0
H352 H 0.64939 0.33897 0.91019 0.0
H353 H 0.61313 0.34222 0.96341 0.0
H354 H 0.53772 0.26326 0.13759 0.0
H355 H 0.50133 0.27155 0.08702 0.0
H356 H 0.65367 0.32337 0.10401 0.0
H357 H 0.61657 0.33261 0.05436 0.0
H358 H 0.49415 0.3526 0.15291 0.0
H359 H 0.5298 0.349 0.09952 0.0
H360 H 0.37561 0.30124 0.10782 0.0
H361 H 0.41196 0.29619 0.05528 0.0
N362 N 0.47621 0.32408 0.01271 0.0
N363 N 0.55072 0.30992 0.00727 0.0
C364 C 0.17142 0.41026 0.29337 0.0
C365 C 0.19708 0.40543 0.31949 0.0
H366 H 0.12511 0.43161 0.27844 0.0
C367 C 0.19304 0.41735 0.35204 0.0
H368 H 0.17351 0.40129 0.26806 0.0
C369 C 0.16499 0.43465 0.35799 0.0
C370 C 0.14089 0.44055 0.33143 0.0
H371 H 0.21225 0.41391 0.37272 0.0
H372 H 0.16339 0.44437 0.38301 0.0
C373 C 0.14378 0.42772 0.29925 0.0
C374 C 0.24064 0.75207 0.6671 0.0
C375 C 0.25195 0.7634 0.7001 0.0
H376 H 0.20081 0.71738 0.63571 0.0
C377 C 0.22993 0.74822 0.72717 0.0
H378 H 0.2569 0.7633 0.64569 0.0
C379 C 0.19807 0.72194 0.72148 0.0
C380 C 0.18734 0.71017 0.68857 0.0
H381 H 0.23782 0.7563 0.75293 0.0
H382 H 0.18275 0.71037 0.74302 0.0
C383 C 0.20868 0.72569 0.66139 0.0
C384 C 0.83559 0.66799 0.35586 0.0
C385 C 0.82922 0.67757 0.32388 0.0
H386 H 0.86738 0.64356 0.38518 0.0
C387 C 0.84982 0.66847 0.29612 0.0
H388 H 0.82029 0.67482 0.37777 0.0
C389 C 0.87586 0.64985 0.30013 0.0
C390 C 0.88274 0.64038 0.33218 0.0
H391 H 0.84512 0.67523 0.27109 0.0
H392 H 0.89 0.64256 0.27789 0.0
C393 C 0.86236 0.64985 0.36002 0.0
C394 C 0.8655 0.37657 0.70191 0.0
C395 C 0.84854 0.36157 0.67156 0.0
H396 H 0.90734 0.41523 0.72555 0.0
C397 C 0.86353 0.37416 0.64094 0.0
H398 H 0.85495 0.36746 0.72597 0.0
C399 C 0.89366 0.40168 0.64077 0.0
C400 C 0.90917 0.41716 0.6712 0.0
H401 H 0.85119 0.36316 0.61712 0.0
H402 H 0.90362 0.41132 0.61686 0.0
C403 C 0.89538 0.40404 0.70172 0.0
C404 C 0.25401 0.22608 0.35781 0.0
C405 C 0.26038 0.25532 0.3704 0.0
H406 H 0.25528 0.18211 0.36836 0.0
C407 C 0.27207 0.26246 0.40434 0.0
H408 H 0.24522 0.22001 0.33169 0.0
C409 C 0.27699 0.24066 0.42539 0.0
C410 C 0.27134 0.2116 0.41257 0.0
H411 H 0.27711 0.28483 0.41468 0.0
H412 H 0.28587 0.24656 0.45153 0.0
C413 C 0.25994 0.20447 0.37864 0.0
C414 C 0.40889 0.87991 0.82915 0.0
C415 C 0.42447 0.87268 0.79785 0.0
H416 H 0.41767 0.884 0.88265 0.0
C417 C 0.46437 0.86697 0.79672 0.0
H418 H 0.37843 0.88462 0.83097 0.0
C419 C 0.48689 0.86667 0.82645 0.0
C420 C 0.46982 0.87191 0.85785 0.0
H421 H 0.47738 0.86143 0.77303 0.0
H422 H 0.51651 0.86074 0.82496 0.0
C423 C 0.43124 0.87941 0.85881 0.0
C424 C 0.79292 0.83464 0.37626 0.0
C425 C 0.75059 0.81722 0.37585 0.0
H426 H 0.83674 0.87596 0.39151 0.0
C427 C 0.7197 0.82862 0.39171 0.0
H428 H 0.8175 0.82653 0.36427 0.0
C429 C 0.73061 0.85698 0.40689 0.0
C430 C 0.77276 0.87466 0.4068 0.0
H431 H 0.68674 0.81592 0.39172 0.0
H432 H 0.70569 0.86531 0.41793 0.0
C433 C 0.80389 0.86307 0.39159 0.0
C434 C 0.66509 0.33346 0.80999 0.0
C435 C 0.66383 0.30648 0.79286 0.0
H436 H 0.64407 0.35532 0.85217 0.0
C437 C 0.63782 0.28023 0.80528 0.0
H438 H 0.68455 0.35413 0.80106 0.0
C439 C 0.61448 0.28097 0.83474 0.0
C440 C 0.617 0.30793 0.85241 0.0
H441 H 0.63611 0.25909 0.79262 0.0
H442 H 0.59551 0.26039 0.84426 0.0
C443 C 0.64206 0.33416 0.83942 0.0
C444 C 0.32761 0.93478 0.6306 0.0
C445 C 0.31133 0.93403 0.66339 0.0
H446 H 0.33839 0.95725 0.5845 0.0
C447 C 0.2948 0.95707 0.67531 0.0
H448 H 0.3404 0.91727 0.62061 0.0
C449 C 0.2942 0.98022 0.6548 0.0
C450 C 0.30973 0.98076 0.62173 0.0
H451 H 0.28229 0.95726 0.70055 0.0
H452 H 0.2817 0.9978 0.665 0.0
C453 C 0.32666 0.95781 0.60995 0.0
C454 C 0.63326 0.74944 0.19888 0.0
C455 C 0.6634 0.77016 0.21896 0.0
H456 H 0.59708 0.74075 0.15299 0.0
C457 C 0.68115 0.79845 0.20705 0.0
H458 H 0.61912 0.72742 0.20731 0.0
C459 C 0.66825 0.80617 0.17622 0.0
C460 C 0.63745 0.78575 0.15638 0.0
H461 H 0.70437 0.815 0.22189 0.0
H462 H 0.68157 0.82852 0.16845 0.0
C463 C 0.62044 0.75715 0.16788 0.0
C464 C 0.78917 0.18367 0.6147 0.0
C465 C 0.77793 0.20459 0.59532 0.0
H466 H 0.80757 0.14346 0.61472 0.0
C467 C 0.7786 0.20122 0.56001 0.0
H468 H 0.78915 0.18569 0.64194 0.0
C469 C 0.78939 0.17711 0.54444 0.0
C470 C 0.79939 0.15574 0.56385 0.0
H471 H 0.77025 0.21701 0.54436 0.0
H472 H 0.78855 0.17466 0.51721 0.0
C473 C 0.79962 0.15945 0.59913 0.0
C474 C 0.3972 0.35905 0.21597 0.0
C475 C 0.36332 0.33557 0.22574 0.0
H476 H 0.44484 0.37505 0.17928 0.0
C477 C 0.35371 0.30882 0.20646 0.0
H478 H 0.40527 0.37999 0.23024 0.0
C479 C 0.37677 0.30581 0.17759 0.0
C480 C 0.40967 0.32961 0.167 0.0
H481 H 0.32809 0.29019 0.21353 0.0
H482 H 0.36858 0.28481 0.16344 0.0
C483 C 0.42001 0.35615 0.18681 0.0
C484 C 0.88104 0.69187 0.63092 0.0
C485 C 0.87244 0.70762 0.65973 0.0
H486 H 0.91397 0.66162 0.61038 0.0
C487 C 0.89244 0.7055 0.69032 0.0
H488 H 0.86621 0.69312 0.60696 0.0
C489 C 0.91946 0.68729 0.69229 0.0
C490 C 0.9275 0.67118 0.66362 0.0
H491 H 0.88648 0.71736 0.71296 0.0
H492 H 0.93393 0.68567 0.71631 0.0
C493 C 0.90855 0.67398 0.63281 0.0
C494 C 0.83658 0.34747 0.35143 0.0
C495 C 0.83141 0.33426 0.31876 0.0
H496 H 0.86837 0.38485 0.38311 0.0
C497 C 0.85494 0.34956 0.29244 0.0
H498 H 0.81893 0.33613 0.37224 0.0
C499 C 0.8822 0.37775 0.29837 0.0
C500 C 0.88753 0.39123 0.331 0.0
H501 H 0.85122 0.34018 0.26687 0.0
H502 H 0.89814 0.38921 0.27701 0.0
C503 C 0.86467 0.37553 0.35755 0.0
C504 C 0.17471 0.42016 0.73709 0.0
C505 C 0.19824 0.41122 0.71118 0.0
H506 H 0.13804 0.44921 0.75319 0.0
C507 C 0.20196 0.4251 0.68042 0.0
H508 H 0.17172 0.41003 0.7612 0.0
C509 C 0.18135 0.44689 0.67526 0.0
C510 C 0.15737 0.45584 0.70108 0.0
H511 H 0.21967 0.41843 0.6599 0.0
H512 H 0.18345 0.45609 0.65068 0.0
C513 C 0.15503 0.44248 0.73229 0.0
C514 C 0.16451 0.73098 0.29248 0.0
C515 C 0.19408 0.74586 0.31726 0.0
H516 H 0.1144 0.69242 0.27882 0.0
C517 C 0.19235 0.7341 0.34928 0.0
H518 H 0.16476 0.73948 0.26761 0.0
C519 C 0.16305 0.70718 0.35575 0.0
C520 C 0.13543 0.69151 0.33018 0.0
H521 H 0.21457 0.74513 0.36894 0.0
H522 H 0.16345 0.6979 0.38012 0.0
C523 C 0.1357 0.704 0.29881 0.0
C524 C 0.83484 0.88316 0.63727 0.0
C525 C 0.827 0.85502 0.62103 0.0
H526 H 0.84507 0.92953 0.63187 0.0
C527 C 0.82697 0.85274 0.58566 0.0
H528 H 0.83543 0.88578 0.66449 0.0
C529 C 0.83242 0.8779 0.56698 0.0
C530 C 0.83796 0.90581 0.58331 0.0
H531 H 0.82107 0.83142 0.57235 0.0
H532 H 0.83027 0.8753 0.53978 0.0
C533 C 0.84018 0.90825 0.61862 0.0
C534 C 0.6329 0.25948 0.20172 0.0
C535 C 0.66096 0.28433 0.21783 0.0
H536 H 0.59163 0.24255 0.15946 0.0
C537 C 0.66822 0.31183 0.20323 0.0
H538 H 0.62675 0.23797 0.21228 0.0
C539 C 0.648 0.31449 0.17325 0.0
C540 C 0.62011 0.28969 0.15692 0.0
H541 H 0.68946 0.33148 0.21504 0.0
H542 H 0.6538 0.33615 0.16313 0.0
C543 C 0.61268 0.26213 0.17154 0.0
C544 C 0.30326 0.28211 0.62132 0.0
C545 C 0.30235 0.28038 0.65652 0.0
H546 H 0.30063 0.2587 0.57349 0.0
C547 C 0.29661 0.25271 0.67044 0.0
H548 H 0.30756 0.30309 0.60983 0.0
C549 C 0.29271 0.22741 0.64971 0.0
C550 C 0.29456 0.22916 0.61455 0.0
H551 H 0.29572 0.25059 0.69745 0.0
H552 H 0.28942 0.20657 0.66131 0.0
C553 C 0.29953 0.25674 0.60053 0.0
C554 C 0.4447 0.86917 0.21856 0.0
C555 C 0.40837 0.84593 0.2241 0.0
H556 H 0.49327 0.88912 0.18408 0.0
C557 C 0.39314 0.8246 0.19797 0.0
H558 H 0.45709 0.88605 0.23814 0.0
C559 C 0.41427 0.82598 0.16732 0.0
C560 C 0.4509 0.849 0.1617 0.0
H561 H 0.36545 0.80624 0.20144 0.0
H562 H 0.4024 0.8084 0.14841 0.0
C563 C 0.46558 0.8708 0.18761 0.0
C564 C 0.73736 0.15822 0.34753 0.0
C565 C 0.77173 0.17451 0.32906 0.0
H566 H 0.71468 0.12351 0.38131 0.0
C567 C 0.81109 0.16844 0.33182 0.0
H568 H 0.70652 0.16226 0.34569 0.0
C569 C 0.81615 0.14673 0.35293 0.0
C570 C 0.78173 0.13014 0.37132 0.0
H571 H 0.83827 0.18082 0.31811 0.0
H572 H 0.84734 0.14335 0.35516 0.0
C573 C 0.74218 0.13611 0.36817 0.0
C574 C 0.33989 0.33168 0.82978 0.0
C575 C 0.35413 0.3572 0.81141 0.0
H576 H 0.3512 0.30691 0.87041 0.0
C577 C 0.39047 0.37906 0.82263 0.0
H578 H 0.31232 0.31419 0.82155 0.0
C579 C 0.41239 0.37526 0.85148 0.0
C580 C 0.39894 0.34921 0.86931 0.0
H581 H 0.40211 0.39902 0.80901 0.0
H582 H 0.43996 0.39272 0.85963 0.0
C583 C 0.36221 0.32758 0.85807 0.0
C584 C 0.38404 0.94589 0.4063 0.0
C585 C 0.35091 0.92443 0.38986 0.0
H586 H 0.40218 0.98618 0.43656 0.0
C587 C 0.30963 0.92772 0.3914 0.0
H588 H 0.41619 0.94399 0.40563 0.0
C589 C 0.30161 0.95184 0.40926 0.0
C590 C 0.33476 0.9733 0.42566 0.0
H591 H 0.28341 0.91155 0.37904 0.0
H592 H 0.26952 0.95387 0.40993 0.0
C593 C 0.37607 0.97013 0.42389 0.0
C594 C 0.73202 0.84379 0.81869 0.0
C595 C 0.72605 0.81673 0.80039 0.0
H596 H 0.71354 0.8671 0.86082 0.0
C597 C 0.6959 0.79169 0.81159 0.0
H598 H 0.75488 0.86355 0.81072 0.0
C599 C 0.67209 0.79377 0.84045 0.0
C600 C 0.67824 0.82088 0.85875 0.0
H601 H 0.69051 0.77053 0.79799 0.0
H602 H 0.64924 0.77412 0.84867 0.0
C603 C 0.70846 0.84583 0.84752 0.0
loop_
_geom_bond_atom_site_label_1
_geom_bond_atom_site_label_2
_geom_bond_distance
_geom_bond_site_symmetry_2
_ccdc_geom_bond_type
O0 Cd1 2.300 . S
O0 C7 1.275 . S
Cd1 O0 2.300 . S
Cd1 O9 2.381 . S
Cd1 O10 2.378 . S
O2 Cd3 2.385 . S
O2 C7 1.255 . S
Cd3 O2 2.385 . S
Cd3 O4 2.317 . S
O4 Cd3 2.317 . S
O4 C5 1.232 . S
C5 O4 1.232 . S
C5 O6 1.218 . S
O6 C5 1.218 . S
C7 O0 1.275 . S
C7 O2 1.255 . S
C8 O9 1.258 . S
C8 O10 1.256 . S
O9 Cd1 2.381 . S
O9 C8 1.258 . S
O10 Cd1 2.378 . S
O10 C8 1.256 . S
O11 Cd12 2.300 . S
O11 C18 1.275 . S
Cd12 O11 2.300 . S
Cd12 O20 2.381 . S
Cd12 O21 2.378 . S
O13 Cd14 2.385 . S
O13 C18 1.255 . S
Cd14 O13 2.385 . S
Cd14 O15 2.317 . S
O15 Cd14 2.317 . S
O15 C16 1.232 . S
C16 O15 1.232 . S
C16 O17 1.218 . S
O17 C16 1.218 . S
C18 O11 1.275 . S
C18 O13 1.255 . S
C19 O20 1.258 . S
C19 O21 1.256 . S
O20 Cd12 2.381 . S
O20 C19 1.258 . S
O21 Cd12 2.378 . S
O21 C19 1.256 . S
O22 Cd23 2.300 . S
O22 C29 1.275 . S
Cd23 O22 2.300 . S
Cd23 O31 2.381 . S
Cd23 O32 2.378 . S
O24 Cd25 2.385 . S
O24 C29 1.255 . S
Cd25 O24 2.385 . S
Cd25 O26 2.317 . S
O26 Cd25 2.317 . S
O26 C27 1.232 . S
C27 O26 1.232 . S
C27 O28 1.218 . S
O28 C27 1.218 . S
C29 O22 1.275 . S
C29 O24 1.255 . S
C30 O31 1.258 . S
C30 O32 1.256 . S
O31 Cd23 2.381 . S
O31 C30 1.258 . S
O32 Cd23 2.378 . S
O32 C30 1.256 . S
O33 Cd34 2.300 . S
O33 C40 1.275 . S
Cd34 O33 2.300 . S
Cd34 O42 2.381 . S
Cd34 O43 2.378 . S
O35 Cd36 2.385 . S
O35 C40 1.255 . S
Cd36 O35 2.385 . S
Cd36 O37 2.317 . S
O37 Cd36 2.317 . S
O37 C38 1.232 . S
C38 O37 1.232 . S
C38 O39 1.218 . S
O39 C38 1.218 . S
C40 O33 1.275 . S
C40 O35 1.255 . S
C41 O42 1.258 . S
C41 O43 1.256 . S
O42 Cd34 2.381 . S
O42 C41 1.258 . S
O43 Cd34 2.378 . S
O43 C41 1.256 . S
O44 Cd45 2.300 . S
O44 C51 1.275 . S
Cd45 O44 2.300 . S
Cd45 O53 2.381 . S
Cd45 O54 2.378 . S
O46 Cd47 2.385 . S
O46 C51 1.255 . S
Cd47 O46 2.385 . S
Cd47 O48 2.317 . S
O48 Cd47 2.317 . S
O48 C49 1.232 . S
C49 O48 1.232 . S
C49 O50 1.218 . S
O50 C49 1.218 . S
C51 O44 1.275 . S
C51 O46 1.255 . S
C52 O53 1.258 . S
C52 O54 1.256 . S
O53 Cd45 2.381 . S
O53 C52 1.258 . S
O54 Cd45 2.378 . S
O54 C52 1.256 . S
O55 Cd56 2.300 . S
O55 C62 1.275 . S
Cd56 O55 2.300 . S
Cd56 O64 2.381 . S
Cd56 O65 2.378 . S
O57 Cd58 2.385 . S
O57 C62 1.255 . S
Cd58 O57 2.385 . S
Cd58 O59 2.317 . S
O59 Cd58 2.317 . S
O59 C60 1.232 . S
C60 O59 1.232 . S
C60 O61 1.218 . S
O61 C60 1.218 . S
C62 O55 1.275 . S
C62 O57 1.255 . S
C63 O64 1.258 . S
C63 O65 1.256 . S
O64 Cd56 2.381 . S
O64 C63 1.258 . S
O65 Cd56 2.378 . S
O65 C63 1.256 . S
O66 Cd67 2.300 . S
O66 C73 1.275 . S
Cd67 O66 2.300 . S
Cd67 O75 2.381 . S
Cd67 O76 2.378 . S
O68 Cd69 2.385 . S
O68 C73 1.255 . S
Cd69 O68 2.385 . S
Cd69 O70 2.317 . S
O70 Cd69 2.317 . S
O70 C71 1.232 . S
C71 O70 1.232 . S
C71 O72 1.218 . S
O72 C71 1.218 . S
C73 O66 1.275 . S
C73 O68 1.255 . S
C74 O75 1.258 . S
C74 O76 1.256 . S
O75 Cd67 2.381 . S
O75 C74 1.258 . S
O76 Cd67 2.378 . S
O76 C74 1.256 . S
O77 Cd78 2.300 . S
O77 C84 1.275 . S
Cd78 O77 2.300 . S
Cd78 O86 2.381 . S
Cd78 O87 2.378 . S
O79 Cd80 2.385 . S
O79 C84 1.255 . S
Cd80 O79 2.385 . S
Cd80 O81 2.317 . S
O81 Cd80 2.317 . S
O81 C82 1.232 . S
C82 O81 1.232 . S
C82 O83 1.218 . S
O83 C82 1.218 . S
C84 O77 1.275 . S
C84 O79 1.255 . S
C85 O86 1.258 . S
C85 O87 1.256 . S
O86 Cd78 2.381 . S
O86 C85 1.258 . S
O87 Cd78 2.378 . S
O87 C85 1.256 . S
C88 C89 1.384 . S
C88 C90 1.384 1_655 S
C88 H116 0.931 . S
C89 C88 1.384 . S
C89 C92 1.382 . S
C90 C88 1.384 1_455 S
C90 C91 1.381 1_455 S
C90 H117 0.930 . S
C91 C90 1.381 1_655 S
C91 C93 1.381 . S
C91 C94 1.487 1_655 S
C92 C89 1.382 . S
C92 C93 1.387 . S
C92 H118 0.930 . S
C93 C91 1.381 . S
C93 C92 1.387 . S
C93 H119 0.931 . S
C94 C91 1.487 1_455 S
C94 C101 1.399 . S
C94 N132 1.343 . S
C95 C96 1.384 . S
C95 C97 1.384 . S
C95 H120 0.931 . S
C96 C95 1.384 . S
C96 C99 1.382 . S
C97 C95 1.384 . S
C97 C98 1.381 . S
C97 H121 0.930 . S
C98 C97 1.381 . S
C98 C100 1.381 . S
C98 C101 1.487 . S
C99 C96 1.382 . S
C99 C100 1.387 . S
C99 H122 0.930 . S
C100 C98 1.381 . S
C100 C99 1.387 . S
C100 H123 0.931 . S
C101 C94 1.399 . S
C101 C98 1.487 . S
C101 N133 1.343 . S
C102 C103 1.384 . S
C102 C104 1.384 . S
C102 H124 0.931 . S
C103 C102 1.384 . S
C103 C106 1.382 . S
C104 C102 1.384 . S
C104 C105 1.381 . S
C104 H125 0.930 . S
C105 C104 1.381 . S
C105 C107 1.381 . S
C105 C108 1.487 . S
C106 C103 1.382 . S
C106 C107 1.387 . S
C106 H126 0.930 . S
C107 C105 1.381 . S
C107 C106 1.387 . S
C107 H127 0.931 . S
C108 C105 1.487 . S
C108 C115 1.399 . S
C108 N133 1.343 . S
C109 C110 1.384 . S
C109 C111 1.384 1_655 S
C109 H128 0.931 . S
C110 C109 1.384 . S
C110 C113 1.382 . S
C111 C109 1.384 1_455 S
C111 C112 1.381 1_455 S
C111 H129 0.930 . S
C112 C111 1.381 1_655 S
C112 C114 1.381 . S
C112 C115 1.487 1_655 S
C113 C110 1.382 . S
C113 C114 1.387 . S
C113 H130 0.930 . S
C114 C112 1.381 . S
C114 C113 1.387 . S
C114 H131 0.931 . S
C115 C108 1.399 . S
C115 C112 1.487 1_455 S
C115 N132 1.343 . S
H116 C88 0.931 . S
H117 C90 0.930 . S
H118 C92 0.930 . S
H119 C93 0.931 . S
H120 C95 0.931 . S
H121 C97 0.930 . S
H122 C99 0.930 . S
H123 C100 0.931 . S
H124 C102 0.931 . S
H125 C104 0.930 . S
H126 C106 0.930 . S
H127 C107 0.931 . S
H128 C109 0.931 . S
H129 C111 0.930 . S
H130 C113 0.930 . S
H131 C114 0.931 . S
N132 C94 1.343 . S
N132 C115 1.343 . S
N133 C101 1.343 . S
N133 C108 1.343 . S
C134 C135 1.384 . S
C134 C136 1.384 . S
C134 H162 0.931 . S
C135 C134 1.384 . S
C135 C138 1.382 . S
C136 C134 1.384 . S
C136 C137 1.381 . S
C136 H163 0.930 . S
C137 C136 1.381 . S
C137 C139 1.381 . S
C137 C140 1.487 . S
C138 C135 1.382 . S
C138 C139 1.387 . S
C138 H164 0.930 . S
C139 C137 1.381 . S
C139 C138 1.387 . S
C139 H165 0.931 . S
C140 C137 1.487 . S
C140 C147 1.399 1_655 S
C140 N178 1.343 . S
C141 C142 1.384 . S
C141 C143 1.384 . S
C141 H166 0.931 . S
C142 C141 1.384 . S
C142 C145 1.382 . S
C143 C141 1.384 . S
C143 C144 1.381 . S
C143 H167 0.930 . S
C144 C143 1.381 . S
C144 C146 1.381 . S
C144 C147 1.487 . S
C145 C142 1.382 . S
C145 C146 1.387 . S
C145 H168 0.930 . S
C146 C144 1.381 . S
C146 C145 1.387 . S
C146 H169 0.931 . S
C147 C140 1.399 1_455 S
C147 C144 1.487 . S
C147 N179 1.343 . S
C148 C149 1.384 . S
C148 C150 1.384 . S
C148 H170 0.931 . S
C149 C148 1.384 . S
C149 C152 1.382 . S
C150 C148 1.384 . S
C150 C151 1.381 . S
C150 H171 0.930 . S
C151 C150 1.381 . S
C151 C153 1.381 . S
C151 C154 1.487 . S
C152 C149 1.382 . S
C152 C153 1.387 . S
C152 H172 0.930 . S
C153 C151 1.381 . S
C153 C152 1.387 . S
C153 H173 0.931 . S
C154 C151 1.487 . S
C154 C161 1.399 1_455 S
C154 N179 1.343 . S
C155 C156 1.384 . S
C155 C157 1.384 . S
C155 H174 0.931 . S
C156 C155 1.384 . S
C156 C159 1.382 . S
C157 C155 1.384 . S
C157 C158 1.381 . S
C157 H175 0.930 . S
C158 C157 1.381 . S
C158 C160 1.381 . S
C158 C161 1.487 . S
C159 C156 1.382 . S
C159 C160 1.387 . S
C159 H176 0.930 . S
C160 C158 1.381 . S
C160 C159 1.387 . S
C160 H177 0.931 . S
C161 C154 1.399 1_655 S
C161 C158 1.487 . S
C161 N178 1.343 . S
H162 C134 0.931 . S
H163 C136 0.930 . S
H164 C138 0.930 . S
H165 C139 0.931 . S
H166 C141 0.931 . S
H167 C143 0.930 . S
H168 C145 0.930 . S
H169 C146 0.931 . S
H170 C148 0.931 . S
H171 C150 0.930 . S
H172 C152 0.930 . S
H173 C153 0.931 . S
H174 C155 0.931 . S
H175 C157 0.930 . S
H176 C159 0.930 . S
H177 C160 0.931 . S
N178 C140 1.343 . S
N178 C161 1.343 . S
N179 C147 1.343 . S
N179 C154 1.343 . S
C180 C181 1.384 . S
C180 C182 1.384 . S
C180 H208 0.931 . S
C181 C180 1.384 . S
C181 C184 1.382 . S
C182 C180 1.384 . S
C182 C183 1.381 . S
C182 H209 0.930 . S
C183 C182 1.381 . S
C183 C185 1.381 . S
C183 C186 1.487 . S
C184 C181 1.382 . S
C184 C185 1.387 . S
C184 H210 0.930 . S
C185 C183 1.381 . S
C185 C184 1.387 . S
C185 H211 0.931 . S
C186 C183 1.487 . S
C186 C193 1.399 . S
C186 N224 1.343 . S
C187 C188 1.384 . S
C187 C189 1.384 . S
C187 H212 0.931 . S
C188 C187 1.384 . S
C188 C191 1.382 . S
C189 C187 1.384 . S
C189 C190 1.381 . S
C189 H213 0.930 . S
C190 C189 1.381 . S
C190 C192 1.381 . S
C190 C193 1.487 . S
C191 C188 1.382 . S
C191 C192 1.387 . S
C191 H214 0.930 . S
C192 C190 1.381 . S
C192 C191 1.387 . S
C192 H215 0.931 . S
C193 C186 1.399 . S
C193 C190 1.487 . S
C193 N225 1.343 . S
C194 C195 1.384 . S
C194 C196 1.384 . S
C194 H216 0.931 . S
C195 C194 1.384 . S
C195 C198 1.382 . S
C196 C194 1.384 . S
C196 C197 1.381 . S
C196 H217 0.930 . S
C197 C196 1.381 . S
C197 C199 1.381 . S
C197 C200 1.487 . S
C198 C195 1.382 . S
C198 C199 1.387 . S
C198 H218 0.930 . S
C199 C197 1.381 . S
C199 C198 1.387 . S
C199 H219 0.931 . S
C200 C197 1.487 . S
C200 C207 1.399 . S
C200 N225 1.343 . S
C201 C202 1.384 . S
C201 C203 1.384 . S
C201 H220 0.931 1_545 S
C202 C201 1.384 . S
C202 C205 1.382 . S
C203 C201 1.384 . S
C203 C204 1.381 . S
C203 H221 0.930 . S
C204 C203 1.381 . S
C204 C206 1.381 . S
C204 C207 1.487 . S
C205 C202 1.382 . S
C205 C206 1.387 . S
C205 H222 0.930 . S
C206 C204 1.381 . S
C206 C205 1.387 . S
C206 H223 0.931 . S
C207 C200 1.399 . S
C207 C204 1.487 . S
C207 N224 1.343 . S
H208 C180 0.931 . S
H209 C182 0.930 . S
H210 C184 0.930 . S
H211 C185 0.931 . S
H212 C187 0.931 . S
H213 C189 0.930 . S
H214 C191 0.930 . S
H215 C192 0.931 . S
H216 C194 0.931 . S
H217 C196 0.930 . S
H218 C198 0.930 . S
H219 C199 0.931 . S
H220 C201 0.931 1_565 S
H221 C203 0.930 . S
H222 C205 0.930 . S
H223 C206 0.931 . S
N224 C186 1.343 . S
N224 C207 1.343 . S
N225 C193 1.343 . S
N225 C200 1.343 . S
C226 C227 1.384 . S
C226 C228 1.384 . S
C226 H254 0.931 . S
C227 C226 1.384 . S
C227 C230 1.382 . S
C228 C226 1.384 . S
C228 C229 1.381 . S
C228 H255 0.930 . S
C229 C228 1.381 . S
C229 C231 1.381 . S
C229 C232 1.487 . S
C230 C227 1.382 . S
C230 C231 1.387 . S
C230 H256 0.930 . S
C231 C229 1.381 . S
C231 C230 1.387 . S
C231 H257 0.931 . S
C232 C229 1.487 . S
C232 C239 1.399 . S
C232 N270 1.343 1_556 S
C233 C234 1.384 . S
C233 C235 1.384 . S
C233 H258 0.931 . S
C234 C233 1.384 . S
C234 C237 1.382 . S
C235 C233 1.384 . S
C235 C236 1.381 . S
C235 H259 0.930 . S
C236 C235 1.381 . S
C236 C238 1.381 . S
C236 C239 1.487 . S
C237 C234 1.382 . S
C237 C238 1.387 . S
C237 H260 0.930 . S
C238 C236 1.381 . S
C238 C237 1.387 . S
C238 H261 0.931 . S
C239 C232 1.399 . S
C239 C236 1.487 . S
C239 N271 1.343 1_556 S
C240 C241 1.384 . S
C240 C242 1.384 . S
C240 H262 0.931 . S
C241 C240 1.384 . S
C241 C244 1.382 . S
C242 C240 1.384 . S
C242 C243 1.381 . S
C242 H263 0.930 . S
C243 C242 1.381 . S
C243 C245 1.381 . S
C243 C246 1.487 . S
C244 C241 1.382 . S
C244 C245 1.387 . S
C244 H264 0.930 . S
C245 C243 1.381 . S
C245 C244 1.387 . S
C245 H265 0.931 . S
C246 C243 1.487 . S
C246 C253 1.399 . S
C246 N271 1.343 . S
C247 C248 1.384 . S
C247 C249 1.384 . S
C247 H266 0.931 . S
C248 C247 1.384 . S
C248 C251 1.382 . S
C249 C247 1.384 . S
C249 C250 1.381 . S
C249 H267 0.930 . S
C250 C249 1.381 . S
C250 C252 1.381 . S
C250 C253 1.487 . S
C251 C248 1.382 . S
C251 C252 1.387 . S
C251 H268 0.930 . S
C252 C250 1.381 . S
C252 C251 1.387 . S
C252 H269 0.931 . S
C253 C246 1.399 . S
C253 C250 1.487 . S
C253 N270 1.343 . S
H254 C226 0.931 . S
H255 C228 0.930 . S
H256 C230 0.930 . S
H257 C231 0.931 . S
H258 C233 0.931 . S
H259 C235 0.930 . S
H260 C237 0.930 . S
H261 C238 0.931 . S
H262 C240 0.931 . S
H263 C242 0.930 . S
H264 C244 0.930 . S
H265 C245 0.931 . S
H266 C247 0.931 . S
H267 C249 0.930 . S
H268 C251 0.930 . S
H269 C252 0.931 . S
N270 C232 1.343 1_554 S
N270 C253 1.343 . S
N271 C239 1.343 1_554 S
N271 C246 1.343 . S
C272 C273 1.384 . S
C272 C274 1.384 . S
C272 H300 0.931 . S
C273 C272 1.384 . S
C273 C276 1.382 . S
C274 C272 1.384 . S
C274 C275 1.381 . S
C274 H301 0.930 . S
C275 C274 1.381 . S
C275 C277 1.381 . S
C275 C278 1.487 . S
C276 C273 1.382 . S
C276 C277 1.387 . S
C276 H302 0.930 . S
C277 C275 1.381 . S
C277 C276 1.387 . S
C277 H303 0.931 . S
C278 C275 1.487 . S
C278 C285 1.399 . S
C278 N316 1.343 . S
C279 C280 1.384 . S
C279 C281 1.384 . S
C279 H304 0.931 . S
C280 C279 1.384 . S
C280 C283 1.382 . S
C281 C279 1.384 . S
C281 C282 1.381 . S
C281 H305 0.930 . S
C282 C281 1.381 . S
C282 C284 1.381 . S
C282 C285 1.487 . S
C283 C280 1.382 . S
C283 C284 1.387 . S
C283 H306 0.930 . S
C284 C282 1.381 . S
C284 C283 1.387 . S
C284 H307 0.931 . S
C285 C278 1.399 . S
C285 C282 1.487 . S
C285 N317 1.343 . S
C286 C287 1.384 . S
C286 C288 1.384 . S
C286 H308 0.931 . S
C287 C286 1.384 . S
C287 C290 1.382 . S
C288 C286 1.384 . S
C288 C289 1.381 . S
C288 H309 0.930 . S
C289 C288 1.381 . S
C289 C291 1.381 . S
C289 C292 1.487 . S
C290 C287 1.382 . S
C290 C291 1.387 . S
C290 H310 0.930 . S
C291 C289 1.381 . S
C291 C290 1.387 . S
C291 H311 0.931 . S
C292 C289 1.487 . S
C292 C299 1.399 . S
C292 N317 1.343 1_565 S
C293 C294 1.384 . S
C293 C295 1.384 . S
C293 H312 0.931 . S
C294 C293 1.384 . S
C294 C297 1.382 . S
C295 C293 1.384 . S
C295 C296 1.381 . S
C295 H313 0.930 . S
C296 C295 1.381 . S
C296 C298 1.381 . S
C296 C299 1.487 . S
C297 C294 1.382 . S
C297 C298 1.387 . S
C297 H314 0.930 . S
C298 C296 1.381 . S
C298 C297 1.387 . S
C298 H315 0.931 . S
C299 C292 1.399 . S
C299 C296 1.487 . S
C299 N316 1.343 1_565 S
H300 C272 0.931 . S
H301 C274 0.930 . S
H302 C276 0.930 . S
H303 C277 0.931 . S
H304 C279 0.931 . S
H305 C281 0.930 . S
H306 C283 0.930 . S
H307 C284 0.931 . S
H308 C286 0.931 . S
H309 C288 0.930 . S
H310 C290 0.930 . S
H311 C291 0.931 . S
H312 C293 0.931 . S
H313 C295 0.930 . S
H314 C297 0.930 . S
H315 C298 0.931 . S
N316 C278 1.343 . S
N316 C299 1.343 1_545 S
N317 C285 1.343 . S
N317 C292 1.343 1_545 S
C318 C319 1.384 . S
C318 C320 1.384 . S
C318 H346 0.931 . S
C319 C318 1.384 . S
C319 C322 1.382 . S
C320 C318 1.384 . S
C320 C321 1.381 . S
C320 H347 0.930 . S
C321 C320 1.381 . S
C321 C323 1.381 . S
C321 C324 1.487 . S
C322 C319 1.382 . S
C322 C323 1.387 . S
C322 H348 0.930 . S
C323 C321 1.381 . S
C323 C322 1.387 . S
C323 H349 0.931 . S
C324 C321 1.487 . S
C324 C331 1.399 . S
C324 N362 1.343 1_556 S
C325 C326 1.384 . S
C325 C327 1.384 . S
C325 H350 0.931 . S
C326 C325 1.384 . S
C326 C329 1.382 . S
C327 C325 1.384 . S
C327 C328 1.381 . S
C327 H351 0.930 . S
C328 C327 1.381 . S
C328 C330 1.381 . S
C328 C331 1.487 . S
C329 C326 1.382 . S
C329 C330 1.387 . S
C329 H352 0.930 . S
C330 C328 1.381 . S
C330 C329 1.387 . S
C330 H353 0.931 . S
C331 C324 1.399 . S
C331 C328 1.487 . S
C331 N363 1.343 1_556 S
C332 C333 1.384 . S
C332 C334 1.384 . S
C332 H354 0.931 . S
C333 C332 1.384 . S
C333 C336 1.382 . S
C334 C332 1.384 . S
C334 C335 1.381 . S
C334 H355 0.930 . S
C335 C334 1.381 . S
C335 C337 1.381 . S
C335 C338 1.487 . S
C336 C333 1.382 . S
C336 C337 1.387 . S
C336 H356 0.930 . S
C337 C335 1.381 . S
C337 C336 1.387 . S
C337 H357 0.931 . S
C338 C335 1.487 . S
C338 C345 1.399 . S
C338 N363 1.343 . S
C339 C340 1.384 . S
C339 C341 1.384 . S
C339 H358 0.931 . S
C340 C339 1.384 . S
C340 C343 1.382 . S
C341 C339 1.384 . S
C341 C342 1.381 . S
C341 H359 0.930 . S
C342 C341 1.381 . S
C342 C344 1.381 . S
C342 C345 1.487 . S
C343 C340 1.382 . S
C343 C344 1.387 . S
C343 H360 0.930 . S
C344 C342 1.381 . S
C344 C343 1.387 . S
C344 H361 0.931 . S
C345 C338 1.399 . S
C345 C342 1.487 . S
C345 N362 1.343 . S
H346 C318 0.931 . S
H347 C320 0.930 . S
H348 C322 0.930 . S
H349 C323 0.931 . S
H350 C325 0.931 . S
H351 C327 0.930 . S
H352 C329 0.930 . S
H353 C330 0.931 . S
H354 C332 0.931 . S
H355 C334 0.930 . S
H356 C336 0.930 . S
H357 C337 0.931 . S
H358 C339 0.931 . S
H359 C341 0.930 . S
H360 C343 0.930 . S
H361 C344 0.931 . S
N362 C324 1.343 1_554 S
N362 C345 1.343 . S
N363 C331 1.343 1_554 S
N363 C338 1.343 . S
C364 C365 1.387 . S
C364 H368 0.950 . S
C364 C373 1.390 . S
C365 C364 1.387 . S
C365 C367 1.387 . S
H366 C373 0.950 . S
C367 C365 1.387 . S
C367 C369 1.390 . S
C367 H371 0.950 . S
H368 C364 0.950 . S
C369 C367 1.390 . S
C369 C370 1.387 . S
C369 H372 0.950 . S
C370 C369 1.387 . S
C370 C373 1.387 . S
H371 C367 0.950 . S
H372 C369 0.950 . S
C373 C364 1.390 . S
C373 H366 0.950 . S
C373 C370 1.387 . S
C374 C375 1.387 . S
C374 H378 0.950 . S
C374 C383 1.390 . S
C375 C374 1.387 . S
C375 C377 1.387 . S
H376 C383 0.950 . S
C377 C375 1.387 . S
C377 C379 1.390 . S
C377 H381 0.950 . S
H378 C374 0.950 . S
C379 C377 1.390 . S
C379 C380 1.387 . S
C379 H382 0.950 . S
C380 C379 1.387 . S
C380 C383 1.387 . S
H381 C377 0.950 . S
H382 C379 0.950 . S
C383 C374 1.390 . S
C383 H376 0.950 . S
C383 C380 1.387 . S
C384 C385 1.387 . S
C384 H388 0.950 . S
C384 C393 1.390 . S
C385 C384 1.387 . S
C385 C387 1.387 . S
H386 C393 0.950 . S
C387 C385 1.387 . S
C387 C389 1.390 . S
C387 H391 0.950 . S
H388 C384 0.950 . S
C389 C387 1.390 . S
C389 C390 1.387 . S
C389 H392 0.950 . S
C390 C389 1.387 . S
C390 C393 1.387 . S
H391 C387 0.950 . S
H392 C389 0.950 . S
C393 C384 1.390 . S
C393 H386 0.950 . S
C393 C390 1.387 . S
C394 C395 1.387 . S
C394 H398 0.950 . S
C394 C403 1.390 . S
C395 C394 1.387 . S
C395 C397 1.387 . S
H396 C403 0.950 . S
C397 C395 1.387 . S
C397 C399 1.390 . S
C397 H401 0.950 . S
H398 C394 0.950 . S
C399 C397 1.390 . S
C399 C400 1.387 . S
C399 H402 0.950 . S
C400 C399 1.387 . S
C400 C403 1.387 . S
H401 C397 0.950 . S
H402 C399 0.950 . S
C403 C394 1.390 . S
C403 H396 0.950 . S
C403 C400 1.387 . S
C404 C405 1.387 . S
C404 H408 0.950 . S
C404 C413 1.390 . S
C405 C404 1.387 . S
C405 C407 1.387 . S
H406 C413 0.950 . S
C407 C405 1.387 . S
C407 C409 1.390 . S
C407 H411 0.950 . S
H408 C404 0.950 . S
C409 C407 1.390 . S
C409 C410 1.387 . S
C409 H412 0.950 . S
C410 C409 1.387 . S
C410 C413 1.387 . S
H411 C407 0.950 . S
H412 C409 0.950 . S
C413 C404 1.390 . S
C413 H406 0.950 . S
C413 C410 1.387 . S
C414 C415 1.387 . S
C414 H418 0.950 . S
C414 C423 1.390 . S
C415 C414 1.387 . S
C415 C417 1.387 . S
H416 C423 0.950 . S
C417 C415 1.387 . S
C417 C419 1.390 . S
C417 H421 0.950 . S
H418 C414 0.950 . S
C419 C417 1.390 . S
C419 C420 1.387 . S
C419 H422 0.950 . S
C420 C419 1.387 . S
C420 C423 1.387 . S
H421 C417 0.950 . S
H422 C419 0.950 . S
C423 C414 1.390 . S
C423 H416 0.950 . S
C423 C420 1.387 . S
C424 C425 1.387 . S
C424 H428 0.950 . S
C424 C433 1.390 . S
C425 C424 1.387 . S
C425 C427 1.387 . S
H426 C433 0.950 . S
C427 C425 1.387 . S
C427 C429 1.390 . S
C427 H431 0.950 . S
H428 C424 0.950 . S
C429 C427 1.390 . S
C429 C430 1.387 . S
C429 H432 0.950 . S
C430 C429 1.387 . S
C430 C433 1.387 . S
H431 C427 0.950 . S
H432 C429 0.950 . S
C433 C424 1.390 . S
C433 H426 0.950 . S
C433 C430 1.387 . S
C434 C435 1.387 . S
C434 H438 0.950 . S
C434 C443 1.390 . S
C435 C434 1.387 . S
C435 C437 1.387 . S
H436 C443 0.950 . S
C437 C435 1.387 . S
C437 C439 1.390 . S
C437 H441 0.950 . S
H438 C434 0.950 . S
C439 C437 1.390 . S
C439 C440 1.387 . S
C439 H442 0.950 . S
C440 C439 1.387 . S
C440 C443 1.387 . S
H441 C437 0.950 . S
H442 C439 0.950 . S
C443 C434 1.390 . S
C443 H436 0.950 . S
C443 C440 1.387 . S
C444 C445 1.387 . S
C444 H448 0.950 . S
C444 C453 1.390 . S
C445 C444 1.387 . S
C445 C447 1.387 . S
H446 C453 0.950 . S
C447 C445 1.387 . S
C447 C449 1.390 . S
C447 H451 0.950 . S
H448 C444 0.950 . S
C449 C447 1.390 . S
C449 C450 1.387 . S
C449 H452 0.950 1_565 S
C450 C449 1.387 . S
C450 C453 1.387 . S
H451 C447 0.950 . S
H452 C449 0.950 1_545 S
C453 C444 1.390 . S
C453 H446 0.950 . S
C453 C450 1.387 . S
C454 C455 1.387 . S
C454 H458 0.950 . S
C454 C463 1.390 . S
C455 C454 1.387 . S
C455 C457 1.387 . S
H456 C463 0.950 . S
C457 C455 1.387 . S
C457 C459 1.390 . S
C457 H461 0.950 . S
H458 C454 0.950 . S
C459 C457 1.390 . S
C459 C460 1.387 . S
C459 H462 0.950 . S
C460 C459 1.387 . S
C460 C463 1.387 . S
H461 C457 0.950 . S
H462 C459 0.950 . S
C463 C454 1.390 . S
C463 H456 0.950 . S
C463 C460 1.387 . S
C464 C465 1.387 . S
C464 H468 0.950 . S
C464 C473 1.390 . S
C465 C464 1.387 . S
C465 C467 1.387 . S
H466 C473 0.950 . S
C467 C465 1.387 . S
C467 C469 1.390 . S
C467 H471 0.950 . S
H468 C464 0.950 . S
C469 C467 1.390 . S
C469 C470 1.387 . S
C469 H472 0.950 . S
C470 C469 1.387 . S
C470 C473 1.387 . S
H471 C467 0.950 . S
H472 C469 0.950 . S
C473 C464 1.390 . S
C473 H466 0.950 . S
C473 C470 1.387 . S
C474 C475 1.387 . S
C474 H478 0.950 . S
C474 C483 1.390 . S
C475 C474 1.387 . S
C475 C477 1.387 . S
H476 C483 0.950 . S
C477 C475 1.387 . S
C477 C479 1.390 . S
C477 H481 0.950 . S
H478 C474 0.950 . S
C479 C477 1.390 . S
C479 C480 1.387 . S
C479 H482 0.950 . S
C480 C479 1.387 . S
C480 C483 1.387 . S
H481 C477 0.950 . S
H482 C479 0.950 . S
C483 C474 1.390 . S
C483 H476 0.950 . S
C483 C480 1.387 . S
C484 C485 1.387 . S
C484 H488 0.950 . S
C484 C493 1.390 . S
C485 C484 1.387 . S
C485 C487 1.387 . S
H486 C493 0.950 . S
C487 C485 1.387 . S
C487 C489 1.390 . S
C487 H491 0.950 . S
H488 C484 0.950 . S
C489 C487 1.390 . S
C489 C490 1.387 . S
C489 H492 0.950 . S
C490 C489 1.387 . S
C490 C493 1.387 . S
H491 C487 0.950 . S
H492 C489 0.950 . S
C493 C484 1.390 . S
C493 H486 0.950 . S
C493 C490 1.387 . S
C494 C495 1.387 . S
C494 H498 0.950 . S
C494 C503 1.390 . S
C495 C494 1.387 . S
C495 C497 1.387 . S
H496 C503 0.950 . S
C497 C495 1.387 . S
C497 C499 1.390 . S
C497 H501 0.950 . S
H498 C494 0.950 . S
C499 C497 1.390 . S
C499 C500 1.387 . S
C499 H502 0.950 . S
C500 C499 1.387 . S
C500 C503 1.387 . S
H501 C497 0.950 . S
H502 C499 0.950 . S
C503 C494 1.390 . S
C503 H496 0.950 . S
C503 C500 1.387 . S
C504 C505 1.387 . S
C504 H508 0.950 . S
C504 C513 1.390 . S
C505 C504 1.387 . S
C505 C507 1.387 . S
H506 C513 0.950 . S
C507 C505 1.387 . S
C507 C509 1.390 . S
C507 H511 0.950 . S
H508 C504 0.950 . S
C509 C507 1.390 . S
C509 C510 1.387 . S
C509 H512 0.950 . S
C510 C509 1.387 . S
C510 C513 1.387 . S
H511 C507 0.950 . S
H512 C509 0.950 . S
C513 C504 1.390 . S
C513 H506 0.950 . S
C513 C510 1.387 . S
C514 C515 1.387 . S
C514 H518 0.950 . S
C514 C523 1.390 . S
C515 C514 1.387 . S
C515 C517 1.387 . S
H516 C523 0.950 . S
C517 C515 1.387 . S
C517 C519 1.390 . S
C517 H521 0.950 . S
H518 C514 0.950 . S
C519 C517 1.390 . S
C519 C520 1.387 . S
C519 H522 0.950 . S
C520 C519 1.387 . S
C520 C523 1.387 . S
H521 C517 0.950 . S
H522 C519 0.950 . S
C523 C514 1.390 . S
C523 H516 0.950 . S
C523 C520 1.387 . S
C524 C525 1.387 . S
C524 H528 0.950 . S
C524 C533 1.390 . S
C525 C524 1.387 . S
C525 C527 1.387 . S
H526 C533 0.950 . S
C527 C525 1.387 . S
C527 C529 1.390 . S
C527 H531 0.950 . S
H528 C524 0.950 . S
C529 C527 1.390 . S
C529 C530 1.387 . S
C529 H532 0.950 . S
C530 C529 1.387 . S
C530 C533 1.387 . S
H531 C527 0.950 . S
H532 C529 0.950 . S
C533 C524 1.390 . S
C533 H526 0.950 . S
C533 C530 1.387 . S
C534 C535 1.387 . S
C534 H538 0.950 . S
C534 C543 1.390 . S
C535 C534 1.387 . S
C535 C537 1.387 . S
H536 C543 0.950 . S
C537 C535 1.387 . S
C537 C539 1.390 . S
C537 H541 0.950 . S
H538 C534 0.950 . S
C539 C537 1.390 . S
C539 C540 1.387 . S
C539 H542 0.950 . S
C540 C539 1.387 . S
C540 C543 1.387 . S
H541 C537 0.950 . S
H542 C539 0.950 . S
C543 C534 1.390 . S
C543 H536 0.950 . S
C543 C540 1.387 . S
C544 C545 1.387 . S
C544 H548 0.950 . S
C544 C553 1.390 . S
C545 C544 1.387 . S
C545 C547 1.387 . S
H546 C553 0.950 . S
C547 C545 1.387 . S
C547 C549 1.390 . S
C547 H551 0.950 . S
H548 C544 0.950 . S
C549 C547 1.390 . S
C549 C550 1.387 . S
C549 H552 0.950 . S
C550 C549 1.387 . S
C550 C553 1.387 . S
H551 C547 0.950 . S
H552 C549 0.950 . S
C553 C544 1.390 . S
C553 H546 0.950 . S
C553 C550 1.387 . S
C554 C555 1.387 . S
C554 H558 0.950 . S
C554 C563 1.390 . S
C555 C554 1.387 . S
C555 C557 1.387 . S
H556 C563 0.950 . S
C557 C555 1.387 . S
C557 C559 1.390 . S
C557 H561 0.950 . S
H558 C554 0.950 . S
C559 C557 1.390 . S
C559 C560 1.387 . S
C559 H562 0.950 . S
C560 C559 1.387 . S
C560 C563 1.387 . S
H561 C557 0.950 . S
H562 C559 0.950 . S
C563 C554 1.390 . S
C563 H556 0.950 . S
C563 C560 1.387 . S
C564 C565 1.387 . S
C564 H568 0.950 . S
C564 C573 1.390 . S
C565 C564 1.387 . S
C565 C567 1.387 . S
H566 C573 0.950 . S
C567 C565 1.387 . S
C567 C569 1.390 . S
C567 H571 0.950 . S
H568 C564 0.950 . S
C569 C567 1.390 . S
C569 C570 1.387 . S
C569 H572 0.950 . S
C570 C569 1.387 . S
C570 C573 1.387 . S
H571 C567 0.950 . S
H572 C569 0.950 . S
C573 C564 1.390 . S
C573 H566 0.950 . S
C573 C570 1.387 . S
C574 C575 1.387 . S
C574 H578 0.950 . S
C574 C583 1.390 . S
C575 C574 1.387 . S
C575 C577 1.387 . S
H576 C583 0.950 . S
C577 C575 1.387 . S
C577 C579 1.390 . S
C577 H581 0.950 . S
H578 C574 0.950 . S
C579 C577 1.390 . S
C579 C580 1.387 . S
C579 H582 0.950 . S
C580 C579 1.387 . S
C580 C583 1.387 . S
H581 C577 0.950 . S
H582 C579 0.950 . S
C583 C574 1.390 . S
C583 H576 0.950 . S
C583 C580 1.387 . S
C584 C585 1.387 . S
C584 H588 0.950 . S
C584 C593 1.390 . S
C585 C584 1.387 . S
C585 C587 1.387 . S
H586 C593 0.950 . S
C587 C585 1.387 . S
C587 C589 1.390 . S
C587 H591 0.950 . S
H588 C584 0.950 . S
C589 C587 1.390 . S
C589 C590 1.387 . S
C589 H592 0.950 1_565 S
C590 C589 1.387 . S
C590 C593 1.387 . S
H591 C587 0.950 . S
H592 C589 0.950 1_545 S
C593 C584 1.390 . S
C593 H586 0.950 . S
C593 C590 1.387 . S
C594 C595 1.387 . S
C594 H598 0.950 . S
C594 C603 1.390 . S
C595 C594 1.387 . S
C595 C597 1.387 . S
H596 C603 0.950 . S
C597 C595 1.387 . S
C597 C599 1.390 . S
C597 H601 0.950 . S
H598 C594 0.950 . S
C599 C597 1.390 . S
C599 C600 1.387 . S
C599 H602 0.950 . S
C600 C599 1.387 . S
C600 C603 1.387 . S
H601 C597 0.950 . S
H602 C599 0.950 . S
C603 C594 1.390 . S
C603 H596 0.950 . S
C603 C600 1.387 . S
C370 C96 1.541 . S
C365 C5 1.398 . S
C380 C149 1.548 . S
C375 C16 1.287 . S
C390 C110 1.685 . S
C385 C30 1.691 . S
C400 C135 1.619 . S
C395 C40 1.567 . S
C410 C181 1.526 . S
C405 C8 1.519 . S
C420 C227 1.503 . S
C415 C18 1.432 . S
C425 C29 1.733 . S
C430 C294 1.755 . S
C440 C326 1.552 . S
C435 C38 1.294 . S
C450 C195 1.504 1_565 S
C445 C19 1.494 . S
C455 C27 1.517 . S
C460 C241 1.640 . S
C470 C280 1.581 . S
C465 C41 1.559 . S
C480 C340 1.541 . S
C475 C7 1.515 . S
C485 C52 1.558 . S
C490 C156 1.592 . S
C500 C89 1.593 . S
C495 C62 1.559 . S
C505 C74 1.428 . S
C510 C142 1.441 . S
C515 C82 1.227 . S
C520 C103 1.422 . S
C530 C287 1.805 . S
C525 C51 1.688 . S
C540 C333 1.622 . S
C535 C60 1.333 . S
C550 C188 1.554 . S
C545 C71 1.261 . S
C555 C84 1.463 . S
C560 C248 1.524 . S
C570 C273 1.662 . S
C565 C63 1.662 . S
C580 C319 1.499 . S
C575 C73 1.448 . S
C590 C202 1.586 1_565 S
C585 C85 1.610 . S
C595 C49 1.325 . S
C600 C234 1.669 . S
