# Generated by pormake.
# Topology ctn, (3,4)-cn, num edge types: 1
# Building blocks:
#     Node 0, Type 0, BuildingBlock: VETTIZ_charged_linker_0, # of connection points: 3
#     Node 1, Type 0, BuildingBlock: VETTIZ_charged_linker_0, # of connection points: 3
#     Node 2, Type 0, BuildingBlock: VETTIZ_charged_linker_0, # of connection points: 3
#     Node 3, Type 0, BuildingBlock: VETTIZ_charged_linker_0, # of connection points: 3
#     Node 4, Type 0, BuildingBlock: VETTIZ_charged_linker_0, # of connection points: 3
#     Node 5, Type 0, BuildingBlock: VETTIZ_charged_linker_0, # of connection points: 3
#     Node 6, Type 0, BuildingBlock: VETTIZ_charged_linker_0, # of connection points: 3
#     Node 7, Type 0, BuildingBlock: VETTIZ_charged_linker_0, # of connection points: 3
#     Node 8, Type 0, BuildingBlock: VETTIZ_charged_linker_0, # of connection points: 3
#     Node 9, Type 0, BuildingBlock: VETTIZ_charged_linker_0, # of connection points: 3
#     Node 10, Type 0, BuildingBlock: VETTIZ_charged_linker_0, # of connection points: 3
#     Node 11, Type 0, BuildingBlock: VETTIZ_charged_linker_0, # of connection points: 3
#     Node 12, Type 0, BuildingBlock: VETTIZ_charged_linker_0, # of connection points: 3
#     Node 13, Type 0, BuildingBlock: VETTIZ_charged_linker_0, # of connection points: 3
#     Node 14, Type 0, BuildingBlock: VETTIZ_charged_linker_0, # of connection points: 3
#     Node 15, Type 0, BuildingBlock: VETTIZ_charged_linker_0, # of connection points: 3
#     Node 16, Type 1, BuildingBlock: KUFVIS_clean_sbu_0, # of connection points: 4
#     Node 17, Type 1, BuildingBlock: KUFVIS_clean_sbu_0, # of connection points: 4
#     Node 18, Type 1, BuildingBlock: KUFVIS_clean_sbu_0, # of connection points: 4
#     Node 19, Type 1, BuildingBlock: KUFVIS_clean_sbu_0, # of connection points: 4
#     Node 20, Type 1, BuildingBlock: KUFVIS_clean_sbu_0, # of connection points: 4
#     Node 21, Type 1, BuildingBlock: KUFVIS_clean_sbu_0, # of connection points: 4
#     Node 22, Type 1, BuildingBlock: KUFVIS_clean_sbu_0, # of connection points: 4
#     Node 23, Type 1, BuildingBlock: KUFVIS_clean_sbu_0, # of connection points: 4
#     Node 24, Type 1, BuildingBlock: KUFVIS_clean_sbu_0, # of connection points: 4
#     Node 25, Type 1, BuildingBlock: KUFVIS_clean_sbu_0, # of connection points: 4
#     Node 26, Type 1, BuildingBlock: KUFVIS_clean_sbu_0, # of connection points: 4
#     Node 27, Type 1, BuildingBlock: KUFVIS_clean_sbu_0, # of connection points: 4
#     Edge 28, Type (0, 1), BuildingBlock: MIFKUJ_clean_linker_0, # of connection points: 2
#     Edge 29, Type (0, 1), BuildingBlock: MIFKUJ_clean_linker_0, # of connection points: 2
#     Edge 30, Type (0, 1), BuildingBlock: MIFKUJ_clean_linker_0, # of connection points: 2
#     Edge 31, Type (0, 1), BuildingBlock: MIFKUJ_clean_linker_0, # of connection points: 2
#     Edge 32, Type (0, 1), BuildingBlock: MIFKUJ_clean_linker_0, # of connection points: 2
#     Edge 33, Type (0, 1), BuildingBlock: MIFKUJ_clean_linker_0, # of connection points: 2
#     Edge 34, Type (0, 1), BuildingBlock: MIFKUJ_clean_linker_0, # of connection points: 2
#     Edge 35, Type (0, 1), BuildingBlock: MIFKUJ_clean_linker_0, # of connection points: 2
#     Edge 36, Type (0, 1), BuildingBlock: MIFKUJ_clean_linker_0, # of connection points: 2
#     Edge 37, Type (0, 1), BuildingBlock: MIFKUJ_clean_linker_0, # of connection points: 2
#     Edge 38, Type (0, 1), BuildingBlock: MIFKUJ_clean_linker_0, # of connection points: 2
#     Edge 39, Type (0, 1), BuildingBlock: MIFKUJ_clean_linker_0, # of connection points: 2
#     Edge 40, Type (0, 1), BuildingBlock: MIFKUJ_clean_linker_0, # of connection points: 2
#     Edge 41, Type (0, 1), BuildingBlock: MIFKUJ_clean_linker_0, # of connection points: 2
#     Edge 42, Type (0, 1), BuildingBlock: MIFKUJ_clean_linker_0, # of connection points: 2
#     Edge 43, Type (0, 1), BuildingBlock: MIFKUJ_clean_linker_0, # of connection points: 2
#     Edge 44, Type (0, 1), BuildingBlock: MIFKUJ_clean_linker_0, # of connection points: 2
#     Edge 45, Type (0, 1), BuildingBlock: MIFKUJ_clean_linker_0, # of connection points: 2
#     Edge 46, Type (0, 1), BuildingBlock: MIFKUJ_clean_linker_0, # of connection points: 2
#     Edge 47, Type (0, 1), BuildingBlock: MIFKUJ_clean_linker_0, # of connection points: 2
#     Edge 48, Type (0, 1), BuildingBlock: MIFKUJ_clean_linker_0, # of connection points: 2
#     Edge 49, Type (0, 1), BuildingBlock: MIFKUJ_clean_linker_0, # of connection points: 2
#     Edge 50, Type (0, 1), BuildingBlock: MIFKUJ_clean_linker_0, # of connection points: 2
#     Edge 51, Type (0, 1), BuildingBlock: MIFKUJ_clean_linker_0, # of connection points: 2
#     Edge 52, Type (0, 1), BuildingBlock: MIFKUJ_clean_linker_0, # of connection points: 2
#     Edge 53, Type (0, 1), BuildingBlock: MIFKUJ_clean_linker_0, # of connection points: 2
#     Edge 54, Type (0, 1), BuildingBlock: MIFKUJ_clean_linker_0, # of connection points: 2
#     Edge 55, Type (0, 1), BuildingBlock: MIFKUJ_clean_linker_0, # of connection points: 2
#     Edge 56, Type (0, 1), BuildingBlock: MIFKUJ_clean_linker_0, # of connection points: 2
#     Edge 57, Type (0, 1), BuildingBlock: MIFKUJ_clean_linker_0, # of connection points: 2
#     Edge 58, Type (0, 1), BuildingBlock: MIFKUJ_clean_linker_0, # of connection points: 2
#     Edge 59, Type (0, 1), BuildingBlock: MIFKUJ_clean_linker_0, # of connection points: 2
#     Edge 60, Type (0, 1), BuildingBlock: MIFKUJ_clean_linker_0, # of connection points: 2
#     Edge 61, Type (0, 1), BuildingBlock: MIFKUJ_clean_linker_0, # of connection points: 2
#     Edge 62, Type (0, 1), BuildingBlock: MIFKUJ_clean_linker_0, # of connection points: 2
#     Edge 63, Type (0, 1), BuildingBlock: MIFKUJ_clean_linker_0, # of connection points: 2
#     Edge 64, Type (0, 1), BuildingBlock: MIFKUJ_clean_linker_0, # of connection points: 2
#     Edge 65, Type (0, 1), BuildingBlock: MIFKUJ_clean_linker_0, # of connection points: 2
#     Edge 66, Type (0, 1), BuildingBlock: MIFKUJ_clean_linker_0, # of connection points: 2
#     Edge 67, Type (0, 1), BuildingBlock: MIFKUJ_clean_linker_0, # of connection points: 2
#     Edge 68, Type (0, 1), BuildingBlock: MIFKUJ_clean_linker_0, # of connection points: 2
#     Edge 69, Type (0, 1), BuildingBlock: MIFKUJ_clean_linker_0, # of connection points: 2
#     Edge 70, Type (0, 1), BuildingBlock: MIFKUJ_clean_linker_0, # of connection points: 2
#     Edge 71, Type (0, 1), BuildingBlock: MIFKUJ_clean_linker_0, # of connection points: 2
#     Edge 72, Type (0, 1), BuildingBlock: MIFKUJ_clean_linker_0, # of connection points: 2
#     Edge 73, Type (0, 1), BuildingBlock: MIFKUJ_clean_linker_0, # of connection points: 2
#     Edge 74, Type (0, 1), BuildingBlock: MIFKUJ_clean_linker_0, # of connection points: 2
#     Edge 75, Type (0, 1), BuildingBlock: MIFKUJ_clean_linker_0, # of connection points: 2
# Relax obj value: 0.012
# Max RMSD: 0.064
# Mean RMSD: 0.029
data_MOF--net-ctn--node1-KUFVIS_clean_sbu_0--node2-VETTIZ_charged_linker_0--edge1-MIFKUJ_clean_linker_0
_symmetry_space_group_name_H-M    P1
_symmetry_Int_Tables_number       1
_symmetry_cell_setting            triclinic
loop_
_symmetry_equiv_pos_as_xyz
'x, y, z'
_cell_length_a     83.095435
_cell_length_b     82.883111
_cell_length_c     83.265382
_cell_angle_alpha  90.923401
_cell_angle_beta   90.217819
_cell_angle_gamma 91.410577
loop_
_atom_site_label
_atom_site_type_symbol
_atom_site_fract_x
_atom_site_fract_y
_atom_site_fract_z
_atom_type_partial_charge
C0 C 0.03895 0.08869 0.00429 0.0
C1 C 0.02662 0.09982 0.00678 0.0
C2 C 0.01679 0.0982 0.02048 0.0
C3 C 0.03128 0.0746 0.0286 0.0
C4 C 0.04105 0.07625 0.0153 0.0
C5 C 0.05352 0.06338 0.01442 0.0
H6 H 0.0882 0.99862 0.04773 0.0
C7 C 0.03646 0.06031 0.03754 0.0
C8 C 0.04953 0.05368 0.02929 0.0
H9 H 0.10106 0.02232 0.00346 0.0
H10 H 0.07953 0.04086 0.00723 0.0
H11 H 0.07989 0.03094 0.06877 0.0
H12 H 0.05133 0.99715 0.04035 0.0
H13 H 0.03888 0.0035 0.05608 0.0
H14 H 0.05704 0.99287 0.06059 0.0
H15 H 0.0765 0.01018 0.07392 0.0
H16 H 0.06257 0.02544 0.07977 0.0
C17 C 0.07035 0.07177 0.01566 0.0
C18 C 0.05066 0.05334 0.99876 0.0
C19 C 0.00689 0.04364 0.08838 0.0
C20 C 0.00839 0.0305 0.0988 0.0
C21 C 0.02048 0.0192 0.09558 0.0
C22 C 0.03091 0.02103 0.08251 0.0
C23 C 0.02925 0.03421 0.0723 0.0
C24 C 0.01729 0.04515 0.07521 0.0
C25 C 0.01689 0.05802 0.06266 0.0
C26 C 0.03062 0.05301 0.05179 0.0
C27 C 0.03792 0.03914 0.0576 0.0
C28 C 0.02044 0.07455 0.07104 0.0
C29 C 1.00038 0.05667 0.05395 0.0
C30 C 0.08637 0.00769 0.03874 0.0
C31 C 0.09665 0.009 0.02536 0.0
C32 C 0.0937 0.02117 0.0141 0.0
C33 C 0.08106 0.03191 0.01624 0.0
C34 C 0.07105 0.03051 0.02973 0.0
C35 C 0.07368 0.01842 0.0406 0.0
C36 C 0.06145 0.01831 0.05389 0.0
C37 C 0.05131 0.03259 0.04943 0.0
C38 C 0.05704 0.03975 0.03531 0.0
C39 C 0.07047 0.02127 0.07001 0.0
C40 C 0.05168 0.00212 0.05284 0.0
H41 H 0.01114 0.08518 0.0415 0.0
H42 H 0.04665 0.08945 0.99386 0.0
H43 H 0.03758 0.05217 0.99591 0.0
H44 H 0.05471 0.0408 0.99969 0.0
H45 H 0.0567 0.05913 0.98838 0.0
H46 H 0.07024 0.08199 0.02449 0.0
H47 H 0.07413 0.0767 0.0039 0.0
H48 H 0.07975 0.06375 0.02005 0.0
H49 H 0.9979 0.05266 0.09042 0.0
H50 H 0.02177 0.00872 0.10302 0.0
H51 H 0.03983 0.01203 0.08082 0.0
H52 H 0.02955 0.07339 0.08076 0.0
H53 H 0.00939 0.07943 0.07656 0.0
H54 H 0.02569 0.08361 0.06287 0.0
H55 H 0.99616 0.04386 0.05284 0.0
H56 H 1.00084 0.06098 0.04148 0.0
H57 H 0.99106 0.06337 0.06065 0.0
H58 H 0.00739 0.10672 0.02291 0.0
C59 C 0.01904 0.0857 0.03135 0.0
C60 C 0.27378 0.65391 0.21289 0.0
C61 C 0.2598 0.65113 0.20354 0.0
C62 C 0.25643 0.66188 0.19106 0.0
C63 C 0.2807 0.67766 0.19736 0.0
C64 C 0.28399 0.66715 0.2096 0.0
C65 C 0.29934 0.67173 0.21837 0.0
H66 H 0.36407 0.72233 0.22769 0.0
C67 C 0.29384 0.69006 0.197 0.0
C68 C 0.30482 0.6866 0.20926 0.0
H69 H 0.35087 0.68079 0.25601 0.0
H70 H 0.32761 0.67563 0.2392 0.0
H71 H 0.32747 0.73592 0.2245 0.0
H72 H 0.35648 0.70616 0.19385 0.0
H73 H 0.34521 0.71835 0.1812 0.0
H74 H 0.35952 0.72765 0.1951 0.0
H75 H 0.34528 0.74325 0.21457 0.0
H76 H 0.32596 0.74292 0.20472 0.0
C77 C 0.29506 0.67583 0.23605 0.0
C78 C 0.31119 0.65771 0.21629 0.0
C79 C 0.29243 0.73497 0.15604 0.0
C80 C 0.3033 0.7476 0.15226 0.0
C81 C 0.31784 0.74928 0.16095 0.0
C82 C 0.3214 0.73872 0.1734 0.0
C83 C 0.31037 0.72622 0.17715 0.0
C84 C 0.29627 0.72436 0.16837 0.0
C85 C 0.28638 0.70988 0.17347 0.0
C86 C 0.2967 0.70356 0.18699 0.0
C87 C 0.31065 0.71328 0.1892 0.0
C88 C 0.26998 0.71583 0.17967 0.0
C89 C 0.28515 0.69782 0.15906 0.0
C90 C 0.3561 0.7122 0.23034 0.0
C91 C 0.35938 0.70197 0.24324 0.0
C92 C 0.3488 0.68875 0.24606 0.0
C93 C 0.33519 0.68584 0.23634 0.0
C94 C 0.33201 0.69624 0.22361 0.0
C95 C 0.34242 0.70912 0.22075 0.0
C96 C 0.33713 0.71887 0.20665 0.0
C97 C 0.32172 0.70984 0.20168 0.0
C98 C 0.3188 0.6966 0.21166 0.0
C99 C 0.33385 0.73621 0.21278 0.0
C100 C 0.35024 0.71788 0.19349 0.0
H101 H 0.26347 0.68284 0.17833 0.0
H102 H 0.27686 0.64582 0.22245 0.0
H103 H 0.31008 0.65215 0.20407 0.0
H104 H 0.32394 0.66169 0.21732 0.0
H105 H 0.30873 0.64808 0.22513 0.0
H106 H 0.28313 0.68159 0.23684 0.0
H107 H 0.29449 0.66478 0.24343 0.0
H108 H 0.30354 0.68469 0.24171 0.0
H109 H 0.28128 0.73322 0.14937 0.0
H110 H 0.32637 0.75896 0.15825 0.0
H111 H 0.3326 0.74072 0.17965 0.0
H112 H 0.27162 0.72719 0.18686 0.0
H113 H 0.26174 0.71834 0.16952 0.0
H114 H 0.26393 0.70724 0.18779 0.0
H115 H 0.2962 0.69844 0.15157 0.0
H116 H 0.2842 0.68511 0.16281 0.0
H117 H 0.27475 0.7005 0.15119 0.0
H118 H 0.24566 0.6602 0.18381 0.0
C119 C 0.26677 0.6751 0.18794 0.0
C120 C 0.97866 0.42237 0.01123 0.0
C121 C 0.96951 0.41796 0.99752 0.0
C122 C 0.95642 0.42757 0.99325 0.0
C123 C 0.96156 0.44529 0.0163 0.0
C124 C 0.97445 0.43595 0.02042 0.0
C125 C 0.98266 0.44198 0.03557 0.0
H126 H 0.98627 0.49482 0.09845 0.0
C127 C 0.96017 0.4583 0.0286 0.0
C128 C 0.9725 0.45638 0.03995 0.0
H129 H 0.01826 0.45576 0.08745 0.0
H130 H 0.00287 0.449 0.06368 0.0
H131 H 0.95353 0.47599 0.08921 0.0
H132 H 0.9843 0.50753 0.06161 0.0
H133 H 0.96425 0.51265 0.05783 0.0
H134 H 0.97222 0.51469 0.07794 0.0
H135 H 0.95438 0.49744 0.09261 0.0
H136 H 0.94104 0.48821 0.07778 0.0
C137 C 0.98125 0.42852 0.04823 0.0
C138 C 1.00018 0.44714 0.03135 0.0
C139 C 0.91593 0.49953 0.02399 0.0
C140 C 0.91127 0.51262 0.0338 0.0
C141 C 0.91996 0.51585 0.04817 0.0
C142 C 0.93304 0.50647 0.05255 0.0
C143 C 0.93758 0.49355 0.04257 0.0
C144 C 0.92898 0.49018 0.02862 0.0
C145 C 0.93524 0.47567 0.01974 0.0
C146 C 0.94916 0.47107 0.03051 0.0
C147 C 0.95051 0.48163 0.04385 0.0
C148 C 0.92171 0.46246 0.01922 0.0
C149 C 0.94112 0.48114 0.00302 0.0
C150 C 0.99006 0.48489 0.09087 0.0
C151 C 0.00351 0.47576 0.09503 0.0
C152 C 0.00782 0.46283 0.08481 0.0
C153 C 0.99891 0.45897 0.07088 0.0
C154 C 0.98549 0.46814 0.06696 0.0
C155 C 0.98131 0.48091 0.07683 0.0
C156 C 0.9668 0.48943 0.07058 0.0
C157 C 0.96298 0.47965 0.05537 0.0
C158 C 0.97395 0.46715 0.05336 0.0
C159 C 0.95319 0.48786 0.08317 0.0
C160 C 0.972 0.50705 0.06685 0.0
H161 H 0.94235 0.44796 0.9986 0.0
H162 H 0.98868 0.41518 0.01497 0.0
H163 H 1.00087 0.45208 0.01902 0.0
H164 H 0.00501 0.45699 0.03922 0.0
H165 H 0.00834 0.43674 0.03184 0.0
H166 H 0.96934 0.42212 0.04733 0.0
H167 H 0.99069 0.4194 0.04644 0.0
H168 H 0.98193 0.43318 0.06071 0.0
H169 H 0.90969 0.49667 0.01283 0.0
H170 H 0.91651 0.52555 0.05622 0.0
H171 H 0.93907 0.5096 0.06362 0.0
H172 H 0.91422 0.46296 0.03027 0.0
H173 H 0.91358 0.46401 0.00877 0.0
H174 H 0.92638 0.4501 0.01891 0.0
H175 H 0.94739 0.49314 0.00391 0.0
H176 H 0.95002 0.47299 0.99766 0.0
H177 H 0.93086 0.4822 0.99454 0.0
H178 H 0.94928 0.4246 0.98265 0.0
C179 C 0.95243 0.44119 0.00251 0.0
C180 C 0.65765 0.81252 0.24356 0.0
C181 C 0.64599 0.79994 0.24299 0.0
C182 C 0.64617 0.78872 0.23009 0.0
C183 C 0.6695 0.8025 0.21878 0.0
C184 C 0.66914 0.81366 0.2313 0.0
C185 C 0.68201 0.82664 0.22976 0.0
H186 H 0.74651 0.85713 0.18986 0.0
C187 C 0.68294 0.80714 0.20803 0.0
C188 C 0.69018 0.8214 0.21431 0.0
H189 H 0.72497 0.87565 0.23338 0.0
H190 H 0.70439 0.85462 0.23192 0.0
H191 H 0.7139 0.85 0.17095 0.0
H192 H 0.74357 0.81963 0.19946 0.0
H193 H 0.73806 0.80877 0.18189 0.0
H194 H 0.74961 0.82733 0.18032 0.0
H195 H 0.7321 0.8417 0.16323 0.0
H196 H 0.71302 0.83083 0.1617 0.0
C197 C 0.67371 0.84306 0.22803 0.0
C198 C 0.6934 0.82569 0.24447 0.0
C199 C 0.69691 0.77112 0.16013 0.0
C200 C 0.70839 0.77264 0.14784 0.0
C201 C 0.71859 0.78647 0.14762 0.0
C202 C 0.71759 0.79847 0.15959 0.0
C203 C 0.7062 0.79673 0.17192 0.0
C204 C 0.69592 0.78336 0.17192 0.0
C205 C 0.68399 0.78406 0.18548 0.0
C206 C 0.68914 0.7998 0.19387 0.0
C207 C 0.70225 0.80707 0.18594 0.0
C208 C 0.66684 0.78489 0.17818 0.0
C209 C 0.68657 0.76931 0.19628 0.0
C210 C 0.73738 0.85665 0.1991 0.0
C211 C 0.73745 0.86808 0.21179 0.0
C212 C 0.72514 0.86713 0.22338 0.0
C213 C 0.71327 0.8548 0.22259 0.0
C214 C 0.71365 0.84322 0.21008 0.0
C215 C 0.72547 0.84439 0.1985 0.0
C216 C 0.72405 0.83104 0.18609 0.0
C217 C 0.70953 0.82154 0.19222 0.0
C218 C 0.70351 0.82869 0.2063 0.0
C219 C 0.72071 0.83867 0.16957 0.0
C220 C 0.73962 0.82115 0.1868 0.0
H221 H 0.65745 0.78091 0.20862 0.0
H222 H 0.65767 0.82145 0.2532 0.0
H223 H 0.69543 0.8129 0.24763 0.0
H224 H 0.70551 0.8309 0.24225 0.0
H225 H 0.68819 0.83179 0.25515 0.0
H226 H 0.66214 0.8416 0.22132 0.0
H227 H 0.671 0.84849 0.23996 0.0
H228 H 0.68089 0.85182 0.221 0.0
H229 H 0.68873 0.76075 0.16041 0.0
H230 H 0.72753 0.78787 0.13828 0.0
H231 H 0.72579 0.80862 0.15881 0.0
H232 H 0.66706 0.79074 0.16624 0.0
H233 H 0.6613 0.77264 0.17649 0.0
H234 H 0.65874 0.79238 0.18552 0.0
H235 H 0.69964 0.76754 0.19836 0.0
H236 H 0.68125 0.77069 0.20832 0.0
H237 H 0.68149 0.7581 0.19054 0.0
H238 H 0.63735 0.77888 0.22945 0.0
C239 C 0.65788 0.78989 0.21804 0.0
C240 C 0.03449 0.92883 0.51049 0.0
C241 C 0.0204 0.91905 0.50948 0.0
C242 C 0.00886 0.92248 0.49758 0.0
C243 C 0.02552 0.9448 0.48806 0.0
C244 C 0.03673 0.9416 0.49982 0.0
C245 C 0.05085 0.95332 0.49963 0.0
H246 H 0.08785 0.01904 0.46766 0.0
C247 C 0.03156 0.95888 0.47889 0.0
C248 C 0.04638 0.96396 0.48571 0.0
H249 H 0.10374 0.99071 0.50759 0.0
H250 H 0.08046 0.97291 0.50443 0.0
H251 H 0.04964 0.01878 0.47702 0.0
H252 H 0.07829 0.98973 0.44552 0.0
H253 H 0.05934 0.99067 0.4363 0.0
H254 H 0.07119 0.00901 0.43958 0.0
H255 H 0.05866 0.0261 0.45889 0.0
H256 H 0.03915 0.01617 0.45871 0.0
C257 C 0.0512 0.96277 0.51585 0.0
C258 C 0.06623 0.94372 0.49609 0.0
C259 C 0.99996 0.97897 0.43079 0.0
C260 C 0.00321 0.99111 0.41953 0.0
C261 C 0.01736 1.00071 0.42128 0.0
C262 C 0.02812 0.99828 0.43395 0.0
C263 C 0.02484 0.98602 0.44501 0.0
C264 C 0.01099 0.97655 0.44331 0.0
C265 C 0.00985 0.96372 0.45592 0.0
C266 C 0.02531 0.96705 0.4654 0.0
C267 C 0.03394 0.98023 0.459 0.0
C268 C 0.9947 0.96678 0.4662 0.0
C269 C 0.00985 0.94701 0.44732 0.0
C270 C 0.08621 0.0091 0.47582 0.0
C271 C 0.0976 0.00636 0.48797 0.0
C272 C 0.0952 0.99304 0.49809 0.0
C273 C 0.08161 0.98277 0.49629 0.0
C274 C 0.07027 0.98575 0.48419 0.0
C275 C 0.07275 0.99867 0.47412 0.0
C276 C 0.05971 0.99971 0.46162 0.0
C277 C 0.04877 0.98555 0.4661 0.0
C278 C 0.05498 0.97743 0.47934 0.0
C279 C 0.05133 0.01606 0.46401 0.0
C280 C 0.06743 0.99728 0.44484 0.0
H281 H 0.0021 0.93717 0.47816 0.0
H282 H 0.04374 0.92655 0.51929 0.0
H283 H 0.06365 0.93372 0.48731 0.0
H284 H 0.07585 0.95111 0.49049 0.0
H285 H 0.07102 0.93832 0.5072 0.0
H286 H 0.03877 0.96493 0.52021 0.0
H287 H 0.05754 0.95597 0.52525 0.0
H288 H 0.05681 0.97493 0.51497 0.0
H289 H 0.98927 0.97129 0.42966 0.0
H290 H 0.02006 0.01022 0.41285 0.0
H291 H 0.03863 0.00604 0.43459 0.0
H292 H 0.99276 0.97994 0.46779 0.0
H293 H 0.98374 0.96136 0.46039 0.0
H294 H 0.99574 0.96216 0.47851 0.0
H295 H 0.01838 0.94711 0.43705 0.0
H296 H 0.01393 0.93727 0.45511 0.0
H297 H 0.99771 0.9437 0.44251 0.0
H298 H 0.99774 0.91543 0.49664 0.0
C299 C 0.01135 0.93523 0.4869 0.0
C300 C 0.24315 0.66013 0.80702 0.0
C301 C 0.24241 0.64862 0.79438 0.0
C302 C 0.22987 0.64955 0.78295 0.0
C303 C 0.2193 0.673 0.79676 0.0
C304 C 0.23151 0.67207 0.80801 0.0
C305 C 0.23046 0.68498 0.82085 0.0
H306 H 0.19216 0.74937 0.85228 0.0
C307 C 0.2091 0.68672 0.80136 0.0
C308 C 0.21553 0.69371 0.81555 0.0
H309 H 0.23548 0.72742 0.86961 0.0
H310 H 0.23385 0.70764 0.84812 0.0
H311 H 0.1728 0.71711 0.84448 0.0
H312 H 0.20213 0.74763 0.81451 0.0
H313 H 0.18449 0.74233 0.80374 0.0
H314 H 0.18302 0.75351 0.82238 0.0
H315 H 0.16556 0.73568 0.83674 0.0
H316 H 0.1635 0.7169 0.82551 0.0
C317 C 0.22798 0.67664 0.8372 0.0
C318 C 0.24582 0.69592 0.81993 0.0
C319 C 0.16135 0.70141 0.76631 0.0
C320 C 0.14934 0.71297 0.76806 0.0
C321 C 0.14951 0.72313 0.78179 0.0
C322 C 0.16158 0.722 0.79348 0.0
C323 C 0.1736 0.7105 0.79155 0.0
C324 C 0.17323 0.70027 0.77826 0.0
C325 C 0.18649 0.68821 0.77873 0.0
C326 C 0.19513 0.6932 0.79423 0.0
C327 C 0.18759 0.70636 0.80159 0.0
C328 C 0.17869 0.67107 0.77972 0.0
C329 C 0.1973 0.6908 0.76385 0.0
C330 C 0.20137 0.74038 0.8514 0.0
C331 C 0.21395 0.74 0.86275 0.0
C332 C 0.22551 0.72789 0.86122 0.0
C333 C 0.22463 0.71645 0.84863 0.0
C334 C 0.21205 0.71707 0.83734 0.0
C335 C 0.20069 0.72889 0.83885 0.0
C336 C 0.18826 0.72779 0.82567 0.0
C337 C 0.19408 0.71343 0.81594 0.0
C338 C 0.20801 0.70718 0.82285 0.0
C339 C 0.1716 0.72431 0.83338 0.0
C340 C 0.18935 0.74363 0.81605 0.0
H341 H 0.20919 0.66166 0.77498 0.0
H342 H 0.25268 0.65999 0.81592 0.0
H343 H 0.24986 0.69723 0.80728 0.0
H344 H 0.24387 0.70839 0.82423 0.0
H345 H 0.25589 0.69078 0.82683 0.0
H346 H 0.22007 0.66567 0.83581 0.0
H347 H 0.23963 0.67283 0.84231 0.0
H348 H 0.22184 0.68429 0.84613 0.0
H349 H 0.16134 0.69326 0.75601 0.0
H350 H 0.14039 0.73214 0.78335 0.0
H351 H 0.16109 0.73017 0.80358 0.0
H352 H 0.167 0.67133 0.78618 0.0
H353 H 0.17632 0.66581 0.76756 0.0
H354 H 0.18605 0.66269 0.78665 0.0
H355 H 0.1995 0.70391 0.76183 0.0
H356 H 0.20934 0.68566 0.76517 0.0
H357 H 0.1915 0.68555 0.75285 0.0
H358 H 0.22877 0.64075 0.77323 0.0
C359 C 0.21839 0.66165 0.78405 0.0
C360 C 0.92371 0.51076 0.48897 0.0
C361 C 0.91951 0.49635 0.48063 0.0
C362 C 0.92924 0.49136 0.4677 0.0
C363 C 0.9469 0.51485 0.47163 0.0
C364 C 0.9374 0.51974 0.48432 0.0
C365 C 0.9436 0.53526 0.49199 0.0
H366 H 1.00032 0.59531 0.49599 0.0
C367 C 0.96027 0.52684 0.46994 0.0
C368 C 0.95842 0.53881 0.4819 0.0
H369 H 0.95751 0.5895 0.525 0.0
H370 H 0.95026 0.5651 0.51041 0.0
H371 H 0.98224 0.58661 0.46257 0.0
H372 H 0.01001 0.55819 0.49487 0.0
H373 H 0.01562 0.55285 0.4752 0.0
H374 H 0.01902 0.57331 0.48234 0.0
H375 H 0.00373 0.58877 0.46416 0.0
H376 H 0.99429 0.57407 0.45073 0.0
C377 C 0.93062 0.5482 0.48993 0.0
C378 C 0.94803 0.5318 0.50968 0.0
C379 C 1.00166 0.51996 0.42551 0.0
C380 C 0.01551 0.52897 0.42115 0.0
C381 C 0.01992 0.54282 0.43038 0.0
C382 C 0.01069 0.54769 0.44357 0.0
C383 C 0.99683 0.53865 0.44769 0.0
C384 C 0.99258 0.52497 0.43879 0.0
C385 C 0.9776 0.51673 0.44512 0.0
C386 C 0.97343 0.52786 0.4591 0.0
C387 C 0.98472 0.54071 0.46052 0.0
C388 C 0.96458 0.51673 0.43176 0.0
C389 C 0.98212 0.49971 0.45082 0.0
C390 C 0.9893 0.5889 0.49915 0.0
C391 C 0.9796 0.59441 0.51185 0.0
C392 C 0.96545 0.58546 0.51555 0.0
C393 C 0.96116 0.5713 0.50695 0.0
C394 C 0.97103 0.56595 0.49439 0.0
C395 C 0.98477 0.57479 0.49058 0.0
C396 C 0.99356 0.56751 0.47656 0.0
C397 C 0.98292 0.55276 0.47269 0.0
C398 C 0.96979 0.55187 0.48323 0.0
C399 C 0.99363 0.57983 0.46275 0.0
C400 C 0.01051 0.56277 0.48238 0.0
H401 H 0.94968 0.49607 0.45319 0.0
H402 H 0.91661 0.5149 0.49904 0.0
H403 H 0.95368 0.51982 0.51065 0.0
H404 H 0.957 0.54051 0.51478 0.0
H405 H 0.93717 0.5317 0.51741 0.0
H406 H 0.92388 0.54627 0.47846 0.0
H407 H 0.92175 0.54777 0.49986 0.0
H408 H 0.93581 0.56056 0.48916 0.0
H409 H 0.99802 0.50916 0.41881 0.0
H410 H 0.03039 0.55012 0.42719 0.0
H411 H 0.01468 0.55838 0.45 0.0
H412 H 0.96495 0.52836 0.42527 0.0
H413 H 0.96651 0.50689 0.4228 0.0
H414 H 0.95221 0.51557 0.43645 0.0
H415 H 0.99461 0.49975 0.45567 0.0
H416 H 0.97453 0.49539 0.4608 0.0
H417 H 0.98142 0.49075 0.44076 0.0
H418 H 0.92617 0.48047 0.46088 0.0
C419 C 0.94286 0.50051 0.46317 0.0
C420 C 0.81348 0.77249 0.85221 0.0
C421 C 0.80057 0.77188 0.86313 0.0
C422 C 0.78801 0.78289 0.86129 0.0
C423 C 0.80136 0.79475 0.83829 0.0
C424 C 0.81356 0.78387 0.83992 0.0
C425 C 0.82611 0.7857 0.82705 0.0
H426 H 0.85235 0.82217 0.75945 0.0
C427 C 0.80511 0.80498 0.82429 0.0
C428 C 0.81958 0.79967 0.81761 0.0
H429 H 0.87354 0.78264 0.78467 0.0
H430 H 0.85297 0.78401 0.80481 0.0
H431 H 0.84577 0.84338 0.79114 0.0
H432 H 0.81488 0.8106 0.76384 0.0
H433 H 0.80439 0.82842 0.76796 0.0
H434 H 0.82251 0.82945 0.75626 0.0
H435 H 0.83652 0.84924 0.7727 0.0
H436 H 0.82638 0.85129 0.79175 0.0
C437 C 0.8424 0.79023 0.83526 0.0
C438 C 0.82615 0.76982 0.81694 0.0
C439 C 0.76782 0.85027 0.80937 0.0
C440 C 0.76862 0.86229 0.79763 0.0
C441 C 0.78179 0.86265 0.78701 0.0
C442 C 0.79389 0.85117 0.78794 0.0
C443 C 0.79292 0.83923 0.79972 0.0
C444 C 0.78012 0.83902 0.81029 0.0
C445 C 0.78144 0.82587 0.82245 0.0
C446 C 0.79708 0.81818 0.81741 0.0
C447 C 0.80367 0.82594 0.80396 0.0
C448 C 0.78276 0.83391 0.83935 0.0
C449 C 0.7668 0.81409 0.82022 0.0
C450 C 0.85261 0.81389 0.76937 0.0
C451 C 0.8645 0.80209 0.77025 0.0
C452 C 0.86435 0.79158 0.78343 0.0
C453 C 0.8524 0.79244 0.79519 0.0
C454 C 0.84036 0.80394 0.79391 0.0
C455 C 0.84069 0.81457 0.78128 0.0
C456 C 0.82699 0.82614 0.7821 0.0
C457 C 0.81816 0.82034 0.797 0.0
C458 C 0.82607 0.80733 0.80384 0.0
C459 C 0.83416 0.84346 0.78443 0.0
C460 C 0.81662 0.82368 0.76673 0.0
H461 H 0.77841 0.80227 0.84832 0.0
H462 H 0.82343 0.76437 0.85321 0.0
H463 H 0.81388 0.76415 0.81622 0.0
H464 H 0.82959 0.77171 0.8043 0.0
H465 H 0.83426 0.76089 0.8223 0.0
H466 H 0.84059 0.79848 0.84575 0.0
H467 H 0.84842 0.77933 0.83969 0.0
H468 H 0.85075 0.7969 0.82733 0.0
H469 H 0.75796 0.84981 0.81784 0.0
H470 H 0.78262 0.87173 0.77781 0.0
H471 H 0.80352 0.85204 0.77944 0.0
H472 H 0.79013 0.84529 0.83895 0.0
H473 H 0.7707 0.83696 0.84405 0.0
H474 H 0.78892 0.82639 0.84818 0.0
H475 H 0.76342 0.8128 0.80731 0.0
H476 H 0.76931 0.80171 0.82405 0.0
H477 H 0.75613 0.81851 0.8268 0.0
H478 H 0.7777 0.78256 0.8692 0.0
C479 C 0.78836 0.7943 0.84903 0.0
C480 C 0.31013 0.27096 0.34966 0.0
C481 C 0.29706 0.27024 0.36039 0.0
C482 C 0.28442 0.28112 0.35838 0.0
C483 C 0.2981 0.29327 0.33573 0.0
C484 C 0.31036 0.28246 0.33747 0.0
C485 C 0.32324 0.28467 0.32496 0.0
H486 H 0.35192 0.32469 0.26029 0.0
C487 C 0.30212 0.30381 0.32204 0.0
C488 C 0.31683 0.29879 0.31565 0.0
H489 H 0.37216 0.28357 0.28369 0.0
H490 H 0.3507 0.28361 0.30303 0.0
H491 H 0.34311 0.34383 0.29214 0.0
H492 H 0.31459 0.31163 0.26183 0.0
H493 H 0.30306 0.32861 0.26648 0.0
H494 H 0.32162 0.33122 0.25563 0.0
H495 H 0.33496 0.35019 0.27335 0.0
H496 H 0.32361 0.35146 0.29177 0.0
C497 C 0.33927 0.28915 0.33367 0.0
C498 C 0.32369 0.26903 0.31452 0.0
C499 C 0.26478 0.3491 0.30708 0.0
C500 C 0.26578 0.36135 0.2956 0.0
C501 C 0.27927 0.36209 0.28539 0.0
C502 C 0.29148 0.35076 0.28648 0.0
C503 C 0.29031 0.33857 0.298 0.0
C504 C 0.27719 0.33797 0.30815 0.0
C505 C 0.27831 0.32456 0.32006 0.0
C506 C 0.29416 0.31712 0.31528 0.0
C507 C 0.30108 0.3253 0.30226 0.0
C508 C 0.27909 0.33224 0.33715 0.0
C509 C 0.26385 0.3127 0.31718 0.0
C510 C 0.35168 0.31562 0.2695 0.0
C511 C 0.36384 0.30412 0.2704 0.0
C512 C 0.36313 0.29271 0.2828 0.0
C513 C 0.35054 0.29266 0.29397 0.0
C514 C 0.33841 0.30411 0.2928 0.0
C515 C 0.33914 0.31537 0.28075 0.0
C516 C 0.32521 0.32664 0.2814 0.0
C517 C 0.31585 0.32008 0.29563 0.0
C518 C 0.32367 0.3069 0.30228 0.0
C519 C 0.33195 0.34398 0.28472 0.0
C520 C 0.31558 0.32459 0.26551 0.0
H521 H 0.2749 0.3005 0.34537 0.0
H522 H 0.32012 0.26291 0.35082 0.0
H523 H 0.3115 0.26327 0.31337 0.0
H524 H 0.32747 0.27126 0.30203 0.0
H525 H 0.33175 0.26007 0.31991 0.0
H526 H 0.33716 0.29746 0.34404 0.0
H527 H 0.34506 0.27823 0.33835 0.0
H528 H 0.34793 0.2957 0.32597 0.0
H529 H 0.25468 0.34835 0.31524 0.0
H530 H 0.28027 0.37134 0.27638 0.0
H531 H 0.30136 0.35194 0.2783 0.0
H532 H 0.28619 0.34381 0.33715 0.0
H533 H 0.26686 0.33489 0.34166 0.0
H534 H 0.28527 0.32469 0.34592 0.0
H535 H 0.26091 0.31157 0.30415 0.0
H536 H 0.26631 0.30028 0.32093 0.0
H537 H 0.25292 0.31694 0.32345 0.0
H538 H 0.27401 0.28068 0.36615 0.0
C539 C 0.28489 0.2926 0.34619 0.0
C540 C 0.48148 0.92132 0.51166 0.0
C541 C 0.4723 0.91712 0.49792 0.0
C542 C 0.45942 0.92697 0.4936 0.0
C543 C 0.46494 0.9447 0.51656 0.0
C544 C 0.47755 0.93504 0.52079 0.0
C545 C 0.48577 0.94086 0.53602 0.0
H546 H 0.49333 0.99674 0.59593 0.0
C547 C 0.46393 0.95791 0.5287 0.0
C548 C 0.4761 0.95567 0.54016 0.0
H549 H 0.52023 0.95307 0.58905 0.0
H550 H 0.50475 0.94645 0.56535 0.0
H551 H 0.45975 0.97968 0.5899 0.0
H552 H 0.49056 0.00666 0.55814 0.0
H553 H 0.47071 0.01327 0.55577 0.0
H554 H 0.48046 0.01547 0.57505 0.0
H555 H 0.46039 1.00132 0.5902 0.0
H556 H 0.44697 0.9899 0.57693 0.0
C557 C 0.48377 0.92755 0.5488 0.0
C558 C 0.50347 0.94535 0.53194 0.0
C559 C 0.42141 1.00085 0.52331 0.0
C560 C 0.41732 0.01431 0.53291 0.0
C561 C 0.42635 0.01761 0.54704 0.0
C562 C 0.43921 0.00794 0.55142 0.0
C563 C 0.44312 0.99461 0.5417 0.0
C564 C 0.43421 0.99118 0.52796 0.0
C565 C 0.43981 0.97618 0.5194 0.0
C566 C 0.45356 0.97125 0.53024 0.0
C567 C 0.45551 0.98217 0.54322 0.0
C568 C 0.42576 0.96353 0.51924 0.0
C569 C 0.44583 0.98102 0.50253 0.0
C570 C 0.49587 0.98567 0.58945 0.0
C571 C 0.50833 0.9756 0.59444 0.0
C572 C 0.5111 0.96137 0.5854 0.0
C573 C 0.50195 0.95742 0.57164 0.0
C574 C 0.48969 0.96766 0.56681 0.0
C575 C 0.48668 0.98141 0.57578 0.0
C576 C 0.47261 0.99043 0.56928 0.0
C577 C 0.46791 0.97999 0.55475 0.0
C578 C 0.47806 0.96674 0.55329 0.0
C579 C 0.45921 0.9905 0.5822 0.0
C580 C 0.47876 0.00742 0.56435 0.0
H581 H 0.4458 0.94771 0.49884 0.0
H582 H 0.49129 0.91389 0.51545 0.0
H583 H 0.50418 0.95178 0.52033 0.0
H584 H 0.50921 0.95366 0.54084 0.0
H585 H 0.51082 0.93437 0.53081 0.0
H586 H 0.47241 0.92037 0.54687 0.0
H587 H 0.49388 0.91904 0.54833 0.0
H588 H 0.48274 0.93254 0.56114 0.0
H589 H 0.4149 0.99791 0.51232 0.0
H590 H 0.42335 0.02758 0.55495 0.0
H591 H 0.44555 0.01117 0.56228 0.0
H592 H 0.41848 0.96449 0.53039 0.0
H593 H 0.41756 0.9653 0.50888 0.0
H594 H 0.42991 0.95098 0.51899 0.0
H595 H 0.45253 0.9928 0.50312 0.0
H596 H 0.45439 0.97242 0.49734 0.0
H597 H 0.43559 0.98226 0.49406 0.0
H598 H 0.45225 0.92409 0.483 0.0
C599 C 0.45573 0.94072 0.50279 0.0
C600 C 0.15991 0.31051 0.74551 0.0
C601 C 0.14814 0.29805 0.74462 0.0
C602 C 0.14837 0.28703 0.73155 0.0
C603 C 0.17197 0.30078 0.72073 0.0
C604 C 0.17156 0.31173 0.73342 0.0
C605 C 0.18456 0.3246 0.73227 0.0
H606 H 0.24916 0.35604 0.6933 0.0
C607 C 0.18557 0.30549 0.71022 0.0
C608 C 0.19288 0.31956 0.71684 0.0
H609 H 0.22699 0.37381 0.73683 0.0
H610 H 0.20711 0.35217 0.73535 0.0
H611 H 0.21661 0.34893 0.67423 0.0
H612 H 0.24638 0.3181 0.70218 0.0
H613 H 0.24099 0.30766 0.68433 0.0
H614 H 0.25249 0.32629 0.68326 0.0
H615 H 0.23499 0.34106 0.66647 0.0
H616 H 0.21608 0.32997 0.66453 0.0
C617 C 0.17642 0.34114 0.73072 0.0
C618 C 0.19575 0.32328 0.7471 0.0
C619 C 0.19963 0.27041 0.66168 0.0
C620 C 0.21119 0.27212 0.64948 0.0
C621 C 0.22146 0.28589 0.64958 0.0
C622 C 0.22049 0.29765 0.6618 0.0
C623 C 0.20901 0.29573 0.67403 0.0
C624 C 0.19864 0.28242 0.67369 0.0
C625 C 0.18661 0.28292 0.68718 0.0
C626 C 0.19184 0.29843 0.69594 0.0
C627 C 0.20506 0.30579 0.68825 0.0
C628 C 0.16954 0.28407 0.67978 0.0
C629 C 0.18897 0.26791 0.69766 0.0
C630 C 0.23993 0.35538 0.70242 0.0
C631 C 0.23974 0.36667 0.71524 0.0
C632 C 0.22759 0.36517 0.72696 0.0
C633 C 0.21598 0.35262 0.72603 0.0
C634 C 0.21645 0.34135 0.71326 0.0
C635 C 0.22824 0.34289 0.70169 0.0
C636 C 0.2269 0.32977 0.68901 0.0
C637 C 0.21238 0.32009 0.6949 0.0
C638 C 0.20633 0.32692 0.70912 0.0
C639 C 0.22359 0.33773 0.67263 0.0
C640 C 0.24249 0.31992 0.68954 0.0
H641 H 0.15985 0.27945 0.71009 0.0
H642 H 0.1599 0.3193 0.75528 0.0
H643 H 0.19741 0.31042 0.75023 0.0
H644 H 0.20803 0.32816 0.74502 0.0
H645 H 0.1906 0.32948 0.75776 0.0
H646 H 0.16493 0.33989 0.72385 0.0
H647 H 0.17359 0.34638 0.74271 0.0
H648 H 0.18376 0.34997 0.72394 0.0
H649 H 0.1914 0.26007 0.66171 0.0
H650 H 0.23046 0.28742 0.6403 0.0
H651 H 0.22875 0.30777 0.66127 0.0
H652 H 0.16991 0.29026 0.66802 0.0
H653 H 0.16394 0.2719 0.67771 0.0
H654 H 0.16143 0.29141 0.68725 0.0
H655 H 0.202 0.26596 0.69979 0.0
H656 H 0.18357 0.26908 0.70969 0.0
H657 H 0.18382 0.25687 0.69166 0.0
H658 H 0.13946 0.27729 0.73065 0.0
C659 C 0.16024 0.28828 0.71965 0.0
C660 C 0.77425 0.15514 0.71296 0.0
C661 C 0.76053 0.15216 0.70329 0.0
C662 C 0.75752 0.16263 0.69048 0.0
C663 C 0.78167 0.17849 0.69706 0.0
C664 C 0.78459 0.16827 0.70963 0.0
C665 C 0.79972 0.17299 0.71871 0.0
H666 H 0.86579 0.22193 0.72722 0.0
C667 C 0.79492 0.19077 0.6967 0.0
C668 C 0.80557 0.18754 0.70932 0.0
H669 H 0.85007 0.18297 0.75774 0.0
H670 H 0.82683 0.17788 0.74076 0.0
H671 H 0.83029 0.23679 0.72337 0.0
H672 H 0.85722 0.20445 0.69337 0.0
H673 H 0.84719 0.2176 0.68061 0.0
H674 H 0.86199 0.22567 0.69471 0.0
H675 H 0.8479 0.24317 0.71254 0.0
H676 H 0.82823 0.24292 0.70338 0.0
C677 C 0.79501 0.17763 0.73617 0.0
C678 C 0.8115 0.15884 0.71737 0.0
C679 C 0.79469 0.23497 0.65494 0.0
C680 C 0.80578 0.24739 0.65108 0.0
C681 C 0.82039 0.2488 0.6597 0.0
C682 C 0.82375 0.23825 0.67222 0.0
C683 C 0.81244 0.22604 0.67612 0.0
C684 C 0.79833 0.22437 0.66734 0.0
C685 C 0.78816 0.21014 0.67259 0.0
C686 C 0.79821 0.20391 0.68634 0.0
C687 C 0.81236 0.21336 0.68845 0.0
C688 C 0.77178 0.21643 0.67848 0.0
C689 C 0.78689 0.19784 0.65838 0.0
C690 C 0.85738 0.21222 0.73011 0.0
C691 C 0.85976 0.20279 0.74378 0.0
C692 C 0.84842 0.19044 0.74733 0.0
C693 C 0.83496 0.18749 0.73743 0.0
C694 C 0.83266 0.19707 0.72387 0.0
C695 C 0.84371 0.20927 0.72046 0.0
C696 C 0.83888 0.21868 0.70596 0.0
C697 C 0.82317 0.21007 0.70121 0.0
C698 C 0.81968 0.19734 0.71167 0.0
C699 C 0.83626 0.23637 0.71144 0.0
C700 C 0.85198 0.21667 0.69294 0.0
H701 H 0.76496 0.18328 0.67746 0.0
H702 H 0.77706 0.14728 0.7228 0.0
H703 H 0.81125 0.15351 0.70501 0.0
H704 H 0.82416 0.16259 0.71953 0.0
H705 H 0.80818 0.14911 0.72584 0.0
H706 H 0.78265 0.18247 0.73669 0.0
H707 H 0.7953 0.16702 0.74413 0.0
H708 H 0.80279 0.18743 0.74134 0.0
H709 H 0.7835 0.23342 0.64831 0.0
H710 H 0.82909 0.25829 0.65693 0.0
H711 H 0.83501 0.24005 0.67842 0.0
H712 H 0.77355 0.22771 0.68577 0.0
H713 H 0.76383 0.21918 0.66818 0.0
H714 H 0.76536 0.20792 0.68641 0.0
H715 H 0.79787 0.19838 0.65078 0.0
H716 H 0.78607 0.18519 0.66237 0.0
H717 H 0.77641 0.20029 0.65055 0.0
H718 H 0.74694 0.16079 0.68297 0.0
C719 C 0.76797 0.17575 0.68733 0.0
C720 C 0.53903 0.58741 0.50344 0.0
C721 C 0.52682 0.59865 0.50608 0.0
C722 C 0.51718 0.59716 0.51992 0.0
C723 C 0.53164 0.57351 0.52794 0.0
C724 C 0.54121 0.57501 0.51448 0.0
C725 C 0.55357 0.56203 0.51347 0.0
H726 H 0.58886 0.49779 0.54705 0.0
C727 C 0.5369 0.55926 0.5369 0.0
C728 C 0.54978 0.55248 0.52849 0.0
H729 H 0.60044 0.52043 0.50188 0.0
H730 H 0.57907 0.53908 0.50586 0.0
H731 H 0.58074 0.53047 0.56776 0.0
H732 H 0.55196 0.49599 0.54038 0.0
H733 H 0.53964 0.50269 0.55606 0.0
H734 H 0.55784 0.49219 0.56068 0.0
H735 H 0.57769 0.50973 0.5732 0.0
H736 H 0.56369 0.52489 0.57915 0.0
C737 C 0.57047 0.57031 0.51435 0.0
C738 C 0.55036 0.55189 0.49794 0.0
C739 C 0.50803 0.54316 0.58829 0.0
C740 C 0.50963 0.53011 0.59881 0.0
C741 C 0.52171 0.51881 0.59559 0.0
C742 C 0.53202 0.52053 0.58241 0.0
C743 C 0.53022 0.53358 0.57207 0.0
C744 C 0.51829 0.54455 0.57501 0.0
C745 C 0.51773 0.55729 0.56234 0.0
C746 C 0.53129 0.55214 0.55133 0.0
C747 C 0.53867 0.53834 0.55719 0.0
C748 C 0.52143 0.57389 0.57052 0.0
C749 C 0.5011 0.55589 0.55387 0.0
C750 C 0.58679 0.50664 0.5379 0.0
C751 C 0.59671 0.50763 0.52422 0.0
C752 C 0.59342 0.51953 0.51277 0.0
C753 C 0.58086 0.53034 0.51502 0.0
C754 C 0.57124 0.52925 0.52881 0.0
C755 C 0.57414 0.51739 0.53985 0.0
C756 C 0.56216 0.51747 0.55337 0.0
C757 C 0.55191 0.53166 0.54887 0.0
C758 C 0.55735 0.5386 0.53453 0.0
C759 C 0.57145 0.52071 0.56929 0.0
C760 C 0.55241 0.50126 0.55276 0.0
H761 H 0.51177 0.58429 0.54109 0.0
H762 H 0.54657 0.58806 0.49289 0.0
H763 H 0.53726 0.55103 0.49514 0.0
H764 H 0.55407 0.53924 0.49901 0.0
H765 H 0.5565 0.55738 0.48746 0.0
H766 H 0.57065 0.58042 0.52331 0.0
H767 H 0.57393 0.57537 0.50255 0.0
H768 H 0.57995 0.56218 0.51833 0.0
H769 H 0.49906 0.5522 0.59034 0.0
H770 H 0.52309 0.50841 0.60312 0.0
H771 H 0.54094 0.51153 0.58072 0.0
H772 H 0.53058 0.5728 0.58021 0.0
H773 H 0.51044 0.57891 0.57604 0.0
H774 H 0.52669 0.58282 0.56222 0.0
H775 H 0.49687 0.54307 0.55288 0.0
H776 H 0.50137 0.56014 0.54138 0.0
H777 H 0.49187 0.56262 0.56068 0.0
H778 H 0.50789 0.60576 0.52245 0.0
C779 C 0.51952 0.5847 0.53082 0.0
C780 C 0.53555 0.42216 0.00879 0.0
C781 C 0.5227 0.41092 0.00653 0.0
C782 C 0.51211 0.41301 0.99345 0.0
C783 C 0.52717 0.43697 0.98534 0.0
C784 C 0.53762 0.43491 0.99805 0.0
C785 C 0.551 0.44749 0.99847 0.0
H786 H 0.58724 0.51308 0.96544 0.0
C787 C 0.53282 0.45128 0.97632 0.0
C788 C 0.54688 0.45742 0.98391 0.0
H789 H 0.6018 0.48771 0.00789 0.0
H790 H 0.57927 0.46898 0.00447 0.0
H791 H 0.54928 0.51257 0.97393 0.0
H792 H 0.57863 0.4824 0.94415 0.0
H793 H 0.56021 0.48412 0.93403 0.0
H794 H 0.57257 0.50199 0.93797 0.0
H795 H 0.55764 0.51911 0.95522 0.0
H796 H 0.53849 0.50848 0.95609 0.0
C797 C 0.54963 0.4574 0.01432 0.0
C798 C 0.56718 0.43882 0.99638 0.0
C799 C 0.50114 0.47024 0.92778 0.0
C800 C 0.50396 0.48268 0.91674 0.0
C801 C 0.51783 0.49267 0.91858 0.0
C802 C 0.52869 0.49041 0.9312 0.0
C803 C 0.52577 0.47795 0.94214 0.0
C804 C 0.51226 0.46802 0.94027 0.0
C805 C 0.51159 0.45496 0.95267 0.0
C806 C 0.52669 0.45897 0.96249 0.0
C807 C 0.53488 0.47251 0.95629 0.0
C808 C 0.49611 0.45707 0.96268 0.0
C809 C 0.5126 0.43839 0.94387 0.0
C810 C 0.58553 0.5036 0.97412 0.0
C811 C 0.59637 0.50196 0.98699 0.0
C812 C 0.59377 0.48919 0.99777 0.0
C813 C 0.5806 0.47837 0.99581 0.0
C814 C 0.56985 0.48026 0.98292 0.0
C815 C 0.57243 0.49273 0.97235 0.0
C816 C 0.55978 0.49301 0.9594 0.0
C817 C 0.54915 0.47864 0.9639 0.0
C818 C 0.5551 0.47118 0.97766 0.0
C819 C 0.55082 0.50913 0.96106 0.0
C820 C 0.56812 0.49037 0.94297 0.0
H821 H 0.50577 0.4268 0.97324 0.0
H822 H 0.54385 0.42118 0.01875 0.0
H823 H 0.5658 0.42832 0.98795 0.0
H824 H 0.57667 0.44655 0.99103 0.0
H825 H 0.57158 0.43424 0.00802 0.0
H826 H 0.53679 0.45925 0.01745 0.0
H827 H 0.55532 0.4511 0.02447 0.0
H828 H 0.55498 0.46968 0.01351 0.0
H829 H 0.4907 0.46223 0.92652 0.0
H830 H 0.5202 0.50238 0.91029 0.0
H831 H 0.53897 0.49847 0.93192 0.0
H832 H 0.49434 0.47004 0.96566 0.0
H833 H 0.48533 0.45255 0.9559 0.0
H834 H 0.49651 0.45095 0.97434 0.0
H835 H 0.5198 0.43938 0.93267 0.0
H836 H 0.51886 0.42933 0.95103 0.0
H837 H 0.50045 0.43357 0.94047 0.0
H838 H 0.50228 0.40446 0.99112 0.0
C839 C 0.51423 0.42595 0.98293 0.0
C840 C 0.74297 0.15808 0.30969 0.0
C841 C 0.74177 0.14628 0.29738 0.0
C842 C 0.72889 0.14683 0.28634 0.0
C843 C 0.71888 0.17076 0.29976 0.0
C844 C 0.73137 0.17006 0.31073 0.0
C845 C 0.73056 0.18315 0.32341 0.0
H846 H 0.69361 0.24875 0.354 0.0
C847 C 0.7089 0.18468 0.30424 0.0
C848 C 0.7156 0.19189 0.3182 0.0
H849 H 0.73563 0.22524 0.37239 0.0
H850 H 0.73398 0.20565 0.35075 0.0
H851 H 0.67335 0.21662 0.34671 0.0
H852 H 0.70341 0.24602 0.31634 0.0
H853 H 0.68569 0.24092 0.30561 0.0
H854 H 0.68443 0.25248 0.32404 0.0
H855 H 0.66667 0.23535 0.33887 0.0
H856 H 0.66402 0.21657 0.32778 0.0
C857 C 0.72829 0.17506 0.33993 0.0
C858 C 0.74594 0.19399 0.32211 0.0
C859 C 0.66124 0.19946 0.26918 0.0
C860 C 0.64951 0.21134 0.27067 0.0
C861 C 0.65006 0.22195 0.28406 0.0
C862 C 0.66221 0.2209 0.2957 0.0
C863 C 0.6739 0.20902 0.29405 0.0
C864 C 0.67319 0.19843 0.28105 0.0
C865 C 0.68618 0.18609 0.28174 0.0
C866 C 0.69502 0.19129 0.29706 0.0
C867 C 0.68783 0.20481 0.30414 0.0
C868 C 0.67803 0.16914 0.28321 0.0
C869 C 0.69692 0.18808 0.26672 0.0
C870 C 0.70238 0.2393 0.35346 0.0
C871 C 0.71483 0.23866 0.36495 0.0
C872 C 0.72608 0.22623 0.36361 0.0
C873 C 0.72504 0.21477 0.35106 0.0
C874 C 0.71261 0.21563 0.33965 0.0
C875 C 0.70151 0.22773 0.34099 0.0
C876 C 0.68907 0.22671 0.32781 0.0
C877 C 0.69454 0.21203 0.31833 0.0
C878 C 0.70835 0.20561 0.3253 0.0
C879 C 0.67234 0.22378 0.33558 0.0
C880 C 0.69055 0.24234 0.31791 0.0
H881 H 0.70808 0.15884 0.27857 0.0
H882 H 0.7526 0.15784 0.31848 0.0
H883 H 0.7493 0.19571 0.30931 0.0
H884 H 0.74439 0.20629 0.32702 0.0
H885 H 0.7563 0.18846 0.32824 0.0
H886 H 0.72105 0.16363 0.33873 0.0
H887 H 0.74007 0.17208 0.34535 0.0
H888 H 0.72151 0.18253 0.34854 0.0
H889 H 0.66094 0.19098 0.25914 0.0
H890 H 0.64118 0.23122 0.28542 0.0
H891 H 0.66201 0.2294 0.30554 0.0
H892 H 0.66627 0.16983 0.2895 0.0
H893 H 0.67572 0.16351 0.2712 0.0
H894 H 0.68515 0.16088 0.29054 0.0
H895 H 0.69949 0.20108 0.26445 0.0
H896 H 0.70879 0.18258 0.26802 0.0
H897 H 0.69086 0.18281 0.25587 0.0
H898 H 0.72778 0.13793 0.2767 0.0
C899 C 0.7175 0.15902 0.28742 0.0
C900 C 0.42304 0.00854 0.98701 0.0
C901 C 0.41939 0.9939 0.9789 0.0
C902 C 0.42975 0.98858 0.96664 0.0
C903 C 0.44685 0.01254 0.97051 0.0
C904 C 0.43684 0.01752 0.98275 0.0
C905 C 0.4428 0.03296 0.99071 0.0
H906 H 0.49857 0.09372 0.99671 0.0
C907 C 0.46012 0.02472 0.9691 0.0
C908 C 0.45788 0.03661 0.98104 0.0
H909 H 0.45651 0.08518 0.02614 0.0
H910 H 0.44942 0.06157 0.01034 0.0
H911 H 0.48035 0.08551 0.96292 0.0
H912 H 0.50916 0.05667 0.99393 0.0
H913 H 0.51497 0.05267 0.97399 0.0
H914 H 0.51753 0.07282 0.98224 0.0
H915 H 0.50183 0.088 0.9641 0.0
H916 H 0.49233 0.07343 0.95054 0.0
C917 C 0.42987 0.04588 0.98832 0.0
C918 C 0.44672 0.02938 0.00852 0.0
C919 C 0.50145 0.01965 0.92437 0.0
C920 C 0.51464 0.02946 0.91967 0.0
C921 C 0.5186 0.04341 0.92894 0.0
C922 C 0.5095 0.04766 0.94244 0.0
C923 C 0.4962 0.03791 0.9468 0.0
C924 C 0.49241 0.02412 0.93787 0.0
C925 C 0.47779 0.01529 0.94426 0.0
C926 C 0.4733 0.02619 0.95832 0.0
C927 C 0.48417 0.03941 0.95978 0.0
C928 C 0.46467 0.01483 0.93099 0.0
C929 C 0.48295 0.99844 0.94986 0.0
C930 C 0.48779 0.0868 0.99967 0.0
C931 C 0.47823 0.09126 0.01288 0.0
C932 C 0.46431 0.08187 0.0163 0.0
C933 C 0.46014 0.06816 0.00703 0.0
C934 C 0.46993 0.06366 0.99409 0.0
C935 C 0.48344 0.07297 0.9905 0.0
C936 C 0.4923 0.06628 0.9762 0.0
C937 C 0.48206 0.05129 0.97207 0.0
C938 C 0.46896 0.04988 0.9826 0.0
C939 C 0.49185 0.07892 0.9627 0.0
C940 C 0.50945 0.06194 0.98172 0.0
H941 H 0.45074 0.99323 0.95284 0.0
H942 H 0.41546 0.01278 0.99667 0.0
H943 H 0.45063 0.01673 0.00994 0.0
H944 H 0.4569 0.03685 0.01332 0.0
H945 H 0.43604 0.03107 0.01629 0.0
H946 H 0.42435 0.04468 0.97615 0.0
H947 H 0.42006 0.04457 0.99726 0.0
H948 H 0.43484 0.05835 0.98898 0.0
H949 H 0.49798 0.00893 0.91746 0.0
H950 H 0.52882 0.05105 0.92578 0.0
H951 H 0.51315 0.05843 0.94892 0.0
H952 H 0.46421 0.02667 0.92491 0.0
H953 H 0.46722 0.00547 0.9217 0.0
H954 H 0.45244 0.0126 0.93568 0.0
H955 H 0.49554 0.99886 0.95447 0.0
H956 H 0.47568 0.99392 0.96 0.0
H957 H 0.48233 0.98946 0.93982 0.0
H958 H 0.42714 0.97735 0.96022 0.0
C959 C 0.4434 0.99785 0.96235 0.0
Mn960 Mn 0.2507 0.87515 0.00885 0.0
Mn961 Mn 0.25161 0.8908 0.97162 0.0
C962 C 0.23952 0.86078 0.98728 0.0
C963 C 0.26181 0.86012 0.02947 0.0
C964 C 0.22879 0.90204 0.99758 0.0
O965 O 0.26835 0.89278 0.01073 0.0
O966 O 0.26869 0.90142 0.98511 0.0
C967 C 0.28317 0.8788 0.96099 0.0
N968 N 0.26698 0.87975 0.95876 0.0
C969 C 0.26809 0.86388 0.93435 0.0
C970 C 0.28479 0.8628 0.93633 0.0
C971 C 0.29235 0.87022 0.94974 0.0
C972 C 0.25957 0.87253 0.94597 0.0
H973 H 0.28903 0.88451 0.97127 0.0
C974 C 0.27401 0.9017 0.99958 0.0
O975 O 0.25122 0.87103 0.03232 0.0
O976 O 0.26639 0.85829 0.01468 0.0
N977 N 0.23576 0.88141 0.95734 0.0
C978 C 0.21946 0.88275 0.95773 0.0
C979 C 0.21003 0.87553 0.94543 0.0
C980 C 0.21747 0.86714 0.9328 0.0
C981 C 0.23427 0.86605 0.9326 0.0
C982 C 0.24305 0.87349 0.94517 0.0
H983 H 0.21368 0.88923 0.96738 0.0
O984 O 0.23489 0.85777 1.00183 0.0
O985 O 0.25044 0.87214 0.98583 0.0
O986 O 0.23308 0.89205 0.00817 0.0
O987 O 0.23519 0.90283 0.98369 0.0
C988 C 0.24265 0.8577 0.9205 0.0
C989 C 0.25954 0.85653 0.92142 0.0
H990 H 0.29191 0.85618 0.9277 0.0
H991 H 0.3052 0.86932 0.95141 0.0
H992 H 0.19706 0.87642 0.94568 0.0
H993 H 0.21015 0.86152 0.92337 0.0
H994 H 0.23619 0.85192 0.91057 0.0
H995 H 0.2658 0.84981 0.91221 0.0
Mn996 Mn 0.13334 0.5021 0.25388 0.0
Mn997 Mn 0.12047 0.54041 0.2522 0.0
C998 C 0.14836 0.5217 0.24059 0.0
C999 C 0.14796 0.4818 0.26602 0.0
C1000 C 0.10622 0.51304 0.23167 0.0
O1001 O 0.1168 0.50293 0.27204 0.0
O1002 O 0.10984 0.52897 0.27025 0.0
C1003 C 0.13471 0.55291 0.28273 0.0
N1004 N 0.13308 0.55388 0.2665 0.0
C1005 C 0.15064 0.57739 0.2658 0.0
C1006 C 0.15244 0.57669 0.28252 0.0
C1007 C 0.14447 0.56437 0.29101 0.0
C1008 C 0.14075 0.56564 0.2582 0.0
H1009 H 0.12863 0.54344 0.2893 0.0
C1010 C 0.10885 0.51511 0.27684 0.0
O1011 O 0.13604 0.47841 0.25634 0.0
O1012 O 0.15094 0.49696 0.2692 0.0
N1013 N 0.1299 0.55291 0.23538 0.0
C1014 C 0.12747 0.55146 0.21922 0.0
C1015 C 0.13472 0.56276 0.20896 0.0
C1016 C 0.1443 0.57548 0.21542 0.0
C1017 C 0.14663 0.57673 0.23209 0.0
C1018 C 0.13895 0.56521 0.24173 0.0
H1019 H 0.12006 0.54175 0.21417 0.0
O1020 O 0.15002 0.50653 0.23702 0.0
O1021 O 0.1379 0.52491 0.25164 0.0
O1022 O 0.11529 0.50209 0.23695 0.0
O1023 O 0.10705 0.52766 0.23674 0.0
C1024 C 0.1564 0.58885 0.23951 0.0
C1025 C 0.15847 0.58914 0.25634 0.0
H1026 H 0.16 0.58548 0.28895 0.0
H1027 H 0.14586 0.56371 0.30391 0.0
H1028 H 0.1329 0.56169 0.19611 0.0
H1029 H 0.14984 0.58418 0.20747 0.0
H1030 H 0.16255 0.59789 0.23236 0.0
H1031 H 0.16619 0.59837 0.26188 0.0
Mn1032 Mn 0.75336 0.63072 0.00419 0.0
Mn1033 Mn 0.72305 0.64918 0.9852 0.0
C1034 C 0.72808 0.6181 1.00184 0.0
C1035 C 0.77614 0.61463 0.00468 0.0
C1036 C 0.73382 0.65829 0.0189 0.0
O1037 O 0.76526 0.64814 0.9913 0.0
O1038 O 0.74399 0.65915 0.97908 0.0
C1039 C 0.73047 0.63902 0.95187 0.0
N1040 N 0.72 0.6396 0.96439 0.0
C1041 C 0.69855 0.62813 0.94813 0.0
C1042 C 0.70907 0.62743 0.93502 0.0
C1043 C 0.72516 0.63275 0.93695 0.0
C1044 C 0.70466 0.63403 0.96281 0.0
H1045 H 0.74274 0.64346 0.95322 0.0
C1046 C 0.75909 0.65832 0.98186 0.0
O1047 O 0.7735 0.62544 0.01571 0.0
O1048 O 0.76561 0.61322 0.99313 0.0
N1049 N 0.70195 0.64091 0.98986 0.0
C1050 C 0.6933 0.64261 0.00362 0.0
C1051 C 0.67707 0.63747 0.00384 0.0
C1052 C 0.66979 0.63115 0.98977 0.0
C1053 C 0.67885 0.62993 0.97565 0.0
C1054 C 0.69508 0.6348 0.97627 0.0
H1055 H 0.69874 0.64785 0.01436 0.0
O1056 O 0.73807 0.61402 0.01302 0.0
O1057 O 0.73322 0.62932 0.99227 0.0
O1058 O 0.74478 0.64785 0.01986 0.0
O1059 O 0.72502 0.65985 0.00647 0.0
C1060 C 0.67228 0.62458 0.96084 0.0
C1061 C 0.68214 0.62362 0.94711 0.0
H1062 H 0.70491 0.62289 0.92342 0.0
H1063 H 0.73336 0.63227 0.9269 0.0
H1064 H 0.67014 0.63859 0.01476 0.0
H1065 H 0.6572 0.62745 0.98989 0.0
H1066 H 0.6596 0.62142 0.95987 0.0
H1067 H 0.67695 0.61968 0.93573 0.0
Mn1068 Mn 0.87738 0.00662 0.2567 0.0
Mn1069 Mn 0.89746 0.97176 0.25732 0.0
C1070 C 0.86596 0.98311 0.24547 0.0
C1071 C 0.86008 0.02562 0.26773 0.0
C1072 C 0.9057 0.99878 0.23457 0.0
O1073 O 0.89424 0.01086 0.2744 0.0
O1074 O 0.90622 0.98669 0.27422 0.0
C1075 C 0.88705 0.95978 0.28902 0.0
N1076 N 0.8882 0.95764 0.27282 0.0
C1077 C 0.87777 0.93042 0.27431 0.0
C1078 C 0.87653 0.93226 0.29103 0.0
C1079 C 0.88099 0.94708 0.29838 0.0
C1080 C 0.88342 0.94364 0.26556 0.0
H1081 H 0.89083 0.97103 0.29475 0.0
C1082 C 0.90454 1.00105 0.27976 0.0
O1083 O 0.87094 0.02954 0.25726 0.0
O1084 O 0.85942 0.01065 0.27212 0.0
N1085 N 0.89014 0.95616 0.24162 0.0
C1086 C 0.89154 0.95656 0.22533 0.0
C1087 C 0.8868 0.94294 0.21607 0.0
C1088 C 0.88106 0.92895 0.22368 0.0
C1089 C 0.87994 0.92879 0.24048 0.0
C1090 C 0.88447 0.94284 0.24905 0.0
H1091 H 0.89625 0.96718 0.21944 0.0
O1092 O 0.86136 0.99717 0.24086 0.0
O1093 O 0.87712 0.98325 0.25642 0.0
O1094 O 0.89459 0.0081 0.23913 0.0
O1095 O 0.90797 0.98507 0.24078 0.0
C1096 C 0.87487 0.91512 0.2491 0.0
C1097 C 0.87388 0.91593 0.26601 0.0
H1098 H 0.87211 0.9224 0.29831 0.0
H1099 H 0.87994 0.94863 0.31125 0.0
H1100 H 0.88778 0.94315 0.20312 0.0
H1101 H 0.87762 0.91838 0.21653 0.0
H1102 H 0.8719 0.9039 0.24282 0.0
H1103 H 0.87034 0.90529 0.27258 0.0
Mn1104 Mn 0.25808 0.13093 0.50624 0.0
Mn1105 Mn 0.22524 0.14584 0.48807 0.0
C1106 C 0.23389 0.11641 0.50617 0.0
C1107 C 0.28184 0.11632 0.50613 0.0
C1108 C 0.23683 0.15735 0.52082 0.0
O1109 O 0.26785 0.14831 0.49182 0.0
O1110 O 0.24501 0.15748 0.48089 0.0
C1111 C 0.23263 0.13497 0.45492 0.0
N1112 N 0.22244 0.13518 0.4677 0.0
C1113 C 0.20238 0.11948 0.45305 0.0
C1114 C 0.21264 0.11912 0.43972 0.0
C1115 C 0.22786 0.12686 0.44069 0.0
C1116 C 0.20785 0.12765 0.46695 0.0
H1117 H 0.2443 0.14099 0.45557 0.0
C1118 C 0.26032 0.1578 0.48267 0.0
O1119 O 0.27928 0.12757 0.51675 0.0
O1120 O 0.27076 0.11378 0.49527 0.0
N1121 N 0.20508 0.13582 0.49365 0.0
C1122 C 0.19673 0.1371 0.50765 0.0
C1123 C 0.18134 0.12981 0.50875 0.0
C1124 C 0.17457 0.12158 0.49538 0.0
C1125 C 0.18326 0.12074 0.481 0.0
C1126 C 0.19858 0.12813 0.48064 0.0
H1127 H 0.20181 0.14356 0.51791 0.0
O1128 O 0.2448 0.11382 0.51696 0.0
O1129 O 0.23746 0.12735 0.49563 0.0
O1130 O 0.249 0.14826 0.52141 0.0
O1131 O 0.227 0.15734 0.50899 0.0
C1132 C 0.17733 0.11283 0.467 0.0
C1133 C 0.18694 0.11206 0.45309 0.0
H1134 H 0.20897 0.11294 0.4287 0.0
H1135 H 0.23585 0.12662 0.43047 0.0
H1136 H 0.17468 0.13058 0.51988 0.0
H1137 H 0.16271 0.11596 0.49628 0.0
H1138 H 0.16543 0.10722 0.46683 0.0
H1139 H 0.18232 0.10576 0.44248 0.0
Mn1140 Mn 0.37728 0.50821 0.75571 0.0
Mn1141 Mn 0.3955 0.4722 0.75503 0.0
C1142 C 0.36505 0.48612 0.74268 0.0
C1143 C 0.36041 0.52736 0.76725 0.0
C1144 C 0.40578 0.5 0.73398 0.0
O1145 O 0.39374 0.51061 0.77403 0.0
O1146 O 0.40447 0.48585 0.77284 0.0
C1147 C 0.38336 0.45923 0.78575 0.0
N1148 N 0.38501 0.45778 0.76953 0.0
C1149 C 0.37147 0.43178 0.76918 0.0
C1150 C 0.36965 0.43296 0.7859 0.0
C1151 C 0.37559 0.44677 0.79421 0.0
C1152 C 0.37933 0.44457 0.76142 0.0
H1153 H 0.38793 0.46981 0.79218 0.0
C1154 C 0.40338 0.5 0.77906 0.0
O1155 O 0.37181 0.5314 0.7574 0.0
O1156 O 0.35909 0.51218 0.77084 0.0
N1157 N 0.38795 0.45775 0.73842 0.0
C1158 C 0.38993 0.45893 0.72224 0.0
C1159 C 0.38454 0.44619 0.71215 0.0
C1160 C 0.37725 0.43241 0.71882 0.0
C1161 C 0.37518 0.43154 0.73548 0.0
C1162 C 0.38098 0.44452 0.74495 0.0
H1163 H 0.39567 0.46945 0.71707 0.0
O1164 O 0.36142 0.50072 0.73889 0.0
O1165 O 0.37578 0.48486 0.754 0.0
O1166 O 0.3951 0.50971 0.73876 0.0
O1167 O 0.40715 0.48583 0.73949 0.0
C1168 C 0.36753 0.41837 0.74305 0.0
C1169 C 0.3656 0.41852 0.75989 0.0
H1170 H 0.36363 0.4234 0.79246 0.0
H1171 H 0.37419 0.4478 0.80709 0.0
H1172 H 0.38611 0.44693 0.69928 0.0
H1173 H 0.37343 0.42254 0.71104 0.0
H1174 H 0.36294 0.40813 0.73604 0.0
H1175 H 0.3595 0.40843 0.76556 0.0
Mn1176 Mn 0.75183 0.37487 0.5091 0.0
Mn1177 Mn 0.74982 0.38731 0.47072 0.0
C1178 C 0.7394 0.35865 0.48954 0.0
C1179 C 0.76466 0.36145 0.52984 0.0
C1180 C 0.7288 0.40049 0.49735 0.0
O1181 O 0.76914 0.39293 0.5084 0.0
O1182 O 0.7678 0.39891 0.48208 0.0
C1183 C 0.78056 0.37454 0.45869 0.0
N1184 N 0.76423 0.37526 0.45763 0.0
C1185 C 0.76359 0.35722 0.43468 0.0
C1186 C 0.78041 0.35636 0.43547 0.0
C1187 C 0.78892 0.36503 0.44755 0.0
C1188 C 0.75592 0.36694 0.44607 0.0
H1189 H 0.78714 0.38115 0.46798 0.0
C1190 C 0.77407 0.4007 0.49611 0.0
O1191 O 0.75417 0.37245 0.53275 0.0
O1192 O 0.76824 0.35875 0.5149 0.0
N1193 N 0.733 0.3768 0.4584 0.0
C1194 C 0.71676 0.37826 0.45982 0.0
C1195 C 0.70647 0.37003 0.44887 0.0
C1196 C 0.71297 0.36048 0.43654 0.0
C1197 C 0.72972 0.35924 0.43525 0.0
C1198 C 0.73938 0.36782 0.44643 0.0
H1199 H 0.71169 0.38561 0.46926 0.0
O1200 O 0.73591 0.35675 0.50457 0.0
O1201 O 0.74993 0.37 0.48646 0.0
O1202 O 0.73385 0.39137 0.50838 0.0
O1203 O 0.73428 0.40025 0.48305 0.0
C1204 C 0.7372 0.34964 0.42347 0.0
C1205 C 0.75412 0.34859 0.42322 0.0
H1206 H 0.78689 0.34898 0.42695 0.0
H1207 H 0.80189 0.36436 0.44828 0.0
H1208 H 0.69356 0.37104 0.44995 0.0
H1209 H 0.70499 0.35407 0.42818 0.0
H1210 H 0.73004 0.34284 0.41468 0.0
H1211 H 0.75971 0.34097 0.41426 0.0
Mn1212 Mn 0.636 0.00204 0.75517 0.0
Mn1213 Mn 0.62248 0.04006 0.75289 0.0
C1214 C 0.65094 0.02168 0.74186 0.0
C1215 C 0.65054 0.9821 0.76796 0.0
C1216 C 0.60886 0.01207 0.73274 0.0
O1217 O 0.61892 0.00285 0.77289 0.0
O1218 O 0.61241 0.02904 0.77144 0.0
C1219 C 0.63694 0.05383 0.78279 0.0
N1220 N 0.63506 0.05422 0.76655 0.0
C1221 C 0.65212 0.07802 0.76483 0.0
C1222 C 0.65417 0.07792 0.78156 0.0
C1223 C 0.64658 0.06575 0.79056 0.0
C1224 C 0.64236 0.06584 0.75776 0.0
H1225 H 0.63114 0.04448 0.78975 0.0
C1226 C 0.61127 0.01515 0.77795 0.0
O1227 O 0.63892 0.97846 0.75799 0.0
O1228 O 0.65326 0.99733 0.77104 0.0
N1229 N 0.63145 0.05212 0.73551 0.0
C1230 C 0.62885 0.05005 0.71943 0.0
C1231 C 0.6358 0.06108 0.7087 0.0
C1232 C 0.64526 0.07416 0.7146 0.0
C1233 C 0.64772 0.07608 0.7312 0.0
C1234 C 0.64036 0.06479 0.74133 0.0
H1235 H 0.62153 0.04008 0.71481 0.0
O1236 O 0.65303 0.0065 0.73867 0.0
O1237 O 0.64019 0.02486 0.75266 0.0
O1238 O 0.61854 1.00154 0.73772 0.0
O1239 O 0.60893 0.02662 0.73805 0.0
C1240 C 0.65733 0.08863 0.73808 0.0
C1241 C 0.65958 0.08956 0.75488 0.0
H1242 H 0.66164 0.08706 0.78759 0.0
H1243 H 0.64816 0.06556 0.80347 0.0
H1244 H 0.63385 0.05951 0.6959 0.0
H1245 H 0.65061 0.08262 0.70627 0.0
H1246 H 0.66321 0.09752 0.73056 0.0
H1247 H 0.6672 0.09913 0.76001 0.0
Mn1248 Mn 0.00371 0.25424 0.87428 0.0
Mn1249 Mn 0.96499 0.24913 0.8858 0.0
C1250 C 0.98541 0.24013 0.85791 0.0
C1251 C 0.02421 0.26829 0.86091 0.0
C1252 C 0.99239 0.23015 0.89972 0.0
O1253 O 1.00142 0.27173 0.89172 0.0
O1254 O 0.97515 0.2678 0.89764 0.0
C1255 C 0.95183 0.27926 0.87307 0.0
N1256 N 0.95152 0.26285 0.87368 0.0
C1257 C 0.92898 0.26093 0.85545 0.0
C1258 C 0.929 0.27782 0.8547 0.0
C1259 C 0.94049 0.28702 0.86352 0.0
C1260 C 0.94052 0.25388 0.86524 0.0
H1261 H 0.96067 0.28639 0.87978 0.0
C1262 C 0.98867 0.27547 0.89937 0.0
O1263 O 0.02734 0.25848 0.87243 0.0
O1264 O 0.00915 0.2706 0.85773 0.0
N1265 N 0.95375 0.23163 0.87501 0.0
C1266 C 0.95602 0.21546 0.87623 0.0
C1267 C 0.94581 0.20456 0.86774 0.0
C1268 C 0.93333 0.21037 0.85818 0.0
C1269 C 0.93119 0.22705 0.85716 0.0
C1270 C 0.94165 0.23734 0.866 0.0
H1271 H 0.9656 0.21092 0.88355 0.0
O1272 O 1.00071 0.23766 0.85661 0.0
O1273 O 0.9813 0.25052 0.86889 0.0
O1274 O 0.0035 0.23661 0.89128 0.0
O1275 O 0.97767 0.23412 0.89874 0.0
C1276 C 0.91928 0.23388 0.84748 0.0
C1277 C 0.91819 0.25081 0.84661 0.0
H1278 H 0.92034 0.28384 0.84728 0.0
H1279 H 0.94063 0.30005 0.86294 0.0
H1280 H 0.94758 0.19171 0.86855 0.0
H1281 H 0.92554 0.20193 0.85158 0.0
H1282 H 0.91107 0.22624 0.84045 0.0
H1283 H 0.90916 0.25592 0.83892 0.0
Mn1284 Mn 0.50355 0.75325 0.37398 0.0
Mn1285 Mn 0.46499 0.7487 0.38614 0.0
C1286 C 0.48482 0.73924 0.358 0.0
C1287 C 0.52395 0.76715 0.36029 0.0
C1288 C 0.49235 0.72945 0.39973 0.0
O1289 O 0.50175 0.77082 0.39142 0.0
O1290 O 0.47552 0.76733 0.39769 0.0
C1291 C 0.45207 0.77888 0.37326 0.0
N1292 N 0.45156 0.76248 0.37405 0.0
C1293 C 0.42881 0.76067 0.35607 0.0
C1294 C 0.42905 0.77756 0.35514 0.0
C1295 C 0.44075 0.78669 0.36375 0.0
C1296 C 0.44037 0.75357 0.36578 0.0
H1297 H 0.46107 0.78595 0.37983 0.0
C1298 C 0.48917 0.77479 0.39923 0.0
O1299 O 0.52719 0.75727 0.37173 0.0
O1300 O 0.50886 0.76954 0.35733 0.0
N1301 N 0.45337 0.73124 0.37569 0.0
C1302 C 0.4553 0.71505 0.37722 0.0
C1303 C 0.44473 0.7042 0.36913 0.0
C1304 C 0.43223 0.71009 0.35963 0.0
C1305 C 0.43045 0.72679 0.35827 0.0
C1306 C 0.44126 0.73702 0.36674 0.0
H1307 H 0.46486 0.71045 0.38452 0.0
O1308 O 0.50006 0.73664 0.3564 0.0
O1309 O 0.48103 0.74974 0.36899 0.0
O1310 O 0.5034 0.73568 0.39104 0.0
O1311 O 0.47768 0.73365 0.39902 0.0
C1312 C 0.41851 0.73368 0.34867 0.0
C1313 C 0.41773 0.75061 0.34753 0.0
H1314 H 0.42038 0.78362 0.34776 0.0
H1315 H 0.44106 0.79972 0.36303 0.0
H1316 H 0.44621 0.69133 0.3702 0.0
H1317 H 0.42413 0.70167 0.35339 0.0
H1318 H 0.41001 0.72607 0.34195 0.0
H1319 H 0.40865 0.75576 0.33992 0.0
Mn1320 Mn 0.00674 0.75812 0.62772 0.0
Mn1321 Mn 0.99062 0.72292 0.64091 0.0
C1322 C 0.00852 0.73479 0.61211 0.0
C1323 C 0.0047 0.78253 0.61419 0.0
C1324 C 0.02188 0.73778 0.65387 0.0
O1325 O 0.99149 0.76536 0.64562 0.0
O1326 O 0.98007 0.7413 0.65179 0.0
C1327 C 0.9577 0.72538 0.62761 0.0
N1328 N 0.97163 0.71718 0.62891 0.0
C1329 C 0.9611 0.69539 0.61221 0.0
C1330 C 0.9466 0.70357 0.61076 0.0
C1331 C 0.94492 0.71864 0.61845 0.0
C1332 C 0.97341 0.7027 0.62151 0.0
H1333 H 0.95637 0.73697 0.63352 0.0
C1334 C 0.98135 0.75668 0.65343 0.0
O1335 O 0.01553 0.78053 0.6252 0.0
O1336 O 0.99471 0.77052 0.61138 0.0
N1337 N 0.99967 0.7041 0.63131 0.0
C1338 C 0.01472 0.69822 0.63321 0.0
C1339 C 0.01849 0.68334 0.62605 0.0
C1340 C 0.00674 0.67461 0.61712 0.0
C1341 C 0.99133 0.68089 0.61534 0.0
C1342 C 0.98822 0.6957 0.62289 0.0
H1343 H 0.02377 0.70482 0.64014 0.0
O1344 O 0.01848 0.74686 0.60994 0.0
O1345 O 0.99782 0.73676 0.62327 0.0
O1346 O 0.0226 0.74967 0.64435 0.0
O1347 O 0.01022 0.72745 0.65393 0.0
C1348 C 0.97901 0.67315 0.60619 0.0
C1349 C 0.96392 0.68043 0.60458 0.0
H1350 H 0.93673 0.69844 0.60366 0.0
H1351 H 0.93379 0.72505 0.61733 0.0
H1352 H 0.03042 0.67858 0.62744 0.0
H1353 H 0.00969 0.66312 0.61166 0.0
H1354 H 0.98109 0.66173 0.60014 0.0
H1355 H 0.95463 0.67449 0.59731 0.0
Mn1356 Mn 0.50553 0.25409 0.13093 0.0
Mn1357 Mn 0.4855 0.22515 0.15146 0.0
C1358 C 0.50187 0.22831 0.11976 0.0
C1359 C 0.50621 0.27617 0.11374 0.0
C1360 C 0.51986 0.23571 0.15908 0.0
O1361 O 0.49366 0.26702 0.1482 0.0
O1362 O 0.47987 0.24668 0.16003 0.0
C1363 C 0.45249 0.23236 0.14079 0.0
N1364 N 0.46461 0.22172 0.1423 0.0
C1365 C 0.44782 0.19983 0.13219 0.0
C1366 C 0.43509 0.21049 0.13059 0.0
C1367 C 0.43752 0.22689 0.13467 0.0
C1368 C 0.46262 0.20609 0.13775 0.0
H1369 H 0.45422 0.24489 0.14427 0.0
C1370 C 0.4836 0.26162 0.15849 0.0
O1371 O 0.51768 0.2737 0.12395 0.0
O1372 O 0.49416 0.26587 0.1136 0.0
N1373 N 0.48962 0.20356 0.14456 0.0
C1374 C 0.50318 0.1949 0.14663 0.0
C1375 C 0.50297 0.1784 0.1425 0.0
C1376 C 0.48869 0.17089 0.13678 0.0
C1377 C 0.47479 0.17998 0.13513 0.0
C1378 C 0.47583 0.19644 0.13904 0.0
H1379 H 0.51408 0.20054 0.1514 0.0
O1380 O 0.51325 0.23793 0.11469 0.0
O1381 O 0.49279 0.23415 0.13101 0.0
O1382 O 0.52133 0.24579 0.14774 0.0
O1383 O 0.5069 0.22761 0.16169 0.0
C1384 C 0.45981 0.17326 0.13023 0.0
C1385 C 0.44634 0.18319 0.12873 0.0
H1386 H 0.42343 0.20624 0.12619 0.0
H1387 H 0.42784 0.23525 0.13327 0.0
H1388 H 0.51372 0.17145 0.14395 0.0
H1389 H 0.4885 0.15811 0.13383 0.0
H1390 H 0.4585 0.16043 0.12776 0.0
H1391 H 0.43482 0.17792 0.12516 0.0
H1392 H 0.20816 0.77239 0.86124 0.0
H1393 H 0.2111 0.79273 0.88268 0.0
H1394 H 0.22614 0.75614 0.91539 0.0
H1395 H 0.22261 0.7356 0.89418 0.0
H1396 H 0.20668 0.77636 0.93031 0.0
H1397 H 0.25356 0.78116 0.89714 0.0
H1398 H 0.26871 0.78479 0.87199 0.0
H1399 H 0.24783 0.83118 0.86586 0.0
H1400 H 0.23234 0.8277 0.89084 0.0
H1401 H 0.26115 0.84499 0.96925 0.0
H1402 H 0.25593 0.82421 0.9486 0.0
H1403 H 0.20478 0.82884 0.95572 0.0
H1404 H 0.21015 0.8493 0.97688 0.0
H1405 H 0.2427 0.82385 0.92118 0.0
H1406 H 0.1851 0.79332 0.94724 0.0
H1407 H 0.17276 0.78816 0.97364 0.0
H1408 H 0.21939 0.79097 0.99605 0.0
H1409 H 0.23202 0.79593 0.96978 0.0
C1410 C 0.21185 0.7686 0.87306 0.0
C1411 C 0.21523 0.75234 0.87594 0.0
C1412 C 0.21367 0.78029 0.88527 0.0
C1413 C 0.21905 0.77601 0.90061 0.0
C1414 C 0.22203 0.75974 0.90365 0.0
C1415 C 0.22017 0.74804 0.89145 0.0
C1416 C 0.22203 0.78854 0.91333 0.0
C1417 C 0.21444 0.78684 0.92827 0.0
C1418 C 0.23244 0.80203 0.91084 0.0
C1419 C 0.24167 0.8041 0.89576 0.0
C1420 C 0.25209 0.79207 0.89035 0.0
C1421 C 0.26075 0.79411 0.87614 0.0
C1422 C 0.2592 0.80819 0.86731 0.0
C1423 C 0.249 0.82027 0.87269 0.0
C1424 C 0.24028 0.81827 0.88688 0.0
C1425 C 0.2488 0.84162 0.96629 0.0
C1426 C 0.23602 0.84894 0.97431 0.0
C1427 C 0.24581 0.82973 0.95452 0.0
C1428 C 0.22995 0.82482 0.9506 0.0
C1429 C 0.21713 0.83218 0.95867 0.0
C1430 C 0.22016 0.84394 0.97065 0.0
C1431 C 0.22698 0.81205 0.93807 0.0
C1432 C 0.23465 0.81362 0.92316 0.0
C1433 C 0.21692 0.7983 0.94073 0.0
C1434 C 0.20947 0.79517 0.95657 0.0
C1435 C 0.19272 0.79278 0.9578 0.0
C1436 C 0.18567 0.7899 0.97274 0.0
C1437 C 0.19528 0.78929 0.98652 0.0
C1438 C 0.21196 0.79151 0.98538 0.0
C1439 C 0.21906 0.79437 0.97047 0.0
H1440 H 0.1898 0.78708 0.99807 0.0
H1441 H 0.26593 0.80975 0.85632 0.0
H1442 H 0.04834 0.52874 0.4184 0.0
H1443 H 0.06416 0.52334 0.39429 0.0
H1444 H 0.02049 0.51327 0.36743 0.0
H1445 H 0.00457 0.51861 0.39154 0.0
H1446 H 0.04382 0.49277 0.3584 0.0
H1447 H 0.03886 0.55012 0.36592 0.0
H1448 H 0.04105 0.576 0.38089 0.0
H1449 H 0.0921 0.57055 0.38567 0.0
H1450 H 0.09016 0.5445 0.37091 0.0
H1451 H 0.08573 0.53586 0.28646 0.0
H1452 H 0.06973 0.5352 0.31081 0.0
H1453 H 0.09189 0.4909 0.32442 0.0
H1454 H 0.10792 0.49131 0.2997 0.0
H1455 H 0.07962 0.53769 0.34048 0.0
H1456 H 0.06495 0.46995 0.34908 0.0
H1457 H 0.06067 0.4451 0.33275 0.0
H1458 H 0.0454 0.47322 0.29285 0.0
H1459 H 0.04939 0.49821 0.30901 0.0
C1460 C 0.0421 0.52533 0.40738 0.0
C1461 C 0.02518 0.52429 0.40686 0.0
C1462 C 0.05116 0.52219 0.39361 0.0
C1463 C 0.04352 0.51812 0.37898 0.0
C1464 C 0.02666 0.51637 0.37858 0.0
C1465 C 0.01758 0.51943 0.39238 0.0
C1466 C 0.053 0.51676 0.3639 0.0
C1467 C 0.05172 0.50255 0.35451 0.0
C1468 C 0.06313 0.5296 0.35866 0.0
C1469 C 0.06434 0.54529 0.36746 0.0
C1470 C 0.05053 0.55439 0.37027 0.0
C1471 C 0.05173 0.56909 0.3787 0.0
C1472 C 0.0667 0.57489 0.38427 0.0
C1473 C 0.08051 0.56602 0.38138 0.0
C1474 C 0.07937 0.55129 0.37297 0.0
C1475 C 0.08718 0.52586 0.29452 0.0
C1476 C 0.09822 0.51367 0.29111 0.0
C1477 C 0.078 0.52554 0.3085 0.0
C1478 C 0.0796 0.51305 0.31952 0.0
C1479 C 0.09032 0.5006 0.31604 0.0
C1480 C 0.09949 0.50086 0.30191 0.0
C1481 C 0.07049 0.51369 0.33488 0.0
C1482 C 0.07187 0.52781 0.3444 0.0
C1483 C 0.06023 0.50089 0.34 0.0
C1484 C 0.05766 0.48595 0.3302 0.0
C1485 C 0.06065 0.47082 0.33683 0.0
C1486 C 0.05827 0.45671 0.32761 0.0
C1487 C 0.05282 0.45759 0.31175 0.0
C1488 C 0.04968 0.47257 0.30511 0.0
C1489 C 0.05203 0.48671 0.31429 0.0
H1490 H 0.051 0.44665 0.30463 0.0
H1491 H 0.06761 0.58628 0.39079 0.0
H1492 H 0.81105 0.74058 0.86231 0.0
H1493 H 0.80968 0.72074 0.8836 0.0
H1494 H 0.7867 0.75533 0.91464 0.0
H1495 H 0.78905 0.77558 0.89384 0.0
H1496 H 0.80654 0.73923 0.93168 0.0
H1497 H 0.76546 0.72437 0.89282 0.0
H1498 H 0.75469 0.71694 0.86599 0.0
H1499 H 0.78467 0.67548 0.86434 0.0
H1500 H 0.79576 0.68279 0.89109 0.0
H1501 H 0.75568 0.69051 0.98015 0.0
H1502 H 0.76888 0.70894 0.96141 0.0
H1503 H 0.79816 0.67023 0.9439 0.0
H1504 H 0.78514 0.65174 0.96306 0.0
H1505 H 0.77975 0.68618 0.91993 0.0
H1506 H 0.81698 0.69985 0.96198 0.0
H1507 H 0.82537 0.70763 0.98952 0.0
H1508 H 0.79992 0.7519 0.9859 0.0
H1509 H 0.79117 0.74428 0.95842 0.0
C1510 C 0.80597 0.74411 0.87375 0.0
C1511 C 0.80005 0.75974 0.87622 0.0
C1512 C 0.805 0.73264 0.88589 0.0
C1513 C 0.79781 0.73639 0.90068 0.0
C1514 C 0.79224 0.75207 0.90333 0.0
C1515 C 0.7934 0.76361 0.89129 0.0
C1516 C 0.79561 0.72394 0.91329 0.0
C1517 C 0.80061 0.72767 0.92909 0.0
C1518 C 0.78823 0.70864 0.90994 0.0
C1519 C 0.78159 0.70424 0.89386 0.0
C1520 C 0.76985 0.71374 0.88668 0.0
C1521 C 0.76367 0.70954 0.8715 0.0
C1522 C 0.76904 0.69578 0.86344 0.0
C1523 C 0.78055 0.68616 0.87057 0.0
C1524 C 0.78679 0.69032 0.88574 0.0
C1525 C 0.7653 0.68607 0.97266 0.0
C1526 C 0.76953 0.66979 0.97311 0.0
C1527 C 0.77282 0.69659 0.96195 0.0
C1528 C 0.78452 0.69097 0.95129 0.0
C1529 C 0.78922 0.67481 0.95211 0.0
C1530 C 0.78189 0.66432 0.96311 0.0
C1531 C 0.79039 0.70164 0.93829 0.0
C1532 C 0.78599 0.69761 0.92241 0.0
C1533 C 0.79804 0.71675 0.94164 0.0
C1534 C 0.80333 0.72143 0.95815 0.0
C1535 C 0.81306 0.71119 0.9671 0.0
C1536 C 0.81791 0.71558 0.98269 0.0
C1537 C 0.81317 0.73024 0.98946 0.0
C1538 C 0.80359 0.74055 0.98064 0.0
C1539 C 0.7987 0.73621 0.96504 0.0
H1540 H 0.81693 0.73362 1.00154 0.0
H1541 H 0.76423 0.69254 0.85169 0.0
H1542 H 0.01112 0.99392 0.38797 0.0
H1543 H 0.99329 0.99888 0.3653 0.0
H1544 H 0.95258 0.99955 0.39732 0.0
H1545 H 0.97043 0.99399 0.42002 0.0
H1546 H 0.94411 0.98414 0.37156 0.0
H1547 H 0.97019 0.03509 0.38095 0.0
H1548 H 0.99287 0.05438 0.38546 0.0
H1549 H 0.01175 0.04263 0.3389 0.0
H1550 H 0.98929 0.02309 0.33419 0.0
H1551 H 0.89498 0.01459 0.30817 0.0
H1552 H 0.91078 0.0165 0.33324 0.0
H1553 H 0.9524 0.99934 0.30802 0.0
H1554 H 0.93656 0.99692 0.28319 0.0
H1555 H 0.95815 0.02624 0.33191 0.0
H1556 H 0.93324 0.97258 0.32518 0.0
H1557 H 0.9101 0.95374 0.32122 0.0
H1558 H 0.88798 0.97256 0.36389 0.0
H1559 H 0.91097 0.99165 0.368 0.0
C1560 C 0.99837 0.99518 0.39017 0.0
C1561 C 0.99218 0.9937 0.40577 0.0
C1562 C 0.98818 0.99812 0.37722 0.0
C1563 C 0.97159 1.00003 0.37959 0.0
C1564 C 0.96533 0.99824 0.39515 0.0
C1565 C 0.97552 0.99504 0.40811 0.0
C1566 C 0.96082 0.00348 0.36574 0.0
C1567 C 0.94705 0.99359 0.36312 0.0
C1568 C 0.96461 0.01572 0.35454 0.0
C1569 C 0.9781 0.02753 0.35727 0.0
C1570 C 0.97923 0.03654 0.37171 0.0
C1571 C 0.99204 0.04753 0.3743 0.0
C1572 C 0.00376 0.04971 0.36249 0.0
C1573 C 0.00266 0.04093 0.34804 0.0
C1574 C 0.98988 0.02991 0.3454 0.0
C1575 C 0.90762 0.01169 0.30793 0.0
C1576 C 0.91462 0.0057 0.29378 0.0
C1577 C 0.91659 0.01268 0.32224 0.0
C1578 C 0.93273 0.00801 0.32245 0.0
C1579 C 0.93998 0.00305 0.30808 0.0
C1580 C 0.93095 1.00169 0.29393 0.0
C1581 C 0.94174 0.00679 0.33778 0.0
C1582 C 0.95515 0.01704 0.3406 0.0
C1583 C 0.93753 0.99506 0.34927 0.0
C1584 C 0.9237 0.98367 0.34677 0.0
C1585 C 0.92336 0.97282 0.33361 0.0
C1586 C 0.91029 0.96207 0.33137 0.0
C1587 C 0.89754 0.962 0.34226 0.0
C1588 C 0.89785 0.97266 0.35544 0.0
C1589 C 0.9109 0.98343 0.35774 0.0
H1590 H 0.88744 0.95364 0.34055 0.0
H1591 H 0.01367 0.05822 0.36452 0.0
H1592 H 0.21098 0.27632 0.61707 0.0
H1593 H 0.21447 0.25574 0.59591 0.0
H1594 H 0.21889 0.21927 0.6319 0.0
H1595 H 0.215 0.23977 0.65312 0.0
H1596 H 0.24443 0.22143 0.60582 0.0
H1597 H 0.18693 0.21696 0.6144 0.0
H1598 H 0.15967 0.22781 0.61678 0.0
H1599 H 0.16267 0.24552 0.56868 0.0
H1600 H 0.19008 0.23499 0.5661 0.0
H1601 H 0.24563 0.15405 0.55229 0.0
H1602 H 0.2405 0.17253 0.57478 0.0
H1603 H 0.21708 0.20488 0.54252 0.0
H1604 H 0.22139 0.18601 0.52022 0.0
H1605 H 0.20084 0.2044 0.56788 0.0
H1606 H 0.25733 0.21114 0.55839 0.0
H1607 H 0.2854 0.2028 0.55484 0.0
H1608 H 0.28572 0.18402 0.6026 0.0
H1609 H 0.25757 0.19207 0.60636 0.0
C1610 C 0.21262 0.26389 0.62044 0.0
C1611 C 0.2127 0.25959 0.6367 0.0
C1612 C 0.21458 0.25218 0.60837 0.0
C1613 C 0.21694 0.23602 0.61237 0.0
C1614 C 0.21708 0.23169 0.6286 0.0
C1615 C 0.21478 0.24336 0.64067 0.0
C1616 C 0.21948 0.22373 0.59956 0.0
C1617 C 0.23488 0.21747 0.59764 0.0
C1618 C 0.20713 0.21907 0.58862 0.0
C1619 C 0.19062 0.22533 0.59012 0.0
C1620 C 0.18184 0.2233 0.60438 0.0
C1621 C 0.16635 0.22936 0.60576 0.0
C1622 C 0.15946 0.23739 0.5929 0.0
C1623 C 0.16803 0.23932 0.57863 0.0
C1624 C 0.18354 0.2333 0.5772 0.0
C1625 C 0.2394 0.16512 0.55001 0.0
C1626 C 0.23397 0.1686 0.53447 0.0
C1627 C 0.23654 0.17575 0.56287 0.0
C1628 C 0.22865 0.19033 0.56039 0.0
C1629 C 0.22317 0.19375 0.54484 0.0
C1630 C 0.22569 0.18295 0.53206 0.0
C1631 C 0.22594 0.20198 0.57393 0.0
C1632 C 0.21047 0.20821 0.57602 0.0
C1633 C 0.23837 0.20691 0.58481 0.0
C1634 C 0.25529 0.20205 0.58259 0.0
C1635 C 0.26335 0.20512 0.56809 0.0
C1636 C 0.27928 0.20046 0.56605 0.0
C1637 C 0.28732 0.19284 0.57847 0.0
C1638 C 0.27946 0.1899 0.59298 0.0
C1639 C 0.26353 0.19452 0.59508 0.0
H1640 H 0.29965 0.18924 0.57687 0.0
H1641 H 0.14746 0.24207 0.59399 0.0
H1642 H 0.4776 0.53782 0.60136 0.0
H1643 H 0.45987 0.53429 0.62446 0.0
H1644 H 0.49859 0.51355 0.65107 0.0
H1645 H 0.51672 0.51785 0.62848 0.0
H1646 H 0.46725 0.49522 0.65011 0.0
H1647 H 0.49058 0.54861 0.66126 0.0
H1648 H 0.4971 0.57686 0.65448 0.0
H1649 H 0.44683 0.58606 0.64845 0.0
H1650 H 0.44003 0.55777 0.65497 0.0
H1651 H 0.43562 0.48867 0.72742 0.0
H1652 H 0.45291 0.49525 0.70472 0.0
H1653 H 0.41779 0.52851 0.68764 0.0
H1654 H 0.40073 0.52247 0.71082 0.0
H1655 H 0.44608 0.54077 0.68243 0.0
H1656 H 0.42146 0.4895 0.67145 0.0
H1657 H 0.41299 0.46138 0.67676 0.0
H1658 H 0.46245 0.44786 0.67973 0.0
H1659 H 0.47124 0.47598 0.67474 0.0
C1660 C 0.48251 0.53279 0.61219 0.0
C1661 C 0.4987 0.52812 0.61292 0.0
C1662 C 0.47227 0.53066 0.62535 0.0
C1663 C 0.47793 0.52363 0.63943 0.0
C1664 C 0.49398 0.5189 0.64024 0.0
C1665 C 0.5043 0.52128 0.62723 0.0
C1666 C 0.46708 0.52101 0.65329 0.0
C1667 C 0.46275 0.50514 0.65732 0.0
C1668 C 0.46072 0.53401 0.66224 0.0
C1669 C 0.46481 0.55103 0.65842 0.0
C1670 C 0.48093 0.55661 0.65834 0.0
C1671 C 0.48467 0.57264 0.65458 0.0
C1672 C 0.47239 0.58324 0.65099 0.0
C1673 C 0.45633 0.57784 0.6512 0.0
C1674 C 0.45253 0.56181 0.65494 0.0
C1675 C 0.43163 0.49748 0.7189 0.0
C1676 C 0.41675 0.50496 0.72086 0.0
C1677 C 0.44149 0.50117 0.70585 0.0
C1678 C 0.43651 0.51207 0.69418 0.0
C1679 C 0.42189 0.51999 0.69641 0.0
C1680 C 0.41214 0.51653 0.70966 0.0
C1681 C 0.4464 0.51488 0.67954 0.0
C1682 C 0.4505 0.53079 0.67527 0.0
C1683 C 0.45223 0.50189 0.67009 0.0
C1684 C 0.44701 0.4849 0.67286 0.0
C1685 C 0.43054 0.48056 0.67333 0.0
C1686 C 0.42568 0.46462 0.67628 0.0
C1687 C 0.43717 0.45285 0.6786 0.0
C1688 C 0.45356 0.457 0.67794 0.0
C1689 C 0.45849 0.47294 0.67505 0.0
H1690 H 0.43339 0.44052 0.68089 0.0
H1691 H 0.47531 0.59565 0.64808 0.0
H1692 H 0.82459 0.25608 0.62567 0.0
H1693 H 0.81862 0.27555 0.60479 0.0
H1694 H 0.77295 0.28486 0.62725 0.0
H1695 H 0.77862 0.26482 0.64766 0.0
H1696 H 0.76841 0.28395 0.59711 0.0
H1697 H 0.80793 0.31127 0.63049 0.0
H1698 H 0.83385 0.31489 0.64479 0.0
H1699 H 0.85915 0.3118 0.60001 0.0
H1700 H 0.83338 0.30796 0.58547 0.0
H1701 H 0.75354 0.35894 0.56051 0.0
H1702 H 0.76177 0.33984 0.5809 0.0
H1703 H 0.79819 0.32184 0.54904 0.0
H1704 H 0.78982 0.34074 0.52839 0.0
H1705 H 0.80793 0.3273 0.58313 0.0
H1706 H 0.76713 0.30037 0.55022 0.0
H1707 H 0.74064 0.29807 0.53683 0.0
H1708 H 0.7171 0.30217 0.58248 0.0
H1709 H 0.74347 0.30474 0.59613 0.0
C1710 C 0.81329 0.26231 0.6261 0.0
C1711 C 0.80209 0.25901 0.63829 0.0
C1712 C 0.8099 0.27351 0.61423 0.0
C1713 C 0.79545 0.282 0.61456 0.0
C1714 C 0.78419 0.27854 0.62667 0.0
C1715 C 0.78743 0.26709 0.63835 0.0
C1716 C 0.79195 0.29436 0.60226 0.0
C1717 C 0.77702 0.29353 0.59427 0.0
C1718 C 0.80323 0.30677 0.59821 0.0
C1719 C 0.81873 0.30917 0.60691 0.0
C1720 C 0.81903 0.31126 0.62371 0.0
C1721 C 0.83369 0.31336 0.63185 0.0
C1722 C 0.84814 0.31353 0.62332 0.0
C1723 C 0.84795 0.31165 0.60661 0.0
C1724 C 0.83332 0.30952 0.59841 0.0
C1725 C 0.76345 0.35109 0.5579 0.0
C1726 C 0.771 0.35132 0.54282 0.0
C1727 C 0.7681 0.34014 0.56955 0.0
C1728 C 0.78051 0.32937 0.56642 0.0
C1729 C 0.78858 0.33006 0.55167 0.0
C1730 C 0.78377 0.34084 0.53989 0.0
C1731 C 0.78444 0.31685 0.57826 0.0
C1732 C 0.79941 0.31768 0.58608 0.0
C1733 C 0.77313 0.30459 0.58235 0.0
C1734 C 0.75727 0.30291 0.57418 0.0
C1735 C 0.7563 0.30092 0.55739 0.0
C1736 C 0.74131 0.29954 0.54975 0.0
C1737 C 0.72719 0.30002 0.55879 0.0
C1738 C 0.72804 0.30183 0.57549 0.0
C1739 C 0.74301 0.30323 0.58319 0.0
H1740 H 0.71559 0.29895 0.55286 0.0
H1741 H 0.85948 0.31516 0.62965 0.0
H1742 H 0.54038 0.96961 0.5997 0.0
H1743 H 0.55632 0.9754 0.62387 0.0
H1744 H 0.5156 0.99772 0.6461 0.0
H1745 H 0.49913 0.99114 0.6224 0.0
H1746 H 0.54814 0.01578 0.64722 0.0
H1747 H 0.52158 0.96456 0.65913 0.0
H1748 H 0.51385 0.93618 0.65309 0.0
H1749 H 0.56369 0.92393 0.65047 0.0
H1750 H 0.57171 0.9523 0.65625 0.0
H1751 H 0.58035 0.02601 0.72529 0.0
H1752 H 0.56245 0.0195 0.70263 0.0
H1753 H 0.59426 0.98195 0.68716 0.0
H1754 H 0.61176 0.9879 0.71026 0.0
H1755 H 0.56558 0.97164 0.68237 0.0
H1756 H 0.59332 0.02079 0.66966 0.0
H1757 H 0.60314 0.04885 0.67398 0.0
H1758 H 0.55445 0.06499 0.67548 0.0
H1759 H 0.54433 0.03697 0.67146 0.0
C1760 C 0.53463 0.97551 0.60977 0.0
C1761 C 0.51832 0.97976 0.60899 0.0
C1762 C 0.54386 0.97894 0.62354 0.0
C1763 C 0.53712 0.98696 0.63674 0.0
C1764 C 0.52102 0.99159 0.63597 0.0
C1765 C 0.51167 0.98789 0.62232 0.0
C1766 C 0.54686 0.99026 0.65144 0.0
C1767 C 0.55178 0.0062 0.65508 0.0
C1768 C 0.55205 0.97766 0.66129 0.0
C1769 C 0.54724 0.96058 0.65795 0.0
C1770 C 0.53089 0.95584 0.65711 0.0
C1771 C 0.52645 0.93975 0.65377 0.0
C1772 C 0.53827 0.92827 0.65135 0.0
C1773 C 0.55455 0.93284 0.65232 0.0
C1774 C 0.55904 0.94892 0.65565 0.0
C1775 C 0.58346 0.01629 0.71712 0.0
C1776 C 0.59751 0.00752 0.71955 0.0
C1777 C 0.57327 0.01264 0.70408 0.0
C1778 C 0.57714 1.00046 0.6929 0.0
C1779 C 0.59097 0.99142 0.69555 0.0
C1780 C 0.601 0.99485 0.70878 0.0
C1781 C 0.56694 0.99728 0.67834 0.0
C1782 C 0.56195 0.98132 0.67464 0.0
C1783 C 0.56202 0.00986 0.66819 0.0
C1784 C 0.56806 0.02675 0.67042 0.0
C1785 C 0.5847 0.03031 0.67102 0.0
C1786 C 0.59032 0.0462 0.6734 0.0
C1787 C 0.57942 0.05869 0.67504 0.0
C1788 C 0.56288 0.0553 0.67424 0.0
C1789 C 0.55719 0.03942 0.6719 0.0
H1790 H 0.5838 0.07099 0.67688 0.0
H1791 H 0.53482 0.91582 0.64877 0.0
H1792 H 0.8914 0.20613 0.73535 0.0
H1793 H 0.91467 0.21047 0.75321 0.0
H1794 H 0.88294 0.21157 0.79413 0.0
H1795 H 0.85981 0.20658 0.77636 0.0
H1796 H 0.92438 0.23323 0.77174 0.0
H1797 H 0.90076 0.19861 0.82761 0.0
H1798 H 0.88345 0.17491 0.83368 0.0
H1799 H 0.89275 0.15469 0.78693 0.0
H1800 H 0.9103 0.17815 0.78065 0.0
H1801 H 0.96586 0.2593 0.84128 0.0
H1802 H 0.94655 0.25146 0.82029 0.0
H1803 H 0.96201 0.20218 0.8227 0.0
H1804 H 0.9809 0.21005 0.84444 0.0
H1805 H 0.93135 0.20173 0.82131 0.0
H1806 H 0.97156 0.22798 0.79018 0.0
H1807 H 0.99093 0.24959 0.78278 0.0
H1808 H 0.95223 0.28245 0.7772 0.0
H1809 H 0.93263 0.26109 0.78479 0.0
C1810 C 0.88945 0.20728 0.74817 0.0
C1811 C 0.87384 0.20589 0.7545 0.0
C1812 C 0.90274 0.20976 0.75838 0.0
C1813 C 0.90066 0.21107 0.7751 0.0
C1814 C 0.88498 0.21012 0.78135 0.0
C1815 C 0.87174 0.20735 0.77119 0.0
C1816 C 0.91481 0.21377 0.78596 0.0
C1817 C 0.92591 0.22628 0.78254 0.0
C1818 C 0.91714 0.20448 0.7999 0.0
C1819 C 0.90672 0.19023 0.80361 0.0
C1820 C 0.89916 0.18908 0.81865 0.0
C1821 C 0.8893 0.17569 0.82212 0.0
C1822 C 0.88696 0.16333 0.81068 0.0
C1823 C 0.89452 0.1643 0.79576 0.0
C1824 C 0.90442 0.17766 0.79223 0.0
C1825 C 0.96501 0.24677 0.83739 0.0
C1826 C 0.97436 0.23514 0.8448 0.0
C1827 C 0.95417 0.24233 0.82519 0.0
C1828 C 0.95285 0.22622 0.81974 0.0
C1829 C 0.96272 0.21467 0.82674 0.0
C1830 C 0.97352 0.21913 0.83909 0.0
C1831 C 0.94065 0.22144 0.80729 0.0
C1832 C 0.92989 0.20857 0.81044 0.0
C1833 C 0.93891 0.23009 0.79287 0.0
C1834 C 0.95063 0.24294 0.78814 0.0
C1835 C 0.96719 0.23983 0.78746 0.0
C1836 C 0.97821 0.25204 0.78323 0.0
C1837 C 0.97282 0.26739 0.77955 0.0
C1838 C 0.95639 0.27055 0.78006 0.0
C1839 C 0.94531 0.25839 0.7843 0.0
H1840 H 0.98137 0.27682 0.77628 0.0
H1841 H 0.8793 0.15298 0.81339 0.0
H1842 H 0.50175 0.90667 0.48795 0.0
H1843 H 0.50752 0.88225 0.47216 0.0
H1844 H 0.45683 0.86986 0.47043 0.0
H1845 H 0.451 0.89416 0.48623 0.0
H1846 H 0.47587 0.84391 0.47835 0.0
H1847 H 0.47453 0.88581 0.43851 0.0
H1848 H 0.48307 0.91168 0.42661 0.0
H1849 H 0.53154 0.89523 0.42294 0.0
H1850 H 0.52332 0.86932 0.43503 0.0
H1851 H 0.46437 0.78781 0.41603 0.0
H1852 H 0.46486 0.81138 0.43365 0.0
H1853 H 0.51582 0.81809 0.42565 0.0
H1854 H 0.51542 0.79439 0.40753 0.0
H1855 H 0.50075 0.84642 0.42433 0.0
H1856 H 0.50209 0.80364 0.46141 0.0
H1857 H 0.49413 0.77766 0.47341 0.0
H1858 H 0.44698 0.79544 0.48305 0.0
H1859 H 0.45457 0.82146 0.47089 0.0
C1860 C 0.49185 0.8987 0.48425 0.0
C1861 C 0.47591 0.90237 0.48829 0.0
C1862 C 0.49516 0.8848 0.47516 0.0
C1863 C 0.4826 0.87427 0.47005 0.0
C1864 C 0.4667 0.87782 0.47423 0.0
C1865 C 0.46338 0.89177 0.48316 0.0
C1866 C 0.48589 0.85951 0.46035 0.0
C1867 C 0.48121 0.84445 0.46649 0.0
C1868 C 0.49342 0.86017 0.44514 0.0
C1869 C 0.49835 0.87572 0.43785 0.0
C1870 C 0.48704 0.88777 0.4353 0.0
C1871 C 0.49182 0.90242 0.42849 0.0
C1872 C 0.50785 0.90512 0.42407 0.0
C1873 C 0.51913 0.89314 0.4264 0.0
C1874 C 0.51442 0.87847 0.43322 0.0
C1875 C 0.47578 0.79414 0.41802 0.0
C1876 C 0.48991 0.78903 0.41037 0.0
C1877 C 0.47603 0.80766 0.42821 0.0
C1878 C 0.49042 0.81639 0.43124 0.0
C1879 C 0.50457 0.81148 0.42357 0.0
C1880 C 0.50434 0.7979 0.41325 0.0
C1881 C 0.49034 0.83081 0.44216 0.0
C1882 C 0.49563 0.84581 0.43628 0.0
C1883 C 0.4835 0.83009 0.4577 0.0
C1884 C 0.47888 0.81448 0.46514 0.0
C1885 C 0.48999 0.80198 0.46599 0.0
C1886 C 0.48554 0.78725 0.47284 0.0
C1887 C 0.47005 0.78489 0.47897 0.0
C1888 C 0.45898 0.79728 0.47829 0.0
C1889 C 0.46335 0.81204 0.47144 0.0
H1890 H 0.46663 0.77348 0.48426 0.0
H1891 H 0.51153 0.91647 0.4188 0.0
H1892 H 0.11561 0.29413 0.74062 0.0
H1893 H 0.09507 0.29146 0.76157 0.0
H1894 H 0.13198 0.29564 0.79803 0.0
H1895 H 0.15256 0.29852 0.77713 0.0
H1896 H 0.10919 0.26894 0.80152 0.0
H1897 H 0.11034 0.32641 0.79336 0.0
H1898 H 0.10909 0.35096 0.77712 0.0
H1899 H 0.06124 0.33735 0.76164 0.0
H1900 H 0.0623 0.31258 0.77761 0.0
H1901 H 0.05648 0.2706 0.86743 0.0
H1902 H 0.07808 0.27827 0.84897 0.0
H1903 H 0.04285 0.28751 0.81223 0.0
H1904 H 0.02124 0.28064 0.83091 0.0
H1905 H 0.06579 0.30833 0.8094 0.0
H1906 H 0.06412 0.25084 0.81462 0.0
H1907 H 0.0644 0.22495 0.8288 0.0
H1908 H 0.11168 0.2366 0.84721 0.0
H1909 H 0.11159 0.26267 0.8333 0.0
C1910 C 0.11932 0.29447 0.7531 0.0
C1911 C 0.13567 0.29653 0.75726 0.0
C1912 C 0.10759 0.29304 0.76504 0.0
C1913 C 0.11202 0.29343 0.78134 0.0
C1914 C 0.12833 0.29535 0.78552 0.0
C1915 C 0.14005 0.29706 0.7736 0.0
C1916 C 0.09962 0.29149 0.79399 0.0
C1917 C 0.09983 0.27766 0.80346 0.0
C1918 C 0.08716 0.30263 0.7961 0.0
C1919 C 0.08647 0.31756 0.78657 0.0
C1920 C 0.09961 0.32858 0.78639 0.0
C1921 C 0.09892 0.34255 0.77725 0.0
C1922 C 0.08511 0.3457 0.76832 0.0
C1923 C 0.07194 0.33489 0.76855 0.0
C1924 C 0.07257 0.32089 0.77765 0.0
C1925 C 0.05335 0.27454 0.8555 0.0
C1926 C 0.03717 0.27493 0.8506 0.0
C1927 C 0.06571 0.27879 0.84489 0.0
C1928 C 0.06217 0.28306 0.82901 0.0
C1929 C 0.04596 0.2842 0.82437 0.0
C1930 C 0.03359 0.28026 0.83507 0.0
C1931 C 0.07525 0.28569 0.81703 0.0
C1932 C 0.07517 0.29961 0.80762 0.0
C1933 C 0.08767 0.27444 0.81471 0.0
C1934 C 0.08777 0.25878 0.82307 0.0
C1935 C 0.07452 0.24793 0.82179 0.0
C1936 C 0.07466 0.23322 0.82976 0.0
C1937 C 0.08803 0.22916 0.83894 0.0
C1938 C 0.10132 0.23978 0.84013 0.0
C1939 C 0.10124 0.25452 0.83219 0.0
H1940 H 0.08812 0.21776 0.8451 0.0
H1941 H 0.0846 0.35652 0.76126 0.0
H1942 H 0.49795 0.61006 0.49578 0.0
H1943 H 0.49327 0.63214 0.47745 0.0
H1944 H 0.54449 0.63896 0.47129 0.0
H1945 H 0.5493 0.61719 0.49014 0.0
H1946 H 0.5304 0.66742 0.47517 0.0
H1947 H 0.5212 0.62061 0.44196 0.0
H1948 H 0.50945 0.59398 0.43427 0.0
H1949 H 0.46208 0.61352 0.43518 0.0
H1950 H 0.47353 0.64023 0.44309 0.0
H1951 H 0.52242 0.71856 0.40721 0.0
H1952 H 0.52914 0.6964 0.42488 0.0
H1953 H 0.47878 0.68833 0.43508 0.0
H1954 H 0.4719 0.71036 0.41741 0.0
H1955 H 0.49377 0.66021 0.42827 0.0
H1956 H 0.50332 0.70691 0.46243 0.0
H1957 H 0.51541 0.73348 0.46984 0.0
H1958 H 0.56269 0.71392 0.46659 0.0
H1959 H 0.55088 0.68727 0.45894 0.0
C1960 C 0.50825 0.61632 0.49065 0.0
C1961 C 0.52401 0.61183 0.49449 0.0
C1962 C 0.50554 0.62885 0.48001 0.0
C1963 C 0.51852 0.63712 0.47281 0.0
C1964 C 0.53428 0.63273 0.47664 0.0
C1965 C 0.53701 0.62018 0.48731 0.0
C1966 C 0.51556 0.65048 0.46149 0.0
C1967 C 0.5226 0.66577 0.46477 0.0
C1968 C 0.50516 0.64844 0.44805 0.0
C1969 C 0.49822 0.63239 0.44326 0.0
C1970 C 0.50827 0.6192 0.44064 0.0
C1971 C 0.50166 0.6041 0.43622 0.0
C1972 C 0.48502 0.60205 0.43428 0.0
C1973 C 0.47496 0.61512 0.43671 0.0
C1974 C 0.48151 0.63025 0.44114 0.0
C1975 C 0.51275 0.71213 0.41324 0.0
C1976 C 0.4966 0.71633 0.41087 0.0
C1977 C 0.51663 0.69948 0.42339 0.0
C1978 C 0.50447 0.69075 0.4314 0.0
C1979 C 0.48836 0.69488 0.42904 0.0
C1980 C 0.48447 0.70756 0.41896 0.0
C1981 C 0.50846 0.67716 0.44206 0.0
C1982 C 0.50163 0.66183 0.43864 0.0
C1983 C 0.5191 0.67915 0.4553 0.0
C1984 C 0.52622 0.69514 0.45994 0.0
C1985 C 0.5163 0.70831 0.46316 0.0
C1986 C 0.5231 0.72338 0.46743 0.0
C1987 C 0.53981 0.7254 0.46864 0.0
C1988 C 0.54975 0.71234 0.46562 0.0
C1989 C 0.54301 0.69725 0.46133 0.0
H1990 H 0.54505 0.73707 0.47195 0.0
H1991 H 0.47993 0.59034 0.43085 0.0
H1992 H 0.87555 0.77414 0.75705 0.0
H1993 H 0.89687 0.77087 0.73736 0.0
H1994 H 0.90262 0.82256 0.7342 0.0
H1995 H 0.88128 0.82598 0.75423 0.0
H1996 H 0.90377 0.8067 0.70406 0.0
H1997 H 0.92952 0.80361 0.75502 0.0
H1998 H 0.93308 0.79462 0.78286 0.0
H1999 H 0.93699 0.74561 0.7661 0.0
H2000 H 0.9332 0.75427 0.73817 0.0
H2001 H 0.97684 0.78922 0.65947 0.0
H2002 H 0.95854 0.80125 0.67922 0.0
H2003 H 0.94292 0.75366 0.69362 0.0
H2004 H 0.96094 0.74164 0.67425 0.0
H2005 H 0.94983 0.7731 0.71935 0.0
H2006 H 0.92008 0.77601 0.66905 0.0
H2007 H 0.91619 0.78486 0.64119 0.0
H2008 H 0.92018 0.83443 0.65684 0.0
H2009 H 0.92431 0.82585 0.68478 0.0
C2010 C 0.8814 0.78485 0.7523 0.0
C2011 C 0.87686 0.80033 0.75745 0.0
C2012 C 0.89355 0.78296 0.74097 0.0
C2013 C 0.90153 0.79647 0.7345 0.0
C2014 C 0.89666 0.81197 0.73909 0.0
C2015 C 0.88445 0.8139 0.75051 0.0
C2016 C 0.91518 0.7941 0.72328 0.0
C2017 C 0.91403 0.79965 0.70747 0.0
C2018 C 0.92854 0.78486 0.72771 0.0
C2019 C 0.93098 0.77959 0.74449 0.0
C2020 C 0.93103 0.7909 0.75727 0.0
C2021 C 0.9331 0.78586 0.77307 0.0
C2022 C 0.93524 0.76955 0.77625 0.0
C2023 C 0.93533 0.75824 0.76362 0.0
C2024 C 0.93325 0.76321 0.7478 0.0
C2025 C 0.96951 0.78134 0.66686 0.0
C2026 C 0.97042 0.76444 0.66521 0.0
C2027 C 0.95903 0.78823 0.6781 0.0
C2028 C 0.94935 0.77834 0.68789 0.0
C2029 C 0.95031 0.76154 0.68627 0.0
C2030 C 0.96064 0.75469 0.67508 0.0
C2031 C 0.93812 0.78513 0.69996 0.0
C2032 C 0.93975 0.78043 0.71599 0.0
C2033 C 0.92527 0.79516 0.69571 0.0
C2034 C 0.92271 0.8003 0.67895 0.0
C2035 C 0.92026 0.7888 0.66653 0.0
C2036 C 0.91799 0.79376 0.65073 0.0
C2037 C 0.918 0.8102 0.64724 0.0
C2038 C 0.92022 0.8217 0.65955 0.0
C2039 C 0.92252 0.8168 0.67537 0.0
H2040 H 0.91624 0.81402 0.635 0.0
H2041 H 0.93684 0.76568 0.78849 0.0
H2042 H 0.02888 0.91759 0.54141 0.0
H2043 H 0.0254 0.89487 0.55949 0.0
H2044 H 0.00192 0.86696 0.52167 0.0
H2045 H 0.00587 0.88936 0.50325 0.0
H2046 H 0.98588 0.86535 0.55178 0.0
H2047 H 0.03908 0.8591 0.52996 0.0
H2048 H 0.06674 0.86813 0.52339 0.0
H2049 H 0.07682 0.87691 0.57343 0.0
H2050 H 0.04912 0.86815 0.58028 0.0
H2051 H 0.98842 0.78751 0.58617 0.0
H2052 H 0.99005 0.8112 0.56911 0.0
H2053 H 0.02197 0.83505 0.60347 0.0
H2054 H 0.02085 0.81112 0.62026 0.0
H2055 H 0.03346 0.83933 0.57528 0.0
H2056 H 0.98117 0.84567 0.59782 0.0
H2057 H 0.95345 0.8376 0.60523 0.0
H2058 H 0.94136 0.82998 0.55546 0.0
H2059 H 0.96908 0.83779 0.54776 0.0
C2060 C 0.02315 0.90658 0.53681 0.0
C2061 C 0.01776 0.90537 0.52075 0.0
C2062 C 0.02107 0.89363 0.54724 0.0
C2063 C 0.01346 0.8792 0.54191 0.0
C2064 C 0.00776 0.87802 0.52605 0.0
C2065 C 0.00998 0.8909 0.51555 0.0
C2066 C 0.01175 0.86524 0.55282 0.0
C2067 C 0.99626 0.85951 0.55679 0.0
C2068 C 0.0253 0.85794 0.55971 0.0
C2069 C 0.04198 0.86313 0.55562 0.0
C2070 C 0.04715 0.86309 0.53955 0.0
C2071 C 0.06284 0.86813 0.53578 0.0
C2072 C 0.07352 0.87314 0.54798 0.0
C2073 C 0.06853 0.87306 0.56399 0.0
C2074 C 0.05284 0.86804 0.56783 0.0
C2075 C 0.99565 0.79787 0.59018 0.0
C2076 C 0.00449 0.79744 0.60459 0.0
C2077 C 0.99653 0.81147 0.58043 0.0
C2078 C 0.006 0.82508 0.58503 0.0
C2079 C 0.0146 0.82474 0.59959 0.0
C2080 C 0.0139 0.81107 0.60923 0.0
C2081 C 0.00752 0.83935 0.57438 0.0
C2082 C 0.02301 0.84515 0.57039 0.0
C2083 C 0.99395 0.84683 0.56765 0.0
C2084 C 0.97725 0.84217 0.57222 0.0
C2085 C 0.97264 0.84216 0.58846 0.0
C2086 C 0.95692 0.83765 0.59271 0.0
C2087 C 0.94567 0.83324 0.58082 0.0
C2088 C 0.9501 0.83338 0.56465 0.0
C2089 C 0.96581 0.83786 0.56034 0.0
H2090 H 0.9335 0.82975 0.58414 0.0
H2091 H 0.08566 0.87704 0.54504 0.0
H2092 H 0.11687 0.71326 0.77254 0.0
H2093 H 0.09586 0.71693 0.75222 0.0
H2094 H 0.13213 0.72048 0.71548 0.0
H2095 H 0.1532 0.71648 0.73574 0.0
H2096 H 0.10738 0.74618 0.71667 0.0
H2097 H 0.11281 0.68823 0.71481 0.0
H2098 H 0.11375 0.66127 0.7268 0.0
H2099 H 0.06579 0.66653 0.74483 0.0
H2100 H 0.06465 0.69365 0.73314 0.0
H2101 H 0.05363 0.74635 0.65017 0.0
H2102 H 0.07586 0.74164 0.6687 0.0
H2103 H 0.04249 0.72024 0.70231 0.0
H2104 H 0.02044 0.72406 0.68338 0.0
H2105 H 0.06695 0.70329 0.70229 0.0
H2106 H 0.0606 0.76044 0.70648 0.0
H2107 H 0.05862 0.78832 0.69688 0.0
H2108 H 0.10637 0.78614 0.67756 0.0
H2109 H 0.10856 0.75816 0.68686 0.0
C2110 C 0.12033 0.71476 0.76011 0.0
C2111 C 0.13663 0.71457 0.75567 0.0
C2112 C 0.10835 0.71683 0.74854 0.0
C2113 C 0.11247 0.71897 0.73238 0.0
C2114 C 0.12874 0.71884 0.7279 0.0
C2115 C 0.14072 0.71647 0.73944 0.0
C2116 C 0.09974 0.72153 0.72022 0.0
C2117 C 0.09865 0.73677 0.71329 0.0
C2118 C 0.08809 0.70938 0.7163 0.0
C2119 C 0.08871 0.69303 0.72323 0.0
C2120 C 0.10252 0.6837 0.72145 0.0
C2121 C 0.10308 0.66838 0.72817 0.0
C2122 C 0.08985 0.6622 0.73661 0.0
C2123 C 0.07603 0.67133 0.7383 0.0
C2124 C 0.07542 0.68667 0.73162 0.0
C2125 C 0.05106 0.74071 0.66155 0.0
C2126 C 0.03529 0.73563 0.66535 0.0
C2127 C 0.06377 0.73809 0.67221 0.0
C2128 C 0.06091 0.73083 0.68712 0.0
C2129 C 0.0451 0.72583 0.69092 0.0
C2130 C 0.03247 0.72807 0.6801 0.0
C2131 C 0.07435 0.7281 0.69866 0.0
C2132 C 0.07562 0.71279 0.70553 0.0
C2133 C 0.08595 0.74033 0.70282 0.0
C2134 C 0.08468 0.75715 0.69722 0.0
C2135 C 0.07063 0.76587 0.70008 0.0
C2136 C 0.06948 0.7817 0.69471 0.0
C2137 C 0.08234 0.78898 0.68657 0.0
C2138 C 0.0964 0.78047 0.68383 0.0
C2139 C 0.09761 0.76464 0.68916 0.0
H2140 H 0.08142 0.80124 0.68243 0.0
H2141 H 0.0903 0.65033 0.7418 0.0
H2142 H 0.99369 0.6225 0.50084 0.0
H2143 H 1.0013 0.64681 0.5163 0.0
H2144 H 0.9824 0.6251 0.55926 0.0
H2145 H 0.9757 0.60042 0.54414 0.0
H2146 H 0.98496 0.66803 0.53172 0.0
H2147 H 0.00195 0.63875 0.59215 0.0
H2148 H 0.01374 0.61368 0.60189 0.0
H2149 H 0.03769 0.60702 0.55675 0.0
H2150 H 0.02624 0.63218 0.54683 0.0
H2151 H 0.98203 0.72472 0.59551 0.0
H2152 H 0.97939 0.70194 0.57664 0.0
H2153 H 0.0302 0.69327 0.58163 0.0
H2154 H 0.03258 0.71575 0.60117 0.0
H2155 H 0.01535 0.66624 0.58299 0.0
H2156 H 0.01261 0.70934 0.54634 0.0
H2157 H 0.00333 0.73501 0.53545 0.0
H2158 H 0.95535 0.71501 0.53071 0.0
H2159 H 0.9643 0.68928 0.54178 0.0
C2160 C 0.99141 0.62275 0.51364 0.0
C2161 C 0.98413 0.60938 0.52121 0.0
C2162 C 0.99562 0.63676 0.52244 0.0
C2163 C 0.99262 0.63778 0.53902 0.0
C2164 C 0.98515 0.62455 0.54656 0.0
C2165 C 0.9811 0.61048 0.53781 0.0
C2166 C 0.99702 0.65274 0.54837 0.0
C2167 C 0.99161 0.66762 0.54293 0.0
C2168 C 0.00605 0.65236 0.56282 0.0
C2169 C 0.01313 0.63728 0.56871 0.0
C2170 C 0.0098 0.63198 0.58434 0.0
C2171 C 0.01641 0.61774 0.58988 0.0
C2172 C 0.02642 0.60874 0.57993 0.0
C2173 C 0.02989 0.61398 0.56442 0.0
C2174 C 0.02333 0.62821 0.55883 0.0
C2175 C 0.99258 0.71785 0.59262 0.0
C2176 C 0.00736 0.7215 0.60018 0.0
C2177 C 0.99115 0.705 0.58162 0.0
C2178 C 0.00461 0.69586 0.57756 0.0
C2179 C 0.0196 0.70003 0.58461 0.0
C2180 C 0.02099 0.71286 0.59573 0.0
C2181 C 0.0028 0.68147 0.56666 0.0
C2182 C 0.0087 0.66667 0.57179 0.0
C2183 C 0.99453 0.682 0.55177 0.0
C2184 C 0.98911 0.69741 0.54498 0.0
C2185 C 1.00006 0.71044 0.54306 0.0
C2186 C 0.99486 0.725 0.53684 0.0
C2187 C 0.97876 0.72665 0.53241 0.0
C2188 C 0.96782 0.71372 0.53415 0.0
C2189 C 0.97296 0.69913 0.54037 0.0
H2190 H 0.97475 0.73793 0.52761 0.0
H2191 H 0.03151 0.59771 0.58423 0.0
H2192 H 0.7357 0.90011 0.2207 0.0
H2193 H 0.75814 0.9194 0.22544 0.0
H2194 H 0.79173 0.883 0.21132 0.0
H2195 H 0.76952 0.86363 0.20694 0.0
H2196 H 0.79954 0.89693 0.23977 0.0
H2197 H 0.78437 0.91462 0.18718 0.0
H2198 H 0.76563 0.92468 0.16683 0.0
H2199 H 0.75778 0.96698 0.19592 0.0
H2200 H 0.77632 0.95706 0.21656 0.0
H2201 H 0.85703 0.97083 0.21611 0.0
H2202 H 0.83701 0.94929 0.21043 0.0
H2203 H 0.82995 0.94338 0.26136 0.0
H2204 H 0.85106 0.96361 0.26686 0.0
H2205 H 0.80782 0.95044 0.21509 0.0
H2206 H 0.8132 0.92116 0.27132 0.0
H2207 H 0.8271 0.90457 0.29115 0.0
H2208 H 0.85182 0.88014 0.25305 0.0
H2209 H 0.83871 0.89727 0.2331 0.0
C2210 C 0.74788 0.89624 0.21856 0.0
C2211 C 0.75081 0.8803 0.21346 0.0
C2212 C 0.76067 0.90733 0.22112 0.0
C2213 C 0.77661 0.90266 0.21865 0.0
C2214 C 0.77952 0.88688 0.21325 0.0
C2215 C 0.76678 0.87584 0.21065 0.0
C2216 C 0.79041 0.91371 0.22282 0.0
C2217 C 0.80145 0.90862 0.23428 0.0
C2218 C 0.79273 0.92902 0.21589 0.0
C2219 C 0.78161 0.93502 0.20348 0.0
C2220 C 0.77855 0.926 0.1893 0.0
C2221 C 0.76798 0.93169 0.1777 0.0
C2222 C 0.76049 0.94644 0.1801 0.0
C2223 C 0.76358 0.95555 0.19409 0.0
C2224 C 0.77412 0.9499 0.20573 0.0
C2225 C 0.85158 0.96443 0.22602 0.0
C2226 C 0.85576 0.96863 0.24189 0.0
C2227 C 0.84005 0.95217 0.22283 0.0
C2228 C 0.83191 0.94429 0.23543 0.0
C2229 C 0.83636 0.94844 0.25132 0.0
C2230 C 0.84833 0.96027 0.2545 0.0
C2231 C 0.81758 0.93347 0.23177 0.0
C2232 C 0.80617 0.93871 0.22051 0.0
C2233 C 0.81487 0.91819 0.2389 0.0
C2234 C 0.82563 0.91105 0.25082 0.0
C2235 C 0.82217 0.91276 0.26726 0.0
C2236 C 0.82978 0.90316 0.2785 0.0
C2237 C 0.84036 0.89133 0.27337 0.0
C2238 C 0.84367 0.88936 0.25702 0.0
C2239 C 0.83644 0.89926 0.24578 0.0
H2240 H 0.84603 0.8837 0.28205 0.0
H2241 H 0.75232 0.95083 0.1711 0.0
H2242 H 0.7745 0.15004 0.29802 0.0
H2243 H 0.79461 0.12909 0.29469 0.0
H2244 H 0.7567 0.09281 0.29037 0.0
H2245 H 0.7365 0.11375 0.29351 0.0
H2246 H 0.78392 0.0849 0.31148 0.0
H2247 H 0.77235 0.10335 0.2579 0.0
H2248 H 0.76945 0.12412 0.23729 0.0
H2249 H 0.81896 0.13891 0.2439 0.0
H2250 H 0.82208 0.11837 0.26474 0.0
H2251 H 0.8299 0.02015 0.27984 0.0
H2252 H 0.80983 0.0403 0.28654 0.0
H2253 H 0.84435 0.0784 0.2759 0.0
H2254 H 0.86405 0.05829 0.2684 0.0
H2255 H 0.81827 0.08552 0.26288 0.0
H2256 H 0.831 0.06812 0.31582 0.0
H2257 H 0.83485 0.04874 0.33759 0.0
H2258 H 0.78516 0.03361 0.33402 0.0
H2259 H 0.78105 0.05275 0.31208 0.0
C2260 C 0.77047 0.13758 0.29648 0.0
C2261 C 0.75394 0.13352 0.29596 0.0
C2262 C 0.78195 0.12565 0.29455 0.0
C2263 C 0.77712 0.10942 0.29226 0.0
C2264 C 0.76065 0.10526 0.29215 0.0
C2265 C 0.74915 0.11723 0.29383 0.0
C2266 C 0.78928 0.09689 0.28935 0.0
C2267 C 0.79135 0.08487 0.30079 0.0
C2268 C 0.79922 0.09718 0.27562 0.0
C2269 C 0.7974 0.10944 0.26299 0.0
C2270 C 0.78258 0.11112 0.25506 0.0
C2271 C 0.7809 0.12283 0.24331 0.0
C2272 C 0.794 0.13286 0.23931 0.0
C2273 C 0.80881 0.13115 0.24702 0.0
C2274 C 0.81055 0.11947 0.25879 0.0
C2275 C 0.83323 0.03284 0.27914 0.0
C2276 C 0.84853 0.03766 0.27359 0.0
C2277 C 0.82177 0.04438 0.28304 0.0
C2278 C 0.82554 0.06098 0.2819 0.0
C2279 C 0.84104 0.06573 0.27682 0.0
C2280 C 0.85234 0.05421 0.27259 0.0
C2281 C 0.81319 0.0734 0.28512 0.0
C2282 C 0.81098 0.08546 0.27367 0.0
C2283 C 0.80334 0.07328 0.299 0.0
C2284 C 0.80576 0.06176 0.31219 0.0
C2285 C 0.82092 0.06057 0.31959 0.0
C2286 C 0.82315 0.04964 0.33198 0.0
C2287 C 0.81027 0.03992 0.33715 0.0
C2288 C 0.79513 0.04113 0.32998 0.0
C2289 C 0.79284 0.05203 0.31758 0.0
H2290 H 0.81202 0.03147 0.34674 0.0
H2291 H 0.79268 0.14192 0.23022 0.0
H2292 H 0.38864 0.00428 0.98158 0.0
H2293 H 0.3645 0.98847 0.98847 0.0
H2294 H 0.39319 0.9461 0.99353 0.0
H2295 H 0.41725 0.96181 0.98586 0.0
H2296 H 0.36758 0.93742 0.97919 0.0
H2297 H 0.37711 0.96856 0.02682 0.0
H2298 H 0.38246 0.99297 0.04349 0.0
H2299 H 0.33745 0.01235 0.02859 0.0
H2300 H 0.33192 0.98815 0.01164 0.0
H2301 H 0.30151 0.89433 0.01564 0.0
H2302 H 0.32702 0.91006 0.01591 0.0
H2303 H 0.30405 0.94843 0.99088 0.0
H2304 H 0.27877 0.93257 0.99007 0.0
H2305 H 0.32762 0.95758 0.01835 0.0
H2306 H 0.32097 0.92631 0.96819 0.0
H2307 H 0.31624 0.90087 0.95294 0.0
H2308 H 0.35736 0.8804 0.97558 0.0
H2309 H 0.36217 0.90568 0.99116 0.0
C2310 C 0.38977 0.9916 0.98423 0.0
C2311 C 0.4048 0.98426 0.98323 0.0
C2312 C 0.37598 0.98257 0.98829 0.0
C2313 C 0.37698 0.96611 0.99191 0.0
C2314 C 0.39204 0.95877 0.99086 0.0
C2315 C 0.40579 0.96773 0.98647 0.0
C2316 C 0.36225 0.95646 0.9962 0.0
C2317 C 0.35906 0.94176 0.988 0.0
C2318 C 0.35092 0.96202 0.00763 0.0
C2319 C 0.35416 0.97658 0.01786 0.0
C2320 C 0.3684 0.97807 0.02701 0.0
C2321 C 0.37146 0.99187 0.03652 0.0
C2322 C 0.36032 0.00422 0.03708 0.0
C2323 C 0.34607 0.00278 0.02814 0.0
C2324 C 0.34296 0.98902 0.01859 0.0
C2325 C 0.30183 0.9063 0.0106 0.0
C2326 C 0.28821 0.91229 0.00287 0.0
C2327 C 0.31639 0.91523 0.0107 0.0
C2328 C 0.31737 0.93038 0.00339 0.0
C2329 C 0.30349 0.9368 0.99664 0.0
C2330 C 0.28909 0.92774 0.99617 0.0
C2331 C 0.33311 0.93885 1.00124 0.0
C2332 C 0.33638 0.95327 0.00977 0.0
C2333 C 0.34467 0.93292 0.99038 0.0
C2334 C 0.3418 0.91778 0.98098 0.0
C2335 C 0.32889 0.91632 0.97004 0.0
C2336 C 0.32622 0.90195 0.96132 0.0
C2337 C 0.33646 0.88901 0.96333 0.0
C2338 C 0.34942 0.89043 0.97406 0.0
C2339 C 0.35212 0.90477 0.98283 0.0
H2340 H 0.33442 0.8779 0.95654 0.0
H2341 H 0.36271 0.01489 0.04445 0.0
H2342 H 0.26922 0.39413 0.29347 0.0
H2343 H 0.24798 0.41388 0.29051 0.0
H2344 H 0.212 0.37553 0.29148 0.0
H2345 H 0.23322 0.3557 0.29452 0.0
H2346 H 0.20833 0.39773 0.2659 0.0
H2347 H 0.21586 0.39833 0.32328 0.0
H2348 H 0.23179 0.40066 0.34828 0.0
H2349 H 0.24709 0.44875 0.33602 0.0
H2350 H 0.23144 0.44662 0.31081 0.0
H2351 H 0.14189 0.44921 0.26663 0.0
H2352 H 0.16056 0.42813 0.2739 0.0
H2353 H 0.19715 0.46453 0.28495 0.0
H2354 H 0.17827 0.48562 0.27845 0.0
H2355 H 0.19978 0.44217 0.30535 0.0
H2356 H 0.19515 0.44202 0.24794 0.0
H2357 H 0.18121 0.44056 0.22174 0.0
H2358 H 0.16288 0.39303 0.23233 0.0
H2359 H 0.17656 0.3943 0.2587 0.0
C2360 C 0.25678 0.38991 0.29305 0.0
C2361 C 0.25287 0.37337 0.29422 0.0
C2362 C 0.24466 0.40121 0.29146 0.0
C2363 C 0.22841 0.39617 0.29086 0.0
C2364 C 0.22446 0.37966 0.29196 0.0
C2365 C 0.23657 0.36837 0.29378 0.0
C2366 C 0.21559 0.40815 0.2887 0.0
C2367 C 0.20625 0.4073 0.27464 0.0
C2368 C 0.21326 0.42091 0.29987 0.0
C2369 C 0.22258 0.42226 0.31508 0.0
C2370 C 0.22272 0.40935 0.32585 0.0
C2371 C 0.23168 0.41065 0.34007 0.0
C2372 C 0.24048 0.42483 0.34372 0.0
C2373 C 0.24029 0.43777 0.33317 0.0
C2374 C 0.23136 0.43653 0.31892 0.0
C2375 C 0.15385 0.45271 0.27081 0.0
C2376 C 0.15863 0.46907 0.2719 0.0
C2377 C 0.16458 0.44064 0.27484 0.0
C2378 C 0.18046 0.44466 0.27961 0.0
C2379 C 0.18502 0.46105 0.28126 0.0
C2380 C 0.1742 0.47312 0.27753 0.0
C2381 C 0.19247 0.43188 0.28244 0.0
C2382 C 0.20172 0.43256 0.29662 0.0
C2383 C 0.19496 0.41913 0.27121 0.0
C2384 C 0.18673 0.41833 0.25536 0.0
C2385 C 0.18805 0.43131 0.24473 0.0
C2386 C 0.18021 0.43051 0.22984 0.0
C2387 C 0.17113 0.41673 0.2254 0.0
C2388 C 0.1699 0.40371 0.23581 0.0
C2389 C 0.1777 0.40446 0.25072 0.0
H2390 H 0.16507 0.41613 0.21386 0.0
H2391 H 0.24741 0.42581 0.35474 0.0
H2392 H 0.09858 0.03936 0.4879 0.0
H2393 H 0.12212 0.05742 0.49117 0.0
H2394 H 0.15252 0.01627 0.49582 0.0
H2395 H 0.12893 0.99817 0.49288 0.0
H2396 H 0.16168 0.03821 0.5167 0.0
H2397 H 0.15043 0.03827 0.46031 0.0
H2398 H 0.13399 0.0412 0.43585 0.0
H2399 H 0.12567 0.0907 0.4486 0.0
H2400 H 0.14183 0.08797 0.47328 0.0
H2401 H 0.22522 0.09907 0.47954 0.0
H2402 H 0.20296 0.07931 0.47659 0.0
H2403 H 0.18929 0.08848 0.52584 0.0
H2404 H 0.21207 0.10767 0.52891 0.0
H2405 H 0.1729 0.08092 0.47703 0.0
H2406 H 0.17046 0.05637 0.54202 0.0
H2407 H 0.18905 0.05131 0.56446 0.0
H2408 H 0.22829 0.04731 0.53135 0.0
H2409 H 0.20991 0.05213 0.5087 0.0
C2410 C 0.1103 0.03417 0.48954 0.0
C2411 C 0.11191 0.01733 0.49005 0.0
C2412 C 0.12376 0.0445 0.4914 0.0
C2413 C 0.13918 0.03824 0.49351 0.0
C2414 C 0.14078 0.02142 0.49422 0.0
C2415 C 0.12729 0.01108 0.49254 0.0
C2416 C 0.15362 0.04919 0.49492 0.0
C2417 C 0.16409 0.04761 0.50806 0.0
C2418 C 0.15705 0.06124 0.48347 0.0
C2419 C 0.14725 0.06288 0.46869 0.0
C2420 C 0.14499 0.04974 0.45795 0.0
C2421 C 0.13573 0.05137 0.44405 0.0
C2422 C 0.12877 0.06612 0.44068 0.0
C2423 C 0.13106 0.07928 0.45122 0.0
C2424 C 0.14028 0.0777 0.46516 0.0
C2425 C 0.21738 0.09685 0.48968 0.0
C2426 C 0.22003 0.1051 0.50433 0.0
C2427 C 0.20469 0.08555 0.48803 0.0
C2428 C 0.19443 0.08223 0.50102 0.0
C2429 C 0.19717 0.0905 0.51571 0.0
C2430 C 0.21008 0.10157 0.51744 0.0
C2431 C 0.18075 0.07035 0.49907 0.0
C2432 C 0.17043 0.0717 0.48579 0.0
C2433 C 0.1777 0.05786 0.51017 0.0
C2434 C 0.18883 0.05477 0.52369 0.0
C2435 C 0.18304 0.05434 0.53953 0.0
C2436 C 0.19355 0.05153 0.55228 0.0
C2437 C 0.20985 0.04904 0.54934 0.0
C2438 C 0.21568 0.0493 0.53362 0.0
C2439 C 0.20522 0.05209 0.52082 0.0
H2440 H 0.21796 0.04688 0.55923 0.0
H2441 H 0.12161 0.06736 0.42991 0.0
H2442 H 0.74587 0.13141 0.68147 0.0
H2443 H 0.7279 0.10834 0.68687 0.0
H2444 H 0.73229 0.11805 0.73776 0.0
H2445 H 0.7502 0.14118 0.73246 0.0
H2446 H 0.73507 0.08656 0.73144 0.0
H2447 H 0.6984 0.12771 0.71688 0.0
H2448 H 0.68705 0.14871 0.69984 0.0
H2449 H 0.67854 0.11369 0.662 0.0
H2450 H 0.69005 0.09252 0.67874 0.0
H2451 H 0.66855 0.0418 0.7611 0.0
H2452 H 0.68821 0.06258 0.7532 0.0
H2453 H 0.68097 0.04898 0.70338 0.0
H2454 H 0.66096 0.02825 0.71139 0.0
H2455 H 0.68047 0.08115 0.7074 0.0
H2456 H 0.7156 0.03957 0.72337 0.0
H2457 H 0.72612 0.01881 0.74121 0.0
H2458 H 0.73669 0.05501 0.77744 0.0
H2459 H 0.72603 0.07597 0.7599 0.0
C2460 C 0.74288 0.12875 0.69381 0.0
C2461 C 0.74946 0.13819 0.70653 0.0
C2462 C 0.73262 0.11552 0.69688 0.0
C2463 C 0.72863 0.11152 0.71272 0.0
C2464 C 0.73524 0.12086 0.72544 0.0
C2465 C 0.74551 0.13407 0.72239 0.0
C2466 C 0.71766 0.09753 0.71609 0.0
C2467 C 0.72305 0.08548 0.72634 0.0
C2468 C 0.70213 0.09586 0.7091 0.0
C2469 C 0.69528 0.10858 0.69898 0.0
C2470 C 0.69425 0.12452 0.70486 0.0
C2471 C 0.68776 0.13645 0.69527 0.0
C2472 C 0.68213 0.13255 0.67983 0.0
C2473 C 0.68294 0.1167 0.67396 0.0
C2474 C 0.68944 0.10473 0.68349 0.0
C2475 C 0.67114 0.04332 0.74847 0.0
C2476 C 0.66298 0.03385 0.73679 0.0
C2477 C 0.68251 0.05504 0.74397 0.0
C2478 C 0.68617 0.0573 0.72769 0.0
C2479 C 0.67831 0.04748 0.716 0.0
C2480 C 0.66694 0.03567 0.72055 0.0
C2481 C 0.69773 0.07034 0.72298 0.0
C2482 C 0.69249 0.08218 0.71245 0.0
C2483 C 0.71333 0.07188 0.72982 0.0
C2484 C 0.71991 0.05933 0.74035 0.0
C2485 C 0.72007 0.04309 0.73518 0.0
C2486 C 0.72608 0.03129 0.74523 0.0
C2487 C 0.73204 0.03558 0.76046 0.0
C2488 C 0.73206 0.0517 0.76565 0.0
C2489 C 0.72606 0.06355 0.75564 0.0
H2490 H 0.73668 0.02642 0.76823 0.0
H2491 H 0.6771 0.1418 0.67242 0.0
H2492 H 0.41492 0.04713 0.53732 0.0
H2493 H 0.39194 0.06391 0.53163 0.0
H2494 H 0.36589 0.02255 0.51192 0.0
H2495 H 0.38853 0.00539 0.51826 0.0
H2496 H 0.36452 0.05212 0.49301 0.0
H2497 H 0.35576 0.03313 0.54678 0.0
H2498 H 0.3635 0.02833 0.57489 0.0
H2499 H 0.37109 0.07927 0.58285 0.0
H2500 H 0.36363 0.08436 0.5547 0.0
H2501 H 0.28703 0.08733 0.49104 0.0
H2502 H 0.31012 0.0699 0.49422 0.0
H2503 H 0.33273 0.10545 0.52595 0.0
H2504 H 0.30937 0.12256 0.52333 0.0
H2505 H 0.33583 0.07789 0.53844 0.0
H2506 H 0.34532 0.09769 0.48552 0.0
H2507 H 0.3389 0.10348 0.45729 0.0
H2508 H 0.33147 0.05285 0.44733 0.0
H2509 H 0.33764 0.04676 0.47557 0.0
C2510 C 0.40427 0.04147 0.53196 0.0
C2511 C 0.40362 0.02477 0.52844 0.0
C2512 C 0.39118 0.05116 0.52858 0.0
C2513 C 0.37719 0.04446 0.52143 0.0
C2514 C 0.37661 0.02796 0.5174 0.0
C2515 C 0.38963 0.01818 0.52098 0.0
C2516 C 0.363 0.05465 0.5187 0.0
C2517 C 0.35807 0.05761 0.50291 0.0
C2518 C 0.35491 0.06213 0.53163 0.0
C2519 C 0.3593 0.05911 0.54859 0.0
C2520 C 0.35922 0.0433 0.55448 0.0
C2521 C 0.36353 0.04053 0.57043 0.0
C2522 C 0.36783 0.05349 0.58063 0.0
C2523 C 0.36778 0.06924 0.57492 0.0
C2524 C 0.3635 0.07208 0.55898 0.0
C2525 C 0.297 0.09149 0.49857 0.0
C2526 C 0.29638 0.10633 0.50692 0.0
C2527 C 0.31026 0.08153 0.50033 0.0
C2528 C 0.32335 0.08638 0.5102 0.0
C2529 C 0.32282 0.10136 0.5183 0.0
C2530 C 0.30947 0.11119 0.51675 0.0
C2531 C 0.33729 0.07562 0.51265 0.0
C2532 C 0.3422 0.07248 0.52845 0.0
C2533 C 0.34549 0.06817 0.49969 0.0
C2534 C 0.34178 0.07179 0.4827 0.0
C2535 C 0.3422 0.0878 0.47734 0.0
C2536 C 0.33862 0.09113 0.46134 0.0
C2537 C 0.33473 0.07855 0.45054 0.0
C2538 C 0.33446 0.06259 0.45572 0.0
C2539 C 0.33801 0.05919 0.47172 0.0
H2540 H 0.33197 0.08115 0.43815 0.0
H2541 H 0.37116 0.05132 0.59298 0.0
H2542 H 0.59862 0.47582 0.5333 0.0
H2543 H 0.62117 0.45775 0.52979 0.0
H2544 H 0.64796 0.49514 0.50549 0.0
H2545 H 0.62598 0.5137 0.50978 0.0
H2546 H 0.64551 0.4621 0.48955 0.0
H2547 H 0.65958 0.48978 0.53975 0.0
H2548 H 0.65419 0.49878 0.56755 0.0
H2549 H 0.64725 0.44952 0.58171 0.0
H2550 H 0.65236 0.44024 0.55392 0.0
H2551 H 0.72189 0.42855 0.48235 0.0
H2552 H 0.69967 0.44652 0.48777 0.0
H2553 H 0.68317 0.41542 0.52572 0.0
H2554 H 0.70591 0.39779 0.52083 0.0
H2555 H 0.67924 0.44451 0.53505 0.0
H2556 H 0.6652 0.41573 0.48699 0.0
H2557 H 0.66887 0.40484 0.45956 0.0
H2558 H 0.67293 0.45298 0.44145 0.0
H2559 H 0.66955 0.46417 0.46883 0.0
C2560 C 0.60938 0.48039 0.52746 0.0
C2561 C 0.61035 0.49636 0.52186 0.0
C2562 C 0.62221 0.46994 0.52535 0.0
C2563 C 0.63619 0.47512 0.51737 0.0
C2564 C 0.6372 0.4909 0.51159 0.0
C2565 C 0.62452 0.50146 0.51397 0.0
C2566 C 0.64978 0.46407 0.515 0.0
C2567 C 0.65304 0.45838 0.49944 0.0
C2568 C 0.65914 0.45876 0.52801 0.0
C2569 C 0.65616 0.46433 0.54472 0.0
C2570 C 0.65674 0.48088 0.54876 0.0
C2571 C 0.65377 0.48603 0.56452 0.0
C2572 C 0.65033 0.47473 0.57638 0.0
C2573 C 0.64989 0.45826 0.57251 0.0
C2574 C 0.65283 0.45305 0.55676 0.0
C2575 C 0.71356 0.42556 0.49189 0.0
C2576 C 0.71561 0.41168 0.50109 0.0
C2577 C 0.70078 0.4358 0.49493 0.0
C2578 C 0.68943 0.43217 0.50691 0.0
C2579 C 0.69168 0.4185 0.51636 0.0
C2580 C 0.70468 0.4084 0.51355 0.0
C2581 C 0.67523 0.44258 0.50946 0.0
C2582 C 0.67177 0.44814 0.52509 0.0
C2583 C 0.6654 0.44745 0.49653 0.0
C2584 C 0.66727 0.44079 0.48 0.0
C2585 C 0.66698 0.424 0.47718 0.0
C2586 C 0.669 0.41777 0.46163 0.0
C2587 C 0.67116 0.42821 0.44877 0.0
C2588 C 0.67127 0.44491 0.45143 0.0
C2589 C 0.66929 0.4512 0.46696 0.0
H2590 H 0.67273 0.42337 0.43675 0.0
H2591 H 0.64804 0.47874 0.58857 0.0
H2592 H 0.69049 0.25184 0.38273 0.0
H2593 H 0.6929 0.27174 0.40469 0.0
H2594 H 0.74452 0.27291 0.39939 0.0
H2595 H 0.74222 0.25322 0.37731 0.0
H2596 H 0.73604 0.27055 0.4305 0.0
H2597 H 0.72188 0.30339 0.38571 0.0
H2598 H 0.70536 0.31174 0.36278 0.0
H2599 H 0.66507 0.31847 0.39411 0.0
H2600 H 0.6813 0.30994 0.41721 0.0
H2601 H 0.76018 0.34192 0.47143 0.0
H2602 H 0.75402 0.32064 0.45155 0.0
H2603 H 0.70338 0.32429 0.46199 0.0
H2604 H 0.70963 0.34592 0.48187 0.0
H2605 H 0.70886 0.32316 0.42982 0.0
H2606 H 0.72404 0.2924 0.47504 0.0
H2607 H 0.74109 0.28492 0.49791 0.0
H2608 H 0.77994 0.27484 0.4657 0.0
H2609 H 0.7632 0.2825 0.44265 0.0
C2610 C 0.70235 0.25647 0.3861 0.0
C2611 C 0.71617 0.25089 0.37824 0.0
C2612 C 0.7037 0.26782 0.3987 0.0
C2613 C 0.71889 0.27388 0.40364 0.0
C2614 C 0.73268 0.26834 0.39584 0.0
C2615 C 0.73135 0.25703 0.38325 0.0
C2616 C 0.72051 0.28585 0.41708 0.0
C2617 C 0.73023 0.28212 0.43027 0.0
C2618 C 0.71253 0.30076 0.41702 0.0
C2619 C 0.70274 0.30581 0.40314 0.0
C2620 C 0.70945 0.30649 0.38768 0.0
C2621 C 0.70015 0.31129 0.37466 0.0
C2622 C 0.68416 0.31557 0.37697 0.0
C2623 C 0.67745 0.31511 0.39233 0.0
C2624 C 0.68669 0.3103 0.40539 0.0
C2625 C 0.74773 0.33822 0.46939 0.0
C2626 C 0.73531 0.34579 0.47775 0.0
C2627 C 0.74423 0.32595 0.45818 0.0
C2628 C 0.72824 0.32079 0.45534 0.0
C2629 C 0.7158 0.32812 0.46398 0.0
C2630 C 0.71934 0.3404 0.4753 0.0
C2631 C 0.72467 0.308 0.44305 0.0
C2632 C 0.71457 0.31154 0.43011 0.0
C2633 C 0.73233 0.29294 0.4433 0.0
C2634 C 0.74239 0.28812 0.45712 0.0
C2635 C 0.73625 0.28868 0.47284 0.0
C2636 C 0.74586 0.2844 0.48583 0.0
C2637 C 0.7616 0.27943 0.48326 0.0
C2638 C 0.76775 0.27869 0.46768 0.0
C2639 C 0.7582 0.28298 0.45464 0.0
H2640 H 0.76902 0.27613 0.49334 0.0
H2641 H 0.67698 0.3193 0.36688 0.0
H2642 H 0.52554 0.05022 0.89675 0.0
H2643 H 0.5409 0.044 0.87262 0.0
H2644 H 0.54002 0.99358 0.88468 0.0
H2645 H 0.52487 0.9998 0.90918 0.0
H2646 H 0.57006 0.00404 0.87445 0.0
H2647 H 0.51593 0.00587 0.85549 0.0
H2648 H 0.48896 0.01719 0.85232 0.0
H2649 H 0.5097 0.05882 0.82949 0.0
H2650 H 0.53683 0.04787 0.83274 0.0
H2651 H 0.60368 0.98812 0.79582 0.0
H2652 H 0.58618 0.98669 0.81951 0.0
H2653 H 0.57772 0.03766 0.81624 0.0
H2654 H 0.59475 0.03919 0.79272 0.0
H2655 H 0.55036 0.02187 0.82146 0.0
H2656 H 0.60444 0.02186 0.84374 0.0
H2657 H 0.63161 0.01107 0.84724 0.0
H2658 H 0.61104 0.96634 0.86381 0.0
H2659 H 0.58372 0.97681 0.86021 0.0
C2660 C 0.52872 0.03782 0.89439 0.0
C2661 C 0.52398 0.02551 0.90493 0.0
C2662 C 0.53739 0.03425 0.88049 0.0
C2663 C 0.54147 0.01829 0.87673 0.0
C2664 C 0.53695 0.00597 0.88731 0.0
C2665 C 0.52819 0.00953 0.90123 0.0
C2666 C 0.55046 0.01467 0.86173 0.0
C2667 C 0.56563 0.00764 0.8628 0.0
C2668 C 0.54475 0.01949 0.84655 0.0
C2669 C 0.52843 0.02608 0.84445 0.0
C2670 C 0.51475 0.01749 0.84989 0.0
C2671 C 0.49943 0.02383 0.84807 0.0
C2672 C 0.49762 0.03873 0.84073 0.0
C2673 C 0.51112 0.04729 0.83517 0.0
C2674 C 0.52648 0.041 0.83698 0.0
C2675 C 0.59806 0.99901 0.80014 0.0
C2676 C 0.60066 0.01376 0.79227 0.0
C2677 C 0.5881 0.99818 0.81372 0.0
C2678 C 0.58066 0.0121 0.81972 0.0
C2679 C 0.58322 0.02674 0.81182 0.0
C2680 C 0.59306 0.02757 0.79833 0.0
C2681 C 0.57022 0.01177 0.83423 0.0
C2682 C 0.55471 0.01802 0.83305 0.0
C2683 C 0.57566 0.00629 0.84929 0.0
C2684 C 0.59205 1.00003 0.85152 0.0
C2685 C 0.60572 0.00967 0.84801 0.0
C2686 C 0.62114 0.00363 0.85003 0.0
C2687 C 0.62305 0.988 0.85569 0.0
C2688 C 0.60954 0.97842 0.85939 0.0
C2689 C 0.59409 0.9844 0.85737 0.0
H2690 H 0.635 0.98334 0.85724 0.0
H2691 H 0.48575 0.04362 0.83933 0.0
H2692 H 0.28562 0.27441 0.39102 0.0
H2693 H 0.28373 0.25467 0.41228 0.0
H2694 H 0.3062 0.2194 0.38164 0.0
H2695 H 0.30726 0.23885 0.35988 0.0
H2696 H 0.28235 0.20554 0.3963 0.0
H2697 H 0.32659 0.23854 0.41406 0.0
H2698 H 0.34174 0.26369 0.42084 0.0
H2699 H 0.30752 0.27472 0.45769 0.0
H2700 H 0.29202 0.24975 0.45097 0.0
H2701 H 0.28649 0.15271 0.46361 0.0
H2702 H 0.29773 0.17141 0.4436 0.0
H2703 H 0.26545 0.2081 0.45996 0.0
H2704 H 0.25392 0.18938 0.4795 0.0
H2705 H 0.29869 0.21929 0.45236 0.0
H2706 H 0.253 0.18748 0.43101 0.0
H2707 H 0.23896 0.1616 0.42463 0.0
H2708 H 0.27822 0.14764 0.39447 0.0
H2709 H 0.29264 0.17334 0.40095 0.0
C2710 C 0.29003 0.26242 0.38868 0.0
C2711 C 0.29655 0.25828 0.37363 0.0
C2712 C 0.28917 0.25118 0.40099 0.0
C2713 C 0.29509 0.23557 0.39873 0.0
C2714 C 0.30165 0.23138 0.38375 0.0
C2715 C 0.30238 0.24259 0.37134 0.0
C2716 C 0.2938 0.22353 0.41182 0.0
C2717 C 0.28627 0.20847 0.40847 0.0
C2718 C 0.29878 0.22727 0.4278 0.0
C2719 C 0.30808 0.24231 0.43193 0.0
C2720 C 0.32223 0.24638 0.42353 0.0
C2721 C 0.33089 0.2606 0.42738 0.0
C2722 C 0.32558 0.27081 0.43967 0.0
C2723 C 0.31161 0.26681 0.44816 0.0
C2724 C 0.3029 0.2526 0.44436 0.0
C2725 C 0.28215 0.16491 0.46317 0.0
C2726 C 0.26939 0.16968 0.47305 0.0
C2727 C 0.2885 0.17553 0.45174 0.0
C2728 C 0.28237 0.19111 0.45031 0.0
C2729 C 0.27038 0.19617 0.46092 0.0
C2730 C 0.26379 0.18548 0.47204 0.0
C2731 C 0.28708 0.20162 0.43678 0.0
C2732 C 0.29514 0.21635 0.44009 0.0
C2733 C 0.28278 0.19753 0.42075 0.0
C2734 C 0.27398 0.18223 0.41662 0.0
C2735 C 0.2587 0.17883 0.42314 0.0
C2736 C 0.25067 0.1642 0.41949 0.0
C2737 C 0.25771 0.15296 0.40919 0.0
C2738 C 0.27279 0.15635 0.40248 0.0
C2739 C 0.2809 0.17094 0.40614 0.0
H2740 H 0.25148 0.14164 0.40637 0.0
H2741 H 0.3323 0.28182 0.44263 0.0
H2742 H 0.51131 0.48617 0.88512 0.0
H2743 H 0.4931 0.49179 0.86293 0.0
H2744 H 0.45291 0.49131 0.89562 0.0
H2745 H 0.47115 0.48507 0.91781 0.0
H2746 H 0.44382 0.47724 0.86916 0.0
H2747 H 0.47051 0.52743 0.88091 0.0
H2748 H 0.49344 0.54625 0.88616 0.0
H2749 H 0.51168 0.53682 0.83884 0.0
H2750 H 0.48898 0.51776 0.83338 0.0
H2751 H 0.39429 0.51197 0.80832 0.0
H2752 H 0.4104 0.51224 0.83323 0.0
H2753 H 0.45144 0.49588 0.80654 0.0
H2754 H 0.43529 0.49508 0.78186 0.0
H2755 H 0.45781 0.52141 0.83175 0.0
H2756 H 0.43161 0.46875 0.82219 0.0
H2757 H 0.40763 0.45121 0.81729 0.0
H2758 H 0.38715 0.46746 0.86179 0.0
H2759 H 0.4109 0.48535 0.86679 0.0
C2760 C 0.49859 0.48726 0.88756 0.0
C2761 C 0.49266 0.48532 0.90321 0.0
C2762 C 0.48817 0.49057 0.87488 0.0
C2763 C 0.47163 0.49242 0.87761 0.0
C2764 C 0.46561 0.49006 0.89319 0.0
C2765 C 0.47603 0.48647 0.90586 0.0
C2766 C 0.4607 0.49669 0.86414 0.0
C2767 C 0.44677 0.48711 0.8612 0.0
C2768 C 0.46446 0.50953 0.85361 0.0
C2769 C 0.47809 0.52107 0.85679 0.0
C2770 C 0.47946 0.52929 0.87166 0.0
C2771 C 0.49242 0.54001 0.87467 0.0
C2772 C 0.50402 0.54271 0.86285 0.0
C2773 C 0.50268 0.53471 0.84799 0.0
C2774 C 0.48976 0.52396 0.84492 0.0
C2775 C 0.40687 0.50887 0.80777 0.0
C2776 C 0.41362 0.50358 0.79323 0.0
C2777 C 0.41601 0.50894 0.82196 0.0
C2778 C 0.43208 0.50403 0.82169 0.0
C2779 C 0.43909 0.49976 0.80698 0.0
C2780 C 0.42988 0.49931 0.79292 0.0
C2781 C 0.44126 0.50183 0.83678 0.0
C2782 C 0.45483 0.51175 0.83994 0.0
C2783 C 0.43705 0.48949 0.84763 0.0
C2784 C 0.42292 0.47853 0.84476 0.0
C2785 C 0.42192 0.4687 0.83085 0.0
C2786 C 0.40839 0.45868 0.82807 0.0
C2787 C 0.39585 0.45826 0.8392 0.0
C2788 C 0.39685 0.46783 0.85316 0.0
C2789 C 0.41034 0.47791 0.85598 0.0
H2790 H 0.38539 0.45048 0.83704 0.0
H2791 H 0.51404 0.55101 0.8652 0.0
H2792 H 0.70867 0.77646 0.11539 0.0
H2793 H 0.71217 0.75563 0.09452 0.0
H2794 H 0.71544 0.71945 0.13094 0.0
H2795 H 0.71163 0.74024 0.15189 0.0
H2796 H 0.74095 0.71987 0.10589 0.0
H2797 H 0.68324 0.71839 0.11203 0.0
H2798 H 0.65644 0.73044 0.11343 0.0
H2799 H 0.66203 0.74806 0.06551 0.0
H2800 H 0.68898 0.73632 0.06391 0.0
H2801 H 0.74093 0.65344 0.05063 0.0
H2802 H 0.73588 0.67155 0.07346 0.0
H2803 H 0.71621 0.70639 0.04129 0.0
H2804 H 0.72049 0.68803 0.01861 0.0
H2805 H 0.69845 0.70557 0.06578 0.0
H2806 H 0.75568 0.70972 0.05913 0.0
H2807 H 0.78337 0.6999 0.0568 0.0
H2808 H 0.78011 0.68002 0.10401 0.0
H2809 H 0.75231 0.68955 0.10654 0.0
C2810 C 0.71007 0.76405 0.11892 0.0
C2811 C 0.70987 0.75993 0.13523 0.0
C2812 C 0.71204 0.75218 0.10701 0.0
C2813 C 0.71405 0.73603 0.11121 0.0
C2814 C 0.7139 0.73186 0.12748 0.0
C2815 C 0.71163 0.7437 0.1394 0.0
C2816 C 0.7165 0.72357 0.09853 0.0
C2817 C 0.73161 0.7165 0.09725 0.0
C2818 C 0.70445 0.71962 0.08701 0.0
C2819 C 0.6882 0.7266 0.08791 0.0
C2820 C 0.67882 0.72496 0.10184 0.0
C2821 C 0.66359 0.73171 0.10266 0.0
C2822 C 0.65755 0.74004 0.08958 0.0
C2823 C 0.66672 0.74161 0.07564 0.0
C2824 C 0.68197 0.7349 0.07477 0.0
C2825 C 0.73556 0.66498 0.04844 0.0
C2826 C 0.73114 0.6693 0.0328 0.0
C2827 C 0.73274 0.67538 0.0615 0.0
C2828 C 0.72587 0.69052 0.05915 0.0
C2829 C 0.72147 0.6948 0.0435 0.0
C2830 C 0.72397 0.68429 0.03051 0.0
C2831 C 0.72306 0.70186 0.0729 0.0
C2832 C 0.70784 0.70878 0.07442 0.0
C2833 C 0.73516 0.70593 0.08444 0.0
C2834 C 0.75186 0.70019 0.08295 0.0
C2835 C 0.76083 0.70314 0.06896 0.0
C2836 C 0.77654 0.69765 0.06761 0.0
C2837 C 0.78347 0.6893 0.08023 0.0
C2838 C 0.77471 0.68646 0.09424 0.0
C2839 C 0.75898 0.69192 0.09564 0.0
H2840 H 0.79564 0.68506 0.07916 0.0
H2841 H 0.64575 0.74526 0.09024 0.0
H2842 H 0.97634 0.0382 0.10129 0.0
H2843 H 0.95848 0.03439 0.12426 0.0
H2844 H 0.99712 0.01347 0.15085 0.0
H2845 H 0.01535 0.01803 0.12841 0.0
H2846 H 0.96612 0.995 0.14966 0.0
H2847 H 0.98872 0.04856 0.16123 0.0
H2848 H 0.99492 0.07695 0.15471 0.0
H2849 H 0.94453 0.0856 0.14867 0.0
H2850 H 0.93805 0.05717 0.15492 0.0
H2851 H 0.93557 0.98788 0.22733 0.0
H2852 H 0.95228 0.99467 0.20429 0.0
H2853 H 0.91616 0.02709 0.18769 0.0
H2854 H 0.89963 0.02081 0.21118 0.0
H2855 H 0.9443 0.04001 0.18228 0.0
H2856 H 0.92049 0.98841 0.17122 0.0
H2857 H 0.91253 0.96012 0.17641 0.0
H2858 H 0.96225 0.94744 0.17897 0.0
H2859 H 0.97052 0.97573 0.17409 0.0
C2860 C 0.9812 0.03307 0.11209 0.0
C2861 C 0.99739 0.0284 0.11285 0.0
C2862 C 0.97089 0.03078 0.12518 0.0
C2863 C 0.97649 0.02361 0.13921 0.0
C2864 C 0.99255 0.01892 0.14006 0.0
C2865 C 0.00293 0.02145 0.12712 0.0
C2866 C 0.96557 0.02076 0.15299 0.0
C2867 C 0.96147 0.0048 0.15692 0.0
C2868 C 0.95903 0.0336 0.16202 0.0
C2869 C 0.96292 0.0507 0.15836 0.0
C2870 C 0.97897 0.05648 0.15836 0.0
C2871 C 0.98253 0.07258 0.15475 0.0
C2872 C 0.97013 0.08306 0.15123 0.0
C2873 C 0.95413 0.07746 0.15137 0.0
C2874 C 0.95051 0.06136 0.15495 0.0
C2875 C 0.9312 0.99652 0.21883 0.0
C2876 C 0.9162 0.00371 0.22104 0.0
C2877 C 0.94074 1.00034 0.20559 0.0
C2878 C 0.93534 0.0111 0.19398 0.0
C2879 C 0.92058 0.01869 0.1964 0.0
C2880 C 0.91113 0.01508 0.20984 0.0
C2881 C 0.94502 0.01415 0.17924 0.0
C2882 C 0.94885 0.03014 0.17504 0.0
C2883 C 0.95103 1.00132 0.16971 0.0
C2884 C 0.94613 0.98423 0.17242 0.0
C2885 C 0.92973 0.97961 0.17299 0.0
C2886 C 0.92516 0.96358 0.17587 0.0
C2887 C 0.93688 0.952 0.17805 0.0
C2888 C 0.95319 0.95643 0.1773 0.0
C2889 C 0.95783 0.97246 0.17447 0.0
H2890 H 0.93332 0.93959 0.18028 0.0
H2891 H 0.97291 0.09553 0.14844 0.0
H2892 H 0.2758 0.76442 0.14844 0.0
H2893 H 0.26965 0.7837 0.12749 0.0
H2894 H 0.31585 0.77547 0.10569 0.0
H2895 H 0.32229 0.75673 0.12712 0.0
H2896 H 0.3108 0.80554 0.10452 0.0
H2897 H 0.27864 0.75911 0.09012 0.0
H2898 H 0.259 0.73672 0.09395 0.0
H2899 H 0.22209 0.77066 0.10435 0.0
H2900 H 0.24157 0.79326 0.10081 0.0
H2901 H 0.28727 0.83971 0.02871 0.0
H2902 H 0.29533 0.82087 0.04955 0.0
H2903 H 0.25687 0.83724 0.07985 0.0
H2904 H 0.24893 0.85626 0.05927 0.0
H2905 H 0.25851 0.80263 0.07554 0.0
H2906 H 0.2925 0.84904 0.08958 0.0
H2907 H 0.31283 0.87038 0.08405 0.0
H2908 H 0.34724 0.83444 0.07174 0.0
H2909 H 0.32702 0.81288 0.07698 0.0
C2910 C 0.28459 0.7667 0.13912 0.0
C2911 C 0.29948 0.75905 0.13934 0.0
C2912 C 0.28105 0.77767 0.12709 0.0
C2913 C 0.29214 0.78087 0.11474 0.0
C2914 C 0.30707 0.77325 0.11503 0.0
C2915 C 0.31074 0.76252 0.12725 0.0
C2916 C 0.28825 0.79231 0.1017 0.0
C2917 C 0.29945 0.8047 0.09805 0.0
C2918 C 0.27339 0.79143 0.09326 0.0
C2919 C 0.26161 0.77787 0.09534 0.0
C2920 C 0.26637 0.76179 0.09334 0.0
C2921 C 0.25526 0.74907 0.09544 0.0
C2922 C 0.23932 0.75226 0.09943 0.0
C2923 C 0.23445 0.7682 0.10128 0.0
C2924 C 0.24551 0.78097 0.09921 0.0
C2925 C 0.28064 0.8394 0.03988 0.0
C2926 C 0.26748 0.84949 0.04236 0.0
C2927 C 0.28526 0.82865 0.05176 0.0
C2928 C 0.27668 0.82767 0.06622 0.0
C2929 C 0.26363 0.8378 0.06876 0.0
C2930 C 0.25917 0.84872 0.05701 0.0
C2931 C 0.28098 0.81578 0.07857 0.0
C2932 C 0.26986 0.80333 0.08204 0.0
C2933 C 0.29602 0.81641 0.08658 0.0
C2934 C 0.30819 0.82936 0.0835 0.0
C2935 C 0.30435 0.84569 0.08555 0.0
C2936 C 0.31587 0.85782 0.0825 0.0
C2937 C 0.33131 0.85377 0.0775 0.0
C2938 C 0.33527 0.83757 0.07559 0.0
C2939 C 0.32379 0.82539 0.07861 0.0
H2940 H 0.34021 0.86318 0.07515 0.0
H2941 H 0.23074 0.74239 0.10105 0.0
H2942 H 0.01724 0.4547 0.11587 0.0
H2943 H 0.03395 0.46104 0.13936 0.0
H2944 H 0.02783 0.51189 0.13185 0.0
H2945 H 0.01172 0.50566 0.10781 0.0
H2946 H 0.05808 0.5066 0.13866 0.0
H2947 H 0.00774 0.491 0.16216 0.0
H2948 H 0.98384 0.4735 0.16686 0.0
H2949 H 0.01411 0.43601 0.18366 0.0
H2950 H 0.03822 0.45321 0.17886 0.0
H2951 H 0.08759 0.53358 0.21458 0.0
H2952 H 0.0695 0.52698 0.19217 0.0
H2953 H 0.08023 0.47659 0.1963 0.0
H2954 H 0.09841 0.48303 0.21886 0.0
H2955 H 0.04754 0.48174 0.19154 0.0
H2956 H 0.09792 0.49794 0.16777 0.0
H2957 H 0.12143 0.51616 0.16377 0.0
H2958 H 0.09033 0.55341 0.14797 0.0
H2959 H 0.0666 0.53549 0.15212 0.0
C2960 C 0.01953 0.46725 0.11909 0.0
C2961 C 0.01311 0.47966 0.10985 0.0
C2962 C 0.02895 0.47086 0.1327 0.0
C2963 C 0.03202 0.48695 0.13756 0.0
C2964 C 0.0256 0.49938 0.1284 0.0
C2965 C 0.01624 0.49578 0.11472 0.0
C2966 C 0.04222 0.49081 0.15195 0.0
C2967 C 0.0556 0.50134 0.15027 0.0
C2968 C 0.03926 0.4837 0.16707 0.0
C2969 C 0.02479 0.47334 0.17 0.0
C2970 C 0.00931 0.47897 0.16674 0.0
C2971 C 0.99572 0.46912 0.16944 0.0
C2972 C 0.99746 0.45364 0.17551 0.0
C2973 C 0.01279 0.448 0.17894 0.0
C2974 C 0.02641 0.4578 0.17624 0.0
C2975 C 0.08608 0.52105 0.21085 0.0
C2976 C 0.09457 0.50885 0.21855 0.0
C2977 C 0.07575 0.51732 0.19796 0.0
C2978 C 0.07364 0.50132 0.19244 0.0
C2979 C 0.08171 0.48903 0.20034 0.0
C2980 C 0.09214 0.49276 0.21321 0.0
C2981 C 0.0633 0.49751 0.17819 0.0
C2982 C 0.04995 0.487 0.17991 0.0
C2983 C 0.06621 0.50471 0.16314 0.0
C2984 C 0.08047 0.51542 0.1604 0.0
C2985 C 0.09609 0.51006 0.16355 0.0
C2986 C 0.10945 0.52032 0.16125 0.0
C2987 C 0.10737 0.53594 0.15566 0.0
C2988 C 0.09192 0.54131 0.15232 0.0
C2989 C 0.07851 0.5311 0.15463 0.0
H2990 H 0.11773 0.54388 0.1539 0.0
H2991 H 0.98693 0.44603 0.1776 0.0
H2992 H 0.38003 0.68005 0.25571 0.0
H2993 H 0.40269 0.68526 0.27404 0.0
H2994 H 0.39361 0.73626 0.27323 0.0
H2995 H 0.37089 0.73113 0.25495 0.0
H2996 H 0.42519 0.73101 0.27099 0.0
H2997 H 0.38201 0.71322 0.30501 0.0
H2998 H 0.36028 0.69489 0.3143 0.0
H2999 H 0.39434 0.65744 0.32105 0.0
H3000 H 0.41625 0.67548 0.31158 0.0
H3001 H 0.46594 0.75872 0.34098 0.0
H3002 H 0.44643 0.75108 0.32002 0.0
H3003 H 0.45942 0.70121 0.32421 0.0
H3004 H 0.47886 0.70893 0.34556 0.0
H3005 H 0.42731 0.70412 0.32371 0.0
H3006 H 0.47092 0.72343 0.29156 0.0
H3007 H 0.49232 0.74264 0.28324 0.0
H3008 H 0.45699 0.7783 0.27395 0.0
H3009 H 0.43539 0.75939 0.28243 0.0
C3010 C 0.38279 0.69237 0.25951 0.0
C3011 C 0.37357 0.70516 0.25391 0.0
C3012 C 0.39577 0.69533 0.26997 0.0
C3013 C 0.39975 0.71114 0.27517 0.0
C3014 C 0.39079 0.72396 0.26937 0.0
C3015 C 0.37782 0.72102 0.25887 0.0
C3016 C 0.41316 0.71432 0.28677 0.0
C3017 C 0.42556 0.72527 0.2826 0.0
C3018 C 0.41389 0.70652 0.30176 0.0
C3019 C 0.40073 0.69563 0.30739 0.0
C3020 C 0.38484 0.70102 0.30833 0.0
C3021 C 0.37249 0.69069 0.31365 0.0
C3022 C 0.37591 0.67499 0.31821 0.0
C3023 C 0.3917 0.66959 0.31748 0.0
C3024 C 0.40409 0.67986 0.31214 0.0
C3025 C 0.46456 0.74612 0.33744 0.0
C3026 C 0.47346 0.73431 0.34513 0.0
C3027 C 0.45357 0.74178 0.32533 0.0
C3028 C 0.45151 0.72558 0.32043 0.0
C3029 C 0.46078 0.71379 0.32781 0.0
C3030 C 0.47186 0.71816 0.33995 0.0
C3031 C 0.43919 0.72101 0.30808 0.0
C3032 C 0.42701 0.70979 0.31208 0.0
C3033 C 0.43859 0.72866 0.29301 0.0
C3034 C 0.45154 0.74002 0.28773 0.0
C3035 C 0.46772 0.7354 0.28783 0.0
C3036 C 0.47989 0.74623 0.28308 0.0
C3037 C 0.47602 0.76169 0.2781 0.0
C3038 C 0.45997 0.76633 0.27782 0.0
C3039 C 0.44776 0.75555 0.28258 0.0
H3040 H 0.48546 0.77006 0.27443 0.0
H3041 H 0.36634 0.66701 0.32234 0.0
H3042 H 0.99918 0.40739 0.98825 0.0
H3043 H 0.00525 0.3829 0.97274 0.0
H3044 H 0.95454 0.37082 0.96954 0.0
H3045 H 0.94843 0.39507 0.98524 0.0
H3046 H 0.9724 0.34482 0.97764 0.0
H3047 H 0.97437 0.38693 0.93796 0.0
H3048 H 0.98424 0.41263 0.92665 0.0
H3049 H 0.03237 0.39496 0.9256 0.0
H3050 H 0.02281 0.36921 0.93711 0.0
H3051 H 0.96323 0.28893 0.91477 0.0
H3052 H 0.96318 0.31252 0.93236 0.0
H3053 H 0.0146 0.31835 0.92712 0.0
H3054 H 0.01476 0.29466 0.90901 0.0
H3055 H 1.00032 0.34692 0.92512 0.0
H3056 H 0.99838 0.30391 0.96212 0.0
H3057 H 0.98897 0.27809 0.9735 0.0
H3058 H 0.94186 0.29713 0.98034 0.0
H3059 H 0.9509 0.323 0.96878 0.0
C3060 C 0.98934 0.39947 0.98431 0.0
C3061 C 0.97331 0.40322 0.98793 0.0
C3062 C 0.99282 0.38553 0.97535 0.0
C3063 C 0.98034 0.37507 0.96988 0.0
C3064 C 0.96436 0.37872 0.97361 0.0
C3065 C 0.96088 0.39267 0.98247 0.0
C3066 C 0.9838 0.36025 0.9603 0.0
C3067 C 0.9784 0.34528 0.96611 0.0
C3068 C 0.99218 0.36078 0.94553 0.0
C3069 C 0.99791 0.37622 0.93856 0.0
C3070 C 0.98708 0.38858 0.93544 0.0
C3071 C 0.99261 0.40314 0.92897 0.0
C3072 C 0.00893 0.40545 0.92546 0.0
C3073 C 0.01974 0.39317 0.92836 0.0
C3074 C 0.01427 0.37858 0.93484 0.0
C3075 C 0.97462 0.29507 0.91737 0.0
C3076 C 0.98904 0.28972 0.9105 0.0
C3077 C 0.97455 0.3086 0.92753 0.0
C3078 C 0.98891 0.31708 0.93135 0.0
C3079 C 0.00337 0.31194 0.92444 0.0
C3080 C 0.00344 0.29836 0.91412 0.0
C3081 C 0.98852 0.33149 0.94226 0.0
C3082 C 0.99452 0.34638 0.93676 0.0
C3083 C 0.98079 0.33089 0.9574 0.0
C3084 C 0.97531 0.31538 0.96448 0.0
C3085 C 0.98598 0.30257 0.96595 0.0
C3086 C 0.98072 0.28792 0.97245 0.0
C3087 C 0.96482 0.28596 0.97762 0.0
C3088 C 0.95417 0.29866 0.97633 0.0
C3089 C 0.95936 0.31333 0.96983 0.0
H3090 H 0.96077 0.27461 0.98264 0.0
H3091 H 0.01319 0.41673 0.92045 0.0
H3092 H 0.65078 0.80057 0.27546 0.0
H3093 H 0.63048 0.79718 0.29657 0.0
H3094 H 0.59319 0.7928 0.26051 0.0
H3095 H 0.61346 0.79595 0.23935 0.0
H3096 H 0.5864 0.81419 0.28809 0.0
H3097 H 0.60408 0.76023 0.27528 0.0
H3098 H 0.62452 0.73944 0.27155 0.0
H3099 H 0.63981 0.74615 0.32058 0.0
H3100 H 0.61961 0.76717 0.32452 0.0
H3101 H 0.52062 0.78033 0.33071 0.0
H3102 H 0.54191 0.78817 0.31213 0.0
H3103 H 0.57771 0.77743 0.34786 0.0
H3104 H 0.55636 0.76881 0.36624 0.0
H3105 H 0.58654 0.76509 0.32139 0.0
H3106 H 0.56868 0.81755 0.33557 0.0
H3107 H 0.54929 0.83919 0.34011 0.0
H3108 H 0.53571 0.83695 0.2903 0.0
H3109 H 0.55486 0.81514 0.28549 0.0
C3110 C 0.63824 0.79899 0.27207 0.0
C3111 C 0.63368 0.79846 0.25579 0.0
C3112 C 0.62668 0.79702 0.28411 0.0
C3113 C 0.61036 0.79472 0.28008 0.0
C3114 C 0.60573 0.79459 0.26385 0.0
C3115 C 0.6173 0.79628 0.2518 0.0
C3116 C 0.59815 0.79191 0.29276 0.0
C3117 C 0.58629 0.80341 0.29531 0.0
C3118 C 0.59839 0.77809 0.30248 0.0
C3119 C 0.61047 0.7654 0.30014 0.0
C3120 C 0.61191 0.75738 0.28522 0.0
C3121 C 0.62342 0.74553 0.28308 0.0
C3122 C 0.63349 0.74151 0.29581 0.0
C3123 C 0.63202 0.7493 0.31072 0.0
C3124 C 0.62054 0.76117 0.31292 0.0
C3125 C 0.53302 0.77989 0.33471 0.0
C3126 C 0.53681 0.77398 0.34996 0.0
C3127 C 0.54523 0.78445 0.32407 0.0
C3128 C 0.56151 0.78362 0.32858 0.0
C3129 C 0.56528 0.77818 0.34403 0.0
C3130 C 0.55306 0.77333 0.35458 0.0
C3131 C 0.57455 0.78737 0.31684 0.0
C3132 C 0.58662 0.77601 0.31437 0.0
C3133 C 0.57464 0.80146 0.30738 0.0
C3134 C 0.56312 0.81461 0.3102 0.0
C3135 C 0.56147 0.82159 0.3256 0.0
C3136 C 0.55054 0.83391 0.32822 0.0
C3137 C 0.54125 0.83942 0.31551 0.0
C3138 C 0.54291 0.83266 0.30014 0.0
C3139 C 0.55381 0.82034 0.29746 0.0
H3140 H 0.53279 0.84895 0.31756 0.0
H3141 H 0.6424 0.73233 0.29413 0.0
H3142 H 0.99779 0.11108 0.99617 0.0
H3143 H 0.99319 0.13309 0.97774 0.0
H3144 H 0.04444 0.14023 0.97216 0.0
H3145 H 0.04917 0.11855 0.99111 0.0
H3146 H 0.03016 0.1686 0.9757 0.0
H3147 H 0.02155 0.1216 0.94262 0.0
H3148 H 0.01002 0.09488 0.93494 0.0
H3149 H 0.96253 0.11414 0.93527 0.0
H3150 H 0.97375 0.14095 0.94318 0.0
H3151 H 0.02247 0.21954 0.90755 0.0
H3152 H 0.02919 0.19746 0.92533 0.0
H3153 H 0.97878 0.18892 0.93494 0.0
H3154 H 0.9719 0.21085 0.91714 0.0
H3155 H 0.99403 0.16097 0.92847 0.0
H3156 H 0.00301 0.20788 0.96253 0.0
H3157 H 0.0149 0.23454 0.96991 0.0
H3158 H 0.0623 0.21522 0.96717 0.0
H3159 H 0.0507 0.18848 0.95954 0.0
C3160 C 0.00811 0.1174 0.99115 0.0
C3161 C 0.02386 0.11302 0.99517 0.0
C3162 C 0.00545 0.1299 0.98045 0.0
C3163 C 0.01846 0.13822 0.97338 0.0
C3164 C 0.0342 0.13395 0.97741 0.0
C3165 C 0.03689 0.12145 0.98814 0.0
C3166 C 0.01555 0.15151 0.96196 0.0
C3167 C 0.02247 0.16686 0.96523 0.0
C3168 C 0.00529 0.14936 0.94843 0.0
C3169 C 0.99849 0.13326 0.94364 0.0
C3170 C 0.00864 0.12011 0.94118 0.0
C3171 C 0.00216 0.10495 0.93676 0.0
C3172 C 0.98555 0.1028 0.93466 0.0
C3173 C 0.97539 0.11582 0.93693 0.0
C3174 C 0.9818 0.13101 0.94136 0.0
C3175 C 0.01279 0.21302 0.91347 0.0
C3176 C 0.99663 0.21706 0.9109 0.0
C3177 C 0.01667 0.20042 0.92369 0.0
C3178 C 0.0045 0.19159 0.93157 0.0
C3179 C 0.98838 0.19555 0.929 0.0
C3180 C 0.98448 0.20817 0.91885 0.0
C3181 C 0.00848 0.17807 0.94232 0.0
C3182 C 1.00178 0.16268 0.93891 0.0
C3183 C 0.019 0.18017 0.95566 0.0
C3184 C 0.02599 0.19622 0.96029 0.0
C3185 C 0.01597 0.20935 0.96337 0.0
C3186 C 0.02266 0.22446 0.96762 0.0
C3187 C 0.03935 0.22658 0.96896 0.0
C3188 C 0.04938 0.21357 0.9661 0.0
C3189 C 0.04275 0.19843 0.96182 0.0
H3190 H 0.0445 0.2383 0.97226 0.0
H3191 H 0.98056 0.09106 0.93124 0.0
H3192 H 0.39585 0.29845 0.27544 0.0
H3193 H 0.41704 0.29597 0.25538 0.0
H3194 H 0.38313 0.3068 0.21795 0.0
H3195 H 0.36171 0.30869 0.2379 0.0
H3196 H 0.39996 0.28146 0.20966 0.0
H3197 H 0.413 0.33429 0.23 0.0
H3198 H 0.4189 0.35527 0.25066 0.0
H3199 H 0.46053 0.32975 0.26577 0.0
H3200 H 0.45476 0.30848 0.24535 0.0
H3201 H 0.46024 0.28213 0.1499 0.0
H3202 H 0.44062 0.29444 0.1681 0.0
H3203 H 0.46711 0.27747 0.20888 0.0
H3204 H 0.48647 0.2649 0.1907 0.0
H3205 H 0.45367 0.30877 0.2138 0.0
H3206 H 0.43881 0.25486 0.19556 0.0
H3207 H 0.43229 0.23317 0.1758 0.0
H3208 H 0.39355 0.26079 0.15723 0.0
H3209 H 0.40006 0.28281 0.17666 0.0
C3210 C 0.39287 0.30028 0.26294 0.0
C3211 C 0.37703 0.30372 0.2583 0.0
C3212 C 0.40507 0.29906 0.25148 0.0
C3213 C 0.40176 0.30139 0.23513 0.0
C3214 C 0.38601 0.30503 0.23049 0.0
C3215 C 0.37379 0.30623 0.24194 0.0
C3216 C 0.4145 0.29905 0.22284 0.0
C3217 C 0.41157 0.28773 0.21038 0.0
C3218 C 0.42981 0.30693 0.22394 0.0
C3219 C 0.43337 0.31972 0.23621 0.0
C3220 C 0.42335 0.33308 0.23781 0.0
C3221 C 0.42668 0.34504 0.24946 0.0
C3222 C 0.44006 0.34383 0.25954 0.0
C3223 C 0.45016 0.33067 0.25796 0.0
C3224 C 0.44688 0.31867 0.24633 0.0
C3225 C 0.46218 0.28163 0.16276 0.0
C3226 C 0.47494 0.27285 0.16898 0.0
C3227 C 0.45092 0.28851 0.17312 0.0
C3228 C 0.45237 0.28677 0.18983 0.0
C3229 C 0.46582 0.27903 0.19605 0.0
C3230 C 0.47689 0.27192 0.18569 0.0
C3231 C 0.43904 0.29123 0.20073 0.0
C3232 C 0.44192 0.3028 0.21295 0.0
C3233 C 0.42365 0.2836 0.19944 0.0
C3234 C 0.42006 0.27058 0.18742 0.0
C3235 C 0.42906 0.25642 0.1871 0.0
C3236 C 0.42533 0.24404 0.176 0.0
C3237 C 0.41251 0.2456 0.16528 0.0
C3238 C 0.40348 0.2596 0.16554 0.0
C3239 C 0.4072 0.27204 0.17658 0.0
H3240 H 0.40949 0.23592 0.15684 0.0
H3241 H 0.44262 0.3531 0.26856 0.0
H3242 H 0.49431 0.39664 0.01675 0.0
H3243 H 0.49079 0.37354 0.03423 0.0
H3244 H 0.54229 0.37103 0.03985 0.0
H3245 H 0.54598 0.39336 0.02144 0.0
H3246 H 0.53092 0.34225 0.03654 0.0
H3247 H 0.5163 0.38723 0.06969 0.0
H3248 H 0.50164 0.41173 0.07714 0.0
H3249 H 0.4568 0.3849 0.07476 0.0
H3250 H 0.47119 0.36027 0.06708 0.0
H3251 H 0.53228 0.29565 0.10751 0.0
H3252 H 0.53407 0.31816 0.08892 0.0
H3253 H 0.48402 0.31069 0.07638 0.0
H3254 H 0.48217 0.28793 0.09487 0.0
H3255 H 0.49368 0.34388 0.08294 0.0
H3256 H 0.50993 0.29836 0.05074 0.0
H3257 H 0.52587 0.27434 0.04465 0.0
H3258 H 0.56944 0.30323 0.04706 0.0
H3259 H 0.55377 0.3274 0.0534 0.0
C3260 C 0.50494 0.39108 0.02149 0.0
C3261 C 0.52045 0.39701 0.01761 0.0
C3262 C 0.50288 0.37797 0.03173 0.0
C3263 C 0.51625 0.37064 0.03866 0.0
C3264 C 0.53175 0.37647 0.03476 0.0
C3265 C 0.53383 0.38943 0.02434 0.0
C3266 C 0.51416 0.35678 0.04975 0.0
C3267 C 0.52291 0.34275 0.04679 0.0
C3268 C 0.50349 0.35717 0.06301 0.0
C3269 C 0.49481 0.37195 0.06764 0.0
C3270 C 0.5033 0.38658 0.07063 0.0
C3271 C 0.49504 0.40049 0.07492 0.0
C3272 C 0.4783 0.39988 0.07638 0.0
C3273 C 0.46977 0.38536 0.0736 0.0
C3274 C 0.47797 0.37142 0.06929 0.0
C3275 C 0.52163 0.29879 0.10082 0.0
C3276 C 0.50708 0.28998 0.10264 0.0
C3277 C 0.52269 0.31163 0.09017 0.0
C3278 C 0.50921 0.31604 0.0812 0.0
C3279 C 0.49458 0.30747 0.08318 0.0
C3280 C 0.49355 0.29445 0.0937 0.0
C3281 C 0.51051 0.32956 0.06973 0.0
C3282 C 0.50162 0.34347 0.07264 0.0
C3283 C 0.52124 0.32917 0.05659 0.0
C3284 C 0.53068 0.31467 0.0527 0.0
C3285 C 0.52292 0.29957 0.05011 0.0
C3286 C 0.5319 0.28593 0.04658 0.0
C3287 C 0.54866 0.28725 0.04551 0.0
C3288 C 0.55646 0.30222 0.04791 0.0
C3289 C 0.54753 0.3159 0.05146 0.0
H3290 H 0.55559 0.27667 0.04278 0.0
H3291 H 0.47192 0.41066 0.0797 0.0
H3292 H 0.65289 0.21318 0.23812 0.0
H3293 H 0.6316 0.21676 0.218 0.0
H3294 H 0.59592 0.21599 0.25547 0.0
H3295 H 0.61716 0.2127 0.27562 0.0
H3296 H 0.58857 0.19588 0.22678 0.0
H3297 H 0.60566 0.2503 0.2427 0.0
H3298 H 0.62585 0.27229 0.24684 0.0
H3299 H 0.63811 0.27008 0.19681 0.0
H3300 H 0.61813 0.2479 0.19243 0.0
H3301 H 0.51928 0.22463 0.18973 0.0
H3302 H 0.54204 0.22012 0.2075 0.0
H3303 H 0.57481 0.2359 0.17051 0.0
H3304 H 0.55193 0.24117 0.15288 0.0
H3305 H 0.58521 0.24735 0.19745 0.0
H3306 H 0.56814 0.19472 0.18015 0.0
H3307 H 0.54903 0.17203 0.17475 0.0
H3308 H 0.53845 0.1692 0.22508 0.0
H3309 H 0.5573 0.19205 0.23075 0.0
C3310 C 0.64049 0.21367 0.24201 0.0
C3311 C 0.63665 0.21272 0.2584 0.0
C3312 C 0.62837 0.21577 0.23055 0.0
C3313 C 0.61221 0.21668 0.23528 0.0
C3314 C 0.60832 0.21531 0.25159 0.0
C3315 C 0.62044 0.21351 0.26307 0.0
C3316 C 0.59935 0.21941 0.22331 0.0
C3317 C 0.58771 0.20717 0.22045 0.0
C3318 C 0.59861 0.23392 0.21467 0.0
C3319 C 0.61054 0.24732 0.21728 0.0
C3320 C 0.61276 0.2544 0.23262 0.0
C3321 C 0.62415 0.26692 0.235 0.0
C3322 C 0.63329 0.27255 0.2221 0.0
C3323 C 0.63104 0.26569 0.20679 0.0
C3324 C 0.61968 0.25315 0.20435 0.0
C3325 C 0.53133 0.22713 0.18535 0.0
C3326 C 0.53379 0.23316 0.16984 0.0
C3327 C 0.54438 0.22445 0.19551 0.0
C3328 C 0.56024 0.22728 0.19026 0.0
C3329 C 0.56272 0.23354 0.17485 0.0
C3330 C 0.54963 0.23653 0.16477 0.0
C3331 C 0.57414 0.22386 0.20097 0.0
C3332 C 0.58604 0.23597 0.20362 0.0
C3333 C 0.57529 0.20906 0.20919 0.0
C3334 C 0.56405 0.19519 0.20586 0.0
C3335 C 0.56167 0.18932 0.19006 0.0
C3336 C 0.55088 0.17643 0.18695 0.0
C3337 C 0.54251 0.1692 0.19956 0.0
C3338 C 0.54493 0.17482 0.21532 0.0
C3339 C 0.55568 0.18774 0.21849 0.0
H3340 H 0.53416 0.15922 0.19713 0.0
H3341 H 0.64209 0.28224 0.22397 0.0
H3342 H 0.48953 0.1213 0.00383 0.0
H3343 H 0.49414 0.14526 0.02115 0.0
H3344 H 0.48118 0.11737 0.06262 0.0
H3345 H 0.47681 0.09349 0.04556 0.0
H3346 H 0.46412 0.14496 0.0603 0.0
H3347 H 0.51969 0.12915 0.05636 0.0
H3348 H 0.54457 0.12287 0.04172 0.0
H3349 H 0.54566 0.17029 0.02167 0.0
H3350 H 0.52065 0.17677 0.03604 0.0
H3351 H 0.52027 0.20198 0.11502 0.0
H3352 H 0.51461 0.17883 0.09716 0.0
H3353 H 0.46989 0.20017 0.08312 0.0
H3354 H 0.47458 0.2219 0.10267 0.0
H3355 H 0.51438 0.17748 0.06821 0.0
H3356 H 0.45205 0.18586 0.06449 0.0
H3357 H 0.42443 0.18697 0.07517 0.0
H3358 H 0.43487 0.1491 0.10791 0.0
H3359 H 0.46287 0.14859 0.09811 0.0
C3360 C 0.48795 0.12022 0.01667 0.0
C3361 C 0.48257 0.10552 0.02328 0.0
C3362 C 0.49058 0.13393 0.02654 0.0
C3363 C 0.48793 0.13312 0.04317 0.0
C3364 C 0.48316 0.11832 0.04981 0.0
C3365 C 0.48058 0.10468 0.04002 0.0
C3366 C 0.48895 0.14777 0.0537 0.0
C3367 C 0.47516 0.15206 0.06216 0.0
C3368 C 0.50317 0.15726 0.05573 0.0
C3369 C 0.5182 0.15338 0.04712 0.0
C3370 C 0.52515 0.13818 0.04872 0.0
C3371 C 0.5393 0.1346 0.04049 0.0
C3372 C 0.54666 0.14616 0.03073 0.0
C3373 C 0.53992 0.16134 0.02921 0.0
C3374 C 0.52577 0.16498 0.0374 0.0
C3375 C 0.50892 0.20127 0.10856 0.0
C3376 C 0.49766 0.21343 0.11051 0.0
C3377 C 0.5057 0.18811 0.09818 0.0
C3378 C 0.49156 0.18726 0.08871 0.0
C3379 C 0.48038 0.19963 0.09068 0.0
C3380 C 0.48323 0.21236 0.10172 0.0
C3381 C 0.48967 0.17429 0.07593 0.0
C3382 C 0.50331 0.17042 0.06665 0.0
C3383 C 0.47522 0.16512 0.07309 0.0
C3384 C 0.45981 0.16792 0.08129 0.0
C3385 C 0.44865 0.17832 0.0745 0.0
C3386 C 0.4329 0.17878 0.08031 0.0
C3387 C 0.42796 0.16827 0.09238 0.0
C3388 C 0.43879 0.15741 0.09873 0.0
C3389 C 0.4547 0.15731 0.09333 0.0
H3390 H 0.41569 0.16844 0.0967 0.0
H3391 H 0.55761 0.14336 0.02438 0.0
H3392 H 0.25547 0.37776 0.74235 0.0
H3393 H 0.27644 0.39884 0.74452 0.0
H3394 H 0.27369 0.40619 0.69343 0.0
H3395 H 0.2526 0.38513 0.69116 0.0
H3396 H 0.30418 0.40453 0.70297 0.0
H3397 H 0.25846 0.43381 0.71997 0.0
H3398 H 0.23404 0.43914 0.73571 0.0
H3399 H 0.2618 0.43956 0.77932 0.0
H3400 H 0.28637 0.43399 0.76386 0.0
H3401 H 0.35304 0.4799 0.71263 0.0
H3402 H 0.33211 0.45988 0.70497 0.0
H3403 H 0.33179 0.44192 0.75327 0.0
H3404 H 0.35151 0.46293 0.76124 0.0
H3405 H 0.30201 0.45033 0.74184 0.0
H3406 H 0.33729 0.40047 0.71775 0.0
H3407 H 0.35893 0.39154 0.69968 0.0
H3408 H 0.35015 0.43129 0.66865 0.0
H3409 H 0.32782 0.43977 0.68601 0.0
C3410 C 0.25914 0.38401 0.73159 0.0
C3411 C 0.25229 0.37977 0.71658 0.0
C3412 C 0.27115 0.39607 0.73286 0.0
C3413 C 0.27652 0.40426 0.71917 0.0
C3414 C 0.26974 0.40005 0.70416 0.0
C3415 C 0.25772 0.38796 0.70288 0.0
C3416 C 0.28966 0.41673 0.72048 0.0
C3417 C 0.3036 0.41469 0.71131 0.0
C3418 C 0.28898 0.42994 0.73141 0.0
C3419 C 0.27424 0.43335 0.74076 0.0
C3420 C 0.25934 0.43492 0.73293 0.0
C3421 C 0.24547 0.438 0.74179 0.0
C3422 C 0.24636 0.43966 0.7585 0.0
C3423 C 0.26113 0.43826 0.76637 0.0
C3424 C 0.27503 0.43516 0.75756 0.0
C3425 C 0.34875 0.47138 0.72147 0.0
C3426 C 0.35442 0.47247 0.73737 0.0
C3427 C 0.33699 0.45972 0.71701 0.0
C3428 C 0.33084 0.4488 0.72832 0.0
C3429 C 0.33662 0.44988 0.74419 0.0
C3430 C 0.34805 0.46177 0.74872 0.0
C3431 C 0.31671 0.43797 0.72454 0.0
C3432 C 0.30253 0.44028 0.73336 0.0
C3433 C 0.3171 0.42511 0.71315 0.0
C3434 C 0.33151 0.42128 0.70364 0.0
C3435 C 0.34019 0.40744 0.70721 0.0
C3436 C 0.35233 0.40225 0.69691 0.0
C3437 C 0.35607 0.41097 0.68313 0.0
C3438 C 0.34745 0.42471 0.67948 0.0
C3439 C 0.33502 0.4297 0.68953 0.0
H3440 H 0.36556 0.40701 0.67524 0.0
H3441 H 0.2356 0.44205 0.76535 0.0
H3442 H 0.25608 0.63593 0.76711 0.0
H3443 H 0.27559 0.61444 0.7651 0.0
H3444 H 0.27632 0.61075 0.81668 0.0
H3445 H 0.25645 0.63193 0.81883 0.0
H3446 H 0.30683 0.61078 0.8038 0.0
H3447 H 0.25642 0.58273 0.79544 0.0
H3448 H 0.22979 0.57756 0.78296 0.0
H3449 H 0.25203 0.5709 0.73695 0.0
H3450 H 0.27879 0.57626 0.74911 0.0
H3451 H 0.33233 0.52193 0.78369 0.0
H3452 H 0.31217 0.54178 0.79122 0.0
H3453 H 0.342 0.57974 0.77133 0.0
H3454 H 0.36215 0.56004 0.76382 0.0
H3455 H 0.29509 0.56097 0.77155 0.0
H3456 H 0.33644 0.61456 0.79288 0.0
H3457 H 0.36257 0.61911 0.80659 0.0
H3458 H 0.35747 0.57314 0.82932 0.0
H3459 H 0.33122 0.56841 0.81593 0.0
C3460 C 0.2602 0.63044 0.77805 0.0
C3461 C 0.25457 0.63568 0.79314 0.0
C3462 C 0.27144 0.61819 0.77687 0.0
C3463 C 0.27734 0.6109 0.79073 0.0
C3464 C 0.27196 0.61623 0.80582 0.0
C3465 C 0.26064 0.62841 0.80702 0.0
C3466 C 0.28911 0.59772 0.78943 0.0
C3467 C 0.30426 0.59987 0.79677 0.0
C3468 C 0.28566 0.58336 0.78052 0.0
C3469 C 0.2696 0.58003 0.77317 0.0
C3470 C 0.25562 0.58028 0.78264 0.0
C3471 C 0.2405 0.5773 0.77563 0.0
C3472 C 0.23922 0.57394 0.75917 0.0
C3473 C 0.25305 0.57352 0.74969 0.0
C3474 C 0.26819 0.57651 0.75665 0.0
C3475 C 0.33468 0.53454 0.78112 0.0
C3476 C 0.34885 0.53941 0.77316 0.0
C3477 C 0.32312 0.54585 0.78535 0.0
C3478 C 0.3256 0.56226 0.78191 0.0
C3479 C 0.3399 0.56718 0.77428 0.0
C3480 C 0.35139 0.55588 0.76995 0.0
C3481 C 0.31298 0.57419 0.78558 0.0
C3482 C 0.29765 0.57182 0.77865 0.0
C3483 C 0.31623 0.58827 0.79501 0.0
C3484 C 0.33192 0.59108 0.80328 0.0
C3485 C 0.34086 0.60545 0.80086 0.0
C3486 C 0.3557 0.60806 0.80857 0.0
C3487 C 0.3617 0.5964 0.81878 0.0
C3488 C 0.35284 0.58213 0.82136 0.0
C3489 C 0.33799 0.57948 0.81369 0.0
H3490 H 0.37319 0.59844 0.82473 0.0
H3491 H 0.2275 0.57163 0.75376 0.0
H3492 H 0.91632 0.46345 0.48252 0.0
H3493 H 0.89194 0.44744 0.48816 0.0
H3494 H 0.86541 0.49111 0.49473 0.0
H3495 H 0.88975 0.50722 0.48907 0.0
H3496 H 0.85635 0.46861 0.51666 0.0
H3497 H 0.86364 0.47085 0.45936 0.0
H3498 H 0.87854 0.46759 0.434 0.0
H3499 H 0.88279 0.41692 0.44258 0.0
H3500 H 0.8681 0.41994 0.46811 0.0
H3501 H 0.78344 0.42381 0.47502 0.0
H3502 H 0.80797 0.44038 0.4754 0.0
H3503 H 0.82181 0.4197 0.52045 0.0
H3504 H 0.79695 0.40302 0.52027 0.0
H3505 H 0.83768 0.43033 0.47371 0.0
H3506 H 0.84693 0.44829 0.5404 0.0
H3507 H 0.83078 0.4534 0.56468 0.0
H3508 H 0.79079 0.46676 0.53535 0.0
H3509 H 0.80677 0.46193 0.51091 0.0
C3510 C 0.9053 0.46966 0.48516 0.0
C3511 C 0.90495 0.48663 0.48516 0.0
C3512 C 0.89139 0.46049 0.48846 0.0
C3513 C 0.87679 0.46807 0.49169 0.0
C3514 C 0.87653 0.485 0.49232 0.0
C3515 C 0.89047 0.49419 0.48907 0.0
C3516 C 0.8616 0.45837 0.49337 0.0
C3517 C 0.85229 0.46017 0.50732 0.0
C3518 C 0.85617 0.44751 0.48111 0.0
C3519 C 0.86492 0.44565 0.46572 0.0
C3520 C 0.86786 0.45904 0.45589 0.0
C3521 C 0.87625 0.45723 0.44148 0.0
C3522 C 0.88165 0.44207 0.4367 0.0
C3523 C 0.87862 0.42867 0.44631 0.0
C3524 C 0.87026 0.43041 0.46074 0.0
C3525 C 0.79158 0.42282 0.48513 0.0
C3526 C 0.78823 0.41195 0.49757 0.0
C3527 C 0.80566 0.43232 0.48529 0.0
C3528 C 0.81681 0.43125 0.49789 0.0
C3529 C 0.81333 0.42082 0.51065 0.0
C3530 C 0.79911 0.4113 0.51053 0.0
C3531 C 0.83234 0.44054 0.497 0.0
C3532 C 0.84177 0.43863 0.48317 0.0
C3533 C 0.83767 0.45148 0.50924 0.0
C3534 C 0.82799 0.45455 0.52384 0.0
C3535 C 0.8347 0.45235 0.53914 0.0
C3536 C 0.82558 0.4552 0.55293 0.0
C3537 C 0.80975 0.46034 0.55156 0.0
C3538 C 0.80303 0.4627 0.53639 0.0
C3539 C 0.8121 0.45988 0.52257 0.0
H3540 H 0.80271 0.46254 0.56224 0.0
H3541 H 0.88814 0.44069 0.42554 0.0
H3542 H 0.73603 0.85691 0.79712 0.0
H3543 H 0.71495 0.87689 0.79419 0.0
H3544 H 0.75119 0.91497 0.79268 0.0
H3545 H 0.77232 0.89503 0.79543 0.0
H3546 H 0.72364 0.92143 0.81326 0.0
H3547 H 0.73626 0.90358 0.75918 0.0
H3548 H 0.73985 0.88306 0.73781 0.0
H3549 H 0.69064 0.86701 0.74303 0.0
H3550 H 0.68684 0.8873 0.76461 0.0
H3551 H 0.6804 0.98634 0.78136 0.0
H3552 H 0.69929 0.96552 0.78854 0.0
H3553 H 0.66361 0.92863 0.77616 0.0
H3554 H 0.64493 0.94946 0.76825 0.0
H3555 H 0.69009 0.92043 0.76383 0.0
H3556 H 0.67613 0.93827 0.8165 0.0
H3557 H 0.67167 0.95775 0.83863 0.0
H3558 H 0.72157 0.97241 0.83763 0.0
H3559 H 0.72629 0.95318 0.81533 0.0
C3560 C 0.73948 0.86955 0.79628 0.0
C3561 C 0.75581 0.87442 0.79643 0.0
C3562 C 0.72745 0.88094 0.79456 0.0
C3563 C 0.73152 0.8974 0.79318 0.0
C3564 C 0.7478 0.90233 0.79375 0.0
C3565 C 0.75984 0.89093 0.7952 0.0
C3566 C 0.71885 0.90943 0.79059 0.0
C3567 C 0.71637 0.92136 0.80241 0.0
C3568 C 0.70906 0.90896 0.77666 0.0
C3569 C 0.71132 0.89683 0.76363 0.0
C3570 C 0.72625 0.89558 0.75587 0.0
C3571 C 0.72832 0.88401 0.7437 0.0
C3572 C 0.7155 0.8737 0.73909 0.0
C3573 C 0.70057 0.87498 0.74662 0.0
C3574 C 0.69845 0.88652 0.75882 0.0
C3575 C 0.67649 0.9738 0.7804 0.0
C3576 C 0.66116 0.96955 0.77426 0.0
C3577 C 0.6873 0.96186 0.78458 0.0
C3578 C 0.68289 0.94541 0.7831 0.0
C3579 C 0.66737 0.94119 0.7774 0.0
C3580 C 0.65665 0.95312 0.77296 0.0
C3581 C 0.69475 0.93265 0.78651 0.0
C3582 C 0.69717 0.92054 0.77481 0.0
C3583 C 0.70429 0.93281 0.80069 0.0
C3584 C 0.70153 0.94437 0.81414 0.0
C3585 C 0.68613 0.94573 0.82092 0.0
C3586 C 0.68356 0.95671 0.83351 0.0
C3587 C 0.69632 0.96634 0.83951 0.0
C3588 C 0.71169 0.96496 0.83296 0.0
C3589 C 0.71433 0.95401 0.82035 0.0
H3590 H 0.69431 0.97484 0.84926 0.0
H3591 H 0.71712 0.86476 0.72967 0.0
H3592 H 0.62745 0.49569 0.99612 0.0
H3593 H 0.65031 0.51485 0.99845 0.0
H3594 H 0.61959 0.55357 0.98487 0.0
H3595 H 0.59671 0.53464 0.98276 0.0
H3596 H 0.64707 0.55323 0.96754 0.0
H3597 H 0.63231 0.54967 0.02354 0.0
H3598 H 0.62709 0.53526 0.04875 0.0
H3599 H 0.67535 0.51788 0.04848 0.0
H3600 H 0.68078 0.53203 0.02314 0.0
H3601 H 0.70249 0.61208 0.02133 0.0
H3602 H 0.68005 0.59298 0.01657 0.0
H3603 H 0.70107 0.57936 0.97111 0.0
H3604 H 0.72196 0.60011 0.97494 0.0
H3605 H 0.67985 0.56406 0.01648 0.0
H3606 H 0.68747 0.55927 0.95412 0.0
H3607 H 0.68786 0.56937 0.9264 0.0
H3608 H 0.64882 0.60053 0.93759 0.0
H3609 H 0.64899 0.59135 0.96566 0.0
C3610 C 0.6255 0.50833 0.99387 0.0
C3611 C 0.61023 0.51359 0.98914 0.0
C3612 C 0.6386 0.51926 0.99518 0.0
C3613 C 0.63667 0.53566 0.99186 0.0
C3614 C 0.6214 0.54096 0.9874 0.0
C3615 C 0.60833 0.53008 0.98611 0.0
C3616 C 0.65058 0.54731 0.99228 0.0
C3617 C 0.6542 0.55576 0.9783 0.0
C3618 C 0.66013 0.55022 0.00612 0.0
C3619 C 0.65689 0.54176 0.02137 0.0
C3620 C 0.64176 0.54267 0.02879 0.0
C3621 C 0.63877 0.53457 0.04311 0.0
C3622 C 0.65086 0.52562 0.05019 0.0
C3623 C 0.66598 0.52479 0.04297 0.0
C3624 C 0.66903 0.53286 0.02864 0.0
C3625 C 0.70186 0.60539 0.01005 0.0
C3626 C 0.71367 0.60783 0.99833 0.0
C3627 C 0.6891 0.59432 0.00732 0.0
C3628 C 0.68836 0.5846 0.99324 0.0
C3629 C 0.70041 0.58704 0.98161 0.0
C3630 C 0.71268 0.59878 0.98396 0.0
C3631 C 0.67595 0.57109 0.99188 0.0
C3632 C 0.67272 0.56189 0.0057 0.0
C3633 C 0.66671 0.56744 0.9778 0.0
C3634 C 0.66895 0.5754 0.96222 0.0
C3635 C 0.6795 0.56884 0.95084 0.0
C3636 C 0.67956 0.57431 0.93505 0.0
C3637 C 0.66854 0.58578 0.9303 0.0
C3638 C 0.65754 0.59185 0.94136 0.0
C3639 C 0.65781 0.5868 0.9573 0.0
H3640 H 0.66841 0.58983 0.91801 0.0
H3641 H 0.64853 0.51935 0.06127 0.0
H3642 H 0.2446 0.63087 0.18164 0.0
H3643 H 0.22646 0.60792 0.18695 0.0
H3644 H 0.23205 0.61652 0.23792 0.0
H3645 H 0.25016 0.63952 0.2327 0.0
H3646 H 0.23384 0.5851 0.23104 0.0
H3647 H 0.19796 0.6273 0.21802 0.0
H3648 H 0.18676 0.64901 0.20179 0.0
H3649 H 0.17688 0.6152 0.16318 0.0
H3650 H 0.18823 0.59332 0.1791 0.0
H3651 H 0.16645 0.54104 0.26018 0.0
H3652 H 0.18653 0.56156 0.25266 0.0
H3653 H 0.17899 0.54911 0.20262 0.0
H3654 H 0.15858 0.52861 0.21023 0.0
H3655 H 0.17896 0.5813 0.20746 0.0
H3656 H 0.21341 0.53865 0.22221 0.0
H3657 H 0.22364 0.51731 0.23955 0.0
H3658 H 0.23512 0.55259 0.27642 0.0
H3659 H 0.22475 0.57412 0.25939 0.0
C3660 C 0.24185 0.62798 0.19399 0.0
C3661 C 0.2488 0.6371 0.20675 0.0
C3662 C 0.2315 0.61483 0.19701 0.0
C3663 C 0.22775 0.61057 0.21284 0.0
C3664 C 0.23479 0.61954 0.2256 0.0
C3665 C 0.24517 0.63267 0.2226 0.0
C3666 C 0.21652 0.59676 0.21613 0.0
C3667 C 0.22176 0.58438 0.22605 0.0
C3668 C 0.20089 0.59558 0.20931 0.0
C3669 C 0.19414 0.60872 0.19967 0.0
C3670 C 0.19355 0.62453 0.206 0.0
C3671 C 0.18714 0.63686 0.19687 0.0
C3672 C 0.18117 0.6335 0.18144 0.0
C3673 C 0.18155 0.61779 0.17512 0.0
C3674 C 0.18796 0.60542 0.18419 0.0
C3675 C 0.16907 0.54274 0.24757 0.0
C3676 C 0.16071 0.53367 0.23572 0.0
C3677 C 0.18068 0.55432 0.24329 0.0
C3678 C 0.18437 0.55684 0.22707 0.0
C3679 C 0.17632 0.5474 0.2152 0.0
C3680 C 0.16472 0.53572 0.21953 0.0
C3681 C 0.19614 0.56978 0.22259 0.0
C3682 C 0.19103 0.58199 0.21242 0.0
C3683 C 0.2118 0.57089 0.22934 0.0
C3684 C 0.2182 0.55799 0.23955 0.0
C3685 C 0.21802 0.54185 0.23405 0.0
C3686 C 0.22386 0.52972 0.24382 0.0
C3687 C 0.23 0.53359 0.25909 0.0
C3688 C 0.23035 0.54961 0.2646 0.0
C3689 C 0.22452 0.56178 0.25488 0.0
H3690 H 0.2345 0.52418 0.26663 0.0
H3691 H 0.1762 0.64306 0.17439 0.0
H3692 H 0.90819 0.54532 0.0384 0.0
H3693 H 0.88507 0.56176 0.03224 0.0
H3694 H 0.86001 0.52 0.01207 0.0
H3695 H 0.88286 0.50324 0.01872 0.0
H3696 H 0.85781 0.54864 0.99315 0.0
H3697 H 0.8496 0.53147 0.04758 0.0
H3698 H 0.85754 0.52771 0.07581 0.0
H3699 H 0.86458 0.57893 0.08206 0.0
H3700 H 0.85691 0.58298 0.05378 0.0
H3701 H 0.78066 0.58522 0.98998 0.0
H3702 H 0.80335 0.56727 0.99357 0.0
H3703 H 0.8266 0.60287 0.02482 0.0
H3704 H 0.80364 0.62039 0.02188 0.0
H3705 H 0.82926 0.57583 0.03783 0.0
H3706 H 0.83881 0.5938 0.98408 0.0
H3707 H 0.83226 0.59856 0.95566 0.0
H3708 H 0.82424 0.54768 0.94769 0.0
H3709 H 0.83055 0.54263 0.97612 0.0
C3710 C 0.89773 0.53952 0.03282 0.0
C3711 C 0.89742 0.52284 0.02924 0.0
C3712 C 0.88454 0.549 0.02919 0.0
C3713 C 0.87077 0.54209 0.02179 0.0
C3714 C 0.87054 0.52559 0.01774 0.0
C3715 C 0.88368 0.51603 0.02151 0.0
C3716 C 0.85646 0.55206 0.01877 0.0
C3717 C 0.8514 0.55444 0.0029 0.0
C3718 C 0.84835 0.55992 0.03147 0.0
C3719 C 0.85282 0.55751 0.04852 0.0
C3720 C 0.85296 0.54192 0.05494 0.0
C3721 C 0.85739 0.53974 0.07096 0.0
C3722 C 0.8616 0.55307 0.08072 0.0
C3723 C 0.86133 0.56861 0.07448 0.0
C3724 C 0.85693 0.57086 0.05847 0.0
C3725 C 0.79069 0.58924 0.9975 0.0
C3726 C 0.79036 0.60421 0.00566 0.0
C3727 C 0.80372 0.579 0.9995 0.0
C3728 C 0.81688 0.58371 0.00936 0.0
C3729 C 0.81663 0.59884 0.01721 0.0
C3730 C 0.8035 0.60891 0.01548 0.0
C3731 C 0.83063 0.57276 0.01209 0.0
C3732 C 0.83559 0.5701 0.02798 0.0
C3733 C 0.83877 0.56486 0.99937 0.0
C3734 C 0.83498 0.56786 0.98227 0.0
C3735 C 0.83553 0.58364 0.9763 0.0
C3736 C 0.83189 0.58638 0.96018 0.0
C3737 C 0.82779 0.57343 0.94989 0.0
C3738 C 0.82739 0.5577 0.95568 0.0
C3739 C 0.83101 0.55489 0.97179 0.0
H3740 H 0.82498 0.57558 0.93741 0.0
H3741 H 0.86502 0.55135 0.09311 0.0
H3742 H 0.12654 0.01558 0.01253 0.0
H3743 H 0.14855 0.99706 0.00823 0.0
H3744 H 0.12044 0.95866 0.02949 0.0
H3745 H 0.09798 0.97683 0.03314 0.0
H3746 H 0.15371 0.96222 0.04089 0.0
H3747 H 0.12295 0.95737 0.99165 0.0
H3748 H 0.10936 0.96795 0.96779 0.0
H3749 H 0.15409 0.98897 0.95172 0.0
H3750 H 0.16791 0.97871 0.97563 0.0
H3751 H 0.20402 0.89746 0.01874 0.0
H3752 H 0.18152 0.91523 0.02398 0.0
H3753 H 0.20143 0.94971 0.9907 0.0
H3754 H 0.22344 0.93157 0.9848 0.0
H3755 H 0.17159 0.94803 0.98578 0.0
H3756 H 0.2028 0.95431 0.03406 0.0
H3757 H 0.21729 0.94556 0.05819 0.0
H3758 H 0.17359 0.9243 0.07652 0.0
H3759 H 0.15887 0.93274 0.0524 0.0
C3760 C 0.12485 0.00316 0.01609 0.0
C3761 C 0.11032 0.99777 0.02312 0.0
C3762 C 0.13755 0.99261 0.01374 0.0
C3763 C 0.13611 0.97649 0.01851 0.0
C3764 C 0.12181 0.97109 0.0258 0.0
C3765 C 0.109 0.98157 0.02795 0.0
C3766 C 0.14945 0.96522 0.01564 0.0
C3767 C 0.15754 0.95891 0.02886 0.0
C3768 C 0.15469 0.96133 0.99995 0.0
C3769 C 0.14642 0.96741 0.98551 0.0
C3770 C 0.12986 0.96437 0.9831 0.0
C3771 C 0.12212 0.97028 0.96955 0.0
C3772 C 0.13085 0.97916 0.95827 0.0
C3773 C 0.14734 0.9821 0.96048 0.0
C3774 C 0.15514 0.97623 0.97402 0.0
C3775 C 0.20364 0.90888 0.01261 0.0
C3776 C 0.21554 0.91312 1.00139 0.0
C3777 C 0.19079 0.9191 0.01568 0.0
C3778 C 0.18982 0.93402 0.00796 0.0
C3779 C 0.20181 0.93829 0.99682 0.0
C3780 C 0.21444 0.92792 0.99348 0.0
C3781 C 0.17614 0.945 0.01107 0.0
C3782 C 0.1679 0.95127 0.99787 0.0
C3783 C 0.17097 0.94909 0.02681 0.0
C3784 C 0.17977 0.94402 0.04134 0.0
C3785 C 0.19631 0.94766 0.04318 0.0
C3786 C 0.20455 0.94278 0.05687 0.0
C3787 C 0.19637 0.93434 0.06886 0.0
C3788 C 0.17991 0.93081 0.06721 0.0
C3789 C 0.17161 0.93566 0.05354 0.0
H3790 H 0.20278 0.93057 0.07944 0.0
H3791 H 0.12484 0.98373 0.94778 0.0
loop_
_geom_bond_atom_site_label_1
_geom_bond_atom_site_label_2
_geom_bond_distance
_geom_bond_site_symmetry_2
_ccdc_geom_bond_type
C0 C1 1.391 . S
C0 C4 1.391 1_556 S
C0 H42 0.948 . S
C1 C0 1.391 . S
C1 C2 1.391 1_556 S
C2 C1 1.391 1_554 S
C2 H58 0.947 . S
C2 C59 1.392 . S
C3 C4 1.391 . S
C3 C7 1.397 . S
C3 C59 1.419 . S
C4 C0 1.391 1_554 S
C4 C3 1.391 . S
C4 C5 1.399 . S
C5 C4 1.399 . S
C5 C8 1.396 . S
C5 C17 1.453 . S
C5 C18 1.684 1_554 S
H6 C30 0.948 . S
C7 C3 1.397 . S
C7 C8 1.394 . S
C7 C26 1.723 . S
C8 C5 1.396 . S
C8 C7 1.394 . S
C8 C38 1.723 . S
H9 C32 0.947 . S
H10 C33 0.948 . S
H11 C39 0.982 . S
H12 C40 0.979 . S
H13 C40 0.980 . S
H14 C40 0.983 . S
H15 C39 0.979 1_565 S
H16 C39 0.977 . S
C17 C5 1.453 . S
C17 H46 0.982 . S
C17 H47 0.979 1_554 S
C17 H48 0.977 . S
C18 C5 1.684 1_556 S
C18 H43 0.979 . S
C18 H44 0.980 . S
C18 H45 0.983 . S
C19 C20 1.391 . S
C19 C24 1.391 1_655 S
C19 H49 0.948 . S
C20 C19 1.391 . S
C20 C21 1.391 1_655 S
C21 C20 1.391 1_455 S
C21 C22 1.392 . S
C21 H50 0.947 . S
C22 C21 1.392 . S
C22 C23 1.419 . S
C22 H51 0.948 . S
C23 C22 1.419 . S
C23 C24 1.391 . S
C23 C27 1.397 . S
C24 C19 1.391 1_455 S
C24 C23 1.391 . S
C24 C25 1.399 . S
C25 C24 1.399 . S
C25 C26 1.396 . S
C25 C28 1.453 . S
C25 C29 1.684 1_455 S
C26 C7 1.723 . S
C26 C25 1.396 . S
C26 C27 1.394 . S
C27 C23 1.397 . S
C27 C26 1.394 . S
C27 C37 1.723 . S
C28 C25 1.453 . S
C28 H52 0.982 . S
C28 H53 0.979 1_455 S
C28 H54 0.977 . S
C29 C25 1.684 1_655 S
C29 H55 0.979 . S
C29 H56 0.980 . S
C29 H57 0.983 . S
C30 H6 0.948 . S
C30 C31 1.391 . S
C30 C35 1.391 1_565 S
C31 C30 1.391 . S
C31 C32 1.391 1_565 S
C32 H9 0.947 . S
C32 C31 1.391 1_545 S
C32 C33 1.392 . S
C33 H10 0.948 . S
C33 C32 1.392 . S
C33 C34 1.419 . S
C34 C33 1.419 . S
C34 C35 1.391 . S
C34 C38 1.397 . S
C35 C30 1.391 1_545 S
C35 C34 1.391 . S
C35 C36 1.399 . S
C36 C35 1.399 . S
C36 C37 1.396 . S
C36 C39 1.453 . S
C36 C40 1.684 1_545 S
C37 C27 1.723 . S
C37 C36 1.396 . S
C37 C38 1.394 . S
C38 C8 1.723 . S
C38 C34 1.397 . S
C38 C37 1.394 . S
C39 H11 0.982 . S
C39 H15 0.979 1_545 S
C39 H16 0.977 . S
C39 C36 1.453 . S
C40 H12 0.979 . S
C40 H13 0.980 . S
C40 H14 0.983 . S
C40 C36 1.684 1_565 S
H41 C59 0.948 . S
H42 C0 0.948 . S
H43 C18 0.979 . S
H44 C18 0.980 . S
H45 C18 0.983 . S
H46 C17 0.982 . S
H47 C17 0.979 1_556 S
H48 C17 0.977 . S
H49 C19 0.948 . S
H50 C21 0.947 . S
H51 C22 0.948 . S
H52 C28 0.982 . S
H53 C28 0.979 1_655 S
H54 C28 0.977 . S
H55 C29 0.979 . S
H56 C29 0.980 . S
H57 C29 0.983 . S
H58 C2 0.947 . S
C59 C2 1.392 . S
C59 C3 1.419 . S
C59 H41 0.948 . S
C60 C61 1.391 . S
C60 C64 1.391 . S
C60 H102 0.948 . S
C61 C60 1.391 . S
C61 C62 1.391 . S
C62 C61 1.391 . S
C62 H118 0.947 . S
C62 C119 1.392 . S
C63 C64 1.391 . S
C63 C67 1.397 . S
C63 C119 1.419 . S
C64 C60 1.391 . S
C64 C63 1.391 . S
C64 C65 1.399 . S
C65 C64 1.399 . S
C65 C68 1.396 . S
C65 C77 1.453 . S
C65 C78 1.684 . S
H66 C90 0.948 . S
C67 C63 1.397 . S
C67 C68 1.394 . S
C67 C86 1.723 . S
C68 C65 1.396 . S
C68 C67 1.394 . S
C68 C98 1.723 . S
H69 C92 0.947 . S
H70 C93 0.948 . S
H71 C99 0.982 . S
H72 C100 0.979 . S
H73 C100 0.980 . S
H74 C100 0.983 . S
H75 C99 0.979 . S
H76 C99 0.977 . S
C77 C65 1.453 . S
C77 H106 0.982 . S
C77 H107 0.979 . S
C77 H108 0.977 . S
C78 C65 1.684 . S
C78 H103 0.979 . S
C78 H104 0.980 . S
C78 H105 0.983 . S
C79 C80 1.391 . S
C79 C84 1.391 . S
C79 H109 0.948 . S
C80 C79 1.391 . S
C80 C81 1.391 . S
C81 C80 1.391 . S
C81 C82 1.392 . S
C81 H110 0.947 . S
C82 C81 1.392 . S
C82 C83 1.419 . S
C82 H111 0.948 . S
C83 C82 1.419 . S
C83 C84 1.391 . S
C83 C87 1.397 . S
C84 C79 1.391 . S
C84 C83 1.391 . S
C84 C85 1.399 . S
C85 C84 1.399 . S
C85 C86 1.396 . S
C85 C88 1.453 . S
C85 C89 1.684 . S
C86 C67 1.723 . S
C86 C85 1.396 . S
C86 C87 1.394 . S
C87 C83 1.397 . S
C87 C86 1.394 . S
C87 C97 1.723 . S
C88 C85 1.453 . S
C88 H112 0.982 . S
C88 H113 0.979 . S
C88 H114 0.977 . S
C89 C85 1.684 . S
C89 H115 0.979 . S
C89 H116 0.980 . S
C89 H117 0.983 . S
C90 H66 0.948 . S
C90 C91 1.391 . S
C90 C95 1.391 . S
C91 C90 1.391 . S
C91 C92 1.391 . S
C92 H69 0.947 . S
C92 C91 1.391 . S
C92 C93 1.392 . S
C93 H70 0.948 . S
C93 C92 1.392 . S
C93 C94 1.419 . S
C94 C93 1.419 . S
C94 C95 1.391 . S
C94 C98 1.397 . S
C95 C90 1.391 . S
C95 C94 1.391 . S
C95 C96 1.399 . S
C96 C95 1.399 . S
C96 C97 1.396 . S
C96 C99 1.453 . S
C96 C100 1.684 . S
C97 C87 1.723 . S
C97 C96 1.396 . S
C97 C98 1.394 . S
C98 C68 1.723 . S
C98 C94 1.397 . S
C98 C97 1.394 . S
C99 H71 0.982 . S
C99 H75 0.979 . S
C99 H76 0.977 . S
C99 C96 1.453 . S
C100 H72 0.979 . S
C100 H73 0.980 . S
C100 H74 0.983 . S
C100 C96 1.684 . S
H101 C119 0.948 . S
H102 C60 0.948 . S
H103 C78 0.979 . S
H104 C78 0.980 . S
H105 C78 0.983 . S
H106 C77 0.982 . S
H107 C77 0.979 . S
H108 C77 0.977 . S
H109 C79 0.948 . S
H110 C81 0.947 . S
H111 C82 0.948 . S
H112 C88 0.982 . S
H113 C88 0.979 . S
H114 C88 0.977 . S
H115 C89 0.979 . S
H116 C89 0.980 . S
H117 C89 0.983 . S
H118 C62 0.947 . S
C119 C62 1.392 . S
C119 C63 1.419 . S
C119 H101 0.948 . S
C120 C121 1.391 1_554 S
C120 C124 1.391 . S
C120 H162 0.948 . S
C121 C120 1.391 1_556 S
C121 C122 1.391 . S
C122 C121 1.391 . S
C122 H178 0.947 . S
C122 C179 1.392 . S
C123 C124 1.391 . S
C123 C127 1.397 . S
C123 C179 1.419 1_554 S
C124 C120 1.391 . S
C124 C123 1.391 . S
C124 C125 1.399 . S
C125 C124 1.399 . S
C125 C128 1.396 . S
C125 C137 1.453 . S
C125 C138 1.684 1_655 S
H126 C150 0.964 . S
C127 C123 1.397 . S
C127 C128 1.394 . S
C127 C146 1.723 . S
C128 C125 1.396 . S
C128 C127 1.394 . S
C128 C158 1.723 . S
H129 C152 0.947 . S
H130 C153 0.948 . S
H131 C159 0.982 . S
H132 C160 0.979 . S
H133 C160 0.980 . S
H134 C160 0.983 . S
H135 C159 0.979 . S
H136 C159 0.977 . S
C137 C125 1.453 . S
C137 H166 0.982 . S
C137 H167 0.979 . S
C137 H168 0.977 . S
C138 C125 1.684 1_455 S
C138 H163 0.979 . S
C138 H164 0.980 . S
C138 H165 0.983 . S
C139 C140 1.391 . S
C139 C144 1.391 . S
C139 H169 0.948 . S
C140 C139 1.391 . S
C140 C141 1.391 . S
C141 C140 1.391 . S
C141 C142 1.392 . S
C141 H170 0.947 . S
C142 C141 1.392 . S
C142 C143 1.419 . S
C142 H171 0.948 . S
C143 C142 1.419 . S
C143 C144 1.391 . S
C143 C147 1.397 . S
C144 C139 1.391 . S
C144 C143 1.391 . S
C144 C145 1.399 . S
C145 C144 1.399 . S
C145 C146 1.396 . S
C145 C148 1.453 . S
C145 C149 1.684 1_554 S
C146 C127 1.723 . S
C146 C145 1.396 . S
C146 C147 1.394 . S
C147 C143 1.397 . S
C147 C146 1.394 . S
C147 C157 1.723 . S
C148 C145 1.453 . S
C148 H172 0.982 . S
C148 H173 0.979 . S
C148 H174 0.977 . S
C149 C145 1.684 1_556 S
C149 H175 0.979 . S
C149 H176 0.980 . S
C149 H177 0.983 . S
C150 H126 0.964 . S
C150 C151 1.343 1_655 S
C150 C155 1.427 . S
C151 C150 1.343 1_455 S
C151 C152 1.391 . S
C152 H129 0.947 . S
C152 C151 1.391 . S
C152 C153 1.392 . S
C153 H130 0.948 . S
C153 C152 1.392 . S
C153 C154 1.419 1_455 S
C154 C153 1.419 1_655 S
C154 C155 1.391 . S
C154 C158 1.397 . S
C155 C150 1.427 . S
C155 C154 1.391 . S
C155 C156 1.399 . S
C156 C155 1.399 . S
C156 C157 1.396 . S
C156 C159 1.453 . S
C156 C160 1.684 . S
C157 C147 1.723 . S
C157 C156 1.396 . S
C157 C158 1.394 . S
C158 C128 1.723 . S
C158 C154 1.397 . S
C158 C157 1.394 . S
C159 H131 0.982 . S
C159 H135 0.979 . S
C159 H136 0.977 . S
C159 C156 1.453 . S
C160 H132 0.979 . S
C160 H133 0.980 . S
C160 H134 0.983 . S
C160 C156 1.684 . S
H161 C179 0.948 . S
H162 C120 0.948 . S
H163 C138 0.979 . S
H164 C138 0.980 . S
H165 C138 0.983 . S
H166 C137 0.982 . S
H167 C137 0.979 . S
H168 C137 0.977 . S
H169 C139 0.948 . S
H170 C141 0.947 . S
H171 C142 0.948 . S
H172 C148 0.982 . S
H173 C148 0.979 . S
H174 C148 0.977 . S
H175 C149 0.979 . S
H176 C149 0.980 . S
H177 C149 0.983 . S
H178 C122 0.947 . S
C179 C122 1.392 . S
C179 C123 1.419 1_556 S
C179 H161 0.948 . S
C180 C181 1.391 . S
C180 C184 1.391 . S
C180 H222 0.948 . S
C181 C180 1.391 . S
C181 C182 1.391 . S
C182 C181 1.391 . S
C182 H238 0.947 . S
C182 C239 1.392 . S
C183 C184 1.391 . S
C183 C187 1.397 . S
C183 C239 1.419 . S
C184 C180 1.391 . S
C184 C183 1.391 . S
C184 C185 1.399 . S
C185 C184 1.399 . S
C185 C188 1.396 . S
C185 C197 1.453 . S
C185 C198 1.684 . S
H186 C210 0.948 . S
C187 C183 1.397 . S
C187 C188 1.394 . S
C187 C206 1.723 . S
C188 C185 1.396 . S
C188 C187 1.394 . S
C188 C218 1.723 . S
H189 C212 0.947 . S
H190 C213 0.948 . S
H191 C219 0.982 . S
H192 C220 0.979 . S
H193 C220 0.980 . S
H194 C220 0.983 . S
H195 C219 0.979 . S
H196 C219 0.977 . S
C197 C185 1.453 . S
C197 H226 0.982 . S
C197 H227 0.979 . S
C197 H228 0.977 . S
C198 C185 1.684 . S
C198 H223 0.979 . S
C198 H224 0.980 . S
C198 H225 0.983 . S
C199 C200 1.391 . S
C199 C204 1.391 . S
C199 H229 0.948 . S
C200 C199 1.391 . S
C200 C201 1.391 . S
C201 C200 1.391 . S
C201 C202 1.392 . S
C201 H230 0.947 . S
C202 C201 1.392 . S
C202 C203 1.419 . S
C202 H231 0.948 . S
C203 C202 1.419 . S
C203 C204 1.391 . S
C203 C207 1.397 . S
C204 C199 1.391 . S
C204 C203 1.391 . S
C204 C205 1.399 . S
C205 C204 1.399 . S
C205 C206 1.396 . S
C205 C208 1.453 . S
C205 C209 1.684 . S
C206 C187 1.723 . S
C206 C205 1.396 . S
C206 C207 1.394 . S
C207 C203 1.397 . S
C207 C206 1.394 . S
C207 C217 1.723 . S
C208 C205 1.453 . S
C208 H232 0.982 . S
C208 H233 0.979 . S
C208 H234 0.977 . S
C209 C205 1.684 . S
C209 H235 0.979 . S
C209 H236 0.980 . S
C209 H237 0.983 . S
C210 H186 0.948 . S
C210 C211 1.391 . S
C210 C215 1.391 . S
C211 C210 1.391 . S
C211 C212 1.391 . S
C212 H189 0.947 . S
C212 C211 1.391 . S
C212 C213 1.392 . S
C213 H190 0.948 . S
C213 C212 1.392 . S
C213 C214 1.419 . S
C214 C213 1.419 . S
C214 C215 1.391 . S
C214 C218 1.397 . S
C215 C210 1.391 . S
C215 C214 1.391 . S
C215 C216 1.399 . S
C216 C215 1.399 . S
C216 C217 1.396 . S
C216 C219 1.453 . S
C216 C220 1.684 . S
C217 C207 1.723 . S
C217 C216 1.396 . S
C217 C218 1.394 . S
C218 C188 1.723 . S
C218 C214 1.397 . S
C218 C217 1.394 . S
C219 H191 0.982 . S
C219 H195 0.979 . S
C219 H196 0.977 . S
C219 C216 1.453 . S
C220 H192 0.979 . S
C220 H193 0.980 . S
C220 H194 0.983 . S
C220 C216 1.684 . S
H221 C239 0.948 . S
H222 C180 0.948 . S
H223 C198 0.979 . S
H224 C198 0.980 . S
H225 C198 0.983 . S
H226 C197 0.982 . S
H227 C197 0.979 . S
H228 C197 0.977 . S
H229 C199 0.948 . S
H230 C201 0.947 . S
H231 C202 0.948 . S
H232 C208 0.982 . S
H233 C208 0.979 . S
H234 C208 0.977 . S
H235 C209 0.979 . S
H236 C209 0.980 . S
H237 C209 0.983 . S
H238 C182 0.947 . S
C239 C182 1.392 . S
C239 C183 1.419 . S
C239 H221 0.948 . S
C240 C241 1.391 . S
C240 C244 1.391 . S
C240 H282 0.948 . S
C241 C240 1.391 . S
C241 C242 1.391 . S
C242 C241 1.391 . S
C242 H298 0.947 . S
C242 C299 1.392 . S
C243 C244 1.391 . S
C243 C247 1.397 . S
C243 C299 1.419 . S
C244 C240 1.391 . S
C244 C243 1.391 . S
C244 C245 1.399 . S
C245 C244 1.399 . S
C245 C248 1.396 . S
C245 C257 1.453 . S
C245 C258 1.684 . S
H246 C270 0.948 . S
C247 C243 1.397 . S
C247 C248 1.394 . S
C247 C266 1.723 . S
C248 C245 1.396 . S
C248 C247 1.394 . S
C248 C278 1.723 . S
H249 C272 0.944 . S
H250 C273 0.948 . S
H251 C279 0.982 . S
H252 C280 0.979 1_565 S
H253 C280 0.980 . S
H254 C280 0.983 . S
H255 C279 0.979 . S
H256 C279 0.977 . S
C257 C245 1.453 . S
C257 H286 0.982 . S
C257 H287 0.979 . S
C257 H288 0.977 . S
C258 C245 1.684 . S
C258 H283 0.979 . S
C258 H284 0.980 . S
C258 H285 0.983 . S
C259 C260 1.391 . S
C259 C264 1.391 1_655 S
C259 H289 0.948 . S
C260 C259 1.391 . S
C260 C261 1.391 1_655 S
C261 C260 1.391 1_455 S
C261 C262 1.392 . S
C261 H290 0.947 1_565 S
C262 C261 1.392 . S
C262 C263 1.419 . S
C262 H291 0.984 . S
C263 C262 1.419 . S
C263 C264 1.391 . S
C263 C267 1.397 . S
C264 C259 1.391 1_455 S
C264 C263 1.391 . S
C264 C265 1.399 . S
C265 C264 1.399 . S
C265 C266 1.396 . S
C265 C268 1.453 1_455 S
C265 C269 1.684 . S
C266 C247 1.723 . S
C266 C265 1.396 . S
C266 C267 1.394 . S
C267 C263 1.397 . S
C267 C266 1.394 . S
C267 C277 1.723 . S
C268 C265 1.453 1_655 S
C268 H292 0.982 . S
C268 H293 0.979 . S
C268 H294 0.977 . S
C269 C265 1.684 . S
C269 H295 0.979 . S
C269 H296 0.980 . S
C269 H297 0.983 1_455 S
C270 H246 0.948 . S
C270 C271 1.391 . S
C270 C275 1.391 . S
C271 C270 1.391 . S
C271 C272 1.381 1_545 S
C272 H249 0.944 . S
C272 C271 1.381 1_565 S
C272 C273 1.401 . S
C273 H250 0.948 . S
C273 C272 1.401 . S
C273 C274 1.419 . S
C274 C273 1.419 . S
C274 C275 1.391 1_565 S
C274 C278 1.397 . S
C275 C270 1.391 . S
C275 C274 1.391 1_545 S
C275 C276 1.400 . S
C276 C275 1.400 . S
C276 C277 1.385 1_545 S
C276 C279 1.467 . S
C276 C280 1.686 . S
C277 C267 1.723 . S
C277 C276 1.385 1_565 S
C277 C278 1.394 . S
C278 C248 1.723 . S
C278 C274 1.397 . S
C278 C277 1.394 . S
C279 H251 0.982 . S
C279 H255 0.979 . S
C279 H256 0.977 . S
C279 C276 1.467 . S
C280 H252 0.979 1_545 S
C280 H253 0.980 . S
C280 H254 0.983 . S
C280 C276 1.686 . S
H281 C299 0.948 . S
H282 C240 0.948 . S
H283 C258 0.979 . S
H284 C258 0.980 . S
H285 C258 0.983 . S
H286 C257 0.982 . S
H287 C257 0.979 . S
H288 C257 0.977 . S
H289 C259 0.948 . S
H290 C261 0.947 1_545 S
H291 C262 0.984 . S
H292 C268 0.982 . S
H293 C268 0.979 . S
H294 C268 0.977 . S
H295 C269 0.979 . S
H296 C269 0.980 . S
H297 C269 0.983 1_655 S
H298 C242 0.947 . S
C299 C242 1.392 . S
C299 C243 1.419 . S
C299 H281 0.948 . S
C300 C301 1.391 . S
C300 C304 1.391 . S
C300 H342 0.948 . S
C301 C300 1.391 . S
C301 C302 1.391 . S
C302 C301 1.391 . S
C302 H358 0.947 . S
C302 C359 1.392 . S
C303 C304 1.391 . S
C303 C307 1.397 . S
C303 C359 1.419 . S
C304 C300 1.391 . S
C304 C303 1.391 . S
C304 C305 1.399 . S
C305 C304 1.399 . S
C305 C308 1.396 . S
C305 C317 1.453 . S
C305 C318 1.684 . S
H306 C330 0.948 . S
C307 C303 1.397 . S
C307 C308 1.394 . S
C307 C326 1.723 . S
C308 C305 1.396 . S
C308 C307 1.394 . S
C308 C338 1.723 . S
H309 C332 0.947 . S
H310 C333 0.948 . S
H311 C339 0.982 . S
H312 C340 0.979 . S
H313 C340 0.980 . S
H314 C340 0.983 . S
H315 C339 0.979 . S
H316 C339 0.977 . S
C317 C305 1.453 . S
C317 H346 0.982 . S
C317 H347 0.979 . S
C317 H348 0.977 . S
C318 C305 1.684 . S
C318 H343 0.979 . S
C318 H344 0.980 . S
C318 H345 0.983 . S
C319 C320 1.391 . S
C319 C324 1.391 . S
C319 H349 0.948 . S
C320 C319 1.391 . S
C320 C321 1.391 . S
C321 C320 1.391 . S
C321 C322 1.392 . S
C321 H350 0.947 . S
C322 C321 1.392 . S
C322 C323 1.419 . S
C322 H351 0.948 . S
C323 C322 1.419 . S
C323 C324 1.391 . S
C323 C327 1.397 . S
C324 C319 1.391 . S
C324 C323 1.391 . S
C324 C325 1.399 . S
C325 C324 1.399 . S
C325 C326 1.396 . S
C325 C328 1.453 . S
C325 C329 1.684 . S
C326 C307 1.723 . S
C326 C325 1.396 . S
C326 C327 1.394 . S
C327 C323 1.397 . S
C327 C326 1.394 . S
C327 C337 1.723 . S
C328 C325 1.453 . S
C328 H352 0.982 . S
C328 H353 0.979 . S
C328 H354 0.977 . S
C329 C325 1.684 . S
C329 H355 0.979 . S
C329 H356 0.980 . S
C329 H357 0.983 . S
C330 H306 0.948 . S
C330 C331 1.391 . S
C330 C335 1.391 . S
C331 C330 1.391 . S
C331 C332 1.391 . S
C332 H309 0.947 . S
C332 C331 1.391 . S
C332 C333 1.392 . S
C333 H310 0.948 . S
C333 C332 1.392 . S
C333 C334 1.419 . S
C334 C333 1.419 . S
C334 C335 1.391 . S
C334 C338 1.397 . S
C335 C330 1.391 . S
C335 C334 1.391 . S
C335 C336 1.399 . S
C336 C335 1.399 . S
C336 C337 1.396 . S
C336 C339 1.453 . S
C336 C340 1.684 . S
C337 C327 1.723 . S
C337 C336 1.396 . S
C337 C338 1.394 . S
C338 C308 1.723 . S
C338 C334 1.397 . S
C338 C337 1.394 . S
C339 H311 0.982 . S
C339 H315 0.979 . S
C339 H316 0.977 . S
C339 C336 1.453 . S
C340 H312 0.979 . S
C340 H313 0.980 . S
C340 H314 0.983 . S
C340 C336 1.684 . S
H341 C359 0.948 . S
H342 C300 0.948 . S
H343 C318 0.979 . S
H344 C318 0.980 . S
H345 C318 0.983 . S
H346 C317 0.982 . S
H347 C317 0.979 . S
H348 C317 0.977 . S
H349 C319 0.948 . S
H350 C321 0.947 . S
H351 C322 0.948 . S
H352 C328 0.982 . S
H353 C328 0.979 . S
H354 C328 0.977 . S
H355 C329 0.979 . S
H356 C329 0.980 . S
H357 C329 0.983 . S
H358 C302 0.947 . S
C359 C302 1.392 . S
C359 C303 1.419 . S
C359 H341 0.948 . S
C360 C361 1.391 . S
C360 C364 1.391 . S
C360 H402 0.948 . S
C361 C360 1.391 . S
C361 C362 1.391 . S
C362 C361 1.391 . S
C362 H418 0.947 . S
C362 C419 1.392 . S
C363 C364 1.391 . S
C363 C367 1.397 . S
C363 C419 1.419 . S
C364 C360 1.391 . S
C364 C363 1.391 . S
C364 C365 1.399 . S
C365 C364 1.399 . S
C365 C368 1.396 . S
C365 C377 1.453 . S
C365 C378 1.684 . S
H366 C390 0.948 . S
C367 C363 1.397 . S
C367 C368 1.394 . S
C367 C386 1.723 . S
C368 C365 1.396 . S
C368 C367 1.394 . S
C368 C398 1.723 . S
H369 C392 0.947 . S
H370 C393 0.948 . S
H371 C399 0.982 . S
H372 C400 0.979 . S
H373 C400 0.980 . S
H374 C400 0.983 . S
H375 C399 0.979 1_455 S
H376 C399 0.958 1_455 S
C377 C365 1.453 . S
C377 H406 0.982 . S
C377 H407 0.979 . S
C377 H408 0.977 . S
C378 C365 1.684 . S
C378 H403 0.979 . S
C378 H404 0.980 . S
C378 H405 0.983 . S
C379 C380 1.391 . S
C379 C384 1.391 1_455 S
C379 H409 0.937 1_455 S
C380 C379 1.391 . S
C380 C381 1.391 . S
C381 C380 1.391 . S
C381 C382 1.392 . S
C381 H410 0.947 . S
C382 C381 1.392 . S
C382 C383 1.419 1_455 S
C382 H411 0.948 . S
C383 C382 1.419 1_655 S
C383 C384 1.391 . S
C383 C387 1.397 . S
C384 C379 1.391 1_655 S
C384 C383 1.391 . S
C384 C385 1.399 . S
C385 C384 1.399 . S
C385 C386 1.396 . S
C385 C388 1.453 . S
C385 C389 1.684 . S
C386 C367 1.723 . S
C386 C385 1.396 . S
C386 C387 1.394 . S
C387 C383 1.397 . S
C387 C386 1.394 . S
C387 C397 1.723 . S
C388 C385 1.453 . S
C388 H412 0.982 . S
C388 H413 0.979 . S
C388 H414 0.977 . S
C389 C385 1.684 . S
C389 H415 0.979 . S
C389 H416 0.980 . S
C389 H417 0.983 . S
C390 H366 0.948 . S
C390 C391 1.391 . S
C390 C395 1.391 . S
C391 C390 1.391 . S
C391 C392 1.391 . S
C392 H369 0.947 . S
C392 C391 1.391 . S
C392 C393 1.392 . S
C393 H370 0.948 . S
C393 C392 1.392 . S
C393 C394 1.419 . S
C394 C393 1.419 . S
C394 C395 1.391 . S
C394 C398 1.397 . S
C395 C390 1.391 . S
C395 C394 1.391 . S
C395 C396 1.399 . S
C396 C395 1.399 . S
C396 C397 1.396 . S
C396 C399 1.453 . S
C396 C400 1.684 1_655 S
C397 C387 1.723 . S
C397 C396 1.396 . S
C397 C398 1.394 . S
C398 C368 1.723 . S
C398 C394 1.397 . S
C398 C397 1.394 . S
C399 H371 0.982 . S
C399 H375 0.979 1_655 S
C399 H376 0.958 1_655 S
C399 C396 1.453 . S
C400 H372 0.979 . S
C400 H373 0.980 . S
C400 H374 0.983 . S
C400 C396 1.684 1_455 S
H401 C419 0.948 . S
H402 C360 0.948 . S
H403 C378 0.979 . S
H404 C378 0.980 . S
H405 C378 0.983 . S
H406 C377 0.982 . S
H407 C377 0.979 . S
H408 C377 0.977 . S
H409 C379 0.937 1_655 S
H410 C381 0.947 . S
H411 C382 0.948 . S
H412 C388 0.982 . S
H413 C388 0.979 . S
H414 C388 0.977 . S
H415 C389 0.979 . S
H416 C389 0.980 . S
H417 C389 0.983 . S
H418 C362 0.947 . S
C419 C362 1.392 . S
C419 C363 1.419 . S
C419 H401 0.948 . S
C420 C421 1.391 . S
C420 C424 1.391 . S
C420 H462 0.948 . S
C421 C420 1.391 . S
C421 C422 1.391 . S
C422 C421 1.391 . S
C422 H478 0.947 . S
C422 C479 1.392 . S
C423 C424 1.391 . S
C423 C427 1.397 . S
C423 C479 1.419 . S
C424 C420 1.391 . S
C424 C423 1.391 . S
C424 C425 1.399 . S
C425 C424 1.399 . S
C425 C428 1.396 . S
C425 C437 1.453 . S
C425 C438 1.684 . S
H426 C450 0.948 . S
C427 C423 1.397 . S
C427 C428 1.394 . S
C427 C446 1.723 . S
C428 C425 1.396 . S
C428 C427 1.394 . S
C428 C458 1.723 . S
H429 C452 0.947 . S
H430 C453 0.948 . S
H431 C459 0.982 . S
H432 C460 0.979 . S
H433 C460 0.980 . S
H434 C460 0.983 . S
H435 C459 0.979 . S
H436 C459 0.977 . S
C437 C425 1.453 . S
C437 H466 0.982 . S
C437 H467 0.979 . S
C437 H468 0.977 . S
C438 C425 1.684 . S
C438 H463 0.979 . S
C438 H464 0.980 . S
C438 H465 0.983 . S
C439 C440 1.391 . S
C439 C444 1.391 . S
C439 H469 0.948 . S
C440 C439 1.391 . S
C440 C441 1.391 . S
C441 C440 1.391 . S
C441 C442 1.392 . S
C441 H470 0.947 . S
C442 C441 1.392 . S
C442 C443 1.419 . S
C442 H471 0.948 . S
C443 C442 1.419 . S
C443 C444 1.391 . S
C443 C447 1.397 . S
C444 C439 1.391 . S
C444 C443 1.391 . S
C444 C445 1.399 . S
C445 C444 1.399 . S
C445 C446 1.396 . S
C445 C448 1.453 . S
C445 C449 1.684 . S
C446 C427 1.723 . S
C446 C445 1.396 . S
C446 C447 1.394 . S
C447 C443 1.397 . S
C447 C446 1.394 . S
C447 C457 1.723 . S
C448 C445 1.453 . S
C448 H472 0.982 . S
C448 H473 0.979 . S
C448 H474 0.977 . S
C449 C445 1.684 . S
C449 H475 0.979 . S
C449 H476 0.980 . S
C449 H477 0.983 . S
C450 H426 0.948 . S
C450 C451 1.391 . S
C450 C455 1.391 . S
C451 C450 1.391 . S
C451 C452 1.391 . S
C452 H429 0.947 . S
C452 C451 1.391 . S
C452 C453 1.392 . S
C453 H430 0.948 . S
C453 C452 1.392 . S
C453 C454 1.419 . S
C454 C453 1.419 . S
C454 C455 1.391 . S
C454 C458 1.397 . S
C455 C450 1.391 . S
C455 C454 1.391 . S
C455 C456 1.399 . S
C456 C455 1.399 . S
C456 C457 1.396 . S
C456 C459 1.453 . S
C456 C460 1.684 . S
C457 C447 1.723 . S
C457 C456 1.396 . S
C457 C458 1.394 . S
C458 C428 1.723 . S
C458 C454 1.397 . S
C458 C457 1.394 . S
C459 H431 0.982 . S
C459 H435 0.979 . S
C459 H436 0.977 . S
C459 C456 1.453 . S
C460 H432 0.979 . S
C460 H433 0.980 . S
C460 H434 0.983 . S
C460 C456 1.684 . S
H461 C479 0.948 . S
H462 C420 0.948 . S
H463 C438 0.979 . S
H464 C438 0.980 . S
H465 C438 0.983 . S
H466 C437 0.982 . S
H467 C437 0.979 . S
H468 C437 0.977 . S
H469 C439 0.948 . S
H470 C441 0.947 . S
H471 C442 0.948 . S
H472 C448 0.982 . S
H473 C448 0.979 . S
H474 C448 0.977 . S
H475 C449 0.979 . S
H476 C449 0.980 . S
H477 C449 0.983 . S
H478 C422 0.947 . S
C479 C422 1.392 . S
C479 C423 1.419 . S
C479 H461 0.948 . S
C480 C481 1.391 . S
C480 C484 1.391 . S
C480 H522 0.948 . S
C481 C480 1.391 . S
C481 C482 1.391 . S
C482 C481 1.391 . S
C482 H538 0.947 . S
C482 C539 1.392 . S
C483 C484 1.391 . S
C483 C487 1.397 . S
C483 C539 1.419 . S
C484 C480 1.391 . S
C484 C483 1.391 . S
C484 C485 1.399 . S
C485 C484 1.399 . S
C485 C488 1.396 . S
C485 C497 1.453 . S
C485 C498 1.684 . S
H486 C510 0.948 . S
C487 C483 1.397 . S
C487 C488 1.394 . S
C487 C506 1.723 . S
C488 C485 1.396 . S
C488 C487 1.394 . S
C488 C518 1.723 . S
H489 C512 0.947 . S
H490 C513 0.948 . S
H491 C519 0.982 . S
H492 C520 0.979 . S
H493 C520 0.980 . S
H494 C520 0.983 . S
H495 C519 0.979 . S
H496 C519 0.977 . S
C497 C485 1.453 . S
C497 H526 0.982 . S
C497 H527 0.979 . S
C497 H528 0.977 . S
C498 C485 1.684 . S
C498 H523 0.979 . S
C498 H524 0.980 . S
C498 H525 0.983 . S
C499 C500 1.391 . S
C499 C504 1.391 . S
C499 H529 0.948 . S
C500 C499 1.391 . S
C500 C501 1.391 . S
C501 C500 1.391 . S
C501 C502 1.392 . S
C501 H530 0.947 . S
C502 C501 1.392 . S
C502 C503 1.419 . S
C502 H531 0.948 . S
C503 C502 1.419 . S
C503 C504 1.391 . S
C503 C507 1.397 . S
C504 C499 1.391 . S
C504 C503 1.391 . S
C504 C505 1.399 . S
C505 C504 1.399 . S
C505 C506 1.396 . S
C505 C508 1.453 . S
C505 C509 1.684 . S
C506 C487 1.723 . S
C506 C505 1.396 . S
C506 C507 1.394 . S
C507 C503 1.397 . S
C507 C506 1.394 . S
C507 C517 1.723 . S
C508 C505 1.453 . S
C508 H532 0.982 . S
C508 H533 0.979 . S
C508 H534 0.977 . S
C509 C505 1.684 . S
C509 H535 0.979 . S
C509 H536 0.980 . S
C509 H537 0.983 . S
C510 H486 0.948 . S
C510 C511 1.391 . S
C510 C515 1.391 . S
C511 C510 1.391 . S
C511 C512 1.391 . S
C512 H489 0.947 . S
C512 C511 1.391 . S
C512 C513 1.392 . S
C513 H490 0.948 . S
C513 C512 1.392 . S
C513 C514 1.419 . S
C514 C513 1.419 . S
C514 C515 1.391 . S
C514 C518 1.397 . S
C515 C510 1.391 . S
C515 C514 1.391 . S
C515 C516 1.399 . S
C516 C515 1.399 . S
C516 C517 1.396 . S
C516 C519 1.453 . S
C516 C520 1.684 . S
C517 C507 1.723 . S
C517 C516 1.396 . S
C517 C518 1.394 . S
C518 C488 1.723 . S
C518 C514 1.397 . S
C518 C517 1.394 . S
C519 H491 0.982 . S
C519 H495 0.979 . S
C519 H496 0.977 . S
C519 C516 1.453 . S
C520 H492 0.979 . S
C520 H493 0.980 . S
C520 H494 0.983 . S
C520 C516 1.684 . S
H521 C539 0.948 . S
H522 C480 0.948 . S
H523 C498 0.979 . S
H524 C498 0.980 . S
H525 C498 0.983 . S
H526 C497 0.982 . S
H527 C497 0.979 . S
H528 C497 0.977 . S
H529 C499 0.948 . S
H530 C501 0.947 . S
H531 C502 0.948 . S
H532 C508 0.982 . S
H533 C508 0.979 . S
H534 C508 0.977 . S
H535 C509 0.979 . S
H536 C509 0.980 . S
H537 C509 0.983 . S
H538 C482 0.947 . S
C539 C482 1.392 . S
C539 C483 1.419 . S
C539 H521 0.948 . S
C540 C541 1.391 . S
C540 C544 1.391 . S
C540 H582 0.948 . S
C541 C540 1.391 . S
C541 C542 1.391 . S
C542 C541 1.391 . S
C542 H598 0.947 . S
C542 C599 1.392 . S
C543 C544 1.391 . S
C543 C547 1.397 . S
C543 C599 1.419 . S
C544 C540 1.391 . S
C544 C543 1.391 . S
C544 C545 1.399 . S
C545 C544 1.399 . S
C545 C548 1.396 . S
C545 C557 1.453 . S
C545 C558 1.684 . S
H546 C570 0.948 . S
C547 C543 1.397 . S
C547 C548 1.394 . S
C547 C566 1.723 . S
C548 C545 1.396 . S
C548 C547 1.394 . S
C548 C578 1.723 . S
H549 C572 0.947 . S
H550 C573 0.948 . S
H551 C579 0.982 . S
H552 C580 0.979 . S
H553 C580 0.980 . S
H554 C580 0.983 . S
H555 C579 0.986 . S
H556 C579 0.977 . S
C557 C545 1.453 . S
C557 H586 0.982 . S
C557 H587 0.979 . S
C557 H588 0.977 . S
C558 C545 1.684 . S
C558 H583 0.979 . S
C558 H584 0.980 . S
C558 H585 0.983 . S
C559 C560 1.411 . S
C559 C564 1.376 1_545 S
C559 H589 0.944 1_545 S
C560 C559 1.411 . S
C560 C561 1.391 . S
C561 C560 1.391 . S
C561 C562 1.392 . S
C561 H590 0.947 . S
C562 C561 1.392 . S
C562 C563 1.419 1_545 S
C562 H591 0.948 . S
C563 C562 1.419 1_565 S
C563 C564 1.391 . S
C563 C567 1.397 . S
C564 C559 1.376 1_565 S
C564 C563 1.391 . S
C564 C565 1.399 . S
C565 C564 1.399 . S
C565 C566 1.396 . S
C565 C568 1.453 . S
C565 C569 1.684 . S
C566 C547 1.723 . S
C566 C565 1.396 . S
C566 C567 1.394 . S
C567 C563 1.397 . S
C567 C566 1.394 . S
C567 C577 1.723 . S
C568 C565 1.453 . S
C568 H592 0.982 . S
C568 H593 0.979 . S
C568 H594 0.977 . S
C569 C565 1.684 . S
C569 H595 0.979 . S
C569 H596 0.980 . S
C569 H597 0.983 . S
C570 H546 0.948 . S
C570 C571 1.391 . S
C570 C575 1.391 . S
C571 C570 1.391 . S
C571 C572 1.391 . S
C572 H549 0.947 . S
C572 C571 1.391 . S
C572 C573 1.392 . S
C573 H550 0.948 . S
C573 C572 1.392 . S
C573 C574 1.419 . S
C574 C573 1.419 . S
C574 C575 1.391 . S
C574 C578 1.397 . S
C575 C570 1.391 . S
C575 C574 1.391 . S
C575 C576 1.399 . S
C576 C575 1.399 . S
C576 C577 1.396 . S
C576 C579 1.453 . S
C576 C580 1.684 1_565 S
C577 C567 1.723 . S
C577 C576 1.396 . S
C577 C578 1.394 . S
C578 C548 1.723 . S
C578 C574 1.397 . S
C578 C577 1.394 . S
C579 H551 0.982 . S
C579 H555 0.986 . S
C579 H556 0.977 . S
C579 C576 1.453 . S
C580 H552 0.979 . S
C580 H553 0.980 . S
C580 H554 0.983 . S
C580 C576 1.684 1_545 S
H581 C599 0.948 . S
H582 C540 0.948 . S
H583 C558 0.979 . S
H584 C558 0.980 . S
H585 C558 0.983 . S
H586 C557 0.982 . S
H587 C557 0.979 . S
H588 C557 0.977 . S
H589 C559 0.944 1_565 S
H590 C561 0.947 . S
H591 C562 0.948 . S
H592 C568 0.982 . S
H593 C568 0.979 . S
H594 C568 0.977 . S
H595 C569 0.979 . S
H596 C569 0.980 . S
H597 C569 0.983 . S
H598 C542 0.947 . S
C599 C542 1.392 . S
C599 C543 1.419 . S
C599 H581 0.948 . S
C600 C601 1.391 . S
C600 C604 1.391 . S
C600 H642 0.948 . S
C601 C600 1.391 . S
C601 C602 1.391 . S
C602 C601 1.391 . S
C602 H658 0.947 . S
C602 C659 1.392 . S
C603 C604 1.391 . S
C603 C607 1.397 . S
C603 C659 1.419 . S
C604 C600 1.391 . S
C604 C603 1.391 . S
C604 C605 1.399 . S
C605 C604 1.399 . S
C605 C608 1.396 . S
C605 C617 1.453 . S
C605 C618 1.684 . S
H606 C630 0.948 . S
C607 C603 1.397 . S
C607 C608 1.394 . S
C607 C626 1.723 . S
C608 C605 1.396 . S
C608 C607 1.394 . S
C608 C638 1.723 . S
H609 C632 0.947 . S
H610 C633 0.948 . S
H611 C639 0.982 . S
H612 C640 0.979 . S
H613 C640 0.980 . S
H614 C640 0.983 . S
H615 C639 0.979 . S
H616 C639 0.977 . S
C617 C605 1.453 . S
C617 H646 0.982 . S
C617 H647 0.979 . S
C617 H648 0.977 . S
C618 C605 1.684 . S
C618 H643 0.979 . S
C618 H644 0.980 . S
C618 H645 0.983 . S
C619 C620 1.391 . S
C619 C624 1.391 . S
C619 H649 0.948 . S
C620 C619 1.391 . S
C620 C621 1.391 . S
C621 C620 1.391 . S
C621 C622 1.392 . S
C621 H650 0.947 . S
C622 C621 1.392 . S
C622 C623 1.419 . S
C622 H651 0.948 . S
C623 C622 1.419 . S
C623 C624 1.391 . S
C623 C627 1.397 . S
C624 C619 1.391 . S
C624 C623 1.391 . S
C624 C625 1.399 . S
C625 C624 1.399 . S
C625 C626 1.396 . S
C625 C628 1.453 . S
C625 C629 1.684 . S
C626 C607 1.723 . S
C626 C625 1.396 . S
C626 C627 1.394 . S
C627 C623 1.397 . S
C627 C626 1.394 . S
C627 C637 1.723 . S
C628 C625 1.453 . S
C628 H652 0.982 . S
C628 H653 0.979 . S
C628 H654 0.977 . S
C629 C625 1.684 . S
C629 H655 0.979 . S
C629 H656 0.980 . S
C629 H657 0.983 . S
C630 H606 0.948 . S
C630 C631 1.391 . S
C630 C635 1.391 . S
C631 C630 1.391 . S
C631 C632 1.391 . S
C632 H609 0.947 . S
C632 C631 1.391 . S
C632 C633 1.392 . S
C633 H610 0.948 . S
C633 C632 1.392 . S
C633 C634 1.419 . S
C634 C633 1.419 . S
C634 C635 1.391 . S
C634 C638 1.397 . S
C635 C630 1.391 . S
C635 C634 1.391 . S
C635 C636 1.399 . S
C636 C635 1.399 . S
C636 C637 1.396 . S
C636 C639 1.453 . S
C636 C640 1.684 . S
C637 C627 1.723 . S
C637 C636 1.396 . S
C637 C638 1.394 . S
C638 C608 1.723 . S
C638 C634 1.397 . S
C638 C637 1.394 . S
C639 H611 0.982 . S
C639 H615 0.979 . S
C639 H616 0.977 . S
C639 C636 1.453 . S
C640 H612 0.979 . S
C640 H613 0.980 . S
C640 H614 0.983 . S
C640 C636 1.684 . S
H641 C659 0.948 . S
H642 C600 0.948 . S
H643 C618 0.979 . S
H644 C618 0.980 . S
H645 C618 0.983 . S
H646 C617 0.982 . S
H647 C617 0.979 . S
H648 C617 0.977 . S
H649 C619 0.948 . S
H650 C621 0.947 . S
H651 C622 0.948 . S
H652 C628 0.982 . S
H653 C628 0.979 . S
H654 C628 0.977 . S
H655 C629 0.979 . S
H656 C629 0.980 . S
H657 C629 0.983 . S
H658 C602 0.947 . S
C659 C602 1.392 . S
C659 C603 1.419 . S
C659 H641 0.948 . S
C660 C661 1.391 . S
C660 C664 1.391 . S
C660 H702 0.948 . S
C661 C660 1.391 . S
C661 C662 1.391 . S
C662 C661 1.391 . S
C662 H718 0.947 . S
C662 C719 1.392 . S
C663 C664 1.391 . S
C663 C667 1.397 . S
C663 C719 1.419 . S
C664 C660 1.391 . S
C664 C663 1.391 . S
C664 C665 1.399 . S
C665 C664 1.399 . S
C665 C668 1.396 . S
C665 C677 1.453 . S
C665 C678 1.684 . S
H666 C690 0.948 . S
C667 C663 1.397 . S
C667 C668 1.394 . S
C667 C686 1.723 . S
C668 C665 1.396 . S
C668 C667 1.394 . S
C668 C698 1.723 . S
H669 C692 0.947 . S
H670 C693 0.948 . S
H671 C699 0.982 . S
H672 C700 0.979 . S
H673 C700 0.980 . S
H674 C700 0.983 . S
H675 C699 0.979 . S
H676 C699 0.977 . S
C677 C665 1.453 . S
C677 H706 0.982 . S
C677 H707 0.979 . S
C677 H708 0.977 . S
C678 C665 1.684 . S
C678 H703 0.979 . S
C678 H704 0.980 . S
C678 H705 0.983 . S
C679 C680 1.391 . S
C679 C684 1.391 . S
C679 H709 0.948 . S
C680 C679 1.391 . S
C680 C681 1.391 . S
C681 C680 1.391 . S
C681 C682 1.392 . S
C681 H710 0.947 . S
C682 C681 1.392 . S
C682 C683 1.419 . S
C682 H711 0.948 . S
C683 C682 1.419 . S
C683 C684 1.391 . S
C683 C687 1.397 . S
C684 C679 1.391 . S
C684 C683 1.391 . S
C684 C685 1.399 . S
C685 C684 1.399 . S
C685 C686 1.396 . S
C685 C688 1.453 . S
C685 C689 1.684 . S
C686 C667 1.723 . S
C686 C685 1.396 . S
C686 C687 1.394 . S
C687 C683 1.397 . S
C687 C686 1.394 . S
C687 C697 1.723 . S
C688 C685 1.453 . S
C688 H712 0.982 . S
C688 H713 0.979 . S
C688 H714 0.977 . S
C689 C685 1.684 . S
C689 H715 0.979 . S
C689 H716 0.980 . S
C689 H717 0.983 . S
C690 H666 0.948 . S
C690 C691 1.391 . S
C690 C695 1.391 . S
C691 C690 1.391 . S
C691 C692 1.391 . S
C692 H669 0.947 . S
C692 C691 1.391 . S
C692 C693 1.392 . S
C693 H670 0.948 . S
C693 C692 1.392 . S
C693 C694 1.419 . S
C694 C693 1.419 . S
C694 C695 1.391 . S
C694 C698 1.397 . S
C695 C690 1.391 . S
C695 C694 1.391 . S
C695 C696 1.399 . S
C696 C695 1.399 . S
C696 C697 1.396 . S
C696 C699 1.453 . S
C696 C700 1.684 . S
C697 C687 1.723 . S
C697 C696 1.396 . S
C697 C698 1.394 . S
C698 C668 1.723 . S
C698 C694 1.397 . S
C698 C697 1.394 . S
C699 H671 0.982 . S
C699 H675 0.979 . S
C699 H676 0.977 . S
C699 C696 1.453 . S
C700 H672 0.979 . S
C700 H673 0.980 . S
C700 H674 0.983 . S
C700 C696 1.684 . S
H701 C719 0.948 . S
H702 C660 0.948 . S
H703 C678 0.979 . S
H704 C678 0.980 . S
H705 C678 0.983 . S
H706 C677 0.982 . S
H707 C677 0.979 . S
H708 C677 0.977 . S
H709 C679 0.948 . S
H710 C681 0.947 . S
H711 C682 0.948 . S
H712 C688 0.982 . S
H713 C688 0.979 . S
H714 C688 0.977 . S
H715 C689 0.979 . S
H716 C689 0.980 . S
H717 C689 0.983 . S
H718 C662 0.947 . S
C719 C662 1.392 . S
C719 C663 1.419 . S
C719 H701 0.948 . S
C720 C721 1.391 . S
C720 C724 1.391 . S
C720 H762 0.948 . S
C721 C720 1.391 . S
C721 C722 1.391 . S
C722 C721 1.391 . S
C722 H778 0.947 . S
C722 C779 1.392 . S
C723 C724 1.391 . S
C723 C727 1.397 . S
C723 C779 1.419 . S
C724 C720 1.391 . S
C724 C723 1.391 . S
C724 C725 1.399 . S
C725 C724 1.399 . S
C725 C728 1.396 . S
C725 C737 1.453 . S
C725 C738 1.684 . S
H726 C750 0.948 . S
C727 C723 1.397 . S
C727 C728 1.394 . S
C727 C746 1.723 . S
C728 C725 1.396 . S
C728 C727 1.394 . S
C728 C758 1.723 . S
H729 C752 0.947 . S
H730 C753 0.948 . S
H731 C759 0.982 . S
H732 C760 0.979 . S
H733 C760 0.980 . S
H734 C760 0.983 . S
H735 C759 0.979 . S
H736 C759 0.977 . S
C737 C725 1.453 . S
C737 H766 0.982 . S
C737 H767 0.979 . S
C737 H768 0.977 . S
C738 C725 1.684 . S
C738 H763 0.979 . S
C738 H764 0.980 . S
C738 H765 0.983 . S
C739 C740 1.391 . S
C739 C744 1.391 . S
C739 H769 0.948 . S
C740 C739 1.391 . S
C740 C741 1.391 . S
C741 C740 1.391 . S
C741 C742 1.392 . S
C741 H770 0.947 . S
C742 C741 1.392 . S
C742 C743 1.419 . S
C742 H771 0.948 . S
C743 C742 1.419 . S
C743 C744 1.391 . S
C743 C747 1.397 . S
C744 C739 1.391 . S
C744 C743 1.391 . S
C744 C745 1.399 . S
C745 C744 1.399 . S
C745 C746 1.396 . S
C745 C748 1.453 . S
C745 C749 1.684 . S
C746 C727 1.723 . S
C746 C745 1.396 . S
C746 C747 1.394 . S
C747 C743 1.397 . S
C747 C746 1.394 . S
C747 C757 1.723 . S
C748 C745 1.453 . S
C748 H772 0.982 . S
C748 H773 0.979 . S
C748 H774 0.977 . S
C749 C745 1.684 . S
C749 H775 0.979 . S
C749 H776 0.980 . S
C749 H777 0.983 . S
C750 H726 0.948 . S
C750 C751 1.391 . S
C750 C755 1.391 . S
C751 C750 1.391 . S
C751 C752 1.391 . S
C752 H729 0.947 . S
C752 C751 1.391 . S
C752 C753 1.392 . S
C753 H730 0.948 . S
C753 C752 1.392 . S
C753 C754 1.419 . S
C754 C753 1.419 . S
C754 C755 1.391 . S
C754 C758 1.397 . S
C755 C750 1.391 . S
C755 C754 1.391 . S
C755 C756 1.399 . S
C756 C755 1.399 . S
C756 C757 1.396 . S
C756 C759 1.453 . S
C756 C760 1.684 . S
C757 C747 1.723 . S
C757 C756 1.396 . S
C757 C758 1.394 . S
C758 C728 1.723 . S
C758 C754 1.397 . S
C758 C757 1.394 . S
C759 H731 0.982 . S
C759 H735 0.979 . S
C759 H736 0.977 . S
C759 C756 1.453 . S
C760 H732 0.979 . S
C760 H733 0.980 . S
C760 H734 0.983 . S
C760 C756 1.684 . S
H761 C779 0.948 . S
H762 C720 0.948 . S
H763 C738 0.979 . S
H764 C738 0.980 . S
H765 C738 0.983 . S
H766 C737 0.982 . S
H767 C737 0.979 . S
H768 C737 0.977 . S
H769 C739 0.948 . S
H770 C741 0.947 . S
H771 C742 0.948 . S
H772 C748 0.982 . S
H773 C748 0.979 . S
H774 C748 0.977 . S
H775 C749 0.979 . S
H776 C749 0.980 . S
H777 C749 0.983 . S
H778 C722 0.947 . S
C779 C722 1.392 . S
C779 C723 1.419 . S
C779 H761 0.948 . S
C780 C781 1.391 . S
C780 C784 1.391 1_554 S
C780 H822 0.948 . S
C781 C780 1.391 . S
C781 C782 1.391 1_554 S
C782 C781 1.391 1_556 S
C782 H838 0.947 . S
C782 C839 1.392 . S
C783 C784 1.391 . S
C783 C787 1.397 . S
C783 C839 1.419 . S
C784 C780 1.391 1_556 S
C784 C783 1.391 . S
C784 C785 1.399 . S
C785 C784 1.399 . S
C785 C788 1.396 . S
C785 C797 1.453 1_556 S
C785 C798 1.684 . S
H786 C810 0.948 . S
C787 C783 1.397 . S
C787 C788 1.394 . S
C787 C806 1.723 . S
C788 C785 1.396 . S
C788 C787 1.394 . S
C788 C818 1.723 . S
H789 C812 0.947 . S
H790 C813 0.948 . S
H791 C819 0.982 . S
H792 C820 0.979 . S
H793 C820 0.980 . S
H794 C820 0.983 . S
H795 C819 0.979 . S
H796 C819 0.977 . S
C797 C785 1.453 1_554 S
C797 H826 0.982 . S
C797 H827 0.979 . S
C797 H828 0.977 . S
C798 C785 1.684 . S
C798 H823 0.979 . S
C798 H824 0.980 . S
C798 H825 0.983 1_556 S
C799 C800 1.391 . S
C799 C804 1.391 . S
C799 H829 0.948 . S
C800 C799 1.391 . S
C800 C801 1.391 . S
C801 C800 1.391 . S
C801 C802 1.392 . S
C801 H830 0.947 . S
C802 C801 1.392 . S
C802 C803 1.419 . S
C802 H831 0.948 . S
C803 C802 1.419 . S
C803 C804 1.391 . S
C803 C807 1.397 . S
C804 C799 1.391 . S
C804 C803 1.391 . S
C804 C805 1.399 . S
C805 C804 1.399 . S
C805 C806 1.396 . S
C805 C808 1.453 . S
C805 C809 1.684 . S
C806 C787 1.723 . S
C806 C805 1.396 . S
C806 C807 1.394 . S
C807 C803 1.397 . S
C807 C806 1.394 . S
C807 C817 1.723 . S
C808 C805 1.453 . S
C808 H832 0.982 . S
C808 H833 0.979 . S
C808 H834 0.977 . S
C809 C805 1.684 . S
C809 H835 0.979 . S
C809 H836 0.980 . S
C809 H837 0.983 . S
C810 H786 0.948 . S
C810 C811 1.391 . S
C810 C815 1.391 . S
C811 C810 1.391 . S
C811 C812 1.391 . S
C812 H789 0.947 . S
C812 C811 1.391 . S
C812 C813 1.392 . S
C813 H790 0.948 . S
C813 C812 1.392 . S
C813 C814 1.419 . S
C814 C813 1.419 . S
C814 C815 1.391 . S
C814 C818 1.397 . S
C815 C810 1.391 . S
C815 C814 1.391 . S
C815 C816 1.399 . S
C816 C815 1.399 . S
C816 C817 1.396 . S
C816 C819 1.453 . S
C816 C820 1.684 . S
C817 C807 1.723 . S
C817 C816 1.396 . S
C817 C818 1.394 . S
C818 C788 1.723 . S
C818 C814 1.397 . S
C818 C817 1.394 . S
C819 H791 0.982 . S
C819 H795 0.979 . S
C819 H796 0.977 . S
C819 C816 1.453 . S
C820 H792 0.979 . S
C820 H793 0.980 . S
C820 H794 0.983 . S
C820 C816 1.684 . S
H821 C839 0.948 . S
H822 C780 0.948 . S
H823 C798 0.979 . S
H824 C798 0.980 . S
H825 C798 0.983 1_554 S
H826 C797 0.982 . S
H827 C797 0.979 . S
H828 C797 0.977 . S
H829 C799 0.948 . S
H830 C801 0.947 . S
H831 C802 0.948 . S
H832 C808 0.982 . S
H833 C808 0.979 . S
H834 C808 0.977 . S
H835 C809 0.979 . S
H836 C809 0.980 . S
H837 C809 0.983 . S
H838 C782 0.947 . S
C839 C782 1.392 . S
C839 C783 1.419 . S
C839 H821 0.948 . S
C840 C841 1.391 . S
C840 C844 1.391 . S
C840 H882 0.948 . S
C841 C840 1.391 . S
C841 C842 1.391 . S
C842 C841 1.391 . S
C842 H898 0.947 . S
C842 C899 1.392 . S
C843 C844 1.391 . S
C843 C847 1.397 . S
C843 C899 1.419 . S
C844 C840 1.391 . S
C844 C843 1.391 . S
C844 C845 1.399 . S
C845 C844 1.399 . S
C845 C848 1.396 . S
C845 C857 1.453 . S
C845 C858 1.684 . S
H846 C870 0.948 . S
C847 C843 1.397 . S
C847 C848 1.394 . S
C847 C866 1.723 . S
C848 C845 1.396 . S
C848 C847 1.394 . S
C848 C878 1.723 . S
H849 C872 0.947 . S
H850 C873 0.948 . S
H851 C879 0.982 . S
H852 C880 0.979 . S
H853 C880 0.980 . S
H854 C880 0.983 . S
H855 C879 0.979 . S
H856 C879 0.977 . S
C857 C845 1.453 . S
C857 H886 0.982 . S
C857 H887 0.979 . S
C857 H888 0.977 . S
C858 C845 1.684 . S
C858 H883 0.979 . S
C858 H884 0.980 . S
C858 H885 0.983 . S
C859 C860 1.391 . S
C859 C864 1.391 . S
C859 H889 0.948 . S
C860 C859 1.391 . S
C860 C861 1.391 . S
C861 C860 1.391 . S
C861 C862 1.392 . S
C861 H890 0.947 . S
C862 C861 1.392 . S
C862 C863 1.419 . S
C862 H891 0.948 . S
C863 C862 1.419 . S
C863 C864 1.391 . S
C863 C867 1.397 . S
C864 C859 1.391 . S
C864 C863 1.391 . S
C864 C865 1.399 . S
C865 C864 1.399 . S
C865 C866 1.396 . S
C865 C868 1.453 . S
C865 C869 1.684 . S
C866 C847 1.723 . S
C866 C865 1.396 . S
C866 C867 1.394 . S
C867 C863 1.397 . S
C867 C866 1.394 . S
C867 C877 1.723 . S
C868 C865 1.453 . S
C868 H892 0.982 . S
C868 H893 0.979 . S
C868 H894 0.977 . S
C869 C865 1.684 . S
C869 H895 0.979 . S
C869 H896 0.980 . S
C869 H897 0.983 . S
C870 H846 0.948 . S
C870 C871 1.391 . S
C870 C875 1.391 . S
C871 C870 1.391 . S
C871 C872 1.391 . S
C872 H849 0.947 . S
C872 C871 1.391 . S
C872 C873 1.392 . S
C873 H850 0.948 . S
C873 C872 1.392 . S
C873 C874 1.419 . S
C874 C873 1.419 . S
C874 C875 1.391 . S
C874 C878 1.397 . S
C875 C870 1.391 . S
C875 C874 1.391 . S
C875 C876 1.399 . S
C876 C875 1.399 . S
C876 C877 1.396 . S
C876 C879 1.453 . S
C876 C880 1.684 . S
C877 C867 1.723 . S
C877 C876 1.396 . S
C877 C878 1.394 . S
C878 C848 1.723 . S
C878 C874 1.397 . S
C878 C877 1.394 . S
C879 H851 0.982 . S
C879 H855 0.979 . S
C879 H856 0.977 . S
C879 C876 1.453 . S
C880 H852 0.979 . S
C880 H853 0.980 . S
C880 H854 0.983 . S
C880 C876 1.684 . S
H881 C899 0.948 . S
H882 C840 0.948 . S
H883 C858 0.979 . S
H884 C858 0.980 . S
H885 C858 0.983 . S
H886 C857 0.982 . S
H887 C857 0.979 . S
H888 C857 0.977 . S
H889 C859 0.948 . S
H890 C861 0.947 . S
H891 C862 0.948 . S
H892 C868 0.982 . S
H893 C868 0.979 . S
H894 C868 0.977 . S
H895 C869 0.979 . S
H896 C869 0.980 . S
H897 C869 0.983 . S
H898 C842 0.947 . S
C899 C842 1.392 . S
C899 C843 1.419 . S
C899 H881 0.948 . S
C900 C901 1.391 1_545 S
C900 C904 1.391 . S
C900 H942 0.958 . S
C901 C900 1.391 1_565 S
C901 C902 1.391 . S
C902 C901 1.391 . S
C902 H958 0.947 . S
C902 C959 1.392 . S
C903 C904 1.391 . S
C903 C907 1.397 . S
C903 C959 1.419 1_545 S
C904 C900 1.391 . S
C904 C903 1.391 . S
C904 C905 1.399 . S
C905 C904 1.399 . S
C905 C908 1.396 . S
C905 C917 1.453 . S
C905 C918 1.684 1_556 S
H906 C930 0.958 . S
C907 C903 1.397 . S
C907 C908 1.394 . S
C907 C926 1.723 . S
C908 C905 1.396 . S
C908 C907 1.394 . S
C908 C938 1.723 . S
H909 C932 0.947 . S
H910 C933 0.948 . S
H911 C939 0.982 . S
H912 C940 0.979 . S
H913 C940 0.980 . S
H914 C940 0.983 . S
H915 C939 0.979 . S
H916 C939 0.977 . S
C917 C905 1.453 . S
C917 H946 0.982 . S
C917 H947 0.979 1_556 S
C917 H948 0.977 1_556 S
C918 C905 1.684 1_554 S
C918 H943 0.979 . S
C918 H944 0.980 . S
C918 H945 0.983 . S
C919 C920 1.391 . S
C919 C924 1.391 . S
C919 H949 0.948 . S
C920 C919 1.391 . S
C920 C921 1.391 . S
C921 C920 1.391 . S
C921 C922 1.392 . S
C921 H950 0.947 . S
C922 C921 1.392 . S
C922 C923 1.419 . S
C922 H951 0.948 . S
C923 C922 1.419 . S
C923 C924 1.391 . S
C923 C927 1.397 . S
C924 C919 1.391 . S
C924 C923 1.391 . S
C924 C925 1.399 . S
C925 C924 1.399 . S
C925 C926 1.396 . S
C925 C928 1.453 . S
C925 C929 1.684 1_545 S
C926 C907 1.723 . S
C926 C925 1.396 . S
C926 C927 1.394 . S
C927 C923 1.397 . S
C927 C926 1.394 . S
C927 C937 1.723 . S
C928 C925 1.453 . S
C928 H952 0.982 . S
C928 H953 0.979 . S
C928 H954 0.977 . S
C929 C925 1.684 1_565 S
C929 H955 0.979 . S
C929 H956 0.980 . S
C929 H957 0.983 . S
C930 H906 0.958 . S
C930 C931 1.391 . S
C930 C935 1.391 1_554 S
C931 C930 1.391 . S
C931 C932 1.391 . S
C932 H909 0.947 . S
C932 C931 1.391 . S
C932 C933 1.392 . S
C933 H910 0.948 . S
C933 C932 1.392 . S
C933 C934 1.419 1_554 S
C934 C933 1.419 1_556 S
C934 C935 1.391 . S
C934 C938 1.397 . S
C935 C930 1.391 1_556 S
C935 C934 1.391 . S
C935 C936 1.399 . S
C936 C935 1.399 . S
C936 C937 1.396 . S
C936 C939 1.453 . S
C936 C940 1.684 . S
C937 C927 1.723 . S
C937 C936 1.396 . S
C937 C938 1.394 . S
C938 C908 1.723 . S
C938 C934 1.397 . S
C938 C937 1.394 . S
C939 H911 0.982 . S
C939 H915 0.979 . S
C939 H916 0.977 . S
C939 C936 1.453 . S
C940 H912 0.979 . S
C940 H913 0.980 . S
C940 H914 0.983 . S
C940 C936 1.684 . S
H941 C959 0.948 . S
H942 C900 0.958 . S
H943 C918 0.979 . S
H944 C918 0.980 . S
H945 C918 0.983 . S
H946 C917 0.982 . S
H947 C917 0.979 1_554 S
H948 C917 0.977 1_554 S
H949 C919 0.948 . S
H950 C921 0.947 . S
H951 C922 0.948 . S
H952 C928 0.982 . S
H953 C928 0.979 . S
H954 C928 0.977 . S
H955 C929 0.979 . S
H956 C929 0.980 . S
H957 C929 0.983 . S
H958 C902 0.947 . S
C959 C902 1.392 . S
C959 C903 1.419 1_565 S
C959 H941 0.948 . S
Mn960 O965 2.095 . S
Mn960 O975 2.162 . S
Mn960 O976 2.297 . S
Mn960 O984 2.385 . S
Mn960 O985 2.209 1_554 S
Mn960 O986 2.094 . S
Mn961 O966 2.121 . S
Mn961 N968 2.257 . S
Mn961 N977 2.282 . S
Mn961 O985 2.215 . S
Mn961 O987 2.117 . S
C962 O984 1.234 1_556 S
C962 O985 1.283 . S
C963 O975 1.281 . S
C963 O976 1.236 . S
C964 O986 1.240 . S
C964 O987 1.264 1_554 S
O965 Mn960 2.095 . S
O965 C974 1.250 . S
O966 Mn961 2.121 . S
O966 C974 1.258 1_556 S
C967 N968 1.326 . S
C967 C971 1.460 . S
C967 H973 0.929 . S
N968 Mn961 2.257 . S
N968 C967 1.326 . S
N968 C972 1.362 . S
C969 C970 1.258 . S
C969 C972 1.431 . S
C969 C989 1.449 . S
C970 C969 1.258 . S
C970 C971 1.477 . S
C970 H990 0.931 . S
C971 C967 1.460 . S
C971 C970 1.477 . S
C971 H991 0.930 . S
C972 N968 1.362 . S
C972 C969 1.431 . S
C972 C982 1.476 . S
H973 C967 0.929 . S
C974 O965 1.250 . S
C974 O966 1.258 1_554 S
O975 Mn960 2.162 . S
O975 C963 1.281 . S
O976 Mn960 2.297 . S
O976 C963 1.236 . S
N977 Mn961 2.282 . S
N977 C978 1.328 . S
N977 C982 1.318 . S
C978 N977 1.328 . S
C978 C979 1.457 . S
C978 H983 0.929 . S
C979 C978 1.457 . S
C979 C980 1.291 . S
C979 H992 0.931 . S
C980 C979 1.291 . S
C980 C981 1.373 . S
C980 H993 0.929 . S
C981 C980 1.373 . S
C981 C982 1.396 . S
C981 C988 1.403 . S
C982 C972 1.476 . S
C982 N977 1.318 . S
C982 C981 1.396 . S
H983 C978 0.929 . S
O984 Mn960 2.385 . S
O984 C962 1.234 1_554 S
O985 Mn960 2.209 1_556 S
O985 Mn961 2.215 . S
O985 C962 1.283 . S
O986 Mn960 2.094 . S
O986 C964 1.240 . S
O987 Mn961 2.117 . S
O987 C964 1.264 1_556 S
C988 C981 1.403 . S
C988 C989 1.399 . S
C988 H994 0.929 . S
C989 C969 1.449 . S
C989 C988 1.399 . S
C989 H995 0.930 . S
H990 C970 0.931 . S
H991 C971 0.930 . S
H992 C979 0.931 . S
H993 C980 0.929 . S
H994 C988 0.929 . S
H995 C989 0.930 . S
Mn996 O1001 2.095 . S
Mn996 O1011 2.162 . S
Mn996 O1012 2.297 . S
Mn996 O1020 2.385 . S
Mn996 O1021 2.209 . S
Mn996 O1022 2.094 . S
Mn997 O1002 2.121 . S
Mn997 N1004 2.257 . S
Mn997 N1013 2.282 . S
Mn997 O1021 2.215 . S
Mn997 O1023 2.117 . S
C998 O1020 1.234 . S
C998 O1021 1.283 . S
C999 O1011 1.281 . S
C999 O1012 1.236 . S
C1000 O1022 1.240 . S
C1000 O1023 1.264 . S
O1001 Mn996 2.095 . S
O1001 C1010 1.250 . S
O1002 Mn997 2.121 . S
O1002 C1010 1.258 . S
C1003 N1004 1.326 . S
C1003 C1007 1.460 . S
C1003 H1009 0.929 . S
N1004 Mn997 2.257 . S
N1004 C1003 1.326 . S
N1004 C1008 1.362 . S
C1005 C1006 1.258 . S
C1005 C1008 1.431 . S
C1005 C1025 1.449 . S
C1006 C1005 1.258 . S
C1006 C1007 1.477 . S
C1006 H1026 0.931 . S
C1007 C1003 1.460 . S
C1007 C1006 1.477 . S
C1007 H1027 0.930 . S
C1008 N1004 1.362 . S
C1008 C1005 1.431 . S
C1008 C1018 1.476 . S
H1009 C1003 0.929 . S
C1010 O1001 1.250 . S
C1010 O1002 1.258 . S
O1011 Mn996 2.162 . S
O1011 C999 1.281 . S
O1012 Mn996 2.297 . S
O1012 C999 1.236 . S
N1013 Mn997 2.282 . S
N1013 C1014 1.328 . S
N1013 C1018 1.318 . S
C1014 N1013 1.328 . S
C1014 C1015 1.457 . S
C1014 H1019 0.929 . S
C1015 C1014 1.457 . S
C1015 C1016 1.291 . S
C1015 H1028 0.931 . S
C1016 C1015 1.291 . S
C1016 C1017 1.373 . S
C1016 H1029 0.929 . S
C1017 C1016 1.373 . S
C1017 C1018 1.396 . S
C1017 C1024 1.403 . S
C1018 C1008 1.476 . S
C1018 N1013 1.318 . S
C1018 C1017 1.396 . S
H1019 C1014 0.929 . S
O1020 Mn996 2.385 . S
O1020 C998 1.234 . S
O1021 Mn996 2.209 . S
O1021 Mn997 2.215 . S
O1021 C998 1.283 . S
O1022 Mn996 2.094 . S
O1022 C1000 1.240 . S
O1023 Mn997 2.117 . S
O1023 C1000 1.264 . S
C1024 C1017 1.403 . S
C1024 C1025 1.399 . S
C1024 H1030 0.929 . S
C1025 C1005 1.449 . S
C1025 C1024 1.399 . S
C1025 H1031 0.930 . S
H1026 C1006 0.931 . S
H1027 C1007 0.930 . S
H1028 C1015 0.931 . S
H1029 C1016 0.929 . S
H1030 C1024 0.929 . S
H1031 C1025 0.930 . S
Mn1032 O1037 2.095 1_554 S
Mn1032 O1047 2.162 . S
Mn1032 O1048 2.297 1_554 S
Mn1032 O1056 2.385 . S
Mn1032 O1057 2.209 1_554 S
Mn1032 O1058 2.094 . S
Mn1033 O1038 2.121 . S
Mn1033 N1040 2.257 . S
Mn1033 N1049 2.291 . S
Mn1033 O1057 2.215 . S
Mn1033 O1059 2.117 1_556 S
C1034 O1056 1.234 . S
C1034 O1057 1.283 1_554 S
C1035 O1047 1.281 . S
C1035 O1048 1.236 1_554 S
C1036 O1058 1.240 . S
C1036 O1059 1.264 . S
O1037 Mn1032 2.095 1_556 S
O1037 C1046 1.250 . S
O1038 Mn1033 2.121 . S
O1038 C1046 1.258 . S
C1039 N1040 1.326 . S
C1039 C1043 1.460 . S
C1039 H1045 0.929 . S
N1040 Mn1033 2.257 . S
N1040 C1039 1.326 . S
N1040 C1044 1.362 . S
C1041 C1042 1.258 . S
C1041 C1044 1.431 . S
C1041 C1061 1.449 . S
C1042 C1041 1.258 . S
C1042 C1043 1.477 . S
C1042 H1062 0.931 . S
C1043 C1039 1.460 . S
C1043 C1042 1.477 . S
C1043 H1063 0.930 . S
C1044 N1040 1.362 . S
C1044 C1041 1.431 . S
C1044 C1054 1.476 . S
H1045 C1039 0.929 . S
C1046 O1037 1.250 . S
C1046 O1038 1.258 . S
O1047 Mn1032 2.162 . S
O1047 C1035 1.281 . S
O1048 Mn1032 2.297 1_556 S
O1048 C1035 1.236 1_556 S
N1049 Mn1033 2.291 . S
N1049 C1050 1.304 1_556 S
N1049 C1054 1.333 . S
C1050 N1049 1.304 1_554 S
C1050 C1051 1.457 . S
C1050 H1055 0.929 . S
C1051 C1050 1.457 . S
C1051 C1052 1.291 . S
C1051 H1064 0.931 . S
C1052 C1051 1.291 . S
C1052 C1053 1.373 1_554 S
C1052 H1065 0.929 . S
C1053 C1052 1.373 1_556 S
C1053 C1054 1.396 . S
C1053 C1060 1.403 . S
C1054 C1044 1.476 . S
C1054 N1049 1.333 . S
C1054 C1053 1.396 . S
H1055 C1050 0.929 . S
O1056 Mn1032 2.385 . S
O1056 C1034 1.234 . S
O1057 Mn1032 2.209 1_556 S
O1057 Mn1033 2.215 . S
O1057 C1034 1.283 1_556 S
O1058 Mn1032 2.094 . S
O1058 C1036 1.240 . S
O1059 Mn1033 2.117 1_554 S
O1059 C1036 1.264 . S
C1060 C1053 1.403 . S
C1060 C1061 1.399 . S
C1060 H1066 0.929 . S
C1061 C1041 1.449 . S
C1061 C1060 1.399 . S
C1061 H1067 0.930 . S
H1062 C1042 0.931 . S
H1063 C1043 0.930 . S
H1064 C1051 0.931 . S
H1065 C1052 0.929 . S
H1066 C1060 0.929 . S
H1067 C1061 0.930 . S
Mn1068 O1073 2.095 . S
Mn1068 O1083 2.162 . S
Mn1068 O1084 2.297 . S
Mn1068 O1092 2.411 . S
Mn1068 O1093 2.209 1_545 S
Mn1068 O1094 2.094 . S
Mn1069 O1074 2.121 . S
Mn1069 N1076 2.257 . S
Mn1069 N1085 2.282 . S
Mn1069 O1093 2.215 . S
Mn1069 O1095 2.117 . S
C1070 O1092 1.184 1_565 S
C1070 O1093 1.283 . S
C1071 O1083 1.281 . S
C1071 O1084 1.236 . S
C1072 O1094 1.240 . S
C1072 O1095 1.264 1_545 S
O1073 Mn1068 2.095 . S
O1073 C1082 1.250 . S
O1074 Mn1069 2.121 . S
O1074 C1082 1.258 1_565 S
C1075 N1076 1.326 . S
C1075 C1079 1.460 . S
C1075 H1081 0.929 . S
N1076 Mn1069 2.257 . S
N1076 C1075 1.326 . S
N1076 C1080 1.362 . S
C1077 C1078 1.258 . S
C1077 C1080 1.431 . S
C1077 C1097 1.449 . S
C1078 C1077 1.258 . S
C1078 C1079 1.477 . S
C1078 H1098 0.931 . S
C1079 C1075 1.460 . S
C1079 C1078 1.477 . S
C1079 H1099 0.930 . S
C1080 N1076 1.362 . S
C1080 C1077 1.431 . S
C1080 C1090 1.476 . S
H1081 C1075 0.929 . S
C1082 O1073 1.250 . S
C1082 O1074 1.258 1_545 S
O1083 Mn1068 2.162 . S
O1083 C1071 1.281 . S
O1084 Mn1068 2.297 . S
O1084 C1071 1.236 . S
N1085 Mn1069 2.282 . S
N1085 C1086 1.328 . S
N1085 C1090 1.318 . S
C1086 N1085 1.328 . S
C1086 C1087 1.457 . S
C1086 H1091 0.929 . S
C1087 C1086 1.457 . S
C1087 C1088 1.291 . S
C1087 H1100 0.931 . S
C1088 C1087 1.291 . S
C1088 C1089 1.373 . S
C1088 H1101 0.929 . S
C1089 C1088 1.373 . S
C1089 C1090 1.396 . S
C1089 C1096 1.403 . S
C1090 C1080 1.476 . S
C1090 N1085 1.318 . S
C1090 C1089 1.396 . S
H1091 C1086 0.929 . S
O1092 Mn1068 2.411 . S
O1092 C1070 1.184 1_545 S
O1093 Mn1068 2.209 1_565 S
O1093 Mn1069 2.215 . S
O1093 C1070 1.283 . S
O1094 Mn1068 2.094 . S
O1094 C1072 1.240 . S
O1095 Mn1069 2.117 . S
O1095 C1072 1.264 1_565 S
C1096 C1089 1.403 . S
C1096 C1097 1.399 . S
C1096 H1102 0.929 . S
C1097 C1077 1.449 . S
C1097 C1096 1.399 . S
C1097 H1103 0.930 . S
H1098 C1078 0.931 . S
H1099 C1079 0.930 . S
H1100 C1087 0.931 . S
H1101 C1088 0.929 . S
H1102 C1096 0.929 . S
H1103 C1097 0.930 . S
Mn1104 O1109 2.095 . S
Mn1104 O1119 2.162 . S
Mn1104 O1120 2.297 . S
Mn1104 O1128 2.385 . S
Mn1104 O1129 2.209 . S
Mn1104 O1130 2.094 . S
Mn1105 O1110 2.121 . S
Mn1105 N1112 2.257 . S
Mn1105 N1121 2.282 . S
Mn1105 O1129 2.215 . S
Mn1105 O1131 2.117 . S
C1106 O1128 1.234 . S
C1106 O1129 1.283 . S
C1107 O1119 1.281 . S
C1107 O1120 1.236 . S
C1108 O1130 1.240 . S
C1108 O1131 1.264 . S
O1109 Mn1104 2.095 . S
O1109 C1118 1.250 . S
O1110 Mn1105 2.121 . S
O1110 C1118 1.258 . S
C1111 N1112 1.326 . S
C1111 C1115 1.460 . S
C1111 H1117 0.929 . S
N1112 Mn1105 2.257 . S
N1112 C1111 1.326 . S
N1112 C1116 1.362 . S
C1113 C1114 1.258 . S
C1113 C1116 1.431 . S
C1113 C1133 1.449 . S
C1114 C1113 1.258 . S
C1114 C1115 1.477 . S
C1114 H1134 0.931 . S
C1115 C1111 1.460 . S
C1115 C1114 1.477 . S
C1115 H1135 0.930 . S
C1116 N1112 1.362 . S
C1116 C1113 1.431 . S
C1116 C1126 1.476 . S
H1117 C1111 0.929 . S
C1118 O1109 1.250 . S
C1118 O1110 1.258 . S
O1119 Mn1104 2.162 . S
O1119 C1107 1.281 . S
O1120 Mn1104 2.297 . S
O1120 C1107 1.236 . S
N1121 Mn1105 2.282 . S
N1121 C1122 1.328 . S
N1121 C1126 1.318 . S
C1122 N1121 1.328 . S
C1122 C1123 1.457 . S
C1122 H1127 0.929 . S
C1123 C1122 1.457 . S
C1123 C1124 1.291 . S
C1123 H1136 0.931 . S
C1124 C1123 1.291 . S
C1124 C1125 1.373 . S
C1124 H1137 0.929 . S
C1125 C1124 1.373 . S
C1125 C1126 1.396 . S
C1125 C1132 1.403 . S
C1126 C1116 1.476 . S
C1126 N1121 1.318 . S
C1126 C1125 1.396 . S
H1127 C1122 0.929 . S
O1128 Mn1104 2.385 . S
O1128 C1106 1.234 . S
O1129 Mn1104 2.209 . S
O1129 Mn1105 2.215 . S
O1129 C1106 1.283 . S
O1130 Mn1104 2.094 . S
O1130 C1108 1.240 . S
O1131 Mn1105 2.117 . S
O1131 C1108 1.264 . S
C1132 C1125 1.403 . S
C1132 C1133 1.399 . S
C1132 H1138 0.929 . S
C1133 C1113 1.449 . S
C1133 C1132 1.399 . S
C1133 H1139 0.930 . S
H1134 C1114 0.931 . S
H1135 C1115 0.930 . S
H1136 C1123 0.931 . S
H1137 C1124 0.929 . S
H1138 C1132 0.929 . S
H1139 C1133 0.930 . S
Mn1140 O1145 2.095 . S
Mn1140 O1155 2.162 . S
Mn1140 O1156 2.297 . S
Mn1140 O1164 2.385 . S
Mn1140 O1165 2.209 . S
Mn1140 O1166 2.094 . S
Mn1141 O1146 2.121 . S
Mn1141 N1148 2.257 . S
Mn1141 N1157 2.282 . S
Mn1141 O1165 2.215 . S
Mn1141 O1167 2.117 . S
C1142 O1164 1.234 . S
C1142 O1165 1.283 . S
C1143 O1155 1.281 . S
C1143 O1156 1.236 . S
C1144 O1166 1.240 . S
C1144 O1167 1.264 . S
O1145 Mn1140 2.095 . S
O1145 C1154 1.250 . S
O1146 Mn1141 2.121 . S
O1146 C1154 1.258 . S
C1147 N1148 1.326 . S
C1147 C1151 1.460 . S
C1147 H1153 0.929 . S
N1148 Mn1141 2.257 . S
N1148 C1147 1.326 . S
N1148 C1152 1.362 . S
C1149 C1150 1.258 . S
C1149 C1152 1.431 . S
C1149 C1169 1.449 . S
C1150 C1149 1.258 . S
C1150 C1151 1.477 . S
C1150 H1170 0.931 . S
C1151 C1147 1.460 . S
C1151 C1150 1.477 . S
C1151 H1171 0.930 . S
C1152 N1148 1.362 . S
C1152 C1149 1.431 . S
C1152 C1162 1.476 . S
H1153 C1147 0.929 . S
C1154 O1145 1.250 . S
C1154 O1146 1.258 . S
O1155 Mn1140 2.162 . S
O1155 C1143 1.281 . S
O1156 Mn1140 2.297 . S
O1156 C1143 1.236 . S
N1157 Mn1141 2.282 . S
N1157 C1158 1.328 . S
N1157 C1162 1.318 . S
C1158 N1157 1.328 . S
C1158 C1159 1.457 . S
C1158 H1163 0.929 . S
C1159 C1158 1.457 . S
C1159 C1160 1.291 . S
C1159 H1172 0.931 . S
C1160 C1159 1.291 . S
C1160 C1161 1.373 . S
C1160 H1173 0.929 . S
C1161 C1160 1.373 . S
C1161 C1162 1.396 . S
C1161 C1168 1.403 . S
C1162 C1152 1.476 . S
C1162 N1157 1.318 . S
C1162 C1161 1.396 . S
H1163 C1158 0.929 . S
O1164 Mn1140 2.385 . S
O1164 C1142 1.234 . S
O1165 Mn1140 2.209 . S
O1165 Mn1141 2.215 . S
O1165 C1142 1.283 . S
O1166 Mn1140 2.094 . S
O1166 C1144 1.240 . S
O1167 Mn1141 2.117 . S
O1167 C1144 1.264 . S
C1168 C1161 1.403 . S
C1168 C1169 1.399 . S
C1168 H1174 0.929 . S
C1169 C1149 1.449 . S
C1169 C1168 1.399 . S
C1169 H1175 0.930 . S
H1170 C1150 0.931 . S
H1171 C1151 0.930 . S
H1172 C1159 0.931 . S
H1173 C1160 0.929 . S
H1174 C1168 0.929 . S
H1175 C1169 0.930 . S
Mn1176 O1181 2.095 . S
Mn1176 O1191 2.162 . S
Mn1176 O1192 2.297 . S
Mn1176 O1200 2.385 . S
Mn1176 O1201 2.209 . S
Mn1176 O1202 2.094 . S
Mn1177 O1182 2.121 . S
Mn1177 N1184 2.257 . S
Mn1177 N1193 2.282 . S
Mn1177 O1201 2.215 . S
Mn1177 O1203 2.117 . S
C1178 O1200 1.234 . S
C1178 O1201 1.283 . S
C1179 O1191 1.281 . S
C1179 O1192 1.236 . S
C1180 O1202 1.240 . S
C1180 O1203 1.264 . S
O1181 Mn1176 2.095 . S
O1181 C1190 1.250 . S
O1182 Mn1177 2.121 . S
O1182 C1190 1.258 . S
C1183 N1184 1.326 . S
C1183 C1187 1.460 . S
C1183 H1189 0.929 . S
N1184 Mn1177 2.257 . S
N1184 C1183 1.326 . S
N1184 C1188 1.362 . S
C1185 C1186 1.258 . S
C1185 C1188 1.431 . S
C1185 C1205 1.449 . S
C1186 C1185 1.258 . S
C1186 C1187 1.477 . S
C1186 H1206 0.931 . S
C1187 C1183 1.460 . S
C1187 C1186 1.477 . S
C1187 H1207 0.930 . S
C1188 N1184 1.362 . S
C1188 C1185 1.431 . S
C1188 C1198 1.476 . S
H1189 C1183 0.929 . S
C1190 O1181 1.250 . S
C1190 O1182 1.258 . S
O1191 Mn1176 2.162 . S
O1191 C1179 1.281 . S
O1192 Mn1176 2.297 . S
O1192 C1179 1.236 . S
N1193 Mn1177 2.282 . S
N1193 C1194 1.328 . S
N1193 C1198 1.318 . S
C1194 N1193 1.328 . S
C1194 C1195 1.457 . S
C1194 H1199 0.929 . S
C1195 C1194 1.457 . S
C1195 C1196 1.291 . S
C1195 H1208 0.931 . S
C1196 C1195 1.291 . S
C1196 C1197 1.373 . S
C1196 H1209 0.929 . S
C1197 C1196 1.373 . S
C1197 C1198 1.396 . S
C1197 C1204 1.403 . S
C1198 C1188 1.476 . S
C1198 N1193 1.318 . S
C1198 C1197 1.396 . S
H1199 C1194 0.929 . S
O1200 Mn1176 2.385 . S
O1200 C1178 1.234 . S
O1201 Mn1176 2.209 . S
O1201 Mn1177 2.215 . S
O1201 C1178 1.283 . S
O1202 Mn1176 2.094 . S
O1202 C1180 1.240 . S
O1203 Mn1177 2.117 . S
O1203 C1180 1.264 . S
C1204 C1197 1.403 . S
C1204 C1205 1.399 . S
C1204 H1210 0.929 . S
C1205 C1185 1.449 . S
C1205 C1204 1.399 . S
C1205 H1211 0.930 . S
H1206 C1186 0.931 . S
H1207 C1187 0.930 . S
H1208 C1195 0.931 . S
H1209 C1196 0.929 . S
H1210 C1204 0.929 . S
H1211 C1205 0.930 . S
Mn1212 O1217 2.095 . S
Mn1212 O1227 2.162 . S
Mn1212 O1228 2.297 . S
Mn1212 O1236 2.385 1_565 S
Mn1212 O1237 2.209 1_565 S
Mn1212 O1238 2.094 . S
Mn1213 O1218 2.121 . S
Mn1213 N1220 2.257 . S
Mn1213 N1229 2.282 . S
Mn1213 O1237 2.215 . S
Mn1213 O1239 2.117 . S
C1214 O1236 1.234 . S
C1214 O1237 1.283 . S
C1215 O1227 1.281 . S
C1215 O1228 1.236 . S
C1216 O1238 1.218 1_545 S
C1216 O1239 1.293 . S
O1217 Mn1212 2.095 . S
O1217 C1226 1.250 1_565 S
O1218 Mn1213 2.121 . S
O1218 C1226 1.258 . S
C1219 N1220 1.326 . S
C1219 C1223 1.460 . S
C1219 H1225 0.929 . S
N1220 Mn1213 2.257 . S
N1220 C1219 1.326 . S
N1220 C1224 1.362 . S
C1221 C1222 1.258 . S
C1221 C1224 1.431 . S
C1221 C1241 1.449 . S
C1222 C1221 1.258 . S
C1222 C1223 1.477 . S
C1222 H1242 0.931 . S
C1223 C1219 1.460 . S
C1223 C1222 1.477 . S
C1223 H1243 0.930 . S
C1224 N1220 1.362 . S
C1224 C1221 1.431 . S
C1224 C1234 1.476 . S
H1225 C1219 0.929 . S
C1226 O1217 1.250 1_545 S
C1226 O1218 1.258 . S
O1227 Mn1212 2.162 . S
O1227 C1215 1.281 . S
O1228 Mn1212 2.297 . S
O1228 C1215 1.236 . S
N1229 Mn1213 2.282 . S
N1229 C1230 1.328 . S
N1229 C1234 1.318 . S
C1230 N1229 1.328 . S
C1230 C1231 1.457 . S
C1230 H1235 0.929 . S
C1231 C1230 1.457 . S
C1231 C1232 1.291 . S
C1231 H1244 0.931 . S
C1232 C1231 1.291 . S
C1232 C1233 1.373 . S
C1232 H1245 0.929 . S
C1233 C1232 1.373 . S
C1233 C1234 1.396 . S
C1233 C1240 1.403 . S
C1234 C1224 1.476 . S
C1234 N1229 1.318 . S
C1234 C1233 1.396 . S
H1235 C1230 0.929 . S
O1236 Mn1212 2.385 1_545 S
O1236 C1214 1.234 . S
O1237 Mn1212 2.209 1_545 S
O1237 Mn1213 2.215 . S
O1237 C1214 1.283 . S
O1238 Mn1212 2.094 . S
O1238 C1216 1.218 1_565 S
O1239 Mn1213 2.117 . S
O1239 C1216 1.293 . S
C1240 C1233 1.403 . S
C1240 C1241 1.399 . S
C1240 H1246 0.929 . S
C1241 C1221 1.449 . S
C1241 C1240 1.399 . S
C1241 H1247 0.930 . S
H1242 C1222 0.931 . S
H1243 C1223 0.930 . S
H1244 C1231 0.931 . S
H1245 C1232 0.929 . S
H1246 C1240 0.929 . S
H1247 C1241 0.930 . S
Mn1248 O1253 2.095 . S
Mn1248 O1263 2.162 . S
Mn1248 O1264 2.297 . S
Mn1248 O1272 2.385 1_455 S
Mn1248 O1273 2.209 1_455 S
Mn1248 O1274 2.094 . S
Mn1249 O1254 2.121 . S
Mn1249 N1256 2.257 . S
Mn1249 N1265 2.282 . S
Mn1249 O1273 2.215 . S
Mn1249 O1275 2.117 . S
C1250 O1272 1.234 . S
C1250 O1273 1.283 . S
C1251 O1263 1.281 . S
C1251 O1264 1.236 . S
C1252 O1274 1.240 . S
C1252 O1275 1.264 1_455 S
O1253 Mn1248 2.095 . S
O1253 C1262 1.250 1_455 S
O1254 Mn1249 2.121 . S
O1254 C1262 1.258 . S
C1255 N1256 1.326 . S
C1255 C1259 1.460 . S
C1255 H1261 0.929 . S
N1256 Mn1249 2.257 . S
N1256 C1255 1.326 . S
N1256 C1260 1.362 . S
C1257 C1258 1.258 . S
C1257 C1260 1.431 . S
C1257 C1277 1.449 . S
C1258 C1257 1.258 . S
C1258 C1259 1.477 . S
C1258 H1278 0.931 . S
C1259 C1255 1.460 . S
C1259 C1258 1.477 . S
C1259 H1279 0.930 . S
C1260 N1256 1.362 . S
C1260 C1257 1.431 . S
C1260 C1270 1.476 . S
H1261 C1255 0.929 . S
C1262 O1253 1.250 1_655 S
C1262 O1254 1.258 . S
O1263 Mn1248 2.162 . S
O1263 C1251 1.281 . S
O1264 Mn1248 2.297 . S
O1264 C1251 1.236 . S
N1265 Mn1249 2.282 . S
N1265 C1266 1.328 . S
N1265 C1270 1.318 . S
C1266 N1265 1.328 . S
C1266 C1267 1.457 . S
C1266 H1271 0.929 . S
C1267 C1266 1.457 . S
C1267 C1268 1.291 . S
C1267 H1280 0.931 . S
C1268 C1267 1.291 . S
C1268 C1269 1.373 . S
C1268 H1281 0.929 . S
C1269 C1268 1.373 . S
C1269 C1270 1.396 . S
C1269 C1276 1.403 . S
C1270 C1260 1.476 . S
C1270 N1265 1.318 . S
C1270 C1269 1.396 . S
H1271 C1266 0.929 . S
O1272 Mn1248 2.385 1_655 S
O1272 C1250 1.234 . S
O1273 Mn1248 2.209 1_655 S
O1273 Mn1249 2.215 . S
O1273 C1250 1.283 . S
O1274 Mn1248 2.094 . S
O1274 C1252 1.240 . S
O1275 Mn1249 2.117 . S
O1275 C1252 1.264 1_655 S
C1276 C1269 1.403 . S
C1276 C1277 1.399 . S
C1276 H1282 0.929 . S
C1277 C1257 1.449 . S
C1277 C1276 1.399 . S
C1277 H1283 0.930 . S
H1278 C1258 0.931 . S
H1279 C1259 0.930 . S
H1280 C1267 0.931 . S
H1281 C1268 0.929 . S
H1282 C1276 0.929 . S
H1283 C1277 0.930 . S
Mn1284 O1289 2.095 . S
Mn1284 O1299 2.162 . S
Mn1284 O1300 2.297 . S
Mn1284 O1308 2.385 . S
Mn1284 O1309 2.209 . S
Mn1284 O1310 2.094 . S
Mn1285 O1290 2.121 . S
Mn1285 N1292 2.257 . S
Mn1285 N1301 2.282 . S
Mn1285 O1309 2.215 . S
Mn1285 O1311 2.117 . S
C1286 O1308 1.234 . S
C1286 O1309 1.283 . S
C1287 O1299 1.281 . S
C1287 O1300 1.236 . S
C1288 O1310 1.240 . S
C1288 O1311 1.264 . S
O1289 Mn1284 2.095 . S
O1289 C1298 1.250 . S
O1290 Mn1285 2.121 . S
O1290 C1298 1.258 . S
C1291 N1292 1.326 . S
C1291 C1295 1.460 . S
C1291 H1297 0.929 . S
N1292 Mn1285 2.257 . S
N1292 C1291 1.326 . S
N1292 C1296 1.362 . S
C1293 C1294 1.258 . S
C1293 C1296 1.431 . S
C1293 C1313 1.449 . S
C1294 C1293 1.258 . S
C1294 C1295 1.477 . S
C1294 H1314 0.931 . S
C1295 C1291 1.460 . S
C1295 C1294 1.477 . S
C1295 H1315 0.930 . S
C1296 N1292 1.362 . S
C1296 C1293 1.431 . S
C1296 C1306 1.476 . S
H1297 C1291 0.929 . S
C1298 O1289 1.250 . S
C1298 O1290 1.258 . S
O1299 Mn1284 2.162 . S
O1299 C1287 1.281 . S
O1300 Mn1284 2.297 . S
O1300 C1287 1.236 . S
N1301 Mn1285 2.282 . S
N1301 C1302 1.328 . S
N1301 C1306 1.318 . S
C1302 N1301 1.328 . S
C1302 C1303 1.457 . S
C1302 H1307 0.929 . S
C1303 C1302 1.457 . S
C1303 C1304 1.291 . S
C1303 H1316 0.931 . S
C1304 C1303 1.291 . S
C1304 C1305 1.373 . S
C1304 H1317 0.929 . S
C1305 C1304 1.373 . S
C1305 C1306 1.396 . S
C1305 C1312 1.403 . S
C1306 C1296 1.476 . S
C1306 N1301 1.318 . S
C1306 C1305 1.396 . S
H1307 C1302 0.929 . S
O1308 Mn1284 2.385 . S
O1308 C1286 1.234 . S
O1309 Mn1284 2.209 . S
O1309 Mn1285 2.215 . S
O1309 C1286 1.283 . S
O1310 Mn1284 2.094 . S
O1310 C1288 1.240 . S
O1311 Mn1285 2.117 . S
O1311 C1288 1.264 . S
C1312 C1305 1.403 . S
C1312 C1313 1.399 . S
C1312 H1318 0.929 . S
C1313 C1293 1.449 . S
C1313 C1312 1.399 . S
C1313 H1319 0.930 . S
H1314 C1294 0.931 . S
H1315 C1295 0.930 . S
H1316 C1303 0.931 . S
H1317 C1304 0.929 . S
H1318 C1312 0.929 . S
H1319 C1313 0.930 . S
Mn1320 O1325 2.095 1_455 S
Mn1320 O1335 2.162 . S
Mn1320 O1336 2.297 1_455 S
Mn1320 O1344 2.385 . S
Mn1320 O1345 2.209 1_455 S
Mn1320 O1346 2.094 . S
Mn1321 O1326 2.121 . S
Mn1321 N1328 2.257 . S
Mn1321 N1337 2.282 1_655 S
Mn1321 O1345 2.215 . S
Mn1321 O1347 2.117 1_655 S
C1322 O1344 1.234 . S
C1322 O1345 1.283 1_455 S
C1323 O1335 1.281 . S
C1323 O1336 1.236 1_455 S
C1324 O1346 1.240 . S
C1324 O1347 1.264 . S
O1325 Mn1320 2.095 1_655 S
O1325 C1334 1.250 . S
O1326 Mn1321 2.121 . S
O1326 C1334 1.258 . S
C1327 N1328 1.326 . S
C1327 C1331 1.460 . S
C1327 H1333 0.929 . S
N1328 Mn1321 2.257 . S
N1328 C1327 1.326 . S
N1328 C1332 1.362 . S
C1329 C1330 1.258 . S
C1329 C1332 1.431 . S
C1329 C1349 1.449 . S
C1330 C1329 1.258 . S
C1330 C1331 1.477 . S
C1330 H1350 0.931 . S
C1331 C1327 1.460 . S
C1331 C1330 1.477 . S
C1331 H1351 0.930 . S
C1332 N1328 1.362 . S
C1332 C1329 1.431 . S
C1332 C1342 1.476 . S
H1333 C1327 0.929 . S
C1334 O1325 1.250 . S
C1334 O1326 1.258 . S
O1335 Mn1320 2.162 . S
O1335 C1323 1.281 . S
O1336 Mn1320 2.297 1_655 S
O1336 C1323 1.236 1_655 S
N1337 Mn1321 2.282 1_455 S
N1337 C1338 1.328 . S
N1337 C1342 1.318 1_455 S
C1338 N1337 1.328 . S
C1338 C1339 1.457 . S
C1338 H1343 0.929 . S
C1339 C1338 1.457 . S
C1339 C1340 1.291 . S
C1339 H1352 0.931 . S
C1340 C1339 1.291 . S
C1340 C1341 1.373 1_455 S
C1340 H1353 0.929 . S
C1341 C1340 1.373 1_655 S
C1341 C1342 1.396 . S
C1341 C1348 1.403 . S
C1342 C1332 1.476 . S
C1342 N1337 1.318 1_655 S
C1342 C1341 1.396 . S
H1343 C1338 0.929 . S
O1344 Mn1320 2.385 . S
O1344 C1322 1.234 . S
O1345 Mn1320 2.209 1_655 S
O1345 Mn1321 2.215 . S
O1345 C1322 1.283 1_655 S
O1346 Mn1320 2.094 . S
O1346 C1324 1.240 . S
O1347 Mn1321 2.117 1_455 S
O1347 C1324 1.264 . S
C1348 C1341 1.403 . S
C1348 C1349 1.399 . S
C1348 H1354 0.929 . S
C1349 C1329 1.449 . S
C1349 C1348 1.399 . S
C1349 H1355 0.930 . S
H1350 C1330 0.931 . S
H1351 C1331 0.930 . S
H1352 C1339 0.931 . S
H1353 C1340 0.929 . S
H1354 C1348 0.929 . S
H1355 C1349 0.930 . S
Mn1356 O1361 2.095 . S
Mn1356 O1371 2.162 . S
Mn1356 O1372 2.297 . S
Mn1356 O1380 2.385 . S
Mn1356 O1381 2.209 . S
Mn1356 O1382 2.094 . S
Mn1357 O1362 2.121 . S
Mn1357 N1364 2.257 . S
Mn1357 N1373 2.282 . S
Mn1357 O1381 2.215 . S
Mn1357 O1383 2.117 . S
C1358 O1380 1.234 . S
C1358 O1381 1.283 . S
C1359 O1371 1.281 . S
C1359 O1372 1.236 . S
C1360 O1382 1.240 . S
C1360 O1383 1.264 . S
O1361 Mn1356 2.095 . S
O1361 C1370 1.250 . S
O1362 Mn1357 2.121 . S
O1362 C1370 1.258 . S
C1363 N1364 1.326 . S
C1363 C1367 1.460 . S
C1363 H1369 0.929 . S
N1364 Mn1357 2.257 . S
N1364 C1363 1.326 . S
N1364 C1368 1.362 . S
C1365 C1366 1.258 . S
C1365 C1368 1.431 . S
C1365 C1385 1.449 . S
C1366 C1365 1.258 . S
C1366 C1367 1.477 . S
C1366 H1386 0.931 . S
C1367 C1363 1.460 . S
C1367 C1366 1.477 . S
C1367 H1387 0.930 . S
C1368 N1364 1.362 . S
C1368 C1365 1.431 . S
C1368 C1378 1.476 . S
H1369 C1363 0.929 . S
C1370 O1361 1.250 . S
C1370 O1362 1.258 . S
O1371 Mn1356 2.162 . S
O1371 C1359 1.281 . S
O1372 Mn1356 2.297 . S
O1372 C1359 1.236 . S
N1373 Mn1357 2.282 . S
N1373 C1374 1.328 . S
N1373 C1378 1.318 . S
C1374 N1373 1.328 . S
C1374 C1375 1.457 . S
C1374 H1379 0.929 . S
C1375 C1374 1.457 . S
C1375 C1376 1.291 . S
C1375 H1388 0.931 . S
C1376 C1375 1.291 . S
C1376 C1377 1.373 . S
C1376 H1389 0.929 . S
C1377 C1376 1.373 . S
C1377 C1378 1.396 . S
C1377 C1384 1.403 . S
C1378 C1368 1.476 . S
C1378 N1373 1.318 . S
C1378 C1377 1.396 . S
H1379 C1374 0.929 . S
O1380 Mn1356 2.385 . S
O1380 C1358 1.234 . S
O1381 Mn1356 2.209 . S
O1381 Mn1357 2.215 . S
O1381 C1358 1.283 . S
O1382 Mn1356 2.094 . S
O1382 C1360 1.240 . S
O1383 Mn1357 2.117 . S
O1383 C1360 1.264 . S
C1384 C1377 1.403 . S
C1384 C1385 1.399 . S
C1384 H1390 0.929 . S
C1385 C1365 1.449 . S
C1385 C1384 1.399 . S
C1385 H1391 0.930 . S
H1386 C1366 0.931 . S
H1387 C1367 0.930 . S
H1388 C1375 0.931 . S
H1389 C1376 0.929 . S
H1390 C1384 0.929 . S
H1391 C1385 0.930 . S
H1392 C1410 0.951 . S
H1393 C1412 0.951 . S
H1394 C1414 0.950 . S
H1395 C1415 0.950 . S
H1396 C1417 0.950 . S
H1397 C1420 0.950 . S
H1398 C1421 0.950 . S
H1399 C1423 0.950 . S
H1400 C1424 0.950 . S
H1401 C1425 0.951 . S
H1402 C1427 0.951 . S
H1403 C1429 0.950 . S
H1404 C1430 0.950 . S
H1405 C1432 0.950 . S
H1406 C1435 0.950 . S
H1407 C1436 0.950 . S
H1408 C1438 0.950 . S
H1409 C1439 0.950 . S
C1410 H1392 0.951 . S
C1410 C1411 1.366 . S
C1410 C1412 1.388 . S
C1411 C1410 1.366 . S
C1411 C1415 1.385 . S
C1412 H1393 0.951 . S
C1412 C1410 1.388 . S
C1412 C1413 1.366 . S
C1413 C1412 1.366 . S
C1413 C1414 1.414 . S
C1413 C1416 1.499 . S
C1414 H1394 0.950 . S
C1414 C1413 1.414 . S
C1414 C1415 1.374 . S
C1415 H1395 0.950 . S
C1415 C1411 1.385 . S
C1415 C1414 1.374 . S
C1416 C1413 1.499 . S
C1416 C1417 1.373 . S
C1416 C1418 1.389 . S
C1417 H1396 0.950 . S
C1417 C1416 1.373 . S
C1417 C1433 1.377 . S
C1418 C1416 1.389 . S
C1418 C1419 1.524 . S
C1418 C1432 1.377 . S
C1419 C1418 1.524 . S
C1419 C1420 1.397 . S
C1419 C1424 1.363 . S
C1420 H1397 0.950 . S
C1420 C1419 1.397 . S
C1420 C1421 1.334 . S
C1421 H1398 0.950 . S
C1421 C1420 1.334 . S
C1421 C1422 1.287 . S
C1422 C1421 1.287 . S
C1422 C1423 1.524 . S
C1422 H1441 0.913 . S
C1423 H1399 0.950 . S
C1423 C1422 1.524 . S
C1423 C1424 1.415 . S
C1424 H1400 0.950 . S
C1424 C1419 1.363 . S
C1424 C1423 1.415 . S
C1425 H1401 0.951 . S
C1425 C1426 1.366 . S
C1425 C1427 1.388 . S
C1426 C1425 1.366 . S
C1426 C1430 1.385 . S
C1427 H1402 0.951 . S
C1427 C1425 1.388 . S
C1427 C1428 1.366 . S
C1428 C1427 1.366 . S
C1428 C1429 1.414 . S
C1428 C1431 1.499 . S
C1429 H1403 0.950 . S
C1429 C1428 1.414 . S
C1429 C1430 1.374 . S
C1430 H1404 0.950 . S
C1430 C1426 1.385 . S
C1430 C1429 1.374 . S
C1431 C1428 1.499 . S
C1431 C1432 1.373 . S
C1431 C1433 1.389 . S
C1432 H1405 0.950 . S
C1432 C1418 1.377 . S
C1432 C1431 1.373 . S
C1433 C1417 1.377 . S
C1433 C1431 1.389 . S
C1433 C1434 1.524 . S
C1434 C1433 1.524 . S
C1434 C1435 1.397 . S
C1434 C1439 1.363 . S
C1435 H1406 0.950 . S
C1435 C1434 1.397 . S
C1435 C1436 1.334 . S
C1436 H1407 0.950 . S
C1436 C1435 1.334 . S
C1436 C1437 1.287 . S
C1437 C1436 1.287 . S
C1437 C1438 1.524 . S
C1437 H1440 0.999 1_556 S
C1438 H1408 0.950 . S
C1438 C1437 1.524 . S
C1438 C1439 1.415 . S
C1439 H1409 0.950 . S
C1439 C1434 1.363 . S
C1439 C1438 1.415 . S
H1440 C1437 0.999 1_554 S
H1441 C1422 0.913 . S
H1442 C1460 0.951 . S
H1443 C1462 0.951 . S
H1444 C1464 0.950 . S
H1445 C1465 0.950 . S
H1446 C1467 0.950 . S
H1447 C1470 0.950 . S
H1448 C1471 0.950 . S
H1449 C1473 0.950 . S
H1450 C1474 0.950 . S
H1451 C1475 0.951 . S
H1452 C1477 0.951 . S
H1453 C1479 0.950 . S
H1454 C1480 0.950 . S
H1455 C1482 0.950 . S
H1456 C1485 0.950 . S
H1457 C1486 0.950 . S
H1458 C1488 0.950 . S
H1459 C1489 0.950 . S
C1460 H1442 0.951 . S
C1460 C1461 1.366 . S
C1460 C1462 1.388 . S
C1461 C1460 1.366 . S
C1461 C1465 1.385 . S
C1462 H1443 0.951 . S
C1462 C1460 1.388 . S
C1462 C1463 1.366 . S
C1463 C1462 1.366 . S
C1463 C1464 1.414 . S
C1463 C1466 1.499 . S
C1464 H1444 0.950 . S
C1464 C1463 1.414 . S
C1464 C1465 1.374 . S
C1465 H1445 0.950 . S
C1465 C1461 1.385 . S
C1465 C1464 1.374 . S
C1466 C1463 1.499 . S
C1466 C1467 1.373 . S
C1466 C1468 1.389 . S
C1467 H1446 0.950 . S
C1467 C1466 1.373 . S
C1467 C1483 1.377 . S
C1468 C1466 1.389 . S
C1468 C1469 1.524 . S
C1468 C1482 1.377 . S
C1469 C1468 1.524 . S
C1469 C1470 1.397 . S
C1469 C1474 1.363 . S
C1470 H1447 0.950 . S
C1470 C1469 1.397 . S
C1470 C1471 1.334 . S
C1471 H1448 0.950 . S
C1471 C1470 1.334 . S
C1471 C1472 1.287 . S
C1472 C1471 1.287 . S
C1472 C1473 1.524 . S
C1472 H1491 0.913 . S
C1473 H1449 0.950 . S
C1473 C1472 1.524 . S
C1473 C1474 1.415 . S
C1474 H1450 0.950 . S
C1474 C1469 1.363 . S
C1474 C1473 1.415 . S
C1475 H1451 0.951 . S
C1475 C1476 1.366 . S
C1475 C1477 1.388 . S
C1476 C1475 1.366 . S
C1476 C1480 1.385 . S
C1477 H1452 0.951 . S
C1477 C1475 1.388 . S
C1477 C1478 1.366 . S
C1478 C1477 1.366 . S
C1478 C1479 1.414 . S
C1478 C1481 1.499 . S
C1479 H1453 0.950 . S
C1479 C1478 1.414 . S
C1479 C1480 1.374 . S
C1480 H1454 0.950 . S
C1480 C1476 1.385 . S
C1480 C1479 1.374 . S
C1481 C1478 1.499 . S
C1481 C1482 1.373 . S
C1481 C1483 1.389 . S
C1482 H1455 0.950 . S
C1482 C1468 1.377 . S
C1482 C1481 1.373 . S
C1483 C1467 1.377 . S
C1483 C1481 1.389 . S
C1483 C1484 1.524 . S
C1484 C1483 1.524 . S
C1484 C1485 1.397 . S
C1484 C1489 1.363 . S
C1485 H1456 0.950 . S
C1485 C1484 1.397 . S
C1485 C1486 1.334 . S
C1486 H1457 0.950 . S
C1486 C1485 1.334 . S
C1486 C1487 1.287 . S
C1487 C1486 1.287 . S
C1487 C1488 1.524 . S
C1487 H1490 0.999 . S
C1488 H1458 0.950 . S
C1488 C1487 1.524 . S
C1488 C1489 1.415 . S
C1489 H1459 0.950 . S
C1489 C1484 1.363 . S
C1489 C1488 1.415 . S
H1490 C1487 0.999 . S
H1491 C1472 0.913 . S
H1492 C1510 0.951 . S
H1493 C1512 0.951 . S
H1494 C1514 0.950 . S
H1495 C1515 0.950 . S
H1496 C1517 0.950 . S
H1497 C1520 0.950 . S
H1498 C1521 0.950 . S
H1499 C1523 0.950 . S
H1500 C1524 0.950 . S
H1501 C1525 0.951 . S
H1502 C1527 0.951 . S
H1503 C1529 0.950 . S
H1504 C1530 0.950 . S
H1505 C1532 0.950 . S
H1506 C1535 0.950 . S
H1507 C1536 0.950 . S
H1508 C1538 0.950 . S
H1509 C1539 0.950 . S
C1510 H1492 0.951 . S
C1510 C1511 1.366 . S
C1510 C1512 1.388 . S
C1511 C1510 1.366 . S
C1511 C1515 1.385 . S
C1512 H1493 0.951 . S
C1512 C1510 1.388 . S
C1512 C1513 1.366 . S
C1513 C1512 1.366 . S
C1513 C1514 1.414 . S
C1513 C1516 1.499 . S
C1514 H1494 0.950 . S
C1514 C1513 1.414 . S
C1514 C1515 1.374 . S
C1515 H1495 0.950 . S
C1515 C1511 1.385 . S
C1515 C1514 1.374 . S
C1516 C1513 1.499 . S
C1516 C1517 1.373 . S
C1516 C1518 1.389 . S
C1517 H1496 0.950 . S
C1517 C1516 1.373 . S
C1517 C1533 1.377 . S
C1518 C1516 1.389 . S
C1518 C1519 1.524 . S
C1518 C1532 1.377 . S
C1519 C1518 1.524 . S
C1519 C1520 1.397 . S
C1519 C1524 1.363 . S
C1520 H1497 0.950 . S
C1520 C1519 1.397 . S
C1520 C1521 1.334 . S
C1521 H1498 0.950 . S
C1521 C1520 1.334 . S
C1521 C1522 1.287 . S
C1522 C1521 1.287 . S
C1522 C1523 1.524 . S
C1522 H1541 0.913 . S
C1523 H1499 0.950 . S
C1523 C1522 1.524 . S
C1523 C1524 1.415 . S
C1524 H1500 0.950 . S
C1524 C1519 1.363 . S
C1524 C1523 1.415 . S
C1525 H1501 0.951 . S
C1525 C1526 1.366 . S
C1525 C1527 1.388 . S
C1526 C1525 1.366 . S
C1526 C1530 1.385 . S
C1527 H1502 0.951 . S
C1527 C1525 1.388 . S
C1527 C1528 1.366 . S
C1528 C1527 1.366 . S
C1528 C1529 1.414 . S
C1528 C1531 1.499 . S
C1529 H1503 0.950 . S
C1529 C1528 1.414 . S
C1529 C1530 1.374 . S
C1530 H1504 0.950 . S
C1530 C1526 1.385 . S
C1530 C1529 1.374 . S
C1531 C1528 1.499 . S
C1531 C1532 1.373 . S
C1531 C1533 1.389 . S
C1532 H1505 0.950 . S
C1532 C1518 1.377 . S
C1532 C1531 1.373 . S
C1533 C1517 1.377 . S
C1533 C1531 1.389 . S
C1533 C1534 1.524 . S
C1534 C1533 1.524 . S
C1534 C1535 1.397 . S
C1534 C1539 1.363 . S
C1535 H1506 0.950 . S
C1535 C1534 1.397 . S
C1535 C1536 1.334 . S
C1536 H1507 0.950 . S
C1536 C1535 1.334 . S
C1536 C1537 1.287 . S
C1537 C1536 1.287 . S
C1537 C1538 1.524 . S
C1537 H1540 0.999 . S
C1538 H1508 0.950 . S
C1538 C1537 1.524 . S
C1538 C1539 1.415 . S
C1539 H1509 0.950 . S
C1539 C1534 1.363 . S
C1539 C1538 1.415 . S
H1540 C1537 0.999 . S
H1541 C1522 0.913 . S
H1542 C1560 0.896 1_455 S
H1543 C1562 0.951 . S
H1544 C1564 0.950 . S
H1545 C1565 0.950 . S
H1546 C1567 0.950 . S
H1547 C1570 0.950 . S
H1548 C1571 0.950 . S
H1549 C1573 0.950 . S
H1550 C1574 0.950 . S
H1551 C1575 0.955 . S
H1552 C1577 0.951 . S
H1553 C1579 0.951 . S
H1554 C1580 0.950 . S
H1555 C1582 0.950 . S
H1556 C1585 0.950 . S
H1557 C1586 0.950 . S
H1558 C1588 0.950 . S
H1559 C1589 0.950 . S
C1560 H1542 0.896 1_655 S
C1560 C1561 1.366 . S
C1560 C1562 1.388 . S
C1561 C1560 1.366 . S
C1561 C1565 1.385 . S
C1562 H1543 0.951 . S
C1562 C1560 1.388 . S
C1562 C1563 1.366 . S
C1563 C1562 1.366 . S
C1563 C1564 1.414 . S
C1563 C1566 1.499 . S
C1564 H1544 0.950 . S
C1564 C1563 1.414 . S
C1564 C1565 1.374 . S
C1565 H1545 0.950 . S
C1565 C1561 1.385 . S
C1565 C1564 1.374 . S
C1566 C1563 1.499 . S
C1566 C1567 1.373 . S
C1566 C1568 1.389 1_565 S
C1567 H1546 0.950 . S
C1567 C1566 1.373 . S
C1567 C1583 1.377 . S
C1568 C1566 1.389 1_545 S
C1568 C1569 1.524 . S
C1568 C1582 1.377 . S
C1569 C1568 1.524 . S
C1569 C1570 1.397 . S
C1569 C1574 1.363 . S
C1570 H1547 0.950 . S
C1570 C1569 1.397 . S
C1570 C1571 1.334 . S
C1571 H1548 0.950 . S
C1571 C1570 1.334 . S
C1571 C1572 1.287 . S
C1572 C1571 1.287 . S
C1572 C1573 1.524 . S
C1572 H1591 0.913 . S
C1573 H1549 0.950 . S
C1573 C1572 1.524 . S
C1573 C1574 1.415 . S
C1574 H1550 0.950 . S
C1574 C1569 1.363 . S
C1574 C1573 1.415 . S
C1575 H1551 0.955 . S
C1575 C1576 1.374 . S
C1575 C1577 1.379 1_545 S
C1576 C1575 1.374 . S
C1576 C1580 1.385 . S
C1577 H1552 0.951 . S
C1577 C1575 1.379 1_565 S
C1577 C1578 1.366 . S
C1578 C1577 1.366 . S
C1578 C1579 1.413 1_565 S
C1578 C1581 1.499 . S
C1579 H1553 0.951 . S
C1579 C1578 1.413 1_545 S
C1579 C1580 1.374 . S
C1580 H1554 0.950 . S
C1580 C1576 1.385 . S
C1580 C1579 1.374 . S
C1581 C1578 1.499 . S
C1581 C1582 1.373 1_565 S
C1581 C1583 1.389 . S
C1582 H1555 0.950 . S
C1582 C1568 1.377 . S
C1582 C1581 1.373 1_545 S
C1583 C1567 1.377 . S
C1583 C1581 1.389 . S
C1583 C1584 1.524 . S
C1584 C1583 1.524 . S
C1584 C1585 1.397 . S
C1584 C1589 1.363 . S
C1585 H1556 0.950 . S
C1585 C1584 1.397 . S
C1585 C1586 1.334 . S
C1586 H1557 0.950 . S
C1586 C1585 1.334 . S
C1586 C1587 1.287 . S
C1587 C1586 1.287 . S
C1587 C1588 1.524 . S
C1587 H1590 0.999 . S
C1588 H1558 0.950 . S
C1588 C1587 1.524 . S
C1588 C1589 1.415 . S
C1589 H1559 0.950 . S
C1589 C1584 1.363 . S
C1589 C1588 1.415 . S
H1590 C1587 0.999 . S
H1591 C1572 0.913 . S
H1592 C1610 0.951 . S
H1593 C1612 0.951 . S
H1594 C1614 0.950 . S
H1595 C1615 0.950 . S
H1596 C1617 0.950 . S
H1597 C1620 0.950 . S
H1598 C1621 0.950 . S
H1599 C1623 0.950 . S
H1600 C1624 0.950 . S
H1601 C1625 0.951 . S
H1602 C1627 0.951 . S
H1603 C1629 0.950 . S
H1604 C1630 0.950 . S
H1605 C1632 0.950 . S
H1606 C1635 0.950 . S
H1607 C1636 0.950 . S
H1608 C1638 0.950 . S
H1609 C1639 0.950 . S
C1610 H1592 0.951 . S
C1610 C1611 1.366 . S
C1610 C1612 1.388 . S
C1611 C1610 1.366 . S
C1611 C1615 1.385 . S
C1612 H1593 0.951 . S
C1612 C1610 1.388 . S
C1612 C1613 1.366 . S
C1613 C1612 1.366 . S
C1613 C1614 1.414 . S
C1613 C1616 1.499 . S
C1614 H1594 0.950 . S
C1614 C1613 1.414 . S
C1614 C1615 1.374 . S
C1615 H1595 0.950 . S
C1615 C1611 1.385 . S
C1615 C1614 1.374 . S
C1616 C1613 1.499 . S
C1616 C1617 1.373 . S
C1616 C1618 1.389 . S
C1617 H1596 0.950 . S
C1617 C1616 1.373 . S
C1617 C1633 1.377 . S
C1618 C1616 1.389 . S
C1618 C1619 1.524 . S
C1618 C1632 1.377 . S
C1619 C1618 1.524 . S
C1619 C1620 1.397 . S
C1619 C1624 1.363 . S
C1620 H1597 0.950 . S
C1620 C1619 1.397 . S
C1620 C1621 1.334 . S
C1621 H1598 0.950 . S
C1621 C1620 1.334 . S
C1621 C1622 1.287 . S
C1622 C1621 1.287 . S
C1622 C1623 1.524 . S
C1622 H1641 0.913 . S
C1623 H1599 0.950 . S
C1623 C1622 1.524 . S
C1623 C1624 1.415 . S
C1624 H1600 0.950 . S
C1624 C1619 1.363 . S
C1624 C1623 1.415 . S
C1625 H1601 0.951 . S
C1625 C1626 1.366 . S
C1625 C1627 1.388 . S
C1626 C1625 1.366 . S
C1626 C1630 1.385 . S
C1627 H1602 0.951 . S
C1627 C1625 1.388 . S
C1627 C1628 1.366 . S
C1628 C1627 1.366 . S
C1628 C1629 1.414 . S
C1628 C1631 1.499 . S
C1629 H1603 0.950 . S
C1629 C1628 1.414 . S
C1629 C1630 1.374 . S
C1630 H1604 0.950 . S
C1630 C1626 1.385 . S
C1630 C1629 1.374 . S
C1631 C1628 1.499 . S
C1631 C1632 1.373 . S
C1631 C1633 1.389 . S
C1632 H1605 0.950 . S
C1632 C1618 1.377 . S
C1632 C1631 1.373 . S
C1633 C1617 1.377 . S
C1633 C1631 1.389 . S
C1633 C1634 1.524 . S
C1634 C1633 1.524 . S
C1634 C1635 1.397 . S
C1634 C1639 1.363 . S
C1635 H1606 0.950 . S
C1635 C1634 1.397 . S
C1635 C1636 1.334 . S
C1636 H1607 0.950 . S
C1636 C1635 1.334 . S
C1636 C1637 1.287 . S
C1637 C1636 1.287 . S
C1637 C1638 1.524 . S
C1637 H1640 0.999 . S
C1638 H1608 0.950 . S
C1638 C1637 1.524 . S
C1638 C1639 1.415 . S
C1639 H1609 0.950 . S
C1639 C1634 1.363 . S
C1639 C1638 1.415 . S
H1640 C1637 0.999 . S
H1641 C1622 0.913 . S
H1642 C1660 0.951 . S
H1643 C1662 0.951 . S
H1644 C1664 0.950 . S
H1645 C1665 0.950 . S
H1646 C1667 0.950 . S
H1647 C1670 0.950 . S
H1648 C1671 0.950 . S
H1649 C1673 0.950 . S
H1650 C1674 0.950 . S
H1651 C1675 0.951 . S
H1652 C1677 0.951 . S
H1653 C1679 0.950 . S
H1654 C1680 0.950 . S
H1655 C1682 0.950 . S
H1656 C1685 0.950 . S
H1657 C1686 0.950 . S
H1658 C1688 0.950 . S
H1659 C1689 0.950 . S
C1660 H1642 0.951 . S
C1660 C1661 1.366 . S
C1660 C1662 1.388 . S
C1661 C1660 1.366 . S
C1661 C1665 1.385 . S
C1662 H1643 0.951 . S
C1662 C1660 1.388 . S
C1662 C1663 1.366 . S
C1663 C1662 1.366 . S
C1663 C1664 1.414 . S
C1663 C1666 1.499 . S
C1664 H1644 0.950 . S
C1664 C1663 1.414 . S
C1664 C1665 1.374 . S
C1665 H1645 0.950 . S
C1665 C1661 1.385 . S
C1665 C1664 1.374 . S
C1666 C1663 1.499 . S
C1666 C1667 1.373 . S
C1666 C1668 1.389 . S
C1667 H1646 0.950 . S
C1667 C1666 1.373 . S
C1667 C1683 1.377 . S
C1668 C1666 1.389 . S
C1668 C1669 1.524 . S
C1668 C1682 1.377 . S
C1669 C1668 1.524 . S
C1669 C1670 1.397 . S
C1669 C1674 1.363 . S
C1670 H1647 0.950 . S
C1670 C1669 1.397 . S
C1670 C1671 1.334 . S
C1671 H1648 0.950 . S
C1671 C1670 1.334 . S
C1671 C1672 1.287 . S
C1672 C1671 1.287 . S
C1672 C1673 1.524 . S
C1672 H1691 0.913 . S
C1673 H1649 0.950 . S
C1673 C1672 1.524 . S
C1673 C1674 1.415 . S
C1674 H1650 0.950 . S
C1674 C1669 1.363 . S
C1674 C1673 1.415 . S
C1675 H1651 0.951 . S
C1675 C1676 1.366 . S
C1675 C1677 1.388 . S
C1676 C1675 1.366 . S
C1676 C1680 1.385 . S
C1677 H1652 0.951 . S
C1677 C1675 1.388 . S
C1677 C1678 1.366 . S
C1678 C1677 1.366 . S
C1678 C1679 1.414 . S
C1678 C1681 1.499 . S
C1679 H1653 0.950 . S
C1679 C1678 1.414 . S
C1679 C1680 1.374 . S
C1680 H1654 0.950 . S
C1680 C1676 1.385 . S
C1680 C1679 1.374 . S
C1681 C1678 1.499 . S
C1681 C1682 1.373 . S
C1681 C1683 1.389 . S
C1682 H1655 0.950 . S
C1682 C1668 1.377 . S
C1682 C1681 1.373 . S
C1683 C1667 1.377 . S
C1683 C1681 1.389 . S
C1683 C1684 1.524 . S
C1684 C1683 1.524 . S
C1684 C1685 1.397 . S
C1684 C1689 1.363 . S
C1685 H1656 0.950 . S
C1685 C1684 1.397 . S
C1685 C1686 1.334 . S
C1686 H1657 0.950 . S
C1686 C1685 1.334 . S
C1686 C1687 1.287 . S
C1687 C1686 1.287 . S
C1687 C1688 1.524 . S
C1687 H1690 0.999 . S
C1688 H1658 0.950 . S
C1688 C1687 1.524 . S
C1688 C1689 1.415 . S
C1689 H1659 0.950 . S
C1689 C1684 1.363 . S
C1689 C1688 1.415 . S
H1690 C1687 0.999 . S
H1691 C1672 0.913 . S
H1692 C1710 0.951 . S
H1693 C1712 0.951 . S
H1694 C1714 0.950 . S
H1695 C1715 0.950 . S
H1696 C1717 0.950 . S
H1697 C1720 0.950 . S
H1698 C1721 0.950 . S
H1699 C1723 0.950 . S
H1700 C1724 0.950 . S
H1701 C1725 0.951 . S
H1702 C1727 0.951 . S
H1703 C1729 0.950 . S
H1704 C1730 0.950 . S
H1705 C1732 0.950 . S
H1706 C1735 0.950 . S
H1707 C1736 0.950 . S
H1708 C1738 0.950 . S
H1709 C1739 0.950 . S
C1710 H1692 0.951 . S
C1710 C1711 1.366 . S
C1710 C1712 1.388 . S
C1711 C1710 1.366 . S
C1711 C1715 1.385 . S
C1712 H1693 0.951 . S
C1712 C1710 1.388 . S
C1712 C1713 1.366 . S
C1713 C1712 1.366 . S
C1713 C1714 1.414 . S
C1713 C1716 1.499 . S
C1714 H1694 0.950 . S
C1714 C1713 1.414 . S
C1714 C1715 1.374 . S
C1715 H1695 0.950 . S
C1715 C1711 1.385 . S
C1715 C1714 1.374 . S
C1716 C1713 1.499 . S
C1716 C1717 1.373 . S
C1716 C1718 1.389 . S
C1717 H1696 0.950 . S
C1717 C1716 1.373 . S
C1717 C1733 1.377 . S
C1718 C1716 1.389 . S
C1718 C1719 1.524 . S
C1718 C1732 1.377 . S
C1719 C1718 1.524 . S
C1719 C1720 1.397 . S
C1719 C1724 1.363 . S
C1720 H1697 0.950 . S
C1720 C1719 1.397 . S
C1720 C1721 1.334 . S
C1721 H1698 0.950 . S
C1721 C1720 1.334 . S
C1721 C1722 1.287 . S
C1722 C1721 1.287 . S
C1722 C1723 1.524 . S
C1722 H1741 0.913 . S
C1723 H1699 0.950 . S
C1723 C1722 1.524 . S
C1723 C1724 1.415 . S
C1724 H1700 0.950 . S
C1724 C1719 1.363 . S
C1724 C1723 1.415 . S
C1725 H1701 0.951 . S
C1725 C1726 1.366 . S
C1725 C1727 1.388 . S
C1726 C1725 1.366 . S
C1726 C1730 1.385 . S
C1727 H1702 0.951 . S
C1727 C1725 1.388 . S
C1727 C1728 1.366 . S
C1728 C1727 1.366 . S
C1728 C1729 1.414 . S
C1728 C1731 1.499 . S
C1729 H1703 0.950 . S
C1729 C1728 1.414 . S
C1729 C1730 1.374 . S
C1730 H1704 0.950 . S
C1730 C1726 1.385 . S
C1730 C1729 1.374 . S
C1731 C1728 1.499 . S
C1731 C1732 1.373 . S
C1731 C1733 1.389 . S
C1732 H1705 0.950 . S
C1732 C1718 1.377 . S
C1732 C1731 1.373 . S
C1733 C1717 1.377 . S
C1733 C1731 1.389 . S
C1733 C1734 1.524 . S
C1734 C1733 1.524 . S
C1734 C1735 1.397 . S
C1734 C1739 1.363 . S
C1735 H1706 0.950 . S
C1735 C1734 1.397 . S
C1735 C1736 1.334 . S
C1736 H1707 0.950 . S
C1736 C1735 1.334 . S
C1736 C1737 1.287 . S
C1737 C1736 1.287 . S
C1737 C1738 1.524 . S
C1737 H1740 0.999 . S
C1738 H1708 0.950 . S
C1738 C1737 1.524 . S
C1738 C1739 1.415 . S
C1739 H1709 0.950 . S
C1739 C1734 1.363 . S
C1739 C1738 1.415 . S
H1740 C1737 0.999 . S
H1741 C1722 0.913 . S
H1742 C1760 0.951 . S
H1743 C1762 0.951 . S
H1744 C1764 0.950 . S
H1745 C1765 0.950 . S
H1746 C1767 0.973 . S
H1747 C1770 0.950 . S
H1748 C1771 0.950 . S
H1749 C1773 0.950 . S
H1750 C1774 0.950 . S
H1751 C1775 0.952 1_545 S
H1752 C1777 0.947 1_545 S
H1753 C1779 0.950 . S
H1754 C1780 0.950 . S
H1755 C1782 0.950 . S
H1756 C1785 0.950 . S
H1757 C1786 0.950 . S
H1758 C1788 0.950 . S
H1759 C1789 0.950 . S
C1760 H1742 0.951 . S
C1760 C1761 1.366 . S
C1760 C1762 1.388 . S
C1761 C1760 1.366 . S
C1761 C1765 1.385 . S
C1762 H1743 0.951 . S
C1762 C1760 1.388 . S
C1762 C1763 1.366 . S
C1763 C1762 1.366 . S
C1763 C1764 1.414 . S
C1763 C1766 1.499 . S
C1764 H1744 0.950 . S
C1764 C1763 1.414 . S
C1764 C1765 1.374 . S
C1765 H1745 0.950 . S
C1765 C1761 1.385 . S
C1765 C1764 1.374 . S
C1766 C1763 1.499 . S
C1766 C1767 1.346 1_565 S
C1766 C1768 1.389 . S
C1767 H1746 0.973 . S
C1767 C1766 1.346 1_545 S
C1767 C1783 1.381 . S
C1768 C1766 1.389 . S
C1768 C1769 1.524 . S
C1768 C1782 1.377 . S
C1769 C1768 1.524 . S
C1769 C1770 1.397 . S
C1769 C1774 1.363 . S
C1770 H1747 0.950 . S
C1770 C1769 1.397 . S
C1770 C1771 1.334 . S
C1771 H1748 0.950 . S
C1771 C1770 1.334 . S
C1771 C1772 1.287 . S
C1772 C1771 1.287 . S
C1772 C1773 1.524 . S
C1772 H1791 0.913 . S
C1773 H1749 0.950 . S
C1773 C1772 1.524 . S
C1773 C1774 1.415 . S
C1774 H1750 0.950 . S
C1774 C1769 1.363 . S
C1774 C1773 1.415 . S
C1775 H1751 0.952 1_565 S
C1775 C1776 1.365 . S
C1775 C1777 1.388 . S
C1776 C1775 1.365 . S
C1776 C1780 1.385 . S
C1777 H1752 0.947 1_565 S
C1777 C1775 1.388 . S
C1777 C1778 1.366 . S
C1778 C1777 1.366 . S
C1778 C1779 1.414 . S
C1778 C1781 1.499 . S
C1779 H1753 0.950 . S
C1779 C1778 1.414 . S
C1779 C1780 1.374 . S
C1780 H1754 0.950 . S
C1780 C1776 1.385 . S
C1780 C1779 1.374 . S
C1781 C1778 1.499 . S
C1781 C1782 1.373 . S
C1781 C1783 1.389 1_565 S
C1782 H1755 0.950 . S
C1782 C1768 1.377 . S
C1782 C1781 1.373 . S
C1783 C1767 1.381 . S
C1783 C1781 1.389 1_545 S
C1783 C1784 1.524 . S
C1784 C1783 1.524 . S
C1784 C1785 1.397 . S
C1784 C1789 1.363 . S
C1785 H1756 0.950 . S
C1785 C1784 1.397 . S
C1785 C1786 1.334 . S
C1786 H1757 0.950 . S
C1786 C1785 1.334 . S
C1786 C1787 1.287 . S
C1787 C1786 1.287 . S
C1787 C1788 1.524 . S
C1787 H1790 0.999 . S
C1788 H1758 0.950 . S
C1788 C1787 1.524 . S
C1788 C1789 1.415 . S
C1789 H1759 0.950 . S
C1789 C1784 1.363 . S
C1789 C1788 1.415 . S
H1790 C1787 0.999 . S
H1791 C1772 0.913 . S
H1792 C1810 0.951 . S
H1793 C1812 0.951 . S
H1794 C1814 0.950 . S
H1795 C1815 0.950 . S
H1796 C1817 0.950 . S
H1797 C1820 0.950 . S
H1798 C1821 0.950 . S
H1799 C1823 0.950 . S
H1800 C1824 0.950 . S
H1801 C1825 0.951 . S
H1802 C1827 0.951 . S
H1803 C1829 0.950 . S
H1804 C1830 0.950 . S
H1805 C1832 0.950 . S
H1806 C1835 0.950 . S
H1807 C1836 0.950 . S
H1808 C1838 0.950 . S
H1809 C1839 0.950 . S
C1810 H1792 0.951 . S
C1810 C1811 1.366 . S
C1810 C1812 1.388 . S
C1811 C1810 1.366 . S
C1811 C1815 1.385 . S
C1812 H1793 0.951 . S
C1812 C1810 1.388 . S
C1812 C1813 1.366 . S
C1813 C1812 1.366 . S
C1813 C1814 1.414 . S
C1813 C1816 1.499 . S
C1814 H1794 0.950 . S
C1814 C1813 1.414 . S
C1814 C1815 1.374 . S
C1815 H1795 0.950 . S
C1815 C1811 1.385 . S
C1815 C1814 1.374 . S
C1816 C1813 1.499 . S
C1816 C1817 1.373 . S
C1816 C1818 1.389 . S
C1817 H1796 0.950 . S
C1817 C1816 1.373 . S
C1817 C1833 1.377 . S
C1818 C1816 1.389 . S
C1818 C1819 1.524 . S
C1818 C1832 1.377 . S
C1819 C1818 1.524 . S
C1819 C1820 1.397 . S
C1819 C1824 1.363 . S
C1820 H1797 0.950 . S
C1820 C1819 1.397 . S
C1820 C1821 1.334 . S
C1821 H1798 0.950 . S
C1821 C1820 1.334 . S
C1821 C1822 1.287 . S
C1822 C1821 1.287 . S
C1822 C1823 1.524 . S
C1822 H1841 0.913 . S
C1823 H1799 0.950 . S
C1823 C1822 1.524 . S
C1823 C1824 1.415 . S
C1824 H1800 0.950 . S
C1824 C1819 1.363 . S
C1824 C1823 1.415 . S
C1825 H1801 0.951 . S
C1825 C1826 1.366 . S
C1825 C1827 1.388 . S
C1826 C1825 1.366 . S
C1826 C1830 1.385 . S
C1827 H1802 0.951 . S
C1827 C1825 1.388 . S
C1827 C1828 1.366 . S
C1828 C1827 1.366 . S
C1828 C1829 1.414 . S
C1828 C1831 1.499 . S
C1829 H1803 0.950 . S
C1829 C1828 1.414 . S
C1829 C1830 1.374 . S
C1830 H1804 0.950 . S
C1830 C1826 1.385 . S
C1830 C1829 1.374 . S
C1831 C1828 1.499 . S
C1831 C1832 1.373 . S
C1831 C1833 1.389 . S
C1832 H1805 0.950 . S
C1832 C1818 1.377 . S
C1832 C1831 1.373 . S
C1833 C1817 1.377 . S
C1833 C1831 1.389 . S
C1833 C1834 1.524 . S
C1834 C1833 1.524 . S
C1834 C1835 1.397 . S
C1834 C1839 1.363 . S
C1835 H1806 0.950 . S
C1835 C1834 1.397 . S
C1835 C1836 1.334 . S
C1836 H1807 0.950 . S
C1836 C1835 1.334 . S
C1836 C1837 1.287 . S
C1837 C1836 1.287 . S
C1837 C1838 1.524 . S
C1837 H1840 0.999 . S
C1838 H1808 0.950 . S
C1838 C1837 1.524 . S
C1838 C1839 1.415 . S
C1839 H1809 0.950 . S
C1839 C1834 1.363 . S
C1839 C1838 1.415 . S
H1840 C1837 0.999 . S
H1841 C1822 0.913 . S
H1842 C1860 0.951 . S
H1843 C1862 0.951 . S
H1844 C1864 0.950 . S
H1845 C1865 0.950 . S
H1846 C1867 0.950 . S
H1847 C1870 0.950 . S
H1848 C1871 0.950 . S
H1849 C1873 0.950 . S
H1850 C1874 0.950 . S
H1851 C1875 0.951 . S
H1852 C1877 0.951 . S
H1853 C1879 0.950 . S
H1854 C1880 0.950 . S
H1855 C1882 0.950 . S
H1856 C1885 0.950 . S
H1857 C1886 0.950 . S
H1858 C1888 0.950 . S
H1859 C1889 0.950 . S
C1860 H1842 0.951 . S
C1860 C1861 1.366 . S
C1860 C1862 1.388 . S
C1861 C1860 1.366 . S
C1861 C1865 1.385 . S
C1862 H1843 0.951 . S
C1862 C1860 1.388 . S
C1862 C1863 1.366 . S
C1863 C1862 1.366 . S
C1863 C1864 1.414 . S
C1863 C1866 1.499 . S
C1864 H1844 0.950 . S
C1864 C1863 1.414 . S
C1864 C1865 1.374 . S
C1865 H1845 0.950 . S
C1865 C1861 1.385 . S
C1865 C1864 1.374 . S
C1866 C1863 1.499 . S
C1866 C1867 1.373 . S
C1866 C1868 1.389 . S
C1867 H1846 0.950 . S
C1867 C1866 1.373 . S
C1867 C1883 1.377 . S
C1868 C1866 1.389 . S
C1868 C1869 1.524 . S
C1868 C1882 1.377 . S
C1869 C1868 1.524 . S
C1869 C1870 1.397 . S
C1869 C1874 1.363 . S
C1870 H1847 0.950 . S
C1870 C1869 1.397 . S
C1870 C1871 1.334 . S
C1871 H1848 0.950 . S
C1871 C1870 1.334 . S
C1871 C1872 1.287 . S
C1872 C1871 1.287 . S
C1872 C1873 1.524 . S
C1872 H1891 0.913 . S
C1873 H1849 0.950 . S
C1873 C1872 1.524 . S
C1873 C1874 1.415 . S
C1874 H1850 0.950 . S
C1874 C1869 1.363 . S
C1874 C1873 1.415 . S
C1875 H1851 0.951 . S
C1875 C1876 1.366 . S
C1875 C1877 1.388 . S
C1876 C1875 1.366 . S
C1876 C1880 1.385 . S
C1877 H1852 0.951 . S
C1877 C1875 1.388 . S
C1877 C1878 1.366 . S
C1878 C1877 1.366 . S
C1878 C1879 1.414 . S
C1878 C1881 1.499 . S
C1879 H1853 0.950 . S
C1879 C1878 1.414 . S
C1879 C1880 1.374 . S
C1880 H1854 0.950 . S
C1880 C1876 1.385 . S
C1880 C1879 1.374 . S
C1881 C1878 1.499 . S
C1881 C1882 1.373 . S
C1881 C1883 1.389 . S
C1882 H1855 0.950 . S
C1882 C1868 1.377 . S
C1882 C1881 1.373 . S
C1883 C1867 1.377 . S
C1883 C1881 1.389 . S
C1883 C1884 1.524 . S
C1884 C1883 1.524 . S
C1884 C1885 1.397 . S
C1884 C1889 1.363 . S
C1885 H1856 0.950 . S
C1885 C1884 1.397 . S
C1885 C1886 1.334 . S
C1886 H1857 0.950 . S
C1886 C1885 1.334 . S
C1886 C1887 1.287 . S
C1887 C1886 1.287 . S
C1887 C1888 1.524 . S
C1887 H1890 0.999 . S
C1888 H1858 0.950 . S
C1888 C1887 1.524 . S
C1888 C1889 1.415 . S
C1889 H1859 0.950 . S
C1889 C1884 1.363 . S
C1889 C1888 1.415 . S
H1890 C1887 0.999 . S
H1891 C1872 0.913 . S
H1892 C1910 0.951 . S
H1893 C1912 0.951 . S
H1894 C1914 0.950 . S
H1895 C1915 0.950 . S
H1896 C1917 0.950 . S
H1897 C1920 0.950 . S
H1898 C1921 0.950 . S
H1899 C1923 0.950 . S
H1900 C1924 0.950 . S
H1901 C1925 0.951 . S
H1902 C1927 0.951 . S
H1903 C1929 0.950 . S
H1904 C1930 0.950 . S
H1905 C1932 0.950 . S
H1906 C1935 0.950 . S
H1907 C1936 0.950 . S
H1908 C1938 0.950 . S
H1909 C1939 0.950 . S
C1910 H1892 0.951 . S
C1910 C1911 1.366 . S
C1910 C1912 1.388 . S
C1911 C1910 1.366 . S
C1911 C1915 1.385 . S
C1912 H1893 0.951 . S
C1912 C1910 1.388 . S
C1912 C1913 1.366 . S
C1913 C1912 1.366 . S
C1913 C1914 1.414 . S
C1913 C1916 1.499 . S
C1914 H1894 0.950 . S
C1914 C1913 1.414 . S
C1914 C1915 1.374 . S
C1915 H1895 0.950 . S
C1915 C1911 1.385 . S
C1915 C1914 1.374 . S
C1916 C1913 1.499 . S
C1916 C1917 1.373 . S
C1916 C1918 1.389 . S
C1917 H1896 0.950 . S
C1917 C1916 1.373 . S
C1917 C1933 1.377 . S
C1918 C1916 1.389 . S
C1918 C1919 1.524 . S
C1918 C1932 1.377 . S
C1919 C1918 1.524 . S
C1919 C1920 1.397 . S
C1919 C1924 1.363 . S
C1920 H1897 0.950 . S
C1920 C1919 1.397 . S
C1920 C1921 1.334 . S
C1921 H1898 0.950 . S
C1921 C1920 1.334 . S
C1921 C1922 1.287 . S
C1922 C1921 1.287 . S
C1922 C1923 1.524 . S
C1922 H1941 0.913 . S
C1923 H1899 0.950 . S
C1923 C1922 1.524 . S
C1923 C1924 1.415 . S
C1924 H1900 0.950 . S
C1924 C1919 1.363 . S
C1924 C1923 1.415 . S
C1925 H1901 0.951 . S
C1925 C1926 1.366 . S
C1925 C1927 1.388 . S
C1926 C1925 1.366 . S
C1926 C1930 1.385 . S
C1927 H1902 0.951 . S
C1927 C1925 1.388 . S
C1927 C1928 1.366 . S
C1928 C1927 1.366 . S
C1928 C1929 1.414 . S
C1928 C1931 1.499 . S
C1929 H1903 0.950 . S
C1929 C1928 1.414 . S
C1929 C1930 1.374 . S
C1930 H1904 0.950 . S
C1930 C1926 1.385 . S
C1930 C1929 1.374 . S
C1931 C1928 1.499 . S
C1931 C1932 1.373 . S
C1931 C1933 1.389 . S
C1932 H1905 0.950 . S
C1932 C1918 1.377 . S
C1932 C1931 1.373 . S
C1933 C1917 1.377 . S
C1933 C1931 1.389 . S
C1933 C1934 1.524 . S
C1934 C1933 1.524 . S
C1934 C1935 1.397 . S
C1934 C1939 1.363 . S
C1935 H1906 0.950 . S
C1935 C1934 1.397 . S
C1935 C1936 1.334 . S
C1936 H1907 0.950 . S
C1936 C1935 1.334 . S
C1936 C1937 1.287 . S
C1937 C1936 1.287 . S
C1937 C1938 1.524 . S
C1937 H1940 0.999 . S
C1938 H1908 0.950 . S
C1938 C1937 1.524 . S
C1938 C1939 1.415 . S
C1939 H1909 0.950 . S
C1939 C1934 1.363 . S
C1939 C1938 1.415 . S
H1940 C1937 0.999 . S
H1941 C1922 0.913 . S
H1942 C1960 0.951 . S
H1943 C1962 0.951 . S
H1944 C1964 0.950 . S
H1945 C1965 0.950 . S
H1946 C1967 0.950 . S
H1947 C1970 0.950 . S
H1948 C1971 0.950 . S
H1949 C1973 0.950 . S
H1950 C1974 0.950 . S
H1951 C1975 0.951 . S
H1952 C1977 0.951 . S
H1953 C1979 0.950 . S
H1954 C1980 0.950 . S
H1955 C1982 0.950 . S
H1956 C1985 0.950 . S
H1957 C1986 0.950 . S
H1958 C1988 0.950 . S
H1959 C1989 0.950 . S
C1960 H1942 0.951 . S
C1960 C1961 1.366 . S
C1960 C1962 1.388 . S
C1961 C1960 1.366 . S
C1961 C1965 1.385 . S
C1962 H1943 0.951 . S
C1962 C1960 1.388 . S
C1962 C1963 1.366 . S
C1963 C1962 1.366 . S
C1963 C1964 1.414 . S
C1963 C1966 1.499 . S
C1964 H1944 0.950 . S
C1964 C1963 1.414 . S
C1964 C1965 1.374 . S
C1965 H1945 0.950 . S
C1965 C1961 1.385 . S
C1965 C1964 1.374 . S
C1966 C1963 1.499 . S
C1966 C1967 1.373 . S
C1966 C1968 1.389 . S
C1967 H1946 0.950 . S
C1967 C1966 1.373 . S
C1967 C1983 1.377 . S
C1968 C1966 1.389 . S
C1968 C1969 1.524 . S
C1968 C1982 1.377 . S
C1969 C1968 1.524 . S
C1969 C1970 1.397 . S
C1969 C1974 1.363 . S
C1970 H1947 0.950 . S
C1970 C1969 1.397 . S
C1970 C1971 1.334 . S
C1971 H1948 0.950 . S
C1971 C1970 1.334 . S
C1971 C1972 1.287 . S
C1972 C1971 1.287 . S
C1972 C1973 1.524 . S
C1972 H1991 0.913 . S
C1973 H1949 0.950 . S
C1973 C1972 1.524 . S
C1973 C1974 1.415 . S
C1974 H1950 0.950 . S
C1974 C1969 1.363 . S
C1974 C1973 1.415 . S
C1975 H1951 0.951 . S
C1975 C1976 1.366 . S
C1975 C1977 1.388 . S
C1976 C1975 1.366 . S
C1976 C1980 1.385 . S
C1977 H1952 0.951 . S
C1977 C1975 1.388 . S
C1977 C1978 1.366 . S
C1978 C1977 1.366 . S
C1978 C1979 1.414 . S
C1978 C1981 1.499 . S
C1979 H1953 0.950 . S
C1979 C1978 1.414 . S
C1979 C1980 1.374 . S
C1980 H1954 0.950 . S
C1980 C1976 1.385 . S
C1980 C1979 1.374 . S
C1981 C1978 1.499 . S
C1981 C1982 1.373 . S
C1981 C1983 1.389 . S
C1982 H1955 0.950 . S
C1982 C1968 1.377 . S
C1982 C1981 1.373 . S
C1983 C1967 1.377 . S
C1983 C1981 1.389 . S
C1983 C1984 1.524 . S
C1984 C1983 1.524 . S
C1984 C1985 1.397 . S
C1984 C1989 1.363 . S
C1985 H1956 0.950 . S
C1985 C1984 1.397 . S
C1985 C1986 1.334 . S
C1986 H1957 0.950 . S
C1986 C1985 1.334 . S
C1986 C1987 1.287 . S
C1987 C1986 1.287 . S
C1987 C1988 1.524 . S
C1987 H1990 0.999 . S
C1988 H1958 0.950 . S
C1988 C1987 1.524 . S
C1988 C1989 1.415 . S
C1989 H1959 0.950 . S
C1989 C1984 1.363 . S
C1989 C1988 1.415 . S
H1990 C1987 0.999 . S
H1991 C1972 0.913 . S
H1992 C2010 0.951 . S
H1993 C2012 0.951 . S
H1994 C2014 0.950 . S
H1995 C2015 0.950 . S
H1996 C2017 0.950 . S
H1997 C2020 0.950 . S
H1998 C2021 0.950 . S
H1999 C2023 0.950 . S
H2000 C2024 0.950 . S
H2001 C2025 0.951 . S
H2002 C2027 0.951 . S
H2003 C2029 0.950 . S
H2004 C2030 0.950 . S
H2005 C2032 0.950 . S
H2006 C2035 0.950 . S
H2007 C2036 0.950 . S
H2008 C2038 0.950 . S
H2009 C2039 0.950 . S
C2010 H1992 0.951 . S
C2010 C2011 1.366 . S
C2010 C2012 1.388 . S
C2011 C2010 1.366 . S
C2011 C2015 1.385 . S
C2012 H1993 0.951 . S
C2012 C2010 1.388 . S
C2012 C2013 1.366 . S
C2013 C2012 1.366 . S
C2013 C2014 1.414 . S
C2013 C2016 1.499 . S
C2014 H1994 0.950 . S
C2014 C2013 1.414 . S
C2014 C2015 1.374 . S
C2015 H1995 0.950 . S
C2015 C2011 1.385 . S
C2015 C2014 1.374 . S
C2016 C2013 1.499 . S
C2016 C2017 1.373 . S
C2016 C2018 1.389 . S
C2017 H1996 0.950 . S
C2017 C2016 1.373 . S
C2017 C2033 1.377 . S
C2018 C2016 1.389 . S
C2018 C2019 1.524 . S
C2018 C2032 1.377 . S
C2019 C2018 1.524 . S
C2019 C2020 1.397 . S
C2019 C2024 1.363 . S
C2020 H1997 0.950 . S
C2020 C2019 1.397 . S
C2020 C2021 1.334 . S
C2021 H1998 0.950 . S
C2021 C2020 1.334 . S
C2021 C2022 1.287 . S
C2022 C2021 1.287 . S
C2022 C2023 1.524 . S
C2022 H2041 0.913 . S
C2023 H1999 0.950 . S
C2023 C2022 1.524 . S
C2023 C2024 1.415 . S
C2024 H2000 0.950 . S
C2024 C2019 1.363 . S
C2024 C2023 1.415 . S
C2025 H2001 0.951 . S
C2025 C2026 1.366 . S
C2025 C2027 1.388 . S
C2026 C2025 1.366 . S
C2026 C2030 1.385 . S
C2027 H2002 0.951 . S
C2027 C2025 1.388 . S
C2027 C2028 1.366 . S
C2028 C2027 1.366 . S
C2028 C2029 1.414 . S
C2028 C2031 1.499 . S
C2029 H2003 0.950 . S
C2029 C2028 1.414 . S
C2029 C2030 1.374 . S
C2030 H2004 0.950 . S
C2030 C2026 1.385 . S
C2030 C2029 1.374 . S
C2031 C2028 1.499 . S
C2031 C2032 1.373 . S
C2031 C2033 1.389 . S
C2032 H2005 0.950 . S
C2032 C2018 1.377 . S
C2032 C2031 1.373 . S
C2033 C2017 1.377 . S
C2033 C2031 1.389 . S
C2033 C2034 1.524 . S
C2034 C2033 1.524 . S
C2034 C2035 1.397 . S
C2034 C2039 1.363 . S
C2035 H2006 0.950 . S
C2035 C2034 1.397 . S
C2035 C2036 1.334 . S
C2036 H2007 0.950 . S
C2036 C2035 1.334 . S
C2036 C2037 1.287 . S
C2037 C2036 1.287 . S
C2037 C2038 1.524 . S
C2037 H2040 0.999 . S
C2038 H2008 0.950 . S
C2038 C2037 1.524 . S
C2038 C2039 1.415 . S
C2039 H2009 0.950 . S
C2039 C2034 1.363 . S
C2039 C2038 1.415 . S
H2040 C2037 0.999 . S
H2041 C2022 0.913 . S
H2042 C2060 0.951 . S
H2043 C2062 0.951 . S
H2044 C2064 0.950 . S
H2045 C2065 0.950 . S
H2046 C2067 0.950 1_655 S
H2047 C2070 0.950 . S
H2048 C2071 0.950 . S
H2049 C2073 0.950 . S
H2050 C2074 0.950 . S
H2051 C2075 0.958 . S
H2052 C2077 0.951 . S
H2053 C2079 0.950 . S
H2054 C2080 0.950 . S
H2055 C2082 0.950 . S
H2056 C2085 0.950 . S
H2057 C2086 0.950 . S
H2058 C2088 0.950 . S
H2059 C2089 0.950 . S
C2060 H2042 0.951 . S
C2060 C2061 1.366 . S
C2060 C2062 1.388 . S
C2061 C2060 1.366 . S
C2061 C2065 1.385 . S
C2062 H2043 0.951 . S
C2062 C2060 1.388 . S
C2062 C2063 1.366 . S
C2063 C2062 1.366 . S
C2063 C2064 1.414 . S
C2063 C2066 1.499 . S
C2064 H2044 0.950 . S
C2064 C2063 1.414 . S
C2064 C2065 1.374 . S
C2065 H2045 0.950 . S
C2065 C2061 1.385 . S
C2065 C2064 1.374 . S
C2066 C2063 1.499 . S
C2066 C2067 1.373 . S
C2066 C2068 1.389 . S
C2067 H2046 0.950 1_455 S
C2067 C2066 1.373 . S
C2067 C2083 1.377 . S
C2068 C2066 1.389 . S
C2068 C2069 1.524 . S
C2068 C2082 1.377 . S
C2069 C2068 1.524 . S
C2069 C2070 1.397 . S
C2069 C2074 1.363 . S
C2070 H2047 0.950 . S
C2070 C2069 1.397 . S
C2070 C2071 1.334 . S
C2071 H2048 0.950 . S
C2071 C2070 1.334 . S
C2071 C2072 1.287 . S
C2072 C2071 1.287 . S
C2072 C2073 1.524 . S
C2072 H2091 0.913 . S
C2073 H2049 0.950 . S
C2073 C2072 1.524 . S
C2073 C2074 1.415 . S
C2074 H2050 0.950 . S
C2074 C2069 1.363 . S
C2074 C2073 1.415 . S
C2075 H2051 0.958 . S
C2075 C2076 1.366 . S
C2075 C2077 1.388 . S
C2076 C2075 1.366 . S
C2076 C2080 1.385 . S
C2077 H2052 0.951 . S
C2077 C2075 1.388 . S
C2077 C2078 1.366 . S
C2078 C2077 1.366 . S
C2078 C2079 1.414 . S
C2078 C2081 1.499 . S
C2079 H2053 0.950 . S
C2079 C2078 1.414 . S
C2079 C2080 1.374 . S
C2080 H2054 0.950 . S
C2080 C2076 1.385 . S
C2080 C2079 1.374 . S
C2081 C2078 1.499 . S
C2081 C2082 1.373 . S
C2081 C2083 1.389 . S
C2082 H2055 0.950 . S
C2082 C2068 1.377 . S
C2082 C2081 1.373 . S
C2083 C2067 1.377 . S
C2083 C2081 1.389 . S
C2083 C2084 1.524 1_455 S
C2084 C2083 1.524 1_655 S
C2084 C2085 1.397 . S
C2084 C2089 1.363 . S
C2085 H2056 0.950 . S
C2085 C2084 1.397 . S
C2085 C2086 1.334 . S
C2086 H2057 0.950 . S
C2086 C2085 1.334 . S
C2086 C2087 1.287 . S
C2087 C2086 1.287 . S
C2087 C2088 1.524 . S
C2087 H2090 0.999 . S
C2088 H2058 0.950 . S
C2088 C2087 1.524 . S
C2088 C2089 1.415 . S
C2089 H2059 0.950 . S
C2089 C2084 1.363 . S
C2089 C2088 1.415 . S
H2090 C2087 0.999 . S
H2091 C2072 0.913 . S
H2092 C2110 0.951 . S
H2093 C2112 0.951 . S
H2094 C2114 0.950 . S
H2095 C2115 0.950 . S
H2096 C2117 0.950 . S
H2097 C2120 0.950 . S
H2098 C2121 0.950 . S
H2099 C2123 0.950 . S
H2100 C2124 0.950 . S
H2101 C2125 0.951 . S
H2102 C2127 0.951 . S
H2103 C2129 0.950 . S
H2104 C2130 0.950 . S
H2105 C2132 0.950 . S
H2106 C2135 0.950 . S
H2107 C2136 0.950 . S
H2108 C2138 0.950 . S
H2109 C2139 0.950 . S
C2110 H2092 0.951 . S
C2110 C2111 1.366 . S
C2110 C2112 1.388 . S
C2111 C2110 1.366 . S
C2111 C2115 1.385 . S
C2112 H2093 0.951 . S
C2112 C2110 1.388 . S
C2112 C2113 1.366 . S
C2113 C2112 1.366 . S
C2113 C2114 1.414 . S
C2113 C2116 1.499 . S
C2114 H2094 0.950 . S
C2114 C2113 1.414 . S
C2114 C2115 1.374 . S
C2115 H2095 0.950 . S
C2115 C2111 1.385 . S
C2115 C2114 1.374 . S
C2116 C2113 1.499 . S
C2116 C2117 1.373 . S
C2116 C2118 1.389 . S
C2117 H2096 0.950 . S
C2117 C2116 1.373 . S
C2117 C2133 1.377 . S
C2118 C2116 1.389 . S
C2118 C2119 1.524 . S
C2118 C2132 1.377 . S
C2119 C2118 1.524 . S
C2119 C2120 1.397 . S
C2119 C2124 1.363 . S
C2120 H2097 0.950 . S
C2120 C2119 1.397 . S
C2120 C2121 1.334 . S
C2121 H2098 0.950 . S
C2121 C2120 1.334 . S
C2121 C2122 1.287 . S
C2122 C2121 1.287 . S
C2122 C2123 1.524 . S
C2122 H2141 0.913 . S
C2123 H2099 0.950 . S
C2123 C2122 1.524 . S
C2123 C2124 1.415 . S
C2124 H2100 0.950 . S
C2124 C2119 1.363 . S
C2124 C2123 1.415 . S
C2125 H2101 0.951 . S
C2125 C2126 1.366 . S
C2125 C2127 1.388 . S
C2126 C2125 1.366 . S
C2126 C2130 1.385 . S
C2127 H2102 0.951 . S
C2127 C2125 1.388 . S
C2127 C2128 1.366 . S
C2128 C2127 1.366 . S
C2128 C2129 1.414 . S
C2128 C2131 1.499 . S
C2129 H2103 0.950 . S
C2129 C2128 1.414 . S
C2129 C2130 1.374 . S
C2130 H2104 0.950 . S
C2130 C2126 1.385 . S
C2130 C2129 1.374 . S
C2131 C2128 1.499 . S
C2131 C2132 1.373 . S
C2131 C2133 1.389 . S
C2132 H2105 0.950 . S
C2132 C2118 1.377 . S
C2132 C2131 1.373 . S
C2133 C2117 1.377 . S
C2133 C2131 1.389 . S
C2133 C2134 1.524 . S
C2134 C2133 1.524 . S
C2134 C2135 1.397 . S
C2134 C2139 1.363 . S
C2135 H2106 0.950 . S
C2135 C2134 1.397 . S
C2135 C2136 1.334 . S
C2136 H2107 0.950 . S
C2136 C2135 1.334 . S
C2136 C2137 1.287 . S
C2137 C2136 1.287 . S
C2137 C2138 1.524 . S
C2137 H2140 0.999 . S
C2138 H2108 0.950 . S
C2138 C2137 1.524 . S
C2138 C2139 1.415 . S
C2139 H2109 0.950 . S
C2139 C2134 1.363 . S
C2139 C2138 1.415 . S
H2140 C2137 0.999 . S
H2141 C2122 0.913 . S
H2142 C2160 0.951 1_455 S
H2143 C2162 0.951 1_455 S
H2144 C2164 0.950 . S
H2145 C2165 0.950 . S
H2146 C2167 0.950 . S
H2147 C2170 0.950 . S
H2148 C2171 0.950 . S
H2149 C2173 0.950 . S
H2150 C2174 0.950 . S
H2151 C2175 0.951 . S
H2152 C2177 0.951 . S
H2153 C2179 0.950 . S
H2154 C2180 0.950 . S
H2155 C2182 0.950 . S
H2156 C2185 0.950 . S
H2157 C2186 0.950 . S
H2158 C2188 0.950 . S
H2159 C2189 0.950 . S
C2160 H2142 0.951 1_655 S
C2160 C2161 1.366 . S
C2160 C2162 1.388 . S
C2161 C2160 1.366 . S
C2161 C2165 1.385 . S
C2162 H2143 0.951 1_655 S
C2162 C2160 1.388 . S
C2162 C2163 1.366 . S
C2163 C2162 1.366 . S
C2163 C2164 1.414 . S
C2163 C2166 1.499 . S
C2164 H2144 0.950 . S
C2164 C2163 1.414 . S
C2164 C2165 1.374 . S
C2165 H2145 0.950 . S
C2165 C2161 1.385 . S
C2165 C2164 1.374 . S
C2166 C2163 1.499 . S
C2166 C2167 1.373 . S
C2166 C2168 1.389 1_655 S
C2167 H2146 0.950 . S
C2167 C2166 1.373 . S
C2167 C2183 1.377 . S
C2168 C2166 1.389 1_455 S
C2168 C2169 1.524 . S
C2168 C2182 1.377 . S
C2169 C2168 1.524 . S
C2169 C2170 1.397 . S
C2169 C2174 1.363 . S
C2170 H2147 0.950 . S
C2170 C2169 1.397 . S
C2170 C2171 1.334 . S
C2171 H2148 0.950 . S
C2171 C2170 1.334 . S
C2171 C2172 1.287 . S
C2172 C2171 1.287 . S
C2172 C2173 1.524 . S
C2172 H2191 0.913 . S
C2173 H2149 0.950 . S
C2173 C2172 1.524 . S
C2173 C2174 1.415 . S
C2174 H2150 0.950 . S
C2174 C2169 1.363 . S
C2174 C2173 1.415 . S
C2175 H2151 0.951 . S
C2175 C2176 1.340 1_655 S
C2175 C2177 1.388 . S
C2176 C2175 1.340 1_455 S
C2176 C2180 1.407 . S
C2177 H2152 0.951 . S
C2177 C2175 1.388 . S
C2177 C2178 1.366 . S
C2178 C2177 1.366 . S
C2178 C2179 1.414 1_655 S
C2178 C2181 1.499 . S
C2179 H2153 0.950 . S
C2179 C2178 1.414 1_455 S
C2179 C2180 1.374 . S
C2180 H2154 0.950 . S
C2180 C2176 1.407 . S
C2180 C2179 1.374 . S
C2181 C2178 1.499 . S
C2181 C2182 1.373 1_655 S
C2181 C2183 1.389 . S
C2182 H2155 0.950 . S
C2182 C2168 1.377 . S
C2182 C2181 1.373 1_455 S
C2183 C2167 1.377 . S
C2183 C2181 1.389 . S
C2183 C2184 1.524 . S
C2184 C2183 1.524 . S
C2184 C2185 1.397 . S
C2184 C2189 1.363 . S
C2185 H2156 0.950 . S
C2185 C2184 1.397 . S
C2185 C2186 1.334 . S
C2186 H2157 0.950 . S
C2186 C2185 1.334 . S
C2186 C2187 1.287 . S
C2187 C2186 1.287 . S
C2187 C2188 1.524 . S
C2187 H2190 0.999 . S
C2188 H2158 0.950 . S
C2188 C2187 1.524 . S
C2188 C2189 1.415 . S
C2189 H2159 0.950 . S
C2189 C2184 1.363 . S
C2189 C2188 1.415 . S
H2190 C2187 0.999 . S
H2191 C2172 0.913 . S
H2192 C2210 0.951 . S
H2193 C2212 0.951 . S
H2194 C2214 0.950 . S
H2195 C2215 0.950 . S
H2196 C2217 0.950 . S
H2197 C2220 0.950 . S
H2198 C2221 0.950 . S
H2199 C2223 0.950 . S
H2200 C2224 0.950 . S
H2201 C2225 0.951 . S
H2202 C2227 0.951 . S
H2203 C2229 0.950 . S
H2204 C2230 0.950 . S
H2205 C2232 0.950 . S
H2206 C2235 0.950 . S
H2207 C2236 0.950 . S
H2208 C2238 0.950 . S
H2209 C2239 0.950 . S
C2210 H2192 0.951 . S
C2210 C2211 1.366 . S
C2210 C2212 1.388 . S
C2211 C2210 1.366 . S
C2211 C2215 1.385 . S
C2212 H2193 0.951 . S
C2212 C2210 1.388 . S
C2212 C2213 1.366 . S
C2213 C2212 1.366 . S
C2213 C2214 1.414 . S
C2213 C2216 1.499 . S
C2214 H2194 0.950 . S
C2214 C2213 1.414 . S
C2214 C2215 1.374 . S
C2215 H2195 0.950 . S
C2215 C2211 1.385 . S
C2215 C2214 1.374 . S
C2216 C2213 1.499 . S
C2216 C2217 1.373 . S
C2216 C2218 1.389 . S
C2217 H2196 0.950 . S
C2217 C2216 1.373 . S
C2217 C2233 1.377 . S
C2218 C2216 1.389 . S
C2218 C2219 1.524 . S
C2218 C2232 1.377 . S
C2219 C2218 1.524 . S
C2219 C2220 1.397 . S
C2219 C2224 1.363 . S
C2220 H2197 0.950 . S
C2220 C2219 1.397 . S
C2220 C2221 1.334 . S
C2221 H2198 0.950 . S
C2221 C2220 1.334 . S
C2221 C2222 1.287 . S
C2222 C2221 1.287 . S
C2222 C2223 1.524 . S
C2222 H2241 0.913 . S
C2223 H2199 0.950 . S
C2223 C2222 1.524 . S
C2223 C2224 1.415 . S
C2224 H2200 0.950 . S
C2224 C2219 1.363 . S
C2224 C2223 1.415 . S
C2225 H2201 0.951 . S
C2225 C2226 1.366 . S
C2225 C2227 1.388 . S
C2226 C2225 1.366 . S
C2226 C2230 1.385 . S
C2227 H2202 0.951 . S
C2227 C2225 1.388 . S
C2227 C2228 1.366 . S
C2228 C2227 1.366 . S
C2228 C2229 1.414 . S
C2228 C2231 1.499 . S
C2229 H2203 0.950 . S
C2229 C2228 1.414 . S
C2229 C2230 1.374 . S
C2230 H2204 0.950 . S
C2230 C2226 1.385 . S
C2230 C2229 1.374 . S
C2231 C2228 1.499 . S
C2231 C2232 1.373 . S
C2231 C2233 1.389 . S
C2232 H2205 0.950 . S
C2232 C2218 1.377 . S
C2232 C2231 1.373 . S
C2233 C2217 1.377 . S
C2233 C2231 1.389 . S
C2233 C2234 1.524 . S
C2234 C2233 1.524 . S
C2234 C2235 1.397 . S
C2234 C2239 1.363 . S
C2235 H2206 0.950 . S
C2235 C2234 1.397 . S
C2235 C2236 1.334 . S
C2236 H2207 0.950 . S
C2236 C2235 1.334 . S
C2236 C2237 1.287 . S
C2237 C2236 1.287 . S
C2237 C2238 1.524 . S
C2237 H2240 0.999 . S
C2238 H2208 0.950 . S
C2238 C2237 1.524 . S
C2238 C2239 1.415 . S
C2239 H2209 0.950 . S
C2239 C2234 1.363 . S
C2239 C2238 1.415 . S
H2240 C2237 0.999 . S
H2241 C2222 0.913 . S
H2242 C2260 0.951 . S
H2243 C2262 0.951 . S
H2244 C2264 0.950 . S
H2245 C2265 0.950 . S
H2246 C2267 0.950 . S
H2247 C2270 0.950 . S
H2248 C2271 0.950 . S
H2249 C2273 0.950 . S
H2250 C2274 0.950 . S
H2251 C2275 0.951 . S
H2252 C2277 0.951 . S
H2253 C2279 0.950 . S
H2254 C2280 0.950 . S
H2255 C2282 0.950 . S
H2256 C2285 0.950 . S
H2257 C2286 0.950 . S
H2258 C2288 0.950 . S
H2259 C2289 0.950 . S
C2260 H2242 0.951 . S
C2260 C2261 1.366 . S
C2260 C2262 1.388 . S
C2261 C2260 1.366 . S
C2261 C2265 1.385 . S
C2262 H2243 0.951 . S
C2262 C2260 1.388 . S
C2262 C2263 1.366 . S
C2263 C2262 1.366 . S
C2263 C2264 1.414 . S
C2263 C2266 1.499 . S
C2264 H2244 0.950 . S
C2264 C2263 1.414 . S
C2264 C2265 1.374 . S
C2265 H2245 0.950 . S
C2265 C2261 1.385 . S
C2265 C2264 1.374 . S
C2266 C2263 1.499 . S
C2266 C2267 1.373 . S
C2266 C2268 1.389 . S
C2267 H2246 0.950 . S
C2267 C2266 1.373 . S
C2267 C2283 1.377 . S
C2268 C2266 1.389 . S
C2268 C2269 1.524 . S
C2268 C2282 1.377 . S
C2269 C2268 1.524 . S
C2269 C2270 1.397 . S
C2269 C2274 1.363 . S
C2270 H2247 0.950 . S
C2270 C2269 1.397 . S
C2270 C2271 1.334 . S
C2271 H2248 0.950 . S
C2271 C2270 1.334 . S
C2271 C2272 1.287 . S
C2272 C2271 1.287 . S
C2272 C2273 1.524 . S
C2272 H2291 0.913 . S
C2273 H2249 0.950 . S
C2273 C2272 1.524 . S
C2273 C2274 1.415 . S
C2274 H2250 0.950 . S
C2274 C2269 1.363 . S
C2274 C2273 1.415 . S
C2275 H2251 0.951 . S
C2275 C2276 1.366 . S
C2275 C2277 1.388 . S
C2276 C2275 1.366 . S
C2276 C2280 1.385 . S
C2277 H2252 0.951 . S
C2277 C2275 1.388 . S
C2277 C2278 1.366 . S
C2278 C2277 1.366 . S
C2278 C2279 1.414 . S
C2278 C2281 1.499 . S
C2279 H2253 0.950 . S
C2279 C2278 1.414 . S
C2279 C2280 1.374 . S
C2280 H2254 0.950 . S
C2280 C2276 1.385 . S
C2280 C2279 1.374 . S
C2281 C2278 1.499 . S
C2281 C2282 1.373 . S
C2281 C2283 1.389 . S
C2282 H2255 0.950 . S
C2282 C2268 1.377 . S
C2282 C2281 1.373 . S
C2283 C2267 1.377 . S
C2283 C2281 1.389 . S
C2283 C2284 1.524 . S
C2284 C2283 1.524 . S
C2284 C2285 1.397 . S
C2284 C2289 1.363 . S
C2285 H2256 0.950 . S
C2285 C2284 1.397 . S
C2285 C2286 1.334 . S
C2286 H2257 0.950 . S
C2286 C2285 1.334 . S
C2286 C2287 1.287 . S
C2287 C2286 1.287 . S
C2287 C2288 1.524 . S
C2287 H2290 0.999 . S
C2288 H2258 0.950 . S
C2288 C2287 1.524 . S
C2288 C2289 1.415 . S
C2289 H2259 0.950 . S
C2289 C2284 1.363 . S
C2289 C2288 1.415 . S
H2290 C2287 0.999 . S
H2291 C2272 0.913 . S
H2292 C2310 0.918 1_545 S
H2293 C2312 0.951 . S
H2294 C2314 0.950 . S
H2295 C2315 0.950 . S
H2296 C2317 0.950 . S
H2297 C2320 0.950 . S
H2298 C2321 0.950 . S
H2299 C2323 0.950 1_545 S
H2300 C2324 0.950 . S
H2301 C2325 0.951 . S
H2302 C2327 0.951 . S
H2303 C2329 0.950 . S
H2304 C2330 0.947 . S
H2305 C2332 0.950 . S
H2306 C2335 0.950 . S
H2307 C2336 0.950 . S
H2308 C2338 0.950 . S
H2309 C2339 0.950 . S
C2310 H2292 0.918 1_565 S
C2310 C2311 1.366 . S
C2310 C2312 1.388 . S
C2311 C2310 1.366 . S
C2311 C2315 1.385 . S
C2312 H2293 0.951 . S
C2312 C2310 1.388 . S
C2312 C2313 1.366 . S
C2313 C2312 1.366 . S
C2313 C2314 1.414 . S
C2313 C2316 1.499 . S
C2314 H2294 0.950 . S
C2314 C2313 1.414 . S
C2314 C2315 1.374 . S
C2315 H2295 0.950 . S
C2315 C2311 1.385 . S
C2315 C2314 1.374 . S
C2316 C2313 1.499 . S
C2316 C2317 1.373 . S
C2316 C2318 1.389 1_556 S
C2317 H2296 0.950 . S
C2317 C2316 1.373 . S
C2317 C2333 1.377 . S
C2318 C2316 1.389 1_554 S
C2318 C2319 1.524 . S
C2318 C2332 1.377 . S
C2319 C2318 1.524 . S
C2319 C2320 1.397 . S
C2319 C2324 1.363 . S
C2320 H2297 0.950 . S
C2320 C2319 1.397 . S
C2320 C2321 1.334 . S
C2321 H2298 0.950 . S
C2321 C2320 1.334 . S
C2321 C2322 1.287 . S
C2322 C2321 1.287 . S
C2322 C2323 1.524 . S
C2322 H2341 0.913 1_565 S
C2323 H2299 0.950 1_565 S
C2323 C2322 1.524 . S
C2323 C2324 1.415 . S
C2324 H2300 0.950 . S
C2324 C2319 1.363 . S
C2324 C2323 1.415 . S
C2325 H2301 0.951 . S
C2325 C2326 1.366 . S
C2325 C2327 1.388 . S
C2326 C2325 1.366 . S
C2326 C2330 1.401 . S
C2327 H2302 0.951 . S
C2327 C2325 1.388 . S
C2327 C2328 1.348 1_554 S
C2328 C2327 1.348 1_556 S
C2328 C2329 1.419 . S
C2328 C2331 1.513 . S
C2329 H2303 0.950 . S
C2329 C2328 1.419 . S
C2329 C2330 1.365 1_556 S
C2330 H2304 0.947 . S
C2330 C2326 1.401 . S
C2330 C2329 1.365 1_554 S
C2331 C2328 1.513 . S
C2331 C2332 1.373 1_556 S
C2331 C2333 1.389 . S
C2332 H2305 0.950 . S
C2332 C2318 1.377 . S
C2332 C2331 1.373 1_554 S
C2333 C2317 1.377 . S
C2333 C2331 1.389 . S
C2333 C2334 1.524 . S
C2334 C2333 1.524 . S
C2334 C2335 1.397 . S
C2334 C2339 1.363 . S
C2335 H2306 0.950 . S
C2335 C2334 1.397 . S
C2335 C2336 1.334 . S
C2336 H2307 0.950 . S
C2336 C2335 1.334 . S
C2336 C2337 1.287 . S
C2337 C2336 1.287 . S
C2337 C2338 1.524 . S
C2337 H2340 0.999 . S
C2338 H2308 0.950 . S
C2338 C2337 1.524 . S
C2338 C2339 1.415 . S
C2339 H2309 0.950 . S
C2339 C2334 1.363 . S
C2339 C2338 1.415 . S
H2340 C2337 0.999 . S
H2341 C2322 0.913 1_545 S
H2342 C2360 0.951 . S
H2343 C2362 0.951 . S
H2344 C2364 0.950 . S
H2345 C2365 0.950 . S
H2346 C2367 0.950 . S
H2347 C2370 0.950 . S
H2348 C2371 0.950 . S
H2349 C2373 0.950 . S
H2350 C2374 0.950 . S
H2351 C2375 0.951 . S
H2352 C2377 0.951 . S
H2353 C2379 0.950 . S
H2354 C2380 0.950 . S
H2355 C2382 0.950 . S
H2356 C2385 0.950 . S
H2357 C2386 0.950 . S
H2358 C2388 0.950 . S
H2359 C2389 0.950 . S
C2360 H2342 0.951 . S
C2360 C2361 1.366 . S
C2360 C2362 1.388 . S
C2361 C2360 1.366 . S
C2361 C2365 1.385 . S
C2362 H2343 0.951 . S
C2362 C2360 1.388 . S
C2362 C2363 1.366 . S
C2363 C2362 1.366 . S
C2363 C2364 1.414 . S
C2363 C2366 1.499 . S
C2364 H2344 0.950 . S
C2364 C2363 1.414 . S
C2364 C2365 1.374 . S
C2365 H2345 0.950 . S
C2365 C2361 1.385 . S
C2365 C2364 1.374 . S
C2366 C2363 1.499 . S
C2366 C2367 1.373 . S
C2366 C2368 1.389 . S
C2367 H2346 0.950 . S
C2367 C2366 1.373 . S
C2367 C2383 1.377 . S
C2368 C2366 1.389 . S
C2368 C2369 1.524 . S
C2368 C2382 1.377 . S
C2369 C2368 1.524 . S
C2369 C2370 1.397 . S
C2369 C2374 1.363 . S
C2370 H2347 0.950 . S
C2370 C2369 1.397 . S
C2370 C2371 1.334 . S
C2371 H2348 0.950 . S
C2371 C2370 1.334 . S
C2371 C2372 1.287 . S
C2372 C2371 1.287 . S
C2372 C2373 1.524 . S
C2372 H2391 0.913 . S
C2373 H2349 0.950 . S
C2373 C2372 1.524 . S
C2373 C2374 1.415 . S
C2374 H2350 0.950 . S
C2374 C2369 1.363 . S
C2374 C2373 1.415 . S
C2375 H2351 0.951 . S
C2375 C2376 1.366 . S
C2375 C2377 1.388 . S
C2376 C2375 1.366 . S
C2376 C2380 1.385 . S
C2377 H2352 0.951 . S
C2377 C2375 1.388 . S
C2377 C2378 1.366 . S
C2378 C2377 1.366 . S
C2378 C2379 1.414 . S
C2378 C2381 1.499 . S
C2379 H2353 0.950 . S
C2379 C2378 1.414 . S
C2379 C2380 1.374 . S
C2380 H2354 0.950 . S
C2380 C2376 1.385 . S
C2380 C2379 1.374 . S
C2381 C2378 1.499 . S
C2381 C2382 1.373 . S
C2381 C2383 1.389 . S
C2382 H2355 0.950 . S
C2382 C2368 1.377 . S
C2382 C2381 1.373 . S
C2383 C2367 1.377 . S
C2383 C2381 1.389 . S
C2383 C2384 1.524 . S
C2384 C2383 1.524 . S
C2384 C2385 1.397 . S
C2384 C2389 1.363 . S
C2385 H2356 0.950 . S
C2385 C2384 1.397 . S
C2385 C2386 1.334 . S
C2386 H2357 0.950 . S
C2386 C2385 1.334 . S
C2386 C2387 1.287 . S
C2387 C2386 1.287 . S
C2387 C2388 1.524 . S
C2387 H2390 0.999 . S
C2388 H2358 0.950 . S
C2388 C2387 1.524 . S
C2388 C2389 1.415 . S
C2389 H2359 0.950 . S
C2389 C2384 1.363 . S
C2389 C2388 1.415 . S
H2390 C2387 0.999 . S
H2391 C2372 0.913 . S
H2392 C2410 0.951 . S
H2393 C2412 0.951 . S
H2394 C2414 0.950 . S
H2395 C2415 0.950 . S
H2396 C2417 0.950 . S
H2397 C2420 0.950 . S
H2398 C2421 0.950 . S
H2399 C2423 0.950 . S
H2400 C2424 0.950 . S
H2401 C2425 0.951 . S
H2402 C2427 0.951 . S
H2403 C2429 0.950 . S
H2404 C2430 0.950 . S
H2405 C2432 0.950 . S
H2406 C2435 0.950 . S
H2407 C2436 0.950 . S
H2408 C2438 0.950 . S
H2409 C2439 0.950 . S
C2410 H2392 0.951 . S
C2410 C2411 1.366 . S
C2410 C2412 1.388 . S
C2411 C2410 1.366 . S
C2411 C2415 1.385 . S
C2412 H2393 0.951 . S
C2412 C2410 1.388 . S
C2412 C2413 1.366 . S
C2413 C2412 1.366 . S
C2413 C2414 1.414 . S
C2413 C2416 1.499 . S
C2414 H2394 0.950 . S
C2414 C2413 1.414 . S
C2414 C2415 1.374 . S
C2415 H2395 0.950 . S
C2415 C2411 1.385 . S
C2415 C2414 1.374 . S
C2416 C2413 1.499 . S
C2416 C2417 1.373 . S
C2416 C2418 1.389 . S
C2417 H2396 0.950 . S
C2417 C2416 1.373 . S
C2417 C2433 1.377 . S
C2418 C2416 1.389 . S
C2418 C2419 1.524 . S
C2418 C2432 1.377 . S
C2419 C2418 1.524 . S
C2419 C2420 1.397 . S
C2419 C2424 1.363 . S
C2420 H2397 0.950 . S
C2420 C2419 1.397 . S
C2420 C2421 1.334 . S
C2421 H2398 0.950 . S
C2421 C2420 1.334 . S
C2421 C2422 1.287 . S
C2422 C2421 1.287 . S
C2422 C2423 1.524 . S
C2422 H2441 0.913 . S
C2423 H2399 0.950 . S
C2423 C2422 1.524 . S
C2423 C2424 1.415 . S
C2424 H2400 0.950 . S
C2424 C2419 1.363 . S
C2424 C2423 1.415 . S
C2425 H2401 0.951 . S
C2425 C2426 1.366 . S
C2425 C2427 1.388 . S
C2426 C2425 1.366 . S
C2426 C2430 1.385 . S
C2427 H2402 0.951 . S
C2427 C2425 1.388 . S
C2427 C2428 1.366 . S
C2428 C2427 1.366 . S
C2428 C2429 1.414 . S
C2428 C2431 1.499 . S
C2429 H2403 0.950 . S
C2429 C2428 1.414 . S
C2429 C2430 1.374 . S
C2430 H2404 0.950 . S
C2430 C2426 1.385 . S
C2430 C2429 1.374 . S
C2431 C2428 1.499 . S
C2431 C2432 1.373 . S
C2431 C2433 1.389 . S
C2432 H2405 0.950 . S
C2432 C2418 1.377 . S
C2432 C2431 1.373 . S
C2433 C2417 1.377 . S
C2433 C2431 1.389 . S
C2433 C2434 1.524 . S
C2434 C2433 1.524 . S
C2434 C2435 1.397 . S
C2434 C2439 1.363 . S
C2435 H2406 0.950 . S
C2435 C2434 1.397 . S
C2435 C2436 1.334 . S
C2436 H2407 0.950 . S
C2436 C2435 1.334 . S
C2436 C2437 1.287 . S
C2437 C2436 1.287 . S
C2437 C2438 1.524 . S
C2437 H2440 0.999 . S
C2438 H2408 0.950 . S
C2438 C2437 1.524 . S
C2438 C2439 1.415 . S
C2439 H2409 0.950 . S
C2439 C2434 1.363 . S
C2439 C2438 1.415 . S
H2440 C2437 0.999 . S
H2441 C2422 0.913 . S
H2442 C2460 0.951 . S
H2443 C2462 0.951 . S
H2444 C2464 0.950 . S
H2445 C2465 0.950 . S
H2446 C2467 0.950 . S
H2447 C2470 0.950 . S
H2448 C2471 0.950 . S
H2449 C2473 0.950 . S
H2450 C2474 0.950 . S
H2451 C2475 0.951 . S
H2452 C2477 0.951 . S
H2453 C2479 0.950 . S
H2454 C2480 0.950 . S
H2455 C2482 0.950 . S
H2456 C2485 0.950 . S
H2457 C2486 0.950 . S
H2458 C2488 0.950 . S
H2459 C2489 0.950 . S
C2460 H2442 0.951 . S
C2460 C2461 1.366 . S
C2460 C2462 1.388 . S
C2461 C2460 1.366 . S
C2461 C2465 1.385 . S
C2462 H2443 0.951 . S
C2462 C2460 1.388 . S
C2462 C2463 1.366 . S
C2463 C2462 1.366 . S
C2463 C2464 1.414 . S
C2463 C2466 1.499 . S
C2464 H2444 0.950 . S
C2464 C2463 1.414 . S
C2464 C2465 1.374 . S
C2465 H2445 0.950 . S
C2465 C2461 1.385 . S
C2465 C2464 1.374 . S
C2466 C2463 1.499 . S
C2466 C2467 1.373 . S
C2466 C2468 1.389 . S
C2467 H2446 0.950 . S
C2467 C2466 1.373 . S
C2467 C2483 1.377 . S
C2468 C2466 1.389 . S
C2468 C2469 1.524 . S
C2468 C2482 1.377 . S
C2469 C2468 1.524 . S
C2469 C2470 1.397 . S
C2469 C2474 1.363 . S
C2470 H2447 0.950 . S
C2470 C2469 1.397 . S
C2470 C2471 1.334 . S
C2471 H2448 0.950 . S
C2471 C2470 1.334 . S
C2471 C2472 1.287 . S
C2472 C2471 1.287 . S
C2472 C2473 1.524 . S
C2472 H2491 0.913 . S
C2473 H2449 0.950 . S
C2473 C2472 1.524 . S
C2473 C2474 1.415 . S
C2474 H2450 0.950 . S
C2474 C2469 1.363 . S
C2474 C2473 1.415 . S
C2475 H2451 0.951 . S
C2475 C2476 1.366 . S
C2475 C2477 1.388 . S
C2476 C2475 1.366 . S
C2476 C2480 1.385 . S
C2477 H2452 0.951 . S
C2477 C2475 1.388 . S
C2477 C2478 1.366 . S
C2478 C2477 1.366 . S
C2478 C2479 1.414 . S
C2478 C2481 1.499 . S
C2479 H2453 0.950 . S
C2479 C2478 1.414 . S
C2479 C2480 1.374 . S
C2480 H2454 0.950 . S
C2480 C2476 1.385 . S
C2480 C2479 1.374 . S
C2481 C2478 1.499 . S
C2481 C2482 1.373 . S
C2481 C2483 1.389 . S
C2482 H2455 0.950 . S
C2482 C2468 1.377 . S
C2482 C2481 1.373 . S
C2483 C2467 1.377 . S
C2483 C2481 1.389 . S
C2483 C2484 1.524 . S
C2484 C2483 1.524 . S
C2484 C2485 1.397 . S
C2484 C2489 1.363 . S
C2485 H2456 0.950 . S
C2485 C2484 1.397 . S
C2485 C2486 1.334 . S
C2486 H2457 0.950 . S
C2486 C2485 1.334 . S
C2486 C2487 1.287 . S
C2487 C2486 1.287 . S
C2487 C2488 1.524 . S
C2487 H2490 0.999 . S
C2488 H2458 0.950 . S
C2488 C2487 1.524 . S
C2488 C2489 1.415 . S
C2489 H2459 0.950 . S
C2489 C2484 1.363 . S
C2489 C2488 1.415 . S
H2490 C2487 0.999 . S
H2491 C2472 0.913 . S
H2492 C2510 0.951 . S
H2493 C2512 0.951 . S
H2494 C2514 0.950 . S
H2495 C2515 0.950 . S
H2496 C2517 0.950 . S
H2497 C2520 0.950 . S
H2498 C2521 0.950 . S
H2499 C2523 0.950 . S
H2500 C2524 0.950 . S
H2501 C2525 0.951 . S
H2502 C2527 0.951 . S
H2503 C2529 0.950 . S
H2504 C2530 0.950 . S
H2505 C2532 0.950 . S
H2506 C2535 0.950 . S
H2507 C2536 0.950 . S
H2508 C2538 0.950 . S
H2509 C2539 0.950 . S
C2510 H2492 0.951 . S
C2510 C2511 1.366 . S
C2510 C2512 1.388 . S
C2511 C2510 1.366 . S
C2511 C2515 1.385 . S
C2512 H2493 0.951 . S
C2512 C2510 1.388 . S
C2512 C2513 1.366 . S
C2513 C2512 1.366 . S
C2513 C2514 1.414 . S
C2513 C2516 1.499 . S
C2514 H2494 0.950 . S
C2514 C2513 1.414 . S
C2514 C2515 1.374 . S
C2515 H2495 0.950 . S
C2515 C2511 1.385 . S
C2515 C2514 1.374 . S
C2516 C2513 1.499 . S
C2516 C2517 1.373 . S
C2516 C2518 1.389 . S
C2517 H2496 0.950 . S
C2517 C2516 1.373 . S
C2517 C2533 1.377 . S
C2518 C2516 1.389 . S
C2518 C2519 1.524 . S
C2518 C2532 1.377 . S
C2519 C2518 1.524 . S
C2519 C2520 1.397 . S
C2519 C2524 1.363 . S
C2520 H2497 0.950 . S
C2520 C2519 1.397 . S
C2520 C2521 1.334 . S
C2521 H2498 0.950 . S
C2521 C2520 1.334 . S
C2521 C2522 1.287 . S
C2522 C2521 1.287 . S
C2522 C2523 1.524 . S
C2522 H2541 0.913 . S
C2523 H2499 0.950 . S
C2523 C2522 1.524 . S
C2523 C2524 1.415 . S
C2524 H2500 0.950 . S
C2524 C2519 1.363 . S
C2524 C2523 1.415 . S
C2525 H2501 0.951 . S
C2525 C2526 1.366 . S
C2525 C2527 1.388 . S
C2526 C2525 1.366 . S
C2526 C2530 1.385 . S
C2527 H2502 0.951 . S
C2527 C2525 1.388 . S
C2527 C2528 1.366 . S
C2528 C2527 1.366 . S
C2528 C2529 1.414 . S
C2528 C2531 1.499 . S
C2529 H2503 0.950 . S
C2529 C2528 1.414 . S
C2529 C2530 1.374 . S
C2530 H2504 0.950 . S
C2530 C2526 1.385 . S
C2530 C2529 1.374 . S
C2531 C2528 1.499 . S
C2531 C2532 1.373 . S
C2531 C2533 1.389 . S
C2532 H2505 0.950 . S
C2532 C2518 1.377 . S
C2532 C2531 1.373 . S
C2533 C2517 1.377 . S
C2533 C2531 1.389 . S
C2533 C2534 1.524 . S
C2534 C2533 1.524 . S
C2534 C2535 1.397 . S
C2534 C2539 1.363 . S
C2535 H2506 0.950 . S
C2535 C2534 1.397 . S
C2535 C2536 1.334 . S
C2536 H2507 0.950 . S
C2536 C2535 1.334 . S
C2536 C2537 1.287 . S
C2537 C2536 1.287 . S
C2537 C2538 1.524 . S
C2537 H2540 0.999 . S
C2538 H2508 0.950 . S
C2538 C2537 1.524 . S
C2538 C2539 1.415 . S
C2539 H2509 0.950 . S
C2539 C2534 1.363 . S
C2539 C2538 1.415 . S
H2540 C2537 0.999 . S
H2541 C2522 0.913 . S
H2542 C2560 0.951 . S
H2543 C2562 0.951 . S
H2544 C2564 0.950 . S
H2545 C2565 0.950 . S
H2546 C2567 0.950 . S
H2547 C2570 0.950 . S
H2548 C2571 0.950 . S
H2549 C2573 0.950 . S
H2550 C2574 0.950 . S
H2551 C2575 0.951 . S
H2552 C2577 0.951 . S
H2553 C2579 0.950 . S
H2554 C2580 0.950 . S
H2555 C2582 0.950 . S
H2556 C2585 0.950 . S
H2557 C2586 0.950 . S
H2558 C2588 0.950 . S
H2559 C2589 0.950 . S
C2560 H2542 0.951 . S
C2560 C2561 1.366 . S
C2560 C2562 1.388 . S
C2561 C2560 1.366 . S
C2561 C2565 1.385 . S
C2562 H2543 0.951 . S
C2562 C2560 1.388 . S
C2562 C2563 1.366 . S
C2563 C2562 1.366 . S
C2563 C2564 1.414 . S
C2563 C2566 1.499 . S
C2564 H2544 0.950 . S
C2564 C2563 1.414 . S
C2564 C2565 1.374 . S
C2565 H2545 0.950 . S
C2565 C2561 1.385 . S
C2565 C2564 1.374 . S
C2566 C2563 1.499 . S
C2566 C2567 1.373 . S
C2566 C2568 1.389 . S
C2567 H2546 0.950 . S
C2567 C2566 1.373 . S
C2567 C2583 1.377 . S
C2568 C2566 1.389 . S
C2568 C2569 1.524 . S
C2568 C2582 1.377 . S
C2569 C2568 1.524 . S
C2569 C2570 1.397 . S
C2569 C2574 1.363 . S
C2570 H2547 0.950 . S
C2570 C2569 1.397 . S
C2570 C2571 1.334 . S
C2571 H2548 0.950 . S
C2571 C2570 1.334 . S
C2571 C2572 1.287 . S
C2572 C2571 1.287 . S
C2572 C2573 1.524 . S
C2572 H2591 0.913 . S
C2573 H2549 0.950 . S
C2573 C2572 1.524 . S
C2573 C2574 1.415 . S
C2574 H2550 0.950 . S
C2574 C2569 1.363 . S
C2574 C2573 1.415 . S
C2575 H2551 0.951 . S
C2575 C2576 1.366 . S
C2575 C2577 1.388 . S
C2576 C2575 1.366 . S
C2576 C2580 1.385 . S
C2577 H2552 0.951 . S
C2577 C2575 1.388 . S
C2577 C2578 1.366 . S
C2578 C2577 1.366 . S
C2578 C2579 1.414 . S
C2578 C2581 1.499 . S
C2579 H2553 0.950 . S
C2579 C2578 1.414 . S
C2579 C2580 1.374 . S
C2580 H2554 0.950 . S
C2580 C2576 1.385 . S
C2580 C2579 1.374 . S
C2581 C2578 1.499 . S
C2581 C2582 1.373 . S
C2581 C2583 1.389 . S
C2582 H2555 0.950 . S
C2582 C2568 1.377 . S
C2582 C2581 1.373 . S
C2583 C2567 1.377 . S
C2583 C2581 1.389 . S
C2583 C2584 1.524 . S
C2584 C2583 1.524 . S
C2584 C2585 1.397 . S
C2584 C2589 1.363 . S
C2585 H2556 0.950 . S
C2585 C2584 1.397 . S
C2585 C2586 1.334 . S
C2586 H2557 0.950 . S
C2586 C2585 1.334 . S
C2586 C2587 1.287 . S
C2587 C2586 1.287 . S
C2587 C2588 1.524 . S
C2587 H2590 0.999 . S
C2588 H2558 0.950 . S
C2588 C2587 1.524 . S
C2588 C2589 1.415 . S
C2589 H2559 0.950 . S
C2589 C2584 1.363 . S
C2589 C2588 1.415 . S
H2590 C2587 0.999 . S
H2591 C2572 0.913 . S
H2592 C2610 0.951 . S
H2593 C2612 0.951 . S
H2594 C2614 0.950 . S
H2595 C2615 0.950 . S
H2596 C2617 0.950 . S
H2597 C2620 0.950 . S
H2598 C2621 0.950 . S
H2599 C2623 0.950 . S
H2600 C2624 0.950 . S
H2601 C2625 0.951 . S
H2602 C2627 0.951 . S
H2603 C2629 0.950 . S
H2604 C2630 0.950 . S
H2605 C2632 0.950 . S
H2606 C2635 0.950 . S
H2607 C2636 0.950 . S
H2608 C2638 0.950 . S
H2609 C2639 0.950 . S
C2610 H2592 0.951 . S
C2610 C2611 1.366 . S
C2610 C2612 1.388 . S
C2611 C2610 1.366 . S
C2611 C2615 1.385 . S
C2612 H2593 0.951 . S
C2612 C2610 1.388 . S
C2612 C2613 1.366 . S
C2613 C2612 1.366 . S
C2613 C2614 1.414 . S
C2613 C2616 1.499 . S
C2614 H2594 0.950 . S
C2614 C2613 1.414 . S
C2614 C2615 1.374 . S
C2615 H2595 0.950 . S
C2615 C2611 1.385 . S
C2615 C2614 1.374 . S
C2616 C2613 1.499 . S
C2616 C2617 1.373 . S
C2616 C2618 1.389 . S
C2617 H2596 0.950 . S
C2617 C2616 1.373 . S
C2617 C2633 1.377 . S
C2618 C2616 1.389 . S
C2618 C2619 1.524 . S
C2618 C2632 1.377 . S
C2619 C2618 1.524 . S
C2619 C2620 1.397 . S
C2619 C2624 1.363 . S
C2620 H2597 0.950 . S
C2620 C2619 1.397 . S
C2620 C2621 1.334 . S
C2621 H2598 0.950 . S
C2621 C2620 1.334 . S
C2621 C2622 1.287 . S
C2622 C2621 1.287 . S
C2622 C2623 1.524 . S
C2622 H2641 0.913 . S
C2623 H2599 0.950 . S
C2623 C2622 1.524 . S
C2623 C2624 1.415 . S
C2624 H2600 0.950 . S
C2624 C2619 1.363 . S
C2624 C2623 1.415 . S
C2625 H2601 0.951 . S
C2625 C2626 1.366 . S
C2625 C2627 1.388 . S
C2626 C2625 1.366 . S
C2626 C2630 1.385 . S
C2627 H2602 0.951 . S
C2627 C2625 1.388 . S
C2627 C2628 1.366 . S
C2628 C2627 1.366 . S
C2628 C2629 1.414 . S
C2628 C2631 1.499 . S
C2629 H2603 0.950 . S
C2629 C2628 1.414 . S
C2629 C2630 1.374 . S
C2630 H2604 0.950 . S
C2630 C2626 1.385 . S
C2630 C2629 1.374 . S
C2631 C2628 1.499 . S
C2631 C2632 1.373 . S
C2631 C2633 1.389 . S
C2632 H2605 0.950 . S
C2632 C2618 1.377 . S
C2632 C2631 1.373 . S
C2633 C2617 1.377 . S
C2633 C2631 1.389 . S
C2633 C2634 1.524 . S
C2634 C2633 1.524 . S
C2634 C2635 1.397 . S
C2634 C2639 1.363 . S
C2635 H2606 0.950 . S
C2635 C2634 1.397 . S
C2635 C2636 1.334 . S
C2636 H2607 0.950 . S
C2636 C2635 1.334 . S
C2636 C2637 1.287 . S
C2637 C2636 1.287 . S
C2637 C2638 1.524 . S
C2637 H2640 0.999 . S
C2638 H2608 0.950 . S
C2638 C2637 1.524 . S
C2638 C2639 1.415 . S
C2639 H2609 0.950 . S
C2639 C2634 1.363 . S
C2639 C2638 1.415 . S
H2640 C2637 0.999 . S
H2641 C2622 0.913 . S
H2642 C2660 0.951 . S
H2643 C2662 0.951 . S
H2644 C2664 0.950 1_565 S
H2645 C2665 0.950 . S
H2646 C2667 0.950 1_565 S
H2647 C2670 0.950 . S
H2648 C2671 0.950 . S
H2649 C2673 0.950 . S
H2650 C2674 0.950 . S
H2651 C2675 0.951 . S
H2652 C2677 0.951 . S
H2653 C2679 0.950 . S
H2654 C2680 0.950 . S
H2655 C2682 0.950 . S
H2656 C2685 0.950 . S
H2657 C2686 0.950 . S
H2658 C2688 0.950 . S
H2659 C2689 0.950 . S
C2660 H2642 0.951 . S
C2660 C2661 1.366 . S
C2660 C2662 1.388 . S
C2661 C2660 1.366 . S
C2661 C2665 1.385 . S
C2662 H2643 0.951 . S
C2662 C2660 1.388 . S
C2662 C2663 1.366 . S
C2663 C2662 1.366 . S
C2663 C2664 1.414 . S
C2663 C2666 1.499 . S
C2664 H2644 0.950 1_545 S
C2664 C2663 1.414 . S
C2664 C2665 1.374 . S
C2665 H2645 0.950 . S
C2665 C2661 1.385 . S
C2665 C2664 1.374 . S
C2666 C2663 1.499 . S
C2666 C2667 1.373 . S
C2666 C2668 1.389 . S
C2667 H2646 0.950 1_545 S
C2667 C2666 1.373 . S
C2667 C2683 1.377 . S
C2668 C2666 1.389 . S
C2668 C2669 1.524 . S
C2668 C2682 1.377 . S
C2669 C2668 1.524 . S
C2669 C2670 1.397 . S
C2669 C2674 1.363 . S
C2670 H2647 0.950 . S
C2670 C2669 1.397 . S
C2670 C2671 1.334 . S
C2671 H2648 0.950 . S
C2671 C2670 1.334 . S
C2671 C2672 1.287 . S
C2672 C2671 1.287 . S
C2672 C2673 1.524 . S
C2672 H2691 0.913 . S
C2673 H2649 0.950 . S
C2673 C2672 1.524 . S
C2673 C2674 1.415 . S
C2674 H2650 0.950 . S
C2674 C2669 1.363 . S
C2674 C2673 1.415 . S
C2675 H2651 0.951 . S
C2675 C2676 1.366 1_565 S
C2675 C2677 1.388 . S
C2676 C2675 1.366 1_545 S
C2676 C2680 1.385 . S
C2677 H2652 0.951 . S
C2677 C2675 1.388 . S
C2677 C2678 1.366 1_565 S
C2678 C2677 1.366 1_545 S
C2678 C2679 1.414 . S
C2678 C2681 1.499 . S
C2679 H2653 0.950 . S
C2679 C2678 1.414 . S
C2679 C2680 1.374 . S
C2680 H2654 0.950 . S
C2680 C2676 1.385 . S
C2680 C2679 1.374 . S
C2681 C2678 1.499 . S
C2681 C2682 1.373 . S
C2681 C2683 1.389 . S
C2682 H2655 0.950 . S
C2682 C2668 1.377 . S
C2682 C2681 1.373 . S
C2683 C2667 1.377 . S
C2683 C2681 1.389 . S
C2683 C2684 1.524 1_545 S
C2684 C2683 1.524 1_565 S
C2684 C2685 1.397 . S
C2684 C2689 1.363 . S
C2685 H2656 0.950 . S
C2685 C2684 1.397 . S
C2685 C2686 1.334 . S
C2686 H2657 0.950 . S
C2686 C2685 1.334 . S
C2686 C2687 1.287 . S
C2687 C2686 1.287 . S
C2687 C2688 1.524 . S
C2687 H2690 0.999 . S
C2688 H2658 0.950 . S
C2688 C2687 1.524 . S
C2688 C2689 1.415 . S
C2689 H2659 0.950 . S
C2689 C2684 1.363 . S
C2689 C2688 1.415 . S
H2690 C2687 0.999 . S
H2691 C2672 0.913 . S
H2692 C2710 0.951 . S
H2693 C2712 0.951 . S
H2694 C2714 0.950 . S
H2695 C2715 0.950 . S
H2696 C2717 0.950 . S
H2697 C2720 0.950 . S
H2698 C2721 0.950 . S
H2699 C2723 0.950 . S
H2700 C2724 0.950 . S
H2701 C2725 0.951 . S
H2702 C2727 0.951 . S
H2703 C2729 0.950 . S
H2704 C2730 0.950 . S
H2705 C2732 0.950 . S
H2706 C2735 0.950 . S
H2707 C2736 0.950 . S
H2708 C2738 0.950 . S
H2709 C2739 0.950 . S
C2710 H2692 0.951 . S
C2710 C2711 1.366 . S
C2710 C2712 1.388 . S
C2711 C2710 1.366 . S
C2711 C2715 1.385 . S
C2712 H2693 0.951 . S
C2712 C2710 1.388 . S
C2712 C2713 1.366 . S
C2713 C2712 1.366 . S
C2713 C2714 1.414 . S
C2713 C2716 1.499 . S
C2714 H2694 0.950 . S
C2714 C2713 1.414 . S
C2714 C2715 1.374 . S
C2715 H2695 0.950 . S
C2715 C2711 1.385 . S
C2715 C2714 1.374 . S
C2716 C2713 1.499 . S
C2716 C2717 1.373 . S
C2716 C2718 1.389 . S
C2717 H2696 0.950 . S
C2717 C2716 1.373 . S
C2717 C2733 1.377 . S
C2718 C2716 1.389 . S
C2718 C2719 1.524 . S
C2718 C2732 1.377 . S
C2719 C2718 1.524 . S
C2719 C2720 1.397 . S
C2719 C2724 1.363 . S
C2720 H2697 0.950 . S
C2720 C2719 1.397 . S
C2720 C2721 1.334 . S
C2721 H2698 0.950 . S
C2721 C2720 1.334 . S
C2721 C2722 1.287 . S
C2722 C2721 1.287 . S
C2722 C2723 1.524 . S
C2722 H2741 0.913 . S
C2723 H2699 0.950 . S
C2723 C2722 1.524 . S
C2723 C2724 1.415 . S
C2724 H2700 0.950 . S
C2724 C2719 1.363 . S
C2724 C2723 1.415 . S
C2725 H2701 0.951 . S
C2725 C2726 1.366 . S
C2725 C2727 1.388 . S
C2726 C2725 1.366 . S
C2726 C2730 1.385 . S
C2727 H2702 0.951 . S
C2727 C2725 1.388 . S
C2727 C2728 1.366 . S
C2728 C2727 1.366 . S
C2728 C2729 1.414 . S
C2728 C2731 1.499 . S
C2729 H2703 0.950 . S
C2729 C2728 1.414 . S
C2729 C2730 1.374 . S
C2730 H2704 0.950 . S
C2730 C2726 1.385 . S
C2730 C2729 1.374 . S
C2731 C2728 1.499 . S
C2731 C2732 1.373 . S
C2731 C2733 1.389 . S
C2732 H2705 0.950 . S
C2732 C2718 1.377 . S
C2732 C2731 1.373 . S
C2733 C2717 1.377 . S
C2733 C2731 1.389 . S
C2733 C2734 1.524 . S
C2734 C2733 1.524 . S
C2734 C2735 1.397 . S
C2734 C2739 1.363 . S
C2735 H2706 0.950 . S
C2735 C2734 1.397 . S
C2735 C2736 1.334 . S
C2736 H2707 0.950 . S
C2736 C2735 1.334 . S
C2736 C2737 1.287 . S
C2737 C2736 1.287 . S
C2737 C2738 1.524 . S
C2737 H2740 0.999 . S
C2738 H2708 0.950 . S
C2738 C2737 1.524 . S
C2738 C2739 1.415 . S
C2739 H2709 0.950 . S
C2739 C2734 1.363 . S
C2739 C2738 1.415 . S
H2740 C2737 0.999 . S
H2741 C2722 0.913 . S
H2742 C2760 0.951 . S
H2743 C2762 0.951 . S
H2744 C2764 0.950 . S
H2745 C2765 0.950 . S
H2746 C2767 0.950 . S
H2747 C2770 0.950 . S
H2748 C2771 0.950 . S
H2749 C2773 0.950 . S
H2750 C2774 0.950 . S
H2751 C2775 0.951 . S
H2752 C2777 0.951 . S
H2753 C2779 0.950 . S
H2754 C2780 0.950 . S
H2755 C2782 0.950 . S
H2756 C2785 0.950 . S
H2757 C2786 0.950 . S
H2758 C2788 0.950 . S
H2759 C2789 0.950 . S
C2760 H2742 0.951 . S
C2760 C2761 1.366 . S
C2760 C2762 1.388 . S
C2761 C2760 1.366 . S
C2761 C2765 1.385 . S
C2762 H2743 0.951 . S
C2762 C2760 1.388 . S
C2762 C2763 1.366 . S
C2763 C2762 1.366 . S
C2763 C2764 1.414 . S
C2763 C2766 1.499 . S
C2764 H2744 0.950 . S
C2764 C2763 1.414 . S
C2764 C2765 1.374 . S
C2765 H2745 0.950 . S
C2765 C2761 1.385 . S
C2765 C2764 1.374 . S
C2766 C2763 1.499 . S
C2766 C2767 1.373 . S
C2766 C2768 1.389 . S
C2767 H2746 0.950 . S
C2767 C2766 1.373 . S
C2767 C2783 1.377 . S
C2768 C2766 1.389 . S
C2768 C2769 1.524 . S
C2768 C2782 1.377 . S
C2769 C2768 1.524 . S
C2769 C2770 1.397 . S
C2769 C2774 1.363 . S
C2770 H2747 0.950 . S
C2770 C2769 1.397 . S
C2770 C2771 1.334 . S
C2771 H2748 0.950 . S
C2771 C2770 1.334 . S
C2771 C2772 1.287 . S
C2772 C2771 1.287 . S
C2772 C2773 1.524 . S
C2772 H2791 0.913 . S
C2773 H2749 0.950 . S
C2773 C2772 1.524 . S
C2773 C2774 1.415 . S
C2774 H2750 0.950 . S
C2774 C2769 1.363 . S
C2774 C2773 1.415 . S
C2775 H2751 0.951 . S
C2775 C2776 1.366 . S
C2775 C2777 1.388 . S
C2776 C2775 1.366 . S
C2776 C2780 1.385 . S
C2777 H2752 0.951 . S
C2777 C2775 1.388 . S
C2777 C2778 1.366 . S
C2778 C2777 1.366 . S
C2778 C2779 1.414 . S
C2778 C2781 1.499 . S
C2779 H2753 0.950 . S
C2779 C2778 1.414 . S
C2779 C2780 1.374 . S
C2780 H2754 0.950 . S
C2780 C2776 1.385 . S
C2780 C2779 1.374 . S
C2781 C2778 1.499 . S
C2781 C2782 1.373 . S
C2781 C2783 1.389 . S
C2782 H2755 0.950 . S
C2782 C2768 1.377 . S
C2782 C2781 1.373 . S
C2783 C2767 1.377 . S
C2783 C2781 1.389 . S
C2783 C2784 1.524 . S
C2784 C2783 1.524 . S
C2784 C2785 1.397 . S
C2784 C2789 1.363 . S
C2785 H2756 0.950 . S
C2785 C2784 1.397 . S
C2785 C2786 1.334 . S
C2786 H2757 0.950 . S
C2786 C2785 1.334 . S
C2786 C2787 1.287 . S
C2787 C2786 1.287 . S
C2787 C2788 1.524 . S
C2787 H2790 0.999 . S
C2788 H2758 0.950 . S
C2788 C2787 1.524 . S
C2788 C2789 1.415 . S
C2789 H2759 0.950 . S
C2789 C2784 1.363 . S
C2789 C2788 1.415 . S
H2790 C2787 0.999 . S
H2791 C2772 0.913 . S
H2792 C2810 0.951 . S
H2793 C2812 0.951 . S
H2794 C2814 0.950 . S
H2795 C2815 0.950 . S
H2796 C2817 0.950 . S
H2797 C2820 0.950 . S
H2798 C2821 0.950 . S
H2799 C2823 0.950 . S
H2800 C2824 0.950 . S
H2801 C2825 0.951 . S
H2802 C2827 0.951 . S
H2803 C2829 0.950 . S
H2804 C2830 0.950 . S
H2805 C2832 0.950 . S
H2806 C2835 0.950 . S
H2807 C2836 0.950 . S
H2808 C2838 0.950 . S
H2809 C2839 0.950 . S
C2810 H2792 0.951 . S
C2810 C2811 1.366 . S
C2810 C2812 1.388 . S
C2811 C2810 1.366 . S
C2811 C2815 1.385 . S
C2812 H2793 0.951 . S
C2812 C2810 1.388 . S
C2812 C2813 1.366 . S
C2813 C2812 1.366 . S
C2813 C2814 1.414 . S
C2813 C2816 1.499 . S
C2814 H2794 0.950 . S
C2814 C2813 1.414 . S
C2814 C2815 1.374 . S
C2815 H2795 0.950 . S
C2815 C2811 1.385 . S
C2815 C2814 1.374 . S
C2816 C2813 1.499 . S
C2816 C2817 1.373 . S
C2816 C2818 1.389 . S
C2817 H2796 0.950 . S
C2817 C2816 1.373 . S
C2817 C2833 1.377 . S
C2818 C2816 1.389 . S
C2818 C2819 1.524 . S
C2818 C2832 1.377 . S
C2819 C2818 1.524 . S
C2819 C2820 1.397 . S
C2819 C2824 1.363 . S
C2820 H2797 0.950 . S
C2820 C2819 1.397 . S
C2820 C2821 1.334 . S
C2821 H2798 0.950 . S
C2821 C2820 1.334 . S
C2821 C2822 1.287 . S
C2822 C2821 1.287 . S
C2822 C2823 1.524 . S
C2822 H2841 0.913 . S
C2823 H2799 0.950 . S
C2823 C2822 1.524 . S
C2823 C2824 1.415 . S
C2824 H2800 0.950 . S
C2824 C2819 1.363 . S
C2824 C2823 1.415 . S
C2825 H2801 0.951 . S
C2825 C2826 1.366 . S
C2825 C2827 1.388 . S
C2826 C2825 1.366 . S
C2826 C2830 1.385 . S
C2827 H2802 0.951 . S
C2827 C2825 1.388 . S
C2827 C2828 1.366 . S
C2828 C2827 1.366 . S
C2828 C2829 1.414 . S
C2828 C2831 1.499 . S
C2829 H2803 0.950 . S
C2829 C2828 1.414 . S
C2829 C2830 1.374 . S
C2830 H2804 0.950 . S
C2830 C2826 1.385 . S
C2830 C2829 1.374 . S
C2831 C2828 1.499 . S
C2831 C2832 1.373 . S
C2831 C2833 1.389 . S
C2832 H2805 0.950 . S
C2832 C2818 1.377 . S
C2832 C2831 1.373 . S
C2833 C2817 1.377 . S
C2833 C2831 1.389 . S
C2833 C2834 1.524 . S
C2834 C2833 1.524 . S
C2834 C2835 1.397 . S
C2834 C2839 1.363 . S
C2835 H2806 0.950 . S
C2835 C2834 1.397 . S
C2835 C2836 1.334 . S
C2836 H2807 0.950 . S
C2836 C2835 1.334 . S
C2836 C2837 1.287 . S
C2837 C2836 1.287 . S
C2837 C2838 1.524 . S
C2837 H2840 0.999 . S
C2838 H2808 0.950 . S
C2838 C2837 1.524 . S
C2838 C2839 1.415 . S
C2839 H2809 0.950 . S
C2839 C2834 1.363 . S
C2839 C2838 1.415 . S
H2840 C2837 0.999 . S
H2841 C2822 0.913 . S
H2842 C2860 0.951 . S
H2843 C2862 0.951 . S
H2844 C2864 0.950 . S
H2845 C2865 0.950 . S
H2846 C2867 0.950 1_565 S
H2847 C2870 0.950 . S
H2848 C2871 0.950 . S
H2849 C2873 0.950 . S
H2850 C2874 0.950 . S
H2851 C2875 0.951 1_565 S
H2852 C2877 0.951 1_565 S
H2853 C2879 0.950 . S
H2854 C2880 0.950 . S
H2855 C2882 0.950 . S
H2856 C2885 0.950 . S
H2857 C2886 0.950 . S
H2858 C2888 0.950 . S
H2859 C2889 0.950 . S
C2860 H2842 0.951 . S
C2860 C2861 1.366 . S
C2860 C2862 1.388 . S
C2861 C2860 1.366 . S
C2861 C2865 1.385 . S
C2862 H2843 0.951 . S
C2862 C2860 1.388 . S
C2862 C2863 1.366 . S
C2863 C2862 1.366 . S
C2863 C2864 1.414 . S
C2863 C2866 1.499 . S
C2864 H2844 0.950 . S
C2864 C2863 1.414 . S
C2864 C2865 1.374 . S
C2865 H2845 0.950 . S
C2865 C2861 1.385 . S
C2865 C2864 1.374 . S
C2866 C2863 1.499 . S
C2866 C2867 1.373 . S
C2866 C2868 1.389 . S
C2867 H2846 0.950 1_545 S
C2867 C2866 1.373 . S
C2867 C2883 1.377 . S
C2868 C2866 1.389 . S
C2868 C2869 1.524 . S
C2868 C2882 1.377 . S
C2869 C2868 1.524 . S
C2869 C2870 1.397 . S
C2869 C2874 1.363 . S
C2870 H2847 0.950 . S
C2870 C2869 1.397 . S
C2870 C2871 1.334 . S
C2871 H2848 0.950 . S
C2871 C2870 1.334 . S
C2871 C2872 1.287 . S
C2872 C2871 1.287 . S
C2872 C2873 1.524 . S
C2872 H2891 0.913 . S
C2873 H2849 0.950 . S
C2873 C2872 1.524 . S
C2873 C2874 1.415 . S
C2874 H2850 0.950 . S
C2874 C2869 1.363 . S
C2874 C2873 1.415 . S
C2875 H2851 0.951 1_545 S
C2875 C2876 1.366 . S
C2875 C2877 1.388 . S
C2876 C2875 1.366 . S
C2876 C2880 1.385 . S
C2877 H2852 0.951 1_545 S
C2877 C2875 1.388 . S
C2877 C2878 1.366 . S
C2878 C2877 1.366 . S
C2878 C2879 1.414 . S
C2878 C2881 1.499 . S
C2879 H2853 0.950 . S
C2879 C2878 1.414 . S
C2879 C2880 1.374 . S
C2880 H2854 0.950 . S
C2880 C2876 1.385 . S
C2880 C2879 1.374 . S
C2881 C2878 1.499 . S
C2881 C2882 1.373 . S
C2881 C2883 1.389 . S
C2882 H2855 0.950 . S
C2882 C2868 1.377 . S
C2882 C2881 1.373 . S
C2883 C2867 1.377 . S
C2883 C2881 1.389 . S
C2883 C2884 1.524 1_545 S
C2884 C2883 1.524 1_565 S
C2884 C2885 1.397 . S
C2884 C2889 1.363 . S
C2885 H2856 0.950 . S
C2885 C2884 1.397 . S
C2885 C2886 1.334 . S
C2886 H2857 0.950 . S
C2886 C2885 1.334 . S
C2886 C2887 1.287 . S
C2887 C2886 1.287 . S
C2887 C2888 1.524 . S
C2887 H2890 0.999 . S
C2888 H2858 0.950 . S
C2888 C2887 1.524 . S
C2888 C2889 1.415 . S
C2889 H2859 0.950 . S
C2889 C2884 1.363 . S
C2889 C2888 1.415 . S
H2890 C2887 0.999 . S
H2891 C2872 0.913 . S
H2892 C2910 0.951 . S
H2893 C2912 0.951 . S
H2894 C2914 0.950 . S
H2895 C2915 0.950 . S
H2896 C2917 0.950 . S
H2897 C2920 0.950 . S
H2898 C2921 0.950 . S
H2899 C2923 0.950 . S
H2900 C2924 0.950 . S
H2901 C2925 0.951 . S
H2902 C2927 0.951 . S
H2903 C2929 0.950 . S
H2904 C2930 0.950 . S
H2905 C2932 0.950 . S
H2906 C2935 0.950 . S
H2907 C2936 0.950 . S
H2908 C2938 0.950 . S
H2909 C2939 0.950 . S
C2910 H2892 0.951 . S
C2910 C2911 1.366 . S
C2910 C2912 1.388 . S
C2911 C2910 1.366 . S
C2911 C2915 1.385 . S
C2912 H2893 0.951 . S
C2912 C2910 1.388 . S
C2912 C2913 1.366 . S
C2913 C2912 1.366 . S
C2913 C2914 1.414 . S
C2913 C2916 1.499 . S
C2914 H2894 0.950 . S
C2914 C2913 1.414 . S
C2914 C2915 1.374 . S
C2915 H2895 0.950 . S
C2915 C2911 1.385 . S
C2915 C2914 1.374 . S
C2916 C2913 1.499 . S
C2916 C2917 1.373 . S
C2916 C2918 1.389 . S
C2917 H2896 0.950 . S
C2917 C2916 1.373 . S
C2917 C2933 1.377 . S
C2918 C2916 1.389 . S
C2918 C2919 1.524 . S
C2918 C2932 1.377 . S
C2919 C2918 1.524 . S
C2919 C2920 1.397 . S
C2919 C2924 1.363 . S
C2920 H2897 0.950 . S
C2920 C2919 1.397 . S
C2920 C2921 1.334 . S
C2921 H2898 0.950 . S
C2921 C2920 1.334 . S
C2921 C2922 1.287 . S
C2922 C2921 1.287 . S
C2922 C2923 1.524 . S
C2922 H2941 0.913 . S
C2923 H2899 0.950 . S
C2923 C2922 1.524 . S
C2923 C2924 1.415 . S
C2924 H2900 0.950 . S
C2924 C2919 1.363 . S
C2924 C2923 1.415 . S
C2925 H2901 0.951 . S
C2925 C2926 1.366 . S
C2925 C2927 1.388 . S
C2926 C2925 1.366 . S
C2926 C2930 1.385 . S
C2927 H2902 0.951 . S
C2927 C2925 1.388 . S
C2927 C2928 1.366 . S
C2928 C2927 1.366 . S
C2928 C2929 1.414 . S
C2928 C2931 1.499 . S
C2929 H2903 0.950 . S
C2929 C2928 1.414 . S
C2929 C2930 1.374 . S
C2930 H2904 0.950 . S
C2930 C2926 1.385 . S
C2930 C2929 1.374 . S
C2931 C2928 1.499 . S
C2931 C2932 1.373 . S
C2931 C2933 1.389 . S
C2932 H2905 0.950 . S
C2932 C2918 1.377 . S
C2932 C2931 1.373 . S
C2933 C2917 1.377 . S
C2933 C2931 1.389 . S
C2933 C2934 1.524 . S
C2934 C2933 1.524 . S
C2934 C2935 1.397 . S
C2934 C2939 1.363 . S
C2935 H2906 0.950 . S
C2935 C2934 1.397 . S
C2935 C2936 1.334 . S
C2936 H2907 0.950 . S
C2936 C2935 1.334 . S
C2936 C2937 1.287 . S
C2937 C2936 1.287 . S
C2937 C2938 1.524 . S
C2937 H2940 0.999 . S
C2938 H2908 0.950 . S
C2938 C2937 1.524 . S
C2938 C2939 1.415 . S
C2939 H2909 0.950 . S
C2939 C2934 1.363 . S
C2939 C2938 1.415 . S
H2940 C2937 0.999 . S
H2941 C2922 0.913 . S
H2942 C2960 0.951 . S
H2943 C2962 0.951 . S
H2944 C2964 0.950 . S
H2945 C2965 0.950 . S
H2946 C2967 0.950 . S
H2947 C2970 0.950 . S
H2948 C2971 0.950 1_655 S
H2949 C2973 0.950 1_655 S
H2950 C2974 0.950 . S
H2951 C2975 0.951 . S
H2952 C2977 0.951 . S
H2953 C2979 0.950 . S
H2954 C2980 0.950 . S
H2955 C2982 0.950 . S
H2956 C2985 0.950 . S
H2957 C2986 0.950 . S
H2958 C2988 0.950 . S
H2959 C2989 0.950 . S
C2960 H2942 0.951 . S
C2960 C2961 1.366 . S
C2960 C2962 1.388 . S
C2961 C2960 1.366 . S
C2961 C2965 1.385 . S
C2962 H2943 0.951 . S
C2962 C2960 1.388 . S
C2962 C2963 1.366 . S
C2963 C2962 1.366 . S
C2963 C2964 1.414 . S
C2963 C2966 1.499 . S
C2964 H2944 0.950 . S
C2964 C2963 1.414 . S
C2964 C2965 1.374 . S
C2965 H2945 0.950 . S
C2965 C2961 1.385 . S
C2965 C2964 1.374 . S
C2966 C2963 1.499 . S
C2966 C2967 1.373 . S
C2966 C2968 1.389 . S
C2967 H2946 0.950 . S
C2967 C2966 1.373 . S
C2967 C2983 1.377 . S
C2968 C2966 1.389 . S
C2968 C2969 1.524 . S
C2968 C2982 1.377 . S
C2969 C2968 1.524 . S
C2969 C2970 1.397 . S
C2969 C2974 1.363 . S
C2970 H2947 0.950 . S
C2970 C2969 1.397 . S
C2970 C2971 1.334 . S
C2971 H2948 0.950 1_455 S
C2971 C2970 1.334 . S
C2971 C2972 1.287 1_455 S
C2972 C2971 1.287 1_655 S
C2972 C2973 1.524 1_655 S
C2972 H2991 0.913 . S
C2973 H2949 0.950 1_455 S
C2973 C2972 1.524 1_455 S
C2973 C2974 1.415 . S
C2974 H2950 0.950 . S
C2974 C2969 1.363 . S
C2974 C2973 1.415 . S
C2975 H2951 0.951 . S
C2975 C2976 1.366 . S
C2975 C2977 1.388 . S
C2976 C2975 1.366 . S
C2976 C2980 1.385 . S
C2977 H2952 0.951 . S
C2977 C2975 1.388 . S
C2977 C2978 1.366 . S
C2978 C2977 1.366 . S
C2978 C2979 1.414 . S
C2978 C2981 1.499 . S
C2979 H2953 0.950 . S
C2979 C2978 1.414 . S
C2979 C2980 1.374 . S
C2980 H2954 0.950 . S
C2980 C2976 1.385 . S
C2980 C2979 1.374 . S
C2981 C2978 1.499 . S
C2981 C2982 1.373 . S
C2981 C2983 1.389 . S
C2982 H2955 0.950 . S
C2982 C2968 1.377 . S
C2982 C2981 1.373 . S
C2983 C2967 1.377 . S
C2983 C2981 1.389 . S
C2983 C2984 1.524 . S
C2984 C2983 1.524 . S
C2984 C2985 1.397 . S
C2984 C2989 1.363 . S
C2985 H2956 0.950 . S
C2985 C2984 1.397 . S
C2985 C2986 1.334 . S
C2986 H2957 0.950 . S
C2986 C2985 1.334 . S
C2986 C2987 1.287 . S
C2987 C2986 1.287 . S
C2987 C2988 1.524 . S
C2987 H2990 0.999 . S
C2988 H2958 0.950 . S
C2988 C2987 1.524 . S
C2988 C2989 1.415 . S
C2989 H2959 0.950 . S
C2989 C2984 1.363 . S
C2989 C2988 1.415 . S
H2990 C2987 0.999 . S
H2991 C2972 0.913 . S
H2992 C3010 0.951 . S
H2993 C3012 0.951 . S
H2994 C3014 0.950 . S
H2995 C3015 0.950 . S
H2996 C3017 0.950 . S
H2997 C3020 0.950 . S
H2998 C3021 0.950 . S
H2999 C3023 0.950 . S
H3000 C3024 0.950 . S
H3001 C3025 0.951 . S
H3002 C3027 0.951 . S
H3003 C3029 0.950 . S
H3004 C3030 0.950 . S
H3005 C3032 0.950 . S
H3006 C3035 0.950 . S
H3007 C3036 0.950 . S
H3008 C3038 0.950 . S
H3009 C3039 0.950 . S
C3010 H2992 0.951 . S
C3010 C3011 1.366 . S
C3010 C3012 1.388 . S
C3011 C3010 1.366 . S
C3011 C3015 1.385 . S
C3012 H2993 0.951 . S
C3012 C3010 1.388 . S
C3012 C3013 1.366 . S
C3013 C3012 1.366 . S
C3013 C3014 1.414 . S
C3013 C3016 1.499 . S
C3014 H2994 0.950 . S
C3014 C3013 1.414 . S
C3014 C3015 1.374 . S
C3015 H2995 0.950 . S
C3015 C3011 1.385 . S
C3015 C3014 1.374 . S
C3016 C3013 1.499 . S
C3016 C3017 1.373 . S
C3016 C3018 1.389 . S
C3017 H2996 0.950 . S
C3017 C3016 1.373 . S
C3017 C3033 1.377 . S
C3018 C3016 1.389 . S
C3018 C3019 1.524 . S
C3018 C3032 1.377 . S
C3019 C3018 1.524 . S
C3019 C3020 1.397 . S
C3019 C3024 1.363 . S
C3020 H2997 0.950 . S
C3020 C3019 1.397 . S
C3020 C3021 1.334 . S
C3021 H2998 0.950 . S
C3021 C3020 1.334 . S
C3021 C3022 1.287 . S
C3022 C3021 1.287 . S
C3022 C3023 1.524 . S
C3022 H3041 0.913 . S
C3023 H2999 0.950 . S
C3023 C3022 1.524 . S
C3023 C3024 1.415 . S
C3024 H3000 0.950 . S
C3024 C3019 1.363 . S
C3024 C3023 1.415 . S
C3025 H3001 0.951 . S
C3025 C3026 1.366 . S
C3025 C3027 1.388 . S
C3026 C3025 1.366 . S
C3026 C3030 1.385 . S
C3027 H3002 0.951 . S
C3027 C3025 1.388 . S
C3027 C3028 1.366 . S
C3028 C3027 1.366 . S
C3028 C3029 1.414 . S
C3028 C3031 1.499 . S
C3029 H3003 0.950 . S
C3029 C3028 1.414 . S
C3029 C3030 1.374 . S
C3030 H3004 0.950 . S
C3030 C3026 1.385 . S
C3030 C3029 1.374 . S
C3031 C3028 1.499 . S
C3031 C3032 1.373 . S
C3031 C3033 1.389 . S
C3032 H3005 0.950 . S
C3032 C3018 1.377 . S
C3032 C3031 1.373 . S
C3033 C3017 1.377 . S
C3033 C3031 1.389 . S
C3033 C3034 1.524 . S
C3034 C3033 1.524 . S
C3034 C3035 1.397 . S
C3034 C3039 1.363 . S
C3035 H3006 0.950 . S
C3035 C3034 1.397 . S
C3035 C3036 1.334 . S
C3036 H3007 0.950 . S
C3036 C3035 1.334 . S
C3036 C3037 1.287 . S
C3037 C3036 1.287 . S
C3037 C3038 1.524 . S
C3037 H3040 0.999 . S
C3038 H3008 0.950 . S
C3038 C3037 1.524 . S
C3038 C3039 1.415 . S
C3039 H3009 0.950 . S
C3039 C3034 1.363 . S
C3039 C3038 1.415 . S
H3040 C3037 0.999 . S
H3041 C3022 0.913 . S
H3042 C3060 0.977 . S
H3043 C3062 0.951 1_455 S
H3044 C3064 0.950 . S
H3045 C3065 0.950 . S
H3046 C3067 0.950 . S
H3047 C3070 0.950 . S
H3048 C3071 0.950 . S
H3049 C3073 0.950 . S
H3050 C3074 0.950 . S
H3051 C3075 0.951 . S
H3052 C3077 0.951 . S
H3053 C3079 0.950 . S
H3054 C3080 0.950 . S
H3055 C3082 0.950 . S
H3056 C3085 0.950 . S
H3057 C3086 0.950 . S
H3058 C3088 0.950 . S
H3059 C3089 0.950 . S
C3060 H3042 0.977 . S
C3060 C3061 1.366 . S
C3060 C3062 1.388 . S
C3061 C3060 1.366 . S
C3061 C3065 1.385 . S
C3062 H3043 0.951 1_655 S
C3062 C3060 1.388 . S
C3062 C3063 1.366 . S
C3063 C3062 1.366 . S
C3063 C3064 1.414 . S
C3063 C3066 1.499 . S
C3064 H3044 0.950 . S
C3064 C3063 1.414 . S
C3064 C3065 1.374 . S
C3065 H3045 0.950 . S
C3065 C3061 1.385 . S
C3065 C3064 1.374 . S
C3066 C3063 1.499 . S
C3066 C3067 1.373 . S
C3066 C3068 1.389 1_655 S
C3067 H3046 0.950 . S
C3067 C3066 1.373 . S
C3067 C3083 1.377 . S
C3068 C3066 1.389 1_455 S
C3068 C3069 1.524 . S
C3068 C3082 1.377 . S
C3069 C3068 1.524 . S
C3069 C3070 1.397 . S
C3069 C3074 1.363 . S
C3070 H3047 0.950 . S
C3070 C3069 1.397 . S
C3070 C3071 1.334 . S
C3071 H3048 0.950 . S
C3071 C3070 1.334 . S
C3071 C3072 1.287 . S
C3072 C3071 1.287 . S
C3072 C3073 1.524 . S
C3072 H3091 0.913 . S
C3073 H3049 0.950 . S
C3073 C3072 1.524 . S
C3073 C3074 1.415 . S
C3074 H3050 0.950 . S
C3074 C3069 1.363 . S
C3074 C3073 1.415 . S
C3075 H3051 0.951 . S
C3075 C3076 1.411 . S
C3075 C3077 1.388 . S
C3076 C3075 1.411 . S
C3076 C3080 1.351 1_655 S
C3077 H3052 0.951 . S
C3077 C3075 1.388 . S
C3077 C3078 1.366 . S
C3078 C3077 1.366 . S
C3078 C3079 1.414 1_655 S
C3078 C3081 1.499 . S
C3079 H3053 0.950 . S
C3079 C3078 1.414 1_455 S
C3079 C3080 1.374 . S
C3080 H3054 0.950 . S
C3080 C3076 1.351 1_455 S
C3080 C3079 1.374 . S
C3081 C3078 1.499 . S
C3081 C3082 1.373 1_655 S
C3081 C3083 1.389 . S
C3082 H3055 0.950 . S
C3082 C3068 1.377 . S
C3082 C3081 1.373 1_455 S
C3083 C3067 1.377 . S
C3083 C3081 1.389 . S
C3083 C3084 1.524 . S
C3084 C3083 1.524 . S
C3084 C3085 1.397 . S
C3084 C3089 1.363 . S
C3085 H3056 0.950 . S
C3085 C3084 1.397 . S
C3085 C3086 1.334 . S
C3086 H3057 0.950 . S
C3086 C3085 1.334 . S
C3086 C3087 1.287 . S
C3087 C3086 1.287 . S
C3087 C3088 1.524 . S
C3087 H3090 0.999 . S
C3088 H3058 0.950 . S
C3088 C3087 1.524 . S
C3088 C3089 1.415 . S
C3089 H3059 0.950 . S
C3089 C3084 1.363 . S
C3089 C3088 1.415 . S
H3090 C3087 0.999 . S
H3091 C3072 0.913 . S
H3092 C3110 0.951 . S
H3093 C3112 0.951 . S
H3094 C3114 0.950 . S
H3095 C3115 0.950 . S
H3096 C3117 0.950 . S
H3097 C3120 0.950 . S
H3098 C3121 0.950 . S
H3099 C3123 0.950 . S
H3100 C3124 0.950 . S
H3101 C3125 0.951 . S
H3102 C3127 0.951 . S
H3103 C3129 0.950 . S
H3104 C3130 0.950 . S
H3105 C3132 0.950 . S
H3106 C3135 0.950 . S
H3107 C3136 0.950 . S
H3108 C3138 0.950 . S
H3109 C3139 0.950 . S
C3110 H3092 0.951 . S
C3110 C3111 1.366 . S
C3110 C3112 1.388 . S
C3111 C3110 1.366 . S
C3111 C3115 1.385 . S
C3112 H3093 0.951 . S
C3112 C3110 1.388 . S
C3112 C3113 1.366 . S
C3113 C3112 1.366 . S
C3113 C3114 1.414 . S
C3113 C3116 1.499 . S
C3114 H3094 0.950 . S
C3114 C3113 1.414 . S
C3114 C3115 1.374 . S
C3115 H3095 0.950 . S
C3115 C3111 1.385 . S
C3115 C3114 1.374 . S
C3116 C3113 1.499 . S
C3116 C3117 1.373 . S
C3116 C3118 1.389 . S
C3117 H3096 0.950 . S
C3117 C3116 1.373 . S
C3117 C3133 1.377 . S
C3118 C3116 1.389 . S
C3118 C3119 1.524 . S
C3118 C3132 1.377 . S
C3119 C3118 1.524 . S
C3119 C3120 1.397 . S
C3119 C3124 1.363 . S
C3120 H3097 0.950 . S
C3120 C3119 1.397 . S
C3120 C3121 1.334 . S
C3121 H3098 0.950 . S
C3121 C3120 1.334 . S
C3121 C3122 1.287 . S
C3122 C3121 1.287 . S
C3122 C3123 1.524 . S
C3122 H3141 0.913 . S
C3123 H3099 0.950 . S
C3123 C3122 1.524 . S
C3123 C3124 1.415 . S
C3124 H3100 0.950 . S
C3124 C3119 1.363 . S
C3124 C3123 1.415 . S
C3125 H3101 0.951 . S
C3125 C3126 1.366 . S
C3125 C3127 1.388 . S
C3126 C3125 1.366 . S
C3126 C3130 1.385 . S
C3127 H3102 0.951 . S
C3127 C3125 1.388 . S
C3127 C3128 1.366 . S
C3128 C3127 1.366 . S
C3128 C3129 1.414 . S
C3128 C3131 1.499 . S
C3129 H3103 0.950 . S
C3129 C3128 1.414 . S
C3129 C3130 1.374 . S
C3130 H3104 0.950 . S
C3130 C3126 1.385 . S
C3130 C3129 1.374 . S
C3131 C3128 1.499 . S
C3131 C3132 1.373 . S
C3131 C3133 1.389 . S
C3132 H3105 0.950 . S
C3132 C3118 1.377 . S
C3132 C3131 1.373 . S
C3133 C3117 1.377 . S
C3133 C3131 1.389 . S
C3133 C3134 1.524 . S
C3134 C3133 1.524 . S
C3134 C3135 1.397 . S
C3134 C3139 1.363 . S
C3135 H3106 0.950 . S
C3135 C3134 1.397 . S
C3135 C3136 1.334 . S
C3136 H3107 0.950 . S
C3136 C3135 1.334 . S
C3136 C3137 1.287 . S
C3137 C3136 1.287 . S
C3137 C3138 1.524 . S
C3137 H3140 0.999 . S
C3138 H3108 0.950 . S
C3138 C3137 1.524 . S
C3138 C3139 1.415 . S
C3139 H3109 0.950 . S
C3139 C3134 1.363 . S
C3139 C3138 1.415 . S
H3140 C3137 0.999 . S
H3141 C3122 0.913 . S
H3142 C3160 0.954 1_655 S
H3143 C3162 0.951 1_655 S
H3144 C3164 0.950 . S
H3145 C3165 0.950 . S
H3146 C3167 0.950 . S
H3147 C3170 0.950 . S
H3148 C3171 0.950 . S
H3149 C3173 0.950 . S
H3150 C3174 0.950 . S
H3151 C3175 0.951 . S
H3152 C3177 0.951 . S
H3153 C3179 0.950 . S
H3154 C3180 0.950 . S
H3155 C3182 0.950 . S
H3156 C3185 0.950 1_655 S
H3157 C3186 0.966 . S
H3158 C3188 0.950 . S
H3159 C3189 0.950 . S
C3160 H3142 0.954 1_455 S
C3160 C3161 1.366 . S
C3160 C3162 1.388 . S
C3161 C3160 1.366 . S
C3161 C3165 1.385 . S
C3162 H3143 0.951 1_455 S
C3162 C3160 1.388 . S
C3162 C3163 1.366 . S
C3163 C3162 1.366 . S
C3163 C3164 1.414 . S
C3163 C3166 1.499 . S
C3164 H3144 0.950 . S
C3164 C3163 1.414 . S
C3164 C3165 1.374 . S
C3165 H3145 0.950 . S
C3165 C3161 1.385 . S
C3165 C3164 1.374 . S
C3166 C3163 1.499 . S
C3166 C3167 1.373 . S
C3166 C3168 1.389 . S
C3167 H3146 0.950 . S
C3167 C3166 1.373 . S
C3167 C3183 1.377 . S
C3168 C3166 1.389 . S
C3168 C3169 1.524 . S
C3168 C3182 1.377 . S
C3169 C3168 1.524 . S
C3169 C3170 1.397 . S
C3169 C3174 1.363 1_455 S
C3170 H3147 0.950 . S
C3170 C3169 1.397 . S
C3170 C3171 1.334 . S
C3171 H3148 0.950 . S
C3171 C3170 1.334 . S
C3171 C3172 1.287 . S
C3172 C3171 1.287 . S
C3172 C3173 1.524 1_455 S
C3172 H3191 0.913 . S
C3173 H3149 0.950 . S
C3173 C3172 1.524 1_655 S
C3173 C3174 1.415 . S
C3174 H3150 0.950 . S
C3174 C3169 1.363 1_655 S
C3174 C3173 1.415 . S
C3175 H3151 0.951 . S
C3175 C3176 1.366 . S
C3175 C3177 1.388 . S
C3176 C3175 1.366 . S
C3176 C3180 1.385 1_455 S
C3177 H3152 0.951 . S
C3177 C3175 1.388 . S
C3177 C3178 1.366 . S
C3178 C3177 1.366 . S
C3178 C3179 1.414 1_455 S
C3178 C3181 1.499 . S
C3179 H3153 0.950 . S
C3179 C3178 1.414 1_655 S
C3179 C3180 1.374 . S
C3180 H3154 0.950 . S
C3180 C3176 1.385 1_655 S
C3180 C3179 1.374 . S
C3181 C3178 1.499 . S
C3181 C3182 1.373 . S
C3181 C3183 1.389 . S
C3182 H3155 0.950 . S
C3182 C3168 1.377 . S
C3182 C3181 1.373 . S
C3183 C3167 1.377 . S
C3183 C3181 1.389 . S
C3183 C3184 1.524 . S
C3184 C3183 1.524 . S
C3184 C3185 1.397 . S
C3184 C3189 1.363 . S
C3185 H3156 0.950 1_455 S
C3185 C3184 1.397 . S
C3185 C3186 1.334 . S
C3186 H3157 0.966 . S
C3186 C3185 1.334 . S
C3186 C3187 1.287 . S
C3187 C3186 1.287 . S
C3187 C3188 1.524 . S
C3187 H3190 0.999 . S
C3188 H3158 0.950 . S
C3188 C3187 1.524 . S
C3188 C3189 1.415 . S
C3189 H3159 0.950 . S
C3189 C3184 1.363 . S
C3189 C3188 1.415 . S
H3190 C3187 0.999 . S
H3191 C3172 0.913 . S
H3192 C3210 0.951 . S
H3193 C3212 0.951 . S
H3194 C3214 0.950 . S
H3195 C3215 0.950 . S
H3196 C3217 0.950 . S
H3197 C3220 0.950 . S
H3198 C3221 0.950 . S
H3199 C3223 0.950 . S
H3200 C3224 0.950 . S
H3201 C3225 0.951 . S
H3202 C3227 0.951 . S
H3203 C3229 0.950 . S
H3204 C3230 0.950 . S
H3205 C3232 0.950 . S
H3206 C3235 0.950 . S
H3207 C3236 0.950 . S
H3208 C3238 0.950 . S
H3209 C3239 0.950 . S
C3210 H3192 0.951 . S
C3210 C3211 1.366 . S
C3210 C3212 1.388 . S
C3211 C3210 1.366 . S
C3211 C3215 1.385 . S
C3212 H3193 0.951 . S
C3212 C3210 1.388 . S
C3212 C3213 1.366 . S
C3213 C3212 1.366 . S
C3213 C3214 1.414 . S
C3213 C3216 1.499 . S
C3214 H3194 0.950 . S
C3214 C3213 1.414 . S
C3214 C3215 1.374 . S
C3215 H3195 0.950 . S
C3215 C3211 1.385 . S
C3215 C3214 1.374 . S
C3216 C3213 1.499 . S
C3216 C3217 1.373 . S
C3216 C3218 1.389 . S
C3217 H3196 0.950 . S
C3217 C3216 1.373 . S
C3217 C3233 1.377 . S
C3218 C3216 1.389 . S
C3218 C3219 1.524 . S
C3218 C3232 1.377 . S
C3219 C3218 1.524 . S
C3219 C3220 1.397 . S
C3219 C3224 1.363 . S
C3220 H3197 0.950 . S
C3220 C3219 1.397 . S
C3220 C3221 1.334 . S
C3221 H3198 0.950 . S
C3221 C3220 1.334 . S
C3221 C3222 1.287 . S
C3222 C3221 1.287 . S
C3222 C3223 1.524 . S
C3222 H3241 0.913 . S
C3223 H3199 0.950 . S
C3223 C3222 1.524 . S
C3223 C3224 1.415 . S
C3224 H3200 0.950 . S
C3224 C3219 1.363 . S
C3224 C3223 1.415 . S
C3225 H3201 0.951 . S
C3225 C3226 1.366 . S
C3225 C3227 1.388 . S
C3226 C3225 1.366 . S
C3226 C3230 1.385 . S
C3227 H3202 0.951 . S
C3227 C3225 1.388 . S
C3227 C3228 1.366 . S
C3228 C3227 1.366 . S
C3228 C3229 1.414 . S
C3228 C3231 1.499 . S
C3229 H3203 0.950 . S
C3229 C3228 1.414 . S
C3229 C3230 1.374 . S
C3230 H3204 0.950 . S
C3230 C3226 1.385 . S
C3230 C3229 1.374 . S
C3231 C3228 1.499 . S
C3231 C3232 1.373 . S
C3231 C3233 1.389 . S
C3232 H3205 0.950 . S
C3232 C3218 1.377 . S
C3232 C3231 1.373 . S
C3233 C3217 1.377 . S
C3233 C3231 1.389 . S
C3233 C3234 1.524 . S
C3234 C3233 1.524 . S
C3234 C3235 1.397 . S
C3234 C3239 1.363 . S
C3235 H3206 0.950 . S
C3235 C3234 1.397 . S
C3235 C3236 1.334 . S
C3236 H3207 0.950 . S
C3236 C3235 1.334 . S
C3236 C3237 1.287 . S
C3237 C3236 1.287 . S
C3237 C3238 1.524 . S
C3237 H3240 0.999 . S
C3238 H3208 0.950 . S
C3238 C3237 1.524 . S
C3238 C3239 1.415 . S
C3239 H3209 0.950 . S
C3239 C3234 1.363 . S
C3239 C3238 1.415 . S
H3240 C3237 0.999 . S
H3241 C3222 0.913 . S
H3242 C3260 0.951 . S
H3243 C3262 0.951 . S
H3244 C3264 0.950 . S
H3245 C3265 0.950 . S
H3246 C3267 0.950 . S
H3247 C3270 0.950 . S
H3248 C3271 0.950 . S
H3249 C3273 0.950 . S
H3250 C3274 0.950 . S
H3251 C3275 0.951 . S
H3252 C3277 0.951 . S
H3253 C3279 0.950 . S
H3254 C3280 0.950 . S
H3255 C3282 0.950 . S
H3256 C3285 0.950 . S
H3257 C3286 0.950 . S
H3258 C3288 0.950 . S
H3259 C3289 0.950 . S
C3260 H3242 0.951 . S
C3260 C3261 1.366 . S
C3260 C3262 1.388 . S
C3261 C3260 1.366 . S
C3261 C3265 1.385 . S
C3262 H3243 0.951 . S
C3262 C3260 1.388 . S
C3262 C3263 1.366 . S
C3263 C3262 1.366 . S
C3263 C3264 1.414 . S
C3263 C3266 1.499 . S
C3264 H3244 0.950 . S
C3264 C3263 1.414 . S
C3264 C3265 1.374 . S
C3265 H3245 0.950 . S
C3265 C3261 1.385 . S
C3265 C3264 1.374 . S
C3266 C3263 1.499 . S
C3266 C3267 1.373 . S
C3266 C3268 1.389 . S
C3267 H3246 0.950 . S
C3267 C3266 1.373 . S
C3267 C3283 1.377 . S
C3268 C3266 1.389 . S
C3268 C3269 1.524 . S
C3268 C3282 1.377 . S
C3269 C3268 1.524 . S
C3269 C3270 1.397 . S
C3269 C3274 1.363 . S
C3270 H3247 0.950 . S
C3270 C3269 1.397 . S
C3270 C3271 1.334 . S
C3271 H3248 0.950 . S
C3271 C3270 1.334 . S
C3271 C3272 1.287 . S
C3272 C3271 1.287 . S
C3272 C3273 1.524 . S
C3272 H3291 0.913 . S
C3273 H3249 0.950 . S
C3273 C3272 1.524 . S
C3273 C3274 1.415 . S
C3274 H3250 0.950 . S
C3274 C3269 1.363 . S
C3274 C3273 1.415 . S
C3275 H3251 0.951 . S
C3275 C3276 1.366 . S
C3275 C3277 1.388 . S
C3276 C3275 1.366 . S
C3276 C3280 1.385 . S
C3277 H3252 0.951 . S
C3277 C3275 1.388 . S
C3277 C3278 1.366 . S
C3278 C3277 1.366 . S
C3278 C3279 1.414 . S
C3278 C3281 1.499 . S
C3279 H3253 0.950 . S
C3279 C3278 1.414 . S
C3279 C3280 1.374 . S
C3280 H3254 0.950 . S
C3280 C3276 1.385 . S
C3280 C3279 1.374 . S
C3281 C3278 1.499 . S
C3281 C3282 1.373 . S
C3281 C3283 1.389 . S
C3282 H3255 0.950 . S
C3282 C3268 1.377 . S
C3282 C3281 1.373 . S
C3283 C3267 1.377 . S
C3283 C3281 1.389 . S
C3283 C3284 1.524 . S
C3284 C3283 1.524 . S
C3284 C3285 1.397 . S
C3284 C3289 1.363 . S
C3285 H3256 0.950 . S
C3285 C3284 1.397 . S
C3285 C3286 1.334 . S
C3286 H3257 0.950 . S
C3286 C3285 1.334 . S
C3286 C3287 1.287 . S
C3287 C3286 1.287 . S
C3287 C3288 1.524 . S
C3287 H3290 0.999 . S
C3288 H3258 0.950 . S
C3288 C3287 1.524 . S
C3288 C3289 1.415 . S
C3289 H3259 0.950 . S
C3289 C3284 1.363 . S
C3289 C3288 1.415 . S
H3290 C3287 0.999 . S
H3291 C3272 0.913 . S
H3292 C3310 0.951 . S
H3293 C3312 0.951 . S
H3294 C3314 0.950 . S
H3295 C3315 0.950 . S
H3296 C3317 0.950 . S
H3297 C3320 0.950 . S
H3298 C3321 0.950 . S
H3299 C3323 0.950 . S
H3300 C3324 0.950 . S
H3301 C3325 0.951 . S
H3302 C3327 0.951 . S
H3303 C3329 0.950 . S
H3304 C3330 0.950 . S
H3305 C3332 0.950 . S
H3306 C3335 0.950 . S
H3307 C3336 0.950 . S
H3308 C3338 0.950 . S
H3309 C3339 0.950 . S
C3310 H3292 0.951 . S
C3310 C3311 1.366 . S
C3310 C3312 1.388 . S
C3311 C3310 1.366 . S
C3311 C3315 1.385 . S
C3312 H3293 0.951 . S
C3312 C3310 1.388 . S
C3312 C3313 1.366 . S
C3313 C3312 1.366 . S
C3313 C3314 1.414 . S
C3313 C3316 1.499 . S
C3314 H3294 0.950 . S
C3314 C3313 1.414 . S
C3314 C3315 1.374 . S
C3315 H3295 0.950 . S
C3315 C3311 1.385 . S
C3315 C3314 1.374 . S
C3316 C3313 1.499 . S
C3316 C3317 1.373 . S
C3316 C3318 1.389 . S
C3317 H3296 0.950 . S
C3317 C3316 1.373 . S
C3317 C3333 1.377 . S
C3318 C3316 1.389 . S
C3318 C3319 1.524 . S
C3318 C3332 1.377 . S
C3319 C3318 1.524 . S
C3319 C3320 1.397 . S
C3319 C3324 1.363 . S
C3320 H3297 0.950 . S
C3320 C3319 1.397 . S
C3320 C3321 1.334 . S
C3321 H3298 0.950 . S
C3321 C3320 1.334 . S
C3321 C3322 1.287 . S
C3322 C3321 1.287 . S
C3322 C3323 1.524 . S
C3322 H3341 0.913 . S
C3323 H3299 0.950 . S
C3323 C3322 1.524 . S
C3323 C3324 1.415 . S
C3324 H3300 0.950 . S
C3324 C3319 1.363 . S
C3324 C3323 1.415 . S
C3325 H3301 0.951 . S
C3325 C3326 1.366 . S
C3325 C3327 1.388 . S
C3326 C3325 1.366 . S
C3326 C3330 1.385 . S
C3327 H3302 0.951 . S
C3327 C3325 1.388 . S
C3327 C3328 1.366 . S
C3328 C3327 1.366 . S
C3328 C3329 1.414 . S
C3328 C3331 1.499 . S
C3329 H3303 0.950 . S
C3329 C3328 1.414 . S
C3329 C3330 1.374 . S
C3330 H3304 0.950 . S
C3330 C3326 1.385 . S
C3330 C3329 1.374 . S
C3331 C3328 1.499 . S
C3331 C3332 1.373 . S
C3331 C3333 1.389 . S
C3332 H3305 0.950 . S
C3332 C3318 1.377 . S
C3332 C3331 1.373 . S
C3333 C3317 1.377 . S
C3333 C3331 1.389 . S
C3333 C3334 1.524 . S
C3334 C3333 1.524 . S
C3334 C3335 1.397 . S
C3334 C3339 1.363 . S
C3335 H3306 0.950 . S
C3335 C3334 1.397 . S
C3335 C3336 1.334 . S
C3336 H3307 0.950 . S
C3336 C3335 1.334 . S
C3336 C3337 1.287 . S
C3337 C3336 1.287 . S
C3337 C3338 1.524 . S
C3337 H3340 0.999 . S
C3338 H3308 0.950 . S
C3338 C3337 1.524 . S
C3338 C3339 1.415 . S
C3339 H3309 0.950 . S
C3339 C3334 1.363 . S
C3339 C3338 1.415 . S
H3340 C3337 0.999 . S
H3341 C3322 0.913 . S
H3342 C3360 0.951 . S
H3343 C3362 0.951 . S
H3344 C3364 0.950 . S
H3345 C3365 0.950 . S
H3346 C3367 0.950 . S
H3347 C3370 0.950 . S
H3348 C3371 0.950 . S
H3349 C3373 0.979 . S
H3350 C3374 0.950 . S
H3351 C3375 0.951 . S
H3352 C3377 0.951 . S
H3353 C3379 0.950 . S
H3354 C3380 0.950 . S
H3355 C3382 0.950 . S
H3356 C3385 0.950 . S
H3357 C3386 0.950 . S
H3358 C3388 0.950 . S
H3359 C3389 0.950 . S
C3360 H3342 0.951 . S
C3360 C3361 1.366 . S
C3360 C3362 1.388 . S
C3361 C3360 1.366 . S
C3361 C3365 1.385 . S
C3362 H3343 0.951 . S
C3362 C3360 1.388 . S
C3362 C3363 1.366 . S
C3363 C3362 1.366 . S
C3363 C3364 1.414 . S
C3363 C3366 1.499 . S
C3364 H3344 0.950 . S
C3364 C3363 1.414 . S
C3364 C3365 1.374 . S
C3365 H3345 0.950 . S
C3365 C3361 1.385 . S
C3365 C3364 1.374 . S
C3366 C3363 1.499 . S
C3366 C3367 1.373 . S
C3366 C3368 1.389 . S
C3367 H3346 0.950 . S
C3367 C3366 1.373 . S
C3367 C3383 1.377 . S
C3368 C3366 1.389 . S
C3368 C3369 1.524 . S
C3368 C3382 1.377 . S
C3369 C3368 1.524 . S
C3369 C3370 1.397 . S
C3369 C3374 1.363 . S
C3370 H3347 0.950 . S
C3370 C3369 1.397 . S
C3370 C3371 1.334 . S
C3371 H3348 0.950 . S
C3371 C3370 1.334 . S
C3371 C3372 1.287 . S
C3372 C3371 1.287 . S
C3372 C3373 1.524 . S
C3372 H3391 0.913 1_554 S
C3373 H3349 0.979 . S
C3373 C3372 1.524 . S
C3373 C3374 1.415 . S
C3374 H3350 0.950 . S
C3374 C3369 1.363 . S
C3374 C3373 1.415 . S
C3375 H3351 0.951 . S
C3375 C3376 1.366 . S
C3375 C3377 1.388 . S
C3376 C3375 1.366 . S
C3376 C3380 1.385 . S
C3377 H3352 0.951 . S
C3377 C3375 1.388 . S
C3377 C3378 1.366 . S
C3378 C3377 1.366 . S
C3378 C3379 1.414 . S
C3378 C3381 1.499 . S
C3379 H3353 0.950 . S
C3379 C3378 1.414 . S
C3379 C3380 1.374 . S
C3380 H3354 0.950 . S
C3380 C3376 1.385 . S
C3380 C3379 1.374 . S
C3381 C3378 1.499 . S
C3381 C3382 1.373 . S
C3381 C3383 1.389 . S
C3382 H3355 0.950 . S
C3382 C3368 1.377 . S
C3382 C3381 1.373 . S
C3383 C3367 1.377 . S
C3383 C3381 1.389 . S
C3383 C3384 1.524 . S
C3384 C3383 1.524 . S
C3384 C3385 1.397 . S
C3384 C3389 1.363 . S
C3385 H3356 0.950 . S
C3385 C3384 1.397 . S
C3385 C3386 1.334 . S
C3386 H3357 0.950 . S
C3386 C3385 1.334 . S
C3386 C3387 1.287 . S
C3387 C3386 1.287 . S
C3387 C3388 1.524 . S
C3387 H3390 0.999 . S
C3388 H3358 0.950 . S
C3388 C3387 1.524 . S
C3388 C3389 1.415 . S
C3389 H3359 0.950 . S
C3389 C3384 1.363 . S
C3389 C3388 1.415 . S
H3390 C3387 0.999 . S
H3391 C3372 0.913 1_556 S
H3392 C3410 0.951 . S
H3393 C3412 0.951 . S
H3394 C3414 0.950 . S
H3395 C3415 0.950 . S
H3396 C3417 0.950 . S
H3397 C3420 0.950 . S
H3398 C3421 0.950 . S
H3399 C3423 0.950 . S
H3400 C3424 0.950 . S
H3401 C3425 0.951 . S
H3402 C3427 0.951 . S
H3403 C3429 0.950 . S
H3404 C3430 0.950 . S
H3405 C3432 0.950 . S
H3406 C3435 0.950 . S
H3407 C3436 0.950 . S
H3408 C3438 0.950 . S
H3409 C3439 0.950 . S
C3410 H3392 0.951 . S
C3410 C3411 1.366 . S
C3410 C3412 1.388 . S
C3411 C3410 1.366 . S
C3411 C3415 1.385 . S
C3412 H3393 0.951 . S
C3412 C3410 1.388 . S
C3412 C3413 1.366 . S
C3413 C3412 1.366 . S
C3413 C3414 1.414 . S
C3413 C3416 1.499 . S
C3414 H3394 0.950 . S
C3414 C3413 1.414 . S
C3414 C3415 1.374 . S
C3415 H3395 0.950 . S
C3415 C3411 1.385 . S
C3415 C3414 1.374 . S
C3416 C3413 1.499 . S
C3416 C3417 1.373 . S
C3416 C3418 1.389 . S
C3417 H3396 0.950 . S
C3417 C3416 1.373 . S
C3417 C3433 1.377 . S
C3418 C3416 1.389 . S
C3418 C3419 1.524 . S
C3418 C3432 1.377 . S
C3419 C3418 1.524 . S
C3419 C3420 1.397 . S
C3419 C3424 1.363 . S
C3420 H3397 0.950 . S
C3420 C3419 1.397 . S
C3420 C3421 1.334 . S
C3421 H3398 0.950 . S
C3421 C3420 1.334 . S
C3421 C3422 1.287 . S
C3422 C3421 1.287 . S
C3422 C3423 1.524 . S
C3422 H3441 0.913 . S
C3423 H3399 0.950 . S
C3423 C3422 1.524 . S
C3423 C3424 1.415 . S
C3424 H3400 0.950 . S
C3424 C3419 1.363 . S
C3424 C3423 1.415 . S
C3425 H3401 0.951 . S
C3425 C3426 1.366 . S
C3425 C3427 1.388 . S
C3426 C3425 1.366 . S
C3426 C3430 1.385 . S
C3427 H3402 0.951 . S
C3427 C3425 1.388 . S
C3427 C3428 1.366 . S
C3428 C3427 1.366 . S
C3428 C3429 1.414 . S
C3428 C3431 1.499 . S
C3429 H3403 0.950 . S
C3429 C3428 1.414 . S
C3429 C3430 1.374 . S
C3430 H3404 0.950 . S
C3430 C3426 1.385 . S
C3430 C3429 1.374 . S
C3431 C3428 1.499 . S
C3431 C3432 1.373 . S
C3431 C3433 1.389 . S
C3432 H3405 0.950 . S
C3432 C3418 1.377 . S
C3432 C3431 1.373 . S
C3433 C3417 1.377 . S
C3433 C3431 1.389 . S
C3433 C3434 1.524 . S
C3434 C3433 1.524 . S
C3434 C3435 1.397 . S
C3434 C3439 1.363 . S
C3435 H3406 0.950 . S
C3435 C3434 1.397 . S
C3435 C3436 1.334 . S
C3436 H3407 0.950 . S
C3436 C3435 1.334 . S
C3436 C3437 1.287 . S
C3437 C3436 1.287 . S
C3437 C3438 1.524 . S
C3437 H3440 0.999 . S
C3438 H3408 0.950 . S
C3438 C3437 1.524 . S
C3438 C3439 1.415 . S
C3439 H3409 0.950 . S
C3439 C3434 1.363 . S
C3439 C3438 1.415 . S
H3440 C3437 0.999 . S
H3441 C3422 0.913 . S
H3442 C3460 0.951 . S
H3443 C3462 0.951 . S
H3444 C3464 0.950 . S
H3445 C3465 0.950 . S
H3446 C3467 0.950 . S
H3447 C3470 0.950 . S
H3448 C3471 0.950 . S
H3449 C3473 0.950 . S
H3450 C3474 0.950 . S
H3451 C3475 0.951 . S
H3452 C3477 0.951 . S
H3453 C3479 0.950 . S
H3454 C3480 0.950 . S
H3455 C3482 0.950 . S
H3456 C3485 0.950 . S
H3457 C3486 0.950 . S
H3458 C3488 0.950 . S
H3459 C3489 0.950 . S
C3460 H3442 0.951 . S
C3460 C3461 1.366 . S
C3460 C3462 1.388 . S
C3461 C3460 1.366 . S
C3461 C3465 1.385 . S
C3462 H3443 0.951 . S
C3462 C3460 1.388 . S
C3462 C3463 1.366 . S
C3463 C3462 1.366 . S
C3463 C3464 1.414 . S
C3463 C3466 1.499 . S
C3464 H3444 0.950 . S
C3464 C3463 1.414 . S
C3464 C3465 1.374 . S
C3465 H3445 0.950 . S
C3465 C3461 1.385 . S
C3465 C3464 1.374 . S
C3466 C3463 1.499 . S
C3466 C3467 1.373 . S
C3466 C3468 1.389 . S
C3467 H3446 0.950 . S
C3467 C3466 1.373 . S
C3467 C3483 1.377 . S
C3468 C3466 1.389 . S
C3468 C3469 1.524 . S
C3468 C3482 1.377 . S
C3469 C3468 1.524 . S
C3469 C3470 1.397 . S
C3469 C3474 1.363 . S
C3470 H3447 0.950 . S
C3470 C3469 1.397 . S
C3470 C3471 1.334 . S
C3471 H3448 0.950 . S
C3471 C3470 1.334 . S
C3471 C3472 1.287 . S
C3472 C3471 1.287 . S
C3472 C3473 1.524 . S
C3472 H3491 0.913 . S
C3473 H3449 0.950 . S
C3473 C3472 1.524 . S
C3473 C3474 1.415 . S
C3474 H3450 0.950 . S
C3474 C3469 1.363 . S
C3474 C3473 1.415 . S
C3475 H3451 0.951 . S
C3475 C3476 1.366 . S
C3475 C3477 1.388 . S
C3476 C3475 1.366 . S
C3476 C3480 1.385 . S
C3477 H3452 0.951 . S
C3477 C3475 1.388 . S
C3477 C3478 1.366 . S
C3478 C3477 1.366 . S
C3478 C3479 1.414 . S
C3478 C3481 1.499 . S
C3479 H3453 0.950 . S
C3479 C3478 1.414 . S
C3479 C3480 1.374 . S
C3480 H3454 0.950 . S
C3480 C3476 1.385 . S
C3480 C3479 1.374 . S
C3481 C3478 1.499 . S
C3481 C3482 1.373 . S
C3481 C3483 1.389 . S
C3482 H3455 0.950 . S
C3482 C3468 1.377 . S
C3482 C3481 1.373 . S
C3483 C3467 1.377 . S
C3483 C3481 1.389 . S
C3483 C3484 1.524 . S
C3484 C3483 1.524 . S
C3484 C3485 1.397 . S
C3484 C3489 1.363 . S
C3485 H3456 0.950 . S
C3485 C3484 1.397 . S
C3485 C3486 1.334 . S
C3486 H3457 0.950 . S
C3486 C3485 1.334 . S
C3486 C3487 1.287 . S
C3487 C3486 1.287 . S
C3487 C3488 1.524 . S
C3487 H3490 0.999 . S
C3488 H3458 0.950 . S
C3488 C3487 1.524 . S
C3488 C3489 1.415 . S
C3489 H3459 0.950 . S
C3489 C3484 1.363 . S
C3489 C3488 1.415 . S
H3490 C3487 0.999 . S
H3491 C3472 0.913 . S
H3492 C3510 0.951 . S
H3493 C3512 0.951 . S
H3494 C3514 0.950 . S
H3495 C3515 0.950 . S
H3496 C3517 0.950 . S
H3497 C3520 0.950 . S
H3498 C3521 0.950 . S
H3499 C3523 0.950 . S
H3500 C3524 0.950 . S
H3501 C3525 0.951 . S
H3502 C3527 0.951 . S
H3503 C3529 0.950 . S
H3504 C3530 0.950 . S
H3505 C3532 0.950 . S
H3506 C3535 0.950 . S
H3507 C3536 0.950 . S
H3508 C3538 0.950 . S
H3509 C3539 0.950 . S
C3510 H3492 0.951 . S
C3510 C3511 1.366 . S
C3510 C3512 1.388 . S
C3511 C3510 1.366 . S
C3511 C3515 1.385 . S
C3512 H3493 0.951 . S
C3512 C3510 1.388 . S
C3512 C3513 1.366 . S
C3513 C3512 1.366 . S
C3513 C3514 1.414 . S
C3513 C3516 1.499 . S
C3514 H3494 0.950 . S
C3514 C3513 1.414 . S
C3514 C3515 1.374 . S
C3515 H3495 0.950 . S
C3515 C3511 1.385 . S
C3515 C3514 1.374 . S
C3516 C3513 1.499 . S
C3516 C3517 1.373 . S
C3516 C3518 1.389 . S
C3517 H3496 0.950 . S
C3517 C3516 1.373 . S
C3517 C3533 1.377 . S
C3518 C3516 1.389 . S
C3518 C3519 1.524 . S
C3518 C3532 1.377 . S
C3519 C3518 1.524 . S
C3519 C3520 1.397 . S
C3519 C3524 1.363 . S
C3520 H3497 0.950 . S
C3520 C3519 1.397 . S
C3520 C3521 1.334 . S
C3521 H3498 0.950 . S
C3521 C3520 1.334 . S
C3521 C3522 1.287 . S
C3522 C3521 1.287 . S
C3522 C3523 1.524 . S
C3522 H3541 0.913 . S
C3523 H3499 0.950 . S
C3523 C3522 1.524 . S
C3523 C3524 1.415 . S
C3524 H3500 0.950 . S
C3524 C3519 1.363 . S
C3524 C3523 1.415 . S
C3525 H3501 0.951 . S
C3525 C3526 1.366 . S
C3525 C3527 1.388 . S
C3526 C3525 1.366 . S
C3526 C3530 1.385 . S
C3527 H3502 0.951 . S
C3527 C3525 1.388 . S
C3527 C3528 1.366 . S
C3528 C3527 1.366 . S
C3528 C3529 1.414 . S
C3528 C3531 1.499 . S
C3529 H3503 0.950 . S
C3529 C3528 1.414 . S
C3529 C3530 1.374 . S
C3530 H3504 0.950 . S
C3530 C3526 1.385 . S
C3530 C3529 1.374 . S
C3531 C3528 1.499 . S
C3531 C3532 1.373 . S
C3531 C3533 1.389 . S
C3532 H3505 0.950 . S
C3532 C3518 1.377 . S
C3532 C3531 1.373 . S
C3533 C3517 1.377 . S
C3533 C3531 1.389 . S
C3533 C3534 1.524 . S
C3534 C3533 1.524 . S
C3534 C3535 1.397 . S
C3534 C3539 1.363 . S
C3535 H3506 0.950 . S
C3535 C3534 1.397 . S
C3535 C3536 1.334 . S
C3536 H3507 0.950 . S
C3536 C3535 1.334 . S
C3536 C3537 1.287 . S
C3537 C3536 1.287 . S
C3537 C3538 1.524 . S
C3537 H3540 0.999 . S
C3538 H3508 0.950 . S
C3538 C3537 1.524 . S
C3538 C3539 1.415 . S
C3539 H3509 0.950 . S
C3539 C3534 1.363 . S
C3539 C3538 1.415 . S
H3540 C3537 0.999 . S
H3541 C3522 0.913 . S
H3542 C3560 0.951 . S
H3543 C3562 0.951 . S
H3544 C3564 0.950 . S
H3545 C3565 0.950 . S
H3546 C3567 0.950 . S
H3547 C3570 0.950 . S
H3548 C3571 0.950 . S
H3549 C3573 0.950 . S
H3550 C3574 0.950 . S
H3551 C3575 0.951 . S
H3552 C3577 0.951 . S
H3553 C3579 0.950 . S
H3554 C3580 0.950 . S
H3555 C3582 0.950 . S
H3556 C3585 0.950 . S
H3557 C3586 0.950 . S
H3558 C3588 0.950 . S
H3559 C3589 0.950 . S
C3560 H3542 0.951 . S
C3560 C3561 1.366 . S
C3560 C3562 1.388 . S
C3561 C3560 1.366 . S
C3561 C3565 1.385 . S
C3562 H3543 0.951 . S
C3562 C3560 1.388 . S
C3562 C3563 1.366 . S
C3563 C3562 1.366 . S
C3563 C3564 1.414 . S
C3563 C3566 1.499 . S
C3564 H3544 0.950 . S
C3564 C3563 1.414 . S
C3564 C3565 1.374 . S
C3565 H3545 0.950 . S
C3565 C3561 1.385 . S
C3565 C3564 1.374 . S
C3566 C3563 1.499 . S
C3566 C3567 1.373 . S
C3566 C3568 1.389 . S
C3567 H3546 0.950 . S
C3567 C3566 1.373 . S
C3567 C3583 1.377 . S
C3568 C3566 1.389 . S
C3568 C3569 1.524 . S
C3568 C3582 1.377 . S
C3569 C3568 1.524 . S
C3569 C3570 1.397 . S
C3569 C3574 1.363 . S
C3570 H3547 0.950 . S
C3570 C3569 1.397 . S
C3570 C3571 1.334 . S
C3571 H3548 0.950 . S
C3571 C3570 1.334 . S
C3571 C3572 1.287 . S
C3572 C3571 1.287 . S
C3572 C3573 1.524 . S
C3572 H3591 0.913 . S
C3573 H3549 0.950 . S
C3573 C3572 1.524 . S
C3573 C3574 1.415 . S
C3574 H3550 0.950 . S
C3574 C3569 1.363 . S
C3574 C3573 1.415 . S
C3575 H3551 0.951 . S
C3575 C3576 1.366 . S
C3575 C3577 1.388 . S
C3576 C3575 1.366 . S
C3576 C3580 1.385 . S
C3577 H3552 0.951 . S
C3577 C3575 1.388 . S
C3577 C3578 1.366 . S
C3578 C3577 1.366 . S
C3578 C3579 1.414 . S
C3578 C3581 1.499 . S
C3579 H3553 0.950 . S
C3579 C3578 1.414 . S
C3579 C3580 1.374 . S
C3580 H3554 0.950 . S
C3580 C3576 1.385 . S
C3580 C3579 1.374 . S
C3581 C3578 1.499 . S
C3581 C3582 1.373 . S
C3581 C3583 1.389 . S
C3582 H3555 0.950 . S
C3582 C3568 1.377 . S
C3582 C3581 1.373 . S
C3583 C3567 1.377 . S
C3583 C3581 1.389 . S
C3583 C3584 1.524 . S
C3584 C3583 1.524 . S
C3584 C3585 1.397 . S
C3584 C3589 1.363 . S
C3585 H3556 0.950 . S
C3585 C3584 1.397 . S
C3585 C3586 1.334 . S
C3586 H3557 0.950 . S
C3586 C3585 1.334 . S
C3586 C3587 1.287 . S
C3587 C3586 1.287 . S
C3587 C3588 1.524 . S
C3587 H3590 0.999 . S
C3588 H3558 0.950 . S
C3588 C3587 1.524 . S
C3588 C3589 1.415 . S
C3589 H3559 0.950 . S
C3589 C3584 1.363 . S
C3589 C3588 1.415 . S
H3590 C3587 0.999 . S
H3591 C3572 0.913 . S
H3592 C3610 0.951 . S
H3593 C3612 0.951 . S
H3594 C3614 0.950 . S
H3595 C3615 0.950 . S
H3596 C3617 0.950 . S
H3597 C3620 0.950 . S
H3598 C3621 0.950 . S
H3599 C3623 0.950 . S
H3600 C3624 0.950 . S
H3601 C3625 0.951 . S
H3602 C3627 0.951 . S
H3603 C3629 0.950 . S
H3604 C3630 0.950 . S
H3605 C3632 0.950 . S
H3606 C3635 0.950 . S
H3607 C3636 0.950 . S
H3608 C3638 0.950 . S
H3609 C3639 0.950 . S
C3610 H3592 0.951 . S
C3610 C3611 1.366 . S
C3610 C3612 1.388 . S
C3611 C3610 1.366 . S
C3611 C3615 1.385 . S
C3612 H3593 0.951 . S
C3612 C3610 1.388 . S
C3612 C3613 1.366 . S
C3613 C3612 1.366 . S
C3613 C3614 1.414 . S
C3613 C3616 1.499 . S
C3614 H3594 0.950 . S
C3614 C3613 1.414 . S
C3614 C3615 1.374 . S
C3615 H3595 0.950 . S
C3615 C3611 1.385 . S
C3615 C3614 1.374 . S
C3616 C3613 1.499 . S
C3616 C3617 1.373 . S
C3616 C3618 1.389 . S
C3617 H3596 0.950 . S
C3617 C3616 1.373 . S
C3617 C3633 1.377 . S
C3618 C3616 1.389 . S
C3618 C3619 1.524 . S
C3618 C3632 1.377 . S
C3619 C3618 1.524 . S
C3619 C3620 1.397 1_556 S
C3619 C3624 1.363 . S
C3620 H3597 0.950 . S
C3620 C3619 1.397 1_554 S
C3620 C3621 1.334 . S
C3621 H3598 0.950 . S
C3621 C3620 1.334 . S
C3621 C3622 1.287 . S
C3622 C3621 1.287 . S
C3622 C3623 1.524 1_554 S
C3622 H3641 0.913 . S
C3623 H3599 0.950 . S
C3623 C3622 1.524 1_556 S
C3623 C3624 1.415 . S
C3624 H3600 0.950 . S
C3624 C3619 1.363 . S
C3624 C3623 1.415 . S
C3625 H3601 0.951 . S
C3625 C3626 1.366 1_554 S
C3625 C3627 1.388 . S
C3626 C3625 1.366 1_556 S
C3626 C3630 1.385 . S
C3627 H3602 0.951 . S
C3627 C3625 1.388 . S
C3627 C3628 1.366 1_554 S
C3628 C3627 1.366 1_556 S
C3628 C3629 1.414 . S
C3628 C3631 1.499 . S
C3629 H3603 0.950 . S
C3629 C3628 1.414 . S
C3629 C3630 1.374 . S
C3630 H3604 0.950 . S
C3630 C3626 1.385 . S
C3630 C3629 1.374 . S
C3631 C3628 1.499 . S
C3631 C3632 1.373 . S
C3631 C3633 1.389 . S
C3632 H3605 0.950 . S
C3632 C3618 1.377 . S
C3632 C3631 1.373 . S
C3633 C3617 1.377 . S
C3633 C3631 1.389 . S
C3633 C3634 1.524 . S
C3634 C3633 1.524 . S
C3634 C3635 1.397 . S
C3634 C3639 1.363 . S
C3635 H3606 0.950 . S
C3635 C3634 1.397 . S
C3635 C3636 1.334 . S
C3636 H3607 0.950 . S
C3636 C3635 1.334 . S
C3636 C3637 1.287 . S
C3637 C3636 1.287 . S
C3637 C3638 1.524 . S
C3637 H3640 0.999 . S
C3638 H3608 0.950 . S
C3638 C3637 1.524 . S
C3638 C3639 1.415 . S
C3639 H3609 0.950 . S
C3639 C3634 1.363 . S
C3639 C3638 1.415 . S
H3640 C3637 0.999 . S
H3641 C3622 0.913 . S
H3642 C3660 0.951 . S
H3643 C3662 0.951 . S
H3644 C3664 0.950 . S
H3645 C3665 0.950 . S
H3646 C3667 0.950 . S
H3647 C3670 0.950 . S
H3648 C3671 0.950 . S
H3649 C3673 0.950 . S
H3650 C3674 0.950 . S
H3651 C3675 0.951 . S
H3652 C3677 0.951 . S
H3653 C3679 0.950 . S
H3654 C3680 0.950 . S
H3655 C3682 0.950 . S
H3656 C3685 0.950 . S
H3657 C3686 0.950 . S
H3658 C3688 0.950 . S
H3659 C3689 0.950 . S
C3660 H3642 0.951 . S
C3660 C3661 1.366 . S
C3660 C3662 1.388 . S
C3661 C3660 1.366 . S
C3661 C3665 1.385 . S
C3662 H3643 0.951 . S
C3662 C3660 1.388 . S
C3662 C3663 1.366 . S
C3663 C3662 1.366 . S
C3663 C3664 1.414 . S
C3663 C3666 1.499 . S
C3664 H3644 0.950 . S
C3664 C3663 1.414 . S
C3664 C3665 1.374 . S
C3665 H3645 0.950 . S
C3665 C3661 1.385 . S
C3665 C3664 1.374 . S
C3666 C3663 1.499 . S
C3666 C3667 1.373 . S
C3666 C3668 1.389 . S
C3667 H3646 0.950 . S
C3667 C3666 1.373 . S
C3667 C3683 1.377 . S
C3668 C3666 1.389 . S
C3668 C3669 1.524 . S
C3668 C3682 1.377 . S
C3669 C3668 1.524 . S
C3669 C3670 1.397 . S
C3669 C3674 1.363 . S
C3670 H3647 0.950 . S
C3670 C3669 1.397 . S
C3670 C3671 1.334 . S
C3671 H3648 0.950 . S
C3671 C3670 1.334 . S
C3671 C3672 1.287 . S
C3672 C3671 1.287 . S
C3672 C3673 1.524 . S
C3672 H3691 0.913 . S
C3673 H3649 0.950 . S
C3673 C3672 1.524 . S
C3673 C3674 1.415 . S
C3674 H3650 0.950 . S
C3674 C3669 1.363 . S
C3674 C3673 1.415 . S
C3675 H3651 0.951 . S
C3675 C3676 1.366 . S
C3675 C3677 1.388 . S
C3676 C3675 1.366 . S
C3676 C3680 1.385 . S
C3677 H3652 0.951 . S
C3677 C3675 1.388 . S
C3677 C3678 1.366 . S
C3678 C3677 1.366 . S
C3678 C3679 1.414 . S
C3678 C3681 1.499 . S
C3679 H3653 0.950 . S
C3679 C3678 1.414 . S
C3679 C3680 1.374 . S
C3680 H3654 0.950 . S
C3680 C3676 1.385 . S
C3680 C3679 1.374 . S
C3681 C3678 1.499 . S
C3681 C3682 1.373 . S
C3681 C3683 1.389 . S
C3682 H3655 0.950 . S
C3682 C3668 1.377 . S
C3682 C3681 1.373 . S
C3683 C3667 1.377 . S
C3683 C3681 1.389 . S
C3683 C3684 1.524 . S
C3684 C3683 1.524 . S
C3684 C3685 1.397 . S
C3684 C3689 1.363 . S
C3685 H3656 0.950 . S
C3685 C3684 1.397 . S
C3685 C3686 1.334 . S
C3686 H3657 0.950 . S
C3686 C3685 1.334 . S
C3686 C3687 1.287 . S
C3687 C3686 1.287 . S
C3687 C3688 1.524 . S
C3687 H3690 0.999 . S
C3688 H3658 0.950 . S
C3688 C3687 1.524 . S
C3688 C3689 1.415 . S
C3689 H3659 0.950 . S
C3689 C3684 1.363 . S
C3689 C3688 1.415 . S
H3690 C3687 0.999 . S
H3691 C3672 0.913 . S
H3692 C3710 0.951 . S
H3693 C3712 0.951 . S
H3694 C3714 0.950 . S
H3695 C3715 0.950 . S
H3696 C3717 0.950 . S
H3697 C3720 0.950 . S
H3698 C3721 0.950 . S
H3699 C3723 0.950 . S
H3700 C3724 0.950 . S
H3701 C3725 0.951 . S
H3702 C3727 0.951 . S
H3703 C3729 0.950 1_556 S
H3704 C3730 0.951 . S
H3705 C3732 0.950 . S
H3706 C3735 0.950 . S
H3707 C3736 0.950 . S
H3708 C3738 0.950 . S
H3709 C3739 0.950 . S
C3710 H3692 0.951 . S
C3710 C3711 1.366 . S
C3710 C3712 1.388 . S
C3711 C3710 1.366 . S
C3711 C3715 1.385 . S
C3712 H3693 0.951 . S
C3712 C3710 1.388 . S
C3712 C3713 1.366 . S
C3713 C3712 1.366 . S
C3713 C3714 1.414 . S
C3713 C3716 1.499 . S
C3714 H3694 0.950 . S
C3714 C3713 1.414 . S
C3714 C3715 1.374 . S
C3715 H3695 0.950 . S
C3715 C3711 1.385 . S
C3715 C3714 1.374 . S
C3716 C3713 1.499 . S
C3716 C3717 1.373 . S
C3716 C3718 1.389 . S
C3717 H3696 0.950 . S
C3717 C3716 1.373 . S
C3717 C3733 1.377 . S
C3718 C3716 1.389 . S
C3718 C3719 1.524 . S
C3718 C3732 1.377 . S
C3719 C3718 1.524 . S
C3719 C3720 1.397 . S
C3719 C3724 1.363 . S
C3720 H3697 0.950 . S
C3720 C3719 1.397 . S
C3720 C3721 1.334 . S
C3721 H3698 0.950 . S
C3721 C3720 1.334 . S
C3721 C3722 1.287 . S
C3722 C3721 1.287 . S
C3722 C3723 1.524 . S
C3722 H3741 0.913 . S
C3723 H3699 0.950 . S
C3723 C3722 1.524 . S
C3723 C3724 1.415 . S
C3724 H3700 0.950 . S
C3724 C3719 1.363 . S
C3724 C3723 1.415 . S
C3725 H3701 0.951 . S
C3725 C3726 1.366 . S
C3725 C3727 1.388 . S
C3726 C3725 1.366 . S
C3726 C3730 1.384 1_554 S
C3727 H3702 0.951 . S
C3727 C3725 1.388 . S
C3727 C3728 1.366 . S
C3728 C3727 1.366 . S
C3728 C3729 1.414 . S
C3728 C3731 1.499 . S
C3729 H3703 0.950 1_554 S
C3729 C3728 1.414 . S
C3729 C3730 1.374 1_554 S
C3730 H3704 0.951 . S
C3730 C3726 1.384 1_556 S
C3730 C3729 1.374 1_556 S
C3731 C3728 1.499 . S
C3731 C3732 1.373 . S
C3731 C3733 1.389 . S
C3732 H3705 0.950 . S
C3732 C3718 1.377 . S
C3732 C3731 1.373 . S
C3733 C3717 1.377 . S
C3733 C3731 1.389 . S
C3733 C3734 1.524 1_554 S
C3734 C3733 1.524 1_556 S
C3734 C3735 1.397 . S
C3734 C3739 1.363 1_556 S
C3735 H3706 0.950 . S
C3735 C3734 1.397 . S
C3735 C3736 1.334 . S
C3736 H3707 0.950 . S
C3736 C3735 1.334 . S
C3736 C3737 1.287 . S
C3737 C3736 1.287 . S
C3737 C3738 1.524 . S
C3737 H3740 0.999 . S
C3738 H3708 0.950 . S
C3738 C3737 1.524 . S
C3738 C3739 1.415 1_556 S
C3739 H3709 0.950 . S
C3739 C3734 1.363 1_554 S
C3739 C3738 1.415 1_554 S
H3740 C3737 0.999 . S
H3741 C3722 0.913 . S
H3742 C3760 1.008 . S
H3743 C3762 0.951 . S
H3744 C3764 0.950 . S
H3745 C3765 0.950 . S
H3746 C3767 0.950 . S
H3747 C3770 0.950 . S
H3748 C3771 0.950 . S
H3749 C3773 0.950 1_545 S
H3750 C3774 0.923 1_554 S
H3751 C3775 0.951 . S
H3752 C3777 0.951 . S
H3753 C3779 0.950 . S
H3754 C3780 0.950 . S
H3755 C3782 0.950 . S
H3756 C3785 0.950 . S
H3757 C3786 0.950 . S
H3758 C3788 0.950 . S
H3759 C3789 0.950 . S
C3760 H3742 1.008 . S
C3760 C3761 1.366 . S
C3760 C3762 1.388 . S
C3761 C3760 1.366 . S
C3761 C3765 1.385 . S
C3762 H3743 0.951 . S
C3762 C3760 1.388 . S
C3762 C3763 1.366 . S
C3763 C3762 1.366 . S
C3763 C3764 1.414 . S
C3763 C3766 1.499 . S
C3764 H3744 0.950 . S
C3764 C3763 1.414 . S
C3764 C3765 1.374 . S
C3765 H3745 0.950 . S
C3765 C3761 1.385 . S
C3765 C3764 1.374 . S
C3766 C3763 1.499 . S
C3766 C3767 1.373 . S
C3766 C3768 1.389 . S
C3767 H3746 0.950 . S
C3767 C3766 1.373 . S
C3767 C3783 1.377 . S
C3768 C3766 1.389 . S
C3768 C3769 1.524 1_554 S
C3768 C3782 1.377 . S
C3769 C3768 1.524 1_556 S
C3769 C3770 1.397 . S
C3769 C3774 1.364 . S
C3770 H3747 0.950 . S
C3770 C3769 1.397 . S
C3770 C3771 1.334 . S
C3771 H3748 0.950 . S
C3771 C3770 1.334 . S
C3771 C3772 1.287 . S
C3772 C3771 1.287 . S
C3772 C3773 1.524 . S
C3772 H3791 0.913 1_565 S
C3773 H3749 0.950 1_565 S
C3773 C3772 1.524 . S
C3773 C3774 1.443 . S
C3774 H3750 0.923 1_556 S
C3774 C3769 1.364 . S
C3774 C3773 1.443 . S
C3775 H3751 0.951 . S
C3775 C3776 1.366 . S
C3775 C3777 1.388 . S
C3776 C3775 1.366 . S
C3776 C3780 1.385 . S
C3777 H3752 0.951 . S
C3777 C3775 1.388 . S
C3777 C3778 1.366 . S
C3778 C3777 1.366 . S
C3778 C3779 1.414 . S
C3778 C3781 1.499 . S
C3779 H3753 0.950 . S
C3779 C3778 1.414 . S
C3779 C3780 1.374 . S
C3780 H3754 0.950 . S
C3780 C3776 1.385 . S
C3780 C3779 1.374 . S
C3781 C3778 1.499 . S
C3781 C3782 1.373 . S
C3781 C3783 1.389 . S
C3782 H3755 0.950 . S
C3782 C3768 1.377 . S
C3782 C3781 1.373 . S
C3783 C3767 1.377 . S
C3783 C3781 1.389 . S
C3783 C3784 1.524 . S
C3784 C3783 1.524 . S
C3784 C3785 1.397 . S
C3784 C3789 1.363 . S
C3785 H3756 0.950 . S
C3785 C3784 1.397 . S
C3785 C3786 1.334 . S
C3786 H3757 0.950 . S
C3786 C3785 1.334 . S
C3786 C3787 1.287 . S
C3787 C3786 1.287 . S
C3787 C3788 1.524 . S
C3787 H3790 0.999 . S
C3788 H3758 0.950 . S
C3788 C3787 1.524 . S
C3788 C3789 1.415 . S
C3789 H3759 0.950 . S
C3789 C3784 1.363 . S
C3789 C3788 1.415 . S
H3790 C3787 0.999 . S
H3791 C3772 0.913 1_545 S
C1426 C962 1.422 . S
C1411 C331 1.393 . S
C1476 C1010 1.662 . S
C1461 C380 1.695 . S
C1511 C421 1.368 . S
C1526 C1046 1.344 . S
C1576 C1082 1.606 . S
C1561 C260 1.624 . S
C1626 C1108 1.446 . S
C1611 C620 1.409 . S
C1676 C1144 1.610 . S
C1661 C740 1.591 . S
C1711 C680 1.462 . S
C1726 C1179 1.482 . S
C1776 C1216 1.628 1_565 S
C1761 C571 1.616 . S
C1811 C691 1.408 . S
C1826 C1250 1.411 . S
C1876 C1298 1.580 . S
C1861 C541 1.614 . S
C1911 C601 1.381 . S
C1926 C1251 1.427 . S
C1976 C1288 1.641 . S
C1961 C721 1.619 . S
C2011 C451 1.407 . S
C2026 C1334 1.381 . S
C2061 C241 1.631 . S
C2076 C1323 1.655 . S
C2111 C320 1.440 . S
C2126 C1324 1.475 . S
C2161 C391 1.663 . S
C2176 C1322 1.686 . S
C2211 C211 1.394 . S
C2226 C1070 1.423 . S
C2261 C841 1.377 . S
C2276 C1071 1.419 . S
C2326 C974 1.632 . S
C2311 C901 1.665 . S
C2376 C999 1.448 . S
C2361 C500 1.413 . S
C2411 C271 1.629 . S
C2426 C1106 1.656 . S
C2476 C1214 1.452 . S
C2461 C661 1.445 . S
C2526 C1107 1.620 . S
C2511 C560 1.604 . S
C2576 C1180 1.644 . S
C2561 C751 1.627 . S
C2626 C1178 1.422 . S
C2611 C871 1.393 . S
C2661 C920 1.695 . S
C2676 C1226 1.662 . S
C2711 C481 1.368 . S
C2726 C1118 1.345 . S
C2776 C1154 1.606 . S
C2761 C800 1.625 . S
C2811 C200 1.408 . S
C2826 C1036 1.445 . S
C2876 C1072 1.609 . S
C2861 C20 1.591 . S
C2926 C963 1.482 . S
C2911 C80 1.462 . S
C2976 C1000 1.633 . S
C2961 C151 1.615 . S
C3011 C91 1.409 . S
C3026 C1286 1.411 . S
C3061 C121 1.613 . S
C3076 C1262 1.582 . S
C3111 C181 1.382 . S
C3126 C1287 1.427 . S
C3161 C1 1.619 . S
C3176 C1252 1.640 . S
C3226 C1370 1.382 . S
C3211 C511 1.407 . S
C3276 C1359 1.655 . S
C3261 C781 1.631 . S
C3326 C1360 1.476 . S
C3311 C860 1.442 . S
C3361 C931 1.663 . S
C3376 C1358 1.679 . S
C3411 C631 1.395 . S
C3426 C1142 1.424 . S
C3476 C1143 1.419 . S
C3461 C301 1.376 . S
C3526 C1190 1.631 . S
C3511 C361 1.666 . S
C3576 C1215 1.448 . S
C3561 C440 1.420 . S
C3611 C811 1.630 . S
C3626 C1034 1.656 1_556 S
C3676 C998 1.452 . S
C3661 C61 1.450 . S
C3711 C140 1.605 . S
C3726 C1035 1.620 . S
C3776 C964 1.643 . S
C3761 C31 1.628 . S
