# Generated by pormake.
# Topology ctn, (3,4)-cn, num edge types: 1
# Building blocks:
#     Node 0, Type 0, BuildingBlock: PAMTOO_clean_linker_0, # of connection points: 3
#     Node 1, Type 0, BuildingBlock: PAMTOO_clean_linker_0, # of connection points: 3
#     Node 2, Type 0, BuildingBlock: PAMTOO_clean_linker_0, # of connection points: 3
#     Node 3, Type 0, BuildingBlock: PAMTOO_clean_linker_0, # of connection points: 3
#     Node 4, Type 0, BuildingBlock: PAMTOO_clean_linker_0, # of connection points: 3
#     Node 5, Type 0, BuildingBlock: PAMTOO_clean_linker_0, # of connection points: 3
#     Node 6, Type 0, BuildingBlock: PAMTOO_clean_linker_0, # of connection points: 3
#     Node 7, Type 0, BuildingBlock: PAMTOO_clean_linker_0, # of connection points: 3
#     Node 8, Type 0, BuildingBlock: PAMTOO_clean_linker_0, # of connection points: 3
#     Node 9, Type 0, BuildingBlock: PAMTOO_clean_linker_0, # of connection points: 3
#     Node 10, Type 0, BuildingBlock: PAMTOO_clean_linker_0, # of connection points: 3
#     Node 11, Type 0, BuildingBlock: PAMTOO_clean_linker_0, # of connection points: 3
#     Node 12, Type 0, BuildingBlock: PAMTOO_clean_linker_0, # of connection points: 3
#     Node 13, Type 0, BuildingBlock: PAMTOO_clean_linker_0, # of connection points: 3
#     Node 14, Type 0, BuildingBlock: PAMTOO_clean_linker_0, # of connection points: 3
#     Node 15, Type 0, BuildingBlock: PAMTOO_clean_linker_0, # of connection points: 3
#     Node 16, Type 1, BuildingBlock: UXUYUI_clean_sbu_0, # of connection points: 4
#     Node 17, Type 1, BuildingBlock: UXUYUI_clean_sbu_0, # of connection points: 4
#     Node 18, Type 1, BuildingBlock: UXUYUI_clean_sbu_0, # of connection points: 4
#     Node 19, Type 1, BuildingBlock: UXUYUI_clean_sbu_0, # of connection points: 4
#     Node 20, Type 1, BuildingBlock: UXUYUI_clean_sbu_0, # of connection points: 4
#     Node 21, Type 1, BuildingBlock: UXUYUI_clean_sbu_0, # of connection points: 4
#     Node 22, Type 1, BuildingBlock: UXUYUI_clean_sbu_0, # of connection points: 4
#     Node 23, Type 1, BuildingBlock: UXUYUI_clean_sbu_0, # of connection points: 4
#     Node 24, Type 1, BuildingBlock: UXUYUI_clean_sbu_0, # of connection points: 4
#     Node 25, Type 1, BuildingBlock: UXUYUI_clean_sbu_0, # of connection points: 4
#     Node 26, Type 1, BuildingBlock: UXUYUI_clean_sbu_0, # of connection points: 4
#     Node 27, Type 1, BuildingBlock: UXUYUI_clean_sbu_0, # of connection points: 4
#     Edge 28, Type (0, 1), BuildingBlock: XUDNAN_clean_linker_2, # of connection points: 2
#     Edge 29, Type (0, 1), BuildingBlock: XUDNAN_clean_linker_2, # of connection points: 2
#     Edge 30, Type (0, 1), BuildingBlock: XUDNAN_clean_linker_2, # of connection points: 2
#     Edge 31, Type (0, 1), BuildingBlock: XUDNAN_clean_linker_2, # of connection points: 2
#     Edge 32, Type (0, 1), BuildingBlock: XUDNAN_clean_linker_2, # of connection points: 2
#     Edge 33, Type (0, 1), BuildingBlock: XUDNAN_clean_linker_2, # of connection points: 2
#     Edge 34, Type (0, 1), BuildingBlock: XUDNAN_clean_linker_2, # of connection points: 2
#     Edge 35, Type (0, 1), BuildingBlock: XUDNAN_clean_linker_2, # of connection points: 2
#     Edge 36, Type (0, 1), BuildingBlock: XUDNAN_clean_linker_2, # of connection points: 2
#     Edge 37, Type (0, 1), BuildingBlock: XUDNAN_clean_linker_2, # of connection points: 2
#     Edge 38, Type (0, 1), BuildingBlock: XUDNAN_clean_linker_2, # of connection points: 2
#     Edge 39, Type (0, 1), BuildingBlock: XUDNAN_clean_linker_2, # of connection points: 2
#     Edge 40, Type (0, 1), BuildingBlock: XUDNAN_clean_linker_2, # of connection points: 2
#     Edge 41, Type (0, 1), BuildingBlock: XUDNAN_clean_linker_2, # of connection points: 2
#     Edge 42, Type (0, 1), BuildingBlock: XUDNAN_clean_linker_2, # of connection points: 2
#     Edge 43, Type (0, 1), BuildingBlock: XUDNAN_clean_linker_2, # of connection points: 2
#     Edge 44, Type (0, 1), BuildingBlock: XUDNAN_clean_linker_2, # of connection points: 2
#     Edge 45, Type (0, 1), BuildingBlock: XUDNAN_clean_linker_2, # of connection points: 2
#     Edge 46, Type (0, 1), BuildingBlock: XUDNAN_clean_linker_2, # of connection points: 2
#     Edge 47, Type (0, 1), BuildingBlock: XUDNAN_clean_linker_2, # of connection points: 2
#     Edge 48, Type (0, 1), BuildingBlock: XUDNAN_clean_linker_2, # of connection points: 2
#     Edge 49, Type (0, 1), BuildingBlock: XUDNAN_clean_linker_2, # of connection points: 2
#     Edge 50, Type (0, 1), BuildingBlock: XUDNAN_clean_linker_2, # of connection points: 2
#     Edge 51, Type (0, 1), BuildingBlock: XUDNAN_clean_linker_2, # of connection points: 2
#     Edge 52, Type (0, 1), BuildingBlock: XUDNAN_clean_linker_2, # of connection points: 2
#     Edge 53, Type (0, 1), BuildingBlock: XUDNAN_clean_linker_2, # of connection points: 2
#     Edge 54, Type (0, 1), BuildingBlock: XUDNAN_clean_linker_2, # of connection points: 2
#     Edge 55, Type (0, 1), BuildingBlock: XUDNAN_clean_linker_2, # of connection points: 2
#     Edge 56, Type (0, 1), BuildingBlock: XUDNAN_clean_linker_2, # of connection points: 2
#     Edge 57, Type (0, 1), BuildingBlock: XUDNAN_clean_linker_2, # of connection points: 2
#     Edge 58, Type (0, 1), BuildingBlock: XUDNAN_clean_linker_2, # of connection points: 2
#     Edge 59, Type (0, 1), BuildingBlock: XUDNAN_clean_linker_2, # of connection points: 2
#     Edge 60, Type (0, 1), BuildingBlock: XUDNAN_clean_linker_2, # of connection points: 2
#     Edge 61, Type (0, 1), BuildingBlock: XUDNAN_clean_linker_2, # of connection points: 2
#     Edge 62, Type (0, 1), BuildingBlock: XUDNAN_clean_linker_2, # of connection points: 2
#     Edge 63, Type (0, 1), BuildingBlock: XUDNAN_clean_linker_2, # of connection points: 2
#     Edge 64, Type (0, 1), BuildingBlock: XUDNAN_clean_linker_2, # of connection points: 2
#     Edge 65, Type (0, 1), BuildingBlock: XUDNAN_clean_linker_2, # of connection points: 2
#     Edge 66, Type (0, 1), BuildingBlock: XUDNAN_clean_linker_2, # of connection points: 2
#     Edge 67, Type (0, 1), BuildingBlock: XUDNAN_clean_linker_2, # of connection points: 2
#     Edge 68, Type (0, 1), BuildingBlock: XUDNAN_clean_linker_2, # of connection points: 2
#     Edge 69, Type (0, 1), BuildingBlock: XUDNAN_clean_linker_2, # of connection points: 2
#     Edge 70, Type (0, 1), BuildingBlock: XUDNAN_clean_linker_2, # of connection points: 2
#     Edge 71, Type (0, 1), BuildingBlock: XUDNAN_clean_linker_2, # of connection points: 2
#     Edge 72, Type (0, 1), BuildingBlock: XUDNAN_clean_linker_2, # of connection points: 2
#     Edge 73, Type (0, 1), BuildingBlock: XUDNAN_clean_linker_2, # of connection points: 2
#     Edge 74, Type (0, 1), BuildingBlock: XUDNAN_clean_linker_2, # of connection points: 2
#     Edge 75, Type (0, 1), BuildingBlock: XUDNAN_clean_linker_2, # of connection points: 2
# Relax obj value: 0.063
# Max RMSD: 0.182
# Mean RMSD: 0.115
data_MOF--net-ctn--node1-UXUYUI_clean_sbu_0--node2-PAMTOO_clean_linker_0--edge1-XUDNAN_clean_linker_2
_symmetry_space_group_name_H-M    P1
_symmetry_Int_Tables_number       1
_symmetry_cell_setting            triclinic
loop_
_symmetry_equiv_pos_as_xyz
'x, y, z'
_cell_length_a     66.17804
_cell_length_b     66.659988
_cell_length_c     67.839072
_cell_angle_alpha  85.380157
_cell_angle_beta   92.379564
_cell_angle_gamma 96.966443
loop_
_atom_site_label
_atom_site_type_symbol
_atom_site_fract_x
_atom_site_fract_y
_atom_site_fract_z
_atom_type_partial_charge
H0 H 0.01858 0.07871 0.0641 0.0
H1 H 0.05593 0.03251 0.08649 0.0
H2 H 0.07058 0.06732 0.0323 0.0
H3 H 0.07607 0.02698 0.02894 0.0
C4 C 0.07663 0.02113 0.04476 0.0
O5 O 0.07985 0.03725 0.05655 0.0
H6 H 0.06167 0.01208 0.0479 0.0
C7 C 0.03181 0.07077 0.06311 0.0
C8 C 0.04419 0.07513 0.04653 0.0
C9 C 0.03571 0.05524 0.07768 0.0
C10 C 0.05248 0.04448 0.07557 0.0
C11 C 0.06483 0.04877 0.05918 0.0
C12 C 0.06089 0.06424 0.04495 0.0
H13 H 0.323 0.68219 0.26598 0.0
H14 H 0.29616 0.71023 0.21338 0.0
H15 H 0.34855 0.7411 0.24157 0.0
H16 H 0.31848 0.77027 0.22 0.0
C17 C 0.31048 0.75803 0.21136 0.0
O18 O 0.32253 0.74247 0.21165 0.0
H19 H 0.29561 0.75264 0.21822 0.0
C20 C 0.32266 0.69484 0.25496 0.0
C21 C 0.33756 0.71178 0.25595 0.0
C22 C 0.30762 0.69392 0.23964 0.0
C23 C 0.30757 0.71038 0.22531 0.0
C24 C 0.32214 0.72736 0.22622 0.0
C25 C 0.33701 0.7281 0.24149 0.0
H26 H 0.97716 0.50189 0.1111 0.0
H27 H 0.94883 0.48428 0.05561 0.0
H28 H 0.99793 0.45396 0.08129 0.0
H29 H 0.99851 0.46838 0.03869 0.0
C30 C 0.98377 0.45915 0.03529 0.0
O31 O 0.97184 0.45576 0.05176 0.0
H32 H 0.97551 0.46772 0.02345 0.0
C33 C 0.97611 0.49256 0.09868 0.0
C34 C 0.98924 0.47746 0.09837 0.0
C35 C 0.96132 0.49534 0.08338 0.0
C36 C 0.9603 0.483 0.06734 0.0
C37 C 0.97354 0.46821 0.0667 0.0
C38 C 0.98786 0.46548 0.08212 0.0
H39 H 0.72509 0.8374 0.26972 0.0
H40 H 0.69447 0.78253 0.24778 0.0
H41 H 0.75176 0.80816 0.22439 0.0
H42 H 0.71291 0.79384 0.19849 0.0
C43 C 0.71424 0.77806 0.20475 0.0
O44 O 0.7231 0.77792 0.22356 0.0
H45 H 0.69855 0.76997 0.20558 0.0
C46 C 0.72443 0.8255 0.25966 0.0
C47 C 0.74063 0.82502 0.24693 0.0
C48 C 0.70755 0.81045 0.25999 0.0
C49 C 0.70728 0.79432 0.2478 0.0
C50 C 0.72332 0.79355 0.23514 0.0
C51 C 0.73978 0.80889 0.23461 0.0
H52 H 0.08807 0.96372 0.52909 0.0
H53 H 0.03586 0.95493 0.48925 0.0
H54 H 0.0844 1.0018 0.47495 0.0
H55 H 0.04452 0.01374 0.4646 0.0
C56 C 0.03603 0.99888 0.46131 0.0
O57 O 0.04903 0.98408 0.46323 0.0
H58 H 0.02361 0.99495 0.47203 0.0
C59 C 0.08005 0.96783 0.51538 0.0
C60 C 0.08866 0.98403 0.50265 0.0
C61 C 0.06096 0.9572 0.51082 0.0
C62 C 0.05042 0.96309 0.49328 0.0
C63 C 0.05885 0.97919 0.48049 0.0
C64 C 0.0779 0.98962 0.48517 0.0
H65 H 0.19987 0.76002 0.8175 0.0
H66 H 0.22433 0.70963 0.7951 0.0
H67 H 0.25809 0.7432 0.83935 0.0
H68 H 0.28633 0.72472 0.81268 0.0
C69 C 0.27352 0.71559 0.80521 0.0
O70 O 0.2572 0.71232 0.81762 0.0
H71 H 0.2695 0.72427 0.79116 0.0
C72 C 0.21202 0.75055 0.81715 0.0
C73 C 0.22931 0.7539 0.82985 0.0
C74 C 0.20994 0.73462 0.80452 0.0
C75 C 0.22543 0.72189 0.80479 0.0
C76 C 0.24266 0.725 0.81733 0.0
C77 C 0.24458 0.74091 0.82984 0.0
H78 H 0.95461 0.5753 0.51091 0.0
H79 H 0.97562 0.53895 0.46802 0.0
H80 H 0.01616 0.58744 0.49049 0.0
H81 H 0.02312 0.58314 0.44869 0.0
C82 C 0.01468 0.56777 0.44758 0.0
O83 O 0.01228 0.55845 0.46642 0.0
H84 H 0.99958 0.5695 0.44018 0.0
C85 C 0.96679 0.5715 0.50221 0.0
C86 C 0.98589 0.58345 0.50236 0.0
C87 C 0.96297 0.5555 0.48974 0.0
C88 C 0.97847 0.5511 0.47785 0.0
C89 C 0.9976 0.56255 0.47825 0.0
C90 C 1.00131 0.57858 0.49052 0.0
H91 H 0.77059 0.80789 0.84506 0.0
H92 H 0.81953 0.77277 0.83555 0.0
H93 H 0.80488 0.81885 0.79181 0.0
H94 H 0.81001 0.77562 0.78099 0.0
C95 C 0.82525 0.77555 0.78862 0.0
O96 O 0.82861 0.79096 0.80121 0.0
H97 H 0.82535 0.7607 0.79735 0.0
C98 C 0.78269 0.80445 0.8361 0.0
C99 C 0.78587 0.81518 0.81749 0.0
C100 C 0.79474 0.78907 0.84302 0.0
C101 C 0.81034 0.78481 0.83104 0.0
C102 C 0.8138 0.7955 0.81268 0.0
C103 C 0.80175 0.81066 0.80601 0.0
H104 H 0.27866 0.30157 0.35579 0.0
H105 H 0.32975 0.28005 0.3303 0.0
H106 H 0.30818 0.3348 0.3055 0.0
H107 H 0.32245 0.31078 0.27443 0.0
C108 C 0.33169 0.30113 0.28439 0.0
O109 O 0.33466 0.30925 0.30255 0.0
H110 H 0.32329 0.28561 0.28626 0.0
C111 C 0.29043 0.30346 0.34495 0.0
C112 C 0.29159 0.32022 0.33076 0.0
C113 C 0.30408 0.28881 0.345 0.0
C114 C 0.31884 0.29091 0.33043 0.0
C115 C 0.32001 0.30726 0.31612 0.0
C116 C 0.30657 0.32193 0.31636 0.0
H117 H 0.47235 0.00919 0.60261 0.0
H118 H 0.44988 0.97084 0.55637 0.0
H119 H 0.50761 0.96357 0.58529 0.0
H120 H 0.50651 0.95962 0.54202 0.0
C121 C 0.49017 0.95372 0.53986 0.0
O122 O 0.48127 0.95038 0.55809 0.0
H123 H 0.48253 0.9652 0.53042 0.0
C124 C 0.47439 0.99728 0.59316 0.0
C125 C 0.49195 0.98722 0.5957 0.0
C126 C 0.45898 0.99142 0.57914 0.0
C127 C 0.46148 0.97552 0.56736 0.0
C128 C 0.47907 0.96568 0.56948 0.0
C129 C 0.49414 0.97139 0.58373 0.0
H130 H 0.22418 0.33576 0.76898 0.0
H131 H 0.20324 0.27358 0.75835 0.0
H132 H 0.24937 0.30742 0.72248 0.0
H133 H 0.20597 0.28152 0.70713 0.0
C134 C 0.21372 0.26813 0.7127 0.0
O135 O 0.22688 0.2726 0.72851 0.0
H136 H 0.20159 0.25601 0.71775 0.0
C137 C 0.22491 0.32244 0.76101 0.0
C138 C 0.23864 0.32362 0.74561 0.0
C139 C 0.21193 0.30453 0.76591 0.0
C140 C 0.21274 0.28771 0.75477 0.0
C141 C 0.22603 0.28891 0.73899 0.0
C142 C 0.23888 0.30683 0.73442 0.0
H143 H 0.81078 0.20939 0.78445 0.0
H144 H 0.78022 0.21509 0.72728 0.0
H145 H 0.83001 0.25924 0.74256 0.0
H146 H 0.78847 0.27158 0.72619 0.0
C147 C 0.78785 0.2624 0.71311 0.0
O148 O 0.80217 0.24886 0.71536 0.0
H149 H 0.77236 0.25385 0.71223 0.0
C150 C 0.80908 0.21737 0.77002 0.0
C151 C 0.82225 0.23504 0.76514 0.0
C152 C 0.79383 0.20991 0.75655 0.0
C153 C 0.79213 0.22027 0.73777 0.0
C154 C 0.80505 0.2381 0.73282 0.0
C155 C 0.82026 0.24532 0.74639 0.0
H156 H 0.53099 0.58121 0.5796 0.0
H157 H 0.55545 0.52392 0.58618 0.0
H158 H 0.57678 0.56872 0.54047 0.0
H159 H 0.56405 0.52401 0.53139 0.0
C160 C 0.57335 0.51749 0.54383 0.0
O161 O 0.57997 0.53218 0.55662 0.0
H162 H 0.5635 0.50501 0.55182 0.0
C163 C 0.54144 0.57122 0.57516 0.0
C164 C 0.55406 0.57754 0.55908 0.0
C165 C 0.54158 0.55183 0.58498 0.0
C166 C 0.55486 0.53883 0.5787 0.0
C167 C 0.56738 0.54489 0.56261 0.0
C168 C 0.5669 0.56415 0.55279 0.0
H169 H 0.58334 0.48004 0.03727 0.0
H170 H 0.53698 0.45603 0.99627 0.0
H171 H 0.57454 0.51167 0.98028 0.0
H172 H 0.53169 0.51198 0.96915 0.0
C173 C 0.5272 0.49569 0.96678 0.0
O174 O 0.54433 0.48563 0.96875 0.0
H175 H 0.51605 0.48926 0.97812 0.0
C176 C 0.57527 0.4812 0.02307 0.0
C177 C 0.58088 0.49776 0.00946 0.0
C178 C 0.55946 0.46605 0.01858 0.0
C179 C 0.54944 0.46736 0.99993 0.0
C180 C 0.55485 0.48385 0.98621 0.0
C181 C 0.57069 0.49887 0.99088 0.0
H182 H 0.70218 0.26503 0.30833 0.0
H183 H 0.72431 0.21191 0.28882 0.0
H184 H 0.75406 0.24108 0.33784 0.0
H185 H 0.78168 0.22936 0.30857 0.0
C186 C 0.77206 0.21582 0.30335 0.0
O187 O 0.7547 0.21189 0.3143 0.0
H188 H 0.76788 0.21933 0.28748 0.0
C189 C 0.71269 0.25371 0.30989 0.0
C190 C 0.72795 0.25476 0.32506 0.0
C191 C 0.7112 0.23842 0.29653 0.0
C192 C 0.72514 0.22397 0.29871 0.0
C193 C 0.7406 0.22508 0.31341 0.0
C194 C 0.74185 0.24027 0.32668 0.0
H195 H 0.45242 0.07021 0.01097 0.0
H196 H 0.48157 0.03508 0.97217 0.0
H197 H 0.51392 0.08925 0.99302 0.0
H198 H 0.5251 0.08259 0.95138 0.0
C199 C 0.51765 0.06671 0.95152 0.0
O200 O 0.51568 0.05897 0.97097 0.0
H201 H 0.50244 0.06682 0.94386 0.0
C202 C 0.46569 0.0675 1.00318 0.0
C203 C 0.48341 0.08146 1.00376 0.0
C204 C 0.46465 0.05086 0.99145 0.0
C205 C 0.4819 0.0479 0.98109 0.0
C206 C 0.49956 0.06167 0.98167 0.0
C207 C 0.50028 0.07846 0.99291 0.0
Li208 Li 0.27991 0.90954 0.00926 0.0
Li209 Li 0.26662 0.88013 0.03093 0.0
Li210 Li 0.25758 0.88303 0.99416 0.0
Li211 Li 0.24264 0.90411 0.01709 0.0
C212 C 0.30473 0.88243 1.00427 0.0
N213 N 0.34591 0.88723 0.99719 0.0
C214 C 0.31872 0.8777 0.01942 0.0
C215 C 0.31165 0.88937 0.98546 0.0
C216 C 0.33949 0.88027 0.01556 0.0
C217 C 0.33254 0.89177 0.9822 0.0
C218 C 0.26644 0.91307 0.05467 0.0
C219 C 0.24815 0.91204 0.08483 0.0
N220 N 0.2653 0.92067 0.09405 0.0
C221 C 0.28381 0.92215 0.06437 0.0
C222 C 0.2484 0.90816 0.06492 0.0
C223 C 0.28296 0.92577 0.08431 0.0
C224 C 0.30267 0.9432 0.98919 0.0
N225 N 0.30296 0.92958 1.00518 0.0
C226 C 0.33672 0.9436 0.01444 0.0
C227 C 0.31941 0.9297 0.0179 0.0
C228 C 0.33707 0.95754 0.99773 0.0
C229 C 0.31962 0.95735 0.98516 0.0
H230 H 0.28932 0.94298 0.97945 0.0
H231 H 0.31925 0.91872 0.03053 0.0
C232 C 0.26282 0.84257 0.05368 0.0
N233 N 0.27257 0.86176 0.05297 0.0
C234 C 0.26652 0.82862 0.0695 0.0
C235 C 0.2909 0.85414 0.08327 0.0
C236 C 0.28656 0.86767 0.06725 0.0
C237 C 0.28077 0.83429 0.08462 0.0
H238 H 0.2521 0.83808 0.04193 0.0
H239 H 0.29461 0.88278 0.06606 0.0
C240 C 0.24808 0.91632 0.97254 0.0
N241 N 0.23236 0.92259 0.93447 0.0
C242 C 0.22773 0.91973 0.96937 0.0
C243 C 0.26049 0.91629 0.95636 0.0
C244 C 0.22006 0.92284 0.95 0.0
C245 C 0.25224 0.91942 0.93723 0.0
C246 C 0.22196 0.86337 0.02338 0.0
C247 C 0.20771 0.85459 0.00986 0.0
C248 C 0.21797 0.86107 0.04356 0.0
C249 C 0.18956 0.84392 0.01673 0.0
C250 C 0.19966 0.85028 0.04986 0.0
N251 N 0.18594 0.84202 0.03642 0.0
C252 C 0.26661 0.85654 0.96574 0.0
C253 C 0.23457 0.86881 0.96029 0.0
C254 C 0.26355 0.84578 0.94878 0.0
N255 N 0.25229 0.86794 0.97105 0.0
C256 C 0.23096 0.85845 0.94314 0.0
C257 C 0.24561 0.84681 0.9371 0.0
H258 H 0.28048 0.85586 0.97463 0.0
H259 H 0.22323 0.87763 0.96496 0.0
C260 C 0.22383 0.93739 0.02715 0.0
N261 N 0.21976 0.91771 0.02278 0.0
C262 C 0.20815 0.94812 0.03225 0.0
C263 C 0.18433 0.91817 0.02819 0.0
C264 C 0.2004 0.90814 0.02287 0.0
C265 C 0.18814 0.93838 0.03308 0.0
H266 H 0.23936 0.94468 0.0269 0.0
H267 H 0.1973 0.89274 0.01888 0.0
O268 O 0.28438 0.88041 0.00787 0.0
O269 O 0.26704 0.90943 0.03514 0.0
O270 O 0.25581 0.91311 0.99138 0.0
O271 O 0.23977 0.87396 0.01684 0.0
H272 H 0.31362 0.87226 0.03404 0.0
H273 H 0.30101 0.89302 0.97357 0.0
H274 H 0.35051 0.87679 0.02717 0.0
H275 H 0.33812 0.89728 0.96776 0.0
H276 H 0.23429 0.90827 0.09294 0.0
H277 H 0.29784 0.92628 0.05663 0.0
H278 H 0.23468 0.90161 0.05758 0.0
H279 H 0.29633 0.93267 0.09202 0.0
H280 H 0.34987 0.94304 0.02442 0.0
H281 H 0.31906 0.96804 0.97231 0.0
H282 H 0.25814 0.81361 0.06991 0.0
H283 H 0.30234 0.85911 0.09427 0.0
H284 H 0.21792 0.91984 0.9817 0.0
H285 H 0.27627 0.91372 0.95855 0.0
H286 H 0.20432 0.9254 0.94732 0.0
H287 H 0.26163 0.9193 0.92457 0.0
H288 H 0.21057 0.85607 0.99421 0.0
H289 H 0.22898 0.86733 0.0543 0.0
H290 H 0.17836 0.83714 1.00641 0.0
H291 H 0.19639 0.84841 0.06543 0.0
H292 H 0.27529 0.83708 0.94463 0.0
H293 H 0.21677 0.85941 0.93479 0.0
H294 H 0.21169 0.96368 0.03595 0.0
H295 H 0.16904 0.91025 0.02834 0.0
Li296 Li 0.13653 0.50055 0.29855 0.0
Li297 Li 0.15998 0.47886 0.28747 0.0
Li298 Li 0.16252 0.51451 0.27571 0.0
Li299 Li 0.13428 0.49123 0.26455 0.0
C300 C 0.17153 0.49636 0.32235 0.0
N301 N 0.18157 0.4831 0.36075 0.0
C302 C 0.15865 0.48127 0.33264 0.0
C303 C 0.18948 0.50474 0.33161 0.0
C304 C 0.164 0.47476 0.35204 0.0
C305 C 0.1943 0.49783 0.35103 0.0
C306 C 0.12303 0.4538 0.28416 0.0
C307 C 0.12631 0.42497 0.26572 0.0
N308 N 0.10928 0.41501 0.27417 0.0
C309 C 0.10559 0.44328 0.29268 0.0
C310 C 0.13351 0.44459 0.27059 0.0
C311 C 0.09887 0.42368 0.28743 0.0
C312 C 0.10056 0.49785 0.31963 0.0
N313 N 0.12039 0.50602 0.31984 0.0
C314 C 0.11612 0.52154 0.34975 0.0
C315 C 0.12833 0.51772 0.33447 0.0
C316 C 0.09555 0.51325 0.34998 0.0
C317 C 0.08782 0.50126 0.33462 0.0
H318 H 0.09462 0.48876 0.30772 0.0
H319 H 0.14415 0.52408 0.33432 0.0
C320 C 0.19413 0.45698 0.28734 0.0
N321 N 0.17559 0.45687 0.29529 0.0
C322 C 0.20633 0.44167 0.29319 0.0
C323 C 0.18014 0.42645 0.31535 0.0
C324 C 0.16836 0.44189 0.3089 0.0
C325 C 0.19945 0.42627 0.30756 0.0
H326 H 0.19957 0.46914 0.27664 0.0
H327 H 0.15351 0.44201 0.31492 0.0
C328 C 0.13059 0.53742 0.27912 0.0
N329 N 0.12524 0.57569 0.28938 0.0
C330 C 0.11502 0.5476 0.27 0.0
C331 C 0.14348 0.54676 0.29342 0.0
C332 C 0.11256 0.56692 0.2754 0.0
C333 C 0.14052 0.56609 0.29841 0.0
C334 C 0.16857 0.49733 0.24083 0.0
C335 C 0.15746 0.51133 0.2301 0.0
C336 C 0.18464 0.49004 0.23198 0.0
C337 C 0.16266 0.51786 0.21069 0.0
C338 C 0.18938 0.49694 0.21253 0.0
N339 N 0.17839 0.5106 0.20238 0.0
C340 C 0.19989 0.54028 0.27685 0.0
C341 C 0.17504 0.55194 0.25399 0.0
C342 C 0.21369 0.55726 0.27153 0.0
N343 N 0.18101 0.53793 0.26803 0.0
C344 C 0.18843 0.56895 0.24802 0.0
C345 C 0.20805 0.57175 0.2568 0.0
H346 H 0.20424 0.5289 0.28797 0.0
H347 H 0.15985 0.54993 0.24741 0.0
C348 C 0.09824 0.49427 0.24144 0.0
N349 N 0.11555 0.48508 0.24294 0.0
C350 C 0.08428 0.49092 0.22567 0.0
C351 C 0.10603 0.46839 0.21344 0.0
C352 C 0.11968 0.47236 0.22931 0.0
C353 C 0.08807 0.47777 0.21143 0.0
H354 H 0.0953 0.50425 0.25251 0.0
H355 H 0.13367 0.46544 0.23066 0.0
O356 O 0.16672 0.50299 0.3033 0.0
O357 O 0.12971 0.473 0.28921 0.0
O358 O 0.13311 0.51847 0.27395 0.0
O359 O 0.16381 0.49067 0.25987 0.0
H360 H 0.14466 0.47463 0.32578 0.0
H361 H 0.1996 0.51647 0.32388 0.0
H362 H 0.15418 0.46307 0.36015 0.0
H363 H 0.20816 0.50417 0.35838 0.0
H364 H 0.13426 0.41767 0.25522 0.0
H365 H 0.09733 0.45018 0.30326 0.0
H366 H 0.14706 0.45245 0.26387 0.0
H367 H 0.08539 0.41535 0.29391 0.0
H368 H 0.12279 0.5307 0.36138 0.0
H369 H 0.07199 0.49483 0.334 0.0
H370 H 0.2212 0.44219 0.28695 0.0
H371 H 0.17417 0.41473 0.32629 0.0
H372 H 0.10496 0.54065 0.25884 0.0
H373 H 0.15569 0.53923 0.30058 0.0
H374 H 0.10056 0.57496 0.26846 0.0
H375 H 0.15038 0.57346 0.30946 0.0
H376 H 0.14495 0.51712 0.23665 0.0
H377 H 0.19336 0.47915 0.24006 0.0
H378 H 0.1542 0.52871 0.20223 0.0
H379 H 0.20179 0.49144 0.20551 0.0
H380 H 0.22874 0.55884 0.27855 0.0
H381 H 0.18342 0.57992 0.23679 0.0
H382 H 0.07052 0.49829 0.22478 0.0
H383 H 0.10963 0.45832 0.20267 0.0
Li384 Li 0.76884 0.6301 0.03954 0.0
Li385 Li 0.78527 0.6559 0.06027 0.0
Li386 Li 0.7928 0.658 0.02481 0.0
Li387 Li 0.80553 0.63244 0.04867 0.0
C388 C 0.75185 0.66366 0.02311 0.0
N389 N 0.72303 0.67286 0.99424 0.0
C390 C 0.73853 0.67776 0.0262 0.0
C391 C 0.7505 0.6542 1.00536 0.0
C392 C 0.72406 0.68221 0.01141 0.0
C393 C 0.73583 0.65908 0.99094 0.0
C394 C 0.77784 0.62552 0.08576 0.0
C395 C 0.7889 0.63103 0.11944 0.0
N396 N 0.76939 0.62614 0.12525 0.0
C397 C 0.75793 0.62037 0.0921 0.0
C398 C 0.79349 0.63074 0.09956 0.0
C399 C 0.75395 0.62083 0.11212 0.0
C400 C 0.74028 0.59777 0.0238 0.0
N401 N 0.74314 0.61393 0.03509 0.0
C402 C 0.70777 0.60964 0.0425 0.0
C403 C 0.72725 0.62017 0.04403 0.0
C404 C 0.70449 0.59231 0.03173 0.0
C405 C 0.72106 0.5866 0.02206 0.0
H406 H 0.75281 0.59335 0.01618 0.0
H407 H 0.72976 0.63337 0.0525 0.0
C408 C 0.7958 0.68174 0.09168 0.0
N409 N 0.78014 0.6722 0.08109 0.0
C410 C 0.79194 0.69422 0.10636 0.0
C411 C 0.75591 0.68681 0.09898 0.0
C412 C 0.76047 0.67438 0.08453 0.0
C413 C 0.77176 0.69711 0.11006 0.0
H414 H 0.81131 0.67976 0.08865 0.0
H415 H 0.74831 0.66665 0.07583 0.0
C416 C 0.79341 0.6094 0.01648 0.0
N417 N 0.79662 0.57071 1.00602 0.0
C418 C 0.79122 0.59295 0.0307 0.0
C419 C 0.79729 0.60617 0.99696 0.0
C420 C 0.79289 0.57352 0.02511 0.0
C421 C 0.79881 0.58649 0.99196 0.0
C422 C 0.83281 0.665 0.04818 0.0
C423 C 0.84329 0.67051 0.03074 0.0
C424 C 0.84373 0.66169 0.066 0.0
C425 C 0.86457 0.67243 0.03138 0.0
C426 C 0.86499 0.66372 0.06601 0.0
N427 N 0.87488 0.669 0.04885 0.0
C428 C 0.78933 0.69479 1.00327 0.0
C429 C 0.80283 0.67131 0.98451 0.0
C430 C 0.78783 0.70816 0.98651 0.0
N431 N 0.7962 0.67656 1.00188 0.0
C432 C 0.80201 0.68448 0.96739 0.0
C433 C 0.79389 0.70289 0.96824 0.0
H434 H 0.78411 0.69854 0.01727 0.0
H435 H 0.80808 0.65665 0.9838 0.0
C436 C 0.82509 0.60263 0.07143 0.0
N437 N 0.82746 0.61606 0.0553 0.0
C438 C 0.84001 0.59001 0.07709 0.0
C439 C 0.85963 0.60493 0.04928 0.0
C440 C 0.84414 0.61714 0.04399 0.0
C441 C 0.85777 0.59118 0.06616 0.0
H442 H 0.81141 0.60141 0.07978 0.0
H443 H 0.84546 0.6275 0.03089 0.0
O444 O 0.76623 0.65933 0.0374 0.0
O445 O 0.78198 0.62569 0.06614 0.0
O446 O 0.79244 0.62866 0.02166 0.0
O447 O 0.81198 0.66291 0.04783 0.0
H448 H 0.73941 0.68523 0.03985 0.0
H449 H 0.76068 0.64327 1.00269 0.0
H450 H 0.71367 0.69312 0.01358 0.0
H451 H 0.73464 0.65191 0.97712 0.0
H452 H 0.80085 0.63521 0.13023 0.0
H453 H 0.74566 0.61606 0.08172 0.0
H454 H 0.80898 0.63477 0.09492 0.0
H455 H 0.73859 0.61697 0.11721 0.0
H456 H 0.69543 0.61504 0.04975 0.0
H457 H 0.71937 0.57337 0.01361 0.0
H458 H 0.80467 0.70153 0.1147 0.0
H459 H 0.74014 0.68874 0.10103 0.0
H460 H 0.78807 0.5951 0.04584 0.0
H461 H 0.79912 0.61874 0.9858 0.0
H462 H 0.79119 0.56066 0.03595 0.0
H463 H 0.80178 0.58377 0.9769 0.0
H464 H 0.83512 0.67315 0.01683 0.0
H465 H 0.83589 0.65741 0.07964 0.0
H466 H 0.87287 0.67661 0.01797 0.0
H467 H 0.87362 0.66107 0.07967 0.0
H468 H 0.78156 0.72227 0.9877 0.0
H469 H 0.80671 0.67991 0.95348 0.0
H470 H 0.83743 0.57924 0.08981 0.0
H471 H 0.87299 0.60645 0.04035 0.0
Li472 Li 0.88159 0.04578 0.26937 0.0
Li473 Li 0.90797 0.02612 0.28413 0.0
Li474 Li 0.90554 0.03416 0.24795 0.0
Li475 Li 0.88045 0.00929 0.26476 0.0
C476 C 0.91355 0.07227 0.27441 0.0
N477 N 0.91483 0.11123 0.28591 0.0
C478 C 0.91495 0.07578 0.29449 0.0
C479 C 0.91295 0.08857 0.26018 0.0
C480 C 0.91555 0.09559 0.3 0.0
C481 C 0.91357 0.10816 0.2663 0.0
C482 C 0.86188 0.01082 0.29688 0.0
C483 C 0.84592 0.97977 0.3132 0.0
N484 N 0.82734 0.98612 0.30903 0.0
C485 C 0.84261 0.01698 0.29267 0.0
C486 C 0.86356 0.99203 0.30718 0.0
C487 C 0.82534 1.00431 0.29899 0.0
C488 C 0.85943 0.08073 0.26106 0.0
N489 N 0.86644 0.06737 0.27517 0.0
C490 C 0.85397 0.08483 0.30075 0.0
C491 C 0.86378 0.0691 0.2947 0.0
C492 C 0.84691 0.09918 0.28661 0.0
C493 C 0.84962 0.09685 0.26648 0.0
H494 H 0.86172 0.07913 0.24564 0.0
H495 H 0.86952 0.0583 0.30564 0.0
C496 C 0.94639 0.03187 0.30384 0.0
N497 N 0.92674 0.02365 0.3062 0.0
C498 C 0.96093 0.02954 0.31913 0.0
C499 C 0.93466 0.01066 0.33913 0.0
C500 C 0.92061 0.01347 0.32349 0.0
C501 C 0.95521 0.01862 0.33705 0.0
H502 H 0.95081 0.04002 0.28996 0.0
H503 H 0.90488 0.00724 0.32506 0.0
C504 C 0.87249 0.03583 0.22499 0.0
N505 N 0.86871 0.04364 0.18445 0.0
C506 C 0.86457 0.02039 0.21309 0.0
C507 C 0.87845 0.05525 0.21627 0.0
C508 C 0.86277 0.02464 0.19263 0.0
C509 C 0.87645 0.05889 0.19575 0.0
C510 C 0.92724 0.99978 0.26856 0.0
C511 C 0.94551 0.00659 0.25919 0.0
C512 C 0.92718 0.98527 0.28466 0.0
C513 C 0.96338 0.99877 0.26607 0.0
C514 C 0.94538 0.97787 0.29113 0.0
N515 N 0.96295 0.98471 0.28177 0.0
C516 C 0.93534 0.05421 0.22034 0.0
C517 C 0.91698 0.02319 0.21183 0.0
C518 C 0.94738 0.05482 0.2037 0.0
N519 N 0.92065 0.03839 0.22415 0.0
C520 C 0.92835 0.02335 0.19498 0.0
C521 C 0.94421 0.039 0.19094 0.0
H522 H 0.93823 0.06592 0.23059 0.0
H523 H 0.90551 0.01058 0.21542 0.0
C524 C 0.8439 0.98392 0.25459 0.0
N525 N 0.86344 0.9842 0.26173 0.0
C526 C 0.83199 0.96547 0.25178 0.0
C527 C 0.86028 0.94799 0.2644 0.0
C528 C 0.87169 0.96672 0.26664 0.0
C529 C 0.8402 0.94709 0.25658 0.0
H530 H 0.83768 0.99806 0.25079 0.0
H531 H 0.8872 0.96728 0.27225 0.0
O532 O 0.91222 0.05292 0.26876 0.0
O533 O 0.87893 0.02273 0.29025 0.0
O534 O 0.87465 0.0319 0.24502 0.0
O535 O 0.90964 0.0076 0.26232 0.0
H536 H 0.91525 0.06331 0.3057 0.0
H537 H 0.91184 0.0861 0.24459 0.0
H538 H 0.91647 0.09852 0.31549 0.0
H539 H 0.913 0.12091 0.25545 0.0
H540 H 0.84701 0.96515 0.32107 0.0
H541 H 0.84095 0.03125 0.28436 0.0
H542 H 0.87829 0.98674 0.3101 0.0
H543 H 0.81034 0.00887 0.2958 0.0
H544 H 0.85194 0.0857 0.3164 0.0
H545 H 0.84467 0.10762 0.25503 0.0
H546 H 0.97646 0.0363 0.31691 0.0
H547 H 0.92952 1.00196 0.35254 0.0
H548 H 0.86007 1.00522 0.21953 0.0
H549 H 0.88494 0.06728 0.22519 0.0
H550 H 0.85674 0.01282 0.18323 0.0
H551 H 0.88114 0.07382 0.1888 0.0
H552 H 0.946 0.0179 0.24684 0.0
H553 H 0.91336 0.9802 0.29249 0.0
H554 H 0.97761 1.00395 0.25897 0.0
H555 H 0.94556 0.96681 0.30369 0.0
H556 H 0.95954 0.06709 0.20135 0.0
H557 H 0.92496 0.01103 0.18545 0.0
H558 H 0.8167 0.96567 0.24551 0.0
H559 H 0.86721 0.93437 0.26883 0.0
Li560 Li 0.28378 0.1537 0.56111 0.0
Li561 Li 0.26725 0.12713 0.53965 0.0
Li562 Li 0.3037 0.12872 0.54902 0.0
Li563 Li 0.29179 0.15402 0.52463 0.0
C564 C 0.28606 0.11683 0.58515 0.0
N565 N 0.2989 0.10239 0.62229 0.0
C566 C 0.2776 0.09791 0.59329 0.0
C567 C 0.30107 0.12839 0.59584 0.0
C568 C 0.28428 0.09088 0.61211 0.0
C569 C 0.30736 0.12083 0.6146 0.0
C570 C 0.24579 0.15946 0.53186 0.0
C571 C 0.218 0.15902 0.50768 0.0
N572 N 0.20575 0.16434 0.52151 0.0
C573 C 0.23298 0.1651 0.54578 0.0
C574 C 0.2383 0.15656 0.5126 0.0
C575 C 0.21277 0.16744 0.54028 0.0
C576 C 0.29003 0.18882 0.58254 0.0
N577 N 0.27902 0.1703 0.58181 0.0
C578 C 0.25918 0.17668 0.60885 0.0
C579 C 0.26402 0.16394 0.59477 0.0
C580 C 0.27005 0.19612 0.6098 0.0
C581 C 0.28595 0.2019 0.59658 0.0
H582 H 0.30177 0.19357 0.57196 0.0
H583 H 0.25537 0.14919 0.59374 0.0
C584 C 0.2476 0.09139 0.52616 0.0
N585 N 0.24383 0.10805 0.53505 0.0
C586 C 0.23199 0.07589 0.52289 0.0
C587 C 0.2087 0.09484 0.53802 0.0
C588 C 0.22487 0.10998 0.54114 0.0
C589 C 0.21224 0.07742 0.52895 0.0
H590 H 0.26288 0.08995 0.52189 0.0
H591 H 0.22233 0.12299 0.54878 0.0
C592 C 0.33152 0.16148 0.55072 0.0
N593 N 0.3734 0.16608 0.55612 0.0
C594 C 0.34379 0.15561 0.53646 0.0
C595 C 0.34054 0.16975 0.56771 0.0
C596 C 0.36493 0.15802 0.53947 0.0
C597 C 0.36174 0.17196 0.57016 0.0
C598 C 0.29322 0.12083 0.50384 0.0
C599 C 0.31222 0.11656 0.49818 0.0
C600 C 0.27719 0.12129 0.48979 0.0
C601 C 0.31497 0.11318 0.47846 0.0
C602 C 0.28055 0.11785 0.47021 0.0
N603 N 0.29922 0.11393 0.465 0.0
C604 C 0.32001 0.09283 0.5464 0.0
C605 C 0.33989 0.11339 0.56858 0.0
C606 C 0.33287 0.07773 0.54972 0.0
N607 N 0.32379 0.11036 0.55555 0.0
C608 C 0.35321 0.09859 0.57239 0.0
C609 C 0.34972 0.08039 0.56293 0.0
H610 H 0.30687 0.09052 0.53648 0.0
H611 H 0.34231 0.12712 0.57622 0.0
C612 C 0.28407 0.18557 0.49585 0.0
N613 N 0.29679 0.17124 0.5007 0.0
C614 C 0.28566 0.19719 0.47775 0.0
C615 C 0.314 0.17976 0.47028 0.0
C616 C 0.31191 0.16855 0.48854 0.0
C617 C 0.30054 0.19407 0.46451 0.0
H618 H 0.27239 0.18774 0.50586 0.0
H619 H 0.32218 0.15747 0.49276 0.0
O620 O 0.2798 0.12385 0.56669 0.0
O621 O 0.26561 0.15704 0.537 0.0
O622 O 0.31079 0.15914 0.54805 0.0
O623 O 0.29026 0.1243 0.52307 0.0
H624 H 0.266 0.08876 0.58513 0.0
H625 H 0.30786 0.14299 0.58969 0.0
H626 H 0.27785 0.07627 0.61862 0.0
H627 H 0.31899 0.1296 0.62303 0.0
H628 H 0.21199 0.15675 0.49284 0.0
H629 H 0.23854 0.16759 0.56069 0.0
H630 H 0.24808 0.15256 0.50154 0.0
H631 H 0.20266 0.1717 0.55094 0.0
H632 H 0.2466 0.17154 0.61841 0.0
H633 H 0.2951 0.21648 0.5969 0.0
H634 H 0.23537 0.06279 0.51573 0.0
H635 H 0.19377 0.09645 0.54321 0.0
H636 H 0.33705 0.14893 0.5234 0.0
H637 H 0.3313 0.17434 0.57894 0.0
H638 H 0.3746 0.15341 0.52861 0.0
H639 H 0.36893 0.1783 0.58325 0.0
H640 H 0.32481 0.1161 0.50883 0.0
H641 H 0.26229 0.12415 0.49397 0.0
H642 H 0.32964 0.11002 0.47386 0.0
H643 H 0.2683 0.11825 0.45918 0.0
H644 H 0.32963 0.06412 0.54188 0.0
H645 H 0.36581 0.10117 0.58294 0.0
H646 H 0.27492 0.20802 0.47393 0.0
H647 H 0.32598 0.17715 0.46073 0.0
Li648 Li 0.40354 0.52211 0.78657 0.0
Li649 Li 0.3802 0.54407 0.76984 0.0
Li650 Li 0.37688 0.50759 0.76446 0.0
Li651 Li 0.40487 0.53052 0.74937 0.0
C652 C 0.37009 0.51678 0.80897 0.0
N653 N 0.36365 0.50933 0.84903 0.0
C654 C 0.3659 0.53241 0.82017 0.0
C655 C 0.37077 0.49731 0.81812 0.0
C656 C 0.36274 0.52835 0.84041 0.0
C657 C 0.36756 0.49387 0.8384 0.0
C658 C 0.41749 0.5671 0.77845 0.0
C659 C 0.43693 0.60012 0.77472 0.0
N660 N 0.43079 0.60427 0.79269 0.0
C661 C 0.41132 0.57171 0.79683 0.0
C662 C 0.43034 0.58142 0.76724 0.0
C663 C 0.41822 0.59057 0.80379 0.0
C664 C 0.43489 0.5039 0.80779 0.0
N665 N 0.42056 0.51657 0.80968 0.0
C666 C 0.43104 0.52008 0.84358 0.0
C667 C 0.41861 0.52482 0.82712 0.0
C668 C 0.44574 0.50677 0.84214 0.0
C669 C 0.44762 0.49872 0.82388 0.0
H670 H 0.43648 0.49779 0.79374 0.0
H671 H 0.40734 0.53498 0.82841 0.0
C672 C 0.34514 0.56091 0.77818 0.0
N673 N 0.36453 0.56623 0.77219 0.0
C674 C 0.33243 0.57574 0.78061 0.0
C675 C 0.35967 0.60138 0.77023 0.0
C676 C 0.37185 0.58602 0.76792 0.0
C677 C 0.33965 0.59633 0.7767 0.0
H678 H 0.33959 0.54507 0.78125 0.0
H679 H 0.3871 0.58995 0.76262 0.0
C680 C 0.40668 0.48424 0.76221 0.0
N681 N 0.40657 0.44368 0.75631 0.0
C682 C 0.41131 0.47839 0.74375 0.0
C683 C 0.40232 0.46947 0.77775 0.0
C684 C 0.41109 0.45781 0.74103 0.0
C685 C 0.40224 0.44905 0.77445 0.0
C686 C 0.37112 0.54517 0.72954 0.0
C687 C 0.35361 0.54213 0.71741 0.0
C688 C 0.38443 0.56303 0.72666 0.0
C689 C 0.34969 0.55706 0.70256 0.0
C690 C 0.37997 0.5776 0.71166 0.0
N691 N 0.36283 0.57434 0.70002 0.0
C692 C 0.34418 0.47604 0.77219 0.0
C693 C 0.35958 0.47647 0.74125 0.0
C694 C 0.33078 0.45895 0.76788 0.0
N695 N 0.35832 0.48429 0.75898 0.0
C696 C 0.34671 0.45924 0.73644 0.0
C697 C 0.33199 0.45019 0.74981 0.0
H698 H 0.34316 0.48282 0.786 0.0
H699 H 0.37069 0.48358 0.73084 0.0
C700 C 0.44175 0.54168 0.72857 0.0
N701 N 0.42175 0.5342 0.72692 0.0
C702 C 0.45438 0.54222 0.71243 0.0
C703 C 0.42553 0.52751 0.69327 0.0
C704 C 0.41346 0.52742 0.70966 0.0
C705 C 0.44636 0.53469 0.69461 0.0
H706 H 0.44802 0.54664 0.74258 0.0
H707 H 0.39757 0.5213 0.70885 0.0
O708 O 0.37325 0.52046 0.78913 0.0
O709 O 0.41067 0.54884 0.77123 0.0
O710 O 0.40648 0.5043 0.76506 0.0
O711 O 0.37504 0.53074 0.74423 0.0
H712 H 0.3653 0.54758 0.8134 0.0
H713 H 0.37373 0.48498 0.80967 0.0
H714 H 0.35961 0.54034 0.84927 0.0
H715 H 0.36814 0.47889 0.84567 0.0
H716 H 0.44689 0.61136 0.76621 0.0
H717 H 0.40096 0.56103 0.8054 0.0
H718 H 0.43508 0.57818 0.75288 0.0
H719 H 0.41348 0.59437 0.81796 0.0
H720 H 0.4289 0.52652 0.85739 0.0
H721 H 0.45896 0.48868 0.82196 0.0
H722 H 0.31718 0.57111 0.78577 0.0
H723 H 0.36575 0.61702 0.76669 0.0
H724 H 0.41488 0.4896 0.73159 0.0
H725 H 0.39906 0.47375 0.7922 0.0
H726 H 0.4145 0.45307 0.72678 0.0
H727 H 0.39877 0.43746 0.78633 0.0
H728 H 0.34315 0.52838 0.71948 0.0
H729 H 0.39804 0.56565 0.73591 0.0
H730 H 0.33618 0.55492 0.69306 0.0
H731 H 0.39012 0.5915 0.70929 0.0
H732 H 0.31942 0.45288 0.7785 0.0
H733 H 0.34849 0.45301 0.72245 0.0
H734 H 0.4704 0.5477 0.71414 0.0
H735 H 0.4187 0.52174 0.67975 0.0
Li736 Li 0.78113 0.41099 0.50518 0.0
Li737 Li 0.76582 0.38269 0.52706 0.0
Li738 Li 0.75814 0.38324 0.49029 0.0
Li739 Li 0.74325 0.40569 0.51154 0.0
C740 C 0.80244 0.3789 0.49615 0.0
N741 N 0.83782 0.3734 0.47801 0.0
C742 C 0.8185 0.37128 0.50723 0.0
C743 C 0.80429 0.38337 0.47578 0.0
C744 C 0.83629 0.36871 0.49781 0.0
C745 C 0.8223 0.38058 0.46689 0.0
C746 C 0.77233 0.41342 0.54963 0.0
C747 C 0.76416 0.40883 0.58415 0.0
N748 N 0.78406 0.41434 0.58916 0.0
C749 C 0.79266 0.41921 0.55511 0.0
C750 C 0.75792 0.40836 0.56425 0.0
C751 C 0.7983 0.41953 0.57517 0.0
C752 C 0.80035 0.44979 0.49317 0.0
N753 N 0.80407 0.43123 0.50131 0.0
C754 C 0.83975 0.4425 0.50419 0.0
C755 C 0.82327 0.42742 0.50704 0.0
C756 C 0.83641 0.46163 0.49528 0.0
C757 C 0.81637 0.4652 0.48982 0.0
H758 H 0.78489 0.45258 0.48917 0.0
H759 H 0.82581 0.41275 0.51399 0.0
C760 C 0.75669 0.35422 0.56048 0.0
N761 N 0.77165 0.36641 0.55075 0.0
C762 C 0.7611 0.34367 0.57854 0.0
C763 C 0.79629 0.35798 0.57589 0.0
C764 C 0.79117 0.36834 0.55803 0.0
C765 C 0.78113 0.3456 0.5866 0.0
H766 H 0.74127 0.35295 0.55444 0.0
H767 H 0.80271 0.37836 0.55017 0.0
C768 C 0.75694 0.42122 0.46702 0.0
N769 N 0.75581 0.43796 0.42837 0.0
C770 C 0.73858 0.42621 0.45812 0.0
C771 C 0.77479 0.4252 0.45634 0.0
C772 C 0.73829 0.43452 0.43855 0.0
C773 C 0.7739 0.43355 0.43681 0.0
C774 C 0.71883 0.3709 0.51487 0.0
C775 C 0.70647 0.36321 0.49935 0.0
C776 C 0.71003 0.37416 0.53254 0.0
C777 C 0.68545 0.35922 0.50167 0.0
C778 C 0.68895 0.37001 0.53427 0.0
N779 N 0.6772 0.36271 0.51892 0.0
C780 C 0.7633 0.35158 0.46525 0.0
C781 C 0.7386 0.37298 0.45372 0.0
C782 C 0.76013 0.34083 0.44826 0.0
N783 N 0.75289 0.36761 0.46748 0.0
C784 C 0.73486 0.36262 0.4366 0.0
C785 C 0.7459 0.34647 0.43348 0.0
H786 H 0.77431 0.34729 0.47655 0.0
H787 H 0.72992 0.38521 0.45612 0.0
C788 C 0.72057 0.43335 0.52843 0.0
N789 N 0.72 0.41981 0.51439 0.0
C790 C 0.70433 0.4447 0.52997 0.0
C791 C 0.68716 0.42793 0.50261 0.0
C792 C 0.70362 0.41678 0.50174 0.0
C793 C 0.68747 0.44228 0.51673 0.0
H794 H 0.73385 0.43568 0.53818 0.0
H795 H 0.70345 0.40591 0.49073 0.0
O796 O 0.78495 0.38166 0.50519 0.0
O797 O 0.76662 0.41248 0.53007 0.0
O798 O 0.75748 0.41316 0.48627 0.0
O799 O 0.73943 0.37513 0.51278 0.0
H800 H 0.8173 0.36738 0.52293 0.0
H801 H 0.79182 0.38858 0.46685 0.0
H802 H 0.84887 0.36295 0.50624 0.0
H803 H 0.82389 0.38401 0.45113 0.0
H804 H 0.75319 0.4048 0.59561 0.0
H805 H 0.80401 0.4232 0.54403 0.0
H806 H 0.74211 0.40398 0.56029 0.0
H807 H 0.81401 0.42383 0.57962 0.0
H808 H 0.85496 0.43912 0.50859 0.0
H809 H 0.8131 0.47984 0.48319 0.0
H810 H 0.74882 0.33456 0.58631 0.0
H811 H 0.81199 0.35976 0.58126 0.0
H812 H 0.72465 0.42357 0.46614 0.0
H813 H 0.78929 0.4222 0.46308 0.0
H814 H 0.72414 0.43825 0.43146 0.0
H815 H 0.78761 0.43664 0.42841 0.0
H816 H 0.71302 0.36036 0.48567 0.0
H817 H 0.71935 0.38004 0.54472 0.0
H818 H 0.6757 0.35336 0.48974 0.0
H819 H 0.68194 0.37263 0.54781 0.0
H820 H 0.76906 0.32855 0.44655 0.0
H821 H 0.72331 0.36719 0.42596 0.0
H822 H 0.70525 0.45573 0.54095 0.0
H823 H 0.67436 0.42543 0.49228 0.0
Li824 Li 0.65982 0.98001 0.78505 0.0
Li825 Li 0.63657 1.00003 0.80061 0.0
Li826 Li 0.6359 0.99787 0.76329 0.0
Li827 Li 0.66364 0.0184 0.7804 0.0
C828 C 0.62317 0.95564 0.78763 0.0
N829 N 0.6109 0.91453 0.79351 0.0
C830 C 0.61788 0.94703 0.80645 0.0
C831 C 0.62188 0.9434 0.77173 0.0
C832 C 0.6118 0.9262 0.80914 0.0
C833 C 0.61575 0.92264 0.77502 0.0
C834 C 0.67025 1.00036 0.82515 0.0
C835 C 0.67273 0.01746 0.85534 0.0
N836 N 0.67709 1.00008 0.86566 0.0
C837 C 0.67497 0.98274 0.83604 0.0
C838 C 0.66933 0.01793 0.83486 0.0
C839 C 0.67831 0.98288 0.85651 0.0
C840 C 0.69068 0.9573 0.77527 0.0
N841 N 0.67488 0.95678 0.78758 0.0
C842 C 0.68197 0.92439 0.80243 0.0
C843 C 0.67045 0.94077 0.8011 0.0
C844 C 0.69803 0.92438 0.78954 0.0
C845 C 0.70234 0.94114 0.77585 0.0
H846 H 0.69433 0.97035 0.76499 0.0
H847 H 0.65815 0.94076 0.81107 0.0
C848 C 0.60614 0.01602 0.82007 0.0
N849 N 0.61996 1.00244 0.82279 0.0
C850 C 0.59448 0.01991 0.83571 0.0
C851 C 0.61071 0.99508 0.85661 0.0
C852 C 0.62216 0.99175 0.84055 0.0
C853 C 0.59684 0.00955 0.85437 0.0
H854 H 0.60425 0.02401 0.80574 0.0
H855 H 0.63296 0.98078 0.84238 0.0
C856 C 0.66909 0.99514 0.74146 0.0
N857 N 0.67533 0.98865 0.70257 0.0
C858 C 0.67862 0.01074 0.72885 0.0
C859 C 0.66302 0.97616 0.73437 0.0
C860 C 0.68156 0.00719 0.70921 0.0
C861 C 0.66623 0.9732 0.71465 0.0
C862 C 0.63344 0.04216 0.77702 0.0
C863 C 0.62791 0.05182 0.75889 0.0
C864 C 0.63829 0.05361 0.79331 0.0
C865 C 0.62777 0.07283 0.75724 0.0
C866 C 0.638 0.07459 0.79107 0.0
N867 N 0.63282 0.08369 0.77323 0.0
C868 C 0.60116 0.9847 0.73915 0.0
C869 C 0.62455 0.01045 0.72394 0.0
C870 C 0.58805 0.98533 0.72243 0.0
N871 N 0.61895 0.99726 0.73965 0.0
C872 C 0.61191 0.01164 0.707 0.0
C873 C 0.59324 0.99917 0.70617 0.0
H874 H 0.59688 0.97456 0.75194 0.0
H875 H 0.63858 0.02052 0.72478 0.0
C876 C 0.6958 0.04679 0.79306 0.0
N877 N 0.68216 0.04277 0.77796 0.0
C878 C 0.70812 0.06534 0.79284 0.0
C879 C 0.69293 0.07493 0.76099 0.0
C880 C 0.68079 0.05621 0.7619 0.0
C881 C 0.70653 0.07983 0.7768 0.0
H882 H 0.6969 0.03572 0.80547 0.0
H883 H 0.66989 0.05262 0.75002 0.0
O884 O 0.62917 0.97601 0.78473 0.0
O885 O 0.66682 1.00044 0.80508 0.0
O886 O 0.66588 0.9984 0.76069 0.0
O887 O 0.63404 0.02162 0.77884 0.0
H888 H 0.61861 0.95628 0.81887 0.0
H889 H 0.62541 0.94986 0.75698 0.0
H890 H 0.60781 0.91931 0.82366 0.0
H891 H 0.61476 0.91298 0.76286 0.0
H892 H 0.67194 0.03093 0.86303 0.0
H893 H 0.67603 0.96909 0.82882 0.0
H894 H 0.66606 0.0318 0.8267 0.0
H895 H 0.68186 0.9693 0.86511 0.0
H896 H 0.67818 0.91173 0.81321 0.0
H897 H 0.71479 0.94186 0.76585 0.0
H898 H 0.58365 0.03087 0.83318 0.0
H899 H 0.61304 0.98676 0.87074 0.0
H900 H 0.68365 0.02545 0.73414 0.0
H901 H 0.65602 0.96384 0.74403 0.0
H902 H 0.6888 0.01916 0.69926 0.0
H903 H 0.66153 0.9586 0.70896 0.0
H904 H 0.62382 0.04324 0.74619 0.0
H905 H 0.6422 0.04639 0.80752 0.0
H906 H 0.62366 0.0805 0.74326 0.0
H907 H 0.64186 0.08363 0.80354 0.0
H908 H 0.5737 0.9756 0.72251 0.0
H909 H 0.61663 0.02239 0.69475 0.0
H910 H 0.71868 0.06838 0.80517 0.0
H911 H 0.69118 0.08572 0.7484 0.0
Li912 Li 0.03799 0.27968 0.89358 0.0
Li913 Li 0.01684 0.29161 0.9214 0.0
Li914 Li 0.01953 0.2553 0.91708 0.0
Li915 Li 1.00034 0.27388 0.89406 0.0
C916 C 0.0523 0.26768 0.93826 0.0
N917 N 0.072 0.24726 0.96896 0.0
C918 C 0.0455 0.26709 0.95755 0.0
C919 C 0.06916 0.25793 0.93459 0.0
C920 C 0.05564 0.25667 0.97287 0.0
C921 C 0.07891 0.24769 0.95031 0.0
C922 C 1.00801 0.31201 0.87889 0.0
C923 C 0.98598 0.33791 0.87043 0.0
N924 N 0.98662 0.33435 0.85102 0.0
C925 C 1.00853 0.30867 0.85886 0.0
C926 C 0.99669 0.32677 0.88476 0.0
C927 C 0.99757 0.32009 0.84499 0.0
C928 C 0.06104 0.28497 0.85844 0.0
N929 N 0.06197 0.28609 0.87839 0.0
C930 C 0.09813 0.29443 0.87794 0.0
C931 C 0.08 0.29097 0.88817 0.0
C932 C 0.09779 0.29346 0.85725 0.0
C933 C 0.07877 0.2888 0.84752 0.0
H934 H 0.04655 0.28083 0.85101 0.0
H935 H 0.08035 0.2919 0.90401 0.0
C936 C 1.006 0.30633 0.95692 0.0
N937 N 0.01531 0.31188 0.93949 0.0
C938 C 1.00379 0.32081 0.97022 0.0
C939 C 0.02078 0.34651 0.94743 0.0
C940 C 0.02282 0.33148 0.93463 0.0
C941 C 0.01112 0.34124 0.96551 0.0
H942 H 1.00004 0.29066 0.96037 0.0
H943 H 0.0302 0.33547 0.92068 0.0
C944 C 0.02251 0.23611 0.88374 0.0
N945 N 0.02829 0.19716 0.87603 0.0
C946 C 1.0065 0.22043 0.88573 0.0
C947 C 0.04139 0.23203 0.87756 0.0
C948 C 0.00975 0.20083 0.88186 0.0
C949 C 0.04402 0.21222 0.87379 0.0
C950 C 0.97491 0.2645 0.92385 0.0
C951 C 0.96496 0.24558 0.91954 0.0
C952 C 0.96355 0.27951 0.92908 0.0
C953 C 0.94375 0.24209 0.92017 0.0
C954 C 0.94236 0.27543 0.92958 0.0
N955 N 0.93298 0.25697 0.92512 0.0
C956 C 1.00813 0.22361 0.94686 0.0
C957 C 0.03627 0.21826 0.92831 0.0
C958 C 0.00921 0.20514 0.95803 0.0
N959 N 0.0214 0.22968 0.93214 0.0
C960 C 0.03775 0.19966 0.93891 0.0
C961 C 0.02401 0.1928 0.9539 0.0
H962 H 0.9967 0.23311 0.94995 0.0
H963 H 0.04715 0.22364 0.91712 0.0
C964 C 0.9735 0.25915 0.86305 0.0
N965 N 0.97611 0.27275 0.87712 0.0
C966 C 0.95555 0.25715 0.85137 0.0
C967 C 0.94357 0.28367 0.8684 0.0
C968 C 0.96173 0.28516 0.87968 0.0
C969 C 0.94013 0.26929 0.85422 0.0
H970 H 0.98524 0.24962 0.86105 0.0
H971 H 0.9642 0.2961 0.89069 0.0
O972 O 0.04222 0.2774 0.92303 0.0
O973 O 0.01838 0.30076 0.89271 0.0
O974 O 0.01964 0.25541 0.88747 0.0
O975 O 0.99566 0.26827 0.92308 0.0
H976 H 0.03238 0.27439 0.96063 0.0
H977 H 0.07441 0.25788 0.91971 0.0
H978 H 0.05047 0.256 0.98785 0.0
H979 H 0.09188 0.23997 0.94766 0.0
H980 H 0.97707 0.3493 0.87476 0.0
H981 H 0.01702 0.29717 0.8541 0.0
H982 H 0.99593 0.3294 0.90021 0.0
H983 H 0.99772 0.31757 0.82945 0.0
H984 H 0.11227 0.29748 0.88635 0.0
H985 H 0.07747 0.28819 0.83163 0.0
H986 H 0.99604 0.3161 0.98387 0.0
H987 H 0.02683 0.36204 0.94331 0.0
H988 H 0.99173 0.22336 0.89024 0.0
H989 H 0.05397 0.24393 0.87595 0.0
H990 H 0.99753 0.18853 0.88346 0.0
H991 H 0.05859 0.20882 0.86915 0.0
H992 H 0.97354 0.23371 0.91574 0.0
H993 H 0.97097 0.29429 0.93236 0.0
H994 H 0.93585 0.22755 0.91675 0.0
H995 H 0.93336 0.28697 0.93343 0.0
H996 H 0.99835 0.2004 0.9695 0.0
H997 H 0.04969 0.19082 0.93554 0.0
H998 H 0.95351 0.24579 0.84069 0.0
H999 H 0.93228 0.29361 0.87085 0.0
Li1000 Li 0.54098 0.77689 0.39636 0.0
Li1001 Li 0.51793 0.78821 0.41996 0.0
Li1002 Li 0.52762 0.75242 0.42288 0.0
Li1003 Li 0.50352 0.76324 0.39661 0.0
C1004 C 0.56483 0.787 0.42865 0.0
N1005 N 0.60461 0.80399 0.43462 0.0
C1006 C 0.56904 0.80737 0.43261 0.0
C1007 C 0.58083 0.7752 0.42804 0.0
C1008 C 0.58925 0.8157 0.43552 0.0
C1009 C 0.60084 0.78409 0.431 0.0
C1010 C 0.51071 0.81012 0.3845 0.0
C1011 C 0.48461 0.83243 0.37893 0.0
N1012 N 0.49894 0.84774 0.37269 0.0
C1013 C 0.52514 0.82601 0.37781 0.0
C1014 C 0.49024 0.81328 0.38487 0.0
C1015 C 0.51891 0.84494 0.37198 0.0
C1016 C 0.56638 0.77219 0.365 0.0
N1017 N 0.56352 0.7847 0.37927 0.0
C1018 C 0.59178 0.80807 0.36801 0.0
C1019 C 0.5758 0.80241 0.38092 0.0
C1020 C 0.59508 0.79548 0.35309 0.0
C1021 C 0.58217 0.77725 0.35177 0.0
H1022 H 0.55619 0.75839 0.36367 0.0
H1023 H 0.57306 0.81235 0.39207 0.0
C1024 C 0.50131 0.80382 0.45208 0.0
N1025 N 0.51175 0.80966 0.43533 0.0
C1026 C 0.49599 0.81824 0.46415 0.0
C1027 C 0.51285 0.84456 0.44196 0.0
C1028 C 0.51773 0.8296 0.43021 0.0
C1029 C 0.5017 0.83895 0.45913 0.0
H1030 H 0.49715 0.78789 0.45615 0.0
H1031 H 0.52647 0.83395 0.41715 0.0
C1032 C 0.53374 0.72984 0.39297 0.0
N1033 N 0.54584 0.69179 0.39124 0.0
C1034 C 0.5196 0.7136 0.38792 0.0
C1035 C 0.55409 0.7268 0.39683 0.0
C1036 C 0.52599 0.69446 0.38721 0.0
C1037 C 0.55989 0.70744 0.39597 0.0
C1038 C 0.48051 0.75677 0.42984 0.0
C1039 C 0.47362 0.73724 0.43772 0.0
C1040 C 0.46678 0.77111 0.42638 0.0
C1041 C 0.45298 0.73225 0.44161 0.0
C1042 C 0.44626 0.76555 0.43047 0.0
N1043 N 0.43983 0.74638 0.43791 0.0
C1044 C 0.54749 0.73485 0.45631 0.0
C1045 C 0.52353 0.71164 0.44036 0.0
C1046 C 0.55163 0.71979 0.47094 0.0
N1047 N 0.5336 0.73058 0.44146 0.0
C1048 C 0.52723 0.69609 0.45466 0.0
C1049 C 0.54128 0.70013 0.47037 0.0
H1050 H 0.5551 0.75007 0.45704 0.0
H1051 H 0.51225 0.7087 0.42865 0.0
C1052 C 0.47613 0.76558 0.36336 0.0
N1053 N 0.48033 0.75434 0.38035 0.0
C1054 C 0.45999 0.75882 0.35066 0.0
C1055 C 0.4528 0.72902 0.37312 0.0
C1056 C 0.46902 0.73639 0.3854 0.0
C1057 C 0.44821 0.74018 0.35537 0.0
H1058 H 0.48562 0.77958 0.35943 0.0
H1059 H 0.4729 0.72749 0.39872 0.0
O1060 O 0.54513 0.77862 0.42568 0.0
O1061 O 0.51657 0.79148 0.3903 0.0
O1062 O 0.52772 0.74866 0.39396 0.0
O1063 O 0.50066 0.76189 0.42582 0.0
H1064 H 0.55686 0.81668 0.4333 0.0
H1065 H 0.57785 0.75934 0.42538 0.0
H1066 H 0.59273 0.83148 0.43846 0.0
H1067 H 0.61338 0.77515 0.43046 0.0
H1068 H 0.46882 0.8351 0.37922 0.0
H1069 H 0.541 0.8238 0.37723 0.0
H1070 H 0.4788 0.80105 0.38952 0.0
H1071 H 0.52994 0.85741 0.3669 0.0
H1072 H 0.60142 0.82219 0.36972 0.0
H1073 H 0.58388 0.76723 0.34031 0.0
H1074 H 0.48774 0.81319 0.47745 0.0
H1075 H 0.51756 0.86035 0.43751 0.0
H1076 H 0.50384 0.7157 0.38468 0.0
H1077 H 0.56529 0.73927 0.40039 0.0
H1078 H 0.51518 0.68172 0.38345 0.0
H1079 H 0.57558 0.70486 0.39902 0.0
H1080 H 0.48406 0.726 0.44068 0.0
H1081 H 0.47193 0.78641 0.42075 0.0
H1082 H 0.44741 0.71714 0.44758 0.0
H1083 H 0.43546 0.77649 0.4278 0.0
H1084 H 0.56272 0.72356 0.48265 0.0
H1085 H 0.51868 0.68126 0.45379 0.0
H1086 H 0.45721 0.76776 0.33699 0.0
H1087 H 0.44405 0.71465 0.37741 0.0
Li1088 Li 0.02162 0.7766 0.6445 0.0
Li1089 Li 0.99806 0.75792 0.6683 0.0
Li1090 Li 0.03528 0.75245 0.66971 0.0
Li1091 Li 0.01188 0.73862 0.64348 0.0
C1092 C 0.03222 0.79609 0.67784 0.0
N1093 N 0.05174 0.83388 0.68535 0.0
C1094 C 0.02171 0.81003 0.68632 0.0
C1095 C 0.05271 0.80128 0.67342 0.0
C1096 C 0.03183 0.82908 0.68993 0.0
C1097 C 0.0623 0.82048 0.67727 0.0
C1098 C 0.97443 0.76197 0.63471 0.0
C1099 C 0.94049 0.74528 0.62916 0.0
N1100 N 0.9334 0.76366 0.62645 0.0
C1101 C 0.96687 0.78069 0.63157 0.0
C1102 C 0.96119 0.74412 0.63325 0.0
C1103 C 0.94606 0.78123 0.62753 0.0
C1104 C 0.03778 0.80288 0.61227 0.0
N1105 N 0.02635 0.80158 0.62862 0.0
C1106 C 0.01833 0.83544 0.62112 0.0
C1107 C 0.01678 0.81743 0.63326 0.0
C1108 C 0.02976 0.83716 0.60393 0.0
C1109 C 0.03981 0.82066 0.59972 0.0
H1110 H 0.04488 0.78991 0.60869 0.0
H1111 H 1.00749 0.8159 0.64614 0.0
C1112 C 0.9653 0.74643 0.69525 0.0
N1113 N 0.97485 0.76146 0.68302 0.0
C1114 C 0.94811 0.74975 0.70533 0.0
C1115 C 0.95131 0.78411 0.69046 0.0
C1116 C 0.96833 0.78009 0.68066 0.0
C1117 C 0.94079 0.76879 0.7029 0.0
H1118 H 0.97095 0.73184 0.6972 0.0
H1119 H 0.97637 0.79187 0.67106 0.0
C1120 C 0.05809 0.75148 0.63591 0.0
N1121 N 0.09661 0.74419 0.62634 0.0
C1122 C 0.06174 0.73197 0.63207 0.0
C1123 C 0.07396 0.76735 0.63452 0.0
C1124 C 0.08134 0.72857 0.62737 0.0
C1125 C 0.09334 0.76334 0.62977 0.0
C1126 C 1.00417 0.71185 0.67638 0.0
C1127 C 0.01777 0.69865 0.68441 0.0
C1128 C 0.98398 0.70428 0.67212 0.0
C1129 C 0.01099 0.67802 0.68776 0.0
C1130 C 0.97778 0.68355 0.67566 0.0
N1131 N 0.99131 0.67096 0.68333 0.0
C1132 C 0.06294 0.75866 0.70268 0.0
C1133 C 0.06909 0.73189 0.68367 0.0
C1134 C 0.07932 0.75493 0.7156 0.0
N1135 N 0.05824 0.7473 0.68697 0.0
C1136 C 0.08551 0.72757 0.69626 0.0
C1137 C 0.09082 0.73913 0.71252 0.0
H1138 H 0.0538 0.77047 0.70539 0.0
H1139 H 0.06476 0.72264 0.6715 0.0
C1140 C 0.99945 0.72446 0.60691 0.0
N1141 N 1.00636 0.71791 0.62516 0.0
C1142 C 0.99658 0.71136 0.59173 0.0
C1143 C 1.0076 0.68471 0.61439 0.0
C1144 C 0.01034 0.6984 0.62916 0.0
C1145 C 1.00096 0.69126 0.59526 0.0
H1146 H 0.9966 0.74008 0.60402 0.0
H1147 H 0.0164 0.69359 0.64354 0.0
O1148 O 0.0225 0.77747 0.67384 0.0
O1149 O 0.99474 0.76114 0.63891 0.0
O1150 O 0.03896 0.75509 0.64042 0.0
O1151 O 0.01059 0.73208 0.67292 0.0
H1152 H 1.00592 0.80621 0.69005 0.0
H1153 H 0.06112 0.79054 0.66721 0.0
H1154 H 0.02386 0.84006 0.6964 0.0
H1155 H 0.07814 0.8247 0.67386 0.0
H1156 H 0.93006 0.73157 0.62808 0.0
H1157 H 0.97691 0.79467 0.6324 0.0
H1158 H 0.96684 0.72953 0.63511 0.0
H1159 H 0.93997 0.79561 0.62526 0.0
H1160 H 0.0105 0.84783 0.62506 0.0
H1161 H 0.04855 0.82123 0.5865 0.0
H1162 H 0.94046 0.73744 0.71465 0.0
H1163 H 0.94657 0.79914 0.68842 0.0
H1164 H 0.04966 0.71952 0.63297 0.0
H1165 H 0.07135 0.78265 0.63691 0.0
H1166 H 0.0844 0.7135 0.62454 0.0
H1167 H 0.10577 0.77548 0.62872 0.0
H1168 H 0.03339 0.70425 0.68801 0.0
H1169 H 0.97317 0.71429 0.66623 0.0
H1170 H 0.02137 0.66763 0.69388 0.0
H1171 H 0.96221 0.67749 0.67236 0.0
H1172 H 0.08262 0.764 0.72815 0.0
H1173 H 0.09397 0.71529 0.69325 0.0
H1174 H 0.99125 0.71701 0.57726 0.0
H1175 H 0.01145 0.66944 0.61768 0.0
Li1176 Li 0.51782 0.27656 0.13902 0.0
Li1177 Li 0.49729 0.25878 0.16572 0.0
Li1178 Li 0.53374 0.25285 0.16456 0.0
Li1179 Li 0.50819 0.23963 0.14108 0.0
C1180 C 0.53651 0.29369 0.17308 0.0
N1181 N 0.56627 0.32411 0.18341 0.0
C1182 C 0.53422 0.30439 0.18956 0.0
C1183 C 0.55389 0.29847 0.16181 0.0
C1184 C 0.54945 0.31973 0.19455 0.0
C1185 C 0.56877 0.31389 0.16729 0.0
C1186 C 0.46994 0.26227 0.13737 0.0
C1187 C 0.436 0.24594 0.14352 0.0
N1188 N 0.42868 0.26415 0.1401 0.0
C1189 C 0.46206 0.28079 0.13371 0.0
C1190 C 0.4568 0.24467 0.14213 0.0
C1191 C 0.44117 0.28144 0.13524 0.0
C1192 C 0.53528 0.30514 0.10849 0.0
N1193 N 0.52233 0.30187 0.12377 0.0
C1194 C 0.51522 0.33628 0.11986 0.0
C1195 C 0.51244 0.31697 0.12962 0.0
C1196 C 0.52858 0.34026 0.10406 0.0
C1197 C 0.53861 0.32432 0.09833 0.0
H1198 H 0.54334 0.293 0.10443 0.0
H1199 H 0.50254 0.31403 0.14207 0.0
C1200 C 0.46581 0.2498 0.1947 0.0
N1201 N 0.47674 0.2642 0.18283 0.0
C1202 C 0.45136 0.2553 0.20716 0.0
C1203 C 0.45964 0.2902 0.19469 0.0
C1204 C 0.47391 0.28406 0.18261 0.0
C1205 C 0.44824 0.27581 0.20738 0.0
H1206 H 0.46845 0.23411 0.19467 0.0
H1207 H 0.48281 0.29517 0.17298 0.0
C1208 C 0.54161 0.24522 0.12039 0.0
N1209 N 0.55217 0.2238 0.08995 0.0
C1210 C 0.53352 0.24893 0.10127 0.0
C1211 C 0.55514 0.2307 0.12404 0.0
C1212 C 0.53901 0.23789 0.08608 0.0
C1213 C 0.5603 0.22004 0.10844 0.0
C1214 C 0.50758 0.21231 0.17291 0.0
C1215 C 0.52492 0.20226 0.17604 0.0
C1216 C 0.48831 0.2011 0.17267 0.0
C1217 C 0.5227 0.18111 0.1786 0.0
C1218 C 0.48673 0.17997 0.17523 0.0
N1219 N 0.50381 0.17049 0.17811 0.0
C1220 C 0.5573 0.24315 0.19937 0.0
C1221 C 0.57637 0.25475 0.17104 0.0
C1222 C 0.57519 0.24086 0.21065 0.0
N1223 N 0.55822 0.24982 0.17991 0.0
C1224 C 0.5946 0.25285 0.18176 0.0
C1225 C 0.59423 0.24565 0.20184 0.0
H1226 H 0.54263 0.23941 0.20607 0.0
H1227 H 0.57669 0.26024 0.1556 0.0
C1228 C 0.48703 0.22105 0.10901 0.0
N1229 N 0.50082 0.21771 0.12399 0.0
C1230 C 0.48294 0.20737 0.09439 0.0
C1231 C 0.5068 0.18658 0.11106 0.0
C1232 C 0.51058 0.20077 0.12528 0.0
C1233 C 0.49312 0.19001 0.09513 0.0
H1234 H 0.47979 0.2348 0.10792 0.0
H1235 H 0.52211 0.19872 0.13672 0.0
O1236 O 0.52171 0.27867 0.16801 0.0
O1237 O 0.49043 0.26138 0.13655 0.0
O1238 O 0.53598 0.25547 0.13555 0.0
O1239 O 0.50944 0.23302 0.17059 0.0
H1240 H 0.52081 0.30088 0.19839 0.0
H1241 H 0.55588 0.29037 0.14897 0.0
H1242 H 0.54789 0.32814 0.20728 0.0
H1243 H 0.58231 0.31774 0.15872 0.0
H1244 H 0.42568 0.23245 0.14732 0.0
H1245 H 0.47196 0.29453 0.12982 0.0
H1246 H 0.46263 0.23021 0.14479 0.0
H1247 H 0.43488 0.29569 0.13257 0.0
H1248 H 0.50698 0.34798 0.1247 0.0
H1249 H 0.54931 0.32675 0.08648 0.0
H1250 H 0.44307 0.2437 0.2168 0.0
H1251 H 0.45752 0.3061 0.194 0.0
H1252 H 0.52281 0.25992 0.09827 0.0
H1253 H 0.56136 0.22751 0.13881 0.0
H1254 H 0.53272 0.24045 0.07125 0.0
H1255 H 0.57068 0.20868 0.11105 0.0
H1256 H 0.53996 0.21064 0.17619 0.0
H1257 H 0.47471 0.20861 0.17058 0.0
H1258 H 0.536 0.17313 0.18089 0.0
H1259 H 0.47192 0.1711 0.17499 0.0
H1260 H 0.57407 0.23506 0.22598 0.0
H1261 H 0.60885 0.25717 0.17439 0.0
H1262 H 0.47224 0.21058 0.08237 0.0
H1263 H 0.51528 0.1736 0.11199 0.0
H1264 H 0.24373 0.754 0.86866 0.0
H1265 H 0.21921 0.7924 0.82105 0.0
H1266 H 0.22094 0.82021 0.84316 0.0
H1267 H 0.21776 0.77129 0.90785 0.0
H1268 H 0.2388 0.77045 0.92553 0.0
H1269 H 0.23599 0.75357 0.9059 0.0
H1270 H 0.27246 0.76688 0.8947 0.0
H1271 H 0.2754 0.78376 0.91434 0.0
H1272 H 0.27921 0.79369 0.88909 0.0
H1273 H 0.22448 0.84363 0.87062 0.0
H1274 H 0.23041 0.86131 0.90132 0.0
H1275 H 0.25325 0.80806 0.93101 0.0
C1276 C 0.23897 0.76833 0.86278 0.0
C1277 C 0.23122 0.77091 0.84308 0.0
C1278 C 0.22489 0.78988 0.83614 0.0
C1279 C 0.22593 0.80584 0.84855 0.0
C1280 C 0.23344 0.8027 0.8679 0.0
C1281 C 0.23996 0.78447 0.87497 0.0
C1282 C 0.24721 0.78503 0.89645 0.0
C1283 C 0.23416 0.76914 0.90971 0.0
C1284 C 0.26992 0.78217 0.89878 0.0
C1285 C 0.24366 0.80639 0.90036 0.0
C1286 C 0.23569 0.8163 0.88369 0.0
C1287 C 0.23076 0.83604 0.88375 0.0
C1288 C 0.23407 0.84591 0.90131 0.0
C1289 C 0.24227 0.83609 0.9186 0.0
C1290 C 0.24718 0.81607 0.918 0.0
H1291 H 0.0478 0.58039 0.4245 0.0
H1292 H 1.00596 0.52734 0.44187 0.0
H1293 H 0.02285 0.50715 0.41975 0.0
H1294 H 0.0489 0.57114 0.37381 0.0
H1295 H 0.07549 0.58032 0.37125 0.0
H1296 H 0.06095 0.59015 0.38933 0.0
H1297 H 0.08689 0.58012 0.41696 0.0
H1298 H 0.10155 0.57029 0.39895 0.0
H1299 H 0.09264 0.55429 0.42028 0.0
H1300 H 0.04361 0.4932 0.39482 0.0
H1301 H 0.0665 0.48644 0.36892 0.0
H1302 H 0.09424 0.54898 0.36732 0.0
C1303 C 0.04243 0.56444 0.42386 0.0
C1304 C 0.02587 0.55524 0.43516 0.0
C1305 C 0.01889 0.53449 0.43358 0.0
C1306 C 0.02835 0.52297 0.42105 0.0
C1307 C 0.04467 0.53249 0.4101 0.0
C1308 C 0.05166 0.55275 0.41139 0.0
C1309 C 0.06895 0.55954 0.39751 0.0
C1310 C 0.06322 0.57627 0.38206 0.0
C1311 C 0.08868 0.56647 0.40912 0.0
C1312 C 0.0705 0.53998 0.38808 0.0
C1313 C 0.05642 0.52454 0.39559 0.0
C1314 C 0.05471 0.50518 0.38886 0.0
C1315 C 0.06769 0.50153 0.37404 0.0
C1316 C 0.08218 0.51717 0.36603 0.0
C1317 C 0.08357 0.53661 0.3733 0.0
H1318 H 0.82237 0.77244 0.86944 0.0
H1319 H 0.7577 0.77753 0.86035 0.0
H1320 H 0.7509 0.7572 0.89175 0.0
H1321 H 0.81551 0.72012 0.88802 0.0
H1322 H 0.83679 0.72272 0.90546 0.0
H1323 H 0.83691 0.73902 0.88295 0.0
H1324 H 0.84259 0.77058 0.90334 0.0
H1325 H 0.84248 0.75438 0.92592 0.0
H1326 H 0.82507 0.77326 0.92235 0.0
H1327 H 0.75094 0.73633 0.92422 0.0
H1328 H 0.75775 0.71474 0.95459 0.0
H1329 H 0.82173 0.72034 0.94106 0.0
C1330 C 0.80672 0.76922 0.87386 0.0
C1331 C 0.79064 0.77695 0.86229 0.0
C1332 C 0.77045 0.77242 0.86902 0.0
C1333 C 0.76636 0.76066 0.88681 0.0
C1334 C 0.78254 0.75323 0.89767 0.0
C1335 C 0.80229 0.75717 0.89138 0.0
C1336 C 0.81681 0.74663 0.90541 0.0
C1337 C 0.82711 0.73121 0.89482 0.0
C1338 C 0.83267 0.76214 0.91481 0.0
C1339 C 0.80211 0.73613 0.92057 0.0
C1340 C 0.78244 0.74035 0.91593 0.0
C1341 C 0.76625 0.73284 0.92795 0.0
C1342 C 0.77025 0.72066 0.94515 0.0
C1343 C 0.79021 0.71589 0.95003 0.0
C1344 C 0.80631 0.72365 0.93752 0.0
H1345 H 0.99702 1.00547 0.44929 0.0
H1346 H 0.05558 0.99777 0.42642 0.0
H1347 H 0.04132 1.00173 0.39222 0.0
H1348 H 0.96556 0.97886 0.41277 0.0
H1349 H 0.94652 0.99613 0.41135 0.0
H1350 H 0.96125 0.99227 0.43396 0.0
H1351 H 0.97263 0.0309 0.43346 0.0
H1352 H 0.95793 0.03488 0.41084 0.0
H1353 H 0.98473 0.04389 0.41192 0.0
H1354 H 0.02042 1.00601 0.36056 0.0
H1355 H 0.99491 0.01141 0.33373 0.0
H1356 H 0.95039 0.01806 0.37732 0.0
C1357 C 1.00675 1.00442 0.43706 0.0
C1358 C 0.02723 1.00073 0.44046 0.0
C1359 C 0.0397 1.00006 0.42411 0.0
C1360 C 0.03176 1.00237 0.40466 0.0
C1361 C 0.0114 1.00567 0.40182 0.0
C1362 C 0.9991 0.00682 0.41756 0.0
C1363 C 0.97789 0.011 0.41047 0.0
C1364 C 0.96186 0.99352 0.41756 0.0
C1365 C 0.97302 0.03138 0.41706 0.0
C1366 C 0.98014 0.01189 0.38828 0.0
C1367 C 0.99957 0.00874 0.3836 0.0
C1368 C 1.00521 0.00865 0.36405 0.0
C1369 C 0.99062 0.0119 0.34889 0.0
C1370 C 0.9706 0.01531 0.35331 0.0
C1371 C 0.96543 0.0153 0.37335 0.0
H1372 H 0.22161 0.22939 0.70692 0.0
H1373 H 0.23159 0.2914 0.68154 0.0
H1374 H 0.2484 0.28 0.65317 0.0
H1375 H 0.26978 0.21414 0.69148 0.0
H1376 H 0.25842 0.18901 0.68651 0.0
H1377 H 0.24823 0.20225 0.70525 0.0
H1378 H 0.21261 0.19743 0.68777 0.0
H1379 H 0.2227 0.18429 0.66893 0.0
H1380 H 0.20976 0.20623 0.66208 0.0
H1381 H 0.26145 0.26146 0.6264 0.0
H1382 H 0.27154 0.23763 0.60386 0.0
H1383 H 0.25485 0.18756 0.64746 0.0
C1384 C 0.22752 0.24053 0.69544 0.0
C1385 C 0.22509 0.26123 0.69616 0.0
C1386 C 0.23313 0.27546 0.68104 0.0
C1387 C 0.2427 0.26912 0.66493 0.0
C1388 C 0.24437 0.24851 0.66435 0.0
C1389 C 0.2372 0.23445 0.6793 0.0
C1390 C 0.24057 0.21318 0.67487 0.0
C1391 C 0.25512 0.20411 0.69045 0.0
C1392 C 0.2202 0.19948 0.67332 0.0
C1393 C 0.25038 0.21743 0.65492 0.0
C1394 C 0.25245 0.2379 0.64915 0.0
C1395 C 0.26025 0.24543 0.63092 0.0
C1396 C 0.2661 0.2317 0.61824 0.0
C1397 C 0.26431 0.21058 0.62382 0.0
C1398 C 0.25639 0.2035 0.64254 0.0
H1399 H 0.53172 0.57342 0.61547 0.0
H1400 H 0.51881 0.51487 0.59097 0.0
H1401 H 0.49377 0.50392 0.61682 0.0
H1402 H 0.52707 0.55491 0.66714 0.0
H1403 H 0.51516 0.57629 0.67365 0.0
H1404 H 0.53266 0.57926 0.65368 0.0
H1405 H 0.50505 0.59323 0.62999 0.0
H1406 H 0.48747 0.59026 0.64987 0.0
H1407 H 0.4806 0.57838 0.6272 0.0
H1408 H 0.46896 0.49989 0.64422 0.0
H1409 H 0.44704 0.50252 0.67224 0.0
H1410 H 0.47595 0.56366 0.6791 0.0
C1411 C 0.52364 0.55828 0.61556 0.0
C1412 C 0.52729 0.54497 0.6012 0.0
C1413 C 0.51651 0.52523 0.60196 0.0
C1414 C 0.50216 0.51891 0.61651 0.0
C1415 C 0.49881 0.53247 0.63029 0.0
C1416 C 0.50932 0.5517 0.63003 0.0
C1417 C 0.50265 0.56338 0.64642 0.0
C1418 C 0.52045 0.56877 0.66109 0.0
C1419 C 0.49339 0.58244 0.63785 0.0
C1420 C 0.4866 0.54778 0.65581 0.0
C1421 C 0.48461 0.53008 0.64624 0.0
C1422 C 0.47043 0.51365 0.65187 0.0
C1423 C 0.45795 0.51534 0.66772 0.0
C1424 C 0.45974 0.5333 0.67782 0.0
C1425 C 0.47437 0.54968 0.67178 0.0
H1426 H 0.76927 0.25939 0.67615 0.0
H1427 H 0.81482 0.29685 0.70892 0.0
H1428 H 0.81917 0.32159 0.67968 0.0
H1429 H 0.79347 0.26932 0.62786 0.0
H1430 H 0.76943 0.2695 0.61437 0.0
H1431 H 0.77103 0.2542 0.6374 0.0
H1432 H 0.74244 0.27191 0.65116 0.0
H1433 H 0.74086 0.28738 0.62827 0.0
H1434 H 0.74546 0.29915 0.65129 0.0
H1435 H 0.81636 0.34343 0.64795 0.0
H1436 H 0.80811 0.36017 0.61543 0.0
H1437 H 0.76518 0.30782 0.60266 0.0
C1438 C 0.78032 0.27271 0.67703 0.0
C1439 C 0.79161 0.27643 0.69476 0.0
C1440 C 0.80599 0.2939 0.69544 0.0
C1441 C 0.80853 0.30798 0.67894 0.0
C1442 C 0.79674 0.30418 0.66183 0.0
C1443 C 0.78308 0.28687 0.66067 0.0
C1444 C 0.77188 0.28671 0.64071 0.0
C1445 C 0.77675 0.26887 0.62942 0.0
C1446 C 0.7488 0.28627 0.64301 0.0
C1447 C 0.78108 0.30682 0.63097 0.0
C1448 C 0.79543 0.31661 0.64338 0.0
C1449 C 0.80541 0.33575 0.63797 0.0
C1450 C 0.80068 0.34509 0.61936 0.0
C1451 C 0.78613 0.3353 0.60624 0.0
C1452 C 0.77629 0.31584 0.61226 0.0
H1453 H 0.51142 0.96211 0.62232 0.0
H1454 H 0.50813 0.02553 0.60391 0.0
H1455 H 0.53388 0.03539 0.62988 0.0
H1456 H 0.51659 0.96803 0.67432 0.0
H1457 H 0.53409 0.94936 0.67914 0.0
H1458 H 0.5158 0.94723 0.65878 0.0
H1459 H 0.54494 0.94642 0.6346 0.0
H1460 H 0.56332 0.94848 0.6549 0.0
H1461 H 0.56571 0.96661 0.63369 0.0
H1462 H 0.55982 0.03837 0.65786 0.0
H1463 H 0.58368 0.03437 0.68643 0.0
H1464 H 0.57019 0.96897 0.68683 0.0
C1465 C 0.51629 0.97807 0.62362 0.0
C1466 C 0.5078 0.99307 0.61106 0.0
C1467 C 0.51431 0.0138 0.61346 0.0
C1468 C 0.52899 0.01954 0.62811 0.0
C1469 C 0.53697 1.00438 0.64029 0.0
C1470 C 0.53084 0.98407 0.63825 0.0
C1471 C 0.54151 0.97082 0.65356 0.0
C1472 C 0.52607 0.95811 0.66726 0.0
C1473 C 0.55465 0.95729 0.64359 0.0
C1474 C 0.55459 0.98685 0.66455 0.0
C1475 C 0.5518 0.0061 0.65658 0.0
C1476 C 0.56219 0.02337 0.66418 0.0
C1477 C 0.57581 0.02093 0.68034 0.0
C1478 C 0.57891 1.00136 0.68883 0.0
C1479 C 0.56807 0.98413 0.68077 0.0
H1480 H 0.86378 0.2436 0.76223 0.0
H1481 H 0.81439 0.24382 0.80221 0.0
H1482 H 0.83917 0.25444 0.82873 0.0
H1483 H 0.8975 0.22242 0.79762 0.0
H1484 H 0.9203 0.2371 0.78839 0.0
H1485 H 0.89872 0.23146 0.77187 0.0
H1486 H 0.89826 0.26977 0.762 0.0
H1487 H 0.91994 0.27553 0.77841 0.0
H1488 H 0.89696 0.28695 0.78099 0.0
H1489 H 0.869 0.26308 0.85131 0.0
H1490 H 0.90226 0.26885 0.86893 0.0
H1491 H 0.93285 0.26265 0.81472 0.0
C1492 C 0.85826 0.2463 0.77647 0.0
C1493 C 0.83723 0.24306 0.78023 0.0
C1494 C 0.83047 0.24627 0.79912 0.0
C1495 C 0.84441 0.25233 0.81422 0.0
C1496 C 0.86507 0.25504 0.81022 0.0
C1497 C 0.87203 0.25215 0.79184 0.0
C1498 C 0.89514 0.25493 0.7919 0.0
C1499 C 0.90339 0.23531 0.78717 0.0
C1500 C 0.90304 0.27287 0.77747 0.0
C1501 C 0.90001 0.25956 0.81322 0.0
C1502 C 0.88242 0.25974 0.82344 0.0
C1503 C 0.88291 0.2632 0.84343 0.0
C1504 C 0.9019 0.26657 0.85329 0.0
C1505 C 0.9202 0.26637 0.84321 0.0
C1506 C 0.91915 0.26284 0.82287 0.0
H1507 H 0.51891 0.9392 0.51836 0.0
H1508 H 0.45647 0.92549 0.53673 0.0
H1509 H 0.45263 0.89461 0.51826 0.0
H1510 H 0.50981 0.92341 0.46917 0.0
H1511 H 0.53362 0.91299 0.46834 0.0
H1512 H 0.53167 0.93359 0.48351 0.0
H1513 H 0.54426 0.91233 0.51424 0.0
H1514 H 0.54635 0.8917 0.49914 0.0
H1515 H 0.5311 0.88755 0.52082 0.0
H1516 H 0.45569 0.86526 0.49777 0.0
H1517 H 0.46509 0.83995 0.47621 0.0
H1518 H 0.52547 0.87309 0.47074 0.0
C1519 C 0.50452 0.92954 0.51867 0.0
C1520 C 0.48813 0.93439 0.52939 0.0
C1521 C 0.46934 0.92174 0.52899 0.0
C1522 C 0.46701 0.90424 0.5185 0.0
C1523 C 0.48354 0.89978 0.50824 0.0
C1524 C 0.50192 0.91209 0.50819 0.0
C1525 C 0.51714 0.90412 0.49561 0.0
C1526 C 0.52342 0.91944 0.47812 0.0
C1527 C 0.53582 0.89859 0.50821 0.0
C1528 C 0.50448 0.88538 0.48861 0.0
C1529 C 0.48517 0.88312 0.49611 0.0
C1530 C 0.47078 0.86687 0.49184 0.0
C1531 C 0.4763 0.85252 0.47966 0.0
C1532 C 0.49602 0.8545 0.47179 0.0
C1533 C 0.51021 0.87125 0.47633 0.0
H1534 H 0.17284 0.28437 0.76911 0.0
H1535 H 0.21883 0.32264 0.80096 0.0
H1536 H 0.19464 0.32421 0.82715 0.0
H1537 H 0.12987 0.30737 0.78069 0.0
H1538 H 0.11311 0.28406 0.78431 0.0
H1539 H 0.13399 0.28565 0.76782 0.0
H1540 H 0.14759 0.25482 0.78742 0.0
H1541 H 0.12661 0.25297 0.80382 0.0
H1542 H 0.15241 0.25529 0.81374 0.0
H1543 H 0.16485 0.32397 0.84858 0.0
H1544 H 0.13263 0.31878 0.86595 0.0
H1545 H 0.10702 0.27721 0.82266 0.0
C1546 C 0.178 0.29281 0.78172 0.0
C1547 C 0.19774 0.30373 0.78262 0.0
C1548 C 0.20367 0.31466 0.79946 0.0
C1549 C 0.19007 0.31553 0.81456 0.0
C1550 C 0.17065 0.30505 0.81293 0.0
C1551 C 0.16471 0.29356 0.79717 0.0
C1552 C 0.14301 0.28346 0.79931 0.0
C1553 C 0.12918 0.29057 0.782 0.0
C1554 C 0.14237 0.26026 0.80119 0.0
C1555 C 0.13764 0.29136 0.81856 0.0
C1556 C 0.15377 0.3039 0.82605 0.0
C1557 C 0.15224 0.3138 0.84312 0.0
C1558 C 0.13381 0.31057 0.853 0.0
C1559 C 0.11711 0.29724 0.84607 0.0
C1560 C 0.11923 0.2876 0.82848 0.0
H1561 H 0.55214 0.58817 0.51905 0.0
H1562 H 0.55478 0.61329 0.57628 0.0
H1563 H 0.55269 0.6474 0.55975 0.0
H1564 H 0.58216 0.63086 0.49293 0.0
H1565 H 0.56688 0.62896 0.47039 0.0
H1566 H 0.56942 0.60663 0.48668 0.0
H1567 H 0.53014 0.5996 0.48852 0.0
H1568 H 0.52749 0.62195 0.47231 0.0
H1569 H 0.51604 0.61898 0.49617 0.0
H1570 H 0.54954 0.67853 0.53721 0.0
H1571 H 0.54497 0.70471 0.51012 0.0
H1572 H 0.5444 0.65959 0.46731 0.0
C1573 C 0.55255 0.6009 0.52806 0.0
C1574 C 0.55364 0.5981 0.54895 0.0
C1575 C 0.55379 0.61508 0.56027 0.0
C1576 C 0.5527 0.63451 0.55102 0.0
C1577 C 0.55144 0.63673 0.53042 0.0
C1578 C 0.55134 0.62042 0.51906 0.0
C1579 C 0.5492 0.62691 0.4972 0.0
C1580 C 0.56804 0.62312 0.48615 0.0
C1581 C 0.52955 0.61622 0.48802 0.0
C1582 C 0.548 0.64938 0.49808 0.0
C1583 C 0.54945 0.65473 0.51739 0.0
C1584 C 0.54853 0.67457 0.52201 0.0
C1585 C 0.54605 0.68936 0.5065 0.0
C1586 C 0.54445 0.68427 0.48655 0.0
C1587 C 0.54546 0.66396 0.48238 0.0
H1588 H 0.86169 0.75931 0.79048 0.0
H1589 H 0.82538 0.79771 0.75284 0.0
H1590 H 0.85125 0.80075 0.72704 0.0
H1591 H 0.91127 0.78578 0.77662 0.0
H1592 H 0.92323 0.76282 0.77754 0.0
H1593 H 0.90224 0.76437 0.79321 0.0
H1594 H 0.88282 0.73236 0.77889 0.0
H1595 H 0.90369 0.73079 0.76309 0.0
H1596 H 0.87838 0.73197 0.75251 0.0
H1597 H 0.88009 0.79804 0.70482 0.0
H1598 H 0.91058 0.7911 0.68808 0.0
H1599 H 0.92878 0.75517 0.74064 0.0
C1600 C 0.8593 0.76841 0.77682 0.0
C1601 C 0.84147 0.77805 0.77341 0.0
C1602 C 0.83887 0.79005 0.75552 0.0
C1603 C 0.85346 0.79185 0.74085 0.0
C1604 C 0.87066 0.78175 0.74444 0.0
C1605 C 0.87374 0.7704 0.76204 0.0
C1606 C 0.89343 0.7609 0.76208 0.0
C1607 C 0.90843 0.76896 0.77833 0.0
C1608 C 0.88932 0.73762 0.76427 0.0
C1609 C 0.90079 0.76843 0.74164 0.0
C1610 C 0.88746 0.78047 0.73174 0.0
C1611 C 0.89077 0.78882 0.71251 0.0
C1612 C 0.90822 0.78487 0.70316 0.0
C1613 C 0.92225 0.7727 0.71304 0.0
C1614 C 0.91835 0.76439 0.73257 0.0
H1615 H 0.08073 0.92689 0.52994 0.0
H1616 H 0.0214 0.94848 0.5223 0.0
H1617 H 1.00694 0.92003 0.54507 0.0
H1618 H 0.06286 0.87363 0.53224 0.0
H1619 H 0.08167 0.86685 0.55077 0.0
H1620 H 0.08728 0.88879 0.53373 0.0
H1621 H 0.09575 0.91122 0.56315 0.0
H1622 H 0.09019 0.88935 0.58028 0.0
H1623 H 0.07714 0.91136 0.58178 0.0
H1624 H 0.99912 0.88958 0.56912 0.0
H1625 H 0.99823 0.85886 0.59208 0.0
H1626 H 0.06282 0.85737 0.5844 0.0
C1627 C 0.06472 0.92572 0.53315 0.0
C1628 C 0.05219 0.93994 0.52434 0.0
C1629 C 0.03124 0.93766 0.52869 0.0
C1630 C 0.02292 0.92162 0.54169 0.0
C1631 C 0.03573 0.90794 0.55017 0.0
C1632 C 0.05617 0.90979 0.54604 0.0
C1633 C 0.06662 0.89303 0.55708 0.0
C1634 C 0.0751 0.87979 0.54259 0.0
C1635 C 0.08342 0.90177 0.57142 0.0
C1636 C 0.04888 0.88149 0.56813 0.0
C1637 C 0.03122 0.89037 0.56397 0.0
C1638 C 0.01287 0.88252 0.57251 0.0
C1639 C 0.01255 0.86514 0.58565 0.0
C1640 C 0.03047 0.85573 0.59013 0.0
C1641 C 0.04883 0.86408 0.58116 0.0
H1642 H 0.18949 0.76316 0.78294 0.0
H1643 H 0.18858 0.69822 0.79604 0.0
H1644 H 0.15836 0.69237 0.77378 0.0
H1645 H 0.13495 0.76361 0.78161 0.0
H1646 H 0.13514 0.78317 0.76164 0.0
H1647 H 0.15691 0.78226 0.77839 0.0
H1648 H 0.18012 0.78115 0.74875 0.0
H1649 H 0.15842 0.78203 0.73192 0.0
H1650 H 0.17404 0.76171 0.73173 0.0
H1651 H 0.12819 0.69352 0.75012 0.0
H1652 H 0.09998 0.70163 0.72705 0.0
H1653 H 0.12017 0.76583 0.72965 0.0
C1654 C 0.18285 0.7477 0.78129 0.0
C1655 C 0.19153 0.73115 0.79123 0.0
C1656 C 0.18246 0.71115 0.78838 0.0
C1657 C 0.1652 0.70767 0.77586 0.0
C1658 C 0.15709 0.72432 0.76629 0.0
C1659 C 0.16557 0.74395 0.76888 0.0
C1660 C 0.15386 0.75917 0.75688 0.0
C1661 C 0.14467 0.77286 0.77045 0.0
C1662 C 0.16742 0.77175 0.7414 0.0
C1663 C 0.13743 0.74503 0.74716 0.0
C1664 C 0.13961 0.72499 0.75275 0.0
C1665 C 0.12635 0.70916 0.74561 0.0
C1666 C 0.11044 0.71392 0.73241 0.0
C1667 C 0.10786 0.73436 0.72646 0.0
C1668 C 0.12159 0.75006 0.73404 0.0
H1669 H 0.9763 0.58782 0.54096 0.0
H1670 H 1.00322 0.62091 0.48888 0.0
H1671 H 0.00963 0.65181 0.50693 0.0
H1672 H 0.95153 0.629 0.55722 0.0
H1673 H 0.95663 0.62274 0.58316 0.0
H1674 H 0.95382 0.60312 0.56612 0.0
H1675 H 0.98923 0.59293 0.57763 0.0
H1676 H 0.99216 0.61254 0.59467 0.0
H1677 H 0.01117 0.61183 0.57655 0.0
H1678 H 0.01317 0.67905 0.53023 0.0
H1679 H 0.01439 0.70107 0.55784 0.0
H1680 H 0.98544 0.6508 0.59536 0.0
C1681 C 0.98344 0.60162 0.53337 0.0
C1682 C 0.98939 0.60193 0.51354 0.0
C1683 C 0.99882 0.62023 0.50414 0.0
C1684 C 1.00241 0.6379 0.51423 0.0
C1685 C 0.99654 0.63707 0.53377 0.0
C1686 C 0.9873 0.61944 0.54331 0.0
C1687 C 0.98286 0.62273 0.56452 0.0
C1688 C 0.95984 0.61919 0.56795 0.0
C1689 C 0.99455 0.6092 0.57921 0.0
C1690 C 0.99106 0.64494 0.56535 0.0
C1691 C 0.99877 0.65289 0.54738 0.0
C1692 C 1.00712 0.67304 0.54436 0.0
C1693 C 1.00763 0.68546 0.56011 0.0
C1694 C 0.99989 0.67773 0.57874 0.0
C1695 C 0.99156 0.65713 0.58134 0.0
H1696 H 0.74088 0.86573 0.2526 0.0
H1697 H 0.78092 0.8212 0.24102 0.0
H1698 H 0.81013 0.84784 0.24058 0.0
H1699 H 0.76622 0.90828 0.22385 0.0
H1700 H 0.7628 0.92624 0.24156 0.0
H1701 H 0.74466 0.90398 0.23968 0.0
H1702 H 0.75027 0.89399 0.27704 0.0
H1703 H 0.76833 0.91627 0.27906 0.0
H1704 H 0.7757 0.89161 0.28678 0.0
H1705 H 0.83506 0.8793 0.24131 0.0
H1706 H 0.85433 0.91273 0.24526 0.0
H1707 H 0.79869 0.93599 0.25997 0.0
C1708 C 0.75576 0.86141 0.25014 0.0
C1709 C 0.75838 0.84121 0.24666 0.0
C1710 C 0.77824 0.83654 0.24323 0.0
C1711 C 0.79503 0.85157 0.2431 0.0
C1712 C 0.79184 0.87122 0.24666 0.0
C1713 C 0.77275 0.87613 0.25031 0.0
C1714 C 0.77362 0.8982 0.2546 0.0
C1715 C 0.76108 0.90986 0.23899 0.0
C1716 C 0.76656 0.90012 0.27562 0.0
C1717 C 0.79622 0.90491 0.25283 0.0
C1718 C 0.80639 0.88916 0.24803 0.0
C1719 C 0.82729 0.89169 0.24531 0.0
C1720 C 0.83815 0.91077 0.24778 0.0
C1721 C 0.8282 0.92711 0.25325 0.0
C1722 C 0.80686 0.92402 0.25565 0.0
H1723 H 0.77094 0.1848 0.27863 0.0
H1724 H 0.79995 0.20652 0.33258 0.0
H1725 H 0.82154 0.17848 0.33477 0.0
H1726 H 0.77108 0.13053 0.29312 0.0
H1727 H 0.77618 0.12454 0.2685 0.0
H1728 H 0.76228 0.14557 0.27192 0.0
H1729 H 0.78845 0.16947 0.25105 0.0
H1730 H 0.80251 0.14856 0.2477 0.0
H1731 H 0.81512 0.17098 0.25813 0.0
H1732 H 0.84152 0.14965 0.32971 0.0
H1733 H 0.85744 0.12104 0.31888 0.0
H1734 H 0.81472 0.11726 0.26857 0.0
C1735 C 0.78172 0.18347 0.29098 0.0
C1736 C 0.78403 0.19787 0.30536 0.0
C1737 C 0.79815 0.19568 0.32139 0.0
C1738 C 0.81043 0.17984 0.32272 0.0
C1739 C 0.80821 0.1662 0.30801 0.0
C1740 C 0.79408 0.16773 0.29254 0.0
C1741 C 0.79507 0.15135 0.27845 0.0
C1742 C 0.77496 0.13715 0.27798 0.0
C1743 C 0.80062 0.16065 0.2576 0.0
C1744 C 0.8122 0.14058 0.28822 0.0
C1745 C 0.81952 0.14936 0.30528 0.0
C1746 C 0.83571 0.14246 0.31654 0.0
C1747 C 0.84459 0.12609 0.31029 0.0
C1748 C 0.83726 0.11663 0.29295 0.0
C1749 C 0.82082 0.12412 0.28182 0.0
H1750 H 0.43764 0.03367 0.01983 0.0
H1751 H 0.44781 0.03772 0.95675 0.0
H1752 H 0.4163 0.01473 0.95166 0.0
H1753 H 0.41793 0.98103 0.02415 0.0
H1754 H 0.39912 0.98383 0.04188 0.0
H1755 H 0.4223 1.00105 0.04072 0.0
H1756 H 0.4013 0.03154 0.03565 0.0
H1757 H 0.37806 0.01441 0.03686 0.0
H1758 H 0.3825 0.03231 0.01568 0.0
H1759 H 0.38422 0.99104 0.95321 0.0
H1760 H 0.35333 0.96782 0.96138 0.0
H1761 H 0.36319 0.97912 0.02341 0.0
C1762 C 0.43312 0.02982 1.00495 0.0
C1763 C 0.44529 0.03737 0.98871 0.0
C1764 C 0.43893 0.03187 0.96947 0.0
C1765 C 0.42099 0.01891 0.96639 0.0
C1766 C 0.40947 0.01156 0.98269 0.0
C1767 C 0.41522 0.01679 1.0016 0.0
C1768 C 0.40014 0.00642 0.01654 0.0
C1769 C 0.4105 0.99224 0.03172 0.0
C1770 C 0.38989 0.02211 0.02678 0.0
C1771 C 0.38513 0.99453 1.00305 0.0
C1772 C 0.39081 0.9978 0.98359 0.0
C1773 C 0.37952 0.98844 0.96838 0.0
C1774 C 0.36191 0.97536 0.97317 0.0
C1775 C 0.3557 0.97171 0.99301 0.0
C1776 C 0.36757 0.98147 0.00812 0.0
H1777 H 0.2743 0.34176 0.29917 0.0
H1778 H 0.2769 0.33487 0.36344 0.0
H1779 H 0.25323 0.36055 0.36436 0.0
H1780 H 0.2741 0.3961 0.29545 0.0
H1781 H 0.25708 0.39621 0.274 0.0
H1782 H 0.27372 0.37673 0.27832 0.0
H1783 H 0.24262 0.34918 0.27683 0.0
H1784 H 0.22588 0.36858 0.27255 0.0
H1785 H 0.22176 0.34968 0.29299 0.0
H1786 H 0.229 0.38681 0.35842 0.0
H1787 H 0.20706 0.41284 0.34596 0.0
H1788 H 0.22149 0.40403 0.28569 0.0
C1789 C 0.27009 0.34573 0.31348 0.0
C1790 C 0.27743 0.33602 0.33123 0.0
C1791 C 0.27121 0.34164 0.34959 0.0
C1792 C 0.25786 0.35637 0.35029 0.0
C1793 C 0.25093 0.36555 0.33253 0.0
C1794 C 0.25693 0.36056 0.31447 0.0
C1795 C 0.24753 0.373 0.29757 0.0
C1796 C 0.2641 0.3863 0.28563 0.0
C1797 C 0.23362 0.35929 0.2842 0.0
C1798 C 0.23531 0.38575 0.30897 0.0
C1799 C 0.23738 0.3811 0.32911 0.0
C1800 C 0.22729 0.39061 0.34267 0.0
C1801 C 0.21478 0.40529 0.33546 0.0
C1802 C 0.21256 0.41046 0.31488 0.0
C1803 C 0.22304 0.40053 0.30151 0.0
H1804 H 0.10064 0.02516 0.49997 0.0
H1805 H 0.1227 0.96719 0.51634 0.0
H1806 H 0.15647 0.98482 0.52506 0.0
H1807 H 0.147 0.04985 0.47818 0.0
H1808 H 0.1446 0.07407 0.48733 0.0
H1809 H 0.12215 0.05689 0.48228 0.0
H1810 H 0.11075 0.05832 0.51818 0.0
H1811 H 0.13321 0.07544 0.52336 0.0
H1812 H 0.12776 0.05214 0.53861 0.0
H1813 H 0.18777 0.00853 0.53182 0.0
H1814 H 0.21468 0.0369 0.53652 0.0
H1815 H 0.17255 0.0797 0.51581 0.0
C1816 C 0.11264 0.01619 0.50524 0.0
C1817 C 0.10903 0.99479 0.50752 0.0
C1818 C 0.12505 0.98359 0.5147 0.0
C1819 C 0.1443 0.99347 0.51961 0.0
C1820 C 0.1473 0.01455 0.5173 0.0
C1821 C 0.13195 0.02582 0.51032 0.0
C1822 C 0.1392 0.04833 0.50942 0.0
C1823 C 0.13818 0.05784 0.48803 0.0
C1824 C 0.127 0.05919 0.52322 0.0
C1825 C 0.16105 0.04795 0.51695 0.0
C1826 C 0.16539 0.02829 0.52136 0.0
C1827 C 0.18457 0.02399 0.52839 0.0
C1828 C 0.19978 0.0402 0.53091 0.0
C1829 C 0.19575 0.06051 0.52645 0.0
C1830 C 0.17605 0.06436 0.51949 0.0
H1831 H 0.7789 0.17777 0.73471 0.0
H1832 H 0.7756 0.2014 0.79215 0.0
H1833 H 0.75276 0.17099 0.80321 0.0
H1834 H 0.7258 0.15524 0.73178 0.0
H1835 H 0.73162 0.13352 0.71985 0.0
H1836 H 0.74748 0.15738 0.71618 0.0
H1837 H 0.77916 0.13992 0.72819 0.0
H1838 H 0.7634 0.11603 0.73196 0.0
H1839 H 0.7792 0.12594 0.75207 0.0
H1840 H 0.73141 0.13776 0.80863 0.0
H1841 H 0.71172 0.10395 0.80766 0.0
H1842 H 0.72792 0.10178 0.74658 0.0
C1843 C 0.77317 0.17665 0.74952 0.0
C1844 C 0.77925 0.1919 0.76263 0.0
C1845 C 0.77152 0.18975 0.78197 0.0
C1846 C 0.75842 0.17259 0.78836 0.0
C1847 C 0.75299 0.15773 0.77521 0.0
C1848 C 0.75998 0.15959 0.75616 0.0
C1849 C 0.75192 0.1412 0.74514 0.0
C1850 C 0.7384 0.1472 0.72718 0.0
C1851 C 0.76947 0.13012 0.73898 0.0
C1852 C 0.73949 0.12869 0.76105 0.0
C1853 C 0.74035 0.13854 0.77827 0.0
C1854 C 0.73054 0.1299 0.79521 0.0
C1855 C 0.71952 0.11064 0.79456 0.0
C1856 C 0.71835 0.10022 0.77708 0.0
C1857 C 0.7284 0.10947 0.76009 0.0
H1858 H 0.45536 0.03229 0.57708 0.0
H1859 H 0.41977 0.97317 0.57698 0.0
H1860 H 0.38811 0.98951 0.57402 0.0
H1861 H 0.42081 0.05605 0.60537 0.0
H1862 H 0.4249 0.08016 0.59119 0.0
H1863 H 0.44483 0.06387 0.5938 0.0
H1864 H 0.44666 0.06471 0.55566 0.0
H1865 H 0.4268 0.08105 0.55294 0.0
H1866 H 0.42386 0.05754 0.54115 0.0
H1867 H 0.3604 0.01207 0.57124 0.0
H1868 H 0.33832 0.0394 0.56703 0.0
H1869 H 0.39171 0.08423 0.56781 0.0
C1870 C 0.44088 0.0228 0.57658 0.0
C1871 C 0.44001 1.00144 0.57727 0.0
C1872 C 0.4208 0.98955 0.57629 0.0
C1873 C 0.40274 0.99869 0.57474 0.0
C1874 C 0.40412 0.01976 0.57409 0.0
C1875 C 0.42267 0.0317 0.57486 0.0
C1876 C 0.41986 0.05404 0.57323 0.0
C1877 C 0.42809 0.06412 0.59202 0.0
C1878 C 0.42989 0.06497 0.55464 0.0
C1879 C 0.39682 0.05278 0.5714 0.0
C1880 C 0.38808 0.03284 0.57207 0.0
C1881 C 0.36707 0.02775 0.57058 0.0
C1882 C 0.35466 0.04342 0.56806 0.0
C1883 C 0.36322 0.06404 0.56686 0.0
C1884 C 0.38463 0.06868 0.56881 0.0
H1885 H 0.60116 0.49584 0.56469 0.0
H1886 H 0.58551 0.51959 0.50538 0.0
H1887 H 0.61342 0.5036 0.4922 0.0
H1888 H 0.65641 0.50207 0.55882 0.0
H1889 H 0.65996 0.47896 0.57357 0.0
H1890 H 0.63928 0.49294 0.57841 0.0
H1891 H 0.61365 0.46084 0.57427 0.0
H1892 H 0.63423 0.44679 0.56933 0.0
H1893 H 0.61314 0.4481 0.55176 0.0
H1894 H 0.64165 0.48352 0.48525 0.0
H1895 H 0.66954 0.46205 0.48512 0.0
H1896 H 0.66753 0.45171 0.54901 0.0
C1897 C 0.60383 0.49782 0.54897 0.0
C1898 C 0.59125 0.50893 0.53602 0.0
C1899 C 0.59501 0.51115 0.51552 0.0
C1900 C 0.6108 0.50212 0.50792 0.0
C1901 C 0.62277 0.49102 0.52103 0.0
C1902 C 0.61961 0.48897 0.54114 0.0
C1903 C 0.63449 0.47597 0.55194 0.0
C1904 C 0.64836 0.48822 0.56655 0.0
C1905 C 0.6232 0.45679 0.56244 0.0
C1906 C 0.64634 0.47085 0.53473 0.0
C1907 C 0.63929 0.47966 0.51704 0.0
C1908 C 0.64738 0.47663 0.49902 0.0
C1909 C 0.66312 0.46431 0.49908 0.0
C1910 C 0.6707 0.4552 0.51704 0.0
C1911 C 0.6622 0.45864 0.53508 0.0
H1912 H 0.73541 0.25235 0.36544 0.0
H1913 H 0.7251 0.29503 0.31532 0.0
H1914 H 0.72848 0.32288 0.33753 0.0
H1915 H 0.70779 0.27536 0.40055 0.0
H1916 H 0.7253 0.27054 0.42097 0.0
H1917 H 0.72203 0.2539 0.40114 0.0
H1918 H 0.76084 0.25984 0.39549 0.0
H1919 H 0.76423 0.27653 0.41528 0.0
H1920 H 0.77314 0.28536 0.39099 0.0
H1921 H 0.73355 0.34622 0.365 0.0
H1922 H 0.73925 0.3634 0.39591 0.0
H1923 H 0.74568 0.3056 0.42854 0.0
C1924 C 0.73397 0.26757 0.35912 0.0
C1925 C 0.7299 0.27147 0.33861 0.0
C1926 C 0.72791 0.29159 0.33099 0.0
C1927 C 0.72994 0.30755 0.34348 0.0
C1928 C 0.73392 0.30318 0.3636 0.0
C1929 C 0.73587 0.2837 0.37141 0.0
C1930 C 0.74 0.28313 0.39361 0.0
C1931 C 0.72275 0.26995 0.40472 0.0
C1932 C 0.76079 0.27578 0.39916 0.0
C1933 C 0.74016 0.30536 0.39703 0.0
C1934 C 0.73665 0.31664 0.37951 0.0
C1935 C 0.73618 0.33751 0.37884 0.0
C1936 C 0.7393 0.34713 0.39655 0.0
C1937 C 0.74277 0.33591 0.4148 0.0
C1938 C 0.74325 0.31471 0.4149 0.0
H1939 H 0.54376 0.07979 0.92162 0.0
H1940 H 0.51789 0.02512 0.95489 0.0
H1941 H 0.53636 1.00453 0.93456 0.0
H1942 H 0.53973 0.05925 0.8748 0.0
H1943 H 0.56318 0.07295 0.86594 0.0
H1944 H 0.54911 0.08339 0.88399 0.0
H1945 H 0.58101 0.08613 0.90755 0.0
H1946 H 0.59522 0.07578 0.88952 0.0
H1947 H 0.59355 0.06391 0.91432 0.0
H1948 H 0.55722 0.98993 0.90991 0.0
H1949 H 0.57761 0.98243 0.88223 0.0
H1950 H 0.58917 0.04675 0.86481 0.0
C1951 C 0.54232 0.06351 0.92485 0.0
C1952 C 0.52997 0.05409 0.94025 0.0
C1953 C 0.52778 0.03268 0.94356 0.0
C1954 C 0.53815 0.02088 0.93204 0.0
C1955 C 0.55038 0.03069 0.91709 0.0
C1956 C 0.55244 0.05153 0.91343 0.0
C1957 C 0.5657 0.05832 0.8959 0.0
C1958 C 0.55371 0.06911 0.87917 0.0
C1959 C 0.58502 0.07183 0.90221 0.0
C1960 C 0.57071 0.03804 0.89016 0.0
C1961 C 0.56186 0.02229 0.90262 0.0
C1962 C 0.56427 1.00217 0.90011 0.0
C1963 C 0.57595 0.99806 0.8844 0.0
C1964 C 0.58496 0.01398 0.87132 0.0
C1965 C 0.5823 0.03421 0.8744 0.0
H1966 H 0.29815 0.28932 0.38489 0.0
H1967 H 0.30817 0.24912 0.33992 0.0
H1968 H 0.30836 0.22067 0.36554 0.0
H1969 H 0.3299 0.26809 0.42276 0.0
H1970 H 0.31339 0.27084 0.4426 0.0
H1971 H 0.31363 0.28803 0.42071 0.0
H1972 H 0.27467 0.27895 0.41562 0.0
H1973 H 0.2743 0.26179 0.43756 0.0
H1974 H 0.26428 0.25278 0.41435 0.0
H1975 H 0.30814 0.19673 0.39606 0.0
H1976 H 0.30668 0.17873 0.4293 0.0
H1977 H 0.29658 0.23437 0.45451 0.0
C1978 C 0.3001 0.27448 0.38038 0.0
C1979 C 0.3032 0.27149 0.36036 0.0
C1980 C 0.30604 0.25186 0.35517 0.0
C1981 C 0.30606 0.23558 0.3696 0.0
C1982 C 0.30318 0.2391 0.38919 0.0
C1983 C 0.30016 0.25803 0.3946 0.0
C1984 C 0.29764 0.25778 0.41674 0.0
C1985 C 0.31466 0.27203 0.42626 0.0
C1986 C 0.27646 0.26314 0.42133 0.0
C1987 C 0.29976 0.23576 0.42293 0.0
C1988 C 0.30298 0.22527 0.4068 0.0
C1989 C 0.30563 0.20479 0.4088 0.0
C1990 C 0.30493 0.19473 0.42777 0.0
C1991 C 0.30159 0.20513 0.44455 0.0
C1992 C 0.29896 0.22594 0.44198 0.0
H1993 H 0.51171 0.52514 0.94194 0.0
H1994 H 0.51854 0.46107 0.94702 0.0
H1995 H 0.49947 0.45703 0.91508 0.0
H1996 H 0.46105 0.52005 0.92233 0.0
H1997 H 0.46439 0.54278 0.90594 0.0
H1998 H 0.47969 0.54085 0.92842 0.0
H1999 H 0.51255 0.54866 0.90833 0.0
H2000 H 0.49734 0.55074 0.88577 0.0
H2001 H 0.51628 0.53333 0.88836 0.0
H2002 H 0.4786 0.45993 0.88314 0.0
H2003 H 0.45719 0.46931 0.85395 0.0
H2004 H 0.46397 0.53159 0.86995 0.0
C2005 C 0.50949 0.51034 0.93613 0.0
C2006 C 0.51703 0.49349 0.94663 0.0
C2007 C 0.51329 0.47423 0.93891 0.0
C2008 C 0.50243 0.47181 0.92085 0.0
C2009 C 0.49526 0.48877 0.91082 0.0
C2010 C 0.49865 0.50766 0.91819 0.0
C2011 C 0.48864 0.52328 0.90495 0.0
C2012 C 0.47248 0.53226 0.91608 0.0
C2013 C 0.50466 0.53999 0.89634 0.0
C2014 C 0.47894 0.5102 0.88906 0.0
C2015 C 0.48302 0.49037 0.89265 0.0
C2016 C 0.47543 0.47545 0.88012 0.0
C2017 C 0.46336 0.48096 0.86352 0.0
C2018 C 0.4589 0.5012 0.85959 0.0
C2019 C 0.4669 0.51595 0.87259 0.0
H2020 H 0.70611 0.74028 0.19019 0.0
H2021 H 0.75079 0.79353 0.18912 0.0
H2022 H 0.77123 0.77809 0.1659 0.0
H2023 H 0.74213 0.70318 0.18747 0.0
H2024 H 0.72536 0.68757 0.17177 0.0
H2025 H 0.71491 0.70239 0.18904 0.0
H2026 H 0.69439 0.71941 0.16036 0.0
H2027 H 0.70482 0.7047 0.14301 0.0
H2028 H 0.70761 0.73196 0.13924 0.0
H2029 H 0.78568 0.75761 0.14145 0.0
H2030 H 0.79349 0.73357 0.11789 0.0
H2031 H 0.7397 0.69313 0.13547 0.0
C2032 C 0.72027 0.74859 0.18514 0.0
C2033 C 0.72691 0.76813 0.19128 0.0
C2034 C 0.74551 0.77857 0.18446 0.0
C2035 C 0.75717 0.76992 0.17132 0.0
C2036 C 0.75006 0.75075 0.16526 0.0
C2037 C 0.73209 0.74016 0.17202 0.0
C2038 C 0.72759 0.72004 0.16282 0.0
C2039 C 0.7275 0.70224 0.17872 0.0
C2040 C 0.70741 0.71898 0.15063 0.0
C2041 C 0.74567 0.72109 0.14962 0.0
C2042 C 0.75849 0.73888 0.15132 0.0
C2043 C 0.77588 0.74352 0.14017 0.0
C2044 C 0.78026 0.72966 0.1269 0.0
C2045 C 0.76732 0.7113 0.12483 0.0
C2046 C 0.74986 0.70703 0.13651 0.0
H2047 H 0.01614 0.07987 0.09985 0.0
H2048 H 0.02306 0.0168 0.09315 0.0
H2049 H 1.00116 0.00635 0.12141 0.0
H2050 H 0.01573 0.07646 0.15289 0.0
H2051 H 0.99639 0.09312 0.15418 0.0
H2052 H 0.01286 0.09605 0.1334 0.0
H2053 H 0.98142 0.0925 0.10935 0.0
H2054 H 0.96485 0.08968 0.13005 0.0
H2055 H 0.96269 0.07057 0.11249 0.0
H2056 H 0.97964 1.00246 0.15075 0.0
H2057 H 0.95787 1.00509 0.17862 0.0
H2058 H 0.96237 0.07039 0.1657 0.0
C2059 C 0.01293 0.06386 0.10423 0.0
C2060 C 0.02171 0.04921 0.09439 0.0
C2061 C 0.01708 0.02841 0.1007 0.0
C2062 C 1.00449 0.02227 0.11668 0.0
C2063 C 0.99637 0.03705 0.12618 0.0
C2064 C 1.0002 0.05739 0.12015 0.0
C2065 C 0.98921 0.07004 0.13293 0.0
C2066 C 1.00446 0.08479 0.144 0.0
C2067 C 0.97361 0.08137 0.12046 0.0
C2068 C 0.97874 0.05358 0.14709 0.0
C2069 C 0.9832 0.0347 0.1429 0.0
C2070 C 0.97577 0.01713 0.15403 0.0
C2071 C 0.96324 0.0188 0.16978 0.0
C2072 C 0.95797 0.03791 0.17425 0.0
C2073 C 0.96604 0.05555 0.16275 0.0
H2074 H 0.30735 0.79741 0.1971 0.0
H2075 H 0.30276 0.73624 0.1785 0.0
H2076 H 0.29524 0.74912 0.14411 0.0
H2077 H 0.26597 0.81293 0.16561 0.0
H2078 H 0.27796 0.83848 0.16053 0.0
H2079 H 0.28357 0.82452 0.18355 0.0
H2080 H 0.32207 0.8306 0.17634 0.0
H2081 H 0.31657 0.84454 0.15328 0.0
H2082 H 0.33079 0.82311 0.15351 0.0
H2083 H 0.28896 0.76873 0.1117 0.0
H2084 H 0.28253 0.79336 0.08377 0.0
H2085 H 0.2892 0.84163 0.12378 0.0
C2086 C 0.30496 0.7868 0.18572 0.0
C2087 C 0.30628 0.76593 0.1903 0.0
C2088 C 0.3024 0.75236 0.17518 0.0
C2089 C 0.29805 0.75952 0.15564 0.0
C2090 C 0.29726 0.78024 0.15153 0.0
C2091 C 0.30042 0.79367 0.16616 0.0
C2092 C 0.29807 0.81511 0.1579 0.0
C2093 C 0.28033 0.82323 0.16747 0.0
C2094 C 0.31807 0.82916 0.16041 0.0
C2095 C 0.29322 0.81164 0.13632 0.0
C2096 C 0.2929 0.79144 0.13296 0.0
C2097 C 0.28899 0.78457 0.11418 0.0
C2098 C 0.2852 0.7987 0.09841 0.0
C2099 C 0.28516 0.8195 0.10149 0.0
C2100 C 0.28929 0.82594 0.12079 0.0
H2101 H 0.01193 0.5053 0.12115 0.0
H2102 H 0.99938 0.44068 0.11429 0.0
H2103 H 0.0236 0.43394 0.14184 0.0
H2104 H 0.06513 0.50641 0.13407 0.0
H2105 H 0.06495 0.5247 0.15222 0.0
H2106 H 0.04699 0.52463 0.13153 0.0
H2107 H 0.01715 0.52115 0.1556 0.0
H2108 H 0.03502 0.52124 0.17636 0.0
H2109 H 0.01492 0.50058 0.17462 0.0
H2110 H 0.04941 0.43404 0.16997 0.0
H2111 H 0.07406 0.44104 0.19765 0.0
H2112 H 0.06874 0.50531 0.18744 0.0
C2113 C 0.01411 0.4897 0.1255 0.0
C2114 C 1.00381 0.47356 0.11527 0.0
C2115 C 1.00737 0.4534 0.12146 0.0
C2116 C 0.02101 0.44937 0.13724 0.0
C2117 C 0.03091 0.46561 0.1469 0.0
C2118 C 0.02755 0.48536 0.14138 0.0
C2119 C 0.03991 0.50001 0.1545 0.0
C2120 C 0.05515 0.51481 0.14235 0.0
C2121 C 0.02591 0.51142 0.16595 0.0
C2122 C 0.05074 0.48539 0.16822 0.0
C2123 C 0.04541 0.46562 0.1635 0.0
C2124 C 0.05368 0.44945 0.17384 0.0
C2125 C 0.06773 0.45358 0.18947 0.0
C2126 C 0.07329 0.4737 0.19472 0.0
C2127 C 0.06461 0.48976 0.18391 0.0
H2128 H 0.35504 0.74402 0.27645 0.0
H2129 H 0.35814 0.68009 0.27042 0.0
H2130 H 0.38579 0.68026 0.29586 0.0
H2131 H 0.40902 0.75781 0.28184 0.0
H2132 H 0.40697 0.77617 0.29954 0.0
H2133 H 0.38669 0.77089 0.28148 0.0
H2134 H 0.36096 0.76223 0.30956 0.0
H2135 H 0.38117 0.76748 0.32771 0.0
H2136 H 0.3657 0.74325 0.32911 0.0
H2137 H 0.41353 0.68736 0.32145 0.0
H2138 H 0.44002 0.70113 0.345 0.0
H2139 H 0.41967 0.76066 0.33401 0.0
C2140 C 0.36156 0.73006 0.2804 0.0
C2141 C 0.35418 0.71198 0.2715 0.0
C2142 C 0.36313 0.69403 0.27728 0.0
C2143 C 0.37898 0.694 0.29164 0.0
C2144 C 0.38585 0.71205 0.30007 0.0
C2145 C 0.3775 0.72977 0.29465 0.0
C2146 C 0.38805 0.7472 0.3057 0.0
C2147 C 0.39829 0.76401 0.29128 0.0
C2148 C 0.37307 0.75552 0.3188 0.0
C2149 C 0.4037 0.73651 0.31809 0.0
C2150 C 0.40208 0.71622 0.31468 0.0
C2151 C 0.4149 0.70321 0.32431 0.0
C2152 C 0.42982 0.71116 0.33776 0.0
C2153 C 0.43189 0.73196 0.34145 0.0
C2154 C 0.41858 0.74474 0.33143 0.0
H2155 H 0.9825 0.44727 0.99718 0.0
H2156 H 0.99653 0.42667 0.0579 0.0
H2157 H 1.00519 0.39443 0.04674 0.0
H2158 H 0.95988 0.39897 0.9813 0.0
H2159 H 0.97057 0.40307 0.95709 0.0
H2160 H 0.96524 0.42435 0.96994 0.0
H2161 H 1.00273 0.44034 0.96646 0.0
H2162 H 1.0082 0.41906 0.95367 0.0
H2163 H 0.023 0.42592 0.97553 0.0
H2164 H 0.01194 0.36429 0.02895 0.0
H2165 H 0.01706 0.33872 1.0058 0.0
H2166 H 0.99916 0.37913 0.95651 0.0
C2167 C 0.98723 0.43588 0.00811 0.0
C2168 C 0.98841 0.43923 0.02846 0.0
C2169 C 0.99514 0.4242 0.0423 0.0
C2170 C 1.00015 0.40589 0.03608 0.0
C2171 C 0.9986 0.40295 0.01594 0.0
C2172 C 0.99238 0.41755 1.00214 0.0
C2173 C 0.99231 0.41071 0.98135 0.0
C2174 C 0.97071 0.40918 0.97187 0.0
C2175 C 1.00747 0.42485 0.9685 0.0
C2176 C 0.99939 0.38997 0.98561 0.0
C2177 C 1.00289 0.38577 1.00566 0.0
C2178 C 0.00925 0.36742 0.01322 0.0
C2179 C 0.01203 0.35296 0.99997 0.0
C2180 C 1.00853 0.35691 0.97934 0.0
C2181 C 1.00221 0.37575 0.97215 0.0
H2182 H 0.68591 0.77996 0.28322 0.0
H2183 H 0.68982 0.84439 0.26577 0.0
H2184 H 0.66168 0.84749 0.28763 0.0
H2185 H 0.63087 0.77134 0.2857 0.0
H2186 H 0.63116 0.75332 0.30697 0.0
H2187 H 0.65156 0.75607 0.28983 0.0
H2188 H 0.6778 0.7632 0.31859 0.0
H2189 H 0.65747 0.76052 0.3358 0.0
H2190 H 0.67508 0.7834 0.33408 0.0
H2191 H 0.63334 0.84378 0.31144 0.0
H2192 H 0.60636 0.83343 0.33547 0.0
H2193 H 0.62078 0.77142 0.33777 0.0
C2194 C 0.68072 0.79468 0.28385 0.0
C2195 C 0.69018 0.81196 0.27284 0.0
C2196 C 0.68305 0.83099 0.27428 0.0
C2197 C 0.66699 0.8329 0.28657 0.0
C2198 C 0.65814 0.81563 0.29734 0.0
C2199 C 0.66469 0.79687 0.2961 0.0
C2200 C 0.65263 0.78078 0.30943 0.0
C2201 C 0.64085 0.76441 0.29725 0.0
C2202 C 0.66658 0.77143 0.32542 0.0
C2203 C 0.6383 0.79344 0.31833 0.0
C2204 C 0.64176 0.81349 0.31115 0.0
C2205 C 0.63052 0.82812 0.31722 0.0
C2206 C 0.61532 0.82211 0.331 0.0
C2207 C 0.61146 0.80162 0.33863 0.0
C2208 C 0.62318 0.78715 0.33211 0.0
H2209 H 0.03449 0.11408 0.04856 0.0
H2210 H 0.04244 0.06949 0.00719 0.0
H2211 H 0.03632 0.09424 0.97927 0.0
H2212 H 0.99428 0.13796 0.01939 0.0
H2213 H 1.00388 0.16312 0.0259 0.0
H2214 H 1.00754 0.14151 0.04284 0.0
H2215 H 0.04646 0.15248 0.04372 0.0
H2216 H 0.04293 0.17407 0.02676 0.0
H2217 H 0.05985 0.15631 0.02087 0.0
H2218 H 0.03158 0.12398 0.95587 0.0
H2219 H 0.02796 0.15721 0.93816 0.0
H2220 H 0.02274 0.18305 0.99417 0.0
C2221 C 0.0346 0.10948 0.03362 0.0
C2222 C 0.03906 0.0899 0.03003 0.0
C2223 C 0.03933 0.08449 0.01027 0.0
C2224 C 0.03574 0.09839 0.99431 0.0
C2225 C 0.0318 0.11767 0.9983 0.0
C2226 C 0.0311 0.12327 0.01742 0.0
C2227 C 0.02738 0.1453 0.01744 0.0
C2228 C 1.00706 0.14707 0.02696 0.0
C2229 C 0.04522 0.15777 0.02781 0.0
C2230 C 0.02644 0.15123 0.99537 0.0
C2231 C 0.02894 0.13499 0.98465 0.0
C2232 C 0.02946 0.13679 0.96408 0.0
C2233 C 0.02751 0.15574 0.95416 0.0
C2234 C 0.02507 0.17269 0.96478 0.0
C2235 C 0.02431 0.17029 0.98566 0.0
H2236 H 0.34285 0.27131 0.26269 0.0
H2237 H 0.3654 0.32975 0.28396 0.0
H2238 H 0.39801 0.32896 0.26766 0.0
H2239 H 0.39065 0.24938 0.26744 0.0
H2240 H 0.38617 0.23654 0.245 0.0
H2241 H 0.36496 0.24127 0.25906 0.0
H2242 H 0.34968 0.25992 0.228 0.0
H2243 H 0.37082 0.25523 0.21385 0.0
H2244 H 0.36493 0.28079 0.21514 0.0
H2245 H 0.42798 0.32189 0.24899 0.0
H2246 H 0.4528 0.30992 0.22795 0.0
H2247 H 0.41028 0.2566 0.2175 0.0
C2248 C 0.35479 0.28379 0.26412 0.0
C2249 C 0.35187 0.30033 0.27507 0.0
C2250 C 0.36755 0.31671 0.27608 0.0
C2251 C 0.38608 0.31641 0.26684 0.0
C2252 C 0.38857 0.29974 0.2564 0.0
C2253 C 0.37333 0.28378 0.25488 0.0
C2254 C 0.37963 0.26808 0.24211 0.0
C2255 C 0.3804 0.24761 0.25413 0.0
C2256 C 0.36542 0.26589 0.22368 0.0
C2257 C 0.40078 0.27775 0.23663 0.0
C2258 C 0.40566 0.29594 0.24513 0.0
C2259 C 0.42429 0.30771 0.24217 0.0
C2260 C 0.43824 0.30083 0.23007 0.0
C2261 C 0.4335 0.28238 0.22087 0.0
C2262 C 0.41451 0.27066 0.22441 0.0
H2263 H 0.55136 0.425 0.01421 0.0
H2264 H 0.55336 0.46976 0.05753 0.0
H2265 H 0.54518 0.44252 0.08374 0.0
H2266 H 0.50918 0.39052 0.03571 0.0
H2267 H 0.51987 0.36804 0.03028 0.0
H2268 H 0.52505 0.39111 0.01465 0.0
H2269 H 0.56379 0.38944 0.02025 0.0
H2270 H 0.55873 0.36646 0.03601 0.0
H2271 H 0.57446 0.38796 0.04515 0.0
H2272 H 0.53846 0.41078 0.10548 0.0
H2273 H 0.53251 0.37622 0.1215 0.0
H2274 H 0.53382 0.35152 0.06429 0.0
C2275 C 0.54978 0.42904 0.02917 0.0
C2276 C 0.55313 0.44949 0.03386 0.0
C2277 C 0.55114 0.45418 0.05365 0.0
C2278 C 0.54641 0.43883 0.06863 0.0
C2279 C 0.54361 0.41883 0.06361 0.0
C2280 C 0.54508 0.41384 0.04438 0.0
C2281 C 0.54179 0.39103 0.04319 0.0
C2282 C 0.52284 0.38481 0.03019 0.0
C2283 C 0.56083 0.38327 0.03571 0.0
C2284 C 0.53843 0.38405 0.06478 0.0
C2285 C 0.53951 0.40037 0.07624 0.0
C2286 C 0.53734 0.39786 0.09664 0.0
C2287 C 0.53384 0.37813 0.10559 0.0
C2288 C 0.53246 0.36107 0.09418 0.0
C2289 C 0.53487 0.36418 0.07347 0.0
H2290 H 0.67137 0.24739 0.29634 0.0
H2291 H 0.71611 0.22891 0.25853 0.0
H2292 H 0.69088 0.22785 0.23085 0.0
H2293 H 0.62741 0.21768 0.27634 0.0
H2294 H 0.61074 0.23695 0.27771 0.0
H2295 H 0.63207 0.23566 0.29496 0.0
H2296 H 0.6453 0.27305 0.28457 0.0
H2297 H 0.62397 0.27448 0.26736 0.0
H2298 H 0.64957 0.28065 0.25882 0.0
H2299 H 0.66096 0.22864 0.20719 0.0
H2300 H 0.62862 0.23236 0.18877 0.0
H2301 H 0.60375 0.25249 0.24106 0.0
C2302 C 0.67595 0.24324 0.28223 0.0
C2303 C 0.69577 0.23798 0.27981 0.0
C2304 C 0.70095 0.23251 0.26103 0.0
C2305 C 0.68675 0.232 0.24512 0.0
C2306 C 0.6674 0.23718 0.24805 0.0
C2307 C 0.66199 0.24282 0.26608 0.0
C2308 C 0.64029 0.24811 0.26509 0.0
C2309 C 0.62684 0.23374 0.27937 0.0
C2310 C 0.63976 0.2704 0.2692 0.0
C2311 C 0.63439 0.24456 0.24369 0.0
C2312 C 0.65025 0.23818 0.23419 0.0
C2313 C 0.64847 0.23379 0.21443 0.0
C2314 C 0.63004 0.2361 0.20403 0.0
C2315 C 0.61358 0.24292 0.21331 0.0
C2316 C 0.61588 0.24709 0.23349 0.0
H2317 H 0.48098 0.08459 0.04373 0.0
H2318 H 0.48739 0.12016 0.98752 0.0
H2319 H 0.4892 0.15172 1.00472 0.0
H2320 H 0.45078 0.11727 0.06762 0.0
H2321 H 0.46359 0.11389 0.09142 0.0
H2322 H 0.46157 0.09406 0.07464 0.0
H2323 H 0.50079 0.09438 0.07649 0.0
H2324 H 0.50292 0.11421 0.09325 0.0
H2325 H 0.51681 0.1178 0.07069 0.0
H2326 H 0.49059 0.17925 0.02784 0.0
H2327 H 0.49342 0.2013 0.05559 0.0
H2328 H 0.48769 0.14818 0.09729 0.0
C2329 C 0.48255 0.09907 0.03512 0.0
C2330 C 0.48389 0.10009 0.01433 0.0
C2331 C 0.4863 0.1192 1.00347 0.0
C2332 C 0.48729 0.13714 0.0131 0.0
C2333 C 0.48609 0.1357 0.03363 0.0
C2334 C 0.48393 0.11719 0.04457 0.0
C2335 C 0.48408 0.12 0.06656 0.0
C2336 C 0.46379 0.11076 0.07559 0.0
C2337 C 0.50223 0.11107 0.07738 0.0
C2338 C 0.48662 0.14295 0.06625 0.0
C2339 C 0.48755 0.15167 0.04707 0.0
C2340 C 0.48983 0.17261 0.04292 0.0
C2341 C 0.49131 0.18501 0.05878 0.0
C2342 C 0.49066 0.17648 0.07859 0.0
C2343 C 0.48829 0.15514 0.08231 0.0
H2344 H 0.26231 0.34486 0.77263 0.0
H2345 H 0.24711 0.34464 0.70984 0.0
H2346 H 0.2697 0.37687 0.70384 0.0
H2347 H 0.26369 0.39791 0.77637 0.0
H2348 H 0.28497 0.39955 0.79387 0.0
H2349 H 0.2681 0.37629 0.79303 0.0
H2350 H 0.29875 0.35674 0.78771 0.0
H2351 H 0.31573 0.37993 0.78865 0.0
H2352 H 0.31539 0.3651 0.76753 0.0
H2353 H 0.29253 0.41019 0.70521 0.0
H2354 H 0.31519 0.44075 0.71333 0.0
H2355 H 0.3167 0.41795 0.77515 0.0
C2356 C 0.26375 0.35161 0.75761 0.0
C2357 C 0.2529 0.34236 0.74168 0.0
C2358 C 0.25538 0.35146 0.72221 0.0
C2359 C 0.26809 0.36978 0.7187 0.0
C2360 C 0.27836 0.37863 0.7348 0.0
C2361 C 0.27648 0.36972 0.75384 0.0
C2362 C 0.28918 0.38219 0.76857 0.0
C2363 C 0.27568 0.38941 0.78386 0.0
C2364 C 0.30575 0.37028 0.77871 0.0
C2365 C 0.29834 0.3997 0.75491 0.0
C2366 C 0.29188 0.39742 0.7355 0.0
C2367 C 0.29789 0.41198 0.72033 0.0
C2368 C 0.31091 0.42927 0.72511 0.0
C2369 C 0.31798 0.43184 0.7449 0.0
C2370 C 0.31151 0.41671 0.75991 0.0
H2371 H 0.31132 0.70185 0.81016 0.0
H2372 H 0.24971 0.68471 0.7882 0.0
H2373 H 0.25977 0.65233 0.77858 0.0
H2374 H 0.33658 0.68141 0.77192 0.0
H2375 H 0.35658 0.67286 0.78815 0.0
H2376 H 0.34442 0.69437 0.7938 0.0
H2377 H 0.33529 0.67682 0.82829 0.0
H2378 H 0.34752 0.6553 0.82278 0.0
H2379 H 0.32134 0.6518 0.83001 0.0
H2380 H 0.27669 0.62203 0.77113 0.0
H2381 H 0.29914 0.59597 0.76625 0.0
H2382 H 0.3499 0.63292 0.79297 0.0
C2383 C 0.29994 0.69118 0.80346 0.0
C2384 C 0.27966 0.69559 0.80012 0.0
C2385 C 0.26524 0.68144 0.79107 0.0
C2386 C 0.27084 0.66308 0.78553 0.0
C2387 C 0.29096 0.65917 0.78904 0.0
C2388 C 0.30529 0.67282 0.79779 0.0
C2389 C 0.32596 0.66506 0.79964 0.0
C2390 C 0.34182 0.67927 0.78766 0.0
C2391 C 0.33293 0.66206 0.82148 0.0
C2392 C 0.32102 0.64493 0.79054 0.0
C2393 C 0.30074 0.64182 0.78456 0.0
C2394 C 0.29258 0.62429 0.77582 0.0
C2395 C 0.30544 0.60952 0.77319 0.0
C2396 C 0.32629 0.61233 0.77926 0.0
C2397 C 0.3341 0.63038 0.78798 0.0
H2398 H 0.9422 0.52964 0.51756 0.0
H2399 H 0.938 0.55571 0.45714 0.0
H2400 H 0.90444 0.53555 0.45244 0.0
H2401 H 0.92121 0.47974 0.50709 0.0
H2402 H 0.9076 0.47433 0.52974 0.0
H2403 H 0.93044 0.49202 0.52899 0.0
H2404 H 0.91075 0.51959 0.54146 0.0
H2405 H 0.88786 0.50193 0.54235 0.0
H2406 H 0.88795 0.52602 0.5282 0.0
H2407 H 0.87202 0.51208 0.45398 0.0
H2408 H 0.84315 0.48574 0.46118 0.0
H2409 H 0.86876 0.47359 0.52024 0.0
C2410 C 0.93398 0.53126 0.50349 0.0
C2411 C 0.94241 0.5443 0.48773 0.0
C2412 C 0.93159 0.54583 0.46936 0.0
C2413 C 0.91257 0.53449 0.46659 0.0
C2414 C 0.90471 0.52154 0.48231 0.0
C2415 C 0.91506 0.51978 0.50038 0.0
C2416 C 0.90368 0.50388 0.51442 0.0
C2417 C 0.9165 0.48646 0.5204 0.0
C2418 C 0.89717 0.51343 0.53269 0.0
C2419 C 0.88542 0.49692 0.50137 0.0
C2420 C 0.88624 0.50748 0.48298 0.0
C2421 C 0.87116 0.50376 0.46835 0.0
C2422 C 0.85479 0.48883 0.47259 0.0
C2423 C 0.8537 0.47765 0.49126 0.0
C2424 C 0.86927 0.4818 0.5058 0.0
H2425 H 0.76848 0.84273 0.83805 0.0
H2426 H 0.77198 0.82236 0.77916 0.0
H2427 H 0.75006 0.84788 0.76589 0.0
H2428 H 0.71518 0.8509 0.83314 0.0
H2429 H 0.71852 0.87291 0.84725 0.0
H2430 H 0.73491 0.85328 0.85223 0.0
H2431 H 0.76656 0.87979 0.84668 0.0
H2432 H 0.75028 0.89949 0.84168 0.0
H2433 H 0.76849 0.89551 0.82378 0.0
H2434 H 0.72847 0.87609 0.75866 0.0
H2435 H 0.70754 0.90441 0.75829 0.0
H2436 H 0.71613 0.90533 0.82196 0.0
C2437 C 0.7645 0.84343 0.8224 0.0
C2438 C 0.77227 0.83055 0.80967 0.0
C2439 C 0.76674 0.83229 0.78922 0.0
C2440 C 0.75411 0.84665 0.78152 0.0
C2441 C 0.74685 0.8591 0.79444 0.0
C2442 C 0.75169 0.85756 0.81446 0.0
C2443 C 0.74164 0.8727 0.82512 0.0
C2444 C 0.72667 0.86179 0.84033 0.0
C2445 C 0.7577 0.88776 0.83489 0.0
C2446 C 0.7305 0.88305 0.80793 0.0
C2447 C 0.73381 0.875 0.79036 0.0
C2448 C 0.72567 0.88244 0.77234 0.0
C2449 C 0.71387 0.89856 0.77226 0.0
C2450 C 0.71016 0.90699 0.79009 0.0
C2451 C 0.7185 0.89899 0.80815 0.0
H2452 H 0.61319 0.51653 0.98776 0.0
H2453 H 0.58469 0.51568 0.04435 0.0
H2454 H 0.61246 0.54067 0.05551 0.0
H2455 H 0.66402 0.51973 1.00641 0.0
H2456 H 0.67461 0.53671 0.98643 0.0
H2457 H 0.65181 0.51975 0.98215 0.0
H2458 H 0.63279 0.55015 0.96909 0.0
H2459 H 0.65559 0.56721 0.97319 0.0
H2460 H 0.63222 0.57103 0.9843 0.0
H2461 H 0.64417 0.56363 0.06153 0.0
H2462 H 0.67755 0.58429 0.06177 0.0
H2463 H 0.68538 0.57179 1.00082 0.0
C2464 C 0.61265 0.5219 1.00236 0.0
C2465 C 0.59685 0.51406 0.01524 0.0
C2466 C 0.59679 0.52126 0.03434 0.0
C2467 C 0.61243 0.53553 0.04078 0.0
C2468 C 0.62801 0.54261 0.02792 0.0
C2469 C 0.62821 0.5362 0.00906 0.0
C2470 C 0.6472 0.54579 0.99853 0.0
C2471 C 0.66017 0.52952 0.99306 0.0
C2472 C 0.64161 0.55935 0.98019 0.0
C2473 C 0.65773 0.55827 0.01455 0.0
C2474 C 0.64631 0.55625 0.03133 0.0
C2475 C 0.65312 0.56563 0.04837 0.0
C2476 C 0.6721 0.57747 0.04829 0.0
C2477 C 0.68413 0.57998 0.03124 0.0
C2478 C 0.67669 0.5702 0.01414 0.0
H2479 H 0.28857 0.66968 0.27008 0.0
H2480 H 0.29232 0.67626 0.20603 0.0
H2481 H 0.26704 0.6462 0.20356 0.0
H2482 H 0.2852 0.61502 0.27435 0.0
H2483 H 0.26785 0.61212 0.29444 0.0
H2484 H 0.28575 0.63465 0.29122 0.0
H2485 H 0.25609 0.65683 0.29002 0.0
H2486 H 0.2381 0.63437 0.29322 0.0
H2487 H 0.23529 0.65238 0.2723 0.0
H2488 H 0.24104 0.61564 0.20789 0.0
H2489 H 0.21709 0.58585 0.21892 0.0
H2490 H 0.23165 0.59787 0.28011 0.0
C2491 C 0.28427 0.66474 0.25551 0.0
C2492 C 0.29241 0.67558 0.23824 0.0
C2493 C 0.28605 0.66861 0.2195 0.0
C2494 C 0.27179 0.65141 0.21792 0.0
C2495 C 0.26411 0.64115 0.23522 0.0
C2496 C 0.27021 0.64746 0.25366 0.0
C2497 C 0.25987 0.63348 0.26995 0.0
C2498 C 0.27561 0.62321 0.28327 0.0
C2499 C 0.24655 0.64495 0.28208 0.0
C2500 C 0.24699 0.61835 0.25775 0.0
C2501 C 0.24957 0.62314 0.23774 0.0
C2502 C 0.23895 0.61168 0.22352 0.0
C2503 C 0.22534 0.59486 0.22991 0.0
C2504 C 0.22258 0.58956 0.25034 0.0
C2505 C 0.23364 0.60145 0.2644 0.0
H2506 H 0.94365 0.51833 0.05285 0.0
H2507 H 0.94434 0.50615 0.11681 0.0
H2508 H 0.9199 0.5307 0.11917 0.0
H2509 H 0.93763 0.57159 0.05109 0.0
H2510 H 0.92017 0.57078 0.02998 0.0
H2511 H 0.93899 0.55329 0.03316 0.0
H2512 H 0.91058 0.52307 0.03135 0.0
H2513 H 0.8917 0.54046 0.02806 0.0
H2514 H 0.88972 0.52077 0.04796 0.0
H2515 H 0.8952 0.55634 0.11489 0.0
H2516 H 0.87013 0.57966 0.10409 0.0
H2517 H 0.88262 0.573 0.04271 0.0
C2518 C 0.93866 0.52069 0.06739 0.0
C2519 C 0.94641 0.51038 0.08466 0.0
C2520 C 0.93935 0.51419 0.10333 0.0
C2521 C 0.92525 0.52803 0.10486 0.0
C2522 C 0.91802 0.53787 0.08759 0.0
C2523 C 0.9243 0.53425 0.06919 0.0
C2524 C 0.91331 0.54611 0.0529 0.0
C2525 C 0.92843 0.56135 0.04109 0.0
C2526 C 0.90057 0.53174 0.03927 0.0
C2527 C 0.89982 0.55688 0.06507 0.0
C2528 C 0.90298 0.55204 0.08505 0.0
C2529 C 0.89245 0.5601 0.09927 0.0
C2530 C 0.87807 0.57324 0.09294 0.0
C2531 C 0.87404 0.57806 0.0725 0.0
C2532 C 0.88533 0.56985 0.05843 0.0
H2533 H 0.11327 0.02438 0.02627 0.0
H2534 H 0.07746 0.98768 0.07092 0.0
H2535 H 0.10323 0.9635 0.0743 0.0
H2536 H 0.12839 0.98436 1.00219 0.0
H2537 H 0.1538 0.99623 0.99724 0.0
H2538 H 0.13362 0.0116 0.99966 0.0
H2539 H 0.15454 0.03019 0.02731 0.0
H2540 H 0.17487 0.01494 0.02488 0.0
H2541 H 0.16383 0.01566 0.04862 0.0
H2542 H 0.13087 0.94163 0.07019 0.0
H2543 H 0.15978 0.92464 0.06059 0.0
H2544 H 0.1783 0.97595 0.01922 0.0
C2545 C 0.1111 0.0114 0.03697 0.0
C2546 C 0.09336 0.00768 0.04822 0.0
C2547 C 0.09093 0.99063 0.06211 0.0
C2548 C 0.10546 0.97687 0.06411 0.0
C2549 C 0.12248 0.98058 0.05233 0.0
C2550 C 0.12552 0.99756 0.03921 0.0
C2551 C 0.14473 0.99758 0.02776 0.0
C2552 C 0.13983 0.99743 1.00539 0.0
C2553 C 0.16042 0.01567 0.03243 0.0
C2554 C 0.15174 0.97772 0.03612 0.0
C2555 C 0.1387 0.96817 0.0503 0.0
C2556 C 0.14133 0.94908 0.05931 0.0
C2557 C 0.1577 0.9395 0.05369 0.0
C2558 C 0.17129 0.94904 0.03926 0.0
C2559 C 0.16833 0.96848 0.03052 0.0
loop_
_geom_bond_atom_site_label_1
_geom_bond_atom_site_label_2
_geom_bond_distance
_geom_bond_site_symmetry_2
_ccdc_geom_bond_type
H0 C7 0.929 1_655 S
H1 C10 0.930 . S
H2 C12 0.929 . S
H3 C4 0.969 . S
C4 H3 0.969 . S
C4 O5 1.550 1_565 S
C4 H6 0.973 . S
O5 C4 1.550 1_545 S
O5 C11 1.412 . S
H6 C4 0.973 . S
C7 H0 0.929 1_455 S
C7 C8 1.400 . S
C7 C9 1.364 . S
C8 C7 1.400 . S
C8 C12 1.377 . S
C9 C7 1.364 . S
C9 C10 1.374 . S
C10 H1 0.930 . S
C10 C9 1.374 . S
C10 C11 1.383 . S
C11 O5 1.412 . S
C11 C10 1.383 . S
C11 C12 1.394 . S
C12 H2 0.929 . S
C12 C8 1.377 . S
C12 C11 1.394 . S
H13 C20 0.929 . S
H14 C23 0.930 . S
H15 C25 0.929 . S
H16 C17 0.969 . S
C17 H16 0.969 . S
C17 O18 1.550 . S
C17 H19 0.973 . S
O18 C17 1.550 . S
O18 C24 1.412 . S
H19 C17 0.973 . S
C20 H13 0.929 . S
C20 C21 1.400 . S
C20 C22 1.364 . S
C21 C20 1.400 . S
C21 C25 1.377 . S
C22 C20 1.364 . S
C22 C23 1.374 . S
C23 H14 0.930 . S
C23 C22 1.374 . S
C23 C24 1.383 . S
C24 O18 1.412 . S
C24 C23 1.383 . S
C24 C25 1.394 . S
C25 H15 0.929 . S
C25 C21 1.377 . S
C25 C24 1.394 . S
H26 C33 0.929 . S
H27 C36 0.930 . S
H28 C38 0.929 1_455 S
H29 C30 0.969 . S
C30 H29 0.969 . S
C30 O31 1.550 . S
C30 H32 0.973 . S
O31 C30 1.550 . S
O31 C37 1.412 . S
H32 C30 0.973 . S
C33 H26 0.929 . S
C33 C34 1.400 . S
C33 C35 1.364 . S
C34 C33 1.400 . S
C34 C38 1.377 . S
C35 C33 1.364 . S
C35 C36 1.374 . S
C36 H27 0.930 . S
C36 C35 1.374 . S
C36 C37 1.383 . S
C37 O31 1.412 . S
C37 C36 1.383 . S
C37 C38 1.394 . S
C38 H28 0.929 1_655 S
C38 C34 1.377 . S
C38 C37 1.394 . S
H39 C46 0.929 . S
H40 C49 0.930 . S
H41 C51 0.929 . S
H42 C43 0.969 . S
C43 H42 0.969 . S
C43 O44 1.550 . S
C43 H45 0.973 . S
O44 C43 1.550 . S
O44 C50 1.412 . S
H45 C43 0.973 . S
C46 H39 0.929 . S
C46 C47 1.400 . S
C46 C48 1.364 . S
C47 C46 1.400 . S
C47 C51 1.377 . S
C48 C46 1.364 . S
C48 C49 1.374 . S
C49 H40 0.930 . S
C49 C48 1.374 . S
C49 C50 1.383 . S
C50 O44 1.412 . S
C50 C49 1.383 . S
C50 C51 1.394 . S
C51 H41 0.929 . S
C51 C47 1.377 . S
C51 C50 1.394 . S
H52 C59 0.929 . S
H53 C62 0.930 . S
H54 C64 0.929 1_545 S
H55 C56 0.981 . S
C56 H55 0.981 . S
C56 O57 1.550 . S
C56 H58 0.973 . S
O57 C56 1.550 . S
O57 C63 1.412 . S
H58 C56 0.973 . S
C59 H52 0.929 . S
C59 C60 1.400 . S
C59 C61 1.364 . S
C60 C59 1.400 . S
C60 C64 1.377 . S
C61 C59 1.364 . S
C61 C62 1.374 . S
C62 H53 0.930 . S
C62 C61 1.374 . S
C62 C63 1.383 . S
C63 O57 1.412 . S
C63 C62 1.383 . S
C63 C64 1.394 . S
C64 H54 0.929 1_565 S
C64 C60 1.377 . S
C64 C63 1.394 . S
H65 C72 0.929 . S
H66 C75 0.930 . S
H67 C77 0.929 . S
H68 C69 0.969 . S
C69 H68 0.969 . S
C69 O70 1.550 . S
C69 H71 0.973 . S
O70 C69 1.550 . S
O70 C76 1.412 . S
H71 C69 0.973 . S
C72 H65 0.929 . S
C72 C73 1.400 . S
C72 C74 1.364 . S
C73 C72 1.400 . S
C73 C77 1.377 . S
C74 C72 1.364 . S
C74 C75 1.374 . S
C75 H66 0.930 . S
C75 C74 1.374 . S
C75 C76 1.383 . S
C76 O70 1.412 . S
C76 C75 1.383 . S
C76 C77 1.394 . S
C77 H67 0.929 . S
C77 C73 1.377 . S
C77 C76 1.394 . S
H78 C85 0.929 . S
H79 C88 0.930 . S
H80 C90 0.943 . S
H81 C82 0.969 . S
C82 H81 0.969 . S
C82 O83 1.550 . S
C82 H84 0.973 . S
O83 C82 1.550 . S
O83 C89 1.412 1_455 S
H84 C82 0.973 . S
C85 H78 0.929 . S
C85 C86 1.400 . S
C85 C87 1.364 . S
C86 C85 1.400 . S
C86 C90 1.362 1_655 S
C87 C85 1.364 . S
C87 C88 1.374 . S
C88 H79 0.930 . S
C88 C87 1.374 . S
C88 C89 1.383 . S
C89 O83 1.412 1_655 S
C89 C88 1.383 . S
C89 C90 1.394 1_655 S
C90 H80 0.943 . S
C90 C86 1.362 1_455 S
C90 C89 1.394 1_455 S
H91 C98 0.929 . S
H92 C101 0.930 . S
H93 C103 0.929 . S
H94 C95 0.969 . S
C95 H94 0.969 . S
C95 O96 1.550 . S
C95 H97 0.973 . S
O96 C95 1.550 . S
O96 C102 1.412 . S
H97 C95 0.973 . S
C98 H91 0.929 . S
C98 C99 1.400 . S
C98 C100 1.364 . S
C99 C98 1.400 . S
C99 C103 1.377 . S
C100 C98 1.364 . S
C100 C101 1.374 . S
C101 H92 0.930 . S
C101 C100 1.374 . S
C101 C102 1.383 . S
C102 O96 1.412 . S
C102 C101 1.383 . S
C102 C103 1.394 . S
C103 H93 0.929 . S
C103 C99 1.377 . S
C103 C102 1.394 . S
H104 C111 0.929 . S
H105 C114 0.930 . S
H106 C116 0.929 . S
H107 C108 0.969 . S
C108 H107 0.969 . S
C108 O109 1.550 . S
C108 H110 0.973 . S
O109 C108 1.550 . S
O109 C115 1.412 . S
H110 C108 0.973 . S
C111 H104 0.929 . S
C111 C112 1.400 . S
C111 C113 1.364 . S
C112 C111 1.400 . S
C112 C116 1.377 . S
C113 C111 1.364 . S
C113 C114 1.374 . S
C114 H105 0.930 . S
C114 C113 1.374 . S
C114 C115 1.383 . S
C115 O109 1.412 . S
C115 C114 1.383 . S
C115 C116 1.394 . S
C116 H106 0.929 . S
C116 C112 1.377 . S
C116 C115 1.394 . S
H117 C124 0.929 . S
H118 C127 0.930 . S
H119 C129 0.929 . S
H120 C121 0.969 . S
C121 H120 0.969 . S
C121 O122 1.550 . S
C121 H123 0.973 . S
O122 C121 1.550 . S
O122 C128 1.412 . S
H123 C121 0.973 . S
C124 H117 0.929 . S
C124 C125 1.400 . S
C124 C126 1.364 . S
C125 C124 1.400 . S
C125 C129 1.377 . S
C126 C124 1.364 . S
C126 C127 1.374 . S
C127 H118 0.930 . S
C127 C126 1.374 . S
C127 C128 1.383 . S
C128 O122 1.412 . S
C128 C127 1.383 . S
C128 C129 1.394 . S
C129 H119 0.929 . S
C129 C125 1.377 . S
C129 C128 1.394 . S
H130 C137 0.929 . S
H131 C140 0.930 . S
H132 C142 0.929 . S
H133 C134 0.969 . S
C134 H133 0.969 . S
C134 O135 1.550 . S
C134 H136 0.973 . S
O135 C134 1.550 . S
O135 C141 1.412 . S
H136 C134 0.973 . S
C137 H130 0.929 . S
C137 C138 1.400 . S
C137 C139 1.364 . S
C138 C137 1.400 . S
C138 C142 1.377 . S
C139 C137 1.364 . S
C139 C140 1.374 . S
C140 H131 0.930 . S
C140 C139 1.374 . S
C140 C141 1.383 . S
C141 O135 1.412 . S
C141 C140 1.383 . S
C141 C142 1.394 . S
C142 H132 0.929 . S
C142 C138 1.377 . S
C142 C141 1.394 . S
H143 C150 0.929 . S
H144 C153 0.930 . S
H145 C155 0.929 . S
H146 C147 0.969 . S
C147 H146 0.969 . S
C147 O148 1.550 . S
C147 H149 0.973 . S
O148 C147 1.550 . S
O148 C154 1.412 . S
H149 C147 0.973 . S
C150 H143 0.929 . S
C150 C151 1.400 . S
C150 C152 1.364 . S
C151 C150 1.400 . S
C151 C155 1.377 . S
C152 C150 1.364 . S
C152 C153 1.374 . S
C153 H144 0.930 . S
C153 C152 1.374 . S
C153 C154 1.383 . S
C154 O148 1.412 . S
C154 C153 1.383 . S
C154 C155 1.394 . S
C155 H145 0.929 . S
C155 C151 1.377 . S
C155 C154 1.394 . S
H156 C163 0.929 . S
H157 C166 0.930 . S
H158 C168 0.929 . S
H159 C160 0.969 . S
C160 H159 0.969 . S
C160 O161 1.550 . S
C160 H162 0.973 . S
O161 C160 1.550 . S
O161 C167 1.412 . S
H162 C160 0.973 . S
C163 H156 0.929 . S
C163 C164 1.400 . S
C163 C165 1.364 . S
C164 C163 1.400 . S
C164 C168 1.377 . S
C165 C163 1.364 . S
C165 C166 1.374 . S
C166 H157 0.930 . S
C166 C165 1.374 . S
C166 C167 1.383 . S
C167 O161 1.412 . S
C167 C166 1.383 . S
C167 C168 1.394 . S
C168 H158 0.929 . S
C168 C164 1.377 . S
C168 C167 1.394 . S
H169 C176 0.929 1_554 S
H170 C179 0.930 . S
H171 C181 0.929 . S
H172 C173 0.969 . S
C173 H172 0.969 . S
C173 O174 1.550 . S
C173 H175 0.973 . S
O174 C173 1.550 . S
O174 C180 1.412 . S
H175 C173 0.973 . S
C176 H169 0.929 1_556 S
C176 C177 1.400 . S
C176 C178 1.364 . S
C177 C176 1.400 . S
C177 C181 1.377 . S
C178 C176 1.364 . S
C178 C179 1.374 . S
C179 H170 0.930 . S
C179 C178 1.374 . S
C179 C180 1.383 . S
C180 O174 1.412 . S
C180 C179 1.383 . S
C180 C181 1.394 . S
C181 H171 0.929 . S
C181 C177 1.377 . S
C181 C180 1.394 . S
H182 C189 0.929 . S
H183 C192 0.930 . S
H184 C194 0.929 . S
H185 C186 0.969 . S
C186 H185 0.969 . S
C186 O187 1.550 . S
C186 H188 0.973 . S
O187 C186 1.550 . S
O187 C193 1.412 . S
H188 C186 0.973 . S
C189 H182 0.929 . S
C189 C190 1.400 . S
C189 C191 1.364 . S
C190 C189 1.400 . S
C190 C194 1.377 . S
C191 C189 1.364 . S
C191 C192 1.374 . S
C192 H183 0.930 . S
C192 C191 1.374 . S
C192 C193 1.383 . S
C193 O187 1.412 . S
C193 C192 1.383 . S
C193 C194 1.394 . S
C194 H184 0.929 . S
C194 C190 1.377 . S
C194 C193 1.394 . S
H195 C202 0.929 . S
H196 C205 0.930 . S
H197 C207 0.929 . S
H198 C199 0.969 . S
C199 H198 0.969 . S
C199 O200 1.550 . S
C199 H201 0.973 . S
O200 C199 1.550 . S
O200 C206 1.412 . S
H201 C199 0.973 . S
C202 H195 0.929 . S
C202 C203 1.400 . S
C202 C204 1.406 . S
C203 C202 1.400 . S
C203 C207 1.406 . S
C204 C202 1.406 . S
C204 C205 1.335 1_554 S
C205 H196 0.930 . S
C205 C204 1.335 1_556 S
C205 C206 1.383 . S
C206 O200 1.412 . S
C206 C205 1.383 . S
C206 C207 1.365 1_556 S
C207 H197 0.929 . S
C207 C203 1.406 . S
C207 C206 1.365 1_554 S
Li208 N225 1.990 . S
Li208 O268 1.956 . S
Li208 O269 1.970 1_556 S
Li208 O270 1.961 . S
Li209 N233 1.990 . S
Li209 O268 1.968 1_554 S
Li209 O269 1.956 . S
Li209 O271 1.961 . S
Li210 N255 1.990 . S
Li210 O268 1.963 . S
Li210 O270 1.956 . S
Li210 O271 1.970 1_556 S
Li211 N261 1.990 . S
Li211 O269 1.961 . S
Li211 O270 1.970 1_554 S
Li211 O271 1.956 . S
C212 C214 1.348 1_556 S
C212 C215 1.356 . S
C212 O268 1.325 . S
N213 C216 1.314 1_556 S
N213 C217 1.279 . S
C214 C212 1.348 1_554 S
C214 C216 1.353 . S
C214 H272 0.929 . S
C215 C212 1.356 . S
C215 C217 1.358 . S
C215 H273 0.930 . S
C216 N213 1.314 1_554 S
C216 C214 1.353 . S
C216 H274 0.930 . S
C217 N213 1.279 . S
C217 C215 1.358 . S
C217 H275 0.930 . S
C218 C221 1.348 . S
C218 C222 1.356 . S
C218 O269 1.325 . S
C219 N220 1.279 . S
C219 C222 1.358 . S
C219 H276 0.930 . S
N220 C219 1.279 . S
N220 C223 1.314 . S
C221 C218 1.348 . S
C221 C223 1.353 . S
C221 H277 0.929 . S
C222 C218 1.356 . S
C222 C219 1.358 . S
C222 H278 0.930 . S
C223 N220 1.314 . S
C223 C221 1.353 . S
C223 H279 0.930 . S
C224 N225 1.314 . S
C224 C229 1.353 . S
C224 H230 0.930 . S
N225 Li208 1.990 . S
N225 C224 1.314 . S
N225 C227 1.279 . S
C226 C227 1.358 . S
C226 C228 1.356 . S
C226 H280 0.931 . S
C227 N225 1.279 . S
C227 C226 1.358 . S
C227 H231 0.930 1_556 S
C228 C226 1.356 . S
C228 C229 1.348 . S
C229 C224 1.353 . S
C229 C228 1.348 . S
C229 H281 0.929 . S
H230 C224 0.930 . S
H231 C227 0.930 1_554 S
C232 N233 1.314 . S
C232 C234 1.353 . S
C232 H238 0.930 . S
N233 Li209 1.990 . S
N233 C232 1.314 . S
N233 C236 1.279 . S
C234 C232 1.353 . S
C234 C237 1.348 . S
C234 H282 0.929 . S
C235 C236 1.358 . S
C235 C237 1.356 . S
C235 H283 0.930 . S
C236 N233 1.279 . S
C236 C235 1.358 . S
C236 H239 0.930 . S
C237 C234 1.348 . S
C237 C235 1.356 . S
H238 C232 0.930 . S
H239 C236 0.930 . S
C240 C242 1.348 . S
C240 C243 1.356 . S
C240 O270 1.325 . S
N241 C244 1.314 . S
N241 C245 1.279 . S
C242 C240 1.348 . S
C242 C244 1.353 . S
C242 H284 0.929 . S
C243 C240 1.356 . S
C243 C245 1.358 . S
C243 H285 0.930 . S
C244 N241 1.314 . S
C244 C242 1.353 . S
C244 H286 0.930 . S
C245 N241 1.279 . S
C245 C243 1.358 . S
C245 H287 0.930 . S
C246 C247 1.348 1_554 S
C246 C248 1.356 . S
C246 O271 1.325 . S
C247 C246 1.348 1_556 S
C247 C249 1.353 . S
C247 H288 0.929 . S
C248 C246 1.356 . S
C248 C250 1.358 . S
C248 H289 0.930 . S
C249 C247 1.353 . S
C249 N251 1.314 1_556 S
C249 H290 0.930 . S
C250 C248 1.358 . S
C250 N251 1.279 . S
C250 H291 0.930 . S
N251 C249 1.314 1_554 S
N251 C250 1.279 . S
C252 C254 1.353 . S
C252 N255 1.314 . S
C252 H258 0.930 . S
C253 N255 1.279 . S
C253 C256 1.358 . S
C253 H259 0.930 . S
C254 C252 1.353 . S
C254 C257 1.348 . S
C254 H292 0.929 . S
N255 Li210 1.990 . S
N255 C252 1.314 . S
N255 C253 1.279 . S
C256 C253 1.358 . S
C256 C257 1.356 . S
C256 H293 0.930 . S
C257 C254 1.348 . S
C257 C256 1.356 . S
H258 C252 0.930 . S
H259 C253 0.930 . S
C260 N261 1.314 . S
C260 C262 1.353 . S
C260 H266 0.930 . S
N261 Li211 1.990 . S
N261 C260 1.314 . S
N261 C264 1.279 . S
C262 C260 1.353 . S
C262 C265 1.348 . S
C262 H294 0.929 . S
C263 C264 1.358 . S
C263 C265 1.356 . S
C263 H295 0.935 . S
C264 N261 1.279 . S
C264 C263 1.358 . S
C264 H267 0.917 1_554 S
C265 C262 1.348 . S
C265 C263 1.356 . S
H266 C260 0.930 . S
H267 C264 0.917 1_556 S
O268 Li208 1.956 . S
O268 Li209 1.968 1_556 S
O268 Li210 1.963 . S
O268 C212 1.325 . S
O269 Li208 1.970 1_554 S
O269 Li209 1.956 . S
O269 Li211 1.961 . S
O269 C218 1.325 . S
O270 Li208 1.961 . S
O270 Li210 1.956 . S
O270 Li211 1.970 1_556 S
O270 C240 1.325 . S
O271 Li209 1.961 . S
O271 Li210 1.970 1_554 S
O271 Li211 1.956 . S
O271 C246 1.325 . S
H272 C214 0.929 . S
H273 C215 0.930 . S
H274 C216 0.930 . S
H275 C217 0.930 . S
H276 C219 0.930 . S
H277 C221 0.929 . S
H278 C222 0.930 . S
H279 C223 0.930 . S
H280 C226 0.931 . S
H281 C229 0.929 . S
H282 C234 0.929 . S
H283 C235 0.930 . S
H284 C242 0.929 . S
H285 C243 0.930 . S
H286 C244 0.930 . S
H287 C245 0.930 . S
H288 C247 0.929 . S
H289 C248 0.930 . S
H290 C249 0.930 . S
H291 C250 0.930 . S
H292 C254 0.929 . S
H293 C256 0.930 . S
H294 C262 0.929 . S
H295 C263 0.935 . S
Li296 N313 1.990 . S
Li296 O356 1.956 . S
Li296 O357 1.970 . S
Li296 O358 1.961 . S
Li297 N321 1.990 . S
Li297 O356 1.970 . S
Li297 O357 1.956 . S
Li297 O359 1.961 . S
Li298 N343 1.990 . S
Li298 O356 1.961 . S
Li298 O358 1.956 . S
Li298 O359 1.970 . S
Li299 N349 1.990 . S
Li299 O357 1.961 . S
Li299 O358 1.970 . S
Li299 O359 1.956 . S
C300 C302 1.348 . S
C300 C303 1.356 . S
C300 O356 1.325 . S
N301 C304 1.314 . S
N301 C305 1.279 . S
C302 C300 1.348 . S
C302 C304 1.353 . S
C302 H360 0.929 . S
C303 C300 1.356 . S
C303 C305 1.358 . S
C303 H361 0.930 . S
C304 N301 1.314 . S
C304 C302 1.353 . S
C304 H362 0.930 . S
C305 N301 1.279 . S
C305 C303 1.358 . S
C305 H363 0.930 . S
C306 C309 1.348 . S
C306 C310 1.356 . S
C306 O357 1.325 . S
C307 N308 1.279 . S
C307 C310 1.358 . S
C307 H364 0.930 . S
N308 C307 1.279 . S
N308 C311 1.314 . S
C309 C306 1.348 . S
C309 C311 1.353 . S
C309 H365 0.929 . S
C310 C306 1.356 . S
C310 C307 1.358 . S
C310 H366 0.930 . S
C311 N308 1.314 . S
C311 C309 1.353 . S
C311 H367 0.930 . S
C312 N313 1.314 . S
C312 C317 1.353 . S
C312 H318 0.930 . S
N313 Li296 1.990 . S
N313 C312 1.314 . S
N313 C315 1.279 . S
C314 C315 1.358 . S
C314 C316 1.356 . S
C314 H368 0.930 . S
C315 N313 1.279 . S
C315 C314 1.358 . S
C315 H319 0.930 . S
C316 C314 1.356 . S
C316 C317 1.348 . S
C317 C312 1.353 . S
C317 C316 1.348 . S
C317 H369 0.929 . S
H318 C312 0.930 . S
H319 C315 0.930 . S
C320 N321 1.314 . S
C320 C322 1.353 . S
C320 H326 0.930 . S
N321 Li297 1.990 . S
N321 C320 1.314 . S
N321 C324 1.279 . S
C322 C320 1.353 . S
C322 C325 1.348 . S
C322 H370 0.929 . S
C323 C324 1.358 . S
C323 C325 1.356 . S
C323 H371 0.930 . S
C324 N321 1.279 . S
C324 C323 1.358 . S
C324 H327 0.930 . S
C325 C322 1.348 . S
C325 C323 1.356 . S
H326 C320 0.930 . S
H327 C324 0.930 . S
C328 C330 1.348 . S
C328 C331 1.356 . S
C328 O358 1.325 . S
N329 C332 1.314 . S
N329 C333 1.279 . S
C330 C328 1.348 . S
C330 C332 1.353 . S
C330 H372 0.929 . S
C331 C328 1.356 . S
C331 C333 1.358 . S
C331 H373 0.930 . S
C332 N329 1.314 . S
C332 C330 1.353 . S
C332 H374 0.930 . S
C333 N329 1.279 . S
C333 C331 1.358 . S
C333 H375 0.930 . S
C334 C335 1.348 . S
C334 C336 1.356 . S
C334 O359 1.325 . S
C335 C334 1.348 . S
C335 C337 1.353 . S
C335 H376 0.929 . S
C336 C334 1.356 . S
C336 C338 1.358 . S
C336 H377 0.930 . S
C337 C335 1.353 . S
C337 N339 1.314 . S
C337 H378 0.930 . S
C338 C336 1.358 . S
C338 N339 1.279 . S
C338 H379 0.930 . S
N339 C337 1.314 . S
N339 C338 1.279 . S
C340 C342 1.353 . S
C340 N343 1.314 . S
C340 H346 0.930 . S
C341 N343 1.279 . S
C341 C344 1.358 . S
C341 H347 0.930 . S
C342 C340 1.353 . S
C342 C345 1.348 . S
C342 H380 0.929 . S
N343 Li298 1.990 . S
N343 C340 1.314 . S
N343 C341 1.279 . S
C344 C341 1.358 . S
C344 C345 1.356 . S
C344 H381 0.930 . S
C345 C342 1.348 . S
C345 C344 1.356 . S
H346 C340 0.930 . S
H347 C341 0.930 . S
C348 N349 1.314 . S
C348 C350 1.353 . S
C348 H354 0.930 . S
N349 Li299 1.990 . S
N349 C348 1.314 . S
N349 C352 1.279 . S
C350 C348 1.353 . S
C350 C353 1.348 . S
C350 H382 0.929 . S
C351 C352 1.358 . S
C351 C353 1.356 . S
C351 H383 0.930 . S
C352 N349 1.279 . S
C352 C351 1.358 . S
C352 H355 0.930 . S
C353 C350 1.348 . S
C353 C351 1.356 . S
H354 C348 0.930 . S
H355 C352 0.930 . S
O356 Li296 1.956 . S
O356 Li297 1.970 . S
O356 Li298 1.961 . S
O356 C300 1.325 . S
O357 Li296 1.970 . S
O357 Li297 1.956 . S
O357 Li299 1.961 . S
O357 C306 1.325 . S
O358 Li296 1.961 . S
O358 Li298 1.956 . S
O358 Li299 1.970 . S
O358 C328 1.325 . S
O359 Li297 1.961 . S
O359 Li298 1.970 . S
O359 Li299 1.956 . S
O359 C334 1.325 . S
H360 C302 0.929 . S
H361 C303 0.930 . S
H362 C304 0.930 . S
H363 C305 0.930 . S
H364 C307 0.930 . S
H365 C309 0.929 . S
H366 C310 0.930 . S
H367 C311 0.930 . S
H368 C314 0.930 . S
H369 C317 0.929 . S
H370 C322 0.929 . S
H371 C323 0.930 . S
H372 C330 0.929 . S
H373 C331 0.930 . S
H374 C332 0.930 . S
H375 C333 0.930 . S
H376 C335 0.929 . S
H377 C336 0.930 . S
H378 C337 0.930 . S
H379 C338 0.930 . S
H380 C342 0.929 . S
H381 C344 0.930 . S
H382 C350 0.929 . S
H383 C351 0.930 . S
Li384 N401 1.990 . S
Li384 O444 1.956 . S
Li384 O445 1.970 . S
Li384 O446 1.961 . S
Li385 N409 1.990 . S
Li385 O444 1.970 . S
Li385 O445 1.956 . S
Li385 O447 1.961 . S
Li386 N431 1.944 1_554 S
Li386 O444 1.961 . S
Li386 O446 1.956 . S
Li386 O447 1.970 . S
Li387 N437 1.990 . S
Li387 O445 1.961 . S
Li387 O446 1.970 . S
Li387 O447 1.956 . S
C388 C390 1.348 . S
C388 C391 1.356 . S
C388 O444 1.325 . S
N389 C392 1.314 . S
N389 C393 1.279 . S
C390 C388 1.348 . S
C390 C392 1.353 . S
C390 H448 0.929 . S
C391 C388 1.356 . S
C391 C393 1.358 . S
C391 H449 0.930 . S
C392 N389 1.314 . S
C392 C390 1.353 . S
C392 H450 0.930 . S
C393 N389 1.279 . S
C393 C391 1.358 . S
C393 H451 0.876 1_554 S
C394 C397 1.348 . S
C394 C398 1.356 . S
C394 O445 1.325 . S
C395 N396 1.279 . S
C395 C398 1.358 . S
C395 H452 0.930 . S
N396 C395 1.279 . S
N396 C399 1.314 . S
C397 C394 1.348 . S
C397 C399 1.353 . S
C397 H453 0.929 . S
C398 C394 1.356 . S
C398 C395 1.358 . S
C398 H454 0.930 . S
C399 N396 1.314 . S
C399 C397 1.353 . S
C399 H455 0.930 . S
C400 N401 1.314 . S
C400 C405 1.353 . S
C400 H406 0.930 . S
N401 Li384 1.990 . S
N401 C400 1.314 . S
N401 C403 1.279 . S
C402 C403 1.358 . S
C402 C404 1.356 . S
C402 H456 0.930 . S
C403 N401 1.279 . S
C403 C402 1.358 . S
C403 H407 0.930 . S
C404 C402 1.356 . S
C404 C405 1.348 . S
C405 C400 1.353 . S
C405 C404 1.348 . S
C405 H457 0.929 . S
H406 C400 0.930 . S
H407 C403 0.930 . S
C408 N409 1.314 . S
C408 C410 1.353 . S
C408 H414 0.930 . S
N409 Li385 1.990 . S
N409 C408 1.314 . S
N409 C412 1.279 . S
C410 C408 1.353 . S
C410 C413 1.348 . S
C410 H458 0.929 . S
C411 C412 1.358 . S
C411 C413 1.356 . S
C411 H459 0.930 . S
C412 N409 1.279 . S
C412 C411 1.358 . S
C412 H415 0.930 . S
C413 C410 1.348 . S
C413 C411 1.356 . S
H414 C408 0.930 . S
H415 C412 0.930 . S
C416 C418 1.348 . S
C416 C419 1.356 1_554 S
C416 O446 1.325 . S
N417 C420 1.314 . S
N417 C421 1.279 . S
C418 C416 1.348 . S
C418 C420 1.353 1_554 S
C418 H460 0.929 . S
C419 C416 1.356 1_556 S
C419 C421 1.358 . S
C419 H461 0.930 . S
C420 N417 1.314 . S
C420 C418 1.353 1_556 S
C420 H462 0.930 . S
C421 N417 1.279 . S
C421 C419 1.358 . S
C421 H463 0.930 . S
C422 C423 1.348 . S
C422 C424 1.356 . S
C422 O447 1.325 . S
C423 C422 1.348 . S
C423 C425 1.353 . S
C423 H464 0.929 . S
C424 C422 1.356 . S
C424 C426 1.358 . S
C424 H465 0.930 . S
C425 C423 1.353 . S
C425 N427 1.314 . S
C425 H466 0.930 . S
C426 C424 1.358 . S
C426 N427 1.279 . S
C426 H467 0.930 . S
N427 C425 1.314 . S
N427 C426 1.279 . S
C428 C430 1.353 . S
C428 N431 1.312 . S
C428 H434 0.930 1_556 S
C429 N431 1.332 . S
C429 C432 1.358 . S
C429 H435 0.930 . S
C430 C428 1.353 . S
C430 C433 1.348 . S
C430 H468 0.929 . S
N431 Li386 1.944 1_556 S
N431 C428 1.312 . S
N431 C429 1.332 . S
C432 C429 1.358 . S
C432 C433 1.356 . S
C432 H469 0.930 . S
C433 C430 1.348 . S
C433 C432 1.356 . S
H434 C428 0.930 1_554 S
H435 C429 0.930 . S
C436 N437 1.314 . S
C436 C438 1.353 . S
C436 H442 0.930 . S
N437 Li387 1.990 . S
N437 C436 1.314 . S
N437 C440 1.279 . S
C438 C436 1.353 . S
C438 C441 1.348 . S
C438 H470 0.929 . S
C439 C440 1.358 . S
C439 C441 1.356 . S
C439 H471 0.930 . S
C440 N437 1.279 . S
C440 C439 1.358 . S
C440 H443 0.930 . S
C441 C438 1.348 . S
C441 C439 1.356 . S
H442 C436 0.930 . S
H443 C440 0.930 . S
O444 Li384 1.956 . S
O444 Li385 1.970 . S
O444 Li386 1.961 . S
O444 C388 1.325 . S
O445 Li384 1.970 . S
O445 Li385 1.956 . S
O445 Li387 1.961 . S
O445 C394 1.325 . S
O446 Li384 1.961 . S
O446 Li386 1.956 . S
O446 Li387 1.970 . S
O446 C416 1.325 . S
O447 Li385 1.961 . S
O447 Li386 1.970 . S
O447 Li387 1.956 . S
O447 C422 1.325 . S
H448 C390 0.929 . S
H449 C391 0.930 . S
H450 C392 0.930 . S
H451 C393 0.876 1_556 S
H452 C395 0.930 . S
H453 C397 0.929 . S
H454 C398 0.930 . S
H455 C399 0.930 . S
H456 C402 0.930 . S
H457 C405 0.929 . S
H458 C410 0.929 . S
H459 C411 0.930 . S
H460 C418 0.929 . S
H461 C419 0.930 . S
H462 C420 0.930 . S
H463 C421 0.930 . S
H464 C423 0.929 . S
H465 C424 0.930 . S
H466 C425 0.930 . S
H467 C426 0.930 . S
H468 C430 0.929 . S
H469 C432 0.930 . S
H470 C438 0.929 . S
H471 C439 0.930 . S
Li472 N489 1.990 . S
Li472 O532 1.956 . S
Li472 O533 1.970 . S
Li472 O534 1.961 . S
Li473 N497 1.990 . S
Li473 O532 1.970 . S
Li473 O533 1.956 . S
Li473 O535 1.961 1_545 S
Li474 N519 1.990 . S
Li474 O532 1.961 . S
Li474 O534 1.956 . S
Li474 O535 1.970 1_545 S
Li475 N525 1.990 . S
Li475 O533 1.961 1_565 S
Li475 O534 1.970 1_565 S
Li475 O535 1.956 . S
C476 C478 1.348 . S
C476 C479 1.356 . S
C476 O532 1.325 . S
N477 C480 1.314 . S
N477 C481 1.279 . S
C478 C476 1.348 . S
C478 C480 1.353 . S
C478 H536 0.929 . S
C479 C476 1.356 . S
C479 C481 1.358 . S
C479 H537 0.930 . S
C480 N477 1.314 . S
C480 C478 1.353 . S
C480 H538 0.930 . S
C481 N477 1.279 . S
C481 C479 1.358 . S
C481 H539 0.930 . S
C482 C485 1.348 . S
C482 C486 1.356 1_545 S
C482 O533 1.325 . S
C483 N484 1.279 1_565 S
C483 C486 1.358 . S
C483 H540 0.930 . S
N484 C483 1.279 1_545 S
N484 C487 1.314 . S
C485 C482 1.348 . S
C485 C487 1.353 . S
C485 H541 0.929 . S
C486 C482 1.356 1_565 S
C486 C483 1.358 . S
C486 H542 0.930 . S
C487 N484 1.314 . S
C487 C485 1.353 . S
C487 H543 0.930 . S
C488 N489 1.314 . S
C488 C493 1.353 . S
C488 H494 0.930 . S
N489 Li472 1.990 . S
N489 C488 1.314 . S
N489 C491 1.279 . S
C490 C491 1.358 . S
C490 C492 1.356 . S
C490 H544 0.930 . S
C491 N489 1.279 . S
C491 C490 1.358 . S
C491 H495 0.930 . S
C492 C490 1.356 . S
C492 C493 1.348 . S
C493 C488 1.353 . S
C493 C492 1.348 . S
C493 H545 0.929 . S
H494 C488 0.930 . S
H495 C491 0.930 . S
C496 N497 1.314 . S
C496 C498 1.353 . S
C496 H502 0.930 . S
N497 Li473 1.990 . S
N497 C496 1.314 . S
N497 C500 1.279 . S
C498 C496 1.353 . S
C498 C501 1.348 . S
C498 H546 0.929 . S
C499 C500 1.358 . S
C499 C501 1.356 . S
C499 H547 0.930 . S
C500 N497 1.279 . S
C500 C499 1.358 . S
C500 H503 0.930 . S
C501 C498 1.348 . S
C501 C499 1.356 . S
H502 C496 0.930 . S
H503 C500 0.930 . S
C504 C506 1.348 . S
C504 C507 1.356 . S
C504 O534 1.325 . S
N505 C508 1.314 . S
N505 C509 1.279 . S
C506 C504 1.348 . S
C506 C508 1.353 . S
C506 H548 0.929 1_545 S
C507 C504 1.356 . S
C507 C509 1.358 . S
C507 H549 0.930 . S
C508 N505 1.314 . S
C508 C506 1.353 . S
C508 H550 0.924 1_545 S
C509 N505 1.279 . S
C509 C507 1.358 . S
C509 H551 0.930 . S
C510 C511 1.348 . S
C510 C512 1.356 . S
C510 O535 1.325 . S
C511 C510 1.348 . S
C511 C513 1.353 . S
C511 H552 0.929 . S
C512 C510 1.356 . S
C512 C514 1.358 . S
C512 H553 0.930 . S
C513 C511 1.353 . S
C513 N515 1.314 . S
C513 H554 0.930 . S
C514 C512 1.358 . S
C514 N515 1.279 . S
C514 H555 0.930 . S
N515 C513 1.314 . S
N515 C514 1.279 . S
C516 C518 1.353 . S
C516 N519 1.314 . S
C516 H522 0.930 . S
C517 N519 1.279 . S
C517 C520 1.358 . S
C517 H523 0.930 . S
C518 C516 1.353 . S
C518 C521 1.348 . S
C518 H556 0.929 . S
N519 Li474 1.990 . S
N519 C516 1.314 . S
N519 C517 1.279 . S
C520 C517 1.358 . S
C520 C521 1.356 . S
C520 H557 0.930 . S
C521 C518 1.348 . S
C521 C520 1.356 . S
H522 C516 0.930 . S
H523 C517 0.930 . S
C524 N525 1.314 . S
C524 C526 1.353 . S
C524 H530 0.930 . S
N525 Li475 1.990 . S
N525 C524 1.314 . S
N525 C528 1.279 . S
C526 C524 1.353 . S
C526 C529 1.348 . S
C526 H558 0.929 . S
C527 C528 1.358 . S
C527 C529 1.356 . S
C527 H559 0.930 . S
C528 N525 1.279 . S
C528 C527 1.358 . S
C528 H531 0.930 . S
C529 C526 1.348 . S
C529 C527 1.356 . S
H530 C524 0.930 . S
H531 C528 0.930 . S
O532 Li472 1.956 . S
O532 Li473 1.970 . S
O532 Li474 1.961 . S
O532 C476 1.325 . S
O533 Li472 1.970 . S
O533 Li473 1.956 . S
O533 Li475 1.961 1_545 S
O533 C482 1.325 . S
O534 Li472 1.961 . S
O534 Li474 1.956 . S
O534 Li475 1.970 1_545 S
O534 C504 1.325 . S
O535 Li473 1.961 1_565 S
O535 Li474 1.970 1_565 S
O535 Li475 1.956 . S
O535 C510 1.325 . S
H536 C478 0.929 . S
H537 C479 0.930 . S
H538 C480 0.930 . S
H539 C481 0.930 . S
H540 C483 0.930 . S
H541 C485 0.929 . S
H542 C486 0.930 . S
H543 C487 0.930 . S
H544 C490 0.930 . S
H545 C493 0.929 . S
H546 C498 0.929 . S
H547 C499 0.930 . S
H548 C506 0.929 1_565 S
H549 C507 0.930 . S
H550 C508 0.924 1_565 S
H551 C509 0.930 . S
H552 C511 0.929 . S
H553 C512 0.930 . S
H554 C513 0.930 . S
H555 C514 0.930 . S
H556 C518 0.929 . S
H557 C520 0.930 . S
H558 C526 0.929 . S
H559 C527 0.930 . S
Li560 N577 1.990 . S
Li560 O620 1.956 . S
Li560 O621 1.970 . S
Li560 O622 1.961 . S
Li561 N585 1.990 . S
Li561 O620 1.970 . S
Li561 O621 1.956 . S
Li561 O623 1.961 . S
Li562 N607 1.990 . S
Li562 O620 1.961 . S
Li562 O622 1.956 . S
Li562 O623 1.970 . S
Li563 N613 1.990 . S
Li563 O621 1.961 . S
Li563 O622 1.970 . S
Li563 O623 1.956 . S
C564 C566 1.348 . S
C564 C567 1.356 . S
C564 O620 1.325 . S
N565 C568 1.314 . S
N565 C569 1.279 . S
C566 C564 1.348 . S
C566 C568 1.353 . S
C566 H624 0.929 . S
C567 C564 1.356 . S
C567 C569 1.358 . S
C567 H625 0.930 . S
C568 N565 1.314 . S
C568 C566 1.353 . S
C568 H626 0.930 . S
C569 N565 1.279 . S
C569 C567 1.358 . S
C569 H627 0.930 . S
C570 C573 1.348 . S
C570 C574 1.356 . S
C570 O621 1.325 . S
C571 N572 1.279 . S
C571 C574 1.358 . S
C571 H628 0.930 . S
N572 C571 1.279 . S
N572 C575 1.314 . S
C573 C570 1.348 . S
C573 C575 1.353 . S
C573 H629 0.929 . S
C574 C570 1.356 . S
C574 C571 1.358 . S
C574 H630 0.930 . S
C575 N572 1.314 . S
C575 C573 1.353 . S
C575 H631 0.930 . S
C576 N577 1.314 . S
C576 C581 1.353 . S
C576 H582 0.930 . S
N577 Li560 1.990 . S
N577 C576 1.314 . S
N577 C579 1.279 . S
C578 C579 1.358 . S
C578 C580 1.356 . S
C578 H632 0.930 . S
C579 N577 1.279 . S
C579 C578 1.358 . S
C579 H583 0.930 . S
C580 C578 1.356 . S
C580 C581 1.348 . S
C581 C576 1.353 . S
C581 C580 1.348 . S
C581 H633 0.929 . S
H582 C576 0.930 . S
H583 C579 0.930 . S
C584 N585 1.314 . S
C584 C586 1.353 . S
C584 H590 0.930 . S
N585 Li561 1.990 . S
N585 C584 1.314 . S
N585 C588 1.279 . S
C586 C584 1.353 . S
C586 C589 1.348 . S
C586 H634 0.929 . S
C587 C588 1.358 . S
C587 C589 1.356 . S
C587 H635 0.930 . S
C588 N585 1.279 . S
C588 C587 1.358 . S
C588 H591 0.930 . S
C589 C586 1.348 . S
C589 C587 1.356 . S
H590 C584 0.930 . S
H591 C588 0.930 . S
C592 C594 1.348 . S
C592 C595 1.356 . S
C592 O622 1.325 . S
N593 C596 1.314 . S
N593 C597 1.279 . S
C594 C592 1.348 . S
C594 C596 1.353 . S
C594 H636 0.929 . S
C595 C592 1.356 . S
C595 C597 1.358 . S
C595 H637 0.930 . S
C596 N593 1.314 . S
C596 C594 1.353 . S
C596 H638 0.930 . S
C597 N593 1.279 . S
C597 C595 1.358 . S
C597 H639 0.930 . S
C598 C599 1.348 . S
C598 C600 1.356 . S
C598 O623 1.325 . S
C599 C598 1.348 . S
C599 C601 1.353 . S
C599 H640 0.929 . S
C600 C598 1.356 . S
C600 C602 1.358 . S
C600 H641 0.930 . S
C601 C599 1.353 . S
C601 N603 1.314 . S
C601 H642 0.930 . S
C602 C600 1.358 . S
C602 N603 1.279 . S
C602 H643 0.930 . S
N603 C601 1.314 . S
N603 C602 1.279 . S
C604 C606 1.353 . S
C604 N607 1.314 . S
C604 H610 0.930 . S
C605 N607 1.279 . S
C605 C608 1.358 . S
C605 H611 0.930 . S
C606 C604 1.353 . S
C606 C609 1.348 . S
C606 H644 0.929 . S
N607 Li562 1.990 . S
N607 C604 1.314 . S
N607 C605 1.279 . S
C608 C605 1.358 . S
C608 C609 1.356 . S
C608 H645 0.930 . S
C609 C606 1.348 . S
C609 C608 1.356 . S
H610 C604 0.930 . S
H611 C605 0.930 . S
C612 N613 1.314 . S
C612 C614 1.353 . S
C612 H618 0.930 . S
N613 Li563 1.990 . S
N613 C612 1.314 . S
N613 C616 1.279 . S
C614 C612 1.353 . S
C614 C617 1.348 . S
C614 H646 0.929 . S
C615 C616 1.358 . S
C615 C617 1.356 . S
C615 H647 0.930 . S
C616 N613 1.279 . S
C616 C615 1.358 . S
C616 H619 0.930 . S
C617 C614 1.348 . S
C617 C615 1.356 . S
H618 C612 0.930 . S
H619 C616 0.930 . S
O620 Li560 1.956 . S
O620 Li561 1.970 . S
O620 Li562 1.961 . S
O620 C564 1.325 . S
O621 Li560 1.970 . S
O621 Li561 1.956 . S
O621 Li563 1.961 . S
O621 C570 1.325 . S
O622 Li560 1.961 . S
O622 Li562 1.956 . S
O622 Li563 1.970 . S
O622 C592 1.325 . S
O623 Li561 1.961 . S
O623 Li562 1.970 . S
O623 Li563 1.956 . S
O623 C598 1.325 . S
H624 C566 0.929 . S
H625 C567 0.930 . S
H626 C568 0.930 . S
H627 C569 0.930 . S
H628 C571 0.930 . S
H629 C573 0.929 . S
H630 C574 0.930 . S
H631 C575 0.930 . S
H632 C578 0.930 . S
H633 C581 0.929 . S
H634 C586 0.929 . S
H635 C587 0.930 . S
H636 C594 0.929 . S
H637 C595 0.930 . S
H638 C596 0.930 . S
H639 C597 0.930 . S
H640 C599 0.929 . S
H641 C600 0.930 . S
H642 C601 0.930 . S
H643 C602 0.930 . S
H644 C606 0.929 . S
H645 C608 0.930 . S
H646 C614 0.929 . S
H647 C615 0.930 . S
Li648 N665 1.990 . S
Li648 O708 1.956 . S
Li648 O709 1.970 . S
Li648 O710 1.961 . S
Li649 N673 1.990 . S
Li649 O708 1.970 . S
Li649 O709 1.956 . S
Li649 O711 1.961 . S
Li650 N695 1.990 . S
Li650 O708 1.961 . S
Li650 O710 1.956 . S
Li650 O711 1.970 . S
Li651 N701 1.990 . S
Li651 O709 1.961 . S
Li651 O710 1.970 . S
Li651 O711 1.956 . S
C652 C654 1.348 . S
C652 C655 1.356 . S
C652 O708 1.325 . S
N653 C656 1.314 . S
N653 C657 1.279 . S
C654 C652 1.348 . S
C654 C656 1.353 . S
C654 H712 0.929 . S
C655 C652 1.356 . S
C655 C657 1.358 . S
C655 H713 0.930 . S
C656 N653 1.314 . S
C656 C654 1.353 . S
C656 H714 0.930 . S
C657 N653 1.279 . S
C657 C655 1.358 . S
C657 H715 0.930 . S
C658 C661 1.348 . S
C658 C662 1.356 . S
C658 O709 1.325 . S
C659 N660 1.279 . S
C659 C662 1.358 . S
C659 H716 0.930 . S
N660 C659 1.279 . S
N660 C663 1.314 . S
C661 C658 1.348 . S
C661 C663 1.353 . S
C661 H717 0.929 . S
C662 C658 1.356 . S
C662 C659 1.358 . S
C662 H718 0.930 . S
C663 N660 1.314 . S
C663 C661 1.353 . S
C663 H719 0.930 . S
C664 N665 1.314 . S
C664 C669 1.353 . S
C664 H670 0.930 . S
N665 Li648 1.990 . S
N665 C664 1.314 . S
N665 C667 1.279 . S
C666 C667 1.358 . S
C666 C668 1.356 . S
C666 H720 0.930 . S
C667 N665 1.279 . S
C667 C666 1.358 . S
C667 H671 0.930 . S
C668 C666 1.356 . S
C668 C669 1.348 . S
C669 C664 1.353 . S
C669 C668 1.348 . S
C669 H721 0.929 . S
H670 C664 0.930 . S
H671 C667 0.930 . S
C672 N673 1.314 . S
C672 C674 1.353 . S
C672 H678 0.930 . S
N673 Li649 1.990 . S
N673 C672 1.314 . S
N673 C676 1.279 . S
C674 C672 1.353 . S
C674 C677 1.348 . S
C674 H722 0.929 . S
C675 C676 1.358 . S
C675 C677 1.356 . S
C675 H723 0.930 . S
C676 N673 1.279 . S
C676 C675 1.358 . S
C676 H679 0.930 . S
C677 C674 1.348 . S
C677 C675 1.356 . S
H678 C672 0.930 . S
H679 C676 0.930 . S
C680 C682 1.348 . S
C680 C683 1.356 . S
C680 O710 1.325 . S
N681 C684 1.314 . S
N681 C685 1.279 . S
C682 C680 1.348 . S
C682 C684 1.353 . S
C682 H724 0.929 . S
C683 C680 1.356 . S
C683 C685 1.358 . S
C683 H725 0.930 . S
C684 N681 1.314 . S
C684 C682 1.353 . S
C684 H726 0.930 . S
C685 N681 1.279 . S
C685 C683 1.358 . S
C685 H727 0.930 . S
C686 C687 1.348 . S
C686 C688 1.356 . S
C686 O711 1.325 . S
C687 C686 1.348 . S
C687 C689 1.353 . S
C687 H728 0.929 . S
C688 C686 1.356 . S
C688 C690 1.358 . S
C688 H729 0.930 . S
C689 C687 1.353 . S
C689 N691 1.314 . S
C689 H730 0.930 . S
C690 C688 1.358 . S
C690 N691 1.279 . S
C690 H731 0.930 . S
N691 C689 1.314 . S
N691 C690 1.279 . S
C692 C694 1.353 . S
C692 N695 1.314 . S
C692 H698 0.930 . S
C693 N695 1.279 . S
C693 C696 1.358 . S
C693 H699 0.930 . S
C694 C692 1.353 . S
C694 C697 1.348 . S
C694 H732 0.929 . S
N695 Li650 1.990 . S
N695 C692 1.314 . S
N695 C693 1.279 . S
C696 C693 1.358 . S
C696 C697 1.356 . S
C696 H733 0.930 . S
C697 C694 1.348 . S
C697 C696 1.356 . S
H698 C692 0.930 . S
H699 C693 0.930 . S
C700 N701 1.314 . S
C700 C702 1.353 . S
C700 H706 0.930 . S
N701 Li651 1.990 . S
N701 C700 1.314 . S
N701 C704 1.279 . S
C702 C700 1.353 . S
C702 C705 1.348 . S
C702 H734 0.929 . S
C703 C704 1.358 . S
C703 C705 1.356 . S
C703 H735 0.930 . S
C704 N701 1.279 . S
C704 C703 1.358 . S
C704 H707 0.930 . S
C705 C702 1.348 . S
C705 C703 1.356 . S
H706 C700 0.930 . S
H707 C704 0.930 . S
O708 Li648 1.956 . S
O708 Li649 1.970 . S
O708 Li650 1.961 . S
O708 C652 1.325 . S
O709 Li648 1.970 . S
O709 Li649 1.956 . S
O709 Li651 1.961 . S
O709 C658 1.325 . S
O710 Li648 1.961 . S
O710 Li650 1.956 . S
O710 Li651 1.970 . S
O710 C680 1.325 . S
O711 Li649 1.961 . S
O711 Li650 1.970 . S
O711 Li651 1.956 . S
O711 C686 1.325 . S
H712 C654 0.929 . S
H713 C655 0.930 . S
H714 C656 0.930 . S
H715 C657 0.930 . S
H716 C659 0.930 . S
H717 C661 0.929 . S
H718 C662 0.930 . S
H719 C663 0.930 . S
H720 C666 0.930 . S
H721 C669 0.929 . S
H722 C674 0.929 . S
H723 C675 0.930 . S
H724 C682 0.929 . S
H725 C683 0.930 . S
H726 C684 0.930 . S
H727 C685 0.930 . S
H728 C687 0.929 . S
H729 C688 0.930 . S
H730 C689 0.930 . S
H731 C690 0.930 . S
H732 C694 0.929 . S
H733 C696 0.930 . S
H734 C702 0.929 . S
H735 C703 0.930 . S
Li736 N753 1.990 . S
Li736 O796 1.956 . S
Li736 O797 1.970 . S
Li736 O798 1.961 . S
Li737 N761 1.990 . S
Li737 O796 1.970 . S
Li737 O797 1.956 . S
Li737 O799 1.961 . S
Li738 N783 1.990 . S
Li738 O796 1.961 . S
Li738 O798 1.956 . S
Li738 O799 1.970 . S
Li739 N789 1.990 . S
Li739 O797 1.961 . S
Li739 O798 1.970 . S
Li739 O799 1.956 . S
C740 C742 1.348 . S
C740 C743 1.356 . S
C740 O796 1.325 . S
N741 C744 1.314 . S
N741 C745 1.279 . S
C742 C740 1.348 . S
C742 C744 1.353 . S
C742 H800 0.929 . S
C743 C740 1.356 . S
C743 C745 1.358 . S
C743 H801 0.930 . S
C744 N741 1.314 . S
C744 C742 1.353 . S
C744 H802 0.930 . S
C745 N741 1.279 . S
C745 C743 1.358 . S
C745 H803 0.930 . S
C746 C749 1.348 . S
C746 C750 1.356 . S
C746 O797 1.325 . S
C747 N748 1.279 . S
C747 C750 1.358 . S
C747 H804 0.930 . S
N748 C747 1.279 . S
N748 C751 1.314 . S
C749 C746 1.348 . S
C749 C751 1.353 . S
C749 H805 0.929 . S
C750 C746 1.356 . S
C750 C747 1.358 . S
C750 H806 0.930 . S
C751 N748 1.314 . S
C751 C749 1.353 . S
C751 H807 0.930 . S
C752 N753 1.314 . S
C752 C757 1.353 . S
C752 H758 0.930 . S
N753 Li736 1.990 . S
N753 C752 1.314 . S
N753 C755 1.279 . S
C754 C755 1.358 . S
C754 C756 1.356 . S
C754 H808 0.930 . S
C755 N753 1.279 . S
C755 C754 1.358 . S
C755 H759 0.930 . S
C756 C754 1.356 . S
C756 C757 1.348 . S
C757 C752 1.353 . S
C757 C756 1.348 . S
C757 H809 0.929 . S
H758 C752 0.930 . S
H759 C755 0.930 . S
C760 N761 1.314 . S
C760 C762 1.353 . S
C760 H766 0.930 . S
N761 Li737 1.990 . S
N761 C760 1.314 . S
N761 C764 1.279 . S
C762 C760 1.353 . S
C762 C765 1.348 . S
C762 H810 0.929 . S
C763 C764 1.358 . S
C763 C765 1.356 . S
C763 H811 0.930 . S
C764 N761 1.279 . S
C764 C763 1.358 . S
C764 H767 0.930 . S
C765 C762 1.348 . S
C765 C763 1.356 . S
H766 C760 0.930 . S
H767 C764 0.930 . S
C768 C770 1.348 . S
C768 C771 1.356 . S
C768 O798 1.325 . S
N769 C772 1.314 . S
N769 C773 1.279 . S
C770 C768 1.348 . S
C770 C772 1.353 . S
C770 H812 0.929 . S
C771 C768 1.356 . S
C771 C773 1.358 . S
C771 H813 0.930 . S
C772 N769 1.314 . S
C772 C770 1.353 . S
C772 H814 0.930 . S
C773 N769 1.279 . S
C773 C771 1.358 . S
C773 H815 0.930 . S
C774 C775 1.348 . S
C774 C776 1.356 . S
C774 O799 1.325 . S
C775 C774 1.348 . S
C775 C777 1.353 . S
C775 H816 0.929 . S
C776 C774 1.356 . S
C776 C778 1.358 . S
C776 H817 0.930 . S
C777 C775 1.353 . S
C777 N779 1.314 . S
C777 H818 0.930 . S
C778 C776 1.358 . S
C778 N779 1.279 . S
C778 H819 0.930 . S
N779 C777 1.314 . S
N779 C778 1.279 . S
C780 C782 1.353 . S
C780 N783 1.314 . S
C780 H786 0.930 . S
C781 N783 1.279 . S
C781 C784 1.358 . S
C781 H787 0.930 . S
C782 C780 1.353 . S
C782 C785 1.348 . S
C782 H820 0.929 . S
N783 Li738 1.990 . S
N783 C780 1.314 . S
N783 C781 1.279 . S
C784 C781 1.358 . S
C784 C785 1.356 . S
C784 H821 0.930 . S
C785 C782 1.348 . S
C785 C784 1.356 . S
H786 C780 0.930 . S
H787 C781 0.930 . S
C788 N789 1.314 . S
C788 C790 1.353 . S
C788 H794 0.930 . S
N789 Li739 1.990 . S
N789 C788 1.314 . S
N789 C792 1.279 . S
C790 C788 1.353 . S
C790 C793 1.348 . S
C790 H822 0.929 . S
C791 C792 1.358 . S
C791 C793 1.356 . S
C791 H823 0.930 . S
C792 N789 1.279 . S
C792 C791 1.358 . S
C792 H795 0.930 . S
C793 C790 1.348 . S
C793 C791 1.356 . S
H794 C788 0.930 . S
H795 C792 0.930 . S
O796 Li736 1.956 . S
O796 Li737 1.970 . S
O796 Li738 1.961 . S
O796 C740 1.325 . S
O797 Li736 1.970 . S
O797 Li737 1.956 . S
O797 Li739 1.961 . S
O797 C746 1.325 . S
O798 Li736 1.961 . S
O798 Li738 1.956 . S
O798 Li739 1.970 . S
O798 C768 1.325 . S
O799 Li737 1.961 . S
O799 Li738 1.970 . S
O799 Li739 1.956 . S
O799 C774 1.325 . S
H800 C742 0.929 . S
H801 C743 0.930 . S
H802 C744 0.930 . S
H803 C745 0.930 . S
H804 C747 0.930 . S
H805 C749 0.929 . S
H806 C750 0.930 . S
H807 C751 0.930 . S
H808 C754 0.930 . S
H809 C757 0.929 . S
H810 C762 0.929 . S
H811 C763 0.930 . S
H812 C770 0.929 . S
H813 C771 0.930 . S
H814 C772 0.930 . S
H815 C773 0.930 . S
H816 C775 0.929 . S
H817 C776 0.930 . S
H818 C777 0.930 . S
H819 C778 0.930 . S
H820 C782 0.929 . S
H821 C784 0.930 . S
H822 C790 0.929 . S
H823 C791 0.930 . S
Li824 N841 1.990 . S
Li824 O884 1.956 . S
Li824 O885 1.970 1_565 S
Li824 O886 1.961 . S
Li825 N849 1.990 . S
Li825 O884 1.970 1_545 S
Li825 O885 1.956 . S
Li825 O887 1.961 . S
Li826 N871 1.990 . S
Li826 O884 1.961 . S
Li826 O886 1.956 . S
Li826 O887 1.970 1_565 S
Li827 N877 1.990 . S
Li827 O885 1.961 . S
Li827 O886 1.970 1_545 S
Li827 O887 1.956 . S
C828 C830 1.348 . S
C828 C831 1.356 . S
C828 O884 1.325 . S
N829 C832 1.314 . S
N829 C833 1.279 . S
C830 C828 1.348 . S
C830 C832 1.353 . S
C830 H888 0.929 . S
C831 C828 1.356 . S
C831 C833 1.358 . S
C831 H889 0.930 . S
C832 N829 1.314 . S
C832 C830 1.353 . S
C832 H890 0.930 . S
C833 N829 1.279 . S
C833 C831 1.358 . S
C833 H891 0.930 . S
C834 C837 1.348 1_545 S
C834 C838 1.356 . S
C834 O885 1.325 . S
C835 N836 1.279 . S
C835 C838 1.358 . S
C835 H892 0.930 . S
N836 C835 1.279 . S
N836 C839 1.314 . S
C837 C834 1.348 1_565 S
C837 C839 1.353 1_565 S
C837 H893 0.929 . S
C838 C834 1.356 . S
C838 C835 1.358 . S
C838 H894 0.930 . S
C839 N836 1.314 . S
C839 C837 1.353 1_545 S
C839 H895 0.930 1_545 S
C840 N841 1.314 . S
C840 C845 1.353 . S
C840 H846 0.930 . S
N841 Li824 1.990 . S
N841 C840 1.314 . S
N841 C843 1.279 . S
C842 C843 1.358 . S
C842 C844 1.356 . S
C842 H896 0.930 . S
C843 N841 1.279 . S
C843 C842 1.358 . S
C843 H847 0.930 . S
C844 C842 1.356 . S
C844 C845 1.348 . S
C845 C840 1.353 . S
C845 C844 1.348 . S
C845 H897 0.929 . S
H846 C840 0.930 . S
H847 C843 0.930 . S
C848 N849 1.314 . S
C848 C850 1.353 . S
C848 H854 0.930 . S
N849 Li825 1.990 . S
N849 C848 1.314 . S
N849 C852 1.279 . S
C850 C848 1.353 . S
C850 C853 1.348 . S
C850 H898 0.929 . S
C851 C852 1.358 . S
C851 C853 1.356 . S
C851 H899 0.930 . S
C852 N849 1.279 . S
C852 C851 1.358 . S
C852 H855 0.930 . S
C853 C850 1.348 . S
C853 C851 1.356 . S
H854 C848 0.930 . S
H855 C852 0.930 . S
C856 C858 1.348 1_565 S
C856 C859 1.356 . S
C856 O886 1.325 . S
N857 C860 1.314 1_565 S
N857 C861 1.279 . S
C858 C856 1.348 1_545 S
C858 C860 1.353 . S
C858 H900 0.929 . S
C859 C856 1.356 . S
C859 C861 1.358 . S
C859 H901 0.930 . S
C860 N857 1.314 1_545 S
C860 C858 1.353 . S
C860 H902 0.930 . S
C861 N857 1.279 . S
C861 C859 1.358 . S
C861 H903 0.930 . S
C862 C863 1.348 . S
C862 C864 1.356 . S
C862 O887 1.325 . S
C863 C862 1.348 . S
C863 C865 1.353 . S
C863 H904 0.929 . S
C864 C862 1.356 . S
C864 C866 1.358 . S
C864 H905 0.930 . S
C865 C863 1.353 . S
C865 N867 1.314 . S
C865 H906 0.930 . S
C866 C864 1.358 . S
C866 N867 1.279 . S
C866 H907 0.930 . S
N867 C865 1.314 . S
N867 C866 1.279 . S
C868 C870 1.353 . S
C868 N871 1.314 . S
C868 H874 0.930 . S
C869 N871 1.279 . S
C869 C872 1.358 . S
C869 H875 0.930 . S
C870 C868 1.353 . S
C870 C873 1.348 . S
C870 H908 0.929 . S
N871 Li826 1.990 . S
N871 C868 1.314 . S
N871 C869 1.279 . S
C872 C869 1.358 . S
C872 C873 1.356 . S
C872 H909 0.930 . S
C873 C870 1.348 . S
C873 C872 1.356 . S
H874 C868 0.930 . S
H875 C869 0.930 . S
C876 N877 1.314 . S
C876 C878 1.353 . S
C876 H882 0.930 . S
N877 Li827 1.990 . S
N877 C876 1.314 . S
N877 C880 1.279 . S
C878 C876 1.353 . S
C878 C881 1.348 . S
C878 H910 0.929 . S
C879 C880 1.358 . S
C879 C881 1.356 . S
C879 H911 0.930 . S
C880 N877 1.279 . S
C880 C879 1.358 . S
C880 H883 0.930 . S
C881 C878 1.348 . S
C881 C879 1.356 . S
H882 C876 0.930 . S
H883 C880 0.930 . S
O884 Li824 1.956 . S
O884 Li825 1.970 1_565 S
O884 Li826 1.961 . S
O884 C828 1.325 . S
O885 Li824 1.970 1_545 S
O885 Li825 1.956 . S
O885 Li827 1.961 . S
O885 C834 1.325 . S
O886 Li824 1.961 . S
O886 Li826 1.956 . S
O886 Li827 1.970 1_565 S
O886 C856 1.325 . S
O887 Li825 1.961 . S
O887 Li826 1.970 1_545 S
O887 Li827 1.956 . S
O887 C862 1.325 . S
H888 C830 0.929 . S
H889 C831 0.930 . S
H890 C832 0.930 . S
H891 C833 0.930 . S
H892 C835 0.930 . S
H893 C837 0.929 . S
H894 C838 0.930 . S
H895 C839 0.930 1_565 S
H896 C842 0.930 . S
H897 C845 0.929 . S
H898 C850 0.929 . S
H899 C851 0.930 . S
H900 C858 0.929 . S
H901 C859 0.930 . S
H902 C860 0.930 . S
H903 C861 0.930 . S
H904 C863 0.929 . S
H905 C864 0.930 . S
H906 C865 0.930 . S
H907 C866 0.930 . S
H908 C870 0.929 . S
H909 C872 0.930 . S
H910 C878 0.929 . S
H911 C879 0.930 . S
Li912 N929 1.990 . S
Li912 O972 1.956 . S
Li912 O973 1.945 1_455 S
Li912 O974 1.988 . S
Li913 N937 1.990 . S
Li913 O972 1.970 1_655 S
Li913 O973 1.958 . S
Li913 O975 1.961 . S
Li914 N959 1.990 . S
Li914 O972 1.961 . S
Li914 O974 1.956 . S
Li914 O975 1.970 1_455 S
Li915 N965 1.990 . S
Li915 O973 1.979 . S
Li915 O974 1.933 1_655 S
Li915 O975 1.956 . S
C916 C918 1.348 . S
C916 C919 1.356 . S
C916 O972 1.325 . S
N917 C920 1.314 . S
N917 C921 1.279 . S
C918 C916 1.348 . S
C918 C920 1.353 . S
C918 H976 0.929 . S
C919 C916 1.356 . S
C919 C921 1.358 . S
C919 H977 0.930 . S
C920 N917 1.314 . S
C920 C918 1.353 . S
C920 H978 0.930 . S
C921 N917 1.279 . S
C921 C919 1.358 . S
C921 H979 0.930 . S
C922 C925 1.348 1_655 S
C922 C926 1.356 . S
C922 O973 1.330 . S
C923 N924 1.279 . S
C923 C926 1.358 . S
C923 H980 0.930 . S
N924 C923 1.279 . S
N924 C927 1.314 1_655 S
C925 C922 1.348 1_455 S
C925 C927 1.353 . S
C925 H981 0.929 . S
C926 C922 1.356 . S
C926 C923 1.358 . S
C926 H982 0.930 . S
C927 N924 1.314 1_455 S
C927 C925 1.353 . S
C927 H983 0.930 . S
C928 N929 1.314 . S
C928 C933 1.353 . S
C928 H934 0.930 . S
N929 Li912 1.990 . S
N929 C928 1.314 . S
N929 C931 1.279 . S
C930 C931 1.358 . S
C930 C932 1.356 . S
C930 H984 0.930 . S
C931 N929 1.279 . S
C931 C930 1.358 . S
C931 H935 0.930 . S
C932 C930 1.356 . S
C932 C933 1.348 . S
C933 C928 1.353 . S
C933 C932 1.348 . S
C933 H985 0.929 . S
H934 C928 0.930 . S
H935 C931 0.930 . S
C936 N937 1.314 . S
C936 C938 1.353 . S
C936 H942 0.930 . S
N937 Li913 1.990 . S
N937 C936 1.314 . S
N937 C940 1.278 1_655 S
C938 C936 1.353 . S
C938 C941 1.348 . S
C938 H986 0.929 . S
C939 C940 1.357 . S
C939 C941 1.354 1_455 S
C939 H987 0.930 . S
C940 N937 1.278 1_455 S
C940 C939 1.357 . S
C940 H943 0.936 . S
C941 C938 1.348 . S
C941 C939 1.354 1_655 S
H942 C936 0.930 . S
H943 C940 0.936 . S
C944 C946 1.348 1_455 S
C944 C947 1.356 . S
C944 O974 1.334 . S
N945 C948 1.314 1_455 S
N945 C949 1.279 . S
C946 C944 1.348 1_655 S
C946 C948 1.353 . S
C946 H988 0.929 . S
C947 C944 1.356 . S
C947 C949 1.358 . S
C947 H989 0.930 . S
C948 N945 1.314 1_655 S
C948 C946 1.353 . S
C948 H990 0.930 . S
C949 N945 1.279 . S
C949 C947 1.358 . S
C949 H991 0.930 . S
C950 C951 1.348 . S
C950 C952 1.356 . S
C950 O975 1.325 . S
C951 C950 1.348 . S
C951 C953 1.353 . S
C951 H992 0.929 . S
C952 C950 1.356 . S
C952 C954 1.358 . S
C952 H993 0.930 . S
C953 C951 1.353 . S
C953 N955 1.314 . S
C953 H994 0.930 . S
C954 C952 1.358 . S
C954 N955 1.279 . S
C954 H995 0.930 . S
N955 C953 1.314 . S
N955 C954 1.279 . S
C956 C958 1.353 . S
C956 N959 1.314 . S
C956 H962 0.930 . S
C957 N959 1.279 1_655 S
C957 C960 1.357 . S
C957 H963 0.932 . S
C958 C956 1.353 . S
C958 C961 1.348 . S
C958 H996 0.929 . S
N959 Li914 1.990 . S
N959 C956 1.314 . S
N959 C957 1.279 1_455 S
C960 C957 1.357 . S
C960 C961 1.356 1_655 S
C960 H997 0.929 . S
C961 C958 1.348 . S
C961 C960 1.356 1_455 S
H962 C956 0.930 . S
H963 C957 0.932 . S
C964 N965 1.314 . S
C964 C966 1.353 . S
C964 H970 0.930 . S
N965 Li915 1.990 . S
N965 C964 1.314 . S
N965 C968 1.279 . S
C966 C964 1.353 . S
C966 C969 1.348 . S
C966 H998 0.929 . S
C967 C968 1.358 . S
C967 C969 1.356 . S
C967 H999 0.930 . S
C968 N965 1.279 . S
C968 C967 1.358 . S
C968 H971 0.930 . S
C969 C966 1.348 . S
C969 C967 1.356 . S
H970 C964 0.930 . S
H971 C968 0.930 . S
O972 Li912 1.956 . S
O972 Li913 1.970 1_455 S
O972 Li914 1.961 . S
O972 C916 1.325 . S
O973 Li912 1.945 1_655 S
O973 Li913 1.958 . S
O973 Li915 1.979 . S
O973 C922 1.330 . S
O974 Li912 1.988 . S
O974 Li914 1.956 . S
O974 Li915 1.933 1_455 S
O974 C944 1.334 . S
O975 Li913 1.961 . S
O975 Li914 1.970 1_655 S
O975 Li915 1.956 . S
O975 C950 1.325 . S
H976 C918 0.929 . S
H977 C919 0.930 . S
H978 C920 0.930 . S
H979 C921 0.930 . S
H980 C923 0.930 . S
H981 C925 0.929 . S
H982 C926 0.930 . S
H983 C927 0.930 . S
H984 C930 0.930 . S
H985 C933 0.929 . S
H986 C938 0.929 . S
H987 C939 0.930 . S
H988 C946 0.929 . S
H989 C947 0.930 . S
H990 C948 0.930 . S
H991 C949 0.930 . S
H992 C951 0.929 . S
H993 C952 0.930 . S
H994 C953 0.930 . S
H995 C954 0.930 . S
H996 C958 0.929 . S
H997 C960 0.929 . S
H998 C966 0.929 . S
H999 C967 0.930 . S
Li1000 N1017 1.990 . S
Li1000 O1060 1.956 . S
Li1000 O1061 1.970 . S
Li1000 O1062 1.961 . S
Li1001 N1025 1.990 . S
Li1001 O1060 1.970 . S
Li1001 O1061 1.956 . S
Li1001 O1063 1.961 . S
Li1002 N1047 1.990 . S
Li1002 O1060 1.961 . S
Li1002 O1062 1.956 . S
Li1002 O1063 1.970 . S
Li1003 N1053 1.990 . S
Li1003 O1061 1.961 . S
Li1003 O1062 1.970 . S
Li1003 O1063 1.956 . S
C1004 C1006 1.348 . S
C1004 C1007 1.356 . S
C1004 O1060 1.325 . S
N1005 C1008 1.314 . S
N1005 C1009 1.279 . S
C1006 C1004 1.348 . S
C1006 C1008 1.353 . S
C1006 H1064 0.929 . S
C1007 C1004 1.356 . S
C1007 C1009 1.358 . S
C1007 H1065 0.930 . S
C1008 N1005 1.314 . S
C1008 C1006 1.353 . S
C1008 H1066 0.930 . S
C1009 N1005 1.279 . S
C1009 C1007 1.358 . S
C1009 H1067 0.930 . S
C1010 C1013 1.348 . S
C1010 C1014 1.356 . S
C1010 O1061 1.325 . S
C1011 N1012 1.279 . S
C1011 C1014 1.358 . S
C1011 H1068 0.930 . S
N1012 C1011 1.279 . S
N1012 C1015 1.314 . S
C1013 C1010 1.348 . S
C1013 C1015 1.353 . S
C1013 H1069 0.929 . S
C1014 C1010 1.356 . S
C1014 C1011 1.358 . S
C1014 H1070 0.930 . S
C1015 N1012 1.314 . S
C1015 C1013 1.353 . S
C1015 H1071 0.930 . S
C1016 N1017 1.314 . S
C1016 C1021 1.353 . S
C1016 H1022 0.930 . S
N1017 Li1000 1.990 . S
N1017 C1016 1.314 . S
N1017 C1019 1.279 . S
C1018 C1019 1.358 . S
C1018 C1020 1.356 . S
C1018 H1072 0.930 . S
C1019 N1017 1.279 . S
C1019 C1018 1.358 . S
C1019 H1023 0.930 . S
C1020 C1018 1.356 . S
C1020 C1021 1.348 . S
C1021 C1016 1.353 . S
C1021 C1020 1.348 . S
C1021 H1073 0.929 . S
H1022 C1016 0.930 . S
H1023 C1019 0.930 . S
C1024 N1025 1.314 . S
C1024 C1026 1.353 . S
C1024 H1030 0.930 . S
N1025 Li1001 1.990 . S
N1025 C1024 1.314 . S
N1025 C1028 1.279 . S
C1026 C1024 1.353 . S
C1026 C1029 1.348 . S
C1026 H1074 0.929 . S
C1027 C1028 1.358 . S
C1027 C1029 1.356 . S
C1027 H1075 0.930 . S
C1028 N1025 1.279 . S
C1028 C1027 1.358 . S
C1028 H1031 0.930 . S
C1029 C1026 1.348 . S
C1029 C1027 1.356 . S
H1030 C1024 0.930 . S
H1031 C1028 0.930 . S
C1032 C1034 1.348 . S
C1032 C1035 1.356 . S
C1032 O1062 1.325 . S
N1033 C1036 1.314 . S
N1033 C1037 1.279 . S
C1034 C1032 1.348 . S
C1034 C1036 1.353 . S
C1034 H1076 0.929 . S
C1035 C1032 1.356 . S
C1035 C1037 1.358 . S
C1035 H1077 0.930 . S
C1036 N1033 1.314 . S
C1036 C1034 1.353 . S
C1036 H1078 0.930 . S
C1037 N1033 1.279 . S
C1037 C1035 1.358 . S
C1037 H1079 0.930 . S
C1038 C1039 1.348 . S
C1038 C1040 1.356 . S
C1038 O1063 1.325 . S
C1039 C1038 1.348 . S
C1039 C1041 1.353 . S
C1039 H1080 0.929 . S
C1040 C1038 1.356 . S
C1040 C1042 1.358 . S
C1040 H1081 0.930 . S
C1041 C1039 1.353 . S
C1041 N1043 1.314 . S
C1041 H1082 0.930 . S
C1042 C1040 1.358 . S
C1042 N1043 1.279 . S
C1042 H1083 0.930 . S
N1043 C1041 1.314 . S
N1043 C1042 1.279 . S
C1044 C1046 1.353 . S
C1044 N1047 1.314 . S
C1044 H1050 0.930 . S
C1045 N1047 1.279 . S
C1045 C1048 1.358 . S
C1045 H1051 0.930 . S
C1046 C1044 1.353 . S
C1046 C1049 1.348 . S
C1046 H1084 0.929 . S
N1047 Li1002 1.990 . S
N1047 C1044 1.314 . S
N1047 C1045 1.279 . S
C1048 C1045 1.358 . S
C1048 C1049 1.356 . S
C1048 H1085 0.930 . S
C1049 C1046 1.348 . S
C1049 C1048 1.356 . S
H1050 C1044 0.930 . S
H1051 C1045 0.930 . S
C1052 N1053 1.314 . S
C1052 C1054 1.353 . S
C1052 H1058 0.930 . S
N1053 Li1003 1.990 . S
N1053 C1052 1.314 . S
N1053 C1056 1.279 . S
C1054 C1052 1.353 . S
C1054 C1057 1.348 . S
C1054 H1086 0.929 . S
C1055 C1056 1.358 . S
C1055 C1057 1.356 . S
C1055 H1087 0.930 . S
C1056 N1053 1.279 . S
C1056 C1055 1.358 . S
C1056 H1059 0.930 . S
C1057 C1054 1.348 . S
C1057 C1055 1.356 . S
H1058 C1052 0.930 . S
H1059 C1056 0.930 . S
O1060 Li1000 1.956 . S
O1060 Li1001 1.970 . S
O1060 Li1002 1.961 . S
O1060 C1004 1.325 . S
O1061 Li1000 1.970 . S
O1061 Li1001 1.956 . S
O1061 Li1003 1.961 . S
O1061 C1010 1.325 . S
O1062 Li1000 1.961 . S
O1062 Li1002 1.956 . S
O1062 Li1003 1.970 . S
O1062 C1032 1.325 . S
O1063 Li1001 1.961 . S
O1063 Li1002 1.970 . S
O1063 Li1003 1.956 . S
O1063 C1038 1.325 . S
H1064 C1006 0.929 . S
H1065 C1007 0.930 . S
H1066 C1008 0.930 . S
H1067 C1009 0.930 . S
H1068 C1011 0.930 . S
H1069 C1013 0.929 . S
H1070 C1014 0.930 . S
H1071 C1015 0.930 . S
H1072 C1018 0.930 . S
H1073 C1021 0.929 . S
H1074 C1026 0.929 . S
H1075 C1027 0.930 . S
H1076 C1034 0.929 . S
H1077 C1035 0.930 . S
H1078 C1036 0.930 . S
H1079 C1037 0.930 . S
H1080 C1039 0.929 . S
H1081 C1040 0.930 . S
H1082 C1041 0.930 . S
H1083 C1042 0.930 . S
H1084 C1046 0.929 . S
H1085 C1048 0.930 . S
H1086 C1054 0.929 . S
H1087 C1055 0.930 . S
Li1088 N1105 1.990 . S
Li1088 O1148 1.956 . S
Li1088 O1149 1.970 1_455 S
Li1088 O1150 1.961 . S
Li1089 N1113 1.997 . S
Li1089 O1148 1.964 1_655 S
Li1089 O1149 1.957 . S
Li1089 O1151 1.955 1_655 S
Li1090 N1135 1.990 . S
Li1090 O1148 1.961 . S
Li1090 O1150 1.956 . S
Li1090 O1151 1.970 . S
Li1091 N1141 1.990 . S
Li1091 O1149 1.961 1_455 S
Li1091 O1150 1.970 . S
Li1091 O1151 1.956 . S
C1092 C1094 1.348 . S
C1092 C1095 1.356 . S
C1092 O1148 1.325 . S
N1093 C1096 1.314 . S
N1093 C1097 1.279 . S
C1094 C1092 1.348 . S
C1094 C1096 1.353 . S
C1094 H1152 0.969 . S
C1095 C1092 1.356 . S
C1095 C1097 1.358 . S
C1095 H1153 0.930 . S
C1096 N1093 1.314 . S
C1096 C1094 1.353 . S
C1096 H1154 0.930 . S
C1097 N1093 1.279 . S
C1097 C1095 1.358 . S
C1097 H1155 0.930 . S
C1098 C1101 1.348 . S
C1098 C1102 1.356 . S
C1098 O1149 1.325 . S
C1099 N1100 1.279 . S
C1099 C1102 1.358 . S
C1099 H1156 0.930 . S
N1100 C1099 1.279 . S
N1100 C1103 1.314 . S
C1101 C1098 1.348 . S
C1101 C1103 1.353 . S
C1101 H1157 0.929 . S
C1102 C1098 1.356 . S
C1102 C1099 1.358 . S
C1102 H1158 0.930 . S
C1103 N1100 1.314 . S
C1103 C1101 1.353 . S
C1103 H1159 0.930 . S
C1104 N1105 1.314 . S
C1104 C1109 1.353 . S
C1104 H1110 0.930 . S
N1105 Li1088 1.990 . S
N1105 C1104 1.314 . S
N1105 C1107 1.279 . S
C1106 C1107 1.358 . S
C1106 C1108 1.356 . S
C1106 H1160 0.930 . S
C1107 N1105 1.279 . S
C1107 C1106 1.358 . S
C1107 H1111 0.930 . S
C1108 C1106 1.356 . S
C1108 C1109 1.348 . S
C1109 C1104 1.353 . S
C1109 C1108 1.348 . S
C1109 H1161 0.929 . S
H1110 C1104 0.930 . S
H1111 C1107 0.930 . S
C1112 N1113 1.314 . S
C1112 C1114 1.353 . S
C1112 H1118 0.930 . S
N1113 Li1089 1.997 . S
N1113 C1112 1.314 . S
N1113 C1116 1.279 . S
C1114 C1112 1.353 . S
C1114 C1117 1.348 . S
C1114 H1162 0.929 . S
C1115 C1116 1.358 . S
C1115 C1117 1.356 . S
C1115 H1163 0.930 . S
C1116 N1113 1.279 . S
C1116 C1115 1.358 . S
C1116 H1119 0.930 . S
C1117 C1114 1.348 . S
C1117 C1115 1.356 . S
H1118 C1112 0.930 . S
H1119 C1116 0.930 . S
C1120 C1122 1.348 . S
C1120 C1123 1.356 . S
C1120 O1150 1.325 . S
N1121 C1124 1.314 . S
N1121 C1125 1.279 . S
C1122 C1120 1.348 . S
C1122 C1124 1.353 . S
C1122 H1164 0.929 . S
C1123 C1120 1.356 . S
C1123 C1125 1.358 . S
C1123 H1165 0.930 . S
C1124 N1121 1.314 . S
C1124 C1122 1.353 . S
C1124 H1166 0.930 . S
C1125 N1121 1.279 . S
C1125 C1123 1.358 . S
C1125 H1167 0.930 . S
C1126 C1127 1.348 . S
C1126 C1128 1.356 1_455 S
C1126 O1151 1.325 . S
C1127 C1126 1.348 . S
C1127 C1129 1.353 . S
C1127 H1168 0.929 . S
C1128 C1126 1.356 1_655 S
C1128 C1130 1.358 . S
C1128 H1169 0.930 . S
C1129 C1127 1.353 . S
C1129 N1131 1.314 . S
C1129 H1170 0.930 . S
C1130 C1128 1.358 . S
C1130 N1131 1.279 1_655 S
C1130 H1171 0.930 . S
N1131 C1129 1.314 . S
N1131 C1130 1.279 1_455 S
C1132 C1134 1.353 . S
C1132 N1135 1.314 . S
C1132 H1138 0.930 . S
C1133 N1135 1.279 . S
C1133 C1136 1.358 . S
C1133 H1139 0.930 . S
C1134 C1132 1.353 . S
C1134 C1137 1.348 . S
C1134 H1172 0.929 . S
N1135 Li1090 1.990 . S
N1135 C1132 1.314 . S
N1135 C1133 1.279 . S
C1136 C1133 1.358 . S
C1136 C1137 1.356 . S
C1136 H1173 0.930 . S
C1137 C1134 1.348 . S
C1137 C1136 1.356 . S
H1138 C1132 0.930 . S
H1139 C1133 0.930 . S
C1140 N1141 1.318 . S
C1140 C1142 1.352 1_455 S
C1140 H1146 0.927 1_455 S
N1141 Li1091 1.990 . S
N1141 C1140 1.318 . S
N1141 C1144 1.279 . S
C1142 C1140 1.352 1_655 S
C1142 C1145 1.362 . S
C1142 H1174 0.929 . S
C1143 C1144 1.358 . S
C1143 C1145 1.346 1_455 S
C1143 H1175 0.930 . S
C1144 N1141 1.279 . S
C1144 C1143 1.358 . S
C1144 H1147 0.930 . S
C1145 C1142 1.362 . S
C1145 C1143 1.346 1_655 S
H1146 C1140 0.927 1_655 S
H1147 C1144 0.930 . S
O1148 Li1088 1.956 . S
O1148 Li1089 1.964 1_455 S
O1148 Li1090 1.961 . S
O1148 C1092 1.325 . S
O1149 Li1088 1.970 1_655 S
O1149 Li1089 1.957 . S
O1149 Li1091 1.961 1_655 S
O1149 C1098 1.325 . S
O1150 Li1088 1.961 . S
O1150 Li1090 1.956 . S
O1150 Li1091 1.970 . S
O1150 C1120 1.325 . S
O1151 Li1089 1.955 1_455 S
O1151 Li1090 1.970 . S
O1151 Li1091 1.956 . S
O1151 C1126 1.325 . S
H1152 C1094 0.969 . S
H1153 C1095 0.930 . S
H1154 C1096 0.930 . S
H1155 C1097 0.930 . S
H1156 C1099 0.930 . S
H1157 C1101 0.929 . S
H1158 C1102 0.930 . S
H1159 C1103 0.930 . S
H1160 C1106 0.930 . S
H1161 C1109 0.929 . S
H1162 C1114 0.929 . S
H1163 C1115 0.930 . S
H1164 C1122 0.929 . S
H1165 C1123 0.930 . S
H1166 C1124 0.930 . S
H1167 C1125 0.930 . S
H1168 C1127 0.929 . S
H1169 C1128 0.930 . S
H1170 C1129 0.930 . S
H1171 C1130 0.930 . S
H1172 C1134 0.929 . S
H1173 C1136 0.930 . S
H1174 C1142 0.929 . S
H1175 C1143 0.930 . S
Li1176 N1193 1.990 . S
Li1176 O1236 1.956 . S
Li1176 O1237 1.970 . S
Li1176 O1238 1.961 . S
Li1177 N1201 1.990 . S
Li1177 O1236 1.970 . S
Li1177 O1237 1.956 . S
Li1177 O1239 1.961 . S
Li1178 N1223 1.990 . S
Li1178 O1236 1.961 . S
Li1178 O1238 1.956 . S
Li1178 O1239 1.970 . S
Li1179 N1229 1.990 . S
Li1179 O1237 1.961 . S
Li1179 O1238 1.970 . S
Li1179 O1239 1.956 . S
C1180 C1182 1.348 . S
C1180 C1183 1.356 . S
C1180 O1236 1.325 . S
N1181 C1184 1.314 . S
N1181 C1185 1.279 . S
C1182 C1180 1.348 . S
C1182 C1184 1.353 . S
C1182 H1240 0.929 . S
C1183 C1180 1.356 . S
C1183 C1185 1.358 . S
C1183 H1241 0.930 . S
C1184 N1181 1.314 . S
C1184 C1182 1.353 . S
C1184 H1242 0.930 . S
C1185 N1181 1.279 . S
C1185 C1183 1.358 . S
C1185 H1243 0.930 . S
C1186 C1189 1.348 . S
C1186 C1190 1.356 . S
C1186 O1237 1.325 . S
C1187 N1188 1.279 . S
C1187 C1190 1.358 . S
C1187 H1244 0.930 . S
N1188 C1187 1.279 . S
N1188 C1191 1.314 . S
C1189 C1186 1.348 . S
C1189 C1191 1.353 . S
C1189 H1245 0.929 . S
C1190 C1186 1.356 . S
C1190 C1187 1.358 . S
C1190 H1246 0.930 . S
C1191 N1188 1.314 . S
C1191 C1189 1.353 . S
C1191 H1247 0.930 . S
C1192 N1193 1.314 . S
C1192 C1197 1.353 . S
C1192 H1198 0.930 . S
N1193 Li1176 1.990 . S
N1193 C1192 1.314 . S
N1193 C1195 1.279 . S
C1194 C1195 1.358 . S
C1194 C1196 1.356 . S
C1194 H1248 0.930 . S
C1195 N1193 1.279 . S
C1195 C1194 1.358 . S
C1195 H1199 0.930 . S
C1196 C1194 1.356 . S
C1196 C1197 1.348 . S
C1197 C1192 1.353 . S
C1197 C1196 1.348 . S
C1197 H1249 0.929 . S
H1198 C1192 0.930 . S
H1199 C1195 0.930 . S
C1200 N1201 1.314 . S
C1200 C1202 1.353 . S
C1200 H1206 0.930 . S
N1201 Li1177 1.990 . S
N1201 C1200 1.314 . S
N1201 C1204 1.279 . S
C1202 C1200 1.353 . S
C1202 C1205 1.348 . S
C1202 H1250 0.929 . S
C1203 C1204 1.358 . S
C1203 C1205 1.356 . S
C1203 H1251 0.930 . S
C1204 N1201 1.279 . S
C1204 C1203 1.358 . S
C1204 H1207 0.930 . S
C1205 C1202 1.348 . S
C1205 C1203 1.356 . S
H1206 C1200 0.930 . S
H1207 C1204 0.930 . S
C1208 C1210 1.348 . S
C1208 C1211 1.356 . S
C1208 O1238 1.325 . S
N1209 C1212 1.314 . S
N1209 C1213 1.279 . S
C1210 C1208 1.348 . S
C1210 C1212 1.353 . S
C1210 H1252 0.929 . S
C1211 C1208 1.356 . S
C1211 C1213 1.358 . S
C1211 H1253 0.930 . S
C1212 N1209 1.314 . S
C1212 C1210 1.353 . S
C1212 H1254 0.930 . S
C1213 N1209 1.279 . S
C1213 C1211 1.358 . S
C1213 H1255 0.930 . S
C1214 C1215 1.348 . S
C1214 C1216 1.356 . S
C1214 O1239 1.325 . S
C1215 C1214 1.348 . S
C1215 C1217 1.353 . S
C1215 H1256 0.929 . S
C1216 C1214 1.356 . S
C1216 C1218 1.358 . S
C1216 H1257 0.930 . S
C1217 C1215 1.353 . S
C1217 N1219 1.314 . S
C1217 H1258 0.930 . S
C1218 C1216 1.358 . S
C1218 N1219 1.279 . S
C1218 H1259 0.930 . S
N1219 C1217 1.314 . S
N1219 C1218 1.279 . S
C1220 C1222 1.353 . S
C1220 N1223 1.314 . S
C1220 H1226 0.930 . S
C1221 N1223 1.279 . S
C1221 C1224 1.358 . S
C1221 H1227 0.930 . S
C1222 C1220 1.353 . S
C1222 C1225 1.348 . S
C1222 H1260 0.929 . S
N1223 Li1178 1.990 . S
N1223 C1220 1.314 . S
N1223 C1221 1.279 . S
C1224 C1221 1.358 . S
C1224 C1225 1.356 . S
C1224 H1261 0.930 . S
C1225 C1222 1.348 . S
C1225 C1224 1.356 . S
H1226 C1220 0.930 . S
H1227 C1221 0.930 . S
C1228 N1229 1.314 . S
C1228 C1230 1.353 . S
C1228 H1234 0.930 . S
N1229 Li1179 1.990 . S
N1229 C1228 1.314 . S
N1229 C1232 1.279 . S
C1230 C1228 1.353 . S
C1230 C1233 1.348 . S
C1230 H1262 0.929 . S
C1231 C1232 1.358 . S
C1231 C1233 1.356 . S
C1231 H1263 0.930 . S
C1232 N1229 1.279 . S
C1232 C1231 1.358 . S
C1232 H1235 0.930 . S
C1233 C1230 1.348 . S
C1233 C1231 1.356 . S
H1234 C1228 0.930 . S
H1235 C1232 0.930 . S
O1236 Li1176 1.956 . S
O1236 Li1177 1.970 . S
O1236 Li1178 1.961 . S
O1236 C1180 1.325 . S
O1237 Li1176 1.970 . S
O1237 Li1177 1.956 . S
O1237 Li1179 1.961 . S
O1237 C1186 1.325 . S
O1238 Li1176 1.961 . S
O1238 Li1178 1.956 . S
O1238 Li1179 1.970 . S
O1238 C1208 1.325 . S
O1239 Li1177 1.961 . S
O1239 Li1178 1.970 . S
O1239 Li1179 1.956 . S
O1239 C1214 1.325 . S
H1240 C1182 0.929 . S
H1241 C1183 0.930 . S
H1242 C1184 0.930 . S
H1243 C1185 0.930 . S
H1244 C1187 0.930 . S
H1245 C1189 0.929 . S
H1246 C1190 0.930 . S
H1247 C1191 0.930 . S
H1248 C1194 0.930 . S
H1249 C1197 0.929 . S
H1250 C1202 0.929 . S
H1251 C1203 0.930 . S
H1252 C1210 0.929 . S
H1253 C1211 0.930 . S
H1254 C1212 0.930 . S
H1255 C1213 0.930 . S
H1256 C1215 0.929 . S
H1257 C1216 0.930 . S
H1258 C1217 0.930 . S
H1259 C1218 0.930 . S
H1260 C1222 0.929 . S
H1261 C1224 0.930 . S
H1262 C1230 0.929 . S
H1263 C1231 0.930 . S
H1264 C1276 0.930 . S
H1265 C1278 0.930 . S
H1266 C1279 0.930 . S
H1267 C1283 0.959 . S
H1268 C1283 0.959 . S
H1269 C1283 0.961 . S
H1270 C1284 0.960 . S
H1271 C1284 0.961 . S
H1272 C1284 0.959 . S
H1273 C1287 0.929 . S
H1274 C1288 0.931 . S
H1275 C1290 0.930 . S
C1276 H1264 0.930 . S
C1276 C1277 1.399 . S
C1276 C1281 1.399 . S
C1277 C1276 1.399 . S
C1277 C1278 1.376 . S
C1278 H1265 0.930 . S
C1278 C1277 1.376 . S
C1278 C1279 1.388 . S
C1279 H1266 0.930 . S
C1279 C1278 1.388 . S
C1279 C1280 1.390 . S
C1280 C1279 1.390 . S
C1280 C1281 1.394 . S
C1280 C1286 1.465 . S
C1281 C1276 1.399 . S
C1281 C1280 1.394 . S
C1281 C1282 1.516 . S
C1282 C1281 1.516 . S
C1282 C1283 1.502 . S
C1282 C1284 1.561 . S
C1282 C1285 1.526 . S
C1283 H1267 0.959 . S
C1283 H1268 0.959 . S
C1283 H1269 0.961 . S
C1283 C1282 1.502 . S
C1284 H1270 0.960 . S
C1284 H1271 0.961 . S
C1284 H1272 0.959 . S
C1284 C1282 1.561 . S
C1285 C1282 1.526 . S
C1285 C1286 1.396 . S
C1285 C1290 1.390 . S
C1286 C1280 1.465 . S
C1286 C1285 1.396 . S
C1286 C1287 1.399 . S
C1287 H1273 0.929 . S
C1287 C1286 1.399 . S
C1287 C1288 1.385 . S
C1288 H1274 0.931 . S
C1288 C1287 1.385 . S
C1288 C1289 1.389 . S
C1289 C1288 1.389 . S
C1289 C1290 1.387 . S
C1290 H1275 0.930 . S
C1290 C1285 1.390 . S
C1290 C1289 1.387 . S
H1291 C1303 0.930 . S
H1292 C1305 0.930 . S
H1293 C1306 0.930 . S
H1294 C1310 0.959 . S
H1295 C1310 0.959 . S
H1296 C1310 0.961 . S
H1297 C1311 0.960 . S
H1298 C1311 0.961 . S
H1299 C1311 0.959 . S
H1300 C1314 0.929 . S
H1301 C1315 0.931 . S
H1302 C1317 0.930 . S
C1303 H1291 0.930 . S
C1303 C1304 1.399 . S
C1303 C1308 1.399 . S
C1304 C1303 1.399 . S
C1304 C1305 1.376 . S
C1305 H1292 0.930 . S
C1305 C1304 1.376 . S
C1305 C1306 1.388 . S
C1306 H1293 0.930 . S
C1306 C1305 1.388 . S
C1306 C1307 1.390 . S
C1307 C1306 1.390 . S
C1307 C1308 1.394 . S
C1307 C1313 1.465 . S
C1308 C1303 1.399 . S
C1308 C1307 1.394 . S
C1308 C1309 1.516 . S
C1309 C1308 1.516 . S
C1309 C1310 1.502 . S
C1309 C1311 1.561 . S
C1309 C1312 1.526 . S
C1310 H1294 0.959 . S
C1310 H1295 0.959 . S
C1310 H1296 0.961 . S
C1310 C1309 1.502 . S
C1311 H1297 0.960 . S
C1311 H1298 0.961 . S
C1311 H1299 0.959 . S
C1311 C1309 1.561 . S
C1312 C1309 1.526 . S
C1312 C1313 1.396 . S
C1312 C1317 1.390 . S
C1313 C1307 1.465 . S
C1313 C1312 1.396 . S
C1313 C1314 1.399 . S
C1314 H1300 0.929 . S
C1314 C1313 1.399 . S
C1314 C1315 1.385 . S
C1315 H1301 0.931 . S
C1315 C1314 1.385 . S
C1315 C1316 1.389 . S
C1316 C1315 1.389 . S
C1316 C1317 1.387 . S
C1317 H1302 0.930 . S
C1317 C1312 1.390 . S
C1317 C1316 1.387 . S
H1318 C1330 0.930 . S
H1319 C1332 0.930 . S
H1320 C1333 0.930 . S
H1321 C1337 0.959 . S
H1322 C1337 0.959 . S
H1323 C1337 0.961 . S
H1324 C1338 0.960 . S
H1325 C1338 0.961 . S
H1326 C1338 0.959 . S
H1327 C1341 0.929 . S
H1328 C1342 0.931 . S
H1329 C1344 0.930 . S
C1330 H1318 0.930 . S
C1330 C1331 1.399 . S
C1330 C1335 1.399 . S
C1331 C1330 1.399 . S
C1331 C1332 1.376 . S
C1332 H1319 0.930 . S
C1332 C1331 1.376 . S
C1332 C1333 1.388 . S
C1333 H1320 0.930 . S
C1333 C1332 1.388 . S
C1333 C1334 1.390 . S
C1334 C1333 1.390 . S
C1334 C1335 1.394 . S
C1334 C1340 1.465 . S
C1335 C1330 1.399 . S
C1335 C1334 1.394 . S
C1335 C1336 1.516 . S
C1336 C1335 1.516 . S
C1336 C1337 1.502 . S
C1336 C1338 1.561 . S
C1336 C1339 1.526 . S
C1337 H1321 0.959 . S
C1337 H1322 0.959 . S
C1337 H1323 0.961 . S
C1337 C1336 1.502 . S
C1338 H1324 0.960 . S
C1338 H1325 0.961 . S
C1338 H1326 0.959 . S
C1338 C1336 1.561 . S
C1339 C1336 1.526 . S
C1339 C1340 1.396 . S
C1339 C1344 1.390 . S
C1340 C1334 1.465 . S
C1340 C1339 1.396 . S
C1340 C1341 1.399 . S
C1341 H1327 0.929 . S
C1341 C1340 1.399 . S
C1341 C1342 1.385 . S
C1342 H1328 0.931 . S
C1342 C1341 1.385 . S
C1342 C1343 1.389 . S
C1343 C1342 1.389 . S
C1343 C1344 1.387 . S
C1344 H1329 0.930 . S
C1344 C1339 1.390 . S
C1344 C1343 1.387 . S
H1345 C1357 0.930 . S
H1346 C1359 0.930 . S
H1347 C1360 0.930 . S
H1348 C1364 0.959 . S
H1349 C1364 0.959 . S
H1350 C1364 0.961 . S
H1351 C1365 0.960 . S
H1352 C1365 0.961 . S
H1353 C1365 0.959 . S
H1354 C1368 0.929 . S
H1355 C1369 0.931 . S
H1356 C1371 0.930 . S
C1357 H1345 0.930 . S
C1357 C1358 1.399 1_645 S
C1357 C1362 1.399 . S
C1358 C1357 1.399 1_465 S
C1358 C1359 1.376 . S
C1359 H1346 0.930 . S
C1359 C1358 1.376 . S
C1359 C1360 1.388 1_455 S
C1360 H1347 0.930 . S
C1360 C1359 1.388 1_655 S
C1360 C1361 1.390 . S
C1361 C1360 1.390 . S
C1361 C1362 1.394 1_565 S
C1361 C1367 1.465 . S
C1362 C1357 1.399 . S
C1362 C1361 1.394 1_545 S
C1362 C1363 1.516 . S
C1363 C1362 1.516 . S
C1363 C1364 1.502 . S
C1363 C1365 1.561 . S
C1363 C1366 1.526 . S
C1364 H1348 0.959 . S
C1364 H1349 0.959 . S
C1364 H1350 0.961 . S
C1364 C1363 1.502 . S
C1365 H1351 0.960 . S
C1365 H1352 0.961 . S
C1365 H1353 0.959 . S
C1365 C1363 1.561 . S
C1366 C1363 1.526 . S
C1366 C1367 1.396 1_545 S
C1366 C1371 1.390 . S
C1367 C1361 1.465 . S
C1367 C1366 1.396 1_565 S
C1367 C1368 1.399 . S
C1368 H1354 0.929 . S
C1368 C1367 1.399 . S
C1368 C1369 1.385 . S
C1369 H1355 0.931 . S
C1369 C1368 1.385 . S
C1369 C1370 1.389 1_565 S
C1370 C1369 1.389 1_545 S
C1370 C1371 1.387 . S
C1371 H1356 0.930 . S
C1371 C1366 1.390 . S
C1371 C1370 1.387 . S
H1372 C1384 0.930 . S
H1373 C1386 0.930 . S
H1374 C1387 0.930 . S
H1375 C1391 0.959 . S
H1376 C1391 0.959 . S
H1377 C1391 0.961 . S
H1378 C1392 0.960 . S
H1379 C1392 0.961 . S
H1380 C1392 0.959 . S
H1381 C1395 0.929 . S
H1382 C1396 0.931 . S
H1383 C1398 0.930 . S
C1384 H1372 0.930 . S
C1384 C1385 1.399 . S
C1384 C1389 1.399 . S
C1385 C1384 1.399 . S
C1385 C1386 1.376 . S
C1386 H1373 0.930 . S
C1386 C1385 1.376 . S
C1386 C1387 1.388 . S
C1387 H1374 0.930 . S
C1387 C1386 1.388 . S
C1387 C1388 1.390 . S
C1388 C1387 1.390 . S
C1388 C1389 1.394 . S
C1388 C1394 1.465 . S
C1389 C1384 1.399 . S
C1389 C1388 1.394 . S
C1389 C1390 1.516 . S
C1390 C1389 1.516 . S
C1390 C1391 1.502 . S
C1390 C1392 1.561 . S
C1390 C1393 1.526 . S
C1391 H1375 0.959 . S
C1391 H1376 0.959 . S
C1391 H1377 0.961 . S
C1391 C1390 1.502 . S
C1392 H1378 0.960 . S
C1392 H1379 0.961 . S
C1392 H1380 0.959 . S
C1392 C1390 1.561 . S
C1393 C1390 1.526 . S
C1393 C1394 1.396 . S
C1393 C1398 1.390 . S
C1394 C1388 1.465 . S
C1394 C1393 1.396 . S
C1394 C1395 1.399 . S
C1395 H1381 0.929 . S
C1395 C1394 1.399 . S
C1395 C1396 1.385 . S
C1396 H1382 0.931 . S
C1396 C1395 1.385 . S
C1396 C1397 1.389 . S
C1397 C1396 1.389 . S
C1397 C1398 1.387 . S
C1398 H1383 0.930 . S
C1398 C1393 1.390 . S
C1398 C1397 1.387 . S
H1399 C1411 0.930 . S
H1400 C1413 0.930 . S
H1401 C1414 0.930 . S
H1402 C1418 0.959 . S
H1403 C1418 0.959 . S
H1404 C1418 0.961 . S
H1405 C1419 0.960 . S
H1406 C1419 0.961 . S
H1407 C1419 0.959 . S
H1408 C1422 0.929 . S
H1409 C1423 0.931 . S
H1410 C1425 0.930 . S
C1411 H1399 0.930 . S
C1411 C1412 1.399 . S
C1411 C1416 1.399 . S
C1412 C1411 1.399 . S
C1412 C1413 1.376 . S
C1413 H1400 0.930 . S
C1413 C1412 1.376 . S
C1413 C1414 1.388 . S
C1414 H1401 0.930 . S
C1414 C1413 1.388 . S
C1414 C1415 1.390 . S
C1415 C1414 1.390 . S
C1415 C1416 1.394 . S
C1415 C1421 1.465 . S
C1416 C1411 1.399 . S
C1416 C1415 1.394 . S
C1416 C1417 1.516 . S
C1417 C1416 1.516 . S
C1417 C1418 1.502 . S
C1417 C1419 1.561 . S
C1417 C1420 1.526 . S
C1418 H1402 0.959 . S
C1418 H1403 0.959 . S
C1418 H1404 0.961 . S
C1418 C1417 1.502 . S
C1419 H1405 0.960 . S
C1419 H1406 0.961 . S
C1419 H1407 0.959 . S
C1419 C1417 1.561 . S
C1420 C1417 1.526 . S
C1420 C1421 1.396 . S
C1420 C1425 1.390 . S
C1421 C1415 1.465 . S
C1421 C1420 1.396 . S
C1421 C1422 1.399 . S
C1422 H1408 0.929 . S
C1422 C1421 1.399 . S
C1422 C1423 1.385 . S
C1423 H1409 0.931 . S
C1423 C1422 1.385 . S
C1423 C1424 1.389 . S
C1424 C1423 1.389 . S
C1424 C1425 1.387 . S
C1425 H1410 0.930 . S
C1425 C1420 1.390 . S
C1425 C1424 1.387 . S
H1426 C1438 0.930 . S
H1427 C1440 0.930 . S
H1428 C1441 0.930 . S
H1429 C1445 0.959 . S
H1430 C1445 0.959 . S
H1431 C1445 0.961 . S
H1432 C1446 0.960 . S
H1433 C1446 0.961 . S
H1434 C1446 0.959 . S
H1435 C1449 0.929 . S
H1436 C1450 0.931 . S
H1437 C1452 0.930 . S
C1438 H1426 0.930 . S
C1438 C1439 1.399 . S
C1438 C1443 1.399 . S
C1439 C1438 1.399 . S
C1439 C1440 1.376 . S
C1440 H1427 0.930 . S
C1440 C1439 1.376 . S
C1440 C1441 1.388 . S
C1441 H1428 0.930 . S
C1441 C1440 1.388 . S
C1441 C1442 1.390 . S
C1442 C1441 1.390 . S
C1442 C1443 1.394 . S
C1442 C1448 1.465 . S
C1443 C1438 1.399 . S
C1443 C1442 1.394 . S
C1443 C1444 1.516 . S
C1444 C1443 1.516 . S
C1444 C1445 1.502 . S
C1444 C1446 1.561 . S
C1444 C1447 1.526 . S
C1445 H1429 0.959 . S
C1445 H1430 0.959 . S
C1445 H1431 0.961 . S
C1445 C1444 1.502 . S
C1446 H1432 0.960 . S
C1446 H1433 0.961 . S
C1446 H1434 0.959 . S
C1446 C1444 1.561 . S
C1447 C1444 1.526 . S
C1447 C1448 1.396 . S
C1447 C1452 1.390 . S
C1448 C1442 1.465 . S
C1448 C1447 1.396 . S
C1448 C1449 1.399 . S
C1449 H1435 0.929 . S
C1449 C1448 1.399 . S
C1449 C1450 1.385 . S
C1450 H1436 0.931 . S
C1450 C1449 1.385 . S
C1450 C1451 1.389 . S
C1451 C1450 1.389 . S
C1451 C1452 1.387 . S
C1452 H1437 0.930 . S
C1452 C1447 1.390 . S
C1452 C1451 1.387 . S
H1453 C1465 0.930 . S
H1454 C1467 0.930 . S
H1455 C1468 0.930 1_545 S
H1456 C1472 0.959 . S
H1457 C1472 0.959 . S
H1458 C1472 0.961 . S
H1459 C1473 0.960 . S
H1460 C1473 0.961 . S
H1461 C1473 0.959 . S
H1462 C1476 0.929 1_545 S
H1463 C1477 0.931 1_545 S
H1464 C1479 0.930 . S
C1465 H1453 0.930 . S
C1465 C1466 1.399 . S
C1465 C1470 1.399 . S
C1466 C1465 1.399 . S
C1466 C1467 1.376 . S
C1467 H1454 0.930 . S
C1467 C1466 1.376 . S
C1467 C1468 1.388 . S
C1468 H1455 0.930 1_565 S
C1468 C1467 1.388 . S
C1468 C1469 1.390 . S
C1469 C1468 1.390 . S
C1469 C1470 1.394 . S
C1469 C1475 1.465 . S
C1470 C1465 1.399 . S
C1470 C1469 1.394 . S
C1470 C1471 1.516 . S
C1471 C1470 1.516 . S
C1471 C1472 1.502 . S
C1471 C1473 1.561 . S
C1471 C1474 1.526 . S
C1472 H1456 0.959 . S
C1472 H1457 0.959 . S
C1472 H1458 0.961 . S
C1472 C1471 1.502 . S
C1473 H1459 0.960 . S
C1473 H1460 0.961 . S
C1473 H1461 0.959 . S
C1473 C1471 1.561 . S
C1474 C1471 1.526 . S
C1474 C1475 1.396 . S
C1474 C1479 1.390 . S
C1475 C1469 1.465 . S
C1475 C1474 1.396 . S
C1475 C1476 1.399 . S
C1476 H1462 0.929 1_565 S
C1476 C1475 1.399 . S
C1476 C1477 1.385 . S
C1477 H1463 0.931 1_565 S
C1477 C1476 1.385 . S
C1477 C1478 1.389 . S
C1478 C1477 1.389 . S
C1478 C1479 1.387 . S
C1479 H1464 0.930 . S
C1479 C1474 1.390 . S
C1479 C1478 1.387 . S
H1480 C1492 0.930 . S
H1481 C1494 0.930 . S
H1482 C1495 0.930 . S
H1483 C1499 0.959 . S
H1484 C1499 0.959 . S
H1485 C1499 0.961 . S
H1486 C1500 0.960 . S
H1487 C1500 0.961 . S
H1488 C1500 0.959 . S
H1489 C1503 0.929 . S
H1490 C1504 0.931 . S
H1491 C1506 0.930 . S
C1492 H1480 0.930 . S
C1492 C1493 1.399 . S
C1492 C1497 1.399 . S
C1493 C1492 1.399 . S
C1493 C1494 1.376 . S
C1494 H1481 0.930 . S
C1494 C1493 1.376 . S
C1494 C1495 1.388 . S
C1495 H1482 0.930 . S
C1495 C1494 1.388 . S
C1495 C1496 1.390 . S
C1496 C1495 1.390 . S
C1496 C1497 1.394 . S
C1496 C1502 1.465 . S
C1497 C1492 1.399 . S
C1497 C1496 1.394 . S
C1497 C1498 1.516 . S
C1498 C1497 1.516 . S
C1498 C1499 1.502 . S
C1498 C1500 1.561 . S
C1498 C1501 1.526 . S
C1499 H1483 0.959 . S
C1499 H1484 0.959 . S
C1499 H1485 0.961 . S
C1499 C1498 1.502 . S
C1500 H1486 0.960 . S
C1500 H1487 0.961 . S
C1500 H1488 0.959 . S
C1500 C1498 1.561 . S
C1501 C1498 1.526 . S
C1501 C1502 1.396 . S
C1501 C1506 1.390 . S
C1502 C1496 1.465 . S
C1502 C1501 1.396 . S
C1502 C1503 1.399 . S
C1503 H1489 0.929 . S
C1503 C1502 1.399 . S
C1503 C1504 1.385 . S
C1504 H1490 0.931 . S
C1504 C1503 1.385 . S
C1504 C1505 1.389 . S
C1505 C1504 1.389 . S
C1505 C1506 1.387 . S
C1506 H1491 0.930 . S
C1506 C1501 1.390 . S
C1506 C1505 1.387 . S
H1507 C1519 0.930 . S
H1508 C1521 0.930 . S
H1509 C1522 0.930 . S
H1510 C1526 0.959 . S
H1511 C1526 0.959 . S
H1512 C1526 0.961 . S
H1513 C1527 0.960 . S
H1514 C1527 0.961 . S
H1515 C1527 0.959 . S
H1516 C1530 0.929 . S
H1517 C1531 0.931 . S
H1518 C1533 0.930 . S
C1519 H1507 0.930 . S
C1519 C1520 1.399 . S
C1519 C1524 1.399 . S
C1520 C1519 1.399 . S
C1520 C1521 1.376 . S
C1521 H1508 0.930 . S
C1521 C1520 1.376 . S
C1521 C1522 1.388 . S
C1522 H1509 0.930 . S
C1522 C1521 1.388 . S
C1522 C1523 1.390 . S
C1523 C1522 1.390 . S
C1523 C1524 1.394 . S
C1523 C1529 1.465 . S
C1524 C1519 1.399 . S
C1524 C1523 1.394 . S
C1524 C1525 1.516 . S
C1525 C1524 1.516 . S
C1525 C1526 1.502 . S
C1525 C1527 1.561 . S
C1525 C1528 1.526 . S
C1526 H1510 0.959 . S
C1526 H1511 0.959 . S
C1526 H1512 0.961 . S
C1526 C1525 1.502 . S
C1527 H1513 0.960 . S
C1527 H1514 0.961 . S
C1527 H1515 0.959 . S
C1527 C1525 1.561 . S
C1528 C1525 1.526 . S
C1528 C1529 1.396 . S
C1528 C1533 1.390 . S
C1529 C1523 1.465 . S
C1529 C1528 1.396 . S
C1529 C1530 1.399 . S
C1530 H1516 0.929 . S
C1530 C1529 1.399 . S
C1530 C1531 1.385 . S
C1531 H1517 0.931 . S
C1531 C1530 1.385 . S
C1531 C1532 1.389 . S
C1532 C1531 1.389 . S
C1532 C1533 1.387 . S
C1533 H1518 0.930 . S
C1533 C1528 1.390 . S
C1533 C1532 1.387 . S
H1534 C1546 0.930 . S
H1535 C1548 0.930 . S
H1536 C1549 0.930 . S
H1537 C1553 0.959 . S
H1538 C1553 0.959 . S
H1539 C1553 0.961 . S
H1540 C1554 0.960 . S
H1541 C1554 0.961 . S
H1542 C1554 0.959 . S
H1543 C1557 0.929 . S
H1544 C1558 0.931 . S
H1545 C1560 0.930 . S
C1546 H1534 0.930 . S
C1546 C1547 1.399 . S
C1546 C1551 1.399 . S
C1547 C1546 1.399 . S
C1547 C1548 1.376 . S
C1548 H1535 0.930 . S
C1548 C1547 1.376 . S
C1548 C1549 1.388 . S
C1549 H1536 0.930 . S
C1549 C1548 1.388 . S
C1549 C1550 1.390 . S
C1550 C1549 1.390 . S
C1550 C1551 1.394 . S
C1550 C1556 1.465 . S
C1551 C1546 1.399 . S
C1551 C1550 1.394 . S
C1551 C1552 1.516 . S
C1552 C1551 1.516 . S
C1552 C1553 1.502 . S
C1552 C1554 1.561 . S
C1552 C1555 1.526 . S
C1553 H1537 0.959 . S
C1553 H1538 0.959 . S
C1553 H1539 0.961 . S
C1553 C1552 1.502 . S
C1554 H1540 0.960 . S
C1554 H1541 0.961 . S
C1554 H1542 0.959 . S
C1554 C1552 1.561 . S
C1555 C1552 1.526 . S
C1555 C1556 1.396 . S
C1555 C1560 1.390 . S
C1556 C1550 1.465 . S
C1556 C1555 1.396 . S
C1556 C1557 1.399 . S
C1557 H1543 0.929 . S
C1557 C1556 1.399 . S
C1557 C1558 1.385 . S
C1558 H1544 0.931 . S
C1558 C1557 1.385 . S
C1558 C1559 1.389 . S
C1559 C1558 1.389 . S
C1559 C1560 1.387 . S
C1560 H1545 0.930 . S
C1560 C1555 1.390 . S
C1560 C1559 1.387 . S
H1561 C1573 0.930 . S
H1562 C1575 0.930 . S
H1563 C1576 0.930 . S
H1564 C1580 0.959 . S
H1565 C1580 0.959 . S
H1566 C1580 0.961 . S
H1567 C1581 0.960 . S
H1568 C1581 0.961 . S
H1569 C1581 0.959 . S
H1570 C1584 0.929 . S
H1571 C1585 0.931 . S
H1572 C1587 0.930 . S
C1573 H1561 0.930 . S
C1573 C1574 1.399 . S
C1573 C1578 1.399 . S
C1574 C1573 1.399 . S
C1574 C1575 1.376 . S
C1575 H1562 0.930 . S
C1575 C1574 1.376 . S
C1575 C1576 1.388 . S
C1576 H1563 0.930 . S
C1576 C1575 1.388 . S
C1576 C1577 1.390 . S
C1577 C1576 1.390 . S
C1577 C1578 1.394 . S
C1577 C1583 1.465 . S
C1578 C1573 1.399 . S
C1578 C1577 1.394 . S
C1578 C1579 1.516 . S
C1579 C1578 1.516 . S
C1579 C1580 1.502 . S
C1579 C1581 1.561 . S
C1579 C1582 1.526 . S
C1580 H1564 0.959 . S
C1580 H1565 0.959 . S
C1580 H1566 0.961 . S
C1580 C1579 1.502 . S
C1581 H1567 0.960 . S
C1581 H1568 0.961 . S
C1581 H1569 0.959 . S
C1581 C1579 1.561 . S
C1582 C1579 1.526 . S
C1582 C1583 1.396 . S
C1582 C1587 1.390 . S
C1583 C1577 1.465 . S
C1583 C1582 1.396 . S
C1583 C1584 1.399 . S
C1584 H1570 0.929 . S
C1584 C1583 1.399 . S
C1584 C1585 1.385 . S
C1585 H1571 0.931 . S
C1585 C1584 1.385 . S
C1585 C1586 1.389 . S
C1586 C1585 1.389 . S
C1586 C1587 1.387 . S
C1587 H1572 0.930 . S
C1587 C1582 1.390 . S
C1587 C1586 1.387 . S
H1588 C1600 0.930 . S
H1589 C1602 0.930 . S
H1590 C1603 0.930 . S
H1591 C1607 0.959 . S
H1592 C1607 0.959 . S
H1593 C1607 0.961 . S
H1594 C1608 0.960 . S
H1595 C1608 0.961 . S
H1596 C1608 0.959 . S
H1597 C1611 0.929 . S
H1598 C1612 0.931 . S
H1599 C1614 0.930 . S
C1600 H1588 0.930 . S
C1600 C1601 1.399 . S
C1600 C1605 1.399 . S
C1601 C1600 1.399 . S
C1601 C1602 1.376 . S
C1602 H1589 0.930 . S
C1602 C1601 1.376 . S
C1602 C1603 1.388 . S
C1603 H1590 0.930 . S
C1603 C1602 1.388 . S
C1603 C1604 1.390 . S
C1604 C1603 1.390 . S
C1604 C1605 1.394 . S
C1604 C1610 1.465 . S
C1605 C1600 1.399 . S
C1605 C1604 1.394 . S
C1605 C1606 1.516 . S
C1606 C1605 1.516 . S
C1606 C1607 1.502 . S
C1606 C1608 1.561 . S
C1606 C1609 1.526 . S
C1607 H1591 0.959 . S
C1607 H1592 0.959 . S
C1607 H1593 0.961 . S
C1607 C1606 1.502 . S
C1608 H1594 0.960 . S
C1608 H1595 0.961 . S
C1608 H1596 0.959 . S
C1608 C1606 1.561 . S
C1609 C1606 1.526 . S
C1609 C1610 1.396 . S
C1609 C1614 1.390 . S
C1610 C1604 1.465 . S
C1610 C1609 1.396 . S
C1610 C1611 1.399 . S
C1611 H1597 0.929 . S
C1611 C1610 1.399 . S
C1611 C1612 1.385 . S
C1612 H1598 0.931 . S
C1612 C1611 1.385 . S
C1612 C1613 1.389 . S
C1613 C1612 1.389 . S
C1613 C1614 1.387 . S
C1614 H1599 0.930 . S
C1614 C1609 1.390 . S
C1614 C1613 1.387 . S
H1615 C1627 0.930 . S
H1616 C1629 0.930 . S
H1617 C1630 0.877 1_655 S
H1618 C1634 0.959 . S
H1619 C1634 0.959 . S
H1620 C1634 0.961 . S
H1621 C1635 0.960 . S
H1622 C1635 0.961 . S
H1623 C1635 0.959 . S
H1624 C1638 0.929 1_655 S
H1625 C1639 0.891 1_655 S
H1626 C1641 0.930 . S
C1627 H1615 0.930 . S
C1627 C1628 1.399 . S
C1627 C1632 1.399 . S
C1628 C1627 1.399 . S
C1628 C1629 1.376 . S
C1629 H1616 0.930 . S
C1629 C1628 1.376 . S
C1629 C1630 1.388 . S
C1630 H1617 0.877 1_455 S
C1630 C1629 1.388 . S
C1630 C1631 1.390 . S
C1631 C1630 1.390 . S
C1631 C1632 1.394 . S
C1631 C1637 1.465 . S
C1632 C1627 1.399 . S
C1632 C1631 1.394 . S
C1632 C1633 1.516 . S
C1633 C1632 1.516 . S
C1633 C1634 1.502 . S
C1633 C1635 1.561 . S
C1633 C1636 1.526 . S
C1634 H1618 0.959 . S
C1634 H1619 0.959 . S
C1634 H1620 0.961 . S
C1634 C1633 1.502 . S
C1635 H1621 0.960 . S
C1635 H1622 0.961 . S
C1635 H1623 0.959 . S
C1635 C1633 1.561 . S
C1636 C1633 1.526 . S
C1636 C1637 1.396 . S
C1636 C1641 1.390 . S
C1637 C1631 1.465 . S
C1637 C1636 1.396 . S
C1637 C1638 1.399 . S
C1638 H1624 0.929 1_455 S
C1638 C1637 1.399 . S
C1638 C1639 1.385 . S
C1639 H1625 0.891 1_455 S
C1639 C1638 1.385 . S
C1639 C1640 1.389 . S
C1640 C1639 1.389 . S
C1640 C1641 1.387 . S
C1641 H1626 0.930 . S
C1641 C1636 1.390 . S
C1641 C1640 1.387 . S
H1642 C1654 0.930 . S
H1643 C1656 0.930 . S
H1644 C1657 0.930 . S
H1645 C1661 0.959 . S
H1646 C1661 0.959 . S
H1647 C1661 0.961 . S
H1648 C1662 0.960 . S
H1649 C1662 0.961 . S
H1650 C1662 0.959 . S
H1651 C1665 0.929 . S
H1652 C1666 0.931 . S
H1653 C1668 0.930 . S
C1654 H1642 0.930 . S
C1654 C1655 1.399 . S
C1654 C1659 1.399 . S
C1655 C1654 1.399 . S
C1655 C1656 1.376 . S
C1656 H1643 0.930 . S
C1656 C1655 1.376 . S
C1656 C1657 1.388 . S
C1657 H1644 0.930 . S
C1657 C1656 1.388 . S
C1657 C1658 1.390 . S
C1658 C1657 1.390 . S
C1658 C1659 1.394 . S
C1658 C1664 1.465 . S
C1659 C1654 1.399 . S
C1659 C1658 1.394 . S
C1659 C1660 1.516 . S
C1660 C1659 1.516 . S
C1660 C1661 1.502 . S
C1660 C1662 1.561 . S
C1660 C1663 1.526 . S
C1661 H1645 0.959 . S
C1661 H1646 0.959 . S
C1661 H1647 0.961 . S
C1661 C1660 1.502 . S
C1662 H1648 0.960 . S
C1662 H1649 0.961 . S
C1662 H1650 0.959 . S
C1662 C1660 1.561 . S
C1663 C1660 1.526 . S
C1663 C1664 1.396 . S
C1663 C1668 1.390 . S
C1664 C1658 1.465 . S
C1664 C1663 1.396 . S
C1664 C1665 1.399 . S
C1665 H1651 0.929 . S
C1665 C1664 1.399 . S
C1665 C1666 1.385 . S
C1666 H1652 0.931 . S
C1666 C1665 1.385 . S
C1666 C1667 1.389 . S
C1667 C1666 1.389 . S
C1667 C1668 1.387 . S
C1668 H1653 0.930 . S
C1668 C1663 1.390 . S
C1668 C1667 1.387 . S
H1669 C1681 0.930 . S
H1670 C1683 0.927 1_455 S
H1671 C1684 0.941 . S
H1672 C1688 0.959 . S
H1673 C1688 0.959 . S
H1674 C1688 0.961 . S
H1675 C1689 0.960 . S
H1676 C1689 0.961 . S
H1677 C1689 0.959 . S
H1678 C1692 0.929 . S
H1679 C1693 0.931 . S
H1680 C1695 0.930 . S
C1681 H1669 0.930 . S
C1681 C1682 1.399 . S
C1681 C1686 1.399 . S
C1682 C1681 1.399 . S
C1682 C1683 1.376 . S
C1683 H1670 0.927 1_655 S
C1683 C1682 1.376 . S
C1683 C1684 1.388 1_655 S
C1684 H1671 0.941 . S
C1684 C1683 1.388 1_455 S
C1684 C1685 1.381 1_455 S
C1685 C1684 1.381 1_655 S
C1685 C1686 1.394 . S
C1685 C1691 1.465 . S
C1686 C1681 1.399 . S
C1686 C1685 1.394 . S
C1686 C1687 1.516 . S
C1687 C1686 1.516 . S
C1687 C1688 1.502 . S
C1687 C1689 1.561 1_655 S
C1687 C1690 1.526 . S
C1688 H1672 0.959 . S
C1688 H1673 0.959 . S
C1688 H1674 0.961 . S
C1688 C1687 1.502 . S
C1689 H1675 0.960 . S
C1689 H1676 0.961 . S
C1689 H1677 0.959 . S
C1689 C1687 1.561 1_455 S
C1690 C1687 1.526 . S
C1690 C1691 1.396 . S
C1690 C1695 1.390 . S
C1691 C1685 1.465 . S
C1691 C1690 1.396 . S
C1691 C1692 1.399 1_655 S
C1692 H1678 0.929 . S
C1692 C1691 1.399 1_455 S
C1692 C1693 1.385 . S
C1693 H1679 0.931 . S
C1693 C1692 1.385 . S
C1693 C1694 1.389 1_455 S
C1694 C1693 1.389 1_655 S
C1694 C1695 1.387 . S
C1695 H1680 0.930 . S
C1695 C1690 1.390 . S
C1695 C1694 1.387 . S
H1696 C1708 0.930 . S
H1697 C1710 0.930 . S
H1698 C1711 0.930 . S
H1699 C1715 0.959 . S
H1700 C1715 0.959 . S
H1701 C1715 0.961 . S
H1702 C1716 0.960 . S
H1703 C1716 0.961 . S
H1704 C1716 0.959 . S
H1705 C1719 0.929 . S
H1706 C1720 0.931 . S
H1707 C1722 0.930 . S
C1708 H1696 0.930 . S
C1708 C1709 1.399 . S
C1708 C1713 1.399 . S
C1709 C1708 1.399 . S
C1709 C1710 1.376 . S
C1710 H1697 0.930 . S
C1710 C1709 1.376 . S
C1710 C1711 1.388 . S
C1711 H1698 0.930 . S
C1711 C1710 1.388 . S
C1711 C1712 1.390 . S
C1712 C1711 1.390 . S
C1712 C1713 1.394 . S
C1712 C1718 1.465 . S
C1713 C1708 1.399 . S
C1713 C1712 1.394 . S
C1713 C1714 1.516 . S
C1714 C1713 1.516 . S
C1714 C1715 1.502 . S
C1714 C1716 1.561 . S
C1714 C1717 1.526 . S
C1715 H1699 0.959 . S
C1715 H1700 0.959 . S
C1715 H1701 0.961 . S
C1715 C1714 1.502 . S
C1716 H1702 0.960 . S
C1716 H1703 0.961 . S
C1716 H1704 0.959 . S
C1716 C1714 1.561 . S
C1717 C1714 1.526 . S
C1717 C1718 1.396 . S
C1717 C1722 1.390 . S
C1718 C1712 1.465 . S
C1718 C1717 1.396 . S
C1718 C1719 1.399 . S
C1719 H1705 0.929 . S
C1719 C1718 1.399 . S
C1719 C1720 1.385 . S
C1720 H1706 0.931 . S
C1720 C1719 1.385 . S
C1720 C1721 1.389 . S
C1721 C1720 1.389 . S
C1721 C1722 1.387 . S
C1722 H1707 0.930 . S
C1722 C1717 1.390 . S
C1722 C1721 1.387 . S
H1723 C1735 0.930 . S
H1724 C1737 0.930 . S
H1725 C1738 0.930 . S
H1726 C1742 0.959 . S
H1727 C1742 0.959 . S
H1728 C1742 0.961 . S
H1729 C1743 0.960 . S
H1730 C1743 0.961 . S
H1731 C1743 0.959 . S
H1732 C1746 0.929 . S
H1733 C1747 0.931 . S
H1734 C1749 0.930 . S
C1735 H1723 0.930 . S
C1735 C1736 1.399 . S
C1735 C1740 1.399 . S
C1736 C1735 1.399 . S
C1736 C1737 1.376 . S
C1737 H1724 0.930 . S
C1737 C1736 1.376 . S
C1737 C1738 1.388 . S
C1738 H1725 0.930 . S
C1738 C1737 1.388 . S
C1738 C1739 1.390 . S
C1739 C1738 1.390 . S
C1739 C1740 1.394 . S
C1739 C1745 1.465 . S
C1740 C1735 1.399 . S
C1740 C1739 1.394 . S
C1740 C1741 1.516 . S
C1741 C1740 1.516 . S
C1741 C1742 1.502 . S
C1741 C1743 1.561 . S
C1741 C1744 1.526 . S
C1742 H1726 0.959 . S
C1742 H1727 0.959 . S
C1742 H1728 0.961 . S
C1742 C1741 1.502 . S
C1743 H1729 0.960 . S
C1743 H1730 0.961 . S
C1743 H1731 0.959 . S
C1743 C1741 1.561 . S
C1744 C1741 1.526 . S
C1744 C1745 1.396 . S
C1744 C1749 1.390 . S
C1745 C1739 1.465 . S
C1745 C1744 1.396 . S
C1745 C1746 1.399 . S
C1746 H1732 0.929 . S
C1746 C1745 1.399 . S
C1746 C1747 1.385 . S
C1747 H1733 0.931 . S
C1747 C1746 1.385 . S
C1747 C1748 1.389 . S
C1748 C1747 1.389 . S
C1748 C1749 1.387 . S
C1749 H1734 0.930 . S
C1749 C1744 1.390 . S
C1749 C1748 1.387 . S
H1750 C1762 0.930 . S
H1751 C1764 0.930 . S
H1752 C1765 0.930 . S
H1753 C1769 0.959 . S
H1754 C1769 0.959 . S
H1755 C1769 0.961 . S
H1756 C1770 0.961 . S
H1757 C1770 0.959 1_565 S
H1758 C1770 0.961 . S
H1759 C1773 0.963 . S
H1760 C1774 0.931 . S
H1761 C1776 0.930 . S
C1762 H1750 0.930 . S
C1762 C1763 1.370 1_554 S
C1762 C1767 1.399 . S
C1763 C1762 1.370 1_556 S
C1763 C1764 1.417 . S
C1764 H1751 0.930 . S
C1764 C1763 1.417 . S
C1764 C1765 1.388 . S
C1765 H1752 0.930 . S
C1765 C1764 1.388 . S
C1765 C1766 1.390 . S
C1766 C1765 1.390 . S
C1766 C1767 1.394 1_556 S
C1766 C1772 1.469 . S
C1767 C1762 1.399 . S
C1767 C1766 1.394 1_554 S
C1767 C1768 1.516 1_545 S
C1768 C1767 1.516 1_565 S
C1768 C1769 1.502 . S
C1768 C1770 1.560 1_565 S
C1768 C1771 1.526 . S
C1769 H1753 0.959 . S
C1769 H1754 0.959 . S
C1769 H1755 0.961 . S
C1769 C1768 1.502 . S
C1770 H1756 0.961 . S
C1770 H1757 0.959 1_545 S
C1770 H1758 0.961 . S
C1770 C1768 1.560 1_545 S
C1771 C1768 1.526 . S
C1771 C1772 1.391 1_564 S
C1771 C1776 1.390 . S
C1772 C1766 1.469 . S
C1772 C1771 1.391 1_546 S
C1772 C1773 1.396 . S
C1773 H1759 0.963 . S
C1773 C1772 1.396 . S
C1773 C1774 1.357 1_545 S
C1774 H1760 0.931 . S
C1774 C1773 1.357 1_565 S
C1774 C1775 1.389 . S
C1775 C1774 1.389 . S
C1775 C1776 1.387 1_556 S
C1776 H1761 0.930 . S
C1776 C1771 1.390 . S
C1776 C1775 1.387 1_554 S
H1777 C1789 0.930 . S
H1778 C1791 0.930 . S
H1779 C1792 0.930 . S
H1780 C1796 0.959 . S
H1781 C1796 0.959 . S
H1782 C1796 0.961 . S
H1783 C1797 0.960 . S
H1784 C1797 0.961 . S
H1785 C1797 0.959 . S
H1786 C1800 0.929 . S
H1787 C1801 0.931 . S
H1788 C1803 0.930 . S
C1789 H1777 0.930 . S
C1789 C1790 1.399 . S
C1789 C1794 1.399 . S
C1790 C1789 1.399 . S
C1790 C1791 1.376 . S
C1791 H1778 0.930 . S
C1791 C1790 1.376 . S
C1791 C1792 1.388 . S
C1792 H1779 0.930 . S
C1792 C1791 1.388 . S
C1792 C1793 1.390 . S
C1793 C1792 1.390 . S
C1793 C1794 1.394 . S
C1793 C1799 1.465 . S
C1794 C1789 1.399 . S
C1794 C1793 1.394 . S
C1794 C1795 1.516 . S
C1795 C1794 1.516 . S
C1795 C1796 1.502 . S
C1795 C1797 1.561 . S
C1795 C1798 1.526 . S
C1796 H1780 0.959 . S
C1796 H1781 0.959 . S
C1796 H1782 0.961 . S
C1796 C1795 1.502 . S
C1797 H1783 0.960 . S
C1797 H1784 0.961 . S
C1797 H1785 0.959 . S
C1797 C1795 1.561 . S
C1798 C1795 1.526 . S
C1798 C1799 1.396 . S
C1798 C1803 1.390 . S
C1799 C1793 1.465 . S
C1799 C1798 1.396 . S
C1799 C1800 1.399 . S
C1800 H1786 0.929 . S
C1800 C1799 1.399 . S
C1800 C1801 1.385 . S
C1801 H1787 0.931 . S
C1801 C1800 1.385 . S
C1801 C1802 1.389 . S
C1802 C1801 1.389 . S
C1802 C1803 1.387 . S
C1803 H1788 0.930 . S
C1803 C1798 1.390 . S
C1803 C1802 1.387 . S
H1804 C1816 0.930 . S
H1805 C1818 0.930 . S
H1806 C1819 0.930 . S
H1807 C1823 0.959 . S
H1808 C1823 0.959 . S
H1809 C1823 0.961 . S
H1810 C1824 0.960 . S
H1811 C1824 0.961 . S
H1812 C1824 0.959 . S
H1813 C1827 0.929 . S
H1814 C1828 0.931 . S
H1815 C1830 0.930 . S
C1816 H1804 0.930 . S
C1816 C1817 1.399 . S
C1816 C1821 1.399 . S
C1817 C1816 1.399 . S
C1817 C1818 1.376 1_545 S
C1818 H1805 0.930 . S
C1818 C1817 1.376 1_565 S
C1818 C1819 1.388 . S
C1819 H1806 0.930 . S
C1819 C1818 1.388 . S
C1819 C1820 1.390 1_565 S
C1820 C1819 1.390 1_545 S
C1820 C1821 1.394 . S
C1820 C1826 1.465 . S
C1821 C1816 1.399 . S
C1821 C1820 1.394 . S
C1821 C1822 1.516 . S
C1822 C1821 1.516 . S
C1822 C1823 1.502 . S
C1822 C1824 1.561 . S
C1822 C1825 1.526 . S
C1823 H1807 0.959 . S
C1823 H1808 0.959 . S
C1823 H1809 0.961 . S
C1823 C1822 1.502 . S
C1824 H1810 0.960 . S
C1824 H1811 0.961 . S
C1824 H1812 0.959 . S
C1824 C1822 1.561 . S
C1825 C1822 1.526 . S
C1825 C1826 1.396 . S
C1825 C1830 1.390 . S
C1826 C1820 1.465 . S
C1826 C1825 1.396 . S
C1826 C1827 1.399 . S
C1827 H1813 0.929 . S
C1827 C1826 1.399 . S
C1827 C1828 1.385 . S
C1828 H1814 0.931 . S
C1828 C1827 1.385 . S
C1828 C1829 1.389 . S
C1829 C1828 1.389 . S
C1829 C1830 1.387 . S
C1830 H1815 0.930 . S
C1830 C1825 1.390 . S
C1830 C1829 1.387 . S
H1831 C1843 0.930 . S
H1832 C1845 0.930 . S
H1833 C1846 0.930 . S
H1834 C1850 0.959 . S
H1835 C1850 0.959 . S
H1836 C1850 0.961 . S
H1837 C1851 0.960 . S
H1838 C1851 0.961 . S
H1839 C1851 0.959 . S
H1840 C1854 0.929 . S
H1841 C1855 0.931 . S
H1842 C1857 0.930 . S
C1843 H1831 0.930 . S
C1843 C1844 1.399 . S
C1843 C1848 1.399 . S
C1844 C1843 1.399 . S
C1844 C1845 1.376 . S
C1845 H1832 0.930 . S
C1845 C1844 1.376 . S
C1845 C1846 1.388 . S
C1846 H1833 0.930 . S
C1846 C1845 1.388 . S
C1846 C1847 1.390 . S
C1847 C1846 1.390 . S
C1847 C1848 1.394 . S
C1847 C1853 1.465 . S
C1848 C1843 1.399 . S
C1848 C1847 1.394 . S
C1848 C1849 1.516 . S
C1849 C1848 1.516 . S
C1849 C1850 1.502 . S
C1849 C1851 1.561 . S
C1849 C1852 1.526 . S
C1850 H1834 0.959 . S
C1850 H1835 0.959 . S
C1850 H1836 0.961 . S
C1850 C1849 1.502 . S
C1851 H1837 0.960 . S
C1851 H1838 0.961 . S
C1851 H1839 0.959 . S
C1851 C1849 1.561 . S
C1852 C1849 1.526 . S
C1852 C1853 1.396 . S
C1852 C1857 1.390 . S
C1853 C1847 1.465 . S
C1853 C1852 1.396 . S
C1853 C1854 1.399 . S
C1854 H1840 0.929 . S
C1854 C1853 1.399 . S
C1854 C1855 1.385 . S
C1855 H1841 0.931 . S
C1855 C1854 1.385 . S
C1855 C1856 1.389 . S
C1856 C1855 1.389 . S
C1856 C1857 1.387 . S
C1857 H1842 0.930 . S
C1857 C1852 1.390 . S
C1857 C1856 1.387 . S
H1858 C1870 0.930 . S
H1859 C1872 0.930 . S
H1860 C1873 0.930 . S
H1861 C1877 0.959 . S
H1862 C1877 0.959 . S
H1863 C1877 0.961 . S
H1864 C1878 0.960 . S
H1865 C1878 0.961 . S
H1866 C1878 0.959 . S
H1867 C1881 0.977 . S
H1868 C1882 0.931 . S
H1869 C1884 0.930 . S
C1870 H1858 0.930 . S
C1870 C1871 1.399 1_545 S
C1870 C1875 1.399 . S
C1871 C1870 1.399 1_565 S
C1871 C1872 1.376 . S
C1872 H1859 0.930 . S
C1872 C1871 1.376 . S
C1872 C1873 1.388 . S
C1873 H1860 0.930 . S
C1873 C1872 1.388 . S
C1873 C1874 1.390 1_565 S
C1874 C1873 1.390 1_545 S
C1874 C1875 1.394 . S
C1874 C1880 1.465 . S
C1875 C1870 1.399 . S
C1875 C1874 1.394 . S
C1875 C1876 1.516 . S
C1876 C1875 1.516 . S
C1876 C1877 1.502 . S
C1876 C1878 1.561 . S
C1876 C1879 1.526 . S
C1877 H1861 0.959 . S
C1877 H1862 0.959 . S
C1877 H1863 0.961 . S
C1877 C1876 1.502 . S
C1878 H1864 0.960 . S
C1878 H1865 0.961 . S
C1878 H1866 0.959 . S
C1878 C1876 1.561 . S
C1879 C1876 1.526 . S
C1879 C1880 1.396 . S
C1879 C1884 1.390 . S
C1880 C1874 1.465 . S
C1880 C1879 1.396 . S
C1880 C1881 1.399 . S
C1881 H1867 0.977 . S
C1881 C1880 1.399 . S
C1881 C1882 1.385 . S
C1882 H1868 0.931 . S
C1882 C1881 1.385 . S
C1882 C1883 1.389 . S
C1883 C1882 1.389 . S
C1883 C1884 1.387 . S
C1884 H1869 0.930 . S
C1884 C1879 1.390 . S
C1884 C1883 1.387 . S
H1885 C1897 0.930 . S
H1886 C1899 0.930 . S
H1887 C1900 0.930 . S
H1888 C1904 0.959 . S
H1889 C1904 0.959 . S
H1890 C1904 0.961 . S
H1891 C1905 0.960 . S
H1892 C1905 0.961 . S
H1893 C1905 0.959 . S
H1894 C1908 0.929 . S
H1895 C1909 0.931 . S
H1896 C1911 0.930 . S
C1897 H1885 0.930 . S
C1897 C1898 1.399 . S
C1897 C1902 1.399 . S
C1898 C1897 1.399 . S
C1898 C1899 1.376 . S
C1899 H1886 0.930 . S
C1899 C1898 1.376 . S
C1899 C1900 1.388 . S
C1900 H1887 0.930 . S
C1900 C1899 1.388 . S
C1900 C1901 1.390 . S
C1901 C1900 1.390 . S
C1901 C1902 1.394 . S
C1901 C1907 1.465 . S
C1902 C1897 1.399 . S
C1902 C1901 1.394 . S
C1902 C1903 1.516 . S
C1903 C1902 1.516 . S
C1903 C1904 1.502 . S
C1903 C1905 1.561 . S
C1903 C1906 1.526 . S
C1904 H1888 0.959 . S
C1904 H1889 0.959 . S
C1904 H1890 0.961 . S
C1904 C1903 1.502 . S
C1905 H1891 0.960 . S
C1905 H1892 0.961 . S
C1905 H1893 0.959 . S
C1905 C1903 1.561 . S
C1906 C1903 1.526 . S
C1906 C1907 1.396 . S
C1906 C1911 1.390 . S
C1907 C1901 1.465 . S
C1907 C1906 1.396 . S
C1907 C1908 1.399 . S
C1908 H1894 0.929 . S
C1908 C1907 1.399 . S
C1908 C1909 1.385 . S
C1909 H1895 0.931 . S
C1909 C1908 1.385 . S
C1909 C1910 1.389 . S
C1910 C1909 1.389 . S
C1910 C1911 1.387 . S
C1911 H1896 0.930 . S
C1911 C1906 1.390 . S
C1911 C1910 1.387 . S
H1912 C1924 0.930 . S
H1913 C1926 0.930 . S
H1914 C1927 0.930 . S
H1915 C1931 0.959 . S
H1916 C1931 0.959 . S
H1917 C1931 0.961 . S
H1918 C1932 0.960 . S
H1919 C1932 0.961 . S
H1920 C1932 0.959 . S
H1921 C1935 0.929 . S
H1922 C1936 0.931 . S
H1923 C1938 0.930 . S
C1924 H1912 0.930 . S
C1924 C1925 1.399 . S
C1924 C1929 1.399 . S
C1925 C1924 1.399 . S
C1925 C1926 1.376 . S
C1926 H1913 0.930 . S
C1926 C1925 1.376 . S
C1926 C1927 1.388 . S
C1927 H1914 0.930 . S
C1927 C1926 1.388 . S
C1927 C1928 1.390 . S
C1928 C1927 1.390 . S
C1928 C1929 1.394 . S
C1928 C1934 1.465 . S
C1929 C1924 1.399 . S
C1929 C1928 1.394 . S
C1929 C1930 1.516 . S
C1930 C1929 1.516 . S
C1930 C1931 1.502 . S
C1930 C1932 1.561 . S
C1930 C1933 1.526 . S
C1931 H1915 0.959 . S
C1931 H1916 0.959 . S
C1931 H1917 0.961 . S
C1931 C1930 1.502 . S
C1932 H1918 0.960 . S
C1932 H1919 0.961 . S
C1932 H1920 0.959 . S
C1932 C1930 1.561 . S
C1933 C1930 1.526 . S
C1933 C1934 1.396 . S
C1933 C1938 1.390 . S
C1934 C1928 1.465 . S
C1934 C1933 1.396 . S
C1934 C1935 1.399 . S
C1935 H1921 0.929 . S
C1935 C1934 1.399 . S
C1935 C1936 1.385 . S
C1936 H1922 0.931 . S
C1936 C1935 1.385 . S
C1936 C1937 1.389 . S
C1937 C1936 1.389 . S
C1937 C1938 1.387 . S
C1938 H1923 0.930 . S
C1938 C1933 1.390 . S
C1938 C1937 1.387 . S
H1939 C1951 0.930 . S
H1940 C1953 0.930 . S
H1941 C1954 0.930 1_565 S
H1942 C1958 0.959 . S
H1943 C1958 0.959 . S
H1944 C1958 0.961 . S
H1945 C1959 0.960 . S
H1946 C1959 0.961 . S
H1947 C1959 0.959 . S
H1948 C1962 0.929 . S
H1949 C1963 0.931 . S
H1950 C1965 0.930 . S
C1951 H1939 0.930 . S
C1951 C1952 1.399 . S
C1951 C1956 1.399 . S
C1952 C1951 1.399 . S
C1952 C1953 1.376 . S
C1953 H1940 0.930 . S
C1953 C1952 1.376 . S
C1953 C1954 1.388 . S
C1954 H1941 0.930 1_545 S
C1954 C1953 1.388 . S
C1954 C1955 1.390 . S
C1955 C1954 1.390 . S
C1955 C1956 1.394 . S
C1955 C1961 1.465 . S
C1956 C1951 1.399 . S
C1956 C1955 1.394 . S
C1956 C1957 1.516 . S
C1957 C1956 1.516 . S
C1957 C1958 1.502 . S
C1957 C1959 1.561 . S
C1957 C1960 1.526 . S
C1958 H1942 0.959 . S
C1958 H1943 0.959 . S
C1958 H1944 0.961 . S
C1958 C1957 1.502 . S
C1959 H1945 0.960 . S
C1959 H1946 0.961 . S
C1959 H1947 0.959 . S
C1959 C1957 1.561 . S
C1960 C1957 1.526 . S
C1960 C1961 1.396 . S
C1960 C1965 1.390 . S
C1961 C1955 1.465 . S
C1961 C1960 1.396 . S
C1961 C1962 1.399 1_545 S
C1962 H1948 0.929 . S
C1962 C1961 1.399 1_565 S
C1962 C1963 1.385 . S
C1963 H1949 0.931 . S
C1963 C1962 1.385 . S
C1963 C1964 1.389 1_565 S
C1964 C1963 1.389 1_545 S
C1964 C1965 1.387 . S
C1965 H1950 0.930 . S
C1965 C1960 1.390 . S
C1965 C1964 1.387 . S
H1966 C1978 0.930 . S
H1967 C1980 0.930 . S
H1968 C1981 0.930 . S
H1969 C1985 0.959 . S
H1970 C1985 0.959 . S
H1971 C1985 0.961 . S
H1972 C1986 0.960 . S
H1973 C1986 0.961 . S
H1974 C1986 0.959 . S
H1975 C1989 0.929 . S
H1976 C1990 0.931 . S
H1977 C1992 0.930 . S
C1978 H1966 0.930 . S
C1978 C1979 1.399 . S
C1978 C1983 1.399 . S
C1979 C1978 1.399 . S
C1979 C1980 1.376 . S
C1980 H1967 0.930 . S
C1980 C1979 1.376 . S
C1980 C1981 1.388 . S
C1981 H1968 0.930 . S
C1981 C1980 1.388 . S
C1981 C1982 1.390 . S
C1982 C1981 1.390 . S
C1982 C1983 1.394 . S
C1982 C1988 1.465 . S
C1983 C1978 1.399 . S
C1983 C1982 1.394 . S
C1983 C1984 1.516 . S
C1984 C1983 1.516 . S
C1984 C1985 1.502 . S
C1984 C1986 1.561 . S
C1984 C1987 1.526 . S
C1985 H1969 0.959 . S
C1985 H1970 0.959 . S
C1985 H1971 0.961 . S
C1985 C1984 1.502 . S
C1986 H1972 0.960 . S
C1986 H1973 0.961 . S
C1986 H1974 0.959 . S
C1986 C1984 1.561 . S
C1987 C1984 1.526 . S
C1987 C1988 1.396 . S
C1987 C1992 1.390 . S
C1988 C1982 1.465 . S
C1988 C1987 1.396 . S
C1988 C1989 1.399 . S
C1989 H1975 0.929 . S
C1989 C1988 1.399 . S
C1989 C1990 1.385 . S
C1990 H1976 0.931 . S
C1990 C1989 1.385 . S
C1990 C1991 1.389 . S
C1991 C1990 1.389 . S
C1991 C1992 1.387 . S
C1992 H1977 0.930 . S
C1992 C1987 1.390 . S
C1992 C1991 1.387 . S
H1993 C2005 0.930 . S
H1994 C2007 0.930 . S
H1995 C2008 0.930 . S
H1996 C2012 0.959 . S
H1997 C2012 0.959 . S
H1998 C2012 0.961 . S
H1999 C2013 0.960 . S
H2000 C2013 0.961 . S
H2001 C2013 0.959 . S
H2002 C2016 0.929 . S
H2003 C2017 0.931 . S
H2004 C2019 0.930 . S
C2005 H1993 0.930 . S
C2005 C2006 1.399 . S
C2005 C2010 1.399 . S
C2006 C2005 1.399 . S
C2006 C2007 1.376 . S
C2007 H1994 0.930 . S
C2007 C2006 1.376 . S
C2007 C2008 1.388 . S
C2008 H1995 0.930 . S
C2008 C2007 1.388 . S
C2008 C2009 1.390 . S
C2009 C2008 1.390 . S
C2009 C2010 1.394 . S
C2009 C2015 1.465 . S
C2010 C2005 1.399 . S
C2010 C2009 1.394 . S
C2010 C2011 1.516 . S
C2011 C2010 1.516 . S
C2011 C2012 1.502 . S
C2011 C2013 1.561 . S
C2011 C2014 1.526 . S
C2012 H1996 0.959 . S
C2012 H1997 0.959 . S
C2012 H1998 0.961 . S
C2012 C2011 1.502 . S
C2013 H1999 0.960 . S
C2013 H2000 0.961 . S
C2013 H2001 0.959 . S
C2013 C2011 1.561 . S
C2014 C2011 1.526 . S
C2014 C2015 1.396 . S
C2014 C2019 1.390 . S
C2015 C2009 1.465 . S
C2015 C2014 1.396 . S
C2015 C2016 1.399 . S
C2016 H2002 0.929 . S
C2016 C2015 1.399 . S
C2016 C2017 1.385 . S
C2017 H2003 0.931 . S
C2017 C2016 1.385 . S
C2017 C2018 1.389 . S
C2018 C2017 1.389 . S
C2018 C2019 1.387 . S
C2019 H2004 0.930 . S
C2019 C2014 1.390 . S
C2019 C2018 1.387 . S
H2020 C2032 0.930 . S
H2021 C2034 0.930 . S
H2022 C2035 0.930 . S
H2023 C2039 0.959 . S
H2024 C2039 0.959 . S
H2025 C2039 0.961 . S
H2026 C2040 0.960 . S
H2027 C2040 0.961 . S
H2028 C2040 0.959 . S
H2029 C2043 0.929 . S
H2030 C2044 0.931 . S
H2031 C2046 0.930 . S
C2032 H2020 0.930 . S
C2032 C2033 1.399 . S
C2032 C2037 1.399 . S
C2033 C2032 1.399 . S
C2033 C2034 1.376 . S
C2034 H2021 0.930 . S
C2034 C2033 1.376 . S
C2034 C2035 1.388 . S
C2035 H2022 0.930 . S
C2035 C2034 1.388 . S
C2035 C2036 1.390 . S
C2036 C2035 1.390 . S
C2036 C2037 1.394 . S
C2036 C2042 1.465 . S
C2037 C2032 1.399 . S
C2037 C2036 1.394 . S
C2037 C2038 1.516 . S
C2038 C2037 1.516 . S
C2038 C2039 1.502 . S
C2038 C2040 1.561 . S
C2038 C2041 1.526 . S
C2039 H2023 0.959 . S
C2039 H2024 0.959 . S
C2039 H2025 0.961 . S
C2039 C2038 1.502 . S
C2040 H2026 0.960 . S
C2040 H2027 0.961 . S
C2040 H2028 0.959 . S
C2040 C2038 1.561 . S
C2041 C2038 1.526 . S
C2041 C2042 1.396 . S
C2041 C2046 1.390 . S
C2042 C2036 1.465 . S
C2042 C2041 1.396 . S
C2042 C2043 1.399 . S
C2043 H2029 0.929 . S
C2043 C2042 1.399 . S
C2043 C2044 1.385 . S
C2044 H2030 0.931 . S
C2044 C2043 1.385 . S
C2044 C2045 1.389 . S
C2045 C2044 1.389 . S
C2045 C2046 1.387 . S
C2046 H2031 0.930 . S
C2046 C2041 1.390 . S
C2046 C2045 1.387 . S
H2047 C2059 0.930 1_455 S
H2048 C2061 0.930 . S
H2049 C2062 0.930 1_565 S
H2050 C2066 0.945 1_455 S
H2051 C2066 0.971 . S
H2052 C2066 0.932 1_455 S
H2053 C2067 0.960 . S
H2054 C2067 0.961 . S
H2055 C2067 0.959 . S
H2056 C2070 0.929 1_565 S
H2057 C2071 0.931 . S
H2058 C2073 0.930 . S
C2059 H2047 0.930 1_655 S
C2059 C2060 1.399 . S
C2059 C2064 1.399 . S
C2060 C2059 1.399 . S
C2060 C2061 1.376 . S
C2061 H2048 0.930 . S
C2061 C2060 1.376 . S
C2061 C2062 1.388 . S
C2062 H2049 0.930 1_545 S
C2062 C2061 1.388 . S
C2062 C2063 1.390 . S
C2063 C2062 1.390 . S
C2063 C2064 1.394 . S
C2063 C2069 1.465 . S
C2064 C2059 1.399 . S
C2064 C2063 1.394 . S
C2064 C2065 1.516 . S
C2065 C2064 1.516 . S
C2065 C2066 1.535 . S
C2065 C2067 1.561 . S
C2065 C2068 1.526 . S
C2066 H2050 0.945 1_655 S
C2066 H2051 0.971 . S
C2066 H2052 0.932 1_655 S
C2066 C2065 1.535 . S
C2067 H2053 0.960 . S
C2067 H2054 0.961 . S
C2067 H2055 0.959 . S
C2067 C2065 1.561 . S
C2068 C2065 1.526 . S
C2068 C2069 1.396 . S
C2068 C2073 1.390 . S
C2069 C2063 1.465 . S
C2069 C2068 1.396 . S
C2069 C2070 1.399 . S
C2070 H2056 0.929 1_545 S
C2070 C2069 1.399 . S
C2070 C2071 1.385 . S
C2071 H2057 0.931 . S
C2071 C2070 1.385 . S
C2071 C2072 1.389 . S
C2072 C2071 1.389 . S
C2072 C2073 1.387 . S
C2073 H2058 0.930 . S
C2073 C2068 1.390 . S
C2073 C2072 1.387 . S
H2074 C2086 0.930 . S
H2075 C2088 0.930 . S
H2076 C2089 0.930 . S
H2077 C2093 0.959 . S
H2078 C2093 0.959 . S
H2079 C2093 0.961 . S
H2080 C2094 0.960 . S
H2081 C2094 0.961 . S
H2082 C2094 0.959 . S
H2083 C2097 0.929 . S
H2084 C2098 0.931 . S
H2085 C2100 0.930 . S
C2086 H2074 0.930 . S
C2086 C2087 1.399 . S
C2086 C2091 1.399 . S
C2087 C2086 1.399 . S
C2087 C2088 1.376 . S
C2088 H2075 0.930 . S
C2088 C2087 1.376 . S
C2088 C2089 1.388 . S
C2089 H2076 0.930 . S
C2089 C2088 1.388 . S
C2089 C2090 1.390 . S
C2090 C2089 1.390 . S
C2090 C2091 1.394 . S
C2090 C2096 1.465 . S
C2091 C2086 1.399 . S
C2091 C2090 1.394 . S
C2091 C2092 1.516 . S
C2092 C2091 1.516 . S
C2092 C2093 1.502 . S
C2092 C2094 1.561 . S
C2092 C2095 1.526 . S
C2093 H2077 0.959 . S
C2093 H2078 0.959 . S
C2093 H2079 0.961 . S
C2093 C2092 1.502 . S
C2094 H2080 0.960 . S
C2094 H2081 0.961 . S
C2094 H2082 0.959 . S
C2094 C2092 1.561 . S
C2095 C2092 1.526 . S
C2095 C2096 1.396 . S
C2095 C2100 1.390 . S
C2096 C2090 1.465 . S
C2096 C2095 1.396 . S
C2096 C2097 1.399 . S
C2097 H2083 0.929 . S
C2097 C2096 1.399 . S
C2097 C2098 1.385 . S
C2098 H2084 0.931 . S
C2098 C2097 1.385 . S
C2098 C2099 1.389 . S
C2099 C2098 1.389 . S
C2099 C2100 1.387 . S
C2100 H2085 0.930 . S
C2100 C2095 1.390 . S
C2100 C2099 1.387 . S
H2101 C2113 0.930 . S
H2102 C2115 0.930 . S
H2103 C2116 0.930 . S
H2104 C2120 0.959 . S
H2105 C2120 0.959 . S
H2106 C2120 0.961 . S
H2107 C2121 0.960 1_655 S
H2108 C2121 0.961 . S
H2109 C2121 0.959 . S
H2110 C2124 0.929 . S
H2111 C2125 0.931 . S
H2112 C2127 0.930 . S
C2113 H2101 0.930 . S
C2113 C2114 1.399 . S
C2113 C2118 1.399 . S
C2114 C2113 1.399 . S
C2114 C2115 1.376 . S
C2115 H2102 0.930 . S
C2115 C2114 1.376 . S
C2115 C2116 1.388 . S
C2116 H2103 0.930 . S
C2116 C2115 1.388 . S
C2116 C2117 1.390 . S
C2117 C2116 1.390 . S
C2117 C2118 1.394 . S
C2117 C2123 1.465 . S
C2118 C2113 1.399 . S
C2118 C2117 1.394 . S
C2118 C2119 1.516 . S
C2119 C2118 1.516 . S
C2119 C2120 1.502 . S
C2119 C2121 1.561 . S
C2119 C2122 1.526 . S
C2120 H2104 0.959 . S
C2120 H2105 0.959 . S
C2120 H2106 0.961 . S
C2120 C2119 1.502 . S
C2121 H2107 0.960 1_455 S
C2121 H2108 0.961 . S
C2121 H2109 0.959 . S
C2121 C2119 1.561 . S
C2122 C2119 1.526 . S
C2122 C2123 1.396 . S
C2122 C2127 1.390 . S
C2123 C2117 1.465 . S
C2123 C2122 1.396 . S
C2123 C2124 1.399 . S
C2124 H2110 0.929 . S
C2124 C2123 1.399 . S
C2124 C2125 1.385 . S
C2125 H2111 0.931 . S
C2125 C2124 1.385 . S
C2125 C2126 1.389 . S
C2126 C2125 1.389 . S
C2126 C2127 1.387 . S
C2127 H2112 0.930 . S
C2127 C2122 1.390 . S
C2127 C2126 1.387 . S
H2128 C2140 0.930 . S
H2129 C2142 0.930 . S
H2130 C2143 0.930 . S
H2131 C2147 0.959 . S
H2132 C2147 0.959 . S
H2133 C2147 0.961 . S
H2134 C2148 0.960 . S
H2135 C2148 0.961 . S
H2136 C2148 0.959 . S
H2137 C2151 0.929 . S
H2138 C2152 0.931 . S
H2139 C2154 0.930 . S
C2140 H2128 0.930 . S
C2140 C2141 1.399 . S
C2140 C2145 1.399 . S
C2141 C2140 1.399 . S
C2141 C2142 1.376 . S
C2142 H2129 0.930 . S
C2142 C2141 1.376 . S
C2142 C2143 1.388 . S
C2143 H2130 0.930 . S
C2143 C2142 1.388 . S
C2143 C2144 1.390 . S
C2144 C2143 1.390 . S
C2144 C2145 1.394 . S
C2144 C2150 1.465 . S
C2145 C2140 1.399 . S
C2145 C2144 1.394 . S
C2145 C2146 1.516 . S
C2146 C2145 1.516 . S
C2146 C2147 1.502 . S
C2146 C2148 1.561 . S
C2146 C2149 1.526 . S
C2147 H2131 0.959 . S
C2147 H2132 0.959 . S
C2147 H2133 0.961 . S
C2147 C2146 1.502 . S
C2148 H2134 0.960 . S
C2148 H2135 0.961 . S
C2148 H2136 0.959 . S
C2148 C2146 1.561 . S
C2149 C2146 1.526 . S
C2149 C2150 1.396 . S
C2149 C2154 1.390 . S
C2150 C2144 1.465 . S
C2150 C2149 1.396 . S
C2150 C2151 1.399 . S
C2151 H2137 0.929 . S
C2151 C2150 1.399 . S
C2151 C2152 1.385 . S
C2152 H2138 0.931 . S
C2152 C2151 1.385 . S
C2152 C2153 1.389 . S
C2153 C2152 1.389 . S
C2153 C2154 1.387 . S
C2154 H2139 0.930 . S
C2154 C2149 1.390 . S
C2154 C2153 1.387 . S
H2155 C2167 0.930 . S
H2156 C2169 0.930 1_455 S
H2157 C2170 0.930 . S
H2158 C2174 0.959 . S
H2159 C2174 0.959 . S
H2160 C2174 0.961 . S
H2161 C2175 0.960 . S
H2162 C2175 0.961 . S
H2163 C2175 0.916 1_455 S
H2164 C2178 0.929 1_554 S
H2165 C2179 0.931 . S
H2166 C2181 0.930 . S
C2167 H2155 0.930 . S
C2167 C2168 1.399 . S
C2167 C2172 1.399 1_554 S
C2168 C2167 1.399 . S
C2168 C2169 1.376 . S
C2169 H2156 0.930 1_655 S
C2169 C2168 1.376 . S
C2169 C2170 1.388 1_655 S
C2170 H2157 0.930 . S
C2170 C2169 1.388 1_455 S
C2170 C2171 1.390 1_455 S
C2171 C2170 1.390 1_655 S
C2171 C2172 1.394 1_554 S
C2171 C2177 1.465 1_554 S
C2172 C2167 1.399 1_556 S
C2172 C2171 1.394 1_556 S
C2172 C2173 1.516 . S
C2173 C2172 1.516 . S
C2173 C2174 1.502 . S
C2173 C2175 1.561 . S
C2173 C2176 1.526 . S
C2174 H2158 0.959 . S
C2174 H2159 0.959 . S
C2174 H2160 0.961 . S
C2174 C2173 1.502 . S
C2175 H2161 0.960 . S
C2175 H2162 0.961 . S
C2175 H2163 0.916 1_655 S
C2175 C2173 1.561 . S
C2176 C2173 1.526 . S
C2176 C2177 1.396 . S
C2176 C2181 1.390 . S
C2177 C2171 1.465 1_556 S
C2177 C2176 1.396 . S
C2177 C2178 1.399 1_655 S
C2178 H2164 0.929 1_556 S
C2178 C2177 1.399 1_455 S
C2178 C2179 1.385 . S
C2179 H2165 0.931 . S
C2179 C2178 1.385 . S
C2179 C2180 1.389 1_455 S
C2180 C2179 1.389 1_655 S
C2180 C2181 1.387 . S
C2181 H2166 0.930 . S
C2181 C2176 1.390 . S
C2181 C2180 1.387 . S
H2182 C2194 0.930 . S
H2183 C2196 0.930 . S
H2184 C2197 0.930 . S
H2185 C2201 0.959 . S
H2186 C2201 0.959 . S
H2187 C2201 0.961 . S
H2188 C2202 0.960 . S
H2189 C2202 0.961 . S
H2190 C2202 0.959 . S
H2191 C2205 0.929 . S
H2192 C2206 0.931 . S
H2193 C2208 0.930 . S
C2194 H2182 0.930 . S
C2194 C2195 1.399 . S
C2194 C2199 1.399 . S
C2195 C2194 1.399 . S
C2195 C2196 1.376 . S
C2196 H2183 0.930 . S
C2196 C2195 1.376 . S
C2196 C2197 1.388 . S
C2197 H2184 0.930 . S
C2197 C2196 1.388 . S
C2197 C2198 1.390 . S
C2198 C2197 1.390 . S
C2198 C2199 1.394 . S
C2198 C2204 1.465 . S
C2199 C2194 1.399 . S
C2199 C2198 1.394 . S
C2199 C2200 1.516 . S
C2200 C2199 1.516 . S
C2200 C2201 1.502 . S
C2200 C2202 1.561 . S
C2200 C2203 1.526 . S
C2201 H2185 0.959 . S
C2201 H2186 0.959 . S
C2201 H2187 0.961 . S
C2201 C2200 1.502 . S
C2202 H2188 0.960 . S
C2202 H2189 0.961 . S
C2202 H2190 0.959 . S
C2202 C2200 1.561 . S
C2203 C2200 1.526 . S
C2203 C2204 1.396 . S
C2203 C2208 1.390 . S
C2204 C2198 1.465 . S
C2204 C2203 1.396 . S
C2204 C2205 1.399 . S
C2205 H2191 0.929 . S
C2205 C2204 1.399 . S
C2205 C2206 1.385 . S
C2206 H2192 0.931 . S
C2206 C2205 1.385 . S
C2206 C2207 1.389 . S
C2207 C2206 1.389 . S
C2207 C2208 1.387 . S
C2208 H2193 0.930 . S
C2208 C2203 1.390 . S
C2208 C2207 1.387 . S
H2209 C2221 0.930 . S
H2210 C2223 0.930 . S
H2211 C2224 0.930 . S
H2212 C2228 0.959 1_655 S
H2213 C2228 0.959 . S
H2214 C2228 0.961 . S
H2215 C2229 0.960 . S
H2216 C2229 0.961 . S
H2217 C2229 0.959 1_556 S
H2218 C2232 0.927 1_655 S
H2219 C2233 0.946 . S
H2220 C2235 0.930 . S
C2221 H2209 0.930 . S
C2221 C2222 1.399 . S
C2221 C2226 1.394 1_554 S
C2222 C2221 1.399 . S
C2222 C2223 1.376 1_554 S
C2223 H2210 0.930 . S
C2223 C2222 1.376 1_556 S
C2223 C2224 1.388 . S
C2224 H2211 0.930 . S
C2224 C2223 1.388 . S
C2224 C2225 1.390 . S
C2225 C2224 1.390 . S
C2225 C2226 1.401 . S
C2225 C2231 1.465 . S
C2226 C2221 1.394 1_556 S
C2226 C2225 1.401 . S
C2226 C2227 1.515 1_556 S
C2227 C2226 1.515 1_554 S
C2227 C2228 1.502 . S
C2227 C2229 1.561 . S
C2227 C2230 1.526 1_554 S
C2228 H2212 0.959 1_455 S
C2228 H2213 0.959 . S
C2228 H2214 0.961 . S
C2228 C2227 1.502 . S
C2229 H2215 0.960 . S
C2229 H2216 0.961 . S
C2229 H2217 0.959 1_554 S
C2229 C2227 1.561 . S
C2230 C2227 1.526 1_556 S
C2230 C2231 1.396 . S
C2230 C2235 1.390 . S
C2231 C2225 1.465 . S
C2231 C2230 1.396 . S
C2231 C2232 1.410 . S
C2232 H2218 0.927 1_455 S
C2232 C2231 1.410 . S
C2232 C2233 1.371 1_455 S
C2233 H2219 0.946 . S
C2233 C2232 1.371 1_655 S
C2233 C2234 1.385 1_655 S
C2234 C2233 1.385 1_455 S
C2234 C2235 1.387 . S
C2235 H2220 0.930 . S
C2235 C2230 1.390 . S
C2235 C2234 1.387 . S
H2236 C2248 0.930 . S
H2237 C2250 0.930 . S
H2238 C2251 0.930 . S
H2239 C2255 0.959 . S
H2240 C2255 0.959 . S
H2241 C2255 0.961 . S
H2242 C2256 0.960 . S
H2243 C2256 0.961 . S
H2244 C2256 0.959 . S
H2245 C2259 0.929 . S
H2246 C2260 0.931 . S
H2247 C2262 0.930 . S
C2248 H2236 0.930 . S
C2248 C2249 1.399 . S
C2248 C2253 1.399 . S
C2249 C2248 1.399 . S
C2249 C2250 1.376 . S
C2250 H2237 0.930 . S
C2250 C2249 1.376 . S
C2250 C2251 1.388 . S
C2251 H2238 0.930 . S
C2251 C2250 1.388 . S
C2251 C2252 1.390 . S
C2252 C2251 1.390 . S
C2252 C2253 1.394 . S
C2252 C2258 1.465 . S
C2253 C2248 1.399 . S
C2253 C2252 1.394 . S
C2253 C2254 1.516 . S
C2254 C2253 1.516 . S
C2254 C2255 1.502 . S
C2254 C2256 1.561 . S
C2254 C2257 1.526 . S
C2255 H2239 0.959 . S
C2255 H2240 0.959 . S
C2255 H2241 0.961 . S
C2255 C2254 1.502 . S
C2256 H2242 0.960 . S
C2256 H2243 0.961 . S
C2256 H2244 0.959 . S
C2256 C2254 1.561 . S
C2257 C2254 1.526 . S
C2257 C2258 1.396 . S
C2257 C2262 1.390 . S
C2258 C2252 1.465 . S
C2258 C2257 1.396 . S
C2258 C2259 1.399 . S
C2259 H2245 0.929 . S
C2259 C2258 1.399 . S
C2259 C2260 1.385 . S
C2260 H2246 0.931 . S
C2260 C2259 1.385 . S
C2260 C2261 1.389 . S
C2261 C2260 1.389 . S
C2261 C2262 1.387 . S
C2262 H2247 0.930 . S
C2262 C2257 1.390 . S
C2262 C2261 1.387 . S
H2263 C2275 0.930 1_556 S
H2264 C2277 0.930 . S
H2265 C2278 0.930 . S
H2266 C2282 0.959 . S
H2267 C2282 0.959 . S
H2268 C2282 0.961 . S
H2269 C2283 0.960 1_556 S
H2270 C2283 0.961 . S
H2271 C2283 0.959 . S
H2272 C2286 0.929 . S
H2273 C2287 0.931 . S
H2274 C2289 0.930 . S
C2275 H2263 0.930 1_554 S
C2275 C2276 1.399 . S
C2275 C2280 1.399 . S
C2276 C2275 1.399 . S
C2276 C2277 1.376 . S
C2277 H2264 0.930 . S
C2277 C2276 1.376 . S
C2277 C2278 1.388 . S
C2278 H2265 0.930 . S
C2278 C2277 1.388 . S
C2278 C2279 1.390 . S
C2279 C2278 1.390 . S
C2279 C2280 1.394 . S
C2279 C2285 1.465 . S
C2280 C2275 1.399 . S
C2280 C2279 1.394 . S
C2280 C2281 1.516 . S
C2281 C2280 1.516 . S
C2281 C2282 1.502 . S
C2281 C2283 1.561 . S
C2281 C2284 1.526 . S
C2282 H2266 0.959 . S
C2282 H2267 0.959 . S
C2282 H2268 0.961 . S
C2282 C2281 1.502 . S
C2283 H2269 0.960 1_554 S
C2283 H2270 0.961 . S
C2283 H2271 0.959 . S
C2283 C2281 1.561 . S
C2284 C2281 1.526 . S
C2284 C2285 1.396 . S
C2284 C2289 1.390 . S
C2285 C2279 1.465 . S
C2285 C2284 1.396 . S
C2285 C2286 1.399 . S
C2286 H2272 0.929 . S
C2286 C2285 1.399 . S
C2286 C2287 1.385 . S
C2287 H2273 0.931 . S
C2287 C2286 1.385 . S
C2287 C2288 1.389 . S
C2288 C2287 1.389 . S
C2288 C2289 1.387 . S
C2289 H2274 0.930 . S
C2289 C2284 1.390 . S
C2289 C2288 1.387 . S
H2290 C2302 0.930 . S
H2291 C2304 0.930 . S
H2292 C2305 0.930 . S
H2293 C2309 0.959 . S
H2294 C2309 0.959 . S
H2295 C2309 0.961 . S
H2296 C2310 0.960 . S
H2297 C2310 0.961 . S
H2298 C2310 0.959 . S
H2299 C2313 0.929 . S
H2300 C2314 0.931 . S
H2301 C2316 0.930 . S
C2302 H2290 0.930 . S
C2302 C2303 1.399 . S
C2302 C2307 1.399 . S
C2303 C2302 1.399 . S
C2303 C2304 1.376 . S
C2304 H2291 0.930 . S
C2304 C2303 1.376 . S
C2304 C2305 1.388 . S
C2305 H2292 0.930 . S
C2305 C2304 1.388 . S
C2305 C2306 1.390 . S
C2306 C2305 1.390 . S
C2306 C2307 1.394 . S
C2306 C2312 1.465 . S
C2307 C2302 1.399 . S
C2307 C2306 1.394 . S
C2307 C2308 1.516 . S
C2308 C2307 1.516 . S
C2308 C2309 1.502 . S
C2308 C2310 1.561 . S
C2308 C2311 1.526 . S
C2309 H2293 0.959 . S
C2309 H2294 0.959 . S
C2309 H2295 0.961 . S
C2309 C2308 1.502 . S
C2310 H2296 0.960 . S
C2310 H2297 0.961 . S
C2310 H2298 0.959 . S
C2310 C2308 1.561 . S
C2311 C2308 1.526 . S
C2311 C2312 1.396 . S
C2311 C2316 1.390 . S
C2312 C2306 1.465 . S
C2312 C2311 1.396 . S
C2312 C2313 1.399 . S
C2313 H2299 0.929 . S
C2313 C2312 1.399 . S
C2313 C2314 1.385 . S
C2314 H2300 0.931 . S
C2314 C2313 1.385 . S
C2314 C2315 1.389 . S
C2315 C2314 1.389 . S
C2315 C2316 1.387 . S
C2316 H2301 0.930 . S
C2316 C2311 1.390 . S
C2316 C2315 1.387 . S
H2317 C2329 0.930 . S
H2318 C2331 0.930 . S
H2319 C2332 0.930 . S
H2320 C2336 0.959 . S
H2321 C2336 0.959 . S
H2322 C2336 0.961 . S
H2323 C2337 0.960 . S
H2324 C2337 0.961 . S
H2325 C2337 0.959 . S
H2326 C2340 0.929 . S
H2327 C2341 0.931 . S
H2328 C2343 0.930 . S
C2329 H2317 0.930 . S
C2329 C2330 1.399 . S
C2329 C2334 1.399 . S
C2330 C2329 1.399 . S
C2330 C2331 1.376 . S
C2331 H2318 0.930 . S
C2331 C2330 1.376 . S
C2331 C2332 1.388 . S
C2332 H2319 0.930 . S
C2332 C2331 1.388 . S
C2332 C2333 1.390 . S
C2333 C2332 1.390 . S
C2333 C2334 1.394 . S
C2333 C2339 1.465 . S
C2334 C2329 1.399 . S
C2334 C2333 1.394 . S
C2334 C2335 1.516 . S
C2335 C2334 1.516 . S
C2335 C2336 1.502 . S
C2335 C2337 1.561 . S
C2335 C2338 1.526 . S
C2336 H2320 0.959 . S
C2336 H2321 0.959 . S
C2336 H2322 0.961 . S
C2336 C2335 1.502 . S
C2337 H2323 0.960 . S
C2337 H2324 0.961 . S
C2337 H2325 0.959 . S
C2337 C2335 1.561 . S
C2338 C2335 1.526 . S
C2338 C2339 1.396 . S
C2338 C2343 1.390 . S
C2339 C2333 1.465 . S
C2339 C2338 1.396 . S
C2339 C2340 1.399 . S
C2340 H2326 0.929 . S
C2340 C2339 1.399 . S
C2340 C2341 1.385 . S
C2341 H2327 0.931 . S
C2341 C2340 1.385 . S
C2341 C2342 1.389 . S
C2342 C2341 1.389 . S
C2342 C2343 1.387 . S
C2343 H2328 0.930 . S
C2343 C2338 1.390 . S
C2343 C2342 1.387 . S
H2344 C2356 0.930 . S
H2345 C2358 0.930 . S
H2346 C2359 0.930 . S
H2347 C2363 0.959 . S
H2348 C2363 0.959 . S
H2349 C2363 0.961 . S
H2350 C2364 0.960 . S
H2351 C2364 0.961 . S
H2352 C2364 0.959 . S
H2353 C2367 0.929 . S
H2354 C2368 0.931 . S
H2355 C2370 0.930 . S
C2356 H2344 0.930 . S
C2356 C2357 1.399 . S
C2356 C2361 1.399 . S
C2357 C2356 1.399 . S
C2357 C2358 1.376 . S
C2358 H2345 0.930 . S
C2358 C2357 1.376 . S
C2358 C2359 1.388 . S
C2359 H2346 0.930 . S
C2359 C2358 1.388 . S
C2359 C2360 1.390 . S
C2360 C2359 1.390 . S
C2360 C2361 1.394 . S
C2360 C2366 1.465 . S
C2361 C2356 1.399 . S
C2361 C2360 1.394 . S
C2361 C2362 1.516 . S
C2362 C2361 1.516 . S
C2362 C2363 1.502 . S
C2362 C2364 1.561 . S
C2362 C2365 1.526 . S
C2363 H2347 0.959 . S
C2363 H2348 0.959 . S
C2363 H2349 0.961 . S
C2363 C2362 1.502 . S
C2364 H2350 0.960 . S
C2364 H2351 0.961 . S
C2364 H2352 0.959 . S
C2364 C2362 1.561 . S
C2365 C2362 1.526 . S
C2365 C2366 1.396 . S
C2365 C2370 1.390 . S
C2366 C2360 1.465 . S
C2366 C2365 1.396 . S
C2366 C2367 1.399 . S
C2367 H2353 0.929 . S
C2367 C2366 1.399 . S
C2367 C2368 1.385 . S
C2368 H2354 0.931 . S
C2368 C2367 1.385 . S
C2368 C2369 1.389 . S
C2369 C2368 1.389 . S
C2369 C2370 1.387 . S
C2370 H2355 0.930 . S
C2370 C2365 1.390 . S
C2370 C2369 1.387 . S
H2371 C2383 0.930 . S
H2372 C2385 0.930 . S
H2373 C2386 0.930 . S
H2374 C2390 0.959 . S
H2375 C2390 0.959 . S
H2376 C2390 0.961 . S
H2377 C2391 0.960 . S
H2378 C2391 0.961 . S
H2379 C2391 0.959 . S
H2380 C2394 0.929 . S
H2381 C2395 0.931 . S
H2382 C2397 0.930 . S
C2383 H2371 0.930 . S
C2383 C2384 1.399 . S
C2383 C2388 1.399 . S
C2384 C2383 1.399 . S
C2384 C2385 1.376 . S
C2385 H2372 0.930 . S
C2385 C2384 1.376 . S
C2385 C2386 1.388 . S
C2386 H2373 0.930 . S
C2386 C2385 1.388 . S
C2386 C2387 1.390 . S
C2387 C2386 1.390 . S
C2387 C2388 1.394 . S
C2387 C2393 1.465 . S
C2388 C2383 1.399 . S
C2388 C2387 1.394 . S
C2388 C2389 1.516 . S
C2389 C2388 1.516 . S
C2389 C2390 1.502 . S
C2389 C2391 1.561 . S
C2389 C2392 1.526 . S
C2390 H2374 0.959 . S
C2390 H2375 0.959 . S
C2390 H2376 0.961 . S
C2390 C2389 1.502 . S
C2391 H2377 0.960 . S
C2391 H2378 0.961 . S
C2391 H2379 0.959 . S
C2391 C2389 1.561 . S
C2392 C2389 1.526 . S
C2392 C2393 1.396 . S
C2392 C2397 1.390 . S
C2393 C2387 1.465 . S
C2393 C2392 1.396 . S
C2393 C2394 1.399 . S
C2394 H2380 0.929 . S
C2394 C2393 1.399 . S
C2394 C2395 1.385 . S
C2395 H2381 0.931 . S
C2395 C2394 1.385 . S
C2395 C2396 1.389 . S
C2396 C2395 1.389 . S
C2396 C2397 1.387 . S
C2397 H2382 0.930 . S
C2397 C2392 1.390 . S
C2397 C2396 1.387 . S
H2398 C2410 0.930 . S
H2399 C2412 0.930 . S
H2400 C2413 0.930 . S
H2401 C2417 0.959 . S
H2402 C2417 0.959 . S
H2403 C2417 0.961 . S
H2404 C2418 0.960 . S
H2405 C2418 0.961 . S
H2406 C2418 0.959 . S
H2407 C2421 0.929 . S
H2408 C2422 0.931 . S
H2409 C2424 0.930 . S
C2410 H2398 0.930 . S
C2410 C2411 1.399 . S
C2410 C2415 1.399 . S
C2411 C2410 1.399 . S
C2411 C2412 1.376 . S
C2412 H2399 0.930 . S
C2412 C2411 1.376 . S
C2412 C2413 1.388 . S
C2413 H2400 0.930 . S
C2413 C2412 1.388 . S
C2413 C2414 1.390 . S
C2414 C2413 1.390 . S
C2414 C2415 1.394 . S
C2414 C2420 1.465 . S
C2415 C2410 1.399 . S
C2415 C2414 1.394 . S
C2415 C2416 1.516 . S
C2416 C2415 1.516 . S
C2416 C2417 1.502 . S
C2416 C2418 1.561 . S
C2416 C2419 1.526 . S
C2417 H2401 0.959 . S
C2417 H2402 0.959 . S
C2417 H2403 0.961 . S
C2417 C2416 1.502 . S
C2418 H2404 0.960 . S
C2418 H2405 0.961 . S
C2418 H2406 0.959 . S
C2418 C2416 1.561 . S
C2419 C2416 1.526 . S
C2419 C2420 1.396 . S
C2419 C2424 1.390 . S
C2420 C2414 1.465 . S
C2420 C2419 1.396 . S
C2420 C2421 1.399 . S
C2421 H2407 0.929 . S
C2421 C2420 1.399 . S
C2421 C2422 1.385 . S
C2422 H2408 0.931 . S
C2422 C2421 1.385 . S
C2422 C2423 1.389 . S
C2423 C2422 1.389 . S
C2423 C2424 1.387 . S
C2424 H2409 0.930 . S
C2424 C2419 1.390 . S
C2424 C2423 1.387 . S
H2425 C2437 0.930 . S
H2426 C2439 0.930 . S
H2427 C2440 0.930 . S
H2428 C2444 0.959 . S
H2429 C2444 0.959 . S
H2430 C2444 0.961 . S
H2431 C2445 0.960 . S
H2432 C2445 0.961 . S
H2433 C2445 0.959 . S
H2434 C2448 0.929 . S
H2435 C2449 0.931 . S
H2436 C2451 0.930 . S
C2437 H2425 0.930 . S
C2437 C2438 1.399 . S
C2437 C2442 1.399 . S
C2438 C2437 1.399 . S
C2438 C2439 1.376 . S
C2439 H2426 0.930 . S
C2439 C2438 1.376 . S
C2439 C2440 1.388 . S
C2440 H2427 0.930 . S
C2440 C2439 1.388 . S
C2440 C2441 1.390 . S
C2441 C2440 1.390 . S
C2441 C2442 1.394 . S
C2441 C2447 1.465 . S
C2442 C2437 1.399 . S
C2442 C2441 1.394 . S
C2442 C2443 1.516 . S
C2443 C2442 1.516 . S
C2443 C2444 1.502 . S
C2443 C2445 1.561 . S
C2443 C2446 1.526 . S
C2444 H2428 0.959 . S
C2444 H2429 0.959 . S
C2444 H2430 0.961 . S
C2444 C2443 1.502 . S
C2445 H2431 0.960 . S
C2445 H2432 0.961 . S
C2445 H2433 0.959 . S
C2445 C2443 1.561 . S
C2446 C2443 1.526 . S
C2446 C2447 1.396 . S
C2446 C2451 1.390 . S
C2447 C2441 1.465 . S
C2447 C2446 1.396 . S
C2447 C2448 1.399 . S
C2448 H2434 0.929 . S
C2448 C2447 1.399 . S
C2448 C2449 1.385 . S
C2449 H2435 0.931 . S
C2449 C2448 1.385 . S
C2449 C2450 1.389 . S
C2450 C2449 1.389 . S
C2450 C2451 1.387 . S
C2451 H2436 0.930 . S
C2451 C2446 1.390 . S
C2451 C2450 1.387 . S
H2452 C2464 0.930 . S
H2453 C2466 0.930 . S
H2454 C2467 0.930 . S
H2455 C2471 0.959 1_554 S
H2456 C2471 0.959 . S
H2457 C2471 0.961 . S
H2458 C2472 0.960 . S
H2459 C2472 0.961 . S
H2460 C2472 0.959 . S
H2461 C2475 0.929 . S
H2462 C2476 0.931 . S
H2463 C2478 0.921 1_556 S
C2464 H2452 0.930 . S
C2464 C2465 1.399 . S
C2464 C2469 1.399 . S
C2465 C2464 1.399 . S
C2465 C2466 1.376 1_556 S
C2466 H2453 0.930 . S
C2466 C2465 1.376 1_554 S
C2466 C2467 1.388 . S
C2467 H2454 0.930 . S
C2467 C2466 1.388 . S
C2467 C2468 1.390 . S
C2468 C2467 1.390 . S
C2468 C2469 1.394 1_554 S
C2468 C2474 1.465 . S
C2469 C2464 1.399 . S
C2469 C2468 1.394 1_556 S
C2469 C2470 1.516 . S
C2470 C2469 1.516 . S
C2470 C2471 1.502 . S
C2470 C2472 1.561 . S
C2470 C2473 1.526 1_556 S
C2471 H2455 0.959 1_556 S
C2471 H2456 0.959 . S
C2471 H2457 0.961 . S
C2471 C2470 1.502 . S
C2472 H2458 0.960 . S
C2472 H2459 0.961 . S
C2472 H2460 0.959 . S
C2472 C2470 1.561 . S
C2473 C2470 1.526 1_554 S
C2473 C2474 1.396 . S
C2473 C2478 1.390 . S
C2474 C2468 1.465 . S
C2474 C2473 1.396 . S
C2474 C2475 1.399 . S
C2475 H2461 0.929 . S
C2475 C2474 1.399 . S
C2475 C2476 1.385 . S
C2476 H2462 0.931 . S
C2476 C2475 1.385 . S
C2476 C2477 1.389 . S
C2477 C2476 1.389 . S
C2477 C2478 1.387 . S
C2478 H2463 0.921 1_554 S
C2478 C2473 1.390 . S
C2478 C2477 1.387 . S
H2479 C2491 0.930 . S
H2480 C2493 0.930 . S
H2481 C2494 0.930 . S
H2482 C2498 0.959 . S
H2483 C2498 0.959 . S
H2484 C2498 0.961 . S
H2485 C2499 0.960 . S
H2486 C2499 0.961 . S
H2487 C2499 0.959 . S
H2488 C2502 0.929 . S
H2489 C2503 0.931 . S
H2490 C2505 0.930 . S
C2491 H2479 0.930 . S
C2491 C2492 1.399 . S
C2491 C2496 1.399 . S
C2492 C2491 1.399 . S
C2492 C2493 1.376 . S
C2493 H2480 0.930 . S
C2493 C2492 1.376 . S
C2493 C2494 1.388 . S
C2494 H2481 0.930 . S
C2494 C2493 1.388 . S
C2494 C2495 1.390 . S
C2495 C2494 1.390 . S
C2495 C2496 1.394 . S
C2495 C2501 1.465 . S
C2496 C2491 1.399 . S
C2496 C2495 1.394 . S
C2496 C2497 1.516 . S
C2497 C2496 1.516 . S
C2497 C2498 1.502 . S
C2497 C2499 1.561 . S
C2497 C2500 1.526 . S
C2498 H2482 0.959 . S
C2498 H2483 0.959 . S
C2498 H2484 0.961 . S
C2498 C2497 1.502 . S
C2499 H2485 0.960 . S
C2499 H2486 0.961 . S
C2499 H2487 0.959 . S
C2499 C2497 1.561 . S
C2500 C2497 1.526 . S
C2500 C2501 1.396 . S
C2500 C2505 1.390 . S
C2501 C2495 1.465 . S
C2501 C2500 1.396 . S
C2501 C2502 1.399 . S
C2502 H2488 0.929 . S
C2502 C2501 1.399 . S
C2502 C2503 1.385 . S
C2503 H2489 0.931 . S
C2503 C2502 1.385 . S
C2503 C2504 1.389 . S
C2504 C2503 1.389 . S
C2504 C2505 1.387 . S
C2505 H2490 0.930 . S
C2505 C2500 1.390 . S
C2505 C2504 1.387 . S
H2506 C2518 0.930 . S
H2507 C2520 0.930 . S
H2508 C2521 0.930 . S
H2509 C2525 0.959 . S
H2510 C2525 0.959 . S
H2511 C2525 0.961 . S
H2512 C2526 0.960 . S
H2513 C2526 0.961 . S
H2514 C2526 0.959 . S
H2515 C2529 0.929 . S
H2516 C2530 0.931 . S
H2517 C2532 0.930 . S
C2518 H2506 0.930 . S
C2518 C2519 1.399 . S
C2518 C2523 1.399 . S
C2519 C2518 1.399 . S
C2519 C2520 1.376 . S
C2520 H2507 0.930 . S
C2520 C2519 1.376 . S
C2520 C2521 1.388 . S
C2521 H2508 0.930 . S
C2521 C2520 1.388 . S
C2521 C2522 1.390 . S
C2522 C2521 1.390 . S
C2522 C2523 1.394 . S
C2522 C2528 1.465 . S
C2523 C2518 1.399 . S
C2523 C2522 1.394 . S
C2523 C2524 1.516 . S
C2524 C2523 1.516 . S
C2524 C2525 1.502 . S
C2524 C2526 1.561 . S
C2524 C2527 1.526 . S
C2525 H2509 0.959 . S
C2525 H2510 0.959 . S
C2525 H2511 0.961 . S
C2525 C2524 1.502 . S
C2526 H2512 0.960 . S
C2526 H2513 0.961 . S
C2526 H2514 0.959 . S
C2526 C2524 1.561 . S
C2527 C2524 1.526 . S
C2527 C2528 1.396 . S
C2527 C2532 1.390 . S
C2528 C2522 1.465 . S
C2528 C2527 1.396 . S
C2528 C2529 1.399 . S
C2529 H2515 0.929 . S
C2529 C2528 1.399 . S
C2529 C2530 1.385 . S
C2530 H2516 0.931 . S
C2530 C2529 1.385 . S
C2530 C2531 1.389 . S
C2531 C2530 1.389 . S
C2531 C2532 1.387 . S
C2532 H2517 0.930 . S
C2532 C2527 1.390 . S
C2532 C2531 1.387 . S
H2533 C2545 0.970 . S
H2534 C2547 0.930 . S
H2535 C2548 0.930 . S
H2536 C2552 0.959 1_565 S
H2537 C2552 0.959 . S
H2538 C2552 0.961 . S
H2539 C2553 0.960 . S
H2540 C2553 0.961 . S
H2541 C2553 0.959 . S
H2542 C2556 0.929 . S
H2543 C2557 0.931 . S
H2544 C2559 0.930 1_556 S
C2545 H2533 0.970 . S
C2545 C2546 1.388 1_545 S
C2545 C2550 1.371 1_545 S
C2546 C2545 1.388 1_565 S
C2546 C2547 1.376 . S
C2547 H2534 0.930 . S
C2547 C2546 1.376 . S
C2547 C2548 1.388 . S
C2548 H2535 0.930 . S
C2548 C2547 1.388 . S
C2548 C2549 1.390 . S
C2549 C2548 1.390 . S
C2549 C2550 1.394 . S
C2549 C2555 1.465 . S
C2550 C2545 1.371 1_565 S
C2550 C2549 1.394 . S
C2550 C2551 1.516 . S
C2551 C2550 1.516 . S
C2551 C2552 1.502 1_564 S
C2551 C2553 1.561 1_565 S
C2551 C2554 1.526 . S
C2552 H2536 0.959 1_545 S
C2552 H2537 0.959 . S
C2552 H2538 0.961 . S
C2552 C2551 1.502 1_546 S
C2553 H2539 0.960 . S
C2553 H2540 0.961 . S
C2553 H2541 0.959 . S
C2553 C2551 1.561 1_545 S
C2554 C2551 1.526 . S
C2554 C2555 1.396 . S
C2554 C2559 1.390 . S
C2555 C2549 1.465 . S
C2555 C2554 1.396 . S
C2555 C2556 1.399 . S
C2556 H2542 0.929 . S
C2556 C2555 1.399 . S
C2556 C2557 1.385 . S
C2557 H2543 0.931 . S
C2557 C2556 1.385 . S
C2557 C2558 1.389 . S
C2558 C2557 1.389 . S
C2558 C2559 1.387 . S
C2559 H2544 0.930 1_554 S
C2559 C2554 1.390 . S
C2559 C2558 1.387 . S
C1289 C257 1.843 . S
C1277 C73 1.852 . S
C1316 C316 1.266 . S
C1304 C82 1.177 . S
C1331 C100 1.867 . S
C1343 C433 1.859 . S
C1370 C501 1.300 . S
C1358 C56 1.294 . S
C1397 C580 1.349 . S
C1385 C134 1.309 . S
C1424 C705 1.810 . S
C1412 C165 1.817 . S
C1439 C147 1.110 . S
C1451 C765 1.162 . S
C1478 C873 1.833 . S
C1466 C125 1.844 . S
C1493 C151 1.393 . S
C1505 C969 1.398 . S
C1532 C1029 1.424 . S
C1520 C121 1.419 . S
C1547 C139 1.819 . S
C1559 C932 1.843 . S
C1586 C1049 1.266 . S
C1574 C164 1.257 . S
C1601 C95 1.218 . S
C1613 C1117 1.325 . S
C1628 C61 1.504 . S
C1640 C1108 1.509 . S
C1655 C74 1.433 . S
C1667 C1137 1.424 . S
C1682 C86 1.801 . S
C1694 C1145 1.800 . S
C1709 C47 1.396 . S
C1721 C529 1.372 . S
C1736 C186 1.282 . S
C1748 C492 1.322 . S
C1775 C228 1.547 . S
C1763 C204 1.513 1_556 S
C1802 C325 1.916 . S
C1790 C112 1.913 . S
C1817 C60 1.354 1_545 S
C1829 C589 1.371 . S
C1856 C881 1.433 . S
C1844 C152 1.397 . S
C1883 C609 1.969 . S
C1871 C126 1.966 . S
C1910 C793 1.292 . S
C1898 C160 1.275 . S
C1937 C785 1.837 . S
C1925 C190 1.854 . S
C1952 C199 1.223 . S
C1964 C853 1.268 . S
C1979 C113 1.874 . S
C1991 C617 1.861 . S
C2018 C668 1.298 . S
C2006 C173 1.289 . S
C2033 C43 1.309 . S
C2045 C413 1.349 . S
C2072 C521 1.811 . S
C2060 C9 1.812 1_655 S
C2099 C237 1.170 . S
C2087 C17 1.160 . S
C2126 C353 1.846 . S
C2114 C34 1.836 1_455 S
C2141 C21 1.393 . S
C2153 C1057 1.392 . S
C2168 C30 1.414 . S
C2180 C941 1.436 . S
C2195 C48 1.816 . S
C2207 C1020 1.850 . S
C2222 C8 1.263 . S
C2234 C961 1.252 . S
C2261 C1205 1.313 . S
C2249 C108 1.294 . S
C2288 C1196 1.509 . S
C2276 C178 1.481 1_554 S
C2315 C1225 1.423 . S
C2303 C191 1.433 . S
C2330 C203 1.802 . S
C2342 C1233 1.801 . S
C2357 C138 1.383 . S
C2369 C697 1.383 . S
C2396 C677 1.344 . S
C2384 C69 1.241 . S
C2423 C756 1.545 . S
C2411 C87 1.520 . S
C2450 C844 1.902 . S
C2438 C99 1.911 . S
C2465 C177 1.365 . S
C2477 C404 1.358 . S
C2504 C345 1.422 . S
C2492 C22 1.435 . S
C2519 C35 1.957 . S
C2531 C441 1.973 . S
C2558 C265 1.260 . S
C2546 C4 1.251 . S
