# Generated by pormake.
# Topology anh, (6,3)-cn, num edge types: 1
# Building blocks:
#     Node 0, Type 0, BuildingBlock: NUHQIS_clean_sbu_0, # of connection points: 6
#     Node 1, Type 0, BuildingBlock: NUHQIS_clean_sbu_0, # of connection points: 6
#     Node 2, Type 0, BuildingBlock: NUHQIS_clean_sbu_0, # of connection points: 6
#     Node 3, Type 1, BuildingBlock: QEWDON_clean_linker_0, # of connection points: 3
#     Node 4, Type 1, BuildingBlock: QEWDON_clean_linker_0, # of connection points: 3
#     Node 5, Type 1, BuildingBlock: QEWDON_clean_linker_0, # of connection points: 3
#     Node 6, Type 1, BuildingBlock: QEWDON_clean_linker_0, # of connection points: 3
#     Node 7, Type 1, BuildingBlock: QEWDON_clean_linker_0, # of connection points: 3
#     Node 8, Type 1, BuildingBlock: QEWDON_clean_linker_0, # of connection points: 3
#     Edge 9, Type (0, 1), BuildingBlock: OJICUG_clean_linker_0, # of connection points: 2
#     Edge 10, Type (0, 1), BuildingBlock: OJICUG_clean_linker_0, # of connection points: 2
#     Edge 11, Type (0, 1), BuildingBlock: OJICUG_clean_linker_0, # of connection points: 2
#     Edge 12, Type (0, 1), BuildingBlock: OJICUG_clean_linker_0, # of connection points: 2
#     Edge 13, Type (0, 1), BuildingBlock: OJICUG_clean_linker_0, # of connection points: 2
#     Edge 14, Type (0, 1), BuildingBlock: OJICUG_clean_linker_0, # of connection points: 2
#     Edge 15, Type (0, 1), BuildingBlock: OJICUG_clean_linker_0, # of connection points: 2
#     Edge 16, Type (0, 1), BuildingBlock: OJICUG_clean_linker_0, # of connection points: 2
#     Edge 17, Type (0, 1), BuildingBlock: OJICUG_clean_linker_0, # of connection points: 2
#     Edge 18, Type (0, 1), BuildingBlock: OJICUG_clean_linker_0, # of connection points: 2
#     Edge 19, Type (0, 1), BuildingBlock: OJICUG_clean_linker_0, # of connection points: 2
#     Edge 20, Type (0, 1), BuildingBlock: OJICUG_clean_linker_0, # of connection points: 2
#     Edge 21, Type (0, 1), BuildingBlock: OJICUG_clean_linker_0, # of connection points: 2
#     Edge 22, Type (0, 1), BuildingBlock: OJICUG_clean_linker_0, # of connection points: 2
#     Edge 23, Type (0, 1), BuildingBlock: OJICUG_clean_linker_0, # of connection points: 2
#     Edge 24, Type (0, 1), BuildingBlock: OJICUG_clean_linker_0, # of connection points: 2
#     Edge 25, Type (0, 1), BuildingBlock: OJICUG_clean_linker_0, # of connection points: 2
#     Edge 26, Type (0, 1), BuildingBlock: OJICUG_clean_linker_0, # of connection points: 2
# Relax obj value: 0.327
# Max RMSD: 0.147
# Mean RMSD: 0.121
data_MOF--net-anh--node1-NUHQIS_clean_sbu_0--node2-QEWDON_clean_linker_0--edge1-OJICUG_clean_linker_0
_symmetry_space_group_name_H-M    P1
_symmetry_Int_Tables_number       1
_symmetry_cell_setting            triclinic
loop_
_symmetry_equiv_pos_as_xyz
'x, y, z'
_cell_length_a     23.475593
_cell_length_b     23.845347
_cell_length_c     36.247764
_cell_angle_alpha  92.93122
_cell_angle_beta   95.249676
_cell_angle_gamma 119.83199
loop_
_atom_site_label
_atom_site_type_symbol
_atom_site_fract_x
_atom_site_fract_y
_atom_site_fract_z
_atom_type_partial_charge
Tb0 Tb 0.28722 0.74146 0.17518 0.0
Eu1 Eu 0.20856 0.81193 0.1441 0.0
C2 C 0.23175 0.80254 0.2284 0.0
C3 C 1.12654 0.65719 0.16055 0.0
C4 C 0.33727 0.61872 0.19482 0.0
C5 C 0.34914 0.53265 0.22078 0.0
C6 C 0.34904 0.59111 0.22572 0.0
C7 C 0.32108 0.58497 0.1591 0.0
C8 C 0.32186 0.52694 0.15408 0.0
C9 C 0.33824 0.50124 0.18474 0.0
C10 C 0.34595 0.6842 0.20021 0.0
O11 O 0.25849 0.7085 0.11475 0.0
O12 O 0.25201 0.795 0.09527 0.0
O13 O 0.31541 0.89674 0.16134 0.0
O14 O 0.37003 0.83991 0.16946 0.0
C15 C 0.25712 0.74346 0.08793 0.0
O16 O 1.13791 0.82091 0.10495 0.0
O17 O 0.19026 0.8922 0.15352 0.0
O18 O 0.18538 0.78825 0.20113 0.0
O19 O 0.28573 0.80229 0.22218 0.0
O20 O 0.18305 0.66444 0.17662 0.0
O21 O 1.1261 0.70451 0.14298 0.0
C22 C 0.37134 0.8958 0.1673 0.0
O23 O 0.36197 0.71842 0.172 0.0
O24 O 0.30128 0.68916 0.21657 0.0
C25 C 1.07591 0.85151 0.1391 0.0
C26 C 0.94451 0.78529 0.15466 0.0
C27 C 0.95949 0.81276 0.12085 0.0
C28 C 1.0248 0.84542 0.11308 0.0
C29 C 1.06183 0.83027 0.17441 0.0
C30 C 0.99659 0.79739 0.18212 0.0
C31 C 1.13981 0.86705 0.12711 0.0
H32 H 0.36074 0.51366 0.24505 0.0
H33 H 0.36067 0.61604 0.25357 0.0
H34 H 0.31084 0.60489 0.13484 0.0
H35 H 0.31393 0.50476 0.12587 0.0
H36 H 0.92035 0.8036 0.09891 0.0
H37 H 1.0346 0.86107 0.08566 0.0
H38 H 1.10047 0.83448 0.1951 0.0
H39 H 0.98646 0.77709 0.20842 0.0
Tb40 Tb 0.84845 0.22789 0.49452 0.0
Eu41 Eu 0.69186 0.15026 0.47942 0.0
C42 C 0.76509 0.17738 0.55946 0.0
C43 C 0.77292 1.06985 0.49025 0.0
C44 C 1.00029 0.36891 0.48844 0.0
C45 C 1.0293 0.48067 0.50603 0.0
C46 C 1.02595 0.42305 0.51541 0.0
C47 C 0.98591 0.37633 0.45106 0.0
C48 C 0.98913 0.43372 0.44172 0.0
C49 C 1.0075 0.48527 0.46945 0.0
C50 C 0.97071 0.30293 0.50051 0.0
O51 O 0.8171 0.24016 0.43781 0.0
O52 O 0.72805 0.13959 0.4258 0.0
O53 O 0.7186 0.25772 0.47917 0.0
O54 O 0.82309 0.30368 0.51066 0.0
C55 C 0.77385 0.19133 0.41355 0.0
O56 O 0.59681 1.08126 0.4962 0.0
O57 O 0.60025 0.1253 0.44467 0.0
O58 O 0.7218 0.18684 0.53985 0.0
O59 O 0.81608 0.18206 0.54483 0.0
O60 O 0.82832 0.12515 0.48721 0.0
O61 O 0.71647 1.06977 0.49056 0.0
C62 C 0.7719 0.30939 0.49742 0.0
O63 O 0.93688 0.29494 0.52842 0.0
O64 O 0.93853 0.25433 0.47411 0.0
C65 C 0.50866 1.09898 0.47733 0.0
C66 C 0.39214 1.10404 0.48114 0.0
C67 C 0.39593 1.04945 0.49107 0.0
C68 C 0.45354 1.047 0.48905 0.0
C69 C 0.50797 0.1564 0.47128 0.0
C70 C 0.45003 0.15895 0.47326 0.0
C71 C 0.56312 1.08931 0.46843 0.0
H72 H 1.04549 0.52029 0.52784 0.0
H73 H 1.03756 0.41886 0.5444 0.0
H74 H 0.96608 0.33584 0.4294 0.0
H75 H 0.97203 0.43543 0.41325 0.0
H76 H 0.35266 1.00574 0.49692 0.0
H77 H 0.45348 1.0026 0.49424 0.0
H78 H 0.55075 0.19782 0.46297 0.0
H79 H 0.44918 0.20207 0.46605 0.0
Tb80 Tb 0.78144 0.68381 0.8343 0.0
Eu81 Eu 0.71125 0.52971 0.812 0.0
C82 C 0.73438 0.58635 0.89432 0.0
C83 C 0.87266 0.61818 0.83367 0.0
C84 C 0.79004 0.82968 0.87106 0.0
C85 C 0.7268 0.88243 0.85599 0.0
C86 C 0.78385 0.87834 0.85419 0.0
C87 C 0.74454 0.79341 0.89521 0.0
C88 C 0.68752 0.79747 0.89689 0.0
C89 C 0.67569 0.83761 0.87447 0.0
C90 C 0.82678 0.80238 0.8539 0.0
O91 O 0.79204 0.66997 0.77493 0.0
O92 O 0.69901 0.57106 0.75986 0.0
O93 O 0.62249 0.54234 0.8209 0.0
O94 O 0.67469 0.65426 0.82878 0.0
C95 C 0.74662 0.62406 0.74951 0.0
O96 O 0.69597 0.44831 0.77416 0.0
O97 O 0.64821 0.43036 0.82433 0.0
O98 O 0.7459 0.54851 0.87302 0.0
O99 O 0.7338 0.63643 0.88151 0.0
O100 O 0.86435 0.66551 0.84777 0.0
O101 O 0.82238 0.56629 0.81381 0.0
C102 C 0.62019 0.5964 0.82636 0.0
O103 O 0.84113 0.76566 0.87365 0.0
O104 O 0.80142 0.77526 0.81975 0.0
C105 C 0.69563 0.36648 0.80833 0.0
C106 C 0.74971 0.28782 0.82726 0.0
C107 C 0.75969 0.31603 0.79355 0.0
C108 C 0.73264 0.3545 0.78412 0.0
C109 C 0.68891 0.34162 0.84307 0.0
C110 C 0.71581 0.30268 0.85246 0.0
C111 C 0.66615 0.40633 0.79754 0.0
H112 H 0.71839 0.91367 0.83834 0.0
H113 H 0.81818 0.90679 0.83546 0.0
H114 H 0.74825 0.75584 0.90891 0.0
H115 H 0.64901 0.76334 0.91175 0.0
H116 H 0.78408 0.30445 0.773 0.0
H117 H 0.73914 0.37328 0.75728 0.0
H118 H 0.66139 0.35071 0.8626 0.0
H119 H 0.70704 0.28132 0.8785 0.0
H120 H 0.80807 0.28749 0.2442 0.0
C121 C 0.75904 0.24901 0.23232 0.0
C122 C 0.72091 0.20016 0.25478 0.0
C123 C 0.73572 0.24651 0.19439 0.0
H124 H 0.62844 0.11121 0.25632 0.0
C125 C 0.65821 0.14804 0.2391 0.0
C126 C 0.63193 0.14196 0.2019 0.0
C127 C 0.67021 0.19254 0.18002 0.0
C128 C 0.781 0.29638 0.16918 0.0
H129 H 0.64866 0.18851 0.15169 0.0
C130 C 0.83799 0.36059 0.18193 0.0
C131 C 0.87728 0.4034 0.15594 0.0
C132 C 0.768 0.2774 0.13043 0.0
H133 H 0.72934 0.2293 0.11862 0.0
C134 C 0.80551 0.31874 0.10551 0.0
H135 H 0.85111 0.3777 0.21135 0.0
C136 C 0.85866 0.38052 0.11791 0.0
H137 H 0.88658 0.41049 0.09732 0.0
H138 H 0.79357 0.30223 0.07596 0.0
H139 H 0.76297 0.70785 0.57957 0.0
C140 C 0.76784 0.66855 0.56702 0.0
C141 C 0.76964 0.62311 0.59006 0.0
C142 C 0.76747 0.66102 0.52796 0.0
H143 H 0.77534 0.53584 0.59226 0.0
C144 C 0.7738 0.57012 0.57423 0.0
C145 C 0.77414 0.55905 0.5358 0.0
C146 C 0.77057 0.6049 0.51286 0.0
C147 C 0.75837 0.70816 0.50306 0.0
H148 H 0.77118 0.59664 0.48339 0.0
C149 C 0.77267 0.7738 0.51537 0.0
C150 C 0.76028 0.81311 0.49009 0.0
C151 C 0.73073 0.68488 0.46549 0.0
H152 H 0.71568 0.63594 0.45434 0.0
C153 C 0.71973 0.72297 0.44116 0.0
H154 H 0.79304 0.7942 0.54401 0.0
C155 C 0.73436 0.78568 0.4531 0.0
H156 H 0.72419 0.81292 0.43311 0.0
H157 H 0.69866 0.70312 0.41248 0.0
H158 H 0.30216 0.65347 0.9191 0.0
C159 C 0.25409 0.64461 0.90704 0.0
C160 C 0.21445 0.65546 0.93024 0.0
C161 C 0.23393 0.62705 0.86813 0.0
H162 H 1.12453 0.65762 0.93294 0.0
C163 C 1.15381 0.64843 0.91469 0.0
C164 C 1.13033 0.63052 0.87645 0.0
C165 C 1.17006 0.61802 0.85359 0.0
C166 C 0.28179 0.62565 0.84213 0.0
H167 H 1.15174 0.60325 0.82423 0.0
C168 C 0.33392 0.61093 0.85211 0.0
C169 C 0.37609 0.61095 0.82539 0.0
C170 C 0.27666 0.64319 0.80597 0.0
H171 H 0.24185 0.65861 0.79715 0.0
C172 C 0.31733 0.64347 0.78035 0.0
H173 H 0.34071 0.5983 0.87976 0.0
C174 C 0.36556 0.62721 0.78969 0.0
H175 H 0.39612 0.62885 0.76864 0.0
H176 H 0.31176 0.65714 0.7528 0.0
H177 H 1.0575 0.7889 0.34745 0.0
C178 C 1.08379 0.83785 0.36178 0.0
C179 C 1.14414 0.88425 0.3512 0.0
C180 C 1.05864 0.85293 0.39207 0.0
H181 H 0.22719 0.98076 0.36408 0.0
C182 C 0.17837 0.94674 0.37068 0.0
C183 C 1.15411 0.96287 0.40125 0.0
C184 C 1.09282 0.91602 0.41093 0.0
C185 C 1.00466 0.79974 0.40841 0.0
H186 H 1.07479 0.92667 0.43528 0.0
C187 C 1.01024 0.74558 0.41625 0.0
C188 C 0.96238 0.69531 0.43368 0.0
C189 C 0.95074 0.80416 0.41865 0.0
H190 H 0.94598 0.84603 0.41332 0.0
C191 C 0.9026 0.75425 0.43595 0.0
H192 H 1.05376 0.74398 0.41003 0.0
C193 C 0.9082 0.70005 0.44345 0.0
H194 H 0.87026 0.66197 0.45673 0.0
H195 H 0.86115 0.7579 0.44379 0.0
H196 H 0.60514 0.96551 0.66792 0.0
C197 C 0.63657 0.99271 0.69372 0.0
C198 C 0.69503 1.0524 0.69308 0.0
C199 C 0.61856 0.96864 0.72782 0.0
H200 H 0.77445 0.13762 0.72553 0.0
C201 C 0.73344 1.08902 0.72666 0.0
C202 C 0.71422 1.06723 0.76115 0.0
C203 C 0.65911 1.00518 0.76117 0.0
C204 C 0.55467 0.90912 0.73047 0.0
H205 H 0.64429 0.98761 0.78762 0.0
C206 C 0.55405 0.86851 0.75693 0.0
C207 C 0.4957 0.82666 0.77099 0.0
C208 C 0.49394 0.90012 0.71354 0.0
H209 H 0.49278 0.93117 0.69305 0.0
C210 C 0.43435 0.854 0.72532 0.0
H211 H 0.60082 0.87496 0.76994 0.0
C212 C 0.43528 0.8188 0.75502 0.0
H213 H 0.38979 0.78714 0.76592 0.0
H214 H 0.38782 0.84836 0.7129 0.0
H215 H 0.58411 0.42579 0.03007 0.0
C216 C 0.61851 0.46423 0.05157 0.0
C217 C 0.66815 0.52314 0.04136 0.0
C218 C 0.61058 0.45697 0.08944 0.0
H219 H 0.74978 0.61871 0.06117 0.0
C220 C 0.71044 0.57368 0.06901 0.0
C221 C 0.70412 0.56675 0.10666 0.0
C222 C 0.65491 0.50815 0.117 0.0
C223 C 0.55114 0.40027 0.09999 0.0
H224 H 0.65 0.50309 0.14627 0.0
C225 C 0.51301 0.41143 0.12362 0.0
C226 C 0.45266 0.36033 0.13147 0.0
C227 C 0.52897 0.33636 0.08468 0.0
H228 H 0.55744 0.32644 0.06622 0.0
C229 C 0.46929 0.28482 0.09295 0.0
H230 H 0.52839 0.46099 0.1342 0.0
C231 C 0.43067 0.29673 0.11588 0.0
H232 H 0.38369 0.25672 0.12114 0.0
H233 H 0.45228 0.23569 0.08096 0.0
C234 C 0.32127 0.40029 0.14799 0.0
C235 C 0.35477 0.44917 0.1783 0.0
H236 H 0.3262 0.33201 0.10944 0.0
C237 C 0.41215 0.45527 0.19837 0.0
H238 H 0.27608 0.39324 0.13249 0.0
C239 C 0.43991 0.41939 0.18557 0.0
C240 C 0.41107 0.37702 0.15244 0.0
H241 H 0.43957 0.49231 0.22177 0.0
H242 H 0.48745 0.42953 0.19949 0.0
C243 C 0.34936 0.36451 0.13507 0.0
C244 C 1.01061 0.56562 0.42641 0.0
C245 C 0.99768 0.54033 0.46077 0.0
H246 H 1.00734 0.63232 0.39039 0.0
C247 C 0.97085 0.56498 0.48578 0.0
H248 H 1.03133 0.54789 0.40651 0.0
C249 C 0.95775 0.61411 0.47673 0.0
C250 C 0.97129 0.63974 0.44246 0.0
H251 H 0.9591 0.54571 0.5122 0.0
H252 H 0.93823 0.6328 0.49688 0.0
C253 C 0.99724 0.6144 0.41729 0.0
C254 C 0.57893 0.76537 0.82882 0.0
C255 C 0.60732 0.81586 0.85819 0.0
H256 H 0.51244 0.72418 0.7782 0.0
C257 C 0.57798 0.85362 0.8643 0.0
H258 H 0.60268 0.73758 0.82276 0.0
C259 C 0.52551 0.84558 0.83855 0.0
C260 C 0.50448 0.80177 0.80595 0.0
H261 H 0.59998 0.89354 0.88643 0.0
H262 H 0.50979 0.8812 0.84075 0.0
C263 C 0.52656 0.75714 0.8034 0.0
C264 C 0.86504 0.67163 0.16546 0.0
C265 C 0.87605 0.73302 0.15713 0.0
H266 H 0.79866 0.5686 0.15618 0.0
C267 C 0.82199 0.73882 0.14251 0.0
H268 H 0.90581 0.66553 0.17661 0.0
C269 C 0.76057 0.68312 0.13103 0.0
C270 C 0.75278 0.62126 0.13403 0.0
H271 H 0.82898 0.78563 0.13632 0.0
H272 H 0.72171 0.68804 0.11571 0.0
C273 C 0.80356 0.61591 0.1539 0.0
C274 C 0.31271 0.11343 0.43508 0.0
C275 C 0.32563 1.09583 0.47 0.0
H276 H 0.24379 1.0854 0.38549 0.0
C277 C 0.27147 1.05209 0.48705 0.0
H278 H 0.35257 0.1485 0.42135 0.0
C279 C 0.20945 1.01396 0.46579 0.0
C280 C 0.20089 1.02117 0.42773 0.0
H281 H 0.27921 1.03997 0.51476 0.0
H282 H 1.17205 0.9731 0.4778 0.0
C283 C 0.25015 1.07662 0.4142 0.0
C284 C 0.81183 0.23016 0.81572 0.0
C285 C 0.75913 0.23129 0.83059 0.0
H286 H 0.8403 0.17353 0.78283 0.0
C287 C 0.70393 0.1721 0.83602 0.0
H288 H 0.85636 0.27519 0.81269 0.0
C289 C 0.69388 0.11427 0.81817 0.0
C290 C 0.73953 0.11521 0.79513 0.0
H291 H 0.66308 0.17096 0.84834 0.0
H292 H 0.6456 1.07163 0.81792 0.0
C293 C 0.80223 0.17193 0.79827 0.0
C294 C 0.71622 0.94872 0.50198 0.0
C295 C 0.77324 1.00562 0.49424 0.0
H296 H 0.66817 0.84602 0.50817 0.0
C297 C 0.82927 0.99908 0.49019 0.0
H298 H 0.67162 0.95014 0.50546 0.0
C299 C 0.82728 0.93837 0.49223 0.0
C300 C 0.76975 0.88132 0.49933 0.0
H301 H 0.87443 1.04057 0.48414 0.0
H302 H 0.87024 0.93541 0.48652 0.0
C303 C 0.71447 0.88842 0.50427 0.0
C304 C 0.99265 0.67528 0.86543 0.0
C305 C 0.93995 0.62254 0.84187 0.0
H306 H 1.09203 0.71971 0.89375 0.0
C307 C 0.95236 0.57373 0.82754 0.0
H308 H 0.98635 0.71425 0.87711 0.0
C309 C 1.01429 0.57705 0.83712 0.0
C310 C 1.06607 0.62892 0.86177 0.0
H311 H 0.91372 0.53213 0.80929 0.0
H312 H 1.02071 0.53771 0.82622 0.0
C313 C 1.05391 0.67831 0.87514 0.0
C314 C 0.49771 0.95981 0.18435 0.0
C315 C 0.43841 0.9595 0.17282 0.0
H316 H 0.603 1.01554 0.20177 0.0
C317 C 0.44477 1.0209 0.16773 0.0
H318 H 0.49629 0.91458 0.18875 0.0
C319 C 0.50738 1.07978 0.17472 0.0
C320 C 0.56614 1.07975 0.1874 0.0
H321 H 0.40105 1.02373 0.15889 0.0
H322 H 0.5093 0.12559 0.17164 0.0
C323 C 0.55968 1.01831 0.1917 0.0
C324 C 0.82496 0.42643 0.5301 0.0
C325 C 0.77411 0.37502 0.50468 0.0
H326 H 0.86506 0.52225 0.55932 0.0
C327 C 0.72565 0.38766 0.48712 0.0
H328 H 0.86374 0.4203 0.54438 0.0
C329 C 0.72745 0.44801 0.49515 0.0
C330 C 0.77722 0.49838 0.5216 0.0
H331 H 0.68548 0.35042 0.46728 0.0
H332 H 0.68811 0.45412 0.48166 0.0
C333 C 0.82596 0.48586 0.53863 0.0
C334 C 0.54635 0.62865 0.85926 0.0
C335 C 0.55407 0.59246 0.82992 0.0
H336 H 0.48492 0.66234 0.88189 0.0
C337 C 0.49795 0.5537 0.80342 0.0
H338 H 0.58754 0.65744 0.8809 0.0
C339 C 0.43872 0.55557 0.80427 0.0
C340 C 0.43232 0.59578 0.83186 0.0
H341 H 0.50079 0.52413 0.78078 0.0
H342 H 0.39846 0.52757 0.7819 0.0
C343 C 0.48665 0.63035 0.86028 0.0
C344 C 1.06012 0.54166 0.18084 0.0
C345 C 1.0614 0.59395 0.16312 0.0
H346 H 1.00251 0.44235 0.1937 0.0
C347 C 0.99926 0.5845 0.14789 0.0
H348 H 1.10612 0.54602 0.1932 0.0
C349 C 0.93946 0.52495 0.14878 0.0
C350 C 0.93831 0.47178 0.16526 0.0
H351 H 0.99672 0.62272 0.13427 0.0
H352 H 0.89378 0.51941 0.13492 0.0
C353 C 1.00006 0.48193 0.18177 0.0
C354 C 0.25753 0.76341 0.02054 0.0
C355 C 0.25568 0.72283 0.04791 0.0
H356 H 0.24698 0.77405 0.96237 0.0
C357 C 0.248 0.6619 0.03599 0.0
H358 H 0.26389 0.81085 0.02831 0.0
C359 C 0.23892 0.64106 -0.00237 0.0
C360 C 0.23742 0.68075 0.97056 0.0
H361 H 0.24637 0.62933 0.05616 0.0
H362 H 0.22981 0.59277 -0.01087 0.0
C363 C 0.24827 0.74259 -0.01743 0.0
C364 C 0.74189 0.13981 0.34755 0.0
C365 C 0.77047 0.1965 0.37269 0.0
H366 H 0.70778 1.097 0.29103 0.0
C367 C 0.7903 0.25638 0.35832 0.0
H368 H 0.72709 1.09307 0.35758 0.0
C369 C 0.77738 0.2586 0.31979 0.0
C370 C 0.74518 0.20105 0.29484 0.0
H371 H 0.81258 0.30103 0.377 0.0
H372 H 0.78963 0.30486 0.30988 0.0
C373 C 0.7304 0.14215 0.30927 0.0
C374 C 0.7986 0.68357 0.6942 0.0
C375 C 0.75118 0.62758 0.70854 0.0
H376 H 0.84124 0.72676 0.64548 0.0
C377 C 0.70846 0.57219 0.68313 0.0
H378 H 0.83232 0.72716 0.71279 0.0
C379 C 0.71408 0.57184 0.64502 0.0
C380 C 0.76211 0.62701 0.63067 0.0
H381 H 0.67115 0.52802 0.6927 0.0
H382 H 0.68081 0.52778 0.62665 0.0
C383 C 0.80362 0.68345 0.65563 0.0
C384 C 0.79518 0.1406 0.61766 0.0
C385 C 0.74868 0.14837 0.59466 0.0
H386 H 0.81408 1.10316 0.66694 0.0
C387 C 0.68392 0.12254 0.60374 0.0
H388 H 0.84522 0.15948 0.61118 0.0
C389 C 0.66586 1.08918 0.635 0.0
C390 C 0.71239 1.08173 0.65803 0.0
H391 H 0.64664 0.12702 0.58634 0.0
H392 H 0.61591 1.07043 0.64165 0.0
C393 C 0.77728 1.10797 0.64928 0.0
C394 C 0.70092 0.60806 0.95436 0.0
C395 C 0.71475 0.56835 0.93139 0.0
H396 H 0.67361 0.6236 0.00697 0.0
C397 C 0.70726 0.51023 0.94365 0.0
H398 H 0.70522 0.65255 0.94556 0.0
C399 C 0.6883 0.49325 0.97872 0.0
C400 C 0.67698 0.53435 0.0021 0.0
H401 H 0.71671 0.47811 0.92633 0.0
H402 H 0.68508 0.44952 -0.01183 0.0
C403 C 0.68233 0.59124 -0.01064 0.0
C404 C 0.19851 0.78795 0.29178 0.0
C405 C 0.22506 0.82885 0.26405 0.0
H406 H 1.15218 0.77363 0.34146 0.0
C407 C 0.22854 0.8894 0.26617 0.0
H408 H 0.19364 0.74023 0.28994 0.0
C409 C 0.20389 0.90813 0.29503 0.0
C410 C 1.1744 0.86612 0.32201 0.0
H411 H 0.24696 0.92067 0.24428 0.0
H412 H 0.20507 0.95414 0.29523 0.0
C413 C 1.17353 0.80653 0.32066 0.0
loop_
_geom_bond_atom_site_label_1
_geom_bond_atom_site_label_2
_geom_bond_distance
_geom_bond_site_symmetry_2
_ccdc_geom_bond_type
Tb0 C10 2.825 . S
Tb0 O11 2.347 . S
Tb0 O14 2.366 . S
Tb0 O19 2.418 . S
Tb0 O20 2.384 1_455 S
Tb0 O23 2.479 . S
Tb0 O24 2.471 . S
Eu1 O12 2.423 1_455 S
Eu1 O13 2.398 . S
Eu1 O16 2.463 1_455 S
Eu1 O17 2.456 1_455 S
Eu1 O18 2.355 . S
Eu1 O21 2.364 1_455 S
Eu1 C31 2.808 1_455 S
C2 O18 1.259 . S
C2 O19 1.265 . S
C3 O20 1.255 . S
C3 O21 1.265 . S
C4 C6 1.380 . S
C4 C7 1.374 . S
C4 C10 1.507 . S
C5 C6 1.384 . S
C5 C9 1.387 . S
C5 H32 0.930 . S
C6 C4 1.380 . S
C6 C5 1.384 . S
C6 H33 0.931 . S
C7 C4 1.374 . S
C7 C8 1.390 . S
C7 H34 0.930 . S
C8 C7 1.390 . S
C8 C9 1.391 . S
C8 H35 0.930 . S
C9 C5 1.387 . S
C9 C8 1.391 . S
C10 Tb0 2.825 . S
C10 C4 1.507 . S
C10 O23 1.238 . S
C10 O24 1.247 . S
O11 Tb0 2.347 . S
O11 C15 1.259 . S
O12 Eu1 2.423 1_655 S
O12 C15 1.265 1_655 S
O13 Eu1 2.398 . S
O13 C22 1.255 . S
O14 Tb0 2.366 . S
O14 C22 1.265 . S
C15 O11 1.259 . S
C15 O12 1.265 1_455 S
O16 Eu1 2.463 1_655 S
O16 C31 1.238 . S
O17 Eu1 2.456 1_655 S
O17 C31 1.247 . S
O18 Eu1 2.355 . S
O18 C2 1.259 . S
O19 Tb0 2.418 . S
O19 C2 1.265 . S
O20 Tb0 2.384 1_655 S
O20 C3 1.255 . S
O21 Eu1 2.364 1_655 S
O21 C3 1.265 . S
C22 O13 1.255 . S
C22 O14 1.265 . S
O23 Tb0 2.479 . S
O23 C10 1.238 . S
O24 Tb0 2.471 . S
O24 C10 1.247 . S
C25 C28 1.380 . S
C25 C29 1.374 . S
C25 C31 1.507 . S
C26 C27 1.387 . S
C26 C30 1.391 . S
C27 C26 1.387 . S
C27 C28 1.384 . S
C27 H36 0.930 . S
C28 C25 1.380 . S
C28 C27 1.384 . S
C28 H37 0.931 . S
C29 C25 1.374 . S
C29 C30 1.390 . S
C29 H38 0.930 . S
C30 C26 1.391 . S
C30 C29 1.390 . S
C30 H39 0.930 . S
C31 Eu1 2.808 1_655 S
C31 O16 1.238 . S
C31 O17 1.247 . S
C31 C25 1.507 . S
H32 C5 0.930 . S
H33 C6 0.931 . S
H34 C7 0.930 . S
H35 C8 0.930 . S
H36 C27 0.930 . S
H37 C28 0.931 . S
H38 C29 0.930 . S
H39 C30 0.930 . S
Tb40 C50 2.825 . S
Tb40 O51 2.347 . S
Tb40 O54 2.366 . S
Tb40 O59 2.418 . S
Tb40 O60 2.384 . S
Tb40 O63 2.479 . S
Tb40 O64 2.471 . S
Eu41 O52 2.418 . S
Eu41 O53 2.384 . S
Eu41 O56 2.479 1_545 S
Eu41 O57 2.471 1_545 S
Eu41 O58 2.347 . S
Eu41 O61 2.366 1_545 S
Eu41 C71 2.825 1_545 S
C42 O58 1.259 . S
C42 O59 1.265 . S
C43 O60 1.255 1_565 S
C43 O61 1.265 . S
C44 C46 1.380 . S
C44 C47 1.374 . S
C44 C50 1.507 . S
C45 C46 1.384 . S
C45 C49 1.387 . S
C45 H72 0.930 . S
C46 C44 1.380 . S
C46 C45 1.384 . S
C46 H73 0.931 . S
C47 C44 1.374 . S
C47 C48 1.390 . S
C47 H74 0.930 . S
C48 C47 1.390 . S
C48 C49 1.391 . S
C48 H75 0.930 . S
C49 C45 1.387 . S
C49 C48 1.391 . S
C50 Tb40 2.825 . S
C50 C44 1.507 . S
C50 O63 1.238 . S
C50 O64 1.247 . S
O51 Tb40 2.347 . S
O51 C55 1.259 . S
O52 Eu41 2.418 . S
O52 C55 1.265 . S
O53 Eu41 2.384 . S
O53 C62 1.255 . S
O54 Tb40 2.366 . S
O54 C62 1.265 . S
C55 O51 1.259 . S
C55 O52 1.265 . S
O56 Eu41 2.479 1_565 S
O56 C71 1.238 . S
O57 Eu41 2.471 1_565 S
O57 C71 1.247 . S
O58 Eu41 2.347 . S
O58 C42 1.259 . S
O59 Tb40 2.418 . S
O59 C42 1.265 . S
O60 Tb40 2.384 . S
O60 C43 1.255 1_545 S
O61 Eu41 2.366 1_565 S
O61 C43 1.265 . S
C62 O53 1.255 . S
C62 O54 1.265 . S
O63 Tb40 2.479 . S
O63 C50 1.238 . S
O64 Tb40 2.471 . S
O64 C50 1.247 . S
C65 C68 1.380 . S
C65 C69 1.374 . S
C65 C71 1.507 . S
C66 C67 1.387 . S
C66 C70 1.391 . S
C67 C66 1.387 . S
C67 C68 1.384 . S
C67 H76 0.930 . S
C68 C65 1.380 . S
C68 C67 1.384 . S
C68 H77 0.931 . S
C69 C65 1.374 . S
C69 C70 1.390 . S
C69 H78 0.930 . S
C70 C66 1.391 . S
C70 C69 1.390 . S
C70 H79 0.930 . S
C71 Eu41 2.825 1_565 S
C71 O56 1.238 . S
C71 O57 1.247 . S
C71 C65 1.507 . S
H72 C45 0.930 . S
H73 C46 0.931 . S
H74 C47 0.930 . S
H75 C48 0.930 . S
H76 C67 0.930 . S
H77 C68 0.931 . S
H78 C69 0.930 . S
H79 C70 0.930 . S
Tb80 C90 2.825 . S
Tb80 O91 2.347 . S
Tb80 O94 2.366 . S
Tb80 O99 2.418 . S
Tb80 O100 2.384 . S
Tb80 O103 2.479 . S
Tb80 O104 2.471 . S
Eu81 O92 2.418 . S
Eu81 O93 2.384 . S
Eu81 O96 2.479 . S
Eu81 O97 2.471 . S
Eu81 O98 2.347 . S
Eu81 O101 2.366 . S
Eu81 C111 2.825 . S
C82 O98 1.259 . S
C82 O99 1.265 . S
C83 O100 1.255 . S
C83 O101 1.265 . S
C84 C86 1.380 . S
C84 C87 1.374 . S
C84 C90 1.507 . S
C85 C86 1.384 . S
C85 C89 1.387 . S
C85 H112 0.930 . S
C86 C84 1.380 . S
C86 C85 1.384 . S
C86 H113 0.931 . S
C87 C84 1.374 . S
C87 C88 1.390 . S
C87 H114 0.930 . S
C88 C87 1.390 . S
C88 C89 1.391 . S
C88 H115 0.930 . S
C89 C85 1.387 . S
C89 C88 1.391 . S
C90 Tb80 2.825 . S
C90 C84 1.507 . S
C90 O103 1.238 . S
C90 O104 1.247 . S
O91 Tb80 2.347 . S
O91 C95 1.259 . S
O92 Eu81 2.418 . S
O92 C95 1.265 . S
O93 Eu81 2.384 . S
O93 C102 1.255 . S
O94 Tb80 2.366 . S
O94 C102 1.265 . S
C95 O91 1.259 . S
C95 O92 1.265 . S
O96 Eu81 2.479 . S
O96 C111 1.238 . S
O97 Eu81 2.471 . S
O97 C111 1.247 . S
O98 Eu81 2.347 . S
O98 C82 1.259 . S
O99 Tb80 2.418 . S
O99 C82 1.265 . S
O100 Tb80 2.384 . S
O100 C83 1.255 . S
O101 Eu81 2.366 . S
O101 C83 1.265 . S
C102 O93 1.255 . S
C102 O94 1.265 . S
O103 Tb80 2.479 . S
O103 C90 1.238 . S
O104 Tb80 2.471 . S
O104 C90 1.247 . S
C105 C108 1.380 . S
C105 C109 1.374 . S
C105 C111 1.507 . S
C106 C107 1.387 . S
C106 C110 1.391 . S
C107 C106 1.387 . S
C107 C108 1.384 . S
C107 H116 0.930 . S
C108 C105 1.380 . S
C108 C107 1.384 . S
C108 H117 0.931 . S
C109 C105 1.374 . S
C109 C110 1.390 . S
C109 H118 0.930 . S
C110 C106 1.391 . S
C110 C109 1.390 . S
C110 H119 0.930 . S
C111 Eu81 2.825 . S
C111 O96 1.238 . S
C111 O97 1.247 . S
C111 C105 1.507 . S
H112 C85 0.930 . S
H113 C86 0.931 . S
H114 C87 0.930 . S
H115 C88 0.930 . S
H116 C107 0.930 . S
H117 C108 0.931 . S
H118 C109 0.930 . S
H119 C110 0.930 . S
H120 C121 0.949 . S
C121 H120 0.949 . S
C121 C122 1.395 . S
C121 C123 1.391 . S
C122 C121 1.395 . S
C122 C125 1.378 1_545 S
C123 C121 1.391 . S
C123 C127 1.387 . S
C123 C128 1.491 . S
H124 C125 0.961 . S
C125 C122 1.378 1_565 S
C125 H124 0.961 . S
C125 C126 1.380 . S
C126 C125 1.380 . S
C126 C127 1.409 1_565 S
C127 C123 1.387 . S
C127 C126 1.409 1_545 S
C127 H129 0.951 . S
C128 C123 1.491 . S
C128 C130 1.382 . S
C128 C132 1.404 . S
H129 C127 0.951 . S
C130 C128 1.382 . S
C130 C131 1.390 . S
C130 H135 0.949 . S
C131 C130 1.390 . S
C131 C136 1.399 . S
C132 C128 1.404 . S
C132 H133 0.950 . S
C132 C134 1.375 . S
H133 C132 0.950 . S
C134 C132 1.375 . S
C134 C136 1.382 . S
C134 H138 0.950 . S
H135 C130 0.949 . S
C136 C131 1.399 . S
C136 C134 1.382 . S
C136 H137 0.952 . S
H137 C136 0.952 . S
H138 C134 0.950 . S
H139 C140 0.949 . S
C140 H139 0.949 . S
C140 C141 1.395 . S
C140 C142 1.391 . S
C141 C140 1.395 . S
C141 C144 1.390 . S
C142 C140 1.391 . S
C142 C146 1.387 . S
C142 C147 1.491 . S
H143 C144 0.950 . S
C144 C141 1.390 . S
C144 H143 0.950 . S
C144 C145 1.378 . S
C145 C144 1.378 . S
C145 C146 1.409 . S
C146 C142 1.387 . S
C146 C145 1.409 . S
C146 H148 0.951 . S
C147 C142 1.491 . S
C147 C149 1.382 . S
C147 C151 1.404 . S
H148 C146 0.951 . S
C149 C147 1.382 . S
C149 C150 1.390 . S
C149 H154 0.949 . S
C150 C149 1.390 . S
C150 C155 1.399 . S
C151 C147 1.404 . S
C151 H152 0.950 . S
C151 C153 1.375 . S
H152 C151 0.950 . S
C153 C151 1.375 . S
C153 C155 1.382 . S
C153 H157 0.950 . S
H154 C149 0.949 . S
C155 C150 1.399 . S
C155 C153 1.382 . S
C155 H156 0.952 . S
H156 C155 0.952 . S
H157 C153 0.950 . S
H158 C159 0.949 . S
C159 H158 0.949 . S
C159 C160 1.395 . S
C159 C161 1.391 . S
C160 C159 1.395 . S
C160 C163 1.390 1_455 S
C161 C159 1.391 . S
C161 C165 1.387 1_455 S
C161 C166 1.491 . S
H162 C163 0.950 . S
C163 C160 1.390 1_655 S
C163 H162 0.950 . S
C163 C164 1.378 . S
C164 C163 1.378 . S
C164 C165 1.409 . S
C165 C161 1.387 1_655 S
C165 C164 1.409 . S
C165 H167 0.951 . S
C166 C161 1.491 . S
C166 C168 1.382 . S
C166 C170 1.404 . S
H167 C165 0.951 . S
C168 C166 1.382 . S
C168 C169 1.390 . S
C168 H173 0.949 . S
C169 C168 1.390 . S
C169 C174 1.399 . S
C170 C166 1.404 . S
C170 H171 0.950 . S
C170 C172 1.375 . S
H171 C170 0.950 . S
C172 C170 1.375 . S
C172 C174 1.382 . S
C172 H176 0.950 . S
H173 C168 0.949 . S
C174 C169 1.399 . S
C174 C172 1.382 . S
C174 H175 0.952 . S
H175 C174 0.952 . S
H176 C172 0.950 . S
H177 C178 0.949 1_655 S
C178 H177 0.949 1_455 S
C178 C179 1.395 . S
C178 C180 1.391 . S
C179 C178 1.395 . S
C179 C182 1.390 . S
C180 C178 1.391 . S
C180 C184 1.387 . S
C180 C185 1.491 1_455 S
H181 C182 0.950 . S
C182 C179 1.390 . S
C182 H181 0.950 . S
C182 C183 1.378 . S
C183 C182 1.378 . S
C183 C184 1.409 . S
C184 C180 1.387 . S
C184 C183 1.409 . S
C184 H186 0.951 . S
C185 C180 1.491 1_655 S
C185 C187 1.382 . S
C185 C189 1.404 . S
H186 C184 0.951 . S
C187 C185 1.382 . S
C187 C188 1.390 . S
C187 H192 0.949 . S
C188 C187 1.390 . S
C188 C193 1.399 . S
C189 C185 1.404 . S
C189 H190 0.950 . S
C189 C191 1.375 . S
H190 C189 0.950 . S
C191 C189 1.375 . S
C191 C193 1.382 . S
C191 H195 0.950 . S
H192 C187 0.949 . S
C193 C188 1.399 . S
C193 C191 1.382 . S
C193 H194 0.952 . S
H194 C193 0.952 . S
H195 C191 0.950 . S
H196 C197 0.949 1_565 S
C197 H196 0.949 1_545 S
C197 C198 1.395 . S
C197 C199 1.391 . S
C198 C197 1.395 . S
C198 C201 1.390 . S
C199 C197 1.391 . S
C199 C203 1.387 . S
C199 C204 1.491 1_545 S
H200 C201 0.950 . S
C201 C198 1.390 . S
C201 H200 0.950 . S
C201 C202 1.378 . S
C202 C201 1.378 . S
C202 C203 1.409 . S
C203 C199 1.387 . S
C203 C202 1.409 . S
C203 H205 0.951 . S
C204 C199 1.491 1_565 S
C204 C206 1.382 . S
C204 C208 1.404 . S
H205 C203 0.951 . S
C206 C204 1.382 . S
C206 C207 1.390 . S
C206 H211 0.949 . S
C207 C206 1.390 . S
C207 C212 1.399 . S
C208 C204 1.404 . S
C208 H209 0.950 . S
C208 C210 1.375 . S
H209 C208 0.950 . S
C210 C208 1.375 . S
C210 C212 1.382 . S
C210 H214 0.950 . S
H211 C206 0.949 . S
C212 C207 1.399 . S
C212 C210 1.382 . S
C212 H213 0.952 . S
H213 C212 0.952 . S
H214 C210 0.950 . S
H215 C216 0.949 . S
C216 H215 0.949 . S
C216 C217 1.395 . S
C216 C218 1.391 . S
C217 C216 1.395 . S
C217 C220 1.390 . S
C218 C216 1.391 . S
C218 C222 1.387 . S
C218 C223 1.491 . S
H219 C220 0.950 . S
C220 C217 1.390 . S
C220 H219 0.950 . S
C220 C221 1.378 . S
C221 C220 1.378 . S
C221 C222 1.409 . S
C222 C218 1.387 . S
C222 C221 1.409 . S
C222 H224 0.951 . S
C223 C218 1.491 . S
C223 C225 1.382 . S
C223 C227 1.404 . S
H224 C222 0.951 . S
C225 C223 1.382 . S
C225 C226 1.390 . S
C225 H230 0.949 . S
C226 C225 1.390 . S
C226 C231 1.399 . S
C227 C223 1.404 . S
C227 H228 0.950 . S
C227 C229 1.375 . S
H228 C227 0.950 . S
C229 C227 1.375 . S
C229 C231 1.382 . S
C229 H233 0.950 . S
H230 C225 0.949 . S
C231 C226 1.399 . S
C231 C229 1.382 . S
C231 H232 0.952 . S
H232 C231 0.952 . S
H233 C229 0.950 . S
C234 C235 1.387 . S
C234 H238 0.950 . S
C234 C243 1.390 . S
C235 C234 1.387 . S
C235 C237 1.387 . S
H236 C243 0.950 . S
C237 C235 1.387 . S
C237 C239 1.390 . S
C237 H241 0.950 . S
H238 C234 0.950 . S
C239 C237 1.390 . S
C239 C240 1.387 . S
C239 H242 0.950 . S
C240 C239 1.387 . S
C240 C243 1.387 . S
H241 C237 0.950 . S
H242 C239 0.950 . S
C243 C234 1.390 . S
C243 H236 0.950 . S
C243 C240 1.387 . S
C244 C245 1.387 . S
C244 H248 0.950 . S
C244 C253 1.390 . S
C245 C244 1.387 . S
C245 C247 1.387 . S
H246 C253 0.950 . S
C247 C245 1.387 . S
C247 C249 1.390 . S
C247 H251 0.950 . S
H248 C244 0.950 . S
C249 C247 1.390 . S
C249 C250 1.387 . S
C249 H252 0.950 . S
C250 C249 1.387 . S
C250 C253 1.387 . S
H251 C247 0.950 . S
H252 C249 0.950 . S
C253 C244 1.390 . S
C253 H246 0.950 . S
C253 C250 1.387 . S
C254 C255 1.387 . S
C254 H258 0.950 . S
C254 C263 1.390 . S
C255 C254 1.387 . S
C255 C257 1.387 . S
H256 C263 0.950 . S
C257 C255 1.387 . S
C257 C259 1.390 . S
C257 H261 0.950 . S
H258 C254 0.950 . S
C259 C257 1.390 . S
C259 C260 1.387 . S
C259 H262 0.950 . S
C260 C259 1.387 . S
C260 C263 1.387 . S
H261 C257 0.950 . S
H262 C259 0.950 . S
C263 C254 1.390 . S
C263 H256 0.950 . S
C263 C260 1.387 . S
C264 C265 1.387 . S
C264 H268 0.950 . S
C264 C273 1.390 . S
C265 C264 1.387 . S
C265 C267 1.387 . S
H266 C273 0.950 . S
C267 C265 1.387 . S
C267 C269 1.390 . S
C267 H271 0.950 . S
H268 C264 0.950 . S
C269 C267 1.390 . S
C269 C270 1.387 . S
C269 H272 0.950 . S
C270 C269 1.387 . S
C270 C273 1.387 . S
H271 C267 0.950 . S
H272 C269 0.950 . S
C273 C264 1.390 . S
C273 H266 0.950 . S
C273 C270 1.387 . S
C274 C275 1.387 . S
C274 H278 0.950 . S
C274 C283 1.390 . S
C275 C274 1.387 . S
C275 C277 1.387 . S
H276 C283 0.950 . S
C277 C275 1.387 . S
C277 C279 1.390 . S
C277 H281 0.950 . S
H278 C274 0.950 . S
C279 C277 1.390 . S
C279 C280 1.387 . S
C279 H282 0.950 . S
C280 C279 1.387 . S
C280 C283 1.387 . S
H281 C277 0.950 . S
H282 C279 0.950 . S
C283 C274 1.390 . S
C283 H276 0.950 . S
C283 C280 1.387 . S
C284 C285 1.387 . S
C284 H288 0.950 . S
C284 C293 1.390 . S
C285 C284 1.387 . S
C285 C287 1.387 . S
H286 C293 0.950 . S
C287 C285 1.387 . S
C287 C289 1.390 . S
C287 H291 0.950 . S
H288 C284 0.950 . S
C289 C287 1.390 . S
C289 C290 1.387 . S
C289 H292 0.950 . S
C290 C289 1.387 . S
C290 C293 1.387 . S
H291 C287 0.950 . S
H292 C289 0.950 . S
C293 C284 1.390 . S
C293 H286 0.950 . S
C293 C290 1.387 . S
C294 C295 1.387 . S
C294 H298 0.950 . S
C294 C303 1.390 . S
C295 C294 1.387 . S
C295 C297 1.387 . S
H296 C303 0.950 . S
C297 C295 1.387 . S
C297 C299 1.390 . S
C297 H301 0.950 . S
H298 C294 0.950 . S
C299 C297 1.390 . S
C299 C300 1.387 . S
C299 H302 0.950 . S
C300 C299 1.387 . S
C300 C303 1.387 . S
H301 C297 0.950 . S
H302 C299 0.950 . S
C303 C294 1.390 . S
C303 H296 0.950 . S
C303 C300 1.387 . S
C304 C305 1.387 . S
C304 H308 0.950 . S
C304 C313 1.390 . S
C305 C304 1.387 . S
C305 C307 1.387 . S
H306 C313 0.950 . S
C307 C305 1.387 . S
C307 C309 1.390 . S
C307 H311 0.950 . S
H308 C304 0.950 . S
C309 C307 1.390 . S
C309 C310 1.387 . S
C309 H312 0.950 . S
C310 C309 1.387 . S
C310 C313 1.387 . S
H311 C307 0.950 . S
H312 C309 0.950 . S
C313 C304 1.390 . S
C313 H306 0.950 . S
C313 C310 1.387 . S
C314 C315 1.387 . S
C314 H318 0.950 . S
C314 C323 1.390 . S
C315 C314 1.387 . S
C315 C317 1.387 . S
H316 C323 0.950 . S
C317 C315 1.387 . S
C317 C319 1.390 . S
C317 H321 0.950 . S
H318 C314 0.950 . S
C319 C317 1.390 . S
C319 C320 1.387 . S
C319 H322 0.950 . S
C320 C319 1.387 . S
C320 C323 1.387 . S
H321 C317 0.950 . S
H322 C319 0.950 . S
C323 C314 1.390 . S
C323 H316 0.950 . S
C323 C320 1.387 . S
C324 C325 1.387 . S
C324 H328 0.950 . S
C324 C333 1.390 . S
C325 C324 1.387 . S
C325 C327 1.387 . S
H326 C333 0.950 . S
C327 C325 1.387 . S
C327 C329 1.390 . S
C327 H331 0.950 . S
H328 C324 0.950 . S
C329 C327 1.390 . S
C329 C330 1.387 . S
C329 H332 0.950 . S
C330 C329 1.387 . S
C330 C333 1.387 . S
H331 C327 0.950 . S
H332 C329 0.950 . S
C333 C324 1.390 . S
C333 H326 0.950 . S
C333 C330 1.387 . S
C334 C335 1.387 . S
C334 H338 0.950 . S
C334 C343 1.390 . S
C335 C334 1.387 . S
C335 C337 1.387 . S
H336 C343 0.950 . S
C337 C335 1.387 . S
C337 C339 1.390 . S
C337 H341 0.950 . S
H338 C334 0.950 . S
C339 C337 1.390 . S
C339 C340 1.387 . S
C339 H342 0.950 . S
C340 C339 1.387 . S
C340 C343 1.387 . S
H341 C337 0.950 . S
H342 C339 0.950 . S
C343 C334 1.390 . S
C343 H336 0.950 . S
C343 C340 1.387 . S
C344 C345 1.387 . S
C344 H348 0.950 . S
C344 C353 1.390 . S
C345 C344 1.387 . S
C345 C347 1.387 . S
H346 C353 0.950 . S
C347 C345 1.387 . S
C347 C349 1.390 . S
C347 H351 0.950 . S
H348 C344 0.950 . S
C349 C347 1.390 . S
C349 C350 1.387 . S
C349 H352 0.950 . S
C350 C349 1.387 . S
C350 C353 1.387 . S
H351 C347 0.950 . S
H352 C349 0.950 . S
C353 C344 1.390 . S
C353 H346 0.950 . S
C353 C350 1.387 . S
C354 C355 1.387 . S
C354 H358 0.950 . S
C354 C363 1.390 1_554 S
C355 C354 1.387 . S
C355 C357 1.387 . S
H356 C363 0.950 . S
C357 C355 1.387 . S
C357 C359 1.390 . S
C357 H361 0.950 . S
H358 C354 0.950 . S
C359 C357 1.390 . S
C359 C360 1.387 1_554 S
C359 H362 0.950 1_554 S
C360 C359 1.387 1_556 S
C360 C363 1.387 . S
H361 C357 0.950 . S
H362 C359 0.950 1_556 S
C363 C354 1.390 1_556 S
C363 H356 0.950 . S
C363 C360 1.387 . S
C364 C365 1.387 . S
C364 H368 0.950 1_545 S
C364 C373 1.390 . S
C365 C364 1.387 . S
C365 C367 1.387 . S
H366 C373 0.950 1_565 S
C367 C365 1.387 . S
C367 C369 1.390 . S
C367 H371 0.950 . S
H368 C364 0.950 1_565 S
C369 C367 1.390 . S
C369 C370 1.387 . S
C369 H372 0.950 . S
C370 C369 1.387 . S
C370 C373 1.387 . S
H371 C367 0.950 . S
H372 C369 0.950 . S
C373 C364 1.390 . S
C373 H366 0.950 1_545 S
C373 C370 1.387 . S
C374 C375 1.387 . S
C374 H378 0.950 . S
C374 C383 1.390 . S
C375 C374 1.387 . S
C375 C377 1.387 . S
H376 C383 0.950 . S
C377 C375 1.387 . S
C377 C379 1.390 . S
C377 H381 0.950 . S
H378 C374 0.950 . S
C379 C377 1.390 . S
C379 C380 1.387 . S
C379 H382 0.950 . S
C380 C379 1.387 . S
C380 C383 1.387 . S
H381 C377 0.950 . S
H382 C379 0.950 . S
C383 C374 1.390 . S
C383 H376 0.950 . S
C383 C380 1.387 . S
C384 C385 1.387 . S
C384 H388 0.950 . S
C384 C393 1.390 . S
C385 C384 1.387 . S
C385 C387 1.387 . S
H386 C393 0.950 . S
C387 C385 1.387 . S
C387 C389 1.390 . S
C387 H391 0.950 . S
H388 C384 0.950 . S
C389 C387 1.390 . S
C389 C390 1.387 . S
C389 H392 0.950 . S
C390 C389 1.387 . S
C390 C393 1.387 . S
H391 C387 0.950 . S
H392 C389 0.950 . S
C393 C384 1.390 . S
C393 H386 0.950 . S
C393 C390 1.387 . S
C394 C395 1.387 . S
C394 H398 0.950 . S
C394 C403 1.390 1_556 S
C395 C394 1.387 . S
C395 C397 1.387 . S
H396 C403 0.950 . S
C397 C395 1.387 . S
C397 C399 1.390 . S
C397 H401 0.950 . S
H398 C394 0.950 . S
C399 C397 1.390 . S
C399 C400 1.387 1_556 S
C399 H402 0.949 1_556 S
C400 C399 1.387 1_554 S
C400 C403 1.387 . S
H401 C397 0.950 . S
H402 C399 0.949 1_554 S
C403 C394 1.390 1_554 S
C403 H396 0.950 . S
C403 C400 1.387 . S
C404 C405 1.387 . S
C404 H408 0.950 . S
C404 C413 1.390 . S
C405 C404 1.387 . S
C405 C407 1.387 . S
H406 C413 0.950 . S
C407 C405 1.387 . S
C407 C409 1.390 . S
C407 H411 0.950 . S
H408 C404 0.950 . S
C409 C407 1.390 . S
C409 C410 1.387 . S
C409 H412 0.950 . S
C410 C409 1.387 . S
C410 C413 1.387 . S
H411 C407 0.950 . S
H412 C409 0.950 . S
C413 C404 1.390 . S
C413 H406 0.950 . S
C413 C410 1.387 . S
C235 C9 0.874 . S
C240 C226 0.812 . S
C245 C49 0.629 . S
C250 C188 0.693 . S
C255 C89 0.507 . S
C260 C207 0.623 . S
C265 C26 0.627 . S
C270 C221 0.592 . S
C280 C183 0.297 . S
C275 C66 0.515 . S
C290 C202 0.410 . S
C285 C106 0.604 . S
C295 C43 3.129 . S
C300 C150 3.040 . S
C305 C83 3.076 . S
C310 C164 3.026 . S
C315 C22 3.109 . S
C320 C126 3.052 . S
C330 C145 3.051 . S
C325 C62 3.105 . S
C340 C169 3.058 . S
C335 C102 3.146 . S
C345 C3 3.130 . S
C350 C131 3.042 . S
C360 C160 1.749 . S
C355 C15 1.738 . S
C365 C55 1.775 . S
C370 C122 1.775 . S
C375 C95 1.754 . S
C380 C141 1.772 . S
C390 C198 1.243 . S
C385 C42 1.213 . S
C400 C217 1.260 . S
C395 C82 1.266 . S
C405 C2 1.198 . S
C410 C179 1.226 . S
