# Generated by pormake.
# Topology cml, (3,6)-cn, num edge types: 1
# Building blocks:
#     Node 0, Type 0, BuildingBlock: BETDAH_clean_linker_0, # of connection points: 3
#     Node 1, Type 0, BuildingBlock: BETDAH_clean_linker_0, # of connection points: 3
#     Node 2, Type 0, BuildingBlock: BETDAH_clean_linker_0, # of connection points: 3
#     Node 3, Type 0, BuildingBlock: BETDAH_clean_linker_0, # of connection points: 3
#     Node 4, Type 0, BuildingBlock: BETDAH_clean_linker_0, # of connection points: 3
#     Node 5, Type 0, BuildingBlock: BETDAH_clean_linker_0, # of connection points: 3
#     Node 6, Type 0, BuildingBlock: BETDAH_clean_linker_0, # of connection points: 3
#     Node 7, Type 0, BuildingBlock: BETDAH_clean_linker_0, # of connection points: 3
#     Node 8, Type 1, BuildingBlock: IZENUY_clean_sbu_0, # of connection points: 6
#     Node 9, Type 1, BuildingBlock: IZENUY_clean_sbu_0, # of connection points: 6
#     Node 10, Type 1, BuildingBlock: IZENUY_clean_sbu_0, # of connection points: 6
#     Node 11, Type 1, BuildingBlock: IZENUY_clean_sbu_0, # of connection points: 6
#     Edge 12, Type (0, 1), BuildingBlock: ZUJKAS_clean_linker_0, # of connection points: 2
#     Edge 13, Type (0, 1), BuildingBlock: ZUJKAS_clean_linker_0, # of connection points: 2
#     Edge 14, Type (0, 1), BuildingBlock: ZUJKAS_clean_linker_0, # of connection points: 2
#     Edge 15, Type (0, 1), BuildingBlock: ZUJKAS_clean_linker_0, # of connection points: 2
#     Edge 16, Type (0, 1), BuildingBlock: ZUJKAS_clean_linker_0, # of connection points: 2
#     Edge 17, Type (0, 1), BuildingBlock: ZUJKAS_clean_linker_0, # of connection points: 2
#     Edge 18, Type (0, 1), BuildingBlock: ZUJKAS_clean_linker_0, # of connection points: 2
#     Edge 19, Type (0, 1), BuildingBlock: ZUJKAS_clean_linker_0, # of connection points: 2
#     Edge 20, Type (0, 1), BuildingBlock: ZUJKAS_clean_linker_0, # of connection points: 2
#     Edge 21, Type (0, 1), BuildingBlock: ZUJKAS_clean_linker_0, # of connection points: 2
#     Edge 22, Type (0, 1), BuildingBlock: ZUJKAS_clean_linker_0, # of connection points: 2
#     Edge 23, Type (0, 1), BuildingBlock: ZUJKAS_clean_linker_0, # of connection points: 2
#     Edge 24, Type (0, 1), BuildingBlock: ZUJKAS_clean_linker_0, # of connection points: 2
#     Edge 25, Type (0, 1), BuildingBlock: ZUJKAS_clean_linker_0, # of connection points: 2
#     Edge 26, Type (0, 1), BuildingBlock: ZUJKAS_clean_linker_0, # of connection points: 2
#     Edge 27, Type (0, 1), BuildingBlock: ZUJKAS_clean_linker_0, # of connection points: 2
#     Edge 28, Type (0, 1), BuildingBlock: ZUJKAS_clean_linker_0, # of connection points: 2
#     Edge 29, Type (0, 1), BuildingBlock: ZUJKAS_clean_linker_0, # of connection points: 2
#     Edge 30, Type (0, 1), BuildingBlock: ZUJKAS_clean_linker_0, # of connection points: 2
#     Edge 31, Type (0, 1), BuildingBlock: ZUJKAS_clean_linker_0, # of connection points: 2
#     Edge 32, Type (0, 1), BuildingBlock: ZUJKAS_clean_linker_0, # of connection points: 2
#     Edge 33, Type (0, 1), BuildingBlock: ZUJKAS_clean_linker_0, # of connection points: 2
#     Edge 34, Type (0, 1), BuildingBlock: ZUJKAS_clean_linker_0, # of connection points: 2
#     Edge 35, Type (0, 1), BuildingBlock: ZUJKAS_clean_linker_0, # of connection points: 2
# Relax obj value: 0.003
# Max RMSD: 0.067
# Mean RMSD: 0.052
data_MOF--net-cml--node1-IZENUY_clean_sbu_0--node2-BETDAH_clean_linker_0--edge1-ZUJKAS_clean_linker_0
_symmetry_space_group_name_H-M    P1
_symmetry_Int_Tables_number       1
_symmetry_cell_setting            triclinic
loop_
_symmetry_equiv_pos_as_xyz
'x, y, z'
_cell_length_a     48.148362
_cell_length_b     53.674007
_cell_length_c     47.151631
_cell_angle_alpha  89.465943
_cell_angle_beta   90.749436
_cell_angle_gamma 91.097602
loop_
_atom_site_label
_atom_site_type_symbol
_atom_site_fract_x
_atom_site_fract_y
_atom_site_fract_z
_atom_type_partial_charge
H0 H 0.34355 0.40362 0.02064 0.0
H1 H 0.26656 0.39107 0.97498 0.0
H2 H 0.27873 0.35832 0.05766 0.0
C3 C 0.32312 0.39482 0.01921 0.0
C4 C 0.31343 0.38014 0.04189 0.0
C5 C 0.30639 0.39893 0.99505 0.0
C6 C 0.27979 0.38765 0.99331 0.0
C7 C 0.27006 0.37265 0.01587 0.0
C8 C 0.28678 0.36926 0.04005 0.0
N9 N 0.24285 0.36213 0.01598 0.0
C10 C 0.22929 0.35221 0.99237 0.0
H11 H 0.67021 0.59907 0.52559 0.0
H12 H 0.7315 0.62939 0.46821 0.0
H13 H 0.71998 0.66268 0.5498 0.0
C14 C 0.68626 0.61283 0.5207 0.0
C15 C 0.6936 0.63077 0.54096 0.0
C16 C 0.69964 0.61212 0.49436 0.0
C17 C 0.72123 0.62958 0.4885 0.0
C18 C 0.72842 0.64795 0.5087 0.0
C19 C 0.71458 0.64827 0.53463 0.0
N20 N 0.74829 0.66738 0.50389 0.0
C21 C 0.76798 0.66924 0.48262 0.0
H22 H 0.67479 0.40426 0.03119 0.0
H23 H 0.73477 0.41102 0.96467 0.0
H24 H 0.74594 0.35685 0.0315 0.0
C25 C 0.69374 0.39825 0.02134 0.0
C26 C 0.70919 0.37919 0.03419 0.0
C27 C 0.70271 0.40987 0.99624 0.0
C28 C 0.72732 0.40199 0.98385 0.0
C29 C 0.74277 0.38271 0.99606 0.0
C30 C 0.73378 0.37134 0.02147 0.0
N31 N 0.76779 0.37624 0.98264 0.0
C32 C 0.78071 0.35337 0.98503 0.0
H33 H 0.35337 0.59418 0.53031 0.0
H34 H 0.29695 0.655 0.51859 0.0
H35 H 0.30615 0.60096 0.45287 0.0
C36 C 0.33847 0.60415 0.51728 0.0
C37 C 0.33114 0.59485 0.49048 0.0
C38 C 0.32638 0.62589 0.52766 0.0
C39 C 0.30623 0.63816 0.51095 0.0
C40 C 0.29904 0.62899 0.48387 0.0
C41 C 0.31155 0.60755 0.47395 0.0
N42 N 0.28007 0.64095 0.46525 0.0
C43 C 0.26253 0.66018 0.47192 0.0
H44 H 0.84277 0.9 0.02664 0.0
H45 H 0.76688 0.90135 0.97731 0.0
H46 H 0.77113 0.85735 0.05355 0.0
C47 C 0.82176 0.89319 0.02266 0.0
C48 C 0.80926 0.8769 0.04245 0.0
C49 C 0.80683 0.90222 0.999 0.0
C50 C 0.779 0.8944 0.99512 0.0
C51 C 0.76631 0.87805 0.01457 0.0
C52 C 0.78138 0.86942 0.03822 0.0
N53 N 0.73741 0.87314 0.01247 0.0
C54 C 0.72635 0.85226 0.99894 0.0
H55 H 0.16658 0.10242 0.51692 0.0
H56 H 0.23494 0.12552 0.46384 0.0
H57 H 0.22458 0.15863 0.5457 0.0
C58 C 0.18482 0.11411 0.51323 0.0
C59 C 0.19357 0.13094 0.53419 0.0
C60 C 0.19938 0.11201 0.48767 0.0
C61 C 0.22336 0.12711 0.48326 0.0
C62 C 0.23227 0.14414 0.50431 0.0
C63 C 0.21731 0.1458 0.52947 0.0
N64 N 0.25661 0.1594 0.50207 0.0
C65 C 0.2717 0.16513 0.47783 0.0
H66 H 0.17924 0.91536 0.02995 0.0
H67 H 0.24452 0.91731 0.96868 0.0
H68 H 0.24999 0.86799 0.04071 0.0
C69 C 0.19895 0.90865 0.02256 0.0
C70 C 0.21324 0.89063 0.03861 0.0
C71 C 0.20982 0.9182 0.99716 0.0
C72 C 0.23529 0.90943 0.98769 0.0
C73 C 0.24948 0.89104 0.00297 0.0
C74 C 0.23833 0.88139 0.0283 0.0
N75 N 0.27665 0.88515 0.99452 0.0
C76 C 0.28498 0.86123 0.98822 0.0
H77 H 0.84765 0.09172 0.53527 0.0
H78 H 0.79664 0.1557 0.52069 0.0
H79 H 0.8103 0.10445 0.45318 0.0
C80 C 0.83485 0.10278 0.52111 0.0
C81 C 0.83019 0.095 0.49309 0.0
C82 C 0.82321 0.12481 0.53116 0.0
C83 C 0.80553 0.13861 0.51322 0.0
C84 C 0.80083 0.13096 0.48505 0.0
C85 C 0.81342 0.10952 0.4752 0.0
N86 N 0.78483 0.14484 0.46529 0.0
C87 C 0.76533 0.16246 0.47202 0.0
Fe88 Fe 0.02221 0.83308 0.32404 0.0
Fe89 Fe 0.02055 0.86335 0.37894 0.0
O90 O 0.02094 0.86219 0.34139 0.0
Fe91 Fe 0.01998 0.8901 0.32116 0.0
O92 O 0.98791 0.88044 0.3036 0.0
O93 O 1.00155 0.84292 0.29287 0.0
O94 O 0.98982 0.8228 0.33976 0.0
C95 C 0.98524 0.82172 0.366 0.0
C96 C 0.05779 0.86038 0.29102 0.0
O97 O 1.00069 0.83372 0.38337 0.0
C98 C 0.05556 0.90476 0.3637 0.0
O99 O 0.04301 0.81783 0.35211 0.0
O100 O 0.05356 0.84802 0.3817 0.0
O101 O 0.04117 0.87838 0.29221 0.0
O102 O 0.05465 0.84151 0.30689 0.0
C103 C 0.98309 0.89932 0.3663 0.0
O104 O 0.04019 0.89321 0.38136 0.0
O105 O 0.05197 0.90172 0.33739 0.0
C106 C 0.0584 0.82694 0.37159 0.0
O107 O 0.98756 0.87892 0.37881 0.0
O108 O 0.99861 0.90692 0.3464 0.0
C109 C 0.98486 0.86072 0.28947 0.0
Fe110 Fe 1.00246 0.13936 0.87949 0.0
Fe111 Fe 0.99805 0.11288 0.82218 0.0
O112 O 0.99956 0.14075 0.84199 0.0
Fe113 Fe 0.99815 0.17003 0.82435 0.0
O114 O 0.03176 0.1795 0.83869 0.0
O115 O 0.02312 0.16846 0.88271 0.0
O116 O 0.03498 0.12299 0.87801 0.0
C117 C 0.03798 0.10255 0.8655 0.0
C118 C 0.96504 0.1767 0.87313 0.0
O119 O 0.0207 0.09539 0.84662 0.0
C120 C 0.95937 0.14386 0.79337 0.0
O121 O 0.98239 0.11 0.88321 0.0
O122 O 0.9669 0.10217 0.84014 0.0
O123 O 0.97948 0.18555 0.85295 0.0
O124 O 0.97007 0.1555 0.88352 0.0
C125 C 0.03189 0.14134 0.78835 0.0
O126 O 0.97522 0.12528 0.7941 0.0
O127 O 0.96445 0.16259 0.80866 0.0
C128 C 0.96523 0.09916 0.86662 0.0
O129 O 0.02901 0.1216 0.80281 0.0
O130 O 0.01651 0.15984 0.79255 0.0
C131 C 0.03771 0.1804 0.86477 0.0
Fe132 Fe 0.52479 0.33418 0.3244 0.0
Fe133 Fe 0.52185 0.36421 0.37943 0.0
O134 O 0.5241 0.36324 0.34196 0.0
Fe135 Fe 0.52549 0.39141 0.32217 0.0
O136 O 0.49393 0.38327 0.30289 0.0
O137 O 0.50561 0.34498 0.29271 0.0
O138 O 0.49148 0.32473 0.33874 0.0
C139 C 0.4858 0.32357 0.36472 0.0
C140 C 0.56289 0.36049 0.29313 0.0
O141 O 0.50082 0.33515 0.38279 0.0
C142 C 0.5594 0.40441 0.36652 0.0
O143 O 0.54408 0.31823 0.3531 0.0
O144 O 0.55407 0.34787 0.38371 0.0
O145 O 0.54739 0.37925 0.29408 0.0
O146 O 0.55809 0.34151 0.30839 0.0
C147 C 0.48659 0.40143 0.36518 0.0
O148 O 0.54244 0.39351 0.38315 0.0
O149 O 0.5572 0.40146 0.34009 0.0
C150 C 0.55884 0.32683 0.3734 0.0
O151 O 0.48944 0.38069 0.37748 0.0
O152 O 0.50378 0.40883 0.34665 0.0
C153 C 0.49028 0.36367 0.28867 0.0
Fe154 Fe 0.49592 0.63796 0.88397 0.0
Fe155 Fe 0.49648 0.61201 0.82614 0.0
O156 O 0.49655 0.63967 0.84639 0.0
Fe157 Fe 0.49738 0.66912 0.82896 0.0
O158 O 0.52994 0.67776 0.84636 0.0
O159 O 0.51745 0.66629 0.88931 0.0
O160 O 0.52782 0.62054 0.88562 0.0
C161 C 0.53168 0.6003 0.87304 0.0
C162 C 0.46063 0.67657 0.87465 0.0
O163 O 0.51635 0.59381 0.85227 0.0
C164 C 0.46096 0.64391 0.79433 0.0
O165 O 0.47435 0.60932 0.88532 0.0
O166 O 0.46368 0.60137 0.84076 0.0
O167 O 0.47695 0.68498 0.85583 0.0
O168 O 0.46394 0.65518 0.88524 0.0
C169 C 0.5335 0.64025 0.79586 0.0
O170 O 0.47651 0.62515 0.79624 0.0
O171 O 0.4649 0.66241 0.81032 0.0
C172 C 0.45904 0.59859 0.86687 0.0
O173 O 0.52937 0.62056 0.81008 0.0
O174 O 0.51792 0.65878 0.79875 0.0
C175 C 0.53389 0.67798 0.87287 0.0
H176 H 0.17398 0.35411 0.98614 0.0
H177 H 0.14426 0.32542 0.95856 0.0
H178 H 0.21709 0.29032 0.92615 0.0
H179 H 0.24682 0.31882 0.9543 0.0
H180 H 0.13868 0.31348 0.90178 0.0
H181 H 0.17595 0.2328 0.96547 0.0
H182 H 0.18359 0.26463 0.97524 0.0
H183 H 0.20264 0.25029 0.94743 0.0
C184 C 0.18355 0.3406 0.97261 0.0
C185 C 0.21249 0.33857 0.97207 0.0
C186 C 0.16662 0.32419 0.95695 0.0
C187 C 0.17844 0.30544 0.94069 0.0
C188 C 0.20753 0.30435 0.93897 0.0
H189 H 0.07473 0.20754 0.83264 0.0
H190 H 0.1103 0.23735 0.84919 0.0
C191 C 0.22447 0.32073 0.95475 0.0
C192 C 0.16017 0.28625 0.92715 0.0
H193 H 0.14305 0.22419 0.92932 0.0
C194 C 0.13974 0.29392 0.90761 0.0
C195 C 0.16133 0.26079 0.93516 0.0
C196 C 0.18186 0.25157 0.95715 0.0
C197 C 0.12025 0.27688 0.89607 0.0
C198 C 0.12157 0.2514 0.90391 0.0
C199 C 0.14221 0.2437 0.92319 0.0
C200 C 0.10078 0.23264 0.89366 0.0
C201 C 0.09779 0.2865 0.87645 0.0
C202 C 0.08426 0.21943 0.91321 0.0
C203 C 0.06411 0.20218 0.90387 0.0
C204 C 0.06004 0.19779 0.87473 0.0
C205 C 0.07709 0.21065 0.85521 0.0
C206 C 0.09735 0.22781 0.86461 0.0
H207 H 0.09567 0.30701 0.87803 0.0
H208 H 0.10308 0.28215 0.85423 0.0
H209 H 0.07742 0.27746 0.88121 0.0
H210 H 0.08665 0.22276 0.93575 0.0
H211 H 0.05145 0.19259 0.9195 0.0
H212 H 0.76888 0.6828 0.42687 0.0
H213 H 0.80733 0.70489 0.40279 0.0
H214 H 0.85728 0.69948 0.4792 0.0
H215 H 0.81944 0.6768 0.50263 0.0
H216 H 0.82851 0.74898 0.41643 0.0
H217 H 0.91413 0.68206 0.4227 0.0
H218 H 0.8786 0.67292 0.42967 0.0
H219 H 0.89988 0.68714 0.45702 0.0
C220 C 0.7885 0.68558 0.43802 0.0
C221 C 0.79161 0.67769 0.46629 0.0
C222 C 0.81036 0.69837 0.4244 0.0
C223 C 0.83552 0.70356 0.43897 0.0
C224 C 0.83859 0.69508 0.4671 0.0
H225 H 0.9751 0.8066 0.42086 0.0
H226 H 0.93849 0.77776 0.43744 0.0
C227 C 0.81691 0.68216 0.48054 0.0
C228 C 0.85747 0.71985 0.42598 0.0
H229 H 0.92751 0.7251 0.41524 0.0
C230 C 0.85008 0.74356 0.4158 0.0
C231 C 0.88572 0.71293 0.42517 0.0
C232 C 0.89499 0.68727 0.43396 0.0
C233 C 0.87017 0.76071 0.40575 0.0
C234 C 0.89843 0.75404 0.40584 0.0
C235 C 0.90584 0.73026 0.41551 0.0
C236 C 0.92055 0.77153 0.39577 0.0
C237 C 0.86121 0.78614 0.39576 0.0
C238 C 0.92265 0.77746 0.36684 0.0
C239 C 0.94359 0.79378 0.35728 0.0
C240 C 0.96286 0.80462 0.37647 0.0
C241 C 0.96061 0.79868 0.40551 0.0
C242 C 0.93975 0.78215 0.41502 0.0
H243 H 0.83932 0.78986 0.40127 0.0
H244 H 0.87485 0.80088 0.40519 0.0
H245 H 0.86315 0.78744 0.37236 0.0
H246 H 0.90816 0.76932 0.35162 0.0
H247 H 0.94461 0.79793 0.33479 0.0
H248 H 0.76188 0.30788 0.96896 0.0
H249 H 0.79054 0.27272 0.95498 0.0
H250 H 0.86454 0.31505 0.97759 0.0
H251 H 0.83587 0.34983 0.99201 0.0
H252 H 0.827 0.27461 0.91235 0.0
H253 H 0.88282 0.24769 0.01082 0.0
H254 H 0.85252 0.26699 0.01096 0.0
H255 H 0.88622 0.28045 0.00355 0.0
C256 C 0.78423 0.30922 0.97176 0.0
C257 C 0.79682 0.3312 0.9819 0.0
C258 C 0.80058 0.28926 0.96364 0.0
C259 C 0.82973 0.29107 0.96556 0.0
C260 C 0.84215 0.31288 0.97659 0.0
H261 H 0.95155 0.22478 0.85968 0.0
H262 H 0.91735 0.25076 0.88238 0.0
C263 C 0.82579 0.33277 0.98476 0.0
C264 C 0.84723 0.27147 0.95323 0.0
H265 H 0.90309 0.23476 0.96705 0.0
C266 C 0.84339 0.26566 0.92444 0.0
C267 C 0.86846 0.25955 0.969 0.0
C268 C 0.87258 0.26379 1.00037 0.0
C269 C 0.86083 0.24903 0.91075 0.0
C270 C 0.88311 0.23829 0.9261 0.0
C271 C 0.88626 0.24328 0.95517 0.0
C272 C 0.90372 0.22232 0.91221 0.0
C273 C 0.85521 0.24314 0.87995 0.0
C274 C 0.90794 0.19785 0.92185 0.0
C275 C 0.92767 0.18296 0.90903 0.0
C276 C 0.94373 0.19231 0.88641 0.0
C277 C 0.93948 0.21689 0.87691 0.0
C278 C 0.9198 0.23175 0.88977 0.0
H279 H 0.83324 0.24663 0.87388 0.0
H280 H 0.86861 0.2553 0.8665 0.0
H281 H 0.85989 0.22343 0.87529 0.0
H282 H 0.89587 0.19022 0.93922 0.0
H283 H 0.93038 0.16414 0.91694 0.0
H284 H 0.21044 0.65301 0.45403 0.0
H285 H 0.17626 0.68508 0.44379 0.0
H286 H 0.23263 0.74109 0.47783 0.0
H287 H 0.26737 0.7088 0.48721 0.0
H288 H 0.14888 0.71876 0.47416 0.0
H289 H 0.21972 0.76711 0.39829 0.0
H290 H 0.22741 0.73708 0.41359 0.0
H291 H 0.2327 0.76491 0.43407 0.0
C292 C 0.21524 0.67212 0.45981 0.0
C293 C 0.24125 0.67864 0.47141 0.0
C294 C 0.19578 0.69043 0.45392 0.0
C295 C 0.20207 0.71557 0.45951 0.0
C296 C 0.22759 0.72189 0.47273 0.0
H297 H 0.09929 0.8422 0.4087 0.0
H298 H 0.13441 0.81658 0.43228 0.0
C299 C 0.24724 0.7035 0.4784 0.0
C300 C 0.18235 0.73489 0.44981 0.0
H301 H 0.17499 0.7833 0.40283 0.0
C302 C 0.15467 0.73301 0.45876 0.0
C303 C 0.1899 0.75343 0.42957 0.0
C304 C 0.21896 0.75572 0.41808 0.0
C305 C 0.13424 0.74874 0.44757 0.0
C306 C 0.14169 0.76677 0.4269 0.0
C307 C 0.16947 0.76937 0.4187 0.0
C308 C 0.12063 0.78227 0.4125 0.0
C309 C 0.10472 0.74578 0.45755 0.0
C310 C 0.10166 0.77144 0.39321 0.0
C311 C 0.08173 0.78601 0.37949 0.0
C312 C 0.08035 0.81166 0.38498 0.0
C313 C 0.09968 0.82248 0.40411 0.0
C314 C 0.11976 0.80791 0.41761 0.0
H315 H 0.10338 0.73458 0.47744 0.0
H316 H 0.09548 0.76427 0.46113 0.0
H317 H 0.09208 0.73618 0.44094 0.0
H318 H 0.10229 0.75169 0.38878 0.0
H319 H 0.06718 0.77709 0.36491 0.0
H320 H 0.7182 0.84529 0.9428 0.0
H321 H 0.68798 0.81331 0.92057 0.0
H322 H 0.67045 0.78186 0.00309 0.0
H323 H 0.70046 0.8139 0.02526 0.0
H324 H 0.68795 0.75934 0.9235 0.0
H325 H 0.59334 0.79966 0.96953 0.0
H326 H 0.62621 0.81637 0.96846 0.0
H327 H 0.62034 0.79251 0.9948 0.0
C328 C 0.70816 0.83127 0.95603 0.0
C329 C 0.71149 0.83182 0.9856 0.0
C330 C 0.69094 0.81309 0.94339 0.0
C331 C 0.67668 0.79545 0.96023 0.0
C332 C 0.68094 0.79551 0.98976 0.0
H333 H 0.5485 0.68319 0.92883 0.0
H334 H 0.58449 0.71054 0.94922 0.0
C335 C 0.69817 0.81366 0.00237 0.0
C336 C 0.65643 0.77768 0.94709 0.0
H337 H 0.58747 0.76161 0.94516 0.0
C338 C 0.66596 0.75983 0.92814 0.0
C339 C 0.62776 0.77844 0.95314 0.0
C340 C 0.61616 0.79789 0.97239 0.0
C341 C 0.64762 0.74233 0.91555 0.0
C342 C 0.61894 0.74305 0.9217 0.0
C343 C 0.60946 0.761 0.94055 0.0
C344 C 0.59826 0.72544 0.90888 0.0
C345 C 0.65919 0.72288 0.89632 0.0
C346 C 0.59395 0.72473 0.87939 0.0
C347 C 0.57337 0.70906 0.86761 0.0
C348 C 0.55648 0.69393 0.88514 0.0
C349 C 0.56102 0.69459 0.91467 0.0
C350 C 0.58162 0.71022 0.92639 0.0
H351 H 0.68188 0.72063 0.8998 0.0
H352 H 0.6486 0.70454 0.89963 0.0
H353 H 0.65579 0.72866 0.87391 0.0
H354 H 0.60612 0.73669 0.86549 0.0
H355 H 0.57043 0.70911 0.8448 0.0
H356 H 0.26165 0.20079 0.43836 0.0
H357 H 0.29683 0.22615 0.41337 0.0
H358 H 0.36147 0.1817 0.4512 0.0
H359 H 0.32629 0.15616 0.47558 0.0
H360 H 0.33575 0.25477 0.43916 0.0
H361 H 0.3885 0.18761 0.37086 0.0
H362 H 0.35539 0.18067 0.38694 0.0
H363 H 0.38713 0.1773 0.40711 0.0
C364 C 0.28333 0.19593 0.44039 0.0
C365 C 0.29136 0.17627 0.45829 0.0
C366 C 0.30343 0.21054 0.42636 0.0
C367 C 0.33189 0.20573 0.4301 0.0
C368 C 0.33973 0.18546 0.44732 0.0
H369 H 0.46925 0.31289 0.41919 0.0
H370 H 0.43149 0.28479 0.43427 0.0
C371 C 0.31962 0.17084 0.46125 0.0
C372 C 0.35336 0.22327 0.41842 0.0
H373 H 0.41292 0.22618 0.3797 0.0
C374 C 0.35247 0.24853 0.42593 0.0
C375 C 0.37511 0.21528 0.40095 0.0
C376 C 0.37649 0.18878 0.39074 0.0
C377 C 0.373 0.2658 0.4171 0.0
C378 C 0.39545 0.25757 0.40076 0.0
C379 C 0.39595 0.23246 0.39257 0.0
C380 C 0.41846 0.27473 0.39171 0.0
C381 C 0.37025 0.29278 0.42512 0.0
C382 C 0.42421 0.27806 0.3628 0.0
C383 C 0.44591 0.29398 0.35412 0.0
C384 C 0.46255 0.30688 0.37416 0.0
C385 C 0.45683 0.30341 0.40315 0.0
C386 C 0.43511 0.28743 0.41181 0.0
H387 H 0.34849 0.29722 0.43046 0.0
H388 H 0.38346 0.29667 0.44409 0.0
H389 H 0.37715 0.30538 0.40767 0.0
H390 H 0.41175 0.26843 0.34688 0.0
H391 H 0.44963 0.29614 0.33161 0.0
H392 H 0.30412 0.8553 0.93596 0.0
H393 H 0.33086 0.82032 0.9185 0.0
H394 H 0.32199 0.78277 0.99924 0.0
H395 H 0.29518 0.81805 0.01686 0.0
H396 H 0.38261 0.80401 0.9501 0.0
H397 H 0.30197 0.72941 0.93408 0.0
H398 H 0.29355 0.76208 0.93279 0.0
H399 H 0.30156 0.74746 0.96614 0.0
C400 C 0.30747 0.83934 0.94976 0.0
C401 C 0.2976 0.83909 0.97758 0.0
C402 C 0.32274 0.81945 0.93982 0.0
C403 C 0.32822 0.79894 0.95752 0.0
C404 C 0.31766 0.79833 0.98518 0.0
H405 H 0.42827 0.66855 0.92155 0.0
H406 H 0.39595 0.69749 0.9428 0.0
C407 C 0.30243 0.81839 0.9952 0.0
C408 C 0.34693 0.77936 0.94756 0.0
H409 H 0.34807 0.71984 0.92267 0.0
C410 C 0.37512 0.78556 0.94421 0.0
C411 C 0.33707 0.75529 0.94019 0.0
C412 C 0.30688 0.74798 0.9433 0.0
C413 C 0.39376 0.7684 0.93337 0.0
C414 C 0.38376 0.74459 0.92489 0.0
C415 C 0.35565 0.73814 0.92896 0.0
C416 C 0.40215 0.72647 0.91119 0.0
C417 C 0.42405 0.7759 0.93136 0.0
C418 C 0.41579 0.73286 0.88594 0.0
C419 C 0.43439 0.71649 0.87386 0.0
C420 C 0.43952 0.69319 0.88658 0.0
C421 C 0.42494 0.68639 0.91126 0.0
C422 C 0.40643 0.70289 0.92344 0.0
H423 H 0.42959 0.79117 0.94627 0.0
H424 H 0.43769 0.75987 0.93598 0.0
H425 H 0.42836 0.78273 0.90954 0.0
H426 H 0.41225 0.75069 0.8757 0.0
H427 H 0.44494 0.72221 0.85465 0.0
H428 H 0.76847 0.21129 0.48581 0.0
H429 H 0.73186 0.24199 0.47749 0.0
H430 H 0.67649 0.18322 0.44811 0.0
H431 H 0.71266 0.15272 0.45717 0.0
H432 H 0.71068 0.2525 0.42648 0.0
H433 H 0.62426 0.22192 0.49521 0.0
H434 H 0.65911 0.21067 0.50013 0.0
H435 H 0.63602 0.19667 0.47417 0.0
C436 C 0.7481 0.20499 0.47852 0.0
C437 C 0.74297 0.17982 0.47246 0.0
C438 C 0.7273 0.22246 0.47364 0.0
C439 C 0.70124 0.21488 0.46257 0.0
C440 C 0.69604 0.18947 0.45745 0.0
H441 H 0.5686 0.27737 0.36463 0.0
H442 H 0.60362 0.25159 0.3882 0.0
C443 C 0.71673 0.17206 0.46249 0.0
C444 C 0.68073 0.23356 0.45302 0.0
H445 H 0.61173 0.24718 0.45436 0.0
C446 C 0.68917 0.25163 0.43301 0.0
C447 C 0.65262 0.2324 0.46148 0.0
C448 C 0.64256 0.21452 0.48415 0.0
C449 C 0.67003 0.26782 0.42033 0.0
C450 C 0.6418 0.26585 0.42787 0.0
C451 C 0.63342 0.24837 0.44847 0.0
C452 C 0.62058 0.28146 0.41398 0.0
C453 C 0.67982 0.28635 0.3982 0.0
C454 C 0.61865 0.30669 0.42082 0.0
C455 C 0.59866 0.32145 0.40751 0.0
C456 C 0.58031 0.3112 0.38705 0.0
C457 C 0.58244 0.28586 0.38021 0.0
C458 C 0.60233 0.27109 0.3937 0.0
H459 H 0.70192 0.28378 0.3926 0.0
H460 H 0.66681 0.28465 0.37867 0.0
H461 H 0.67753 0.30554 0.40632 0.0
H462 H 0.63258 0.31494 0.4365 0.0
H463 H 0.59765 0.3409 0.41325 0.0
H464 H 0.35397 0.39675 0.96479 0.0
H465 H 0.37559 0.43055 0.93707 0.0
H466 H 0.30409 0.47601 0.95042 0.0
H467 H 0.282 0.44182 0.97734 0.0
H468 H 0.32663 0.48426 0.89767 0.0
H469 H 0.40851 0.48845 0.98134 0.0
H470 H 0.40598 0.45868 0.96447 0.0
H471 H 0.37739 0.46955 0.98492 0.0
C472 C 0.3426 0.41373 0.96109 0.0
C473 C 0.31643 0.41681 0.97323 0.0
C474 C 0.35504 0.43309 0.94551 0.0
C475 C 0.34181 0.45607 0.9424 0.0
C476 C 0.31476 0.45851 0.95273 0.0
H477 H 0.4356 0.59408 0.9191 0.0
H478 H 0.4042 0.56105 0.93604 0.0
C479 C 0.30211 0.43897 0.96799 0.0
C480 C 0.3571 0.47806 0.93067 0.0
H481 H 0.4157 0.51386 0.94071 0.0
C482 C 0.34608 0.49081 0.90707 0.0
C483 C 0.38214 0.48697 0.9434 0.0
C484 C 0.39408 0.47538 0.9701 0.0
C485 C 0.35974 0.51191 0.89551 0.0
C486 C 0.38541 0.52011 0.90751 0.0
C487 C 0.39614 0.50753 0.93135 0.0
C488 C 0.40172 0.54166 0.89599 0.0
C489 C 0.3462 0.52547 0.87097 0.0
C490 C 0.41051 0.54205 0.86769 0.0
C491 C 0.42818 0.56115 0.85784 0.0
C492 C 0.4379 0.57995 0.87627 0.0
C493 C 0.42861 0.57981 0.9044 0.0
C494 C 0.41065 0.56093 0.91411 0.0
H495 H 0.32339 0.52192 0.87027 0.0
H496 H 0.35014 0.54588 0.87221 0.0
H497 H 0.35486 0.51872 0.85081 0.0
H498 H 0.40456 0.5271 0.85346 0.0
H499 H 0.43514 0.56058 0.8361 0.0
H500 H 0.64661 0.60257 0.47696 0.0
H501 H 0.62898 0.56676 0.45028 0.0
H502 H 0.71282 0.54254 0.43788 0.0
H503 H 0.73064 0.57838 0.46535 0.0
H504 H 0.63658 0.54926 0.39659 0.0
H505 H 0.67636 0.4824 0.47758 0.0
H506 H 0.67574 0.51553 0.4836 0.0
H507 H 0.70196 0.50268 0.46159 0.0
C508 C 0.66134 0.58978 0.46826 0.0
C509 C 0.68999 0.5931 0.47351 0.0
C510 C 0.65123 0.56932 0.45297 0.0
C511 C 0.66949 0.55163 0.44257 0.0
C512 C 0.69829 0.55567 0.44622 0.0
H513 H 0.5996 0.43042 0.33732 0.0
H514 H 0.6291 0.46486 0.35436 0.0
C515 C 0.70848 0.57629 0.46159 0.0
C516 C 0.65783 0.52856 0.42928 0.0
H517 H 0.65033 0.46562 0.43953 0.0
C518 C 0.63985 0.53092 0.40575 0.0
C519 C 0.66173 0.50467 0.44156 0.0
C520 C 0.67979 0.50103 0.46761 0.0
C521 C 0.62526 0.51024 0.39454 0.0
C522 C 0.62913 0.48635 0.40684 0.0
C523 C 0.64752 0.48389 0.43002 0.0
C524 C 0.61302 0.46402 0.39699 0.0
C525 C 0.60486 0.51436 0.37044 0.0
C526 C 0.59501 0.4513 0.41559 0.0
C527 C 0.57825 0.4314 0.406 0.0
C528 C 0.57916 0.42378 0.37755 0.0
C529 C 0.59809 0.43592 0.35928 0.0
C530 C 0.6149 0.45575 0.36894 0.0
H531 H 0.59954 0.53432 0.36795 0.0
H532 H 0.61417 0.50821 0.35034 0.0
H533 H 0.58539 0.50336 0.37378 0.0
H534 H 0.5933 0.45724 0.43739 0.0
H535 H 0.56402 0.42247 0.4207 0.0
H536 H 0.68834 0.41626 0.94038 0.0
H537 H 0.66128 0.45004 0.91907 0.0
H538 H 0.65352 0.48355 1.00125 0.0
H539 H 0.68065 0.44992 0.02271 0.0
H540 H 0.60421 0.46398 0.93803 0.0
H541 H 0.68368 0.5404 0.94568 0.0
H542 H 0.69278 0.50789 0.9458 0.0
H543 H 0.67828 0.52136 0.97683 0.0
C544 C 0.68108 0.43095 0.95385 0.0
C545 C 0.6866 0.43045 0.98321 0.0
C546 C 0.66557 0.45015 0.94168 0.0
C547 C 0.65568 0.46934 0.95858 0.0
C548 C 0.66124 0.469 0.98784 0.0
H549 H 0.55876 0.60154 0.92462 0.0
H550 H 0.58917 0.56986 0.94508 0.0
C551 C 0.67653 0.4497 1.00008 0.0
C552 C 0.63862 0.48925 0.94575 0.0
H553 H 0.63893 0.55133 0.92928 0.0
C554 C 0.61177 0.48308 0.93598 0.0
C555 C 0.64856 0.51411 0.94343 0.0
C556 C 0.67746 0.52148 0.95329 0.0
C557 C 0.59435 0.50124 0.92423 0.0
C558 C 0.6044 0.52611 0.92142 0.0
C559 C 0.63129 0.53227 0.93132 0.0
C560 C 0.58724 0.54596 0.90836 0.0
C561 C 0.56508 0.49369 0.91568 0.0
C562 C 0.57672 0.54343 0.88062 0.0
C563 C 0.55916 0.56136 0.86897 0.0
C564 C 0.55208 0.58242 0.88467 0.0
C565 C 0.5637 0.58551 0.91198 0.0
C566 C 0.58108 0.56741 0.92372 0.0
H567 H 0.55817 0.47631 0.92671 0.0
H568 H 0.55021 0.50861 0.92041 0.0
H569 H 0.56426 0.49016 0.89254 0.0
H570 H 0.58185 0.52742 0.86804 0.0
H571 H 0.55091 0.55857 0.84773 0.0
H572 H 0.30595 0.55569 0.46306 0.0
H573 H 0.32808 0.51947 0.44252 0.0
H574 H 0.40812 0.54706 0.47161 0.0
H575 H 0.38613 0.58321 0.49231 0.0
H576 H 0.36662 0.5189 0.40099 0.0
H577 H 0.40891 0.47518 0.49877 0.0
H578 H 0.38325 0.49924 0.49949 0.0
H579 H 0.41942 0.50729 0.49517 0.0
C580 C 0.32826 0.55396 0.46516 0.0
C581 C 0.34432 0.57225 0.47935 0.0
C582 C 0.34084 0.53325 0.45351 0.0
C583 C 0.36968 0.53039 0.4559 0.0
C584 C 0.38575 0.54857 0.47014 0.0
H585 H 0.48108 0.45072 0.35153 0.0
H586 H 0.44975 0.48036 0.3725 0.0
C587 C 0.37317 0.56923 0.48192 0.0
C588 C 0.38317 0.50913 0.44221 0.0
H589 H 0.4277 0.46151 0.45488 0.0
C590 C 0.37974 0.50617 0.41281 0.0
C591 C 0.39987 0.49227 0.45772 0.0
C592 C 0.40287 0.49346 0.48957 0.0
C593 C 0.39345 0.48738 0.39832 0.0
C594 C 0.41152 0.47152 0.41359 0.0
C595 C 0.41407 0.47386 0.44314 0.0
C596 C 0.42891 0.45307 0.39928 0.0
C597 C 0.3884 0.48473 0.36683 0.0
C598 C 0.42786 0.4279 0.40759 0.0
C599 C 0.44602 0.41092 0.39587 0.0
C600 C 0.46564 0.41883 0.37568 0.0
C601 C 0.46614 0.44394 0.3669 0.0
C602 C 0.4481 0.46092 0.37874 0.0
H603 H 0.36795 0.49232 0.36032 0.0
H604 H 0.40471 0.4954 0.35525 0.0
H605 H 0.38914 0.46494 0.36029 0.0
H606 H 0.41327 0.42148 0.42349 0.0
H607 H 0.44502 0.39169 0.40306 0.0
H608 H 0.86037 0.90417 0.97984 0.0
H609 H 0.88337 0.93823 0.95407 0.0
H610 H 0.80585 0.97695 0.94783 0.0
H611 H 0.78298 0.94364 0.975 0.0
H612 H 0.87649 0.95925 0.90233 0.0
H613 H 0.85546 0.02851 0.98572 0.0
H614 H 0.84925 0.99555 0.99088 0.0
H615 H 0.82476 0.0139 0.971 0.0
C616 C 0.84819 0.91998 0.97312 0.0
C617 C 0.81988 0.92129 0.97993 0.0
C618 C 0.86134 0.93936 0.95817 0.0
C619 C 0.84649 0.96043 0.94958 0.0
C620 C 0.81789 0.96117 0.95487 0.0
H621 H 0.92253 0.07474 0.83872 0.0
H622 H 0.89178 0.04187 0.8575 0.0
C623 C 0.80475 0.94189 0.97007 0.0
C624 C 0.86131 0.98187 0.93603 0.0
H625 H 0.87767 0.04359 0.9445 0.0
C626 C 0.87667 0.97773 0.91146 0.0
C627 C 0.86185 0.00589 0.94823 0.0
C628 C 0.84719 0.01126 0.97555 0.0
C629 C 0.89275 0.99686 0.8989 0.0
C630 C 0.89291 0.02098 0.91084 0.0
C631 C 0.87732 0.02517 0.93522 0.0
C632 C 0.91048 0.04174 0.8995 0.0
C633 C 0.91025 0.99077 0.87364 0.0
C634 C 0.93045 0.05334 0.91715 0.0
C635 C 0.94774 0.07237 0.90664 0.0
C636 C 0.94551 0.08019 0.87816 0.0
C637 C 0.925 0.06899 0.86068 0.0
C638 C 0.90752 0.05007 0.87131 0.0
H639 H 0.91328 0.97039 0.87171 0.0
H640 H 0.89967 0.99736 0.854 0.0
H641 H 0.93096 1.00017 0.87508 0.0
H642 H 0.93303 0.04732 0.93901 0.0
H643 H 0.96326 0.08056 0.92073 0.0
H644 H 0.22929 0.0764 0.46063 0.0
H645 H 0.21065 0.04119 0.43279 0.0
H646 H 0.1279 0.06938 0.44123 0.0
H647 H 0.14641 0.10466 0.46815 0.0
H648 H 0.17486 0.00557 0.45209 0.0
H649 H 0.12718 0.05141 0.35868 0.0
H650 H 0.15159 0.06744 0.38184 0.0
H651 H 0.11542 0.06478 0.39097 0.0
C652 C 0.20726 0.07544 0.45574 0.0
C653 C 0.18932 0.09328 0.4666 0.0
C654 C 0.19658 0.05522 0.44004 0.0
C655 C 0.16785 0.05268 0.43465 0.0
C656 C 0.15016 0.07109 0.44452 0.0
H657 H 0.06291 0.92235 0.41778 0.0
H658 H 0.0929 0.95689 0.43348 0.0
C659 C 0.16076 0.09119 0.46014 0.0
C660 C 0.15583 0.02982 0.42112 0.0
H661 H 0.10935 0.01025 0.37026 0.0
C662 C 0.16088 0.00656 0.4339 0.0
C663 C 0.13783 0.03093 0.39717 0.0
C664 C 0.13293 0.05497 0.3812 0.0
C665 C 0.14745 0.98466 0.42426 0.0
C666 C 0.12795 0.98607 0.40158 0.0
C667 C 0.12394 0.00913 0.38792 0.0
C668 C 0.11081 0.96411 0.39226 0.0
C669 C 0.15431 0.96023 0.43856 0.0
C670 C 0.11038 0.95682 0.36372 0.0
C671 C 0.09298 0.93719 0.35458 0.0
C672 C 0.07547 0.92443 0.37377 0.0
C673 C 0.07623 0.93156 0.40243 0.0
C674 C 0.09354 0.95127 0.4115 0.0
H675 H 0.17537 0.96092 0.44846 0.0
H676 H 0.13914 0.95635 0.45563 0.0
H677 H 0.15326 0.94459 0.42331 0.0
H678 H 0.12339 0.96647 0.34841 0.0
H679 H 0.09298 0.93225 0.33236 0.0
H680 H 0.19878 0.92073 0.94013 0.0
H681 H 0.17289 0.95299 0.9143 0.0
H682 H 0.16169 0.99247 0.9924 0.0
H683 H 0.18745 0.96039 0.01831 0.0
H684 H 0.11437 0.96842 0.9309 0.0
H685 H 0.19421 0.04473 0.93157 0.0
H686 H 0.20308 0.01223 0.93453 0.0
H687 H 0.18895 0.02791 0.96434 0.0
C688 C 0.19101 0.93643 0.9517 0.0
C689 C 0.19503 0.93803 0.98123 0.0
C690 C 0.1762 0.95475 0.93697 0.0
C691 C 0.16563 0.97514 0.95147 0.0
C692 C 0.16992 0.97696 0.98084 0.0
H693 H 0.06878 0.105 0.91473 0.0
H694 H 0.10062 0.07387 0.9337 0.0
C695 C 0.18444 0.95855 0.99561 0.0
C696 C 0.14891 0.99398 0.93626 0.0
H697 H 0.14901 0.05512 0.91571 0.0
C698 C 0.12195 0.98733 0.92728 0.0
C699 C 0.1589 0.01861 0.93191 0.0
C700 C 0.18793 0.02642 0.94088 0.0
C701 C 0.10428 0.00493 0.91475 0.0
C702 C 0.11423 0.02967 0.91033 0.0
C703 C 0.14142 0.03617 0.919 0.0
C704 C 0.09637 0.04925 0.89774 0.0
C705 C 0.07479 0.99705 0.90748 0.0
C706 C 0.08403 0.04616 0.87083 0.0
C707 C 0.06557 0.06379 0.86006 0.0
C708 C 0.05945 0.0851 0.87578 0.0
C709 C 0.07295 0.08878 0.90209 0.0
C710 C 0.09117 0.07099 0.91298 0.0
H711 H 0.06836 0.97988 0.91921 0.0
H712 H 0.06002 0.01201 0.91236 0.0
H713 H 0.07317 0.99304 0.88447 0.0
H714 H 0.08836 0.02991 0.8583 0.0
H715 H 0.05583 0.06056 0.83955 0.0
H716 H 0.80853 0.06064 0.45567 0.0
H717 H 0.83206 0.02562 0.43467 0.0
H718 H 0.90515 0.04204 0.4855 0.0
H719 H 0.88255 0.07818 0.50511 0.0
H720 H 0.91875 0.03486 0.43276 0.0
H721 H 0.84787 0.95772 0.46539 0.0
H722 H 0.83008 0.98149 0.4458 0.0
H723 H 0.8457 0.98865 0.47975 0.0
C724 C 0.82967 0.05691 0.46232 0.0
C725 C 0.84363 0.07235 0.48208 0.0
C726 C 0.84293 0.03658 0.45062 0.0
C727 C 0.8702 0.03089 0.45887 0.0
C728 C 0.88402 0.04596 0.47896 0.0
H729 H 0.95954 0.89734 0.41877 0.0
H730 H 0.93096 0.9289 0.44046 0.0
C731 C 0.87093 0.06651 0.49038 0.0
C732 C 0.88505 0.01032 0.44521 0.0
H733 H 0.88096 0.94829 0.42984 0.0
C734 C 0.91055 0.0159 0.43229 0.0
C735 C 0.8745 0.98552 0.44486 0.0
C736 C 0.84818 0.97792 0.45996 0.0
C737 C 0.9257 0.99748 0.41886 0.0
C738 C 0.91457 0.97291 0.41738 0.0
C739 C 0.88923 0.96722 0.43058 0.0
C740 C 0.92953 0.95272 0.40319 0.0
C741 C 0.95384 0.00445 0.40707 0.0
C742 C 0.93733 0.95517 0.3747 0.0
C743 C 0.95401 0.93735 0.36236 0.0
C744 C 0.96267 0.91647 0.37813 0.0
C745 C 0.95328 0.91324 0.40607 0.0
C746 C 0.93695 0.93127 0.41852 0.0
H747 H 0.96261 0.0216 0.41705 0.0
H748 H 0.96882 0.98918 0.41037 0.0
H749 H 0.95175 0.00813 0.38396 0.0
H750 H 0.9311 0.9712 0.36221 0.0
H751 H 0.96057 0.94016 0.34066 0.0
H752 H 0.32366 0.33707 0.07136 0.0
H753 H 0.35207 0.33217 0.11463 0.0
H754 H 0.37031 0.41111 0.11439 0.0
H755 H 0.34199 0.4162 0.07125 0.0
H756 H 0.41394 0.35281 0.12045 0.0
H757 H 0.33686 0.38851 0.19639 0.0
H758 H 0.3266 0.3744 0.1631 0.0
H759 H 0.34155 0.40524 0.16343 0.0
C760 C 0.33364 0.35338 0.08063 0.0
C761 C 0.33068 0.37701 0.06793 0.0
C762 C 0.34988 0.35053 0.10522 0.0
C763 C 0.36306 0.37131 0.11764 0.0
C764 C 0.36014 0.3949 0.10509 0.0
H765 H 0.46218 0.40327 0.26632 0.0
H766 H 0.431 0.40356 0.22508 0.0
C767 C 0.34414 0.39773 0.08039 0.0
C768 C 0.38032 0.36841 0.14354 0.0
H769 H 0.38173 0.38024 0.21449 0.0
C770 C 0.40693 0.35859 0.1411 0.0
C771 C 0.37101 0.37618 0.17024 0.0
C772 C 0.34239 0.38659 0.17373 0.0
C773 C 0.4249 0.35694 0.1647 0.0
C774 C 0.41562 0.36471 0.19155 0.0
C775 C 0.38879 0.37423 0.19395 0.0
C776 C 0.4338 0.36403 0.21719 0.0
C777 C 0.45399 0.34781 0.16041 0.0
C778 C 0.44527 0.34161 0.22687 0.0
C779 C 0.46336 0.3414 0.25031 0.0
C780 C 0.46997 0.36358 0.26478 0.0
C781 C 0.45762 0.38585 0.25564 0.0
C782 C 0.43976 0.38606 0.23206 0.0
H783 H 0.4601 0.34905 0.13779 0.0
H784 H 0.46933 0.35868 0.17328 0.0
H785 H 0.45502 0.32797 0.1671 0.0
H786 H 0.44035 0.32426 0.2162 0.0
H787 H 0.47223 0.32388 0.25702 0.0
H788 H 0.63774 0.62668 0.55006 0.0
H789 H 0.61357 0.62854 0.59528 0.0
H790 H 0.69212 0.63804 0.63929 0.0
H791 H 0.71639 0.63654 0.59403 0.0
H792 H 0.61674 0.5989 0.6417 0.0
H793 H 0.64882 0.69546 0.66989 0.0
H794 H 0.65388 0.68286 0.63503 0.0
H795 H 0.67742 0.67536 0.66365 0.0
C796 C 0.64987 0.62909 0.56939 0.0
C797 C 0.67896 0.63157 0.56848 0.0
C798 C 0.63603 0.63022 0.5952 0.0
C799 C 0.65098 0.63383 0.62065 0.0
C800 C 0.68008 0.63589 0.61988 0.0
H801 H 0.57378 0.6061 0.78575 0.0
H802 H 0.6044 0.60449 0.7448 0.0
C803 C 0.69393 0.63496 0.59402 0.0
C804 C 0.63601 0.63499 0.64794 0.0
H805 H 0.62461 0.67209 0.70494 0.0
C806 C 0.61847 0.6149 0.65555 0.0
C807 C 0.63806 0.65599 0.66584 0.0
C808 C 0.65534 0.67875 0.65812 0.0
C809 C 0.60281 0.61525 0.68045 0.0
C810 C 0.60533 0.63601 0.69869 0.0
C811 C 0.62295 0.65607 0.69113 0.0
C812 C 0.5886 0.63791 0.72481 0.0
C813 C 0.58303 0.59373 0.68644 0.0
C814 C 0.57053 0.65788 0.72792 0.0
C815 C 0.55335 0.65908 0.7515 0.0
C816 C 0.55378 0.64024 0.77245 0.0
C817 C 0.57268 0.62075 0.76984 0.0
C818 C 0.59007 0.61971 0.74634 0.0
H819 H 0.57825 0.58277 0.66704 0.0
H820 H 0.59265 0.58104 0.70228 0.0
H821 H 0.56322 0.60038 0.69517 0.0
H822 H 0.56914 0.67223 0.71167 0.0
H823 H 0.53911 0.6744 0.75282 0.0
H824 H 0.66104 0.35386 0.04476 0.0
H825 H 0.64067 0.34525 0.09127 0.0
H826 H 0.71469 0.37491 0.13214 0.0
H827 H 0.73552 0.38264 0.08549 0.0
H828 H 0.69143 0.33579 0.16271 0.0
H829 H 0.61156 0.40468 0.13292 0.0
H830 H 0.61227 0.3788 0.10918 0.0
H831 H 0.64182 0.39976 0.11173 0.0
C832 C 0.67322 0.35782 0.06373 0.0
C833 C 0.69976 0.36891 0.0617 0.0
C834 C 0.66151 0.35314 0.09025 0.0
C835 C 0.67584 0.3601 0.11517 0.0
C836 C 0.70319 0.36953 0.1132 0.0
H837 H 0.58857 0.39981 0.26691 0.0
H838 H 0.6192 0.39894 0.22608 0.0
C839 C 0.7151 0.37386 0.08661 0.0
C840 C 0.66139 0.35973 0.14284 0.0
H841 H 0.60486 0.38267 0.17602 0.0
C842 C 0.67253 0.34606 0.16571 0.0
C843 C 0.63707 0.37362 0.14693 0.0
C844 C 0.62511 0.39025 0.124 0.0
C845 C 0.65969 0.34555 0.19239 0.0
C846 C 0.63475 0.35865 0.19608 0.0
C847 C 0.62387 0.3725 0.17324 0.0
C848 C 0.61943 0.35869 0.22331 0.0
C849 C 0.67335 0.33148 0.21647 0.0
C850 C 0.60981 0.33636 0.23589 0.0
C851 C 0.59259 0.33682 0.25961 0.0
C852 C 0.58419 0.35965 0.27078 0.0
C853 C 0.59453 0.38193 0.25869 0.0
C854 C 0.61205 0.38145 0.23533 0.0
H855 H 0.69591 0.3292 0.21282 0.0
H856 H 0.67069 0.34109 0.23698 0.0
H857 H 0.66367 0.3126 0.21812 0.0
H858 H 0.6146 0.31857 0.22668 0.0
H859 H 0.58476 0.31934 0.26828 0.0
H860 H 0.37932 0.63098 0.54789 0.0
H861 H 0.39445 0.64065 0.59615 0.0
H862 H 0.30949 0.65273 0.61957 0.0
H863 H 0.29403 0.64224 0.57115 0.0
H864 H 0.38911 0.68144 0.63077 0.0
H865 H 0.33394 0.59787 0.67489 0.0
H866 H 0.33841 0.6026 0.63729 0.0
H867 H 0.31297 0.61997 0.65588 0.0
C868 C 0.36382 0.63576 0.56328 0.0
C869 C 0.33543 0.6354 0.55587 0.0
C870 C 0.37252 0.64145 0.59081 0.0
C871 C 0.35307 0.64696 0.61162 0.0
C872 C 0.3248 0.64806 0.60397 0.0
H873 H 0.42666 0.68262 0.77994 0.0
H874 H 0.39618 0.68587 0.73805 0.0
C875 C 0.31602 0.64231 0.57627 0.0
C876 C 0.36278 0.64999 0.64143 0.0
H877 H 0.36293 0.62051 0.70596 0.0
C878 C 0.38307 0.66841 0.6474 0.0
C879 C 0.35502 0.63278 0.66297 0.0
C880 C 0.33405 0.61205 0.65756 0.0
C881 C 0.39671 0.66941 0.6739 0.0
C882 C 0.38948 0.65177 0.69518 0.0
C883 C 0.36831 0.63407 0.68964 0.0
C884 C 0.40584 0.64946 0.72196 0.0
C885 C 0.41992 0.68835 0.67828 0.0
C886 C 0.42055 0.62758 0.72737 0.0
C887 C 0.43776 0.62558 0.7513 0.0
C888 C 0.44068 0.64545 0.77042 0.0
C889 C 0.42508 0.66704 0.76554 0.0
C890 C 0.40776 0.66899 0.74154 0.0
H891 H 0.42623 0.69753 0.65809 0.0
H892 H 0.41292 0.703 0.69287 0.0
H893 H 0.4384 0.67946 0.68805 0.0
H894 H 0.41932 0.61224 0.7126 0.0
H895 H 0.44928 0.60861 0.7544 0.0
H896 H 0.86304 0.86172 0.0465 0.0
H897 H 0.89068 0.85498 0.0897 0.0
H898 H 0.81902 0.86941 0.14049 0.0
H899 H 0.79123 0.87622 0.09735 0.0
H900 H 0.90055 0.89084 0.13018 0.0
H901 H 0.85056 0.80691 0.17847 0.0
H902 H 0.84504 0.81577 0.1418 0.0
H903 H 0.82695 0.83134 0.16941 0.0
C904 C 0.85308 0.86317 0.06688 0.0
C905 C 0.82496 0.86955 0.0685 0.0
C906 C 0.86888 0.85925 0.09152 0.0
C907 C 0.85688 0.8615 0.11832 0.0
C908 C 0.82858 0.86707 0.12005 0.0
H909 H 0.9476 0.89648 0.27385 0.0
H910 H 0.91552 0.89598 0.23324 0.0
C911 C 0.81272 0.87095 0.09536 0.0
C912 C 0.8746 0.86016 0.14428 0.0
H913 H 0.88347 0.82911 0.20726 0.0
C914 C 0.89686 0.87728 0.14699 0.0
C915 C 0.86986 0.84236 0.16609 0.0
C916 C 0.84697 0.82288 0.16379 0.0
C917 C 0.91435 0.87728 0.17102 0.0
C918 C 0.90918 0.85994 0.19319 0.0
C919 C 0.88717 0.84256 0.19036 0.0
C920 C 0.92689 0.85936 0.21915 0.0
C921 C 0.93849 0.89561 0.17228 0.0
C922 C 0.9432 0.83857 0.22526 0.0
C923 C 0.96155 0.83874 0.24851 0.0
C924 C 0.96384 0.85971 0.26617 0.0
C925 C 0.94661 0.88012 0.26058 0.0
C926 C 0.92829 0.87991 0.23732 0.0
H927 H 0.94344 0.90347 0.15101 0.0
H928 H 0.93317 0.91128 0.18627 0.0
H929 H 0.95735 0.88667 0.18117 0.0
H930 H 0.94231 0.82247 0.21155 0.0
H931 H 0.97435 0.82264 0.25227 0.0
H932 H 0.17764 0.1732 0.56107 0.0
H933 H 0.152 0.17618 0.6055 0.0
H934 H 0.14885 0.09604 0.61251 0.0
H935 H 0.17456 0.09289 0.56819 0.0
H936 H 0.09669 0.15154 0.61682 0.0
H937 H 0.18143 0.12278 0.69074 0.0
H938 H 0.1881 0.13513 0.65564 0.0
H939 H 0.17545 0.10369 0.65999 0.0
C940 C 0.17166 0.15623 0.57221 0.0
C941 C 0.17813 0.13281 0.56117 0.0
C942 C 0.15695 0.15796 0.59749 0.0
C943 C 0.1488 0.13634 0.61236 0.0
C944 C 0.15522 0.11295 0.60145 0.0
H945 H 0.06104 0.10249 0.76711 0.0
H946 H 0.08961 0.10239 0.72469 0.0
C947 C 0.1697 0.11118 0.57605 0.0
C948 C 0.13289 0.13819 0.63892 0.0
H949 H 0.13691 0.12755 0.71034 0.0
C950 C 0.10547 0.14646 0.63733 0.0
C951 C 0.14444 0.13138 0.66551 0.0
C952 C 0.17404 0.12289 0.66832 0.0
C953 C 0.08897 0.14756 0.66163 0.0
C954 C 0.10053 0.14086 0.68835 0.0
C955 C 0.12809 0.13275 0.6899 0.0
C956 C 0.08412 0.14145 0.71482 0.0
C957 C 0.05905 0.15506 0.65825 0.0
C958 C 0.07208 0.1636 0.72383 0.0
C959 C 0.05552 0.16369 0.748 0.0
C960 C 0.05097 0.14169 0.76386 0.0
C961 C 0.06398 0.11976 0.75538 0.0
C962 C 0.08035 0.11966 0.73111 0.0
H963 H 0.05147 0.1529 0.63603 0.0
H964 H 0.04534 0.1438 0.67237 0.0
H965 H 0.05718 0.17496 0.66397 0.0
H966 H 0.07532 0.1808 0.71206 0.0
H967 H 0.0461 0.18097 0.75409 0.0
H968 H 0.20797 0.84337 0.06148 0.0
H969 H 0.1857 0.83147 0.10654 0.0
H970 H 0.17185 0.90888 0.12404 0.0
H971 H 0.19415 0.92087 0.07965 0.0
H972 H 0.19739 0.85885 0.17029 0.0
H973 H 0.09322 0.86277 0.11792 0.0
H974 H 0.12406 0.85456 0.09893 0.0
H975 H 0.11861 0.88637 0.10833 0.0
C976 C 0.20057 0.85781 0.07521 0.0
C977 C 0.20241 0.88302 0.06684 0.0
C978 C 0.18787 0.851 0.10084 0.0
C979 C 0.17707 0.86935 0.1184 0.0
C980 C 0.17999 0.89449 0.11066 0.0
H981 H 0.07035 0.89799 0.25377 0.0
H982 H 0.10103 0.89677 0.21313 0.0
C983 C 0.19255 0.90127 0.0852 0.0
C984 C 0.16091 0.86269 0.14391 0.0
H985 H 0.09444 0.86189 0.16807 0.0
C986 C 0.17487 0.85897 0.16987 0.0
C987 C 0.1316 0.86306 0.14313 0.0
C988 C 0.11581 0.86676 0.11561 0.0
C989 C 0.16013 0.85674 0.19539 0.0
C990 C 0.13081 0.85817 0.1947 0.0
C991 C 0.11692 0.86086 0.16853 0.0
C992 C 0.11412 0.85897 0.22088 0.0
C993 C 0.17599 0.85419 0.22302 0.0
C994 C 0.11155 0.83816 0.23898 0.0
C995 C 0.09393 0.83877 0.2624 0.0
C996 C 0.07848 0.86017 0.26796 0.0
C997 C 0.08177 0.88115 0.25012 0.0
C998 C 0.09932 0.88051 0.22683 0.0
H999 H 0.19871 0.85714 0.22029 0.0
H1000 H 0.16853 0.86777 0.23869 0.0
H1001 H 0.17238 0.83521 0.23191 0.0
H1002 H 0.12254 0.82124 0.23455 0.0
H1003 H 0.09186 0.82227 0.27564 0.0
H1004 H 0.78928 0.1404 0.57373 0.0
H1005 H 0.80332 0.15139 0.62255 0.0
H1006 H 0.88901 0.13959 0.60172 0.0
H1007 H 0.87526 0.12898 0.55334 0.0
H1008 H 0.83124 0.11983 0.66086 0.0
H1009 H 0.89286 0.20621 0.64283 0.0
H1010 H 0.86832 0.19407 0.61688 0.0
H1011 H 0.90291 0.18196 0.61937 0.0
C1012 C 0.81112 0.14063 0.57956 0.0
C1013 C 0.83118 0.13371 0.55987 0.0
C1014 C 0.81909 0.14682 0.60738 0.0
C1015 C 0.84724 0.14662 0.61564 0.0
C1016 C 0.86725 0.14035 0.59571 0.0
H1017 H 0.943 0.10727 0.75659 0.0
H1018 H 0.91013 0.11036 0.7171 0.0
C1019 C 0.85933 0.13404 0.56814 0.0
C1020 C 0.85605 0.1508 0.64549 0.0
H1021 H 0.905 0.18218 0.68489 0.0
C1022 C 0.84688 0.13384 0.66634 0.0
C1023 C 0.8761 0.16933 0.65278 0.0
C1024 C 0.8854 0.18909 0.63182 0.0
C1025 C 0.85888 0.13368 0.69365 0.0
C1026 C 0.88088 0.15065 0.70004 0.0
C1027 C 0.88842 0.16891 0.67991 0.0
C1028 C 0.89832 0.14817 0.72606 0.0
C1029 C 0.84842 0.11484 0.71512 0.0
C1030 C 0.90289 0.16849 0.74419 0.0
C1031 C 0.92195 0.16686 0.76678 0.0
C1032 C 0.93703 0.14495 0.77144 0.0
C1033 C 0.93179 0.12443 0.75368 0.0
C1034 C 0.91276 0.12608 0.73119 0.0
H1035 H 0.82625 0.10981 0.71101 0.0
H1036 H 0.86059 0.09758 0.71348 0.0
H1037 H 0.85065 0.12197 0.73708 0.0
H1038 H 0.89214 0.18579 0.74048 0.0
H1039 H 0.92547 0.18302 0.78003 0.0
loop_
_geom_bond_atom_site_label_1
_geom_bond_atom_site_label_2
_geom_bond_distance
_geom_bond_site_symmetry_2
_ccdc_geom_bond_type
H0 C3 0.929 . S
H1 C6 0.929 . S
H2 C8 0.930 . S
C3 H0 0.929 . S
C3 C4 1.398 . S
C3 C5 1.396 1_554 S
C4 C3 1.398 . S
C4 C8 1.407 . S
C5 C3 1.396 1_556 S
C5 C6 1.394 . S
C6 H1 0.929 . S
C6 C5 1.394 . S
C6 C7 1.382 1_556 S
C7 C6 1.382 1_554 S
C7 C8 1.392 . S
C7 N9 1.411 1_554 S
C8 H2 0.930 . S
C8 C4 1.407 . S
C8 C7 1.392 . S
N9 C7 1.411 1_556 S
N9 C10 1.266 . S
C10 N9 1.266 . S
H11 C14 0.929 . S
H12 C17 0.929 . S
H13 C19 0.930 . S
C14 H11 0.929 . S
C14 C15 1.398 . S
C14 C16 1.396 . S
C15 C14 1.398 . S
C15 C19 1.407 . S
C16 C14 1.396 . S
C16 C17 1.394 . S
C17 H12 0.929 . S
C17 C16 1.394 . S
C17 C18 1.382 . S
C18 C17 1.382 . S
C18 C19 1.392 . S
C18 N20 1.420 . S
C19 H13 0.930 . S
C19 C15 1.407 . S
C19 C18 1.392 . S
N20 C18 1.420 . S
N20 C21 1.244 . S
C21 N20 1.244 . S
H22 C25 0.929 . S
H23 C28 0.929 . S
H24 C30 0.930 . S
C25 H22 0.929 . S
C25 C26 1.398 . S
C25 C27 1.396 1_554 S
C26 C25 1.398 . S
C26 C30 1.407 . S
C27 C25 1.396 1_556 S
C27 C28 1.394 . S
C28 H23 0.929 . S
C28 C27 1.394 . S
C28 C29 1.382 1_556 S
C29 C28 1.382 1_554 S
C29 C30 1.392 . S
C29 N31 1.420 . S
C30 H24 0.930 . S
C30 C26 1.407 . S
C30 C29 1.392 . S
N31 C29 1.420 . S
N31 C32 1.244 1_554 S
C32 N31 1.244 1_556 S
H33 C36 0.929 . S
H34 C39 0.929 . S
H35 C41 0.930 . S
C36 H33 0.929 . S
C36 C37 1.398 . S
C36 C38 1.396 . S
C37 C36 1.398 . S
C37 C41 1.407 . S
C38 C36 1.396 . S
C38 C39 1.394 . S
C39 H34 0.929 . S
C39 C38 1.394 . S
C39 C40 1.382 . S
C40 C39 1.382 . S
C40 C41 1.392 . S
C40 N42 1.420 . S
C41 H35 0.930 . S
C41 C37 1.407 . S
C41 C40 1.392 . S
N42 C40 1.420 . S
N42 C43 1.244 . S
C43 N42 1.244 . S
H44 C47 0.929 . S
H45 C50 0.929 . S
H46 C52 0.930 . S
C47 H44 0.929 . S
C47 C48 1.398 . S
C47 C49 1.396 1_554 S
C48 C47 1.398 . S
C48 C52 1.407 . S
C49 C47 1.396 1_556 S
C49 C50 1.394 . S
C50 H45 0.929 . S
C50 C49 1.394 . S
C50 C51 1.382 1_556 S
C51 C50 1.382 1_554 S
C51 C52 1.392 . S
C51 N53 1.411 1_554 S
C52 H46 0.930 . S
C52 C48 1.407 . S
C52 C51 1.392 . S
N53 C51 1.411 1_556 S
N53 C54 1.266 . S
C54 N53 1.266 . S
H55 C58 0.929 . S
H56 C61 0.929 . S
H57 C63 0.930 . S
C58 H55 0.929 . S
C58 C59 1.398 . S
C58 C60 1.396 . S
C59 C58 1.398 . S
C59 C63 1.407 . S
C60 C58 1.396 . S
C60 C61 1.394 . S
C61 H56 0.929 . S
C61 C60 1.394 . S
C61 C62 1.382 . S
C62 C61 1.382 . S
C62 C63 1.392 . S
C62 N64 1.420 . S
C63 H57 0.930 . S
C63 C59 1.407 . S
C63 C62 1.392 . S
N64 C62 1.420 . S
N64 C65 1.244 . S
C65 N64 1.244 . S
H66 C69 0.929 . S
H67 C72 0.929 . S
H68 C74 0.930 . S
C69 H66 0.929 . S
C69 C70 1.398 . S
C69 C71 1.396 1_554 S
C70 C69 1.398 . S
C70 C74 1.407 . S
C71 C69 1.396 1_556 S
C71 C72 1.394 . S
C72 H67 0.929 . S
C72 C71 1.394 . S
C72 C73 1.382 1_556 S
C73 C72 1.382 1_554 S
C73 C74 1.392 . S
C73 N75 1.420 . S
C74 H68 0.930 . S
C74 C70 1.407 . S
C74 C73 1.392 . S
N75 C73 1.420 . S
N75 C76 1.244 1_554 S
C76 N75 1.244 1_556 S
H77 C80 0.929 . S
H78 C83 0.929 . S
H79 C85 0.930 . S
C80 H77 0.929 . S
C80 C81 1.398 . S
C80 C82 1.396 . S
C81 C80 1.398 . S
C81 C85 1.407 . S
C82 C80 1.396 . S
C82 C83 1.394 . S
C83 H78 0.929 . S
C83 C82 1.394 . S
C83 C84 1.382 . S
C84 C83 1.382 . S
C84 C85 1.392 . S
C84 N86 1.420 . S
C85 H79 0.930 . S
C85 C81 1.407 . S
C85 C84 1.392 . S
N86 C84 1.420 . S
N86 C87 1.244 . S
C87 N86 1.244 . S
Fe88 O90 1.918 . S
Fe88 O93 1.997 1_455 S
Fe88 O94 2.002 1_455 S
Fe88 O99 1.976 . S
Fe88 O102 1.996 . S
Fe89 O90 1.918 . S
Fe89 O97 1.997 1_455 S
Fe89 O100 1.996 . S
Fe89 O104 1.976 . S
Fe89 O107 2.002 1_455 S
O90 Fe88 1.918 . S
O90 Fe89 1.918 . S
O90 Fe91 1.918 . S
Fe91 O90 1.918 . S
Fe91 O92 2.002 1_455 S
Fe91 O101 1.976 . S
Fe91 O105 1.996 . S
Fe91 O108 1.997 1_455 S
O92 Fe91 2.002 1_655 S
O92 C109 1.295 . S
O93 Fe88 1.997 1_655 S
O93 C109 1.235 . S
O94 Fe88 2.002 1_655 S
O94 C95 1.295 . S
C95 O94 1.295 . S
C95 O97 1.235 . S
C96 O101 1.287 . S
C96 O102 1.255 . S
O97 Fe89 1.997 1_655 S
O97 C95 1.235 . S
C98 O104 1.287 . S
C98 O105 1.255 . S
O99 Fe88 1.976 . S
O99 C106 1.287 . S
O100 Fe89 1.996 . S
O100 C106 1.255 . S
O101 Fe91 1.976 . S
O101 C96 1.287 . S
O102 Fe88 1.996 . S
O102 C96 1.255 . S
C103 O107 1.295 . S
C103 O108 1.235 . S
O104 Fe89 1.976 . S
O104 C98 1.287 . S
O105 Fe91 1.996 . S
O105 C98 1.255 . S
C106 O99 1.287 . S
C106 O100 1.255 . S
O107 Fe89 2.002 1_655 S
O107 C103 1.295 . S
O108 Fe91 1.997 1_655 S
O108 C103 1.235 . S
C109 O92 1.295 . S
C109 O93 1.235 . S
Fe110 O112 1.918 1_455 S
Fe110 O115 2.018 . S
Fe110 O116 2.025 . S
Fe110 O121 1.954 1_455 S
Fe110 O124 1.974 1_455 S
Fe111 O112 1.918 1_455 S
Fe111 O119 2.007 . S
Fe111 O122 1.986 1_455 S
Fe111 O126 1.966 1_455 S
Fe111 O129 2.013 . S
O112 Fe110 1.918 1_655 S
O112 Fe111 1.918 1_655 S
O112 Fe113 1.918 1_655 S
Fe113 O112 1.918 1_455 S
Fe113 O114 2.022 . S
Fe113 O123 1.956 1_455 S
Fe113 O127 1.977 1_455 S
Fe113 O130 2.016 . S
O114 Fe113 2.022 . S
O114 C131 1.295 . S
O115 Fe110 2.018 . S
O115 C131 1.235 . S
O116 Fe110 2.025 . S
O116 C117 1.295 . S
C117 O116 1.295 . S
C117 O119 1.235 . S
C118 O123 1.287 . S
C118 O124 1.255 . S
O119 Fe111 2.007 . S
O119 C117 1.235 . S
C120 O126 1.287 . S
C120 O127 1.255 . S
O121 Fe110 1.954 1_655 S
O121 C128 1.287 . S
O122 Fe111 1.986 1_655 S
O122 C128 1.255 . S
O123 Fe113 1.956 1_655 S
O123 C118 1.287 . S
O124 Fe110 1.974 1_655 S
O124 C118 1.255 . S
C125 O129 1.295 . S
C125 O130 1.235 . S
O126 Fe111 1.966 1_655 S
O126 C120 1.287 . S
O127 Fe113 1.977 1_655 S
O127 C120 1.255 . S
C128 O121 1.287 . S
C128 O122 1.255 . S
O129 Fe111 2.013 . S
O129 C125 1.295 . S
O130 Fe113 2.016 . S
O130 C125 1.235 . S
C131 O114 1.295 . S
C131 O115 1.235 . S
Fe132 O134 1.918 . S
Fe132 O137 1.997 . S
Fe132 O138 2.002 . S
Fe132 O143 1.976 . S
Fe132 O146 1.996 . S
Fe133 O134 1.918 . S
Fe133 O141 1.997 . S
Fe133 O144 1.996 . S
Fe133 O148 1.976 . S
Fe133 O151 2.002 . S
O134 Fe132 1.918 . S
O134 Fe133 1.918 . S
O134 Fe135 1.918 . S
Fe135 O134 1.918 . S
Fe135 O136 2.002 . S
Fe135 O145 1.976 . S
Fe135 O149 1.996 . S
Fe135 O152 1.997 . S
O136 Fe135 2.002 . S
O136 C153 1.295 . S
O137 Fe132 1.997 . S
O137 C153 1.235 . S
O138 Fe132 2.002 . S
O138 C139 1.295 . S
C139 O138 1.295 . S
C139 O141 1.235 . S
C140 O145 1.287 . S
C140 O146 1.255 . S
O141 Fe133 1.997 . S
O141 C139 1.235 . S
C142 O148 1.287 . S
C142 O149 1.255 . S
O143 Fe132 1.976 . S
O143 C150 1.287 . S
O144 Fe133 1.996 . S
O144 C150 1.255 . S
O145 Fe135 1.976 . S
O145 C140 1.287 . S
O146 Fe132 1.996 . S
O146 C140 1.255 . S
C147 O151 1.295 . S
C147 O152 1.235 . S
O148 Fe133 1.976 . S
O148 C142 1.287 . S
O149 Fe135 1.996 . S
O149 C142 1.255 . S
C150 O143 1.287 . S
C150 O144 1.255 . S
O151 Fe133 2.002 . S
O151 C147 1.295 . S
O152 Fe135 1.997 . S
O152 C147 1.235 . S
C153 O136 1.295 . S
C153 O137 1.235 . S
Fe154 O156 1.918 . S
Fe154 O159 1.997 . S
Fe154 O160 2.002 . S
Fe154 O165 1.976 . S
Fe154 O168 1.996 . S
Fe155 O156 1.918 . S
Fe155 O163 1.997 . S
Fe155 O166 1.996 . S
Fe155 O170 1.976 . S
Fe155 O173 2.002 . S
O156 Fe154 1.918 . S
O156 Fe155 1.918 . S
O156 Fe157 1.918 . S
Fe157 O156 1.918 . S
Fe157 O158 2.002 . S
Fe157 O167 1.976 . S
Fe157 O171 1.996 . S
Fe157 O174 1.997 . S
O158 Fe157 2.002 . S
O158 C175 1.295 . S
O159 Fe154 1.997 . S
O159 C175 1.235 . S
O160 Fe154 2.002 . S
O160 C161 1.295 . S
C161 O160 1.295 . S
C161 O163 1.235 . S
C162 O167 1.287 . S
C162 O168 1.255 . S
O163 Fe155 1.997 . S
O163 C161 1.235 . S
C164 O170 1.287 . S
C164 O171 1.255 . S
O165 Fe154 1.976 . S
O165 C172 1.287 . S
O166 Fe155 1.996 . S
O166 C172 1.255 . S
O167 Fe157 1.976 . S
O167 C162 1.287 . S
O168 Fe154 1.996 . S
O168 C162 1.255 . S
C169 O173 1.295 . S
C169 O174 1.235 . S
O170 Fe155 1.976 . S
O170 C164 1.287 . S
O171 Fe157 1.996 . S
O171 C164 1.255 . S
C172 O165 1.287 . S
C172 O166 1.255 . S
O173 Fe155 2.002 . S
O173 C169 1.295 . S
O174 Fe157 1.997 . S
O174 C169 1.235 . S
C175 O158 1.295 . S
C175 O159 1.235 . S
H176 C184 0.929 . S
H177 C186 0.930 . S
H178 C188 0.930 . S
H179 C191 0.929 . S
H180 C194 0.930 . S
H181 C196 0.960 . S
H182 C196 0.960 . S
H183 C196 0.960 . S
C184 H176 0.929 . S
C184 C185 1.377 . S
C184 C186 1.384 . S
C185 C184 1.377 . S
C185 C191 1.390 . S
C186 H177 0.930 . S
C186 C184 1.384 . S
C186 C187 1.372 . S
C187 C186 1.372 . S
C187 C188 1.400 . S
C187 C192 1.490 . S
C188 H178 0.930 . S
C188 C187 1.400 . S
C188 C191 1.386 . S
H189 C205 0.930 . S
H190 C206 0.931 . S
C191 H179 0.929 . S
C191 C185 1.390 . S
C191 C188 1.386 . S
C192 C187 1.490 . S
C192 C194 1.395 . S
C192 C195 1.403 . S
H193 C199 0.930 . S
C194 H180 0.930 . S
C194 C192 1.395 . S
C194 C197 1.403 . S
C195 C192 1.403 . S
C195 C196 1.524 . S
C195 C199 1.400 . S
C196 H181 0.960 . S
C196 H182 0.960 . S
C196 H183 0.960 . S
C196 C195 1.524 . S
C197 C194 1.403 . S
C197 C198 1.392 . S
C197 C201 1.495 . S
C198 C197 1.392 . S
C198 C199 1.385 . S
C198 C200 1.478 . S
C199 H193 0.930 . S
C199 C195 1.400 . S
C199 C198 1.385 . S
C200 C198 1.478 . S
C200 C202 1.381 . S
C200 C206 1.383 . S
C201 C197 1.495 . S
C201 H207 0.959 . S
C201 H208 0.961 . S
C201 H209 0.960 . S
C202 C200 1.381 . S
C202 C203 1.394 . S
C202 H210 0.930 . S
C203 C202 1.394 . S
C203 C204 1.383 . S
C203 H211 0.929 . S
C204 C203 1.383 . S
C204 C205 1.377 . S
C205 H189 0.930 . S
C205 C204 1.377 . S
C205 C206 1.379 . S
C206 H190 0.931 . S
C206 C200 1.383 . S
C206 C205 1.379 . S
H207 C201 0.959 . S
H208 C201 0.961 . S
H209 C201 0.960 . S
H210 C202 0.930 . S
H211 C203 0.929 . S
H212 C220 0.929 . S
H213 C222 0.930 . S
H214 C224 0.930 . S
H215 C227 0.929 . S
H216 C230 0.930 . S
H217 C232 0.960 . S
H218 C232 0.960 . S
H219 C232 0.960 . S
C220 H212 0.929 . S
C220 C221 1.377 . S
C220 C222 1.384 . S
C221 C220 1.377 . S
C221 C227 1.390 . S
C222 H213 0.930 . S
C222 C220 1.384 . S
C222 C223 1.372 . S
C223 C222 1.372 . S
C223 C224 1.400 . S
C223 C228 1.490 . S
C224 H214 0.930 . S
C224 C223 1.400 . S
C224 C227 1.386 . S
H225 C241 0.930 . S
H226 C242 0.931 . S
C227 H215 0.929 . S
C227 C221 1.390 . S
C227 C224 1.386 . S
C228 C223 1.490 . S
C228 C230 1.395 . S
C228 C231 1.403 . S
H229 C235 0.930 . S
C230 H216 0.930 . S
C230 C228 1.395 . S
C230 C233 1.403 . S
C231 C228 1.403 . S
C231 C232 1.524 . S
C231 C235 1.400 . S
C232 H217 0.960 . S
C232 H218 0.960 . S
C232 H219 0.960 . S
C232 C231 1.524 . S
C233 C230 1.403 . S
C233 C234 1.392 . S
C233 C237 1.495 . S
C234 C233 1.392 . S
C234 C235 1.385 . S
C234 C236 1.478 . S
C235 H229 0.930 . S
C235 C231 1.400 . S
C235 C234 1.385 . S
C236 C234 1.478 . S
C236 C238 1.381 . S
C236 C242 1.383 . S
C237 C233 1.495 . S
C237 H243 0.959 . S
C237 H244 0.961 . S
C237 H245 0.960 . S
C238 C236 1.381 . S
C238 C239 1.394 . S
C238 H246 0.930 . S
C239 C238 1.394 . S
C239 C240 1.383 . S
C239 H247 0.929 . S
C240 C239 1.383 . S
C240 C241 1.377 . S
C241 H225 0.930 . S
C241 C240 1.377 . S
C241 C242 1.379 . S
C242 H226 0.931 . S
C242 C236 1.383 . S
C242 C241 1.379 . S
H243 C237 0.959 . S
H244 C237 0.961 . S
H245 C237 0.960 . S
H246 C238 0.930 . S
H247 C239 0.929 . S
H248 C256 0.929 . S
H249 C258 0.930 . S
H250 C260 0.930 . S
H251 C263 0.929 . S
H252 C266 0.930 . S
H253 C268 0.960 . S
H254 C268 0.960 . S
H255 C268 0.960 . S
C256 H248 0.929 . S
C256 C257 1.377 . S
C256 C258 1.384 . S
C257 C256 1.377 . S
C257 C263 1.390 . S
C258 H249 0.930 . S
C258 C256 1.384 . S
C258 C259 1.372 . S
C259 C258 1.372 . S
C259 C260 1.400 . S
C259 C264 1.490 . S
C260 H250 0.930 . S
C260 C259 1.400 . S
C260 C263 1.386 . S
H261 C277 0.930 . S
H262 C278 0.931 . S
C263 H251 0.929 . S
C263 C257 1.390 . S
C263 C260 1.386 . S
C264 C259 1.490 . S
C264 C266 1.395 . S
C264 C267 1.403 . S
H265 C271 0.930 . S
C266 H252 0.930 . S
C266 C264 1.395 . S
C266 C269 1.403 . S
C267 C264 1.403 . S
C267 C268 1.524 . S
C267 C271 1.400 . S
C268 H253 0.960 . S
C268 H254 0.960 . S
C268 H255 0.960 . S
C268 C267 1.524 . S
C269 C266 1.403 . S
C269 C270 1.392 . S
C269 C273 1.495 . S
C270 C269 1.392 . S
C270 C271 1.385 . S
C270 C272 1.478 . S
C271 H265 0.930 . S
C271 C267 1.400 . S
C271 C270 1.385 . S
C272 C270 1.478 . S
C272 C274 1.381 . S
C272 C278 1.383 . S
C273 C269 1.495 . S
C273 H279 0.959 . S
C273 H280 0.961 . S
C273 H281 0.960 . S
C274 C272 1.381 . S
C274 C275 1.394 . S
C274 H282 0.930 . S
C275 C274 1.394 . S
C275 C276 1.383 . S
C275 H283 0.929 . S
C276 C275 1.383 . S
C276 C277 1.377 . S
C277 H261 0.930 . S
C277 C276 1.377 . S
C277 C278 1.379 . S
C278 H262 0.931 . S
C278 C272 1.383 . S
C278 C277 1.379 . S
H279 C273 0.959 . S
H280 C273 0.961 . S
H281 C273 0.960 . S
H282 C274 0.930 . S
H283 C275 0.929 . S
H284 C292 0.929 . S
H285 C294 0.930 . S
H286 C296 0.930 . S
H287 C299 0.929 . S
H288 C302 0.930 . S
H289 C304 0.960 . S
H290 C304 0.960 . S
H291 C304 0.960 . S
C292 H284 0.929 . S
C292 C293 1.377 . S
C292 C294 1.384 . S
C293 C292 1.377 . S
C293 C299 1.390 . S
C294 H285 0.930 . S
C294 C292 1.384 . S
C294 C295 1.372 . S
C295 C294 1.372 . S
C295 C296 1.400 . S
C295 C300 1.490 . S
C296 H286 0.930 . S
C296 C295 1.400 . S
C296 C299 1.386 . S
H297 C313 0.930 . S
H298 C314 0.931 . S
C299 H287 0.929 . S
C299 C293 1.390 . S
C299 C296 1.386 . S
C300 C295 1.490 . S
C300 C302 1.395 . S
C300 C303 1.403 . S
H301 C307 0.930 . S
C302 H288 0.930 . S
C302 C300 1.395 . S
C302 C305 1.403 . S
C303 C300 1.403 . S
C303 C304 1.524 . S
C303 C307 1.400 . S
C304 H289 0.960 . S
C304 H290 0.960 . S
C304 H291 0.960 . S
C304 C303 1.524 . S
C305 C302 1.403 . S
C305 C306 1.392 . S
C305 C309 1.495 . S
C306 C305 1.392 . S
C306 C307 1.385 . S
C306 C308 1.478 . S
C307 H301 0.930 . S
C307 C303 1.400 . S
C307 C306 1.385 . S
C308 C306 1.478 . S
C308 C310 1.381 . S
C308 C314 1.383 . S
C309 C305 1.495 . S
C309 H315 0.959 . S
C309 H316 0.961 . S
C309 H317 0.960 . S
C310 C308 1.381 . S
C310 C311 1.394 . S
C310 H318 0.930 . S
C311 C310 1.394 . S
C311 C312 1.383 . S
C311 H319 0.929 . S
C312 C311 1.383 . S
C312 C313 1.377 . S
C313 H297 0.930 . S
C313 C312 1.377 . S
C313 C314 1.379 . S
C314 H298 0.931 . S
C314 C308 1.383 . S
C314 C313 1.379 . S
H315 C309 0.959 . S
H316 C309 0.961 . S
H317 C309 0.960 . S
H318 C310 0.930 . S
H319 C311 0.929 . S
H320 C328 0.929 . S
H321 C330 0.930 . S
H322 C332 0.930 . S
H323 C335 0.929 1_554 S
H324 C338 0.930 . S
H325 C340 0.960 . S
H326 C340 0.960 . S
H327 C340 0.960 . S
C328 H320 0.929 . S
C328 C329 1.377 . S
C328 C330 1.384 . S
C329 C328 1.377 . S
C329 C335 1.390 . S
C330 H321 0.930 . S
C330 C328 1.384 . S
C330 C331 1.372 . S
C331 C330 1.372 . S
C331 C332 1.400 . S
C331 C336 1.490 . S
C332 H322 0.930 . S
C332 C331 1.400 . S
C332 C335 1.386 . S
H333 C349 0.930 . S
H334 C350 0.931 . S
C335 H323 0.929 1_556 S
C335 C329 1.390 . S
C335 C332 1.386 . S
C336 C331 1.490 . S
C336 C338 1.395 . S
C336 C339 1.403 . S
H337 C343 0.930 . S
C338 H324 0.930 . S
C338 C336 1.395 . S
C338 C341 1.403 . S
C339 C336 1.403 . S
C339 C340 1.524 . S
C339 C343 1.400 . S
C340 H325 0.960 . S
C340 H326 0.960 . S
C340 H327 0.960 . S
C340 C339 1.524 . S
C341 C338 1.403 . S
C341 C342 1.392 . S
C341 C345 1.495 . S
C342 C341 1.392 . S
C342 C343 1.385 . S
C342 C344 1.478 . S
C343 H337 0.930 . S
C343 C339 1.400 . S
C343 C342 1.385 . S
C344 C342 1.478 . S
C344 C346 1.381 . S
C344 C350 1.383 . S
C345 C341 1.495 . S
C345 H351 0.959 . S
C345 H352 0.961 . S
C345 H353 0.960 . S
C346 C344 1.381 . S
C346 C347 1.394 . S
C346 H354 0.930 . S
C347 C346 1.394 . S
C347 C348 1.383 . S
C347 H355 0.929 . S
C348 C347 1.383 . S
C348 C349 1.377 . S
C349 H333 0.930 . S
C349 C348 1.377 . S
C349 C350 1.379 . S
C350 H334 0.931 . S
C350 C344 1.383 . S
C350 C349 1.379 . S
H351 C345 0.959 . S
H352 C345 0.961 . S
H353 C345 0.960 . S
H354 C346 0.930 . S
H355 C347 0.929 . S
H356 C364 0.929 . S
H357 C366 0.930 . S
H358 C368 0.930 . S
H359 C371 0.929 . S
H360 C374 0.930 . S
H361 C376 0.960 . S
H362 C376 0.960 . S
H363 C376 0.960 . S
C364 H356 0.929 . S
C364 C365 1.377 . S
C364 C366 1.384 . S
C365 C364 1.377 . S
C365 C371 1.390 . S
C366 H357 0.930 . S
C366 C364 1.384 . S
C366 C367 1.372 . S
C367 C366 1.372 . S
C367 C368 1.400 . S
C367 C372 1.490 . S
C368 H358 0.930 . S
C368 C367 1.400 . S
C368 C371 1.386 . S
H369 C385 0.930 . S
H370 C386 0.931 . S
C371 H359 0.929 . S
C371 C365 1.390 . S
C371 C368 1.386 . S
C372 C367 1.490 . S
C372 C374 1.395 . S
C372 C375 1.403 . S
H373 C379 0.930 . S
C374 H360 0.930 . S
C374 C372 1.395 . S
C374 C377 1.403 . S
C375 C372 1.403 . S
C375 C376 1.524 . S
C375 C379 1.400 . S
C376 H361 0.960 . S
C376 H362 0.960 . S
C376 H363 0.960 . S
C376 C375 1.524 . S
C377 C374 1.403 . S
C377 C378 1.392 . S
C377 C381 1.495 . S
C378 C377 1.392 . S
C378 C379 1.385 . S
C378 C380 1.478 . S
C379 H373 0.930 . S
C379 C375 1.400 . S
C379 C378 1.385 . S
C380 C378 1.478 . S
C380 C382 1.381 . S
C380 C386 1.383 . S
C381 C377 1.495 . S
C381 H387 0.959 . S
C381 H388 0.961 . S
C381 H389 0.960 . S
C382 C380 1.381 . S
C382 C383 1.394 . S
C382 H390 0.930 . S
C383 C382 1.394 . S
C383 C384 1.383 . S
C383 H391 0.929 . S
C384 C383 1.383 . S
C384 C385 1.377 . S
C385 H369 0.930 . S
C385 C384 1.377 . S
C385 C386 1.379 . S
C386 H370 0.931 . S
C386 C380 1.383 . S
C386 C385 1.379 . S
H387 C381 0.959 . S
H388 C381 0.961 . S
H389 C381 0.960 . S
H390 C382 0.930 . S
H391 C383 0.929 . S
H392 C400 0.929 . S
H393 C402 0.930 . S
H394 C404 0.930 . S
H395 C407 0.929 . S
H396 C410 0.930 . S
H397 C412 0.960 . S
H398 C412 0.960 . S
H399 C412 0.960 . S
C400 H392 0.929 . S
C400 C401 1.377 . S
C400 C402 1.384 . S
C401 C400 1.377 . S
C401 C407 1.390 . S
C402 H393 0.930 . S
C402 C400 1.384 . S
C402 C403 1.372 . S
C403 C402 1.372 . S
C403 C404 1.400 . S
C403 C408 1.490 . S
C404 H394 0.930 . S
C404 C403 1.400 . S
C404 C407 1.386 . S
H405 C421 0.930 . S
H406 C422 0.931 . S
C407 H395 0.929 . S
C407 C401 1.390 . S
C407 C404 1.386 . S
C408 C403 1.490 . S
C408 C410 1.395 . S
C408 C411 1.403 . S
H409 C415 0.930 . S
C410 H396 0.930 . S
C410 C408 1.395 . S
C410 C413 1.403 . S
C411 C408 1.403 . S
C411 C412 1.524 . S
C411 C415 1.400 . S
C412 H397 0.960 . S
C412 H398 0.960 . S
C412 H399 0.960 . S
C412 C411 1.524 . S
C413 C410 1.403 . S
C413 C414 1.392 . S
C413 C417 1.495 . S
C414 C413 1.392 . S
C414 C415 1.385 . S
C414 C416 1.478 . S
C415 H409 0.930 . S
C415 C411 1.400 . S
C415 C414 1.385 . S
C416 C414 1.478 . S
C416 C418 1.381 . S
C416 C422 1.383 . S
C417 C413 1.495 . S
C417 H423 0.959 . S
C417 H424 0.961 . S
C417 H425 0.960 . S
C418 C416 1.381 . S
C418 C419 1.394 . S
C418 H426 0.930 . S
C419 C418 1.394 . S
C419 C420 1.383 . S
C419 H427 0.929 . S
C420 C419 1.383 . S
C420 C421 1.377 . S
C421 H405 0.930 . S
C421 C420 1.377 . S
C421 C422 1.379 . S
C422 H406 0.931 . S
C422 C416 1.383 . S
C422 C421 1.379 . S
H423 C417 0.959 . S
H424 C417 0.961 . S
H425 C417 0.960 . S
H426 C418 0.930 . S
H427 C419 0.929 . S
H428 C436 0.929 . S
H429 C438 0.930 . S
H430 C440 0.930 . S
H431 C443 0.929 . S
H432 C446 0.930 . S
H433 C448 0.960 . S
H434 C448 0.960 . S
H435 C448 0.960 . S
C436 H428 0.929 . S
C436 C437 1.377 . S
C436 C438 1.384 . S
C437 C436 1.377 . S
C437 C443 1.390 . S
C438 H429 0.930 . S
C438 C436 1.384 . S
C438 C439 1.372 . S
C439 C438 1.372 . S
C439 C440 1.400 . S
C439 C444 1.490 . S
C440 H430 0.930 . S
C440 C439 1.400 . S
C440 C443 1.386 . S
H441 C457 0.930 . S
H442 C458 0.931 . S
C443 H431 0.929 . S
C443 C437 1.390 . S
C443 C440 1.386 . S
C444 C439 1.490 . S
C444 C446 1.395 . S
C444 C447 1.403 . S
H445 C451 0.930 . S
C446 H432 0.930 . S
C446 C444 1.395 . S
C446 C449 1.403 . S
C447 C444 1.403 . S
C447 C448 1.524 . S
C447 C451 1.400 . S
C448 H433 0.960 . S
C448 H434 0.960 . S
C448 H435 0.960 . S
C448 C447 1.524 . S
C449 C446 1.403 . S
C449 C450 1.392 . S
C449 C453 1.495 . S
C450 C449 1.392 . S
C450 C451 1.385 . S
C450 C452 1.478 . S
C451 H445 0.930 . S
C451 C447 1.400 . S
C451 C450 1.385 . S
C452 C450 1.478 . S
C452 C454 1.381 . S
C452 C458 1.383 . S
C453 C449 1.495 . S
C453 H459 0.959 . S
C453 H460 0.961 . S
C453 H461 0.960 . S
C454 C452 1.381 . S
C454 C455 1.394 . S
C454 H462 0.930 . S
C455 C454 1.394 . S
C455 C456 1.383 . S
C455 H463 0.929 . S
C456 C455 1.383 . S
C456 C457 1.377 . S
C457 H441 0.930 . S
C457 C456 1.377 . S
C457 C458 1.379 . S
C458 H442 0.931 . S
C458 C452 1.383 . S
C458 C457 1.379 . S
H459 C453 0.959 . S
H460 C453 0.961 . S
H461 C453 0.960 . S
H462 C454 0.930 . S
H463 C455 0.929 . S
H464 C472 0.929 . S
H465 C474 0.930 . S
H466 C476 0.930 . S
H467 C479 0.929 . S
H468 C482 0.930 . S
H469 C484 0.960 . S
H470 C484 0.960 . S
H471 C484 0.960 . S
C472 H464 0.929 . S
C472 C473 1.377 . S
C472 C474 1.384 . S
C473 C472 1.377 . S
C473 C479 1.390 . S
C474 H465 0.930 . S
C474 C472 1.384 . S
C474 C475 1.372 . S
C475 C474 1.372 . S
C475 C476 1.400 . S
C475 C480 1.490 . S
C476 H466 0.930 . S
C476 C475 1.400 . S
C476 C479 1.386 . S
H477 C493 0.930 . S
H478 C494 0.931 . S
C479 H467 0.929 . S
C479 C473 1.390 . S
C479 C476 1.386 . S
C480 C475 1.490 . S
C480 C482 1.395 . S
C480 C483 1.403 . S
H481 C487 0.930 . S
C482 H468 0.930 . S
C482 C480 1.395 . S
C482 C485 1.403 . S
C483 C480 1.403 . S
C483 C484 1.524 . S
C483 C487 1.400 . S
C484 H469 0.960 . S
C484 H470 0.960 . S
C484 H471 0.960 . S
C484 C483 1.524 . S
C485 C482 1.403 . S
C485 C486 1.392 . S
C485 C489 1.495 . S
C486 C485 1.392 . S
C486 C487 1.385 . S
C486 C488 1.478 . S
C487 H481 0.930 . S
C487 C483 1.400 . S
C487 C486 1.385 . S
C488 C486 1.478 . S
C488 C490 1.381 . S
C488 C494 1.383 . S
C489 C485 1.495 . S
C489 H495 0.959 . S
C489 H496 0.961 . S
C489 H497 0.960 . S
C490 C488 1.381 . S
C490 C491 1.394 . S
C490 H498 0.930 . S
C491 C490 1.394 . S
C491 C492 1.383 . S
C491 H499 0.929 . S
C492 C491 1.383 . S
C492 C493 1.377 . S
C493 H477 0.930 . S
C493 C492 1.377 . S
C493 C494 1.379 . S
C494 H478 0.931 . S
C494 C488 1.383 . S
C494 C493 1.379 . S
H495 C489 0.959 . S
H496 C489 0.961 . S
H497 C489 0.960 . S
H498 C490 0.930 . S
H499 C491 0.929 . S
H500 C508 0.929 . S
H501 C510 0.930 . S
H502 C512 0.930 . S
H503 C515 0.929 . S
H504 C518 0.930 . S
H505 C520 0.960 . S
H506 C520 0.960 . S
H507 C520 0.960 . S
C508 H500 0.929 . S
C508 C509 1.377 . S
C508 C510 1.384 . S
C509 C508 1.377 . S
C509 C515 1.390 . S
C510 H501 0.930 . S
C510 C508 1.384 . S
C510 C511 1.372 . S
C511 C510 1.372 . S
C511 C512 1.400 . S
C511 C516 1.490 . S
C512 H502 0.930 . S
C512 C511 1.400 . S
C512 C515 1.386 . S
H513 C529 0.930 . S
H514 C530 0.931 . S
C515 H503 0.929 . S
C515 C509 1.390 . S
C515 C512 1.386 . S
C516 C511 1.490 . S
C516 C518 1.395 . S
C516 C519 1.403 . S
H517 C523 0.930 . S
C518 H504 0.930 . S
C518 C516 1.395 . S
C518 C521 1.403 . S
C519 C516 1.403 . S
C519 C520 1.524 . S
C519 C523 1.400 . S
C520 H505 0.960 . S
C520 H506 0.960 . S
C520 H507 0.960 . S
C520 C519 1.524 . S
C521 C518 1.403 . S
C521 C522 1.392 . S
C521 C525 1.495 . S
C522 C521 1.392 . S
C522 C523 1.385 . S
C522 C524 1.478 . S
C523 H517 0.930 . S
C523 C519 1.400 . S
C523 C522 1.385 . S
C524 C522 1.478 . S
C524 C526 1.381 . S
C524 C530 1.383 . S
C525 C521 1.495 . S
C525 H531 0.959 . S
C525 H532 0.961 . S
C525 H533 0.960 . S
C526 C524 1.381 . S
C526 C527 1.394 . S
C526 H534 0.930 . S
C527 C526 1.394 . S
C527 C528 1.383 . S
C527 H535 0.929 . S
C528 C527 1.383 . S
C528 C529 1.377 . S
C529 H513 0.930 . S
C529 C528 1.377 . S
C529 C530 1.379 . S
C530 H514 0.931 . S
C530 C524 1.383 . S
C530 C529 1.379 . S
H531 C525 0.959 . S
H532 C525 0.961 . S
H533 C525 0.960 . S
H534 C526 0.930 . S
H535 C527 0.929 . S
H536 C544 0.929 . S
H537 C546 0.930 . S
H538 C548 0.930 . S
H539 C551 0.929 1_554 S
H540 C554 0.930 . S
H541 C556 0.960 . S
H542 C556 0.960 . S
H543 C556 0.960 . S
C544 H536 0.929 . S
C544 C545 1.377 . S
C544 C546 1.384 . S
C545 C544 1.377 . S
C545 C551 1.390 . S
C546 H537 0.930 . S
C546 C544 1.384 . S
C546 C547 1.372 . S
C547 C546 1.372 . S
C547 C548 1.400 . S
C547 C552 1.490 . S
C548 H538 0.930 . S
C548 C547 1.400 . S
C548 C551 1.386 . S
H549 C565 0.930 . S
H550 C566 0.931 . S
C551 H539 0.929 1_556 S
C551 C545 1.390 . S
C551 C548 1.386 . S
C552 C547 1.490 . S
C552 C554 1.395 . S
C552 C555 1.403 . S
H553 C559 0.930 . S
C554 H540 0.930 . S
C554 C552 1.395 . S
C554 C557 1.403 . S
C555 C552 1.403 . S
C555 C556 1.524 . S
C555 C559 1.400 . S
C556 H541 0.960 . S
C556 H542 0.960 . S
C556 H543 0.960 . S
C556 C555 1.524 . S
C557 C554 1.403 . S
C557 C558 1.392 . S
C557 C561 1.495 . S
C558 C557 1.392 . S
C558 C559 1.385 . S
C558 C560 1.478 . S
C559 H553 0.930 . S
C559 C555 1.400 . S
C559 C558 1.385 . S
C560 C558 1.478 . S
C560 C562 1.381 . S
C560 C566 1.383 . S
C561 C557 1.495 . S
C561 H567 0.959 . S
C561 H568 0.961 . S
C561 H569 0.960 . S
C562 C560 1.381 . S
C562 C563 1.394 . S
C562 H570 0.930 . S
C563 C562 1.394 . S
C563 C564 1.383 . S
C563 H571 0.929 . S
C564 C563 1.383 . S
C564 C565 1.377 . S
C565 H549 0.930 . S
C565 C564 1.377 . S
C565 C566 1.379 . S
C566 H550 0.931 . S
C566 C560 1.383 . S
C566 C565 1.379 . S
H567 C561 0.959 . S
H568 C561 0.961 . S
H569 C561 0.960 . S
H570 C562 0.930 . S
H571 C563 0.929 . S
H572 C580 0.929 . S
H573 C582 0.930 . S
H574 C584 0.930 . S
H575 C587 0.929 . S
H576 C590 0.930 . S
H577 C592 0.960 . S
H578 C592 0.960 . S
H579 C592 0.960 . S
C580 H572 0.929 . S
C580 C581 1.377 . S
C580 C582 1.384 . S
C581 C580 1.377 . S
C581 C587 1.390 . S
C582 H573 0.930 . S
C582 C580 1.384 . S
C582 C583 1.372 . S
C583 C582 1.372 . S
C583 C584 1.400 . S
C583 C588 1.490 . S
C584 H574 0.930 . S
C584 C583 1.400 . S
C584 C587 1.386 . S
H585 C601 0.930 . S
H586 C602 0.931 . S
C587 H575 0.929 . S
C587 C581 1.390 . S
C587 C584 1.386 . S
C588 C583 1.490 . S
C588 C590 1.395 . S
C588 C591 1.403 . S
H589 C595 0.930 . S
C590 H576 0.930 . S
C590 C588 1.395 . S
C590 C593 1.403 . S
C591 C588 1.403 . S
C591 C592 1.524 . S
C591 C595 1.400 . S
C592 H577 0.960 . S
C592 H578 0.960 . S
C592 H579 0.960 . S
C592 C591 1.524 . S
C593 C590 1.403 . S
C593 C594 1.392 . S
C593 C597 1.495 . S
C594 C593 1.392 . S
C594 C595 1.385 . S
C594 C596 1.478 . S
C595 H589 0.930 . S
C595 C591 1.400 . S
C595 C594 1.385 . S
C596 C594 1.478 . S
C596 C598 1.381 . S
C596 C602 1.383 . S
C597 C593 1.495 . S
C597 H603 0.959 . S
C597 H604 0.961 . S
C597 H605 0.960 . S
C598 C596 1.381 . S
C598 C599 1.394 . S
C598 H606 0.930 . S
C599 C598 1.394 . S
C599 C600 1.383 . S
C599 H607 0.929 . S
C600 C599 1.383 . S
C600 C601 1.377 . S
C601 H585 0.930 . S
C601 C600 1.377 . S
C601 C602 1.379 . S
C602 H586 0.931 . S
C602 C596 1.383 . S
C602 C601 1.379 . S
H603 C597 0.959 . S
H604 C597 0.961 . S
H605 C597 0.960 . S
H606 C598 0.930 . S
H607 C599 0.929 . S
H608 C616 0.929 . S
H609 C618 0.930 . S
H610 C620 0.930 . S
H611 C623 0.929 . S
H612 C626 0.930 . S
H613 C628 0.960 . S
H614 C628 0.960 . S
H615 C628 0.960 . S
C616 H608 0.929 . S
C616 C617 1.377 . S
C616 C618 1.384 . S
C617 C616 1.377 . S
C617 C623 1.390 . S
C618 H609 0.930 . S
C618 C616 1.384 . S
C618 C619 1.372 . S
C619 C618 1.372 . S
C619 C620 1.400 . S
C619 C624 1.490 . S
C620 H610 0.930 . S
C620 C619 1.400 . S
C620 C623 1.386 . S
H621 C637 0.930 . S
H622 C638 0.931 . S
C623 H611 0.929 . S
C623 C617 1.390 . S
C623 C620 1.386 . S
C624 C619 1.490 . S
C624 C626 1.395 . S
C624 C627 1.401 . S
H625 C631 0.930 . S
C626 H612 0.930 . S
C626 C624 1.395 . S
C626 C629 1.403 . S
C627 C624 1.401 . S
C627 C628 1.524 1_565 S
C627 C631 1.401 1_565 S
C628 H613 0.960 . S
C628 H614 0.960 . S
C628 H615 0.960 . S
C628 C627 1.524 1_545 S
C629 C626 1.403 . S
C629 C630 1.392 1_565 S
C629 C633 1.495 . S
C630 C629 1.392 1_545 S
C630 C631 1.385 . S
C630 C632 1.478 . S
C631 H625 0.930 . S
C631 C627 1.401 1_545 S
C631 C630 1.385 . S
C632 C630 1.478 . S
C632 C634 1.381 . S
C632 C638 1.383 . S
C633 C629 1.495 . S
C633 H639 0.959 . S
C633 H640 0.961 . S
C633 H641 0.960 . S
C634 C632 1.381 . S
C634 C635 1.394 . S
C634 H642 0.930 . S
C635 C634 1.394 . S
C635 C636 1.383 . S
C635 H643 0.929 . S
C636 C635 1.383 . S
C636 C637 1.377 . S
C637 H621 0.930 . S
C637 C636 1.377 . S
C637 C638 1.379 . S
C638 H622 0.931 . S
C638 C632 1.383 . S
C638 C637 1.379 . S
H639 C633 0.959 . S
H640 C633 0.961 . S
H641 C633 0.960 . S
H642 C634 0.930 . S
H643 C635 0.929 . S
H644 C652 0.929 . S
H645 C654 0.930 . S
H646 C656 0.930 . S
H647 C659 0.929 . S
H648 C662 0.930 . S
H649 C664 0.960 . S
H650 C664 0.960 . S
H651 C664 0.960 . S
C652 H644 0.929 . S
C652 C653 1.377 . S
C652 C654 1.384 . S
C653 C652 1.377 . S
C653 C659 1.390 . S
C654 H645 0.930 . S
C654 C652 1.384 . S
C654 C655 1.372 . S
C655 C654 1.372 . S
C655 C656 1.400 . S
C655 C660 1.490 . S
C656 H646 0.930 . S
C656 C655 1.400 . S
C656 C659 1.386 . S
H657 C673 0.930 . S
H658 C674 0.931 . S
C659 H647 0.929 . S
C659 C653 1.390 . S
C659 C656 1.386 . S
C660 C655 1.490 . S
C660 C662 1.395 . S
C660 C663 1.403 . S
H661 C667 0.930 . S
C662 H648 0.930 . S
C662 C660 1.395 . S
C662 C665 1.403 1_545 S
C663 C660 1.403 . S
C663 C664 1.524 . S
C663 C667 1.400 . S
C664 H649 0.960 . S
C664 H650 0.960 . S
C664 H651 0.960 . S
C664 C663 1.524 . S
C665 C662 1.403 1_565 S
C665 C666 1.392 . S
C665 C669 1.495 . S
C666 C665 1.392 . S
C666 C667 1.385 1_565 S
C666 C668 1.478 . S
C667 H661 0.930 . S
C667 C663 1.400 . S
C667 C666 1.385 1_545 S
C668 C666 1.478 . S
C668 C670 1.381 . S
C668 C674 1.383 . S
C669 C665 1.495 . S
C669 H675 0.959 . S
C669 H676 0.961 . S
C669 H677 0.960 . S
C670 C668 1.381 . S
C670 C671 1.394 . S
C670 H678 0.930 . S
C671 C670 1.394 . S
C671 C672 1.383 . S
C671 H679 0.929 . S
C672 C671 1.383 . S
C672 C673 1.377 . S
C673 H657 0.930 . S
C673 C672 1.377 . S
C673 C674 1.379 . S
C674 H658 0.931 . S
C674 C668 1.383 . S
C674 C673 1.379 . S
H675 C669 0.959 . S
H676 C669 0.961 . S
H677 C669 0.960 . S
H678 C670 0.930 . S
H679 C671 0.929 . S
H680 C688 0.929 . S
H681 C690 0.930 . S
H682 C692 0.930 . S
H683 C695 0.929 1_554 S
H684 C698 0.930 . S
H685 C700 0.960 . S
H686 C700 0.960 . S
H687 C700 0.960 . S
C688 H680 0.929 . S
C688 C689 1.377 . S
C688 C690 1.384 . S
C689 C688 1.377 . S
C689 C695 1.390 . S
C690 H681 0.930 . S
C690 C688 1.384 . S
C690 C691 1.372 . S
C691 C690 1.372 . S
C691 C692 1.400 . S
C691 C696 1.490 . S
C692 H682 0.930 . S
C692 C691 1.400 . S
C692 C695 1.386 . S
H693 C709 0.930 . S
H694 C710 0.931 . S
C695 H683 0.929 1_556 S
C695 C689 1.390 . S
C695 C692 1.386 . S
C696 C691 1.490 . S
C696 C698 1.395 . S
C696 C699 1.403 1_565 S
H697 C703 0.930 . S
C698 H684 0.930 . S
C698 C696 1.395 . S
C698 C701 1.403 . S
C699 C696 1.403 1_545 S
C699 C700 1.524 . S
C699 C703 1.400 . S
C700 H685 0.960 . S
C700 H686 0.960 . S
C700 H687 0.960 . S
C700 C699 1.524 . S
C701 C698 1.403 . S
C701 C702 1.392 1_565 S
C701 C705 1.495 . S
C702 C701 1.392 1_545 S
C702 C703 1.385 . S
C702 C704 1.478 . S
C703 H697 0.930 . S
C703 C699 1.400 . S
C703 C702 1.385 . S
C704 C702 1.478 . S
C704 C706 1.381 . S
C704 C710 1.383 . S
C705 C701 1.495 . S
C705 H711 0.959 . S
C705 H712 0.961 . S
C705 H713 0.960 . S
C706 C704 1.381 . S
C706 C707 1.394 . S
C706 H714 0.930 . S
C707 C706 1.394 . S
C707 C708 1.383 . S
C707 H715 0.929 . S
C708 C707 1.383 . S
C708 C709 1.377 . S
C709 H693 0.930 . S
C709 C708 1.377 . S
C709 C710 1.379 . S
C710 H694 0.931 . S
C710 C704 1.383 . S
C710 C709 1.379 . S
H711 C705 0.959 . S
H712 C705 0.961 . S
H713 C705 0.960 . S
H714 C706 0.930 . S
H715 C707 0.929 . S
H716 C724 0.929 . S
H717 C726 0.930 . S
H718 C728 0.930 . S
H719 C731 0.929 . S
H720 C734 0.930 . S
H721 C736 0.960 . S
H722 C736 0.960 . S
H723 C736 0.960 . S
C724 H716 0.929 . S
C724 C725 1.377 . S
C724 C726 1.384 . S
C725 C724 1.377 . S
C725 C731 1.390 . S
C726 H717 0.930 . S
C726 C724 1.384 . S
C726 C727 1.372 . S
C727 C726 1.372 . S
C727 C728 1.400 . S
C727 C732 1.490 . S
C728 H718 0.930 . S
C728 C727 1.400 . S
C728 C731 1.386 . S
H729 C745 0.930 . S
H730 C746 0.931 . S
C731 H719 0.929 . S
C731 C725 1.390 . S
C731 C728 1.386 . S
C732 C727 1.490 . S
C732 C734 1.395 . S
C732 C735 1.403 1_545 S
H733 C739 0.930 . S
C734 H720 0.930 . S
C734 C732 1.395 . S
C734 C737 1.403 . S
C735 C732 1.403 1_565 S
C735 C736 1.524 . S
C735 C739 1.400 . S
C736 H721 0.960 . S
C736 H722 0.960 . S
C736 H723 0.960 . S
C736 C735 1.524 . S
C737 C734 1.403 . S
C737 C738 1.392 1_545 S
C737 C741 1.495 . S
C738 C737 1.392 1_565 S
C738 C739 1.385 . S
C738 C740 1.478 . S
C739 H733 0.930 . S
C739 C735 1.400 . S
C739 C738 1.385 . S
C740 C738 1.478 . S
C740 C742 1.381 . S
C740 C746 1.383 . S
C741 C737 1.495 . S
C741 H747 0.959 . S
C741 H748 0.961 . S
C741 H749 0.960 . S
C742 C740 1.381 . S
C742 C743 1.394 . S
C742 H750 0.930 . S
C743 C742 1.394 . S
C743 C744 1.383 . S
C743 H751 0.929 . S
C744 C743 1.383 . S
C744 C745 1.377 . S
C745 H729 0.930 . S
C745 C744 1.377 . S
C745 C746 1.379 . S
C746 H730 0.931 . S
C746 C740 1.383 . S
C746 C745 1.379 . S
H747 C741 0.959 . S
H748 C741 0.961 . S
H749 C741 0.960 . S
H750 C742 0.930 . S
H751 C743 0.929 . S
H752 C760 0.929 . S
H753 C762 0.930 . S
H754 C764 0.930 . S
H755 C767 0.929 . S
H756 C770 0.930 . S
H757 C772 0.960 . S
H758 C772 0.960 . S
H759 C772 0.960 . S
C760 H752 0.929 . S
C760 C761 1.377 . S
C760 C762 1.384 . S
C761 C760 1.377 . S
C761 C767 1.390 . S
C762 H753 0.930 . S
C762 C760 1.384 . S
C762 C763 1.372 . S
C763 C762 1.372 . S
C763 C764 1.400 . S
C763 C768 1.490 . S
C764 H754 0.930 . S
C764 C763 1.400 . S
C764 C767 1.386 . S
H765 C781 0.930 . S
H766 C782 0.931 . S
C767 H755 0.929 . S
C767 C761 1.390 . S
C767 C764 1.386 . S
C768 C763 1.490 . S
C768 C770 1.395 . S
C768 C771 1.403 . S
H769 C775 0.930 . S
C770 H756 0.930 . S
C770 C768 1.395 . S
C770 C773 1.403 . S
C771 C768 1.403 . S
C771 C772 1.524 . S
C771 C775 1.400 . S
C772 H757 0.960 . S
C772 H758 0.960 . S
C772 H759 0.960 . S
C772 C771 1.524 . S
C773 C770 1.403 . S
C773 C774 1.392 . S
C773 C777 1.495 . S
C774 C773 1.392 . S
C774 C775 1.385 . S
C774 C776 1.478 . S
C775 H769 0.930 . S
C775 C771 1.400 . S
C775 C774 1.385 . S
C776 C774 1.478 . S
C776 C778 1.381 . S
C776 C782 1.383 . S
C777 C773 1.495 . S
C777 H783 0.959 . S
C777 H784 0.961 . S
C777 H785 0.960 . S
C778 C776 1.381 . S
C778 C779 1.394 . S
C778 H786 0.930 . S
C779 C778 1.394 . S
C779 C780 1.383 . S
C779 H787 0.929 . S
C780 C779 1.383 . S
C780 C781 1.377 . S
C781 H765 0.930 . S
C781 C780 1.377 . S
C781 C782 1.379 . S
C782 H766 0.931 . S
C782 C776 1.383 . S
C782 C781 1.379 . S
H783 C777 0.959 . S
H784 C777 0.961 . S
H785 C777 0.960 . S
H786 C778 0.930 . S
H787 C779 0.929 . S
H788 C796 0.929 . S
H789 C798 0.930 . S
H790 C800 0.930 . S
H791 C803 0.929 . S
H792 C806 0.930 . S
H793 C808 0.960 . S
H794 C808 0.960 . S
H795 C808 0.960 . S
C796 H788 0.929 . S
C796 C797 1.377 . S
C796 C798 1.384 . S
C797 C796 1.377 . S
C797 C803 1.390 . S
C798 H789 0.930 . S
C798 C796 1.384 . S
C798 C799 1.372 . S
C799 C798 1.372 . S
C799 C800 1.400 . S
C799 C804 1.490 . S
C800 H790 0.930 . S
C800 C799 1.400 . S
C800 C803 1.386 . S
H801 C817 0.930 . S
H802 C818 0.931 . S
C803 H791 0.929 . S
C803 C797 1.390 . S
C803 C800 1.386 . S
C804 C799 1.490 . S
C804 C806 1.395 . S
C804 C807 1.403 . S
H805 C811 0.930 . S
C806 H792 0.930 . S
C806 C804 1.395 . S
C806 C809 1.403 . S
C807 C804 1.403 . S
C807 C808 1.524 . S
C807 C811 1.400 . S
C808 H793 0.960 . S
C808 H794 0.960 . S
C808 H795 0.960 . S
C808 C807 1.524 . S
C809 C806 1.403 . S
C809 C810 1.392 . S
C809 C813 1.495 . S
C810 C809 1.392 . S
C810 C811 1.385 . S
C810 C812 1.478 . S
C811 H805 0.930 . S
C811 C807 1.400 . S
C811 C810 1.385 . S
C812 C810 1.478 . S
C812 C814 1.381 . S
C812 C818 1.383 . S
C813 C809 1.495 . S
C813 H819 0.959 . S
C813 H820 0.961 . S
C813 H821 0.960 . S
C814 C812 1.381 . S
C814 C815 1.394 . S
C814 H822 0.930 . S
C815 C814 1.394 . S
C815 C816 1.383 . S
C815 H823 0.929 . S
C816 C815 1.383 . S
C816 C817 1.377 . S
C817 H801 0.930 . S
C817 C816 1.377 . S
C817 C818 1.379 . S
C818 H802 0.931 . S
C818 C812 1.383 . S
C818 C817 1.379 . S
H819 C813 0.959 . S
H820 C813 0.961 . S
H821 C813 0.960 . S
H822 C814 0.930 . S
H823 C815 0.929 . S
H824 C832 0.929 . S
H825 C834 0.930 . S
H826 C836 0.930 . S
H827 C839 0.929 . S
H828 C842 0.930 . S
H829 C844 0.960 . S
H830 C844 0.960 . S
H831 C844 0.960 . S
C832 H824 0.929 . S
C832 C833 1.377 . S
C832 C834 1.384 . S
C833 C832 1.377 . S
C833 C839 1.390 . S
C834 H825 0.930 . S
C834 C832 1.384 . S
C834 C835 1.372 . S
C835 C834 1.372 . S
C835 C836 1.400 . S
C835 C840 1.490 . S
C836 H826 0.930 . S
C836 C835 1.400 . S
C836 C839 1.386 . S
H837 C853 0.930 . S
H838 C854 0.931 . S
C839 H827 0.929 . S
C839 C833 1.390 . S
C839 C836 1.386 . S
C840 C835 1.490 . S
C840 C842 1.395 . S
C840 C843 1.403 . S
H841 C847 0.930 . S
C842 H828 0.930 . S
C842 C840 1.395 . S
C842 C845 1.403 . S
C843 C840 1.403 . S
C843 C844 1.524 . S
C843 C847 1.400 . S
C844 H829 0.960 . S
C844 H830 0.960 . S
C844 H831 0.960 . S
C844 C843 1.524 . S
C845 C842 1.403 . S
C845 C846 1.392 . S
C845 C849 1.495 . S
C846 C845 1.392 . S
C846 C847 1.385 . S
C846 C848 1.478 . S
C847 H841 0.930 . S
C847 C843 1.400 . S
C847 C846 1.385 . S
C848 C846 1.478 . S
C848 C850 1.381 . S
C848 C854 1.383 . S
C849 C845 1.495 . S
C849 H855 0.959 . S
C849 H856 0.961 . S
C849 H857 0.960 . S
C850 C848 1.381 . S
C850 C851 1.394 . S
C850 H858 0.930 . S
C851 C850 1.394 . S
C851 C852 1.383 . S
C851 H859 0.929 . S
C852 C851 1.383 . S
C852 C853 1.377 . S
C853 H837 0.930 . S
C853 C852 1.377 . S
C853 C854 1.379 . S
C854 H838 0.931 . S
C854 C848 1.383 . S
C854 C853 1.379 . S
H855 C849 0.959 . S
H856 C849 0.961 . S
H857 C849 0.960 . S
H858 C850 0.930 . S
H859 C851 0.929 . S
H860 C868 0.929 . S
H861 C870 0.930 . S
H862 C872 0.930 . S
H863 C875 0.929 . S
H864 C878 0.930 . S
H865 C880 0.960 . S
H866 C880 0.960 . S
H867 C880 0.960 . S
C868 H860 0.929 . S
C868 C869 1.377 . S
C868 C870 1.384 . S
C869 C868 1.377 . S
C869 C875 1.390 . S
C870 H861 0.930 . S
C870 C868 1.384 . S
C870 C871 1.372 . S
C871 C870 1.372 . S
C871 C872 1.400 . S
C871 C876 1.490 . S
C872 H862 0.930 . S
C872 C871 1.400 . S
C872 C875 1.386 . S
H873 C889 0.930 . S
H874 C890 0.931 . S
C875 H863 0.929 . S
C875 C869 1.390 . S
C875 C872 1.386 . S
C876 C871 1.490 . S
C876 C878 1.395 . S
C876 C879 1.403 . S
H877 C883 0.930 . S
C878 H864 0.930 . S
C878 C876 1.395 . S
C878 C881 1.403 . S
C879 C876 1.403 . S
C879 C880 1.524 . S
C879 C883 1.400 . S
C880 H865 0.960 . S
C880 H866 0.960 . S
C880 H867 0.960 . S
C880 C879 1.524 . S
C881 C878 1.403 . S
C881 C882 1.392 . S
C881 C885 1.495 . S
C882 C881 1.392 . S
C882 C883 1.385 . S
C882 C884 1.478 . S
C883 H877 0.930 . S
C883 C879 1.400 . S
C883 C882 1.385 . S
C884 C882 1.478 . S
C884 C886 1.381 . S
C884 C890 1.383 . S
C885 C881 1.495 . S
C885 H891 0.959 . S
C885 H892 0.961 . S
C885 H893 0.960 . S
C886 C884 1.381 . S
C886 C887 1.394 . S
C886 H894 0.930 . S
C887 C886 1.394 . S
C887 C888 1.383 . S
C887 H895 0.929 . S
C888 C887 1.383 . S
C888 C889 1.377 . S
C889 H873 0.930 . S
C889 C888 1.377 . S
C889 C890 1.379 . S
C890 H874 0.931 . S
C890 C884 1.383 . S
C890 C889 1.379 . S
H891 C885 0.959 . S
H892 C885 0.961 . S
H893 C885 0.960 . S
H894 C886 0.930 . S
H895 C887 0.929 . S
H896 C904 0.929 . S
H897 C906 0.930 . S
H898 C908 0.930 . S
H899 C911 0.929 . S
H900 C914 0.930 . S
H901 C916 0.960 . S
H902 C916 0.960 . S
H903 C916 0.960 . S
C904 H896 0.929 . S
C904 C905 1.377 . S
C904 C906 1.384 . S
C905 C904 1.377 . S
C905 C911 1.390 . S
C906 H897 0.930 . S
C906 C904 1.384 . S
C906 C907 1.372 . S
C907 C906 1.372 . S
C907 C908 1.400 . S
C907 C912 1.490 . S
C908 H898 0.930 . S
C908 C907 1.400 . S
C908 C911 1.386 . S
H909 C925 0.930 . S
H910 C926 0.931 . S
C911 H899 0.929 . S
C911 C905 1.390 . S
C911 C908 1.386 . S
C912 C907 1.490 . S
C912 C914 1.395 . S
C912 C915 1.403 . S
H913 C919 0.930 . S
C914 H900 0.930 . S
C914 C912 1.395 . S
C914 C917 1.403 . S
C915 C912 1.403 . S
C915 C916 1.524 . S
C915 C919 1.400 . S
C916 H901 0.960 . S
C916 H902 0.960 . S
C916 H903 0.960 . S
C916 C915 1.524 . S
C917 C914 1.403 . S
C917 C918 1.392 . S
C917 C921 1.495 . S
C918 C917 1.392 . S
C918 C919 1.385 . S
C918 C920 1.478 . S
C919 H913 0.930 . S
C919 C915 1.400 . S
C919 C918 1.385 . S
C920 C918 1.478 . S
C920 C922 1.381 . S
C920 C926 1.383 . S
C921 C917 1.495 . S
C921 H927 0.959 . S
C921 H928 0.961 . S
C921 H929 0.960 . S
C922 C920 1.381 . S
C922 C923 1.394 . S
C922 H930 0.930 . S
C923 C922 1.394 . S
C923 C924 1.383 . S
C923 H931 0.929 . S
C924 C923 1.383 . S
C924 C925 1.377 . S
C925 H909 0.930 . S
C925 C924 1.377 . S
C925 C926 1.379 . S
C926 H910 0.931 . S
C926 C920 1.383 . S
C926 C925 1.379 . S
H927 C921 0.959 . S
H928 C921 0.961 . S
H929 C921 0.960 . S
H930 C922 0.930 . S
H931 C923 0.929 . S
H932 C940 0.929 . S
H933 C942 0.930 . S
H934 C944 0.930 . S
H935 C947 0.929 . S
H936 C950 0.930 . S
H937 C952 0.960 . S
H938 C952 0.960 . S
H939 C952 0.960 . S
C940 H932 0.929 . S
C940 C941 1.377 . S
C940 C942 1.384 . S
C941 C940 1.377 . S
C941 C947 1.390 . S
C942 H933 0.930 . S
C942 C940 1.384 . S
C942 C943 1.372 . S
C943 C942 1.372 . S
C943 C944 1.400 . S
C943 C948 1.490 . S
C944 H934 0.930 . S
C944 C943 1.400 . S
C944 C947 1.386 . S
H945 C961 0.930 . S
H946 C962 0.931 . S
C947 H935 0.929 . S
C947 C941 1.390 . S
C947 C944 1.386 . S
C948 C943 1.490 . S
C948 C950 1.395 . S
C948 C951 1.403 . S
H949 C955 0.930 . S
C950 H936 0.930 . S
C950 C948 1.395 . S
C950 C953 1.403 . S
C951 C948 1.403 . S
C951 C952 1.524 . S
C951 C955 1.400 . S
C952 H937 0.960 . S
C952 H938 0.960 . S
C952 H939 0.960 . S
C952 C951 1.524 . S
C953 C950 1.403 . S
C953 C954 1.392 . S
C953 C957 1.495 . S
C954 C953 1.392 . S
C954 C955 1.385 . S
C954 C956 1.478 . S
C955 H949 0.930 . S
C955 C951 1.400 . S
C955 C954 1.385 . S
C956 C954 1.478 . S
C956 C958 1.381 . S
C956 C962 1.383 . S
C957 C953 1.495 . S
C957 H963 0.959 . S
C957 H964 0.961 . S
C957 H965 0.960 . S
C958 C956 1.381 . S
C958 C959 1.394 . S
C958 H966 0.930 . S
C959 C958 1.394 . S
C959 C960 1.383 . S
C959 H967 0.929 . S
C960 C959 1.383 . S
C960 C961 1.377 . S
C961 H945 0.930 . S
C961 C960 1.377 . S
C961 C962 1.379 . S
C962 H946 0.931 . S
C962 C956 1.383 . S
C962 C961 1.379 . S
H963 C957 0.959 . S
H964 C957 0.961 . S
H965 C957 0.960 . S
H966 C958 0.930 . S
H967 C959 0.929 . S
H968 C976 0.929 . S
H969 C978 0.930 . S
H970 C980 0.930 . S
H971 C983 0.929 . S
H972 C986 0.930 . S
H973 C988 0.960 . S
H974 C988 0.960 . S
H975 C988 0.960 . S
C976 H968 0.929 . S
C976 C977 1.377 . S
C976 C978 1.384 . S
C977 C976 1.377 . S
C977 C983 1.390 . S
C978 H969 0.930 . S
C978 C976 1.384 . S
C978 C979 1.372 . S
C979 C978 1.372 . S
C979 C980 1.400 . S
C979 C984 1.490 . S
C980 H970 0.930 . S
C980 C979 1.400 . S
C980 C983 1.386 . S
H981 C997 0.930 . S
H982 C998 0.931 . S
C983 H971 0.929 . S
C983 C977 1.390 . S
C983 C980 1.386 . S
C984 C979 1.490 . S
C984 C986 1.395 . S
C984 C987 1.403 . S
H985 C991 0.930 . S
C986 H972 0.930 . S
C986 C984 1.395 . S
C986 C989 1.403 . S
C987 C984 1.403 . S
C987 C988 1.524 . S
C987 C991 1.400 . S
C988 H973 0.960 . S
C988 H974 0.960 . S
C988 H975 0.960 . S
C988 C987 1.524 . S
C989 C986 1.403 . S
C989 C990 1.392 . S
C989 C993 1.495 . S
C990 C989 1.392 . S
C990 C991 1.385 . S
C990 C992 1.478 . S
C991 H985 0.930 . S
C991 C987 1.400 . S
C991 C990 1.385 . S
C992 C990 1.478 . S
C992 C994 1.381 . S
C992 C998 1.383 . S
C993 C989 1.495 . S
C993 H999 0.959 . S
C993 H1000 0.961 . S
C993 H1001 0.960 . S
C994 C992 1.381 . S
C994 C995 1.394 . S
C994 H1002 0.930 . S
C995 C994 1.394 . S
C995 C996 1.383 . S
C995 H1003 0.929 . S
C996 C995 1.383 . S
C996 C997 1.377 . S
C997 H981 0.930 . S
C997 C996 1.377 . S
C997 C998 1.379 . S
C998 H982 0.931 . S
C998 C992 1.383 . S
C998 C997 1.379 . S
H999 C993 0.959 . S
H1000 C993 0.961 . S
H1001 C993 0.960 . S
H1002 C994 0.930 . S
H1003 C995 0.929 . S
H1004 C1012 0.929 . S
H1005 C1014 0.930 . S
H1006 C1016 0.930 . S
H1007 C1019 0.929 . S
H1008 C1022 0.930 . S
H1009 C1024 0.960 . S
H1010 C1024 0.960 . S
H1011 C1024 0.960 . S
C1012 H1004 0.929 . S
C1012 C1013 1.377 . S
C1012 C1014 1.384 . S
C1013 C1012 1.377 . S
C1013 C1019 1.390 . S
C1014 H1005 0.930 . S
C1014 C1012 1.384 . S
C1014 C1015 1.372 . S
C1015 C1014 1.372 . S
C1015 C1016 1.400 . S
C1015 C1020 1.490 . S
C1016 H1006 0.930 . S
C1016 C1015 1.400 . S
C1016 C1019 1.386 . S
H1017 C1033 0.930 . S
H1018 C1034 0.931 . S
C1019 H1007 0.929 . S
C1019 C1013 1.390 . S
C1019 C1016 1.386 . S
C1020 C1015 1.490 . S
C1020 C1022 1.395 . S
C1020 C1023 1.403 . S
H1021 C1027 0.930 . S
C1022 H1008 0.930 . S
C1022 C1020 1.395 . S
C1022 C1025 1.403 . S
C1023 C1020 1.403 . S
C1023 C1024 1.524 . S
C1023 C1027 1.400 . S
C1024 H1009 0.960 . S
C1024 H1010 0.960 . S
C1024 H1011 0.960 . S
C1024 C1023 1.524 . S
C1025 C1022 1.403 . S
C1025 C1026 1.392 . S
C1025 C1029 1.495 . S
C1026 C1025 1.392 . S
C1026 C1027 1.385 . S
C1026 C1028 1.478 . S
C1027 H1021 0.930 . S
C1027 C1023 1.400 . S
C1027 C1026 1.385 . S
C1028 C1026 1.478 . S
C1028 C1030 1.381 . S
C1028 C1034 1.383 . S
C1029 C1025 1.495 . S
C1029 H1035 0.959 . S
C1029 H1036 0.961 . S
C1029 H1037 0.960 . S
C1030 C1028 1.381 . S
C1030 C1031 1.394 . S
C1030 H1038 0.930 . S
C1031 C1030 1.394 . S
C1031 C1032 1.383 . S
C1031 H1039 0.929 . S
C1032 C1031 1.383 . S
C1032 C1033 1.377 . S
C1033 H1017 0.930 . S
C1033 C1032 1.377 . S
C1033 C1034 1.379 . S
C1034 H1018 0.931 . S
C1034 C1028 1.383 . S
C1034 C1033 1.379 . S
H1035 C1029 0.959 . S
H1036 C1029 0.961 . S
H1037 C1029 0.960 . S
H1038 C1030 0.930 . S
H1039 C1031 0.929 . S
C185 C10 1.552 . S
C204 C131 1.531 . S
C240 C95 1.552 . S
C221 C21 1.553 . S
C276 C118 1.624 . S
C257 C32 1.614 . S
C312 C106 1.474 . S
C293 C43 1.480 . S
C348 C175 1.552 . S
C329 C54 1.550 . S
C384 C139 1.550 . S
C365 C65 1.551 . S
C401 C76 1.612 . S
C420 C162 1.611 . S
C456 C150 1.487 . S
C437 C87 1.480 . S
C473 C5 1.494 . S
C492 C172 1.528 . S
C528 C142 1.500 . S
C509 C16 1.475 . S
C545 C27 1.590 . S
C564 C161 1.594 . S
C581 C37 1.450 . S
C600 C147 1.456 . S
C636 C128 1.525 . S
C617 C49 1.495 . S
C653 C60 1.477 . S
C672 C98 1.509 . S
C708 C117 1.602 . S
C689 C71 1.589 . S
C744 C103 1.447 . S
C725 C81 1.451 . S
C780 C153 1.521 . S
C761 C4 1.531 . S
C816 C169 1.508 . S
C797 C15 1.506 . S
C833 C26 1.490 . S
C852 C140 1.497 . S
C888 C164 1.476 . S
C869 C38 1.455 . S
C924 C109 1.520 . S
C905 C48 1.527 . S
C941 C59 1.508 . S
C960 C125 1.501 . S
C977 C70 1.492 . S
C996 C96 1.501 . S
C1013 C82 1.455 . S
C1032 C120 1.486 . S
