# Generated by pormake.
# Topology ctn, (3,4)-cn, num edge types: 1
# Building blocks:
#     Node 0, Type 0, BuildingBlock: PAMTOO_clean_linker_0, # of connection points: 3
#     Node 1, Type 0, BuildingBlock: PAMTOO_clean_linker_0, # of connection points: 3
#     Node 2, Type 0, BuildingBlock: PAMTOO_clean_linker_0, # of connection points: 3
#     Node 3, Type 0, BuildingBlock: PAMTOO_clean_linker_0, # of connection points: 3
#     Node 4, Type 0, BuildingBlock: PAMTOO_clean_linker_0, # of connection points: 3
#     Node 5, Type 0, BuildingBlock: PAMTOO_clean_linker_0, # of connection points: 3
#     Node 6, Type 0, BuildingBlock: PAMTOO_clean_linker_0, # of connection points: 3
#     Node 7, Type 0, BuildingBlock: PAMTOO_clean_linker_0, # of connection points: 3
#     Node 8, Type 0, BuildingBlock: PAMTOO_clean_linker_0, # of connection points: 3
#     Node 9, Type 0, BuildingBlock: PAMTOO_clean_linker_0, # of connection points: 3
#     Node 10, Type 0, BuildingBlock: PAMTOO_clean_linker_0, # of connection points: 3
#     Node 11, Type 0, BuildingBlock: PAMTOO_clean_linker_0, # of connection points: 3
#     Node 12, Type 0, BuildingBlock: PAMTOO_clean_linker_0, # of connection points: 3
#     Node 13, Type 0, BuildingBlock: PAMTOO_clean_linker_0, # of connection points: 3
#     Node 14, Type 0, BuildingBlock: PAMTOO_clean_linker_0, # of connection points: 3
#     Node 15, Type 0, BuildingBlock: PAMTOO_clean_linker_0, # of connection points: 3
#     Node 16, Type 1, BuildingBlock: UXUYUI_clean_sbu_0, # of connection points: 4
#     Node 17, Type 1, BuildingBlock: UXUYUI_clean_sbu_0, # of connection points: 4
#     Node 18, Type 1, BuildingBlock: UXUYUI_clean_sbu_0, # of connection points: 4
#     Node 19, Type 1, BuildingBlock: UXUYUI_clean_sbu_0, # of connection points: 4
#     Node 20, Type 1, BuildingBlock: UXUYUI_clean_sbu_0, # of connection points: 4
#     Node 21, Type 1, BuildingBlock: UXUYUI_clean_sbu_0, # of connection points: 4
#     Node 22, Type 1, BuildingBlock: UXUYUI_clean_sbu_0, # of connection points: 4
#     Node 23, Type 1, BuildingBlock: UXUYUI_clean_sbu_0, # of connection points: 4
#     Node 24, Type 1, BuildingBlock: UXUYUI_clean_sbu_0, # of connection points: 4
#     Node 25, Type 1, BuildingBlock: UXUYUI_clean_sbu_0, # of connection points: 4
#     Node 26, Type 1, BuildingBlock: UXUYUI_clean_sbu_0, # of connection points: 4
#     Node 27, Type 1, BuildingBlock: UXUYUI_clean_sbu_0, # of connection points: 4
#     Edge 28, Type (0, 1), BuildingBlock: TEMPAE_clean_linker_10, # of connection points: 2
#     Edge 29, Type (0, 1), BuildingBlock: TEMPAE_clean_linker_10, # of connection points: 2
#     Edge 30, Type (0, 1), BuildingBlock: TEMPAE_clean_linker_10, # of connection points: 2
#     Edge 31, Type (0, 1), BuildingBlock: TEMPAE_clean_linker_10, # of connection points: 2
#     Edge 32, Type (0, 1), BuildingBlock: TEMPAE_clean_linker_10, # of connection points: 2
#     Edge 33, Type (0, 1), BuildingBlock: TEMPAE_clean_linker_10, # of connection points: 2
#     Edge 34, Type (0, 1), BuildingBlock: TEMPAE_clean_linker_10, # of connection points: 2
#     Edge 35, Type (0, 1), BuildingBlock: TEMPAE_clean_linker_10, # of connection points: 2
#     Edge 36, Type (0, 1), BuildingBlock: TEMPAE_clean_linker_10, # of connection points: 2
#     Edge 37, Type (0, 1), BuildingBlock: TEMPAE_clean_linker_10, # of connection points: 2
#     Edge 38, Type (0, 1), BuildingBlock: TEMPAE_clean_linker_10, # of connection points: 2
#     Edge 39, Type (0, 1), BuildingBlock: TEMPAE_clean_linker_10, # of connection points: 2
#     Edge 40, Type (0, 1), BuildingBlock: TEMPAE_clean_linker_10, # of connection points: 2
#     Edge 41, Type (0, 1), BuildingBlock: TEMPAE_clean_linker_10, # of connection points: 2
#     Edge 42, Type (0, 1), BuildingBlock: TEMPAE_clean_linker_10, # of connection points: 2
#     Edge 43, Type (0, 1), BuildingBlock: TEMPAE_clean_linker_10, # of connection points: 2
#     Edge 44, Type (0, 1), BuildingBlock: TEMPAE_clean_linker_10, # of connection points: 2
#     Edge 45, Type (0, 1), BuildingBlock: TEMPAE_clean_linker_10, # of connection points: 2
#     Edge 46, Type (0, 1), BuildingBlock: TEMPAE_clean_linker_10, # of connection points: 2
#     Edge 47, Type (0, 1), BuildingBlock: TEMPAE_clean_linker_10, # of connection points: 2
#     Edge 48, Type (0, 1), BuildingBlock: TEMPAE_clean_linker_10, # of connection points: 2
#     Edge 49, Type (0, 1), BuildingBlock: TEMPAE_clean_linker_10, # of connection points: 2
#     Edge 50, Type (0, 1), BuildingBlock: TEMPAE_clean_linker_10, # of connection points: 2
#     Edge 51, Type (0, 1), BuildingBlock: TEMPAE_clean_linker_10, # of connection points: 2
#     Edge 52, Type (0, 1), BuildingBlock: TEMPAE_clean_linker_10, # of connection points: 2
#     Edge 53, Type (0, 1), BuildingBlock: TEMPAE_clean_linker_10, # of connection points: 2
#     Edge 54, Type (0, 1), BuildingBlock: TEMPAE_clean_linker_10, # of connection points: 2
#     Edge 55, Type (0, 1), BuildingBlock: TEMPAE_clean_linker_10, # of connection points: 2
#     Edge 56, Type (0, 1), BuildingBlock: TEMPAE_clean_linker_10, # of connection points: 2
#     Edge 57, Type (0, 1), BuildingBlock: TEMPAE_clean_linker_10, # of connection points: 2
#     Edge 58, Type (0, 1), BuildingBlock: TEMPAE_clean_linker_10, # of connection points: 2
#     Edge 59, Type (0, 1), BuildingBlock: TEMPAE_clean_linker_10, # of connection points: 2
#     Edge 60, Type (0, 1), BuildingBlock: TEMPAE_clean_linker_10, # of connection points: 2
#     Edge 61, Type (0, 1), BuildingBlock: TEMPAE_clean_linker_10, # of connection points: 2
#     Edge 62, Type (0, 1), BuildingBlock: TEMPAE_clean_linker_10, # of connection points: 2
#     Edge 63, Type (0, 1), BuildingBlock: TEMPAE_clean_linker_10, # of connection points: 2
#     Edge 64, Type (0, 1), BuildingBlock: TEMPAE_clean_linker_10, # of connection points: 2
#     Edge 65, Type (0, 1), BuildingBlock: TEMPAE_clean_linker_10, # of connection points: 2
#     Edge 66, Type (0, 1), BuildingBlock: TEMPAE_clean_linker_10, # of connection points: 2
#     Edge 67, Type (0, 1), BuildingBlock: TEMPAE_clean_linker_10, # of connection points: 2
#     Edge 68, Type (0, 1), BuildingBlock: TEMPAE_clean_linker_10, # of connection points: 2
#     Edge 69, Type (0, 1), BuildingBlock: TEMPAE_clean_linker_10, # of connection points: 2
#     Edge 70, Type (0, 1), BuildingBlock: TEMPAE_clean_linker_10, # of connection points: 2
#     Edge 71, Type (0, 1), BuildingBlock: TEMPAE_clean_linker_10, # of connection points: 2
#     Edge 72, Type (0, 1), BuildingBlock: TEMPAE_clean_linker_10, # of connection points: 2
#     Edge 73, Type (0, 1), BuildingBlock: TEMPAE_clean_linker_10, # of connection points: 2
#     Edge 74, Type (0, 1), BuildingBlock: TEMPAE_clean_linker_10, # of connection points: 2
#     Edge 75, Type (0, 1), BuildingBlock: TEMPAE_clean_linker_10, # of connection points: 2
# Relax obj value: 0.063
# Max RMSD: 0.182
# Mean RMSD: 0.115
data_MOF--net-ctn--node1-UXUYUI_clean_sbu_0--node2-PAMTOO_clean_linker_0--edge1-TEMPAE_clean_linker_10
_symmetry_space_group_name_H-M    P1
_symmetry_Int_Tables_number       1
_symmetry_cell_setting            triclinic
loop_
_symmetry_equiv_pos_as_xyz
'x, y, z'
_cell_length_a     67.299292
_cell_length_b     67.72114
_cell_length_c     68.957843
_cell_angle_alpha  85.278072
_cell_angle_beta   92.332052
_cell_angle_gamma 97.186212
loop_
_atom_site_label
_atom_site_type_symbol
_atom_site_fract_x
_atom_site_fract_y
_atom_site_fract_z
_atom_type_partial_charge
H0 H 0.02359 0.08202 0.06757 0.0
H1 H 0.05018 0.02829 0.08503 0.0
H2 H 0.06676 0.0622 0.03163 0.0
H3 H 0.06049 0.01937 0.02923 0.0
C4 C 0.06661 0.01427 0.04376 0.0
O5 O 0.07238 0.03047 0.0545 0.0
H6 H 0.05462 0.00417 0.05147 0.0
C7 C 0.03392 0.07147 0.06515 0.0
C8 C 0.0451 0.07424 0.04818 0.0
C9 C 0.03543 0.05488 0.07861 0.0
C10 C 0.04847 0.04103 0.0748 0.0
C11 C 0.05965 0.04367 0.05786 0.0
C12 C 0.05794 0.06022 0.0446 0.0
H13 H 0.31016 0.69428 0.2695 0.0
H14 H 0.27518 0.71109 0.21849 0.0
H15 H 0.32427 0.7518 0.23807 0.0
H16 H 0.28806 0.77004 0.22411 0.0
C17 C 0.28269 0.7599 0.21258 0.0
O18 O 0.29589 0.74601 0.21154 0.0
H19 H 0.26762 0.75222 0.21649 0.0
C20 C 0.30717 0.7051 0.25761 0.0
C21 C 0.3194 0.72358 0.25554 0.0
C22 C 0.29102 0.70048 0.24448 0.0
C23 C 0.28734 0.71445 0.22895 0.0
C24 C 0.2994 0.73282 0.22669 0.0
C25 C 0.3153 0.73738 0.23994 0.0
H26 H 0.97158 0.49936 0.10105 0.0
H27 H 0.95245 0.47477 0.04668 0.0
H28 H 1.00083 0.45237 0.08026 0.0
H29 H 0.00688 0.45865 0.03884 0.0
C30 C 0.99142 0.45397 0.03321 0.0
O31 O 0.97865 0.44923 0.04853 0.0
H32 H 0.9864 0.46672 0.02385 0.0
C33 C 0.97305 0.48899 0.0902 0.0
C34 C 0.98778 0.47586 0.09293 0.0
C35 C 0.96023 0.48889 0.07352 0.0
C36 C 0.96227 0.47534 0.05952 0.0
C37 C 0.97684 0.46222 0.06206 0.0
C38 C 0.98947 0.46245 0.0787 0.0
H39 H 0.71386 0.82701 0.26343 0.0
H40 H 0.69274 0.77201 0.23768 0.0
H41 H 0.74612 0.8077 0.21725 0.0
H42 H 0.71814 0.79142 0.18754 0.0
C43 C 0.71406 0.77612 0.19453 0.0
O44 O 0.72202 0.77474 0.2133 0.0
H45 H 0.69744 0.7732 0.19503 0.0
C46 C 0.71539 0.8162 0.25299 0.0
C47 C 0.7316 0.81945 0.24045 0.0
C48 C 0.70114 0.79921 0.25211 0.0
C49 C 0.70354 0.78519 0.23867 0.0
C50 C 0.71971 0.78832 0.2261 0.0
C51 C 0.73363 0.80545 0.22697 0.0
H52 H 0.08637 0.9655 0.51849 0.0
H53 H 0.03384 0.94917 0.48256 0.0
H54 H 0.07222 0.00312 0.46768 0.0
H55 H 0.02931 0.00687 0.46441 0.0
C56 C 0.02347 0.99179 0.45985 0.0
O57 O 0.03926 0.98086 0.45835 0.0
H58 H 0.01311 0.98411 0.47104 0.0
C59 C 0.07685 0.96833 0.50577 0.0
C60 C 0.08164 0.98574 0.49344 0.0
C61 C 0.05959 0.95494 0.50215 0.0
C62 C 0.04706 0.95931 0.48592 0.0
C63 C 0.05153 0.97675 0.47376 0.0
C64 C 0.06879 0.98985 0.47744 0.0
H65 H 0.19926 0.75738 0.81485 0.0
H66 H 0.21626 0.70798 0.78625 0.0
H67 H 0.25132 0.72964 0.83492 0.0
H68 H 0.27606 0.72043 0.80389 0.0
C69 C 0.26514 0.70951 0.79655 0.0
O70 O 0.24848 0.70457 0.8078 0.0
H71 H 0.26085 0.71679 0.78218 0.0
C72 C 0.20896 0.74592 0.81381 0.0
C73 C 0.22537 0.74493 0.82704 0.0
C74 C 0.20528 0.73266 0.79899 0.0
C75 C 0.21871 0.71856 0.7973 0.0
C76 C 0.23543 0.71783 0.80999 0.0
C77 C 0.2386 0.73078 0.82493 0.0
H78 H 0.95078 0.56487 0.51419 0.0
H79 H 0.97322 0.53394 0.46906 0.0
H80 H 0.00929 0.58417 0.49138 0.0
H81 H 0.01482 0.58301 0.44942 0.0
C82 C 0.00792 0.56738 0.44793 0.0
O83 O 0.00702 0.55713 0.46608 0.0
H84 H 0.99257 0.56805 0.44141 0.0
C85 C 0.96261 0.56295 0.50457 0.0
C86 C 0.98042 0.57629 0.50461 0.0
C87 C 0.9597 0.54758 0.49178 0.0
C88 C 0.97491 0.54577 0.47888 0.0
C89 C 0.99261 0.55904 0.47866 0.0
C90 C 0.99539 0.57418 0.49154 0.0
H91 H 0.77713 0.80574 0.85037 0.0
H92 H 0.82453 0.77649 0.82937 0.0
H93 H 0.80202 0.82441 0.79428 0.0
H94 H 0.81115 0.79145 0.77208 0.0
C95 C 0.82291 0.7856 0.78195 0.0
O96 O 0.82781 0.79834 0.79651 0.0
H97 H 0.8167 0.77056 0.78834 0.0
C98 C 0.78747 0.804 0.83916 0.0
C99 C 0.78778 0.81677 0.82196 0.0
C100 C 0.80077 0.78946 0.8422 0.0
C101 C 0.8144 0.78779 0.82764 0.0
C102 C 0.81479 0.80034 0.81046 0.0
C103 C 0.80165 0.81488 0.80771 0.0
H104 H 0.27491 0.30505 0.35076 0.0
H105 H 0.32063 0.27453 0.32833 0.0
H106 H 0.2991 0.32364 0.29437 0.0
H107 H 0.30922 0.29366 0.26999 0.0
C108 C 0.31897 0.28564 0.28048 0.0
O109 O 0.32433 0.2971 0.29598 0.0
H110 H 0.31037 0.27121 0.2858 0.0
C111 C 0.28485 0.30307 0.33929 0.0
C112 C 0.28512 0.31599 0.32219 0.0
C113 C 0.2977 0.28808 0.34189 0.0
C114 C 0.31086 0.28615 0.32698 0.0
C115 C 0.31139 0.29902 0.31002 0.0
C116 C 0.29866 0.31395 0.30769 0.0
H117 H 0.47534 1.00155 0.60034 0.0
H118 H 0.45379 0.97559 0.54717 0.0
H119 H 0.50315 0.95372 0.57953 0.0
H120 H 0.50799 0.9616 0.53724 0.0
C121 C 0.49255 0.95592 0.53223 0.0
O122 O 0.48052 0.95073 0.54804 0.0
H123 H 0.48658 0.96817 0.52288 0.0
C124 C 0.47595 0.99065 0.5898 0.0
C125 C 0.49069 0.97753 0.5922 0.0
C126 C 0.46246 0.99025 0.5736 0.0
C127 C 0.46407 0.97649 0.55965 0.0
C128 C 0.4789 0.96362 0.56172 0.0
C129 C 0.49202 0.96405 0.57799 0.0
H130 H 0.21482 0.32481 0.76442 0.0
H131 H 0.19512 0.26834 0.74079 0.0
H132 H 0.24683 0.30518 0.71827 0.0
H133 H 0.21561 0.28779 0.68997 0.0
C134 C 0.2138 0.27229 0.69701 0.0
O135 O 0.22321 0.27182 0.71517 0.0
H136 H 0.19746 0.26758 0.69857 0.0
C137 C 0.21672 0.31355 0.75458 0.0
C138 C 0.23264 0.31697 0.74169 0.0
C139 C 0.20293 0.29612 0.75445 0.0
C140 C 0.20532 0.28203 0.74107 0.0
C141 C 0.22102 0.28543 0.72797 0.0
C142 C 0.23461 0.30284 0.7283 0.0
H143 H 0.81399 0.19416 0.76708 0.0
H144 H 0.7778 0.20994 0.7165 0.0
H145 H 0.82922 0.2497 0.73272 0.0
H146 H 0.79541 0.27034 0.71928 0.0
C147 C 0.78755 0.25942 0.70951 0.0
O148 O 0.79908 0.24419 0.70786 0.0
H149 H 0.77299 0.25317 0.716 0.0
C150 C 0.81112 0.20434 0.75461 0.0
C151 C 0.82378 0.22241 0.75146 0.0
C152 C 0.79438 0.19965 0.74218 0.0
C153 C 0.79044 0.2133 0.72642 0.0
C154 C 0.80294 0.2313 0.72316 0.0
C155 C 0.81957 0.2358 0.73558 0.0
H156 H 0.51841 0.57892 0.56374 0.0
H157 H 0.54733 0.527 0.58214 0.0
H158 H 0.56408 0.56139 0.52898 0.0
H159 H 0.55649 0.51676 0.52847 0.0
C160 C 0.56476 0.51291 0.54231 0.0
O161 O 0.57028 0.52993 0.55194 0.0
H162 H 0.55456 0.50215 0.55149 0.0
C163 C 0.52927 0.56888 0.56134 0.0
C164 C 0.54106 0.57236 0.54475 0.0
C165 C 0.53141 0.55261 0.57494 0.0
C166 C 0.54553 0.53967 0.57183 0.0
C167 C 0.55702 0.54269 0.55509 0.0
C168 C 0.55483 0.55901 0.54165 0.0
H169 H 0.58522 0.46406 0.01779 0.0
H170 H 0.53201 0.44907 0.9824 0.0
H171 H 0.57185 0.50189 0.96685 0.0
H172 H 0.53082 0.50813 0.96135 0.0
C173 C 0.52368 0.49277 0.95895 0.0
O174 O 0.53831 0.48037 0.95772 0.0
H175 H 0.5141 0.48722 0.97154 0.0
C176 C 0.57558 0.4673 0.00526 0.0
C177 C 0.58081 0.48449 0.99277 0.0
C178 C 0.55805 0.45428 1.0017 0.0
C179 C 0.54555 0.45886 0.98553 0.0
C180 C 0.55055 0.47601 0.97309 0.0
C181 C 0.56823 0.48862 0.97656 0.0
H182 H 0.69816 0.25932 0.31265 0.0
H183 H 0.71629 0.21163 0.28233 0.0
H184 H 0.75056 0.23178 0.33214 0.0
H185 H 0.77603 0.22254 0.30164 0.0
C186 C 0.76498 0.21233 0.29363 0.0
O187 O 0.74801 0.20733 0.30445 0.0
H188 H 0.7611 0.22035 0.27949 0.0
C189 C 0.70816 0.24819 0.31126 0.0
C190 C 0.72453 0.24703 0.32451 0.0
C191 C 0.7049 0.23552 0.29594 0.0
C192 C 0.71851 0.22174 0.29384 0.0
C193 C 0.73502 0.22063 0.30672 0.0
C194 C 0.73793 0.23311 0.32207 0.0
H195 H 0.45221 0.06268 0.01587 0.0
H196 H 0.47451 0.03178 0.97075 0.0
H197 H 0.5111 0.08147 0.99349 0.0
H198 H 0.51367 0.08015 0.95056 0.0
C199 C 0.50889 0.06392 0.94957 0.0
O200 O 0.50867 0.05454 0.96814 0.0
H201 H 0.49361 0.06205 0.94264 0.0
C202 C 0.46403 0.06093 0.00617 0.0
C203 C 0.482 0.07407 0.00645 0.0
C204 C 0.46115 0.04551 0.99347 0.0
C205 C 0.47647 0.04338 0.98084 0.0
C206 C 0.49426 0.05652 0.98071 0.0
C207 C 0.49707 0.0717 0.99354 0.0
Li208 Li 0.27359 0.90555 0.00347 0.0
Li209 Li 0.25679 0.87836 0.02487 0.0
Li210 Li 0.25121 0.8793 0.98824 0.0
Li211 Li 0.23601 0.90218 0.00788 0.0
C212 C 0.29539 0.87506 0.99941 0.0
N213 N 0.33433 0.87262 0.98951 0.0
C214 C 0.30912 0.86836 0.01342 0.0
C215 C 0.30138 0.88023 0.98031 0.0
C216 C 0.32876 0.86731 0.00815 0.0
C217 C 0.32115 0.87897 0.9756 0.0
C218 C 0.25929 0.91014 0.04672 0.0
C219 C 0.24315 0.90829 0.07752 0.0
N220 N 0.26102 0.91473 0.08623 0.0
C221 C 0.27744 0.91698 0.05592 0.0
C222 C 0.24196 0.90596 0.05755 0.0
C223 C 0.27803 0.91911 0.07592 0.0
C224 C 0.29856 0.93957 0.9874 0.0
N225 N 0.29761 0.92371 1.00091 0.0
C226 C 0.33122 0.93361 0.01201 0.0
C227 C 0.31345 0.92059 0.01315 0.0
C228 C 0.33271 0.95017 0.99823 0.0
C229 C 0.31606 0.95303 0.98577 0.0
H230 H 0.28565 0.94191 0.97804 0.0
H231 H 0.31223 0.90802 0.02393 0.0
C232 C 0.24615 0.84648 0.05354 0.0
N233 N 0.26034 0.86189 0.04829 0.0
C234 C 0.24844 0.83476 0.07095 0.0
C235 C 0.28017 0.85461 0.07695 0.0
C236 C 0.27722 0.86598 0.05948 0.0
C237 C 0.26561 0.83882 0.08295 0.0
H238 H 0.23308 0.84323 0.04421 0.0
H239 H 0.2884 0.87816 0.05485 0.0
C240 C 0.24734 0.91365 0.96439 0.0
N241 N 0.23867 0.92311 0.92547 0.0
C242 C 0.22797 0.91722 0.95827 0.0
C243 C 0.26238 0.91521 0.95075 0.0
C244 C 0.22386 0.92191 0.93852 0.0
C245 C 0.25767 0.9199 0.93113 0.0
C246 C 0.21147 0.86597 0.01122 0.0
C247 C 0.19993 0.85897 0.99532 0.0
C248 C 0.20247 0.86628 0.0291 0.0
C249 C 0.17951 0.8527 0.99748 0.0
C250 C 0.182 0.85991 0.03067 0.0
N251 N 0.17103 0.85333 0.01496 0.0
C252 C 0.25949 0.84783 0.9667 0.0
C253 C 0.23426 0.86585 0.95175 0.0
C254 C 0.25789 0.83519 0.95154 0.0
N255 N 0.24789 0.86291 0.96651 0.0
C256 C 0.23212 0.85352 0.9363 0.0
C257 C 0.24404 0.83791 0.93604 0.0
H258 H 0.26997 0.84551 0.97872 0.0
H259 H 0.22473 0.87747 0.95212 0.0
C260 C 0.21778 0.93371 0.02078 0.0
N261 N 0.21388 0.91705 0.01084 0.0
C262 C 0.20243 0.94497 0.02426 0.0
C263 C 0.17931 0.92206 0.0068 0.0
C264 C 0.19514 0.91129 0.00359 0.0
C265 C 0.1828 0.9391 0.0174 0.0
H266 H 0.23286 0.93824 0.0261 0.0
H267 H 0.19239 0.89836 0.99528 0.0
O268 O 0.27616 0.87649 0.00435 0.0
O269 O 0.25847 0.90767 0.02719 0.0
O270 O 0.25163 0.90907 0.98368 0.0
O271 O 0.23149 0.87221 0.00933 0.0
H272 H 0.30469 0.86411 0.02822 0.0
H273 H 0.29085 0.88508 0.96924 0.0
H274 H 0.33958 0.86228 0.01887 0.0
H275 H 0.32601 0.88301 0.96089 0.0
H276 H 0.22986 0.90501 0.08609 0.0
H277 H 0.29096 0.92049 0.04775 0.0
H278 H 0.22773 0.90106 0.05061 0.0
H279 H 0.29201 0.92425 0.08325 0.0
H280 H 0.34371 0.93066 0.02176 0.0
H281 H 0.31641 0.96575 0.97513 0.0
H282 H 0.23701 0.82253 0.07488 0.0
H283 H 0.29356 0.85835 0.08581 0.0
H284 H 0.2162 0.91623 0.96861 0.0
H285 H 0.27754 0.91293 0.95525 0.0
H286 H 0.2089 0.92457 0.93357 0.0
H287 H 0.26914 0.92106 0.92041 0.0
H288 H 0.20663 0.85844 0.98144 0.0
H289 H 0.21119 0.87129 0.04165 0.0
H290 H 0.17039 0.84735 0.98526 0.0
H291 H 0.17485 0.86016 0.0444 0.0
H292 H 0.26752 0.82349 0.95192 0.0
H293 H 0.22094 0.85595 0.9249 0.0
H294 H 0.20597 0.95822 0.03213 0.0
H295 H 0.16444 0.91686 1.00129 0.0
Li296 Li 0.12919 0.49594 0.29994 0.0
Li297 Li 0.15188 0.47473 0.28658 0.0
Li298 Li 0.15555 0.51207 0.27771 0.0
Li299 Li 0.12782 0.48945 0.26424 0.0
C300 C 0.16526 0.50261 0.32175 0.0
N301 N 0.17792 0.5135 0.35844 0.0
C302 C 0.17154 0.48843 0.33579 0.0
C303 C 0.16572 0.5224 0.3263 0.0
C304 C 0.17782 0.49421 0.35427 0.0
C305 C 0.17209 0.5276 0.34494 0.0
C306 C 0.11783 0.45085 0.29459 0.0
C307 C 0.11396 0.41566 0.28993 0.0
N308 N 0.11004 0.41151 0.30913 0.0
C309 C 0.1136 0.44626 0.31423 0.0
C310 C 0.11785 0.43546 0.28228 0.0
C311 C 0.10975 0.42627 0.32132 0.0
C312 C 0.096 0.50894 0.31581 0.0
N313 N 0.11304 0.50074 0.32104 0.0
C314 C 0.10683 0.50252 0.35477 0.0
C315 C 0.11836 0.49702 0.34012 0.0
C316 C 0.08957 0.51179 0.34975 0.0
C317 C 0.08403 0.51464 0.32994 0.0
H318 H 0.09188 0.51144 0.30056 0.0
H319 H 0.13164 0.49001 0.34405 0.0
C320 C 0.18027 0.44939 0.27842 0.0
N321 N 0.16695 0.45238 0.29188 0.0
C322 C 0.19224 0.43394 0.28161 0.0
C323 C 0.17683 0.42492 0.31262 0.0
C324 C 0.16504 0.44049 0.30876 0.0
C325 C 0.19071 0.42151 0.29896 0.0
H326 H 0.18188 0.45923 0.26529 0.0
H327 H 0.15458 0.44324 0.3194 0.0
C328 C 0.12331 0.53439 0.27459 0.0
N329 N 0.11695 0.57409 0.27081 0.0
C330 C 0.11716 0.54311 0.25663 0.0
C331 C 0.12587 0.54579 0.29071 0.0
C332 C 0.11413 0.56322 0.25498 0.0
C333 C 0.12266 0.56585 0.28849 0.0
C334 C 0.15858 0.48629 0.24179 0.0
C335 C 0.16682 0.50144 0.22843 0.0
C336 C 0.15168 0.46746 0.23553 0.0
C337 C 0.16773 0.49757 0.20891 0.0
C338 C 0.15283 0.4642 0.21589 0.0
N339 N 0.16075 0.4792 0.2031 0.0
C340 C 0.19057 0.53896 0.28401 0.0
C341 C 0.17023 0.54866 0.25691 0.0
C342 C 0.20384 0.55642 0.28092 0.0
N343 N 0.17394 0.5356 0.2723 0.0
C344 C 0.18319 0.56624 0.25319 0.0
C345 C 0.20014 0.5704 0.26542 0.0
H346 H 0.19354 0.52809 0.2958 0.0
H347 H 0.15722 0.54541 0.24749 0.0
C348 C 0.09406 0.47162 0.24303 0.0
N349 N 0.11022 0.48585 0.2419 0.0
C350 C 0.08063 0.46926 0.22713 0.0
C351 C 0.10082 0.49608 0.20911 0.0
C352 C 0.11374 0.49803 0.22539 0.0
C353 C 0.08391 0.48162 0.20987 0.0
H354 H 0.0915 0.46222 0.25636 0.0
H355 H 0.12648 0.50945 0.22493 0.0
O356 O 0.15896 0.49716 0.30361 0.0
O357 O 0.12174 0.47032 0.28742 0.0
O358 O 0.12643 0.51471 0.27644 0.0
O359 O 0.15732 0.48986 0.26092 0.0
H360 H 0.17152 0.47311 0.33251 0.0
H361 H 0.16144 0.53369 0.31551 0.0
H362 H 0.1826 0.48335 0.3653 0.0
H363 H 0.17246 0.54286 0.34865 0.0
H364 H 0.11404 0.40359 0.2806 0.0
H365 H 0.11345 0.45799 0.32394 0.0
H366 H 0.12086 0.43876 0.267 0.0
H367 H 0.10657 0.42249 0.33652 0.0
H368 H 0.11171 0.50002 0.36984 0.0
H369 H 0.07062 0.5213 0.32536 0.0
H370 H 0.20296 0.43207 0.27081 0.0
H371 H 0.17508 0.41563 0.32614 0.0
H372 H 0.11486 0.5345 0.24405 0.0
H373 H 0.13005 0.5392 0.30483 0.0
H374 H 0.10952 0.57019 0.24112 0.0
H375 H 0.12465 0.57484 0.30085 0.0
H376 H 0.17239 0.51603 0.23306 0.0
H377 H 0.14542 0.45555 0.24572 0.0
H378 H 0.17397 0.50919 0.19839 0.0
H379 H 0.14743 0.44974 0.21083 0.0
H380 H 0.21695 0.55888 0.29047 0.0
H381 H 0.17978 0.57662 0.24107 0.0
H382 H 0.06785 0.45784 0.22829 0.0
H383 H 0.10377 0.50611 0.19622 0.0
Li384 Li 0.7652 0.6204 0.03206 0.0
Li385 Li 0.78179 0.64734 0.0535 0.0
Li386 Li 0.78822 0.64849 0.01881 0.0
Li387 Li 0.80289 0.62459 0.04049 0.0
C388 C 0.75353 0.66371 0.02088 0.0
N389 N 0.73739 0.6939 0.9986 0.0
C390 C 0.76082 0.68365 0.02319 0.0
C391 C 0.73793 0.6591 0.00738 0.0
C392 C 0.7525 0.69871 0.01173 0.0
C393 C 0.72999 0.67459 0.99623 0.0
C394 C 0.778 0.61112 0.07706 0.0
C395 C 0.79067 0.61102 0.11027 0.0
N396 N 0.77404 0.59874 0.11603 0.0
C397 C 0.76102 0.59853 0.08329 0.0
C398 C 0.79295 0.61744 0.09062 0.0
C399 C 0.75931 0.59242 0.10306 0.0
C400 C 0.74319 0.58524 0.01933 0.0
N401 N 0.74186 0.60222 0.02814 0.0
C402 C 0.70643 0.59402 0.03064 0.0
C403 C 0.72403 0.60675 0.03394 0.0
C404 C 0.7072 0.5765 0.0212 0.0
C405 C 0.72596 0.57215 0.01562 0.0
H406 H 0.75761 0.582 0.01494 0.0
H407 H 0.72349 0.62033 0.04104 0.0
C408 C 0.78592 0.68123 0.07555 0.0
N409 N 0.77618 0.66249 0.07447 0.0
C410 C 0.78095 0.69335 0.08964 0.0
C411 C 0.75609 0.66664 0.10136 0.0
C412 C 0.76143 0.6551 0.08695 0.0
C413 C 0.76575 0.68614 0.10272 0.0
H414 H 0.79727 0.68695 0.06518 0.0
H415 H 0.75342 0.64043 0.08541 0.0
C416 C 0.79274 0.61925 0.99614 0.0
N417 N 0.80176 0.61885 0.95745 0.0
C418 C 0.81241 0.62458 0.99019 0.0
C419 C 0.77769 0.61344 0.98246 0.0
C420 C 0.81666 0.62437 0.97056 0.0
C421 C 0.78255 0.61341 0.96295 0.0
C422 C 0.82739 0.65833 0.046 0.0
C423 C 0.84227 0.65868 0.03238 0.0
C424 C 0.83282 0.66211 0.06525 0.0
C425 C 0.86238 0.66248 0.03832 0.0
C426 C 0.8531 0.66589 0.07062 0.0
N427 N 0.86734 0.66596 0.05716 0.0
C428 C 0.8061 0.68259 0.99579 0.0
C429 C 0.77908 0.66361 0.98012 0.0
C430 C 0.80824 0.69634 0.97949 0.0
N431 N 0.79173 0.66657 0.99579 0.0
C432 C 0.78081 0.67684 0.96349 0.0
C433 C 0.79551 0.6935 0.96303 0.0
H434 H 0.81573 0.68485 0.00855 0.0
H435 H 0.76735 0.65118 0.98065 0.0
C436 C 0.82601 0.59425 0.03346 0.0
N437 N 0.82468 0.60868 0.0458 0.0
C438 C 0.84081 0.58149 0.03643 0.0
C439 C 0.8527 0.59845 0.0649 0.0
C440 C 0.83759 0.61087 0.0614 0.0
C441 C 0.85441 0.58343 0.05236 0.0
H442 H 0.81539 0.59246 0.02137 0.0
H443 H 0.83606 0.62202 0.07135 0.0
O444 O 0.76181 0.64876 0.03161 0.0
O445 O 0.77977 0.61745 0.05781 0.0
O446 O 0.78827 0.61949 0.01529 0.0
O447 O 0.80762 0.65463 0.04044 0.0
H448 H 0.77297 0.68743 0.03351 0.0
H449 H 0.7322 0.64372 0.00539 0.0
H450 H 0.75808 0.7142 0.01324 0.0
H451 H 0.71799 0.67126 0.98563 0.0
H452 H 0.80209 0.61585 0.12094 0.0
H453 H 0.74928 0.59358 0.07294 0.0
H454 H 0.80601 0.6274 0.08606 0.0
H455 H 0.74625 0.58268 0.1081 0.0
H456 H 0.69241 0.59784 0.03552 0.0
H457 H 0.72729 0.55897 0.00811 0.0
H458 H 0.78882 0.70826 0.09021 0.0
H459 H 0.74403 0.66062 0.11089 0.0
H460 H 0.82427 0.62879 1.00064 0.0
H461 H 0.76236 0.60933 0.98678 0.0
H462 H 0.83182 0.62855 0.96574 0.0
H463 H 0.77102 0.60912 0.95218 0.0
H464 H 0.83834 0.65614 0.01736 0.0
H465 H 0.82153 0.66191 0.07601 0.0
H466 H 0.87406 0.66272 0.02794 0.0
H467 H 0.85751 0.66871 0.08549 0.0
H468 H 0.81978 0.709 0.97972 0.0
H469 H 0.77043 0.6743 0.95127 0.0
H470 H 0.84163 0.57026 0.02629 0.0
H471 H 0.86264 0.6003 0.07754 0.0
Li472 Li 0.87358 0.04028 0.2638 0.0
Li473 Li 0.89811 0.01929 0.28009 0.0
Li474 Li 0.89923 0.02699 0.24497 0.0
Li475 Li 0.87167 0.00406 0.26028 0.0
C476 C 0.90945 0.06535 0.25905 0.0
N477 N 0.92082 0.10458 0.24581 0.0
C478 C 0.92266 0.07769 0.27025 0.0
C479 C 0.902 0.07294 0.24113 0.0
C480 C 0.92824 0.0975 0.2633 0.0
C481 C 0.90793 0.09281 0.23468 0.0
C482 C 0.85219 0.00669 0.29135 0.0
C483 C 0.83583 0.97633 0.30738 0.0
N484 N 0.8178 0.98324 0.30383 0.0
C485 C 0.83352 0.01352 0.28793 0.0
C486 C 0.85339 0.98798 0.30123 0.0
C487 C 0.8163 1.00144 0.29435 0.0
C488 C 0.84159 0.06404 0.25597 0.0
N489 N 0.85902 0.06237 0.2663 0.0
C490 C 0.85601 0.09214 0.28178 0.0
C491 C 0.86631 0.07595 0.27908 0.0
C492 C 0.8379 0.09427 0.27138 0.0
C493 C 0.83071 0.07994 0.25833 0.0
H494 H 0.83601 0.05289 0.24608 0.0
H495 H 0.88006 0.0741 0.28731 0.0
C496 C 0.93491 0.02093 0.30165 0.0
N497 N 0.91473 0.01643 0.30301 0.0
C498 C 0.9475 0.01821 0.31801 0.0
C499 C 0.91825 0.00689 0.33699 0.0
C500 C 0.90625 0.00975 0.32025 0.0
C501 C 0.93921 0.01099 0.336 0.0
H502 H 0.94123 0.02637 0.28775 0.0
H503 H 0.89015 0.00663 0.32101 0.0
C504 C 0.86255 0.02563 0.22101 0.0
N505 N 0.84782 0.02414 0.18308 0.0
C506 C 0.85995 0.00754 0.21227 0.0
C507 C 0.85748 0.04293 0.2105 0.0
C508 C 0.85254 0.0071 0.19307 0.0
C509 C 0.85012 0.04188 0.19133 0.0
C510 C 0.9159 0.99096 0.267 0.0
C511 C 0.9347 0.99492 0.25865 0.0
C512 C 0.91322 0.97728 0.2833 0.0
C513 C 0.95058 0.98528 0.26687 0.0
C514 C 0.92948 0.96799 0.29112 0.0
N515 N 0.94767 0.97216 0.28281 0.0
C516 C 0.93442 0.04413 0.22501 0.0
C517 C 0.91216 0.02216 0.20696 0.0
C518 C 0.94785 0.04712 0.20979 0.0
N519 N 0.91682 0.03199 0.22327 0.0
C520 C 0.92504 0.02485 0.19133 0.0
C521 C 0.94318 0.03745 0.19264 0.0
H522 H 0.93827 0.05121 0.23836 0.0
H523 H 0.8987 0.01181 0.20619 0.0
C524 C 0.83432 0.98218 0.24991 0.0
N525 N 0.85329 0.98054 0.25685 0.0
C526 C 0.82088 0.96508 0.24723 0.0
C527 C 0.8466 0.94494 0.25935 0.0
C528 C 0.85961 0.96241 0.26148 0.0
C529 C 0.82693 0.94606 0.25199 0.0
H530 H 0.8297 0.99681 0.2463 0.0
H531 H 0.87474 0.96149 0.26692 0.0
O532 O 0.90365 0.04601 0.2658 0.0
O533 O 0.86916 0.01805 0.28467 0.0
O534 O 0.8694 0.02632 0.23995 0.0
O535 O 0.90024 1.00047 0.25932 0.0
H536 H 0.92851 0.07202 0.28419 0.0
H537 H 0.89184 0.06355 0.23228 0.0
H538 H 0.93845 0.10724 0.27182 0.0
H539 H 0.9023 0.09887 0.22082 0.0
H540 H 0.83652 0.96175 0.31489 0.0
H541 H 0.8323 0.02791 0.28027 0.0
H542 H 0.86769 0.98235 0.30382 0.0
H543 H 0.80174 0.0065 0.29172 0.0
H544 H 0.86196 0.10266 0.29219 0.0
H545 H 0.81688 0.08108 0.24994 0.0
H546 H 0.96356 0.02141 0.3165 0.0
H547 H 0.91117 1.00171 0.35061 0.0
H548 H 0.86395 0.99402 0.22009 0.0
H549 H 0.85915 0.05703 0.21707 0.0
H550 H 0.85058 0.99322 0.1861 0.0
H551 H 0.84618 0.05516 0.18302 0.0
H552 H 0.93707 0.00535 0.246 0.0
H553 H 0.89887 0.9742 0.29013 0.0
H554 H 0.96522 0.98827 0.26059 0.0
H555 H 0.92766 0.95755 0.30384 0.0
H556 H 0.96172 0.05691 0.21142 0.0
H557 H 0.92109 0.01673 0.17856 0.0
H558 H 0.80602 0.96678 0.24124 0.0
H559 H 0.8519 0.93073 0.26363 0.0
Li560 Li 0.28212 0.1453 0.55446 0.0
Li561 Li 0.26789 0.1191 0.53381 0.0
Li562 Li 0.30374 0.12426 0.54317 0.0
Li563 Li 0.291 0.14824 0.51953 0.0
C564 C 0.27721 0.11475 0.57952 0.0
N565 N 0.27003 0.11426 0.61874 0.0
C566 C 0.25789 0.10905 0.5863 0.0
C567 C 0.29293 0.11993 0.59273 0.0
C568 C 0.25455 0.10897 0.60617 0.0
C569 C 0.28899 0.11966 0.61249 0.0
C570 C 0.24946 0.15126 0.5176 0.0
C571 C 0.23407 0.14689 0.48579 0.0
N572 N 0.21987 0.15844 0.4899 0.0
C573 C 0.23472 0.16306 0.52152 0.0
C574 C 0.24915 0.14308 0.49961 0.0
C575 C 0.21988 0.16652 0.50732 0.0
C576 C 0.28912 0.17152 0.58527 0.0
N577 N 0.27499 0.16029 0.57488 0.0
C578 C 0.2488 0.17083 0.59245 0.0
C579 C 0.25516 0.15968 0.57825 0.0
C580 C 0.26299 0.1828 0.60329 0.0
C581 C 0.28342 0.1829 0.59967 0.0
H582 H 0.30478 0.17184 0.58221 0.0
H583 H 0.24426 0.15056 0.56978 0.0
C584 C 0.24363 0.08831 0.51461 0.0
N585 N 0.24401 0.10182 0.52819 0.0
C586 C 0.22596 0.07603 0.51047 0.0
C587 C 0.20914 0.09238 0.53374 0.0
C588 C 0.22717 0.10427 0.53749 0.0
C589 C 0.20838 0.0779 0.52015 0.0
H590 H 0.25698 0.08712 0.50683 0.0
H591 H 0.22769 0.11568 0.54765 0.0
C592 C 0.32878 0.15846 0.5441 0.0
N593 N 0.36997 0.16732 0.5468 0.0
C594 C 0.33957 0.1657 0.52756 0.0
C595 C 0.33892 0.15601 0.56207 0.0
C596 C 0.36039 0.17004 0.52921 0.0
C597 C 0.35976 0.16047 0.56311 0.0
C598 C 0.30026 0.10306 0.51306 0.0
C599 C 0.29476 0.08471 0.52348 0.0
C600 C 0.31576 0.1048 0.49989 0.0
C601 C 0.30477 0.06841 0.52048 0.0
C602 C 0.32539 0.08814 0.49729 0.0
N603 N 0.31976 0.07044 0.50755 0.0
C604 C 0.32381 0.09379 0.56321 0.0
C605 C 0.34363 0.11366 0.53961 0.0
C606 C 0.33871 0.0812 0.5669 0.0
N607 N 0.32642 0.10961 0.54967 0.0
C608 C 0.35904 0.10162 0.54302 0.0
C609 C 0.35656 0.08498 0.55664 0.0
H610 H 0.30984 0.09048 0.57068 0.0
H611 H 0.34514 0.12576 0.52835 0.0
C612 C 0.28701 0.18448 0.49758 0.0
N613 N 0.29424 0.16668 0.49698 0.0
C614 C 0.28763 0.19809 0.48117 0.0
C615 C 0.30371 0.17508 0.46399 0.0
C616 C 0.3025 0.1618 0.48065 0.0
C617 C 0.29602 0.19348 0.46398 0.0
H618 H 0.28035 0.18792 0.51071 0.0
H619 H 0.308 0.14753 0.48047 0.0
O620 O 0.28071 0.11552 0.56005 0.0
O621 O 0.26402 0.14768 0.53141 0.0
O622 O 0.30838 0.15422 0.54275 0.0
O623 O 0.29103 0.11934 0.51637 0.0
H624 H 0.24558 0.10481 0.57634 0.0
H625 H 0.30798 0.12421 0.58775 0.0
H626 H 0.23964 0.10471 0.6116 0.0
H627 H 0.30099 0.12378 0.62284 0.0
H628 H 0.23364 0.14067 0.47181 0.0
H629 H 0.23475 0.16947 0.53539 0.0
H630 H 0.26041 0.13386 0.49633 0.0
H631 H 0.20837 0.17563 0.51015 0.0
H632 H 0.23293 0.17007 0.59493 0.0
H633 H 0.29486 0.19207 0.60752 0.0
H634 H 0.22613 0.06507 0.49992 0.0
H635 H 0.19588 0.09473 0.54119 0.0
H636 H 0.33199 0.16782 0.51356 0.0
H637 H 0.33084 0.15064 0.57505 0.0
H638 H 0.36893 0.17553 0.51651 0.0
H639 H 0.36781 0.1585 0.5769 0.0
H640 H 0.28312 0.08318 0.53407 0.0
H641 H 0.32057 0.11891 0.49199 0.0
H642 H 0.30072 0.05418 0.52853 0.0
H643 H 0.33746 0.08931 0.4872 0.0
H644 H 0.33622 0.06853 0.57753 0.0
H645 H 0.37242 0.10484 0.53455 0.0
H646 H 0.28117 0.21186 0.48187 0.0
H647 H 0.31063 0.17093 0.45126 0.0
Li648 Li 0.39786 0.5165 0.77883 0.0
Li649 Li 0.37346 0.53832 0.7623 0.0
Li650 Li 0.37217 0.50257 0.75743 0.0
Li651 Li 0.39904 0.52444 0.74332 0.0
C652 C 0.36583 0.51323 0.8012 0.0
N653 N 0.36213 0.50989 0.84114 0.0
C654 C 0.36258 0.52983 0.81089 0.0
C655 C 0.36694 0.49488 0.8118 0.0
C656 C 0.3608 0.52784 0.83109 0.0
C657 C 0.36511 0.49351 0.83199 0.0
C658 C 0.42003 0.55501 0.75866 0.0
C659 C 0.43588 0.58328 0.73905 0.0
N660 N 0.45413 0.57769 0.74456 0.0
C661 C 0.43892 0.54955 0.76417 0.0
C662 C 0.41845 0.57201 0.74602 0.0
C663 C 0.45599 0.56122 0.75687 0.0
C664 C 0.426 0.4981 0.80367 0.0
N665 N 0.41407 0.51297 0.80196 0.0
C666 C 0.42579 0.52355 0.8331 0.0
C667 C 0.41401 0.52581 0.8161 0.0
C668 C 0.43811 0.50815 0.83543 0.0
C669 C 0.43816 0.49539 0.82034 0.0
H670 H 0.42629 0.48847 0.79198 0.0
H671 H 0.40481 0.53786 0.81415 0.0
C672 C 0.33879 0.55814 0.76335 0.0
N673 N 0.3591 0.56042 0.76548 0.0
C674 C 0.32794 0.57382 0.76656 0.0
C675 C 0.35907 0.59386 0.77432 0.0
C676 C 0.36932 0.5778 0.77091 0.0
C677 C 0.33806 0.592 0.77219 0.0
H678 H 0.33097 0.54406 0.75942 0.0
H679 H 0.38543 0.57908 0.77295 0.0
C680 C 0.40081 0.47896 0.75587 0.0
N681 N 0.39974 0.43876 0.75081 0.0
C682 C 0.4056 0.47277 0.73797 0.0
C683 C 0.39564 0.4647 0.77124 0.0
C684 C 0.40495 0.45238 0.7357 0.0
C685 C 0.39512 0.44445 0.76837 0.0
C686 C 0.35781 0.51666 0.72334 0.0
C687 C 0.3656 0.51003 0.70689 0.0
C688 C 0.33712 0.51382 0.72589 0.0
C689 C 0.35254 0.50063 0.69327 0.0
C690 C 0.32456 0.50429 0.71197 0.0
N691 N 0.33246 0.49796 0.69608 0.0
C692 C 0.33902 0.47368 0.76698 0.0
C693 C 0.35499 0.46796 0.73834 0.0
C694 C 0.3255 0.45644 0.76525 0.0
N695 N 0.35354 0.479 0.75373 0.0
C696 C 0.34196 0.45051 0.73617 0.0
C697 C 0.32704 0.44451 0.74978 0.0
H698 H 0.33798 0.48278 0.77897 0.0
H699 H 0.3663 0.47264 0.72772 0.0
C700 C 0.43378 0.52059 0.72341 0.0
N701 N 0.41719 0.53024 0.72244 0.0
C702 C 0.44704 0.52325 0.7081 0.0
C703 C 0.42654 0.54668 0.69154 0.0
C704 C 0.41349 0.54333 0.70708 0.0
C705 C 0.44337 0.53629 0.69182 0.0
H706 H 0.43656 0.51056 0.73599 0.0
H707 H 0.40025 0.55093 0.70678 0.0
O708 O 0.36785 0.51491 0.78145 0.0
O709 O 0.40314 0.54339 0.76509 0.0
O710 O 0.40127 0.49886 0.75837 0.0
O711 O 0.37039 0.52575 0.73693 0.0
H712 H 0.36165 0.54414 0.80295 0.0
H713 H 0.36921 0.48184 0.80452 0.0
H714 H 0.35842 0.5406 0.83879 0.0
H715 H 0.36606 0.47943 0.84038 0.0
H716 H 0.4349 0.59641 0.72917 0.0
H717 H 0.44036 0.53633 0.7738 0.0
H718 H 0.40391 0.57627 0.74144 0.0
H719 H 0.47072 0.55714 0.76093 0.0
H720 H 0.4251 0.53367 0.84434 0.0
H721 H 0.44775 0.48363 0.82123 0.0
H722 H 0.31179 0.57172 0.76457 0.0
H723 H 0.3675 0.60742 0.77898 0.0
H724 H 0.40939 0.48353 0.72582 0.0
H725 H 0.39198 0.46921 0.7852 0.0
H726 H 0.40848 0.44738 0.72188 0.0
H727 H 0.39104 0.43327 0.78012 0.0
H728 H 0.38157 0.51185 0.70477 0.0
H729 H 0.33084 0.5186 0.73864 0.0
H730 H 0.35837 0.49534 0.68052 0.0
H731 H 0.30854 0.50187 0.71384 0.0
H732 H 0.31421 0.45228 0.77609 0.0
H733 H 0.34344 0.44189 0.72387 0.0
H734 H 0.46001 0.5152 0.70896 0.0
H735 H 0.42321 0.55683 0.67921 0.0
Li736 Li 0.77312 0.40637 0.50164 0.0
Li737 Li 0.75681 0.37903 0.52341 0.0
Li738 Li 0.75069 0.38008 0.48675 0.0
Li739 Li 0.73566 0.4028 0.50662 0.0
C740 C 0.79545 0.37607 0.49891 0.0
N741 N 0.83521 0.37404 0.49175 0.0
C742 C 0.80842 0.37 0.51396 0.0
C743 C 0.80263 0.38078 0.48016 0.0
C744 C 0.82849 0.36916 0.51007 0.0
C745 C 0.8228 0.37975 0.47684 0.0
C746 C 0.75918 0.41181 0.54493 0.0
C747 C 0.74344 0.40998 0.57594 0.0
N748 N 0.76086 0.41856 0.58398 0.0
C749 C 0.77686 0.42083 0.55344 0.0
C750 C 0.74227 0.40653 0.55621 0.0
C751 C 0.77744 0.42403 0.57323 0.0
C752 C 0.79791 0.44013 0.48484 0.0
N753 N 0.79702 0.42468 0.4988 0.0
C754 C 0.83057 0.4351 0.50976 0.0
C755 C 0.81282 0.42207 0.51126 0.0
C756 C 0.83199 0.45117 0.49545 0.0
C757 C 0.81535 0.45365 0.48291 0.0
H758 H 0.78505 0.44204 0.47527 0.0
H759 H 0.81156 0.40996 0.52254 0.0
C760 C 0.74825 0.34534 0.55058 0.0
N761 N 0.7607 0.36252 0.54674 0.0
C762 C 0.75083 0.33338 0.56779 0.0
C763 C 0.77917 0.35684 0.57661 0.0
C764 C 0.77613 0.36825 0.55919 0.0
C765 C 0.76637 0.33919 0.58114 0.0
H766 H 0.73629 0.34094 0.54029 0.0
H767 H 0.78618 0.38165 0.55555 0.0
C768 C 0.74685 0.41384 0.46275 0.0
N769 N 0.73872 0.42195 0.4235 0.0
C770 C 0.72777 0.41802 0.45626 0.0
C771 C 0.76188 0.41409 0.4493 0.0
C772 C 0.72393 0.42202 0.43635 0.0
C773 C 0.75745 0.41813 0.42951 0.0
C774 C 0.71149 0.36634 0.5109 0.0
C775 C 0.69903 0.36029 0.49522 0.0
C776 C 0.70364 0.36531 0.52946 0.0
C777 C 0.67881 0.35372 0.49829 0.0
C778 C 0.68333 0.35866 0.53194 0.0
N779 N 0.67143 0.35308 0.51643 0.0
C780 C 0.75922 0.34916 0.46462 0.0
C781 C 0.73278 0.36622 0.45081 0.0
C782 C 0.75743 0.33657 0.44941 0.0
N783 N 0.74708 0.36373 0.46502 0.0
C784 C 0.73046 0.35396 0.4353 0.0
C785 C 0.74288 0.33885 0.43445 0.0
H786 H 0.77028 0.34722 0.47619 0.0
H787 H 0.72292 0.37751 0.45161 0.0
C788 C 0.71677 0.43344 0.52071 0.0
N789 N 0.71339 0.4174 0.50987 0.0
C790 C 0.70119 0.4444 0.5242 0.0
C791 C 0.67896 0.4226 0.50475 0.0
C792 C 0.69497 0.41202 0.50169 0.0
C793 C 0.6819 0.43898 0.51626 0.0
H794 H 0.73159 0.43772 0.52677 0.0
H795 H 0.6927 0.39964 0.49261 0.0
O796 O 0.7758 0.37727 0.50251 0.0
O797 O 0.75841 0.40832 0.52562 0.0
O798 O 0.75085 0.40984 0.48219 0.0
O799 O 0.73133 0.37285 0.50813 0.0
H800 H 0.80308 0.36611 0.52852 0.0
H801 H 0.79272 0.38513 0.46829 0.0
H802 H 0.83873 0.36463 0.52161 0.0
H803 H 0.82857 0.38347 0.46241 0.0
H804 H 0.73047 0.40589 0.58484 0.0
H805 H 0.79003 0.42523 0.54491 0.0
H806 H 0.72837 0.39997 0.54976 0.0
H807 H 0.79106 0.43087 0.58003 0.0
H808 H 0.84291 0.43284 0.51994 0.0
H809 H 0.81586 0.46582 0.47165 0.0
H810 H 0.74059 0.3199 0.57076 0.0
H811 H 0.79157 0.36166 0.58631 0.0
H812 H 0.71601 0.41808 0.46646 0.0
H813 H 0.77683 0.41128 0.45408 0.0
H814 H 0.70919 0.42516 0.43112 0.0
H815 H 0.76892 0.41827 0.41894 0.0
H816 H 0.70486 0.36079 0.4808 0.0
H817 H 0.71313 0.36942 0.54185 0.0
H818 H 0.66897 0.34913 0.48625 0.0
H819 H 0.67706 0.35787 0.54622 0.0
H820 H 0.76745 0.32526 0.44931 0.0
H821 H 0.7188 0.35605 0.42431 0.0
H822 H 0.70419 0.45681 0.53327 0.0
H823 H 0.66448 0.41812 0.49796 0.0
Li824 Li 0.65388 0.97489 0.78691 0.0
Li825 Li 0.63125 0.99618 0.80019 0.0
Li826 Li 0.63 0.99006 0.76428 0.0
Li827 Li 0.65765 0.01233 0.77842 0.0
C828 C 0.6188 0.95098 0.79307 0.0
N829 N 0.60877 0.91107 0.8047 0.0
C830 C 0.6141 0.94511 0.81241 0.0
C831 C 0.6181 0.93659 0.77958 0.0
C832 C 0.60914 0.92485 0.81803 0.0
C833 C 0.61309 0.91647 0.78576 0.0
C834 C 0.66578 1.00094 0.82314 0.0
C835 C 0.6708 0.02366 0.84857 0.0
N836 N 0.67527 0.00842 0.86145 0.0
C837 C 0.67067 0.98557 0.83658 0.0
C838 C 0.66607 0.0202 0.82913 0.0
C839 C 0.67534 0.98963 0.8559 0.0
C840 C 0.68336 0.9506 0.77924 0.0
N841 N 0.66884 0.95239 0.79192 0.0
C842 C 0.67752 0.92365 0.81153 0.0
C843 C 0.66573 0.93925 0.80785 0.0
C844 C 0.69257 0.92145 0.79862 0.0
C845 C 0.69532 0.93511 0.78222 0.0
H846 H 0.68594 0.96143 0.76692 0.0
H847 H 0.65437 0.94106 0.81794 0.0
C848 C 0.60019 0.01228 0.81696 0.0
N849 N 0.61515 1.00078 0.82146 0.0
C850 C 0.58845 0.01747 0.83152 0.0
C851 C 0.60707 0.99819 0.85517 0.0
C852 C 0.61854 0.99345 0.84012 0.0
C853 C 0.59187 0.01054 0.85101 0.0
H854 H 0.59749 0.01766 0.80202 0.0
H855 H 0.63013 0.9839 0.84337 0.0
C856 C 0.66173 0.98615 0.7426 0.0
N857 N 0.66602 0.97774 0.70456 0.0
C858 C 0.67052 1.00091 0.72916 0.0
C859 C 0.6554 0.96703 0.73677 0.0
C860 C 0.67248 0.99639 0.70997 0.0
C861 C 0.65761 0.9631 0.71746 0.0
C862 C 0.62669 0.03512 0.77376 0.0
C863 C 0.62061 0.04308 0.75544 0.0
C864 C 0.63062 0.04762 0.78896 0.0
C865 C 0.61905 0.0635 0.75252 0.0
C866 C 0.62889 0.06796 0.78548 0.0
N867 N 0.62322 0.07542 0.76747 0.0
C868 C 0.59587 0.97342 0.74271 0.0
C869 C 0.61723 0.99837 0.72499 0.0
C870 C 0.58265 0.97148 0.72659 0.0
N871 N 0.61275 0.98674 0.74164 0.0
C872 C 0.60447 0.99691 0.70855 0.0
C873 C 0.58679 0.98344 0.70922 0.0
H874 H 0.59249 0.96453 0.75619 0.0
H875 H 0.63057 0.00906 0.72455 0.0
C876 C 0.69178 0.04005 0.78591 0.0
N877 N 0.67608 0.03587 0.77325 0.0
C878 C 0.70508 0.05749 0.78276 0.0
C879 C 0.68621 0.06572 0.75328 0.0
C880 C 0.67326 0.04815 0.75702 0.0
C881 C 0.70232 0.07066 0.76631 0.0
H882 H 0.69401 0.02982 0.79845 0.0
H883 H 0.66092 0.04431 0.74696 0.0
O884 O 0.62375 0.97075 0.78734 0.0
O885 O 0.66104 0.99719 0.80418 0.0
O886 O 0.65946 0.99035 0.7614 0.0
O887 O 0.62853 0.01518 0.77684 0.0
H888 H 0.61442 0.95605 0.82301 0.0
H889 H 0.62129 0.94088 0.76448 0.0
H890 H 0.6056 0.92008 0.83298 0.0
H891 H 0.61258 0.90517 0.77548 0.0
H892 H 0.67098 0.03848 0.8534 0.0
H893 H 0.67078 0.97065 0.83221 0.0
H894 H 0.66285 0.03238 0.81888 0.0
H895 H 0.67902 0.97783 0.86647 0.0
H896 H 0.67487 0.9134 0.82432 0.0
H897 H 0.70696 0.93416 0.77206 0.0
H898 H 0.57709 0.0272 0.82755 0.0
H899 H 0.61001 0.99214 0.86989 0.0
H900 H 0.67572 0.01571 0.73346 0.0
H901 H 0.64887 0.95537 0.74706 0.0
H902 H 0.67915 0.00771 0.69939 0.0
H903 H 0.65268 0.94839 0.71273 0.0
H904 H 0.61723 0.03364 0.74357 0.0
H905 H 0.6348 0.04167 0.80334 0.0
H906 H 0.61452 0.06986 0.73838 0.0
H907 H 0.63198 0.07779 0.79711 0.0
H908 H 0.56908 0.9611 0.72789 0.0
H909 H 0.60843 0.00627 0.69544 0.0
H910 H 0.71751 0.06052 0.79299 0.0
H911 H 0.68346 0.07547 0.74046 0.0
Li912 Li 0.03398 0.27359 0.88843 0.0
Li913 Li 0.01371 0.28627 0.91318 0.0
Li914 Li 0.01832 0.25062 0.91299 0.0
Li915 Li 0.99747 0.26615 0.887 0.0
C916 C 0.04879 0.26661 0.9333 0.0
N917 N 0.06684 0.25057 0.96666 0.0
C918 C 0.04519 0.27303 0.95144 0.0
C919 C 0.06171 0.25214 0.93212 0.0
C920 C 0.05444 0.26473 0.96814 0.0
C921 C 0.07064 0.24416 0.94916 0.0
C922 C 0.00444 0.30933 0.87952 0.0
C923 C 0.97609 0.32752 0.88147 0.0
N924 N 0.98588 0.34324 0.87072 0.0
C925 C 0.01425 0.32564 0.86853 0.0
C926 C 0.98523 0.31025 0.88608 0.0
C927 C 0.0046 0.34266 0.86421 0.0
C928 C 0.05344 0.2866 0.85327 0.0
N929 N 0.05662 0.27985 0.87213 0.0
C930 C 0.09107 0.27787 0.86637 0.0
C931 C 0.07506 0.2759 0.87894 0.0
C932 C 0.08811 0.28423 0.84668 0.0
C933 C 0.06909 0.28898 0.84023 0.0
H934 H 0.03857 0.28948 0.84822 0.0
H935 H 0.07722 0.27065 0.89399 0.0
C936 C 0.99958 0.30356 0.94519 0.0
N937 N 0.01066 0.30759 0.92897 0.0
C938 C 0.99694 0.31878 0.95701 0.0
C939 C 0.01717 0.34207 0.93522 0.0
C940 C 0.01952 0.32636 0.9239 0.0
C941 C 0.00574 0.33842 0.95208 0.0
H942 H 0.99293 0.28844 0.94905 0.0
H943 H 0.02837 0.32916 0.91099 0.0
C944 C 0.02642 0.24194 0.86891 0.0
N945 N 0.04524 0.23252 0.83658 0.0
C946 C 0.01752 0.24461 0.85036 0.0
C947 C 0.04486 0.23435 0.87101 0.0
C948 C 0.02726 0.23976 0.83421 0.0
C949 C 0.05415 0.22974 0.85449 0.0
C950 C 0.97459 0.25433 0.92074 0.0
C951 C 0.97002 0.23356 0.92235 0.0
C952 C 0.95995 0.26628 0.92462 0.0
C953 C 0.95078 0.22509 0.92753 0.0
C954 C 0.94089 0.25725 0.92977 0.0
N955 N 0.93673 0.23702 0.93109 0.0
C956 C 0.01452 0.2264 0.94851 0.0
C957 C 0.02867 0.21158 0.92322 0.0
C958 C 0.01676 0.20973 0.9614 0.0
N959 N 0.02056 0.22705 0.92986 0.0
C960 C 0.03152 0.19479 0.93568 0.0
C961 C 0.02557 0.19377 0.95504 0.0
H962 H 0.00813 0.23895 0.95341 0.0
H963 H 0.03313 0.21235 0.9083 0.0
C964 C 0.97128 0.27534 0.85458 0.0
N965 N 0.97433 0.2618 0.86979 0.0
C966 C 0.95491 0.27186 0.84165 0.0
C967 C 0.94536 0.24034 0.85985 0.0
C968 C 0.96198 0.24436 0.87234 0.0
C969 C 0.94164 0.2542 0.84425 0.0
H970 H 0.98173 0.28868 0.85219 0.0
H971 H 0.96526 0.23331 0.88378 0.0
O972 O 0.03945 0.27421 0.91684 0.0
O973 O 0.01383 0.29272 0.88419 0.0
O974 O 0.01736 0.24713 0.88485 0.0
O975 O 0.99345 0.2629 0.91595 0.0
H976 H 0.03527 0.28422 0.95265 0.0
H977 H 0.06442 0.24672 0.91827 0.0
H978 H 0.05172 0.26951 0.98227 0.0
H979 H 0.08047 0.23278 0.94847 0.0
H980 H 0.96121 0.32843 0.88643 0.0
H981 H 0.02918 0.32517 0.86344 0.0
H982 H 0.97748 0.29773 0.89456 0.0
H983 H 0.012 0.35541 0.85572 0.0
H984 H 0.10558 0.2743 0.87196 0.0
H985 H 0.06617 0.29382 0.82513 0.0
H986 H 0.98831 0.31514 0.97001 0.0
H987 H 0.02404 0.35696 0.93067 0.0
H988 H 1.00332 0.25051 0.8484 0.0
H989 H 0.0522 0.23256 0.88517 0.0
H990 H 0.02057 0.24183 0.81977 0.0
H991 H 0.06853 0.22409 0.85589 0.0
H992 H 0.98109 0.22404 0.9193 0.0
H993 H 0.96327 0.28237 0.92378 0.0
H994 H 0.94701 0.20905 0.92868 0.0
H995 H 0.92941 0.26633 0.93277 0.0
H996 H 0.01208 0.20949 0.97626 0.0
H997 H 0.03818 0.18266 0.93023 0.0
H998 H 0.95267 0.28291 0.82975 0.0
H999 H 0.93582 0.22628 0.86208 0.0
Li1000 Li 0.53215 0.77364 0.38727 0.0
Li1001 Li 0.51336 0.78908 0.41091 0.0
Li1002 Li 0.51584 0.75189 0.41307 0.0
Li1003 Li 0.49587 0.76734 0.38751 0.0
C1004 C 0.55694 0.78271 0.41876 0.0
N1005 N 0.59621 0.79927 0.42446 0.0
C1006 C 0.56155 0.80333 0.4197 0.0
C1007 C 0.57229 0.7705 0.421 0.0
C1008 C 0.5815 0.81142 0.42254 0.0
C1009 C 0.59205 0.77916 0.42377 0.0
C1010 C 0.51308 0.79994 0.36269 0.0
C1011 C 0.51626 0.82633 0.33689 0.0
N1012 N 0.51458 0.81246 0.32355 0.0
C1013 C 0.51145 0.78594 0.34871 0.0
C1014 C 0.51557 0.82031 0.35674 0.0
C1015 C 0.51222 0.79256 0.32901 0.0
C1016 C 0.5554 0.76414 0.35676 0.0
N1017 N 0.55457 0.77766 0.37016 0.0
C1018 C 0.58456 0.7967 0.35808 0.0
C1019 C 0.56854 0.79398 0.37074 0.0
C1020 C 0.58599 0.7827 0.3444 0.0
C1021 C 0.57106 0.7663 0.3438 0.0
H1022 H 0.54375 0.75175 0.35587 0.0
H1023 H 0.56713 0.80509 0.38078 0.0
C1024 C 0.50867 0.80665 0.44564 0.0
N1025 N 0.51119 0.81091 0.42622 0.0
C1026 C 0.50635 0.82183 0.45762 0.0
C1027 C 0.50938 0.84554 0.42942 0.0
C1028 C 0.51156 0.82988 0.41796 0.0
C1029 C 0.50665 0.84161 0.44955 0.0
H1030 H 0.50837 0.7914 0.45179 0.0
H1031 H 0.51345 0.83281 0.40246 0.0
C1032 C 0.52119 0.72966 0.38365 0.0
N1033 N 0.53376 0.69253 0.38201 0.0
C1034 C 0.50851 0.71428 0.37563 0.0
C1035 C 0.54033 0.72621 0.39063 0.0
C1036 C 0.51513 0.6956 0.37497 0.0
C1037 C 0.54639 0.70733 0.38974 0.0
C1038 C 0.47205 0.76562 0.41701 0.0
C1039 C 0.46009 0.74754 0.4214 0.0
C1040 C 0.46315 0.78312 0.41293 0.0
C1041 C 0.4393 0.74725 0.42149 0.0
C1042 C 0.44231 0.78221 0.41316 0.0
N1043 N 0.43091 0.76444 0.41739 0.0
C1044 C 0.53259 0.72938 0.44447 0.0
C1045 C 0.50526 0.7118 0.42787 0.0
C1046 C 0.53528 0.71231 0.4566 0.0
N1047 N 0.51788 0.72876 0.43036 0.0
C1048 C 0.50746 0.69435 0.43963 0.0
C1049 C 0.52273 0.69441 0.45417 0.0
H1050 H 0.54232 0.74312 0.44621 0.0
H1051 H 0.49371 0.71173 0.41649 0.0
C1052 C 0.46394 0.77802 0.36139 0.0
N1053 N 0.47147 0.76283 0.37227 0.0
C1054 C 0.44675 0.77421 0.34957 0.0
C1055 C 0.44464 0.73942 0.36128 0.0
C1056 C 0.462 0.74388 0.37268 0.0
C1057 C 0.43695 0.75463 0.34921 0.0
H1058 H 0.47139 0.79308 0.36167 0.0
H1059 H 0.46792 0.73221 0.38197 0.0
O1060 O 0.53747 0.77451 0.41611 0.0
O1061 O 0.51276 0.79385 0.38212 0.0
O1062 O 0.51484 0.74795 0.38488 0.0
O1063 O 0.49237 0.76613 0.41628 0.0
H1064 H 0.54994 0.81304 0.41797 0.0
H1065 H 0.56903 0.75449 0.42072 0.0
H1066 H 0.58528 0.82736 0.42314 0.0
H1067 H 0.60407 0.76989 0.42544 0.0
H1068 H 0.51816 0.84205 0.33208 0.0
H1069 H 0.50959 0.77012 0.35298 0.0
H1070 H 0.51701 0.83136 0.36735 0.0
H1071 H 0.51096 0.78189 0.31805 0.0
H1072 H 0.59549 0.80982 0.35874 0.0
H1073 H 0.57151 0.75515 0.3335 0.0
H1074 H 0.50452 0.81812 0.47308 0.0
H1075 H 0.50948 0.86052 0.42254 0.0
H1076 H 0.49375 0.7167 0.36991 0.0
H1077 H 0.55035 0.738 0.39671 0.0
H1078 H 0.50545 0.68354 0.36886 0.0
H1079 H 0.56114 0.70445 0.3952 0.0
H1080 H 0.46678 0.73386 0.42453 0.0
H1081 H 0.47223 0.79721 0.40936 0.0
H1082 H 0.42982 0.73335 0.42477 0.0
H1083 H 0.43519 0.79561 0.40992 0.0
H1084 H 0.54702 0.71317 0.46783 0.0
H1085 H 0.49756 0.68086 0.43708 0.0
H1086 H 0.44149 0.78643 0.34049 0.0
H1087 H 0.43733 0.72421 0.36195 0.0
Li1088 Li 0.01616 0.77501 0.63904 0.0
Li1089 Li 0.99442 0.75711 0.66309 0.0
Li1090 Li 0.03115 0.75352 0.66407 0.0
Li1091 Li 0.00778 0.73935 0.63766 0.0
C1092 C 0.02544 0.79477 0.67469 0.0
N1093 N 0.04109 0.83023 0.68975 0.0
C1094 C 0.01267 0.80809 0.67994 0.0
C1095 C 0.04615 0.79936 0.67742 0.0
C1096 C 0.02089 0.82598 0.68743 0.0
C1097 C 0.05378 0.81739 0.68496 0.0
C1098 C 0.97412 0.77138 0.63009 0.0
C1099 C 0.94225 0.77628 0.61438 0.0
N1100 N 0.94327 0.79439 0.6218 0.0
C1101 C 0.97486 0.79002 0.63755 0.0
C1102 C 0.9577 0.76442 0.6184 0.0
C1103 C 0.95912 0.80144 0.63319 0.0
C1104 C 0.01127 0.79955 0.60441 0.0
N1105 N 0.02089 0.7993 0.62215 0.0
C1106 C 0.03781 0.83204 0.61425 0.0
C1107 C 0.03401 0.81514 0.62719 0.0
C1108 C 0.02795 0.83281 0.59589 0.0
C1109 C 0.01444 0.81624 0.59109 0.0
H1110 H 1.00123 0.78665 0.6005 0.0
H1111 H 0.04208 0.81451 0.64097 0.0
C1112 C 0.97661 0.76553 0.69723 0.0
N1113 N 0.97237 0.75851 0.67943 0.0
C1114 C 0.96115 0.76814 0.70935 0.0
C1115 C 0.9372 0.75578 0.68481 0.0
C1116 C 0.95313 0.7534 0.67317 0.0
C1117 C 0.94108 0.76343 0.70313 0.0
H1118 H 0.99205 0.76934 0.70192 0.0
H1119 H 0.9501 0.74773 0.65901 0.0
C1120 C 0.04525 0.76434 0.62013 0.0
N1121 N 0.06515 0.78477 0.58885 0.0
C1122 C 0.03949 0.75984 0.60114 0.0
C1123 C 0.0612 0.77919 0.62321 0.0
C1124 C 0.04972 0.77034 0.58552 0.0
C1125 C 0.07105 0.78937 0.60721 0.0
C1126 C 0.99361 0.71627 0.67169 0.0
C1127 C 0.99699 0.70351 0.68814 0.0
C1128 C 0.97582 0.7129 0.66063 0.0
C1129 C 0.98248 0.68751 0.69325 0.0
C1130 C 0.96167 0.69675 0.66622 0.0
N1131 N 0.96526 0.6845 0.68228 0.0
C1132 C 0.05023 0.74296 0.69998 0.0
C1133 C 0.07241 0.75215 0.67403 0.0
C1134 C 0.06633 0.7401 0.71295 0.0
N1135 N 0.05356 0.749 0.68097 0.0
C1136 C 0.08895 0.74989 0.68656 0.0
C1137 C 0.08597 0.74384 0.70628 0.0
H1138 H 0.03506 0.74053 0.70508 0.0
H1139 H 0.07465 0.75659 0.65881 0.0
C1140 C 0.99233 0.72014 0.60425 0.0
N1141 N 1.00282 0.71771 0.62136 0.0
C1142 C 0.98937 0.70477 0.59169 0.0
C1143 C 0.0077 0.68456 0.61481 0.0
C1144 C 0.0104 0.70036 0.62687 0.0
C1145 C 0.99721 0.68668 0.59684 0.0
H1146 H 0.98663 0.73418 0.60018 0.0
H1147 H 0.01866 0.69885 0.64059 0.0
O1148 O 0.01766 0.77699 0.66771 0.0
O1149 O 0.98922 0.7598 0.63435 0.0
O1150 O 0.03499 0.75462 0.63556 0.0
O1151 O 0.00762 0.73205 0.66659 0.0
H1152 H 0.99659 0.80464 0.67838 0.0
H1153 H 0.05627 0.78928 0.67346 0.0
H1154 H 0.01118 0.83645 0.69148 0.0
H1155 H 0.06978 0.82119 0.68697 0.0
H1156 H 0.92942 0.77107 0.60539 0.0
H1157 H 0.98748 0.79564 0.64651 0.0
H1158 H 0.95686 0.74996 0.61259 0.0
H1159 H 0.95952 0.81592 0.63887 0.0
H1160 H 0.04875 0.84418 0.61846 0.0
H1161 H 0.00634 0.81613 0.57721 0.0
H1162 H 0.96488 0.77376 0.72347 0.0
H1163 H 0.922 0.75211 0.6793 0.0
H1164 H 0.02713 0.74848 0.59846 0.0
H1165 H 0.0656 0.78322 0.63776 0.0
H1166 H 0.04536 0.76706 0.57075 0.0
H1167 H 0.08328 0.80102 0.60938 0.0
H1168 H 0.01069 0.70595 0.69686 0.0
H1169 H 0.97292 0.72266 0.64789 0.0
H1170 H 0.98488 0.6775 0.70595 0.0
H1171 H 0.94783 0.69397 0.65781 0.0
H1172 H 0.06351 0.73546 0.72811 0.0
H1173 H 0.10391 0.75272 0.6809 0.0
H1174 H 0.98144 0.70723 0.5779 0.0
H1175 H 0.01374 0.67081 0.61956 0.0
Li1176 Li 0.51284 0.27485 0.13807 0.0
Li1177 Li 0.49138 0.25692 0.16281 0.0
Li1178 Li 0.52785 0.25429 0.16344 0.0
Li1179 Li 0.50587 0.23785 0.1387 0.0
C1180 C 0.51975 0.2978 0.16864 0.0
N1181 N 0.53112 0.33803 0.17215 0.0
C1182 C 0.50637 0.30955 0.17564 0.0
C1183 C 0.53899 0.30648 0.16366 0.0
C1184 C 0.51238 0.32987 0.17726 0.0
C1185 C 0.54444 0.32685 0.16546 0.0
C1186 C 0.47219 0.26956 0.12683 0.0
C1187 C 0.44748 0.27754 0.10205 0.0
N1188 N 0.44334 0.2929 0.11214 0.0
C1189 C 0.46764 0.28537 0.13696 0.0
C1190 C 0.462 0.26555 0.10926 0.0
C1191 C 0.45304 0.29702 0.1293 0.0
C1192 C 0.52871 0.2973 0.10488 0.0
N1193 N 0.51728 0.2984 0.12048 0.0
C1194 C 0.51312 0.33233 0.11033 0.0
C1195 C 0.50931 0.31542 0.12327 0.0
C1196 C 0.52508 0.3317 0.09423 0.0
C1197 C 0.53283 0.31383 0.09152 0.0
H1198 H 0.5347 0.28356 0.10283 0.0
H1199 H 0.50001 0.31598 0.13553 0.0
C1200 C 0.47268 0.26527 0.1965 0.0
N1201 N 0.46896 0.25786 0.17882 0.0
C1202 C 0.45687 0.26762 0.20829 0.0
C1203 C 0.43367 0.25397 0.18376 0.0
C1204 C 0.44993 0.252 0.17239 0.0
C1205 C 0.43698 0.26211 0.20191 0.0
H1206 H 0.48797 0.26978 0.20127 0.0
H1207 H 0.44735 0.24607 0.1583 0.0
C1208 C 0.55093 0.25226 0.1325 0.0
N1209 N 0.59032 0.24625 0.12809 0.0
C1210 C 0.55579 0.2331 0.13037 0.0
C1211 C 0.56607 0.26841 0.13205 0.0
C1212 C 0.5758 0.23035 0.12825 0.0
C1213 C 0.5859 0.26506 0.12991 0.0
C1214 C 0.49156 0.21631 0.17283 0.0
C1215 C 0.4949 0.20392 0.18955 0.0
C1216 C 0.47398 0.21243 0.16156 0.0
C1217 C 0.48056 0.1878 0.19475 0.0
C1218 C 0.46 0.19617 0.16724 0.0
N1219 N 0.46355 0.1843 0.18358 0.0
C1220 C 0.55724 0.26563 0.19256 0.0
C1221 C 0.56042 0.23483 0.17976 0.0
C1222 C 0.57409 0.26386 0.2048 0.0
N1223 N 0.55092 0.25137 0.18016 0.0
C1224 C 0.57744 0.23253 0.19163 0.0
C1225 C 0.58457 0.24721 0.20436 0.0
H1226 H 0.54908 0.2783 0.19316 0.0
H1227 H 0.55475 0.22338 0.17024 0.0
C1228 C 0.49569 0.21932 0.10399 0.0
N1229 N 0.50192 0.21576 0.1228 0.0
C1230 C 0.49318 0.20392 0.09147 0.0
C1231 C 0.50383 0.18149 0.11785 0.0
C1232 C 0.50599 0.1973 0.12991 0.0
C1233 C 0.49736 0.18471 0.09833 0.0
H1234 H 0.49296 0.23422 0.09863 0.0
H1235 H 0.51116 0.19492 0.14487 0.0
O1236 O 0.51408 0.27789 0.16676 0.0
O1237 O 0.48644 0.25794 0.13408 0.0
O1238 O 0.53143 0.25521 0.13471 0.0
O1239 O 0.50546 0.23219 0.16765 0.0
H1240 H 0.49144 0.30312 0.17965 0.0
H1241 H 0.5496 0.29758 0.15847 0.0
H1242 H 0.50214 0.33915 0.18254 0.0
H1243 H 0.55925 0.33377 0.16156 0.0
H1244 H 0.4395 0.27462 0.08846 0.0
H1245 H 0.47535 0.28866 0.15057 0.0
H1246 H 0.46522 0.25329 0.10127 0.0
H1247 H 0.44942 0.30933 0.13699 0.0
H1248 H 0.50659 0.3457 0.11281 0.0
H1249 H 0.54223 0.31273 0.07938 0.0
H1250 H 0.46021 0.27418 0.22203 0.0
H1251 H 0.41865 0.24917 0.17836 0.0
H1252 H 0.54429 0.22044 0.13057 0.0
H1253 H 0.56255 0.2834 0.1332 0.0
H1254 H 0.57979 0.21558 0.12675 0.0
H1255 H 0.59777 0.27742 0.12962 0.0
H1256 H 0.50845 0.20675 0.19843 0.0
H1257 H 0.47114 0.22183 0.14855 0.0
H1258 H 0.48294 0.17808 0.20766 0.0
H1259 H 0.44633 0.193 0.15866 0.0
H1260 H 0.57864 0.2753 0.21471 0.0
H1261 H 0.58502 0.21946 0.1907 0.0
H1262 H 0.48845 0.20712 0.07646 0.0
H1263 H 0.5071 0.16689 0.12375 0.0
C1264 C 0.2478 0.76748 0.84816 0.0
C1265 C 0.22851 0.75863 0.84306 0.0
C1266 C 0.25086 0.78047 0.86319 0.0
C1267 C 0.23423 0.78479 0.87333 0.0
C1268 C 0.21474 0.77592 0.86826 0.0
C1269 C 0.21213 0.76292 0.85326 0.0
C1270 C 0.27188 0.7896 0.86819 0.0
C1271 C 0.19661 0.78011 0.87872 0.0
C1272 C 0.24252 0.80377 0.92381 0.0
C1273 C 0.24181 0.82435 0.9199 0.0
C1274 C 0.24031 0.79078 0.90879 0.0
C1275 C 0.23718 0.79849 0.88935 0.0
C1276 C 0.2365 0.81924 0.88526 0.0
C1277 C 0.23885 0.83191 0.90056 0.0
C1278 C 0.24111 0.76875 0.91376 0.0
C1279 C 0.23318 0.82805 0.86472 0.0
H1280 H 0.26052 0.76447 0.84022 0.0
H1281 H 0.19721 0.75592 0.84965 0.0
H1282 H 0.27288 0.80612 0.86627 0.0
H1283 H 0.27568 0.78555 0.88369 0.0
H1284 H 0.28322 0.78464 0.85901 0.0
H1285 H 0.18245 0.77221 0.87287 0.0
H1286 H 0.19817 0.77545 0.89446 0.0
H1287 H 0.19551 0.79638 0.87743 0.0
H1288 H 0.24449 0.79772 0.93871 0.0
H1289 H 0.23855 0.84781 0.89734 0.0
H1290 H 0.25296 0.76355 0.90542 0.0
H1291 H 0.22667 0.76018 0.90953 0.0
H1292 H 0.24417 0.76519 0.92954 0.0
H1293 H 0.24505 0.82457 0.85529 0.0
H1294 H 0.23321 0.84451 0.86395 0.0
H1295 H 0.21863 0.82127 0.85867 0.0
C1296 C 0.01085 0.54437 0.42146 0.0
C1297 C 0.02023 0.5574 0.43474 0.0
C1298 C 0.02209 0.53587 0.40832 0.0
C1299 C 0.04323 0.54037 0.40865 0.0
C1300 C 0.05281 0.55288 0.42262 0.0
C1301 C 0.04117 0.56122 0.43554 0.0
C1302 C 0.0113 0.52258 0.39371 0.0
C1303 C 0.07531 0.5579 0.42358 0.0
C1304 C 0.07399 0.50758 0.38268 0.0
C1305 C 0.07769 0.51895 0.36495 0.0
C1306 C 0.06286 0.51435 0.39709 0.0
C1307 C 0.05521 0.53293 0.39368 0.0
C1308 C 0.05893 0.54448 0.37585 0.0
C1309 C 0.07013 0.5374 0.36176 0.0
C1310 C 0.05922 0.50161 0.41591 0.0
C1311 C 0.05108 0.56439 0.37164 0.0
H1312 H 0.99465 0.54118 0.42106 0.0
H1313 H 0.0484 0.57108 0.44603 0.0
H1314 H 0.01369 0.52969 0.37877 0.0
H1315 H 0.01749 0.50809 0.39451 0.0
H1316 H 0.99493 0.51967 0.39606 0.0
H1317 H 0.0805 0.56684 0.43603 0.0
H1318 H 0.08261 0.54402 0.42489 0.0
H1319 H 0.0804 0.56651 0.40991 0.0
H1320 H 0.07958 0.49323 0.38522 0.0
H1321 H 0.07322 0.54648 0.34829 0.0
H1322 H 0.04289 0.49756 0.41782 0.0
H1323 H 0.0651 0.51014 0.42841 0.0
H1324 H 0.06641 0.48767 0.41642 0.0
H1325 H 0.03452 0.56245 0.37251 0.0
H1326 H 0.05518 0.5715 0.35702 0.0
H1327 H 0.05712 0.57469 0.38276 0.0
C1328 C 0.78205 0.76799 0.86869 0.0
C1329 C 0.80035 0.77593 0.86042 0.0
C1330 C 0.78143 0.75498 0.88567 0.0
C1331 C 0.79953 0.7496 0.89456 0.0
C1332 C 0.81805 0.75761 0.88637 0.0
C1333 C 0.81824 0.77073 0.86948 0.0
C1334 C 0.76138 0.74682 0.89399 0.0
C1335 C 0.83767 0.75219 0.89537 0.0
C1336 C 0.79906 0.72855 0.94749 0.0
C1337 C 0.79722 0.70794 0.94556 0.0
C1338 C 0.79988 0.74229 0.93104 0.0
C1339 C 0.79904 0.73526 0.9122 0.0
C1340 C 0.79751 0.71448 0.91017 0.0
C1341 C 0.79652 0.70108 0.92687 0.0
C1342 C 0.80132 0.76432 0.9338 0.0
C1343 C 0.79681 0.70638 0.89037 0.0
H1344 H 0.76813 0.77166 0.86169 0.0
H1345 H 0.83247 0.77702 0.86342 0.0
H1346 H 0.75909 0.73033 0.89377 0.0
H1347 H 0.761 0.75029 0.90941 0.0
H1348 H 0.74873 0.75303 0.88576 0.0
H1349 H 0.85079 0.75976 0.88727 0.0
H1350 H 0.83924 0.75631 0.91065 0.0
H1351 H 0.83792 0.73582 0.89572 0.0
H1352 H 0.79937 0.73391 0.9619 0.0
H1353 H 0.79533 0.68517 0.9253 0.0
H1354 H 0.78811 0.77055 0.92674 0.0
H1355 H 0.81481 0.77236 0.92667 0.0
H1356 H 0.80211 0.76737 0.94941 0.0
H1357 H 0.78357 0.71082 0.88177 0.0
H1358 H 0.79602 0.68985 0.89131 0.0
H1359 H 0.81031 0.71285 0.88225 0.0
C1360 C 0.01672 0.986 0.42384 0.0
C1361 C 0.01177 0.99425 0.44078 0.0
C1362 C 0.00543 0.98852 0.40641 0.0
C1363 C 0.98881 0.99949 0.40591 0.0
C1364 C 0.98379 0.00787 0.42293 0.0
C1365 C 0.99534 0.00514 0.44013 0.0
C1366 C 0.01125 0.97939 0.38853 0.0
C1367 C 0.96616 0.01964 0.42302 0.0
C1368 C 0.9691 0.02154 0.35746 0.0
C1369 C 0.95227 0.00779 0.35365 0.0
C1370 C 0.98129 0.01888 0.37426 0.0
C1371 C 0.97651 1.00211 0.38764 0.0
C1372 C 0.95967 0.98808 0.38381 0.0
C1373 C 0.94781 0.99106 0.36685 0.0
C1374 C 0.99913 0.03416 0.37782 0.0
C1375 C 0.95409 0.97 0.39771 0.0
H1376 H 0.02938 0.97754 0.42411 0.0
H1377 H 0.99151 0.0115 0.45321 0.0
H1378 H 0.99865 0.96867 0.38348 0.0
H1379 H 0.01436 0.99118 0.37652 0.0
H1380 H 0.02468 0.97144 0.39126 0.0
H1381 H 0.96434 0.02528 0.43744 0.0
H1382 H 0.96806 0.03255 0.41197 0.0
H1383 H 0.95218 0.01016 0.41902 0.0
H1384 H 0.97254 0.03464 0.34748 0.0
H1385 H 0.93505 0.98017 0.36388 0.0
H1386 H 0.01297 0.02677 0.37983 0.0
H1387 H 0.99722 0.04132 0.39141 0.0
H1388 H 1.00124 0.04597 0.36566 0.0
H1389 H 0.96679 0.96099 0.39983 0.0
H1390 H 0.94071 0.96034 0.39246 0.0
H1391 H 0.95093 0.9748 0.41216 0.0
C1392 C 0.23772 0.26596 0.67159 0.0
C1393 C 0.22245 0.25852 0.68442 0.0
C1394 C 0.2452 0.25348 0.65907 0.0
C1395 C 0.23735 0.23304 0.65956 0.0
C1396 C 0.22248 0.22531 0.67307 0.0
C1397 C 0.21525 0.23815 0.68539 0.0
C1398 C 0.26111 0.2623 0.64495 0.0
C1399 C 0.21384 0.20359 0.67417 0.0
C1400 C 0.23999 0.20617 0.61361 0.0
C1401 C 0.25644 0.19552 0.61787 0.0
C1402 C 0.23364 0.21836 0.62706 0.0
C1403 C 0.24396 0.21999 0.64528 0.0
C1404 C 0.26056 0.20928 0.64971 0.0
C1405 C 0.26662 0.1972 0.63595 0.0
C1406 C 0.21595 0.22962 0.6217 0.0
C1407 C 0.27189 0.21055 0.66901 0.0
H1408 H 0.24351 0.28167 0.67108 0.0
H1409 H 0.20365 0.23237 0.69554 0.0
H1410 H 0.27419 0.25376 0.64663 0.0
H1411 H 0.25511 0.26119 0.6298 0.0
H1412 H 0.26632 0.27823 0.64705 0.0
H1413 H 0.20322 0.19969 0.6862 0.0
H1414 H 0.20582 0.20012 0.66025 0.0
H1415 H 0.22603 0.19393 0.67629 0.0
H1416 H 0.23223 0.20522 0.59957 0.0
H1417 H 0.27921 0.18887 0.63943 0.0
H1418 H 0.22057 0.2459 0.62206 0.0
H1419 H 0.20407 0.22539 0.63249 0.0
H1420 H 0.20947 0.22665 0.607 0.0
H1421 H 0.27803 0.22626 0.67096 0.0
H1422 H 0.28444 0.20126 0.67023 0.0
H1423 H 0.26158 0.20558 0.68108 0.0
C1424 C 0.49791 0.54898 0.5901 0.0
C1425 C 0.51874 0.54928 0.59229 0.0
C1426 C 0.4857 0.54653 0.60636 0.0
C1427 C 0.49459 0.54468 0.62529 0.0
C1428 C 0.51564 0.54492 0.62758 0.0
C1429 C 0.52746 0.54703 0.61101 0.0
C1430 C 0.4633 0.54595 0.60328 0.0
C1431 C 0.5257 0.54329 0.64752 0.0
C1432 C 0.46424 0.55752 0.66688 0.0
C1433 C 0.45675 0.53854 0.67499 0.0
C1434 C 0.47688 0.55975 0.65091 0.0
C1435 C 0.48182 0.54257 0.64267 0.0
C1436 C 0.4742 0.52336 0.65078 0.0
C1437 C 0.46189 0.52158 0.66695 0.0
C1438 C 0.48496 0.58048 0.64287 0.0
C1439 C 0.47878 0.50468 0.6422 0.0
H1440 H 0.49115 0.55055 0.5756 0.0
H1441 H 0.54359 0.54744 0.6127 0.0
H1442 H 0.45561 0.5319 0.61034 0.0
H1443 H 0.45801 0.55849 0.61018 0.0
H1444 H 0.45871 0.54698 0.5876 0.0
H1445 H 0.54222 0.5438 0.6468 0.0
H1446 H 0.52235 0.55568 0.65596 0.0
H1447 H 0.51971 0.52913 0.65565 0.0
H1448 H 0.46041 0.57064 0.67319 0.0
H1449 H 0.45592 0.50688 0.67308 0.0
H1450 H 0.47963 0.58302 0.62753 0.0
H1451 H 0.50157 0.58204 0.64289 0.0
H1452 H 0.48028 0.59227 0.65136 0.0
H1453 H 0.47336 0.50475 0.62679 0.0
H1454 H 0.47172 0.49087 0.65026 0.0
H1455 H 0.49521 0.50427 0.64233 0.0
C1456 C 0.80054 0.27754 0.67827 0.0
C1457 C 0.78419 0.27009 0.6898 0.0
C1458 C 0.79777 0.28825 0.66025 0.0
C1459 C 0.77821 0.29185 0.65376 0.0
C1460 C 0.76165 0.28436 0.66539 0.0
C1461 C 0.76485 0.27357 0.68328 0.0
C1462 C 0.8158 0.29593 0.64825 0.0
C1463 C 0.74059 0.28802 0.65906 0.0
C1464 C 0.77307 0.33621 0.6172 0.0
C1465 C 0.76926 0.32698 0.59973 0.0
C1466 C 0.77595 0.32495 0.63488 0.0
C1467 C 0.77512 0.30393 0.63509 0.0
C1468 C 0.7713 0.29452 0.6175 0.0
C1469 C 0.76833 0.30615 0.60003 0.0
C1470 C 0.77979 0.33554 0.65335 0.0
C1471 C 0.77047 0.27217 0.61711 0.0
H1472 H 0.81552 0.27505 0.68346 0.0
H1473 H 0.75221 0.26802 0.69229 0.0
H1474 H 0.81374 0.29047 0.63348 0.0
H1475 H 0.81741 0.31248 0.64645 0.0
H1476 H 0.82989 0.29121 0.65501 0.0
H1477 H 0.72931 0.28085 0.6696 0.0
H1478 H 0.73956 0.3043 0.65746 0.0
H1479 H 0.73673 0.2822 0.64464 0.0
H1480 H 0.77355 0.35228 0.61708 0.0
H1481 H 0.76561 0.29896 0.58653 0.0
H1482 H 0.79443 0.33248 0.66015 0.0
H1483 H 0.7681 0.3298 0.66398 0.0
H1484 H 0.77989 0.35195 0.65071 0.0
H1485 H 0.7849 0.26731 0.62274 0.0
H1486 H 0.76739 0.26715 0.60223 0.0
H1487 H 0.75862 0.26455 0.62678 0.0
C1488 C 0.49774 0.97978 0.62808 0.0
C1489 C 0.50475 0.97802 0.60948 0.0
C1490 C 0.51083 0.98035 0.64448 0.0
C1491 C 0.53146 0.97916 0.64227 0.0
C1492 C 0.53863 0.9773 0.62356 0.0
C1493 C 0.52521 0.97675 0.60741 0.0
C1494 C 0.50257 0.98227 0.66418 0.0
C1495 C 0.56053 0.97609 0.62057 0.0
C1496 C 0.5685 0.9997 0.68097 0.0
C1497 C 0.57259 0.98226 0.69207 0.0
C1498 C 0.55519 0.99889 0.66476 0.0
C1499 C 0.54561 0.98019 0.65948 0.0
C1500 C 0.54959 0.96252 0.67064 0.0
C1501 C 0.56302 0.96376 0.68677 0.0
C1502 C 0.55132 0.01809 0.65329 0.0
C1503 C 0.5397 0.94229 0.66547 0.0
H1504 H 0.48192 0.98049 0.62985 0.0
H1505 H 0.5308 0.97564 0.59307 0.0
H1506 H 0.50582 0.96944 0.67438 0.0
H1507 H 0.51 0.99601 0.67038 0.0
H1508 H 0.48613 0.98285 0.66347 0.0
H1509 H 0.56365 0.9743 0.60516 0.0
H1510 H 0.56967 0.98982 0.62513 0.0
H1511 H 0.56553 0.96331 0.62979 0.0
H1512 H 0.57553 0.01409 0.68513 0.0
H1513 H 0.56624 0.95019 0.6951 0.0
H1514 H 0.53516 0.01985 0.65341 0.0
H1515 H 0.55523 0.01761 0.63788 0.0
H1516 H 0.56007 0.0314 0.6592 0.0
H1517 H 0.52316 0.94184 0.66556 0.0
H1518 H 0.54422 0.93 0.67572 0.0
H1519 H 0.54365 0.93958 0.65054 0.0
C1520 C 0.85384 0.21288 0.77104 0.0
C1521 C 0.84125 0.22734 0.76486 0.0
C1522 C 0.87029 0.21728 0.78383 0.0
C1523 C 0.87419 0.23657 0.79068 0.0
C1524 C 0.86155 0.25124 0.78448 0.0
C1525 C 0.84527 0.24647 0.7716 0.0
C1526 C 0.8835 0.20128 0.78998 0.0
C1527 C 0.86513 0.27194 0.79157 0.0
C1528 C 0.90543 0.24213 0.83757 0.0
C1529 C 0.92429 0.24999 0.83053 0.0
C1530 C 0.88897 0.23784 0.82477 0.0
C1531 C 0.89144 0.24136 0.80444 0.0
C1532 C 0.91044 0.24932 0.79724 0.0
C1533 C 0.92661 0.25359 0.81037 0.0
C1534 C 0.86892 0.22953 0.83302 0.0
C1535 C 0.91372 0.25314 0.77566 0.0
H1536 H 0.85095 0.19815 0.7657 0.0
H1537 H 0.83546 0.25763 0.76706 0.0
H1538 H 0.89918 0.20648 0.78594 0.0
H1539 H 0.8835 0.19823 0.80604 0.0
H1540 H 0.87854 0.18709 0.7832 0.0
H1541 H 0.85397 0.28165 0.7853 0.0
H1542 H 0.86446 0.27101 0.80767 0.0
H1543 H 0.88033 0.27911 0.78768 0.0
H1544 H 0.9035 0.23952 0.85314 0.0
H1545 H 0.9412 0.25942 0.80484 0.0
H1546 H 0.86391 0.2147 0.82757 0.0
H1547 H 0.85749 0.23946 0.82807 0.0
H1548 H 0.86943 0.2279 0.84919 0.0
H1549 H 0.91019 0.239 0.76847 0.0
H1550 H 0.92937 0.25949 0.77243 0.0
H1551 H 0.90345 0.26362 0.76909 0.0
C1552 C 0.48172 0.93562 0.50363 0.0
C1553 C 0.49343 0.93805 0.52074 0.0
C1554 C 0.48322 0.91959 0.49228 0.0
C1555 C 0.49663 0.90556 0.49829 0.0
C1556 C 0.50801 0.90762 0.51592 0.0
C1557 C 0.50621 0.92382 0.52697 0.0
C1558 C 0.47075 0.91789 0.47366 0.0
C1559 C 0.52236 0.89293 0.52292 0.0
C1560 C 0.4897 0.85514 0.47656 0.0
C1561 C 0.50406 0.85799 0.46205 0.0
C1562 C 0.48712 0.87045 0.48846 0.0
C1563 C 0.4992 0.8891 0.48585 0.0
C1564 C 0.51373 0.89207 0.47126 0.0
C1565 C 0.51597 0.87651 0.45954 0.0
C1566 C 0.47139 0.86671 0.50377 0.0
C1567 C 0.52699 0.91168 0.46806 0.0
H1568 H 0.47164 0.94651 0.49895 0.0
H1569 H 0.51508 0.92561 0.54033 0.0
H1570 H 0.48071 0.91921 0.46107 0.0
H1571 H 0.46169 0.90302 0.47379 0.0
H1572 H 0.4605 0.92958 0.4714 0.0
H1573 H 0.52956 0.89623 0.53727 0.0
H1574 H 0.51438 0.87755 0.52414 0.0
H1575 H 0.53426 0.89327 0.51218 0.0
H1576 H 0.48026 0.84098 0.47844 0.0
H1577 H 0.52727 0.87877 0.44855 0.0
H1578 H 0.4603 0.87753 0.50104 0.0
H1579 H 0.47843 0.86905 0.51836 0.0
H1580 H 0.46331 0.85135 0.50406 0.0
H1581 H 0.51764 0.92396 0.46449 0.0
H1582 H 0.53756 0.91161 0.45612 0.0
H1583 H 0.53576 0.91506 0.48162 0.0
C1584 C 0.16677 0.28485 0.76196 0.0
C1585 C 0.186 0.29296 0.76813 0.0
C1586 C 0.15055 0.28269 0.77449 0.0
C1587 C 0.15353 0.28899 0.79358 0.0
C1588 C 0.17291 0.29696 0.79998 0.0
C1589 C 0.1889 0.2987 0.78726 0.0
C1590 C 0.13014 0.27393 0.7672 0.0
C1591 C 0.17672 0.3039 0.82021 0.0
C1592 C 0.1089 0.30223 0.81982 0.0
C1593 C 0.10466 0.28538 0.83287 0.0
C1594 C 0.1247 0.30356 0.80689 0.0
C1595 C 0.13637 0.28754 0.80684 0.0
C1596 C 0.13192 0.27034 0.81978 0.0
C1597 C 0.1162 0.26952 0.83271 0.0
C1598 C 0.12912 0.32225 0.79349 0.0
C1599 C 0.1438 0.25283 0.81999 0.0
H1600 H 0.16428 0.28059 0.74717 0.0
H1601 H 0.20374 0.3046 0.79232 0.0
H1602 H 0.12421 0.26102 0.77715 0.0
H1603 H 0.1195 0.2852 0.76706 0.0
H1604 H 0.13049 0.26891 0.75229 0.0
H1605 H 0.19266 0.30978 0.82294 0.0
H1606 H 0.16729 0.31582 0.82237 0.0
H1607 H 0.17246 0.29139 0.83124 0.0
H1608 H 0.10009 0.31456 0.81999 0.0
H1609 H 0.11276 0.25634 0.84259 0.0
H1610 H 0.12833 0.31843 0.77811 0.0
H1611 H 0.14458 0.32938 0.7965 0.0
H1612 H 0.11851 0.33327 0.79516 0.0
H1613 H 0.14335 0.24726 0.80527 0.0
H1614 H 0.13805 0.24033 0.83052 0.0
H1615 H 0.15974 0.2576 0.82386 0.0
C1616 C 0.5379 0.60874 0.53789 0.0
C1617 C 0.53904 0.59005 0.53088 0.0
C1618 C 0.53549 0.62554 0.52511 0.0
C1619 C 0.53413 0.62364 0.50479 0.0
C1620 C 0.53543 0.60486 0.49759 0.0
C1621 C 0.53793 0.58829 0.51073 0.0
C1622 C 0.53433 0.64533 0.53336 0.0
C1623 C 0.53395 0.60223 0.47604 0.0
C1624 C 0.50906 0.66314 0.47384 0.0
C1625 C 0.52562 0.67594 0.4667 0.0
C1626 C 0.51161 0.64588 0.48596 0.0
C1627 C 0.53119 0.64132 0.49115 0.0
C1628 C 0.54797 0.65404 0.48382 0.0
C1629 C 0.54498 0.67115 0.47165 0.0
C1630 C 0.49334 0.63268 0.49349 0.0
C1631 C 0.56908 0.64969 0.489 0.0
H1632 H 0.53905 0.61025 0.55344 0.0
H1633 H 0.53862 0.57385 0.50526 0.0
H1634 H 0.54635 0.65665 0.52738 0.0
H1635 H 0.5198 0.65077 0.52898 0.0
H1636 H 0.53584 0.64434 0.5495 0.0
H1637 H 0.53555 0.58672 0.47278 0.0
H1638 H 0.51926 0.60605 0.46998 0.0
H1639 H 0.54572 0.61257 0.46839 0.0
H1640 H 0.49405 0.66682 0.47028 0.0
H1641 H 0.55786 0.68076 0.46593 0.0
H1642 H 0.49329 0.6324 0.5096 0.0
H1643 H 0.49374 0.61712 0.48974 0.0
H1644 H 0.47915 0.63784 0.48745 0.0
H1645 H 0.57178 0.64963 0.50498 0.0
H1646 H 0.58051 0.66084 0.48176 0.0
H1647 H 0.57118 0.63465 0.48477 0.0
C1648 C 0.85662 0.77346 0.77987 0.0
C1649 C 0.8413 0.78347 0.77086 0.0
C1650 C 0.87341 0.77044 0.76951 0.0
C1651 C 0.87486 0.7776 0.74966 0.0
C1652 C 0.85958 0.78808 0.74063 0.0
C1653 C 0.843 0.79094 0.75136 0.0
C1654 C 0.88943 0.75932 0.77972 0.0
C1655 C 0.86055 0.79597 0.71951 0.0
C1656 C 0.9255 0.78404 0.7257 0.0
C1657 C 0.92432 0.7668 0.71548 0.0
C1658 C 0.90964 0.78764 0.73704 0.0
C1659 C 0.8921 0.77372 0.73818 0.0
C1660 C 0.89086 0.75623 0.72804 0.0
C1661 C 0.90696 0.75297 0.71685 0.0
C1662 C 0.91155 0.80647 0.74763 0.0
C1663 C 0.87244 0.741 0.7289 0.0
H1664 H 0.85528 0.76776 0.79498 0.0
H1665 H 0.83119 0.79875 0.7444 0.0
H1666 H 0.89047 0.74542 0.77256 0.0
H1667 H 0.90424 0.76853 0.77856 0.0
H1668 H 0.8864 0.75533 0.79536 0.0
H1669 H 0.84773 0.80426 0.7148 0.0
H1670 H 0.87468 0.80604 0.71702 0.0
H1671 H 0.8606 0.7834 0.71016 0.0
H1672 H 0.9387 0.79496 0.72453 0.0
H1673 H 0.90601 0.73948 0.70926 0.0
H1674 H 0.90928 0.8027 0.76341 0.0
H1675 H 0.89975 0.81578 0.74218 0.0
H1676 H 0.92641 0.81549 0.74574 0.0
H1677 H 0.86956 0.7354 0.74422 0.0
H1678 H 0.8739 0.72808 0.72034 0.0
H1679 H 0.85915 0.74807 0.72319 0.0
C1680 C 0.03466 0.92994 0.52014 0.0
C1681 C 0.05461 0.93658 0.51539 0.0
C1682 C 0.02981 0.91283 0.5328 0.0
C1683 C 0.04529 0.90223 0.54117 0.0
C1684 C 0.06544 0.9088 0.53645 0.0
C1685 C 0.06984 0.92577 0.52352 0.0
C1686 C 0.00812 0.90618 0.53733 0.0
C1687 C 0.08239 0.89799 0.54519 0.0
C1688 C 0.03521 0.86992 0.5883 0.0
C1689 C 0.032 0.85064 0.58177 0.0
C1690 C 0.03957 0.8868 0.57526 0.0
C1691 C 0.04046 0.88444 0.55512 0.0
C1692 C 0.03696 0.8651 0.54836 0.0
C1693 C 0.03292 0.84844 0.56176 0.0
C1694 C 0.04337 0.90718 0.58307 0.0
C1695 C 0.0376 0.86199 0.52697 0.0
H1696 H 0.0228 0.9383 0.51422 0.0
H1697 H 0.08525 0.93051 0.5197 0.0
H1698 H 0.00397 0.89045 0.53386 0.0
H1699 H 0.00587 0.90678 0.5531 0.0
H1700 H 0.99781 0.91559 0.52904 0.0
H1701 H 0.09725 0.90507 0.54011 0.0
H1702 H 0.08244 0.89774 0.5613 0.0
H1703 H 0.08023 0.88225 0.54138 0.0
H1704 H 0.0342 0.87186 0.60366 0.0
H1705 H 0.03081 0.83363 0.55655 0.0
H1706 H 0.0324 0.91686 0.5764 0.0
H1707 H 0.05852 0.91443 0.57907 0.0
H1708 H 0.0423 0.90645 0.59915 0.0
H1709 H 0.0269 0.87083 0.51855 0.0
H1710 H 0.03385 0.84605 0.524 0.0
H1711 H 0.05276 0.86737 0.52153 0.0
C1712 C 0.16938 0.73858 0.79187 0.0
C1713 C 0.18752 0.73363 0.78534 0.0
C1714 C 0.15276 0.74018 0.77912 0.0
C1715 C 0.154 0.73618 0.75942 0.0
C1716 C 0.17203 0.73072 0.75278 0.0
C1717 C 0.18862 0.72977 0.76572 0.0
C1718 C 0.13391 0.74637 0.78671 0.0
C1719 C 0.17385 0.72599 0.73195 0.0
C1720 C 0.10492 0.72381 0.73106 0.0
C1721 C 0.10334 0.7418 0.71986 0.0
C1722 C 0.12149 0.72165 0.74377 0.0
C1723 C 0.13654 0.73805 0.74568 0.0
C1724 C 0.13484 0.75633 0.73455 0.0
C1725 C 0.11837 0.7579 0.72159 0.0
C1726 C 0.123 0.70178 0.75503 0.0
C1727 C 0.15029 0.77431 0.73649 0.0
H1728 H 0.16809 0.74116 0.80704 0.0
H1729 H 0.20256 0.72626 0.76033 0.0
H1730 H 0.12998 0.76002 0.77815 0.0
H1731 H 0.1212 0.73449 0.78492 0.0
H1732 H 0.13551 0.7494 0.80232 0.0
H1733 H 0.18851 0.72089 0.72935 0.0
H1734 H 0.16171 0.71419 0.72808 0.0
H1735 H 0.1721 0.73943 0.72199 0.0
H1736 H 0.09333 0.71133 0.72958 0.0
H1737 H 0.11702 0.77186 0.71302 0.0
H1738 H 0.12324 0.70354 0.77089 0.0
H1739 H 0.13724 0.69621 0.75181 0.0
H1740 H 0.11033 0.69036 0.75149 0.0
H1741 H 0.15154 0.77823 0.75185 0.0
H1742 H 0.14654 0.78754 0.72709 0.0
H1743 H 0.1652 0.77082 0.73256 0.0
C1744 C 0.99104 0.61193 0.51173 0.0
C1745 C 0.98325 0.59244 0.51824 0.0
C1746 C 0.99342 0.62737 0.52437 0.0
C1747 C 0.98797 0.6232 0.54405 0.0
C1748 C 0.98024 0.60352 0.55075 0.0
C1749 C 0.97793 0.5884 0.53777 0.0
C1750 C 1.00158 0.64818 0.51663 0.0
C1751 C 0.97442 0.59842 0.57165 0.0
C1752 C 0.01051 0.65898 0.58111 0.0
C1753 C 0.99475 0.67028 0.58342 0.0
C1754 C 0.00849 0.6436 0.56842 0.0
C1755 C 0.99031 0.63944 0.55763 0.0
C1756 C 0.97435 0.65078 0.55984 0.0
C1757 C 0.97673 0.666 0.57273 0.0
C1758 C 0.02585 0.63183 0.56651 0.0
C1759 C 0.95473 0.64683 0.54859 0.0
H1760 H 0.99496 0.6152 0.49661 0.0
H1761 H 0.97213 0.57332 0.54296 0.0
H1762 H 0.99048 0.65864 0.51843 0.0
H1763 H 0.01534 0.65345 0.52507 0.0
H1764 H 0.00522 0.64893 0.501 0.0
H1765 H 0.96873 0.58237 0.57458 0.0
H1766 H 0.98753 0.60213 0.58154 0.0
H1767 H 0.96264 0.60749 0.57528 0.0
H1768 H 0.02461 0.66235 0.58903 0.0
H1769 H 0.96436 0.67442 0.57459 0.0
H1770 H 0.03074 0.63349 0.55123 0.0
H1771 H 0.0211 0.61572 0.57018 0.0
H1772 H 0.03888 0.63672 0.57614 0.0
H1773 H 0.95739 0.64845 0.53273 0.0
H1774 H 0.94388 0.65714 0.55175 0.0
H1775 H 0.94786 0.63127 0.55219 0.0
C1776 C 0.75563 0.84232 0.2593 0.0
C1777 C 0.74625 0.8376 0.24148 0.0
C1778 C 0.76905 0.8598 0.26067 0.0
C1779 C 0.77283 0.87306 0.24389 0.0
C1780 C 0.76337 0.86833 0.22584 0.0
C1781 C 0.75033 0.85052 0.22481 0.0
C1782 C 0.77916 0.86408 0.28009 0.0
C1783 C 0.76672 0.88227 0.20771 0.0
C1784 C 0.79237 0.92682 0.25274 0.0
C1785 C 0.8129 0.9275 0.24936 0.0
C1786 C 0.7791 0.90935 0.25057 0.0
C1787 C 0.78656 0.89195 0.24532 0.0
C1788 C 0.8072 0.89248 0.24187 0.0
C1789 C 0.82005 0.91027 0.2437 0.0
C1790 C 0.75712 0.90946 0.25411 0.0
C1791 C 0.81578 0.87417 0.23649 0.0
H1792 H 0.75254 0.83223 0.27215 0.0
H1793 H 0.7429 0.84693 0.21107 0.0
H1794 H 0.79567 0.86616 0.27871 0.0
H1795 H 0.77486 0.87816 0.28488 0.0
H1796 H 0.77514 0.8519 0.29157 0.0
H1797 H 0.75824 0.8764 0.19482 0.0
H1798 H 0.76204 0.897 0.21011 0.0
H1799 H 0.78288 0.88479 0.20446 0.0
H1800 H 0.78665 0.93986 0.2574 0.0
H1801 H 0.83576 0.91065 0.24062 0.0
H1802 H 0.75258 0.89888 0.26675 0.0
H1803 H 0.74797 0.90437 0.2413 0.0
H1804 H 0.75353 0.92449 0.25702 0.0
H1805 H 0.81274 0.86188 0.24805 0.0
H1806 H 0.8322 0.877 0.23443 0.0
H1807 H 0.80842 0.86892 0.22284 0.0
C1808 C 0.78172 0.18227 0.30609 0.0
C1809 C 0.77434 0.19383 0.29027 0.0
C1810 C 0.79143 0.16558 0.30321 0.0
C1811 C 0.79392 0.16043 0.28402 0.0
C1812 C 0.78622 0.17192 0.26801 0.0
C1813 C 0.77649 0.18846 0.27133 0.0
C1814 C 0.79931 0.15366 0.32068 0.0
C1815 C 0.78861 0.16698 0.24734 0.0
C1816 C 0.83661 0.13056 0.27551 0.0
C1817 C 0.82654 0.11124 0.27435 0.0
C1818 C 0.82616 0.14668 0.27859 0.0
C1819 C 0.80513 0.14342 0.28067 0.0
C1820 C 0.79487 0.12396 0.27949 0.0
C1821 C 0.80568 0.10812 0.27628 0.0
C1822 C 0.83765 0.16722 0.27958 0.0
C1823 C 0.77248 0.11984 0.28176 0.0
H1824 H 0.78008 0.18648 0.32072 0.0
H1825 H 0.77081 0.1974 0.25906 0.0
H1826 H 0.79317 0.13769 0.3204 0.0
H1827 H 0.81586 0.15451 0.32018 0.0
H1828 H 0.79542 0.1591 0.33463 0.0
H1829 H 0.78128 0.17705 0.23653 0.0
H1830 H 0.80476 0.16817 0.24415 0.0
H1831 H 0.78209 0.15135 0.24545 0.0
H1832 H 0.85268 0.13313 0.27379 0.0
H1833 H 0.79784 0.09319 0.27564 0.0
H1834 H 0.83552 0.17299 0.29386 0.0
H1835 H 0.83181 0.17771 0.26817 0.0
H1836 H 0.85396 0.16727 0.2776 0.0
H1837 H 0.76849 0.12405 0.29619 0.0
H1838 H 0.76673 0.10388 0.28043 0.0
H1839 H 0.76472 0.12908 0.27056 0.0
C1840 C 0.44256 0.01103 0.99302 0.0
C1841 C 0.44216 0.03166 0.99344 0.0
C1842 C 0.42477 0.99775 0.99337 0.0
C1843 C 0.40612 0.00526 0.99408 0.0
C1844 C 0.40561 0.02608 0.99428 0.0
C1845 C 0.42363 0.03902 0.99398 0.0
C1846 C 0.42596 0.97564 0.99326 0.0
C1847 C 0.38602 0.03468 0.99491 0.0
C1848 C 0.35891 0.97235 0.97899 0.0
C1849 C 0.35141 0.96447 0.99709 0.0
C1850 C 0.37664 0.98571 0.97778 0.0
C1851 C 0.38718 0.99128 0.99507 0.0
C1852 C 0.37967 0.98345 0.01337 0.0
C1853 C 0.36188 0.97019 0.01415 0.0
C1854 C 0.38418 0.99375 0.958 0.0
C1855 C 0.39043 0.98906 0.03214 0.0
H1856 H 0.45684 0.00523 0.99281 0.0
H1857 H 0.4232 0.05496 0.99402 0.0
H1858 H 0.41957 0.96773 0.00676 0.0
H1859 H 0.41691 0.96954 0.98081 0.0
H1860 H 0.44159 0.97224 0.99222 0.0
H1861 H 0.38817 0.05124 0.99461 0.0
H1862 H 0.37614 0.03021 0.98233 0.0
H1863 H 0.37809 0.02863 0.00832 0.0
H1864 H 0.35106 0.96784 0.96573 0.0
H1865 H 0.35604 0.96445 0.0282 0.0
H1866 H 0.39928 0.98938 0.95609 0.0
H1867 H 0.38567 0.01031 0.95682 0.0
H1868 H 0.37407 0.98822 0.94596 0.0
H1869 H 0.4059 0.98495 0.03249 0.0
H1870 H 0.38267 0.98158 0.04518 0.0
H1871 H 0.39165 0.00545 0.03304 0.0
C1872 C 0.27796 0.35097 0.3121 0.0
C1873 C 0.27113 0.33145 0.3194 0.0
C1874 C 0.26483 0.3656 0.30913 0.0
C1875 C 0.24432 0.36059 0.31343 0.0
C1876 C 0.23735 0.34093 0.32086 0.0
C1877 C 0.25084 0.32663 0.32382 0.0
C1878 C 0.27291 0.38643 0.30137 0.0
C1879 C 0.21558 0.33493 0.32546 0.0
C1880 C 0.2135 0.40263 0.32119 0.0
C1881 C 0.20391 0.40544 0.3029 0.0
C1882 C 0.22662 0.38805 0.32485 0.0
C1883 C 0.23013 0.37587 0.30991 0.0
C1884 C 0.22027 0.37844 0.2915 0.0
C1885 C 0.20734 0.39323 0.2882 0.0
C1886 C 0.23695 0.38588 0.34462 0.0
C1887 C 0.22344 0.36564 0.27525 0.0
H1888 H 0.29366 0.35485 0.30887 0.0
H1889 H 0.24542 0.31152 0.32925 0.0
H1890 H 0.26521 0.39034 0.2873 0.0
H1891 H 0.26984 0.3974 0.31163 0.0
H1892 H 0.2893 0.38802 0.29911 0.0
H1893 H 0.21259 0.3191 0.33131 0.0
H1894 H 0.21094 0.34457 0.33628 0.0
H1895 H 0.20607 0.33711 0.31212 0.0
H1896 H 0.21111 0.41217 0.33254 0.0
H1897 H 0.1998 0.39516 0.27411 0.0
H1898 H 0.25343 0.38876 0.3431 0.0
H1899 H 0.23349 0.37039 0.3512 0.0
H1900 H 0.2324 0.39632 0.35476 0.0
H1901 H 0.23947 0.36774 0.27147 0.0
H1902 H 0.21431 0.36922 0.26193 0.0
H1903 H 0.21952 0.34963 0.28007 0.0
C1904 C 0.11831 0.99203 0.50201 0.0
C1905 C 0.10008 0.99956 0.49728 0.0
C1906 C 0.13588 0.00486 0.50565 0.0
C1907 C 0.13519 0.02574 0.50463 0.0
C1908 C 0.11683 0.03344 0.4999 0.0
C1909 C 0.09951 0.02026 0.49622 0.0
C1910 C 0.15519 0.99608 0.51048 0.0
C1911 C 0.11547 0.05559 0.49884 0.0
C1912 C 0.17674 0.05712 0.53131 0.0
C1913 C 0.1894 0.06485 0.5161 0.0
C1914 C 0.15894 0.04457 0.52775 0.0
C1915 C 0.15372 0.03949 0.50854 0.0
C1916 C 0.16635 0.04731 0.49311 0.0
C1917 C 0.18398 0.05994 0.49706 0.0
C1918 C 0.14584 0.03657 0.5446 0.0
C1919 C 0.1613 0.04223 0.47242 0.0
H1920 H 0.11888 0.97607 0.50262 0.0
H1921 H 0.08541 0.02614 0.49278 0.0
H1922 H 0.16659 1.00217 0.49966 0.0
H1923 H 0.16123 1.00037 0.52496 0.0
H1924 H 0.1532 0.97954 0.51065 0.0
H1925 H 0.10007 0.05917 0.49497 0.0
H1926 H 0.12016 0.06151 0.51307 0.0
H1927 H 0.12583 0.0635 0.48785 0.0
H1928 H 0.1809 0.0606 0.5461 0.0
H1929 H 0.19347 0.06609 0.48516 0.0
H1930 H 0.1447 0.02004 0.54619 0.0
H1931 H 0.13044 0.04059 0.54173 0.0
H1932 H 0.1517 0.04243 0.55857 0.0
H1933 H 0.16018 0.02584 0.47155 0.0
H1934 H 0.17267 0.04958 0.46206 0.0
H1935 H 0.1465 0.04686 0.46773 0.0
C1936 C 0.78901 0.16267 0.75075 0.0
C1937 C 0.78096 0.1806 0.74572 0.0
C1938 C 0.77651 0.14459 0.75413 0.0
C1939 C 0.75546 0.14443 0.75248 0.0
C1940 C 0.74724 0.16248 0.74743 0.0
C1941 C 0.76008 0.18034 0.7441 0.0
C1942 C 0.78585 0.12564 0.75942 0.0
C1943 C 0.72486 0.16294 0.74561 0.0
C1944 C 0.7229 0.09564 0.74403 0.0
C1945 C 0.71612 0.08945 0.76279 0.0
C1946 C 0.73578 0.11344 0.74048 0.0
C1947 C 0.742 0.12539 0.75606 0.0
C1948 C 0.73525 0.1192 0.77504 0.0
C1949 C 0.72241 0.10131 0.77818 0.0
C1950 C 0.74274 0.11948 0.72006 0.0
C1951 C 0.74147 0.13158 0.79201 0.0
H1952 H 0.80513 0.16272 0.75179 0.0
H1953 H 0.75376 0.19418 0.74048 0.0
H1954 H 0.78053 0.11879 0.77375 0.0
H1955 H 0.78114 0.11465 0.74854 0.0
H1956 H 0.80248 0.1283 0.76014 0.0
H1957 H 0.72087 0.17819 0.74151 0.0
H1958 H 0.71828 0.15292 0.73446 0.0
H1959 H 0.71786 0.15734 0.75961 0.0
H1960 H 0.71831 0.08642 0.73212 0.0
H1961 H 0.71702 0.09676 0.79266 0.0
H1962 H 0.75934 0.12107 0.71989 0.0
H1963 H 0.73805 0.13422 0.715 0.0
H1964 H 0.73664 0.10848 0.70958 0.0
H1965 H 0.75804 0.13369 0.79378 0.0
H1966 H 0.73504 0.12459 0.80589 0.0
H1967 H 0.73655 0.14661 0.78916 0.0
C1968 C 0.4371 0.00921 0.58745 0.0
C1969 C 0.44686 0.00425 0.57122 0.0
C1970 C 0.42258 0.02253 0.58545 0.0
C1971 C 0.41739 0.03091 0.56673 0.0
C1972 C 0.42703 0.02588 0.55026 0.0
C1973 C 0.44172 0.01277 0.55271 0.0
C1974 C 0.41277 0.02761 0.60341 0.0
C1975 C 0.4218 0.03435 0.53001 0.0
C1976 C 0.36676 0.05048 0.55952 0.0
C1977 C 0.37214 0.07117 0.55953 0.0
C1978 C 0.38132 0.03723 0.56176 0.0
C1979 C 0.40176 0.04482 0.56434 0.0
C1980 C 0.40727 0.0657 0.56454 0.0
C1981 C 0.39241 0.07863 0.56198 0.0
C1982 C 0.37484 0.01512 0.56116 0.0
C1983 C 0.42885 0.07437 0.56752 0.0
H1984 H 0.44064 1.0025 0.60179 0.0
H1985 H 0.44935 0.00938 0.54008 0.0
H1986 H 0.41492 0.044 0.60446 0.0
H1987 H 0.3964 0.02289 0.60238 0.0
H1988 H 0.4189 0.0203 0.61698 0.0
H1989 H 0.43036 0.02865 0.51867 0.0
H1990 H 0.40556 0.03053 0.52675 0.0
H1991 H 0.42491 0.05087 0.52908 0.0
H1992 H 0.35114 0.04467 0.55736 0.0
H1993 H 0.39661 0.0946 0.56213 0.0
H1994 H 0.37946 0.00706 0.57494 0.0
H1995 H 0.38236 0.00928 0.54919 0.0
H1996 H 0.35838 0.01163 0.55895 0.0
H1997 H 0.43496 0.06799 0.58152 0.0
H1998 H 0.43061 0.0909 0.56762 0.0
H1999 H 0.43801 0.07031 0.55579 0.0
C2000 C 0.5952 0.49646 0.55382 0.0
C2001 C 0.58301 0.50318 0.53833 0.0
C2002 C 0.61169 0.48648 0.55047 0.0
C2003 C 0.61597 0.48302 0.53118 0.0
C2004 C 0.60379 0.48996 0.51547 0.0
C2005 C 0.58746 0.49998 0.51924 0.0
C2006 C 0.62437 0.47942 0.5676 0.0
C2007 C 0.60779 0.48651 0.49471 0.0
C2008 C 0.66802 0.47119 0.52023 0.0
C2009 C 0.66499 0.45031 0.52001 0.0
C2010 C 0.65226 0.48201 0.52394 0.0
C2011 C 0.63293 0.47175 0.52743 0.0
C2012 C 0.62974 0.4507 0.52718 0.0
C2013 C 0.64579 0.44025 0.52352 0.0
C2014 C 0.65627 0.50444 0.52408 0.0
C2015 C 0.60935 0.4392 0.5308 0.0
H2016 H 0.59166 0.49886 0.56858 0.0
H2017 H 0.578 0.50509 0.50725 0.0
H2018 H 0.62367 0.46291 0.56843 0.0
H2019 H 0.64028 0.48564 0.56567 0.0
H2020 H 0.61943 0.48384 0.58162 0.0
H2021 H 0.59718 0.49323 0.48412 0.0
H2022 H 0.62328 0.49292 0.49103 0.0
H2023 H 0.60655 0.47024 0.49299 0.0
H2024 H 0.68271 0.47915 0.51726 0.0
H2025 H 0.64334 0.42411 0.52369 0.0
H2026 H 0.65227 0.50914 0.53831 0.0
H2027 H 0.64676 0.51157 0.51273 0.0
H2028 H 0.67221 0.51015 0.52142 0.0
H2029 H 0.60434 0.44185 0.54539 0.0
H2030 H 0.60931 0.42288 0.52999 0.0
H2031 H 0.59821 0.44452 0.51993 0.0
C2032 C 0.74672 0.26951 0.34584 0.0
C2033 C 0.72753 0.26036 0.34082 0.0
C2034 C 0.74965 0.28231 0.36102 0.0
C2035 C 0.733 0.2861 0.37145 0.0
C2036 C 0.71361 0.27686 0.3665 0.0
C2037 C 0.71112 0.2641 0.3513 0.0
C2038 C 0.77056 0.29188 0.36584 0.0
C2039 C 0.69547 0.28044 0.3773 0.0
C2040 C 0.74178 0.30487 0.42199 0.0
C2041 C 0.74051 0.32538 0.41825 0.0
C2042 C 0.7395 0.29196 0.4069 0.0
C2043 C 0.73582 0.29969 0.38756 0.0
C2044 C 0.73457 0.32037 0.38366 0.0
C2045 C 0.73694 0.33295 0.39903 0.0
C2046 C 0.74087 0.27 0.41168 0.0
C2047 C 0.73071 0.32921 0.36324 0.0
H2048 H 0.75945 0.2669 0.33768 0.0
H2049 H 0.69629 0.25687 0.34772 0.0
H2050 H 0.77115 0.30838 0.36405 0.0
H2051 H 0.77463 0.28781 0.38127 0.0
H2052 H 0.78194 0.28729 0.35646 0.0
H2053 H 0.68142 0.27218 0.37162 0.0
H2054 H 0.6974 0.27578 0.39299 0.0
H2055 H 0.69388 0.29661 0.37611 0.0
H2056 H 0.74424 0.29881 0.43681 0.0
H2057 H 0.7362 0.3488 0.39596 0.0
H2058 H 0.75281 0.26518 0.40317 0.0
H2059 H 0.72657 0.26114 0.40751 0.0
H2060 H 0.74414 0.26639 0.42741 0.0
H2061 H 0.74255 0.32615 0.35356 0.0
H2062 H 0.7303 0.3456 0.36261 0.0
H2063 H 0.71621 0.3221 0.35736 0.0
C2064 C 0.52317 0.03446 0.93744 0.0
C2065 C 0.5228 0.05516 0.93689 0.0
C2066 C 0.53488 0.02615 0.92455 0.0
C2067 C 0.54609 0.03881 0.91048 0.0
C2068 C 0.54571 0.05972 0.90985 0.0
C2069 C 0.53404 0.06762 0.92303 0.0
C2070 C 0.53495 0.0038 0.92574 0.0
C2071 C 0.55722 0.07374 0.89493 0.0
C2072 C 0.58896 0.02122 0.88481 0.0
C2073 C 0.57986 0.01652 0.8668 0.0
C2074 C 0.57803 0.02796 0.89937 0.0
C2075 C 0.55754 0.03024 0.89582 0.0
C2076 C 0.54816 0.02513 0.87785 0.0
C2077 C 0.55938 0.01825 0.86364 0.0
C2078 C 0.58854 0.0331 0.91839 0.0
C2079 C 0.52636 0.02739 0.87345 0.0
H2080 H 0.51411 0.02474 0.94783 0.0
H2081 H 0.53341 0.08358 0.92229 0.0
H2082 H 0.52827 0.9978 0.91214 0.0
H2083 H 0.55057 1.00008 0.92717 0.0
H2084 H 0.52641 0.99614 0.93824 0.0
H2085 H 0.55584 0.08965 0.89676 0.0
H2086 H 0.57332 0.07163 0.89597 0.0
H2087 H 0.55164 0.0703 0.88007 0.0
H2088 H 0.6048 0.02018 0.88736 0.0
H2089 H 0.55208 0.01428 0.84996 0.0
H2090 H 0.58015 0.02509 0.93079 0.0
H2091 H 0.58896 0.04932 0.91997 0.0
H2092 H 0.60414 0.02926 0.9194 0.0
H2093 H 0.51689 0.01875 0.88477 0.0
H2094 H 0.52115 0.02225 0.859 0.0
H2095 H 0.52398 0.04328 0.87372 0.0
C2096 C 0.31533 0.26832 0.36833 0.0
C2097 C 0.29745 0.27449 0.36011 0.0
C2098 C 0.31531 0.25522 0.38522 0.0
C2099 C 0.29701 0.24833 0.39438 0.0
C2100 C 0.27895 0.25469 0.38637 0.0
C2101 C 0.27936 0.26753 0.36928 0.0
C2102 C 0.33487 0.24865 0.39319 0.0
C2103 C 0.25916 0.24785 0.39583 0.0
C2104 C 0.29351 0.20035 0.42756 0.0
C2105 C 0.29643 0.20759 0.44612 0.0
C2106 C 0.29383 0.21342 0.41064 0.0
C2107 C 0.29676 0.2343 0.41223 0.0
C2108 C 0.29955 0.24175 0.43087 0.0
C2109 C 0.29952 0.22834 0.44754 0.0
C2110 C 0.29101 0.20488 0.39102 0.0
C2111 C 0.30253 0.26391 0.4332 0.0
H2112 H 0.32945 0.27386 0.36165 0.0
H2113 H 0.26542 0.2719 0.36295 0.0
H2114 H 0.3378 0.25311 0.40826 0.0
H2115 H 0.33396 0.23213 0.39385 0.0
H2116 H 0.34777 0.25514 0.3842 0.0
H2117 H 0.24657 0.25471 0.38818 0.0
H2118 H 0.25582 0.23138 0.39596 0.0
H2119 H 0.25999 0.25169 0.4112 0.0
H2120 H 0.29071 0.18441 0.42621 0.0
H2121 H 0.30213 0.23416 0.46171 0.0
H2122 H 0.30402 0.21049 0.38187 0.0
H2123 H 0.2775 0.20985 0.38332 0.0
H2124 H 0.28936 0.1883 0.39224 0.0
H2125 H 0.31622 0.27093 0.42571 0.0
H2126 H 0.30395 0.2673 0.44872 0.0
H2127 H 0.2897 0.27094 0.42626 0.0
C2128 C 0.51996 0.49527 0.92219 0.0
C2129 C 0.51105 0.49364 0.94038 0.0
C2130 C 0.50841 0.49716 0.90485 0.0
C2131 C 0.48752 0.49788 0.90576 0.0
C2132 C 0.4785 0.49647 0.9241 0.0
C2133 C 0.49038 0.49441 0.94118 0.0
C2134 C 0.51857 0.49855 0.88558 0.0
C2135 C 0.45633 0.49744 0.92568 0.0
C2136 C 0.46057 0.52216 0.86231 0.0
C2137 C 0.45094 0.50551 0.85337 0.0
C2138 C 0.47253 0.5199 0.87933 0.0
C2139 C 0.47513 0.50049 0.88754 0.0
C2140 C 0.46565 0.48362 0.87851 0.0
C2141 C 0.4536 0.48632 0.86162 0.0
C2142 C 0.48231 0.53828 0.88857 0.0
C2143 C 0.46814 0.46269 0.88677 0.0
H2144 H 0.53601 0.49516 0.92155 0.0
H2145 H 0.48354 0.49359 0.95523 0.0
H2146 H 0.51139 0.48666 0.87653 0.0
H2147 H 0.51678 0.51308 0.87746 0.0
H2148 H 0.53481 0.4971 0.88738 0.0
H2149 H 0.4516 0.49589 0.94104 0.0
H2150 H 0.45242 0.51189 0.91877 0.0
H2151 H 0.44762 0.48543 0.91777 0.0
H2152 H 0.45894 0.53705 0.8559 0.0
H2153 H 0.44602 0.47334 0.85503 0.0
H2154 H 0.49881 0.53837 0.8893 0.0
H2155 H 0.47731 0.5381 0.90373 0.0
H2156 H 0.47872 0.5523 0.88043 0.0
H2157 H 0.48428 0.46071 0.88798 0.0
H2158 H 0.46027 0.45114 0.87769 0.0
H2159 H 0.46221 0.46015 0.90166 0.0
C2160 C 0.70919 0.749 0.17111 0.0
C2161 C 0.7222 0.76149 0.18247 0.0
C2162 C 0.71661 0.73633 0.15875 0.0
C2163 C 0.73757 0.73618 0.15769 0.0
C2164 C 0.75078 0.74863 0.16931 0.0
C2165 C 0.74293 0.76125 0.18145 0.0
C2166 C 0.70202 0.72341 0.14652 0.0
C2167 C 0.7732 0.74888 0.16865 0.0
C2168 C 0.75536 0.69158 0.1363 0.0
C2169 C 0.75935 0.69914 0.11711 0.0
C2170 C 0.74862 0.70356 0.14978 0.0
C2171 C 0.74563 0.72353 0.14389 0.0
C2172 C 0.74982 0.7313 0.12458 0.0
C2173 C 0.75668 0.71905 0.11146 0.0
C2174 C 0.74451 0.69478 0.17027 0.0
C2175 C 0.74668 0.75246 0.11766 0.0
H2176 H 0.69316 0.74935 0.17167 0.0
H2177 H 0.75299 0.77113 0.19003 0.0
H2178 H 0.70463 0.72759 0.13085 0.0
H2179 H 0.70445 0.70751 0.14937 0.0
H2180 H 0.68618 0.72485 0.14943 0.0
H2181 H 0.78137 0.75866 0.17928 0.0
H2182 H 0.77729 0.73354 0.17176 0.0
H2183 H 0.77834 0.75423 0.15384 0.0
H2184 H 0.7576 0.67628 0.14081 0.0
H2185 H 0.75946 0.72492 0.09659 0.0
H2186 H 0.72846 0.69482 0.17331 0.0
H2187 H 0.75335 0.70406 0.18088 0.0
H2188 H 0.74824 0.67922 0.17275 0.0
H2189 H 0.73067 0.75447 0.11878 0.0
H2190 H 0.7511 0.75638 0.10234 0.0
H2191 H 0.7555 0.7631 0.12705 0.0
C2192 C 0.01396 0.03296 0.10283 0.0
C2193 C 0.02311 0.052 0.09635 0.0
C2194 C 1.00152 0.03024 0.11895 0.0
C2195 C 0.99798 0.04699 0.12875 0.0
C2196 C 0.0074 0.06619 0.1225 0.0
C2197 C 0.01993 0.06844 0.10647 0.0
C2198 C 0.99185 0.0095 0.12527 0.0
C2199 C 0.00397 0.08443 0.13252 0.0
C2200 C 0.95017 0.04334 0.15708 0.0
C2201 C 0.95729 0.04011 0.17633 0.0
C2202 C 0.96326 0.04565 0.14148 0.0
C2203 C 0.98396 0.04452 0.1452 0.0
C2204 C 0.99123 0.0412 0.16461 0.0
C2205 C 0.97782 0.03913 0.17995 0.0
C2206 C 0.95495 0.0494 0.12102 0.0
C2207 C 0.01315 0.0397 0.16915 0.0
H2208 H 0.01611 0.0202 0.095 0.0
H2209 H 0.02722 0.08316 0.10183 0.0
H2210 H 0.9953 0.00588 0.14094 0.0
H2211 H 0.97533 0.0088 0.12346 0.0
H2212 H 0.99695 0.99793 0.11678 0.0
H2213 H 0.01266 0.09826 0.12605 0.0
H2214 H 0.98782 0.08635 0.13154 0.0
H2215 H 0.00825 0.08249 0.1482 0.0
H2216 H 0.93435 0.0443 0.15423 0.0
H2217 H 0.98336 0.03639 0.19479 0.0
H2218 H 0.95819 0.03748 0.11194 0.0
H2219 H 0.96234 0.06376 0.1143 0.0
H2220 H 0.9385 0.04994 0.1206 0.0
H2221 H 0.01799 0.02738 0.16153 0.0
H2222 H 0.01639 0.03695 0.185 0.0
H2223 H 0.02232 0.05368 0.16375 0.0
C2224 C 0.28477 0.79234 0.19143 0.0
C2225 C 0.28087 0.77146 0.19309 0.0
C2226 C 0.2825 0.80325 0.17343 0.0
C2227 C 0.27622 0.79301 0.15671 0.0
C2228 C 0.27237 0.7719 0.15832 0.0
C2229 C 0.27464 0.76139 0.17654 0.0
C2230 C 0.28665 0.82575 0.17233 0.0
C2231 C 0.26573 0.76045 0.14083 0.0
C2232 C 0.2522 0.82179 0.11423 0.0
C2233 C 0.26825 0.82677 0.10168 0.0
C2234 C 0.25456 0.81074 0.13214 0.0
C2235 C 0.27342 0.80444 0.1376 0.0
C2236 C 0.28964 0.80925 0.12492 0.0
C2237 C 0.28688 0.82041 0.10714 0.0
C2238 C 0.23693 0.80602 0.14532 0.0
C2239 C 0.30993 0.80266 0.13016 0.0
H2240 H 0.28947 0.80015 0.20426 0.0
H2241 H 0.2715 0.74524 0.1779 0.0
H2242 H 0.29846 0.83101 0.1617 0.0
H2243 H 0.27296 0.83239 0.1671 0.0
H2244 H 0.29155 0.83142 0.18664 0.0
H2245 H 0.2638 0.74404 0.14445 0.0
H2246 H 0.2513 0.76493 0.13474 0.0
H2247 H 0.27688 0.76407 0.12926 0.0
H2248 H 0.23784 0.82687 0.1102 0.0
H2249 H 0.29928 0.82399 0.09739 0.0
H2250 H 0.24062 0.81262 0.15943 0.0
H2251 H 0.23363 0.78964 0.14849 0.0
H2252 H 0.22322 0.81182 0.13883 0.0
H2253 H 0.31594 0.809 0.14384 0.0
H2254 H 0.32092 0.80737 0.11857 0.0
H2255 H 0.30852 0.78617 0.13278 0.0
C2256 C 0.00693 0.45851 0.11996 0.0
C2257 C 1.00156 0.47631 0.11045 0.0
C2258 C 0.02019 0.45874 0.13624 0.0
C2259 C 0.02821 0.47721 0.14333 0.0
C2260 C 0.02273 0.49522 0.13393 0.0
C2261 C 0.00957 0.49456 0.11758 0.0
C2262 C 0.02569 0.43922 0.14582 0.0
C2263 C 0.0309 0.51522 0.14106 0.0
C2264 C 0.04888 0.47793 0.19553 0.0
C2265 C 0.06961 0.4798 0.19289 0.0
C2266 C 0.03523 0.47697 0.17956 0.0
C2267 C 0.04247 0.47775 0.16047 0.0
C2268 C 0.06337 0.47934 0.15774 0.0
C2269 C 0.07668 0.48042 0.17396 0.0
C2270 C 0.01308 0.47546 0.18308 0.0
C2271 C 0.07169 0.47999 0.13765 0.0
H2272 H 1.00062 0.44432 0.11476 0.0
H2273 H 0.00581 0.50841 0.11019 0.0
H2274 H 0.04214 0.43907 0.14565 0.0
H2275 H 0.0214 0.43758 0.16129 0.0
H2276 H 0.01824 0.42614 0.13848 0.0
H2277 H 0.02479 0.52782 0.13245 0.0
H2278 H 0.02726 0.51568 0.15655 0.0
H2279 H 0.04747 0.51745 0.14023 0.0
H2280 H 0.04332 0.47768 0.21009 0.0
H2281 H 0.09267 0.48164 0.17184 0.0
H2282 H 0.00511 0.462 0.17679 0.0
H2283 H 0.00683 0.4886 0.17567 0.0
H2284 H 0.00985 0.47467 0.19882 0.0
H2285 H 0.06531 0.46652 0.13035 0.0
H2286 H 0.08829 0.48081 0.13804 0.0
H2287 H 0.06728 0.49315 0.12862 0.0
C2288 C 0.35466 0.73861 0.26311 0.0
C2289 C 0.33638 0.72843 0.26961 0.0
C2290 C 0.37081 0.74322 0.27618 0.0
C2291 C 0.36876 0.73729 0.29624 0.0
C2292 C 0.35039 0.72701 0.30293 0.0
C2293 C 0.3344 0.72282 0.28957 0.0
C2294 C 0.39012 0.75431 0.26849 0.0
C2295 C 0.34766 0.72033 0.32419 0.0
C2296 C 0.41658 0.73225 0.32653 0.0
C2297 C 0.41914 0.75 0.33602 0.0
C2298 C 0.40012 0.72781 0.31378 0.0
C2299 C 0.38597 0.74158 0.31017 0.0
C2300 C 0.3884 0.75951 0.31968 0.0
C2301 C 0.40486 0.76345 0.33257 0.0
C2302 C 0.39798 0.70845 0.30403 0.0
C2303 C 0.37368 0.77462 0.31612 0.0
H2304 H 0.35648 0.74276 0.24771 0.0
H2305 H 0.32026 0.71526 0.29482 0.0
H2306 H 0.39419 0.76813 0.2761 0.0
H2307 H 0.40247 0.74496 0.27143 0.0
H2308 H 0.38908 0.75843 0.25258 0.0
H2309 H 0.33246 0.71243 0.32704 0.0
H2310 H 0.35889 0.7102 0.32922 0.0
H2311 H 0.35022 0.73341 0.33306 0.0
H2312 H 0.42765 0.7219 0.32878 0.0
H2313 H 0.40648 0.77705 0.34003 0.0
H2314 H 0.3986 0.71161 0.28801 0.0
H2315 H 0.3832 0.69981 0.30719 0.0
H2316 H 0.40991 0.69904 0.3089 0.0
H2317 H 0.37303 0.77972 0.30042 0.0
H2318 H 0.37772 0.78786 0.32462 0.0
H2319 H 0.35843 0.76765 0.32005 0.0
C2320 C 0.98717 0.4372 1.00161 0.0
C2321 C 0.9919 0.43607 0.02163 0.0
C2322 C 0.98882 0.42106 0.99045 0.0
C2323 C 0.99535 0.40336 0.99953 0.0
C2324 C 0.99983 0.40205 0.01982 0.0
C2325 C 0.99814 0.41847 0.03061 0.0
C2326 C 0.98396 0.42311 0.96886 0.0
C2327 C 0.00674 0.38343 0.03007 0.0
C2328 C 0.98465 0.35587 0.97292 0.0
C2329 C 1.00311 0.35494 0.96445 0.0
C2330 C 0.98196 0.3714 0.98453 0.0
C2331 C 0.99806 0.38648 0.98767 0.0
C2332 C 0.01673 0.38562 0.97921 0.0
C2333 C 0.01905 0.36986 0.96779 0.0
C2334 C 0.96183 0.37175 0.99332 0.0
C2335 C 0.03428 0.40142 0.98217 0.0
H2336 H 0.98245 0.45084 0.99461 0.0
H2337 H 1.00192 0.41768 0.04606 0.0
H2338 H 0.99751 0.42178 0.96064 0.0
H2339 H 0.97234 0.41088 0.96489 0.0
H2340 H 0.97852 0.43762 0.96413 0.0
H2341 H 0.00885 0.3845 0.04603 0.0
H2342 H 0.99568 0.37028 0.02743 0.0
H2343 H 0.02114 0.38073 0.02412 0.0
H2344 H 0.97214 0.34461 0.97024 0.0
H2345 H 0.03347 0.36913 0.96162 0.0
H2346 H 0.95542 0.38551 0.98776 0.0
H2347 H 0.96361 0.37205 0.00936 0.0
H2348 H 0.951 0.35861 0.98995 0.0
H2349 H 0.03022 0.4163 0.97667 0.0
H2350 H 0.04779 0.39861 0.97461 0.0
H2351 H 0.03809 0.40205 0.99792 0.0
C2352 C 0.67791 0.77778 0.27509 0.0
C2353 C 0.68376 0.79638 0.26516 0.0
C2354 C 0.66196 0.77522 0.28798 0.0
C2355 C 0.65155 0.79162 0.2909 0.0
C2356 C 0.65723 0.81035 0.28071 0.0
C2357 C 0.67325 0.8125 0.26799 0.0
C2358 C 0.65639 0.75502 0.29863 0.0
C2359 C 0.64641 0.82816 0.28328 0.0
C2360 C 0.59916 0.78149 0.31104 0.0
C2361 C 0.60279 0.7852 0.33067 0.0
C2362 C 0.61487 0.78345 0.29796 0.0
C2363 C 0.63475 0.78924 0.30467 0.0
C2364 C 0.63852 0.79304 0.32446 0.0
C2365 C 0.6225 0.79102 0.33721 0.0
C2366 C 0.6102 0.77943 0.27694 0.0
C2367 C 0.65951 0.79919 0.33218 0.0
H2368 H 0.68608 0.76532 0.27311 0.0
H2369 H 0.6775 0.82684 0.26013 0.0
H2370 H 0.65802 0.75627 0.31457 0.0
H2371 H 0.64045 0.74958 0.29538 0.0
H2372 H 0.66582 0.74375 0.2946 0.0
H2373 H 0.65255 0.84164 0.27412 0.0
H2374 H 0.63025 0.82466 0.27947 0.0
H2375 H 0.64758 0.83168 0.29875 0.0
H2376 H 0.58394 0.77726 0.30581 0.0
H2377 H 0.62545 0.79369 0.3524 0.0
H2378 H 0.61865 0.76742 0.27285 0.0
H2379 H 0.61504 0.79299 0.26734 0.0
H2380 H 0.59397 0.77491 0.27408 0.0
H2381 H 0.66925 0.78762 0.32974 0.0
H2382 H 0.65995 0.80144 0.34798 0.0
H2383 H 0.66596 0.81327 0.32419 0.0
C2384 C 0.03873 0.08926 0.01446 0.0
C2385 C 0.04315 0.09177 0.0342 0.0
C2386 C 0.03591 0.10569 1.00126 0.0
C2387 C 0.03795 0.1251 0.00794 0.0
C2388 C 0.04284 0.12773 0.02781 0.0
C2389 C 0.04519 0.111 0.04073 0.0
C2390 C 0.03037 0.10224 0.98027 0.0
C2391 C 0.04553 0.1482 0.03542 0.0
C2392 C 0.04761 0.1695 0.97063 0.0
C2393 C 0.0287 0.17619 0.96855 0.0
C2394 C 0.05088 0.15296 0.98349 0.0
C2395 C 0.03473 0.14265 0.99421 0.0
C2396 C 0.01554 0.14924 0.99198 0.0
C2397 C 0.0128 0.16607 0.97932 0.0
C2398 C 0.07164 0.14665 0.98575 0.0
C2399 C 0.99787 0.13843 0.0029 0.0
H2400 H 0.03699 0.07436 0.00945 0.0
H2401 H 0.04876 0.11294 0.05599 0.0
H2402 H 0.01572 0.10763 0.97629 0.0
H2403 H 0.04164 0.11089 0.97058 0.0
H2404 H 0.02935 0.08623 0.97741 0.0
H2405 H 0.05006 0.14776 0.05111 0.0
H2406 H 0.05709 0.15814 0.02707 0.0
H2407 H 0.03134 0.15498 0.03339 0.0
H2408 H 0.05994 0.17746 0.96242 0.0
H2409 H 0.99814 0.17116 0.97757 0.0
H2410 H 0.07131 0.13106 0.98183 0.0
H2411 H 0.07695 0.14705 1.00118 0.0
H2412 H 0.08261 0.1564 0.97651 0.0
H2413 H 0.99554 0.12252 0.99961 0.0
H2414 H 0.98383 0.14512 0.99912 0.0
H2415 H 1.0009 0.13876 0.01881 0.0
C2416 C 0.35253 0.29751 0.26554 0.0
C2417 C 0.33733 0.28188 0.27012 0.0
C2418 C 0.36914 0.29438 0.25497 0.0
C2419 C 0.37038 0.27526 0.2485 0.0
C2420 C 0.35499 0.25947 0.25298 0.0
C2421 C 0.33865 0.26298 0.2637 0.0
C2422 C 0.38525 0.31159 0.25055 0.0
C2423 C 0.35563 0.23893 0.24617 0.0
C2424 C 0.40246 0.27186 0.20499 0.0
C2425 C 0.41983 0.26526 0.2139 0.0
C2426 C 0.38627 0.27512 0.21606 0.0
C2427 C 0.38749 0.27189 0.2366 0.0
C2428 C 0.40498 0.2653 0.24572 0.0
C2429 C 0.42088 0.26199 0.23428 0.0
C2430 C 0.36786 0.28208 0.20575 0.0
C2431 C 0.40688 0.26173 0.26758 0.0
H2432 H 0.35133 0.31223 0.27014 0.0
H2433 H 0.32674 0.25096 0.2669 0.0
H2434 H 0.40005 0.3075 0.25598 0.0
H2435 H 0.38617 0.31498 0.23457 0.0
H2436 H 0.38242 0.32532 0.25723 0.0
H2437 H 0.34269 0.22817 0.2512 0.0
H2438 H 0.35563 0.2398 0.23004 0.0
H2439 H 0.36967 0.23306 0.25159 0.0
H2440 H 0.40159 0.27479 0.18931 0.0
H2441 H 0.43409 0.25663 0.24132 0.0
H2442 H 0.36528 0.2967 0.2107 0.0
H2443 H 0.35447 0.27134 0.20947 0.0
H2444 H 0.36916 0.28366 0.18968 0.0
H2445 H 0.40499 0.27557 0.27451 0.0
H2446 H 0.4216 0.25696 0.27246 0.0
H2447 H 0.39485 0.25006 0.2729 0.0
C2448 C 0.5678 0.42428 0.02197 0.0
C2449 C 0.55287 0.43597 0.01488 0.0
C2450 C 0.56325 0.40719 0.0347 0.0
C2451 C 0.54325 0.40154 0.04043 0.0
C2452 C 0.52805 0.41313 0.03318 0.0
C2453 C 0.53305 0.43022 0.02054 0.0
C2454 C 0.57987 0.39523 0.0421 0.0
C2455 C 0.50655 0.40757 0.03894 0.0
C2456 C 0.52877 0.34781 0.06025 0.0
C2457 C 0.52952 0.3496 0.0804 0.0
C2458 C 0.53305 0.3646 0.04706 0.0
C2459 C 0.53829 0.38364 0.0542 0.0
C2460 C 0.53905 0.38555 0.07451 0.0
C2461 C 0.53462 0.36853 0.08736 0.0
C2462 C 0.53195 0.36198 0.0255 0.0
C2463 C 0.54472 0.40557 0.08269 0.0
H2464 H 0.58309 0.42842 0.01743 0.0
H2465 H 0.52146 0.43928 0.01533 0.0
H2466 H 0.58101 0.39464 0.05823 0.0
H2467 H 0.57647 0.37963 0.038 0.0
H2468 H 0.59464 0.40161 0.03623 0.0
H2469 H 0.49643 0.41784 0.03164 0.0
H2470 H 0.50117 0.39214 0.0352 0.0
H2471 H 0.50547 0.40783 0.05492 0.0
H2472 H 0.52459 0.33326 0.05478 0.0
H2473 H 0.53548 0.36998 0.10292 0.0
H2474 H 0.54674 0.36711 0.01909 0.0
H2475 H 0.52103 0.3713 0.01813 0.0
H2476 H 0.52746 0.3462 0.02231 0.0
H2477 H 0.56001 0.41188 0.0782 0.0
H2478 H 0.54439 0.40456 0.09884 0.0
H2479 H 0.53433 0.41621 0.07676 0.0
C2480 C 0.68909 0.23491 0.26223 0.0
C2481 C 0.6873 0.23674 0.28221 0.0
C2482 C 0.67264 0.23616 0.24917 0.0
C2483 C 0.65396 0.23953 0.25618 0.0
C2484 C 0.65202 0.24136 0.27629 0.0
C2485 C 0.66865 0.23983 0.28906 0.0
C2486 C 0.67527 0.234 0.22783 0.0
C2487 C 0.63239 0.24505 0.28434 0.0
C2488 C 0.61637 0.26188 0.2209 0.0
C2489 C 0.60264 0.24511 0.21728 0.0
C2490 C 0.63315 0.26026 0.23344 0.0
C2491 C 0.63647 0.24137 0.24246 0.0
C2492 C 0.62288 0.22431 0.23866 0.0
C2493 C 0.6061 0.2264 0.22621 0.0
C2494 C 0.64725 0.27882 0.23717 0.0
C2495 C 0.62596 0.20388 0.24792 0.0
H2496 H 0.70346 0.2328 0.25672 0.0
H2497 H 0.66698 0.24091 0.30448 0.0
H2498 H 0.66431 0.22172 0.22277 0.0
H2499 H 0.67225 0.24789 0.21914 0.0
H2500 H 0.69061 0.23086 0.2248 0.0
H2501 H 0.63339 0.24623 0.30033 0.0
H2502 H 0.62762 0.25906 0.27722 0.0
H2503 H 0.62054 0.23275 0.28108 0.0
H2504 H 0.61407 0.27635 0.21382 0.0
H2505 H 0.59547 0.21338 0.22376 0.0
H2506 H 0.66263 0.27701 0.233 0.0
H2507 H 0.64792 0.28115 0.25293 0.0
H2508 H 0.6426 0.29239 0.22896 0.0
H2509 H 0.64097 0.2002 0.24448 0.0
H2510 H 0.61444 0.19202 0.24292 0.0
H2511 H 0.62545 0.20379 0.26399 0.0
C2512 C 0.49427 0.1093 0.01418 0.0
C2513 C 0.48489 0.0902 0.02017 0.0
C2514 C 0.49674 0.1247 0.02688 0.0
C2515 C 0.4895 0.121 0.046 0.0
C2516 C 0.48012 0.10175 0.05218 0.0
C2517 C 0.47803 0.08659 0.03926 0.0
C2518 C 0.50693 0.14499 0.01977 0.0
C2519 C 0.47215 0.0972 0.07243 0.0
C2520 C 0.51019 0.15556 0.08484 0.0
C2521 C 0.49525 0.16824 0.08509 0.0
C2522 C 0.50857 0.14019 0.07214 0.0
C2523 C 0.49152 0.13732 0.05948 0.0
C2524 C 0.47633 0.15 0.05976 0.0
C2525 C 0.47842 0.16535 0.07249 0.0
C2526 C 0.52518 0.12713 0.07215 0.0
C2527 C 0.45782 0.1473 0.04667 0.0
H2528 H 0.4994 0.11236 0.99942 0.0
H2529 H 0.4711 0.07181 0.04418 0.0
H2530 H 0.49639 0.1563 0.02009 0.0
H2531 H 0.5199 0.1495 0.02956 0.0
H2532 H 0.51229 0.14527 0.00471 0.0
H2533 H 0.46517 0.0815 0.07496 0.0
H2534 H 0.48445 0.10003 0.08342 0.0
H2535 H 0.46081 0.10724 0.07485 0.0
H2536 H 0.52335 0.15788 0.09436 0.0
H2537 H 0.46673 0.17496 0.07277 0.0
H2538 H 0.53152 0.12819 0.05744 0.0
H2539 H 0.51916 0.11129 0.07566 0.0
H2540 H 0.53748 0.13135 0.08282 0.0
H2541 H 0.46211 0.14878 0.03121 0.0
H2542 H 0.44735 0.15836 0.04871 0.0
H2543 H 0.44979 0.13207 0.0496 0.0
C2544 C 0.25555 0.3412 0.76022 0.0
C2545 C 0.24713 0.33534 0.74234 0.0
C2546 C 0.26885 0.3588 0.76123 0.0
C2547 C 0.27367 0.37097 0.74397 0.0
C2548 C 0.26528 0.36508 0.72585 0.0
C2549 C 0.25221 0.34724 0.72524 0.0
C2550 C 0.2777 0.3644 0.7808 0.0
C2551 C 0.26988 0.37778 0.70716 0.0
C2552 C 0.29262 0.42551 0.74982 0.0
C2553 C 0.31331 0.42578 0.74797 0.0
C2554 C 0.2795 0.40785 0.74822 0.0
C2555 C 0.28732 0.38997 0.74496 0.0
C2556 C 0.30822 0.39016 0.74308 0.0
C2557 C 0.32095 0.4081 0.74449 0.0
C2558 C 0.25729 0.40829 0.75006 0.0
C2559 C 0.31716 0.37137 0.73988 0.0
H2560 H 0.25181 0.3319 0.77344 0.0
H2561 H 0.24557 0.34283 0.71142 0.0
H2562 H 0.29431 0.36624 0.78047 0.0
H2563 H 0.27318 0.37893 0.78412 0.0
H2564 H 0.27286 0.35303 0.79276 0.0
H2565 H 0.26224 0.37104 0.69427 0.0
H2566 H 0.26511 0.39277 0.70807 0.0
H2567 H 0.28626 0.37996 0.70494 0.0
H2568 H 0.28666 0.43921 0.75231 0.0
H2569 H 0.33698 0.40823 0.74325 0.0
H2570 H 0.25177 0.39822 0.76272 0.0
H2571 H 0.24908 0.40276 0.73691 0.0
H2572 H 0.25356 0.42353 0.75196 0.0
H2573 H 0.31362 0.36004 0.7522 0.0
H2574 H 0.33369 0.37408 0.73854 0.0
H2575 H 0.31049 0.36491 0.72648 0.0
C2576 C 0.28836 0.68403 0.80768 0.0
C2577 C 0.27479 0.69108 0.79362 0.0
C2578 C 0.29821 0.66746 0.80473 0.0
C2579 C 0.29428 0.65765 0.78735 0.0
C2580 C 0.28007 0.66436 0.7734 0.0
C2581 C 0.27041 0.68094 0.77676 0.0
C2582 C 0.31313 0.6607 0.82002 0.0
C2583 C 0.27536 0.65427 0.75475 0.0
C2584 C 0.33422 0.62859 0.77011 0.0
C2585 C 0.32677 0.60881 0.77604 0.0
C2586 C 0.32382 0.64458 0.77374 0.0
C2587 C 0.30546 0.64077 0.78349 0.0
C2588 C 0.29781 0.62087 0.78949 0.0
C2589 C 0.30857 0.60516 0.78574 0.0
C2590 C 0.33248 0.66559 0.76707 0.0
C2591 C 0.2783 0.61617 0.79995 0.0
H2592 H 0.29151 0.69174 0.82084 0.0
H2593 H 0.2597 0.68625 0.76602 0.0
H2594 H 0.3091 0.64467 0.82468 0.0
H2595 H 0.32825 0.66228 0.81381 0.0
H2596 H 0.31391 0.66942 0.83304 0.0
H2597 H 0.26345 0.66087 0.74571 0.0
H2598 H 0.28905 0.65554 0.74607 0.0
H2599 H 0.27048 0.63812 0.75805 0.0
H2600 H 0.34811 0.63157 0.76237 0.0
H2601 H 0.30282 0.58998 0.79066 0.0
H2602 H 0.33484 0.67485 0.7797 0.0
H2603 H 0.32178 0.6725 0.75676 0.0
H2604 H 0.34699 0.66606 0.75981 0.0
H2605 H 0.27931 0.62379 0.81366 0.0
H2606 H 0.27431 0.5999 0.8035 0.0
H2607 H 0.26599 0.6219 0.79082 0.0
C2608 C 0.93171 0.52721 0.4744 0.0
C2609 C 0.9408 0.53351 0.4919 0.0
C2610 C 0.91398 0.51384 0.47433 0.0
C2611 C 0.90498 0.50671 0.49218 0.0
C2612 C 0.91398 0.51308 0.50988 0.0
C2613 C 0.9318 0.52631 0.50954 0.0
C2614 C 0.90488 0.50732 0.45516 0.0
C2615 C 0.90481 0.50587 0.52922 0.0
C2616 C 0.84975 0.48606 0.49186 0.0
C2617 C 0.85065 0.46541 0.49392 0.0
C2618 C 0.8673 0.49967 0.49115 0.0
C2619 C 0.88622 0.49246 0.49238 0.0
C2620 C 0.88722 0.47163 0.49415 0.0
C2621 C 0.86943 0.45836 0.49498 0.0
C2622 C 0.86562 0.52178 0.48943 0.0
C2623 C 0.90709 0.46335 0.49529 0.0
H2624 H 0.93834 0.5329 0.46068 0.0
H2625 H 0.93885 0.53082 0.52315 0.0
H2626 H 0.90363 0.49083 0.45516 0.0
H2627 H 0.8895 0.51159 0.45313 0.0
H2628 H 0.91385 0.51405 0.44257 0.0
H2629 H 0.91342 0.51259 0.54164 0.0
H2630 H 0.88921 0.50956 0.5293 0.0
H2631 H 0.90413 0.48939 0.53147 0.0
H2632 H 0.83528 0.49158 0.49125 0.0
H2633 H 0.8702 0.44241 0.49634 0.0
H2634 H 0.87353 0.52906 0.47644 0.0
H2635 H 0.87294 0.52871 0.50234 0.0
H2636 H 0.84979 0.52495 0.48827 0.0
H2637 H 0.91591 0.46909 0.48233 0.0
H2638 H 0.90527 0.44677 0.49615 0.0
H2639 H 0.91593 0.4684 0.50828 0.0
C2640 C 0.78035 0.85168 0.81222 0.0
C2641 C 0.77355 0.83195 0.81886 0.0
C2642 C 0.76706 0.86617 0.80923 0.0
C2643 C 0.74641 0.86075 0.81271 0.0
C2644 C 0.73946 0.84082 0.81934 0.0
C2645 C 0.75313 0.82671 0.82245 0.0
C2646 C 0.77513 0.8873 0.8024 0.0
C2647 C 0.71755 0.83437 0.82298 0.0
C2648 C 0.71452 0.90179 0.82098 0.0
C2649 C 0.70575 0.90538 0.80243 0.0
C2650 C 0.72773 0.88729 0.82455 0.0
C2651 C 0.73209 0.87591 0.80926 0.0
C2652 C 0.72299 0.87923 0.79059 0.0
C2653 C 0.71004 0.894 0.78737 0.0
C2654 C 0.7373 0.88439 0.8446 0.0
C2655 C 0.72701 0.86723 0.77397 0.0
H2656 H 0.79615 0.85585 0.80961 0.0
H2657 H 0.74777 0.81143 0.82739 0.0
H2658 H 0.7679 0.89164 0.7882 0.0
H2659 H 0.77147 0.89775 0.81292 0.0
H2660 H 0.79162 0.88918 0.80071 0.0
H2661 H 0.71455 0.81831 0.82806 0.0
H2662 H 0.71231 0.84334 0.83408 0.0
H2663 H 0.70852 0.83711 0.80941 0.0
H2664 H 0.71144 0.91071 0.83261 0.0
H2665 H 0.70315 0.89658 0.77305 0.0
H2666 H 0.75384 0.88747 0.84373 0.0
H2667 H 0.73375 0.86866 0.85052 0.0
H2668 H 0.73219 0.89429 0.85496 0.0
H2669 H 0.74318 0.86975 0.77072 0.0
H2670 H 0.71827 0.8712 0.7605 0.0
H2671 H 0.72321 0.85106 0.77812 0.0
C2672 C 0.61241 0.50535 0.98183 0.0
C2673 C 0.59928 0.49817 0.9968 0.0
C2674 C 0.63004 0.51808 0.98554 0.0
C2675 C 0.63456 0.52391 0.00464 0.0
C2676 C 0.62128 0.51683 0.01978 0.0
C2677 C 0.60384 0.504 0.01569 0.0
C2678 C 0.64392 0.52518 0.96905 0.0
C2679 C 0.62546 0.52286 0.04029 0.0
C2680 C 0.68851 0.54218 0.01885 0.0
C2681 C 0.68856 0.56299 0.01702 0.0
C2682 C 0.6711 0.5293 0.01475 0.0
C2683 C 0.65321 0.53739 0.00882 0.0
C2684 C 0.6531 0.55835 0.00701 0.0
C2685 C 0.67077 0.57088 0.01103 0.0
C2686 C 0.67182 0.50703 0.0168 0.0
C2687 C 0.6343 0.56754 1.00079 0.0
H2688 H 0.60904 0.50072 0.96726 0.0
H2689 H 0.5936 0.4987 0.02725 0.0
H2690 H 0.64591 0.54172 0.96717 0.0
H2691 H 0.65892 0.5204 0.97253 0.0
H2692 H 0.63823 0.5193 0.95503 0.0
H2693 H 0.61356 0.51615 0.05037 0.0
H2694 H 0.63998 0.51821 0.04591 0.0
H2695 H 0.62673 0.53935 0.04037 0.0
H2696 H 0.70207 0.5359 0.02373 0.0
H2697 H 0.6707 0.58692 0.00924 0.0
H2698 H 0.6672 0.50055 0.0028 0.0
H2699 H 0.66111 0.4999 0.02784 0.0
H2700 H 0.68701 0.50313 0.02118 0.0
H2701 H 0.62906 0.56306 0.98614 0.0
H2702 H 0.63664 0.5841 1.00031 0.0
H2703 H 0.62216 0.56195 0.01099 0.0
C2704 C 0.28614 0.66325 0.25127 0.0
C2705 C 0.27786 0.68119 0.24711 0.0
C2706 C 0.27382 0.64496 0.25399 0.0
C2707 C 0.25273 0.64464 0.25267 0.0
C2708 C 0.2443 0.6627 0.24844 0.0
C2709 C 0.25697 0.68074 0.24565 0.0
C2710 C 0.28338 0.626 0.2583 0.0
C2711 C 0.22188 0.663 0.24708 0.0
C2712 C 0.22 0.59616 0.24333 0.0
C2713 C 0.21381 0.58928 0.26213 0.0
C2714 C 0.23282 0.61405 0.24005 0.0
C2715 C 0.23945 0.62543 0.25594 0.0
C2716 C 0.23323 0.61857 0.27495 0.0
C2717 C 0.22056 0.60054 0.27782 0.0
C2718 C 0.23928 0.62078 0.2196 0.0
C2719 C 0.23981 0.63037 0.29223 0.0
H2720 H 0.30228 0.66349 0.25219 0.0
H2721 H 0.2505 0.6946 0.24267 0.0
H2722 H 0.27858 0.61869 0.27263 0.0
H2723 H 0.27834 0.61535 0.24719 0.0
H2724 H 0.30001 0.62876 0.25851 0.0
H2725 H 0.21772 0.67828 0.24356 0.0
H2726 H 0.21517 0.65331 0.23572 0.0
H2727 H 0.21517 0.65691 0.26109 0.0
H2728 H 0.215 0.58739 0.23119 0.0
H2729 H 0.21561 0.59541 0.29234 0.0
H2730 H 0.25587 0.62258 0.21908 0.0
H2731 H 0.23434 0.63555 0.21512 0.0
H2732 H 0.23305 0.61006 0.2089 0.0
H2733 H 0.2564 0.63249 0.29367 0.0
H2734 H 0.2337 0.62294 0.30607 0.0
H2735 H 0.23483 0.64543 0.29 0.0
C2736 C 0.93334 0.50658 0.0863 0.0
C2737 C 0.9448 0.50298 0.07069 0.0
C2738 C 0.91874 0.5198 0.08381 0.0
C2739 C 0.91546 0.52967 0.06525 0.0
C2740 C 0.92701 0.52615 0.04945 0.0
C2741 C 0.94152 0.51287 0.05236 0.0
C2742 C 0.9067 0.52308 0.10101 0.0
C2743 C 0.92403 0.5364 0.02945 0.0
C2744 C 0.86535 0.5492 0.05356 0.0
C2745 C 0.87004 0.56966 0.05598 0.0
C2746 C 0.87994 0.53603 0.05664 0.0
C2747 C 0.89976 0.54346 0.06227 0.0
C2748 C 0.90458 0.56406 0.06488 0.0
C2749 C 0.88967 0.5769 0.06173 0.0
C2750 C 0.87414 0.51417 0.05381 0.0
C2751 C 0.92554 0.57258 0.07082 0.0
H2752 H 0.93557 0.49882 0.10046 0.0
H2753 H 0.95048 0.5104 0.04028 0.0
H2754 H 0.90846 0.53917 0.10358 0.0
H2755 H 0.89054 0.51854 0.0979 0.0
H2756 H 0.91128 0.51452 0.11455 0.0
H2757 H 0.93433 0.53218 0.01873 0.0
H2758 H 0.90838 0.53251 0.02409 0.0
H2759 H 0.92651 0.55283 0.03015 0.0
H2760 H 0.85016 0.5434 0.04943 0.0
H2761 H 0.89349 0.5927 0.06344 0.0
H2762 H 0.87722 0.50503 0.06744 0.0
H2763 H 0.88331 0.50953 0.04236 0.0
H2764 H 0.85805 0.51074 0.04955 0.0
H2765 H 0.93017 0.56491 0.08481 0.0
H2766 H 0.9268 0.58887 0.0725 0.0
H2767 H 0.93624 0.56993 0.05976 0.0
C2768 C 0.08334 0.98276 0.04515 0.0
C2769 C 0.0844 0.00344 0.04076 0.0
C2770 C 0.09945 0.97237 0.04154 0.0
C2771 C 0.11702 0.98291 0.03332 0.0
C2772 C 0.11817 0.00383 0.02892 0.0
C2773 C 0.10178 0.01381 0.03257 0.0
C2774 C 0.09756 0.95006 0.04631 0.0
C2775 C 0.13666 0.01562 0.02022 0.0
C2776 C 0.16504 0.95842 0.03949 0.0
C2777 C 0.16608 0.95061 0.02136 0.0
C2778 C 0.14929 0.96913 0.0435 0.0
C2779 C 0.13409 0.972 0.02911 0.0
C2780 C 0.13505 0.9642 0.01079 0.0
C2781 C 0.15104 0.95368 0.00711 0.0
C2782 C 0.14884 0.97724 0.06321 0.0
C2783 C 0.11911 0.9669 0.99506 0.0
H2784 H 0.06982 0.97467 0.05126 0.0
H2785 H 0.10247 0.02977 0.02895 0.0
H2786 H 0.09909 0.94244 0.03291 0.0
H2787 H 0.10981 0.9462 0.05665 0.0
H2788 H 0.08298 0.94411 0.05283 0.0
H2789 H 0.13535 0.03185 0.01805 0.0
H2790 H 0.14997 0.01345 0.02982 0.0
H2791 H 0.13939 0.01014 0.00596 0.0
H2792 H 0.17638 0.9559 0.05071 0.0
H2793 H 0.15184 0.94799 0.99296 0.0
H2794 H 0.13509 0.97047 0.07075 0.0
H2795 H 0.14834 0.9936 0.06147 0.0
H2796 H 0.16208 0.97419 0.07262 0.0
H2797 H 0.10425 0.96021 1.00041 0.0
H2798 H 0.12203 0.95993 0.9816 0.0
H2799 H 0.11826 0.98303 0.99135 0.0
loop_
_geom_bond_atom_site_label_1
_geom_bond_atom_site_label_2
_geom_bond_distance
_geom_bond_site_symmetry_2
_ccdc_geom_bond_type
H0 C7 0.929 1_655 S
H1 C10 0.930 . S
H2 C12 0.929 . S
H3 C4 0.969 . S
C4 H3 0.969 . S
C4 O5 1.550 1_565 S
C4 H6 0.973 . S
O5 C4 1.550 1_545 S
O5 C11 1.412 . S
H6 C4 0.973 . S
C7 H0 0.929 1_455 S
C7 C8 1.400 . S
C7 C9 1.364 . S
C8 C7 1.400 . S
C8 C12 1.377 . S
C9 C7 1.364 . S
C9 C10 1.374 . S
C10 H1 0.930 . S
C10 C9 1.374 . S
C10 C11 1.383 . S
C11 O5 1.412 . S
C11 C10 1.383 . S
C11 C12 1.394 . S
C12 H2 0.929 . S
C12 C8 1.377 . S
C12 C11 1.394 . S
H13 C20 0.929 . S
H14 C23 0.930 . S
H15 C25 0.929 . S
H16 C17 0.969 . S
C17 H16 0.969 . S
C17 O18 1.550 . S
C17 H19 0.973 . S
O18 C17 1.550 . S
O18 C24 1.412 . S
H19 C17 0.973 . S
C20 H13 0.929 . S
C20 C21 1.400 . S
C20 C22 1.364 . S
C21 C20 1.400 . S
C21 C25 1.377 . S
C22 C20 1.364 . S
C22 C23 1.374 . S
C23 H14 0.930 . S
C23 C22 1.374 . S
C23 C24 1.383 . S
C24 O18 1.412 . S
C24 C23 1.383 . S
C24 C25 1.394 . S
C25 H15 0.929 . S
C25 C21 1.377 . S
C25 C24 1.394 . S
H26 C33 0.929 . S
H27 C36 0.930 . S
H28 C38 0.929 1_455 S
H29 C30 0.969 . S
C30 H29 0.969 . S
C30 O31 1.550 . S
C30 H32 0.973 . S
O31 C30 1.550 . S
O31 C37 1.412 . S
H32 C30 0.973 . S
C33 H26 0.929 . S
C33 C34 1.400 . S
C33 C35 1.364 . S
C34 C33 1.400 . S
C34 C38 1.377 . S
C35 C33 1.364 . S
C35 C36 1.374 . S
C36 H27 0.930 . S
C36 C35 1.374 . S
C36 C37 1.383 . S
C37 O31 1.412 . S
C37 C36 1.383 . S
C37 C38 1.394 . S
C38 H28 0.929 1_655 S
C38 C34 1.377 . S
C38 C37 1.394 . S
H39 C46 0.929 . S
H40 C49 0.930 . S
H41 C51 0.929 . S
H42 C43 0.969 . S
C43 H42 0.969 . S
C43 O44 1.550 . S
C43 H45 0.973 . S
O44 C43 1.550 . S
O44 C50 1.412 . S
H45 C43 0.973 . S
C46 H39 0.929 . S
C46 C47 1.400 . S
C46 C48 1.364 . S
C47 C46 1.400 . S
C47 C51 1.377 . S
C48 C46 1.364 . S
C48 C49 1.374 . S
C49 H40 0.930 . S
C49 C48 1.374 . S
C49 C50 1.383 . S
C50 O44 1.412 . S
C50 C49 1.383 . S
C50 C51 1.394 . S
C51 H41 0.929 . S
C51 C47 1.377 . S
C51 C50 1.394 . S
H52 C59 0.929 . S
H53 C62 0.930 . S
H54 C64 0.929 1_545 S
H55 C56 0.993 . S
C56 H55 0.993 . S
C56 O57 1.550 . S
C56 H58 0.973 . S
O57 C56 1.550 . S
O57 C63 1.412 . S
H58 C56 0.973 . S
C59 H52 0.929 . S
C59 C60 1.400 . S
C59 C61 1.364 . S
C60 C59 1.400 . S
C60 C64 1.377 . S
C61 C59 1.364 . S
C61 C62 1.374 . S
C62 H53 0.930 . S
C62 C61 1.374 . S
C62 C63 1.383 . S
C63 O57 1.412 . S
C63 C62 1.383 . S
C63 C64 1.394 . S
C64 H54 0.929 1_565 S
C64 C60 1.377 . S
C64 C63 1.394 . S
H65 C72 0.929 . S
H66 C75 0.930 . S
H67 C77 0.929 . S
H68 C69 0.969 . S
C69 H68 0.969 . S
C69 O70 1.550 . S
C69 H71 0.973 . S
O70 C69 1.550 . S
O70 C76 1.412 . S
H71 C69 0.973 . S
C72 H65 0.929 . S
C72 C73 1.400 . S
C72 C74 1.364 . S
C73 C72 1.400 . S
C73 C77 1.377 . S
C74 C72 1.364 . S
C74 C75 1.374 . S
C75 H66 0.930 . S
C75 C74 1.374 . S
C75 C76 1.383 . S
C76 O70 1.412 . S
C76 C75 1.383 . S
C76 C77 1.394 . S
C77 H67 0.929 . S
C77 C73 1.377 . S
C77 C76 1.394 . S
H78 C85 0.929 . S
H79 C88 0.930 . S
H80 C90 0.940 . S
H81 C82 0.969 . S
C82 H81 0.969 . S
C82 O83 1.550 . S
C82 H84 0.973 . S
O83 C82 1.550 . S
O83 C89 1.412 1_455 S
H84 C82 0.973 . S
C85 H78 0.929 . S
C85 C86 1.400 . S
C85 C87 1.364 . S
C86 C85 1.400 . S
C86 C90 1.366 1_655 S
C87 C85 1.364 . S
C87 C88 1.374 . S
C88 H79 0.930 . S
C88 C87 1.374 . S
C88 C89 1.383 . S
C89 O83 1.412 1_655 S
C89 C88 1.383 . S
C89 C90 1.394 1_655 S
C90 H80 0.940 . S
C90 C86 1.366 1_455 S
C90 C89 1.394 1_455 S
H91 C98 0.929 . S
H92 C101 0.930 . S
H93 C103 0.929 . S
H94 C95 0.969 . S
C95 H94 0.969 . S
C95 O96 1.550 . S
C95 H97 0.973 . S
O96 C95 1.550 . S
O96 C102 1.412 . S
H97 C95 0.973 . S
C98 H91 0.929 . S
C98 C99 1.400 . S
C98 C100 1.364 . S
C99 C98 1.400 . S
C99 C103 1.377 . S
C100 C98 1.364 . S
C100 C101 1.374 . S
C101 H92 0.930 . S
C101 C100 1.374 . S
C101 C102 1.383 . S
C102 O96 1.412 . S
C102 C101 1.383 . S
C102 C103 1.394 . S
C103 H93 0.929 . S
C103 C99 1.377 . S
C103 C102 1.394 . S
H104 C111 0.929 . S
H105 C114 0.930 . S
H106 C116 0.929 . S
H107 C108 0.969 . S
C108 H107 0.969 . S
C108 O109 1.550 . S
C108 H110 0.973 . S
O109 C108 1.550 . S
O109 C115 1.412 . S
H110 C108 0.973 . S
C111 H104 0.929 . S
C111 C112 1.400 . S
C111 C113 1.364 . S
C112 C111 1.400 . S
C112 C116 1.377 . S
C113 C111 1.364 . S
C113 C114 1.374 . S
C114 H105 0.930 . S
C114 C113 1.374 . S
C114 C115 1.383 . S
C115 O109 1.412 . S
C115 C114 1.383 . S
C115 C116 1.394 . S
C116 H106 0.929 . S
C116 C112 1.377 . S
C116 C115 1.394 . S
H117 C124 0.929 . S
H118 C127 0.930 . S
H119 C129 0.929 . S
H120 C121 0.969 . S
C121 H120 0.969 . S
C121 O122 1.550 . S
C121 H123 0.973 . S
O122 C121 1.550 . S
O122 C128 1.412 . S
H123 C121 0.973 . S
C124 H117 0.929 . S
C124 C125 1.400 . S
C124 C126 1.364 . S
C125 C124 1.400 . S
C125 C129 1.377 . S
C126 C124 1.364 . S
C126 C127 1.374 . S
C127 H118 0.930 . S
C127 C126 1.374 . S
C127 C128 1.383 . S
C128 O122 1.412 . S
C128 C127 1.383 . S
C128 C129 1.394 . S
C129 H119 0.929 . S
C129 C125 1.377 . S
C129 C128 1.394 . S
H130 C137 0.929 . S
H131 C140 0.930 . S
H132 C142 0.929 . S
H133 C134 0.969 . S
C134 H133 0.969 . S
C134 O135 1.550 . S
C134 H136 0.973 . S
O135 C134 1.550 . S
O135 C141 1.412 . S
H136 C134 0.973 . S
C137 H130 0.929 . S
C137 C138 1.400 . S
C137 C139 1.364 . S
C138 C137 1.400 . S
C138 C142 1.377 . S
C139 C137 1.364 . S
C139 C140 1.374 . S
C140 H131 0.930 . S
C140 C139 1.374 . S
C140 C141 1.383 . S
C141 O135 1.412 . S
C141 C140 1.383 . S
C141 C142 1.394 . S
C142 H132 0.929 . S
C142 C138 1.377 . S
C142 C141 1.394 . S
H143 C150 0.929 . S
H144 C153 0.930 . S
H145 C155 0.929 . S
H146 C147 0.969 . S
C147 H146 0.969 . S
C147 O148 1.550 . S
C147 H149 0.973 . S
O148 C147 1.550 . S
O148 C154 1.412 . S
H149 C147 0.973 . S
C150 H143 0.929 . S
C150 C151 1.400 . S
C150 C152 1.364 . S
C151 C150 1.400 . S
C151 C155 1.377 . S
C152 C150 1.364 . S
C152 C153 1.374 . S
C153 H144 0.930 . S
C153 C152 1.374 . S
C153 C154 1.383 . S
C154 O148 1.412 . S
C154 C153 1.383 . S
C154 C155 1.394 . S
C155 H145 0.929 . S
C155 C151 1.377 . S
C155 C154 1.394 . S
H156 C163 0.929 . S
H157 C166 0.930 . S
H158 C168 0.929 . S
H159 C160 0.969 . S
C160 H159 0.969 . S
C160 O161 1.550 . S
C160 H162 0.973 . S
O161 C160 1.550 . S
O161 C167 1.412 . S
H162 C160 0.973 . S
C163 H156 0.929 . S
C163 C164 1.400 . S
C163 C165 1.364 . S
C164 C163 1.400 . S
C164 C168 1.377 . S
C165 C163 1.364 . S
C165 C166 1.374 . S
C166 H157 0.930 . S
C166 C165 1.374 . S
C166 C167 1.383 . S
C167 O161 1.412 . S
C167 C166 1.383 . S
C167 C168 1.394 . S
C168 H158 0.929 . S
C168 C164 1.377 . S
C168 C167 1.394 . S
H169 C176 0.929 1_554 S
H170 C179 0.930 . S
H171 C181 0.929 . S
H172 C173 0.969 . S
C173 H172 0.969 . S
C173 O174 1.550 . S
C173 H175 0.973 . S
O174 C173 1.550 . S
O174 C180 1.412 . S
H175 C173 0.973 . S
C176 H169 0.929 1_556 S
C176 C177 1.400 . S
C176 C178 1.364 . S
C177 C176 1.400 . S
C177 C181 1.377 . S
C178 C176 1.364 . S
C178 C179 1.374 . S
C179 H170 0.930 . S
C179 C178 1.374 . S
C179 C180 1.383 . S
C180 O174 1.412 . S
C180 C179 1.383 . S
C180 C181 1.394 . S
C181 H171 0.929 . S
C181 C177 1.377 . S
C181 C180 1.394 . S
H182 C189 0.929 . S
H183 C192 0.930 . S
H184 C194 0.929 . S
H185 C186 0.969 . S
C186 H185 0.969 . S
C186 O187 1.550 . S
C186 H188 0.973 . S
O187 C186 1.550 . S
O187 C193 1.412 . S
H188 C186 0.973 . S
C189 H182 0.929 . S
C189 C190 1.400 . S
C189 C191 1.364 . S
C190 C189 1.400 . S
C190 C194 1.377 . S
C191 C189 1.364 . S
C191 C192 1.374 . S
C192 H183 0.930 . S
C192 C191 1.374 . S
C192 C193 1.383 . S
C193 O187 1.412 . S
C193 C192 1.383 . S
C193 C194 1.394 . S
C194 H184 0.929 . S
C194 C190 1.377 . S
C194 C193 1.394 . S
H195 C202 0.929 . S
H196 C205 0.930 . S
H197 C207 0.929 . S
H198 C199 0.969 . S
C199 H198 0.969 . S
C199 O200 1.550 . S
C199 H201 0.973 . S
O200 C199 1.550 . S
O200 C206 1.412 . S
H201 C199 0.973 . S
C202 H195 0.929 . S
C202 C203 1.400 . S
C202 C204 1.398 . S
C203 C202 1.400 . S
C203 C207 1.399 . S
C204 C202 1.398 . S
C204 C205 1.342 1_554 S
C205 H196 0.930 . S
C205 C204 1.342 1_556 S
C205 C206 1.383 . S
C206 O200 1.412 . S
C206 C205 1.383 . S
C206 C207 1.372 1_556 S
C207 H197 0.929 . S
C207 C203 1.399 . S
C207 C206 1.372 1_554 S
Li208 N225 1.990 . S
Li208 O268 1.956 . S
Li208 O269 1.970 1_556 S
Li208 O270 1.961 . S
Li209 N233 1.990 . S
Li209 O268 1.966 1_554 S
Li209 O269 1.956 . S
Li209 O271 1.961 . S
Li210 N255 1.990 . S
Li210 O268 1.964 . S
Li210 O270 1.956 . S
Li210 O271 1.970 1_556 S
Li211 N261 1.990 . S
Li211 O269 1.961 . S
Li211 O270 1.970 1_554 S
Li211 O271 1.956 . S
C212 C214 1.348 1_556 S
C212 C215 1.356 . S
C212 O268 1.326 . S
N213 C216 1.314 1_556 S
N213 C217 1.279 . S
C214 C212 1.348 1_554 S
C214 C216 1.353 . S
C214 H272 0.929 . S
C215 C212 1.356 . S
C215 C217 1.358 . S
C215 H273 0.930 . S
C216 N213 1.314 1_554 S
C216 C214 1.353 . S
C216 H274 0.930 . S
C217 N213 1.279 . S
C217 C215 1.358 . S
C217 H275 0.930 . S
C218 C221 1.348 . S
C218 C222 1.356 . S
C218 O269 1.325 . S
C219 N220 1.279 . S
C219 C222 1.358 . S
C219 H276 0.930 . S
N220 C219 1.279 . S
N220 C223 1.314 . S
C221 C218 1.348 . S
C221 C223 1.353 . S
C221 H277 0.929 . S
C222 C218 1.356 . S
C222 C219 1.358 . S
C222 H278 0.930 . S
C223 N220 1.314 . S
C223 C221 1.353 . S
C223 H279 0.930 . S
C224 N225 1.314 . S
C224 C229 1.353 . S
C224 H230 0.930 . S
N225 Li208 1.990 . S
N225 C224 1.314 . S
N225 C227 1.279 . S
C226 C227 1.358 . S
C226 C228 1.356 . S
C226 H280 0.931 . S
C227 N225 1.279 . S
C227 C226 1.358 . S
C227 H231 0.930 1_556 S
C228 C226 1.356 . S
C228 C229 1.348 . S
C229 C224 1.353 . S
C229 C228 1.348 . S
C229 H281 0.929 . S
H230 C224 0.930 . S
H231 C227 0.930 1_554 S
C232 N233 1.314 . S
C232 C234 1.353 . S
C232 H238 0.930 . S
N233 Li209 1.990 . S
N233 C232 1.314 . S
N233 C236 1.279 . S
C234 C232 1.353 . S
C234 C237 1.348 . S
C234 H282 0.929 . S
C235 C236 1.358 . S
C235 C237 1.356 . S
C235 H283 0.930 . S
C236 N233 1.279 . S
C236 C235 1.358 . S
C236 H239 0.930 . S
C237 C234 1.348 . S
C237 C235 1.356 . S
H238 C232 0.930 . S
H239 C236 0.930 . S
C240 C242 1.348 . S
C240 C243 1.356 . S
C240 O270 1.325 . S
N241 C244 1.314 . S
N241 C245 1.279 . S
C242 C240 1.348 . S
C242 C244 1.353 . S
C242 H284 0.929 . S
C243 C240 1.356 . S
C243 C245 1.358 . S
C243 H285 0.930 . S
C244 N241 1.314 . S
C244 C242 1.353 . S
C244 H286 0.930 . S
C245 N241 1.279 . S
C245 C243 1.358 . S
C245 H287 0.930 . S
C246 C247 1.348 1_554 S
C246 C248 1.356 . S
C246 O271 1.325 . S
C247 C246 1.348 1_556 S
C247 C249 1.353 . S
C247 H288 0.929 . S
C248 C246 1.356 . S
C248 C250 1.358 . S
C248 H289 0.930 . S
C249 C247 1.353 . S
C249 N251 1.314 1_556 S
C249 H290 0.930 . S
C250 C248 1.358 . S
C250 N251 1.279 . S
C250 H291 0.930 . S
N251 C249 1.314 1_554 S
N251 C250 1.279 . S
C252 C254 1.353 . S
C252 N255 1.314 . S
C252 H258 0.930 . S
C253 N255 1.279 . S
C253 C256 1.358 . S
C253 H259 0.930 . S
C254 C252 1.353 . S
C254 C257 1.348 . S
C254 H292 0.929 . S
N255 Li210 1.990 . S
N255 C252 1.314 . S
N255 C253 1.279 . S
C256 C253 1.358 . S
C256 C257 1.356 . S
C256 H293 0.930 . S
C257 C254 1.348 . S
C257 C256 1.356 . S
H258 C252 0.930 . S
H259 C253 0.930 . S
C260 N261 1.314 . S
C260 C262 1.353 . S
C260 H266 0.930 . S
N261 Li211 1.990 . S
N261 C260 1.314 . S
N261 C264 1.279 . S
C262 C260 1.353 . S
C262 C265 1.348 . S
C262 H294 0.929 . S
C263 C264 1.358 . S
C263 C265 1.356 . S
C263 H295 0.934 . S
C264 N261 1.279 . S
C264 C263 1.358 . S
C264 H267 0.917 1_554 S
C265 C262 1.348 . S
C265 C263 1.356 . S
H266 C260 0.930 . S
H267 C264 0.917 1_556 S
O268 Li208 1.956 . S
O268 Li209 1.966 1_556 S
O268 Li210 1.964 . S
O268 C212 1.326 . S
O269 Li208 1.970 1_554 S
O269 Li209 1.956 . S
O269 Li211 1.961 . S
O269 C218 1.325 . S
O270 Li208 1.961 . S
O270 Li210 1.956 . S
O270 Li211 1.970 1_556 S
O270 C240 1.325 . S
O271 Li209 1.961 . S
O271 Li210 1.970 1_554 S
O271 Li211 1.956 . S
O271 C246 1.325 . S
H272 C214 0.929 . S
H273 C215 0.930 . S
H274 C216 0.930 . S
H275 C217 0.930 . S
H276 C219 0.930 . S
H277 C221 0.929 . S
H278 C222 0.930 . S
H279 C223 0.930 . S
H280 C226 0.931 . S
H281 C229 0.929 . S
H282 C234 0.929 . S
H283 C235 0.930 . S
H284 C242 0.929 . S
H285 C243 0.930 . S
H286 C244 0.930 . S
H287 C245 0.930 . S
H288 C247 0.929 . S
H289 C248 0.930 . S
H290 C249 0.930 . S
H291 C250 0.930 . S
H292 C254 0.929 . S
H293 C256 0.930 . S
H294 C262 0.929 . S
H295 C263 0.934 . S
Li296 N313 1.990 . S
Li296 O356 1.956 . S
Li296 O357 1.970 . S
Li296 O358 1.961 . S
Li297 N321 1.990 . S
Li297 O356 1.970 . S
Li297 O357 1.956 . S
Li297 O359 1.961 . S
Li298 N343 1.990 . S
Li298 O356 1.961 . S
Li298 O358 1.956 . S
Li298 O359 1.970 . S
Li299 N349 1.990 . S
Li299 O357 1.961 . S
Li299 O358 1.970 . S
Li299 O359 1.956 . S
C300 C302 1.348 . S
C300 C303 1.356 . S
C300 O356 1.325 . S
N301 C304 1.314 . S
N301 C305 1.279 . S
C302 C300 1.348 . S
C302 C304 1.353 . S
C302 H360 0.929 . S
C303 C300 1.356 . S
C303 C305 1.358 . S
C303 H361 0.930 . S
C304 N301 1.314 . S
C304 C302 1.353 . S
C304 H362 0.930 . S
C305 N301 1.279 . S
C305 C303 1.358 . S
C305 H363 0.930 . S
C306 C309 1.348 . S
C306 C310 1.356 . S
C306 O357 1.325 . S
C307 N308 1.279 . S
C307 C310 1.358 . S
C307 H364 0.930 . S
N308 C307 1.279 . S
N308 C311 1.314 . S
C309 C306 1.348 . S
C309 C311 1.353 . S
C309 H365 0.929 . S
C310 C306 1.356 . S
C310 C307 1.358 . S
C310 H366 0.930 . S
C311 N308 1.314 . S
C311 C309 1.353 . S
C311 H367 0.930 . S
C312 N313 1.314 . S
C312 C317 1.353 . S
C312 H318 0.930 . S
N313 Li296 1.990 . S
N313 C312 1.314 . S
N313 C315 1.279 . S
C314 C315 1.358 . S
C314 C316 1.356 . S
C314 H368 0.930 . S
C315 N313 1.279 . S
C315 C314 1.358 . S
C315 H319 0.930 . S
C316 C314 1.356 . S
C316 C317 1.348 . S
C317 C312 1.353 . S
C317 C316 1.348 . S
C317 H369 0.929 . S
H318 C312 0.930 . S
H319 C315 0.930 . S
C320 N321 1.314 . S
C320 C322 1.353 . S
C320 H326 0.930 . S
N321 Li297 1.990 . S
N321 C320 1.314 . S
N321 C324 1.279 . S
C322 C320 1.353 . S
C322 C325 1.348 . S
C322 H370 0.929 . S
C323 C324 1.358 . S
C323 C325 1.356 . S
C323 H371 0.930 . S
C324 N321 1.279 . S
C324 C323 1.358 . S
C324 H327 0.930 . S
C325 C322 1.348 . S
C325 C323 1.356 . S
H326 C320 0.930 . S
H327 C324 0.930 . S
C328 C330 1.348 . S
C328 C331 1.356 . S
C328 O358 1.325 . S
N329 C332 1.314 . S
N329 C333 1.279 . S
C330 C328 1.348 . S
C330 C332 1.353 . S
C330 H372 0.929 . S
C331 C328 1.356 . S
C331 C333 1.358 . S
C331 H373 0.930 . S
C332 N329 1.314 . S
C332 C330 1.353 . S
C332 H374 0.930 . S
C333 N329 1.279 . S
C333 C331 1.358 . S
C333 H375 0.930 . S
C334 C335 1.348 . S
C334 C336 1.356 . S
C334 O359 1.325 . S
C335 C334 1.348 . S
C335 C337 1.353 . S
C335 H376 0.929 . S
C336 C334 1.356 . S
C336 C338 1.358 . S
C336 H377 0.930 . S
C337 C335 1.353 . S
C337 N339 1.314 . S
C337 H378 0.930 . S
C338 C336 1.358 . S
C338 N339 1.279 . S
C338 H379 0.930 . S
N339 C337 1.314 . S
N339 C338 1.279 . S
C340 C342 1.353 . S
C340 N343 1.314 . S
C340 H346 0.930 . S
C341 N343 1.279 . S
C341 C344 1.358 . S
C341 H347 0.930 . S
C342 C340 1.353 . S
C342 C345 1.348 . S
C342 H380 0.929 . S
N343 Li298 1.990 . S
N343 C340 1.314 . S
N343 C341 1.279 . S
C344 C341 1.358 . S
C344 C345 1.356 . S
C344 H381 0.930 . S
C345 C342 1.348 . S
C345 C344 1.356 . S
H346 C340 0.930 . S
H347 C341 0.930 . S
C348 N349 1.314 . S
C348 C350 1.353 . S
C348 H354 0.930 . S
N349 Li299 1.990 . S
N349 C348 1.314 . S
N349 C352 1.279 . S
C350 C348 1.353 . S
C350 C353 1.348 . S
C350 H382 0.929 . S
C351 C352 1.358 . S
C351 C353 1.356 . S
C351 H383 0.930 . S
C352 N349 1.279 . S
C352 C351 1.358 . S
C352 H355 0.930 . S
C353 C350 1.348 . S
C353 C351 1.356 . S
H354 C348 0.930 . S
H355 C352 0.930 . S
O356 Li296 1.956 . S
O356 Li297 1.970 . S
O356 Li298 1.961 . S
O356 C300 1.325 . S
O357 Li296 1.970 . S
O357 Li297 1.956 . S
O357 Li299 1.961 . S
O357 C306 1.325 . S
O358 Li296 1.961 . S
O358 Li298 1.956 . S
O358 Li299 1.970 . S
O358 C328 1.325 . S
O359 Li297 1.961 . S
O359 Li298 1.970 . S
O359 Li299 1.956 . S
O359 C334 1.325 . S
H360 C302 0.929 . S
H361 C303 0.930 . S
H362 C304 0.930 . S
H363 C305 0.930 . S
H364 C307 0.930 . S
H365 C309 0.929 . S
H366 C310 0.930 . S
H367 C311 0.930 . S
H368 C314 0.930 . S
H369 C317 0.929 . S
H370 C322 0.929 . S
H371 C323 0.930 . S
H372 C330 0.929 . S
H373 C331 0.930 . S
H374 C332 0.930 . S
H375 C333 0.930 . S
H376 C335 0.929 . S
H377 C336 0.930 . S
H378 C337 0.930 . S
H379 C338 0.930 . S
H380 C342 0.929 . S
H381 C344 0.930 . S
H382 C350 0.929 . S
H383 C351 0.930 . S
Li384 N401 1.990 . S
Li384 O444 1.956 . S
Li384 O445 1.970 . S
Li384 O446 1.961 . S
Li385 N409 1.990 . S
Li385 O444 1.970 . S
Li385 O445 1.956 . S
Li385 O447 1.961 . S
Li386 N431 1.957 1_554 S
Li386 O444 1.961 . S
Li386 O446 1.956 . S
Li386 O447 1.970 . S
Li387 N437 1.990 . S
Li387 O445 1.961 . S
Li387 O446 1.970 . S
Li387 O447 1.956 . S
C388 C390 1.348 . S
C388 C391 1.356 . S
C388 O444 1.325 . S
N389 C392 1.314 . S
N389 C393 1.279 . S
C390 C388 1.348 . S
C390 C392 1.353 . S
C390 H448 0.929 . S
C391 C388 1.356 . S
C391 C393 1.358 . S
C391 H449 0.930 . S
C392 N389 1.314 . S
C392 C390 1.353 . S
C392 H450 0.930 . S
C393 N389 1.279 . S
C393 C391 1.358 . S
C393 H451 0.891 1_554 S
C394 C397 1.348 . S
C394 C398 1.356 . S
C394 O445 1.325 . S
C395 N396 1.279 . S
C395 C398 1.358 . S
C395 H452 0.930 . S
N396 C395 1.279 . S
N396 C399 1.314 . S
C397 C394 1.348 . S
C397 C399 1.353 . S
C397 H453 0.929 . S
C398 C394 1.356 . S
C398 C395 1.358 . S
C398 H454 0.930 . S
C399 N396 1.314 . S
C399 C397 1.353 . S
C399 H455 0.930 . S
C400 N401 1.314 . S
C400 C405 1.353 . S
C400 H406 0.930 . S
N401 Li384 1.990 . S
N401 C400 1.314 . S
N401 C403 1.279 . S
C402 C403 1.358 . S
C402 C404 1.356 . S
C402 H456 0.930 . S
C403 N401 1.279 . S
C403 C402 1.358 . S
C403 H407 0.930 . S
C404 C402 1.356 . S
C404 C405 1.348 . S
C405 C400 1.353 . S
C405 C404 1.348 . S
C405 H457 0.929 . S
H406 C400 0.930 . S
H407 C403 0.930 . S
C408 N409 1.314 . S
C408 C410 1.353 . S
C408 H414 0.930 . S
N409 Li385 1.990 . S
N409 C408 1.314 . S
N409 C412 1.279 . S
C410 C408 1.353 . S
C410 C413 1.348 . S
C410 H458 0.929 . S
C411 C412 1.358 . S
C411 C413 1.356 . S
C411 H459 0.930 . S
C412 N409 1.279 . S
C412 C411 1.358 . S
C412 H415 0.930 . S
C413 C410 1.348 . S
C413 C411 1.356 . S
H414 C408 0.930 . S
H415 C412 0.930 . S
C416 C418 1.348 . S
C416 C419 1.356 1_554 S
C416 O446 1.325 . S
N417 C420 1.314 . S
N417 C421 1.279 . S
C418 C416 1.348 . S
C418 C420 1.353 1_554 S
C418 H460 0.929 . S
C419 C416 1.356 1_556 S
C419 C421 1.358 . S
C419 H461 0.930 . S
C420 N417 1.314 . S
C420 C418 1.353 1_556 S
C420 H462 0.930 . S
C421 N417 1.279 . S
C421 C419 1.358 . S
C421 H463 0.930 . S
C422 C423 1.348 . S
C422 C424 1.356 . S
C422 O447 1.325 . S
C423 C422 1.348 . S
C423 C425 1.353 . S
C423 H464 0.929 . S
C424 C422 1.356 . S
C424 C426 1.358 . S
C424 H465 0.930 . S
C425 C423 1.353 . S
C425 N427 1.314 . S
C425 H466 0.930 . S
C426 C424 1.358 . S
C426 N427 1.279 . S
C426 H467 0.930 . S
N427 C425 1.314 . S
N427 C426 1.279 . S
C428 C430 1.353 . S
C428 N431 1.312 . S
C428 H434 0.930 1_556 S
C429 N431 1.317 . S
C429 C432 1.358 . S
C429 H435 0.930 . S
C430 C428 1.353 . S
C430 C433 1.348 . S
C430 H468 0.929 . S
N431 Li386 1.957 1_556 S
N431 C428 1.312 . S
N431 C429 1.317 . S
C432 C429 1.358 . S
C432 C433 1.356 . S
C432 H469 0.930 . S
C433 C430 1.348 . S
C433 C432 1.356 . S
H434 C428 0.930 1_554 S
H435 C429 0.930 . S
C436 N437 1.314 . S
C436 C438 1.353 . S
C436 H442 0.930 . S
N437 Li387 1.990 . S
N437 C436 1.314 . S
N437 C440 1.279 . S
C438 C436 1.353 . S
C438 C441 1.348 . S
C438 H470 0.929 . S
C439 C440 1.358 . S
C439 C441 1.356 . S
C439 H471 0.930 . S
C440 N437 1.279 . S
C440 C439 1.358 . S
C440 H443 0.930 . S
C441 C438 1.348 . S
C441 C439 1.356 . S
H442 C436 0.930 . S
H443 C440 0.930 . S
O444 Li384 1.956 . S
O444 Li385 1.970 . S
O444 Li386 1.961 . S
O444 C388 1.325 . S
O445 Li384 1.970 . S
O445 Li385 1.956 . S
O445 Li387 1.961 . S
O445 C394 1.325 . S
O446 Li384 1.961 . S
O446 Li386 1.956 . S
O446 Li387 1.970 . S
O446 C416 1.325 . S
O447 Li385 1.961 . S
O447 Li386 1.970 . S
O447 Li387 1.956 . S
O447 C422 1.325 . S
H448 C390 0.929 . S
H449 C391 0.930 . S
H450 C392 0.930 . S
H451 C393 0.891 1_556 S
H452 C395 0.930 . S
H453 C397 0.929 . S
H454 C398 0.930 . S
H455 C399 0.930 . S
H456 C402 0.930 . S
H457 C405 0.929 . S
H458 C410 0.929 . S
H459 C411 0.930 . S
H460 C418 0.929 . S
H461 C419 0.930 . S
H462 C420 0.930 . S
H463 C421 0.930 . S
H464 C423 0.929 . S
H465 C424 0.930 . S
H466 C425 0.930 . S
H467 C426 0.930 . S
H468 C430 0.929 . S
H469 C432 0.930 . S
H470 C438 0.929 . S
H471 C439 0.930 . S
Li472 N489 1.990 . S
Li472 O532 1.956 . S
Li472 O533 1.970 . S
Li472 O534 1.961 . S
Li473 N497 1.990 . S
Li473 O532 1.970 . S
Li473 O533 1.956 . S
Li473 O535 1.961 1_545 S
Li474 N519 1.990 . S
Li474 O532 1.961 . S
Li474 O534 1.956 . S
Li474 O535 1.970 1_545 S
Li475 N525 1.990 . S
Li475 O533 1.961 1_565 S
Li475 O534 1.970 1_565 S
Li475 O535 1.956 . S
C476 C478 1.348 . S
C476 C479 1.356 . S
C476 O532 1.325 . S
N477 C480 1.314 . S
N477 C481 1.279 . S
C478 C476 1.348 . S
C478 C480 1.353 . S
C478 H536 0.929 . S
C479 C476 1.356 . S
C479 C481 1.358 . S
C479 H537 0.930 . S
C480 N477 1.314 . S
C480 C478 1.353 . S
C480 H538 0.930 . S
C481 N477 1.279 . S
C481 C479 1.358 . S
C481 H539 0.930 . S
C482 C485 1.348 . S
C482 C486 1.356 1_545 S
C482 O533 1.325 . S
C483 N484 1.279 1_565 S
C483 C486 1.358 . S
C483 H540 0.930 . S
N484 C483 1.279 1_545 S
N484 C487 1.314 . S
C485 C482 1.348 . S
C485 C487 1.353 . S
C485 H541 0.929 . S
C486 C482 1.356 1_565 S
C486 C483 1.358 . S
C486 H542 0.930 . S
C487 N484 1.314 . S
C487 C485 1.353 . S
C487 H543 0.930 . S
C488 N489 1.314 . S
C488 C493 1.353 . S
C488 H494 0.930 . S
N489 Li472 1.990 . S
N489 C488 1.314 . S
N489 C491 1.279 . S
C490 C491 1.358 . S
C490 C492 1.356 . S
C490 H544 0.930 . S
C491 N489 1.279 . S
C491 C490 1.358 . S
C491 H495 0.930 . S
C492 C490 1.356 . S
C492 C493 1.348 . S
C493 C488 1.353 . S
C493 C492 1.348 . S
C493 H545 0.929 . S
H494 C488 0.930 . S
H495 C491 0.930 . S
C496 N497 1.314 . S
C496 C498 1.353 . S
C496 H502 0.930 . S
N497 Li473 1.990 . S
N497 C496 1.314 . S
N497 C500 1.279 . S
C498 C496 1.353 . S
C498 C501 1.348 . S
C498 H546 0.929 . S
C499 C500 1.358 . S
C499 C501 1.356 . S
C499 H547 0.930 . S
C500 N497 1.279 . S
C500 C499 1.358 . S
C500 H503 0.930 . S
C501 C498 1.348 . S
C501 C499 1.356 . S
H502 C496 0.930 . S
H503 C500 0.930 . S
C504 C506 1.348 . S
C504 C507 1.356 . S
C504 O534 1.325 . S
N505 C508 1.314 . S
N505 C509 1.279 . S
C506 C504 1.348 . S
C506 C508 1.353 . S
C506 H548 0.929 1_545 S
C507 C504 1.356 . S
C507 C509 1.358 . S
C507 H549 0.930 . S
C508 N505 1.314 . S
C508 C506 1.353 . S
C508 H550 0.929 1_545 S
C509 N505 1.279 . S
C509 C507 1.358 . S
C509 H551 0.930 . S
C510 C511 1.348 . S
C510 C512 1.356 . S
C510 O535 1.325 . S
C511 C510 1.348 . S
C511 C513 1.353 . S
C511 H552 0.929 . S
C512 C510 1.356 . S
C512 C514 1.358 . S
C512 H553 0.930 . S
C513 C511 1.353 . S
C513 N515 1.314 . S
C513 H554 0.930 . S
C514 C512 1.358 . S
C514 N515 1.279 . S
C514 H555 0.930 . S
N515 C513 1.314 . S
N515 C514 1.279 . S
C516 C518 1.353 . S
C516 N519 1.314 . S
C516 H522 0.930 . S
C517 N519 1.279 . S
C517 C520 1.358 . S
C517 H523 0.930 . S
C518 C516 1.353 . S
C518 C521 1.348 . S
C518 H556 0.929 . S
N519 Li474 1.990 . S
N519 C516 1.314 . S
N519 C517 1.279 . S
C520 C517 1.358 . S
C520 C521 1.356 . S
C520 H557 0.930 . S
C521 C518 1.348 . S
C521 C520 1.356 . S
H522 C516 0.930 . S
H523 C517 0.930 . S
C524 N525 1.314 . S
C524 C526 1.353 . S
C524 H530 0.930 . S
N525 Li475 1.990 . S
N525 C524 1.314 . S
N525 C528 1.279 . S
C526 C524 1.353 . S
C526 C529 1.348 . S
C526 H558 0.929 . S
C527 C528 1.358 . S
C527 C529 1.356 . S
C527 H559 0.930 . S
C528 N525 1.279 . S
C528 C527 1.358 . S
C528 H531 0.930 . S
C529 C526 1.348 . S
C529 C527 1.356 . S
H530 C524 0.930 . S
H531 C528 0.930 . S
O532 Li472 1.956 . S
O532 Li473 1.970 . S
O532 Li474 1.961 . S
O532 C476 1.325 . S
O533 Li472 1.970 . S
O533 Li473 1.956 . S
O533 Li475 1.961 1_545 S
O533 C482 1.325 . S
O534 Li472 1.961 . S
O534 Li474 1.956 . S
O534 Li475 1.970 1_545 S
O534 C504 1.325 . S
O535 Li473 1.961 1_565 S
O535 Li474 1.970 1_565 S
O535 Li475 1.956 . S
O535 C510 1.325 . S
H536 C478 0.929 . S
H537 C479 0.930 . S
H538 C480 0.930 . S
H539 C481 0.930 . S
H540 C483 0.930 . S
H541 C485 0.929 . S
H542 C486 0.930 . S
H543 C487 0.930 . S
H544 C490 0.930 . S
H545 C493 0.929 . S
H546 C498 0.929 . S
H547 C499 0.930 . S
H548 C506 0.929 1_565 S
H549 C507 0.930 . S
H550 C508 0.929 1_565 S
H551 C509 0.930 . S
H552 C511 0.929 . S
H553 C512 0.930 . S
H554 C513 0.930 . S
H555 C514 0.930 . S
H556 C518 0.929 . S
H557 C520 0.930 . S
H558 C526 0.929 . S
H559 C527 0.930 . S
Li560 N577 1.990 . S
Li560 O620 1.956 . S
Li560 O621 1.970 . S
Li560 O622 1.961 . S
Li561 N585 1.990 . S
Li561 O620 1.970 . S
Li561 O621 1.956 . S
Li561 O623 1.961 . S
Li562 N607 1.990 . S
Li562 O620 1.961 . S
Li562 O622 1.956 . S
Li562 O623 1.970 . S
Li563 N613 1.990 . S
Li563 O621 1.961 . S
Li563 O622 1.970 . S
Li563 O623 1.956 . S
C564 C566 1.348 . S
C564 C567 1.356 . S
C564 O620 1.325 . S
N565 C568 1.314 . S
N565 C569 1.279 . S
C566 C564 1.348 . S
C566 C568 1.353 . S
C566 H624 0.929 . S
C567 C564 1.356 . S
C567 C569 1.358 . S
C567 H625 0.930 . S
C568 N565 1.314 . S
C568 C566 1.353 . S
C568 H626 0.930 . S
C569 N565 1.279 . S
C569 C567 1.358 . S
C569 H627 0.930 . S
C570 C573 1.348 . S
C570 C574 1.356 . S
C570 O621 1.325 . S
C571 N572 1.279 . S
C571 C574 1.358 . S
C571 H628 0.930 . S
N572 C571 1.279 . S
N572 C575 1.314 . S
C573 C570 1.348 . S
C573 C575 1.353 . S
C573 H629 0.929 . S
C574 C570 1.356 . S
C574 C571 1.358 . S
C574 H630 0.930 . S
C575 N572 1.314 . S
C575 C573 1.353 . S
C575 H631 0.930 . S
C576 N577 1.314 . S
C576 C581 1.353 . S
C576 H582 0.930 . S
N577 Li560 1.990 . S
N577 C576 1.314 . S
N577 C579 1.279 . S
C578 C579 1.358 . S
C578 C580 1.356 . S
C578 H632 0.930 . S
C579 N577 1.279 . S
C579 C578 1.358 . S
C579 H583 0.930 . S
C580 C578 1.356 . S
C580 C581 1.348 . S
C581 C576 1.353 . S
C581 C580 1.348 . S
C581 H633 0.929 . S
H582 C576 0.930 . S
H583 C579 0.930 . S
C584 N585 1.314 . S
C584 C586 1.353 . S
C584 H590 0.930 . S
N585 Li561 1.990 . S
N585 C584 1.314 . S
N585 C588 1.279 . S
C586 C584 1.353 . S
C586 C589 1.348 . S
C586 H634 0.929 . S
C587 C588 1.358 . S
C587 C589 1.356 . S
C587 H635 0.930 . S
C588 N585 1.279 . S
C588 C587 1.358 . S
C588 H591 0.930 . S
C589 C586 1.348 . S
C589 C587 1.356 . S
H590 C584 0.930 . S
H591 C588 0.930 . S
C592 C594 1.348 . S
C592 C595 1.356 . S
C592 O622 1.325 . S
N593 C596 1.314 . S
N593 C597 1.279 . S
C594 C592 1.348 . S
C594 C596 1.353 . S
C594 H636 0.929 . S
C595 C592 1.356 . S
C595 C597 1.358 . S
C595 H637 0.930 . S
C596 N593 1.314 . S
C596 C594 1.353 . S
C596 H638 0.930 . S
C597 N593 1.279 . S
C597 C595 1.358 . S
C597 H639 0.930 . S
C598 C599 1.348 . S
C598 C600 1.356 . S
C598 O623 1.325 . S
C599 C598 1.348 . S
C599 C601 1.353 . S
C599 H640 0.929 . S
C600 C598 1.356 . S
C600 C602 1.358 . S
C600 H641 0.930 . S
C601 C599 1.353 . S
C601 N603 1.314 . S
C601 H642 0.930 . S
C602 C600 1.358 . S
C602 N603 1.279 . S
C602 H643 0.930 . S
N603 C601 1.314 . S
N603 C602 1.279 . S
C604 C606 1.353 . S
C604 N607 1.314 . S
C604 H610 0.930 . S
C605 N607 1.279 . S
C605 C608 1.358 . S
C605 H611 0.930 . S
C606 C604 1.353 . S
C606 C609 1.348 . S
C606 H644 0.929 . S
N607 Li562 1.990 . S
N607 C604 1.314 . S
N607 C605 1.279 . S
C608 C605 1.358 . S
C608 C609 1.356 . S
C608 H645 0.930 . S
C609 C606 1.348 . S
C609 C608 1.356 . S
H610 C604 0.930 . S
H611 C605 0.930 . S
C612 N613 1.314 . S
C612 C614 1.353 . S
C612 H618 0.930 . S
N613 Li563 1.990 . S
N613 C612 1.314 . S
N613 C616 1.279 . S
C614 C612 1.353 . S
C614 C617 1.348 . S
C614 H646 0.929 . S
C615 C616 1.358 . S
C615 C617 1.356 . S
C615 H647 0.930 . S
C616 N613 1.279 . S
C616 C615 1.358 . S
C616 H619 0.930 . S
C617 C614 1.348 . S
C617 C615 1.356 . S
H618 C612 0.930 . S
H619 C616 0.930 . S
O620 Li560 1.956 . S
O620 Li561 1.970 . S
O620 Li562 1.961 . S
O620 C564 1.325 . S
O621 Li560 1.970 . S
O621 Li561 1.956 . S
O621 Li563 1.961 . S
O621 C570 1.325 . S
O622 Li560 1.961 . S
O622 Li562 1.956 . S
O622 Li563 1.970 . S
O622 C592 1.325 . S
O623 Li561 1.961 . S
O623 Li562 1.970 . S
O623 Li563 1.956 . S
O623 C598 1.325 . S
H624 C566 0.929 . S
H625 C567 0.930 . S
H626 C568 0.930 . S
H627 C569 0.930 . S
H628 C571 0.930 . S
H629 C573 0.929 . S
H630 C574 0.930 . S
H631 C575 0.930 . S
H632 C578 0.930 . S
H633 C581 0.929 . S
H634 C586 0.929 . S
H635 C587 0.930 . S
H636 C594 0.929 . S
H637 C595 0.930 . S
H638 C596 0.930 . S
H639 C597 0.930 . S
H640 C599 0.929 . S
H641 C600 0.930 . S
H642 C601 0.930 . S
H643 C602 0.930 . S
H644 C606 0.929 . S
H645 C608 0.930 . S
H646 C614 0.929 . S
H647 C615 0.930 . S
Li648 N665 1.990 . S
Li648 O708 1.956 . S
Li648 O709 1.970 . S
Li648 O710 1.961 . S
Li649 N673 1.990 . S
Li649 O708 1.970 . S
Li649 O709 1.956 . S
Li649 O711 1.961 . S
Li650 N695 1.990 . S
Li650 O708 1.961 . S
Li650 O710 1.956 . S
Li650 O711 1.970 . S
Li651 N701 1.990 . S
Li651 O709 1.961 . S
Li651 O710 1.970 . S
Li651 O711 1.956 . S
C652 C654 1.348 . S
C652 C655 1.356 . S
C652 O708 1.325 . S
N653 C656 1.314 . S
N653 C657 1.279 . S
C654 C652 1.348 . S
C654 C656 1.353 . S
C654 H712 0.929 . S
C655 C652 1.356 . S
C655 C657 1.358 . S
C655 H713 0.930 . S
C656 N653 1.314 . S
C656 C654 1.353 . S
C656 H714 0.930 . S
C657 N653 1.279 . S
C657 C655 1.358 . S
C657 H715 0.930 . S
C658 C661 1.348 . S
C658 C662 1.356 . S
C658 O709 1.325 . S
C659 N660 1.279 . S
C659 C662 1.358 . S
C659 H716 0.930 . S
N660 C659 1.279 . S
N660 C663 1.314 . S
C661 C658 1.348 . S
C661 C663 1.353 . S
C661 H717 0.929 . S
C662 C658 1.356 . S
C662 C659 1.358 . S
C662 H718 0.930 . S
C663 N660 1.314 . S
C663 C661 1.353 . S
C663 H719 0.930 . S
C664 N665 1.314 . S
C664 C669 1.353 . S
C664 H670 0.930 . S
N665 Li648 1.990 . S
N665 C664 1.314 . S
N665 C667 1.279 . S
C666 C667 1.358 . S
C666 C668 1.356 . S
C666 H720 0.930 . S
C667 N665 1.279 . S
C667 C666 1.358 . S
C667 H671 0.930 . S
C668 C666 1.356 . S
C668 C669 1.348 . S
C669 C664 1.353 . S
C669 C668 1.348 . S
C669 H721 0.929 . S
H670 C664 0.930 . S
H671 C667 0.930 . S
C672 N673 1.314 . S
C672 C674 1.353 . S
C672 H678 0.930 . S
N673 Li649 1.990 . S
N673 C672 1.314 . S
N673 C676 1.279 . S
C674 C672 1.353 . S
C674 C677 1.348 . S
C674 H722 0.929 . S
C675 C676 1.358 . S
C675 C677 1.356 . S
C675 H723 0.930 . S
C676 N673 1.279 . S
C676 C675 1.358 . S
C676 H679 0.930 . S
C677 C674 1.348 . S
C677 C675 1.356 . S
H678 C672 0.930 . S
H679 C676 0.930 . S
C680 C682 1.348 . S
C680 C683 1.356 . S
C680 O710 1.325 . S
N681 C684 1.314 . S
N681 C685 1.279 . S
C682 C680 1.348 . S
C682 C684 1.353 . S
C682 H724 0.929 . S
C683 C680 1.356 . S
C683 C685 1.358 . S
C683 H725 0.930 . S
C684 N681 1.314 . S
C684 C682 1.353 . S
C684 H726 0.930 . S
C685 N681 1.279 . S
C685 C683 1.358 . S
C685 H727 0.930 . S
C686 C687 1.348 . S
C686 C688 1.356 . S
C686 O711 1.325 . S
C687 C686 1.348 . S
C687 C689 1.353 . S
C687 H728 0.929 . S
C688 C686 1.356 . S
C688 C690 1.358 . S
C688 H729 0.930 . S
C689 C687 1.353 . S
C689 N691 1.314 . S
C689 H730 0.930 . S
C690 C688 1.358 . S
C690 N691 1.279 . S
C690 H731 0.930 . S
N691 C689 1.314 . S
N691 C690 1.279 . S
C692 C694 1.353 . S
C692 N695 1.314 . S
C692 H698 0.930 . S
C693 N695 1.279 . S
C693 C696 1.358 . S
C693 H699 0.930 . S
C694 C692 1.353 . S
C694 C697 1.348 . S
C694 H732 0.929 . S
N695 Li650 1.990 . S
N695 C692 1.314 . S
N695 C693 1.279 . S
C696 C693 1.358 . S
C696 C697 1.356 . S
C696 H733 0.930 . S
C697 C694 1.348 . S
C697 C696 1.356 . S
H698 C692 0.930 . S
H699 C693 0.930 . S
C700 N701 1.314 . S
C700 C702 1.353 . S
C700 H706 0.930 . S
N701 Li651 1.990 . S
N701 C700 1.314 . S
N701 C704 1.279 . S
C702 C700 1.353 . S
C702 C705 1.348 . S
C702 H734 0.929 . S
C703 C704 1.358 . S
C703 C705 1.356 . S
C703 H735 0.930 . S
C704 N701 1.279 . S
C704 C703 1.358 . S
C704 H707 0.930 . S
C705 C702 1.348 . S
C705 C703 1.356 . S
H706 C700 0.930 . S
H707 C704 0.930 . S
O708 Li648 1.956 . S
O708 Li649 1.970 . S
O708 Li650 1.961 . S
O708 C652 1.325 . S
O709 Li648 1.970 . S
O709 Li649 1.956 . S
O709 Li651 1.961 . S
O709 C658 1.325 . S
O710 Li648 1.961 . S
O710 Li650 1.956 . S
O710 Li651 1.970 . S
O710 C680 1.325 . S
O711 Li649 1.961 . S
O711 Li650 1.970 . S
O711 Li651 1.956 . S
O711 C686 1.325 . S
H712 C654 0.929 . S
H713 C655 0.930 . S
H714 C656 0.930 . S
H715 C657 0.930 . S
H716 C659 0.930 . S
H717 C661 0.929 . S
H718 C662 0.930 . S
H719 C663 0.930 . S
H720 C666 0.930 . S
H721 C669 0.929 . S
H722 C674 0.929 . S
H723 C675 0.930 . S
H724 C682 0.929 . S
H725 C683 0.930 . S
H726 C684 0.930 . S
H727 C685 0.930 . S
H728 C687 0.929 . S
H729 C688 0.930 . S
H730 C689 0.930 . S
H731 C690 0.930 . S
H732 C694 0.929 . S
H733 C696 0.930 . S
H734 C702 0.929 . S
H735 C703 0.930 . S
Li736 N753 1.990 . S
Li736 O796 1.956 . S
Li736 O797 1.970 . S
Li736 O798 1.961 . S
Li737 N761 1.990 . S
Li737 O796 1.970 . S
Li737 O797 1.956 . S
Li737 O799 1.961 . S
Li738 N783 1.990 . S
Li738 O796 1.961 . S
Li738 O798 1.956 . S
Li738 O799 1.970 . S
Li739 N789 1.990 . S
Li739 O797 1.961 . S
Li739 O798 1.970 . S
Li739 O799 1.956 . S
C740 C742 1.348 . S
C740 C743 1.356 . S
C740 O796 1.325 . S
N741 C744 1.314 . S
N741 C745 1.279 . S
C742 C740 1.348 . S
C742 C744 1.353 . S
C742 H800 0.929 . S
C743 C740 1.356 . S
C743 C745 1.358 . S
C743 H801 0.930 . S
C744 N741 1.314 . S
C744 C742 1.353 . S
C744 H802 0.930 . S
C745 N741 1.279 . S
C745 C743 1.358 . S
C745 H803 0.930 . S
C746 C749 1.348 . S
C746 C750 1.356 . S
C746 O797 1.325 . S
C747 N748 1.279 . S
C747 C750 1.358 . S
C747 H804 0.930 . S
N748 C747 1.279 . S
N748 C751 1.314 . S
C749 C746 1.348 . S
C749 C751 1.353 . S
C749 H805 0.929 . S
C750 C746 1.356 . S
C750 C747 1.358 . S
C750 H806 0.930 . S
C751 N748 1.314 . S
C751 C749 1.353 . S
C751 H807 0.930 . S
C752 N753 1.314 . S
C752 C757 1.353 . S
C752 H758 0.930 . S
N753 Li736 1.990 . S
N753 C752 1.314 . S
N753 C755 1.279 . S
C754 C755 1.358 . S
C754 C756 1.356 . S
C754 H808 0.930 . S
C755 N753 1.279 . S
C755 C754 1.358 . S
C755 H759 0.930 . S
C756 C754 1.356 . S
C756 C757 1.348 . S
C757 C752 1.353 . S
C757 C756 1.348 . S
C757 H809 0.929 . S
H758 C752 0.930 . S
H759 C755 0.930 . S
C760 N761 1.314 . S
C760 C762 1.353 . S
C760 H766 0.930 . S
N761 Li737 1.990 . S
N761 C760 1.314 . S
N761 C764 1.279 . S
C762 C760 1.353 . S
C762 C765 1.348 . S
C762 H810 0.929 . S
C763 C764 1.358 . S
C763 C765 1.356 . S
C763 H811 0.930 . S
C764 N761 1.279 . S
C764 C763 1.358 . S
C764 H767 0.930 . S
C765 C762 1.348 . S
C765 C763 1.356 . S
H766 C760 0.930 . S
H767 C764 0.930 . S
C768 C770 1.348 . S
C768 C771 1.356 . S
C768 O798 1.325 . S
N769 C772 1.314 . S
N769 C773 1.279 . S
C770 C768 1.348 . S
C770 C772 1.353 . S
C770 H812 0.929 . S
C771 C768 1.356 . S
C771 C773 1.358 . S
C771 H813 0.930 . S
C772 N769 1.314 . S
C772 C770 1.353 . S
C772 H814 0.930 . S
C773 N769 1.279 . S
C773 C771 1.358 . S
C773 H815 0.930 . S
C774 C775 1.348 . S
C774 C776 1.356 . S
C774 O799 1.325 . S
C775 C774 1.348 . S
C775 C777 1.353 . S
C775 H816 0.929 . S
C776 C774 1.356 . S
C776 C778 1.358 . S
C776 H817 0.930 . S
C777 C775 1.353 . S
C777 N779 1.314 . S
C777 H818 0.930 . S
C778 C776 1.358 . S
C778 N779 1.279 . S
C778 H819 0.930 . S
N779 C777 1.314 . S
N779 C778 1.279 . S
C780 C782 1.353 . S
C780 N783 1.314 . S
C780 H786 0.930 . S
C781 N783 1.279 . S
C781 C784 1.358 . S
C781 H787 0.930 . S
C782 C780 1.353 . S
C782 C785 1.348 . S
C782 H820 0.929 . S
N783 Li738 1.990 . S
N783 C780 1.314 . S
N783 C781 1.279 . S
C784 C781 1.358 . S
C784 C785 1.356 . S
C784 H821 0.930 . S
C785 C782 1.348 . S
C785 C784 1.356 . S
H786 C780 0.930 . S
H787 C781 0.930 . S
C788 N789 1.314 . S
C788 C790 1.353 . S
C788 H794 0.930 . S
N789 Li739 1.990 . S
N789 C788 1.314 . S
N789 C792 1.279 . S
C790 C788 1.353 . S
C790 C793 1.348 . S
C790 H822 0.929 . S
C791 C792 1.358 . S
C791 C793 1.356 . S
C791 H823 0.930 . S
C792 N789 1.279 . S
C792 C791 1.358 . S
C792 H795 0.930 . S
C793 C790 1.348 . S
C793 C791 1.356 . S
H794 C788 0.930 . S
H795 C792 0.930 . S
O796 Li736 1.956 . S
O796 Li737 1.970 . S
O796 Li738 1.961 . S
O796 C740 1.325 . S
O797 Li736 1.970 . S
O797 Li737 1.956 . S
O797 Li739 1.961 . S
O797 C746 1.325 . S
O798 Li736 1.961 . S
O798 Li738 1.956 . S
O798 Li739 1.970 . S
O798 C768 1.325 . S
O799 Li737 1.961 . S
O799 Li738 1.970 . S
O799 Li739 1.956 . S
O799 C774 1.325 . S
H800 C742 0.929 . S
H801 C743 0.930 . S
H802 C744 0.930 . S
H803 C745 0.930 . S
H804 C747 0.930 . S
H805 C749 0.929 . S
H806 C750 0.930 . S
H807 C751 0.930 . S
H808 C754 0.930 . S
H809 C757 0.929 . S
H810 C762 0.929 . S
H811 C763 0.930 . S
H812 C770 0.929 . S
H813 C771 0.930 . S
H814 C772 0.930 . S
H815 C773 0.930 . S
H816 C775 0.929 . S
H817 C776 0.930 . S
H818 C777 0.930 . S
H819 C778 0.930 . S
H820 C782 0.929 . S
H821 C784 0.930 . S
H822 C790 0.929 . S
H823 C791 0.930 . S
Li824 N841 1.990 . S
Li824 O884 1.956 . S
Li824 O885 1.970 1_565 S
Li824 O886 1.961 . S
Li825 N849 1.990 . S
Li825 O884 1.970 1_545 S
Li825 O885 1.956 . S
Li825 O887 1.961 . S
Li826 N871 1.990 . S
Li826 O884 1.961 . S
Li826 O886 1.956 . S
Li826 O887 1.970 1_565 S
Li827 N877 1.990 . S
Li827 O885 1.961 . S
Li827 O886 1.970 1_545 S
Li827 O887 1.956 . S
C828 C830 1.348 . S
C828 C831 1.356 . S
C828 O884 1.325 . S
N829 C832 1.314 . S
N829 C833 1.279 . S
C830 C828 1.348 . S
C830 C832 1.353 . S
C830 H888 0.929 . S
C831 C828 1.356 . S
C831 C833 1.358 . S
C831 H889 0.930 . S
C832 N829 1.314 . S
C832 C830 1.353 . S
C832 H890 0.930 . S
C833 N829 1.279 . S
C833 C831 1.358 . S
C833 H891 0.930 . S
C834 C837 1.348 1_545 S
C834 C838 1.356 . S
C834 O885 1.325 . S
C835 N836 1.279 . S
C835 C838 1.358 . S
C835 H892 0.930 . S
N836 C835 1.279 . S
N836 C839 1.314 . S
C837 C834 1.348 1_565 S
C837 C839 1.353 1_565 S
C837 H893 0.929 . S
C838 C834 1.356 . S
C838 C835 1.358 . S
C838 H894 0.930 . S
C839 N836 1.314 . S
C839 C837 1.353 1_545 S
C839 H895 0.930 1_545 S
C840 N841 1.314 . S
C840 C845 1.353 . S
C840 H846 0.930 . S
N841 Li824 1.990 . S
N841 C840 1.314 . S
N841 C843 1.279 . S
C842 C843 1.358 . S
C842 C844 1.356 . S
C842 H896 0.930 . S
C843 N841 1.279 . S
C843 C842 1.358 . S
C843 H847 0.930 . S
C844 C842 1.356 . S
C844 C845 1.348 . S
C845 C840 1.353 . S
C845 C844 1.348 . S
C845 H897 0.929 . S
H846 C840 0.930 . S
H847 C843 0.930 . S
C848 N849 1.314 . S
C848 C850 1.353 . S
C848 H854 0.930 . S
N849 Li825 1.990 . S
N849 C848 1.314 . S
N849 C852 1.279 . S
C850 C848 1.353 . S
C850 C853 1.348 . S
C850 H898 0.929 . S
C851 C852 1.358 . S
C851 C853 1.356 . S
C851 H899 0.930 . S
C852 N849 1.279 . S
C852 C851 1.358 . S
C852 H855 0.930 . S
C853 C850 1.348 . S
C853 C851 1.356 . S
H854 C848 0.930 . S
H855 C852 0.930 . S
C856 C858 1.348 1_565 S
C856 C859 1.356 . S
C856 O886 1.325 . S
N857 C860 1.314 1_565 S
N857 C861 1.279 . S
C858 C856 1.348 1_545 S
C858 C860 1.353 . S
C858 H900 0.929 . S
C859 C856 1.356 . S
C859 C861 1.358 . S
C859 H901 0.930 . S
C860 N857 1.314 1_545 S
C860 C858 1.353 . S
C860 H902 0.930 . S
C861 N857 1.279 . S
C861 C859 1.358 . S
C861 H903 0.930 . S
C862 C863 1.348 . S
C862 C864 1.356 . S
C862 O887 1.325 . S
C863 C862 1.348 . S
C863 C865 1.353 . S
C863 H904 0.929 . S
C864 C862 1.356 . S
C864 C866 1.358 . S
C864 H905 0.930 . S
C865 C863 1.353 . S
C865 N867 1.314 . S
C865 H906 0.930 . S
C866 C864 1.358 . S
C866 N867 1.279 . S
C866 H907 0.930 . S
N867 C865 1.314 . S
N867 C866 1.279 . S
C868 C870 1.353 . S
C868 N871 1.314 . S
C868 H874 0.930 . S
C869 N871 1.279 . S
C869 C872 1.358 . S
C869 H875 0.930 . S
C870 C868 1.353 . S
C870 C873 1.348 . S
C870 H908 0.929 . S
N871 Li826 1.990 . S
N871 C868 1.314 . S
N871 C869 1.279 . S
C872 C869 1.358 . S
C872 C873 1.356 . S
C872 H909 0.930 . S
C873 C870 1.348 . S
C873 C872 1.356 . S
H874 C868 0.930 . S
H875 C869 0.930 . S
C876 N877 1.314 . S
C876 C878 1.353 . S
C876 H882 0.930 . S
N877 Li827 1.990 . S
N877 C876 1.314 . S
N877 C880 1.279 . S
C878 C876 1.353 . S
C878 C881 1.348 . S
C878 H910 0.929 . S
C879 C880 1.358 . S
C879 C881 1.356 . S
C879 H911 0.930 . S
C880 N877 1.279 . S
C880 C879 1.358 . S
C880 H883 0.930 . S
C881 C878 1.348 . S
C881 C879 1.356 . S
H882 C876 0.930 . S
H883 C880 0.930 . S
O884 Li824 1.956 . S
O884 Li825 1.970 1_565 S
O884 Li826 1.961 . S
O884 C828 1.325 . S
O885 Li824 1.970 1_545 S
O885 Li825 1.956 . S
O885 Li827 1.961 . S
O885 C834 1.325 . S
O886 Li824 1.961 . S
O886 Li826 1.956 . S
O886 Li827 1.970 1_565 S
O886 C856 1.325 . S
O887 Li825 1.961 . S
O887 Li826 1.970 1_545 S
O887 Li827 1.956 . S
O887 C862 1.325 . S
H888 C830 0.929 . S
H889 C831 0.930 . S
H890 C832 0.930 . S
H891 C833 0.930 . S
H892 C835 0.930 . S
H893 C837 0.929 . S
H894 C838 0.930 . S
H895 C839 0.930 1_565 S
H896 C842 0.930 . S
H897 C845 0.929 . S
H898 C850 0.929 . S
H899 C851 0.930 . S
H900 C858 0.929 . S
H901 C859 0.930 . S
H902 C860 0.930 . S
H903 C861 0.930 . S
H904 C863 0.929 . S
H905 C864 0.930 . S
H906 C865 0.930 . S
H907 C866 0.930 . S
H908 C870 0.929 . S
H909 C872 0.930 . S
H910 C878 0.929 . S
H911 C879 0.930 . S
Li912 N929 1.990 . S
Li912 O972 1.956 . S
Li912 O973 1.945 1_455 S
Li912 O974 1.988 . S
Li913 N937 1.990 . S
Li913 O972 1.970 1_655 S
Li913 O973 1.958 . S
Li913 O975 1.961 . S
Li914 N959 1.990 . S
Li914 O972 1.961 . S
Li914 O974 1.956 . S
Li914 O975 1.970 1_455 S
Li915 N965 1.990 . S
Li915 O973 1.979 . S
Li915 O974 1.933 1_655 S
Li915 O975 1.956 . S
C916 C918 1.348 . S
C916 C919 1.356 . S
C916 O972 1.325 . S
N917 C920 1.314 . S
N917 C921 1.279 . S
C918 C916 1.348 . S
C918 C920 1.353 . S
C918 H976 0.929 . S
C919 C916 1.356 . S
C919 C921 1.358 . S
C919 H977 0.930 . S
C920 N917 1.314 . S
C920 C918 1.353 . S
C920 H978 0.930 . S
C921 N917 1.279 . S
C921 C919 1.358 . S
C921 H979 0.930 . S
C922 C925 1.348 1_655 S
C922 C926 1.356 . S
C922 O973 1.330 . S
C923 N924 1.279 . S
C923 C926 1.358 . S
C923 H980 0.930 . S
N924 C923 1.279 . S
N924 C927 1.314 1_655 S
C925 C922 1.348 1_455 S
C925 C927 1.353 . S
C925 H981 0.929 . S
C926 C922 1.356 . S
C926 C923 1.358 . S
C926 H982 0.930 . S
C927 N924 1.314 1_455 S
C927 C925 1.353 . S
C927 H983 0.930 . S
C928 N929 1.314 . S
C928 C933 1.353 . S
C928 H934 0.930 . S
N929 Li912 1.990 . S
N929 C928 1.314 . S
N929 C931 1.279 . S
C930 C931 1.358 . S
C930 C932 1.356 . S
C930 H984 0.930 . S
C931 N929 1.279 . S
C931 C930 1.358 . S
C931 H935 0.930 . S
C932 C930 1.356 . S
C932 C933 1.348 . S
C933 C928 1.353 . S
C933 C932 1.348 . S
C933 H985 0.929 . S
H934 C928 0.930 . S
H935 C931 0.930 . S
C936 N937 1.314 . S
C936 C938 1.353 . S
C936 H942 0.930 . S
N937 Li913 1.990 . S
N937 C936 1.314 . S
N937 C940 1.278 1_655 S
C938 C936 1.353 . S
C938 C941 1.348 . S
C938 H986 0.929 . S
C939 C940 1.357 . S
C939 C941 1.354 1_455 S
C939 H987 0.930 . S
C940 N937 1.278 1_455 S
C940 C939 1.357 . S
C940 H943 0.936 . S
C941 C938 1.348 . S
C941 C939 1.354 1_655 S
H942 C936 0.930 . S
H943 C940 0.936 . S
C944 C946 1.348 1_455 S
C944 C947 1.356 . S
C944 O974 1.334 . S
N945 C948 1.314 1_455 S
N945 C949 1.279 . S
C946 C944 1.348 1_655 S
C946 C948 1.353 . S
C946 H988 0.929 . S
C947 C944 1.356 . S
C947 C949 1.358 . S
C947 H989 0.930 . S
C948 N945 1.314 1_655 S
C948 C946 1.353 . S
C948 H990 0.930 . S
C949 N945 1.279 . S
C949 C947 1.358 . S
C949 H991 0.930 . S
C950 C951 1.348 . S
C950 C952 1.356 . S
C950 O975 1.325 . S
C951 C950 1.348 . S
C951 C953 1.353 . S
C951 H992 0.929 . S
C952 C950 1.356 . S
C952 C954 1.358 . S
C952 H993 0.930 . S
C953 C951 1.353 . S
C953 N955 1.314 . S
C953 H994 0.930 . S
C954 C952 1.358 . S
C954 N955 1.279 . S
C954 H995 0.930 . S
N955 C953 1.314 . S
N955 C954 1.279 . S
C956 C958 1.353 . S
C956 N959 1.314 . S
C956 H962 0.930 . S
C957 N959 1.279 1_655 S
C957 C960 1.357 . S
C957 H963 0.932 . S
C958 C956 1.353 . S
C958 C961 1.348 . S
C958 H996 0.929 . S
N959 Li914 1.990 . S
N959 C956 1.314 . S
N959 C957 1.279 1_455 S
C960 C957 1.357 . S
C960 C961 1.356 1_655 S
C960 H997 0.929 . S
C961 C958 1.348 . S
C961 C960 1.356 1_455 S
H962 C956 0.930 . S
H963 C957 0.932 . S
C964 N965 1.314 . S
C964 C966 1.353 . S
C964 H970 0.930 . S
N965 Li915 1.990 . S
N965 C964 1.314 . S
N965 C968 1.279 . S
C966 C964 1.353 . S
C966 C969 1.348 . S
C966 H998 0.929 . S
C967 C968 1.358 . S
C967 C969 1.356 . S
C967 H999 0.930 . S
C968 N965 1.279 . S
C968 C967 1.358 . S
C968 H971 0.930 . S
C969 C966 1.348 . S
C969 C967 1.356 . S
H970 C964 0.930 . S
H971 C968 0.930 . S
O972 Li912 1.956 . S
O972 Li913 1.970 1_455 S
O972 Li914 1.961 . S
O972 C916 1.325 . S
O973 Li912 1.945 1_655 S
O973 Li913 1.958 . S
O973 Li915 1.979 . S
O973 C922 1.330 . S
O974 Li912 1.988 . S
O974 Li914 1.956 . S
O974 Li915 1.933 1_455 S
O974 C944 1.334 . S
O975 Li913 1.961 . S
O975 Li914 1.970 1_655 S
O975 Li915 1.956 . S
O975 C950 1.325 . S
H976 C918 0.929 . S
H977 C919 0.930 . S
H978 C920 0.930 . S
H979 C921 0.930 . S
H980 C923 0.930 . S
H981 C925 0.929 . S
H982 C926 0.930 . S
H983 C927 0.930 . S
H984 C930 0.930 . S
H985 C933 0.929 . S
H986 C938 0.929 . S
H987 C939 0.930 . S
H988 C946 0.929 . S
H989 C947 0.930 . S
H990 C948 0.930 . S
H991 C949 0.930 . S
H992 C951 0.929 . S
H993 C952 0.930 . S
H994 C953 0.930 . S
H995 C954 0.930 . S
H996 C958 0.929 . S
H997 C960 0.929 . S
H998 C966 0.929 . S
H999 C967 0.930 . S
Li1000 N1017 1.990 . S
Li1000 O1060 1.956 . S
Li1000 O1061 1.970 . S
Li1000 O1062 1.961 . S
Li1001 N1025 1.990 . S
Li1001 O1060 1.970 . S
Li1001 O1061 1.956 . S
Li1001 O1063 1.961 . S
Li1002 N1047 1.990 . S
Li1002 O1060 1.961 . S
Li1002 O1062 1.956 . S
Li1002 O1063 1.970 . S
Li1003 N1053 1.990 . S
Li1003 O1061 1.961 . S
Li1003 O1062 1.970 . S
Li1003 O1063 1.956 . S
C1004 C1006 1.348 . S
C1004 C1007 1.356 . S
C1004 O1060 1.325 . S
N1005 C1008 1.314 . S
N1005 C1009 1.279 . S
C1006 C1004 1.348 . S
C1006 C1008 1.353 . S
C1006 H1064 0.929 . S
C1007 C1004 1.356 . S
C1007 C1009 1.358 . S
C1007 H1065 0.930 . S
C1008 N1005 1.314 . S
C1008 C1006 1.353 . S
C1008 H1066 0.930 . S
C1009 N1005 1.279 . S
C1009 C1007 1.358 . S
C1009 H1067 0.930 . S
C1010 C1013 1.348 . S
C1010 C1014 1.356 . S
C1010 O1061 1.325 . S
C1011 N1012 1.279 . S
C1011 C1014 1.358 . S
C1011 H1068 0.930 . S
N1012 C1011 1.279 . S
N1012 C1015 1.314 . S
C1013 C1010 1.348 . S
C1013 C1015 1.353 . S
C1013 H1069 0.929 . S
C1014 C1010 1.356 . S
C1014 C1011 1.358 . S
C1014 H1070 0.930 . S
C1015 N1012 1.314 . S
C1015 C1013 1.353 . S
C1015 H1071 0.930 . S
C1016 N1017 1.314 . S
C1016 C1021 1.353 . S
C1016 H1022 0.930 . S
N1017 Li1000 1.990 . S
N1017 C1016 1.314 . S
N1017 C1019 1.279 . S
C1018 C1019 1.358 . S
C1018 C1020 1.356 . S
C1018 H1072 0.930 . S
C1019 N1017 1.279 . S
C1019 C1018 1.358 . S
C1019 H1023 0.930 . S
C1020 C1018 1.356 . S
C1020 C1021 1.348 . S
C1021 C1016 1.353 . S
C1021 C1020 1.348 . S
C1021 H1073 0.929 . S
H1022 C1016 0.930 . S
H1023 C1019 0.930 . S
C1024 N1025 1.314 . S
C1024 C1026 1.353 . S
C1024 H1030 0.930 . S
N1025 Li1001 1.990 . S
N1025 C1024 1.314 . S
N1025 C1028 1.279 . S
C1026 C1024 1.353 . S
C1026 C1029 1.348 . S
C1026 H1074 0.929 . S
C1027 C1028 1.358 . S
C1027 C1029 1.356 . S
C1027 H1075 0.930 . S
C1028 N1025 1.279 . S
C1028 C1027 1.358 . S
C1028 H1031 0.930 . S
C1029 C1026 1.348 . S
C1029 C1027 1.356 . S
H1030 C1024 0.930 . S
H1031 C1028 0.930 . S
C1032 C1034 1.348 . S
C1032 C1035 1.356 . S
C1032 O1062 1.325 . S
N1033 C1036 1.314 . S
N1033 C1037 1.279 . S
C1034 C1032 1.348 . S
C1034 C1036 1.353 . S
C1034 H1076 0.929 . S
C1035 C1032 1.356 . S
C1035 C1037 1.358 . S
C1035 H1077 0.930 . S
C1036 N1033 1.314 . S
C1036 C1034 1.353 . S
C1036 H1078 0.930 . S
C1037 N1033 1.279 . S
C1037 C1035 1.358 . S
C1037 H1079 0.930 . S
C1038 C1039 1.348 . S
C1038 C1040 1.356 . S
C1038 O1063 1.325 . S
C1039 C1038 1.348 . S
C1039 C1041 1.353 . S
C1039 H1080 0.929 . S
C1040 C1038 1.356 . S
C1040 C1042 1.358 . S
C1040 H1081 0.930 . S
C1041 C1039 1.353 . S
C1041 N1043 1.314 . S
C1041 H1082 0.930 . S
C1042 C1040 1.358 . S
C1042 N1043 1.279 . S
C1042 H1083 0.930 . S
N1043 C1041 1.314 . S
N1043 C1042 1.279 . S
C1044 C1046 1.353 . S
C1044 N1047 1.314 . S
C1044 H1050 0.930 . S
C1045 N1047 1.279 . S
C1045 C1048 1.358 . S
C1045 H1051 0.930 . S
C1046 C1044 1.353 . S
C1046 C1049 1.348 . S
C1046 H1084 0.929 . S
N1047 Li1002 1.990 . S
N1047 C1044 1.314 . S
N1047 C1045 1.279 . S
C1048 C1045 1.358 . S
C1048 C1049 1.356 . S
C1048 H1085 0.930 . S
C1049 C1046 1.348 . S
C1049 C1048 1.356 . S
H1050 C1044 0.930 . S
H1051 C1045 0.930 . S
C1052 N1053 1.314 . S
C1052 C1054 1.353 . S
C1052 H1058 0.930 . S
N1053 Li1003 1.990 . S
N1053 C1052 1.314 . S
N1053 C1056 1.279 . S
C1054 C1052 1.353 . S
C1054 C1057 1.348 . S
C1054 H1086 0.929 . S
C1055 C1056 1.358 . S
C1055 C1057 1.356 . S
C1055 H1087 0.930 . S
C1056 N1053 1.279 . S
C1056 C1055 1.358 . S
C1056 H1059 0.930 . S
C1057 C1054 1.348 . S
C1057 C1055 1.356 . S
H1058 C1052 0.930 . S
H1059 C1056 0.930 . S
O1060 Li1000 1.956 . S
O1060 Li1001 1.970 . S
O1060 Li1002 1.961 . S
O1060 C1004 1.325 . S
O1061 Li1000 1.970 . S
O1061 Li1001 1.956 . S
O1061 Li1003 1.961 . S
O1061 C1010 1.325 . S
O1062 Li1000 1.961 . S
O1062 Li1002 1.956 . S
O1062 Li1003 1.970 . S
O1062 C1032 1.325 . S
O1063 Li1001 1.961 . S
O1063 Li1002 1.970 . S
O1063 Li1003 1.956 . S
O1063 C1038 1.325 . S
H1064 C1006 0.929 . S
H1065 C1007 0.930 . S
H1066 C1008 0.930 . S
H1067 C1009 0.930 . S
H1068 C1011 0.930 . S
H1069 C1013 0.929 . S
H1070 C1014 0.930 . S
H1071 C1015 0.930 . S
H1072 C1018 0.930 . S
H1073 C1021 0.929 . S
H1074 C1026 0.929 . S
H1075 C1027 0.930 . S
H1076 C1034 0.929 . S
H1077 C1035 0.930 . S
H1078 C1036 0.930 . S
H1079 C1037 0.930 . S
H1080 C1039 0.929 . S
H1081 C1040 0.930 . S
H1082 C1041 0.930 . S
H1083 C1042 0.930 . S
H1084 C1046 0.929 . S
H1085 C1048 0.930 . S
H1086 C1054 0.929 . S
H1087 C1055 0.930 . S
Li1088 N1105 1.990 . S
Li1088 O1148 1.956 . S
Li1088 O1149 1.970 1_455 S
Li1088 O1150 1.961 . S
Li1089 N1113 1.991 . S
Li1089 O1148 1.970 1_655 S
Li1089 O1149 1.956 . S
Li1089 O1151 1.961 1_655 S
Li1090 N1135 1.990 . S
Li1090 O1148 1.961 . S
Li1090 O1150 1.956 . S
Li1090 O1151 1.970 . S
Li1091 N1141 1.990 . S
Li1091 O1149 1.961 1_455 S
Li1091 O1150 1.970 . S
Li1091 O1151 1.956 . S
C1092 C1094 1.348 . S
C1092 C1095 1.356 . S
C1092 O1148 1.325 . S
N1093 C1096 1.314 . S
N1093 C1097 1.279 . S
C1094 C1092 1.348 . S
C1094 C1096 1.353 . S
C1094 H1152 0.977 . S
C1095 C1092 1.356 . S
C1095 C1097 1.358 . S
C1095 H1153 0.930 . S
C1096 N1093 1.314 . S
C1096 C1094 1.353 . S
C1096 H1154 0.930 . S
C1097 N1093 1.279 . S
C1097 C1095 1.358 . S
C1097 H1155 0.930 . S
C1098 C1101 1.348 . S
C1098 C1102 1.356 . S
C1098 O1149 1.325 . S
C1099 N1100 1.279 . S
C1099 C1102 1.358 . S
C1099 H1156 0.930 . S
N1100 C1099 1.279 . S
N1100 C1103 1.314 . S
C1101 C1098 1.348 . S
C1101 C1103 1.353 . S
C1101 H1157 0.929 . S
C1102 C1098 1.356 . S
C1102 C1099 1.358 . S
C1102 H1158 0.930 . S
C1103 N1100 1.314 . S
C1103 C1101 1.353 . S
C1103 H1159 0.930 . S
C1104 N1105 1.314 . S
C1104 C1109 1.353 . S
C1104 H1110 0.930 . S
N1105 Li1088 1.990 . S
N1105 C1104 1.314 . S
N1105 C1107 1.279 . S
C1106 C1107 1.358 . S
C1106 C1108 1.356 . S
C1106 H1160 0.930 . S
C1107 N1105 1.279 . S
C1107 C1106 1.358 . S
C1107 H1111 0.930 . S
C1108 C1106 1.356 . S
C1108 C1109 1.348 . S
C1109 C1104 1.353 . S
C1109 C1108 1.348 . S
C1109 H1161 0.929 . S
H1110 C1104 0.930 . S
H1111 C1107 0.930 . S
C1112 N1113 1.314 . S
C1112 C1114 1.353 . S
C1112 H1118 0.930 . S
N1113 Li1089 1.991 . S
N1113 C1112 1.314 . S
N1113 C1116 1.279 . S
C1114 C1112 1.353 . S
C1114 C1117 1.348 . S
C1114 H1162 0.929 . S
C1115 C1116 1.358 . S
C1115 C1117 1.356 . S
C1115 H1163 0.930 . S
C1116 N1113 1.279 . S
C1116 C1115 1.358 . S
C1116 H1119 0.930 . S
C1117 C1114 1.348 . S
C1117 C1115 1.356 . S
H1118 C1112 0.930 . S
H1119 C1116 0.930 . S
C1120 C1122 1.348 . S
C1120 C1123 1.356 . S
C1120 O1150 1.325 . S
N1121 C1124 1.314 . S
N1121 C1125 1.279 . S
C1122 C1120 1.348 . S
C1122 C1124 1.353 . S
C1122 H1164 0.929 . S
C1123 C1120 1.356 . S
C1123 C1125 1.358 . S
C1123 H1165 0.930 . S
C1124 N1121 1.314 . S
C1124 C1122 1.353 . S
C1124 H1166 0.930 . S
C1125 N1121 1.279 . S
C1125 C1123 1.358 . S
C1125 H1167 0.930 . S
C1126 C1127 1.348 . S
C1126 C1128 1.356 1_455 S
C1126 O1151 1.325 . S
C1127 C1126 1.348 . S
C1127 C1129 1.353 . S
C1127 H1168 0.929 . S
C1128 C1126 1.356 1_655 S
C1128 C1130 1.358 . S
C1128 H1169 0.930 . S
C1129 C1127 1.353 . S
C1129 N1131 1.314 . S
C1129 H1170 0.930 . S
C1130 C1128 1.358 . S
C1130 N1131 1.279 1_655 S
C1130 H1171 0.930 . S
N1131 C1129 1.314 . S
N1131 C1130 1.279 1_455 S
C1132 C1134 1.353 . S
C1132 N1135 1.314 . S
C1132 H1138 0.930 . S
C1133 N1135 1.279 . S
C1133 C1136 1.358 . S
C1133 H1139 0.930 . S
C1134 C1132 1.353 . S
C1134 C1137 1.348 . S
C1134 H1172 0.929 . S
N1135 Li1090 1.990 . S
N1135 C1132 1.314 . S
N1135 C1133 1.279 . S
C1136 C1133 1.358 . S
C1136 C1137 1.356 . S
C1136 H1173 0.930 . S
C1137 C1134 1.348 . S
C1137 C1136 1.356 . S
H1138 C1132 0.930 . S
H1139 C1133 0.930 . S
C1140 N1141 1.320 . S
C1140 C1142 1.351 1_455 S
C1140 H1146 0.925 1_455 S
N1141 Li1091 1.990 . S
N1141 C1140 1.320 . S
N1141 C1144 1.279 . S
C1142 C1140 1.351 1_655 S
C1142 C1145 1.359 . S
C1142 H1174 0.929 . S
C1143 C1144 1.358 . S
C1143 C1145 1.347 1_455 S
C1143 H1175 0.930 . S
C1144 N1141 1.279 . S
C1144 C1143 1.358 . S
C1144 H1147 0.930 . S
C1145 C1142 1.359 . S
C1145 C1143 1.347 1_655 S
H1146 C1140 0.925 1_655 S
H1147 C1144 0.930 . S
O1148 Li1088 1.956 . S
O1148 Li1089 1.970 1_455 S
O1148 Li1090 1.961 . S
O1148 C1092 1.325 . S
O1149 Li1088 1.970 1_655 S
O1149 Li1089 1.956 . S
O1149 Li1091 1.961 1_655 S
O1149 C1098 1.325 . S
O1150 Li1088 1.961 . S
O1150 Li1090 1.956 . S
O1150 Li1091 1.970 . S
O1150 C1120 1.325 . S
O1151 Li1089 1.961 1_455 S
O1151 Li1090 1.970 . S
O1151 Li1091 1.956 . S
O1151 C1126 1.325 . S
H1152 C1094 0.977 . S
H1153 C1095 0.930 . S
H1154 C1096 0.930 . S
H1155 C1097 0.930 . S
H1156 C1099 0.930 . S
H1157 C1101 0.929 . S
H1158 C1102 0.930 . S
H1159 C1103 0.930 . S
H1160 C1106 0.930 . S
H1161 C1109 0.929 . S
H1162 C1114 0.929 . S
H1163 C1115 0.930 . S
H1164 C1122 0.929 . S
H1165 C1123 0.930 . S
H1166 C1124 0.930 . S
H1167 C1125 0.930 . S
H1168 C1127 0.929 . S
H1169 C1128 0.930 . S
H1170 C1129 0.930 . S
H1171 C1130 0.930 . S
H1172 C1134 0.929 . S
H1173 C1136 0.930 . S
H1174 C1142 0.929 . S
H1175 C1143 0.930 . S
Li1176 N1193 1.990 . S
Li1176 O1236 1.956 . S
Li1176 O1237 1.970 . S
Li1176 O1238 1.961 . S
Li1177 N1201 1.990 . S
Li1177 O1236 1.970 . S
Li1177 O1237 1.956 . S
Li1177 O1239 1.961 . S
Li1178 N1223 1.990 . S
Li1178 O1236 1.961 . S
Li1178 O1238 1.956 . S
Li1178 O1239 1.970 . S
Li1179 N1229 1.990 . S
Li1179 O1237 1.961 . S
Li1179 O1238 1.970 . S
Li1179 O1239 1.956 . S
C1180 C1182 1.348 . S
C1180 C1183 1.356 . S
C1180 O1236 1.325 . S
N1181 C1184 1.314 . S
N1181 C1185 1.279 . S
C1182 C1180 1.348 . S
C1182 C1184 1.353 . S
C1182 H1240 0.929 . S
C1183 C1180 1.356 . S
C1183 C1185 1.358 . S
C1183 H1241 0.930 . S
C1184 N1181 1.314 . S
C1184 C1182 1.353 . S
C1184 H1242 0.930 . S
C1185 N1181 1.279 . S
C1185 C1183 1.358 . S
C1185 H1243 0.930 . S
C1186 C1189 1.348 . S
C1186 C1190 1.356 . S
C1186 O1237 1.325 . S
C1187 N1188 1.279 . S
C1187 C1190 1.358 . S
C1187 H1244 0.930 . S
N1188 C1187 1.279 . S
N1188 C1191 1.314 . S
C1189 C1186 1.348 . S
C1189 C1191 1.353 . S
C1189 H1245 0.929 . S
C1190 C1186 1.356 . S
C1190 C1187 1.358 . S
C1190 H1246 0.930 . S
C1191 N1188 1.314 . S
C1191 C1189 1.353 . S
C1191 H1247 0.930 . S
C1192 N1193 1.314 . S
C1192 C1197 1.353 . S
C1192 H1198 0.930 . S
N1193 Li1176 1.990 . S
N1193 C1192 1.314 . S
N1193 C1195 1.279 . S
C1194 C1195 1.358 . S
C1194 C1196 1.356 . S
C1194 H1248 0.930 . S
C1195 N1193 1.279 . S
C1195 C1194 1.358 . S
C1195 H1199 0.930 . S
C1196 C1194 1.356 . S
C1196 C1197 1.348 . S
C1197 C1192 1.353 . S
C1197 C1196 1.348 . S
C1197 H1249 0.929 . S
H1198 C1192 0.930 . S
H1199 C1195 0.930 . S
C1200 N1201 1.314 . S
C1200 C1202 1.353 . S
C1200 H1206 0.930 . S
N1201 Li1177 1.990 . S
N1201 C1200 1.314 . S
N1201 C1204 1.279 . S
C1202 C1200 1.353 . S
C1202 C1205 1.348 . S
C1202 H1250 0.929 . S
C1203 C1204 1.358 . S
C1203 C1205 1.356 . S
C1203 H1251 0.930 . S
C1204 N1201 1.279 . S
C1204 C1203 1.358 . S
C1204 H1207 0.930 . S
C1205 C1202 1.348 . S
C1205 C1203 1.356 . S
H1206 C1200 0.930 . S
H1207 C1204 0.930 . S
C1208 C1210 1.348 . S
C1208 C1211 1.356 . S
C1208 O1238 1.325 . S
N1209 C1212 1.314 . S
N1209 C1213 1.279 . S
C1210 C1208 1.348 . S
C1210 C1212 1.353 . S
C1210 H1252 0.929 . S
C1211 C1208 1.356 . S
C1211 C1213 1.358 . S
C1211 H1253 0.930 . S
C1212 N1209 1.314 . S
C1212 C1210 1.353 . S
C1212 H1254 0.930 . S
C1213 N1209 1.279 . S
C1213 C1211 1.358 . S
C1213 H1255 0.930 . S
C1214 C1215 1.348 . S
C1214 C1216 1.356 . S
C1214 O1239 1.325 . S
C1215 C1214 1.348 . S
C1215 C1217 1.353 . S
C1215 H1256 0.929 . S
C1216 C1214 1.356 . S
C1216 C1218 1.358 . S
C1216 H1257 0.930 . S
C1217 C1215 1.353 . S
C1217 N1219 1.314 . S
C1217 H1258 0.930 . S
C1218 C1216 1.358 . S
C1218 N1219 1.279 . S
C1218 H1259 0.930 . S
N1219 C1217 1.314 . S
N1219 C1218 1.279 . S
C1220 C1222 1.353 . S
C1220 N1223 1.314 . S
C1220 H1226 0.930 . S
C1221 N1223 1.279 . S
C1221 C1224 1.358 . S
C1221 H1227 0.930 . S
C1222 C1220 1.353 . S
C1222 C1225 1.348 . S
C1222 H1260 0.929 . S
N1223 Li1178 1.990 . S
N1223 C1220 1.314 . S
N1223 C1221 1.279 . S
C1224 C1221 1.358 . S
C1224 C1225 1.356 . S
C1224 H1261 0.930 . S
C1225 C1222 1.348 . S
C1225 C1224 1.356 . S
H1226 C1220 0.930 . S
H1227 C1221 0.930 . S
C1228 N1229 1.314 . S
C1228 C1230 1.353 . S
C1228 H1234 0.930 . S
N1229 Li1179 1.990 . S
N1229 C1228 1.314 . S
N1229 C1232 1.279 . S
C1230 C1228 1.353 . S
C1230 C1233 1.348 . S
C1230 H1262 0.929 . S
C1231 C1232 1.358 . S
C1231 C1233 1.356 . S
C1231 H1263 0.930 . S
C1232 N1229 1.279 . S
C1232 C1231 1.358 . S
C1232 H1235 0.930 . S
C1233 C1230 1.348 . S
C1233 C1231 1.356 . S
H1234 C1228 0.930 . S
H1235 C1232 0.930 . S
O1236 Li1176 1.956 . S
O1236 Li1177 1.970 . S
O1236 Li1178 1.961 . S
O1236 C1180 1.325 . S
O1237 Li1176 1.970 . S
O1237 Li1177 1.956 . S
O1237 Li1179 1.961 . S
O1237 C1186 1.325 . S
O1238 Li1176 1.961 . S
O1238 Li1178 1.956 . S
O1238 Li1179 1.970 . S
O1238 C1208 1.325 . S
O1239 Li1177 1.961 . S
O1239 Li1178 1.970 . S
O1239 Li1179 1.956 . S
O1239 C1214 1.325 . S
H1240 C1182 0.929 . S
H1241 C1183 0.930 . S
H1242 C1184 0.930 . S
H1243 C1185 0.930 . S
H1244 C1187 0.930 . S
H1245 C1189 0.929 . S
H1246 C1190 0.930 . S
H1247 C1191 0.930 . S
H1248 C1194 0.930 . S
H1249 C1197 0.929 . S
H1250 C1202 0.929 . S
H1251 C1203 0.930 . S
H1252 C1210 0.929 . S
H1253 C1211 0.930 . S
H1254 C1212 0.930 . S
H1255 C1213 0.930 . S
H1256 C1215 0.929 . S
H1257 C1216 0.930 . S
H1258 C1217 0.930 . S
H1259 C1218 0.930 . S
H1260 C1222 0.929 . S
H1261 C1224 0.930 . S
H1262 C1230 0.929 . S
H1263 C1231 0.930 . S
C1264 C1265 1.391 . S
C1264 C1266 1.394 . S
C1264 H1280 0.931 . S
C1265 C1264 1.391 . S
C1265 C1269 1.376 . S
C1266 C1264 1.394 . S
C1266 C1267 1.369 . S
C1266 C1270 1.531 . S
C1267 C1266 1.369 . S
C1267 C1268 1.410 . S
C1267 C1275 1.503 . S
C1268 C1267 1.410 . S
C1268 C1269 1.392 . S
C1268 C1271 1.511 . S
C1269 C1265 1.376 . S
C1269 C1268 1.392 . S
C1269 H1281 0.929 . S
C1270 C1266 1.531 . S
C1270 H1282 0.960 . S
C1270 H1283 0.962 . S
C1270 H1284 0.960 . S
C1271 C1268 1.511 . S
C1271 H1285 0.961 . S
C1271 H1286 0.961 . S
C1271 H1287 0.961 . S
C1272 C1273 1.370 . S
C1272 C1274 1.363 . S
C1272 H1288 0.931 . S
C1273 C1272 1.370 . S
C1273 C1277 1.408 . S
C1274 C1272 1.363 . S
C1274 C1275 1.370 . S
C1274 C1278 1.524 . S
C1275 C1267 1.503 . S
C1275 C1274 1.370 . S
C1275 C1276 1.403 . S
C1276 C1275 1.403 . S
C1276 C1277 1.404 . S
C1276 C1279 1.539 . S
C1277 C1273 1.408 . S
C1277 C1276 1.404 . S
C1277 H1289 0.930 . S
C1278 C1274 1.524 . S
C1278 H1290 0.956 . S
C1278 H1291 0.961 . S
C1278 H1292 0.961 . S
C1279 C1276 1.539 . S
C1279 H1293 0.958 . S
C1279 H1294 0.961 . S
C1279 H1295 0.960 . S
H1280 C1264 0.931 . S
H1281 C1269 0.929 . S
H1282 C1270 0.960 . S
H1283 C1270 0.962 . S
H1284 C1270 0.960 . S
H1285 C1271 0.961 . S
H1286 C1271 0.961 . S
H1287 C1271 0.961 . S
H1288 C1272 0.931 . S
H1289 C1277 0.930 . S
H1290 C1278 0.956 . S
H1291 C1278 0.961 . S
H1292 C1278 0.961 . S
H1293 C1279 0.958 . S
H1294 C1279 0.961 . S
H1295 C1279 0.960 . S
C1296 C1297 1.391 . S
C1296 C1298 1.394 . S
C1296 H1312 0.931 . S
C1297 C1296 1.391 . S
C1297 C1301 1.376 . S
C1298 C1296 1.394 . S
C1298 C1299 1.369 . S
C1298 C1302 1.531 . S
C1299 C1298 1.369 . S
C1299 C1300 1.410 . S
C1299 C1307 1.503 . S
C1300 C1299 1.410 . S
C1300 C1301 1.392 . S
C1300 C1303 1.511 . S
C1301 C1297 1.376 . S
C1301 C1300 1.392 . S
C1301 H1313 0.929 . S
C1302 C1298 1.531 . S
C1302 H1314 0.960 . S
C1302 H1315 0.962 . S
C1302 H1316 0.960 . S
C1303 C1300 1.511 . S
C1303 H1317 0.961 . S
C1303 H1318 0.961 . S
C1303 H1319 0.961 . S
C1304 C1305 1.370 . S
C1304 C1306 1.363 . S
C1304 H1320 0.931 . S
C1305 C1304 1.370 . S
C1305 C1309 1.408 . S
C1306 C1304 1.363 . S
C1306 C1307 1.370 . S
C1306 C1310 1.524 . S
C1307 C1299 1.503 . S
C1307 C1306 1.370 . S
C1307 C1308 1.403 . S
C1308 C1307 1.403 . S
C1308 C1309 1.404 . S
C1308 C1311 1.539 . S
C1309 C1305 1.408 . S
C1309 C1308 1.404 . S
C1309 H1321 0.930 . S
C1310 C1306 1.524 . S
C1310 H1322 0.956 . S
C1310 H1323 0.961 . S
C1310 H1324 0.961 . S
C1311 C1308 1.539 . S
C1311 H1325 0.958 . S
C1311 H1326 0.961 . S
C1311 H1327 0.960 . S
H1312 C1296 0.931 . S
H1313 C1301 0.929 . S
H1314 C1302 0.960 . S
H1315 C1302 0.962 . S
H1316 C1302 0.960 . S
H1317 C1303 0.961 . S
H1318 C1303 0.961 . S
H1319 C1303 0.961 . S
H1320 C1304 0.931 . S
H1321 C1309 0.930 . S
H1322 C1310 0.956 . S
H1323 C1310 0.961 . S
H1324 C1310 0.961 . S
H1325 C1311 0.958 . S
H1326 C1311 0.961 . S
H1327 C1311 0.960 . S
C1328 C1329 1.391 . S
C1328 C1330 1.394 . S
C1328 H1344 0.931 . S
C1329 C1328 1.391 . S
C1329 C1333 1.376 . S
C1330 C1328 1.394 . S
C1330 C1331 1.369 . S
C1330 C1334 1.531 . S
C1331 C1330 1.369 . S
C1331 C1332 1.410 . S
C1331 C1339 1.503 . S
C1332 C1331 1.410 . S
C1332 C1333 1.392 . S
C1332 C1335 1.511 . S
C1333 C1329 1.376 . S
C1333 C1332 1.392 . S
C1333 H1345 0.929 . S
C1334 C1330 1.531 . S
C1334 H1346 0.960 . S
C1334 H1347 0.962 . S
C1334 H1348 0.960 . S
C1335 C1332 1.511 . S
C1335 H1349 0.961 . S
C1335 H1350 0.961 . S
C1335 H1351 0.961 . S
C1336 C1337 1.370 . S
C1336 C1338 1.363 . S
C1336 H1352 0.931 . S
C1337 C1336 1.370 . S
C1337 C1341 1.408 . S
C1338 C1336 1.363 . S
C1338 C1339 1.370 . S
C1338 C1342 1.524 . S
C1339 C1331 1.503 . S
C1339 C1338 1.370 . S
C1339 C1340 1.403 . S
C1340 C1339 1.403 . S
C1340 C1341 1.404 . S
C1340 C1343 1.539 . S
C1341 C1337 1.408 . S
C1341 C1340 1.404 . S
C1341 H1353 0.930 . S
C1342 C1338 1.524 . S
C1342 H1354 0.956 . S
C1342 H1355 0.961 . S
C1342 H1356 0.961 . S
C1343 C1340 1.539 . S
C1343 H1357 0.958 . S
C1343 H1358 0.961 . S
C1343 H1359 0.960 . S
H1344 C1328 0.931 . S
H1345 C1333 0.929 . S
H1346 C1334 0.960 . S
H1347 C1334 0.962 . S
H1348 C1334 0.960 . S
H1349 C1335 0.961 . S
H1350 C1335 0.961 . S
H1351 C1335 0.961 . S
H1352 C1336 0.931 . S
H1353 C1341 0.930 . S
H1354 C1342 0.956 . S
H1355 C1342 0.961 . S
H1356 C1342 0.961 . S
H1357 C1343 0.958 . S
H1358 C1343 0.961 . S
H1359 C1343 0.960 . S
C1360 C1361 1.391 . S
C1360 C1362 1.394 1_455 S
C1360 H1376 0.931 . S
C1361 C1360 1.391 . S
C1361 C1365 1.376 1_455 S
C1362 C1360 1.394 1_655 S
C1362 C1363 1.369 . S
C1362 C1366 1.531 . S
C1363 C1362 1.369 . S
C1363 C1364 1.407 . S
C1363 C1371 1.503 . S
C1364 C1363 1.407 . S
C1364 C1365 1.392 . S
C1364 C1367 1.514 1_565 S
C1365 C1361 1.376 1_655 S
C1365 C1364 1.392 . S
C1365 H1377 0.929 1_565 S
C1366 C1362 1.531 . S
C1366 H1378 0.960 . S
C1366 H1379 0.962 1_655 S
C1366 H1380 0.960 1_655 S
C1367 C1364 1.514 1_545 S
C1367 H1381 0.961 . S
C1367 H1382 0.961 . S
C1367 H1383 0.961 . S
C1368 C1369 1.370 . S
C1368 C1370 1.363 . S
C1368 H1384 0.931 . S
C1369 C1368 1.370 . S
C1369 C1373 1.408 1_545 S
C1370 C1368 1.363 . S
C1370 C1371 1.370 1_545 S
C1370 C1374 1.524 . S
C1371 C1363 1.503 . S
C1371 C1370 1.370 1_565 S
C1371 C1372 1.403 . S
C1372 C1371 1.403 . S
C1372 C1373 1.404 . S
C1372 C1375 1.539 . S
C1373 C1369 1.408 1_565 S
C1373 C1372 1.404 . S
C1373 H1385 0.930 . S
C1374 C1370 1.524 . S
C1374 H1386 0.956 1_655 S
C1374 H1387 0.961 . S
C1374 H1388 0.961 . S
C1375 C1372 1.539 . S
C1375 H1389 0.958 . S
C1375 H1390 0.961 . S
C1375 H1391 0.960 . S
H1376 C1360 0.931 . S
H1377 C1365 0.929 1_545 S
H1378 C1366 0.960 . S
H1379 C1366 0.962 1_455 S
H1380 C1366 0.960 1_455 S
H1381 C1367 0.961 . S
H1382 C1367 0.961 . S
H1383 C1367 0.961 . S
H1384 C1368 0.931 . S
H1385 C1373 0.930 . S
H1386 C1374 0.956 1_455 S
H1387 C1374 0.961 . S
H1388 C1374 0.961 . S
H1389 C1375 0.958 . S
H1390 C1375 0.961 . S
H1391 C1375 0.960 . S
C1392 C1393 1.391 . S
C1392 C1394 1.394 . S
C1392 H1408 0.931 . S
C1393 C1392 1.391 . S
C1393 C1397 1.376 . S
C1394 C1392 1.394 . S
C1394 C1395 1.369 . S
C1394 C1398 1.531 . S
C1395 C1394 1.369 . S
C1395 C1396 1.410 . S
C1395 C1403 1.503 . S
C1396 C1395 1.410 . S
C1396 C1397 1.392 . S
C1396 C1399 1.511 . S
C1397 C1393 1.376 . S
C1397 C1396 1.392 . S
C1397 H1409 0.929 . S
C1398 C1394 1.531 . S
C1398 H1410 0.960 . S
C1398 H1411 0.962 . S
C1398 H1412 0.960 . S
C1399 C1396 1.511 . S
C1399 H1413 0.961 . S
C1399 H1414 0.961 . S
C1399 H1415 0.961 . S
C1400 C1401 1.370 . S
C1400 C1402 1.363 . S
C1400 H1416 0.931 . S
C1401 C1400 1.370 . S
C1401 C1405 1.408 . S
C1402 C1400 1.363 . S
C1402 C1403 1.370 . S
C1402 C1406 1.524 . S
C1403 C1395 1.503 . S
C1403 C1402 1.370 . S
C1403 C1404 1.403 . S
C1404 C1403 1.403 . S
C1404 C1405 1.404 . S
C1404 C1407 1.539 . S
C1405 C1401 1.408 . S
C1405 C1404 1.404 . S
C1405 H1417 0.930 . S
C1406 C1402 1.524 . S
C1406 H1418 0.956 . S
C1406 H1419 0.961 . S
C1406 H1420 0.961 . S
C1407 C1404 1.539 . S
C1407 H1421 0.958 . S
C1407 H1422 0.961 . S
C1407 H1423 0.960 . S
H1408 C1392 0.931 . S
H1409 C1397 0.929 . S
H1410 C1398 0.960 . S
H1411 C1398 0.962 . S
H1412 C1398 0.960 . S
H1413 C1399 0.961 . S
H1414 C1399 0.961 . S
H1415 C1399 0.961 . S
H1416 C1400 0.931 . S
H1417 C1405 0.930 . S
H1418 C1406 0.956 . S
H1419 C1406 0.961 . S
H1420 C1406 0.961 . S
H1421 C1407 0.958 . S
H1422 C1407 0.961 . S
H1423 C1407 0.960 . S
C1424 C1425 1.391 . S
C1424 C1426 1.394 . S
C1424 H1440 0.931 . S
C1425 C1424 1.391 . S
C1425 C1429 1.376 . S
C1426 C1424 1.394 . S
C1426 C1427 1.369 . S
C1426 C1430 1.531 . S
C1427 C1426 1.369 . S
C1427 C1428 1.410 . S
C1427 C1435 1.503 . S
C1428 C1427 1.410 . S
C1428 C1429 1.392 . S
C1428 C1431 1.511 . S
C1429 C1425 1.376 . S
C1429 C1428 1.392 . S
C1429 H1441 0.929 . S
C1430 C1426 1.531 . S
C1430 H1442 0.960 . S
C1430 H1443 0.962 . S
C1430 H1444 0.960 . S
C1431 C1428 1.511 . S
C1431 H1445 0.961 . S
C1431 H1446 0.961 . S
C1431 H1447 0.961 . S
C1432 C1433 1.370 . S
C1432 C1434 1.363 . S
C1432 H1448 0.931 . S
C1433 C1432 1.370 . S
C1433 C1437 1.408 . S
C1434 C1432 1.363 . S
C1434 C1435 1.370 . S
C1434 C1438 1.524 . S
C1435 C1427 1.503 . S
C1435 C1434 1.370 . S
C1435 C1436 1.403 . S
C1436 C1435 1.403 . S
C1436 C1437 1.404 . S
C1436 C1439 1.539 . S
C1437 C1433 1.408 . S
C1437 C1436 1.404 . S
C1437 H1449 0.930 . S
C1438 C1434 1.524 . S
C1438 H1450 0.956 . S
C1438 H1451 0.961 . S
C1438 H1452 0.961 . S
C1439 C1436 1.539 . S
C1439 H1453 0.958 . S
C1439 H1454 0.961 . S
C1439 H1455 0.960 . S
H1440 C1424 0.931 . S
H1441 C1429 0.929 . S
H1442 C1430 0.960 . S
H1443 C1430 0.962 . S
H1444 C1430 0.960 . S
H1445 C1431 0.961 . S
H1446 C1431 0.961 . S
H1447 C1431 0.961 . S
H1448 C1432 0.931 . S
H1449 C1437 0.930 . S
H1450 C1438 0.956 . S
H1451 C1438 0.961 . S
H1452 C1438 0.961 . S
H1453 C1439 0.958 . S
H1454 C1439 0.961 . S
H1455 C1439 0.960 . S
C1456 C1457 1.391 . S
C1456 C1458 1.394 . S
C1456 H1472 0.931 . S
C1457 C1456 1.391 . S
C1457 C1461 1.376 . S
C1458 C1456 1.394 . S
C1458 C1459 1.369 . S
C1458 C1462 1.531 . S
C1459 C1458 1.369 . S
C1459 C1460 1.410 . S
C1459 C1467 1.503 . S
C1460 C1459 1.410 . S
C1460 C1461 1.392 . S
C1460 C1463 1.511 . S
C1461 C1457 1.376 . S
C1461 C1460 1.392 . S
C1461 H1473 0.929 . S
C1462 C1458 1.531 . S
C1462 H1474 0.960 . S
C1462 H1475 0.962 . S
C1462 H1476 0.960 . S
C1463 C1460 1.511 . S
C1463 H1477 0.961 . S
C1463 H1478 0.961 . S
C1463 H1479 0.961 . S
C1464 C1465 1.370 . S
C1464 C1466 1.363 . S
C1464 H1480 0.931 . S
C1465 C1464 1.370 . S
C1465 C1469 1.408 . S
C1466 C1464 1.363 . S
C1466 C1467 1.370 . S
C1466 C1470 1.524 . S
C1467 C1459 1.503 . S
C1467 C1466 1.370 . S
C1467 C1468 1.403 . S
C1468 C1467 1.403 . S
C1468 C1469 1.404 . S
C1468 C1471 1.539 . S
C1469 C1465 1.408 . S
C1469 C1468 1.404 . S
C1469 H1481 0.930 . S
C1470 C1466 1.524 . S
C1470 H1482 0.956 . S
C1470 H1483 0.961 . S
C1470 H1484 0.961 . S
C1471 C1468 1.539 . S
C1471 H1485 0.958 . S
C1471 H1486 0.961 . S
C1471 H1487 0.960 . S
H1472 C1456 0.931 . S
H1473 C1461 0.929 . S
H1474 C1462 0.960 . S
H1475 C1462 0.962 . S
H1476 C1462 0.960 . S
H1477 C1463 0.961 . S
H1478 C1463 0.961 . S
H1479 C1463 0.961 . S
H1480 C1464 0.931 . S
H1481 C1469 0.930 . S
H1482 C1470 0.956 . S
H1483 C1470 0.961 . S
H1484 C1470 0.961 . S
H1485 C1471 0.958 . S
H1486 C1471 0.961 . S
H1487 C1471 0.960 . S
C1488 C1489 1.391 . S
C1488 C1490 1.394 . S
C1488 H1504 0.931 . S
C1489 C1488 1.391 . S
C1489 C1493 1.376 . S
C1490 C1488 1.394 . S
C1490 C1491 1.369 . S
C1490 C1494 1.531 . S
C1491 C1490 1.369 . S
C1491 C1492 1.410 . S
C1491 C1499 1.503 . S
C1492 C1491 1.410 . S
C1492 C1493 1.392 . S
C1492 C1495 1.511 . S
C1493 C1489 1.376 . S
C1493 C1492 1.392 . S
C1493 H1505 0.929 . S
C1494 C1490 1.531 . S
C1494 H1506 0.960 . S
C1494 H1507 0.962 . S
C1494 H1508 0.960 . S
C1495 C1492 1.511 . S
C1495 H1509 0.961 . S
C1495 H1510 0.961 . S
C1495 H1511 0.961 . S
C1496 C1497 1.370 . S
C1496 C1498 1.363 . S
C1496 H1512 0.931 1_565 S
C1497 C1496 1.370 . S
C1497 C1501 1.408 . S
C1498 C1496 1.363 . S
C1498 C1499 1.370 . S
C1498 C1502 1.524 1_565 S
C1499 C1491 1.503 . S
C1499 C1498 1.370 . S
C1499 C1500 1.403 . S
C1500 C1499 1.403 . S
C1500 C1501 1.404 . S
C1500 C1503 1.539 . S
C1501 C1497 1.408 . S
C1501 C1500 1.404 . S
C1501 H1513 0.930 . S
C1502 C1498 1.524 1_545 S
C1502 H1514 0.956 . S
C1502 H1515 0.961 . S
C1502 H1516 0.961 . S
C1503 C1500 1.539 . S
C1503 H1517 0.958 . S
C1503 H1518 0.961 . S
C1503 H1519 0.960 . S
H1504 C1488 0.931 . S
H1505 C1493 0.929 . S
H1506 C1494 0.960 . S
H1507 C1494 0.962 . S
H1508 C1494 0.960 . S
H1509 C1495 0.961 . S
H1510 C1495 0.961 . S
H1511 C1495 0.961 . S
H1512 C1496 0.931 1_545 S
H1513 C1501 0.930 . S
H1514 C1502 0.956 . S
H1515 C1502 0.961 . S
H1516 C1502 0.961 . S
H1517 C1503 0.958 . S
H1518 C1503 0.961 . S
H1519 C1503 0.960 . S
C1520 C1521 1.391 . S
C1520 C1522 1.394 . S
C1520 H1536 0.931 . S
C1521 C1520 1.391 . S
C1521 C1525 1.376 . S
C1522 C1520 1.394 . S
C1522 C1523 1.369 . S
C1522 C1526 1.531 . S
C1523 C1522 1.369 . S
C1523 C1524 1.410 . S
C1523 C1531 1.503 . S
C1524 C1523 1.410 . S
C1524 C1525 1.392 . S
C1524 C1527 1.511 . S
C1525 C1521 1.376 . S
C1525 C1524 1.392 . S
C1525 H1537 0.929 . S
C1526 C1522 1.531 . S
C1526 H1538 0.960 . S
C1526 H1539 0.962 . S
C1526 H1540 0.960 . S
C1527 C1524 1.511 . S
C1527 H1541 0.961 . S
C1527 H1542 0.961 . S
C1527 H1543 0.961 . S
C1528 C1529 1.370 . S
C1528 C1530 1.363 . S
C1528 H1544 0.931 . S
C1529 C1528 1.370 . S
C1529 C1533 1.408 . S
C1530 C1528 1.363 . S
C1530 C1531 1.370 . S
C1530 C1534 1.524 . S
C1531 C1523 1.503 . S
C1531 C1530 1.370 . S
C1531 C1532 1.403 . S
C1532 C1531 1.403 . S
C1532 C1533 1.404 . S
C1532 C1535 1.539 . S
C1533 C1529 1.408 . S
C1533 C1532 1.404 . S
C1533 H1545 0.930 . S
C1534 C1530 1.524 . S
C1534 H1546 0.956 . S
C1534 H1547 0.961 . S
C1534 H1548 0.961 . S
C1535 C1532 1.539 . S
C1535 H1549 0.958 . S
C1535 H1550 0.961 . S
C1535 H1551 0.960 . S
H1536 C1520 0.931 . S
H1537 C1525 0.929 . S
H1538 C1526 0.960 . S
H1539 C1526 0.962 . S
H1540 C1526 0.960 . S
H1541 C1527 0.961 . S
H1542 C1527 0.961 . S
H1543 C1527 0.961 . S
H1544 C1528 0.931 . S
H1545 C1533 0.930 . S
H1546 C1534 0.956 . S
H1547 C1534 0.961 . S
H1548 C1534 0.961 . S
H1549 C1535 0.958 . S
H1550 C1535 0.961 . S
H1551 C1535 0.960 . S
C1552 C1553 1.391 . S
C1552 C1554 1.394 . S
C1552 H1568 0.931 . S
C1553 C1552 1.391 . S
C1553 C1557 1.376 . S
C1554 C1552 1.394 . S
C1554 C1555 1.369 . S
C1554 C1558 1.531 . S
C1555 C1554 1.369 . S
C1555 C1556 1.410 . S
C1555 C1563 1.503 . S
C1556 C1555 1.410 . S
C1556 C1557 1.392 . S
C1556 C1559 1.511 . S
C1557 C1553 1.376 . S
C1557 C1556 1.392 . S
C1557 H1569 0.929 . S
C1558 C1554 1.531 . S
C1558 H1570 0.960 . S
C1558 H1571 0.962 . S
C1558 H1572 0.960 . S
C1559 C1556 1.511 . S
C1559 H1573 0.961 . S
C1559 H1574 0.961 . S
C1559 H1575 0.961 . S
C1560 C1561 1.370 . S
C1560 C1562 1.363 . S
C1560 H1576 0.931 . S
C1561 C1560 1.370 . S
C1561 C1565 1.408 . S
C1562 C1560 1.363 . S
C1562 C1563 1.370 . S
C1562 C1566 1.524 . S
C1563 C1555 1.503 . S
C1563 C1562 1.370 . S
C1563 C1564 1.403 . S
C1564 C1563 1.403 . S
C1564 C1565 1.404 . S
C1564 C1567 1.539 . S
C1565 C1561 1.408 . S
C1565 C1564 1.404 . S
C1565 H1577 0.930 . S
C1566 C1562 1.524 . S
C1566 H1578 0.956 . S
C1566 H1579 0.961 . S
C1566 H1580 0.961 . S
C1567 C1564 1.539 . S
C1567 H1581 0.958 . S
C1567 H1582 0.961 . S
C1567 H1583 0.960 . S
H1568 C1552 0.931 . S
H1569 C1557 0.929 . S
H1570 C1558 0.960 . S
H1571 C1558 0.962 . S
H1572 C1558 0.960 . S
H1573 C1559 0.961 . S
H1574 C1559 0.961 . S
H1575 C1559 0.961 . S
H1576 C1560 0.931 . S
H1577 C1565 0.930 . S
H1578 C1566 0.956 . S
H1579 C1566 0.961 . S
H1580 C1566 0.961 . S
H1581 C1567 0.958 . S
H1582 C1567 0.961 . S
H1583 C1567 0.960 . S
C1584 C1585 1.391 . S
C1584 C1586 1.394 . S
C1584 H1600 0.931 . S
C1585 C1584 1.391 . S
C1585 C1589 1.376 . S
C1586 C1584 1.394 . S
C1586 C1587 1.369 . S
C1586 C1590 1.531 . S
C1587 C1586 1.369 . S
C1587 C1588 1.410 . S
C1587 C1595 1.503 . S
C1588 C1587 1.410 . S
C1588 C1589 1.392 . S
C1588 C1591 1.511 . S
C1589 C1585 1.376 . S
C1589 C1588 1.392 . S
C1589 H1601 0.929 . S
C1590 C1586 1.531 . S
C1590 H1602 0.960 . S
C1590 H1603 0.962 . S
C1590 H1604 0.960 . S
C1591 C1588 1.511 . S
C1591 H1605 0.961 . S
C1591 H1606 0.961 . S
C1591 H1607 0.961 . S
C1592 C1593 1.370 . S
C1592 C1594 1.363 . S
C1592 H1608 0.931 . S
C1593 C1592 1.370 . S
C1593 C1597 1.408 . S
C1594 C1592 1.363 . S
C1594 C1595 1.370 . S
C1594 C1598 1.524 . S
C1595 C1587 1.503 . S
C1595 C1594 1.370 . S
C1595 C1596 1.403 . S
C1596 C1595 1.403 . S
C1596 C1597 1.404 . S
C1596 C1599 1.539 . S
C1597 C1593 1.408 . S
C1597 C1596 1.404 . S
C1597 H1609 0.930 . S
C1598 C1594 1.524 . S
C1598 H1610 0.956 . S
C1598 H1611 0.961 . S
C1598 H1612 0.961 . S
C1599 C1596 1.539 . S
C1599 H1613 0.958 . S
C1599 H1614 0.961 . S
C1599 H1615 0.960 . S
H1600 C1584 0.931 . S
H1601 C1589 0.929 . S
H1602 C1590 0.960 . S
H1603 C1590 0.962 . S
H1604 C1590 0.960 . S
H1605 C1591 0.961 . S
H1606 C1591 0.961 . S
H1607 C1591 0.961 . S
H1608 C1592 0.931 . S
H1609 C1597 0.930 . S
H1610 C1598 0.956 . S
H1611 C1598 0.961 . S
H1612 C1598 0.961 . S
H1613 C1599 0.958 . S
H1614 C1599 0.961 . S
H1615 C1599 0.960 . S
C1616 C1617 1.391 . S
C1616 C1618 1.394 . S
C1616 H1632 0.931 . S
C1617 C1616 1.391 . S
C1617 C1621 1.376 . S
C1618 C1616 1.394 . S
C1618 C1619 1.369 . S
C1618 C1622 1.531 . S
C1619 C1618 1.369 . S
C1619 C1620 1.410 . S
C1619 C1627 1.503 . S
C1620 C1619 1.410 . S
C1620 C1621 1.392 . S
C1620 C1623 1.511 . S
C1621 C1617 1.376 . S
C1621 C1620 1.392 . S
C1621 H1633 0.929 . S
C1622 C1618 1.531 . S
C1622 H1634 0.960 . S
C1622 H1635 0.962 . S
C1622 H1636 0.960 . S
C1623 C1620 1.511 . S
C1623 H1637 0.961 . S
C1623 H1638 0.961 . S
C1623 H1639 0.961 . S
C1624 C1625 1.370 . S
C1624 C1626 1.363 . S
C1624 H1640 0.931 . S
C1625 C1624 1.370 . S
C1625 C1629 1.408 . S
C1626 C1624 1.363 . S
C1626 C1627 1.370 . S
C1626 C1630 1.524 . S
C1627 C1619 1.503 . S
C1627 C1626 1.370 . S
C1627 C1628 1.403 . S
C1628 C1627 1.403 . S
C1628 C1629 1.404 . S
C1628 C1631 1.539 . S
C1629 C1625 1.408 . S
C1629 C1628 1.404 . S
C1629 H1641 0.930 . S
C1630 C1626 1.524 . S
C1630 H1642 0.956 . S
C1630 H1643 0.961 . S
C1630 H1644 0.961 . S
C1631 C1628 1.539 . S
C1631 H1645 0.958 . S
C1631 H1646 0.961 . S
C1631 H1647 0.960 . S
H1632 C1616 0.931 . S
H1633 C1621 0.929 . S
H1634 C1622 0.960 . S
H1635 C1622 0.962 . S
H1636 C1622 0.960 . S
H1637 C1623 0.961 . S
H1638 C1623 0.961 . S
H1639 C1623 0.961 . S
H1640 C1624 0.931 . S
H1641 C1629 0.930 . S
H1642 C1630 0.956 . S
H1643 C1630 0.961 . S
H1644 C1630 0.961 . S
H1645 C1631 0.958 . S
H1646 C1631 0.961 . S
H1647 C1631 0.960 . S
C1648 C1649 1.391 . S
C1648 C1650 1.394 . S
C1648 H1664 0.931 . S
C1649 C1648 1.391 . S
C1649 C1653 1.376 . S
C1650 C1648 1.394 . S
C1650 C1651 1.369 . S
C1650 C1654 1.531 . S
C1651 C1650 1.369 . S
C1651 C1652 1.410 . S
C1651 C1659 1.503 . S
C1652 C1651 1.410 . S
C1652 C1653 1.392 . S
C1652 C1655 1.511 . S
C1653 C1649 1.376 . S
C1653 C1652 1.392 . S
C1653 H1665 0.929 . S
C1654 C1650 1.531 . S
C1654 H1666 0.960 . S
C1654 H1667 0.962 . S
C1654 H1668 0.960 . S
C1655 C1652 1.511 . S
C1655 H1669 0.961 . S
C1655 H1670 0.961 . S
C1655 H1671 0.961 . S
C1656 C1657 1.370 . S
C1656 C1658 1.363 . S
C1656 H1672 0.931 . S
C1657 C1656 1.370 . S
C1657 C1661 1.408 . S
C1658 C1656 1.363 . S
C1658 C1659 1.370 . S
C1658 C1662 1.524 . S
C1659 C1651 1.503 . S
C1659 C1658 1.370 . S
C1659 C1660 1.403 . S
C1660 C1659 1.403 . S
C1660 C1661 1.404 . S
C1660 C1663 1.539 . S
C1661 C1657 1.408 . S
C1661 C1660 1.404 . S
C1661 H1673 0.930 . S
C1662 C1658 1.524 . S
C1662 H1674 0.956 . S
C1662 H1675 0.961 . S
C1662 H1676 0.961 . S
C1663 C1660 1.539 . S
C1663 H1677 0.958 . S
C1663 H1678 0.961 . S
C1663 H1679 0.960 . S
H1664 C1648 0.931 . S
H1665 C1653 0.929 . S
H1666 C1654 0.960 . S
H1667 C1654 0.962 . S
H1668 C1654 0.960 . S
H1669 C1655 0.961 . S
H1670 C1655 0.961 . S
H1671 C1655 0.961 . S
H1672 C1656 0.931 . S
H1673 C1661 0.930 . S
H1674 C1662 0.956 . S
H1675 C1662 0.961 . S
H1676 C1662 0.961 . S
H1677 C1663 0.958 . S
H1678 C1663 0.961 . S
H1679 C1663 0.960 . S
C1680 C1681 1.391 . S
C1680 C1682 1.394 . S
C1680 H1696 0.931 . S
C1681 C1680 1.391 . S
C1681 C1685 1.376 . S
C1682 C1680 1.394 . S
C1682 C1683 1.369 . S
C1682 C1686 1.531 . S
C1683 C1682 1.369 . S
C1683 C1684 1.410 . S
C1683 C1691 1.503 . S
C1684 C1683 1.410 . S
C1684 C1685 1.392 . S
C1684 C1687 1.511 . S
C1685 C1681 1.376 . S
C1685 C1684 1.392 . S
C1685 H1697 0.929 . S
C1686 C1682 1.531 . S
C1686 H1698 0.960 . S
C1686 H1699 0.962 1_455 S
C1686 H1700 0.960 1_455 S
C1687 C1684 1.511 . S
C1687 H1701 0.961 . S
C1687 H1702 0.961 . S
C1687 H1703 0.961 . S
C1688 C1689 1.370 . S
C1688 C1690 1.363 . S
C1688 H1704 0.931 . S
C1689 C1688 1.370 . S
C1689 C1693 1.408 . S
C1690 C1688 1.363 . S
C1690 C1691 1.370 . S
C1690 C1694 1.524 . S
C1691 C1683 1.503 . S
C1691 C1690 1.370 . S
C1691 C1692 1.403 . S
C1692 C1691 1.403 . S
C1692 C1693 1.404 . S
C1692 C1695 1.539 . S
C1693 C1689 1.408 . S
C1693 C1692 1.404 . S
C1693 H1705 0.930 . S
C1694 C1690 1.524 . S
C1694 H1706 0.956 . S
C1694 H1707 0.961 . S
C1694 H1708 0.961 . S
C1695 C1692 1.539 . S
C1695 H1709 0.958 . S
C1695 H1710 0.961 . S
C1695 H1711 0.960 . S
H1696 C1680 0.931 . S
H1697 C1685 0.929 . S
H1698 C1686 0.960 . S
H1699 C1686 0.962 1_655 S
H1700 C1686 0.960 1_655 S
H1701 C1687 0.961 . S
H1702 C1687 0.961 . S
H1703 C1687 0.961 . S
H1704 C1688 0.931 . S
H1705 C1693 0.930 . S
H1706 C1694 0.956 . S
H1707 C1694 0.961 . S
H1708 C1694 0.961 . S
H1709 C1695 0.958 . S
H1710 C1695 0.961 . S
H1711 C1695 0.960 . S
C1712 C1713 1.391 . S
C1712 C1714 1.394 . S
C1712 H1728 0.931 . S
C1713 C1712 1.391 . S
C1713 C1717 1.376 . S
C1714 C1712 1.394 . S
C1714 C1715 1.369 . S
C1714 C1718 1.531 . S
C1715 C1714 1.369 . S
C1715 C1716 1.410 . S
C1715 C1723 1.503 . S
C1716 C1715 1.410 . S
C1716 C1717 1.392 . S
C1716 C1719 1.511 . S
C1717 C1713 1.376 . S
C1717 C1716 1.392 . S
C1717 H1729 0.929 . S
C1718 C1714 1.531 . S
C1718 H1730 0.960 . S
C1718 H1731 0.962 . S
C1718 H1732 0.960 . S
C1719 C1716 1.511 . S
C1719 H1733 0.961 . S
C1719 H1734 0.961 . S
C1719 H1735 0.961 . S
C1720 C1721 1.370 . S
C1720 C1722 1.363 . S
C1720 H1736 0.931 . S
C1721 C1720 1.370 . S
C1721 C1725 1.408 . S
C1722 C1720 1.363 . S
C1722 C1723 1.370 . S
C1722 C1726 1.524 . S
C1723 C1715 1.503 . S
C1723 C1722 1.370 . S
C1723 C1724 1.403 . S
C1724 C1723 1.403 . S
C1724 C1725 1.404 . S
C1724 C1727 1.539 . S
C1725 C1721 1.408 . S
C1725 C1724 1.404 . S
C1725 H1737 0.930 . S
C1726 C1722 1.524 . S
C1726 H1738 0.956 . S
C1726 H1739 0.961 . S
C1726 H1740 0.961 . S
C1727 C1724 1.539 . S
C1727 H1741 0.958 . S
C1727 H1742 0.961 . S
C1727 H1743 0.960 . S
H1728 C1712 0.931 . S
H1729 C1717 0.929 . S
H1730 C1718 0.960 . S
H1731 C1718 0.962 . S
H1732 C1718 0.960 . S
H1733 C1719 0.961 . S
H1734 C1719 0.961 . S
H1735 C1719 0.961 . S
H1736 C1720 0.931 . S
H1737 C1725 0.930 . S
H1738 C1726 0.956 . S
H1739 C1726 0.961 . S
H1740 C1726 0.961 . S
H1741 C1727 0.958 . S
H1742 C1727 0.961 . S
H1743 C1727 0.960 . S
C1744 C1745 1.391 1_455 S
C1744 C1746 1.394 . S
C1744 H1760 0.931 . S
C1745 C1744 1.391 1_655 S
C1745 C1749 1.376 . S
C1746 C1744 1.394 . S
C1746 C1747 1.369 1_455 S
C1746 C1750 1.531 . S
C1747 C1746 1.369 1_655 S
C1747 C1748 1.410 . S
C1747 C1755 1.503 . S
C1748 C1747 1.410 . S
C1748 C1749 1.392 . S
C1748 C1751 1.511 . S
C1749 C1745 1.376 . S
C1749 C1748 1.392 . S
C1749 H1761 0.929 . S
C1750 C1746 1.531 . S
C1750 H1762 0.960 . S
C1750 H1763 0.962 . S
C1750 H1764 0.960 . S
C1751 C1748 1.511 . S
C1751 H1765 0.961 . S
C1751 H1766 0.961 . S
C1751 H1767 0.961 . S
C1752 C1753 1.370 1_455 S
C1752 C1754 1.363 . S
C1752 H1768 0.931 . S
C1753 C1752 1.370 1_655 S
C1753 C1757 1.408 . S
C1754 C1752 1.363 . S
C1754 C1755 1.356 1_455 S
C1754 C1758 1.539 . S
C1755 C1747 1.503 . S
C1755 C1754 1.356 1_655 S
C1755 C1756 1.403 . S
C1756 C1755 1.403 . S
C1756 C1757 1.404 . S
C1756 C1759 1.539 . S
C1757 C1753 1.408 . S
C1757 C1756 1.404 . S
C1757 H1769 0.930 . S
C1758 C1754 1.539 . S
C1758 H1770 0.956 . S
C1758 H1771 0.961 1_455 S
C1758 H1772 0.961 . S
C1759 C1756 1.539 . S
C1759 H1773 0.958 . S
C1759 H1774 0.961 . S
C1759 H1775 0.960 . S
H1760 C1744 0.931 . S
H1761 C1749 0.929 . S
H1762 C1750 0.960 . S
H1763 C1750 0.962 . S
H1764 C1750 0.960 . S
H1765 C1751 0.961 . S
H1766 C1751 0.961 . S
H1767 C1751 0.961 . S
H1768 C1752 0.931 . S
H1769 C1757 0.930 . S
H1770 C1758 0.956 . S
H1771 C1758 0.961 1_655 S
H1772 C1758 0.961 . S
H1773 C1759 0.958 . S
H1774 C1759 0.961 . S
H1775 C1759 0.960 . S
C1776 C1777 1.391 . S
C1776 C1778 1.394 . S
C1776 H1792 0.931 . S
C1777 C1776 1.391 . S
C1777 C1781 1.376 . S
C1778 C1776 1.394 . S
C1778 C1779 1.369 . S
C1778 C1782 1.531 . S
C1779 C1778 1.369 . S
C1779 C1780 1.410 . S
C1779 C1787 1.503 . S
C1780 C1779 1.410 . S
C1780 C1781 1.392 . S
C1780 C1783 1.511 . S
C1781 C1777 1.376 . S
C1781 C1780 1.392 . S
C1781 H1793 0.929 . S
C1782 C1778 1.531 . S
C1782 H1794 0.960 . S
C1782 H1795 0.962 . S
C1782 H1796 0.960 . S
C1783 C1780 1.511 . S
C1783 H1797 0.961 . S
C1783 H1798 0.961 . S
C1783 H1799 0.961 . S
C1784 C1785 1.370 . S
C1784 C1786 1.363 . S
C1784 H1800 0.931 . S
C1785 C1784 1.370 . S
C1785 C1789 1.408 . S
C1786 C1784 1.363 . S
C1786 C1787 1.370 . S
C1786 C1790 1.524 . S
C1787 C1779 1.503 . S
C1787 C1786 1.370 . S
C1787 C1788 1.403 . S
C1788 C1787 1.403 . S
C1788 C1789 1.404 . S
C1788 C1791 1.539 . S
C1789 C1785 1.408 . S
C1789 C1788 1.404 . S
C1789 H1801 0.930 . S
C1790 C1786 1.524 . S
C1790 H1802 0.956 . S
C1790 H1803 0.961 . S
C1790 H1804 0.961 . S
C1791 C1788 1.539 . S
C1791 H1805 0.958 . S
C1791 H1806 0.961 . S
C1791 H1807 0.960 . S
H1792 C1776 0.931 . S
H1793 C1781 0.929 . S
H1794 C1782 0.960 . S
H1795 C1782 0.962 . S
H1796 C1782 0.960 . S
H1797 C1783 0.961 . S
H1798 C1783 0.961 . S
H1799 C1783 0.961 . S
H1800 C1784 0.931 . S
H1801 C1789 0.930 . S
H1802 C1790 0.956 . S
H1803 C1790 0.961 . S
H1804 C1790 0.961 . S
H1805 C1791 0.958 . S
H1806 C1791 0.961 . S
H1807 C1791 0.960 . S
C1808 C1809 1.391 . S
C1808 C1810 1.394 . S
C1808 H1824 0.931 . S
C1809 C1808 1.391 . S
C1809 C1813 1.376 . S
C1810 C1808 1.394 . S
C1810 C1811 1.369 . S
C1810 C1814 1.531 . S
C1811 C1810 1.369 . S
C1811 C1812 1.410 . S
C1811 C1819 1.503 . S
C1812 C1811 1.410 . S
C1812 C1813 1.392 . S
C1812 C1815 1.511 . S
C1813 C1809 1.376 . S
C1813 C1812 1.392 . S
C1813 H1825 0.929 . S
C1814 C1810 1.531 . S
C1814 H1826 0.960 . S
C1814 H1827 0.962 . S
C1814 H1828 0.960 . S
C1815 C1812 1.511 . S
C1815 H1829 0.961 . S
C1815 H1830 0.961 . S
C1815 H1831 0.961 . S
C1816 C1817 1.370 . S
C1816 C1818 1.363 . S
C1816 H1832 0.931 . S
C1817 C1816 1.370 . S
C1817 C1821 1.408 . S
C1818 C1816 1.363 . S
C1818 C1819 1.370 . S
C1818 C1822 1.524 . S
C1819 C1811 1.503 . S
C1819 C1818 1.370 . S
C1819 C1820 1.403 . S
C1820 C1819 1.403 . S
C1820 C1821 1.404 . S
C1820 C1823 1.539 . S
C1821 C1817 1.408 . S
C1821 C1820 1.404 . S
C1821 H1833 0.930 . S
C1822 C1818 1.524 . S
C1822 H1834 0.956 . S
C1822 H1835 0.961 . S
C1822 H1836 0.961 . S
C1823 C1820 1.539 . S
C1823 H1837 0.958 . S
C1823 H1838 0.961 . S
C1823 H1839 0.960 . S
H1824 C1808 0.931 . S
H1825 C1813 0.929 . S
H1826 C1814 0.960 . S
H1827 C1814 0.962 . S
H1828 C1814 0.960 . S
H1829 C1815 0.961 . S
H1830 C1815 0.961 . S
H1831 C1815 0.961 . S
H1832 C1816 0.931 . S
H1833 C1821 0.930 . S
H1834 C1822 0.956 . S
H1835 C1822 0.961 . S
H1836 C1822 0.961 . S
H1837 C1823 0.958 . S
H1838 C1823 0.961 . S
H1839 C1823 0.960 . S
C1840 C1841 1.391 . S
C1840 C1842 1.394 1_545 S
C1840 H1856 0.931 1_545 S
C1841 C1840 1.391 . S
C1841 C1845 1.376 1_554 S
C1842 C1840 1.394 1_565 S
C1842 C1843 1.369 1_565 S
C1842 C1846 1.531 . S
C1843 C1842 1.369 1_545 S
C1843 C1844 1.406 1_554 S
C1843 C1851 1.502 1_544 S
C1844 C1843 1.406 1_556 S
C1844 C1845 1.394 . S
C1844 C1847 1.517 . S
C1845 C1841 1.376 1_556 S
C1845 C1844 1.394 . S
C1845 H1857 0.929 . S
C1846 C1842 1.531 . S
C1846 H1858 0.960 . S
C1846 H1859 0.962 1_554 S
C1846 H1860 0.960 . S
C1847 C1844 1.517 . S
C1847 H1861 0.961 . S
C1847 H1862 0.961 . S
C1847 H1863 0.961 1_556 S
C1848 C1849 1.370 . S
C1848 C1850 1.363 . S
C1848 H1864 0.931 . S
C1849 C1848 1.370 . S
C1849 C1853 1.408 1_556 S
C1850 C1848 1.363 . S
C1850 C1851 1.378 . S
C1850 C1854 1.524 . S
C1851 C1843 1.502 1_566 S
C1851 C1850 1.378 . S
C1851 C1852 1.396 1_556 S
C1852 C1851 1.396 1_554 S
C1852 C1853 1.404 . S
C1852 C1855 1.539 . S
C1853 C1849 1.408 1_554 S
C1853 C1852 1.404 . S
C1853 H1865 0.930 . S
C1854 C1850 1.524 . S
C1854 H1866 0.956 . S
C1854 H1867 0.961 1_565 S
C1854 H1868 0.961 . S
C1855 C1852 1.539 . S
C1855 H1869 0.958 . S
C1855 H1870 0.975 . S
C1855 H1871 0.960 1_565 S
H1856 C1840 0.931 1_565 S
H1857 C1845 0.929 . S
H1858 C1846 0.960 . S
H1859 C1846 0.962 1_556 S
H1860 C1846 0.960 . S
H1861 C1847 0.961 . S
H1862 C1847 0.961 . S
H1863 C1847 0.961 1_554 S
H1864 C1848 0.931 . S
H1865 C1853 0.930 . S
H1866 C1854 0.956 . S
H1867 C1854 0.961 1_545 S
H1868 C1854 0.961 . S
H1869 C1855 0.958 . S
H1870 C1855 0.975 . S
H1871 C1855 0.960 1_545 S
C1872 C1873 1.391 . S
C1872 C1874 1.394 . S
C1872 H1888 0.931 . S
C1873 C1872 1.391 . S
C1873 C1877 1.376 . S
C1874 C1872 1.394 . S
C1874 C1875 1.369 . S
C1874 C1878 1.531 . S
C1875 C1874 1.369 . S
C1875 C1876 1.410 . S
C1875 C1883 1.503 . S
C1876 C1875 1.410 . S
C1876 C1877 1.392 . S
C1876 C1879 1.511 . S
C1877 C1873 1.376 . S
C1877 C1876 1.392 . S
C1877 H1889 0.929 . S
C1878 C1874 1.531 . S
C1878 H1890 0.960 . S
C1878 H1891 0.962 . S
C1878 H1892 0.960 . S
C1879 C1876 1.511 . S
C1879 H1893 0.961 . S
C1879 H1894 0.961 . S
C1879 H1895 0.961 . S
C1880 C1881 1.370 . S
C1880 C1882 1.363 . S
C1880 H1896 0.931 . S
C1881 C1880 1.370 . S
C1881 C1885 1.408 . S
C1882 C1880 1.363 . S
C1882 C1883 1.370 . S
C1882 C1886 1.524 . S
C1883 C1875 1.503 . S
C1883 C1882 1.370 . S
C1883 C1884 1.403 . S
C1884 C1883 1.403 . S
C1884 C1885 1.404 . S
C1884 C1887 1.539 . S
C1885 C1881 1.408 . S
C1885 C1884 1.404 . S
C1885 H1897 0.930 . S
C1886 C1882 1.524 . S
C1886 H1898 0.956 . S
C1886 H1899 0.961 . S
C1886 H1900 0.961 . S
C1887 C1884 1.539 . S
C1887 H1901 0.958 . S
C1887 H1902 0.961 . S
C1887 H1903 0.960 . S
H1888 C1872 0.931 . S
H1889 C1877 0.929 . S
H1890 C1878 0.960 . S
H1891 C1878 0.962 . S
H1892 C1878 0.960 . S
H1893 C1879 0.961 . S
H1894 C1879 0.961 . S
H1895 C1879 0.961 . S
H1896 C1880 0.931 . S
H1897 C1885 0.930 . S
H1898 C1886 0.956 . S
H1899 C1886 0.961 . S
H1900 C1886 0.961 . S
H1901 C1887 0.958 . S
H1902 C1887 0.961 . S
H1903 C1887 0.960 . S
C1904 C1905 1.391 1_565 S
C1904 C1906 1.394 1_565 S
C1904 H1920 0.931 . S
C1905 C1904 1.391 1_545 S
C1905 C1909 1.376 . S
C1906 C1904 1.394 1_545 S
C1906 C1907 1.369 . S
C1906 C1910 1.531 1_545 S
C1907 C1906 1.369 . S
C1907 C1908 1.410 . S
C1907 C1915 1.503 . S
C1908 C1907 1.410 . S
C1908 C1909 1.392 . S
C1908 C1911 1.511 . S
C1909 C1905 1.376 . S
C1909 C1908 1.392 . S
C1909 H1921 0.929 . S
C1910 C1906 1.531 1_565 S
C1910 H1922 0.960 . S
C1910 H1923 0.962 . S
C1910 H1924 0.960 . S
C1911 C1908 1.511 . S
C1911 H1925 0.961 . S
C1911 H1926 0.961 . S
C1911 H1927 0.961 . S
C1912 C1913 1.370 . S
C1912 C1914 1.363 . S
C1912 H1928 0.931 . S
C1913 C1912 1.370 . S
C1913 C1917 1.408 . S
C1914 C1912 1.363 . S
C1914 C1915 1.370 . S
C1914 C1918 1.524 . S
C1915 C1907 1.503 . S
C1915 C1914 1.370 . S
C1915 C1916 1.403 . S
C1916 C1915 1.403 . S
C1916 C1917 1.404 . S
C1916 C1919 1.539 . S
C1917 C1913 1.408 . S
C1917 C1916 1.404 . S
C1917 H1929 0.930 . S
C1918 C1914 1.524 . S
C1918 H1930 0.956 . S
C1918 H1931 0.961 . S
C1918 H1932 0.961 . S
C1919 C1916 1.539 . S
C1919 H1933 0.958 . S
C1919 H1934 0.961 . S
C1919 H1935 0.960 . S
H1920 C1904 0.931 . S
H1921 C1909 0.929 . S
H1922 C1910 0.960 . S
H1923 C1910 0.962 . S
H1924 C1910 0.960 . S
H1925 C1911 0.961 . S
H1926 C1911 0.961 . S
H1927 C1911 0.961 . S
H1928 C1912 0.931 . S
H1929 C1917 0.930 . S
H1930 C1918 0.956 . S
H1931 C1918 0.961 . S
H1932 C1918 0.961 . S
H1933 C1919 0.958 . S
H1934 C1919 0.961 . S
H1935 C1919 0.960 . S
C1936 C1937 1.391 . S
C1936 C1938 1.394 . S
C1936 H1952 0.931 . S
C1937 C1936 1.391 . S
C1937 C1941 1.376 . S
C1938 C1936 1.394 . S
C1938 C1939 1.369 . S
C1938 C1942 1.531 . S
C1939 C1938 1.369 . S
C1939 C1940 1.410 . S
C1939 C1947 1.503 . S
C1940 C1939 1.410 . S
C1940 C1941 1.392 . S
C1940 C1943 1.511 . S
C1941 C1937 1.376 . S
C1941 C1940 1.392 . S
C1941 H1953 0.929 . S
C1942 C1938 1.531 . S
C1942 H1954 0.960 . S
C1942 H1955 0.962 . S
C1942 H1956 0.960 . S
C1943 C1940 1.511 . S
C1943 H1957 0.961 . S
C1943 H1958 0.961 . S
C1943 H1959 0.961 . S
C1944 C1945 1.370 . S
C1944 C1946 1.363 . S
C1944 H1960 0.931 . S
C1945 C1944 1.370 . S
C1945 C1949 1.408 . S
C1946 C1944 1.363 . S
C1946 C1947 1.370 . S
C1946 C1950 1.524 . S
C1947 C1939 1.503 . S
C1947 C1946 1.370 . S
C1947 C1948 1.403 . S
C1948 C1947 1.403 . S
C1948 C1949 1.404 . S
C1948 C1951 1.539 . S
C1949 C1945 1.408 . S
C1949 C1948 1.404 . S
C1949 H1961 0.930 . S
C1950 C1946 1.524 . S
C1950 H1962 0.956 . S
C1950 H1963 0.961 . S
C1950 H1964 0.961 . S
C1951 C1948 1.539 . S
C1951 H1965 0.958 . S
C1951 H1966 0.961 . S
C1951 H1967 0.960 . S
H1952 C1936 0.931 . S
H1953 C1941 0.929 . S
H1954 C1942 0.960 . S
H1955 C1942 0.962 . S
H1956 C1942 0.960 . S
H1957 C1943 0.961 . S
H1958 C1943 0.961 . S
H1959 C1943 0.961 . S
H1960 C1944 0.931 . S
H1961 C1949 0.930 . S
H1962 C1950 0.956 . S
H1963 C1950 0.961 . S
H1964 C1950 0.961 . S
H1965 C1951 0.958 . S
H1966 C1951 0.961 . S
H1967 C1951 0.960 . S
C1968 C1969 1.391 . S
C1968 C1970 1.394 1_565 S
C1968 H1984 0.931 . S
C1969 C1968 1.391 . S
C1969 C1973 1.376 1_565 S
C1970 C1968 1.394 1_545 S
C1970 C1971 1.369 . S
C1970 C1974 1.531 . S
C1971 C1970 1.369 . S
C1971 C1972 1.410 . S
C1971 C1979 1.503 . S
C1972 C1971 1.410 . S
C1972 C1973 1.392 . S
C1972 C1975 1.511 . S
C1973 C1969 1.376 1_545 S
C1973 C1972 1.392 . S
C1973 H1985 0.929 . S
C1974 C1970 1.531 . S
C1974 H1986 0.960 . S
C1974 H1987 0.962 1_545 S
C1974 H1988 0.960 . S
C1975 C1972 1.511 . S
C1975 H1989 0.961 . S
C1975 H1990 0.961 . S
C1975 H1991 0.961 . S
C1976 C1977 1.370 . S
C1976 C1978 1.363 . S
C1976 H1992 0.931 . S
C1977 C1976 1.370 . S
C1977 C1981 1.408 . S
C1978 C1976 1.363 . S
C1978 C1979 1.370 . S
C1978 C1982 1.516 1_545 S
C1979 C1971 1.503 . S
C1979 C1978 1.370 . S
C1979 C1980 1.403 . S
C1980 C1979 1.403 . S
C1980 C1981 1.404 . S
C1980 C1983 1.539 . S
C1981 C1977 1.408 . S
C1981 C1980 1.404 . S
C1981 H1993 0.930 . S
C1982 C1978 1.516 1_565 S
C1982 H1994 0.961 . S
C1982 H1995 0.963 . S
C1982 H1996 0.962 . S
C1983 C1980 1.539 . S
C1983 H1997 0.958 . S
C1983 H1998 0.961 . S
C1983 H1999 0.960 . S
H1984 C1968 0.931 . S
H1985 C1973 0.929 . S
H1986 C1974 0.960 . S
H1987 C1974 0.962 1_565 S
H1988 C1974 0.960 . S
H1989 C1975 0.961 . S
H1990 C1975 0.961 . S
H1991 C1975 0.961 . S
H1992 C1976 0.931 . S
H1993 C1981 0.930 . S
H1994 C1982 0.961 . S
H1995 C1982 0.963 . S
H1996 C1982 0.962 . S
H1997 C1983 0.958 . S
H1998 C1983 0.961 . S
H1999 C1983 0.960 . S
C2000 C2001 1.391 . S
C2000 C2002 1.394 . S
C2000 H2016 0.931 . S
C2001 C2000 1.391 . S
C2001 C2005 1.376 . S
C2002 C2000 1.394 . S
C2002 C2003 1.369 . S
C2002 C2006 1.531 . S
C2003 C2002 1.369 . S
C2003 C2004 1.410 . S
C2003 C2011 1.503 . S
C2004 C2003 1.410 . S
C2004 C2005 1.392 . S
C2004 C2007 1.511 . S
C2005 C2001 1.376 . S
C2005 C2004 1.392 . S
C2005 H2017 0.929 . S
C2006 C2002 1.531 . S
C2006 H2018 0.960 . S
C2006 H2019 0.962 . S
C2006 H2020 0.960 . S
C2007 C2004 1.511 . S
C2007 H2021 0.961 . S
C2007 H2022 0.961 . S
C2007 H2023 0.961 . S
C2008 C2009 1.370 . S
C2008 C2010 1.363 . S
C2008 H2024 0.931 . S
C2009 C2008 1.370 . S
C2009 C2013 1.408 . S
C2010 C2008 1.363 . S
C2010 C2011 1.370 . S
C2010 C2014 1.524 . S
C2011 C2003 1.503 . S
C2011 C2010 1.370 . S
C2011 C2012 1.403 . S
C2012 C2011 1.403 . S
C2012 C2013 1.404 . S
C2012 C2015 1.539 . S
C2013 C2009 1.408 . S
C2013 C2012 1.404 . S
C2013 H2025 0.930 . S
C2014 C2010 1.524 . S
C2014 H2026 0.956 . S
C2014 H2027 0.961 . S
C2014 H2028 0.961 . S
C2015 C2012 1.539 . S
C2015 H2029 0.958 . S
C2015 H2030 0.961 . S
C2015 H2031 0.960 . S
H2016 C2000 0.931 . S
H2017 C2005 0.929 . S
H2018 C2006 0.960 . S
H2019 C2006 0.962 . S
H2020 C2006 0.960 . S
H2021 C2007 0.961 . S
H2022 C2007 0.961 . S
H2023 C2007 0.961 . S
H2024 C2008 0.931 . S
H2025 C2013 0.930 . S
H2026 C2014 0.956 . S
H2027 C2014 0.961 . S
H2028 C2014 0.961 . S
H2029 C2015 0.958 . S
H2030 C2015 0.961 . S
H2031 C2015 0.960 . S
C2032 C2033 1.391 . S
C2032 C2034 1.394 . S
C2032 H2048 0.931 . S
C2033 C2032 1.391 . S
C2033 C2037 1.376 . S
C2034 C2032 1.394 . S
C2034 C2035 1.369 . S
C2034 C2038 1.531 . S
C2035 C2034 1.369 . S
C2035 C2036 1.410 . S
C2035 C2043 1.503 . S
C2036 C2035 1.410 . S
C2036 C2037 1.392 . S
C2036 C2039 1.511 . S
C2037 C2033 1.376 . S
C2037 C2036 1.392 . S
C2037 H2049 0.929 . S
C2038 C2034 1.531 . S
C2038 H2050 0.960 . S
C2038 H2051 0.962 . S
C2038 H2052 0.960 . S
C2039 C2036 1.511 . S
C2039 H2053 0.961 . S
C2039 H2054 0.961 . S
C2039 H2055 0.961 . S
C2040 C2041 1.370 . S
C2040 C2042 1.363 . S
C2040 H2056 0.931 . S
C2041 C2040 1.370 . S
C2041 C2045 1.408 . S
C2042 C2040 1.363 . S
C2042 C2043 1.370 . S
C2042 C2046 1.524 . S
C2043 C2035 1.503 . S
C2043 C2042 1.370 . S
C2043 C2044 1.403 . S
C2044 C2043 1.403 . S
C2044 C2045 1.404 . S
C2044 C2047 1.539 . S
C2045 C2041 1.408 . S
C2045 C2044 1.404 . S
C2045 H2057 0.930 . S
C2046 C2042 1.524 . S
C2046 H2058 0.956 . S
C2046 H2059 0.961 . S
C2046 H2060 0.961 . S
C2047 C2044 1.539 . S
C2047 H2061 0.958 . S
C2047 H2062 0.961 . S
C2047 H2063 0.960 . S
H2048 C2032 0.931 . S
H2049 C2037 0.929 . S
H2050 C2038 0.960 . S
H2051 C2038 0.962 . S
H2052 C2038 0.960 . S
H2053 C2039 0.961 . S
H2054 C2039 0.961 . S
H2055 C2039 0.961 . S
H2056 C2040 0.931 . S
H2057 C2045 0.930 . S
H2058 C2046 0.956 . S
H2059 C2046 0.961 . S
H2060 C2046 0.961 . S
H2061 C2047 0.958 . S
H2062 C2047 0.961 . S
H2063 C2047 0.960 . S
C2064 C2065 1.391 . S
C2064 C2066 1.394 . S
C2064 H2080 0.931 . S
C2065 C2064 1.391 . S
C2065 C2069 1.376 . S
C2066 C2064 1.394 . S
C2066 C2067 1.369 . S
C2066 C2070 1.531 1_545 S
C2067 C2066 1.369 . S
C2067 C2068 1.410 . S
C2067 C2075 1.503 . S
C2068 C2067 1.410 . S
C2068 C2069 1.392 . S
C2068 C2071 1.511 . S
C2069 C2065 1.376 . S
C2069 C2068 1.392 . S
C2069 H2081 0.929 . S
C2070 C2066 1.531 1_565 S
C2070 H2082 0.960 . S
C2070 H2083 0.962 1_565 S
C2070 H2084 0.960 . S
C2071 C2068 1.511 . S
C2071 H2085 0.961 . S
C2071 H2086 0.961 . S
C2071 H2087 0.961 . S
C2072 C2073 1.370 . S
C2072 C2074 1.363 . S
C2072 H2088 0.931 . S
C2073 C2072 1.370 . S
C2073 C2077 1.408 1_545 S
C2074 C2072 1.363 . S
C2074 C2075 1.370 . S
C2074 C2078 1.524 . S
C2075 C2067 1.503 . S
C2075 C2074 1.370 . S
C2075 C2076 1.402 . S
C2076 C2075 1.402 . S
C2076 C2077 1.404 1_545 S
C2076 C2079 1.540 1_545 S
C2077 C2073 1.408 1_565 S
C2077 C2076 1.404 1_565 S
C2077 H2089 0.930 . S
C2078 C2074 1.524 . S
C2078 H2090 0.956 . S
C2078 H2091 0.961 . S
C2078 H2092 0.961 . S
C2079 C2076 1.540 1_565 S
C2079 H2093 0.958 . S
C2079 H2094 0.961 . S
C2079 H2095 0.960 . S
H2080 C2064 0.931 . S
H2081 C2069 0.929 . S
H2082 C2070 0.960 . S
H2083 C2070 0.962 1_545 S
H2084 C2070 0.960 . S
H2085 C2071 0.961 . S
H2086 C2071 0.961 . S
H2087 C2071 0.961 . S
H2088 C2072 0.931 . S
H2089 C2077 0.930 . S
H2090 C2078 0.956 . S
H2091 C2078 0.961 . S
H2092 C2078 0.961 . S
H2093 C2079 0.958 . S
H2094 C2079 0.961 . S
H2095 C2079 0.960 . S
C2096 C2097 1.391 . S
C2096 C2098 1.394 . S
C2096 H2112 0.931 . S
C2097 C2096 1.391 . S
C2097 C2101 1.376 . S
C2098 C2096 1.394 . S
C2098 C2099 1.369 . S
C2098 C2102 1.531 . S
C2099 C2098 1.369 . S
C2099 C2100 1.410 . S
C2099 C2107 1.503 . S
C2100 C2099 1.410 . S
C2100 C2101 1.392 . S
C2100 C2103 1.511 . S
C2101 C2097 1.376 . S
C2101 C2100 1.392 . S
C2101 H2113 0.929 . S
C2102 C2098 1.531 . S
C2102 H2114 0.960 . S
C2102 H2115 0.962 . S
C2102 H2116 0.960 . S
C2103 C2100 1.511 . S
C2103 H2117 0.961 . S
C2103 H2118 0.961 . S
C2103 H2119 0.961 . S
C2104 C2105 1.370 . S
C2104 C2106 1.363 . S
C2104 H2120 0.931 . S
C2105 C2104 1.370 . S
C2105 C2109 1.408 . S
C2106 C2104 1.363 . S
C2106 C2107 1.370 . S
C2106 C2110 1.524 . S
C2107 C2099 1.503 . S
C2107 C2106 1.370 . S
C2107 C2108 1.403 . S
C2108 C2107 1.403 . S
C2108 C2109 1.404 . S
C2108 C2111 1.539 . S
C2109 C2105 1.408 . S
C2109 C2108 1.404 . S
C2109 H2121 0.930 . S
C2110 C2106 1.524 . S
C2110 H2122 0.956 . S
C2110 H2123 0.961 . S
C2110 H2124 0.961 . S
C2111 C2108 1.539 . S
C2111 H2125 0.958 . S
C2111 H2126 0.961 . S
C2111 H2127 0.960 . S
H2112 C2096 0.931 . S
H2113 C2101 0.929 . S
H2114 C2102 0.960 . S
H2115 C2102 0.962 . S
H2116 C2102 0.960 . S
H2117 C2103 0.961 . S
H2118 C2103 0.961 . S
H2119 C2103 0.961 . S
H2120 C2104 0.931 . S
H2121 C2109 0.930 . S
H2122 C2110 0.956 . S
H2123 C2110 0.961 . S
H2124 C2110 0.961 . S
H2125 C2111 0.958 . S
H2126 C2111 0.961 . S
H2127 C2111 0.960 . S
C2128 C2129 1.391 . S
C2128 C2130 1.394 . S
C2128 H2144 0.931 . S
C2129 C2128 1.391 . S
C2129 C2133 1.376 . S
C2130 C2128 1.394 . S
C2130 C2131 1.369 . S
C2130 C2134 1.531 . S
C2131 C2130 1.369 . S
C2131 C2132 1.410 . S
C2131 C2139 1.503 . S
C2132 C2131 1.410 . S
C2132 C2133 1.392 . S
C2132 C2135 1.511 . S
C2133 C2129 1.376 . S
C2133 C2132 1.392 . S
C2133 H2145 0.929 . S
C2134 C2130 1.531 . S
C2134 H2146 0.960 . S
C2134 H2147 0.962 . S
C2134 H2148 0.960 . S
C2135 C2132 1.511 . S
C2135 H2149 0.961 . S
C2135 H2150 0.961 . S
C2135 H2151 0.961 . S
C2136 C2137 1.370 . S
C2136 C2138 1.363 . S
C2136 H2152 0.931 . S
C2137 C2136 1.370 . S
C2137 C2141 1.408 . S
C2138 C2136 1.363 . S
C2138 C2139 1.370 . S
C2138 C2142 1.524 . S
C2139 C2131 1.503 . S
C2139 C2138 1.370 . S
C2139 C2140 1.403 . S
C2140 C2139 1.403 . S
C2140 C2141 1.404 . S
C2140 C2143 1.539 . S
C2141 C2137 1.408 . S
C2141 C2140 1.404 . S
C2141 H2153 0.930 . S
C2142 C2138 1.524 . S
C2142 H2154 0.956 . S
C2142 H2155 0.961 . S
C2142 H2156 0.961 . S
C2143 C2140 1.539 . S
C2143 H2157 0.958 . S
C2143 H2158 0.961 . S
C2143 H2159 0.960 . S
H2144 C2128 0.931 . S
H2145 C2133 0.929 . S
H2146 C2134 0.960 . S
H2147 C2134 0.962 . S
H2148 C2134 0.960 . S
H2149 C2135 0.961 . S
H2150 C2135 0.961 . S
H2151 C2135 0.961 . S
H2152 C2136 0.931 . S
H2153 C2141 0.930 . S
H2154 C2142 0.956 . S
H2155 C2142 0.961 . S
H2156 C2142 0.961 . S
H2157 C2143 0.958 . S
H2158 C2143 0.961 . S
H2159 C2143 0.960 . S
C2160 C2161 1.391 . S
C2160 C2162 1.394 . S
C2160 H2176 0.931 . S
C2161 C2160 1.391 . S
C2161 C2165 1.376 . S
C2162 C2160 1.394 . S
C2162 C2163 1.369 . S
C2162 C2166 1.531 . S
C2163 C2162 1.369 . S
C2163 C2164 1.410 . S
C2163 C2171 1.503 . S
C2164 C2163 1.410 . S
C2164 C2165 1.392 . S
C2164 C2167 1.511 . S
C2165 C2161 1.376 . S
C2165 C2164 1.392 . S
C2165 H2177 0.929 . S
C2166 C2162 1.531 . S
C2166 H2178 0.960 . S
C2166 H2179 0.962 . S
C2166 H2180 0.960 . S
C2167 C2164 1.511 . S
C2167 H2181 0.961 . S
C2167 H2182 0.961 . S
C2167 H2183 0.961 . S
C2168 C2169 1.370 . S
C2168 C2170 1.363 . S
C2168 H2184 0.931 . S
C2169 C2168 1.370 . S
C2169 C2173 1.408 . S
C2170 C2168 1.363 . S
C2170 C2171 1.370 . S
C2170 C2174 1.524 . S
C2171 C2163 1.503 . S
C2171 C2170 1.370 . S
C2171 C2172 1.403 . S
C2172 C2171 1.403 . S
C2172 C2173 1.404 . S
C2172 C2175 1.539 . S
C2173 C2169 1.408 . S
C2173 C2172 1.404 . S
C2173 H2185 0.930 . S
C2174 C2170 1.524 . S
C2174 H2186 0.956 . S
C2174 H2187 0.961 . S
C2174 H2188 0.961 . S
C2175 C2172 1.539 . S
C2175 H2189 0.958 . S
C2175 H2190 0.961 . S
C2175 H2191 0.960 . S
H2176 C2160 0.931 . S
H2177 C2165 0.929 . S
H2178 C2166 0.960 . S
H2179 C2166 0.962 . S
H2180 C2166 0.960 . S
H2181 C2167 0.961 . S
H2182 C2167 0.961 . S
H2183 C2167 0.961 . S
H2184 C2168 0.931 . S
H2185 C2173 0.930 . S
H2186 C2174 0.956 . S
H2187 C2174 0.961 . S
H2188 C2174 0.961 . S
H2189 C2175 0.958 . S
H2190 C2175 0.961 . S
H2191 C2175 0.960 . S
C2192 C2193 1.391 . S
C2192 C2194 1.394 . S
C2192 H2208 0.931 . S
C2193 C2192 1.391 . S
C2193 C2197 1.376 1_655 S
C2194 C2192 1.394 . S
C2194 C2195 1.369 . S
C2194 C2198 1.536 . S
C2195 C2194 1.369 . S
C2195 C2196 1.410 . S
C2195 C2203 1.503 . S
C2196 C2195 1.410 . S
C2196 C2197 1.392 1_655 S
C2196 C2199 1.511 1_655 S
C2197 C2193 1.376 1_455 S
C2197 C2196 1.392 1_455 S
C2197 H2209 0.929 . S
C2198 C2194 1.536 . S
C2198 H2210 0.958 1_545 S
C2198 H2211 0.968 . S
C2198 H2212 0.951 1_545 S
C2199 C2196 1.511 1_455 S
C2199 H2213 0.961 . S
C2199 H2214 0.961 1_455 S
C2199 H2215 0.961 . S
C2200 C2201 1.370 . S
C2200 C2202 1.363 . S
C2200 H2216 0.931 . S
C2201 C2200 1.370 . S
C2201 C2205 1.408 . S
C2202 C2200 1.363 . S
C2202 C2203 1.370 . S
C2202 C2206 1.524 . S
C2203 C2195 1.503 . S
C2203 C2202 1.370 . S
C2203 C2204 1.403 . S
C2204 C2203 1.403 . S
C2204 C2205 1.404 . S
C2204 C2207 1.539 . S
C2205 C2201 1.408 . S
C2205 C2204 1.404 . S
C2205 H2217 0.930 . S
C2206 C2202 1.524 . S
C2206 H2218 0.956 . S
C2206 H2219 0.961 . S
C2206 H2220 0.961 . S
C2207 C2204 1.539 . S
C2207 H2221 0.958 1_545 S
C2207 H2222 0.961 . S
C2207 H2223 0.960 . S
H2208 C2192 0.931 . S
H2209 C2197 0.929 . S
H2210 C2198 0.958 1_565 S
H2211 C2198 0.968 . S
H2212 C2198 0.951 1_565 S
H2213 C2199 0.961 . S
H2214 C2199 0.961 1_655 S
H2215 C2199 0.961 . S
H2216 C2200 0.931 . S
H2217 C2205 0.930 . S
H2218 C2206 0.956 . S
H2219 C2206 0.961 . S
H2220 C2206 0.961 . S
H2221 C2207 0.958 1_565 S
H2222 C2207 0.961 . S
H2223 C2207 0.960 . S
C2224 C2225 1.391 . S
C2224 C2226 1.394 . S
C2224 H2240 0.931 . S
C2225 C2224 1.391 . S
C2225 C2229 1.376 . S
C2226 C2224 1.394 . S
C2226 C2227 1.369 . S
C2226 C2230 1.531 . S
C2227 C2226 1.369 . S
C2227 C2228 1.410 . S
C2227 C2235 1.503 . S
C2228 C2227 1.410 . S
C2228 C2229 1.392 . S
C2228 C2231 1.511 . S
C2229 C2225 1.376 . S
C2229 C2228 1.392 . S
C2229 H2241 0.929 . S
C2230 C2226 1.531 . S
C2230 H2242 0.960 . S
C2230 H2243 0.962 . S
C2230 H2244 0.960 . S
C2231 C2228 1.511 . S
C2231 H2245 0.961 . S
C2231 H2246 0.961 . S
C2231 H2247 0.961 . S
C2232 C2233 1.370 . S
C2232 C2234 1.363 . S
C2232 H2248 0.931 . S
C2233 C2232 1.370 . S
C2233 C2237 1.408 . S
C2234 C2232 1.363 . S
C2234 C2235 1.370 . S
C2234 C2238 1.524 . S
C2235 C2227 1.503 . S
C2235 C2234 1.370 . S
C2235 C2236 1.403 . S
C2236 C2235 1.403 . S
C2236 C2237 1.404 . S
C2236 C2239 1.539 . S
C2237 C2233 1.408 . S
C2237 C2236 1.404 . S
C2237 H2249 0.930 . S
C2238 C2234 1.524 . S
C2238 H2250 0.956 . S
C2238 H2251 0.961 . S
C2238 H2252 0.961 . S
C2239 C2236 1.539 . S
C2239 H2253 0.958 . S
C2239 H2254 0.961 . S
C2239 H2255 0.960 . S
H2240 C2224 0.931 . S
H2241 C2229 0.929 . S
H2242 C2230 0.960 . S
H2243 C2230 0.962 . S
H2244 C2230 0.960 . S
H2245 C2231 0.961 . S
H2246 C2231 0.961 . S
H2247 C2231 0.961 . S
H2248 C2232 0.931 . S
H2249 C2237 0.930 . S
H2250 C2238 0.956 . S
H2251 C2238 0.961 . S
H2252 C2238 0.961 . S
H2253 C2239 0.958 . S
H2254 C2239 0.961 . S
H2255 C2239 0.960 . S
C2256 C2257 1.391 . S
C2256 C2258 1.394 . S
C2256 H2272 0.931 . S
C2257 C2256 1.391 . S
C2257 C2261 1.376 . S
C2258 C2256 1.394 . S
C2258 C2259 1.369 . S
C2258 C2262 1.531 . S
C2259 C2258 1.369 . S
C2259 C2260 1.410 . S
C2259 C2267 1.503 . S
C2260 C2259 1.410 . S
C2260 C2261 1.392 . S
C2260 C2263 1.511 . S
C2261 C2257 1.376 . S
C2261 C2260 1.392 . S
C2261 H2273 0.929 . S
C2262 C2258 1.531 . S
C2262 H2274 0.960 . S
C2262 H2275 0.962 . S
C2262 H2276 0.960 . S
C2263 C2260 1.511 . S
C2263 H2277 0.961 . S
C2263 H2278 0.961 . S
C2263 H2279 0.961 . S
C2264 C2265 1.370 . S
C2264 C2266 1.363 . S
C2264 H2280 0.931 . S
C2265 C2264 1.370 . S
C2265 C2269 1.408 . S
C2266 C2264 1.363 . S
C2266 C2267 1.370 . S
C2266 C2270 1.524 . S
C2267 C2259 1.503 . S
C2267 C2266 1.370 . S
C2267 C2268 1.403 . S
C2268 C2267 1.403 . S
C2268 C2269 1.404 . S
C2268 C2271 1.539 . S
C2269 C2265 1.408 . S
C2269 C2268 1.404 . S
C2269 H2281 0.930 . S
C2270 C2266 1.524 . S
C2270 H2282 0.956 . S
C2270 H2283 0.961 . S
C2270 H2284 0.961 . S
C2271 C2268 1.539 . S
C2271 H2285 0.958 . S
C2271 H2286 0.961 . S
C2271 H2287 0.960 . S
H2272 C2256 0.931 . S
H2273 C2261 0.929 . S
H2274 C2262 0.960 . S
H2275 C2262 0.962 . S
H2276 C2262 0.960 . S
H2277 C2263 0.961 . S
H2278 C2263 0.961 . S
H2279 C2263 0.961 . S
H2280 C2264 0.931 . S
H2281 C2269 0.930 . S
H2282 C2270 0.956 . S
H2283 C2270 0.961 . S
H2284 C2270 0.961 . S
H2285 C2271 0.958 . S
H2286 C2271 0.961 . S
H2287 C2271 0.960 . S
C2288 C2289 1.391 . S
C2288 C2290 1.394 . S
C2288 H2304 0.931 . S
C2289 C2288 1.391 . S
C2289 C2293 1.376 . S
C2290 C2288 1.394 . S
C2290 C2291 1.369 . S
C2290 C2294 1.531 . S
C2291 C2290 1.369 . S
C2291 C2292 1.410 . S
C2291 C2299 1.503 . S
C2292 C2291 1.410 . S
C2292 C2293 1.392 . S
C2292 C2295 1.511 . S
C2293 C2289 1.376 . S
C2293 C2292 1.392 . S
C2293 H2305 0.929 . S
C2294 C2290 1.531 . S
C2294 H2306 0.960 . S
C2294 H2307 0.962 . S
C2294 H2308 0.960 . S
C2295 C2292 1.511 . S
C2295 H2309 0.961 . S
C2295 H2310 0.961 . S
C2295 H2311 0.961 . S
C2296 C2297 1.370 . S
C2296 C2298 1.363 . S
C2296 H2312 0.931 . S
C2297 C2296 1.370 . S
C2297 C2301 1.408 . S
C2298 C2296 1.363 . S
C2298 C2299 1.370 . S
C2298 C2302 1.524 . S
C2299 C2291 1.503 . S
C2299 C2298 1.370 . S
C2299 C2300 1.403 . S
C2300 C2299 1.403 . S
C2300 C2301 1.404 . S
C2300 C2303 1.539 . S
C2301 C2297 1.408 . S
C2301 C2300 1.404 . S
C2301 H2313 0.930 . S
C2302 C2298 1.524 . S
C2302 H2314 0.956 . S
C2302 H2315 0.961 . S
C2302 H2316 0.961 . S
C2303 C2300 1.539 . S
C2303 H2317 0.958 . S
C2303 H2318 0.961 . S
C2303 H2319 0.960 . S
H2304 C2288 0.931 . S
H2305 C2293 0.929 . S
H2306 C2294 0.960 . S
H2307 C2294 0.962 . S
H2308 C2294 0.960 . S
H2309 C2295 0.961 . S
H2310 C2295 0.961 . S
H2311 C2295 0.961 . S
H2312 C2296 0.931 . S
H2313 C2301 0.930 . S
H2314 C2302 0.956 . S
H2315 C2302 0.961 . S
H2316 C2302 0.961 . S
H2317 C2303 0.958 . S
H2318 C2303 0.961 . S
H2319 C2303 0.960 . S
C2320 C2321 1.391 . S
C2320 C2322 1.394 1_554 S
C2320 H2336 0.931 . S
C2321 C2320 1.391 . S
C2321 C2325 1.376 1_655 S
C2322 C2320 1.394 1_556 S
C2322 C2323 1.369 . S
C2322 C2326 1.531 . S
C2323 C2322 1.369 . S
C2323 C2324 1.410 1_656 S
C2323 C2331 1.503 . S
C2324 C2323 1.410 1_454 S
C2324 C2325 1.392 . S
C2324 C2327 1.511 . S
C2325 C2321 1.376 1_455 S
C2325 C2324 1.392 . S
C2325 H2337 0.929 . S
C2326 C2322 1.531 . S
C2326 H2338 0.960 . S
C2326 H2339 0.962 . S
C2326 H2340 0.960 . S
C2327 C2324 1.511 . S
C2327 H2341 0.961 . S
C2327 H2342 0.961 . S
C2327 H2343 0.961 . S
C2328 C2329 1.370 . S
C2328 C2330 1.363 . S
C2328 H2344 0.931 . S
C2329 C2328 1.370 . S
C2329 C2333 1.408 1_655 S
C2330 C2328 1.363 . S
C2330 C2331 1.370 . S
C2330 C2334 1.524 1_556 S
C2331 C2323 1.503 . S
C2331 C2330 1.370 . S
C2331 C2332 1.422 . S
C2332 C2331 1.422 . S
C2332 C2333 1.393 1_655 S
C2332 C2335 1.529 1_655 S
C2333 C2329 1.408 1_455 S
C2333 C2332 1.393 1_455 S
C2333 H2345 0.930 . S
C2334 C2330 1.524 1_554 S
C2334 H2346 0.956 . S
C2334 H2347 0.961 . S
C2334 H2348 0.961 . S
C2335 C2332 1.529 1_455 S
C2335 H2349 0.958 1_455 S
C2335 H2350 0.961 . S
C2335 H2351 0.960 . S
H2336 C2320 0.931 . S
H2337 C2325 0.929 . S
H2338 C2326 0.960 . S
H2339 C2326 0.962 . S
H2340 C2326 0.960 . S
H2341 C2327 0.961 . S
H2342 C2327 0.961 . S
H2343 C2327 0.961 . S
H2344 C2328 0.931 . S
H2345 C2333 0.930 . S
H2346 C2334 0.956 . S
H2347 C2334 0.961 . S
H2348 C2334 0.961 . S
H2349 C2335 0.958 1_655 S
H2350 C2335 0.961 . S
H2351 C2335 0.960 . S
C2352 C2353 1.391 . S
C2352 C2354 1.394 . S
C2352 H2368 0.931 . S
C2353 C2352 1.391 . S
C2353 C2357 1.376 . S
C2354 C2352 1.394 . S
C2354 C2355 1.369 . S
C2354 C2358 1.531 . S
C2355 C2354 1.369 . S
C2355 C2356 1.410 . S
C2355 C2363 1.503 . S
C2356 C2355 1.410 . S
C2356 C2357 1.392 . S
C2356 C2359 1.511 . S
C2357 C2353 1.376 . S
C2357 C2356 1.392 . S
C2357 H2369 0.929 . S
C2358 C2354 1.531 . S
C2358 H2370 0.960 . S
C2358 H2371 0.962 . S
C2358 H2372 0.960 . S
C2359 C2356 1.511 . S
C2359 H2373 0.961 . S
C2359 H2374 0.961 . S
C2359 H2375 0.961 . S
C2360 C2361 1.370 . S
C2360 C2362 1.363 . S
C2360 H2376 0.931 . S
C2361 C2360 1.370 . S
C2361 C2365 1.408 . S
C2362 C2360 1.363 . S
C2362 C2363 1.370 . S
C2362 C2366 1.524 . S
C2363 C2355 1.503 . S
C2363 C2362 1.370 . S
C2363 C2364 1.403 . S
C2364 C2363 1.403 . S
C2364 C2365 1.404 . S
C2364 C2367 1.539 . S
C2365 C2361 1.408 . S
C2365 C2364 1.404 . S
C2365 H2377 0.930 . S
C2366 C2362 1.524 . S
C2366 H2378 0.956 . S
C2366 H2379 0.961 . S
C2366 H2380 0.961 . S
C2367 C2364 1.539 . S
C2367 H2381 0.958 . S
C2367 H2382 0.961 . S
C2367 H2383 0.960 . S
H2368 C2352 0.931 . S
H2369 C2357 0.929 . S
H2370 C2358 0.960 . S
H2371 C2358 0.962 . S
H2372 C2358 0.960 . S
H2373 C2359 0.961 . S
H2374 C2359 0.961 . S
H2375 C2359 0.961 . S
H2376 C2360 0.931 . S
H2377 C2365 0.930 . S
H2378 C2366 0.956 . S
H2379 C2366 0.961 . S
H2380 C2366 0.961 . S
H2381 C2367 0.958 . S
H2382 C2367 0.961 . S
H2383 C2367 0.960 . S
C2384 C2385 1.392 1_556 S
C2384 C2386 1.393 1_455 S
C2384 H2400 0.930 1_455 S
C2385 C2384 1.392 1_554 S
C2385 C2389 1.376 . S
C2386 C2384 1.393 1_655 S
C2386 C2387 1.369 1_655 S
C2386 C2390 1.531 . S
C2387 C2386 1.369 1_455 S
C2387 C2388 1.410 1_556 S
C2387 C2395 1.503 . S
C2388 C2387 1.410 1_554 S
C2388 C2389 1.392 . S
C2388 C2391 1.511 . S
C2389 C2385 1.376 . S
C2389 C2388 1.392 . S
C2389 H2401 0.929 . S
C2390 C2386 1.531 . S
C2390 H2402 0.960 . S
C2390 H2403 0.962 . S
C2390 H2404 0.960 . S
C2391 C2388 1.511 . S
C2391 H2405 0.961 . S
C2391 H2406 0.961 . S
C2391 H2407 0.961 . S
C2392 C2393 1.370 . S
C2392 C2394 1.363 . S
C2392 H2408 0.931 . S
C2393 C2392 1.370 . S
C2393 C2397 1.408 1_455 S
C2394 C2392 1.363 . S
C2394 C2395 1.370 . S
C2394 C2398 1.524 . S
C2395 C2387 1.503 . S
C2395 C2394 1.370 . S
C2395 C2396 1.403 1_455 S
C2396 C2395 1.403 1_655 S
C2396 C2397 1.404 . S
C2396 C2399 1.539 . S
C2397 C2393 1.408 1_655 S
C2397 C2396 1.404 . S
C2397 H2409 0.930 . S
C2398 C2394 1.524 . S
C2398 H2410 0.956 . S
C2398 H2411 0.961 . S
C2398 H2412 0.961 . S
C2399 C2396 1.539 . S
C2399 H2413 0.958 . S
C2399 H2414 0.961 1_556 S
C2399 H2415 0.960 1_556 S
H2400 C2384 0.930 1_655 S
H2401 C2389 0.929 . S
H2402 C2390 0.960 . S
H2403 C2390 0.962 . S
H2404 C2390 0.960 . S
H2405 C2391 0.961 . S
H2406 C2391 0.961 . S
H2407 C2391 0.961 . S
H2408 C2392 0.931 . S
H2409 C2397 0.930 . S
H2410 C2398 0.956 . S
H2411 C2398 0.961 . S
H2412 C2398 0.961 . S
H2413 C2399 0.958 . S
H2414 C2399 0.961 1_554 S
H2415 C2399 0.960 1_554 S
C2416 C2417 1.391 . S
C2416 C2418 1.394 . S
C2416 H2432 0.931 . S
C2417 C2416 1.391 . S
C2417 C2421 1.376 . S
C2418 C2416 1.394 . S
C2418 C2419 1.369 . S
C2418 C2422 1.531 . S
C2419 C2418 1.369 . S
C2419 C2420 1.410 . S
C2419 C2427 1.503 . S
C2420 C2419 1.410 . S
C2420 C2421 1.392 . S
C2420 C2423 1.511 . S
C2421 C2417 1.376 . S
C2421 C2420 1.392 . S
C2421 H2433 0.929 . S
C2422 C2418 1.531 . S
C2422 H2434 0.960 . S
C2422 H2435 0.962 . S
C2422 H2436 0.960 . S
C2423 C2420 1.511 . S
C2423 H2437 0.961 . S
C2423 H2438 0.961 . S
C2423 H2439 0.961 . S
C2424 C2425 1.370 . S
C2424 C2426 1.363 . S
C2424 H2440 0.931 . S
C2425 C2424 1.370 . S
C2425 C2429 1.408 . S
C2426 C2424 1.363 . S
C2426 C2427 1.370 . S
C2426 C2430 1.524 . S
C2427 C2419 1.503 . S
C2427 C2426 1.370 . S
C2427 C2428 1.403 . S
C2428 C2427 1.403 . S
C2428 C2429 1.404 . S
C2428 C2431 1.539 . S
C2429 C2425 1.408 . S
C2429 C2428 1.404 . S
C2429 H2441 0.930 . S
C2430 C2426 1.524 . S
C2430 H2442 0.956 . S
C2430 H2443 0.961 . S
C2430 H2444 0.961 . S
C2431 C2428 1.539 . S
C2431 H2445 0.958 . S
C2431 H2446 0.961 . S
C2431 H2447 0.960 . S
H2432 C2416 0.931 . S
H2433 C2421 0.929 . S
H2434 C2422 0.960 . S
H2435 C2422 0.962 . S
H2436 C2422 0.960 . S
H2437 C2423 0.961 . S
H2438 C2423 0.961 . S
H2439 C2423 0.961 . S
H2440 C2424 0.931 . S
H2441 C2429 0.930 . S
H2442 C2430 0.956 . S
H2443 C2430 0.961 . S
H2444 C2430 0.961 . S
H2445 C2431 0.958 . S
H2446 C2431 0.961 . S
H2447 C2431 0.960 . S
C2448 C2449 1.391 . S
C2448 C2450 1.394 . S
C2448 H2464 0.931 . S
C2449 C2448 1.391 . S
C2449 C2453 1.376 . S
C2450 C2448 1.394 . S
C2450 C2451 1.369 . S
C2450 C2454 1.531 . S
C2451 C2450 1.369 . S
C2451 C2452 1.410 . S
C2451 C2459 1.503 . S
C2452 C2451 1.410 . S
C2452 C2453 1.392 . S
C2452 C2455 1.511 . S
C2453 C2449 1.376 . S
C2453 C2452 1.392 . S
C2453 H2465 0.929 . S
C2454 C2450 1.531 . S
C2454 H2466 0.960 . S
C2454 H2467 0.962 . S
C2454 H2468 0.960 . S
C2455 C2452 1.511 . S
C2455 H2469 0.961 . S
C2455 H2470 0.961 . S
C2455 H2471 0.961 . S
C2456 C2457 1.370 . S
C2456 C2458 1.363 . S
C2456 H2472 0.931 . S
C2457 C2456 1.370 . S
C2457 C2461 1.408 . S
C2458 C2456 1.363 . S
C2458 C2459 1.370 . S
C2458 C2462 1.524 . S
C2459 C2451 1.503 . S
C2459 C2458 1.370 . S
C2459 C2460 1.403 . S
C2460 C2459 1.403 . S
C2460 C2461 1.404 . S
C2460 C2463 1.539 . S
C2461 C2457 1.408 . S
C2461 C2460 1.404 . S
C2461 H2473 0.930 . S
C2462 C2458 1.524 . S
C2462 H2474 0.956 . S
C2462 H2475 0.961 . S
C2462 H2476 0.961 . S
C2463 C2460 1.539 . S
C2463 H2477 0.958 . S
C2463 H2478 0.961 . S
C2463 H2479 0.960 . S
H2464 C2448 0.931 . S
H2465 C2453 0.929 . S
H2466 C2454 0.960 . S
H2467 C2454 0.962 . S
H2468 C2454 0.960 . S
H2469 C2455 0.961 . S
H2470 C2455 0.961 . S
H2471 C2455 0.961 . S
H2472 C2456 0.931 . S
H2473 C2461 0.930 . S
H2474 C2462 0.956 . S
H2475 C2462 0.961 . S
H2476 C2462 0.961 . S
H2477 C2463 0.958 . S
H2478 C2463 0.961 . S
H2479 C2463 0.960 . S
C2480 C2481 1.391 . S
C2480 C2482 1.394 . S
C2480 H2496 0.931 . S
C2481 C2480 1.391 . S
C2481 C2485 1.376 . S
C2482 C2480 1.394 . S
C2482 C2483 1.369 . S
C2482 C2486 1.531 . S
C2483 C2482 1.369 . S
C2483 C2484 1.410 . S
C2483 C2491 1.503 . S
C2484 C2483 1.410 . S
C2484 C2485 1.392 . S
C2484 C2487 1.511 . S
C2485 C2481 1.376 . S
C2485 C2484 1.392 . S
C2485 H2497 0.929 . S
C2486 C2482 1.531 . S
C2486 H2498 0.960 . S
C2486 H2499 0.962 . S
C2486 H2500 0.960 . S
C2487 C2484 1.511 . S
C2487 H2501 0.961 . S
C2487 H2502 0.961 . S
C2487 H2503 0.961 . S
C2488 C2489 1.370 . S
C2488 C2490 1.363 . S
C2488 H2504 0.931 . S
C2489 C2488 1.370 . S
C2489 C2493 1.408 . S
C2490 C2488 1.363 . S
C2490 C2491 1.370 . S
C2490 C2494 1.524 . S
C2491 C2483 1.503 . S
C2491 C2490 1.370 . S
C2491 C2492 1.403 . S
C2492 C2491 1.403 . S
C2492 C2493 1.404 . S
C2492 C2495 1.539 . S
C2493 C2489 1.408 . S
C2493 C2492 1.404 . S
C2493 H2505 0.930 . S
C2494 C2490 1.524 . S
C2494 H2506 0.956 . S
C2494 H2507 0.961 . S
C2494 H2508 0.961 . S
C2495 C2492 1.539 . S
C2495 H2509 0.958 . S
C2495 H2510 0.961 . S
C2495 H2511 0.960 . S
H2496 C2480 0.931 . S
H2497 C2485 0.929 . S
H2498 C2486 0.960 . S
H2499 C2486 0.962 . S
H2500 C2486 0.960 . S
H2501 C2487 0.961 . S
H2502 C2487 0.961 . S
H2503 C2487 0.961 . S
H2504 C2488 0.931 . S
H2505 C2493 0.930 . S
H2506 C2494 0.956 . S
H2507 C2494 0.961 . S
H2508 C2494 0.961 . S
H2509 C2495 0.958 . S
H2510 C2495 0.961 . S
H2511 C2495 0.960 . S
C2512 C2513 1.391 . S
C2512 C2514 1.394 . S
C2512 H2528 0.931 . S
C2513 C2512 1.391 . S
C2513 C2517 1.376 . S
C2514 C2512 1.394 . S
C2514 C2515 1.369 . S
C2514 C2518 1.531 . S
C2515 C2514 1.369 . S
C2515 C2516 1.410 . S
C2515 C2523 1.503 . S
C2516 C2515 1.410 . S
C2516 C2517 1.392 . S
C2516 C2519 1.511 . S
C2517 C2513 1.376 . S
C2517 C2516 1.392 . S
C2517 H2529 0.929 . S
C2518 C2514 1.531 . S
C2518 H2530 0.960 . S
C2518 H2531 0.962 . S
C2518 H2532 0.960 . S
C2519 C2516 1.511 . S
C2519 H2533 0.961 . S
C2519 H2534 0.961 . S
C2519 H2535 0.961 . S
C2520 C2521 1.370 . S
C2520 C2522 1.363 . S
C2520 H2536 0.931 . S
C2521 C2520 1.370 . S
C2521 C2525 1.408 . S
C2522 C2520 1.363 . S
C2522 C2523 1.370 . S
C2522 C2526 1.524 . S
C2523 C2515 1.503 . S
C2523 C2522 1.370 . S
C2523 C2524 1.403 . S
C2524 C2523 1.403 . S
C2524 C2525 1.404 . S
C2524 C2527 1.539 . S
C2525 C2521 1.408 . S
C2525 C2524 1.404 . S
C2525 H2537 0.930 . S
C2526 C2522 1.524 . S
C2526 H2538 0.956 . S
C2526 H2539 0.961 . S
C2526 H2540 0.961 . S
C2527 C2524 1.539 . S
C2527 H2541 0.958 . S
C2527 H2542 0.961 . S
C2527 H2543 0.960 . S
H2528 C2512 0.931 . S
H2529 C2517 0.929 . S
H2530 C2518 0.960 . S
H2531 C2518 0.962 . S
H2532 C2518 0.960 . S
H2533 C2519 0.961 . S
H2534 C2519 0.961 . S
H2535 C2519 0.961 . S
H2536 C2520 0.931 . S
H2537 C2525 0.930 . S
H2538 C2526 0.956 . S
H2539 C2526 0.961 . S
H2540 C2526 0.961 . S
H2541 C2527 0.958 . S
H2542 C2527 0.961 . S
H2543 C2527 0.960 . S
C2544 C2545 1.391 . S
C2544 C2546 1.394 . S
C2544 H2560 0.931 . S
C2545 C2544 1.391 . S
C2545 C2549 1.376 . S
C2546 C2544 1.394 . S
C2546 C2547 1.369 . S
C2546 C2550 1.531 . S
C2547 C2546 1.369 . S
C2547 C2548 1.410 . S
C2547 C2555 1.503 . S
C2548 C2547 1.410 . S
C2548 C2549 1.392 . S
C2548 C2551 1.511 . S
C2549 C2545 1.376 . S
C2549 C2548 1.392 . S
C2549 H2561 0.929 . S
C2550 C2546 1.531 . S
C2550 H2562 0.960 . S
C2550 H2563 0.962 . S
C2550 H2564 0.960 . S
C2551 C2548 1.511 . S
C2551 H2565 0.961 . S
C2551 H2566 0.961 . S
C2551 H2567 0.961 . S
C2552 C2553 1.370 . S
C2552 C2554 1.363 . S
C2552 H2568 0.931 . S
C2553 C2552 1.370 . S
C2553 C2557 1.408 . S
C2554 C2552 1.363 . S
C2554 C2555 1.370 . S
C2554 C2558 1.524 . S
C2555 C2547 1.503 . S
C2555 C2554 1.370 . S
C2555 C2556 1.403 . S
C2556 C2555 1.403 . S
C2556 C2557 1.404 . S
C2556 C2559 1.539 . S
C2557 C2553 1.408 . S
C2557 C2556 1.404 . S
C2557 H2569 0.930 . S
C2558 C2554 1.524 . S
C2558 H2570 0.956 . S
C2558 H2571 0.961 . S
C2558 H2572 0.961 . S
C2559 C2556 1.539 . S
C2559 H2573 0.958 . S
C2559 H2574 0.961 . S
C2559 H2575 0.960 . S
H2560 C2544 0.931 . S
H2561 C2549 0.929 . S
H2562 C2550 0.960 . S
H2563 C2550 0.962 . S
H2564 C2550 0.960 . S
H2565 C2551 0.961 . S
H2566 C2551 0.961 . S
H2567 C2551 0.961 . S
H2568 C2552 0.931 . S
H2569 C2557 0.930 . S
H2570 C2558 0.956 . S
H2571 C2558 0.961 . S
H2572 C2558 0.961 . S
H2573 C2559 0.958 . S
H2574 C2559 0.961 . S
H2575 C2559 0.960 . S
C2576 C2577 1.391 . S
C2576 C2578 1.394 . S
C2576 H2592 0.931 . S
C2577 C2576 1.391 . S
C2577 C2581 1.376 . S
C2578 C2576 1.394 . S
C2578 C2579 1.369 . S
C2578 C2582 1.531 . S
C2579 C2578 1.369 . S
C2579 C2580 1.410 . S
C2579 C2587 1.503 . S
C2580 C2579 1.410 . S
C2580 C2581 1.392 . S
C2580 C2583 1.511 . S
C2581 C2577 1.376 . S
C2581 C2580 1.392 . S
C2581 H2593 0.929 . S
C2582 C2578 1.531 . S
C2582 H2594 0.960 . S
C2582 H2595 0.962 . S
C2582 H2596 0.960 . S
C2583 C2580 1.511 . S
C2583 H2597 0.961 . S
C2583 H2598 0.961 . S
C2583 H2599 0.961 . S
C2584 C2585 1.370 . S
C2584 C2586 1.363 . S
C2584 H2600 0.931 . S
C2585 C2584 1.370 . S
C2585 C2589 1.408 . S
C2586 C2584 1.363 . S
C2586 C2587 1.370 . S
C2586 C2590 1.524 . S
C2587 C2579 1.503 . S
C2587 C2586 1.370 . S
C2587 C2588 1.403 . S
C2588 C2587 1.403 . S
C2588 C2589 1.404 . S
C2588 C2591 1.539 . S
C2589 C2585 1.408 . S
C2589 C2588 1.404 . S
C2589 H2601 0.930 . S
C2590 C2586 1.524 . S
C2590 H2602 0.956 . S
C2590 H2603 0.961 . S
C2590 H2604 0.961 . S
C2591 C2588 1.539 . S
C2591 H2605 0.958 . S
C2591 H2606 0.961 . S
C2591 H2607 0.960 . S
H2592 C2576 0.931 . S
H2593 C2581 0.929 . S
H2594 C2582 0.960 . S
H2595 C2582 0.962 . S
H2596 C2582 0.960 . S
H2597 C2583 0.961 . S
H2598 C2583 0.961 . S
H2599 C2583 0.961 . S
H2600 C2584 0.931 . S
H2601 C2589 0.930 . S
H2602 C2590 0.956 . S
H2603 C2590 0.961 . S
H2604 C2590 0.961 . S
H2605 C2591 0.958 . S
H2606 C2591 0.961 . S
H2607 C2591 0.960 . S
C2608 C2609 1.391 . S
C2608 C2610 1.394 . S
C2608 H2624 0.931 . S
C2609 C2608 1.391 . S
C2609 C2613 1.376 . S
C2610 C2608 1.394 . S
C2610 C2611 1.369 . S
C2610 C2614 1.531 . S
C2611 C2610 1.369 . S
C2611 C2612 1.410 . S
C2611 C2619 1.503 . S
C2612 C2611 1.410 . S
C2612 C2613 1.392 . S
C2612 C2615 1.511 . S
C2613 C2609 1.376 . S
C2613 C2612 1.392 . S
C2613 H2625 0.929 . S
C2614 C2610 1.531 . S
C2614 H2626 0.960 . S
C2614 H2627 0.962 . S
C2614 H2628 0.960 . S
C2615 C2612 1.511 . S
C2615 H2629 0.961 . S
C2615 H2630 0.961 . S
C2615 H2631 0.961 . S
C2616 C2617 1.370 . S
C2616 C2618 1.363 . S
C2616 H2632 0.931 . S
C2617 C2616 1.370 . S
C2617 C2621 1.408 . S
C2618 C2616 1.363 . S
C2618 C2619 1.370 . S
C2618 C2622 1.524 . S
C2619 C2611 1.503 . S
C2619 C2618 1.370 . S
C2619 C2620 1.403 . S
C2620 C2619 1.403 . S
C2620 C2621 1.404 . S
C2620 C2623 1.539 . S
C2621 C2617 1.408 . S
C2621 C2620 1.404 . S
C2621 H2633 0.930 . S
C2622 C2618 1.524 . S
C2622 H2634 0.956 . S
C2622 H2635 0.961 . S
C2622 H2636 0.961 . S
C2623 C2620 1.539 . S
C2623 H2637 0.958 . S
C2623 H2638 0.961 . S
C2623 H2639 0.960 . S
H2624 C2608 0.931 . S
H2625 C2613 0.929 . S
H2626 C2614 0.960 . S
H2627 C2614 0.962 . S
H2628 C2614 0.960 . S
H2629 C2615 0.961 . S
H2630 C2615 0.961 . S
H2631 C2615 0.961 . S
H2632 C2616 0.931 . S
H2633 C2621 0.930 . S
H2634 C2622 0.956 . S
H2635 C2622 0.961 . S
H2636 C2622 0.961 . S
H2637 C2623 0.958 . S
H2638 C2623 0.961 . S
H2639 C2623 0.960 . S
C2640 C2641 1.391 . S
C2640 C2642 1.394 . S
C2640 H2656 0.931 . S
C2641 C2640 1.391 . S
C2641 C2645 1.376 . S
C2642 C2640 1.394 . S
C2642 C2643 1.369 . S
C2642 C2646 1.531 . S
C2643 C2642 1.369 . S
C2643 C2644 1.410 . S
C2643 C2651 1.503 . S
C2644 C2643 1.410 . S
C2644 C2645 1.392 . S
C2644 C2647 1.511 . S
C2645 C2641 1.376 . S
C2645 C2644 1.392 . S
C2645 H2657 0.929 . S
C2646 C2642 1.531 . S
C2646 H2658 0.960 . S
C2646 H2659 0.962 . S
C2646 H2660 0.960 . S
C2647 C2644 1.511 . S
C2647 H2661 0.961 . S
C2647 H2662 0.961 . S
C2647 H2663 0.961 . S
C2648 C2649 1.370 . S
C2648 C2650 1.363 . S
C2648 H2664 0.931 . S
C2649 C2648 1.370 . S
C2649 C2653 1.408 . S
C2650 C2648 1.363 . S
C2650 C2651 1.370 . S
C2650 C2654 1.524 . S
C2651 C2643 1.503 . S
C2651 C2650 1.370 . S
C2651 C2652 1.403 . S
C2652 C2651 1.403 . S
C2652 C2653 1.404 . S
C2652 C2655 1.539 . S
C2653 C2649 1.408 . S
C2653 C2652 1.404 . S
C2653 H2665 0.930 . S
C2654 C2650 1.524 . S
C2654 H2666 0.956 . S
C2654 H2667 0.961 . S
C2654 H2668 0.961 . S
C2655 C2652 1.539 . S
C2655 H2669 0.958 . S
C2655 H2670 0.961 . S
C2655 H2671 0.960 . S
H2656 C2640 0.931 . S
H2657 C2645 0.929 . S
H2658 C2646 0.960 . S
H2659 C2646 0.962 . S
H2660 C2646 0.960 . S
H2661 C2647 0.961 . S
H2662 C2647 0.961 . S
H2663 C2647 0.961 . S
H2664 C2648 0.931 . S
H2665 C2653 0.930 . S
H2666 C2654 0.956 . S
H2667 C2654 0.961 . S
H2668 C2654 0.961 . S
H2669 C2655 0.958 . S
H2670 C2655 0.961 . S
H2671 C2655 0.960 . S
C2672 C2673 1.391 . S
C2672 C2674 1.394 . S
C2672 H2688 0.931 . S
C2673 C2672 1.391 . S
C2673 C2677 1.408 . S
C2674 C2672 1.394 . S
C2674 C2675 1.369 . S
C2674 C2678 1.531 . S
C2675 C2674 1.369 . S
C2675 C2676 1.410 1_556 S
C2675 C2683 1.503 1_556 S
C2676 C2675 1.410 1_554 S
C2676 C2677 1.380 1_554 S
C2676 C2679 1.511 . S
C2677 C2673 1.408 . S
C2677 C2676 1.380 1_556 S
C2677 H2689 0.912 1_556 S
C2678 C2674 1.531 . S
C2678 H2690 0.960 . S
C2678 H2691 0.962 . S
C2678 H2692 0.960 . S
C2679 C2676 1.511 . S
C2679 H2693 0.961 . S
C2679 H2694 0.961 . S
C2679 H2695 0.961 . S
C2680 C2681 1.370 . S
C2680 C2682 1.363 . S
C2680 H2696 0.931 . S
C2681 C2680 1.370 . S
C2681 C2685 1.408 . S
C2682 C2680 1.363 . S
C2682 C2683 1.370 . S
C2682 C2686 1.524 . S
C2683 C2675 1.503 1_554 S
C2683 C2682 1.370 . S
C2683 C2684 1.403 1_554 S
C2684 C2683 1.403 1_556 S
C2684 C2685 1.404 1_556 S
C2684 C2687 1.539 . S
C2685 C2681 1.408 . S
C2685 C2684 1.404 1_554 S
C2685 H2697 0.930 1_554 S
C2686 C2682 1.524 . S
C2686 H2698 0.956 . S
C2686 H2699 0.961 . S
C2686 H2700 0.961 . S
C2687 C2684 1.539 . S
C2687 H2701 0.958 . S
C2687 H2702 0.961 . S
C2687 H2703 0.960 . S
H2688 C2672 0.931 . S
H2689 C2677 0.912 1_554 S
H2690 C2678 0.960 . S
H2691 C2678 0.962 . S
H2692 C2678 0.960 . S
H2693 C2679 0.961 . S
H2694 C2679 0.961 . S
H2695 C2679 0.961 . S
H2696 C2680 0.931 . S
H2697 C2685 0.930 1_556 S
H2698 C2686 0.956 . S
H2699 C2686 0.961 . S
H2700 C2686 0.961 . S
H2701 C2687 0.958 . S
H2702 C2687 0.961 . S
H2703 C2687 0.960 . S
C2704 C2705 1.391 . S
C2704 C2706 1.394 . S
C2704 H2720 0.931 . S
C2705 C2704 1.391 . S
C2705 C2709 1.376 . S
C2706 C2704 1.394 . S
C2706 C2707 1.369 . S
C2706 C2710 1.531 . S
C2707 C2706 1.369 . S
C2707 C2708 1.410 . S
C2707 C2715 1.503 . S
C2708 C2707 1.410 . S
C2708 C2709 1.392 . S
C2708 C2711 1.511 . S
C2709 C2705 1.376 . S
C2709 C2708 1.392 . S
C2709 H2721 0.929 . S
C2710 C2706 1.531 . S
C2710 H2722 0.960 . S
C2710 H2723 0.962 . S
C2710 H2724 0.960 . S
C2711 C2708 1.511 . S
C2711 H2725 0.961 . S
C2711 H2726 0.961 . S
C2711 H2727 0.961 . S
C2712 C2713 1.370 . S
C2712 C2714 1.363 . S
C2712 H2728 0.931 . S
C2713 C2712 1.370 . S
C2713 C2717 1.408 . S
C2714 C2712 1.363 . S
C2714 C2715 1.370 . S
C2714 C2718 1.524 . S
C2715 C2707 1.503 . S
C2715 C2714 1.370 . S
C2715 C2716 1.403 . S
C2716 C2715 1.403 . S
C2716 C2717 1.404 . S
C2716 C2719 1.539 . S
C2717 C2713 1.408 . S
C2717 C2716 1.404 . S
C2717 H2729 0.930 . S
C2718 C2714 1.524 . S
C2718 H2730 0.956 . S
C2718 H2731 0.961 . S
C2718 H2732 0.961 . S
C2719 C2716 1.539 . S
C2719 H2733 0.958 . S
C2719 H2734 0.961 . S
C2719 H2735 0.960 . S
H2720 C2704 0.931 . S
H2721 C2709 0.929 . S
H2722 C2710 0.960 . S
H2723 C2710 0.962 . S
H2724 C2710 0.960 . S
H2725 C2711 0.961 . S
H2726 C2711 0.961 . S
H2727 C2711 0.961 . S
H2728 C2712 0.931 . S
H2729 C2717 0.930 . S
H2730 C2718 0.956 . S
H2731 C2718 0.961 . S
H2732 C2718 0.961 . S
H2733 C2719 0.958 . S
H2734 C2719 0.961 . S
H2735 C2719 0.960 . S
C2736 C2737 1.391 . S
C2736 C2738 1.394 . S
C2736 H2752 0.931 . S
C2737 C2736 1.391 . S
C2737 C2741 1.376 . S
C2738 C2736 1.394 . S
C2738 C2739 1.369 . S
C2738 C2742 1.531 . S
C2739 C2738 1.369 . S
C2739 C2740 1.410 . S
C2739 C2747 1.503 . S
C2740 C2739 1.410 . S
C2740 C2741 1.392 . S
C2740 C2743 1.511 . S
C2741 C2737 1.376 . S
C2741 C2740 1.392 . S
C2741 H2753 0.929 . S
C2742 C2738 1.531 . S
C2742 H2754 0.960 . S
C2742 H2755 0.962 . S
C2742 H2756 0.960 . S
C2743 C2740 1.511 . S
C2743 H2757 0.961 . S
C2743 H2758 0.961 . S
C2743 H2759 0.961 . S
C2744 C2745 1.370 . S
C2744 C2746 1.363 . S
C2744 H2760 0.931 . S
C2745 C2744 1.370 . S
C2745 C2749 1.408 . S
C2746 C2744 1.363 . S
C2746 C2747 1.370 . S
C2746 C2750 1.524 . S
C2747 C2739 1.503 . S
C2747 C2746 1.370 . S
C2747 C2748 1.403 . S
C2748 C2747 1.403 . S
C2748 C2749 1.404 . S
C2748 C2751 1.539 . S
C2749 C2745 1.408 . S
C2749 C2748 1.404 . S
C2749 H2761 0.930 . S
C2750 C2746 1.524 . S
C2750 H2762 0.956 . S
C2750 H2763 0.961 . S
C2750 H2764 0.961 . S
C2751 C2748 1.539 . S
C2751 H2765 0.958 . S
C2751 H2766 0.961 . S
C2751 H2767 0.960 . S
H2752 C2736 0.931 . S
H2753 C2741 0.929 . S
H2754 C2742 0.960 . S
H2755 C2742 0.962 . S
H2756 C2742 0.960 . S
H2757 C2743 0.961 . S
H2758 C2743 0.961 . S
H2759 C2743 0.961 . S
H2760 C2744 0.931 . S
H2761 C2749 0.930 . S
H2762 C2750 0.956 . S
H2763 C2750 0.961 . S
H2764 C2750 0.961 . S
H2765 C2751 0.958 . S
H2766 C2751 0.961 . S
H2767 C2751 0.960 . S
C2768 C2769 1.391 . S
C2768 C2770 1.394 . S
C2768 H2784 0.931 . S
C2769 C2768 1.391 . S
C2769 C2773 1.376 1_565 S
C2770 C2768 1.394 . S
C2770 C2771 1.369 . S
C2770 C2774 1.531 . S
C2771 C2770 1.369 . S
C2771 C2772 1.410 . S
C2771 C2779 1.503 . S
C2772 C2771 1.410 . S
C2772 C2773 1.392 1_565 S
C2772 C2775 1.511 1_564 S
C2773 C2769 1.376 1_545 S
C2773 C2772 1.392 1_545 S
C2773 H2785 0.929 . S
C2774 C2770 1.531 . S
C2774 H2786 0.960 . S
C2774 H2787 0.962 . S
C2774 H2788 0.960 . S
C2775 C2772 1.511 1_546 S
C2775 H2789 0.961 . S
C2775 H2790 0.970 . S
C2775 H2791 0.961 1_545 S
C2776 C2777 1.370 . S
C2776 C2778 1.363 . S
C2776 H2792 0.931 . S
C2777 C2776 1.370 . S
C2777 C2781 1.408 1_554 S
C2778 C2776 1.363 . S
C2778 C2779 1.370 . S
C2778 C2782 1.524 . S
C2779 C2771 1.503 . S
C2779 C2778 1.370 . S
C2779 C2780 1.370 1_554 S
C2780 C2779 1.370 1_556 S
C2780 C2781 1.415 . S
C2780 C2783 1.565 . S
C2781 C2777 1.408 1_556 S
C2781 C2780 1.415 . S
C2781 H2793 0.930 . S
C2782 C2778 1.524 . S
C2782 H2794 0.956 . S
C2782 H2795 0.913 1_565 S
C2782 H2796 0.961 . S
C2783 C2780 1.565 . S
C2783 H2797 0.958 . S
C2783 H2798 0.961 . S
C2783 H2799 0.960 . S
H2784 C2768 0.931 . S
H2785 C2773 0.929 . S
H2786 C2774 0.960 . S
H2787 C2774 0.962 . S
H2788 C2774 0.960 . S
H2789 C2775 0.961 . S
H2790 C2775 0.970 . S
H2791 C2775 0.961 1_565 S
H2792 C2776 0.931 . S
H2793 C2781 0.930 . S
H2794 C2782 0.956 . S
H2795 C2782 0.913 1_545 S
H2796 C2782 0.961 . S
H2797 C2783 0.958 . S
H2798 C2783 0.961 . S
H2799 C2783 0.960 . S
C1273 C257 1.852 . S
C1265 C73 1.855 . S
C1305 C316 1.247 . S
C1297 C82 1.212 . S
C1329 C100 1.880 . S
C1337 C433 1.876 . S
C1369 C501 1.304 . S
C1361 C56 1.248 . S
C1401 C580 1.371 . S
C1393 C134 1.364 . S
C1433 C705 1.827 . S
C1425 C165 1.821 . S
C1457 C147 1.156 . S
C1465 C765 1.170 . S
C1497 C873 1.852 . S
C1489 C125 1.842 . S
C1521 C151 1.394 . S
C1529 C969 1.402 . S
C1561 C1029 1.439 . S
C1553 C121 1.368 . S
C1585 C139 1.847 . S
C1593 C932 1.839 . S
C1625 C1049 1.259 . S
C1617 C164 1.251 . S
C1649 C95 1.242 . S
C1657 C1117 1.323 . S
C1681 C61 1.500 . S
C1689 C1108 1.514 . S
C1713 C74 1.428 . S
C1721 C1137 1.430 . S
C1745 C86 1.802 . S
C1753 C1145 1.816 . S
C1777 C47 1.386 . S
C1785 C529 1.388 . S
C1809 C186 1.285 . S
C1817 C492 1.339 . S
C1849 C228 1.537 . S
C1841 C204 1.542 . S
C1881 C325 1.916 . S
C1873 C112 1.917 . S
C1905 C60 1.362 1_545 S
C1913 C589 1.362 . S
C1945 C881 1.429 . S
C1937 C152 1.419 . S
C1977 C609 1.978 . S
C1969 C126 1.962 . S
C2009 C793 1.276 . S
C2001 C160 1.253 . S
C2041 C785 1.854 . S
C2033 C190 1.852 . S
C2065 C199 1.159 . S
C2073 C853 1.257 . S
C2097 C113 1.874 . S
C2105 C617 1.877 . S
C2137 C668 1.304 . S
C2129 C173 1.264 . S
C2161 C43 1.350 . S
C2169 C413 1.367 . S
C2201 C521 1.827 . S
C2193 C9 1.819 1_655 S
C2233 C237 1.167 . S
C2225 C17 1.171 . S
C2265 C353 1.848 . S
C2257 C34 1.846 1_455 S
C2289 C21 1.394 . S
C2297 C1057 1.398 . S
C2321 C30 1.364 . S
C2329 C941 1.440 . S
C2353 C48 1.835 . S
C2361 C1020 1.848 . S
C2385 C8 1.260 . S
C2393 C961 1.264 . S
C2425 C1205 1.321 . S
C2417 C108 1.241 . S
C2457 C1196 1.515 . S
C2449 C178 1.492 1_554 S
C2489 C1225 1.431 . S
C2481 C191 1.423 . S
C2513 C203 1.802 . S
C2521 C1233 1.816 . S
C2545 C138 1.400 . S
C2553 C697 1.384 . S
C2585 C677 1.340 . S
C2577 C69 1.278 . S
C2617 C756 1.536 . S
C2609 C87 1.538 . S
C2649 C844 1.916 . S
C2641 C99 1.917 . S
C2673 C177 1.368 . S
C2681 C404 1.358 . S
C2713 C345 1.430 . S
C2705 C22 1.417 . S
C2737 C35 1.969 . S
C2745 C441 1.976 . S
C2777 C265 1.283 . S
C2769 C4 1.266 . S
