# Generated by pormake.
# Topology ftw, (4,12)-cn, num edge types: 1
# Building blocks:
#     Node 0, Type 0, BuildingBlock: GIZVER_clean_linker_0, # of connection points: 4
#     Node 1, Type 0, BuildingBlock: GIZVER_clean_linker_0, # of connection points: 4
#     Node 2, Type 0, BuildingBlock: GIZVER_clean_linker_0, # of connection points: 4
#     Node 3, Type 1, BuildingBlock: EZIPEK_clean_sbu_0, # of connection points: 12
#     Edge 4, Type (0, 1), BuildingBlock: KIFKEQ_clean_linker_1, # of connection points: 2
#     Edge 5, Type (0, 1), BuildingBlock: KIFKEQ_clean_linker_1, # of connection points: 2
#     Edge 6, Type (0, 1), BuildingBlock: KIFKEQ_clean_linker_1, # of connection points: 2
#     Edge 7, Type (0, 1), BuildingBlock: KIFKEQ_clean_linker_1, # of connection points: 2
#     Edge 8, Type (0, 1), BuildingBlock: KIFKEQ_clean_linker_1, # of connection points: 2
#     Edge 9, Type (0, 1), BuildingBlock: KIFKEQ_clean_linker_1, # of connection points: 2
#     Edge 10, Type (0, 1), BuildingBlock: KIFKEQ_clean_linker_1, # of connection points: 2
#     Edge 11, Type (0, 1), BuildingBlock: KIFKEQ_clean_linker_1, # of connection points: 2
#     Edge 12, Type (0, 1), BuildingBlock: KIFKEQ_clean_linker_1, # of connection points: 2
#     Edge 13, Type (0, 1), BuildingBlock: KIFKEQ_clean_linker_1, # of connection points: 2
#     Edge 14, Type (0, 1), BuildingBlock: KIFKEQ_clean_linker_1, # of connection points: 2
#     Edge 15, Type (0, 1), BuildingBlock: KIFKEQ_clean_linker_1, # of connection points: 2
# Relax obj value: 0.085
# Max RMSD: 0.239
# Mean RMSD: 0.181
data_MOF--net-ftw--node1-EZIPEK_clean_sbu_0--node2-GIZVER_clean_linker_0--edge1-KIFKEQ_clean_linker_1
_symmetry_space_group_name_H-M    P1
_symmetry_Int_Tables_number       1
_symmetry_cell_setting            triclinic
loop_
_symmetry_equiv_pos_as_xyz
'x, y, z'
_cell_length_a     26.092904
_cell_length_b     24.551149
_cell_length_c     23.775558
_cell_angle_alpha  89.475212
_cell_angle_beta   89.975261
_cell_angle_gamma 90.051246
loop_
_atom_site_label
_atom_site_type_symbol
_atom_site_fract_x
_atom_site_fract_y
_atom_site_fract_z
_atom_type_partial_charge
H0 H 0.89027 0.46685 0.39901 0.0
H1 H 0.89554 0.45408 0.57992 0.0
H2 H 0.97938 0.34089 0.478 0.0
H3 H 0.8311 0.5204 0.45761 0.0
H4 H 0.83282 0.51468 0.53291 0.0
H5 H 0.90015 0.57133 0.40656 0.0
H6 H 0.9872 0.68692 0.50252 0.0
H7 H 0.89234 0.5694 0.58742 0.0
C8 C 0.90413 0.44691 0.43691 0.0
C9 C 0.93708 0.40218 0.43272 0.0
C10 C 0.88972 0.4664 0.49003 0.0
C11 C 0.90735 0.43972 0.53892 0.0
C12 C 0.93904 0.3938 0.53479 0.0
C13 C 0.95459 0.37615 0.48157 0.0
C14 C 0.85715 0.51667 0.49449 0.0
C15 C 0.89179 0.56562 0.49663 0.0
C16 C 0.91166 0.58813 0.44661 0.0
C17 C 0.94651 0.63173 0.44817 0.0
C18 C 0.96182 0.652 0.50053 0.0
C19 C 0.94236 0.62984 0.55062 0.0
C20 C 0.90729 0.5867 0.54863 0.0
H21 H 0.47667 0.09038 0.40564 0.0
H22 H 0.49131 0.08544 0.58616 0.0
H23 H 0.35933 1.0153 0.50707 0.0
H24 H 0.53648 0.15096 0.45392 0.0
H25 H 0.54052 0.15108 0.52873 0.0
H26 H 0.5858 0.08526 0.39805 0.0
H27 H 0.71793 0.01617 0.47894 0.0
H28 H 0.60046 0.0914 0.57848 0.0
C29 C 0.4628 0.07666 0.44635 0.0
C30 C 0.41487 0.05073 0.45046 0.0
C31 C 0.49093 0.08888 0.49526 0.0
C32 C 0.47105 0.07406 0.54823 0.0
C33 C 0.42388 0.04694 0.55245 0.0
C34 C 0.39666 0.03454 0.50353 0.0
C35 C 0.53841 0.12385 0.49163 0.0
C36 C 0.58649 0.08985 0.48883 0.0
C37 C 0.60617 0.07438 0.43627 0.0
C38 C 0.65334 0.04732 0.43275 0.0
C39 C 0.6806 0.03537 0.48199 0.0
C40 C 0.66236 0.05179 0.53464 0.0
C41 C 0.61443 0.07765 0.53809 0.0
H42 H 0.59822 0.42892 0.03484 0.0
H43 H 0.59159 0.60409 0.02425 0.0
H44 H 0.72912 0.51951 0.97698 0.0
H45 H 0.53821 0.47955 0.0925 0.0
H46 H 0.5382 0.55159 0.09222 0.0
H47 H 0.48314 0.42821 0.0278 0.0
H48 H 0.3486 0.51567 0.97487 0.0
H49 H 0.48229 0.60349 0.02859 0.0
C50 C 0.61536 0.46735 0.02216 0.0
C51 C 0.66664 0.46832 0.00368 0.0
C52 C 0.5878 0.51626 0.02979 0.0
C53 C 0.61188 0.56637 0.01666 0.0
C54 C 0.6629 0.56806 -0.003 0.0
C55 C 0.68936 0.5187 -0.0098 0.0
C56 C 0.53847 0.51571 0.06393 0.0
C57 C 0.48907 0.51587 0.02995 0.0
C58 C 0.46394 0.46631 0.0183 0.0
C59 C 0.41326 0.46572 -0.00232 0.0
C60 C 0.38845 0.51578 0.98762 0.0
C61 C 0.41275 0.56589 -0.00183 0.0
C62 C 0.46345 0.5654 0.01875 0.0
C63 C 0.03779 0.14858 0.85619 0.0
C64 C 0.03068 0.14764 0.12727 0.0
C65 C 0.03409 0.88497 0.85756 0.0
C66 C 0.03279 0.88338 0.12915 0.0
C67 C 0.16263 0.88249 -0.00511 0.0
C68 C 0.16398 0.14826 -0.00745 0.0
C69 C 0.9131 0.88385 -0.01072 0.0
C70 C 0.91464 0.14954 -0.00936 0.0
C71 C 0.91107 1.01505 0.12562 0.0
C72 C 0.16019 0.01717 0.13245 0.0
C73 C 0.91682 0.01889 0.8534 0.0
C74 C 0.16594 1.01558 0.86027 0.0
Eu75 Eu 0.03917 0.11888 -0.00788 0.0
O76 O 0.08363 0.06417 0.044 0.0
O77 O 0.99409 0.06471 0.94156 0.0
Eu78 Eu 0.13602 1.01546 -0.00442 0.0
Eu79 Eu 0.94093 0.01652 -0.00969 0.0
O80 O 0.08577 0.06428 0.9438 0.0
O81 O 0.99225 0.06403 0.04093 0.0
Eu82 Eu 0.04078 0.01658 0.8866 0.0
Eu83 Eu 0.03624 1.0156 0.09914 0.0
O84 O 0.08517 0.96755 0.94419 0.0
O85 O 0.08301 0.9669 0.04438 0.0
O86 O 0.99161 0.96776 0.0416 0.0
O87 O 0.9938 0.96838 0.94226 0.0
Eu88 Eu 0.03802 0.91297 -0.00683 0.0
O89 O 0.03692 0.16513 0.90945 0.0
O90 O 0.03558 0.16453 0.07409 0.0
O91 O 0.03609 0.86774 0.91085 0.0
O92 O 0.03399 0.86705 0.07582 0.0
O93 O 0.17869 0.93424 -0.0029 0.0
O94 O 0.17961 0.09633 -0.00542 0.0
O95 O 0.89754 0.93578 -0.01107 0.0
O96 O 0.89829 0.09782 -0.0091 0.0
O97 O 0.95941 0.01605 0.14419 0.0
O98 O 0.11097 0.01685 0.14819 0.0
O99 O 0.96602 0.01818 0.83767 0.0
O100 O 0.11763 0.01717 0.84161 0.0
O101 O 0.96199 0.86755 -0.00922 0.0
O102 O 0.11356 0.86676 -0.00697 0.0
O103 O 0.96377 0.16501 -0.00923 0.0
O104 O 0.11505 0.1644 -0.00862 0.0
O105 O 0.0303 0.09585 0.14491 0.0
O106 O 0.0341 0.93501 0.14632 0.0
O107 O 0.04037 0.09693 0.83941 0.0
O108 O 0.03594 0.93676 0.84012 0.0
O109 O 0.18049 1.01396 0.91403 0.0
O110 O 0.17707 0.01665 0.07945 0.0
O111 O 0.89995 0.0186 0.9064 0.0
O112 O 0.89652 1.01435 0.07188 0.0
H113 H 0.03227 0.3922 0.38783 0.0
H114 H 0.87271 0.35743 0.35681 0.0
H115 H 0.05648 0.33566 0.30746 0.0
H116 H 0.89693 0.29984 0.27735 0.0
H117 H 0.97933 0.13548 0.226 0.0
H118 H 0.95551 0.20635 0.29222 0.0
H119 H 0.03556 0.32609 0.19136 0.0
H120 H 0.05856 0.25524 0.12366 0.0
C121 C 1.00248 0.37363 0.36269 0.0
C122 C 0.95074 0.37901 0.3779 0.0
C123 C 1.01625 0.34144 0.317 0.0
C124 C 0.97847 0.31341 0.28689 0.0
C125 C 0.92658 0.32117 0.30026 0.0
C126 C 0.91276 0.35422 0.34523 0.0
C127 C 0.99219 0.17677 0.21799 0.0
C128 C 1.02083 0.18982 0.16968 0.0
C129 C 0.97812 0.21731 0.25558 0.0
C130 C 0.99327 0.27144 0.24618 0.0
C131 C 0.02325 0.28451 0.19899 0.0
C132 C 0.03641 0.24406 0.16055 0.0
H133 H 0.6793 0.12484 0.35626 0.0
H134 H 0.68816 0.95195 0.38911 0.0
H135 H 0.73938 0.11501 0.27765 0.0
H136 H 0.7472 0.94197 0.30927 0.0
H137 H 0.81524 0.97096 0.11779 0.0
H138 H 0.74561 0.97636 0.18698 0.0
H139 H 0.84339 0.06891 0.29681 0.0
H140 H 0.91353 0.06228 0.22882 0.0
C141 C 0.69265 0.08454 0.34525 0.0
C142 C 0.67901 0.03904 0.37818 0.0
C143 C 0.72719 0.07904 0.30078 0.0
C144 C 0.74766 0.02782 0.28797 0.0
C145 C 0.73152 0.98175 0.31848 0.0
C146 C 0.6978 0.98741 0.36377 0.0
C147 C 0.82189 0.99227 0.15682 0.0
C148 C 0.86977 0.01629 0.16801 0.0
C149 C 0.78216 0.99524 0.19618 0.0
C150 C 0.78939 0.02341 0.24655 0.0
C151 C 0.8371 0.04731 0.25787 0.0
C152 C 0.87718 0.04324 0.2192 0.0
H153 H 0.89146 0.65436 0.35282 0.0
H154 H 0.0427 0.67079 0.425 0.0
H155 H 0.91832 0.70915 0.27202 0.0
H156 H 0.06887 0.72701 0.34478 0.0
H157 H 0.05555 0.89054 0.24103 0.0
H158 H 0.03977 0.82224 0.3142 0.0
H159 H 0.98124 0.71158 0.18954 0.0
H160 H 0.99695 0.7797 0.11612 0.0
C161 C 0.93072 0.66862 0.35095 0.0
C162 C 0.96476 0.65866 0.39569 0.0
C163 C 0.94601 0.70014 0.30473 0.0
C164 C 0.99548 0.72266 0.30258 0.0
C165 C 0.03027 0.71072 0.34593 0.0
C166 C 1.01519 0.67872 0.39183 0.0
C167 C 0.03974 0.85149 0.22912 0.0
C168 C 0.0273 0.84063 0.17284 0.0
C169 C 0.03108 0.81228 0.27094 0.0
C170 C 1.00928 0.76174 0.25738 0.0
C171 C 0.99788 0.75036 0.20103 0.0
C172 C 1.00715 0.78929 0.15907 0.0
H173 H 0.43579 1.00949 0.34567 0.0
H174 H 0.31605 0.0836 0.44405 0.0
H175 H 0.37553 0.99866 0.26724 0.0
H176 H 0.2566 0.07411 0.36627 0.0
H177 H 0.14681 0.99806 0.24506 0.0
H178 H 0.2103 1.00423 0.31946 0.0
H179 H 0.32599 0.04813 0.19707 0.0
H180 H 0.26268 0.04054 0.12218 0.0
C181 C 0.39676 0.02379 0.35026 0.0
C182 C 0.38031 0.04649 0.40116 0.0
C183 C 0.36227 0.01774 0.30546 0.0
C184 C 0.31091 0.03472 0.31075 0.0
C185 C 0.29532 0.05907 0.36118 0.0
C186 C 0.32948 0.06473 0.40575 0.0
C187 C 0.18576 1.00895 0.23385 0.0
C188 C 0.19942 0.01916 0.17757 0.0
C189 C 0.22221 1.01272 0.27662 0.0
C190 C 0.27323 0.0273 0.26439 0.0
C191 C 0.28721 0.03637 0.20798 0.0
C192 C 0.25075 0.03225 0.16505 0.0
H193 H 0.03797 0.64344 0.59373 0.0
H194 H 0.87813 0.67536 0.6264 0.0
H195 H 0.06194 0.70061 0.67372 0.0
H196 H 0.90214 0.73348 0.7055 0.0
H197 H 0.98224 0.89815 0.75957 0.0
H198 H 0.95947 0.82814 0.69181 0.0
H199 H 0.04114 0.7079 0.79021 0.0
H200 H 0.06323 0.7779 0.85934 0.0
C201 C 1.00809 0.66176 0.61893 0.0
C202 C 0.95631 0.65525 0.60435 0.0
C203 C 1.02174 0.69423 0.66446 0.0
C204 C 0.98378 0.72139 0.69509 0.0
C205 C 0.93192 0.71283 0.68215 0.0
C206 C 0.91823 0.67951 0.63736 0.0
C207 C 0.99584 0.85695 0.76656 0.0
C208 C 0.02473 0.84343 0.8145 0.0
C209 C 0.98232 0.81691 0.72816 0.0
C210 C 0.99824 0.7629 0.73644 0.0
C211 C 0.02834 0.74941 0.78339 0.0
C212 C 0.04096 0.78933 0.82264 0.0
H213 H 0.38927 0.95195 0.59907 0.0
H214 H 0.39755 0.12525 0.62637 0.0
H215 H 0.33018 0.94262 0.67911 0.0
H216 H 0.33742 0.1161 0.70517 0.0
H217 H 0.16506 0.06779 0.75879 0.0
H218 H 0.23522 0.07441 0.6906 0.0
H219 H 0.32972 0.9732 0.79741 0.0
H220 H 0.26008 0.96764 0.8667 0.0
C221 C 0.37947 0.98767 0.62324 0.0
C222 C 0.39812 0.03921 0.60721 0.0
C223 C 0.34572 0.98238 0.66866 0.0
C224 C 0.32933 0.02875 0.69764 0.0
C225 C 0.34969 0.0799 0.6832 0.0
C226 C 0.38428 0.08503 0.63863 0.0
C227 C 0.20071 0.04679 0.76761 0.0
C228 C 0.20722 0.01721 0.81792 0.0
C229 C 0.24082 0.05092 0.72891 0.0
C230 C 0.28763 0.02457 0.73929 0.0
C231 C 0.2939 0.99396 0.78887 0.0
C232 C 0.25419 0.99089 0.82829 0.0
H233 H 0.979 0.43095 0.63416 0.0
H234 H 0.93239 0.28456 0.54879 0.0
H235 H 1.00895 0.37565 0.7142 0.0
H236 H 0.96146 0.22979 0.62806 0.0
H237 H 0.06325 0.14025 0.74546 0.0
H238 H 0.04275 0.20388 0.66984 0.0
H239 H 0.977 0.31471 0.79011 0.0
H240 H 0.99854 0.25142 0.86626 0.0
C241 C 0.97481 0.38708 0.63282 0.0
C242 C 0.95413 0.36187 0.58513 0.0
C243 C 0.99195 0.35549 0.67842 0.0
C244 C 0.98847 0.29832 0.67689 0.0
C245 C 0.96614 0.27358 0.62984 0.0
C246 C 0.94927 0.30495 0.58453 0.0
C247 C 0.04496 0.17844 0.75593 0.0
C248 C 0.03193 0.19048 0.81174 0.0
C249 C 0.03302 0.21481 0.71258 0.0
C250 C 1.00735 0.2638 0.72395 0.0
C251 C 0.99689 0.27734 0.78008 0.0
C252 C 1.00919 0.24101 0.82365 0.0
H253 H 0.76119 0.08481 0.54041 0.0
H254 H 0.64132 1.01087 0.64032 0.0
H255 H 0.82061 0.07549 0.61842 0.0
H256 H 0.70154 1.00026 0.71901 0.0
H257 H 0.81447 0.04269 0.86313 0.0
H258 H 0.75119 0.05016 0.78807 0.0
H259 H 0.86668 1.00541 0.66671 0.0
H260 H 0.93015 0.99932 0.74125 0.0
C261 C 0.74773 0.06602 0.57911 0.0
C262 C 0.69687 0.04776 0.58407 0.0
C263 C 0.78186 0.06046 0.6238 0.0
C264 C 0.76621 0.03622 0.67474 0.0
C265 C 0.71483 0.01925 0.68039 0.0
C266 C 0.68036 0.02518 0.63545 0.0
C267 C 0.82637 0.03421 0.82045 0.0
C268 C 0.87764 0.02092 0.80823 0.0
C269 C 0.78993 0.03825 0.77744 0.0
C270 C 0.80387 0.02889 0.72124 0.0
C271 C 0.85482 1.01411 0.70934 0.0
C272 C 0.89126 1.01041 0.7522 0.0
H273 H 0.34559 0.438 0.91431 0.0
H274 H 0.41301 0.37549 0.06765 0.0
H275 H 0.28862 0.35937 0.91102 0.0
H276 H 0.35628 0.29631 0.06386 0.0
H277 H 0.26779 0.13982 0.01359 0.0
H278 H 0.33206 0.21259 0.01134 0.0
H279 H 0.21456 0.32866 0.96627 0.0
H280 H 0.15075 0.25657 0.96806 0.0
C281 C 0.34854 0.40735 0.94721 0.0
C282 C 0.38373 0.41366 -0.00844 0.0
C283 C 0.31575 0.36221 0.94534 0.0
C284 C 0.31727 0.32173 0.98758 0.0
C285 C 0.35418 0.3265 0.03044 0.0
C286 C 0.3869 0.37192 0.03249 0.0
C287 C 0.25567 0.18081 0.00298 0.0
C288 C 0.20384 0.19203 -0.00897 0.0
C289 C 0.29255 0.22262 0.00198 0.0
C290 C 0.27865 0.27656 -0.01168 0.0
C291 C 0.22692 0.28756 0.97613 0.0
C292 C 0.19011 0.24607 0.97763 0.0
H293 H 0.41214 0.65446 0.06871 0.0
H294 H 0.34425 0.59481 0.91549 0.0
H295 H 0.35495 0.7332 0.06568 0.0
H296 H 0.28673 0.67296 0.91304 0.0
H297 H 0.14896 0.77442 0.97103 0.0
H298 H 0.21274 0.70237 0.96896 0.0
H299 H 0.33055 0.81779 0.01323 0.0
H300 H 0.26643 0.89044 0.01572 0.0
C301 C 0.38581 0.65856 0.03375 0.0
C302 C 0.38271 0.61774 -0.00739 0.0
C303 C 0.3528 0.70373 0.03215 0.0
C304 C 0.31564 0.70914 -0.01044 0.0
C305 C 0.31407 0.66958 0.94716 0.0
C306 C 0.34718 0.62471 0.94855 0.0
C307 C 0.18838 0.78475 0.98044 0.0
C308 C 0.20225 0.83857 -0.00632 0.0
C309 C 0.22516 0.7433 0.97877 0.0
C310 C 0.27697 0.75416 -0.00937 0.0
C311 C 0.29098 0.80786 0.00417 0.0
C312 C 0.25416 0.8496 0.00534 0.0
H313 H 0.64544 0.36686 0.95981 0.0
H314 H 0.76124 0.45614 0.05 0.0
H315 H 0.70301 0.28778 0.95566 0.0
H316 H 0.81791 0.37788 0.04681 0.0
H317 H 0.93056 0.2589 0.97574 0.0
H318 H 0.86857 0.33217 0.97868 0.0
H319 H 0.74726 0.21584 0.00923 0.0
H320 H 0.80968 0.14156 0.00512 0.0
C321 C 0.68292 0.3694 0.97917 0.0
C322 C 0.69911 0.41817 0.00422 0.0
C323 C 0.71592 0.3241 0.97691 0.0
C324 C 0.76567 0.32659 -3e-05 0.0
C325 C 0.78065 0.37476 0.02704 0.0
C326 C 0.74801 0.41975 0.02902 0.0
C327 C 0.89076 0.24853 0.98314 0.0
C328 C 0.8755 0.19395 -0.00928 0.0
C329 C 0.85503 0.29087 0.98512 0.0
C330 C 0.80277 0.28028 -0.00496 0.0
C331 C 0.78709 0.22564 0.00129 0.0
C332 C 0.82301 0.183 -0.00083 0.0
H333 H 0.6614 0.65887 0.06425 0.0
H334 H 0.73026 0.59606 0.91298 0.0
H335 H 0.71851 0.73785 0.05962 0.0
H336 H 0.78757 0.67445 0.90881 0.0
H337 H 0.92591 0.77539 0.96698 0.0
H338 H 0.86132 0.70396 0.96517 0.0
H339 H 0.74426 0.82133 0.00579 0.0
H340 H 0.80918 0.89332 0.00802 0.0
C341 C 0.68783 0.66242 0.02929 0.0
C342 C 0.69142 0.62062 -0.01071 0.0
C343 C 0.7208 0.70768 0.02677 0.0
C344 C 0.75831 0.71215 0.98437 0.0
C345 C 0.76 0.67179 0.9428 0.0
C346 C 0.72697 0.62684 0.94512 0.0
C347 C 0.88647 0.78627 0.97555 0.0
C348 C 0.87301 0.84041 0.98766 0.0
C349 C 0.84924 0.74519 0.97404 0.0
C350 C 0.7974 0.7568 0.985 0.0
C351 C 0.78382 0.81086 -0.00261 0.0
C352 C 0.82108 0.8522 -0.00164 0.0
loop_
_geom_bond_atom_site_label_1
_geom_bond_atom_site_label_2
_geom_bond_distance
_geom_bond_site_symmetry_2
_ccdc_geom_bond_type
H0 C8 0.930 . S
H1 C11 0.930 . S
H2 C13 0.930 . S
H3 C14 0.970 . S
H4 C14 0.970 . S
H5 C16 0.930 . S
H6 C18 0.930 . S
H7 C20 0.930 . S
C8 H0 0.930 . S
C8 C9 1.382 . S
C8 C10 1.426 . S
C9 C8 1.382 . S
C9 C13 1.389 1_655 S
C10 C8 1.426 . S
C10 C11 1.375 . S
C10 C14 1.532 . S
C11 H1 0.930 . S
C11 C10 1.375 . S
C11 C12 1.416 . S
C12 C11 1.416 . S
C12 C13 1.371 1_655 S
C13 H2 0.930 . S
C13 C9 1.389 1_455 S
C13 C12 1.371 1_455 S
C14 H3 0.970 . S
C14 H4 0.970 . S
C14 C10 1.532 . S
C14 C15 1.499 . S
C15 C14 1.499 . S
C15 C16 1.370 . S
C15 C20 1.415 . S
C16 H5 0.930 . S
C16 C15 1.370 . S
C16 C17 1.407 . S
C17 C16 1.407 . S
C17 C18 1.365 1_655 S
C18 H6 0.930 . S
C18 C17 1.365 1_455 S
C18 C19 1.393 1_455 S
C19 C18 1.393 1_655 S
C19 C20 1.387 . S
C20 H7 0.930 . S
C20 C15 1.415 . S
C20 C19 1.387 . S
H21 C29 0.930 . S
H22 C32 0.930 . S
H23 C34 0.932 . S
H24 C35 0.970 . S
H25 C35 0.970 . S
H26 C37 0.930 . S
H27 C39 0.930 . S
H28 C41 0.930 . S
C29 H21 0.930 . S
C29 C30 1.382 . S
C29 C31 1.426 . S
C30 C29 1.382 . S
C30 C34 1.387 1_545 S
C31 C29 1.426 . S
C31 C32 1.375 . S
C31 C35 1.532 . S
C32 H22 0.930 . S
C32 C31 1.375 . S
C32 C33 1.416 . S
C33 C32 1.416 . S
C33 C34 1.370 1_545 S
C34 H23 0.932 . S
C34 C30 1.387 1_565 S
C34 C33 1.370 1_565 S
C35 H24 0.970 . S
C35 H25 0.970 . S
C35 C31 1.532 . S
C35 C36 1.499 . S
C36 C35 1.499 . S
C36 C37 1.370 . S
C36 C41 1.415 . S
C37 H26 0.930 . S
C37 C36 1.370 . S
C37 C38 1.407 . S
C38 C37 1.407 . S
C38 C39 1.365 1_545 S
C39 H27 0.930 . S
C39 C38 1.365 1_565 S
C39 C40 1.393 1_565 S
C40 C39 1.393 1_545 S
C40 C41 1.387 . S
C41 H28 0.930 . S
C41 C36 1.415 . S
C41 C40 1.387 . S
H42 C50 0.930 . S
H43 C53 0.930 . S
H44 C55 0.930 . S
H45 C56 0.970 . S
H46 C56 0.970 . S
H47 C58 0.930 . S
H48 C60 0.930 . S
H49 C62 0.930 . S
C50 H42 0.930 . S
C50 C51 1.382 . S
C50 C52 1.426 . S
C51 C50 1.382 . S
C51 C55 1.389 1_554 S
C52 C50 1.426 . S
C52 C53 1.375 . S
C52 C56 1.532 . S
C53 H43 0.930 . S
C53 C52 1.375 . S
C53 C54 1.416 . S
C54 C53 1.416 . S
C54 C55 1.371 1_554 S
C55 H44 0.930 . S
C55 C51 1.389 1_556 S
C55 C54 1.371 1_556 S
C56 H45 0.970 . S
C56 H46 0.970 . S
C56 C52 1.532 . S
C56 C57 1.499 . S
C57 C56 1.499 . S
C57 C58 1.370 . S
C57 C62 1.415 . S
C58 H47 0.930 . S
C58 C57 1.370 . S
C58 C59 1.407 . S
C59 C58 1.407 . S
C59 C60 1.365 1_554 S
C60 H48 0.930 . S
C60 C59 1.365 1_556 S
C60 C61 1.393 1_556 S
C61 C60 1.393 1_554 S
C61 C62 1.387 . S
C62 H49 0.930 . S
C62 C57 1.415 . S
C62 C61 1.387 . S
C63 O89 1.283 . S
C63 O107 1.283 . S
C64 O90 1.283 . S
C64 O105 1.283 1_455 S
C65 O91 1.283 . S
C65 O108 1.283 . S
C66 O92 1.283 . S
C66 O106 1.283 . S
C67 O93 1.283 . S
C67 O102 1.283 . S
C68 O94 1.283 . S
C68 O104 1.283 . S
C69 O95 1.283 . S
C69 O101 1.283 . S
C70 O96 1.283 . S
C70 O103 1.283 . S
C71 O97 1.283 . S
C71 O112 1.283 . S
C72 O98 1.283 . S
C72 O110 1.283 . S
C73 O99 1.283 . S
C73 O111 1.283 . S
C74 O100 1.283 . S
C74 O109 1.283 . S
Eu75 O76 2.374 . S
Eu75 O77 2.366 1_454 S
Eu75 O80 2.374 1_554 S
Eu75 O81 2.366 1_455 S
Eu75 O89 2.363 1_554 S
Eu75 O90 2.363 . S
Eu75 O103 2.356 1_455 S
Eu75 O104 2.370 . S
O76 Eu75 2.374 . S
O76 Eu78 2.370 . S
O76 Eu83 2.369 1_455 S
O77 Eu75 2.366 1_656 S
O77 Eu79 2.370 1_556 S
O77 Eu82 2.365 1_655 S
Eu78 O76 2.370 . S
Eu78 O80 2.370 1_554 S
Eu78 O84 2.370 1_544 S
Eu78 O85 2.370 1_545 S
Eu78 O93 2.363 1_545 S
Eu78 O94 2.363 . S
Eu78 O109 2.363 1_554 S
Eu78 O110 2.363 . S
Eu79 O77 2.370 1_554 S
Eu79 O81 2.370 . S
Eu79 O86 2.370 1_545 S
Eu79 O87 2.370 1_544 S
Eu79 O95 2.363 1_545 S
Eu79 O96 2.363 . S
Eu79 O111 2.363 1_554 S
Eu79 O112 2.363 . S
O80 Eu75 2.374 1_556 S
O80 Eu78 2.370 1_556 S
O80 Eu82 2.375 . S
O81 Eu75 2.366 1_655 S
O81 Eu79 2.370 . S
O81 Eu83 2.371 . S
Eu82 O77 2.365 1_455 S
Eu82 O80 2.375 . S
Eu82 O84 2.375 1_545 S
Eu82 O87 2.365 1_445 S
Eu82 O99 2.355 1_455 S
Eu82 O100 2.371 . S
Eu82 O107 2.363 . S
Eu82 O108 2.363 1_545 S
Eu83 O76 2.369 1_655 S
Eu83 O81 2.371 . S
Eu83 O85 2.369 1_645 S
Eu83 O86 2.371 1_545 S
Eu83 O97 2.364 . S
Eu83 O98 2.361 1_655 S
Eu83 O105 2.363 . S
Eu83 O106 2.363 1_545 S
O84 Eu78 2.370 1_566 S
O84 Eu82 2.375 1_565 S
O84 Eu88 2.370 1_456 S
O85 Eu78 2.370 1_565 S
O85 Eu83 2.369 1_465 S
O85 Eu88 2.370 1_455 S
O86 Eu79 2.370 1_565 S
O86 Eu83 2.371 1_565 S
O86 Eu88 2.370 . S
O87 Eu79 2.370 1_566 S
O87 Eu82 2.365 1_665 S
O87 Eu88 2.370 1_556 S
Eu88 O84 2.370 1_654 S
Eu88 O85 2.370 1_655 S
Eu88 O86 2.370 . S
Eu88 O87 2.370 1_554 S
Eu88 O91 2.363 1_654 S
Eu88 O92 2.363 . S
Eu88 O101 2.364 . S
Eu88 O102 2.362 1_655 S
O89 C63 1.283 . S
O89 Eu75 2.363 1_556 S
O90 C64 1.283 . S
O90 Eu75 2.363 . S
O91 C65 1.283 . S
O91 Eu88 2.363 1_456 S
O92 C66 1.283 . S
O92 Eu88 2.363 . S
O93 C67 1.283 . S
O93 Eu78 2.363 1_565 S
O94 C68 1.283 . S
O94 Eu78 2.363 . S
O95 C69 1.283 . S
O95 Eu79 2.363 1_565 S
O96 C70 1.283 . S
O96 Eu79 2.363 . S
O97 C71 1.283 . S
O97 Eu83 2.364 . S
O98 C72 1.283 . S
O98 Eu83 2.361 1_455 S
O99 C73 1.283 . S
O99 Eu82 2.355 1_655 S
O100 C74 1.283 . S
O100 Eu82 2.371 . S
O101 C69 1.283 . S
O101 Eu88 2.364 . S
O102 C67 1.283 . S
O102 Eu88 2.362 1_455 S
O103 C70 1.283 . S
O103 Eu75 2.356 1_655 S
O104 C68 1.283 . S
O104 Eu75 2.370 . S
O105 C64 1.283 1_655 S
O105 Eu83 2.363 . S
O106 C66 1.283 . S
O106 Eu83 2.363 1_565 S
O107 C63 1.283 . S
O107 Eu82 2.363 . S
O108 C65 1.283 . S
O108 Eu82 2.363 1_565 S
O109 C74 1.283 . S
O109 Eu78 2.363 1_556 S
O110 C72 1.283 . S
O110 Eu78 2.363 . S
O111 C73 1.283 . S
O111 Eu79 2.363 1_556 S
O112 C71 1.283 . S
O112 Eu79 2.363 . S
H113 C121 0.950 . S
H114 C126 0.950 . S
H115 C123 0.950 . S
H116 C125 0.950 . S
H117 C127 0.950 . S
H118 C129 0.950 . S
H119 C131 0.950 . S
H120 C132 0.950 . S
C121 H113 0.950 . S
C121 C122 1.386 1_455 S
C121 C123 1.391 . S
C122 C121 1.386 1_655 S
C122 C126 1.393 . S
C123 H115 0.950 . S
C123 C121 1.391 . S
C123 C124 1.400 1_455 S
C124 C123 1.400 1_655 S
C124 C125 1.398 . S
C124 C130 1.491 . S
C125 H116 0.950 . S
C125 C124 1.398 . S
C125 C126 1.391 . S
C126 H114 0.950 . S
C126 C122 1.393 . S
C126 C125 1.391 . S
C127 H117 0.950 . S
C127 C128 1.402 . S
C127 C129 1.391 . S
C128 C127 1.402 . S
C128 C132 1.377 1_655 S
C129 H118 0.950 . S
C129 C127 1.391 . S
C129 C130 1.400 . S
C130 C124 1.491 . S
C130 C129 1.400 . S
C130 C131 1.398 1_655 S
C131 H119 0.950 . S
C131 C130 1.398 1_455 S
C131 C132 1.391 . S
C132 H120 0.950 . S
C132 C128 1.377 1_455 S
C132 C131 1.391 . S
H133 C141 0.950 . S
H134 C146 0.950 . S
H135 C143 0.950 . S
H136 C145 0.950 . S
H137 C147 0.950 . S
H138 C149 0.950 . S
H139 C151 0.950 . S
H140 C152 0.950 . S
C141 H133 0.950 . S
C141 C142 1.388 1_545 S
C141 C143 1.391 . S
C142 C141 1.388 1_565 S
C142 C146 1.391 . S
C143 H135 0.950 . S
C143 C141 1.391 . S
C143 C144 1.400 . S
C144 C143 1.400 . S
C144 C145 1.398 1_545 S
C144 C150 1.491 . S
C145 H136 0.950 . S
C145 C144 1.398 1_565 S
C145 C146 1.391 . S
C146 H134 0.950 . S
C146 C142 1.391 . S
C146 C145 1.391 . S
C147 H137 0.950 . S
C147 C148 1.386 1_565 S
C147 C149 1.391 . S
C148 C147 1.386 1_545 S
C148 C152 1.393 . S
C149 H138 0.950 . S
C149 C147 1.391 . S
C149 C150 1.400 1_565 S
C150 C144 1.491 . S
C150 C149 1.400 1_545 S
C150 C151 1.398 . S
C151 H139 0.950 . S
C151 C150 1.398 . S
C151 C152 1.391 . S
C152 H140 0.950 . S
C152 C148 1.393 . S
C152 C151 1.391 . S
H153 C161 0.950 . S
H154 C166 0.950 . S
H155 C163 0.950 . S
H156 C165 0.950 . S
H157 C167 0.950 . S
H158 C169 0.950 . S
H159 C171 0.950 . S
H160 C172 0.950 . S
C161 H153 0.950 . S
C161 C162 1.386 1_655 S
C161 C163 1.391 . S
C162 C161 1.386 1_455 S
C162 C166 1.393 . S
C163 H155 0.950 . S
C163 C161 1.391 . S
C163 C164 1.400 1_655 S
C164 C163 1.400 1_455 S
C164 C165 1.398 . S
C164 C170 1.491 . S
C165 H156 0.950 . S
C165 C164 1.398 . S
C165 C166 1.391 . S
C166 H154 0.950 . S
C166 C162 1.393 . S
C166 C165 1.391 . S
C167 H157 0.950 . S
C167 C168 1.375 1_455 S
C167 C169 1.391 . S
C168 C167 1.375 1_655 S
C168 C172 1.403 . S
C169 H158 0.950 . S
C169 C167 1.391 . S
C169 C170 1.400 . S
C170 C164 1.491 . S
C170 C169 1.400 . S
C170 C171 1.398 1_455 S
C171 H159 0.950 . S
C171 C170 1.398 1_655 S
C171 C172 1.391 . S
C172 H160 0.950 . S
C172 C168 1.403 . S
C172 C171 1.391 . S
H173 C181 0.950 . S
H174 C186 0.950 . S
H175 C183 0.950 . S
H176 C185 0.950 . S
H177 C187 0.950 . S
H178 C189 0.950 . S
H179 C191 0.950 . S
H180 C192 0.950 . S
C181 H173 0.950 . S
C181 C182 1.386 1_565 S
C181 C183 1.391 . S
C182 C181 1.386 1_545 S
C182 C186 1.393 . S
C183 H175 0.950 . S
C183 C181 1.391 . S
C183 C184 1.400 1_565 S
C184 C183 1.400 1_545 S
C184 C185 1.398 . S
C184 C190 1.491 . S
C185 H176 0.950 . S
C185 C184 1.398 . S
C185 C186 1.391 . S
C186 H174 0.950 . S
C186 C182 1.393 . S
C186 C185 1.391 . S
C187 H177 0.950 . S
C187 C188 1.386 . S
C187 C189 1.391 . S
C188 C187 1.386 . S
C188 C192 1.393 1_545 S
C189 H178 0.950 . S
C189 C187 1.391 . S
C189 C190 1.400 . S
C190 C184 1.491 . S
C190 C189 1.400 . S
C190 C191 1.398 1_545 S
C191 H179 0.950 . S
C191 C190 1.398 1_565 S
C191 C192 1.391 . S
C192 H180 0.950 . S
C192 C188 1.393 1_565 S
C192 C191 1.391 . S
H193 C201 0.950 . S
H194 C206 0.950 . S
H195 C203 0.950 . S
H196 C205 0.950 . S
H197 C207 0.950 . S
H198 C209 0.950 . S
H199 C211 0.950 . S
H200 C212 0.950 . S
C201 H193 0.950 . S
C201 C202 1.386 1_455 S
C201 C203 1.391 . S
C202 C201 1.386 1_655 S
C202 C206 1.393 . S
C203 H195 0.950 . S
C203 C201 1.391 . S
C203 C204 1.400 1_455 S
C204 C203 1.400 1_655 S
C204 C205 1.398 . S
C204 C210 1.491 . S
C205 H196 0.950 . S
C205 C204 1.398 . S
C205 C206 1.391 . S
C206 H194 0.950 . S
C206 C202 1.393 . S
C206 C205 1.391 . S
C207 H197 0.950 . S
C207 C208 1.386 . S
C207 C209 1.391 . S
C208 C207 1.386 . S
C208 C212 1.393 1_655 S
C209 H198 0.950 . S
C209 C207 1.391 . S
C209 C210 1.400 . S
C210 C204 1.491 . S
C210 C209 1.400 . S
C210 C211 1.398 1_655 S
C211 H199 0.950 . S
C211 C210 1.398 1_455 S
C211 C212 1.391 . S
C212 H200 0.950 . S
C212 C208 1.393 1_455 S
C212 C211 1.391 . S
H213 C221 0.950 . S
H214 C226 0.950 . S
H215 C223 0.950 . S
H216 C225 0.950 . S
H217 C227 0.950 . S
H218 C229 0.950 . S
H219 C231 0.950 . S
H220 C232 0.950 . S
C221 H213 0.950 . S
C221 C222 1.386 1_565 S
C221 C223 1.391 . S
C222 C221 1.386 1_545 S
C222 C226 1.393 . S
C223 H215 0.950 . S
C223 C221 1.391 . S
C223 C224 1.400 1_565 S
C224 C223 1.400 1_545 S
C224 C225 1.398 . S
C224 C230 1.491 . S
C225 H216 0.950 . S
C225 C224 1.398 . S
C225 C226 1.391 . S
C226 H214 0.950 . S
C226 C222 1.393 . S
C226 C225 1.391 . S
C227 H217 0.950 . S
C227 C228 1.386 . S
C227 C229 1.391 . S
C228 C227 1.386 . S
C228 C232 1.393 1_545 S
C229 H218 0.950 . S
C229 C227 1.391 . S
C229 C230 1.400 . S
C230 C224 1.491 . S
C230 C229 1.400 . S
C230 C231 1.398 1_545 S
C231 H219 0.950 . S
C231 C230 1.398 1_565 S
C231 C232 1.391 . S
C232 H220 0.950 . S
C232 C228 1.393 1_565 S
C232 C231 1.391 . S
H233 C241 0.950 . S
H234 C246 0.950 . S
H235 C243 0.950 . S
H236 C245 0.950 . S
H237 C247 0.950 . S
H238 C249 0.950 . S
H239 C251 0.950 . S
H240 C252 0.950 . S
C241 H233 0.950 . S
C241 C242 1.386 . S
C241 C243 1.391 . S
C242 C241 1.386 . S
C242 C246 1.393 1_455 S
C243 H235 0.950 . S
C243 C241 1.391 . S
C243 C244 1.400 . S
C244 C243 1.400 . S
C244 C245 1.398 1_455 S
C244 C250 1.491 . S
C245 H236 0.950 . S
C245 C244 1.398 1_655 S
C245 C246 1.391 . S
C246 H234 0.950 . S
C246 C242 1.393 1_655 S
C246 C245 1.391 . S
C247 H237 0.950 . S
C247 C248 1.386 1_655 S
C247 C249 1.391 . S
C248 C247 1.386 1_455 S
C248 C252 1.393 . S
C249 H238 0.950 . S
C249 C247 1.391 . S
C249 C250 1.400 1_655 S
C250 C244 1.491 . S
C250 C249 1.400 1_455 S
C250 C251 1.398 . S
C251 H239 0.950 . S
C251 C250 1.398 . S
C251 C252 1.391 . S
C252 H240 0.950 . S
C252 C248 1.393 . S
C252 C251 1.391 . S
H253 C261 0.950 . S
H254 C266 0.950 . S
H255 C263 0.950 . S
H256 C265 0.950 . S
H257 C267 0.950 . S
H258 C269 0.950 . S
H259 C271 0.950 . S
H260 C272 0.950 . S
C261 H253 0.950 . S
C261 C262 1.386 . S
C261 C263 1.391 . S
C262 C261 1.386 . S
C262 C266 1.393 1_545 S
C263 H255 0.950 . S
C263 C261 1.391 . S
C263 C264 1.400 . S
C264 C263 1.400 . S
C264 C265 1.398 1_545 S
C264 C270 1.491 . S
C265 H256 0.950 . S
C265 C264 1.398 1_565 S
C265 C266 1.391 . S
C266 H254 0.950 . S
C266 C262 1.393 1_565 S
C266 C265 1.391 . S
C267 H257 0.950 . S
C267 C268 1.386 1_565 S
C267 C269 1.391 . S
C268 C267 1.386 1_545 S
C268 C272 1.393 . S
C269 H258 0.950 . S
C269 C267 1.391 . S
C269 C270 1.400 1_565 S
C270 C264 1.491 . S
C270 C269 1.400 1_545 S
C270 C271 1.398 . S
C271 H259 0.950 . S
C271 C270 1.398 . S
C271 C272 1.391 . S
C272 H260 0.950 . S
C272 C268 1.393 . S
C272 C271 1.391 . S
H273 C281 0.950 . S
H274 C286 0.950 . S
H275 C283 0.950 . S
H276 C285 0.950 . S
H277 C287 0.950 . S
H278 C289 0.950 . S
H279 C291 0.950 . S
H280 C292 0.950 . S
C281 H273 0.950 . S
C281 C282 1.386 . S
C281 C283 1.391 . S
C282 C281 1.386 . S
C282 C286 1.393 1_556 S
C283 H275 0.950 . S
C283 C281 1.391 . S
C283 C284 1.403 . S
C284 C283 1.403 . S
C284 C285 1.396 1_556 S
C284 C290 1.490 1_556 S
C285 H276 0.950 . S
C285 C284 1.396 1_554 S
C285 C286 1.391 . S
C286 H274 0.950 . S
C286 C282 1.393 1_554 S
C286 C285 1.391 . S
C287 H277 0.950 . S
C287 C288 1.386 . S
C287 C289 1.391 . S
C288 C287 1.386 . S
C288 C292 1.393 1_554 S
C289 H278 0.950 . S
C289 C287 1.391 . S
C289 C290 1.400 . S
C290 C284 1.490 1_554 S
C290 C289 1.400 . S
C290 C291 1.398 1_554 S
C291 H279 0.950 . S
C291 C290 1.398 1_556 S
C291 C292 1.391 . S
C292 H280 0.950 . S
C292 C288 1.393 1_556 S
C292 C291 1.391 . S
H293 C301 0.950 . S
H294 C306 0.950 . S
H295 C303 0.950 . S
H296 C305 0.950 . S
H297 C307 0.950 . S
H298 C309 0.950 . S
H299 C311 0.950 . S
H300 C312 0.950 . S
C301 H293 0.950 . S
C301 C302 1.386 . S
C301 C303 1.391 . S
C302 C301 1.386 . S
C302 C306 1.393 1_554 S
C303 H295 0.950 . S
C303 C301 1.391 . S
C303 C304 1.400 . S
C304 C303 1.400 . S
C304 C305 1.398 1_554 S
C304 C310 1.491 . S
C305 H296 0.950 . S
C305 C304 1.398 1_556 S
C305 C306 1.391 . S
C306 H294 0.950 . S
C306 C302 1.393 1_556 S
C306 C305 1.391 . S
C307 H297 0.950 . S
C307 C308 1.386 1_556 S
C307 C309 1.391 . S
C308 C307 1.386 1_554 S
C308 C312 1.393 . S
C309 H298 0.950 . S
C309 C307 1.391 . S
C309 C310 1.400 1_556 S
C310 C304 1.491 . S
C310 C309 1.400 1_554 S
C310 C311 1.398 . S
C311 H299 0.950 . S
C311 C310 1.398 . S
C311 C312 1.391 . S
C312 H300 0.950 . S
C312 C308 1.393 . S
C312 C311 1.391 . S
H313 C321 0.950 . S
H314 C326 0.950 . S
H315 C323 0.950 . S
H316 C325 0.950 . S
H317 C327 0.950 . S
H318 C329 0.950 . S
H319 C331 0.950 . S
H320 C332 0.950 . S
C321 H313 0.950 . S
C321 C322 1.386 1_556 S
C321 C323 1.391 . S
C322 C321 1.386 1_554 S
C322 C326 1.393 . S
C323 H315 0.950 . S
C323 C321 1.391 . S
C323 C324 1.400 1_556 S
C324 C323 1.400 1_554 S
C324 C325 1.398 . S
C324 C330 1.491 . S
C325 H316 0.950 . S
C325 C324 1.398 . S
C325 C326 1.391 . S
C326 H314 0.950 . S
C326 C322 1.393 . S
C326 C325 1.391 . S
C327 H317 0.950 . S
C327 C328 1.386 . S
C327 C329 1.391 . S
C328 C327 1.386 . S
C328 C332 1.393 1_554 S
C329 H318 0.950 . S
C329 C327 1.391 . S
C329 C330 1.400 . S
C330 C324 1.491 . S
C330 C329 1.400 . S
C330 C331 1.398 1_554 S
C331 H319 0.950 . S
C331 C330 1.398 1_556 S
C331 C332 1.391 . S
C332 H320 0.950 . S
C332 C328 1.393 1_556 S
C332 C331 1.391 . S
H333 C341 0.950 . S
H334 C346 0.950 . S
H335 C343 0.950 . S
H336 C345 0.950 . S
H337 C347 0.950 . S
H338 C349 0.950 . S
H339 C351 0.950 . S
H340 C352 0.950 . S
C341 H333 0.950 . S
C341 C342 1.394 . S
C341 C343 1.391 . S
C342 C341 1.394 . S
C342 C346 1.385 1_554 S
C343 H335 0.950 . S
C343 C341 1.391 . S
C343 C344 1.400 . S
C344 C343 1.400 . S
C344 C345 1.398 1_554 S
C344 C350 1.491 . S
C345 H336 0.950 . S
C345 C344 1.398 1_556 S
C345 C346 1.391 . S
C346 H334 0.950 . S
C346 C342 1.385 1_556 S
C346 C345 1.391 . S
C347 H337 0.950 . S
C347 C348 1.386 1_556 S
C347 C349 1.391 . S
C348 C347 1.386 1_554 S
C348 C352 1.393 . S
C349 H338 0.950 . S
C349 C347 1.391 . S
C349 C350 1.400 1_556 S
C350 C344 1.491 . S
C350 C349 1.400 1_554 S
C350 C351 1.398 . S
C351 H339 0.950 . S
C351 C350 1.398 . S
C351 C352 1.391 . S
C352 H340 0.950 . S
C352 C348 1.393 . S
C352 C351 1.391 . S
C128 C64 1.193 1_655 S
C122 C9 1.164 . S
C148 C71 1.557 . S
C142 C38 1.494 1_565 S
C168 C66 1.209 . S
C162 C17 1.164 1_455 S
C188 C72 1.539 . S
C182 C30 1.495 . S
C202 C19 1.164 . S
C208 C65 1.184 1_655 S
C228 C74 1.555 . S
C222 C33 1.495 . S
C242 C12 1.153 1_455 S
C248 C63 1.205 . S
C262 C40 1.499 . S
C268 C73 1.531 . S
C282 C59 1.886 1_556 S
C288 C68 1.931 . S
C302 C61 1.880 . S
C308 C67 1.903 . S
C328 C70 1.913 . S
C322 C51 1.871 . S
C348 C69 1.928 . S
C342 C54 1.855 . S
