# Generated by pormake.
# Topology zzz, (3,6)-cn, num edge types: 1
# Building blocks:
#     Node 0, Type 0, BuildingBlock: KAKCAD_clean_linker_0, # of connection points: 3
#     Node 1, Type 0, BuildingBlock: KAKCAD_clean_linker_0, # of connection points: 3
#     Node 2, Type 0, BuildingBlock: KAKCAD_clean_linker_0, # of connection points: 3
#     Node 3, Type 0, BuildingBlock: KAKCAD_clean_linker_0, # of connection points: 3
#     Node 4, Type 0, BuildingBlock: KAKCAD_clean_linker_0, # of connection points: 3
#     Node 5, Type 0, BuildingBlock: KAKCAD_clean_linker_0, # of connection points: 3
#     Node 6, Type 0, BuildingBlock: KAKCAD_clean_linker_0, # of connection points: 3
#     Node 7, Type 0, BuildingBlock: KAKCAD_clean_linker_0, # of connection points: 3
#     Node 8, Type 1, BuildingBlock: HISSIN_clean_sbu_0, # of connection points: 6
#     Node 9, Type 1, BuildingBlock: HISSIN_clean_sbu_0, # of connection points: 6
#     Node 10, Type 1, BuildingBlock: HISSIN_clean_sbu_0, # of connection points: 6
#     Node 11, Type 1, BuildingBlock: HISSIN_clean_sbu_0, # of connection points: 6
#     Edge 12, Type (0, 1), BuildingBlock: KIFKEQ_clean_linker_1, # of connection points: 2
#     Edge 13, Type (0, 1), BuildingBlock: KIFKEQ_clean_linker_1, # of connection points: 2
#     Edge 14, Type (0, 1), BuildingBlock: KIFKEQ_clean_linker_1, # of connection points: 2
#     Edge 15, Type (0, 1), BuildingBlock: KIFKEQ_clean_linker_1, # of connection points: 2
#     Edge 16, Type (0, 1), BuildingBlock: KIFKEQ_clean_linker_1, # of connection points: 2
#     Edge 17, Type (0, 1), BuildingBlock: KIFKEQ_clean_linker_1, # of connection points: 2
#     Edge 18, Type (0, 1), BuildingBlock: KIFKEQ_clean_linker_1, # of connection points: 2
#     Edge 19, Type (0, 1), BuildingBlock: KIFKEQ_clean_linker_1, # of connection points: 2
#     Edge 20, Type (0, 1), BuildingBlock: KIFKEQ_clean_linker_1, # of connection points: 2
#     Edge 21, Type (0, 1), BuildingBlock: KIFKEQ_clean_linker_1, # of connection points: 2
#     Edge 22, Type (0, 1), BuildingBlock: KIFKEQ_clean_linker_1, # of connection points: 2
#     Edge 23, Type (0, 1), BuildingBlock: KIFKEQ_clean_linker_1, # of connection points: 2
#     Edge 24, Type (0, 1), BuildingBlock: KIFKEQ_clean_linker_1, # of connection points: 2
#     Edge 25, Type (0, 1), BuildingBlock: KIFKEQ_clean_linker_1, # of connection points: 2
#     Edge 26, Type (0, 1), BuildingBlock: KIFKEQ_clean_linker_1, # of connection points: 2
#     Edge 27, Type (0, 1), BuildingBlock: KIFKEQ_clean_linker_1, # of connection points: 2
#     Edge 28, Type (0, 1), BuildingBlock: KIFKEQ_clean_linker_1, # of connection points: 2
#     Edge 29, Type (0, 1), BuildingBlock: KIFKEQ_clean_linker_1, # of connection points: 2
#     Edge 30, Type (0, 1), BuildingBlock: KIFKEQ_clean_linker_1, # of connection points: 2
#     Edge 31, Type (0, 1), BuildingBlock: KIFKEQ_clean_linker_1, # of connection points: 2
#     Edge 32, Type (0, 1), BuildingBlock: KIFKEQ_clean_linker_1, # of connection points: 2
#     Edge 33, Type (0, 1), BuildingBlock: KIFKEQ_clean_linker_1, # of connection points: 2
#     Edge 34, Type (0, 1), BuildingBlock: KIFKEQ_clean_linker_1, # of connection points: 2
#     Edge 35, Type (0, 1), BuildingBlock: KIFKEQ_clean_linker_1, # of connection points: 2
# Relax obj value: 0.388
# Max RMSD: 0.221
# Mean RMSD: 0.190
data_MOF--net-zzz--node1-HISSIN_clean_sbu_0--node2-KAKCAD_clean_linker_0--edge1-KIFKEQ_clean_linker_1
_symmetry_space_group_name_H-M    P1
_symmetry_Int_Tables_number       1
_symmetry_cell_setting            triclinic
loop_
_symmetry_equiv_pos_as_xyz
'x, y, z'
_cell_length_a     57.236019
_cell_length_b     57.588728
_cell_length_c     21.936665
_cell_angle_alpha  89.799818
_cell_angle_beta   91.638469
_cell_angle_gamma 91.688804
loop_
_atom_site_label
_atom_site_type_symbol
_atom_site_fract_x
_atom_site_fract_y
_atom_site_fract_z
_atom_type_partial_charge
C0 C 0.79885 0.60245 0.06934 0.0
C1 C 0.82149 0.59406 0.0779 0.0
C2 C 0.78228 0.59909 0.11457 0.0
C3 C 0.78791 0.58665 0.16826 0.0
C4 C 0.81109 0.57959 0.17765 0.0
C5 C 0.82765 0.5835 0.1335 0.0
C6 C 0.76955 0.57834 0.21081 0.0
C7 C 0.74701 0.57198 0.18891 0.0
C8 C 0.731 0.55996 0.22591 0.0
C9 C 0.73829 0.553 0.28527 0.0
C10 C 0.76067 0.56006 0.30841 0.0
C11 C 0.77547 0.57355 0.27185 0.0
C12 C 0.77104 0.55189 0.36718 0.0
C13 C 0.77804 0.56844 0.41149 0.0
C14 C 0.78116 0.52996 0.36949 0.0
C15 C 0.79956 0.52551 0.41123 0.0
C16 C 0.80825 0.54297 0.45138 0.0
C17 C 0.70728 0.55443 0.19903 0.0
C18 C 0.69481 0.57225 0.17014 0.0
C19 C 0.69871 0.53143 0.19278 0.0
C20 C 0.6789 0.5263 0.1552 0.0
C21 C 0.66723 0.54409 0.12323 0.0
C22 C 0.67517 0.56719 0.13278 0.0
C23 C 0.79637 0.56401 0.45321 0.0
H24 H 0.79371 0.61065 0.02671 0.0
H25 H 0.76482 0.60533 0.10614 0.0
H26 H 0.81629 0.56943 0.21704 0.0
H27 H 0.84481 0.57636 0.14094 0.0
H28 H 0.74209 0.57526 0.14168 0.0
H29 H 0.79251 0.57903 0.29037 0.0
H30 H 0.72669 0.54256 0.31315 0.0
H31 H 0.77085 0.58563 0.41002 0.0
H32 H 0.77654 0.51712 0.33489 0.0
H33 H 0.80827 0.50913 0.40826 0.0
H34 H 0.70104 0.59016 0.17398 0.0
H35 H 0.70807 0.51733 0.21407 0.0
H36 H 0.80222 0.57769 0.48431 0.0
H37 H 0.66704 0.58142 0.10874 0.0
H38 H 0.67312 0.50833 0.14991 0.0
C39 C 0.92029 0.78217 1.00746 0.0
C40 C 0.92465 0.80629 1.00859 0.0
C41 C 0.92597 0.76858 0.05853 0.0
C42 C 0.93675 0.77884 0.11086 0.0
C43 C 0.93864 0.80324 0.11365 0.0
C44 C 0.93243 0.81674 0.06351 0.0
C45 C 0.94964 0.76467 0.15724 0.0
C46 C 0.96124 0.74482 0.13929 0.0
C47 C 0.97769 0.73418 0.17795 0.0
C48 C 0.98322 0.7441 0.23586 0.0
C49 C 0.97119 0.76385 0.25538 0.0
C50 C 0.95383 0.7731 0.21657 0.0
C51 C 0.9777 0.77745 0.31178 0.0
C52 C 0.9599 0.7852 0.34912 0.0
C53 C 1.00027 0.78754 0.31985 0.0
C54 C 1.00439 0.8062 0.36059 0.0
C55 C 0.98598 0.81529 0.39364 0.0
C56 C 0.98945 0.71369 0.15273 0.0
C57 C 0.98135 0.69105 0.16661 0.0
C58 C 1.00368 0.7169 0.102 0.0
C59 C 1.00835 0.69828 0.06364 0.0
C60 C 0.99892 0.67587 0.07486 0.0
C61 C 0.98617 0.6723 0.12834 0.0
C62 C 0.96393 0.80391 0.38907 0.0
H63 H 0.91404 0.77369 0.96587 0.0
H64 H 0.92339 0.74992 0.0553 0.0
H65 H 0.94704 0.8121 0.15212 0.0
H66 H 0.93629 0.83525 0.06597 0.0
H67 H 0.95853 0.73813 0.09346 0.0
H68 H 0.94467 0.78819 0.23131 0.0
H69 H 0.99682 0.73682 0.26475 0.0
H70 H 0.94231 0.77784 0.34408 0.0
H71 H 0.01427 0.78229 0.29121 0.0
H72 H 0.02161 0.81451 0.36304 0.0
H73 H 0.9698 0.68816 0.20434 0.0
H74 H 1.00976 0.73421 0.08943 0.0
H75 H 0.94946 0.81013 0.41463 0.0
H76 H 0.97855 0.65533 0.13838 0.0
H77 H 0.01855 0.70166 0.02356 0.0
C78 C 0.75236 0.91367 1.00492 0.0
C79 C 0.72821 0.91708 1.00093 0.0
C80 C 0.76497 0.91919 0.05877 0.0
C81 C 0.75374 0.92934 0.10816 0.0
C82 C 0.7291 0.92923 0.10658 0.0
C83 C 0.7165 0.9228 0.05385 0.0
C84 C 0.76718 0.94421 0.15373 0.0
C85 C 0.78784 0.95596 0.13676 0.0
C86 C 0.79808 0.9739 0.17224 0.0
C87 C 0.7868 0.98101 0.2256 0.0
C88 C 0.7663 0.96884 0.24473 0.0
C89 C 0.75748 0.94998 0.20961 0.0
C90 C 0.75194 0.97606 0.29732 0.0
C91 C 0.74434 0.95919 0.33961 0.0
C92 C 0.74137 0.99782 0.29764 0.0
C93 C 0.72264 1.00198 0.3363 0.0
C94 C 0.71391 0.98441 0.37531 0.0
C95 C 0.81989 0.98501 0.14823 0.0
C96 C 0.84108 0.97338 0.15518 0.0
C97 C 0.81823 1.00227 0.10296 0.0
C98 C 0.83681 1.0069 0.06358 0.0
C99 C 0.85755 0.99423 0.06791 0.0
C100 C 0.85968 0.978 0.11592 0.0
C101 C 0.72566 0.96327 0.37783 0.0
H102 H 0.76174 0.90895 0.96481 0.0
H103 H 0.78375 0.91754 0.05923 0.0
H104 H 0.71935 0.93662 0.14286 0.0
H105 H 0.69784 0.92557 0.05212 0.0
H106 H 0.79563 0.95222 0.09361 0.0
H107 H 0.74193 0.94067 0.2244 0.0
H108 H 0.79387 0.99563 0.25179 0.0
H109 H 0.752 0.94221 0.34052 0.0
H110 H 0.74645 0.01105 0.26497 0.0
H111 H 0.7141 0.01848 0.33287 0.0
H112 H 0.84261 0.9594 0.1881 0.0
H113 H 0.80191 0.01101 0.09511 0.0
H114 H 0.71991 0.94948 0.40808 0.0
H115 H 0.87512 0.96767 0.12078 0.0
H116 H 0.8345 0.01982 0.02811 0.0
C117 C 0.4979 0.72342 0.37374 0.0
C118 C 0.51689 0.70853 0.37045 0.0
C119 C 0.49387 0.74013 0.32851 0.0
C120 C 0.50877 0.74255 0.27894 0.0
C121 C 0.52885 0.7291 0.27811 0.0
C122 C 0.53289 0.71225 0.32346 0.0
C123 C 0.50032 0.75453 0.22262 0.0
C124 C 0.51315 0.77261 0.19379 0.0
C125 C 0.50492 0.78177 0.1375 0.0
C126 C 0.48416 0.77245 0.11048 0.0
C127 C 0.47143 0.75439 0.13829 0.0
C128 C 0.47939 0.74599 0.19497 0.0
C129 C 0.45137 0.74266 0.10505 0.0
C130 C 0.43587 0.75525 0.06745 0.0
C131 C 0.44893 0.71831 0.10646 0.0
C132 C 0.43227 0.7068 0.06922 0.0
C133 C 0.41769 0.71925 0.02909 0.0
C134 C 0.51743 0.80083 0.10445 0.0
C135 C 0.52125 0.8228 0.13109 0.0
C136 C 0.52177 0.79821 0.04211 0.0
C137 C 0.52809 0.81735 1.00619 0.0
C138 C 0.53035 0.83974 0.03157 0.0
C139 C 0.52763 0.84207 0.09502 0.0
C140 C 0.41928 0.74365 0.02953 0.0
H141 H 0.48551 0.72146 0.40993 0.0
H142 H 0.4782 0.7502 0.33015 0.0
H143 H 0.54041 0.73031 0.2399 0.0
H144 H 0.54767 0.70111 0.31931 0.0
H145 H 0.52943 0.77922 0.21441 0.0
H146 H 0.46967 0.732 0.21689 0.0
H147 H 0.47825 0.77897 0.06644 0.0
H148 H 0.437 0.77405 0.066 0.0
H149 H 0.46079 0.70794 0.13368 0.0
H150 H 0.43192 0.68798 0.0691 0.0
H151 H 0.5179 0.82536 0.17891 0.0
H152 H 0.51896 0.78146 0.02032 0.0
H153 H 0.4082 0.7537 0.99928 0.0
H154 H 0.52966 0.85892 0.11655 0.0
H155 H 0.5298 0.81471 0.95771 0.0
C156 C 0.2362 0.43735 0.29546 0.0
C157 C 0.2167 0.42364 0.27574 0.0
C158 C 0.255 0.44115 0.25739 0.0
C159 C 0.2547 0.4313 0.1989 0.0
C160 C 0.23679 0.41505 0.18272 0.0
C161 C 0.21792 0.41123 0.2209 0.0
C162 C 0.26989 0.44174 0.15182 0.0
C163 C 0.29303 0.44859 0.166 0.0
C164 C 0.30575 0.46321 0.12678 0.0
C165 C 0.29501 0.4709 0.07164 0.0
C166 C 0.27203 0.46298 0.05537 0.0
C167 C 0.25984 0.4485 0.0959 0.0
C168 C 0.25901 0.47037 0.99913 0.0
C169 C 0.25333 0.4937 0.98996 0.0
C170 C 0.2475 0.45331 0.96264 0.0
C171 C 0.22935 0.45909 0.92186 0.0
C172 C 0.22224 0.48221 0.91577 0.0
C173 C 0.32958 0.47091 0.14816 0.0
C174 C 0.33375 0.49361 0.16995 0.0
C175 C 0.34627 0.45406 0.16127 0.0
C176 C 0.3658 0.45927 0.1991 0.0
C177 C 0.36908 0.48145 0.22521 0.0
C178 C 0.35337 0.49887 0.20802 0.0
C179 C 0.23519 0.49957 0.94858 0.0
H180 H 0.23591 0.44728 0.33725 0.0
H181 H 0.26848 0.45379 0.27134 0.0
H182 H 0.23641 0.40677 0.13842 0.0
H183 H 0.20341 0.40012 0.20515 0.0
H184 H 0.30089 0.44343 0.20937 0.0
H185 H 0.24166 0.44385 0.08546 0.0
H186 H 0.30445 0.48261 0.0417 0.0
H187 H 0.2617 0.50719 0.01788 0.0
H188 H 0.25136 0.43514 0.96913 0.0
H189 H 0.21991 0.44507 0.89838 0.0
H190 H 0.32091 0.50679 0.1616 0.0
H191 H 0.34334 0.43637 0.14558 0.0
H192 H 0.23072 0.51764 0.94426 0.0
H193 H 0.3553 0.51611 0.22738 0.0
H194 H 0.37777 0.44556 0.21024 0.0
C195 C 0.10199 0.22514 0.28201 0.0
C196 C 0.11548 0.20902 0.25148 0.0
C197 C 0.0944 0.24508 0.25216 0.0
C198 C 0.10012 0.24924 0.19123 0.0
C199 C 0.11647 0.23506 0.1641 0.0
C200 C 0.12413 0.2151 0.19406 0.0
C201 C 0.08484 0.26413 0.15301 0.0
C202 C 0.07717 0.28539 0.17455 0.0
C203 C 0.05864 0.2968 0.14495 0.0
C204 C 0.04755 0.28648 0.09256 0.0
C205 C 0.05592 0.26547 0.06914 0.0
C206 C 0.07457 0.25478 0.09954 0.0
C207 C 0.04509 0.25252 0.01624 0.0
C208 C 0.02531 0.23798 0.02475 0.0
C209 C 0.05852 0.24899 0.96454 0.0
C210 C 0.05328 0.23043 0.92464 0.0
C211 C 0.03455 0.21469 0.93559 0.0
C212 C 0.05095 0.31879 0.17286 0.0
C213 C 0.03068 0.31902 0.20745 0.0
C214 C 0.06649 0.33812 0.17605 0.0
C215 C 0.0624 0.35685 0.21466 0.0
C216 C 0.04281 0.35666 0.25224 0.0
C217 C 0.02665 0.3377 0.24666 0.0
C218 C 0.02007 0.21933 0.98489 0.0
H219 H 0.09493 0.22117 0.32624 0.0
H220 H 0.08185 0.25566 0.27443 0.0
H221 H 0.12158 0.23819 0.11754 0.0
H222 H 0.13507 0.20337 0.16998 0.0
H223 H 0.085 0.29263 0.21617 0.0
H224 H 0.07995 0.23799 0.08359 0.0
H225 H 0.0328 0.29471 0.0703 0.0
H226 H 0.01499 0.23986 0.06498 0.0
H227 H 0.07426 0.25948 0.95777 0.0
H228 H 0.06502 0.22749 0.8878 0.0
H229 H 0.01871 0.3041 0.2071 0.0
H230 H 0.08243 0.33827 0.15054 0.0
H231 H 1.00524 0.20791 0.9944 0.0
H232 H 0.01148 0.33663 0.27497 0.0
H233 H 0.07501 0.37124 0.21614 0.0
C234 C 0.30878 0.11412 0.28906 0.0
C235 C 0.32754 0.125 0.25892 0.0
C236 C 0.28974 0.10471 0.25576 0.0
C237 C 0.28897 0.10624 0.19182 0.0
C238 C 0.30542 0.12095 0.16319 0.0
C239 C 0.32461 0.13029 0.19659 0.0
C240 C 0.27504 0.08852 0.15617 0.0
C241 C 0.25318 0.08049 0.17582 0.0
C242 C 0.24242 0.06001 0.1523 0.0
C243 C 0.25396 0.04758 0.10646 0.0
C244 C 0.27556 0.05634 0.08387 0.0
C245 C 0.28566 0.07666 0.10924 0.0
C246 C 0.2894 0.04492 0.03611 0.0
C247 C 0.30619 0.02858 0.05322 0.0
C248 C 0.29122 0.0556 0.97859 0.0
C249 C 0.30993 0.05104 0.94063 0.0
C250 C 0.32761 0.03577 0.95914 0.0
C251 C 0.21988 0.05212 0.18035 0.0
C252 C 0.21783 0.03083 0.21162 0.0
C253 C 0.20206 0.06819 0.18696 0.0
C254 C 0.18356 0.06383 0.22635 0.0
C255 C 0.18199 0.04309 0.26052 0.0
C256 C 0.19913 0.02635 0.25108 0.0
C257 C 0.32494 0.02396 0.01516 0.0
H258 H 0.31017 0.10986 0.33712 0.0
H259 H 0.27733 0.09374 0.27974 0.0
H260 H 0.30479 0.12322 0.11414 0.0
H261 H 0.33842 0.13929 0.17239 0.0
H262 H 0.24497 0.08966 0.2122 0.0
H263 H 0.30284 0.08239 0.09456 0.0
H264 H 0.2462 0.03157 0.08837 0.0
H265 H 0.30582 0.02069 0.0981 0.0
H266 H 0.279 0.06877 0.96477 0.0
H267 H 0.31096 0.0602 0.89756 0.0
H268 H 0.23138 0.01819 0.20836 0.0
H269 H 0.20316 0.08487 0.16406 0.0
H270 H 0.33816 0.01222 0.03162 0.0
H271 H 0.19848 0.00995 0.27528 0.0
H272 H 0.17118 0.07743 0.23219 0.0
C273 C 0.50825 0.30661 0.97677 0.0
C274 C 0.5279 0.31866 0.95372 0.0
C275 C 0.51103 0.28851 0.01956 0.0
C276 C 0.53351 0.2821 0.03969 0.0
C277 C 0.55301 0.29302 1.01281 0.0
C278 C 0.55025 0.3111 0.97081 0.0
C279 C 0.5372 0.26676 0.09413 0.0
C280 C 0.52504 0.24522 0.10206 0.0
C281 C 0.52982 0.23155 0.15432 0.0
C282 C 0.54651 0.23944 0.19795 0.0
C283 C 0.55786 0.26115 0.19242 0.0
C284 C 0.55315 0.27458 0.14026 0.0
C285 C 0.57322 0.27048 0.24318 0.0
C286 C 0.56758 0.26592 0.30418 0.0
C287 C 0.5927 0.28514 0.23154 0.0
C288 C 0.6051 0.29628 0.27946 0.0
C289 C 0.59849 0.29277 0.34015 0.0
C290 C 0.51763 0.20914 0.1679 0.0
C291 C 0.49992 0.20884 0.21096 0.0
C292 C 0.52873 0.18835 0.15539 0.0
C293 C 0.52366 0.16816 0.18905 0.0
C294 C 0.50756 0.16841 0.23649 0.0
C295 C 0.49487 0.18869 0.24477 0.0
C296 C 0.58022 0.27669 0.35197 0.0
H297 H 0.49078 0.31204 0.96443 0.0
H298 H 0.49566 0.28054 0.03951 0.0
H299 H 0.57057 0.28826 0.02646 0.0
H300 H 0.56573 0.31971 0.95308 0.0
H301 H 0.51226 0.23911 0.06798 0.0
H302 H 0.5613 0.29173 0.13639 0.0
H303 H 0.55031 0.22858 0.23728 0.0
H304 H 0.55264 0.25492 0.31534 0.0
H305 H 0.59794 0.28863 0.18529 0.0
H306 H 0.619 0.30862 0.26853 0.0
H307 H 0.49159 0.22481 0.22271 0.0
H308 H 0.54283 0.18825 0.12349 0.0
H309 H 0.57495 0.27322 0.39822 0.0
H310 H 0.48247 0.18968 0.28098 0.0
H311 H 0.53345 0.15276 0.18046 0.0
Eu312 Eu 1.00012 0.0256 0.61081 0.0
Eu313 Eu 0.03697 1.00443 0.70774 0.0
C314 C 0.02701 0.05944 0.71028 0.0
C315 C 0.98913 0.06147 0.47991 0.0
C316 C 1.00158 0.0808 0.50484 0.0
C317 C 1.0107 0.06649 0.38643 0.0
C318 C 0.01914 0.092 0.47226 0.0
C319 C 0.99318 0.05505 0.4194 0.0
C320 C 0.02448 0.08436 0.41383 0.0
C321 C 0.97751 0.04477 0.52128 0.0
O322 O 1.00096 0.99542 0.74512 0.0
O323 O 0.97851 0.02213 0.69504 0.0
C324 C 0.98166 0.00734 0.74012 0.0
O325 O 0.99168 0.98685 0.61029 0.0
O326 O 0.05088 0.9997 0.80058 0.0
O327 O 0.06457 0.97982 0.72731 0.0
O328 O 0.02883 0.97706 0.63562 0.0
C329 C 1.00821 0.97151 0.61154 0.0
O330 O 0.0342 0.0216 0.56213 0.0
O331 O 0.06083 0.02315 0.64139 0.0
O332 O 0.03344 0.04109 0.74153 0.0
O333 O 0.98518 0.02372 0.51818 0.0
O334 O 0.97549 0.05143 0.57772 0.0
O335 O 0.01797 0.05743 0.65462 0.0
C336 C 0.0525 0.95905 0.81403 0.0
C337 C 0.05659 0.93759 0.78632 0.0
C338 C 0.01999 0.94098 0.86714 0.0
C339 C 0.04163 0.9184 0.79626 0.0
C340 C 0.03501 0.96005 0.85768 0.0
C341 C 0.02244 0.92043 0.8341 0.0
C342 C 0.06146 0.98084 0.7859 0.0
C343 C 0.05586 0.02461 0.5826 0.0
H344 H 0.99906 0.08629 0.55129 0.0
H345 H 0.01438 0.0605 0.34104 0.0
H346 H 0.02913 0.10619 0.49368 0.0
H347 H 0.98405 0.04007 0.39933 0.0
H348 H 0.07001 0.93619 0.75281 0.0
H349 H 1.00569 0.94269 0.89798 0.0
H350 H 0.04404 0.90257 0.77095 0.0
H351 H 0.03151 0.97615 0.88065 0.0
Eu352 Eu 0.53267 0.03003 0.70351 0.0
Eu353 Eu 0.505 0.99473 0.60984 0.0
C354 C 0.52819 0.97432 0.7319 0.0
C355 C 0.58312 0.05075 0.79527 0.0
C356 C 0.59934 0.04616 0.75018 0.0
C357 C 0.60821 0.03176 0.8699 0.0
C358 C 0.61885 0.03298 0.76398 0.0
C359 C 0.58854 0.04478 0.85595 0.0
C360 C 0.62262 0.02428 0.82321 0.0
C361 C 0.55872 0.05563 0.7772 0.0
O362 O 0.47995 1.0014 0.68585 0.0
O363 O 0.49432 0.03664 0.71991 0.0
C364 C 0.47743 0.02057 0.71717 0.0
O365 O 0.52888 0.04946 0.61456 0.0
O366 O 0.47767 0.96843 0.58801 0.0
O367 O 0.49867 0.98302 0.51624 0.0
O368 O 0.49552 0.031 0.58015 0.0
C369 C 0.51062 0.04847 0.57723 0.0
O370 O 0.56172 0.01116 0.65774 0.0
O371 O 0.5415 0.99824 0.57229 0.0
O372 O 0.52327 0.97001 0.67404 0.0
O373 O 0.55484 0.06105 0.72014 0.0
O374 O 0.54334 0.04032 0.79621 0.0
O375 O 0.52902 0.99566 0.75316 0.0
C376 C 0.4584 0.983 0.49969 0.0
C377 C 0.44308 0.99555 0.53521 0.0
C378 C 0.44419 1.00346 0.40965 0.0
C379 C 0.42941 0.01268 0.50875 0.0
C380 C 0.45796 0.98628 0.43626 0.0
C381 C 0.43066 0.01759 0.44616 0.0
C382 C 0.47895 0.97259 0.5296 0.0
C383 C 0.56141 1.00294 0.60178 0.0
H384 H 0.59588 0.05078 0.70296 0.0
H385 H 0.61118 0.02623 0.91664 0.0
H386 H 0.62971 0.02796 0.72697 0.0
H387 H 0.57645 0.04832 0.89166 0.0
H388 H 0.44317 0.99372 0.58439 0.0
H389 H 0.44509 1.00648 0.36101 0.0
H390 H 0.4193 0.02327 0.53835 0.0
H391 H 0.46979 0.97701 0.40803 0.0
Eu392 Eu 0.49727 0.52283 0.71311 0.0
Eu393 Eu 0.54035 0.50788 0.62749 0.0
C394 C 0.55044 0.52199 0.76817 0.0
C395 C 0.44364 0.55219 0.77349 0.0
C396 C 0.44287 0.56814 0.72504 0.0
C397 C 0.41373 0.57322 0.82399 0.0
C398 C 0.42818 0.58708 0.72723 0.0
C399 C 0.42839 0.55432 0.8217 0.0
C400 C 0.41419 0.59037 0.77808 0.0
C401 C 0.46222 0.53528 0.77839 0.0
O402 O 0.52595 0.47391 0.66714 0.0
O403 O 0.50833 0.48839 0.75106 0.0
C404 C 0.51693 0.47097 0.72137 0.0
O405 O 0.48091 0.50454 0.63059 0.0
O406 O 0.57696 0.51065 0.60242 0.0
O407 O 0.55242 0.48898 0.54917 0.0
O408 O 0.5094 0.51361 0.56345 0.0
C409 C 0.4877 0.5074 0.57434 0.0
O410 O 0.5022 0.55294 0.6479 0.0
O411 O 0.5401 0.54712 0.62196 0.0
O412 O 0.55626 0.50875 0.72273 0.0
O413 O 0.46099 0.51785 0.7406 0.0
O414 O 0.48333 0.54423 0.78409 0.0
O415 O 0.5303 0.53242 0.76784 0.0
C416 C 0.59111 0.47695 0.55635 0.0
C417 C 0.59841 0.46957 0.49953 0.0
C418 C 0.61129 0.44497 0.60478 0.0
C419 C 0.61131 0.44954 0.49491 0.0
C420 C 0.59812 0.46495 0.60925 0.0
C421 C 0.61729 0.4365 0.54727 0.0
C422 C 0.57423 0.49556 0.55837 0.0
C423 C 0.52173 0.56029 0.62318 0.0
H424 H 0.45456 0.56666 0.68734 0.0
H425 H 0.40347 0.5753 0.86422 0.0
H426 H 0.42876 0.59984 0.69087 0.0
H427 H 0.42885 0.54216 0.8595 0.0
H428 H 0.59304 0.4786 0.45826 0.0
H429 H 0.61586 0.43561 0.64611 0.0
H430 H 0.6151 0.4435 0.44969 0.0
H431 H 0.59258 0.47044 0.65364 0.0
Eu432 Eu 0.02792 0.53287 0.62142 0.0
Eu433 Eu 1.00787 0.49415 0.71505 0.0
C434 C 0.06267 0.50578 0.71331 0.0
C435 C 0.06797 0.55076 0.5047 0.0
C436 C 0.08778 0.54252 0.53644 0.0
C437 C 0.07984 0.53056 0.41407 0.0
C438 C 0.10269 0.52749 0.50822 0.0
C439 C 0.06486 0.54566 0.44236 0.0
C440 C 0.09816 0.52044 0.44777 0.0
C441 C 0.04784 0.55836 0.53925 0.0
O442 O 0.01187 0.52749 0.77006 0.0
O443 O 0.01306 0.55519 0.69452 0.0
C444 C 0.01099 0.54932 0.75221 0.0
O445 O 0.98965 0.52819 0.5944 0.0
O446 O 1.00889 0.47718 0.80425 0.0
O447 O 0.98313 0.46589 0.73591 0.0
O448 O 0.97602 0.51369 0.68411 0.0
C449 C 0.97222 0.52276 0.62995 0.0
O450 O 0.03801 0.49794 0.58432 0.0
O451 O 1.00858 0.47576 0.62406 0.0
O452 O 0.04691 0.48876 0.71572 0.0
O453 O 0.02865 0.54614 0.52826 0.0
O454 O 0.05149 0.56187 0.59759 0.0
O455 O 0.05731 0.52594 0.68951 0.0
C456 C 0.96948 0.47392 0.83349 0.0
C457 C 0.9461 0.47079 0.81288 0.0
C458 C 0.95719 0.50296 0.90502 0.0
C459 C 0.92875 0.48472 0.83529 0.0
C460 C 0.97452 0.48905 0.88267 0.0
C461 C 0.93447 0.50182 0.87917 0.0
C462 C 0.98856 0.46679 0.79409 0.0
C463 C 0.02466 0.479 0.58317 0.0
H464 H 0.09077 0.54605 0.58455 0.0
H465 H 0.07605 0.52552 0.36722 0.0
H466 H 0.1171 0.52043 0.53472 0.0
H467 H 0.04964 0.55163 0.41704 0.0
H468 H 0.94159 0.45913 0.77541 0.0
H469 H 0.96189 0.51551 0.94031 0.0
H470 H 0.91131 0.4833 0.81492 0.0
H471 H 0.99225 0.49169 0.90043 0.0
H472 H 0.13681 0.0592 0.25812 0.0
H473 H 0.18422 0.01952 0.37104 0.0
H474 H 0.10791 0.05659 0.33657 0.0
H475 H 0.15448 0.01536 0.4478 0.0
H476 H 0.10394 0.02842 0.60191 0.0
H477 H 0.1341 0.03316 0.5256 0.0
H478 H 0.08047 0.03304 0.38289 0.0
H479 H 0.05066 0.02926 0.45872 0.0
C480 C 0.14119 0.0498 0.29948 0.0
C481 C 0.16325 0.0397 0.30744 0.0
C482 C 0.12427 0.04797 0.3446 0.0
C483 C 0.12851 0.03566 0.39932 0.0
C484 C 0.15044 0.02529 0.40707 0.0
C485 C 0.16749 0.02733 0.36211 0.0
C486 C 0.09861 0.02956 0.55426 0.0
C487 C 0.07473 0.02834 0.53696 0.0
C488 C 0.11598 0.03208 0.51014 0.0
C489 C 0.11003 0.03341 0.44724 0.0
C490 C 0.08607 0.03245 0.4304 0.0
C491 C 0.0688 0.03004 0.47432 0.0
H492 H 0.54374 0.14352 0.28421 0.0
H493 H 0.4689 0.14964 0.29401 0.0
H494 H 0.54302 0.11459 0.36491 0.0
H495 H 0.46832 0.12099 0.37677 0.0
H496 H 0.4761 0.05182 0.48736 0.0
H497 H 0.47427 0.08003 0.40351 0.0
H498 H 0.53751 0.11408 0.47359 0.0
H499 H 0.53956 0.08608 0.55656 0.0
C500 C 0.52702 0.13848 0.30287 0.0
C501 C 0.50636 0.14898 0.28208 0.0
C502 C 0.52668 0.12209 0.35008 0.0
C503 C 0.50567 0.11564 0.37823 0.0
C504 C 0.48483 0.12552 0.35624 0.0
C505 C 0.48519 0.14206 0.30898 0.0
C506 C 0.48952 0.06544 0.48515 0.0
C507 C 0.50807 0.06654 0.52878 0.0
C508 C 0.48841 0.08161 0.43708 0.0
C509 C 0.50588 0.09914 0.43114 0.0
C510 C 0.52401 0.10055 0.47577 0.0
C511 C 0.52508 0.08453 0.52381 0.0
H512 H 0.38055 0.45259 0.31983 0.0
H513 H 0.39866 0.51972 0.24346 0.0
H514 H 0.4093 0.45909 0.40234 0.0
H515 H 0.42735 0.52642 0.32722 0.0
H516 H 0.49356 0.51756 0.45319 0.0
H517 H 0.46538 0.51183 0.36834 0.0
H518 H 0.41469 0.48389 0.49301 0.0
H519 H 0.4428 0.48952 0.57775 0.0
C520 C 0.39083 0.46868 0.32025 0.0
C521 C 0.38736 0.48555 0.2745 0.0
C522 C 0.40715 0.47253 0.36815 0.0
C523 C 0.42061 0.49331 0.37173 0.0
C524 C 0.41738 0.51014 0.32569 0.0
C525 C 0.40084 0.50637 0.27789 0.0
C526 C 0.47641 0.51016 0.46258 0.0
C527 C 0.47054 0.50391 0.52248 0.0
C528 C 0.46019 0.50703 0.41388 0.0
C529 C 0.43776 0.49734 0.42368 0.0
C530 C 0.43189 0.49114 0.4836 0.0
C531 C 0.44801 0.49447 0.53233 0.0
H532 H 0.07722 0.38016 0.32014 0.0
H533 H 1.00218 0.37577 0.29247 0.0
H534 H 0.07299 0.40966 0.39776 0.0
H535 H 0.998 0.4051 0.37111 0.0
H536 H 0.99804 0.43933 0.56054 0.0
H537 H 1.00236 0.4106 0.48051 0.0
H538 H 0.06219 0.44953 0.41463 0.0
H539 H 0.058 0.47819 0.49509 0.0
C540 C 0.05978 0.38564 0.32977 0.0
C541 C 0.04006 0.3754 0.29918 0.0
C542 C 0.05737 0.40263 0.37476 0.0
C543 C 0.03514 0.40988 0.3912 0.0
C544 C 0.01541 0.39976 0.36057 0.0
C545 C 0.01782 0.38284 0.31526 0.0
C546 C 0.01217 0.44178 0.52915 0.0
C547 C 0.02767 0.46116 0.53471 0.0
C548 C 0.01455 0.42534 0.48276 0.0
C549 C 0.03258 0.42764 0.44057 0.0
C550 C 0.04821 0.44695 0.44641 0.0
C551 C 0.04574 0.4635 0.4926 0.0
H552 H 0.90575 0.99231 0.08221 0.0
H553 H 0.85145 1.00104 0.9441 0.0
H554 H 0.9352 0.99472 1.00388 0.0
H555 H 0.88077 1.0034 0.86609 0.0
H556 H 0.94018 0.02992 0.74677 0.0
H557 H 0.91106 0.02705 0.82529 0.0
H558 H 0.95161 0.9752 0.91933 0.0
H559 H 0.98111 0.97849 0.84109 0.0
C560 C 0.89999 0.99466 0.03521 0.0
C561 C 0.876 0.99664 0.02017 0.0
C562 C 0.91698 0.99598 0.98998 0.0
C563 C 0.9106 0.9993 0.92803 0.0
C564 C 0.88661 1.00129 0.9131 0.0
C565 C 0.86967 0.99999 0.95823 0.0
C566 C 0.94292 0.01779 0.78393 0.0
C567 C 0.96316 1.00443 0.78706 0.0
C568 C 0.92605 0.01605 0.82916 0.0
C569 C 0.92873 1.00088 0.87931 0.0
C570 C 0.94892 0.98736 0.8822 0.0
C571 C 0.96583 0.9891 0.83684 0.0
H572 H 0.55649 0.84415 0.92807 0.0
H573 H 0.51086 0.88257 0.04164 0.0
H574 H 0.55776 0.87652 0.85599 0.0
H575 H 0.51258 0.91498 0.97028 0.0
H576 H 0.53586 0.97688 0.8555 0.0
H577 H 0.53882 0.94517 0.92867 0.0
H578 H 0.53076 0.89551 0.78209 0.0
H579 H 0.52791 0.92732 0.70836 0.0
C580 C 0.54678 0.85948 0.93794 0.0
C581 C 0.53349 0.86055 0.99094 0.0
C582 C 0.54752 0.87806 0.89646 0.0
C583 C 0.53518 0.89835 0.90703 0.0
C584 C 0.52253 0.89975 0.96092 0.0
C585 C 0.52164 0.88112 1.00215 0.0
C586 C 0.53484 0.95923 0.83854 0.0
C587 C 0.5315 0.95475 0.77576 0.0
C588 C 0.53643 0.94101 0.88075 0.0
C589 C 0.53488 0.91774 0.86148 0.0
C590 C 0.53221 0.91321 0.79856 0.0
C591 C 0.53046 0.93148 0.75625 0.0
H592 H 0.62802 0.56923 0.09591 0.0
H593 H 0.66289 0.50713 0.04384 0.0
H594 H 0.60006 0.5637 1.01159 0.0
H595 H 0.63388 0.50064 0.96202 0.0
H596 H 0.54153 0.53952 0.88109 0.0
H597 H 0.56802 0.54287 0.96974 0.0
H598 H 0.62329 0.51452 0.8651 0.0
H599 H 0.59648 0.51028 0.77752 0.0
C600 C 0.62965 0.55423 0.0669 0.0
C601 C 0.64806 0.53882 0.07674 0.0
C602 C 0.61331 0.55086 0.01871 0.0
C603 C 0.61464 0.53179 0.97906 0.0
C604 C 0.63246 0.51583 0.99047 0.0
C605 C 0.64895 0.51933 0.03837 0.0
C606 C 0.55935 0.53401 0.87698 0.0
C607 C 0.56683 0.52467 0.82193 0.0
C608 C 0.57465 0.53602 0.92794 0.0
C609 C 0.59798 0.52899 0.92519 0.0
C610 C 0.60542 0.51972 0.86985 0.0
C611 C 0.59004 0.51747 0.81917 0.0
H612 H 1.00855 0.62955 0.09268 0.0
H613 H 0.99278 0.67928 0.95106 0.0
H614 H 0.01132 0.59921 0.01578 0.0
H615 H 0.99466 0.64907 0.87454 0.0
H616 H 0.02112 0.59604 0.74245 0.0
H617 H 0.01876 0.62584 0.8202 0.0
H618 H 0.99165 0.57448 0.94603 0.0
H619 H 0.99513 0.54453 0.86881 0.0
C620 C 1.00553 0.63399 0.04515 0.0
C621 C 1.00073 0.657 0.02826 0.0
C622 C 1.00697 0.61652 1.00079 0.0
C623 C 1.00334 0.62144 0.93815 0.0
C624 C 0.99821 0.64446 0.92169 0.0
C625 C 0.99706 0.66191 0.96586 0.0
C626 C 0.01459 0.5911 0.78664 0.0
C627 C 1.00838 0.5678 0.79912 0.0
C628 C 0.01309 0.6083 0.8315 0.0
C629 C 1.00497 0.60286 0.89018 0.0
C630 C 0.99844 0.57951 0.90222 0.0
C631 C 1.00027 0.56225 0.85757 0.0
H632 H 0.10988 0.16981 0.18208 0.0
H633 H 0.11962 0.19245 0.36898 0.0
H634 H 0.0953 0.13228 0.21697 0.0
H635 H 0.10373 0.1553 0.40374 0.0
H636 H 0.06899 0.09021 0.45929 0.0
H637 H 0.10062 0.11379 0.41578 0.0
H638 H 0.05678 0.12624 0.25584 0.0
H639 H 0.02558 0.10232 0.29897 0.0
C640 C 0.10982 0.16657 0.23072 0.0
C641 C 0.11529 0.18447 0.27278 0.0
C642 C 0.1011 0.14506 0.25066 0.0
C643 C 0.09751 0.14108 0.31293 0.0
C644 C 0.10604 0.15779 0.35531 0.0
C645 C 0.11499 0.17924 0.33538 0.0
C646 C 0.0664 0.09771 0.41431 0.0
C647 C 0.04475 0.09497 0.38286 0.0
C648 C 0.08448 0.11114 0.38941 0.0
C649 C 0.08116 0.12219 0.33275 0.0
C650 C 0.0601 0.11782 0.2993 0.0
C651 C 0.0421 0.10424 0.32406 0.0
H652 H 0.34187 0.13378 0.37797 0.0
H653 H 0.36708 0.11147 0.20441 0.0
H654 H 0.37313 0.11286 0.43002 0.0
H655 H 0.39798 0.09095 0.25595 0.0
H656 H 0.44859 0.04838 0.3632 0.0
H657 H 0.43121 0.08393 0.32455 0.0
H658 H 0.37072 0.07006 0.43388 0.0
H659 H 0.38807 0.03479 0.47257 0.0
C660 C 0.35464 0.12533 0.35081 0.0
C661 C 0.35135 0.12351 0.28721 0.0
C662 C 0.37244 0.11323 0.38062 0.0
C663 C 0.38734 0.09945 0.34708 0.0
C664 C 0.38663 0.10115 0.28323 0.0
C665 C 0.36882 0.11315 0.25349 0.0
C666 C 0.43155 0.05292 0.37883 0.0
C667 C 0.41965 0.03868 0.42074 0.0
C668 C 0.42174 0.07341 0.35718 0.0
C669 C 0.39976 0.08002 0.37679 0.0
C670 C 0.38801 0.06589 0.41921 0.0
C671 C 0.39783 0.04548 0.44089 0.0
H672 H 0.57472 0.31184 0.43214 0.0
H673 H 0.64393 0.30921 0.35908 0.0
H674 H 0.58781 0.34223 0.50076 0.0
H675 H 0.65729 0.34022 0.42889 0.0
H676 H 0.60648 0.39767 0.61493 0.0
H677 H 0.61031 0.35774 0.58354 0.0
H678 H 0.64988 0.38088 0.42873 0.0
H679 H 0.64788 0.42073 0.46313 0.0
C680 C 0.59303 0.31712 0.43223 0.0
C681 C 0.6082 0.30813 0.38956 0.0
C682 C 0.60064 0.33467 0.47206 0.0
C683 C 0.62366 0.34385 0.47042 0.0
C684 C 0.63936 0.33375 0.4308 0.0
C685 C 0.6317 0.31606 0.3907 0.0
C686 C 0.61703 0.39431 0.57593 0.0
C687 C 0.62607 0.4126 0.54012 0.0
C688 C 0.61896 0.3713 0.55744 0.0
C689 C 0.62946 0.36616 0.5021 0.0
C690 C 0.64136 0.38413 0.47116 0.0
C691 C 0.63988 0.40712 0.4904 0.0
H692 H 0.20763 0.42696 0.39775 0.0
H693 H 0.17427 0.42898 0.21857 0.0
H694 H 0.17436 0.44617 0.43974 0.0
H695 H 0.14068 0.44714 0.26105 0.0
H696 H 0.11666 0.51819 0.33465 0.0
H697 H 0.14029 0.48757 0.29445 0.0
H698 H 0.13276 0.44867 0.46196 0.0
H699 H 0.10915 0.47943 0.50221 0.0
C700 C 0.19284 0.4307 0.36776 0.0
C701 C 0.1939 0.42695 0.30463 0.0
C702 C 0.17369 0.4416 0.39186 0.0
C703 C 0.15522 0.44874 0.35325 0.0
C704 C 0.15497 0.44234 0.29157 0.0
C705 C 0.17413 0.43157 0.26743 0.0
C706 C 0.1198 0.50296 0.36247 0.0
C707 C 0.11147 0.50138 0.42185 0.0
C708 C 0.13317 0.48532 0.33938 0.0
C709 C 0.13837 0.46567 0.37511 0.0
C710 C 0.12927 0.4637 0.43368 0.0
C711 C 0.11591 0.48137 0.45679 0.0
H712 H 0.94563 0.79346 0.90453 0.0
H713 H 0.90998 0.85031 0.985 0.0
H714 H 0.96507 0.82043 0.83573 0.0
H715 H 0.93032 0.87743 0.9189 0.0
H716 H 0.97561 0.92526 0.81789 0.0
H717 H 0.94472 0.89569 0.83083 0.0
H718 H 0.99722 0.84466 0.86898 0.0
H719 H 0.02788 0.87411 0.85375 0.0
C720 C 0.94107 0.81158 0.90568 0.0
C721 C 0.92691 0.81993 0.95158 0.0
C722 C 0.95256 0.82711 0.86688 0.0
C723 C 0.95015 0.85118 0.87378 0.0
C724 C 0.93292 0.85906 0.91264 0.0
C725 C 0.92124 0.84349 0.95087 0.0
C726 C 0.98042 0.9076 0.82834 0.0
C727 C 1.00404 0.90196 0.83623 0.0
C728 C 0.96277 0.89066 0.83548 0.0
C729 C 0.96838 0.8678 0.85149 0.0
C730 C 0.99213 0.86195 0.8557 0.0
C731 C 1.00978 0.87885 0.84774 0.0
H732 H 0.68651 0.89949 0.9536 0.0
H733 H 0.74305 0.9484 0.91823 0.0
H734 H 0.66047 0.92187 0.88771 0.0
H735 H 0.71707 0.97158 0.85658 0.0
H736 H 0.6651 0.01744 0.77017 0.0
H737 H 0.6905 0.98461 0.78445 0.0
H738 H 0.64347 0.9557 0.91779 0.0
H739 H 0.61726 0.98701 0.8992 0.0
C740 C 0.69359 0.91445 0.9295 0.0
C741 C 0.71659 0.92251 0.94189 0.0
C742 C 0.67861 0.92759 0.89276 0.0
C743 C 0.68629 0.94926 0.8695 0.0
C744 C 0.71029 0.95521 0.87406 0.0
C745 C 0.72536 0.94177 0.90943 0.0
C746 C 0.65999 1.00386 0.80176 0.0
C747 C 0.63924 1.00521 0.83431 0.0
C748 C 0.67466 0.98503 0.81021 0.0
C749 C 0.66916 0.9673 0.8522 0.0
C750 C 0.64823 0.96858 0.88396 0.0
C751 C 0.63342 0.98709 0.8747 0.0
H752 H 0.39059 0.67985 0.04337 0.0
H753 H 0.41334 0.72929 0.90743 0.0
H754 H 0.37971 0.65218 0.96382 0.0
H755 H 0.40128 0.70201 0.82714 0.0
H756 H 0.43352 0.63324 0.75644 0.0
H757 H 0.42328 0.66916 0.80333 0.0
H758 H 0.36116 0.63577 0.8748 0.0
H759 H 0.37171 0.59931 0.82763 0.0
C760 C 0.3924 0.68513 0.99624 0.0
C761 C 0.40355 0.7064 0.98176 0.0
C762 C 0.38589 0.66933 0.95033 0.0
C763 C 0.39026 0.67458 0.88891 0.0
C764 C 0.39827 0.69719 0.87409 0.0
C765 C 0.40498 0.71294 0.92016 0.0
C766 C 0.41712 0.63367 0.77976 0.0
C767 C 0.40374 0.61322 0.78951 0.0
C768 C 0.41115 0.65446 0.80681 0.0
C769 C 0.39164 0.6553 0.84425 0.0
C770 C 0.37664 0.63556 0.84756 0.0
C771 C 0.38267 0.61468 0.82055 0.0
H772 H 0.86815 0.60505 0.07656 0.0
H773 H 0.81091 0.57664 0.96523 0.0
H774 H 0.89587 0.58644 1.01199 0.0
H775 H 0.83865 0.55857 0.8992 0.0
H776 H 0.88802 0.49526 0.9015 0.0
H777 H 0.86041 0.52444 0.92969 0.0
H778 H 0.91471 0.5779 0.91735 0.0
H779 H 0.94239 0.54858 0.88943 0.0
C780 C 0.86158 0.59574 0.03648 0.0
C781 C 0.83744 0.59182 0.02662 0.0
C782 C 0.87745 0.58507 0.99935 0.0
C783 C 0.86937 0.57043 0.95163 0.0
C784 C 0.84532 0.56927 0.93669 0.0
C785 C 0.82944 0.57991 0.97395 0.0
C786 C 0.89396 0.51327 0.90404 0.0
C787 C 0.91741 0.51958 0.89441 0.0
C788 C 0.87811 0.53007 0.91957 0.0
C789 C 0.88536 0.55354 0.92549 0.0
C790 C 0.90865 0.55995 0.91364 0.0
C791 C 0.92452 0.54314 0.89823 0.0
H792 H 0.02204 0.17104 0.97686 0.0
H793 H 0.04094 0.2076 0.81246 0.0
H794 H 0.01996 0.1346 0.92099 0.0
H795 H 0.03973 0.17086 0.75692 0.0
H796 H 0.01419 0.102 0.66374 0.0
H797 H 0.01497 0.13949 0.71591 0.0
H798 H 0.04531 0.1075 0.87668 0.0
H799 H 0.04416 0.07014 0.82519 0.0
C800 C 0.02552 0.17144 0.92861 0.0
C801 C 0.03162 0.19252 0.89951 0.0
C802 C 0.02469 0.15035 0.89659 0.0
C803 C 0.02993 0.14953 0.83426 0.0
C804 C 0.03547 0.17067 0.80469 0.0
C805 C 0.03636 0.1918 0.83682 0.0
C806 C 0.02116 0.10297 0.7101 0.0
C807 C 0.02906 0.08285 0.74003 0.0
C808 C 0.02167 0.12456 0.74009 0.0
C809 C 0.03 0.12669 0.801 0.0
C810 C 0.03831 0.10662 0.83034 0.0
C811 C 0.03785 0.08511 0.80042 0.0
H812 H 0.35326 0.99659 0.93894 0.0
H813 H 0.35192 0.06974 0.89593 0.0
H814 H 0.38907 0.99337 0.88199 0.0
H815 H 0.38724 0.06637 0.83755 0.0
H816 H 0.46452 0.05733 0.78872 0.0
H817 H 0.42882 0.0609 0.84638 0.0
H818 H 0.40414 0.99372 0.78084 0.0
H819 H 0.43977 0.99006 0.72404 0.0
C820 C 0.3605 0.01202 0.91734 0.0
C821 C 0.34934 0.03341 0.92223 0.0
C822 C 0.38104 0.01013 0.88398 0.0
C823 C 0.39131 0.02959 0.85464 0.0
C824 C 0.38018 0.05098 0.85971 0.0
C825 C 0.35959 0.05284 0.89272 0.0
C826 C 0.45148 0.04333 0.78644 0.0
C827 C 0.45528 0.02339 0.75147 0.0
C828 C 0.43085 0.04541 0.81945 0.0
C829 C 0.41336 0.02757 0.81887 0.0
C830 C 0.41718 0.00772 0.78357 0.0
C831 C 0.4377 1.00569 0.75043 0.0
H832 H 0.55038 0.36033 0.97293 0.0
H833 H 0.50006 0.32606 0.8509 0.0
H834 H 0.54706 0.39615 0.91406 0.0
H835 H 0.49695 0.36218 0.79098 0.0
H836 H 0.52361 0.42777 0.67099 0.0
H837 H 0.52516 0.39018 0.72444 0.0
H838 H 0.51335 0.42449 0.89478 0.0
H839 H 0.51142 0.46166 0.84208 0.0
C840 C 0.53871 0.36041 0.93316 0.0
C841 C 0.52553 0.3403 0.91653 0.0
C842 C 0.53673 0.38098 0.8996 0.0
C843 C 0.52176 0.38202 0.84783 0.0
C844 C 0.50874 0.36186 0.83046 0.0
C845 C 0.51039 0.34127 0.86492 0.0
C846 C 0.52121 0.42724 0.71977 0.0
C847 C 0.51738 0.44781 0.75209 0.0
C848 C 0.52198 0.40571 0.75028 0.0
C849 C 0.51944 0.40439 0.81387 0.0
C850 C 0.51551 0.42493 0.84588 0.0
C851 C 0.51432 0.44626 0.81545 0.0
H852 H 0.18984 0.51533 0.93939 0.0
H853 H 0.20402 0.46108 0.81092 0.0
H854 H 0.15236 0.52146 0.88737 0.0
H855 H 0.16598 0.46666 0.76093 0.0
H856 H 0.08386 0.4651 0.74566 0.0
H857 H 0.12319 0.4604 0.79013 0.0
H858 H 0.13522 0.53469 0.78509 0.0
H859 H 0.09613 0.53943 0.74009 0.0
C860 C 0.18529 0.50492 0.89958 0.0
C861 C 0.20024 0.48759 0.87993 0.0
C862 C 0.1636 0.50837 0.86998 0.0
C863 C 0.15605 0.4944 0.82036 0.0
C864 C 0.1711 0.47746 0.79967 0.0
C865 C 0.19295 0.47425 0.82862 0.0
C866 C 0.0949 0.48043 0.75384 0.0
C867 C 0.08673 0.50264 0.73935 0.0
C868 C 0.1175 0.47772 0.77902 0.0
C869 C 0.13235 0.49718 0.79126 0.0
C870 C 0.12419 0.51936 0.77669 0.0
C871 C 0.10177 0.52204 0.75062 0.0
H872 H 0.02124 0.82862 0.4757 0.0
H873 H 0.95773 0.85273 0.38985 0.0
H874 H 0.02587 0.86514 0.53156 0.0
H875 H 0.96279 0.88963 0.44265 0.0
H876 H 0.96663 0.94897 0.578 0.0
H877 H 0.961 0.91093 0.53022 0.0
H878 H 0.03598 0.90382 0.52798 0.0
H879 H 0.04133 0.94103 0.57872 0.0
C880 C 1.00835 0.84182 0.46843 0.0
C881 C 0.98903 0.83759 0.42856 0.0
C882 C 0.01104 0.86296 0.50022 0.0
C883 C 0.99475 0.8808 0.49217 0.0
C884 C 0.97551 0.87644 0.4518 0.0
C885 C 0.97262 0.85518 0.42099 0.0
C886 C 0.98188 0.93919 0.56751 0.0
C887 C 1.00442 0.94818 0.58237 0.0
C888 C 0.9787 0.91732 0.53951 0.0
C889 C 0.998 0.90389 0.52443 0.0
C890 C 0.02054 0.91306 0.53954 0.0
C891 C 0.02366 0.93468 0.56843 0.0
H892 H 0.67784 0.95262 0.39063 0.0
H893 H 0.69943 0.02279 0.4384 0.0
H894 H 0.64186 0.9568 0.44588 0.0
H895 H 0.66311 0.02709 0.49337 0.0
H896 H 0.6059 0.0172 0.63852 0.0
H897 H 0.64252 0.01312 0.58534 0.0
H898 H 0.60491 0.9772 0.4389 0.0
H899 H 0.56838 0.98132 0.49221 0.0
C900 C 0.67504 0.96894 0.41328 0.0
C901 C 0.69182 0.9873 0.4101 0.0
C902 C 0.65418 0.97142 0.44455 0.0
C903 C 0.64937 0.9923 0.47431 0.0
C904 C 0.66619 0.01066 0.47156 0.0
C905 C 0.687 0.00827 0.43955 0.0
C906 C 0.60543 0.00835 0.5952 0.0
C907 C 0.58403 0.99958 0.57015 0.0
C908 C 0.62647 1.00616 0.56429 0.0
C909 C 0.62686 0.99484 0.50749 0.0
C910 C 0.60548 0.98583 0.48272 0.0
C911 C 0.58442 0.98827 0.51334 0.0
H912 H 0.55614 0.69045 0.42704 0.0
H913 H 0.48138 0.67949 0.40729 0.0
H914 H 0.55832 0.65603 0.49245 0.0
H915 H 0.48352 0.64514 0.47125 0.0
H916 H 0.48959 0.59462 0.62693 0.0
H917 H 0.4895 0.63125 0.57125 0.0
H918 H 0.55512 0.61475 0.49144 0.0
H919 H 0.55557 0.57845 0.54886 0.0
C920 C 0.54017 0.68072 0.43656 0.0
C921 C 0.51856 0.68798 0.41226 0.0
C922 C 0.54141 0.66089 0.47398 0.0
C923 C 0.52108 0.64769 0.48775 0.0
C924 C 0.49952 0.65503 0.46324 0.0
C925 C 0.49828 0.67484 0.42629 0.0
C926 C 0.50412 0.59886 0.59792 0.0
C927 C 0.52254 0.58344 0.59238 0.0
C928 C 0.504 0.61988 0.56548 0.0
C929 C 0.52219 0.62605 0.526 0.0
C930 C 0.54091 0.61086 0.52172 0.0
C931 C 0.54112 0.5899 0.55456 0.0
H932 H 0.82543 0.50453 0.5116 0.0
H933 H 0.84362 0.57564 0.4656 0.0
H934 H 0.86457 0.50001 0.55756 0.0
H935 H 0.88229 0.57126 0.51238 0.0
H936 H 0.95753 0.54551 0.52651 0.0
H937 H 0.91762 0.55044 0.48803 0.0
H938 H 0.89119 0.51319 0.64391 0.0
H939 H 0.93124 0.50814 0.68257 0.0
C940 C 0.83765 0.51926 0.51177 0.0
C941 C 0.83122 0.54048 0.48499 0.0
C942 C 0.86005 0.51672 0.53849 0.0
C943 C 0.87669 0.53524 0.5384 0.0
C944 C 0.87007 0.55654 0.51271 0.0
C945 C 0.8477 0.55914 0.48655 0.0
C946 C 0.94326 0.53843 0.55285 0.0
C947 C 0.94772 0.52645 0.60776 0.0
C948 C 0.9203 0.54136 0.53087 0.0
C949 C 0.90111 0.53226 0.56286 0.0
C950 C 0.90553 0.52027 0.61782 0.0
C951 C 0.92853 0.51751 0.64017 0.0
loop_
_geom_bond_atom_site_label_1
_geom_bond_atom_site_label_2
_geom_bond_distance
_geom_bond_site_symmetry_2
_ccdc_geom_bond_type
C0 C1 1.386 . S
C0 C2 1.397 . S
C0 H24 0.931 1_554 S
C1 C0 1.386 . S
C1 C5 1.397 . S
C2 C0 1.397 . S
C2 C3 1.384 . S
C2 H25 0.930 . S
C3 C2 1.384 . S
C3 C4 1.377 . S
C3 C6 1.481 . S
C4 C3 1.377 . S
C4 C5 1.389 . S
C4 H26 0.929 . S
C5 C1 1.397 . S
C5 C4 1.389 . S
C5 H27 0.931 . S
C6 C3 1.481 . S
C6 C7 1.387 . S
C6 C11 1.390 . S
C7 C6 1.387 . S
C7 C8 1.401 . S
C7 H28 0.930 . S
C8 C7 1.401 . S
C8 C9 1.376 . S
C8 C17 1.511 . S
C9 C8 1.376 . S
C9 C10 1.392 . S
C9 H30 0.931 . S
C10 C9 1.392 . S
C10 C11 1.361 . S
C10 C12 1.500 . S
C11 C6 1.390 . S
C11 C10 1.361 . S
C11 H29 0.931 . S
C12 C10 1.500 . S
C12 C13 1.371 . S
C12 C14 1.365 . S
C13 C12 1.371 . S
C13 C23 1.386 . S
C13 H31 0.931 . S
C14 C12 1.365 . S
C14 C15 1.409 . S
C14 H32 0.929 . S
C15 C14 1.409 . S
C15 C16 1.380 . S
C15 H33 0.930 . S
C16 C15 1.380 . S
C16 C23 1.357 . S
C17 C8 1.511 . S
C17 C18 1.341 . S
C17 C19 1.371 . S
C18 C17 1.341 . S
C18 C22 1.394 . S
C18 H34 0.930 . S
C19 C17 1.371 . S
C19 C20 1.392 . S
C19 H35 0.931 . S
C20 C19 1.392 . S
C20 C21 1.331 . S
C20 H38 0.932 . S
C21 C20 1.331 . S
C21 C22 1.336 . S
C22 C18 1.394 . S
C22 C21 1.336 . S
C22 H37 0.929 . S
C23 C13 1.386 . S
C23 C16 1.357 . S
C23 H36 0.928 . S
H24 C0 0.931 1_556 S
H25 C2 0.930 . S
H26 C4 0.929 . S
H27 C5 0.931 . S
H28 C7 0.930 . S
H29 C11 0.931 . S
H30 C9 0.931 . S
H31 C13 0.931 . S
H32 C14 0.929 . S
H33 C15 0.930 . S
H34 C18 0.930 . S
H35 C19 0.931 . S
H36 C23 0.928 . S
H37 C22 0.929 . S
H38 C20 0.932 . S
C39 C40 1.386 . S
C39 C41 1.397 . S
C39 H63 0.931 . S
C40 C39 1.386 . S
C40 C44 1.397 . S
C41 C39 1.397 . S
C41 C42 1.384 . S
C41 H64 0.930 . S
C42 C41 1.384 . S
C42 C43 1.377 . S
C42 C45 1.481 . S
C43 C42 1.377 . S
C43 C44 1.389 . S
C43 H65 0.929 . S
C44 C40 1.397 . S
C44 C43 1.389 . S
C44 H66 0.931 . S
C45 C42 1.481 . S
C45 C46 1.387 . S
C45 C50 1.390 . S
C46 C45 1.387 . S
C46 C47 1.401 . S
C46 H67 0.930 . S
C47 C46 1.401 . S
C47 C48 1.376 . S
C47 C56 1.511 . S
C48 C47 1.376 . S
C48 C49 1.392 . S
C48 H69 0.931 . S
C49 C48 1.392 . S
C49 C50 1.361 . S
C49 C51 1.500 . S
C50 C45 1.390 . S
C50 C49 1.361 . S
C50 H68 0.931 . S
C51 C49 1.500 . S
C51 C52 1.371 . S
C51 C53 1.365 . S
C52 C51 1.371 . S
C52 C62 1.386 . S
C52 H70 0.931 . S
C53 C51 1.365 . S
C53 C54 1.409 . S
C53 H71 0.929 . S
C54 C53 1.409 . S
C54 C55 1.380 . S
C54 H72 0.930 . S
C55 C54 1.380 . S
C55 C62 1.357 . S
C56 C47 1.511 . S
C56 C57 1.341 . S
C56 C58 1.371 . S
C57 C56 1.341 . S
C57 C61 1.394 . S
C57 H73 0.930 . S
C58 C56 1.371 . S
C58 C59 1.392 . S
C58 H74 0.931 . S
C59 C58 1.392 . S
C59 C60 1.331 . S
C59 H77 0.932 . S
C60 C59 1.331 . S
C60 C61 1.336 . S
C61 C57 1.394 . S
C61 C60 1.336 . S
C61 H76 0.929 . S
C62 C52 1.386 . S
C62 C55 1.357 . S
C62 H75 0.928 . S
H63 C39 0.931 . S
H64 C41 0.930 . S
H65 C43 0.929 . S
H66 C44 0.931 . S
H67 C46 0.930 . S
H68 C50 0.931 . S
H69 C48 0.931 . S
H70 C52 0.931 . S
H71 C53 0.929 . S
H72 C54 0.930 . S
H73 C57 0.930 . S
H74 C58 0.931 . S
H75 C62 0.928 . S
H76 C61 0.929 . S
H77 C59 0.932 . S
C78 C79 1.386 . S
C78 C80 1.397 . S
C78 H102 0.931 . S
C79 C78 1.386 . S
C79 C83 1.397 . S
C80 C78 1.397 . S
C80 C81 1.384 . S
C80 H103 0.930 . S
C81 C80 1.384 . S
C81 C82 1.377 . S
C81 C84 1.481 . S
C82 C81 1.377 . S
C82 C83 1.389 . S
C82 H104 0.929 . S
C83 C79 1.397 . S
C83 C82 1.389 . S
C83 H105 0.931 . S
C84 C81 1.481 . S
C84 C85 1.387 . S
C84 C89 1.390 . S
C85 C84 1.387 . S
C85 C86 1.401 . S
C85 H106 0.930 . S
C86 C85 1.401 . S
C86 C87 1.376 . S
C86 C95 1.511 . S
C87 C86 1.376 . S
C87 C88 1.392 . S
C87 H108 0.931 . S
C88 C87 1.392 . S
C88 C89 1.361 . S
C88 C90 1.500 . S
C89 C84 1.390 . S
C89 C88 1.361 . S
C89 H107 0.931 . S
C90 C88 1.500 . S
C90 C91 1.371 . S
C90 C92 1.365 . S
C91 C90 1.371 . S
C91 C101 1.386 . S
C91 H109 0.931 . S
C92 C90 1.365 . S
C92 C93 1.409 . S
C92 H110 0.929 . S
C93 C92 1.409 . S
C93 C94 1.380 . S
C93 H111 0.930 . S
C94 C93 1.380 . S
C94 C101 1.357 . S
C95 C86 1.511 . S
C95 C96 1.341 . S
C95 C97 1.371 . S
C96 C95 1.341 . S
C96 C100 1.394 . S
C96 H112 0.930 . S
C97 C95 1.371 . S
C97 C98 1.392 . S
C97 H113 0.931 . S
C98 C97 1.392 . S
C98 C99 1.331 . S
C98 H116 0.932 . S
C99 C98 1.331 . S
C99 C100 1.336 . S
C100 C96 1.394 . S
C100 C99 1.336 . S
C100 H115 0.929 . S
C101 C91 1.386 . S
C101 C94 1.357 . S
C101 H114 0.928 . S
H102 C78 0.931 . S
H103 C80 0.930 . S
H104 C82 0.929 . S
H105 C83 0.931 . S
H106 C85 0.930 . S
H107 C89 0.931 . S
H108 C87 0.931 . S
H109 C91 0.931 . S
H110 C92 0.929 . S
H111 C93 0.930 . S
H112 C96 0.930 . S
H113 C97 0.931 . S
H114 C101 0.928 . S
H115 C100 0.929 . S
H116 C98 0.932 . S
C117 C118 1.386 . S
C117 C119 1.397 . S
C117 H141 0.931 . S
C118 C117 1.386 . S
C118 C122 1.397 . S
C119 C117 1.397 . S
C119 C120 1.384 . S
C119 H142 0.930 . S
C120 C119 1.384 . S
C120 C121 1.377 . S
C120 C123 1.481 . S
C121 C120 1.377 . S
C121 C122 1.389 . S
C121 H143 0.929 . S
C122 C118 1.397 . S
C122 C121 1.389 . S
C122 H144 0.931 . S
C123 C120 1.481 . S
C123 C124 1.387 . S
C123 C128 1.390 . S
C124 C123 1.387 . S
C124 C125 1.401 . S
C124 H145 0.930 . S
C125 C124 1.401 . S
C125 C126 1.376 . S
C125 C134 1.511 . S
C126 C125 1.376 . S
C126 C127 1.392 . S
C126 H147 0.931 . S
C127 C126 1.392 . S
C127 C128 1.361 . S
C127 C129 1.500 . S
C128 C123 1.390 . S
C128 C127 1.361 . S
C128 H146 0.931 . S
C129 C127 1.500 . S
C129 C130 1.371 . S
C129 C131 1.365 . S
C130 C129 1.371 . S
C130 C140 1.386 . S
C130 H148 0.931 . S
C131 C129 1.365 . S
C131 C132 1.409 . S
C131 H149 0.929 . S
C132 C131 1.409 . S
C132 C133 1.380 . S
C132 H150 0.930 . S
C133 C132 1.380 . S
C133 C140 1.357 . S
C134 C125 1.511 . S
C134 C135 1.341 . S
C134 C136 1.371 . S
C135 C134 1.341 . S
C135 C139 1.394 . S
C135 H151 0.930 . S
C136 C134 1.371 . S
C136 C137 1.392 . S
C136 H152 0.931 . S
C137 C136 1.392 . S
C137 C138 1.331 . S
C137 H155 0.932 . S
C138 C137 1.331 . S
C138 C139 1.336 . S
C139 C135 1.394 . S
C139 C138 1.336 . S
C139 H154 0.929 . S
C140 C130 1.386 . S
C140 C133 1.357 . S
C140 H153 0.928 1_554 S
H141 C117 0.931 . S
H142 C119 0.930 . S
H143 C121 0.929 . S
H144 C122 0.931 . S
H145 C124 0.930 . S
H146 C128 0.931 . S
H147 C126 0.931 . S
H148 C130 0.931 . S
H149 C131 0.929 . S
H150 C132 0.930 . S
H151 C135 0.930 . S
H152 C136 0.931 . S
H153 C140 0.928 1_556 S
H154 C139 0.929 . S
H155 C137 0.932 . S
C156 C157 1.386 . S
C156 C158 1.397 . S
C156 H180 0.931 . S
C157 C156 1.386 . S
C157 C161 1.397 . S
C158 C156 1.397 . S
C158 C159 1.384 . S
C158 H181 0.930 . S
C159 C158 1.384 . S
C159 C160 1.377 . S
C159 C162 1.481 . S
C160 C159 1.377 . S
C160 C161 1.389 . S
C160 H182 0.929 . S
C161 C157 1.397 . S
C161 C160 1.389 . S
C161 H183 0.931 . S
C162 C159 1.481 . S
C162 C163 1.387 . S
C162 C167 1.390 . S
C163 C162 1.387 . S
C163 C164 1.401 . S
C163 H184 0.930 . S
C164 C163 1.401 . S
C164 C165 1.376 . S
C164 C173 1.511 . S
C165 C164 1.376 . S
C165 C166 1.392 . S
C165 H186 0.931 . S
C166 C165 1.392 . S
C166 C167 1.361 . S
C166 C168 1.500 1_554 S
C167 C162 1.390 . S
C167 C166 1.361 . S
C167 H185 0.931 . S
C168 C166 1.500 1_556 S
C168 C169 1.371 . S
C168 C170 1.365 . S
C169 C168 1.371 . S
C169 C179 1.386 . S
C169 H187 0.931 . S
C170 C168 1.365 . S
C170 C171 1.409 . S
C170 H188 0.929 . S
C171 C170 1.409 . S
C171 C172 1.380 . S
C171 H189 0.930 . S
C172 C171 1.380 . S
C172 C179 1.357 . S
C173 C164 1.511 . S
C173 C174 1.341 . S
C173 C175 1.371 . S
C174 C173 1.341 . S
C174 C178 1.394 . S
C174 H190 0.930 . S
C175 C173 1.371 . S
C175 C176 1.392 . S
C175 H191 0.931 . S
C176 C175 1.392 . S
C176 C177 1.331 . S
C176 H194 0.932 . S
C177 C176 1.331 . S
C177 C178 1.336 . S
C178 C174 1.394 . S
C178 C177 1.336 . S
C178 H193 0.929 . S
C179 C169 1.386 . S
C179 C172 1.357 . S
C179 H192 0.928 . S
H180 C156 0.931 . S
H181 C158 0.930 . S
H182 C160 0.929 . S
H183 C161 0.931 . S
H184 C163 0.930 . S
H185 C167 0.931 . S
H186 C165 0.931 . S
H187 C169 0.931 . S
H188 C170 0.929 . S
H189 C171 0.930 . S
H190 C174 0.930 . S
H191 C175 0.931 . S
H192 C179 0.928 . S
H193 C178 0.929 . S
H194 C176 0.932 . S
C195 C196 1.386 . S
C195 C197 1.397 . S
C195 H219 0.931 . S
C196 C195 1.386 . S
C196 C200 1.397 . S
C197 C195 1.397 . S
C197 C198 1.384 . S
C197 H220 0.930 . S
C198 C197 1.384 . S
C198 C199 1.377 . S
C198 C201 1.481 . S
C199 C198 1.377 . S
C199 C200 1.389 . S
C199 H221 0.929 . S
C200 C196 1.397 . S
C200 C199 1.389 . S
C200 H222 0.931 . S
C201 C198 1.481 . S
C201 C202 1.387 . S
C201 C206 1.390 . S
C202 C201 1.387 . S
C202 C203 1.401 . S
C202 H223 0.930 . S
C203 C202 1.401 . S
C203 C204 1.376 1_554 S
C203 C212 1.511 . S
C204 C203 1.376 1_556 S
C204 C205 1.392 . S
C204 H225 0.931 . S
C205 C204 1.392 . S
C205 C206 1.361 1_556 S
C205 C207 1.500 . S
C206 C201 1.390 . S
C206 C205 1.361 1_554 S
C206 H224 0.931 . S
C207 C205 1.500 . S
C207 C208 1.371 . S
C207 C209 1.365 . S
C208 C207 1.371 . S
C208 C218 1.386 . S
C208 H226 0.931 . S
C209 C207 1.365 . S
C209 C210 1.409 . S
C209 H227 0.929 . S
C210 C209 1.409 . S
C210 C211 1.380 . S
C210 H228 0.930 . S
C211 C210 1.380 . S
C211 C218 1.357 . S
C212 C203 1.511 . S
C212 C213 1.341 . S
C212 C214 1.371 . S
C213 C212 1.341 . S
C213 C217 1.394 . S
C213 H229 0.930 . S
C214 C212 1.371 . S
C214 C215 1.392 . S
C214 H230 0.931 1_554 S
C215 C214 1.392 . S
C215 C216 1.331 . S
C215 H233 0.932 . S
C216 C215 1.331 . S
C216 C217 1.336 . S
C217 C213 1.394 . S
C217 C216 1.336 . S
C217 H232 0.929 . S
C218 C208 1.386 . S
C218 C211 1.357 . S
C218 H231 0.928 . S
H219 C195 0.931 . S
H220 C197 0.930 . S
H221 C199 0.929 . S
H222 C200 0.931 . S
H223 C202 0.930 . S
H224 C206 0.931 . S
H225 C204 0.931 . S
H226 C208 0.931 . S
H227 C209 0.929 . S
H228 C210 0.930 . S
H229 C213 0.930 . S
H230 C214 0.931 1_556 S
H231 C218 0.928 . S
H232 C217 0.929 . S
H233 C215 0.932 . S
C234 C235 1.386 . S
C234 C236 1.397 . S
C234 H258 0.931 . S
C235 C234 1.386 . S
C235 C239 1.397 . S
C236 C234 1.397 . S
C236 C237 1.384 . S
C236 H259 0.930 . S
C237 C236 1.384 . S
C237 C238 1.377 . S
C237 C240 1.481 . S
C238 C237 1.377 . S
C238 C239 1.389 . S
C238 H260 0.929 . S
C239 C235 1.397 . S
C239 C238 1.389 . S
C239 H261 0.931 . S
C240 C237 1.481 . S
C240 C241 1.387 . S
C240 C245 1.400 . S
C241 C240 1.387 . S
C241 C242 1.401 . S
C241 H262 0.930 . S
C242 C241 1.401 . S
C242 C243 1.376 1_554 S
C242 C251 1.511 . S
C243 C242 1.376 1_556 S
C243 C244 1.392 . S
C243 H264 0.931 . S
C244 C243 1.392 . S
C244 C245 1.354 1_556 S
C244 C246 1.500 . S
C245 C240 1.400 . S
C245 C244 1.354 1_554 S
C245 H263 0.928 1_554 S
C246 C244 1.500 . S
C246 C247 1.371 . S
C246 C248 1.365 . S
C247 C246 1.371 . S
C247 C257 1.386 . S
C247 H265 0.931 . S
C248 C246 1.365 . S
C248 C249 1.409 . S
C248 H266 0.929 . S
C249 C248 1.409 . S
C249 C250 1.380 . S
C249 H267 0.930 . S
C250 C249 1.380 . S
C250 C257 1.357 . S
C251 C242 1.511 . S
C251 C252 1.341 . S
C251 C253 1.360 1_554 S
C252 C251 1.341 . S
C252 C256 1.394 . S
C252 H268 0.930 . S
C253 C251 1.360 1_556 S
C253 C254 1.387 1_556 S
C253 H269 0.949 . S
C254 C253 1.387 1_554 S
C254 C255 1.331 . S
C254 H272 0.932 1_554 S
C255 C254 1.331 . S
C255 C256 1.336 . S
C256 C252 1.394 . S
C256 C255 1.336 . S
C256 H271 0.929 . S
C257 C247 1.386 . S
C257 C250 1.357 . S
C257 H270 0.928 . S
H258 C234 0.931 . S
H259 C236 0.930 . S
H260 C238 0.929 . S
H261 C239 0.931 . S
H262 C241 0.930 . S
H263 C245 0.928 1_556 S
H264 C243 0.931 . S
H265 C247 0.931 . S
H266 C248 0.929 . S
H267 C249 0.930 . S
H268 C252 0.930 . S
H269 C253 0.949 . S
H270 C257 0.928 . S
H271 C256 0.929 . S
H272 C254 0.932 1_556 S
C273 C274 1.386 . S
C273 C275 1.397 . S
C273 H297 0.931 . S
C274 C273 1.386 . S
C274 C278 1.397 . S
C275 C273 1.397 . S
C275 C276 1.384 . S
C275 H298 0.930 . S
C276 C275 1.384 . S
C276 C277 1.377 . S
C276 C279 1.481 1_556 S
C277 C276 1.377 . S
C277 C278 1.389 . S
C277 H299 0.929 . S
C278 C274 1.397 . S
C278 C277 1.389 . S
C278 H300 0.931 . S
C279 C276 1.481 1_554 S
C279 C280 1.387 . S
C279 C284 1.390 . S
C280 C279 1.387 . S
C280 C281 1.401 . S
C280 H301 0.930 1_554 S
C281 C280 1.401 . S
C281 C282 1.376 . S
C281 C290 1.511 . S
C282 C281 1.376 . S
C282 C283 1.392 . S
C282 H303 0.931 . S
C283 C282 1.392 . S
C283 C284 1.361 . S
C283 C285 1.500 . S
C284 C279 1.390 . S
C284 C283 1.361 . S
C284 H302 0.931 . S
C285 C283 1.500 . S
C285 C286 1.371 . S
C285 C287 1.365 . S
C286 C285 1.371 . S
C286 C296 1.386 . S
C286 H304 0.931 . S
C287 C285 1.365 . S
C287 C288 1.409 . S
C287 H305 0.929 . S
C288 C287 1.409 . S
C288 C289 1.380 . S
C288 H306 0.930 . S
C289 C288 1.380 . S
C289 C296 1.357 . S
C290 C281 1.511 . S
C290 C291 1.341 . S
C290 C292 1.371 . S
C291 C290 1.341 . S
C291 C295 1.394 . S
C291 H307 0.930 . S
C292 C290 1.371 . S
C292 C293 1.392 . S
C292 H308 0.931 . S
C293 C292 1.392 . S
C293 C294 1.331 . S
C293 H311 0.932 . S
C294 C293 1.331 . S
C294 C295 1.336 . S
C295 C291 1.394 . S
C295 C294 1.336 . S
C295 H310 0.929 . S
C296 C286 1.386 . S
C296 C289 1.357 . S
C296 H309 0.928 . S
H297 C273 0.931 . S
H298 C275 0.930 . S
H299 C277 0.929 . S
H300 C278 0.931 . S
H301 C280 0.930 1_556 S
H302 C284 0.931 . S
H303 C282 0.931 . S
H304 C286 0.931 . S
H305 C287 0.929 . S
H306 C288 0.930 . S
H307 C291 0.930 . S
H308 C292 0.931 . S
H309 C296 0.928 . S
H310 C295 0.929 . S
H311 C293 0.932 . S
Eu312 C321 2.828 . S
Eu312 O323 2.392 . S
Eu312 O325 2.418 1_545 S
Eu312 O330 2.373 1_655 S
Eu312 O333 2.488 . S
Eu312 O334 2.471 . S
Eu312 O335 2.349 1_655 S
Eu313 O322 2.373 1_455 S
Eu313 O326 2.488 . S
Eu313 O327 2.471 . S
Eu313 O328 2.349 . S
Eu313 O331 2.392 1_565 S
Eu313 O332 2.418 1_565 S
Eu313 C342 2.828 . S
C314 O332 1.244 . S
C314 O335 1.265 . S
C315 C316 1.379 1_655 S
C315 C319 1.373 . S
C315 C321 1.505 . S
C316 C315 1.379 1_455 S
C316 C318 1.369 . S
C316 H344 0.930 . S
C317 C319 1.383 . S
C317 C320 1.382 1_655 S
C317 H345 0.930 . S
C318 C316 1.369 . S
C318 C320 1.392 . S
C318 H346 0.930 . S
C319 C315 1.373 . S
C319 C317 1.383 . S
C319 H347 0.931 . S
C320 C317 1.382 1_455 S
C320 C318 1.392 . S
C321 Eu312 2.828 . S
C321 C315 1.505 . S
C321 O333 1.249 . S
C321 O334 1.244 . S
O322 Eu313 2.373 1_655 S
O322 C324 1.258 . S
O323 Eu312 2.392 . S
O323 C324 1.242 1_545 S
C324 O322 1.258 . S
C324 O323 1.242 1_565 S
O325 Eu312 2.418 1_565 S
O325 C329 1.244 . S
O326 Eu313 2.488 . S
O326 C342 1.249 . S
O327 Eu313 2.471 . S
O327 C342 1.244 . S
O328 Eu313 2.349 . S
O328 C329 1.265 1_455 S
C329 O325 1.244 . S
C329 O328 1.265 1_655 S
O330 Eu312 2.373 1_455 S
O330 C343 1.258 . S
O331 Eu313 2.392 1_545 S
O331 C343 1.242 . S
O332 Eu313 2.418 1_545 S
O332 C314 1.244 . S
O333 Eu312 2.488 . S
O333 C321 1.249 . S
O334 Eu312 2.471 . S
O334 C321 1.244 . S
O335 Eu312 2.349 1_455 S
O335 C314 1.265 . S
C336 C337 1.379 . S
C336 C340 1.373 . S
C336 C342 1.505 . S
C337 C336 1.379 . S
C337 C339 1.369 . S
C337 H348 0.930 1_455 S
C338 C340 1.383 . S
C338 C341 1.382 . S
C338 H349 0.930 . S
C339 C337 1.369 . S
C339 C341 1.392 . S
C339 H350 0.930 1_455 S
C340 C336 1.373 . S
C340 C338 1.383 . S
C340 H351 0.931 . S
C341 C338 1.382 . S
C341 C339 1.392 . S
C342 Eu313 2.828 . S
C342 O326 1.249 . S
C342 O327 1.244 . S
C342 C336 1.505 . S
C343 O330 1.258 . S
C343 O331 1.242 . S
H344 C316 0.930 . S
H345 C317 0.930 . S
H346 C318 0.930 . S
H347 C319 0.931 . S
H348 C337 0.930 1_655 S
H349 C338 0.930 . S
H350 C339 0.930 1_655 S
H351 C340 0.931 . S
Eu352 C361 2.828 . S
Eu352 O363 2.392 . S
Eu352 O365 2.418 . S
Eu352 O370 2.373 . S
Eu352 O373 2.488 . S
Eu352 O374 2.471 . S
Eu352 O375 2.349 1_545 S
Eu353 O362 2.373 1_565 S
Eu353 O366 2.488 . S
Eu353 O367 2.471 1_565 S
Eu353 O368 2.349 1_565 S
Eu353 O371 2.392 . S
Eu353 O372 2.418 . S
Eu353 C382 2.828 . S
C354 O372 1.244 . S
C354 O375 1.265 . S
C355 C356 1.379 1_545 S
C355 C359 1.373 . S
C355 C361 1.505 . S
C356 C355 1.379 1_565 S
C356 C358 1.369 . S
C356 H384 0.930 . S
C357 C359 1.383 . S
C357 C360 1.382 . S
C357 H385 0.930 . S
C358 C356 1.369 . S
C358 C360 1.392 1_565 S
C358 H386 0.930 . S
C359 C355 1.373 . S
C359 C357 1.383 . S
C359 H387 0.931 . S
C360 C357 1.382 . S
C360 C358 1.392 1_545 S
C361 Eu352 2.828 . S
C361 C355 1.505 . S
C361 O373 1.249 . S
C361 O374 1.244 . S
O362 Eu353 2.373 1_545 S
O362 C364 1.258 . S
O363 Eu352 2.392 . S
O363 C364 1.242 . S
C364 O362 1.258 . S
C364 O363 1.242 . S
O365 Eu352 2.418 . S
O365 C369 1.244 . S
O366 Eu353 2.488 . S
O366 C382 1.249 . S
O367 Eu353 2.471 1_545 S
O367 C382 1.244 1_545 S
O368 Eu353 2.349 1_545 S
O368 C369 1.265 . S
C369 O365 1.244 . S
C369 O368 1.265 . S
O370 Eu352 2.373 . S
O370 C383 1.258 1_545 S
O371 Eu353 2.392 . S
O371 C383 1.242 . S
O372 Eu353 2.418 . S
O372 C354 1.244 . S
O373 Eu352 2.488 . S
O373 C361 1.249 . S
O374 Eu352 2.471 . S
O374 C361 1.244 . S
O375 Eu352 2.349 1_565 S
O375 C354 1.265 . S
C376 C377 1.379 1_565 S
C376 C380 1.373 . S
C376 C382 1.505 . S
C377 C376 1.379 1_545 S
C377 C379 1.369 . S
C377 H388 0.930 . S
C378 C380 1.383 . S
C378 C381 1.382 . S
C378 H389 0.930 . S
C379 C377 1.369 . S
C379 C381 1.392 1_545 S
C379 H390 0.930 . S
C380 C376 1.373 . S
C380 C378 1.383 . S
C380 H391 0.931 . S
C381 C378 1.382 . S
C381 C379 1.392 1_565 S
C382 Eu353 2.828 . S
C382 O366 1.249 . S
C382 O367 1.244 1_565 S
C382 C376 1.505 . S
C383 O370 1.258 1_565 S
C383 O371 1.242 . S
H384 C356 0.930 . S
H385 C357 0.930 . S
H386 C358 0.930 . S
H387 C359 0.931 . S
H388 C377 0.930 . S
H389 C378 0.930 . S
H390 C379 0.930 . S
H391 C380 0.931 . S
Eu392 C401 2.828 . S
Eu392 O403 2.392 . S
Eu392 O405 2.418 . S
Eu392 O410 2.373 . S
Eu392 O413 2.488 . S
Eu392 O414 2.471 . S
Eu392 O415 2.349 . S
Eu393 O402 2.373 . S
Eu393 O406 2.488 . S
Eu393 O407 2.471 . S
Eu393 O408 2.349 . S
Eu393 O411 2.392 . S
Eu393 O412 2.418 . S
Eu393 C422 2.828 . S
C394 O412 1.244 . S
C394 O415 1.265 . S
C395 C396 1.379 . S
C395 C399 1.373 . S
C395 C401 1.505 . S
C396 C395 1.379 . S
C396 C398 1.369 . S
C396 H424 0.930 . S
C397 C399 1.383 . S
C397 C400 1.382 . S
C397 H425 0.930 . S
C398 C396 1.369 . S
C398 C400 1.392 . S
C398 H426 0.930 . S
C399 C395 1.373 . S
C399 C397 1.383 . S
C399 H427 0.931 . S
C400 C397 1.382 . S
C400 C398 1.392 . S
C401 Eu392 2.828 . S
C401 C395 1.505 . S
C401 O413 1.249 . S
C401 O414 1.244 . S
O402 Eu393 2.373 . S
O402 C404 1.258 . S
O403 Eu392 2.392 . S
O403 C404 1.242 . S
C404 O402 1.258 . S
C404 O403 1.242 . S
O405 Eu392 2.418 . S
O405 C409 1.244 . S
O406 Eu393 2.488 . S
O406 C422 1.249 . S
O407 Eu393 2.471 . S
O407 C422 1.244 . S
O408 Eu393 2.349 . S
O408 C409 1.265 . S
C409 O405 1.244 . S
C409 O408 1.265 . S
O410 Eu392 2.373 . S
O410 C423 1.258 . S
O411 Eu393 2.392 . S
O411 C423 1.242 . S
O412 Eu393 2.418 . S
O412 C394 1.244 . S
O413 Eu392 2.488 . S
O413 C401 1.249 . S
O414 Eu392 2.471 . S
O414 C401 1.244 . S
O415 Eu392 2.349 . S
O415 C394 1.265 . S
C416 C417 1.379 . S
C416 C420 1.373 . S
C416 C422 1.505 . S
C417 C416 1.379 . S
C417 C419 1.369 . S
C417 H428 0.930 . S
C418 C420 1.383 . S
C418 C421 1.382 . S
C418 H429 0.930 . S
C419 C417 1.369 . S
C419 C421 1.392 . S
C419 H430 0.930 . S
C420 C416 1.373 . S
C420 C418 1.383 . S
C420 H431 0.931 . S
C421 C418 1.382 . S
C421 C419 1.392 . S
C422 Eu393 2.828 . S
C422 O406 1.249 . S
C422 O407 1.244 . S
C422 C416 1.505 . S
C423 O410 1.258 . S
C423 O411 1.242 . S
H424 C396 0.930 . S
H425 C397 0.930 . S
H426 C398 0.930 . S
H427 C399 0.931 . S
H428 C417 0.930 . S
H429 C418 0.930 . S
H430 C419 0.930 . S
H431 C420 0.931 . S
Eu432 C441 2.828 . S
Eu432 O443 2.392 . S
Eu432 O445 2.418 1_455 S
Eu432 O450 2.373 . S
Eu432 O453 2.488 . S
Eu432 O454 2.471 . S
Eu432 O455 2.349 . S
Eu433 O442 2.373 . S
Eu433 O446 2.488 . S
Eu433 O447 2.471 . S
Eu433 O448 2.349 . S
Eu433 O451 2.392 1_655 S
Eu433 O452 2.418 1_655 S
Eu433 C462 2.828 . S
C434 O452 1.244 . S
C434 O455 1.265 . S
C435 C436 1.379 . S
C435 C439 1.373 . S
C435 C441 1.505 . S
C436 C435 1.379 . S
C436 C438 1.369 . S
C436 H464 0.930 . S
C437 C439 1.383 . S
C437 C440 1.382 . S
C437 H465 0.930 . S
C438 C436 1.369 . S
C438 C440 1.392 . S
C438 H466 0.930 . S
C439 C435 1.373 . S
C439 C437 1.383 . S
C439 H467 0.931 . S
C440 C437 1.382 . S
C440 C438 1.392 . S
C441 Eu432 2.828 . S
C441 C435 1.505 . S
C441 O453 1.249 . S
C441 O454 1.244 . S
O442 Eu433 2.373 . S
O442 C444 1.258 1_655 S
O443 Eu432 2.392 . S
O443 C444 1.242 . S
C444 O442 1.258 1_455 S
C444 O443 1.242 . S
O445 Eu432 2.418 1_655 S
O445 C449 1.244 . S
O446 Eu433 2.488 . S
O446 C462 1.249 . S
O447 Eu433 2.471 . S
O447 C462 1.244 . S
O448 Eu433 2.349 . S
O448 C449 1.265 . S
C449 O445 1.244 . S
C449 O448 1.265 . S
O450 Eu432 2.373 . S
O450 C463 1.258 . S
O451 Eu433 2.392 1_455 S
O451 C463 1.242 . S
O452 Eu433 2.418 1_455 S
O452 C434 1.244 . S
O453 Eu432 2.488 . S
O453 C441 1.249 . S
O454 Eu432 2.471 . S
O454 C441 1.244 . S
O455 Eu432 2.349 . S
O455 C434 1.265 . S
C456 C457 1.379 . S
C456 C460 1.373 . S
C456 C462 1.505 . S
C457 C456 1.379 . S
C457 C459 1.369 . S
C457 H468 0.930 . S
C458 C460 1.383 . S
C458 C461 1.382 . S
C458 H469 0.930 . S
C459 C457 1.369 . S
C459 C461 1.392 . S
C459 H470 0.930 . S
C460 C456 1.373 . S
C460 C458 1.383 . S
C460 H471 0.931 . S
C461 C458 1.382 . S
C461 C459 1.392 . S
C462 Eu433 2.828 . S
C462 O446 1.249 . S
C462 O447 1.244 . S
C462 C456 1.505 . S
C463 O450 1.258 . S
C463 O451 1.242 . S
H464 C436 0.930 . S
H465 C437 0.930 . S
H466 C438 0.930 . S
H467 C439 0.931 . S
H468 C457 0.930 . S
H469 C458 0.930 . S
H470 C459 0.930 . S
H471 C460 0.931 . S
H472 C480 0.950 . S
H473 C485 0.950 . S
H474 C482 0.950 . S
H475 C484 0.950 . S
H476 C486 0.950 . S
H477 C488 0.950 . S
H478 C490 0.950 . S
H479 C491 0.950 . S
C480 H472 0.950 . S
C480 C481 1.386 . S
C480 C482 1.391 . S
C481 C480 1.386 . S
C481 C485 1.393 . S
C482 H474 0.950 . S
C482 C480 1.391 . S
C482 C483 1.400 . S
C483 C482 1.400 . S
C483 C484 1.398 . S
C483 C489 1.491 . S
C484 H475 0.950 . S
C484 C483 1.398 . S
C484 C485 1.391 . S
C485 H473 0.950 . S
C485 C481 1.393 . S
C485 C484 1.391 . S
C486 H476 0.950 . S
C486 C487 1.386 . S
C486 C488 1.391 . S
C487 C486 1.386 . S
C487 C491 1.393 . S
C488 H477 0.950 . S
C488 C486 1.391 . S
C488 C489 1.400 . S
C489 C483 1.491 . S
C489 C488 1.400 . S
C489 C490 1.398 . S
C490 H478 0.950 . S
C490 C489 1.398 . S
C490 C491 1.391 . S
C491 H479 0.950 . S
C491 C487 1.393 . S
C491 C490 1.391 . S
H492 C500 0.950 . S
H493 C505 0.950 . S
H494 C502 0.950 . S
H495 C504 0.950 . S
H496 C506 0.950 . S
H497 C508 0.950 . S
H498 C510 0.950 . S
H499 C511 0.950 . S
C500 H492 0.950 . S
C500 C501 1.386 . S
C500 C502 1.391 . S
C501 C500 1.386 . S
C501 C505 1.393 . S
C502 H494 0.950 . S
C502 C500 1.391 . S
C502 C503 1.400 . S
C503 C502 1.400 . S
C503 C504 1.398 . S
C503 C509 1.491 . S
C504 H495 0.950 . S
C504 C503 1.398 . S
C504 C505 1.391 . S
C505 H493 0.950 . S
C505 C501 1.393 . S
C505 C504 1.391 . S
C506 H496 0.950 . S
C506 C507 1.386 . S
C506 C508 1.391 . S
C507 C506 1.386 . S
C507 C511 1.393 . S
C508 H497 0.950 . S
C508 C506 1.391 . S
C508 C509 1.400 . S
C509 C503 1.491 . S
C509 C508 1.400 . S
C509 C510 1.398 . S
C510 H498 0.950 . S
C510 C509 1.398 . S
C510 C511 1.391 . S
C511 H499 0.950 . S
C511 C507 1.393 . S
C511 C510 1.391 . S
H512 C520 0.950 . S
H513 C525 0.950 . S
H514 C522 0.950 . S
H515 C524 0.950 . S
H516 C526 0.950 . S
H517 C528 0.950 . S
H518 C530 0.950 . S
H519 C531 0.950 . S
C520 H512 0.950 . S
C520 C521 1.386 . S
C520 C522 1.391 . S
C521 C520 1.386 . S
C521 C525 1.393 . S
C522 H514 0.950 . S
C522 C520 1.391 . S
C522 C523 1.400 . S
C523 C522 1.400 . S
C523 C524 1.398 . S
C523 C529 1.491 . S
C524 H515 0.950 . S
C524 C523 1.398 . S
C524 C525 1.391 . S
C525 H513 0.950 . S
C525 C521 1.393 . S
C525 C524 1.391 . S
C526 H516 0.950 . S
C526 C527 1.386 . S
C526 C528 1.391 . S
C527 C526 1.386 . S
C527 C531 1.393 . S
C528 H517 0.950 . S
C528 C526 1.391 . S
C528 C529 1.400 . S
C529 C523 1.491 . S
C529 C528 1.400 . S
C529 C530 1.398 . S
C530 H518 0.950 . S
C530 C529 1.398 . S
C530 C531 1.391 . S
C531 H519 0.950 . S
C531 C527 1.393 . S
C531 C530 1.391 . S
H532 C540 0.950 . S
H533 C545 0.950 . S
H534 C542 0.950 . S
H535 C544 0.950 . S
H536 C546 0.950 1_655 S
H537 C548 0.950 . S
H538 C550 0.950 . S
H539 C551 0.950 . S
C540 H532 0.950 . S
C540 C541 1.386 . S
C540 C542 1.391 . S
C541 C540 1.386 . S
C541 C545 1.393 . S
C542 H534 0.950 . S
C542 C540 1.391 . S
C542 C543 1.400 . S
C543 C542 1.400 . S
C543 C544 1.398 . S
C543 C549 1.491 . S
C544 H535 0.950 . S
C544 C543 1.398 . S
C544 C545 1.391 . S
C545 H533 0.950 . S
C545 C541 1.393 . S
C545 C544 1.391 . S
C546 H536 0.950 1_455 S
C546 C547 1.386 . S
C546 C548 1.391 . S
C547 C546 1.386 . S
C547 C551 1.393 . S
C548 H537 0.950 . S
C548 C546 1.391 . S
C548 C549 1.400 . S
C549 C543 1.491 . S
C549 C548 1.400 . S
C549 C550 1.398 . S
C550 H538 0.950 . S
C550 C549 1.398 . S
C550 C551 1.391 . S
C551 H539 0.950 . S
C551 C547 1.393 . S
C551 C550 1.391 . S
H552 C560 0.950 . S
H553 C565 0.950 . S
H554 C562 0.950 . S
H555 C564 0.950 1_556 S
H556 C566 0.950 . S
H557 C568 0.950 . S
H558 C570 0.950 . S
H559 C571 0.950 . S
C560 H552 0.950 . S
C560 C561 1.386 . S
C560 C562 1.391 . S
C561 C560 1.386 . S
C561 C565 1.393 . S
C562 H554 0.950 . S
C562 C560 1.391 . S
C562 C563 1.400 . S
C563 C562 1.400 . S
C563 C564 1.398 . S
C563 C569 1.491 1_554 S
C564 H555 0.950 1_554 S
C564 C563 1.398 . S
C564 C565 1.391 . S
C565 H553 0.950 . S
C565 C561 1.393 . S
C565 C564 1.391 . S
C566 H556 0.950 . S
C566 C567 1.386 . S
C566 C568 1.391 . S
C567 C566 1.386 . S
C567 C571 1.393 . S
C568 H557 0.950 . S
C568 C566 1.391 . S
C568 C569 1.400 . S
C569 C563 1.491 1_556 S
C569 C568 1.400 . S
C569 C570 1.398 . S
C570 H558 0.950 . S
C570 C569 1.398 . S
C570 C571 1.391 . S
C571 H559 0.950 . S
C571 C567 1.393 . S
C571 C570 1.391 . S
H572 C580 0.950 . S
H573 C585 0.950 . S
H574 C582 0.950 . S
H575 C584 0.950 1_556 S
H576 C586 0.950 . S
H577 C588 0.950 . S
H578 C590 0.950 . S
H579 C591 0.950 . S
C580 H572 0.950 . S
C580 C581 1.386 . S
C580 C582 1.391 1_554 S
C581 C580 1.386 . S
C581 C585 1.393 . S
C582 H574 0.950 . S
C582 C580 1.391 1_556 S
C582 C583 1.400 . S
C583 C582 1.400 . S
C583 C584 1.398 1_556 S
C583 C589 1.491 . S
C584 H575 0.950 1_554 S
C584 C583 1.398 1_554 S
C584 C585 1.391 . S
C585 H573 0.950 . S
C585 C581 1.393 . S
C585 C584 1.391 . S
C586 H576 0.950 . S
C586 C587 1.386 . S
C586 C588 1.391 . S
C587 C586 1.386 . S
C587 C591 1.393 . S
C588 H577 0.950 . S
C588 C586 1.391 . S
C588 C589 1.400 . S
C589 C583 1.491 . S
C589 C588 1.400 . S
C589 C590 1.398 . S
C590 H578 0.950 . S
C590 C589 1.398 . S
C590 C591 1.391 . S
C591 H579 0.950 . S
C591 C587 1.393 . S
C591 C590 1.391 . S
H592 C600 0.950 . S
H593 C605 0.950 . S
H594 C602 0.950 . S
H595 C604 0.950 . S
H596 C606 0.950 . S
H597 C608 0.950 . S
H598 C610 0.950 . S
H599 C611 0.950 . S
C600 H592 0.950 . S
C600 C601 1.386 . S
C600 C602 1.391 1_554 S
C601 C600 1.386 . S
C601 C605 1.393 . S
C602 H594 0.950 . S
C602 C600 1.391 1_556 S
C602 C603 1.400 . S
C603 C602 1.400 . S
C603 C604 1.399 . S
C603 C609 1.491 . S
C604 H595 0.950 . S
C604 C603 1.399 . S
C604 C605 1.389 1_556 S
C605 H593 0.950 . S
C605 C601 1.393 . S
C605 C604 1.389 1_554 S
C606 H596 0.950 . S
C606 C607 1.386 . S
C606 C608 1.391 . S
C607 C606 1.386 . S
C607 C611 1.393 . S
C608 H597 0.950 . S
C608 C606 1.391 . S
C608 C609 1.400 . S
C609 C603 1.491 . S
C609 C608 1.400 . S
C609 C610 1.398 . S
C610 H598 0.950 . S
C610 C609 1.398 . S
C610 C611 1.391 . S
C611 H599 0.950 . S
C611 C607 1.393 . S
C611 C610 1.391 . S
H612 C620 0.950 . S
H613 C625 0.950 . S
H614 C622 0.950 . S
H615 C624 0.950 1_556 S
H616 C626 0.950 1_455 S
H617 C628 0.950 . S
H618 C630 0.950 . S
H619 C631 0.950 . S
C620 H612 0.950 . S
C620 C621 1.386 . S
C620 C622 1.391 . S
C621 C620 1.386 . S
C621 C625 1.393 . S
C622 H614 0.950 . S
C622 C620 1.391 . S
C622 C623 1.400 1_554 S
C623 C622 1.400 1_556 S
C623 C624 1.398 1_556 S
C623 C629 1.491 . S
C624 H615 0.950 1_554 S
C624 C623 1.398 1_554 S
C624 C625 1.391 . S
C625 H613 0.950 . S
C625 C621 1.393 . S
C625 C624 1.391 . S
C626 H616 0.950 1_655 S
C626 C627 1.386 . S
C626 C628 1.391 . S
C627 C626 1.386 . S
C627 C631 1.393 . S
C628 H617 0.950 . S
C628 C626 1.391 . S
C628 C629 1.400 . S
C629 C623 1.491 . S
C629 C628 1.400 . S
C629 C630 1.398 . S
C630 H618 0.950 . S
C630 C629 1.398 . S
C630 C631 1.391 . S
C631 H619 0.950 . S
C631 C627 1.393 . S
C631 C630 1.391 . S
H632 C640 0.950 . S
H633 C645 0.950 . S
H634 C642 0.950 . S
H635 C644 0.950 . S
H636 C646 0.950 . S
H637 C648 0.950 . S
H638 C650 0.950 1_655 S
H639 C651 0.950 . S
C640 H632 0.950 . S
C640 C641 1.386 . S
C640 C642 1.391 . S
C641 C640 1.386 . S
C641 C645 1.393 . S
C642 H634 0.950 . S
C642 C640 1.391 . S
C642 C643 1.400 . S
C643 C642 1.400 . S
C643 C644 1.398 . S
C643 C649 1.491 . S
C644 H635 0.950 . S
C644 C643 1.398 . S
C644 C645 1.391 . S
C645 H633 0.950 . S
C645 C641 1.393 . S
C645 C644 1.391 . S
C646 H636 0.950 . S
C646 C647 1.386 1_455 S
C646 C648 1.391 . S
C647 C646 1.386 1_655 S
C647 C651 1.393 . S
C648 H637 0.950 . S
C648 C646 1.391 . S
C648 C649 1.400 . S
C649 C643 1.491 . S
C649 C648 1.400 . S
C649 C650 1.398 . S
C650 H638 0.950 1_455 S
C650 C649 1.398 . S
C650 C651 1.391 1_455 S
C651 H639 0.950 . S
C651 C647 1.393 . S
C651 C650 1.391 1_655 S
H652 C660 0.950 . S
H653 C665 0.950 . S
H654 C662 0.950 . S
H655 C664 0.950 . S
H656 C666 0.951 . S
H657 C668 0.950 . S
H658 C670 0.950 . S
H659 C671 0.950 . S
C660 H652 0.950 . S
C660 C661 1.386 . S
C660 C662 1.391 . S
C661 C660 1.386 . S
C661 C665 1.393 . S
C662 H654 0.950 . S
C662 C660 1.391 . S
C662 C663 1.400 . S
C663 C662 1.400 . S
C663 C664 1.398 . S
C663 C669 1.491 . S
C664 H655 0.950 . S
C664 C663 1.398 . S
C664 C665 1.391 . S
C665 H653 0.950 . S
C665 C661 1.393 . S
C665 C664 1.391 . S
C666 H656 0.951 . S
C666 C667 1.378 1_545 S
C666 C668 1.391 . S
C667 C666 1.378 1_565 S
C667 C671 1.381 1_565 S
C668 H657 0.950 . S
C668 C666 1.391 . S
C668 C669 1.400 . S
C669 C663 1.491 . S
C669 C668 1.400 . S
C669 C670 1.398 . S
C670 H658 0.950 . S
C670 C669 1.398 . S
C670 C671 1.391 . S
C671 H659 0.950 . S
C671 C667 1.381 1_545 S
C671 C670 1.391 . S
H672 C680 0.950 . S
H673 C685 0.950 . S
H674 C682 0.950 . S
H675 C684 0.950 . S
H676 C686 0.950 . S
H677 C688 0.950 . S
H678 C690 0.950 . S
H679 C691 0.950 . S
C680 H672 0.950 . S
C680 C681 1.386 . S
C680 C682 1.391 . S
C681 C680 1.386 . S
C681 C685 1.393 . S
C682 H674 0.950 . S
C682 C680 1.391 . S
C682 C683 1.400 . S
C683 C682 1.400 . S
C683 C684 1.398 . S
C683 C689 1.491 . S
C684 H675 0.950 . S
C684 C683 1.398 . S
C684 C685 1.391 . S
C685 H673 0.950 . S
C685 C681 1.393 . S
C685 C684 1.391 . S
C686 H676 0.950 . S
C686 C687 1.386 . S
C686 C688 1.391 . S
C687 C686 1.386 . S
C687 C691 1.393 . S
C688 H677 0.950 . S
C688 C686 1.391 . S
C688 C689 1.400 . S
C689 C683 1.491 . S
C689 C688 1.400 . S
C689 C690 1.398 . S
C690 H678 0.950 . S
C690 C689 1.398 . S
C690 C691 1.391 . S
C691 H679 0.950 . S
C691 C687 1.393 . S
C691 C690 1.391 . S
H692 C700 0.950 . S
H693 C705 0.950 . S
H694 C702 0.950 . S
H695 C704 0.950 . S
H696 C706 0.950 . S
H697 C708 0.950 . S
H698 C710 0.950 . S
H699 C711 0.950 . S
C700 H692 0.950 . S
C700 C701 1.386 . S
C700 C702 1.391 . S
C701 C700 1.386 . S
C701 C705 1.393 . S
C702 H694 0.950 . S
C702 C700 1.391 . S
C702 C703 1.400 . S
C703 C702 1.400 . S
C703 C704 1.398 . S
C703 C709 1.491 . S
C704 H695 0.950 . S
C704 C703 1.398 . S
C704 C705 1.391 . S
C705 H693 0.950 . S
C705 C701 1.393 . S
C705 C704 1.391 . S
C706 H696 0.950 . S
C706 C707 1.386 . S
C706 C708 1.391 . S
C707 C706 1.386 . S
C707 C711 1.393 . S
C708 H697 0.950 . S
C708 C706 1.391 . S
C708 C709 1.400 . S
C709 C703 1.491 . S
C709 C708 1.400 . S
C709 C710 1.398 . S
C710 H698 0.950 . S
C710 C709 1.398 . S
C710 C711 1.391 . S
C711 H699 0.950 . S
C711 C707 1.393 . S
C711 C710 1.391 . S
H712 C720 0.950 . S
H713 C725 0.950 . S
H714 C722 0.950 . S
H715 C724 0.950 . S
H716 C726 0.950 . S
H717 C728 0.950 . S
H718 C730 0.950 . S
H719 C731 0.950 . S
C720 H712 0.950 . S
C720 C721 1.386 1_556 S
C720 C722 1.391 . S
C721 C720 1.386 1_554 S
C721 C725 1.393 . S
C722 H714 0.950 . S
C722 C720 1.391 . S
C722 C723 1.400 1_556 S
C723 C722 1.400 1_554 S
C723 C724 1.398 . S
C723 C729 1.491 1_554 S
C724 H715 0.950 . S
C724 C723 1.398 . S
C724 C725 1.391 . S
C725 H713 0.950 . S
C725 C721 1.393 . S
C725 C724 1.391 . S
C726 H716 0.950 . S
C726 C727 1.386 1_554 S
C726 C728 1.391 . S
C727 C726 1.386 1_556 S
C727 C731 1.393 . S
C728 H717 0.950 . S
C728 C726 1.391 . S
C728 C729 1.400 1_454 S
C729 C723 1.491 1_556 S
C729 C728 1.400 1_656 S
C729 C730 1.398 . S
C730 H718 0.950 . S
C730 C729 1.398 . S
C730 C731 1.391 1_655 S
C731 H719 0.950 . S
C731 C727 1.393 . S
C731 C730 1.391 1_455 S
H732 C740 0.950 . S
H733 C745 0.950 1_556 S
H734 C742 0.950 . S
H735 C744 0.950 . S
H736 C746 0.950 . S
H737 C748 0.950 . S
H738 C750 0.950 1_554 S
H739 C751 0.950 . S
C740 H732 0.950 . S
C740 C741 1.386 . S
C740 C742 1.391 . S
C741 C740 1.386 . S
C741 C745 1.393 . S
C742 H734 0.950 . S
C742 C740 1.391 . S
C742 C743 1.400 1_554 S
C743 C742 1.400 1_556 S
C743 C744 1.398 . S
C743 C749 1.491 . S
C744 H735 0.950 . S
C744 C743 1.398 . S
C744 C745 1.391 1_556 S
C745 H733 0.950 1_554 S
C745 C741 1.393 . S
C745 C744 1.391 1_554 S
C746 H736 0.950 . S
C746 C747 1.386 1_565 S
C746 C748 1.391 . S
C747 C746 1.386 1_545 S
C747 C751 1.393 . S
C748 H737 0.950 . S
C748 C746 1.391 . S
C748 C749 1.400 . S
C749 C743 1.491 . S
C749 C748 1.400 . S
C749 C750 1.398 1_565 S
C750 H738 0.950 1_556 S
C750 C749 1.398 1_545 S
C750 C751 1.391 . S
C751 H739 0.950 . S
C751 C747 1.393 . S
C751 C750 1.391 . S
H752 C760 0.950 . S
H753 C765 0.950 . S
H754 C762 0.950 . S
H755 C764 0.950 . S
H756 C766 0.950 . S
H757 C768 0.950 . S
H758 C770 0.950 . S
H759 C771 0.950 . S
C760 H752 0.950 . S
C760 C761 1.386 . S
C760 C762 1.391 1_554 S
C761 C760 1.386 . S
C761 C765 1.393 . S
C762 H754 0.950 . S
C762 C760 1.391 1_556 S
C762 C763 1.400 . S
C763 C762 1.400 . S
C763 C764 1.398 . S
C763 C769 1.491 . S
C764 H755 0.950 . S
C764 C763 1.398 . S
C764 C765 1.391 1_556 S
C765 H753 0.950 . S
C765 C761 1.393 . S
C765 C764 1.391 1_554 S
C766 H756 0.950 . S
C766 C767 1.386 . S
C766 C768 1.391 . S
C767 C766 1.386 . S
C767 C771 1.393 . S
C768 H757 0.950 . S
C768 C766 1.391 . S
C768 C769 1.400 . S
C769 C763 1.491 . S
C769 C768 1.400 . S
C769 C770 1.398 . S
C770 H758 0.950 . S
C770 C769 1.398 . S
C770 C771 1.391 . S
C771 H759 0.950 . S
C771 C767 1.393 . S
C771 C770 1.391 . S
H772 C780 0.950 . S
H773 C785 0.950 . S
H774 C782 0.950 . S
H775 C784 0.950 . S
H776 C786 0.950 . S
H777 C788 0.950 . S
H778 C790 0.950 . S
H779 C791 0.950 1_554 S
C780 H772 0.950 . S
C780 C781 1.386 . S
C780 C782 1.391 . S
C781 C780 1.386 . S
C781 C785 1.393 1_554 S
C782 H774 0.950 . S
C782 C780 1.391 . S
C782 C783 1.400 1_554 S
C783 C782 1.400 1_556 S
C783 C784 1.398 . S
C783 C789 1.491 . S
C784 H775 0.950 . S
C784 C783 1.398 . S
C784 C785 1.391 . S
C785 H773 0.950 . S
C785 C781 1.393 1_556 S
C785 C784 1.391 . S
C786 H776 0.950 . S
C786 C787 1.386 . S
C786 C788 1.391 . S
C787 C786 1.386 . S
C787 C791 1.393 . S
C788 H777 0.950 . S
C788 C786 1.391 . S
C788 C789 1.400 . S
C789 C783 1.491 . S
C789 C788 1.400 . S
C789 C790 1.398 1_556 S
C790 H778 0.950 . S
C790 C789 1.398 1_554 S
C790 C791 1.391 1_554 S
C791 H779 0.950 1_556 S
C791 C787 1.393 . S
C791 C790 1.391 1_556 S
H792 C800 0.950 . S
H793 C805 0.950 . S
H794 C802 0.950 . S
H795 C804 0.950 . S
H796 C806 0.950 . S
H797 C808 0.950 . S
H798 C810 0.950 . S
H799 C811 0.950 . S
C800 H792 0.950 . S
C800 C801 1.386 . S
C800 C802 1.391 . S
C801 C800 1.386 . S
C801 C805 1.393 . S
C802 H794 0.950 . S
C802 C800 1.391 . S
C802 C803 1.400 . S
C803 C802 1.400 . S
C803 C804 1.398 . S
C803 C809 1.491 . S
C804 H795 0.950 . S
C804 C803 1.398 . S
C804 C805 1.391 . S
C805 H793 0.950 . S
C805 C801 1.393 . S
C805 C804 1.391 . S
C806 H796 0.950 . S
C806 C807 1.386 . S
C806 C808 1.391 . S
C807 C806 1.386 . S
C807 C811 1.393 . S
C808 H797 0.950 . S
C808 C806 1.391 . S
C808 C809 1.400 . S
C809 C803 1.491 . S
C809 C808 1.400 . S
C809 C810 1.398 . S
C810 H798 0.950 . S
C810 C809 1.398 . S
C810 C811 1.391 . S
C811 H799 0.950 . S
C811 C807 1.393 . S
C811 C810 1.391 . S
H812 C820 0.950 . S
H813 C825 0.950 . S
H814 C822 0.950 . S
H815 C824 0.950 . S
H816 C826 0.950 . S
H817 C828 0.950 . S
H818 C830 0.950 . S
H819 C831 0.959 . S
C820 H812 0.950 . S
C820 C821 1.386 . S
C820 C822 1.391 . S
C821 C820 1.386 . S
C821 C825 1.393 . S
C822 H814 0.950 . S
C822 C820 1.391 . S
C822 C823 1.400 . S
C823 C822 1.400 . S
C823 C824 1.398 . S
C823 C829 1.491 . S
C824 H815 0.950 . S
C824 C823 1.398 . S
C824 C825 1.391 . S
C825 H813 0.950 . S
C825 C821 1.393 . S
C825 C824 1.391 . S
C826 H816 0.950 . S
C826 C827 1.386 . S
C826 C828 1.391 . S
C827 C826 1.386 . S
C827 C831 1.393 . S
C828 H817 0.950 . S
C828 C826 1.391 . S
C828 C829 1.400 . S
C829 C823 1.491 . S
C829 C828 1.400 . S
C829 C830 1.398 . S
C830 H818 0.950 . S
C830 C829 1.398 . S
C830 C831 1.391 . S
C831 H819 0.959 . S
C831 C827 1.393 . S
C831 C830 1.391 . S
H832 C840 0.950 . S
H833 C845 0.950 . S
H834 C842 0.950 . S
H835 C844 0.950 . S
H836 C846 0.950 . S
H837 C848 0.950 . S
H838 C850 0.950 . S
H839 C851 0.950 . S
C840 H832 0.950 . S
C840 C841 1.386 . S
C840 C842 1.391 . S
C841 C840 1.386 . S
C841 C845 1.393 . S
C842 H834 0.950 . S
C842 C840 1.391 . S
C842 C843 1.400 . S
C843 C842 1.400 . S
C843 C844 1.398 . S
C843 C849 1.491 . S
C844 H835 0.950 . S
C844 C843 1.398 . S
C844 C845 1.391 . S
C845 H833 0.950 . S
C845 C841 1.393 . S
C845 C844 1.391 . S
C846 H836 0.950 . S
C846 C847 1.386 . S
C846 C848 1.391 . S
C847 C846 1.386 . S
C847 C851 1.393 . S
C848 H837 0.950 . S
C848 C846 1.391 . S
C848 C849 1.400 . S
C849 C843 1.491 . S
C849 C848 1.400 . S
C849 C850 1.398 . S
C850 H838 0.950 . S
C850 C849 1.398 . S
C850 C851 1.391 . S
C851 H839 0.950 . S
C851 C847 1.393 . S
C851 C850 1.391 . S
H852 C860 0.950 . S
H853 C865 0.950 . S
H854 C862 0.950 . S
H855 C864 0.950 . S
H856 C866 0.950 . S
H857 C868 0.950 . S
H858 C870 0.950 . S
H859 C871 0.950 . S
C860 H852 0.950 . S
C860 C861 1.386 . S
C860 C862 1.391 . S
C861 C860 1.386 . S
C861 C865 1.393 . S
C862 H854 0.950 . S
C862 C860 1.391 . S
C862 C863 1.400 . S
C863 C862 1.400 . S
C863 C864 1.398 . S
C863 C869 1.491 . S
C864 H855 0.950 . S
C864 C863 1.398 . S
C864 C865 1.391 . S
C865 H853 0.950 . S
C865 C861 1.393 . S
C865 C864 1.391 . S
C866 H856 0.950 . S
C866 C867 1.386 . S
C866 C868 1.391 . S
C867 C866 1.386 . S
C867 C871 1.393 . S
C868 H857 0.950 . S
C868 C866 1.391 . S
C868 C869 1.400 . S
C869 C863 1.491 . S
C869 C868 1.400 . S
C869 C870 1.398 . S
C870 H858 0.950 . S
C870 C869 1.398 . S
C870 C871 1.391 . S
C871 H859 0.950 . S
C871 C867 1.393 . S
C871 C870 1.391 . S
H872 C880 0.950 . S
H873 C885 0.950 . S
H874 C882 0.950 . S
H875 C884 0.950 . S
H876 C886 0.950 . S
H877 C888 0.950 . S
H878 C890 0.950 . S
H879 C891 0.950 . S
C880 H872 0.950 . S
C880 C881 1.386 . S
C880 C882 1.391 . S
C881 C880 1.386 . S
C881 C885 1.393 . S
C882 H874 0.950 . S
C882 C880 1.391 . S
C882 C883 1.400 . S
C883 C882 1.400 . S
C883 C884 1.398 . S
C883 C889 1.491 . S
C884 H875 0.950 . S
C884 C883 1.398 . S
C884 C885 1.391 . S
C885 H873 0.950 . S
C885 C881 1.393 . S
C885 C884 1.391 . S
C886 H876 0.950 . S
C886 C887 1.386 . S
C886 C888 1.391 . S
C887 C886 1.386 . S
C887 C891 1.393 . S
C888 H877 0.950 . S
C888 C886 1.391 . S
C888 C889 1.400 . S
C889 C883 1.491 . S
C889 C888 1.400 . S
C889 C890 1.398 . S
C890 H878 0.950 . S
C890 C889 1.398 . S
C890 C891 1.391 . S
C891 H879 0.950 . S
C891 C887 1.393 . S
C891 C890 1.391 . S
H892 C900 0.950 . S
H893 C905 0.950 . S
H894 C902 0.950 . S
H895 C904 0.956 . S
H896 C906 0.950 1_545 S
H897 C908 0.950 1_545 S
H898 C910 0.950 . S
H899 C911 0.950 . S
C900 H892 0.950 . S
C900 C901 1.386 . S
C900 C902 1.391 . S
C901 C900 1.386 . S
C901 C905 1.393 . S
C902 H894 0.950 . S
C902 C900 1.391 . S
C902 C903 1.400 . S
C903 C902 1.400 . S
C903 C904 1.398 . S
C903 C909 1.491 . S
C904 H895 0.956 . S
C904 C903 1.398 . S
C904 C905 1.391 . S
C905 H893 0.950 . S
C905 C901 1.393 . S
C905 C904 1.391 . S
C906 H896 0.950 1_565 S
C906 C907 1.386 . S
C906 C908 1.391 . S
C907 C906 1.386 . S
C907 C911 1.393 . S
C908 H897 0.950 1_565 S
C908 C906 1.391 . S
C908 C909 1.400 . S
C909 C903 1.491 . S
C909 C908 1.400 . S
C909 C910 1.398 . S
C910 H898 0.950 . S
C910 C909 1.398 . S
C910 C911 1.391 . S
C911 H899 0.950 . S
C911 C907 1.393 . S
C911 C910 1.391 . S
H912 C920 0.950 . S
H913 C925 0.950 . S
H914 C922 0.950 . S
H915 C924 0.950 . S
H916 C926 0.950 . S
H917 C928 0.950 . S
H918 C930 0.950 . S
H919 C931 0.950 . S
C920 H912 0.950 . S
C920 C921 1.386 . S
C920 C922 1.391 . S
C921 C920 1.386 . S
C921 C925 1.393 . S
C922 H914 0.950 . S
C922 C920 1.391 . S
C922 C923 1.400 . S
C923 C922 1.400 . S
C923 C924 1.398 . S
C923 C929 1.491 . S
C924 H915 0.950 . S
C924 C923 1.398 . S
C924 C925 1.391 . S
C925 H913 0.950 . S
C925 C921 1.393 . S
C925 C924 1.391 . S
C926 H916 0.950 . S
C926 C927 1.386 . S
C926 C928 1.391 . S
C927 C926 1.386 . S
C927 C931 1.393 . S
C928 H917 0.950 . S
C928 C926 1.391 . S
C928 C929 1.400 . S
C929 C923 1.491 . S
C929 C928 1.400 . S
C929 C930 1.398 . S
C930 H918 0.950 . S
C930 C929 1.398 . S
C930 C931 1.391 . S
C931 H919 0.950 . S
C931 C927 1.393 . S
C931 C930 1.391 . S
H932 C940 0.950 . S
H933 C945 0.950 . S
H934 C942 0.950 . S
H935 C944 0.950 . S
H936 C946 0.950 . S
H937 C948 0.950 . S
H938 C950 0.950 . S
H939 C951 0.950 . S
C940 H932 0.950 . S
C940 C941 1.386 . S
C940 C942 1.391 . S
C941 C940 1.386 . S
C941 C945 1.393 . S
C942 H934 0.950 . S
C942 C940 1.391 . S
C942 C943 1.400 . S
C943 C942 1.400 . S
C943 C944 1.398 . S
C943 C949 1.491 . S
C944 H935 0.950 . S
C944 C943 1.398 . S
C944 C945 1.391 . S
C945 H933 0.950 . S
C945 C941 1.393 . S
C945 C944 1.391 . S
C946 H936 0.950 . S
C946 C947 1.386 . S
C946 C948 1.391 . S
C947 C946 1.386 . S
C947 C951 1.393 . S
C948 H937 0.950 . S
C948 C946 1.391 . S
C948 C949 1.400 . S
C949 C943 1.491 . S
C949 C948 1.400 . S
C949 C950 1.398 . S
C950 H938 0.950 . S
C950 C949 1.398 . S
C950 C951 1.391 . S
C951 H939 0.950 . S
C951 C947 1.393 . S
C951 C950 1.391 . S
C481 C255 2.726 . S
C487 C343 2.925 . S
C507 C369 2.348 . S
C501 C294 2.111 . S
C527 C409 2.343 . S
C521 C177 2.166 . S
C547 C463 2.864 . S
C541 C216 2.700 . S
C567 C324 2.924 . S
C561 C99 2.739 . S
C581 C138 2.119 . S
C587 C354 2.355 . S
C601 C21 2.149 . S
C607 C394 2.341 . S
C621 C60 2.699 . S
C627 C444 2.857 1_655 S
C647 C320 0.389 1_655 S
C641 C196 0.460 . S
C667 C381 0.623 . S
C661 C235 0.607 . S
C687 C421 0.339 . S
C681 C289 0.331 . S
C701 C157 0.444 . S
C707 C440 0.352 . S
C721 C40 0.456 . S
C727 C341 0.404 . S
C747 C360 0.607 . S
C741 C79 0.612 . S
C767 C400 0.341 . S
C761 C133 0.330 . S
C781 C1 0.404 . S
C787 C461 0.329 . S
C801 C211 2.511 . S
C807 C314 2.869 . S
C821 C250 3.160 . S
C827 C364 3.497 . S
C847 C404 3.214 . S
C841 C274 2.905 . S
C867 C434 2.576 . S
C861 C172 2.272 . S
C881 C55 2.503 . S
C887 C329 2.868 . S
C907 C383 3.497 . S
C901 C94 3.156 . S
C927 C423 3.214 . S
C921 C118 2.914 . S
C941 C16 2.240 . S
C947 C449 2.570 . S
