# Generated by pormake.
# Topology zzz, (3,6)-cn, num edge types: 1
# Building blocks:
#     Node 0, Type 0, BuildingBlock: VETTIZ_charged_linker_0, # of connection points: 3
#     Node 1, Type 0, BuildingBlock: VETTIZ_charged_linker_0, # of connection points: 3
#     Node 2, Type 0, BuildingBlock: VETTIZ_charged_linker_0, # of connection points: 3
#     Node 3, Type 0, BuildingBlock: VETTIZ_charged_linker_0, # of connection points: 3
#     Node 4, Type 0, BuildingBlock: VETTIZ_charged_linker_0, # of connection points: 3
#     Node 5, Type 0, BuildingBlock: VETTIZ_charged_linker_0, # of connection points: 3
#     Node 6, Type 0, BuildingBlock: VETTIZ_charged_linker_0, # of connection points: 3
#     Node 7, Type 0, BuildingBlock: VETTIZ_charged_linker_0, # of connection points: 3
#     Node 8, Type 1, BuildingBlock: HISSIN_clean_sbu_0, # of connection points: 6
#     Node 9, Type 1, BuildingBlock: HISSIN_clean_sbu_0, # of connection points: 6
#     Node 10, Type 1, BuildingBlock: HISSIN_clean_sbu_0, # of connection points: 6
#     Node 11, Type 1, BuildingBlock: HISSIN_clean_sbu_0, # of connection points: 6
#     Edge 12, Type (0, 1), BuildingBlock: OJICUG_clean_linker_0, # of connection points: 2
#     Edge 13, Type (0, 1), BuildingBlock: OJICUG_clean_linker_0, # of connection points: 2
#     Edge 14, Type (0, 1), BuildingBlock: OJICUG_clean_linker_0, # of connection points: 2
#     Edge 15, Type (0, 1), BuildingBlock: OJICUG_clean_linker_0, # of connection points: 2
#     Edge 16, Type (0, 1), BuildingBlock: OJICUG_clean_linker_0, # of connection points: 2
#     Edge 17, Type (0, 1), BuildingBlock: OJICUG_clean_linker_0, # of connection points: 2
#     Edge 18, Type (0, 1), BuildingBlock: OJICUG_clean_linker_0, # of connection points: 2
#     Edge 19, Type (0, 1), BuildingBlock: OJICUG_clean_linker_0, # of connection points: 2
#     Edge 20, Type (0, 1), BuildingBlock: OJICUG_clean_linker_0, # of connection points: 2
#     Edge 21, Type (0, 1), BuildingBlock: OJICUG_clean_linker_0, # of connection points: 2
#     Edge 22, Type (0, 1), BuildingBlock: OJICUG_clean_linker_0, # of connection points: 2
#     Edge 23, Type (0, 1), BuildingBlock: OJICUG_clean_linker_0, # of connection points: 2
#     Edge 24, Type (0, 1), BuildingBlock: OJICUG_clean_linker_0, # of connection points: 2
#     Edge 25, Type (0, 1), BuildingBlock: OJICUG_clean_linker_0, # of connection points: 2
#     Edge 26, Type (0, 1), BuildingBlock: OJICUG_clean_linker_0, # of connection points: 2
#     Edge 27, Type (0, 1), BuildingBlock: OJICUG_clean_linker_0, # of connection points: 2
#     Edge 28, Type (0, 1), BuildingBlock: OJICUG_clean_linker_0, # of connection points: 2
#     Edge 29, Type (0, 1), BuildingBlock: OJICUG_clean_linker_0, # of connection points: 2
#     Edge 30, Type (0, 1), BuildingBlock: OJICUG_clean_linker_0, # of connection points: 2
#     Edge 31, Type (0, 1), BuildingBlock: OJICUG_clean_linker_0, # of connection points: 2
#     Edge 32, Type (0, 1), BuildingBlock: OJICUG_clean_linker_0, # of connection points: 2
#     Edge 33, Type (0, 1), BuildingBlock: OJICUG_clean_linker_0, # of connection points: 2
#     Edge 34, Type (0, 1), BuildingBlock: OJICUG_clean_linker_0, # of connection points: 2
#     Edge 35, Type (0, 1), BuildingBlock: OJICUG_clean_linker_0, # of connection points: 2
# Relax obj value: 0.461
# Max RMSD: 0.243
# Mean RMSD: 0.198
data_MOF--net-zzz--node1-HISSIN_clean_sbu_0--node2-VETTIZ_charged_linker_0--edge1-OJICUG_clean_linker_0
_symmetry_space_group_name_H-M    P1
_symmetry_Int_Tables_number       1
_symmetry_cell_setting            triclinic
loop_
_symmetry_equiv_pos_as_xyz
'x, y, z'
_cell_length_a     43.32913
_cell_length_b     43.249279
_cell_length_c     16.746858
_cell_angle_alpha  89.840321
_cell_angle_beta   91.475673
_cell_angle_gamma 91.359934
loop_
_atom_site_label
_atom_site_type_symbol
_atom_site_fract_x
_atom_site_fract_y
_atom_site_fract_z
_atom_type_partial_charge
C0 C 0.82907 0.56014 0.39358 0.0
C1 C 0.85434 0.57785 0.42911 0.0
C2 C 0.85747 0.60931 0.4067 0.0
C3 C 0.81722 0.60317 0.30632 0.0
C4 C 0.80993 0.574 0.33304 0.0
C5 C 0.77997 0.56252 0.2898 0.0
H6 H 0.67917 0.59205 0.96706 0.0
C7 C 0.79798 0.61075 0.23697 0.0
C8 C 0.77396 0.58857 0.22796 0.0
H9 H 0.66715 0.51729 0.13447 0.0
H10 H 0.7137 0.53555 0.21077 0.0
H11 H 0.69904 0.64662 0.08757 0.0
H12 H 0.73655 0.58435 0.93145 0.0
H13 H 0.77187 0.60223 0.96062 0.0
H14 H 0.74203 0.6239 0.9092 0.0
H15 H 0.70035 0.64717 0.98035 0.0
H16 H 0.72978 0.66657 0.04121 0.0
C17 C 0.75418 0.5602 0.3511 0.0
C18 C 0.78534 0.53141 0.24892 0.0
C19 C 0.85229 0.65136 1.00236 0.0
C20 C 0.84093 0.65085 0.92286 0.0
C21 C 0.81038 0.66007 0.90773 0.0
C22 C 0.78983 0.6614 0.97083 0.0
C23 C 0.8001 0.65223 0.04726 0.0
C24 C 0.83131 0.65147 0.06458 0.0
C25 C 0.8378 0.64232 0.15024 0.0
C26 C 0.80541 0.63127 0.17424 0.0
C27 C 0.78397 0.63565 0.11175 0.0
C28 C 0.84951 0.67144 0.19651 0.0
C29 C 0.86163 0.61608 0.15412 0.0
C30 C 0.68602 0.57973 1.02089 0.0
C31 C 0.66931 0.55342 0.04447 0.0
C32 C 0.67946 0.53791 0.11491 0.0
C33 C 0.70637 0.54845 0.15902 0.0
C34 C 0.72319 0.57478 0.13261 0.0
C35 C 0.71249 0.58961 0.06413 0.0
C36 C 0.73327 0.61544 0.03817 0.0
C37 C 0.75725 0.61599 0.10569 0.0
C38 C 0.7521 0.59184 0.16175 0.0
C39 C 0.71471 0.64563 0.03607 0.0
C40 C 0.74669 0.60631 0.956 0.0
H41 H 0.84026 0.64644 0.33574 0.0
H42 H 0.82446 0.53656 0.41231 0.0
H43 H 0.80493 0.53358 0.20751 0.0
H44 H 0.76466 0.52353 0.2138 0.0
H45 H 0.79086 0.51333 0.29398 0.0
H46 H 0.75221 0.5825 0.38327 0.0
H47 H 0.75921 0.54188 0.39593 0.0
H48 H 0.73147 0.55483 0.32248 0.0
H49 H 0.87599 0.64578 1.01535 0.0
H50 H 0.80136 0.66169 0.84697 0.0
H51 H 0.76616 0.6663 0.95697 0.0
H52 H 0.85989 0.68906 0.15642 0.0
H53 H 0.86814 0.66594 0.24061 0.0
H54 H 0.83043 0.68276 0.2275 0.0
H55 H 0.85377 0.59628 0.1159 0.0
H56 H 0.8656 0.60731 0.21534 0.0
H57 H 0.8846 0.62447 0.13431 0.0
H58 H 0.87543 0.62421 0.43263 0.0
C59 C 0.8384 0.6221 0.34784 0.0
C60 C 0.88306 0.80476 0.93283 0.0
C61 C 0.88379 0.83732 0.93546 0.0
C62 C 0.87376 0.8512 1.00618 0.0
C63 C 0.88525 0.80438 0.07685 0.0
C64 C 0.88642 0.78868 1.00545 0.0
C65 C 0.89991 0.75716 1.01671 0.0
H66 H 0.01856 0.68538 0.10105 0.0
C67 C 0.90455 0.78818 0.1366 0.0
C68 C 0.91142 0.75946 0.10437 0.0
H69 H 0.93102 0.64549 1.01612 0.0
H70 H 0.90429 0.68757 0.08029 0.0
H71 H 1.00869 0.76536 0.10031 0.0
H72 H 0.97377 0.70622 0.29029 0.0
H73 H 0.99879 0.73795 0.31849 0.0
H74 H 0.01408 0.7057 0.26684 0.0
H75 H 0.03473 0.74046 0.15434 0.0
H76 H 0.02043 0.7744 0.20158 0.0
C77 C 0.9267 0.75282 0.95833 0.0
C78 C 0.87371 0.73283 1.00206 0.0
C79 C 0.95454 0.85731 0.34844 0.0
C80 C 0.9801 0.85627 0.40165 0.0
C81 C 0.99928 0.83003 0.39533 0.0
C82 C 0.99234 0.80571 0.33921 0.0
C83 C 0.96584 0.8072 0.28857 0.0
C84 C 0.94784 0.83312 0.29447 0.0
C85 C 0.92132 0.83299 0.23582 0.0
C86 C 0.924 0.80125 0.1983 0.0
C87 C 0.95069 0.78585 0.22672 0.0
C88 C 0.92702 0.86011 0.17575 0.0
C89 C 0.891 0.83527 0.28236 0.0
C90 C 0.99372 0.68626 0.09345 0.0
C91 C 0.97705 0.66311 0.04699 0.0
C92 C 0.94452 0.66361 0.04591 0.0
C93 C 0.92905 0.68801 0.07979 0.0
C94 C 0.94603 0.71261 0.11315 0.0
C95 C 0.97698 0.7105 0.12972 0.0
C96 C 0.98656 0.73617 0.19013 0.0
C97 C 0.95709 0.75583 0.19316 0.0
C98 C 0.93491 0.74192 0.14111 0.0
C99 C 0.01426 0.75522 0.15989 0.0
C100 C 0.99377 0.72077 0.27115 0.0
H101 H 0.8681 0.84601 0.13122 0.0
H102 H 0.88692 0.79315 0.87701 0.0
H103 H 0.85738 0.7404 0.95395 0.0
H104 H 0.86024 0.72882 0.05677 0.0
H105 H 0.88266 0.71071 0.9804 0.0
H106 H 0.94495 0.77103 0.96787 0.0
H107 H 0.91836 0.75365 0.8952 0.0
H108 H 0.93745 0.73005 0.96523 0.0
H109 H 0.93987 0.8772 0.3466 0.0
H110 H 0.01947 0.82805 0.43418 0.0
H111 H 1.00775 0.78666 0.33628 0.0
H112 H 0.94761 0.87483 0.19204 0.0
H113 H 0.90748 0.87624 0.17299 0.0
H114 H 0.93156 0.85156 0.11481 0.0
H115 H 0.89214 0.82127 0.33816 0.0
H116 H 0.87068 0.82596 0.24816 0.0
H117 H 0.88667 0.85959 0.29924 0.0
H118 H 0.8714 0.87593 1.01059 0.0
C119 C 0.87358 0.83425 0.07733 0.0
C120 C 0.84452 1.00356 0.06525 0.0
C121 C 0.86713 0.98594 0.02407 0.0
C122 C 0.86632 0.95356 0.0348 0.0
C123 C 0.81845 0.95603 0.10449 0.0
C124 C 0.82064 0.9876 0.10868 0.0
C125 C 0.79553 0.99871 0.16607 0.0
H126 H 0.65982 0.94886 0.35937 0.0
C127 C 0.78995 0.94484 0.13993 0.0
C128 C 0.77652 0.96856 0.18371 0.0
H129 H 0.70365 0.03811 0.39931 0.0
H130 H 0.7452 0.0243 0.30723 0.0
H131 H 0.65814 0.94816 0.20103 0.0
H132 H 0.71802 0.9074 0.36442 0.0
H133 H 0.71279 0.88062 0.28565 0.0
H134 H 0.67947 0.89594 0.33283 0.0
H135 H 0.65889 0.90745 0.20062 0.0
H136 H 0.6806 0.93022 0.1293 0.0
C137 C 0.77532 0.02302 0.12491 0.0
C138 C 0.81156 0.01152 0.24236 0.0
C139 C 0.72471 0.87607 0.9663 0.0
C140 C 0.69232 0.875 0.9731 0.0
C141 C 0.6814 0.866 0.0488 0.0
C142 C 0.6998 0.8723 0.11712 0.0
C143 C 0.72854 0.88714 0.10709 0.0
C144 C 0.74228 0.88546 0.03398 0.0
C145 C 0.77305 0.90231 0.0344 0.0
C146 C 0.77251 0.91834 0.11626 0.0
C147 C 0.7452 0.91097 0.15526 0.0
C148 C 0.77404 0.92595 0.96461 0.0
C149 C 0.79844 0.87808 0.02755 0.0
C150 C 0.67809 0.96585 0.34937 0.0
C151 C 0.67764 0.99468 0.38731 0.0
C152 C 0.70289 0.01549 0.37174 0.0
C153 C 0.72704 1.00754 0.31849 0.0
C154 C 0.72644 0.97832 0.28055 0.0
C155 C 0.70181 0.95843 0.29732 0.0
C156 C 0.70234 0.929 0.25142 0.0
C157 C 0.73284 0.93251 0.20934 0.0
C158 C 0.74751 0.96181 0.22365 0.0
C159 C 0.67373 0.92843 0.19261 0.0
C160 C 0.70298 0.90165 0.3114 0.0
H161 H 0.84345 0.91428 0.08704 0.0
H162 H 0.84564 0.02858 0.06407 0.0
H163 H 0.82654 0.99378 0.27038 0.0
H164 H 0.79462 0.01833 0.28683 0.0
H165 H 0.82623 0.03215 0.22826 0.0
H166 H 0.76444 0.01346 0.06912 0.0
H167 H 0.7894 0.04388 0.1093 0.0
H168 H 0.75669 0.03016 0.16471 0.0
H169 H 0.73485 0.87712 0.90805 0.0
H170 H 0.65746 0.8595 0.05722 0.0
H171 H 0.68999 0.86848 0.17456 0.0
H172 H 0.75489 0.9425 0.96863 0.0
H173 H 0.77224 0.91416 0.90587 0.0
H174 H 0.79605 0.93938 0.96413 0.0
H175 H 0.79019 0.85761 0.99227 0.0
H176 H 0.8063 0.86971 0.08734 0.0
H177 H 0.81837 0.88754 0.99458 0.0
H178 H 0.88396 0.93945 1.00972 0.0
C179 C 0.84257 0.93877 0.07608 0.0
C180 C 0.5147 0.71222 0.37421 0.0
C181 C 0.49703 0.69254 0.42599 0.0
C182 C 0.46484 0.69657 0.42706 0.0
C183 C 0.46732 0.73237 0.31663 0.0
C184 C 0.49901 0.73311 0.3214 0.0
C185 C 0.51123 0.75974 0.2686 0.0
H186 H 0.4703 0.86252 0.96241 0.0
C187 C 0.45656 0.75257 0.25209 0.0
C188 C 0.48154 0.77083 0.22494 0.0
H189 H 0.55937 0.86252 0.08282 0.0
H190 H 0.54153 0.81964 0.16945 0.0
H191 H 0.46283 0.7994 0.93559 0.0
H192 H 0.42919 0.85601 0.11689 0.0
H193 H 0.39866 0.83012 0.09001 0.0
H194 H 0.41612 0.85408 1.01433 0.0
H195 H 0.4236 0.81054 0.93089 0.0
H196 H 0.43481 0.77408 0.97447 0.0
C197 C 0.53467 0.74759 0.20969 0.0
C198 C 0.52542 0.78504 0.32359 0.0
C199 C 0.36644 0.71137 0.08633 0.0
C200 C 0.35521 0.72051 1.01047 0.0
C201 C 0.35978 0.7515 0.98669 0.0
C202 C 0.37931 0.7714 0.03177 0.0
C203 C 0.39504 0.75983 0.09961 0.0
C204 C 0.38673 0.73117 0.12934 0.0
C205 C 0.405 0.72312 0.20389 0.0
C206 C 0.42833 0.75037 0.20764 0.0
C207 C 0.42296 0.77093 0.14454 0.0
C208 C 0.42098 0.69188 0.19182 0.0
C209 C 0.3825 0.72204 0.27446 0.0
C210 C 0.4862 0.85364 1.00744 0.0
C211 C 0.51625 0.86602 1.01481 0.0
C212 C 0.53591 0.85358 0.07548 0.0
C213 C 0.52556 0.82888 0.12594 0.0
C214 C 0.49503 0.81689 0.11702 0.0
C215 C 0.47623 0.82976 0.05805 0.0
C216 C 0.44485 0.81494 0.05282 0.0
C217 C 0.44663 0.79207 0.12125 0.0
C218 C 0.47618 0.79234 0.15968 0.0
C219 C 0.44108 0.79899 0.96953 0.0
C220 C 0.42076 0.84001 0.06874 0.0
H221 H 0.42613 0.72072 0.38081 0.0
H222 H 0.53966 0.71155 0.37563 0.0
H223 H 0.50863 0.79183 0.3691 0.0
H224 H 0.53187 0.80612 0.2902 0.0
H225 H 0.54642 0.77655 0.35538 0.0
H226 H 0.52405 0.72862 0.17283 0.0
H227 H 0.5552 0.73848 0.24224 0.0
H228 H 0.54259 0.76616 0.16883 0.0
H229 H 0.36264 0.68793 0.10725 0.0
H230 H 0.3506 0.75943 0.92964 0.0
H231 H 0.38308 0.79431 1.00909 0.0
H232 H 0.43565 0.69285 0.13829 0.0
H233 H 0.40376 0.67265 0.18404 0.0
H234 H 0.43577 0.68558 0.24374 0.0
H235 H 0.35796 0.71927 0.25405 0.0
H236 H 0.38427 0.74364 0.31025 0.0
H237 H 0.38665 0.70184 0.31395 0.0
H238 H 0.45063 0.68342 0.46791 0.0
C239 C 0.45023 0.71689 0.3744 0.0
C240 C 0.35802 0.49329 0.28167 0.0
C241 C 0.38 0.47726 0.33101 0.0
C242 C 0.37676 0.44482 0.33794 0.0
C243 C 0.32742 0.44618 0.27005 0.0
C244 C 0.33206 0.47641 0.24837 0.0
C245 C 0.30648 0.48525 0.18742 0.0
H246 H 0.15788 0.44367 0.05015 0.0
C247 C 0.29657 0.43586 0.2461 0.0
C248 C 0.28396 0.45693 0.191 0.0
H249 H 0.21517 0.51489 0.94363 0.0
H250 H 0.25661 0.50378 0.04156 0.0
H251 H 0.20819 0.39172 0.06595 0.0
H252 H 0.16422 0.45601 0.20229 0.0
H253 H 0.18783 0.44209 0.28117 0.0
H254 H 0.15942 0.41702 0.23109 0.0
H255 H 0.17011 0.39107 0.10627 0.0
H256 H 0.20222 0.37429 0.15998 0.0
C257 C 0.32121 0.48842 0.10506 0.0
C258 C 0.29103 0.51514 0.21283 0.0
C259 C 0.23374 0.39813 0.47056 0.0
C260 C 0.20133 0.39944 0.47094 0.0
C261 C 0.18482 0.3877 0.40347 0.0
C262 C 0.19967 0.38441 0.33104 0.0
C263 C 0.23048 0.39438 0.32686 0.0
C264 C 0.24809 0.39745 0.39631 0.0
C265 C 0.28058 0.40817 0.37952 0.0
C266 C 0.27728 0.41574 0.28986 0.0
C267 C 0.24715 0.40962 0.26156 0.0
C268 C 0.30236 0.38118 0.39839 0.0
C269 C 0.28919 0.43716 0.43062 0.0
C270 C 0.17946 0.45647 0.04446 0.0
C271 C 0.18276 0.47964 0.98603 0.0
C272 C 0.21136 0.49664 0.98681 0.0
C273 C 0.23571 0.48997 0.0429 0.0
C274 C 0.23186 0.46586 0.09887 0.0
C275 C 0.20377 0.44989 0.0984 0.0
C276 C 0.2021 0.42564 0.16201 0.0
C277 C 0.23485 0.4273 0.19677 0.0
C278 C 0.25259 0.45149 0.16174 0.0
C279 C 0.19509 0.39392 0.12186 0.0
C280 C 0.17728 0.43544 0.22239 0.0
H281 H 0.34896 0.40434 0.31032 0.0
H282 H 0.36096 0.5178 0.27015 0.0
H283 H 0.28155 0.51245 0.2736 0.0
H284 H 0.27178 0.52092 0.17097 0.0
H285 H 0.30795 0.53485 0.21378 0.0
H286 H 0.33355 0.46702 0.09005 0.0
H287 H 0.33818 0.5081 0.10488 0.0
H288 H 0.30393 0.49228 0.05694 0.0
H289 H 0.24705 0.40392 0.52416 0.0
H290 H 0.15997 0.38594 0.40236 0.0
H291 H 0.18609 0.37762 0.27938 0.0
H292 H 0.29393 0.36697 0.44919 0.0
H293 H 0.32569 0.38959 0.41787 0.0
H294 H 0.30422 0.36566 0.34603 0.0
H295 H 0.27266 0.45597 0.41828 0.0
H296 H 0.3127 0.44623 0.41944 0.0
H297 H 0.28919 0.4317 0.49537 0.0
H298 H 0.39379 0.43163 0.37105 0.0
C299 C 0.35078 0.42918 0.30625 0.0
C300 C 0.1582 0.23491 0.43969 0.0
C301 C 0.15773 0.20242 0.43255 0.0
C302 C 0.16759 0.19039 0.35934 0.0
C303 C 0.1532 0.23805 0.29631 0.0
C304 C 0.15303 0.25231 0.36981 0.0
C305 C 0.13851 0.28358 0.3644 0.0
H306 H 0.01764 0.35617 0.2968 0.0
C307 C 0.13233 0.25482 0.24138 0.0
C308 C 0.12542 0.28266 0.27812 0.0
H309 H 0.10566 0.39508 0.38124 0.0
H310 H 0.13199 0.35402 0.31062 0.0
H311 H 0.06006 0.33775 0.10366 0.0
H312 H 0.02812 0.27577 0.29124 0.0
H313 H 0.01515 0.26803 0.19017 0.0
H314 H 1.00122 0.30114 0.24189 0.0
H315 H 0.02008 0.33753 0.13064 0.0
H316 H 0.03499 0.3061 0.0749 0.0
C317 C 0.16416 0.30848 0.37858 0.0
C318 C 0.11269 0.28597 0.42644 0.0
C319 C 0.07977 0.18774 0.03004 0.0
C320 C 0.05352 0.18901 0.97934 0.0
C321 C 0.03408 0.21483 0.98969 0.0
C322 C 0.04151 0.2386 0.04717 0.0
C323 C 0.06875 0.23693 0.09505 0.0
C324 C 0.08697 0.21139 0.08507 0.0
C325 C 0.11456 0.21132 0.14003 0.0
C326 C 0.11204 0.24242 0.18071 0.0
C327 C 0.08464 0.25774 0.15707 0.0
C328 C 0.1439 0.21035 0.08905 0.0
C329 C 0.11062 0.18334 0.19842 0.0
C330 C 0.0425 0.35516 0.30333 0.0
C331 C 0.05948 0.37777 0.35092 0.0
C332 C 0.09199 0.37726 0.3506 0.0
C333 C 0.10724 0.35335 0.31341 0.0
C334 C 0.09004 0.3291 0.2788 0.0
C335 C 0.05894 0.33133 0.26433 0.0
C336 C 0.04882 0.3064 0.20226 0.0
C337 C 0.07835 0.28707 0.19477 0.0
C338 C 0.10103 0.30037 0.24646 0.0
C339 C 0.04045 0.32275 0.12325 0.0
C340 C 0.0217 0.28667 0.23313 0.0
H341 H 0.17065 0.19816 0.23433 0.0
H342 H 0.15517 0.24533 0.49747 0.0
H343 H 0.09483 0.26737 0.41678 0.0
H344 H 0.10115 0.30845 0.42343 0.0
H345 H 0.12219 0.28427 0.48841 0.0
H346 H 0.18257 0.30016 0.42032 0.0
H347 H 0.15506 0.32915 0.40782 0.0
H348 H 0.17522 0.31529 0.32181 0.0
H349 H 0.09474 0.16809 0.02897 0.0
H350 H 1.01334 0.21694 0.95294 0.0
H351 H 0.02595 0.25741 0.05311 0.0
H352 H 0.14116 0.22464 0.03407 0.0
H353 H 0.14864 0.18633 0.07038 0.0
H354 H 0.16459 0.22017 0.12072 0.0
H355 H 0.09004 0.16838 0.18364 0.0
H356 H 0.10716 0.19099 0.26073 0.0
H357 H 0.13049 0.16766 0.19709 0.0
H358 H 0.17111 0.16595 0.35151 0.0
C359 C 0.1658 0.20866 0.29039 0.0
C360 C 0.34009 0.0518 0.04359 0.0
C361 C 0.36939 0.06637 0.02406 0.0
C362 C 0.37981 0.09129 0.07291 0.0
C363 C 0.33731 0.08393 0.162 0.0
C364 C 0.32379 0.06188 0.11279 0.0
C365 C 0.29106 0.0538 0.14448 0.0
H366 H 0.187 0.09168 0.44726 0.0
C367 C 0.31754 0.09019 0.22904 0.0
C368 C 0.28866 0.07503 0.21892 0.0
H369 H 0.16939 0.01893 0.27654 0.0
H370 H 0.21906 0.03214 0.21119 0.0
H371 H 0.23654 0.07495 0.50384 0.0
H372 H 0.22257 0.14386 0.33621 0.0
H373 H 0.25306 0.15646 0.40088 0.0
H374 H 0.21726 0.14273 0.44252 0.0
H375 H 0.25186 0.11161 0.52911 0.0
H376 H 0.27583 0.0819 0.48778 0.0
C377 C 0.28948 0.0195 0.16847 0.0
C378 C 0.26627 0.0614 0.08075 0.0
C379 C 0.36174 0.10444 0.50361 0.0
C380 C 0.34567 0.10957 0.57438 0.0
C381 C 0.3198 0.1286 0.5713 0.0
C382 C 0.30654 0.13664 0.49714 0.0
C383 C 0.31822 0.12343 0.42812 0.0
C384 C 0.34727 0.11131 0.43019 0.0
C385 C 0.35657 0.10106 0.34857 0.0
C386 C 0.32608 0.10517 0.30112 0.0
C387 C 0.30297 0.11434 0.3519 0.0
C388 C 0.36609 0.06682 0.35016 0.0
C389 C 0.38353 0.12233 0.32222 0.0
C390 C 0.19316 0.0787 0.39495 0.0
C391 C 0.17395 0.05433 0.36821 0.0
C392 C 0.18354 0.03803 0.29945 0.0
C393 C 0.21237 0.04547 0.26193 0.0
C394 C 0.23216 0.06913 0.2939 0.0
C395 C 0.22188 0.08477 0.36019 0.0
C396 C 0.24599 0.10552 0.39734 0.0
C397 C 0.27248 0.10176 0.34074 0.0
C398 C 0.26499 0.08066 0.27762 0.0
C399 C 0.25309 0.09315 0.48359 0.0
C400 C 0.23414 0.13898 0.39483 0.0
H401 H 0.37057 0.12167 0.16893 0.0
H402 H 0.3301 0.03379 1.00564 0.0
H403 H 0.26825 0.08614 0.06299 0.0
H404 H 0.24279 0.05706 0.10373 0.0
H405 H 0.26895 0.04698 0.02667 0.0
H406 H 0.30802 0.01433 0.21333 0.0
H407 H 0.29249 1.00453 0.11553 0.0
H408 H 0.26701 0.01336 0.19506 0.0
H409 H 0.38235 0.09076 0.50491 0.0
H410 H 0.30769 0.13378 0.62526 0.0
H411 H 0.28579 0.14971 0.49617 0.0
H412 H 0.34738 0.05183 0.37476 0.0
H413 H 0.38745 0.0637 0.38708 0.0
H414 H 0.37092 0.05861 0.28912 0.0
H415 H 0.39999 0.12718 0.37297 0.0
H416 H 0.375 0.14485 0.29968 0.0
H417 H 0.39749 0.11113 0.27641 0.0
H418 H 0.40096 0.10397 0.06015 0.0
C419 C 0.36347 0.10063 0.139 0.0
C420 C 0.53028 0.33186 1.00828 0.0
C421 C 0.54785 0.35361 0.9619 0.0
C422 C 0.58019 0.35378 0.97174 0.0
C423 C 0.5773 0.31601 0.07814 0.0
C424 C 0.54591 0.31241 0.06509 0.0
C425 C 0.53374 0.28525 0.11604 0.0
H426 H 0.57154 0.18286 0.4254 0.0
C427 C 0.58746 0.29587 0.14425 0.0
C428 C 0.56264 0.27613 0.1661 0.0
H429 H 0.48408 0.182 0.29705 0.0
H430 H 0.50266 0.22516 0.2123 0.0
H431 H 0.61524 0.19134 0.27681 0.0
H432 H 0.57557 0.24823 0.4515 0.0
H433 H 0.60716 0.27118 0.42282 0.0
H434 H 0.61343 0.23364 0.46712 0.0
H435 H 0.62665 0.19314 0.38056 0.0
H436 H 0.64452 0.21798 0.30742 0.0
C437 C 0.52275 0.25896 0.05972 0.0
C438 C 0.50783 0.29623 0.16934 0.0
C439 C 0.67975 0.33324 0.30978 0.0
C440 C 0.69013 0.32445 0.38668 0.0
C441 C 0.68334 0.29415 0.41303 0.0
C442 C 0.66254 0.27502 0.36939 0.0
C443 C 0.64795 0.28659 0.29977 0.0
C444 C 0.65817 0.31433 0.26824 0.0
C445 C 0.64057 0.32281 0.19305 0.0
C446 C 0.61526 0.29748 0.19105 0.0
C447 C 0.61972 0.27666 0.25398 0.0
C448 C 0.66298 0.32057 0.12239 0.0
C449 C 0.6273 0.35551 0.20371 0.0
C450 C 0.55613 0.19155 0.37898 0.0
C451 C 0.52629 0.17887 0.36902 0.0
C452 C 0.50735 0.19115 0.30654 0.0
C453 C 0.51812 0.2161 0.25732 0.0
C454 C 0.54832 0.22865 0.26966 0.0
C455 C 0.56642 0.21581 0.33011 0.0
C456 C 0.5972 0.23152 0.34024 0.0
C457 C 0.59601 0.25498 0.27335 0.0
C458 C 0.56728 0.2542 0.23089 0.0
C459 C 0.62239 0.20734 0.32618 0.0
C460 C 0.5987 0.24684 0.42452 0.0
H461 H 0.61933 0.33607 0.03097 0.0
H462 H 0.50547 0.32987 0.99981 0.0
H463 H 0.51611 0.31612 0.20666 0.0
H464 H 0.49993 0.2776 0.20994 0.0
H465 H 0.48767 0.3037 0.13239 0.0
H466 H 0.54129 0.25308 1.01804 0.0
H467 H 0.50219 0.26598 1.02361 0.0
H468 H 0.51665 0.23768 0.0928 0.0
H469 H 0.68516 0.35606 0.28676 0.0
H470 H 0.69179 0.28637 0.47094 0.0
H471 H 0.65702 0.25287 0.3947 0.0
H472 H 0.68644 0.31307 0.14146 0.0
H473 H 0.66636 0.34331 0.09239 0.0
H474 H 0.65455 0.30328 0.07746 0.0
H475 H 0.61436 0.35671 0.26009 0.0
H476 H 0.61131 0.36225 0.15499 0.0
H477 H 0.64602 0.37348 0.20586 0.0
H478 H 0.59455 0.36932 0.93696 0.0
C479 C 0.59476 0.33489 0.02773 0.0
Eu480 Eu 0.99394 0.03979 0.62882 0.0
Eu481 Eu 0.04021 1.00649 0.74669 0.0
C482 C 0.03202 0.07957 0.77107 0.0
C483 C 0.98947 0.10266 0.49786 0.0
C484 C 0.99522 0.12765 0.55035 0.0
C485 C 0.03819 0.11479 0.43433 0.0
C486 C 0.02318 0.14429 0.54892 0.0
C487 C 1.01029 0.09798 0.43613 0.0
C488 C 0.04564 0.13694 0.49346 0.0
C489 C 0.9698 0.0763 0.52471 0.0
O490 O 0.99346 1.00535 0.81022 0.0
O491 O 0.95837 0.02453 0.71965 0.0
C492 C 0.96481 0.01292 0.79079 0.0
O493 O 0.9817 0.98942 0.60107 0.0
O494 O 0.05518 0.99522 0.86885 0.0
O495 O 0.07311 0.9698 0.77054 0.0
O496 O 0.02714 0.97073 0.64981 0.0
C497 C 1.00163 0.96696 0.60623 0.0
O498 O 0.04054 0.03873 0.5636 0.0
O499 O 0.07559 0.02587 0.66141 0.0
O500 O 0.05089 0.05642 0.78156 0.0
O501 O 0.97936 0.04902 0.50507 0.0
O502 O 0.9622 0.07702 0.59955 0.0
O503 O 1.00799 0.07683 0.72165 0.0
C504 C 0.04795 0.94112 0.87052 0.0
C505 C 0.04382 0.91635 0.81648 0.0
C506 C 0.99984 0.92568 0.93235 0.0
C507 C 0.01684 0.89807 0.81658 0.0
C508 C 0.02684 0.9439 0.93239 0.0
C509 C 0.99381 0.90388 0.87162 0.0
C510 C 0.066 0.96888 0.84576 0.0
C511 C 0.06947 0.03446 0.5874 0.0
H512 H 0.97966 0.13226 0.59828 0.0
H513 H 0.05447 0.10951 0.38858 0.0
H514 H 0.0279 0.16149 0.59475 0.0
H515 H 1.00651 0.0792 0.39404 0.0
H516 H 0.05978 0.91315 0.7686 0.0
H517 H 0.98299 0.92965 0.9777 0.0
H518 H 1.0131 0.8809 0.77016 0.0
H519 H 0.02948 0.96236 0.97583 0.0
Eu520 Eu 0.53909 0.04444 0.75688 0.0
Eu521 Eu 0.49752 1.00219 0.64054 0.0
C522 C 0.52917 0.97062 0.79375 0.0
C523 C 0.60575 0.04581 0.88075 0.0
C524 C 0.60266 0.0277 0.95009 0.0
C525 C 0.64095 1.00804 0.82936 0.0
C526 C 0.61697 0.99915 0.9565 0.0
C527 C 0.62689 0.03667 0.82335 0.0
C528 C 0.63488 0.98825 0.89405 0.0
C529 C 0.58028 0.06631 0.85601 0.0
O530 O 0.46714 0.01419 0.74769 0.0
O531 O 0.49092 0.05856 0.7925 0.0
C532 C 0.46694 0.03925 0.79257 0.0
O533 O 0.52414 0.08061 0.66696 0.0
O534 O 0.47736 0.95696 0.60644 0.0
O535 O 0.46136 0.99827 0.54809 0.0
O536 O 0.50045 0.04862 0.57349 0.0
C537 C 0.511 0.07628 0.59591 0.0
O538 O 0.57374 0.02493 0.66854 0.0
O539 O 0.54256 1.00156 0.5728 0.0
O540 O 0.52252 0.96688 0.71743 0.0
O541 O 0.57955 0.0746 0.78095 0.0
O542 O 0.55305 0.05708 0.87913 0.0
O543 O 0.53189 0.99868 0.82299 0.0
C544 C 0.42353 0.96401 0.59186 0.0
C545 C 0.39907 0.97234 0.54042 0.0
C546 C 0.39358 0.97871 0.70553 0.0
C547 C 0.37366 0.98708 0.57133 0.0
C548 C 0.41883 0.96369 0.67476 0.0
C549 C 0.37301 0.99371 0.65346 0.0
C550 C 0.45517 0.96932 0.56417 0.0
C551 C 0.57016 0.01157 0.59785 0.0
H552 H 0.58678 0.03413 0.99578 0.0
H553 H 0.65489 1.00068 0.78049 0.0
H554 H 0.61288 0.98503 1.00886 0.0
H555 H 0.63021 0.05009 0.76944 0.0
H556 H 0.40197 0.97246 0.47633 0.0
H557 H 0.3929 0.9828 0.76911 0.0
H558 H 0.35777 0.99813 0.5298 0.0
H559 H 0.43702 0.95668 0.71609 0.0
Eu560 Eu 0.4961 0.53241 0.74866 0.0
Eu561 Eu 0.54893 0.51022 0.62548 0.0
C562 C 0.56883 0.53061 0.80944 0.0
C563 C 0.42526 0.56771 0.84523 0.0
C564 C 0.41589 0.58497 0.77825 0.0
C565 C 0.38708 0.59267 0.92411 0.0
C566 C 0.39272 0.60676 0.78497 0.0
C567 C 0.41001 0.57087 0.91713 0.0
C568 C 0.37892 0.61178 0.85901 0.0
C569 C 0.45221 0.54797 0.8436 0.0
O570 O 0.54386 0.46841 0.70807 0.0
O571 O 0.50151 0.4814 0.77971 0.0
C572 C 0.52297 0.46166 0.76186 0.0
O573 O 0.46998 0.52687 0.62923 0.0
O574 O 0.59261 0.52095 0.56828 0.0
O575 O 0.56708 0.47863 0.53838 0.0
O576 O 0.50396 0.49851 0.55849 0.0
C577 C 0.47662 0.51072 0.56561 0.0
O578 O 0.5096 0.57727 0.684 0.0
O579 O 0.53533 0.55754 0.5782 0.0
O580 O 0.57679 0.52591 0.7352 0.0
O581 O 0.45026 0.5241 0.79617 0.0
O582 O 0.4791 0.56219 0.84171 0.0
O583 O 0.53961 0.53227 0.82861 0.0
C584 C 0.62107 0.47768 0.53144 0.0
C585 C 0.63127 0.46284 0.60152 0.0
C586 C 0.66061 0.45253 0.45761 0.0
C587 C 0.65539 0.44193 0.59887 0.0
C588 C 0.63669 0.47345 0.4605 0.0
C589 C 0.6693 0.43534 0.52588 0.0
C590 C 0.59243 0.49498 0.52895 0.0
C591 C 0.52222 0.58082 0.61344 0.0
H592 H 0.42737 0.58252 0.72197 0.0
H593 H 0.37756 0.59604 0.9825 0.0
H594 H 0.38678 0.62077 0.73339 0.0
H595 H 0.41695 0.55758 0.96927 0.0
H596 H 0.61951 0.46615 0.65708 0.0
H597 H 0.67029 0.44795 0.39999 0.0
H598 H 0.66175 0.42947 0.65277 0.0
H599 H 0.62912 0.48488 0.40599 0.0
Eu600 Eu 0.03589 0.5464 0.64556 0.0
Eu601 Eu 0.99893 0.49601 0.74677 0.0
C602 C 0.07267 0.50358 0.78123 0.0
C603 C 0.10124 0.56091 0.52855 0.0
C604 C 0.12702 0.55971 0.58153 0.0
C605 C 0.11711 0.51299 0.46854 0.0
C606 C 0.14597 0.53402 0.58231 0.0
C607 C 0.0983 0.53869 0.46746 0.0
C608 C 0.13971 0.50954 0.52921 0.0
C609 C 0.07316 0.57648 0.55468 0.0
O610 O 0.99686 0.54113 0.81902 0.0
O611 O 0.02302 0.57775 0.74649 0.0
C612 C 1.0079 0.56967 0.81048 0.0
O613 O 0.98594 0.55975 0.62293 0.0
O614 O 0.98297 0.47845 0.86167 0.0
O615 O 0.96113 0.46162 0.75267 0.0
O616 O 0.96629 0.51148 0.64598 0.0
C617 C 0.96302 0.53938 0.61671 0.0
O618 O 0.03379 0.50176 0.57002 0.0
O619 O 0.01934 0.46363 0.65741 0.0
O620 O 0.04768 0.48618 0.7916 0.0
O621 O 0.04696 0.5646 0.52737 0.0
O622 O 0.07227 0.58166 0.63127 0.0
O623 O 0.0724 0.52739 0.73205 0.0
C624 C 0.92949 0.48588 0.84511 0.0
C625 C 0.90803 0.49198 0.78247 0.0
C626 C 0.91424 0.53305 0.91031 0.0
C627 C 0.89167 0.51947 0.78114 0.0
C628 C 0.93037 0.50551 0.912 0.0
C629 C 0.89624 0.54106 0.8428 0.0
C630 C 0.95732 0.46794 0.82787 0.0
C631 C 0.02897 0.47214 0.58666 0.0
H632 H 0.13039 0.57673 0.62851 0.0
H633 H 0.11284 0.49495 0.42457 0.0
H634 H 0.16389 0.53224 0.62829 0.0
H635 H 0.07921 0.53918 0.42442 0.0
H636 H 0.90633 0.47724 0.73027 0.0
H637 H 0.91709 0.54888 0.96016 0.0
H638 H 0.87727 0.52483 0.72932 0.0
H639 H 0.94624 0.50142 0.96178 0.0
C640 C 0.1515 0.03981 0.50219 0.0
C641 C 0.14651 0.04545 0.41972 0.0
H642 H 0.13227 0.03209 0.61777 0.0
C643 C 0.11548 0.04699 0.39234 0.0
H644 H 0.17488 0.03881 0.52639 0.0
C645 C 0.09058 0.04354 0.44589 0.0
C646 C 0.09577 0.03833 0.52878 0.0
H647 H 0.11044 0.05197 0.33004 0.0
H648 H 0.06719 0.0453 0.42226 0.0
C649 C 0.12682 0.03617 0.55522 0.0
C650 C 0.50499 0.1245 0.40138 0.0
C651 C 0.51629 0.15379 0.42687 0.0
H652 H 0.49441 0.07713 0.43368 0.0
C653 C 0.5226 0.15773 0.50935 0.0
H654 H 0.50011 0.12037 0.33852 0.0
C655 C 0.51959 0.13307 0.56366 0.0
C656 C 0.51004 0.10327 0.53809 0.0
H657 H 0.53113 0.17989 0.53176 0.0
H658 H 0.52579 0.13728 0.62581 0.0
C659 C 0.50192 0.09959 0.45619 0.0
C660 C 0.39961 0.51125 0.44517 0.0
C661 C 0.40587 0.49243 0.37932 0.0
H662 H 0.41653 0.53159 0.55557 0.0
C663 C 0.4362 0.48183 0.37258 0.0
H664 H 0.37639 0.51918 0.45353 0.0
C665 C 0.45912 0.4885 0.43144 0.0
C666 C 0.45254 0.50587 0.49976 0.0
H667 H 0.44178 0.46685 0.32352 0.0
H668 H 0.4818 0.47901 0.42454 0.0
C669 C 0.4226 0.51791 0.5045 0.0
C670 C 0.05308 0.43369 0.39104 0.0
C671 C 0.04547 0.40211 0.40282 0.0
H672 H 0.05378 0.47999 0.43746 0.0
C673 C 0.03118 0.39397 0.47483 0.0
H674 H 0.06488 0.44088 0.33759 0.0
C675 C 0.02554 0.41647 0.53379 0.0
C676 C 0.03391 0.44798 0.52276 0.0
H677 H 0.02586 0.36988 0.48754 0.0
H678 H 0.01517 0.40898 0.58893 0.0
C679 C 0.04712 0.45617 0.44929 0.0
C680 C 0.92348 0.99125 0.986 0.0
C681 C 0.89235 0.99892 0.97061 0.0
H682 H 0.96986 0.98949 0.94407 0.0
C683 C 0.88546 0.01239 0.89548 0.0
H684 H 0.92988 0.98021 0.04195 0.0
C685 C 0.90862 0.0172 0.83763 0.0
C686 C 0.93963 1.00867 0.85254 0.0
H687 H 0.86179 0.01781 0.87978 0.0
H688 H 0.90203 0.02705 0.78037 0.0
C689 C 0.94654 0.9962 0.92878 0.0
C690 C 0.53606 0.92085 0.98469 0.0
C691 C 0.52558 0.89153 0.95765 0.0
H692 H 0.54537 0.96864 0.95514 0.0
C693 C 0.51926 0.88806 0.87498 0.0
H694 H 0.54086 0.9246 0.04774 0.0
C695 C 0.52185 0.91321 0.82178 0.0
C696 C 0.53058 0.94298 0.84918 0.0
H697 H 0.51111 0.86591 0.85167 0.0
H698 H 0.51571 0.90948 0.7594 0.0
C699 C 0.53836 0.94622 0.93136 0.0
C700 C 0.64931 0.53598 0.90948 0.0
C701 C 0.6432 0.54233 0.98991 0.0
H702 H 0.63141 0.52743 0.79109 0.0
C703 C 0.61207 0.5434 1.01188 0.0
H704 H 0.67295 0.53538 0.89009 0.0
C705 C 0.58784 0.53922 0.95421 0.0
C706 C 0.5941 0.53391 0.87298 0.0
H707 H 0.60648 0.54886 0.07282 0.0
H708 H 0.56422 0.54087 0.97303 0.0
C709 C 0.62531 0.53174 0.85229 0.0
C710 C 0.98137 0.6073 1.00432 0.0
C711 C 0.99129 0.63848 0.9966 0.0
H712 H 0.97861 0.56172 0.95368 0.0
C713 C 1.00837 0.64642 0.92876 0.0
H714 H 0.96764 0.60028 0.0547 0.0
C715 C 0.01421 0.62421 0.8693 0.0
C716 C 1.00313 0.59328 0.87559 0.0
H717 H 0.01567 0.67024 0.91926 0.0
H718 H 0.02669 0.63158 0.81712 0.0
C719 C 0.9873 0.58515 0.94538 0.0
C720 C 0.1078 0.1995 0.50575 0.0
C721 C 0.13372 0.18415 0.47686 0.0
H722 H 0.05974 0.1972 0.52936 0.0
C723 C 0.1317 0.15167 0.47059 0.0
H724 H 0.10779 0.22425 0.51398 0.0
C725 C 0.10338 0.13598 0.47971 0.0
C726 C 0.07666 0.15232 0.49694 0.0
H727 H 0.15128 0.13854 0.45257 0.0
H728 H 0.10216 0.11125 0.46986 0.0
C729 C 0.07965 0.18389 0.51454 0.0
C730 C 0.37782 0.07863 0.66785 0.0
C731 C 0.34847 0.08575 0.63722 0.0
H732 H 0.40837 0.04242 0.6983 0.0
C733 C 0.32455 0.06316 0.64057 0.0
H734 H 0.39663 0.09554 0.66533 0.0
C735 C 0.33138 0.03243 0.65811 0.0
C736 C 0.36194 0.02444 0.67552 0.0
H737 H 0.30164 0.06808 0.61726 0.0
H738 H 0.31373 0.01459 0.64821 0.0
C739 C 0.38447 0.04809 0.68716 0.0
C740 C 0.71466 0.37608 0.4202 0.0
C741 C 0.69853 0.34929 0.44501 0.0
H742 H 0.71885 0.42536 0.42926 0.0
C743 C 0.6818 0.35055 0.51575 0.0
H744 H 0.72856 0.37566 0.36739 0.0
C745 C 0.67592 0.37898 0.55054 0.0
C746 C 0.68693 0.40655 0.51553 0.0
H747 H 0.66932 0.33037 0.53756 0.0
H748 H 0.65928 0.37932 0.59765 0.0
C749 C 0.70891 0.40459 0.4554 0.0
C750 C 0.15445 0.42398 0.52665 0.0
C751 C 0.18669 0.42411 0.51822 0.0
H752 H 0.1141 0.45141 0.53437 0.0
C753 C 0.20343 0.45208 0.53287 0.0
H754 H 0.14078 0.40285 0.5192 0.0
C755 C 0.18811 0.47975 0.54231 0.0
C756 C 0.15587 0.48001 0.53762 0.0
H757 H 0.22826 0.45362 0.52808 0.0
H758 H 0.20151 0.50119 0.54612 0.0
C759 C 0.13912 0.45179 0.53482 0.0
C760 C 0.90809 0.88713 0.88605 0.0
C761 C 0.90742 0.85456 0.88789 0.0
H762 H 0.93636 0.92839 0.88158 0.0
C763 C 0.93427 0.83915 0.86529 0.0
H764 H 0.8877 0.90001 0.89891 0.0
C765 C 0.96198 0.85543 0.85502 0.0
C766 C 0.9635 0.88747 0.86606 0.0
H767 H 0.93523 0.81422 0.86394 0.0
H768 H 0.98269 0.84258 0.84514 0.0
C769 C 0.93601 0.90342 0.87661 0.0
C770 C 0.68955 0.92164 0.88191 0.0
C771 C 0.67397 0.89827 0.92578 0.0
H772 H 0.69047 0.9685 0.84224 0.0
C773 C 0.64258 0.90289 0.9418 0.0
H774 H 0.71315 0.91943 0.86403 0.0
C775 C 0.62938 0.93169 0.92816 0.0
C776 C 0.64692 0.95634 0.89635 0.0
H777 H 0.6287 0.88525 0.97065 0.0
H778 H 0.60584 0.935 0.9458 0.0
C779 C 0.67644 0.95037 0.86886 0.0
C780 C 0.36545 0.69632 0.88022 0.0
C781 C 0.34821 0.69606 0.95023 0.0
H782 H 0.38895 0.66942 0.79596 0.0
C783 C 0.33279 0.66851 0.97223 0.0
H784 H 0.37752 0.71714 0.861 0.0
C785 C 0.33921 0.64078 0.93399 0.0
C786 C 0.36137 0.6403 0.87396 0.0
H787 H 0.31871 0.66778 0.02476 0.0
H788 H 0.32948 0.61942 0.95737 0.0
C789 C 0.37213 0.66864 0.84263 0.0
C790 C 0.83754 0.60372 0.83868 0.0
C791 C 0.85558 0.62901 0.86792 0.0
H792 H 0.83646 0.55554 0.80902 0.0
C793 C 0.8879 0.62694 0.86829 0.0
H794 H 0.81256 0.60438 0.83721 0.0
C795 C 0.90146 0.59854 0.85434 0.0
C796 C 0.88291 0.57215 0.8373 0.0
H797 H 0.90241 0.64625 0.8885 0.0
H798 H 0.92624 0.59671 0.86236 0.0
C799 C 0.85115 0.57545 0.8236 0.0
C800 C 0.07213 0.14561 0.88956 0.0
C801 C 0.04739 0.16289 0.91884 0.0
H802 H 0.0869 0.1063 0.82338 0.0
C803 C 0.01734 0.1534 0.89291 0.0
H804 H 0.09585 0.15235 0.9036 0.0
C805 C 1.01238 0.12717 0.84301 0.0
C806 C 0.03719 0.10907 0.81849 0.0
H807 H 0.99746 0.16559 0.91305 0.0
H808 H 0.98891 0.12037 0.82603 0.0
C809 C 0.06712 0.11904 0.84207 0.0
C810 C 0.40561 0.08174 0.91136 0.0
C811 C 0.39008 0.05798 0.95439 0.0
H812 H 0.44148 0.09488 0.83027 0.0
C813 C 0.39892 0.0274 0.93842 0.0
H814 H 0.39956 0.10564 0.91971 0.0
C815 C 0.42314 0.02121 0.88499 0.0
C816 C 0.43966 0.0453 0.84596 0.0
H817 H 0.38819 1.00831 0.97014 0.0
H818 H 0.4298 0.99748 0.87677 0.0
C819 C 0.43002 0.07562 0.85964 0.0
C820 C 0.54833 0.38087 0.828 0.0
C821 C 0.53474 0.37697 0.90335 0.0
H822 H 0.55572 0.40994 0.72573 0.0
C823 C 0.51433 0.39985 0.9274 0.0
H824 H 0.56423 0.36392 0.80706 0.0
C825 C 0.50928 0.42655 0.87994 0.0
C826 C 0.52472 0.43137 0.80728 0.0
H827 H 0.50384 0.39814 0.9853 0.0
H828 H 0.49449 0.44419 0.90242 0.0
C829 C 0.54362 0.40756 0.78128 0.0
C830 C 0.15078 0.5151 0.89377 0.0
C831 C 0.15599 0.48563 0.92735 0.0
H832 H 0.1211 0.54376 0.82155 0.0
C833 C 0.13413 0.46182 0.90711 0.0
H834 H 0.16655 0.53427 0.90712 0.0
C835 C 0.10748 0.46756 0.86 0.0
C836 C 0.10194 0.49711 0.82855 0.0
H837 H 0.13735 0.43838 0.92783 0.0
H838 H 0.0912 0.44865 0.84792 0.0
C839 C 0.1244 0.52064 0.84472 0.0
C840 C 0.01595 0.89209 0.48814 0.0
C841 C 0.98601 0.883 0.46049 0.0
H842 H 0.04435 0.92497 0.55534 0.0
C843 C 0.96132 0.90109 0.48664 0.0
H844 H 0.0358 0.87932 0.47028 0.0
C845 C 0.96636 0.92788 0.53346 0.0
C846 C 0.99624 0.9374 0.55894 0.0
H847 H 0.93765 0.89478 0.47082 0.0
H848 H 0.94664 0.94114 0.55006 0.0
C849 C 0.02092 0.91861 0.53693 0.0
C850 C 0.61998 0.99142 0.41748 0.0
C851 C 0.65022 1.00176 0.44013 0.0
H852 H 0.57215 0.98601 0.44702 0.0
C853 C 0.65361 0.01619 0.51559 0.0
H854 H 0.61576 0.98061 0.35985 0.0
C855 C 0.62805 0.01925 0.56665 0.0
C856 C 0.59797 1.00819 0.54425 0.0
H857 H 0.67622 0.02435 0.53635 0.0
H858 H 0.63198 0.03018 0.62419 0.0
C859 C 0.5946 0.99453 0.46805 0.0
C860 C 0.52658 0.64276 0.4471 0.0
C861 C 0.51003 0.66727 0.47902 0.0
H862 H 0.54331 0.59664 0.46328 0.0
C863 C 0.50028 0.66405 0.55862 0.0
H864 H 0.53403 0.64396 0.38591 0.0
C865 C 0.5052 0.63675 0.60294 0.0
C866 C 0.52015 0.61146 0.56956 0.0
H867 H 0.48738 0.68227 0.58562 0.0
H868 H 0.49621 0.63511 0.66258 0.0
C869 C 0.53155 0.61534 0.49156 0.0
C870 C 0.89264 0.58448 0.54612 0.0
C871 C 0.87855 0.5651 0.48687 0.0
H872 H 0.93033 0.59221 0.63039 0.0
C873 C 0.89118 0.53565 0.47675 0.0
H874 H 0.88325 0.60684 0.55896 0.0
C875 C 0.91793 0.52685 0.52069 0.0
C876 C 0.93328 0.5475 0.57446 0.0
H877 H 0.88132 0.51997 0.43218 0.0
H878 H 0.92745 0.50436 0.50984 0.0
C879 C 0.91981 0.57613 0.58769 0.0
loop_
_geom_bond_atom_site_label_1
_geom_bond_atom_site_label_2
_geom_bond_distance
_geom_bond_site_symmetry_2
_ccdc_geom_bond_type
C0 C1 1.391 . S
C0 C4 1.391 . S
C0 H42 0.948 . S
C1 C0 1.391 . S
C1 C2 1.391 . S
C2 C1 1.391 . S
C2 H58 0.947 . S
C2 C59 1.392 . S
C3 C4 1.391 . S
C3 C7 1.397 . S
C3 C59 1.419 . S
C4 C0 1.391 . S
C4 C3 1.391 . S
C4 C5 1.399 . S
C5 C4 1.399 . S
C5 C8 1.396 . S
C5 C17 1.453 . S
C5 C18 1.684 . S
H6 C30 0.948 . S
C7 C3 1.397 . S
C7 C8 1.394 . S
C7 C26 1.723 . S
C8 C5 1.396 . S
C8 C7 1.394 . S
C8 C38 1.723 . S
H9 C32 0.947 . S
H10 C33 0.948 . S
H11 C39 0.982 . S
H12 C40 0.979 . S
H13 C40 0.980 . S
H14 C40 0.983 . S
H15 C39 0.979 . S
H16 C39 0.977 . S
C17 C5 1.453 . S
C17 H46 0.982 . S
C17 H47 0.979 . S
C17 H48 0.977 . S
C18 C5 1.684 . S
C18 H43 0.979 . S
C18 H44 0.980 . S
C18 H45 0.983 . S
C19 C20 1.391 . S
C19 C24 1.391 . S
C19 H49 0.948 . S
C20 C19 1.391 . S
C20 C21 1.391 . S
C21 C20 1.391 . S
C21 C22 1.392 . S
C21 H50 0.947 1_554 S
C22 C21 1.392 . S
C22 C23 1.419 . S
C22 H51 0.948 . S
C23 C22 1.419 . S
C23 C24 1.391 . S
C23 C27 1.397 . S
C24 C19 1.391 . S
C24 C23 1.391 . S
C24 C25 1.399 . S
C25 C24 1.399 . S
C25 C26 1.396 . S
C25 C28 1.453 . S
C25 C29 1.684 . S
C26 C7 1.723 . S
C26 C25 1.396 . S
C26 C27 1.394 . S
C27 C23 1.397 . S
C27 C26 1.394 . S
C27 C37 1.723 . S
C28 C25 1.453 . S
C28 H52 0.982 . S
C28 H53 0.979 . S
C28 H54 0.977 . S
C29 C25 1.684 . S
C29 H55 0.979 . S
C29 H56 0.980 . S
C29 H57 0.983 . S
C30 H6 0.948 . S
C30 C31 1.391 . S
C30 C35 1.391 . S
C31 C30 1.391 . S
C31 C32 1.391 . S
C32 H9 0.947 . S
C32 C31 1.391 . S
C32 C33 1.392 . S
C33 H10 0.948 . S
C33 C32 1.392 . S
C33 C34 1.419 . S
C34 C33 1.419 . S
C34 C35 1.391 . S
C34 C38 1.397 . S
C35 C30 1.391 . S
C35 C34 1.391 . S
C35 C36 1.399 . S
C36 C35 1.399 . S
C36 C37 1.396 . S
C36 C39 1.453 . S
C36 C40 1.684 . S
C37 C27 1.723 . S
C37 C36 1.396 . S
C37 C38 1.394 . S
C38 C8 1.723 . S
C38 C34 1.397 . S
C38 C37 1.394 . S
C39 H11 0.982 . S
C39 H15 0.979 . S
C39 H16 0.977 . S
C39 C36 1.453 . S
C40 H12 0.979 . S
C40 H13 0.980 . S
C40 H14 0.983 . S
C40 C36 1.684 . S
H41 C59 0.948 . S
H42 C0 0.948 . S
H43 C18 0.979 . S
H44 C18 0.980 . S
H45 C18 0.983 . S
H46 C17 0.982 . S
H47 C17 0.979 . S
H48 C17 0.977 . S
H49 C19 0.948 . S
H50 C21 0.947 1_556 S
H51 C22 0.948 . S
H52 C28 0.982 . S
H53 C28 0.979 . S
H54 C28 0.977 . S
H55 C29 0.979 . S
H56 C29 0.980 . S
H57 C29 0.983 . S
H58 C2 0.947 . S
C59 C2 1.392 . S
C59 C3 1.419 . S
C59 H41 0.948 . S
C60 C61 1.391 . S
C60 C64 1.391 . S
C60 H102 0.948 . S
C61 C60 1.391 . S
C61 C62 1.391 . S
C62 C61 1.391 . S
C62 H118 0.947 . S
C62 C119 1.392 . S
C63 C64 1.391 . S
C63 C67 1.397 . S
C63 C119 1.419 . S
C64 C60 1.391 . S
C64 C63 1.391 . S
C64 C65 1.399 . S
C65 C64 1.399 . S
C65 C68 1.396 . S
C65 C77 1.453 . S
C65 C78 1.684 . S
H66 C90 0.948 . S
C67 C63 1.397 . S
C67 C68 1.394 . S
C67 C86 1.723 . S
C68 C65 1.396 . S
C68 C67 1.394 . S
C68 C98 1.723 . S
H69 C92 0.947 . S
H70 C93 0.948 . S
H71 C99 0.982 1_455 S
H72 C100 0.979 . S
H73 C100 0.980 . S
H74 C100 0.983 . S
H75 C99 0.979 . S
H76 C99 0.977 . S
C77 C65 1.453 . S
C77 H106 0.982 1_655 S
C77 H107 0.979 . S
C77 H108 0.977 . S
C78 C65 1.684 . S
C78 H103 0.979 . S
C78 H104 0.980 . S
C78 H105 0.983 . S
C79 C80 1.391 . S
C79 C84 1.391 . S
C79 H109 0.948 . S
C80 C79 1.391 . S
C80 C81 1.391 . S
C81 C80 1.391 . S
C81 C82 1.392 . S
C81 H110 0.947 . S
C82 C81 1.392 . S
C82 C83 1.419 . S
C82 H111 0.948 . S
C83 C82 1.419 . S
C83 C84 1.391 . S
C83 C87 1.397 . S
C84 C79 1.391 . S
C84 C83 1.391 . S
C84 C85 1.399 . S
C85 C84 1.399 . S
C85 C86 1.396 . S
C85 C88 1.453 . S
C85 C89 1.684 . S
C86 C67 1.723 . S
C86 C85 1.396 . S
C86 C87 1.394 . S
C87 C83 1.397 . S
C87 C86 1.394 . S
C87 C97 1.723 . S
C88 C85 1.453 . S
C88 H112 0.982 1_655 S
C88 H113 0.979 . S
C88 H114 0.977 . S
C89 C85 1.684 . S
C89 H115 0.979 . S
C89 H116 0.980 . S
C89 H117 0.983 . S
C90 H66 0.948 . S
C90 C91 1.391 . S
C90 C95 1.391 . S
C91 C90 1.391 . S
C91 C92 1.391 . S
C92 H69 0.947 . S
C92 C91 1.391 . S
C92 C93 1.392 . S
C93 H70 0.948 . S
C93 C92 1.392 . S
C93 C94 1.419 . S
C94 C93 1.419 . S
C94 C95 1.391 . S
C94 C98 1.397 . S
C95 C90 1.391 . S
C95 C94 1.391 . S
C95 C96 1.399 . S
C96 C95 1.399 . S
C96 C97 1.396 . S
C96 C99 1.453 . S
C96 C100 1.684 . S
C97 C87 1.723 . S
C97 C96 1.396 . S
C97 C98 1.394 . S
C98 C68 1.723 . S
C98 C94 1.397 . S
C98 C97 1.394 . S
C99 H71 0.982 1_655 S
C99 H75 0.979 . S
C99 H76 0.977 . S
C99 C96 1.453 . S
C100 H72 0.979 . S
C100 H73 0.980 . S
C100 H74 0.983 . S
C100 C96 1.684 . S
H101 C119 0.948 . S
H102 C60 0.948 . S
H103 C78 0.979 . S
H104 C78 0.980 . S
H105 C78 0.983 . S
H106 C77 0.982 1_455 S
H107 C77 0.979 . S
H108 C77 0.977 . S
H109 C79 0.948 . S
H110 C81 0.947 . S
H111 C82 0.948 . S
H112 C88 0.982 1_455 S
H113 C88 0.979 . S
H114 C88 0.977 . S
H115 C89 0.979 . S
H116 C89 0.980 . S
H117 C89 0.983 . S
H118 C62 0.947 . S
C119 C62 1.392 . S
C119 C63 1.419 . S
C119 H101 0.948 . S
C120 C121 1.391 . S
C120 C124 1.391 . S
C120 H162 0.948 . S
C121 C120 1.391 . S
C121 C122 1.391 . S
C122 C121 1.391 . S
C122 H178 0.947 . S
C122 C179 1.392 . S
C123 C124 1.391 . S
C123 C127 1.397 . S
C123 C179 1.419 . S
C124 C120 1.391 . S
C124 C123 1.391 . S
C124 C125 1.399 . S
C125 C124 1.399 . S
C125 C128 1.396 . S
C125 C137 1.453 . S
C125 C138 1.684 . S
H126 C150 0.948 . S
C127 C123 1.397 . S
C127 C128 1.394 . S
C127 C146 1.723 . S
C128 C125 1.396 . S
C128 C127 1.394 . S
C128 C158 1.723 . S
H129 C152 0.947 . S
H130 C153 0.948 . S
H131 C159 0.982 1_545 S
H132 C160 0.979 . S
H133 C160 0.980 . S
H134 C160 0.983 . S
H135 C159 0.979 . S
H136 C159 0.977 . S
C137 C125 1.453 . S
C137 H166 0.982 1_565 S
C137 H167 0.979 . S
C137 H168 0.977 . S
C138 C125 1.684 . S
C138 H163 0.979 . S
C138 H164 0.980 . S
C138 H165 0.983 . S
C139 C140 1.391 . S
C139 C144 1.391 . S
C139 H169 0.948 . S
C140 C139 1.391 . S
C140 C141 1.391 . S
C141 C140 1.391 . S
C141 C142 1.392 . S
C141 H170 0.947 . S
C142 C141 1.392 . S
C142 C143 1.419 . S
C142 H171 0.948 . S
C143 C142 1.419 . S
C143 C144 1.391 . S
C143 C147 1.397 . S
C144 C139 1.391 . S
C144 C143 1.391 . S
C144 C145 1.399 . S
C145 C144 1.399 . S
C145 C146 1.396 . S
C145 C148 1.453 . S
C145 C149 1.684 . S
C146 C127 1.723 . S
C146 C145 1.396 . S
C146 C147 1.394 . S
C147 C143 1.397 . S
C147 C146 1.394 . S
C147 C157 1.723 . S
C148 C145 1.453 . S
C148 H172 0.982 1_565 S
C148 H173 0.979 . S
C148 H174 0.977 . S
C149 C145 1.684 . S
C149 H175 0.979 . S
C149 H176 0.980 . S
C149 H177 0.983 . S
C150 H126 0.948 . S
C150 C151 1.391 . S
C150 C155 1.391 . S
C151 C150 1.391 . S
C151 C152 1.391 . S
C152 H129 0.947 . S
C152 C151 1.391 . S
C152 C153 1.392 . S
C153 H130 0.948 . S
C153 C152 1.392 . S
C153 C154 1.419 . S
C154 C153 1.419 . S
C154 C155 1.391 . S
C154 C158 1.397 . S
C155 C150 1.391 . S
C155 C154 1.391 . S
C155 C156 1.399 . S
C156 C155 1.399 . S
C156 C157 1.396 . S
C156 C159 1.453 . S
C156 C160 1.684 . S
C157 C147 1.723 . S
C157 C156 1.396 . S
C157 C158 1.394 . S
C158 C128 1.723 . S
C158 C154 1.397 . S
C158 C157 1.394 . S
C159 H131 0.982 1_565 S
C159 H135 0.979 . S
C159 H136 0.977 . S
C159 C156 1.453 . S
C160 H132 0.979 . S
C160 H133 0.980 . S
C160 H134 0.983 . S
C160 C156 1.684 . S
H161 C179 0.948 . S
H162 C120 0.948 . S
H163 C138 0.979 . S
H164 C138 0.980 . S
H165 C138 0.983 . S
H166 C137 0.982 1_545 S
H167 C137 0.979 . S
H168 C137 0.977 . S
H169 C139 0.948 . S
H170 C141 0.947 . S
H171 C142 0.948 . S
H172 C148 0.982 1_545 S
H173 C148 0.979 . S
H174 C148 0.977 . S
H175 C149 0.979 . S
H176 C149 0.980 . S
H177 C149 0.983 . S
H178 C122 0.947 . S
C179 C122 1.392 . S
C179 C123 1.419 . S
C179 H161 0.948 . S
C180 C181 1.391 . S
C180 C184 1.391 . S
C180 H222 0.948 . S
C181 C180 1.391 . S
C181 C182 1.391 . S
C182 C181 1.391 . S
C182 H238 0.947 . S
C182 C239 1.392 . S
C183 C184 1.391 . S
C183 C187 1.397 . S
C183 C239 1.419 . S
C184 C180 1.391 . S
C184 C183 1.391 . S
C184 C185 1.399 . S
C185 C184 1.399 . S
C185 C188 1.396 . S
C185 C197 1.453 . S
C185 C198 1.684 . S
H186 C210 0.948 . S
C187 C183 1.397 . S
C187 C188 1.394 . S
C187 C206 1.723 . S
C188 C185 1.396 . S
C188 C187 1.394 . S
C188 C218 1.723 . S
H189 C212 0.947 . S
H190 C213 0.948 . S
H191 C219 0.982 . S
H192 C220 0.979 . S
H193 C220 0.980 . S
H194 C220 0.983 . S
H195 C219 0.979 . S
H196 C219 0.977 . S
C197 C185 1.453 . S
C197 H226 0.982 . S
C197 H227 0.979 . S
C197 H228 0.977 . S
C198 C185 1.684 . S
C198 H223 0.979 . S
C198 H224 0.980 . S
C198 H225 0.983 . S
C199 C200 1.391 . S
C199 C204 1.391 . S
C199 H229 0.948 . S
C200 C199 1.391 . S
C200 C201 1.391 . S
C201 C200 1.391 . S
C201 C202 1.392 . S
C201 H230 0.947 1_554 S
C202 C201 1.392 . S
C202 C203 1.419 . S
C202 H231 0.948 . S
C203 C202 1.419 . S
C203 C204 1.391 . S
C203 C207 1.397 . S
C204 C199 1.391 . S
C204 C203 1.391 . S
C204 C205 1.399 . S
C205 C204 1.399 . S
C205 C206 1.396 . S
C205 C208 1.453 . S
C205 C209 1.684 . S
C206 C187 1.723 . S
C206 C205 1.396 . S
C206 C207 1.394 . S
C207 C203 1.397 . S
C207 C206 1.394 . S
C207 C217 1.723 . S
C208 C205 1.453 . S
C208 H232 0.982 . S
C208 H233 0.979 . S
C208 H234 0.977 . S
C209 C205 1.684 . S
C209 H235 0.979 . S
C209 H236 0.980 . S
C209 H237 0.983 . S
C210 H186 0.948 . S
C210 C211 1.391 . S
C210 C215 1.391 . S
C211 C210 1.391 . S
C211 C212 1.391 . S
C212 H189 0.947 . S
C212 C211 1.391 . S
C212 C213 1.392 . S
C213 H190 0.948 . S
C213 C212 1.392 . S
C213 C214 1.419 . S
C214 C213 1.419 . S
C214 C215 1.391 . S
C214 C218 1.397 . S
C215 C210 1.391 . S
C215 C214 1.391 . S
C215 C216 1.399 . S
C216 C215 1.399 . S
C216 C217 1.396 . S
C216 C219 1.453 . S
C216 C220 1.684 . S
C217 C207 1.723 . S
C217 C216 1.396 . S
C217 C218 1.394 . S
C218 C188 1.723 . S
C218 C214 1.397 . S
C218 C217 1.394 . S
C219 H191 0.982 . S
C219 H195 0.979 . S
C219 H196 0.977 . S
C219 C216 1.453 . S
C220 H192 0.979 . S
C220 H193 0.980 . S
C220 H194 0.983 . S
C220 C216 1.684 . S
H221 C239 0.948 . S
H222 C180 0.948 . S
H223 C198 0.979 . S
H224 C198 0.980 . S
H225 C198 0.983 . S
H226 C197 0.982 . S
H227 C197 0.979 . S
H228 C197 0.977 . S
H229 C199 0.948 . S
H230 C201 0.947 1_556 S
H231 C202 0.948 . S
H232 C208 0.982 . S
H233 C208 0.979 . S
H234 C208 0.977 . S
H235 C209 0.979 . S
H236 C209 0.980 . S
H237 C209 0.983 . S
H238 C182 0.947 . S
C239 C182 1.392 . S
C239 C183 1.419 . S
C239 H221 0.948 . S
C240 C241 1.391 . S
C240 C244 1.391 . S
C240 H282 0.948 . S
C241 C240 1.391 . S
C241 C242 1.391 . S
C242 C241 1.391 . S
C242 H298 0.947 . S
C242 C299 1.392 . S
C243 C244 1.391 . S
C243 C247 1.397 . S
C243 C299 1.419 . S
C244 C240 1.391 . S
C244 C243 1.391 . S
C244 C245 1.399 . S
C245 C244 1.399 . S
C245 C248 1.396 . S
C245 C257 1.453 1_554 S
C245 C258 1.684 1_554 S
H246 C270 0.948 . S
C247 C243 1.397 . S
C247 C248 1.394 . S
C247 C266 1.723 . S
C248 C245 1.396 . S
C248 C247 1.394 . S
C248 C278 1.723 1_554 S
H249 C272 0.947 . S
H250 C273 0.948 . S
H251 C279 0.982 . S
H252 C280 0.979 . S
H253 C280 0.980 1_554 S
H254 C280 0.983 . S
H255 C279 0.979 . S
H256 C279 0.977 1_554 S
C257 C245 1.453 1_556 S
C257 H286 0.982 . S
C257 H287 0.979 . S
C257 H288 0.977 . S
C258 C245 1.684 1_556 S
C258 H283 0.979 . S
C258 H284 0.980 . S
C258 H285 0.983 . S
C259 C260 1.391 . S
C259 C264 1.391 . S
C259 H289 0.948 . S
C260 C259 1.391 . S
C260 C261 1.391 . S
C261 C260 1.391 . S
C261 C262 1.392 . S
C261 H290 0.947 . S
C262 C261 1.392 . S
C262 C263 1.419 . S
C262 H291 0.948 . S
C263 C262 1.419 . S
C263 C264 1.391 . S
C263 C267 1.397 . S
C264 C259 1.391 . S
C264 C263 1.391 . S
C264 C265 1.399 . S
C265 C264 1.399 . S
C265 C266 1.396 . S
C265 C268 1.453 . S
C265 C269 1.684 . S
C266 C247 1.723 . S
C266 C265 1.396 . S
C266 C267 1.394 . S
C267 C263 1.397 . S
C267 C266 1.394 . S
C267 C277 1.723 . S
C268 C265 1.453 . S
C268 H292 0.982 . S
C268 H293 0.979 . S
C268 H294 0.977 . S
C269 C265 1.684 . S
C269 H295 0.979 . S
C269 H296 0.980 . S
C269 H297 0.983 . S
C270 H246 0.948 . S
C270 C271 1.391 . S
C270 C275 1.391 . S
C271 C270 1.391 . S
C271 C272 1.391 . S
C272 H249 0.947 . S
C272 C271 1.391 . S
C272 C273 1.392 . S
C273 H250 0.948 . S
C273 C272 1.392 . S
C273 C274 1.419 . S
C274 C273 1.419 . S
C274 C275 1.391 . S
C274 C278 1.397 . S
C275 C270 1.391 . S
C275 C274 1.391 . S
C275 C276 1.399 . S
C276 C275 1.399 . S
C276 C277 1.396 1_556 S
C276 C279 1.453 . S
C276 C280 1.684 . S
C277 C267 1.723 . S
C277 C276 1.396 1_554 S
C277 C278 1.394 1_554 S
C278 C248 1.723 1_556 S
C278 C274 1.397 . S
C278 C277 1.394 1_556 S
C279 H251 0.982 . S
C279 H255 0.979 . S
C279 H256 0.977 1_556 S
C279 C276 1.453 . S
C280 H252 0.979 . S
C280 H253 0.980 1_556 S
C280 H254 0.983 . S
C280 C276 1.684 . S
H281 C299 0.948 . S
H282 C240 0.948 . S
H283 C258 0.979 . S
H284 C258 0.980 . S
H285 C258 0.983 . S
H286 C257 0.982 . S
H287 C257 0.979 . S
H288 C257 0.977 . S
H289 C259 0.948 . S
H290 C261 0.947 . S
H291 C262 0.948 . S
H292 C268 0.982 . S
H293 C268 0.979 . S
H294 C268 0.977 . S
H295 C269 0.979 . S
H296 C269 0.980 . S
H297 C269 0.983 . S
H298 C242 0.947 . S
C299 C242 1.392 . S
C299 C243 1.419 . S
C299 H281 0.948 . S
C300 C301 1.391 . S
C300 C304 1.391 . S
C300 H342 0.948 . S
C301 C300 1.391 . S
C301 C302 1.391 . S
C302 C301 1.391 . S
C302 H358 0.947 . S
C302 C359 1.392 . S
C303 C304 1.391 . S
C303 C307 1.397 . S
C303 C359 1.419 . S
C304 C300 1.391 . S
C304 C303 1.391 . S
C304 C305 1.399 . S
C305 C304 1.399 . S
C305 C308 1.396 . S
C305 C317 1.453 . S
C305 C318 1.684 . S
H306 C330 0.948 . S
C307 C303 1.397 . S
C307 C308 1.394 . S
C307 C326 1.723 1_554 S
C308 C305 1.396 . S
C308 C307 1.394 . S
C308 C338 1.723 . S
H309 C332 0.947 . S
H310 C333 0.948 . S
H311 C339 0.982 . S
H312 C340 0.979 . S
H313 C340 0.980 . S
H314 C340 0.983 . S
H315 C339 0.979 . S
H316 C339 0.977 . S
C317 C305 1.453 . S
C317 H346 0.982 . S
C317 H347 0.979 . S
C317 H348 0.977 . S
C318 C305 1.684 . S
C318 H343 0.979 . S
C318 H344 0.980 . S
C318 H345 0.983 . S
C319 C320 1.391 . S
C319 C324 1.391 . S
C319 H349 0.948 . S
C320 C319 1.391 . S
C320 C321 1.391 . S
C321 C320 1.391 . S
C321 C322 1.392 . S
C321 H350 0.947 . S
C322 C321 1.392 . S
C322 C323 1.419 . S
C322 H351 0.948 . S
C323 C322 1.419 . S
C323 C324 1.391 . S
C323 C327 1.397 . S
C324 C319 1.391 . S
C324 C323 1.391 . S
C324 C325 1.399 . S
C325 C324 1.399 . S
C325 C326 1.396 . S
C325 C328 1.453 . S
C325 C329 1.684 . S
C326 C307 1.723 1_556 S
C326 C325 1.396 . S
C326 C327 1.394 . S
C327 C323 1.397 . S
C327 C326 1.394 . S
C327 C337 1.723 . S
C328 C325 1.453 . S
C328 H352 0.982 . S
C328 H353 0.979 . S
C328 H354 0.980 . S
C329 C325 1.684 . S
C329 H355 0.979 . S
C329 H356 0.980 . S
C329 H357 0.983 . S
C330 H306 0.948 . S
C330 C331 1.391 . S
C330 C335 1.391 . S
C331 C330 1.391 . S
C331 C332 1.391 . S
C332 H309 0.947 . S
C332 C331 1.391 . S
C332 C333 1.392 . S
C333 H310 0.948 . S
C333 C332 1.392 . S
C333 C334 1.419 . S
C334 C333 1.419 . S
C334 C335 1.391 . S
C334 C338 1.397 . S
C335 C330 1.391 . S
C335 C334 1.391 . S
C335 C336 1.399 1_554 S
C336 C335 1.399 1_556 S
C336 C337 1.396 . S
C336 C339 1.453 . S
C336 C340 1.684 . S
C337 C327 1.723 . S
C337 C336 1.396 . S
C337 C338 1.394 1_556 S
C338 C308 1.723 . S
C338 C334 1.397 . S
C338 C337 1.394 1_554 S
C339 H311 0.982 . S
C339 H315 0.979 . S
C339 H316 0.977 . S
C339 C336 1.453 . S
C340 H312 0.979 . S
C340 H313 0.980 . S
C340 H314 0.983 . S
C340 C336 1.684 . S
H341 C359 0.948 . S
H342 C300 0.948 . S
H343 C318 0.979 . S
H344 C318 0.980 . S
H345 C318 0.983 . S
H346 C317 0.982 . S
H347 C317 0.979 . S
H348 C317 0.977 . S
H349 C319 0.948 . S
H350 C321 0.947 . S
H351 C322 0.948 . S
H352 C328 0.982 . S
H353 C328 0.979 . S
H354 C328 0.980 . S
H355 C329 0.979 . S
H356 C329 0.980 . S
H357 C329 0.983 . S
H358 C302 0.947 . S
C359 C302 1.392 . S
C359 C303 1.419 . S
C359 H341 0.948 . S
C360 C361 1.391 . S
C360 C364 1.391 . S
C360 H402 0.948 . S
C361 C360 1.391 . S
C361 C362 1.391 . S
C362 C361 1.391 . S
C362 H418 0.947 . S
C362 C419 1.392 . S
C363 C364 1.391 . S
C363 C367 1.397 . S
C363 C419 1.419 . S
C364 C360 1.391 . S
C364 C363 1.391 . S
C364 C365 1.399 . S
C365 C364 1.399 . S
C365 C368 1.396 . S
C365 C377 1.453 . S
C365 C378 1.684 . S
H366 C390 0.948 . S
C367 C363 1.397 . S
C367 C368 1.394 . S
C367 C386 1.723 1_556 S
C368 C365 1.396 . S
C368 C367 1.394 . S
C368 C398 1.723 1_556 S
H369 C392 0.947 . S
H370 C393 0.948 . S
H371 C399 0.982 . S
H372 C400 0.979 . S
H373 C400 0.980 . S
H374 C400 0.983 . S
H375 C399 0.979 . S
H376 C399 0.977 . S
C377 C365 1.453 . S
C377 H406 0.982 . S
C377 H407 0.979 . S
C377 H408 0.977 . S
C378 C365 1.684 . S
C378 H403 0.979 . S
C378 H404 0.980 . S
C378 H405 0.983 . S
C379 C380 1.391 . S
C379 C384 1.391 . S
C379 H409 0.948 . S
C380 C379 1.391 . S
C380 C381 1.391 . S
C381 C380 1.391 . S
C381 C382 1.392 . S
C381 H410 0.947 . S
C382 C381 1.392 . S
C382 C383 1.419 . S
C382 H411 0.948 . S
C383 C382 1.419 . S
C383 C384 1.391 . S
C383 C387 1.397 . S
C384 C379 1.391 . S
C384 C383 1.391 . S
C384 C385 1.399 . S
C385 C384 1.399 . S
C385 C386 1.396 . S
C385 C388 1.453 . S
C385 C389 1.684 . S
C386 C367 1.723 1_554 S
C386 C385 1.396 . S
C386 C387 1.394 . S
C387 C383 1.397 . S
C387 C386 1.394 . S
C387 C397 1.723 . S
C388 C385 1.453 . S
C388 H412 0.982 . S
C388 H413 0.979 . S
C388 H414 0.977 1_554 S
C389 C385 1.684 . S
C389 H415 0.979 . S
C389 H416 0.980 1_554 S
C389 H417 0.983 . S
C390 H366 0.948 . S
C390 C391 1.391 . S
C390 C395 1.391 . S
C391 C390 1.391 . S
C391 C392 1.391 1_554 S
C392 H369 0.947 . S
C392 C391 1.391 1_556 S
C392 C393 1.392 . S
C393 H370 0.948 . S
C393 C392 1.392 . S
C393 C394 1.419 1_556 S
C394 C393 1.419 1_554 S
C394 C395 1.391 . S
C394 C398 1.397 . S
C395 C390 1.391 . S
C395 C394 1.391 . S
C395 C396 1.399 . S
C396 C395 1.399 . S
C396 C397 1.396 . S
C396 C399 1.453 . S
C396 C400 1.684 . S
C397 C387 1.723 . S
C397 C396 1.396 . S
C397 C398 1.394 . S
C398 C368 1.723 1_554 S
C398 C394 1.397 . S
C398 C397 1.394 . S
C399 H371 0.982 . S
C399 H375 0.979 . S
C399 H376 0.977 . S
C399 C396 1.453 . S
C400 H372 0.979 . S
C400 H373 0.980 . S
C400 H374 0.983 . S
C400 C396 1.684 . S
H401 C419 0.948 . S
H402 C360 0.948 . S
H403 C378 0.979 . S
H404 C378 0.980 . S
H405 C378 0.983 . S
H406 C377 0.982 . S
H407 C377 0.979 . S
H408 C377 0.977 . S
H409 C379 0.948 . S
H410 C381 0.947 . S
H411 C382 0.948 . S
H412 C388 0.982 . S
H413 C388 0.979 . S
H414 C388 0.977 1_556 S
H415 C389 0.979 . S
H416 C389 0.980 1_556 S
H417 C389 0.983 . S
H418 C362 0.947 . S
C419 C362 1.392 . S
C419 C363 1.419 . S
C419 H401 0.948 . S
C420 C421 1.391 . S
C420 C424 1.391 . S
C420 H462 0.948 . S
C421 C420 1.391 . S
C421 C422 1.391 . S
C422 C421 1.391 . S
C422 H478 0.947 . S
C422 C479 1.392 . S
C423 C424 1.391 . S
C423 C427 1.397 . S
C423 C479 1.419 . S
C424 C420 1.391 . S
C424 C423 1.391 . S
C424 C425 1.399 . S
C425 C424 1.399 . S
C425 C428 1.396 . S
C425 C437 1.453 . S
C425 C438 1.684 . S
H426 C450 0.948 . S
C427 C423 1.397 . S
C427 C428 1.394 . S
C427 C446 1.723 1_556 S
C428 C425 1.396 . S
C428 C427 1.394 . S
C428 C458 1.723 1_556 S
H429 C452 0.947 . S
H430 C453 0.948 1_556 S
H431 C459 0.982 . S
H432 C460 0.979 . S
H433 C460 0.980 . S
H434 C460 0.983 . S
H435 C459 0.979 . S
H436 C459 0.977 . S
C437 C425 1.453 . S
C437 H466 0.982 . S
C437 H467 0.979 . S
C437 H468 0.977 . S
C438 C425 1.684 . S
C438 H463 0.979 . S
C438 H464 0.980 . S
C438 H465 0.983 . S
C439 C440 1.391 . S
C439 C444 1.391 . S
C439 H469 0.948 . S
C440 C439 1.391 . S
C440 C441 1.391 . S
C441 C440 1.391 . S
C441 C442 1.392 . S
C441 H470 0.947 . S
C442 C441 1.392 . S
C442 C443 1.419 . S
C442 H471 0.948 . S
C443 C442 1.419 . S
C443 C444 1.391 . S
C443 C447 1.397 . S
C444 C439 1.391 . S
C444 C443 1.391 . S
C444 C445 1.399 . S
C445 C444 1.399 . S
C445 C446 1.396 . S
C445 C448 1.453 . S
C445 C449 1.684 . S
C446 C427 1.723 1_554 S
C446 C445 1.396 . S
C446 C447 1.394 . S
C447 C443 1.397 . S
C447 C446 1.394 . S
C447 C457 1.723 . S
C448 C445 1.453 . S
C448 H472 0.982 . S
C448 H473 0.979 . S
C448 H474 0.977 . S
C449 C445 1.684 . S
C449 H475 0.979 . S
C449 H476 0.980 1_554 S
C449 H477 0.983 . S
C450 H426 0.948 . S
C450 C451 1.391 . S
C450 C455 1.391 . S
C451 C450 1.391 . S
C451 C452 1.391 . S
C452 H429 0.947 . S
C452 C451 1.391 . S
C452 C453 1.392 . S
C453 H430 0.948 1_554 S
C453 C452 1.392 . S
C453 C454 1.419 . S
C454 C453 1.419 . S
C454 C455 1.391 . S
C454 C458 1.397 . S
C455 C450 1.391 . S
C455 C454 1.391 . S
C455 C456 1.399 . S
C456 C455 1.399 . S
C456 C457 1.396 . S
C456 C459 1.453 . S
C456 C460 1.684 . S
C457 C447 1.723 . S
C457 C456 1.396 . S
C457 C458 1.394 . S
C458 C428 1.723 1_554 S
C458 C454 1.397 . S
C458 C457 1.394 . S
C459 H431 0.982 . S
C459 H435 0.979 . S
C459 H436 0.977 . S
C459 C456 1.453 . S
C460 H432 0.979 . S
C460 H433 0.980 . S
C460 H434 0.983 . S
C460 C456 1.684 . S
H461 C479 0.948 . S
H462 C420 0.948 . S
H463 C438 0.979 . S
H464 C438 0.980 . S
H465 C438 0.983 . S
H466 C437 0.982 . S
H467 C437 0.979 . S
H468 C437 0.977 . S
H469 C439 0.948 . S
H470 C441 0.947 . S
H471 C442 0.948 . S
H472 C448 0.982 . S
H473 C448 0.979 . S
H474 C448 0.977 . S
H475 C449 0.979 . S
H476 C449 0.980 1_556 S
H477 C449 0.983 . S
H478 C422 0.947 . S
C479 C422 1.392 . S
C479 C423 1.419 . S
C479 H461 0.948 . S
Eu480 C489 2.828 . S
Eu480 O491 2.392 . S
Eu480 O493 2.418 1_545 S
Eu480 O498 2.373 1_655 S
Eu480 O501 2.488 . S
Eu480 O502 2.471 . S
Eu480 O503 2.349 1_655 S
Eu481 O490 2.373 1_455 S
Eu481 O494 2.488 . S
Eu481 O495 2.471 . S
Eu481 O496 2.349 . S
Eu481 O499 2.392 1_565 S
Eu481 O500 2.418 1_565 S
Eu481 C510 2.828 . S
C482 O500 1.244 . S
C482 O503 1.265 . S
C483 C484 1.379 1_655 S
C483 C487 1.373 . S
C483 C489 1.505 . S
C484 C483 1.379 1_455 S
C484 C486 1.369 . S
C484 H512 0.930 . S
C485 C487 1.383 . S
C485 C488 1.382 . S
C485 H513 0.930 . S
C486 C484 1.369 . S
C486 C488 1.392 1_455 S
C486 H514 0.930 . S
C487 C483 1.373 . S
C487 C485 1.383 . S
C487 H515 0.931 . S
C488 C485 1.382 . S
C488 C486 1.392 1_655 S
C489 Eu480 2.828 . S
C489 C483 1.505 . S
C489 O501 1.249 . S
C489 O502 1.244 . S
O490 Eu481 2.373 1_655 S
O490 C492 1.266 . S
O491 Eu480 2.392 . S
O491 C492 1.229 1_545 S
C492 O490 1.266 . S
C492 O491 1.229 1_565 S
O493 Eu480 2.418 1_565 S
O493 C497 1.244 . S
O494 Eu481 2.488 . S
O494 C510 1.249 . S
O495 Eu481 2.471 . S
O495 C510 1.244 . S
O496 Eu481 2.349 . S
O496 C497 1.265 1_455 S
C497 O493 1.244 . S
C497 O496 1.265 1_655 S
O498 Eu480 2.373 1_455 S
O498 C511 1.258 . S
O499 Eu481 2.392 1_545 S
O499 C511 1.242 . S
O500 Eu481 2.418 1_545 S
O500 C482 1.244 . S
O501 Eu480 2.488 . S
O501 C489 1.249 . S
O502 Eu480 2.471 . S
O502 C489 1.244 . S
O503 Eu480 2.349 1_455 S
O503 C482 1.265 . S
C504 C505 1.379 . S
C504 C508 1.373 1_556 S
C504 C510 1.505 . S
C505 C504 1.379 . S
C505 C507 1.369 . S
C505 H516 0.930 1_455 S
C506 C508 1.383 . S
C506 C509 1.382 . S
C506 H517 0.930 . S
C507 C505 1.369 . S
C507 C509 1.392 1_556 S
C507 H518 0.930 1_455 S
C508 C504 1.373 1_554 S
C508 C506 1.383 . S
C508 H519 0.931 . S
C509 C506 1.382 . S
C509 C507 1.392 1_554 S
C510 Eu481 2.828 . S
C510 O494 1.249 . S
C510 O495 1.244 . S
C510 C504 1.505 . S
C511 O498 1.258 . S
C511 O499 1.242 . S
H512 C484 0.930 . S
H513 C485 0.930 . S
H514 C486 0.930 . S
H515 C487 0.931 . S
H516 C505 0.930 1_655 S
H517 C506 0.930 . S
H518 C507 0.930 1_655 S
H519 C508 0.931 . S
Eu520 C529 2.828 . S
Eu520 O531 2.392 . S
Eu520 O533 2.418 . S
Eu520 O538 2.373 . S
Eu520 O541 2.488 . S
Eu520 O542 2.471 . S
Eu520 O543 2.349 1_545 S
Eu521 O530 2.373 1_565 S
Eu521 O534 2.488 . S
Eu521 O535 2.471 1_565 S
Eu521 O536 2.349 1_565 S
Eu521 O539 2.392 . S
Eu521 O540 2.418 . S
Eu521 C550 2.828 . S
C522 O540 1.244 . S
C522 O543 1.265 . S
C523 C524 1.379 . S
C523 C527 1.373 . S
C523 C529 1.505 . S
C524 C523 1.379 . S
C524 C526 1.369 . S
C524 H552 0.930 1_545 S
C525 C527 1.383 . S
C525 C528 1.382 . S
C525 H553 0.930 . S
C526 C524 1.369 . S
C526 C528 1.392 . S
C526 H554 0.930 1_545 S
C527 C523 1.373 . S
C527 C525 1.383 . S
C527 H555 0.931 . S
C528 C525 1.382 . S
C528 C526 1.392 . S
C529 Eu520 2.828 . S
C529 C523 1.505 . S
C529 O541 1.249 . S
C529 O542 1.244 . S
O530 Eu521 2.373 1_545 S
O530 C532 1.258 . S
O531 Eu520 2.392 . S
O531 C532 1.242 . S
C532 O530 1.258 . S
C532 O531 1.242 . S
O533 Eu520 2.418 . S
O533 C537 1.244 . S
O534 Eu521 2.488 . S
O534 C550 1.249 . S
O535 Eu521 2.471 1_545 S
O535 C550 1.244 1_545 S
O536 Eu521 2.349 1_545 S
O536 C537 1.265 . S
C537 O533 1.244 . S
C537 O536 1.265 . S
O538 Eu520 2.373 . S
O538 C551 1.258 1_545 S
O539 Eu521 2.392 . S
O539 C551 1.242 . S
O540 Eu521 2.418 . S
O540 C522 1.244 . S
O541 Eu520 2.488 . S
O541 C529 1.249 . S
O542 Eu520 2.471 . S
O542 C529 1.244 . S
O543 Eu520 2.349 1_565 S
O543 C522 1.265 . S
C544 C545 1.379 1_565 S
C544 C548 1.373 . S
C544 C550 1.505 . S
C545 C544 1.379 1_545 S
C545 C547 1.369 . S
C545 H556 0.930 . S
C546 C548 1.383 . S
C546 C549 1.382 . S
C546 H557 0.930 . S
C547 C545 1.369 . S
C547 C549 1.392 1_545 S
C547 H558 0.930 . S
C548 C544 1.373 . S
C548 C546 1.383 . S
C548 H559 0.931 . S
C549 C546 1.382 . S
C549 C547 1.392 1_565 S
C550 Eu521 2.828 . S
C550 O534 1.249 . S
C550 O535 1.244 1_565 S
C550 C544 1.505 . S
C551 O538 1.258 1_565 S
C551 O539 1.242 . S
H552 C524 0.930 1_565 S
H553 C525 0.930 . S
H554 C526 0.930 1_565 S
H555 C527 0.931 . S
H556 C545 0.930 . S
H557 C546 0.930 . S
H558 C547 0.930 . S
H559 C548 0.931 . S
Eu560 C569 2.828 . S
Eu560 O571 2.392 . S
Eu560 O573 2.418 . S
Eu560 O578 2.373 . S
Eu560 O581 2.488 . S
Eu560 O582 2.471 . S
Eu560 O583 2.349 . S
Eu561 O570 2.373 . S
Eu561 O574 2.488 . S
Eu561 O575 2.471 . S
Eu561 O576 2.349 . S
Eu561 O579 2.392 . S
Eu561 O580 2.418 . S
Eu561 C590 2.828 . S
C562 O580 1.244 . S
C562 O583 1.265 . S
C563 C564 1.379 . S
C563 C567 1.373 . S
C563 C569 1.505 . S
C564 C563 1.379 . S
C564 C566 1.369 . S
C564 H592 0.930 . S
C565 C567 1.383 . S
C565 C568 1.382 . S
C565 H593 0.930 . S
C566 C564 1.369 . S
C566 C568 1.392 . S
C566 H594 0.930 . S
C567 C563 1.373 . S
C567 C565 1.383 . S
C567 H595 0.931 . S
C568 C565 1.382 . S
C568 C566 1.392 . S
C569 Eu560 2.828 . S
C569 C563 1.505 . S
C569 O581 1.249 . S
C569 O582 1.244 . S
O570 Eu561 2.373 . S
O570 C572 1.258 . S
O571 Eu560 2.392 . S
O571 C572 1.242 . S
C572 O570 1.258 . S
C572 O571 1.242 . S
O573 Eu560 2.418 . S
O573 C577 1.244 . S
O574 Eu561 2.488 . S
O574 C590 1.249 . S
O575 Eu561 2.471 . S
O575 C590 1.244 . S
O576 Eu561 2.349 . S
O576 C577 1.265 . S
C577 O573 1.244 . S
C577 O576 1.265 . S
O578 Eu560 2.373 . S
O578 C591 1.258 . S
O579 Eu561 2.392 . S
O579 C591 1.242 . S
O580 Eu561 2.418 . S
O580 C562 1.244 . S
O581 Eu560 2.488 . S
O581 C569 1.249 . S
O582 Eu560 2.471 . S
O582 C569 1.244 . S
O583 Eu560 2.349 . S
O583 C562 1.265 . S
C584 C585 1.379 . S
C584 C588 1.373 . S
C584 C590 1.505 . S
C585 C584 1.379 . S
C585 C587 1.369 . S
C585 H596 0.930 . S
C586 C588 1.383 . S
C586 C589 1.382 . S
C586 H597 0.930 . S
C587 C585 1.369 . S
C587 C589 1.392 . S
C587 H598 0.930 . S
C588 C584 1.373 . S
C588 C586 1.383 . S
C588 H599 0.931 . S
C589 C586 1.382 . S
C589 C587 1.392 . S
C590 Eu561 2.828 . S
C590 O574 1.249 . S
C590 O575 1.244 . S
C590 C584 1.505 . S
C591 O578 1.258 . S
C591 O579 1.242 . S
H592 C564 0.930 . S
H593 C565 0.930 . S
H594 C566 0.930 . S
H595 C567 0.931 . S
H596 C585 0.930 . S
H597 C586 0.930 . S
H598 C587 0.930 . S
H599 C588 0.931 . S
Eu600 C609 2.828 . S
Eu600 O611 2.392 . S
Eu600 O613 2.418 1_455 S
Eu600 O618 2.373 . S
Eu600 O621 2.488 . S
Eu600 O622 2.471 . S
Eu600 O623 2.349 . S
Eu601 O610 2.373 . S
Eu601 O614 2.488 . S
Eu601 O615 2.471 . S
Eu601 O616 2.349 . S
Eu601 O619 2.392 1_655 S
Eu601 O620 2.418 1_655 S
Eu601 C630 2.828 . S
C602 O620 1.244 . S
C602 O623 1.265 . S
C603 C604 1.379 . S
C603 C607 1.373 . S
C603 C609 1.505 . S
C604 C603 1.379 . S
C604 C606 1.369 . S
C604 H632 0.930 . S
C605 C607 1.383 . S
C605 C608 1.382 . S
C605 H633 0.930 . S
C606 C604 1.369 . S
C606 C608 1.392 . S
C606 H634 0.930 . S
C607 C603 1.373 . S
C607 C605 1.383 . S
C607 H635 0.931 . S
C608 C605 1.382 . S
C608 C606 1.392 . S
C609 Eu600 2.828 . S
C609 C603 1.505 . S
C609 O621 1.249 . S
C609 O622 1.244 . S
O610 Eu601 2.373 . S
O610 C612 1.258 . S
O611 Eu600 2.392 . S
O611 C612 1.242 1_455 S
C612 O610 1.258 . S
C612 O611 1.242 1_655 S
O613 Eu600 2.418 1_655 S
O613 C617 1.244 . S
O614 Eu601 2.488 . S
O614 C630 1.249 . S
O615 Eu601 2.471 . S
O615 C630 1.244 . S
O616 Eu601 2.349 . S
O616 C617 1.265 . S
C617 O613 1.244 . S
C617 O616 1.265 . S
O618 Eu600 2.373 . S
O618 C631 1.258 . S
O619 Eu601 2.392 1_455 S
O619 C631 1.242 . S
O620 Eu601 2.418 1_455 S
O620 C602 1.244 . S
O621 Eu600 2.488 . S
O621 C609 1.249 . S
O622 Eu600 2.471 . S
O622 C609 1.244 . S
O623 Eu600 2.349 . S
O623 C602 1.265 . S
C624 C625 1.379 . S
C624 C628 1.373 . S
C624 C630 1.505 . S
C625 C624 1.379 . S
C625 C627 1.369 . S
C625 H636 0.930 . S
C626 C628 1.383 1_554 S
C626 C629 1.382 . S
C626 H637 0.930 . S
C627 C625 1.369 . S
C627 C629 1.392 1_556 S
C627 H638 0.930 . S
C628 C624 1.373 . S
C628 C626 1.383 1_556 S
C628 H639 0.929 1_556 S
C629 C626 1.382 . S
C629 C627 1.392 1_554 S
C630 Eu601 2.828 . S
C630 O614 1.249 . S
C630 O615 1.244 . S
C630 C624 1.505 . S
C631 O618 1.258 . S
C631 O619 1.242 . S
H632 C604 0.930 . S
H633 C605 0.930 . S
H634 C606 0.930 . S
H635 C607 0.931 . S
H636 C625 0.930 . S
H637 C626 0.930 . S
H638 C627 0.930 . S
H639 C628 0.929 1_554 S
C640 C641 1.387 . S
C640 H644 0.950 . S
C640 C649 1.390 . S
C641 C640 1.387 . S
C641 C643 1.387 . S
H642 C649 0.950 . S
C643 C641 1.387 . S
C643 C645 1.390 . S
C643 H647 0.950 1_545 S
H644 C640 0.950 . S
C645 C643 1.390 . S
C645 C646 1.387 . S
C645 H648 0.950 1_545 S
C646 C645 1.387 . S
C646 C649 1.387 . S
H647 C643 0.950 1_565 S
H648 C645 0.950 1_565 S
C649 C640 1.390 . S
C649 H642 0.950 . S
C649 C646 1.387 . S
C650 C651 1.387 . S
C650 H654 0.950 . S
C650 C659 1.390 . S
C651 C650 1.387 . S
C651 C653 1.387 . S
H652 C659 0.950 . S
C653 C651 1.387 . S
C653 C655 1.390 . S
C653 H657 0.950 . S
H654 C650 0.950 . S
C655 C653 1.390 . S
C655 C656 1.387 . S
C655 H658 0.950 . S
C656 C655 1.387 . S
C656 C659 1.387 . S
H657 C653 0.950 . S
H658 C655 0.950 . S
C659 C650 1.390 . S
C659 H652 0.950 . S
C659 C656 1.387 . S
C660 C661 1.387 . S
C660 H664 0.950 . S
C660 C669 1.390 . S
C661 C660 1.387 . S
C661 C663 1.387 . S
H662 C669 0.950 . S
C663 C661 1.387 . S
C663 C665 1.390 . S
C663 H667 0.950 . S
H664 C660 0.950 . S
C665 C663 1.390 . S
C665 C666 1.387 . S
C665 H668 0.950 . S
C666 C665 1.387 . S
C666 C669 1.387 . S
H667 C663 0.950 . S
H668 C665 0.950 . S
C669 C660 1.390 . S
C669 H662 0.950 . S
C669 C666 1.387 . S
C670 C671 1.387 . S
C670 H674 0.950 . S
C670 C679 1.390 . S
C671 C670 1.387 . S
C671 C673 1.387 . S
H672 C679 0.950 . S
C673 C671 1.387 . S
C673 C675 1.390 . S
C673 H677 0.950 . S
H674 C670 0.950 . S
C675 C673 1.390 . S
C675 C676 1.387 . S
C675 H678 0.950 . S
C676 C675 1.387 . S
C676 C679 1.387 . S
H677 C673 0.950 . S
H678 C675 0.950 . S
C679 C670 1.390 . S
C679 H672 0.950 . S
C679 C676 1.387 . S
C680 C681 1.387 . S
C680 H684 0.950 . S
C680 C689 1.390 1_554 S
C681 C680 1.387 . S
C681 C683 1.387 . S
H682 C689 0.950 . S
C683 C681 1.387 . S
C683 C685 1.389 1_565 S
C683 H687 0.950 1_565 S
H684 C680 0.950 . S
C685 C683 1.389 1_545 S
C685 C686 1.388 1_544 S
C685 H688 0.950 1_554 S
C686 C685 1.388 1_566 S
C686 C689 1.387 . S
H687 C683 0.950 1_545 S
H688 C685 0.950 1_556 S
C689 C680 1.390 1_556 S
C689 H682 0.950 . S
C689 C686 1.387 . S
C690 C691 1.387 . S
C690 H694 0.950 . S
C690 C699 1.390 1_554 S
C691 C690 1.387 . S
C691 C693 1.387 . S
H692 C699 0.950 . S
C693 C691 1.387 . S
C693 C695 1.390 1_554 S
C693 H697 0.950 . S
H694 C690 0.950 . S
C695 C693 1.390 1_556 S
C695 C696 1.387 . S
C695 H698 0.950 . S
C696 C695 1.387 . S
C696 C699 1.387 . S
H697 C693 0.950 . S
H698 C695 0.950 . S
C699 C690 1.390 1_556 S
C699 H692 0.950 . S
C699 C696 1.387 . S
C700 C701 1.387 . S
C700 H704 0.950 . S
C700 C709 1.390 1_554 S
C701 C700 1.387 . S
C701 C703 1.387 . S
H702 C709 0.950 . S
C703 C701 1.387 . S
C703 C705 1.390 1_554 S
C703 H707 0.950 . S
H704 C700 0.950 . S
C705 C703 1.390 1_556 S
C705 C706 1.387 . S
C705 H708 0.950 . S
C706 C705 1.387 . S
C706 C709 1.387 . S
H707 C703 0.950 . S
H708 C705 0.950 . S
C709 C700 1.390 1_556 S
C709 H702 0.950 . S
C709 C706 1.387 . S
C710 C711 1.387 . S
C710 H714 0.950 . S
C710 C719 1.390 1_554 S
C711 C710 1.387 . S
C711 C713 1.387 . S
H712 C719 0.950 . S
C713 C711 1.387 . S
C713 C715 1.390 1_554 S
C713 H717 0.950 . S
H714 C710 0.950 . S
C715 C713 1.390 1_556 S
C715 C716 1.387 . S
C715 H718 0.950 . S
C716 C715 1.387 . S
C716 C719 1.387 . S
H717 C713 0.950 . S
H718 C715 0.950 . S
C719 C710 1.390 1_556 S
C719 H712 0.950 . S
C719 C716 1.387 . S
C720 C721 1.387 . S
C720 H724 0.950 . S
C720 C729 1.390 . S
C721 C720 1.387 . S
C721 C723 1.387 . S
H722 C729 0.963 . S
C723 C721 1.387 . S
C723 C725 1.390 . S
C723 H727 0.950 . S
H724 C720 0.950 . S
C725 C723 1.390 . S
C725 C726 1.387 1_455 S
C725 H728 0.950 . S
C726 C725 1.387 1_655 S
C726 C729 1.387 1_655 S
H727 C723 0.950 . S
H728 C725 0.950 . S
C729 C720 1.390 . S
C729 H722 0.963 . S
C729 C726 1.387 1_455 S
C730 C731 1.387 . S
C730 H734 0.950 . S
C730 C739 1.390 . S
C731 C730 1.387 . S
C731 C733 1.387 . S
H732 C739 0.950 . S
C733 C731 1.387 . S
C733 C735 1.390 1_545 S
C733 H737 0.950 . S
H734 C730 0.950 . S
C735 C733 1.390 1_565 S
C735 C736 1.387 . S
C735 H738 0.950 . S
C736 C735 1.387 . S
C736 C739 1.387 1_565 S
H737 C733 0.950 . S
H738 C735 0.950 . S
C739 C730 1.390 . S
C739 H732 0.950 . S
C739 C736 1.387 1_545 S
C740 C741 1.387 . S
C740 H744 0.950 . S
C740 C749 1.390 . S
C741 C740 1.387 . S
C741 C743 1.387 . S
H742 C749 0.950 . S
C743 C741 1.387 . S
C743 C745 1.390 . S
C743 H747 0.950 . S
H744 C740 0.950 . S
C745 C743 1.390 . S
C745 C746 1.387 . S
C745 H748 0.950 . S
C746 C745 1.387 . S
C746 C749 1.387 . S
H747 C743 0.950 . S
H748 C745 0.950 . S
C749 C740 1.390 . S
C749 H742 0.950 . S
C749 C746 1.387 . S
C750 C751 1.387 . S
C750 H754 0.950 . S
C750 C759 1.390 . S
C751 C750 1.387 . S
C751 C753 1.387 . S
H752 C759 0.950 . S
C753 C751 1.387 . S
C753 C755 1.390 . S
C753 H757 0.950 . S
H754 C750 0.950 . S
C755 C753 1.390 . S
C755 C756 1.387 . S
C755 H758 0.950 . S
C756 C755 1.387 . S
C756 C759 1.387 . S
H757 C753 0.950 . S
H758 C755 0.950 . S
C759 C750 1.390 . S
C759 H752 0.950 . S
C759 C756 1.387 . S
C760 C761 1.387 . S
C760 H764 0.950 . S
C760 C769 1.390 1_655 S
C761 C760 1.387 . S
C761 C763 1.388 . S
H762 C769 0.950 . S
C763 C761 1.388 . S
C763 C765 1.390 1_655 S
C763 H767 0.950 1_554 S
H764 C760 0.950 . S
C765 C763 1.390 1_455 S
C765 C766 1.387 . S
C765 H768 0.950 1_554 S
C766 C765 1.387 . S
C766 C769 1.387 . S
H767 C763 0.950 1_556 S
H768 C765 0.950 1_556 S
C769 C760 1.390 1_455 S
C769 H762 0.950 . S
C769 C766 1.387 . S
C770 C771 1.387 1_545 S
C770 H774 0.950 . S
C770 C779 1.390 . S
C771 C770 1.387 1_565 S
C771 C773 1.387 1_554 S
H772 C779 0.950 . S
C773 C771 1.387 1_556 S
C773 C775 1.387 . S
C773 H777 0.950 . S
H774 C770 0.950 . S
C775 C773 1.387 . S
C775 C776 1.390 1_565 S
C775 H778 0.949 . S
C776 C775 1.390 1_545 S
C776 C779 1.387 1_556 S
H777 C773 0.950 . S
H778 C775 0.949 . S
C779 C770 1.390 . S
C779 H772 0.950 . S
C779 C776 1.387 1_554 S
C780 C781 1.387 . S
C780 H784 0.950 . S
C780 C789 1.390 . S
C781 C780 1.387 . S
C781 C783 1.387 1_554 S
H782 C789 0.950 . S
C783 C781 1.387 1_556 S
C783 C785 1.390 . S
C783 H787 0.950 . S
H784 C780 0.950 . S
C785 C783 1.390 . S
C785 C786 1.387 . S
C785 H788 0.950 . S
C786 C785 1.387 . S
C786 C789 1.387 1_556 S
H787 C783 0.950 . S
H788 C785 0.950 . S
C789 C780 1.390 . S
C789 H782 0.950 . S
C789 C786 1.387 1_554 S
C790 C791 1.387 1_556 S
C790 H794 0.950 . S
C790 C799 1.390 . S
C791 C790 1.387 1_554 S
C791 C793 1.387 . S
H792 C799 0.950 . S
C793 C791 1.387 . S
C793 C795 1.390 . S
C793 H797 0.950 . S
H794 C790 0.950 . S
C795 C793 1.390 . S
C795 C796 1.387 . S
C795 H798 0.950 . S
C796 C795 1.387 . S
C796 C799 1.387 1_554 S
H797 C793 0.950 . S
H798 C795 0.950 . S
C799 C790 1.390 . S
C799 H792 0.950 . S
C799 C796 1.387 1_556 S
C800 C801 1.387 . S
C800 H804 0.950 . S
C800 C809 1.390 . S
C801 C800 1.387 . S
C801 C803 1.387 . S
H802 C809 0.950 . S
C803 C801 1.387 . S
C803 C805 1.390 . S
C803 H807 0.950 . S
H804 C800 0.950 . S
C805 C803 1.390 . S
C805 C806 1.387 . S
C805 H808 0.950 . S
C806 C805 1.387 . S
C806 C809 1.387 . S
H807 C803 0.950 . S
H808 C805 0.950 . S
C809 C800 1.390 . S
C809 H802 0.950 . S
C809 C806 1.387 . S
C810 C811 1.387 . S
C810 H814 0.950 . S
C810 C819 1.390 . S
C811 C810 1.387 . S
C811 C813 1.387 . S
H812 C819 0.950 . S
C813 C811 1.387 . S
C813 C815 1.390 . S
C813 H817 0.950 . S
H814 C810 0.950 . S
C815 C813 1.390 . S
C815 C816 1.387 . S
C815 H818 0.950 . S
C816 C815 1.387 . S
C816 C819 1.387 . S
H817 C813 0.950 . S
H818 C815 0.950 . S
C819 C810 1.390 . S
C819 H812 0.950 . S
C819 C816 1.387 . S
C820 C821 1.387 . S
C820 H824 0.950 . S
C820 C829 1.390 . S
C821 C820 1.387 . S
C821 C823 1.387 . S
H822 C829 0.950 . S
C823 C821 1.387 . S
C823 C825 1.390 . S
C823 H827 0.950 . S
H824 C820 0.950 . S
C825 C823 1.390 . S
C825 C826 1.387 . S
C825 H828 0.950 . S
C826 C825 1.387 . S
C826 C829 1.387 . S
H827 C823 0.950 . S
H828 C825 0.950 . S
C829 C820 1.390 . S
C829 H822 0.950 . S
C829 C826 1.387 . S
C830 C831 1.387 . S
C830 H834 0.950 . S
C830 C839 1.390 . S
C831 C830 1.387 . S
C831 C833 1.387 . S
H832 C839 0.950 . S
C833 C831 1.387 . S
C833 C835 1.390 . S
C833 H837 0.950 . S
H834 C830 0.950 . S
C835 C833 1.390 . S
C835 C836 1.387 . S
C835 H838 0.950 . S
C836 C835 1.387 . S
C836 C839 1.387 . S
H837 C833 0.950 . S
H838 C835 0.950 . S
C839 C830 1.390 . S
C839 H832 0.950 . S
C839 C836 1.387 . S
C840 C841 1.387 . S
C840 H844 0.950 . S
C840 C849 1.390 . S
C841 C840 1.387 . S
C841 C843 1.387 . S
H842 C849 0.950 . S
C843 C841 1.387 . S
C843 C845 1.390 . S
C843 H847 0.950 . S
H844 C840 0.950 . S
C845 C843 1.390 . S
C845 C846 1.387 . S
C845 H848 0.950 . S
C846 C845 1.387 . S
C846 C849 1.387 . S
H847 C843 0.950 . S
H848 C845 0.950 . S
C849 C840 1.390 . S
C849 H842 0.950 . S
C849 C846 1.387 . S
C850 C851 1.387 . S
C850 H854 0.950 . S
C850 C859 1.390 . S
C851 C850 1.387 . S
C851 C853 1.387 . S
H852 C859 0.950 . S
C853 C851 1.387 . S
C853 C855 1.389 1_565 S
C853 H857 0.950 1_565 S
H854 C850 0.950 . S
C855 C853 1.389 1_545 S
C855 C856 1.378 1_545 S
C855 H858 0.961 . S
C856 C855 1.378 1_565 S
C856 C859 1.387 . S
H857 C853 0.950 1_545 S
H858 C855 0.961 . S
C859 C850 1.390 . S
C859 H852 0.950 . S
C859 C856 1.387 . S
C860 C861 1.387 . S
C860 H864 0.950 . S
C860 C869 1.390 . S
C861 C860 1.387 . S
C861 C863 1.387 . S
H862 C869 0.950 . S
C863 C861 1.387 . S
C863 C865 1.390 . S
C863 H867 0.950 . S
H864 C860 0.950 . S
C865 C863 1.390 . S
C865 C866 1.387 . S
C865 H868 0.950 . S
C866 C865 1.387 . S
C866 C869 1.387 . S
H867 C863 0.950 . S
H868 C865 0.950 . S
C869 C860 1.390 . S
C869 H862 0.950 . S
C869 C866 1.387 . S
C870 C871 1.387 . S
C870 H874 0.950 . S
C870 C879 1.390 . S
C871 C870 1.387 . S
C871 C873 1.387 . S
H872 C879 0.950 . S
C873 C871 1.387 . S
C873 C875 1.390 . S
C873 H877 0.950 . S
H874 C870 0.950 . S
C875 C873 1.390 . S
C875 C876 1.387 . S
C875 H878 0.950 . S
C876 C875 1.387 . S
C876 C879 1.387 . S
H877 C873 0.950 . S
H878 C875 0.950 . S
C879 C870 1.390 . S
C879 H872 0.950 . S
C879 C876 1.387 . S
C641 C391 3.182 . S
C646 C511 3.281 . S
C656 C537 2.944 . S
C651 C451 2.731 . S
C666 C577 2.834 . S
C661 C241 2.277 . S
C676 C631 3.176 . S
C671 C331 2.686 . S
C686 C492 3.288 . S
C681 C121 2.797 . S
C691 C211 2.768 . S
C696 C522 2.945 . S
C701 C31 2.641 . S
C706 C562 2.833 . S
C711 C91 2.733 . S
C716 C612 3.176 . S
C726 C488 0.878 . S
C721 C301 0.795 . S
C736 C549 0.962 . S
C731 C380 0.991 . S
C746 C589 0.633 . S
C741 C440 0.598 . S
C751 C260 0.745 . S
C756 C608 0.755 . S
C761 C61 0.856 . S
C766 C509 0.877 . S
C776 C528 0.962 . S
C771 C140 1.007 . S
C786 C568 0.634 . S
C781 C200 0.634 . S
C791 C20 0.755 . S
C796 C629 0.757 . S
C801 C320 3.067 . S
C806 C482 3.414 . S
C811 C361 3.137 . S
C816 C532 3.815 . S
C826 C572 3.583 . S
C821 C421 2.897 . S
C836 C602 3.151 . S
C831 C271 2.835 . S
C841 C80 3.098 . S
C846 C497 3.413 . S
C856 C551 3.815 . S
C851 C151 3.545 . S
C866 C591 3.584 . S
C861 C181 2.954 . S
C871 C1 2.419 . S
C876 C617 3.151 . S
