# Generated by pormake.
# Topology pyr, (3,6)-cn, num edge types: 1
# Building blocks:
#     Node 0, Type 0, BuildingBlock: CUQRIR_clean_linker_1, # of connection points: 3
#     Node 1, Type 0, BuildingBlock: CUQRIR_clean_linker_1, # of connection points: 3
#     Node 2, Type 0, BuildingBlock: CUQRIR_clean_linker_1, # of connection points: 3
#     Node 3, Type 0, BuildingBlock: CUQRIR_clean_linker_1, # of connection points: 3
#     Node 4, Type 0, BuildingBlock: CUQRIR_clean_linker_1, # of connection points: 3
#     Node 5, Type 0, BuildingBlock: CUQRIR_clean_linker_1, # of connection points: 3
#     Node 6, Type 0, BuildingBlock: CUQRIR_clean_linker_1, # of connection points: 3
#     Node 7, Type 0, BuildingBlock: CUQRIR_clean_linker_1, # of connection points: 3
#     Node 8, Type 1, BuildingBlock: MIDCAF_clean_sbu_0, # of connection points: 6
#     Node 9, Type 1, BuildingBlock: MIDCAF_clean_sbu_0, # of connection points: 6
#     Node 10, Type 1, BuildingBlock: MIDCAF_clean_sbu_0, # of connection points: 6
#     Node 11, Type 1, BuildingBlock: MIDCAF_clean_sbu_0, # of connection points: 6
#     Edge 12, Type (0, 1), BuildingBlock: KIFKEQ_clean_linker_1, # of connection points: 2
#     Edge 13, Type (0, 1), BuildingBlock: KIFKEQ_clean_linker_1, # of connection points: 2
#     Edge 14, Type (0, 1), BuildingBlock: KIFKEQ_clean_linker_1, # of connection points: 2
#     Edge 15, Type (0, 1), BuildingBlock: KIFKEQ_clean_linker_1, # of connection points: 2
#     Edge 16, Type (0, 1), BuildingBlock: KIFKEQ_clean_linker_1, # of connection points: 2
#     Edge 17, Type (0, 1), BuildingBlock: KIFKEQ_clean_linker_1, # of connection points: 2
#     Edge 18, Type (0, 1), BuildingBlock: KIFKEQ_clean_linker_1, # of connection points: 2
#     Edge 19, Type (0, 1), BuildingBlock: KIFKEQ_clean_linker_1, # of connection points: 2
#     Edge 20, Type (0, 1), BuildingBlock: KIFKEQ_clean_linker_1, # of connection points: 2
#     Edge 21, Type (0, 1), BuildingBlock: KIFKEQ_clean_linker_1, # of connection points: 2
#     Edge 22, Type (0, 1), BuildingBlock: KIFKEQ_clean_linker_1, # of connection points: 2
#     Edge 23, Type (0, 1), BuildingBlock: KIFKEQ_clean_linker_1, # of connection points: 2
#     Edge 24, Type (0, 1), BuildingBlock: KIFKEQ_clean_linker_1, # of connection points: 2
#     Edge 25, Type (0, 1), BuildingBlock: KIFKEQ_clean_linker_1, # of connection points: 2
#     Edge 26, Type (0, 1), BuildingBlock: KIFKEQ_clean_linker_1, # of connection points: 2
#     Edge 27, Type (0, 1), BuildingBlock: KIFKEQ_clean_linker_1, # of connection points: 2
#     Edge 28, Type (0, 1), BuildingBlock: KIFKEQ_clean_linker_1, # of connection points: 2
#     Edge 29, Type (0, 1), BuildingBlock: KIFKEQ_clean_linker_1, # of connection points: 2
#     Edge 30, Type (0, 1), BuildingBlock: KIFKEQ_clean_linker_1, # of connection points: 2
#     Edge 31, Type (0, 1), BuildingBlock: KIFKEQ_clean_linker_1, # of connection points: 2
#     Edge 32, Type (0, 1), BuildingBlock: KIFKEQ_clean_linker_1, # of connection points: 2
#     Edge 33, Type (0, 1), BuildingBlock: KIFKEQ_clean_linker_1, # of connection points: 2
#     Edge 34, Type (0, 1), BuildingBlock: KIFKEQ_clean_linker_1, # of connection points: 2
#     Edge 35, Type (0, 1), BuildingBlock: KIFKEQ_clean_linker_1, # of connection points: 2
# Relax obj value: 0.103
# Max RMSD: 0.208
# Mean RMSD: 0.152
data_MOF--net-pry--node1-MIDCAF_clean_sbu_0--node2-CUQRIR_clean_linker_1--edge1-KIFKEQ_clean_linker_1
_symmetry_space_group_name_H-M    P1
_symmetry_Int_Tables_number       1
_symmetry_cell_setting            triclinic
loop_
_symmetry_equiv_pos_as_xyz
'x, y, z'
_cell_length_a     33.30263
_cell_length_b     33.264272
_cell_length_c     32.556396
_cell_angle_alpha  88.146857
_cell_angle_beta   91.83999
_cell_angle_gamma 93.167326
loop_
_atom_site_label
_atom_site_type_symbol
_atom_site_fract_x
_atom_site_fract_y
_atom_site_fract_z
_atom_type_partial_charge
C0 C 0.20326 0.27425 0.26084 0.0
N1 N 0.22724 0.24341 0.2703 0.0
N2 N 0.21884 0.29815 0.23027 0.0
C3 C 0.16402 0.28059 0.28082 0.0
C4 C 0.25334 0.28087 0.22148 0.0
N5 N 0.25887 0.24787 0.24628 0.0
C6 C 0.2808 0.29521 0.18765 0.0
H7 H 0.13947 0.26331 0.2642 0.0
H8 H 0.1569 0.31275 0.27948 0.0
H9 H 0.16485 0.26978 0.31342 0.0
H10 H 0.26661 0.31749 0.16654 0.0
H11 H 0.28948 0.26923 0.16997 0.0
H12 H 0.30868 0.30959 0.20145 0.0
C13 C 0.30318 0.79797 0.72932 0.0
N14 N 0.29853 0.82799 0.75577 0.0
N15 N 0.33876 0.78087 0.73665 0.0
C16 C 0.27459 0.7878 0.69389 0.0
C17 C 0.35585 0.8018 0.76829 0.0
N18 N 0.33173 0.83088 0.77969 0.0
C19 C 0.39486 0.79177 0.78986 0.0
H20 H 0.25093 0.76558 0.70484 0.0
H21 H 0.29036 0.77452 0.66853 0.0
H22 H 0.25974 0.81496 0.68173 0.0
H23 H 0.41984 0.81055 0.77613 0.0
H24 H 0.40094 0.75962 0.78633 0.0
H25 H 0.39422 0.79806 0.82309 0.0
C26 C 0.68064 0.29949 0.7935 0.0
N27 N 0.70242 0.29678 0.82918 0.0
N28 N 0.69588 0.32964 0.76877 0.0
C29 C 0.64318 0.2738 0.78367 0.0
C30 C 0.72789 0.34532 0.7908 0.0
N31 N 0.73209 0.32515 0.82745 0.0
C32 C 0.75146 0.38376 0.77902 0.0
H33 H 0.64611 0.24269 0.79634 0.0
H34 H 0.63717 0.27298 0.74997 0.0
H35 H 0.61719 0.28651 0.79819 0.0
H36 H 0.73353 0.40351 0.75837 0.0
H37 H 0.77858 0.37609 0.76264 0.0
H38 H 0.76135 0.40086 0.80658 0.0
C39 C 0.77837 0.7294 0.30518 0.0
N40 N 0.81365 0.751 0.29927 0.0
N41 N 0.7625 0.73839 0.34138 0.0
C42 C 0.76153 0.6966 0.27772 0.0
C43 C 0.7894 0.766 0.35737 0.0
N44 N 0.82074 0.77327 0.3322 0.0
C45 C 0.78405 0.78745 0.39671 0.0
H46 H 0.74204 0.71011 0.25331 0.0
H47 H 0.7432 0.6735 0.29523 0.0
H48 H 0.78598 0.68169 0.26278 0.0
H49 H 0.79957 0.77122 0.42237 0.0
H50 H 0.75173 0.78833 0.40373 0.0
H51 H 0.79746 0.81872 0.39467 0.0
C52 C 0.84681 0.91622 0.92733 0.0
N53 N 0.88112 0.90298 0.91258 0.0
N54 N 0.8396 0.9533 0.91134 0.0
C55 C 0.82196 0.89432 0.95972 0.0
C56 C 0.871 0.96241 0.88675 0.0
N57 N 0.89645 0.93196 0.88771 0.0
C58 C 0.87602 1.00029 0.86052 0.0
H59 H 0.79987 0.873 0.9445 0.0
H60 H 0.80528 0.91558 0.97741 0.0
H61 H 0.84119 0.87679 0.98134 0.0
H62 H 0.89828 0.02132 0.8759 0.0
H63 H 0.84718 0.01524 0.85602 0.0
H64 H 0.88776 0.99356 0.83012 0.0
C65 C 0.70454 0.18489 0.45953 0.0
N66 N 0.70371 0.15383 0.4333 0.0
N67 N 0.66932 0.20358 0.4571 0.0
C68 C 0.7386 0.19529 0.48941 0.0
C69 C 0.64713 0.18292 0.42841 0.0
N70 N 0.66762 0.15239 0.41451 0.0
C71 C 0.60648 0.19444 0.41158 0.0
H72 H 0.75337 0.16774 0.5006 0.0
H73 H 0.72784 0.21117 0.51606 0.0
H74 H 0.76131 0.21536 0.47357 0.0
H75 H 0.60298 0.22726 0.41375 0.0
H76 H 0.58275 0.17805 0.42969 0.0
H77 H 0.60188 0.18614 0.37898 0.0
C78 C 0.39209 0.59521 0.12676 0.0
N79 N 0.41849 0.62747 0.12978 0.0
N80 N 0.36584 0.60032 0.0948 0.0
C81 C 0.38767 0.56188 0.15898 0.0
C82 C 0.37724 0.6369 0.07838 0.0
N83 N 0.40915 0.65344 0.09963 0.0
C84 C 0.35377 0.65877 0.04526 0.0
H85 H 0.4176 0.55285 0.17065 0.0
H86 H 0.37047 0.53522 0.14653 0.0
H87 H 0.37132 0.57288 0.18521 0.0
H88 H 0.33534 0.68093 0.05968 0.0
H89 H 0.33358 0.63751 0.0276 0.0
H90 H 0.37452 0.67556 0.02402 0.0
C91 C 0.09273 0.36767 0.68819 0.0
N92 N 0.12369 0.36916 0.66219 0.0
N93 N 0.09337 0.40154 0.71 0.0
C94 C 0.06209 0.33298 0.69249 0.0
C95 C 0.1258 0.42384 0.69635 0.0
N96 N 0.14411 0.40433 0.66675 0.0
C97 C 0.14029 0.46382 0.71324 0.0
H98 H 0.05389 0.32055 0.66192 0.0
H99 H 0.0346 0.3421 0.70725 0.0
H100 H 0.07542 0.30875 0.7118 0.0
H101 H 0.17357 0.46771 0.7126 0.0
H102 H 0.13056 0.4668 0.7452 0.0
H103 H 0.12722 0.48825 0.69402 0.0
Zn104 Zn 0.99573 0.07033 0.57993 0.0
Zn105 Zn 0.09134 0.97743 0.5081 0.0
Zn106 Zn 0.04145 0.0249 0.54289 0.0
C107 C 0.11939 0.0561 0.48938 0.0
C108 C 0.0141 0.96409 0.47063 0.0
O109 O 0.04012 0.00578 0.60989 0.0
O110 O 1.00438 0.05145 0.63733 0.0
C111 C 0.05327 0.12215 0.54441 0.0
O112 O 0.08824 0.06321 0.51009 0.0
O113 O 0.12904 0.02029 0.48531 0.0
O114 O 0.04991 0.95358 0.46935 0.0
O115 O 1.00466 0.99024 0.49661 0.0
O116 O 0.0208 0.12317 0.56316 0.0
O117 O 0.06638 0.08807 0.53472 0.0
O118 O 0.97903 0.01823 0.5132 0.0
O119 O 0.94377 0.05457 0.55313 0.0
C120 C 0.94521 0.03233 0.52265 0.0
O121 O 0.07076 0.98573 0.59156 0.0
O122 O 0.10881 0.9462 0.55797 0.0
C123 C 0.02429 0.02033 0.64155 0.0
C124 C 0.09602 0.9576 0.59153 0.0
Zn125 Zn 0.46151 0.08122 0.03107 0.0
Zn126 Zn 0.56483 0.9922 0.10443 0.0
Zn127 Zn 0.51372 0.03559 0.06906 0.0
C128 C 0.6095 0.03663 0.04968 0.0
C129 C 0.51112 0.93828 0.06747 0.0
O130 O 0.48469 0.0699 0.1176 0.0
O131 O 0.4411 0.10503 0.08061 0.0
C132 C 0.53712 0.10694 1.00205 0.0
O133 O 0.57378 0.04819 0.04078 0.0
O134 O 0.61524 0.01307 0.08012 0.0
O135 O 0.54469 0.93932 0.08646 0.0
O136 O 0.49367 0.9713 0.05856 0.0
O137 O 0.50052 0.11486 0.99793 0.0
O138 O 0.54752 0.0777 0.0264 0.0
O139 O 0.46876 0.99592 0.03354 0.0
O140 O 0.42774 0.03859 1.00322 0.0
C141 C 0.43828 1.00294 0.00923 0.0
O142 O 0.51749 0.0496 0.13647 0.0
O143 O 0.55775 1.00375 0.16194 0.0
C144 C 0.45647 0.09509 0.11513 0.0
C145 C 0.53645 0.03313 0.16737 0.0
Zn146 Zn 0.55475 0.60623 0.56883 0.0
Zn147 Zn 0.45406 0.46607 0.45671 0.0
Zn148 Zn 0.48248 0.524 0.50158 0.0
C149 C 0.52278 0.44029 0.50119 0.0
C150 C 0.47084 0.52803 0.40084 0.0
O151 O 0.44019 0.55063 0.5411 0.0
O152 O 0.49752 0.58129 0.55511 0.0
C153 C 0.56745 0.51719 0.56936 0.0
O154 O 0.52154 0.47502 0.51705 0.0
O155 O 0.49739 0.42936 0.47356 0.0
O156 O 0.45559 0.49242 0.40061 0.0
O157 O 0.48289 0.54365 0.43516 0.0
O158 O 0.57981 0.55235 0.5811 0.0
O159 O 0.53647 0.51057 0.54441 0.0
O160 O 0.50434 0.57016 0.45856 0.0
O161 O 0.52467 0.59222 0.51686 0.0
C162 C 0.527 0.59532 0.47828 0.0
O163 O 0.4211 0.5137 0.52491 0.0
O164 O 0.40278 0.46145 0.48713 0.0
C165 C 0.46004 0.57773 0.56142 0.0
C166 C 0.39512 0.48526 0.51505 0.0
Zn167 Zn 0.02928 0.58284 0.97695 0.0
Zn168 Zn 0.94699 0.51136 0.09469 0.0
Zn169 Zn 0.9884 0.54796 0.0327 0.0
C170 C 0.02699 0.49222 0.10783 0.0
C171 C 0.917 0.47916 0.01926 0.0
O172 O 0.97677 0.6144 0.0301 0.0
O173 O 0.02136 0.63936 0.98605 0.0
C174 C 0.08471 0.5455 0.02553 0.0
O175 O 0.03011 0.51477 0.07492 0.0
O176 O 0.99336 0.4864 0.12454 0.0
O177 O 0.91195 0.47682 0.05761 0.0
O178 O 0.94446 0.50382 1.00431 0.0
O179 O 0.08279 0.56365 0.99102 0.0
O180 O 0.05264 0.53809 0.0462 0.0
O181 O 0.97149 0.51903 0.97317 0.0
O182 O 1.00261 0.55971 0.92806 0.0
C183 C 0.98031 0.5287 0.93568 0.0
O184 O 0.95815 0.59573 0.06489 0.0
O185 O 0.92601 0.56187 0.1148 0.0
C186 C 0.99357 0.64484 0.01028 0.0
C187 C 0.93564 0.59489 0.09648 0.0
H188 H 0.16276 0.19155 0.27106 0.0
H189 H 0.27239 0.22504 0.33811 0.0
H190 H 0.13994 0.14924 0.32955 0.0
H191 H 0.25019 0.18149 0.39681 0.0
H192 H 0.1975 0.05873 0.46613 0.0
H193 H 0.22864 0.10375 0.41379 0.0
H194 H 0.12082 0.17002 0.4038 0.0
H195 H 0.08976 0.12534 0.45627 0.0
C196 C 0.18226 0.18903 0.29818 0.0
C197 C 0.21904 0.21164 0.30047 0.0
C198 C 0.16913 0.16524 0.3317 0.0
C199 C 0.19288 0.16293 0.36804 0.0
C200 C 0.23116 0.1831 0.36927 0.0
C201 C 0.24405 0.20757 0.33572 0.0
C202 C 0.18087 0.0836 0.45354 0.0
C203 C 0.14116 0.08851 0.46534 0.0
C204 C 0.19871 0.1093 0.4236 0.0
C205 C 0.1769 0.1399 0.40436 0.0
C206 C 0.13812 0.14631 0.41788 0.0
C207 C 0.12052 0.12104 0.44829 0.0
H208 H 0.3978 0.88056 0.78663 0.0
H209 H 0.2874 0.84402 0.84595 0.0
H210 H 0.42127 0.91745 0.84734 0.0
H211 H 0.31028 0.88218 0.90686 0.0
H212 H 0.35997 0.99772 0.9822 0.0
H213 H 0.33035 0.95565 0.92764 0.0
H214 H 0.44173 0.89603 0.9215 0.0
H215 H 0.47132 0.938 0.97632 0.0
C216 C 0.37834 0.88101 0.81261 0.0
C217 C 0.34101 0.8592 0.81184 0.0
C218 C 0.39189 0.90177 0.84749 0.0
C219 C 0.36808 0.90192 0.88233 0.0
C220 C 0.32946 0.8823 0.88062 0.0
C221 C 0.31615 0.86088 0.84571 0.0
C222 C 0.37778 0.97484 0.96998 0.0
C223 C 0.41799 0.97112 0.98371 0.0
C224 C 0.36078 0.95079 0.93869 0.0
C225 C 0.38385 0.92295 0.91983 0.0
C226 C 0.42334 0.91761 0.93513 0.0
C227 C 0.44015 0.94125 0.96692 0.0
H228 H 0.72573 0.3461 0.69366 0.0
H229 H 0.62181 0.35745 0.76692 0.0
H230 H 0.69419 0.38559 0.63745 0.0
H231 H 0.5902 0.39662 0.71159 0.0
H232 H 0.53067 0.44863 0.60038 0.0
H233 H 0.56128 0.39566 0.64226 0.0
H234 H 0.67816 0.45679 0.62818 0.0
H235 H 0.64742 0.50913 0.58526 0.0
C236 C 0.69584 0.3565 0.69722 0.0
C237 C 0.67585 0.34855 0.73411 0.0
C238 C 0.67789 0.37915 0.66536 0.0
C239 C 0.63963 0.39412 0.67001 0.0
C240 C 0.61928 0.38488 0.70659 0.0
C241 C 0.63728 0.36246 0.73831 0.0
C242 C 0.56304 0.45002 0.60527 0.0
C243 C 0.58682 0.48256 0.58924 0.0
C244 C 0.58053 0.41998 0.62959 0.0
C245 C 0.62212 0.42213 0.63875 0.0
C246 C 0.64612 0.45392 0.62126 0.0
C247 C 0.62856 0.48402 0.59694 0.0
H248 H 0.79597 0.76524 0.2194 0.0
H249 H 0.88903 0.72465 0.30294 0.0
H250 H 0.83028 0.73857 0.16157 0.0
H251 H 0.9239 0.69797 0.24516 0.0
H252 H 0.85873 0.61316 0.10629 0.0
H253 H 0.83492 0.66403 0.15053 0.0
H254 H 0.95741 0.70867 0.17416 0.0
H255 H 0.98113 0.65789 0.12853 0.0
C256 C 0.82468 0.75196 0.225 0.0
C257 C 0.83989 0.74683 0.26543 0.0
C258 C 0.84418 0.73646 0.19205 0.0
C259 C 0.87953 0.71567 0.19881 0.0
C260 C 0.89686 0.71404 0.23886 0.0
C261 C 0.87708 0.7294 0.27195 0.0
C262 C 0.8804 0.63489 0.11963 0.0
C263 C 0.92163 0.63199 0.11368 0.0
C264 C 0.86683 0.66402 0.14506 0.0
C265 C 0.89429 0.69036 0.16602 0.0
C266 C 0.93557 0.68876 0.15848 0.0
C267 C 0.9491 0.66005 0.13211 0.0
H268 H 0.33787 0.26505 0.26001 0.0
H269 H 0.25201 0.16997 0.22514 0.0
H270 H 0.39316 0.22421 0.24168 0.0
H271 H 0.30694 0.12895 0.20569 0.0
H272 H 0.41225 0.05809 0.17628 0.0
H273 H 0.36701 0.09166 0.22071 0.0
H274 H 0.41602 0.20732 0.17605 0.0
H275 H 0.46075 0.17371 0.13247 0.0
C276 C 0.33105 0.23494 0.24916 0.0
C277 C 0.2909 0.22061 0.24372 0.0
C278 C 0.3626 0.21159 0.2384 0.0
C279 C 0.35469 0.17339 0.22152 0.0
C280 C 0.31438 0.15799 0.21887 0.0
C281 C 0.28282 0.18139 0.22992 0.0
C282 C 0.41447 0.09064 0.17759 0.0
C283 C 0.44039 0.11337 0.1515 0.0
C284 C 0.38812 0.10994 0.20248 0.0
C285 C 0.38742 0.15233 0.20182 0.0
C286 C 0.4158 0.17476 0.17799 0.0
C287 C 0.44169 0.15551 0.153 0.0
H288 H 0.22142 0.80711 0.77055 0.0
H289 H 0.30098 0.90671 0.73272 0.0
H290 H 0.16359 0.84222 0.74209 0.0
H291 H 0.24319 0.94243 0.70433 0.0
H292 H 0.12618 0.99824 0.6586 0.0
H293 H 0.17182 0.97196 0.71281 0.0
H294 H 0.15316 0.85296 0.66422 0.0
H295 H 0.10898 0.87934 0.60986 0.0
C296 C 0.22616 0.83747 0.75795 0.0
C297 C 0.26548 0.85432 0.75385 0.0
C298 C 0.1932 0.8574 0.74128 0.0
C299 C 0.19884 0.89486 0.72043 0.0
C300 C 0.23779 0.91372 0.7204 0.0
C301 C 0.27089 0.89348 0.73686 0.0
C302 C 0.13092 0.96626 0.66046 0.0
C303 C 0.11399 0.94074 0.63014 0.0
C304 C 0.15728 0.95132 0.69122 0.0
C305 C 0.16617 0.91039 0.6928 0.0
C306 C 0.14668 0.88452 0.66422 0.0
C307 C 0.12133 0.89959 0.63303 0.0
H308 H 0.71481 0.34759 0.90379 0.0
H309 H 0.81241 0.33112 0.82338 0.0
H310 H 0.76189 0.38078 0.95303 0.0
H311 H 0.8594 0.36588 0.87167 0.0
H312 H 0.90051 0.48833 0.93642 0.0
H313 H 0.85894 0.44345 0.89258 0.0
H314 H 0.82919 0.36752 0.99837 0.0
H315 H 0.87289 0.4109 0.04186 0.0
C316 C 0.74654 0.34975 0.89742 0.0
C317 C 0.76021 0.33645 0.86014 0.0
C318 C 0.77339 0.36914 0.92528 0.0
C319 C 0.81411 0.3762 0.91581 0.0
C320 C 0.82808 0.36108 0.87947 0.0
C321 C 0.8014 0.34102 0.8521 0.0
C322 C 0.88647 0.46132 0.95007 0.0
C323 C 0.89123 0.45261 0.99235 0.0
C324 C 0.86223 0.43588 0.92509 0.0
C325 C 0.84125 0.40185 0.94214 0.0
C326 C 0.84519 0.3935 0.98451 0.0
C327 C 0.87015 0.41844 0.00931 0.0
H328 H 0.68694 0.73087 0.30899 0.0
H329 H 0.75955 0.70389 0.41723 0.0
H330 H 0.6275 0.69913 0.34214 0.0
H331 H 0.70042 0.67281 0.45081 0.0
H332 H 0.57835 0.65373 0.51144 0.0
H333 H 0.63441 0.69096 0.478 0.0
H334 H 0.60464 0.62945 0.36535 0.0
H335 H 0.54958 0.59184 0.39882 0.0
C336 C 0.69 0.71811 0.33987 0.0
C337 C 0.72754 0.71987 0.36072 0.0
C338 C 0.65616 0.70007 0.35887 0.0
C339 C 0.65927 0.68375 0.39921 0.0
C340 C 0.69691 0.68577 0.42004 0.0
C341 C 0.73071 0.70345 0.40088 0.0
C342 C 0.58365 0.64839 0.47949 0.0
C343 C 0.55916 0.62016 0.45767 0.0
C344 C 0.61578 0.66961 0.46037 0.0
C345 C 0.62384 0.6632 0.419 0.0
C346 C 0.59882 0.63558 0.39703 0.0
C347 C 0.56706 0.61413 0.41622 0.0
H348 H 0.18203 0.29647 0.15566 0.0
H349 H 0.21129 0.37256 0.25788 0.0
H350 H 0.14032 0.34823 0.12396 0.0
H351 H 0.17004 0.42493 0.22645 0.0
H352 H 0.04561 0.47418 0.18813 0.0
H353 H 0.09778 0.43109 0.21547 0.0
H354 H 0.13808 0.41593 0.09239 0.0
H355 H 0.08497 0.45816 0.06509 0.0
C356 C 0.18017 0.32485 0.17069 0.0
C357 C 0.19968 0.33087 0.20895 0.0
C358 C 0.15642 0.35452 0.15267 0.0
C359 C 0.15156 0.39074 0.17277 0.0
C360 C 0.17265 0.39724 0.21038 0.0
C361 C 0.19649 0.36758 0.22824 0.0
C362 C 0.06601 0.46208 0.16702 0.0
C363 C 0.06163 0.47009 0.12455 0.0
C364 C 0.0961 0.43758 0.18267 0.0
C365 C 0.12229 0.42005 0.15617 0.0
C366 C 0.11834 0.42872 0.11367 0.0
C367 C 0.08825 0.45335 0.09805 0.0
H368 H 0.73081 0.22666 0.85845 0.0
H369 H 0.64285 0.31368 0.87732 0.0
H370 H 0.69516 0.1785 0.90574 0.0
H371 H 0.60714 0.26617 0.92412 0.0
H372 H 0.61752 0.12282 0.0217 0.0
H373 H 0.6651 0.16931 0.98528 0.0
H374 H 0.57092 0.19833 0.89699 0.0
H375 H 0.52426 0.15086 0.93178 0.0
C376 C 0.70484 0.23591 0.87417 0.0
C377 C 0.68955 0.27371 0.86491 0.0
C378 C 0.68438 0.20847 0.9009 0.0
C379 C 0.6482 0.21858 0.91807 0.0
C380 C 0.6348 0.25757 0.91103 0.0
C381 C 0.6553 0.28483 0.88471 0.0
C382 C 0.60746 0.13802 0.9937 0.0
C383 C 0.56731 0.13252 0.97922 0.0
C384 C 0.63452 0.16499 0.97324 0.0
C385 C 0.62146 0.18763 0.93867 0.0
C386 C 0.58159 0.18161 0.92392 0.0
C387 C 0.55492 0.15435 0.94383 0.0
H388 H 0.84462 0.84264 0.29242 0.0
H389 H 0.87309 0.76321 0.39495 0.0
H390 H 0.89152 0.89544 0.32121 0.0
H391 H 0.91862 0.81583 0.42436 0.0
H392 H 0.93557 0.94174 0.48646 0.0
H393 H 0.8906 0.89628 0.44578 0.0
H394 H 0.97929 0.89511 0.3523 0.0
H395 H 0.02464 0.93968 0.39316 0.0
C396 C 0.862 0.83616 0.32029 0.0
C397 C 0.85569 0.79907 0.34152 0.0
C398 C 0.8882 0.86635 0.33702 0.0
C399 C 0.90773 0.85974 0.37537 0.0
C400 C 0.90335 0.82172 0.39506 0.0
C401 C 0.87787 0.79157 0.37807 0.0
C402 C 0.94497 0.93269 0.45675 0.0
C403 C 0.9836 0.94405 0.44305 0.0
C404 C 0.91942 0.90658 0.43364 0.0
C405 C 0.93176 0.89229 0.39611 0.0
C406 C 0.96916 0.9059 0.38105 0.0
C407 C 0.99501 0.93127 0.40449 0.0
H408 H 0.30541 0.70701 0.72027 0.0
H409 H 0.41064 0.78556 0.70074 0.0
H410 H 0.33407 0.65526 0.67976 0.0
H411 H 0.43948 0.73443 0.6601 0.0
H412 H 0.49718 0.62213 0.62185 0.0
H413 H 0.46756 0.66933 0.66624 0.0
H414 H 0.35069 0.64176 0.60939 0.0
H415 H 0.38052 0.59432 0.56504 0.0
C416 C 0.3347 0.71305 0.7072 0.0
C417 C 0.356 0.75002 0.71368 0.0
C418 C 0.35109 0.6836 0.68392 0.0
C419 C 0.38921 0.69053 0.66671 0.0
C420 C 0.41043 0.72765 0.67346 0.0
C421 C 0.394 0.75701 0.69666 0.0
C422 C 0.4651 0.62589 0.61905 0.0
C423 C 0.44111 0.6041 0.59025 0.0
C424 C 0.44812 0.65316 0.64435 0.0
C425 C 0.40671 0.65959 0.64136 0.0
C426 C 0.38257 0.63719 0.61301 0.0
C427 C 0.39961 0.60983 0.58767 0.0
H428 H 0.89719 0.88983 0.81905 0.0
H429 H 0.96901 0.97078 0.89525 0.0
H430 H 0.94315 0.90356 0.76261 0.0
H431 H 0.01654 0.98353 0.83989 0.0
H432 H 0.02521 0.05546 0.7152 0.0
H433 H 1.00667 0.02408 0.78036 0.0
H434 H 1.00551 0.90678 0.72673 0.0
H435 H 0.02351 0.93901 0.66046 0.0
C436 C 0.92414 0.90896 0.82422 0.0
C437 C 0.92982 0.92928 0.86116 0.0
C438 C 0.95057 0.91695 0.79196 0.0
C439 C 0.98331 0.94538 0.79623 0.0
C440 C 0.99119 0.96221 0.83505 0.0
C441 C 0.96441 0.95461 0.867 0.0
C442 C 0.02223 0.02287 0.71757 0.0
C443 C 0.02532 0.99977 0.6826 0.0
C444 C 0.01179 0.00468 0.7552 0.0
C445 C 1.00398 0.96274 0.759 0.0
C446 C 0.01065 0.9392 0.72482 0.0
C447 C 0.02142 0.95758 0.68695 0.0
H448 H 0.68929 0.15795 0.33585 0.0
H449 H 0.61058 0.09283 0.41977 0.0
H450 H 0.64978 0.1301 0.27739 0.0
H451 H 0.5706 0.06492 0.36188 0.0
H452 H 0.53908 0.99437 0.24161 0.0
H453 H 0.57226 0.02041 0.30375 0.0
H454 H 0.58128 0.13937 0.24648 0.0
H455 H 0.54805 0.11294 0.18391 0.0
C456 C 0.66442 0.13634 0.34157 0.0
C457 C 0.65337 0.12661 0.38199 0.0
C458 C 0.64117 0.12121 0.30832 0.0
C459 C 0.60648 0.09594 0.31498 0.0
C460 C 0.59706 0.08427 0.35561 0.0
C461 C 0.62018 0.09965 0.38873 0.0
C462 C 0.54667 0.02642 0.24292 0.0
C463 C 0.54094 0.05166 0.20797 0.0
C464 C 0.56604 0.04129 0.27843 0.0
C465 C 0.58043 0.08173 0.27969 0.0
C466 C 0.57144 0.10781 0.24604 0.0
C467 C 0.55159 0.09293 0.21055 0.0
H468 H 0.49253 0.6025 0.14579 0.0
H469 H 0.39726 0.66608 0.1957 0.0
H470 H 0.51844 0.587 0.21541 0.0
H471 H 0.42249 0.65085 0.2652 0.0
H472 H 0.47138 0.60995 0.38879 0.0
H473 H 0.47345 0.64799 0.32312 0.0
H474 H 0.48042 0.53679 0.25939 0.0
H475 H 0.47881 0.49911 0.32466 0.0
C476 C 0.47878 0.61533 0.1717 0.0
C477 C 0.4432 0.63561 0.16572 0.0
C478 C 0.49309 0.60597 0.2115 0.0
C479 C 0.47188 0.61686 0.24576 0.0
C480 C 0.43961 0.64211 0.23953 0.0
C481 C 0.42534 0.65131 0.19971 0.0
C482 C 0.47408 0.59381 0.36074 0.0
C483 C 0.47482 0.55156 0.36176 0.0
C484 C 0.47529 0.61558 0.32322 0.0
C485 C 0.47751 0.59548 0.2861 0.0
C486 C 0.47961 0.55333 0.28744 0.0
C487 C 0.47808 0.53163 0.32479 0.0
H488 H 0.10707 0.39403 0.7913 0.0
H489 H 0.01976 0.42992 0.69905 0.0
H490 H 0.06412 0.41517 0.8454 0.0
H491 H 0.9758 0.45067 0.75288 0.0
H492 H 0.96426 0.54714 0.85543 0.0
H493 H 0.98179 0.50702 0.79833 0.0
H494 H 1.00113 0.40618 0.88228 0.0
H495 H 0.98393 0.44696 0.93975 0.0
C496 C 0.07819 0.40591 0.78295 0.0
C497 C 0.06658 0.41098 0.74152 0.0
C498 C 0.05334 0.41755 0.81373 0.0
C499 C 0.01635 0.43454 0.80352 0.0
C500 C 1.00414 0.43793 0.76179 0.0
C501 C 0.02911 0.42621 0.73105 0.0
C502 C 0.97044 0.51581 0.86142 0.0
C503 C 0.97332 0.50032 0.90199 0.0
C504 C 0.98058 0.49272 0.82865 0.0
C505 C 0.99397 0.45371 0.83586 0.0
C506 C 0.99182 0.43649 0.87589 0.0
C507 C 0.9814 0.45962 0.90874 0.0
H508 H 0.76097 0.9342 0.8986 0.0
H509 H 0.84465 0.0265 0.94463 0.0
H510 H 0.70481 0.96993 0.92369 0.0
H511 H 0.78856 0.0629 0.96979 0.0
H512 H 0.68805 0.05027 0.07147 0.0
H513 H 0.74506 0.04219 0.02821 0.0
H514 H 0.66449 0.03158 0.92199 0.0
H515 H 0.60712 0.0399 0.96573 0.0
C516 C 0.76702 0.96276 0.91326 0.0
C517 C 0.80676 0.97764 0.92013 0.0
C518 C 0.735 0.98345 0.92728 0.0
C519 C 0.74224 0.01928 0.94878 0.0
C520 C 0.78207 0.03533 0.95345 0.0
C521 C 0.81407 0.0147 0.93907 0.0
C522 C 0.68269 0.04779 0.03861 0.0
C523 C 0.64327 0.04524 0.02196 0.0
C524 C 0.71537 0.04329 0.01374 0.0
C525 C 0.70922 0.03558 0.97177 0.0
C526 C 0.67005 0.037 0.95436 0.0
C527 C 0.63728 0.04208 0.97927 0.0
H528 H 0.77967 0.17151 0.41042 0.0
H529 H 0.69852 0.07366 0.44949 0.0
H530 H 0.83657 0.12857 0.42054 0.0
H531 H 0.75532 0.02986 0.45935 0.0
H532 H 0.87004 0.01084 0.5469 0.0
H533 H 0.80812 0.03117 0.51272 0.0
H534 H 0.87453 0.07 0.4054 0.0
H535 H 0.93687 0.04932 0.44018 0.0
C536 C 0.77404 0.14025 0.41987 0.0
C537 C 0.73493 0.12585 0.42938 0.0
C538 C 0.80656 0.11547 0.42552 0.0
C539 C 0.80077 0.07566 0.44115 0.0
C540 C 0.76102 0.06043 0.44769 0.0
C541 C 0.72843 0.08528 0.44172 0.0
C542 C 0.8711 0.02183 0.51523 0.0
C543 C 0.90827 0.02841 0.49621 0.0
C544 C 0.83551 0.0337 0.49555 0.0
C545 C 0.83624 0.05301 0.45647 0.0
C546 C 0.87292 0.05579 0.43575 0.0
C547 C 0.90859 0.04336 0.45537 0.0
H548 H 0.34339 0.53112 0.05784 0.0
H549 H 0.30018 0.62766 0.12616 0.0
H550 H 0.27415 0.50202 0.04933 0.0
H551 H 0.23125 0.5999 0.11734 0.0
H552 H 0.1109 0.54662 0.10577 0.0
H553 H 0.18086 0.54618 0.13081 0.0
H554 H 0.21814 0.52574 1.00756 0.0
H555 H 0.14842 0.52453 0.9832 0.0
C556 C 0.31886 0.54568 0.07123 0.0
C557 C 0.3262 0.58166 0.09192 0.0
C558 C 0.2795 0.52919 0.06659 0.0
C559 C 0.24723 0.54865 0.08269 0.0
C560 C 0.25535 0.5837 0.10519 0.0
C561 C 0.29452 0.6 0.10976 0.0
C562 C 0.13398 0.54043 0.08451 0.0
C563 C 0.12455 0.53601 0.04256 0.0
C564 C 0.17399 0.54048 0.09871 0.0
C565 C 0.20505 0.5367 0.071 0.0
C566 C 0.19501 0.52853 0.02977 0.0
C567 C 0.1551 0.52828 0.01569 0.0
H568 H 0.21041 0.36272 0.65752 0.0
H569 H 0.1589 0.47661 0.62806 0.0
H570 H 0.27101 0.38528 0.62068 0.0
H571 H 0.22065 0.50016 0.59332 0.0
H572 H 0.36694 0.52498 0.5809 0.0
H573 H 0.30496 0.50799 0.61826 0.0
H574 H 0.27667 0.4092 0.53792 0.0
H575 H 0.33681 0.42677 0.49969 0.0
C576 C 0.21205 0.39249 0.64307 0.0
C577 C 0.17994 0.41783 0.64539 0.0
C578 C 0.2468 0.40556 0.62249 0.0
C579 C 0.25043 0.44453 0.6046 0.0
C580 C 0.21867 0.47019 0.60741 0.0
C581 C 0.18351 0.45676 0.62724 0.0
C582 C 0.34704 0.50033 0.57062 0.0
C583 C 0.35684 0.47764 0.53699 0.0
C584 C 0.31177 0.49046 0.59214 0.0
C585 C 0.28639 0.45717 0.58094 0.0
C586 C 0.29594 0.43482 0.54726 0.0
C587 C 0.33046 0.44509 0.52536 0.0
H588 H 0.85109 0.82684 0.90532 0.0
H589 H 0.9524 0.89865 0.95285 0.0
H590 H 0.87807 0.76627 0.93783 0.0
H591 H 0.97924 0.8387 0.98692 0.0
H592 H 0.03607 0.71509 0.99557 0.0
H593 H 0.00948 0.77883 0.97379 0.0
H594 H 0.8896 0.73195 1.0024 0.0
H595 H 0.91654 0.66692 0.02274 0.0
C596 C 0.87948 0.82931 0.92248 0.0
C597 C 0.90015 0.86694 0.92621 0.0
C598 C 0.8946 0.7949 0.94178 0.0
C599 C 0.93064 0.79747 0.96562 0.0
C600 C 0.95163 0.83533 0.96859 0.0
C601 C 0.93658 0.86964 0.9489 0.0
C602 C 1.00411 0.71864 0.99822 0.0
C603 C 0.97833 0.6858 0.01039 0.0
C604 C 0.9888 0.75539 0.98574 0.0
C605 C 0.9472 0.76049 0.98537 0.0
C606 C 0.92172 0.72875 1.00119 0.0
C607 C 0.93716 0.69169 0.01362 0.0
H608 H 0.46115 0.67955 0.04278 0.0
H609 H 0.3905 0.71814 0.14097 0.0
H610 H 0.48135 0.74975 0.02518 0.0
H611 H 0.41156 0.78856 0.12496 0.0
H612 H 0.43112 0.91341 0.06958 0.0
H613 H 0.40439 0.84313 0.07358 0.0
H614 H 0.52319 0.80305 0.05304 0.0
H615 H 0.54915 0.87245 0.04815 0.0
C616 C 0.45096 0.70331 0.06119 0.0
C617 C 0.42554 0.6939 0.09393 0.0
C618 C 0.46213 0.7434 0.05107 0.0
C619 C 0.44801 0.77488 0.0736 0.0
C620 C 0.42254 0.76517 0.10659 0.0
C621 C 0.41124 0.72498 0.11648 0.0
C622 C 0.45101 0.88947 0.06456 0.0
C623 C 0.49219 0.89821 0.0589 0.0
C624 C 0.43594 0.84928 0.06746 0.0
C625 C 0.46184 0.81742 0.06442 0.0
C626 C 0.50231 0.82663 0.05541 0.0
C627 C 0.51725 0.86649 0.05269 0.0
H628 H 0.14941 0.29605 0.68172 0.0
H629 H 0.11402 0.37303 0.57979 0.0
H630 H 0.14646 0.2383 0.63711 0.0
H631 H 0.11087 0.31524 0.53431 0.0
H632 H 0.02629 0.19466 0.52072 0.0
H633 H 0.05854 0.25957 0.53748 0.0
H634 H 0.16666 0.2012 0.57643 0.0
H635 H 0.13397 0.13579 0.55917 0.0
C636 C 0.14245 0.3006 0.64924 0.0
C637 C 0.13172 0.33848 0.63394 0.0
C638 C 0.14099 0.26773 0.62355 0.0
C639 C 0.12819 0.27208 0.5821 0.0
C640 C 0.12067 0.3109 0.56611 0.0
C641 C 0.12256 0.34392 0.5919 0.0
C642 C 0.05758 0.19593 0.53105 0.0
C643 C 0.07749 0.16031 0.53924 0.0
C644 C 0.0762 0.2332 0.54058 0.0
C645 C 0.11494 0.2355 0.55909 0.0
C646 C 0.13658 0.20027 0.56269 0.0
C647 C 0.11804 0.16288 0.55252 0.0
H648 H 0.70973 0.27614 0.46313 0.0
H649 H 0.60197 0.20866 0.49935 0.0
H650 H 0.68358 0.33755 0.48888 0.0
H651 H 0.57398 0.26964 0.52182 0.0
H652 H 0.52172 0.37855 0.55779 0.0
H653 H 0.56698 0.32324 0.56178 0.0
H654 H 0.63779 0.38271 0.46601 0.0
H655 H 0.59445 0.43916 0.46535 0.0
C656 C 0.68068 0.27447 0.47729 0.0
C657 C 0.6575 0.23797 0.47875 0.0
C658 C 0.66531 0.30971 0.49152 0.0
C659 C 0.62608 0.30925 0.50679 0.0
C660 C 0.60435 0.2718 0.51081 0.0
C661 C 0.62009 0.23666 0.4974 0.0
C662 C 0.54814 0.38035 0.5391 0.0
C663 C 0.55516 0.41319 0.51178 0.0
C664 C 0.57376 0.34835 0.54071 0.0
C665 C 0.60571 0.34752 0.51336 0.0
C666 C 0.61402 0.38194 0.48794 0.0
C667 C 0.58908 0.41446 0.48736 0.0
loop_
_geom_bond_atom_site_label_1
_geom_bond_atom_site_label_2
_geom_bond_distance
_geom_bond_site_symmetry_2
_ccdc_geom_bond_type
C0 N1 1.317 . S
C0 N2 1.348 . S
C0 C3 1.485 . S
N1 C0 1.317 . S
N1 N5 1.370 . S
N2 C0 1.348 . S
N2 C4 1.346 . S
C3 C0 1.485 . S
C3 H7 0.960 . S
C3 H8 0.961 . S
C3 H9 0.960 . S
C4 N2 1.346 . S
C4 N5 1.307 . S
C4 C6 1.486 . S
N5 N1 1.370 . S
N5 C4 1.307 . S
C6 C4 1.486 . S
C6 H10 0.960 . S
C6 H11 0.960 . S
C6 H12 0.959 . S
H7 C3 0.960 . S
H8 C3 0.961 . S
H9 C3 0.960 . S
H10 C6 0.960 . S
H11 C6 0.960 . S
H12 C6 0.959 . S
C13 N14 1.317 . S
C13 N15 1.348 . S
C13 C16 1.485 . S
N14 C13 1.317 . S
N14 N18 1.370 . S
N15 C13 1.348 . S
N15 C17 1.346 . S
C16 C13 1.485 . S
C16 H20 0.960 . S
C16 H21 0.961 . S
C16 H22 0.960 . S
C17 N15 1.346 . S
C17 N18 1.307 . S
C17 C19 1.486 . S
N18 N14 1.370 . S
N18 C17 1.307 . S
C19 C17 1.486 . S
C19 H23 0.960 . S
C19 H24 0.960 . S
C19 H25 0.959 . S
H20 C16 0.960 . S
H21 C16 0.961 . S
H22 C16 0.960 . S
H23 C19 0.960 . S
H24 C19 0.960 . S
H25 C19 0.959 . S
C26 N27 1.317 . S
C26 N28 1.348 . S
C26 C29 1.485 . S
N27 C26 1.317 . S
N27 N31 1.370 . S
N28 C26 1.348 . S
N28 C30 1.346 . S
C29 C26 1.485 . S
C29 H33 0.960 . S
C29 H34 0.961 . S
C29 H35 0.960 . S
C30 N28 1.346 . S
C30 N31 1.307 . S
C30 C32 1.486 . S
N31 N27 1.370 . S
N31 C30 1.307 . S
C32 C30 1.486 . S
C32 H36 0.960 . S
C32 H37 0.960 . S
C32 H38 0.959 . S
H33 C29 0.960 . S
H34 C29 0.961 . S
H35 C29 0.960 . S
H36 C32 0.960 . S
H37 C32 0.960 . S
H38 C32 0.959 . S
C39 N40 1.317 . S
C39 N41 1.348 . S
C39 C42 1.485 . S
N40 C39 1.317 . S
N40 N44 1.370 . S
N41 C39 1.348 . S
N41 C43 1.346 . S
C42 C39 1.485 . S
C42 H46 0.960 . S
C42 H47 0.961 . S
C42 H48 0.960 . S
C43 N41 1.346 . S
C43 N44 1.307 . S
C43 C45 1.486 . S
N44 N40 1.370 . S
N44 C43 1.307 . S
C45 C43 1.486 . S
C45 H49 0.960 . S
C45 H50 0.960 . S
C45 H51 0.959 . S
H46 C42 0.960 . S
H47 C42 0.961 . S
H48 C42 0.960 . S
H49 C45 0.960 . S
H50 C45 0.960 . S
H51 C45 0.959 . S
C52 N53 1.317 . S
C52 N54 1.348 . S
C52 C55 1.485 1_556 S
N53 C52 1.317 . S
N53 N57 1.370 . S
N54 C52 1.348 . S
N54 C56 1.346 . S
C55 C52 1.485 1_554 S
C55 H59 0.960 . S
C55 H60 0.961 . S
C55 H61 0.960 . S
C56 N54 1.346 . S
C56 N57 1.307 . S
C56 C58 1.486 1_565 S
N57 N53 1.370 . S
N57 C56 1.307 . S
C58 C56 1.486 1_545 S
C58 H62 0.960 . S
C58 H63 0.960 . S
C58 H64 0.959 . S
H59 C55 0.960 . S
H60 C55 0.961 . S
H61 C55 0.960 . S
H62 C58 0.960 . S
H63 C58 0.960 . S
H64 C58 0.959 . S
C65 N66 1.317 . S
C65 N67 1.348 . S
C65 C68 1.485 . S
N66 C65 1.317 . S
N66 N70 1.370 . S
N67 C65 1.348 . S
N67 C69 1.346 . S
C68 C65 1.485 . S
C68 H72 0.960 . S
C68 H73 0.961 . S
C68 H74 0.960 . S
C69 N67 1.346 . S
C69 N70 1.307 . S
C69 C71 1.486 . S
N70 N66 1.370 . S
N70 C69 1.307 . S
C71 C69 1.486 . S
C71 H75 0.960 . S
C71 H76 0.960 . S
C71 H77 0.959 . S
H72 C68 0.960 . S
H73 C68 0.961 . S
H74 C68 0.960 . S
H75 C71 0.960 . S
H76 C71 0.960 . S
H77 C71 0.959 . S
C78 N79 1.317 . S
C78 N80 1.348 . S
C78 C81 1.485 . S
N79 C78 1.317 . S
N79 N83 1.370 . S
N80 C78 1.348 . S
N80 C82 1.346 . S
C81 C78 1.485 . S
C81 H85 0.960 . S
C81 H86 0.961 . S
C81 H87 0.960 . S
C82 N80 1.346 . S
C82 N83 1.307 . S
C82 C84 1.486 . S
N83 N79 1.370 . S
N83 C82 1.307 . S
C84 C82 1.486 . S
C84 H88 0.960 . S
C84 H89 0.960 . S
C84 H90 0.959 . S
H85 C81 0.960 . S
H86 C81 0.961 . S
H87 C81 0.960 . S
H88 C84 0.960 . S
H89 C84 0.960 . S
H90 C84 0.959 . S
C91 N92 1.317 . S
C91 N93 1.348 . S
C91 C94 1.485 . S
N92 C91 1.317 . S
N92 N96 1.370 . S
N93 C91 1.348 . S
N93 C95 1.346 . S
C94 C91 1.485 . S
C94 H98 0.963 . S
C94 H99 0.961 . S
C94 H100 0.960 . S
C95 N93 1.346 . S
C95 N96 1.307 . S
C95 C97 1.486 . S
N96 N92 1.370 . S
N96 C95 1.307 . S
C97 C95 1.486 . S
C97 H101 0.960 . S
C97 H102 0.960 . S
C97 H103 0.959 . S
H98 C94 0.963 . S
H99 C94 0.961 . S
H100 C94 0.960 . S
H101 C97 0.960 . S
H102 C97 0.960 . S
H103 C97 0.959 . S
Zn104 O110 1.920 . S
Zn104 O116 1.898 1_655 S
Zn104 O119 1.905 . S
Zn105 O113 1.905 1_565 S
Zn105 O114 1.898 . S
Zn105 O122 1.920 . S
Zn106 O109 2.080 . S
Zn106 O112 2.114 . S
Zn106 O115 2.120 1_545 S
Zn106 O117 2.120 . S
Zn106 O118 2.114 1_455 S
Zn106 O121 2.080 . S
C107 O112 1.166 . S
C107 O113 1.182 . S
C108 O114 1.167 . S
C108 O115 1.299 . S
O109 Zn106 2.080 . S
O109 C123 1.305 . S
O110 Zn104 1.920 . S
O110 C123 1.234 1_655 S
C111 O116 1.167 . S
C111 O117 1.299 . S
O112 Zn106 2.114 . S
O112 C107 1.166 . S
O113 Zn105 1.905 1_545 S
O113 C107 1.182 . S
O114 Zn105 1.898 . S
O114 C108 1.167 . S
O115 Zn106 2.120 1_565 S
O115 C108 1.299 . S
O116 Zn104 1.898 1_455 S
O116 C111 1.167 . S
O117 Zn106 2.120 . S
O117 C111 1.299 . S
O118 Zn106 2.114 1_655 S
O118 C120 1.166 . S
O119 Zn104 1.905 . S
O119 C120 1.182 . S
C120 O118 1.166 . S
C120 O119 1.182 . S
O121 Zn106 2.080 . S
O121 C124 1.305 1_545 S
O122 Zn105 1.920 . S
O122 C124 1.234 . S
C123 O109 1.305 . S
C123 O110 1.234 1_455 S
C124 O121 1.305 1_565 S
C124 O122 1.234 . S
Zn125 O131 1.920 . S
Zn125 O137 1.898 1_554 S
Zn125 O140 1.905 1_554 S
Zn126 O134 1.905 . S
Zn126 O135 1.898 . S
Zn126 O143 1.920 . S
Zn127 O130 2.080 . S
Zn127 O133 2.114 1_545 S
Zn127 O136 2.120 1_545 S
Zn127 O138 2.120 . S
Zn127 O139 2.114 . S
Zn127 O142 2.080 . S
C128 O133 1.166 . S
C128 O134 1.182 . S
C129 O135 1.167 . S
C129 O136 1.299 . S
O130 Zn127 2.080 . S
O130 C144 1.305 . S
O131 Zn125 1.920 . S
O131 C144 1.234 . S
C132 O137 1.167 1_554 S
C132 O138 1.299 . S
O133 Zn127 2.114 1_565 S
O133 C128 1.166 . S
O134 Zn126 1.905 . S
O134 C128 1.182 . S
O135 Zn126 1.898 . S
O135 C129 1.167 . S
O136 Zn127 2.120 1_565 S
O136 C129 1.299 . S
O137 Zn125 1.898 1_556 S
O137 C132 1.167 1_556 S
O138 Zn127 2.120 . S
O138 C132 1.299 . S
O139 Zn127 2.114 . S
O139 C141 1.166 1_554 S
O140 Zn125 1.905 1_556 S
O140 C141 1.182 . S
C141 O139 1.166 1_556 S
C141 O140 1.182 . S
O142 Zn127 2.080 . S
O142 C145 1.305 . S
O143 Zn126 1.920 . S
O143 C145 1.234 1_565 S
C144 O130 1.305 . S
C144 O131 1.234 . S
C145 O142 1.305 . S
C145 O143 1.234 1_545 S
Zn146 O152 1.920 . S
Zn146 O158 1.898 . S
Zn146 O161 1.905 . S
Zn147 O155 1.905 . S
Zn147 O156 1.898 . S
Zn147 O164 1.920 . S
Zn148 O151 2.080 . S
Zn148 O154 2.114 . S
Zn148 O157 2.120 . S
Zn148 O159 2.120 . S
Zn148 O160 2.114 . S
Zn148 O163 2.080 . S
C149 O154 1.166 . S
C149 O155 1.182 . S
C150 O156 1.167 . S
C150 O157 1.299 . S
O151 Zn148 2.080 . S
O151 C165 1.305 . S
O152 Zn146 1.920 . S
O152 C165 1.234 . S
C153 O158 1.167 . S
C153 O159 1.299 . S
O154 Zn148 2.114 . S
O154 C149 1.166 . S
O155 Zn147 1.905 . S
O155 C149 1.182 . S
O156 Zn147 1.898 . S
O156 C150 1.167 . S
O157 Zn148 2.120 . S
O157 C150 1.299 . S
O158 Zn146 1.898 . S
O158 C153 1.167 . S
O159 Zn148 2.120 . S
O159 C153 1.299 . S
O160 Zn148 2.114 . S
O160 C162 1.166 . S
O161 Zn146 1.905 . S
O161 C162 1.182 . S
C162 O160 1.166 . S
C162 O161 1.182 . S
O163 Zn148 2.080 . S
O163 C166 1.305 . S
O164 Zn147 1.920 . S
O164 C166 1.234 . S
C165 O151 1.305 . S
C165 O152 1.234 . S
C166 O163 1.305 . S
C166 O164 1.234 . S
Zn167 O173 1.920 . S
Zn167 O179 1.898 . S
Zn167 O182 1.905 . S
Zn168 O176 1.905 . S
Zn168 O177 1.898 . S
Zn168 O185 1.920 . S
Zn169 O172 2.080 1_454 S
Zn169 O175 2.114 . S
Zn169 O178 2.120 1_454 S
Zn169 O180 2.120 . S
Zn169 O181 2.114 1_554 S
Zn169 O184 2.080 1_455 S
C170 O175 1.166 . S
C170 O176 1.182 1_455 S
C171 O177 1.167 1_556 S
C171 O178 1.299 . S
O172 Zn169 2.080 1_656 S
O172 C186 1.305 1_655 S
O173 Zn167 1.920 . S
O173 C186 1.234 . S
C174 O179 1.167 1_554 S
C174 O180 1.299 . S
O175 Zn169 2.114 . S
O175 C170 1.166 . S
O176 Zn168 1.905 . S
O176 C170 1.182 1_655 S
O177 Zn168 1.898 . S
O177 C171 1.167 1_554 S
O178 Zn169 2.120 1_656 S
O178 C171 1.299 . S
O179 Zn167 1.898 . S
O179 C174 1.167 1_556 S
O180 Zn169 2.120 . S
O180 C174 1.299 . S
O181 Zn169 2.114 1_556 S
O181 C183 1.166 . S
O182 Zn167 1.905 . S
O182 C183 1.182 . S
C183 O181 1.166 . S
C183 O182 1.182 . S
O184 Zn169 2.080 1_655 S
O184 C187 1.305 . S
O185 Zn168 1.920 . S
O185 C187 1.234 . S
C186 O172 1.305 1_455 S
C186 O173 1.234 . S
C187 O184 1.305 . S
C187 O185 1.234 . S
H188 C196 0.950 . S
H189 C201 0.950 . S
H190 C198 0.950 . S
H191 C200 0.950 . S
H192 C202 0.950 . S
H193 C204 0.950 . S
H194 C206 0.950 . S
H195 C207 0.950 . S
C196 H188 0.950 . S
C196 C197 1.386 . S
C196 C198 1.391 . S
C197 C196 1.386 . S
C197 C201 1.393 . S
C198 H190 0.950 . S
C198 C196 1.391 . S
C198 C199 1.400 . S
C199 C198 1.400 . S
C199 C200 1.398 . S
C199 C205 1.491 . S
C200 H191 0.950 . S
C200 C199 1.398 . S
C200 C201 1.391 . S
C201 H189 0.950 . S
C201 C197 1.393 . S
C201 C200 1.391 . S
C202 H192 0.950 . S
C202 C203 1.386 . S
C202 C204 1.391 . S
C203 C202 1.386 . S
C203 C207 1.393 . S
C204 H193 0.950 . S
C204 C202 1.391 . S
C204 C205 1.400 . S
C205 C199 1.491 . S
C205 C204 1.400 . S
C205 C206 1.398 . S
C206 H194 0.950 . S
C206 C205 1.398 . S
C206 C207 1.391 . S
C207 H195 0.950 . S
C207 C203 1.393 . S
C207 C206 1.391 . S
H208 C216 0.950 . S
H209 C221 0.950 . S
H210 C218 0.950 . S
H211 C220 0.950 . S
H212 C222 0.950 . S
H213 C224 0.950 . S
H214 C226 0.950 . S
H215 C227 0.950 . S
C216 H208 0.950 . S
C216 C217 1.386 . S
C216 C218 1.391 . S
C217 C216 1.386 . S
C217 C221 1.393 . S
C218 H210 0.950 . S
C218 C216 1.391 . S
C218 C219 1.400 . S
C219 C218 1.400 . S
C219 C220 1.398 . S
C219 C225 1.491 . S
C220 H211 0.950 . S
C220 C219 1.398 . S
C220 C221 1.391 . S
C221 H209 0.950 . S
C221 C217 1.393 . S
C221 C220 1.391 . S
C222 H212 0.950 . S
C222 C223 1.386 . S
C222 C224 1.391 . S
C223 C222 1.386 . S
C223 C227 1.393 . S
C224 H213 0.950 . S
C224 C222 1.391 . S
C224 C225 1.400 . S
C225 C219 1.491 . S
C225 C224 1.400 . S
C225 C226 1.398 . S
C226 H214 0.950 . S
C226 C225 1.398 . S
C226 C227 1.391 . S
C227 H215 0.950 . S
C227 C223 1.393 . S
C227 C226 1.391 . S
H228 C236 0.950 . S
H229 C241 0.950 . S
H230 C238 0.950 . S
H231 C240 0.950 . S
H232 C242 0.950 . S
H233 C244 0.950 . S
H234 C246 0.950 . S
H235 C247 0.950 . S
C236 H228 0.950 . S
C236 C237 1.386 . S
C236 C238 1.391 . S
C237 C236 1.386 . S
C237 C241 1.393 . S
C238 H230 0.950 . S
C238 C236 1.391 . S
C238 C239 1.400 . S
C239 C238 1.400 . S
C239 C240 1.398 . S
C239 C245 1.491 . S
C240 H231 0.950 . S
C240 C239 1.398 . S
C240 C241 1.391 . S
C241 H229 0.950 . S
C241 C237 1.393 . S
C241 C240 1.391 . S
C242 H232 0.950 . S
C242 C243 1.386 . S
C242 C244 1.391 . S
C243 C242 1.386 . S
C243 C247 1.393 . S
C244 H233 0.950 . S
C244 C242 1.391 . S
C244 C245 1.400 . S
C245 C239 1.491 . S
C245 C244 1.400 . S
C245 C246 1.398 . S
C246 H234 0.950 . S
C246 C245 1.398 . S
C246 C247 1.391 . S
C247 H235 0.950 . S
C247 C243 1.393 . S
C247 C246 1.391 . S
H248 C256 0.950 . S
H249 C261 0.950 . S
H250 C258 0.950 . S
H251 C260 0.950 . S
H252 C262 0.950 . S
H253 C264 0.950 . S
H254 C266 0.950 . S
H255 C267 0.950 . S
C256 H248 0.950 . S
C256 C257 1.386 . S
C256 C258 1.391 . S
C257 C256 1.386 . S
C257 C261 1.393 . S
C258 H250 0.950 . S
C258 C256 1.391 . S
C258 C259 1.400 . S
C259 C258 1.400 . S
C259 C260 1.398 . S
C259 C265 1.491 . S
C260 H251 0.950 . S
C260 C259 1.398 . S
C260 C261 1.391 . S
C261 H249 0.950 . S
C261 C257 1.393 . S
C261 C260 1.391 . S
C262 H252 0.950 . S
C262 C263 1.386 . S
C262 C264 1.391 . S
C263 C262 1.386 . S
C263 C267 1.393 . S
C264 H253 0.950 . S
C264 C262 1.391 . S
C264 C265 1.400 . S
C265 C259 1.491 . S
C265 C264 1.400 . S
C265 C266 1.398 . S
C266 H254 0.950 . S
C266 C265 1.398 . S
C266 C267 1.391 . S
C267 H255 0.950 . S
C267 C263 1.393 . S
C267 C266 1.391 . S
H268 C276 0.950 . S
H269 C281 0.950 . S
H270 C278 0.950 . S
H271 C280 0.950 . S
H272 C282 0.950 . S
H273 C284 0.950 . S
H274 C286 0.950 . S
H275 C287 0.950 . S
C276 H268 0.950 . S
C276 C277 1.386 . S
C276 C278 1.391 . S
C277 C276 1.386 . S
C277 C281 1.393 . S
C278 H270 0.950 . S
C278 C276 1.391 . S
C278 C279 1.400 . S
C279 C278 1.400 . S
C279 C280 1.398 . S
C279 C285 1.491 . S
C280 H271 0.950 . S
C280 C279 1.398 . S
C280 C281 1.391 . S
C281 H269 0.950 . S
C281 C277 1.393 . S
C281 C280 1.391 . S
C282 H272 0.950 . S
C282 C283 1.386 . S
C282 C284 1.391 . S
C283 C282 1.386 . S
C283 C287 1.393 . S
C284 H273 0.950 . S
C284 C282 1.391 . S
C284 C285 1.400 . S
C285 C279 1.491 . S
C285 C284 1.400 . S
C285 C286 1.398 . S
C286 H274 0.950 . S
C286 C285 1.398 . S
C286 C287 1.391 . S
C287 H275 0.950 . S
C287 C283 1.393 . S
C287 C286 1.391 . S
H288 C296 0.950 . S
H289 C301 0.950 . S
H290 C298 0.950 . S
H291 C300 0.950 . S
H292 C302 0.950 1_545 S
H293 C304 0.950 . S
H294 C306 0.950 . S
H295 C307 0.950 . S
C296 H288 0.950 . S
C296 C297 1.386 . S
C296 C298 1.391 . S
C297 C296 1.386 . S
C297 C301 1.393 . S
C298 H290 0.950 . S
C298 C296 1.391 . S
C298 C299 1.400 . S
C299 C298 1.400 . S
C299 C300 1.398 . S
C299 C305 1.491 . S
C300 H291 0.950 . S
C300 C299 1.398 . S
C300 C301 1.391 . S
C301 H289 0.950 . S
C301 C297 1.393 . S
C301 C300 1.391 . S
C302 H292 0.950 1_565 S
C302 C303 1.386 . S
C302 C304 1.391 . S
C303 C302 1.386 . S
C303 C307 1.393 . S
C304 H293 0.950 . S
C304 C302 1.391 . S
C304 C305 1.400 . S
C305 C299 1.491 . S
C305 C304 1.400 . S
C305 C306 1.398 . S
C306 H294 0.950 . S
C306 C305 1.398 . S
C306 C307 1.391 . S
C307 H295 0.950 . S
C307 C303 1.393 . S
C307 C306 1.391 . S
H308 C316 0.950 . S
H309 C321 0.950 . S
H310 C318 0.950 . S
H311 C320 0.950 . S
H312 C322 0.950 . S
H313 C324 0.950 . S
H314 C326 0.950 . S
H315 C327 0.950 1_554 S
C316 H308 0.950 . S
C316 C317 1.386 . S
C316 C318 1.391 . S
C317 C316 1.386 . S
C317 C321 1.393 . S
C318 H310 0.950 . S
C318 C316 1.391 . S
C318 C319 1.400 . S
C319 C318 1.400 . S
C319 C320 1.398 . S
C319 C325 1.491 . S
C320 H311 0.950 . S
C320 C319 1.398 . S
C320 C321 1.391 . S
C321 H309 0.950 . S
C321 C317 1.393 . S
C321 C320 1.391 . S
C322 H312 0.950 . S
C322 C323 1.386 . S
C322 C324 1.391 . S
C323 C322 1.386 . S
C323 C327 1.393 . S
C324 H313 0.950 . S
C324 C322 1.391 . S
C324 C325 1.400 . S
C325 C319 1.491 . S
C325 C324 1.400 . S
C325 C326 1.398 . S
C326 H314 0.950 . S
C326 C325 1.398 . S
C326 C327 1.391 . S
C327 H315 0.950 1_556 S
C327 C323 1.393 . S
C327 C326 1.391 . S
H328 C336 0.950 . S
H329 C341 0.950 . S
H330 C338 0.950 . S
H331 C340 0.950 . S
H332 C342 0.950 . S
H333 C344 0.950 . S
H334 C346 0.950 . S
H335 C347 0.950 . S
C336 H328 0.950 . S
C336 C337 1.386 . S
C336 C338 1.391 . S
C337 C336 1.386 . S
C337 C341 1.393 . S
C338 H330 0.950 . S
C338 C336 1.391 . S
C338 C339 1.400 . S
C339 C338 1.400 . S
C339 C340 1.398 . S
C339 C345 1.491 . S
C340 H331 0.950 . S
C340 C339 1.398 . S
C340 C341 1.391 . S
C341 H329 0.950 . S
C341 C337 1.393 . S
C341 C340 1.391 . S
C342 H332 0.950 . S
C342 C343 1.386 . S
C342 C344 1.391 . S
C343 C342 1.386 . S
C343 C347 1.393 . S
C344 H333 0.950 . S
C344 C342 1.391 . S
C344 C345 1.400 . S
C345 C339 1.491 . S
C345 C344 1.400 . S
C345 C346 1.398 . S
C346 H334 0.950 . S
C346 C345 1.398 . S
C346 C347 1.391 . S
C347 H335 0.950 . S
C347 C343 1.393 . S
C347 C346 1.391 . S
H348 C356 0.950 . S
H349 C361 0.950 . S
H350 C358 0.950 . S
H351 C360 0.950 . S
H352 C362 0.950 . S
H353 C364 0.950 . S
H354 C366 0.950 . S
H355 C367 0.950 . S
C356 H348 0.950 . S
C356 C357 1.386 . S
C356 C358 1.391 . S
C357 C356 1.386 . S
C357 C361 1.393 . S
C358 H350 0.950 . S
C358 C356 1.391 . S
C358 C359 1.400 . S
C359 C358 1.400 . S
C359 C360 1.398 . S
C359 C365 1.491 . S
C360 H351 0.950 . S
C360 C359 1.398 . S
C360 C361 1.391 . S
C361 H349 0.950 . S
C361 C357 1.393 . S
C361 C360 1.391 . S
C362 H352 0.950 . S
C362 C363 1.386 . S
C362 C364 1.391 . S
C363 C362 1.386 . S
C363 C367 1.393 . S
C364 H353 0.950 . S
C364 C362 1.391 . S
C364 C365 1.400 . S
C365 C359 1.491 . S
C365 C364 1.400 . S
C365 C366 1.398 . S
C366 H354 0.950 . S
C366 C365 1.398 . S
C366 C367 1.391 . S
C367 H355 0.950 . S
C367 C363 1.393 . S
C367 C366 1.391 . S
H368 C376 0.950 . S
H369 C381 0.950 . S
H370 C378 0.950 . S
H371 C380 0.950 . S
H372 C382 0.950 . S
H373 C384 0.950 1_554 S
H374 C386 0.950 . S
H375 C387 0.950 . S
C376 H368 0.950 . S
C376 C377 1.386 . S
C376 C378 1.391 . S
C377 C376 1.386 . S
C377 C381 1.393 . S
C378 H370 0.950 . S
C378 C376 1.391 . S
C378 C379 1.400 . S
C379 C378 1.400 . S
C379 C380 1.398 . S
C379 C385 1.491 . S
C380 H371 0.950 . S
C380 C379 1.398 . S
C380 C381 1.391 . S
C381 H369 0.950 . S
C381 C377 1.393 . S
C381 C380 1.391 . S
C382 H372 0.950 . S
C382 C383 1.379 1_554 S
C382 C384 1.391 1_554 S
C383 C382 1.379 1_556 S
C383 C387 1.411 . S
C384 H373 0.950 1_556 S
C384 C382 1.391 1_556 S
C384 C385 1.400 . S
C385 C379 1.491 . S
C385 C384 1.400 . S
C385 C386 1.398 . S
C386 H374 0.950 . S
C386 C385 1.398 . S
C386 C387 1.391 . S
C387 H375 0.950 . S
C387 C383 1.411 . S
C387 C386 1.391 . S
H388 C396 0.950 . S
H389 C401 0.950 . S
H390 C398 0.950 . S
H391 C400 0.950 . S
H392 C402 0.950 . S
H393 C404 0.950 . S
H394 C406 0.950 . S
H395 C407 0.950 . S
C396 H388 0.950 . S
C396 C397 1.386 . S
C396 C398 1.391 . S
C397 C396 1.386 . S
C397 C401 1.393 . S
C398 H390 0.950 . S
C398 C396 1.391 . S
C398 C399 1.400 . S
C399 C398 1.400 . S
C399 C400 1.398 . S
C399 C405 1.491 . S
C400 H391 0.950 . S
C400 C399 1.398 . S
C400 C401 1.391 . S
C401 H389 0.950 . S
C401 C397 1.393 . S
C401 C400 1.391 . S
C402 H392 0.950 . S
C402 C403 1.386 . S
C402 C404 1.391 . S
C403 C402 1.386 . S
C403 C407 1.393 . S
C404 H393 0.950 . S
C404 C402 1.391 . S
C404 C405 1.400 . S
C405 C399 1.491 . S
C405 C404 1.400 . S
C405 C406 1.398 . S
C406 H394 0.950 . S
C406 C405 1.398 . S
C406 C407 1.391 . S
C407 H395 0.950 . S
C407 C403 1.393 . S
C407 C406 1.391 . S
H408 C416 0.950 . S
H409 C421 0.950 . S
H410 C418 0.950 . S
H411 C420 0.950 . S
H412 C422 0.950 . S
H413 C424 0.950 . S
H414 C426 0.950 . S
H415 C427 0.950 . S
C416 H408 0.950 . S
C416 C417 1.386 . S
C416 C418 1.391 . S
C417 C416 1.386 . S
C417 C421 1.393 . S
C418 H410 0.950 . S
C418 C416 1.391 . S
C418 C419 1.400 . S
C419 C418 1.400 . S
C419 C420 1.398 . S
C419 C425 1.491 . S
C420 H411 0.950 . S
C420 C419 1.398 . S
C420 C421 1.391 . S
C421 H409 0.950 . S
C421 C417 1.393 . S
C421 C420 1.391 . S
C422 H412 0.950 . S
C422 C423 1.386 . S
C422 C424 1.391 . S
C423 C422 1.386 . S
C423 C427 1.393 . S
C424 H413 0.950 . S
C424 C422 1.391 . S
C424 C425 1.400 . S
C425 C419 1.491 . S
C425 C424 1.400 . S
C425 C426 1.398 . S
C426 H414 0.950 . S
C426 C425 1.398 . S
C426 C427 1.391 . S
C427 H415 0.950 . S
C427 C423 1.393 . S
C427 C426 1.391 . S
H428 C436 0.950 . S
H429 C441 0.950 . S
H430 C438 0.950 1_455 S
H431 C440 0.950 . S
H432 C442 0.950 . S
H433 C444 0.950 . S
H434 C446 0.950 . S
H435 C447 0.950 . S
C436 H428 0.950 . S
C436 C437 1.386 . S
C436 C438 1.391 . S
C437 C436 1.386 . S
C437 C441 1.393 1_565 S
C438 H430 0.950 1_655 S
C438 C436 1.391 . S
C438 C439 1.400 . S
C439 C438 1.400 . S
C439 C440 1.398 1_565 S
C439 C445 1.491 . S
C440 H431 0.950 . S
C440 C439 1.398 1_545 S
C440 C441 1.391 . S
C441 H429 0.950 . S
C441 C437 1.393 1_545 S
C441 C440 1.391 . S
C442 H432 0.950 . S
C442 C443 1.401 1_655 S
C442 C444 1.391 . S
C443 C442 1.401 1_455 S
C443 C447 1.376 1_545 S
C444 H433 0.950 . S
C444 C442 1.391 . S
C444 C445 1.400 1_545 S
C445 C439 1.491 . S
C445 C444 1.400 1_565 S
C445 C446 1.398 1_655 S
C446 H434 0.950 . S
C446 C445 1.398 1_455 S
C446 C447 1.391 . S
C447 H435 0.950 . S
C447 C443 1.376 1_565 S
C447 C446 1.391 . S
H448 C456 0.950 . S
H449 C461 0.950 . S
H450 C458 0.950 . S
H451 C460 0.950 . S
H452 C462 0.950 . S
H453 C464 0.950 . S
H454 C466 0.950 . S
H455 C467 0.950 . S
C456 H448 0.950 . S
C456 C457 1.386 . S
C456 C458 1.391 . S
C457 C456 1.386 . S
C457 C461 1.393 . S
C458 H450 0.950 . S
C458 C456 1.391 . S
C458 C459 1.400 . S
C459 C458 1.400 . S
C459 C460 1.398 . S
C459 C465 1.491 . S
C460 H451 0.950 . S
C460 C459 1.398 . S
C460 C461 1.391 . S
C461 H449 0.950 . S
C461 C457 1.393 . S
C461 C460 1.391 . S
C462 H452 0.950 . S
C462 C463 1.386 . S
C462 C464 1.391 . S
C463 C462 1.386 . S
C463 C467 1.393 . S
C464 H453 0.950 . S
C464 C462 1.391 . S
C464 C465 1.400 . S
C465 C459 1.491 . S
C465 C464 1.400 . S
C465 C466 1.398 . S
C466 H454 0.950 . S
C466 C465 1.398 . S
C466 C467 1.391 . S
C467 H455 0.950 . S
C467 C463 1.393 . S
C467 C466 1.391 . S
H468 C476 0.950 . S
H469 C481 0.950 . S
H470 C478 0.950 . S
H471 C480 0.950 . S
H472 C482 0.950 . S
H473 C484 0.950 . S
H474 C486 0.950 . S
H475 C487 0.950 . S
C476 H468 0.950 . S
C476 C477 1.386 . S
C476 C478 1.391 . S
C477 C476 1.386 . S
C477 C481 1.393 . S
C478 H470 0.950 . S
C478 C476 1.391 . S
C478 C479 1.400 . S
C479 C478 1.400 . S
C479 C480 1.398 . S
C479 C485 1.491 . S
C480 H471 0.950 . S
C480 C479 1.398 . S
C480 C481 1.391 . S
C481 H469 0.950 . S
C481 C477 1.393 . S
C481 C480 1.391 . S
C482 H472 0.950 . S
C482 C483 1.386 . S
C482 C484 1.391 . S
C483 C482 1.386 . S
C483 C487 1.393 . S
C484 H473 0.950 . S
C484 C482 1.391 . S
C484 C485 1.400 . S
C485 C479 1.491 . S
C485 C484 1.400 . S
C485 C486 1.398 . S
C486 H474 0.950 . S
C486 C485 1.398 . S
C486 C487 1.391 . S
C487 H475 0.950 . S
C487 C483 1.393 . S
C487 C486 1.391 . S
H488 C496 0.950 . S
H489 C501 0.950 . S
H490 C498 0.950 . S
H491 C500 0.950 . S
H492 C502 0.950 . S
H493 C504 0.950 . S
H494 C506 0.950 . S
H495 C507 0.950 . S
C496 H488 0.950 . S
C496 C497 1.386 . S
C496 C498 1.391 . S
C497 C496 1.386 . S
C497 C501 1.393 . S
C498 H490 0.950 . S
C498 C496 1.391 . S
C498 C499 1.400 . S
C499 C498 1.400 . S
C499 C500 1.398 . S
C499 C505 1.491 . S
C500 H491 0.950 . S
C500 C499 1.398 . S
C500 C501 1.391 . S
C501 H489 0.950 . S
C501 C497 1.393 . S
C501 C500 1.391 . S
C502 H492 0.950 . S
C502 C503 1.386 . S
C502 C504 1.391 . S
C503 C502 1.386 . S
C503 C507 1.393 . S
C504 H493 0.950 . S
C504 C502 1.391 . S
C504 C505 1.400 . S
C505 C499 1.491 . S
C505 C504 1.400 . S
C505 C506 1.398 . S
C506 H494 0.950 . S
C506 C505 1.398 . S
C506 C507 1.391 . S
C507 H495 0.950 . S
C507 C503 1.393 . S
C507 C506 1.391 . S
H508 C516 0.950 . S
H509 C521 0.950 1_545 S
H510 C518 0.950 . S
H511 C520 0.950 1_545 S
H512 C522 0.950 . S
H513 C524 0.950 . S
H514 C526 0.950 . S
H515 C527 0.950 1_556 S
C516 H508 0.950 . S
C516 C517 1.386 . S
C516 C518 1.391 . S
C517 C516 1.386 . S
C517 C521 1.393 1_556 S
C518 H510 0.950 . S
C518 C516 1.391 . S
C518 C519 1.400 1_556 S
C519 C518 1.400 1_554 S
C519 C520 1.398 . S
C519 C525 1.491 . S
C520 H511 0.950 1_565 S
C520 C519 1.398 . S
C520 C521 1.391 . S
C521 H509 0.950 1_565 S
C521 C517 1.393 1_554 S
C521 C520 1.391 . S
C522 H512 0.950 . S
C522 C523 1.386 . S
C522 C524 1.391 . S
C523 C522 1.386 . S
C523 C527 1.393 1_545 S
C524 H513 0.950 . S
C524 C522 1.391 . S
C524 C525 1.400 1_545 S
C525 C519 1.491 . S
C525 C524 1.400 1_565 S
C525 C526 1.398 1_554 S
C526 H514 0.950 . S
C526 C525 1.398 1_556 S
C526 C527 1.391 1_556 S
C527 H515 0.950 1_554 S
C527 C523 1.393 1_565 S
C527 C526 1.391 1_554 S
H528 C536 0.950 . S
H529 C541 0.950 . S
H530 C538 0.950 . S
H531 C540 0.950 . S
H532 C542 0.950 . S
H533 C544 0.950 . S
H534 C546 0.950 . S
H535 C547 0.950 . S
C536 H528 0.950 . S
C536 C537 1.386 . S
C536 C538 1.391 . S
C537 C536 1.386 . S
C537 C541 1.393 . S
C538 H530 0.950 . S
C538 C536 1.391 . S
C538 C539 1.400 . S
C539 C538 1.400 . S
C539 C540 1.398 . S
C539 C545 1.491 . S
C540 H531 0.950 . S
C540 C539 1.398 . S
C540 C541 1.391 . S
C541 H529 0.950 . S
C541 C537 1.393 . S
C541 C540 1.391 . S
C542 H532 0.950 . S
C542 C543 1.386 . S
C542 C544 1.391 . S
C543 C542 1.386 . S
C543 C547 1.393 . S
C544 H533 0.950 . S
C544 C542 1.391 . S
C544 C545 1.400 . S
C545 C539 1.491 . S
C545 C544 1.400 . S
C545 C546 1.398 . S
C546 H534 0.950 . S
C546 C545 1.398 . S
C546 C547 1.391 . S
C547 H535 0.950 . S
C547 C543 1.393 . S
C547 C546 1.391 . S
H548 C556 0.950 . S
H549 C561 0.950 . S
H550 C558 0.950 . S
H551 C560 0.950 . S
H552 C562 0.950 . S
H553 C564 0.950 . S
H554 C566 0.950 1_556 S
H555 C567 0.950 1_556 S
C556 H548 0.950 . S
C556 C557 1.386 . S
C556 C558 1.391 . S
C557 C556 1.386 . S
C557 C561 1.393 . S
C558 H550 0.950 . S
C558 C556 1.391 . S
C558 C559 1.400 . S
C559 C558 1.400 . S
C559 C560 1.398 . S
C559 C565 1.491 . S
C560 H551 0.950 . S
C560 C559 1.398 . S
C560 C561 1.391 . S
C561 H549 0.950 . S
C561 C557 1.393 . S
C561 C560 1.391 . S
C562 H552 0.950 . S
C562 C563 1.386 . S
C562 C564 1.391 . S
C563 C562 1.386 . S
C563 C567 1.393 . S
C564 H553 0.950 . S
C564 C562 1.391 . S
C564 C565 1.400 . S
C565 C559 1.491 . S
C565 C564 1.400 . S
C565 C566 1.398 . S
C566 H554 0.950 1_554 S
C566 C565 1.398 . S
C566 C567 1.391 . S
C567 H555 0.950 1_554 S
C567 C563 1.393 . S
C567 C566 1.391 . S
H568 C576 0.950 . S
H569 C581 0.950 . S
H570 C578 0.950 . S
H571 C580 0.950 . S
H572 C582 0.950 . S
H573 C584 0.950 . S
H574 C586 0.950 . S
H575 C587 0.950 . S
C576 H568 0.950 . S
C576 C577 1.386 . S
C576 C578 1.391 . S
C577 C576 1.386 . S
C577 C581 1.393 . S
C578 H570 0.950 . S
C578 C576 1.391 . S
C578 C579 1.400 . S
C579 C578 1.400 . S
C579 C580 1.398 . S
C579 C585 1.491 . S
C580 H571 0.950 . S
C580 C579 1.398 . S
C580 C581 1.391 . S
C581 H569 0.950 . S
C581 C577 1.393 . S
C581 C580 1.391 . S
C582 H572 0.950 . S
C582 C583 1.386 . S
C582 C584 1.391 . S
C583 C582 1.386 . S
C583 C587 1.393 . S
C584 H573 0.950 . S
C584 C582 1.391 . S
C584 C585 1.400 . S
C585 C579 1.491 . S
C585 C584 1.400 . S
C585 C586 1.398 . S
C586 H574 0.950 . S
C586 C585 1.398 . S
C586 C587 1.391 . S
C587 H575 0.950 . S
C587 C583 1.393 . S
C587 C586 1.391 . S
H588 C596 0.950 1_554 S
H589 C601 0.950 . S
H590 C598 0.950 1_554 S
H591 C600 0.950 . S
H592 C602 0.950 . S
H593 C604 0.950 1_455 S
H594 C606 0.950 . S
H595 C607 0.950 . S
C596 H588 0.950 1_556 S
C596 C597 1.386 . S
C596 C598 1.391 . S
C597 C596 1.386 . S
C597 C601 1.393 . S
C598 H590 0.950 1_556 S
C598 C596 1.391 . S
C598 C599 1.400 . S
C599 C598 1.400 . S
C599 C600 1.398 . S
C599 C605 1.491 . S
C600 H591 0.950 . S
C600 C599 1.398 . S
C600 C601 1.391 . S
C601 H589 0.950 . S
C601 C597 1.393 . S
C601 C600 1.391 . S
C602 H592 0.950 . S
C602 C603 1.386 1_455 S
C602 C604 1.391 1_455 S
C603 C602 1.386 1_655 S
C603 C607 1.393 1_556 S
C604 H593 0.950 1_655 S
C604 C602 1.391 1_655 S
C604 C605 1.400 . S
C605 C599 1.491 . S
C605 C604 1.400 . S
C605 C606 1.398 1_556 S
C606 H594 0.950 . S
C606 C605 1.398 1_554 S
C606 C607 1.391 . S
C607 H595 0.950 . S
C607 C603 1.393 1_554 S
C607 C606 1.391 . S
H608 C616 0.950 . S
H609 C621 0.950 . S
H610 C618 0.950 . S
H611 C620 0.950 . S
H612 C622 0.950 . S
H613 C624 0.950 . S
H614 C626 0.950 . S
H615 C627 0.950 . S
C616 H608 0.950 . S
C616 C617 1.386 . S
C616 C618 1.391 . S
C617 C616 1.386 . S
C617 C621 1.393 . S
C618 H610 0.950 . S
C618 C616 1.391 . S
C618 C619 1.400 . S
C619 C618 1.400 . S
C619 C620 1.398 . S
C619 C625 1.491 . S
C620 H611 0.950 . S
C620 C619 1.398 . S
C620 C621 1.391 . S
C621 H609 0.950 . S
C621 C617 1.393 . S
C621 C620 1.391 . S
C622 H612 0.950 . S
C622 C623 1.386 . S
C622 C624 1.391 . S
C623 C622 1.386 . S
C623 C627 1.393 . S
C624 H613 0.950 . S
C624 C622 1.391 . S
C624 C625 1.400 . S
C625 C619 1.491 . S
C625 C624 1.400 . S
C625 C626 1.398 . S
C626 H614 0.950 . S
C626 C625 1.398 . S
C626 C627 1.391 . S
C627 H615 0.950 . S
C627 C623 1.393 . S
C627 C626 1.391 . S
H628 C636 0.950 . S
H629 C641 0.950 . S
H630 C638 0.950 . S
H631 C640 0.950 . S
H632 C642 0.950 1_655 S
H633 C644 0.950 . S
H634 C646 0.950 . S
H635 C647 0.950 . S
C636 H628 0.950 . S
C636 C637 1.386 . S
C636 C638 1.391 . S
C637 C636 1.386 . S
C637 C641 1.393 . S
C638 H630 0.950 . S
C638 C636 1.391 . S
C638 C639 1.400 . S
C639 C638 1.400 . S
C639 C640 1.398 . S
C639 C645 1.491 . S
C640 H631 0.950 . S
C640 C639 1.398 . S
C640 C641 1.391 . S
C641 H629 0.950 . S
C641 C637 1.393 . S
C641 C640 1.391 . S
C642 H632 0.950 1_455 S
C642 C643 1.386 . S
C642 C644 1.391 . S
C643 C642 1.386 . S
C643 C647 1.393 . S
C644 H633 0.950 . S
C644 C642 1.391 . S
C644 C645 1.400 . S
C645 C639 1.491 . S
C645 C644 1.400 . S
C645 C646 1.398 . S
C646 H634 0.950 . S
C646 C645 1.398 . S
C646 C647 1.391 . S
C647 H635 0.950 . S
C647 C643 1.393 . S
C647 C646 1.391 . S
H648 C656 0.950 . S
H649 C661 0.950 . S
H650 C658 0.950 . S
H651 C660 0.950 . S
H652 C662 0.950 . S
H653 C664 0.950 . S
H654 C666 0.950 . S
H655 C667 0.950 . S
C656 H648 0.950 . S
C656 C657 1.386 . S
C656 C658 1.391 . S
C657 C656 1.386 . S
C657 C661 1.393 . S
C658 H650 0.950 . S
C658 C656 1.391 . S
C658 C659 1.400 . S
C659 C658 1.400 . S
C659 C660 1.398 . S
C659 C665 1.491 . S
C660 H651 0.950 . S
C660 C659 1.398 . S
C660 C661 1.391 . S
C661 H649 0.950 . S
C661 C657 1.393 . S
C661 C660 1.391 . S
C662 H652 0.950 . S
C662 C663 1.386 . S
C662 C664 1.391 . S
C663 C662 1.386 . S
C663 C667 1.393 . S
C664 H653 0.950 . S
C664 C662 1.391 . S
C664 C665 1.400 . S
C665 C659 1.491 . S
C665 C664 1.400 . S
C665 C666 1.398 . S
C666 H654 0.950 . S
C666 C665 1.398 . S
C666 C667 1.391 . S
C667 H655 0.950 . S
C667 C663 1.393 . S
C667 C666 1.391 . S
C197 N1 1.496 . S
C203 C107 1.435 . S
C217 N18 1.833 . S
C223 C141 1.742 1_565 S
C243 C153 0.999 . S
C237 N28 1.095 . S
C257 N40 1.630 . S
C263 C187 1.556 . S
C283 C144 1.702 . S
C277 N5 1.855 . S
C303 C124 1.480 . S
C297 N14 1.549 . S
C323 C171 1.382 . S
C317 N31 1.480 . S
C343 C162 1.123 . S
C337 N41 1.187 . S
C357 N2 1.447 . S
C363 C170 1.391 . S
C383 C132 1.448 1_556 S
C377 N27 1.587 . S
C397 N44 1.624 . S
C403 C108 1.534 1_655 S
C417 N15 1.379 . S
C423 C165 1.275 . S
C443 C123 1.684 . S
C437 N57 1.813 . S
C457 N70 1.341 . S
C463 C145 1.280 . S
C477 N79 1.448 . S
C483 C150 1.415 . S
C497 N93 1.403 . S
C503 C183 1.359 . S
C517 N54 1.520 . S
C523 C128 1.468 1_545 S
C543 C120 1.881 . S
C537 N66 1.973 . S
C563 C174 1.050 . S
C557 N80 1.121 . S
C583 C166 1.459 . S
C577 N96 1.519 . S
C597 N53 1.543 . S
C603 C186 1.458 1_655 S
C623 C129 1.482 . S
C617 N83 1.531 . S
C643 C111 1.574 . S
C637 N92 1.673 . S
C657 N67 1.497 . S
C663 C149 1.478 . S
