# Generated by pormake.
# Topology zzz, (3,6)-cn, num edge types: 1
# Building blocks:
#     Node 0, Type 0, BuildingBlock: BELTOD_clean_linker_0, # of connection points: 3
#     Node 1, Type 0, BuildingBlock: BELTOD_clean_linker_0, # of connection points: 3
#     Node 2, Type 0, BuildingBlock: BELTOD_clean_linker_0, # of connection points: 3
#     Node 3, Type 0, BuildingBlock: BELTOD_clean_linker_0, # of connection points: 3
#     Node 4, Type 0, BuildingBlock: BELTOD_clean_linker_0, # of connection points: 3
#     Node 5, Type 0, BuildingBlock: BELTOD_clean_linker_0, # of connection points: 3
#     Node 6, Type 0, BuildingBlock: BELTOD_clean_linker_0, # of connection points: 3
#     Node 7, Type 0, BuildingBlock: BELTOD_clean_linker_0, # of connection points: 3
#     Node 8, Type 1, BuildingBlock: KUMBUR_clean_sbu_1, # of connection points: 6
#     Node 9, Type 1, BuildingBlock: KUMBUR_clean_sbu_1, # of connection points: 6
#     Node 10, Type 1, BuildingBlock: KUMBUR_clean_sbu_1, # of connection points: 6
#     Node 11, Type 1, BuildingBlock: KUMBUR_clean_sbu_1, # of connection points: 6
#     Edge 12, Type (0, 1), BuildingBlock: XUDNAN_clean_linker_2, # of connection points: 2
#     Edge 13, Type (0, 1), BuildingBlock: XUDNAN_clean_linker_2, # of connection points: 2
#     Edge 14, Type (0, 1), BuildingBlock: XUDNAN_clean_linker_2, # of connection points: 2
#     Edge 15, Type (0, 1), BuildingBlock: XUDNAN_clean_linker_2, # of connection points: 2
#     Edge 16, Type (0, 1), BuildingBlock: XUDNAN_clean_linker_2, # of connection points: 2
#     Edge 17, Type (0, 1), BuildingBlock: XUDNAN_clean_linker_2, # of connection points: 2
#     Edge 18, Type (0, 1), BuildingBlock: XUDNAN_clean_linker_2, # of connection points: 2
#     Edge 19, Type (0, 1), BuildingBlock: XUDNAN_clean_linker_2, # of connection points: 2
#     Edge 20, Type (0, 1), BuildingBlock: XUDNAN_clean_linker_2, # of connection points: 2
#     Edge 21, Type (0, 1), BuildingBlock: XUDNAN_clean_linker_2, # of connection points: 2
#     Edge 22, Type (0, 1), BuildingBlock: XUDNAN_clean_linker_2, # of connection points: 2
#     Edge 23, Type (0, 1), BuildingBlock: XUDNAN_clean_linker_2, # of connection points: 2
#     Edge 24, Type (0, 1), BuildingBlock: XUDNAN_clean_linker_2, # of connection points: 2
#     Edge 25, Type (0, 1), BuildingBlock: XUDNAN_clean_linker_2, # of connection points: 2
#     Edge 26, Type (0, 1), BuildingBlock: XUDNAN_clean_linker_2, # of connection points: 2
#     Edge 27, Type (0, 1), BuildingBlock: XUDNAN_clean_linker_2, # of connection points: 2
#     Edge 28, Type (0, 1), BuildingBlock: XUDNAN_clean_linker_2, # of connection points: 2
#     Edge 29, Type (0, 1), BuildingBlock: XUDNAN_clean_linker_2, # of connection points: 2
#     Edge 30, Type (0, 1), BuildingBlock: XUDNAN_clean_linker_2, # of connection points: 2
#     Edge 31, Type (0, 1), BuildingBlock: XUDNAN_clean_linker_2, # of connection points: 2
#     Edge 32, Type (0, 1), BuildingBlock: XUDNAN_clean_linker_2, # of connection points: 2
#     Edge 33, Type (0, 1), BuildingBlock: XUDNAN_clean_linker_2, # of connection points: 2
#     Edge 34, Type (0, 1), BuildingBlock: XUDNAN_clean_linker_2, # of connection points: 2
#     Edge 35, Type (0, 1), BuildingBlock: XUDNAN_clean_linker_2, # of connection points: 2
# Relax obj value: 0.301
# Max RMSD: 0.192
# Mean RMSD: 0.171
data_MOF--net-zzz--node1-KUMBUR_clean_sbu_1--node2-BELTOD_clean_linker_0--edge1-XUDNAN_clean_linker_2
_symmetry_space_group_name_H-M    P1
_symmetry_Int_Tables_number       1
_symmetry_cell_setting            triclinic
loop_
_symmetry_equiv_pos_as_xyz
'x, y, z'
_cell_length_a     53.181074
_cell_length_b     53.417978
_cell_length_c     19.660825
_cell_angle_alpha  89.96476
_cell_angle_beta   89.987856
_cell_angle_gamma 90.450611
loop_
_atom_site_label
_atom_site_type_symbol
_atom_site_fract_x
_atom_site_fract_y
_atom_site_fract_z
_atom_type_partial_charge
P0 P 0.73702 0.50594 0.24026 0.0
H1 H 0.76345 0.48119 0.34995 0.0
H2 H 0.80107 0.49076 0.41478 0.0
H3 H 0.80545 0.56343 0.31893 0.0
H4 H 0.76688 0.55372 0.2544 0.0
H5 H 0.68206 0.50415 0.2502 0.0
H6 H 0.64968 0.51759 0.17098 0.0
H7 H 0.70438 0.56245 0.06325 0.0
H8 H 0.73732 0.54818 0.14194 0.0
H9 H 0.78762 0.51171 0.18047 0.0
H10 H 0.71869 0.47173 0.13628 0.0
O11 O 0.72255 0.48235 0.28046 0.0
H12 H 0.80597 0.49632 0.07604 0.0
H13 H 0.73687 0.45677 0.0294 0.0
C14 C 0.76166 0.51694 0.29816 0.0
C15 C 0.77196 0.49953 0.34385 0.0
C16 C 0.79397 0.50486 0.38033 0.0
C17 C 0.8068 0.52777 0.37197 0.0
C18 C 0.79612 0.54562 0.32742 0.0
C19 C 0.77388 0.5402 0.29065 0.0
C20 C 0.71239 0.52524 0.20309 0.0
C21 C 0.6872 0.51753 0.21118 0.0
C22 C 0.66858 0.52499 0.16507 0.0
C23 C 0.67445 0.54076 0.11003 0.0
C24 C 0.6992 0.55027 0.10511 0.0
C25 C 0.71803 0.5424 0.15079 0.0
C26 C 0.75187 0.49255 0.1669 0.0
C27 C 0.77641 0.49947 0.14875 0.0
C28 C 0.78682 0.4909 0.08821 0.0
C29 C 0.77274 0.47559 0.04397 0.0
C30 C 0.74823 0.46842 0.06263 0.0
C31 C 0.73786 0.47691 0.12364 0.0
P32 P 0.99456 0.76543 0.17484 0.0
H33 H 0.03909 0.77601 0.25703 0.0
H34 H 0.0472 0.8091 0.33956 0.0
H35 H 0.96746 0.82246 0.35567 0.0
H36 H 0.95944 0.78807 0.27616 0.0
H37 H 0.03523 0.7354 0.1166 0.0
H38 H 0.03525 0.69388 0.06675 0.0
H39 H 0.96172 0.67953 0.15269 0.0
H40 H 0.96249 0.721 0.20543 0.0
H41 H 0.97061 0.81412 0.16865 0.0
H42 H 0.95767 0.74101 0.08125 0.0
O43 O 0.01709 0.77874 0.12762 0.0
H44 H 0.94006 0.83161 0.09217 0.0
H45 H 0.92675 0.75851 1.00505 0.0
C46 C 0.99871 0.77993 0.25823 0.0
C47 C 0.02323 0.78524 0.28043 0.0
C48 C 0.02786 0.80464 0.32695 0.0
C49 C 0.00808 0.81948 0.35212 0.0
C50 C 0.98327 0.81188 0.3368 0.0
C51 C 0.97865 0.79208 0.29096 0.0
C52 C 0.99857 0.73177 0.16381 0.0
C53 C 0.01935 0.72316 0.12664 0.0
C54 C 0.01915 0.69934 0.09683 0.0
C55 C 0.99805 0.68339 0.10279 0.0
C56 C 0.97833 0.6911 0.1461 0.0
C57 C 0.97878 0.7149 0.17703 0.0
C58 C 0.96606 0.77591 0.13371 0.0
C59 C 0.96009 0.8014 0.13641 0.0
C60 C 0.94238 0.81148 0.09218 0.0
C61 C 0.93074 0.79643 0.04242 0.0
C62 C 0.93521 0.77055 0.04316 0.0
C63 C 0.95299 0.76047 0.08756 0.0
P64 P 0.76878 0.01131 0.17401 0.0
H65 H 0.73314 0.04733 0.22754 0.0
H66 H 0.70128 0.04379 0.31457 0.0
H67 H 0.73684 0.97697 0.39076 0.0
H68 H 0.76872 0.98041 0.30104 0.0
H69 H 0.81835 0.0246 0.23657 0.0
H70 H 0.86094 0.02389 0.18898 0.0
H71 H 0.83217 0.98505 0.01184 0.0
H72 H 0.79116 0.98428 0.06142 0.0
H73 H 0.73289 0.01367 0.06191 0.0
H74 H 0.76235 0.95734 0.19686 0.0
O75 O 0.76434 0.03846 0.13385 0.0
H76 H 0.7036 0.9833 0.01504 0.0
H77 H 0.73223 0.92662 0.15085 0.0
C78 C 0.75378 0.01425 0.25717 0.0
C79 C 0.7349 0.03238 0.26435 0.0
C80 C 0.71631 0.03026 0.31466 0.0
C81 C 0.71584 0.00982 0.35984 0.0
C82 C 0.73599 0.99269 0.35612 0.0
C83 C 0.75464 0.99484 0.30531 0.0
C84 C 0.80135 1.00377 0.15432 0.0
C85 C 0.82158 0.01491 0.18904 0.0
C86 C 0.84597 0.01498 0.16049 0.0
C87 C 0.85059 1.00466 0.0952 0.0
C88 C 0.83025 0.99274 0.06238 0.0
C89 C 0.80626 0.99225 0.09144 0.0
C90 C 0.74949 0.98788 0.1336 0.0
C91 C 0.73333 0.99465 0.08083 0.0
C92 C 0.71674 0.9771 0.0535 0.0
C93 C 0.71583 0.95244 0.07882 0.0
C94 C 0.73268 0.94542 0.13021 0.0
C95 C 0.74964 0.96301 0.15685 0.0
P96 P 0.50158 0.79113 0.24395 0.0
H97 H 0.47663 0.76338 0.35326 0.0
H98 H 0.48756 0.72558 0.41451 0.0
H99 H 0.563 0.73028 0.33449 0.0
H100 H 0.55192 0.76886 0.27323 0.0
H101 H 0.48946 0.84314 0.27577 0.0
H102 H 0.49646 0.88097 0.21138 0.0
H103 H 0.55328 0.84361 0.09214 0.0
H104 H 0.54488 0.80495 0.15551 0.0
H105 H 0.52046 0.74246 0.19217 0.0
H106 H 0.47654 0.80447 0.11812 0.0
O107 O 0.47222 0.79804 0.26704 0.0
H108 H 0.51919 0.72343 0.08095 0.0
H109 H 0.47518 0.78507 1.00519 0.0
C110 C 0.51342 0.76937 0.30826 0.0
C111 C 0.49589 0.75706 0.35059 0.0
C112 C 0.50214 0.73514 0.38585 0.0
C113 C 0.52607 0.72447 0.37905 0.0
C114 C 0.54425 0.73774 0.34045 0.0
C115 C 0.53807 0.76009 0.30609 0.0
C116 C 0.5165 0.82086 0.22096 0.0
C117 C 0.50409 0.84313 0.23746 0.0
C118 C 0.50818 0.86509 0.19977 0.0
C119 C 0.52527 0.86578 0.14474 0.0
C120 C 0.53947 0.84398 0.13252 0.0
C121 C 0.53512 0.82184 0.1701 0.0
C122 C 0.49864 0.77506 0.16392 0.0
C123 C 0.5106 0.75217 0.15239 0.0
C124 C 0.51005 0.74129 0.08816 0.0
C125 C 0.49749 0.75303 0.03422 0.0
C126 C 0.48508 0.77571 0.04595 0.0
C127 C 0.48574 0.78668 0.11038 0.0
P128 P 0.27673 0.46357 0.10681 0.0
H129 H 0.27927 0.4808 0.96409 0.0
H130 H 0.24646 0.49244 0.88319 0.0
H131 H 0.19218 0.49299 0.04687 0.0
H132 H 0.22507 0.48324 0.12686 0.0
H133 H 0.32321 0.43842 0.14071 0.0
H134 H 0.36053 0.45075 0.20401 0.0
H135 H 0.33392 0.52691 0.21012 0.0
H136 H 0.29664 0.51433 0.14426 0.0
H137 H 0.24388 0.4212 0.14355 0.0
H138 H 0.27143 0.48906 0.23729 0.0
O139 O 0.28241 0.43699 0.06512 0.0
H140 H 0.21607 0.414 0.24122 0.0
H141 H 0.24402 0.48219 0.33343 0.0
C142 C 0.25508 0.48103 0.05226 0.0
C143 C 0.26051 0.4844 0.98295 0.0
C144 C 0.24139 0.49055 0.93625 0.0
C145 C 0.21606 0.49308 0.95722 0.0
C146 C 0.21115 0.49139 0.02756 0.0
C147 C 0.23031 0.48563 0.07413 0.0
C148 C 0.30718 0.4755 0.13581 0.0
C149 C 0.32568 0.458 0.15352 0.0
C150 C 0.34695 0.46501 0.19131 0.0
C151 C 0.35038 0.48982 0.21363 0.0
C152 C 0.33224 0.50764 0.19365 0.0
C153 C 0.31088 0.50055 0.15535 0.0
C154 C 0.26013 0.45542 0.18361 0.0
C155 C 0.24455 0.43412 0.18593 0.0
C156 C 0.22862 0.43006 0.24162 0.0
C157 C 0.22801 0.44734 0.29554 0.0
C158 C 0.24448 0.46806 0.29397 0.0
C159 C 0.26021 0.47212 0.23845 0.0
P160 P 0.07032 0.28875 0.09179 0.0
H161 H 0.08364 0.27252 0.95316 0.0
H162 H 0.07013 0.23544 0.8896 0.0
H163 H 0.00771 0.22574 0.02718 0.0
H164 H 0.02096 0.26312 0.08997 0.0
H165 H 0.09504 0.32338 0.18172 0.0
H166 H 0.08153 0.35957 0.24545 0.0
H167 H 0.01045 0.3578 0.13823 0.0
H168 H 0.0239 0.32001 0.07781 0.0
H169 H 0.10097 0.24577 0.13077 0.0
H170 H 0.03737 0.28591 0.21047 0.0
O171 O 0.10013 0.29202 0.06656 0.0
H172 H 0.09618 0.21447 0.22112 0.0
H173 H 0.03224 0.25481 0.29938 0.0
C174 C 0.05349 0.27075 0.02714 0.0
C175 C 0.06631 0.26326 0.96793 0.0
C176 C 0.0586 0.24189 0.93139 0.0
C177 C 0.03806 0.22736 0.95378 0.0
C178 C 0.02373 0.23641 0.00876 0.0
C179 C 0.03122 0.25798 0.04458 0.0
C180 C 0.06067 0.31909 0.1241 0.0
C181 C 0.07669 0.33107 0.17081 0.0
C182 C 0.06887 0.35206 0.20742 0.0
C183 C 0.04472 0.36211 0.19803 0.0
C184 C 0.029 0.35058 0.14862 0.0
C185 C 0.03676 0.3291 0.1128 0.0
C186 C 0.06989 0.26844 0.16477 0.0
C187 C 0.08641 0.2482 0.16868 0.0
C188 C 0.08355 0.23026 0.22001 0.0
C189 C 0.06392 0.23222 0.26769 0.0
C190 C 0.04793 0.25302 0.26464 0.0
C191 C 0.05082 0.27085 0.21347 0.0
P192 P 0.25473 0.07648 0.10085 0.0
H193 H 0.24846 0.05856 0.96013 0.0
H194 H 0.2795 0.04428 0.87839 0.0
H195 H 0.33353 0.0364 0.04165 0.0
H196 H 0.30149 0.04743 0.12263 0.0
H197 H 0.20369 0.09619 0.10038 0.0
H198 H 0.16796 0.09062 0.17503 0.0
H199 H 0.20637 0.03082 0.27902 0.0
H200 H 0.24203 0.03558 0.20003 0.0
H201 H 0.29709 0.10954 0.07794 0.0
H202 H 0.26411 0.07124 0.24999 0.0
O203 O 0.24674 0.09989 0.04903 0.0
H204 H 0.33672 0.11339 0.13969 0.0
H205 H 0.30359 0.07533 0.31159 0.0
C206 C 0.27258 0.0549 0.0478 0.0
C207 C 0.26665 0.05263 0.97859 0.0
C208 C 0.28495 0.04513 0.93129 0.0
C209 C 0.31004 0.04045 0.95153 0.0
C210 C 0.31492 0.04004 0.02216 0.0
C211 C 0.29631 0.04658 0.06947 0.0
C212 C 0.22603 0.06664 0.14487 0.0
C213 C 0.20445 0.0814 0.13792 0.0
C214 C 0.18393 0.07842 0.18177 0.0
C215 C 0.18443 0.06091 0.2353 0.0
C216 C 0.20525 0.04469 0.239 0.0
C217 C 0.22575 0.04741 0.19379 0.0
C218 C 0.27764 0.08969 0.15855 0.0
C219 C 0.29786 0.10312 0.13017 0.0
C220 C 0.32058 0.10521 0.16525 0.0
C221 C 0.32315 0.09438 0.22982 0.0
C222 C 0.30197 0.08386 0.26178 0.0
C223 C 0.27934 0.08138 0.22615 0.0
P224 P 0.45724 0.24425 0.08191 0.0
H225 H 0.44023 0.2731 0.96501 0.0
H226 H 0.45348 0.31241 0.91522 0.0
H227 H 0.52035 0.31159 0.04066 0.0
H228 H 0.50553 0.27291 0.09417 0.0
H229 H 0.45854 0.19015 0.05662 0.0
H230 H 0.47256 0.15536 0.12617 0.0
H231 H 0.51036 0.20694 0.26135 0.0
H232 H 0.49628 0.24209 0.19041 0.0
H233 H 0.42966 0.29169 0.09481 0.0
H234 H 0.44473 0.22776 0.22195 0.0
O235 O 0.43542 0.2311 0.03215 0.0
H236 H 0.41675 0.31528 0.19412 0.0
H237 H 0.4353 0.25192 0.32168 0.0
C238 C 0.472 0.26953 0.03295 0.0
C239 C 0.45808 0.28102 0.98091 0.0
C240 C 0.46582 0.30385 0.95205 0.0
C241 C 0.4881 0.31601 0.97337 0.0
C242 C 0.50271 0.30365 0.02339 0.0
C243 C 0.49455 0.28101 0.05351 0.0
C244 C 0.47628 0.21902 0.11759 0.0
C245 C 0.47057 0.19416 0.09971 0.0
C246 C 0.47852 0.17409 0.14017 0.0
C247 C 0.49231 0.17819 0.20037 0.0
C248 C 0.49946 0.20302 0.21603 0.0
C249 C 0.49185 0.22316 0.17454 0.0
C250 C 0.44065 0.25875 0.1515 0.0
C251 C 0.43053 0.28273 0.14406 0.0
C252 C 0.42319 0.29629 0.20132 0.0
C253 C 0.42674 0.28636 0.26705 0.0
C254 C 0.43294 0.26085 0.27276 0.0
C255 C 0.43921 0.24703 0.21519 0.0
Tb256 Tb 0.99577 0.02952 0.62514 0.0
C257 C 0.10968 0.01413 0.75597 0.0
N258 N 0.09476 1.00147 0.71206 0.0
C259 C 0.13102 0.99032 0.64618 0.0
C260 C 0.1358 0.01641 0.74564 0.0
C261 C 0.10518 0.98853 0.65926 0.0
C262 C 0.14634 1.00479 0.68874 0.0
C263 C 0.11362 0.03365 0.86609 0.0
C264 C 0.09889 0.02244 0.8148 0.0
C265 C 0.13944 0.0377 0.85458 0.0
C266 C 0.15055 0.02904 0.7943 0.0
Tb267 Tb 0.05233 1.00149 0.73342 0.0
N268 N 0.07425 0.01723 0.8242 0.0
C269 C 0.10215 0.03932 0.92821 0.0
C270 C 0.06337 0.02106 0.88621 0.0
C271 C 0.07699 0.03259 0.93869 0.0
H272 H 0.09347 0.97711 0.62648 0.0
H273 H 0.06809 0.03619 0.98719 0.0
H274 H 0.94863 0.99015 0.64667 0.0
H275 H 0.03049 0.07019 0.38839 0.0
H276 H 0.044 0.01574 0.89495 0.0
H277 H 0.11275 0.04799 0.96908 0.0
H278 H 0.02003 0.07057 0.50992 0.0
H279 H 0.13913 0.98033 0.6038 0.0
H280 H 0.1511 0.04656 0.89295 0.0
H281 H 0.17063 0.03131 0.78707 0.0
H282 H 0.92699 0.95699 0.58015 0.0
H283 H 0.16637 0.00596 0.67892 0.0
H284 H 0.01808 0.03409 0.31675 0.0
N285 N 0.97274 1.00086 0.56525 0.0
C286 C 0.97854 0.99801 0.49876 0.0
C287 C 0.94158 0.9683 0.55673 0.0
C288 C 0.96683 0.97941 0.45881 0.0
C289 C 0.95378 0.98708 0.59414 0.0
C290 C 0.9484 0.96419 0.48899 0.0
N291 N 1.00363 0.03395 0.50997 0.0
C292 C 0.01484 0.05438 0.48017 0.0
C293 C 0.99987 0.01434 0.39965 0.0
C294 C 0.99483 0.01511 0.47005 0.0
C295 C 0.01375 0.03395 0.37061 0.0
C296 C 0.02072 0.05436 0.41081 0.0
H297 H 0.93881 0.94978 0.45994 0.0
H298 H 0.96478 0.96287 0.35828 0.0
H299 H 0.99373 0.99362 0.30619 0.0
O300 O 0.96408 0.04754 0.58551 0.0
O301 O 1.0031 0.98908 0.63361 0.0
O302 O 0.04546 0.98738 0.63047 0.0
O303 O 0.97269 0.05024 0.69162 0.0
O304 O 0.03373 0.04496 0.60197 0.0
O305 O 0.06253 0.01446 0.63082 0.0
O306 O 0.02795 0.97088 0.74691 0.0
O307 O 0.04072 0.03941 0.76417 0.0
O308 O 0.01934 0.05885 0.67495 0.0
O309 O 0.06688 0.96931 0.78227 0.0
O310 O 0.01899 0.015 0.78879 0.0
O311 O 0.98822 1.00517 0.71281 0.0
C312 C 0.02363 0.97925 0.60874 0.0
C313 C 0.95751 0.08619 0.63722 0.0
C314 C 0.97329 0.12457 0.58448 0.0
C315 C 0.95327 0.13779 0.61387 0.0
C316 C 0.93755 0.09945 0.66592 0.0
C317 C 0.93572 0.12529 0.65515 0.0
C318 C 0.97577 0.09904 0.59946 0.0
C319 C 0.05576 0.03403 0.59474 0.0
C320 C 0.95899 0.05882 0.64234 0.0
C321 C 0.97322 0.97731 0.38974 0.0
C322 C 0.98975 0.99478 0.36015 0.0
C323 C 0.0309 0.05946 0.73476 0.0
C324 C 0.04074 0.93178 0.79714 0.0
C325 C 0.01194 0.89629 0.80783 0.0
C326 C 0.03192 0.88171 0.8325 0.0
C327 C 0.0604 0.91703 0.82204 0.0
C328 C 0.01657 0.9213 0.78999 0.0
C329 C 0.05596 0.89206 0.83945 0.0
C330 C 0.99517 0.01072 0.77489 0.0
C331 C 0.04556 0.95749 0.77406 0.0
H332 H 0.95073 0.15752 0.60349 0.0
H333 H 0.92332 0.08983 0.69573 0.0
H334 H 0.92023 0.13553 0.67712 0.0
H335 H 0.99159 0.08879 0.57976 0.0
H336 H 0.02884 0.86249 0.84824 0.0
H337 H 0.07923 0.92467 0.82725 0.0
H338 H 1.00132 0.93252 0.77024 0.0
H339 H 0.07117 0.88073 0.85876 0.0
Tb340 Tb 0.52635 0.0471 0.72587 0.0
C341 C 0.47416 0.94433 0.67579 0.0
N342 N 0.49734 0.95089 0.65336 0.0
C343 C 0.5127 0.91007 0.68097 0.0
C344 C 0.46955 0.92079 0.70569 0.0
C345 C 0.51632 0.93382 0.65239 0.0
C346 C 0.48934 0.90372 0.70916 0.0
C347 C 0.42958 0.95256 0.67393 0.0
C348 C 0.45456 0.95986 0.65959 0.0
C349 C 0.42501 0.93042 0.71075 0.0
C350 C 0.44502 0.91443 0.72631 0.0
Tb351 Tb 0.50194 0.99003 0.60885 0.0
N352 N 0.45985 0.98021 0.62084 0.0
C353 C 0.41001 0.96658 0.64608 0.0
C354 C 0.4408 0.99184 0.58639 0.0
C355 C 0.41566 0.98583 0.60034 0.0
H356 H 0.53439 0.93891 0.63095 0.0
H357 H 0.40069 0.99598 0.5756 0.0
H358 H 0.48958 0.04762 0.86247 0.0
H359 H 0.57187 0.12454 0.59854 0.0
H360 H 0.44495 0.00668 0.55059 0.0
H361 H 0.39054 0.96169 0.656 0.0
H362 H 0.56702 0.08062 0.63684 0.0
H363 H 0.52791 0.89674 0.68154 0.0
H364 H 0.40599 0.92469 0.7234 0.0
H365 H 0.44113 0.89664 0.75076 0.0
H366 H 0.46058 0.07706 0.91842 0.0
H367 H 0.48649 0.88525 0.73075 0.0
H368 H 0.54151 0.15654 0.6366 0.0
N369 N 0.50101 0.07363 0.78616 0.0
C370 C 0.50044 0.09774 0.76511 0.0
C371 C 0.47151 0.08309 0.87485 0.0
C372 C 0.4847 0.11543 0.79635 0.0
C373 C 0.48785 0.06642 0.84274 0.0
C374 C 0.46959 0.10763 0.8508 0.0
N375 N 0.5336 0.08758 0.69292 0.0
C376 C 0.55361 0.09446 0.6532 0.0
C377 C 0.51967 0.13035 0.69703 0.0
C378 C 0.51754 0.10505 0.71655 0.0
C379 C 0.53916 0.13728 0.65284 0.0
C380 C 0.55639 0.11929 0.63147 0.0
H381 H 0.45719 0.12061 0.87626 0.0
H382 H 0.47334 0.15434 0.79698 0.0
H383 H 0.50406 0.16744 0.70967 0.0
O384 O 0.5579 0.02766 0.76182 0.0
O385 O 0.519 0.05893 0.6201 0.0
O386 O 0.50041 0.0265 0.55649 0.0
O387 O 0.54761 0.06328 0.80452 0.0
O388 O 0.55021 0.03543 0.64014 0.0
O389 O 0.54112 0.99383 0.64199 0.0
O390 O 0.49222 0.9657 0.52845 0.0
O391 O 0.51988 0.98017 0.70772 0.0
O392 O 0.50889 0.0138 0.773 0.0
O393 O 0.52555 0.9881 0.52315 0.0
O394 O 0.47623 0.02106 0.63537 0.0
O395 O 0.48847 0.03197 0.74229 0.0
C396 C 0.50893 0.04975 0.56379 0.0
C397 C 0.56122 0.03198 0.88116 0.0
C398 C 0.57185 0.99684 0.95591 0.0
C399 C 0.56279 0.01075 0.01165 0.0
C400 C 0.55228 0.04531 0.93765 0.0
C401 C 0.5528 0.03457 1.00223 0.0
C402 C 0.57028 0.00759 0.89052 0.0
C403 C 0.55581 0.01241 0.62281 0.0
C404 C 0.56096 0.04316 0.81232 0.0
C405 C 0.48549 0.14047 0.77424 0.0
C406 C 0.50298 0.14793 0.72457 0.0
C407 C 0.51621 0.99038 0.76801 0.0
C408 C 0.50381 0.98217 0.42167 0.0
C409 C 0.47862 0.0095 0.34943 0.0
C410 C 0.49452 1.00382 0.29435 0.0
C411 C 0.51934 0.97666 0.36625 0.0
C412 C 0.48328 0.99817 0.41274 0.0
C413 C 0.51457 0.98732 0.30272 0.0
C414 C 0.47074 0.02873 0.69702 0.0
C415 C 0.51056 0.97334 0.48997 0.0
H416 H 0.56412 1.00383 0.06318 0.0
H417 H 0.54491 0.06404 0.93215 0.0
H418 H 0.54601 0.04503 0.04556 0.0
H419 H 0.57616 0.99711 0.84633 0.0
H420 H 0.49183 0.01245 0.24508 0.0
H421 H 0.53542 0.96455 0.37248 0.0
H422 H 0.47129 1.00212 0.45571 0.0
H423 H 0.52675 0.98319 0.26012 0.0
Tb424 Tb 0.5423 0.49813 0.60995 0.0
C425 C 0.46214 0.4887 0.80682 0.0
N426 N 0.46156 0.49599 0.74056 0.0
C427 C 0.4294 0.46548 0.71704 0.0
C428 C 0.4474 0.46838 0.82983 0.0
C429 C 0.44462 0.48555 0.6963 0.0
C430 C 0.431 0.45666 0.78385 0.0
C431 C 0.48 0.4937 0.91939 0.0
C432 C 0.47829 0.50124 0.8508 0.0
C433 C 0.46588 0.47299 0.94225 0.0
C434 C 0.44958 0.46039 0.89762 0.0
Tb435 Tb 0.48695 0.52912 0.71267 0.0
N436 N 0.49196 0.521 0.82662 0.0
C437 C 0.49561 0.50738 0.96317 0.0
C438 C 0.50554 0.5356 0.87069 0.0
C439 C 0.5081 0.52866 0.93893 0.0
H440 H 0.44337 0.49237 0.64467 0.0
H441 H 0.5194 0.53998 0.97306 0.0
H442 H 0.59269 0.49476 0.71043 0.0
H443 H 0.53607 0.51514 0.34035 0.0
H444 H 0.5141 0.55295 0.8543 0.0
H445 H 0.49752 0.50215 0.01616 0.0
H446 H 0.52151 0.49938 0.45176 0.0
H447 H 0.41647 0.4568 0.68148 0.0
H448 H 0.46717 0.46677 0.99459 0.0
H449 H 0.43865 0.4446 0.91613 0.0
H450 H 0.63628 0.51079 0.71002 0.0
H451 H 0.41932 0.44099 0.7996 0.0
H452 H 0.57813 0.53502 0.32984 0.0
N453 N 0.58389 0.50967 0.61277 0.0
C454 C 0.59318 0.52044 0.55553 0.0
C455 C 0.62427 0.51391 0.66643 0.0
C456 C 0.61823 0.52912 0.55191 0.0
C457 C 0.59939 0.5052 0.66686 0.0
C458 C 0.63364 0.52629 0.60905 0.0
N459 N 0.55449 0.51119 0.50438 0.0
C460 C 0.53973 0.50828 0.44802 0.0
C461 C 0.58724 0.53001 0.43632 0.0
C462 C 0.57799 0.52093 0.49888 0.0
C463 C 0.57174 0.52829 0.37893 0.0
C464 C 0.54799 0.51707 0.38468 0.0
H465 H 0.65301 0.53274 0.60847 0.0
H466 H 0.64641 0.54642 0.487 0.0
H467 H 0.61922 0.54716 0.38552 0.0
O468 O 0.52643 0.46259 0.59331 0.0
O469 O 0.53097 0.53514 0.57096 0.0
O470 O 0.5108 0.55701 0.65781 0.0
O471 O 0.56716 0.46874 0.58566 0.0
O472 O 0.50363 0.49359 0.56728 0.0
O473 O 0.48005 0.52721 0.60404 0.0
O474 O 0.46748 0.55542 0.77212 0.0
O475 O 0.49502 0.48849 0.70217 0.0
O476 O 0.53664 0.48612 0.71443 0.0
O477 O 0.4521 0.54208 0.67803 0.0
O478 O 0.52418 0.54526 0.73931 0.0
O479 O 0.55111 0.51288 0.71221 0.0
C480 C 0.52309 0.55622 0.59893 0.0
C481 C 0.55173 0.42603 0.56978 0.0
C482 C 0.53256 0.38548 0.54612 0.0
C483 C 0.55572 0.37386 0.55792 0.0
C484 C 0.57497 0.41433 0.58021 0.0
C485 C 0.57689 0.38832 0.57439 0.0
C486 C 0.53069 0.4115 0.55219 0.0
C487 C 0.48471 0.50932 0.56048 0.0
C488 C 0.54856 0.45273 0.5848 0.0
C489 C 0.62728 0.53943 0.49072 0.0
C490 C 0.61181 0.53983 0.43292 0.0
C491 C 0.51441 0.47826 0.73223 0.0
C492 C 0.44205 0.58326 0.70767 0.0
C493 C 0.44696 0.62856 0.71508 0.0
C494 C 0.42705 0.63149 0.66892 0.0
C495 C 0.42211 0.58649 0.66172 0.0
C496 C 0.45431 0.60438 0.73433 0.0
C497 C 0.41472 0.6105 0.64239 0.0
C498 C 0.54591 0.53364 0.74556 0.0
C499 C 0.44954 0.55779 0.72767 0.0
H500 H 0.55753 0.35376 0.55289 0.0
H501 H 0.59141 0.42516 0.59474 0.0
H502 H 0.59478 0.37934 0.58304 0.0
H503 H 0.51264 0.42035 0.5441 0.0
H504 H 0.4212 0.64995 0.6529 0.0
H505 H 0.41225 0.57043 0.64075 0.0
H506 H 0.46936 0.60204 0.77085 0.0
H507 H 0.39941 0.61283 0.60674 0.0
Tb508 Tb 0.02757 0.54525 0.60247 0.0
C509 C 0.04666 0.45235 0.74061 0.0
N510 N 0.02967 0.45688 0.69037 0.0
C511 C 0.04736 0.42345 0.62444 0.0
C512 C 0.06579 0.43445 0.73251 0.0
C513 C 0.02849 0.44106 0.63569 0.0
C514 C 0.06652 0.4206 0.67223 0.0
C515 C 0.05994 0.45936 0.85723 0.0
C516 C 0.04379 0.46448 0.80231 0.0
C517 C 0.07986 0.44258 0.8482 0.0
C518 C 0.08283 0.43021 0.78586 0.0
Tb519 Tb 1.00156 0.48842 0.71357 0.0
N520 N 0.02486 0.48124 0.80853 0.0
C521 C 0.05533 0.47104 0.91969 0.0
C522 C 0.01971 0.49206 0.86974 0.0
C523 C 0.035 0.48731 0.9261 0.0
H524 H 0.01277 0.44131 0.6012 0.0
H525 H 0.0311 0.49615 0.97443 0.0
H526 H 0.99891 0.59615 0.65485 0.0
H527 H 0.0475 0.51666 0.34348 0.0
H528 H 1.00392 0.50446 0.87487 0.0
H529 H 0.06708 0.46734 0.96349 0.0
H530 H 0.05671 0.52166 0.46569 0.0
H531 H 0.04676 0.41166 0.57969 0.0
H532 H 0.09274 0.43867 0.88947 0.0
H533 H 0.09786 0.41679 0.78019 0.0
H534 H 0.9672 0.62572 0.61042 0.0
H535 H 0.08092 0.4067 0.66389 0.0
H536 H 0.01014 0.53699 0.29337 0.0
N537 N 0.99937 0.57411 0.56488 0.0
C538 C 0.9918 0.57201 0.49937 0.0
C539 C 0.97378 0.61053 0.57884 0.0
C540 C 0.97372 0.58824 0.47178 0.0
C541 C 0.99169 0.5938 0.60387 0.0
C542 C 0.9643 0.60738 0.51299 0.0
N543 N 0.02337 0.54215 0.48639 0.0
C544 C 0.03987 0.52987 0.44499 0.0
C545 C 0.99854 0.55361 0.38869 0.0
C546 C 1.00406 0.55507 0.45869 0.0
C547 C 0.01375 0.53869 0.34741 0.0
C548 C 0.03489 0.52726 0.37545 0.0
H549 H 0.95044 0.62033 0.4937 0.0
H550 H 0.95247 0.59755 0.38125 0.0
H551 H 0.97422 0.56709 0.30828 0.0
O552 O 0.05172 0.57052 0.5521 0.0
O553 O 0.98683 0.54349 0.6251 0.0
O554 O 0.97715 0.5016 0.63025 0.0
O555 O 0.05375 0.56598 0.66016 0.0
O556 O 0.03477 0.50666 0.56605 0.0
O557 O 1.00064 0.48394 0.6026 0.0
O558 O 0.96632 0.48646 0.76283 0.0
O559 O 0.03605 0.50963 0.74069 0.0
O560 O 0.05185 0.51472 0.63551 0.0
O561 O 0.98758 0.45327 0.74334 0.0
O562 O 0.99245 0.52463 0.76071 0.0
O563 O 0.01717 0.55556 0.70769 0.0
C564 C 0.97108 0.52477 0.61463 0.0
C565 C 0.09163 0.57104 0.60199 0.0
C566 C 0.126 0.54312 0.57158 0.0
C567 C 0.14323 0.56199 0.59112 0.0
C568 C 0.10895 0.58948 0.62168 0.0
C569 C 0.1347 0.58488 0.61646 0.0
C570 C 0.10019 0.54791 0.57829 0.0
C571 C 0.01749 0.48931 0.55571 0.0
C572 C 0.06454 0.57546 0.60675 0.0
C573 C 0.96666 0.58557 0.40327 0.0
C574 C 0.97903 0.5682 0.36175 0.0
C575 C 0.05562 0.51103 0.7004 0.0
C576 C 0.94435 0.4512 0.72098 0.0
C577 C 0.8995 0.44233 0.71211 0.0
C578 C 0.90337 0.43109 0.64855 0.0
C579 C 0.94785 0.44052 0.65621 0.0
C580 C 0.92011 0.45223 0.7483 0.0
C581 C 0.92748 0.43039 0.62057 0.0
C582 C 1.00251 0.54741 0.75781 0.0
C583 C 0.9657 0.46216 0.75874 0.0
H584 H 0.16328 0.55948 0.58533 0.0
H585 H 0.10258 0.60736 0.64074 0.0
H586 H 0.14811 0.59923 0.63115 0.0
H587 H 0.08652 0.53372 0.56472 0.0
H588 H 0.8877 0.42337 0.62005 0.0
H589 H 0.96631 0.44001 0.63299 0.0
H590 H 0.91731 0.46064 0.79791 0.0
H591 H 0.93035 0.42214 0.57093 0.0
H592 H 0.16257 0.02097 0.30699 0.0
H593 H 0.16058 0.10195 0.28783 0.0
H594 H 0.12707 0.10367 0.37357 0.0
H595 H 0.0953 0.01207 0.33328 0.0
H596 H 0.09898 0.98741 0.39497 0.0
H597 H 0.12239 0.99202 0.32975 0.0
H598 H 0.15735 0.99677 0.42175 0.0
H599 H 0.13371 0.99103 0.48543 0.0
H600 H 0.153 0.0189 0.48994 0.0
H601 H 0.09319 0.09705 0.4619 0.0
H602 H 0.0634 0.08224 0.55035 0.0
H603 H 0.08819 0.00605 0.51748 0.0
C604 C 0.15518 0.03908 0.32091 0.0
C605 C 0.16417 0.06127 0.28896 0.0
C606 C 0.15375 0.08452 0.30935 0.0
C607 C 0.13472 0.08578 0.35871 0.0
C608 C 0.12616 0.06366 0.38844 0.0
C609 C 0.13611 0.04073 0.37067 0.0
C610 C 0.12369 0.01984 0.41156 0.0
C611 C 0.10924 1.00177 0.36457 0.0
C612 C 0.14312 0.00584 0.45477 0.0
C613 C 0.10571 0.0347 0.45588 0.0
C614 C 0.10716 0.05992 0.44096 0.0
C615 C 0.09198 0.07732 0.47415 0.0
C616 C 0.07503 0.06876 0.52417 0.0
C617 C 0.07345 0.04304 0.54108 0.0
C618 C 0.0891 0.02588 0.50628 0.0
H619 H 0.48898 0.17563 0.3417 0.0
H620 H 0.50849 0.13137 0.16462 0.0
H621 H 0.5149 0.09456 0.23816 0.0
H622 H 0.5337 0.14681 0.46059 0.0
H623 H 0.51184 0.14812 0.53059 0.0
H624 H 0.5102 0.17096 0.46346 0.0
H625 H 0.46315 0.15871 0.44661 0.0
H626 H 0.46557 0.13536 0.51241 0.0
H627 H 0.45499 0.12656 0.42862 0.0
H628 H 0.51843 0.062 0.32997 0.0
H629 H 0.51969 0.03631 0.43417 0.0
H630 H 0.49797 0.10061 0.55432 0.0
C631 C 0.49503 0.15831 0.31851 0.0
C632 C 0.49823 0.15658 0.24684 0.0
C633 C 0.50567 0.1333 0.21891 0.0
C634 C 0.50945 0.11222 0.26043 0.0
C635 C 0.50576 0.11446 0.33039 0.0
C636 C 0.49881 0.1369 0.35946 0.0
C637 C 0.49553 0.13389 0.43611 0.0
C638 C 0.51394 0.15096 0.47494 0.0
C639 C 0.46818 0.13894 0.45715 0.0
C640 C 0.50203 0.10638 0.4456 0.0
C641 C 0.5077 0.09555 0.38365 0.0
C642 C 0.51394 0.07032 0.37861 0.0
C643 C 0.51434 0.05575 0.4381 0.0
C644 C 0.50837 0.06617 0.50226 0.0
C645 C 0.50248 0.09201 0.506 0.0
H646 H 0.37291 0.46173 0.3161 0.0
H647 H 0.37821 0.53369 0.21397 0.0
H648 H 0.41407 0.54524 0.28749 0.0
H649 H 0.388 0.48398 0.48333 0.0
H650 H 0.40604 0.45687 0.50661 0.0
H651 H 0.38096 0.454 0.44549 0.0
H652 H 0.41202 0.43507 0.35858 0.0
H653 H 0.43721 0.43813 0.41942 0.0
H654 H 0.44021 0.45217 0.3364 0.0
H655 H 0.44874 0.54973 0.37493 0.0
H656 H 0.47899 0.54691 0.47015 0.0
H657 H 0.45309 0.47149 0.51346 0.0
C658 C 0.38175 0.47981 0.30828 0.0
C659 C 0.37244 0.49674 0.25844 0.0
C660 C 0.3845 0.52041 0.25181 0.0
C661 C 0.40511 0.5271 0.29317 0.0
C662 C 0.41375 0.50997 0.34133 0.0
C663 C 0.40245 0.4868 0.34915 0.0
C664 C 0.4151 0.47208 0.40594 0.0
C665 C 0.39641 0.4664 0.46376 0.0
C666 C 0.42682 0.44793 0.37837 0.0
C667 C 0.43532 0.49055 0.42881 0.0
C668 C 0.43412 0.51233 0.39082 0.0
C669 C 0.44998 0.53265 0.40431 0.0
C670 C 0.46717 0.53086 0.45839 0.0
C671 C 0.46878 0.50883 0.4982 0.0
C672 C 0.45278 0.48829 0.48263 0.0
H673 H 0.0725 0.40038 0.26179 0.0
H674 H 0.99612 0.37167 0.23996 0.0
H675 H 0.98127 0.40392 0.31863 0.0
H676 H 0.06878 0.41042 0.44002 0.0
H677 H 0.08763 0.4386 0.44012 0.0
H678 H 0.09236 0.41532 0.37532 0.0
H679 H 0.08538 0.4489 0.28317 0.0
H680 H 0.07962 0.47249 0.34678 0.0
H681 H 0.05648 0.46634 0.28205 0.0
H682 H 0.97445 0.43721 0.40527 0.0
H683 H 0.97649 0.46789 0.49827 0.0
H684 H 0.05737 0.474 0.47307 0.0
C685 C 0.05261 0.40069 0.27317 0.0
C686 C 0.03559 0.38318 0.24289 0.0
C687 C 0.0097 0.38495 0.25982 0.0
C688 C 1.001 0.40321 0.30533 0.0
C689 C 0.01829 0.41972 0.33459 0.0
C690 C 0.04359 0.41862 0.31957 0.0
C691 C 0.05834 0.43769 0.36175 0.0
C692 C 0.07793 0.42472 0.40697 0.0
C693 C 0.0707 0.45752 0.31567 0.0
C694 C 0.03742 0.44912 0.40418 0.0
C695 C 0.01444 0.4387 0.38651 0.0
C696 C 0.99233 0.44555 0.4192 0.0
C697 C 0.99371 0.46305 0.47214 0.0
C698 C 0.01703 0.47359 0.49292 0.0
C699 C 0.03919 0.46672 0.45762 0.0
H700 H 0.8718 0.97529 0.99183 0.0
H701 H 0.88656 0.04214 0.11234 0.0
H702 H 0.92545 0.04931 0.04783 0.0
H703 H 0.93631 0.95609 0.96527 0.0
H704 H 0.93093 0.9469 0.87827 0.0
H705 H 0.90565 0.94512 0.9391 0.0
H706 H 0.87842 0.97298 0.86082 0.0
H707 H 0.90376 0.97484 0.80018 0.0
H708 H 0.89035 1.0031 0.83407 0.0
H709 H 0.96303 0.04987 0.96853 0.0
H710 H 0.9944 0.04503 0.8769 0.0
H711 H 0.95286 0.98132 0.79797 0.0
C712 C 0.88289 0.99162 1.00505 0.0
C713 C 0.87555 0.00795 0.05874 0.0
C714 C 0.89153 0.02872 0.07357 0.0
C715 C 0.91375 0.03319 0.03641 0.0
C716 C 0.91991 0.01704 0.98336 0.0
C717 C 0.90483 0.99677 0.96729 0.0
C718 C 0.91492 0.98316 0.90504 0.0
C719 C 0.92239 0.95622 0.92306 0.0
C720 C 0.89572 0.98356 0.84657 0.0
C721 C 0.93793 0.99907 0.8883 0.0
C722 C 0.94068 0.01826 0.93497 0.0
C723 C 0.96093 0.03497 0.93163 0.0
C724 C 0.97874 0.03205 0.87944 0.0
C725 C 0.97608 0.01294 0.83005 0.0
C726 C 0.95526 0.9963 0.83453 0.0
H727 H 0.53721 0.86845 1.00583 0.0
H728 H 0.51688 0.91554 0.17726 0.0
H729 H 0.51257 0.95133 0.10009 0.0
H730 H 0.575 0.91831 0.92021 0.0
H731 H 0.5662 0.90819 0.83623 0.0
H732 H 0.56829 0.88576 0.90456 0.0
H733 H 0.52158 0.87148 0.88635 0.0
H734 H 0.52176 0.89222 0.8148 0.0
H735 H 0.49774 0.89519 0.87911 0.0
H736 H 0.50633 0.98136 1.00353 0.0
H737 H 0.50384 1.00501 0.89675 0.0
H738 H 0.53262 0.94091 0.7866 0.0
C739 C 0.53239 0.88632 0.02789 0.0
C740 C 0.52667 0.88849 0.09847 0.0
C741 C 0.52039 0.9126 0.12368 0.0
C742 C 0.51808 0.93332 0.08008 0.0
C743 C 0.52282 0.93019 0.01092 0.0
C744 C 0.53058 0.90752 0.98513 0.0
C745 C 0.53493 0.90952 0.90864 0.0
C746 C 0.56276 0.90519 0.8914 0.0
C747 C 0.51791 0.89103 0.87004 0.0
C748 C 0.52748 0.93662 0.89516 0.0
C749 C 0.52055 0.94807 0.95522 0.0
C750 C 0.51196 0.97263 0.95632 0.0
C751 C 0.51057 0.98596 0.89487 0.0
C752 C 0.51786 0.97502 0.83213 0.0
C753 C 0.52658 0.9499 0.83288 0.0
H754 H 0.64641 0.50623 0.03905 0.0
H755 H 0.65926 0.58611 0.05737 0.0
H756 H 0.62677 0.5937 0.96906 0.0
H757 H 0.63884 0.50626 0.85687 0.0
H758 H 0.61529 0.48182 0.85724 0.0
H759 H 0.63864 0.48305 0.92352 0.0
H760 H 0.6033 0.4838 0.0145 0.0
H761 H 0.5799 0.48263 0.9483 0.0
H762 H 0.57946 0.50756 0.00997 0.0
H763 H 0.59073 0.59204 0.87923 0.0
H764 H 0.55914 0.58106 0.79047 0.0
H765 H 0.57277 0.50237 0.82725 0.0
C766 C 0.64226 0.52535 0.02482 0.0
C767 C 0.65521 0.54562 0.05587 0.0
C768 C 0.64958 0.5703 0.03456 0.0
C769 C 0.63105 0.57477 0.98458 0.0
C770 C 0.61852 0.55433 0.95527 0.0
C771 C 0.62423 0.53007 0.97416 0.0
C772 C 0.60911 0.51124 0.93294 0.0
C773 C 0.62651 0.49461 0.89012 0.0
C774 C 0.59193 0.49537 0.9792 0.0
C775 C 0.59387 0.52856 0.88818 0.0
C776 C 0.59919 0.55338 0.9021 0.0
C777 C 0.58669 0.57261 0.86776 0.0
C778 C 0.5687 0.56625 0.81755 0.0
C779 C 0.56367 0.54089 0.80118 0.0
C780 C 0.57641 0.52196 0.83766 0.0
H781 H 0.017 0.67442 0.97347 0.0
H782 H 0.97446 0.63843 0.13545 0.0
H783 H 0.96976 0.60067 0.06417 0.0
H784 H 0.98273 0.64882 0.83337 0.0
H785 H 0.01005 0.64462 0.78047 0.0
H786 H 0.00975 0.66907 0.84352 0.0
H787 H 0.05041 0.65149 0.89734 0.0
H788 H 0.05097 0.62713 0.83406 0.0
H789 H 0.05132 0.61911 0.92311 0.0
H790 H 0.96898 0.56661 0.97278 0.0
H791 H 0.97442 0.53882 0.87377 0.0
H792 H 0.01987 0.59607 0.77474 0.0
C793 C 0.00701 0.65855 0.99492 0.0
C794 C 0.99609 0.65978 0.06088 0.0
C795 C 0.98272 0.63845 0.08515 0.0
C796 C 0.98004 0.61674 0.04499 0.0
C797 C 0.99095 0.61634 0.9804 0.0
C798 C 1.00437 0.63665 0.95582 0.0
C799 C 0.01464 0.63135 0.88514 0.0
C800 C 1.00363 0.64955 0.83253 0.0
C801 C 0.04355 0.63232 0.88493 0.0
C802 C 1.00495 0.60487 0.87371 0.0
C803 C 0.99114 0.59661 0.92899 0.0
C804 C 0.97995 0.57289 0.92957 0.0
C805 C 0.98322 0.55715 0.87284 0.0
C806 C 0.99784 0.56491 0.81607 0.0
C807 C 0.00863 0.5893 0.81692 0.0
H808 H 0.04847 0.2353 0.40102 0.0
H809 H 0.06454 0.18218 0.23998 0.0
H810 H 0.0472 0.14809 0.31032 0.0
H811 H 0.05892 0.19065 0.54823 0.0
H812 H 0.03328 0.204 0.59549 0.0
H813 H 0.05165 0.22338 0.53877 0.0
H814 H 0.01077 0.23626 0.47639 0.0
H815 H 0.99243 0.21661 0.53203 0.0
H816 H 0.99056 0.2123 0.44123 0.0
H817 H 0.02115 0.12183 0.38584 0.0
H818 H 0.99158 0.10365 0.46816 0.0
H819 H 0.99286 0.17288 0.58385 0.0
C820 C 0.04894 0.21638 0.38137 0.0
C821 C 0.05801 0.21139 0.31512 0.0
C822 C 0.05819 0.18642 0.291 0.0
C823 C 0.04824 0.16692 0.33047 0.0
C824 C 0.03843 0.17266 0.39419 0.0
C825 C 0.03909 0.19667 0.42022 0.0
C826 C 0.02519 0.1981 0.48749 0.0
C827 C 0.04335 0.20441 0.54595 0.0
C828 C 1.00345 0.21693 0.48401 0.0
C829 C 0.0155 0.17147 0.4932 0.0
C830 C 0.02366 0.15709 0.43924 0.0
C831 C 0.01543 0.13259 0.42976 0.0
C832 C 0.99875 0.12236 0.47726 0.0
C833 C 0.9907 0.13637 0.53447 0.0
C834 C 0.99907 0.1614 0.54187 0.0
H835 H 0.35906 0.06773 0.16693 0.0
H836 H 0.34293 0.10698 0.35445 0.0
H837 H 0.38357 0.09264 0.4024 0.0
H838 H 0.38227 0.01454 0.2451 0.0
H839 H 0.40576 0.00808 0.1815 0.0
H840 H 0.37775 0.02472 0.15852 0.0
H841 H 0.40478 0.06133 0.1113 0.0
H842 H 0.43295 0.04473 0.13367 0.0
H843 H 0.42806 0.07601 0.16507 0.0
H844 H 0.42449 0.07142 0.43161 0.0
H845 H 0.46089 0.04363 0.44302 0.0
H846 H 0.44799 0.01586 0.23815 0.0
C847 C 0.36455 0.07401 0.21723 0.0
C848 C 0.34842 0.08901 0.25659 0.0
C849 C 0.35545 0.0959 0.32336 0.0
C850 C 0.37841 0.08786 0.35075 0.0
C851 C 0.39378 0.07271 0.31082 0.0
C852 C 0.38705 0.06577 0.24555 0.0
C853 C 0.40527 0.04712 0.21583 0.0
C854 C 0.39196 0.02215 0.19932 0.0
C855 C 0.41855 0.05796 0.15275 0.0
C856 C 0.42327 0.04441 0.27482 0.0
C857 C 0.41656 0.05955 0.32875 0.0
C858 C 0.42993 0.05955 0.3896 0.0
C859 C 0.45052 0.04349 0.3957 0.0
C860 C 0.45748 0.0274 0.34146 0.0
C861 C 0.44363 0.02816 0.28017 0.0
H862 H 0.44234 0.33539 0.2664 0.0
H863 H 0.41953 0.27587 0.40462 0.0
H864 H 0.44014 0.2984 0.4987 0.0
H865 H 0.49879 0.34354 0.3184 0.0
H866 H 0.50099 0.37717 0.31302 0.0
H867 H 0.47904 0.36058 0.26025 0.0
H868 H 0.4419 0.38634 0.30764 0.0
H869 H 0.46397 0.40393 0.35864 0.0
H870 H 0.43739 0.38864 0.39829 0.0
H871 H 0.47361 0.32058 0.56698 0.0
H872 H 0.50996 0.34545 0.60946 0.0
H873 H 0.50668 0.39225 0.42994 0.0
C874 C 0.44013 0.32752 0.3167 0.0
C875 C 0.4298 0.30332 0.32693 0.0
C876 C 0.42808 0.29392 0.39436 0.0
C877 C 0.43953 0.30673 0.44855 0.0
C878 C 0.45163 0.32942 0.43505 0.0
C879 C 0.451 0.34026 0.37123 0.0
C880 C 0.4676 0.36332 0.36752 0.0
C881 C 0.48778 0.36097 0.31154 0.0
C882 C 0.45175 0.38696 0.35746 0.0
C883 C 0.47914 0.3627 0.43755 0.0
C884 C 0.46965 0.34314 0.4762 0.0
C885 C 0.4804 0.3366 0.53847 0.0
C886 C 0.50112 0.35058 0.56189 0.0
C887 C 0.51053 0.37093 0.52334 0.0
C888 C 0.4992 0.37718 0.46105 0.0
H889 H 0.23177 0.4581 0.43126 0.0
H890 H 0.1783 0.43685 0.27494 0.0
H891 H 0.14356 0.44972 0.34874 0.0
H892 H 0.18587 0.44791 0.58791 0.0
H893 H 0.19962 0.47514 0.62776 0.0
H894 H 0.21887 0.45476 0.57684 0.0
H895 H 0.23263 0.49322 0.50508 0.0
H896 H 0.21278 0.51333 0.55388 0.0
H897 H 0.20899 0.51163 0.46287 0.0
H898 H 0.11781 0.47789 0.41471 0.0
H899 H 0.10199 0.51456 0.47397 0.0
H900 H 0.17023 0.51766 0.59546 0.0
C901 C 0.21264 0.45503 0.41421 0.0
C902 C 0.20775 0.44657 0.3474 0.0
C903 C 0.18256 0.44292 0.32622 0.0
C904 C 0.16263 0.4503 0.36792 0.0
C905 C 0.16818 0.46093 0.43095 0.0
C906 C 0.19258 0.46262 0.45515 0.0
C907 C 0.194 0.479 0.51809 0.0
C908 C 0.19993 0.46325 0.58141 0.0
C909 C 0.21321 0.50056 0.50934 0.0
C910 C 0.1673 0.48856 0.52051 0.0
C911 C 0.15255 0.47726 0.47126 0.0
C912 C 0.12868 0.48601 0.45571 0.0
C913 C 0.11981 0.50703 0.49019 0.0
C914 C 0.13462 0.51914 0.54066 0.0
C915 C 0.15836 0.50908 0.55721 0.0
H916 H 0.94184 0.7848 0.91266 0.0
H917 H 0.89929 0.83703 0.03346 0.0
H918 H 0.90369 0.8686 0.94361 0.0
H919 H 0.98641 0.81483 0.88506 0.0
H920 H 0.99438 0.80896 0.79732 0.0
H921 H 0.97563 0.78679 0.84237 0.0
H922 H 0.94046 0.7899 0.75256 0.0
H923 H 0.95954 0.81196 0.70543 0.0
H924 H 0.92793 0.81999 0.72962 0.0
H925 H 0.92943 0.89777 0.88181 0.0
H926 H 0.96898 0.9189 0.8516 0.0
H927 H 0.99691 0.85015 0.76492 0.0
C928 C 0.93181 0.80223 0.91758 0.0
C929 C 0.92082 0.80876 0.98037 0.0
C930 C 0.9081 0.83178 0.98592 0.0
C931 C 0.91052 0.84986 0.93472 0.0
C932 C 0.92534 0.84443 0.87796 0.0
C933 C 0.93486 0.82061 0.86739 0.0
C934 C 0.95526 0.82097 0.81333 0.0
C935 C 0.9793 0.80715 0.8361 0.0
C936 C 0.94518 0.81007 0.74626 0.0
C937 C 0.95944 0.84891 0.80669 0.0
C938 C 0.94084 0.86214 0.84021 0.0
C939 C 0.94347 0.88774 0.85304 0.0
C940 C 0.96614 0.89965 0.83589 0.0
C941 C 0.98601 0.88592 0.80666 0.0
C942 C 0.98187 0.86083 0.78756 0.0
H943 H 0.69997 0.94298 0.95102 0.0
H944 H 0.68325 0.92711 0.16142 0.0
H945 H 0.63914 0.91905 0.13222 0.0
H946 H 0.66185 0.9824 0.92958 0.0
H947 H 0.65019 0.97666 0.84475 0.0
H948 H 0.68015 0.96506 0.86846 0.0
H949 H 0.66616 0.92013 0.836 0.0
H950 H 0.63575 0.93194 0.81174 0.0
H951 H 0.63799 0.90679 0.8725 0.0
H952 H 0.59752 0.93145 0.09584 0.0
H953 H 0.56626 0.96224 0.0608 0.0
H954 H 0.60925 0.97665 0.87711 0.0
C955 C 0.68709 0.93616 0.98955 0.0
C956 C 0.69466 0.93601 0.0581 0.0
C957 C 0.67782 0.92719 0.10832 0.0
C958 C 0.65257 0.92261 0.09193 0.0
C959 C 0.64457 0.92696 0.02526 0.0
C960 C 0.66162 0.93284 0.97395 0.0
C961 C 0.64838 0.94381 0.91265 0.0
C962 C 0.66086 0.96844 0.88772 0.0
C963 C 0.64698 0.92451 0.85483 0.0
C964 C 0.62257 0.94794 0.94273 0.0
C965 C 0.62003 0.93611 1.00498 0.0
C966 C 0.59924 0.94038 0.04663 0.0
C967 C 0.58173 0.95843 0.02677 0.0
C968 C 0.5855 0.97276 0.96686 0.0
C969 C 0.60532 0.96607 0.92266 0.0
H970 H 0.45607 0.74545 0.95515 0.0
H971 H 0.53621 0.73167 0.9649 0.0
H972 H 0.53272 0.70318 0.86676 0.0
H973 H 0.43782 0.68699 0.93038 0.0
H974 H 0.41254 0.69245 0.87125 0.0
H975 H 0.42187 0.71666 0.92944 0.0
H976 H 0.42958 0.74729 0.82923 0.0
H977 H 0.41983 0.72322 0.77036 0.0
H978 H 0.45005 0.73831 0.7605 0.0
H979 H 0.51933 0.6692 0.79143 0.0
H980 H 0.49736 0.63447 0.73381 0.0
H981 H 0.42601 0.67121 0.7662 0.0
C982 C 0.47302 0.73736 0.9344 0.0
C983 C 0.49638 0.74065 0.96726 0.0
C984 C 0.51812 0.72919 0.94039 0.0
C985 C 0.51635 0.71317 0.88442 0.0
C986 C 0.49278 0.70918 0.85536 0.0
C987 C 0.47154 0.72134 0.87837 0.0
C988 C 0.44803 0.71124 0.84431 0.0
C989 C 0.42897 0.70124 0.89699 0.0
C990 C 0.43618 0.73121 0.79835 0.0
C991 C 0.45918 0.69029 0.80262 0.0
C992 C 0.48507 0.68973 0.80887 0.0
C993 C 0.4992 0.66998 0.78373 0.0
C994 C 0.48657 0.65027 0.75154 0.0
C995 C 0.46013 0.65056 0.744 0.0
C996 C 0.44634 0.67104 0.76893 0.0
H997 H 0.80141 0.5033 0.95656 0.0
H998 H 0.76997 0.4289 0.98587 0.0
H999 H 0.79378 0.41389 0.88617 0.0
H1000 H 0.80778 0.50079 0.76561 0.0
H1001 H 0.83731 0.51752 0.76901 0.0
H1002 H 0.81326 0.52373 0.83127 0.0
H1003 H 0.84491 0.51422 0.92805 0.0
H1004 H 0.86893 0.50794 0.86637 0.0
H1005 H 0.86084 0.48454 0.92892 0.0
H1006 H 0.82641 0.40541 0.79732 0.0
H1007 H 0.86579 0.40404 0.73024 0.0
H1008 H 0.87677 0.48358 0.76268 0.0
C1009 C 0.79912 0.48396 0.94117 0.0
C1010 C 0.78391 0.46724 0.97892 0.0
C1011 C 0.78129 0.44211 0.95709 0.0
C1012 C 0.79473 0.43343 0.90051 0.0
C1013 C 0.81044 0.4502 0.86613 0.0
C1014 C 0.81252 0.47502 0.88546 0.0
C1015 C 0.83315 0.48846 0.84678 0.0
C1016 C 0.82221 0.50883 0.8004 0.0
C1017 C 0.85313 0.49941 0.89544 0.0
C1018 C 0.84339 0.46698 0.80566 0.0
C1019 C 0.82963 0.44522 0.81584 0.0
C1020 C 0.83699 0.42244 0.78778 0.0
C1021 C 0.85932 0.42181 0.74986 0.0
C1022 C 0.87411 0.44372 0.74172 0.0
C1023 C 0.86564 0.46663 0.76822 0.0
H1024 H 0.03283 0.20863 0.82083 0.0
H1025 H 0.03661 0.186 0.03263 0.0
H1026 H 0.03484 0.14176 0.99821 0.0
H1027 H 0.98801 0.15839 0.77332 0.0
H1028 H 1.00124 0.15249 0.6908 0.0
H1029 H 1.00301 0.18351 0.72675 0.0
H1030 H 0.05119 0.18469 0.71535 0.0
H1031 H 0.04982 0.15444 0.67504 0.0
H1032 H 0.06948 0.1592 0.74873 0.0
H1033 H 0.036 0.10051 0.94344 0.0
H1034 H 0.03539 0.06331 0.87162 0.0
H1035 H 0.02745 0.10977 0.69168 0.0
C1036 C 0.03305 0.19429 0.85975 0.0
C1037 C 0.03472 0.2009 0.92978 0.0
C1038 C 0.03497 0.18155 0.97904 0.0
C1039 C 0.03414 0.1563 0.95991 0.0
C1040 C 0.03266 0.15039 0.89104 0.0
C1041 C 0.03162 0.16867 0.84146 0.0
C1042 C 0.02918 0.15658 0.77121 0.0
C1043 C 1.00385 0.16319 0.73861 0.0
C1044 C 0.05124 0.16418 0.72486 0.0
C1045 C 0.03009 0.12878 0.78925 0.0
C1046 C 0.03214 0.12594 0.85888 0.0
C1047 C 0.03416 0.1025 0.88889 0.0
C1048 C 0.03397 0.08132 0.84715 0.0
C1049 C 0.03146 0.08322 0.7755 0.0
C1050 C 0.0293 0.10749 0.74617 0.0
H1051 H 0.35783 0.01851 0.96528 0.0
H1052 H 0.31165 0.05853 0.81885 0.0
H1053 H 0.34611 0.05714 0.73675 0.0
H1054 H 0.41372 0.05335 0.92725 0.0
H1055 H 0.43454 0.02728 0.93953 0.0
H1056 H 0.40525 0.02855 0.98533 0.0
H1057 H 0.39253 0.98504 0.93738 0.0
H1058 H 0.42187 0.98363 0.89175 0.0
H1059 H 0.39257 0.98008 0.84665 0.0
H1060 H 0.38667 0.05268 0.6691 0.0
H1061 H 0.43036 0.04761 0.62706 0.0
H1062 H 0.45128 0.01458 0.82011 0.0
C1063 C 0.35462 0.02712 0.91634 0.0
C1064 C 0.33112 0.03821 0.89973 0.0
C1065 C 0.3286 0.04896 0.83374 0.0
C1066 C 0.34838 0.04858 0.78625 0.0
C1067 C 0.37111 0.03781 0.80488 0.0
C1068 C 0.37442 0.02748 0.86865 0.0
C1069 C 0.40133 0.01861 0.87759 0.0
C1070 C 0.41447 0.03279 0.93588 0.0
C1071 C 0.4021 0.99015 0.88902 0.0
C1072 C 0.41256 0.02564 0.80906 0.0
C1073 C 0.39475 0.0364 0.76738 0.0
C1074 C 0.40074 0.04428 0.70144 0.0
C1075 C 0.42556 0.04127 0.6778 0.0
C1076 C 0.44417 0.03067 0.7201 0.0
C1077 C 0.43745 0.0228 0.78656 0.0
H1078 H 0.47527 0.33887 0.84902 0.0
H1079 H 0.51651 0.35318 0.03639 0.0
H1080 H 0.5275 0.39511 0.99472 0.0
H1081 H 0.51508 0.37345 0.7349 0.0
H1082 H 0.48956 0.3861 0.68575 0.0
H1083 H 0.48581 0.35636 0.72796 0.0
H1084 H 0.44631 0.37284 0.79013 0.0
H1085 H 0.44998 0.40258 0.74784 0.0
H1086 H 0.44855 0.40123 0.83938 0.0
H1087 H 0.53538 0.43575 0.93154 0.0
H1088 H 0.53719 0.47229 0.85426 0.0
H1089 H 0.48705 0.43436 0.71385 0.0
C1090 C 0.4864 0.35067 0.88219 0.0
C1091 C 0.49517 0.34182 0.94642 0.0
C1092 C 0.51002 0.3585 0.98637 0.0
C1093 C 0.5162 0.38274 0.9634 0.0
C1094 C 0.50713 0.39069 0.90053 0.0
C1095 C 0.49232 0.37525 0.8607 0.0
C1096 C 0.48431 0.38879 0.796 0.0
C1097 C 0.49429 0.37537 0.73243 0.0
C1098 C 0.45558 0.39152 0.7932 0.0
C1099 C 0.49714 0.41412 0.80543 0.0
C1100 C 0.51041 0.41468 0.86591 0.0
C1101 C 0.52484 0.43553 0.88447 0.0
C1102 C 0.52584 0.45619 0.84016 0.0
C1103 C 0.51209 0.45628 0.77855 0.0
C1104 C 0.4974 0.43497 0.76124 0.0
H1105 H 0.16904 0.51607 0.97217 0.0
H1106 H 0.21364 0.47466 0.82565 0.0
H1107 H 0.17855 0.47616 0.74456 0.0
H1108 H 0.11136 0.48412 0.93766 0.0
H1109 H 0.09194 0.51143 0.94828 0.0
H1110 H 0.12132 0.50912 0.99318 0.0
H1111 H 0.13588 0.55131 0.94122 0.0
H1112 H 0.10648 0.5537 0.89622 0.0
H1113 H 0.13575 0.55525 0.85013 0.0
H1114 H 0.1379 0.48134 0.6783 0.0
H1115 H 0.09495 0.48896 0.63498 0.0
H1116 H 0.07506 0.52368 0.82659 0.0
C1117 C 0.17163 0.50722 0.92324 0.0
C1118 C 0.19476 0.49546 0.90619 0.0
C1119 C 0.1968 0.48446 0.84054 0.0
C1120 C 0.17672 0.48498 0.79382 0.0
C1121 C 0.15431 0.49641 0.81279 0.0
C1122 C 0.15162 0.50731 0.87601 0.0
C1123 C 0.12516 0.51757 0.8846 0.0
C1124 C 0.11163 0.50478 0.94447 0.0
C1125 C 0.12587 0.54615 0.89357 0.0
C1126 C 0.11327 0.51036 0.81686 0.0
C1127 C 0.13057 0.4985 0.77575 0.0
C1128 C 0.12427 0.49065 0.71015 0.0
C1129 C 0.0998 0.49511 0.68584 0.0
C1130 C 0.08159 0.50693 0.72717 0.0
C1131 C 0.08851 0.5145 0.7938 0.0
H1132 H 0.98274 0.84374 0.45896 0.0
H1133 H 0.04563 0.85252 0.31954 0.0
H1134 H 0.05509 0.89368 0.36851 0.0
H1135 H 0.96297 0.90836 0.45314 0.0
H1136 H 0.95486 0.9102 0.54211 0.0
H1137 H 0.95286 0.88066 0.49818 0.0
H1138 H 0.9824 0.86075 0.58737 0.0
H1139 H 0.98436 0.89021 0.63168 0.0
H1140 H 0.01265 0.87498 0.60381 0.0
H1141 H 0.05863 0.93375 0.43112 0.0
H1142 H 0.05616 0.97053 0.50632 0.0
H1143 H 0.99039 0.93858 0.60496 0.0
C1144 C 0.99853 0.85428 0.43883 0.0
C1145 C 0.01368 0.84429 0.38575 0.0
C1146 C 0.0341 0.85903 0.36121 0.0
C1147 C 0.03953 0.88272 0.38829 0.0
C1148 C 0.0244 0.8919 0.44019 0.0
C1149 C 1.00435 0.87823 0.46567 0.0
C1150 C 0.99126 0.89289 0.52199 0.0
C1151 C 0.96385 0.89836 0.50268 0.0
C1152 C 0.99276 0.87887 0.59023 0.0
C1153 C 0.00705 0.91687 0.52354 0.0
C1154 C 0.0261 0.91569 0.47584 0.0
C1155 C 0.04374 0.93493 0.46847 0.0
C1156 C 0.04221 0.95577 0.51151 0.0
C1157 C 0.02304 0.95757 0.56116 0.0
C1158 C 1.00501 0.93792 0.56669 0.0
H1159 H 0.68481 0.04468 0.42413 0.0
H1160 H 0.69461 0.96461 0.39756 0.0
H1161 H 0.65606 0.9568 0.46377 0.0
H1162 H 0.65888 0.04231 0.59547 0.0
H1163 H 0.63669 0.06702 0.58017 0.0
H1164 H 0.66599 0.06645 0.53413 0.0
H1165 H 0.64158 0.06752 0.42022 0.0
H1166 H 0.61223 0.06801 0.46596 0.0
H1167 H 0.61786 0.04402 0.40349 0.0
H1168 H 0.61483 0.95745 0.52869 0.0
H1169 H 0.57532 0.96662 0.58931 0.0
H1170 H 0.59114 0.04621 0.5721 0.0
C1171 C 0.679 0.02545 0.43212 0.0
C1172 C 0.69332 1.0053 0.4054 0.0
C1173 C 0.68471 0.98049 0.41827 0.0
C1174 C 0.66253 0.97582 0.45548 0.0
C1175 C 0.64881 0.99607 0.47994 0.0
C1176 C 0.65676 0.02041 0.46901 0.0
C1177 C 0.63816 0.03883 0.4995 0.0
C1178 C 0.65068 0.05458 0.55566 0.0
C1179 C 0.62679 0.05558 0.44398 0.0
C1180 C 0.61848 0.02105 0.52894 0.0
C1181 C 0.62502 0.99645 0.51709 0.0
C1182 C 0.60965 0.97667 0.53848 0.0
C1183 C 0.58713 0.98209 0.57296 0.0
C1184 C 0.57994 0.00715 0.58614 0.0
C1185 C 0.596 0.02683 0.56349 0.0
H1186 H 0.51212 0.70345 0.50353 0.0
H1187 H 0.55006 0.68601 0.31418 0.0
H1188 H 0.55433 0.64208 0.35118 0.0
H1189 H 0.55114 0.66353 0.6051 0.0
H1190 H 0.52775 0.65154 0.66202 0.0
H1191 H 0.52462 0.68266 0.62748 0.0
H1192 H 0.48208 0.67462 0.57554 0.0
H1193 H 0.48092 0.64317 0.60857 0.0
H1194 H 0.47707 0.64844 0.5191 0.0
H1195 H 0.55161 0.59914 0.40493 0.0
H1196 H 0.54487 0.56141 0.47336 0.0
H1197 H 0.50993 0.60564 0.63169 0.0
C1198 C 0.52149 0.69045 0.46997 0.0
C1199 C 0.53086 0.69848 0.40572 0.0
C1200 C 0.54309 0.68068 0.36392 0.0
C1201 C 0.54543 0.65553 0.38435 0.0
C1202 C 0.5357 0.64823 0.44733 0.0
C1203 C 0.52427 0.66522 0.48993 0.0
C1204 C 0.51584 0.65247 0.55548 0.0
C1205 C 0.53063 0.66322 0.61613 0.0
C1206 C 0.48729 0.65488 0.56529 0.0
C1207 C 0.52317 0.62541 0.54193 0.0
C1208 C 0.53481 0.62353 0.47931 0.0
C1209 C 0.54279 0.60055 0.45438 0.0
C1210 C 0.53889 0.57901 0.49416 0.0
C1211 C 0.52714 0.58008 0.55898 0.0
C1212 C 0.51918 0.60388 0.5829 0.0
H1213 H 0.84537 0.49447 0.4001 0.0
H1214 H 0.82391 0.57196 0.42923 0.0
H1215 H 0.86315 0.5795 0.49366 0.0
H1216 H 0.87278 0.48512 0.56633 0.0
H1217 H 0.89764 0.46561 0.53453 0.0
H1218 H 0.86799 0.46666 0.49056 0.0
H1219 H 0.89179 0.47889 0.37981 0.0
H1220 H 0.92127 0.47812 0.42488 0.0
H1221 H 0.91218 0.50601 0.37984 0.0
H1222 H 0.90447 0.5782 0.55962 0.0
H1223 H 0.94462 0.56855 0.61657 0.0
H1224 H 0.93981 0.49214 0.54383 0.0
C1225 C 0.84874 0.51304 0.42031 0.0
C1226 C 0.83118 0.5326 0.4093 0.0
C1227 C 0.83691 0.55667 0.4359 0.0
C1228 C 0.85918 0.5611 0.47312 0.0
C1229 C 0.87582 0.54135 0.48349 0.0
C1230 C 0.87092 0.5178 0.45751 0.0
C1231 C 0.89194 0.49979 0.47566 0.0
C1232 C 0.88196 0.47802 0.5194 0.0
C1233 C 0.90507 0.49014 0.4112 0.0
C1234 C 0.90934 0.51678 0.51649 0.0
C1235 C 0.8997 0.5407 0.52032 0.0
C1236 C 0.91225 0.55959 0.55601 0.0
C1237 C 0.93527 0.55401 0.58774 0.0
C1238 C 0.94594 0.52984 0.58329 0.0
C1239 C 0.93243 0.51091 0.54783 0.0
loop_
_geom_bond_atom_site_label_1
_geom_bond_atom_site_label_2
_geom_bond_distance
_geom_bond_site_symmetry_2
_ccdc_geom_bond_type
P0 O11 1.490 . S
P0 C14 1.812 . S
P0 C20 1.803 . S
P0 C26 1.819 . S
H1 C15 0.941 . S
H2 C16 0.939 . S
H3 C18 0.940 . S
H4 C19 0.940 . S
H5 C21 0.939 . S
H6 C22 0.942 . S
H7 C24 0.940 . S
H8 C25 0.939 . S
H9 C27 0.941 . S
H10 C31 0.939 . S
O11 P0 1.490 . S
H12 C28 0.939 . S
H13 C30 0.940 . S
C14 P0 1.812 . S
C14 C15 1.389 . S
C14 C19 1.391 . S
C15 H1 0.941 . S
C15 C14 1.389 . S
C15 C16 1.397 . S
C16 H2 0.939 . S
C16 C15 1.397 . S
C16 C17 1.378 . S
C17 C16 1.378 . S
C17 C18 1.378 . S
C18 H3 0.940 . S
C18 C17 1.378 . S
C18 C19 1.396 . S
C19 H4 0.940 . S
C19 C14 1.391 . S
C19 C18 1.396 . S
C20 P0 1.803 . S
C20 C21 1.378 . S
C20 C25 1.400 . S
C21 H5 0.939 . S
C21 C20 1.378 . S
C21 C22 1.361 . S
C22 H6 0.942 . S
C22 C21 1.361 . S
C22 C23 1.369 . S
C23 C22 1.369 . S
C23 C24 1.404 . S
C24 H7 0.940 . S
C24 C23 1.404 . S
C24 C25 1.389 . S
C25 H8 0.939 . S
C25 C20 1.400 . S
C25 C24 1.389 . S
C26 P0 1.819 . S
C26 C27 1.391 . S
C26 C31 1.391 . S
C27 H9 0.941 . S
C27 C26 1.391 . S
C27 C28 1.396 . S
C28 H12 0.939 . S
C28 C27 1.396 . S
C28 C29 1.397 . S
C29 C28 1.397 . S
C29 C30 1.385 . S
C30 H13 0.940 . S
C30 C29 1.385 . S
C30 C31 1.388 . S
C31 H10 0.939 . S
C31 C26 1.391 . S
C31 C30 1.388 . S
P32 O43 1.490 . S
P32 C46 1.812 1_455 S
P32 C52 1.803 1_455 S
P32 C58 1.819 1_455 S
H33 C47 0.941 . S
H34 C48 0.939 1_455 S
H35 C50 0.940 . S
H36 C51 0.940 . S
H37 C53 0.939 . S
H38 C54 0.942 1_455 S
H39 C56 0.940 . S
H40 C57 0.939 . S
H41 C59 0.941 . S
H42 C63 0.939 . S
O43 P32 1.490 . S
H44 C60 0.935 1_455 S
H45 C62 0.940 . S
C46 P32 1.812 1_655 S
C46 C47 1.389 1_655 S
C46 C51 1.391 . S
C47 H33 0.941 . S
C47 C46 1.389 1_455 S
C47 C48 1.397 1_455 S
C48 H34 0.939 1_655 S
C48 C47 1.397 1_655 S
C48 C49 1.378 . S
C49 C48 1.378 . S
C49 C50 1.378 . S
C50 H35 0.940 . S
C50 C49 1.378 . S
C50 C51 1.396 . S
C51 H36 0.940 . S
C51 C46 1.391 . S
C51 C50 1.396 . S
C52 P32 1.803 1_655 S
C52 C53 1.378 1_655 S
C52 C57 1.400 . S
C53 H37 0.939 . S
C53 C52 1.378 1_455 S
C53 C54 1.361 1_455 S
C54 H38 0.942 1_655 S
C54 C53 1.361 1_655 S
C54 C55 1.369 . S
C55 C54 1.369 . S
C55 C56 1.404 . S
C56 H39 0.940 . S
C56 C55 1.404 . S
C56 C57 1.389 . S
C57 H40 0.939 . S
C57 C52 1.400 . S
C57 C56 1.389 . S
C58 P32 1.819 1_655 S
C58 C59 1.391 1_655 S
C58 C63 1.391 . S
C59 H41 0.941 . S
C59 C58 1.391 1_455 S
C59 C60 1.396 1_455 S
C60 H44 0.935 1_655 S
C60 C59 1.396 1_655 S
C60 C61 1.397 . S
C61 C60 1.397 . S
C61 C62 1.385 . S
C62 H45 0.940 . S
C62 C61 1.385 . S
C62 C63 1.388 . S
C63 H42 0.939 . S
C63 C58 1.391 . S
C63 C62 1.388 . S
P64 O75 1.490 . S
P64 C78 1.812 1_545 S
P64 C84 1.803 1_545 S
P64 C90 1.819 1_545 S
H65 C79 0.941 . S
H66 C80 0.921 1_545 S
H67 C82 0.940 . S
H68 C83 0.940 . S
H69 C85 0.939 . S
H70 C86 0.943 . S
H71 C88 0.940 . S
H72 C89 0.939 . S
H73 C91 0.941 . S
H74 C95 0.939 . S
O75 P64 1.490 . S
H76 C92 0.939 1_545 S
H77 C94 0.940 . S
C78 P64 1.812 1_565 S
C78 C79 1.389 1_565 S
C78 C83 1.391 . S
C79 H65 0.941 . S
C79 C78 1.389 1_545 S
C79 C80 1.385 1_545 S
C80 H66 0.921 1_565 S
C80 C79 1.385 1_565 S
C80 C81 1.409 . S
C81 C80 1.409 . S
C81 C82 1.378 . S
C82 H67 0.940 . S
C82 C81 1.378 . S
C82 C83 1.396 . S
C83 H68 0.940 . S
C83 C78 1.391 . S
C83 C82 1.396 . S
C84 P64 1.803 1_565 S
C84 C85 1.378 1_565 S
C84 C89 1.400 . S
C85 H69 0.939 . S
C85 C84 1.378 1_545 S
C85 C86 1.361 . S
C86 H70 0.943 . S
C86 C85 1.361 . S
C86 C87 1.368 1_545 S
C87 C86 1.368 1_565 S
C87 C88 1.404 . S
C88 H71 0.940 . S
C88 C87 1.404 . S
C88 C89 1.389 . S
C89 H72 0.939 . S
C89 C84 1.400 . S
C89 C88 1.389 . S
C90 P64 1.819 1_565 S
C90 C91 1.391 1_565 S
C90 C95 1.391 . S
C91 H73 0.941 . S
C91 C90 1.391 1_545 S
C91 C92 1.396 1_545 S
C92 H76 0.939 1_565 S
C92 C91 1.396 1_565 S
C92 C93 1.397 . S
C93 C92 1.397 . S
C93 C94 1.385 . S
C94 H77 0.940 . S
C94 C93 1.385 . S
C94 C95 1.388 . S
C95 H74 0.939 . S
C95 C90 1.391 . S
C95 C94 1.388 . S
P96 O107 1.490 . S
P96 C110 1.812 . S
P96 C116 1.803 . S
P96 C122 1.819 . S
H97 C111 0.941 . S
H98 C112 0.939 . S
H99 C114 0.940 . S
H100 C115 0.940 . S
H101 C117 0.939 . S
H102 C118 0.942 . S
H103 C120 0.940 . S
H104 C121 0.939 . S
H105 C123 0.941 . S
H106 C127 0.939 . S
O107 P96 1.490 . S
H108 C124 0.939 . S
H109 C126 0.940 . S
C110 P96 1.812 . S
C110 C111 1.389 . S
C110 C115 1.391 . S
C111 H97 0.941 . S
C111 C110 1.389 . S
C111 C112 1.397 . S
C112 H98 0.939 . S
C112 C111 1.397 . S
C112 C113 1.378 . S
C113 C112 1.378 . S
C113 C114 1.378 . S
C114 H99 0.940 . S
C114 C113 1.378 . S
C114 C115 1.396 . S
C115 H100 0.940 . S
C115 C110 1.391 . S
C115 C114 1.396 . S
C116 P96 1.803 . S
C116 C117 1.378 . S
C116 C121 1.400 . S
C117 H101 0.939 . S
C117 C116 1.378 . S
C117 C118 1.361 . S
C118 H102 0.942 . S
C118 C117 1.361 . S
C118 C119 1.369 . S
C119 C118 1.369 . S
C119 C120 1.404 . S
C120 H103 0.940 . S
C120 C119 1.404 . S
C120 C121 1.389 . S
C121 H104 0.939 . S
C121 C116 1.400 . S
C121 C120 1.389 . S
C122 P96 1.819 . S
C122 C123 1.391 . S
C122 C127 1.391 . S
C123 H105 0.941 . S
C123 C122 1.391 . S
C123 C124 1.396 . S
C124 H108 0.939 . S
C124 C123 1.396 . S
C124 C125 1.397 . S
C125 C124 1.397 . S
C125 C126 1.385 . S
C126 H109 0.940 . S
C126 C125 1.385 . S
C126 C127 1.388 . S
C127 H106 0.939 . S
C127 C122 1.391 . S
C127 C126 1.388 . S
P128 O139 1.490 . S
P128 C142 1.812 1_554 S
P128 C148 1.803 . S
P128 C154 1.819 . S
H129 C143 0.941 . S
H130 C144 0.939 . S
H131 C146 0.940 . S
H132 C147 0.940 . S
H133 C149 0.939 . S
H134 C150 0.942 . S
H135 C152 0.940 . S
H136 C153 0.939 . S
H137 C155 0.941 . S
H138 C159 0.939 . S
O139 P128 1.490 . S
H140 C156 0.939 . S
H141 C158 0.940 . S
C142 P128 1.812 1_556 S
C142 C143 1.389 . S
C142 C147 1.391 . S
C143 H129 0.941 . S
C143 C142 1.389 . S
C143 C144 1.397 . S
C144 H130 0.939 . S
C144 C143 1.397 . S
C144 C145 1.378 . S
C145 C144 1.378 . S
C145 C146 1.378 . S
C146 H131 0.940 . S
C146 C145 1.378 . S
C146 C147 1.396 . S
C147 H132 0.940 . S
C147 C142 1.391 . S
C147 C146 1.396 . S
C148 P128 1.803 . S
C148 C149 1.378 . S
C148 C153 1.400 . S
C149 H133 0.939 . S
C149 C148 1.378 . S
C149 C150 1.361 . S
C150 H134 0.942 . S
C150 C149 1.361 . S
C150 C151 1.369 . S
C151 C150 1.369 . S
C151 C152 1.404 . S
C152 H135 0.940 . S
C152 C151 1.404 . S
C152 C153 1.389 . S
C153 H136 0.939 . S
C153 C148 1.400 . S
C153 C152 1.389 . S
C154 P128 1.819 . S
C154 C155 1.391 . S
C154 C159 1.391 . S
C155 H137 0.941 . S
C155 C154 1.391 . S
C155 C156 1.396 . S
C156 H140 0.939 . S
C156 C155 1.396 . S
C156 C157 1.397 . S
C157 C156 1.397 . S
C157 C158 1.385 . S
C158 H141 0.940 . S
C158 C157 1.385 . S
C158 C159 1.388 . S
C159 H138 0.939 . S
C159 C154 1.391 . S
C159 C158 1.388 . S
P160 O171 1.490 . S
P160 C174 1.812 1_554 S
P160 C180 1.803 . S
P160 C186 1.819 . S
H161 C175 0.941 . S
H162 C176 0.939 . S
H163 C178 0.940 . S
H164 C179 0.948 . S
H165 C181 0.939 . S
H166 C182 0.942 . S
H167 C184 0.940 . S
H168 C185 0.939 . S
H169 C187 0.941 . S
H170 C191 0.939 . S
O171 P160 1.490 . S
H172 C188 0.939 . S
H173 C190 0.940 . S
C174 P160 1.812 1_556 S
C174 C175 1.389 . S
C174 C179 1.391 . S
C175 H161 0.941 . S
C175 C174 1.389 . S
C175 C176 1.397 . S
C176 H162 0.939 . S
C176 C175 1.397 . S
C176 C177 1.378 . S
C177 C176 1.378 . S
C177 C178 1.378 . S
C178 H163 0.940 . S
C178 C177 1.378 . S
C178 C179 1.396 . S
C179 H164 0.948 . S
C179 C174 1.391 . S
C179 C178 1.396 . S
C180 P160 1.803 . S
C180 C181 1.378 . S
C180 C185 1.400 . S
C181 H165 0.939 . S
C181 C180 1.378 . S
C181 C182 1.361 . S
C182 H166 0.942 . S
C182 C181 1.361 . S
C182 C183 1.369 . S
C183 C182 1.369 . S
C183 C184 1.404 . S
C184 H167 0.940 . S
C184 C183 1.404 . S
C184 C185 1.389 . S
C185 H168 0.939 . S
C185 C180 1.400 . S
C185 C184 1.389 . S
C186 P160 1.819 . S
C186 C187 1.391 . S
C186 C191 1.391 . S
C187 H169 0.941 . S
C187 C186 1.391 . S
C187 C188 1.396 . S
C188 H172 0.939 . S
C188 C187 1.396 . S
C188 C189 1.397 . S
C189 C188 1.397 . S
C189 C190 1.385 . S
C190 H173 0.940 . S
C190 C189 1.385 . S
C190 C191 1.388 . S
C191 H170 0.939 . S
C191 C186 1.391 . S
C191 C190 1.388 . S
P192 O203 1.490 . S
P192 C206 1.812 1_554 S
P192 C212 1.803 . S
P192 C218 1.819 . S
H193 C207 0.941 . S
H194 C208 0.939 . S
H195 C210 0.940 . S
H196 C211 0.953 . S
H197 C213 0.939 . S
H198 C214 0.942 . S
H199 C216 0.940 . S
H200 C217 0.939 . S
H201 C219 0.941 . S
H202 C223 0.939 . S
O203 P192 1.490 . S
H204 C220 0.939 . S
H205 C222 0.940 . S
C206 P192 1.812 1_556 S
C206 C207 1.389 . S
C206 C211 1.391 . S
C207 H193 0.941 . S
C207 C206 1.389 . S
C207 C208 1.397 . S
C208 H194 0.939 . S
C208 C207 1.397 . S
C208 C209 1.378 . S
C209 C208 1.378 . S
C209 C210 1.378 . S
C210 H195 0.940 . S
C210 C209 1.378 . S
C210 C211 1.396 . S
C211 H196 0.953 . S
C211 C206 1.391 . S
C211 C210 1.396 . S
C212 P192 1.803 . S
C212 C213 1.378 . S
C212 C217 1.400 . S
C213 H197 0.939 . S
C213 C212 1.378 . S
C213 C214 1.361 . S
C214 H198 0.942 . S
C214 C213 1.361 . S
C214 C215 1.369 . S
C215 C214 1.369 . S
C215 C216 1.404 . S
C216 H199 0.940 . S
C216 C215 1.404 . S
C216 C217 1.389 . S
C217 H200 0.939 . S
C217 C212 1.400 . S
C217 C216 1.389 . S
C218 P192 1.819 . S
C218 C219 1.391 . S
C218 C223 1.391 . S
C219 H201 0.941 . S
C219 C218 1.391 . S
C219 C220 1.396 . S
C220 H204 0.939 . S
C220 C219 1.396 . S
C220 C221 1.397 . S
C221 C220 1.397 . S
C221 C222 1.385 . S
C222 H205 0.940 . S
C222 C221 1.385 . S
C222 C223 1.388 . S
C223 H202 0.939 . S
C223 C218 1.391 . S
C223 C222 1.388 . S
P224 O235 1.490 . S
P224 C238 1.812 1_554 S
P224 C244 1.803 . S
P224 C250 1.819 . S
H225 C239 0.941 . S
H226 C240 0.939 . S
H227 C242 0.940 . S
H228 C243 0.940 . S
H229 C245 0.939 . S
H230 C246 0.942 . S
H231 C248 0.940 . S
H232 C249 0.939 . S
H233 C251 0.941 . S
H234 C255 0.939 . S
O235 P224 1.490 . S
H236 C252 0.939 . S
H237 C254 0.940 . S
C238 P224 1.812 1_556 S
C238 C239 1.389 . S
C238 C243 1.391 . S
C239 H225 0.941 . S
C239 C238 1.389 . S
C239 C240 1.397 . S
C240 H226 0.939 . S
C240 C239 1.397 . S
C240 C241 1.378 . S
C241 C240 1.378 . S
C241 C242 1.378 . S
C242 H227 0.940 . S
C242 C241 1.378 . S
C242 C243 1.396 . S
C243 H228 0.940 . S
C243 C238 1.391 . S
C243 C242 1.396 . S
C244 P224 1.803 . S
C244 C245 1.378 . S
C244 C249 1.400 . S
C245 H229 0.939 . S
C245 C244 1.378 . S
C245 C246 1.361 . S
C246 H230 0.942 . S
C246 C245 1.361 . S
C246 C247 1.369 . S
C247 C246 1.369 . S
C247 C248 1.404 . S
C248 H231 0.940 . S
C248 C247 1.404 . S
C248 C249 1.389 . S
C249 H232 0.939 . S
C249 C244 1.400 . S
C249 C248 1.389 . S
C250 P224 1.819 . S
C250 C251 1.391 . S
C250 C255 1.391 . S
C251 H233 0.941 . S
C251 C250 1.391 . S
C251 C252 1.396 . S
C252 H236 0.939 . S
C252 C251 1.396 . S
C252 C253 1.397 . S
C253 C252 1.397 . S
C253 C254 1.385 . S
C254 H237 0.940 . S
C254 C253 1.385 . S
C254 C255 1.388 . S
C255 H234 0.939 . S
C255 C250 1.391 . S
C255 C254 1.388 . S
Tb256 N285 2.617 . S
Tb256 N291 2.572 . S
Tb256 O300 2.465 . S
Tb256 O301 2.387 1_545 S
Tb256 O303 2.428 . S
Tb256 O304 2.308 1_655 S
Tb256 O308 2.349 1_655 S
Tb256 O311 2.393 . S
Tb256 C320 2.802 . S
C257 N258 1.379 . S
C257 C260 1.416 . S
C257 C264 1.424 . S
N258 C257 1.379 . S
N258 C261 1.334 1_545 S
N258 Tb267 2.617 1_545 S
C259 C261 1.389 1_545 S
C259 C262 1.339 . S
C259 H279 0.930 . S
C260 C257 1.416 . S
C260 C262 1.416 . S
C260 C266 1.448 . S
C261 N258 1.334 1_565 S
C261 C259 1.389 1_565 S
C261 H272 0.931 . S
C262 C259 1.339 . S
C262 C260 1.416 . S
C262 H283 0.930 . S
C263 C264 1.413 . S
C263 C265 1.427 . S
C263 C269 1.416 . S
C264 C257 1.424 . S
C264 C263 1.413 . S
C264 N268 1.361 . S
C265 C263 1.427 . S
C265 C266 1.328 . S
C265 H280 0.929 . S
C266 C260 1.448 . S
C266 C265 1.328 . S
C266 H281 0.930 . S
Tb267 N258 2.617 1_565 S
Tb267 N268 2.572 1_565 S
Tb267 O302 2.349 . S
Tb267 O305 2.393 . S
Tb267 O306 2.465 . S
Tb267 O307 2.387 1_565 S
Tb267 O309 2.428 . S
Tb267 O310 2.308 1_465 S
Tb267 C331 2.802 . S
N268 C264 1.361 . S
N268 Tb267 2.572 1_545 S
N268 C270 1.340 . S
C269 C263 1.416 . S
C269 C271 1.332 . S
C269 H277 0.931 1_556 S
C270 N268 1.340 . S
C270 C271 1.407 . S
C270 H276 0.909 1_455 S
C271 C269 1.332 . S
C271 C270 1.407 . S
C271 H273 0.929 . S
H272 C261 0.931 . S
H273 C271 0.929 . S
H274 C289 0.930 . S
H275 C296 0.929 1_455 S
H276 C270 0.909 1_655 S
H277 C269 0.931 1_554 S
H278 C292 0.930 1_455 S
H279 C259 0.930 . S
H280 C265 0.929 . S
H281 C266 0.930 . S
H282 C287 0.930 . S
H283 C262 0.930 . S
H284 C295 0.931 . S
N285 Tb256 2.617 . S
N285 C286 1.379 . S
N285 C289 1.334 . S
C286 N285 1.379 . S
C286 C288 1.416 1_545 S
C286 C294 1.424 . S
C287 H282 0.930 . S
C287 C289 1.390 . S
C287 C290 1.339 1_545 S
C288 C286 1.416 1_565 S
C288 C290 1.416 . S
C288 C321 1.448 . S
C289 H274 0.930 . S
C289 N285 1.334 . S
C289 C287 1.390 . S
C290 C287 1.339 1_565 S
C290 C288 1.416 . S
C290 H297 0.930 . S
N291 Tb256 2.572 . S
N291 C292 1.340 . S
N291 C294 1.361 . S
C292 H278 0.930 1_655 S
C292 N291 1.340 . S
C292 C296 1.407 1_545 S
C293 C294 1.413 1_565 S
C293 C295 1.416 . S
C293 C322 1.427 . S
C294 C286 1.424 . S
C294 N291 1.361 . S
C294 C293 1.413 1_545 S
C295 H284 0.931 . S
C295 C293 1.416 . S
C295 C296 1.332 . S
C296 H275 0.929 1_655 S
C296 C292 1.407 1_565 S
C296 C295 1.332 . S
H297 C290 0.930 . S
H298 C321 0.930 . S
H299 C322 0.929 . S
O300 Tb256 2.465 . S
O300 C320 1.264 . S
O301 Tb256 2.387 1_565 S
O301 C312 1.264 . S
O302 Tb267 2.349 . S
O302 C312 1.243 1_455 S
O303 Tb256 2.428 . S
O303 C320 1.256 . S
O304 Tb256 2.308 1_455 S
O304 C319 1.266 . S
O305 Tb267 2.393 . S
O305 C319 1.248 1_565 S
O306 Tb267 2.465 . S
O306 C331 1.264 . S
O307 Tb267 2.387 1_545 S
O307 C323 1.264 . S
O308 Tb256 2.349 1_455 S
O308 C323 1.243 . S
O309 Tb267 2.428 . S
O309 C331 1.256 . S
O310 Tb267 2.308 1_645 S
O310 C330 1.266 . S
O311 Tb256 2.393 . S
O311 C330 1.248 . S
C312 O301 1.264 . S
C312 O302 1.243 1_655 S
C313 C316 1.399 . S
C313 C318 1.383 . S
C313 C320 1.496 . S
C314 C315 1.399 . S
C314 C318 1.389 . S
C315 C314 1.399 . S
C315 C317 1.380 . S
C315 H332 0.929 . S
C316 C313 1.399 . S
C316 C317 1.392 . S
C316 H333 0.929 . S
C317 C315 1.380 . S
C317 C316 1.392 . S
C317 H334 0.929 . S
C318 C313 1.383 . S
C318 C314 1.389 . S
C318 H335 0.931 1_655 S
C319 O304 1.266 . S
C319 O305 1.248 1_545 S
C320 Tb256 2.802 . S
C320 O300 1.264 . S
C320 O303 1.256 . S
C320 C313 1.496 . S
C321 C288 1.448 . S
C321 H298 0.930 . S
C321 C322 1.328 . S
C322 C293 1.427 . S
C322 H299 0.929 . S
C322 C321 1.328 . S
C323 O307 1.264 . S
C323 O308 1.243 . S
C324 C327 1.399 . S
C324 C328 1.383 . S
C324 C331 1.496 . S
C325 C326 1.399 . S
C325 C328 1.389 . S
C326 C325 1.399 . S
C326 C329 1.380 . S
C326 H336 0.929 . S
C327 C324 1.399 . S
C327 C329 1.392 . S
C327 H337 0.929 . S
C328 C324 1.383 . S
C328 C325 1.389 . S
C328 H338 0.931 . S
C329 C326 1.380 . S
C329 C327 1.392 . S
C329 H339 0.929 . S
C330 O310 1.266 . S
C330 O311 1.248 . S
C331 Tb267 2.802 . S
C331 O306 1.264 . S
C331 O309 1.256 . S
C331 C324 1.496 . S
H332 C315 0.929 . S
H333 C316 0.929 . S
H334 C317 0.929 . S
H335 C318 0.931 1_455 S
H336 C326 0.929 . S
H337 C327 0.929 . S
H338 C328 0.931 . S
H339 C329 0.929 . S
Tb340 N369 2.617 . S
Tb340 N375 2.572 . S
Tb340 O384 2.465 . S
Tb340 O385 2.387 . S
Tb340 O387 2.428 . S
Tb340 O388 2.308 . S
Tb340 O392 2.349 1_545 S
Tb340 O395 2.393 . S
Tb340 C404 2.802 . S
C341 N342 1.379 . S
C341 C344 1.416 . S
C341 C348 1.424 . S
N342 C341 1.379 . S
N342 C345 1.334 . S
N342 Tb351 2.617 . S
C343 C345 1.390 . S
C343 C346 1.339 . S
C343 H363 0.930 . S
C344 C341 1.416 . S
C344 C346 1.416 . S
C344 C350 1.448 . S
C345 N342 1.334 . S
C345 C343 1.390 . S
C345 H356 0.930 . S
C346 C343 1.339 . S
C346 C344 1.416 . S
C346 H367 0.930 . S
C347 C348 1.413 . S
C347 C349 1.427 . S
C347 C353 1.416 . S
C348 C341 1.424 . S
C348 C347 1.413 . S
C348 N352 1.361 . S
C349 C347 1.427 . S
C349 C350 1.328 . S
C349 H364 0.929 . S
C350 C344 1.448 . S
C350 C349 1.328 . S
C350 H365 0.930 . S
Tb351 N342 2.617 . S
Tb351 N352 2.572 . S
Tb351 O386 2.349 1_565 S
Tb351 O389 2.393 . S
Tb351 O390 2.465 . S
Tb351 O391 2.387 . S
Tb351 O393 2.428 . S
Tb351 O394 2.308 1_565 S
Tb351 C415 2.802 . S
N352 C348 1.361 . S
N352 Tb351 2.572 . S
N352 C354 1.340 . S
C353 C347 1.416 . S
C353 C355 1.332 . S
C353 H361 0.931 . S
C354 N352 1.340 . S
C354 C355 1.407 . S
C354 H360 0.930 . S
C355 C353 1.332 . S
C355 C354 1.407 . S
C355 H357 0.929 . S
H356 C345 0.930 . S
H357 C355 0.929 . S
H358 C373 0.930 . S
H359 C380 0.929 . S
H360 C354 0.930 . S
H361 C353 0.931 . S
H362 C376 0.930 . S
H363 C343 0.930 . S
H364 C349 0.929 . S
H365 C350 0.930 . S
H366 C371 0.930 . S
H367 C346 0.930 . S
H368 C379 0.931 . S
N369 Tb340 2.617 . S
N369 C370 1.379 . S
N369 C373 1.334 . S
C370 N369 1.379 . S
C370 C372 1.416 . S
C370 C378 1.424 . S
C371 H366 0.930 . S
C371 C373 1.390 . S
C371 C374 1.339 . S
C372 C370 1.416 . S
C372 C374 1.416 . S
C372 C405 1.448 . S
C373 H358 0.930 . S
C373 N369 1.334 . S
C373 C371 1.390 . S
C374 C371 1.339 . S
C374 C372 1.416 . S
C374 H381 0.930 . S
N375 Tb340 2.572 . S
N375 C376 1.340 . S
N375 C378 1.361 . S
C376 H362 0.930 . S
C376 N375 1.340 . S
C376 C380 1.407 . S
C377 C378 1.413 . S
C377 C379 1.416 . S
C377 C406 1.427 . S
C378 C370 1.424 . S
C378 N375 1.361 . S
C378 C377 1.413 . S
C379 H368 0.931 . S
C379 C377 1.416 . S
C379 C380 1.332 . S
C380 H359 0.929 . S
C380 C376 1.407 . S
C380 C379 1.332 . S
H381 C374 0.930 . S
H382 C405 0.930 . S
H383 C406 0.929 . S
O384 Tb340 2.465 . S
O384 C404 1.264 . S
O385 Tb340 2.387 . S
O385 C396 1.264 . S
O386 Tb351 2.349 1_545 S
O386 C396 1.243 . S
O387 Tb340 2.428 . S
O387 C404 1.256 . S
O388 Tb340 2.308 . S
O388 C403 1.266 1_545 S
O389 Tb351 2.393 . S
O389 C403 1.248 . S
O390 Tb351 2.465 . S
O390 C415 1.264 . S
O391 Tb351 2.387 . S
O391 C407 1.264 . S
O392 Tb340 2.349 1_565 S
O392 C407 1.243 . S
O393 Tb351 2.428 . S
O393 C415 1.256 . S
O394 Tb351 2.308 1_545 S
O394 C414 1.266 . S
O395 Tb340 2.393 . S
O395 C414 1.248 . S
C396 O385 1.264 . S
C396 O386 1.243 . S
C397 C400 1.399 . S
C397 C402 1.383 . S
C397 C404 1.496 . S
C398 C399 1.399 . S
C398 C402 1.389 . S
C399 C398 1.399 . S
C399 C401 1.380 . S
C399 H416 0.929 1_556 S
C400 C397 1.399 . S
C400 C401 1.392 . S
C400 H417 0.929 . S
C401 C399 1.380 . S
C401 C400 1.392 . S
C401 H418 0.929 1_556 S
C402 C397 1.383 . S
C402 C398 1.389 . S
C402 H419 0.931 . S
C403 O388 1.266 1_565 S
C403 O389 1.248 . S
C404 Tb340 2.802 . S
C404 O384 1.264 . S
C404 O387 1.256 . S
C404 C397 1.496 . S
C405 C372 1.448 . S
C405 H382 0.930 . S
C405 C406 1.328 . S
C406 C377 1.427 . S
C406 H383 0.929 . S
C406 C405 1.328 . S
C407 O391 1.264 . S
C407 O392 1.243 . S
C408 C411 1.399 . S
C408 C412 1.383 . S
C408 C415 1.496 . S
C409 C410 1.396 1_545 S
C409 C412 1.389 1_545 S
C410 C409 1.396 1_565 S
C410 C413 1.380 . S
C410 H420 0.929 . S
C411 C408 1.399 . S
C411 C413 1.392 . S
C411 H421 0.929 . S
C412 C408 1.383 . S
C412 C409 1.389 1_565 S
C412 H422 0.931 1_565 S
C413 C410 1.380 . S
C413 C411 1.392 . S
C413 H423 0.929 . S
C414 O394 1.266 . S
C414 O395 1.248 . S
C415 Tb351 2.802 . S
C415 O390 1.264 . S
C415 O393 1.256 . S
C415 C408 1.496 . S
H416 C399 0.929 1_554 S
H417 C400 0.929 . S
H418 C401 0.929 1_554 S
H419 C402 0.931 . S
H420 C410 0.929 . S
H421 C411 0.929 . S
H422 C412 0.931 1_545 S
H423 C413 0.929 . S
Tb424 N453 2.617 . S
Tb424 N459 2.572 . S
Tb424 O468 2.465 . S
Tb424 O469 2.387 . S
Tb424 O471 2.428 . S
Tb424 O472 2.308 . S
Tb424 O476 2.349 . S
Tb424 O479 2.393 . S
Tb424 C488 2.802 . S
C425 N426 1.379 . S
C425 C428 1.416 . S
C425 C432 1.424 . S
N426 C425 1.379 . S
N426 C429 1.334 . S
N426 Tb435 2.617 . S
C427 C429 1.390 . S
C427 C430 1.339 . S
C427 H447 0.930 . S
C428 C425 1.416 . S
C428 C430 1.416 . S
C428 C434 1.448 . S
C429 N426 1.334 . S
C429 C427 1.390 . S
C429 H440 0.930 . S
C430 C427 1.339 . S
C430 C428 1.416 . S
C430 H451 0.930 . S
C431 C432 1.413 . S
C431 C433 1.427 . S
C431 C437 1.416 . S
C432 C425 1.424 . S
C432 C431 1.413 . S
C432 N436 1.361 . S
C433 C431 1.427 . S
C433 C434 1.328 . S
C433 H448 0.929 . S
C434 C428 1.448 . S
C434 C433 1.328 . S
C434 H449 0.930 . S
Tb435 N426 2.617 . S
Tb435 N436 2.572 . S
Tb435 O470 2.349 . S
Tb435 O473 2.393 . S
Tb435 O474 2.465 . S
Tb435 O475 2.387 . S
Tb435 O477 2.428 . S
Tb435 O478 2.308 . S
Tb435 C499 2.802 . S
N436 C432 1.361 . S
N436 Tb435 2.572 . S
N436 C438 1.340 . S
C437 C431 1.416 . S
C437 C439 1.332 . S
C437 H445 0.931 1_556 S
C438 N436 1.340 . S
C438 C439 1.407 . S
C438 H444 0.930 . S
C439 C437 1.332 . S
C439 C438 1.407 . S
C439 H441 0.929 . S
H440 C429 0.930 . S
H441 C439 0.929 . S
H442 C457 0.930 . S
H443 C464 0.929 . S
H444 C438 0.930 . S
H445 C437 0.931 1_554 S
H446 C460 0.930 . S
H447 C427 0.930 . S
H448 C433 0.929 . S
H449 C434 0.930 . S
H450 C455 0.930 . S
H451 C430 0.930 . S
H452 C463 0.931 . S
N453 Tb424 2.617 . S
N453 C454 1.379 . S
N453 C457 1.334 . S
C454 N453 1.379 . S
C454 C456 1.416 . S
C454 C462 1.424 . S
C455 H450 0.930 . S
C455 C457 1.390 . S
C455 C458 1.339 . S
C456 C454 1.416 . S
C456 C458 1.416 . S
C456 C489 1.448 . S
C457 H442 0.930 . S
C457 N453 1.334 . S
C457 C455 1.390 . S
C458 C455 1.339 . S
C458 C456 1.416 . S
C458 H465 0.930 . S
N459 Tb424 2.572 . S
N459 C460 1.340 . S
N459 C462 1.361 . S
C460 H446 0.930 . S
C460 N459 1.340 . S
C460 C464 1.407 . S
C461 C462 1.413 . S
C461 C463 1.416 . S
C461 C490 1.427 . S
C462 C454 1.424 . S
C462 N459 1.361 . S
C462 C461 1.413 . S
C463 H452 0.931 . S
C463 C461 1.416 . S
C463 C464 1.332 . S
C464 H443 0.929 . S
C464 C460 1.407 . S
C464 C463 1.332 . S
H465 C458 0.930 . S
H466 C489 0.930 . S
H467 C490 0.929 . S
O468 Tb424 2.465 . S
O468 C488 1.264 . S
O469 Tb424 2.387 . S
O469 C480 1.264 . S
O470 Tb435 2.349 . S
O470 C480 1.243 . S
O471 Tb424 2.428 . S
O471 C488 1.256 . S
O472 Tb424 2.308 . S
O472 C487 1.266 . S
O473 Tb435 2.393 . S
O473 C487 1.248 . S
O474 Tb435 2.465 . S
O474 C499 1.264 . S
O475 Tb435 2.387 . S
O475 C491 1.264 . S
O476 Tb424 2.349 . S
O476 C491 1.243 . S
O477 Tb435 2.428 . S
O477 C499 1.256 . S
O478 Tb435 2.308 . S
O478 C498 1.266 . S
O479 Tb424 2.393 . S
O479 C498 1.248 . S
C480 O469 1.264 . S
C480 O470 1.243 . S
C481 C484 1.399 . S
C481 C486 1.383 . S
C481 C488 1.496 . S
C482 C483 1.399 . S
C482 C486 1.389 . S
C483 C482 1.399 . S
C483 C485 1.380 . S
C483 H500 0.929 . S
C484 C481 1.399 . S
C484 C485 1.392 . S
C484 H501 0.929 . S
C485 C483 1.380 . S
C485 C484 1.392 . S
C485 H502 0.929 . S
C486 C481 1.383 . S
C486 C482 1.389 . S
C486 H503 0.931 . S
C487 O472 1.266 . S
C487 O473 1.248 . S
C488 Tb424 2.802 . S
C488 O468 1.264 . S
C488 O471 1.256 . S
C488 C481 1.496 . S
C489 C456 1.448 . S
C489 H466 0.930 . S
C489 C490 1.328 . S
C490 C461 1.427 . S
C490 H467 0.929 . S
C490 C489 1.328 . S
C491 O475 1.264 . S
C491 O476 1.243 . S
C492 C495 1.399 . S
C492 C496 1.383 . S
C492 C499 1.496 . S
C493 C494 1.399 . S
C493 C496 1.389 . S
C494 C493 1.399 . S
C494 C497 1.380 . S
C494 H504 0.929 . S
C495 C492 1.399 . S
C495 C497 1.392 . S
C495 H505 0.929 . S
C496 C492 1.383 . S
C496 C493 1.389 . S
C496 H506 0.931 . S
C497 C494 1.380 . S
C497 C495 1.392 . S
C497 H507 0.929 . S
C498 O478 1.266 . S
C498 O479 1.248 . S
C499 Tb435 2.802 . S
C499 O474 1.264 . S
C499 O477 1.256 . S
C499 C492 1.496 . S
H500 C483 0.929 . S
H501 C484 0.929 . S
H502 C485 0.929 . S
H503 C486 0.931 . S
H504 C494 0.929 . S
H505 C495 0.929 . S
H506 C496 0.931 . S
H507 C497 0.929 . S
Tb508 N537 2.617 . S
Tb508 N543 2.572 . S
Tb508 O552 2.465 . S
Tb508 O553 2.387 1_455 S
Tb508 O555 2.428 . S
Tb508 O556 2.308 . S
Tb508 O560 2.349 . S
Tb508 O563 2.393 . S
Tb508 C572 2.802 . S
C509 N510 1.379 1_455 S
C509 C512 1.416 . S
C509 C516 1.424 . S
N510 C509 1.379 1_655 S
N510 C513 1.334 . S
N510 Tb519 2.617 . S
C511 C513 1.390 1_455 S
C511 C514 1.339 . S
C511 H531 0.932 . S
C512 C509 1.416 . S
C512 C514 1.416 . S
C512 C518 1.448 . S
C513 N510 1.334 . S
C513 C511 1.390 1_655 S
C513 H524 0.930 . S
C514 C511 1.339 . S
C514 C512 1.416 . S
C514 H535 0.930 . S
C515 C516 1.413 . S
C515 C517 1.427 . S
C515 C521 1.416 . S
C516 C509 1.424 . S
C516 C515 1.413 . S
C516 N520 1.361 . S
C517 C515 1.427 . S
C517 C518 1.328 . S
C517 H532 0.929 . S
C518 C512 1.448 . S
C518 C517 1.328 . S
C518 H533 0.930 . S
Tb519 N510 2.617 . S
Tb519 N520 2.572 1_655 S
Tb519 O554 2.349 . S
Tb519 O557 2.393 . S
Tb519 O558 2.465 . S
Tb519 O559 2.387 1_655 S
Tb519 O561 2.428 . S
Tb519 O562 2.308 . S
Tb519 C583 2.802 . S
N520 C516 1.361 . S
N520 Tb519 2.572 1_455 S
N520 C522 1.340 . S
C521 C515 1.416 . S
C521 C523 1.332 . S
C521 H529 0.931 1_556 S
C522 N520 1.340 . S
C522 C523 1.407 . S
C522 H528 0.930 1_455 S
C523 C521 1.332 . S
C523 C522 1.407 . S
C523 H525 0.929 . S
H524 C513 0.930 . S
H525 C523 0.929 . S
H526 C541 0.930 . S
H527 C548 0.929 . S
H528 C522 0.930 1_655 S
H529 C521 0.931 1_554 S
H530 C544 0.930 . S
H531 C511 0.932 . S
H532 C517 0.929 . S
H533 C518 0.930 . S
H534 C539 0.930 . S
H535 C514 0.930 . S
H536 C547 0.931 . S
N537 Tb508 2.617 . S
N537 C538 1.379 . S
N537 C541 1.334 . S
C538 N537 1.379 . S
C538 C540 1.416 1_455 S
C538 C546 1.421 1_455 S
C539 H534 0.930 . S
C539 C541 1.390 . S
C539 C542 1.339 1_455 S
C540 C538 1.416 1_655 S
C540 C542 1.416 . S
C540 C573 1.448 . S
C541 H526 0.930 . S
C541 N537 1.334 . S
C541 C539 1.390 . S
C542 C539 1.339 1_655 S
C542 C540 1.416 . S
C542 H549 0.930 . S
N543 Tb508 2.572 . S
N543 C544 1.340 . S
N543 C546 1.353 1_455 S
C544 H530 0.930 . S
C544 N543 1.340 . S
C544 C548 1.407 1_455 S
C545 C546 1.423 . S
C545 C547 1.416 . S
C545 C574 1.427 . S
C546 C538 1.421 1_655 S
C546 N543 1.353 1_655 S
C546 C545 1.423 . S
C547 H536 0.931 . S
C547 C545 1.416 . S
C547 C548 1.332 . S
C548 H527 0.929 . S
C548 C544 1.407 1_655 S
C548 C547 1.332 . S
H549 C542 0.930 . S
H550 C573 0.930 . S
H551 C574 0.929 . S
O552 Tb508 2.465 . S
O552 C572 1.264 . S
O553 Tb508 2.387 1_655 S
O553 C564 1.264 . S
O554 Tb519 2.349 . S
O554 C564 1.243 . S
O555 Tb508 2.428 . S
O555 C572 1.256 . S
O556 Tb508 2.308 . S
O556 C571 1.266 . S
O557 Tb519 2.393 . S
O557 C571 1.248 1_655 S
O558 Tb519 2.465 . S
O558 C583 1.264 . S
O559 Tb519 2.387 1_455 S
O559 C575 1.264 . S
O560 Tb508 2.349 . S
O560 C575 1.243 . S
O561 Tb519 2.428 . S
O561 C583 1.256 . S
O562 Tb519 2.308 . S
O562 C582 1.266 1_655 S
O563 Tb508 2.393 . S
O563 C582 1.248 . S
C564 O553 1.264 . S
C564 O554 1.243 . S
C565 C568 1.399 . S
C565 C570 1.383 . S
C565 C572 1.496 . S
C566 C567 1.399 . S
C566 C570 1.389 . S
C567 C566 1.399 . S
C567 C569 1.380 . S
C567 H584 0.929 . S
C568 C565 1.399 . S
C568 C569 1.392 . S
C568 H585 0.929 . S
C569 C567 1.380 . S
C569 C568 1.392 . S
C569 H586 0.929 . S
C570 C565 1.383 . S
C570 C566 1.389 . S
C570 H587 0.931 . S
C571 O556 1.266 . S
C571 O557 1.248 1_455 S
C572 Tb508 2.802 . S
C572 O552 1.264 . S
C572 O555 1.256 . S
C572 C565 1.496 . S
C573 C540 1.448 . S
C573 H550 0.930 . S
C573 C574 1.328 . S
C574 C545 1.427 . S
C574 H551 0.929 . S
C574 C573 1.328 . S
C575 O559 1.264 . S
C575 O560 1.243 . S
C576 C579 1.399 . S
C576 C580 1.383 . S
C576 C583 1.496 . S
C577 C578 1.399 . S
C577 C580 1.389 . S
C578 C577 1.399 . S
C578 C581 1.380 . S
C578 H588 0.929 . S
C579 C576 1.399 . S
C579 C581 1.392 . S
C579 H589 0.929 . S
C580 C576 1.383 . S
C580 C577 1.389 . S
C580 H590 0.931 . S
C581 C578 1.380 . S
C581 C579 1.392 . S
C581 H591 0.929 . S
C582 O562 1.266 1_455 S
C582 O563 1.248 . S
C583 Tb519 2.802 . S
C583 O558 1.264 . S
C583 O561 1.256 . S
C583 C576 1.496 . S
H584 C567 0.929 . S
H585 C568 0.929 . S
H586 C569 0.929 . S
H587 C570 0.931 . S
H588 C578 0.929 . S
H589 C579 0.929 . S
H590 C580 0.931 . S
H591 C581 0.929 . S
H592 C604 0.930 . S
H593 C606 0.930 . S
H594 C607 0.930 . S
H595 C611 0.959 1_545 S
H596 C611 0.959 . S
H597 C611 0.961 . S
H598 C612 0.960 . S
H599 C612 0.961 . S
H600 C612 0.959 . S
H601 C615 0.929 . S
H602 C616 0.931 . S
H603 C618 0.930 1_565 S
C604 H592 0.930 . S
C604 C605 1.399 . S
C604 C609 1.399 . S
C605 C604 1.399 . S
C605 C606 1.376 . S
C606 H593 0.930 . S
C606 C605 1.376 . S
C606 C607 1.388 . S
C607 H594 0.930 . S
C607 C606 1.388 . S
C607 C608 1.390 . S
C608 C607 1.390 . S
C608 C609 1.394 . S
C608 C614 1.465 . S
C609 C604 1.399 . S
C609 C608 1.394 . S
C609 C610 1.516 . S
C610 C609 1.516 . S
C610 C611 1.502 1_545 S
C610 C612 1.561 1_545 S
C610 C613 1.526 . S
C611 H595 0.959 1_565 S
C611 H596 0.959 . S
C611 H597 0.961 . S
C611 C610 1.502 1_565 S
C612 H598 0.960 . S
C612 H599 0.961 . S
C612 H600 0.959 . S
C612 C610 1.561 1_565 S
C613 C610 1.526 . S
C613 C614 1.396 . S
C613 C618 1.390 . S
C614 C608 1.465 . S
C614 C613 1.396 . S
C614 C615 1.399 . S
C615 H601 0.929 . S
C615 C614 1.399 . S
C615 C616 1.385 . S
C616 H602 0.931 . S
C616 C615 1.385 . S
C616 C617 1.389 . S
C617 C616 1.389 . S
C617 C618 1.387 . S
C618 H603 0.930 1_545 S
C618 C613 1.390 . S
C618 C617 1.387 . S
H619 C631 0.930 . S
H620 C633 0.930 . S
H621 C634 0.930 . S
H622 C638 0.959 . S
H623 C638 0.959 . S
H624 C638 0.961 . S
H625 C639 0.960 . S
H626 C639 0.961 . S
H627 C639 0.959 . S
H628 C642 0.929 . S
H629 C643 0.931 . S
H630 C645 0.930 . S
C631 H619 0.930 . S
C631 C632 1.399 . S
C631 C636 1.399 . S
C632 C631 1.399 . S
C632 C633 1.376 . S
C633 H620 0.930 . S
C633 C632 1.376 . S
C633 C634 1.388 . S
C634 H621 0.930 . S
C634 C633 1.388 . S
C634 C635 1.390 . S
C635 C634 1.390 . S
C635 C636 1.394 . S
C635 C641 1.465 . S
C636 C631 1.399 . S
C636 C635 1.394 . S
C636 C637 1.516 . S
C637 C636 1.516 . S
C637 C638 1.502 . S
C637 C639 1.561 . S
C637 C640 1.526 . S
C638 H622 0.959 . S
C638 H623 0.959 . S
C638 H624 0.961 . S
C638 C637 1.502 . S
C639 H625 0.960 . S
C639 H626 0.961 . S
C639 H627 0.959 . S
C639 C637 1.561 . S
C640 C637 1.526 . S
C640 C641 1.396 . S
C640 C645 1.390 . S
C641 C635 1.465 . S
C641 C640 1.396 . S
C641 C642 1.399 . S
C642 H628 0.929 . S
C642 C641 1.399 . S
C642 C643 1.385 . S
C643 H629 0.931 . S
C643 C642 1.385 . S
C643 C644 1.389 . S
C644 C643 1.389 . S
C644 C645 1.387 . S
C645 H630 0.930 . S
C645 C640 1.390 . S
C645 C644 1.387 . S
H646 C658 0.930 . S
H647 C660 0.930 . S
H648 C661 0.930 . S
H649 C665 0.959 . S
H650 C665 0.959 . S
H651 C665 0.961 . S
H652 C666 0.960 . S
H653 C666 0.961 . S
H654 C666 0.959 . S
H655 C669 0.929 . S
H656 C670 0.931 . S
H657 C672 0.930 . S
C658 H646 0.930 . S
C658 C659 1.399 . S
C658 C663 1.399 . S
C659 C658 1.399 . S
C659 C660 1.376 . S
C660 H647 0.930 . S
C660 C659 1.376 . S
C660 C661 1.388 . S
C661 H648 0.930 . S
C661 C660 1.388 . S
C661 C662 1.390 . S
C662 C661 1.390 . S
C662 C663 1.394 . S
C662 C668 1.465 . S
C663 C658 1.399 . S
C663 C662 1.394 . S
C663 C664 1.516 . S
C664 C663 1.516 . S
C664 C665 1.502 . S
C664 C666 1.561 . S
C664 C667 1.526 . S
C665 H649 0.959 . S
C665 H650 0.959 . S
C665 H651 0.961 . S
C665 C664 1.502 . S
C666 H652 0.960 . S
C666 H653 0.961 . S
C666 H654 0.959 . S
C666 C664 1.561 . S
C667 C664 1.526 . S
C667 C668 1.396 . S
C667 C672 1.390 . S
C668 C662 1.465 . S
C668 C667 1.396 . S
C668 C669 1.399 . S
C669 H655 0.929 . S
C669 C668 1.399 . S
C669 C670 1.385 . S
C670 H656 0.931 . S
C670 C669 1.385 . S
C670 C671 1.389 . S
C671 C670 1.389 . S
C671 C672 1.387 . S
C672 H657 0.930 . S
C672 C667 1.390 . S
C672 C671 1.387 . S
H673 C685 0.930 . S
H674 C687 0.955 . S
H675 C688 0.930 1_655 S
H676 C692 0.959 . S
H677 C692 0.959 . S
H678 C692 0.961 . S
H679 C693 0.960 . S
H680 C693 0.961 . S
H681 C693 0.959 . S
H682 C696 0.929 . S
H683 C697 0.931 . S
H684 C699 0.930 . S
C685 H673 0.930 . S
C685 C686 1.399 . S
C685 C690 1.399 . S
C686 C685 1.399 . S
C686 C687 1.376 . S
C687 H674 0.955 . S
C687 C686 1.376 . S
C687 C688 1.388 . S
C688 H675 0.930 1_455 S
C688 C687 1.388 . S
C688 C689 1.390 . S
C689 C688 1.390 . S
C689 C690 1.394 . S
C689 C695 1.465 . S
C690 C685 1.399 . S
C690 C689 1.394 . S
C690 C691 1.516 . S
C691 C690 1.516 . S
C691 C692 1.502 . S
C691 C693 1.561 . S
C691 C694 1.526 . S
C692 H676 0.959 . S
C692 H677 0.959 . S
C692 H678 0.961 . S
C692 C691 1.502 . S
C693 H679 0.960 . S
C693 H680 0.961 . S
C693 H681 0.959 . S
C693 C691 1.561 . S
C694 C691 1.526 . S
C694 C695 1.396 . S
C694 C699 1.390 . S
C695 C689 1.465 . S
C695 C694 1.396 . S
C695 C696 1.399 1_455 S
C696 H682 0.929 . S
C696 C695 1.399 1_655 S
C696 C697 1.385 . S
C697 H683 0.931 . S
C697 C696 1.385 . S
C697 C698 1.389 1_655 S
C698 C697 1.389 1_455 S
C698 C699 1.387 . S
C699 H684 0.930 . S
C699 C694 1.390 . S
C699 C698 1.387 . S
H700 C712 0.930 . S
H701 C714 0.930 1_545 S
H702 C715 0.930 . S
H703 C719 0.959 . S
H704 C719 0.959 1_556 S
H705 C719 0.961 . S
H706 C720 0.960 . S
H707 C720 0.961 . S
H708 C720 0.959 . S
H709 C723 0.929 . S
H710 C724 0.931 . S
H711 C726 0.930 . S
C712 H700 0.930 . S
C712 C713 1.399 . S
C712 C717 1.399 . S
C713 C712 1.399 . S
C713 C714 1.376 . S
C714 H701 0.930 1_565 S
C714 C713 1.376 . S
C714 C715 1.388 1_565 S
C715 H702 0.930 . S
C715 C714 1.388 1_545 S
C715 C716 1.390 1_544 S
C716 C715 1.390 1_566 S
C716 C717 1.394 1_556 S
C716 C722 1.465 . S
C717 C712 1.399 . S
C717 C716 1.394 1_554 S
C717 C718 1.516 1_554 S
C718 C717 1.516 1_556 S
C718 C719 1.502 1_556 S
C718 C720 1.561 . S
C718 C721 1.526 . S
C719 H703 0.959 . S
C719 H704 0.959 1_554 S
C719 H705 0.961 . S
C719 C718 1.502 1_554 S
C720 H706 0.960 . S
C720 H707 0.961 . S
C720 H708 0.959 . S
C720 C718 1.561 . S
C721 C718 1.526 . S
C721 C722 1.396 . S
C721 C726 1.390 . S
C722 C716 1.465 . S
C722 C721 1.396 . S
C722 C723 1.399 1_565 S
C723 H709 0.929 . S
C723 C722 1.399 1_545 S
C723 C724 1.385 . S
C724 H710 0.931 . S
C724 C723 1.385 . S
C724 C725 1.369 1_545 S
C725 C724 1.369 1_565 S
C725 C726 1.408 . S
C726 H711 0.930 . S
C726 C721 1.390 . S
C726 C725 1.408 . S
H727 C739 0.930 . S
H728 C741 0.930 . S
H729 C742 0.930 . S
H730 C746 0.959 . S
H731 C746 0.959 . S
H732 C746 0.961 . S
H733 C747 0.960 . S
H734 C747 0.961 . S
H735 C747 0.959 . S
H736 C750 0.929 . S
H737 C751 0.931 . S
H738 C753 0.930 . S
C739 H727 0.930 . S
C739 C740 1.399 . S
C739 C744 1.399 . S
C740 C739 1.399 . S
C740 C741 1.376 . S
C741 H728 0.930 . S
C741 C740 1.376 . S
C741 C742 1.388 . S
C742 H729 0.930 . S
C742 C741 1.388 . S
C742 C743 1.390 . S
C743 C742 1.390 . S
C743 C744 1.394 . S
C743 C749 1.465 1_554 S
C744 C739 1.399 . S
C744 C743 1.394 . S
C744 C745 1.516 1_554 S
C745 C744 1.516 1_556 S
C745 C746 1.502 . S
C745 C747 1.561 . S
C745 C748 1.526 . S
C746 H730 0.959 . S
C746 H731 0.959 . S
C746 H732 0.961 . S
C746 C745 1.502 . S
C747 H733 0.960 . S
C747 H734 0.961 . S
C747 H735 0.959 . S
C747 C745 1.561 . S
C748 C745 1.526 . S
C748 C749 1.396 . S
C748 C753 1.390 . S
C749 C743 1.465 1_556 S
C749 C748 1.396 . S
C749 C750 1.399 . S
C750 H736 0.929 . S
C750 C749 1.399 . S
C750 C751 1.385 . S
C751 H737 0.931 . S
C751 C750 1.385 . S
C751 C752 1.389 . S
C752 C751 1.389 . S
C752 C753 1.387 . S
C753 H738 0.930 . S
C753 C748 1.390 . S
C753 C752 1.387 . S
H754 C766 0.930 . S
H755 C768 0.930 . S
H756 C769 0.930 . S
H757 C773 0.959 . S
H758 C773 0.959 . S
H759 C773 0.961 . S
H760 C774 0.960 1_554 S
H761 C774 0.961 . S
H762 C774 0.959 1_554 S
H763 C777 0.929 . S
H764 C778 0.931 . S
H765 C780 0.930 . S
C766 H754 0.930 . S
C766 C767 1.399 . S
C766 C771 1.399 . S
C767 C766 1.399 . S
C767 C768 1.376 . S
C768 H755 0.930 . S
C768 C767 1.376 . S
C768 C769 1.388 . S
C769 H756 0.930 . S
C769 C768 1.388 . S
C769 C770 1.390 . S
C770 C769 1.390 . S
C770 C771 1.394 . S
C770 C776 1.465 1_554 S
C771 C766 1.399 . S
C771 C770 1.394 . S
C771 C772 1.516 1_554 S
C772 C771 1.516 1_556 S
C772 C773 1.502 . S
C772 C774 1.561 . S
C772 C775 1.526 . S
C773 H757 0.959 . S
C773 H758 0.959 . S
C773 H759 0.961 . S
C773 C772 1.502 . S
C774 H760 0.960 1_556 S
C774 H761 0.961 . S
C774 H762 0.959 1_556 S
C774 C772 1.561 . S
C775 C772 1.526 . S
C775 C776 1.396 . S
C775 C780 1.390 . S
C776 C770 1.465 1_556 S
C776 C775 1.396 . S
C776 C777 1.399 . S
C777 H763 0.929 . S
C777 C776 1.399 . S
C777 C778 1.385 . S
C778 H764 0.931 . S
C778 C777 1.385 . S
C778 C779 1.389 . S
C779 C778 1.389 . S
C779 C780 1.387 . S
C780 H765 0.930 . S
C780 C775 1.390 . S
C780 C779 1.387 . S
H781 C793 0.930 . S
H782 C795 0.930 . S
H783 C796 0.930 . S
H784 C800 0.959 . S
H785 C800 0.959 . S
H786 C800 0.961 . S
H787 C801 0.960 . S
H788 C801 0.961 . S
H789 C801 0.959 . S
H790 C804 0.936 . S
H791 C805 0.931 1_455 S
H792 C807 0.930 . S
C793 H781 0.930 . S
C793 C794 1.399 . S
C793 C798 1.399 . S
C794 C793 1.399 . S
C794 C795 1.376 . S
C795 H782 0.930 . S
C795 C794 1.376 . S
C795 C796 1.388 . S
C796 H783 0.930 . S
C796 C795 1.388 . S
C796 C797 1.390 . S
C797 C796 1.390 . S
C797 C798 1.394 . S
C797 C803 1.465 1_554 S
C798 C793 1.399 . S
C798 C797 1.394 . S
C798 C799 1.516 1_554 S
C799 C798 1.516 1_556 S
C799 C800 1.502 . S
C799 C801 1.561 1_655 S
C799 C802 1.526 . S
C800 H784 0.959 . S
C800 H785 0.959 . S
C800 H786 0.961 . S
C800 C799 1.502 . S
C801 H787 0.960 . S
C801 H788 0.961 . S
C801 H789 0.959 . S
C801 C799 1.561 1_455 S
C802 C799 1.526 . S
C802 C803 1.396 . S
C802 C807 1.390 . S
C803 C797 1.465 1_556 S
C803 C802 1.396 . S
C803 C804 1.399 . S
C804 H790 0.936 . S
C804 C803 1.399 . S
C804 C805 1.385 . S
C805 H791 0.931 1_655 S
C805 C804 1.385 . S
C805 C806 1.389 . S
C806 C805 1.389 . S
C806 C807 1.387 . S
C807 H792 0.930 . S
C807 C802 1.390 . S
C807 C806 1.387 . S
H808 C820 0.930 . S
H809 C822 0.930 . S
H810 C823 0.930 1_655 S
H811 C827 0.959 . S
H812 C827 0.959 . S
H813 C827 0.961 . S
H814 C828 0.960 . S
H815 C828 0.961 . S
H816 C828 0.959 . S
H817 C831 0.929 . S
H818 C832 0.931 . S
H819 C834 0.930 . S
C820 H808 0.930 . S
C820 C821 1.399 . S
C820 C825 1.399 . S
C821 C820 1.399 . S
C821 C822 1.376 . S
C822 H809 0.930 . S
C822 C821 1.376 . S
C822 C823 1.388 . S
C823 H810 0.930 1_455 S
C823 C822 1.388 . S
C823 C824 1.390 . S
C824 C823 1.390 . S
C824 C825 1.394 . S
C824 C830 1.465 . S
C825 C820 1.399 . S
C825 C824 1.394 . S
C825 C826 1.516 . S
C826 C825 1.516 . S
C826 C827 1.502 . S
C826 C828 1.561 . S
C826 C829 1.526 . S
C827 H811 0.959 . S
C827 H812 0.959 . S
C827 H813 0.961 . S
C827 C826 1.502 . S
C828 H814 0.960 . S
C828 H815 0.961 . S
C828 H816 0.959 . S
C828 C826 1.561 . S
C829 C826 1.526 . S
C829 C830 1.396 . S
C829 C834 1.390 . S
C830 C824 1.465 . S
C830 C829 1.396 . S
C830 C831 1.399 1_455 S
C831 H817 0.929 . S
C831 C830 1.399 1_655 S
C831 C832 1.385 . S
C832 H818 0.931 . S
C832 C831 1.385 . S
C832 C833 1.389 . S
C833 C832 1.389 . S
C833 C834 1.387 1_655 S
C834 H819 0.930 . S
C834 C829 1.390 . S
C834 C833 1.387 1_455 S
H835 C847 0.930 . S
H836 C849 0.930 . S
H837 C850 0.930 . S
H838 C854 0.959 . S
H839 C854 0.959 . S
H840 C854 0.961 . S
H841 C855 0.960 . S
H842 C855 0.961 . S
H843 C855 0.959 . S
H844 C858 0.929 . S
H845 C859 0.931 . S
H846 C861 0.930 . S
C847 H835 0.930 . S
C847 C848 1.399 . S
C847 C852 1.399 . S
C848 C847 1.399 . S
C848 C849 1.376 . S
C849 H836 0.930 . S
C849 C848 1.376 . S
C849 C850 1.388 . S
C850 H837 0.930 . S
C850 C849 1.388 . S
C850 C851 1.390 . S
C851 C850 1.390 . S
C851 C852 1.394 . S
C851 C857 1.465 . S
C852 C847 1.399 . S
C852 C851 1.394 . S
C852 C853 1.516 1_545 S
C853 C852 1.516 1_565 S
C853 C854 1.502 . S
C853 C855 1.561 . S
C853 C856 1.526 1_565 S
C854 H838 0.959 . S
C854 H839 0.959 . S
C854 H840 0.961 . S
C854 C853 1.502 . S
C855 H841 0.960 . S
C855 H842 0.961 . S
C855 H843 0.959 . S
C855 C853 1.561 . S
C856 C853 1.526 1_545 S
C856 C857 1.396 . S
C856 C861 1.390 1_545 S
C857 C851 1.465 . S
C857 C856 1.396 . S
C857 C858 1.399 . S
C858 H844 0.929 . S
C858 C857 1.399 . S
C858 C859 1.385 . S
C859 H845 0.931 . S
C859 C858 1.385 . S
C859 C860 1.389 . S
C860 C859 1.389 . S
C860 C861 1.387 1_545 S
C861 H846 0.930 . S
C861 C856 1.390 1_565 S
C861 C860 1.387 1_565 S
H862 C874 0.930 . S
H863 C876 0.930 . S
H864 C877 0.930 . S
H865 C881 0.959 . S
H866 C881 0.959 . S
H867 C881 0.961 . S
H868 C882 0.960 . S
H869 C882 0.961 . S
H870 C882 0.959 . S
H871 C885 0.929 . S
H872 C886 0.931 . S
H873 C888 0.930 . S
C874 H862 0.930 . S
C874 C875 1.399 . S
C874 C879 1.399 . S
C875 C874 1.399 . S
C875 C876 1.376 . S
C876 H863 0.930 . S
C876 C875 1.376 . S
C876 C877 1.388 . S
C877 H864 0.930 . S
C877 C876 1.388 . S
C877 C878 1.390 . S
C878 C877 1.390 . S
C878 C879 1.394 . S
C878 C884 1.465 . S
C879 C874 1.399 . S
C879 C878 1.394 . S
C879 C880 1.516 . S
C880 C879 1.516 . S
C880 C881 1.502 . S
C880 C882 1.561 . S
C880 C883 1.526 . S
C881 H865 0.959 . S
C881 H866 0.959 . S
C881 H867 0.961 . S
C881 C880 1.502 . S
C882 H868 0.960 . S
C882 H869 0.961 . S
C882 H870 0.959 . S
C882 C880 1.561 . S
C883 C880 1.526 . S
C883 C884 1.396 . S
C883 C888 1.390 . S
C884 C878 1.465 . S
C884 C883 1.396 . S
C884 C885 1.399 . S
C885 H871 0.929 . S
C885 C884 1.399 . S
C885 C886 1.385 . S
C886 H872 0.931 . S
C886 C885 1.385 . S
C886 C887 1.389 . S
C887 C886 1.389 . S
C887 C888 1.387 . S
C888 H873 0.930 . S
C888 C883 1.390 . S
C888 C887 1.387 . S
H889 C901 0.930 . S
H890 C903 0.930 . S
H891 C904 0.930 . S
H892 C908 0.959 . S
H893 C908 0.959 . S
H894 C908 0.961 . S
H895 C909 0.960 . S
H896 C909 0.961 . S
H897 C909 0.959 . S
H898 C912 0.929 . S
H899 C913 0.931 . S
H900 C915 0.930 . S
C901 H889 0.930 . S
C901 C902 1.399 . S
C901 C906 1.399 . S
C902 C901 1.399 . S
C902 C903 1.376 . S
C903 H890 0.930 . S
C903 C902 1.376 . S
C903 C904 1.388 . S
C904 H891 0.930 . S
C904 C903 1.388 . S
C904 C905 1.390 . S
C905 C904 1.390 . S
C905 C906 1.394 . S
C905 C911 1.465 . S
C906 C901 1.399 . S
C906 C905 1.394 . S
C906 C907 1.516 . S
C907 C906 1.516 . S
C907 C908 1.502 . S
C907 C909 1.561 . S
C907 C910 1.526 . S
C908 H892 0.959 . S
C908 H893 0.959 . S
C908 H894 0.961 . S
C908 C907 1.502 . S
C909 H895 0.960 . S
C909 H896 0.961 . S
C909 H897 0.959 . S
C909 C907 1.561 . S
C910 C907 1.526 . S
C910 C911 1.396 . S
C910 C915 1.390 . S
C911 C905 1.465 . S
C911 C910 1.396 . S
C911 C912 1.399 . S
C912 H898 0.929 . S
C912 C911 1.399 . S
C912 C913 1.385 . S
C913 H899 0.931 . S
C913 C912 1.385 . S
C913 C914 1.389 . S
C914 C913 1.389 . S
C914 C915 1.387 . S
C915 H900 0.930 . S
C915 C910 1.390 . S
C915 C914 1.387 . S
H916 C928 0.930 . S
H917 C930 0.930 . S
H918 C931 0.930 . S
H919 C935 0.959 . S
H920 C935 0.959 . S
H921 C935 0.961 . S
H922 C936 0.960 . S
H923 C936 0.961 . S
H924 C936 0.959 . S
H925 C939 0.929 . S
H926 C940 0.931 . S
H927 C942 0.930 . S
C928 H916 0.930 . S
C928 C929 1.399 . S
C928 C933 1.398 1_554 S
C929 C928 1.399 . S
C929 C930 1.376 . S
C930 H917 0.930 . S
C930 C929 1.376 . S
C930 C931 1.388 . S
C931 H918 0.930 . S
C931 C930 1.388 . S
C931 C932 1.390 . S
C932 C931 1.390 . S
C932 C933 1.393 1_554 S
C932 C938 1.465 1_554 S
C933 C928 1.398 1_556 S
C933 C932 1.393 1_556 S
C933 C934 1.518 . S
C934 C933 1.518 . S
C934 C935 1.502 1_655 S
C934 C936 1.561 . S
C934 C937 1.526 . S
C935 H919 0.959 . S
C935 H920 0.959 . S
C935 H921 0.961 . S
C935 C934 1.502 1_455 S
C936 H922 0.960 . S
C936 H923 0.961 . S
C936 H924 0.959 . S
C936 C934 1.561 . S
C937 C934 1.526 . S
C937 C938 1.396 . S
C937 C942 1.390 1_655 S
C938 C932 1.465 1_556 S
C938 C937 1.396 . S
C938 C939 1.399 1_556 S
C939 H925 0.929 . S
C939 C938 1.399 1_554 S
C939 C940 1.385 1_654 S
C940 H926 0.931 . S
C940 C939 1.385 1_456 S
C940 C941 1.389 . S
C941 C940 1.389 . S
C941 C942 1.387 . S
C942 H927 0.930 . S
C942 C937 1.390 1_455 S
C942 C941 1.387 . S
H943 C955 0.930 1_545 S
H944 C957 0.930 . S
H945 C958 0.930 . S
H946 C962 0.959 . S
H947 C962 0.959 1_556 S
H948 C962 0.961 . S
H949 C963 0.960 . S
H950 C963 0.961 . S
H951 C963 0.959 . S
H952 C966 0.929 . S
H953 C967 0.931 . S
H954 C969 0.930 . S
C955 H943 0.930 1_565 S
C955 C956 1.399 . S
C955 C960 1.399 . S
C956 C955 1.399 . S
C956 C957 1.376 . S
C957 H944 0.930 . S
C957 C956 1.376 . S
C957 C958 1.388 . S
C958 H945 0.930 . S
C958 C957 1.388 . S
C958 C959 1.390 . S
C959 C958 1.390 . S
C959 C960 1.394 . S
C959 C965 1.465 1_554 S
C960 C955 1.399 . S
C960 C959 1.394 . S
C960 C961 1.516 1_564 S
C961 C960 1.516 1_546 S
C961 C962 1.502 1_556 S
C961 C963 1.561 . S
C961 C964 1.526 . S
C962 H946 0.959 . S
C962 H947 0.959 1_554 S
C962 H948 0.961 . S
C962 C961 1.502 1_554 S
C963 H949 0.960 . S
C963 H950 0.961 . S
C963 H951 0.959 . S
C963 C961 1.561 . S
C964 C961 1.526 . S
C964 C965 1.396 1_545 S
C964 C969 1.390 . S
C965 C959 1.465 1_556 S
C965 C964 1.396 1_565 S
C965 C966 1.399 . S
C966 H952 0.929 . S
C966 C965 1.399 . S
C966 C967 1.385 . S
C967 H953 0.931 . S
C967 C966 1.385 . S
C967 C968 1.389 1_565 S
C968 C967 1.389 1_545 S
C968 C969 1.387 . S
C969 H954 0.930 . S
C969 C964 1.390 . S
C969 C968 1.387 . S
H970 C982 0.930 . S
H971 C984 0.930 . S
H972 C985 0.930 . S
H973 C989 0.959 . S
H974 C989 0.959 . S
H975 C989 0.961 . S
H976 C990 0.960 . S
H977 C990 0.961 . S
H978 C990 0.959 . S
H979 C993 0.929 . S
H980 C994 0.931 . S
H981 C996 0.930 . S
C982 H970 0.930 . S
C982 C983 1.399 . S
C982 C987 1.399 . S
C983 C982 1.399 . S
C983 C984 1.376 . S
C984 H971 0.930 . S
C984 C983 1.376 . S
C984 C985 1.388 . S
C985 H972 0.930 . S
C985 C984 1.388 . S
C985 C986 1.390 . S
C986 C985 1.390 . S
C986 C987 1.394 . S
C986 C992 1.465 1_554 S
C987 C982 1.399 . S
C987 C986 1.394 . S
C987 C988 1.516 . S
C988 C987 1.516 . S
C988 C989 1.502 . S
C988 C990 1.561 1_554 S
C988 C991 1.526 1_554 S
C989 H973 0.959 . S
C989 H974 0.959 . S
C989 H975 0.961 . S
C989 C988 1.502 . S
C990 H976 0.960 . S
C990 H977 0.961 . S
C990 H978 0.959 . S
C990 C988 1.561 1_556 S
C991 C988 1.526 1_556 S
C991 C992 1.396 . S
C991 C996 1.390 . S
C992 C986 1.465 1_556 S
C992 C991 1.396 . S
C992 C993 1.399 . S
C993 H979 0.929 . S
C993 C992 1.399 . S
C993 C994 1.385 . S
C994 H980 0.931 . S
C994 C993 1.385 . S
C994 C995 1.389 . S
C995 C994 1.389 . S
C995 C996 1.387 . S
C996 H981 0.930 . S
C996 C991 1.390 . S
C996 C995 1.387 . S
H997 C1009 0.930 . S
H998 C1011 0.930 . S
H999 C1012 0.930 . S
H1000 C1016 0.959 . S
H1001 C1016 0.959 . S
H1002 C1016 0.961 . S
H1003 C1017 0.960 . S
H1004 C1017 0.961 . S
H1005 C1017 0.959 . S
H1006 C1020 0.929 . S
H1007 C1021 0.931 . S
H1008 C1023 0.930 . S
C1009 H997 0.930 . S
C1009 C1010 1.399 . S
C1009 C1014 1.399 . S
C1010 C1009 1.399 . S
C1010 C1011 1.376 . S
C1011 H998 0.930 . S
C1011 C1010 1.376 . S
C1011 C1012 1.388 . S
C1012 H999 0.930 . S
C1012 C1011 1.388 . S
C1012 C1013 1.390 . S
C1013 C1012 1.390 . S
C1013 C1014 1.394 . S
C1013 C1019 1.465 1_554 S
C1014 C1009 1.399 . S
C1014 C1013 1.394 . S
C1014 C1015 1.516 1_554 S
C1015 C1014 1.516 1_556 S
C1015 C1016 1.502 . S
C1015 C1017 1.561 1_556 S
C1015 C1018 1.526 . S
C1016 H1000 0.959 . S
C1016 H1001 0.959 . S
C1016 H1002 0.961 . S
C1016 C1015 1.502 . S
C1017 H1003 0.960 . S
C1017 H1004 0.961 . S
C1017 H1005 0.959 . S
C1017 C1015 1.561 1_554 S
C1018 C1015 1.526 . S
C1018 C1019 1.396 . S
C1018 C1023 1.390 . S
C1019 C1013 1.465 1_556 S
C1019 C1018 1.396 . S
C1019 C1020 1.399 . S
C1020 H1006 0.929 . S
C1020 C1019 1.399 . S
C1020 C1021 1.385 . S
C1021 H1007 0.931 . S
C1021 C1020 1.385 . S
C1021 C1022 1.389 . S
C1022 C1021 1.389 . S
C1022 C1023 1.387 . S
C1023 H1008 0.930 . S
C1023 C1018 1.390 . S
C1023 C1022 1.387 . S
H1024 C1036 0.930 . S
H1025 C1038 0.930 . S
H1026 C1039 0.930 . S
H1027 C1043 0.948 1_655 S
H1028 C1043 0.957 1_655 S
H1029 C1043 0.960 1_655 S
H1030 C1044 0.960 . S
H1031 C1044 0.961 . S
H1032 C1044 0.959 . S
H1033 C1047 0.929 . S
H1034 C1048 0.931 . S
H1035 C1050 0.930 . S
C1036 H1024 0.930 . S
C1036 C1037 1.399 . S
C1036 C1041 1.399 . S
C1037 C1036 1.399 . S
C1037 C1038 1.376 . S
C1038 H1025 0.930 . S
C1038 C1037 1.376 . S
C1038 C1039 1.388 . S
C1039 H1026 0.930 . S
C1039 C1038 1.388 . S
C1039 C1040 1.390 . S
C1040 C1039 1.390 . S
C1040 C1041 1.394 . S
C1040 C1046 1.465 . S
C1041 C1036 1.399 . S
C1041 C1040 1.394 . S
C1041 C1042 1.516 . S
C1042 C1041 1.516 . S
C1042 C1043 1.516 . S
C1042 C1044 1.561 . S
C1042 C1045 1.526 . S
C1043 H1027 0.948 1_455 S
C1043 H1028 0.957 1_455 S
C1043 H1029 0.960 1_455 S
C1043 C1042 1.516 . S
C1044 H1030 0.960 . S
C1044 H1031 0.961 . S
C1044 H1032 0.959 . S
C1044 C1042 1.561 . S
C1045 C1042 1.526 . S
C1045 C1046 1.396 . S
C1045 C1050 1.390 . S
C1046 C1040 1.465 . S
C1046 C1045 1.396 . S
C1046 C1047 1.399 . S
C1047 H1033 0.929 . S
C1047 C1046 1.399 . S
C1047 C1048 1.385 . S
C1048 H1034 0.931 . S
C1048 C1047 1.385 . S
C1048 C1049 1.389 . S
C1049 C1048 1.389 . S
C1049 C1050 1.387 . S
C1050 H1035 0.930 . S
C1050 C1045 1.390 . S
C1050 C1049 1.387 . S
H1051 C1063 0.930 . S
H1052 C1065 0.930 . S
H1053 C1066 0.930 . S
H1054 C1070 0.959 . S
H1055 C1070 0.959 1_565 S
H1056 C1070 0.961 . S
H1057 C1071 0.960 . S
H1058 C1071 0.961 . S
H1059 C1071 0.959 . S
H1060 C1074 0.929 . S
H1061 C1075 0.931 . S
H1062 C1077 0.930 . S
C1063 H1051 0.930 . S
C1063 C1064 1.399 . S
C1063 C1068 1.399 . S
C1064 C1063 1.399 . S
C1064 C1065 1.376 . S
C1065 H1052 0.930 . S
C1065 C1064 1.376 . S
C1065 C1066 1.388 . S
C1066 H1053 0.930 . S
C1066 C1065 1.388 . S
C1066 C1067 1.390 . S
C1067 C1066 1.390 . S
C1067 C1068 1.394 . S
C1067 C1073 1.465 . S
C1068 C1063 1.399 . S
C1068 C1067 1.394 . S
C1068 C1069 1.516 . S
C1069 C1068 1.516 . S
C1069 C1070 1.502 . S
C1069 C1071 1.561 1_545 S
C1069 C1072 1.526 . S
C1070 H1054 0.959 . S
C1070 H1055 0.959 1_545 S
C1070 H1056 0.961 . S
C1070 C1069 1.502 . S
C1071 H1057 0.960 . S
C1071 H1058 0.961 . S
C1071 H1059 0.959 . S
C1071 C1069 1.561 1_565 S
C1072 C1069 1.526 . S
C1072 C1073 1.396 . S
C1072 C1077 1.390 . S
C1073 C1067 1.465 . S
C1073 C1072 1.396 . S
C1073 C1074 1.399 . S
C1074 H1060 0.929 . S
C1074 C1073 1.399 . S
C1074 C1075 1.385 . S
C1075 H1061 0.931 . S
C1075 C1074 1.385 . S
C1075 C1076 1.389 . S
C1076 C1075 1.389 . S
C1076 C1077 1.387 . S
C1077 H1062 0.930 . S
C1077 C1072 1.390 . S
C1077 C1076 1.387 . S
H1078 C1090 0.930 . S
H1079 C1092 0.930 . S
H1080 C1093 0.930 . S
H1081 C1097 0.959 . S
H1082 C1097 0.959 . S
H1083 C1097 0.961 . S
H1084 C1098 0.960 . S
H1085 C1098 0.961 . S
H1086 C1098 0.959 . S
H1087 C1101 0.929 . S
H1088 C1102 0.931 . S
H1089 C1104 0.930 . S
C1090 H1078 0.930 . S
C1090 C1091 1.399 . S
C1090 C1095 1.399 . S
C1091 C1090 1.399 . S
C1091 C1092 1.376 . S
C1092 H1079 0.930 . S
C1092 C1091 1.376 . S
C1092 C1093 1.388 . S
C1093 H1080 0.930 . S
C1093 C1092 1.388 . S
C1093 C1094 1.390 . S
C1094 C1093 1.390 . S
C1094 C1095 1.394 . S
C1094 C1100 1.465 . S
C1095 C1090 1.399 . S
C1095 C1094 1.394 . S
C1095 C1096 1.516 . S
C1096 C1095 1.516 . S
C1096 C1097 1.502 . S
C1096 C1098 1.561 . S
C1096 C1099 1.526 . S
C1097 H1081 0.959 . S
C1097 H1082 0.959 . S
C1097 H1083 0.961 . S
C1097 C1096 1.502 . S
C1098 H1084 0.960 . S
C1098 H1085 0.961 . S
C1098 H1086 0.959 . S
C1098 C1096 1.561 . S
C1099 C1096 1.526 . S
C1099 C1100 1.396 . S
C1099 C1104 1.390 . S
C1100 C1094 1.465 . S
C1100 C1099 1.396 . S
C1100 C1101 1.399 . S
C1101 H1087 0.929 . S
C1101 C1100 1.399 . S
C1101 C1102 1.385 . S
C1102 H1088 0.931 . S
C1102 C1101 1.385 . S
C1102 C1103 1.389 . S
C1103 C1102 1.389 . S
C1103 C1104 1.387 . S
C1104 H1089 0.930 . S
C1104 C1099 1.390 . S
C1104 C1103 1.387 . S
H1105 C1117 0.930 . S
H1106 C1119 0.930 . S
H1107 C1120 0.930 . S
H1108 C1124 0.959 . S
H1109 C1124 0.959 . S
H1110 C1124 0.961 . S
H1111 C1125 0.960 . S
H1112 C1125 0.961 . S
H1113 C1125 0.959 . S
H1114 C1128 0.929 . S
H1115 C1129 0.931 . S
H1116 C1131 0.930 . S
C1117 H1105 0.930 . S
C1117 C1118 1.399 . S
C1117 C1122 1.399 . S
C1118 C1117 1.399 . S
C1118 C1119 1.376 . S
C1119 H1106 0.930 . S
C1119 C1118 1.376 . S
C1119 C1120 1.388 . S
C1120 H1107 0.930 . S
C1120 C1119 1.388 . S
C1120 C1121 1.390 . S
C1121 C1120 1.390 . S
C1121 C1122 1.394 . S
C1121 C1127 1.465 . S
C1122 C1117 1.399 . S
C1122 C1121 1.394 . S
C1122 C1123 1.516 . S
C1123 C1122 1.516 . S
C1123 C1124 1.502 . S
C1123 C1125 1.561 . S
C1123 C1126 1.526 . S
C1124 H1108 0.959 . S
C1124 H1109 0.959 . S
C1124 H1110 0.961 . S
C1124 C1123 1.502 . S
C1125 H1111 0.960 . S
C1125 H1112 0.961 . S
C1125 H1113 0.959 . S
C1125 C1123 1.561 . S
C1126 C1123 1.526 . S
C1126 C1127 1.396 . S
C1126 C1131 1.390 . S
C1127 C1121 1.465 . S
C1127 C1126 1.396 . S
C1127 C1128 1.399 . S
C1128 H1114 0.929 . S
C1128 C1127 1.399 . S
C1128 C1129 1.385 . S
C1129 H1115 0.931 . S
C1129 C1128 1.385 . S
C1129 C1130 1.389 . S
C1130 C1129 1.389 . S
C1130 C1131 1.387 . S
C1131 H1116 0.930 . S
C1131 C1126 1.390 . S
C1131 C1130 1.387 . S
H1132 C1144 0.930 . S
H1133 C1146 0.930 1_455 S
H1134 C1147 0.930 . S
H1135 C1151 0.959 . S
H1136 C1151 0.959 . S
H1137 C1151 0.961 . S
H1138 C1152 0.960 . S
H1139 C1152 0.961 . S
H1140 C1152 0.959 . S
H1141 C1155 0.929 . S
H1142 C1156 0.931 . S
H1143 C1158 0.930 . S
C1144 H1132 0.930 . S
C1144 C1145 1.399 . S
C1144 C1149 1.399 . S
C1145 C1144 1.399 . S
C1145 C1146 1.376 . S
C1146 H1133 0.930 1_655 S
C1146 C1145 1.376 . S
C1146 C1147 1.388 1_655 S
C1147 H1134 0.930 . S
C1147 C1146 1.388 1_455 S
C1147 C1148 1.390 1_455 S
C1148 C1147 1.390 1_655 S
C1148 C1149 1.394 . S
C1148 C1154 1.465 . S
C1149 C1144 1.399 . S
C1149 C1148 1.394 . S
C1149 C1150 1.516 . S
C1150 C1149 1.516 . S
C1150 C1151 1.502 . S
C1150 C1152 1.561 . S
C1150 C1153 1.526 . S
C1151 H1135 0.959 . S
C1151 H1136 0.959 . S
C1151 H1137 0.961 . S
C1151 C1150 1.502 . S
C1152 H1138 0.960 . S
C1152 H1139 0.961 . S
C1152 H1140 0.959 . S
C1152 C1150 1.561 . S
C1153 C1150 1.526 . S
C1153 C1154 1.396 . S
C1153 C1158 1.390 . S
C1154 C1148 1.465 . S
C1154 C1153 1.396 . S
C1154 C1155 1.399 1_655 S
C1155 H1141 0.929 . S
C1155 C1154 1.399 1_455 S
C1155 C1156 1.385 . S
C1156 H1142 0.931 . S
C1156 C1155 1.385 . S
C1156 C1157 1.389 1_455 S
C1157 C1156 1.389 1_655 S
C1157 C1158 1.387 . S
C1158 H1143 0.930 . S
C1158 C1153 1.390 . S
C1158 C1157 1.387 . S
H1159 C1171 0.930 . S
H1160 C1173 0.930 . S
H1161 C1174 0.930 . S
H1162 C1178 0.959 . S
H1163 C1178 0.959 . S
H1164 C1178 0.961 . S
H1165 C1179 0.960 . S
H1166 C1179 0.961 . S
H1167 C1179 0.959 . S
H1168 C1182 0.929 . S
H1169 C1183 0.931 . S
H1170 C1185 0.930 . S
C1171 H1159 0.930 . S
C1171 C1172 1.399 . S
C1171 C1176 1.399 . S
C1172 C1171 1.399 . S
C1172 C1173 1.376 . S
C1173 H1160 0.930 . S
C1173 C1172 1.376 . S
C1173 C1174 1.388 . S
C1174 H1161 0.930 . S
C1174 C1173 1.388 . S
C1174 C1175 1.390 . S
C1175 C1174 1.390 . S
C1175 C1176 1.394 . S
C1175 C1181 1.465 . S
C1176 C1171 1.399 . S
C1176 C1175 1.394 . S
C1176 C1177 1.516 . S
C1177 C1176 1.516 . S
C1177 C1178 1.502 . S
C1177 C1179 1.561 1_565 S
C1177 C1180 1.526 . S
C1178 H1162 0.959 . S
C1178 H1163 0.959 . S
C1178 H1164 0.961 . S
C1178 C1177 1.502 . S
C1179 H1165 0.960 . S
C1179 H1166 0.961 . S
C1179 H1167 0.959 . S
C1179 C1177 1.561 1_545 S
C1180 C1177 1.526 . S
C1180 C1181 1.396 . S
C1180 C1185 1.390 . S
C1181 C1175 1.465 . S
C1181 C1180 1.396 . S
C1181 C1182 1.399 . S
C1182 H1168 0.929 . S
C1182 C1181 1.399 . S
C1182 C1183 1.385 . S
C1183 H1169 0.931 . S
C1183 C1182 1.385 . S
C1183 C1184 1.389 . S
C1184 C1183 1.389 . S
C1184 C1185 1.387 . S
C1185 H1170 0.930 . S
C1185 C1180 1.390 . S
C1185 C1184 1.387 . S
H1186 C1198 0.930 . S
H1187 C1200 0.930 . S
H1188 C1201 0.930 . S
H1189 C1205 0.959 . S
H1190 C1205 0.959 . S
H1191 C1205 0.961 . S
H1192 C1206 0.960 . S
H1193 C1206 0.961 . S
H1194 C1206 0.959 . S
H1195 C1209 0.929 . S
H1196 C1210 0.931 . S
H1197 C1212 0.930 . S
C1198 H1186 0.930 . S
C1198 C1199 1.399 . S
C1198 C1203 1.399 . S
C1199 C1198 1.399 . S
C1199 C1200 1.376 . S
C1200 H1187 0.930 . S
C1200 C1199 1.376 . S
C1200 C1201 1.388 . S
C1201 H1188 0.930 . S
C1201 C1200 1.388 . S
C1201 C1202 1.390 . S
C1202 C1201 1.390 . S
C1202 C1203 1.394 . S
C1202 C1208 1.465 . S
C1203 C1198 1.399 . S
C1203 C1202 1.394 . S
C1203 C1204 1.516 . S
C1204 C1203 1.516 . S
C1204 C1205 1.502 . S
C1204 C1206 1.561 . S
C1204 C1207 1.526 . S
C1205 H1189 0.959 . S
C1205 H1190 0.959 . S
C1205 H1191 0.961 . S
C1205 C1204 1.502 . S
C1206 H1192 0.960 . S
C1206 H1193 0.961 . S
C1206 H1194 0.959 . S
C1206 C1204 1.561 . S
C1207 C1204 1.526 . S
C1207 C1208 1.396 . S
C1207 C1212 1.390 . S
C1208 C1202 1.465 . S
C1208 C1207 1.396 . S
C1208 C1209 1.399 . S
C1209 H1195 0.929 . S
C1209 C1208 1.399 . S
C1209 C1210 1.385 . S
C1210 H1196 0.931 . S
C1210 C1209 1.385 . S
C1210 C1211 1.389 . S
C1211 C1210 1.389 . S
C1211 C1212 1.387 . S
C1212 H1197 0.930 . S
C1212 C1207 1.390 . S
C1212 C1211 1.387 . S
H1213 C1225 0.930 . S
H1214 C1227 0.930 . S
H1215 C1228 0.930 . S
H1216 C1232 0.959 . S
H1217 C1232 0.959 . S
H1218 C1232 0.961 . S
H1219 C1233 0.960 . S
H1220 C1233 0.961 . S
H1221 C1233 0.959 . S
H1222 C1236 0.929 . S
H1223 C1237 0.931 . S
H1224 C1239 0.930 . S
C1225 H1213 0.930 . S
C1225 C1226 1.399 . S
C1225 C1230 1.399 . S
C1226 C1225 1.399 . S
C1226 C1227 1.376 . S
C1227 H1214 0.930 . S
C1227 C1226 1.376 . S
C1227 C1228 1.388 . S
C1228 H1215 0.930 . S
C1228 C1227 1.388 . S
C1228 C1229 1.390 . S
C1229 C1228 1.390 . S
C1229 C1230 1.394 . S
C1229 C1235 1.465 . S
C1230 C1225 1.399 . S
C1230 C1229 1.394 . S
C1230 C1231 1.516 . S
C1231 C1230 1.516 . S
C1231 C1232 1.502 . S
C1231 C1233 1.561 . S
C1231 C1234 1.526 . S
C1232 H1216 0.959 . S
C1232 H1217 0.959 . S
C1232 H1218 0.961 . S
C1232 C1231 1.502 . S
C1233 H1219 0.960 . S
C1233 H1220 0.961 . S
C1233 H1221 0.959 . S
C1233 C1231 1.561 . S
C1234 C1231 1.526 . S
C1234 C1235 1.396 . S
C1234 C1239 1.390 . S
C1235 C1229 1.465 . S
C1235 C1234 1.396 . S
C1235 C1236 1.399 . S
C1236 H1222 0.929 . S
C1236 C1235 1.399 . S
C1236 C1237 1.385 . S
C1237 H1223 0.931 . S
C1237 C1236 1.385 . S
C1237 C1238 1.389 . S
C1238 C1237 1.389 . S
C1238 C1239 1.387 . S
C1239 H1224 0.930 . S
C1239 C1234 1.390 . S
C1239 C1238 1.387 . S
C605 C215 2.096 . S
C617 C319 2.260 . S
C644 C396 2.230 . S
C632 C247 2.159 . S
C671 C487 2.219 . S
C659 C151 2.161 . S
C698 C571 2.215 . S
C686 C183 2.122 . S
C725 C330 2.236 1_565 S
C713 C87 2.023 . S
C740 C119 2.073 . S
C752 C407 2.242 . S
C767 C23 2.107 . S
C779 C498 2.240 . S
C794 C55 2.064 . S
C806 C582 2.203 1_655 S
C833 C314 0.472 . S
C821 C189 0.484 . S
C860 C409 0.566 . S
C848 C221 0.427 . S
C887 C482 0.486 . S
C875 C253 0.498 . S
C902 C157 0.470 . S
C914 C566 0.453 . S
C929 C61 0.650 . S
C941 C325 0.601 . S
C968 C398 0.540 . S
C956 C93 0.705 . S
C995 C493 0.612 . S
C983 C125 0.716 . S
C1010 C29 0.440 . S
C1022 C577 0.420 . S
C1037 C177 2.312 . S
C1049 C323 2.579 . S
C1064 C209 2.376 . S
C1076 C414 2.599 . S
C1103 C491 2.599 . S
C1091 C241 2.333 . S
C1130 C575 2.592 . S
C1118 C145 2.363 . S
C1145 C49 2.279 . S
C1157 C312 2.573 . S
C1184 C403 2.592 . S
C1172 C81 2.256 . S
C1211 C480 2.599 . S
C1199 C113 2.281 . S
C1226 C17 2.298 . S
C1238 C564 2.602 . S
