# Generated by pormake.
# Topology cml, (3,6)-cn, num edge types: 1
# Building blocks:
#     Node 0, Type 0, BuildingBlock: ESEHIV_clean_linker_0, # of connection points: 3
#     Node 1, Type 0, BuildingBlock: ESEHIV_clean_linker_0, # of connection points: 3
#     Node 2, Type 0, BuildingBlock: ESEHIV_clean_linker_0, # of connection points: 3
#     Node 3, Type 0, BuildingBlock: ESEHIV_clean_linker_0, # of connection points: 3
#     Node 4, Type 0, BuildingBlock: ESEHIV_clean_linker_0, # of connection points: 3
#     Node 5, Type 0, BuildingBlock: ESEHIV_clean_linker_0, # of connection points: 3
#     Node 6, Type 0, BuildingBlock: ESEHIV_clean_linker_0, # of connection points: 3
#     Node 7, Type 0, BuildingBlock: ESEHIV_clean_linker_0, # of connection points: 3
#     Node 8, Type 1, BuildingBlock: IZENUY_clean_sbu_0, # of connection points: 6
#     Node 9, Type 1, BuildingBlock: IZENUY_clean_sbu_0, # of connection points: 6
#     Node 10, Type 1, BuildingBlock: IZENUY_clean_sbu_0, # of connection points: 6
#     Node 11, Type 1, BuildingBlock: IZENUY_clean_sbu_0, # of connection points: 6
#     Edge 12, Type (0, 1), BuildingBlock: ZUJKAS_clean_linker_0, # of connection points: 2
#     Edge 13, Type (0, 1), BuildingBlock: ZUJKAS_clean_linker_0, # of connection points: 2
#     Edge 14, Type (0, 1), BuildingBlock: ZUJKAS_clean_linker_0, # of connection points: 2
#     Edge 15, Type (0, 1), BuildingBlock: ZUJKAS_clean_linker_0, # of connection points: 2
#     Edge 16, Type (0, 1), BuildingBlock: ZUJKAS_clean_linker_0, # of connection points: 2
#     Edge 17, Type (0, 1), BuildingBlock: ZUJKAS_clean_linker_0, # of connection points: 2
#     Edge 18, Type (0, 1), BuildingBlock: ZUJKAS_clean_linker_0, # of connection points: 2
#     Edge 19, Type (0, 1), BuildingBlock: ZUJKAS_clean_linker_0, # of connection points: 2
#     Edge 20, Type (0, 1), BuildingBlock: ZUJKAS_clean_linker_0, # of connection points: 2
#     Edge 21, Type (0, 1), BuildingBlock: ZUJKAS_clean_linker_0, # of connection points: 2
#     Edge 22, Type (0, 1), BuildingBlock: ZUJKAS_clean_linker_0, # of connection points: 2
#     Edge 23, Type (0, 1), BuildingBlock: ZUJKAS_clean_linker_0, # of connection points: 2
#     Edge 24, Type (0, 1), BuildingBlock: ZUJKAS_clean_linker_0, # of connection points: 2
#     Edge 25, Type (0, 1), BuildingBlock: ZUJKAS_clean_linker_0, # of connection points: 2
#     Edge 26, Type (0, 1), BuildingBlock: ZUJKAS_clean_linker_0, # of connection points: 2
#     Edge 27, Type (0, 1), BuildingBlock: ZUJKAS_clean_linker_0, # of connection points: 2
#     Edge 28, Type (0, 1), BuildingBlock: ZUJKAS_clean_linker_0, # of connection points: 2
#     Edge 29, Type (0, 1), BuildingBlock: ZUJKAS_clean_linker_0, # of connection points: 2
#     Edge 30, Type (0, 1), BuildingBlock: ZUJKAS_clean_linker_0, # of connection points: 2
#     Edge 31, Type (0, 1), BuildingBlock: ZUJKAS_clean_linker_0, # of connection points: 2
#     Edge 32, Type (0, 1), BuildingBlock: ZUJKAS_clean_linker_0, # of connection points: 2
#     Edge 33, Type (0, 1), BuildingBlock: ZUJKAS_clean_linker_0, # of connection points: 2
#     Edge 34, Type (0, 1), BuildingBlock: ZUJKAS_clean_linker_0, # of connection points: 2
#     Edge 35, Type (0, 1), BuildingBlock: ZUJKAS_clean_linker_0, # of connection points: 2
# Relax obj value: 0.055
# Max RMSD: 0.070
# Mean RMSD: 0.067
data_MOF--net-cml--node1-IZENUY_clean_sbu_0--node2-ESEHIV_clean_linker_0--edge1-ZUJKAS_clean_linker_0
_symmetry_space_group_name_H-M    P1
_symmetry_Int_Tables_number       1
_symmetry_cell_setting            triclinic
loop_
_symmetry_equiv_pos_as_xyz
'x, y, z'
_cell_length_a     43.900237
_cell_length_b     51.047606
_cell_length_c     47.391475
_cell_angle_alpha  90.026537
_cell_angle_beta   89.987375
_cell_angle_gamma 90.075818
loop_
_atom_site_label
_atom_site_type_symbol
_atom_site_fract_x
_atom_site_fract_y
_atom_site_fract_z
_atom_type_partial_charge
H0 H 0.32308 0.41466 0.02922 0.0
H1 H 0.26845 0.39395 0.95737 0.0
H2 H 0.26231 0.34878 0.03388 0.0
C3 C 0.30604 0.4022 0.01952 0.0
C4 C 0.29399 0.38103 0.03479 0.0
C5 C 0.29682 0.40714 0.99165 0.0
C6 C 0.27493 0.39074 0.97916 0.0
C7 C 0.26243 0.36949 0.99413 0.0
C8 C 0.27209 0.36484 0.02198 0.0
H9 H 0.68449 0.58661 0.52863 0.0
H10 H 0.74072 0.60553 0.45726 0.0
H11 H 0.74436 0.65325 0.53208 0.0
C12 C 0.7016 0.59894 0.51884 0.0
C13 C 0.71307 0.62069 0.53359 0.0
C14 C 0.71162 0.59321 0.49138 0.0
C15 C 0.73361 0.6094 0.47876 0.0
C16 C 0.74545 0.63121 0.49318 0.0
C17 C 0.73503 0.63671 0.52062 0.0
H18 H 0.6815 0.41053 0.03246 0.0
H19 H 0.73835 0.34222 0.02977 0.0
H20 H 0.73787 0.39602 0.95988 0.0
C21 C 0.69778 0.39839 0.02132 0.0
C22 C 0.70793 0.40592 0.99439 0.0
C23 C 0.70859 0.37547 0.03423 0.0
C24 C 0.73054 0.36029 0.02022 0.0
C25 C 0.74141 0.36763 0.99344 0.0
C26 C 0.72992 0.39045 0.98068 0.0
H27 H 0.32475 0.58897 0.53056 0.0
H28 H 0.26854 0.60579 0.45875 0.0
H29 H 0.26393 0.65481 0.53276 0.0
C30 C 0.30743 0.60091 0.52058 0.0
C31 C 0.29554 0.62267 0.53495 0.0
C32 C 0.29759 0.59456 0.49326 0.0
C33 C 0.27547 0.61026 0.48017 0.0
C34 C 0.26346 0.63235 0.49405 0.0
C35 C 0.27353 0.63825 0.52156 0.0
H36 H 0.82278 0.91483 0.03145 0.0
H37 H 0.7679 0.89717 0.95878 0.0
H38 H 0.76584 0.84649 0.03147 0.0
C39 C 0.80668 0.90223 0.02064 0.0
C40 C 0.79566 0.87987 0.03448 0.0
C41 C 0.79712 0.90856 0.99323 0.0
C42 C 0.77541 0.89249 0.97995 0.0
C43 C 0.76366 0.87016 0.99364 0.0
C44 C 0.7739 0.86406 0.02102 0.0
H45 H 0.17554 0.09335 0.52448 0.0
H46 H 0.23359 0.11004 0.45375 0.0
H47 H 0.23534 0.16013 0.52674 0.0
C48 C 0.19286 0.10541 0.51465 0.0
C49 C 0.20433 0.12739 0.52908 0.0
C50 C 0.20329 0.09899 0.48748 0.0
C51 C 0.22553 0.11484 0.47473 0.0
C52 C 0.23715 0.13701 0.48866 0.0
C53 C 0.22651 0.14306 0.51588 0.0
H54 H 0.17652 0.90974 0.02202 0.0
H55 H 0.23415 0.84181 0.02564 0.0
H56 H 0.23842 0.89321 0.95391 0.0
C57 C 0.19406 0.89759 0.0127 0.0
C58 C 0.2062 0.9043 0.9862 0.0
C59 C 0.20407 0.87517 0.02719 0.0
C60 C 0.2265 0.85929 0.0148 0.0
C61 C 0.23895 0.86566 0.98836 0.0
C62 C 0.22885 0.88828 0.97431 0.0
H63 H 0.8208 0.0839 0.5287 0.0
H64 H 0.76125 0.09898 0.45881 0.0
H65 H 0.7654 0.1533 0.52831 0.0
C66 C 0.80422 0.09642 0.51847 0.0
C67 C 0.79455 0.1195 0.53186 0.0
C68 C 0.79269 0.08909 0.49202 0.0
C69 C 0.77028 0.10465 0.4792 0.0
C70 C 0.75999 0.12775 0.49234 0.0
C71 C 0.77232 0.13502 0.51863 0.0
Fe72 Fe 0.00373 0.81358 0.31905 0.0
Fe73 Fe 0.00513 0.84367 0.37519 0.0
O74 O 0.00379 0.84362 0.33787 0.0
Fe75 Fe 0.00233 0.87367 0.31937 0.0
O76 O 0.96607 0.8651 0.30361 0.0
O77 O 0.97966 0.82563 0.29004 0.0
O78 O 0.96897 0.80293 0.33634 0.0
C79 C 0.96549 0.80145 0.36272 0.0
C80 C 0.04156 0.84261 0.28561 0.0
O81 O 0.98355 0.81315 0.37931 0.0
C82 C 0.04368 0.88611 0.36015 0.0
O83 O 0.02774 0.79614 0.34472 0.0
O84 O 0.04122 0.82647 0.37523 0.0
O85 O 0.02358 0.86177 0.28865 0.0
O86 O 0.03848 0.82219 0.30035 0.0
C87 C 0.96387 0.88279 0.36631 0.0
O88 O 0.02702 0.87426 0.37787 0.0
O89 O 0.03849 0.88421 0.33405 0.0
C90 C 0.04565 0.80454 0.36367 0.0
O91 O 0.96901 0.86089 0.37765 0.0
O92 O 0.98079 0.89116 0.34665 0.0
C93 C 0.96153 0.84492 0.28883 0.0
Fe94 Fe 0.00344 0.15762 0.8747 0.0
Fe95 Fe 0.00202 0.12861 0.81799 0.0
O96 O 0.00258 0.15833 0.83728 0.0
Fe97 Fe 0.00228 0.18883 0.81928 0.0
O98 O 0.02562 0.20602 0.84575 0.0
O99 O 0.03929 0.17513 0.87542 0.0
O100 O 0.02558 0.12723 0.8772 0.0
C101 C 0.04242 0.1156 0.85951 0.0
C102 C 0.96337 0.19967 0.86271 0.0
O103 O 0.03768 0.1179 0.83341 0.0
C104 C 0.96177 0.15745 0.78692 0.0
O105 O 0.96766 0.1399 0.87648 0.0
O106 O 0.97945 0.11065 0.84417 0.0
O107 O 0.96706 0.19845 0.83636 0.0
O108 O 0.98141 0.18791 0.87924 0.0
C109 C 0.04168 0.16102 0.78602 0.0
O110 O 0.9664 0.13698 0.80112 0.0
O111 O 0.97894 0.17726 0.78957 0.0
C112 C 0.96253 0.11846 0.86411 0.0
O113 O 0.02438 0.14128 0.78835 0.0
O114 O 0.03742 0.18128 0.80077 0.0
C115 C 0.04356 0.19735 0.86451 0.0
Fe116 Fe 0.50346 0.31432 0.32057 0.0
Fe117 Fe 0.50488 0.3449 0.37638 0.0
O118 O 0.50453 0.34452 0.33901 0.0
Fe119 Fe 0.5052 0.37441 0.32012 0.0
O120 O 0.46912 0.36713 0.30331 0.0
O121 O 0.48083 0.32691 0.29087 0.0
O122 O 0.46772 0.30522 0.33713 0.0
C123 C 0.46356 0.30397 0.36343 0.0
C124 C 0.54391 0.34155 0.28794 0.0
O125 O 0.4817 0.3152 0.38032 0.0
C126 C 0.54596 0.38566 0.36182 0.0
O127 O 0.5259 0.29628 0.34697 0.0
O128 O 0.54003 0.32638 0.37747 0.0
O129 O 0.52684 0.36141 0.29016 0.0
O130 O 0.53912 0.32136 0.30266 0.0
C131 C 0.466 0.3855 0.36616 0.0
O132 O 0.52821 0.37467 0.37927 0.0
O133 O 0.54136 0.38369 0.33564 0.0
C134 C 0.54377 0.30424 0.36617 0.0
O135 O 0.46965 0.3635 0.37779 0.0
O136 O 0.48369 0.39296 0.34664 0.0
C137 C 0.46397 0.34695 0.28871 0.0
Fe138 Fe 0.50451 0.65649 0.87674 0.0
Fe139 Fe 0.50657 0.6269 0.82043 0.0
O140 O 0.50533 0.65681 0.83931 0.0
Fe141 Fe 0.50489 0.68704 0.8208 0.0
O142 O 0.53986 0.69766 0.83778 0.0
O143 O 0.52593 0.68715 0.88084 0.0
O144 O 0.54063 0.63932 0.87875 0.0
C145 C 0.54603 0.61777 0.86674 0.0
C146 C 0.46352 0.69544 0.866 0.0
O147 O 0.52921 0.60952 0.84694 0.0
C148 C 0.4663 0.65805 0.78789 0.0
O149 O 0.48291 0.62579 0.87952 0.0
O150 O 0.47096 0.61593 0.83582 0.0
O151 O 0.48108 0.7041 0.84692 0.0
O152 O 0.46837 0.67352 0.8774 0.0
C153 C 0.54632 0.65601 0.78906 0.0
O154 O 0.48426 0.63882 0.79045 0.0
O155 O 0.46992 0.67854 0.80242 0.0
C156 C 0.46617 0.61386 0.86195 0.0
O157 O 0.54221 0.63571 0.8037 0.0
O158 O 0.52854 0.67545 0.7913 0.0
C159 C 0.54356 0.69919 0.86413 0.0
H160 H 0.25883 0.31599 0.99777 0.0
H161 H 0.22196 0.28697 0.9749 0.0
H162 H 0.17873 0.3536 0.93608 0.0
H163 H 0.21505 0.38291 0.95935 0.0
H164 H 0.15566 0.28942 0.97937 0.0
H165 H 0.19807 0.30224 0.86963 0.0
H166 H 0.22081 0.31033 0.90019 0.0
H167 H 0.1908 0.33183 0.88909 0.0
C168 C 0.2413 0.32454 0.98461 0.0
C169 C 0.23992 0.35181 0.98039 0.0
C170 C 0.2204 0.3079 0.97142 0.0
C171 C 0.19794 0.31815 0.95356 0.0
C172 C 0.19628 0.34531 0.94942 0.0
H173 H 0.05292 0.24943 0.85361 0.0
H174 H 0.09048 0.2785 0.87538 0.0
C175 C 0.21708 0.362 0.9627 0.0
C176 C 0.17583 0.30043 0.93973 0.0
H177 H 0.15304 0.27737 0.87549 0.0
C178 C 0.15509 0.28667 0.95667 0.0
C179 C 0.17516 0.29709 0.91013 0.0
C180 C 0.19751 0.31097 0.8911 0.0
C181 C 0.13329 0.26987 0.94474 0.0
C182 C 0.13279 0.26627 0.91512 0.0
C183 C 0.15353 0.28011 0.89818 0.0
C184 C 0.11078 0.24834 0.90131 0.0
C185 C 0.11052 0.25666 0.96393 0.0
C186 C 0.11022 0.22161 0.90818 0.0
C187 C 0.08868 0.20495 0.89592 0.0
C188 C 0.06749 0.21468 0.87628 0.0
C189 C 0.06882 0.2413 0.86872 0.0
C190 C 0.09027 0.25797 0.88114 0.0
H191 H 0.10853 0.26697 0.9845 0.0
H192 H 0.08764 0.25579 0.95399 0.0
H193 H 0.11812 0.23633 0.96822 0.0
H194 H 0.12637 0.21363 0.92314 0.0
H195 H 0.08854 0.18449 0.90197 0.0
H196 H 0.79416 0.61671 0.46064 0.0
H197 H 0.83079 0.64525 0.43682 0.0
H198 H 0.78547 0.71316 0.47091 0.0
H199 H 0.74802 0.68481 0.49396 0.0
H200 H 0.79904 0.7178 0.41379 0.0
H201 H 0.90009 0.68534 0.47487 0.0
H202 H 0.87954 0.65922 0.45803 0.0
H203 H 0.86161 0.67785 0.48561 0.0
C204 C 0.79186 0.63773 0.46294 0.0
C205 C 0.76823 0.64848 0.4793 0.0
C206 C 0.813 0.65398 0.44954 0.0
C207 C 0.81108 0.68128 0.45245 0.0
C208 C 0.78743 0.69211 0.46856 0.0
H209 H 0.94966 0.79626 0.41806 0.0
H210 H 0.91133 0.76728 0.43837 0.0
C211 C 0.76623 0.67588 0.48192 0.0
C212 C 0.83357 0.6986 0.43849 0.0
H213 H 0.90931 0.71354 0.4361 0.0
C214 C 0.82316 0.71692 0.41864 0.0
C215 C 0.86496 0.69752 0.44511 0.0
C216 C 0.87727 0.67911 0.46725 0.0
C217 C 0.84336 0.73417 0.40511 0.0
C218 C 0.87482 0.73272 0.41131 0.0
C219 C 0.88519 0.71444 0.43122 0.0
C220 C 0.89732 0.75073 0.39839 0.0
C221 C 0.83076 0.75423 0.38486 0.0
C222 C 0.90218 0.75102 0.36911 0.0
C223 C 0.92408 0.7677 0.35734 0.0
C224 C 0.94168 0.78417 0.37472 0.0
C225 C 0.93663 0.78378 0.40404 0.0
C226 C 0.91472 0.76722 0.41572 0.0
H227 H 0.80583 0.75693 0.38762 0.0
H228 H 0.84221 0.77346 0.38769 0.0
H229 H 0.83487 0.74756 0.3629 0.0
H230 H 0.88937 0.73808 0.35542 0.0
H231 H 0.92747 0.76744 0.3347 0.0
H232 H 0.74288 0.35423 0.93734 0.0
H233 H 0.7797 0.32592 0.91338 0.0
H234 H 0.82764 0.31462 0.99179 0.0
H235 H 0.79139 0.3433 0.01585 0.0
H236 H 0.84595 0.33127 0.9109 0.0
H237 H 0.80776 0.2393 0.96274 0.0
H238 H 0.78466 0.26855 0.96192 0.0
H239 H 0.81586 0.26605 0.98627 0.0
C240 C 0.76146 0.346 0.94945 0.0
C241 C 0.76411 0.35097 0.97857 0.0
C242 C 0.78235 0.32971 0.93574 0.0
C243 C 0.80607 0.31794 0.95092 0.0
C244 C 0.80913 0.32317 0.97983 0.0
H245 H 0.95385 0.21191 0.91814 0.0
H246 H 0.91527 0.24098 0.93788 0.0
C247 C 0.78835 0.33951 0.99354 0.0
C248 C 0.82777 0.30021 0.93658 0.0
H249 H 0.85307 0.23704 0.93565 0.0
C250 C 0.84743 0.31062 0.9161 0.0
C251 C 0.82954 0.27333 0.94349 0.0
C252 C 0.80819 0.261 0.96463 0.0
C253 C 0.86958 0.29496 0.90295 0.0
C254 C 0.87157 0.26809 0.91008 0.0
C255 C 0.85153 0.25764 0.93025 0.0
C256 C 0.89493 0.25059 0.89763 0.0
C257 C 0.8913 0.30753 0.8823 0.0
C258 C 0.89609 0.24608 0.86842 0.0
C259 C 0.91828 0.22953 0.85699 0.0
C260 C 0.93953 0.21699 0.87462 0.0
C261 C 0.93792 0.22126 0.90391 0.0
C262 C 0.91586 0.23787 0.91527 0.0
H263 H 0.89173 0.3292 0.88454 0.0
H264 H 0.91479 0.29996 0.8852 0.0
H265 H 0.88392 0.30285 0.86048 0.0
H266 H 0.8797 0.25522 0.85448 0.0
H267 H 0.91869 0.22649 0.83437 0.0
H268 H 0.26047 0.68595 0.49551 0.0
H269 H 0.22337 0.71437 0.47247 0.0
H270 H 0.17988 0.64683 0.43539 0.0
H271 H 0.21595 0.61811 0.45953 0.0
H272 H 0.21179 0.72156 0.41686 0.0
H273 H 0.10811 0.68409 0.47041 0.0
H274 H 0.14602 0.6761 0.48226 0.0
H275 H 0.12954 0.6591 0.4527 0.0
C276 C 0.24269 0.67705 0.48289 0.0
C277 C 0.24104 0.64967 0.47966 0.0
C278 C 0.22166 0.69337 0.4695 0.0
C279 C 0.19854 0.68273 0.45257 0.0
C280 C 0.19711 0.65546 0.44885 0.0
H281 H 0.05503 0.75277 0.35134 0.0
H282 H 0.09314 0.72342 0.37169 0.0
C283 C 0.21802 0.63908 0.46239 0.0
C284 C 0.17635 0.70028 0.43845 0.0
H285 H 0.10041 0.71377 0.43254 0.0
C286 C 0.18744 0.7199 0.42036 0.0
C287 C 0.14458 0.69813 0.44307 0.0
C288 C 0.13132 0.67839 0.46337 0.0
C289 C 0.16761 0.73725 0.40658 0.0
C290 C 0.13592 0.73499 0.41114 0.0
C291 C 0.12477 0.71532 0.42904 0.0
C292 C 0.11391 0.75316 0.39791 0.0
C293 C 0.1806 0.75769 0.38698 0.0
C294 C 0.11304 0.77959 0.40596 0.0
C295 C 0.09119 0.79643 0.3945 0.0
C296 C 0.06984 0.7871 0.37475 0.0
C297 C 0.07115 0.76065 0.36644 0.0
C298 C 0.09286 0.74381 0.37806 0.0
H299 H 0.20466 0.75348 0.3813 0.0
H300 H 0.1669 0.75895 0.36733 0.0
H301 H 0.1798 0.77711 0.39749 0.0
H302 H 0.1289 0.78708 0.42151 0.0
H303 H 0.09085 0.81667 0.40136 0.0
H304 H 0.7132 0.84627 0.01598 0.0
H305 H 0.67712 0.81726 0.99204 0.0
H306 H 0.72671 0.8268 0.91415 0.0
H307 H 0.76364 0.85484 0.93815 0.0
H308 H 0.63969 0.82771 0.94706 0.0
H309 H 0.72017 0.74773 0.92 0.0
H310 H 0.72958 0.7733 0.94482 0.0
H311 H 0.73172 0.7794 0.9075 0.0
C312 C 0.71669 0.8419 0.99385 0.0
C313 C 0.7414 0.85283 0.97903 0.0
C314 C 0.69593 0.82547 0.98015 0.0
C315 C 0.69948 0.81956 0.95141 0.0
C316 C 0.72386 0.83067 0.93646 0.0
H317 H 0.58808 0.72635 0.83571 0.0
H318 H 0.62597 0.75643 0.85576 0.0
C319 C 0.74472 0.84701 0.95016 0.0
C320 C 0.67723 0.80223 0.93702 0.0
H321 H 0.67044 0.74467 0.90069 0.0
C322 C 0.64641 0.80954 0.93697 0.0
C323 C 0.68608 0.77856 0.92377 0.0
C324 C 0.71863 0.7691 0.92419 0.0
C325 C 0.6242 0.79384 0.924 0.0
C326 C 0.63303 0.77012 0.91098 0.0
C327 C 0.66385 0.76296 0.91063 0.0
C328 C 0.61034 0.75192 0.89876 0.0
C329 C 0.59146 0.80278 0.92418 0.0
C330 C 0.58942 0.7392 0.91641 0.0
C331 C 0.56792 0.72198 0.90513 0.0
C332 C 0.56687 0.71715 0.8759 0.0
C333 C 0.58814 0.72974 0.85827 0.0
C334 C 0.60981 0.74689 0.86966 0.0
H335 H 0.58946 0.824 0.92905 0.0
H336 H 0.58046 0.79889 0.90349 0.0
H337 H 0.57874 0.79172 0.94055 0.0
H338 H 0.5898 0.74254 0.93899 0.0
H339 H 0.552 0.71258 0.91937 0.0
H340 H 0.23812 0.15282 0.43344 0.0
H341 H 0.27561 0.18101 0.41025 0.0
H342 H 0.3246 0.18885 0.48862 0.0
H343 H 0.28767 0.16011 0.51191 0.0
H344 H 0.31002 0.23772 0.45761 0.0
H345 H 0.36671 0.16159 0.39191 0.0
H346 H 0.32574 0.16247 0.39105 0.0
H347 H 0.34489 0.15359 0.42307 0.0
C348 C 0.25711 0.16019 0.44568 0.0
C349 C 0.25997 0.1541 0.47453 0.0
C350 C 0.27843 0.17636 0.4324 0.0
C351 C 0.30293 0.18675 0.44771 0.0
C352 C 0.3058 0.18093 0.47649 0.0
H353 H 0.45262 0.29218 0.41868 0.0
H354 H 0.41253 0.26439 0.43791 0.0
C355 C 0.2846 0.16464 0.48977 0.0
C356 C 0.32522 0.20425 0.43387 0.0
H357 H 0.38286 0.20529 0.38556 0.0
C358 C 0.32597 0.23069 0.44185 0.0
C359 C 0.34569 0.19496 0.41316 0.0
C360 C 0.34603 0.16657 0.40431 0.0
C361 C 0.34677 0.2482 0.42961 0.0
C362 C 0.36782 0.23881 0.40938 0.0
C363 C 0.36671 0.21242 0.40108 0.0
C364 C 0.39197 0.2558 0.39745 0.0
C365 C 0.34571 0.27666 0.4382 0.0
C366 C 0.39427 0.25959 0.36819 0.0
C367 C 0.41746 0.27531 0.35702 0.0
C368 C 0.43881 0.28739 0.37495 0.0
C369 C 0.43647 0.28335 0.40424 0.0
C370 C 0.41342 0.26759 0.41533 0.0
H371 H 0.32301 0.28208 0.44677 0.0
H372 H 0.36284 0.28021 0.45499 0.0
H373 H 0.35101 0.28971 0.4201 0.0
H374 H 0.37803 0.25049 0.35402 0.0
H375 H 0.41861 0.27799 0.33437 0.0
H376 H 0.29246 0.8799 0.96305 0.0
H377 H 0.33017 0.85114 0.94071 0.0
H378 H 0.27531 0.78377 0.96157 0.0
H379 H 0.23742 0.81235 0.98374 0.0
H380 H 0.36147 0.80622 0.96816 0.0
H381 H 0.29262 0.7792 0.87395 0.0
H382 H 0.28496 0.80813 0.89476 0.0
H383 H 0.27389 0.77646 0.90761 0.0
C384 C 0.28837 0.85897 0.9627 0.0
C385 C 0.262 0.84835 0.9751 0.0
C386 C 0.30994 0.8426 0.95006 0.0
C387 C 0.3053 0.81543 0.94931 0.0
C388 C 0.27909 0.80474 0.96173 0.0
H389 H 0.429 0.68791 0.91349 0.0
H390 H 0.39059 0.71736 0.93327 0.0
C391 C 0.25763 0.82106 0.97456 0.0
C392 C 0.32815 0.79813 0.93599 0.0
H393 H 0.3393 0.7567 0.88034 0.0
C394 C 0.3567 0.79543 0.94893 0.0
C395 C 0.32182 0.78429 0.91082 0.0
C396 C 0.29176 0.7872 0.89574 0.0
C397 C 0.37898 0.77878 0.93759 0.0
C398 C 0.37241 0.7645 0.91276 0.0
C399 C 0.34408 0.76758 0.89951 0.0
C400 C 0.39485 0.74634 0.90024 0.0
C401 C 0.40947 0.77661 0.95206 0.0
C402 C 0.40945 0.75275 0.87486 0.0
C403 C 0.43151 0.73605 0.86353 0.0
C404 C 0.43911 0.71252 0.87728 0.0
C405 C 0.42377 0.70588 0.90237 0.0
C406 C 0.4019 0.7227 0.91377 0.0
H407 H 0.41278 0.79217 0.96819 0.0
H408 H 0.4111 0.7573 0.96269 0.0
H409 H 0.42823 0.77784 0.93639 0.0
H410 H 0.40414 0.77089 0.86408 0.0
H411 H 0.44275 0.74168 0.8441 0.0
H412 H 0.75738 0.14178 0.43656 0.0
H413 H 0.7208 0.17115 0.41388 0.0
H414 H 0.67524 0.18249 0.49356 0.0
H415 H 0.71117 0.15255 0.51626 0.0
H416 H 0.63539 0.17351 0.44842 0.0
H417 H 0.71976 0.25121 0.42308 0.0
H418 H 0.7295 0.21917 0.41027 0.0
H419 H 0.72769 0.22505 0.44762 0.0
C420 C 0.73937 0.15028 0.4492 0.0
C421 C 0.73724 0.14489 0.47825 0.0
C422 C 0.71871 0.1673 0.43627 0.0
C423 C 0.69564 0.17933 0.45214 0.0
C424 C 0.69304 0.17356 0.48098 0.0
H425 H 0.58385 0.31326 0.40947 0.0
H426 H 0.62061 0.28262 0.42971 0.0
C427 C 0.71368 0.15657 0.49394 0.0
C428 C 0.67408 0.19785 0.43873 0.0
H429 H 0.66996 0.2567 0.40469 0.0
C430 C 0.64292 0.1917 0.43884 0.0
C431 C 0.68397 0.22171 0.42658 0.0
C432 C 0.71701 0.22989 0.42703 0.0
C433 C 0.62135 0.20868 0.42688 0.0
C434 C 0.63131 0.23224 0.41412 0.0
C435 C 0.66245 0.23851 0.41426 0.0
C436 C 0.60965 0.25093 0.40112 0.0
C437 C 0.58803 0.20152 0.42855 0.0
C438 C 0.59175 0.24343 0.37796 0.0
C439 C 0.57066 0.26086 0.36635 0.0
C440 C 0.56718 0.28621 0.37761 0.0
C441 C 0.58578 0.29387 0.40035 0.0
C442 C 0.60685 0.2764 0.41195 0.0
H443 H 0.58366 0.18633 0.44485 0.0
H444 H 0.57393 0.21899 0.4334 0.0
H445 H 0.58055 0.19358 0.40787 0.0
H446 H 0.59402 0.22404 0.36892 0.0
H447 H 0.55692 0.25436 0.3487 0.0
H448 H 0.35687 0.42113 0.98991 0.0
H449 H 0.38002 0.4575 0.96423 0.0
H450 H 0.29236 0.47799 0.92969 0.0
H451 H 0.26873 0.44208 0.9562 0.0
H452 H 0.38135 0.46673 0.90646 0.0
H453 H 0.32258 0.5472 0.96386 0.0
H454 H 0.323 0.5139 0.97663 0.0
H455 H 0.29817 0.52296 0.94816 0.0
C456 C 0.3424 0.43356 0.97717 0.0
C457 C 0.31089 0.42889 0.97536 0.0
C458 C 0.35572 0.4542 0.96231 0.0
C459 C 0.33785 0.47063 0.94535 0.0
C460 C 0.30647 0.4658 0.94304 0.0
H461 H 0.42802 0.58229 0.83096 0.0
H462 H 0.39347 0.5484 0.84877 0.0
C463 C 0.29307 0.44513 0.95797 0.0
C464 C 0.35242 0.49268 0.93015 0.0
H465 H 0.35627 0.55945 0.92744 0.0
C466 C 0.37572 0.48702 0.91082 0.0
C467 C 0.34512 0.51909 0.93612 0.0
C468 C 0.32103 0.5263 0.95747 0.0
C469 C 0.39244 0.50707 0.89774 0.0
C470 C 0.38526 0.53349 0.90381 0.0
C471 C 0.36151 0.53916 0.92268 0.0
C472 C 0.40392 0.5554 0.89275 0.0
C473 C 0.41854 0.49978 0.87854 0.0
C474 C 0.42031 0.57119 0.91162 0.0
C475 C 0.43987 0.59063 0.90159 0.0
C476 C 0.44344 0.5947 0.87241 0.0
C477 C 0.42605 0.57951 0.85354 0.0
C478 C 0.40639 0.56006 0.86366 0.0
H479 H 0.42494 0.47882 0.88067 0.0
H480 H 0.41178 0.50327 0.8563 0.0
H481 H 0.43889 0.512 0.8831 0.0
H482 H 0.41863 0.56797 0.93417 0.0
H483 H 0.45272 0.60206 0.91674 0.0
H484 H 0.74144 0.55724 0.45855 0.0
H485 H 0.71911 0.52085 0.43179 0.0
H486 H 0.62988 0.54191 0.46228 0.0
H487 H 0.6518 0.57866 0.48835 0.0
H488 H 0.68528 0.47819 0.45182 0.0
H489 H 0.61794 0.53765 0.37666 0.0
H490 H 0.64817 0.55137 0.3979 0.0
H491 H 0.61094 0.54623 0.41282 0.0
C492 C 0.71702 0.55426 0.45929 0.0
C493 C 0.69836 0.57085 0.47551 0.0
C494 C 0.70435 0.53341 0.44413 0.0
C495 C 0.67282 0.52898 0.44473 0.0
C496 C 0.65421 0.54531 0.46113 0.0
H497 H 0.56039 0.39629 0.41668 0.0
H498 H 0.59551 0.42945 0.43433 0.0
C499 C 0.66682 0.5661 0.47629 0.0
C500 C 0.65924 0.50687 0.42888 0.0
H501 H 0.60423 0.49234 0.38052 0.0
C502 C 0.66784 0.48124 0.43595 0.0
C503 C 0.63693 0.51094 0.40782 0.0
C504 C 0.62815 0.53804 0.39811 0.0
C505 C 0.65353 0.4595 0.42354 0.0
C506 C 0.62974 0.46359 0.40391 0.0
C507 C 0.62228 0.48923 0.39578 0.0
C508 C 0.61082 0.44179 0.39299 0.0
C509 C 0.66382 0.43237 0.43176 0.0
C510 C 0.60752 0.43785 0.36384 0.0
C511 C 0.58718 0.41899 0.35361 0.0
C512 C 0.56957 0.40393 0.3724 0.0
C513 C 0.57356 0.40752 0.4016 0.0
C514 C 0.59385 0.42634 0.41177 0.0
H515 H 0.68778 0.43246 0.43929 0.0
H516 H 0.64929 0.42509 0.44925 0.0
H517 H 0.66184 0.41851 0.41378 0.0
H518 H 0.62028 0.44971 0.34901 0.0
H519 H 0.58471 0.41672 0.331 0.0
H520 H 0.64865 0.42242 0.99544 0.0
H521 H 0.62667 0.46067 0.97261 0.0
H522 H 0.7143 0.48027 0.93726 0.0
H523 H 0.73705 0.44271 0.96151 0.0
H524 H 0.68504 0.52347 0.95679 0.0
H525 H 0.60674 0.46547 0.88996 0.0
H526 H 0.60153 0.45841 0.92669 0.0
H527 H 0.63718 0.45061 0.90984 0.0
C528 C 0.66345 0.43501 0.98318 0.0
C529 C 0.69468 0.42938 0.98033 0.0
C530 C 0.6507 0.4567 0.96977 0.0
C531 C 0.66868 0.473 0.95271 0.0
C532 C 0.69995 0.46779 0.95013 0.0
H533 H 0.57688 0.57998 0.83836 0.0
H534 H 0.61122 0.54704 0.85787 0.0
C535 C 0.71284 0.44617 0.96379 0.0
C536 C 0.65465 0.49544 0.93768 0.0
H537 H 0.59605 0.51123 0.8937 0.0
C538 C 0.66578 0.52082 0.94274 0.0
C539 C 0.62993 0.49194 0.91891 0.0
C540 C 0.61837 0.4651 0.91078 0.0
C541 C 0.65213 0.54288 0.93029 0.0
C542 C 0.62618 0.53945 0.91293 0.0
C543 C 0.61574 0.51397 0.90722 0.0
C544 C 0.60898 0.56178 0.90068 0.0
C545 C 0.66588 0.56951 0.93566 0.0
C546 C 0.59678 0.58146 0.91808 0.0
C547 C 0.57754 0.60065 0.90683 0.0
C548 C 0.56957 0.60004 0.87812 0.0
C549 C 0.58248 0.5808 0.86061 0.0
C550 C 0.6021 0.56198 0.87175 0.0
H551 H 0.69049 0.56801 0.94088 0.0
H552 H 0.66325 0.58257 0.9171 0.0
H553 H 0.65426 0.57869 0.95396 0.0
H554 H 0.60103 0.58138 0.94058 0.0
H555 H 0.56768 0.61509 0.92085 0.0
H556 H 0.3578 0.58276 0.48825 0.0
H557 H 0.38064 0.54459 0.46551 0.0
H558 H 0.29127 0.51661 0.4424 0.0
H559 H 0.26828 0.55521 0.46477 0.0
H560 H 0.37336 0.4935 0.47835 0.0
H561 H 0.33619 0.51166 0.36803 0.0
H562 H 0.33321 0.5362 0.39529 0.0
H563 H 0.3058 0.51007 0.39334 0.0
C564 C 0.34302 0.5685 0.47825 0.0
C565 C 0.31127 0.57191 0.47829 0.0
C566 C 0.35609 0.54672 0.46524 0.0
C567 C 0.33772 0.52783 0.45203 0.0
C568 C 0.30595 0.53119 0.45194 0.0
H569 H 0.42212 0.37682 0.40654 0.0
H570 H 0.38724 0.40904 0.42714 0.0
C571 C 0.29284 0.55318 0.46477 0.0
C572 C 0.35214 0.50441 0.43914 0.0
H573 H 0.36316 0.47249 0.37662 0.0
C574 C 0.37101 0.4888 0.45613 0.0
C575 C 0.34914 0.49841 0.41012 0.0
C576 C 0.33022 0.51506 0.39052 0.0
C577 C 0.38764 0.46782 0.4448 0.0
C578 C 0.38468 0.46181 0.41577 0.0
C579 C 0.36519 0.477 0.39891 0.0
C580 C 0.40373 0.44149 0.40198 0.0
C581 C 0.4093 0.4531 0.46377 0.0
C582 C 0.42367 0.44876 0.38022 0.0
C583 C 0.44328 0.4304 0.3682 0.0
C584 C 0.4435 0.4043 0.37775 0.0
C585 C 0.42279 0.39681 0.39894 0.0
C586 C 0.40294 0.41523 0.41083 0.0
H587 H 0.41402 0.46395 0.48363 0.0
H588 H 0.39906 0.43395 0.46949 0.0
H589 H 0.43127 0.44934 0.4529 0.0
H590 H 0.42462 0.46888 0.37299 0.0
H591 H 0.45879 0.43688 0.35184 0.0
H592 H 0.85638 0.92497 0.99472 0.0
H593 H 0.87887 0.96293 0.9718 0.0
H594 H 0.79247 0.98091 0.93308 0.0
H595 H 0.7691 0.94378 0.95762 0.0
H596 H 0.886 0.97249 0.91793 0.0
H597 H 0.81517 0.05142 0.96449 0.0
H598 H 0.81457 0.01826 0.97762 0.0
H599 H 0.79356 0.02675 0.94635 0.0
C600 C 0.84187 0.93727 0.98187 0.0
C601 C 0.81076 0.93145 0.97839 0.0
C602 C 0.85489 0.95887 0.96852 0.0
C603 C 0.83728 0.97506 0.95106 0.0
C604 C 0.80635 0.96909 0.947 0.0
H605 H 0.93243 0.08023 0.83549 0.0
H606 H 0.89841 0.04684 0.8549 0.0
C607 C 0.79314 0.9476 0.9607 0.0
C608 C 0.85197 0.99748 0.93648 0.0
H609 H 0.84994 0.06399 0.92864 0.0
C610 C 0.87808 0.9925 0.92025 0.0
C611 C 0.84181 0.02362 0.93979 0.0
C612 C 0.81492 0.03045 0.95822 0.0
C613 C 0.89461 0.01285 0.90763 0.0
C614 C 0.88405 0.03894 0.91033 0.0
C615 C 0.85777 0.04396 0.92632 0.0
C616 C 0.90095 0.06127 0.8978 0.0
C617 C 0.92389 0.0062 0.8925 0.0
C618 C 0.91202 0.0815 0.91511 0.0
C619 C 0.9309 0.10099 0.90392 0.0
C620 C 0.93925 0.10035 0.87531 0.0
C621 C 0.92679 0.08091 0.85774 0.0
C622 C 0.90749 0.06176 0.86882 0.0
H623 H 0.93297 0.98687 0.89919 0.0
H624 H 0.91953 0.00523 0.86946 0.0
H625 H 0.94165 0.02128 0.89641 0.0
H626 H 0.90706 0.08161 0.93751 0.0
H627 H 0.94012 0.11577 0.91794 0.0
H628 H 0.23383 0.06243 0.45594 0.0
H629 H 0.21218 0.02543 0.42975 0.0
H630 H 0.1224 0.04632 0.45899 0.0
H631 H 0.14364 0.08379 0.48434 0.0
H632 H 0.17955 0.98292 0.44942 0.0
H633 H 0.11039 0.0404 0.37397 0.0
H634 H 0.13996 0.05499 0.39531 0.0
H635 H 0.10279 0.04899 0.41001 0.0
C636 C 0.20943 0.05931 0.4565 0.0
C637 C 0.19043 0.07612 0.47212 0.0
C638 C 0.19714 0.0381 0.44167 0.0
C639 C 0.16565 0.03342 0.44204 0.0
C640 C 0.1467 0.0499 0.45794 0.0
H641 H 0.05831 0.89715 0.41486 0.0
H642 H 0.09199 0.93147 0.43226 0.0
C643 C 0.15893 0.07111 0.47273 0.0
C644 C 0.15251 0.01091 0.42646 0.0
H645 H 0.09785 0.99486 0.37828 0.0
C646 C 0.16195 0.98551 0.4336 0.0
C647 C 0.13002 0.01434 0.40542 0.0
C648 C 0.12041 0.04117 0.39549 0.0
C649 C 0.14836 0.96338 0.42127 0.0
C650 C 0.12438 0.96681 0.40168 0.0
C651 C 0.11603 0.99223 0.39351 0.0
C652 C 0.1062 0.94448 0.39084 0.0
C653 C 0.1597 0.93656 0.42948 0.0
C654 C 0.10268 0.94053 0.3617 0.0
C655 C 0.08311 0.92101 0.35159 0.0
C656 C 0.06653 0.90523 0.3705 0.0
C657 C 0.07072 0.90888 0.39967 0.0
C658 C 0.0902 0.92839 0.40971 0.0
H659 H 0.18376 0.93732 0.43673 0.0
H660 H 0.1457 0.92899 0.4472 0.0
H661 H 0.15799 0.92257 0.41161 0.0
H662 H 0.11469 0.95287 0.34677 0.0
H663 H 0.08044 0.91872 0.32901 0.0
H664 H 0.19113 0.95256 0.00754 0.0
H665 H 0.16771 0.98925 0.98258 0.0
H666 H 0.1726 0.94602 0.90452 0.0
H667 H 0.19453 0.90871 0.92952 0.0
H668 H 0.18681 0.01993 0.93861 0.0
H669 H 0.08304 0.9642 0.90844 0.0
H670 H 0.11026 0.95193 0.93367 0.0
H671 H 0.11792 0.94966 0.89646 0.0
C672 C 0.18697 0.95073 0.98511 0.0
C673 C 0.19437 0.9275 0.97064 0.0
C674 C 0.17384 0.97183 0.97082 0.0
C675 C 0.16787 0.97019 0.94179 0.0
C676 C 0.17638 0.9475 0.92704 0.0
H677 H 0.07295 0.07822 0.82902 0.0
H678 H 0.10666 0.04397 0.84727 0.0
C679 C 0.1893 0.9263 0.94134 0.0
C680 C 0.15208 0.99201 0.9272 0.0
H681 H 0.0875 0.0072 0.89053 0.0
C682 C 0.16513 0.01714 0.92804 0.0
C683 C 0.12373 0.98835 0.91348 0.0
C684 C 0.10773 0.96215 0.91312 0.0
C685 C 0.15056 0.0387 0.91555 0.0
C686 C 0.12219 0.03502 0.90205 0.0
C687 C 0.10939 0.00986 0.90075 0.0
C688 C 0.10438 0.05719 0.89058 0.0
C689 C 0.16558 0.06526 0.91685 0.0
C690 C 0.09211 0.07599 0.90891 0.0
C691 C 0.0727 0.09543 0.89864 0.0
C692 C 0.06519 0.09645 0.8698 0.0
C693 C 0.0783 0.07804 0.85133 0.0
C694 C 0.09753 0.05844 0.8617 0.0
H695 H 0.19026 0.06375 0.92176 0.0
H696 H 0.16279 0.07588 0.89657 0.0
H697 H 0.15462 0.07708 0.93368 0.0
H698 H 0.09676 0.07511 0.93134 0.0
H699 H 0.06308 0.10934 0.91342 0.0
H700 H 0.85235 0.07675 0.4852 0.0
H701 H 0.87398 0.03772 0.46332 0.0
H702 H 0.78358 0.00929 0.44474 0.0
H703 H 0.76172 0.0488 0.46637 0.0
H704 H 0.86641 0.98684 0.47886 0.0
H705 H 0.82607 0.00217 0.36885 0.0
H706 H 0.82449 0.02762 0.39523 0.0
H707 H 0.7969 0.0016 0.39545 0.0
C708 C 0.83706 0.0622 0.47643 0.0
C709 C 0.80535 0.06574 0.47756 0.0
C710 C 0.84944 0.03992 0.46391 0.0
C711 C 0.83043 0.02064 0.45225 0.0
C712 C 0.7987 0.02413 0.45317 0.0
H713 H 0.92081 0.87176 0.40681 0.0
H714 H 0.88383 0.90214 0.42761 0.0
C715 C 0.78624 0.04664 0.46554 0.0
C716 C 0.84435 0.99683 0.43977 0.0
H717 H 0.85543 0.96448 0.37755 0.0
C718 C 0.8638 0.98176 0.45676 0.0
C719 C 0.84095 0.99035 0.41092 0.0
C720 C 0.82119 0.00634 0.39142 0.0
C721 C 0.88095 0.96107 0.44549 0.0
C722 C 0.87792 0.95481 0.41653 0.0
C723 C 0.85755 0.96923 0.39977 0.0
C724 C 0.89812 0.93544 0.40259 0.0
C725 C 0.90337 0.9471 0.46436 0.0
C726 C 0.91756 0.94379 0.3809 0.0
C727 C 0.93836 0.9265 0.36879 0.0
C728 C 0.94032 0.90041 0.37819 0.0
C729 C 0.92015 0.8918 0.39934 0.0
C730 C 0.89909 0.90915 0.41132 0.0
H731 H 0.9075 0.95795 0.48433 0.0
H732 H 0.8942 0.92749 0.46988 0.0
H733 H 0.92552 0.94432 0.45346 0.0
H734 H 0.9172 0.96396 0.37379 0.0
H735 H 0.95339 0.93381 0.35246 0.0
H736 H 0.30468 0.41567 0.07781 0.0
H737 H 0.3286 0.40664 0.12344 0.0
H738 H 0.33262 0.32444 0.10285 0.0
H739 H 0.30939 0.33336 0.05689 0.0
H740 H 0.31179 0.37139 0.16886 0.0
H741 H 0.42228 0.34597 0.1183 0.0
H742 H 0.39235 0.36292 0.09968 0.0
H743 H 0.38961 0.32825 0.10565 0.0
C744 C 0.31062 0.39567 0.08302 0.0
C745 C 0.30544 0.37526 0.06363 0.0
C746 C 0.32408 0.39053 0.10915 0.0
C747 C 0.33272 0.36494 0.1163 0.0
C748 C 0.32643 0.34437 0.09754 0.0
H749 H 0.44642 0.30744 0.2532 0.0
H750 H 0.41146 0.31023 0.21321 0.0
C751 C 0.31293 0.34947 0.07141 0.0
C752 C 0.34969 0.36007 0.14276 0.0
H753 H 0.4195 0.34209 0.1677 0.0
C754 C 0.33531 0.36489 0.16869 0.0
C755 C 0.38035 0.35162 0.14237 0.0
C756 C 0.39725 0.34706 0.11505 0.0
C757 C 0.3508 0.36136 0.19434 0.0
C758 C 0.38163 0.3533 0.19392 0.0
C759 C 0.39583 0.34817 0.16797 0.0
C760 C 0.40014 0.35099 0.21997 0.0
C761 C 0.33395 0.36601 0.22162 0.0
C762 C 0.40521 0.37294 0.2372 0.0
C763 C 0.42514 0.37142 0.26014 0.0
C764 C 0.44068 0.34796 0.26609 0.0
C765 C 0.43495 0.32584 0.24918 0.0
C766 C 0.41495 0.32737 0.22632 0.0
H767 H 0.30891 0.36426 0.21873 0.0
H768 H 0.34125 0.35197 0.23817 0.0
H769 H 0.33887 0.38615 0.22921 0.0
H770 H 0.39457 0.39153 0.23234 0.0
H771 H 0.42905 0.38886 0.27265 0.0
H772 H 0.70272 0.58702 0.57747 0.0
H773 H 0.67915 0.59699 0.62306 0.0
H774 H 0.67367 0.67857 0.60012 0.0
H775 H 0.69663 0.6687 0.55422 0.0
H776 H 0.69686 0.63397 0.66695 0.0
H777 H 0.58454 0.65638 0.6182 0.0
H778 H 0.61417 0.63907 0.59952 0.0
H779 H 0.61672 0.6739 0.6042 0.0
C780 C 0.69648 0.60708 0.58214 0.0
C781 C 0.70126 0.62704 0.56216 0.0
C782 C 0.68323 0.61276 0.60823 0.0
C783 C 0.67437 0.63844 0.61475 0.0
C784 C 0.68006 0.65857 0.59531 0.0
H785 H 0.56139 0.69569 0.75278 0.0
H786 H 0.59572 0.69355 0.71223 0.0
C787 C 0.69339 0.65293 0.56921 0.0
C788 C 0.65799 0.64385 0.64142 0.0
H789 H 0.58835 0.66102 0.66743 0.0
C790 C 0.67318 0.64 0.66713 0.0
C791 C 0.62714 0.65175 0.64148 0.0
C792 C 0.60949 0.65536 0.61443 0.0
C793 C 0.65824 0.64385 0.69302 0.0
C794 C 0.62717 0.65119 0.69309 0.0
C795 C 0.6122 0.65548 0.66733 0.0
C796 C 0.60916 0.65335 0.71947 0.0
C797 C 0.67594 0.64023 0.72002 0.0
C798 C 0.60552 0.63152 0.73715 0.0
C799 C 0.586 0.63269 0.76042 0.0
C800 C 0.56941 0.65564 0.76624 0.0
C801 C 0.57372 0.67769 0.74889 0.0
C802 C 0.59335 0.67652 0.72569 0.0
H803 H 0.7008 0.64283 0.71654 0.0
H804 H 0.66838 0.65425 0.7365 0.0
H805 H 0.67221 0.62005 0.728 0.0
H806 H 0.61693 0.61325 0.73241 0.0
H807 H 0.58318 0.61531 0.77326 0.0
H808 H 0.73971 0.3561 0.07991 0.0
H809 H 0.71863 0.34307 0.12579 0.0
H810 H 0.62854 0.3635 0.09704 0.0
H811 H 0.64919 0.37581 0.05112 0.0
H812 H 0.68735 0.37426 0.16359 0.0
H813 H 0.61531 0.29086 0.13043 0.0
H814 H 0.64495 0.30425 0.10826 0.0
H815 H 0.60806 0.31958 0.10971 0.0
C816 C 0.71535 0.35743 0.08327 0.0
C817 C 0.69611 0.36703 0.06192 0.0
C818 C 0.70339 0.35007 0.10949 0.0
C819 C 0.67197 0.35191 0.11464 0.0
C820 C 0.65276 0.36138 0.09333 0.0
H821 H 0.56226 0.38251 0.25531 0.0
H822 H 0.59807 0.38197 0.21614 0.0
C823 C 0.66466 0.36876 0.06721 0.0
C824 C 0.65919 0.34557 0.14277 0.0
H825 H 0.60187 0.3114 0.17465 0.0
C826 C 0.66905 0.36016 0.16616 0.0
C827 C 0.63574 0.32681 0.14623 0.0
C828 C 0.62562 0.30928 0.12236 0.0
C829 C 0.65462 0.35778 0.19246 0.0
C830 C 0.62941 0.34068 0.19525 0.0
C831 C 0.62096 0.32476 0.1724 0.0
C832 C 0.60962 0.34098 0.22058 0.0
C833 C 0.66604 0.37407 0.21683 0.0
C834 C 0.60381 0.31797 0.23591 0.0
C835 C 0.58306 0.31815 0.25837 0.0
C836 C 0.56749 0.34129 0.26557 0.0
C837 C 0.57378 0.36433 0.25036 0.0
C838 C 0.5945 0.36413 0.22807 0.0
H839 H 0.6906 0.37884 0.21436 0.0
H840 H 0.65329 0.39281 0.21749 0.0
H841 H 0.6627 0.36382 0.23726 0.0
H842 H 0.61507 0.29983 0.23027 0.0
H843 H 0.57871 0.30006 0.26962 0.0
H844 H 0.31043 0.6712 0.55569 0.0
H845 H 0.33455 0.68138 0.6011 0.0
H846 H 0.33159 0.59967 0.62378 0.0
H847 H 0.30695 0.58934 0.57884 0.0
H848 H 0.31501 0.66336 0.66346 0.0
H849 H 0.42547 0.62762 0.62052 0.0
H850 H 0.39509 0.63925 0.59808 0.0
H851 H 0.3924 0.60755 0.61421 0.0
C852 C 0.31428 0.65548 0.57061 0.0
C853 C 0.30707 0.6294 0.56355 0.0
C854 C 0.32811 0.66134 0.59647 0.0
C855 C 0.33493 0.64123 0.61557 0.0
C856 C 0.32658 0.6154 0.60916 0.0
H857 H 0.44553 0.61498 0.76021 0.0
H858 H 0.41141 0.61329 0.71972 0.0
C859 C 0.31272 0.60953 0.58342 0.0
C860 C 0.35302 0.64667 0.64119 0.0
H861 H 0.42371 0.63737 0.66913 0.0
C862 C 0.33884 0.65794 0.66477 0.0
C863 C 0.38405 0.63958 0.64259 0.0
C864 C 0.40037 0.62797 0.6175 0.0
C865 C 0.35479 0.66139 0.69026 0.0
C866 C 0.38571 0.65372 0.69184 0.0
C867 C 0.39997 0.64314 0.66791 0.0
C868 C 0.40358 0.65511 0.71834 0.0
C869 C 0.33818 0.67226 0.71554 0.0
C870 C 0.41014 0.67919 0.73135 0.0
C871 C 0.42963 0.68023 0.75475 0.0
C872 C 0.44316 0.65721 0.76518 0.0
C873 C 0.43575 0.63311 0.75255 0.0
C874 C 0.4162 0.63209 0.72941 0.0
H875 H 0.31308 0.67184 0.7126 0.0
H876 H 0.34399 0.66105 0.73488 0.0
H877 H 0.34521 0.69292 0.71888 0.0
H878 H 0.40105 0.69725 0.72285 0.0
H879 H 0.43498 0.6991 0.76396 0.0
H880 H 0.76421 0.86545 0.08211 0.0
H881 H 0.78533 0.85778 0.12948 0.0
H882 H 0.87597 0.87044 0.09708 0.0
H883 H 0.85514 0.87829 0.0501 0.0
H884 H 0.82877 0.82197 0.15039 0.0
H885 H 0.86917 0.92426 0.16077 0.0
H886 H 0.84255 0.9142 0.13382 0.0
H887 H 0.88277 0.9089 0.12913 0.0
C888 C 0.78864 0.86635 0.08515 0.0
C889 C 0.80803 0.87289 0.06259 0.0
C890 C 0.80064 0.86203 0.11215 0.0
C891 C 0.83213 0.86418 0.11686 0.0
C892 C 0.85154 0.86941 0.09404 0.0
H893 H 0.95448 0.81164 0.24407 0.0
H894 H 0.9183 0.81544 0.20527 0.0
C895 C 0.83962 0.87385 0.06723 0.0
C896 C 0.84506 0.86152 0.14558 0.0
H897 H 0.89097 0.89309 0.19263 0.0
C898 C 0.84204 0.8376 0.15988 0.0
C899 C 0.86176 0.88214 0.15819 0.0
C900 C 0.86401 0.90891 0.14483 0.0
C901 C 0.85672 0.83329 0.18582 0.0
C902 C 0.87535 0.85328 0.19735 0.0
C903 C 0.87698 0.87764 0.1837 0.0
C904 C 0.89482 0.84911 0.22256 0.0
C905 C 0.85219 0.80737 0.2005 0.0
C906 C 0.89399 0.86694 0.24513 0.0
C907 C 0.91508 0.86512 0.26713 0.0
C908 C 0.9374 0.84539 0.26701 0.0
C909 C 0.93749 0.82699 0.24491 0.0
C910 C 0.9166 0.82899 0.22278 0.0
H911 H 0.82992 0.79846 0.19478 0.0
H912 H 0.87034 0.79361 0.19375 0.0
H913 H 0.85329 0.80952 0.22379 0.0
H914 H 0.87748 0.8827 0.24535 0.0
H915 H 0.91428 0.87951 0.28392 0.0
H916 H 0.19089 0.0941 0.5727 0.0
H917 H 0.16836 0.10504 0.61831 0.0
H918 H 0.17028 0.18705 0.59657 0.0
H919 H 0.19129 0.1762 0.55027 0.0
H920 H 0.18835 0.13537 0.66205 0.0
H921 H 0.08171 0.17659 0.61711 0.0
H922 H 0.10865 0.15846 0.59606 0.0
H923 H 0.116 0.19212 0.60499 0.0
C924 C 0.18621 0.11446 0.57745 0.0
C925 C 0.19256 0.13423 0.55761 0.0
C926 C 0.17361 0.1207 0.60366 0.0
C927 C 0.16715 0.14682 0.61067 0.0
C928 C 0.17447 0.16671 0.59139 0.0
H929 H 0.06954 0.20332 0.76107 0.0
H930 H 0.10394 0.2027 0.72019 0.0
C931 C 0.18686 0.16048 0.56504 0.0
C932 C 0.15215 0.15294 0.63793 0.0
H933 H 0.08678 0.17766 0.66655 0.0
C934 C 0.16624 0.14478 0.66304 0.0
C935 C 0.12329 0.16527 0.6392 0.0
C936 C 0.10634 0.17343 0.61293 0.0
C937 C 0.15198 0.14814 0.68931 0.0
C938 C 0.12287 0.15983 0.69044 0.0
C939 C 0.10923 0.16885 0.66553 0.0
C940 C 0.10477 0.16045 0.71677 0.0
C941 C 0.1679 0.1388 0.71563 0.0
C942 C 0.09402 0.13692 0.72831 0.0
C943 C 0.07425 0.1372 0.75134 0.0
C944 C 0.06486 0.16106 0.76336 0.0
C945 C 0.07645 0.18464 0.75234 0.0
C946 C 0.09603 0.18433 0.729 0.0
H947 H 0.19281 0.1366 0.71225 0.0
H948 H 0.16404 0.15257 0.73342 0.0
H949 H 0.15856 0.11941 0.72177 0.0
H950 H 0.10016 0.11831 0.71889 0.0
H951 H 0.06584 0.1187 0.7594 0.0
H952 H 0.14421 0.87707 0.04307 0.0
H953 H 0.12256 0.86751 0.08942 0.0
H954 H 0.21167 0.84686 0.12047 0.0
H955 H 0.23376 0.85732 0.07434 0.0
H956 H 0.12296 0.82131 0.12073 0.0
H957 H 0.18261 0.90198 0.17725 0.0
H958 H 0.18094 0.90022 0.13925 0.0
H959 H 0.20669 0.87953 0.15844 0.0
C960 C 0.15929 0.87077 0.05982 0.0
C961 C 0.19077 0.86825 0.05508 0.0
C962 C 0.14683 0.86508 0.08623 0.0
C963 C 0.16556 0.8568 0.10847 0.0
C964 C 0.19689 0.85363 0.10371 0.0
H965 H 0.07907 0.80306 0.26674 0.0
H966 H 0.11286 0.80407 0.22549 0.0
C967 C 0.20941 0.85936 0.07726 0.0
C968 C 0.15203 0.8519 0.13665 0.0
H969 H 0.14997 0.87526 0.20416 0.0
C970 C 0.12905 0.83289 0.13908 0.0
C971 C 0.15995 0.86719 0.16046 0.0
C972 C 0.18371 0.88853 0.15884 0.0
C973 C 0.11313 0.82925 0.16449 0.0
C974 C 0.12079 0.84476 0.1882 0.0
C975 C 0.14437 0.86325 0.18599 0.0
C976 C 0.10239 0.84419 0.21443 0.0
C977 C 0.08728 0.80974 0.16535 0.0
C978 C 0.08617 0.86664 0.22238 0.0
C979 C 0.06708 0.86619 0.24588 0.0
C980 C 0.06378 0.84324 0.26205 0.0
C981 C 0.08091 0.82098 0.25464 0.0
C982 C 0.1001 0.82148 0.23101 0.0
H983 H 0.08077 0.80288 0.14393 0.0
H984 H 0.09431 0.79243 0.1779 0.0
H985 H 0.06693 0.81844 0.17562 0.0
H986 H 0.08769 0.8844 0.20993 0.0
H987 H 0.05447 0.88377 0.25105 0.0
H988 H 0.85412 0.11482 0.54803 0.0
H989 H 0.87657 0.1253 0.59355 0.0
H990 H 0.79016 0.15514 0.62255 0.0
H991 H 0.76683 0.14295 0.57751 0.0
H992 H 0.88421 0.17002 0.62016 0.0
H993 H 0.81041 0.1055 0.68532 0.0
H994 H 0.81055 0.10416 0.64731 0.0
H995 H 0.79008 0.12968 0.66535 0.0
C996 C 0.83963 0.12315 0.5642 0.0
C997 C 0.80846 0.12754 0.5592 0.0
C998 C 0.85264 0.12943 0.59017 0.0
C999 C 0.83496 0.14057 0.61171 0.0
C1000 C 0.8041 0.14594 0.60652 0.0
H1001 H 0.93652 0.19912 0.75922 0.0
H1002 H 0.90205 0.19783 0.71863 0.0
C1003 C 0.79089 0.1393 0.58059 0.0
C1004 C 0.84929 0.14638 0.63941 0.0
H1005 H 0.84678 0.13103 0.70951 0.0
C1006 C 0.87594 0.16161 0.63975 0.0
C1007 C 0.83859 0.13521 0.6649 0.0
C1008 C 0.81101 0.11753 0.6658 0.0
C1009 C 0.89279 0.16526 0.66459 0.0
C1010 C 0.88204 0.1542 0.69012 0.0
C1011 C 0.85485 0.13966 0.68997 0.0
C1012 C 0.90004 0.15548 0.71662 0.0
C1013 C 0.92275 0.17975 0.66281 0.0
C1014 C 0.90894 0.13218 0.73001 0.0
C1015 C 0.92802 0.13288 0.75356 0.0
C1016 C 0.93886 0.15692 0.76403 0.0
C1017 C 0.92891 0.18029 0.75135 0.0
C1018 C 0.90937 0.17958 0.72805 0.0
H1019 H 0.93127 0.18097 0.64077 0.0
H1020 H 0.91963 0.20004 0.67067 0.0
H1021 H 0.94044 0.17008 0.6759 0.0
H1022 H 0.90192 0.11335 0.72167 0.0
H1023 H 0.93519 0.11452 0.76286 0.0
loop_
_geom_bond_atom_site_label_1
_geom_bond_atom_site_label_2
_geom_bond_distance
_geom_bond_site_symmetry_2
_ccdc_geom_bond_type
H0 C3 0.931 . S
H1 C6 0.928 . S
H2 C8 0.930 . S
C3 H0 0.931 . S
C3 C4 1.413 . S
C3 C5 1.360 1_554 S
C4 C3 1.413 . S
C4 C8 1.429 . S
C5 C3 1.360 1_556 S
C5 C6 1.372 . S
C6 H1 0.928 . S
C6 C5 1.372 . S
C6 C7 1.404 . S
C7 C6 1.404 . S
C7 C8 1.391 1_556 S
C8 H2 0.930 . S
C8 C4 1.429 . S
C8 C7 1.391 1_554 S
H9 C12 0.931 . S
H10 C15 0.928 . S
H11 C17 0.930 . S
C12 H9 0.931 . S
C12 C13 1.413 . S
C12 C14 1.360 . S
C13 C12 1.413 . S
C13 C17 1.429 . S
C14 C12 1.360 . S
C14 C15 1.372 . S
C15 H10 0.928 . S
C15 C14 1.372 . S
C15 C16 1.404 . S
C16 C15 1.404 . S
C16 C17 1.391 . S
C17 H11 0.930 . S
C17 C13 1.429 . S
C17 C16 1.391 . S
H18 C21 0.931 . S
H19 C24 0.928 . S
H20 C26 0.930 . S
C21 H18 0.931 . S
C21 C22 1.413 1_554 S
C21 C23 1.360 . S
C22 C21 1.413 1_556 S
C22 C26 1.429 . S
C23 C21 1.360 . S
C23 C24 1.372 . S
C24 H19 0.928 . S
C24 C23 1.372 . S
C24 C25 1.404 1_554 S
C25 C24 1.404 1_556 S
C25 C26 1.391 . S
C26 H20 0.930 . S
C26 C22 1.429 . S
C26 C25 1.391 . S
H27 C30 0.931 . S
H28 C33 0.928 . S
H29 C35 0.930 . S
C30 H27 0.931 . S
C30 C31 1.413 . S
C30 C32 1.360 . S
C31 C30 1.413 . S
C31 C35 1.429 . S
C32 C30 1.360 . S
C32 C33 1.372 . S
C33 H28 0.928 . S
C33 C32 1.372 . S
C33 C34 1.404 . S
C34 C33 1.404 . S
C34 C35 1.391 . S
C35 H29 0.930 . S
C35 C31 1.429 . S
C35 C34 1.391 . S
H36 C39 0.931 . S
H37 C42 0.928 . S
H38 C44 0.930 . S
C39 H36 0.931 . S
C39 C40 1.413 . S
C39 C41 1.360 1_554 S
C40 C39 1.413 . S
C40 C44 1.429 . S
C41 C39 1.360 1_556 S
C41 C42 1.372 . S
C42 H37 0.928 . S
C42 C41 1.372 . S
C42 C43 1.404 . S
C43 C42 1.404 . S
C43 C44 1.391 1_556 S
C44 H38 0.930 . S
C44 C40 1.429 . S
C44 C43 1.391 1_554 S
H45 C48 0.931 . S
H46 C51 0.928 . S
H47 C53 0.930 . S
C48 H45 0.931 . S
C48 C49 1.413 . S
C48 C50 1.360 . S
C49 C48 1.413 . S
C49 C53 1.429 . S
C50 C48 1.360 . S
C50 C51 1.372 . S
C51 H46 0.928 . S
C51 C50 1.372 . S
C51 C52 1.404 . S
C52 C51 1.404 . S
C52 C53 1.391 . S
C53 H47 0.930 . S
C53 C49 1.429 . S
C53 C52 1.391 . S
H54 C57 0.931 . S
H55 C60 0.928 . S
H56 C62 0.930 . S
C57 H54 0.931 . S
C57 C58 1.413 1_554 S
C57 C59 1.360 . S
C58 C57 1.413 1_556 S
C58 C62 1.429 . S
C59 C57 1.360 . S
C59 C60 1.372 . S
C60 H55 0.928 . S
C60 C59 1.372 . S
C60 C61 1.404 1_554 S
C61 C60 1.404 1_556 S
C61 C62 1.391 . S
C62 H56 0.930 . S
C62 C58 1.429 . S
C62 C61 1.391 . S
H63 C66 0.931 . S
H64 C69 0.928 . S
H65 C71 0.930 . S
C66 H63 0.931 . S
C66 C67 1.413 . S
C66 C68 1.360 . S
C67 C66 1.413 . S
C67 C71 1.429 . S
C68 C66 1.360 . S
C68 C69 1.372 . S
C69 H64 0.928 . S
C69 C68 1.372 . S
C69 C70 1.404 . S
C70 C69 1.404 . S
C70 C71 1.391 . S
C71 H65 0.930 . S
C71 C67 1.429 . S
C71 C70 1.391 . S
Fe72 O74 1.918 . S
Fe72 O77 1.997 1_455 S
Fe72 O78 2.002 1_455 S
Fe72 O83 1.976 . S
Fe72 O86 1.996 . S
Fe73 O74 1.918 . S
Fe73 O81 1.997 1_455 S
Fe73 O84 1.996 . S
Fe73 O88 1.976 . S
Fe73 O91 2.002 1_455 S
O74 Fe72 1.918 . S
O74 Fe73 1.918 . S
O74 Fe75 1.918 . S
Fe75 O74 1.918 . S
Fe75 O76 2.002 1_455 S
Fe75 O85 1.976 . S
Fe75 O89 1.996 . S
Fe75 O92 1.997 1_455 S
O76 Fe75 2.002 1_655 S
O76 C93 1.295 . S
O77 Fe72 1.997 1_655 S
O77 C93 1.235 . S
O78 Fe72 2.002 1_655 S
O78 C79 1.295 . S
C79 O78 1.295 . S
C79 O81 1.235 . S
C80 O85 1.287 . S
C80 O86 1.255 . S
O81 Fe73 1.997 1_655 S
O81 C79 1.235 . S
C82 O88 1.287 . S
C82 O89 1.255 . S
O83 Fe72 1.976 . S
O83 C90 1.287 . S
O84 Fe73 1.996 . S
O84 C90 1.255 . S
O85 Fe75 1.976 . S
O85 C80 1.287 . S
O86 Fe72 1.996 . S
O86 C80 1.255 . S
C87 O91 1.295 . S
C87 O92 1.235 . S
O88 Fe73 1.976 . S
O88 C82 1.287 . S
O89 Fe75 1.996 . S
O89 C82 1.255 . S
C90 O83 1.287 . S
C90 O84 1.255 . S
O91 Fe73 2.002 1_655 S
O91 C87 1.295 . S
O92 Fe75 1.997 1_655 S
O92 C87 1.235 . S
C93 O76 1.295 . S
C93 O77 1.235 . S
Fe94 O96 1.919 . S
Fe94 O99 1.972 1_655 S
Fe94 O100 1.977 1_655 S
Fe94 O105 2.001 . S
Fe94 O108 2.021 . S
Fe95 O96 1.919 . S
Fe95 O103 1.972 1_655 S
Fe95 O106 2.020 . S
Fe95 O110 2.000 . S
Fe95 O113 1.978 1_655 S
O96 Fe94 1.919 . S
O96 Fe95 1.919 . S
O96 Fe97 1.919 . S
Fe97 O96 1.919 . S
Fe97 O98 1.978 1_655 S
Fe97 O107 2.000 . S
Fe97 O111 2.019 . S
Fe97 O114 1.973 1_655 S
O98 Fe97 1.978 1_455 S
O98 C115 1.295 . S
O99 Fe94 1.972 1_455 S
O99 C115 1.235 . S
O100 Fe94 1.977 1_455 S
O100 C101 1.295 . S
C101 O100 1.295 . S
C101 O103 1.235 . S
C102 O107 1.287 . S
C102 O108 1.255 . S
O103 Fe95 1.972 1_455 S
O103 C101 1.235 . S
C104 O110 1.287 . S
C104 O111 1.255 . S
O105 Fe94 2.001 . S
O105 C112 1.287 . S
O106 Fe95 2.020 . S
O106 C112 1.255 . S
O107 Fe97 2.000 . S
O107 C102 1.287 . S
O108 Fe94 2.021 . S
O108 C102 1.255 . S
C109 O113 1.295 . S
C109 O114 1.235 . S
O110 Fe95 2.000 . S
O110 C104 1.287 . S
O111 Fe97 2.019 . S
O111 C104 1.255 . S
C112 O105 1.287 . S
C112 O106 1.255 . S
O113 Fe95 1.978 1_455 S
O113 C109 1.295 . S
O114 Fe97 1.973 1_455 S
O114 C109 1.235 . S
C115 O98 1.295 . S
C115 O99 1.235 . S
Fe116 O118 1.918 . S
Fe116 O121 1.997 . S
Fe116 O122 2.002 . S
Fe116 O127 1.976 . S
Fe116 O130 1.996 . S
Fe117 O118 1.918 . S
Fe117 O125 1.997 . S
Fe117 O128 1.996 . S
Fe117 O132 1.976 . S
Fe117 O135 2.002 . S
O118 Fe116 1.918 . S
O118 Fe117 1.918 . S
O118 Fe119 1.918 . S
Fe119 O118 1.918 . S
Fe119 O120 2.002 . S
Fe119 O129 1.976 . S
Fe119 O133 1.996 . S
Fe119 O136 1.997 . S
O120 Fe119 2.002 . S
O120 C137 1.295 . S
O121 Fe116 1.997 . S
O121 C137 1.235 . S
O122 Fe116 2.002 . S
O122 C123 1.295 . S
C123 O122 1.295 . S
C123 O125 1.235 . S
C124 O129 1.287 . S
C124 O130 1.255 . S
O125 Fe117 1.997 . S
O125 C123 1.235 . S
C126 O132 1.287 . S
C126 O133 1.255 . S
O127 Fe116 1.976 . S
O127 C134 1.287 . S
O128 Fe117 1.996 . S
O128 C134 1.255 . S
O129 Fe119 1.976 . S
O129 C124 1.287 . S
O130 Fe116 1.996 . S
O130 C124 1.255 . S
C131 O135 1.295 . S
C131 O136 1.235 . S
O132 Fe117 1.976 . S
O132 C126 1.287 . S
O133 Fe119 1.996 . S
O133 C126 1.255 . S
C134 O127 1.287 . S
C134 O128 1.255 . S
O135 Fe117 2.002 . S
O135 C131 1.295 . S
O136 Fe119 1.997 . S
O136 C131 1.235 . S
C137 O120 1.295 . S
C137 O121 1.235 . S
Fe138 O140 1.918 . S
Fe138 O143 1.997 . S
Fe138 O144 2.002 . S
Fe138 O149 1.976 . S
Fe138 O152 1.996 . S
Fe139 O140 1.918 . S
Fe139 O147 1.997 . S
Fe139 O150 1.996 . S
Fe139 O154 1.976 . S
Fe139 O157 2.002 . S
O140 Fe138 1.918 . S
O140 Fe139 1.918 . S
O140 Fe141 1.918 . S
Fe141 O140 1.918 . S
Fe141 O142 2.002 . S
Fe141 O151 1.976 . S
Fe141 O155 1.996 . S
Fe141 O158 1.997 . S
O142 Fe141 2.002 . S
O142 C159 1.295 . S
O143 Fe138 1.997 . S
O143 C159 1.235 . S
O144 Fe138 2.002 . S
O144 C145 1.295 . S
C145 O144 1.295 . S
C145 O147 1.235 . S
C146 O151 1.287 . S
C146 O152 1.255 . S
O147 Fe139 1.997 . S
O147 C145 1.235 . S
C148 O154 1.287 . S
C148 O155 1.255 . S
O149 Fe138 1.976 . S
O149 C156 1.287 . S
O150 Fe139 1.996 . S
O150 C156 1.255 . S
O151 Fe141 1.976 . S
O151 C146 1.287 . S
O152 Fe138 1.996 . S
O152 C146 1.255 . S
C153 O157 1.295 . S
C153 O158 1.235 . S
O154 Fe139 1.976 . S
O154 C148 1.287 . S
O155 Fe141 1.996 . S
O155 C148 1.255 . S
C156 O149 1.287 . S
C156 O150 1.255 . S
O157 Fe139 2.002 . S
O157 C153 1.295 . S
O158 Fe141 1.997 . S
O158 C153 1.235 . S
C159 O142 1.295 . S
C159 O143 1.235 . S
H160 C168 0.945 . S
H161 C170 0.930 . S
H162 C172 0.930 . S
H163 C175 0.929 . S
H164 C178 0.930 . S
H165 C180 0.960 . S
H166 C180 0.960 . S
H167 C180 0.960 . S
C168 H160 0.945 . S
C168 C169 1.377 . S
C168 C170 1.384 . S
C169 C168 1.377 . S
C169 C175 1.390 . S
C170 H161 0.930 . S
C170 C168 1.384 . S
C170 C171 1.372 . S
C171 C170 1.372 . S
C171 C172 1.400 . S
C171 C176 1.490 . S
C172 H162 0.930 . S
C172 C171 1.400 . S
C172 C175 1.386 . S
H173 C189 0.930 . S
H174 C190 0.931 . S
C175 H163 0.929 . S
C175 C169 1.390 . S
C175 C172 1.386 . S
C176 C171 1.490 . S
C176 C178 1.395 . S
C176 C179 1.403 . S
H177 C183 0.930 . S
C178 H164 0.930 . S
C178 C176 1.395 . S
C178 C181 1.403 . S
C179 C176 1.403 . S
C179 C180 1.524 . S
C179 C183 1.400 . S
C180 H165 0.960 . S
C180 H166 0.960 . S
C180 H167 0.960 . S
C180 C179 1.524 . S
C181 C178 1.403 . S
C181 C182 1.392 . S
C181 C185 1.495 . S
C182 C181 1.392 . S
C182 C183 1.385 . S
C182 C184 1.478 . S
C183 H177 0.930 . S
C183 C179 1.400 . S
C183 C182 1.385 . S
C184 C182 1.478 . S
C184 C186 1.381 . S
C184 C190 1.383 . S
C185 C181 1.495 . S
C185 H191 0.959 . S
C185 H192 0.961 . S
C185 H193 0.960 . S
C186 C184 1.381 . S
C186 C187 1.394 . S
C186 H194 0.930 . S
C187 C186 1.394 . S
C187 C188 1.383 . S
C187 H195 0.929 . S
C188 C187 1.383 . S
C188 C189 1.377 . S
C189 H173 0.930 . S
C189 C188 1.377 . S
C189 C190 1.379 . S
C190 H174 0.931 . S
C190 C184 1.383 . S
C190 C189 1.379 . S
H191 C185 0.959 . S
H192 C185 0.961 . S
H193 C185 0.960 . S
H194 C186 0.930 . S
H195 C187 0.929 . S
H196 C204 0.929 . S
H197 C206 0.930 . S
H198 C208 0.930 . S
H199 C211 0.929 . S
H200 C214 0.930 . S
H201 C216 0.960 . S
H202 C216 0.960 . S
H203 C216 0.960 . S
C204 H196 0.929 . S
C204 C205 1.377 . S
C204 C206 1.384 . S
C205 C204 1.377 . S
C205 C211 1.390 . S
C206 H197 0.930 . S
C206 C204 1.384 . S
C206 C207 1.372 . S
C207 C206 1.372 . S
C207 C208 1.400 . S
C207 C212 1.490 . S
C208 H198 0.930 . S
C208 C207 1.400 . S
C208 C211 1.386 . S
H209 C225 0.930 . S
H210 C226 0.931 . S
C211 H199 0.929 . S
C211 C205 1.390 . S
C211 C208 1.386 . S
C212 C207 1.490 . S
C212 C214 1.395 . S
C212 C215 1.403 . S
H213 C219 0.930 . S
C214 H200 0.930 . S
C214 C212 1.395 . S
C214 C217 1.403 . S
C215 C212 1.403 . S
C215 C216 1.524 . S
C215 C219 1.400 . S
C216 H201 0.960 . S
C216 H202 0.960 . S
C216 H203 0.960 . S
C216 C215 1.524 . S
C217 C214 1.403 . S
C217 C218 1.392 . S
C217 C221 1.495 . S
C218 C217 1.392 . S
C218 C219 1.385 . S
C218 C220 1.478 . S
C219 H213 0.930 . S
C219 C215 1.400 . S
C219 C218 1.385 . S
C220 C218 1.478 . S
C220 C222 1.381 . S
C220 C226 1.383 . S
C221 C217 1.495 . S
C221 H227 0.959 . S
C221 H228 0.961 . S
C221 H229 0.960 . S
C222 C220 1.381 . S
C222 C223 1.394 . S
C222 H230 0.930 . S
C223 C222 1.394 . S
C223 C224 1.383 . S
C223 H231 0.929 . S
C224 C223 1.383 . S
C224 C225 1.377 . S
C225 H209 0.930 . S
C225 C224 1.377 . S
C225 C226 1.379 . S
C226 H210 0.931 . S
C226 C220 1.383 . S
C226 C225 1.379 . S
H227 C221 0.959 . S
H228 C221 0.961 . S
H229 C221 0.960 . S
H230 C222 0.930 . S
H231 C223 0.929 . S
H232 C240 0.929 . S
H233 C242 0.930 . S
H234 C244 0.930 . S
H235 C247 0.929 1_554 S
H236 C250 0.930 . S
H237 C252 0.960 . S
H238 C252 0.960 . S
H239 C252 0.960 . S
C240 H232 0.929 . S
C240 C241 1.377 . S
C240 C242 1.384 . S
C241 C240 1.377 . S
C241 C247 1.390 . S
C242 H233 0.930 . S
C242 C240 1.384 . S
C242 C243 1.372 . S
C243 C242 1.372 . S
C243 C244 1.400 . S
C243 C248 1.490 . S
C244 H234 0.930 . S
C244 C243 1.400 . S
C244 C247 1.386 . S
H245 C261 0.930 . S
H246 C262 0.931 . S
C247 H235 0.929 1_556 S
C247 C241 1.390 . S
C247 C244 1.386 . S
C248 C243 1.490 . S
C248 C250 1.395 . S
C248 C251 1.403 . S
H249 C255 0.930 . S
C250 H236 0.930 . S
C250 C248 1.395 . S
C250 C253 1.403 . S
C251 C248 1.403 . S
C251 C252 1.524 . S
C251 C255 1.400 . S
C252 H237 0.960 . S
C252 H238 0.960 . S
C252 H239 0.960 . S
C252 C251 1.524 . S
C253 C250 1.403 . S
C253 C254 1.392 . S
C253 C257 1.495 . S
C254 C253 1.392 . S
C254 C255 1.385 . S
C254 C256 1.478 . S
C255 H249 0.930 . S
C255 C251 1.400 . S
C255 C254 1.385 . S
C256 C254 1.478 . S
C256 C258 1.381 . S
C256 C262 1.383 . S
C257 C253 1.495 . S
C257 H263 0.959 . S
C257 H264 0.961 . S
C257 H265 0.960 . S
C258 C256 1.381 . S
C258 C259 1.394 . S
C258 H266 0.930 . S
C259 C258 1.394 . S
C259 C260 1.383 . S
C259 H267 0.929 . S
C260 C259 1.383 . S
C260 C261 1.377 . S
C261 H245 0.930 . S
C261 C260 1.377 . S
C261 C262 1.379 . S
C262 H246 0.931 . S
C262 C256 1.383 . S
C262 C261 1.379 . S
H263 C257 0.959 . S
H264 C257 0.961 . S
H265 C257 0.960 . S
H266 C258 0.930 . S
H267 C259 0.929 . S
H268 C276 0.929 . S
H269 C278 0.930 . S
H270 C280 0.930 . S
H271 C283 0.929 . S
H272 C286 0.930 . S
H273 C288 0.960 . S
H274 C288 0.960 . S
H275 C288 0.960 . S
C276 H268 0.929 . S
C276 C277 1.377 . S
C276 C278 1.384 . S
C277 C276 1.377 . S
C277 C283 1.390 . S
C278 H269 0.930 . S
C278 C276 1.384 . S
C278 C279 1.372 . S
C279 C278 1.372 . S
C279 C280 1.400 . S
C279 C284 1.490 . S
C280 H270 0.930 . S
C280 C279 1.400 . S
C280 C283 1.386 . S
H281 C297 0.930 . S
H282 C298 0.931 . S
C283 H271 0.929 . S
C283 C277 1.390 . S
C283 C280 1.386 . S
C284 C279 1.490 . S
C284 C286 1.395 . S
C284 C287 1.403 . S
H285 C291 0.930 . S
C286 H272 0.930 . S
C286 C284 1.395 . S
C286 C289 1.403 . S
C287 C284 1.403 . S
C287 C288 1.524 . S
C287 C291 1.400 . S
C288 H273 0.960 . S
C288 H274 0.960 . S
C288 H275 0.960 . S
C288 C287 1.524 . S
C289 C286 1.403 . S
C289 C290 1.392 . S
C289 C293 1.495 . S
C290 C289 1.392 . S
C290 C291 1.385 . S
C290 C292 1.478 . S
C291 H285 0.930 . S
C291 C287 1.400 . S
C291 C290 1.385 . S
C292 C290 1.478 . S
C292 C294 1.381 . S
C292 C298 1.383 . S
C293 C289 1.495 . S
C293 H299 0.959 . S
C293 H300 0.961 . S
C293 H301 0.960 . S
C294 C292 1.381 . S
C294 C295 1.394 . S
C294 H302 0.930 . S
C295 C294 1.394 . S
C295 C296 1.383 . S
C295 H303 0.929 . S
C296 C295 1.383 . S
C296 C297 1.377 . S
C297 H281 0.930 . S
C297 C296 1.377 . S
C297 C298 1.379 . S
C298 H282 0.931 . S
C298 C292 1.383 . S
C298 C297 1.379 . S
H299 C293 0.959 . S
H300 C293 0.961 . S
H301 C293 0.960 . S
H302 C294 0.930 . S
H303 C295 0.929 . S
H304 C312 0.929 1_554 S
H305 C314 0.930 . S
H306 C316 0.930 . S
H307 C319 0.929 . S
H308 C322 0.930 . S
H309 C324 0.960 . S
H310 C324 0.960 . S
H311 C324 0.960 . S
C312 H304 0.929 1_556 S
C312 C313 1.377 . S
C312 C314 1.384 . S
C313 C312 1.377 . S
C313 C319 1.390 . S
C314 H305 0.930 . S
C314 C312 1.384 . S
C314 C315 1.372 . S
C315 C314 1.372 . S
C315 C316 1.400 . S
C315 C320 1.490 . S
C316 H306 0.930 . S
C316 C315 1.400 . S
C316 C319 1.386 . S
H317 C333 0.930 . S
H318 C334 0.931 . S
C319 H307 0.929 . S
C319 C313 1.390 . S
C319 C316 1.386 . S
C320 C315 1.490 . S
C320 C322 1.395 . S
C320 C323 1.403 . S
H321 C327 0.930 . S
C322 H308 0.930 . S
C322 C320 1.395 . S
C322 C325 1.403 . S
C323 C320 1.403 . S
C323 C324 1.524 . S
C323 C327 1.400 . S
C324 H309 0.960 . S
C324 H310 0.960 . S
C324 H311 0.960 . S
C324 C323 1.524 . S
C325 C322 1.403 . S
C325 C326 1.392 . S
C325 C329 1.495 . S
C326 C325 1.392 . S
C326 C327 1.385 . S
C326 C328 1.478 . S
C327 H321 0.930 . S
C327 C323 1.400 . S
C327 C326 1.385 . S
C328 C326 1.478 . S
C328 C330 1.381 . S
C328 C334 1.383 . S
C329 C325 1.495 . S
C329 H335 0.959 . S
C329 H336 0.961 . S
C329 H337 0.960 . S
C330 C328 1.381 . S
C330 C331 1.394 . S
C330 H338 0.930 . S
C331 C330 1.394 . S
C331 C332 1.383 . S
C331 H339 0.929 . S
C332 C331 1.383 . S
C332 C333 1.377 . S
C333 H317 0.930 . S
C333 C332 1.377 . S
C333 C334 1.379 . S
C334 H318 0.931 . S
C334 C328 1.383 . S
C334 C333 1.379 . S
H335 C329 0.959 . S
H336 C329 0.961 . S
H337 C329 0.960 . S
H338 C330 0.930 . S
H339 C331 0.929 . S
H340 C348 0.929 . S
H341 C350 0.930 . S
H342 C352 0.930 . S
H343 C355 0.929 . S
H344 C358 0.930 . S
H345 C360 0.960 . S
H346 C360 0.960 . S
H347 C360 0.960 . S
C348 H340 0.929 . S
C348 C349 1.377 . S
C348 C350 1.384 . S
C349 C348 1.377 . S
C349 C355 1.390 . S
C350 H341 0.930 . S
C350 C348 1.384 . S
C350 C351 1.372 . S
C351 C350 1.372 . S
C351 C352 1.400 . S
C351 C356 1.490 . S
C352 H342 0.930 . S
C352 C351 1.400 . S
C352 C355 1.386 . S
H353 C369 0.930 . S
H354 C370 0.931 . S
C355 H343 0.929 . S
C355 C349 1.390 . S
C355 C352 1.386 . S
C356 C351 1.490 . S
C356 C358 1.395 . S
C356 C359 1.403 . S
H357 C363 0.930 . S
C358 H344 0.930 . S
C358 C356 1.395 . S
C358 C361 1.403 . S
C359 C356 1.403 . S
C359 C360 1.524 . S
C359 C363 1.400 . S
C360 H345 0.960 . S
C360 H346 0.960 . S
C360 H347 0.960 . S
C360 C359 1.524 . S
C361 C358 1.403 . S
C361 C362 1.392 . S
C361 C365 1.495 . S
C362 C361 1.392 . S
C362 C363 1.385 . S
C362 C364 1.478 . S
C363 H357 0.930 . S
C363 C359 1.400 . S
C363 C362 1.385 . S
C364 C362 1.478 . S
C364 C366 1.381 . S
C364 C370 1.383 . S
C365 C361 1.495 . S
C365 H371 0.959 . S
C365 H372 0.961 . S
C365 H373 0.960 . S
C366 C364 1.381 . S
C366 C367 1.394 . S
C366 H374 0.930 . S
C367 C366 1.394 . S
C367 C368 1.383 . S
C367 H375 0.929 . S
C368 C367 1.383 . S
C368 C369 1.377 . S
C369 H353 0.930 . S
C369 C368 1.377 . S
C369 C370 1.379 . S
C370 H354 0.931 . S
C370 C364 1.383 . S
C370 C369 1.379 . S
H371 C365 0.959 . S
H372 C365 0.961 . S
H373 C365 0.960 . S
H374 C366 0.930 . S
H375 C367 0.929 . S
H376 C384 0.929 . S
H377 C386 0.930 . S
H378 C388 0.930 . S
H379 C391 0.929 . S
H380 C394 0.930 . S
H381 C396 0.960 . S
H382 C396 0.960 . S
H383 C396 0.960 . S
C384 H376 0.929 . S
C384 C385 1.377 . S
C384 C386 1.384 . S
C385 C384 1.377 . S
C385 C391 1.390 . S
C386 H377 0.930 . S
C386 C384 1.384 . S
C386 C387 1.372 . S
C387 C386 1.372 . S
C387 C388 1.400 . S
C387 C392 1.490 . S
C388 H378 0.930 . S
C388 C387 1.400 . S
C388 C391 1.386 . S
H389 C405 0.930 . S
H390 C406 0.931 . S
C391 H379 0.929 . S
C391 C385 1.390 . S
C391 C388 1.386 . S
C392 C387 1.490 . S
C392 C394 1.395 . S
C392 C395 1.403 . S
H393 C399 0.930 . S
C394 H380 0.930 . S
C394 C392 1.395 . S
C394 C397 1.403 . S
C395 C392 1.403 . S
C395 C396 1.524 . S
C395 C399 1.400 . S
C396 H381 0.960 . S
C396 H382 0.960 . S
C396 H383 0.960 . S
C396 C395 1.524 . S
C397 C394 1.403 . S
C397 C398 1.392 . S
C397 C401 1.495 . S
C398 C397 1.392 . S
C398 C399 1.385 . S
C398 C400 1.478 . S
C399 H393 0.930 . S
C399 C395 1.400 . S
C399 C398 1.385 . S
C400 C398 1.478 . S
C400 C402 1.381 . S
C400 C406 1.383 . S
C401 C397 1.495 . S
C401 H407 0.959 . S
C401 H408 0.961 . S
C401 H409 0.960 . S
C402 C400 1.381 . S
C402 C403 1.394 . S
C402 H410 0.930 . S
C403 C402 1.394 . S
C403 C404 1.383 . S
C403 H411 0.929 . S
C404 C403 1.383 . S
C404 C405 1.377 . S
C405 H389 0.930 . S
C405 C404 1.377 . S
C405 C406 1.379 . S
C406 H390 0.931 . S
C406 C400 1.383 . S
C406 C405 1.379 . S
H407 C401 0.959 . S
H408 C401 0.961 . S
H409 C401 0.960 . S
H410 C402 0.930 . S
H411 C403 0.929 . S
H412 C420 0.929 . S
H413 C422 0.930 . S
H414 C424 0.930 . S
H415 C427 0.929 . S
H416 C430 0.930 . S
H417 C432 0.960 . S
H418 C432 0.960 . S
H419 C432 0.960 . S
C420 H412 0.929 . S
C420 C421 1.377 . S
C420 C422 1.384 . S
C421 C420 1.377 . S
C421 C427 1.390 . S
C422 H413 0.930 . S
C422 C420 1.384 . S
C422 C423 1.372 . S
C423 C422 1.372 . S
C423 C424 1.400 . S
C423 C428 1.490 . S
C424 H414 0.930 . S
C424 C423 1.400 . S
C424 C427 1.386 . S
H425 C441 0.930 . S
H426 C442 0.931 . S
C427 H415 0.929 . S
C427 C421 1.390 . S
C427 C424 1.386 . S
C428 C423 1.490 . S
C428 C430 1.395 . S
C428 C431 1.403 . S
H429 C435 0.930 . S
C430 H416 0.930 . S
C430 C428 1.395 . S
C430 C433 1.403 . S
C431 C428 1.403 . S
C431 C432 1.524 . S
C431 C435 1.400 . S
C432 H417 0.960 . S
C432 H418 0.960 . S
C432 H419 0.960 . S
C432 C431 1.524 . S
C433 C430 1.403 . S
C433 C434 1.392 . S
C433 C437 1.495 . S
C434 C433 1.392 . S
C434 C435 1.385 . S
C434 C436 1.478 . S
C435 H429 0.930 . S
C435 C431 1.400 . S
C435 C434 1.385 . S
C436 C434 1.478 . S
C436 C438 1.381 . S
C436 C442 1.383 . S
C437 C433 1.495 . S
C437 H443 0.959 . S
C437 H444 0.961 . S
C437 H445 0.960 . S
C438 C436 1.381 . S
C438 C439 1.394 . S
C438 H446 0.930 . S
C439 C438 1.394 . S
C439 C440 1.383 . S
C439 H447 0.929 . S
C440 C439 1.383 . S
C440 C441 1.377 . S
C441 H425 0.930 . S
C441 C440 1.377 . S
C441 C442 1.379 . S
C442 H426 0.931 . S
C442 C436 1.383 . S
C442 C441 1.379 . S
H443 C437 0.959 . S
H444 C437 0.961 . S
H445 C437 0.960 . S
H446 C438 0.930 . S
H447 C439 0.929 . S
H448 C456 0.929 1_554 S
H449 C458 0.930 . S
H450 C460 0.930 . S
H451 C463 0.929 . S
H452 C466 0.930 . S
H453 C468 0.960 . S
H454 C468 0.960 . S
H455 C468 0.960 . S
C456 H448 0.929 1_556 S
C456 C457 1.377 . S
C456 C458 1.384 . S
C457 C456 1.377 . S
C457 C463 1.390 . S
C458 H449 0.930 . S
C458 C456 1.384 . S
C458 C459 1.372 . S
C459 C458 1.372 . S
C459 C460 1.400 . S
C459 C464 1.490 . S
C460 H450 0.930 . S
C460 C459 1.400 . S
C460 C463 1.386 . S
H461 C477 0.930 . S
H462 C478 0.931 . S
C463 H451 0.929 . S
C463 C457 1.390 . S
C463 C460 1.386 . S
C464 C459 1.490 . S
C464 C466 1.395 . S
C464 C467 1.403 . S
H465 C471 0.930 . S
C466 H452 0.930 . S
C466 C464 1.395 . S
C466 C469 1.403 . S
C467 C464 1.403 . S
C467 C468 1.524 . S
C467 C471 1.400 . S
C468 H453 0.960 . S
C468 H454 0.960 . S
C468 H455 0.960 . S
C468 C467 1.524 . S
C469 C466 1.403 . S
C469 C470 1.392 . S
C469 C473 1.495 . S
C470 C469 1.392 . S
C470 C471 1.385 . S
C470 C472 1.478 . S
C471 H465 0.930 . S
C471 C467 1.400 . S
C471 C470 1.385 . S
C472 C470 1.478 . S
C472 C474 1.381 . S
C472 C478 1.383 . S
C473 C469 1.495 . S
C473 H479 0.959 . S
C473 H480 0.961 . S
C473 H481 0.960 . S
C474 C472 1.381 . S
C474 C475 1.394 . S
C474 H482 0.930 . S
C475 C474 1.394 . S
C475 C476 1.383 . S
C475 H483 0.929 . S
C476 C475 1.383 . S
C476 C477 1.377 . S
C477 H461 0.930 . S
C477 C476 1.377 . S
C477 C478 1.379 . S
C478 H462 0.931 . S
C478 C472 1.383 . S
C478 C477 1.379 . S
H479 C473 0.959 . S
H480 C473 0.961 . S
H481 C473 0.960 . S
H482 C474 0.930 . S
H483 C475 0.929 . S
H484 C492 0.929 . S
H485 C494 0.930 . S
H486 C496 0.930 . S
H487 C499 0.929 . S
H488 C502 0.930 . S
H489 C504 0.960 . S
H490 C504 0.960 . S
H491 C504 0.960 . S
C492 H484 0.929 . S
C492 C493 1.377 . S
C492 C494 1.384 . S
C493 C492 1.377 . S
C493 C499 1.390 . S
C494 H485 0.930 . S
C494 C492 1.384 . S
C494 C495 1.372 . S
C495 C494 1.372 . S
C495 C496 1.400 . S
C495 C500 1.490 . S
C496 H486 0.930 . S
C496 C495 1.400 . S
C496 C499 1.386 . S
H497 C513 0.930 . S
H498 C514 0.931 . S
C499 H487 0.929 . S
C499 C493 1.390 . S
C499 C496 1.386 . S
C500 C495 1.490 . S
C500 C502 1.395 . S
C500 C503 1.403 . S
H501 C507 0.930 . S
C502 H488 0.930 . S
C502 C500 1.395 . S
C502 C505 1.403 . S
C503 C500 1.403 . S
C503 C504 1.524 . S
C503 C507 1.400 . S
C504 H489 0.960 . S
C504 H490 0.960 . S
C504 H491 0.960 . S
C504 C503 1.524 . S
C505 C502 1.403 . S
C505 C506 1.392 . S
C505 C509 1.495 . S
C506 C505 1.392 . S
C506 C507 1.385 . S
C506 C508 1.478 . S
C507 H501 0.930 . S
C507 C503 1.400 . S
C507 C506 1.385 . S
C508 C506 1.478 . S
C508 C510 1.381 . S
C508 C514 1.383 . S
C509 C505 1.495 . S
C509 H515 0.959 . S
C509 H516 0.961 . S
C509 H517 0.960 . S
C510 C508 1.381 . S
C510 C511 1.394 . S
C510 H518 0.930 . S
C511 C510 1.394 . S
C511 C512 1.383 . S
C511 H519 0.929 . S
C512 C511 1.383 . S
C512 C513 1.377 . S
C513 H497 0.930 . S
C513 C512 1.377 . S
C513 C514 1.379 . S
C514 H498 0.931 . S
C514 C508 1.383 . S
C514 C513 1.379 . S
H515 C509 0.959 . S
H516 C509 0.961 . S
H517 C509 0.960 . S
H518 C510 0.930 . S
H519 C511 0.929 . S
H520 C528 0.929 1_554 S
H521 C530 0.930 . S
H522 C532 0.930 . S
H523 C535 0.929 . S
H524 C538 0.930 . S
H525 C540 0.960 . S
H526 C540 0.960 . S
H527 C540 0.960 . S
C528 H520 0.929 1_556 S
C528 C529 1.377 . S
C528 C530 1.384 . S
C529 C528 1.377 . S
C529 C535 1.390 . S
C530 H521 0.930 . S
C530 C528 1.384 . S
C530 C531 1.372 . S
C531 C530 1.372 . S
C531 C532 1.400 . S
C531 C536 1.490 . S
C532 H522 0.930 . S
C532 C531 1.400 . S
C532 C535 1.386 . S
H533 C549 0.930 . S
H534 C550 0.931 . S
C535 H523 0.929 . S
C535 C529 1.390 . S
C535 C532 1.386 . S
C536 C531 1.490 . S
C536 C538 1.395 . S
C536 C539 1.403 . S
H537 C543 0.930 . S
C538 H524 0.930 . S
C538 C536 1.395 . S
C538 C541 1.403 . S
C539 C536 1.403 . S
C539 C540 1.524 . S
C539 C543 1.400 . S
C540 H525 0.960 . S
C540 H526 0.960 . S
C540 H527 0.960 . S
C540 C539 1.524 . S
C541 C538 1.403 . S
C541 C542 1.392 . S
C541 C545 1.495 . S
C542 C541 1.392 . S
C542 C543 1.385 . S
C542 C544 1.478 . S
C543 H537 0.930 . S
C543 C539 1.400 . S
C543 C542 1.385 . S
C544 C542 1.478 . S
C544 C546 1.381 . S
C544 C550 1.383 . S
C545 C541 1.495 . S
C545 H551 0.959 . S
C545 H552 0.961 . S
C545 H553 0.960 . S
C546 C544 1.381 . S
C546 C547 1.394 . S
C546 H554 0.930 . S
C547 C546 1.394 . S
C547 C548 1.383 . S
C547 H555 0.929 . S
C548 C547 1.383 . S
C548 C549 1.377 . S
C549 H533 0.930 . S
C549 C548 1.377 . S
C549 C550 1.379 . S
C550 H534 0.931 . S
C550 C544 1.383 . S
C550 C549 1.379 . S
H551 C545 0.959 . S
H552 C545 0.961 . S
H553 C545 0.960 . S
H554 C546 0.930 . S
H555 C547 0.929 . S
H556 C564 0.929 . S
H557 C566 0.930 . S
H558 C568 0.930 . S
H559 C571 0.929 . S
H560 C574 0.930 . S
H561 C576 0.960 . S
H562 C576 0.960 . S
H563 C576 0.960 . S
C564 H556 0.929 . S
C564 C565 1.377 . S
C564 C566 1.384 . S
C565 C564 1.377 . S
C565 C571 1.390 . S
C566 H557 0.930 . S
C566 C564 1.384 . S
C566 C567 1.372 . S
C567 C566 1.372 . S
C567 C568 1.400 . S
C567 C572 1.490 . S
C568 H558 0.930 . S
C568 C567 1.400 . S
C568 C571 1.386 . S
H569 C585 0.930 . S
H570 C586 0.931 . S
C571 H559 0.929 . S
C571 C565 1.390 . S
C571 C568 1.386 . S
C572 C567 1.490 . S
C572 C574 1.395 . S
C572 C575 1.403 . S
H573 C579 0.930 . S
C574 H560 0.930 . S
C574 C572 1.395 . S
C574 C577 1.403 . S
C575 C572 1.403 . S
C575 C576 1.524 . S
C575 C579 1.400 . S
C576 H561 0.960 . S
C576 H562 0.960 . S
C576 H563 0.960 . S
C576 C575 1.524 . S
C577 C574 1.403 . S
C577 C578 1.392 . S
C577 C581 1.495 . S
C578 C577 1.392 . S
C578 C579 1.385 . S
C578 C580 1.478 . S
C579 H573 0.930 . S
C579 C575 1.400 . S
C579 C578 1.385 . S
C580 C578 1.478 . S
C580 C582 1.381 . S
C580 C586 1.383 . S
C581 C577 1.495 . S
C581 H587 0.959 . S
C581 H588 0.961 . S
C581 H589 0.960 . S
C582 C580 1.381 . S
C582 C583 1.394 . S
C582 H590 0.930 . S
C583 C582 1.394 . S
C583 C584 1.383 . S
C583 H591 0.929 . S
C584 C583 1.383 . S
C584 C585 1.377 . S
C585 H569 0.930 . S
C585 C584 1.377 . S
C585 C586 1.379 . S
C586 H570 0.931 . S
C586 C580 1.383 . S
C586 C585 1.379 . S
H587 C581 0.959 . S
H588 C581 0.961 . S
H589 C581 0.960 . S
H590 C582 0.930 . S
H591 C583 0.929 . S
H592 C600 0.929 1_554 S
H593 C602 0.930 . S
H594 C604 0.930 . S
H595 C607 0.929 . S
H596 C610 0.930 . S
H597 C612 0.960 . S
H598 C612 0.960 . S
H599 C612 0.960 . S
C600 H592 0.929 1_556 S
C600 C601 1.377 . S
C600 C602 1.384 . S
C601 C600 1.377 . S
C601 C607 1.390 . S
C602 H593 0.930 . S
C602 C600 1.384 . S
C602 C603 1.372 . S
C603 C602 1.372 . S
C603 C604 1.400 . S
C603 C608 1.490 . S
C604 H594 0.930 . S
C604 C603 1.400 . S
C604 C607 1.386 . S
H605 C621 0.930 . S
H606 C622 0.931 . S
C607 H595 0.929 . S
C607 C601 1.390 . S
C607 C604 1.386 . S
C608 C603 1.490 . S
C608 C610 1.395 . S
C608 C611 1.403 1_565 S
H609 C615 0.930 . S
C610 H596 0.930 . S
C610 C608 1.395 . S
C610 C613 1.403 1_565 S
C611 C608 1.403 1_545 S
C611 C612 1.524 . S
C611 C615 1.400 . S
C612 H597 0.960 . S
C612 H598 0.960 . S
C612 H599 0.960 . S
C612 C611 1.524 . S
C613 C610 1.403 1_545 S
C613 C614 1.392 . S
C613 C617 1.495 1_545 S
C614 C613 1.392 . S
C614 C615 1.385 . S
C614 C616 1.478 . S
C615 H609 0.930 . S
C615 C611 1.400 . S
C615 C614 1.385 . S
C616 C614 1.478 . S
C616 C618 1.381 . S
C616 C622 1.383 . S
C617 C613 1.495 1_565 S
C617 H623 0.959 . S
C617 H624 0.960 1_565 S
C617 H625 0.960 1_565 S
C618 C616 1.381 . S
C618 C619 1.394 . S
C618 H626 0.930 . S
C619 C618 1.394 . S
C619 C620 1.383 . S
C619 H627 0.929 . S
C620 C619 1.383 . S
C620 C621 1.377 . S
C621 H605 0.930 . S
C621 C620 1.377 . S
C621 C622 1.379 . S
C622 H606 0.931 . S
C622 C616 1.383 . S
C622 C621 1.379 . S
H623 C617 0.959 . S
H624 C617 0.960 1_545 S
H625 C617 0.960 1_545 S
H626 C618 0.930 . S
H627 C619 0.929 . S
H628 C636 0.929 . S
H629 C638 0.930 . S
H630 C640 0.930 . S
H631 C643 0.929 . S
H632 C646 0.930 . S
H633 C648 0.960 . S
H634 C648 0.960 . S
H635 C648 0.960 . S
C636 H628 0.929 . S
C636 C637 1.377 . S
C636 C638 1.384 . S
C637 C636 1.377 . S
C637 C643 1.390 . S
C638 H629 0.930 . S
C638 C636 1.384 . S
C638 C639 1.372 . S
C639 C638 1.372 . S
C639 C640 1.400 . S
C639 C644 1.490 . S
C640 H630 0.930 . S
C640 C639 1.400 . S
C640 C643 1.386 . S
H641 C657 0.930 . S
H642 C658 0.931 . S
C643 H631 0.929 . S
C643 C637 1.390 . S
C643 C640 1.386 . S
C644 C639 1.490 . S
C644 C646 1.395 1_545 S
C644 C647 1.403 . S
H645 C651 0.930 . S
C646 H632 0.930 . S
C646 C644 1.395 1_565 S
C646 C649 1.403 . S
C647 C644 1.403 . S
C647 C648 1.524 . S
C647 C651 1.400 1_545 S
C648 H633 0.960 . S
C648 H634 0.960 . S
C648 H635 0.960 . S
C648 C647 1.524 . S
C649 C646 1.403 . S
C649 C650 1.392 . S
C649 C653 1.495 . S
C650 C649 1.392 . S
C650 C651 1.385 . S
C650 C652 1.478 . S
C651 H645 0.930 . S
C651 C647 1.400 1_565 S
C651 C650 1.385 . S
C652 C650 1.478 . S
C652 C654 1.381 . S
C652 C658 1.383 . S
C653 C649 1.495 . S
C653 H659 0.959 . S
C653 H660 0.961 . S
C653 H661 0.960 . S
C654 C652 1.381 . S
C654 C655 1.394 . S
C654 H662 0.930 . S
C655 C654 1.394 . S
C655 C656 1.383 . S
C655 H663 0.929 . S
C656 C655 1.383 . S
C656 C657 1.377 . S
C657 H641 0.930 . S
C657 C656 1.377 . S
C657 C658 1.379 . S
C658 H642 0.931 . S
C658 C652 1.383 . S
C658 C657 1.379 . S
H659 C653 0.959 . S
H660 C653 0.961 . S
H661 C653 0.960 . S
H662 C654 0.930 . S
H663 C655 0.929 . S
H664 C672 0.929 1_554 S
H665 C674 0.930 1_545 S
H666 C676 0.930 . S
H667 C679 0.929 . S
H668 C682 0.930 . S
H669 C684 0.960 . S
H670 C684 0.960 . S
H671 C684 0.960 . S
C672 H664 0.929 1_556 S
C672 C673 1.377 . S
C672 C674 1.384 . S
C673 C672 1.377 . S
C673 C679 1.390 . S
C674 H665 0.930 1_565 S
C674 C672 1.384 . S
C674 C675 1.372 . S
C675 C674 1.372 . S
C675 C676 1.400 . S
C675 C680 1.490 1_565 S
C676 H666 0.930 . S
C676 C675 1.400 . S
C676 C679 1.386 . S
H677 C693 0.930 . S
H678 C694 0.931 . S
C679 H667 0.929 . S
C679 C673 1.390 . S
C679 C676 1.386 . S
C680 C675 1.490 1_545 S
C680 C682 1.395 . S
C680 C683 1.403 . S
H681 C687 0.930 . S
C682 H668 0.930 . S
C682 C680 1.395 . S
C682 C685 1.403 . S
C683 C680 1.403 . S
C683 C684 1.524 1_545 S
C683 C687 1.400 . S
C684 H669 0.960 . S
C684 H670 0.960 . S
C684 H671 0.960 . S
C684 C683 1.524 1_565 S
C685 C682 1.403 . S
C685 C686 1.392 . S
C685 C689 1.495 . S
C686 C685 1.392 . S
C686 C687 1.385 . S
C686 C688 1.478 . S
C687 H681 0.930 . S
C687 C683 1.400 . S
C687 C686 1.385 . S
C688 C686 1.478 . S
C688 C690 1.381 . S
C688 C694 1.383 . S
C689 C685 1.495 . S
C689 H695 0.959 . S
C689 H696 0.961 . S
C689 H697 0.960 . S
C690 C688 1.381 . S
C690 C691 1.394 . S
C690 H698 0.930 . S
C691 C690 1.394 . S
C691 C692 1.383 . S
C691 H699 0.929 . S
C692 C691 1.383 . S
C692 C693 1.377 . S
C693 H677 0.930 . S
C693 C692 1.377 . S
C693 C694 1.379 . S
C694 H678 0.931 . S
C694 C688 1.383 . S
C694 C693 1.379 . S
H695 C689 0.959 . S
H696 C689 0.961 . S
H697 C689 0.960 . S
H698 C690 0.930 . S
H699 C691 0.929 . S
H700 C708 0.929 . S
H701 C710 0.930 . S
H702 C712 0.928 . S
H703 C715 0.929 . S
H704 C718 0.930 . S
H705 C720 0.960 1_565 S
H706 C720 0.960 . S
H707 C720 0.964 . S
C708 H700 0.929 . S
C708 C709 1.377 . S
C708 C710 1.384 . S
C709 C708 1.377 . S
C709 C715 1.390 . S
C710 H701 0.930 . S
C710 C708 1.384 . S
C710 C711 1.372 . S
C711 C710 1.372 . S
C711 C712 1.400 . S
C711 C716 1.490 1_545 S
C712 H702 0.928 . S
C712 C711 1.400 . S
C712 C715 1.386 . S
H713 C729 0.930 . S
H714 C730 0.931 . S
C715 H703 0.929 . S
C715 C709 1.390 . S
C715 C712 1.386 . S
C716 C711 1.490 1_565 S
C716 C718 1.395 . S
C716 C719 1.403 . S
H717 C723 0.930 . S
C718 H704 0.930 . S
C718 C716 1.395 . S
C718 C721 1.403 . S
C719 C716 1.403 . S
C719 C720 1.524 1_565 S
C719 C723 1.400 . S
C720 H705 0.960 1_545 S
C720 H706 0.960 . S
C720 H707 0.964 . S
C720 C719 1.524 1_545 S
C721 C718 1.403 . S
C721 C722 1.392 . S
C721 C725 1.495 . S
C722 C721 1.392 . S
C722 C723 1.385 . S
C722 C724 1.478 . S
C723 H717 0.930 . S
C723 C719 1.400 . S
C723 C722 1.385 . S
C724 C722 1.478 . S
C724 C726 1.381 . S
C724 C730 1.383 . S
C725 C721 1.495 . S
C725 H731 0.959 . S
C725 H732 0.961 . S
C725 H733 0.960 . S
C726 C724 1.381 . S
C726 C727 1.394 . S
C726 H734 0.930 . S
C727 C726 1.394 . S
C727 C728 1.383 . S
C727 H735 0.929 . S
C728 C727 1.383 . S
C728 C729 1.377 . S
C729 H713 0.930 . S
C729 C728 1.377 . S
C729 C730 1.379 . S
C730 H714 0.931 . S
C730 C724 1.383 . S
C730 C729 1.379 . S
H731 C725 0.959 . S
H732 C725 0.961 . S
H733 C725 0.960 . S
H734 C726 0.930 . S
H735 C727 0.929 . S
H736 C744 0.929 . S
H737 C746 0.930 . S
H738 C748 0.930 . S
H739 C751 0.929 . S
H740 C754 0.930 . S
H741 C756 0.960 . S
H742 C756 0.960 . S
H743 C756 0.960 . S
C744 H736 0.929 . S
C744 C745 1.377 . S
C744 C746 1.384 . S
C745 C744 1.377 . S
C745 C751 1.390 . S
C746 H737 0.930 . S
C746 C744 1.384 . S
C746 C747 1.372 . S
C747 C746 1.372 . S
C747 C748 1.400 . S
C747 C752 1.490 . S
C748 H738 0.930 . S
C748 C747 1.400 . S
C748 C751 1.386 . S
H749 C765 0.930 . S
H750 C766 0.931 . S
C751 H739 0.929 . S
C751 C745 1.390 . S
C751 C748 1.386 . S
C752 C747 1.490 . S
C752 C754 1.395 . S
C752 C755 1.403 . S
H753 C759 0.930 . S
C754 H740 0.930 . S
C754 C752 1.395 . S
C754 C757 1.403 . S
C755 C752 1.403 . S
C755 C756 1.524 . S
C755 C759 1.400 . S
C756 H741 0.960 . S
C756 H742 0.960 . S
C756 H743 0.960 . S
C756 C755 1.524 . S
C757 C754 1.403 . S
C757 C758 1.392 . S
C757 C761 1.495 . S
C758 C757 1.392 . S
C758 C759 1.385 . S
C758 C760 1.478 . S
C759 H753 0.930 . S
C759 C755 1.400 . S
C759 C758 1.385 . S
C760 C758 1.478 . S
C760 C762 1.381 . S
C760 C766 1.383 . S
C761 C757 1.495 . S
C761 H767 0.959 . S
C761 H768 0.961 . S
C761 H769 0.960 . S
C762 C760 1.381 . S
C762 C763 1.394 . S
C762 H770 0.930 . S
C763 C762 1.394 . S
C763 C764 1.383 . S
C763 H771 0.929 . S
C764 C763 1.383 . S
C764 C765 1.377 . S
C765 H749 0.930 . S
C765 C764 1.377 . S
C765 C766 1.379 . S
C766 H750 0.931 . S
C766 C760 1.383 . S
C766 C765 1.379 . S
H767 C761 0.959 . S
H768 C761 0.961 . S
H769 C761 0.960 . S
H770 C762 0.930 . S
H771 C763 0.929 . S
H772 C780 0.929 . S
H773 C782 0.930 . S
H774 C784 0.930 . S
H775 C787 0.929 . S
H776 C790 0.930 . S
H777 C792 0.960 . S
H778 C792 0.960 . S
H779 C792 0.960 . S
C780 H772 0.929 . S
C780 C781 1.377 . S
C780 C782 1.384 . S
C781 C780 1.377 . S
C781 C787 1.390 . S
C782 H773 0.930 . S
C782 C780 1.384 . S
C782 C783 1.372 . S
C783 C782 1.372 . S
C783 C784 1.400 . S
C783 C788 1.490 . S
C784 H774 0.930 . S
C784 C783 1.400 . S
C784 C787 1.386 . S
H785 C801 0.930 . S
H786 C802 0.931 . S
C787 H775 0.929 . S
C787 C781 1.390 . S
C787 C784 1.386 . S
C788 C783 1.490 . S
C788 C790 1.395 . S
C788 C791 1.403 . S
H789 C795 0.930 . S
C790 H776 0.930 . S
C790 C788 1.395 . S
C790 C793 1.403 . S
C791 C788 1.403 . S
C791 C792 1.524 . S
C791 C795 1.400 . S
C792 H777 0.960 . S
C792 H778 0.960 . S
C792 H779 0.960 . S
C792 C791 1.524 . S
C793 C790 1.403 . S
C793 C794 1.392 . S
C793 C797 1.495 . S
C794 C793 1.392 . S
C794 C795 1.385 . S
C794 C796 1.478 . S
C795 H789 0.930 . S
C795 C791 1.400 . S
C795 C794 1.385 . S
C796 C794 1.478 . S
C796 C798 1.381 . S
C796 C802 1.383 . S
C797 C793 1.495 . S
C797 H803 0.959 . S
C797 H804 0.961 . S
C797 H805 0.960 . S
C798 C796 1.381 . S
C798 C799 1.394 . S
C798 H806 0.930 . S
C799 C798 1.394 . S
C799 C800 1.383 . S
C799 H807 0.929 . S
C800 C799 1.383 . S
C800 C801 1.377 . S
C801 H785 0.930 . S
C801 C800 1.377 . S
C801 C802 1.379 . S
C802 H786 0.931 . S
C802 C796 1.383 . S
C802 C801 1.379 . S
H803 C797 0.959 . S
H804 C797 0.961 . S
H805 C797 0.960 . S
H806 C798 0.930 . S
H807 C799 0.929 . S
H808 C816 0.929 . S
H809 C818 0.930 . S
H810 C820 0.930 . S
H811 C823 0.929 . S
H812 C826 0.930 . S
H813 C828 0.960 . S
H814 C828 0.960 . S
H815 C828 0.960 . S
C816 H808 0.929 . S
C816 C817 1.377 . S
C816 C818 1.384 . S
C817 C816 1.377 . S
C817 C823 1.390 . S
C818 H809 0.930 . S
C818 C816 1.384 . S
C818 C819 1.372 . S
C819 C818 1.372 . S
C819 C820 1.400 . S
C819 C824 1.490 . S
C820 H810 0.930 . S
C820 C819 1.400 . S
C820 C823 1.386 . S
H821 C837 0.930 . S
H822 C838 0.931 . S
C823 H811 0.929 . S
C823 C817 1.390 . S
C823 C820 1.386 . S
C824 C819 1.490 . S
C824 C826 1.395 . S
C824 C827 1.403 . S
H825 C831 0.930 . S
C826 H812 0.930 . S
C826 C824 1.395 . S
C826 C829 1.403 . S
C827 C824 1.403 . S
C827 C828 1.524 . S
C827 C831 1.400 . S
C828 H813 0.960 . S
C828 H814 0.960 . S
C828 H815 0.960 . S
C828 C827 1.524 . S
C829 C826 1.403 . S
C829 C830 1.392 . S
C829 C833 1.495 . S
C830 C829 1.392 . S
C830 C831 1.385 . S
C830 C832 1.478 . S
C831 H825 0.930 . S
C831 C827 1.400 . S
C831 C830 1.385 . S
C832 C830 1.478 . S
C832 C834 1.381 . S
C832 C838 1.383 . S
C833 C829 1.495 . S
C833 H839 0.959 . S
C833 H840 0.961 . S
C833 H841 0.960 . S
C834 C832 1.381 . S
C834 C835 1.394 . S
C834 H842 0.930 . S
C835 C834 1.394 . S
C835 C836 1.383 . S
C835 H843 0.929 . S
C836 C835 1.383 . S
C836 C837 1.377 . S
C837 H821 0.930 . S
C837 C836 1.377 . S
C837 C838 1.379 . S
C838 H822 0.931 . S
C838 C832 1.383 . S
C838 C837 1.379 . S
H839 C833 0.959 . S
H840 C833 0.961 . S
H841 C833 0.960 . S
H842 C834 0.930 . S
H843 C835 0.929 . S
H844 C852 0.929 . S
H845 C854 0.930 . S
H846 C856 0.930 . S
H847 C859 0.929 . S
H848 C862 0.930 . S
H849 C864 0.960 . S
H850 C864 0.960 . S
H851 C864 0.960 . S
C852 H844 0.929 . S
C852 C853 1.377 . S
C852 C854 1.384 . S
C853 C852 1.377 . S
C853 C859 1.390 . S
C854 H845 0.930 . S
C854 C852 1.384 . S
C854 C855 1.372 . S
C855 C854 1.372 . S
C855 C856 1.400 . S
C855 C860 1.490 . S
C856 H846 0.930 . S
C856 C855 1.400 . S
C856 C859 1.386 . S
H857 C873 0.930 . S
H858 C874 0.931 . S
C859 H847 0.929 . S
C859 C853 1.390 . S
C859 C856 1.386 . S
C860 C855 1.490 . S
C860 C862 1.395 . S
C860 C863 1.403 . S
H861 C867 0.930 . S
C862 H848 0.930 . S
C862 C860 1.395 . S
C862 C865 1.403 . S
C863 C860 1.403 . S
C863 C864 1.524 . S
C863 C867 1.400 . S
C864 H849 0.960 . S
C864 H850 0.960 . S
C864 H851 0.960 . S
C864 C863 1.524 . S
C865 C862 1.403 . S
C865 C866 1.392 . S
C865 C869 1.495 . S
C866 C865 1.392 . S
C866 C867 1.385 . S
C866 C868 1.478 . S
C867 H861 0.930 . S
C867 C863 1.400 . S
C867 C866 1.385 . S
C868 C866 1.478 . S
C868 C870 1.381 . S
C868 C874 1.383 . S
C869 C865 1.495 . S
C869 H875 0.959 . S
C869 H876 0.961 . S
C869 H877 0.960 . S
C870 C868 1.381 . S
C870 C871 1.394 . S
C870 H878 0.930 . S
C871 C870 1.394 . S
C871 C872 1.383 . S
C871 H879 0.929 . S
C872 C871 1.383 . S
C872 C873 1.377 . S
C873 H857 0.930 . S
C873 C872 1.377 . S
C873 C874 1.379 . S
C874 H858 0.931 . S
C874 C868 1.383 . S
C874 C873 1.379 . S
H875 C869 0.959 . S
H876 C869 0.961 . S
H877 C869 0.960 . S
H878 C870 0.930 . S
H879 C871 0.929 . S
H880 C888 0.929 . S
H881 C890 0.930 . S
H882 C892 0.930 . S
H883 C895 0.929 . S
H884 C898 0.930 . S
H885 C900 0.960 . S
H886 C900 0.960 . S
H887 C900 0.960 . S
C888 H880 0.929 . S
C888 C889 1.377 . S
C888 C890 1.384 . S
C889 C888 1.377 . S
C889 C895 1.390 . S
C890 H881 0.930 . S
C890 C888 1.384 . S
C890 C891 1.372 . S
C891 C890 1.372 . S
C891 C892 1.400 . S
C891 C896 1.490 . S
C892 H882 0.930 . S
C892 C891 1.400 . S
C892 C895 1.386 . S
H893 C909 0.930 . S
H894 C910 0.931 . S
C895 H883 0.929 . S
C895 C889 1.390 . S
C895 C892 1.386 . S
C896 C891 1.490 . S
C896 C898 1.395 . S
C896 C899 1.403 . S
H897 C903 0.930 . S
C898 H884 0.930 . S
C898 C896 1.395 . S
C898 C901 1.403 . S
C899 C896 1.403 . S
C899 C900 1.524 . S
C899 C903 1.400 . S
C900 H885 0.960 . S
C900 H886 0.960 . S
C900 H887 0.960 . S
C900 C899 1.524 . S
C901 C898 1.403 . S
C901 C902 1.392 . S
C901 C905 1.495 . S
C902 C901 1.392 . S
C902 C903 1.385 . S
C902 C904 1.478 . S
C903 H897 0.930 . S
C903 C899 1.400 . S
C903 C902 1.385 . S
C904 C902 1.478 . S
C904 C906 1.381 . S
C904 C910 1.383 . S
C905 C901 1.495 . S
C905 H911 0.959 . S
C905 H912 0.961 . S
C905 H913 0.960 . S
C906 C904 1.381 . S
C906 C907 1.394 . S
C906 H914 0.930 . S
C907 C906 1.394 . S
C907 C908 1.383 . S
C907 H915 0.929 . S
C908 C907 1.383 . S
C908 C909 1.377 . S
C909 H893 0.930 . S
C909 C908 1.377 . S
C909 C910 1.379 . S
C910 H894 0.931 . S
C910 C904 1.383 . S
C910 C909 1.379 . S
H911 C905 0.959 . S
H912 C905 0.961 . S
H913 C905 0.960 . S
H914 C906 0.930 . S
H915 C907 0.929 . S
H916 C924 0.929 . S
H917 C926 0.930 . S
H918 C928 0.930 . S
H919 C931 0.929 . S
H920 C934 0.930 . S
H921 C936 0.960 . S
H922 C936 0.960 . S
H923 C936 0.960 . S
C924 H916 0.929 . S
C924 C925 1.377 . S
C924 C926 1.384 . S
C925 C924 1.377 . S
C925 C931 1.390 . S
C926 H917 0.930 . S
C926 C924 1.384 . S
C926 C927 1.372 . S
C927 C926 1.372 . S
C927 C928 1.400 . S
C927 C932 1.490 . S
C928 H918 0.930 . S
C928 C927 1.400 . S
C928 C931 1.386 . S
H929 C945 0.930 . S
H930 C946 0.931 . S
C931 H919 0.929 . S
C931 C925 1.390 . S
C931 C928 1.386 . S
C932 C927 1.490 . S
C932 C934 1.395 . S
C932 C935 1.403 . S
H933 C939 0.930 . S
C934 H920 0.930 . S
C934 C932 1.395 . S
C934 C937 1.403 . S
C935 C932 1.403 . S
C935 C936 1.524 . S
C935 C939 1.400 . S
C936 H921 0.960 . S
C936 H922 0.960 . S
C936 H923 0.960 . S
C936 C935 1.524 . S
C937 C934 1.403 . S
C937 C938 1.392 . S
C937 C941 1.495 . S
C938 C937 1.392 . S
C938 C939 1.385 . S
C938 C940 1.478 . S
C939 H933 0.930 . S
C939 C935 1.400 . S
C939 C938 1.385 . S
C940 C938 1.478 . S
C940 C942 1.381 . S
C940 C946 1.383 . S
C941 C937 1.495 . S
C941 H947 0.959 . S
C941 H948 0.961 . S
C941 H949 0.960 . S
C942 C940 1.381 . S
C942 C943 1.394 . S
C942 H950 0.930 . S
C943 C942 1.394 . S
C943 C944 1.383 . S
C943 H951 0.929 . S
C944 C943 1.383 . S
C944 C945 1.377 . S
C945 H929 0.930 . S
C945 C944 1.377 . S
C945 C946 1.379 . S
C946 H930 0.931 . S
C946 C940 1.383 . S
C946 C945 1.379 . S
H947 C941 0.959 . S
H948 C941 0.961 . S
H949 C941 0.960 . S
H950 C942 0.930 . S
H951 C943 0.929 . S
H952 C960 0.929 . S
H953 C962 0.930 . S
H954 C964 0.930 . S
H955 C967 0.929 . S
H956 C970 0.930 . S
H957 C972 0.960 . S
H958 C972 0.960 . S
H959 C972 0.960 . S
C960 H952 0.929 . S
C960 C961 1.377 . S
C960 C962 1.384 . S
C961 C960 1.377 . S
C961 C967 1.390 . S
C962 H953 0.930 . S
C962 C960 1.384 . S
C962 C963 1.372 . S
C963 C962 1.372 . S
C963 C964 1.400 . S
C963 C968 1.490 . S
C964 H954 0.930 . S
C964 C963 1.400 . S
C964 C967 1.386 . S
H965 C981 0.930 . S
H966 C982 0.931 . S
C967 H955 0.929 . S
C967 C961 1.390 . S
C967 C964 1.386 . S
C968 C963 1.490 . S
C968 C970 1.395 . S
C968 C971 1.403 . S
H969 C975 0.930 . S
C970 H956 0.930 . S
C970 C968 1.395 . S
C970 C973 1.403 . S
C971 C968 1.403 . S
C971 C972 1.524 . S
C971 C975 1.400 . S
C972 H957 0.960 . S
C972 H958 0.960 . S
C972 H959 0.960 . S
C972 C971 1.524 . S
C973 C970 1.403 . S
C973 C974 1.392 . S
C973 C977 1.495 . S
C974 C973 1.392 . S
C974 C975 1.385 . S
C974 C976 1.478 . S
C975 H969 0.930 . S
C975 C971 1.400 . S
C975 C974 1.385 . S
C976 C974 1.478 . S
C976 C978 1.381 . S
C976 C982 1.383 . S
C977 C973 1.495 . S
C977 H983 0.959 . S
C977 H984 0.961 . S
C977 H985 0.960 . S
C978 C976 1.381 . S
C978 C979 1.394 . S
C978 H986 0.930 . S
C979 C978 1.394 . S
C979 C980 1.383 . S
C979 H987 0.929 . S
C980 C979 1.383 . S
C980 C981 1.377 . S
C981 H965 0.930 . S
C981 C980 1.377 . S
C981 C982 1.379 . S
C982 H966 0.931 . S
C982 C976 1.383 . S
C982 C981 1.379 . S
H983 C977 0.959 . S
H984 C977 0.961 . S
H985 C977 0.960 . S
H986 C978 0.930 . S
H987 C979 0.929 . S
H988 C996 0.929 . S
H989 C998 0.930 . S
H990 C1000 0.930 . S
H991 C1003 0.929 . S
H992 C1006 0.930 . S
H993 C1008 0.960 . S
H994 C1008 0.960 . S
H995 C1008 0.960 . S
C996 H988 0.929 . S
C996 C997 1.377 . S
C996 C998 1.384 . S
C997 C996 1.377 . S
C997 C1003 1.390 . S
C998 H989 0.930 . S
C998 C996 1.384 . S
C998 C999 1.372 . S
C999 C998 1.372 . S
C999 C1000 1.400 . S
C999 C1004 1.490 . S
C1000 H990 0.930 . S
C1000 C999 1.400 . S
C1000 C1003 1.386 . S
H1001 C1017 0.930 . S
H1002 C1018 0.931 . S
C1003 H991 0.929 . S
C1003 C997 1.390 . S
C1003 C1000 1.386 . S
C1004 C999 1.490 . S
C1004 C1006 1.395 . S
C1004 C1007 1.403 . S
H1005 C1011 0.930 . S
C1006 H992 0.930 . S
C1006 C1004 1.395 . S
C1006 C1009 1.403 . S
C1007 C1004 1.403 . S
C1007 C1008 1.524 . S
C1007 C1011 1.400 . S
C1008 H993 0.960 . S
C1008 H994 0.960 . S
C1008 H995 0.960 . S
C1008 C1007 1.524 . S
C1009 C1006 1.403 . S
C1009 C1010 1.392 . S
C1009 C1013 1.495 . S
C1010 C1009 1.392 . S
C1010 C1011 1.385 . S
C1010 C1012 1.478 . S
C1011 H1005 0.930 . S
C1011 C1007 1.400 . S
C1011 C1010 1.385 . S
C1012 C1010 1.478 . S
C1012 C1014 1.381 . S
C1012 C1018 1.383 . S
C1013 C1009 1.495 . S
C1013 H1019 0.959 . S
C1013 H1020 0.961 . S
C1013 H1021 0.960 . S
C1014 C1012 1.381 . S
C1014 C1015 1.394 . S
C1014 H1022 0.930 . S
C1015 C1014 1.394 . S
C1015 C1016 1.383 . S
C1015 H1023 0.929 . S
C1016 C1015 1.383 . S
C1016 C1017 1.377 . S
C1017 H1001 0.930 . S
C1017 C1016 1.377 . S
C1017 C1018 1.379 . S
C1018 H1002 0.931 . S
C1018 C1012 1.383 . S
C1018 C1017 1.379 . S
H1019 C1013 0.959 . S
H1020 C1013 0.961 . S
H1021 C1013 0.960 . S
H1022 C1014 0.930 . S
H1023 C1015 0.929 . S
C169 C7 1.511 . S
C188 C115 1.488 . S
C224 C79 1.512 . S
C205 C16 1.514 . S
C260 C102 1.490 . S
C241 C25 1.488 . S
C296 C90 1.497 . S
C277 C34 1.491 . S
C332 C159 1.487 . S
C313 C43 1.513 . S
C368 C123 1.499 . S
C349 C52 1.511 . S
C385 C61 1.490 . S
C404 C146 1.473 . S
C440 C134 1.488 . S
C421 C70 1.489 . S
C457 C5 1.442 . S
C476 C156 1.435 . S
C512 C126 1.449 . S
C493 C14 1.444 . S
C529 C22 1.466 . S
C548 C145 1.462 . S
C565 C32 1.470 . S
C584 C131 1.449 . S
C620 C112 1.435 . S
C601 C41 1.442 . S
C637 C50 1.443 . S
C656 C82 1.451 . S
C692 C101 1.473 . S
C673 C58 1.467 . S
C728 C87 1.452 . S
C709 C68 1.469 . S
C764 C137 1.453 . S
C745 C4 1.453 . S
C800 C153 1.454 . S
C781 C13 1.453 . S
C817 C23 1.416 . S
C836 C124 1.419 . S
C872 C148 1.425 . S
C853 C31 1.412 . S
C908 C93 1.455 . S
C889 C40 1.454 . S
C925 C49 1.453 . S
C944 C109 1.451 . S
C961 C59 1.415 . S
C980 C80 1.420 . S
C997 C67 1.415 . S
C1016 C104 1.409 . S
