# Generated by pormake.
# Topology apo, (3,6)-cn, num edge types: 1
# Building blocks:
#     Node 0, Type 0, BuildingBlock: BETDAH_clean_linker_0, # of connection points: 3
#     Node 1, Type 0, BuildingBlock: BETDAH_clean_linker_0, # of connection points: 3
#     Node 2, Type 0, BuildingBlock: BETDAH_clean_linker_0, # of connection points: 3
#     Node 3, Type 0, BuildingBlock: BETDAH_clean_linker_0, # of connection points: 3
#     Node 4, Type 0, BuildingBlock: BETDAH_clean_linker_0, # of connection points: 3
#     Node 5, Type 0, BuildingBlock: BETDAH_clean_linker_0, # of connection points: 3
#     Node 6, Type 0, BuildingBlock: BETDAH_clean_linker_0, # of connection points: 3
#     Node 7, Type 0, BuildingBlock: BETDAH_clean_linker_0, # of connection points: 3
#     Node 8, Type 1, BuildingBlock: MIDCAF_clean_sbu_0, # of connection points: 6
#     Node 9, Type 1, BuildingBlock: MIDCAF_clean_sbu_0, # of connection points: 6
#     Node 10, Type 1, BuildingBlock: MIDCAF_clean_sbu_0, # of connection points: 6
#     Node 11, Type 1, BuildingBlock: MIDCAF_clean_sbu_0, # of connection points: 6
#     Edge 12, Type (0, 1), BuildingBlock: ZUJKAS_clean_linker_0, # of connection points: 2
#     Edge 13, Type (0, 1), BuildingBlock: ZUJKAS_clean_linker_0, # of connection points: 2
#     Edge 14, Type (0, 1), BuildingBlock: ZUJKAS_clean_linker_0, # of connection points: 2
#     Edge 15, Type (0, 1), BuildingBlock: ZUJKAS_clean_linker_0, # of connection points: 2
#     Edge 16, Type (0, 1), BuildingBlock: ZUJKAS_clean_linker_0, # of connection points: 2
#     Edge 17, Type (0, 1), BuildingBlock: ZUJKAS_clean_linker_0, # of connection points: 2
#     Edge 18, Type (0, 1), BuildingBlock: ZUJKAS_clean_linker_0, # of connection points: 2
#     Edge 19, Type (0, 1), BuildingBlock: ZUJKAS_clean_linker_0, # of connection points: 2
#     Edge 20, Type (0, 1), BuildingBlock: ZUJKAS_clean_linker_0, # of connection points: 2
#     Edge 21, Type (0, 1), BuildingBlock: ZUJKAS_clean_linker_0, # of connection points: 2
#     Edge 22, Type (0, 1), BuildingBlock: ZUJKAS_clean_linker_0, # of connection points: 2
#     Edge 23, Type (0, 1), BuildingBlock: ZUJKAS_clean_linker_0, # of connection points: 2
#     Edge 24, Type (0, 1), BuildingBlock: ZUJKAS_clean_linker_0, # of connection points: 2
#     Edge 25, Type (0, 1), BuildingBlock: ZUJKAS_clean_linker_0, # of connection points: 2
#     Edge 26, Type (0, 1), BuildingBlock: ZUJKAS_clean_linker_0, # of connection points: 2
#     Edge 27, Type (0, 1), BuildingBlock: ZUJKAS_clean_linker_0, # of connection points: 2
#     Edge 28, Type (0, 1), BuildingBlock: ZUJKAS_clean_linker_0, # of connection points: 2
#     Edge 29, Type (0, 1), BuildingBlock: ZUJKAS_clean_linker_0, # of connection points: 2
#     Edge 30, Type (0, 1), BuildingBlock: ZUJKAS_clean_linker_0, # of connection points: 2
#     Edge 31, Type (0, 1), BuildingBlock: ZUJKAS_clean_linker_0, # of connection points: 2
#     Edge 32, Type (0, 1), BuildingBlock: ZUJKAS_clean_linker_0, # of connection points: 2
#     Edge 33, Type (0, 1), BuildingBlock: ZUJKAS_clean_linker_0, # of connection points: 2
#     Edge 34, Type (0, 1), BuildingBlock: ZUJKAS_clean_linker_0, # of connection points: 2
#     Edge 35, Type (0, 1), BuildingBlock: ZUJKAS_clean_linker_0, # of connection points: 2
# Relax obj value: 0.014
# Max RMSD: 0.063
# Mean RMSD: 0.056
data_MOF--net-apo--node1-MIDCAF_clean_sbu_0--node2-BETDAH_clean_linker_0--edge1-ZUJKAS_clean_linker_0
_symmetry_space_group_name_H-M    P1
_symmetry_Int_Tables_number       1
_symmetry_cell_setting            triclinic
loop_
_symmetry_equiv_pos_as_xyz
'x, y, z'
_cell_length_a     47.245963
_cell_length_b     53.512757
_cell_length_c     45.547438
_cell_angle_alpha  89.47629
_cell_angle_beta   89.954902
_cell_angle_gamma 90.15324
loop_
_atom_site_label
_atom_site_type_symbol
_atom_site_fract_x
_atom_site_fract_y
_atom_site_fract_z
_atom_type_partial_charge
H0 H 0.37979 0.35706 0.41607 0.0
H1 H 0.34552 0.31898 0.34108 0.0
H2 H 0.34063 0.28496 0.42677 0.0
C3 C 0.36836 0.34137 0.40691 0.0
C4 C 0.36026 0.32146 0.42541 0.0
C5 C 0.36326 0.34072 0.37649 0.0
C6 C 0.34939 0.31982 0.3645 0.0
C7 C 0.34124 0.29971 0.38282 0.0
C8 C 0.34701 0.30058 0.41296 0.0
N9 N 0.32869 0.27763 0.37168 0.0
C10 C 0.31043 0.27652 0.34779 0.0
H11 H 0.14924 0.14483 0.91497 0.0
H12 H 0.18156 0.18342 0.83853 0.0
H13 H 0.19552 0.21366 0.92422 0.0
C14 C 0.1611 0.1602 0.90534 0.0
C15 C 0.17251 0.17867 0.92366 0.0
C16 C 0.16404 0.1617 0.8746 0.0
C17 C 0.17958 0.18165 0.86216 0.0
C18 C 0.19069 0.20042 0.88022 0.0
C19 C 0.18691 0.19893 0.91068 0.0
N20 N 0.20282 0.22246 0.8682 0.0
C21 C 0.22512 0.22278 0.8483 0.0
H22 H 0.87929 0.14603 0.59624 0.0
H23 H 0.83232 0.18147 0.66542 0.0
H24 H 0.82427 0.20766 0.57633 0.0
C25 C 0.86471 0.16034 0.60341 0.0
C26 C 0.85262 0.1765 0.5825 0.0
C27 C 0.85788 0.16209 0.63342 0.0
C28 C 0.83767 0.17981 0.64239 0.0
C29 C 0.82553 0.19621 0.62159 0.0
C30 C 0.83329 0.19455 0.59198 0.0
N31 N 0.80661 0.21558 0.62944 0.0
C32 C 0.7898 0.21628 0.65448 0.0
H33 H 0.66122 0.36737 0.08577 0.0
H34 H 0.68526 0.3281 0.16501 0.0
H35 H 0.69541 0.29325 0.08111 0.0
C36 C 0.67066 0.35133 0.09664 0.0
C37 C 0.67902 0.33086 0.07968 0.0
C38 C 0.67236 0.35051 0.1275 0.0
C39 C 0.68388 0.32916 0.14129 0.0
C40 C 0.69243 0.30863 0.12444 0.0
C41 C 0.68941 0.3094 0.09386 0.0
N42 N 0.7015 0.28605 0.13784 0.0
C43 C 0.72367 0.28458 0.15781 0.0
H44 H 0.64178 0.64908 0.59121 0.0
H45 H 0.70477 0.66631 0.65643 0.0
H46 H 0.71761 0.68835 0.56641 0.0
C47 C 0.66153 0.65797 0.59732 0.0
C48 C 0.6781 0.66944 0.57542 0.0
C49 C 0.67095 0.65651 0.6266 0.0
C50 C 0.69717 0.66738 0.63402 0.0
C51 C 0.71393 0.67891 0.61218 0.0
C52 C 0.70447 0.67951 0.58306 0.0
N53 N 0.74102 0.68909 0.61822 0.0
C54 C 0.74926 0.69921 0.64489 0.0
H55 H 0.86486 0.86877 0.09431 0.0
H56 H 0.82666 0.79631 0.08499 0.0
H57 H 0.8289 0.83103 0.16961 0.0
C58 C 0.85372 0.85291 0.10378 0.0
C59 C 0.8479 0.85243 0.13411 0.0
C60 C 0.84604 0.83289 0.0857 0.0
C61 C 0.8321 0.81227 0.09835 0.0
C62 C 0.82541 0.81166 0.1283 0.0
C63 C 0.83338 0.83174 0.14629 0.0
N64 N 0.81229 0.78973 0.13961 0.0
C65 C 0.79437 0.78853 0.16381 0.0
H66 H 0.1591 0.87033 0.42307 0.0
H67 H 0.20301 0.83485 0.35193 0.0
H68 H 0.20679 0.8033 0.43904 0.0
C69 C 0.173 0.85573 0.41528 0.0
C70 C 0.18226 0.83713 0.43493 0.0
C71 C 0.18034 0.85513 0.38536 0.0
C72 C 0.19735 0.83551 0.37496 0.0
C73 C 0.20694 0.81683 0.39453 0.0
C74 C 0.19921 0.81775 0.42421 0.0
N75 N 0.22398 0.79646 0.38553 0.0
C76 C 0.23729 0.7939 0.35849 0.0
H77 H 0.36136 0.63556 0.90903 0.0
H78 H 0.32925 0.70989 0.92085 0.0
H79 H 0.33131 0.67806 0.83464 0.0
C80 C 0.35178 0.65235 0.90007 0.0
C81 C 0.34711 0.65429 0.86964 0.0
C82 C 0.34539 0.67221 0.91888 0.0
C83 C 0.33358 0.69405 0.90689 0.0
C84 C 0.32782 0.69603 0.87679 0.0
C85 C 0.3347 0.67616 0.85808 0.0
N86 N 0.31746 0.71911 0.8658 0.0
C87 C 0.29661 0.7214 0.84445 0.0
Zn88 Zn 0.03972 0.1208 0.30516 0.0
Zn89 Zn 0.99341 0.1179 0.20787 0.0
Zn90 Zn 0.01573 0.11885 0.25445 0.0
C91 C 0.04733 0.12772 0.1939 0.0
C92 C 0.982 0.07216 0.23115 0.0
O93 O 0.98566 0.13727 0.28554 0.0
O94 O 0.0078 0.13356 0.32818 0.0
C95 C 0.0729 0.15002 0.26775 0.0
O96 O 0.04546 0.13451 0.22093 0.0
O97 O 0.02761 0.11499 0.18278 0.0
O98 O 0.96962 0.08777 0.21475 0.0
O99 O 1.00407 0.07905 0.24567 0.0
O100 O 0.06951 0.14536 0.29472 0.0
O101 O 0.05603 0.14044 0.24863 0.0
O102 O 0.02547 0.07954 0.267 0.0
O103 O 0.04947 0.08474 0.30825 0.0
C104 C 0.04018 0.07052 0.28846 0.0
O105 O 0.97656 0.14211 0.25671 0.0
O106 O 0.97423 0.15089 0.20945 0.0
C107 C 0.98638 0.14023 0.31362 0.0
C108 C 0.96608 0.15507 0.23532 0.0
Zn109 Zn 0.54065 0.39383 0.70572 0.0
Zn110 Zn 0.49036 0.38849 0.80793 0.0
Zn111 Zn 0.51517 0.38897 0.75603 0.0
C112 C 0.49229 0.43803 0.79202 0.0
C113 C 0.45536 0.36173 0.76925 0.0
O114 O 0.55595 0.36818 0.7595 0.0
O115 O 0.57117 0.36946 0.7136 0.0
C116 C 0.53916 0.44115 0.72749 0.0
O117 O 0.50379 0.42778 0.76938 0.0
O118 O 0.48543 0.42484 0.81402 0.0
O119 O 0.45665 0.3694 0.79535 0.0
O120 O 0.47536 0.367 0.7509 0.0
O121 O 0.55138 0.42939 0.70731 0.0
O122 O 0.52333 0.42947 0.74623 0.0
O123 O 0.48746 0.37103 0.72289 0.0
O124 O 0.50763 0.38394 0.68153 0.0
C125 C 0.48761 0.37287 0.69465 0.0
O126 O 0.54444 0.37041 0.78774 0.0
O127 O 0.5204 0.37046 0.82949 0.0
C128 C 0.57408 0.36184 0.73974 0.0
C129 C 0.54249 0.365 0.81534 0.0
Zn130 Zn 0.02639 0.8895 0.80843 0.0
Zn131 Zn 0.98097 0.89387 0.70531 0.0
Zn132 Zn 0.00531 0.8911 0.75696 0.0
C133 C 0.98737 0.94289 0.72345 0.0
C134 C 0.94389 0.8668 0.74042 0.0
O135 O 0.04439 0.86808 0.75394 0.0
O136 O 0.05205 0.86086 0.80114 0.0
C137 C 0.03323 0.93837 0.79001 0.0
O138 O 0.9983 0.93142 0.74578 0.0
O139 O 0.97887 0.93061 0.70163 0.0
O140 O 0.94562 0.87573 0.71474 0.0
O141 O 0.96392 0.87075 0.75912 0.0
O142 O 0.04227 0.92367 0.80967 0.0
O143 O 0.01718 0.92998 0.7694 0.0
O144 O 0.97386 0.87372 0.78786 0.0
O145 O 0.99169 0.88324 0.83124 0.0
C146 C 0.97179 0.87445 0.81608 0.0
O147 O 0.03416 0.87255 0.72527 0.0
O148 O 0.01052 0.87575 0.68342 0.0
C149 C 0.0579 0.85659 0.7746 0.0
C150 C 0.03209 0.86861 0.69746 0.0
Zn151 Zn 0.53759 0.62231 0.2029 0.0
Zn152 Zn 0.47383 0.61759 0.29499 0.0
Zn153 Zn 0.50646 0.61829 0.24902 0.0
C154 C 0.52579 0.63606 0.31366 0.0
C155 C 0.4777 0.56829 0.27526 0.0
O156 O 0.48098 0.63593 0.21327 0.0
O157 O 0.50836 0.6322 0.17417 0.0
C158 C 0.56364 0.652 0.24339 0.0
O159 O 0.53068 0.63488 0.28583 0.0
O160 O 0.50244 0.62849 0.32396 0.0
O161 O 0.46338 0.58185 0.29222 0.0
O162 O 0.49683 0.57811 0.2585 0.0
O163 O 0.56366 0.6486 0.21606 0.0
O164 O 0.5452 0.64087 0.2599 0.0
O165 O 0.51821 0.5794 0.23715 0.0
O166 O 0.55152 0.58738 0.20419 0.0
C167 C 0.53824 0.57189 0.22013 0.0
O168 O 0.4671 0.64044 0.23957 0.0
O169 O 0.44533 0.64219 0.28258 0.0
C170 C 0.48501 0.63844 0.18536 0.0
C171 C 0.44682 0.64854 0.25593 0.0
H172 H 0.18202 0.90538 0.39344 0.0
H173 H 0.15704 0.93759 0.36539 0.0
H174 H 0.12796 0.88196 0.30442 0.0
H175 H 0.15281 0.84941 0.33279 0.0
H176 H 0.15912 0.9529 0.30507 0.0
H177 H 0.0544 0.91349 0.338 0.0
H178 H 0.08683 0.90436 0.35599 0.0
H179 H 0.07886 0.89295 0.32 0.0
C180 C 0.17059 0.90005 0.37384 0.0
C181 C 0.16913 0.87487 0.36543 0.0
C182 C 0.15639 0.91847 0.35779 0.0
C183 C 0.1403 0.91212 0.33308 0.0
C184 C 0.13997 0.88719 0.32365 0.0
H185 H 0.05984 0.04145 0.24391 0.0
H186 H 0.08157 0.99987 0.24869 0.0
C187 C 0.15437 0.86868 0.33969 0.0
C188 C 0.12267 0.93163 0.31872 0.0
H189 H 0.05443 0.95225 0.31361 0.0
C190 C 0.13619 0.95259 0.30634 0.0
C191 C 0.09277 0.93121 0.32072 0.0
C192 C 0.0772 0.90942 0.33452 0.0
C193 C 0.12072 0.97362 0.29707 0.0
C194 C 0.09088 0.97355 0.29999 0.0
C195 C 0.07727 0.95215 0.31119 0.0
C196 C 0.07403 0.99665 0.29546 0.0
C197 C 0.13656 0.99635 0.28595 0.0
C198 C 0.0615 0.00805 0.31984 0.0
C199 C 0.04892 0.03153 0.31706 0.0
C200 C 0.04825 0.04391 0.28977 0.0
C201 C 0.05953 0.032 0.26504 0.0
C202 C 0.07223 0.00844 0.26783 0.0
H203 H 0.15979 0.99464 0.28915 0.0
H204 H 0.13244 0.99886 0.26213 0.0
H205 H 0.12914 0.0134 0.29731 0.0
H206 H 0.06269 0.99932 0.34136 0.0
H207 H 0.04064 0.04045 0.33652 0.0
H208 H 0.38027 0.6592 0.82067 0.0
H209 H 0.40557 0.62582 0.79507 0.0
H210 H 0.36504 0.57088 0.8509 0.0
H211 H 0.33942 0.60399 0.87604 0.0
H212 H 0.44363 0.59479 0.82222 0.0
H213 H 0.35939 0.53811 0.77124 0.0
H214 H 0.35342 0.56963 0.78366 0.0
H215 H 0.35208 0.54378 0.80924 0.0
C216 C 0.37606 0.63993 0.82676 0.0
C217 C 0.35786 0.63418 0.85034 0.0
C218 C 0.39069 0.6209 0.81229 0.0
C219 C 0.38706 0.59581 0.82089 0.0
C220 C 0.36781 0.59001 0.84345 0.0
H221 H 0.49225 0.47032 0.83776 0.0
H222 H 0.47003 0.5115 0.83936 0.0
C223 C 0.35331 0.60897 0.85796 0.0
C224 C 0.40547 0.5759 0.80882 0.0
H225 H 0.40342 0.51672 0.78156 0.0
C226 C 0.43489 0.57792 0.81276 0.0
C227 C 0.3942 0.55402 0.79608 0.0
C228 C 0.36306 0.55135 0.78952 0.0
C229 C 0.45306 0.558 0.80612 0.0
C230 C 0.44147 0.53537 0.79569 0.0
C231 C 0.41231 0.53397 0.78988 0.0
C232 C 0.45857 0.51222 0.79334 0.0
C233 C 0.48444 0.56118 0.81095 0.0
C234 C 0.45964 0.4989 0.76693 0.0
C235 C 0.47232 0.47529 0.76604 0.0
C236 C 0.48407 0.46463 0.79153 0.0
C237 C 0.48375 0.4783 0.81769 0.0
C238 C 0.47118 0.50189 0.81857 0.0
H239 H 0.49077 0.58116 0.8094 0.0
H240 H 0.48993 0.55432 0.83328 0.0
H241 H 0.49687 0.55038 0.79473 0.0
H242 H 0.44971 0.50635 0.7473 0.0
H243 H 0.47134 0.46472 0.74591 0.0
H244 H 0.61363 0.65705 0.63517 0.0
H245 H 0.58541 0.62665 0.66303 0.0
H246 H 0.66185 0.59164 0.69437 0.0
H247 H 0.69023 0.62184 0.66633 0.0
H248 H 0.59018 0.57604 0.64947 0.0
H249 H 0.61062 0.59111 0.76783 0.0
H250 H 0.61707 0.61493 0.74021 0.0
H251 H 0.64197 0.58997 0.74554 0.0
C252 C 0.62444 0.64319 0.64849 0.0
C253 C 0.65417 0.64171 0.64832 0.0
C254 C 0.60828 0.62591 0.6645 0.0
C255 C 0.62149 0.60696 0.68092 0.0
C256 C 0.65119 0.60639 0.68232 0.0
H257 H 0.58806 0.46119 0.7461 0.0
H258 H 0.60412 0.5043 0.73865 0.0
C259 C 0.6674 0.62368 0.66625 0.0
C260 C 0.60452 0.58575 0.69271 0.0
H261 H 0.59023 0.5517 0.7548 0.0
C262 C 0.58974 0.57094 0.67258 0.0
C263 C 0.60424 0.57905 0.7228 0.0
C264 C 0.61912 0.59471 0.74543 0.0
C265 C 0.57582 0.54894 0.68141 0.0
C266 C 0.57587 0.54192 0.7115 0.0
C267 C 0.58996 0.55718 0.73181 0.0
C268 C 0.56408 0.5175 0.72151 0.0
C269 C 0.56268 0.53272 0.65809 0.0
C270 C 0.53582 0.51081 0.7157 0.0
C271 C 0.52679 0.48604 0.71956 0.0
C272 C 0.54558 0.46791 0.7303 0.0
C273 C 0.57309 0.47503 0.73826 0.0
C274 C 0.58226 0.49963 0.73399 0.0
H275 H 0.57021 0.53786 0.63572 0.0
H276 H 0.56756 0.51269 0.6621 0.0
H277 H 0.53936 0.53504 0.65849 0.0
H278 H 0.52126 0.52437 0.70652 0.0
H279 H 0.50581 0.48078 0.71231 0.0
H280 H 0.87651 0.84886 0.18639 0.0
H281 H 0.90111 0.8826 0.21232 0.0
H282 H 0.86938 0.93604 0.14914 0.0
H283 H 0.84466 0.90261 0.12337 0.0
H284 H 0.93014 0.93527 0.15679 0.0
H285 H 0.87159 0.94263 0.26253 0.0
H286 H 0.8822 0.91199 0.25081 0.0
H287 H 0.85596 0.92883 0.23029 0.0
C288 C 0.87417 0.8679 0.17852 0.0
C289 C 0.85878 0.87306 0.15273 0.0
C290 C 0.88831 0.88713 0.1933 0.0
C291 C 0.8871 0.9118 0.18261 0.0
C292 C 0.87068 0.91711 0.15768 0.0
H293 H 0.92689 0.05881 0.23012 0.0
H294 H 0.90706 0.0171 0.22349 0.0
C295 C 0.8566 0.89799 0.14297 0.0
C296 C 0.90452 0.93196 0.1957 0.0
H297 H 0.90956 0.97057 0.2548 0.0
C298 C 0.92594 0.9428 0.17839 0.0
C299 C 0.89893 0.94168 0.22385 0.0
C300 C 0.87585 0.93088 0.24304 0.0
C301 C 0.94124 0.96372 0.18798 0.0
C302 C 0.9352 0.9739 0.21586 0.0
C303 C 0.91438 0.96255 0.2336 0.0
C304 C 0.94746 0.99822 0.22494 0.0
C305 C 0.96265 0.97559 0.16752 0.0
C306 C 0.97676 1.00142 0.22901 0.0
C307 C 0.98819 0.02541 0.23283 0.0
C308 C 0.97049 0.04644 0.23265 0.0
C309 C 0.94108 0.04293 0.23025 0.0
C310 C 0.92969 0.01909 0.22659 0.0
H311 H 0.96161 0.96771 0.14506 0.0
H312 H 0.95927 0.99609 0.16598 0.0
H313 H 0.98426 0.97236 0.17625 0.0
H314 H 0.99085 0.98553 0.22798 0.0
H315 H 0.01085 0.02763 0.23398 0.0
H316 H 0.83474 0.13519 0.67932 0.0
H317 H 0.85825 0.10315 0.70949 0.0
H318 H 0.937 0.11841 0.6647 0.0
H319 H 0.91404 0.15083 0.63557 0.0
H320 H 0.8796 0.06192 0.68787 0.0
H321 H 0.96607 0.10944 0.74631 0.0
H322 H 0.93724 0.12646 0.72954 0.0
H323 H 0.96751 0.11731 0.70804 0.0
C324 C 0.85725 0.1322 0.67661 0.0
C325 C 0.87245 0.14533 0.65483 0.0
C326 C 0.87066 0.11385 0.69378 0.0
C327 C 0.89955 0.1085 0.68969 0.0
C328 C 0.91494 0.1225 0.66892 0.0
H329 H 0.98513 0.97399 0.67631 0.0
H330 H 0.96499 0.01589 0.67433 0.0
C331 C 0.90163 0.1408 0.65188 0.0
C332 C 0.91272 0.08611 0.70362 0.0
H333 H 0.97418 0.06526 0.73505 0.0
C334 C 0.89991 0.06279 0.69891 0.0
C335 C 0.93918 0.08705 0.71827 0.0
C336 C 0.95309 0.11148 0.7261 0.0
C337 C 0.91372 0.04047 0.70639 0.0
C338 C 0.94121 0.04141 0.71855 0.0
C339 C 0.95326 0.06462 0.72529 0.0
C340 C 0.95845 0.01842 0.72119 0.0
C341 C 0.89933 0.01591 0.69994 0.0
C342 C 0.9628 0.00654 0.74843 0.0
C343 C 0.97455 0.98247 0.74965 0.0
C344 C 0.98189 0.9701 0.72362 0.0
C345 C 0.97948 0.98296 0.6967 0.0
C346 C 0.96796 0.00689 0.69553 0.0
H347 H 0.8761 0.01816 0.69727 0.0
H348 H 0.90797 0.00827 0.67921 0.0
H349 H 0.90337 1.00207 0.71775 0.0
H350 H 0.95562 0.01523 0.76847 0.0
H351 H 0.97604 0.97294 0.77069 0.0
H352 H 0.67733 0.40083 0.11765 0.0
H353 H 0.65065 0.43428 0.14108 0.0
H354 H 0.61147 0.38056 0.19945 0.0
H355 H 0.63794 0.34685 0.17589 0.0
H356 H 0.58995 0.43538 0.14247 0.0
H357 H 0.63741 0.43824 0.25425 0.0
H358 H 0.65539 0.42425 0.22351 0.0
H359 H 0.62637 0.40823 0.24083 0.0
C360 C 0.66327 0.39614 0.13569 0.0
C361 C 0.65969 0.37115 0.14482 0.0
C362 C 0.64806 0.41528 0.14906 0.0
C363 C 0.62908 0.40992 0.172 0.0
C364 C 0.62625 0.38515 0.18202 0.0
H365 H 0.50612 0.5291 0.21558 0.0
H366 H 0.52402 0.48631 0.20847 0.0
C367 C 0.64149 0.36593 0.16861 0.0
C368 C 0.61112 0.43018 0.18387 0.0
H369 H 0.60109 0.46701 0.24382 0.0
C370 C 0.59208 0.44213 0.16475 0.0
C371 C 0.61396 0.43885 0.21294 0.0
C372 C 0.63447 0.42692 0.23416 0.0
C373 C 0.5766 0.46315 0.17353 0.0
C374 C 0.57999 0.4723 0.20236 0.0
C375 C 0.59828 0.45978 0.22185 0.0
C376 C 0.56825 0.49688 0.21102 0.0
C377 C 0.55796 0.47625 0.15135 0.0
C378 C 0.58705 0.51669 0.21594 0.0
C379 C 0.57691 0.54082 0.22016 0.0
C380 C 0.54771 0.54566 0.21989 0.0
C381 C 0.5287 0.52572 0.21632 0.0
C382 C 0.53892 0.50139 0.21199 0.0
H383 H 0.56087 0.46886 0.12883 0.0
H384 H 0.53545 0.47364 0.15763 0.0
H385 H 0.56248 0.49663 0.15094 0.0
H386 H 0.60972 0.51369 0.21522 0.0
H387 H 0.592 0.55591 0.22282 0.0
H388 H 0.3577 0.39068 0.38578 0.0
H389 H 0.38141 0.42488 0.35964 0.0
H390 H 0.41764 0.37231 0.29915 0.0
H391 H 0.3938 0.33784 0.32534 0.0
H392 H 0.44078 0.42825 0.354 0.0
H393 H 0.38724 0.42895 0.24517 0.0
H394 H 0.37187 0.41391 0.27709 0.0
H395 H 0.4008 0.39949 0.25822 0.0
C396 C 0.37041 0.38642 0.36667 0.0
C397 C 0.37399 0.36156 0.35769 0.0
C398 C 0.38396 0.40597 0.35176 0.0
C399 C 0.40132 0.40117 0.32746 0.0
C400 C 0.40407 0.37648 0.31763 0.0
H401 H 0.51363 0.52793 0.27829 0.0
H402 H 0.4997 0.48384 0.28533 0.0
C403 C 0.39039 0.35682 0.33255 0.0
C404 C 0.41777 0.42202 0.31399 0.0
H405 H 0.42239 0.4594 0.25297 0.0
C406 C 0.4371 0.43489 0.33176 0.0
C407 C 0.4129 0.43057 0.28498 0.0
C408 C 0.39197 0.41769 0.26518 0.0
C409 C 0.45069 0.45676 0.32185 0.0
C410 C 0.44521 0.4658 0.29311 0.0
C411 C 0.42681 0.45229 0.27486 0.0
C412 C 0.45463 0.49113 0.28356 0.0
C413 C 0.4694 0.47084 0.34291 0.0
C414 C 0.43408 0.50956 0.27876 0.0
C415 C 0.44199 0.53442 0.27442 0.0
C416 C 0.47065 0.54143 0.27448 0.0
C417 C 0.49142 0.52289 0.27766 0.0
C418 C 0.48345 0.49781 0.28202 0.0
H419 H 0.4678 0.4634 0.3657 0.0
H420 H 0.49178 0.46927 0.33576 0.0
H421 H 0.46376 0.49097 0.34306 0.0
H422 H 0.41176 0.50492 0.27989 0.0
H423 H 0.42557 0.5484 0.27209 0.0
H424 H 0.18494 0.13704 0.82652 0.0
H425 H 0.16179 0.10347 0.7989 0.0
H426 H 0.0877 0.11015 0.85365 0.0
H427 H 0.11019 0.14395 0.88047 0.0
H428 H 0.14615 0.05926 0.82158 0.0
H429 H 0.05124 0.10382 0.77437 0.0
H430 H 0.08063 0.12177 0.78839 0.0
H431 H 0.0536 0.11005 0.81288 0.0
C432 C 0.16347 0.1317 0.83216 0.0
C433 C 0.14952 0.14297 0.85587 0.0
C434 C 0.15028 0.11251 0.81642 0.0
C435 C 0.1228 0.10451 0.82387 0.0
C436 C 0.10859 0.11633 0.84694 0.0
H437 H 0.04724 0.96459 0.83836 0.0
H438 H 0.06888 0.00592 0.84063 0.0
C439 C 0.1217 0.13541 0.86262 0.0
C440 C 0.11009 0.08195 0.81027 0.0
H441 H 0.04774 0.05884 0.78353 0.0
C442 C 0.12491 0.05932 0.81258 0.0
C443 C 0.08246 0.08193 0.79814 0.0
C444 C 0.06622 0.10578 0.793 0.0
C445 C 0.11209 0.03654 0.80525 0.0
C446 C 0.0836 0.03633 0.79575 0.0
C447 C 0.06945 0.05904 0.79126 0.0
C448 C 0.06758 0.01257 0.79376 0.0
C449 C 0.12877 0.01271 0.80892 0.0
C450 C 0.05857 1.00305 0.76668 0.0
C451 C 0.04606 0.97925 0.76528 0.0
C452 C 0.04228 0.96486 0.791 0.0
C453 C 0.05006 0.97513 0.81812 0.0
C454 C 0.06247 0.99872 0.81948 0.0
H455 H 0.15193 0.01632 0.80835 0.0
H456 H 0.12355 0.00405 0.8305 0.0
H457 H 0.12336 0.99913 0.79149 0.0
H458 H 0.06225 0.01356 0.74659 0.0
H459 H 0.04069 0.97168 0.74406 0.0
H460 H 0.16112 0.21699 0.96171 0.0
H461 H 0.15129 0.2141 0.01427 0.0
H462 H 0.16214 0.13415 0.01133 0.0
H463 H 0.17373 0.13704 0.95929 0.0
H464 H 0.1082 0.19177 0.03879 0.0
H465 H 0.20428 0.14846 0.08498 0.0
H466 H 0.20337 0.1614 0.04825 0.0
H467 H 0.19089 0.13005 0.0554 0.0
C468 C 0.16227 0.19886 0.97237 0.0
C469 C 0.16822 0.17723 0.95611 0.0
C470 C 0.15644 0.19722 1.00246 0.0
C471 C 0.15641 0.17396 0.017 0.0
C472 C 0.16278 0.15242 1.00093 0.0
H473 H 0.07173 0.10045 0.15128 0.0
H474 H 0.1038 0.11532 0.11282 0.0
C475 C 0.16888 0.15405 0.97094 0.0
C476 C 0.14675 0.17179 0.04804 0.0
H477 H 0.16093 0.14231 0.11328 0.0
C478 C 0.1201 0.18154 0.0553 0.0
C479 C 0.16228 0.15855 0.06974 0.0
C480 C 0.19192 0.14928 0.06425 0.0
C481 C 0.10774 0.17691 0.08286 0.0
C482 C 0.12245 0.16221 0.10375 0.0
C483 C 0.14971 0.15358 0.09717 0.0
C484 C 0.10793 0.15256 0.13036 0.0
C485 C 0.07824 0.18638 0.08881 0.0
C486 C 0.10054 0.16834 0.15363 0.0
C487 C 0.08227 0.15978 0.17587 0.0
C488 C 0.07111 0.13544 0.17485 0.0
C489 C 0.08 0.11932 0.15252 0.0
C490 C 0.09838 0.12775 0.1306 0.0
H491 H 0.06892 0.19608 0.06944 0.0
H492 H 0.06415 0.17061 0.09524 0.0
H493 H 0.07881 0.19967 0.10736 0.0
H494 H 0.10776 0.18757 0.15379 0.0
H495 H 0.07548 0.17262 0.1927 0.0
H496 H 0.37899 0.28342 0.46131 0.0
H497 H 0.39159 0.28564 0.5133 0.0
H498 H 0.36979 0.36384 0.5137 0.0
H499 H 0.35594 0.36152 0.46221 0.0
H500 H 0.43309 0.3133 0.53595 0.0
H501 H 0.3327 0.34072 0.5887 0.0
H502 H 0.33415 0.32904 0.55166 0.0
H503 H 0.3417 0.36142 0.55895 0.0
C504 C 0.37618 0.30095 0.47263 0.0
C505 C 0.36644 0.32231 0.4575 0.0
C506 C 0.38354 0.30221 0.50235 0.0
C507 C 0.38121 0.32479 0.51761 0.0
C508 C 0.37111 0.34604 0.50268 0.0
H509 H 0.4527 0.39971 0.66019 0.0
H510 H 0.42254 0.38389 0.62082 0.0
C511 C 0.36363 0.34478 0.47304 0.0
C512 C 0.39193 0.32687 0.54819 0.0
H513 H 0.37546 0.34955 0.61599 0.0
C514 C 0.42031 0.3207 0.55364 0.0
C515 C 0.37524 0.3365 0.5713 0.0
C516 C 0.34418 0.34205 0.56744 0.0
C517 C 0.43295 0.32531 0.58095 0.0
C518 C 0.41663 0.33608 0.60361 0.0
C519 C 0.38791 0.34125 0.59861 0.0
C520 C 0.43003 0.34491 0.63108 0.0
C521 C 0.46411 0.32003 0.58475 0.0
C522 C 0.44323 0.32822 0.65073 0.0
C523 C 0.46045 0.33729 0.67334 0.0
C524 C 0.46433 0.36311 0.67667 0.0
C525 C 0.44964 0.37971 0.65822 0.0
C526 C 0.43246 0.3707 0.63575 0.0
H527 H 0.47459 0.3154 0.56365 0.0
H528 H 0.47507 0.3364 0.5944 0.0
H529 H 0.46684 0.30393 0.6 0.0
H530 H 0.44149 0.30824 0.64758 0.0
H531 H 0.47227 0.32419 0.68675 0.0
H532 H 0.65326 0.29589 0.04556 0.0
H533 H 0.64205 0.29902 0.99331 0.0
H534 H 0.68488 0.37028 0.98843 0.0
H535 H 0.69523 0.36756 0.04106 0.0
H536 H 0.63552 0.37416 0.9652 0.0
H537 H 0.68345 0.28958 0.91838 0.0
H538 H 0.66085 0.28128 0.94853 0.0
H539 H 0.69189 0.30017 0.95486 0.0
C540 C 0.6608 0.31196 0.03317 0.0
C541 C 0.6751 0.33148 0.04734 0.0
C542 C 0.65459 0.31366 1.0032 0.0
C543 C 0.6631 0.33466 0.98662 0.0
C544 C 0.67822 0.35381 1.00063 0.0
H545 H 0.59874 0.37691 0.81086 0.0
H546 H 0.63507 0.36794 0.84822 0.0
C547 C 0.68406 0.35229 0.0307 0.0
C548 C 0.65318 0.33801 0.95581 0.0
H549 H 0.64381 0.30734 0.89091 0.0
C550 C 0.63806 0.35981 0.94875 0.0
C551 C 0.65648 0.31937 0.93413 0.0
C552 C 0.67434 0.29644 0.9393 0.0
C553 C 0.62471 0.36278 0.92147 0.0
C554 C 0.62637 0.34342 0.90067 0.0
C555 C 0.64257 0.32213 0.90698 0.0
C556 C 0.60801 0.34384 0.8744 0.0
C557 C 0.60743 0.38599 0.9156 0.0
C558 C 0.58137 0.33238 0.87622 0.0
C559 C 0.56068 0.33768 0.85529 0.0
C560 C 0.5664 0.35428 0.83195 0.0
C561 C 0.59392 0.36391 0.82855 0.0
C562 C 0.61461 0.35885 0.84985 0.0
H563 H 0.60827 0.39934 0.93411 0.0
H564 H 0.61536 0.39557 0.89549 0.0
H565 H 0.585 0.38076 0.91166 0.0
H566 H 0.57588 0.32085 0.89507 0.0
H567 H 0.53962 0.33003 0.85836 0.0
H568 H 0.90524 0.1686 0.55926 0.0
H569 H 0.91822 0.16461 0.50762 0.0
H570 H 0.83139 0.17672 0.48234 0.0
H571 H 0.81804 0.18039 0.53416 0.0
H572 H 0.89571 0.12912 0.46714 0.0
H573 H 0.87755 0.22754 0.43129 0.0
H574 H 0.8815 0.21881 0.46946 0.0
H575 H 0.84918 0.21193 0.45052 0.0
C576 C 0.88882 0.17026 0.54279 0.0
C577 C 0.86057 0.17473 0.55092 0.0
C578 C 0.89631 0.16811 0.51326 0.0
C579 C 0.87582 0.17057 0.49116 0.0
C580 C 0.84761 0.17516 0.49905 0.0
H581 H 0.93223 0.12254 0.31617 0.0
H582 H 0.89778 0.13157 0.35516 0.0
C583 C 0.84005 0.17727 0.52867 0.0
C584 C 0.88423 0.16754 0.46001 0.0
H585 H 0.89556 0.19989 0.39603 0.0
C586 C 0.89529 0.14445 0.4514 0.0
C587 C 0.88369 0.18765 0.43965 0.0
C588 C 0.87252 0.21298 0.44806 0.0
C589 C 0.90693 0.14115 0.42336 0.0
C590 C 0.90708 0.16144 0.40316 0.0
C591 C 0.89506 0.18431 0.41141 0.0
C592 C 0.92347 0.1602 0.3754 0.0
C593 C 0.92051 0.11641 0.41625 0.0
C594 C 0.94829 0.17447 0.37272 0.0
C595 C 0.96767 0.16954 0.35039 0.0
C596 C 0.96239 0.15049 0.33014 0.0
C597 C 0.93645 0.13766 0.3312 0.0
C598 C 0.91698 0.14261 0.35365 0.0
H599 H 0.92254 0.10413 0.43592 0.0
H600 H 0.90738 0.1065 0.39983 0.0
H601 H 0.94189 0.11934 0.40666 0.0
H602 H 0.95375 0.18811 0.38923 0.0
H603 H 0.98773 0.17941 0.3502 0.0
H604 H 0.81385 0.81688 0.03921 0.0
H605 H 0.82683 0.8166 0.98709 0.0
H606 H 0.90734 0.85011 0.00802 0.0
H607 H 0.89516 0.84942 0.06001 0.0
H608 H 0.83972 0.85468 0.94946 0.0
H609 H 0.93138 0.79146 0.95893 0.0
H610 H 0.90601 0.79509 0.98824 0.0
H611 H 0.93472 0.81705 0.98381 0.0
C612 C 0.83449 0.82386 0.03275 0.0
C613 C 0.85349 0.8331 0.05388 0.0
C614 C 0.84178 0.82383 1.00293 0.0
C615 C 0.86827 0.83288 0.9937 0.0
C616 C 0.88705 0.84247 0.01467 0.0
H617 H 0.9358 0.90304 0.84648 0.0
H618 H 0.90354 0.88886 0.88496 0.0
C619 C 0.87986 0.84242 0.04441 0.0
C620 C 0.87626 0.83312 0.96215 0.0
H621 H 0.93089 0.81883 0.91641 0.0
C622 C 0.85939 0.84644 0.94205 0.0
C623 C 0.90144 0.82173 0.95217 0.0
C624 C 0.91923 0.80529 0.97188 0.0
C625 C 0.8682 0.85032 0.91287 0.0
C626 C 0.89487 0.84115 0.90379 0.0
C627 C 0.91059 0.82618 0.92329 0.0
C628 C 0.90872 0.84944 0.87599 0.0
C629 C 0.84906 0.86463 0.89229 0.0
C630 C 0.92223 0.83211 0.85764 0.0
C631 C 0.94104 0.84031 0.83577 0.0
C632 C 0.94631 0.86591 0.83175 0.0
C633 C 0.93143 0.88322 0.84871 0.0
C634 C 0.91286 0.87508 0.87066 0.0
H635 H 0.82646 0.86112 0.89774 0.0
H636 H 0.853 0.88495 0.8948 0.0
H637 H 0.85277 0.85953 0.86903 0.0
H638 H 0.91969 0.81223 0.86154 0.0
H639 H 0.95319 0.82662 0.8238 0.0
H640 H 0.70797 0.65921 0.52531 0.0
H641 H 0.69033 0.65905 0.47465 0.0
H642 H 0.60772 0.68085 0.50535 0.0
H643 H 0.62525 0.68145 0.55581 0.0
H644 H 0.64558 0.62911 0.45393 0.0
H645 H 0.6225 0.72948 0.43656 0.0
H646 H 0.64555 0.71829 0.46544 0.0
H647 H 0.60774 0.71731 0.4701 0.0
C648 C 0.68618 0.66439 0.52117 0.0
C649 C 0.66798 0.67036 0.54454 0.0
C650 C 0.67613 0.6642 0.49226 0.0
C651 C 0.64786 0.67032 0.48621 0.0
C652 C 0.62977 0.67656 0.50946 0.0
H653 H 0.51637 0.65937 0.36529 0.0
H654 H 0.55094 0.66978 0.40302 0.0
C655 C 0.63972 0.67661 0.53832 0.0
C656 C 0.63641 0.66841 0.45602 0.0
H657 H 0.59851 0.70079 0.40458 0.0
C658 C 0.6358 0.64485 0.44276 0.0
C659 C 0.62383 0.68903 0.44151 0.0
C660 C 0.62515 0.71501 0.45399 0.0
C661 C 0.6211 0.64096 0.41639 0.0
C662 C 0.60713 0.66134 0.4027 0.0
C663 C 0.60919 0.68519 0.41511 0.0
C664 C 0.58723 0.65762 0.37794 0.0
C665 C 0.61906 0.61478 0.40449 0.0
C666 C 0.59621 0.64794 0.35091 0.0
C667 C 0.57633 0.64177 0.32931 0.0
C668 C 0.54732 0.64549 0.33431 0.0
C669 C 0.53861 0.65625 0.36083 0.0
C670 C 0.55836 0.66232 0.38236 0.0
H671 H 0.62703 0.60057 0.42036 0.0
H672 H 0.59681 0.61011 0.3989 0.0
H673 H 0.63188 0.6135 0.38415 0.0
H674 H 0.61843 0.64442 0.34691 0.0
H675 H 0.58346 0.63287 0.30943 0.0
H676 H 0.31417 0.68832 0.96607 0.0
H677 H 0.32695 0.68588 0.01829 0.0
H678 H 0.40541 0.64992 0.99558 0.0
H679 H 0.39321 0.65267 0.94367 0.0
H680 H 0.37262 0.62628 0.04279 0.0
H681 H 0.39114 0.72826 0.05821 0.0
H682 H 0.35831 0.71827 0.04196 0.0
H683 H 0.39081 0.71438 0.02222 0.0
C684 C 0.33423 0.68005 0.97222 0.0
C685 C 0.35261 0.67059 0.95066 0.0
C686 C 0.34144 0.67863 1.00204 0.0
C687 C 0.36714 0.66778 0.01072 0.0
C688 C 0.38539 0.65823 0.98931 0.0
H689 H 0.49224 0.66483 0.13501 0.0
H690 H 0.45683 0.67435 0.09771 0.0
C691 C 0.37829 0.6597 0.95963 0.0
C692 C 0.37568 0.66638 0.04198 0.0
H693 H 0.40472 0.70135 0.0966 0.0
C694 C 0.37905 0.64269 0.05493 0.0
C695 C 0.38402 0.68788 0.05759 0.0
C696 C 0.38108 0.7137 0.04442 0.0
C697 C 0.39217 0.63979 0.08239 0.0
C698 C 0.40193 0.66121 0.09735 0.0
C699 C 0.397 0.68501 0.08516 0.0
C700 C 0.42169 0.65896 0.12249 0.0
C701 C 0.39738 0.61374 0.09415 0.0
C702 C 0.41351 0.64789 0.14931 0.0
C703 C 0.43388 0.64236 0.17078 0.0
C704 C 0.46257 0.64787 0.16564 0.0
C705 C 0.47029 0.66024 0.1395 0.0
C706 C 0.45005 0.66581 0.11822 0.0
H707 H 0.39125 0.5991 0.07821 0.0
H708 H 0.42008 0.61131 0.09975 0.0
H709 H 0.38486 0.61079 0.11452 0.0
H710 H 0.39166 0.64263 0.15311 0.0
H711 H 0.42747 0.63247 0.19053 0.0
H712 H 0.16571 0.79769 0.46997 0.0
H713 H 0.14723 0.79921 0.52017 0.0
H714 H 0.15936 0.87903 0.52096 0.0
H715 H 0.17853 0.87771 0.47105 0.0
H716 H 0.1723 0.82598 0.57718 0.0
H717 H 0.07017 0.86037 0.53111 0.0
H718 H 0.09527 0.84313 0.50934 0.0
H719 H 0.10225 0.87511 0.51831 0.0
C720 C 0.1651 0.81551 0.48102 0.0
C721 C 0.17339 0.83762 0.46633 0.0
C722 C 0.15451 0.81632 0.5097 0.0
C723 C 0.15195 0.83922 0.52415 0.0
C724 C 0.16118 0.86118 0.51008 0.0
H725 H 0.08642 0.88501 0.69244 0.0
H726 H 0.11961 0.87408 0.65311 0.0
C727 C 0.17186 0.8604 0.48147 0.0
C728 C 0.13699 0.84054 0.55263 0.0
H729 H 0.07371 0.85734 0.58246 0.0
C730 C 0.15075 0.8328 0.57847 0.0
C731 C 0.10885 0.84927 0.55404 0.0
C732 C 0.09304 0.85735 0.52679 0.0
C733 C 0.137 0.83389 0.60589 0.0
C734 C 0.10894 0.84288 0.60725 0.0
C735 C 0.09523 0.85038 0.58132 0.0
C736 C 0.093 0.84501 0.63515 0.0
C737 C 0.15231 0.82521 0.63313 0.0
C738 C 0.06753 0.83176 0.63864 0.0
C739 C 0.04874 0.83791 0.66108 0.0
C740 C 0.05517 0.8573 0.68052 0.0
C741 C 0.08149 0.86941 0.67833 0.0
C742 C 0.10035 0.86326 0.65578 0.0
H743 H 0.17177 0.81455 0.6278 0.0
H744 H 0.15847 0.8417 0.64629 0.0
H745 H 0.13824 0.8133 0.64695 0.0
H746 H 0.06136 0.81777 0.6228 0.0
H747 H 0.02833 0.82865 0.66205 0.0
H748 H 0.2551 0.28752 0.35113 0.0
H749 H 0.21711 0.2693 0.32144 0.0
H750 H 0.2793 0.2326 0.26759 0.0
H751 H 0.31732 0.25054 0.29772 0.0
H752 H 0.20243 0.26823 0.26095 0.0
H753 H 0.23412 0.17449 0.30356 0.0
H754 H 0.24785 0.20304 0.31879 0.0
H755 H 0.2609 0.19196 0.28423 0.0
C756 C 0.26058 0.27612 0.33243 0.0
C757 C 0.28893 0.27044 0.32647 0.0
C758 C 0.23893 0.26568 0.31553 0.0
C759 C 0.24534 0.24926 0.29257 0.0
C760 C 0.27385 0.2449 0.28546 0.0
H761 H 0.11716 0.14237 0.22981 0.0
H762 H 0.16046 0.16807 0.22622 0.0
C763 C 0.29553 0.25531 0.30246 0.0
C764 C 0.22212 0.235 0.27832 0.0
H765 H 0.19278 0.17664 0.27563 0.0
C766 C 0.20054 0.24814 0.26372 0.0
C767 C 0.21967 0.20874 0.28181 0.0
C768 C 0.2417 0.19365 0.2981 0.0
C769 C 0.1761 0.23588 0.2536 0.0
C770 C 0.17294 0.20988 0.25863 0.0
C771 C 0.19526 0.19653 0.27163 0.0
C772 C 0.14526 0.19692 0.25528 0.0
C773 C 0.15351 0.251 0.23833 0.0
C774 C 0.12222 0.20482 0.27224 0.0
C775 C 0.09782 0.19021 0.27436 0.0
C776 C 0.0958 0.16745 0.25943 0.0
C777 C 0.11808 0.1601 0.24107 0.0
C778 C 0.1428 0.17469 0.23915 0.0
H779 H 0.16281 0.26744 0.22674 0.0
H780 H 0.14162 0.23956 0.22225 0.0
H781 H 0.13837 0.25807 0.25492 0.0
H782 H 0.12378 0.22148 0.28548 0.0
H783 H 0.08102 0.19607 0.28896 0.0
H784 H 0.27423 0.23938 0.86921 0.0
H785 H 0.31418 0.25591 0.84091 0.0
H786 H 0.27218 0.23565 0.76038 0.0
H787 H 0.23154 0.21973 0.78901 0.0
H788 H 0.35127 0.2374 0.80144 0.0
H789 H 0.28351 0.30989 0.74846 0.0
H790 H 0.27086 0.29047 0.77826 0.0
H791 H 0.27398 0.2779 0.74195 0.0
C792 C 0.2738 0.23809 0.84548 0.0
C793 C 0.25006 0.22837 0.83115 0.0
C794 C 0.2966 0.24751 0.8293 0.0
C795 C 0.29606 0.24742 0.79846 0.0
C796 C 0.27285 0.2364 0.78411 0.0
H797 H 0.4546 0.31936 0.73573 0.0
H798 H 0.4155 0.28902 0.7323 0.0
C799 C 0.24982 0.22711 0.80041 0.0
C800 C 0.31904 0.26055 0.78206 0.0
H801 H 0.33236 0.31374 0.74225 0.0
C802 C 0.3472 0.25381 0.78796 0.0
C803 C 0.31365 0.28199 0.76448 0.0
C804 C 0.28392 0.2907 0.75798 0.0
C805 C 0.36999 0.26889 0.77874 0.0
C806 C 0.36451 0.29103 0.76245 0.0
C807 C 0.3365 0.29671 0.7546 0.0
C808 C 0.38648 0.31075 0.75857 0.0
C809 C 0.39949 0.26204 0.7886 0.0
C810 C 0.38257 0.33366 0.77273 0.0
C811 C 0.40453 0.35103 0.77412 0.0
C812 C 0.43089 0.34599 0.76126 0.0
C813 C 0.43429 0.3239 0.74524 0.0
C814 C 0.41213 0.3064 0.74376 0.0
H815 H 0.3995 0.24623 0.8046 0.0
H816 H 0.41224 0.25646 0.76929 0.0
H817 H 0.41006 0.2783 0.79891 0.0
H818 H 0.36302 0.33753 0.78427 0.0
H819 H 0.40134 0.36793 0.78662 0.0
H820 H 0.79673 0.22552 0.71272 0.0
H821 H 0.76056 0.24266 0.74586 0.0
H822 H 0.6992 0.23918 0.67578 0.0
H823 H 0.73482 0.22132 0.6435 0.0
H824 H 0.73676 0.28535 0.74062 0.0
H825 H 0.64952 0.21763 0.74089 0.0
H826 H 0.68438 0.20947 0.72788 0.0
H827 H 0.65887 0.22371 0.70343 0.0
C828 C 0.77519 0.22761 0.70496 0.0
C829 C 0.76823 0.22185 0.67588 0.0
C830 C 0.75458 0.23749 0.72378 0.0
C831 C 0.72684 0.24182 0.71363 0.0
C832 C 0.71997 0.23523 0.68468 0.0
H833 H 0.62509 0.36317 0.71325 0.0
H834 H 0.66328 0.33316 0.71739 0.0
C835 C 0.74041 0.22518 0.66609 0.0
C836 C 0.70618 0.25649 0.73122 0.0
H837 H 0.63509 0.26215 0.74295 0.0
C838 C 0.71467 0.27989 0.74192 0.0
C839 C 0.67738 0.24934 0.73398 0.0
C840 C 0.66718 0.2235 0.72622 0.0
C841 C 0.6948 0.29723 0.75215 0.0
C842 C 0.6656 0.29136 0.75082 0.0
C843 C 0.65739 0.267 0.74332 0.0
C844 C 0.64356 0.31114 0.75194 0.0
C845 C 0.70526 0.32214 0.76301 0.0
C846 C 0.61934 0.3088 0.7698 0.0
C847 C 0.59706 0.32605 0.76722 0.0
C848 C 0.59863 0.34566 0.74652 0.0
C849 C 0.62326 0.34831 0.72946 0.0
C850 C 0.64533 0.33126 0.73205 0.0
H851 H 0.72601 0.32006 0.77421 0.0
H852 H 0.70842 0.33498 0.74402 0.0
H853 H 0.69002 0.33075 0.77847 0.0
H854 H 0.61731 0.29324 0.78503 0.0
H855 H 0.57812 0.32329 0.78026 0.0
H856 H 0.77832 0.29057 0.14294 0.0
H857 H 0.81937 0.27324 0.16899 0.0
H858 H 0.76456 0.24707 0.23864 0.0
H859 H 0.7234 0.26412 0.21225 0.0
H860 H 0.84295 0.27872 0.22614 0.0
H861 H 0.80078 0.18285 0.2077 0.0
H862 H 0.78641 0.20996 0.1893 0.0
H863 H 0.77797 0.20381 0.22714 0.0
C864 C 0.77522 0.28162 0.16414 0.0
C865 C 0.74795 0.27866 0.17577 0.0
C866 C 0.79861 0.2717 0.17898 0.0
C867 C 0.79499 0.25853 0.20555 0.0
C868 C 0.76779 0.25684 0.21797 0.0
H869 H 0.92272 0.15449 0.2754 0.0
H870 H 0.8814 0.18229 0.27613 0.0
C871 C 0.74437 0.26673 0.20306 0.0
C872 C 0.81934 0.2449 0.21866 0.0
H873 H 0.84545 0.18606 0.22945 0.0
C874 C 0.84339 0.25846 0.22724 0.0
C875 C 0.81986 0.21846 0.22022 0.0
C876 C 0.79502 0.20281 0.21043 0.0
C877 C 0.86821 0.24628 0.23649 0.0
C878 C 0.86918 0.21984 0.23664 0.0
C879 C 0.84468 0.20632 0.22946 0.0
C880 C 0.8961 0.20581 0.24028 0.0
C881 C 0.89333 0.26185 0.24553 0.0
C882 C 0.91827 0.20999 0.2203 0.0
C883 C 0.94178 0.19426 0.22004 0.0
C884 C 0.94369 0.17396 0.23972 0.0
C885 C 0.92216 0.17037 0.26061 0.0
C886 C 0.89844 0.1861 0.26079 0.0
H887 H 0.8865 0.28016 0.25438 0.0
H888 H 0.90631 0.25207 0.26237 0.0
H889 H 0.9068 0.26563 0.22601 0.0
H890 H 0.91672 0.22459 0.20377 0.0
H891 H 0.95798 0.1974 0.20356 0.0
H892 H 0.78483 0.68124 0.6864 0.0
H893 H 0.81375 0.7064 0.71996 0.0
H894 H 0.77262 0.77326 0.68811 0.0
H895 H 0.74345 0.74808 0.65528 0.0
H896 H 0.85097 0.73955 0.70025 0.0
H897 H 0.77786 0.78917 0.77379 0.0
H898 H 0.76703 0.76218 0.75302 0.0
H899 H 0.76717 0.79284 0.73627 0.0
C900 C 0.78134 0.70121 0.68751 0.0
C901 C 0.76183 0.71285 0.66874 0.0
C902 C 0.79788 0.71558 0.70655 0.0
C903 C 0.79513 0.74175 0.70695 0.0
C904 C 0.77462 0.75312 0.68895 0.0
H905 H 0.88983 0.87163 0.72151 0.0
H906 H 0.85314 0.83938 0.72191 0.0
C907 C 0.75805 0.73876 0.67007 0.0
C908 C 0.81635 0.75747 0.72238 0.0
H909 H 0.82308 0.80981 0.76427 0.0
C910 C 0.84498 0.75449 0.71492 0.0
C911 C 0.80856 0.77701 0.74148 0.0
C912 C 0.77848 0.78031 0.75183 0.0
C913 C 0.86567 0.77154 0.72419 0.0
C914 C 0.8576 0.79196 0.74187 0.0
C915 C 0.82925 0.79416 0.75074 0.0
C916 C 0.87748 0.81289 0.74759 0.0
C917 C 0.89563 0.76855 0.71322 0.0
C918 C 0.90285 0.80917 0.76311 0.0
C919 C 0.92395 0.82764 0.76281 0.0
C920 C 0.9198 0.85011 0.74726 0.0
C921 C 0.89354 0.85448 0.73373 0.0
C922 C 0.87254 0.83609 0.734 0.0
H923 H 0.89734 0.75401 0.69606 0.0
H924 H 0.90372 0.78648 0.704 0.0
H925 H 0.90952 0.76304 0.7318 0.0
H926 H 0.90699 0.79146 0.77395 0.0
H927 H 0.94426 0.82356 0.77269 0.0
H928 H 0.80135 0.75759 0.2101 0.0
H929 H 0.76329 0.73782 0.23894 0.0
H930 H 0.70169 0.78308 0.19338 0.0
H931 H 0.73978 0.80291 0.16463 0.0
H932 H 0.69121 0.77204 0.25879 0.0
H933 H 0.71206 0.6897 0.18805 0.0
H934 H 0.74185 0.7028 0.20711 0.0
H935 H 0.72471 0.72061 0.17871 0.0
C936 C 0.77977 0.76391 0.20709 0.0
C937 C 0.77332 0.78181 0.18547 0.0
C938 C 0.75808 0.75257 0.22343 0.0
C939 C 0.72969 0.75889 0.21814 0.0
C940 C 0.72347 0.77806 0.19792 0.0
H941 H 0.56296 0.70233 0.24149 0.0
H942 H 0.60459 0.72946 0.24313 0.0
C943 C 0.74518 0.78939 0.18156 0.0
C944 C 0.70648 0.74318 0.23029 0.0
H945 H 0.67489 0.68636 0.22166 0.0
C946 C 0.68772 0.7532 0.25097 0.0
C947 C 0.70202 0.71864 0.22 0.0
C948 C 0.72103 0.70723 0.1971 0.0
C949 C 0.66443 0.73927 0.26153 0.0
C950 C 0.6595 0.71495 0.25056 0.0
C951 C 0.67873 0.70486 0.23036 0.0
C952 C 0.63338 0.70029 0.25722 0.0
C953 C 0.64543 0.75074 0.28431 0.0
C954 C 0.63533 0.67489 0.26523 0.0
C955 C 0.61153 0.65932 0.26388 0.0
C956 C 0.58527 0.66898 0.25512 0.0
C957 C 0.58282 0.69467 0.24929 0.0
C958 C 0.60667 0.7102 0.25026 0.0
H959 H 0.65719 0.76442 0.2979 0.0
H960 H 0.62804 0.76095 0.27311 0.0
H961 H 0.63598 0.73629 0.29899 0.0
H962 H 0.65571 0.66672 0.27038 0.0
H963 H 0.61418 0.6394 0.26729 0.0
H964 H 0.22173 0.76288 0.31507 0.0
H965 H 0.25393 0.74158 0.28113 0.0
H966 H 0.32388 0.78478 0.31445 0.0
H967 H 0.29163 0.80623 0.34814 0.0
H968 H 0.32587 0.77351 0.25048 0.0
H969 H 0.30754 0.6909 0.3234 0.0
H970 H 0.27662 0.70502 0.30744 0.0
H971 H 0.29723 0.72204 0.3337 0.0
C972 C 0.2438 0.76841 0.3143 0.0
C973 C 0.25435 0.78619 0.33391 0.0
C974 C 0.26218 0.75618 0.29507 0.0
C975 C 0.29133 0.76143 0.29551 0.0
C976 C 0.30146 0.78053 0.31367 0.0
H977 H 0.45081 0.69879 0.25559 0.0
H978 H 0.41075 0.72753 0.25688 0.0
C979 C 0.28307 0.79278 0.33286 0.0
C980 C 0.31172 0.74478 0.28049 0.0
H981 H 0.34044 0.68651 0.28564 0.0
C982 C 0.32889 0.75437 0.25784 0.0
C983 C 0.31564 0.71984 0.29019 0.0
C984 C 0.29849 0.70877 0.31514 0.0
C985 C 0.35013 0.73969 0.24485 0.0
C986 C 0.35468 0.715 0.25528 0.0
C987 C 0.33687 0.70531 0.27735 0.0
C988 C 0.3793 0.69951 0.2462 0.0
C989 C 0.36746 0.75082 0.22017 0.0
C990 C 0.3753 0.67425 0.2389 0.0
C991 C 0.39823 0.65776 0.23865 0.0
C992 C 0.42558 0.66635 0.24505 0.0
C993 C 0.42999 0.69193 0.2497 0.0
C994 C 0.40702 0.70839 0.25041 0.0
H995 H 0.35512 0.765 0.20768 0.0
H996 H 0.38625 0.76038 0.22948 0.0
H997 H 0.37484 0.73626 0.20475 0.0
H998 H 0.35416 0.66688 0.23573 0.0
H999 H 0.39426 0.63798 0.23581 0.0
H1000 H 0.29921 0.74514 0.79189 0.0
H1001 H 0.25916 0.76403 0.76535 0.0
H1002 H 0.20156 0.73346 0.82996 0.0
H1003 H 0.24148 0.71428 0.85607 0.0
H1004 H 0.17992 0.73232 0.77197 0.0
H1005 H 0.2225 0.8261 0.80083 0.0
H1006 H 0.24561 0.80635 0.78006 0.0
H1007 H 0.23611 0.79769 0.81698 0.0
C1008 C 0.27787 0.74195 0.79984 0.0
C1009 C 0.27317 0.72825 0.82578 0.0
C1010 C 0.25508 0.75289 0.78487 0.0
C1011 C 0.22742 0.75051 0.79596 0.0
C1012 C 0.2227 0.73556 0.82101 0.0
H1013 H 0.06579 0.81237 0.80217 0.0
H1014 H 0.10686 0.78504 0.79921 0.0
C1015 C 0.24544 0.72458 0.83588 0.0
C1016 C 0.20366 0.76524 0.78335 0.0
H1017 H 0.17826 0.82482 0.77799 0.0
C1018 C 0.1797 0.75257 0.77286 0.0
C1019 C 0.20341 0.79169 0.78442 0.0
C1020 C 0.22814 0.80636 0.79635 0.0
C1021 C 0.15517 0.76558 0.7644 0.0
C1022 C 0.15442 0.79191 0.76696 0.0
C1023 C 0.17889 0.80465 0.77591 0.0
C1024 C 0.12761 0.80628 0.76467 0.0
C1025 C 0.13006 0.75095 0.75341 0.0
C1026 C 0.12546 0.82742 0.74622 0.0
C1027 C 0.10185 0.8432 0.74799 0.0
C1028 C 0.08026 0.83815 0.76839 0.0
C1029 C 0.08204 0.81656 0.78604 0.0
C1030 C 0.10542 0.80079 0.78418 0.0
H1031 H 0.13687 0.73333 0.74282 0.0
H1032 H 0.11625 0.74587 0.77227 0.0
H1033 H 0.11743 0.76204 0.73742 0.0
H1034 H 0.14256 0.83226 0.73134 0.0
H1035 H 0.10142 0.86016 0.73495 0.0
loop_
_geom_bond_atom_site_label_1
_geom_bond_atom_site_label_2
_geom_bond_distance
_geom_bond_site_symmetry_2
_ccdc_geom_bond_type
H0 C3 0.929 . S
H1 C6 0.929 . S
H2 C8 0.930 . S
C3 H0 0.929 . S
C3 C4 1.398 . S
C3 C5 1.396 . S
C4 C3 1.398 . S
C4 C8 1.407 . S
C5 C3 1.396 . S
C5 C6 1.394 . S
C6 H1 0.929 . S
C6 C5 1.394 . S
C6 C7 1.382 . S
C7 C6 1.382 . S
C7 C8 1.392 . S
C7 N9 1.420 . S
C8 H2 0.930 . S
C8 C4 1.407 . S
C8 C7 1.392 . S
N9 C7 1.420 . S
N9 C10 1.244 . S
C10 N9 1.244 . S
H11 C14 0.929 . S
H12 C17 0.929 . S
H13 C19 0.930 . S
C14 H11 0.929 . S
C14 C15 1.398 . S
C14 C16 1.396 . S
C15 C14 1.398 . S
C15 C19 1.407 . S
C16 C14 1.396 . S
C16 C17 1.394 . S
C17 H12 0.929 . S
C17 C16 1.394 . S
C17 C18 1.382 . S
C18 C17 1.382 . S
C18 C19 1.392 . S
C18 N20 1.420 . S
C19 H13 0.930 . S
C19 C15 1.407 . S
C19 C18 1.392 . S
N20 C18 1.420 . S
N20 C21 1.244 . S
C21 N20 1.244 . S
H22 C25 0.929 . S
H23 C28 0.929 . S
H24 C30 0.930 . S
C25 H22 0.929 . S
C25 C26 1.398 . S
C25 C27 1.396 . S
C26 C25 1.398 . S
C26 C30 1.407 . S
C27 C25 1.396 . S
C27 C28 1.394 . S
C28 H23 0.929 . S
C28 C27 1.394 . S
C28 C29 1.382 . S
C29 C28 1.382 . S
C29 C30 1.392 . S
C29 N31 1.420 . S
C30 H24 0.930 . S
C30 C26 1.407 . S
C30 C29 1.392 . S
N31 C29 1.420 . S
N31 C32 1.244 . S
C32 N31 1.244 . S
H33 C36 0.929 . S
H34 C39 0.929 . S
H35 C41 0.930 . S
C36 H33 0.929 . S
C36 C37 1.398 . S
C36 C38 1.396 . S
C37 C36 1.398 . S
C37 C41 1.407 . S
C38 C36 1.396 . S
C38 C39 1.394 . S
C39 H34 0.929 . S
C39 C38 1.394 . S
C39 C40 1.382 . S
C40 C39 1.382 . S
C40 C41 1.392 . S
C40 N42 1.420 . S
C41 H35 0.930 . S
C41 C37 1.407 . S
C41 C40 1.392 . S
N42 C40 1.420 . S
N42 C43 1.244 . S
C43 N42 1.244 . S
H44 C47 0.929 . S
H45 C50 0.929 . S
H46 C52 0.930 . S
C47 H44 0.929 . S
C47 C48 1.398 . S
C47 C49 1.396 . S
C48 C47 1.398 . S
C48 C52 1.407 . S
C49 C47 1.396 . S
C49 C50 1.394 . S
C50 H45 0.929 . S
C50 C49 1.394 . S
C50 C51 1.382 . S
C51 C50 1.382 . S
C51 C52 1.392 . S
C51 N53 1.420 . S
C52 H46 0.930 . S
C52 C48 1.407 . S
C52 C51 1.392 . S
N53 C51 1.420 . S
N53 C54 1.244 . S
C54 N53 1.244 . S
H55 C58 0.929 . S
H56 C61 0.929 . S
H57 C63 0.930 . S
C58 H55 0.929 . S
C58 C59 1.398 . S
C58 C60 1.396 . S
C59 C58 1.398 . S
C59 C63 1.407 . S
C60 C58 1.396 . S
C60 C61 1.394 . S
C61 H56 0.929 . S
C61 C60 1.394 . S
C61 C62 1.382 . S
C62 C61 1.382 . S
C62 C63 1.392 . S
C62 N64 1.420 . S
C63 H57 0.930 . S
C63 C59 1.407 . S
C63 C62 1.392 . S
N64 C62 1.420 . S
N64 C65 1.244 . S
C65 N64 1.244 . S
H66 C69 0.929 . S
H67 C72 0.929 . S
H68 C74 0.930 . S
C69 H66 0.929 . S
C69 C70 1.398 . S
C69 C71 1.396 . S
C70 C69 1.398 . S
C70 C74 1.407 . S
C71 C69 1.396 . S
C71 C72 1.394 . S
C72 H67 0.929 . S
C72 C71 1.394 . S
C72 C73 1.382 . S
C73 C72 1.382 . S
C73 C74 1.392 . S
C73 N75 1.420 . S
C74 H68 0.930 . S
C74 C70 1.407 . S
C74 C73 1.392 . S
N75 C73 1.420 . S
N75 C76 1.244 . S
C76 N75 1.244 . S
H77 C80 0.929 . S
H78 C83 0.929 . S
H79 C85 0.930 . S
C80 H77 0.929 . S
C80 C81 1.398 . S
C80 C82 1.396 . S
C81 C80 1.398 . S
C81 C85 1.407 . S
C82 C80 1.396 . S
C82 C83 1.394 . S
C83 H78 0.929 . S
C83 C82 1.394 . S
C83 C84 1.382 . S
C84 C83 1.382 . S
C84 C85 1.392 . S
C84 N86 1.420 . S
C85 H79 0.930 . S
C85 C81 1.407 . S
C85 C84 1.392 . S
N86 C84 1.420 . S
N86 C87 1.244 . S
C87 N86 1.244 . S
Zn88 O94 1.920 . S
Zn88 O100 1.898 . S
Zn88 O103 1.905 . S
Zn89 O97 1.905 1_655 S
Zn89 O98 1.898 . S
Zn89 O106 1.920 . S
Zn90 O93 2.080 1_455 S
Zn90 O96 2.114 . S
Zn90 O99 2.120 1_455 S
Zn90 O101 2.120 . S
Zn90 O102 2.114 . S
Zn90 O105 2.080 1_455 S
C91 O96 1.166 . S
C91 O97 1.182 . S
C92 O98 1.167 . S
C92 O99 1.299 . S
O93 Zn90 2.080 1_655 S
O93 C107 1.305 . S
O94 Zn88 1.920 . S
O94 C107 1.234 1_455 S
C95 O100 1.167 . S
C95 O101 1.299 . S
O96 Zn90 2.114 . S
O96 C91 1.166 . S
O97 Zn89 1.905 1_455 S
O97 C91 1.182 . S
O98 Zn89 1.898 . S
O98 C92 1.167 . S
O99 Zn90 2.120 1_655 S
O99 C92 1.299 . S
O100 Zn88 1.898 . S
O100 C95 1.167 . S
O101 Zn90 2.120 . S
O101 C95 1.299 . S
O102 Zn90 2.114 . S
O102 C104 1.166 . S
O103 Zn88 1.905 . S
O103 C104 1.182 . S
C104 O102 1.166 . S
C104 O103 1.182 . S
O105 Zn90 2.080 1_655 S
O105 C108 1.305 . S
O106 Zn89 1.920 . S
O106 C108 1.234 . S
C107 O93 1.305 . S
C107 O94 1.234 1_655 S
C108 O105 1.305 . S
C108 O106 1.234 . S
Zn109 O115 1.920 . S
Zn109 O121 1.898 . S
Zn109 O124 1.905 . S
Zn110 O118 1.905 . S
Zn110 O119 1.898 . S
Zn110 O127 1.920 . S
Zn111 O114 2.080 . S
Zn111 O117 2.114 . S
Zn111 O120 2.120 . S
Zn111 O122 2.120 . S
Zn111 O123 2.114 . S
Zn111 O126 2.080 . S
C112 O117 1.166 . S
C112 O118 1.182 . S
C113 O119 1.167 . S
C113 O120 1.299 . S
O114 Zn111 2.080 . S
O114 C128 1.305 . S
O115 Zn109 1.920 . S
O115 C128 1.234 . S
C116 O121 1.167 . S
C116 O122 1.299 . S
O117 Zn111 2.114 . S
O117 C112 1.166 . S
O118 Zn110 1.905 . S
O118 C112 1.182 . S
O119 Zn110 1.898 . S
O119 C113 1.167 . S
O120 Zn111 2.120 . S
O120 C113 1.299 . S
O121 Zn109 1.898 . S
O121 C116 1.167 . S
O122 Zn111 2.120 . S
O122 C116 1.299 . S
O123 Zn111 2.114 . S
O123 C125 1.166 . S
O124 Zn109 1.905 . S
O124 C125 1.182 . S
C125 O123 1.166 . S
C125 O124 1.182 . S
O126 Zn111 2.080 . S
O126 C129 1.305 . S
O127 Zn110 1.920 . S
O127 C129 1.234 . S
C128 O114 1.305 . S
C128 O115 1.234 . S
C129 O126 1.305 . S
C129 O127 1.234 . S
Zn130 O136 1.920 . S
Zn130 O142 1.898 . S
Zn130 O145 1.878 1_455 S
Zn131 O139 1.905 . S
Zn131 O140 1.898 . S
Zn131 O148 1.920 1_655 S
Zn132 O135 2.080 . S
Zn132 O138 2.114 1_455 S
Zn132 O141 2.120 1_455 S
Zn132 O143 2.120 . S
Zn132 O144 2.114 1_455 S
Zn132 O147 2.080 . S
C133 O138 1.166 . S
C133 O139 1.182 . S
C134 O140 1.167 . S
C134 O141 1.299 . S
O135 Zn132 2.080 . S
O135 C149 1.305 . S
O136 Zn130 1.920 . S
O136 C149 1.234 . S
C137 O142 1.167 . S
C137 O143 1.299 . S
O138 Zn132 2.114 1_655 S
O138 C133 1.166 . S
O139 Zn131 1.905 . S
O139 C133 1.182 . S
O140 Zn131 1.898 . S
O140 C134 1.167 . S
O141 Zn132 2.120 1_655 S
O141 C134 1.299 . S
O142 Zn130 1.898 . S
O142 C137 1.167 . S
O143 Zn132 2.120 . S
O143 C137 1.299 . S
O144 Zn132 2.114 1_655 S
O144 C146 1.166 . S
O145 Zn130 1.878 1_655 S
O145 C146 1.203 . S
C146 O144 1.166 . S
C146 O145 1.203 . S
O147 Zn132 2.080 . S
O147 C150 1.305 . S
O148 Zn131 1.920 1_455 S
O148 C150 1.234 . S
C149 O135 1.305 . S
C149 O136 1.234 . S
C150 O147 1.305 . S
C150 O148 1.234 . S
Zn151 O157 1.920 . S
Zn151 O163 1.898 . S
Zn151 O166 1.905 . S
Zn152 O160 1.905 . S
Zn152 O161 1.898 . S
Zn152 O169 1.920 . S
Zn153 O156 2.080 . S
Zn153 O159 2.114 . S
Zn153 O162 2.120 . S
Zn153 O164 2.120 . S
Zn153 O165 2.114 . S
Zn153 O168 2.080 . S
C154 O159 1.166 . S
C154 O160 1.182 . S
C155 O161 1.167 . S
C155 O162 1.299 . S
O156 Zn153 2.080 . S
O156 C170 1.305 . S
O157 Zn151 1.920 . S
O157 C170 1.234 . S
C158 O163 1.167 . S
C158 O164 1.299 . S
O159 Zn153 2.114 . S
O159 C154 1.166 . S
O160 Zn152 1.905 . S
O160 C154 1.182 . S
O161 Zn152 1.898 . S
O161 C155 1.167 . S
O162 Zn153 2.120 . S
O162 C155 1.299 . S
O163 Zn151 1.898 . S
O163 C158 1.167 . S
O164 Zn153 2.120 . S
O164 C158 1.299 . S
O165 Zn153 2.114 . S
O165 C167 1.166 . S
O166 Zn151 1.905 . S
O166 C167 1.182 . S
C167 O165 1.166 . S
C167 O166 1.182 . S
O168 Zn153 2.080 . S
O168 C171 1.305 . S
O169 Zn152 1.920 . S
O169 C171 1.234 . S
C170 O156 1.305 . S
C170 O157 1.234 . S
C171 O168 1.305 . S
C171 O169 1.234 . S
H172 C180 0.929 . S
H173 C182 0.930 . S
H174 C184 0.930 . S
H175 C187 0.929 . S
H176 C190 0.930 . S
H177 C192 0.960 . S
H178 C192 0.960 . S
H179 C192 0.960 . S
C180 H172 0.929 . S
C180 C181 1.377 . S
C180 C182 1.384 . S
C181 C180 1.377 . S
C181 C187 1.390 . S
C182 H173 0.930 . S
C182 C180 1.384 . S
C182 C183 1.372 . S
C183 C182 1.372 . S
C183 C184 1.400 . S
C183 C188 1.490 . S
C184 H174 0.930 . S
C184 C183 1.400 . S
C184 C187 1.386 . S
H185 C201 0.930 . S
H186 C202 0.931 1_565 S
C187 H175 0.929 . S
C187 C181 1.390 . S
C187 C184 1.386 . S
C188 C183 1.490 . S
C188 C190 1.395 . S
C188 C191 1.403 . S
H189 C195 0.930 . S
C190 H176 0.930 . S
C190 C188 1.395 . S
C190 C193 1.403 . S
C191 C188 1.403 . S
C191 C192 1.524 . S
C191 C195 1.400 . S
C192 H177 0.960 . S
C192 H178 0.960 . S
C192 H179 0.960 . S
C192 C191 1.524 . S
C193 C190 1.403 . S
C193 C194 1.392 . S
C193 C197 1.495 1_565 S
C194 C193 1.392 . S
C194 C195 1.385 . S
C194 C196 1.478 1_565 S
C195 H189 0.930 . S
C195 C191 1.400 . S
C195 C194 1.385 . S
C196 C194 1.478 1_545 S
C196 C198 1.381 . S
C196 C202 1.383 . S
C197 C193 1.495 1_545 S
C197 H203 0.959 1_545 S
C197 H204 0.961 . S
C197 H205 0.960 . S
C198 C196 1.381 . S
C198 C199 1.394 . S
C198 H206 0.930 . S
C199 C198 1.394 . S
C199 C200 1.383 . S
C199 H207 0.929 . S
C200 C199 1.383 . S
C200 C201 1.377 . S
C201 H185 0.930 . S
C201 C200 1.377 . S
C201 C202 1.379 . S
C202 H186 0.931 1_545 S
C202 C196 1.383 . S
C202 C201 1.379 . S
H203 C197 0.959 1_565 S
H204 C197 0.961 . S
H205 C197 0.960 . S
H206 C198 0.930 . S
H207 C199 0.929 . S
H208 C216 0.929 . S
H209 C218 0.930 . S
H210 C220 0.930 . S
H211 C223 0.929 . S
H212 C226 0.930 . S
H213 C228 0.960 . S
H214 C228 0.960 . S
H215 C228 0.960 . S
C216 H208 0.929 . S
C216 C217 1.377 . S
C216 C218 1.384 . S
C217 C216 1.377 . S
C217 C223 1.390 . S
C218 H209 0.930 . S
C218 C216 1.384 . S
C218 C219 1.372 . S
C219 C218 1.372 . S
C219 C220 1.400 . S
C219 C224 1.490 . S
C220 H210 0.930 . S
C220 C219 1.400 . S
C220 C223 1.386 . S
H221 C237 0.930 . S
H222 C238 0.931 . S
C223 H211 0.929 . S
C223 C217 1.390 . S
C223 C220 1.386 . S
C224 C219 1.490 . S
C224 C226 1.395 . S
C224 C227 1.403 . S
H225 C231 0.930 . S
C226 H212 0.930 . S
C226 C224 1.395 . S
C226 C229 1.403 . S
C227 C224 1.403 . S
C227 C228 1.524 . S
C227 C231 1.400 . S
C228 H213 0.960 . S
C228 H214 0.960 . S
C228 H215 0.960 . S
C228 C227 1.524 . S
C229 C226 1.403 . S
C229 C230 1.392 . S
C229 C233 1.495 . S
C230 C229 1.392 . S
C230 C231 1.385 . S
C230 C232 1.478 . S
C231 H225 0.930 . S
C231 C227 1.400 . S
C231 C230 1.385 . S
C232 C230 1.478 . S
C232 C234 1.381 . S
C232 C238 1.383 . S
C233 C229 1.495 . S
C233 H239 0.959 . S
C233 H240 0.961 . S
C233 H241 0.960 . S
C234 C232 1.381 . S
C234 C235 1.394 . S
C234 H242 0.930 . S
C235 C234 1.394 . S
C235 C236 1.383 . S
C235 H243 0.929 . S
C236 C235 1.383 . S
C236 C237 1.377 . S
C237 H221 0.930 . S
C237 C236 1.377 . S
C237 C238 1.379 . S
C238 H222 0.931 . S
C238 C232 1.383 . S
C238 C237 1.379 . S
H239 C233 0.959 . S
H240 C233 0.961 . S
H241 C233 0.960 . S
H242 C234 0.930 . S
H243 C235 0.929 . S
H244 C252 0.929 . S
H245 C254 0.930 . S
H246 C256 0.930 . S
H247 C259 0.929 . S
H248 C262 0.930 . S
H249 C264 0.960 . S
H250 C264 0.960 . S
H251 C264 0.960 . S
C252 H244 0.929 . S
C252 C253 1.377 . S
C252 C254 1.384 . S
C253 C252 1.377 . S
C253 C259 1.390 . S
C254 H245 0.930 . S
C254 C252 1.384 . S
C254 C255 1.372 . S
C255 C254 1.372 . S
C255 C256 1.400 . S
C255 C260 1.490 . S
C256 H246 0.930 . S
C256 C255 1.400 . S
C256 C259 1.386 . S
H257 C273 0.930 . S
H258 C274 0.931 . S
C259 H247 0.929 . S
C259 C253 1.390 . S
C259 C256 1.386 . S
C260 C255 1.490 . S
C260 C262 1.395 . S
C260 C263 1.403 . S
H261 C267 0.930 . S
C262 H248 0.930 . S
C262 C260 1.395 . S
C262 C265 1.403 . S
C263 C260 1.403 . S
C263 C264 1.524 . S
C263 C267 1.400 . S
C264 H249 0.960 . S
C264 H250 0.960 . S
C264 H251 0.960 . S
C264 C263 1.524 . S
C265 C262 1.403 . S
C265 C266 1.392 . S
C265 C269 1.495 . S
C266 C265 1.392 . S
C266 C267 1.385 . S
C266 C268 1.478 . S
C267 H261 0.930 . S
C267 C263 1.400 . S
C267 C266 1.385 . S
C268 C266 1.478 . S
C268 C270 1.381 . S
C268 C274 1.383 . S
C269 C265 1.495 . S
C269 H275 0.959 . S
C269 H276 0.961 . S
C269 H277 0.960 . S
C270 C268 1.381 . S
C270 C271 1.394 . S
C270 H278 0.930 . S
C271 C270 1.394 . S
C271 C272 1.383 . S
C271 H279 0.929 . S
C272 C271 1.383 . S
C272 C273 1.377 . S
C273 H257 0.930 . S
C273 C272 1.377 . S
C273 C274 1.379 . S
C274 H258 0.931 . S
C274 C268 1.383 . S
C274 C273 1.379 . S
H275 C269 0.959 . S
H276 C269 0.961 . S
H277 C269 0.960 . S
H278 C270 0.930 . S
H279 C271 0.929 . S
H280 C288 0.929 . S
H281 C290 0.930 . S
H282 C292 0.930 . S
H283 C295 0.929 . S
H284 C298 0.930 . S
H285 C300 0.960 . S
H286 C300 0.960 . S
H287 C300 0.960 . S
C288 H280 0.929 . S
C288 C289 1.377 . S
C288 C290 1.384 . S
C289 C288 1.377 . S
C289 C295 1.390 . S
C290 H281 0.930 . S
C290 C288 1.384 . S
C290 C291 1.372 . S
C291 C290 1.372 . S
C291 C292 1.400 . S
C291 C296 1.490 . S
C292 H282 0.930 . S
C292 C291 1.400 . S
C292 C295 1.386 . S
H293 C309 0.930 . S
H294 C310 0.931 . S
C295 H283 0.929 . S
C295 C289 1.390 . S
C295 C292 1.386 . S
C296 C291 1.490 . S
C296 C298 1.395 . S
C296 C299 1.403 . S
H297 C303 0.930 . S
C298 H284 0.930 . S
C298 C296 1.395 . S
C298 C301 1.403 . S
C299 C296 1.403 . S
C299 C300 1.524 . S
C299 C303 1.400 . S
C300 H285 0.960 . S
C300 H286 0.960 . S
C300 H287 0.960 . S
C300 C299 1.524 . S
C301 C298 1.403 . S
C301 C302 1.392 . S
C301 C305 1.495 . S
C302 C301 1.392 . S
C302 C303 1.385 . S
C302 C304 1.478 1_565 S
C303 H297 0.930 . S
C303 C299 1.400 . S
C303 C302 1.385 . S
C304 C302 1.478 1_545 S
C304 C306 1.381 . S
C304 C310 1.383 . S
C305 C301 1.495 . S
C305 H311 0.959 . S
C305 H312 0.961 . S
C305 H313 0.960 . S
C306 C304 1.381 . S
C306 C307 1.394 . S
C306 H314 0.930 1_545 S
C307 C306 1.394 . S
C307 C308 1.383 . S
C307 H315 0.929 1_655 S
C308 C307 1.383 . S
C308 C309 1.377 . S
C309 H293 0.930 . S
C309 C308 1.377 . S
C309 C310 1.379 . S
C310 H294 0.931 . S
C310 C304 1.383 . S
C310 C309 1.379 . S
H311 C305 0.959 . S
H312 C305 0.961 . S
H313 C305 0.960 . S
H314 C306 0.930 1_565 S
H315 C307 0.929 1_455 S
H316 C324 0.929 . S
H317 C326 0.930 . S
H318 C328 0.930 . S
H319 C331 0.929 . S
H320 C334 0.930 . S
H321 C336 0.960 . S
H322 C336 0.960 . S
H323 C336 0.960 . S
C324 H316 0.929 . S
C324 C325 1.377 . S
C324 C326 1.384 . S
C325 C324 1.377 . S
C325 C331 1.390 . S
C326 H317 0.930 . S
C326 C324 1.384 . S
C326 C327 1.372 . S
C327 C326 1.372 . S
C327 C328 1.400 . S
C327 C332 1.490 . S
C328 H318 0.930 . S
C328 C327 1.400 . S
C328 C331 1.386 . S
H329 C345 0.930 . S
H330 C346 0.931 . S
C331 H319 0.929 . S
C331 C325 1.390 . S
C331 C328 1.386 . S
C332 C327 1.490 . S
C332 C334 1.395 . S
C332 C335 1.403 . S
H333 C339 0.930 . S
C334 H320 0.930 . S
C334 C332 1.395 . S
C334 C337 1.403 . S
C335 C332 1.403 . S
C335 C336 1.524 . S
C335 C339 1.400 . S
C336 H321 0.960 . S
C336 H322 0.960 . S
C336 H323 0.960 . S
C336 C335 1.524 . S
C337 C334 1.403 . S
C337 C338 1.392 . S
C337 C341 1.495 1_545 S
C338 C337 1.392 . S
C338 C339 1.385 . S
C338 C340 1.478 1_545 S
C339 H333 0.930 . S
C339 C335 1.400 . S
C339 C338 1.385 . S
C340 C338 1.478 1_565 S
C340 C342 1.381 . S
C340 C346 1.383 . S
C341 C337 1.495 1_565 S
C341 H347 0.959 . S
C341 H348 0.961 . S
C341 H349 0.960 . S
C342 C340 1.381 . S
C342 C343 1.394 . S
C342 H350 0.930 . S
C343 C342 1.394 . S
C343 C344 1.383 . S
C343 H351 0.929 . S
C344 C343 1.383 . S
C344 C345 1.377 . S
C345 H329 0.930 . S
C345 C344 1.377 . S
C345 C346 1.379 . S
C346 H330 0.931 . S
C346 C340 1.383 . S
C346 C345 1.379 . S
H347 C341 0.959 . S
H348 C341 0.961 . S
H349 C341 0.960 . S
H350 C342 0.930 . S
H351 C343 0.929 . S
H352 C360 0.929 . S
H353 C362 0.930 . S
H354 C364 0.930 . S
H355 C367 0.929 . S
H356 C370 0.930 . S
H357 C372 0.960 . S
H358 C372 0.960 . S
H359 C372 0.960 . S
C360 H352 0.929 . S
C360 C361 1.377 . S
C360 C362 1.384 . S
C361 C360 1.377 . S
C361 C367 1.390 . S
C362 H353 0.930 . S
C362 C360 1.384 . S
C362 C363 1.372 . S
C363 C362 1.372 . S
C363 C364 1.400 . S
C363 C368 1.490 . S
C364 H354 0.930 . S
C364 C363 1.400 . S
C364 C367 1.386 . S
H365 C381 0.930 . S
H366 C382 0.931 . S
C367 H355 0.929 . S
C367 C361 1.390 . S
C367 C364 1.386 . S
C368 C363 1.490 . S
C368 C370 1.395 . S
C368 C371 1.403 . S
H369 C375 0.930 . S
C370 H356 0.930 . S
C370 C368 1.395 . S
C370 C373 1.403 . S
C371 C368 1.403 . S
C371 C372 1.524 . S
C371 C375 1.400 . S
C372 H357 0.960 . S
C372 H358 0.960 . S
C372 H359 0.960 . S
C372 C371 1.524 . S
C373 C370 1.403 . S
C373 C374 1.392 . S
C373 C377 1.495 . S
C374 C373 1.392 . S
C374 C375 1.385 . S
C374 C376 1.478 . S
C375 H369 0.930 . S
C375 C371 1.400 . S
C375 C374 1.385 . S
C376 C374 1.478 . S
C376 C378 1.381 . S
C376 C382 1.383 . S
C377 C373 1.495 . S
C377 H383 0.959 . S
C377 H384 0.961 . S
C377 H385 0.960 . S
C378 C376 1.381 . S
C378 C379 1.394 . S
C378 H386 0.930 . S
C379 C378 1.394 . S
C379 C380 1.383 . S
C379 H387 0.929 . S
C380 C379 1.383 . S
C380 C381 1.377 . S
C381 H365 0.930 . S
C381 C380 1.377 . S
C381 C382 1.379 . S
C382 H366 0.931 . S
C382 C376 1.383 . S
C382 C381 1.379 . S
H383 C377 0.959 . S
H384 C377 0.961 . S
H385 C377 0.960 . S
H386 C378 0.930 . S
H387 C379 0.929 . S
H388 C396 0.929 . S
H389 C398 0.930 . S
H390 C400 0.930 . S
H391 C403 0.929 . S
H392 C406 0.930 . S
H393 C408 0.960 . S
H394 C408 0.960 . S
H395 C408 0.960 . S
C396 H388 0.929 . S
C396 C397 1.377 . S
C396 C398 1.384 . S
C397 C396 1.377 . S
C397 C403 1.390 . S
C398 H389 0.930 . S
C398 C396 1.384 . S
C398 C399 1.372 . S
C399 C398 1.372 . S
C399 C400 1.400 . S
C399 C404 1.490 . S
C400 H390 0.930 . S
C400 C399 1.400 . S
C400 C403 1.386 . S
H401 C417 0.930 . S
H402 C418 0.931 . S
C403 H391 0.929 . S
C403 C397 1.390 . S
C403 C400 1.386 . S
C404 C399 1.490 . S
C404 C406 1.395 . S
C404 C407 1.403 . S
H405 C411 0.930 . S
C406 H392 0.930 . S
C406 C404 1.395 . S
C406 C409 1.403 . S
C407 C404 1.403 . S
C407 C408 1.524 . S
C407 C411 1.400 . S
C408 H393 0.960 . S
C408 H394 0.960 . S
C408 H395 0.960 . S
C408 C407 1.524 . S
C409 C406 1.403 . S
C409 C410 1.392 . S
C409 C413 1.495 . S
C410 C409 1.392 . S
C410 C411 1.385 . S
C410 C412 1.478 . S
C411 H405 0.930 . S
C411 C407 1.400 . S
C411 C410 1.385 . S
C412 C410 1.478 . S
C412 C414 1.381 . S
C412 C418 1.383 . S
C413 C409 1.495 . S
C413 H419 0.959 . S
C413 H420 0.961 . S
C413 H421 0.960 . S
C414 C412 1.381 . S
C414 C415 1.394 . S
C414 H422 0.930 . S
C415 C414 1.394 . S
C415 C416 1.383 . S
C415 H423 0.929 . S
C416 C415 1.383 . S
C416 C417 1.377 . S
C417 H401 0.930 . S
C417 C416 1.377 . S
C417 C418 1.379 . S
C418 H402 0.931 . S
C418 C412 1.383 . S
C418 C417 1.379 . S
H419 C413 0.959 . S
H420 C413 0.961 . S
H421 C413 0.960 . S
H422 C414 0.930 . S
H423 C415 0.929 . S
H424 C432 0.929 . S
H425 C434 0.930 . S
H426 C436 0.930 . S
H427 C439 0.929 . S
H428 C442 0.930 . S
H429 C444 0.960 . S
H430 C444 0.960 . S
H431 C444 0.960 . S
C432 H424 0.929 . S
C432 C433 1.377 . S
C432 C434 1.384 . S
C433 C432 1.377 . S
C433 C439 1.390 . S
C434 H425 0.930 . S
C434 C432 1.384 . S
C434 C435 1.372 . S
C435 C434 1.372 . S
C435 C436 1.400 . S
C435 C440 1.490 . S
C436 H426 0.930 . S
C436 C435 1.400 . S
C436 C439 1.386 . S
H437 C453 0.930 . S
H438 C454 0.931 . S
C439 H427 0.929 . S
C439 C433 1.390 . S
C439 C436 1.386 . S
C440 C435 1.490 . S
C440 C442 1.395 . S
C440 C443 1.403 . S
H441 C447 0.930 . S
C442 H428 0.930 . S
C442 C440 1.395 . S
C442 C445 1.403 . S
C443 C440 1.403 . S
C443 C444 1.524 . S
C443 C447 1.400 . S
C444 H429 0.960 . S
C444 H430 0.960 . S
C444 H431 0.960 . S
C444 C443 1.524 . S
C445 C442 1.403 . S
C445 C446 1.392 . S
C445 C449 1.495 1_545 S
C446 C445 1.392 . S
C446 C447 1.385 . S
C446 C448 1.478 1_545 S
C447 H441 0.930 . S
C447 C443 1.400 . S
C447 C446 1.385 . S
C448 C446 1.478 1_565 S
C448 C450 1.381 . S
C448 C454 1.383 . S
C449 C445 1.495 1_565 S
C449 H455 0.959 . S
C449 H456 0.961 . S
C449 H457 0.960 . S
C450 C448 1.381 . S
C450 C451 1.394 . S
C450 H458 0.930 . S
C451 C450 1.394 . S
C451 C452 1.383 . S
C451 H459 0.929 . S
C452 C451 1.383 . S
C452 C453 1.377 . S
C453 H437 0.930 . S
C453 C452 1.377 . S
C453 C454 1.379 . S
C454 H438 0.931 . S
C454 C448 1.383 . S
C454 C453 1.379 . S
H455 C449 0.959 . S
H456 C449 0.961 . S
H457 C449 0.960 . S
H458 C450 0.930 . S
H459 C451 0.929 . S
H460 C468 0.929 . S
H461 C470 0.930 . S
H462 C472 0.930 . S
H463 C475 0.929 . S
H464 C478 0.930 . S
H465 C480 0.960 . S
H466 C480 0.960 . S
H467 C480 0.960 . S
C468 H460 0.929 . S
C468 C469 1.377 . S
C468 C470 1.384 1_556 S
C469 C468 1.377 . S
C469 C475 1.390 . S
C470 H461 0.930 . S
C470 C468 1.384 1_554 S
C470 C471 1.372 . S
C471 C470 1.372 . S
C471 C472 1.400 1_554 S
C471 C476 1.490 . S
C472 H462 0.930 . S
C472 C471 1.400 1_556 S
C472 C475 1.386 . S
H473 C489 0.930 . S
H474 C490 0.931 . S
C475 H463 0.929 . S
C475 C469 1.390 . S
C475 C472 1.386 . S
C476 C471 1.490 . S
C476 C478 1.395 . S
C476 C479 1.403 . S
H477 C483 0.930 . S
C478 H464 0.930 . S
C478 C476 1.395 . S
C478 C481 1.403 . S
C479 C476 1.403 . S
C479 C480 1.524 . S
C479 C483 1.400 . S
C480 H465 0.960 . S
C480 H466 0.960 . S
C480 H467 0.960 . S
C480 C479 1.524 . S
C481 C478 1.403 . S
C481 C482 1.392 . S
C481 C485 1.495 . S
C482 C481 1.392 . S
C482 C483 1.385 . S
C482 C484 1.478 . S
C483 H477 0.930 . S
C483 C479 1.400 . S
C483 C482 1.385 . S
C484 C482 1.478 . S
C484 C486 1.381 . S
C484 C490 1.383 . S
C485 C481 1.495 . S
C485 H491 0.959 . S
C485 H492 0.961 . S
C485 H493 0.960 . S
C486 C484 1.381 . S
C486 C487 1.394 . S
C486 H494 0.930 . S
C487 C486 1.394 . S
C487 C488 1.383 . S
C487 H495 0.929 . S
C488 C487 1.383 . S
C488 C489 1.377 . S
C489 H473 0.930 . S
C489 C488 1.377 . S
C489 C490 1.379 . S
C490 H474 0.931 . S
C490 C484 1.383 . S
C490 C489 1.379 . S
H491 C485 0.959 . S
H492 C485 0.961 . S
H493 C485 0.960 . S
H494 C486 0.930 . S
H495 C487 0.929 . S
H496 C504 0.929 . S
H497 C506 0.930 . S
H498 C508 0.930 . S
H499 C511 0.929 . S
H500 C514 0.930 . S
H501 C516 0.960 . S
H502 C516 0.960 . S
H503 C516 0.960 . S
C504 H496 0.929 . S
C504 C505 1.377 . S
C504 C506 1.384 . S
C505 C504 1.377 . S
C505 C511 1.390 . S
C506 H497 0.930 . S
C506 C504 1.384 . S
C506 C507 1.372 . S
C507 C506 1.372 . S
C507 C508 1.400 . S
C507 C512 1.490 . S
C508 H498 0.930 . S
C508 C507 1.400 . S
C508 C511 1.386 . S
H509 C525 0.930 . S
H510 C526 0.931 . S
C511 H499 0.929 . S
C511 C505 1.390 . S
C511 C508 1.386 . S
C512 C507 1.490 . S
C512 C514 1.395 . S
C512 C515 1.403 . S
H513 C519 0.930 . S
C514 H500 0.930 . S
C514 C512 1.395 . S
C514 C517 1.403 . S
C515 C512 1.403 . S
C515 C516 1.524 . S
C515 C519 1.400 . S
C516 H501 0.960 . S
C516 H502 0.960 . S
C516 H503 0.960 . S
C516 C515 1.524 . S
C517 C514 1.403 . S
C517 C518 1.392 . S
C517 C521 1.495 . S
C518 C517 1.392 . S
C518 C519 1.385 . S
C518 C520 1.478 . S
C519 H513 0.930 . S
C519 C515 1.400 . S
C519 C518 1.385 . S
C520 C518 1.478 . S
C520 C522 1.381 . S
C520 C526 1.383 . S
C521 C517 1.495 . S
C521 H527 0.959 . S
C521 H528 0.961 . S
C521 H529 0.960 . S
C522 C520 1.381 . S
C522 C523 1.394 . S
C522 H530 0.930 . S
C523 C522 1.394 . S
C523 C524 1.383 . S
C523 H531 0.929 . S
C524 C523 1.383 . S
C524 C525 1.377 . S
C525 H509 0.930 . S
C525 C524 1.377 . S
C525 C526 1.379 . S
C526 H510 0.931 . S
C526 C520 1.383 . S
C526 C525 1.379 . S
H527 C521 0.959 . S
H528 C521 0.961 . S
H529 C521 0.960 . S
H530 C522 0.930 . S
H531 C523 0.929 . S
H532 C540 0.929 . S
H533 C542 0.930 . S
H534 C544 0.930 . S
H535 C547 0.929 . S
H536 C550 0.930 . S
H537 C552 0.960 . S
H538 C552 0.960 . S
H539 C552 0.960 . S
C540 H532 0.929 . S
C540 C541 1.377 . S
C540 C542 1.384 . S
C541 C540 1.377 . S
C541 C547 1.390 . S
C542 H533 0.930 . S
C542 C540 1.384 . S
C542 C543 1.372 1_554 S
C543 C542 1.372 1_556 S
C543 C544 1.400 . S
C543 C548 1.490 . S
C544 H534 0.930 . S
C544 C543 1.400 . S
C544 C547 1.386 1_556 S
H545 C561 0.930 . S
H546 C562 0.931 . S
C547 H535 0.929 . S
C547 C541 1.390 . S
C547 C544 1.386 1_554 S
C548 C543 1.490 . S
C548 C550 1.395 . S
C548 C551 1.403 . S
H549 C555 0.930 . S
C550 H536 0.930 . S
C550 C548 1.395 . S
C550 C553 1.403 . S
C551 C548 1.403 . S
C551 C552 1.524 . S
C551 C555 1.400 . S
C552 H537 0.960 . S
C552 H538 0.960 . S
C552 H539 0.960 . S
C552 C551 1.524 . S
C553 C550 1.403 . S
C553 C554 1.392 . S
C553 C557 1.495 . S
C554 C553 1.392 . S
C554 C555 1.385 . S
C554 C556 1.478 . S
C555 H549 0.930 . S
C555 C551 1.400 . S
C555 C554 1.385 . S
C556 C554 1.478 . S
C556 C558 1.381 . S
C556 C562 1.383 . S
C557 C553 1.495 . S
C557 H563 0.959 . S
C557 H564 0.961 . S
C557 H565 0.960 . S
C558 C556 1.381 . S
C558 C559 1.394 . S
C558 H566 0.930 . S
C559 C558 1.394 . S
C559 C560 1.383 . S
C559 H567 0.929 . S
C560 C559 1.383 . S
C560 C561 1.377 . S
C561 H545 0.930 . S
C561 C560 1.377 . S
C561 C562 1.379 . S
C562 H546 0.931 . S
C562 C556 1.383 . S
C562 C561 1.379 . S
H563 C557 0.959 . S
H564 C557 0.961 . S
H565 C557 0.960 . S
H566 C558 0.930 . S
H567 C559 0.929 . S
H568 C576 0.929 . S
H569 C578 0.930 . S
H570 C580 0.930 . S
H571 C583 0.929 . S
H572 C586 0.930 . S
H573 C588 0.960 . S
H574 C588 0.960 . S
H575 C588 0.960 . S
C576 H568 0.929 . S
C576 C577 1.377 . S
C576 C578 1.384 . S
C577 C576 1.377 . S
C577 C583 1.390 . S
C578 H569 0.930 . S
C578 C576 1.384 . S
C578 C579 1.372 . S
C579 C578 1.372 . S
C579 C580 1.400 . S
C579 C584 1.490 . S
C580 H570 0.930 . S
C580 C579 1.400 . S
C580 C583 1.386 . S
H581 C597 0.930 . S
H582 C598 0.931 . S
C583 H571 0.929 . S
C583 C577 1.390 . S
C583 C580 1.386 . S
C584 C579 1.490 . S
C584 C586 1.395 . S
C584 C587 1.403 . S
H585 C591 0.930 . S
C586 H572 0.930 . S
C586 C584 1.395 . S
C586 C589 1.403 . S
C587 C584 1.403 . S
C587 C588 1.524 . S
C587 C591 1.400 . S
C588 H573 0.960 . S
C588 H574 0.960 . S
C588 H575 0.960 . S
C588 C587 1.524 . S
C589 C586 1.403 . S
C589 C590 1.392 . S
C589 C593 1.495 . S
C590 C589 1.392 . S
C590 C591 1.385 . S
C590 C592 1.478 . S
C591 H585 0.930 . S
C591 C587 1.400 . S
C591 C590 1.385 . S
C592 C590 1.478 . S
C592 C594 1.381 . S
C592 C598 1.383 . S
C593 C589 1.495 . S
C593 H599 0.959 . S
C593 H600 0.961 . S
C593 H601 0.960 . S
C594 C592 1.381 . S
C594 C595 1.394 . S
C594 H602 0.930 . S
C595 C594 1.394 . S
C595 C596 1.383 . S
C595 H603 0.929 1_655 S
C596 C595 1.383 . S
C596 C597 1.377 . S
C597 H581 0.930 . S
C597 C596 1.377 . S
C597 C598 1.379 . S
C598 H582 0.931 . S
C598 C592 1.383 . S
C598 C597 1.379 . S
H599 C593 0.959 . S
H600 C593 0.961 . S
H601 C593 0.960 . S
H602 C594 0.930 . S
H603 C595 0.929 1_455 S
H604 C612 0.929 . S
H605 C614 0.943 . S
H606 C616 0.930 . S
H607 C619 0.929 . S
H608 C622 0.930 . S
H609 C624 0.960 . S
H610 C624 0.960 . S
H611 C624 0.960 1_554 S
C612 H604 0.929 . S
C612 C613 1.377 . S
C612 C614 1.370 1_554 S
C613 C612 1.377 . S
C613 C619 1.390 . S
C614 H605 0.943 . S
C614 C612 1.370 1_556 S
C614 C615 1.373 . S
C615 C614 1.373 . S
C615 C616 1.400 1_556 S
C615 C620 1.490 . S
C616 H606 0.930 . S
C616 C615 1.400 1_554 S
C616 C619 1.386 . S
H617 C633 0.930 . S
H618 C634 0.931 . S
C619 H607 0.929 . S
C619 C613 1.390 . S
C619 C616 1.386 . S
C620 C615 1.490 . S
C620 C622 1.395 . S
C620 C623 1.403 . S
H621 C627 0.930 . S
C622 H608 0.930 . S
C622 C620 1.395 . S
C622 C625 1.403 . S
C623 C620 1.403 . S
C623 C624 1.524 . S
C623 C627 1.400 . S
C624 H609 0.960 . S
C624 H610 0.960 . S
C624 H611 0.960 1_556 S
C624 C623 1.524 . S
C625 C622 1.403 . S
C625 C626 1.392 . S
C625 C629 1.495 . S
C626 C625 1.392 . S
C626 C627 1.385 . S
C626 C628 1.478 . S
C627 H621 0.930 . S
C627 C623 1.400 . S
C627 C626 1.385 . S
C628 C626 1.478 . S
C628 C630 1.381 . S
C628 C634 1.383 . S
C629 C625 1.495 . S
C629 H635 0.959 . S
C629 H636 0.961 . S
C629 H637 0.960 . S
C630 C628 1.381 . S
C630 C631 1.394 . S
C630 H638 0.930 . S
C631 C630 1.394 . S
C631 C632 1.383 . S
C631 H639 0.929 . S
C632 C631 1.383 . S
C632 C633 1.377 . S
C633 H617 0.930 . S
C633 C632 1.377 . S
C633 C634 1.379 . S
C634 H618 0.931 . S
C634 C628 1.383 . S
C634 C633 1.379 . S
H635 C629 0.959 . S
H636 C629 0.961 . S
H637 C629 0.960 . S
H638 C630 0.930 . S
H639 C631 0.929 . S
H640 C648 0.929 . S
H641 C650 0.930 . S
H642 C652 0.930 . S
H643 C655 0.929 . S
H644 C658 0.930 . S
H645 C660 0.960 . S
H646 C660 0.960 . S
H647 C660 0.960 . S
C648 H640 0.929 . S
C648 C649 1.377 . S
C648 C650 1.384 . S
C649 C648 1.377 . S
C649 C655 1.390 . S
C650 H641 0.930 . S
C650 C648 1.384 . S
C650 C651 1.372 . S
C651 C650 1.372 . S
C651 C652 1.400 . S
C651 C656 1.490 . S
C652 H642 0.930 . S
C652 C651 1.400 . S
C652 C655 1.386 . S
H653 C669 0.930 . S
H654 C670 0.931 . S
C655 H643 0.929 . S
C655 C649 1.390 . S
C655 C652 1.386 . S
C656 C651 1.490 . S
C656 C658 1.395 . S
C656 C659 1.403 . S
H657 C663 0.930 . S
C658 H644 0.930 . S
C658 C656 1.395 . S
C658 C661 1.403 . S
C659 C656 1.403 . S
C659 C660 1.524 . S
C659 C663 1.400 . S
C660 H645 0.960 . S
C660 H646 0.960 . S
C660 H647 0.960 . S
C660 C659 1.524 . S
C661 C658 1.403 . S
C661 C662 1.392 . S
C661 C665 1.495 . S
C662 C661 1.392 . S
C662 C663 1.385 . S
C662 C664 1.478 . S
C663 H657 0.930 . S
C663 C659 1.400 . S
C663 C662 1.385 . S
C664 C662 1.478 . S
C664 C666 1.381 . S
C664 C670 1.383 . S
C665 C661 1.495 . S
C665 H671 0.959 . S
C665 H672 0.961 . S
C665 H673 0.960 . S
C666 C664 1.381 . S
C666 C667 1.394 . S
C666 H674 0.930 . S
C667 C666 1.394 . S
C667 C668 1.383 . S
C667 H675 0.929 . S
C668 C667 1.383 . S
C668 C669 1.377 . S
C669 H653 0.930 . S
C669 C668 1.377 . S
C669 C670 1.379 . S
C670 H654 0.931 . S
C670 C664 1.383 . S
C670 C669 1.379 . S
H671 C665 0.959 . S
H672 C665 0.961 . S
H673 C665 0.960 . S
H674 C666 0.930 . S
H675 C667 0.929 . S
H676 C684 0.929 . S
H677 C686 0.930 1_554 S
H678 C688 0.930 . S
H679 C691 0.929 . S
H680 C694 0.930 . S
H681 C696 0.960 . S
H682 C696 0.960 . S
H683 C696 0.960 . S
C684 H676 0.929 . S
C684 C685 1.377 . S
C684 C686 1.384 . S
C685 C684 1.377 . S
C685 C691 1.390 . S
C686 H677 0.930 1_556 S
C686 C684 1.384 . S
C686 C687 1.372 . S
C687 C686 1.372 . S
C687 C688 1.400 . S
C687 C692 1.489 1_556 S
C688 H678 0.930 . S
C688 C687 1.400 . S
C688 C691 1.386 . S
H689 C705 0.930 . S
H690 C706 0.931 . S
C691 H679 0.929 . S
C691 C685 1.390 . S
C691 C688 1.386 . S
C692 C687 1.489 1_554 S
C692 C694 1.395 . S
C692 C695 1.403 . S
H693 C699 0.930 . S
C694 H680 0.930 . S
C694 C692 1.395 . S
C694 C697 1.403 . S
C695 C692 1.403 . S
C695 C696 1.524 . S
C695 C699 1.400 . S
C696 H681 0.960 . S
C696 H682 0.960 . S
C696 H683 0.960 . S
C696 C695 1.524 . S
C697 C694 1.403 . S
C697 C698 1.392 . S
C697 C701 1.495 . S
C698 C697 1.392 . S
C698 C699 1.385 . S
C698 C700 1.478 . S
C699 H693 0.930 . S
C699 C695 1.400 . S
C699 C698 1.385 . S
C700 C698 1.478 . S
C700 C702 1.381 . S
C700 C706 1.383 . S
C701 C697 1.495 . S
C701 H707 0.959 . S
C701 H708 0.961 . S
C701 H709 0.960 . S
C702 C700 1.381 . S
C702 C703 1.394 . S
C702 H710 0.930 . S
C703 C702 1.394 . S
C703 C704 1.383 . S
C703 H711 0.929 . S
C704 C703 1.383 . S
C704 C705 1.377 . S
C705 H689 0.930 . S
C705 C704 1.377 . S
C705 C706 1.379 . S
C706 H690 0.931 . S
C706 C700 1.383 . S
C706 C705 1.379 . S
H707 C701 0.959 . S
H708 C701 0.961 . S
H709 C701 0.960 . S
H710 C702 0.930 . S
H711 C703 0.929 . S
H712 C720 0.929 . S
H713 C722 0.930 . S
H714 C724 0.930 . S
H715 C727 0.929 . S
H716 C730 0.930 . S
H717 C732 0.960 . S
H718 C732 0.960 . S
H719 C732 0.960 . S
C720 H712 0.929 . S
C720 C721 1.377 . S
C720 C722 1.384 . S
C721 C720 1.377 . S
C721 C727 1.390 . S
C722 H713 0.930 . S
C722 C720 1.384 . S
C722 C723 1.372 . S
C723 C722 1.372 . S
C723 C724 1.400 . S
C723 C728 1.490 . S
C724 H714 0.930 . S
C724 C723 1.400 . S
C724 C727 1.386 . S
H725 C741 0.930 . S
H726 C742 0.931 . S
C727 H715 0.929 . S
C727 C721 1.390 . S
C727 C724 1.386 . S
C728 C723 1.490 . S
C728 C730 1.395 . S
C728 C731 1.403 . S
H729 C735 0.930 . S
C730 H716 0.930 . S
C730 C728 1.395 . S
C730 C733 1.403 . S
C731 C728 1.403 . S
C731 C732 1.524 . S
C731 C735 1.400 . S
C732 H717 0.960 . S
C732 H718 0.960 . S
C732 H719 0.960 . S
C732 C731 1.524 . S
C733 C730 1.403 . S
C733 C734 1.392 . S
C733 C737 1.495 . S
C734 C733 1.392 . S
C734 C735 1.385 . S
C734 C736 1.478 . S
C735 H729 0.930 . S
C735 C731 1.400 . S
C735 C734 1.385 . S
C736 C734 1.478 . S
C736 C738 1.381 . S
C736 C742 1.383 . S
C737 C733 1.495 . S
C737 H743 0.959 . S
C737 H744 0.961 . S
C737 H745 0.960 . S
C738 C736 1.381 . S
C738 C739 1.394 . S
C738 H746 0.930 . S
C739 C738 1.394 . S
C739 C740 1.383 . S
C739 H747 0.929 . S
C740 C739 1.383 . S
C740 C741 1.377 . S
C741 H725 0.930 . S
C741 C740 1.377 . S
C741 C742 1.379 . S
C742 H726 0.931 . S
C742 C736 1.383 . S
C742 C741 1.379 . S
H743 C737 0.959 . S
H744 C737 0.961 . S
H745 C737 0.960 . S
H746 C738 0.930 . S
H747 C739 0.929 . S
H748 C756 0.929 . S
H749 C758 0.930 . S
H750 C760 0.930 . S
H751 C763 0.929 . S
H752 C766 0.930 . S
H753 C768 0.960 . S
H754 C768 0.960 . S
H755 C768 0.960 . S
C756 H748 0.929 . S
C756 C757 1.377 . S
C756 C758 1.384 . S
C757 C756 1.377 . S
C757 C763 1.390 . S
C758 H749 0.930 . S
C758 C756 1.384 . S
C758 C759 1.372 . S
C759 C758 1.372 . S
C759 C760 1.400 . S
C759 C764 1.490 . S
C760 H750 0.930 . S
C760 C759 1.400 . S
C760 C763 1.386 . S
H761 C777 0.930 . S
H762 C778 0.931 . S
C763 H751 0.929 . S
C763 C757 1.390 . S
C763 C760 1.386 . S
C764 C759 1.490 . S
C764 C766 1.395 . S
C764 C767 1.403 . S
H765 C771 0.930 . S
C766 H752 0.930 . S
C766 C764 1.395 . S
C766 C769 1.403 . S
C767 C764 1.403 . S
C767 C768 1.524 . S
C767 C771 1.400 . S
C768 H753 0.960 . S
C768 H754 0.960 . S
C768 H755 0.960 . S
C768 C767 1.524 . S
C769 C766 1.403 . S
C769 C770 1.392 . S
C769 C773 1.495 . S
C770 C769 1.392 . S
C770 C771 1.385 . S
C770 C772 1.478 . S
C771 H765 0.930 . S
C771 C767 1.400 . S
C771 C770 1.385 . S
C772 C770 1.478 . S
C772 C774 1.381 . S
C772 C778 1.383 . S
C773 C769 1.495 . S
C773 H779 0.959 . S
C773 H780 0.961 . S
C773 H781 0.960 . S
C774 C772 1.381 . S
C774 C775 1.394 . S
C774 H782 0.930 . S
C775 C774 1.394 . S
C775 C776 1.383 . S
C775 H783 0.929 . S
C776 C775 1.383 . S
C776 C777 1.377 . S
C777 H761 0.930 . S
C777 C776 1.377 . S
C777 C778 1.379 . S
C778 H762 0.931 . S
C778 C772 1.383 . S
C778 C777 1.379 . S
H779 C773 0.959 . S
H780 C773 0.961 . S
H781 C773 0.960 . S
H782 C774 0.930 . S
H783 C775 0.929 . S
H784 C792 0.929 . S
H785 C794 0.930 . S
H786 C796 0.930 . S
H787 C799 0.929 . S
H788 C802 0.930 . S
H789 C804 0.960 . S
H790 C804 0.960 . S
H791 C804 0.960 . S
C792 H784 0.929 . S
C792 C793 1.377 . S
C792 C794 1.384 . S
C793 C792 1.377 . S
C793 C799 1.390 . S
C794 H785 0.930 . S
C794 C792 1.384 . S
C794 C795 1.372 . S
C795 C794 1.372 . S
C795 C796 1.400 . S
C795 C800 1.490 . S
C796 H786 0.930 . S
C796 C795 1.400 . S
C796 C799 1.386 . S
H797 C813 0.930 . S
H798 C814 0.931 . S
C799 H787 0.929 . S
C799 C793 1.390 . S
C799 C796 1.386 . S
C800 C795 1.490 . S
C800 C802 1.395 . S
C800 C803 1.403 . S
H801 C807 0.930 . S
C802 H788 0.930 . S
C802 C800 1.395 . S
C802 C805 1.403 . S
C803 C800 1.403 . S
C803 C804 1.524 . S
C803 C807 1.400 . S
C804 H789 0.960 . S
C804 H790 0.960 . S
C804 H791 0.960 . S
C804 C803 1.524 . S
C805 C802 1.403 . S
C805 C806 1.392 . S
C805 C809 1.495 . S
C806 C805 1.392 . S
C806 C807 1.385 . S
C806 C808 1.478 . S
C807 H801 0.930 . S
C807 C803 1.400 . S
C807 C806 1.385 . S
C808 C806 1.478 . S
C808 C810 1.381 . S
C808 C814 1.383 . S
C809 C805 1.495 . S
C809 H815 0.959 . S
C809 H816 0.961 . S
C809 H817 0.960 . S
C810 C808 1.381 . S
C810 C811 1.394 . S
C810 H818 0.930 . S
C811 C810 1.394 . S
C811 C812 1.383 . S
C811 H819 0.929 . S
C812 C811 1.383 . S
C812 C813 1.377 . S
C813 H797 0.930 . S
C813 C812 1.377 . S
C813 C814 1.379 . S
C814 H798 0.931 . S
C814 C808 1.383 . S
C814 C813 1.379 . S
H815 C809 0.959 . S
H816 C809 0.961 . S
H817 C809 0.960 . S
H818 C810 0.930 . S
H819 C811 0.929 . S
H820 C828 0.929 . S
H821 C830 0.930 . S
H822 C832 0.930 . S
H823 C835 0.929 . S
H824 C838 0.930 . S
H825 C840 0.960 . S
H826 C840 0.960 . S
H827 C840 0.960 . S
C828 H820 0.929 . S
C828 C829 1.377 . S
C828 C830 1.384 . S
C829 C828 1.377 . S
C829 C835 1.390 . S
C830 H821 0.930 . S
C830 C828 1.384 . S
C830 C831 1.372 . S
C831 C830 1.372 . S
C831 C832 1.400 . S
C831 C836 1.490 . S
C832 H822 0.930 . S
C832 C831 1.400 . S
C832 C835 1.386 . S
H833 C849 0.930 . S
H834 C850 0.931 . S
C835 H823 0.929 . S
C835 C829 1.390 . S
C835 C832 1.386 . S
C836 C831 1.490 . S
C836 C838 1.395 . S
C836 C839 1.403 . S
H837 C843 0.930 . S
C838 H824 0.930 . S
C838 C836 1.395 . S
C838 C841 1.403 . S
C839 C836 1.403 . S
C839 C840 1.524 . S
C839 C843 1.400 . S
C840 H825 0.960 . S
C840 H826 0.960 . S
C840 H827 0.960 . S
C840 C839 1.524 . S
C841 C838 1.403 . S
C841 C842 1.392 . S
C841 C845 1.495 . S
C842 C841 1.392 . S
C842 C843 1.385 . S
C842 C844 1.478 . S
C843 H837 0.930 . S
C843 C839 1.400 . S
C843 C842 1.385 . S
C844 C842 1.478 . S
C844 C846 1.381 . S
C844 C850 1.383 . S
C845 C841 1.495 . S
C845 H851 0.959 . S
C845 H852 0.961 . S
C845 H853 0.960 . S
C846 C844 1.381 . S
C846 C847 1.394 . S
C846 H854 0.930 . S
C847 C846 1.394 . S
C847 C848 1.383 . S
C847 H855 0.929 . S
C848 C847 1.383 . S
C848 C849 1.377 . S
C849 H833 0.930 . S
C849 C848 1.377 . S
C849 C850 1.379 . S
C850 H834 0.931 . S
C850 C844 1.383 . S
C850 C849 1.379 . S
H851 C845 0.959 . S
H852 C845 0.961 . S
H853 C845 0.960 . S
H854 C846 0.930 . S
H855 C847 0.929 . S
H856 C864 0.929 . S
H857 C866 0.930 . S
H858 C868 0.930 . S
H859 C871 0.929 . S
H860 C874 0.930 . S
H861 C876 0.960 . S
H862 C876 0.960 . S
H863 C876 0.960 . S
C864 H856 0.929 . S
C864 C865 1.377 . S
C864 C866 1.384 . S
C865 C864 1.377 . S
C865 C871 1.390 . S
C866 H857 0.930 . S
C866 C864 1.384 . S
C866 C867 1.372 . S
C867 C866 1.372 . S
C867 C868 1.400 . S
C867 C872 1.490 . S
C868 H858 0.930 . S
C868 C867 1.400 . S
C868 C871 1.386 . S
H869 C885 0.930 . S
H870 C886 0.931 . S
C871 H859 0.929 . S
C871 C865 1.390 . S
C871 C868 1.386 . S
C872 C867 1.490 . S
C872 C874 1.395 . S
C872 C875 1.403 . S
H873 C879 0.930 . S
C874 H860 0.930 . S
C874 C872 1.395 . S
C874 C877 1.403 . S
C875 C872 1.403 . S
C875 C876 1.524 . S
C875 C879 1.400 . S
C876 H861 0.960 . S
C876 H862 0.960 . S
C876 H863 0.960 . S
C876 C875 1.524 . S
C877 C874 1.403 . S
C877 C878 1.392 . S
C877 C881 1.495 . S
C878 C877 1.392 . S
C878 C879 1.385 . S
C878 C880 1.478 . S
C879 H873 0.930 . S
C879 C875 1.400 . S
C879 C878 1.385 . S
C880 C878 1.478 . S
C880 C882 1.381 . S
C880 C886 1.383 . S
C881 C877 1.495 . S
C881 H887 0.959 . S
C881 H888 0.961 . S
C881 H889 0.960 . S
C882 C880 1.381 . S
C882 C883 1.394 . S
C882 H890 0.930 . S
C883 C882 1.394 . S
C883 C884 1.383 . S
C883 H891 0.929 . S
C884 C883 1.383 . S
C884 C885 1.377 . S
C885 H869 0.930 . S
C885 C884 1.377 . S
C885 C886 1.379 . S
C886 H870 0.931 . S
C886 C880 1.383 . S
C886 C885 1.379 . S
H887 C881 0.959 . S
H888 C881 0.961 . S
H889 C881 0.960 . S
H890 C882 0.930 . S
H891 C883 0.929 . S
H892 C900 0.929 . S
H893 C902 0.930 . S
H894 C904 0.930 . S
H895 C907 0.929 . S
H896 C910 0.930 . S
H897 C912 0.960 . S
H898 C912 0.960 . S
H899 C912 0.960 . S
C900 H892 0.929 . S
C900 C901 1.377 . S
C900 C902 1.384 . S
C901 C900 1.377 . S
C901 C907 1.390 . S
C902 H893 0.930 . S
C902 C900 1.384 . S
C902 C903 1.372 . S
C903 C902 1.372 . S
C903 C904 1.400 . S
C903 C908 1.490 . S
C904 H894 0.930 . S
C904 C903 1.400 . S
C904 C907 1.386 . S
H905 C921 0.930 . S
H906 C922 0.931 . S
C907 H895 0.929 . S
C907 C901 1.390 . S
C907 C904 1.386 . S
C908 C903 1.490 . S
C908 C910 1.395 . S
C908 C911 1.403 . S
H909 C915 0.930 . S
C910 H896 0.930 . S
C910 C908 1.395 . S
C910 C913 1.403 . S
C911 C908 1.403 . S
C911 C912 1.524 . S
C911 C915 1.400 . S
C912 H897 0.960 . S
C912 H898 0.960 . S
C912 H899 0.960 . S
C912 C911 1.524 . S
C913 C910 1.403 . S
C913 C914 1.392 . S
C913 C917 1.495 . S
C914 C913 1.392 . S
C914 C915 1.385 . S
C914 C916 1.478 . S
C915 H909 0.930 . S
C915 C911 1.400 . S
C915 C914 1.385 . S
C916 C914 1.478 . S
C916 C918 1.381 . S
C916 C922 1.383 . S
C917 C913 1.495 . S
C917 H923 0.959 . S
C917 H924 0.961 . S
C917 H925 0.960 . S
C918 C916 1.381 . S
C918 C919 1.394 . S
C918 H926 0.930 . S
C919 C918 1.394 . S
C919 C920 1.383 . S
C919 H927 0.929 . S
C920 C919 1.383 . S
C920 C921 1.377 . S
C921 H905 0.930 . S
C921 C920 1.377 . S
C921 C922 1.379 . S
C922 H906 0.931 . S
C922 C916 1.383 . S
C922 C921 1.379 . S
H923 C917 0.959 . S
H924 C917 0.961 . S
H925 C917 0.960 . S
H926 C918 0.930 . S
H927 C919 0.929 . S
H928 C936 0.929 . S
H929 C938 0.930 . S
H930 C940 0.930 . S
H931 C943 0.929 . S
H932 C946 0.930 . S
H933 C948 0.960 . S
H934 C948 0.960 . S
H935 C948 0.960 . S
C936 H928 0.929 . S
C936 C937 1.377 . S
C936 C938 1.384 . S
C937 C936 1.377 . S
C937 C943 1.390 . S
C938 H929 0.930 . S
C938 C936 1.384 . S
C938 C939 1.372 . S
C939 C938 1.372 . S
C939 C940 1.400 . S
C939 C944 1.490 . S
C940 H930 0.930 . S
C940 C939 1.400 . S
C940 C943 1.386 . S
H941 C957 0.930 . S
H942 C958 0.931 . S
C943 H931 0.929 . S
C943 C937 1.390 . S
C943 C940 1.386 . S
C944 C939 1.490 . S
C944 C946 1.395 . S
C944 C947 1.403 . S
H945 C951 0.930 . S
C946 H932 0.930 . S
C946 C944 1.395 . S
C946 C949 1.403 . S
C947 C944 1.403 . S
C947 C948 1.524 . S
C947 C951 1.400 . S
C948 H933 0.960 . S
C948 H934 0.960 . S
C948 H935 0.960 . S
C948 C947 1.524 . S
C949 C946 1.403 . S
C949 C950 1.392 . S
C949 C953 1.495 . S
C950 C949 1.392 . S
C950 C951 1.385 . S
C950 C952 1.478 . S
C951 H945 0.930 . S
C951 C947 1.400 . S
C951 C950 1.385 . S
C952 C950 1.478 . S
C952 C954 1.381 . S
C952 C958 1.383 . S
C953 C949 1.495 . S
C953 H959 0.959 . S
C953 H960 0.961 . S
C953 H961 0.960 . S
C954 C952 1.381 . S
C954 C955 1.394 . S
C954 H962 0.930 . S
C955 C954 1.394 . S
C955 C956 1.383 . S
C955 H963 0.929 . S
C956 C955 1.383 . S
C956 C957 1.377 . S
C957 H941 0.930 . S
C957 C956 1.377 . S
C957 C958 1.379 . S
C958 H942 0.931 . S
C958 C952 1.383 . S
C958 C957 1.379 . S
H959 C953 0.959 . S
H960 C953 0.961 . S
H961 C953 0.960 . S
H962 C954 0.930 . S
H963 C955 0.929 . S
H964 C972 0.929 . S
H965 C974 0.930 . S
H966 C976 0.930 . S
H967 C979 0.929 . S
H968 C982 0.930 . S
H969 C984 0.960 . S
H970 C984 0.960 . S
H971 C984 0.960 . S
C972 H964 0.929 . S
C972 C973 1.377 . S
C972 C974 1.384 . S
C973 C972 1.377 . S
C973 C979 1.390 . S
C974 H965 0.930 . S
C974 C972 1.384 . S
C974 C975 1.372 . S
C975 C974 1.372 . S
C975 C976 1.400 . S
C975 C980 1.490 . S
C976 H966 0.930 . S
C976 C975 1.400 . S
C976 C979 1.386 . S
H977 C993 0.930 . S
H978 C994 0.931 . S
C979 H967 0.929 . S
C979 C973 1.390 . S
C979 C976 1.386 . S
C980 C975 1.490 . S
C980 C982 1.395 . S
C980 C983 1.403 . S
H981 C987 0.930 . S
C982 H968 0.930 . S
C982 C980 1.395 . S
C982 C985 1.403 . S
C983 C980 1.403 . S
C983 C984 1.524 . S
C983 C987 1.400 . S
C984 H969 0.960 . S
C984 H970 0.960 . S
C984 H971 0.960 . S
C984 C983 1.524 . S
C985 C982 1.403 . S
C985 C986 1.392 . S
C985 C989 1.495 . S
C986 C985 1.392 . S
C986 C987 1.385 . S
C986 C988 1.478 . S
C987 H981 0.930 . S
C987 C983 1.400 . S
C987 C986 1.385 . S
C988 C986 1.478 . S
C988 C990 1.381 . S
C988 C994 1.383 . S
C989 C985 1.495 . S
C989 H995 0.959 . S
C989 H996 0.961 . S
C989 H997 0.960 . S
C990 C988 1.381 . S
C990 C991 1.394 . S
C990 H998 0.930 . S
C991 C990 1.394 . S
C991 C992 1.383 . S
C991 H999 0.929 . S
C992 C991 1.383 . S
C992 C993 1.377 . S
C993 H977 0.930 . S
C993 C992 1.377 . S
C993 C994 1.379 . S
C994 H978 0.931 . S
C994 C988 1.383 . S
C994 C993 1.379 . S
H995 C989 0.959 . S
H996 C989 0.961 . S
H997 C989 0.960 . S
H998 C990 0.930 . S
H999 C991 0.929 . S
H1000 C1008 0.929 . S
H1001 C1010 0.930 . S
H1002 C1012 0.930 . S
H1003 C1015 0.929 . S
H1004 C1018 0.930 . S
H1005 C1020 0.960 . S
H1006 C1020 0.960 . S
H1007 C1020 0.960 . S
C1008 H1000 0.929 . S
C1008 C1009 1.377 . S
C1008 C1010 1.384 . S
C1009 C1008 1.377 . S
C1009 C1015 1.390 . S
C1010 H1001 0.930 . S
C1010 C1008 1.384 . S
C1010 C1011 1.372 . S
C1011 C1010 1.372 . S
C1011 C1012 1.400 . S
C1011 C1016 1.490 . S
C1012 H1002 0.930 . S
C1012 C1011 1.400 . S
C1012 C1015 1.386 . S
H1013 C1029 0.930 . S
H1014 C1030 0.931 . S
C1015 H1003 0.929 . S
C1015 C1009 1.390 . S
C1015 C1012 1.386 . S
C1016 C1011 1.490 . S
C1016 C1018 1.395 . S
C1016 C1019 1.403 . S
H1017 C1023 0.930 . S
C1018 H1004 0.930 . S
C1018 C1016 1.395 . S
C1018 C1021 1.403 . S
C1019 C1016 1.403 . S
C1019 C1020 1.524 . S
C1019 C1023 1.400 . S
C1020 H1005 0.960 . S
C1020 H1006 0.960 . S
C1020 H1007 0.960 . S
C1020 C1019 1.524 . S
C1021 C1018 1.403 . S
C1021 C1022 1.392 . S
C1021 C1025 1.495 . S
C1022 C1021 1.392 . S
C1022 C1023 1.385 . S
C1022 C1024 1.478 . S
C1023 H1017 0.930 . S
C1023 C1019 1.400 . S
C1023 C1022 1.385 . S
C1024 C1022 1.478 . S
C1024 C1026 1.381 . S
C1024 C1030 1.383 . S
C1025 C1021 1.495 . S
C1025 H1031 0.959 . S
C1025 H1032 0.961 . S
C1025 H1033 0.960 . S
C1026 C1024 1.381 . S
C1026 C1027 1.394 . S
C1026 H1034 0.930 . S
C1027 C1026 1.394 . S
C1027 C1028 1.383 . S
C1027 H1035 0.929 . S
C1028 C1027 1.383 . S
C1028 C1029 1.377 . S
C1029 H1013 0.930 . S
C1029 C1028 1.377 . S
C1029 C1030 1.379 . S
C1030 H1014 0.931 . S
C1030 C1024 1.383 . S
C1030 C1029 1.379 . S
H1031 C1025 0.959 . S
H1032 C1025 0.961 . S
H1033 C1025 0.960 . S
H1034 C1026 0.930 . S
H1035 C1027 0.929 . S
C181 C71 1.411 . S
C200 C104 1.341 . S
C236 C112 1.275 . S
C217 C81 1.339 . S
C272 C116 1.320 . S
C253 C49 1.417 . S
C289 C59 1.335 . S
C308 C92 1.220 . S
C344 C133 1.291 . S
C325 C27 1.398 . S
C380 C167 1.330 . S
C361 C38 1.433 . S
C397 C5 1.396 . S
C416 C155 1.277 . S
C433 C16 1.430 . S
C452 C137 1.312 . S
C488 C91 1.257 . S
C469 C15 1.412 . S
C524 C125 1.272 . S
C505 C4 1.439 . S
C560 C129 1.240 . S
C541 C37 1.414 . S
C596 C107 1.276 . S
C577 C26 1.438 . S
C632 C146 1.406 . S
C613 C60 1.493 . S
C649 C48 1.500 . S
C668 C154 1.347 . S
C704 C170 1.392 . S
C685 C82 1.496 . S
C721 C70 1.500 . S
C740 C150 1.403 . S
C776 C95 1.365 . S
C757 C10 1.484 . S
C812 C113 1.360 . S
C793 C21 1.550 . S
C829 C32 1.475 . S
C848 C128 1.360 . S
C884 C108 1.398 . S
C865 C43 1.544 . S
C920 C134 1.426 . S
C901 C54 1.586 . S
C937 C65 1.523 . S
C956 C158 1.397 . S
C973 C76 1.580 . S
C992 C171 1.437 . S
C1009 C87 1.516 . S
C1028 C149 1.390 . S
