# Generated by pormake.
# Topology pts, (4,4)-cn, num edge types: 1
# Building blocks:
#     Node 0, Type 0, BuildingBlock: NAWXER_clean_linker_0, # of connection points: 4
#     Node 1, Type 0, BuildingBlock: NAWXER_clean_linker_0, # of connection points: 4
#     Node 2, Type 1, BuildingBlock: UXUYUI_clean_sbu_0, # of connection points: 4
#     Node 3, Type 1, BuildingBlock: UXUYUI_clean_sbu_0, # of connection points: 4
#     Edge 4, Type (0, 1), BuildingBlock: KIFKEQ_clean_linker_1, # of connection points: 2
#     Edge 5, Type (0, 1), BuildingBlock: KIFKEQ_clean_linker_1, # of connection points: 2
#     Edge 6, Type (0, 1), BuildingBlock: KIFKEQ_clean_linker_1, # of connection points: 2
#     Edge 7, Type (0, 1), BuildingBlock: KIFKEQ_clean_linker_1, # of connection points: 2
#     Edge 8, Type (0, 1), BuildingBlock: KIFKEQ_clean_linker_1, # of connection points: 2
#     Edge 9, Type (0, 1), BuildingBlock: KIFKEQ_clean_linker_1, # of connection points: 2
#     Edge 10, Type (0, 1), BuildingBlock: KIFKEQ_clean_linker_1, # of connection points: 2
#     Edge 11, Type (0, 1), BuildingBlock: KIFKEQ_clean_linker_1, # of connection points: 2
# Relax obj value: 0.000
# Max RMSD: 0.009
# Mean RMSD: 0.008
data_MOF--net-pts--node1-UXUYUI_clean_sbu_0--node2-NAWXER_clean_linker_0--edge1-KIFKEQ_clean_linker_1
_symmetry_space_group_name_H-M    P1
_symmetry_Int_Tables_number       1
_symmetry_cell_setting            triclinic
loop_
_symmetry_equiv_pos_as_xyz
'x, y, z'
_cell_length_a     35.719102
_cell_length_b     35.728629
_cell_length_c     51.368531
_cell_angle_alpha  89.975065
_cell_angle_beta   90.120695
_cell_angle_gamma 89.926094
loop_
_atom_site_label
_atom_site_type_symbol
_atom_site_fract_x
_atom_site_fract_y
_atom_site_fract_z
_atom_type_partial_charge
C0 C 0.63108 0.02481 0.96367 0.0
C1 C 0.63635 0.99625 0.94516 0.0
C2 C 0.59891 0.02559 0.97911 0.0
C3 C 0.57148 0.99773 0.97646 0.0
C4 C 0.60874 0.96842 0.94261 0.0
C5 C 0.57653 0.96935 0.95796 0.0
C6 C 0.53657 0.99908 0.99186 0.0
C7 C 0.62992 0.97609 0.04843 0.0
C8 C 0.63395 1.00293 0.06825 0.0
C9 C 0.59817 0.97604 0.03247 0.0
C10 C 0.57014 0.0033 0.03565 0.0
C11 C 0.60555 0.02973 0.07171 0.0
C12 C 0.57395 0.02984 0.05562 0.0
C13 C 0.53595 0.00334 0.01921 0.0
C14 C 0.37175 0.98446 0.04407 0.0
C15 C 0.36934 0.00953 0.06504 0.0
C16 C 0.40397 0.9831 0.02871 0.0
C17 C 0.434 0.00759 0.03355 0.0
C18 C 0.39955 0.03355 0.07018 0.0
C19 C 0.43153 0.03261 0.05457 0.0
C20 C 0.46908 0.0056 0.01816 0.0
C21 C 0.38052 0.03544 0.95871 0.0
C22 C 0.37207 0.00535 0.94213 0.0
C23 C 0.41208 0.03406 0.97485 0.0
C24 C 0.43588 1.00275 0.97438 0.0
C25 C 0.3959 0.97405 0.94172 0.0
C26 C 0.42784 0.973 0.95747 0.0
C27 C 0.46984 1.00145 0.9908 0.0
H28 H 0.65137 0.04709 0.96582 0.0
H29 H 0.59515 0.04835 0.99279 0.0
H30 H 0.61208 0.94575 0.92882 0.0
H31 H 0.55559 0.9477 0.95551 0.0
H32 H 0.65097 0.95463 0.04562 0.0
H33 H 0.59535 0.95435 0.01788 0.0
H34 H 0.60795 0.05092 0.0867 0.0
H35 H 0.55257 0.05092 0.05864 0.0
H36 H 0.34913 0.96512 0.04002 0.0
H37 H 0.40564 0.96224 0.0135 0.0
H38 H 0.39836 0.05318 0.08623 0.0
H39 H 0.45443 0.05147 0.05895 0.0
H40 H 0.36249 0.05983 0.95937 0.0
H41 H 0.41811 0.05753 0.98752 0.0
H42 H 0.39008 0.95066 0.92894 0.0
H43 H 0.44606 0.94876 0.9567 0.0
N44 N 0.50349 0.99809 0.97876 0.0
N45 N 0.50222 0.0066 0.03123 0.0
C46 C 0.02966 0.62969 0.54686 0.0
C47 C 1.00159 0.63533 0.56561 0.0
C48 C 0.02966 0.59753 0.53138 0.0
C49 C 1.00142 0.57052 0.53421 0.0
C50 C 0.97357 0.60805 0.56856 0.0
C51 C 0.97365 0.57584 0.55313 0.0
C52 C 1.0016 0.53589 0.51841 0.0
C53 C 0.97938 0.63034 0.46277 0.0
C54 C 0.00588 0.63441 0.44275 0.0
C55 C 0.97934 0.59844 0.47853 0.0
C56 C 0.00629 0.57022 0.47497 0.0
C57 C 0.03242 0.60579 0.43896 0.0
C58 C 0.03253 0.57402 0.45485 0.0
C59 C 0.00602 0.53574 0.49104 0.0
C60 C 0.97594 0.37768 0.46065 0.0
C61 C 0.00622 0.36999 0.44409 0.0
C62 C 0.97632 0.40943 0.47653 0.0
C63 C 0.00678 0.43421 0.47583 0.0
C64 C 0.03688 0.39456 0.44366 0.0
C65 C 0.03692 0.42671 0.45917 0.0
C66 C 0.0063 0.46897 0.49136 0.0
C67 C 0.03072 0.37704 0.54901 0.0
C68 C 1.00153 0.37082 0.56678 0.0
C69 C 0.03033 0.40857 0.53289 0.0
C70 C 1.00086 0.43453 0.53438 0.0
C71 C 0.97191 0.39669 0.56808 0.0
C72 C 0.9718 0.42848 0.55221 0.0
C73 C 1.00143 0.46913 0.51859 0.0
H74 H 0.05154 0.65025 0.54404 0.0
H75 H 0.05191 0.59363 0.51734 0.0
H76 H 0.9519 0.61128 0.58311 0.0
H77 H 0.95188 0.55514 0.55588 0.0
H78 H 0.95867 0.65187 0.46638 0.0
H79 H 0.95795 0.59572 0.49331 0.0
H80 H 0.05277 0.60758 0.42342 0.0
H81 H 0.05321 0.55238 0.45143 0.0
H82 H 0.95203 0.35907 0.46133 0.0
H83 H 0.95253 0.41504 0.48899 0.0
H84 H 0.06041 0.38933 0.43089 0.0
H85 H 0.06051 0.44568 0.45822 0.0
H86 H 0.05382 0.35748 0.54757 0.0
H87 H 0.05345 0.41306 0.51964 0.0
H88 H 0.94926 0.39275 0.5818 0.0
H89 H 0.94901 0.44838 0.55384 0.0
N90 N 0.99918 0.50256 0.53108 0.0
N91 N 0.00848 0.50223 0.47862 0.0
Li92 Li 0.0051 0.037 0.27304 0.0
Li93 Li 1.00285 0.968 0.2719 0.0
Li94 Li 0.03756 0.00372 0.23707 0.0
Li95 Li 0.96928 1.00173 0.23828 0.0
C96 C 0.07849 0.01197 0.28878 0.0
N97 N 0.14088 0.03483 0.31642 0.0
C98 C 0.08878 0.99352 0.31172 0.0
C99 C 0.10021 0.04178 0.27977 0.0
C100 C 0.12033 0.00558 0.32546 0.0
C101 C 0.13158 0.05298 0.29404 0.0
C102 C 0.94074 0.99045 0.29722 0.0
C103 C 0.8973 0.94619 0.31568 0.0
N104 N 0.90184 0.96249 0.3394 0.0
C105 C 0.9447 0.00699 0.32173 0.0
C106 C 0.91658 0.96004 0.2941 0.0
C107 C 0.92488 0.99237 0.34283 0.0
C108 C 0.98239 0.10916 0.28846 0.0
N109 N 0.00521 0.08013 0.29504 0.0
C110 C 0.02722 0.11333 0.33245 0.0
C111 C 0.02692 0.08143 0.31681 0.0
C112 C 0.00419 0.14377 0.32602 0.0
C113 C 0.98125 0.14139 0.30387 0.0
H114 H 0.96511 0.10723 0.27119 0.0
H115 H 0.04374 0.05764 0.32231 0.0
C116 C 0.00419 0.89008 0.28264 0.0
N117 N 0.00356 0.92469 0.29362 0.0
C118 C 0.00441 0.85812 0.29832 0.0
C119 C 0.00357 0.898 0.33631 0.0
C120 C 0.0037 0.92915 0.3199 0.0
C121 C 0.00389 0.86189 0.32554 0.0
H122 H 0.0046 0.88726 0.26171 0.0
H123 H 0.00412 0.95695 0.32816 0.0
C124 C 0.0156 0.07585 0.22068 0.0
N125 N 0.04301 0.13537 0.1921 0.0
C126 C 0.00451 0.08091 0.1948 0.0
C127 C 0.03998 0.1016 0.23217 0.0
C128 C 0.01887 0.111 0.18063 0.0
C129 C 0.0537 0.13136 0.21737 0.0
C130 C 0.98786 0.93714 0.21534 0.0
C131 C 1.00265 0.93492 0.19022 0.0
C132 C 0.95553 0.91705 0.2215 0.0
C133 C 0.98442 0.91312 0.17153 0.0
C134 C 0.93808 0.8956 0.20227 0.0
N135 N 0.95275 0.89413 0.17788 0.0
C136 C 0.11433 0.9944 0.22404 0.0
C137 C 0.07535 0.0135 0.1891 0.0
C138 C 0.14579 0.99546 0.20798 0.0
N139 N 0.0801 0.00415 0.21456 0.0
C140 C 0.10594 0.01435 0.17223 0.0
C141 C 0.14178 0.00565 0.18173 0.0
H142 H 0.11727 0.98559 0.24405 0.0
H143 H 0.0477 0.01988 0.1818 0.0
C144 C 0.89127 0.00419 0.22776 0.0
N145 N 0.92575 1.00238 0.2167 0.0
C146 C 0.85915 0.00436 0.21218 0.0
C147 C 0.89865 1.00091 0.17412 0.0
C148 C 0.92996 1.00103 0.19043 0.0
C149 C 0.86256 1.00264 0.18493 0.0
H150 H 0.88871 0.00567 0.2487 0.0
H151 H 0.95769 0.99976 0.18211 0.0
O152 O 0.04738 1.00075 0.27529 0.0
O153 O 0.96021 0.00416 0.27639 0.0
O154 O 1.00169 0.04655 0.23486 0.0
O155 O 0.005 0.9588 0.23381 0.0
H156 H 0.07254 0.9702 0.31889 0.0
H157 H 0.09328 0.05576 0.26177 0.0
H158 H 0.1285 0.99165 0.34329 0.0
H159 H 0.14861 0.07601 0.28727 0.0
H160 H 0.8787 0.92252 0.31356 0.0
H161 H 0.96311 0.03064 0.32451 0.0
H162 H 0.9128 0.9472 0.27524 0.0
H163 H 0.92787 0.00473 0.36194 0.0
H164 H 0.04477 0.11396 0.34967 0.0
H165 H 0.9631 0.16439 0.29836 0.0
H166 H 0.00452 0.83076 0.28925 0.0
H167 H 0.00381 0.90215 0.35719 0.0
H168 H 0.98522 0.06166 0.18568 0.0
H169 H 0.04797 0.09894 0.25237 0.0
H170 H 0.01078 0.11501 0.16051 0.0
H171 H 0.07271 0.15138 0.22602 0.0
H172 H 0.02785 0.94995 0.18518 0.0
H173 H 0.94394 0.91816 0.24089 0.0
H174 H 0.99544 0.91133 0.15197 0.0
H175 H 0.91289 0.88013 0.20673 0.0
H176 H 0.17289 0.98782 0.21588 0.0
H177 H 0.10172 0.02217 0.15206 0.0
H178 H 0.83198 0.00634 0.22139 0.0
H179 H 0.90274 0.99903 0.15328 0.0
Li180 Li 0.9677 1.0015 0.77273 0.0
Li181 Li 0.03719 1.00193 0.77236 0.0
Li182 Li 0.9997 0.03744 0.73784 0.0
Li183 Li 0.00354 0.96796 0.73743 0.0
C184 C 0.98747 0.07438 0.7898 0.0
N185 N 0.95728 0.13354 0.81728 0.0
C186 C 1.00051 0.0826 0.81481 0.0
C187 C 0.95946 0.0965 0.77861 0.0
C188 C 0.98477 0.11255 0.82844 0.0
C189 C 0.94445 0.12622 0.79285 0.0
C190 C 0.01438 0.92788 0.78901 0.0
C191 C 0.05635 0.87547 0.79411 0.0
N192 N 0.0384 0.86581 0.81645 0.0
C193 C 0.99623 0.91737 0.81195 0.0
C194 C 0.04459 0.90675 0.77994 0.0
C195 C 0.00885 0.88592 0.82557 0.0
C196 C 0.89263 0.98508 0.7863 0.0
N197 N 0.92556 0.9991 0.79529 0.0
C198 C 0.89874 0.00994 0.83722 0.0
C199 C 0.92933 0.01074 0.82035 0.0
C200 C 0.864 0.99683 0.8282 0.0
C201 C 0.86123 0.98402 0.80242 0.0
H202 H 0.89071 0.97466 0.76659 0.0
H203 H 0.95614 0.02055 0.82727 0.0
C204 C 0.11003 0.02493 0.7867 0.0
N205 N 0.08051 0.00346 0.79406 0.0
C206 C 0.14194 0.02722 0.80245 0.0
C207 C 0.11258 0.98488 0.83285 0.0
C208 C 0.08105 0.98405 0.8168 0.0
C209 C 0.14368 0.00685 0.82591 0.0
H210 H 0.10861 0.04056 0.76868 0.0
H211 H 0.05695 0.96799 0.82266 0.0
C212 C 0.92709 0.00733 0.72029 0.0
N213 N 0.86373 0.02204 0.69106 0.0
C214 C 0.92188 0.98975 0.69626 0.0
C215 C 0.90002 0.03231 0.7295 0.0
C216 C 0.88967 0.99759 0.68175 0.0
C217 C 0.86819 0.03938 0.71443 0.0
C218 C 0.0731 0.99507 0.71782 0.0
C219 C 0.07485 0.0101 0.69274 0.0
C220 C 0.10084 0.97024 0.72625 0.0
C221 C 0.10398 0.99933 0.67624 0.0
C222 C 0.12953 0.96018 0.70918 0.0
N223 N 0.13046 0.97477 0.68473 0.0
C224 C 0.0285 0.10582 0.71971 0.0
C225 C 0.97237 0.08775 0.69855 0.0
C226 C 0.03049 0.1383 0.70454 0.0
N227 N 0.99968 0.08138 0.71651 0.0
C228 C 0.97293 0.12004 0.68332 0.0
C229 C 1.00224 0.14578 0.6862 0.0
H230 H 0.05 0.09996 0.73401 0.0
H231 H 0.95021 0.06782 0.69575 0.0
C232 C 0.99247 0.89169 0.72469 0.0
N233 N 0.00373 0.92532 0.71513 0.0
C234 C 0.99208 0.86009 0.7087 0.0
C235 C 0.01379 0.8985 0.67309 0.0
C236 C 0.01382 0.92933 0.68979 0.0
C237 C 1.00294 0.86322 0.68251 0.0
H238 H 0.98361 0.88939 0.74472 0.0
H239 H 0.02124 0.95659 0.68238 0.0
O240 O 1.00257 0.04516 0.77624 0.0
O241 O 1.00238 0.95864 0.77553 0.0
O242 O 0.95854 1.00001 0.73465 0.0
O243 O 0.0449 0.00547 0.73425 0.0
H244 H 0.0224 0.06583 0.82365 0.0
H245 H 0.94957 0.09092 0.75909 0.0
H246 H 0.99441 0.11912 0.84789 0.0
H247 H 0.92268 0.14353 0.78446 0.0
H248 H 0.07968 0.85883 0.78731 0.0
H249 H 0.97274 0.93344 0.81918 0.0
H250 H 0.05858 0.91422 0.76205 0.0
H251 H 0.99515 0.87751 0.8434 0.0
H252 H 0.90211 0.02001 0.85697 0.0
H253 H 0.83518 0.97291 0.79489 0.0
H254 H 0.16469 0.04519 0.79641 0.0
H255 H 0.11251 0.96816 0.85042 0.0
H256 H 0.94252 0.97033 0.68885 0.0
H257 H 0.90346 0.04599 0.74811 0.0
H258 H 0.88531 0.98425 0.6631 0.0
H259 H 0.84703 0.05864 0.72132 0.0
H260 H 0.05374 0.02966 0.68604 0.0
H261 H 0.10041 0.95909 0.74582 0.0
H262 H 0.10555 0.01051 0.6567 0.0
H263 H 0.15113 0.94089 0.71541 0.0
H264 H 0.05354 0.15756 0.70734 0.0
H265 H 0.95096 0.12453 0.66907 0.0
H266 H 0.98365 0.83346 0.71686 0.0
H267 H 0.02152 0.90244 0.6529 0.0
H268 H 0.29601 0.01263 0.05018 0.0
H269 H 0.36722 0.00688 0.11801 0.0
H270 H 0.2408 0.01309 0.07807 0.0
H271 H 0.31226 0.00569 0.14599 0.0
H272 H 0.20875 0.03959 0.1909 0.0
H273 H 0.26319 0.04202 0.16244 0.0
H274 H 0.20401 0.9755 0.10532 0.0
H275 H 0.14914 0.97464 0.13348 0.0
C276 C 0.29974 0.01115 0.07109 0.0
C277 C 0.33581 0.00986 0.08197 0.0
C278 C 0.26814 0.0112 0.08711 0.0
C279 C 0.27189 0.00939 0.11438 0.0
C280 C 0.30814 0.00789 0.12516 0.0
C281 C 0.33971 0.00841 0.10915 0.0
C282 C 0.20752 0.02551 0.17225 0.0
C283 C 0.17481 0.00694 0.16437 0.0
C284 C 0.23877 0.0267 0.15595 0.0
C285 C 0.23823 0.00883 0.13152 0.0
C286 C 0.20535 0.99018 0.12373 0.0
C287 C 0.17392 0.98949 0.1399 0.0
H288 H 0.94514 0.3213 0.57622 0.0
H289 H 0.05959 0.34615 0.59685 0.0
H290 H 0.94611 0.26725 0.60516 0.0
H291 H 0.06036 0.29299 0.62665 0.0
H292 H 0.06102 0.17316 0.65814 0.0
H293 H 0.06129 0.22722 0.62906 0.0
H294 H 0.94599 0.25011 0.64922 0.0
H295 H 0.94557 0.19523 0.67736 0.0
C296 C 0.9704 0.31532 0.58718 0.0
C297 C 1.00228 0.33784 0.58429 0.0
C298 C 0.97096 0.28446 0.6039 0.0
C299 C 0.00327 0.2757 0.61845 0.0
C300 C 0.03517 0.29839 0.6155 0.0
C301 C 0.03474 0.32896 0.59849 0.0
C302 C 0.03589 0.18999 0.65641 0.0
C303 C 0.00324 0.17997 0.66987 0.0
C304 C 0.036 0.22106 0.63982 0.0
C305 C 0.00358 0.24308 0.63659 0.0
C306 C 0.97122 0.23341 0.65066 0.0
C307 C 0.97099 0.20209 0.66694 0.0
H308 H 0.63645 0.01156 0.12112 0.0
H309 H 0.70719 0.99386 0.05415 0.0
H310 H 0.6916 0.01183 0.14929 0.0
H311 H 0.7623 0.99333 0.0824 0.0
H312 H 0.85314 0.03816 0.13802 0.0
H313 H 0.79815 0.03777 0.10986 0.0
H314 H 0.74021 0.96761 0.16507 0.0
H315 H 0.79539 0.9674 0.19311 0.0
C316 C 0.6638 0.00782 0.11242 0.0
C317 C 0.66749 1.00276 0.0854 0.0
C318 C 0.69534 0.0076 0.12858 0.0
C319 C 0.7313 1.00258 0.11807 0.0
C320 C 0.73499 0.99759 0.09105 0.0
C321 C 0.70343 0.99754 0.07491 0.0
C322 C 0.82886 0.02227 0.14406 0.0
C323 C 0.8288 1.00275 0.16786 0.0
C324 C 0.79732 0.02212 0.12792 0.0
C325 C 0.76484 1.00265 0.13523 0.0
C326 C 0.76464 0.98328 0.15905 0.0
C327 C 0.79627 0.98325 0.17515 0.0
H328 H 0.94209 0.67938 0.57925 0.0
H329 H 0.06155 0.6679 0.58978 0.0
H330 H 0.94233 0.73469 0.60706 0.0
H331 H 0.0618 0.72299 0.61777 0.0
H332 H 0.05435 0.84413 0.6453 0.0
H333 H 0.05353 0.79006 0.61641 0.0
H334 H 0.9509 0.75218 0.6521 0.0
H335 H 0.95082 0.8071 0.68018 0.0
C336 C 0.96836 0.68853 0.58767 0.0
C337 C 1.0018 0.66927 0.58231 0.0
C338 C 0.9685 0.7202 0.60364 0.0
C339 C 1.00208 0.73328 0.61469 0.0
C340 C 0.03554 0.71405 0.60925 0.0
C341 C 0.0354 0.68245 0.59322 0.0
C342 C 0.03138 0.82449 0.64679 0.0
C343 C 1.00264 0.83 0.66507 0.0
C344 C 0.03115 0.79324 0.63043 0.0
C345 C 1.00219 0.76671 0.63196 0.0
C346 C 0.97342 0.77225 0.6502 0.0
C347 C 0.97363 0.80352 0.66654 0.0
H348 H 0.31645 0.95359 0.93875 0.0
H349 H 0.35234 0.05974 0.90746 0.0
H350 H 0.26088 0.95536 0.91066 0.0
H351 H 0.29711 0.06112 0.87894 0.0
H352 H 0.21766 0.01464 0.81167 0.0
H353 H 0.27261 0.01628 0.83995 0.0
H354 H 0.20203 1.00225 0.90721 0.0
H355 H 0.14675 1.00289 0.87941 0.0
C356 C 0.31244 0.97718 0.92578 0.0
C357 C 0.33851 0.00655 0.92522 0.0
C358 C 0.28069 0.97827 0.90985 0.0
C359 C 0.27488 0.00836 0.8927 0.0
C360 C 0.30112 0.03757 0.89195 0.0
C361 C 0.33249 0.03687 0.90829 0.0
C362 C 0.21357 0.01267 0.83249 0.0
C363 C 0.17745 0.00844 0.84309 0.0
C364 C 0.24515 0.01338 0.84864 0.0
C365 C 0.24143 0.00916 0.87566 0.0
C366 C 0.20559 0.00509 0.88636 0.0
C367 C 0.17395 0.00517 0.87032 0.0
H368 H 0.95184 0.35015 0.4096 0.0
H369 H 0.0591 0.31541 0.43984 0.0
H370 H 0.95137 0.29663 0.38017 0.0
H371 H 0.05802 0.2606 0.4116 0.0
H372 H 0.06412 0.18522 0.34124 0.0
H373 H 0.06446 0.24049 0.369 0.0
H374 H 0.94416 0.23228 0.37711 0.0
H375 H 0.94404 0.17828 0.34807 0.0
C376 C 0.97509 0.33065 0.41012 0.0
C377 C 0.00553 0.33681 0.42688 0.0
C378 C 0.9748 0.29981 0.39338 0.0
C379 C 0.00466 0.27402 0.39337 0.0
C380 C 0.03489 0.28014 0.41052 0.0
C381 C 0.03547 0.31138 0.42688 0.0
C382 C 0.03782 0.19548 0.34894 0.0
C383 C 0.00406 0.17765 0.34255 0.0
C384 C 0.03795 0.22699 0.36504 0.0
C385 C 0.00436 0.24097 0.37558 0.0
C386 C 0.97055 0.22293 0.36907 0.0
C387 C 0.97039 0.19184 0.35253 0.0
H388 H 0.6404 0.97823 0.89342 0.0
H389 H 0.70873 0.01366 0.9584 0.0
H390 H 0.69546 0.9772 0.86569 0.0
H391 H 0.76353 0.01465 0.93025 0.0
H392 H 0.86037 0.97457 0.87911 0.0
H393 H 0.80566 0.97397 0.90746 0.0
H394 H 0.73816 0.01883 0.84483 0.0
H395 H 0.79272 0.01874 0.81645 0.0
C396 C 0.66718 0.98573 0.90184 0.0
C397 C 0.67009 0.99592 0.9282 0.0
C398 C 0.69872 0.98565 0.88581 0.0
C399 C 0.73397 0.99599 0.89567 0.0
C400 C 0.73691 0.00614 0.92205 0.0
C401 C 0.70538 0.00605 0.93813 0.0
C402 C 0.83386 0.98447 0.87148 0.0
C403 C 0.83081 0.9966 0.84554 0.0
C404 C 0.80251 0.98422 0.88773 0.0
C405 C 0.76743 0.99631 0.87845 0.0
C406 C 0.76453 0.00866 0.85251 0.0
C407 C 0.79581 0.00868 0.83623 0.0
H408 H 0.94498 0.67198 0.42319 0.0
H409 H 0.066 0.67314 0.42344 0.0
H410 H 0.94449 0.72702 0.39512 0.0
H411 H 0.06535 0.72773 0.39492 0.0
H412 H 0.04682 0.79883 0.321 0.0
H413 H 0.04706 0.74381 0.34928 0.0
H414 H 0.96185 0.79463 0.39725 0.0
H415 H 0.96116 0.84937 0.36873 0.0
C416 C 0.97148 0.68411 0.41747 0.0
C417 C 0.00554 0.66807 0.42564 0.0
C418 C 0.97116 0.71561 0.40132 0.0
C419 C 0.00487 0.73165 0.3928 0.0
C420 C 0.03892 0.71566 0.40089 0.0
C421 C 0.03926 0.68433 0.41719 0.0
C422 C 0.02796 0.7981 0.33748 0.0
C423 C 0.00396 0.82839 0.34265 0.0
C424 C 0.02835 0.76678 0.3538 0.0
C425 C 0.00451 0.76494 0.37549 0.0
C426 C 0.98033 0.79513 0.38056 0.0
C427 C 0.98018 0.82659 0.36438 0.0
loop_
_geom_bond_atom_site_label_1
_geom_bond_atom_site_label_2
_geom_bond_distance
_geom_bond_site_symmetry_2
_ccdc_geom_bond_type
C0 C1 1.366 1_545 S
C0 C2 1.384 . S
C0 H28 0.931 . S
C1 C0 1.366 1_565 S
C1 C4 1.401 . S
C2 C0 1.384 . S
C2 C3 1.381 1_545 S
C2 H29 0.930 . S
C3 C2 1.381 1_565 S
C3 C5 1.381 . S
C3 C6 1.487 . S
C4 C1 1.401 . S
C4 C5 1.387 . S
C4 H30 0.930 . S
C5 C3 1.381 . S
C5 C4 1.387 . S
C5 H31 0.931 . S
C6 C3 1.487 . S
C6 C13 1.399 1_566 S
C6 N44 1.343 . S
C7 C8 1.384 1_565 S
C7 C9 1.384 . S
C7 H32 0.931 . S
C8 C7 1.384 1_545 S
C8 C11 1.382 . S
C9 C7 1.384 . S
C9 C10 1.381 1_565 S
C9 H33 0.930 . S
C10 C9 1.381 1_545 S
C10 C12 1.381 . S
C10 C13 1.487 . S
C11 C8 1.382 . S
C11 C12 1.387 . S
C11 H34 0.930 . S
C12 C10 1.381 . S
C12 C11 1.387 . S
C12 H35 0.931 . S
C13 C6 1.399 1_544 S
C13 C10 1.487 . S
C13 N45 1.343 . S
C14 C15 1.384 1_565 S
C14 C16 1.384 . S
C14 H36 0.931 . S
C15 C14 1.384 1_545 S
C15 C18 1.382 . S
C16 C14 1.384 . S
C16 C17 1.381 1_565 S
C16 H37 0.930 . S
C17 C16 1.381 1_545 S
C17 C19 1.381 . S
C17 C20 1.487 . S
C18 C15 1.382 . S
C18 C19 1.387 . S
C18 H38 0.930 . S
C19 C17 1.381 . S
C19 C18 1.387 . S
C19 H39 0.931 . S
C20 C17 1.487 . S
C20 C27 1.399 1_544 S
C20 N45 1.343 . S
C21 C22 1.366 1_545 S
C21 C23 1.384 . S
C21 H40 0.931 . S
C22 C21 1.366 1_565 S
C22 C25 1.401 . S
C23 C21 1.384 . S
C23 C24 1.381 1_545 S
C23 H41 0.930 . S
C24 C23 1.381 1_565 S
C24 C26 1.381 . S
C24 C27 1.487 . S
C25 C22 1.401 . S
C25 C26 1.387 . S
C25 H42 0.930 . S
C26 C24 1.381 . S
C26 C25 1.387 . S
C26 H43 0.931 . S
C27 C20 1.399 1_566 S
C27 C24 1.487 . S
C27 N44 1.343 . S
H28 C0 0.931 . S
H29 C2 0.930 . S
H30 C4 0.930 . S
H31 C5 0.931 . S
H32 C7 0.931 . S
H33 C9 0.930 . S
H34 C11 0.930 . S
H35 C12 0.931 . S
H36 C14 0.931 . S
H37 C16 0.930 . S
H38 C18 0.930 . S
H39 C19 0.931 . S
H40 C21 0.931 . S
H41 C23 0.930 . S
H42 C25 0.930 . S
H43 C26 0.931 . S
N44 C6 1.343 . S
N44 C27 1.343 . S
N45 C13 1.343 . S
N45 C20 1.343 . S
C46 C47 1.366 1_455 S
C46 C48 1.384 . S
C46 H74 0.931 . S
C47 C46 1.366 1_655 S
C47 C50 1.401 . S
C48 C46 1.384 . S
C48 C49 1.381 1_455 S
C48 H75 0.930 . S
C49 C48 1.381 1_655 S
C49 C51 1.381 . S
C49 C52 1.487 . S
C50 C47 1.401 . S
C50 C51 1.387 . S
C50 H76 0.930 . S
C51 C49 1.381 . S
C51 C50 1.387 . S
C51 H77 0.931 . S
C52 C49 1.487 . S
C52 C59 1.399 1_655 S
C52 N90 1.343 . S
C53 C54 1.384 1_655 S
C53 C55 1.384 . S
C53 H78 0.931 . S
C54 C53 1.384 1_455 S
C54 C57 1.382 . S
C55 C53 1.384 . S
C55 C56 1.381 1_655 S
C55 H79 0.930 . S
C56 C55 1.381 1_455 S
C56 C58 1.381 . S
C56 C59 1.487 . S
C57 C54 1.382 . S
C57 C58 1.387 . S
C57 H80 0.930 . S
C58 C56 1.381 . S
C58 C57 1.387 . S
C58 H81 0.931 . S
C59 C52 1.399 1_455 S
C59 C56 1.487 . S
C59 N91 1.343 . S
C60 C61 1.384 1_655 S
C60 C62 1.384 . S
C60 H82 0.931 . S
C61 C60 1.384 1_455 S
C61 C64 1.382 . S
C62 C60 1.384 . S
C62 C63 1.381 1_655 S
C62 H83 0.930 . S
C63 C62 1.381 1_455 S
C63 C65 1.381 . S
C63 C66 1.487 . S
C64 C61 1.382 . S
C64 C65 1.387 . S
C64 H84 0.930 . S
C65 C63 1.381 . S
C65 C64 1.387 . S
C65 H85 0.931 . S
C66 C63 1.487 . S
C66 C73 1.399 1_455 S
C66 N91 1.343 . S
C67 C68 1.366 1_455 S
C67 C69 1.384 . S
C67 H86 0.931 . S
C68 C67 1.366 1_655 S
C68 C71 1.401 . S
C69 C67 1.384 . S
C69 C70 1.381 1_455 S
C69 H87 0.930 . S
C70 C69 1.381 1_655 S
C70 C72 1.381 . S
C70 C73 1.487 . S
C71 C68 1.401 . S
C71 C72 1.387 . S
C71 H88 0.930 . S
C72 C70 1.381 . S
C72 C71 1.387 . S
C72 H89 0.931 . S
C73 C66 1.399 1_655 S
C73 C70 1.487 . S
C73 N90 1.343 . S
H74 C46 0.931 . S
H75 C48 0.930 . S
H76 C50 0.930 . S
H77 C51 0.931 . S
H78 C53 0.931 . S
H79 C55 0.930 . S
H80 C57 0.930 . S
H81 C58 0.931 . S
H82 C60 0.931 . S
H83 C62 0.930 . S
H84 C64 0.930 . S
H85 C65 0.931 . S
H86 C67 0.931 . S
H87 C69 0.930 . S
H88 C71 0.930 . S
H89 C72 0.931 . S
N90 C52 1.343 . S
N90 C73 1.343 . S
N91 C59 1.343 . S
N91 C66 1.343 . S
Li92 N109 1.990 . S
Li92 O152 1.956 1_545 S
Li92 O153 1.970 1_455 S
Li92 O154 1.961 1_455 S
Li93 N117 1.990 . S
Li93 O152 1.970 1_655 S
Li93 O153 1.956 1_565 S
Li93 O155 1.961 1_655 S
Li94 N139 1.990 . S
Li94 O152 1.961 1_545 S
Li94 O154 1.956 1_455 S
Li94 O155 1.970 1_545 S
Li95 N145 1.990 . S
Li95 O153 1.961 1_565 S
Li95 O154 1.970 1_565 S
Li95 O155 1.956 1_655 S
C96 C98 1.348 1_545 S
C96 C99 1.356 . S
C96 O152 1.325 1_545 S
N97 C100 1.314 1_545 S
N97 C101 1.279 . S
C98 C96 1.348 1_565 S
C98 C100 1.353 . S
C98 H156 0.929 . S
C99 C96 1.356 . S
C99 C101 1.358 . S
C99 H157 0.930 . S
C100 N97 1.314 1_565 S
C100 C98 1.353 . S
C100 H158 0.930 . S
C101 N97 1.279 . S
C101 C99 1.358 . S
C101 H159 0.930 . S
C102 C105 1.348 . S
C102 C106 1.356 1_545 S
C102 O153 1.325 . S
C103 N104 1.279 . S
C103 C106 1.358 . S
C103 H160 0.930 . S
N104 C103 1.279 . S
N104 C107 1.314 1_565 S
C105 C102 1.348 . S
C105 C107 1.353 . S
C105 H161 0.929 . S
C106 C102 1.356 1_565 S
C106 C103 1.358 . S
C106 H162 0.930 . S
C107 N104 1.314 1_545 S
C107 C105 1.353 . S
C107 H163 0.930 . S
C108 N109 1.314 1_655 S
C108 C113 1.353 . S
C108 H114 0.930 . S
N109 Li92 1.990 . S
N109 C108 1.314 1_455 S
N109 C111 1.279 . S
C110 C111 1.358 . S
C110 C112 1.356 . S
C110 H164 0.930 . S
C111 N109 1.279 . S
C111 C110 1.358 . S
C111 H115 0.930 . S
C112 C110 1.356 . S
C112 C113 1.348 1_455 S
C113 C108 1.353 . S
C113 C112 1.348 1_655 S
C113 H165 0.929 . S
H114 C108 0.930 . S
H115 C111 0.930 . S
C116 N117 1.314 1_455 S
C116 C118 1.353 . S
C116 H122 0.930 . S
N117 Li93 1.990 . S
N117 C116 1.314 1_655 S
N117 C120 1.279 . S
C118 C116 1.353 . S
C118 C121 1.348 . S
C118 H166 0.929 . S
C119 C120 1.358 . S
C119 C121 1.356 1_655 S
C119 H167 0.930 . S
C120 N117 1.279 . S
C120 C119 1.358 . S
C120 H123 0.930 . S
C121 C118 1.348 . S
C121 C119 1.356 1_455 S
H122 C116 0.930 . S
H123 C120 0.930 . S
C124 C126 1.348 1_455 S
C124 C127 1.356 . S
C124 O154 1.325 1_455 S
N125 C128 1.314 1_455 S
N125 C129 1.279 . S
C126 C124 1.348 1_655 S
C126 C128 1.353 . S
C126 H168 0.929 . S
C127 C124 1.356 . S
C127 C129 1.358 . S
C127 H169 0.930 . S
C128 N125 1.314 1_655 S
C128 C126 1.353 . S
C128 H170 0.930 . S
C129 N125 1.279 . S
C129 C127 1.358 . S
C129 H171 0.930 . S
C130 C131 1.348 . S
C130 C132 1.356 1_455 S
C130 O155 1.325 . S
C131 C130 1.348 . S
C131 C133 1.353 . S
C131 H172 0.929 . S
C132 C130 1.356 1_655 S
C132 C134 1.358 . S
C132 H173 0.930 . S
C133 C131 1.353 . S
C133 N135 1.314 1_455 S
C133 H174 0.930 . S
C134 C132 1.358 . S
C134 N135 1.279 . S
C134 H175 0.930 . S
N135 C133 1.314 1_655 S
N135 C134 1.279 . S
C136 C138 1.353 . S
C136 N139 1.314 1_565 S
C136 H142 0.930 . S
C137 N139 1.279 . S
C137 C140 1.358 . S
C137 H143 0.930 . S
C138 C136 1.353 . S
C138 C141 1.348 1_565 S
C138 H176 0.929 . S
N139 Li94 1.990 . S
N139 C136 1.314 1_545 S
N139 C137 1.279 . S
C140 C137 1.358 . S
C140 C141 1.356 . S
C140 H177 0.930 . S
C141 C138 1.348 1_545 S
C141 C140 1.356 . S
H142 C136 0.930 . S
H143 C137 0.930 . S
C144 N145 1.314 1_545 S
C144 C146 1.353 . S
C144 H150 0.930 . S
N145 Li95 1.990 . S
N145 C144 1.314 1_565 S
N145 C148 1.279 . S
C146 C144 1.353 . S
C146 C149 1.348 . S
C146 H178 0.929 . S
C147 C148 1.358 . S
C147 C149 1.356 1_565 S
C147 H179 0.930 . S
C148 N145 1.279 . S
C148 C147 1.358 . S
C148 H151 0.930 . S
C149 C146 1.348 . S
C149 C147 1.356 1_545 S
H150 C144 0.930 . S
H151 C148 0.930 . S
O152 Li92 1.956 1_565 S
O152 Li93 1.970 1_455 S
O152 Li94 1.961 1_565 S
O152 C96 1.325 1_565 S
O153 Li92 1.970 1_655 S
O153 Li93 1.956 1_545 S
O153 Li95 1.961 1_545 S
O153 C102 1.325 . S
O154 Li92 1.961 1_655 S
O154 Li94 1.956 1_655 S
O154 Li95 1.970 1_545 S
O154 C124 1.325 1_655 S
O155 Li93 1.961 1_455 S
O155 Li94 1.970 1_565 S
O155 Li95 1.956 1_455 S
O155 C130 1.325 . S
H156 C98 0.929 . S
H157 C99 0.930 . S
H158 C100 0.930 . S
H159 C101 0.930 . S
H160 C103 0.930 . S
H161 C105 0.929 . S
H162 C106 0.930 . S
H163 C107 0.930 . S
H164 C110 0.930 . S
H165 C113 0.929 . S
H166 C118 0.929 . S
H167 C119 0.930 . S
H168 C126 0.929 . S
H169 C127 0.930 . S
H170 C128 0.930 . S
H171 C129 0.930 . S
H172 C131 0.929 . S
H173 C132 0.930 . S
H174 C133 0.930 . S
H175 C134 0.930 . S
H176 C138 0.929 . S
H177 C140 0.930 . S
H178 C146 0.929 . S
H179 C147 0.930 . S
Li180 N197 1.990 . S
Li180 O240 1.956 1_655 S
Li180 O241 1.970 1_545 S
Li180 O242 1.961 1_545 S
Li181 N205 1.990 . S
Li181 O240 1.970 1_565 S
Li181 O241 1.956 1_455 S
Li181 O243 1.961 1_565 S
Li182 N227 1.990 . S
Li182 O240 1.961 1_655 S
Li182 O242 1.956 1_545 S
Li182 O243 1.970 1_655 S
Li183 N233 1.990 . S
Li183 O241 1.961 1_455 S
Li183 O242 1.970 1_455 S
Li183 O243 1.956 1_565 S
C184 C186 1.348 . S
C184 C187 1.356 1_455 S
C184 O240 1.325 . S
N185 C188 1.314 1_655 S
N185 C189 1.279 . S
C186 C184 1.348 . S
C186 C188 1.353 . S
C186 H244 0.929 . S
C187 C184 1.356 1_655 S
C187 C189 1.358 . S
C187 H245 0.930 . S
C188 N185 1.314 1_455 S
C188 C186 1.353 . S
C188 H246 0.930 . S
C189 N185 1.279 . S
C189 C187 1.358 . S
C189 H247 0.930 . S
C190 C193 1.348 1_455 S
C190 C194 1.356 . S
C190 O241 1.325 1_455 S
C191 N192 1.279 . S
C191 C194 1.358 . S
C191 H248 0.930 . S
N192 C191 1.279 . S
N192 C195 1.314 1_455 S
C193 C190 1.348 1_655 S
C193 C195 1.353 . S
C193 H249 0.929 . S
C194 C190 1.356 . S
C194 C191 1.358 . S
C194 H250 0.930 . S
C195 N192 1.314 1_655 S
C195 C193 1.353 . S
C195 H251 0.930 . S
C196 N197 1.314 1_565 S
C196 C201 1.353 . S
C196 H202 0.930 . S
N197 Li180 1.990 . S
N197 C196 1.314 1_545 S
N197 C199 1.279 . S
C198 C199 1.358 . S
C198 C200 1.356 . S
C198 H252 0.930 . S
C199 N197 1.279 . S
C199 C198 1.358 . S
C199 H203 0.930 . S
C200 C198 1.356 . S
C200 C201 1.348 1_545 S
C201 C196 1.353 . S
C201 C200 1.348 1_565 S
C201 H253 0.929 . S
H202 C196 0.930 . S
H203 C199 0.930 . S
C204 N205 1.314 1_545 S
C204 C206 1.353 . S
C204 H210 0.930 . S
N205 Li181 1.990 . S
N205 C204 1.314 1_565 S
N205 C208 1.279 . S
C206 C204 1.353 . S
C206 C209 1.348 . S
C206 H254 0.929 . S
C207 C208 1.358 . S
C207 C209 1.356 1_565 S
C207 H255 0.930 . S
C208 N205 1.279 . S
C208 C207 1.358 . S
C208 H211 0.930 . S
C209 C206 1.348 . S
C209 C207 1.356 1_545 S
H210 C204 0.930 . S
H211 C208 0.930 . S
C212 C214 1.348 1_545 S
C212 C215 1.356 . S
C212 O242 1.325 1_545 S
N213 C216 1.314 1_545 S
N213 C217 1.279 . S
C214 C212 1.348 1_565 S
C214 C216 1.353 . S
C214 H256 0.929 . S
C215 C212 1.356 . S
C215 C217 1.358 . S
C215 H257 0.930 . S
C216 N213 1.314 1_565 S
C216 C214 1.353 . S
C216 H258 0.930 . S
C217 N213 1.279 . S
C217 C215 1.358 . S
C217 H259 0.930 . S
C218 C219 1.348 . S
C218 C220 1.356 1_545 S
C218 O243 1.325 . S
C219 C218 1.348 . S
C219 C221 1.353 . S
C219 H260 0.929 . S
C220 C218 1.356 1_565 S
C220 C222 1.358 . S
C220 H261 0.930 . S
C221 C219 1.353 . S
C221 N223 1.314 1_545 S
C221 H262 0.930 . S
C222 C220 1.358 . S
C222 N223 1.279 . S
C222 H263 0.930 . S
N223 C221 1.314 1_565 S
N223 C222 1.279 . S
C224 C226 1.353 . S
C224 N227 1.314 1_455 S
C224 H230 0.930 . S
C225 N227 1.279 . S
C225 C228 1.358 . S
C225 H231 0.930 . S
C226 C224 1.353 . S
C226 C229 1.348 . S
C226 H264 0.929 . S
N227 Li182 1.990 . S
N227 C224 1.314 1_655 S
N227 C225 1.279 . S
C228 C225 1.358 . S
C228 C229 1.356 1_655 S
C228 H265 0.930 . S
C229 C226 1.348 . S
C229 C228 1.356 1_455 S
H230 C224 0.930 . S
H231 C225 0.930 . S
C232 N233 1.314 1_655 S
C232 C234 1.353 . S
C232 H238 0.930 . S
N233 Li183 1.990 . S
N233 C232 1.314 1_455 S
N233 C236 1.279 . S
C234 C232 1.353 . S
C234 C237 1.348 1_655 S
C234 H266 0.929 . S
C235 C236 1.358 . S
C235 C237 1.356 . S
C235 H267 0.930 . S
C236 N233 1.279 . S
C236 C235 1.358 . S
C236 H239 0.930 . S
C237 C234 1.348 1_455 S
C237 C235 1.356 . S
H238 C232 0.930 . S
H239 C236 0.930 . S
O240 Li180 1.956 1_455 S
O240 Li181 1.970 1_545 S
O240 Li182 1.961 1_455 S
O240 C184 1.325 . S
O241 Li180 1.970 1_565 S
O241 Li181 1.956 1_655 S
O241 Li183 1.961 1_655 S
O241 C190 1.325 1_655 S
O242 Li180 1.961 1_565 S
O242 Li182 1.956 1_565 S
O242 Li183 1.970 1_655 S
O242 C212 1.325 1_565 S
O243 Li181 1.961 1_545 S
O243 Li182 1.970 1_455 S
O243 Li183 1.956 1_545 S
O243 C218 1.325 . S
H244 C186 0.929 . S
H245 C187 0.930 . S
H246 C188 0.930 . S
H247 C189 0.930 . S
H248 C191 0.930 . S
H249 C193 0.929 . S
H250 C194 0.930 . S
H251 C195 0.930 . S
H252 C198 0.930 . S
H253 C201 0.929 . S
H254 C206 0.929 . S
H255 C207 0.930 . S
H256 C214 0.929 . S
H257 C215 0.930 . S
H258 C216 0.930 . S
H259 C217 0.930 . S
H260 C219 0.929 . S
H261 C220 0.930 . S
H262 C221 0.930 . S
H263 C222 0.930 . S
H264 C226 0.929 . S
H265 C228 0.930 . S
H266 C234 0.929 . S
H267 C235 0.930 . S
H268 C276 0.950 . S
H269 C281 0.950 . S
H270 C278 0.950 . S
H271 C280 0.950 . S
H272 C282 0.950 . S
H273 C284 0.950 . S
H274 C286 0.950 . S
H275 C287 0.950 . S
C276 H268 0.950 . S
C276 C277 1.402 . S
C276 C278 1.391 . S
C277 C276 1.402 . S
C277 C281 1.377 1_565 S
C278 H270 0.950 . S
C278 C276 1.391 . S
C278 C279 1.413 . S
C279 C278 1.413 . S
C279 C280 1.386 1_565 S
C279 C285 1.490 1_565 S
C280 H271 0.950 . S
C280 C279 1.386 1_545 S
C280 C281 1.391 . S
C281 H269 0.950 . S
C281 C277 1.377 1_545 S
C281 C280 1.391 . S
C282 H272 0.950 . S
C282 C283 1.389 . S
C282 C284 1.391 . S
C283 C282 1.389 . S
C283 C287 1.390 1_545 S
C284 H273 0.950 . S
C284 C282 1.391 . S
C284 C285 1.400 . S
C285 C279 1.490 1_545 S
C285 C284 1.400 . S
C285 C286 1.398 1_545 S
C286 H274 0.950 . S
C286 C285 1.398 1_565 S
C286 C287 1.391 . S
C287 H275 0.950 . S
C287 C283 1.390 1_565 S
C287 C286 1.391 . S
H288 C296 0.950 . S
H289 C301 0.950 . S
H290 C298 0.950 . S
H291 C300 0.950 . S
H292 C302 0.950 . S
H293 C304 0.950 . S
H294 C306 0.950 . S
H295 C307 0.950 . S
C296 H288 0.950 . S
C296 C297 1.387 1_655 S
C296 C298 1.391 . S
C297 C296 1.387 1_455 S
C297 C301 1.391 . S
C298 H290 0.950 . S
C298 C296 1.391 . S
C298 C299 1.392 1_655 S
C299 C298 1.392 1_455 S
C299 C300 1.406 . S
C299 C305 1.491 . S
C300 H291 0.950 . S
C300 C299 1.406 . S
C300 C301 1.391 . S
C301 H289 0.950 . S
C301 C297 1.391 . S
C301 C300 1.391 . S
C302 H292 0.950 . S
C302 C303 1.413 . S
C302 C304 1.391 . S
C303 C302 1.413 . S
C303 C307 1.366 1_455 S
C304 H293 0.950 . S
C304 C302 1.391 . S
C304 C305 1.418 . S
C305 C299 1.491 . S
C305 C304 1.418 . S
C305 C306 1.381 1_455 S
C306 H294 0.950 . S
C306 C305 1.381 1_655 S
C306 C307 1.391 . S
C307 H295 0.950 . S
C307 C303 1.366 1_655 S
C307 C306 1.391 . S
H308 C316 0.950 . S
H309 C321 0.950 . S
H310 C318 0.950 . S
H311 C320 0.950 . S
H312 C322 0.950 1_565 S
H313 C324 0.951 . S
H314 C326 0.950 . S
H315 C327 0.950 . S
C316 H308 0.950 . S
C316 C317 1.386 1_545 S
C316 C318 1.391 . S
C317 C316 1.386 1_565 S
C317 C321 1.393 . S
C318 H310 0.950 . S
C318 C316 1.391 . S
C318 C319 1.400 1_545 S
C319 C318 1.400 1_565 S
C319 C320 1.399 . S
C319 C325 1.490 1_565 S
C320 H311 0.950 . S
C320 C319 1.399 . S
C320 C321 1.391 . S
C321 H309 0.950 . S
C321 C317 1.393 . S
C321 C320 1.391 . S
C322 H312 0.950 1_545 S
C322 C323 1.385 . S
C322 C324 1.391 1_545 S
C323 C322 1.385 . S
C323 C327 1.393 . S
C324 H313 0.951 . S
C324 C322 1.391 1_565 S
C324 C325 1.399 1_565 S
C325 C319 1.490 1_545 S
C325 C324 1.399 1_545 S
C325 C326 1.398 . S
C326 H314 0.950 . S
C326 C325 1.398 . S
C326 C327 1.391 . S
C327 H315 0.950 . S
C327 C323 1.393 . S
C327 C326 1.391 . S
H328 C336 0.950 . S
H329 C341 0.950 . S
H330 C338 0.950 . S
H331 C340 0.950 . S
H332 C342 0.950 . S
H333 C344 0.950 . S
H334 C346 0.950 . S
H335 C347 0.950 . S
C336 H328 0.950 . S
C336 C337 1.394 . S
C336 C338 1.391 . S
C337 C336 1.394 . S
C337 C341 1.384 1_655 S
C338 H330 0.950 . S
C338 C336 1.391 . S
C338 C339 1.411 . S
C339 C338 1.411 . S
C339 C340 1.388 1_655 S
C339 C345 1.491 . S
C340 H331 0.950 . S
C340 C339 1.388 1_455 S
C340 C341 1.391 . S
C341 H329 0.950 . S
C341 C337 1.384 1_455 S
C341 C340 1.391 . S
C342 H332 0.950 . S
C342 C343 1.381 1_455 S
C342 C344 1.391 . S
C343 C342 1.381 1_655 S
C343 C347 1.397 . S
C344 H333 0.950 . S
C344 C342 1.391 . S
C344 C345 1.398 1_455 S
C345 C339 1.491 . S
C345 C344 1.398 1_655 S
C345 C346 1.400 . S
C346 H334 0.950 . S
C346 C345 1.400 . S
C346 C347 1.391 . S
C347 H335 0.950 . S
C347 C343 1.397 . S
C347 C346 1.391 . S
H348 C356 0.950 . S
H349 C361 0.950 . S
H350 C358 0.950 . S
H351 C360 0.950 . S
H352 C362 0.950 . S
H353 C364 0.950 . S
H354 C366 0.950 . S
H355 C367 0.950 . S
C356 H348 0.950 . S
C356 C357 1.386 1_565 S
C356 C358 1.391 . S
C357 C356 1.386 1_545 S
C357 C361 1.393 . S
C358 H350 0.950 . S
C358 C356 1.391 . S
C358 C359 1.400 1_565 S
C359 C358 1.400 1_545 S
C359 C360 1.398 . S
C359 C365 1.491 1_545 S
C360 H351 0.950 . S
C360 C359 1.398 . S
C360 C361 1.391 . S
C361 H349 0.950 . S
C361 C357 1.393 . S
C361 C360 1.391 . S
C362 H352 0.950 . S
C362 C363 1.382 1_545 S
C362 C364 1.391 . S
C363 C362 1.382 1_565 S
C363 C367 1.397 . S
C364 H353 0.950 . S
C364 C362 1.391 . S
C364 C365 1.402 1_545 S
C365 C359 1.491 1_565 S
C365 C364 1.402 1_565 S
C365 C366 1.396 . S
C366 H354 0.950 . S
C366 C365 1.396 . S
C366 C367 1.391 . S
C367 H355 0.950 . S
C367 C363 1.397 . S
C367 C366 1.391 . S
H368 C376 0.950 . S
H369 C381 0.950 . S
H370 C378 0.950 . S
H371 C380 0.950 . S
H372 C382 0.950 . S
H373 C384 0.950 . S
H374 C386 0.950 . S
H375 C387 0.950 . S
C376 H368 0.950 . S
C376 C377 1.389 . S
C376 C378 1.391 . S
C377 C376 1.389 . S
C377 C381 1.390 1_655 S
C378 H370 0.950 . S
C378 C376 1.391 . S
C378 C379 1.409 . S
C379 C378 1.409 . S
C379 C380 1.390 1_655 S
C379 C385 1.491 . S
C380 H371 0.950 . S
C380 C379 1.390 1_455 S
C380 C381 1.391 . S
C381 H369 0.950 . S
C381 C377 1.390 1_455 S
C381 C380 1.391 . S
C382 H372 0.950 . S
C382 C383 1.375 1_455 S
C382 C384 1.391 . S
C383 C382 1.375 1_655 S
C383 C387 1.403 . S
C384 H373 0.950 . S
C384 C382 1.391 . S
C384 C385 1.395 1_455 S
C385 C379 1.491 . S
C385 C384 1.395 1_655 S
C385 C386 1.403 . S
C386 H374 0.950 . S
C386 C385 1.403 . S
C386 C387 1.391 . S
C387 H375 0.950 . S
C387 C383 1.403 . S
C387 C386 1.391 . S
H388 C396 0.950 . S
H389 C401 0.950 . S
H390 C398 0.950 . S
H391 C400 0.950 . S
H392 C402 0.950 . S
H393 C404 0.950 . S
H394 C406 0.950 . S
H395 C407 0.950 . S
C396 H388 0.950 . S
C396 C397 1.386 . S
C396 C398 1.391 . S
C397 C396 1.386 . S
C397 C401 1.393 1_545 S
C398 H390 0.950 . S
C398 C396 1.391 . S
C398 C399 1.403 . S
C399 C398 1.403 . S
C399 C400 1.396 1_545 S
C399 C405 1.490 1_545 S
C400 H391 0.950 . S
C400 C399 1.396 1_565 S
C400 C401 1.391 . S
C401 H389 0.950 . S
C401 C397 1.393 1_565 S
C401 C400 1.391 . S
C402 H392 0.950 . S
C402 C403 1.386 . S
C402 C404 1.391 . S
C403 C402 1.386 . S
C403 C407 1.393 1_565 S
C404 H393 0.950 . S
C404 C402 1.391 . S
C404 C405 1.400 . S
C405 C399 1.490 1_565 S
C405 C404 1.400 . S
C405 C406 1.398 1_565 S
C406 H394 0.950 . S
C406 C405 1.398 1_545 S
C406 C407 1.391 . S
C407 H395 0.950 . S
C407 C403 1.393 1_545 S
C407 C406 1.391 . S
H408 C416 0.950 . S
H409 C421 0.950 . S
H410 C418 0.950 . S
H411 C420 0.950 . S
H412 C422 0.950 . S
H413 C424 0.950 . S
H414 C426 0.950 . S
H415 C427 0.950 . S
C416 H408 0.950 . S
C416 C417 1.377 1_655 S
C416 C418 1.391 . S
C417 C416 1.377 1_455 S
C417 C421 1.402 . S
C418 H410 0.950 . S
C418 C416 1.391 . S
C418 C419 1.387 1_655 S
C419 C418 1.387 1_455 S
C419 C420 1.412 . S
C419 C425 1.491 . S
C420 H411 0.950 . S
C420 C419 1.412 . S
C420 C421 1.391 . S
C421 H409 0.950 . S
C421 C417 1.402 . S
C421 C420 1.391 . S
C422 H412 0.950 . S
C422 C423 1.404 . S
C422 C424 1.391 . S
C423 C422 1.404 . S
C423 C427 1.375 1_455 S
C424 H413 0.950 . S
C424 C422 1.391 . S
C424 C425 1.413 . S
C425 C419 1.491 . S
C425 C424 1.413 . S
C425 C426 1.386 1_455 S
C426 H414 0.950 . S
C426 C425 1.386 1_655 S
C426 C427 1.391 . S
C427 H415 0.950 . S
C427 C423 1.375 1_655 S
C427 C426 1.391 . S
C283 C141 1.490 . S
C277 C15 1.486 1_565 S
C303 C229 1.491 . S
C297 C68 1.486 1_455 S
C323 C149 1.492 . S
C317 C8 1.489 1_565 S
C343 C237 1.490 1_655 S
C337 C47 1.493 . S
C363 C209 1.490 1_565 S
C357 C22 1.490 1_545 S
C383 C112 1.491 1_655 S
C377 C61 1.490 1_655 S
C403 C200 1.492 1_565 S
C397 C1 1.494 1_545 S
C417 C54 1.488 . S
C423 C121 1.493 . S
