# Generated by pormake.
# Topology eea, (3,6)-cn, num edge types: 1
# Building blocks:
#     Node 0, Type 0, BuildingBlock: BETDIP_clean_linker_0, # of connection points: 3
#     Node 1, Type 0, BuildingBlock: BETDIP_clean_linker_0, # of connection points: 3
#     Node 2, Type 0, BuildingBlock: BETDIP_clean_linker_0, # of connection points: 3
#     Node 3, Type 0, BuildingBlock: BETDIP_clean_linker_0, # of connection points: 3
#     Node 4, Type 0, BuildingBlock: BETDIP_clean_linker_0, # of connection points: 3
#     Node 5, Type 0, BuildingBlock: BETDIP_clean_linker_0, # of connection points: 3
#     Node 6, Type 0, BuildingBlock: BETDIP_clean_linker_0, # of connection points: 3
#     Node 7, Type 0, BuildingBlock: BETDIP_clean_linker_0, # of connection points: 3
#     Node 8, Type 0, BuildingBlock: BETDIP_clean_linker_0, # of connection points: 3
#     Node 9, Type 0, BuildingBlock: BETDIP_clean_linker_0, # of connection points: 3
#     Node 10, Type 0, BuildingBlock: BETDIP_clean_linker_0, # of connection points: 3
#     Node 11, Type 0, BuildingBlock: BETDIP_clean_linker_0, # of connection points: 3
#     Node 12, Type 0, BuildingBlock: BETDIP_clean_linker_0, # of connection points: 3
#     Node 13, Type 0, BuildingBlock: BETDIP_clean_linker_0, # of connection points: 3
#     Node 14, Type 0, BuildingBlock: BETDIP_clean_linker_0, # of connection points: 3
#     Node 15, Type 0, BuildingBlock: BETDIP_clean_linker_0, # of connection points: 3
#     Node 16, Type 0, BuildingBlock: BETDIP_clean_linker_0, # of connection points: 3
#     Node 17, Type 0, BuildingBlock: BETDIP_clean_linker_0, # of connection points: 3
#     Node 18, Type 1, BuildingBlock: CUKXOW_clean_sbu_0, # of connection points: 6
#     Node 19, Type 1, BuildingBlock: CUKXOW_clean_sbu_0, # of connection points: 6
#     Node 20, Type 1, BuildingBlock: CUKXOW_clean_sbu_0, # of connection points: 6
#     Node 21, Type 1, BuildingBlock: CUKXOW_clean_sbu_0, # of connection points: 6
#     Node 22, Type 1, BuildingBlock: CUKXOW_clean_sbu_0, # of connection points: 6
#     Node 23, Type 1, BuildingBlock: CUKXOW_clean_sbu_0, # of connection points: 6
#     Node 24, Type 1, BuildingBlock: CUKXOW_clean_sbu_0, # of connection points: 6
#     Node 25, Type 1, BuildingBlock: CUKXOW_clean_sbu_0, # of connection points: 6
#     Node 26, Type 1, BuildingBlock: CUKXOW_clean_sbu_0, # of connection points: 6
#     Edge 27, Type (0, 1), BuildingBlock: KIFKEQ_clean_linker_1, # of connection points: 2
#     Edge 28, Type (0, 1), BuildingBlock: KIFKEQ_clean_linker_1, # of connection points: 2
#     Edge 29, Type (0, 1), BuildingBlock: KIFKEQ_clean_linker_1, # of connection points: 2
#     Edge 30, Type (0, 1), BuildingBlock: KIFKEQ_clean_linker_1, # of connection points: 2
#     Edge 31, Type (0, 1), BuildingBlock: KIFKEQ_clean_linker_1, # of connection points: 2
#     Edge 32, Type (0, 1), BuildingBlock: KIFKEQ_clean_linker_1, # of connection points: 2
#     Edge 33, Type (0, 1), BuildingBlock: KIFKEQ_clean_linker_1, # of connection points: 2
#     Edge 34, Type (0, 1), BuildingBlock: KIFKEQ_clean_linker_1, # of connection points: 2
#     Edge 35, Type (0, 1), BuildingBlock: KIFKEQ_clean_linker_1, # of connection points: 2
#     Edge 36, Type (0, 1), BuildingBlock: KIFKEQ_clean_linker_1, # of connection points: 2
#     Edge 37, Type (0, 1), BuildingBlock: KIFKEQ_clean_linker_1, # of connection points: 2
#     Edge 38, Type (0, 1), BuildingBlock: KIFKEQ_clean_linker_1, # of connection points: 2
#     Edge 39, Type (0, 1), BuildingBlock: KIFKEQ_clean_linker_1, # of connection points: 2
#     Edge 40, Type (0, 1), BuildingBlock: KIFKEQ_clean_linker_1, # of connection points: 2
#     Edge 41, Type (0, 1), BuildingBlock: KIFKEQ_clean_linker_1, # of connection points: 2
#     Edge 42, Type (0, 1), BuildingBlock: KIFKEQ_clean_linker_1, # of connection points: 2
#     Edge 43, Type (0, 1), BuildingBlock: KIFKEQ_clean_linker_1, # of connection points: 2
#     Edge 44, Type (0, 1), BuildingBlock: KIFKEQ_clean_linker_1, # of connection points: 2
#     Edge 45, Type (0, 1), BuildingBlock: KIFKEQ_clean_linker_1, # of connection points: 2
#     Edge 46, Type (0, 1), BuildingBlock: KIFKEQ_clean_linker_1, # of connection points: 2
#     Edge 47, Type (0, 1), BuildingBlock: KIFKEQ_clean_linker_1, # of connection points: 2
#     Edge 48, Type (0, 1), BuildingBlock: KIFKEQ_clean_linker_1, # of connection points: 2
#     Edge 49, Type (0, 1), BuildingBlock: KIFKEQ_clean_linker_1, # of connection points: 2
#     Edge 50, Type (0, 1), BuildingBlock: KIFKEQ_clean_linker_1, # of connection points: 2
#     Edge 51, Type (0, 1), BuildingBlock: KIFKEQ_clean_linker_1, # of connection points: 2
#     Edge 52, Type (0, 1), BuildingBlock: KIFKEQ_clean_linker_1, # of connection points: 2
#     Edge 53, Type (0, 1), BuildingBlock: KIFKEQ_clean_linker_1, # of connection points: 2
#     Edge 54, Type (0, 1), BuildingBlock: KIFKEQ_clean_linker_1, # of connection points: 2
#     Edge 55, Type (0, 1), BuildingBlock: KIFKEQ_clean_linker_1, # of connection points: 2
#     Edge 56, Type (0, 1), BuildingBlock: KIFKEQ_clean_linker_1, # of connection points: 2
#     Edge 57, Type (0, 1), BuildingBlock: KIFKEQ_clean_linker_1, # of connection points: 2
#     Edge 58, Type (0, 1), BuildingBlock: KIFKEQ_clean_linker_1, # of connection points: 2
#     Edge 59, Type (0, 1), BuildingBlock: KIFKEQ_clean_linker_1, # of connection points: 2
#     Edge 60, Type (0, 1), BuildingBlock: KIFKEQ_clean_linker_1, # of connection points: 2
#     Edge 61, Type (0, 1), BuildingBlock: KIFKEQ_clean_linker_1, # of connection points: 2
#     Edge 62, Type (0, 1), BuildingBlock: KIFKEQ_clean_linker_1, # of connection points: 2
#     Edge 63, Type (0, 1), BuildingBlock: KIFKEQ_clean_linker_1, # of connection points: 2
#     Edge 64, Type (0, 1), BuildingBlock: KIFKEQ_clean_linker_1, # of connection points: 2
#     Edge 65, Type (0, 1), BuildingBlock: KIFKEQ_clean_linker_1, # of connection points: 2
#     Edge 66, Type (0, 1), BuildingBlock: KIFKEQ_clean_linker_1, # of connection points: 2
#     Edge 67, Type (0, 1), BuildingBlock: KIFKEQ_clean_linker_1, # of connection points: 2
#     Edge 68, Type (0, 1), BuildingBlock: KIFKEQ_clean_linker_1, # of connection points: 2
#     Edge 69, Type (0, 1), BuildingBlock: KIFKEQ_clean_linker_1, # of connection points: 2
#     Edge 70, Type (0, 1), BuildingBlock: KIFKEQ_clean_linker_1, # of connection points: 2
#     Edge 71, Type (0, 1), BuildingBlock: KIFKEQ_clean_linker_1, # of connection points: 2
#     Edge 72, Type (0, 1), BuildingBlock: KIFKEQ_clean_linker_1, # of connection points: 2
#     Edge 73, Type (0, 1), BuildingBlock: KIFKEQ_clean_linker_1, # of connection points: 2
#     Edge 74, Type (0, 1), BuildingBlock: KIFKEQ_clean_linker_1, # of connection points: 2
#     Edge 75, Type (0, 1), BuildingBlock: KIFKEQ_clean_linker_1, # of connection points: 2
#     Edge 76, Type (0, 1), BuildingBlock: KIFKEQ_clean_linker_1, # of connection points: 2
#     Edge 77, Type (0, 1), BuildingBlock: KIFKEQ_clean_linker_1, # of connection points: 2
#     Edge 78, Type (0, 1), BuildingBlock: KIFKEQ_clean_linker_1, # of connection points: 2
#     Edge 79, Type (0, 1), BuildingBlock: KIFKEQ_clean_linker_1, # of connection points: 2
#     Edge 80, Type (0, 1), BuildingBlock: KIFKEQ_clean_linker_1, # of connection points: 2
# Relax obj value: 0.035
# Max RMSD: 0.161
# Mean RMSD: 0.094
data_MOF--net-eea--node1-CUKXOW_clean_sbu_0--node2-BETDIP_clean_linker_0--edge1-KIFKEQ_clean_linker_1
_symmetry_space_group_name_H-M    P1
_symmetry_Int_Tables_number       1
_symmetry_cell_setting            triclinic
loop_
_symmetry_equiv_pos_as_xyz
'x, y, z'
_cell_length_a     61.122211
_cell_length_b     57.454204
_cell_length_c     51.38551
_cell_angle_alpha  93.193255
_cell_angle_beta   93.344822
_cell_angle_gamma 119.94146
loop_
_atom_site_label
_atom_site_type_symbol
_atom_site_fract_x
_atom_site_fract_y
_atom_site_fract_z
_atom_type_partial_charge
H0 H 0.21673 0.09957 0.38149 0.0
H1 H 0.252 0.15833 0.4484 0.0
H2 H 0.25267 0.08379 0.44712 0.0
H3 H 0.2153 0.16116 0.43766 0.0
C4 C 0.21734 0.16328 0.41691 0.0
C5 C 0.22709 0.10571 0.40079 0.0
C6 C 0.23467 0.08898 0.41249 0.0
C7 C 0.23255 0.13029 0.41405 0.0
C8 C 0.24662 0.13871 0.43881 0.0
C9 C 0.25433 0.12226 0.45089 0.0
C10 C 0.2479 0.09727 0.43763 0.0
N11 N 0.2239 0.14639 0.40212 0.0
H12 H 0.9042 0.11976 0.39199 0.0
H13 H 0.85349 0.10848 0.45089 0.0
H14 H 0.92349 0.18328 0.45324 0.0
H15 H 0.8414 0.06588 0.44261 0.0
C16 C 0.84214 0.0628 0.42172 0.0
C17 C 0.89978 0.12739 0.40947 0.0
C18 C 0.91652 0.15385 0.42098 0.0
C19 C 0.87726 0.11057 0.42039 0.0
C20 C 0.87109 0.12077 0.44257 0.0
C21 C 0.88777 0.14685 0.45462 0.0
C22 C 0.91047 0.16322 0.44379 0.0
N23 N 0.86111 0.08366 0.40863 0.0
H24 H 0.88289 0.77304 0.39514 0.0
H25 H 0.90561 0.74242 0.45939 0.0
H26 H 0.83193 0.73476 0.45354 0.0
H27 H 0.9444 0.7786 0.45388 0.0
C28 C 0.94416 0.77718 0.43268 0.0
C29 C 0.87866 0.76305 0.41297 0.0
C30 C 0.8548 0.75378 0.42237 0.0
C31 C 0.89735 0.75979 0.42662 0.0
C32 C 0.89176 0.74618 0.44941 0.0
C33 C 0.86802 0.73671 0.45905 0.0
C34 C 0.84983 0.74087 0.44553 0.0
N35 N 0.92144 0.76999 0.41679 0.0
H36 H 0.10191 0.24012 0.62215 0.0
H37 H 0.15436 0.28016 0.56583 0.0
H38 H 0.0898 0.29039 0.57077 0.0
H39 H 0.15763 0.24207 0.56764 0.0
C40 C 0.15948 0.24143 0.58871 0.0
C41 C 0.10781 0.2537 0.6069 0.0
C42 C 0.09272 0.26435 0.59785 0.0
C43 C 0.12993 0.25916 0.5954 0.0
C44 C 0.13739 0.27596 0.57491 0.0
C45 C 0.12273 0.28691 0.56561 0.0
C46 C 0.10074 0.28139 0.57753 0.0
N47 N 0.14417 0.24727 0.60457 0.0
H48 H 0.78897 0.87585 0.64437 0.0
H49 H 0.75476 0.89561 0.58031 0.0
H50 H 0.7535 0.82007 0.57508 0.0
H51 H 0.74731 0.91752 0.61489 0.0
C52 C 0.76616 0.92776 0.62541 0.0
C53 C 0.77855 0.87039 0.62513 0.0
C54 C 0.77213 0.8458 0.61093 0.0
C55 C 0.77186 0.88821 0.61449 0.0
C56 C 0.75893 0.88143 0.58919 0.0
C57 C 0.75229 0.85693 0.57473 0.0
C58 C 0.75893 0.83924 0.58584 0.0
N59 N 0.77922 0.91329 0.62903 0.0
H60 H 0.13427 0.91324 0.62956 0.0
H61 H 0.11367 0.85403 0.56378 0.0
H62 H 0.1848 0.92815 0.56962 0.0
H63 H 0.07469 0.84232 0.57159 0.0
C64 C 0.07502 0.84509 0.5927 0.0
C65 C 0.13865 0.90694 0.61126 0.0
C66 C 0.16209 0.92349 0.6016 0.0
C67 C 0.12069 0.88219 0.59744 0.0
C68 C 0.12664 0.87364 0.57401 0.0
C69 C 0.14977 0.89006 0.56388 0.0
C70 C 0.16727 0.91496 0.57776 0.0
N71 N 0.09706 0.86619 0.60775 0.0
H72 H 0.88878 0.43494 0.70974 0.0
H73 H 0.92105 0.48966 0.77995 0.0
H74 H 0.92248 0.41566 0.7748 0.0
H75 H 0.92716 0.52011 0.75054 0.0
C76 C 0.90917 0.50997 0.73836 0.0
C77 C 0.89835 0.43993 0.72938 0.0
C78 C 0.90539 0.4224 0.74031 0.0
C79 C 0.90425 0.4644 0.7433 0.0
C80 C 0.9168 0.4711 0.76882 0.0
C81 C 0.92385 0.45381 0.78015 0.0
C82 C 0.91792 0.42951 0.76577 0.0
N83 N 0.89697 0.48165 0.73139 0.0
H84 H 0.57485 0.46244 0.72937 0.0
H85 H 0.52295 0.45037 0.78699 0.0
H86 H 0.59292 0.5258 0.79045 0.0
H87 H 0.52033 0.4077 0.78183 0.0
C88 C 0.51644 0.40469 0.76062 0.0
C89 C 0.57006 0.47006 0.74658 0.0
C90 C 0.58679 0.49639 0.75847 0.0
C91 C 0.54731 0.45319 0.75709 0.0
C92 C 0.5407 0.46314 0.77903 0.0
C93 C 0.557 0.48932 0.79108 0.0
C94 C 0.58009 0.50576 0.78084 0.0
N95 N 0.53135 0.42622 0.74554 0.0
H96 H 0.54591 0.10519 0.72492 0.0
H97 H 0.56558 0.06639 0.78369 0.0
H98 H 0.50009 0.07479 0.78888 0.0
H99 H 0.58536 0.05868 0.75152 0.0
C100 C 0.59328 0.07726 0.74207 0.0
C101 C 0.54178 0.09475 0.74248 0.0
C102 C 0.52105 0.09124 0.7558 0.0
C103 C 0.55765 0.08534 0.75198 0.0
C104 C 0.55284 0.07256 0.77531 0.0
C105 C 0.53226 0.069 0.78882 0.0
C106 C 0.51635 0.07811 0.77878 0.0
N107 N 0.57915 0.09059 0.7386 0.0
H108 H 0.76594 0.55771 0.94683 0.0
H109 H 0.81923 0.59812 0.89117 0.0
H110 H 0.75175 0.60363 0.89163 0.0
H111 H 0.82219 0.55939 0.89325 0.0
C112 C 0.82416 0.55934 0.91441 0.0
C113 C 0.77164 0.57047 0.93089 0.0
C114 C 0.75601 0.57991 0.92056 0.0
C115 C 0.79406 0.57631 0.91994 0.0
C116 C 0.8016 0.59293 0.89934 0.0
C117 C 0.78637 0.60275 0.88899 0.0
C118 C 0.76348 0.59594 0.8995 0.0
N119 N 0.80871 0.56525 0.92992 0.0
H120 H 0.46603 0.21544 0.96899 0.0
H121 H 0.43626 0.23616 0.90228 0.0
H122 H 0.42844 0.15774 0.90088 0.0
H123 H 0.46891 0.27705 0.91449 0.0
C124 C 0.46923 0.27864 0.93568 0.0
C125 C 0.45641 0.20993 0.94936 0.0
C126 C 0.44733 0.18382 0.93679 0.0
C127 C 0.45344 0.22928 0.93669 0.0
C128 C 0.44015 0.22203 0.91164 0.0
C129 C 0.4312 0.19638 0.89853 0.0
C130 C 0.43476 0.17731 0.91124 0.0
N131 N 0.46376 0.25582 0.94948 0.0
H132 H 0.80403 0.23796 0.97111 0.0
H133 H 0.77798 0.18022 0.90309 0.0
H134 H 0.84933 0.2539 0.90612 0.0
H135 H 0.75792 0.15099 0.93362 0.0
C136 C 0.75078 0.16195 0.94482 0.0
C137 C 0.80697 0.23193 0.95187 0.0
C138 C 0.82919 0.2489 0.94038 0.0
C139 C 0.7887 0.20679 0.93894 0.0
C140 C 0.79239 0.19896 0.91385 0.0
C141 C 0.81418 0.21598 0.90189 0.0
C142 C 0.8325 0.24074 0.91536 0.0
N143 N 0.76634 0.19032 0.9511 0.0
H144 H 0.55858 0.76932 0.04412 0.0
H145 H 0.5901 0.82665 0.11265 0.0
H146 H 0.59025 0.752 0.1123 0.0
H147 H 0.55353 0.82853 0.09916 0.0
C148 C 0.55665 0.8315 0.0787 0.0
C149 C 0.56825 0.77532 0.06376 0.0
C150 C 0.57383 0.75767 0.07665 0.0
C151 C 0.57343 0.79991 0.07686 0.0
C152 C 0.58568 0.80754 0.10252 0.0
C153 C 0.59166 0.79027 0.11546 0.0
C154 C 0.58565 0.76542 0.10239 0.0
N155 N 0.56518 0.81611 0.06443 0.0
H156 H 0.24478 0.78872 0.05951 0.0
H157 H 0.19418 0.77231 0.11917 0.0
H158 H 0.25875 0.85168 0.11933 0.0
H159 H 0.18785 0.73105 0.11206 0.0
C160 C 0.18676 0.72828 0.09084 0.0
C161 C 0.23972 0.79562 0.07698 0.0
C162 C 0.2547 0.82263 0.08802 0.0
C163 C 0.21817 0.77722 0.08836 0.0
C164 C 0.21101 0.78622 0.11052 0.0
C165 C 0.2254 0.81303 0.12185 0.0
C166 C 0.24734 0.83107 0.11053 0.0
N167 N 0.20362 0.74995 0.07691 0.0
H168 H 0.22129 0.44272 0.06486 0.0
H169 H 0.23974 0.40912 0.12966 0.0
H170 H 0.1681 0.40594 0.12172 0.0
H171 H 0.27932 0.43955 0.12367 0.0
C172 C 0.2794 0.43997 0.10258 0.0
C173 C 0.2162 0.43255 0.08255 0.0
C174 C 0.19229 0.42435 0.09131 0.0
C175 C 0.23372 0.42776 0.09655 0.0
C176 C 0.22696 0.41409 0.11925 0.0
C177 C 0.20325 0.40602 0.12836 0.0
C178 C 0.18611 0.41131 0.1143 0.0
N179 N 0.25773 0.43643 0.08705 0.0
H180 H 0.43673 0.90006 0.28815 0.0
H181 H 0.48779 0.93554 0.22936 0.0
H182 H 0.42089 0.94217 0.22992 0.0
H183 H 0.49114 0.89763 0.23462 0.0
C184 C 0.49387 0.89925 0.25588 0.0
C185 C 0.44194 0.91171 0.27139 0.0
C186 C 0.42594 0.9203 0.26024 0.0
C187 C 0.46401 0.91672 0.2601 0.0
C188 C 0.47066 0.93143 0.23807 0.0
C189 C 0.45508 0.94048 0.22691 0.0
C190 C 0.43284 0.93494 0.23822 0.0
N191 N 0.47902 0.90646 0.27098 0.0
H192 H 0.13408 0.5481 0.30157 0.0
H193 H 0.10049 0.56805 0.23732 0.0
H194 H 0.08501 0.48645 0.24022 0.0
H195 H 0.14028 0.60804 0.24664 0.0
C196 C 0.13838 0.61062 0.26735 0.0
C197 C 0.1219 0.54196 0.28335 0.0
C198 C 0.11003 0.51507 0.27224 0.0
C199 C 0.11855 0.56113 0.27081 0.0
C200 C 0.10294 0.55316 0.24707 0.0
C201 C 0.09062 0.52627 0.23573 0.0
C202 C 0.09421 0.50725 0.24862 0.0
N203 N 0.13069 0.58825 0.28243 0.0
H204 H 0.46613 0.56758 0.30224 0.0
H205 H 0.44268 0.51791 0.22867 0.0
H206 H 0.51542 0.58997 0.24033 0.0
H207 H 0.4044 0.50374 0.23945 0.0
C208 C 0.40489 0.50492 0.26063 0.0
C209 C 0.46995 0.56374 0.28262 0.0
C210 C 0.49339 0.58146 0.27348 0.0
C211 C 0.45121 0.54102 0.26653 0.0
C212 C 0.4564 0.53564 0.2412 0.0
C213 C 0.47945 0.5534 0.23163 0.0
C214 C 0.49771 0.57618 0.24785 0.0
N215 N 0.42748 0.52413 0.27641 0.0
Tb216 Tb 0.5253 0.02411 0.00969 0.0
C217 C 0.50718 0.96159 0.0116 0.0
Tb218 Tb 0.46774 0.98201 0.00596 0.0
O219 O 0.52532 0.03681 0.05083 0.0
O220 O 0.49931 0.99802 0.0343 0.0
O221 O 0.52574 0.98596 0.00726 0.0
C222 C 0.42033 0.95191 0.01873 0.0
O223 O 0.48385 0.95661 0.015 0.0
C224 C 0.48815 0.9923 0.96133 0.0
C225 C 0.48601 0.04469 0.00342 0.0
O226 O 0.42936 0.94684 0.99827 0.0
O227 O 0.43789 0.97421 0.03171 0.0
O228 O 0.46754 0.96992 0.96436 0.0
O229 O 0.49373 0.00806 0.9816 0.0
O230 O 0.46728 0.02028 0.00763 0.0
O231 O 0.50946 0.0497 0.00058 0.0
C232 C 0.57304 0.05308 0.99767 0.0
O233 O 0.56453 0.05734 0.01893 0.0
O234 O 0.55472 0.03242 0.98335 0.0
C235 C 0.505 0.01433 0.05423 0.0
Tb236 Tb 0.98768 0.50176 0.00643 0.0
C237 C 0.04546 0.54466 0.01783 0.0
Tb238 Tb 0.02576 0.48151 0.01066 0.0
O239 O 0.99546 0.51699 0.04796 0.0
O240 O 1.00098 0.48541 0.03505 0.0
O241 O 0.02279 0.54035 0.00884 0.0
C242 C 0.06118 0.46926 0.0249 0.0
O243 O 0.05001 0.52482 0.02225 0.0
C244 C 0.00755 0.48041 0.96297 0.0
C245 C 0.96784 0.43867 0.00136 0.0
O246 O 0.06201 0.48349 0.00585 0.0
O247 O 0.04042 0.4619 0.0359 0.0
O248 O 0.01551 0.46432 0.96989 0.0
O249 O 0.01256 0.49788 0.98184 0.0
O250 O 0.9905 0.44339 0.01096 0.0
O251 O 0.96348 0.45833 0.99546 0.0
C252 C 0.95301 0.51396 0.98895 0.0
O253 O 0.95152 0.50074 0.00909 0.0
O254 O 0.97398 0.52031 0.97879 0.0
C255 C 0.00494 0.50203 0.05431 0.0
Tb256 Tb 0.48946 0.50612 0.01108 0.0
C257 C 0.50692 0.46287 0.00435 0.0
Tb258 Tb 0.54658 0.52625 0.008 0.0
O259 O 0.48585 0.51939 0.97251 0.0
O260 O 0.51348 0.50966 0.98184 0.0
O261 O 0.48818 0.46748 0.00914 0.0
C262 C 0.59102 0.53764 0.99152 0.0
O263 O 0.53061 0.48244 0.00229 0.0
C264 C 0.53316 0.52908 0.05501 0.0
C265 C 0.52845 0.56849 0.0141 0.0
O266 O 0.58223 0.52578 0.01243 0.0
O267 O 0.57485 0.54311 0.98008 0.0
O268 O 0.55574 0.54509 0.0484 0.0
O269 O 0.52041 0.51126 0.03634 0.0
O270 O 0.54543 0.56339 0.00427 0.0
O271 O 0.50688 0.54926 0.02153 0.0
C272 C 0.44449 0.48913 0.02899 0.0
O273 O 0.46615 0.50758 0.04084 0.0
O274 O 0.44803 0.48003 0.00682 0.0
C275 C 0.50627 0.5203 0.96528 0.0
Tb276 Tb 0.18948 0.35815 0.3451 0.0
C277 C 0.17186 0.29634 0.34971 0.0
Tb278 Tb 0.13166 0.31642 0.34562 0.0
O279 O 0.19084 0.376 0.38494 0.0
O280 O 0.16435 0.33639 0.37231 0.0
O281 O 0.19057 0.32056 0.34504 0.0
C282 C 0.08637 0.28131 0.35971 0.0
O283 O 0.14816 0.29088 0.35189 0.0
C284 C 0.14668 0.33114 0.29968 0.0
C285 C 0.14946 0.3776 0.34132 0.0
O286 O 0.09666 0.27709 0.33987 0.0
O287 O 0.10156 0.30528 0.37148 0.0
O288 O 0.12353 0.32217 0.30524 0.0
O289 O 0.15917 0.32862 0.31853 0.0
O290 O 0.13224 0.35476 0.34992 0.0
O291 O 0.17196 0.38197 0.33542 0.0
C292 C 0.23561 0.3885 0.3296 0.0
O293 O 0.21435 0.38316 0.31702 0.0
O294 O 0.23097 0.37665 0.35113 0.0
C295 C 0.1707 0.35447 0.39064 0.0
Tb296 Tb 0.64937 0.83061 0.34627 0.0
C297 C 0.70791 0.87607 0.35 0.0
Tb298 Tb 0.68959 0.81389 0.34463 0.0
O299 O 0.64381 0.8216 0.38707 0.0
O300 O 0.67851 0.83318 0.3727 0.0
O301 O 0.68389 0.86989 0.3452 0.0
C302 C 0.72146 0.7961 0.35657 0.0
O303 O 0.71426 0.8574 0.35376 0.0
C304 C 0.67286 0.82092 0.29922 0.0
C305 C 0.63085 0.76849 0.34111 0.0
O306 O 0.72068 0.80718 0.33549 0.0
O307 O 0.7041 0.79476 0.37083 0.0
O308 O 0.69526 0.8239 0.304 0.0
O309 O 0.66049 0.81139 0.31837 0.0
O310 O 0.65485 0.77451 0.34628 0.0
O311 O 0.62481 0.7873 0.33695 0.0
C312 C 0.61912 0.84958 0.33159 0.0
O313 O 0.6176 0.83726 0.35243 0.0
O314 O 0.63772 0.85136 0.31924 0.0
C315 C 0.66606 0.82416 0.39196 0.0
Tb316 Tb 0.15469 0.83719 0.34341 0.0
C317 C 0.17357 0.79639 0.33198 0.0
Tb318 Tb 0.2121 0.86009 0.33967 0.0
O319 O 0.14521 0.82253 0.30155 0.0
O320 O 0.1808 0.855 0.31543 0.0
O321 O 0.15528 0.79953 0.34135 0.0
C322 C 0.258 0.87441 0.3253 0.0
O323 O 0.19579 0.81709 0.32749 0.0
C324 C 0.19898 0.85974 0.38717 0.0
C325 C 0.19296 0.90084 0.34943 0.0
O326 O 0.24767 0.85955 0.34409 0.0
O327 O 0.24252 0.88125 0.31464 0.0
O328 O 0.22133 0.87652 0.38061 0.0
O329 O 0.18621 0.84242 0.36804 0.0
O330 O 0.21086 0.89723 0.33977 0.0
O331 O 0.17099 0.88043 0.35502 0.0
C332 C 0.1095 0.82329 0.36 0.0
O333 O 0.11847 0.83667 0.33996 0.0
O334 O 0.1259 0.81767 0.37054 0.0
C335 C 0.16809 0.83868 0.29575 0.0
Tb336 Tb 0.86216 0.69524 0.67927 0.0
C337 C 0.84581 0.63351 0.68298 0.0
Tb338 Tb 0.80332 0.65033 0.67912 0.0
O339 O 0.86254 0.7117 0.71894 0.0
O340 O 0.83648 0.67181 0.70573 0.0
O341 O 0.86333 0.65777 0.67702 0.0
C342 C 0.75829 0.61778 0.69568 0.0
O343 O 0.82219 0.6272 0.68714 0.0
C344 C 0.81816 0.66066 0.63166 0.0
C345 C 0.82009 0.712 0.67296 0.0
O346 O 0.76839 0.61111 0.67721 0.0
O347 O 0.77358 0.6428 0.70479 0.0
O348 O 0.79499 0.64314 0.63564 0.0
O349 O 0.83025 0.66972 0.65374 0.0
O350 O 0.80224 0.68808 0.67941 0.0
O351 O 0.84379 0.71812 0.66999 0.0
C352 C 0.90817 0.72603 0.66389 0.0
O353 O 0.88679 0.71759 0.64991 0.0
O354 O 0.90379 0.71697 0.6868 0.0
C355 C 0.84209 0.69001 0.72392 0.0
Tb356 Tb 0.31914 0.17594 0.67663 0.0
C357 C 0.377 0.21769 0.69026 0.0
Tb358 Tb 0.35663 0.15449 0.68098 0.0
O359 O 0.32757 0.1903 0.71838 0.0
O360 O 0.33063 0.15734 0.7044 0.0
O361 O 0.35495 0.21411 0.67995 0.0
C362 C 0.39194 0.14227 0.69597 0.0
O363 O 0.38066 0.19727 0.69477 0.0
C364 C 0.34065 0.15644 0.63335 0.0
C365 C 0.29881 0.11242 0.66911 0.0
O366 O 0.39188 0.15448 0.67551 0.0
O367 O 0.37206 0.13685 0.70798 0.0
O368 O 0.34893 0.14035 0.63925 0.0
O369 O 0.34471 0.17262 0.65305 0.0
O370 O 0.32114 0.11639 0.67898 0.0
O371 O 0.29483 0.13261 0.66422 0.0
C372 C 0.28539 0.18975 0.65964 0.0
O373 O 0.2835 0.17605 0.67951 0.0
O374 O 0.30629 0.1957 0.64944 0.0
C375 C 0.33477 0.17328 0.72432 0.0
Tb376 Tb 0.81754 0.17087 0.6751 0.0
C377 C 0.8337 0.12556 0.67568 0.0
Tb378 Tb 0.87405 0.18756 0.67688 0.0
O379 O 0.81677 0.17883 0.63382 0.0
O380 O 0.84161 0.16725 0.64957 0.0
O381 O 0.81586 0.1321 0.67873 0.0
C382 C 0.92077 0.20497 0.6627 0.0
O383 O 0.85752 0.14375 0.67229 0.0
C384 C 0.85514 0.18197 0.72206 0.0
C385 C 0.85756 0.23261 0.67741 0.0
O386 O 0.91523 0.20571 0.68665 0.0
O387 O 0.90013 0.19467 0.64698 0.0
O388 O 0.874 0.17822 0.71779 0.0
O389 O 0.84987 0.19095 0.70239 0.0
O390 O 0.87508 0.22613 0.67196 0.0
O391 O 0.83452 0.21428 0.68278 0.0
C392 C 0.77044 0.15202 0.68842 0.0
O393 O 0.7783 0.16161 0.66638 0.0
O394 O 0.78906 0.15299 0.70286 0.0
C395 C 0.83589 0.17557 0.62967 0.0
H396 H 0.27321 0.87648 0.08258 0.0
H397 H 0.28986 0.81249 0.06728 0.0
H398 H 0.31247 0.90809 0.06504 0.0
H399 H 0.32878 0.844 0.04926 0.0
H400 H 0.38417 0.90226 0.99587 0.0
H401 H 0.34346 0.87123 0.01152 0.0
H402 H 0.35898 0.92973 0.07686 0.0
H403 H 0.39964 0.96075 0.0611 0.0
C404 C 0.28524 0.86912 0.0756 0.0
C405 C 0.27827 0.84185 0.07644 0.0
C406 C 0.30773 0.88727 0.06548 0.0
C407 C 0.32375 0.87858 0.05573 0.0
C408 C 0.31668 0.85128 0.05626 0.0
C409 C 0.2943 0.83318 0.06655 0.0
C410 C 0.37876 0.90853 0.01345 0.0
C411 C 0.39502 0.9339 0.02726 0.0
C412 C 0.35554 0.89071 0.02252 0.0
C413 C 0.34799 0.89796 0.04549 0.0
C414 C 0.36409 0.92362 0.05897 0.0
C415 C 0.38741 0.94135 0.05 0.0
H416 H 0.20113 0.47146 0.07203 0.0
H417 H 0.14161 0.38993 0.07919 0.0
H418 H 0.16955 0.48208 0.05404 0.0
H419 H 0.11013 0.40045 0.06119 0.0
H420 H 0.06079 0.43953 0.06427 0.0
H421 H 0.093 0.42822 0.07773 0.0
H422 H 0.13773 0.47222 0.01672 0.0
H423 H 0.1055 0.48385 0.0035 0.0
C424 C 0.18137 0.45569 0.06927 0.0
C425 C 0.17378 0.42997 0.07727 0.0
C426 C 0.16329 0.46176 0.05901 0.0
C427 C 0.13732 0.44219 0.05656 0.0
C428 C 0.12993 0.41612 0.0634 0.0
C429 C 0.14795 0.41008 0.07363 0.0
C430 C 0.07748 0.44672 0.05373 0.0
C431 C 0.08069 0.46248 0.03284 0.0
C432 C 0.09586 0.44012 0.0613 0.0
C433 C 0.11783 0.44917 0.04815 0.0
C434 C 0.12108 0.4651 0.02732 0.0
C435 C 0.10262 0.47165 0.01969 0.0
H436 H 0.54781 0.71036 0.09799 0.0
H437 H 0.58194 0.74322 0.02779 0.0
H438 H 0.53644 0.66535 0.07968 0.0
H439 H 0.57028 0.69766 0.00914 0.0
H440 H 0.57225 0.6154 0.00676 0.0
H441 H 0.58226 0.66178 0.0189 0.0
H442 H 0.50722 0.63166 0.04352 0.0
H443 H 0.49723 0.58569 0.03172 0.0
C444 C 0.55282 0.70789 0.07856 0.0
C445 C 0.56587 0.73028 0.06436 0.0
C446 C 0.54613 0.68208 0.06798 0.0
C447 C 0.5524 0.67795 0.04293 0.0
C448 C 0.56532 0.70029 0.02854 0.0
C449 C 0.57181 0.72625 0.03909 0.0
C450 C 0.5578 0.61871 0.01446 0.0
C451 C 0.53406 0.59675 0.01858 0.0
C452 C 0.56351 0.64527 0.02129 0.0
C453 C 0.54561 0.6503 0.03244 0.0
C454 C 0.52155 0.6284 0.03539 0.0
C455 C 0.51583 0.602 0.02854 0.0
H456 H 0.82261 0.28746 0.96679 0.0
H457 H 0.88051 0.27032 0.94441 0.0
H458 H 0.8555 0.3327 0.98526 0.0
H459 H 0.91323 0.31562 0.96192 0.0
H460 H 0.96808 0.39249 0.0118 0.0
H461 H 0.93391 0.34594 0.00116 0.0
H462 H 0.88575 0.3741 0.96799 0.0
H463 H 0.91961 0.42056 0.97911 0.0
C464 C 0.84235 0.29324 0.9661 0.0
C465 C 0.84896 0.27541 0.95395 0.0
C466 C 0.86118 0.31924 0.97642 0.0
C467 C 0.88703 0.32789 0.97491 0.0
C468 C 0.89357 0.30962 0.96365 0.0
C469 C 0.87479 0.28373 0.95333 0.0
C470 C 0.95015 0.38879 0.00242 0.0
C471 C 0.9467 0.41034 0.99619 0.0
C472 C 0.93058 0.36207 0.99623 0.0
C473 C 0.90709 0.35624 0.98362 0.0
C474 C 0.90345 0.37781 0.978 0.0
C475 C 0.92299 0.40451 0.98422 0.0
H476 H 0.74714 0.5811 0.97205 0.0
H477 H 0.70997 0.56232 0.89344 0.0
H478 H 0.7073 0.57062 0.98966 0.0
H479 H 0.6701 0.5514 0.91092 0.0
H480 H 0.62547 0.52481 0.01186 0.0
H481 H 0.66529 0.53404 0.99481 0.0
H482 H 0.65108 0.57382 0.93252 0.0
H483 H 0.61109 0.56386 0.94914 0.0
C484 C 0.73037 0.57445 0.95857 0.0
C485 C 0.73169 0.57271 0.93138 0.0
C486 C 0.70754 0.56839 0.96863 0.0
C487 C 0.68552 0.56031 0.95171 0.0
C488 C 0.6868 0.55811 0.92451 0.0
C489 C 0.70963 0.56431 0.91448 0.0
C490 C 0.63095 0.53552 0.99453 0.0
C491 C 0.61529 0.54362 0.98177 0.0
C492 C 0.65378 0.54094 0.98484 0.0
C493 C 0.66136 0.55461 0.96225 0.0
C494 C 0.64565 0.56284 0.94968 0.0
C495 C 0.62282 0.55733 0.9593 0.0
H496 H 0.48945 0.19333 0.96819 0.0
H497 H 0.41572 0.12883 0.93497 0.0
H498 H 0.49764 0.16079 0.98817 0.0
H499 H 0.42467 0.09602 0.95353 0.0
H500 H 0.44048 0.04346 0.00525 0.0
H501 H 0.4304 0.07758 0.99222 0.0
H502 H 0.50777 0.12783 0.9746 0.0
H503 H 0.51797 0.09449 0.98837 0.0
C504 C 0.47485 0.17223 0.96526 0.0
C505 C 0.45191 0.16382 0.94982 0.0
C506 C 0.47973 0.15345 0.97645 0.0
C507 C 0.46195 0.12565 0.9723 0.0
C508 C 0.43875 0.11725 0.95738 0.0
C509 C 0.43377 0.13608 0.94636 0.0
C510 C 0.45539 0.06196 0.99893 0.0
C511 C 0.48003 0.06613 0.99786 0.0
C512 C 0.44957 0.08146 0.99124 0.0
C513 C 0.46823 0.10552 0.98224 0.0
C514 C 0.49296 0.10985 0.98181 0.0
C515 C 0.49879 0.09052 0.9896 0.0
H516 H 0.72465 0.18122 0.97212 0.0
H517 H 0.71913 0.10801 0.93763 0.0
H518 H 0.68171 0.1551 0.98514 0.0
H519 H 0.67651 0.08178 0.95112 0.0
H520 H 0.59144 0.04712 0.95245 0.0
H521 H 0.63446 0.07399 0.94017 0.0
H522 H 0.65682 0.12236 0.01474 0.0
H523 H 0.61348 0.09573 0.02669 0.0
C524 C 0.71434 0.15952 0.96751 0.0
C525 C 0.72519 0.14659 0.95383 0.0
C526 C 0.68976 0.14452 0.97508 0.0
C527 C 0.67557 0.11632 0.9691 0.0
C528 C 0.68668 0.10349 0.95567 0.0
C529 C 0.71117 0.11846 0.94809 0.0
C530 C 0.60558 0.06348 0.96621 0.0
C531 C 0.5992 0.06932 0.99054 0.0
C532 C 0.63028 0.07881 0.95925 0.0
C533 C 0.64919 0.10029 0.97651 0.0
C534 C 0.64269 0.10617 0.00086 0.0
C535 C 0.61792 0.09083 0.00779 0.0
H536 H 0.83672 0.5587 0.96659 0.0
H537 H 0.85206 0.54304 0.88858 0.0
H538 H 0.86778 0.54763 0.98506 0.0
H539 H 0.88257 0.53127 0.90689 0.0
H540 H 0.95551 0.54237 0.9477 0.0
H541 H 0.92403 0.55321 0.93042 0.0
H542 H 0.8755 0.51041 0.98958 0.0
H543 H 0.90748 0.50022 0.00728 0.0
C544 C 0.84658 0.55267 0.9534 0.0
C545 C 0.84209 0.55177 0.92614 0.0
C546 C 0.86428 0.5462 0.96397 0.0
C547 C 0.87777 0.53868 0.94746 0.0
C548 C 0.87288 0.53744 0.92018 0.0
C549 C 0.8553 0.54399 0.90967 0.0
C550 C 0.93813 0.53535 0.95703 0.0
C551 C 0.93387 0.52048 0.97879 0.0
C552 C 0.92001 0.54139 0.94704 0.0
C553 C 0.89715 0.53255 0.95852 0.0
C554 C 0.893 0.51776 0.98044 0.0
C555 C 0.91121 0.51179 0.99049 0.0
H556 H 0.48542 0.29852 0.9876 0.0
H557 H 0.46423 0.31707 0.91331 0.0
H558 H 0.49441 0.34269 0.00789 0.0
H559 H 0.47235 0.36047 0.93369 0.0
H560 H 0.46046 0.41878 0.98912 0.0
H561 H 0.45079 0.37296 0.97545 0.0
H562 H 0.52926 0.39659 0.99423 0.0
H563 H 0.53929 0.44284 0.00742 0.0
C564 C 0.48247 0.3119 0.97573 0.0
C565 C 0.47411 0.3045 0.94892 0.0
C566 C 0.48766 0.33708 0.98729 0.0
C567 C 0.48389 0.35473 0.97229 0.0
C568 C 0.4752 0.34707 0.94564 0.0
C569 C 0.47065 0.32235 0.93402 0.0
C570 C 0.47563 0.41419 0.99077 0.0
C571 C 0.50069 0.4345 0.99921 0.0
C572 C 0.47006 0.38798 0.98291 0.0
C573 C 0.4893 0.3814 0.98388 0.0
C574 C 0.51411 0.40124 0.99352 0.0
C575 C 0.51983 0.42766 0.0009 0.0
H576 H 0.18304 0.7057 0.04079 0.0
H577 H 0.14442 0.69247 0.1109 0.0
H578 H 0.14872 0.6617 0.02015 0.0
H579 H 0.10998 0.64919 0.09007 0.0
H580 H 0.04166 0.58907 0.03122 0.0
H581 H 0.07619 0.63468 0.04649 0.0
H582 H 0.13096 0.60958 0.03477 0.0
H583 H 0.09646 0.56372 0.02007 0.0
C584 C 0.16715 0.69352 0.05164 0.0
C585 C 0.16629 0.70237 0.07741 0.0
C586 C 0.14762 0.66843 0.03989 0.0
C587 C 0.12672 0.65228 0.05353 0.0
C588 C 0.12578 0.66141 0.0791 0.0
C589 C 0.1455 0.68606 0.09101 0.0
C590 C 0.06107 0.59334 0.03156 0.0
C591 C 0.06636 0.5728 0.02456 0.0
C592 C 0.08077 0.61939 0.04036 0.0
C593 C 0.10614 0.62553 0.04172 0.0
C594 C 0.11153 0.60534 0.03369 0.0
C595 C 0.0918 0.57912 0.02545 0.0
H596 H 0.3224 0.44678 0.12782 0.0
H597 H 0.28927 0.44619 0.05106 0.0
H598 H 0.36186 0.45699 0.10965 0.0
H599 H 0.32899 0.45706 0.03289 0.0
H600 H 0.39719 0.45185 0.00602 0.0
H601 H 0.3565 0.43857 0.02341 0.0
H602 H 0.39617 0.49481 0.09211 0.0
H603 H 0.43653 0.50749 0.07503 0.0
C604 C 0.32364 0.44892 0.10706 0.0
C605 C 0.3029 0.44584 0.09089 0.0
C606 C 0.34624 0.45489 0.09666 0.0
C607 C 0.34861 0.458 0.06984 0.0
C608 C 0.32768 0.45453 0.05357 0.0
C609 C 0.305 0.44849 0.064 0.0
C610 C 0.39708 0.46122 0.02486 0.0
C611 C 0.41989 0.48063 0.03922 0.0
C612 C 0.37385 0.45377 0.03475 0.0
C613 C 0.37311 0.4656 0.05917 0.0
C614 C 0.39606 0.485 0.07344 0.0
C615 C 0.41919 0.4924 0.06359 0.0
H616 H 0.56557 0.84983 0.0297 0.0
H617 H 0.53074 0.85329 0.09941 0.0
H618 H 0.55294 0.88 0.01022 0.0
H619 H 0.51802 0.88304 0.08002 0.0
H620 H 0.47647 0.91239 0.02872 0.0
H621 H 0.48798 0.87968 0.04217 0.0
H622 H 0.56354 0.92946 0.01984 0.0
H623 H 0.55212 0.96251 0.00628 0.0
C624 C 0.55511 0.8569 0.04076 0.0
C625 C 0.549 0.84918 0.06602 0.0
C626 C 0.548 0.87422 0.02968 0.0
C627 C 0.53434 0.88369 0.04354 0.0
C628 C 0.5282 0.87577 0.06872 0.0
C629 C 0.53558 0.85886 0.07987 0.0
C630 C 0.49547 0.91633 0.02631 0.0
C631 C 0.51345 0.94029 0.01664 0.0
C632 C 0.50207 0.89758 0.03415 0.0
C633 C 0.52672 0.90216 0.03231 0.0
C634 C 0.54437 0.92538 0.0214 0.0
C635 C 0.53783 0.94434 0.01375 0.0
H636 H 0.93697 0.20737 0.41452 0.0
H637 H 0.95046 0.1408 0.40192 0.0
H638 H 0.97765 0.23758 0.39879 0.0
H639 H 0.99126 0.17112 0.38607 0.0
H640 H 0.0526 0.23062 0.33682 0.0
H641 H 0.0108 0.19911 0.35013 0.0
H642 H 0.02238 0.25716 0.4144 0.0
H643 H 0.06384 0.28861 0.40087 0.0
C644 C 0.94867 0.1992 0.40845 0.0
C645 C 0.94057 0.17172 0.40968 0.0
C646 C 0.97199 0.21652 0.39945 0.0
C647 C 0.9878 0.20681 0.39142 0.0
C648 C 0.97942 0.17918 0.39193 0.0
C649 C 0.95604 0.16181 0.40098 0.0
C650 C 0.04613 0.23656 0.35377 0.0
C651 C 0.06133 0.26205 0.36777 0.0
C652 C 0.02228 0.21851 0.36146 0.0
C653 C 0.01321 0.22569 0.38323 0.0
C654 C 0.02861 0.25118 0.39728 0.0
C655 C 0.05242 0.26914 0.38963 0.0
H656 H 0.86159 0.799 0.40013 0.0
H657 H 0.80357 0.71884 0.41423 0.0
H658 H 0.82885 0.80777 0.38199 0.0
H659 H 0.77095 0.72788 0.39662 0.0
H660 H 0.72304 0.77013 0.39868 0.0
H661 H 0.75521 0.75859 0.41208 0.0
H662 H 0.79452 0.79272 0.34462 0.0
H663 H 0.76225 0.80422 0.33122 0.0
C664 C 0.84192 0.7831 0.39897 0.0
C665 C 0.83521 0.75831 0.40887 0.0
C666 C 0.82317 0.78816 0.38865 0.0
C667 C 0.79734 0.7686 0.38816 0.0
C668 C 0.79068 0.74351 0.39719 0.0
C669 C 0.80939 0.73837 0.4073 0.0
C670 C 0.73845 0.77495 0.38664 0.0
C671 C 0.74019 0.78801 0.36394 0.0
C672 C 0.7568 0.76827 0.39422 0.0
C673 C 0.77737 0.77474 0.37936 0.0
C674 C 0.77898 0.78767 0.35654 0.0
C675 C 0.76047 0.79411 0.34881 0.0
H676 H 0.18953 0.04997 0.38606 0.0
H677 H 0.26597 0.06816 0.40884 0.0
H678 H 0.17881 0.00496 0.36743 0.0
H679 H 0.25514 0.02314 0.39108 0.0
H680 H 0.23466 0.9479 0.33941 0.0
H681 H 0.24414 0.9939 0.35095 0.0
H682 H 0.17266 0.96331 0.3843 0.0
H683 H 0.16289 0.91726 0.37234 0.0
C684 C 0.2041 0.04447 0.38681 0.0
C685 C 0.22855 0.06254 0.39905 0.0
C686 C 0.1979 0.01861 0.37641 0.0
C687 C 0.21607 0.01038 0.37788 0.0
C688 C 0.24074 0.02885 0.38936 0.0
C689 C 0.24689 0.05458 0.39979 0.0
C690 C 0.22084 0.95092 0.34903 0.0
C691 C 0.19806 0.92881 0.35507 0.0
C692 C 0.22634 0.97734 0.35574 0.0
C693 C 0.20923 0.98232 0.36868 0.0
C694 C 0.18614 0.96022 0.37408 0.0
C695 C 0.18062 0.93378 0.36736 0.0
H696 H 0.5448 0.60225 0.27815 0.0
H697 H 0.48691 0.61682 0.30583 0.0
H698 H 0.57748 0.64619 0.29864 0.0
H699 H 0.51973 0.66025 0.32779 0.0
H700 H 0.58094 0.74906 0.32498 0.0
H701 H 0.54786 0.70262 0.31365 0.0
H702 H 0.60024 0.6759 0.33673 0.0
H703 H 0.6339 0.72285 0.34728 0.0
C704 C 0.53905 0.61469 0.28897 0.0
C705 C 0.51318 0.60619 0.28987 0.0
C706 C 0.55786 0.63981 0.30107 0.0
C707 C 0.55134 0.65705 0.31467 0.0
C708 C 0.52548 0.64778 0.31702 0.0
C709 C 0.50662 0.62269 0.30471 0.0
C710 C 0.58548 0.73336 0.32791 0.0
C711 C 0.61025 0.73981 0.33683 0.0
C712 C 0.56632 0.70656 0.3216 0.0
C713 C 0.57125 0.68534 0.3242 0.0
C714 C 0.59581 0.69171 0.33408 0.0
C715 C 0.61511 0.71864 0.34027 0.0
H716 H 0.38013 0.90172 0.23231 0.0
H717 H 0.41625 0.92209 0.31156 0.0
H718 H 0.33994 0.89091 0.24878 0.0
H719 H 0.37581 0.9112 0.32813 0.0
H720 H 0.29204 0.86154 0.34643 0.0
H721 H 0.33303 0.87245 0.33132 0.0
H722 H 0.32117 0.91481 0.27014 0.0
H723 H 0.28011 0.90349 0.28499 0.0
C724 C 0.37952 0.90412 0.25327 0.0
C725 C 0.40142 0.91304 0.27064 0.0
C726 C 0.35648 0.89792 0.2627 0.0
C727 C 0.35476 0.90045 0.28973 0.0
C728 C 0.37652 0.90888 0.30719 0.0
C729 C 0.39965 0.91511 0.29772 0.0
C730 C 0.2983 0.87324 0.3298 0.0
C731 C 0.283 0.88166 0.31681 0.0
C732 C 0.32178 0.8796 0.32125 0.0
C733 C 0.33028 0.89441 0.29949 0.0
C734 C 0.31498 0.90305 0.28673 0.0
C735 C 0.29157 0.89672 0.29531 0.0
H736 H 0.15487 0.51618 0.2777 0.0
H737 H 0.07697 0.46995 0.29425 0.0
H738 H 0.16373 0.4833 0.29615 0.0
H739 H 0.0859 0.43775 0.31463 0.0
H740 H 0.10321 0.36944 0.32293 0.0
H741 H 0.09333 0.40273 0.30743 0.0
H742 H 0.17043 0.46595 0.33251 0.0
H743 H 0.18049 0.43218 0.3461 0.0
C744 C 0.13975 0.49908 0.28577 0.0
C745 C 0.11528 0.49548 0.2846 0.0
C746 C 0.14481 0.48027 0.29663 0.0
C747 C 0.12563 0.45767 0.30721 0.0
C748 C 0.10114 0.45447 0.30634 0.0
C749 C 0.09598 0.473 0.29487 0.0
C750 C 0.1179 0.39053 0.32539 0.0
C751 C 0.14261 0.39824 0.33566 0.0
C752 C 0.11226 0.40975 0.31656 0.0
C753 C 0.13108 0.43729 0.31834 0.0
C754 C 0.15552 0.44499 0.32993 0.0
C755 C 0.16129 0.42567 0.33809 0.0
H756 H 0.39496 0.50375 0.3125 0.0
H757 H 0.36065 0.46678 0.23442 0.0
H758 H 0.35431 0.47556 0.32988 0.0
H759 H 0.32037 0.43821 0.25168 0.0
H760 H 0.24598 0.41403 0.28532 0.0
H761 H 0.28723 0.44232 0.26982 0.0
H762 H 0.32369 0.42933 0.33756 0.0
H763 H 0.28212 0.40142 0.35342 0.0
C764 C 0.37879 0.48948 0.29909 0.0
C765 C 0.38089 0.48754 0.27207 0.0
C766 C 0.35553 0.47321 0.30905 0.0
C767 C 0.33396 0.45471 0.29218 0.0
C768 C 0.33638 0.45257 0.26522 0.0
C769 C 0.35951 0.46882 0.25532 0.0
C770 C 0.26281 0.41725 0.29693 0.0
C771 C 0.26087 0.40552 0.32055 0.0
C772 C 0.28648 0.43334 0.28797 0.0
C773 C 0.30886 0.43801 0.30233 0.0
C774 C 0.3069 0.42638 0.32612 0.0
C775 C 0.28311 0.41026 0.33514 0.0
H776 H 0.52013 0.88004 0.23115 0.0
H777 H 0.50842 0.90272 0.30835 0.0
H778 H 0.5505 0.86857 0.25038 0.0
H779 H 0.53942 0.89199 0.32772 0.0
H780 H 0.62237 0.87709 0.28944 0.0
H781 H 0.59245 0.89014 0.27231 0.0
H782 H 0.54579 0.85441 0.33501 0.0
H783 H 0.57632 0.84211 0.35257 0.0
C784 C 0.52418 0.88265 0.25226 0.0
C785 C 0.51196 0.89222 0.26824 0.0
C786 C 0.5417 0.87629 0.2633 0.0
C787 C 0.54757 0.87955 0.29061 0.0
C788 C 0.53517 0.889 0.30664 0.0
C789 C 0.51749 0.89526 0.29555 0.0
C790 C 0.60581 0.87223 0.29965 0.0
C791 C 0.60157 0.85857 0.32226 0.0
C792 C 0.58856 0.87951 0.28975 0.0
C793 C 0.56656 0.87309 0.30213 0.0
C794 C 0.56264 0.85988 0.32513 0.0
C795 C 0.58002 0.85272 0.33512 0.0
H796 H 0.13141 0.62533 0.31691 0.0
H797 H 0.15806 0.65643 0.24351 0.0
H798 H 0.14022 0.67014 0.33432 0.0
H799 H 0.16676 0.70095 0.26073 0.0
H800 H 0.20452 0.78236 0.30786 0.0
H801 H 0.19653 0.73741 0.29432 0.0
H802 H 0.12422 0.70246 0.32636 0.0
H803 H 0.13223 0.74773 0.34025 0.0
C804 C 0.13927 0.64176 0.30457 0.0
C805 C 0.14423 0.63752 0.2789 0.0
C806 C 0.14414 0.66733 0.31446 0.0
C807 C 0.15429 0.6891 0.29894 0.0
C808 C 0.15929 0.68471 0.27333 0.0
C809 C 0.15423 0.65921 0.26342 0.0
C810 C 0.18694 0.76519 0.31225 0.0
C811 C 0.16895 0.76876 0.32507 0.0
C812 C 0.18234 0.73937 0.30433 0.0
C813 C 0.15967 0.71638 0.30909 0.0
C814 C 0.14193 0.71981 0.32255 0.0
C815 C 0.14647 0.74575 0.33037 0.0
H816 H 0.84239 0.0398 0.37321 0.0
H817 H 0.79826 0.02686 0.43911 0.0
H818 H 0.80984 0.99529 0.35188 0.0
H819 H 0.76569 0.98298 0.41765 0.0
H820 H 0.70156 0.91938 0.36019 0.0
H821 H 0.7344 0.96588 0.37431 0.0
H822 H 0.79221 0.94466 0.36541 0.0
H823 H 0.75937 0.89787 0.3516 0.0
C824 C 0.82566 0.02757 0.38297 0.0
C825 C 0.82272 0.03666 0.40777 0.0
C826 C 0.80714 1.00218 0.37083 0.0
C827 C 0.78524 0.98591 0.38308 0.0
C828 C 0.78225 0.99529 0.40767 0.0
C829 C 0.80091 0.02029 0.41998 0.0
C830 C 0.72125 0.92463 0.36081 0.0
C831 C 0.72785 0.90485 0.35502 0.0
C832 C 0.74002 0.95124 0.36897 0.0
C833 C 0.76576 0.95872 0.37104 0.0
C834 C 0.77248 0.93938 0.36384 0.0
C835 C 0.75368 0.91261 0.35608 0.0
H836 H 0.99 0.79448 0.4589 0.0
H837 H 0.95227 0.77584 0.38058 0.0
H838 H 0.02987 0.80593 0.441 0.0
H839 H 0.99205 0.78669 0.36255 0.0
H840 H 0.08965 0.79557 0.4018 0.0
H841 H 0.04934 0.78416 0.41862 0.0
H842 H 0.03393 0.82432 0.35756 0.0
H843 H 0.07411 0.83513 0.3404 0.0
C844 C 0.99027 0.79278 0.43783 0.0
C845 C 0.96809 0.78429 0.42116 0.0
C846 C 0.01306 0.79916 0.42756 0.0
C847 C 0.01417 0.79709 0.40032 0.0
C848 C 0.99193 0.78877 0.38361 0.0
C849 C 0.96911 0.78242 0.39393 0.0
C850 C 0.07758 0.80185 0.39194 0.0
C851 C 0.08493 0.81619 0.36981 0.0
C852 C 0.05456 0.79549 0.40167 0.0
C853 C 0.03841 0.80342 0.38952 0.0
C854 C 0.04576 0.81764 0.36721 0.0
C855 C 0.06881 0.82396 0.35746 0.0
H856 H 0.19402 0.18771 0.43852 0.0
H857 H 0.22565 0.18066 0.36756 0.0
H858 H 0.18259 0.21857 0.41931 0.0
H859 H 0.21443 0.21201 0.34833 0.0
H860 H 0.21657 0.29654 0.34465 0.0
H861 H 0.22732 0.26301 0.35845 0.0
H862 H 0.15167 0.21451 0.38103 0.0
H863 H 0.14078 0.24754 0.36726 0.0
C864 C 0.19846 0.19275 0.41877 0.0
C865 C 0.21053 0.1817 0.40447 0.0
C866 C 0.19185 0.21032 0.40775 0.0
C867 C 0.1975 0.21753 0.38228 0.0
C868 C 0.2099 0.20677 0.36801 0.0
C869 C 0.21618 0.18878 0.37895 0.0
C870 C 0.20213 0.27855 0.35222 0.0
C871 C 0.17787 0.27491 0.35502 0.0
C872 C 0.20828 0.25934 0.36002 0.0
C873 C 0.19039 0.23634 0.37104 0.0
C874 C 0.16591 0.23223 0.37289 0.0
C875 C 0.15968 0.25117 0.36486 0.0
H876 H 0.60912 0.5503 0.75225 0.0
H877 H 0.62057 0.48218 0.74144 0.0
H878 H 0.65035 0.57939 0.73688 0.0
H879 H 0.66189 0.51129 0.72621 0.0
H880 H 0.72366 0.56627 0.676 0.0
H881 H 0.68189 0.53685 0.69033 0.0
H882 H 0.69501 0.59931 0.7505 0.0
H883 H 0.73651 0.62886 0.73568 0.0
C884 C 0.62051 0.54156 0.74672 0.0
C885 C 0.61154 0.51391 0.74811 0.0
C886 C 0.64419 0.55826 0.73795 0.0
C887 C 0.65955 0.54775 0.7304 0.0
C888 C 0.65045 0.52002 0.73153 0.0
C889 C 0.62673 0.50331 0.74025 0.0
C890 C 0.71756 0.57366 0.69228 0.0
C891 C 0.73324 0.59984 0.70469 0.0
C892 C 0.69369 0.55677 0.7006 0.0
C893 C 0.68501 0.56569 0.72156 0.0
C894 C 0.70088 0.59191 0.73403 0.0
C895 C 0.72472 0.6088 0.72567 0.0
H896 H 0.50132 0.08736 0.70537 0.0
H897 H 0.5028 0.11802 0.78454 0.0
H898 H 0.4708 0.10072 0.69047 0.0
H899 H 0.47239 0.13128 0.76971 0.0
H900 H 0.39496 0.11901 0.73966 0.0
H901 H 0.42738 0.10803 0.7535 0.0
H902 H 0.46581 0.14028 0.68503 0.0
H903 H 0.4331 0.15089 0.67105 0.0
C904 C 0.4954 0.09728 0.7195 0.0
C905 C 0.50423 0.10135 0.74616 0.0
C906 C 0.47791 0.10491 0.71099 0.0
C907 C 0.46895 0.11676 0.72898 0.0
C908 C 0.47848 0.12164 0.75547 0.0
C909 C 0.49592 0.11407 0.76395 0.0
C910 C 0.41033 0.12371 0.7276 0.0
C911 C 0.41156 0.13574 0.70431 0.0
C912 C 0.42899 0.1176 0.73558 0.0
C913 C 0.44922 0.12337 0.72039 0.0
C914 C 0.45035 0.13536 0.69702 0.0
C915 C 0.43172 0.14155 0.68909 0.0
H916 H 0.93534 0.39947 0.73861 0.0
H917 H 0.86215 0.38644 0.7087 0.0
H918 H 0.92396 0.3548 0.71944 0.0
H919 H 0.85129 0.34225 0.6881 0.0
H920 H 0.82765 0.25298 0.69166 0.0
H921 H 0.83986 0.29967 0.70256 0.0
H922 H 0.91541 0.3249 0.68145 0.0
H923 H 0.90334 0.2777 0.67132 0.0
C924 C 0.91687 0.38717 0.72771 0.0
C925 C 0.89949 0.39643 0.72566 0.0
C926 C 0.91048 0.36163 0.71632 0.0
C927 C 0.88659 0.34468 0.70234 0.0
C928 C 0.86969 0.35451 0.69913 0.0
C929 C 0.87603 0.38003 0.7107 0.0
C930 C 0.84684 0.2684 0.68904 0.0
C931 C 0.86458 0.26144 0.68083 0.0
C932 C 0.85381 0.29535 0.69513 0.0
C933 C 0.87869 0.31623 0.69302 0.0
C934 C 0.89619 0.30936 0.68373 0.0
C935 C 0.88922 0.28228 0.67775 0.0
H936 H 0.15419 0.96245 0.62504 0.0
H937 H 0.21328 0.94457 0.60991 0.0
H938 H 0.18626 0.00752 0.64473 0.0
H939 H 0.24525 0.98972 0.62853 0.0
H940 H 0.29728 0.0657 0.68066 0.0
H941 H 0.26328 0.01949 0.66811 0.0
H942 H 0.21852 0.04913 0.62974 0.0
H943 H 0.25225 0.09535 0.64281 0.0
C944 C 0.17399 0.96803 0.62618 0.0
C945 C 0.1812 0.95 0.61574 0.0
C946 C 0.19239 0.99395 0.63718 0.0
C947 C 0.21838 1.00235 0.63807 0.0
C948 C 0.22545 0.98393 0.62843 0.0
C949 C 0.20711 0.9581 0.61747 0.0
C950 C 0.28014 0.0624 0.66969 0.0
C951 C 0.2776 0.0843 0.66264 0.0
C952 C 0.26065 0.03587 0.66241 0.0
C953 C 0.23818 0.03054 0.64778 0.0
C954 C 0.2354 0.05245 0.64128 0.0
C955 C 0.25486 0.079 0.64865 0.0
H956 H 0.07987 0.25436 0.64836 0.0
H957 H 0.0488 0.25602 0.57116 0.0
H958 H 0.03866 0.23929 0.66446 0.0
H959 H 0.00861 0.24354 0.58772 0.0
H960 H 0.93172 0.1934 0.61513 0.0
H961 H 0.97316 0.20713 0.60051 0.0
H962 H 0.00885 0.25127 0.67626 0.0
H963 H 0.96694 0.23596 0.69125 0.0
C964 C 0.06438 0.2517 0.63481 0.0
C965 C 0.0679 0.2565 0.60839 0.0
C966 C 0.04075 0.24343 0.64418 0.0
C967 C 0.02006 0.24003 0.62745 0.0
C968 C 0.02379 0.24534 0.60118 0.0
C969 C 0.04719 0.25311 0.59174 0.0
C970 C 0.94845 0.20598 0.62866 0.0
C971 C 0.94619 0.2137 0.65428 0.0
C972 C 0.97231 0.2141 0.62023 0.0
C973 C 0.9946 0.23067 0.63703 0.0
C974 C 0.99222 0.23828 0.6628 0.0
C975 C 0.96823 0.22969 0.67139 0.0
H976 H 0.76589 0.82758 0.65973 0.0
H977 H 0.79485 0.82145 0.58658 0.0
H978 H 0.77721 0.79547 0.67682 0.0
H979 H 0.80602 0.78952 0.60351 0.0
H980 H 0.84914 0.75925 0.65191 0.0
H981 H 0.83758 0.79189 0.63885 0.0
H982 H 0.76404 0.745 0.6668 0.0
H983 H 0.77557 0.71182 0.68009 0.0
C984 C 0.77478 0.81948 0.6474 0.0
C985 C 0.7795 0.827 0.62184 0.0
C986 C 0.78104 0.80097 0.65708 0.0
C987 C 0.79252 0.79004 0.64151 0.0
C988 C 0.79738 0.79777 0.61604 0.0
C989 C 0.79085 0.81592 0.60629 0.0
C990 C 0.83054 0.75582 0.65558 0.0
C991 C 0.81324 0.73271 0.66701 0.0
C992 C 0.8239 0.77456 0.64791 0.0
C993 C 0.79985 0.77089 0.65159 0.0
C994 C 0.78276 0.74835 0.66382 0.0
C995 C 0.78933 0.72933 0.67131 0.0
H996 H 0.06466 0.84769 0.64403 0.0
H997 H 0.03251 0.80257 0.56827 0.0
H998 H 0.02465 0.81877 0.66222 0.0
H999 H 0.99296 0.77328 0.58642 0.0
H1000 H 0.91743 0.74738 0.61749 0.0
H1001 H 0.95823 0.77637 0.60161 0.0
H1002 H 0.9965 0.77294 0.67349 0.0
H1003 H 0.95524 0.74427 0.68973 0.0
C1004 C 0.04911 0.83148 0.63134 0.0
C1005 C 0.05155 0.82745 0.60468 0.0
C1006 C 0.02625 0.81481 0.64177 0.0
C1007 C 0.0055 0.79383 0.62574 0.0
C1008 C 0.00833 0.78957 0.59923 0.0
C1009 C 0.03103 0.80624 0.58884 0.0
C1010 C 0.93455 0.75281 0.62992 0.0
C1011 C 0.93322 0.74352 0.65478 0.0
C1012 C 0.95796 0.76931 0.62076 0.0
C1013 C 0.98069 0.77681 0.63616 0.0
C1014 C 0.97936 0.7677 0.66122 0.0
C1015 C 0.9558 0.75118 0.67046 0.0
H1016 H 0.18692 0.22509 0.56195 0.0
H1017 H 0.17172 0.23889 0.64057 0.0
H1018 H 0.21669 0.21186 0.57924 0.0
H1019 H 0.20207 0.22636 0.65805 0.0
H1020 H 0.24015 0.17692 0.67822 0.0
H1021 H 0.20899 0.18866 0.66139 0.0
H1022 H 0.25791 0.23162 0.60257 0.0
H1023 H 0.28856 0.21922 0.61899 0.0
C1024 C 0.19003 0.22533 0.58297 0.0
C1025 C 0.17704 0.23301 0.59988 0.0
C1026 C 0.20722 0.21794 0.59291 0.0
C1027 C 0.21195 0.2182 0.62008 0.0
C1028 C 0.1987 0.22565 0.63702 0.0
C1029 C 0.1814 0.23296 0.62702 0.0
C1030 C 0.24415 0.18886 0.66169 0.0
C1031 C 0.26671 0.19715 0.64987 0.0
C1032 C 0.2264 0.19573 0.65213 0.0
C1033 C 0.23087 0.21105 0.63056 0.0
C1034 C 0.25361 0.21943 0.61892 0.0
C1035 C 0.27128 0.2125 0.62842 0.0
H1036 H 0.74366 0.95771 0.62228 0.0
H1037 H 0.81352 0.96242 0.6516 0.0
H1038 H 0.76105 0.00511 0.63729 0.0
H1039 H 0.83098 0.01008 0.66713 0.0
H1040 H 0.78846 0.08305 0.68602 0.0
H1041 H 0.77331 0.03515 0.67692 0.0
H1042 H 0.84526 0.05385 0.64953 0.0
H1043 H 0.86071 0.10197 0.65911 0.0
C1044 C 0.76269 0.96889 0.6322 0.0
C1045 C 0.77717 0.95637 0.63582 0.0
C1046 C 0.77263 0.99603 0.64097 0.0
C1047 C 0.79738 0.01143 0.65362 0.0
C1048 C 0.81192 0.99885 0.65734 0.0
C1049 C 0.80188 0.97154 0.64857 0.0
C1050 C 0.80121 0.07703 0.67831 0.0
C1051 C 0.82574 0.09645 0.67305 0.0
C1052 C 0.79244 0.0495 0.67296 0.0
C1053 C 0.80791 0.04061 0.66211 0.0
C1054 C 0.83288 0.05997 0.65799 0.0
C1055 C 0.84171 0.08759 0.66342 0.0
H1056 H 0.49205 0.35961 0.78511 0.0
H1057 H 0.49624 0.3889 0.70895 0.0
H1058 H 0.45887 0.31473 0.76661 0.0
H1059 H 0.46278 0.34375 0.69031 0.0
H1060 H 0.38104 0.26583 0.67887 0.0
H1061 H 0.41554 0.31145 0.69427 0.0
H1062 H 0.45536 0.27787 0.73528 0.0
H1063 H 0.42116 0.23254 0.72013 0.0
C1064 C 0.48591 0.35636 0.76436 0.0
C1065 C 0.49679 0.37764 0.74846 0.0
C1066 C 0.46699 0.33067 0.75375 0.0
C1067 C 0.4583 0.32569 0.72699 0.0
C1068 C 0.46904 0.34705 0.71103 0.0
C1069 C 0.48826 0.37281 0.72165 0.0
C1070 C 0.39722 0.2682 0.69105 0.0
C1071 C 0.39825 0.24549 0.69831 0.0
C1072 C 0.41703 0.29432 0.69973 0.0
C1073 C 0.43808 0.29821 0.71608 0.0
C1074 C 0.43926 0.27551 0.72294 0.0
C1075 C 0.41967 0.2495 0.7141 0.0
H1076 H 0.62433 0.05666 0.74756 0.0
H1077 H 0.61995 0.12269 0.71653 0.0
H1078 H 0.66708 0.07469 0.73414 0.0
H1079 H 0.66285 0.14098 0.70341 0.0
H1080 H 0.72993 0.149 0.65987 0.0
H1081 H 0.68671 0.1308 0.67221 0.0
H1082 H 0.70955 0.11351 0.74645 0.0
H1083 H 0.75256 0.13134 0.73391 0.0
C1084 C 0.63254 0.07502 0.73784 0.0
C1085 C 0.61886 0.08824 0.73308 0.0
C1086 C 0.65706 0.08545 0.73031 0.0
C1087 C 0.6684 0.10933 0.7178 0.0
C1088 C 0.65455 0.1224 0.71278 0.0
C1089 C 0.63002 0.11199 0.7204 0.0
C1090 C 0.72564 0.1413 0.6788 0.0
C1091 C 0.74448 0.14146 0.69591 0.0
C1092 C 0.70096 0.13102 0.68593 0.0
C1093 C 0.69467 0.12063 0.71028 0.0
C1094 C 0.71367 0.12098 0.72741 0.0
C1095 C 0.73832 0.13132 0.7203 0.0
H1096 H 0.86393 0.49337 0.70842 0.0
H1097 H 0.93137 0.56417 0.74537 0.0
H1098 H 0.84786 0.52197 0.69245 0.0
H1099 H 0.91533 0.59265 0.72973 0.0
H1100 H 0.89234 0.63876 0.67767 0.0
H1101 H 0.90674 0.6077 0.6888 0.0
H1102 H 0.83218 0.55157 0.7099 0.0
H1103 H 0.81751 0.58253 0.69845 0.0
C1104 C 0.87534 0.51502 0.71307 0.0
C1105 C 0.89897 0.52661 0.72805 0.0
C1106 C 0.86608 0.53138 0.70404 0.0
C1107 C 0.88037 0.55962 0.70968 0.0
C1108 C 0.90402 0.57105 0.72464 0.0
C1109 C 0.91316 0.55474 0.73374 0.0
C1110 C 0.87886 0.61972 0.68445 0.0
C1111 C 0.85377 0.61333 0.68735 0.0
C1112 C 0.88721 0.60195 0.69097 0.0
C1113 C 0.87071 0.57728 0.70054 0.0
C1114 C 0.84534 0.57035 0.70247 0.0
C1115 C 0.83698 0.58819 0.69599 0.0
H1116 H 0.5015 0.97992 0.21485 0.0
H1117 H 0.42267 0.93241 0.18402 0.0
H1118 H 0.51202 0.99993 0.17343 0.0
H1119 H 0.43302 0.95319 0.14311 0.0
H1120 H 0.46856 0.96466 0.06462 0.0
H1121 H 0.45534 0.9493 0.10707 0.0
H1122 H 0.5068 0.02969 0.14418 0.0
H1123 H 0.52024 0.04507 0.10134 0.0
C1124 C 0.4864 0.97394 0.19932 0.0
C1125 C 0.46129 0.95445 0.20265 0.0
C1126 C 0.49237 0.98565 0.17572 0.0
C1127 C 0.47335 0.97807 0.15497 0.0
C1128 C 0.44813 0.95923 0.15863 0.0
C1129 C 0.44217 0.94753 0.18218 0.0
C1130 C 0.47674 0.97919 0.08176 0.0
C1131 C 0.4954 0.00606 0.07973 0.0
C1132 C 0.46911 0.9704 0.10611 0.0
C1133 C 0.48004 0.98828 0.12901 0.0
C1134 C 0.49824 0.01539 0.1269 0.0
C1135 C 0.50583 0.02423 0.10242 0.0
H1136 H 0.0586 0.54395 0.21864 0.0
H1137 H 0.08693 0.49153 0.19436 0.0
H1138 H 0.03733 0.53647 0.17518 0.0
H1139 H 0.06384 0.48221 0.15126 0.0
H1140 H 0.04743 0.49988 0.06846 0.0
H1141 H 0.06598 0.50262 0.11259 0.0
H1142 H 0.00425 0.50761 0.14436 0.0
H1143 H 0.98653 0.5059 0.10003 0.0
C1144 C 0.06011 0.53059 0.20409 0.0
C1145 C 0.07488 0.51871 0.21002 0.0
C1146 C 0.0475 0.5259 0.17914 0.0
C1147 C 0.04884 0.50878 0.15943 0.0
C1148 C 0.06271 0.49594 0.16569 0.0
C1149 C 0.07566 0.50094 0.19062 0.0
C1150 C 0.03761 0.5009 0.0849 0.0
C1151 C 0.01538 0.50218 0.08092 0.0
C1152 C 0.04823 0.50256 0.11029 0.0
C1153 C 0.03668 0.5053 0.13229 0.0
C1154 C 0.01405 0.50604 0.12806 0.0
C1155 C 0.00373 0.50487 0.10267 0.0
H1156 H 0.47261 0.50641 0.20689 0.0
H1157 H 0.49793 0.58959 0.1953 0.0
H1158 H 0.48434 0.49977 0.16356 0.0
H1159 H 0.50924 0.58296 0.15195 0.0
H1160 H 0.55602 0.57172 0.09211 0.0
H1161 H 0.54146 0.57666 0.13408 0.0
H1162 H 0.47477 0.49757 0.11674 0.0
H1163 H 0.49009 0.49228 0.07512 0.0
C1164 C 0.48033 0.52314 0.19491 0.0
C1165 C 0.48462 0.54859 0.20457 0.0
C1166 C 0.48702 0.51936 0.17007 0.0
C1167 C 0.49801 0.54092 0.15437 0.0
C1168 C 0.5014 0.56609 0.16375 0.0
C1169 C 0.49486 0.56989 0.18856 0.0
C1170 C 0.53829 0.55538 0.09733 0.0
C1171 C 0.52404 0.53175 0.08032 0.0
C1172 C 0.52979 0.55829 0.12127 0.0
C1173 C 0.5068 0.53761 0.12874 0.0
C1174 C 0.49263 0.51382 0.1117 0.0
C1175 C 0.50123 0.51089 0.08776 0.0
H1176 H 0.96363 0.44752 0.79687 0.0
H1177 H 0.91486 0.4761 0.82417 0.0
H1178 H 0.98384 0.45552 0.84123 0.0
H1179 H 0.93551 0.48451 0.86874 0.0
H1180 H 0.99844 0.51759 0.94064 0.0
H1181 H 0.97815 0.513 0.89649 0.0
H1182 H 0.96911 0.43374 0.88209 0.0
H1183 H 0.98881 0.43816 0.926 0.0
C1184 C 0.95717 0.45547 0.81235 0.0
C1185 C 0.93736 0.4608 0.80699 0.0
C1186 C 0.9688 0.46011 0.83777 0.0
C1187 C 0.96105 0.47034 0.85852 0.0
C1188 C 0.94195 0.47672 0.8531 0.0
C1189 C 0.93016 0.47193 0.82759 0.0
C1190 C 0.99165 0.49905 0.92816 0.0
C1191 C 0.99497 0.47815 0.93679 0.0
C1192 C 0.98018 0.49646 0.90288 0.0
C1193 C 0.97223 0.47309 0.88576 0.0
C1194 C 0.97541 0.45217 0.89464 0.0
C1195 C 0.98662 0.45467 0.91983 0.0
H1196 H 0.58636 0.51277 0.83746 0.0
H1197 H 0.51216 0.48692 0.7988 0.0
H1198 H 0.57366 0.52383 0.87828 0.0
H1199 H 0.49956 0.4988 0.83935 0.0
H1200 H 0.47636 0.48583 0.92363 0.0
H1201 H 0.4889 0.48161 0.8802 0.0
H1202 H 0.56272 0.55216 0.90246 0.0
H1203 H 0.55003 0.55566 0.94613 0.0
C1204 C 0.5675 0.51004 0.8376 0.0
C1205 C 0.55018 0.49883 0.81505 0.0
C1206 C 0.5602 0.51646 0.86097 0.0
C1207 C 0.53548 0.51209 0.86225 0.0
C1208 C 0.51855 0.50192 0.8393 0.0
C1209 C 0.52577 0.49522 0.81602 0.0
C1210 C 0.49505 0.50069 0.91892 0.0
C1211 C 0.51236 0.52093 0.93804 0.0
C1212 C 0.50229 0.49836 0.89404 0.0
C1213 C 0.52696 0.51642 0.88777 0.0
C1214 C 0.54379 0.53754 0.90672 0.0
C1215 C 0.53657 0.53966 0.93167 0.0
H1216 H 0.52275 0.08803 0.83373 0.0
H1217 H 0.5318 0.02284 0.80092 0.0
H1218 H 0.51399 0.06796 0.87506 0.0
H1219 H 0.52336 1.00279 0.84279 0.0
H1220 H 0.47333 0.96331 0.91304 0.0
H1221 H 0.48614 0.98112 0.87074 0.0
H1222 H 0.53758 0.06 0.91085 0.0
H1223 H 0.5245 0.04255 0.95261 0.0
C1224 C 0.52286 0.06937 0.8354 0.0
C1225 C 0.52783 0.05692 0.8141 0.0
C1226 C 0.51809 0.05801 0.85914 0.0
C1227 C 0.51813 0.03388 0.86217 0.0
C1228 C 0.52313 0.02135 0.84092 0.0
C1229 C 0.52813 0.0329 0.8171 0.0
C1230 C 0.48762 0.98434 0.91272 0.0
C1231 C 0.49784 1.00156 0.93606 0.0
C1232 C 0.49502 0.99449 0.88858 0.0
C1233 C 0.51264 0.02201 0.88753 0.0
C1234 C 0.52368 0.03881 0.91103 0.0
C1235 C 0.51632 0.02873 0.93498 0.0
H1236 H 0.09032 0.28222 0.52415 0.0
H1237 H 0.1697 0.3256 0.55337 0.0
H1238 H 0.10091 0.30283 0.48321 0.0
H1239 H 0.18036 0.34567 0.51186 0.0
H1240 H 0.18786 0.38852 0.43632 0.0
H1241 H 0.1756 0.37615 0.48048 0.0
H1242 H 0.1228 0.2943 0.44806 0.0
H1243 H 0.13531 0.30636 0.40476 0.0
C1244 C 0.11 0.29657 0.52207 0.0
C1245 C 0.12918 0.30211 0.54201 0.0
C1246 C 0.11608 0.30821 0.49849 0.0
C1247 C 0.14148 0.32568 0.49422 0.0
C1248 C 0.1606 0.33239 0.51463 0.0
C1249 C 0.15452 0.32066 0.53827 0.0
C1250 C 0.1734 0.36803 0.43874 0.0
C1251 C 0.16221 0.34853 0.41704 0.0
C1252 C 0.16648 0.36093 0.46394 0.0
C1253 C 0.14804 0.33431 0.46769 0.0
C1254 C 0.13662 0.3151 0.44582 0.0
C1255 C 0.14374 0.32207 0.4209 0.0
H1256 H 0.76066 0.83373 0.53122 0.0
H1257 H 0.71322 0.86448 0.55755 0.0
H1258 H 0.73865 0.82276 0.48727 0.0
H1259 H 0.69194 0.85454 0.51339 0.0
H1260 H 0.64302 0.81183 0.43711 0.0
H1261 H 0.66302 0.81751 0.4814 0.0
H1262 H 0.73554 0.84601 0.45067 0.0
H1263 H 0.71543 0.83986 0.40649 0.0
C1264 C 0.74545 0.83804 0.52767 0.0
C1265 C 0.73872 0.85 0.54794 0.0
C1266 C 0.73301 0.83201 0.5024 0.0
C1267 C 0.71352 0.83778 0.49676 0.0
C1268 C 0.70664 0.84951 0.51709 0.0
C1269 C 0.71907 0.85554 0.54235 0.0
C1270 C 0.66318 0.81905 0.43986 0.0
C1271 C 0.67768 0.82546 0.41841 0.0
C1272 C 0.67468 0.82248 0.46523 0.0
C1273 C 0.70094 0.8324 0.46965 0.0
C1274 C 0.71526 0.83807 0.448 0.0
C1275 C 0.70375 0.83463 0.42266 0.0
H1276 H 0.11782 0.86571 0.51873 0.0
H1277 H 0.19487 0.8954 0.55161 0.0
H1278 H 0.12861 0.85565 0.47607 0.0
H1279 H 0.20564 0.88573 0.50899 0.0
H1280 H 0.22217 0.90214 0.42405 0.0
H1281 H 0.20922 0.90667 0.46702 0.0
H1282 H 0.14352 0.82671 0.45182 0.0
H1283 H 0.15697 0.82197 0.40867 0.0
C1284 C 0.13693 0.8697 0.51698 0.0
C1285 C 0.15558 0.88167 0.53851 0.0
C1286 C 0.14309 0.86394 0.49255 0.0
C1287 C 0.16802 0.8702 0.48917 0.0
C1288 C 0.18637 0.88116 0.51092 0.0
C1289 C 0.18022 0.88676 0.53531 0.0
C1290 C 0.205 0.88547 0.42988 0.0
C1291 C 0.19038 0.86181 0.41294 0.0
C1292 C 0.19764 0.88803 0.45453 0.0
C1293 C 0.17544 0.867 0.46283 0.0
C1294 C 0.16062 0.84332 0.44581 0.0
C1295 C 0.16818 0.84067 0.42111 0.0
H1296 H 0.6326 0.83791 0.13733 0.0
H1297 H 0.57652 0.75871 0.15576 0.0
H1298 H 0.65235 0.84861 0.1826 0.0
H1299 H 0.59628 0.7692 0.20067 0.0
H1300 H 0.62323 0.80386 0.28477 0.0
H1301 H 0.60334 0.79936 0.24079 0.0
H1302 H 0.67649 0.8325 0.21063 0.0
H1303 H 0.69646 0.83722 0.25481 0.0
C1304 C 0.62442 0.82291 0.15111 0.0
C1305 C 0.60315 0.79743 0.14303 0.0
C1306 C 0.63579 0.82895 0.17691 0.0
C1307 C 0.62584 0.80975 0.19516 0.0
C1308 C 0.60423 0.78452 0.18715 0.0
C1309 C 0.59307 0.77841 0.16138 0.0
C1310 C 0.6351 0.8105 0.26881 0.0
C1311 C 0.66135 0.8207 0.27311 0.0
C1312 C 0.6237 0.8078 0.24362 0.0
C1313 C 0.63833 0.81536 0.22224 0.0
C1314 C 0.66476 0.82666 0.22675 0.0
C1315 C 0.67616 0.82923 0.25198 0.0
H1316 H 0.2559 0.84709 0.16484 0.0
H1317 H 0.17725 0.79817 0.13378 0.0
H1318 H 0.24284 0.85724 0.20573 0.0
H1319 H 0.16416 0.80609 0.17526 0.0
H1320 H 0.14462 0.83535 0.24807 0.0
H1321 H 0.15945 0.83396 0.20522 0.0
H1322 H 0.22622 0.83715 0.24299 0.0
H1323 H 0.21173 0.83987 0.28538 0.0
C1324 C 0.23582 0.83861 0.16661 0.0
C1325 C 0.21767 0.82148 0.14601 0.0
C1326 C 0.22827 0.84405 0.19032 0.0
C1327 C 0.20236 0.83216 0.19421 0.0
C1328 C 0.18428 0.81589 0.17319 0.0
C1329 C 0.19182 0.8109 0.14939 0.0
C1330 C 0.16259 0.83606 0.24702 0.0
C1331 C 0.17732 0.83827 0.26998 0.0
C1332 C 0.17108 0.83507 0.22249 0.0
C1333 C 0.19417 0.83546 0.22037 0.0
C1334 C 0.20875 0.83758 0.24359 0.0
C1335 C 0.20048 0.83916 0.26806 0.0
H1336 H 0.15809 0.36272 0.13733 0.0
H1337 H 0.23299 0.41938 0.17486 0.0
H1338 H 0.14538 0.34364 0.17874 0.0
H1339 H 0.22026 0.40011 0.21637 0.0
H1340 H 0.19117 0.34083 0.28095 0.0
H1341 H 0.20622 0.3579 0.23903 0.0
H1342 H 0.13792 0.36101 0.22035 0.0
H1343 H 0.12315 0.34428 0.26211 0.0
C1344 C 0.17185 0.37105 0.15443 0.0
C1345 C 0.19644 0.39274 0.15292 0.0
C1346 C 0.16458 0.36013 0.17812 0.0
C1347 C 0.18175 0.37061 0.20083 0.0
C1348 C 0.20669 0.39154 0.19913 0.0
C1349 C 0.21396 0.40253 0.17538 0.0
C1350 C 0.1796 0.34548 0.26793 0.0
C1351 C 0.15614 0.34148 0.27473 0.0
C1352 C 0.18814 0.35515 0.24398 0.0
C1353 C 0.17315 0.36059 0.22637 0.0
C1354 C 0.14969 0.35655 0.23332 0.0
C1355 C 0.14128 0.3471 0.25725 0.0
H1356 H 0.8324 0.64699 0.88449 0.0
H1357 H 0.75794 0.59627 0.84338 0.0
H1358 H 0.84622 0.67285 0.8467 0.0
H1359 H 0.77184 0.62139 0.80518 0.0
H1360 H 0.79846 0.6801 0.74408 0.0
H1361 H 0.78467 0.66243 0.78607 0.0
H1362 H 0.85656 0.66644 0.80441 0.0
H1363 H 0.8702 0.68465 0.76283 0.0
C1364 C 0.81902 0.64141 0.8673 0.0
C1365 C 0.79417 0.61957 0.86674 0.0
C1366 C 0.82692 0.65614 0.84562 0.0
C1367 C 0.81024 0.64912 0.82274 0.0
C1368 C 0.78512 0.62769 0.82255 0.0
C1369 C 0.77715 0.61317 0.84437 0.0
C1370 C 0.81128 0.67745 0.75738 0.0
C1371 C 0.83527 0.68358 0.75049 0.0
C1372 C 0.80342 0.66725 0.78133 0.0
C1373 C 0.81942 0.66279 0.79863 0.0
C1374 C 0.84386 0.66998 0.79188 0.0
C1375 C 0.85171 0.68035 0.76807 0.0
H1376 H 0.44628 0.22828 0.8584 0.0
H1377 H 0.38756 0.15056 0.87728 0.0
H1378 H 0.42329 0.22118 0.81571 0.0
H1379 H 0.36447 0.14335 0.8342 0.0
H1380 H 0.34159 0.13396 0.74427 0.0
H1381 H 0.36618 0.1377 0.78538 0.0
H1382 H 0.38323 0.21993 0.80197 0.0
H1383 H 0.35919 0.21627 0.76087 0.0
C1384 C 0.42846 0.20961 0.85338 0.0
C1385 C 0.41851 0.19018 0.8714 0.0
C1386 C 0.41529 0.20556 0.82892 0.0
C1387 C 0.39186 0.18192 0.82176 0.0
C1388 C 0.38251 0.16177 0.83916 0.0
C1389 C 0.39572 0.16587 0.8638 0.0
C1390 C 0.35083 0.15285 0.75668 0.0
C1391 C 0.34876 0.17492 0.74936 0.0
C1392 C 0.36467 0.15492 0.78027 0.0
C1393 C 0.37681 0.17917 0.79682 0.0
C1394 C 0.37445 0.20111 0.78947 0.0
C1395 C 0.3605 0.19896 0.76606 0.0
H1396 H 0.80881 0.16798 0.88191 0.0
H1397 H 0.82751 0.24722 0.8613 0.0
H1398 H 0.8164 0.15672 0.83782 0.0
H1399 H 0.83531 0.23618 0.81761 0.0
H1400 H 0.82333 0.20009 0.7345 0.0
H1401 H 0.8109 0.2055 0.77756 0.0
H1402 H 0.85432 0.17205 0.81122 0.0
H1403 H 0.8666 0.16631 0.76777 0.0
C1404 C 0.81437 0.18287 0.86789 0.0
C1405 C 0.81768 0.2085 0.875 0.0
C1406 C 0.81888 0.17652 0.84279 0.0
C1407 C 0.82641 0.19556 0.82429 0.0
C1408 C 0.82928 0.22099 0.83135 0.0
C1409 C 0.82503 0.2274 0.85642 0.0
C1410 C 0.82996 0.19354 0.751 0.0
C1411 C 0.84602 0.18288 0.74784 0.0
C1412 C 0.82296 0.1968 0.77569 0.0
C1413 C 0.83182 0.18943 0.79779 0.0
C1414 C 0.84709 0.17777 0.7945 0.0
C1415 C 0.85422 0.17461 0.76971 0.0
H1416 H 0.24992 0.15137 0.4927 0.0
H1417 H 0.29194 0.11279 0.46934 0.0
H1418 H 0.27305 0.16431 0.536 0.0
H1419 H 0.31307 0.12324 0.51314 0.0
H1420 H 0.36185 0.15915 0.58823 0.0
H1421 H 0.34322 0.1553 0.54384 0.0
H1422 H 0.27571 0.14723 0.57502 0.0
H1423 H 0.29533 0.15284 0.61924 0.0
C1424 C 0.2641 0.14566 0.49669 0.0
C1425 C 0.26886 0.13085 0.47737 0.0
C1426 C 0.27712 0.15272 0.52178 0.0
C1427 C 0.29496 0.14477 0.52837 0.0
C1428 C 0.29987 0.13023 0.50891 0.0
C1429 C 0.28727 0.12368 0.48375 0.0
C1430 C 0.34323 0.15709 0.58542 0.0
C1431 C 0.33014 0.1567 0.607 0.0
C1432 C 0.33236 0.15455 0.56 0.0
C1433 C 0.3077 0.1506 0.55557 0.0
C1434 C 0.29487 0.15075 0.57744 0.0
C1435 C 0.30608 0.15398 0.6029 0.0
H1436 H 0.84308 0.14357 0.46536 0.0
H1437 H 0.91913 0.17085 0.49975 0.0
H1438 H 0.83195 0.15391 0.50767 0.0
H1439 H 0.90813 0.18158 0.54196 0.0
H1440 H 0.86482 0.15408 0.61597 0.0
H1441 H 0.87942 0.15176 0.57337 0.0
H1442 H 0.84107 0.19157 0.54195 0.0
H1443 H 0.82684 0.19444 0.58507 0.0
C1444 C 0.85748 0.15209 0.48191 0.0
C1445 C 0.88191 0.15623 0.47934 0.0
C1446 C 0.85118 0.15822 0.50605 0.0
C1447 C 0.86913 0.16839 0.52813 0.0
C1448 C 0.89385 0.17351 0.52531 0.0
C1449 C 0.9002 0.16759 0.50112 0.0
C1450 C 0.86001 0.16294 0.60016 0.0
C1451 C 0.84509 0.17488 0.60391 0.0
C1452 C 0.86833 0.16155 0.57573 0.0
C1453 C 0.86157 0.17168 0.55438 0.0
C1454 C 0.84654 0.18357 0.55808 0.0
C1455 C 0.83843 0.18524 0.58269 0.0
H1456 H 0.89937 0.74998 0.50444 0.0
H1457 H 0.82359 0.69283 0.46934 0.0
H1458 H 0.8889 0.72965 0.54562 0.0
H1459 H 0.81271 0.67347 0.51084 0.0
H1460 H 0.80532 0.63108 0.58448 0.0
H1461 H 0.81914 0.6475 0.54207 0.0
H1462 H 0.86346 0.72894 0.57968 0.0
H1463 H 0.84963 0.71236 0.62157 0.0
C1464 C 0.88055 0.73293 0.50542 0.0
C1465 C 0.86227 0.72317 0.48363 0.0
C1466 C 0.87444 0.72148 0.52914 0.0
C1467 C 0.84988 0.70007 0.53165 0.0
C1468 C 0.83186 0.68976 0.5096 0.0
C1469 C 0.83801 0.70111 0.48587 0.0
C1470 C 0.81825 0.65242 0.58355 0.0
C1471 C 0.82714 0.67038 0.60636 0.0
C1472 C 0.82608 0.66186 0.55932 0.0
C1473 C 0.84266 0.68954 0.55747 0.0
C1474 C 0.85134 0.70742 0.58043 0.0
C1475 C 0.84359 0.69792 0.60456 0.0
loop_
_geom_bond_atom_site_label_1
_geom_bond_atom_site_label_2
_geom_bond_distance
_geom_bond_site_symmetry_2
_ccdc_geom_bond_type
H0 C5 0.930 . S
H1 C8 0.930 . S
H2 C10 0.930 . S
H3 C4 1.016 . S
C4 H3 1.016 . S
C4 N11 1.286 . S
C5 H0 0.930 . S
C5 C6 1.397 . S
C5 C7 1.361 . S
C6 C5 1.397 . S
C6 C10 1.390 . S
C7 C5 1.361 . S
C7 C8 1.393 . S
C7 N11 1.413 . S
C8 H1 0.930 . S
C8 C7 1.393 . S
C8 C9 1.399 . S
C9 C8 1.399 . S
C9 C10 1.381 . S
C10 H2 0.930 . S
C10 C6 1.390 . S
C10 C9 1.381 . S
N11 C4 1.286 . S
N11 C7 1.413 . S
H12 C17 0.930 . S
H13 C20 0.930 . S
H14 C22 0.930 . S
H15 C16 1.016 . S
C16 H15 1.016 . S
C16 N23 1.286 . S
C17 H12 0.930 . S
C17 C18 1.397 . S
C17 C19 1.361 . S
C18 C17 1.397 . S
C18 C22 1.390 . S
C19 C17 1.361 . S
C19 C20 1.393 . S
C19 N23 1.413 . S
C20 H13 0.930 . S
C20 C19 1.393 . S
C20 C21 1.399 . S
C21 C20 1.399 . S
C21 C22 1.381 . S
C22 H14 0.930 . S
C22 C18 1.390 . S
C22 C21 1.381 . S
N23 C16 1.286 . S
N23 C19 1.413 . S
H24 C29 0.930 . S
H25 C32 0.930 . S
H26 C34 0.930 . S
H27 C28 1.016 . S
C28 H27 1.016 . S
C28 N35 1.286 . S
C29 H24 0.930 . S
C29 C30 1.397 . S
C29 C31 1.361 . S
C30 C29 1.397 . S
C30 C34 1.390 . S
C31 C29 1.361 . S
C31 C32 1.393 . S
C31 N35 1.413 . S
C32 H25 0.930 . S
C32 C31 1.393 . S
C32 C33 1.399 . S
C33 C32 1.399 . S
C33 C34 1.381 . S
C34 H26 0.930 . S
C34 C30 1.390 . S
C34 C33 1.381 . S
N35 C28 1.286 . S
N35 C31 1.413 . S
H36 C41 0.930 . S
H37 C44 0.930 . S
H38 C46 0.930 . S
H39 C40 1.016 . S
C40 H39 1.016 . S
C40 N47 1.286 . S
C41 H36 0.930 . S
C41 C42 1.397 . S
C41 C43 1.361 . S
C42 C41 1.397 . S
C42 C46 1.390 . S
C43 C41 1.361 . S
C43 C44 1.393 . S
C43 N47 1.413 . S
C44 H37 0.930 . S
C44 C43 1.393 . S
C44 C45 1.399 . S
C45 C44 1.399 . S
C45 C46 1.381 . S
C46 H38 0.930 . S
C46 C42 1.390 . S
C46 C45 1.381 . S
N47 C40 1.286 . S
N47 C43 1.413 . S
H48 C53 0.930 . S
H49 C56 0.930 . S
H50 C58 0.930 . S
H51 C52 1.016 . S
C52 H51 1.016 . S
C52 N59 1.286 . S
C53 H48 0.930 . S
C53 C54 1.397 . S
C53 C55 1.361 . S
C54 C53 1.397 . S
C54 C58 1.390 . S
C55 C53 1.361 . S
C55 C56 1.393 . S
C55 N59 1.413 . S
C56 H49 0.930 . S
C56 C55 1.393 . S
C56 C57 1.399 . S
C57 C56 1.399 . S
C57 C58 1.381 . S
C58 H50 0.930 . S
C58 C54 1.390 . S
C58 C57 1.381 . S
N59 C52 1.286 . S
N59 C55 1.413 . S
H60 C65 0.930 . S
H61 C68 0.930 . S
H62 C70 0.930 . S
H63 C64 1.016 . S
C64 H63 1.016 . S
C64 N71 1.286 . S
C65 H60 0.930 . S
C65 C66 1.397 . S
C65 C67 1.361 . S
C66 C65 1.397 . S
C66 C70 1.390 . S
C67 C65 1.361 . S
C67 C68 1.393 . S
C67 N71 1.413 . S
C68 H61 0.930 . S
C68 C67 1.393 . S
C68 C69 1.399 . S
C69 C68 1.399 . S
C69 C70 1.381 . S
C70 H62 0.930 . S
C70 C66 1.390 . S
C70 C69 1.381 . S
N71 C64 1.286 . S
N71 C67 1.413 . S
H72 C77 0.930 . S
H73 C80 0.930 . S
H74 C82 0.930 . S
H75 C76 1.016 . S
C76 H75 1.016 . S
C76 N83 1.286 . S
C77 H72 0.930 . S
C77 C78 1.397 . S
C77 C79 1.361 . S
C78 C77 1.397 . S
C78 C82 1.390 . S
C79 C77 1.361 . S
C79 C80 1.393 . S
C79 N83 1.413 . S
C80 H73 0.930 . S
C80 C79 1.393 . S
C80 C81 1.399 . S
C81 C80 1.399 . S
C81 C82 1.381 . S
C82 H74 0.930 . S
C82 C78 1.390 . S
C82 C81 1.381 . S
N83 C76 1.286 . S
N83 C79 1.413 . S
H84 C89 0.930 . S
H85 C92 0.930 . S
H86 C94 0.930 . S
H87 C88 1.016 . S
C88 H87 1.016 . S
C88 N95 1.286 . S
C89 H84 0.930 . S
C89 C90 1.397 . S
C89 C91 1.361 . S
C90 C89 1.397 . S
C90 C94 1.390 . S
C91 C89 1.361 . S
C91 C92 1.393 . S
C91 N95 1.413 . S
C92 H85 0.930 . S
C92 C91 1.393 . S
C92 C93 1.399 . S
C93 C92 1.399 . S
C93 C94 1.381 . S
C94 H86 0.930 . S
C94 C90 1.390 . S
C94 C93 1.381 . S
N95 C88 1.286 . S
N95 C91 1.413 . S
H96 C101 0.930 . S
H97 C104 0.930 . S
H98 C106 0.930 . S
H99 C100 1.016 . S
C100 H99 1.016 . S
C100 N107 1.286 . S
C101 H96 0.930 . S
C101 C102 1.397 . S
C101 C103 1.361 . S
C102 C101 1.397 . S
C102 C106 1.390 . S
C103 C101 1.361 . S
C103 C104 1.393 . S
C103 N107 1.413 . S
C104 H97 0.930 . S
C104 C103 1.393 . S
C104 C105 1.399 . S
C105 C104 1.399 . S
C105 C106 1.381 . S
C106 H98 0.930 . S
C106 C102 1.390 . S
C106 C105 1.381 . S
N107 C100 1.286 . S
N107 C103 1.413 . S
H108 C113 0.930 . S
H109 C116 0.930 . S
H110 C118 0.930 . S
H111 C112 1.016 . S
C112 H111 1.016 . S
C112 N119 1.286 . S
C113 H108 0.930 . S
C113 C114 1.397 . S
C113 C115 1.361 . S
C114 C113 1.397 . S
C114 C118 1.390 . S
C115 C113 1.361 . S
C115 C116 1.393 . S
C115 N119 1.413 . S
C116 H109 0.930 . S
C116 C115 1.393 . S
C116 C117 1.399 . S
C117 C116 1.399 . S
C117 C118 1.381 . S
C118 H110 0.930 . S
C118 C114 1.390 . S
C118 C117 1.381 . S
N119 C112 1.286 . S
N119 C115 1.413 . S
H120 C125 0.930 . S
H121 C128 0.930 . S
H122 C130 0.930 . S
H123 C124 1.016 . S
C124 H123 1.016 . S
C124 N131 1.286 . S
C125 H120 0.930 . S
C125 C126 1.397 . S
C125 C127 1.361 . S
C126 C125 1.397 . S
C126 C130 1.390 . S
C127 C125 1.361 . S
C127 C128 1.393 . S
C127 N131 1.413 . S
C128 H121 0.930 . S
C128 C127 1.393 . S
C128 C129 1.399 . S
C129 C128 1.399 . S
C129 C130 1.381 . S
C130 H122 0.930 . S
C130 C126 1.390 . S
C130 C129 1.381 . S
N131 C124 1.286 . S
N131 C127 1.413 . S
H132 C137 0.930 . S
H133 C140 0.930 . S
H134 C142 0.930 . S
H135 C136 1.016 . S
C136 H135 1.016 . S
C136 N143 1.286 . S
C137 H132 0.930 . S
C137 C138 1.397 . S
C137 C139 1.361 . S
C138 C137 1.397 . S
C138 C142 1.390 . S
C139 C137 1.361 . S
C139 C140 1.393 . S
C139 N143 1.413 . S
C140 H133 0.930 . S
C140 C139 1.393 . S
C140 C141 1.399 . S
C141 C140 1.399 . S
C141 C142 1.381 . S
C142 H134 0.930 . S
C142 C138 1.390 . S
C142 C141 1.381 . S
N143 C136 1.286 . S
N143 C139 1.413 . S
H144 C149 0.930 . S
H145 C152 0.930 . S
H146 C154 0.930 . S
H147 C148 1.016 . S
C148 H147 1.016 . S
C148 N155 1.286 . S
C149 H144 0.930 . S
C149 C150 1.397 . S
C149 C151 1.361 . S
C150 C149 1.397 . S
C150 C154 1.390 . S
C151 C149 1.361 . S
C151 C152 1.393 . S
C151 N155 1.413 . S
C152 H145 0.930 . S
C152 C151 1.393 . S
C152 C153 1.399 . S
C153 C152 1.399 . S
C153 C154 1.381 . S
C154 H146 0.930 . S
C154 C150 1.390 . S
C154 C153 1.381 . S
N155 C148 1.286 . S
N155 C151 1.413 . S
H156 C161 0.930 . S
H157 C164 0.930 . S
H158 C166 0.930 . S
H159 C160 1.016 . S
C160 H159 1.016 . S
C160 N167 1.286 . S
C161 H156 0.930 . S
C161 C162 1.397 . S
C161 C163 1.361 . S
C162 C161 1.397 . S
C162 C166 1.390 . S
C163 C161 1.361 . S
C163 C164 1.393 . S
C163 N167 1.413 . S
C164 H157 0.930 . S
C164 C163 1.393 . S
C164 C165 1.399 . S
C165 C164 1.399 . S
C165 C166 1.381 . S
C166 H158 0.930 . S
C166 C162 1.390 . S
C166 C165 1.381 . S
N167 C160 1.286 . S
N167 C163 1.413 . S
H168 C173 0.930 . S
H169 C176 0.930 . S
H170 C178 0.930 . S
H171 C172 1.016 . S
C172 H171 1.016 . S
C172 N179 1.286 . S
C173 H168 0.930 . S
C173 C174 1.397 . S
C173 C175 1.361 . S
C174 C173 1.397 . S
C174 C178 1.390 . S
C175 C173 1.361 . S
C175 C176 1.393 . S
C175 N179 1.413 . S
C176 H169 0.930 . S
C176 C175 1.393 . S
C176 C177 1.399 . S
C177 C176 1.399 . S
C177 C178 1.381 . S
C178 H170 0.930 . S
C178 C174 1.390 . S
C178 C177 1.381 . S
N179 C172 1.286 . S
N179 C175 1.413 . S
H180 C185 0.930 . S
H181 C188 0.930 . S
H182 C190 0.930 . S
H183 C184 1.016 . S
C184 H183 1.016 . S
C184 N191 1.286 . S
C185 H180 0.930 . S
C185 C186 1.397 . S
C185 C187 1.361 . S
C186 C185 1.397 . S
C186 C190 1.390 . S
C187 C185 1.361 . S
C187 C188 1.393 . S
C187 N191 1.413 . S
C188 H181 0.930 . S
C188 C187 1.393 . S
C188 C189 1.399 . S
C189 C188 1.399 . S
C189 C190 1.381 . S
C190 H182 0.930 . S
C190 C186 1.390 . S
C190 C189 1.381 . S
N191 C184 1.286 . S
N191 C187 1.413 . S
H192 C197 0.930 . S
H193 C200 0.930 . S
H194 C202 0.930 . S
H195 C196 1.016 . S
C196 H195 1.016 . S
C196 N203 1.286 . S
C197 H192 0.930 . S
C197 C198 1.397 . S
C197 C199 1.361 . S
C198 C197 1.397 . S
C198 C202 1.390 . S
C199 C197 1.361 . S
C199 C200 1.393 . S
C199 N203 1.413 . S
C200 H193 0.930 . S
C200 C199 1.393 . S
C200 C201 1.399 . S
C201 C200 1.399 . S
C201 C202 1.381 . S
C202 H194 0.930 . S
C202 C198 1.390 . S
C202 C201 1.381 . S
N203 C196 1.286 . S
N203 C199 1.413 . S
H204 C209 0.930 . S
H205 C212 0.930 . S
H206 C214 0.930 . S
H207 C208 1.016 . S
C208 H207 1.016 . S
C208 N215 1.286 . S
C209 H204 0.930 . S
C209 C210 1.397 . S
C209 C211 1.361 . S
C210 C209 1.397 . S
C210 C214 1.390 . S
C211 C209 1.361 . S
C211 C212 1.393 . S
C211 N215 1.413 . S
C212 H205 0.930 . S
C212 C211 1.393 . S
C212 C213 1.399 . S
C213 C212 1.399 . S
C213 C214 1.381 . S
C214 H206 0.930 . S
C214 C210 1.390 . S
C214 C213 1.381 . S
N215 C208 1.286 . S
N215 C211 1.413 . S
Tb216 O219 2.453 . S
Tb216 O220 2.596 1_545 S
Tb216 O221 2.374 1_545 S
Tb216 O229 2.343 1_554 S
Tb216 O231 2.353 . S
Tb216 O233 2.427 . S
Tb216 O234 2.513 1_554 S
C217 O221 1.251 . S
C217 O223 1.263 1_554 S
Tb218 O220 2.343 1_556 S
Tb218 O223 2.353 . S
Tb218 O226 2.427 1_556 S
Tb218 O227 2.513 1_556 S
Tb218 O228 2.453 . S
Tb218 O229 2.596 1_565 S
Tb218 O230 2.374 1_565 S
O219 Tb216 2.453 . S
O219 C235 1.245 1_545 S
O220 Tb216 2.596 1_565 S
O220 Tb218 2.343 1_554 S
O220 C235 1.259 . S
O221 Tb216 2.374 1_565 S
O221 C217 1.251 . S
C222 O226 1.275 . S
C222 O227 1.246 . S
O223 C217 1.263 1_556 S
O223 Tb218 2.353 . S
C224 O228 1.245 1_545 S
C224 O229 1.259 . S
C225 O230 1.250 1_554 S
C225 O231 1.263 . S
O226 Tb218 2.427 1_554 S
O226 C222 1.275 . S
O227 Tb218 2.513 1_554 S
O227 C222 1.246 . S
O228 Tb218 2.453 . S
O228 C224 1.245 1_565 S
O229 Tb216 2.343 1_556 S
O229 Tb218 2.596 1_545 S
O229 C224 1.259 . S
O230 Tb218 2.374 1_545 S
O230 C225 1.250 1_556 S
O231 Tb216 2.353 . S
O231 C225 1.263 . S
C232 O233 1.275 1_556 S
C232 O234 1.246 . S
O233 Tb216 2.427 . S
O233 C232 1.275 1_554 S
O234 Tb216 2.513 1_556 S
O234 C232 1.246 . S
C235 O219 1.245 1_565 S
C235 O220 1.259 . S
Tb236 O239 2.453 . S
Tb236 O240 2.596 1_655 S
Tb236 O241 2.374 1_655 S
Tb236 O249 2.343 1_554 S
Tb236 O251 2.353 . S
Tb236 O253 2.427 1_554 S
Tb236 O254 2.513 1_554 S
C237 O241 1.251 . S
C237 O243 1.263 . S
Tb238 O240 2.343 1_556 S
Tb238 O243 2.353 1_556 S
Tb238 O246 2.427 1_556 S
Tb238 O247 2.513 1_556 S
Tb238 O248 2.453 . S
Tb238 O249 2.596 1_455 S
Tb238 O250 2.374 1_455 S
O239 Tb236 2.453 . S
O239 C255 1.245 1_655 S
O240 Tb236 2.596 1_455 S
O240 Tb238 2.343 1_554 S
O240 C255 1.259 . S
O241 Tb236 2.374 1_455 S
O241 C237 1.251 . S
C242 O246 1.275 . S
C242 O247 1.246 . S
O243 C237 1.263 . S
O243 Tb238 2.353 1_554 S
C244 O248 1.245 1_655 S
C244 O249 1.259 . S
C245 O250 1.249 1_554 S
C245 O251 1.265 . S
O246 Tb238 2.427 1_554 S
O246 C242 1.275 . S
O247 Tb238 2.513 1_554 S
O247 C242 1.246 . S
O248 Tb238 2.453 . S
O248 C244 1.245 1_455 S
O249 Tb236 2.343 1_556 S
O249 Tb238 2.596 1_655 S
O249 C244 1.259 . S
O250 Tb238 2.374 1_655 S
O250 C245 1.249 1_556 S
O251 Tb236 2.353 . S
O251 C245 1.265 . S
C252 O253 1.275 . S
C252 O254 1.246 . S
O253 Tb236 2.427 1_556 S
O253 C252 1.275 . S
O254 Tb236 2.513 1_556 S
O254 C252 1.246 . S
C255 O239 1.245 1_455 S
C255 O240 1.259 . S
Tb256 O259 2.453 . S
Tb256 O260 2.596 . S
Tb256 O261 2.374 1_556 S
Tb256 O269 2.343 1_556 S
Tb256 O271 2.353 1_556 S
Tb256 O273 2.427 1_556 S
Tb256 O274 2.513 1_556 S
C257 O261 1.251 . S
C257 O263 1.263 . S
Tb258 O260 2.343 1_554 S
Tb258 O263 2.353 . S
Tb258 O266 2.427 . S
Tb258 O267 2.513 1_554 S
Tb258 O268 2.453 . S
Tb258 O269 2.596 . S
Tb258 O270 2.374 . S
O259 Tb256 2.453 . S
O259 C275 1.245 . S
O260 Tb256 2.596 . S
O260 Tb258 2.343 1_556 S
O260 C275 1.259 . S
O261 Tb256 2.374 1_554 S
O261 C257 1.251 . S
C262 O266 1.275 1_556 S
C262 O267 1.246 . S
O263 C257 1.263 . S
O263 Tb258 2.353 . S
C264 O268 1.245 . S
C264 O269 1.259 . S
C265 O270 1.250 . S
C265 O271 1.263 . S
O266 Tb258 2.427 . S
O266 C262 1.275 1_554 S
O267 Tb258 2.513 1_556 S
O267 C262 1.246 . S
O268 Tb258 2.453 . S
O268 C264 1.245 . S
O269 Tb256 2.343 1_554 S
O269 Tb258 2.596 . S
O269 C264 1.259 . S
O270 Tb258 2.374 . S
O270 C265 1.250 . S
O271 Tb256 2.353 1_554 S
O271 C265 1.263 . S
C272 O273 1.275 . S
C272 O274 1.246 . S
O273 Tb256 2.427 1_554 S
O273 C272 1.275 . S
O274 Tb256 2.513 1_554 S
O274 C272 1.246 . S
C275 O259 1.245 . S
C275 O260 1.259 . S
Tb276 O279 2.453 . S
Tb276 O280 2.596 . S
Tb276 O281 2.374 . S
Tb276 O289 2.343 . S
Tb276 O291 2.353 . S
Tb276 O293 2.427 . S
Tb276 O294 2.513 . S
C277 O281 1.251 . S
C277 O283 1.263 . S
Tb278 O280 2.343 . S
Tb278 O283 2.353 . S
Tb278 O286 2.427 . S
Tb278 O287 2.513 . S
Tb278 O288 2.453 . S
Tb278 O289 2.596 . S
Tb278 O290 2.374 . S
O279 Tb276 2.453 . S
O279 C295 1.245 . S
O280 Tb276 2.596 . S
O280 Tb278 2.343 . S
O280 C295 1.259 . S
O281 Tb276 2.374 . S
O281 C277 1.251 . S
C282 O286 1.275 . S
C282 O287 1.246 . S
O283 C277 1.263 . S
O283 Tb278 2.353 . S
C284 O288 1.245 . S
C284 O289 1.259 . S
C285 O290 1.250 . S
C285 O291 1.263 . S
O286 Tb278 2.427 . S
O286 C282 1.275 . S
O287 Tb278 2.513 . S
O287 C282 1.246 . S
O288 Tb278 2.453 . S
O288 C284 1.245 . S
O289 Tb276 2.343 . S
O289 Tb278 2.596 . S
O289 C284 1.259 . S
O290 Tb278 2.374 . S
O290 C285 1.250 . S
O291 Tb276 2.353 . S
O291 C285 1.263 . S
C292 O293 1.275 . S
C292 O294 1.246 . S
O293 Tb276 2.427 . S
O293 C292 1.275 . S
O294 Tb276 2.513 . S
O294 C292 1.246 . S
C295 O279 1.245 . S
C295 O280 1.259 . S
Tb296 O299 2.453 . S
Tb296 O300 2.596 . S
Tb296 O301 2.374 . S
Tb296 O309 2.343 . S
Tb296 O311 2.353 . S
Tb296 O313 2.427 . S
Tb296 O314 2.513 . S
C297 O301 1.251 . S
C297 O303 1.263 . S
Tb298 O300 2.343 . S
Tb298 O303 2.353 . S
Tb298 O306 2.427 . S
Tb298 O307 2.513 . S
Tb298 O308 2.453 . S
Tb298 O309 2.596 . S
Tb298 O310 2.374 . S
O299 Tb296 2.453 . S
O299 C315 1.245 . S
O300 Tb296 2.596 . S
O300 Tb298 2.343 . S
O300 C315 1.259 . S
O301 Tb296 2.374 . S
O301 C297 1.251 . S
C302 O306 1.275 . S
C302 O307 1.246 . S
O303 C297 1.263 . S
O303 Tb298 2.353 . S
C304 O308 1.245 . S
C304 O309 1.259 . S
C305 O310 1.250 . S
C305 O311 1.263 . S
O306 Tb298 2.427 . S
O306 C302 1.275 . S
O307 Tb298 2.513 . S
O307 C302 1.246 . S
O308 Tb298 2.453 . S
O308 C304 1.245 . S
O309 Tb296 2.343 . S
O309 Tb298 2.596 . S
O309 C304 1.259 . S
O310 Tb298 2.374 . S
O310 C305 1.250 . S
O311 Tb296 2.353 . S
O311 C305 1.263 . S
C312 O313 1.275 . S
C312 O314 1.246 . S
O313 Tb296 2.427 . S
O313 C312 1.275 . S
O314 Tb296 2.513 . S
O314 C312 1.246 . S
C315 O299 1.245 . S
C315 O300 1.259 . S
Tb316 O319 2.453 . S
Tb316 O320 2.596 . S
Tb316 O321 2.374 . S
Tb316 O329 2.343 . S
Tb316 O331 2.353 . S
Tb316 O333 2.427 . S
Tb316 O334 2.513 . S
C317 O321 1.251 . S
C317 O323 1.263 . S
Tb318 O320 2.343 . S
Tb318 O323 2.353 . S
Tb318 O326 2.427 . S
Tb318 O327 2.513 . S
Tb318 O328 2.453 . S
Tb318 O329 2.596 . S
Tb318 O330 2.374 . S
O319 Tb316 2.453 . S
O319 C335 1.245 . S
O320 Tb316 2.596 . S
O320 Tb318 2.343 . S
O320 C335 1.259 . S
O321 Tb316 2.374 . S
O321 C317 1.251 . S
C322 O326 1.275 . S
C322 O327 1.246 . S
O323 C317 1.263 . S
O323 Tb318 2.353 . S
C324 O328 1.245 . S
C324 O329 1.259 . S
C325 O330 1.250 . S
C325 O331 1.263 . S
O326 Tb318 2.427 . S
O326 C322 1.275 . S
O327 Tb318 2.513 . S
O327 C322 1.246 . S
O328 Tb318 2.453 . S
O328 C324 1.245 . S
O329 Tb316 2.343 . S
O329 Tb318 2.596 . S
O329 C324 1.259 . S
O330 Tb318 2.374 . S
O330 C325 1.250 . S
O331 Tb316 2.353 . S
O331 C325 1.263 . S
C332 O333 1.275 . S
C332 O334 1.246 . S
O333 Tb316 2.427 . S
O333 C332 1.275 . S
O334 Tb316 2.513 . S
O334 C332 1.246 . S
C335 O319 1.245 . S
C335 O320 1.259 . S
Tb336 O339 2.453 . S
Tb336 O340 2.596 . S
Tb336 O341 2.374 . S
Tb336 O349 2.343 . S
Tb336 O351 2.353 . S
Tb336 O353 2.427 . S
Tb336 O354 2.513 . S
C337 O341 1.251 . S
C337 O343 1.263 . S
Tb338 O340 2.343 . S
Tb338 O343 2.353 . S
Tb338 O346 2.427 . S
Tb338 O347 2.513 . S
Tb338 O348 2.453 . S
Tb338 O349 2.596 . S
Tb338 O350 2.374 . S
O339 Tb336 2.453 . S
O339 C355 1.245 . S
O340 Tb336 2.596 . S
O340 Tb338 2.343 . S
O340 C355 1.259 . S
O341 Tb336 2.374 . S
O341 C337 1.251 . S
C342 O346 1.275 . S
C342 O347 1.246 . S
O343 C337 1.263 . S
O343 Tb338 2.353 . S
C344 O348 1.245 . S
C344 O349 1.259 . S
C345 O350 1.250 . S
C345 O351 1.263 . S
O346 Tb338 2.427 . S
O346 C342 1.275 . S
O347 Tb338 2.513 . S
O347 C342 1.246 . S
O348 Tb338 2.453 . S
O348 C344 1.245 . S
O349 Tb336 2.343 . S
O349 Tb338 2.596 . S
O349 C344 1.259 . S
O350 Tb338 2.374 . S
O350 C345 1.250 . S
O351 Tb336 2.353 . S
O351 C345 1.263 . S
C352 O353 1.275 . S
C352 O354 1.246 . S
O353 Tb336 2.427 . S
O353 C352 1.275 . S
O354 Tb336 2.513 . S
O354 C352 1.246 . S
C355 O339 1.245 . S
C355 O340 1.259 . S
Tb356 O359 2.453 . S
Tb356 O360 2.596 . S
Tb356 O361 2.374 . S
Tb356 O369 2.343 . S
Tb356 O371 2.353 . S
Tb356 O373 2.427 . S
Tb356 O374 2.513 . S
C357 O361 1.251 . S
C357 O363 1.263 . S
Tb358 O360 2.343 . S
Tb358 O363 2.353 . S
Tb358 O366 2.427 . S
Tb358 O367 2.513 . S
Tb358 O368 2.453 . S
Tb358 O369 2.596 . S
Tb358 O370 2.374 . S
O359 Tb356 2.453 . S
O359 C375 1.245 . S
O360 Tb356 2.596 . S
O360 Tb358 2.343 . S
O360 C375 1.259 . S
O361 Tb356 2.374 . S
O361 C357 1.251 . S
C362 O366 1.275 . S
C362 O367 1.246 . S
O363 C357 1.263 . S
O363 Tb358 2.353 . S
C364 O368 1.245 . S
C364 O369 1.259 . S
C365 O370 1.250 . S
C365 O371 1.263 . S
O366 Tb358 2.427 . S
O366 C362 1.275 . S
O367 Tb358 2.513 . S
O367 C362 1.246 . S
O368 Tb358 2.453 . S
O368 C364 1.245 . S
O369 Tb356 2.343 . S
O369 Tb358 2.596 . S
O369 C364 1.259 . S
O370 Tb358 2.374 . S
O370 C365 1.250 . S
O371 Tb356 2.353 . S
O371 C365 1.263 . S
C372 O373 1.275 . S
C372 O374 1.246 . S
O373 Tb356 2.427 . S
O373 C372 1.275 . S
O374 Tb356 2.513 . S
O374 C372 1.246 . S
C375 O359 1.245 . S
C375 O360 1.259 . S
Tb376 O379 2.453 . S
Tb376 O380 2.596 . S
Tb376 O381 2.374 . S
Tb376 O389 2.343 . S
Tb376 O391 2.353 . S
Tb376 O393 2.427 . S
Tb376 O394 2.513 . S
C377 O381 1.251 . S
C377 O383 1.263 . S
Tb378 O380 2.343 . S
Tb378 O383 2.353 . S
Tb378 O386 2.427 . S
Tb378 O387 2.513 . S
Tb378 O388 2.453 . S
Tb378 O389 2.596 . S
Tb378 O390 2.374 . S
O379 Tb376 2.453 . S
O379 C395 1.245 . S
O380 Tb376 2.596 . S
O380 Tb378 2.343 . S
O380 C395 1.259 . S
O381 Tb376 2.374 . S
O381 C377 1.251 . S
C382 O386 1.275 . S
C382 O387 1.246 . S
O383 C377 1.263 . S
O383 Tb378 2.353 . S
C384 O388 1.245 . S
C384 O389 1.259 . S
C385 O390 1.250 . S
C385 O391 1.263 . S
O386 Tb378 2.427 . S
O386 C382 1.275 . S
O387 Tb378 2.513 . S
O387 C382 1.246 . S
O388 Tb378 2.453 . S
O388 C384 1.245 . S
O389 Tb376 2.343 . S
O389 Tb378 2.596 . S
O389 C384 1.259 . S
O390 Tb378 2.374 . S
O390 C385 1.250 . S
O391 Tb376 2.353 . S
O391 C385 1.263 . S
C392 O393 1.275 . S
C392 O394 1.246 . S
O393 Tb376 2.427 . S
O393 C392 1.275 . S
O394 Tb376 2.513 . S
O394 C392 1.246 . S
C395 O379 1.245 . S
C395 O380 1.259 . S
H396 C404 0.950 . S
H397 C409 0.950 . S
H398 C406 0.950 . S
H399 C408 0.950 . S
H400 C410 0.950 . S
H401 C412 0.950 . S
H402 C414 0.950 . S
H403 C415 0.950 . S
C404 H396 0.950 . S
C404 C405 1.386 . S
C404 C406 1.391 . S
C405 C404 1.386 . S
C405 C409 1.393 . S
C406 H398 0.950 . S
C406 C404 1.391 . S
C406 C407 1.400 . S
C407 C406 1.400 . S
C407 C408 1.398 . S
C407 C413 1.491 . S
C408 H399 0.950 . S
C408 C407 1.398 . S
C408 C409 1.391 . S
C409 H397 0.950 . S
C409 C405 1.393 . S
C409 C408 1.391 . S
C410 H400 0.950 . S
C410 C411 1.386 . S
C410 C412 1.391 . S
C411 C410 1.386 . S
C411 C415 1.393 . S
C412 H401 0.950 . S
C412 C410 1.391 . S
C412 C413 1.400 . S
C413 C407 1.491 . S
C413 C412 1.400 . S
C413 C414 1.398 . S
C414 H402 0.950 . S
C414 C413 1.398 . S
C414 C415 1.391 . S
C415 H403 0.950 . S
C415 C411 1.393 . S
C415 C414 1.391 . S
H416 C424 0.950 . S
H417 C429 0.950 . S
H418 C426 0.950 . S
H419 C428 0.950 . S
H420 C430 0.950 . S
H421 C432 0.950 . S
H422 C434 0.950 . S
H423 C435 0.950 . S
C424 H416 0.950 . S
C424 C425 1.386 . S
C424 C426 1.391 . S
C425 C424 1.386 . S
C425 C429 1.393 . S
C426 H418 0.950 . S
C426 C424 1.391 . S
C426 C427 1.400 . S
C427 C426 1.400 . S
C427 C428 1.398 . S
C427 C433 1.491 . S
C428 H419 0.950 . S
C428 C427 1.398 . S
C428 C429 1.391 . S
C429 H417 0.950 . S
C429 C425 1.393 . S
C429 C428 1.391 . S
C430 H420 0.950 . S
C430 C431 1.386 . S
C430 C432 1.391 . S
C431 C430 1.386 . S
C431 C435 1.393 . S
C432 H421 0.950 . S
C432 C430 1.391 . S
C432 C433 1.400 . S
C433 C427 1.491 . S
C433 C432 1.400 . S
C433 C434 1.398 . S
C434 H422 0.950 . S
C434 C433 1.398 . S
C434 C435 1.391 . S
C435 H423 0.950 . S
C435 C431 1.393 . S
C435 C434 1.391 . S
H436 C444 0.950 . S
H437 C449 0.950 . S
H438 C446 0.950 . S
H439 C448 0.950 . S
H440 C450 0.950 1_556 S
H441 C452 0.950 . S
H442 C454 0.950 . S
H443 C455 0.950 . S
C444 H436 0.950 . S
C444 C445 1.386 . S
C444 C446 1.391 . S
C445 C444 1.386 . S
C445 C449 1.393 . S
C446 H438 0.950 . S
C446 C444 1.391 . S
C446 C447 1.400 . S
C447 C446 1.400 . S
C447 C448 1.398 . S
C447 C453 1.491 . S
C448 H439 0.950 . S
C448 C447 1.398 . S
C448 C449 1.391 . S
C449 H437 0.950 . S
C449 C445 1.393 . S
C449 C448 1.391 . S
C450 H440 0.950 1_554 S
C450 C451 1.386 . S
C450 C452 1.391 . S
C451 C450 1.386 . S
C451 C455 1.393 . S
C452 H441 0.950 . S
C452 C450 1.391 . S
C452 C453 1.400 . S
C453 C447 1.491 . S
C453 C452 1.400 . S
C453 C454 1.398 . S
C454 H442 0.950 . S
C454 C453 1.398 . S
C454 C455 1.391 . S
C455 H443 0.950 . S
C455 C451 1.393 . S
C455 C454 1.391 . S
H456 C464 0.950 . S
H457 C469 0.950 . S
H458 C466 0.950 . S
H459 C468 0.950 . S
H460 C470 0.954 . S
H461 C472 0.950 . S
H462 C474 0.950 . S
H463 C475 0.950 . S
C464 H456 0.950 . S
C464 C465 1.386 . S
C464 C466 1.391 . S
C465 C464 1.386 . S
C465 C469 1.393 . S
C466 H458 0.950 . S
C466 C464 1.391 . S
C466 C467 1.400 . S
C467 C466 1.400 . S
C467 C468 1.398 . S
C467 C473 1.491 . S
C468 H459 0.950 . S
C468 C467 1.398 . S
C468 C469 1.391 . S
C469 H457 0.950 . S
C469 C465 1.393 . S
C469 C468 1.391 . S
C470 H460 0.954 . S
C470 C471 1.386 . S
C470 C472 1.391 . S
C471 C470 1.386 . S
C471 C475 1.393 . S
C472 H461 0.950 . S
C472 C470 1.391 . S
C472 C473 1.400 . S
C473 C467 1.491 . S
C473 C472 1.400 . S
C473 C474 1.398 . S
C474 H462 0.950 . S
C474 C473 1.398 . S
C474 C475 1.391 . S
C475 H463 0.950 . S
C475 C471 1.393 . S
C475 C474 1.391 . S
H476 C484 0.950 . S
H477 C489 0.950 . S
H478 C486 0.950 . S
H479 C488 0.950 . S
H480 C490 0.950 . S
H481 C492 0.950 . S
H482 C494 0.950 . S
H483 C495 0.950 1_554 S
C484 H476 0.950 . S
C484 C485 1.386 . S
C484 C486 1.391 . S
C485 C484 1.386 . S
C485 C489 1.393 . S
C486 H478 0.950 . S
C486 C484 1.391 . S
C486 C487 1.400 . S
C487 C486 1.400 . S
C487 C488 1.398 . S
C487 C493 1.491 . S
C488 H479 0.950 . S
C488 C487 1.398 . S
C488 C489 1.391 . S
C489 H477 0.950 . S
C489 C485 1.393 . S
C489 C488 1.391 . S
C490 H480 0.950 . S
C490 C491 1.386 . S
C490 C492 1.391 . S
C491 C490 1.386 . S
C491 C495 1.393 . S
C492 H481 0.950 . S
C492 C490 1.391 . S
C492 C493 1.400 . S
C493 C487 1.491 . S
C493 C492 1.400 . S
C493 C494 1.398 . S
C494 H482 0.950 . S
C494 C493 1.398 . S
C494 C495 1.391 . S
C495 H483 0.950 1_556 S
C495 C491 1.393 . S
C495 C494 1.391 . S
H496 C504 0.950 . S
H497 C509 0.950 . S
H498 C506 0.950 . S
H499 C508 0.950 . S
H500 C510 0.950 . S
H501 C512 0.950 . S
H502 C514 0.950 . S
H503 C515 0.950 . S
C504 H496 0.950 . S
C504 C505 1.386 . S
C504 C506 1.391 . S
C505 C504 1.386 . S
C505 C509 1.393 . S
C506 H498 0.950 . S
C506 C504 1.391 . S
C506 C507 1.400 . S
C507 C506 1.400 . S
C507 C508 1.398 . S
C507 C513 1.491 . S
C508 H499 0.950 . S
C508 C507 1.398 . S
C508 C509 1.391 . S
C509 H497 0.950 . S
C509 C505 1.393 . S
C509 C508 1.391 . S
C510 H500 0.950 . S
C510 C511 1.386 . S
C510 C512 1.391 . S
C511 C510 1.386 . S
C511 C515 1.393 . S
C512 H501 0.950 . S
C512 C510 1.391 . S
C512 C513 1.400 . S
C513 C507 1.491 . S
C513 C512 1.400 . S
C513 C514 1.398 . S
C514 H502 0.950 . S
C514 C513 1.398 . S
C514 C515 1.391 . S
C515 H503 0.950 . S
C515 C511 1.393 . S
C515 C514 1.391 . S
H516 C524 0.950 . S
H517 C529 0.950 . S
H518 C526 0.950 . S
H519 C528 0.950 . S
H520 C530 0.950 . S
H521 C532 0.950 . S
H522 C534 0.950 . S
H523 C535 0.950 . S
C524 H516 0.950 . S
C524 C525 1.386 . S
C524 C526 1.391 . S
C525 C524 1.386 . S
C525 C529 1.393 . S
C526 H518 0.950 . S
C526 C524 1.391 . S
C526 C527 1.400 . S
C527 C526 1.400 . S
C527 C528 1.398 . S
C527 C533 1.491 . S
C528 H519 0.950 . S
C528 C527 1.398 . S
C528 C529 1.391 . S
C529 H517 0.950 . S
C529 C525 1.393 . S
C529 C528 1.391 . S
C530 H520 0.950 . S
C530 C531 1.386 . S
C530 C532 1.391 . S
C531 C530 1.386 . S
C531 C535 1.393 . S
C532 H521 0.950 . S
C532 C530 1.391 . S
C532 C533 1.400 . S
C533 C527 1.491 . S
C533 C532 1.400 . S
C533 C534 1.398 . S
C534 H522 0.950 . S
C534 C533 1.398 . S
C534 C535 1.391 . S
C535 H523 0.950 . S
C535 C531 1.393 . S
C535 C534 1.391 . S
H536 C544 0.950 . S
H537 C549 0.950 . S
H538 C546 0.950 . S
H539 C548 0.950 . S
H540 C550 0.950 . S
H541 C552 0.950 . S
H542 C554 0.950 1_554 S
H543 C555 0.950 1_554 S
C544 H536 0.950 . S
C544 C545 1.386 . S
C544 C546 1.391 . S
C545 C544 1.386 . S
C545 C549 1.393 . S
C546 H538 0.950 . S
C546 C544 1.391 . S
C546 C547 1.400 . S
C547 C546 1.400 . S
C547 C548 1.398 . S
C547 C553 1.491 . S
C548 H539 0.950 . S
C548 C547 1.398 . S
C548 C549 1.391 . S
C549 H537 0.950 . S
C549 C545 1.393 . S
C549 C548 1.391 . S
C550 H540 0.950 . S
C550 C551 1.386 . S
C550 C552 1.391 . S
C551 C550 1.386 . S
C551 C555 1.393 . S
C552 H541 0.950 . S
C552 C550 1.391 . S
C552 C553 1.400 . S
C553 C547 1.491 . S
C553 C552 1.400 . S
C553 C554 1.398 . S
C554 H542 0.950 1_556 S
C554 C553 1.398 . S
C554 C555 1.391 . S
C555 H543 0.950 1_556 S
C555 C551 1.393 . S
C555 C554 1.391 . S
H556 C564 0.950 . S
H557 C569 0.950 . S
H558 C566 0.950 . S
H559 C568 0.950 . S
H560 C570 0.950 . S
H561 C572 0.950 . S
H562 C574 0.950 . S
H563 C575 0.950 . S
C564 H556 0.950 . S
C564 C565 1.386 1_554 S
C564 C566 1.391 . S
C565 C564 1.386 1_556 S
C565 C569 1.393 . S
C566 H558 0.950 . S
C566 C564 1.391 . S
C566 C567 1.400 1_554 S
C567 C566 1.400 1_556 S
C567 C568 1.398 . S
C567 C573 1.491 . S
C568 H559 0.950 . S
C568 C567 1.398 . S
C568 C569 1.391 . S
C569 H557 0.950 . S
C569 C565 1.393 . S
C569 C568 1.391 . S
C570 H560 0.950 . S
C570 C571 1.424 . S
C570 C572 1.391 . S
C571 C570 1.424 . S
C571 C575 1.356 1_556 S
C572 H561 0.950 . S
C572 C570 1.391 . S
C572 C573 1.400 . S
C573 C567 1.491 . S
C573 C572 1.400 . S
C573 C574 1.398 1_556 S
C574 H562 0.950 . S
C574 C573 1.398 1_554 S
C574 C575 1.391 . S
C575 H563 0.950 . S
C575 C571 1.356 1_554 S
C575 C574 1.391 . S
H576 C584 0.950 . S
H577 C589 0.950 . S
H578 C586 0.950 . S
H579 C588 0.950 . S
H580 C590 0.950 . S
H581 C592 0.950 . S
H582 C594 0.923 1_556 S
H583 C595 0.950 1_556 S
C584 H576 0.950 . S
C584 C585 1.386 . S
C584 C586 1.391 . S
C585 C584 1.386 . S
C585 C589 1.393 . S
C586 H578 0.950 . S
C586 C584 1.391 . S
C586 C587 1.400 . S
C587 C586 1.400 . S
C587 C588 1.398 . S
C587 C593 1.491 . S
C588 H579 0.950 . S
C588 C587 1.398 . S
C588 C589 1.391 . S
C589 H577 0.950 . S
C589 C585 1.393 . S
C589 C588 1.391 . S
C590 H580 0.950 . S
C590 C591 1.386 . S
C590 C592 1.391 . S
C591 C590 1.386 . S
C591 C595 1.393 . S
C592 H581 0.950 . S
C592 C590 1.391 . S
C592 C593 1.400 . S
C593 C587 1.491 . S
C593 C592 1.400 . S
C593 C594 1.398 . S
C594 H582 0.923 1_554 S
C594 C593 1.398 . S
C594 C595 1.391 . S
C595 H583 0.950 1_554 S
C595 C591 1.393 . S
C595 C594 1.391 . S
H596 C604 0.950 . S
H597 C609 0.950 . S
H598 C606 0.950 . S
H599 C608 0.950 . S
H600 C610 0.950 . S
H601 C612 0.950 . S
H602 C614 0.950 . S
H603 C615 0.950 . S
C604 H596 0.950 . S
C604 C605 1.386 . S
C604 C606 1.391 . S
C605 C604 1.386 . S
C605 C609 1.393 . S
C606 H598 0.950 . S
C606 C604 1.391 . S
C606 C607 1.400 . S
C607 C606 1.400 . S
C607 C608 1.398 . S
C607 C613 1.491 . S
C608 H599 0.950 . S
C608 C607 1.398 . S
C608 C609 1.391 . S
C609 H597 0.950 . S
C609 C605 1.393 . S
C609 C608 1.391 . S
C610 H600 0.950 . S
C610 C611 1.386 . S
C610 C612 1.391 . S
C611 C610 1.386 . S
C611 C615 1.393 . S
C612 H601 0.950 . S
C612 C610 1.391 . S
C612 C613 1.400 . S
C613 C607 1.491 . S
C613 C612 1.400 . S
C613 C614 1.398 . S
C614 H602 0.950 . S
C614 C613 1.398 . S
C614 C615 1.391 . S
C615 H603 0.950 . S
C615 C611 1.393 . S
C615 C614 1.391 . S
H616 C624 0.950 . S
H617 C629 0.950 . S
H618 C626 0.950 . S
H619 C628 0.950 . S
H620 C630 0.950 . S
H621 C632 0.950 . S
H622 C634 0.950 1_556 S
H623 C635 0.950 1_556 S
C624 H616 0.950 . S
C624 C625 1.386 . S
C624 C626 1.391 . S
C625 C624 1.386 . S
C625 C629 1.393 . S
C626 H618 0.950 . S
C626 C624 1.391 . S
C626 C627 1.400 . S
C627 C626 1.400 . S
C627 C628 1.398 . S
C627 C633 1.491 . S
C628 H619 0.950 . S
C628 C627 1.398 . S
C628 C629 1.391 . S
C629 H617 0.950 . S
C629 C625 1.393 . S
C629 C628 1.391 . S
C630 H620 0.950 . S
C630 C631 1.386 . S
C630 C632 1.391 . S
C631 C630 1.386 . S
C631 C635 1.393 . S
C632 H621 0.950 . S
C632 C630 1.391 . S
C632 C633 1.400 . S
C633 C627 1.491 . S
C633 C632 1.400 . S
C633 C634 1.398 . S
C634 H622 0.950 1_554 S
C634 C633 1.398 . S
C634 C635 1.391 . S
C635 H623 0.950 1_554 S
C635 C631 1.393 . S
C635 C634 1.391 . S
H636 C644 0.950 . S
H637 C649 0.950 . S
H638 C646 0.950 . S
H639 C648 0.950 . S
H640 C650 0.950 . S
H641 C652 0.950 . S
H642 C654 0.950 1_655 S
H643 C655 0.950 . S
C644 H636 0.950 . S
C644 C645 1.386 . S
C644 C646 1.391 . S
C645 C644 1.386 . S
C645 C649 1.393 . S
C646 H638 0.950 . S
C646 C644 1.391 . S
C646 C647 1.400 . S
C647 C646 1.400 . S
C647 C648 1.398 . S
C647 C653 1.491 1_655 S
C648 H639 0.950 . S
C648 C647 1.398 . S
C648 C649 1.391 . S
C649 H637 0.950 . S
C649 C645 1.393 . S
C649 C648 1.391 . S
C650 H640 0.950 . S
C650 C651 1.386 . S
C650 C652 1.391 . S
C651 C650 1.386 . S
C651 C655 1.393 . S
C652 H641 0.950 . S
C652 C650 1.391 . S
C652 C653 1.400 . S
C653 C647 1.491 1_455 S
C653 C652 1.400 . S
C653 C654 1.398 . S
C654 H642 0.950 1_455 S
C654 C653 1.398 . S
C654 C655 1.391 . S
C655 H643 0.950 . S
C655 C651 1.393 . S
C655 C654 1.391 . S
H656 C664 0.950 . S
H657 C669 0.950 . S
H658 C666 0.950 . S
H659 C668 0.950 . S
H660 C670 0.950 . S
H661 C672 0.950 . S
H662 C674 0.950 . S
H663 C675 0.950 . S
C664 H656 0.950 . S
C664 C665 1.386 . S
C664 C666 1.391 . S
C665 C664 1.386 . S
C665 C669 1.393 . S
C666 H658 0.950 . S
C666 C664 1.391 . S
C666 C667 1.400 . S
C667 C666 1.400 . S
C667 C668 1.398 . S
C667 C673 1.491 . S
C668 H659 0.950 . S
C668 C667 1.398 . S
C668 C669 1.391 . S
C669 H657 0.950 . S
C669 C665 1.393 . S
C669 C668 1.391 . S
C670 H660 0.950 . S
C670 C671 1.386 . S
C670 C672 1.391 . S
C671 C670 1.386 . S
C671 C675 1.393 . S
C672 H661 0.950 . S
C672 C670 1.391 . S
C672 C673 1.400 . S
C673 C667 1.491 . S
C673 C672 1.400 . S
C673 C674 1.398 . S
C674 H662 0.950 . S
C674 C673 1.398 . S
C674 C675 1.391 . S
C675 H663 0.950 . S
C675 C671 1.393 . S
C675 C674 1.391 . S
H676 C684 0.950 . S
H677 C689 0.950 . S
H678 C686 0.950 . S
H679 C688 0.950 . S
H680 C690 0.950 . S
H681 C692 0.956 . S
H682 C694 0.950 . S
H683 C695 0.950 . S
C684 H676 0.950 . S
C684 C685 1.386 . S
C684 C686 1.391 . S
C685 C684 1.386 . S
C685 C689 1.393 . S
C686 H678 0.950 . S
C686 C684 1.391 . S
C686 C687 1.400 . S
C687 C686 1.400 . S
C687 C688 1.398 . S
C687 C693 1.491 1_545 S
C688 H679 0.950 . S
C688 C687 1.398 . S
C688 C689 1.391 . S
C689 H677 0.950 . S
C689 C685 1.393 . S
C689 C688 1.391 . S
C690 H680 0.950 . S
C690 C691 1.386 . S
C690 C692 1.391 . S
C691 C690 1.386 . S
C691 C695 1.393 . S
C692 H681 0.956 . S
C692 C690 1.391 . S
C692 C693 1.400 . S
C693 C687 1.491 1_565 S
C693 C692 1.400 . S
C693 C694 1.398 . S
C694 H682 0.950 . S
C694 C693 1.398 . S
C694 C695 1.391 . S
C695 H683 0.950 . S
C695 C691 1.393 . S
C695 C694 1.391 . S
H696 C704 0.950 . S
H697 C709 0.950 . S
H698 C706 0.950 . S
H699 C708 0.950 . S
H700 C710 0.950 . S
H701 C712 0.950 . S
H702 C714 0.950 . S
H703 C715 0.950 . S
C704 H696 0.950 . S
C704 C705 1.386 . S
C704 C706 1.391 . S
C705 C704 1.386 . S
C705 C709 1.393 . S
C706 H698 0.950 . S
C706 C704 1.391 . S
C706 C707 1.400 . S
C707 C706 1.400 . S
C707 C708 1.398 . S
C707 C713 1.491 . S
C708 H699 0.950 . S
C708 C707 1.398 . S
C708 C709 1.391 . S
C709 H697 0.950 . S
C709 C705 1.393 . S
C709 C708 1.391 . S
C710 H700 0.950 . S
C710 C711 1.386 . S
C710 C712 1.391 . S
C711 C710 1.386 . S
C711 C715 1.393 . S
C712 H701 0.950 . S
C712 C710 1.391 . S
C712 C713 1.400 . S
C713 C707 1.491 . S
C713 C712 1.400 . S
C713 C714 1.398 . S
C714 H702 0.950 . S
C714 C713 1.398 . S
C714 C715 1.391 . S
C715 H703 0.950 . S
C715 C711 1.393 . S
C715 C714 1.391 . S
H716 C724 0.950 . S
H717 C729 0.950 . S
H718 C726 0.950 . S
H719 C728 0.950 . S
H720 C730 0.950 . S
H721 C732 0.950 . S
H722 C734 0.950 . S
H723 C735 0.950 . S
C724 H716 0.950 . S
C724 C725 1.386 . S
C724 C726 1.391 . S
C725 C724 1.386 . S
C725 C729 1.393 . S
C726 H718 0.950 . S
C726 C724 1.391 . S
C726 C727 1.400 . S
C727 C726 1.400 . S
C727 C728 1.398 . S
C727 C733 1.491 . S
C728 H719 0.950 . S
C728 C727 1.398 . S
C728 C729 1.391 . S
C729 H717 0.950 . S
C729 C725 1.393 . S
C729 C728 1.391 . S
C730 H720 0.950 . S
C730 C731 1.386 . S
C730 C732 1.391 . S
C731 C730 1.386 . S
C731 C735 1.393 . S
C732 H721 0.950 . S
C732 C730 1.391 . S
C732 C733 1.400 . S
C733 C727 1.491 . S
C733 C732 1.400 . S
C733 C734 1.398 . S
C734 H722 0.950 . S
C734 C733 1.398 . S
C734 C735 1.391 . S
C735 H723 0.950 . S
C735 C731 1.393 . S
C735 C734 1.391 . S
H736 C744 0.950 . S
H737 C749 0.950 . S
H738 C746 0.950 . S
H739 C748 0.950 . S
H740 C750 0.950 . S
H741 C752 0.950 . S
H742 C754 0.950 . S
H743 C755 0.950 . S
C744 H736 0.950 . S
C744 C745 1.386 . S
C744 C746 1.391 . S
C745 C744 1.386 . S
C745 C749 1.393 . S
C746 H738 0.950 . S
C746 C744 1.391 . S
C746 C747 1.400 . S
C747 C746 1.400 . S
C747 C748 1.398 . S
C747 C753 1.491 . S
C748 H739 0.950 . S
C748 C747 1.398 . S
C748 C749 1.391 . S
C749 H737 0.950 . S
C749 C745 1.393 . S
C749 C748 1.391 . S
C750 H740 0.950 . S
C750 C751 1.386 . S
C750 C752 1.391 . S
C751 C750 1.386 . S
C751 C755 1.393 . S
C752 H741 0.950 . S
C752 C750 1.391 . S
C752 C753 1.400 . S
C753 C747 1.491 . S
C753 C752 1.400 . S
C753 C754 1.398 . S
C754 H742 0.950 . S
C754 C753 1.398 . S
C754 C755 1.391 . S
C755 H743 0.950 . S
C755 C751 1.393 . S
C755 C754 1.391 . S
H756 C764 0.950 . S
H757 C769 0.950 . S
H758 C766 0.950 . S
H759 C768 0.950 . S
H760 C770 0.950 . S
H761 C772 0.950 . S
H762 C774 0.950 . S
H763 C775 0.950 . S
C764 H756 0.950 . S
C764 C765 1.386 . S
C764 C766 1.391 . S
C765 C764 1.386 . S
C765 C769 1.393 . S
C766 H758 0.950 . S
C766 C764 1.391 . S
C766 C767 1.400 . S
C767 C766 1.400 . S
C767 C768 1.398 . S
C767 C773 1.491 . S
C768 H759 0.950 . S
C768 C767 1.398 . S
C768 C769 1.391 . S
C769 H757 0.950 . S
C769 C765 1.393 . S
C769 C768 1.391 . S
C770 H760 0.950 . S
C770 C771 1.386 . S
C770 C772 1.391 . S
C771 C770 1.386 . S
C771 C775 1.393 . S
C772 H761 0.950 . S
C772 C770 1.391 . S
C772 C773 1.400 . S
C773 C767 1.491 . S
C773 C772 1.400 . S
C773 C774 1.398 . S
C774 H762 0.950 . S
C774 C773 1.398 . S
C774 C775 1.391 . S
C775 H763 0.950 . S
C775 C771 1.393 . S
C775 C774 1.391 . S
H776 C784 0.950 . S
H777 C789 0.950 . S
H778 C786 0.950 . S
H779 C788 0.950 . S
H780 C790 0.950 . S
H781 C792 0.950 . S
H782 C794 0.950 . S
H783 C795 0.950 . S
C784 H776 0.950 . S
C784 C785 1.386 . S
C784 C786 1.391 . S
C785 C784 1.386 . S
C785 C789 1.393 . S
C786 H778 0.950 . S
C786 C784 1.391 . S
C786 C787 1.400 . S
C787 C786 1.400 . S
C787 C788 1.398 . S
C787 C793 1.491 . S
C788 H779 0.950 . S
C788 C787 1.398 . S
C788 C789 1.391 . S
C789 H777 0.950 . S
C789 C785 1.393 . S
C789 C788 1.391 . S
C790 H780 0.950 . S
C790 C791 1.386 . S
C790 C792 1.391 . S
C791 C790 1.386 . S
C791 C795 1.393 . S
C792 H781 0.950 . S
C792 C790 1.391 . S
C792 C793 1.400 . S
C793 C787 1.491 . S
C793 C792 1.400 . S
C793 C794 1.398 . S
C794 H782 0.950 . S
C794 C793 1.398 . S
C794 C795 1.391 . S
C795 H783 0.950 . S
C795 C791 1.393 . S
C795 C794 1.391 . S
H796 C804 0.950 . S
H797 C809 0.950 . S
H798 C806 0.950 . S
H799 C808 0.950 . S
H800 C810 0.950 . S
H801 C812 0.950 . S
H802 C814 0.950 . S
H803 C815 0.950 . S
C804 H796 0.950 . S
C804 C805 1.386 . S
C804 C806 1.391 . S
C805 C804 1.386 . S
C805 C809 1.393 . S
C806 H798 0.950 . S
C806 C804 1.391 . S
C806 C807 1.400 . S
C807 C806 1.400 . S
C807 C808 1.398 . S
C807 C813 1.491 . S
C808 H799 0.950 . S
C808 C807 1.398 . S
C808 C809 1.391 . S
C809 H797 0.950 . S
C809 C805 1.393 . S
C809 C808 1.391 . S
C810 H800 0.950 . S
C810 C811 1.386 . S
C810 C812 1.391 . S
C811 C810 1.386 . S
C811 C815 1.393 . S
C812 H801 0.950 . S
C812 C810 1.391 . S
C812 C813 1.400 . S
C813 C807 1.491 . S
C813 C812 1.400 . S
C813 C814 1.398 . S
C814 H802 0.950 . S
C814 C813 1.398 . S
C814 C815 1.391 . S
C815 H803 0.950 . S
C815 C811 1.393 . S
C815 C814 1.391 . S
H816 C824 0.950 . S
H817 C829 0.950 . S
H818 C826 0.950 . S
H819 C828 0.950 . S
H820 C830 0.950 . S
H821 C832 0.950 . S
H822 C834 0.950 . S
H823 C835 0.950 . S
C824 H816 0.950 . S
C824 C825 1.386 . S
C824 C826 1.391 1_545 S
C825 C824 1.386 . S
C825 C829 1.393 . S
C826 H818 0.950 . S
C826 C824 1.391 1_565 S
C826 C827 1.400 . S
C827 C826 1.400 . S
C827 C828 1.398 . S
C827 C833 1.491 . S
C828 H819 0.950 . S
C828 C827 1.398 . S
C828 C829 1.391 1_565 S
C829 H817 0.950 . S
C829 C825 1.393 . S
C829 C828 1.391 1_545 S
C830 H820 0.950 . S
C830 C831 1.386 . S
C830 C832 1.391 . S
C831 C830 1.386 . S
C831 C835 1.393 . S
C832 H821 0.950 . S
C832 C830 1.391 . S
C832 C833 1.400 . S
C833 C827 1.491 . S
C833 C832 1.400 . S
C833 C834 1.398 . S
C834 H822 0.950 . S
C834 C833 1.398 . S
C834 C835 1.391 . S
C835 H823 0.950 . S
C835 C831 1.393 . S
C835 C834 1.391 . S
H836 C844 0.950 . S
H837 C849 0.950 . S
H838 C846 0.950 . S
H839 C848 0.950 . S
H840 C850 0.950 . S
H841 C852 0.950 . S
H842 C854 0.950 . S
H843 C855 0.950 . S
C844 H836 0.950 . S
C844 C845 1.386 . S
C844 C846 1.391 1_655 S
C845 C844 1.386 . S
C845 C849 1.393 . S
C846 H838 0.950 . S
C846 C844 1.391 1_455 S
C846 C847 1.400 . S
C847 C846 1.400 . S
C847 C848 1.398 . S
C847 C853 1.491 . S
C848 H839 0.950 . S
C848 C847 1.398 . S
C848 C849 1.391 1_455 S
C849 H837 0.950 . S
C849 C845 1.393 . S
C849 C848 1.391 1_655 S
C850 H840 0.950 . S
C850 C851 1.386 . S
C850 C852 1.391 . S
C851 C850 1.386 . S
C851 C855 1.393 . S
C852 H841 0.950 . S
C852 C850 1.391 . S
C852 C853 1.400 . S
C853 C847 1.491 . S
C853 C852 1.400 . S
C853 C854 1.398 . S
C854 H842 0.950 . S
C854 C853 1.398 . S
C854 C855 1.391 . S
C855 H843 0.950 . S
C855 C851 1.393 . S
C855 C854 1.391 . S
H856 C864 0.950 . S
H857 C869 0.950 . S
H858 C866 0.950 . S
H859 C868 0.950 . S
H860 C870 0.950 . S
H861 C872 0.950 . S
H862 C874 0.950 . S
H863 C875 0.950 . S
C864 H856 0.950 . S
C864 C865 1.386 . S
C864 C866 1.391 . S
C865 C864 1.386 . S
C865 C869 1.393 . S
C866 H858 0.950 . S
C866 C864 1.391 . S
C866 C867 1.400 . S
C867 C866 1.400 . S
C867 C868 1.398 . S
C867 C873 1.491 . S
C868 H859 0.950 . S
C868 C867 1.398 . S
C868 C869 1.391 . S
C869 H857 0.950 . S
C869 C865 1.393 . S
C869 C868 1.391 . S
C870 H860 0.950 . S
C870 C871 1.386 . S
C870 C872 1.391 . S
C871 C870 1.386 . S
C871 C875 1.393 . S
C872 H861 0.950 . S
C872 C870 1.391 . S
C872 C873 1.400 . S
C873 C867 1.491 . S
C873 C872 1.400 . S
C873 C874 1.398 . S
C874 H862 0.950 . S
C874 C873 1.398 . S
C874 C875 1.391 . S
C875 H863 0.950 . S
C875 C871 1.393 . S
C875 C874 1.391 . S
H876 C884 0.950 . S
H877 C889 0.950 . S
H878 C886 0.950 . S
H879 C888 0.950 . S
H880 C890 0.950 . S
H881 C892 0.950 . S
H882 C894 0.950 . S
H883 C895 0.950 . S
C884 H876 0.950 . S
C884 C885 1.386 . S
C884 C886 1.391 . S
C885 C884 1.386 . S
C885 C889 1.393 . S
C886 H878 0.950 . S
C886 C884 1.391 . S
C886 C887 1.400 . S
C887 C886 1.400 . S
C887 C888 1.398 . S
C887 C893 1.491 . S
C888 H879 0.950 . S
C888 C887 1.398 . S
C888 C889 1.391 . S
C889 H877 0.950 . S
C889 C885 1.393 . S
C889 C888 1.391 . S
C890 H880 0.950 . S
C890 C891 1.386 . S
C890 C892 1.391 . S
C891 C890 1.386 . S
C891 C895 1.393 . S
C892 H881 0.950 . S
C892 C890 1.391 . S
C892 C893 1.400 . S
C893 C887 1.491 . S
C893 C892 1.400 . S
C893 C894 1.398 . S
C894 H882 0.950 . S
C894 C893 1.398 . S
C894 C895 1.391 . S
C895 H883 0.950 . S
C895 C891 1.393 . S
C895 C894 1.391 . S
H896 C904 0.950 . S
H897 C909 0.950 . S
H898 C906 0.950 . S
H899 C908 0.950 . S
H900 C910 0.950 . S
H901 C912 0.950 . S
H902 C914 0.950 . S
H903 C915 0.950 . S
C904 H896 0.950 . S
C904 C905 1.386 . S
C904 C906 1.391 . S
C905 C904 1.386 . S
C905 C909 1.393 . S
C906 H898 0.950 . S
C906 C904 1.391 . S
C906 C907 1.400 . S
C907 C906 1.400 . S
C907 C908 1.398 . S
C907 C913 1.491 . S
C908 H899 0.950 . S
C908 C907 1.398 . S
C908 C909 1.391 . S
C909 H897 0.950 . S
C909 C905 1.393 . S
C909 C908 1.391 . S
C910 H900 0.950 . S
C910 C911 1.386 . S
C910 C912 1.391 . S
C911 C910 1.386 . S
C911 C915 1.393 . S
C912 H901 0.950 . S
C912 C910 1.391 . S
C912 C913 1.400 . S
C913 C907 1.491 . S
C913 C912 1.400 . S
C913 C914 1.398 . S
C914 H902 0.950 . S
C914 C913 1.398 . S
C914 C915 1.391 . S
C915 H903 0.950 . S
C915 C911 1.393 . S
C915 C914 1.391 . S
H916 C924 0.950 . S
H917 C929 0.950 . S
H918 C926 0.950 . S
H919 C928 0.950 . S
H920 C930 0.950 . S
H921 C932 0.950 . S
H922 C934 0.950 . S
H923 C935 0.950 . S
C924 H916 0.950 . S
C924 C925 1.386 . S
C924 C926 1.391 . S
C925 C924 1.386 . S
C925 C929 1.393 . S
C926 H918 0.950 . S
C926 C924 1.391 . S
C926 C927 1.400 . S
C927 C926 1.400 . S
C927 C928 1.398 . S
C927 C933 1.491 . S
C928 H919 0.950 . S
C928 C927 1.398 . S
C928 C929 1.391 . S
C929 H917 0.950 . S
C929 C925 1.393 . S
C929 C928 1.391 . S
C930 H920 0.950 . S
C930 C931 1.386 . S
C930 C932 1.391 . S
C931 C930 1.386 . S
C931 C935 1.393 . S
C932 H921 0.950 . S
C932 C930 1.391 . S
C932 C933 1.400 . S
C933 C927 1.491 . S
C933 C932 1.400 . S
C933 C934 1.398 . S
C934 H922 0.950 . S
C934 C933 1.398 . S
C934 C935 1.391 . S
C935 H923 0.950 . S
C935 C931 1.393 . S
C935 C934 1.391 . S
H936 C944 0.950 . S
H937 C949 0.950 . S
H938 C946 0.950 . S
H939 C948 0.950 . S
H940 C950 0.950 . S
H941 C952 0.950 . S
H942 C954 0.950 . S
H943 C955 0.950 . S
C944 H936 0.950 . S
C944 C945 1.386 . S
C944 C946 1.391 . S
C945 C944 1.386 . S
C945 C949 1.393 . S
C946 H938 0.950 . S
C946 C944 1.391 . S
C946 C947 1.400 . S
C947 C946 1.400 . S
C947 C948 1.398 . S
C947 C953 1.491 1_565 S
C948 H939 0.950 . S
C948 C947 1.398 . S
C948 C949 1.391 . S
C949 H937 0.950 . S
C949 C945 1.393 . S
C949 C948 1.391 . S
C950 H940 0.950 . S
C950 C951 1.386 . S
C950 C952 1.391 . S
C951 C950 1.386 . S
C951 C955 1.393 . S
C952 H941 0.950 . S
C952 C950 1.391 . S
C952 C953 1.400 . S
C953 C947 1.491 1_545 S
C953 C952 1.400 . S
C953 C954 1.398 . S
C954 H942 0.950 . S
C954 C953 1.398 . S
C954 C955 1.391 . S
C955 H943 0.950 . S
C955 C951 1.393 . S
C955 C954 1.391 . S
H956 C964 0.950 . S
H957 C969 0.950 . S
H958 C966 0.950 . S
H959 C968 0.950 . S
H960 C970 0.950 . S
H961 C972 0.950 . S
H962 C974 0.950 1_455 S
H963 C975 0.950 . S
C964 H956 0.950 . S
C964 C965 1.386 . S
C964 C966 1.391 . S
C965 C964 1.386 . S
C965 C969 1.393 . S
C966 H958 0.950 . S
C966 C964 1.391 . S
C966 C967 1.400 . S
C967 C966 1.400 . S
C967 C968 1.398 . S
C967 C973 1.491 1_455 S
C968 H959 0.950 . S
C968 C967 1.398 . S
C968 C969 1.391 . S
C969 H957 0.950 . S
C969 C965 1.393 . S
C969 C968 1.391 . S
C970 H960 0.950 . S
C970 C971 1.386 . S
C970 C972 1.391 . S
C971 C970 1.386 . S
C971 C975 1.393 . S
C972 H961 0.950 . S
C972 C970 1.391 . S
C972 C973 1.400 . S
C973 C967 1.491 1_655 S
C973 C972 1.400 . S
C973 C974 1.398 . S
C974 H962 0.950 1_655 S
C974 C973 1.398 . S
C974 C975 1.391 . S
C975 H963 0.950 . S
C975 C971 1.393 . S
C975 C974 1.391 . S
H976 C984 0.950 . S
H977 C989 0.950 . S
H978 C986 0.950 . S
H979 C988 0.950 . S
H980 C990 0.950 . S
H981 C992 0.950 . S
H982 C994 0.950 . S
H983 C995 0.950 . S
C984 H976 0.950 . S
C984 C985 1.386 . S
C984 C986 1.391 . S
C985 C984 1.386 . S
C985 C989 1.393 . S
C986 H978 0.950 . S
C986 C984 1.391 . S
C986 C987 1.400 . S
C987 C986 1.400 . S
C987 C988 1.398 . S
C987 C993 1.491 . S
C988 H979 0.950 . S
C988 C987 1.398 . S
C988 C989 1.391 . S
C989 H977 0.950 . S
C989 C985 1.393 . S
C989 C988 1.391 . S
C990 H980 0.950 . S
C990 C991 1.386 . S
C990 C992 1.391 . S
C991 C990 1.386 . S
C991 C995 1.393 . S
C992 H981 0.950 . S
C992 C990 1.391 . S
C992 C993 1.400 . S
C993 C987 1.491 . S
C993 C992 1.400 . S
C993 C994 1.398 . S
C994 H982 0.950 . S
C994 C993 1.398 . S
C994 C995 1.391 . S
C995 H983 0.950 . S
C995 C991 1.393 . S
C995 C994 1.391 . S
H996 C1004 0.950 . S
H997 C1009 0.950 . S
H998 C1006 0.950 . S
H999 C1008 0.950 1_655 S
H1000 C1010 0.950 . S
H1001 C1012 0.950 . S
H1002 C1014 0.950 . S
H1003 C1015 0.950 . S
C1004 H996 0.950 . S
C1004 C1005 1.386 . S
C1004 C1006 1.391 . S
C1005 C1004 1.386 . S
C1005 C1009 1.393 . S
C1006 H998 0.950 . S
C1006 C1004 1.391 . S
C1006 C1007 1.400 1_455 S
C1007 C1006 1.400 1_655 S
C1007 C1008 1.398 1_655 S
C1007 C1013 1.491 . S
C1008 H999 0.950 1_455 S
C1008 C1007 1.398 1_455 S
C1008 C1009 1.391 . S
C1009 H997 0.950 . S
C1009 C1005 1.393 . S
C1009 C1008 1.391 . S
C1010 H1000 0.950 . S
C1010 C1011 1.386 . S
C1010 C1012 1.391 . S
C1011 C1010 1.386 . S
C1011 C1015 1.393 . S
C1012 H1001 0.950 . S
C1012 C1010 1.391 . S
C1012 C1013 1.400 . S
C1013 C1007 1.491 . S
C1013 C1012 1.400 . S
C1013 C1014 1.398 . S
C1014 H1002 0.950 . S
C1014 C1013 1.398 . S
C1014 C1015 1.391 . S
C1015 H1003 0.950 . S
C1015 C1011 1.393 . S
C1015 C1014 1.391 . S
H1016 C1024 0.950 . S
H1017 C1029 0.950 . S
H1018 C1026 0.950 . S
H1019 C1028 0.950 . S
H1020 C1030 0.950 . S
H1021 C1032 0.950 . S
H1022 C1034 0.950 . S
H1023 C1035 0.950 . S
C1024 H1016 0.950 . S
C1024 C1025 1.386 . S
C1024 C1026 1.391 . S
C1025 C1024 1.386 . S
C1025 C1029 1.393 . S
C1026 H1018 0.950 . S
C1026 C1024 1.391 . S
C1026 C1027 1.400 . S
C1027 C1026 1.400 . S
C1027 C1028 1.398 . S
C1027 C1033 1.491 . S
C1028 H1019 0.950 . S
C1028 C1027 1.398 . S
C1028 C1029 1.391 . S
C1029 H1017 0.950 . S
C1029 C1025 1.393 . S
C1029 C1028 1.391 . S
C1030 H1020 0.950 . S
C1030 C1031 1.386 . S
C1030 C1032 1.391 . S
C1031 C1030 1.386 . S
C1031 C1035 1.393 . S
C1032 H1021 0.950 . S
C1032 C1030 1.391 . S
C1032 C1033 1.400 . S
C1033 C1027 1.491 . S
C1033 C1032 1.400 . S
C1033 C1034 1.398 . S
C1034 H1022 0.950 . S
C1034 C1033 1.398 . S
C1034 C1035 1.391 . S
C1035 H1023 0.950 . S
C1035 C1031 1.393 . S
C1035 C1034 1.391 . S
H1036 C1044 0.950 . S
H1037 C1049 0.950 . S
H1038 C1046 0.950 . S
H1039 C1048 0.950 . S
H1040 C1050 0.950 . S
H1041 C1052 0.950 . S
H1042 C1054 0.950 . S
H1043 C1055 0.950 . S
C1044 H1036 0.950 . S
C1044 C1045 1.386 . S
C1044 C1046 1.391 1_565 S
C1045 C1044 1.386 . S
C1045 C1049 1.393 . S
C1046 H1038 0.950 . S
C1046 C1044 1.391 1_545 S
C1046 C1047 1.400 . S
C1047 C1046 1.400 . S
C1047 C1048 1.398 . S
C1047 C1053 1.491 . S
C1048 H1039 0.950 . S
C1048 C1047 1.398 . S
C1048 C1049 1.391 1_545 S
C1049 H1037 0.950 . S
C1049 C1045 1.393 . S
C1049 C1048 1.391 1_565 S
C1050 H1040 0.950 . S
C1050 C1051 1.386 . S
C1050 C1052 1.391 . S
C1051 C1050 1.386 . S
C1051 C1055 1.393 . S
C1052 H1041 0.950 . S
C1052 C1050 1.391 . S
C1052 C1053 1.400 . S
C1053 C1047 1.491 . S
C1053 C1052 1.400 . S
C1053 C1054 1.398 . S
C1054 H1042 0.950 . S
C1054 C1053 1.398 . S
C1054 C1055 1.391 . S
C1055 H1043 0.950 . S
C1055 C1051 1.393 . S
C1055 C1054 1.391 . S
H1056 C1064 0.950 . S
H1057 C1069 0.950 . S
H1058 C1066 0.950 . S
H1059 C1068 0.950 . S
H1060 C1070 0.950 . S
H1061 C1072 0.950 . S
H1062 C1074 0.950 . S
H1063 C1075 0.950 . S
C1064 H1056 0.950 . S
C1064 C1065 1.386 . S
C1064 C1066 1.391 . S
C1065 C1064 1.386 . S
C1065 C1069 1.393 . S
C1066 H1058 0.950 . S
C1066 C1064 1.391 . S
C1066 C1067 1.400 . S
C1067 C1066 1.400 . S
C1067 C1068 1.398 . S
C1067 C1073 1.491 . S
C1068 H1059 0.950 . S
C1068 C1067 1.398 . S
C1068 C1069 1.391 . S
C1069 H1057 0.950 . S
C1069 C1065 1.393 . S
C1069 C1068 1.391 . S
C1070 H1060 0.950 . S
C1070 C1071 1.386 . S
C1070 C1072 1.391 . S
C1071 C1070 1.386 . S
C1071 C1075 1.393 . S
C1072 H1061 0.950 . S
C1072 C1070 1.391 . S
C1072 C1073 1.400 . S
C1073 C1067 1.491 . S
C1073 C1072 1.400 . S
C1073 C1074 1.398 . S
C1074 H1062 0.950 . S
C1074 C1073 1.398 . S
C1074 C1075 1.391 . S
C1075 H1063 0.950 . S
C1075 C1071 1.393 . S
C1075 C1074 1.391 . S
H1076 C1084 0.950 . S
H1077 C1089 0.950 . S
H1078 C1086 0.950 . S
H1079 C1088 0.950 . S
H1080 C1090 0.950 . S
H1081 C1092 0.950 . S
H1082 C1094 0.950 . S
H1083 C1095 0.950 . S
C1084 H1076 0.950 . S
C1084 C1085 1.386 . S
C1084 C1086 1.391 . S
C1085 C1084 1.386 . S
C1085 C1089 1.393 . S
C1086 H1078 0.950 . S
C1086 C1084 1.391 . S
C1086 C1087 1.400 . S
C1087 C1086 1.400 . S
C1087 C1088 1.398 . S
C1087 C1093 1.491 . S
C1088 H1079 0.950 . S
C1088 C1087 1.398 . S
C1088 C1089 1.391 . S
C1089 H1077 0.950 . S
C1089 C1085 1.393 . S
C1089 C1088 1.391 . S
C1090 H1080 0.950 . S
C1090 C1091 1.386 . S
C1090 C1092 1.391 . S
C1091 C1090 1.386 . S
C1091 C1095 1.393 . S
C1092 H1081 0.950 . S
C1092 C1090 1.391 . S
C1092 C1093 1.400 . S
C1093 C1087 1.491 . S
C1093 C1092 1.400 . S
C1093 C1094 1.398 . S
C1094 H1082 0.950 . S
C1094 C1093 1.398 . S
C1094 C1095 1.391 . S
C1095 H1083 0.950 . S
C1095 C1091 1.393 . S
C1095 C1094 1.391 . S
H1096 C1104 0.950 . S
H1097 C1109 0.950 . S
H1098 C1106 0.950 . S
H1099 C1108 0.950 . S
H1100 C1110 0.950 . S
H1101 C1112 0.950 . S
H1102 C1114 0.950 . S
H1103 C1115 0.950 . S
C1104 H1096 0.950 . S
C1104 C1105 1.386 . S
C1104 C1106 1.391 . S
C1105 C1104 1.386 . S
C1105 C1109 1.393 . S
C1106 H1098 0.950 . S
C1106 C1104 1.391 . S
C1106 C1107 1.400 . S
C1107 C1106 1.400 . S
C1107 C1108 1.398 . S
C1107 C1113 1.491 . S
C1108 H1099 0.950 . S
C1108 C1107 1.398 . S
C1108 C1109 1.391 . S
C1109 H1097 0.950 . S
C1109 C1105 1.393 . S
C1109 C1108 1.391 . S
C1110 H1100 0.950 . S
C1110 C1111 1.386 . S
C1110 C1112 1.391 . S
C1111 C1110 1.386 . S
C1111 C1115 1.393 . S
C1112 H1101 0.950 . S
C1112 C1110 1.391 . S
C1112 C1113 1.400 . S
C1113 C1107 1.491 . S
C1113 C1112 1.400 . S
C1113 C1114 1.398 . S
C1114 H1102 0.950 . S
C1114 C1113 1.398 . S
C1114 C1115 1.391 . S
C1115 H1103 0.950 . S
C1115 C1111 1.393 . S
C1115 C1114 1.391 . S
H1116 C1124 0.950 . S
H1117 C1129 0.950 . S
H1118 C1126 0.950 . S
H1119 C1128 0.950 . S
H1120 C1130 0.950 . S
H1121 C1132 0.950 . S
H1122 C1134 0.975 . S
H1123 C1135 0.950 1_545 S
C1124 H1116 0.950 . S
C1124 C1125 1.386 . S
C1124 C1126 1.391 . S
C1125 C1124 1.386 . S
C1125 C1129 1.393 . S
C1126 H1118 0.950 . S
C1126 C1124 1.391 . S
C1126 C1127 1.400 . S
C1127 C1126 1.400 . S
C1127 C1128 1.398 . S
C1127 C1133 1.491 . S
C1128 H1119 0.950 . S
C1128 C1127 1.398 . S
C1128 C1129 1.391 . S
C1129 H1117 0.950 . S
C1129 C1125 1.393 . S
C1129 C1128 1.391 . S
C1130 H1120 0.950 . S
C1130 C1131 1.386 . S
C1130 C1132 1.391 . S
C1131 C1130 1.386 . S
C1131 C1135 1.393 . S
C1132 H1121 0.950 . S
C1132 C1130 1.391 . S
C1132 C1133 1.400 . S
C1133 C1127 1.491 . S
C1133 C1132 1.400 . S
C1133 C1134 1.398 . S
C1134 H1122 0.975 . S
C1134 C1133 1.398 . S
C1134 C1135 1.391 . S
C1135 H1123 0.950 1_565 S
C1135 C1131 1.393 . S
C1135 C1134 1.391 . S
H1136 C1144 0.950 . S
H1137 C1149 0.950 . S
H1138 C1146 0.950 . S
H1139 C1148 0.950 . S
H1140 C1150 0.950 . S
H1141 C1152 0.950 . S
H1142 C1154 0.950 . S
H1143 C1155 0.950 1_655 S
C1144 H1136 0.950 . S
C1144 C1145 1.386 . S
C1144 C1146 1.391 . S
C1145 C1144 1.386 . S
C1145 C1149 1.393 . S
C1146 H1138 0.950 . S
C1146 C1144 1.391 . S
C1146 C1147 1.400 . S
C1147 C1146 1.400 . S
C1147 C1148 1.398 . S
C1147 C1153 1.491 . S
C1148 H1139 0.950 . S
C1148 C1147 1.398 . S
C1148 C1149 1.391 . S
C1149 H1137 0.950 . S
C1149 C1145 1.393 . S
C1149 C1148 1.391 . S
C1150 H1140 0.950 . S
C1150 C1151 1.386 . S
C1150 C1152 1.391 . S
C1151 C1150 1.386 . S
C1151 C1155 1.393 . S
C1152 H1141 0.950 . S
C1152 C1150 1.391 . S
C1152 C1153 1.400 . S
C1153 C1147 1.491 . S
C1153 C1152 1.400 . S
C1153 C1154 1.398 . S
C1154 H1142 0.950 . S
C1154 C1153 1.398 . S
C1154 C1155 1.391 . S
C1155 H1143 0.950 1_455 S
C1155 C1151 1.393 . S
C1155 C1154 1.391 . S
H1156 C1164 0.950 . S
H1157 C1169 0.950 . S
H1158 C1166 0.950 . S
H1159 C1168 0.950 . S
H1160 C1170 0.950 . S
H1161 C1172 0.950 . S
H1162 C1174 0.950 . S
H1163 C1175 0.950 . S
C1164 H1156 0.950 . S
C1164 C1165 1.386 . S
C1164 C1166 1.391 . S
C1165 C1164 1.386 . S
C1165 C1169 1.393 . S
C1166 H1158 0.950 . S
C1166 C1164 1.391 . S
C1166 C1167 1.400 . S
C1167 C1166 1.400 . S
C1167 C1168 1.398 . S
C1167 C1173 1.491 . S
C1168 H1159 0.950 . S
C1168 C1167 1.398 . S
C1168 C1169 1.391 . S
C1169 H1157 0.950 . S
C1169 C1165 1.393 . S
C1169 C1168 1.391 . S
C1170 H1160 0.950 . S
C1170 C1171 1.386 . S
C1170 C1172 1.391 . S
C1171 C1170 1.386 . S
C1171 C1175 1.393 . S
C1172 H1161 0.950 . S
C1172 C1170 1.391 . S
C1172 C1173 1.400 . S
C1173 C1167 1.491 . S
C1173 C1172 1.400 . S
C1173 C1174 1.398 . S
C1174 H1162 0.950 . S
C1174 C1173 1.398 . S
C1174 C1175 1.391 . S
C1175 H1163 0.950 . S
C1175 C1171 1.393 . S
C1175 C1174 1.391 . S
H1176 C1184 0.950 . S
H1177 C1189 0.950 . S
H1178 C1186 0.950 . S
H1179 C1188 0.950 . S
H1180 C1190 0.950 . S
H1181 C1192 0.950 . S
H1182 C1194 0.950 . S
H1183 C1195 0.950 . S
C1184 H1176 0.950 . S
C1184 C1185 1.386 . S
C1184 C1186 1.391 . S
C1185 C1184 1.386 . S
C1185 C1189 1.393 . S
C1186 H1178 0.950 . S
C1186 C1184 1.391 . S
C1186 C1187 1.400 . S
C1187 C1186 1.400 . S
C1187 C1188 1.398 . S
C1187 C1193 1.491 . S
C1188 H1179 0.950 . S
C1188 C1187 1.398 . S
C1188 C1189 1.391 . S
C1189 H1177 0.950 . S
C1189 C1185 1.393 . S
C1189 C1188 1.391 . S
C1190 H1180 0.950 . S
C1190 C1191 1.386 . S
C1190 C1192 1.391 . S
C1191 C1190 1.386 . S
C1191 C1195 1.393 . S
C1192 H1181 0.950 . S
C1192 C1190 1.391 . S
C1192 C1193 1.400 . S
C1193 C1187 1.491 . S
C1193 C1192 1.400 . S
C1193 C1194 1.398 . S
C1194 H1182 0.950 . S
C1194 C1193 1.398 . S
C1194 C1195 1.391 . S
C1195 H1183 0.950 . S
C1195 C1191 1.393 . S
C1195 C1194 1.391 . S
H1196 C1204 0.950 . S
H1197 C1209 0.950 . S
H1198 C1206 0.950 . S
H1199 C1208 0.950 . S
H1200 C1210 0.950 . S
H1201 C1212 0.950 . S
H1202 C1214 0.950 . S
H1203 C1215 0.950 . S
C1204 H1196 0.950 . S
C1204 C1205 1.386 . S
C1204 C1206 1.391 . S
C1205 C1204 1.386 . S
C1205 C1209 1.393 . S
C1206 H1198 0.950 . S
C1206 C1204 1.391 . S
C1206 C1207 1.400 . S
C1207 C1206 1.400 . S
C1207 C1208 1.398 . S
C1207 C1213 1.491 . S
C1208 H1199 0.950 . S
C1208 C1207 1.398 . S
C1208 C1209 1.391 . S
C1209 H1197 0.950 . S
C1209 C1205 1.393 . S
C1209 C1208 1.391 . S
C1210 H1200 0.950 . S
C1210 C1211 1.386 . S
C1210 C1212 1.391 . S
C1211 C1210 1.386 . S
C1211 C1215 1.393 . S
C1212 H1201 0.950 . S
C1212 C1210 1.391 . S
C1212 C1213 1.400 . S
C1213 C1207 1.491 . S
C1213 C1212 1.400 . S
C1213 C1214 1.398 . S
C1214 H1202 0.950 . S
C1214 C1213 1.398 . S
C1214 C1215 1.391 . S
C1215 H1203 0.950 . S
C1215 C1211 1.393 . S
C1215 C1214 1.391 . S
H1216 C1224 0.950 . S
H1217 C1229 0.950 . S
H1218 C1226 0.950 . S
H1219 C1228 0.950 . S
H1220 C1230 0.950 1_565 S
H1221 C1232 0.950 . S
H1222 C1234 0.950 . S
H1223 C1235 0.950 . S
C1224 H1216 0.950 . S
C1224 C1225 1.386 . S
C1224 C1226 1.391 . S
C1225 C1224 1.386 . S
C1225 C1229 1.393 . S
C1226 H1218 0.950 . S
C1226 C1224 1.391 . S
C1226 C1227 1.400 . S
C1227 C1226 1.400 . S
C1227 C1228 1.398 . S
C1227 C1233 1.491 . S
C1228 H1219 0.950 . S
C1228 C1227 1.398 . S
C1228 C1229 1.391 . S
C1229 H1217 0.950 . S
C1229 C1225 1.393 . S
C1229 C1228 1.391 . S
C1230 H1220 0.950 1_545 S
C1230 C1231 1.386 . S
C1230 C1232 1.391 . S
C1231 C1230 1.386 . S
C1231 C1235 1.393 . S
C1232 H1221 0.950 . S
C1232 C1230 1.391 . S
C1232 C1233 1.400 . S
C1233 C1227 1.491 . S
C1233 C1232 1.400 . S
C1233 C1234 1.398 . S
C1234 H1222 0.950 . S
C1234 C1233 1.398 . S
C1234 C1235 1.391 . S
C1235 H1223 0.950 . S
C1235 C1231 1.393 . S
C1235 C1234 1.391 . S
H1236 C1244 0.950 . S
H1237 C1249 0.950 . S
H1238 C1246 0.950 . S
H1239 C1248 0.950 . S
H1240 C1250 0.950 . S
H1241 C1252 0.950 . S
H1242 C1254 0.950 . S
H1243 C1255 0.950 . S
C1244 H1236 0.950 . S
C1244 C1245 1.386 . S
C1244 C1246 1.391 . S
C1245 C1244 1.386 . S
C1245 C1249 1.393 . S
C1246 H1238 0.950 . S
C1246 C1244 1.391 . S
C1246 C1247 1.400 . S
C1247 C1246 1.400 . S
C1247 C1248 1.398 . S
C1247 C1253 1.491 . S
C1248 H1239 0.950 . S
C1248 C1247 1.398 . S
C1248 C1249 1.391 . S
C1249 H1237 0.950 . S
C1249 C1245 1.393 . S
C1249 C1248 1.391 . S
C1250 H1240 0.950 . S
C1250 C1251 1.386 . S
C1250 C1252 1.391 . S
C1251 C1250 1.386 . S
C1251 C1255 1.393 . S
C1252 H1241 0.950 . S
C1252 C1250 1.391 . S
C1252 C1253 1.400 . S
C1253 C1247 1.491 . S
C1253 C1252 1.400 . S
C1253 C1254 1.398 . S
C1254 H1242 0.950 . S
C1254 C1253 1.398 . S
C1254 C1255 1.391 . S
C1255 H1243 0.950 . S
C1255 C1251 1.393 . S
C1255 C1254 1.391 . S
H1256 C1264 0.950 . S
H1257 C1269 0.950 . S
H1258 C1266 0.950 . S
H1259 C1268 0.950 . S
H1260 C1270 0.950 . S
H1261 C1272 0.950 . S
H1262 C1274 0.950 . S
H1263 C1275 0.950 . S
C1264 H1256 0.950 . S
C1264 C1265 1.386 . S
C1264 C1266 1.391 . S
C1265 C1264 1.386 . S
C1265 C1269 1.393 . S
C1266 H1258 0.950 . S
C1266 C1264 1.391 . S
C1266 C1267 1.400 . S
C1267 C1266 1.400 . S
C1267 C1268 1.398 . S
C1267 C1273 1.491 . S
C1268 H1259 0.950 . S
C1268 C1267 1.398 . S
C1268 C1269 1.391 . S
C1269 H1257 0.950 . S
C1269 C1265 1.393 . S
C1269 C1268 1.391 . S
C1270 H1260 0.950 . S
C1270 C1271 1.386 . S
C1270 C1272 1.391 . S
C1271 C1270 1.386 . S
C1271 C1275 1.393 . S
C1272 H1261 0.950 . S
C1272 C1270 1.391 . S
C1272 C1273 1.400 . S
C1273 C1267 1.491 . S
C1273 C1272 1.400 . S
C1273 C1274 1.398 . S
C1274 H1262 0.950 . S
C1274 C1273 1.398 . S
C1274 C1275 1.391 . S
C1275 H1263 0.950 . S
C1275 C1271 1.393 . S
C1275 C1274 1.391 . S
H1276 C1284 0.950 . S
H1277 C1289 0.950 . S
H1278 C1286 0.950 . S
H1279 C1288 0.950 . S
H1280 C1290 0.950 . S
H1281 C1292 0.950 . S
H1282 C1294 0.950 . S
H1283 C1295 0.950 . S
C1284 H1276 0.950 . S
C1284 C1285 1.386 . S
C1284 C1286 1.391 . S
C1285 C1284 1.386 . S
C1285 C1289 1.393 . S
C1286 H1278 0.950 . S
C1286 C1284 1.391 . S
C1286 C1287 1.400 . S
C1287 C1286 1.400 . S
C1287 C1288 1.398 . S
C1287 C1293 1.491 . S
C1288 H1279 0.950 . S
C1288 C1287 1.398 . S
C1288 C1289 1.391 . S
C1289 H1277 0.950 . S
C1289 C1285 1.393 . S
C1289 C1288 1.391 . S
C1290 H1280 0.950 . S
C1290 C1291 1.386 . S
C1290 C1292 1.391 . S
C1291 C1290 1.386 . S
C1291 C1295 1.393 . S
C1292 H1281 0.950 . S
C1292 C1290 1.391 . S
C1292 C1293 1.400 . S
C1293 C1287 1.491 . S
C1293 C1292 1.400 . S
C1293 C1294 1.398 . S
C1294 H1282 0.950 . S
C1294 C1293 1.398 . S
C1294 C1295 1.391 . S
C1295 H1283 0.950 . S
C1295 C1291 1.393 . S
C1295 C1294 1.391 . S
H1296 C1304 0.950 . S
H1297 C1309 0.950 . S
H1298 C1306 0.950 . S
H1299 C1308 0.950 . S
H1300 C1310 0.950 . S
H1301 C1312 0.950 . S
H1302 C1314 0.950 . S
H1303 C1315 0.950 . S
C1304 H1296 0.950 . S
C1304 C1305 1.386 . S
C1304 C1306 1.391 . S
C1305 C1304 1.386 . S
C1305 C1309 1.393 . S
C1306 H1298 0.950 . S
C1306 C1304 1.391 . S
C1306 C1307 1.400 . S
C1307 C1306 1.400 . S
C1307 C1308 1.398 . S
C1307 C1313 1.491 . S
C1308 H1299 0.950 . S
C1308 C1307 1.398 . S
C1308 C1309 1.391 . S
C1309 H1297 0.950 . S
C1309 C1305 1.393 . S
C1309 C1308 1.391 . S
C1310 H1300 0.950 . S
C1310 C1311 1.386 . S
C1310 C1312 1.391 . S
C1311 C1310 1.386 . S
C1311 C1315 1.393 . S
C1312 H1301 0.950 . S
C1312 C1310 1.391 . S
C1312 C1313 1.400 . S
C1313 C1307 1.491 . S
C1313 C1312 1.400 . S
C1313 C1314 1.398 . S
C1314 H1302 0.950 . S
C1314 C1313 1.398 . S
C1314 C1315 1.391 . S
C1315 H1303 0.950 . S
C1315 C1311 1.393 . S
C1315 C1314 1.391 . S
H1316 C1324 0.950 . S
H1317 C1329 0.950 . S
H1318 C1326 0.950 . S
H1319 C1328 0.950 . S
H1320 C1330 0.950 . S
H1321 C1332 0.950 . S
H1322 C1334 0.950 . S
H1323 C1335 0.950 . S
C1324 H1316 0.950 . S
C1324 C1325 1.386 . S
C1324 C1326 1.391 . S
C1325 C1324 1.386 . S
C1325 C1329 1.393 . S
C1326 H1318 0.950 . S
C1326 C1324 1.391 . S
C1326 C1327 1.400 . S
C1327 C1326 1.400 . S
C1327 C1328 1.398 . S
C1327 C1333 1.491 . S
C1328 H1319 0.950 . S
C1328 C1327 1.398 . S
C1328 C1329 1.391 . S
C1329 H1317 0.950 . S
C1329 C1325 1.393 . S
C1329 C1328 1.391 . S
C1330 H1320 0.950 . S
C1330 C1331 1.386 . S
C1330 C1332 1.391 . S
C1331 C1330 1.386 . S
C1331 C1335 1.393 . S
C1332 H1321 0.950 . S
C1332 C1330 1.391 . S
C1332 C1333 1.400 . S
C1333 C1327 1.491 . S
C1333 C1332 1.400 . S
C1333 C1334 1.398 . S
C1334 H1322 0.950 . S
C1334 C1333 1.398 . S
C1334 C1335 1.391 . S
C1335 H1323 0.950 . S
C1335 C1331 1.393 . S
C1335 C1334 1.391 . S
H1336 C1344 0.950 . S
H1337 C1349 0.950 . S
H1338 C1346 0.950 . S
H1339 C1348 0.950 . S
H1340 C1350 0.950 . S
H1341 C1352 0.950 . S
H1342 C1354 0.950 . S
H1343 C1355 0.950 . S
C1344 H1336 0.950 . S
C1344 C1345 1.386 . S
C1344 C1346 1.391 . S
C1345 C1344 1.386 . S
C1345 C1349 1.393 . S
C1346 H1338 0.950 . S
C1346 C1344 1.391 . S
C1346 C1347 1.400 . S
C1347 C1346 1.400 . S
C1347 C1348 1.398 . S
C1347 C1353 1.491 . S
C1348 H1339 0.950 . S
C1348 C1347 1.398 . S
C1348 C1349 1.391 . S
C1349 H1337 0.950 . S
C1349 C1345 1.393 . S
C1349 C1348 1.391 . S
C1350 H1340 0.950 . S
C1350 C1351 1.386 . S
C1350 C1352 1.391 . S
C1351 C1350 1.386 . S
C1351 C1355 1.393 . S
C1352 H1341 0.950 . S
C1352 C1350 1.391 . S
C1352 C1353 1.400 . S
C1353 C1347 1.491 . S
C1353 C1352 1.400 . S
C1353 C1354 1.398 . S
C1354 H1342 0.950 . S
C1354 C1353 1.398 . S
C1354 C1355 1.391 . S
C1355 H1343 0.950 . S
C1355 C1351 1.393 . S
C1355 C1354 1.391 . S
H1356 C1364 0.950 . S
H1357 C1369 0.950 . S
H1358 C1366 0.950 . S
H1359 C1368 0.950 . S
H1360 C1370 0.950 . S
H1361 C1372 0.950 . S
H1362 C1374 0.950 . S
H1363 C1375 0.950 . S
C1364 H1356 0.950 . S
C1364 C1365 1.386 . S
C1364 C1366 1.391 . S
C1365 C1364 1.386 . S
C1365 C1369 1.393 . S
C1366 H1358 0.950 . S
C1366 C1364 1.391 . S
C1366 C1367 1.400 . S
C1367 C1366 1.400 . S
C1367 C1368 1.398 . S
C1367 C1373 1.491 . S
C1368 H1359 0.950 . S
C1368 C1367 1.398 . S
C1368 C1369 1.391 . S
C1369 H1357 0.950 . S
C1369 C1365 1.393 . S
C1369 C1368 1.391 . S
C1370 H1360 0.950 . S
C1370 C1371 1.386 . S
C1370 C1372 1.391 . S
C1371 C1370 1.386 . S
C1371 C1375 1.393 . S
C1372 H1361 0.950 . S
C1372 C1370 1.391 . S
C1372 C1373 1.400 . S
C1373 C1367 1.491 . S
C1373 C1372 1.400 . S
C1373 C1374 1.398 . S
C1374 H1362 0.950 . S
C1374 C1373 1.398 . S
C1374 C1375 1.391 . S
C1375 H1363 0.950 . S
C1375 C1371 1.393 . S
C1375 C1374 1.391 . S
H1376 C1384 0.950 . S
H1377 C1389 0.950 . S
H1378 C1386 0.950 . S
H1379 C1388 0.950 . S
H1380 C1390 0.950 . S
H1381 C1392 0.950 . S
H1382 C1394 0.950 . S
H1383 C1395 0.950 . S
C1384 H1376 0.950 . S
C1384 C1385 1.386 . S
C1384 C1386 1.391 . S
C1385 C1384 1.386 . S
C1385 C1389 1.393 . S
C1386 H1378 0.950 . S
C1386 C1384 1.391 . S
C1386 C1387 1.400 . S
C1387 C1386 1.400 . S
C1387 C1388 1.398 . S
C1387 C1393 1.491 . S
C1388 H1379 0.950 . S
C1388 C1387 1.398 . S
C1388 C1389 1.391 . S
C1389 H1377 0.950 . S
C1389 C1385 1.393 . S
C1389 C1388 1.391 . S
C1390 H1380 0.950 . S
C1390 C1391 1.386 . S
C1390 C1392 1.391 . S
C1391 C1390 1.386 . S
C1391 C1395 1.393 . S
C1392 H1381 0.950 . S
C1392 C1390 1.391 . S
C1392 C1393 1.400 . S
C1393 C1387 1.491 . S
C1393 C1392 1.400 . S
C1393 C1394 1.398 . S
C1394 H1382 0.950 . S
C1394 C1393 1.398 . S
C1394 C1395 1.391 . S
C1395 H1383 0.950 . S
C1395 C1391 1.393 . S
C1395 C1394 1.391 . S
H1396 C1404 0.950 . S
H1397 C1409 0.950 . S
H1398 C1406 0.950 . S
H1399 C1408 0.950 . S
H1400 C1410 0.950 . S
H1401 C1412 0.950 . S
H1402 C1414 0.950 . S
H1403 C1415 0.950 . S
C1404 H1396 0.950 . S
C1404 C1405 1.386 . S
C1404 C1406 1.391 . S
C1405 C1404 1.386 . S
C1405 C1409 1.393 . S
C1406 H1398 0.950 . S
C1406 C1404 1.391 . S
C1406 C1407 1.400 . S
C1407 C1406 1.400 . S
C1407 C1408 1.398 . S
C1407 C1413 1.491 . S
C1408 H1399 0.950 . S
C1408 C1407 1.398 . S
C1408 C1409 1.391 . S
C1409 H1397 0.950 . S
C1409 C1405 1.393 . S
C1409 C1408 1.391 . S
C1410 H1400 0.950 . S
C1410 C1411 1.386 . S
C1410 C1412 1.391 . S
C1411 C1410 1.386 . S
C1411 C1415 1.393 . S
C1412 H1401 0.950 . S
C1412 C1410 1.391 . S
C1412 C1413 1.400 . S
C1413 C1407 1.491 . S
C1413 C1412 1.400 . S
C1413 C1414 1.398 . S
C1414 H1402 0.950 . S
C1414 C1413 1.398 . S
C1414 C1415 1.391 . S
C1415 H1403 0.950 . S
C1415 C1411 1.393 . S
C1415 C1414 1.391 . S
H1416 C1424 0.950 . S
H1417 C1429 0.950 . S
H1418 C1426 0.950 . S
H1419 C1428 0.950 . S
H1420 C1430 0.950 . S
H1421 C1432 0.950 . S
H1422 C1434 0.950 . S
H1423 C1435 0.950 . S
C1424 H1416 0.950 . S
C1424 C1425 1.386 . S
C1424 C1426 1.391 . S
C1425 C1424 1.386 . S
C1425 C1429 1.393 . S
C1426 H1418 0.950 . S
C1426 C1424 1.391 . S
C1426 C1427 1.400 . S
C1427 C1426 1.400 . S
C1427 C1428 1.398 . S
C1427 C1433 1.491 . S
C1428 H1419 0.950 . S
C1428 C1427 1.398 . S
C1428 C1429 1.391 . S
C1429 H1417 0.950 . S
C1429 C1425 1.393 . S
C1429 C1428 1.391 . S
C1430 H1420 0.950 . S
C1430 C1431 1.386 . S
C1430 C1432 1.391 . S
C1431 C1430 1.386 . S
C1431 C1435 1.393 . S
C1432 H1421 0.950 . S
C1432 C1430 1.391 . S
C1432 C1433 1.400 . S
C1433 C1427 1.491 . S
C1433 C1432 1.400 . S
C1433 C1434 1.398 . S
C1434 H1422 0.950 . S
C1434 C1433 1.398 . S
C1434 C1435 1.391 . S
C1435 H1423 0.950 . S
C1435 C1431 1.393 . S
C1435 C1434 1.391 . S
H1436 C1444 0.950 . S
H1437 C1449 0.950 . S
H1438 C1446 0.950 . S
H1439 C1448 0.950 . S
H1440 C1450 0.950 . S
H1441 C1452 0.950 . S
H1442 C1454 0.950 . S
H1443 C1455 0.950 . S
C1444 H1436 0.950 . S
C1444 C1445 1.386 . S
C1444 C1446 1.391 . S
C1445 C1444 1.386 . S
C1445 C1449 1.393 . S
C1446 H1438 0.950 . S
C1446 C1444 1.391 . S
C1446 C1447 1.400 . S
C1447 C1446 1.400 . S
C1447 C1448 1.398 . S
C1447 C1453 1.491 . S
C1448 H1439 0.950 . S
C1448 C1447 1.398 . S
C1448 C1449 1.391 . S
C1449 H1437 0.950 . S
C1449 C1445 1.393 . S
C1449 C1448 1.391 . S
C1450 H1440 0.950 . S
C1450 C1451 1.386 . S
C1450 C1452 1.391 . S
C1451 C1450 1.386 . S
C1451 C1455 1.393 . S
C1452 H1441 0.950 . S
C1452 C1450 1.391 . S
C1452 C1453 1.400 . S
C1453 C1447 1.491 . S
C1453 C1452 1.400 . S
C1453 C1454 1.398 . S
C1454 H1442 0.950 . S
C1454 C1453 1.398 . S
C1454 C1455 1.391 . S
C1455 H1443 0.950 . S
C1455 C1451 1.393 . S
C1455 C1454 1.391 . S
H1456 C1464 0.950 . S
H1457 C1469 0.950 . S
H1458 C1466 0.950 . S
H1459 C1468 0.950 . S
H1460 C1470 0.950 . S
H1461 C1472 0.950 . S
H1462 C1474 0.950 . S
H1463 C1475 0.950 . S
C1464 H1456 0.950 . S
C1464 C1465 1.386 . S
C1464 C1466 1.391 . S
C1465 C1464 1.386 . S
C1465 C1469 1.393 . S
C1466 H1458 0.950 . S
C1466 C1464 1.391 . S
C1466 C1467 1.400 . S
C1467 C1466 1.400 . S
C1467 C1468 1.398 . S
C1467 C1473 1.491 . S
C1468 H1459 0.950 . S
C1468 C1467 1.398 . S
C1468 C1469 1.391 . S
C1469 H1457 0.950 . S
C1469 C1465 1.393 . S
C1469 C1468 1.391 . S
C1470 H1460 0.950 . S
C1470 C1471 1.386 . S
C1470 C1472 1.391 . S
C1471 C1470 1.386 . S
C1471 C1475 1.393 . S
C1472 H1461 0.950 . S
C1472 C1470 1.391 . S
C1472 C1473 1.400 . S
C1473 C1467 1.491 . S
C1473 C1472 1.400 . S
C1473 C1474 1.398 . S
C1474 H1462 0.950 . S
C1474 C1473 1.398 . S
C1474 C1475 1.391 . S
C1475 H1463 0.950 . S
C1475 C1471 1.393 . S
C1475 C1474 1.391 . S
C405 C162 1.557 . S
C411 C222 1.531 . S
C425 C174 1.521 . S
C431 C242 1.504 . S
C445 C150 1.518 . S
C451 C265 1.519 . S
C465 C138 1.430 . S
C471 C245 1.429 1_556 S
C491 C262 1.425 . S
C485 C114 1.447 . S
C505 C126 1.471 . S
C511 C225 1.470 1_556 S
C531 C232 1.537 . S
C525 C136 1.553 . S
C551 C252 1.429 . S
C545 C112 1.450 . S
C565 C124 1.533 . S
C571 C257 1.548 1_556 S
C585 C160 1.435 . S
C591 C237 1.453 . S
C605 C172 1.439 . S
C611 C272 1.420 . S
C631 C217 1.536 . S
C625 C148 1.530 . S
C651 C282 1.531 . S
C645 C18 1.557 . S
C665 C30 1.522 . S
C671 C302 1.504 . S
C685 C6 1.519 . S
C691 C325 1.522 . S
C705 C210 1.420 . S
C711 C305 1.421 . S
C725 C186 1.449 . S
C731 C322 1.431 . S
C745 C198 1.470 . S
C751 C285 1.471 . S
C765 C208 1.564 . S
C771 C292 1.545 . S
C785 C184 1.443 . S
C791 C312 1.425 . S
C811 C317 1.562 . S
C805 C196 1.544 . S
C825 C16 1.441 . S
C831 C297 1.455 . S
C851 C332 1.416 . S
C845 C28 1.437 . S
C865 C4 1.525 . S
C871 C277 1.544 . S
C891 C342 1.531 . S
C885 C90 1.557 . S
C905 C102 1.517 . S
C911 C362 1.493 . S
C931 C385 1.515 . S
C925 C78 1.508 . S
C951 C365 1.431 . S
C945 C66 1.429 . S
C971 C382 1.426 . S
C965 C42 1.447 . S
C985 C54 1.464 . S
C991 C345 1.467 . S
C1005 C64 1.567 . S
C1011 C352 1.550 . S
C1025 C40 1.455 . S
C1031 C372 1.442 . S
C1051 C377 1.569 . S
C1045 C52 1.543 . S
C1065 C88 1.433 . S
C1071 C357 1.457 . S
C1085 C100 1.441 . S
C1091 C392 1.423 . S
C1105 C76 1.518 . S
C1111 C337 1.535 . S
C1125 C189 1.366 . S
C1131 C235 1.318 . S
C1151 C255 1.640 . S
C1145 C201 1.726 . S
C1165 C213 1.525 . S
C1171 C264 1.478 . S
C1185 C81 1.689 . S
C1191 C244 1.647 . S
C1205 C93 1.592 . S
C1211 C275 1.529 . S
C1231 C224 1.319 . S
C1225 C105 1.329 . S
C1245 C45 1.360 . S
C1251 C295 1.310 . S
C1265 C57 1.725 . S
C1271 C315 1.645 . S
C1285 C69 1.516 . S
C1291 C324 1.487 . S
C1305 C153 1.691 . S
C1311 C304 1.634 . S
C1331 C335 1.520 . S
C1325 C165 1.590 . S
C1345 C177 1.336 . S
C1351 C284 1.323 . S
C1365 C117 1.363 . S
C1371 C355 1.302 . S
C1385 C129 1.722 . S
C1391 C375 1.628 . S
C1411 C384 1.485 . S
C1405 C141 1.528 . S
C1425 C9 1.680 . S
C1431 C364 1.634 . S
C1445 C21 1.594 . S
C1451 C395 1.529 . S
C1465 C33 1.328 . S
C1471 C344 1.310 . S
