# Generated by pormake.
# Topology ftw, (4,12)-cn, num edge types: 1
# Building blocks:
#     Node 0, Type 0, BuildingBlock: MIFKUJ_clean_linker_1, # of connection points: 4
#     Node 1, Type 0, BuildingBlock: MIFKUJ_clean_linker_1, # of connection points: 4
#     Node 2, Type 0, BuildingBlock: MIFKUJ_clean_linker_1, # of connection points: 4
#     Node 3, Type 1, BuildingBlock: QEWDON_clean_sbu_0, # of connection points: 12
#     Edge 4, Type (0, 1), BuildingBlock: XUDNAN_clean_linker_2, # of connection points: 2
#     Edge 5, Type (0, 1), BuildingBlock: XUDNAN_clean_linker_2, # of connection points: 2
#     Edge 6, Type (0, 1), BuildingBlock: XUDNAN_clean_linker_2, # of connection points: 2
#     Edge 7, Type (0, 1), BuildingBlock: XUDNAN_clean_linker_2, # of connection points: 2
#     Edge 8, Type (0, 1), BuildingBlock: XUDNAN_clean_linker_2, # of connection points: 2
#     Edge 9, Type (0, 1), BuildingBlock: XUDNAN_clean_linker_2, # of connection points: 2
#     Edge 10, Type (0, 1), BuildingBlock: XUDNAN_clean_linker_2, # of connection points: 2
#     Edge 11, Type (0, 1), BuildingBlock: XUDNAN_clean_linker_2, # of connection points: 2
#     Edge 12, Type (0, 1), BuildingBlock: XUDNAN_clean_linker_2, # of connection points: 2
#     Edge 13, Type (0, 1), BuildingBlock: XUDNAN_clean_linker_2, # of connection points: 2
#     Edge 14, Type (0, 1), BuildingBlock: XUDNAN_clean_linker_2, # of connection points: 2
#     Edge 15, Type (0, 1), BuildingBlock: XUDNAN_clean_linker_2, # of connection points: 2
# Relax obj value: 0.070
# Max RMSD: 0.194
# Mean RMSD: 0.143
data_MOF--net-ftw--node1-QEWDON_clean_sbu_0--node2-MIFKUJ_clean_linker_1--edge1-XUDNAN_clean_linker_2
_symmetry_space_group_name_H-M    P1
_symmetry_Int_Tables_number       1
_symmetry_cell_setting            triclinic
loop_
_symmetry_equiv_pos_as_xyz
'x, y, z'
_cell_length_a     26.77222
_cell_length_b     30.082438
_cell_length_c     29.047267
_cell_angle_alpha  90.101761
_cell_angle_beta   90.153509
_cell_angle_gamma 89.95146
loop_
_atom_site_label
_atom_site_type_symbol
_atom_site_fract_x
_atom_site_fract_y
_atom_site_fract_z
_atom_type_partial_charge
H0 H 0.0777 0.55517 0.58743 0.0
H1 H 0.08714 0.61622 0.64204 0.0
H2 H 0.93413 0.65538 0.61761 0.0
H3 H 0.92482 0.59347 0.56269 0.0
H4 H 0.01035 0.48728 0.60132 0.0
H5 H 0.05329 0.58657 0.46845 0.0
H6 H 0.04579 0.64631 0.41197 0.0
H7 H 0.88618 0.62426 0.40568 0.0
H8 H 0.89501 0.56286 0.45978 0.0
H9 H 0.90833 0.40619 0.448 0.0
H10 H 0.91284 0.34369 0.39449 0.0
H11 H 0.07251 0.33604 0.4173 0.0
H12 H 0.06644 0.39621 0.47316 0.0
H13 H 0.9677 0.48796 0.43531 0.0
H14 H 0.93079 0.37806 0.55221 0.0
H15 H 0.93703 0.31562 0.60627 0.0
H16 H 0.08362 0.36075 0.64749 0.0
H17 H 0.07737 0.42243 0.59333 0.0
C18 C 0.00075 0.56986 0.57042 0.0
C19 C 0.04635 0.57731 0.59313 0.0
C20 C 0.0517 0.61237 0.62443 0.0
C21 C 0.01142 0.64091 0.63432 0.0
C22 C 0.96582 0.6339 0.61105 0.0
C23 C 0.96064 0.59887 0.57919 0.0
C24 C -0.00596 0.52849 0.54264 0.0
C25 C 0.00152 0.48743 0.56484 0.0
C26 C 0.98071 0.52862 0.49543 0.0
C27 C 0.97471 0.57027 0.4684 0.0
C28 C 0.01662 0.59519 0.45534 0.0
C29 C 0.01212 0.62959 0.42294 0.0
C30 C 0.96538 0.64023 0.40316 0.0
C31 C 0.92311 0.61656 0.41862 0.0
C32 C 0.92787 0.58171 0.45027 0.0
C33 C 0.98691 0.40567 0.46503 0.0
C34 C 0.94409 0.39033 0.44204 0.0
C35 C 0.94702 0.35479 0.41075 0.0
C36 C -0.00676 0.33435 0.40049 0.0
C37 C 0.03594 0.34971 0.42436 0.0
C38 C 0.03268 0.38452 0.45644 0.0
C39 C 0.98521 0.44676 0.49384 0.0
C40 C 0.97617 0.48774 0.47186 0.0
C41 C -0.00281 0.44659 0.54135 0.0
C42 C 0.00377 0.40489 0.56837 0.0
C43 C 0.96473 0.37388 0.57213 0.0
C44 C 0.96807 0.33852 0.60351 0.0
C45 C 0.01073 0.3332 0.63146 0.0
C46 C 0.05042 0.36343 0.62629 0.0
C47 C 0.04688 0.39886 0.59532 0.0
H48 H 0.3891 0.05439 0.47335 0.0
H49 H 0.32088 0.0465 0.4181 0.0
H50 H 0.3834 0.92233 0.37095 0.0
H51 H 0.4517 0.9299 0.42723 0.0
H52 H 0.39724 -0.00202 0.5417 0.0
H53 H 0.50886 0.04227 0.41525 0.0
H54 H 0.56242 0.03711 0.34692 0.0
H55 H 0.63468 0.92161 0.40565 0.0
H56 H 0.5796 0.92533 0.47131 0.0
H57 H 0.58841 0.9317 0.60478 0.0
H58 H 0.6497 0.93974 0.66712 0.0
H59 H 0.58577 0.06702 0.70262 0.0
H60 H 0.52431 0.05867 0.64049 0.0
H61 H 0.58135 0.98736 0.5312 0.0
H62 H 0.47046 0.92898 0.64296 0.0
H63 H 0.41893 0.92004 0.71135 0.0
H64 H 0.34928 0.04725 0.68438 0.0
H65 H 0.39967 0.05481 0.61482 0.0
C66 C 0.42569 0.99277 0.45466 0.0
C67 C 0.38888 0.02586 0.45054 0.0
C68 C 0.34971 0.02122 0.41909 0.0
C69 C 0.34642 0.98348 0.39071 0.0
C70 C 0.38508 0.95179 0.39237 0.0
C71 C 0.42427 0.95624 0.42436 0.0
C72 C 0.4598 0.99349 0.4953 0.0
C73 C 0.43764 -0.00346 0.53908 0.0
C74 C 0.51241 0.98895 0.49242 0.0
C75 C 0.53977 0.98389 0.44827 0.0
C76 C 0.53529 0.01512 0.41256 0.0
C77 C 0.56651 0.01253 0.37384 0.0
C78 C 0.60289 0.97879 0.37037 0.0
C79 C 0.60648 0.94741 0.40612 0.0
C80 C 0.57512 0.9497 0.44417 0.0
C81 C 0.55157 -0.00553 0.61808 0.0
C82 C 0.58705 0.96098 0.62651 0.0
C83 C 0.62195 0.96554 0.66222 0.0
C84 C 0.62266 0.0041 0.68964 0.0
C85 C 0.58631 0.03707 0.68187 0.0
C86 C 0.55094 0.03218 0.64663 0.0
C87 C 0.51863 0.99217 0.57681 0.0
C88 C 0.54092 0.98908 0.53329 0.0
C89 C 0.46613 -0.00481 0.57969 0.0
C90 C 0.43933 0.99281 0.62416 0.0
C91 C 0.44465 0.95524 0.65225 0.0
C92 C 0.41502 0.95022 0.69141 0.0
C93 C 0.37969 0.98289 0.70361 0.0
C94 C 0.3753 0.02098 0.67575 0.0
C95 C 0.40453 0.02568 0.63625 0.0
H96 H 0.57561 0.58673 0.94522 0.0
H97 H 0.61751 0.65803 0.95702 0.0
H98 H 0.58486 0.65092 0.10267 0.0
H99 H 0.5412 0.58054 0.08998 0.0
H100 H 0.58319 0.49292 1.00895 0.0
H101 H 0.47699 0.61496 0.94422 0.0
H102 H 0.45174 0.69238 0.95574 0.0
H103 H 0.3935 0.65833 0.08984 0.0
H104 H 0.42058 0.58135 0.0786 0.0
H105 H 0.38823 0.44899 0.06263 0.0
H106 H 0.3372 0.38191 0.06635 0.0
H107 H 0.40266 0.3351 0.93934 0.0
H108 H 0.45323 0.40299 0.93526 0.0
H109 H 0.39944 0.51666 1.00065 0.0
H110 H 0.49777 0.39937 0.06963 0.0
H111 H 0.52284 0.32109 0.06706 0.0
H112 H 0.59718 0.34435 0.93738 0.0
H113 H 0.57086 0.42223 0.93966 0.0
C114 C 0.55653 0.57851 0.01693 0.0
C115 C 0.57852 0.60029 0.97971 0.0
C116 C 0.60182 0.64107 0.98648 0.0
C117 C 0.60411 0.66002 0.03074 0.0
C118 C 0.58279 0.63747 0.0681 0.0
C119 C 0.55898 0.59695 0.06116 0.0
C120 C 0.52339 0.54084 1.0085 0.0
C121 C 0.54316 0.49795 1.00619 0.0
C122 C 0.47143 0.54772 1.00614 0.0
C123 C 0.45035 0.59274 1.01053 0.0
C124 C 0.45861 0.62431 0.97597 0.0
C125 C 0.44437 0.66842 0.98267 0.0
C126 C 0.42128 0.68147 0.02393 0.0
C127 C 0.41229 0.64945 0.05815 0.0
C128 C 0.42675 0.60538 0.05146 0.0
C129 C 0.42423 0.43067 0.99872 0.0
C130 C 0.39073 0.42476 0.03508 0.0
C131 C 0.36195 0.38647 0.03728 0.0
C132 C 0.3664 0.35366 1.00315 0.0
C133 C 0.39913 0.35997 0.96615 0.0
C134 C 0.42761 0.39862 0.9637 0.0
C135 C 0.45899 0.46832 1.00024 0.0
C136 C 0.43952 0.51141 1.00198 0.0
C137 C 0.51116 0.46143 1.00295 0.0
C138 C 0.53226 0.41621 1.00462 0.0
C139 C 0.51976 0.38751 0.04085 0.0
C140 C 0.53389 0.34291 0.03928 0.0
C141 C 0.56097 0.32653 1.00155 0.0
C142 C 0.57508 0.35585 0.96623 0.0
C143 C 0.56091 0.40042 0.96783 0.0
Zn144 Zn 0.05905 0.05602 0.99366 0.0
Zn145 Zn 0.0506 0.0651 0.10648 0.0
O146 O 0.04379 0.0228 0.05222 0.0
H147 H 0.04896 0.99111 0.05083 0.0
C148 C 0.97593 0.12624 0.89343 0.0
O149 O 0.00518 0.09384 0.9074 0.0
Zn150 Zn 0.93456 0.94351 0.11203 0.0
Zn151 Zn 0.92956 0.93144 1.00233 0.0
O152 O 0.95778 0.9709 0.05333 0.0
H153 H 0.95521 0.00267 0.05053 0.0
Zn154 Zn 0.90435 0.09241 0.96678 0.0
O155 O 0.93991 0.08022 0.02815 0.0
Zn156 Zn 0.88759 0.08275 0.0788 0.0
H157 H 0.97533 0.08496 0.03209 0.0
Zn158 Zn 0.0699 0.8929 0.98747 0.0
O159 O 0.02719 0.89848 0.0462 0.0
H160 H 0.0434 0.89548 0.0167 0.0
Zn161 Zn 0.07477 0.90733 0.10053 0.0
C162 C 0.01722 0.83465 0.90953 0.0
O163 O 0.97699 0.82896 0.93463 0.0
O164 O 0.10176 0.109 0.01133 0.0
O165 O 0.10184 0.11045 0.08834 0.0
O166 O 0.88985 0.88066 0.03025 0.0
O167 O 0.87132 0.91122 0.09784 0.0
O168 O 0.82851 0.09833 0.97523 0.0
O169 O 0.82266 0.10411 0.05157 0.0
C170 C 0.08623 0.9916 0.16078 0.0
O171 O 0.14463 0.89184 1.00411 0.0
O172 O 0.14557 0.89544 0.08078 0.0
O173 O 0.88457 0.95681 0.94882 0.0
C174 C 0.11701 0.12463 0.04952 0.0
O175 O 0.09664 0.02197 0.94166 0.0
C176 C 0.87868 0.01388 0.15066 0.0
O177 O 0.93433 0.13236 0.91361 0.0
C178 C 0.86254 0.88334 0.06594 0.0
O179 O 0.05328 0.85789 0.92534 0.0
C180 C 0.95617 0.12237 0.14126 0.0
O181 O 0.0777 0.0331 0.16208 0.0
O182 O 0.07261 0.96994 0.12527 0.0
C183 C 0.80302 0.1053 0.01151 0.0
O184 O 0.91832 0.99165 0.15769 0.0
O185 O 0.86794 0.02373 0.10913 0.0
C186 C 0.00815 0.86824 0.1624 0.0
O187 O 0.91062 0.12485 0.12905 0.0
O188 O 0.98363 0.09463 0.11967 0.0
C189 C 0.16814 0.89184 0.04231 0.0
O190 O 0.05379 0.86635 0.15083 0.0
O191 O 0.97978 0.89698 0.14324 0.0
C192 C 0.89101 0.99019 0.92273 0.0
O193 O 0.93139 0.01451 0.92766 0.0
C194 C 0.13639 0.00236 0.95451 0.0
O195 O 0.14701 0.00117 0.99869 0.0
H196 H 0.93366 0.32069 0.32299 0.0
H197 H 0.06153 0.26479 0.39519 0.0
H198 H 0.06994 0.20816 0.3345 0.0
H199 H 0.88097 0.21458 0.29127 0.0
H200 H 0.85779 0.23458 0.2368 0.0
H201 H 0.86403 0.27224 0.2847 0.0
H202 H 0.91953 0.32372 0.23501 0.0
H203 H 0.91398 0.28597 0.18708 0.0
H204 H 0.97488 0.30149 0.20825 0.0
H205 H 0.06466 0.15662 0.26389 0.0
H206 H 0.04055 0.11198 0.19538 0.0
H207 H 0.91258 0.19809 0.17431 0.0
C208 C 0.96315 0.29639 0.32689 0.0
C209 C -0.00282 0.29829 0.36441 0.0
C210 C 0.03554 0.26557 0.36664 0.0
C211 C 0.04051 0.23275 0.3323 0.0
C212 C 0.00646 0.23222 0.29592 0.0
C213 C 0.96807 0.26286 0.29348 0.0
C214 C 0.93494 0.25409 0.25205 0.0
C215 C 0.88127 0.24322 0.26712 0.0
C216 C 0.93591 0.29367 0.21862 0.0
C217 C 0.96059 0.2137 0.23153 0.0
C218 C 0.0022 0.2018 0.25687 0.0
C219 C 0.03195 0.16561 0.244 0.0
C220 C 0.01817 0.1405 0.20488 0.0
C221 C 0.97461 0.15126 0.17947 0.0
C222 C 0.94602 0.18873 0.19299 0.0
H223 H 0.64701 0.048 0.32171 0.0
H224 H 0.63937 0.90379 0.32878 0.0
H225 H 0.70746 0.89824 0.27278 0.0
H226 H 0.67245 0.05042 0.19506 0.0
H227 H 0.71315 0.09792 0.19983 0.0
H228 H 0.66202 0.09128 0.23948 0.0
H229 H 0.72393 0.09684 0.30787 0.0
H230 H 0.77526 0.10292 0.26848 0.0
H231 H 0.77624 0.05914 0.31074 0.0
H232 H 0.78361 0.90749 0.22667 0.0
H233 H 0.85532 0.9307 0.18021 0.0
H234 H 0.80807 0.06835 0.19071 0.0
C235 C 0.65871 0.01524 0.31066 0.0
C236 C 0.63839 0.97632 0.33086 0.0
C237 C 0.65524 0.93417 0.31531 0.0
C238 C 0.69373 0.93059 0.28312 0.0
C239 C 0.71419 0.9694 0.26544 0.0
C240 C 0.69653 0.01095 0.27745 0.0
C241 C 0.72555 0.04715 0.25258 0.0
C242 C 0.69125 0.07323 0.21978 0.0
C243 C 0.75179 0.07834 0.28699 0.0
C244 C 0.76317 0.01926 0.22609 0.0
C245 C 0.75601 0.97454 0.23466 0.0
C246 C 0.78866 0.94224 0.21834 0.0
C247 C 0.82931 0.9558 0.19182 0.0
C248 C 0.83634 0.00117 0.1805 0.0
C249 C 0.80276 0.03336 0.1979 0.0
H250 H 0.02273 0.71615 0.38744 0.0
H251 H 0.89917 0.64023 0.33007 0.0
H252 H 0.89202 0.69394 0.26687 0.0
H253 H 0.97814 0.8263 0.3535 0.0
H254 H 0.03962 0.84614 0.33907 0.0
H255 H 0.03211 0.80456 0.38313 0.0
H256 H 0.09304 0.75233 0.33961 0.0
H257 H 0.10084 0.79394 0.29577 0.0
H258 H 0.08078 0.73873 0.28014 0.0
H259 H 0.8981 0.75647 0.2086 0.0
H260 H 0.92426 0.8169 0.15585 0.0
H261 H 0.04928 0.84674 0.24571 0.0
C262 C -0.00587 0.71051 0.36173 0.0
C263 C 0.96092 0.67384 0.36496 0.0
C264 C 0.9241 0.6685 0.33001 0.0
C265 C 0.91989 0.69881 0.29346 0.0
C266 C 0.95307 0.73438 0.29153 0.0
C267 C 0.98988 0.74008 0.32445 0.0
C268 C 0.02284 0.77955 0.31273 0.0
C269 C 0.01788 0.8163 0.3493 0.0
C270 C 0.07761 0.76525 0.30669 0.0
C271 C -0.00016 0.79412 0.2674 0.0
C272 C 0.95865 0.76851 0.25645 0.0
C273 C 0.93044 0.77657 0.21679 0.0
C274 C 0.94534 0.81106 0.18715 0.0
C275 C 0.98876 0.83625 0.19672 0.0
C276 C 0.01602 0.82778 0.23755 0.0
H277 H 0.33822 0.9618 0.29837 0.0
H278 H 0.25056 0.98853 0.42064 0.0
H279 H 0.173 0.9797 0.37562 0.0
H280 H 0.26438 0.02272 0.22186 0.0
H281 H 0.27058 0.98468 0.17415 0.0
H282 H 0.31864 0.98745 0.21741 0.0
H283 H 0.30955 0.90288 0.23179 0.0
H284 H 0.26108 0.89981 0.18894 0.0
H285 H 0.24925 0.88034 0.24637 0.0
H286 H 0.10578 0.97604 0.31726 0.0
H287 H 0.05341 0.98466 0.24783 0.0
H288 H 0.18225 0.96013 0.16169 0.0
C289 C 0.30261 0.96493 0.31567 0.0
C290 C 0.30038 0.97576 0.36303 0.0
C291 C 0.25314 0.98045 0.38437 0.0
C292 C 0.20886 0.9751 0.35916 0.0
C293 C 0.21219 0.9649 0.31249 0.0
C294 C 0.25777 0.96014 0.29079 0.0
C295 C 0.25067 0.95291 0.23945 0.0
C296 C 0.27764 0.98911 0.21159 0.0
C297 C 0.26869 0.90622 0.22583 0.0
C298 C 0.19413 0.95684 0.23534 0.0
C299 C 0.17275 0.96249 0.27827 0.0
C300 C 0.12182 0.97065 0.28355 0.0
C301 C 0.09223 0.97517 0.24398 0.0
C302 C 0.11347 0.97152 0.19968 0.0
C303 C 0.16478 0.96097 0.19527 0.0
H304 H 0.94612 0.6665 0.70355 0.0
H305 H 0.09117 0.69681 0.64512 0.0
H306 H 0.10595 0.75177 0.70667 0.0
H307 H 0.91727 0.78163 0.74157 0.0
H308 H 0.887 0.76331 0.79353 0.0
H309 H 0.88584 0.72868 0.74283 0.0
H310 H 0.92418 0.66389 0.78956 0.0
H311 H 0.92571 0.69831 0.8403 0.0
H312 H 0.98221 0.67229 0.81998 0.0
H313 H 0.10769 0.8003 0.77649 0.0
H314 H 0.0963 0.83943 0.85023 0.0
H315 H 0.95003 0.77878 0.86501 0.0
C316 C 0.98053 0.68538 0.70316 0.0
C317 C 0.01755 0.67711 0.66934 0.0
C318 C 0.06245 0.70206 0.67075 0.0
C319 C 0.0711 0.7336 0.70549 0.0
C320 C 0.03443 0.74028 0.73873 0.0
C321 C 0.98987 0.71714 0.73782 0.0
C322 C 0.95772 0.72952 0.77903 0.0
C323 C 0.90907 0.75213 0.76329 0.0
C324 C 0.94684 0.68856 0.80899 0.0
C325 C -0.00821 0.76228 0.80377 0.0
C326 C 0.03558 0.76829 0.77951 0.0
C327 C 0.0734 0.79609 0.79564 0.0
C328 C 0.06655 0.81819 0.83774 0.0
C329 C 0.02226 0.81238 0.86375 0.0
C330 C 0.98427 0.78418 0.84608 0.0
H331 H 0.28119 0.00833 0.71535 0.0
H332 H 0.40527 0.94493 0.78636 0.0
H333 H 0.35267 0.9354 0.85495 0.0
H334 H 0.24014 0.07127 0.81116 0.0
H335 H 0.17461 0.06639 0.79768 0.0
H336 H 0.22015 0.06405 0.7523 0.0
H337 H 0.18464 0.98777 0.72625 0.0
H338 H 0.13926 0.98989 0.77193 0.0
H339 H 0.18079 0.94294 0.76721 0.0
H340 H 0.28959 0.93792 0.91785 0.0
H341 H 0.22125 0.95495 0.97165 0.0
H342 H 0.13801 0.01778 0.86104 0.0
C343 C 0.29749 0.99248 0.74526 0.0
C344 C 0.34753 0.97706 0.74502 0.0
C345 C 0.36689 0.95619 0.78503 0.0
C346 C 0.33732 0.95076 0.82435 0.0
C347 C 0.2884 0.96649 0.82339 0.0
C348 C 0.2686 0.98708 0.78499 0.0
C349 C 0.21593 0.00352 0.79409 0.0
C350 C 0.21254 0.05431 0.78848 0.0
C351 C 0.17793 0.97959 0.763 0.0
C352 C 0.20976 0.98985 0.84394 0.0
C353 C 0.25181 0.96805 0.85994 0.0
C354 C 0.25618 0.95438 0.90554 0.0
C355 C 0.21704 0.9641 0.93585 0.0
C356 C 0.17395 0.98717 0.92054 0.0
C357 C 0.17002 -0.00059 0.87368 0.0
H358 H 0.93731 0.30524 0.69155 0.0
H359 H 0.09116 0.28038 0.65235 0.0
H360 H 0.09856 0.22476 0.71435 0.0
H361 H 0.95569 0.29732 0.81226 0.0
H362 H 0.8973 0.26971 0.82369 0.0
H363 H 0.90284 0.30599 0.77473 0.0
H364 H 0.874 0.24237 0.7207 0.0
H365 H 0.86805 0.20597 0.76957 0.0
H366 H 0.90675 0.18998 0.72164 0.0
H367 H 0.09009 0.17278 0.78162 0.0
H368 H 0.06622 0.12814 0.8493 0.0
H369 H 0.91806 0.18689 0.84585 0.0
C370 C 0.97229 0.28755 0.69547 0.0
C371 C 0.01369 0.29731 0.66691 0.0
C372 C 0.05907 0.27391 0.67394 0.0
C373 C 0.06358 0.24206 0.70898 0.0
C374 C 0.02238 0.23375 0.73688 0.0
C375 C 0.9775 0.25565 0.73046 0.0
C376 C 0.93943 0.24131 0.76616 0.0
C377 C 0.92286 0.28094 0.79598 0.0
C378 C 0.8944 0.21856 0.74313 0.0
C379 C 0.9701 0.20831 0.79388 0.0
C380 C 0.01773 0.20424 0.77618 0.0
C381 C 0.05286 0.17567 0.79575 0.0
C382 C 0.03893 0.15044 0.83427 0.0
C383 C -0.00967 0.15403 0.8532 0.0
C384 C 0.95562 0.18353 0.83254 0.0
H385 H 0.65712 0.94585 0.7557 0.0
H386 H 0.68016 0.07823 0.70084 0.0
H387 H 0.75019 0.0896 0.75518 0.0
H388 H 0.68426 0.97518 0.87505 0.0
H389 H 0.71464 0.923 0.88729 0.0
H390 H 0.66598 0.92562 0.84441 0.0
H391 H 0.7259 0.89146 0.78415 0.0
H392 H 0.77481 0.88885 0.82673 0.0
H393 H 0.78519 0.91778 0.77331 0.0
H394 H 0.82087 0.08499 0.81237 0.0
H395 H 0.88368 0.06651 0.87173 0.0
H396 H 0.81268 0.93845 0.89225 0.0
C397 C 0.67689 0.97723 0.75526 0.0
C398 C 0.66315 0.01122 0.72408 0.0
C399 C 0.68967 0.05196 0.72477 0.0
C400 C 0.72967 0.05863 0.75534 0.0
C401 C 0.74244 0.02442 0.78546 0.0
C402 C 0.71653 0.98469 0.78604 0.0
C403 C 0.73753 0.95355 0.8223 0.0
C404 C 0.69827 0.94378 0.85947 0.0
C405 C 0.75702 0.91037 0.80029 0.0
C406 C 0.77997 0.98162 0.8413 0.0
C407 C 0.78218 0.02235 0.81949 0.0
C408 C 0.8192 0.05336 0.83 0.0
C409 C 0.85483 0.04254 0.86375 0.0
C410 C 0.85309 0.00122 0.88699 0.0
C411 C 0.81489 0.97052 0.8755 0.0
H412 H 0.26693 0.34824 0.01797 0.0
H413 H 0.39971 0.26802 0.99726 0.0
H414 H 0.34994 0.19973 1.01015 0.0
H415 H 0.21479 0.28423 0.10847 0.0
H416 H 0.15118 0.29125 0.08929 0.0
H417 H 0.19696 0.3334 0.07703 0.0
H418 H 0.17721 0.32733 0.98975 0.0
H419 H 0.13088 0.28564 1.00181 0.0
H420 H 0.18055 0.27384 0.96183 0.0
H421 H 0.28621 0.14137 0.02702 0.0
H422 H 0.21094 0.09566 0.04107 0.0
H423 H 0.12068 0.21483 0.05136 0.0
C424 C 0.28538 0.31622 0.01606 0.0
C425 C 0.33681 0.31292 1.00685 0.0
C426 C 0.36004 0.27077 1.00399 0.0
C427 C 0.33227 0.23207 0.01157 0.0
C428 C 0.28165 0.23659 0.02165 0.0
C429 C 0.25834 0.27754 0.02338 0.0
C430 C 0.2035 0.27349 0.03443 0.0
C431 C 0.1909 0.29698 0.08002 0.0
C432 C 0.17114 0.2911 0.99457 0.0
C433 C 0.19945 0.22373 0.0389 0.0
C434 C 0.245 0.20307 0.0316 0.0
C435 C 0.25045 0.15712 0.03303 0.0
C436 C 0.20786 0.1316 0.04126 0.0
C437 C 0.16108 0.15236 0.04798 0.0
C438 C 0.15663 0.19876 0.04721 0.0
H439 H 0.37209 0.73166 0.96093 0.0
H440 H 0.42713 0.73372 0.10131 0.0
H441 H 0.38207 0.80408 0.11512 0.0
H442 H 0.36417 0.8598 0.94492 0.0
H443 H 0.30789 0.85258 0.91156 0.0
H444 H 0.35678 0.81139 0.90887 0.0
H445 H 0.29223 0.75063 0.93142 0.0
H446 H 0.24403 0.79173 0.9347 0.0
H447 H 0.25712 0.75715 0.98392 0.0
H448 H 0.31599 0.86116 0.11947 0.0
H449 H 0.23356 0.8977 0.11427 0.0
H450 H 0.22281 0.86007 0.97067 0.0
C451 C 0.37675 0.74816 0.99381 0.0
C452 C 0.40311 0.72751 0.02997 0.0
C453 C 0.40684 0.74904 0.07319 0.0
C454 C 0.3819 0.78927 0.08114 0.0
C455 C 0.35408 0.80777 0.04531 0.0
C456 C 0.35198 0.78816 1.0022 0.0
C457 C 0.31266 0.80966 0.97214 0.0
C458 C 0.33684 0.83487 0.93201 0.0
C459 C 0.27428 0.77526 0.9546 0.0
C460 C 0.28984 0.84155 1.00635 0.0
C461 C 0.31533 0.84123 0.04787 0.0
C462 C 0.29661 0.8627 0.08677 0.0
C463 C 0.24967 0.88309 0.08369 0.0
C464 C 0.22187 0.88126 0.0423 0.0
C465 C 0.24354 0.86244 1.00264 0.0
H466 H 0.60166 0.27776 0.07091 0.0
H467 H 0.55764 0.27039 0.92748 0.0
H468 H 0.5996 0.19776 0.92047 0.0
H469 H 0.71613 0.24678 0.05857 0.0
H470 H 0.72334 0.21342 0.10967 0.0
H471 H 0.67687 0.25617 0.10803 0.0
H472 H 0.60822 0.1985 0.12779 0.0
H473 H 0.65491 0.15525 0.12969 0.0
H474 H 0.60117 0.14944 0.09267 0.0
H475 H 0.66378 0.13976 0.92273 0.0
H476 H 0.74388 0.10107 0.93447 0.0
H477 H 0.74492 0.14328 0.07736 0.0
C478 C 0.59874 0.2597 0.03874 0.0
C479 C 0.57666 0.27948 0.99974 0.0
C480 C 0.57483 0.25578 0.95768 0.0
C481 C 0.59799 0.21427 0.95356 0.0
C482 C 0.62207 0.19666 0.99202 0.0
C483 C 0.62178 0.21825 0.03418 0.0
C484 C 0.65746 0.19656 0.06781 0.0
C485 C 0.69569 0.23023 0.08706 0.0
C486 C 0.62872 0.17357 0.1068 0.0
C487 C 0.68174 0.16272 0.03652 0.0
C488 C 0.65953 0.16207 0.99345 0.0
C489 C 0.68048 0.13882 0.95668 0.0
C490 C 0.72624 0.11724 0.96356 0.0
C491 C 0.75058 0.11944 1.0068 0.0
C492 C 0.72673 0.14053 0.04414 0.0
H493 H 0.69306 0.68185 0.99331 0.0
H494 H 0.57892 0.73063 0.08649 0.0
H495 H 0.63218 0.79553 0.10529 0.0
H496 H 0.79498 0.7081 0.05965 0.0
H497 H 0.83436 0.72462 0.01246 0.0
H498 H 0.78538 0.68474 1.0031 0.0
H499 H 0.74735 0.73408 0.93855 0.0
H500 H 0.79696 0.77368 0.94706 0.0
H501 H 0.73278 0.79144 0.95065 0.0
H502 H 0.70219 0.85101 0.11856 0.0
H503 H 0.77979 0.8957 0.12008 0.0
H504 H 0.84448 0.80891 0.01655 0.0
C505 C 0.67846 0.70678 0.01662 0.0
C506 C 0.63206 0.70142 0.03845 0.0
C507 C 0.61482 0.73412 0.06979 0.0
C508 C 0.64458 0.77107 0.08045 0.0
C509 C 0.69092 0.7746 0.0591 0.0
C510 C 0.70729 0.74361 0.02732 0.0
C511 C 0.75919 0.75352 1.01049 0.0
C512 C 0.79559 0.71549 0.02215 0.0
C513 C 0.75903 0.76381 0.95862 0.0
C514 C 0.77013 0.79438 0.03854 0.0
C515 C 0.7305 0.80631 0.06636 0.0
C516 C 0.73324 0.84227 0.09654 0.0
C517 C 0.7775 0.86711 0.09749 0.0
C518 C 0.81785 0.8556 0.06833 0.0
C519 C 0.81404 0.81864 0.03893 0.0
loop_
_geom_bond_atom_site_label_1
_geom_bond_atom_site_label_2
_geom_bond_distance
_geom_bond_site_symmetry_2
_ccdc_geom_bond_type
H0 C19 0.949 . S
H1 C20 0.950 . S
H2 C22 0.950 . S
H3 C23 0.950 . S
H4 C25 0.950 . S
H5 C28 0.950 . S
H6 C29 0.950 . S
H7 C31 0.951 . S
H8 C32 0.949 . S
H9 C34 0.949 . S
H10 C35 0.950 . S
H11 C37 0.950 . S
H12 C38 0.950 . S
H13 C40 0.950 . S
H14 C43 0.950 . S
H15 C44 0.950 . S
H16 C46 0.951 . S
H17 C47 0.949 . S
C18 C19 1.376 . S
C18 C23 1.386 1_455 S
C18 C24 1.483 . S
C19 H0 0.949 . S
C19 C18 1.376 . S
C19 C20 1.397 . S
C20 H1 0.950 . S
C20 C19 1.397 . S
C20 C21 1.391 . S
C21 C20 1.391 . S
C21 C22 1.405 1_455 S
C22 H2 0.950 . S
C22 C21 1.405 1_655 S
C22 C23 1.367 . S
C23 H3 0.950 . S
C23 C18 1.386 1_655 S
C23 C22 1.367 . S
C24 C18 1.483 . S
C24 C25 1.382 . S
C24 C26 1.403 1_455 S
C25 H4 0.950 . S
C25 C24 1.382 . S
C25 C41 1.411 . S
C26 C24 1.403 1_655 S
C26 C27 1.489 . S
C26 C40 1.411 . S
C27 C26 1.489 . S
C27 C28 1.383 1_655 S
C27 C32 1.382 . S
C28 H5 0.950 . S
C28 C27 1.383 1_455 S
C28 C29 1.395 . S
C29 H6 0.950 . S
C29 C28 1.395 . S
C29 C30 1.288 1_455 S
C30 C29 1.288 1_655 S
C30 C31 1.392 . S
C31 H7 0.951 . S
C31 C30 1.392 . S
C31 C32 1.392 . S
C32 H8 0.949 . S
C32 C27 1.382 . S
C32 C31 1.392 . S
C33 C34 1.376 . S
C33 C38 1.386 1_655 S
C33 C39 1.483 . S
C34 H9 0.949 . S
C34 C33 1.376 . S
C34 C35 1.397 . S
C35 H10 0.950 . S
C35 C34 1.397 . S
C35 C36 1.391 . S
C36 C35 1.391 . S
C36 C37 1.405 1_655 S
C37 H11 0.950 . S
C37 C36 1.405 1_455 S
C37 C38 1.367 . S
C38 H12 0.950 . S
C38 C33 1.386 1_455 S
C38 C37 1.367 . S
C39 C33 1.483 . S
C39 C40 1.382 . S
C39 C41 1.403 1_655 S
C40 H13 0.950 . S
C40 C26 1.411 . S
C40 C39 1.382 . S
C41 C25 1.411 . S
C41 C39 1.403 1_455 S
C41 C42 1.489 . S
C42 C41 1.489 . S
C42 C43 1.383 1_455 S
C42 C47 1.382 . S
C43 H14 0.950 . S
C43 C42 1.383 1_655 S
C43 C44 1.395 . S
C44 H15 0.950 . S
C44 C43 1.395 . S
C44 C45 1.288 1_655 S
C45 C44 1.288 1_455 S
C45 C46 1.392 . S
C46 H16 0.951 . S
C46 C45 1.392 . S
C46 C47 1.392 . S
C47 H17 0.949 . S
C47 C42 1.382 . S
C47 C46 1.392 . S
H48 C67 0.949 . S
H49 C68 0.950 . S
H50 C70 0.950 . S
H51 C71 0.950 . S
H52 C73 0.950 . S
H53 C76 0.950 . S
H54 C77 0.950 . S
H55 C79 0.951 . S
H56 C80 0.949 . S
H57 C82 0.949 . S
H58 C83 0.950 . S
H59 C85 0.950 . S
H60 C86 0.950 . S
H61 C88 0.950 . S
H62 C91 0.950 . S
H63 C92 0.950 . S
H64 C94 0.951 . S
H65 C95 0.949 . S
C66 C67 1.376 . S
C66 C71 1.386 1_545 S
C66 C72 1.483 . S
C67 H48 0.949 . S
C67 C66 1.376 . S
C67 C68 1.397 . S
C68 H49 0.950 . S
C68 C67 1.397 . S
C68 C69 1.391 . S
C69 C68 1.391 . S
C69 C70 1.405 1_545 S
C70 H50 0.950 . S
C70 C69 1.405 1_565 S
C70 C71 1.367 . S
C71 H51 0.950 . S
C71 C66 1.386 1_565 S
C71 C70 1.367 . S
C72 C66 1.483 . S
C72 C73 1.382 . S
C72 C74 1.403 1_545 S
C73 H52 0.950 . S
C73 C72 1.382 . S
C73 C89 1.411 . S
C74 C72 1.403 1_565 S
C74 C75 1.489 . S
C74 C88 1.411 . S
C75 C74 1.489 . S
C75 C76 1.383 1_565 S
C75 C80 1.382 . S
C76 H53 0.950 . S
C76 C75 1.383 1_545 S
C76 C77 1.395 . S
C77 H54 0.950 . S
C77 C76 1.395 . S
C77 C78 1.288 1_545 S
C78 C77 1.288 1_565 S
C78 C79 1.392 . S
C79 H55 0.951 . S
C79 C78 1.392 . S
C79 C80 1.392 . S
C80 H56 0.949 . S
C80 C75 1.382 . S
C80 C79 1.392 . S
C81 C82 1.376 . S
C81 C86 1.386 1_565 S
C81 C87 1.483 . S
C82 H57 0.949 . S
C82 C81 1.376 . S
C82 C83 1.397 . S
C83 H58 0.950 . S
C83 C82 1.397 . S
C83 C84 1.391 . S
C84 C83 1.391 . S
C84 C85 1.405 1_565 S
C85 H59 0.950 . S
C85 C84 1.405 1_545 S
C85 C86 1.367 . S
C86 H60 0.950 . S
C86 C81 1.386 1_545 S
C86 C85 1.367 . S
C87 C81 1.483 . S
C87 C88 1.382 . S
C87 C89 1.403 1_565 S
C88 H61 0.950 . S
C88 C74 1.411 . S
C88 C87 1.382 . S
C89 C73 1.411 . S
C89 C87 1.403 1_545 S
C89 C90 1.489 . S
C90 C89 1.489 . S
C90 C91 1.383 1_545 S
C90 C95 1.382 . S
C91 H62 0.950 . S
C91 C90 1.383 1_565 S
C91 C92 1.395 . S
C92 H63 0.950 . S
C92 C91 1.395 . S
C92 C93 1.288 1_565 S
C93 C92 1.288 1_545 S
C93 C94 1.392 . S
C94 H64 0.951 . S
C94 C93 1.392 . S
C94 C95 1.392 . S
C95 H65 0.949 . S
C95 C90 1.382 . S
C95 C94 1.392 . S
H96 C115 0.949 . S
H97 C116 0.950 . S
H98 C118 0.950 . S
H99 C119 0.950 . S
H100 C121 0.950 . S
H101 C124 0.950 . S
H102 C125 0.950 . S
H103 C127 0.951 . S
H104 C128 0.949 . S
H105 C130 0.949 . S
H106 C131 0.950 . S
H107 C133 0.950 . S
H108 C134 0.950 . S
H109 C136 0.950 . S
H110 C139 0.950 . S
H111 C140 0.950 . S
H112 C142 0.951 . S
H113 C143 0.949 . S
C114 C115 1.376 1_554 S
C114 C119 1.386 . S
C114 C120 1.483 . S
C115 H96 0.949 . S
C115 C114 1.376 1_556 S
C115 C116 1.397 . S
C116 H97 0.950 . S
C116 C115 1.397 . S
C116 C117 1.391 1_556 S
C117 C116 1.391 1_554 S
C117 C118 1.405 . S
C118 H98 0.950 . S
C118 C117 1.405 . S
C118 C119 1.367 . S
C119 H99 0.950 . S
C119 C114 1.386 . S
C119 C118 1.367 . S
C120 C114 1.483 . S
C120 C121 1.382 . S
C120 C122 1.403 . S
C121 H100 0.950 . S
C121 C120 1.382 . S
C121 C137 1.411 . S
C122 C120 1.403 . S
C122 C123 1.489 . S
C122 C136 1.411 . S
C123 C122 1.489 . S
C123 C124 1.383 1_554 S
C123 C128 1.382 . S
C124 H101 0.950 . S
C124 C123 1.383 1_556 S
C124 C125 1.395 . S
C125 H102 0.950 . S
C125 C124 1.395 . S
C125 C126 1.288 1_556 S
C126 C125 1.288 1_554 S
C126 C127 1.392 . S
C127 H103 0.951 . S
C127 C126 1.392 . S
C127 C128 1.392 . S
C128 H104 0.949 . S
C128 C123 1.382 . S
C128 C127 1.392 . S
C129 C130 1.376 . S
C129 C134 1.386 1_554 S
C129 C135 1.483 . S
C130 H105 0.949 . S
C130 C129 1.376 . S
C130 C131 1.397 . S
C131 H106 0.950 . S
C131 C130 1.397 . S
C131 C132 1.391 . S
C132 C131 1.391 . S
C132 C133 1.405 1_554 S
C133 H107 0.950 . S
C133 C132 1.405 1_556 S
C133 C134 1.367 . S
C134 H108 0.950 . S
C134 C129 1.386 1_556 S
C134 C133 1.367 . S
C135 C129 1.483 . S
C135 C136 1.382 . S
C135 C137 1.403 . S
C136 H109 0.950 . S
C136 C122 1.411 . S
C136 C135 1.382 . S
C137 C121 1.411 . S
C137 C135 1.403 . S
C137 C138 1.489 . S
C138 C137 1.489 . S
C138 C139 1.383 . S
C138 C143 1.382 1_554 S
C139 H110 0.950 . S
C139 C138 1.383 . S
C139 C140 1.395 . S
C140 H111 0.950 . S
C140 C139 1.395 . S
C140 C141 1.288 . S
C141 C140 1.288 . S
C141 C142 1.392 1_554 S
C142 H112 0.951 . S
C142 C141 1.392 1_556 S
C142 C143 1.392 . S
C143 H113 0.949 . S
C143 C138 1.382 1_556 S
C143 C142 1.392 . S
Zn144 O146 1.933 1_556 S
Zn144 O164 1.985 . S
Zn144 O175 1.955 . S
Zn145 O146 1.911 . S
Zn145 O165 1.970 . S
Zn145 O181 1.945 . S
Zn145 O188 1.981 . S
O146 Zn144 1.933 1_554 S
O146 Zn145 1.911 . S
O146 H147 0.841 . S
H147 O146 0.841 . S
C148 O149 1.246 . S
C148 O177 1.276 1_455 S
O149 C148 1.246 . S
Zn150 O152 1.911 . S
Zn150 O167 1.970 . S
Zn150 O184 1.945 . S
Zn150 O191 1.981 . S
Zn151 O152 1.933 1_556 S
Zn151 O166 1.985 . S
Zn151 O173 1.955 . S
O152 Zn150 1.911 . S
O152 Zn151 1.933 1_554 S
O152 H153 0.841 . S
H153 O152 0.841 . S
Zn154 O155 1.933 1_556 S
Zn154 O168 1.985 . S
Zn154 O177 1.955 . S
O155 Zn154 1.933 1_554 S
O155 Zn156 1.911 . S
O155 H157 0.841 . S
Zn156 O155 1.911 . S
Zn156 O169 1.970 . S
Zn156 O185 1.981 . S
Zn156 O187 1.945 . S
H157 O155 0.841 . S
Zn158 O159 1.933 1_556 S
Zn158 O171 1.985 . S
Zn158 O179 1.955 . S
O159 Zn158 1.933 1_554 S
O159 H160 0.841 . S
O159 Zn161 1.911 . S
H160 O159 0.841 . S
Zn161 O159 1.911 . S
Zn161 O172 1.970 . S
Zn161 O182 1.981 . S
Zn161 O190 1.945 . S
C162 O163 1.246 . S
C162 O179 1.276 1_655 S
O163 C162 1.246 . S
O164 Zn144 1.985 . S
O164 C174 1.245 1_556 S
O165 Zn145 1.970 . S
O165 C174 1.263 . S
O166 Zn151 1.985 . S
O166 C178 1.245 1_556 S
O167 Zn150 1.970 . S
O167 C178 1.263 . S
O168 Zn154 1.985 . S
O168 C183 1.245 1_556 S
O169 Zn156 1.970 . S
O169 C183 1.263 . S
C170 O181 1.264 . S
C170 O182 1.244 1_545 S
O171 Zn158 1.985 . S
O171 C189 1.245 1_556 S
O172 Zn161 1.970 . S
O172 C189 1.263 . S
O173 Zn151 1.955 . S
O173 C192 1.276 1_565 S
C174 O164 1.245 1_554 S
C174 O165 1.263 . S
O175 Zn144 1.955 . S
O175 C194 1.276 1_545 S
C176 O184 1.262 1_545 S
C176 O185 1.245 . S
O177 C148 1.276 1_655 S
O177 Zn154 1.955 . S
C178 O166 1.245 1_554 S
C178 O167 1.263 . S
O179 Zn158 1.955 . S
O179 C162 1.276 1_455 S
C180 O187 1.261 1_455 S
C180 O188 1.245 . S
O181 Zn145 1.945 . S
O181 C170 1.264 . S
O182 Zn161 1.981 . S
O182 C170 1.244 1_565 S
C183 O168 1.245 1_554 S
C183 O169 1.263 . S
O184 Zn150 1.945 . S
O184 C176 1.262 1_565 S
O185 Zn156 1.981 . S
O185 C176 1.245 . S
C186 O190 1.262 . S
C186 O191 1.245 1_455 S
O187 Zn156 1.945 . S
O187 C180 1.261 1_655 S
O188 Zn145 1.981 . S
O188 C180 1.245 . S
C189 O171 1.245 1_554 S
C189 O172 1.263 . S
O190 Zn161 1.945 . S
O190 C186 1.262 . S
O191 Zn150 1.981 . S
O191 C186 1.245 1_655 S
C192 O173 1.276 1_545 S
C192 O193 1.246 . S
O193 C192 1.246 . S
C194 O175 1.276 1_565 S
C194 O195 1.246 . S
O195 C194 1.246 . S
H196 C208 0.930 . S
H197 C210 0.930 . S
H198 C211 0.930 . S
H199 C215 0.959 . S
H200 C215 0.959 . S
H201 C215 0.961 . S
H202 C216 0.960 . S
H203 C216 0.961 . S
H204 C216 0.959 1_455 S
H205 C219 0.929 . S
H206 C220 0.931 . S
H207 C222 0.930 . S
C208 H196 0.930 . S
C208 C209 1.399 1_655 S
C208 C213 1.399 . S
C209 C208 1.399 1_455 S
C209 C210 1.376 . S
C210 H197 0.930 . S
C210 C209 1.376 . S
C210 C211 1.388 . S
C211 H198 0.930 . S
C211 C210 1.388 . S
C211 C212 1.390 . S
C212 C211 1.390 . S
C212 C213 1.394 1_455 S
C212 C218 1.465 . S
C213 C208 1.399 . S
C213 C212 1.394 1_655 S
C213 C214 1.516 . S
C214 C213 1.516 . S
C214 C215 1.502 . S
C214 C216 1.561 . S
C214 C217 1.526 . S
C215 H199 0.959 . S
C215 H200 0.959 . S
C215 H201 0.961 . S
C215 C214 1.502 . S
C216 H202 0.960 . S
C216 H203 0.961 . S
C216 H204 0.959 1_655 S
C216 C214 1.561 . S
C217 C214 1.526 . S
C217 C218 1.396 1_655 S
C217 C222 1.390 . S
C218 C212 1.465 . S
C218 C217 1.396 1_455 S
C218 C219 1.399 . S
C219 H205 0.929 . S
C219 C218 1.399 . S
C219 C220 1.385 . S
C220 H206 0.931 . S
C220 C219 1.385 . S
C220 C221 1.389 . S
C221 C220 1.389 . S
C221 C222 1.387 1_455 S
C222 H207 0.930 . S
C222 C217 1.390 . S
C222 C221 1.387 1_655 S
H223 C235 0.930 . S
H224 C237 0.930 . S
H225 C238 0.930 . S
H226 C242 0.959 . S
H227 C242 0.959 . S
H228 C242 0.961 . S
H229 C243 0.960 . S
H230 C243 0.961 . S
H231 C243 0.959 . S
H232 C246 0.929 . S
H233 C247 0.931 . S
H234 C249 0.930 . S
C235 H223 0.930 . S
C235 C236 1.399 1_545 S
C235 C240 1.399 . S
C236 C235 1.399 1_565 S
C236 C237 1.376 . S
C237 H224 0.930 . S
C237 C236 1.376 . S
C237 C238 1.388 . S
C238 H225 0.930 . S
C238 C237 1.388 . S
C238 C239 1.390 . S
C239 C238 1.390 . S
C239 C240 1.394 1_565 S
C239 C245 1.465 . S
C240 C235 1.399 . S
C240 C239 1.394 1_545 S
C240 C241 1.516 . S
C241 C240 1.516 . S
C241 C242 1.502 . S
C241 C243 1.561 . S
C241 C244 1.526 . S
C242 H226 0.959 . S
C242 H227 0.959 . S
C242 H228 0.961 . S
C242 C241 1.502 . S
C243 H229 0.960 . S
C243 H230 0.961 . S
C243 H231 0.959 . S
C243 C241 1.561 . S
C244 C241 1.526 . S
C244 C245 1.396 1_545 S
C244 C249 1.390 . S
C245 C239 1.465 . S
C245 C244 1.396 1_565 S
C245 C246 1.399 . S
C246 H232 0.929 . S
C246 C245 1.399 . S
C246 C247 1.385 . S
C247 H233 0.931 . S
C247 C246 1.385 . S
C247 C248 1.389 1_565 S
C248 C247 1.389 1_545 S
C248 C249 1.387 . S
C249 H234 0.930 . S
C249 C244 1.390 . S
C249 C248 1.387 . S
H250 C262 0.930 . S
H251 C264 0.930 . S
H252 C265 0.930 . S
H253 C269 0.959 . S
H254 C269 0.959 . S
H255 C269 0.961 . S
H256 C270 0.960 . S
H257 C270 0.961 . S
H258 C270 0.959 . S
H259 C273 0.929 1_455 S
H260 C274 0.931 . S
H261 C276 0.930 . S
C262 H250 0.930 . S
C262 C263 1.398 1_655 S
C262 C267 1.399 . S
C263 C262 1.398 1_455 S
C263 C264 1.378 . S
C264 H251 0.930 . S
C264 C263 1.378 . S
C264 C265 1.388 . S
C265 H252 0.930 . S
C265 C264 1.388 . S
C265 C266 1.390 . S
C266 C265 1.390 . S
C266 C267 1.393 1_455 S
C266 C272 1.465 1_455 S
C267 C262 1.399 . S
C267 C266 1.393 1_655 S
C267 C268 1.516 . S
C268 C267 1.516 . S
C268 C269 1.508 . S
C268 C270 1.554 1_655 S
C268 C271 1.526 . S
C269 H253 0.959 . S
C269 H254 0.959 . S
C269 H255 0.961 . S
C269 C268 1.508 . S
C270 H256 0.960 . S
C270 H257 0.961 . S
C270 H258 0.959 . S
C270 C268 1.554 1_455 S
C271 C268 1.526 . S
C271 C272 1.396 . S
C271 C276 1.390 . S
C272 C266 1.465 1_655 S
C272 C271 1.396 . S
C272 C273 1.399 . S
C273 H259 0.929 1_655 S
C273 C272 1.399 . S
C273 C274 1.385 . S
C274 H260 0.931 . S
C274 C273 1.385 . S
C274 C275 1.389 . S
C275 C274 1.389 . S
C275 C276 1.387 . S
C276 H261 0.930 . S
C276 C271 1.390 . S
C276 C275 1.387 . S
H277 C289 0.930 . S
H278 C291 0.930 . S
H279 C292 0.930 . S
H280 C296 0.959 . S
H281 C296 0.959 . S
H282 C296 0.961 . S
H283 C297 0.960 . S
H284 C297 0.961 . S
H285 C297 0.959 . S
H286 C300 0.929 . S
H287 C301 0.931 . S
H288 C303 0.930 . S
C289 H277 0.930 . S
C289 C290 1.399 1_565 S
C289 C294 1.399 . S
C290 C289 1.399 1_545 S
C290 C291 1.376 . S
C291 H278 0.930 . S
C291 C290 1.376 . S
C291 C292 1.388 . S
C292 H279 0.930 . S
C292 C291 1.388 . S
C292 C293 1.390 . S
C293 C292 1.390 . S
C293 C294 1.394 1_545 S
C293 C299 1.465 . S
C294 C289 1.399 . S
C294 C293 1.394 1_565 S
C294 C295 1.516 . S
C295 C294 1.516 . S
C295 C296 1.502 . S
C295 C297 1.561 . S
C295 C298 1.526 . S
C296 H280 0.959 . S
C296 H281 0.959 . S
C296 H282 0.961 . S
C296 C295 1.502 . S
C297 H283 0.960 . S
C297 H284 0.961 . S
C297 H285 0.959 . S
C297 C295 1.561 . S
C298 C295 1.526 . S
C298 C299 1.396 1_565 S
C298 C303 1.390 . S
C299 C293 1.465 . S
C299 C298 1.396 1_545 S
C299 C300 1.399 . S
C300 H286 0.929 . S
C300 C299 1.399 . S
C300 C301 1.385 . S
C301 H287 0.931 . S
C301 C300 1.385 . S
C301 C302 1.389 1_545 S
C302 C301 1.389 1_565 S
C302 C303 1.387 . S
C303 H288 0.930 . S
C303 C298 1.390 . S
C303 C302 1.387 . S
H304 C316 0.930 . S
H305 C318 0.930 . S
H306 C319 0.930 . S
H307 C323 0.959 . S
H308 C323 0.959 . S
H309 C323 0.961 . S
H310 C324 0.960 . S
H311 C324 0.961 . S
H312 C324 0.959 . S
H313 C327 0.929 . S
H314 C328 0.931 . S
H315 C330 0.930 . S
C316 H304 0.930 . S
C316 C317 1.399 1_655 S
C316 C321 1.399 . S
C317 C316 1.399 1_455 S
C317 C318 1.376 . S
C318 H305 0.930 . S
C318 C317 1.376 . S
C318 C319 1.388 . S
C319 H306 0.930 . S
C319 C318 1.388 . S
C319 C320 1.390 . S
C320 C319 1.390 . S
C320 C321 1.394 1_455 S
C320 C326 1.465 . S
C321 C316 1.399 . S
C321 C320 1.394 1_655 S
C321 C322 1.516 . S
C322 C321 1.516 . S
C322 C323 1.502 . S
C322 C324 1.561 . S
C322 C325 1.526 . S
C323 H307 0.959 . S
C323 H308 0.959 . S
C323 H309 0.961 . S
C323 C322 1.502 . S
C324 H310 0.960 . S
C324 H311 0.961 . S
C324 H312 0.959 . S
C324 C322 1.561 . S
C325 C322 1.526 . S
C325 C326 1.396 1_655 S
C325 C330 1.390 . S
C326 C320 1.465 . S
C326 C325 1.396 1_455 S
C326 C327 1.399 . S
C327 H313 0.929 . S
C327 C326 1.399 . S
C327 C328 1.385 . S
C328 H314 0.931 . S
C328 C327 1.385 . S
C328 C329 1.389 1_455 S
C329 C328 1.389 1_655 S
C329 C330 1.387 . S
C330 H315 0.930 . S
C330 C325 1.390 . S
C330 C329 1.387 . S
H331 C343 0.930 . S
H332 C345 0.930 . S
H333 C346 0.930 . S
H334 C350 0.959 . S
H335 C350 0.959 . S
H336 C350 0.961 . S
H337 C351 0.960 1_545 S
H338 C351 0.961 1_545 S
H339 C351 0.959 . S
H340 C354 0.929 . S
H341 C355 0.931 . S
H342 C357 0.930 . S
C343 H331 0.930 . S
C343 C344 1.399 1_545 S
C343 C348 1.399 . S
C344 C343 1.399 1_565 S
C344 C345 1.376 . S
C345 H332 0.930 . S
C345 C344 1.376 . S
C345 C346 1.388 . S
C346 H333 0.930 . S
C346 C345 1.388 . S
C346 C347 1.390 . S
C347 C346 1.390 . S
C347 C348 1.394 1_565 S
C347 C353 1.465 . S
C348 C343 1.399 . S
C348 C347 1.394 1_545 S
C348 C349 1.516 . S
C349 C348 1.516 . S
C349 C350 1.502 . S
C349 C351 1.561 1_545 S
C349 C352 1.522 1_545 S
C350 H334 0.959 . S
C350 H335 0.959 . S
C350 H336 0.961 . S
C350 C349 1.502 . S
C351 H337 0.960 1_565 S
C351 H338 0.961 1_565 S
C351 H339 0.959 . S
C351 C349 1.561 1_565 S
C352 C349 1.522 1_565 S
C352 C353 1.402 . S
C352 C357 1.389 1_565 S
C353 C347 1.465 . S
C353 C352 1.402 . S
C353 C354 1.399 . S
C354 H340 0.929 . S
C354 C353 1.399 . S
C354 C355 1.385 . S
C355 H341 0.931 . S
C355 C354 1.385 . S
C355 C356 1.389 . S
C356 C355 1.389 . S
C356 C357 1.387 1_565 S
C357 H342 0.930 . S
C357 C352 1.389 1_545 S
C357 C356 1.387 1_545 S
H358 C370 0.930 . S
H359 C372 0.930 . S
H360 C373 0.930 . S
H361 C377 0.959 . S
H362 C377 0.959 . S
H363 C377 0.961 . S
H364 C378 0.960 . S
H365 C378 0.961 . S
H366 C378 0.959 . S
H367 C381 0.929 . S
H368 C382 0.931 . S
H369 C384 0.930 . S
C370 H358 0.930 . S
C370 C371 1.399 1_655 S
C370 C375 1.399 . S
C371 C370 1.399 1_455 S
C371 C372 1.376 . S
C372 H359 0.930 . S
C372 C371 1.376 . S
C372 C373 1.388 . S
C373 H360 0.930 . S
C373 C372 1.388 . S
C373 C374 1.390 . S
C374 C373 1.390 . S
C374 C375 1.394 1_455 S
C374 C380 1.465 . S
C375 C370 1.399 . S
C375 C374 1.394 1_655 S
C375 C376 1.516 . S
C376 C375 1.516 . S
C376 C377 1.502 . S
C376 C378 1.561 . S
C376 C379 1.526 . S
C377 H361 0.959 . S
C377 H362 0.959 . S
C377 H363 0.961 . S
C377 C376 1.502 . S
C378 H364 0.960 . S
C378 H365 0.961 . S
C378 H366 0.959 . S
C378 C376 1.561 . S
C379 C376 1.526 . S
C379 C380 1.396 1_655 S
C379 C384 1.390 . S
C380 C374 1.465 . S
C380 C379 1.396 1_455 S
C380 C381 1.399 . S
C381 H367 0.929 . S
C381 C380 1.399 . S
C381 C382 1.385 . S
C382 H368 0.931 . S
C382 C381 1.385 . S
C382 C383 1.389 . S
C383 C382 1.389 . S
C383 C384 1.387 1_455 S
C384 H369 0.930 . S
C384 C379 1.390 . S
C384 C383 1.387 1_655 S
H385 C397 0.930 . S
H386 C399 0.930 . S
H387 C400 0.930 . S
H388 C404 0.959 . S
H389 C404 0.959 . S
H390 C404 0.961 . S
H391 C405 0.960 . S
H392 C405 0.961 . S
H393 C405 0.959 . S
H394 C408 0.929 . S
H395 C409 0.931 . S
H396 C411 0.930 . S
C397 H385 0.930 . S
C397 C398 1.399 1_565 S
C397 C402 1.399 . S
C398 C397 1.399 1_545 S
C398 C399 1.376 . S
C399 H386 0.930 . S
C399 C398 1.376 . S
C399 C400 1.388 . S
C400 H387 0.930 . S
C400 C399 1.388 . S
C400 C401 1.390 . S
C401 C400 1.390 . S
C401 C402 1.394 1_545 S
C401 C407 1.465 . S
C402 C397 1.399 . S
C402 C401 1.394 1_565 S
C402 C403 1.516 . S
C403 C402 1.516 . S
C403 C404 1.502 . S
C403 C405 1.561 . S
C403 C406 1.526 . S
C404 H388 0.959 . S
C404 H389 0.959 . S
C404 H390 0.961 . S
C404 C403 1.502 . S
C405 H391 0.960 . S
C405 H392 0.961 . S
C405 H393 0.959 . S
C405 C403 1.561 . S
C406 C403 1.526 . S
C406 C407 1.396 1_565 S
C406 C411 1.390 . S
C407 C401 1.465 . S
C407 C406 1.396 1_545 S
C407 C408 1.399 . S
C408 H394 0.929 . S
C408 C407 1.399 . S
C408 C409 1.385 . S
C409 H395 0.931 . S
C409 C408 1.385 . S
C409 C410 1.389 . S
C410 C409 1.389 . S
C410 C411 1.387 1_545 S
C411 H396 0.930 . S
C411 C406 1.390 . S
C411 C410 1.387 1_565 S
H412 C424 0.930 . S
H413 C426 0.930 . S
H414 C427 0.930 . S
H415 C431 0.959 . S
H416 C431 0.959 . S
H417 C431 0.961 . S
H418 C432 0.960 . S
H419 C432 0.961 . S
H420 C432 0.959 . S
H421 C435 0.929 . S
H422 C436 0.931 . S
H423 C438 0.930 . S
C424 H412 0.930 . S
C424 C425 1.399 . S
C424 C429 1.399 . S
C425 C424 1.399 . S
C425 C426 1.376 . S
C426 H413 0.930 . S
C426 C425 1.376 . S
C426 C427 1.388 . S
C427 H414 0.930 . S
C427 C426 1.388 . S
C427 C428 1.390 . S
C428 C427 1.390 . S
C428 C429 1.394 . S
C428 C434 1.465 . S
C429 C424 1.399 . S
C429 C428 1.394 . S
C429 C430 1.516 . S
C430 C429 1.516 . S
C430 C431 1.502 . S
C430 C432 1.561 1_554 S
C430 C433 1.526 . S
C431 H415 0.959 . S
C431 H416 0.959 . S
C431 H417 0.961 . S
C431 C430 1.502 . S
C432 H418 0.960 . S
C432 H419 0.961 . S
C432 H420 0.959 . S
C432 C430 1.561 1_556 S
C433 C430 1.526 . S
C433 C434 1.396 . S
C433 C438 1.390 . S
C434 C428 1.465 . S
C434 C433 1.396 . S
C434 C435 1.399 . S
C435 H421 0.929 . S
C435 C434 1.399 . S
C435 C436 1.385 . S
C436 H422 0.931 . S
C436 C435 1.385 . S
C436 C437 1.389 . S
C437 C436 1.389 . S
C437 C438 1.387 . S
C438 H423 0.930 . S
C438 C433 1.390 . S
C438 C437 1.387 . S
H439 C451 0.930 . S
H440 C453 0.930 . S
H441 C454 0.930 . S
H442 C458 0.959 . S
H443 C458 0.959 . S
H444 C458 0.961 . S
H445 C459 0.960 . S
H446 C459 0.961 . S
H447 C459 0.959 . S
H448 C462 0.929 . S
H449 C463 0.931 . S
H450 C465 0.930 . S
C451 H439 0.930 . S
C451 C452 1.399 1_556 S
C451 C456 1.397 1_556 S
C452 C451 1.399 1_554 S
C452 C453 1.376 . S
C453 H440 0.930 . S
C453 C452 1.376 . S
C453 C454 1.388 . S
C454 H441 0.930 . S
C454 C453 1.388 . S
C454 C455 1.390 . S
C455 C454 1.390 . S
C455 C456 1.408 . S
C455 C461 1.465 . S
C456 C451 1.397 1_554 S
C456 C455 1.408 . S
C456 C457 1.506 1_554 S
C457 C456 1.506 1_556 S
C457 C458 1.502 . S
C457 C459 1.561 . S
C457 C460 1.522 1_556 S
C458 H442 0.959 . S
C458 H443 0.959 . S
C458 H444 0.961 . S
C458 C457 1.502 . S
C459 H445 0.960 . S
C459 H446 0.961 . S
C459 H447 0.959 . S
C459 C457 1.561 . S
C460 C457 1.522 1_554 S
C460 C461 1.401 . S
C460 C465 1.389 1_554 S
C461 C455 1.465 . S
C461 C460 1.401 . S
C461 C462 1.399 . S
C462 H448 0.929 . S
C462 C461 1.399 . S
C462 C463 1.385 . S
C463 H449 0.931 . S
C463 C462 1.385 . S
C463 C464 1.389 . S
C464 C463 1.389 . S
C464 C465 1.387 1_554 S
C465 H450 0.930 . S
C465 C460 1.389 1_556 S
C465 C464 1.387 1_556 S
H466 C478 0.930 . S
H467 C480 0.930 . S
H468 C481 0.930 . S
H469 C485 0.959 . S
H470 C485 0.959 . S
H471 C485 0.961 . S
H472 C486 0.960 . S
H473 C486 0.961 . S
H474 C486 0.959 . S
H475 C489 0.929 . S
H476 C490 0.931 . S
H477 C492 0.930 . S
C478 H466 0.930 . S
C478 C479 1.399 . S
C478 C483 1.399 . S
C479 C478 1.399 . S
C479 C480 1.376 1_554 S
C480 H467 0.930 . S
C480 C479 1.376 1_556 S
C480 C481 1.388 . S
C481 H468 0.930 . S
C481 C480 1.388 . S
C481 C482 1.390 1_556 S
C482 C481 1.390 1_554 S
C482 C483 1.394 . S
C482 C488 1.465 . S
C483 C478 1.399 . S
C483 C482 1.394 . S
C483 C484 1.516 . S
C484 C483 1.516 . S
C484 C485 1.502 . S
C484 C486 1.561 . S
C484 C487 1.526 . S
C485 H469 0.959 . S
C485 H470 0.959 . S
C485 H471 0.961 . S
C485 C484 1.502 . S
C486 H472 0.960 . S
C486 H473 0.961 . S
C486 H474 0.959 . S
C486 C484 1.561 . S
C487 C484 1.526 . S
C487 C488 1.396 . S
C487 C492 1.390 . S
C488 C482 1.465 . S
C488 C487 1.396 . S
C488 C489 1.399 1_554 S
C489 H475 0.929 . S
C489 C488 1.399 1_556 S
C489 C490 1.385 . S
C490 H476 0.931 . S
C490 C489 1.385 . S
C490 C491 1.389 1_556 S
C491 C490 1.389 1_554 S
C491 C492 1.387 . S
C492 H477 0.930 . S
C492 C487 1.390 . S
C492 C491 1.387 . S
H493 C505 0.930 1_556 S
H494 C507 0.930 . S
H495 C508 0.930 . S
H496 C512 0.959 . S
H497 C512 0.959 1_556 S
H498 C512 0.961 1_556 S
H499 C513 0.960 . S
H500 C513 0.961 . S
H501 C513 0.959 . S
H502 C516 0.929 . S
H503 C517 0.931 . S
H504 C519 0.930 1_556 S
C505 H493 0.930 1_554 S
C505 C506 1.399 . S
C505 C510 1.399 . S
C506 C505 1.399 . S
C506 C507 1.376 . S
C507 H494 0.930 . S
C507 C506 1.376 . S
C507 C508 1.388 . S
C508 H495 0.930 . S
C508 C507 1.388 . S
C508 C509 1.390 . S
C509 C508 1.390 . S
C509 C510 1.394 . S
C509 C515 1.465 . S
C510 C505 1.399 . S
C510 C509 1.394 . S
C510 C511 1.516 1_554 S
C511 C510 1.516 1_556 S
C511 C512 1.502 1_556 S
C511 C513 1.561 . S
C511 C514 1.526 1_556 S
C512 H496 0.959 . S
C512 H497 0.959 1_554 S
C512 H498 0.961 1_554 S
C512 C511 1.502 1_554 S
C513 H499 0.960 . S
C513 H500 0.961 . S
C513 H501 0.959 . S
C513 C511 1.561 . S
C514 C511 1.526 1_554 S
C514 C515 1.396 . S
C514 C519 1.390 . S
C515 C509 1.465 . S
C515 C514 1.396 . S
C515 C516 1.399 . S
C516 H502 0.929 . S
C516 C515 1.399 . S
C516 C517 1.385 . S
C517 H503 0.931 . S
C517 C516 1.385 . S
C517 C518 1.389 . S
C518 C517 1.389 . S
C518 C519 1.387 . S
C519 H504 0.930 1_554 S
C519 C514 1.390 . S
C519 C518 1.387 . S
C221 C180 2.001 . S
C209 C36 2.048 1_455 S
C248 C176 1.326 . S
C236 C78 1.395 . S
C275 C186 1.946 1_655 S
C263 C30 2.013 1_455 S
C302 C170 1.336 1_565 S
C290 C69 1.413 . S
C317 C21 2.161 . S
C329 C162 2.040 . S
C356 C194 1.440 . S
C344 C93 1.550 1_565 S
C371 C45 2.139 . S
C383 C148 2.093 . S
C398 C84 1.535 1_545 S
C410 C192 1.495 . S
C425 C132 1.048 . S
C437 C174 0.957 . S
C452 C126 1.002 . S
C464 C189 0.976 . S
C491 C183 1.036 . S
C479 C141 1.024 . S
C518 C178 0.963 . S
C506 C117 1.051 . S
