# Generated by pormake.
# Topology tsx, (6,3)-cn, num edge types: 1
# Building blocks:
#     Node 0, Type 0, BuildingBlock: VOLQOD_clean_sbu_1, # of connection points: 6
#     Node 1, Type 0, BuildingBlock: VOLQOD_clean_sbu_1, # of connection points: 6
#     Node 2, Type 1, BuildingBlock: BETDIP_clean_linker_0, # of connection points: 3
#     Node 3, Type 1, BuildingBlock: BETDIP_clean_linker_0, # of connection points: 3
#     Node 4, Type 1, BuildingBlock: BETDIP_clean_linker_0, # of connection points: 3
#     Node 5, Type 1, BuildingBlock: BETDIP_clean_linker_0, # of connection points: 3
#     Edge 6, Type (0, 1), BuildingBlock: FUNLAD_clean_linker_0, # of connection points: 2
#     Edge 7, Type (0, 1), BuildingBlock: FUNLAD_clean_linker_0, # of connection points: 2
#     Edge 8, Type (0, 1), BuildingBlock: FUNLAD_clean_linker_0, # of connection points: 2
#     Edge 9, Type (0, 1), BuildingBlock: FUNLAD_clean_linker_0, # of connection points: 2
#     Edge 10, Type (0, 1), BuildingBlock: FUNLAD_clean_linker_0, # of connection points: 2
#     Edge 11, Type (0, 1), BuildingBlock: FUNLAD_clean_linker_0, # of connection points: 2
#     Edge 12, Type (0, 1), BuildingBlock: FUNLAD_clean_linker_0, # of connection points: 2
#     Edge 13, Type (0, 1), BuildingBlock: FUNLAD_clean_linker_0, # of connection points: 2
#     Edge 14, Type (0, 1), BuildingBlock: FUNLAD_clean_linker_0, # of connection points: 2
#     Edge 15, Type (0, 1), BuildingBlock: FUNLAD_clean_linker_0, # of connection points: 2
#     Edge 16, Type (0, 1), BuildingBlock: FUNLAD_clean_linker_0, # of connection points: 2
#     Edge 17, Type (0, 1), BuildingBlock: FUNLAD_clean_linker_0, # of connection points: 2
# Relax obj value: 0.057
# Max RMSD: 0.119
# Mean RMSD: 0.106
data_MOF--net-tsx--node1-VOLQOD_clean_sbu_1--node2-BETDIP_clean_linker_0--edge1-FUNLAD_clean_linker_0
_symmetry_space_group_name_H-M    P1
_symmetry_Int_Tables_number       1
_symmetry_cell_setting            triclinic
loop_
_symmetry_equiv_pos_as_xyz
'x, y, z'
_cell_length_a     24.612079
_cell_length_b     25.47843
_cell_length_c     43.560767
_cell_angle_alpha  90.08804
_cell_angle_beta   98.430765
_cell_angle_gamma 90.25427
loop_
_atom_site_label
_atom_site_type_symbol
_atom_site_fract_x
_atom_site_fract_y
_atom_site_fract_z
_atom_type_partial_charge
O0 O 0.04489 0.01992 0.07611 0.0
Zn1 Zn 0.06042 0.01501 0.0319 0.0
O2 O 0.99289 0.00952 0.00233 0.0
Zn3 Zn 0.98925 0.94166 0.98099 0.0
Zn4 Zn 0.93039 0.01796 0.02478 0.0
Zn5 Zn 0.99149 0.0644 0.9714 0.0
O6 O 0.98098 0.94958 0.93412 0.0
O7 O 0.99462 0.03504 0.92905 0.0
O8 O 0.10979 0.9537 0.0279 0.0
O9 O 0.06002 0.90272 0.99301 0.0
O10 O 0.92807 0.89703 0.99317 0.0
O11 O 0.88807 0.95038 0.02342 0.0
O12 O 0.87932 0.0754 0.0066 0.0
O13 O 0.10279 0.07968 0.02344 0.0
O14 O 0.92223 0.10538 0.96874 0.0
O15 O 0.05415 0.11485 0.98163 0.0
C16 C 0.00116 0.0299 0.08744 0.0
C17 C 0.98752 0.98935 0.91728 0.0
C18 C 0.89155 0.90594 0.01043 0.0
C19 C 0.10409 0.91212 0.01148 0.0
C20 C 0.88186 0.10633 0.98391 0.0
C21 C 0.09548 0.11548 0.00291 0.0
O22 O 0.95489 0.03345 0.07013 0.0
O23 O 0.54505 0.5062 0.57701 0.0
Zn24 Zn 0.56202 0.50431 0.5329 0.0
O25 O 0.49468 0.51107 0.50276 0.0
Zn26 Zn 0.48539 0.44875 0.4761 0.0
Zn27 Zn 0.43106 0.51777 0.52448 0.0
Zn28 Zn 0.49957 0.57372 0.4774 0.0
O29 O 0.47895 0.46885 0.43092 0.0
O30 O 0.49338 0.55495 0.43216 0.0
O31 O 0.60331 0.43788 0.52559 0.0
O32 O 0.55184 0.40228 0.48467 0.0
O33 O 0.41851 0.4061 0.483 0.0
O34 O 0.38 0.45607 0.51554 0.0
O35 O 0.38867 0.58437 0.51305 0.0
O36 O 0.61418 0.56427 0.52845 0.0
O37 O 0.43931 0.62503 0.48217 0.0
O38 O 0.57149 0.61129 0.48942 0.0
C39 C 0.50059 0.51359 0.58817 0.0
C40 C 0.48447 0.51216 0.41708 0.0
C41 C 0.3803 0.41459 0.4992 0.0
C42 C 0.5948 0.40211 0.50492 0.0
C43 C 0.39787 0.62376 0.49657 0.0
C44 C 0.61278 0.6033 0.51012 0.0
O45 O 0.45493 0.51929 0.57056 0.0
H46 H 0.03822 0.00445 0.46358 0.0
H47 H 0.97957 0.07696 0.37587 0.0
H48 H 0.07829 0.93783 0.37909 0.0
H49 H 0.98651 0.15061 0.40669 0.0
C50 C 0.96726 0.13579 0.42588 0.0
C51 C 0.03589 0.00553 0.43854 0.0
C52 C 0.06064 0.96585 0.42309 0.0
C53 C 0.0076 0.04645 0.42176 0.0
C54 C 0.00363 0.04705 0.38913 0.0
C55 C 0.02882 0.00794 0.37335 0.0
C56 C 0.05738 0.96762 0.39069 0.0
N57 N 0.98122 0.08504 0.43799 0.0
H58 H -0.00133 0.95704 0.544 0.0
H59 H 0.04296 0.04925 0.62665 0.0
H60 H 0.96351 0.89987 0.63203 0.0
H61 H 0.01478 0.11506 0.58867 0.0
C62 C 0.04005 0.10189 0.57169 0.0
C63 C 0.00022 0.96171 0.56885 0.0
C64 C 0.97885 0.92237 0.58633 0.0
C65 C 0.02218 0.00797 0.58309 0.0
C66 C 0.02453 0.01424 0.61537 0.0
C67 C 0.00433 0.97488 0.63329 0.0
C68 C 0.9815 0.92921 0.61854 0.0
N69 N 0.042 0.04756 0.56458 0.0
H70 H 0.54036 0.50229 0.96207 0.0
H71 H 0.48878 0.59401 0.88027 0.0
H72 H 0.59684 0.4632 0.876 0.0
H73 H 0.48733 0.65833 0.9189 0.0
C74 C 0.46609 0.63599 0.93479 0.0
C75 C 0.54129 0.50975 0.93766 0.0
C76 C 0.57309 0.47819 0.9209 0.0
C77 C 0.51184 0.55213 0.92339 0.0
C78 C 0.51264 0.56212 0.89167 0.0
C79 C 0.54373 0.53037 0.87448 0.0
C80 C 0.57392 0.48869 0.88934 0.0
N81 N 0.48027 0.58288 0.94132 0.0
H82 H 0.50368 0.45315 0.04589 0.0
H83 H 0.56364 0.51443 0.13675 0.0
H84 H 0.41801 0.41892 0.12275 0.0
H85 H 0.64198 0.52395 0.11768 0.0
C86 C 0.63044 0.53249 0.09319 0.0
C87 C 0.49998 0.45684 0.07029 0.0
C88 C 0.45611 0.43273 0.08202 0.0
C89 C 0.53919 0.48602 0.08976 0.0
C90 C 0.53413 0.49147 0.12143 0.0
C91 C 0.49072 0.46688 0.13358 0.0
C92 C 0.45172 0.43795 0.11362 0.0
N93 N 0.58186 0.51069 0.07634 0.0
C94 C 0.18758 0.15423 0.02199 0.0
C95 C 0.13565 0.15887 0.00398 0.0
C96 C 0.22505 0.1957 0.0239 0.0
C97 C 0.21127 0.24284 0.00792 0.0
C98 C 0.15946 0.24751 0.98987 0.0
C99 C 0.12215 0.20568 0.98761 0.0
C100 C 0.24821 0.28907 0.01234 0.0
C101 C 0.30314 0.28445 0.01839 0.0
C102 C 0.34018 0.32822 0.03025 0.0
C103 C 0.39629 0.32458 0.02786 0.0
C104 C 0.43385 0.36043 0.04332 0.0
C105 C 0.41589 0.40007 0.06182 0.0
H106 H 0.27931 0.37325 0.05053 0.0
C107 C 0.35953 0.40525 0.06309 0.0
C108 C 0.32197 0.36972 0.04747 0.0
H109 H 0.34472 0.43575 0.07707 0.0
H110 H 0.19919 0.1187 0.03488 0.0
H111 H 0.26396 0.19133 0.03885 0.0
H112 H 0.14767 0.28372 0.97773 0.0
H113 H 0.08229 0.21052 0.97367 0.0
H114 H 0.22937 0.32761 0.01151 0.0
H115 H 0.32179 0.24633 0.01604 0.0
H116 H 0.41139 0.29273 0.01496 0.0
H117 H 0.47718 0.35543 0.04215 0.0
C118 C 0.14503 0.82864 0.99532 0.0
C119 C 0.15134 0.87643 0.01162 0.0
C120 C 0.19074 0.79819 0.99186 0.0
C121 C 0.24381 0.81489 0.00472 0.0
C122 C 0.24989 0.8616 0.02198 0.0
C123 C 0.20411 0.89191 0.02563 0.0
C124 C 0.29365 0.78774 0.9976 0.0
C125 C 0.29419 0.73676 0.98961 0.0
C126 C 0.34129 0.71225 0.97755 0.0
C127 C 0.3498 0.65811 0.98132 0.0
C128 C 0.39123 0.63322 0.96809 0.0
C129 C 0.42426 0.66206 0.95039 0.0
H130 H 0.36843 0.78266 0.95591 0.0
C131 C 0.41596 0.71618 0.94667 0.0
C132 C 0.37492 0.74116 0.96014 0.0
H133 H 0.44069 0.73908 0.93293 0.0
H134 H 0.10496 0.81559 0.98422 0.0
H135 H 0.18438 0.76312 0.97773 0.0
H136 H 0.29034 0.87549 0.03194 0.0
H137 H 0.21046 0.92858 0.03829 0.0
H138 H 0.33093 0.81105 0.99842 0.0
H139 H 0.25896 0.71194 0.99176 0.0
H140 H 0.324 0.63493 0.99429 0.0
H141 H 0.39649 0.5913 0.97119 0.0
C142 C 0.85972 0.81215 0.00536 0.0
C143 C 0.85539 0.86264 0.01785 0.0
C144 C 0.82981 0.77015 0.01515 0.0
C145 C 0.79491 0.77795 0.03759 0.0
C146 C 0.78956 0.82859 0.0494 0.0
C147 C 0.81914 0.87053 0.03953 0.0
C148 C 0.76645 0.73403 0.05092 0.0
C149 C 0.75322 0.68833 0.03614 0.0
C150 C 0.72445 0.646 0.05066 0.0
C151 C 0.68475 0.61548 0.03222 0.0
C152 C 0.65452 0.57776 0.04582 0.0
C153 C 0.66437 0.56942 0.07806 0.0
H154 H 0.76732 0.65794 0.09743 0.0
C155 C 0.70591 0.59812 0.09627 0.0
C156 C 0.73568 0.63616 0.08274 0.0
H157 H 0.71456 0.59193 0.12111 0.0
H158 H 0.88746 0.80467 0.98874 0.0
H159 H 0.83592 0.73147 0.006 0.0
H160 H 0.76305 0.83562 0.06675 0.0
H161 H 0.81476 0.90883 0.04969 0.0
H162 H 0.75409 0.74051 0.07358 0.0
H163 H 0.76008 0.68303 0.01227 0.0
H164 H 0.67593 0.62194 0.00741 0.0
H165 H 0.62309 0.55573 0.03113 0.0
C166 C 0.79968 0.15729 0.99497 0.0
C167 C 0.8381 0.14527 0.97513 0.0
C168 C 0.76113 0.19713 0.98725 0.0
C169 C 0.76031 0.22539 0.95941 0.0
C170 C 0.7973 0.21166 0.93915 0.0
C171 C 0.83584 0.17233 0.94693 0.0
C172 C 0.72363 0.2706 0.95058 0.0
C173 C 0.69432 0.29613 0.96966 0.0
C174 C 0.66487 0.34502 0.95942 0.0
C175 C 0.61275 0.3549 0.96748 0.0
C176 C 0.58311 0.39904 0.95569 0.0
C177 C 0.60562 0.43409 0.93597 0.0
H178 H 0.72962 0.37635 0.9357 0.0
C179 C 0.65914 0.42568 0.92957 0.0
C180 C 0.68849 0.38174 0.9412 0.0
H181 H 0.67818 0.45289 0.91523 0.0
H182 H 0.80022 0.13682 0.01679 0.0
H183 H 0.73268 0.20561 0.00326 0.0
H184 H 0.79742 0.23239 0.91745 0.0
H185 H 0.86438 0.16367 0.93091 0.0
H186 H 0.72291 0.2855 0.92714 0.0
H187 H 0.69146 0.28176 0.99278 0.0
H188 H 0.59418 0.3275 0.98191 0.0
H189 H 0.54196 0.4047 0.96109 0.0
C190 C 0.70666 0.632 0.53506 0.0
C191 C 0.65964 0.64061 0.51316 0.0
C192 C 0.74995 0.66825 0.53869 0.0
C193 C 0.74724 0.7139 0.52036 0.0
C194 C 0.70048 0.7222 0.49833 0.0
C195 C 0.65731 0.68591 0.49463 0.0
C196 C 0.7899 0.75576 0.52525 0.0
C197 C 0.84211 0.74767 0.53866 0.0
C198 C 0.8816 0.79127 0.54763 0.0
C199 C 0.92279 0.78423 0.57317 0.0
C200 C 0.95632 0.82618 0.58487 0.0
C201 C 0.94968 0.876 0.57106 0.0
H202 H 0.84782 0.84664 0.51195 0.0
C203 C 0.91116 0.88213 0.54413 0.0
C204 C 0.87754 0.84017 0.53246 0.0
H205 H 0.90515 0.91998 0.5329 0.0
H206 H 0.70975 0.59764 0.54982 0.0
H207 H 0.78437 0.66102 0.55662 0.0
H208 H 0.69704 0.75723 0.48411 0.0
H209 H 0.62173 0.69389 0.47754 0.0
H210 H 0.77661 0.79516 0.51844 0.0
H211 H 0.85544 0.70833 0.54555 0.0
H212 H 0.92745 0.74677 0.58499 0.0
H213 H 0.9864 0.82001 0.60531 0.0
C214 C 0.63392 0.32927 0.47638 0.0
C215 C 0.63767 0.36208 0.50262 0.0
C216 C 0.67689 0.2956 0.47226 0.0
C217 C 0.72462 0.29376 0.49434 0.0
C218 C 0.7272 0.32421 0.52139 0.0
C219 C 0.68439 0.35844 0.52539 0.0
C220 C 0.77247 0.26129 0.48914 0.0
C221 C 0.78718 0.25603 0.4607 0.0
C222 C 0.83578 0.22608 0.45405 0.0
C223 C 0.86004 0.24033 0.42805 0.0
C224 C 0.90374 0.21161 0.41968 0.0
C225 C 0.92353 0.16734 0.43678 0.0
H226 H 0.83795 0.16962 0.49153 0.0
C227 C 0.89982 0.15306 0.46304 0.0
C228 C 0.85636 0.18233 0.47169 0.0
H229 H 0.91427 0.11901 0.47664 0.0
H230 H 0.59843 0.33061 0.45847 0.0
H231 H 0.67286 0.27139 0.45159 0.0
H232 H 0.76328 0.32298 0.53892 0.0
H233 H 0.68846 0.38282 0.546 0.0
H234 H 0.79819 0.24504 0.50924 0.0
H235 H 0.76415 0.27711 0.44138 0.0
H236 H 0.84489 0.2737 0.41398 0.0
H237 H 0.92126 0.22334 0.39931 0.0
C238 C 0.29329 0.38467 0.51731 0.0
C239 C 0.33667 0.37459 0.50046 0.0
C240 C 0.25424 0.34599 0.52065 0.0
C241 C 0.25728 0.29616 0.507 0.0
C242 C 0.30016 0.28629 0.48978 0.0
C243 C 0.33926 0.32513 0.48636 0.0
C244 C 0.21936 0.25259 0.51253 0.0
C245 C 0.16897 0.26062 0.5203 0.0
C246 C 0.13423 0.21849 0.53105 0.0
C247 C 0.09532 0.23282 0.55007 0.0
C248 C 0.06431 0.19471 0.56271 0.0
C249 C 0.07095 0.14139 0.5563 0.0
H250 H 0.16783 0.15243 0.5084 0.0
C251 C 0.10814 0.12683 0.53625 0.0
C252 C 0.13958 0.16504 0.52372 0.0
H253 H 0.11369 0.08596 0.53064 0.0
H254 H 0.29009 0.42217 0.52864 0.0
H255 H 0.22318 0.35494 0.53501 0.0
H256 H 0.30388 0.24814 0.47928 0.0
H257 H 0.37222 0.31591 0.47331 0.0
H258 H 0.23482 0.21293 0.51135 0.0
H259 H 0.15358 0.3004 0.52093 0.0
H260 H 0.08996 0.27364 0.55593 0.0
H261 H 0.03564 0.20695 0.57795 0.0
C262 C 0.30885 0.6656 0.50488 0.0
C263 C 0.35989 0.66908 0.49408 0.0
C264 C 0.27262 0.70809 0.50174 0.0
C265 C 0.28683 0.75504 0.48784 0.0
C266 C 0.33844 0.75901 0.47796 0.0
C267 C 0.37439 0.71644 0.48079 0.0
C268 C 0.24882 0.80038 0.48279 0.0
C269 C 0.19378 0.7949 0.4774 0.0
C270 C 0.15681 0.83914 0.46666 0.0
C271 C 0.11021 0.82896 0.44479 0.0
C272 C 0.07782 0.87016 0.43146 0.0
C273 C 0.09068 0.92228 0.44031 0.0
H274 H 0.20312 0.9001 0.49409 0.0
C275 C 0.13517 0.9324 0.46366 0.0
C276 C 0.16824 0.89116 0.47665 0.0
H277 H 0.14575 0.97233 0.47087 0.0
H278 H 0.29658 0.62986 0.51547 0.0
H279 H 0.23375 0.70409 0.51037 0.0
H280 H 0.35058 0.79483 0.46737 0.0
H281 H 0.41358 0.72072 0.47252 0.0
H282 H 0.26691 0.83877 0.48005 0.0
H283 H 0.17567 0.7559 0.47695 0.0
H284 H 0.10023 0.78922 0.43694 0.0
H285 H 0.0434 0.86144 0.41364 0.0
C286 C 0.04896 0.01709 0.14182 0.0
C287 C 0.00373 0.03606 0.12145 0.0
C288 C 0.05011 0.02059 0.17395 0.0
C289 C 0.00626 0.04365 0.18638 0.0
C290 C 0.962 0.06422 0.16607 0.0
C291 C 0.96039 0.05994 0.13394 0.0
C292 C 0.00589 0.04706 0.22038 0.0
C293 C 0.02649 0.0088 0.23992 0.0
C294 C 0.02453 0.01012 0.27382 0.0
C295 C 0.02168 0.96255 0.28965 0.0
C296 C 0.02163 0.96195 0.3217 0.0
C297 C 0.02571 0.00899 0.33889 0.0
H298 H 0.03136 0.09469 0.27939 0.0
C299 C 0.02847 0.05675 0.32296 0.0
C300 C 0.02773 0.05735 0.29076 0.0
H301 H 0.03269 0.09369 0.33543 0.0
H302 H 0.08311 -0.00133 0.13297 0.0
H303 H 0.08552 0.00557 0.18901 0.0
H304 H 0.92799 0.08263 0.17509 0.0
H305 H 0.92517 0.07536 0.11888 0.0
H306 H 0.98462 0.07991 0.22911 0.0
H307 H 0.04254 0.9735 0.23053 0.0
H308 H 0.01918 0.92562 0.27713 0.0
H309 H 0.01835 0.92446 0.33297 0.0
C310 C 0.00441 0.02484 0.86594 0.0
C311 C 0.98858 0.98271 0.88353 0.0
C312 C 0.00708 0.01887 0.83433 0.0
C313 C 0.99314 0.97068 0.81928 0.0
C314 C 0.97753 0.92851 0.83692 0.0
C315 C 0.97527 0.93438 0.86867 0.0
C316 C -0.00393 0.96224 0.78567 0.0
C317 C -0.00209 0.00155 0.76507 0.0
C318 C 0.00095 0.99343 0.73147 0.0
C319 C 0.98739 0.03545 0.71095 0.0
C320 C 0.98932 0.02979 0.6792 0.0
C321 C 0.00502 0.98189 0.66722 0.0
H322 H 0.03091 0.91301 0.73451 0.0
C323 C 0.01978 0.94014 0.68777 0.0
C324 C 0.01809 0.94585 0.71955 0.0
H325 H 0.03306 0.90305 0.67928 0.0
H326 H 0.0157 0.06247 0.87667 0.0
H327 H 0.02122 0.05203 0.82219 0.0
H328 H 0.96703 0.89077 0.82611 0.0
H329 H 0.96311 0.90104 0.88153 0.0
H330 H 0.99467 0.92187 0.77764 0.0
H331 H -0.00529 0.04187 0.77256 0.0
H332 H 0.97454 0.07272 0.71943 0.0
H333 H 0.97731 0.06258 0.66395 0.0
C334 C 0.55171 0.5152 0.64254 0.0
C335 C 0.50174 0.51663 0.62225 0.0
C336 C 0.55248 0.51917 0.67464 0.0
C337 C 0.50317 0.52483 0.68715 0.0
C338 C 0.45332 0.52539 0.66688 0.0
C339 C 0.45255 0.52163 0.63484 0.0
C340 C 0.50159 0.52806 0.72109 0.0
C341 C 0.54419 0.54444 0.74197 0.0
C342 C 0.54292 0.54479 0.77598 0.0
C343 C 0.59256 0.53941 0.79611 0.0
C344 C 0.59296 0.53622 0.82814 0.0
C345 C 0.54369 0.539 0.84079 0.0
H346 H 0.45489 0.55602 0.77407 0.0
C347 C 0.49423 0.54698 0.82081 0.0
C348 C 0.49379 0.5499 0.78871 0.0
H349 H 0.45563 0.54933 0.8299 0.0
H350 H 0.59033 0.51102 0.63366 0.0
H351 H 0.59169 0.51676 0.68945 0.0
H352 H 0.41471 0.52912 0.67585 0.0
H353 H 0.41323 0.52263 0.61997 0.0
H354 H 0.46348 0.51633 0.72896 0.0
H355 H 0.58244 0.55602 0.73423 0.0
H356 H 0.63108 0.53617 0.78699 0.0
H357 H 0.63183 0.53093 0.84304 0.0
C358 C 0.47647 0.46545 0.36587 0.0
C359 C 0.48298 0.51249 0.38293 0.0
C360 C 0.47816 0.46534 0.33394 0.0
C361 C 0.48595 0.51246 0.31825 0.0
C362 C 0.49218 0.55944 0.3353 0.0
C363 C 0.4905 0.55956 0.36722 0.0
C364 C 0.49062 0.5139 0.28459 0.0
C365 C 0.46924 0.47667 0.26428 0.0
C366 C 0.47585 0.47603 0.23087 0.0
C367 C 0.46744 0.42837 0.21465 0.0
C368 C 0.47281 0.42541 0.18326 0.0
C369 C 0.48631 0.47026 0.16717 0.0
H370 H 0.49448 0.55902 0.22601 0.0
C371 C 0.49459 0.51813 0.18327 0.0
C372 C 0.48922 0.52112 0.21477 0.0
H373 H 0.5041 0.55354 0.17136 0.0
H374 H 0.47114 0.4284 0.37724 0.0
H375 H 0.475 0.42796 0.32202 0.0
H376 H 0.49865 0.59624 0.3239 0.0
H377 H 0.49586 0.59654 0.37962 0.0
H378 H 0.51274 0.54691 0.27663 0.0
H379 H 0.44665 0.44409 0.2724 0.0
H380 H 0.45704 0.39303 0.22637 0.0
H381 H 0.4668 0.38778 0.17162 0.0
loop_
_geom_bond_atom_site_label_1
_geom_bond_atom_site_label_2
_geom_bond_distance
_geom_bond_site_symmetry_2
_ccdc_geom_bond_type
O0 Zn1 1.955 . S
O0 C16 1.225 1_565 S
Zn1 O0 1.955 . S
Zn1 O2 1.945 1_565 S
Zn1 O8 1.936 . S
Zn1 O13 1.907 1_565 S
O2 Zn1 1.945 1_545 S
O2 Zn3 1.923 1_444 S
O2 Zn4 1.950 1_455 S
O2 Zn5 1.945 1_554 S
Zn3 O2 1.923 1_666 S
Zn3 O6 1.933 . S
Zn3 O9 1.941 1_655 S
Zn3 O10 1.965 . S
Zn4 O2 1.950 1_655 S
Zn4 O11 1.938 1_545 S
Zn4 O12 1.906 . S
Zn4 O22 1.953 . S
Zn5 O2 1.945 1_556 S
Zn5 O7 1.932 . S
Zn5 O14 1.977 1_455 S
Zn5 O15 1.910 . S
O6 Zn3 1.933 . S
O6 C17 1.222 1_665 S
O7 Zn5 1.932 . S
O7 C17 1.310 . S
O8 Zn1 1.936 . S
O8 C19 1.253 1_554 S
O9 Zn3 1.941 1_455 S
O9 C19 1.283 . S
O10 Zn3 1.965 . S
O10 C18 1.303 1_556 S
O11 Zn4 1.938 1_565 S
O11 C18 1.247 . S
O12 Zn4 1.906 . S
O12 C20 1.304 1_554 S
O13 Zn1 1.907 1_545 S
O13 C21 1.311 . S
O14 Zn5 1.977 1_655 S
O14 C20 1.272 . S
O15 Zn5 1.910 . S
O15 C21 1.231 1_556 S
C16 O0 1.225 1_545 S
C16 O22 1.298 1_455 S
C17 O6 1.222 1_445 S
C17 O7 1.310 . S
C18 O10 1.303 1_554 S
C18 O11 1.247 . S
C19 O8 1.253 1_556 S
C19 O9 1.283 . S
C20 O12 1.304 1_556 S
C20 O14 1.272 . S
C21 O13 1.311 . S
C21 O15 1.231 1_554 S
O22 Zn4 1.953 . S
O22 C16 1.298 1_655 S
O23 Zn24 1.953 . S
O23 C39 1.225 . S
Zn24 O23 1.953 . S
Zn24 O25 1.949 . S
Zn24 O31 1.919 . S
Zn24 O36 1.924 . S
O25 Zn24 1.949 . S
O25 Zn26 1.923 . S
O25 Zn27 1.950 . S
O25 Zn28 1.945 . S
Zn26 O25 1.923 . S
Zn26 O29 1.933 . S
Zn26 O32 1.941 . S
Zn26 O33 1.965 . S
Zn27 O25 1.950 . S
Zn27 O34 1.938 . S
Zn27 O35 1.906 . S
Zn27 O45 1.953 . S
Zn28 O25 1.945 . S
Zn28 O30 1.932 . S
Zn28 O37 1.977 . S
Zn28 O38 1.910 . S
O29 Zn26 1.933 . S
O29 C40 1.226 . S
O30 Zn28 1.932 . S
O30 C40 1.307 . S
O31 Zn24 1.919 . S
O31 C42 1.253 . S
O32 Zn26 1.941 . S
O32 C42 1.283 . S
O33 Zn26 1.965 . S
O33 C41 1.303 . S
O34 Zn27 1.938 . S
O34 C41 1.247 . S
O35 Zn27 1.906 . S
O35 C43 1.304 . S
O36 Zn24 1.924 . S
O36 C44 1.311 . S
O37 Zn28 1.977 . S
O37 C43 1.272 . S
O38 Zn28 1.910 . S
O38 C44 1.231 . S
C39 O23 1.225 . S
C39 O45 1.298 . S
C40 O29 1.226 . S
C40 O30 1.307 . S
C41 O33 1.303 . S
C41 O34 1.247 . S
C42 O31 1.253 . S
C42 O32 1.283 . S
C43 O35 1.304 . S
C43 O37 1.272 . S
C44 O36 1.311 . S
C44 O38 1.231 . S
O45 Zn27 1.953 . S
O45 C39 1.298 . S
H46 C51 0.930 . S
H47 C54 0.930 . S
H48 C56 0.930 . S
H49 C50 1.016 . S
C50 H49 1.016 . S
C50 N57 1.286 . S
C51 H46 0.930 . S
C51 C52 1.397 . S
C51 C53 1.361 1_465 S
C52 C51 1.397 . S
C52 C56 1.390 . S
C53 C51 1.361 1_645 S
C53 C54 1.393 . S
C53 N57 1.413 . S
C54 H47 0.930 . S
C54 C53 1.393 . S
C54 C55 1.399 1_655 S
C55 C54 1.399 1_455 S
C55 C56 1.381 1_545 S
C56 H48 0.930 . S
C56 C52 1.390 . S
C56 C55 1.381 1_565 S
N57 C50 1.286 . S
N57 C53 1.413 . S
H58 C63 0.930 . S
H59 C66 0.930 . S
H60 C68 0.930 . S
H61 C62 1.016 . S
C62 H61 1.016 . S
C62 N69 1.286 . S
C63 H58 0.930 . S
C63 C64 1.397 . S
C63 C65 1.361 1_665 S
C64 C63 1.397 . S
C64 C68 1.390 . S
C65 C63 1.361 1_445 S
C65 C66 1.393 . S
C65 N69 1.413 . S
C66 H59 0.930 . S
C66 C65 1.393 . S
C66 C67 1.414 . S
C67 C66 1.414 . S
C67 C68 1.368 1_445 S
C68 H60 0.930 . S
C68 C64 1.390 . S
C68 C67 1.368 1_665 S
N69 C62 1.286 . S
N69 C65 1.413 . S
H70 C75 0.930 . S
H71 C78 0.930 . S
H72 C80 0.930 . S
H73 C74 1.016 . S
C74 H73 1.016 . S
C74 N81 1.286 . S
C75 H70 0.930 . S
C75 C76 1.397 . S
C75 C77 1.361 . S
C76 C75 1.397 . S
C76 C80 1.390 . S
C77 C75 1.361 . S
C77 C78 1.393 . S
C77 N81 1.413 . S
C78 H71 0.930 . S
C78 C77 1.393 . S
C78 C79 1.399 . S
C79 C78 1.399 . S
C79 C80 1.381 . S
C80 H72 0.930 . S
C80 C76 1.390 . S
C80 C79 1.381 . S
N81 C74 1.286 . S
N81 C77 1.413 . S
H82 C87 0.930 . S
H83 C90 0.930 . S
H84 C92 0.930 . S
H85 C86 1.016 . S
C86 H85 1.016 . S
C86 N93 1.286 . S
C87 H82 0.930 . S
C87 C88 1.397 . S
C87 C89 1.361 . S
C88 C87 1.397 . S
C88 C92 1.390 . S
C89 C87 1.361 . S
C89 C90 1.393 . S
C89 N93 1.413 . S
C90 H83 0.930 . S
C90 C89 1.393 . S
C90 C91 1.399 . S
C91 C90 1.399 . S
C91 C92 1.381 . S
C92 H84 0.930 . S
C92 C88 1.390 . S
C92 C91 1.381 . S
N93 C86 1.286 . S
N93 C89 1.413 . S
C94 C95 1.386 . S
C94 C96 1.383 . S
C94 H110 0.951 . S
C95 C94 1.386 . S
C95 C99 1.383 . S
C96 C94 1.383 . S
C96 C97 1.402 . S
C96 H111 0.951 . S
C97 C96 1.402 . S
C97 C98 1.375 . S
C97 C100 1.481 . S
C98 C97 1.375 . S
C98 C99 1.367 . S
C98 H112 0.951 . S
C99 C95 1.383 . S
C99 C98 1.367 . S
C99 H113 0.950 . S
C100 C97 1.481 . S
C100 C101 1.297 . S
C100 H114 0.950 . S
C101 C100 1.297 . S
C101 C102 1.479 . S
C101 H115 0.950 . S
C102 C101 1.479 . S
C102 C103 1.375 . S
C102 C108 1.404 . S
C103 C102 1.375 . S
C103 C104 1.369 . S
C103 H116 0.950 . S
C104 C103 1.369 . S
C104 C105 1.392 . S
C104 H117 0.951 . S
C105 C104 1.392 . S
C105 C107 1.384 . S
H106 C108 0.949 . S
C107 C105 1.384 . S
C107 C108 1.385 . S
C107 H109 0.950 . S
C108 C102 1.404 . S
C108 H106 0.949 . S
C108 C107 1.385 . S
H109 C107 0.950 . S
H110 C94 0.951 . S
H111 C96 0.951 . S
H112 C98 0.951 . S
H113 C99 0.950 . S
H114 C100 0.950 . S
H115 C101 0.950 . S
H116 C103 0.950 . S
H117 C104 0.951 . S
C118 C119 1.386 . S
C118 C120 1.383 . S
C118 H134 0.951 . S
C119 C118 1.386 . S
C119 C123 1.383 . S
C120 C118 1.383 . S
C120 C121 1.402 . S
C120 H135 0.951 . S
C121 C120 1.402 . S
C121 C122 1.375 . S
C121 C124 1.481 . S
C122 C121 1.375 . S
C122 C123 1.367 . S
C122 H136 0.951 . S
C123 C119 1.383 . S
C123 C122 1.367 . S
C123 H137 0.950 . S
C124 C121 1.481 . S
C124 C125 1.297 . S
C124 H138 0.950 . S
C125 C124 1.297 . S
C125 C126 1.479 . S
C125 H139 0.950 . S
C126 C125 1.479 . S
C126 C127 1.375 . S
C126 C132 1.404 . S
C127 C126 1.375 . S
C127 C128 1.369 . S
C127 H140 0.950 . S
C128 C127 1.369 . S
C128 C129 1.392 . S
C128 H141 0.951 . S
C129 C128 1.392 . S
C129 C131 1.384 . S
H130 C132 0.949 . S
C131 C129 1.384 . S
C131 C132 1.385 . S
C131 H133 0.950 . S
C132 C126 1.404 . S
C132 H130 0.949 . S
C132 C131 1.385 . S
H133 C131 0.950 . S
H134 C118 0.951 . S
H135 C120 0.951 . S
H136 C122 0.951 . S
H137 C123 0.950 . S
H138 C124 0.950 . S
H139 C125 0.950 . S
H140 C127 0.950 . S
H141 C128 0.951 . S
C142 C143 1.369 1_556 S
C142 C144 1.370 1_556 S
C142 H158 0.981 . S
C143 C142 1.369 1_554 S
C143 C147 1.383 . S
C144 C142 1.370 1_554 S
C144 C145 1.402 . S
C144 H159 0.951 1_554 S
C145 C144 1.402 . S
C145 C146 1.375 . S
C145 C148 1.481 . S
C146 C145 1.375 . S
C146 C147 1.367 . S
C146 H160 0.951 . S
C147 C143 1.383 . S
C147 C146 1.367 . S
C147 H161 0.950 . S
C148 C145 1.481 . S
C148 C149 1.297 . S
C148 H162 0.950 . S
C149 C148 1.297 . S
C149 C150 1.479 . S
C149 H163 0.950 . S
C150 C149 1.479 . S
C150 C151 1.375 . S
C150 C156 1.404 . S
C151 C150 1.375 . S
C151 C152 1.369 . S
C151 H164 0.950 . S
C152 C151 1.369 . S
C152 C153 1.392 . S
C152 H165 0.951 . S
C153 C152 1.392 . S
C153 C155 1.384 . S
H154 C156 0.949 . S
C155 C153 1.384 . S
C155 C156 1.385 . S
C155 H157 0.950 . S
C156 C150 1.404 . S
C156 H154 0.949 . S
C156 C155 1.385 . S
H157 C155 0.950 . S
H158 C142 0.981 . S
H159 C144 0.951 1_556 S
H160 C146 0.951 . S
H161 C147 0.950 . S
H162 C148 0.950 . S
H163 C149 0.950 . S
H164 C151 0.950 . S
H165 C152 0.951 . S
C166 C167 1.386 . S
C166 C168 1.383 . S
C166 H182 0.951 1_556 S
C167 C166 1.386 . S
C167 C171 1.383 . S
C168 C166 1.383 . S
C168 C169 1.402 . S
C168 H183 0.951 . S
C169 C168 1.402 . S
C169 C170 1.375 . S
C169 C172 1.481 . S
C170 C169 1.375 . S
C170 C171 1.367 . S
C170 H184 0.951 . S
C171 C167 1.383 . S
C171 C170 1.367 . S
C171 H185 0.950 . S
C172 C169 1.481 . S
C172 C173 1.297 . S
C172 H186 0.950 . S
C173 C172 1.297 . S
C173 C174 1.479 . S
C173 H187 0.950 . S
C174 C173 1.479 . S
C174 C175 1.375 . S
C174 C180 1.404 . S
C175 C174 1.375 . S
C175 C176 1.369 . S
C175 H188 0.950 . S
C176 C175 1.369 . S
C176 C177 1.392 . S
C176 H189 0.951 . S
C177 C176 1.392 . S
C177 C179 1.384 . S
H178 C180 0.949 . S
C179 C177 1.384 . S
C179 C180 1.385 . S
C179 H181 0.950 . S
C180 C174 1.404 . S
C180 H178 0.949 . S
C180 C179 1.385 . S
H181 C179 0.950 . S
H182 C166 0.951 1_554 S
H183 C168 0.951 . S
H184 C170 0.951 . S
H185 C171 0.950 . S
H186 C172 0.950 . S
H187 C173 0.950 . S
H188 C175 0.950 . S
H189 C176 0.951 . S
C190 C191 1.386 . S
C190 C192 1.383 . S
C190 H206 0.951 . S
C191 C190 1.386 . S
C191 C195 1.383 . S
C192 C190 1.383 . S
C192 C193 1.402 . S
C192 H207 0.951 . S
C193 C192 1.402 . S
C193 C194 1.375 . S
C193 C196 1.481 . S
C194 C193 1.375 . S
C194 C195 1.367 . S
C194 H208 0.951 . S
C195 C191 1.383 . S
C195 C194 1.367 . S
C195 H209 0.950 . S
C196 C193 1.481 . S
C196 C197 1.297 . S
C196 H210 0.950 . S
C197 C196 1.297 . S
C197 C198 1.479 . S
C197 H211 0.950 . S
C198 C197 1.479 . S
C198 C199 1.375 . S
C198 C204 1.404 . S
C199 C198 1.375 . S
C199 C200 1.369 . S
C199 H212 0.950 . S
C200 C199 1.369 . S
C200 C201 1.392 . S
C200 H213 0.951 . S
C201 C200 1.392 . S
C201 C203 1.384 . S
H202 C204 0.949 . S
C203 C201 1.384 . S
C203 C204 1.385 . S
C203 H205 0.950 . S
C204 C198 1.404 . S
C204 H202 0.949 . S
C204 C203 1.385 . S
H205 C203 0.950 . S
H206 C190 0.951 . S
H207 C192 0.951 . S
H208 C194 0.951 . S
H209 C195 0.950 . S
H210 C196 0.950 . S
H211 C197 0.950 . S
H212 C199 0.950 . S
H213 C200 0.951 . S
C214 C215 1.386 . S
C214 C216 1.383 . S
C214 H230 0.951 . S
C215 C214 1.386 . S
C215 C219 1.383 . S
C216 C214 1.383 . S
C216 C217 1.402 . S
C216 H231 0.951 . S
C217 C216 1.402 . S
C217 C218 1.375 . S
C217 C220 1.481 . S
C218 C217 1.375 . S
C218 C219 1.367 . S
C218 H232 0.951 . S
C219 C215 1.383 . S
C219 C218 1.367 . S
C219 H233 0.950 . S
C220 C217 1.481 . S
C220 C221 1.297 . S
C220 H234 0.950 . S
C221 C220 1.297 . S
C221 C222 1.479 . S
C221 H235 0.950 . S
C222 C221 1.479 . S
C222 C223 1.375 . S
C222 C228 1.404 . S
C223 C222 1.375 . S
C223 C224 1.369 . S
C223 H236 0.950 . S
C224 C223 1.369 . S
C224 C225 1.392 . S
C224 H237 0.951 . S
C225 C224 1.392 . S
C225 C227 1.384 . S
H226 C228 0.949 . S
C227 C225 1.384 . S
C227 C228 1.385 . S
C227 H229 0.950 . S
C228 C222 1.404 . S
C228 H226 0.949 . S
C228 C227 1.385 . S
H229 C227 0.950 . S
H230 C214 0.951 . S
H231 C216 0.951 . S
H232 C218 0.951 . S
H233 C219 0.950 . S
H234 C220 0.950 . S
H235 C221 0.950 . S
H236 C223 0.950 . S
H237 C224 0.951 . S
C238 C239 1.386 . S
C238 C240 1.383 . S
C238 H254 0.951 . S
C239 C238 1.386 . S
C239 C243 1.383 . S
C240 C238 1.383 . S
C240 C241 1.402 . S
C240 H255 0.951 . S
C241 C240 1.402 . S
C241 C242 1.375 . S
C241 C244 1.481 . S
C242 C241 1.375 . S
C242 C243 1.367 . S
C242 H256 0.951 . S
C243 C239 1.383 . S
C243 C242 1.367 . S
C243 H257 0.950 . S
C244 C241 1.481 . S
C244 C245 1.297 . S
C244 H258 0.950 . S
C245 C244 1.297 . S
C245 C246 1.479 . S
C245 H259 0.950 . S
C246 C245 1.479 . S
C246 C247 1.375 . S
C246 C252 1.404 . S
C247 C246 1.375 . S
C247 C248 1.369 . S
C247 H260 0.950 . S
C248 C247 1.369 . S
C248 C249 1.392 . S
C248 H261 0.951 . S
C249 C248 1.392 . S
C249 C251 1.384 . S
H250 C252 0.949 . S
C251 C249 1.384 . S
C251 C252 1.385 . S
C251 H253 0.950 . S
C252 C246 1.404 . S
C252 H250 0.949 . S
C252 C251 1.385 . S
H253 C251 0.950 . S
H254 C238 0.951 . S
H255 C240 0.951 . S
H256 C242 0.951 . S
H257 C243 0.950 . S
H258 C244 0.950 . S
H259 C245 0.950 . S
H260 C247 0.950 . S
H261 C248 0.951 . S
C262 C263 1.386 . S
C262 C264 1.383 . S
C262 H278 0.951 . S
C263 C262 1.386 . S
C263 C267 1.383 . S
C264 C262 1.383 . S
C264 C265 1.402 . S
C264 H279 0.951 . S
C265 C264 1.402 . S
C265 C266 1.375 . S
C265 C268 1.481 . S
C266 C265 1.375 . S
C266 C267 1.367 . S
C266 H280 0.951 . S
C267 C263 1.383 . S
C267 C266 1.367 . S
C267 H281 0.950 . S
C268 C265 1.481 . S
C268 C269 1.297 . S
C268 H282 0.950 . S
C269 C268 1.297 . S
C269 C270 1.479 . S
C269 H283 0.950 . S
C270 C269 1.479 . S
C270 C271 1.375 . S
C270 C276 1.404 . S
C271 C270 1.375 . S
C271 C272 1.369 . S
C271 H284 0.950 . S
C272 C271 1.369 . S
C272 C273 1.392 . S
C272 H285 0.951 . S
C273 C272 1.392 . S
C273 C275 1.384 . S
H274 C276 0.949 . S
C275 C273 1.384 . S
C275 C276 1.385 . S
C275 H277 0.950 . S
C276 C270 1.404 . S
C276 H274 0.949 . S
C276 C275 1.385 . S
H277 C275 0.950 . S
H278 C262 0.951 . S
H279 C264 0.951 . S
H280 C266 0.951 . S
H281 C267 0.950 . S
H282 C268 0.950 . S
H283 C269 0.950 . S
H284 C271 0.950 . S
H285 C272 0.951 . S
C286 C287 1.386 1_565 S
C286 C288 1.383 . S
C286 H302 0.951 . S
C287 C286 1.386 1_545 S
C287 C291 1.383 1_455 S
C288 C286 1.383 . S
C288 C289 1.402 1_565 S
C288 H303 0.951 . S
C289 C288 1.402 1_545 S
C289 C290 1.375 1_455 S
C289 C292 1.481 . S
C290 C289 1.375 1_655 S
C290 C291 1.367 . S
C290 H304 0.951 . S
C291 C287 1.383 1_655 S
C291 C290 1.367 . S
C291 H305 0.950 . S
C292 C289 1.481 . S
C292 C293 1.297 . S
C292 H306 0.950 1_455 S
C293 C292 1.297 . S
C293 C294 1.479 . S
C293 H307 0.950 1_545 S
C294 C293 1.479 . S
C294 C295 1.375 1_545 S
C294 C300 1.404 . S
C295 C294 1.375 1_565 S
C295 C296 1.369 . S
C295 H308 0.950 . S
C296 C295 1.369 . S
C296 C297 1.392 1_565 S
C296 H309 0.951 . S
C297 C296 1.392 1_545 S
C297 C299 1.384 . S
H298 C300 0.949 1_655 S
C299 C297 1.384 . S
C299 C300 1.385 . S
C299 H301 0.950 1_455 S
C300 C294 1.404 . S
C300 H298 0.949 1_455 S
C300 C299 1.385 . S
H301 C299 0.950 1_655 S
H302 C286 0.951 . S
H303 C288 0.951 . S
H304 C290 0.951 . S
H305 C291 0.950 . S
H306 C292 0.950 1_655 S
H307 C293 0.950 1_565 S
H308 C295 0.950 . S
H309 C296 0.951 . S
C310 C311 1.396 . S
C310 C312 1.383 . S
C310 H326 0.951 . S
C311 C310 1.396 . S
C311 C315 1.375 1_445 S
C312 C310 1.383 . S
C312 C313 1.391 1_445 S
C312 H327 0.951 . S
C313 C312 1.391 1_665 S
C313 C314 1.388 . S
C313 C316 1.479 . S
C314 C313 1.388 . S
C314 C315 1.367 . S
C314 H328 0.951 . S
C315 C311 1.375 1_665 S
C315 C314 1.367 . S
C315 H329 0.950 . S
C316 C313 1.479 . S
C316 C317 1.297 1_665 S
C316 H330 0.950 . S
C317 C316 1.297 1_445 S
C317 C318 1.479 1_545 S
C317 H331 0.950 . S
C318 C317 1.479 1_565 S
C318 C319 1.366 1_565 S
C318 C324 1.412 1_455 S
C319 C318 1.366 1_545 S
C319 C320 1.369 . S
C319 H332 0.950 . S
C320 C319 1.369 . S
C320 C321 1.392 . S
C320 H333 0.951 . S
C321 C320 1.392 . S
C321 C323 1.384 1_445 S
H322 C324 0.949 . S
C323 C321 1.384 1_665 S
C323 C324 1.385 . S
C323 H325 0.950 . S
C324 C318 1.412 1_655 S
C324 H322 0.949 . S
C324 C323 1.385 . S
H325 C323 0.950 . S
H326 C310 0.951 . S
H327 C312 0.951 . S
H328 C314 0.951 . S
H329 C315 0.950 . S
H330 C316 0.950 . S
H331 C317 0.950 . S
H332 C319 0.950 . S
H333 C320 0.951 . S
C334 C335 1.386 . S
C334 C336 1.383 . S
C334 H350 0.951 . S
C335 C334 1.386 . S
C335 C339 1.383 . S
C336 C334 1.383 . S
C336 C337 1.402 . S
C336 H351 0.951 . S
C337 C336 1.402 . S
C337 C338 1.375 . S
C337 C340 1.481 . S
C338 C337 1.375 . S
C338 C339 1.367 . S
C338 H352 0.951 . S
C339 C335 1.383 . S
C339 C338 1.367 . S
C339 H353 0.950 . S
C340 C337 1.481 . S
C340 C341 1.297 . S
C340 H354 0.950 . S
C341 C340 1.297 . S
C341 C342 1.479 . S
C341 H355 0.950 . S
C342 C341 1.479 . S
C342 C343 1.375 . S
C342 C348 1.404 . S
C343 C342 1.375 . S
C343 C344 1.369 . S
C343 H356 0.950 . S
C344 C343 1.369 . S
C344 C345 1.392 . S
C344 H357 0.951 . S
C345 C344 1.392 . S
C345 C347 1.384 . S
H346 C348 0.949 . S
C347 C345 1.384 . S
C347 C348 1.385 . S
C347 H349 0.950 . S
C348 C342 1.404 . S
C348 H346 0.949 . S
C348 C347 1.385 . S
H349 C347 0.950 . S
H350 C334 0.951 . S
H351 C336 0.951 . S
H352 C338 0.951 . S
H353 C339 0.950 . S
H354 C340 0.950 . S
H355 C341 0.950 . S
H356 C343 0.950 . S
H357 C344 0.951 . S
C358 C359 1.386 . S
C358 C360 1.383 . S
C358 H374 0.951 . S
C359 C358 1.386 . S
C359 C363 1.383 . S
C360 C358 1.383 . S
C360 C361 1.402 . S
C360 H375 0.951 . S
C361 C360 1.402 . S
C361 C362 1.375 . S
C361 C364 1.481 . S
C362 C361 1.375 . S
C362 C363 1.367 . S
C362 H376 0.951 . S
C363 C359 1.383 . S
C363 C362 1.367 . S
C363 H377 0.950 . S
C364 C361 1.481 . S
C364 C365 1.297 . S
C364 H378 0.950 . S
C365 C364 1.297 . S
C365 C366 1.479 . S
C365 H379 0.950 . S
C366 C365 1.479 . S
C366 C367 1.375 . S
C366 C372 1.404 . S
C367 C366 1.375 . S
C367 C368 1.369 . S
C367 H380 0.950 . S
C368 C367 1.369 . S
C368 C369 1.392 . S
C368 H381 0.951 . S
C369 C368 1.392 . S
C369 C371 1.384 . S
H370 C372 0.949 . S
C371 C369 1.384 . S
C371 C372 1.385 . S
C371 H373 0.950 . S
C372 C366 1.404 . S
C372 H370 0.949 . S
C372 C371 1.385 . S
H373 C371 0.950 . S
H374 C358 0.951 . S
H375 C360 0.951 . S
H376 C362 0.951 . S
H377 C363 0.950 . S
H378 C364 0.950 . S
H379 C365 0.950 . S
H380 C367 0.950 . S
H381 C368 0.951 . S
C105 C88 1.536 . S
C95 C21 1.520 . S
C119 C19 1.397 . S
C129 C74 1.314 . S
C143 C18 1.372 . S
C153 C86 1.362 . S
C167 C20 1.497 . S
C177 C76 1.515 . S
C191 C44 1.504 . S
C201 C64 1.510 . S
C215 C42 1.375 . S
C225 C50 1.375 . S
C249 C62 1.321 . S
C239 C41 1.334 . S
C273 C52 1.515 . S
C263 C43 1.487 . S
C287 C16 1.528 . S
C297 C55 1.515 . S
C311 C17 1.488 . S
C321 C67 1.472 . S
C345 C79 1.522 . S
C335 C39 1.527 . S
C359 C40 1.488 . S
C369 C91 1.478 . S
