# Generated by pormake.
# Topology pto, (3,4)-cn, num edge types: 1
# Building blocks:
#     Node 0, Type 0, BuildingBlock: MIDCAF_clean_linker_0, # of connection points: 3
#     Node 1, Type 0, BuildingBlock: MIDCAF_clean_linker_0, # of connection points: 3
#     Node 2, Type 0, BuildingBlock: MIDCAF_clean_linker_0, # of connection points: 3
#     Node 3, Type 0, BuildingBlock: MIDCAF_clean_linker_0, # of connection points: 3
#     Node 4, Type 0, BuildingBlock: MIDCAF_clean_linker_0, # of connection points: 3
#     Node 5, Type 0, BuildingBlock: MIDCAF_clean_linker_0, # of connection points: 3
#     Node 6, Type 0, BuildingBlock: MIDCAF_clean_linker_0, # of connection points: 3
#     Node 7, Type 0, BuildingBlock: MIDCAF_clean_linker_0, # of connection points: 3
#     Node 8, Type 1, BuildingBlock: KOZSID_clean_sbu_0, # of connection points: 4
#     Node 9, Type 1, BuildingBlock: KOZSID_clean_sbu_0, # of connection points: 4
#     Node 10, Type 1, BuildingBlock: KOZSID_clean_sbu_0, # of connection points: 4
#     Node 11, Type 1, BuildingBlock: KOZSID_clean_sbu_0, # of connection points: 4
#     Node 12, Type 1, BuildingBlock: KOZSID_clean_sbu_0, # of connection points: 4
#     Node 13, Type 1, BuildingBlock: KOZSID_clean_sbu_0, # of connection points: 4
#     Edge 14, Type (0, 1), BuildingBlock: XUDNAN_clean_linker_2, # of connection points: 2
#     Edge 15, Type (0, 1), BuildingBlock: XUDNAN_clean_linker_2, # of connection points: 2
#     Edge 16, Type (0, 1), BuildingBlock: XUDNAN_clean_linker_2, # of connection points: 2
#     Edge 17, Type (0, 1), BuildingBlock: XUDNAN_clean_linker_2, # of connection points: 2
#     Edge 18, Type (0, 1), BuildingBlock: XUDNAN_clean_linker_2, # of connection points: 2
#     Edge 19, Type (0, 1), BuildingBlock: XUDNAN_clean_linker_2, # of connection points: 2
#     Edge 20, Type (0, 1), BuildingBlock: XUDNAN_clean_linker_2, # of connection points: 2
#     Edge 21, Type (0, 1), BuildingBlock: XUDNAN_clean_linker_2, # of connection points: 2
#     Edge 22, Type (0, 1), BuildingBlock: XUDNAN_clean_linker_2, # of connection points: 2
#     Edge 23, Type (0, 1), BuildingBlock: XUDNAN_clean_linker_2, # of connection points: 2
#     Edge 24, Type (0, 1), BuildingBlock: XUDNAN_clean_linker_2, # of connection points: 2
#     Edge 25, Type (0, 1), BuildingBlock: XUDNAN_clean_linker_2, # of connection points: 2
#     Edge 26, Type (0, 1), BuildingBlock: XUDNAN_clean_linker_2, # of connection points: 2
#     Edge 27, Type (0, 1), BuildingBlock: XUDNAN_clean_linker_2, # of connection points: 2
#     Edge 28, Type (0, 1), BuildingBlock: XUDNAN_clean_linker_2, # of connection points: 2
#     Edge 29, Type (0, 1), BuildingBlock: XUDNAN_clean_linker_2, # of connection points: 2
#     Edge 30, Type (0, 1), BuildingBlock: XUDNAN_clean_linker_2, # of connection points: 2
#     Edge 31, Type (0, 1), BuildingBlock: XUDNAN_clean_linker_2, # of connection points: 2
#     Edge 32, Type (0, 1), BuildingBlock: XUDNAN_clean_linker_2, # of connection points: 2
#     Edge 33, Type (0, 1), BuildingBlock: XUDNAN_clean_linker_2, # of connection points: 2
#     Edge 34, Type (0, 1), BuildingBlock: XUDNAN_clean_linker_2, # of connection points: 2
#     Edge 35, Type (0, 1), BuildingBlock: XUDNAN_clean_linker_2, # of connection points: 2
#     Edge 36, Type (0, 1), BuildingBlock: XUDNAN_clean_linker_2, # of connection points: 2
#     Edge 37, Type (0, 1), BuildingBlock: XUDNAN_clean_linker_2, # of connection points: 2
# Relax obj value: 0.000
# Max RMSD: 0.022
# Mean RMSD: 0.009
data_MOF--net-pto--node1-KOZSID_clean_sbu_0--node2-MIDCAF_clean_linker_0--edge1-XUDNAN_clean_linker_2
_symmetry_space_group_name_H-M    P1
_symmetry_Int_Tables_number       1
_symmetry_cell_setting            triclinic
loop_
_symmetry_equiv_pos_as_xyz
'x, y, z'
_cell_length_a     46.520244
_cell_length_b     62.711041
_cell_length_c     54.778642
_cell_angle_alpha  87.513118
_cell_angle_beta   87.535244
_cell_angle_gamma 92.796814
loop_
_atom_site_label
_atom_site_type_symbol
_atom_site_fract_x
_atom_site_fract_y
_atom_site_fract_z
_atom_type_partial_charge
C0 C 0.29884 0.28196 0.21559 0.0
C1 C 0.31655 0.26523 0.20966 0.0
C2 C 0.31734 0.24752 0.22618 0.0
C3 C 0.30063 0.24647 0.24807 0.0
H4 H 0.25497 0.32007 0.29713 0.0
H5 H 0.2314 0.35235 0.30862 0.0
H6 H 0.16162 0.31377 0.3449 0.0
H7 H 0.18561 0.28121 0.33393 0.0
H8 H 0.24289 0.236 0.36252 0.0
H9 H 0.24587 0.20212 0.38597 0.0
H10 H 0.24585 0.16854 0.31865 0.0
H11 H 0.2446 0.20232 0.29549 0.0
H12 H 0.26896 0.29421 0.24158 0.0
H13 H 0.29799 0.2959 0.20332 0.0
H14 H 0.33058 0.23429 0.22201 0.0
H15 H 0.30172 0.23252 0.26031 0.0
N16 N 0.25232 0.2796 0.28534 0.0
N17 N 0.23319 0.25994 0.32037 0.0
N18 N 0.26196 0.24351 0.29106 0.0
C19 C 0.23619 0.27868 0.3067 0.0
C20 C 0.2461 0.24228 0.31253 0.0
C21 C 0.26526 0.26209 0.27737 0.0
C22 C 0.22217 0.29809 0.31467 0.0
C23 C 0.23467 0.31842 0.30767 0.0
C24 C 0.22126 0.3369 0.31428 0.0
C25 C 0.19472 0.33549 0.32758 0.0
C26 C 0.18205 0.31522 0.33455 0.0
C27 C 0.19585 0.29665 0.32842 0.0
C28 C 0.24387 0.22181 0.32718 0.0
C29 C 0.24326 0.22129 0.35287 0.0
C30 C 0.2449 0.20183 0.36628 0.0
C31 C 0.24669 0.18247 0.35427 0.0
C32 C 0.24557 0.18307 0.32861 0.0
C33 C 0.24455 0.20246 0.31527 0.0
C34 C 0.28293 0.26322 0.25408 0.0
C35 C 0.28233 0.28102 0.2376 0.0
C36 C 0.19226 0.69988 0.74014 0.0
C37 C 0.17242 0.69925 0.72151 0.0
C38 C 0.17146 0.71713 0.7052 0.0
C39 C 0.18943 0.73537 0.7078 0.0
H40 H 0.21352 0.79673 0.6758 0.0
H41 H 0.208 0.82982 0.65134 0.0
H42 H 0.25348 0.86556 0.70455 0.0
H43 H 0.25902 0.83288 0.72888 0.0
H44 H 0.2844 0.81121 0.77242 0.0
H45 H 0.31231 0.81401 0.80872 0.0
H46 H 0.30462 0.7455 0.82108 0.0
H47 H 0.27641 0.74251 0.78453 0.0
H48 H 0.22484 0.71809 0.75761 0.0
H49 H 0.19339 0.68649 0.75318 0.0
H50 H 0.15677 0.71706 0.6904 0.0
H51 H 0.1878 0.7489 0.69505 0.0
N52 N 0.22444 0.77384 0.71567 0.0
N53 N 0.25706 0.79281 0.7391 0.0
N54 N 0.24435 0.75692 0.74968 0.0
C55 C 0.23967 0.7923 0.71985 0.0
C56 C 0.25967 0.77526 0.75405 0.0
C57 C 0.22666 0.75605 0.73054 0.0
C58 C 0.23664 0.81207 0.70439 0.0
C59 C 0.22236 0.81164 0.68226 0.0
C60 C 0.21931 0.83056 0.66818 0.0
C61 C 0.23012 0.85028 0.67614 0.0
C62 C 0.24456 0.85065 0.69811 0.0
C63 C 0.24788 0.83182 0.71199 0.0
C64 C 0.27793 0.77662 0.77556 0.0
C65 C 0.28869 0.79666 0.78269 0.0
C66 C 0.30461 0.79831 0.80359 0.0
C67 C 0.31044 0.77999 0.8178 0.0
C68 C 0.3005 0.75987 0.81039 0.0
C69 C 0.28423 0.7582 0.78954 0.0
C70 C 0.20882 0.73621 0.72679 0.0
C71 C 0.21021 0.71812 0.74276 0.0
C72 C 0.69891 0.761 0.23451 0.0
C73 C 0.68958 0.78132 0.22767 0.0
C74 C 0.70058 0.79915 0.23962 0.0
C75 C 0.71994 0.79674 0.2582 0.0
H76 H 0.77015 0.83128 0.30285 0.0
H77 H 0.78059 0.86276 0.32597 0.0
H78 H 0.80782 0.82278 0.3859 0.0
H79 H 0.79754 0.79094 0.36258 0.0
H80 H 0.83418 0.74607 0.3241 0.0
H81 H 0.85741 0.71207 0.32735 0.0
H82 H 0.77824 0.67923 0.30793 0.0
H83 H 0.75597 0.71329 0.30317 0.0
H84 H 0.72492 0.74267 0.25808 0.0
H85 H 0.6907 0.7469 0.22584 0.0
H86 H 0.69439 0.81511 0.2345 0.0
H87 H 0.7278 0.81092 0.26692 0.0
N88 N 0.75696 0.79116 0.29846 0.0
N89 N 0.78745 0.77038 0.3216 0.0
N90 N 0.76101 0.75504 0.29055 0.0
C91 C 0.77573 0.7895 0.31669 0.0
C92 C 0.78012 0.75308 0.30854 0.0
C93 C 0.74943 0.77408 0.28531 0.0
C94 C 0.78306 0.80854 0.33083 0.0
C95 C 0.77841 0.82909 0.32093 0.0
C96 C 0.7845 0.84718 0.33413 0.0
C97 C 0.79505 0.84522 0.35771 0.0
C98 C 0.79956 0.82472 0.36779 0.0
C99 C 0.79388 0.80654 0.35437 0.0
C100 C 0.79337 0.73236 0.31313 0.0
C101 C 0.82179 0.73152 0.32068 0.0
C102 C 0.83504 0.71195 0.32265 0.0
C103 C 0.81996 0.69271 0.31759 0.0
C104 C 0.79101 0.69363 0.3112 0.0
C105 C 0.77806 0.71318 0.30868 0.0
C106 C 0.72903 0.77642 0.26531 0.0
C107 C 0.71843 0.75857 0.25311 0.0
C108 C 0.80625 0.21183 0.68821 0.0
C109 C 0.79927 0.19134 0.69892 0.0
C110 C 0.78685 0.18951 0.72278 0.0
C111 C 0.78145 0.2077 0.73568 0.0
H112 H 0.72166 0.22728 0.78602 0.0
H113 H 0.68556 0.22364 0.81963 0.0
H114 H 0.7052 0.28892 0.83773 0.0
H115 H 0.74162 0.2926 0.80428 0.0
H116 H 0.77686 0.32233 0.76482 0.0
H117 H 0.80178 0.35697 0.75693 0.0
H118 H 0.86345 0.3289 0.70842 0.0
H119 H 0.8385 0.29381 0.71645 0.0
H120 H 0.80693 0.24571 0.69269 0.0
H121 H 0.81596 0.21366 0.66987 0.0
H122 H 0.78104 0.17394 0.73141 0.0
H123 H 0.77179 0.20559 0.75403 0.0
N124 N 0.76264 0.24549 0.7583 0.0
N125 N 0.7705 0.28167 0.76583 0.0
N126 N 0.79635 0.26669 0.73357 0.0
C127 C 0.75647 0.26253 0.77166 0.0
C128 C 0.79046 0.28396 0.7469 0.0
C129 C 0.78244 0.24736 0.73925 0.0
C130 C 0.73461 0.26026 0.79232 0.0
C131 C 0.7184 0.24089 0.79714 0.0
C132 C 0.69754 0.23881 0.81635 0.0
C133 C 0.69245 0.256 0.83131 0.0
C134 C 0.7088 0.27531 0.82669 0.0
C135 C 0.72958 0.27744 0.80739 0.0
C136 C 0.8056 0.30516 0.74127 0.0
C137 C 0.79569 0.3234 0.75242 0.0
C138 C 0.80989 0.34337 0.74778 0.0
C139 C 0.83452 0.34573 0.73196 0.0
C140 C 0.84461 0.32756 0.72081 0.0
C141 C 0.83019 0.30749 0.7253 0.0
C142 C 0.78867 0.22825 0.72521 0.0
C143 C 0.80126 0.23013 0.70133 0.0
C144 C 0.72416 0.80188 0.82682 0.0
C145 C 0.71201 0.78352 0.83971 0.0
C146 C 0.71667 0.76338 0.83051 0.0
C147 C 0.73381 0.76156 0.80918 0.0
H148 H 0.80469 0.72675 0.78841 0.0
H149 H 0.83504 0.69632 0.7874 0.0
H150 H 0.86238 0.71387 0.71266 0.0
H151 H 0.83192 0.74465 0.71352 0.0
H152 H 0.82485 0.79462 0.69687 0.0
H153 H 0.83049 0.82285 0.66496 0.0
H154 H 0.76224 0.85632 0.70009 0.0
H155 H 0.75706 0.82834 0.73245 0.0
H156 H 0.7501 0.8145 0.79568 0.0
H157 H 0.72075 0.8176 0.83351 0.0
H158 H 0.70764 0.74898 0.84018 0.0
H159 H 0.73742 0.74576 0.80278 0.0
N160 N 0.78034 0.75982 0.77208 0.0
N161 N 0.80178 0.77361 0.73484 0.0
N162 N 0.76884 0.79367 0.75668 0.0
C163 C 0.79866 0.75761 0.75248 0.0
C164 C 0.78689 0.79169 0.73675 0.0
C165 C 0.76538 0.77773 0.77435 0.0
C166 C 0.81595 0.73834 0.75109 0.0
C167 C 0.81695 0.72417 0.77164 0.0
C168 C 0.83446 0.70673 0.77114 0.0
C169 C 0.85124 0.70283 0.75003 0.0
C170 C 0.84959 0.71649 0.72916 0.0
C171 C 0.83227 0.73416 0.72973 0.0
C172 C 0.79043 0.80908 0.71731 0.0
C173 C 0.81102 0.80798 0.69788 0.0
C174 C 0.81416 0.82417 0.67944 0.0
C175 C 0.79673 0.84188 0.6798 0.0
C176 C 0.77629 0.84308 0.69933 0.0
C177 C 0.77321 0.82691 0.71785 0.0
C178 C 0.74615 0.77988 0.79629 0.0
C179 C 0.74079 0.8001 0.80514 0.0
C180 C 0.81231 0.19621 0.37203 0.0
C181 C 0.79877 0.17745 0.36392 0.0
C182 C 0.78388 0.17861 0.34213 0.0
C183 C 0.78278 0.19802 0.32866 0.0
H184 H 0.74113 0.22778 0.27112 0.0
H185 H 0.7071 0.2331 0.23885 0.0
H186 H 0.74065 0.29824 0.22636 0.0
H187 H 0.77429 0.29316 0.2585 0.0
H188 H 0.837 0.30591 0.28452 0.0
H189 H 0.86268 0.3386 0.29637 0.0
H190 H 0.85356 0.31659 0.37213 0.0
H191 H 0.82858 0.28354 0.36032 0.0
H192 H 0.82233 0.22963 0.36524 0.0
H193 H 0.8242 0.19583 0.3886 0.0
H194 H 0.77292 0.1645 0.33552 0.0
H195 H 0.77122 0.19824 0.31191 0.0
N196 N 0.77976 0.23898 0.30207 0.0
N197 N 0.79668 0.27461 0.29477 0.0
N198 N 0.81291 0.25455 0.32807 0.0
C199 C 0.7797 0.25766 0.28847 0.0
C200 C 0.81329 0.27322 0.31449 0.0
C201 C 0.79641 0.23726 0.32187 0.0
C202 C 0.76036 0.26008 0.26767 0.0
C203 C 0.7414 0.2432 0.26139 0.0
C204 C 0.72195 0.24621 0.24282 0.0
C205 C 0.72095 0.26617 0.23023 0.0
C206 C 0.74048 0.28279 0.23602 0.0
C207 C 0.75992 0.2798 0.25443 0.0
C208 C 0.83069 0.2922 0.32151 0.0
C209 C 0.84079 0.30792 0.30368 0.0
C210 C 0.85561 0.32654 0.3104 0.0
C211 C 0.86003 0.33002 0.33512 0.0
C212 C 0.8504 0.3142 0.35294 0.0
C213 C 0.83619 0.29532 0.34617 0.0
C214 C 0.79672 0.21674 0.33655 0.0
C215 C 0.81138 0.21558 0.35849 0.0
C216 C 0.26736 0.18356 0.70668 0.0
C217 C 0.24731 0.18239 0.68823 0.0
C218 C 0.23129 0.20035 0.68298 0.0
C219 C 0.23477 0.21883 0.69627 0.0
H220 H 0.22017 0.2842 0.69545 0.0
H221 H 0.19548 0.31643 0.68462 0.0
H222 H 0.21434 0.34178 0.75452 0.0
H223 H 0.23895 0.30951 0.76554 0.0
H224 H 0.29123 0.28744 0.79491 0.0
H225 H 0.3173 0.28438 0.83267 0.0
H226 H 0.32282 0.21663 0.82382 0.0
H227 H 0.29688 0.21951 0.78635 0.0
H228 H 0.28626 0.20206 0.73419 0.0
H229 H 0.28057 0.17025 0.71086 0.0
H230 H 0.21552 0.19996 0.669 0.0
H231 H 0.22174 0.23223 0.69202 0.0
N232 N 0.24411 0.25709 0.72405 0.0
N233 N 0.26199 0.27331 0.75856 0.0
N234 N 0.27273 0.23808 0.75065 0.0
C235 C 0.24639 0.27441 0.73812 0.0
C236 C 0.27527 0.25518 0.76495 0.0
C237 C 0.25727 0.23886 0.73018 0.0
C238 C 0.23161 0.29419 0.7314 0.0
C239 C 0.2191 0.29661 0.70856 0.0
C240 C 0.20506 0.31515 0.70227 0.0
C241 C 0.20296 0.33165 0.71871 0.0
C242 C 0.21537 0.32925 0.74155 0.0
C243 C 0.22964 0.31078 0.74778 0.0
C244 C 0.29177 0.25371 0.78756 0.0
C245 C 0.29803 0.27189 0.80099 0.0
C246 C 0.31311 0.27018 0.82255 0.0
C247 C 0.32194 0.25024 0.83129 0.0
C248 C 0.31596 0.23216 0.81774 0.0
C249 C 0.30119 0.23388 0.79614 0.0
C250 C 0.25432 0.21975 0.71516 0.0
C251 C 0.27074 0.20193 0.72001 0.0
C252 C 0.23572 0.67723 0.31263 0.0
C253 C 0.20555 0.67498 0.31678 0.0
C254 C 0.19019 0.69374 0.31882 0.0
C255 C 0.20447 0.71395 0.31664 0.0
H256 H 0.23326 0.77028 0.36392 0.0
H257 H 0.22955 0.79879 0.3927 0.0
H258 H 0.26298 0.84489 0.33653 0.0
H259 H 0.2669 0.81644 0.30768 0.0
H260 H 0.29271 0.79843 0.25653 0.0
H261 H 0.32159 0.80445 0.21829 0.0
H262 H 0.34111 0.73788 0.21981 0.0
H263 H 0.31176 0.73162 0.25787 0.0
H264 H 0.27289 0.69864 0.30589 0.0
H265 H 0.24869 0.66341 0.31168 0.0
H266 H 0.16698 0.69302 0.32142 0.0
H267 H 0.19199 0.72804 0.31793 0.0
N268 N 0.24281 0.75363 0.32154 0.0
N269 N 0.27412 0.7768 0.29688 0.0
N270 N 0.26792 0.74077 0.28754 0.0
C271 C 0.25562 0.77344 0.31673 0.0
C272 C 0.28042 0.76055 0.28224 0.0
C273 C 0.24892 0.73727 0.30699 0.0
C274 C 0.2506 0.79101 0.33351 0.0
C275 C 0.2395 0.78651 0.35757 0.0
C276 C 0.23748 0.80282 0.37411 0.0
C277 C 0.24612 0.82403 0.36688 0.0
C278 C 0.25601 0.82871 0.34257 0.0
C279 C 0.25842 0.81236 0.3261 0.0
C280 C 0.29979 0.76452 0.26016 0.0
C281 C 0.30337 0.7851 0.24888 0.0
C282 C 0.3198 0.78856 0.22697 0.0
C283 C 0.33348 0.77161 0.21618 0.0
C284 C 0.33088 0.75121 0.22788 0.0
C285 C 0.31394 0.74764 0.24955 0.0
C286 C 0.23429 0.71597 0.31157 0.0
C287 C 0.24979 0.69746 0.30961 0.0
C288 C 0.05741 0.54372 0.36124 0.0
C289 C 0.06738 0.55235 0.38243 0.0
C290 C 0.04734 0.54649 0.40084 0.0
C291 C 0.0265 0.53439 0.39006 0.0
N292 N 0.03237 0.53203 0.36606 0.0
Co293 Co 0.00871 0.51477 0.34404 0.0
N294 N 0.98729 0.49922 0.37204 0.0
C295 C 0.9863 0.50514 0.39539 0.0
C296 C 0.97144 0.49043 0.41103 0.0
C297 C 0.96235 0.47435 0.39662 0.0
C298 C 0.97178 0.48031 0.37277 0.0
N299 N 0.98497 0.49765 0.32203 0.0
C300 C 0.96883 0.47928 0.32683 0.0
C301 C 0.95462 0.47321 0.30622 0.0
C302 C 0.96231 0.48832 0.28798 0.0
C303 C 0.98057 0.50278 0.29842 0.0
N304 N 0.02994 0.53028 0.31594 0.0
C305 C 0.02095 0.53185 0.29291 0.0
C306 C 0.03913 0.54456 0.27749 0.0
C307 C 0.06079 0.55163 0.29174 0.0
C308 C 0.05465 0.54271 0.31518 0.0
N309 N 0.03729 0.49288 0.34408 0.0
C310 C 0.07696 0.46066 0.34453 0.0
C311 C 0.06484 0.46736 0.32271 0.0
C312 C 0.0453 0.48364 0.32283 0.0
C313 C 0.06886 0.47045 0.36608 0.0
C314 C 0.04889 0.48636 0.3655 0.0
N315 N 0.98 0.53666 0.34391 0.0
C316 C 0.93048 0.54596 0.34248 0.0
C317 C 0.93899 0.56765 0.33886 0.0
C318 C 0.96838 0.57358 0.3389 0.0
C319 C 0.98851 0.55787 0.34133 0.0
C320 C 0.95125 0.53078 0.34521 0.0
H321 H 0.01101 0.56291 0.34042 0.0
H322 H 0.94403 0.5142 0.34774 0.0
H323 H 0.03657 0.48871 0.30573 0.0
H324 H 0.04272 0.49328 0.38246 0.0
C325 C 0.00432 0.52199 0.40256 0.0
C326 C 0.07086 0.54839 0.33665 0.0
C327 C 0.9644 0.4684 0.3511 0.0
C328 C 0.99732 0.51924 0.28592 0.0
H329 H 0.08702 0.56194 0.38448 0.0
H330 H 0.04849 0.54988 0.41999 0.0
H331 H 0.96895 0.49073 0.43074 0.0
H332 H 0.95043 0.45983 0.40313 0.0
H333 H 0.93991 0.4595 0.30458 0.0
H334 H 0.956 0.48839 0.26919 0.0
H335 H 0.03714 0.54805 0.25813 0.0
H336 H 0.0786 0.56258 0.28563 0.0
H337 H 0.07077 0.46033 0.30561 0.0
H338 H 0.07759 0.46562 0.38337 0.0
H339 H 0.90792 0.54073 0.34291 0.0
H340 H 0.97588 0.59017 0.33605 0.0
C341 C 0.06284 0.54608 0.74032 0.0
C342 C 0.07347 0.55172 0.76255 0.0
C343 C 0.06166 0.53709 0.77977 0.0
C344 C 0.04441 0.52352 0.76713 0.0
N345 N 0.04511 0.52821 0.74277 0.0
Co346 Co 0.02031 0.51455 0.71805 0.0
N347 N 0.99968 0.49507 0.7438 0.0
C348 C 0.00587 0.49308 0.76767 0.0
C349 C 0.98887 0.47778 0.78077 0.0
C350 C 0.97096 0.46929 0.76423 0.0
C351 C 0.97811 0.47995 0.74188 0.0
N352 N 0.99441 0.50195 0.6935 0.0
C353 C 0.97238 0.48696 0.6965 0.0
C354 C 0.95981 0.48302 0.67448 0.0
C355 C 0.97438 0.49599 0.65699 0.0
C356 C 0.99493 0.50708 0.66923 0.0
N357 N 0.04188 0.53326 0.69221 0.0
C358 C 0.0393 0.53274 0.66777 0.0
C359 C 0.05672 0.54785 0.65472 0.0
C360 C 0.07085 0.55892 0.67191 0.0
C361 C 0.06105 0.54991 0.69449 0.0
N362 N 0.04844 0.49195 0.71278 0.0
C363 C 0.0863 0.45844 0.70627 0.0
C364 C 0.07041 0.4662 0.687 0.0
C365 C 0.05193 0.48284 0.69058 0.0
C366 C 0.08329 0.46807 0.72868 0.0
C367 C 0.06446 0.48455 0.73151 0.0
N368 N 0.99259 0.5371 0.72342 0.0
C369 C 0.97028 0.56905 0.70888 0.0
C370 C 0.9615 0.57356 0.73277 0.0
C371 C 0.96669 0.55861 0.75156 0.0
C372 C 0.98211 0.54067 0.74654 0.0
C373 C 0.9855 0.55073 0.70461 0.0
H374 H 0.98611 0.53026 0.7618 0.0
H375 H 0.99219 0.54824 0.68607 0.0
H376 H 0.04054 0.48786 0.67508 0.0
H377 H 0.06328 0.49089 0.74916 0.0
C378 C 0.02632 0.50685 0.7776 0.0
C379 C 0.06859 0.55883 0.7176 0.0
C380 C 0.96358 0.47528 0.71946 0.0
C381 C 0.01667 0.52084 0.65817 0.0
H382 H 0.08762 0.56533 0.76609 0.0
H383 H 0.06448 0.53684 0.79929 0.0
H384 H 0.98919 0.47352 0.80011 0.0
H385 H 0.95439 0.45676 0.76823 0.0
H386 H 0.94237 0.47158 0.67125 0.0
H387 H 0.97096 0.49678 0.63756 0.0
H388 H 0.0576 0.55135 0.63517 0.0
H389 H 0.08564 0.57268 0.66835 0.0
H390 H 0.07173 0.45923 0.66927 0.0
H391 H 0.09555 0.46305 0.74409 0.0
H392 H 0.96655 0.57999 0.69364 0.0
H393 H 0.95943 0.56093 0.77026 0.0
C394 C 0.26092 0.98202 0.55126 0.0
C395 C 0.28572 0.97446 0.56107 0.0
C396 C 0.30844 0.9855 0.54906 0.0
C397 C 0.29631 0.99913 0.5327 0.0
N398 N 0.26715 0.9976 0.53359 0.0
Co399 Co 0.24093 0.01403 0.51236 0.0
N400 N 0.27442 0.03047 0.4949 0.0
C401 C 0.30262 0.02903 0.49957 0.0
C402 C 0.32057 0.04332 0.48594 0.0
C403 C 0.30284 0.05471 0.47176 0.0
C404 C 0.27494 0.0465 0.47738 0.0
N405 N 0.21477 0.02999 0.49066 0.0
C406 C 0.22096 0.0453 0.47267 0.0
C407 C 0.19625 0.05141 0.46142 0.0
C408 C 0.17364 0.03997 0.47305 0.0
C409 C 0.18574 0.02739 0.49048 0.0
N410 N 0.20741 0.99806 0.53029 0.0
C411 C 0.17915 1.00027 0.52652 0.0
C412 C 0.16104 0.98727 0.54166 0.0
C413 C 0.17875 0.97606 0.55604 0.0
C414 C 0.20678 0.98294 0.54881 0.0
N415 N 0.23894 0.03668 0.53662 0.0
C416 C 0.23574 0.06659 0.57338 0.0
C417 C 0.21179 0.06153 0.55991 0.0
C418 C 0.21378 0.04649 0.54179 0.0
C419 C 0.26144 0.05705 0.56777 0.0
C420 C 0.26267 0.04248 0.54928 0.0
N421 N 0.24296 0.99111 0.4884 0.0
C422 C 0.21948 0.96267 0.46685 0.0
C423 C 0.24589 0.95379 0.46181 0.0
C424 C 0.27089 0.96472 0.46862 0.0
C425 C 0.26897 0.98341 0.4814 0.0
C426 C 0.21849 0.98123 0.48014 0.0
H427 H 0.28883 0.99093 0.48609 0.0
H428 H 0.19767 0.98686 0.48421 0.0
H429 H 0.19461 0.04281 0.5325 0.0
H430 H 0.283 0.03592 0.54585 0.0
C431 C 0.31162 0.01412 0.51693 0.0
C432 C 0.232 0.9742 0.5597 0.0
C433 C 0.24969 0.05469 0.46578 0.0
C434 C 0.17033 0.0138 0.50772 0.0
H435 H 0.28725 0.96231 0.57554 0.0
H436 H 0.3311 0.98392 0.55205 0.0
H437 H 0.34377 0.04538 0.48644 0.0
H438 H 0.30976 0.06773 0.45893 0.0
H439 H 0.1946 0.06304 0.44644 0.0
H440 H 0.15103 0.04089 0.46943 0.0
H441 H 0.13774 0.98584 0.54191 0.0
H442 H 0.17183 0.96396 0.57003 0.0
H443 H 0.19143 0.06865 0.56384 0.0
H444 H 0.28054 0.06072 0.57777 0.0
H445 H 0.19958 0.95476 0.46164 0.0
H446 H 0.29186 0.9586 0.46454 0.0
C447 C 0.47063 0.80131 0.05412 0.0
C448 C 0.46015 0.8211 0.05923 0.0
C449 C 0.46918 0.83489 0.04007 0.0
C450 C 0.48497 0.82294 0.02455 0.0
N451 N 0.48677 0.80254 0.03288 0.0
Co452 Co 0.50881 0.7803 0.01673 0.0
N453 N 0.53149 0.80209 0.99554 0.0
C454 C 0.52416 0.82229 0.99064 0.0
C455 C 0.54323 0.83348 0.97449 0.0
C456 C 0.56377 0.8194 0.9687 0.0
C457 C 0.5561 0.80034 0.98181 0.0
N458 N 0.5309 0.75811 1.0005 0.0
C459 C 0.55597 0.76006 0.98683 0.0
C460 C 0.56431 0.74022 0.97964 0.0
C461 C 0.54329 0.72551 0.98854 0.0
C462 C 0.52351 0.73707 1.00087 0.0
N463 N 0.4859 0.75851 0.03779 0.0
C464 C 0.48302 0.73749 0.03381 0.0
C465 C 0.46526 0.72634 0.05103 0.0
C466 C 0.45617 0.7413 0.06673 0.0
C467 C 0.46905 0.76084 0.05822 0.0
N468 N 0.47985 0.77834 0.99191 0.0
C469 C 0.43809 0.77935 0.95659 0.0
C470 C 0.4673 0.77813 0.94969 0.0
C471 C 0.48784 0.77768 0.96762 0.0
C472 C 0.43018 0.77912 0.98154 0.0
C473 C 0.45127 0.77855 0.99883 0.0
N474 N 0.53744 0.78237 0.04173 0.0
C475 C 0.56315 0.7657 0.07405 0.0
C476 C 0.5713 0.78577 0.08254 0.0
C477 C 0.56367 0.80405 0.06921 0.0
C478 C 0.54692 0.80201 0.04884 0.0
C479 C 0.54622 0.76435 0.05361 0.0
H480 H 0.54072 0.81638 0.03943 0.0
H481 H 0.53928 0.74873 0.04804 0.0
H482 H 0.51022 0.77733 0.96178 0.0
H483 H 0.44438 0.77877 0.01782 0.0
C484 C 0.50196 0.83104 0.00428 0.0
C485 C 0.46234 0.7814 0.06844 0.0
C486 C 0.57111 0.78049 0.97893 0.0
C487 C 0.50051 0.72847 0.01604 0.0
H488 H 0.447 0.82513 0.07497 0.0
H489 H 0.46551 0.85178 0.03815 0.0
H490 H 0.54273 0.85005 0.96818 0.0
H491 H 0.58202 0.82273 0.95595 0.0
H492 H 0.58347 0.73668 0.96899 0.0
H493 H 0.54305 0.70836 0.98698 0.0
H494 H 0.4601 0.7093 0.0524 0.0
H495 H 0.44137 0.73819 0.08241 0.0
H496 H 0.47436 0.77832 0.93058 0.0
H497 H 0.4078 0.77965 0.98772 0.0
H498 H 0.5686 0.75115 0.08378 0.0
H499 H 0.57004 0.81988 0.07482 0.0
C500 C 0.83615 0.98228 0.56206 0.0
C501 C 0.86273 0.97502 0.56817 0.0
C502 C 0.88312 0.98853 0.55625 0.0
C503 C 0.86787 0.00315 0.54354 0.0
N504 N 0.83897 1.00009 0.54701 0.0
Co505 Co 0.80876 0.01649 0.5304 0.0
N506 N 0.83864 0.03497 0.51092 0.0
C507 C 0.86746 0.03536 0.51344 0.0
C508 C 0.88249 0.05014 0.49802 0.0
C509 C 0.86207 0.05979 0.48488 0.0
C510 C 0.83566 0.05022 0.49302 0.0
N511 N 0.77853 0.03195 0.51269 0.0
C512 C 0.78122 0.04687 0.49394 0.0
C513 C 0.75454 0.05265 0.48617 0.0
C514 C 0.73428 0.04097 0.50052 0.0
C515 C 0.74966 0.02869 0.51605 0.0
N516 N 0.77893 0.99869 0.55071 0.0
C517 C 0.75018 1.00098 0.5515 0.0
C518 C 0.73511 0.98645 0.56719 0.0
C519 C 0.75545 0.97402 0.57688 0.0
C520 C 0.78186 0.98173 0.56646 0.0
N521 N 0.80909 0.03809 0.55623 0.0
C522 C 0.8104 0.06931 0.59201 0.0
C523 C 0.78527 0.06455 0.57986 0.0
C524 C 0.78501 0.04891 0.56235 0.0
C525 C 0.83479 0.05823 0.58597 0.0
C526 C 0.83371 0.04295 0.5682 0.0
N527 N 0.80858 0.99513 0.50477 0.0
C528 C 0.78356 0.96873 0.48137 0.0
C529 C 0.80912 0.96469 0.4684 0.0
C530 C 0.83436 0.97599 0.47413 0.0
C531 C 0.83365 0.99091 0.49228 0.0
C532 C 0.78372 0.98405 0.49926 0.0
H533 H 0.85371 0.99884 0.49593 0.0
H534 H 0.76352 0.98679 0.50837 0.0
H535 H 0.76499 0.04589 0.55414 0.0
H536 H 0.85327 0.03541 0.56456 0.0
C537 C 0.8799 0.02006 0.52837 0.0
C538 C 0.80886 0.97163 0.57086 0.0
C539 C 0.80843 0.056 0.48295 0.0
C540 C 0.73774 0.01469 0.5347 0.0
H541 H 0.8669 0.96129 0.57992 0.0
H542 H 0.90628 0.98766 0.55659 0.0
H543 H 0.90561 0.05311 0.49605 0.0
H544 H 0.86615 0.07226 0.47069 0.0
H545 H 0.75019 0.06417 0.47167 0.0
H546 H 0.7111 0.04145 0.4998 0.0
H547 H 0.71198 0.98444 0.5703 0.0
H548 H 0.75119 0.96039 0.58954 0.0
H549 H 0.7657 0.07258 0.58415 0.0
H550 H 0.85488 0.0615 0.59472 0.0
H551 H 0.76344 0.96044 0.47739 0.0
H552 H 0.85475 0.9732 0.46478 0.0
C553 C 0.47554 0.2827 0.06297 0.0
C554 C 0.46711 0.30288 0.06879 0.0
C555 C 0.48424 0.31726 0.05471 0.0
C556 C 0.50222 0.30513 0.04129 0.0
N557 N 0.49768 0.28385 0.04597 0.0
Co558 Co 0.51984 0.26057 0.03127 0.0
N559 N 0.54267 0.28159 0.00844 0.0
C560 C 0.54061 0.30305 0.00697 0.0
C561 C 0.55728 0.31311 0.98828 0.0
C562 C 0.57039 0.2971 0.97676 0.0
C563 C 0.56109 0.27812 0.98931 0.0
N564 N 0.54252 0.23739 0.01702 0.0
C565 C 0.56174 0.23823 0.99766 0.0
C566 C 0.57272 0.21842 0.99378 0.0
C567 C 0.55941 0.20444 0.01097 0.0
C568 C 0.54129 0.2165 0.02439 0.0
N569 N 0.4962 0.23943 0.05334 0.0
C570 C 0.49854 0.21799 0.05491 0.0
C571 C 0.47846 0.2075 0.07072 0.0
C572 C 0.46215 0.22313 0.07969 0.0
C573 C 0.47345 0.24238 0.06894 0.0
N574 N 0.49096 0.25717 0.00597 0.0
C575 C 0.44908 0.25206 0.97064 0.0
C576 C 0.46168 0.23439 0.98142 0.0
C577 C 0.48235 0.23727 0.99888 0.0
C578 C 0.45822 0.27239 0.97763 0.0
C579 C 0.47902 0.27457 0.99519 0.0
N580 N 0.54885 0.264 0.0569 0.0
C581 C 0.57392 0.24947 0.09133 0.0
C582 C 0.58679 0.26949 0.09548 0.0
C583 C 0.58108 0.28655 0.07943 0.0
C584 C 0.5623 0.28348 0.0605 0.0
C585 C 0.55534 0.2471 0.07211 0.0
H586 H 0.55892 0.29725 0.04922 0.0
H587 H 0.54624 0.23143 0.07028 0.0
H588 H 0.49108 0.22316 0.00646 0.0
H589 H 0.48503 0.29046 0.99993 0.0
C590 C 0.52193 0.31316 0.02283 0.0
C591 C 0.46168 0.26299 0.07396 0.0
C592 C 0.56913 0.25711 0.98174 0.0
C593 C 0.52013 0.20823 0.04155 0.0
H594 H 0.45015 0.30682 0.08173 0.0
H595 H 0.48331 0.33449 0.05399 0.0
H596 H 0.55902 0.33001 0.98318 0.0
H597 H 0.58461 0.2992 0.96061 0.0
H598 H 0.58809 0.21439 0.97952 0.0
H599 H 0.56167 0.18735 0.01272 0.0
H600 H 0.47591 0.19049 0.07512 0.0
H601 H 0.44393 0.22059 0.09262 0.0
H602 H 0.45578 0.21832 0.97632 0.0
H603 H 0.44899 0.28659 0.96997 0.0
H604 H 0.57748 0.23571 0.10324 0.0
H605 H 0.59103 0.30232 0.08143 0.0
H606 H 0.1404 0.34714 0.31687 0.0
H607 H 0.21758 0.36862 0.35214 0.0
H608 H 0.19535 0.40262 0.3612 0.0
H609 H 0.12768 0.39771 0.28786 0.0
H610 H 0.08898 0.39466 0.29149 0.0
H611 H 0.11002 0.37141 0.28927 0.0
H612 H 0.08678 0.35588 0.3305 0.0
H613 H 0.06554 0.37905 0.33277 0.0
H614 H 0.08831 0.37163 0.35722 0.0
H615 H 0.16497 0.43424 0.36621 0.0
H616 H 0.12924 0.46217 0.36525 0.0
H617 H 0.07263 0.42112 0.32478 0.0
C618 C 0.15236 0.35892 0.32681 0.0
C619 C 0.18056 0.35527 0.33406 0.0
C620 C 0.19591 0.37117 0.34654 0.0
C621 C 0.18345 0.39047 0.35178 0.0
C622 C 0.15574 0.39371 0.34416 0.0
C623 C 0.1404 0.37845 0.33183 0.0
C624 C 0.11154 0.38643 0.32462 0.0
C625 C 0.10945 0.38762 0.29665 0.0
C626 C 0.08657 0.37241 0.33702 0.0
C627 C 0.11309 0.40854 0.33479 0.0
C628 C 0.13865 0.41232 0.34621 0.0
C629 C 0.14489 0.43148 0.3573 0.0
C630 C 0.12448 0.44721 0.35672 0.0
C631 C 0.09828 0.44381 0.34489 0.0
C632 C 0.09262 0.42422 0.33374 0.0
H633 H 0.1838 0.65662 0.72735 0.0
H634 H 0.11514 0.69892 0.71156 0.0
H635 H 0.08128 0.66765 0.70895 0.0
H636 H 0.16222 0.61529 0.68744 0.0
H637 H 0.17164 0.59378 0.708 0.0
H638 H 0.19059 0.61949 0.70839 0.0
H639 H 0.17765 0.62113 0.75474 0.0
H640 H 0.15859 0.59544 0.75448 0.0
H641 H 0.14042 0.61813 0.76546 0.0
H642 H 0.05464 0.63181 0.70843 0.0
H643 H 0.03752 0.5937 0.70943 0.0
H644 H 0.12311 0.57474 0.72591 0.0
C645 C 0.16161 0.65933 0.72348 0.0
C646 C 0.1522 0.68028 0.71957 0.0
C647 C 0.12302 0.68306 0.71425 0.0
C648 C 0.10355 0.6654 0.7129 0.0
C649 C 0.11353 0.64501 0.71692 0.0
C650 C 0.14188 0.64188 0.72206 0.0
C651 C 0.14709 0.61828 0.72557 0.0
C652 C 0.16919 0.61131 0.70619 0.0
C653 C 0.15649 0.61294 0.75161 0.0
C654 C 0.11724 0.60865 0.72163 0.0
C655 C 0.09818 0.62436 0.71669 0.0
C656 C 0.06936 0.61939 0.71232 0.0
C657 C 0.05982 0.5978 0.71293 0.0
C658 C 0.07902 0.58154 0.71795 0.0
C659 C 0.10806 0.58701 0.7223 0.0
H660 H 0.86307 0.67924 0.34744 0.0
H661 H 0.81057 0.65889 0.28805 0.0
H662 H 0.83357 0.62449 0.2887 0.0
H663 H 0.92775 0.65622 0.32425 0.0
H664 H 0.93971 0.64869 0.35413 0.0
H665 H 0.91784 0.67141 0.35024 0.0
H666 H 0.88082 0.65473 0.3832 0.0
H667 H 0.90253 0.63192 0.38713 0.0
H668 H 0.8653 0.62819 0.37969 0.0
H669 H 0.86193 0.59213 0.29555 0.0
H670 H 0.89648 0.56494 0.3063 0.0
H671 H 0.93333 0.60687 0.35897 0.0
C672 C 0.85644 0.66768 0.33442 0.0
C673 C 0.83444 0.67189 0.318 0.0
C674 C 0.82657 0.65604 0.30142 0.0
C675 C 0.83973 0.63641 0.30145 0.0
C676 C 0.86112 0.63283 0.31791 0.0
C677 C 0.86971 0.64807 0.33391 0.0
C678 C 0.89415 0.64043 0.34899 0.0
C679 C 0.92148 0.65506 0.3441 0.0
C680 C 0.88515 0.63872 0.37638 0.0
C681 C 0.89791 0.61853 0.33891 0.0
C682 C 0.8784 0.61441 0.32119 0.0
C683 C 0.87735 0.59517 0.30938 0.0
C684 C 0.89693 0.57979 0.3157 0.0
C685 C 0.91751 0.58378 0.33348 0.0
C686 C 0.91792 0.60344 0.34522 0.0
H687 H 0.89283 0.35614 0.731 0.0
H688 H 0.80988 0.38382 0.72294 0.0
H689 H 0.83393 0.41981 0.71818 0.0
H690 H 0.92346 0.39708 0.7661 0.0
H691 H 0.95912 0.39659 0.75198 0.0
H692 H 0.93567 0.37281 0.75358 0.0
H693 H 0.94141 0.37022 0.70655 0.0
H694 H 0.96505 0.39392 0.70484 0.0
H695 H 0.93344 0.3928 0.68693 0.0
H696 H 0.86664 0.45293 0.71585 0.0
H697 H 0.90631 0.48088 0.71535 0.0
H698 H 0.96799 0.43195 0.72458 0.0
C699 C 0.87979 0.36975 0.72783 0.0
C700 C 0.84944 0.36716 0.72739 0.0
C701 C 0.83311 0.38543 0.72361 0.0
C702 C 0.84659 0.40593 0.72078 0.0
C703 C 0.87646 0.40796 0.72173 0.0
C704 C 0.89291 0.39038 0.72505 0.0
C705 C 0.9246 0.39708 0.72602 0.0
C706 C 0.93639 0.39049 0.7509 0.0
C707 C 0.94216 0.38796 0.70482 0.0
C708 C 0.92334 0.42114 0.72288 0.0
C709 C 0.89535 0.42708 0.72038 0.0
C710 C 0.88866 0.44847 0.71767 0.0
C711 C 0.91119 0.4642 0.71743 0.0
C712 C 0.93994 0.45842 0.7199 0.0
C713 C 0.94608 0.43665 0.72264 0.0
H714 H 0.22493 0.16874 0.40065 0.0
H715 H 0.27882 0.14934 0.33953 0.0
H716 H 0.28491 0.11485 0.36116 0.0
H717 H 0.26764 0.14483 0.44766 0.0
H718 H 0.23678 0.13696 0.46761 0.0
H719 H 0.23582 0.16012 0.44708 0.0
H720 H 0.18964 0.144 0.42869 0.0
H721 H 0.19053 0.12076 0.44909 0.0
H722 H 0.18995 0.11774 0.41655 0.0
H723 H 0.2838 0.08176 0.38849 0.0
H724 H 0.27798 0.05322 0.42128 0.0
H725 H 0.22879 0.09488 0.46621 0.0
C726 C 0.23826 0.15738 0.39184 0.0
C727 C 0.25091 0.16182 0.36805 0.0
C728 C 0.26806 0.14626 0.35734 0.0
C729 C 0.27193 0.12661 0.36959 0.0
C730 C 0.25893 0.12272 0.3928 0.0
C731 C 0.24272 0.13772 0.40398 0.0
C732 C 0.23159 0.12958 0.42929 0.0
C733 C 0.24369 0.14371 0.44908 0.0
C734 C 0.19846 0.12792 0.43099 0.0
C735 C 0.24396 0.10764 0.43046 0.0
C736 C 0.25947 0.10396 0.40911 0.0
C737 C 0.27201 0.08454 0.40542 0.0
C738 C 0.26866 0.06847 0.42408 0.0
C739 C 0.25329 0.07203 0.44624 0.0
C740 C 0.24086 0.09189 0.44946 0.0
H741 H 0.35616 0.75753 0.83349 0.0
H742 H 0.2996 0.80748 0.8538 0.0
H743 H 0.32579 0.81229 0.89156 0.0
H744 H 0.36371 0.73467 0.89491 0.0
H745 H 0.40119 0.72946 0.88975 0.0
H746 H 0.37746 0.7294 0.86461 0.0
H747 H 0.41141 0.75782 0.84082 0.0
H748 H 0.43518 0.75802 0.86592 0.0
H749 H 0.42072 0.78257 0.8548 0.0
H750 H 0.35794 0.81204 0.92667 0.0
H751 H 0.39494 0.80721 0.95703 0.0
H752 H 0.43157 0.75772 0.91418 0.0
C753 C 0.34918 0.76931 0.84604 0.0
C754 C 0.32589 0.78217 0.84076 0.0
C755 C 0.31756 0.79762 0.85742 0.0
C756 C 0.33221 0.8004 0.87894 0.0
C757 C 0.35524 0.78766 0.88351 0.0
C758 C 0.36378 0.77245 0.86757 0.0
C759 C 0.38977 0.7613 0.87666 0.0
C760 C 0.38259 0.73729 0.88179 0.0
C761 C 0.41581 0.76517 0.85847 0.0
C762 C 0.39447 0.77267 0.90014 0.0
C763 C 0.37417 0.78772 0.90376 0.0
C764 C 0.3739 0.80025 0.92411 0.0
C765 C 0.39492 0.79731 0.94131 0.0
C766 C 0.41603 0.78201 0.93805 0.0
C767 C 0.41581 0.76961 0.91709 0.0
H768 H 0.77809 0.8533 0.40509 0.0
H769 H 0.82614 0.88122 0.34094 0.0
H770 H 0.83493 0.9146 0.36237 0.0
H771 H 0.7434 0.90084 0.42089 0.0
H772 H 0.74515 0.89603 0.45346 0.0
H773 H 0.74364 0.87386 0.43365 0.0
H774 H 0.79058 0.86018 0.45112 0.0
H775 H 0.79212 0.88223 0.47112 0.0
H776 H 0.82235 0.87788 0.45056 0.0
H777 H 0.83814 0.94494 0.39026 0.0
H778 H 0.83539 0.97067 0.423 0.0
H779 H 0.7843 0.92379 0.46911 0.0
C780 C 0.79076 0.86638 0.39573 0.0
C781 C 0.80151 0.8647 0.37137 0.0
C782 C 0.81761 0.88224 0.35954 0.0
C783 C 0.82275 0.90122 0.37158 0.0
C784 C 0.81153 0.90249 0.39542 0.0
C785 C 0.79586 0.88559 0.40742 0.0
C786 C 0.78557 0.89146 0.43282 0.0
C787 C 0.75248 0.89049 0.43534 0.0
C788 C 0.79843 0.87708 0.45257 0.0
C789 C 0.79791 0.91429 0.43317 0.0
C790 C 0.81292 0.92025 0.41143 0.0
C791 C 0.82649 0.94045 0.40738 0.0
C792 C 0.82488 0.95493 0.42611 0.0
C793 C 0.80968 0.94923 0.44859 0.0
C794 C 0.79585 0.92866 0.45204 0.0
H795 H 0.69576 0.27001 0.87806 0.0
H796 H 0.63816 0.23721 0.83013 0.0
H797 H 0.60062 0.23354 0.86353 0.0
H798 H 0.67447 0.23863 0.93295 0.0
H799 H 0.67714 0.26092 0.95256 0.0
H800 H 0.69953 0.26092 0.9249 0.0
H801 H 0.68014 0.29721 0.91053 0.0
H802 H 0.6577 0.29733 0.93815 0.0
H803 H 0.64183 0.29972 0.90878 0.0
H804 H 0.56904 0.23394 0.90194 0.0
H805 H 0.54594 0.23818 0.94298 0.0
H806 H 0.62413 0.27026 0.96594 0.0
C807 C 0.67519 0.26217 0.87454 0.0
C808 C 0.66991 0.25386 0.85147 0.0
C809 C 0.64282 0.24347 0.84773 0.0
C810 C 0.62131 0.2414 0.86654 0.0
C811 C 0.62724 0.24976 0.88904 0.0
C812 C 0.65352 0.2599 0.89315 0.0
C813 C 0.65442 0.2674 0.91904 0.0
C814 C 0.67777 0.2563 0.9332 0.0
C815 C 0.65878 0.29187 0.91911 0.0
C816 C 0.6245 0.25996 0.92883 0.0
C817 C 0.60914 0.24985 0.91122 0.0
C818 C 0.58087 0.24181 0.91588 0.0
C819 C 0.56794 0.24425 0.93913 0.0
C820 C 0.5833 0.25464 0.9573 0.0
C821 C 0.61198 0.2624 0.95216 0.0
H822 H 0.23955 0.85878 0.62662 0.0
H823 H 0.21222 0.88769 0.69374 0.0
H824 H 0.20828 0.9222 0.67099 0.0
H825 H 0.28308 0.90345 0.60207 0.0
H826 H 0.27377 0.90006 0.57083 0.0
H827 H 0.27291 0.87725 0.59203 0.0
H828 H 0.21967 0.86822 0.58263 0.0
H829 H 0.22044 0.89097 0.56131 0.0
H830 H 0.19351 0.88829 0.58606 0.0
H831 H 0.20899 0.95386 0.64144 0.0
H832 H 0.21443 0.98062 0.60666 0.0
H833 H 0.2414 0.93149 0.55873 0.0
C834 C 0.23231 0.87231 0.63642 0.0
C835 C 0.22619 0.87058 0.66195 0.0
C836 C 0.21725 0.88873 0.67422 0.0
C837 C 0.21483 0.90836 0.66145 0.0
C838 C 0.22142 0.90962 0.63638 0.0
C839 C 0.22995 0.89211 0.62394 0.0
C840 C 0.23679 0.89804 0.59712 0.0
C841 C 0.26852 0.89449 0.59011 0.0
C842 C 0.21638 0.88564 0.58082 0.0
C843 C 0.23096 0.92162 0.59648 0.0
C844 C 0.22199 0.92795 0.61932 0.0
C845 C 0.21584 0.94907 0.62345 0.0
C846 C 0.21897 0.96413 0.60371 0.0
C847 C 0.22821 0.95795 0.58026 0.0
C848 C 0.23419 0.93646 0.57658 0.0
H849 H 0.68585 0.76095 0.18405 0.0
H850 H 0.64459 0.80788 0.22784 0.0
H851 H 0.6103 0.81394 0.19555 0.0
H852 H 0.67947 0.78777 0.12592 0.0
H853 H 0.67171 0.76377 0.10994 0.0
H854 H 0.69301 0.76275 0.13662 0.0
H855 H 0.65755 0.73343 0.15696 0.0
H856 H 0.6362 0.73429 0.13029 0.0
H857 H 0.61973 0.73833 0.16001 0.0
H858 H 0.58134 0.81578 0.1584 0.0
H859 H 0.55814 0.8123 0.11904 0.0
H860 H 0.61692 0.76354 0.09931 0.0
C861 C 0.66939 0.77231 0.18699 0.0
C862 C 0.66816 0.78409 0.20847 0.0
C863 C 0.64642 0.79897 0.2114 0.0
C864 C 0.62668 0.80243 0.19322 0.0
C865 C 0.62874 0.79079 0.17221 0.0
C866 C 0.64937 0.77592 0.16902 0.0
C867 C 0.64683 0.76565 0.14458 0.0
C868 C 0.6744 0.77027 0.12831 0.0
C869 C 0.63965 0.74149 0.14818 0.0
C870 C 0.62167 0.77718 0.1345 0.0
C871 C 0.61165 0.79165 0.15077 0.0
C872 C 0.58895 0.8045 0.14551 0.0
C873 C 0.57606 0.80252 0.12302 0.0
C874 C 0.58582 0.78776 0.10603 0.0
C875 C 0.60888 0.77487 0.11198 0.0
H876 H 0.78468 0.18164 0.65232 0.0
H877 H 0.82668 0.15668 0.71591 0.0
H878 H 0.83429 0.12301 0.69533 0.0
H879 H 0.74723 0.13258 0.63922 0.0
H880 H 0.7513 0.13665 0.60645 0.0
H881 H 0.75035 0.15931 0.62553 0.0
H882 H 0.79952 0.17402 0.60613 0.0
H883 H 0.80052 0.15148 0.58687 0.0
H884 H 0.82993 0.15727 0.60631 0.0
H885 H 0.83681 0.09201 0.66839 0.0
H886 H 0.83379 0.06528 0.63672 0.0
H887 H 0.78916 0.10964 0.59061 0.0
C888 C 0.79581 0.16917 0.66171 0.0
C889 C 0.80518 0.17174 0.68568 0.0
C890 C 0.81923 0.15496 0.6976 0.0
C891 C 0.82371 0.13582 0.68604 0.0
C892 C 0.81386 0.13364 0.66259 0.0
C893 C 0.80019 0.1498 0.65051 0.0
C894 C 0.79094 0.14298 0.62566 0.0
C895 C 0.758 0.14287 0.62414 0.0
C896 C 0.80614 0.15729 0.60502 0.0
C897 C 0.80152 0.12047 0.62571 0.0
C898 C 0.81481 0.11549 0.64716 0.0
C899 C 0.82652 0.09573 0.65149 0.0
C900 C 0.82478 0.08068 0.63337 0.0
C901 C 0.8113 0.08537 0.61119 0.0
C902 C 0.79937 0.10553 0.60746 0.0
H903 H 0.37315 0.25564 0.20248 0.0
H904 H 0.29938 0.27698 0.16403 0.0
H905 H 0.32832 0.2784 0.12501 0.0
H906 H 0.42652 0.2886 0.16724 0.0
H907 H 0.45322 0.26871 0.16766 0.0
H908 H 0.42658 0.26914 0.19246 0.0
H909 H 0.41109 0.22964 0.18571 0.0
H910 H 0.43766 0.22911 0.16086 0.0
H911 H 0.40039 0.22212 0.1559 0.0
H912 H 0.36522 0.27711 0.0901 0.0
H913 H 0.40808 0.27427 0.06209 0.0
H914 H 0.45777 0.25441 0.12339 0.0
C915 C 0.36303 0.26047 0.18582 0.0
C916 C 0.334 0.26617 0.18626 0.0
C917 C 0.32167 0.27272 0.16413 0.0
C918 C 0.33788 0.27347 0.14188 0.0
C919 C 0.36643 0.26772 0.14209 0.0
C920 C 0.37895 0.26144 0.16349 0.0
C921 C 0.41019 0.25646 0.1588 0.0
C922 C 0.43031 0.27164 0.17234 0.0
C923 C 0.41511 0.23293 0.16573 0.0
C924 C 0.41326 0.26084 0.13139 0.0
C925 C 0.38775 0.26724 0.12207 0.0
C926 C 0.3853 0.27213 0.09719 0.0
C927 C 0.40962 0.27047 0.08145 0.0
C928 C 0.4359 0.26406 0.09072 0.0
C929 C 0.43774 0.25922 0.11597 0.0
H930 H 0.85826 0.67186 0.71626 0.0
H931 H 0.88932 0.69381 0.78487 0.0
H932 H 0.92169 0.66385 0.78702 0.0
H933 H 0.85741 0.61608 0.73288 0.0
H934 H 0.86912 0.60808 0.70299 0.0
H935 H 0.84937 0.6319 0.70598 0.0
H936 H 0.89057 0.65408 0.68191 0.0
H937 H 0.91044 0.63031 0.67881 0.0
H938 H 0.92679 0.65338 0.69228 0.0
H939 H 0.94995 0.63159 0.78234 0.0
H940 H 0.97197 0.59817 0.77168 0.0
H941 H 0.92181 0.59576 0.70667 0.0
C942 C 0.87215 0.67044 0.73156 0.0
C943 C 0.8713 0.68513 0.75044 0.0
C944 C 0.88947 0.68263 0.77034 0.0
C945 C 0.90802 0.66573 0.77166 0.0
C946 C 0.90813 0.6514 0.75296 0.0
C947 C 0.89069 0.65349 0.73328 0.0
C948 C 0.89436 0.6353 0.71618 0.0
C949 C 0.86587 0.62206 0.71442 0.0
C950 C 0.90625 0.64378 0.69079 0.0
C951 C 0.91643 0.62265 0.72942 0.0
C952 C 0.92415 0.63236 0.7505 0.0
C953 C 0.944 0.62376 0.76594 0.0
C954 C 0.9562 0.60463 0.75981 0.0
C955 C 0.94839 0.59409 0.7385 0.0
C956 C 0.92837 0.60342 0.72302 0.0
H957 H 0.91271 0.34924 0.32064 0.0
H958 H 0.83541 0.35763 0.36552 0.0
H959 H 0.85431 0.39362 0.37555 0.0
H960 H 0.96226 0.37642 0.36104 0.0
H961 H 0.98499 0.38817 0.33604 0.0
H962 H 0.96564 0.36294 0.33273 0.0
H963 H 0.9423 0.37852 0.29417 0.0
H964 H 0.9615 0.4038 0.29743 0.0
H965 H 0.92281 0.40259 0.29618 0.0
H966 H 0.87903 0.42987 0.37686 0.0
H967 H 0.9108 0.46269 0.37372 0.0
H968 H 0.97471 0.42973 0.33193 0.0
C969 C 0.89999 0.35865 0.33275 0.0
C970 C 0.87264 0.3508 0.34237 0.0
C971 C 0.85649 0.3634 0.35817 0.0
C972 C 0.867 0.38384 0.36386 0.0
C973 C 0.89392 0.39124 0.35395 0.0
C974 C 0.91046 0.37892 0.33907 0.0
C975 C 0.93881 0.39067 0.33105 0.0
C976 C 0.96444 0.37885 0.34081 0.0
C977 C 0.94149 0.39409 0.30304 0.0
C978 C 0.93537 0.41163 0.34338 0.0
C979 C 0.90916 0.41168 0.35626 0.0
C980 C 0.9 0.42981 0.36752 0.0
C981 C 0.91826 0.44831 0.36581 0.0
C982 C 0.94573 0.44836 0.35364 0.0
C983 C 0.95423 0.42981 0.34211 0.0
H984 H 0.16436 0.35259 0.74715 0.0
H985 H 0.2074 0.35506 0.67516 0.0
H986 H 0.1822 0.38764 0.66395 0.0
H987 H 0.09618 0.36989 0.72749 0.0
H988 H 0.08947 0.38534 0.75395 0.0
H989 H 0.11104 0.36232 0.75627 0.0
H990 H 0.15279 0.38574 0.77265 0.0
H991 H 0.13134 0.40883 0.77036 0.0
H992 H 0.16646 0.40931 0.75505 0.0
H993 H 0.15278 0.42038 0.66091 0.0
H994 H 0.12081 0.45031 0.66596 0.0
H995 H 0.09595 0.42567 0.73957 0.0
C996 C 0.16865 0.36008 0.72909 0.0
C997 C 0.18788 0.3513 0.71203 0.0
C998 C 0.19256 0.3614 0.68844 0.0
C999 C 0.17845 0.37996 0.68195 0.0
C1000 C 0.15962 0.38818 0.69921 0.0
C1001 C 0.15462 0.37852 0.72227 0.0
C1002 C 0.13307 0.3904 0.73731 0.0
C1003 C 0.10583 0.37614 0.74415 0.0
C1004 C 0.14674 0.39909 0.76019 0.0
C1005 C 0.12686 0.40833 0.71918 0.0
C1006 C 0.1424 0.40679 0.69733 0.0
C1007 C 0.14037 0.42167 0.6779 0.0
C1008 C 0.12198 0.43855 0.6809 0.0
C1009 C 0.10572 0.44042 0.70314 0.0
C1010 C 0.1083 0.42497 0.72244 0.0
H1011 H 0.15406 0.66217 0.34205 0.0
H1012 H 0.22134 0.6382 0.29448 0.0
H1013 H 0.19618 0.6028 0.29703 0.0
H1014 H 0.13714 0.61457 0.37957 0.0
H1015 H 0.09885 0.61786 0.38035 0.0
H1016 H 0.12352 0.64096 0.37697 0.0
H1017 H 0.09959 0.65314 0.33717 0.0
H1018 H 0.0747 0.6302 0.34056 0.0
H1019 H 0.09656 0.63496 0.3127 0.0
H1020 H 0.16321 0.56956 0.30453 0.0
H1021 H 0.12285 0.54257 0.3134 0.0
H1022 H 0.07465 0.58979 0.35078 0.0
C1023 C 0.16362 0.64969 0.3319 0.0
C1024 C 0.19021 0.65331 0.31836 0.0
C1025 C 0.20165 0.63604 0.30574 0.0
C1026 C 0.18733 0.61577 0.30685 0.0
C1027 C 0.16123 0.61294 0.32025 0.0
C1028 C 0.14927 0.62953 0.33223 0.0
C1029 C 0.11994 0.62276 0.34389 0.0
C1030 C 0.11988 0.62412 0.37185 0.0
C1031 C 0.09631 0.63605 0.33292 0.0
C1032 C 0.11728 0.59978 0.33656 0.0
C1033 C 0.14152 0.59426 0.32331 0.0
C1034 C 0.14412 0.57373 0.31487 0.0
C1035 C 0.12122 0.55852 0.32001 0.0
C1036 C 0.09601 0.56404 0.33311 0.0
C1037 C 0.09401 0.58501 0.34124 0.0
H1038 H 0.79354 0.88552 0.68331 0.0
H1039 H 0.80623 0.83665 0.63065 0.0
H1040 H 0.81159 0.8645 0.59737 0.0
H1041 H 0.75109 0.91884 0.64505 0.0
H1042 H 0.76641 0.94351 0.65571 0.0
H1043 H 0.76413 0.91974 0.67553 0.0
H1044 H 0.8191 0.92366 0.68136 0.0
H1045 H 0.82155 0.94741 0.66151 0.0
H1046 H 0.84363 0.92536 0.65487 0.0
H1047 H 0.81546 0.89767 0.56962 0.0
H1048 H 0.81664 0.93395 0.54951 0.0
H1049 H 0.80038 0.96112 0.61982 0.0
C1050 C 0.79721 0.88062 0.66478 0.0
C1051 C 0.79963 0.85881 0.65972 0.0
C1052 C 0.80481 0.85322 0.63515 0.0
C1053 C 0.8077 0.86893 0.61606 0.0
C1054 C 0.80529 0.89022 0.62173 0.0
C1055 C 0.80007 0.8961 0.64547 0.0
C1056 C 0.79818 0.92012 0.64657 0.0
C1057 C 0.76817 0.92588 0.65629 0.0
C1058 C 0.82204 0.92969 0.66199 0.0
C1059 C 0.80314 0.92682 0.61975 0.0
C1060 C 0.80724 0.90932 0.60572 0.0
C1061 C 0.81223 0.91147 0.58042 0.0
C1062 C 0.8129 0.93204 0.56916 0.0
C1063 C 0.80851 0.95007 0.5832 0.0
C1064 C 0.80371 0.94745 0.60879 0.0
H1065 H 0.70377 0.24018 0.19352 0.0
H1066 H 0.68836 0.30103 0.22532 0.0
H1067 H 0.65269 0.30837 0.19442 0.0
H1068 H 0.69826 0.25827 0.13087 0.0
H1069 H 0.68022 0.23395 0.12186 0.0
H1070 H 0.70433 0.2332 0.14671 0.0
H1071 H 0.66368 0.21491 0.17525 0.0
H1072 H 0.63946 0.21558 0.15047 0.0
H1073 H 0.62979 0.22744 0.17887 0.0
H1074 H 0.61881 0.30929 0.16027 0.0
H1075 H 0.58871 0.3037 0.12496 0.0
H1076 H 0.62638 0.24253 0.11451 0.0
C1077 C 0.69271 0.25496 0.19408 0.0
C1078 C 0.699 0.27009 0.21178 0.0
C1079 C 0.68424 0.28934 0.21174 0.0
C1080 C 0.66382 0.29362 0.19434 0.0
C1081 C 0.65832 0.27849 0.17705 0.0
C1082 C 0.67228 0.25955 0.17674 0.0
C1083 C 0.66253 0.24616 0.15591 0.0
C1084 C 0.68784 0.2427 0.13776 0.0
C1085 C 0.648 0.22476 0.16572 0.0
C1086 C 0.64092 0.26056 0.14462 0.0
C1087 C 0.63883 0.2791 0.15714 0.0
C1088 C 0.62034 0.29487 0.15024 0.0
C1089 C 0.60348 0.2916 0.13 0.0
C1090 C 0.60523 0.27274 0.11674 0.0
C1091 C 0.62428 0.25705 0.1243 0.0
H1092 H 0.23853 0.17788 0.63905 0.0
H1093 H 0.24608 0.14129 0.70744 0.0
H1094 H 0.24152 0.10787 0.68562 0.0
H1095 H 0.18526 0.14078 0.61353 0.0
H1096 H 0.20058 0.14481 0.58279 0.0
H1097 H 0.20329 0.16603 0.60387 0.0
H1098 H 0.25878 0.16837 0.59663 0.0
H1099 H 0.25625 0.14717 0.57559 0.0
H1100 H 0.27872 0.14472 0.60146 0.0
H1101 H 0.23959 0.07855 0.65638 0.0
H1102 H 0.23882 0.05501 0.62127 0.0
H1103 H 0.22992 0.10996 0.57195 0.0
C1104 C 0.23874 0.16284 0.64952 0.0
C1105 C 0.24293 0.16229 0.67499 0.0
C1106 C 0.24348 0.14222 0.68788 0.0
C1107 C 0.24065 0.1231 0.67568 0.0
C1108 C 0.23697 0.12423 0.65059 0.0
C1109 C 0.23577 0.14354 0.63763 0.0
C1110 C 0.23238 0.14019 0.61061 0.0
C1111 C 0.20367 0.14844 0.60221 0.0
C1112 C 0.25806 0.15074 0.59517 0.0
C1113 C 0.23235 0.11601 0.61039 0.0
C1114 C 0.23499 0.10716 0.6337 0.0
C1115 C 0.23709 0.08525 0.6381 0.0
C1116 C 0.23666 0.07203 0.61813 0.0
C1117 C 0.23391 0.08074 0.59416 0.0
C1118 C 0.23146 0.10296 0.59024 0.0
H1119 H 0.38896 0.76192 0.20327 0.0
H1120 H 0.31246 0.78882 0.17467 0.0
H1121 H 0.33703 0.79383 0.13377 0.0
H1122 H 0.43992 0.79806 0.16841 0.0
H1123 H 0.46597 0.77814 0.16357 0.0
H1124 H 0.4422 0.77611 0.1905 0.0
H1125 H 0.42469 0.738 0.17947 0.0
H1126 H 0.44838 0.73994 0.15248 0.0
H1127 H 0.41038 0.73392 0.14986 0.0
H1128 H 0.36868 0.79426 0.09584 0.0
H1129 H 0.4074 0.79335 0.06361 0.0
H1130 H 0.46502 0.7688 0.11696 0.0
C1131 C 0.37748 0.76883 0.18833 0.0
C1132 C 0.34884 0.77498 0.19198 0.0
C1133 C 0.33447 0.78415 0.17217 0.0
C1134 C 0.34818 0.78695 0.14891 0.0
C1135 C 0.3764 0.78074 0.14585 0.0
C1136 C 0.39107 0.7721 0.16503 0.0
C1137 C 0.42161 0.76742 0.15685 0.0
C1138 C 0.44373 0.78073 0.17065 0.0
C1139 C 0.42654 0.74339 0.15984 0.0
C1140 C 0.42173 0.77469 0.13008 0.0
C1141 C 0.39528 0.78207 0.12412 0.0
C1142 C 0.38963 0.78888 0.10035 0.0
C1143 C 0.41171 0.78839 0.08223 0.0
C1144 C 0.43928 0.78164 0.08808 0.0
C1145 C 0.44425 0.77447 0.11224 0.0
H1146 H 0.79326 0.1695 0.41379 0.0
H1147 H 0.80894 0.13842 0.34556 0.0
H1148 H 0.81308 0.10401 0.36854 0.0
H1149 H 0.84287 0.14021 0.44907 0.0
H1150 H 0.82012 0.13867 0.47663 0.0
H1151 H 0.81806 0.16081 0.45482 0.0
H1152 H 0.76324 0.15233 0.45199 0.0
H1153 H 0.76515 0.13018 0.47382 0.0
H1154 H 0.7506 0.12592 0.44435 0.0
H1155 H 0.81651 0.07304 0.39904 0.0
H1156 H 0.81738 0.04763 0.43501 0.0
H1157 H 0.79928 0.09872 0.48318 0.0
C1158 C 0.79771 0.15548 0.40368 0.0
C1159 C 0.80074 0.15667 0.37784 0.0
C1160 C 0.80618 0.13787 0.36531 0.0
C1161 C 0.80874 0.11827 0.37822 0.0
C1162 C 0.80571 0.11768 0.40366 0.0
C1163 C 0.80019 0.13577 0.41627 0.0
C1164 C 0.79765 0.13077 0.44363 0.0
C1165 C 0.82108 0.14336 0.45681 0.0
C1166 C 0.76736 0.13505 0.45405 0.0
C1167 C 0.80276 0.10708 0.44445 0.0
C1168 C 0.80743 0.09984 0.42119 0.0
C1169 C 0.81282 0.07852 0.41731 0.0
C1170 C 0.81331 0.06425 0.43773 0.0
C1171 C 0.80837 0.07138 0.46158 0.0
C1172 C 0.80309 0.09302 0.465 0.0
H1173 H 0.36692 0.27548 0.84725 0.0
H1174 H 0.31059 0.21988 0.86811 0.0
H1175 H 0.3361 0.21501 0.90639 0.0
H1176 H 0.43107 0.25449 0.86981 0.0
H1177 H 0.44505 0.27955 0.88051 0.0
H1178 H 0.42159 0.27934 0.85521 0.0
H1179 H 0.38707 0.30362 0.87818 0.0
H1180 H 0.41046 0.30393 0.90355 0.0
H1181 H 0.37301 0.29542 0.9085 0.0
H1182 H 0.36809 0.21562 0.94186 0.0
H1183 H 0.40498 0.22138 0.97219 0.0
H1184 H 0.44152 0.27618 0.9282 0.0
C1185 C 0.35975 0.26245 0.86004 0.0
C1186 C 0.33678 0.24803 0.85469 0.0
C1187 C 0.32832 0.23099 0.87172 0.0
C1188 C 0.34256 0.22816 0.89356 0.0
C1189 C 0.36529 0.24249 0.89816 0.0
C1190 C 0.37389 0.25931 0.88192 0.0
C1191 C 0.3996 0.27197 0.89099 0.0
C1192 C 0.42588 0.27128 0.87306 0.0
C1193 C 0.39207 0.29511 0.89558 0.0
C1194 C 0.40417 0.25957 0.91479 0.0
C1195 C 0.38404 0.2427 0.91858 0.0
C1196 C 0.38401 0.22877 0.93908 0.0
C1197 C 0.40521 0.23209 0.95612 0.0
C1198 C 0.42633 0.24916 0.95258 0.0
C1199 C 0.42556 0.26313 0.93163 0.0
H1200 H 0.22579 0.86454 0.36259 0.0
H1201 H 0.26835 0.82171 0.41205 0.0
H1202 H 0.272 0.85006 0.44182 0.0
H1203 H 0.26682 0.91221 0.37464 0.0
H1204 H 0.23685 0.92934 0.37338 0.0
H1205 H 0.23687 0.90556 0.35608 0.0
H1206 H 0.18784 0.89248 0.37711 0.0
H1207 H 0.18762 0.91626 0.39442 0.0
H1208 H 0.1842 0.8903 0.41003 0.0
H1209 H 0.27391 0.88346 0.46498 0.0
H1210 H 0.27071 0.91931 0.48165 0.0
H1211 H 0.22476 0.94036 0.41849 0.0
C1212 C 0.23576 0.86116 0.37975 0.0
C1213 C 0.24674 0.84091 0.38508 0.0
C1214 C 0.25951 0.83701 0.40774 0.0
C1215 C 0.26181 0.85305 0.42469 0.0
C1216 C 0.25096 0.87285 0.41885 0.0
C1217 C 0.23788 0.87693 0.39707 0.0
C1218 C 0.22787 0.89961 0.39546 0.0
C1219 C 0.24301 0.91243 0.3736 0.0
C1220 C 0.19493 0.89965 0.39419 0.0
C1221 C 0.23776 0.90771 0.41957 0.0
C1222 C 0.25118 0.892 0.43267 0.0
C1223 C 0.26321 0.89582 0.45501 0.0
C1224 C 0.26141 0.91621 0.46428 0.0
C1225 C 0.24744 0.93247 0.45136 0.0
C1226 C 0.2353 0.9281 0.42879 0.0
H1227 H 0.65781 0.76638 0.85205 0.0
H1228 H 0.72829 0.80454 0.87989 0.0
H1229 H 0.70094 0.8064 0.9195 0.0
H1230 H 0.60134 0.79529 0.88041 0.0
H1231 H 0.57762 0.77188 0.88644 0.0
H1232 H 0.60331 0.77298 0.86083 0.0
H1233 H 0.62406 0.73779 0.87725 0.0
H1234 H 0.59861 0.73672 0.90307 0.0
H1235 H 0.63665 0.73616 0.90792 0.0
H1236 H 0.66595 0.8035 0.95635 0.0
H1237 H 0.62419 0.79888 0.98619 0.0
H1238 H 0.57571 0.76462 0.9332 0.0
C1239 C 0.66746 0.77505 0.86656 0.0
C1240 C 0.69516 0.78524 0.86307 0.0
C1241 C 0.70702 0.79671 0.88226 0.0
C1242 C 0.69173 0.79773 0.90482 0.0
C1243 C 0.66449 0.78739 0.90775 0.0
C1244 C 0.6523 0.77652 0.88902 0.0
C1245 C 0.62217 0.76766 0.89643 0.0
C1246 C 0.5998 0.77755 0.88006 0.0
C1247 C 0.62028 0.74313 0.89615 0.0
C1248 C 0.61932 0.77518 0.92228 0.0
C1249 C 0.64409 0.78631 0.9286 0.0
C1250 C 0.64649 0.79478 0.95161 0.0
C1251 C 0.62282 0.79202 0.96844 0.0
C1252 C 0.59714 0.78103 0.9621 0.0
C1253 C 0.59541 0.77259 0.9387 0.0
loop_
_geom_bond_atom_site_label_1
_geom_bond_atom_site_label_2
_geom_bond_distance
_geom_bond_site_symmetry_2
_ccdc_geom_bond_type
C0 C1 1.384 . S
C0 H13 0.947 . S
C0 C35 1.382 . S
C1 C0 1.384 . S
C1 C2 1.378 . S
C2 C1 1.378 . S
C2 C3 1.378 . S
C2 H14 0.952 . S
C3 C2 1.378 . S
C3 H15 0.950 . S
C3 C34 1.383 . S
H4 C23 0.947 . S
H5 C24 0.946 . S
H6 C26 0.953 . S
H7 C27 0.945 . S
H8 C29 0.952 . S
H9 C30 0.949 . S
H10 C32 0.950 . S
H11 C33 0.948 . S
H12 C35 0.951 . S
H13 C0 0.947 . S
H14 C2 0.952 . S
H15 C3 0.950 . S
N16 C19 1.382 . S
N16 C21 1.363 . S
N17 C19 1.371 . S
N17 C20 1.372 . S
N18 C20 1.361 . S
N18 C21 1.377 . S
C19 N16 1.382 . S
C19 N17 1.371 . S
C19 C22 1.480 . S
C20 N17 1.372 . S
C20 N18 1.361 . S
C20 C28 1.457 . S
C21 N16 1.363 . S
C21 N18 1.377 . S
C21 C34 1.479 . S
C22 C19 1.480 . S
C22 C23 1.383 . S
C22 C27 1.385 . S
C23 H4 0.947 . S
C23 C22 1.383 . S
C23 C24 1.388 . S
C24 H5 0.946 . S
C24 C23 1.388 . S
C24 C25 1.384 . S
C25 C24 1.384 . S
C25 C26 1.377 . S
C26 H6 0.953 . S
C26 C25 1.377 . S
C26 C27 1.369 . S
C27 H7 0.945 . S
C27 C22 1.385 . S
C27 C26 1.369 . S
C28 C20 1.457 . S
C28 C29 1.372 . S
C28 C33 1.364 . S
C29 H8 0.952 . S
C29 C28 1.372 . S
C29 C30 1.389 . S
C30 H9 0.949 . S
C30 C29 1.389 . S
C30 C31 1.387 . S
C31 C30 1.387 . S
C31 C32 1.372 . S
C32 H10 0.950 . S
C32 C31 1.372 . S
C32 C33 1.379 . S
C33 H11 0.948 . S
C33 C28 1.364 . S
C33 C32 1.379 . S
C34 C3 1.383 . S
C34 C21 1.479 . S
C34 C35 1.398 . S
C35 C0 1.382 . S
C35 H12 0.951 . S
C35 C34 1.398 . S
C36 C37 1.384 . S
C36 H49 0.947 . S
C36 C71 1.382 . S
C37 C36 1.384 . S
C37 C38 1.378 . S
C38 C37 1.378 . S
C38 C39 1.378 . S
C38 H50 0.952 . S
C39 C38 1.378 . S
C39 H51 0.950 . S
C39 C70 1.383 . S
H40 C59 0.947 . S
H41 C60 0.946 . S
H42 C62 0.953 . S
H43 C63 0.945 . S
H44 C65 0.952 . S
H45 C66 0.949 . S
H46 C68 0.950 . S
H47 C69 0.948 . S
H48 C71 0.951 . S
H49 C36 0.947 . S
H50 C38 0.952 . S
H51 C39 0.950 . S
N52 C55 1.382 . S
N52 C57 1.363 . S
N53 C55 1.371 . S
N53 C56 1.372 . S
N54 C56 1.361 . S
N54 C57 1.377 . S
C55 N52 1.382 . S
C55 N53 1.371 . S
C55 C58 1.480 . S
C56 N53 1.372 . S
C56 N54 1.361 . S
C56 C64 1.457 . S
C57 N52 1.363 . S
C57 N54 1.377 . S
C57 C70 1.479 . S
C58 C55 1.480 . S
C58 C59 1.383 . S
C58 C63 1.385 . S
C59 H40 0.947 . S
C59 C58 1.383 . S
C59 C60 1.388 . S
C60 H41 0.946 . S
C60 C59 1.388 . S
C60 C61 1.384 . S
C61 C60 1.384 . S
C61 C62 1.377 . S
C62 H42 0.953 . S
C62 C61 1.377 . S
C62 C63 1.369 . S
C63 H43 0.945 . S
C63 C58 1.385 . S
C63 C62 1.369 . S
C64 C56 1.457 . S
C64 C65 1.372 . S
C64 C69 1.364 . S
C65 H44 0.952 . S
C65 C64 1.372 . S
C65 C66 1.389 . S
C66 H45 0.949 . S
C66 C65 1.389 . S
C66 C67 1.387 . S
C67 C66 1.387 . S
C67 C68 1.372 . S
C68 H46 0.950 . S
C68 C67 1.372 . S
C68 C69 1.379 . S
C69 H47 0.948 . S
C69 C64 1.364 . S
C69 C68 1.379 . S
C70 C39 1.383 . S
C70 C57 1.479 . S
C70 C71 1.398 . S
C71 C36 1.382 . S
C71 H48 0.951 . S
C71 C70 1.398 . S
C72 C73 1.384 . S
C72 H85 0.947 . S
C72 C107 1.382 . S
C73 C72 1.384 . S
C73 C74 1.378 . S
C74 C73 1.378 . S
C74 C75 1.378 . S
C74 H86 0.952 . S
C75 C74 1.378 . S
C75 H87 0.950 . S
C75 C106 1.383 . S
H76 C95 0.947 . S
H77 C96 0.946 . S
H78 C98 0.953 . S
H79 C99 0.945 . S
H80 C101 0.952 . S
H81 C102 0.949 . S
H82 C104 0.950 . S
H83 C105 0.948 . S
H84 C107 0.951 . S
H85 C72 0.947 . S
H86 C74 0.952 . S
H87 C75 0.950 . S
N88 C91 1.382 . S
N88 C93 1.363 . S
N89 C91 1.371 . S
N89 C92 1.372 . S
N90 C92 1.361 . S
N90 C93 1.377 . S
C91 N88 1.382 . S
C91 N89 1.371 . S
C91 C94 1.480 . S
C92 N89 1.372 . S
C92 N90 1.361 . S
C92 C100 1.457 . S
C93 N88 1.363 . S
C93 N90 1.377 . S
C93 C106 1.479 . S
C94 C91 1.480 . S
C94 C95 1.383 . S
C94 C99 1.385 . S
C95 H76 0.947 . S
C95 C94 1.383 . S
C95 C96 1.388 . S
C96 H77 0.946 . S
C96 C95 1.388 . S
C96 C97 1.384 . S
C97 C96 1.384 . S
C97 C98 1.377 . S
C98 H78 0.953 . S
C98 C97 1.377 . S
C98 C99 1.369 . S
C99 H79 0.945 . S
C99 C94 1.385 . S
C99 C98 1.369 . S
C100 C92 1.457 . S
C100 C101 1.372 . S
C100 C105 1.364 . S
C101 H80 0.952 . S
C101 C100 1.372 . S
C101 C102 1.389 . S
C102 H81 0.949 . S
C102 C101 1.389 . S
C102 C103 1.387 . S
C103 C102 1.387 . S
C103 C104 1.372 . S
C104 H82 0.950 . S
C104 C103 1.372 . S
C104 C105 1.379 . S
C105 H83 0.948 . S
C105 C100 1.364 . S
C105 C104 1.379 . S
C106 C75 1.383 . S
C106 C93 1.479 . S
C106 C107 1.398 . S
C107 C72 1.382 . S
C107 H84 0.951 . S
C107 C106 1.398 . S
C108 C109 1.384 . S
C108 H121 0.947 . S
C108 C143 1.382 . S
C109 C108 1.384 . S
C109 C110 1.378 . S
C110 C109 1.378 . S
C110 C111 1.378 . S
C110 H122 0.952 . S
C111 C110 1.378 . S
C111 H123 0.950 . S
C111 C142 1.383 . S
H112 C131 0.947 . S
H113 C132 0.946 . S
H114 C134 0.953 . S
H115 C135 0.945 . S
H116 C137 0.952 . S
H117 C138 0.949 . S
H118 C140 0.950 . S
H119 C141 0.948 . S
H120 C143 0.951 . S
H121 C108 0.947 . S
H122 C110 0.952 . S
H123 C111 0.950 . S
N124 C127 1.382 . S
N124 C129 1.363 . S
N125 C127 1.371 . S
N125 C128 1.372 . S
N126 C128 1.361 . S
N126 C129 1.377 . S
C127 N124 1.382 . S
C127 N125 1.371 . S
C127 C130 1.480 . S
C128 N125 1.372 . S
C128 N126 1.361 . S
C128 C136 1.457 . S
C129 N124 1.363 . S
C129 N126 1.377 . S
C129 C142 1.479 . S
C130 C127 1.480 . S
C130 C131 1.383 . S
C130 C135 1.385 . S
C131 H112 0.947 . S
C131 C130 1.383 . S
C131 C132 1.388 . S
C132 H113 0.946 . S
C132 C131 1.388 . S
C132 C133 1.384 . S
C133 C132 1.384 . S
C133 C134 1.377 . S
C134 H114 0.953 . S
C134 C133 1.377 . S
C134 C135 1.369 . S
C135 H115 0.945 . S
C135 C130 1.385 . S
C135 C134 1.369 . S
C136 C128 1.457 . S
C136 C137 1.372 . S
C136 C141 1.364 . S
C137 H116 0.952 . S
C137 C136 1.372 . S
C137 C138 1.389 . S
C138 H117 0.949 . S
C138 C137 1.389 . S
C138 C139 1.387 . S
C139 C138 1.387 . S
C139 C140 1.372 . S
C140 H118 0.950 . S
C140 C139 1.372 . S
C140 C141 1.379 . S
C141 H119 0.948 . S
C141 C136 1.364 . S
C141 C140 1.379 . S
C142 C111 1.383 . S
C142 C129 1.479 . S
C142 C143 1.398 . S
C143 C108 1.382 . S
C143 H120 0.951 . S
C143 C142 1.398 . S
C144 C145 1.384 . S
C144 H157 0.947 . S
C144 C179 1.382 . S
C145 C144 1.384 . S
C145 C146 1.378 . S
C146 C145 1.378 . S
C146 C147 1.378 . S
C146 H158 0.952 . S
C147 C146 1.378 . S
C147 H159 0.950 . S
C147 C178 1.383 . S
H148 C167 0.947 . S
H149 C168 0.946 . S
H150 C170 0.953 . S
H151 C171 0.945 . S
H152 C173 0.952 . S
H153 C174 0.949 . S
H154 C176 0.950 . S
H155 C177 0.948 . S
H156 C179 0.951 . S
H157 C144 0.947 . S
H158 C146 0.952 . S
H159 C147 0.950 . S
N160 C163 1.382 . S
N160 C165 1.363 . S
N161 C163 1.371 . S
N161 C164 1.372 . S
N162 C164 1.361 . S
N162 C165 1.377 . S
C163 N160 1.382 . S
C163 N161 1.371 . S
C163 C166 1.480 . S
C164 N161 1.372 . S
C164 N162 1.361 . S
C164 C172 1.457 . S
C165 N160 1.363 . S
C165 N162 1.377 . S
C165 C178 1.479 . S
C166 C163 1.480 . S
C166 C167 1.383 . S
C166 C171 1.385 . S
C167 H148 0.947 . S
C167 C166 1.383 . S
C167 C168 1.388 . S
C168 H149 0.946 . S
C168 C167 1.388 . S
C168 C169 1.384 . S
C169 C168 1.384 . S
C169 C170 1.377 . S
C170 H150 0.953 . S
C170 C169 1.377 . S
C170 C171 1.369 . S
C171 H151 0.945 . S
C171 C166 1.385 . S
C171 C170 1.369 . S
C172 C164 1.457 . S
C172 C173 1.372 . S
C172 C177 1.364 . S
C173 H152 0.952 . S
C173 C172 1.372 . S
C173 C174 1.389 . S
C174 H153 0.949 . S
C174 C173 1.389 . S
C174 C175 1.387 . S
C175 C174 1.387 . S
C175 C176 1.372 . S
C176 H154 0.950 . S
C176 C175 1.372 . S
C176 C177 1.379 . S
C177 H155 0.948 . S
C177 C172 1.364 . S
C177 C176 1.379 . S
C178 C147 1.383 . S
C178 C165 1.479 . S
C178 C179 1.398 . S
C179 C144 1.382 . S
C179 H156 0.951 . S
C179 C178 1.398 . S
C180 C181 1.384 . S
C180 H193 0.947 . S
C180 C215 1.382 . S
C181 C180 1.384 . S
C181 C182 1.378 . S
C182 C181 1.378 . S
C182 C183 1.378 . S
C182 H194 0.952 . S
C183 C182 1.378 . S
C183 H195 0.950 . S
C183 C214 1.383 . S
H184 C203 0.947 . S
H185 C204 0.946 . S
H186 C206 0.953 . S
H187 C207 0.945 . S
H188 C209 0.952 . S
H189 C210 0.949 . S
H190 C212 0.950 . S
H191 C213 0.948 . S
H192 C215 0.951 . S
H193 C180 0.947 . S
H194 C182 0.952 . S
H195 C183 0.950 . S
N196 C199 1.382 . S
N196 C201 1.363 . S
N197 C199 1.371 . S
N197 C200 1.372 . S
N198 C200 1.361 . S
N198 C201 1.377 . S
C199 N196 1.382 . S
C199 N197 1.371 . S
C199 C202 1.480 . S
C200 N197 1.372 . S
C200 N198 1.361 . S
C200 C208 1.457 . S
C201 N196 1.363 . S
C201 N198 1.377 . S
C201 C214 1.479 . S
C202 C199 1.480 . S
C202 C203 1.383 . S
C202 C207 1.385 . S
C203 H184 0.947 . S
C203 C202 1.383 . S
C203 C204 1.388 . S
C204 H185 0.946 . S
C204 C203 1.388 . S
C204 C205 1.384 . S
C205 C204 1.384 . S
C205 C206 1.377 . S
C206 H186 0.953 . S
C206 C205 1.377 . S
C206 C207 1.369 . S
C207 H187 0.945 . S
C207 C202 1.385 . S
C207 C206 1.369 . S
C208 C200 1.457 . S
C208 C209 1.372 . S
C208 C213 1.364 . S
C209 H188 0.952 . S
C209 C208 1.372 . S
C209 C210 1.389 . S
C210 H189 0.949 . S
C210 C209 1.389 . S
C210 C211 1.387 . S
C211 C210 1.387 . S
C211 C212 1.372 . S
C212 H190 0.950 . S
C212 C211 1.372 . S
C212 C213 1.379 . S
C213 H191 0.948 . S
C213 C208 1.364 . S
C213 C212 1.379 . S
C214 C183 1.383 . S
C214 C201 1.479 . S
C214 C215 1.398 . S
C215 C180 1.382 . S
C215 H192 0.951 . S
C215 C214 1.398 . S
C216 C217 1.384 . S
C216 H229 0.947 . S
C216 C251 1.382 . S
C217 C216 1.384 . S
C217 C218 1.378 . S
C218 C217 1.378 . S
C218 C219 1.378 . S
C218 H230 0.952 . S
C219 C218 1.378 . S
C219 H231 0.950 . S
C219 C250 1.383 . S
H220 C239 0.947 . S
H221 C240 0.946 . S
H222 C242 0.953 . S
H223 C243 0.945 . S
H224 C245 0.952 . S
H225 C246 0.949 . S
H226 C248 0.950 . S
H227 C249 0.948 . S
H228 C251 0.951 . S
H229 C216 0.947 . S
H230 C218 0.952 . S
H231 C219 0.950 . S
N232 C235 1.382 . S
N232 C237 1.363 . S
N233 C235 1.371 . S
N233 C236 1.372 . S
N234 C236 1.361 . S
N234 C237 1.377 . S
C235 N232 1.382 . S
C235 N233 1.371 . S
C235 C238 1.480 . S
C236 N233 1.372 . S
C236 N234 1.361 . S
C236 C244 1.457 . S
C237 N232 1.363 . S
C237 N234 1.377 . S
C237 C250 1.479 . S
C238 C235 1.480 . S
C238 C239 1.383 . S
C238 C243 1.385 . S
C239 H220 0.947 . S
C239 C238 1.383 . S
C239 C240 1.388 . S
C240 H221 0.946 . S
C240 C239 1.388 . S
C240 C241 1.384 . S
C241 C240 1.384 . S
C241 C242 1.377 . S
C242 H222 0.953 . S
C242 C241 1.377 . S
C242 C243 1.369 . S
C243 H223 0.945 . S
C243 C238 1.385 . S
C243 C242 1.369 . S
C244 C236 1.457 . S
C244 C245 1.372 . S
C244 C249 1.364 . S
C245 H224 0.952 . S
C245 C244 1.372 . S
C245 C246 1.389 . S
C246 H225 0.949 . S
C246 C245 1.389 . S
C246 C247 1.387 . S
C247 C246 1.387 . S
C247 C248 1.372 . S
C248 H226 0.950 . S
C248 C247 1.372 . S
C248 C249 1.379 . S
C249 H227 0.948 . S
C249 C244 1.364 . S
C249 C248 1.379 . S
C250 C219 1.383 . S
C250 C237 1.479 . S
C250 C251 1.398 . S
C251 C216 1.382 . S
C251 H228 0.951 . S
C251 C250 1.398 . S
C252 C253 1.384 . S
C252 H265 0.947 . S
C252 C287 1.382 . S
C253 C252 1.384 . S
C253 C254 1.378 . S
C254 C253 1.378 . S
C254 C255 1.378 . S
C254 H266 0.952 . S
C255 C254 1.378 . S
C255 H267 0.950 . S
C255 C286 1.383 . S
H256 C275 0.947 . S
H257 C276 0.946 . S
H258 C278 0.953 . S
H259 C279 0.945 . S
H260 C281 0.952 . S
H261 C282 0.949 . S
H262 C284 0.950 . S
H263 C285 0.948 . S
H264 C287 0.951 . S
H265 C252 0.947 . S
H266 C254 0.952 . S
H267 C255 0.950 . S
N268 C271 1.382 . S
N268 C273 1.363 . S
N269 C271 1.371 . S
N269 C272 1.372 . S
N270 C272 1.361 . S
N270 C273 1.377 . S
C271 N268 1.382 . S
C271 N269 1.371 . S
C271 C274 1.480 . S
C272 N269 1.372 . S
C272 N270 1.361 . S
C272 C280 1.457 . S
C273 N268 1.363 . S
C273 N270 1.377 . S
C273 C286 1.479 . S
C274 C271 1.480 . S
C274 C275 1.383 . S
C274 C279 1.385 . S
C275 H256 0.947 . S
C275 C274 1.383 . S
C275 C276 1.388 . S
C276 H257 0.946 . S
C276 C275 1.388 . S
C276 C277 1.384 . S
C277 C276 1.384 . S
C277 C278 1.377 . S
C278 H258 0.953 . S
C278 C277 1.377 . S
C278 C279 1.369 . S
C279 H259 0.945 . S
C279 C274 1.385 . S
C279 C278 1.369 . S
C280 C272 1.457 . S
C280 C281 1.372 . S
C280 C285 1.364 . S
C281 H260 0.952 . S
C281 C280 1.372 . S
C281 C282 1.389 . S
C282 H261 0.949 . S
C282 C281 1.389 . S
C282 C283 1.387 . S
C283 C282 1.387 . S
C283 C284 1.372 . S
C284 H262 0.950 . S
C284 C283 1.372 . S
C284 C285 1.379 . S
C285 H263 0.948 . S
C285 C280 1.364 . S
C285 C284 1.379 . S
C286 C255 1.383 . S
C286 C273 1.479 . S
C286 C287 1.398 . S
C287 C252 1.382 . S
C287 H264 0.951 . S
C287 C286 1.398 . S
C288 C289 1.443 . S
C288 N292 1.376 . S
C288 C326 1.389 . S
C289 C288 1.443 . S
C289 C290 1.340 . S
C289 H329 0.951 . S
C290 C289 1.340 . S
C290 C291 1.439 . S
C290 H330 0.950 . S
C291 C290 1.439 . S
C291 N292 1.374 . S
C291 C325 1.395 . S
N292 C288 1.376 . S
N292 C291 1.374 . S
N292 Co293 2.008 . S
Co293 N292 2.008 . S
Co293 N294 1.995 1_455 S
Co293 N299 2.008 . S
Co293 N304 1.995 . S
Co293 N309 2.282 . S
Co293 N315 2.282 1_455 S
N294 Co293 1.995 1_655 S
N294 C295 1.376 . S
N294 C298 1.383 . S
C295 N294 1.376 . S
C295 C296 1.446 . S
C295 C325 1.391 1_655 S
C296 C295 1.446 . S
C296 C297 1.339 . S
C296 H331 0.949 . S
C297 C296 1.339 . S
C297 C298 1.439 . S
C297 H332 0.950 . S
C298 N294 1.383 . S
C298 C297 1.439 . S
C298 C327 1.392 . S
N299 Co293 2.008 . S
N299 C300 1.376 1_455 S
N299 C303 1.374 . S
C300 N299 1.376 1_655 S
C300 C301 1.443 . S
C300 C327 1.389 . S
C301 C300 1.443 . S
C301 C302 1.340 . S
C301 H333 0.951 . S
C302 C301 1.340 . S
C302 C303 1.439 1_655 S
C302 H334 0.950 . S
C303 N299 1.374 . S
C303 C302 1.439 1_455 S
C303 C328 1.395 . S
N304 Co293 1.995 . S
N304 C305 1.376 . S
N304 C308 1.383 . S
C305 N304 1.376 . S
C305 C306 1.446 . S
C305 C328 1.391 . S
C306 C305 1.446 . S
C306 C307 1.339 . S
C306 H335 0.949 . S
C307 C306 1.339 . S
C307 C308 1.439 . S
C307 H336 0.950 . S
C308 N304 1.383 . S
C308 C307 1.439 . S
C308 C326 1.392 . S
N309 Co293 2.282 . S
N309 C312 1.332 . S
N309 C314 1.332 . S
C310 C311 1.386 . S
C310 C313 1.388 . S
C311 C310 1.386 . S
C311 C312 1.382 . S
C311 H337 0.950 . S
C312 N309 1.332 . S
C312 C311 1.382 . S
C312 H323 0.952 . S
C313 C310 1.388 . S
C313 C314 1.382 . S
C313 H338 0.950 . S
C314 N309 1.332 . S
C314 C313 1.382 . S
C314 H324 0.948 . S
N315 Co293 2.282 1_655 S
N315 C319 1.332 . S
N315 C320 1.332 . S
C316 C317 1.388 . S
C316 C320 1.382 . S
C316 H339 0.950 . S
C317 C316 1.388 . S
C317 C318 1.386 . S
C318 C317 1.386 . S
C318 C319 1.382 . S
C318 H340 0.950 . S
C319 N315 1.332 . S
C319 C318 1.382 . S
C319 H321 0.952 . S
C320 N315 1.332 . S
C320 C316 1.382 . S
C320 H322 0.948 . S
H321 C319 0.952 . S
H322 C320 0.948 . S
H323 C312 0.952 . S
H324 C314 0.948 . S
C325 C291 1.395 . S
C325 C295 1.391 1_455 S
C326 C288 1.389 . S
C326 C308 1.392 . S
C327 C298 1.392 . S
C327 C300 1.389 . S
C328 C303 1.395 . S
C328 C305 1.391 . S
H329 C289 0.951 . S
H330 C290 0.950 . S
H331 C296 0.949 . S
H332 C297 0.950 . S
H333 C301 0.951 . S
H334 C302 0.950 . S
H335 C306 0.949 . S
H336 C307 0.950 . S
H337 C311 0.950 . S
H338 C313 0.950 . S
H339 C316 0.950 . S
H340 C318 0.950 . S
C341 C342 1.443 . S
C341 N345 1.376 . S
C341 C379 1.389 . S
C342 C341 1.443 . S
C342 C343 1.340 . S
C342 H382 0.951 . S
C343 C342 1.340 . S
C343 C344 1.439 . S
C343 H383 0.950 . S
C344 C343 1.439 . S
C344 N345 1.374 . S
C344 C378 1.395 . S
N345 C341 1.376 . S
N345 C344 1.374 . S
N345 Co346 2.008 . S
Co346 N345 2.008 . S
Co346 N347 1.995 1_455 S
Co346 N352 2.008 1_455 S
Co346 N357 1.995 . S
Co346 N362 2.282 . S
Co346 N368 2.282 1_455 S
N347 Co346 1.995 1_655 S
N347 C348 1.376 . S
N347 C351 1.383 . S
C348 N347 1.376 . S
C348 C349 1.446 . S
C348 C378 1.391 1_655 S
C349 C348 1.446 . S
C349 C350 1.339 . S
C349 H384 0.949 . S
C350 C349 1.339 . S
C350 C351 1.439 . S
C350 H385 0.950 . S
C351 N347 1.383 . S
C351 C350 1.439 . S
C351 C380 1.392 . S
N352 Co346 2.008 1_655 S
N352 C353 1.376 . S
N352 C356 1.368 1_655 S
C353 N352 1.376 . S
C353 C354 1.443 . S
C353 C380 1.389 . S
C354 C353 1.443 . S
C354 C355 1.340 . S
C354 H386 0.951 . S
C355 C354 1.340 . S
C355 C356 1.422 1_655 S
C355 H387 0.950 . S
C356 N352 1.368 1_455 S
C356 C355 1.422 1_455 S
C356 C381 1.418 . S
N357 Co346 1.995 . S
N357 C358 1.376 . S
N357 C361 1.383 . S
C358 N357 1.376 . S
C358 C359 1.446 . S
C358 C381 1.391 . S
C359 C358 1.446 . S
C359 C360 1.339 . S
C359 H388 0.949 . S
C360 C359 1.339 . S
C360 C361 1.439 . S
C360 H389 0.950 . S
C361 N357 1.383 . S
C361 C360 1.439 . S
C361 C379 1.392 . S
N362 Co346 2.282 . S
N362 C365 1.332 . S
N362 C367 1.332 . S
C363 C364 1.386 . S
C363 C366 1.388 . S
C364 C363 1.386 . S
C364 C365 1.382 . S
C364 H390 0.950 . S
C365 N362 1.332 . S
C365 C364 1.382 . S
C365 H376 0.952 . S
C366 C363 1.388 . S
C366 C367 1.382 . S
C366 H391 0.950 . S
C367 N362 1.332 . S
C367 C366 1.382 . S
C367 H377 0.948 . S
N368 Co346 2.282 1_655 S
N368 C372 1.332 . S
N368 C373 1.332 . S
C369 C370 1.388 . S
C369 C373 1.382 . S
C369 H392 0.950 . S
C370 C369 1.388 . S
C370 C371 1.386 . S
C371 C370 1.386 . S
C371 C372 1.382 . S
C371 H393 0.950 . S
C372 N368 1.332 . S
C372 C371 1.382 . S
C372 H374 0.952 . S
C373 N368 1.332 . S
C373 C369 1.382 . S
C373 H375 0.948 . S
H374 C372 0.952 . S
H375 C373 0.948 . S
H376 C365 0.952 . S
H377 C367 0.948 . S
C378 C344 1.395 . S
C378 C348 1.391 1_455 S
C379 C341 1.389 . S
C379 C361 1.392 . S
C380 C351 1.392 . S
C380 C353 1.389 . S
C381 C356 1.418 . S
C381 C358 1.391 . S
H382 C342 0.951 . S
H383 C343 0.950 . S
H384 C349 0.949 . S
H385 C350 0.950 . S
H386 C354 0.951 . S
H387 C355 0.950 . S
H388 C359 0.949 . S
H389 C360 0.950 . S
H390 C364 0.950 . S
H391 C366 0.950 . S
H392 C369 0.950 . S
H393 C371 0.950 . S
C394 C395 1.443 . S
C394 N398 1.376 . S
C394 C432 1.389 . S
C395 C394 1.443 . S
C395 C396 1.340 . S
C395 H435 0.951 . S
C396 C395 1.340 . S
C396 C397 1.439 . S
C396 H436 0.950 . S
C397 C396 1.439 . S
C397 N398 1.374 . S
C397 C431 1.395 1_565 S
N398 C394 1.376 . S
N398 C397 1.374 . S
N398 Co399 2.008 1_565 S
Co399 N398 2.008 1_545 S
Co399 N400 1.995 . S
Co399 N405 2.008 . S
Co399 N410 1.995 1_545 S
Co399 N415 2.282 . S
Co399 N421 2.282 1_545 S
N400 Co399 1.995 . S
N400 C401 1.376 . S
N400 C404 1.383 . S
C401 N400 1.376 . S
C401 C402 1.446 . S
C401 C431 1.391 . S
C402 C401 1.446 . S
C402 C403 1.339 . S
C402 H437 0.949 . S
C403 C402 1.339 . S
C403 C404 1.439 . S
C403 H438 0.950 . S
C404 N400 1.383 . S
C404 C403 1.439 . S
C404 C433 1.392 . S
N405 Co399 2.008 . S
N405 C406 1.376 . S
N405 C409 1.374 . S
C406 N405 1.376 . S
C406 C407 1.443 . S
C406 C433 1.389 . S
C407 C406 1.443 . S
C407 C408 1.340 . S
C407 H439 0.951 . S
C408 C407 1.340 . S
C408 C409 1.439 . S
C408 H440 0.950 . S
C409 N405 1.374 . S
C409 C408 1.439 . S
C409 C434 1.395 . S
N410 Co399 1.995 1_565 S
N410 C411 1.376 . S
N410 C414 1.383 . S
C411 N410 1.376 . S
C411 C412 1.446 . S
C411 C434 1.391 1_565 S
C412 C411 1.446 . S
C412 C413 1.339 . S
C412 H441 0.949 . S
C413 C412 1.339 . S
C413 C414 1.439 . S
C413 H442 0.950 . S
C414 N410 1.383 . S
C414 C413 1.439 . S
C414 C432 1.392 . S
N415 Co399 2.282 . S
N415 C418 1.332 . S
N415 C420 1.332 . S
C416 C417 1.386 . S
C416 C419 1.388 . S
C417 C416 1.386 . S
C417 C418 1.382 . S
C417 H443 0.950 . S
C418 N415 1.332 . S
C418 C417 1.382 . S
C418 H429 0.952 . S
C419 C416 1.388 . S
C419 C420 1.382 . S
C419 H444 0.950 . S
C420 N415 1.332 . S
C420 C419 1.382 . S
C420 H430 0.948 . S
N421 Co399 2.282 1_565 S
N421 C425 1.332 . S
N421 C426 1.332 . S
C422 C423 1.388 . S
C422 C426 1.382 . S
C422 H445 0.950 . S
C423 C422 1.388 . S
C423 C424 1.386 . S
C424 C423 1.386 . S
C424 C425 1.382 . S
C424 H446 0.950 . S
C425 N421 1.332 . S
C425 C424 1.382 . S
C425 H427 0.952 . S
C426 N421 1.332 . S
C426 C422 1.382 . S
C426 H428 0.948 . S
H427 C425 0.952 . S
H428 C426 0.948 . S
H429 C418 0.952 . S
H430 C420 0.948 . S
C431 C397 1.395 1_545 S
C431 C401 1.391 . S
C432 C394 1.389 . S
C432 C414 1.392 . S
C433 C404 1.392 . S
C433 C406 1.389 . S
C434 C409 1.395 . S
C434 C411 1.391 1_545 S
H435 C395 0.951 . S
H436 C396 0.950 . S
H437 C402 0.949 . S
H438 C403 0.950 . S
H439 C407 0.951 . S
H440 C408 0.950 . S
H441 C412 0.949 . S
H442 C413 0.950 . S
H443 C417 0.950 . S
H444 C419 0.950 . S
H445 C422 0.950 . S
H446 C424 0.950 . S
C447 C448 1.443 . S
C447 N451 1.376 . S
C447 C485 1.389 . S
C448 C447 1.443 . S
C448 C449 1.340 . S
C448 H488 0.951 . S
C449 C448 1.340 . S
C449 C450 1.439 . S
C449 H489 0.950 . S
C450 C449 1.439 . S
C450 N451 1.374 . S
C450 C484 1.395 . S
N451 C447 1.376 . S
N451 C450 1.374 . S
N451 Co452 2.008 . S
Co452 N451 2.008 . S
Co452 N453 2.010 . S
Co452 N458 1.990 1_554 S
Co452 N463 1.995 . S
Co452 N468 2.282 1_554 S
Co452 N474 2.282 . S
N453 Co452 2.010 . S
N453 C454 1.382 . S
N453 C457 1.357 1_554 S
C454 N453 1.382 . S
C454 C455 1.446 1_554 S
C454 C484 1.391 . S
C455 C454 1.446 1_556 S
C455 C456 1.339 . S
C455 H490 0.949 . S
C456 C455 1.339 . S
C456 C457 1.439 . S
C456 H491 0.950 . S
C457 N453 1.357 1_556 S
C457 C456 1.439 . S
C457 C486 1.392 . S
N458 Co452 1.990 1_556 S
N458 C459 1.403 . S
N458 C462 1.375 1_556 S
C459 N458 1.403 . S
C459 C460 1.443 . S
C459 C486 1.389 . S
C460 C459 1.443 . S
C460 C461 1.340 . S
C460 H492 0.951 . S
C461 C460 1.340 . S
C461 C462 1.419 1_556 S
C461 H493 0.950 . S
C462 N458 1.375 1_554 S
C462 C461 1.419 1_554 S
C462 C487 1.412 . S
N463 Co452 1.995 . S
N463 C464 1.376 . S
N463 C467 1.383 . S
C464 N463 1.376 . S
C464 C465 1.446 . S
C464 C487 1.391 . S
C465 C464 1.446 . S
C465 C466 1.339 . S
C465 H494 0.949 . S
C466 C465 1.339 . S
C466 C467 1.439 . S
C466 H495 0.950 . S
C467 N463 1.383 . S
C467 C466 1.439 . S
C467 C485 1.392 . S
N468 Co452 2.282 1_556 S
N468 C471 1.332 . S
N468 C473 1.332 . S
C469 C470 1.386 . S
C469 C472 1.388 . S
C470 C469 1.386 . S
C470 C471 1.382 . S
C470 H496 0.950 . S
C471 N468 1.332 . S
C471 C470 1.382 . S
C471 H482 0.952 . S
C472 C469 1.388 . S
C472 C473 1.382 . S
C472 H497 0.950 . S
C473 N468 1.332 . S
C473 C472 1.382 . S
C473 H483 0.948 . S
N474 Co452 2.282 . S
N474 C478 1.332 . S
N474 C479 1.332 . S
C475 C476 1.388 . S
C475 C479 1.382 . S
C475 H498 0.950 . S
C476 C475 1.388 . S
C476 C477 1.386 . S
C477 C476 1.386 . S
C477 C478 1.382 . S
C477 H499 0.950 . S
C478 N474 1.332 . S
C478 C477 1.382 . S
C478 H480 0.952 . S
C479 N474 1.332 . S
C479 C475 1.382 . S
C479 H481 0.948 . S
H480 C478 0.952 . S
H481 C479 0.948 . S
H482 C471 0.952 . S
H483 C473 0.948 . S
C484 C450 1.395 . S
C484 C454 1.391 . S
C485 C447 1.389 . S
C485 C467 1.392 . S
C486 C457 1.392 . S
C486 C459 1.389 . S
C487 C462 1.412 . S
C487 C464 1.391 . S
H488 C448 0.951 . S
H489 C449 0.950 . S
H490 C455 0.949 . S
H491 C456 0.950 . S
H492 C460 0.951 . S
H493 C461 0.950 . S
H494 C465 0.949 . S
H495 C466 0.950 . S
H496 C470 0.950 . S
H497 C472 0.950 . S
H498 C475 0.950 . S
H499 C477 0.950 . S
C500 C501 1.443 . S
C500 N504 1.347 1_565 S
C500 C538 1.389 . S
C501 C500 1.443 . S
C501 C502 1.340 . S
C501 H541 0.951 . S
C502 C501 1.340 . S
C502 C503 1.439 1_565 S
C502 H542 0.950 . S
C503 C502 1.439 1_545 S
C503 N504 1.374 . S
C503 C537 1.395 . S
N504 C500 1.347 1_545 S
N504 C503 1.374 . S
N504 Co505 2.030 . S
Co505 N504 2.030 . S
Co505 N506 1.995 . S
Co505 N511 2.008 . S
Co505 N516 1.995 . S
Co505 N521 2.282 . S
Co505 N527 2.282 1_545 S
N506 Co505 1.995 . S
N506 C507 1.376 . S
N506 C510 1.383 . S
C507 N506 1.376 . S
C507 C508 1.446 . S
C507 C537 1.391 . S
C508 C507 1.446 . S
C508 C509 1.339 . S
C508 H543 0.949 . S
C509 C508 1.339 . S
C509 C510 1.439 . S
C509 H544 0.950 . S
C510 N506 1.383 . S
C510 C509 1.439 . S
C510 C539 1.392 . S
N511 Co505 2.008 . S
N511 C512 1.376 . S
N511 C515 1.374 . S
C512 N511 1.376 . S
C512 C513 1.443 . S
C512 C539 1.389 . S
C513 C512 1.443 . S
C513 C514 1.340 . S
C513 H545 0.951 . S
C514 C513 1.340 . S
C514 C515 1.439 . S
C514 H546 0.950 . S
C515 N511 1.374 . S
C515 C514 1.439 . S
C515 C540 1.395 . S
N516 Co505 1.995 . S
N516 C517 1.376 . S
N516 C520 1.383 1_545 S
C517 N516 1.376 . S
C517 C518 1.446 1_545 S
C517 C540 1.391 . S
C518 C517 1.446 1_565 S
C518 C519 1.339 . S
C518 H547 0.949 . S
C519 C518 1.339 . S
C519 C520 1.439 . S
C519 H548 0.950 . S
C520 N516 1.383 1_565 S
C520 C519 1.439 . S
C520 C538 1.392 . S
N521 Co505 2.282 . S
N521 C524 1.332 . S
N521 C526 1.332 . S
C522 C523 1.386 . S
C522 C525 1.388 . S
C523 C522 1.386 . S
C523 C524 1.382 . S
C523 H549 0.950 . S
C524 N521 1.332 . S
C524 C523 1.382 . S
C524 H535 0.952 . S
C525 C522 1.388 . S
C525 C526 1.382 . S
C525 H550 0.950 . S
C526 N521 1.332 . S
C526 C525 1.382 . S
C526 H536 0.948 . S
N527 Co505 2.282 1_565 S
N527 C531 1.332 . S
N527 C532 1.332 . S
C528 C529 1.388 . S
C528 C532 1.382 . S
C528 H551 0.950 . S
C529 C528 1.388 . S
C529 C530 1.386 . S
C530 C529 1.386 . S
C530 C531 1.382 . S
C530 H552 0.950 . S
C531 N527 1.332 . S
C531 C530 1.382 . S
C531 H533 0.952 . S
C532 N527 1.332 . S
C532 C528 1.382 . S
C532 H534 0.948 . S
H533 C531 0.952 . S
H534 C532 0.948 . S
H535 C524 0.952 . S
H536 C526 0.948 . S
C537 C503 1.395 . S
C537 C507 1.391 . S
C538 C500 1.389 . S
C538 C520 1.392 . S
C539 C510 1.392 . S
C539 C512 1.389 . S
C540 C515 1.395 . S
C540 C517 1.391 . S
H541 C501 0.951 . S
H542 C502 0.950 . S
H543 C508 0.949 . S
H544 C509 0.950 . S
H545 C513 0.951 . S
H546 C514 0.950 . S
H547 C518 0.949 . S
H548 C519 0.950 . S
H549 C523 0.950 . S
H550 C525 0.950 . S
H551 C528 0.950 . S
H552 C530 0.950 . S
C553 C554 1.443 . S
C553 N557 1.376 . S
C553 C591 1.389 . S
C554 C553 1.443 . S
C554 C555 1.340 . S
C554 H594 0.951 . S
C555 C554 1.340 . S
C555 C556 1.439 . S
C555 H595 0.950 . S
C556 C555 1.439 . S
C556 N557 1.374 . S
C556 C590 1.395 . S
N557 C553 1.376 . S
N557 C556 1.374 . S
N557 Co558 2.008 . S
Co558 N557 2.008 . S
Co558 N559 1.995 . S
Co558 N564 2.008 . S
Co558 N569 1.995 . S
Co558 N574 2.280 . S
Co558 N580 2.282 . S
N559 Co558 1.995 . S
N559 C560 1.376 . S
N559 C563 1.383 1_554 S
C560 N559 1.376 . S
C560 C561 1.446 1_554 S
C560 C590 1.391 . S
C561 C560 1.446 1_556 S
C561 C562 1.339 . S
C561 H596 0.949 . S
C562 C561 1.339 . S
C562 C563 1.439 . S
C562 H597 0.950 . S
C563 N559 1.383 1_556 S
C563 C562 1.439 . S
C563 C592 1.392 . S
N564 Co558 2.008 . S
N564 C565 1.376 1_554 S
N564 C568 1.374 . S
C565 N564 1.376 1_556 S
C565 C566 1.443 . S
C565 C592 1.389 . S
C566 C565 1.443 . S
C566 C567 1.340 . S
C566 H598 0.951 . S
C567 C566 1.340 . S
C567 C568 1.439 1_556 S
C567 H599 0.950 . S
C568 N564 1.374 . S
C568 C567 1.439 1_554 S
C568 C593 1.395 . S
N569 Co558 1.995 . S
N569 C570 1.376 . S
N569 C573 1.383 . S
C570 N569 1.376 . S
C570 C571 1.446 . S
C570 C593 1.391 . S
C571 C570 1.446 . S
C571 C572 1.339 . S
C571 H600 0.949 . S
C572 C571 1.339 . S
C572 C573 1.439 . S
C572 H601 0.950 . S
C573 N569 1.383 . S
C573 C572 1.439 . S
C573 C591 1.392 . S
N574 Co558 2.280 . S
N574 C577 1.333 1_554 S
N574 C579 1.334 1_554 S
C575 C576 1.386 . S
C575 C578 1.388 . S
C576 C575 1.386 . S
C576 C577 1.382 . S
C576 H602 0.950 . S
C577 N574 1.333 1_556 S
C577 C576 1.382 . S
C577 H588 0.952 1_556 S
C578 C575 1.388 . S
C578 C579 1.382 . S
C578 H603 0.950 . S
C579 N574 1.334 1_556 S
C579 C578 1.382 . S
C579 H589 0.948 . S
N580 Co558 2.282 . S
N580 C584 1.332 . S
N580 C585 1.332 . S
C581 C582 1.388 . S
C581 C585 1.382 . S
C581 H604 0.950 . S
C582 C581 1.388 . S
C582 C583 1.386 . S
C583 C582 1.386 . S
C583 C584 1.382 . S
C583 H605 0.950 . S
C584 N580 1.332 . S
C584 C583 1.382 . S
C584 H586 0.952 . S
C585 N580 1.332 . S
C585 C581 1.382 . S
C585 H587 0.948 . S
H586 C584 0.952 . S
H587 C585 0.948 . S
H588 C577 0.952 1_554 S
H589 C579 0.948 . S
C590 C556 1.395 . S
C590 C560 1.391 . S
C591 C553 1.389 . S
C591 C573 1.392 . S
C592 C563 1.392 . S
C592 C565 1.389 . S
C593 C568 1.395 . S
C593 C570 1.391 . S
H594 C554 0.951 . S
H595 C555 0.950 . S
H596 C561 0.949 . S
H597 C562 0.950 . S
H598 C566 0.951 . S
H599 C567 0.950 . S
H600 C571 0.949 . S
H601 C572 0.950 . S
H602 C576 0.950 . S
H603 C578 0.950 . S
H604 C581 0.950 . S
H605 C583 0.950 . S
H606 C618 0.930 . S
H607 C620 0.930 . S
H608 C621 0.930 . S
H609 C625 0.959 . S
H610 C625 0.959 . S
H611 C625 0.961 . S
H612 C626 0.960 . S
H613 C626 0.961 . S
H614 C626 0.959 . S
H615 C629 0.929 . S
H616 C630 0.931 . S
H617 C632 0.930 . S
C618 H606 0.930 . S
C618 C619 1.399 . S
C618 C623 1.399 . S
C619 C618 1.399 . S
C619 C620 1.376 . S
C620 H607 0.930 . S
C620 C619 1.376 . S
C620 C621 1.388 . S
C621 H608 0.930 . S
C621 C620 1.388 . S
C621 C622 1.390 . S
C622 C621 1.390 . S
C622 C623 1.394 . S
C622 C628 1.465 . S
C623 C618 1.399 . S
C623 C622 1.394 . S
C623 C624 1.516 . S
C624 C623 1.516 . S
C624 C625 1.502 . S
C624 C626 1.561 . S
C624 C627 1.526 . S
C625 H609 0.959 . S
C625 H610 0.959 . S
C625 H611 0.961 . S
C625 C624 1.502 . S
C626 H612 0.960 . S
C626 H613 0.961 . S
C626 H614 0.959 . S
C626 C624 1.561 . S
C627 C624 1.526 . S
C627 C628 1.396 . S
C627 C632 1.390 . S
C628 C622 1.465 . S
C628 C627 1.396 . S
C628 C629 1.399 . S
C629 H615 0.929 . S
C629 C628 1.399 . S
C629 C630 1.385 . S
C630 H616 0.931 . S
C630 C629 1.385 . S
C630 C631 1.389 . S
C631 C630 1.389 . S
C631 C632 1.387 . S
C632 H617 0.930 . S
C632 C627 1.390 . S
C632 C631 1.387 . S
H633 C645 0.930 . S
H634 C647 0.930 . S
H635 C648 0.930 . S
H636 C652 0.959 . S
H637 C652 0.959 . S
H638 C652 0.961 . S
H639 C653 0.960 . S
H640 C653 0.961 . S
H641 C653 0.959 . S
H642 C656 0.929 . S
H643 C657 0.931 . S
H644 C659 0.930 . S
C645 H633 0.930 . S
C645 C646 1.399 . S
C645 C650 1.399 . S
C646 C645 1.399 . S
C646 C647 1.376 . S
C647 H634 0.930 . S
C647 C646 1.376 . S
C647 C648 1.388 . S
C648 H635 0.930 . S
C648 C647 1.388 . S
C648 C649 1.390 . S
C649 C648 1.390 . S
C649 C650 1.394 . S
C649 C655 1.465 . S
C650 C645 1.399 . S
C650 C649 1.394 . S
C650 C651 1.516 . S
C651 C650 1.516 . S
C651 C652 1.502 . S
C651 C653 1.561 . S
C651 C654 1.526 . S
C652 H636 0.959 . S
C652 H637 0.959 . S
C652 H638 0.961 . S
C652 C651 1.502 . S
C653 H639 0.960 . S
C653 H640 0.961 . S
C653 H641 0.959 . S
C653 C651 1.561 . S
C654 C651 1.526 . S
C654 C655 1.396 . S
C654 C659 1.390 . S
C655 C649 1.465 . S
C655 C654 1.396 . S
C655 C656 1.399 . S
C656 H642 0.929 . S
C656 C655 1.399 . S
C656 C657 1.385 . S
C657 H643 0.931 . S
C657 C656 1.385 . S
C657 C658 1.389 . S
C658 C657 1.389 . S
C658 C659 1.387 . S
C659 H644 0.930 . S
C659 C654 1.390 . S
C659 C658 1.387 . S
H660 C672 0.930 . S
H661 C674 0.930 . S
H662 C675 0.930 . S
H663 C679 0.959 . S
H664 C679 0.959 . S
H665 C679 0.961 . S
H666 C680 0.960 . S
H667 C680 0.961 . S
H668 C680 0.959 . S
H669 C683 0.929 . S
H670 C684 0.931 . S
H671 C686 0.930 . S
C672 H660 0.930 . S
C672 C673 1.399 . S
C672 C677 1.399 . S
C673 C672 1.399 . S
C673 C674 1.376 . S
C674 H661 0.930 . S
C674 C673 1.376 . S
C674 C675 1.388 . S
C675 H662 0.930 . S
C675 C674 1.388 . S
C675 C676 1.390 . S
C676 C675 1.390 . S
C676 C677 1.394 . S
C676 C682 1.465 . S
C677 C672 1.399 . S
C677 C676 1.394 . S
C677 C678 1.516 . S
C678 C677 1.516 . S
C678 C679 1.502 . S
C678 C680 1.561 . S
C678 C681 1.526 . S
C679 H663 0.959 . S
C679 H664 0.959 . S
C679 H665 0.961 . S
C679 C678 1.502 . S
C680 H666 0.960 . S
C680 H667 0.961 . S
C680 H668 0.959 . S
C680 C678 1.561 . S
C681 C678 1.526 . S
C681 C682 1.396 . S
C681 C686 1.390 . S
C682 C676 1.465 . S
C682 C681 1.396 . S
C682 C683 1.399 . S
C683 H669 0.929 . S
C683 C682 1.399 . S
C683 C684 1.385 . S
C684 H670 0.931 . S
C684 C683 1.385 . S
C684 C685 1.389 . S
C685 C684 1.389 . S
C685 C686 1.387 . S
C686 H671 0.930 . S
C686 C681 1.390 . S
C686 C685 1.387 . S
H687 C699 0.930 . S
H688 C701 0.930 . S
H689 C702 0.930 . S
H690 C706 0.959 . S
H691 C706 0.959 . S
H692 C706 0.961 . S
H693 C707 0.960 . S
H694 C707 0.961 . S
H695 C707 0.959 . S
H696 C710 0.929 . S
H697 C711 0.931 . S
H698 C713 0.930 . S
C699 H687 0.930 . S
C699 C700 1.399 . S
C699 C704 1.399 . S
C700 C699 1.399 . S
C700 C701 1.376 . S
C701 H688 0.930 . S
C701 C700 1.376 . S
C701 C702 1.388 . S
C702 H689 0.930 . S
C702 C701 1.388 . S
C702 C703 1.390 . S
C703 C702 1.390 . S
C703 C704 1.394 . S
C703 C709 1.465 . S
C704 C699 1.399 . S
C704 C703 1.394 . S
C704 C705 1.516 . S
C705 C704 1.516 . S
C705 C706 1.502 . S
C705 C707 1.561 . S
C705 C708 1.526 . S
C706 H690 0.959 . S
C706 H691 0.959 . S
C706 H692 0.961 . S
C706 C705 1.502 . S
C707 H693 0.960 . S
C707 H694 0.961 . S
C707 H695 0.959 . S
C707 C705 1.561 . S
C708 C705 1.526 . S
C708 C709 1.396 . S
C708 C713 1.390 . S
C709 C703 1.465 . S
C709 C708 1.396 . S
C709 C710 1.399 . S
C710 H696 0.929 . S
C710 C709 1.399 . S
C710 C711 1.385 . S
C711 H697 0.931 . S
C711 C710 1.385 . S
C711 C712 1.389 . S
C712 C711 1.389 . S
C712 C713 1.387 . S
C713 H698 0.930 . S
C713 C708 1.390 . S
C713 C712 1.387 . S
H714 C726 0.930 . S
H715 C728 0.930 . S
H716 C729 0.930 . S
H717 C733 0.959 . S
H718 C733 0.959 . S
H719 C733 0.961 . S
H720 C734 0.960 . S
H721 C734 0.961 . S
H722 C734 0.959 . S
H723 C737 0.929 . S
H724 C738 0.931 . S
H725 C740 0.930 . S
C726 H714 0.930 . S
C726 C727 1.399 . S
C726 C731 1.399 . S
C727 C726 1.399 . S
C727 C728 1.376 . S
C728 H715 0.930 . S
C728 C727 1.376 . S
C728 C729 1.388 . S
C729 H716 0.930 . S
C729 C728 1.388 . S
C729 C730 1.390 . S
C730 C729 1.390 . S
C730 C731 1.394 . S
C730 C736 1.465 . S
C731 C726 1.399 . S
C731 C730 1.394 . S
C731 C732 1.516 . S
C732 C731 1.516 . S
C732 C733 1.502 . S
C732 C734 1.561 . S
C732 C735 1.526 . S
C733 H717 0.959 . S
C733 H718 0.959 . S
C733 H719 0.961 . S
C733 C732 1.502 . S
C734 H720 0.960 . S
C734 H721 0.961 . S
C734 H722 0.959 . S
C734 C732 1.561 . S
C735 C732 1.526 . S
C735 C736 1.396 . S
C735 C740 1.390 . S
C736 C730 1.465 . S
C736 C735 1.396 . S
C736 C737 1.399 . S
C737 H723 0.929 . S
C737 C736 1.399 . S
C737 C738 1.385 . S
C738 H724 0.931 . S
C738 C737 1.385 . S
C738 C739 1.389 . S
C739 C738 1.389 . S
C739 C740 1.387 . S
C740 H725 0.930 . S
C740 C735 1.390 . S
C740 C739 1.387 . S
H741 C753 0.930 . S
H742 C755 0.930 . S
H743 C756 0.930 . S
H744 C760 0.959 . S
H745 C760 0.959 . S
H746 C760 0.961 . S
H747 C761 0.960 . S
H748 C761 0.961 . S
H749 C761 0.959 . S
H750 C764 0.929 . S
H751 C765 0.931 . S
H752 C767 0.930 . S
C753 H741 0.930 . S
C753 C754 1.399 . S
C753 C758 1.399 . S
C754 C753 1.399 . S
C754 C755 1.376 . S
C755 H742 0.930 . S
C755 C754 1.376 . S
C755 C756 1.388 . S
C756 H743 0.930 . S
C756 C755 1.388 . S
C756 C757 1.390 . S
C757 C756 1.390 . S
C757 C758 1.394 . S
C757 C763 1.465 . S
C758 C753 1.399 . S
C758 C757 1.394 . S
C758 C759 1.516 . S
C759 C758 1.516 . S
C759 C760 1.502 . S
C759 C761 1.561 . S
C759 C762 1.526 . S
C760 H744 0.959 . S
C760 H745 0.959 . S
C760 H746 0.961 . S
C760 C759 1.502 . S
C761 H747 0.960 . S
C761 H748 0.961 . S
C761 H749 0.959 . S
C761 C759 1.561 . S
C762 C759 1.526 . S
C762 C763 1.396 . S
C762 C767 1.390 . S
C763 C757 1.465 . S
C763 C762 1.396 . S
C763 C764 1.399 . S
C764 H750 0.929 . S
C764 C763 1.399 . S
C764 C765 1.385 . S
C765 H751 0.931 . S
C765 C764 1.385 . S
C765 C766 1.389 . S
C766 C765 1.389 . S
C766 C767 1.387 . S
C767 H752 0.930 . S
C767 C762 1.390 . S
C767 C766 1.387 . S
H768 C780 0.930 . S
H769 C782 0.930 . S
H770 C783 0.930 . S
H771 C787 0.959 . S
H772 C787 0.959 . S
H773 C787 0.961 . S
H774 C788 0.960 . S
H775 C788 0.961 . S
H776 C788 0.959 . S
H777 C791 0.929 . S
H778 C792 0.931 . S
H779 C794 0.930 . S
C780 H768 0.930 . S
C780 C781 1.399 . S
C780 C785 1.399 . S
C781 C780 1.399 . S
C781 C782 1.376 . S
C782 H769 0.930 . S
C782 C781 1.376 . S
C782 C783 1.388 . S
C783 H770 0.930 . S
C783 C782 1.388 . S
C783 C784 1.390 . S
C784 C783 1.390 . S
C784 C785 1.394 . S
C784 C790 1.465 . S
C785 C780 1.399 . S
C785 C784 1.394 . S
C785 C786 1.516 . S
C786 C785 1.516 . S
C786 C787 1.502 . S
C786 C788 1.561 . S
C786 C789 1.526 . S
C787 H771 0.959 . S
C787 H772 0.959 . S
C787 H773 0.961 . S
C787 C786 1.502 . S
C788 H774 0.960 . S
C788 H775 0.961 . S
C788 H776 0.959 . S
C788 C786 1.561 . S
C789 C786 1.526 . S
C789 C790 1.396 . S
C789 C794 1.390 . S
C790 C784 1.465 . S
C790 C789 1.396 . S
C790 C791 1.399 . S
C791 H777 0.929 . S
C791 C790 1.399 . S
C791 C792 1.385 . S
C792 H778 0.931 . S
C792 C791 1.385 . S
C792 C793 1.389 . S
C793 C792 1.389 . S
C793 C794 1.387 . S
C794 H779 0.930 . S
C794 C789 1.390 . S
C794 C793 1.387 . S
H795 C807 0.930 . S
H796 C809 0.930 . S
H797 C810 0.930 . S
H798 C814 0.959 . S
H799 C814 0.959 . S
H800 C814 0.961 . S
H801 C815 0.960 . S
H802 C815 0.961 . S
H803 C815 0.959 . S
H804 C818 0.929 . S
H805 C819 0.931 . S
H806 C821 0.930 . S
C807 H795 0.930 . S
C807 C808 1.399 . S
C807 C812 1.399 . S
C808 C807 1.399 . S
C808 C809 1.376 . S
C809 H796 0.930 . S
C809 C808 1.376 . S
C809 C810 1.388 . S
C810 H797 0.930 . S
C810 C809 1.388 . S
C810 C811 1.390 . S
C811 C810 1.390 . S
C811 C812 1.394 . S
C811 C817 1.465 . S
C812 C807 1.399 . S
C812 C811 1.394 . S
C812 C813 1.516 . S
C813 C812 1.516 . S
C813 C814 1.502 . S
C813 C815 1.561 . S
C813 C816 1.526 . S
C814 H798 0.959 . S
C814 H799 0.959 . S
C814 H800 0.961 . S
C814 C813 1.502 . S
C815 H801 0.960 . S
C815 H802 0.961 . S
C815 H803 0.959 . S
C815 C813 1.561 . S
C816 C813 1.526 . S
C816 C817 1.396 . S
C816 C821 1.390 . S
C817 C811 1.465 . S
C817 C816 1.396 . S
C817 C818 1.399 . S
C818 H804 0.929 . S
C818 C817 1.399 . S
C818 C819 1.385 . S
C819 H805 0.931 . S
C819 C818 1.385 . S
C819 C820 1.389 . S
C820 C819 1.389 . S
C820 C821 1.387 . S
C821 H806 0.930 . S
C821 C816 1.390 . S
C821 C820 1.387 . S
H822 C834 0.930 . S
H823 C836 0.930 . S
H824 C837 0.930 . S
H825 C841 0.959 . S
H826 C841 0.959 . S
H827 C841 0.961 . S
H828 C842 0.960 . S
H829 C842 0.961 . S
H830 C842 0.959 . S
H831 C845 0.929 . S
H832 C846 0.931 . S
H833 C848 0.930 . S
C834 H822 0.930 . S
C834 C835 1.399 . S
C834 C839 1.399 . S
C835 C834 1.399 . S
C835 C836 1.376 . S
C836 H823 0.930 . S
C836 C835 1.376 . S
C836 C837 1.388 . S
C837 H824 0.930 . S
C837 C836 1.388 . S
C837 C838 1.390 . S
C838 C837 1.390 . S
C838 C839 1.394 . S
C838 C844 1.465 . S
C839 C834 1.399 . S
C839 C838 1.394 . S
C839 C840 1.516 . S
C840 C839 1.516 . S
C840 C841 1.502 . S
C840 C842 1.561 . S
C840 C843 1.526 . S
C841 H825 0.959 . S
C841 H826 0.959 . S
C841 H827 0.961 . S
C841 C840 1.502 . S
C842 H828 0.960 . S
C842 H829 0.961 . S
C842 H830 0.959 . S
C842 C840 1.561 . S
C843 C840 1.526 . S
C843 C844 1.396 . S
C843 C848 1.390 . S
C844 C838 1.465 . S
C844 C843 1.396 . S
C844 C845 1.399 . S
C845 H831 0.929 . S
C845 C844 1.399 . S
C845 C846 1.385 . S
C846 H832 0.931 . S
C846 C845 1.385 . S
C846 C847 1.389 . S
C847 C846 1.389 . S
C847 C848 1.387 . S
C848 H833 0.930 . S
C848 C843 1.390 . S
C848 C847 1.387 . S
H849 C861 0.930 . S
H850 C863 0.930 . S
H851 C864 0.930 . S
H852 C868 0.959 . S
H853 C868 0.959 . S
H854 C868 0.961 . S
H855 C869 0.960 . S
H856 C869 0.961 . S
H857 C869 0.959 . S
H858 C872 0.929 . S
H859 C873 0.931 . S
H860 C875 0.930 . S
C861 H849 0.930 . S
C861 C862 1.399 . S
C861 C866 1.399 . S
C862 C861 1.399 . S
C862 C863 1.376 . S
C863 H850 0.930 . S
C863 C862 1.376 . S
C863 C864 1.388 . S
C864 H851 0.930 . S
C864 C863 1.388 . S
C864 C865 1.390 . S
C865 C864 1.390 . S
C865 C866 1.394 . S
C865 C871 1.465 . S
C866 C861 1.399 . S
C866 C865 1.394 . S
C866 C867 1.516 . S
C867 C866 1.516 . S
C867 C868 1.502 . S
C867 C869 1.561 . S
C867 C870 1.526 . S
C868 H852 0.959 . S
C868 H853 0.959 . S
C868 H854 0.961 . S
C868 C867 1.502 . S
C869 H855 0.960 . S
C869 H856 0.961 . S
C869 H857 0.959 . S
C869 C867 1.561 . S
C870 C867 1.526 . S
C870 C871 1.396 . S
C870 C875 1.390 . S
C871 C865 1.465 . S
C871 C870 1.396 . S
C871 C872 1.399 . S
C872 H858 0.929 . S
C872 C871 1.399 . S
C872 C873 1.385 . S
C873 H859 0.931 . S
C873 C872 1.385 . S
C873 C874 1.389 . S
C874 C873 1.389 . S
C874 C875 1.387 . S
C875 H860 0.930 . S
C875 C870 1.390 . S
C875 C874 1.387 . S
H876 C888 0.930 . S
H877 C890 0.930 . S
H878 C891 0.930 . S
H879 C895 0.959 . S
H880 C895 0.959 . S
H881 C895 0.961 . S
H882 C896 0.960 . S
H883 C896 0.961 . S
H884 C896 0.959 . S
H885 C899 0.929 . S
H886 C900 0.931 . S
H887 C902 0.930 . S
C888 H876 0.930 . S
C888 C889 1.399 . S
C888 C893 1.399 . S
C889 C888 1.399 . S
C889 C890 1.376 . S
C890 H877 0.930 . S
C890 C889 1.376 . S
C890 C891 1.388 . S
C891 H878 0.930 . S
C891 C890 1.388 . S
C891 C892 1.390 . S
C892 C891 1.390 . S
C892 C893 1.394 . S
C892 C898 1.465 . S
C893 C888 1.399 . S
C893 C892 1.394 . S
C893 C894 1.516 . S
C894 C893 1.516 . S
C894 C895 1.502 . S
C894 C896 1.561 . S
C894 C897 1.526 . S
C895 H879 0.959 . S
C895 H880 0.959 . S
C895 H881 0.961 . S
C895 C894 1.502 . S
C896 H882 0.960 . S
C896 H883 0.961 . S
C896 H884 0.959 . S
C896 C894 1.561 . S
C897 C894 1.526 . S
C897 C898 1.396 . S
C897 C902 1.390 . S
C898 C892 1.465 . S
C898 C897 1.396 . S
C898 C899 1.399 . S
C899 H885 0.929 . S
C899 C898 1.399 . S
C899 C900 1.385 . S
C900 H886 0.931 . S
C900 C899 1.385 . S
C900 C901 1.389 . S
C901 C900 1.389 . S
C901 C902 1.387 . S
C902 H887 0.930 . S
C902 C897 1.390 . S
C902 C901 1.387 . S
H903 C915 0.930 . S
H904 C917 0.930 . S
H905 C918 0.930 . S
H906 C922 0.959 . S
H907 C922 0.959 . S
H908 C922 0.961 . S
H909 C923 0.960 . S
H910 C923 0.961 . S
H911 C923 0.959 . S
H912 C926 0.929 . S
H913 C927 0.931 . S
H914 C929 0.930 . S
C915 H903 0.930 . S
C915 C916 1.399 . S
C915 C920 1.399 . S
C916 C915 1.399 . S
C916 C917 1.376 . S
C917 H904 0.930 . S
C917 C916 1.376 . S
C917 C918 1.388 . S
C918 H905 0.930 . S
C918 C917 1.388 . S
C918 C919 1.390 . S
C919 C918 1.390 . S
C919 C920 1.394 . S
C919 C925 1.465 . S
C920 C915 1.399 . S
C920 C919 1.394 . S
C920 C921 1.516 . S
C921 C920 1.516 . S
C921 C922 1.502 . S
C921 C923 1.561 . S
C921 C924 1.526 . S
C922 H906 0.959 . S
C922 H907 0.959 . S
C922 H908 0.961 . S
C922 C921 1.502 . S
C923 H909 0.960 . S
C923 H910 0.961 . S
C923 H911 0.959 . S
C923 C921 1.561 . S
C924 C921 1.526 . S
C924 C925 1.396 . S
C924 C929 1.390 . S
C925 C919 1.465 . S
C925 C924 1.396 . S
C925 C926 1.399 . S
C926 H912 0.929 . S
C926 C925 1.399 . S
C926 C927 1.385 . S
C927 H913 0.931 . S
C927 C926 1.385 . S
C927 C928 1.389 . S
C928 C927 1.389 . S
C928 C929 1.387 . S
C929 H914 0.930 . S
C929 C924 1.390 . S
C929 C928 1.387 . S
H930 C942 0.930 . S
H931 C944 0.930 . S
H932 C945 0.930 . S
H933 C949 0.959 . S
H934 C949 0.959 . S
H935 C949 0.961 . S
H936 C950 0.960 . S
H937 C950 0.961 . S
H938 C950 0.959 . S
H939 C953 0.929 . S
H940 C954 0.931 . S
H941 C956 0.930 . S
C942 H930 0.930 . S
C942 C943 1.399 . S
C942 C947 1.399 . S
C943 C942 1.399 . S
C943 C944 1.376 . S
C944 H931 0.930 . S
C944 C943 1.376 . S
C944 C945 1.388 . S
C945 H932 0.930 . S
C945 C944 1.388 . S
C945 C946 1.390 . S
C946 C945 1.390 . S
C946 C947 1.394 . S
C946 C952 1.465 . S
C947 C942 1.399 . S
C947 C946 1.394 . S
C947 C948 1.516 . S
C948 C947 1.516 . S
C948 C949 1.502 . S
C948 C950 1.561 . S
C948 C951 1.526 . S
C949 H933 0.959 . S
C949 H934 0.959 . S
C949 H935 0.961 . S
C949 C948 1.502 . S
C950 H936 0.960 . S
C950 H937 0.961 . S
C950 H938 0.959 . S
C950 C948 1.561 . S
C951 C948 1.526 . S
C951 C952 1.396 . S
C951 C956 1.390 . S
C952 C946 1.465 . S
C952 C951 1.396 . S
C952 C953 1.399 . S
C953 H939 0.929 . S
C953 C952 1.399 . S
C953 C954 1.385 . S
C954 H940 0.931 . S
C954 C953 1.385 . S
C954 C955 1.389 . S
C955 C954 1.389 . S
C955 C956 1.387 . S
C956 H941 0.930 . S
C956 C951 1.390 . S
C956 C955 1.387 . S
H957 C969 0.930 . S
H958 C971 0.930 . S
H959 C972 0.930 . S
H960 C976 0.959 . S
H961 C976 0.959 . S
H962 C976 0.961 . S
H963 C977 0.960 . S
H964 C977 0.961 . S
H965 C977 0.959 . S
H966 C980 0.929 . S
H967 C981 0.931 . S
H968 C983 0.930 . S
C969 H957 0.930 . S
C969 C970 1.399 . S
C969 C974 1.399 . S
C970 C969 1.399 . S
C970 C971 1.376 . S
C971 H958 0.930 . S
C971 C970 1.376 . S
C971 C972 1.388 . S
C972 H959 0.930 . S
C972 C971 1.388 . S
C972 C973 1.390 . S
C973 C972 1.390 . S
C973 C974 1.394 . S
C973 C979 1.465 . S
C974 C969 1.399 . S
C974 C973 1.394 . S
C974 C975 1.516 . S
C975 C974 1.516 . S
C975 C976 1.502 . S
C975 C977 1.561 . S
C975 C978 1.526 . S
C976 H960 0.959 . S
C976 H961 0.959 . S
C976 H962 0.961 . S
C976 C975 1.502 . S
C977 H963 0.960 . S
C977 H964 0.961 . S
C977 H965 0.959 . S
C977 C975 1.561 . S
C978 C975 1.526 . S
C978 C979 1.396 . S
C978 C983 1.390 . S
C979 C973 1.465 . S
C979 C978 1.396 . S
C979 C980 1.399 . S
C980 H966 0.929 . S
C980 C979 1.399 . S
C980 C981 1.385 . S
C981 H967 0.931 . S
C981 C980 1.385 . S
C981 C982 1.389 . S
C982 C981 1.389 . S
C982 C983 1.387 . S
C983 H968 0.930 . S
C983 C978 1.390 . S
C983 C982 1.387 . S
H984 C996 0.930 . S
H985 C998 0.930 . S
H986 C999 0.930 . S
H987 C1003 0.959 . S
H988 C1003 0.959 . S
H989 C1003 0.961 . S
H990 C1004 0.960 . S
H991 C1004 0.961 . S
H992 C1004 0.959 . S
H993 C1007 0.929 . S
H994 C1008 0.931 . S
H995 C1010 0.930 . S
C996 H984 0.930 . S
C996 C997 1.399 . S
C996 C1001 1.399 . S
C997 C996 1.399 . S
C997 C998 1.376 . S
C998 H985 0.930 . S
C998 C997 1.376 . S
C998 C999 1.388 . S
C999 H986 0.930 . S
C999 C998 1.388 . S
C999 C1000 1.390 . S
C1000 C999 1.390 . S
C1000 C1001 1.394 . S
C1000 C1006 1.465 . S
C1001 C996 1.399 . S
C1001 C1000 1.394 . S
C1001 C1002 1.516 . S
C1002 C1001 1.516 . S
C1002 C1003 1.502 . S
C1002 C1004 1.561 . S
C1002 C1005 1.526 . S
C1003 H987 0.959 . S
C1003 H988 0.959 . S
C1003 H989 0.961 . S
C1003 C1002 1.502 . S
C1004 H990 0.960 . S
C1004 H991 0.961 . S
C1004 H992 0.959 . S
C1004 C1002 1.561 . S
C1005 C1002 1.526 . S
C1005 C1006 1.396 . S
C1005 C1010 1.390 . S
C1006 C1000 1.465 . S
C1006 C1005 1.396 . S
C1006 C1007 1.399 . S
C1007 H993 0.929 . S
C1007 C1006 1.399 . S
C1007 C1008 1.385 . S
C1008 H994 0.931 . S
C1008 C1007 1.385 . S
C1008 C1009 1.389 . S
C1009 C1008 1.389 . S
C1009 C1010 1.387 . S
C1010 H995 0.930 . S
C1010 C1005 1.390 . S
C1010 C1009 1.387 . S
H1011 C1023 0.930 . S
H1012 C1025 0.930 . S
H1013 C1026 0.930 . S
H1014 C1030 0.959 . S
H1015 C1030 0.959 . S
H1016 C1030 0.961 . S
H1017 C1031 0.960 . S
H1018 C1031 0.961 . S
H1019 C1031 0.959 . S
H1020 C1034 0.929 . S
H1021 C1035 0.931 . S
H1022 C1037 0.930 . S
C1023 H1011 0.930 . S
C1023 C1024 1.399 . S
C1023 C1028 1.399 . S
C1024 C1023 1.399 . S
C1024 C1025 1.376 . S
C1025 H1012 0.930 . S
C1025 C1024 1.376 . S
C1025 C1026 1.388 . S
C1026 H1013 0.930 . S
C1026 C1025 1.388 . S
C1026 C1027 1.390 . S
C1027 C1026 1.390 . S
C1027 C1028 1.394 . S
C1027 C1033 1.465 . S
C1028 C1023 1.399 . S
C1028 C1027 1.394 . S
C1028 C1029 1.516 . S
C1029 C1028 1.516 . S
C1029 C1030 1.502 . S
C1029 C1031 1.561 . S
C1029 C1032 1.526 . S
C1030 H1014 0.959 . S
C1030 H1015 0.959 . S
C1030 H1016 0.961 . S
C1030 C1029 1.502 . S
C1031 H1017 0.960 . S
C1031 H1018 0.961 . S
C1031 H1019 0.959 . S
C1031 C1029 1.561 . S
C1032 C1029 1.526 . S
C1032 C1033 1.396 . S
C1032 C1037 1.390 . S
C1033 C1027 1.465 . S
C1033 C1032 1.396 . S
C1033 C1034 1.399 . S
C1034 H1020 0.929 . S
C1034 C1033 1.399 . S
C1034 C1035 1.385 . S
C1035 H1021 0.931 . S
C1035 C1034 1.385 . S
C1035 C1036 1.389 . S
C1036 C1035 1.389 . S
C1036 C1037 1.387 . S
C1037 H1022 0.930 . S
C1037 C1032 1.390 . S
C1037 C1036 1.387 . S
H1038 C1050 0.930 . S
H1039 C1052 0.930 . S
H1040 C1053 0.930 . S
H1041 C1057 0.959 . S
H1042 C1057 0.959 . S
H1043 C1057 0.961 . S
H1044 C1058 0.960 . S
H1045 C1058 0.961 . S
H1046 C1058 0.959 . S
H1047 C1061 0.929 . S
H1048 C1062 0.931 . S
H1049 C1064 0.930 . S
C1050 H1038 0.930 . S
C1050 C1051 1.399 . S
C1050 C1055 1.399 . S
C1051 C1050 1.399 . S
C1051 C1052 1.376 . S
C1052 H1039 0.930 . S
C1052 C1051 1.376 . S
C1052 C1053 1.388 . S
C1053 H1040 0.930 . S
C1053 C1052 1.388 . S
C1053 C1054 1.390 . S
C1054 C1053 1.390 . S
C1054 C1055 1.394 . S
C1054 C1060 1.465 . S
C1055 C1050 1.399 . S
C1055 C1054 1.394 . S
C1055 C1056 1.516 . S
C1056 C1055 1.516 . S
C1056 C1057 1.502 . S
C1056 C1058 1.561 . S
C1056 C1059 1.526 . S
C1057 H1041 0.959 . S
C1057 H1042 0.959 . S
C1057 H1043 0.961 . S
C1057 C1056 1.502 . S
C1058 H1044 0.960 . S
C1058 H1045 0.961 . S
C1058 H1046 0.959 . S
C1058 C1056 1.561 . S
C1059 C1056 1.526 . S
C1059 C1060 1.396 . S
C1059 C1064 1.390 . S
C1060 C1054 1.465 . S
C1060 C1059 1.396 . S
C1060 C1061 1.399 . S
C1061 H1047 0.929 . S
C1061 C1060 1.399 . S
C1061 C1062 1.385 . S
C1062 H1048 0.931 . S
C1062 C1061 1.385 . S
C1062 C1063 1.389 . S
C1063 C1062 1.389 . S
C1063 C1064 1.387 . S
C1064 H1049 0.930 . S
C1064 C1059 1.390 . S
C1064 C1063 1.387 . S
H1065 C1077 0.930 . S
H1066 C1079 0.930 . S
H1067 C1080 0.930 . S
H1068 C1084 0.959 . S
H1069 C1084 0.959 . S
H1070 C1084 0.961 . S
H1071 C1085 0.960 . S
H1072 C1085 0.961 . S
H1073 C1085 0.959 . S
H1074 C1088 0.929 . S
H1075 C1089 0.931 . S
H1076 C1091 0.930 . S
C1077 H1065 0.930 . S
C1077 C1078 1.399 . S
C1077 C1082 1.399 . S
C1078 C1077 1.399 . S
C1078 C1079 1.376 . S
C1079 H1066 0.930 . S
C1079 C1078 1.376 . S
C1079 C1080 1.388 . S
C1080 H1067 0.930 . S
C1080 C1079 1.388 . S
C1080 C1081 1.390 . S
C1081 C1080 1.390 . S
C1081 C1082 1.394 . S
C1081 C1087 1.465 . S
C1082 C1077 1.399 . S
C1082 C1081 1.394 . S
C1082 C1083 1.516 . S
C1083 C1082 1.516 . S
C1083 C1084 1.502 . S
C1083 C1085 1.561 . S
C1083 C1086 1.526 . S
C1084 H1068 0.959 . S
C1084 H1069 0.959 . S
C1084 H1070 0.961 . S
C1084 C1083 1.502 . S
C1085 H1071 0.960 . S
C1085 H1072 0.961 . S
C1085 H1073 0.959 . S
C1085 C1083 1.561 . S
C1086 C1083 1.526 . S
C1086 C1087 1.396 . S
C1086 C1091 1.390 . S
C1087 C1081 1.465 . S
C1087 C1086 1.396 . S
C1087 C1088 1.399 . S
C1088 H1074 0.929 . S
C1088 C1087 1.399 . S
C1088 C1089 1.385 . S
C1089 H1075 0.931 . S
C1089 C1088 1.385 . S
C1089 C1090 1.389 . S
C1090 C1089 1.389 . S
C1090 C1091 1.387 . S
C1091 H1076 0.930 . S
C1091 C1086 1.390 . S
C1091 C1090 1.387 . S
H1092 C1104 0.930 . S
H1093 C1106 0.930 . S
H1094 C1107 0.930 . S
H1095 C1111 0.959 . S
H1096 C1111 0.959 . S
H1097 C1111 0.961 . S
H1098 C1112 0.960 . S
H1099 C1112 0.961 . S
H1100 C1112 0.959 . S
H1101 C1115 0.929 . S
H1102 C1116 0.931 . S
H1103 C1118 0.930 . S
C1104 H1092 0.930 . S
C1104 C1105 1.399 . S
C1104 C1109 1.399 . S
C1105 C1104 1.399 . S
C1105 C1106 1.376 . S
C1106 H1093 0.930 . S
C1106 C1105 1.376 . S
C1106 C1107 1.388 . S
C1107 H1094 0.930 . S
C1107 C1106 1.388 . S
C1107 C1108 1.390 . S
C1108 C1107 1.390 . S
C1108 C1109 1.394 . S
C1108 C1114 1.465 . S
C1109 C1104 1.399 . S
C1109 C1108 1.394 . S
C1109 C1110 1.516 . S
C1110 C1109 1.516 . S
C1110 C1111 1.502 . S
C1110 C1112 1.561 . S
C1110 C1113 1.526 . S
C1111 H1095 0.959 . S
C1111 H1096 0.959 . S
C1111 H1097 0.961 . S
C1111 C1110 1.502 . S
C1112 H1098 0.960 . S
C1112 H1099 0.961 . S
C1112 H1100 0.959 . S
C1112 C1110 1.561 . S
C1113 C1110 1.526 . S
C1113 C1114 1.396 . S
C1113 C1118 1.390 . S
C1114 C1108 1.465 . S
C1114 C1113 1.396 . S
C1114 C1115 1.399 . S
C1115 H1101 0.929 . S
C1115 C1114 1.399 . S
C1115 C1116 1.385 . S
C1116 H1102 0.931 . S
C1116 C1115 1.385 . S
C1116 C1117 1.389 . S
C1117 C1116 1.389 . S
C1117 C1118 1.387 . S
C1118 H1103 0.930 . S
C1118 C1113 1.390 . S
C1118 C1117 1.387 . S
H1119 C1131 0.930 . S
H1120 C1133 0.930 . S
H1121 C1134 0.930 . S
H1122 C1138 0.959 . S
H1123 C1138 0.959 . S
H1124 C1138 0.961 . S
H1125 C1139 0.960 . S
H1126 C1139 0.961 . S
H1127 C1139 0.959 . S
H1128 C1142 0.929 . S
H1129 C1143 0.931 . S
H1130 C1145 0.930 . S
C1131 H1119 0.930 . S
C1131 C1132 1.399 . S
C1131 C1136 1.399 . S
C1132 C1131 1.399 . S
C1132 C1133 1.376 . S
C1133 H1120 0.930 . S
C1133 C1132 1.376 . S
C1133 C1134 1.388 . S
C1134 H1121 0.930 . S
C1134 C1133 1.388 . S
C1134 C1135 1.390 . S
C1135 C1134 1.390 . S
C1135 C1136 1.394 . S
C1135 C1141 1.465 . S
C1136 C1131 1.399 . S
C1136 C1135 1.394 . S
C1136 C1137 1.516 . S
C1137 C1136 1.516 . S
C1137 C1138 1.502 . S
C1137 C1139 1.561 . S
C1137 C1140 1.526 . S
C1138 H1122 0.959 . S
C1138 H1123 0.959 . S
C1138 H1124 0.961 . S
C1138 C1137 1.502 . S
C1139 H1125 0.960 . S
C1139 H1126 0.961 . S
C1139 H1127 0.959 . S
C1139 C1137 1.561 . S
C1140 C1137 1.526 . S
C1140 C1141 1.396 . S
C1140 C1145 1.390 . S
C1141 C1135 1.465 . S
C1141 C1140 1.396 . S
C1141 C1142 1.399 . S
C1142 H1128 0.929 . S
C1142 C1141 1.399 . S
C1142 C1143 1.385 . S
C1143 H1129 0.931 . S
C1143 C1142 1.385 . S
C1143 C1144 1.389 . S
C1144 C1143 1.389 . S
C1144 C1145 1.387 . S
C1145 H1130 0.930 . S
C1145 C1140 1.390 . S
C1145 C1144 1.387 . S
H1146 C1158 0.930 . S
H1147 C1160 0.930 . S
H1148 C1161 0.930 . S
H1149 C1165 0.959 . S
H1150 C1165 0.959 . S
H1151 C1165 0.961 . S
H1152 C1166 0.960 . S
H1153 C1166 0.961 . S
H1154 C1166 0.959 . S
H1155 C1169 0.929 . S
H1156 C1170 0.931 . S
H1157 C1172 0.930 . S
C1158 H1146 0.930 . S
C1158 C1159 1.399 . S
C1158 C1163 1.399 . S
C1159 C1158 1.399 . S
C1159 C1160 1.376 . S
C1160 H1147 0.930 . S
C1160 C1159 1.376 . S
C1160 C1161 1.388 . S
C1161 H1148 0.930 . S
C1161 C1160 1.388 . S
C1161 C1162 1.390 . S
C1162 C1161 1.390 . S
C1162 C1163 1.394 . S
C1162 C1168 1.465 . S
C1163 C1158 1.399 . S
C1163 C1162 1.394 . S
C1163 C1164 1.516 . S
C1164 C1163 1.516 . S
C1164 C1165 1.502 . S
C1164 C1166 1.561 . S
C1164 C1167 1.526 . S
C1165 H1149 0.959 . S
C1165 H1150 0.959 . S
C1165 H1151 0.961 . S
C1165 C1164 1.502 . S
C1166 H1152 0.960 . S
C1166 H1153 0.961 . S
C1166 H1154 0.959 . S
C1166 C1164 1.561 . S
C1167 C1164 1.526 . S
C1167 C1168 1.396 . S
C1167 C1172 1.390 . S
C1168 C1162 1.465 . S
C1168 C1167 1.396 . S
C1168 C1169 1.399 . S
C1169 H1155 0.929 . S
C1169 C1168 1.399 . S
C1169 C1170 1.385 . S
C1170 H1156 0.931 . S
C1170 C1169 1.385 . S
C1170 C1171 1.389 . S
C1171 C1170 1.389 . S
C1171 C1172 1.387 . S
C1172 H1157 0.930 . S
C1172 C1167 1.390 . S
C1172 C1171 1.387 . S
H1173 C1185 0.930 . S
H1174 C1187 0.930 . S
H1175 C1188 0.930 . S
H1176 C1192 0.959 . S
H1177 C1192 0.959 . S
H1178 C1192 0.961 . S
H1179 C1193 0.960 . S
H1180 C1193 0.961 . S
H1181 C1193 0.959 . S
H1182 C1196 0.929 . S
H1183 C1197 0.931 . S
H1184 C1199 0.930 . S
C1185 H1173 0.930 . S
C1185 C1186 1.399 . S
C1185 C1190 1.399 . S
C1186 C1185 1.399 . S
C1186 C1187 1.376 . S
C1187 H1174 0.930 . S
C1187 C1186 1.376 . S
C1187 C1188 1.388 . S
C1188 H1175 0.930 . S
C1188 C1187 1.388 . S
C1188 C1189 1.390 . S
C1189 C1188 1.390 . S
C1189 C1190 1.394 . S
C1189 C1195 1.465 . S
C1190 C1185 1.399 . S
C1190 C1189 1.394 . S
C1190 C1191 1.516 . S
C1191 C1190 1.516 . S
C1191 C1192 1.502 . S
C1191 C1193 1.561 . S
C1191 C1194 1.526 . S
C1192 H1176 0.959 . S
C1192 H1177 0.959 . S
C1192 H1178 0.961 . S
C1192 C1191 1.502 . S
C1193 H1179 0.960 . S
C1193 H1180 0.961 . S
C1193 H1181 0.959 . S
C1193 C1191 1.561 . S
C1194 C1191 1.526 . S
C1194 C1195 1.396 . S
C1194 C1199 1.390 . S
C1195 C1189 1.465 . S
C1195 C1194 1.396 . S
C1195 C1196 1.399 . S
C1196 H1182 0.929 . S
C1196 C1195 1.399 . S
C1196 C1197 1.385 . S
C1197 H1183 0.931 . S
C1197 C1196 1.385 . S
C1197 C1198 1.389 . S
C1198 C1197 1.389 . S
C1198 C1199 1.387 . S
C1199 H1184 0.930 . S
C1199 C1194 1.390 . S
C1199 C1198 1.387 . S
H1200 C1212 0.930 . S
H1201 C1214 0.930 . S
H1202 C1215 0.930 . S
H1203 C1219 0.959 . S
H1204 C1219 0.959 . S
H1205 C1219 0.961 . S
H1206 C1220 0.960 . S
H1207 C1220 0.961 . S
H1208 C1220 0.959 . S
H1209 C1223 0.929 . S
H1210 C1224 0.931 . S
H1211 C1226 0.930 . S
C1212 H1200 0.930 . S
C1212 C1213 1.399 . S
C1212 C1217 1.399 . S
C1213 C1212 1.399 . S
C1213 C1214 1.376 . S
C1214 H1201 0.930 . S
C1214 C1213 1.376 . S
C1214 C1215 1.388 . S
C1215 H1202 0.930 . S
C1215 C1214 1.388 . S
C1215 C1216 1.390 . S
C1216 C1215 1.390 . S
C1216 C1217 1.394 . S
C1216 C1222 1.465 . S
C1217 C1212 1.399 . S
C1217 C1216 1.394 . S
C1217 C1218 1.516 . S
C1218 C1217 1.516 . S
C1218 C1219 1.502 . S
C1218 C1220 1.561 . S
C1218 C1221 1.526 . S
C1219 H1203 0.959 . S
C1219 H1204 0.959 . S
C1219 H1205 0.961 . S
C1219 C1218 1.502 . S
C1220 H1206 0.960 . S
C1220 H1207 0.961 . S
C1220 H1208 0.959 . S
C1220 C1218 1.561 . S
C1221 C1218 1.526 . S
C1221 C1222 1.396 . S
C1221 C1226 1.390 . S
C1222 C1216 1.465 . S
C1222 C1221 1.396 . S
C1222 C1223 1.399 . S
C1223 H1209 0.929 . S
C1223 C1222 1.399 . S
C1223 C1224 1.385 . S
C1224 H1210 0.931 . S
C1224 C1223 1.385 . S
C1224 C1225 1.389 . S
C1225 C1224 1.389 . S
C1225 C1226 1.387 . S
C1226 H1211 0.930 . S
C1226 C1221 1.390 . S
C1226 C1225 1.387 . S
H1227 C1239 0.930 . S
H1228 C1241 0.930 . S
H1229 C1242 0.930 . S
H1230 C1246 0.959 . S
H1231 C1246 0.959 . S
H1232 C1246 0.961 . S
H1233 C1247 0.960 . S
H1234 C1247 0.961 . S
H1235 C1247 0.959 . S
H1236 C1250 0.929 . S
H1237 C1251 0.931 . S
H1238 C1253 0.930 . S
C1239 H1227 0.930 . S
C1239 C1240 1.399 . S
C1239 C1244 1.399 . S
C1240 C1239 1.399 . S
C1240 C1241 1.376 . S
C1241 H1228 0.930 . S
C1241 C1240 1.376 . S
C1241 C1242 1.388 . S
C1242 H1229 0.930 . S
C1242 C1241 1.388 . S
C1242 C1243 1.390 . S
C1243 C1242 1.390 . S
C1243 C1244 1.394 . S
C1243 C1249 1.465 . S
C1244 C1239 1.399 . S
C1244 C1243 1.394 . S
C1244 C1245 1.516 . S
C1245 C1244 1.516 . S
C1245 C1246 1.502 . S
C1245 C1247 1.561 . S
C1245 C1248 1.526 . S
C1246 H1230 0.959 . S
C1246 H1231 0.959 . S
C1246 H1232 0.961 . S
C1246 C1245 1.502 . S
C1247 H1233 0.960 . S
C1247 H1234 0.961 . S
C1247 H1235 0.959 . S
C1247 C1245 1.561 . S
C1248 C1245 1.526 . S
C1248 C1249 1.396 . S
C1248 C1253 1.390 . S
C1249 C1243 1.465 . S
C1249 C1248 1.396 . S
C1249 C1250 1.399 . S
C1250 H1236 0.929 . S
C1250 C1249 1.399 . S
C1250 C1251 1.385 . S
C1251 H1237 0.931 . S
C1251 C1250 1.385 . S
C1251 C1252 1.389 . S
C1252 C1251 1.389 . S
C1252 C1253 1.387 . S
C1253 H1238 0.930 . S
C1253 C1248 1.390 . S
C1253 C1252 1.387 . S
C631 C310 1.539 . S
C619 C25 1.548 . S
C658 C379 1.523 . S
C646 C37 1.549 . S
C685 C317 1.545 . S
C673 C103 1.548 . S
C712 C380 1.533 . S
C700 C139 1.546 . S
C739 C433 1.528 . S
C727 C31 1.542 . S
C766 C469 1.524 . S
C754 C67 1.519 . S
C781 C97 1.530 . S
C793 C529 1.569 . S
C820 C592 1.515 . S
C808 C133 1.510 . S
C847 C432 1.531 . S
C835 C61 1.538 . S
C862 C73 1.516 . S
C874 C476 1.530 . S
C901 C522 1.558 . S
C889 C109 1.555 . S
C928 C591 1.506 . S
C916 C1 1.515 . S
C943 C169 1.535 . S
C955 C370 1.536 . S
C982 C327 1.550 . S
C970 C211 1.554 . S
C997 C241 1.534 . S
C1009 C363 1.545 . S
C1024 C253 1.536 . S
C1036 C326 1.529 . S
C1063 C538 1.560 . S
C1051 C175 1.559 . S
C1090 C582 1.511 . S
C1078 C205 1.521 . S
C1117 C416 1.527 . S
C1105 C217 1.552 . S
C1132 C283 1.502 . S
C1144 C485 1.527 . S
C1171 C539 1.545 . S
C1159 C181 1.543 . S
C1198 C575 1.524 . S
C1186 C247 1.520 . S
C1225 C423 1.540 . S
C1213 C277 1.547 . S
C1240 C145 1.507 . S
C1252 C486 1.533 . S
