# Generated by pormake.
# Topology ctn, (3,4)-cn, num edge types: 1
# Building blocks:
#     Node 0, Type 0, BuildingBlock: QEWDON_clean_linker_0, # of connection points: 3
#     Node 1, Type 0, BuildingBlock: QEWDON_clean_linker_0, # of connection points: 3
#     Node 2, Type 0, BuildingBlock: QEWDON_clean_linker_0, # of connection points: 3
#     Node 3, Type 0, BuildingBlock: QEWDON_clean_linker_0, # of connection points: 3
#     Node 4, Type 0, BuildingBlock: QEWDON_clean_linker_0, # of connection points: 3
#     Node 5, Type 0, BuildingBlock: QEWDON_clean_linker_0, # of connection points: 3
#     Node 6, Type 0, BuildingBlock: QEWDON_clean_linker_0, # of connection points: 3
#     Node 7, Type 0, BuildingBlock: QEWDON_clean_linker_0, # of connection points: 3
#     Node 8, Type 0, BuildingBlock: QEWDON_clean_linker_0, # of connection points: 3
#     Node 9, Type 0, BuildingBlock: QEWDON_clean_linker_0, # of connection points: 3
#     Node 10, Type 0, BuildingBlock: QEWDON_clean_linker_0, # of connection points: 3
#     Node 11, Type 0, BuildingBlock: QEWDON_clean_linker_0, # of connection points: 3
#     Node 12, Type 0, BuildingBlock: QEWDON_clean_linker_0, # of connection points: 3
#     Node 13, Type 0, BuildingBlock: QEWDON_clean_linker_0, # of connection points: 3
#     Node 14, Type 0, BuildingBlock: QEWDON_clean_linker_0, # of connection points: 3
#     Node 15, Type 0, BuildingBlock: QEWDON_clean_linker_0, # of connection points: 3
#     Node 16, Type 1, BuildingBlock: NAHDIM_clean_sbu_0, # of connection points: 4
#     Node 17, Type 1, BuildingBlock: NAHDIM_clean_sbu_0, # of connection points: 4
#     Node 18, Type 1, BuildingBlock: NAHDIM_clean_sbu_0, # of connection points: 4
#     Node 19, Type 1, BuildingBlock: NAHDIM_clean_sbu_0, # of connection points: 4
#     Node 20, Type 1, BuildingBlock: NAHDIM_clean_sbu_0, # of connection points: 4
#     Node 21, Type 1, BuildingBlock: NAHDIM_clean_sbu_0, # of connection points: 4
#     Node 22, Type 1, BuildingBlock: NAHDIM_clean_sbu_0, # of connection points: 4
#     Node 23, Type 1, BuildingBlock: NAHDIM_clean_sbu_0, # of connection points: 4
#     Node 24, Type 1, BuildingBlock: NAHDIM_clean_sbu_0, # of connection points: 4
#     Node 25, Type 1, BuildingBlock: NAHDIM_clean_sbu_0, # of connection points: 4
#     Node 26, Type 1, BuildingBlock: NAHDIM_clean_sbu_0, # of connection points: 4
#     Node 27, Type 1, BuildingBlock: NAHDIM_clean_sbu_0, # of connection points: 4
#     Edge 28, Type (0, 1), BuildingBlock: UVAHIK_clean_linker_0, # of connection points: 2
#     Edge 29, Type (0, 1), BuildingBlock: UVAHIK_clean_linker_0, # of connection points: 2
#     Edge 30, Type (0, 1), BuildingBlock: UVAHIK_clean_linker_0, # of connection points: 2
#     Edge 31, Type (0, 1), BuildingBlock: UVAHIK_clean_linker_0, # of connection points: 2
#     Edge 32, Type (0, 1), BuildingBlock: UVAHIK_clean_linker_0, # of connection points: 2
#     Edge 33, Type (0, 1), BuildingBlock: UVAHIK_clean_linker_0, # of connection points: 2
#     Edge 34, Type (0, 1), BuildingBlock: UVAHIK_clean_linker_0, # of connection points: 2
#     Edge 35, Type (0, 1), BuildingBlock: UVAHIK_clean_linker_0, # of connection points: 2
#     Edge 36, Type (0, 1), BuildingBlock: UVAHIK_clean_linker_0, # of connection points: 2
#     Edge 37, Type (0, 1), BuildingBlock: UVAHIK_clean_linker_0, # of connection points: 2
#     Edge 38, Type (0, 1), BuildingBlock: UVAHIK_clean_linker_0, # of connection points: 2
#     Edge 39, Type (0, 1), BuildingBlock: UVAHIK_clean_linker_0, # of connection points: 2
#     Edge 40, Type (0, 1), BuildingBlock: UVAHIK_clean_linker_0, # of connection points: 2
#     Edge 41, Type (0, 1), BuildingBlock: UVAHIK_clean_linker_0, # of connection points: 2
#     Edge 42, Type (0, 1), BuildingBlock: UVAHIK_clean_linker_0, # of connection points: 2
#     Edge 43, Type (0, 1), BuildingBlock: UVAHIK_clean_linker_0, # of connection points: 2
#     Edge 44, Type (0, 1), BuildingBlock: UVAHIK_clean_linker_0, # of connection points: 2
#     Edge 45, Type (0, 1), BuildingBlock: UVAHIK_clean_linker_0, # of connection points: 2
#     Edge 46, Type (0, 1), BuildingBlock: UVAHIK_clean_linker_0, # of connection points: 2
#     Edge 47, Type (0, 1), BuildingBlock: UVAHIK_clean_linker_0, # of connection points: 2
#     Edge 48, Type (0, 1), BuildingBlock: UVAHIK_clean_linker_0, # of connection points: 2
#     Edge 49, Type (0, 1), BuildingBlock: UVAHIK_clean_linker_0, # of connection points: 2
#     Edge 50, Type (0, 1), BuildingBlock: UVAHIK_clean_linker_0, # of connection points: 2
#     Edge 51, Type (0, 1), BuildingBlock: UVAHIK_clean_linker_0, # of connection points: 2
#     Edge 52, Type (0, 1), BuildingBlock: UVAHIK_clean_linker_0, # of connection points: 2
#     Edge 53, Type (0, 1), BuildingBlock: UVAHIK_clean_linker_0, # of connection points: 2
#     Edge 54, Type (0, 1), BuildingBlock: UVAHIK_clean_linker_0, # of connection points: 2
#     Edge 55, Type (0, 1), BuildingBlock: UVAHIK_clean_linker_0, # of connection points: 2
#     Edge 56, Type (0, 1), BuildingBlock: UVAHIK_clean_linker_0, # of connection points: 2
#     Edge 57, Type (0, 1), BuildingBlock: UVAHIK_clean_linker_0, # of connection points: 2
#     Edge 58, Type (0, 1), BuildingBlock: UVAHIK_clean_linker_0, # of connection points: 2
#     Edge 59, Type (0, 1), BuildingBlock: UVAHIK_clean_linker_0, # of connection points: 2
#     Edge 60, Type (0, 1), BuildingBlock: UVAHIK_clean_linker_0, # of connection points: 2
#     Edge 61, Type (0, 1), BuildingBlock: UVAHIK_clean_linker_0, # of connection points: 2
#     Edge 62, Type (0, 1), BuildingBlock: UVAHIK_clean_linker_0, # of connection points: 2
#     Edge 63, Type (0, 1), BuildingBlock: UVAHIK_clean_linker_0, # of connection points: 2
#     Edge 64, Type (0, 1), BuildingBlock: UVAHIK_clean_linker_0, # of connection points: 2
#     Edge 65, Type (0, 1), BuildingBlock: UVAHIK_clean_linker_0, # of connection points: 2
#     Edge 66, Type (0, 1), BuildingBlock: UVAHIK_clean_linker_0, # of connection points: 2
#     Edge 67, Type (0, 1), BuildingBlock: UVAHIK_clean_linker_0, # of connection points: 2
#     Edge 68, Type (0, 1), BuildingBlock: UVAHIK_clean_linker_0, # of connection points: 2
#     Edge 69, Type (0, 1), BuildingBlock: UVAHIK_clean_linker_0, # of connection points: 2
#     Edge 70, Type (0, 1), BuildingBlock: UVAHIK_clean_linker_0, # of connection points: 2
#     Edge 71, Type (0, 1), BuildingBlock: UVAHIK_clean_linker_0, # of connection points: 2
#     Edge 72, Type (0, 1), BuildingBlock: UVAHIK_clean_linker_0, # of connection points: 2
#     Edge 73, Type (0, 1), BuildingBlock: UVAHIK_clean_linker_0, # of connection points: 2
#     Edge 74, Type (0, 1), BuildingBlock: UVAHIK_clean_linker_0, # of connection points: 2
#     Edge 75, Type (0, 1), BuildingBlock: UVAHIK_clean_linker_0, # of connection points: 2
# Relax obj value: 0.113
# Max RMSD: 0.276
# Mean RMSD: 0.159
data_MOF--net-ctn--node1-NAHDIM_clean_sbu_0--node2-QEWDON_clean_linker_0--edge1-UVAHIK_clean_linker_0
_symmetry_space_group_name_H-M    P1
_symmetry_Int_Tables_number       1
_symmetry_cell_setting            triclinic
loop_
_symmetry_equiv_pos_as_xyz
'x, y, z'
_cell_length_a     68.220666
_cell_length_b     71.288641
_cell_length_c     75.206466
_cell_angle_alpha  99.203639
_cell_angle_beta   91.945198
_cell_angle_gamma 97.512051
loop_
_atom_site_label
_atom_site_type_symbol
_atom_site_fract_x
_atom_site_fract_y
_atom_site_fract_z
_atom_type_partial_charge
H0 H 0.09006 0.04907 0.06147 0.0
C1 C 0.08106 0.04549 0.07237 0.0
C2 C 0.08131 0.02771 0.07826 0.0
C3 C 0.06986 0.0591 0.08097 0.0
H4 H 0.07021 0.01029 0.09777 0.0
C5 C 0.0696 0.02355 0.09261 0.0
C6 C 0.05793 0.03687 0.10106 0.0
C7 C 0.05813 0.05454 0.09505 0.0
C8 C 0.07174 0.07878 0.07655 0.0
H9 H 0.0492 0.06494 0.10142 0.0
C10 C 0.06962 0.08204 0.05863 0.0
C11 C 0.07165 0.10093 0.05486 0.0
C12 C 0.07596 0.09455 0.09059 0.0
H13 H 0.07786 0.09242 0.10446 0.0
C14 C 0.07804 0.11321 0.0869 0.0
H15 H 0.06635 0.06997 0.04773 0.0
C16 C 0.0759 0.11642 0.06919 0.0
H17 H 0.07726 0.13109 0.06673 0.0
H18 H 0.08128 0.12525 0.09781 0.0
H19 H 0.32105 0.74308 0.24769 0.0
C20 C 0.31053 0.73012 0.24397 0.0
C21 C 0.31514 0.71267 0.2482 0.0
C22 C 0.29235 0.73109 0.23514 0.0
H23 H 0.30436 0.68281 0.24761 0.0
C24 C 0.30122 0.69609 0.24357 0.0
C25 C 0.28271 0.69689 0.23507 0.0
C26 C 0.27854 0.71444 0.23059 0.0
C27 C 0.28714 0.74992 0.23238 0.0
H28 H 0.2643 0.71535 0.22417 0.0
C29 C 0.28421 0.7542 0.21494 0.0
C30 C 0.28028 0.77263 0.2126 0.0
C31 C 0.28569 0.76396 0.24746 0.0
H32 H 0.28789 0.76088 0.26099 0.0
C33 C 0.28128 0.78201 0.24523 0.0
H34 H 0.28573 0.74347 0.2033 0.0
C35 C 0.27864 0.78637 0.22796 0.0
H36 H 0.27523 0.80051 0.22662 0.0
H37 H 0.28004 0.79271 0.25694 0.0
H38 H 0.03502 0.47015 0.0234 0.0
C39 C 0.02241 0.47768 0.02187 0.0
C40 C 0.01255 0.48491 0.03709 0.0
C41 C 0.01675 0.48094 0.00467 0.0
H42 H 0.9884 0.50025 0.04615 0.0
C43 C 0.99652 0.49507 0.03466 0.0
C44 C 0.99066 0.49833 0.01743 0.0
C45 C 0.00101 0.49132 0.00254 0.0
C46 C 0.02759 0.47406 0.98884 0.0
H47 H 0.99697 0.49406 0.98922 0.0
C48 C 0.02683 0.45431 0.9826 0.0
C49 C 0.03593 0.44778 0.96668 0.0
C50 C 0.0379 0.4873 0.97937 0.0
H51 H 0.03856 0.50258 0.98398 0.0
C52 C 0.0474 0.4809 0.96387 0.0
H53 H 0.01843 0.44413 0.98969 0.0
C54 C 0.04638 0.46128 0.95749 0.0
H55 H 0.05375 0.45666 0.94535 0.0
H56 H 0.05542 0.49118 0.95666 0.0
H57 H 0.77334 0.78818 0.24799 0.0
C58 C 0.77482 0.78218 0.234 0.0
C59 C 0.7822 0.79414 0.22186 0.0
C60 C 0.77003 0.76235 0.2283 0.0
H61 H 0.79054 0.79498 0.19454 0.0
C62 C 0.78419 0.786 0.2038 0.0
C63 C 0.77925 0.76617 0.19789 0.0
C64 C 0.77216 0.75447 0.21028 0.0
C65 C 0.76419 0.7495 0.24134 0.0
H66 H 0.76828 0.73913 0.20598 0.0
C67 C 0.74664 0.75071 0.25047 0.0
C68 C 0.74085 0.73782 0.26233 0.0
C69 C 0.7761 0.73555 0.2443 0.0
H70 H 0.78967 0.73441 0.23736 0.0
C71 C 0.77064 0.723 0.25626 0.0
H72 H 0.73743 0.76146 0.24813 0.0
C73 C 0.75313 0.72404 0.26519 0.0
H74 H 0.74897 0.71375 0.274 0.0
H75 H 0.77989 0.71226 0.25847 0.0
H76 H 0.11057 0.94934 0.47997 0.0
C77 C 0.09788 0.95257 0.47255 0.0
C78 C 0.09815 0.97067 0.46733 0.0
C79 C 0.08189 0.93807 0.46709 0.0
H80 H 0.08211 0.98805 0.45272 0.0
C81 C 0.08188 0.97421 0.45698 0.0
C82 C 0.06582 0.95976 0.4513 0.0
C83 C 0.06594 0.94168 0.45649 0.0
C84 C 0.0832 0.91842 0.4703 0.0
H85 H 0.05387 0.93025 0.45197 0.0
C86 C 0.07775 0.91259 0.48665 0.0
C87 C 0.07982 0.89392 0.48964 0.0
C88 C 0.09048 0.90552 0.4569 0.0
H89 H 0.09474 0.90984 0.44424 0.0
C90 C 0.09252 0.88702 0.4598 0.0
H91 H 0.07219 0.9226 0.49703 0.0
C92 C 0.08729 0.88124 0.47607 0.0
H93 H 0.08883 0.86674 0.47794 0.0
H94 H 0.09817 0.87713 0.44941 0.0
H95 H 0.26588 0.68583 0.78279 0.0
C96 C 0.26225 0.69497 0.79484 0.0
C97 C 0.26912 0.69197 0.81183 0.0
C98 C 0.25061 0.70952 0.7932 0.0
H99 H 0.26986 0.70182 0.84048 0.0
C100 C 0.26402 0.70365 0.82738 0.0
C101 C 0.25238 0.71834 0.82605 0.0
C102 C 0.24556 0.72101 0.80887 0.0
C103 C 0.24457 0.71315 0.77504 0.0
H104 H 0.23666 0.73231 0.80765 0.0
C105 C 0.22505 0.71614 0.77086 0.0
C106 C 0.21939 0.71899 0.7534 0.0
C107 C 0.25847 0.71345 0.76166 0.0
H108 H 0.27366 0.71149 0.76457 0.0
C109 C 0.25299 0.71651 0.74444 0.0
H110 H 0.21414 0.71564 0.78098 0.0
C111 C 0.2336 0.71921 0.74029 0.0
H112 H 0.22977 0.72167 0.72684 0.0
H113 H 0.26384 0.7168 0.73428 0.0
H114 H 0.96824 0.57963 0.46108 0.0
C115 C 0.96007 0.56632 0.46366 0.0
C116 C 0.95575 0.56406 0.48138 0.0
C117 C 0.9537 0.5516 0.44912 0.0
H118 H 0.94065 0.54537 0.49791 0.0
C119 C 0.94487 0.54682 0.48438 0.0
C120 C 0.93812 0.53202 0.46992 0.0
C121 C 0.94289 0.53444 0.45229 0.0
C122 C 0.95646 0.55513 0.43049 0.0
H123 H 0.9376 0.52328 0.44096 0.0
C124 C 0.96892 0.54502 0.41917 0.0
C125 C 0.97151 0.54884 0.4015 0.0
C126 C 0.94657 0.56899 0.42409 0.0
H127 H 0.93694 0.57692 0.43266 0.0
C128 C 0.94889 0.57264 0.40658 0.0
H129 H 0.97663 0.53437 0.42414 0.0
C130 C 0.96126 0.56268 0.39534 0.0
H131 H 0.96315 0.56611 0.38193 0.0
H132 H 0.94119 0.58335 0.40173 0.0
H133 H 0.8301 0.82484 0.80088 0.0
C134 C 0.82703 0.81344 0.80877 0.0
C135 C 0.83411 0.79578 0.80359 0.0
C136 C 0.81672 0.81678 0.82456 0.0
H137 H 0.83586 0.76775 0.81056 0.0
C138 C 0.83022 0.78128 0.81422 0.0
C139 C 0.81961 0.78431 0.82988 0.0
C140 C 0.81291 0.8021 0.83489 0.0
C141 C 0.81165 0.83615 0.83136 0.0
H142 H 0.80524 0.8048 0.84724 0.0
C143 C 0.80109 0.8461 0.82036 0.0
C144 C 0.79662 0.86457 0.82716 0.0
C145 C 0.81769 0.84485 0.84916 0.0
H146 H 0.82598 0.83756 0.85782 0.0
C147 C 0.81336 0.86312 0.85589 0.0
H148 H 0.79636 0.83948 0.80662 0.0
C149 C 0.80291 0.87293 0.84501 0.0
H150 H 0.79946 0.88699 0.85068 0.0
H151 H 0.81809 0.86968 0.86961 0.0
H152 H 0.33631 0.32005 0.29637 0.0
C153 C 0.33364 0.30895 0.30464 0.0
C154 C 0.34204 0.29185 0.30054 0.0
C155 C 0.32247 0.31217 0.31987 0.0
H156 H 0.34603 0.26512 0.30925 0.0
C157 C 0.3388 0.27786 0.31181 0.0
C158 C 0.32728 0.28071 0.32694 0.0
C159 C 0.31896 0.29785 0.33062 0.0
C160 C 0.31634 0.33125 0.32594 0.0
H161 H 0.30989 0.30033 0.34208 0.0
C162 C 0.30525 0.34021 0.31444 0.0
C163 C 0.29987 0.35847 0.32065 0.0
C164 C 0.32198 0.34069 0.3436 0.0
H165 H 0.33064 0.33415 0.35263 0.0
C166 C 0.31675 0.35875 0.34972 0.0
H167 H 0.30081 0.33301 0.30082 0.0
C168 C 0.30579 0.3676 0.33837 0.0
H169 H 0.30164 0.38152 0.34357 0.0
H170 H 0.32118 0.3659 0.36334 0.0
H171 H 0.53659 0.96883 0.52799 0.0
C172 C 0.52373 0.97583 0.52586 0.0
C173 C 0.51354 0.98358 0.54064 0.0
C174 C 0.51807 0.9779 0.50828 0.0
H175 H 0.48887 0.99865 0.54859 0.0
C176 C 0.49721 0.99307 0.53742 0.0
C177 C 0.49136 0.99515 0.5198 0.0
C178 C 0.50201 0.98761 0.50532 0.0
C179 C 0.52934 0.97048 0.49293 0.0
H180 H 0.49796 0.98944 0.4917 0.0
C181 C 0.52917 0.95064 0.48774 0.0
C182 C 0.5393 0.94351 0.47267 0.0
C183 C 0.53989 0.98325 0.48316 0.0
H184 H 0.54011 0.9986 0.48698 0.0
C185 C 0.55032 0.9763 0.46845 0.0
H186 H 0.52092 0.94081 0.49528 0.0
C187 C 0.55003 0.95657 0.46318 0.0
H188 H 0.55779 0.95153 0.45141 0.0
H189 H 0.55847 0.98622 0.46097 0.0
H190 H 0.27239 0.28278 0.7384 0.0
C191 C 0.27321 0.27765 0.72412 0.0
C192 C 0.28097 0.29032 0.71275 0.0
C193 C 0.26721 0.25817 0.71722 0.0
H194 H 0.28869 0.29285 0.68551 0.0
C195 C 0.28232 0.28333 0.69432 0.0
C196 C 0.27612 0.26395 0.68727 0.0
C197 C 0.26853 0.25147 0.69878 0.0
C198 C 0.261 0.24443 0.72941 0.0
H199 H 0.26418 0.23637 0.69349 0.0
C200 C 0.24503 0.24695 0.74049 0.0
C201 C 0.23901 0.23352 0.75178 0.0
C202 C 0.27107 0.22853 0.72983 0.0
H203 H 0.28345 0.22638 0.72145 0.0
C204 C 0.26537 0.21537 0.74118 0.0
H205 H 0.23722 0.2592 0.74016 0.0
C206 C 0.24944 0.21779 0.75206 0.0
H207 H 0.24501 0.20709 0.76041 0.0
H208 H 0.27322 0.20316 0.74142 0.0
H209 H 0.83665 0.24197 0.74484 0.0
C210 C 0.8245 0.2304 0.74117 0.0
C211 C 0.82591 0.21246 0.74612 0.0
C212 C 0.80721 0.2338 0.7322 0.0
H213 H 0.81086 0.18397 0.74592 0.0
C214 C 0.80994 0.19771 0.74175 0.0
C215 C 0.79259 0.20072 0.73262 0.0
C216 C 0.79137 0.21884 0.72778 0.0
C217 C 0.80527 0.25346 0.72897 0.0
H218 H 0.77791 0.22147 0.7211 0.0
C219 C 0.79979 0.25709 0.71173 0.0
C220 C 0.79896 0.27605 0.70884 0.0
C221 C 0.80932 0.26887 0.74336 0.0
H222 H 0.81335 0.26642 0.75678 0.0
C223 C 0.80805 0.28756 0.74066 0.0
H224 H 0.79693 0.2453 0.70052 0.0
C225 C 0.80298 0.29117 0.72354 0.0
H226 H 0.80209 0.30585 0.72182 0.0
H227 H 0.81109 0.29932 0.75186 0.0
H228 H 0.59145 0.55328 0.56357 0.0
C229 C 0.58212 0.54999 0.57436 0.0
C230 C 0.58193 0.5323 0.58048 0.0
C231 C 0.57097 0.56381 0.58263 0.0
H232 H 0.57021 0.51511 0.59988 0.0
C233 C 0.56993 0.52841 0.59469 0.0
C234 C 0.5586 0.5421 0.60303 0.0
C235 C 0.55918 0.55971 0.59681 0.0
C236 C 0.57288 0.58322 0.57765 0.0
H237 H 0.55048 0.57038 0.60307 0.0
C238 C 0.56956 0.58584 0.55968 0.0
C239 C 0.57126 0.60448 0.5553 0.0
C240 C 0.57805 0.59934 0.59116 0.0
H241 H 0.58078 0.59765 0.60505 0.0
C242 C 0.57994 0.61777 0.58686 0.0
H243 H 0.56553 0.57345 0.54921 0.0
C244 C 0.57655 0.62036 0.5691 0.0
H245 H 0.57768 0.63486 0.56622 0.0
H246 H 0.58391 0.6301 0.59737 0.0
H247 H 0.61223 0.45512 0.97427 0.0
C248 C 0.59959 0.45781 0.96639 0.0
C249 C 0.60014 0.47517 0.9597 0.0
C250 C 0.58349 0.44321 0.96164 0.0
H251 H 0.58435 0.49138 0.9436 0.0
C252 C 0.58408 0.47797 0.94872 0.0
C253 C 0.56798 0.46345 0.94373 0.0
C254 C 0.56769 0.4461 0.95038 0.0
C255 C 0.58496 0.42386 0.96564 0.0
H256 H 0.55579 0.43445 0.946 0.0
C257 C 0.58002 0.41879 0.98242 0.0
C258 C 0.58244 0.40043 0.98609 0.0
C259 C 0.59205 0.41049 0.95253 0.0
H260 H 0.59593 0.41423 0.93956 0.0
C261 C 0.59441 0.39231 0.95611 0.0
H262 H 0.57459 0.42913 0.99258 0.0
C263 C 0.58973 0.38731 0.97279 0.0
H264 H 0.59154 0.37304 0.97523 0.0
H265 H 0.59993 0.38208 0.94594 0.0
H266 H 0.76661 0.18499 0.28443 0.0
C267 C 0.76236 0.19305 0.29684 0.0
C268 C 0.76757 0.18791 0.31345 0.0
C269 C 0.75216 0.2088 0.29607 0.0
H270 H 0.76672 0.1951 0.34233 0.0
C271 C 0.76242 0.19878 0.32945 0.0
C272 C 0.75219 0.21462 0.32897 0.0
C273 C 0.74693 0.2194 0.31217 0.0
C274 C 0.74798 0.21468 0.27844 0.0
H275 H 0.73917 0.23164 0.31161 0.0
C276 C 0.72891 0.21819 0.27337 0.0
C277 C 0.72497 0.22301 0.25627 0.0
C278 C 0.7632 0.2165 0.26643 0.0
H279 H 0.77805 0.21409 0.2701 0.0
C280 C 0.75946 0.22163 0.24965 0.0
H281 H 0.71703 0.21649 0.28244 0.0
C282 C 0.7405 0.22481 0.24455 0.0
H283 H 0.738 0.22881 0.23144 0.0
H284 H 0.7713 0.22309 0.24053 0.0
H285 H 0.47133 0.07872 0.9586 0.0
C286 C 0.46194 0.06717 0.96319 0.0
C287 C 0.4602 0.06714 0.98177 0.0
C288 C 0.45094 0.05275 0.9505 0.0
H289 H 0.44625 0.05219 0.00175 0.0
C290 C 0.44771 0.0522 0.98745 0.0
C291 C 0.43642 0.03776 0.97489 0.0
C292 C 0.43819 0.03818 0.95638 0.0
C293 C 0.45101 0.05399 0.93111 0.0
H294 H 0.42913 0.02756 0.94648 0.0
C295 C 0.46747 0.05017 0.92104 0.0
C296 C 0.4669 0.05065 0.90235 0.0
C297 C 0.43414 0.05863 0.92254 0.0
H298 H 0.42135 0.0616 0.93013 0.0
C299 C 0.43368 0.05958 0.90418 0.0
H300 H 0.48033 0.04624 0.92764 0.0
C301 C 0.44989 0.05562 0.89412 0.0
H302 H 0.44913 0.05653 0.87988 0.0
H303 H 0.42067 0.06333 0.89768 0.0
C304 C 0.22649 0.90381 0.02202 0.0
O305 O 0.241 0.90995 0.01246 0.0
O306 O 0.24341 0.85201 0.00182 0.0
Zn307 Zn 0.24976 0.87263 0.02374 0.0
O308 O 0.27453 0.88966 0.01915 0.0
C309 C 0.24709 0.84361 0.04689 0.0
O310 O 0.23503 0.83389 0.03363 0.0
O311 O 0.22692 0.88814 0.02801 0.0
C312 C 0.28167 0.90484 0.02988 0.0
O313 O 0.27283 0.90975 0.04484 0.0
C314 C 0.24406 0.85652 0.98614 0.0
O315 O 0.2482 0.87469 0.98459 0.0
O316 O 0.25505 0.86049 0.04567 0.0
C317 C 0.16654 0.47349 0.25298 0.0
O318 O 0.17196 0.49208 0.25722 0.0
O319 O 0.11226 0.49073 0.25978 0.0
Zn320 Zn 0.13177 0.48697 0.24026 0.0
O321 O 0.14889 0.51208 0.23875 0.0
C322 C 0.1037 0.48941 0.21273 0.0
O323 O 0.10144 0.50435 0.2248 0.0
O324 O 0.14944 0.46735 0.24538 0.0
C325 C 0.14455 0.52861 0.24491 0.0
O326 O 0.12795 0.53005 0.25305 0.0
C327 C 0.11708 0.49431 0.27658 0.0
O328 O 0.13579 0.49559 0.28199 0.0
O329 O 0.11624 0.47861 0.21628 0.0
C330 C 0.83653 0.6104 0.9827 0.0
O331 O 0.82338 0.60387 0.96924 0.0
O332 O 0.81286 0.65433 0.97024 0.0
Zn333 Zn 0.81071 0.63957 0.99118 0.0
O334 O 0.78588 0.62024 0.98832 0.0
C335 C 0.80735 0.67486 0.01708 0.0
O336 O 0.80595 0.68342 0.00297 0.0
O337 O 0.83437 0.62562 0.99339 0.0
C338 C 0.7774 0.61193 0.97329 0.0
O339 O 0.78491 0.61584 0.95823 0.0
C340 C 0.79798 0.66099 0.9643 0.0
O341 O 0.78104 0.65817 0.97195 0.0
O342 O 0.80957 0.65722 0.01486 0.0
C343 C 0.88824 0.03536 0.29888 0.0
O344 O 0.88373 0.01987 0.30613 0.0
O345 O 0.93535 0.01212 0.30548 0.0
Zn346 Zn 0.91824 0.01392 0.28354 0.0
O347 O 0.8992 0.98938 0.27792 0.0
C348 C 0.93838 0.00319 0.25063 0.0
O349 O 0.93012 0.98581 0.252 0.0
O350 O 0.90277 0.03625 0.28876 0.0
C351 C 0.88549 0.98596 0.26551 0.0
O352 O 0.88318 0.99903 0.25541 0.0
C353 C 0.94211 0.99638 0.30587 0.0
O354 O 0.93814 0.98252 0.29194 0.0
O355 O 0.9354 0.01724 0.26249 0.0
C356 C 0.33417 0.10115 0.47867 0.0
O357 O 0.32025 0.09343 0.46616 0.0
O358 O 0.31256 0.14558 0.46317 0.0
Zn359 Zn 0.30949 0.13139 0.48437 0.0
O360 O 0.28462 0.11228 0.48026 0.0
C361 C 0.31216 0.16742 0.51069 0.0
O362 O 0.32031 0.1761 0.49808 0.0
O363 O 0.33289 0.11751 0.48783 0.0
C364 C 0.27918 0.10333 0.49298 0.0
O365 O 0.29014 0.10662 0.50815 0.0
C366 C 0.30038 0.15702 0.46042 0.0
O367 O 0.28603 0.15933 0.47144 0.0
O368 O 0.30693 0.14937 0.50755 0.0
C369 C 0.38555 0.53681 0.79911 0.0
O370 O 0.38214 0.52245 0.80808 0.0
O371 O 0.4283 0.50866 0.80202 0.0
Zn372 Zn 0.41208 0.51286 0.78022 0.0
O373 O 0.39173 0.4894 0.77211 0.0
C374 C 0.44692 0.51289 0.75831 0.0
O375 O 0.4544 0.50478 0.77099 0.0
O376 O 0.39788 0.53588 0.78679 0.0
C377 C 0.39484 0.4765 0.75917 0.0
O378 O 0.41128 0.47879 0.75069 0.0
C379 C 0.43189 0.49185 0.80338 0.0
O380 O 0.42513 0.47755 0.79048 0.0
O381 O 0.42961 0.51759 0.75965 0.0
C382 C 0.7283 0.40722 0.5339 0.0
O383 O 0.74682 0.41532 0.53658 0.0
O384 O 0.7401 0.35274 0.50171 0.0
Zn385 Zn 0.74748 0.37395 0.52297 0.0
O386 O 0.77088 0.39123 0.51592 0.0
C387 C 0.74451 0.34739 0.54829 0.0
O388 O 0.72888 0.33961 0.5377 0.0
O389 O 0.72465 0.38926 0.52817 0.0
C390 C 0.78797 0.39442 0.52397 0.0
O391 O 0.79116 0.38628 0.53809 0.0
C392 C 0.7531 0.3419 0.49716 0.0
O393 O 0.76998 0.3447 0.50679 0.0
O394 O 0.75479 0.36244 0.5448 0.0
C395 C 0.66965 0.98526 0.75845 0.0
O396 O 0.67545 0.00382 0.76243 0.0
O397 O 0.61611 0.00362 0.76486 0.0
Zn398 Zn 0.63514 0.99891 0.74509 0.0
O399 O 0.6524 0.02358 0.74238 0.0
C400 C 0.6058 0.99937 0.71769 0.0
O401 O 0.60283 0.01431 0.72945 0.0
O402 O 0.65256 0.97934 0.75077 0.0
C403 C 0.64757 0.04028 0.7467 0.0
O404 O 0.63045 0.0422 0.75376 0.0
C405 C 0.62136 0.01147 0.78101 0.0
O406 O 0.64027 0.01689 0.78554 0.0
O407 O 0.61916 0.98951 0.72145 0.0
C408 C 0.02801 0.17816 0.89538 0.0
O409 O 0.01296 0.17126 0.8838 0.0
O410 O 0.01084 0.20339 0.85886 0.0
Zn411 Zn 0.03473 0.21191 0.87622 0.0
O412 O 0.03226 0.23805 0.89012 0.0
C413 C 0.05943 0.21896 0.84664 0.0
O414 O 0.04269 0.2217 0.83895 0.0
O415 O 0.03816 0.19414 0.89417 0.0
C416 C 0.02634 0.25085 0.88209 0.0
O417 O 0.02155 0.24669 0.86471 0.0
C418 C 0.99326 0.20295 0.864 0.0
O419 O 0.99043 0.20669 0.88133 0.0
O420 O 0.05945 0.21442 0.86232 0.0
C421 C 0.52057 0.6895 0.40469 0.0
O422 O 0.51014 0.70362 0.40913 0.0
O423 O 0.50323 0.70304 0.35738 0.0
Zn424 Zn 0.52817 0.70841 0.37386 0.0
O425 O 0.52923 0.73449 0.3893 0.0
C426 C 0.55293 0.71321 0.3435 0.0
O427 O 0.53647 0.71605 0.33539 0.0
O428 O 0.5292 0.68832 0.38991 0.0
C429 C 0.52716 0.74889 0.38174 0.0
O430 O 0.52427 0.74633 0.36411 0.0
C431 C 0.48769 0.70968 0.36288 0.0
O432 O 0.48791 0.71894 0.37947 0.0
O433 O 0.55255 0.70933 0.35942 0.0
C434 C 0.00858 0.791 0.62861 0.0
O435 O 0.98936 0.78758 0.63012 0.0
O436 O 0.98741 0.76679 0.6648 0.0
Zn437 Zn 0.00933 0.75943 0.64868 0.0
O438 O 0.99952 0.73655 0.62943 0.0
C439 C 0.03694 0.76113 0.6796 0.0
O440 O 0.02707 0.77462 0.68722 0.0
O441 O 0.01983 0.78115 0.63588 0.0
C442 C 0.0023 0.7196 0.63108 0.0
O443 O 0.01105 0.7167 0.64604 0.0
C444 C 0.97372 0.7542 0.66827 0.0
O445 O 0.97371 0.73618 0.66098 0.0
O446 O 0.03191 0.7529 0.66352 0.0
C447 C 0.51631 0.29619 0.12527 0.0
O448 O 0.49714 0.29163 0.12636 0.0
O449 O 0.49618 0.27063 0.16115 0.0
Zn450 Zn 0.51865 0.26469 0.14517 0.0
O451 O 0.51005 0.2417 0.12565 0.0
C452 C 0.54525 0.26579 0.1768 0.0
O453 O 0.5337 0.27736 0.18505 0.0
O454 O 0.52813 0.28702 0.13272 0.0
C455 C 0.51406 0.22507 0.12715 0.0
O456 O 0.52323 0.22259 0.14207 0.0
C457 C 0.48398 0.25721 0.16541 0.0
O458 O 0.48585 0.23933 0.15895 0.0
O459 O 0.54163 0.25903 0.16015 0.0
C460 C 0.24385 0.72459 0.8586 0.0
C461 C 0.24832 0.73155 0.84252 0.0
C462 C 0.24099 0.73721 0.87427 0.0
C463 C 0.23017 0.78647 0.89055 0.0
H464 H 0.25601 0.7799 0.93542 0.0
C465 C 0.24315 0.84654 0.95261 0.0
C466 C 0.24148 0.84148 0.96986 0.0
C467 C 0.24186 0.83239 0.93728 0.0
C468 C 0.24842 0.78178 0.92308 0.0
H469 H 0.25337 0.75729 0.8304 0.0
H470 H 0.24827 0.7792 0.85762 0.0
H471 H 0.25751 0.75644 0.90828 0.0
H472 H 0.23662 0.81754 0.98448 0.0
H473 H 0.23417 0.79285 0.95767 0.0
H474 H 0.2213 0.81194 0.90529 0.0
C475 C 0.24667 0.76397 0.85806 0.0
C476 C 0.24929 0.76833 0.90751 0.0
C477 C 0.24958 0.75138 0.84243 0.0
C478 C 0.23805 0.82194 0.9714 0.0
C479 C 0.23676 0.80777 0.95604 0.0
C480 C 0.22927 0.79991 0.90612 0.0
C481 C 0.24249 0.75706 0.8742 0.0
C482 C 0.24039 0.77064 0.89101 0.0
C483 C 0.23884 0.81284 0.93881 0.0
C484 C 0.23861 0.79786 0.92253 0.0
H485 H 0.24252 0.70938 0.85907 0.0
H486 H 0.23754 0.7314 0.88643 0.0
H487 H 0.22287 0.7885 0.87812 0.0
H488 H 0.24583 0.86145 0.95094 0.0
H489 H 0.24379 0.83682 0.92425 0.0
C490 C 0.00461 0.53771 0.39603 0.0
C491 C 0.98538 0.53914 0.38956 0.0
C492 C 0.01843 0.53079 0.38419 0.0
C493 C 0.02868 0.52597 0.33591 0.0
H494 H 0.06788 0.49477 0.34837 0.0
C495 C 0.08181 0.49658 0.28396 0.0
C496 C 0.10176 0.4976 0.28984 0.0
C497 C 0.06741 0.50028 0.29634 0.0
C498 C 0.05712 0.50362 0.34475 0.0
H499 H 0.96515 0.53324 0.36588 0.0
H500 H 0.98908 0.52097 0.3453 0.0
H501 H 0.04288 0.5031 0.36969 0.0
H502 H 0.12215 0.50303 0.31343 0.0
H503 H 0.09703 0.50969 0.33505 0.0
H504 H 0.04292 0.52667 0.31109 0.0
C505 C 0.99371 0.52566 0.3594 0.0
C506 C 0.04279 0.50839 0.35697 0.0
C507 C 0.97997 0.53263 0.3712 0.0
C508 C 0.10692 0.50212 0.30844 0.0
C509 C 0.0925 0.50582 0.32085 0.0
C510 C 0.04295 0.52121 0.32373 0.0
C511 C 0.01326 0.52511 0.36565 0.0
C512 C 0.02837 0.51961 0.35267 0.0
C513 C 0.07259 0.50513 0.31493 0.0
C514 C 0.05735 0.50997 0.32797 0.0
H515 H 0.00926 0.54276 0.41009 0.0
H516 H 0.03338 0.53068 0.38944 0.0
H517 H 0.0181 0.535 0.3323 0.0
H518 H 0.07727 0.49303 0.26974 0.0
H519 H 0.05218 0.49932 0.29134 0.0
C520 C 0.79819 0.76563 0.84933 0.0
C521 C 0.81651 0.76945 0.8417 0.0
C522 C 0.79568 0.75273 0.86151 0.0
C523 C 0.81774 0.71357 0.87852 0.0
H524 H 0.78865 0.72841 0.92073 0.0
C525 C 0.81782 0.67539 0.94106 0.0
C526 C 0.79978 0.67225 0.94935 0.0
C527 C 0.81954 0.68643 0.92723 0.0
C528 C 0.79661 0.72392 0.90893 0.0
H529 H 0.84651 0.76252 0.84074 0.0
H530 H 0.84218 0.74007 0.86206 0.0
H531 H 0.79206 0.74884 0.8977 0.0
H532 H 0.76933 0.67802 0.94939 0.0
H533 H 0.77232 0.69714 0.92527 0.0
H534 H 0.82245 0.68873 0.88994 0.0
C535 C 0.82964 0.74683 0.85843 0.0
C536 C 0.79855 0.73563 0.89568 0.0
C537 C 0.83213 0.7597 0.84619 0.0
C538 C 0.78347 0.68022 0.94337 0.0
C539 C 0.78521 0.69128 0.92959 0.0
C540 C 0.81584 0.70186 0.89181 0.0
C541 C 0.81146 0.74338 0.86643 0.0
C542 C 0.80914 0.73062 0.88031 0.0
C543 C 0.80329 0.69461 0.92143 0.0
C544 C 0.80524 0.70691 0.90717 0.0
H545 H 0.7858 0.77271 0.84593 0.0
H546 H 0.78136 0.75014 0.86713 0.0
H547 H 0.82579 0.70915 0.86676 0.0
H548 H 0.83068 0.66947 0.94534 0.0
H549 H 0.83373 0.68888 0.92135 0.0
C550 C 0.0432 0.94926 0.42348 0.0
C551 C 0.04995 0.96316 0.43862 0.0
C552 C 0.02973 0.95311 0.41057 0.0
C553 C 0.01269 0.99352 0.39243 0.0
H554 H 0.97142 0.95433 0.36813 0.0
C555 C 0.95773 0.00778 0.33715 0.0
C556 C 0.9537 0.99332 0.32192 0.0
C557 C 0.96835 0.00455 0.35238 0.0
C558 C 0.98297 0.96539 0.3747 0.0
H559 H 0.04716 0.99172 0.45247 0.0
H560 H 0.0236 0.99845 0.42992 0.0
H561 H 0.99137 0.94768 0.3933 0.0
H562 H 0.95782 0.96419 0.31071 0.0
H563 H 0.97644 0.95868 0.33709 0.0
H564 H 0.00446 0.01113 0.37364 0.0
C565 C 0.02898 0.98467 0.4279 0.0
C566 C 0.99439 0.96158 0.38913 0.0
C567 C 0.04245 0.98081 0.44083 0.0
C568 C 0.96059 0.97563 0.32222 0.0
C569 C 0.97115 0.97241 0.33742 0.0
C570 C 0.00125 0.99733 0.37798 0.0
C571 C 0.02269 0.97096 0.41249 0.0
C572 C 0.00956 0.9755 0.39802 0.0
C573 C 0.9751 0.98679 0.3527 0.0
C574 C 0.98644 0.98322 0.36878 0.0
H575 H 0.04892 0.93565 0.42119 0.0
H576 H 0.02541 0.94233 0.39874 0.0
H577 H 0.02443 0.00448 0.39882 0.0
H578 H 0.95259 0.02156 0.33737 0.0
H579 H 0.97102 0.01588 0.36399 0.0
C580 C 0.29727 0.25968 0.6608 0.0
C581 C 0.27874 0.25637 0.66812 0.0
C582 C 0.3002 0.25132 0.64315 0.0
C583 C 0.27833 0.21113 0.60744 0.0
H584 H 0.31619 0.23574 0.5782 0.0
C585 C 0.30469 0.16906 0.54315 0.0
C586 C 0.30859 0.1785 0.52836 0.0
C587 C 0.30085 0.17932 0.55978 0.0
C588 C 0.30537 0.22873 0.58605 0.0
H589 H 0.24852 0.24244 0.66266 0.0
H590 H 0.2533 0.22842 0.63159 0.0
H591 H 0.30891 0.25294 0.60729 0.0
H592 H 0.31147 0.20609 0.51938 0.0
H593 H 0.30408 0.22396 0.54826 0.0
H594 H 0.27415 0.18724 0.58596 0.0
C595 C 0.26582 0.23692 0.63959 0.0
C596 C 0.3014 0.23851 0.60291 0.0
C597 C 0.263 0.24504 0.65733 0.0
C598 C 0.30864 0.19844 0.53057 0.0
C599 C 0.30449 0.20869 0.54717 0.0
C600 C 0.28208 0.20147 0.59052 0.0
C601 C 0.28456 0.23966 0.63235 0.0
C602 C 0.28799 0.22976 0.61393 0.0
C603 C 0.30047 0.19925 0.56199 0.0
C604 C 0.29586 0.21001 0.57968 0.0
H605 H 0.3097 0.2682 0.66894 0.0
H606 H 0.31491 0.25352 0.63823 0.0
H607 H 0.26812 0.20375 0.61558 0.0
H608 H 0.30474 0.15372 0.54192 0.0
H609 H 0.29833 0.17159 0.57094 0.0
C610 C 0.54693 0.5532 0.63375 0.0
C611 C 0.54697 0.53852 0.61884 0.0
C612 C 0.53588 0.55008 0.64855 0.0
C613 C 0.51222 0.5119 0.67172 0.0
H614 H 0.4834 0.55205 0.6941 0.0
C615 C 0.47708 0.51003 0.74043 0.0
C616 C 0.45824 0.51585 0.74226 0.0
C617 C 0.48762 0.51249 0.72515 0.0
C618 C 0.49123 0.54063 0.68794 0.0
H619 H 0.53546 0.50898 0.60788 0.0
H620 H 0.51614 0.50349 0.63381 0.0
H621 H 0.50194 0.55661 0.66764 0.0
H622 H 0.4357 0.52882 0.72943 0.0
H623 H 0.45405 0.53303 0.70276 0.0
H624 H 0.50129 0.49583 0.69192 0.0
C625 C 0.52481 0.5174 0.63406 0.0
C626 C 0.50204 0.54333 0.67288 0.0
C627 C 0.53587 0.52054 0.61921 0.0
C628 C 0.45021 0.52424 0.72849 0.0
C629 C 0.46077 0.52673 0.71323 0.0
C630 C 0.50144 0.50922 0.68683 0.0
C631 C 0.52461 0.53218 0.64887 0.0
C632 C 0.51274 0.52904 0.66463 0.0
C633 C 0.47959 0.52086 0.71136 0.0
C634 C 0.49086 0.52358 0.69515 0.0
H635 H 0.55566 0.5671 0.6341 0.0
H636 H 0.53638 0.56165 0.65988 0.0
H637 H 0.52042 0.50067 0.66578 0.0
H638 H 0.48373 0.50354 0.75079 0.0
H639 H 0.50219 0.50805 0.72425 0.0
C640 C 0.77845 0.26971 0.67946 0.0
C641 C 0.79432 0.28042 0.69061 0.0
C642 C 0.77332 0.27497 0.66291 0.0
C643 C 0.79247 0.30405 0.62879 0.0
H644 H 0.73701 0.30617 0.61753 0.0
C645 C 0.76711 0.3466 0.57514 0.0
C646 C 0.75023 0.33853 0.56391 0.0
C647 C 0.77255 0.33815 0.58979 0.0
C648 C 0.75254 0.30542 0.62033 0.0
H649 H 0.81782 0.30442 0.69275 0.0
H650 H 0.80881 0.31367 0.66414 0.0
H651 H 0.7466 0.29312 0.6441 0.0
H652 H 0.72586 0.31518 0.55927 0.0
H653 H 0.73543 0.30039 0.58473 0.0
H654 H 0.79846 0.31656 0.60516 0.0
C655 C 0.8003 0.30121 0.66807 0.0
C656 C 0.75803 0.29791 0.63556 0.0
C657 C 0.80535 0.29603 0.68458 0.0
C658 C 0.73892 0.32182 0.56767 0.0
C659 C 0.74435 0.31337 0.58233 0.0
C660 C 0.78699 0.31155 0.61357 0.0
C661 C 0.78408 0.29091 0.65711 0.0
C662 C 0.77809 0.29737 0.64011 0.0
C663 C 0.76124 0.32142 0.59357 0.0
C664 C 0.76697 0.31256 0.60927 0.0
H665 H 0.76964 0.25765 0.68376 0.0
H666 H 0.76086 0.26661 0.65469 0.0
H667 H 0.80803 0.30355 0.63173 0.0
H668 H 0.77614 0.35949 0.57266 0.0
H669 H 0.78548 0.3449 0.59831 0.0
C670 C 0.52825 0.96617 0.5634 0.0
C671 C 0.52048 0.98248 0.55941 0.0
C672 C 0.53591 0.96571 0.58079 0.0
C673 C 0.53494 0.98799 0.62837 0.0
H674 H 0.58747 0.97355 0.63334 0.0
C675 C 0.58161 0.00748 0.69539 0.0
C676 C 0.59438 0.99487 0.70007 0.0
C677 C 0.57138 0.00392 0.67854 0.0
C678 C 0.57264 0.97728 0.63224 0.0
H679 H 0.51464 0.01104 0.57082 0.0
H680 H 0.52752 0.00998 0.60117 0.0
H681 H 0.57145 0.97082 0.60337 0.0
H682 H 0.60607 0.96837 0.69083 0.0
H683 H 0.58784 0.9619 0.66146 0.0
H684 H 0.53601 0.99445 0.65716 0.0
C685 C 0.52759 0.99753 0.59081 0.0
C686 C 0.56349 0.97576 0.61504 0.0
C687 C 0.52014 0.99809 0.5734 0.0
C688 C 0.59641 0.97841 0.6876 0.0
C689 C 0.58604 0.97476 0.67073 0.0
C690 C 0.54399 0.98934 0.64556 0.0
C691 C 0.53575 0.98143 0.59465 0.0
C692 C 0.5447 0.98143 0.61292 0.0
C693 C 0.57349 0.98756 0.66594 0.0
C694 C 0.56313 0.98438 0.64772 0.0
H695 H 0.52845 0.95374 0.55307 0.0
H696 H 0.54192 0.95302 0.58342 0.0
H697 H 0.52032 0.99218 0.62714 0.0
H698 H 0.57976 0.02036 0.70461 0.0
H699 H 0.56219 0.0143 0.67525 0.0
C700 C 0.86272 0.21487 0.75164 0.0
C701 C 0.84352 0.20947 0.75688 0.0
C702 C 0.87927 0.21239 0.76207 0.0
C703 C 0.89437 0.18743 0.79941 0.0
H704 H 0.94047 0.22633 0.80435 0.0
C705 C 0.95679 0.19729 0.8558 0.0
C706 C 0.97637 0.20046 0.85056 0.0
C707 C 0.94084 0.19657 0.84339 0.0
C708 C 0.92778 0.21525 0.80294 0.0
H709 H 0.82653 0.19753 0.77723 0.0
H710 H 0.85526 0.19375 0.79573 0.0
H711 H 0.91219 0.2289 0.78468 0.0
H712 H 0.99456 0.20498 0.82809 0.0
H713 H 0.96669 0.20399 0.80655 0.0
H714 H 0.90985 0.17426 0.81831 0.0
C715 C 0.85769 0.19932 0.7833 0.0
C716 C 0.91156 0.21665 0.7916 0.0
C717 C 0.84118 0.20156 0.77274 0.0
C718 C 0.97965 0.20247 0.83256 0.0
C719 C 0.96372 0.20203 0.82024 0.0
C720 C 0.91049 0.18619 0.81095 0.0
C721 C 0.87699 0.20472 0.77814 0.0
C722 C 0.89458 0.20281 0.78972 0.0
C723 C 0.94417 0.19928 0.82558 0.0
C724 C 0.92733 0.20012 0.81286 0.0
H725 H 0.86492 0.22087 0.73938 0.0
H726 H 0.89384 0.21641 0.75745 0.0
H727 H 0.88176 0.17627 0.79806 0.0
H728 H 0.95378 0.19568 0.86956 0.0
H729 H 0.92591 0.19454 0.8479 0.0
C730 C 0.55475 0.91439 0.46028 0.0
C731 C 0.53797 0.92254 0.46626 0.0
C732 C 0.55317 0.8949 0.453 0.0
C733 C 0.51691 0.85525 0.42984 0.0
H734 H 0.55719 0.82378 0.43907 0.0
C735 C 0.52388 0.78373 0.38422 0.0
C736 C 0.52778 0.76823 0.39258 0.0
C737 C 0.52451 0.80205 0.39433 0.0
C738 C 0.54573 0.83233 0.43648 0.0
H739 H 0.50644 0.91656 0.46959 0.0
H740 H 0.50372 0.8825 0.45707 0.0
H741 H 0.55943 0.85654 0.45547 0.0
H742 H 0.5354 0.7598 0.41813 0.0
H743 H 0.53653 0.79187 0.43579 0.0
H744 H 0.50324 0.83111 0.41083 0.0
C745 C 0.51807 0.89122 0.45789 0.0
C746 C 0.54711 0.85114 0.44575 0.0
C747 C 0.51967 0.91068 0.46524 0.0
C748 C 0.53234 0.77145 0.41128 0.0
C749 C 0.53308 0.78983 0.42139 0.0
C750 C 0.51559 0.8365 0.42052 0.0
C751 C 0.53475 0.88317 0.45147 0.0
C752 C 0.53279 0.86285 0.44243 0.0
C753 C 0.52915 0.80531 0.41302 0.0
C754 C 0.53007 0.82489 0.42361 0.0
H755 H 0.56909 0.92312 0.46105 0.0
H756 H 0.56626 0.88917 0.44805 0.0
H757 H 0.50575 0.86396 0.42684 0.0
H758 H 0.52034 0.78176 0.36984 0.0
H759 H 0.52167 0.81373 0.38744 0.0
C760 C 0.20382 0.23974 0.75515 0.0
C761 C 0.22142 0.2353 0.76271 0.0
C762 C 0.18669 0.23952 0.76487 0.0
C763 C 0.16391 0.21795 0.80191 0.0
H764 H 0.1269 0.25457 0.79997 0.0
C765 C 0.09609 0.21878 0.84559 0.0
C766 C 0.07813 0.22149 0.83731 0.0
C767 C 0.11376 0.22129 0.83684 0.0
C768 C 0.13701 0.24413 0.8005 0.0
H769 H 0.23516 0.22822 0.78674 0.0
H770 H 0.20535 0.22798 0.80374 0.0
H771 H 0.15764 0.25814 0.78435 0.0
H772 H 0.06467 0.22902 0.81333 0.0
H773 H 0.09548 0.2332 0.798 0.0
H774 H 0.14329 0.20386 0.81793 0.0
C775 C 0.20464 0.23119 0.79015 0.0
C776 C 0.15462 0.24619 0.79157 0.0
C777 C 0.22173 0.23137 0.78043 0.0
C778 C 0.07824 0.22682 0.8201 0.0
C779 C 0.09593 0.22935 0.81136 0.0
C780 C 0.14633 0.2159 0.81083 0.0
C781 C 0.18682 0.2349 0.78236 0.0
C782 C 0.16827 0.23311 0.79216 0.0
C783 C 0.11389 0.22658 0.81961 0.0
C784 C 0.13266 0.22895 0.81022 0.0
H785 H 0.20306 0.24262 0.74145 0.0
H786 H 0.17317 0.24227 0.75841 0.0
H787 H 0.1739 0.20739 0.80235 0.0
H788 H 0.09655 0.21476 0.85887 0.0
H789 H 0.12737 0.21929 0.84368 0.0
C790 C 0.57895 0.62177 0.52933 0.0
C791 C 0.56688 0.60771 0.53662 0.0
C792 C 0.57362 0.62662 0.51274 0.0
C793 C 0.56314 0.62987 0.47401 0.0
H794 H 0.50826 0.63742 0.46747 0.0
C795 C 0.53568 0.66168 0.41328 0.0
C796 C 0.52358 0.67614 0.41744 0.0
C797 C 0.53976 0.65011 0.42595 0.0
C798 C 0.52364 0.63539 0.46908 0.0
H799 H 0.54015 0.5871 0.53183 0.0
H800 H 0.53094 0.59539 0.50262 0.0
H801 H 0.51855 0.62287 0.49284 0.0
H802 H 0.50576 0.68932 0.43797 0.0
H803 H 0.51307 0.66938 0.46007 0.0
H804 H 0.56843 0.64322 0.45077 0.0
C805 C 0.54442 0.60284 0.5099 0.0
C806 C 0.5295 0.62682 0.48351 0.0
C807 C 0.5498 0.59795 0.52653 0.0
C808 C 0.51515 0.67834 0.43431 0.0
C809 C 0.51924 0.66679 0.44696 0.0
C810 C 0.55728 0.63844 0.45959 0.0
C811 C 0.55608 0.61751 0.50298 0.0
C812 C 0.54941 0.62434 0.48638 0.0
C813 C 0.53183 0.65272 0.44305 0.0
C814 C 0.53754 0.64169 0.45718 0.0
H815 H 0.59232 0.6294 0.53669 0.0
H816 H 0.58287 0.6381 0.50793 0.0
H817 H 0.57854 0.62795 0.47569 0.0
H818 H 0.54233 0.65952 0.40037 0.0
H819 H 0.5493 0.63924 0.4224 0.0
C820 C 0.86144 0.80755 0.7848 0.0
C821 C 0.8467 0.79285 0.78785 0.0
C822 C 0.87422 0.8044 0.77081 0.0
C823 C 0.88088 0.77144 0.72852 0.0
H824 H 0.93643 0.79143 0.73902 0.0
C825 C 0.9427 0.74579 0.6839 0.0
C826 C 0.95831 0.75962 0.68078 0.0
C827 C 0.92846 0.75068 0.6961 0.0
C828 C 0.92093 0.78596 0.73578 0.0
H829 H 0.83348 0.76348 0.77813 0.0
H830 H 0.85606 0.75783 0.75404 0.0
H831 H 0.91261 0.79845 0.76172 0.0
H832 H 0.97102 0.78954 0.6879 0.0
H833 H 0.94612 0.79807 0.70919 0.0
H834 H 0.88933 0.75866 0.70267 0.0
C835 C 0.85761 0.77189 0.76233 0.0
C836 C 0.90725 0.79 0.74879 0.0
C837 C 0.84479 0.77506 0.77629 0.0
C838 C 0.95922 0.77852 0.69001 0.0
C839 C 0.94501 0.78339 0.70228 0.0
C840 C 0.89458 0.76734 0.71553 0.0
C841 C 0.87265 0.78645 0.75955 0.0
C842 C 0.88705 0.78272 0.74538 0.0
C843 C 0.92951 0.7695 0.70553 0.0
C844 C 0.91479 0.77446 0.71904 0.0
H845 H 0.8635 0.82137 0.79354 0.0
H846 H 0.88544 0.81603 0.76891 0.0
H847 H 0.86541 0.76584 0.72532 0.0
H848 H 0.94155 0.73109 0.67703 0.0
H849 H 0.91686 0.73959 0.69844 0.0
C850 C 0.0554 0.88963 0.51341 0.0
C851 C 0.07405 0.88732 0.5067 0.0
C852 C 0.04917 0.88142 0.52834 0.0
C853 C 0.05947 0.84219 0.55267 0.0
H854 H 0.0256 0.86489 0.58799 0.0
C855 C 0.03717 0.80679 0.61381 0.0
C856 C 0.01693 0.80491 0.61721 0.0
C857 C 0.04478 0.8186 0.60182 0.0
C858 C 0.03499 0.85836 0.57817 0.0
H859 H 0.10131 0.87576 0.51099 0.0
H860 H 0.09077 0.86191 0.53727 0.0
H861 H 0.03803 0.88267 0.56451 0.0
H862 H 0.98897 0.8146 0.61119 0.0
H863 H 0.0023 0.83525 0.59023 0.0
H864 H 0.05645 0.81791 0.56626 0.0
C865 C 0.08062 0.86946 0.53071 0.0
C866 C 0.04208 0.86851 0.56469 0.0
C867 C 0.08672 0.87748 0.51571 0.0
C868 C 0.00462 0.81568 0.60884 0.0
C869 C 0.01227 0.82759 0.5969 0.0
C870 C 0.05251 0.83214 0.56618 0.0
C871 C 0.06157 0.87088 0.53696 0.0
C872 C 0.05439 0.86053 0.55173 0.0
C873 C 0.03236 0.82889 0.593 0.0
C874 C 0.04015 0.84006 0.57906 0.0
H875 H 0.04529 0.89706 0.50663 0.0
H876 H 0.03436 0.88269 0.53266 0.0
H877 H 0.0685 0.83534 0.5427 0.0
H878 H 0.04711 0.79879 0.62009 0.0
H879 H 0.06039 0.81952 0.59929 0.0
C880 C 0.18855 0.73411 0.76007 0.0
C881 C 0.19873 0.7216 0.74862 0.0
C882 C 0.1696 0.73749 0.75484 0.0
C883 C 0.12656 0.71795 0.72276 0.0
H884 H 0.11686 0.77088 0.7278 0.0
C885 C 0.0645 0.74132 0.68117 0.0
C886 C 0.05401 0.75576 0.68942 0.0
C887 C 0.0809 0.73652 0.69019 0.0
C888 C 0.11917 0.756 0.72655 0.0
H889 H 0.1967 0.70219 0.7231 0.0
H890 H 0.16384 0.70818 0.71391 0.0
H891 H 0.14759 0.76338 0.74073 0.0
H892 H 0.05239 0.7763 0.71376 0.0
H893 H 0.08099 0.76782 0.72956 0.0
H894 H 0.09831 0.71057 0.70833 0.0
C895 C 0.1704 0.71536 0.72695 0.0
C896 C 0.1368 0.7517 0.73397 0.0
C897 C 0.18933 0.71209 0.73212 0.0
C898 C 0.06018 0.76515 0.70699 0.0
C899 C 0.07663 0.76036 0.71602 0.0
C900 C 0.10894 0.72224 0.71537 0.0
C901 C 0.1604 0.72828 0.73813 0.0
C902 C 0.14085 0.73265 0.73187 0.0
C903 C 0.08723 0.74603 0.70769 0.0
C904 C 0.10519 0.74135 0.71688 0.0
H905 H 0.19546 0.7417 0.77284 0.0
H906 H 0.1622 0.74739 0.76381 0.0
H907 H 0.12909 0.7031 0.72119 0.0
H908 H 0.06018 0.7338 0.66765 0.0
H909 H 0.08889 0.72563 0.68325 0.0
C910 C 0.9688 0.57662 0.51332 0.0
C911 C 0.96145 0.58011 0.49665 0.0
C912 C 0.97342 0.59163 0.52787 0.0
C913 C 0.98427 0.64462 0.53919 0.0
H914 H 0.96983 0.6361 0.58698 0.0
C915 C 0.98864 0.70666 0.59946 0.0
C916 C 0.99662 0.70345 0.61601 0.0
C917 C 0.98413 0.69154 0.58499 0.0
C918 C 0.97413 0.63866 0.57375 0.0
H919 H 0.95299 0.60213 0.48226 0.0
H920 H 0.96099 0.62828 0.5076 0.0
H921 H 0.96286 0.60989 0.56151 0.0
H922 H 0.00585 0.68173 0.6304 0.0
H923 H 0.99805 0.65541 0.60516 0.0
H924 H 0.99545 0.67342 0.55144 0.0
C925 C 0.96354 0.61399 0.50937 0.0
C926 C 0.97017 0.62363 0.55915 0.0
C927 C 0.95896 0.59899 0.49482 0.0
C928 C 0.9997 0.68472 0.61785 0.0
C929 C 0.99514 0.66959 0.6034 0.0
C930 C 0.98818 0.65966 0.55378 0.0
C931 C 0.97074 0.61049 0.5261 0.0
C932 C 0.97518 0.62642 0.54168 0.0
C933 C 0.98744 0.67285 0.58676 0.0
C934 C 0.98315 0.65687 0.57124 0.0
H935 H 0.97109 0.56226 0.51509 0.0
H936 H 0.97923 0.58847 0.54047 0.0
H937 H 0.98861 0.6472 0.52598 0.0
H938 H 0.98603 0.7209 0.59759 0.0
H939 H 0.97796 0.69448 0.57243 0.0
C940 C 0.80106 0.82058 0.24447 0.0
C941 C 0.78946 0.81479 0.22824 0.0
C942 C 0.80968 0.83966 0.24958 0.0
C943 C 0.8082 0.88918 0.24092 0.0
H944 H 0.86345 0.89655 0.25781 0.0
C945 C 0.85893 0.96218 0.24736 0.0
C946 C 0.87279 0.96711 0.26218 0.0
C947 C 0.84758 0.94402 0.24392 0.0
C948 C 0.84795 0.8948 0.25337 0.0
H949 H 0.77704 0.82469 0.20506 0.0
H950 H 0.79233 0.85798 0.21387 0.0
H951 H 0.84539 0.86429 0.25098 0.0
H952 H 0.88519 0.95704 0.28529 0.0
H953 H 0.86528 0.9256 0.27944 0.0
H954 H 0.81088 0.91978 0.24323 0.0
C955 C 0.79468 0.84777 0.22269 0.0
C956 C 0.83758 0.87628 0.24946 0.0
C957 C 0.78607 0.82867 0.21756 0.0
C958 C 0.87477 0.95366 0.27367 0.0
C959 C 0.86341 0.93557 0.27026 0.0
C960 C 0.81859 0.90776 0.24488 0.0
C961 C 0.80691 0.8534 0.23858 0.0
C962 C 0.8176 0.87323 0.24319 0.0
C963 C 0.84985 0.93043 0.25523 0.0
C964 C 0.8386 0.91078 0.25115 0.0
H965 H 0.80413 0.81024 0.25293 0.0
H966 H 0.8188 0.84359 0.26203 0.0
H967 H 0.79277 0.88731 0.23626 0.0
H968 H 0.85706 0.97221 0.23824 0.0
H969 H 0.83741 0.94046 0.23213 0.0
C970 C 0.77434 0.15451 0.30166 0.0
C971 C 0.77913 0.17169 0.31397 0.0
C972 C 0.78586 0.13965 0.30145 0.0
C973 C 0.83602 0.13069 0.31402 0.0
H974 H 0.81197 0.07744 0.30599 0.0
C975 C 0.88088 0.06788 0.29425 0.0
C976 C 0.87618 0.0513 0.30203 0.0
C977 C 0.86917 0.08268 0.29683 0.0
C978 C 0.81892 0.09224 0.30841 0.0
H979 H 0.79971 0.18665 0.33584 0.0
H980 H 0.81966 0.16058 0.33564 0.0
H981 H 0.79095 0.10282 0.30899 0.0
H982 H 0.8556 0.03743 0.31886 0.0
H983 H 0.83526 0.0633 0.32344 0.0
H984 H 0.864 0.12011 0.31355 0.0
C985 C 0.80708 0.15868 0.32604 0.0
C986 C 0.80687 0.10678 0.30993 0.0
C987 C 0.79551 0.17353 0.32629 0.0
C988 C 0.85961 0.04996 0.31261 0.0
C989 C 0.84788 0.06475 0.31517 0.0
C990 C 0.84807 0.11614 0.31245 0.0
C991 C 0.80248 0.14163 0.31351 0.0
C992 C 0.81527 0.12617 0.31265 0.0
C993 C 0.85246 0.08125 0.30724 0.0
C994 C 0.83967 0.09674 0.30951 0.0
H995 H 0.7617 0.15258 0.29211 0.0
H996 H 0.782 0.12678 0.29152 0.0
H997 H 0.84298 0.14547 0.31593 0.0
H998 H 0.89352 0.06937 0.286 0.0
H999 H 0.87298 0.09508 0.29036 0.0
C1000 C 0.41048 0.02808 0.99589 0.0
C1001 C 0.4219 0.02301 0.9811 0.0
C1002 C 0.3965 0.01444 0.00151 0.0
C1003 C 0.36503 0.96875 0.98521 0.0
H1004 H 0.35995 0.96684 0.03612 0.0
C1005 C 0.30941 0.91142 0.00974 0.0
C1006 C 0.29903 0.91738 0.025 0.0
C1007 C 0.32535 0.92352 0.00472 0.0
C1008 C 0.36101 0.96731 0.02186 0.0
H1009 H 0.42767 0.99944 0.96077 0.0
H1010 H 0.40298 0.97566 0.97045 0.0
H1011 H 0.386 0.98938 0.02669 0.0
H1012 H 0.29736 0.94071 0.04701 0.0
H1013 H 0.32484 0.96196 0.03807 0.0
H1014 H 0.3398 0.94703 0.98034 0.0
C1015 C 0.40486 0.99027 0.97763 0.0
C1016 C 0.37599 0.98019 0.01646 0.0
C1017 C 0.41897 0.0039 0.97207 0.0
C1018 C 0.30509 0.93564 0.03523 0.0
C1019 C 0.32095 0.94779 0.03015 0.0
C1020 C 0.34997 0.95595 0.99061 0.0
C1021 C 0.39346 0.9954 0.9924 0.0
C1022 C 0.37809 0.98114 0.99809 0.0
C1023 C 0.33122 0.94193 0.01476 0.0
C1024 C 0.34768 0.95513 0.00901 0.0
H1025 H 0.41198 0.04273 0.00292 0.0
H1026 H 0.38771 0.01891 0.01275 0.0
H1027 H 0.36611 0.96931 0.97097 0.0
H1028 H 0.30521 0.8974 0.00161 0.0
H1029 H 0.3331 0.91838 0.99298 0.0
C1030 C 0.26975 0.35849 0.30041 0.0
C1031 C 0.28765 0.3681 0.30918 0.0
C1032 C 0.25675 0.36862 0.29215 0.0
C1033 C 0.24435 0.41771 0.29631 0.0
H1034 H 0.21333 0.39964 0.25123 0.0
C1035 C 0.19942 0.46744 0.26469 0.0
C1036 C 0.18018 0.46012 0.25744 0.0
C1037 C 0.21226 0.45524 0.26966 0.0
C1038 C 0.22175 0.40477 0.26394 0.0
H1039 H 0.30673 0.39537 0.31488 0.0
H1040 H 0.28431 0.41293 0.30033 0.0
H1041 H 0.23675 0.37987 0.2617 0.0
H1042 H 0.1595 0.43409 0.24931 0.0
H1043 H 0.18198 0.41267 0.25825 0.0
H1044 H 0.22943 0.44244 0.29877 0.0
C1045 C 0.27999 0.39774 0.30024 0.0
C1046 C 0.23517 0.39347 0.2699 0.0
C1047 C 0.29288 0.38768 0.30851 0.0
C1048 C 0.17422 0.44018 0.2549 0.0
C1049 C 0.18712 0.42791 0.25993 0.0
C1050 C 0.23099 0.42892 0.29041 0.0
C1051 C 0.26148 0.3885 0.2925 0.0
C1052 C 0.24681 0.39997 0.28606 0.0
C1053 C 0.20621 0.43536 0.26761 0.0
C1054 C 0.21971 0.42275 0.27404 0.0
H1055 H 0.26533 0.34342 0.3008 0.0
H1056 H 0.2426 0.3611 0.28632 0.0
H1057 H 0.25266 0.42291 0.30907 0.0
H1058 H 0.20461 0.48269 0.26667 0.0
H1059 H 0.22699 0.46143 0.27517 0.0
C1060 C 0.12317 0.99565 0.45786 0.0
C1061 C 0.11609 0.98526 0.47127 0.0
C1062 C 0.14037 0.00891 0.46117 0.0
C1063 C 0.18632 0.02133 0.49007 0.0
H1064 H 0.1891 0.06953 0.47195 0.0
C1065 C 0.2543 0.08033 0.50523 0.0
C1066 C 0.26052 0.0898 0.49095 0.0
C1067 C 0.2365 0.06783 0.50348 0.0
C1068 C 0.18864 0.05605 0.47694 0.0
H1069 H 0.12149 0.98083 0.49876 0.0
H1070 H 0.15166 0.00405 0.50456 0.0
H1071 H 0.15817 0.04756 0.46809 0.0
H1072 H 0.25299 0.09341 0.46356 0.0
H1073 H 0.22207 0.07146 0.46044 0.0
H1074 H 0.21686 0.02976 0.49879 0.0
C1075 C 0.14392 0.00177 0.49142 0.0
C1076 C 0.17089 0.04347 0.47476 0.0
C1077 C 0.12664 0.98849 0.48811 0.0
C1078 C 0.24861 0.0864 0.47485 0.0
C1079 C 0.23081 0.07391 0.4731 0.0
C1080 C 0.20409 0.03392 0.49225 0.0
C1081 C 0.15099 0.0121 0.47796 0.0
C1082 C 0.16957 0.02589 0.48115 0.0
C1083 C 0.22451 0.06452 0.48742 0.0
C1084 C 0.20549 0.05135 0.48557 0.0
H1085 H 0.11569 0.9932 0.44459 0.0
H1086 H 0.14561 0.01634 0.45039 0.0
H1087 H 0.18587 0.00779 0.49495 0.0
H1088 H 0.2631 0.08266 0.51785 0.0
H1089 H 0.23199 0.061 0.51483 0.0
C1090 C 0.77828 0.16613 0.72355 0.0
C1091 C 0.77541 0.18524 0.72953 0.0
C1092 C 0.76273 0.15118 0.72303 0.0
C1093 C 0.71658 0.13961 0.74511 0.0
H1094 H 0.70975 0.09389 0.70861 0.0
C1095 C 0.65549 0.07581 0.74762 0.0
C1096 C 0.66101 0.05736 0.74351 0.0
C1097 C 0.66816 0.09191 0.74453 0.0
C1098 C 0.71156 0.10651 0.71898 0.0
H1099 H 0.75376 0.20372 0.73893 0.0
H1100 H 0.72647 0.17759 0.73776 0.0
H1101 H 0.73375 0.12132 0.70484 0.0
H1102 H 0.68421 0.04135 0.73291 0.0
H1103 H 0.70637 0.0694 0.72776 0.0
H1104 H 0.69471 0.12471 0.75944 0.0
C1105 C 0.74084 0.17417 0.73369 0.0
C1106 C 0.72529 0.12224 0.7168 0.0
C1107 C 0.7564 0.18915 0.73415 0.0
C1108 C 0.67946 0.05535 0.73619 0.0
C1109 C 0.69212 0.07144 0.73311 0.0
C1110 C 0.70287 0.12389 0.7473 0.0
C1111 C 0.74394 0.15498 0.72851 0.0
C1112 C 0.72814 0.13889 0.72995 0.0
C1113 C 0.68664 0.08992 0.73726 0.0
C1114 C 0.70038 0.10705 0.73438 0.0
H1115 H 0.79273 0.16269 0.71974 0.0
H1116 H 0.76569 0.13658 0.71909 0.0
H1117 H 0.71862 0.15209 0.75565 0.0
H1118 H 0.64135 0.07787 0.7532 0.0
H1119 H 0.66338 0.10591 0.7477 0.0
C1120 C 0.46065 0.99832 0.50183 0.0
C1121 C 0.47443 0.00551 0.51643 0.0
C1122 C 0.44528 0.0085 0.49805 0.0
C1123 C 0.4172 0.0471 0.51796 0.0
H1124 H 0.40414 0.04963 0.46788 0.0
C1125 C 0.36466 0.0981 0.497 0.0
C1126 C 0.35064 0.09055 0.48265 0.0
C1127 C 0.37979 0.08779 0.50116 0.0
C1128 C 0.40747 0.04891 0.48191 0.0
H1129 H 0.48279 0.02899 0.53859 0.0
H1130 H 0.45602 0.04686 0.53195 0.0
H1131 H 0.43021 0.03139 0.47531 0.0
H1132 H 0.34167 0.06629 0.46133 0.0
H1133 H 0.36805 0.0483 0.46862 0.0
H1134 H 0.3945 0.06474 0.52453 0.0
C1135 C 0.45693 0.0332 0.52356 0.0
C1136 C 0.4224 0.03842 0.48619 0.0
C1137 C 0.47228 0.02297 0.52737 0.0
C1138 C 0.35224 0.07255 0.47244 0.0
C1139 C 0.36742 0.06227 0.47657 0.0
C1140 C 0.4023 0.05764 0.51368 0.0
C1141 C 0.44334 0.02617 0.50875 0.0
C1142 C 0.42742 0.03735 0.50426 0.0
C1143 C 0.38131 0.06972 0.49104 0.0
C1144 C 0.39724 0.05864 0.4956 0.0
H1145 H 0.46172 0.98476 0.49332 0.0
H1146 H 0.43486 0.00247 0.48677 0.0
H1147 H 0.42049 0.04636 0.532 0.0
H1148 H 0.36388 0.11194 0.50513 0.0
H1149 H 0.3904 0.09404 0.51224 0.0
C1150 C 0.61521 0.5252 0.57029 0.0
C1151 C 0.59543 0.51855 0.57309 0.0
C1152 C 0.62834 0.51232 0.56443 0.0
C1153 C 0.63585 0.4616 0.56277 0.0
H1154 H 0.67677 0.47487 0.53062 0.0
C1155 C 0.69216 0.41048 0.5365 0.0
C1156 C 0.71203 0.41902 0.53726 0.0
C1157 C 0.67695 0.42182 0.53974 0.0
C1158 C 0.66549 0.47101 0.53968 0.0
H1159 H 0.57378 0.49313 0.57148 0.0
H1160 H 0.59666 0.47058 0.56102 0.0
H1161 H 0.65179 0.496 0.53781 0.0
H1162 H 0.73143 0.4462 0.54193 0.0
H1163 H 0.70498 0.46587 0.54749 0.0
H1164 H 0.64967 0.43659 0.56461 0.0
C1165 C 0.60212 0.48577 0.56366 0.0
C1166 C 0.65118 0.48313 0.54384 0.0
C1167 C 0.58899 0.49869 0.5696 0.0
C1168 C 0.71631 0.43913 0.54123 0.0
C1169 C 0.70113 0.45043 0.5443 0.0
C1170 C 0.65012 0.4494 0.55851 0.0
C1171 C 0.62201 0.49242 0.56114 0.0
C1172 C 0.63635 0.47875 0.55566 0.0
C1173 C 0.68128 0.44193 0.5436 0.0
C1174 C 0.66528 0.45413 0.54714 0.0
H1175 H 0.62076 0.54038 0.57318 0.0
H1176 H 0.64361 0.51797 0.56299 0.0
H1177 H 0.62482 0.45787 0.5721 0.0
H1178 H 0.68836 0.39503 0.53348 0.0
H1179 H 0.66178 0.41486 0.539 0.0
C1180 C 0.74152 0.21839 0.36088 0.0
C1181 C 0.74809 0.22676 0.34606 0.0
C1182 C 0.73909 0.22986 0.37735 0.0
C1183 C 0.73492 0.2799 0.39856 0.0
H1184 H 0.75544 0.26392 0.44163 0.0
C1185 C 0.73244 0.3247 0.46962 0.0
C1186 C 0.74987 0.32706 0.48074 0.0
C1187 C 0.73002 0.31136 0.45361 0.0
C1188 C 0.74968 0.26861 0.42973 0.0
H1189 H 0.75706 0.25377 0.33689 0.0
H1190 H 0.7529 0.27375 0.36558 0.0
H1191 H 0.75513 0.24308 0.41258 0.0
H1192 H 0.77825 0.31699 0.48392 0.0
H1193 H 0.77413 0.29398 0.45603 0.0
H1194 H 0.7302 0.30578 0.41565 0.0
C1195 C 0.74929 0.25833 0.36442 0.0
C1196 C 0.74927 0.25656 0.41309 0.0
C1197 C 0.75169 0.24687 0.34795 0.0
C1198 C 0.76463 0.31554 0.47569 0.0
C1199 C 0.7622 0.30222 0.45973 0.0
C1200 C 0.73533 0.29197 0.41522 0.0
C1201 C 0.74321 0.24997 0.3794 0.0
C1202 C 0.74215 0.26216 0.39726 0.0
C1203 C 0.74495 0.30008 0.44841 0.0
C1204 C 0.743 0.2866 0.43096 0.0
H1205 H 0.73835 0.20295 0.35977 0.0
H1206 H 0.73407 0.22296 0.38852 0.0
H1207 H 0.72911 0.28456 0.38667 0.0
H1208 H 0.72076 0.33332 0.47314 0.0
H1209 H 0.71645 0.3099 0.4453 0.0
C1210 C 0.50345 0.05231 0.89734 0.0
C1211 C 0.48368 0.04565 0.89119 0.0
C1212 C 0.519 0.04841 0.88623 0.0
C1213 C 0.52883 0.03609 0.8381 0.0
H1214 H 0.5776 0.02126 0.85581 0.0
C1215 C 0.58604 0.00877 0.78955 0.0
C1216 C 0.6062 0.01498 0.79437 0.0
C1217 C 0.57164 0.01246 0.80192 0.0
C1218 C 0.56416 0.0256 0.8507 0.0
H1219 H 0.46487 0.02875 0.86892 0.0
H1220 H 0.49185 0.02204 0.84962 0.0
H1221 H 0.55157 0.02779 0.87659 0.0
H1222 H 0.62704 0.0298 0.81611 0.0
H1223 H 0.60184 0.03647 0.83765 0.0
H1224 H 0.54129 0.03404 0.81229 0.0
C1225 C 0.49536 0.03065 0.86285 0.0
C1226 C 0.54925 0.02933 0.86261 0.0
C1227 C 0.47988 0.03451 0.87392 0.0
C1228 C 0.61164 0.02479 0.81195 0.0
C1229 C 0.59719 0.02853 0.82434 0.0
C1230 C 0.5437 0.03243 0.82624 0.0
C1231 C 0.51509 0.03778 0.86873 0.0
C1232 C 0.53133 0.03443 0.85639 0.0
C1233 C 0.577 0.02253 0.81943 0.0
C1234 C 0.56148 0.02695 0.83232 0.0
H1235 H 0.50687 0.06102 0.91053 0.0
H1236 H 0.53404 0.05419 0.89112 0.0
H1237 H 0.51538 0.04039 0.83295 0.0
H1238 H 0.58132 0.00107 0.77617 0.0
H1239 H 0.55626 0.00732 0.79776 0.0
C1240 C 0.32366 0.27248 0.35813 0.0
C1241 C 0.32469 0.26636 0.33945 0.0
C1242 C 0.3206 0.2592 0.36987 0.0
C1243 C 0.33013 0.2146 0.37978 0.0
H1244 H 0.28108 0.21158 0.4044 0.0
C1245 C 0.31353 0.16215 0.43055 0.0
C1246 C 0.30274 0.1682 0.44548 0.0
C1247 C 0.31564 0.17281 0.41646 0.0
C1248 C 0.295 0.21239 0.3979 0.0
H1249 H 0.3237 0.24119 0.31871 0.0
H1250 H 0.31931 0.21803 0.33957 0.0
H1251 H 0.28639 0.23282 0.38212 0.0
H1252 H 0.28607 0.19034 0.45757 0.0
H1253 H 0.2905 0.20937 0.43361 0.0
H1254 H 0.33939 0.19512 0.39616 0.0
C1255 C 0.32056 0.23322 0.34485 0.0
C1256 C 0.2979 0.22442 0.38499 0.0
C1257 C 0.32319 0.24651 0.33298 0.0
C1258 C 0.29428 0.18519 0.44614 0.0
C1259 C 0.29671 0.19604 0.43226 0.0
C1260 C 0.32744 0.20284 0.39298 0.0
C1261 C 0.31901 0.23951 0.36333 0.0
C1262 C 0.31551 0.2257 0.37594 0.0
C1263 C 0.30733 0.18997 0.41714 0.0
C1264 C 0.30989 0.20171 0.40238 0.0
H1265 H 0.32536 0.28758 0.36381 0.0
H1266 H 0.31967 0.26432 0.38414 0.0
H1267 H 0.34391 0.21554 0.37302 0.0
H1268 H 0.32012 0.14902 0.42964 0.0
H1269 H 0.32364 0.16744 0.40497 0.0
C1270 C 0.53241 0.46108 0.93247 0.0
C1271 C 0.55269 0.4658 0.93006 0.0
C1272 C 0.51822 0.46348 0.9194 0.0
C1273 C 0.51211 0.46598 0.8712 0.0
H1274 H 0.46696 0.49217 0.88417 0.0
C1275 C 0.45003 0.47022 0.81891 0.0
C1276 C 0.44419 0.4884 0.81883 0.0
C1277 C 0.46216 0.46694 0.83309 0.0
C1278 C 0.47952 0.48486 0.88038 0.0
H1279 H 0.57404 0.47625 0.91197 0.0
H1280 H 0.54938 0.48035 0.88925 0.0
H1281 H 0.49037 0.4872 0.90788 0.0
H1282 H 0.44615 0.51729 0.83382 0.0
H1283 H 0.46739 0.5115 0.85869 0.0
H1284 H 0.50151 0.46378 0.84376 0.0
C1285 C 0.5444 0.47491 0.90121 0.0
C1286 C 0.49279 0.48187 0.89393 0.0
C1287 C 0.5585 0.47272 0.9143 0.0
C1288 C 0.45043 0.50314 0.83346 0.0
C1289 C 0.46249 0.4998 0.84775 0.0
C1290 C 0.49878 0.46879 0.85771 0.0
C1291 C 0.52411 0.47031 0.90359 0.0
C1292 C 0.50933 0.47257 0.88945 0.0
C1293 C 0.46866 0.48171 0.84759 0.0
C1294 C 0.48242 0.47838 0.86212 0.0
H1295 H 0.52755 0.45574 0.94451 0.0
H1296 H 0.50267 0.45972 0.92151 0.0
H1297 H 0.52464 0.45864 0.86736 0.0
H1298 H 0.44543 0.45852 0.8079 0.0
H1299 H 0.46649 0.45279 0.83271 0.0
C1300 C 0.77769 0.7667 0.16448 0.0
C1301 C 0.7823 0.75753 0.17901 0.0
C1302 C 0.78051 0.75844 0.14675 0.0
C1303 C 0.78462 0.71195 0.11889 0.0
H1304 H 0.80943 0.74244 0.08534 0.0
C1305 C 0.80874 0.67662 0.0506 0.0
C1306 C 0.80546 0.68532 0.03546 0.0
C1307 C 0.80615 0.68604 0.06793 0.0
C1308 C 0.80226 0.73377 0.09447 0.0
H1309 H 0.7941 0.73277 0.18628 0.0
H1310 H 0.79872 0.71829 0.15541 0.0
H1311 H 0.80411 0.7578 0.11591 0.0
H1312 H 0.79716 0.71088 0.0267 0.0
H1313 H 0.7923 0.72722 0.05698 0.0
H1314 H 0.78255 0.68796 0.09756 0.0
C1315 C 0.79266 0.73172 0.15771 0.0
C1316 C 0.79923 0.74257 0.11198 0.0
C1317 C 0.78995 0.74001 0.1754 0.0
C1318 C 0.79985 0.7038 0.03808 0.0
C1319 C 0.79715 0.71321 0.05545 0.0
C1320 C 0.78754 0.70318 0.10141 0.0
C1321 C 0.7879 0.74079 0.14319 0.0
C1322 C 0.79054 0.73171 0.12441 0.0
C1323 C 0.80009 0.70435 0.07057 0.0
C1324 C 0.79656 0.71393 0.08902 0.0
H1325 H 0.77159 0.78011 0.16677 0.0
H1326 H 0.77655 0.76567 0.13581 0.0
H1327 H 0.77756 0.70326 0.12807 0.0
H1328 H 0.81324 0.66246 0.04909 0.0
H1329 H 0.80895 0.67896 0.07929 0.0
C1330 C 0.03553 0.01447 0.11671 0.0
C1331 C 0.04615 0.03275 0.11665 0.0
C1332 C 0.02408 0.01088 0.13121 0.0
C1333 C 0.99862 0.03566 0.16863 0.0
H1334 H 0.99915 0.98881 0.18855 0.0
C1335 C 0.96098 0.02466 0.23447 0.0
C1336 C 0.9509 0.00636 0.23536 0.0
C1337 C 0.97271 0.02763 0.22001 0.0
C1338 C 0.99863 0.00186 0.18301 0.0
H1339 H 0.05363 0.06136 0.1322 0.0
H1340 H 0.03355 0.05514 0.15731 0.0
H1341 H 0.01931 0.99424 0.16318 0.0
H1342 H 0.94522 0.97683 0.22168 0.0
H1343 H 0.96537 0.98207 0.19634 0.0
H1344 H 0.97784 0.04326 0.18828 0.0
C1345 C 0.03379 0.04368 0.146 0.0
C1346 C 0.01021 0.00497 0.16848 0.0
C1347 C 0.04528 0.04724 0.13157 0.0
C1348 C 0.95284 0.9911 0.22147 0.0
C1349 C 0.96451 0.99408 0.20697 0.0
C1350 C 0.98698 0.03252 0.18309 0.0
C1351 C 0.02295 0.0255 0.14595 0.0
C1352 C 0.01041 0.02195 0.16118 0.0
C1353 C 0.97458 0.01239 0.20604 0.0
C1354 C 0.98689 0.01562 0.19053 0.0
H1355 H 0.03573 0.00304 0.10537 0.0
H1356 H 0.01576 0.99676 0.1307 0.0
H1357 H 0.99819 0.04875 0.16312 0.0
H1358 H 0.9599 0.03672 0.24499 0.0
H1359 H 0.98049 0.04185 0.2199 0.0
C1360 C 0.28722 0.79591 0.19115 0.0
C1361 C 0.27837 0.77788 0.19432 0.0
C1362 C 0.28476 0.80143 0.17432 0.0
C1363 C 0.2512 0.79183 0.13358 0.0
H1364 H 0.29429 0.82157 0.11374 0.0
C1365 C 0.24297 0.81615 0.06418 0.0
C1366 C 0.25134 0.835 0.06305 0.0
C1367 C 0.24685 0.80804 0.07946 0.0
C1368 C 0.28205 0.81342 0.11917 0.0
H1369 H 0.26029 0.75136 0.18212 0.0
H1370 H 0.25615 0.76094 0.15253 0.0
H1371 H 0.30028 0.80904 0.14146 0.0
H1372 H 0.27042 0.86009 0.07713 0.0
H1373 H 0.277 0.84604 0.10384 0.0
H1374 H 0.23291 0.79642 0.11142 0.0
C1375 C 0.26483 0.77087 0.1632 0.0
C1376 C 0.2855 0.80621 0.13505 0.0
C1377 C 0.26735 0.76531 0.18009 0.0
C1378 C 0.26376 0.84552 0.07753 0.0
C1379 C 0.26764 0.83741 0.0928 0.0
C1380 C 0.24775 0.79905 0.11769 0.0
C1381 C 0.2734 0.78907 0.16017 0.0
C1382 C 0.27006 0.79552 0.14257 0.0
C1383 C 0.25921 0.81858 0.09398 0.0
C1384 C 0.26309 0.81012 0.1104 0.0
H1385 H 0.29604 0.80583 0.20174 0.0
H1386 H 0.2914 0.81561 0.17254 0.0
H1387 H 0.23892 0.78388 0.13913 0.0
H1388 H 0.2334 0.80761 0.05324 0.0
H1389 H 0.24032 0.79343 0.07981 0.0
C1390 C 0.01963 0.4976 0.07017 0.0
C1391 C 0.01953 0.48259 0.05551 0.0
C1392 C 0.02698 0.49586 0.0873 0.0
C1393 C 0.0618 0.47148 0.11001 0.0
H1394 H 0.0347 0.48902 0.15274 0.0
C1395 C 0.09394 0.46979 0.18205 0.0
C1396 C 0.09241 0.48598 0.19505 0.0
C1397 C 0.08368 0.46716 0.16518 0.0
C1398 C 0.04256 0.48421 0.14096 0.0
H1399 H 0.02667 0.45372 0.04766 0.0
H1400 H 0.03996 0.45093 0.07755 0.0
H1401 H 0.01925 0.48868 0.12296 0.0
H1402 H 0.07882 0.51203 0.20054 0.0
H1403 H 0.06142 0.5077 0.17122 0.0
H1404 H 0.08543 0.46763 0.12796 0.0
C1405 C 0.03436 0.46406 0.07566 0.0
C1406 C 0.03366 0.48396 0.12391 0.0
C1407 C 0.02681 0.46571 0.05853 0.0
C1408 C 0.08027 0.49934 0.19089 0.0
C1409 C 0.07014 0.49677 0.17407 0.0
C1410 C 0.07081 0.47188 0.12709 0.0
C1411 C 0.03459 0.47916 0.0902 0.0
C1412 C 0.04331 0.47788 0.10826 0.0
C1413 C 0.07173 0.48069 0.16095 0.0
C1414 C 0.06144 0.47857 0.1428 0.0
H1415 H 0.01454 0.51097 0.06834 0.0
H1416 H 0.02724 0.50786 0.09819 0.0
H1417 H 0.06967 0.46686 0.09818 0.0
H1418 H 0.10312 0.45919 0.18486 0.0
H1419 H 0.08507 0.45449 0.15548 0.0
C1420 C 0.34558 0.69751 0.25365 0.0
C1421 C 0.33382 0.71205 0.25866 0.0
C1422 C 0.36298 0.69684 0.26381 0.0
C1423 C 0.39894 0.72684 0.29883 0.0
H1424 H 0.41302 0.67775 0.30682 0.0
C1425 C 0.45523 0.71994 0.35521 0.0
C1426 C 0.47014 0.70853 0.35041 0.0
C1427 C 0.43917 0.71985 0.34318 0.0
C1428 C 0.40935 0.69154 0.30455 0.0
H1429 H 0.33077 0.73701 0.27845 0.0
H1430 H 0.36072 0.73564 0.29638 0.0
H1431 H 0.38391 0.67872 0.28731 0.0
H1432 H 0.47965 0.6877 0.32934 0.0
H1433 H 0.45122 0.68728 0.30837 0.0
H1434 H 0.42402 0.73962 0.31657 0.0
C1435 C 0.35697 0.72507 0.28432 0.0
C1436 C 0.39272 0.69213 0.29332 0.0
C1437 C 0.33973 0.72584 0.27407 0.0
C1438 C 0.4684 0.69667 0.33342 0.0
C1439 C 0.45213 0.69638 0.32145 0.0
C1440 C 0.41537 0.72624 0.31021 0.0
C1441 C 0.36888 0.7106 0.27932 0.0
C1442 C 0.38717 0.70981 0.29047 0.0
C1443 C 0.43751 0.70817 0.32615 0.0
C1444 C 0.42063 0.70861 0.31333 0.0
H1445 H 0.34141 0.68676 0.24177 0.0
H1446 H 0.37189 0.68565 0.2594 0.0
H1447 H 0.39547 0.74071 0.29663 0.0
H1448 H 0.45611 0.72927 0.36817 0.0
H1449 H 0.42799 0.72892 0.34722 0.0
C1450 C 0.02933 0.42066 0.94067 0.0
C1451 C 0.03383 0.427 0.95921 0.0
C1452 C 0.02724 0.40116 0.93351 0.0
C1453 C 0.04172 0.35542 0.94174 0.0
H1454 H 0.99932 0.33347 0.90583 0.0
C1455 C 0.03003 0.27485 0.91072 0.0
C1456 C 0.0255 0.27038 0.89202 0.0
C1457 C 0.02982 0.29349 0.91993 0.0
C1458 C 0.01135 0.33941 0.91572 0.0
H1459 H 0.03967 0.41785 0.98478 0.0
H1460 H 0.036 0.38363 0.9722 0.0
H1461 H 0.00134 0.36692 0.92009 0.0
H1462 H 0.01704 0.28197 0.86836 0.0
H1463 H 0.017 0.31445 0.88432 0.0
H1464 H 0.05201 0.32805 0.93711 0.0
C1465 C 0.03417 0.39383 0.96324 0.0
C1466 C 0.01248 0.35856 0.92391 0.0
C1467 C 0.03612 0.41337 0.97045 0.0
C1468 C 0.02055 0.2849 0.88278 0.0
C1469 C 0.0204 0.30352 0.89196 0.0
C1470 C 0.04066 0.33627 0.93349 0.0
C1471 C 0.02967 0.38752 0.94469 0.0
C1472 C 0.0278 0.36685 0.93685 0.0
C1473 C 0.02512 0.30808 0.91064 0.0
C1474 C 0.02559 0.32809 0.92022 0.0
H1475 H 0.02724 0.43079 0.9317 0.0
H1476 H 0.02398 0.39677 0.91913 0.0
H1477 H 0.05382 0.36146 0.95153 0.0
H1478 H 0.03382 0.26397 0.91827 0.0
H1479 H 0.03327 0.29644 0.93435 0.0
C1480 C 0.70433 0.73992 0.26136 0.0
C1481 C 0.72168 0.73799 0.27115 0.0
C1482 C 0.686 0.7382 0.26917 0.0
C1483 C 0.66095 0.71622 0.30486 0.0
H1484 H 0.62106 0.74886 0.29799 0.0
C1485 C 0.58974 0.71387 0.3439 0.0
C1486 C 0.57197 0.71556 0.33465 0.0
C1487 C 0.60782 0.71677 0.33588 0.0
C1488 C 0.63195 0.73947 0.29985 0.0
H1489 H 0.73351 0.73381 0.29714 0.0
H1490 H 0.70157 0.7308 0.31074 0.0
H1491 H 0.65309 0.75443 0.28478 0.0
H1492 H 0.55925 0.72142 0.30962 0.0
H1493 H 0.59081 0.72619 0.29551 0.0
H1494 H 0.63987 0.70117 0.31978 0.0
C1495 C 0.70208 0.73325 0.29691 0.0
C1496 C 0.65031 0.7427 0.29231 0.0
C1497 C 0.72038 0.735 0.28912 0.0
C1498 C 0.57267 0.72004 0.31713 0.0
C1499 C 0.59078 0.72292 0.30909 0.0
C1500 C 0.64261 0.71297 0.31233 0.0
C1501 C 0.68463 0.73448 0.28692 0.0
C1502 C 0.66506 0.73117 0.29483 0.0
C1503 C 0.60858 0.72137 0.31839 0.0
C1504 C 0.62791 0.72461 0.31001 0.0
H1505 H 0.7048 0.74202 0.24742 0.0
H1506 H 0.67281 0.73908 0.26108 0.0
H1507 H 0.67184 0.70683 0.30673 0.0
H1508 H 0.58977 0.71054 0.35745 0.0
H1509 H 0.62125 0.71574 0.34354 0.0
C1510 C 0.08201 0.1191 0.03014 0.0
C1511 C 0.06891 0.10488 0.0362 0.0
C1512 C 0.07809 0.12495 0.0137 0.0
C1513 C 0.04814 0.11288 0.97043 0.0
H1514 H 0.05527 0.16817 0.97322 0.0
C1515 C 0.02061 0.15151 0.9135 0.0
C1516 C 0.033 0.16782 0.91018 0.0
C1517 C 0.02505 0.14246 0.92808 0.0
C1518 C 0.05343 0.15269 0.9721 0.0
H1519 H 0.04195 0.0849 0.02933 0.0
H1520 H 0.03502 0.09517 1.00045 0.0
H1521 H 0.06334 0.15443 0.99962 0.0
H1522 H 0.06017 0.18694 0.91919 0.0
H1523 H 0.06801 0.17109 0.94427 0.0
H1524 H 0.03816 0.11127 0.94278 0.0
C1525 C 0.04839 0.10174 0.00845 0.0
C1526 C 0.05807 0.1448 0.98726 0.0
C1527 C 0.05235 0.09584 0.02496 0.0
C1528 C 0.05016 0.17455 0.92145 0.0
C1529 C 0.05462 0.1655 0.93592 0.0
C1530 C 0.04352 0.12081 0.95516 0.0
C1531 C 0.06093 0.11676 0.0029 0.0
C1532 C 0.05567 0.12482 0.9866 0.0
C1533 C 0.04199 0.14953 0.93961 0.0
C1534 C 0.0463 0.14083 0.95579 0.0
H1535 H 0.0951 0.12607 0.03836 0.0
H1536 H 0.08832 0.13621 0.00961 0.0
H1537 H 0.04618 0.09743 0.96948 0.0
H1538 H 0.00728 0.14595 0.90506 0.0
H1539 H 0.01494 0.13027 0.93061 0.0
C1540 C 0.35479 0.27098 0.27443 0.0
C1541 C 0.35528 0.28908 0.28524 0.0
C1542 C 0.36791 0.26817 0.26066 0.0
C1543 C 0.41611 0.28918 0.24614 0.0
H1544 H 0.39973 0.25528 0.20098 0.0
C1545 C 0.46756 0.28044 0.18667 0.0
C1546 C 0.46831 0.26157 0.17801 0.0
C1547 C 0.4532 0.28436 0.19908 0.0
C1548 C 0.40456 0.26469 0.21357 0.0
H1549 H 0.37001 0.31846 0.28989 0.0
H1550 H 0.39241 0.31372 0.26558 0.0
H1551 H 0.37561 0.26117 0.22373 0.0
H1552 H 0.45431 0.23205 0.17541 0.0
H1553 H 0.42932 0.23889 0.19703 0.0
H1554 H 0.44507 0.29269 0.23596 0.0
C1555 C 0.38208 0.30159 0.26791 0.0
C1556 C 0.39074 0.26804 0.22664 0.0
C1557 C 0.36901 0.30438 0.28171 0.0
C1558 C 0.45417 0.24676 0.18183 0.0
C1559 C 0.43976 0.25069 0.19415 0.0
C1560 C 0.4299 0.28589 0.23305 0.0
C1561 C 0.38184 0.28341 0.25731 0.0
C1562 C 0.39637 0.28025 0.24314 0.0
C1563 C 0.43919 0.26951 0.20303 0.0
C1564 C 0.42432 0.27352 0.21665 0.0
H1565 H 0.34428 0.25893 0.27665 0.0
H1566 H 0.36741 0.25393 0.25291 0.0
H1567 H 0.42108 0.2984 0.25879 0.0
H1568 H 0.47821 0.2922 0.18402 0.0
H1569 H 0.45303 0.29904 0.20554 0.0
C1570 C 0.59063 0.38582 0.013 0.0
C1571 C 0.57724 0.39454 0.00356 0.0
C1572 C 0.585 0.37798 0.02821 0.0
C1573 C 0.54601 0.37507 0.0617 0.0
H1574 H 0.56372 0.32595 0.06406 0.0
C1575 C 0.51106 0.32052 0.10544 0.0
C1576 C 0.52402 0.31058 0.11409 0.0
C1577 C 0.51819 0.33284 0.09366 0.0
C1578 C 0.55885 0.33977 0.06377 0.0
H1579 H 0.54774 0.40258 0.00297 0.0
H1580 H 0.53763 0.38844 0.02938 0.0
H1581 H 0.57498 0.34378 0.04055 0.0
H1582 H 0.55476 0.30641 0.11767 0.0
H1583 H 0.56713 0.32785 0.09714 0.0
H1584 H 0.52937 0.37057 0.08473 0.0
C1585 C 0.55263 0.38795 0.02524 0.0
C1586 C 0.56536 0.35007 0.05029 0.0
C1587 C 0.55837 0.39602 0.01009 0.0
C1588 C 0.54434 0.31374 0.11116 0.0
C1589 C 0.55143 0.32596 0.09932 0.0
C1590 C 0.53937 0.36466 0.07516 0.0
C1591 C 0.56573 0.3784 0.03423 0.0
C1592 C 0.55907 0.36787 0.04905 0.0
C1593 C 0.5384 0.33539 0.09019 0.0
C1594 C 0.54574 0.34689 0.07633 0.0
H1595 H 0.60537 0.38474 0.00837 0.0
H1596 H 0.59569 0.37124 0.03506 0.0
H1597 H 0.54101 0.3888 0.06128 0.0
H1598 H 0.49533 0.31846 0.10743 0.0
H1599 H 0.50776 0.33981 0.08674 0.0
C1600 C 0.69318 0.23683 0.26187 0.0
C1601 C 0.70472 0.22583 0.25035 0.0
C1602 C 0.67457 0.24027 0.25575 0.0
C1603 C 0.63472 0.22258 0.21995 0.0
H1604 H 0.62246 0.27475 0.22907 0.0
C1605 C 0.57435 0.24783 0.17792 0.0
C1606 C 0.56236 0.2606 0.18672 0.0
C1607 C 0.59057 0.24298 0.18715 0.0
C1608 C 0.6255 0.26005 0.22663 0.0
H1609 H 0.70546 0.20917 0.22366 0.0
H1610 H 0.67322 0.2153 0.21296 0.0
H1611 H 0.65266 0.26707 0.24291 0.0
H1612 H 0.55794 0.27817 0.21222 0.0
H1613 H 0.58625 0.2696 0.22838 0.0
H1614 H 0.60776 0.2156 0.20346 0.0
C1615 C 0.67845 0.22125 0.22672 0.0
C1616 C 0.6428 0.25564 0.23457 0.0
C1617 C 0.69704 0.21791 0.23279 0.0
C1618 C 0.56691 0.26834 0.20502 0.0
C1619 C 0.58318 0.26349 0.21426 0.0
C1620 C 0.61743 0.22698 0.21203 0.0
C1621 C 0.66706 0.23261 0.23806 0.0
C1622 C 0.64778 0.23693 0.23106 0.0
C1623 C 0.59521 0.25075 0.20543 0.0
C1624 C 0.61279 0.24583 0.21501 0.0
H1625 H 0.69875 0.24318 0.27545 0.0
H1626 H 0.66607 0.24895 0.26486 0.0
H1627 H 0.63794 0.20795 0.21725 0.0
H1628 H 0.5713 0.24162 0.16383 0.0
H1629 H 0.59969 0.23336 0.17985 0.0
C1630 C 0.46847 0.10248 0.99294 0.0
C1631 C 0.4698 0.08353 0.99534 0.0
C1632 C 0.47508 0.11785 0.00673 0.0
C1633 C 0.48408 0.12828 0.05623 0.0
H1634 H 0.50833 0.17794 0.04726 0.0
C1635 C 0.51321 0.19038 0.11394 0.0
C1636 C 0.5092 0.20882 0.11203 0.0
C1637 C 0.50919 0.17512 0.09956 0.0
C1638 C 0.50141 0.1642 0.04996 0.0
H1639 H 0.48016 0.06591 0.01366 0.0
H1640 H 0.49199 0.09273 0.03765 0.0
H1641 H 0.50108 0.15126 0.02219 0.0
H1642 H 0.49774 0.22567 0.09348 0.0
H1643 H 0.49062 0.19899 0.06841 0.0
H1644 H 0.48435 0.1412 0.08396 0.0
C1645 C 0.48539 0.09571 0.02528 0.0
C1646 C 0.49727 0.1489 0.03559 0.0
C1647 C 0.4787 0.08035 0.01151 0.0
C1648 C 0.50101 0.21165 0.09541 0.0
C1649 C 0.49706 0.19639 0.081 0.0
C1650 C 0.48827 0.14354 0.07058 0.0
C1651 C 0.48324 0.11462 0.02323 0.0
C1652 C 0.48848 0.13076 0.03854 0.0
C1653 C 0.50113 0.17795 0.0829 0.0
C1654 C 0.49691 0.1617 0.06761 0.0
H1655 H 0.46144 0.10539 0.98072 0.0
H1656 H 0.473 0.13219 0.00474 0.0
H1657 H 0.47695 0.11463 0.05896 0.0
H1658 H 0.51957 0.1877 0.12653 0.0
H1659 H 0.51269 0.16115 0.10141 0.0
C1660 C 0.28557 0.32548 0.711 0.0
C1661 C 0.28915 0.31049 0.7202 0.0
C1662 C 0.29506 0.34415 0.71692 0.0
C1663 C 0.34078 0.36905 0.74106 0.0
H1664 H 0.31596 0.41496 0.74073 0.0
C1665 C 0.3863 0.44297 0.74252 0.0
C1666 C 0.38107 0.45835 0.75474 0.0
C1667 C 0.37401 0.42539 0.7391 0.0
C1668 C 0.32304 0.40226 0.74099 0.0
H1669 H 0.30502 0.3034 0.74316 0.0
H1670 H 0.32151 0.33602 0.75356 0.0
H1671 H 0.29572 0.38337 0.7343 0.0
H1672 H 0.35854 0.46747 0.77258 0.0
H1673 H 0.33693 0.43667 0.76643 0.0
H1674 H 0.36809 0.38781 0.74755 0.0
C1675 C 0.31143 0.33331 0.74171 0.0
C1676 C 0.3115 0.3842 0.73721 0.0
C1677 C 0.30184 0.31467 0.73585 0.0
C1678 C 0.363 0.45589 0.76311 0.0
C1679 C 0.3506 0.4383 0.75955 0.0
C1680 C 0.35231 0.38704 0.74467 0.0
C1681 C 0.30844 0.34816 0.7321 0.0
C1682 C 0.32029 0.36741 0.73712 0.0
C1683 C 0.35613 0.4228 0.7477 0.0
C1684 C 0.3436 0.40382 0.74452 0.0
H1685 H 0.27573 0.3227 0.69898 0.0
H1686 H 0.29255 0.35527 0.70918 0.0
H1687 H 0.34802 0.35638 0.7409 0.0
H1688 H 0.40008 0.44437 0.7358 0.0
H1689 H 0.37852 0.41378 0.7297 0.0
C1690 C 0.27915 0.66461 0.82581 0.0
C1691 C 0.28218 0.67706 0.81313 0.0
C1692 C 0.29106 0.65012 0.82644 0.0
C1693 C 0.33909 0.6354 0.81243 0.0
H1694 H 0.31366 0.58402 0.81488 0.0
C1695 C 0.37797 0.56867 0.79282 0.0
C1696 C 0.37473 0.55362 0.80284 0.0
C1697 C 0.36735 0.58425 0.7959 0.0
C1698 C 0.32106 0.59833 0.81447 0.0
H1699 H 0.30051 0.68451 0.79162 0.0
H1700 H 0.32107 0.6592 0.79256 0.0
H1701 H 0.29397 0.61043 0.81726 0.0
H1702 H 0.35797 0.54334 0.8242 0.0
H1703 H 0.33956 0.57065 0.82968 0.0
H1704 H 0.36613 0.62331 0.80944 0.0
C1705 C 0.30957 0.66062 0.80207 0.0
C1706 C 0.30976 0.61347 0.81584 0.0
C1707 C 0.29763 0.67499 0.80139 0.0
C1708 C 0.36079 0.55465 0.81619 0.0
C1709 C 0.35015 0.57026 0.81927 0.0
C1710 C 0.35039 0.62028 0.81111 0.0
C1711 C 0.30636 0.64792 0.81451 0.0
C1712 C 0.3186 0.63213 0.81455 0.0
C1713 C 0.35324 0.58521 0.8091 0.0
C1714 C 0.34147 0.60151 0.81183 0.0
H1715 H 0.26731 0.66581 0.83499 0.0
H1716 H 0.28832 0.64066 0.83628 0.0
H1717 H 0.34641 0.64966 0.81172 0.0
H1718 H 0.38857 0.56833 0.7824 0.0
H1719 H 0.36991 0.59536 0.78762 0.0
C1720 C 0.90719 0.50841 0.46212 0.0
C1721 C 0.92452 0.51499 0.47322 0.0
C1722 C 0.89318 0.49392 0.46641 0.0
C1723 C 0.88522 0.45531 0.49413 0.0
H1724 H 0.83057 0.46471 0.49135 0.0
C1725 C 0.82268 0.41186 0.52686 0.0
C1726 C 0.80407 0.40723 0.51745 0.0
C1727 C 0.83776 0.42413 0.52077 0.0
C1728 C 0.8457 0.46168 0.49197 0.0
H1729 H 0.94114 0.51086 0.49704 0.0
H1730 H 0.91659 0.48567 0.50462 0.0
H1731 H 0.85636 0.48703 0.48145 0.0
H1732 H 0.78684 0.41166 0.49406 0.0
H1733 H 0.81315 0.43278 0.48333 0.0
H1734 H 0.87452 0.42997 0.50474 0.0
C1735 C 0.91387 0.49167 0.49257 0.0
C1736 C 0.86051 0.4745 0.48629 0.0
C1737 C 0.92786 0.50621 0.4883 0.0
C1738 C 0.80095 0.41501 0.50172 0.0
C1739 C 0.81603 0.42722 0.4956 0.0
C1740 C 0.87038 0.44243 0.49978 0.0
C1741 C 0.89617 0.48564 0.48188 0.0
C1742 C 0.88045 0.47151 0.48734 0.0
C1743 C 0.83459 0.43203 0.50509 0.0
C1744 C 0.85043 0.44549 0.49883 0.0
H1745 H 0.90405 0.51498 0.45051 0.0
H1746 H 0.87982 0.48941 0.45776 0.0
H1747 H 0.90041 0.45249 0.49495 0.0
H1748 H 0.82558 0.40614 0.53905 0.0
H1749 H 0.85178 0.42771 0.52854 0.0
C1750 C 0.76713 0.86639 0.80678 0.0
C1751 C 0.78501 0.87521 0.81612 0.0
C1752 C 0.75489 0.87728 0.7986 0.0
C1753 C 0.74441 0.92717 0.80318 0.0
H1754 H 0.71446 0.91042 0.75738 0.0
C1755 C 0.70193 0.9786 0.77105 0.0
C1756 C 0.68282 0.97164 0.76327 0.0
C1757 C 0.71429 0.96607 0.77626 0.0
C1758 C 0.72259 0.9152 0.77028 0.0
H1759 H 0.80481 0.90197 0.82302 0.0
H1760 H 0.78369 0.92086 0.80862 0.0
H1761 H 0.73666 0.88975 0.76816 0.0
H1762 H 0.66186 0.94592 0.75451 0.0
H1763 H 0.68345 0.92398 0.76384 0.0
H1764 H 0.73039 0.95246 0.80547 0.0
C1765 C 0.77879 0.90568 0.80802 0.0
C1766 C 0.73531 0.90337 0.77644 0.0
C1767 C 0.79094 0.89485 0.81621 0.0
C1768 C 0.6765 0.95175 0.76049 0.0
C1769 C 0.6889 0.93917 0.76575 0.0
C1770 C 0.73175 0.93892 0.79706 0.0
C1771 C 0.76035 0.89717 0.79958 0.0
C1772 C 0.74653 0.90934 0.79289 0.0
C1773 C 0.70786 0.94623 0.77391 0.0
C1774 C 0.72082 0.93321 0.78046 0.0
H1775 H 0.76215 0.85129 0.80657 0.0
H1776 H 0.74076 0.8703 0.79224 0.0
H1777 H 0.75241 0.932 0.81613 0.0
H1778 H 0.70739 0.9938 0.77324 0.0
H1779 H 0.72894 0.97198 0.78216 0.0
C1780 C 0.62836 0.49514 0.97947 0.0
C1781 C 0.61823 0.48959 0.96247 0.0
C1782 C 0.64537 0.50883 0.98177 0.0
C1783 C 0.67152 0.54742 0.95997 0.0
H1784 H 0.7172 0.54088 0.98929 0.0
C1785 C 0.74837 0.59053 0.95642 0.0
C1786 C 0.75914 0.59808 0.97282 0.0
C1787 C 0.73099 0.57765 0.95602 0.0
C1788 C 0.70448 0.543 0.9812 0.0
H1789 H 0.61847 0.49338 0.93443 0.0
H1790 H 0.64801 0.51696 0.93836 0.0
H1791 H 0.68709 0.51777 0.98726 0.0
H1792 H 0.76018 0.59786 0.00167 0.0
H1793 H 0.72986 0.57532 0.00091 0.0
H1794 H 0.689 0.57242 0.95366 0.0
C1795 C 0.64259 0.51127 0.95007 0.0
C1796 C 0.68721 0.52979 0.98008 0.0
C1797 C 0.62564 0.49772 0.9478 0.0
C1798 C 0.75223 0.59233 0.9888 0.0
C1799 C 0.73492 0.57934 0.98837 0.0
C1800 C 0.68878 0.56052 0.96101 0.0
C1801 C 0.65261 0.51713 0.96708 0.0
C1802 C 0.6706 0.53172 0.96926 0.0
C1803 C 0.72406 0.57194 0.97199 0.0
C1804 C 0.70552 0.55836 0.97149 0.0
H1805 H 0.62297 0.48913 0.99102 0.0
H1806 H 0.65266 0.51311 0.99509 0.0
H1807 H 0.65887 0.54959 0.95183 0.0
H1808 H 0.75329 0.59463 0.94387 0.0
H1809 H 0.72307 0.57201 0.94315 0.0
C1810 C 0.27194 0.66133 0.22682 0.0
C1811 C 0.26718 0.67985 0.23266 0.0
C1812 C 0.25781 0.64517 0.22653 0.0
C1813 C 0.2127 0.62953 0.24857 0.0
H1814 H 0.20745 0.58522 0.21055 0.0
C1815 C 0.15259 0.56438 0.24806 0.0
C1816 C 0.15804 0.54606 0.24274 0.0
C1817 C 0.1653 0.58083 0.24595 0.0
C1818 C 0.20887 0.5974 0.22137 0.0
H1819 H 0.24368 0.69589 0.2424 0.0
H1820 H 0.21898 0.66774 0.24162 0.0
H1821 H 0.23054 0.61371 0.20789 0.0
H1822 H 0.1812 0.53066 0.23108 0.0
H1823 H 0.20349 0.55933 0.22771 0.0
H1824 H 0.19135 0.6132 0.26223 0.0
C1825 C 0.2337 0.66571 0.23742 0.0
C1826 C 0.22207 0.61374 0.21982 0.0
C1827 C 0.24778 0.68186 0.23764 0.0
C1828 C 0.17649 0.54456 0.23526 0.0
C1829 C 0.18924 0.56101 0.23321 0.0
C1830 C 0.19957 0.61319 0.25016 0.0
C1831 C 0.23864 0.64716 0.23217 0.0
C1832 C 0.22417 0.62998 0.23342 0.0
C1833 C 0.18381 0.57936 0.23853 0.0
C1834 C 0.19753 0.59689 0.23661 0.0
H1835 H 0.28671 0.65932 0.22278 0.0
H1836 H 0.26213 0.63108 0.2225 0.0
H1837 H 0.21422 0.64167 0.25945 0.0
H1838 H 0.13844 0.56606 0.25378 0.0
H1839 H 0.16052 0.59472 0.24997 0.0
C1840 C 0.97231 0.52639 0.02673 0.0
C1841 C 0.97406 0.5094 0.01488 0.0
C1842 C 0.95738 0.53739 0.02361 0.0
C1843 C 0.92409 0.54622 0.98697 0.0
H1844 H 0.89564 0.57031 0.02613 0.0
C1845 C 0.85502 0.58234 0.97463 0.0
C1846 C 0.85302 0.59956 0.98603 0.0
C1847 C 0.87005 0.57166 0.9782 0.0
C1848 C 0.90362 0.56387 0.01507 0.0
H1849 H 0.96099 0.4902 0.9909 0.0
H1850 H 0.93493 0.50928 0.98551 0.0
H1851 H 0.921 0.55079 0.03258 0.0
H1852 H 0.86547 0.6192 0.01 0.0
H1853 H 0.89181 0.60065 0.01611 0.0
H1854 H 0.90671 0.55926 0.96945 0.0
C1855 C 0.94534 0.51436 0.99699 0.0
C1856 C 0.91814 0.55266 0.01877 0.0
C1857 C 0.96025 0.5034 1.0001 0.0
C1858 C 0.86655 0.60597 0.00096 0.0
C1859 C 0.88157 0.59528 0.00454 0.0
C1860 C 0.90958 0.55741 0.98327 0.0
C1861 C 0.94386 0.5316 0.00858 0.0
C1862 C 0.9285 0.54365 0.00475 0.0
C1863 C 0.88343 0.57794 0.99326 0.0
C1864 C 0.89912 0.56632 0.99726 0.0
H1865 H 0.98285 0.53151 0.03812 0.0
H1866 H 0.95678 0.55069 0.03269 0.0
H1867 H 0.93204 0.53978 0.97589 0.0
H1868 H 0.84481 0.57695 0.96304 0.0
H1869 H 0.87092 0.55826 0.96935 0.0
C1870 C 0.1137 0.02084 0.06526 0.0
C1871 C 0.09474 0.01403 0.07032 0.0
C1872 C 0.12667 0.00807 0.05863 0.0
C1873 C 0.1388 0.9602 0.06079 0.0
H1874 H 0.1679 0.96659 0.01829 0.0
C1875 C 0.19282 0.90768 0.03343 0.0
C1876 C 0.21027 0.91545 0.02633 0.0
C1877 C 0.17771 0.91888 0.03774 0.0
C1878 C 0.16012 0.96472 0.03033 0.0
H1879 H 0.07449 0.98823 0.07185 0.0
H1880 H 0.09745 0.96601 0.06082 0.0
H1881 H 0.14355 0.9878 0.02774 0.0
H1882 H 0.2256 0.94112 0.01831 0.0
H1883 H 0.1997 0.96077 0.02635 0.0
H1884 H 0.15578 0.93765 0.06389 0.0
C1885 C 0.10217 0.98129 0.06202 0.0
C1886 C 0.14609 0.97683 0.03566 0.0
C1887 C 0.08907 0.99405 0.06841 0.0
C1888 C 0.21227 0.93463 0.02362 0.0
C1889 C 0.1973 0.94589 0.02813 0.0
C1890 C 0.15303 0.94824 0.05562 0.0
C1891 C 0.12113 0.98819 0.05714 0.0
C1892 C 0.13536 0.97476 0.051 0.0
C1893 C 0.17979 0.93819 0.03525 0.0
C1894 C 0.16401 0.95041 0.04037 0.0
H1895 H 0.11883 0.03607 0.06688 0.0
H1896 H 0.14129 0.01379 0.05518 0.0
H1897 H 0.13089 0.95842 0.07279 0.0
H1898 H 0.19078 0.8929 0.03558 0.0
H1899 H 0.16434 0.91231 0.0429 0.0
loop_
_geom_bond_atom_site_label_1
_geom_bond_atom_site_label_2
_geom_bond_distance
_geom_bond_site_symmetry_2
_ccdc_geom_bond_type
H0 C1 0.949 . S
C1 H0 0.949 . S
C1 C2 1.395 . S
C1 C3 1.391 . S
C2 C1 1.395 . S
C2 C5 1.390 . S
C3 C1 1.391 . S
C3 C7 1.387 . S
C3 C8 1.491 . S
H4 C5 0.950 . S
C5 C2 1.390 . S
C5 H4 0.950 . S
C5 C6 1.378 . S
C6 C5 1.378 . S
C6 C7 1.409 . S
C7 C3 1.387 . S
C7 C6 1.409 . S
C7 H9 0.951 . S
C8 C3 1.491 . S
C8 C10 1.382 . S
C8 C12 1.404 . S
H9 C7 0.951 . S
C10 C8 1.382 . S
C10 C11 1.390 . S
C10 H15 0.949 . S
C11 C10 1.390 . S
C11 C16 1.399 . S
C12 C8 1.404 . S
C12 H13 0.950 . S
C12 C14 1.375 . S
H13 C12 0.950 . S
C14 C12 1.375 . S
C14 C16 1.382 . S
C14 H18 0.950 . S
H15 C10 0.949 . S
C16 C11 1.399 . S
C16 C14 1.382 . S
C16 H17 0.952 . S
H17 C16 0.952 . S
H18 C14 0.950 . S
H19 C20 0.949 . S
C20 H19 0.949 . S
C20 C21 1.395 . S
C20 C22 1.391 . S
C21 C20 1.395 . S
C21 C24 1.390 . S
C22 C20 1.391 . S
C22 C26 1.387 . S
C22 C27 1.491 . S
H23 C24 0.950 . S
C24 C21 1.390 . S
C24 H23 0.950 . S
C24 C25 1.378 . S
C25 C24 1.378 . S
C25 C26 1.409 . S
C26 C22 1.387 . S
C26 C25 1.409 . S
C26 H28 0.951 . S
C27 C22 1.491 . S
C27 C29 1.382 . S
C27 C31 1.404 . S
H28 C26 0.951 . S
C29 C27 1.382 . S
C29 C30 1.390 . S
C29 H34 0.949 . S
C30 C29 1.390 . S
C30 C35 1.399 . S
C31 C27 1.404 . S
C31 H32 0.950 . S
C31 C33 1.375 . S
H32 C31 0.950 . S
C33 C31 1.375 . S
C33 C35 1.382 . S
C33 H37 0.950 . S
H34 C29 0.949 . S
C35 C30 1.399 . S
C35 C33 1.382 . S
C35 H36 0.952 . S
H36 C35 0.952 . S
H37 C33 0.950 . S
H38 C39 0.949 . S
C39 H38 0.949 . S
C39 C40 1.395 . S
C39 C41 1.391 1_455 S
C40 C39 1.395 . S
C40 C43 1.390 1_455 S
C41 C39 1.391 1_655 S
C41 C45 1.387 . S
C41 C46 1.488 1_654 S
H42 C43 0.950 . S
C43 C40 1.390 1_655 S
C43 H42 0.950 . S
C43 C44 1.378 . S
C44 C43 1.378 . S
C44 C45 1.409 . S
C45 C41 1.387 . S
C45 C44 1.409 . S
C45 H47 0.951 1_554 S
C46 C41 1.488 1_456 S
C46 C48 1.385 . S
C46 C50 1.404 . S
H47 C45 0.951 1_556 S
C48 C46 1.385 . S
C48 C49 1.390 . S
C48 H53 0.949 1_556 S
C49 C48 1.390 . S
C49 C54 1.399 . S
C50 C46 1.404 . S
C50 H51 0.938 1_455 S
C50 C52 1.383 . S
H51 C50 0.938 1_655 S
C52 C50 1.383 . S
C52 C54 1.382 . S
C52 H56 0.950 . S
H53 C48 0.949 1_554 S
C54 C49 1.399 . S
C54 C52 1.382 . S
C54 H55 0.952 . S
H55 C54 0.952 . S
H56 C52 0.950 . S
H57 C58 0.949 . S
C58 H57 0.949 . S
C58 C59 1.395 . S
C58 C60 1.391 . S
C59 C58 1.395 . S
C59 C62 1.390 . S
C60 C58 1.391 . S
C60 C64 1.387 . S
C60 C65 1.491 . S
H61 C62 0.950 . S
C62 C59 1.390 . S
C62 H61 0.950 . S
C62 C63 1.378 . S
C63 C62 1.378 . S
C63 C64 1.409 . S
C64 C60 1.387 . S
C64 C63 1.409 . S
C64 H66 0.951 . S
C65 C60 1.491 . S
C65 C67 1.382 . S
C65 C69 1.404 . S
H66 C64 0.951 . S
C67 C65 1.382 . S
C67 C68 1.390 . S
C67 H72 0.949 . S
C68 C67 1.390 . S
C68 C73 1.399 . S
C69 C65 1.404 . S
C69 H70 0.950 . S
C69 C71 1.375 . S
H70 C69 0.950 . S
C71 C69 1.375 . S
C71 C73 1.382 . S
C71 H75 0.950 . S
H72 C67 0.949 . S
C73 C68 1.399 . S
C73 C71 1.382 . S
C73 H74 0.952 . S
H74 C73 0.952 . S
H75 C71 0.950 . S
H76 C77 0.949 . S
C77 H76 0.949 . S
C77 C78 1.395 . S
C77 C79 1.391 . S
C78 C77 1.395 . S
C78 C81 1.390 . S
C79 C77 1.391 . S
C79 C83 1.387 . S
C79 C84 1.491 . S
H80 C81 0.950 . S
C81 C78 1.390 . S
C81 H80 0.950 . S
C81 C82 1.378 . S
C82 C81 1.378 . S
C82 C83 1.409 . S
C83 C79 1.387 . S
C83 C82 1.409 . S
C83 H85 0.951 . S
C84 C79 1.491 . S
C84 C86 1.382 . S
C84 C88 1.404 . S
H85 C83 0.951 . S
C86 C84 1.382 . S
C86 C87 1.390 . S
C86 H91 0.949 . S
C87 C86 1.390 . S
C87 C92 1.399 . S
C88 C84 1.404 . S
C88 H89 0.950 . S
C88 C90 1.375 . S
H89 C88 0.950 . S
C90 C88 1.375 . S
C90 C92 1.382 . S
C90 H94 0.950 . S
H91 C86 0.949 . S
C92 C87 1.399 . S
C92 C90 1.382 . S
C92 H93 0.952 . S
H93 C92 0.952 . S
H94 C90 0.950 . S
H95 C96 0.949 . S
C96 H95 0.949 . S
C96 C97 1.395 . S
C96 C98 1.391 . S
C97 C96 1.395 . S
C97 C100 1.390 . S
C98 C96 1.391 . S
C98 C102 1.387 . S
C98 C103 1.491 . S
H99 C100 0.950 . S
C100 C97 1.390 . S
C100 H99 0.950 . S
C100 C101 1.378 . S
C101 C100 1.378 . S
C101 C102 1.409 . S
C102 C98 1.387 . S
C102 C101 1.409 . S
C102 H104 0.951 . S
C103 C98 1.491 . S
C103 C105 1.382 . S
C103 C107 1.404 . S
H104 C102 0.951 . S
C105 C103 1.382 . S
C105 C106 1.390 . S
C105 H110 0.949 . S
C106 C105 1.390 . S
C106 C111 1.399 . S
C107 C103 1.404 . S
C107 H108 0.950 . S
C107 C109 1.375 . S
H108 C107 0.950 . S
C109 C107 1.375 . S
C109 C111 1.382 . S
C109 H113 0.950 . S
H110 C105 0.949 . S
C111 C106 1.399 . S
C111 C109 1.382 . S
C111 H112 0.952 . S
H112 C111 0.952 . S
H113 C109 0.950 . S
H114 C115 0.949 . S
C115 H114 0.949 . S
C115 C116 1.395 . S
C115 C117 1.391 . S
C116 C115 1.395 . S
C116 C119 1.390 . S
C117 C115 1.391 . S
C117 C121 1.387 . S
C117 C122 1.491 . S
H118 C119 0.950 . S
C119 C116 1.390 . S
C119 H118 0.950 . S
C119 C120 1.378 . S
C120 C119 1.378 . S
C120 C121 1.409 . S
C121 C117 1.387 . S
C121 C120 1.409 . S
C121 H123 0.951 . S
C122 C117 1.491 . S
C122 C124 1.382 . S
C122 C126 1.404 . S
H123 C121 0.951 . S
C124 C122 1.382 . S
C124 C125 1.388 . S
C124 H129 0.949 1_655 S
C125 C124 1.388 . S
C125 C130 1.397 . S
C126 C122 1.404 . S
C126 H127 0.950 . S
C126 C128 1.375 . S
H127 C126 0.950 . S
C128 C126 1.375 . S
C128 C130 1.382 . S
C128 H132 0.950 . S
H129 C124 0.949 1_455 S
C130 C125 1.397 . S
C130 C128 1.382 . S
C130 H131 0.952 . S
H131 C130 0.952 . S
H132 C128 0.950 . S
H133 C134 0.949 . S
C134 H133 0.949 . S
C134 C135 1.395 . S
C134 C136 1.391 . S
C135 C134 1.395 . S
C135 C138 1.390 . S
C136 C134 1.391 . S
C136 C140 1.387 . S
C136 C141 1.491 . S
H137 C138 0.950 . S
C138 C135 1.390 . S
C138 H137 0.950 . S
C138 C139 1.378 . S
C139 C138 1.378 . S
C139 C140 1.409 . S
C140 C136 1.387 . S
C140 C139 1.409 . S
C140 H142 0.951 . S
C141 C136 1.491 . S
C141 C143 1.382 . S
C141 C145 1.404 . S
H142 C140 0.951 . S
C143 C141 1.382 . S
C143 C144 1.390 . S
C143 H148 0.949 . S
C144 C143 1.390 . S
C144 C149 1.399 . S
C145 C141 1.404 . S
C145 H146 0.950 . S
C145 C147 1.375 . S
H146 C145 0.950 . S
C147 C145 1.375 . S
C147 C149 1.382 . S
C147 H151 0.950 . S
H148 C143 0.949 . S
C149 C144 1.399 . S
C149 C147 1.382 . S
C149 H150 0.952 . S
H150 C149 0.952 . S
H151 C147 0.950 . S
H152 C153 0.949 . S
C153 H152 0.949 . S
C153 C154 1.395 . S
C153 C155 1.391 . S
C154 C153 1.395 . S
C154 C157 1.390 . S
C155 C153 1.391 . S
C155 C159 1.387 . S
C155 C160 1.491 . S
H156 C157 0.950 . S
C157 C154 1.390 . S
C157 H156 0.950 . S
C157 C158 1.378 . S
C158 C157 1.378 . S
C158 C159 1.409 . S
C159 C155 1.387 . S
C159 C158 1.409 . S
C159 H161 0.951 . S
C160 C155 1.491 . S
C160 C162 1.382 . S
C160 C164 1.404 . S
H161 C159 0.951 . S
C162 C160 1.382 . S
C162 C163 1.390 . S
C162 H167 0.949 . S
C163 C162 1.390 . S
C163 C168 1.399 . S
C164 C160 1.404 . S
C164 H165 0.950 . S
C164 C166 1.375 . S
H165 C164 0.950 . S
C166 C164 1.375 . S
C166 C168 1.382 . S
C166 H170 0.950 . S
H167 C162 0.949 . S
C168 C163 1.399 . S
C168 C166 1.382 . S
C168 H169 0.952 . S
H169 C168 0.952 . S
H170 C166 0.950 . S
H171 C172 0.949 . S
C172 H171 0.949 . S
C172 C173 1.395 . S
C172 C174 1.391 . S
C173 C172 1.395 . S
C173 C176 1.390 . S
C174 C172 1.391 . S
C174 C178 1.387 . S
C174 C179 1.491 . S
H175 C176 0.950 . S
C176 C173 1.390 . S
C176 H175 0.950 . S
C176 C177 1.378 . S
C177 C176 1.378 . S
C177 C178 1.409 . S
C178 C174 1.387 . S
C178 C177 1.409 . S
C178 H180 0.951 . S
C179 C174 1.491 . S
C179 C181 1.382 . S
C179 C183 1.404 . S
H180 C178 0.951 . S
C181 C179 1.382 . S
C181 C182 1.390 . S
C181 H186 0.949 . S
C182 C181 1.390 . S
C182 C187 1.399 . S
C183 C179 1.404 . S
C183 H184 0.950 . S
C183 C185 1.375 . S
H184 C183 0.950 . S
C185 C183 1.375 . S
C185 C187 1.382 . S
C185 H189 0.950 . S
H186 C181 0.949 . S
C187 C182 1.399 . S
C187 C185 1.382 . S
C187 H188 0.952 . S
H188 C187 0.952 . S
H189 C185 0.950 . S
H190 C191 0.949 . S
C191 H190 0.949 . S
C191 C192 1.395 . S
C191 C193 1.391 . S
C192 C191 1.395 . S
C192 C195 1.390 . S
C193 C191 1.391 . S
C193 C197 1.387 . S
C193 C198 1.491 . S
H194 C195 0.950 . S
C195 C192 1.390 . S
C195 H194 0.950 . S
C195 C196 1.378 . S
C196 C195 1.378 . S
C196 C197 1.409 . S
C197 C193 1.387 . S
C197 C196 1.409 . S
C197 H199 0.951 . S
C198 C193 1.491 . S
C198 C200 1.382 . S
C198 C202 1.404 . S
H199 C197 0.951 . S
C200 C198 1.382 . S
C200 C201 1.390 . S
C200 H205 0.949 . S
C201 C200 1.390 . S
C201 C206 1.399 . S
C202 C198 1.404 . S
C202 H203 0.950 . S
C202 C204 1.375 . S
H203 C202 0.950 . S
C204 C202 1.375 . S
C204 C206 1.382 . S
C204 H208 0.950 . S
H205 C200 0.949 . S
C206 C201 1.399 . S
C206 C204 1.382 . S
C206 H207 0.952 . S
H207 C206 0.952 . S
H208 C204 0.950 . S
H209 C210 0.949 . S
C210 H209 0.949 . S
C210 C211 1.395 . S
C210 C212 1.391 . S
C211 C210 1.395 . S
C211 C214 1.390 . S
C212 C210 1.391 . S
C212 C216 1.387 . S
C212 C217 1.491 . S
H213 C214 0.950 . S
C214 C211 1.390 . S
C214 H213 0.950 . S
C214 C215 1.378 . S
C215 C214 1.378 . S
C215 C216 1.409 . S
C216 C212 1.387 . S
C216 C215 1.409 . S
C216 H218 0.951 . S
C217 C212 1.491 . S
C217 C219 1.382 . S
C217 C221 1.404 . S
H218 C216 0.951 . S
C219 C217 1.382 . S
C219 C220 1.390 . S
C219 H224 0.949 . S
C220 C219 1.390 . S
C220 C225 1.399 . S
C221 C217 1.404 . S
C221 H222 0.950 . S
C221 C223 1.375 . S
H222 C221 0.950 . S
C223 C221 1.375 . S
C223 C225 1.382 . S
C223 H227 0.950 . S
H224 C219 0.949 . S
C225 C220 1.399 . S
C225 C223 1.382 . S
C225 H226 0.952 . S
H226 C225 0.952 . S
H227 C223 0.950 . S
H228 C229 0.949 . S
C229 H228 0.949 . S
C229 C230 1.395 . S
C229 C231 1.391 . S
C230 C229 1.395 . S
C230 C233 1.390 . S
C231 C229 1.391 . S
C231 C235 1.387 . S
C231 C236 1.491 . S
H232 C233 0.950 . S
C233 C230 1.390 . S
C233 H232 0.950 . S
C233 C234 1.378 . S
C234 C233 1.378 . S
C234 C235 1.409 . S
C235 C231 1.387 . S
C235 C234 1.409 . S
C235 H237 0.951 . S
C236 C231 1.491 . S
C236 C238 1.382 . S
C236 C240 1.404 . S
H237 C235 0.951 . S
C238 C236 1.382 . S
C238 C239 1.390 . S
C238 H243 0.949 . S
C239 C238 1.390 . S
C239 C244 1.399 . S
C240 C236 1.404 . S
C240 H241 0.950 . S
C240 C242 1.375 . S
H241 C240 0.950 . S
C242 C240 1.375 . S
C242 C244 1.382 . S
C242 H246 0.950 . S
H243 C238 0.949 . S
C244 C239 1.399 . S
C244 C242 1.382 . S
C244 H245 0.952 . S
H245 C244 0.952 . S
H246 C242 0.950 . S
H247 C248 1.002 . S
C248 H247 1.002 . S
C248 C249 1.395 . S
C248 C250 1.391 . S
C249 C248 1.395 . S
C249 C252 1.390 . S
C250 C248 1.391 . S
C250 C254 1.387 . S
C250 C255 1.491 . S
H251 C252 0.950 . S
C252 C249 1.390 . S
C252 H251 0.950 . S
C252 C253 1.378 . S
C253 C252 1.378 . S
C253 C254 1.409 . S
C254 C250 1.387 . S
C254 C253 1.409 . S
C254 H256 0.951 . S
C255 C250 1.491 . S
C255 C257 1.382 1_556 S
C255 C259 1.404 . S
H256 C254 0.951 . S
C257 C255 1.382 1_554 S
C257 C258 1.390 . S
C257 H262 0.949 . S
C258 C257 1.390 . S
C258 C263 1.424 . S
C259 C255 1.404 . S
C259 H260 0.950 . S
C259 C261 1.375 . S
H260 C259 0.950 . S
C261 C259 1.375 . S
C261 C263 1.337 1_556 S
C261 H265 0.950 . S
H262 C257 0.949 . S
C263 C258 1.424 . S
C263 C261 1.337 1_554 S
C263 H264 0.974 . S
H264 C263 0.974 . S
H265 C261 0.950 . S
H266 C267 0.949 . S
C267 H266 0.949 . S
C267 C268 1.395 . S
C267 C269 1.391 . S
C268 C267 1.395 . S
C268 C271 1.390 . S
C269 C267 1.391 . S
C269 C273 1.387 . S
C269 C274 1.491 . S
H270 C271 0.950 . S
C271 C268 1.390 . S
C271 H270 0.950 . S
C271 C272 1.378 . S
C272 C271 1.378 . S
C272 C273 1.409 . S
C273 C269 1.387 . S
C273 C272 1.409 . S
C273 H275 0.951 . S
C274 C269 1.491 . S
C274 C276 1.382 . S
C274 C278 1.404 . S
H275 C273 0.951 . S
C276 C274 1.382 . S
C276 C277 1.390 . S
C276 H281 0.949 . S
C277 C276 1.390 . S
C277 C282 1.399 . S
C278 C274 1.404 . S
C278 H279 0.950 . S
C278 C280 1.375 . S
H279 C278 0.950 . S
C280 C278 1.375 . S
C280 C282 1.382 . S
C280 H284 0.950 . S
H281 C276 0.949 . S
C282 C277 1.399 . S
C282 C280 1.382 . S
C282 H283 0.952 . S
H283 C282 0.952 . S
H284 C280 0.950 . S
H285 C286 0.949 . S
C286 H285 0.949 . S
C286 C287 1.395 . S
C286 C288 1.391 . S
C287 C286 1.395 . S
C287 C290 1.390 . S
C288 C286 1.391 . S
C288 C292 1.387 . S
C288 C293 1.491 . S
H289 C290 0.950 . S
C290 C287 1.390 . S
C290 H289 0.950 . S
C290 C291 1.378 . S
C291 C290 1.378 . S
C291 C292 1.409 . S
C292 C288 1.387 . S
C292 C291 1.409 . S
C292 H294 0.951 . S
C293 C288 1.491 . S
C293 C295 1.382 . S
C293 C297 1.404 . S
H294 C292 0.951 . S
C295 C293 1.382 . S
C295 C296 1.390 . S
C295 H300 0.949 . S
C296 C295 1.390 . S
C296 C301 1.399 . S
C297 C293 1.404 . S
C297 H298 0.950 . S
C297 C299 1.375 . S
H298 C297 0.950 . S
C299 C297 1.375 . S
C299 C301 1.382 . S
C299 H303 0.950 . S
H300 C295 0.949 . S
C301 C296 1.399 . S
C301 C299 1.382 . S
C301 H302 0.952 . S
H302 C301 0.952 . S
H303 C299 0.950 . S
C304 O305 1.160 . S
C304 O311 1.185 . S
O305 C304 1.160 . S
O306 Zn307 1.899 . S
O306 C314 1.284 . S
Zn307 O306 1.899 . S
Zn307 O308 2.032 . S
Zn307 O311 2.086 . S
Zn307 O316 1.977 . S
O308 Zn307 2.032 . S
O308 C312 1.278 . S
C309 O310 1.203 . S
C309 O316 1.267 . S
O310 C309 1.203 . S
O311 C304 1.185 . S
O311 Zn307 2.086 . S
C312 O308 1.278 . S
C312 O313 1.211 . S
O313 C312 1.211 . S
C314 O306 1.284 . S
C314 O315 1.273 . S
O315 C314 1.273 . S
O316 Zn307 1.977 . S
O316 C309 1.267 . S
C317 O318 1.160 . S
C317 O324 1.185 . S
O318 C317 1.160 . S
O319 Zn320 1.899 . S
O319 C327 1.284 . S
Zn320 O319 1.899 . S
Zn320 O321 2.032 . S
Zn320 O324 2.086 . S
Zn320 O329 1.977 . S
O321 Zn320 2.032 . S
O321 C325 1.278 . S
C322 O323 1.203 . S
C322 O329 1.267 . S
O323 C322 1.203 . S
O324 C317 1.185 . S
O324 Zn320 2.086 . S
C325 O321 1.278 . S
C325 O326 1.211 . S
O326 C325 1.211 . S
C327 O319 1.284 . S
C327 O328 1.273 . S
O328 C327 1.273 . S
O329 Zn320 1.977 . S
O329 C322 1.267 . S
C330 O331 1.160 . S
C330 O337 1.185 1_556 S
O331 C330 1.160 . S
O332 Zn333 1.899 1_556 S
O332 C340 1.284 . S
Zn333 O332 1.899 1_554 S
Zn333 O334 2.032 1_554 S
Zn333 O337 2.086 . S
Zn333 O342 1.977 . S
O334 Zn333 2.032 1_556 S
O334 C338 1.290 . S
C335 O336 1.203 . S
C335 O342 1.267 . S
O336 C335 1.203 . S
O337 C330 1.185 1_554 S
O337 Zn333 2.086 . S
C338 O334 1.290 . S
C338 O339 1.194 1_556 S
O339 C338 1.194 1_554 S
C340 O332 1.284 . S
C340 O341 1.273 . S
O341 C340 1.273 . S
O342 Zn333 1.977 . S
O342 C335 1.267 . S
C343 O344 1.160 . S
C343 O350 1.185 . S
O344 C343 1.160 . S
O345 Zn346 1.899 . S
O345 C353 1.284 . S
Zn346 O345 1.899 . S
Zn346 O347 2.032 . S
Zn346 O350 2.086 . S
Zn346 O355 1.977 . S
O347 Zn346 2.032 . S
O347 C351 1.278 1_545 S
C348 O349 1.203 . S
C348 O355 1.267 . S
O349 C348 1.203 . S
O350 C343 1.185 . S
O350 Zn346 2.086 . S
C351 O347 1.278 1_565 S
C351 O352 1.211 . S
O352 C351 1.211 . S
C353 O345 1.284 . S
C353 O354 1.273 . S
O354 C353 1.273 . S
O355 Zn346 1.977 . S
O355 C348 1.267 . S
C356 O357 1.160 . S
C356 O363 1.185 . S
O357 C356 1.160 . S
O358 Zn359 1.899 . S
O358 C366 1.284 . S
Zn359 O358 1.899 . S
Zn359 O360 2.032 . S
Zn359 O363 2.086 . S
Zn359 O368 1.977 . S
O360 Zn359 2.032 . S
O360 C364 1.278 . S
C361 O362 1.203 . S
C361 O368 1.267 . S
O362 C361 1.203 . S
O363 C356 1.185 . S
O363 Zn359 2.086 . S
C364 O360 1.278 . S
C364 O365 1.211 . S
O365 C364 1.211 . S
C366 O358 1.284 . S
C366 O367 1.273 . S
O367 C366 1.273 . S
O368 Zn359 1.977 . S
O368 C361 1.267 . S
C369 O370 1.160 . S
C369 O376 1.185 . S
O370 C369 1.160 . S
O371 Zn372 1.899 . S
O371 C379 1.284 . S
Zn372 O371 1.899 . S
Zn372 O373 2.032 . S
Zn372 O376 2.086 . S
Zn372 O381 1.977 . S
O373 Zn372 2.032 . S
O373 C377 1.278 . S
C374 O375 1.203 . S
C374 O381 1.267 . S
O375 C374 1.203 . S
O376 C369 1.185 . S
O376 Zn372 2.086 . S
C377 O373 1.278 . S
C377 O378 1.211 . S
O378 C377 1.211 . S
C379 O371 1.284 . S
C379 O380 1.273 . S
O380 C379 1.273 . S
O381 Zn372 1.977 . S
O381 C374 1.267 . S
C382 O383 1.160 . S
C382 O389 1.185 . S
O383 C382 1.160 . S
O384 Zn385 1.899 . S
O384 C392 1.284 . S
Zn385 O384 1.899 . S
Zn385 O386 2.032 . S
Zn385 O389 2.086 . S
Zn385 O394 1.977 . S
O386 Zn385 2.032 . S
O386 C390 1.278 . S
C387 O388 1.203 . S
C387 O394 1.267 . S
O388 C387 1.203 . S
O389 C382 1.185 . S
O389 Zn385 2.086 . S
C390 O386 1.278 . S
C390 O391 1.211 . S
O391 C390 1.211 . S
C392 O384 1.284 . S
C392 O393 1.273 . S
O393 C392 1.273 . S
O394 Zn385 1.977 . S
O394 C387 1.267 . S
C395 O396 1.160 . S
C395 O402 1.185 . S
O396 C395 1.160 . S
O397 Zn398 1.899 . S
O397 C405 1.284 . S
Zn398 O397 1.899 . S
Zn398 O399 2.032 . S
Zn398 O402 2.086 1_545 S
Zn398 O407 1.978 . S
O399 Zn398 2.032 . S
O399 C403 1.278 . S
C400 O401 1.203 . S
C400 O407 1.268 . S
O401 C400 1.203 . S
O402 C395 1.185 . S
O402 Zn398 2.086 1_565 S
C403 O399 1.278 . S
C403 O404 1.211 . S
O404 C403 1.211 . S
C405 O397 1.284 . S
C405 O406 1.273 . S
O406 C405 1.273 . S
O407 Zn398 1.978 . S
O407 C400 1.268 . S
C408 O409 1.160 1_455 S
C408 O415 1.185 . S
O409 C408 1.160 1_655 S
O410 Zn411 1.899 1_655 S
O410 C418 1.284 . S
Zn411 O410 1.899 1_455 S
Zn411 O412 2.032 . S
Zn411 O415 2.086 . S
Zn411 O420 1.977 . S
O412 Zn411 2.032 . S
O412 C416 1.278 . S
C413 O414 1.203 . S
C413 O420 1.267 . S
O414 C413 1.203 . S
O415 C408 1.185 . S
O415 Zn411 2.086 . S
C416 O412 1.278 . S
C416 O417 1.211 . S
O417 C416 1.211 . S
C418 O410 1.284 . S
C418 O419 1.273 . S
O419 C418 1.273 . S
O420 Zn411 1.977 . S
O420 C413 1.267 . S
C421 O422 1.160 . S
C421 O428 1.185 . S
O422 C421 1.160 . S
O423 Zn424 1.899 . S
O423 C431 1.284 . S
Zn424 O423 1.899 . S
Zn424 O425 2.032 . S
Zn424 O428 2.086 . S
Zn424 O433 1.977 . S
O425 Zn424 2.032 . S
O425 C429 1.278 . S
C426 O427 1.203 . S
C426 O433 1.267 . S
O427 C426 1.203 . S
O428 C421 1.185 . S
O428 Zn424 2.086 . S
C429 O425 1.278 . S
C429 O430 1.211 . S
O430 C429 1.211 . S
C431 O423 1.284 . S
C431 O432 1.273 . S
O432 C431 1.273 . S
O433 Zn424 1.977 . S
O433 C426 1.267 . S
C434 O435 1.160 1_455 S
C434 O441 1.185 . S
O435 C434 1.160 1_655 S
O436 Zn437 1.899 1_655 S
O436 C444 1.284 . S
Zn437 O436 1.899 1_455 S
Zn437 O438 2.032 1_455 S
Zn437 O441 2.086 . S
Zn437 O446 1.977 . S
O438 Zn437 2.032 1_655 S
O438 C442 1.278 . S
C439 O440 1.203 . S
C439 O446 1.267 . S
O440 C439 1.203 . S
O441 C434 1.185 . S
O441 Zn437 2.086 . S
C442 O438 1.278 . S
C442 O443 1.211 1_655 S
O443 C442 1.211 1_455 S
C444 O436 1.284 . S
C444 O445 1.273 . S
O445 C444 1.273 . S
O446 Zn437 1.977 . S
O446 C439 1.267 . S
C447 O448 1.160 . S
C447 O454 1.185 . S
O448 C447 1.160 . S
O449 Zn450 1.899 . S
O449 C457 1.284 . S
Zn450 O449 1.899 . S
Zn450 O451 2.032 . S
Zn450 O454 2.086 . S
Zn450 O459 1.977 . S
O451 Zn450 2.032 . S
O451 C455 1.278 . S
C452 O453 1.203 . S
C452 O459 1.267 . S
O453 C452 1.203 . S
O454 C447 1.185 . S
O454 Zn450 2.086 . S
C455 O451 1.278 . S
C455 O456 1.211 . S
O456 C455 1.211 . S
C457 O449 1.284 . S
C457 O458 1.273 . S
O458 C457 1.273 . S
O459 Zn450 1.977 . S
O459 C452 1.267 . S
C460 C461 1.349 . S
C460 C462 1.327 . S
C460 H485 0.950 . S
C461 C460 1.349 . S
C461 C477 1.349 . S
C462 C460 1.327 . S
C462 C481 1.429 . S
C462 H486 0.950 . S
C463 C480 1.574 . S
C463 C482 1.368 . S
C463 H487 0.949 . S
H464 C468 0.949 . S
C465 C466 1.349 . S
C465 C467 1.327 . S
C465 H488 0.950 . S
C466 C465 1.349 . S
C466 C478 1.349 . S
C467 C465 1.327 . S
C467 C483 1.429 . S
C467 H489 0.950 . S
C468 H464 0.949 . S
C468 C476 1.574 . S
C468 C484 1.368 . S
H469 C477 0.950 . S
H470 C475 0.950 . S
H471 C476 0.949 . S
H472 C478 0.950 1_554 S
H473 C479 0.950 . S
H474 C480 0.949 . S
C475 H470 0.950 . S
C475 C477 1.327 . S
C475 C481 1.429 . S
C476 C468 1.574 . S
C476 H471 0.949 . S
C476 C482 1.368 . S
C477 C461 1.349 . S
C477 H469 0.950 . S
C477 C475 1.327 . S
C478 C466 1.349 . S
C478 H472 0.950 1_556 S
C478 C479 1.327 . S
C479 H473 0.950 . S
C479 C478 1.327 . S
C479 C483 1.429 . S
C480 C463 1.574 . S
C480 H474 0.949 . S
C480 C484 1.368 . S
C481 C462 1.429 . S
C481 C475 1.429 . S
C481 C482 1.523 . S
C482 C463 1.368 . S
C482 C476 1.368 . S
C482 C481 1.523 . S
C483 C467 1.429 . S
C483 C479 1.429 . S
C483 C484 1.523 . S
C484 C468 1.368 . S
C484 C480 1.368 . S
C484 C483 1.523 . S
H485 C460 0.950 . S
H486 C462 0.950 . S
H487 C463 0.949 . S
H488 C465 0.950 . S
H489 C467 0.950 . S
C490 C491 1.349 . S
C490 C492 1.327 . S
C490 H515 0.950 . S
C491 C490 1.349 . S
C491 C507 1.349 . S
C492 C490 1.327 . S
C492 C511 1.429 . S
C492 H516 0.950 . S
C493 C510 1.574 . S
C493 C512 1.368 . S
C493 H517 0.949 . S
H494 C498 0.949 . S
C495 C496 1.349 . S
C495 C497 1.327 . S
C495 H518 0.950 . S
C496 C495 1.349 . S
C496 C508 1.349 . S
C497 C495 1.327 . S
C497 C513 1.429 . S
C497 H519 0.950 . S
C498 H494 0.949 . S
C498 C506 1.574 . S
C498 C514 1.368 . S
H499 C507 0.920 1_655 S
H500 C505 0.950 . S
H501 C506 0.949 . S
H502 C508 0.950 . S
H503 C509 0.950 . S
H504 C510 0.949 . S
C505 H500 0.950 . S
C505 C507 1.327 . S
C505 C511 1.429 . S
C506 C498 1.574 . S
C506 H501 0.949 . S
C506 C512 1.368 . S
C507 C491 1.349 . S
C507 H499 0.920 1_455 S
C507 C505 1.327 . S
C508 C496 1.349 . S
C508 H502 0.950 . S
C508 C509 1.327 . S
C509 H503 0.950 . S
C509 C508 1.327 . S
C509 C513 1.429 . S
C510 C493 1.574 . S
C510 H504 0.949 . S
C510 C514 1.368 . S
C511 C492 1.429 . S
C511 C505 1.429 . S
C511 C512 1.523 . S
C512 C493 1.368 . S
C512 C506 1.368 . S
C512 C511 1.523 . S
C513 C497 1.429 . S
C513 C509 1.429 . S
C513 C514 1.523 . S
C514 C498 1.368 . S
C514 C510 1.368 . S
C514 C513 1.523 . S
H515 C490 0.950 . S
H516 C492 0.950 . S
H517 C493 0.949 . S
H518 C495 0.950 . S
H519 C497 0.950 . S
C520 C521 1.349 . S
C520 C522 1.327 . S
C520 H545 0.950 . S
C521 C520 1.349 . S
C521 C537 1.349 . S
C522 C520 1.327 . S
C522 C541 1.429 . S
C522 H546 0.950 . S
C523 C540 1.574 . S
C523 C542 1.368 . S
C523 H547 0.949 . S
H524 C528 0.949 . S
C525 C526 1.349 . S
C525 C527 1.327 . S
C525 H548 0.950 . S
C526 C525 1.349 . S
C526 C538 1.349 . S
C527 C525 1.327 . S
C527 C543 1.429 . S
C527 H549 0.950 . S
C528 H524 0.949 . S
C528 C536 1.574 . S
C528 C544 1.368 . S
H529 C537 0.950 . S
H530 C535 0.950 . S
H531 C536 0.949 . S
H532 C538 0.950 . S
H533 C539 0.950 . S
H534 C540 0.949 . S
C535 H530 0.950 . S
C535 C537 1.327 . S
C535 C541 1.429 . S
C536 C528 1.574 . S
C536 H531 0.949 . S
C536 C542 1.368 . S
C537 C521 1.349 . S
C537 H529 0.950 . S
C537 C535 1.327 . S
C538 C526 1.349 . S
C538 H532 0.950 . S
C538 C539 1.327 . S
C539 H533 0.950 . S
C539 C538 1.327 . S
C539 C543 1.429 . S
C540 C523 1.574 . S
C540 H534 0.949 . S
C540 C544 1.368 . S
C541 C522 1.429 . S
C541 C535 1.429 . S
C541 C542 1.523 . S
C542 C523 1.368 . S
C542 C536 1.368 . S
C542 C541 1.523 . S
C543 C527 1.429 . S
C543 C539 1.429 . S
C543 C544 1.523 . S
C544 C528 1.368 . S
C544 C540 1.368 . S
C544 C543 1.523 . S
H545 C520 0.950 . S
H546 C522 0.950 . S
H547 C523 0.949 . S
H548 C525 0.950 . S
H549 C527 0.950 . S
C550 C551 1.349 . S
C550 C552 1.327 . S
C550 H575 0.950 . S
C551 C550 1.349 . S
C551 C567 1.349 . S
C552 C550 1.327 . S
C552 C571 1.429 . S
C552 H576 0.950 . S
C553 C570 1.574 . S
C553 C572 1.368 1_545 S
C553 H577 0.949 . S
H554 C558 0.949 1_655 S
C555 C556 1.349 . S
C555 C557 1.330 1_655 S
C555 H578 0.950 . S
C556 C555 1.349 . S
C556 C568 1.342 1_545 S
C557 C555 1.330 1_455 S
C557 C573 1.429 1_455 S
C557 H579 0.947 . S
C558 H554 0.949 1_455 S
C558 C566 1.574 . S
C558 C574 1.368 1_565 S
H559 C567 0.950 1_545 S
H560 C565 0.950 . S
H561 C566 0.949 . S
H562 C568 0.954 . S
H563 C569 0.950 . S
H564 C570 0.949 . S
C565 H560 0.950 . S
C565 C567 1.327 1_545 S
C565 C571 1.429 1_545 S
C566 C558 1.574 . S
C566 H561 0.949 . S
C566 C572 1.368 . S
C567 C551 1.349 . S
C567 H559 0.950 1_565 S
C567 C565 1.327 1_565 S
C568 C556 1.342 1_565 S
C568 H562 0.954 . S
C568 C569 1.330 . S
C569 H563 0.950 . S
C569 C568 1.330 . S
C569 C573 1.429 1_565 S
C570 C553 1.574 . S
C570 H564 0.949 . S
C570 C574 1.368 . S
C571 C552 1.429 . S
C571 C565 1.429 1_565 S
C571 C572 1.523 . S
C572 C553 1.368 1_565 S
C572 C566 1.368 . S
C572 C571 1.523 . S
C573 C557 1.429 1_655 S
C573 C569 1.429 1_545 S
C573 C574 1.523 1_655 S
C574 C558 1.368 1_545 S
C574 C570 1.368 . S
C574 C573 1.523 1_455 S
H575 C550 0.950 . S
H576 C552 0.950 . S
H577 C553 0.949 . S
H578 C555 0.950 . S
H579 C557 0.947 . S
C580 C581 1.349 . S
C580 C582 1.327 . S
C580 H605 0.950 . S
C581 C580 1.349 . S
C581 C597 1.349 . S
C582 C580 1.327 . S
C582 C601 1.429 . S
C582 H606 0.950 . S
C583 C600 1.574 . S
C583 C602 1.368 . S
C583 H607 0.949 . S
H584 C588 0.949 . S
C585 C586 1.349 . S
C585 C587 1.327 . S
C585 H608 0.950 . S
C586 C585 1.349 . S
C586 C598 1.349 . S
C587 C585 1.327 . S
C587 C603 1.429 . S
C587 H609 0.950 . S
C588 H584 0.949 . S
C588 C596 1.574 . S
C588 C604 1.368 . S
H589 C597 0.950 . S
H590 C595 0.950 . S
H591 C596 0.949 . S
H592 C598 0.950 . S
H593 C599 0.950 . S
H594 C600 0.949 . S
C595 H590 0.950 . S
C595 C597 1.327 . S
C595 C601 1.429 . S
C596 C588 1.574 . S
C596 H591 0.949 . S
C596 C602 1.368 . S
C597 C581 1.349 . S
C597 H589 0.950 . S
C597 C595 1.327 . S
C598 C586 1.349 . S
C598 H592 0.950 . S
C598 C599 1.327 . S
C599 H593 0.950 . S
C599 C598 1.327 . S
C599 C603 1.429 . S
C600 C583 1.574 . S
C600 H594 0.949 . S
C600 C604 1.368 . S
C601 C582 1.429 . S
C601 C595 1.429 . S
C601 C602 1.523 . S
C602 C583 1.368 . S
C602 C596 1.368 . S
C602 C601 1.523 . S
C603 C587 1.429 . S
C603 C599 1.429 . S
C603 C604 1.523 . S
C604 C588 1.368 . S
C604 C600 1.368 . S
C604 C603 1.523 . S
H605 C580 0.950 . S
H606 C582 0.950 . S
H607 C583 0.949 . S
H608 C585 0.950 . S
H609 C587 0.950 . S
C610 C611 1.349 . S
C610 C612 1.327 . S
C610 H635 0.950 . S
C611 C610 1.349 . S
C611 C627 1.349 . S
C612 C610 1.327 . S
C612 C631 1.429 . S
C612 H636 0.950 . S
C613 C630 1.574 . S
C613 C632 1.368 . S
C613 H637 0.949 . S
H614 C618 0.949 . S
C615 C616 1.349 . S
C615 C617 1.327 . S
C615 H638 0.950 . S
C616 C615 1.349 . S
C616 C628 1.349 . S
C617 C615 1.327 . S
C617 C633 1.429 . S
C617 H639 0.950 . S
C618 H614 0.949 . S
C618 C626 1.574 . S
C618 C634 1.368 . S
H619 C627 0.950 . S
H620 C625 0.950 . S
H621 C626 0.949 . S
H622 C628 0.950 . S
H623 C629 0.950 . S
H624 C630 0.949 . S
C625 H620 0.950 . S
C625 C627 1.327 . S
C625 C631 1.429 . S
C626 C618 1.574 . S
C626 H621 0.949 . S
C626 C632 1.368 . S
C627 C611 1.349 . S
C627 H619 0.950 . S
C627 C625 1.327 . S
C628 C616 1.349 . S
C628 H622 0.950 . S
C628 C629 1.327 . S
C629 H623 0.950 . S
C629 C628 1.327 . S
C629 C633 1.429 . S
C630 C613 1.574 . S
C630 H624 0.949 . S
C630 C634 1.368 . S
C631 C612 1.429 . S
C631 C625 1.429 . S
C631 C632 1.523 . S
C632 C613 1.368 . S
C632 C626 1.368 . S
C632 C631 1.523 . S
C633 C617 1.429 . S
C633 C629 1.429 . S
C633 C634 1.523 . S
C634 C618 1.368 . S
C634 C630 1.368 . S
C634 C633 1.523 . S
H635 C610 0.950 . S
H636 C612 0.950 . S
H637 C613 0.949 . S
H638 C615 0.950 . S
H639 C617 0.950 . S
C640 C641 1.349 . S
C640 C642 1.327 . S
C640 H665 0.950 . S
C641 C640 1.349 . S
C641 C657 1.349 . S
C642 C640 1.327 . S
C642 C661 1.429 . S
C642 H666 0.950 . S
C643 C660 1.574 . S
C643 C662 1.368 . S
C643 H667 0.949 . S
H644 C648 0.949 . S
C645 C646 1.349 . S
C645 C647 1.327 . S
C645 H668 0.950 . S
C646 C645 1.349 . S
C646 C658 1.349 . S
C647 C645 1.327 . S
C647 C663 1.429 . S
C647 H669 0.950 . S
C648 H644 0.949 . S
C648 C656 1.574 . S
C648 C664 1.368 . S
H649 C657 0.950 . S
H650 C655 0.950 . S
H651 C656 0.949 . S
H652 C658 0.950 . S
H653 C659 0.950 . S
H654 C660 0.949 . S
C655 H650 0.950 . S
C655 C657 1.327 . S
C655 C661 1.429 . S
C656 C648 1.574 . S
C656 H651 0.949 . S
C656 C662 1.368 . S
C657 C641 1.349 . S
C657 H649 0.950 . S
C657 C655 1.327 . S
C658 C646 1.349 . S
C658 H652 0.950 . S
C658 C659 1.327 . S
C659 H653 0.950 . S
C659 C658 1.327 . S
C659 C663 1.429 . S
C660 C643 1.574 . S
C660 H654 0.949 . S
C660 C664 1.368 . S
C661 C642 1.429 . S
C661 C655 1.429 . S
C661 C662 1.523 . S
C662 C643 1.368 . S
C662 C656 1.368 . S
C662 C661 1.523 . S
C663 C647 1.429 . S
C663 C659 1.429 . S
C663 C664 1.523 . S
C664 C648 1.368 . S
C664 C660 1.368 . S
C664 C663 1.523 . S
H665 C640 0.950 . S
H666 C642 0.950 . S
H667 C643 0.949 . S
H668 C645 0.950 . S
H669 C647 0.950 . S
C670 C671 1.349 . S
C670 C672 1.327 . S
C670 H695 0.950 . S
C671 C670 1.349 . S
C671 C687 1.349 . S
C672 C670 1.327 . S
C672 C691 1.429 . S
C672 H696 0.950 . S
C673 C690 1.574 . S
C673 C692 1.368 1_545 S
C673 H697 0.949 . S
H674 C678 0.949 . S
C675 C676 1.354 . S
C675 C677 1.327 . S
C675 H698 0.950 . S
C676 C675 1.354 . S
C676 C688 1.344 1_545 S
C677 C675 1.327 . S
C677 C693 1.429 1_545 S
C677 H699 0.950 . S
C678 H674 0.949 . S
C678 C686 1.574 . S
C678 C694 1.368 . S
H679 C687 0.959 . S
H680 C685 0.950 1_545 S
H681 C686 0.949 . S
H682 C688 0.950 . S
H683 C689 0.950 . S
H684 C690 0.949 . S
C685 H680 0.950 1_565 S
C685 C687 1.327 . S
C685 C691 1.429 . S
C686 C678 1.574 . S
C686 H681 0.949 . S
C686 C692 1.368 . S
C687 C671 1.349 . S
C687 H679 0.959 . S
C687 C685 1.327 . S
C688 C676 1.344 1_565 S
C688 H682 0.950 . S
C688 C689 1.327 . S
C689 H683 0.950 . S
C689 C688 1.327 . S
C689 C693 1.429 . S
C690 C673 1.574 . S
C690 H684 0.949 . S
C690 C694 1.368 1_545 S
C691 C672 1.429 . S
C691 C685 1.429 . S
C691 C692 1.523 . S
C692 C673 1.368 1_565 S
C692 C686 1.368 . S
C692 C691 1.523 . S
C693 C677 1.429 1_565 S
C693 C689 1.429 . S
C693 C694 1.523 . S
C694 C678 1.368 . S
C694 C690 1.368 1_565 S
C694 C693 1.523 . S
H695 C670 0.950 . S
H696 C672 0.950 . S
H697 C673 0.949 . S
H698 C675 0.950 . S
H699 C677 0.950 . S
C700 C701 1.349 . S
C700 C702 1.327 . S
C700 H725 0.950 . S
C701 C700 1.349 . S
C701 C717 1.349 . S
C702 C700 1.327 . S
C702 C721 1.429 . S
C702 H726 0.950 . S
C703 C720 1.574 . S
C703 C722 1.368 . S
C703 H727 0.949 . S
H704 C708 0.949 . S
C705 C706 1.349 . S
C705 C707 1.327 . S
C705 H728 0.950 . S
C706 C705 1.349 . S
C706 C718 1.349 . S
C707 C705 1.327 . S
C707 C723 1.429 . S
C707 H729 0.950 . S
C708 H704 0.949 . S
C708 C716 1.574 . S
C708 C724 1.368 . S
H709 C717 0.950 . S
H710 C715 0.950 . S
H711 C716 0.949 . S
H712 C718 0.950 . S
H713 C719 0.950 . S
H714 C720 0.949 . S
C715 H710 0.950 . S
C715 C717 1.327 . S
C715 C721 1.429 . S
C716 C708 1.574 . S
C716 H711 0.949 . S
C716 C722 1.368 . S
C717 C701 1.349 . S
C717 H709 0.950 . S
C717 C715 1.327 . S
C718 C706 1.349 . S
C718 H712 0.950 . S
C718 C719 1.327 . S
C719 H713 0.950 . S
C719 C718 1.327 . S
C719 C723 1.429 . S
C720 C703 1.574 . S
C720 H714 0.949 . S
C720 C724 1.368 . S
C721 C702 1.429 . S
C721 C715 1.429 . S
C721 C722 1.523 . S
C722 C703 1.368 . S
C722 C716 1.368 . S
C722 C721 1.523 . S
C723 C707 1.429 . S
C723 C719 1.429 . S
C723 C724 1.523 . S
C724 C708 1.368 . S
C724 C720 1.368 . S
C724 C723 1.523 . S
H725 C700 0.950 . S
H726 C702 0.950 . S
H727 C703 0.949 . S
H728 C705 0.950 . S
H729 C707 0.950 . S
C730 C731 1.349 . S
C730 C732 1.327 . S
C730 H755 0.950 . S
C731 C730 1.349 . S
C731 C747 1.349 . S
C732 C730 1.327 . S
C732 C751 1.429 . S
C732 H756 0.950 . S
C733 C750 1.574 . S
C733 C752 1.368 . S
C733 H757 0.949 . S
H734 C738 0.949 . S
C735 C736 1.349 . S
C735 C737 1.327 . S
C735 H758 0.950 . S
C736 C735 1.349 . S
C736 C748 1.349 . S
C737 C735 1.327 . S
C737 C753 1.429 . S
C737 H759 0.950 . S
C738 H734 0.949 . S
C738 C746 1.574 . S
C738 C754 1.368 . S
H739 C747 0.950 . S
H740 C745 0.950 . S
H741 C746 0.949 . S
H742 C748 0.950 . S
H743 C749 0.950 . S
H744 C750 0.949 . S
C745 H740 0.950 . S
C745 C747 1.327 . S
C745 C751 1.429 . S
C746 C738 1.574 . S
C746 H741 0.949 . S
C746 C752 1.368 . S
C747 C731 1.349 . S
C747 H739 0.950 . S
C747 C745 1.327 . S
C748 C736 1.349 . S
C748 H742 0.950 . S
C748 C749 1.327 . S
C749 H743 0.950 . S
C749 C748 1.327 . S
C749 C753 1.429 . S
C750 C733 1.574 . S
C750 H744 0.949 . S
C750 C754 1.368 . S
C751 C732 1.429 . S
C751 C745 1.429 . S
C751 C752 1.523 . S
C752 C733 1.368 . S
C752 C746 1.368 . S
C752 C751 1.523 . S
C753 C737 1.429 . S
C753 C749 1.429 . S
C753 C754 1.523 . S
C754 C738 1.368 . S
C754 C750 1.368 . S
C754 C753 1.523 . S
H755 C730 0.950 . S
H756 C732 0.950 . S
H757 C733 0.949 . S
H758 C735 0.950 . S
H759 C737 0.950 . S
C760 C761 1.349 . S
C760 C762 1.327 . S
C760 H785 0.950 . S
C761 C760 1.349 . S
C761 C777 1.349 . S
C762 C760 1.327 . S
C762 C781 1.429 . S
C762 H786 0.950 . S
C763 C780 1.574 . S
C763 C782 1.368 . S
C763 H787 0.949 . S
H764 C768 0.949 . S
C765 C766 1.349 . S
C765 C767 1.327 . S
C765 H788 0.950 . S
C766 C765 1.349 . S
C766 C778 1.349 . S
C767 C765 1.327 . S
C767 C783 1.429 . S
C767 H789 0.950 . S
C768 H764 0.949 . S
C768 C776 1.574 . S
C768 C784 1.368 . S
H769 C777 0.950 . S
H770 C775 0.950 . S
H771 C776 0.949 . S
H772 C778 0.950 . S
H773 C779 0.950 . S
H774 C780 0.949 . S
C775 H770 0.950 . S
C775 C777 1.327 . S
C775 C781 1.429 . S
C776 C768 1.574 . S
C776 H771 0.949 . S
C776 C782 1.368 . S
C777 C761 1.349 . S
C777 H769 0.950 . S
C777 C775 1.327 . S
C778 C766 1.349 . S
C778 H772 0.950 . S
C778 C779 1.327 . S
C779 H773 0.950 . S
C779 C778 1.327 . S
C779 C783 1.429 . S
C780 C763 1.574 . S
C780 H774 0.949 . S
C780 C784 1.368 . S
C781 C762 1.429 . S
C781 C775 1.429 . S
C781 C782 1.523 . S
C782 C763 1.368 . S
C782 C776 1.368 . S
C782 C781 1.523 . S
C783 C767 1.429 . S
C783 C779 1.429 . S
C783 C784 1.523 . S
C784 C768 1.368 . S
C784 C780 1.368 . S
C784 C783 1.523 . S
H785 C760 0.950 . S
H786 C762 0.950 . S
H787 C763 0.949 . S
H788 C765 0.950 . S
H789 C767 0.950 . S
C790 C791 1.349 . S
C790 C792 1.327 . S
C790 H815 0.950 . S
C791 C790 1.349 . S
C791 C807 1.349 . S
C792 C790 1.327 . S
C792 C811 1.429 . S
C792 H816 0.950 . S
C793 C810 1.574 . S
C793 C812 1.368 . S
C793 H817 0.949 . S
H794 C798 0.949 . S
C795 C796 1.349 . S
C795 C797 1.327 . S
C795 H818 0.950 . S
C796 C795 1.349 . S
C796 C808 1.349 . S
C797 C795 1.327 . S
C797 C813 1.429 . S
C797 H819 0.950 . S
C798 H794 0.949 . S
C798 C806 1.574 . S
C798 C814 1.368 . S
H799 C807 0.950 . S
H800 C805 0.950 . S
H801 C806 0.949 . S
H802 C808 0.950 . S
H803 C809 0.950 . S
H804 C810 0.949 . S
C805 H800 0.950 . S
C805 C807 1.327 . S
C805 C811 1.429 . S
C806 C798 1.574 . S
C806 H801 0.949 . S
C806 C812 1.368 . S
C807 C791 1.349 . S
C807 H799 0.950 . S
C807 C805 1.327 . S
C808 C796 1.349 . S
C808 H802 0.950 . S
C808 C809 1.327 . S
C809 H803 0.950 . S
C809 C808 1.327 . S
C809 C813 1.429 . S
C810 C793 1.574 . S
C810 H804 0.949 . S
C810 C814 1.368 . S
C811 C792 1.429 . S
C811 C805 1.429 . S
C811 C812 1.523 . S
C812 C793 1.368 . S
C812 C806 1.368 . S
C812 C811 1.523 . S
C813 C797 1.429 . S
C813 C809 1.429 . S
C813 C814 1.523 . S
C814 C798 1.368 . S
C814 C810 1.368 . S
C814 C813 1.523 . S
H815 C790 0.950 . S
H816 C792 0.950 . S
H817 C793 0.949 . S
H818 C795 0.950 . S
H819 C797 0.950 . S
C820 C821 1.349 . S
C820 C822 1.327 . S
C820 H845 0.950 . S
C821 C820 1.349 . S
C821 C837 1.349 . S
C822 C820 1.327 . S
C822 C841 1.429 . S
C822 H846 0.950 . S
C823 C840 1.574 . S
C823 C842 1.368 . S
C823 H847 0.949 . S
H824 C828 0.949 . S
C825 C826 1.349 . S
C825 C827 1.327 . S
C825 H848 0.950 . S
C826 C825 1.349 . S
C826 C838 1.349 . S
C827 C825 1.327 . S
C827 C843 1.429 . S
C827 H849 0.950 . S
C828 H824 0.949 . S
C828 C836 1.574 . S
C828 C844 1.368 . S
H829 C837 0.950 . S
H830 C835 0.950 . S
H831 C836 0.949 . S
H832 C838 0.950 . S
H833 C839 0.950 . S
H834 C840 0.949 . S
C835 H830 0.950 . S
C835 C837 1.327 . S
C835 C841 1.429 . S
C836 C828 1.574 . S
C836 H831 0.949 . S
C836 C842 1.368 . S
C837 C821 1.349 . S
C837 H829 0.950 . S
C837 C835 1.327 . S
C838 C826 1.349 . S
C838 H832 0.950 . S
C838 C839 1.327 . S
C839 H833 0.950 . S
C839 C838 1.327 . S
C839 C843 1.429 . S
C840 C823 1.574 . S
C840 H834 0.949 . S
C840 C844 1.368 . S
C841 C822 1.429 . S
C841 C835 1.429 . S
C841 C842 1.523 . S
C842 C823 1.368 . S
C842 C836 1.368 . S
C842 C841 1.523 . S
C843 C827 1.429 . S
C843 C839 1.429 . S
C843 C844 1.523 . S
C844 C828 1.368 . S
C844 C840 1.368 . S
C844 C843 1.523 . S
H845 C820 0.950 . S
H846 C822 0.950 . S
H847 C823 0.949 . S
H848 C825 0.950 . S
H849 C827 0.950 . S
C850 C851 1.349 . S
C850 C852 1.327 . S
C850 H875 0.950 . S
C851 C850 1.349 . S
C851 C867 1.349 . S
C852 C850 1.327 . S
C852 C871 1.429 . S
C852 H876 0.950 . S
C853 C870 1.574 . S
C853 C872 1.368 . S
C853 H877 0.949 . S
H854 C858 0.949 . S
C855 C856 1.349 . S
C855 C857 1.327 . S
C855 H878 0.950 . S
C856 C855 1.349 . S
C856 C868 1.349 . S
C857 C855 1.327 . S
C857 C873 1.429 . S
C857 H879 0.950 . S
C858 H854 0.949 . S
C858 C866 1.574 . S
C858 C874 1.368 . S
H859 C867 0.950 . S
H860 C865 0.950 . S
H861 C866 0.949 . S
H862 C868 0.950 . S
H863 C869 0.950 . S
H864 C870 0.949 . S
C865 H860 0.950 . S
C865 C867 1.327 . S
C865 C871 1.429 . S
C866 C858 1.574 . S
C866 H861 0.949 . S
C866 C872 1.368 . S
C867 C851 1.349 . S
C867 H859 0.950 . S
C867 C865 1.327 . S
C868 C856 1.349 . S
C868 H862 0.950 . S
C868 C869 1.327 . S
C869 H863 0.950 . S
C869 C868 1.327 . S
C869 C873 1.429 . S
C870 C853 1.574 . S
C870 H864 0.949 . S
C870 C874 1.368 . S
C871 C852 1.429 . S
C871 C865 1.429 . S
C871 C872 1.523 . S
C872 C853 1.368 . S
C872 C866 1.368 . S
C872 C871 1.523 . S
C873 C857 1.429 . S
C873 C869 1.429 . S
C873 C874 1.523 . S
C874 C858 1.368 . S
C874 C870 1.368 . S
C874 C873 1.523 . S
H875 C850 0.950 . S
H876 C852 0.950 . S
H877 C853 0.949 . S
H878 C855 0.950 . S
H879 C857 0.950 . S
C880 C881 1.349 . S
C880 C882 1.327 . S
C880 H905 0.950 . S
C881 C880 1.349 . S
C881 C897 1.349 . S
C882 C880 1.327 . S
C882 C901 1.429 . S
C882 H906 0.950 . S
C883 C900 1.574 . S
C883 C902 1.368 . S
C883 H907 0.949 . S
H884 C888 0.949 . S
C885 C886 1.349 . S
C885 C887 1.327 . S
C885 H908 0.950 . S
C886 C885 1.349 . S
C886 C898 1.349 . S
C887 C885 1.327 . S
C887 C903 1.429 . S
C887 H909 0.950 . S
C888 H884 0.949 . S
C888 C896 1.574 . S
C888 C904 1.368 . S
H889 C897 0.950 . S
H890 C895 0.950 . S
H891 C896 0.949 . S
H892 C898 0.950 . S
H893 C899 0.950 . S
H894 C900 0.949 . S
C895 H890 0.950 . S
C895 C897 1.327 . S
C895 C901 1.429 . S
C896 C888 1.574 . S
C896 H891 0.949 . S
C896 C902 1.368 . S
C897 C881 1.349 . S
C897 H889 0.950 . S
C897 C895 1.327 . S
C898 C886 1.349 . S
C898 H892 0.950 . S
C898 C899 1.327 . S
C899 H893 0.950 . S
C899 C898 1.327 . S
C899 C903 1.429 . S
C900 C883 1.574 . S
C900 H894 0.949 . S
C900 C904 1.368 . S
C901 C882 1.429 . S
C901 C895 1.429 . S
C901 C902 1.523 . S
C902 C883 1.368 . S
C902 C896 1.368 . S
C902 C901 1.523 . S
C903 C887 1.429 . S
C903 C899 1.429 . S
C903 C904 1.523 . S
C904 C888 1.368 . S
C904 C900 1.368 . S
C904 C903 1.523 . S
H905 C880 0.950 . S
H906 C882 0.950 . S
H907 C883 0.949 . S
H908 C885 0.950 . S
H909 C887 0.950 . S
C910 C911 1.349 . S
C910 C912 1.327 . S
C910 H935 0.950 . S
C911 C910 1.349 . S
C911 C927 1.349 . S
C912 C910 1.327 . S
C912 C931 1.429 . S
C912 H936 0.950 . S
C913 C930 1.574 . S
C913 C932 1.368 . S
C913 H937 0.949 . S
H914 C918 0.949 . S
C915 C916 1.349 . S
C915 C917 1.327 . S
C915 H938 0.950 . S
C916 C915 1.349 . S
C916 C928 1.349 . S
C917 C915 1.327 . S
C917 C933 1.429 . S
C917 H939 0.950 . S
C918 H914 0.949 . S
C918 C926 1.574 . S
C918 C934 1.368 . S
H919 C927 0.950 . S
H920 C925 0.950 . S
H921 C926 0.949 . S
H922 C928 0.950 1_455 S
H923 C929 0.947 1_455 S
H924 C930 0.949 . S
C925 H920 0.950 . S
C925 C927 1.327 . S
C925 C931 1.429 . S
C926 C918 1.574 . S
C926 H921 0.949 . S
C926 C932 1.368 . S
C927 C911 1.349 . S
C927 H919 0.950 . S
C927 C925 1.327 . S
C928 C916 1.349 . S
C928 H922 0.950 1_655 S
C928 C929 1.327 . S
C929 H923 0.947 1_655 S
C929 C928 1.327 . S
C929 C933 1.429 . S
C930 C913 1.574 . S
C930 H924 0.949 . S
C930 C934 1.368 . S
C931 C912 1.429 . S
C931 C925 1.429 . S
C931 C932 1.523 . S
C932 C913 1.368 . S
C932 C926 1.368 . S
C932 C931 1.523 . S
C933 C917 1.429 . S
C933 C929 1.429 . S
C933 C934 1.523 . S
C934 C918 1.368 . S
C934 C930 1.368 . S
C934 C933 1.523 . S
H935 C910 0.950 . S
H936 C912 0.950 . S
H937 C913 0.949 . S
H938 C915 0.950 . S
H939 C917 0.950 . S
C940 C941 1.349 . S
C940 C942 1.327 . S
C940 H965 0.950 . S
C941 C940 1.349 . S
C941 C957 1.349 . S
C942 C940 1.327 . S
C942 C961 1.429 . S
C942 H966 0.950 . S
C943 C960 1.574 . S
C943 C962 1.368 . S
C943 H967 0.949 . S
H944 C948 0.949 . S
C945 C946 1.349 . S
C945 C947 1.327 . S
C945 H968 0.950 . S
C946 C945 1.349 . S
C946 C958 1.349 . S
C947 C945 1.327 . S
C947 C963 1.429 . S
C947 H969 0.950 . S
C948 H944 0.949 . S
C948 C956 1.574 . S
C948 C964 1.368 . S
H949 C957 0.950 . S
H950 C955 0.950 . S
H951 C956 0.949 . S
H952 C958 0.950 . S
H953 C959 0.950 . S
H954 C960 0.949 . S
C955 H950 0.950 . S
C955 C957 1.327 . S
C955 C961 1.429 . S
C956 C948 1.574 . S
C956 H951 0.949 . S
C956 C962 1.368 . S
C957 C941 1.349 . S
C957 H949 0.950 . S
C957 C955 1.327 . S
C958 C946 1.349 . S
C958 H952 0.950 . S
C958 C959 1.327 . S
C959 H953 0.950 . S
C959 C958 1.327 . S
C959 C963 1.429 . S
C960 C943 1.574 . S
C960 H954 0.949 . S
C960 C964 1.368 . S
C961 C942 1.429 . S
C961 C955 1.429 . S
C961 C962 1.523 . S
C962 C943 1.368 . S
C962 C956 1.368 . S
C962 C961 1.523 . S
C963 C947 1.429 . S
C963 C959 1.429 . S
C963 C964 1.523 . S
C964 C948 1.368 . S
C964 C960 1.368 . S
C964 C963 1.523 . S
H965 C940 0.950 . S
H966 C942 0.950 . S
H967 C943 0.949 . S
H968 C945 0.950 . S
H969 C947 0.950 . S
C970 C971 1.349 . S
C970 C972 1.327 . S
C970 H995 0.950 . S
C971 C970 1.349 . S
C971 C987 1.349 . S
C972 C970 1.327 . S
C972 C991 1.429 . S
C972 H996 0.950 . S
C973 C990 1.574 . S
C973 C992 1.368 . S
C973 H997 0.949 . S
H974 C978 0.949 . S
C975 C976 1.349 . S
C975 C977 1.327 . S
C975 H998 0.950 . S
C976 C975 1.349 . S
C976 C988 1.349 . S
C977 C975 1.327 . S
C977 C993 1.429 . S
C977 H999 0.950 . S
C978 H974 0.949 . S
C978 C986 1.574 . S
C978 C994 1.368 . S
H979 C987 0.950 . S
H980 C985 0.950 . S
H981 C986 0.949 . S
H982 C988 0.950 . S
H983 C989 0.950 . S
H984 C990 0.949 . S
C985 H980 0.950 . S
C985 C987 1.327 . S
C985 C991 1.429 . S
C986 C978 1.574 . S
C986 H981 0.949 . S
C986 C992 1.368 . S
C987 C971 1.349 . S
C987 H979 0.950 . S
C987 C985 1.327 . S
C988 C976 1.349 . S
C988 H982 0.950 . S
C988 C989 1.327 . S
C989 H983 0.950 . S
C989 C988 1.327 . S
C989 C993 1.429 . S
C990 C973 1.574 . S
C990 H984 0.949 . S
C990 C994 1.368 . S
C991 C972 1.429 . S
C991 C985 1.429 . S
C991 C992 1.523 . S
C992 C973 1.368 . S
C992 C986 1.368 . S
C992 C991 1.523 . S
C993 C977 1.429 . S
C993 C989 1.429 . S
C993 C994 1.523 . S
C994 C978 1.368 . S
C994 C990 1.368 . S
C994 C993 1.523 . S
H995 C970 0.950 . S
H996 C972 0.950 . S
H997 C973 0.949 . S
H998 C975 0.950 . S
H999 C977 0.950 . S
C1000 C1001 1.349 . S
C1000 C1002 1.327 . S
C1000 H1025 0.950 . S
C1001 C1000 1.349 . S
C1001 C1017 1.349 1_545 S
C1002 C1000 1.327 . S
C1002 C1021 1.429 1_545 S
C1002 H1026 0.939 1_556 S
C1003 C1020 1.574 . S
C1003 C1022 1.368 . S
C1003 H1027 0.949 . S
H1004 C1008 0.949 . S
C1005 C1006 1.349 . S
C1005 C1007 1.327 . S
C1005 H1028 0.950 . S
C1006 C1005 1.349 . S
C1006 C1018 1.349 . S
C1007 C1005 1.327 . S
C1007 C1023 1.429 . S
C1007 H1029 0.950 . S
C1008 H1004 0.949 . S
C1008 C1016 1.574 . S
C1008 C1024 1.368 . S
H1009 C1017 0.950 . S
H1010 C1015 0.950 . S
H1011 C1016 0.949 1_545 S
H1012 C1018 0.950 . S
H1013 C1019 0.950 . S
H1014 C1020 0.949 . S
C1015 H1010 0.950 . S
C1015 C1017 1.327 . S
C1015 C1021 1.429 . S
C1016 C1008 1.574 . S
C1016 H1011 0.949 1_565 S
C1016 C1022 1.368 1_554 S
C1017 C1001 1.349 1_565 S
C1017 H1009 0.950 . S
C1017 C1015 1.327 . S
C1018 C1006 1.349 . S
C1018 H1012 0.950 . S
C1018 C1019 1.327 . S
C1019 H1013 0.950 . S
C1019 C1018 1.327 . S
C1019 C1023 1.429 . S
C1020 C1003 1.574 . S
C1020 H1014 0.949 . S
C1020 C1024 1.368 1_556 S
C1021 C1002 1.429 1_565 S
C1021 C1015 1.429 . S
C1021 C1022 1.523 . S
C1022 C1003 1.368 . S
C1022 C1016 1.368 1_556 S
C1022 C1021 1.523 . S
C1023 C1007 1.429 . S
C1023 C1019 1.429 . S
C1023 C1024 1.523 . S
C1024 C1008 1.368 . S
C1024 C1020 1.368 1_554 S
C1024 C1023 1.523 . S
H1025 C1000 0.950 . S
H1026 C1002 0.939 1_554 S
H1027 C1003 0.949 . S
H1028 C1005 0.950 . S
H1029 C1007 0.950 . S
C1030 C1031 1.349 . S
C1030 C1032 1.327 . S
C1030 H1055 0.950 . S
C1031 C1030 1.349 . S
C1031 C1047 1.349 . S
C1032 C1030 1.327 . S
C1032 C1051 1.429 . S
C1032 H1056 0.950 . S
C1033 C1050 1.574 . S
C1033 C1052 1.368 . S
C1033 H1057 0.949 . S
H1034 C1038 0.949 . S
C1035 C1036 1.349 . S
C1035 C1037 1.327 . S
C1035 H1058 0.950 . S
C1036 C1035 1.349 . S
C1036 C1048 1.349 . S
C1037 C1035 1.327 . S
C1037 C1053 1.429 . S
C1037 H1059 0.950 . S
C1038 H1034 0.949 . S
C1038 C1046 1.574 . S
C1038 C1054 1.368 . S
H1039 C1047 0.950 . S
H1040 C1045 0.950 . S
H1041 C1046 0.949 . S
H1042 C1048 0.950 . S
H1043 C1049 0.950 . S
H1044 C1050 0.949 . S
C1045 H1040 0.950 . S
C1045 C1047 1.327 . S
C1045 C1051 1.429 . S
C1046 C1038 1.574 . S
C1046 H1041 0.949 . S
C1046 C1052 1.368 . S
C1047 C1031 1.349 . S
C1047 H1039 0.950 . S
C1047 C1045 1.327 . S
C1048 C1036 1.349 . S
C1048 H1042 0.950 . S
C1048 C1049 1.327 . S
C1049 H1043 0.950 . S
C1049 C1048 1.327 . S
C1049 C1053 1.429 . S
C1050 C1033 1.574 . S
C1050 H1044 0.949 . S
C1050 C1054 1.368 . S
C1051 C1032 1.429 . S
C1051 C1045 1.429 . S
C1051 C1052 1.523 . S
C1052 C1033 1.368 . S
C1052 C1046 1.368 . S
C1052 C1051 1.523 . S
C1053 C1037 1.429 . S
C1053 C1049 1.429 . S
C1053 C1054 1.523 . S
C1054 C1038 1.368 . S
C1054 C1050 1.368 . S
C1054 C1053 1.523 . S
H1055 C1030 0.950 . S
H1056 C1032 0.950 . S
H1057 C1033 0.949 . S
H1058 C1035 0.950 . S
H1059 C1037 0.950 . S
C1060 C1061 1.331 1_545 S
C1060 C1062 1.327 . S
C1060 H1085 0.950 . S
C1061 C1060 1.331 1_565 S
C1061 C1077 1.363 1_565 S
C1062 C1060 1.327 . S
C1062 C1081 1.429 . S
C1062 H1086 0.950 . S
C1063 C1080 1.574 . S
C1063 C1082 1.368 . S
C1063 H1087 0.949 . S
H1064 C1068 0.949 . S
C1065 C1066 1.349 . S
C1065 C1067 1.327 . S
C1065 H1088 0.950 . S
C1066 C1065 1.349 . S
C1066 C1078 1.349 . S
C1067 C1065 1.327 . S
C1067 C1083 1.429 . S
C1067 H1089 0.950 . S
C1068 H1064 0.949 . S
C1068 C1076 1.574 . S
C1068 C1084 1.368 . S
H1069 C1077 0.913 1_565 S
H1070 C1075 0.950 . S
H1071 C1076 0.949 . S
H1072 C1078 0.950 . S
H1073 C1079 0.950 . S
H1074 C1080 0.949 . S
C1075 H1070 0.950 . S
C1075 C1077 1.357 . S
C1075 C1081 1.429 . S
C1076 C1068 1.574 . S
C1076 H1071 0.949 . S
C1076 C1082 1.368 . S
C1077 C1061 1.363 1_545 S
C1077 H1069 0.913 1_545 S
C1077 C1075 1.357 . S
C1078 C1066 1.349 . S
C1078 H1072 0.950 . S
C1078 C1079 1.327 . S
C1079 H1073 0.950 . S
C1079 C1078 1.327 . S
C1079 C1083 1.429 . S
C1080 C1063 1.574 . S
C1080 H1074 0.949 . S
C1080 C1084 1.368 . S
C1081 C1062 1.429 . S
C1081 C1075 1.429 . S
C1081 C1082 1.523 . S
C1082 C1063 1.368 . S
C1082 C1076 1.368 . S
C1082 C1081 1.523 . S
C1083 C1067 1.429 . S
C1083 C1079 1.429 . S
C1083 C1084 1.523 . S
C1084 C1068 1.368 . S
C1084 C1080 1.368 . S
C1084 C1083 1.523 . S
H1085 C1060 0.950 . S
H1086 C1062 0.950 . S
H1087 C1063 0.949 . S
H1088 C1065 0.950 . S
H1089 C1067 0.950 . S
C1090 C1091 1.349 . S
C1090 C1092 1.327 . S
C1090 H1115 0.950 . S
C1091 C1090 1.349 . S
C1091 C1107 1.349 . S
C1092 C1090 1.327 . S
C1092 C1111 1.429 . S
C1092 H1116 0.950 . S
C1093 C1110 1.574 . S
C1093 C1112 1.368 . S
C1093 H1117 0.949 . S
H1094 C1098 0.949 . S
C1095 C1096 1.349 . S
C1095 C1097 1.327 . S
C1095 H1118 0.950 . S
C1096 C1095 1.349 . S
C1096 C1108 1.349 . S
C1097 C1095 1.327 . S
C1097 C1113 1.429 . S
C1097 H1119 0.950 . S
C1098 H1094 0.949 . S
C1098 C1106 1.574 . S
C1098 C1114 1.368 . S
H1099 C1107 0.950 . S
H1100 C1105 0.950 . S
H1101 C1106 0.949 . S
H1102 C1108 0.950 . S
H1103 C1109 0.950 . S
H1104 C1110 0.949 . S
C1105 H1100 0.950 . S
C1105 C1107 1.327 . S
C1105 C1111 1.429 . S
C1106 C1098 1.574 . S
C1106 H1101 0.949 . S
C1106 C1112 1.368 . S
C1107 C1091 1.349 . S
C1107 H1099 0.950 . S
C1107 C1105 1.327 . S
C1108 C1096 1.349 . S
C1108 H1102 0.950 . S
C1108 C1109 1.327 . S
C1109 H1103 0.950 . S
C1109 C1108 1.327 . S
C1109 C1113 1.429 . S
C1110 C1093 1.574 . S
C1110 H1104 0.949 . S
C1110 C1114 1.368 . S
C1111 C1092 1.429 . S
C1111 C1105 1.429 . S
C1111 C1112 1.523 . S
C1112 C1093 1.368 . S
C1112 C1106 1.368 . S
C1112 C1111 1.523 . S
C1113 C1097 1.429 . S
C1113 C1109 1.429 . S
C1113 C1114 1.523 . S
C1114 C1098 1.368 . S
C1114 C1110 1.368 . S
C1114 C1113 1.523 . S
H1115 C1090 0.950 . S
H1116 C1092 0.950 . S
H1117 C1093 0.949 . S
H1118 C1095 0.950 . S
H1119 C1097 0.950 . S
C1120 C1121 1.356 1_565 S
C1120 C1122 1.327 1_565 S
C1120 H1145 0.950 . S
C1121 C1120 1.356 1_545 S
C1121 C1137 1.393 . S
C1122 C1120 1.327 1_545 S
C1122 C1141 1.429 . S
C1122 H1146 0.950 . S
C1123 C1140 1.574 . S
C1123 C1142 1.368 . S
C1123 H1147 0.949 . S
H1124 C1128 0.949 . S
C1125 C1126 1.349 . S
C1125 C1127 1.327 . S
C1125 H1148 0.950 . S
C1126 C1125 1.349 . S
C1126 C1138 1.349 . S
C1127 C1125 1.327 . S
C1127 C1143 1.429 . S
C1127 H1149 0.950 . S
C1128 H1124 0.949 . S
C1128 C1136 1.574 . S
C1128 C1144 1.368 . S
H1129 C1137 0.950 . S
H1130 C1135 0.950 . S
H1131 C1136 0.949 . S
H1132 C1138 0.950 . S
H1133 C1139 0.950 . S
H1134 C1140 0.949 . S
C1135 H1130 0.950 . S
C1135 C1137 1.327 . S
C1135 C1141 1.429 . S
C1136 C1128 1.574 . S
C1136 H1131 0.949 . S
C1136 C1142 1.368 . S
C1137 C1121 1.393 . S
C1137 H1129 0.950 . S
C1137 C1135 1.327 . S
C1138 C1126 1.349 . S
C1138 H1132 0.950 . S
C1138 C1139 1.327 . S
C1139 H1133 0.950 . S
C1139 C1138 1.327 . S
C1139 C1143 1.429 . S
C1140 C1123 1.574 . S
C1140 H1134 0.949 . S
C1140 C1144 1.368 . S
C1141 C1122 1.429 . S
C1141 C1135 1.429 . S
C1141 C1142 1.523 . S
C1142 C1123 1.368 . S
C1142 C1136 1.368 . S
C1142 C1141 1.523 . S
C1143 C1127 1.429 . S
C1143 C1139 1.429 . S
C1143 C1144 1.523 . S
C1144 C1128 1.368 . S
C1144 C1140 1.368 . S
C1144 C1143 1.523 . S
H1145 C1120 0.950 . S
H1146 C1122 0.950 . S
H1147 C1123 0.949 . S
H1148 C1125 0.950 . S
H1149 C1127 0.950 . S
C1150 C1151 1.349 . S
C1150 C1152 1.327 . S
C1150 H1175 0.950 . S
C1151 C1150 1.349 . S
C1151 C1167 1.349 . S
C1152 C1150 1.327 . S
C1152 C1171 1.429 . S
C1152 H1176 0.950 . S
C1153 C1170 1.574 . S
C1153 C1172 1.368 . S
C1153 H1177 0.949 . S
H1154 C1158 0.949 . S
C1155 C1156 1.349 . S
C1155 C1157 1.327 . S
C1155 H1178 0.950 . S
C1156 C1155 1.349 . S
C1156 C1168 1.349 . S
C1157 C1155 1.327 . S
C1157 C1173 1.429 . S
C1157 H1179 0.950 . S
C1158 H1154 0.949 . S
C1158 C1166 1.574 . S
C1158 C1174 1.368 . S
H1159 C1167 0.950 . S
H1160 C1165 0.950 . S
H1161 C1166 0.949 . S
H1162 C1168 0.950 . S
H1163 C1169 0.950 . S
H1164 C1170 0.949 . S
C1165 H1160 0.950 . S
C1165 C1167 1.327 . S
C1165 C1171 1.429 . S
C1166 C1158 1.574 . S
C1166 H1161 0.949 . S
C1166 C1172 1.368 . S
C1167 C1151 1.349 . S
C1167 H1159 0.950 . S
C1167 C1165 1.327 . S
C1168 C1156 1.349 . S
C1168 H1162 0.950 . S
C1168 C1169 1.327 . S
C1169 H1163 0.950 . S
C1169 C1168 1.327 . S
C1169 C1173 1.429 . S
C1170 C1153 1.574 . S
C1170 H1164 0.949 . S
C1170 C1174 1.368 . S
C1171 C1152 1.429 . S
C1171 C1165 1.429 . S
C1171 C1172 1.523 . S
C1172 C1153 1.368 . S
C1172 C1166 1.368 . S
C1172 C1171 1.523 . S
C1173 C1157 1.429 . S
C1173 C1169 1.429 . S
C1173 C1174 1.523 . S
C1174 C1158 1.368 . S
C1174 C1170 1.368 . S
C1174 C1173 1.523 . S
H1175 C1150 0.950 . S
H1176 C1152 0.950 . S
H1177 C1153 0.949 . S
H1178 C1155 0.950 . S
H1179 C1157 0.950 . S
C1180 C1181 1.349 . S
C1180 C1182 1.327 . S
C1180 H1205 0.950 . S
C1181 C1180 1.349 . S
C1181 C1197 1.349 . S
C1182 C1180 1.327 . S
C1182 C1201 1.429 . S
C1182 H1206 0.950 . S
C1183 C1200 1.574 . S
C1183 C1202 1.368 . S
C1183 H1207 0.949 . S
H1184 C1188 0.949 . S
C1185 C1186 1.349 . S
C1185 C1187 1.327 . S
C1185 H1208 0.950 . S
C1186 C1185 1.349 . S
C1186 C1198 1.349 . S
C1187 C1185 1.327 . S
C1187 C1203 1.429 . S
C1187 H1209 0.950 . S
C1188 H1184 0.949 . S
C1188 C1196 1.574 . S
C1188 C1204 1.368 . S
H1189 C1197 0.950 . S
H1190 C1195 0.950 . S
H1191 C1196 0.949 . S
H1192 C1198 0.950 . S
H1193 C1199 0.950 . S
H1194 C1200 0.949 . S
C1195 H1190 0.950 . S
C1195 C1197 1.327 . S
C1195 C1201 1.429 . S
C1196 C1188 1.574 . S
C1196 H1191 0.949 . S
C1196 C1202 1.368 . S
C1197 C1181 1.349 . S
C1197 H1189 0.950 . S
C1197 C1195 1.327 . S
C1198 C1186 1.349 . S
C1198 H1192 0.950 . S
C1198 C1199 1.327 . S
C1199 H1193 0.950 . S
C1199 C1198 1.327 . S
C1199 C1203 1.429 . S
C1200 C1183 1.574 . S
C1200 H1194 0.949 . S
C1200 C1204 1.368 . S
C1201 C1182 1.429 . S
C1201 C1195 1.429 . S
C1201 C1202 1.523 . S
C1202 C1183 1.368 . S
C1202 C1196 1.368 . S
C1202 C1201 1.523 . S
C1203 C1187 1.429 . S
C1203 C1199 1.429 . S
C1203 C1204 1.523 . S
C1204 C1188 1.368 . S
C1204 C1200 1.368 . S
C1204 C1203 1.523 . S
H1205 C1180 0.950 . S
H1206 C1182 0.950 . S
H1207 C1183 0.949 . S
H1208 C1185 0.950 . S
H1209 C1187 0.950 . S
C1210 C1211 1.349 . S
C1210 C1212 1.327 . S
C1210 H1235 0.950 . S
C1211 C1210 1.349 . S
C1211 C1227 1.349 . S
C1212 C1210 1.327 . S
C1212 C1231 1.429 . S
C1212 H1236 0.950 . S
C1213 C1230 1.574 . S
C1213 C1232 1.368 . S
C1213 H1237 0.949 . S
H1214 C1218 0.949 . S
C1215 C1216 1.349 . S
C1215 C1217 1.327 . S
C1215 H1238 0.950 . S
C1216 C1215 1.349 . S
C1216 C1228 1.349 . S
C1217 C1215 1.327 . S
C1217 C1233 1.429 . S
C1217 H1239 0.950 . S
C1218 H1214 0.949 . S
C1218 C1226 1.574 . S
C1218 C1234 1.368 . S
H1219 C1227 0.950 . S
H1220 C1225 0.950 . S
H1221 C1226 0.949 . S
H1222 C1228 0.950 . S
H1223 C1229 0.950 . S
H1224 C1230 0.949 . S
C1225 H1220 0.950 . S
C1225 C1227 1.327 . S
C1225 C1231 1.429 . S
C1226 C1218 1.574 . S
C1226 H1221 0.949 . S
C1226 C1232 1.368 . S
C1227 C1211 1.349 . S
C1227 H1219 0.950 . S
C1227 C1225 1.327 . S
C1228 C1216 1.349 . S
C1228 H1222 0.950 . S
C1228 C1229 1.327 . S
C1229 H1223 0.950 . S
C1229 C1228 1.327 . S
C1229 C1233 1.429 . S
C1230 C1213 1.574 . S
C1230 H1224 0.949 . S
C1230 C1234 1.368 . S
C1231 C1212 1.429 . S
C1231 C1225 1.429 . S
C1231 C1232 1.523 . S
C1232 C1213 1.368 . S
C1232 C1226 1.368 . S
C1232 C1231 1.523 . S
C1233 C1217 1.429 . S
C1233 C1229 1.429 . S
C1233 C1234 1.523 . S
C1234 C1218 1.368 . S
C1234 C1230 1.368 . S
C1234 C1233 1.523 . S
H1235 C1210 0.950 . S
H1236 C1212 0.950 . S
H1237 C1213 0.949 . S
H1238 C1215 0.950 . S
H1239 C1217 0.950 . S
C1240 C1241 1.349 . S
C1240 C1242 1.327 . S
C1240 H1265 0.950 . S
C1241 C1240 1.349 . S
C1241 C1257 1.349 . S
C1242 C1240 1.327 . S
C1242 C1261 1.429 . S
C1242 H1266 0.950 . S
C1243 C1260 1.574 . S
C1243 C1262 1.368 . S
C1243 H1267 0.949 . S
H1244 C1248 0.949 . S
C1245 C1246 1.349 . S
C1245 C1247 1.327 . S
C1245 H1268 0.950 . S
C1246 C1245 1.349 . S
C1246 C1258 1.349 . S
C1247 C1245 1.327 . S
C1247 C1263 1.429 . S
C1247 H1269 0.950 . S
C1248 H1244 0.949 . S
C1248 C1256 1.574 . S
C1248 C1264 1.368 . S
H1249 C1257 0.950 . S
H1250 C1255 0.950 . S
H1251 C1256 0.949 . S
H1252 C1258 0.950 . S
H1253 C1259 0.950 . S
H1254 C1260 0.949 . S
C1255 H1250 0.950 . S
C1255 C1257 1.327 . S
C1255 C1261 1.429 . S
C1256 C1248 1.574 . S
C1256 H1251 0.949 . S
C1256 C1262 1.368 . S
C1257 C1241 1.349 . S
C1257 H1249 0.950 . S
C1257 C1255 1.327 . S
C1258 C1246 1.349 . S
C1258 H1252 0.950 . S
C1258 C1259 1.327 . S
C1259 H1253 0.950 . S
C1259 C1258 1.327 . S
C1259 C1263 1.429 . S
C1260 C1243 1.574 . S
C1260 H1254 0.949 . S
C1260 C1264 1.368 . S
C1261 C1242 1.429 . S
C1261 C1255 1.429 . S
C1261 C1262 1.523 . S
C1262 C1243 1.368 . S
C1262 C1256 1.368 . S
C1262 C1261 1.523 . S
C1263 C1247 1.429 . S
C1263 C1259 1.429 . S
C1263 C1264 1.523 . S
C1264 C1248 1.368 . S
C1264 C1260 1.368 . S
C1264 C1263 1.523 . S
H1265 C1240 0.950 . S
H1266 C1242 0.950 . S
H1267 C1243 0.949 . S
H1268 C1245 0.950 . S
H1269 C1247 0.950 . S
C1270 C1271 1.349 . S
C1270 C1272 1.327 . S
C1270 H1295 0.950 . S
C1271 C1270 1.349 . S
C1271 C1287 1.349 . S
C1272 C1270 1.327 . S
C1272 C1291 1.429 . S
C1272 H1296 0.950 . S
C1273 C1290 1.574 . S
C1273 C1292 1.368 . S
C1273 H1297 0.949 . S
H1274 C1278 0.949 . S
C1275 C1276 1.349 . S
C1275 C1277 1.327 . S
C1275 H1298 0.950 . S
C1276 C1275 1.349 . S
C1276 C1288 1.349 . S
C1277 C1275 1.327 . S
C1277 C1293 1.429 . S
C1277 H1299 0.950 . S
C1278 H1274 0.949 . S
C1278 C1286 1.574 . S
C1278 C1294 1.368 . S
H1279 C1287 0.950 . S
H1280 C1285 0.950 . S
H1281 C1286 0.949 . S
H1282 C1288 0.950 . S
H1283 C1289 0.950 . S
H1284 C1290 0.949 . S
C1285 H1280 0.950 . S
C1285 C1287 1.327 . S
C1285 C1291 1.429 . S
C1286 C1278 1.574 . S
C1286 H1281 0.949 . S
C1286 C1292 1.368 . S
C1287 C1271 1.349 . S
C1287 H1279 0.950 . S
C1287 C1285 1.327 . S
C1288 C1276 1.349 . S
C1288 H1282 0.950 . S
C1288 C1289 1.327 . S
C1289 H1283 0.950 . S
C1289 C1288 1.327 . S
C1289 C1293 1.429 . S
C1290 C1273 1.574 . S
C1290 H1284 0.949 . S
C1290 C1294 1.368 . S
C1291 C1272 1.429 . S
C1291 C1285 1.429 . S
C1291 C1292 1.523 . S
C1292 C1273 1.368 . S
C1292 C1286 1.368 . S
C1292 C1291 1.523 . S
C1293 C1277 1.429 . S
C1293 C1289 1.429 . S
C1293 C1294 1.523 . S
C1294 C1278 1.368 . S
C1294 C1290 1.368 . S
C1294 C1293 1.523 . S
H1295 C1270 0.950 . S
H1296 C1272 0.950 . S
H1297 C1273 0.949 . S
H1298 C1275 0.950 . S
H1299 C1277 0.950 . S
C1300 C1301 1.349 . S
C1300 C1302 1.327 . S
C1300 H1325 0.950 . S
C1301 C1300 1.349 . S
C1301 C1317 1.349 . S
C1302 C1300 1.327 . S
C1302 C1321 1.429 . S
C1302 H1326 0.950 . S
C1303 C1320 1.574 . S
C1303 C1322 1.368 . S
C1303 H1327 0.949 . S
H1304 C1308 0.949 . S
C1305 C1306 1.349 . S
C1305 C1307 1.327 . S
C1305 H1328 0.950 . S
C1306 C1305 1.349 . S
C1306 C1318 1.349 . S
C1307 C1305 1.327 . S
C1307 C1323 1.429 . S
C1307 H1329 0.950 . S
C1308 H1304 0.949 . S
C1308 C1316 1.574 . S
C1308 C1324 1.368 . S
H1309 C1317 0.950 . S
H1310 C1315 0.950 . S
H1311 C1316 0.949 . S
H1312 C1318 0.950 . S
H1313 C1319 0.950 . S
H1314 C1320 0.949 . S
C1315 H1310 0.950 . S
C1315 C1317 1.327 . S
C1315 C1321 1.429 . S
C1316 C1308 1.574 . S
C1316 H1311 0.949 . S
C1316 C1322 1.368 . S
C1317 C1301 1.349 . S
C1317 H1309 0.950 . S
C1317 C1315 1.327 . S
C1318 C1306 1.349 . S
C1318 H1312 0.950 . S
C1318 C1319 1.327 . S
C1319 H1313 0.950 . S
C1319 C1318 1.327 . S
C1319 C1323 1.429 . S
C1320 C1303 1.574 . S
C1320 H1314 0.949 . S
C1320 C1324 1.368 . S
C1321 C1302 1.429 . S
C1321 C1315 1.429 . S
C1321 C1322 1.523 . S
C1322 C1303 1.368 . S
C1322 C1316 1.368 . S
C1322 C1321 1.523 . S
C1323 C1307 1.429 . S
C1323 C1319 1.429 . S
C1323 C1324 1.523 . S
C1324 C1308 1.368 . S
C1324 C1320 1.368 . S
C1324 C1323 1.523 . S
H1325 C1300 0.950 . S
H1326 C1302 0.950 . S
H1327 C1303 0.949 . S
H1328 C1305 0.950 . S
H1329 C1307 0.950 . S
C1330 C1331 1.349 . S
C1330 C1332 1.327 . S
C1330 H1355 0.950 . S
C1331 C1330 1.349 . S
C1331 C1347 1.349 . S
C1332 C1330 1.327 . S
C1332 C1351 1.429 . S
C1332 H1356 0.950 . S
C1333 C1350 1.561 1_455 S
C1333 C1352 1.390 . S
C1333 H1357 0.942 1_455 S
H1334 C1338 0.949 . S
C1335 C1336 1.349 . S
C1335 C1337 1.327 . S
C1335 H1358 0.950 . S
C1336 C1335 1.349 . S
C1336 C1348 1.349 . S
C1337 C1335 1.327 . S
C1337 C1353 1.429 . S
C1337 H1359 0.950 . S
C1338 H1334 0.949 . S
C1338 C1346 1.574 . S
C1338 C1354 1.368 1_455 S
H1339 C1347 0.950 . S
H1340 C1345 0.950 . S
H1341 C1346 0.949 . S
H1342 C1348 0.950 . S
H1343 C1349 0.950 1_455 S
H1344 C1350 0.949 . S
C1345 H1340 0.950 . S
C1345 C1347 1.327 . S
C1345 C1351 1.429 . S
C1346 C1338 1.574 . S
C1346 H1341 0.949 . S
C1346 C1352 1.368 . S
C1347 C1331 1.349 . S
C1347 H1339 0.950 . S
C1347 C1345 1.327 . S
C1348 C1336 1.349 . S
C1348 H1342 0.950 . S
C1348 C1349 1.327 . S
C1349 H1343 0.950 1_655 S
C1349 C1348 1.327 . S
C1349 C1353 1.429 . S
C1350 C1333 1.561 1_655 S
C1350 H1344 0.949 . S
C1350 C1354 1.368 . S
C1351 C1332 1.429 . S
C1351 C1345 1.429 . S
C1351 C1352 1.523 . S
C1352 C1333 1.390 . S
C1352 C1346 1.368 . S
C1352 C1351 1.523 . S
C1353 C1337 1.429 . S
C1353 C1349 1.429 . S
C1353 C1354 1.523 . S
C1354 C1338 1.368 1_655 S
C1354 C1350 1.368 . S
C1354 C1353 1.523 . S
H1355 C1330 0.950 . S
H1356 C1332 0.950 . S
H1357 C1333 0.942 1_655 S
H1358 C1335 0.950 . S
H1359 C1337 0.950 . S
C1360 C1361 1.349 . S
C1360 C1362 1.327 . S
C1360 H1385 0.950 . S
C1361 C1360 1.349 . S
C1361 C1377 1.349 . S
C1362 C1360 1.327 . S
C1362 C1381 1.429 . S
C1362 H1386 0.950 . S
C1363 C1380 1.574 . S
C1363 C1382 1.368 . S
C1363 H1387 0.949 . S
H1364 C1368 0.949 . S
C1365 C1366 1.349 . S
C1365 C1367 1.327 . S
C1365 H1388 0.950 . S
C1366 C1365 1.349 . S
C1366 C1378 1.349 . S
C1367 C1365 1.327 . S
C1367 C1383 1.429 . S
C1367 H1389 0.950 . S
C1368 H1364 0.949 . S
C1368 C1376 1.574 . S
C1368 C1384 1.368 . S
H1369 C1377 0.950 . S
H1370 C1375 0.950 . S
H1371 C1376 0.949 . S
H1372 C1378 0.950 . S
H1373 C1379 0.950 . S
H1374 C1380 0.949 . S
C1375 H1370 0.950 . S
C1375 C1377 1.327 . S
C1375 C1381 1.429 . S
C1376 C1368 1.574 . S
C1376 H1371 0.949 . S
C1376 C1382 1.368 . S
C1377 C1361 1.349 . S
C1377 H1369 0.950 . S
C1377 C1375 1.327 . S
C1378 C1366 1.349 . S
C1378 H1372 0.950 . S
C1378 C1379 1.327 . S
C1379 H1373 0.950 . S
C1379 C1378 1.327 . S
C1379 C1383 1.429 . S
C1380 C1363 1.574 . S
C1380 H1374 0.949 . S
C1380 C1384 1.368 . S
C1381 C1362 1.429 . S
C1381 C1375 1.429 . S
C1381 C1382 1.523 . S
C1382 C1363 1.368 . S
C1382 C1376 1.368 . S
C1382 C1381 1.523 . S
C1383 C1367 1.429 . S
C1383 C1379 1.429 . S
C1383 C1384 1.523 . S
C1384 C1368 1.368 . S
C1384 C1380 1.368 . S
C1384 C1383 1.523 . S
H1385 C1360 0.950 . S
H1386 C1362 0.950 . S
H1387 C1363 0.949 . S
H1388 C1365 0.950 . S
H1389 C1367 0.950 . S
C1390 C1391 1.349 . S
C1390 C1392 1.327 . S
C1390 H1415 0.950 . S
C1391 C1390 1.349 . S
C1391 C1407 1.349 . S
C1392 C1390 1.327 . S
C1392 C1411 1.429 . S
C1392 H1416 0.950 . S
C1393 C1410 1.574 . S
C1393 C1412 1.368 . S
C1393 H1417 0.949 . S
H1394 C1398 0.949 . S
C1395 C1396 1.349 . S
C1395 C1397 1.327 . S
C1395 H1418 0.950 . S
C1396 C1395 1.349 . S
C1396 C1408 1.349 . S
C1397 C1395 1.327 . S
C1397 C1413 1.429 . S
C1397 H1419 0.950 . S
C1398 H1394 0.949 . S
C1398 C1406 1.574 . S
C1398 C1414 1.368 . S
H1399 C1407 0.950 . S
H1400 C1405 0.950 . S
H1401 C1406 0.949 . S
H1402 C1408 0.950 . S
H1403 C1409 0.950 . S
H1404 C1410 0.949 . S
C1405 H1400 0.950 . S
C1405 C1407 1.327 . S
C1405 C1411 1.429 . S
C1406 C1398 1.574 . S
C1406 H1401 0.949 . S
C1406 C1412 1.368 . S
C1407 C1391 1.349 . S
C1407 H1399 0.950 . S
C1407 C1405 1.327 . S
C1408 C1396 1.349 . S
C1408 H1402 0.950 . S
C1408 C1409 1.327 . S
C1409 H1403 0.950 . S
C1409 C1408 1.327 . S
C1409 C1413 1.429 . S
C1410 C1393 1.574 . S
C1410 H1404 0.949 . S
C1410 C1414 1.368 . S
C1411 C1392 1.429 . S
C1411 C1405 1.429 . S
C1411 C1412 1.523 . S
C1412 C1393 1.368 . S
C1412 C1406 1.368 . S
C1412 C1411 1.523 . S
C1413 C1397 1.429 . S
C1413 C1409 1.429 . S
C1413 C1414 1.523 . S
C1414 C1398 1.368 . S
C1414 C1410 1.368 . S
C1414 C1413 1.523 . S
H1415 C1390 0.950 . S
H1416 C1392 0.950 . S
H1417 C1393 0.949 . S
H1418 C1395 0.950 . S
H1419 C1397 0.950 . S
C1420 C1421 1.349 . S
C1420 C1422 1.327 . S
C1420 H1445 0.950 . S
C1421 C1420 1.349 . S
C1421 C1437 1.349 . S
C1422 C1420 1.327 . S
C1422 C1441 1.429 . S
C1422 H1446 0.950 . S
C1423 C1440 1.574 . S
C1423 C1442 1.368 . S
C1423 H1447 0.949 . S
H1424 C1428 0.949 . S
C1425 C1426 1.349 . S
C1425 C1427 1.327 . S
C1425 H1448 0.950 . S
C1426 C1425 1.349 . S
C1426 C1438 1.349 . S
C1427 C1425 1.327 . S
C1427 C1443 1.429 . S
C1427 H1449 0.950 . S
C1428 H1424 0.949 . S
C1428 C1436 1.574 . S
C1428 C1444 1.368 . S
H1429 C1437 0.950 . S
H1430 C1435 0.950 . S
H1431 C1436 0.949 . S
H1432 C1438 0.950 . S
H1433 C1439 0.950 . S
H1434 C1440 0.949 . S
C1435 H1430 0.950 . S
C1435 C1437 1.327 . S
C1435 C1441 1.429 . S
C1436 C1428 1.574 . S
C1436 H1431 0.949 . S
C1436 C1442 1.368 . S
C1437 C1421 1.349 . S
C1437 H1429 0.950 . S
C1437 C1435 1.327 . S
C1438 C1426 1.349 . S
C1438 H1432 0.950 . S
C1438 C1439 1.327 . S
C1439 H1433 0.950 . S
C1439 C1438 1.327 . S
C1439 C1443 1.429 . S
C1440 C1423 1.574 . S
C1440 H1434 0.949 . S
C1440 C1444 1.368 . S
C1441 C1422 1.429 . S
C1441 C1435 1.429 . S
C1441 C1442 1.523 . S
C1442 C1423 1.368 . S
C1442 C1436 1.368 . S
C1442 C1441 1.523 . S
C1443 C1427 1.429 . S
C1443 C1439 1.429 . S
C1443 C1444 1.523 . S
C1444 C1428 1.368 . S
C1444 C1440 1.368 . S
C1444 C1443 1.523 . S
H1445 C1420 0.950 . S
H1446 C1422 0.950 . S
H1447 C1423 0.949 . S
H1448 C1425 0.950 . S
H1449 C1427 0.950 . S
C1450 C1451 1.349 1_655 S
C1450 C1452 1.327 . S
C1450 H1475 0.950 . S
C1451 C1450 1.349 1_455 S
C1451 C1467 1.349 . S
C1452 C1450 1.327 . S
C1452 C1471 1.429 1_655 S
C1452 H1476 0.950 . S
C1453 C1470 1.574 . S
C1453 C1472 1.368 . S
C1453 H1477 0.949 . S
H1454 C1458 0.949 . S
C1455 C1456 1.349 . S
C1455 C1457 1.327 . S
C1455 H1478 0.950 . S
C1456 C1455 1.349 . S
C1456 C1468 1.349 1_455 S
C1457 C1455 1.327 . S
C1457 C1473 1.429 . S
C1457 H1479 0.950 . S
C1458 H1454 0.949 . S
C1458 C1466 1.574 . S
C1458 C1474 1.368 1_655 S
H1459 C1467 0.950 . S
H1460 C1465 0.950 . S
H1461 C1466 0.949 . S
H1462 C1468 0.950 . S
H1463 C1469 0.950 . S
H1464 C1470 0.949 . S
C1465 H1460 0.950 . S
C1465 C1467 1.327 . S
C1465 C1471 1.429 . S
C1466 C1458 1.574 . S
C1466 H1461 0.949 . S
C1466 C1472 1.368 1_655 S
C1467 C1451 1.349 . S
C1467 H1459 0.950 . S
C1467 C1465 1.327 . S
C1468 C1456 1.349 1_655 S
C1468 H1462 0.950 . S
C1468 C1469 1.327 . S
C1469 H1463 0.950 . S
C1469 C1468 1.327 . S
C1469 C1473 1.429 1_655 S
C1470 C1453 1.574 . S
C1470 H1464 0.949 . S
C1470 C1474 1.368 . S
C1471 C1452 1.429 1_455 S
C1471 C1465 1.429 . S
C1471 C1472 1.523 . S
C1472 C1453 1.368 . S
C1472 C1466 1.368 1_455 S
C1472 C1471 1.523 . S
C1473 C1457 1.429 . S
C1473 C1469 1.429 1_455 S
C1473 C1474 1.523 . S
C1474 C1458 1.368 1_455 S
C1474 C1470 1.368 . S
C1474 C1473 1.523 . S
H1475 C1450 0.950 . S
H1476 C1452 0.950 . S
H1477 C1453 0.949 . S
H1478 C1455 0.950 . S
H1479 C1457 0.950 . S
C1480 C1481 1.349 . S
C1480 C1482 1.327 . S
C1480 H1505 0.950 . S
C1481 C1480 1.349 . S
C1481 C1497 1.349 . S
C1482 C1480 1.327 . S
C1482 C1501 1.429 . S
C1482 H1506 0.950 . S
C1483 C1500 1.574 . S
C1483 C1502 1.368 . S
C1483 H1507 0.949 . S
H1484 C1488 0.949 . S
C1485 C1486 1.349 . S
C1485 C1487 1.327 . S
C1485 H1508 0.950 . S
C1486 C1485 1.349 . S
C1486 C1498 1.349 . S
C1487 C1485 1.327 . S
C1487 C1503 1.429 . S
C1487 H1509 0.950 . S
C1488 H1484 0.949 . S
C1488 C1496 1.574 . S
C1488 C1504 1.368 . S
H1489 C1497 0.950 . S
H1490 C1495 0.950 . S
H1491 C1496 0.949 . S
H1492 C1498 0.950 . S
H1493 C1499 0.950 . S
H1494 C1500 0.949 . S
C1495 H1490 0.950 . S
C1495 C1497 1.327 . S
C1495 C1501 1.429 . S
C1496 C1488 1.574 . S
C1496 H1491 0.949 . S
C1496 C1502 1.368 . S
C1497 C1481 1.349 . S
C1497 H1489 0.950 . S
C1497 C1495 1.327 . S
C1498 C1486 1.349 . S
C1498 H1492 0.950 . S
C1498 C1499 1.327 . S
C1499 H1493 0.950 . S
C1499 C1498 1.327 . S
C1499 C1503 1.429 . S
C1500 C1483 1.574 . S
C1500 H1494 0.949 . S
C1500 C1504 1.368 . S
C1501 C1482 1.429 . S
C1501 C1495 1.429 . S
C1501 C1502 1.523 . S
C1502 C1483 1.368 . S
C1502 C1496 1.368 . S
C1502 C1501 1.523 . S
C1503 C1487 1.429 . S
C1503 C1499 1.429 . S
C1503 C1504 1.523 . S
C1504 C1488 1.368 . S
C1504 C1500 1.368 . S
C1504 C1503 1.523 . S
H1505 C1480 0.950 . S
H1506 C1482 0.950 . S
H1507 C1483 0.949 . S
H1508 C1485 0.950 . S
H1509 C1487 0.950 . S
C1510 C1511 1.349 . S
C1510 C1512 1.326 . S
C1510 H1535 0.950 1_556 S
C1511 C1510 1.349 . S
C1511 C1527 1.349 . S
C1512 C1510 1.326 . S
C1512 C1531 1.429 . S
C1512 H1536 0.950 . S
C1513 C1530 1.574 . S
C1513 C1532 1.368 . S
C1513 H1537 0.949 . S
H1514 C1518 0.949 . S
C1515 C1516 1.349 . S
C1515 C1517 1.327 . S
C1515 H1538 0.950 1_455 S
C1516 C1515 1.349 . S
C1516 C1528 1.349 . S
C1517 C1515 1.327 . S
C1517 C1533 1.429 . S
C1517 H1539 0.947 1_455 S
C1518 H1514 0.949 . S
C1518 C1526 1.574 . S
C1518 C1534 1.368 . S
H1519 C1527 0.950 . S
H1520 C1525 0.950 . S
H1521 C1526 0.949 . S
H1522 C1528 0.950 . S
H1523 C1529 0.950 . S
H1524 C1530 0.949 . S
C1525 H1520 0.950 . S
C1525 C1527 1.327 . S
C1525 C1531 1.429 . S
C1526 C1518 1.574 . S
C1526 H1521 0.949 . S
C1526 C1532 1.368 . S
C1527 C1511 1.349 . S
C1527 H1519 0.950 . S
C1527 C1525 1.327 . S
C1528 C1516 1.349 . S
C1528 H1522 0.950 . S
C1528 C1529 1.327 . S
C1529 H1523 0.950 . S
C1529 C1528 1.327 . S
C1529 C1533 1.429 . S
C1530 C1513 1.574 . S
C1530 H1524 0.949 . S
C1530 C1534 1.368 . S
C1531 C1512 1.429 . S
C1531 C1525 1.429 . S
C1531 C1532 1.523 . S
C1532 C1513 1.368 . S
C1532 C1526 1.368 . S
C1532 C1531 1.523 . S
C1533 C1517 1.429 . S
C1533 C1529 1.429 . S
C1533 C1534 1.523 . S
C1534 C1518 1.368 . S
C1534 C1530 1.368 . S
C1534 C1533 1.523 . S
H1535 C1510 0.950 1_554 S
H1536 C1512 0.950 . S
H1537 C1513 0.949 . S
H1538 C1515 0.950 1_655 S
H1539 C1517 0.947 1_655 S
C1540 C1541 1.349 . S
C1540 C1542 1.327 . S
C1540 H1565 0.950 . S
C1541 C1540 1.349 . S
C1541 C1557 1.349 . S
C1542 C1540 1.327 . S
C1542 C1561 1.429 . S
C1542 H1566 0.950 . S
C1543 C1560 1.574 . S
C1543 C1562 1.368 . S
C1543 H1567 0.949 . S
H1544 C1548 0.949 . S
C1545 C1546 1.349 . S
C1545 C1547 1.327 . S
C1545 H1568 0.950 . S
C1546 C1545 1.349 . S
C1546 C1558 1.349 . S
C1547 C1545 1.327 . S
C1547 C1563 1.429 . S
C1547 H1569 0.950 . S
C1548 H1544 0.949 . S
C1548 C1556 1.574 . S
C1548 C1564 1.368 . S
H1549 C1557 0.950 . S
H1550 C1555 0.950 . S
H1551 C1556 0.949 . S
H1552 C1558 0.950 . S
H1553 C1559 0.950 . S
H1554 C1560 0.949 . S
C1555 H1550 0.950 . S
C1555 C1557 1.327 . S
C1555 C1561 1.429 . S
C1556 C1548 1.574 . S
C1556 H1551 0.949 . S
C1556 C1562 1.368 . S
C1557 C1541 1.349 . S
C1557 H1549 0.950 . S
C1557 C1555 1.327 . S
C1558 C1546 1.349 . S
C1558 H1552 0.950 . S
C1558 C1559 1.327 . S
C1559 H1553 0.950 . S
C1559 C1558 1.327 . S
C1559 C1563 1.429 . S
C1560 C1543 1.574 . S
C1560 H1554 0.949 . S
C1560 C1564 1.368 . S
C1561 C1542 1.429 . S
C1561 C1555 1.429 . S
C1561 C1562 1.523 . S
C1562 C1543 1.368 . S
C1562 C1556 1.368 . S
C1562 C1561 1.523 . S
C1563 C1547 1.429 . S
C1563 C1559 1.429 . S
C1563 C1564 1.523 . S
C1564 C1548 1.368 . S
C1564 C1560 1.368 . S
C1564 C1563 1.523 . S
H1565 C1540 0.950 . S
H1566 C1542 0.950 . S
H1567 C1543 0.949 . S
H1568 C1545 0.950 . S
H1569 C1547 0.950 . S
C1570 C1571 1.349 . S
C1570 C1572 1.327 . S
C1570 H1595 0.950 . S
C1571 C1570 1.349 . S
C1571 C1587 1.349 . S
C1572 C1570 1.327 . S
C1572 C1591 1.429 . S
C1572 H1596 0.950 . S
C1573 C1590 1.574 . S
C1573 C1592 1.368 . S
C1573 H1597 0.949 . S
H1574 C1578 0.949 . S
C1575 C1576 1.349 . S
C1575 C1577 1.327 . S
C1575 H1598 0.950 . S
C1576 C1575 1.349 . S
C1576 C1588 1.349 . S
C1577 C1575 1.327 . S
C1577 C1593 1.429 . S
C1577 H1599 0.950 . S
C1578 H1574 0.949 . S
C1578 C1586 1.574 . S
C1578 C1594 1.368 . S
H1579 C1587 0.950 . S
H1580 C1585 0.950 . S
H1581 C1586 0.949 . S
H1582 C1588 0.950 . S
H1583 C1589 0.950 . S
H1584 C1590 0.949 . S
C1585 H1580 0.950 . S
C1585 C1587 1.327 . S
C1585 C1591 1.429 . S
C1586 C1578 1.574 . S
C1586 H1581 0.949 . S
C1586 C1592 1.368 . S
C1587 C1571 1.349 . S
C1587 H1579 0.950 . S
C1587 C1585 1.327 . S
C1588 C1576 1.349 . S
C1588 H1582 0.950 . S
C1588 C1589 1.327 . S
C1589 H1583 0.950 . S
C1589 C1588 1.327 . S
C1589 C1593 1.429 . S
C1590 C1573 1.574 . S
C1590 H1584 0.949 . S
C1590 C1594 1.368 . S
C1591 C1572 1.429 . S
C1591 C1585 1.429 . S
C1591 C1592 1.523 . S
C1592 C1573 1.368 . S
C1592 C1586 1.368 . S
C1592 C1591 1.523 . S
C1593 C1577 1.429 . S
C1593 C1589 1.429 . S
C1593 C1594 1.523 . S
C1594 C1578 1.368 . S
C1594 C1590 1.368 . S
C1594 C1593 1.523 . S
H1595 C1570 0.950 . S
H1596 C1572 0.950 . S
H1597 C1573 0.949 . S
H1598 C1575 0.950 . S
H1599 C1577 0.950 . S
C1600 C1601 1.349 . S
C1600 C1602 1.327 . S
C1600 H1625 0.950 . S
C1601 C1600 1.349 . S
C1601 C1617 1.349 . S
C1602 C1600 1.327 . S
C1602 C1621 1.429 . S
C1602 H1626 0.950 . S
C1603 C1620 1.574 . S
C1603 C1622 1.368 . S
C1603 H1627 0.949 . S
H1604 C1608 0.949 . S
C1605 C1606 1.349 . S
C1605 C1607 1.327 . S
C1605 H1628 0.950 . S
C1606 C1605 1.349 . S
C1606 C1618 1.349 . S
C1607 C1605 1.327 . S
C1607 C1623 1.429 . S
C1607 H1629 0.950 . S
C1608 H1604 0.949 . S
C1608 C1616 1.574 . S
C1608 C1624 1.368 . S
H1609 C1617 0.950 . S
H1610 C1615 0.950 . S
H1611 C1616 0.949 . S
H1612 C1618 0.950 . S
H1613 C1619 0.950 . S
H1614 C1620 0.949 . S
C1615 H1610 0.950 . S
C1615 C1617 1.327 . S
C1615 C1621 1.429 . S
C1616 C1608 1.574 . S
C1616 H1611 0.949 . S
C1616 C1622 1.368 . S
C1617 C1601 1.349 . S
C1617 H1609 0.950 . S
C1617 C1615 1.327 . S
C1618 C1606 1.349 . S
C1618 H1612 0.950 . S
C1618 C1619 1.327 . S
C1619 H1613 0.950 . S
C1619 C1618 1.327 . S
C1619 C1623 1.429 . S
C1620 C1603 1.574 . S
C1620 H1614 0.949 . S
C1620 C1624 1.368 . S
C1621 C1602 1.429 . S
C1621 C1615 1.429 . S
C1621 C1622 1.523 . S
C1622 C1603 1.368 . S
C1622 C1616 1.368 . S
C1622 C1621 1.523 . S
C1623 C1607 1.429 . S
C1623 C1619 1.429 . S
C1623 C1624 1.523 . S
C1624 C1608 1.368 . S
C1624 C1620 1.368 . S
C1624 C1623 1.523 . S
H1625 C1600 0.950 . S
H1626 C1602 0.950 . S
H1627 C1603 0.949 . S
H1628 C1605 0.950 . S
H1629 C1607 0.950 . S
C1630 C1631 1.349 . S
C1630 C1632 1.317 1_556 S
C1630 H1655 0.950 . S
C1631 C1630 1.349 . S
C1631 C1647 1.312 1_556 S
C1632 C1630 1.317 1_554 S
C1632 C1651 1.441 . S
C1632 H1656 0.947 1_554 S
C1633 C1650 1.574 . S
C1633 C1652 1.368 . S
C1633 H1657 0.949 . S
H1634 C1638 0.949 . S
C1635 C1636 1.349 . S
C1635 C1637 1.327 . S
C1635 H1658 0.950 . S
C1636 C1635 1.349 . S
C1636 C1648 1.349 . S
C1637 C1635 1.327 . S
C1637 C1653 1.429 . S
C1637 H1659 0.950 . S
C1638 H1634 0.949 . S
C1638 C1646 1.574 . S
C1638 C1654 1.368 . S
H1639 C1647 0.951 . S
H1640 C1645 0.950 . S
H1641 C1646 0.949 . S
H1642 C1648 0.950 . S
H1643 C1649 0.950 . S
H1644 C1650 0.949 . S
C1645 H1640 0.950 . S
C1645 C1647 1.359 . S
C1645 C1651 1.429 . S
C1646 C1638 1.574 . S
C1646 H1641 0.949 . S
C1646 C1652 1.368 . S
C1647 C1631 1.312 1_554 S
C1647 H1639 0.951 . S
C1647 C1645 1.359 . S
C1648 C1636 1.349 . S
C1648 H1642 0.950 . S
C1648 C1649 1.327 . S
C1649 H1643 0.950 . S
C1649 C1648 1.327 . S
C1649 C1653 1.429 . S
C1650 C1633 1.574 . S
C1650 H1644 0.949 . S
C1650 C1654 1.368 . S
C1651 C1632 1.441 . S
C1651 C1645 1.429 . S
C1651 C1652 1.523 . S
C1652 C1633 1.368 . S
C1652 C1646 1.368 . S
C1652 C1651 1.523 . S
C1653 C1637 1.429 . S
C1653 C1649 1.429 . S
C1653 C1654 1.523 . S
C1654 C1638 1.368 . S
C1654 C1650 1.368 . S
C1654 C1653 1.523 . S
H1655 C1630 0.950 . S
H1656 C1632 0.947 1_556 S
H1657 C1633 0.949 . S
H1658 C1635 0.950 . S
H1659 C1637 0.950 . S
C1660 C1661 1.349 . S
C1660 C1662 1.327 . S
C1660 H1685 0.950 . S
C1661 C1660 1.349 . S
C1661 C1677 1.349 . S
C1662 C1660 1.327 . S
C1662 C1681 1.429 . S
C1662 H1686 0.950 . S
C1663 C1680 1.574 . S
C1663 C1682 1.368 . S
C1663 H1687 0.949 . S
H1664 C1668 0.949 . S
C1665 C1666 1.349 . S
C1665 C1667 1.327 . S
C1665 H1688 0.950 . S
C1666 C1665 1.349 . S
C1666 C1678 1.349 . S
C1667 C1665 1.327 . S
C1667 C1683 1.429 . S
C1667 H1689 0.950 . S
C1668 H1664 0.949 . S
C1668 C1676 1.574 . S
C1668 C1684 1.368 . S
H1669 C1677 0.950 . S
H1670 C1675 0.950 . S
H1671 C1676 0.949 . S
H1672 C1678 0.950 . S
H1673 C1679 0.950 . S
H1674 C1680 0.949 . S
C1675 H1670 0.950 . S
C1675 C1677 1.327 . S
C1675 C1681 1.429 . S
C1676 C1668 1.574 . S
C1676 H1671 0.949 . S
C1676 C1682 1.368 . S
C1677 C1661 1.349 . S
C1677 H1669 0.950 . S
C1677 C1675 1.327 . S
C1678 C1666 1.349 . S
C1678 H1672 0.950 . S
C1678 C1679 1.327 . S
C1679 H1673 0.950 . S
C1679 C1678 1.327 . S
C1679 C1683 1.429 . S
C1680 C1663 1.574 . S
C1680 H1674 0.949 . S
C1680 C1684 1.368 . S
C1681 C1662 1.429 . S
C1681 C1675 1.429 . S
C1681 C1682 1.523 . S
C1682 C1663 1.368 . S
C1682 C1676 1.368 . S
C1682 C1681 1.523 . S
C1683 C1667 1.429 . S
C1683 C1679 1.429 . S
C1683 C1684 1.523 . S
C1684 C1668 1.368 . S
C1684 C1680 1.368 . S
C1684 C1683 1.523 . S
H1685 C1660 0.950 . S
H1686 C1662 0.950 . S
H1687 C1663 0.949 . S
H1688 C1665 0.950 . S
H1689 C1667 0.950 . S
C1690 C1691 1.349 . S
C1690 C1692 1.327 . S
C1690 H1715 0.950 . S
C1691 C1690 1.349 . S
C1691 C1707 1.349 . S
C1692 C1690 1.327 . S
C1692 C1711 1.429 . S
C1692 H1716 0.950 . S
C1693 C1710 1.574 . S
C1693 C1712 1.368 . S
C1693 H1717 0.949 . S
H1694 C1698 0.949 . S
C1695 C1696 1.349 . S
C1695 C1697 1.327 . S
C1695 H1718 0.950 . S
C1696 C1695 1.349 . S
C1696 C1708 1.349 . S
C1697 C1695 1.327 . S
C1697 C1713 1.429 . S
C1697 H1719 0.950 . S
C1698 H1694 0.949 . S
C1698 C1706 1.574 . S
C1698 C1714 1.368 . S
H1699 C1707 0.950 . S
H1700 C1705 0.950 . S
H1701 C1706 0.949 . S
H1702 C1708 0.950 . S
H1703 C1709 0.950 . S
H1704 C1710 0.949 . S
C1705 H1700 0.950 . S
C1705 C1707 1.327 . S
C1705 C1711 1.429 . S
C1706 C1698 1.574 . S
C1706 H1701 0.949 . S
C1706 C1712 1.368 . S
C1707 C1691 1.349 . S
C1707 H1699 0.950 . S
C1707 C1705 1.327 . S
C1708 C1696 1.349 . S
C1708 H1702 0.950 . S
C1708 C1709 1.327 . S
C1709 H1703 0.950 . S
C1709 C1708 1.327 . S
C1709 C1713 1.429 . S
C1710 C1693 1.574 . S
C1710 H1704 0.949 . S
C1710 C1714 1.368 . S
C1711 C1692 1.429 . S
C1711 C1705 1.429 . S
C1711 C1712 1.523 . S
C1712 C1693 1.368 . S
C1712 C1706 1.368 . S
C1712 C1711 1.523 . S
C1713 C1697 1.429 . S
C1713 C1709 1.429 . S
C1713 C1714 1.523 . S
C1714 C1698 1.368 . S
C1714 C1710 1.368 . S
C1714 C1713 1.523 . S
H1715 C1690 0.950 . S
H1716 C1692 0.950 . S
H1717 C1693 0.949 . S
H1718 C1695 0.950 . S
H1719 C1697 0.950 . S
C1720 C1721 1.349 . S
C1720 C1722 1.327 . S
C1720 H1745 0.950 . S
C1721 C1720 1.349 . S
C1721 C1737 1.349 . S
C1722 C1720 1.327 . S
C1722 C1741 1.429 . S
C1722 H1746 0.950 . S
C1723 C1740 1.574 . S
C1723 C1742 1.368 . S
C1723 H1747 0.949 . S
H1724 C1728 0.949 . S
C1725 C1726 1.349 . S
C1725 C1727 1.327 . S
C1725 H1748 0.950 . S
C1726 C1725 1.349 . S
C1726 C1738 1.349 . S
C1727 C1725 1.327 . S
C1727 C1743 1.429 . S
C1727 H1749 0.950 . S
C1728 H1724 0.949 . S
C1728 C1736 1.574 . S
C1728 C1744 1.368 . S
H1729 C1737 0.950 . S
H1730 C1735 0.950 . S
H1731 C1736 0.949 . S
H1732 C1738 0.950 . S
H1733 C1739 0.950 . S
H1734 C1740 0.949 . S
C1735 H1730 0.950 . S
C1735 C1737 1.327 . S
C1735 C1741 1.429 . S
C1736 C1728 1.574 . S
C1736 H1731 0.949 . S
C1736 C1742 1.368 . S
C1737 C1721 1.349 . S
C1737 H1729 0.950 . S
C1737 C1735 1.327 . S
C1738 C1726 1.349 . S
C1738 H1732 0.950 . S
C1738 C1739 1.327 . S
C1739 H1733 0.950 . S
C1739 C1738 1.327 . S
C1739 C1743 1.429 . S
C1740 C1723 1.574 . S
C1740 H1734 0.949 . S
C1740 C1744 1.368 . S
C1741 C1722 1.429 . S
C1741 C1735 1.429 . S
C1741 C1742 1.523 . S
C1742 C1723 1.368 . S
C1742 C1736 1.368 . S
C1742 C1741 1.523 . S
C1743 C1727 1.429 . S
C1743 C1739 1.429 . S
C1743 C1744 1.523 . S
C1744 C1728 1.368 . S
C1744 C1740 1.368 . S
C1744 C1743 1.523 . S
H1745 C1720 0.950 . S
H1746 C1722 0.950 . S
H1747 C1723 0.949 . S
H1748 C1725 0.950 . S
H1749 C1727 0.950 . S
C1750 C1751 1.349 . S
C1750 C1752 1.327 . S
C1750 H1775 0.950 . S
C1751 C1750 1.349 . S
C1751 C1767 1.349 . S
C1752 C1750 1.327 . S
C1752 C1771 1.429 . S
C1752 H1776 0.950 . S
C1753 C1770 1.574 . S
C1753 C1772 1.368 . S
C1753 H1777 0.949 . S
H1754 C1758 0.949 . S
C1755 C1756 1.349 . S
C1755 C1757 1.327 . S
C1755 H1778 0.950 . S
C1756 C1755 1.349 . S
C1756 C1768 1.349 . S
C1757 C1755 1.327 . S
C1757 C1773 1.429 . S
C1757 H1779 0.950 . S
C1758 H1754 0.949 . S
C1758 C1766 1.574 . S
C1758 C1774 1.368 . S
H1759 C1767 0.950 . S
H1760 C1765 0.950 . S
H1761 C1766 0.949 . S
H1762 C1768 0.950 . S
H1763 C1769 0.950 . S
H1764 C1770 0.949 . S
C1765 H1760 0.950 . S
C1765 C1767 1.327 . S
C1765 C1771 1.429 . S
C1766 C1758 1.574 . S
C1766 H1761 0.949 . S
C1766 C1772 1.368 . S
C1767 C1751 1.349 . S
C1767 H1759 0.950 . S
C1767 C1765 1.327 . S
C1768 C1756 1.349 . S
C1768 H1762 0.950 . S
C1768 C1769 1.327 . S
C1769 H1763 0.950 . S
C1769 C1768 1.327 . S
C1769 C1773 1.429 . S
C1770 C1753 1.574 . S
C1770 H1764 0.949 . S
C1770 C1774 1.368 . S
C1771 C1752 1.429 . S
C1771 C1765 1.429 . S
C1771 C1772 1.523 . S
C1772 C1753 1.368 . S
C1772 C1766 1.368 . S
C1772 C1771 1.523 . S
C1773 C1757 1.429 . S
C1773 C1769 1.429 . S
C1773 C1774 1.523 . S
C1774 C1758 1.368 . S
C1774 C1770 1.368 . S
C1774 C1773 1.523 . S
H1775 C1750 0.950 . S
H1776 C1752 0.950 . S
H1777 C1753 0.949 . S
H1778 C1755 0.950 . S
H1779 C1757 0.950 . S
C1780 C1781 1.381 . S
C1780 C1782 1.334 1_556 S
C1780 H1805 0.915 1_556 S
C1781 C1780 1.381 . S
C1781 C1797 1.349 . S
C1782 C1780 1.334 1_554 S
C1782 C1801 1.411 1_554 S
C1782 H1806 0.966 . S
C1783 C1800 1.574 . S
C1783 C1802 1.368 . S
C1783 H1807 0.949 . S
H1784 C1788 0.949 . S
C1785 C1786 1.349 . S
C1785 C1787 1.327 . S
C1785 H1808 0.950 . S
C1786 C1785 1.349 . S
C1786 C1798 1.349 1_556 S
C1787 C1785 1.327 . S
C1787 C1803 1.429 . S
C1787 H1809 0.950 . S
C1788 H1784 0.949 . S
C1788 C1796 1.574 . S
C1788 C1804 1.368 1_554 S
H1789 C1797 0.950 . S
H1790 C1795 0.950 . S
H1791 C1796 0.949 . S
H1792 C1798 0.950 . S
H1793 C1799 0.950 . S
H1794 C1800 0.949 . S
C1795 H1790 0.950 . S
C1795 C1797 1.327 . S
C1795 C1801 1.429 . S
C1796 C1788 1.574 . S
C1796 H1791 0.949 . S
C1796 C1802 1.368 1_554 S
C1797 C1781 1.349 . S
C1797 H1789 0.950 . S
C1797 C1795 1.327 . S
C1798 C1786 1.349 1_554 S
C1798 H1792 0.950 . S
C1798 C1799 1.327 . S
C1799 H1793 0.950 . S
C1799 C1798 1.327 . S
C1799 C1803 1.429 1_554 S
C1800 C1783 1.574 . S
C1800 H1794 0.949 . S
C1800 C1804 1.368 . S
C1801 C1782 1.411 1_556 S
C1801 C1795 1.429 . S
C1801 C1802 1.523 . S
C1802 C1783 1.368 . S
C1802 C1796 1.368 1_556 S
C1802 C1801 1.523 . S
C1803 C1787 1.429 . S
C1803 C1799 1.429 1_556 S
C1803 C1804 1.523 . S
C1804 C1788 1.368 1_556 S
C1804 C1800 1.368 . S
C1804 C1803 1.523 . S
H1805 C1780 0.915 1_554 S
H1806 C1782 0.966 . S
H1807 C1783 0.949 . S
H1808 C1785 0.950 . S
H1809 C1787 0.950 . S
C1810 C1811 1.349 . S
C1810 C1812 1.327 . S
C1810 H1835 0.950 . S
C1811 C1810 1.349 . S
C1811 C1827 1.349 . S
C1812 C1810 1.327 . S
C1812 C1831 1.429 . S
C1812 H1836 0.950 . S
C1813 C1830 1.574 . S
C1813 C1832 1.368 . S
C1813 H1837 0.949 . S
H1814 C1818 0.949 . S
C1815 C1816 1.349 . S
C1815 C1817 1.327 . S
C1815 H1838 0.950 . S
C1816 C1815 1.349 . S
C1816 C1828 1.349 . S
C1817 C1815 1.327 . S
C1817 C1833 1.429 . S
C1817 H1839 0.950 . S
C1818 H1814 0.949 . S
C1818 C1826 1.574 . S
C1818 C1834 1.368 . S
H1819 C1827 0.950 . S
H1820 C1825 0.950 . S
H1821 C1826 0.949 . S
H1822 C1828 0.950 . S
H1823 C1829 0.950 . S
H1824 C1830 0.949 . S
C1825 H1820 0.950 . S
C1825 C1827 1.327 . S
C1825 C1831 1.429 . S
C1826 C1818 1.574 . S
C1826 H1821 0.949 . S
C1826 C1832 1.368 . S
C1827 C1811 1.349 . S
C1827 H1819 0.950 . S
C1827 C1825 1.327 . S
C1828 C1816 1.349 . S
C1828 H1822 0.950 . S
C1828 C1829 1.327 . S
C1829 H1823 0.950 . S
C1829 C1828 1.327 . S
C1829 C1833 1.429 . S
C1830 C1813 1.574 . S
C1830 H1824 0.949 . S
C1830 C1834 1.368 . S
C1831 C1812 1.429 . S
C1831 C1825 1.429 . S
C1831 C1832 1.523 . S
C1832 C1813 1.368 . S
C1832 C1826 1.368 . S
C1832 C1831 1.523 . S
C1833 C1817 1.429 . S
C1833 C1829 1.429 . S
C1833 C1834 1.523 . S
C1834 C1818 1.368 . S
C1834 C1830 1.368 . S
C1834 C1833 1.523 . S
H1835 C1810 0.950 . S
H1836 C1812 0.950 . S
H1837 C1813 0.949 . S
H1838 C1815 0.950 . S
H1839 C1817 0.950 . S
C1840 C1841 1.349 . S
C1840 C1842 1.327 . S
C1840 H1865 0.950 . S
C1841 C1840 1.349 . S
C1841 C1857 1.349 . S
C1842 C1840 1.327 . S
C1842 C1861 1.429 . S
C1842 H1866 0.950 . S
C1843 C1860 1.574 . S
C1843 C1862 1.368 1_556 S
C1843 H1867 0.949 . S
H1844 C1848 0.949 . S
C1845 C1846 1.349 1_556 S
C1845 C1847 1.327 . S
C1845 H1868 0.950 . S
C1846 C1845 1.349 1_554 S
C1846 C1858 1.349 . S
C1847 C1845 1.327 . S
C1847 C1863 1.429 1_556 S
C1847 H1869 0.950 . S
C1848 H1844 0.949 . S
C1848 C1856 1.574 . S
C1848 C1864 1.368 . S
H1849 C1857 0.950 1_556 S
H1850 C1855 0.950 1_556 S
H1851 C1856 0.949 . S
H1852 C1858 0.950 . S
H1853 C1859 0.950 . S
H1854 C1860 0.949 . S
C1855 H1850 0.950 1_554 S
C1855 C1857 1.327 . S
C1855 C1861 1.429 . S
C1856 C1848 1.574 . S
C1856 H1851 0.949 . S
C1856 C1862 1.368 . S
C1857 C1841 1.349 . S
C1857 H1849 0.950 1_554 S
C1857 C1855 1.327 . S
C1858 C1846 1.349 . S
C1858 H1852 0.950 . S
C1858 C1859 1.327 . S
C1859 H1853 0.950 . S
C1859 C1858 1.327 . S
C1859 C1863 1.429 . S
C1860 C1843 1.574 . S
C1860 H1854 0.949 . S
C1860 C1864 1.368 1_556 S
C1861 C1842 1.429 . S
C1861 C1855 1.429 . S
C1861 C1862 1.523 . S
C1862 C1843 1.368 1_554 S
C1862 C1856 1.368 . S
C1862 C1861 1.523 . S
C1863 C1847 1.429 1_554 S
C1863 C1859 1.429 . S
C1863 C1864 1.523 . S
C1864 C1848 1.368 . S
C1864 C1860 1.368 1_554 S
C1864 C1863 1.523 . S
H1865 C1840 0.950 . S
H1866 C1842 0.950 . S
H1867 C1843 0.949 . S
H1868 C1845 0.950 . S
H1869 C1847 0.950 . S
C1870 C1871 1.349 . S
C1870 C1872 1.327 . S
C1870 H1895 0.950 . S
C1871 C1870 1.349 . S
C1871 C1887 1.349 1_545 S
C1872 C1870 1.327 . S
C1872 C1891 1.429 1_545 S
C1872 H1896 0.950 . S
C1873 C1890 1.574 . S
C1873 C1892 1.368 . S
C1873 H1897 0.949 . S
H1874 C1878 0.949 . S
C1875 C1876 1.349 . S
C1875 C1877 1.327 . S
C1875 H1898 0.950 . S
C1876 C1875 1.349 . S
C1876 C1888 1.349 . S
C1877 C1875 1.327 . S
C1877 C1893 1.429 . S
C1877 H1899 0.950 . S
C1878 H1874 0.949 . S
C1878 C1886 1.574 . S
C1878 C1894 1.368 . S
H1879 C1887 0.950 . S
H1880 C1885 0.950 . S
H1881 C1886 0.949 . S
H1882 C1888 0.950 . S
H1883 C1889 0.950 . S
H1884 C1890 0.949 . S
C1885 H1880 0.950 . S
C1885 C1887 1.327 . S
C1885 C1891 1.429 . S
C1886 C1878 1.574 . S
C1886 H1881 0.949 . S
C1886 C1892 1.368 . S
C1887 C1871 1.349 1_565 S
C1887 H1879 0.950 . S
C1887 C1885 1.327 . S
C1888 C1876 1.349 . S
C1888 H1882 0.950 . S
C1888 C1889 1.327 . S
C1889 H1883 0.950 . S
C1889 C1888 1.327 . S
C1889 C1893 1.429 . S
C1890 C1873 1.574 . S
C1890 H1884 0.949 . S
C1890 C1894 1.368 . S
C1891 C1872 1.429 1_565 S
C1891 C1885 1.429 . S
C1891 C1892 1.523 . S
C1892 C1873 1.368 . S
C1892 C1886 1.368 . S
C1892 C1891 1.523 . S
C1893 C1877 1.429 . S
C1893 C1889 1.429 . S
C1893 C1894 1.523 . S
C1894 C1878 1.368 . S
C1894 C1890 1.368 . S
C1894 C1893 1.523 . S
H1895 C1870 0.950 . S
H1896 C1872 0.950 . S
H1897 C1873 0.949 . S
H1898 C1875 0.950 . S
H1899 C1877 0.950 . S
C466 C314 1.855 1_556 S
C461 C101 1.863 . S
C496 C327 1.096 . S
C491 C125 1.039 1_455 S
C521 C139 2.043 . S
C526 C340 2.002 . S
C556 C353 1.819 . S
C551 C82 1.869 . S
C586 C361 1.500 . S
C581 C196 1.530 . S
C616 C374 1.784 . S
C611 C234 1.803 . S
C641 C220 0.743 . S
C646 C387 0.741 . S
C676 C400 1.675 . S
C671 C173 1.683 . S
C701 C211 0.961 . S
C706 C418 0.947 . S
C736 C429 0.997 . S
C731 C182 0.974 . S
C761 C201 1.225 . S
C766 C413 1.324 . S
C796 C421 1.280 . S
C791 C239 1.190 . S
C821 C135 1.633 . S
C826 C444 1.639 . S
C851 C87 1.880 . S
C856 C434 2.017 . S
C881 C106 1.156 . S
C886 C439 1.286 . S
C911 C116 1.229 . S
C916 C442 1.231 . S
C941 C59 1.895 . S
C946 C351 1.880 . S
C971 C268 2.279 . S
C976 C343 2.283 . S
C1006 C312 1.226 . S
C1001 C291 1.231 . S
C1036 C317 1.414 . S
C1031 C163 1.339 . S
C1061 C78 2.189 . S
C1066 C364 2.152 . S
C1096 C403 1.104 . S
C1091 C215 1.125 . S
C1126 C356 1.601 . S
C1121 C177 1.557 1_545 S
C1156 C382 1.770 . S
C1151 C230 1.811 . S
C1186 C392 1.855 . S
C1181 C272 1.863 . S
C1211 C296 1.035 . S
C1216 C405 1.096 . S
C1241 C158 2.043 . S
C1246 C366 2.002 . S
C1276 C379 1.818 . S
C1271 C253 1.868 . S
C1301 C63 1.530 . S
C1306 C335 1.500 . S
C1336 C348 1.784 . S
C1331 C6 1.803 . S
C1366 C309 0.741 . S
C1361 C30 0.743 . S
C1396 C322 1.675 . S
C1391 C40 1.687 . S
C1421 C21 0.961 . S
C1426 C431 0.947 . S
C1451 C49 0.974 . S
C1456 C416 1.000 . S
C1481 C68 1.225 . S
C1486 C426 1.324 . S
C1511 C11 1.190 1_556 S
C1516 C408 1.280 . S
C1546 C457 1.639 . S
C1541 C154 1.633 . S
C1576 C447 2.017 . S
C1571 C258 1.880 . S
C1606 C452 1.285 . S
C1601 C277 1.156 . S
C1631 C287 1.229 . S
C1636 C455 1.231 . S
C1661 C192 1.895 . S
C1666 C377 1.880 . S
C1696 C369 2.283 . S
C1691 C97 2.279 . S
C1726 C390 1.226 . S
C1721 C120 1.231 . S
C1756 C395 1.414 . S
C1751 C144 1.339 . S
C1781 C249 2.176 . S
C1786 C338 2.154 . S
C1816 C325 1.104 . S
C1811 C25 1.124 . S
C1841 C44 1.606 . S
C1846 C330 1.597 1_554 S
C1876 C304 1.770 . S
C1871 C2 1.811 . S
