# Generated by pormake.
# Topology nom, (4,4)-cn, num edge types: 1
# Building blocks:
#     Node 0, Type 0, BuildingBlock: KUFVIS_clean_linker_0, # of connection points: 4
#     Node 1, Type 0, BuildingBlock: KUFVIS_clean_linker_0, # of connection points: 4
#     Node 2, Type 0, BuildingBlock: KUFVIS_clean_linker_0, # of connection points: 4
#     Node 3, Type 0, BuildingBlock: KUFVIS_clean_linker_0, # of connection points: 4
#     Node 4, Type 0, BuildingBlock: KUFVIS_clean_linker_0, # of connection points: 4
#     Node 5, Type 0, BuildingBlock: KUFVIS_clean_linker_0, # of connection points: 4
#     Node 6, Type 1, BuildingBlock: UXUYUI_clean_sbu_0, # of connection points: 4
#     Node 7, Type 1, BuildingBlock: UXUYUI_clean_sbu_0, # of connection points: 4
#     Node 8, Type 1, BuildingBlock: UXUYUI_clean_sbu_0, # of connection points: 4
#     Node 9, Type 1, BuildingBlock: UXUYUI_clean_sbu_0, # of connection points: 4
#     Node 10, Type 1, BuildingBlock: UXUYUI_clean_sbu_0, # of connection points: 4
#     Node 11, Type 1, BuildingBlock: UXUYUI_clean_sbu_0, # of connection points: 4
#     Edge 12, Type (0, 1), BuildingBlock: TEMPAE_clean_linker_10, # of connection points: 2
#     Edge 13, Type (0, 1), BuildingBlock: TEMPAE_clean_linker_10, # of connection points: 2
#     Edge 14, Type (0, 1), BuildingBlock: TEMPAE_clean_linker_10, # of connection points: 2
#     Edge 15, Type (0, 1), BuildingBlock: TEMPAE_clean_linker_10, # of connection points: 2
#     Edge 16, Type (0, 1), BuildingBlock: TEMPAE_clean_linker_10, # of connection points: 2
#     Edge 17, Type (0, 1), BuildingBlock: TEMPAE_clean_linker_10, # of connection points: 2
#     Edge 18, Type (0, 1), BuildingBlock: TEMPAE_clean_linker_10, # of connection points: 2
#     Edge 19, Type (0, 1), BuildingBlock: TEMPAE_clean_linker_10, # of connection points: 2
#     Edge 20, Type (0, 1), BuildingBlock: TEMPAE_clean_linker_10, # of connection points: 2
#     Edge 21, Type (0, 1), BuildingBlock: TEMPAE_clean_linker_10, # of connection points: 2
#     Edge 22, Type (0, 1), BuildingBlock: TEMPAE_clean_linker_10, # of connection points: 2
#     Edge 23, Type (0, 1), BuildingBlock: TEMPAE_clean_linker_10, # of connection points: 2
#     Edge 24, Type (0, 1), BuildingBlock: TEMPAE_clean_linker_10, # of connection points: 2
#     Edge 25, Type (0, 1), BuildingBlock: TEMPAE_clean_linker_10, # of connection points: 2
#     Edge 26, Type (0, 1), BuildingBlock: TEMPAE_clean_linker_10, # of connection points: 2
#     Edge 27, Type (0, 1), BuildingBlock: TEMPAE_clean_linker_10, # of connection points: 2
#     Edge 28, Type (0, 1), BuildingBlock: TEMPAE_clean_linker_10, # of connection points: 2
#     Edge 29, Type (0, 1), BuildingBlock: TEMPAE_clean_linker_10, # of connection points: 2
#     Edge 30, Type (0, 1), BuildingBlock: TEMPAE_clean_linker_10, # of connection points: 2
#     Edge 31, Type (0, 1), BuildingBlock: TEMPAE_clean_linker_10, # of connection points: 2
#     Edge 32, Type (0, 1), BuildingBlock: TEMPAE_clean_linker_10, # of connection points: 2
#     Edge 33, Type (0, 1), BuildingBlock: TEMPAE_clean_linker_10, # of connection points: 2
#     Edge 34, Type (0, 1), BuildingBlock: TEMPAE_clean_linker_10, # of connection points: 2
#     Edge 35, Type (0, 1), BuildingBlock: TEMPAE_clean_linker_10, # of connection points: 2
# Relax obj value: 0.035
# Max RMSD: 0.147
# Mean RMSD: 0.094
data_MOF--net-nom--node1-UXUYUI_clean_sbu_0--node2-KUFVIS_clean_linker_0--edge1-TEMPAE_clean_linker_10
_symmetry_space_group_name_H-M    P1
_symmetry_Int_Tables_number       1
_symmetry_cell_setting            triclinic
loop_
_symmetry_equiv_pos_as_xyz
'x, y, z'
_cell_length_a     56.604872
_cell_length_b     56.624521
_cell_length_c     57.427485
_cell_angle_alpha  90.037997
_cell_angle_beta   89.951208
_cell_angle_gamma 120.02378
loop_
_atom_site_label
_atom_site_type_symbol
_atom_site_fract_x
_atom_site_fract_y
_atom_site_fract_z
_atom_type_partial_charge
H0 H 0.12114 0.57447 0.34207 0.0
H1 H 0.06073 0.5682 0.29379 0.0
H2 H 0.03699 0.53269 0.36261 0.0
H3 H 1.00336 0.54365 0.35602 0.0
H4 H 0.93992 0.51297 0.30467 0.0
H5 H 0.01972 0.52911 0.2853 0.0
C6 C 0.09983 0.56669 0.33782 0.0
C7 C 0.07986 0.55298 0.35485 0.0
C8 C 0.09306 0.57198 0.31581 0.0
C9 C 0.06569 0.56336 0.31068 0.0
C10 C 0.04492 0.54866 0.3273 0.0
C11 C 0.05239 0.54385 0.34952 0.0
C12 C 0.01563 0.5384 0.32132 0.0
C13 C 0.99687 0.5372 0.33828 0.0
C14 C 0.9696 0.52816 0.33221 0.0
C15 C 0.96112 0.52049 0.30923 0.0
C16 C 0.97907 0.52089 0.29233 0.0
C17 C 1.00616 0.5295 0.29843 0.0
H18 H 0.55718 0.11707 0.50979 0.0
H19 H 0.50764 0.05404 0.46142 0.0
H20 H 0.52459 0.03335 0.52965 0.0
H21 H 0.48034 0.99734 0.52387 0.0
H22 H 0.4498 0.93365 0.47272 0.0
H23 H 0.50959 0.01487 0.4527 0.0
C24 C 0.54543 0.09551 0.50558 0.0
C25 C 0.54247 0.07612 0.52216 0.0
C26 C 0.53311 0.08763 0.48376 0.0
C27 C 0.51755 0.05984 0.47825 0.0
C28 C 0.51404 0.03976 0.49474 0.0
C29 C 0.52662 0.04825 0.51679 0.0
C30 C 0.49693 0.01012 0.48896 0.0
C31 C 0.48049 0.99094 0.50612 0.0
C32 C 0.46342 0.9634 0.5002 0.0
C33 C 0.46271 0.95501 0.4772 0.0
C34 C 0.4792 0.97344 0.4601 0.0
C35 C 0.49656 1.00086 0.46603 0.0
H36 H 0.53691 0.44394 0.63933 0.0
H37 H 0.50586 0.47628 0.69072 0.0
H38 H 0.51989 0.50693 0.61995 0.0
H39 H 0.48155 0.50968 0.62841 0.0
H40 H 0.47531 0.56357 0.67714 0.0
H41 H 0.51538 0.51974 0.6978 0.0
C42 C 0.52913 0.4574 0.64387 0.0
C43 C 0.52843 0.47475 0.62694 0.0
C44 C 0.52157 0.45829 0.66688 0.0
C45 C 0.51223 0.47626 0.67294 0.0
C46 C 0.51076 0.49365 0.656 0.0
C47 C 0.51961 0.49307 0.63308 0.0
C48 C 0.50049 0.51267 0.66209 0.0
C49 C 0.48624 0.51922 0.64542 0.0
C50 C 0.47779 0.53808 0.65066 0.0
C51 C 0.48282 0.54983 0.6728 0.0
C52 C 0.49575 0.54282 0.68991 0.0
C53 C 0.50477 0.52443 0.68453 0.0
H54 H 0.11789 0.54829 0.80664 0.0
H55 H 0.05351 0.50364 0.85573 0.0
H56 H 0.03578 0.52517 0.78821 0.0
H57 H 0.99648 0.48206 0.79445 0.0
H58 H 0.93424 0.46871 0.84387 0.0
H59 H 0.01818 0.51273 0.8649 0.0
C60 C 0.09639 0.53827 0.81112 0.0
C61 C 0.07782 0.5381 0.79501 0.0
C62 C 0.08783 0.52593 0.83293 0.0
C63 C 0.06004 0.51325 0.83884 0.0
C64 C 0.04076 0.51243 0.82268 0.0
C65 C 0.05 0.5249 0.80068 0.0
C66 C 1.0112 0.49936 0.82882 0.0
C67 C 0.99088 0.48497 0.81182 0.0
C68 C 0.9632 0.47438 0.81717 0.0
C69 C 0.95572 0.4776 0.83962 0.0
C70 C 0.97534 0.49097 0.85694 0.0
C71 C 1.00307 0.50182 0.85154 0.0
H72 H 0.4878 0.93121 0.00788 0.0
H73 H 0.5435 0.99182 0.96041 0.0
H74 H 0.53162 0.01491 0.0295 0.0
H75 H 0.57589 0.04865 0.02304 0.0
H76 H 0.60887 0.11271 0.97229 0.0
H77 H 0.54593 0.03295 0.95207 0.0
C78 C 0.50181 0.95251 0.0039 0.0
C79 C 0.50846 0.97228 0.02116 0.0
C80 C 0.51434 0.9595 0.98208 0.0
C81 C 0.5334 0.98682 0.97719 0.0
C82 C 0.53954 1.00743 0.99396 0.0
C83 C 0.52715 0.99973 0.01616 0.0
C84 C 0.55876 0.03674 0.9882 0.0
C85 C 0.5761 0.05532 0.00534 0.0
C86 C 0.59431 0.08266 -0.00048 0.0
C87 C 0.5953 0.09141 0.97661 0.0
C88 C 0.5781 0.07361 0.95946 0.0
C89 C 0.55964 0.04642 0.96535 0.0
H90 H 0.49489 0.57979 0.13562 0.0
H91 H 0.54232 0.56809 0.18795 0.0
H92 H 0.52819 0.52824 0.12087 0.0
H93 H 0.57252 0.53759 0.12906 0.0
H94 H 0.59403 0.4977 0.18133 0.0
H95 H 0.53798 0.52526 0.19835 0.0
C96 C 0.50669 0.57053 0.14131 0.0
C97 C 0.5105 0.55363 0.12596 0.0
C98 C 0.51821 0.57606 0.16361 0.0
C99 C 0.53311 0.56356 0.17081 0.0
C100 C 0.53706 0.54622 0.1555 0.0
C101 C 0.52564 0.54151 0.13295 0.0
C102 C 0.55325 0.53325 0.16281 0.0
C103 C 0.57033 0.52998 0.14669 0.0
C104 C 0.58521 0.51741 0.15344 0.0
C105 C 0.58275 0.50771 0.17618 0.0
C106 C 0.5658 0.51045 0.19234 0.0
C107 C 0.55133 0.52353 0.18578 0.0
Li108 Li 0.65313 0.41027 0.4334 0.0
Li109 Li 0.64573 0.3692 0.41406 0.0
Li110 Li 0.68888 0.41349 0.4095 0.0
Li111 Li 0.64732 0.40795 0.39116 0.0
C112 C 0.67694 0.39018 0.46126 0.0
N113 N 0.68293 0.38926 0.50894 0.0
C114 C 0.66311 0.36556 0.47344 0.0
C115 C 0.69394 0.4143 0.47329 0.0
C116 C 0.66639 0.36553 0.49755 0.0
C117 C 0.69665 0.41342 0.49741 0.0
C118 C 0.59939 0.37651 0.43027 0.0
C119 C 0.56264 0.38205 0.4453 0.0
N120 N 0.55795 0.36329 0.46211 0.0
C121 C 0.59419 0.35728 0.4477 0.0
C122 C 0.58344 0.38895 0.42901 0.0
C123 C 0.57314 0.35084 0.46361 0.0
C124 C 0.64347 0.4483 0.45611 0.0
N125 N 0.64328 0.42447 0.45975 0.0
C126 C 0.62341 0.41998 0.4974 0.0
C127 C 0.6336 0.41034 0.47997 0.0
C128 C 0.62283 0.44423 0.49391 0.0
C129 C 0.63328 0.4586 0.47302 0.0
H130 H 0.65073 0.45889 0.43971 0.0
H131 H 0.63268 0.39101 0.48229 0.0
C132 C 0.64693 0.32048 0.42045 0.0
N133 N 0.63023 0.33053 0.41525 0.0
C134 C 0.63625 0.29242 0.42308 0.0
C135 C 0.59151 0.28546 0.41408 0.0
C136 C 0.60309 0.31367 0.41155 0.0
C137 C 0.60807 0.2745 0.42033 0.0
H138 H 0.6685 0.33437 0.42306 0.0
H139 H 0.59028 0.32217 0.40723 0.0
C140 C 0.69655 0.46279 0.40516 0.0
N141 N 0.74347 0.51112 0.39475 0.0
C142 C 0.70246 0.47177 0.3821 0.0
C143 C 0.71433 0.47849 0.42295 0.0
C144 C 0.72633 0.49625 0.3772 0.0
C145 C 0.738 0.50283 0.41732 0.0
C146 C 0.65556 0.36919 0.36647 0.0
C147 C 0.67239 0.36452 0.35166 0.0
C148 C 0.62733 0.35508 0.36293 0.0
C149 C 0.66068 0.34582 0.33343 0.0
C150 C 0.61641 0.33654 0.34453 0.0
N151 N 0.63317 0.33234 0.33028 0.0
C152 C 0.74486 0.43441 0.42244 0.0
C153 C 0.73653 0.43676 0.38233 0.0
C154 C 0.77291 0.4465 0.4183 0.0
N155 N 0.72736 0.42987 0.40454 0.0
C156 C 0.76436 0.44895 0.37741 0.0
C157 C 0.78302 0.45388 0.3955 0.0
H158 H 0.73707 0.42847 0.43991 0.0
H159 H 0.72215 0.43288 0.36842 0.0
C160 C 0.62034 0.43322 0.37243 0.0
N161 N 0.6332 0.41936 0.36618 0.0
C162 C 0.61007 0.44336 0.35549 0.0
C163 C 0.62711 0.42537 0.32588 0.0
C164 C 0.63704 0.41557 0.34341 0.0
C165 C 0.61343 0.43952 0.33183 0.0
H166 H 0.6186 0.43694 0.39064 0.0
H167 H 0.64816 0.40536 0.33876 0.0
O168 O 0.67413 0.39056 0.43764 0.0
O169 O 0.62031 0.38346 0.41482 0.0
O170 O 0.67367 0.43856 0.41026 0.0
O171 O 0.66673 0.38713 0.38457 0.0
H172 H 0.64988 0.3467 0.46443 0.0
H173 H 0.70468 0.43354 0.46415 0.0
H174 H 0.65574 0.34665 0.50722 0.0
H175 H 0.70961 0.43196 0.50696 0.0
H176 H 0.55023 0.39162 0.44458 0.0
H177 H 0.60664 0.34783 0.44928 0.0
H178 H 0.58708 0.40384 0.41568 0.0
H179 H 0.56903 0.33613 0.47727 0.0
H180 H 0.61505 0.40798 0.51307 0.0
H181 H 0.63326 0.47741 0.46968 0.0
H182 H 0.64989 0.28488 0.4275 0.0
H183 H 0.56968 0.27252 0.41198 0.0
H184 H 0.68896 0.4598 0.36812 0.0
H185 H 0.70994 0.47187 0.44088 0.0
H186 H 0.73127 0.50337 0.35942 0.0
H187 H 0.75203 0.51513 0.43089 0.0
H188 H 0.69427 0.37522 0.35424 0.0
H189 H 0.61399 0.35847 0.37419 0.0
H190 H 0.67346 0.34201 0.32181 0.0
H191 H 0.59462 0.3255 0.34157 0.0
H192 H 0.78646 0.44957 0.43273 0.0
H193 H 0.77119 0.45464 0.35961 0.0
H194 H 0.60022 0.45467 0.36086 0.0
H195 H 0.63012 0.4219 0.30784 0.0
Li196 Li 0.2619 0.64578 0.59653 0.0
Li197 Li 0.29776 0.63916 0.57846 0.0
Li198 Li 0.29769 0.68241 0.57348 0.0
Li199 Li 0.26353 0.64134 0.55383 0.0
C200 C 0.30808 0.68437 0.62085 0.0
N201 N 0.32079 0.72168 0.65643 0.0
C202 C 0.33039 0.69106 0.63533 0.0
C203 C 0.29223 0.69665 0.62445 0.0
C204 C 0.33648 0.70997 0.65323 0.0
C205 C 0.299 0.71546 0.64253 0.0
C206 C 0.24677 0.58733 0.57956 0.0
C207 C 0.23141 0.54364 0.56136 0.0
N208 N 0.2239 0.53141 0.58258 0.0
C209 C 0.23856 0.5743 0.60114 0.0
C210 C 0.24288 0.57188 0.55946 0.0
C211 C 0.22719 0.54603 0.60232 0.0
C212 C 0.21055 0.62765 0.61585 0.0
N213 N 0.23669 0.63509 0.62143 0.0
C214 C 0.22447 0.62368 0.66132 0.0
C215 C 0.244 0.63336 0.64361 0.0
C216 C 0.19711 0.61538 0.65607 0.0
C217 C 0.19032 0.61769 0.63297 0.0
H218 H 0.20535 0.62893 0.59795 0.0
H219 H 0.26489 0.63911 0.64748 0.0
C220 C 0.34357 0.63193 0.57092 0.0
N221 N 0.31987 0.62272 0.583 0.0
C222 C 0.36011 0.62042 0.57459 0.0
C223 C 0.3278 0.59045 0.60329 0.0
C224 C 0.31193 0.60255 0.59909 0.0
C225 C 0.35236 0.59945 0.59105 0.0
H226 H 0.34986 0.6485 0.55867 0.0
H227 H 0.29348 0.59612 0.60897 0.0
C228 C 0.25146 0.68296 0.55694 0.0
N229 N 0.23875 0.71273 0.52652 0.0
C230 C 0.26618 0.69303 0.53625 0.0
C231 C 0.23026 0.68798 0.56214 0.0
C232 C 0.25945 0.70804 0.5211 0.0
C233 C 0.22415 0.7031 0.54654 0.0
C234 C 0.31145 0.65464 0.52886 0.0
C235 C 0.3249 0.67489 0.51206 0.0
C236 C 0.30558 0.62799 0.52434 0.0
C237 C 0.33212 0.66808 0.49087 0.0
C238 C 0.31314 0.62199 0.50295 0.0
N239 N 0.32612 0.64199 0.4868 0.0
C240 C 0.34651 0.7307 0.5629 0.0
C241 C 0.31119 0.7382 0.57627 0.0
C242 C 0.36383 0.75868 0.55964 0.0
N243 N 0.32066 0.72104 0.57083 0.0
C244 C 0.32777 0.76633 0.57318 0.0
C245 C 0.35442 0.77694 0.5645 0.0
H246 H 0.35356 0.71658 0.55887 0.0
H247 H 0.29057 0.73003 0.58263 0.0
C248 C 0.21251 0.60997 0.53452 0.0
N249 N 0.23907 0.62605 0.52828 0.0
C250 C 0.19214 0.59858 0.51759 0.0
C251 C 0.22689 0.62024 0.48802 0.0
C252 C 0.24657 0.63141 0.50555 0.0
C253 C 0.19917 0.60375 0.49393 0.0
H254 H 0.20714 0.60639 0.55278 0.0
H255 H 0.26768 0.64465 0.50095 0.0
O256 O 0.30205 0.66605 0.60315 0.0
O257 O 0.25771 0.61497 0.57807 0.0
O258 O 0.25752 0.66806 0.57202 0.0
O259 O 0.30406 0.66099 0.54958 0.0
H260 H 0.34288 0.68175 0.63272 0.0
H261 H 0.2749 0.69174 0.61343 0.0
H262 H 0.35369 0.71535 0.66458 0.0
H263 H 0.28692 0.72513 0.64551 0.0
H264 H 0.22837 0.53143 0.54596 0.0
H265 H 0.24118 0.58594 0.61684 0.0
H266 H 0.24843 0.58151 0.54253 0.0
H267 H 0.22095 0.5357 0.61893 0.0
H268 H 0.23073 0.62262 0.67892 0.0
H269 H 0.16949 0.61119 0.62805 0.0
H270 H 0.37913 0.6284 0.5651 0.0
H271 H 0.32094 0.57429 0.61609 0.0
H272 H 0.28264 0.68934 0.53192 0.0
H273 H 0.21866 0.68027 0.57808 0.0
H274 H 0.27067 0.71596 0.50504 0.0
H275 H 0.2078 0.70716 0.55034 0.0
H276 H 0.3296 0.69563 0.51532 0.0
H277 H 0.29547 0.61219 0.53726 0.0
H278 H 0.34246 0.68352 0.47767 0.0
H279 H 0.30873 0.60145 0.49922 0.0
H280 H 0.38433 0.76592 0.55326 0.0
H281 H 0.31949 0.77951 0.5769 0.0
H282 H 0.17108 0.58642 0.52304 0.0
H283 H 0.23335 0.62456 0.47002 0.0
Li284 Li 0.68226 0.29473 0.74496 0.0
Li285 Li 0.64015 0.25899 0.76348 0.0
Li286 Li 0.64536 0.26059 0.72071 0.0
Li287 Li 0.63883 0.29474 0.74083 0.0
C288 C 0.68379 0.24449 0.74504 0.0
N289 N 0.71832 0.22321 0.74619 0.0
C290 C 0.68987 0.23657 0.76621 0.0
C291 C 0.69485 0.24108 0.7244 0.0
C292 C 0.70751 0.22602 0.76645 0.0
C293 C 0.71238 0.23041 0.72536 0.0
C294 C 0.64813 0.30487 0.7882 0.0
C295 C 0.60828 0.29539 0.81061 0.0
N296 N 0.62406 0.31703 0.82461 0.0
C297 C 0.66396 0.327 0.8028 0.0
C298 C 0.62006 0.28891 0.79212 0.0
C299 C 0.65141 0.33282 0.82112 0.0
C300 C 0.73556 0.34007 0.7366 0.0
N301 N 0.72092 0.31681 0.74918 0.0
C302 C 0.76102 0.32513 0.76988 0.0
C303 C 0.73303 0.30929 0.76572 0.0
C304 C 0.77675 0.34926 0.75715 0.0
C305 C 0.76364 0.35658 0.74022 0.0
H306 H 0.72538 0.3461 0.72402 0.0
H307 H 0.72087 0.29123 0.77601 0.0
C308 C 0.6048 0.20882 0.78407 0.0
N309 N 0.62618 0.23409 0.78856 0.0
C310 C 0.59501 0.18877 0.80132 0.0
C311 C 0.62928 0.22131 0.82754 0.0
C312 C 0.63838 0.24075 0.80978 0.0
C313 C 0.60747 0.19481 0.82334 0.0
H314 H 0.59574 0.20411 0.7669 0.0
H315 H 0.65563 0.26092 0.81269 0.0
C316 C 0.67893 0.30834 0.69531 0.0
N317 N 0.70413 0.32263 0.65232 0.0
C318 C 0.67106 0.32134 0.67894 0.0
C319 C 0.69972 0.30278 0.6899 0.0
C320 C 0.68402 0.32835 0.65727 0.0
C321 C 0.71219 0.31013 0.66805 0.0
C322 C 0.59169 0.24863 0.72474 0.0
C323 C 0.59599 0.26328 0.70408 0.0
C324 C 0.56547 0.22767 0.73033 0.0
C325 C 0.57394 0.2567 0.68933 0.0
C326 C 0.54393 0.22171 0.71513 0.0
N327 N 0.54858 0.23622 0.69511 0.0
C328 C 0.62631 0.20976 0.70106 0.0
C329 C 0.636 0.24355 0.67245 0.0
C330 C 0.61681 0.18941 0.68408 0.0
N331 N 0.63559 0.23618 0.69502 0.0
C332 C 0.62683 0.22387 0.65486 0.0
C333 C 0.6168 0.1963 0.66059 0.0
H334 H 0.62583 0.20446 0.71922 0.0
H335 H 0.64291 0.26452 0.66804 0.0
C336 C 0.63888 0.34335 0.73034 0.0
N337 N 0.62302 0.31762 0.73859 0.0
C338 C 0.62789 0.36038 0.72701 0.0
C339 C 0.58456 0.32429 0.74118 0.0
C340 C 0.59643 0.30802 0.74436 0.0
C341 C 0.60023 0.35078 0.7321 0.0
H342 H 0.66 0.35051 0.72602 0.0
H343 H 0.58423 0.2875 0.75097 0.0
O344 O 0.66635 0.25461 0.74448 0.0
O345 O 0.66018 0.29906 0.77015 0.0
O346 O 0.66624 0.30113 0.71651 0.0
O347 O 0.61295 0.25459 0.73945 0.0
H348 H 0.68123 0.23878 0.78232 0.0
H349 H 0.68978 0.24634 0.70778 0.0
H350 H 0.71257 0.22003 0.78274 0.0
H351 H 0.72116 0.22775 0.70953 0.0
H352 H 0.58658 0.28323 0.81383 0.0
H353 H 0.68572 0.33955 0.79997 0.0
H354 H 0.60746 0.27169 0.78102 0.0
H355 H 0.66341 0.34989 0.83256 0.0
H356 H 0.7702 0.31858 0.78304 0.0
H357 H 0.7748 0.37528 0.73035 0.0
H358 H 0.57801 0.16871 0.7974 0.0
H359 H 0.63979 0.22674 0.84412 0.0
H360 H 0.65501 0.32583 0.6829 0.0
H361 H 0.70631 0.29313 0.70249 0.0
H362 H 0.67808 0.33832 0.64439 0.0
H363 H 0.72832 0.30594 0.66362 0.0
H364 H 0.6161 0.27959 0.69948 0.0
H365 H 0.5618 0.21616 0.74628 0.0
H366 H 0.57699 0.26788 0.67329 0.0
H367 H 0.52352 0.20554 0.71924 0.0
H368 H 0.60888 0.16843 0.68939 0.0
H369 H 0.6275 0.23021 0.63697 0.0
H370 H 0.64091 0.38078 0.72034 0.0
H371 H 0.56311 0.31585 0.7451 0.0
Li372 Li 0.40453 0.63531 0.93157 0.0
Li373 Li 0.41201 0.67689 0.91355 0.0
Li374 Li 0.36671 0.63285 0.90878 0.0
Li375 Li 0.41008 0.64082 0.88986 0.0
C376 C 0.37433 0.65046 0.95973 0.0
N377 N 0.35488 0.64235 0.00489 0.0
C378 C 0.39105 0.66695 0.97775 0.0
C379 C 0.34766 0.62989 0.96469 0.0
C380 C 0.38086 0.66249 0.00046 0.0
C381 C 0.33822 0.62611 0.98763 0.0
C382 C 0.46166 0.68433 0.9183 0.0
C383 C 0.49968 0.72725 0.90575 0.0
N384 N 0.51119 0.73065 0.92716 0.0
C385 C 0.47388 0.68826 0.94018 0.0
C386 C 0.47468 0.70396 0.90092 0.0
C387 C 0.49893 0.7118 0.94431 0.0
C388 C 0.43612 0.61632 0.9521 0.0
N389 N 0.41417 0.61932 0.9567 0.0
C390 C 0.40894 0.59891 0.99418 0.0
C391 C 0.4002 0.61033 0.97708 0.0
C392 C 0.43185 0.5961 0.99001 0.0
C393 C 0.4453 0.60463 0.96854 0.0
H394 H 0.44653 0.62308 0.93557 0.0
H395 H 0.38213 0.61164 0.98012 0.0
C396 C 0.424 0.73076 0.90121 0.0
N397 N 0.42778 0.71556 0.91752 0.0
C398 C 0.43489 0.75884 0.90455 0.0
C399 C 0.4538 0.75507 0.94112 0.0
C400 C 0.44228 0.72715 0.93722 0.0
C401 C 0.4499 0.77136 0.92485 0.0
H402 H 0.41217 0.72103 0.88577 0.0
H403 H 0.445 0.71473 0.94996 0.0
C404 C 0.37904 0.58499 0.91603 0.0
N405 N 0.37473 0.53872 0.93618 0.0
C406 C 0.39658 0.57558 0.90919 0.0
C407 C 0.35923 0.57083 0.93304 0.0
C408 C 0.39408 0.55215 0.9196 0.0
C409 C 0.3574 0.54749 0.94304 0.0
C410 C 0.38921 0.66077 0.86109 0.0
C411 C 0.36637 0.64061 0.84935 0.0
C412 C 0.41175 0.68002 0.84842 0.0
C413 C 0.36655 0.63993 0.82503 0.0
C414 C 0.41114 0.67862 0.82412 0.0
N415 N 0.38876 0.65877 0.81303 0.0
C416 C 0.3173 0.63364 0.90593 0.0
C417 C 0.31246 0.5898 0.9016 0.0
C418 C 0.28926 0.62282 0.90277 0.0
N419 N 0.32827 0.6171 0.90519 0.0
C420 C 0.2843 0.57808 0.89855 0.0
C421 C 0.27238 0.59468 0.89892 0.0
H422 H 0.33041 0.65529 0.9088 0.0
H423 H 0.32176 0.57716 0.90077 0.0
C424 C 0.4513 0.64386 0.85972 0.0
N425 N 0.42397 0.63102 0.86364 0.0
C426 C 0.46184 0.63502 0.8419 0.0
C427 C 0.41588 0.59985 0.8325 0.0
C428 C 0.40624 0.60944 0.85046 0.0
C429 C 0.44408 0.61255 0.82813 0.0
H430 H 0.46503 0.66056 0.87074 0.0
H431 H 0.38465 0.5992 0.85433 0.0
O432 O 0.38377 0.65478 0.93731 0.0
O433 O 0.43701 0.66151 0.91395 0.0
O434 O 0.38173 0.60837 0.90658 0.0
O435 O 0.38971 0.66134 0.88488 0.0
H436 H 0.41173 0.68285 0.9743 0.0
H437 H 0.33442 0.61685 0.95106 0.0
H438 H 0.39362 0.67504 0.01458 0.0
H439 H 0.31767 0.61023 0.99172 0.0
H440 H 0.50989 0.74266 0.8925 0.0
H441 H 0.46398 0.67354 0.95397 0.0
H442 H 0.4654 0.70142 0.88397 0.0
H443 H 0.50855 0.71515 0.9612 0.0
H444 H 0.39781 0.59213 0.01044 0.0
H445 H 0.46309 0.60285 0.96472 0.0
H446 H 0.43103 0.77042 0.89165 0.0
H447 H 0.46565 0.76376 0.95679 0.0
H448 H 0.41218 0.58645 0.89619 0.0
H449 H 0.34571 0.57805 0.93872 0.0
H450 H 0.40761 0.5447 0.91458 0.0
H451 H 0.3423 0.53643 0.95634 0.0
H452 H 0.34881 0.62549 0.85891 0.0
H453 H 0.42957 0.69576 0.85726 0.0
H454 H 0.34907 0.62436 0.8157 0.0
H455 H 0.42849 0.6933 0.81408 0.0
H456 H 0.28087 0.63631 0.90329 0.0
H457 H 0.2721 0.55638 0.89525 0.0
H458 H 0.48367 0.64562 0.83901 0.0
H459 H 0.40145 0.58221 0.82259 0.0
Li460 Li 0.7547 0.40623 0.0805 0.0
Li461 Li 0.78883 0.39917 0.09933 0.0
Li462 Li 0.79165 0.40474 0.05706 0.0
Li463 Li 0.75609 0.36328 0.07586 0.0
C464 C 0.80895 0.45284 0.09594 0.0
N465 N 0.8384 0.49455 0.12722 0.0
C466 C 0.79554 0.45857 0.11359 0.0
C467 C 0.83735 0.46841 0.09416 0.0
C468 C 0.81077 0.47975 0.12921 0.0
C469 C 0.85188 0.48935 0.11018 0.0
C470 C 0.74544 0.37582 0.1278 0.0
C471 C 0.7496 0.35701 0.16421 0.0
N472 N 0.73935 0.37099 0.1756 0.0
C473 C 0.73484 0.38993 0.13985 0.0
C474 C 0.75277 0.35913 0.14004 0.0
C475 C 0.73195 0.38724 0.16402 0.0
C476 C 0.70448 0.4044 0.08691 0.0
N477 N 0.73128 0.42143 0.08203 0.0
C478 C 0.7245 0.45987 0.08158 0.0
C479 C 0.74138 0.44861 0.07882 0.0
C480 C 0.69688 0.44294 0.08751 0.0
C481 C 0.68684 0.41474 0.08971 0.0
H482 H 0.69696 0.38281 0.08911 0.0
H483 H 0.76273 0.46168 0.07468 0.0
C484 C 0.83653 0.40824 0.12167 0.0
N485 N 0.81321 0.40905 0.12541 0.0
C486 C 0.85708 0.41805 0.13851 0.0
C487 C 0.82909 0.42893 0.16297 0.0
C488 C 0.80918 0.41909 0.14562 0.0
C489 C 0.85356 0.42878 0.15941 0.0
H490 H 0.83953 0.40068 0.10529 0.0
H491 H 0.79101 0.42044 0.14804 0.0
C492 C 0.74417 0.39607 0.03299 0.0
N493 N 0.72902 0.41804 0.997 0.0
C494 C 0.72285 0.37902 0.01814 0.0
C495 C 0.75775 0.4243 0.02961 0.0
C496 C 0.71551 0.39052 1e-05 0.0
C497 C 0.74979 0.43501 0.0113 0.0
C498 C 0.79759 0.3557 0.07092 0.0
C499 C 0.80029 0.3496 0.04783 0.0
C500 C 0.79564 0.33801 0.08873 0.0
C501 C 0.80068 0.32563 0.04291 0.0
C502 C 0.79607 0.31423 0.08309 0.0
N503 N 0.79854 0.30857 0.06049 0.0
C504 C 0.84366 0.43106 0.03782 0.0
C505 C 0.80908 0.41585 0.00909 0.0
C506 C 0.86394 0.44153 0.02074 0.0
N507 N 0.81688 0.41887 0.03179 0.0
C508 C 0.82868 0.42604 0.99142 0.0
C509 C 0.85656 0.4391 0.99716 0.0
H510 H 0.84923 0.43216 0.05595 0.0
H511 H 0.7877 0.40524 0.00458 0.0
C512 C 0.72207 0.30743 0.08944 0.0
N513 N 0.73413 0.32477 0.07126 0.0
C514 C 0.70639 0.27931 0.08562 0.0
C515 C 0.71577 0.28749 0.04445 0.0
C516 C 0.73118 0.31539 0.04906 0.0
C517 C 0.70301 0.26898 0.06285 0.0
H518 H 0.72448 0.31539 0.1069 0.0
H519 H 0.74101 0.32966 0.03494 0.0
O520 O 0.79438 0.43183 0.08074 0.0
O521 O 0.74819 0.37804 0.10412 0.0
O522 O 0.75125 0.38509 0.05102 0.0
O523 O 0.7964 0.37865 0.07604 0.0
H524 H 0.77364 0.44643 0.11556 0.0
H525 H 0.84812 0.46436 0.08064 0.0
H526 H 0.80064 0.48427 0.14304 0.0
H527 H 0.87387 0.50147 0.10906 0.0
H528 H 0.75536 0.3443 0.17392 0.0
H529 H 0.72905 0.40293 0.13068 0.0
H530 H 0.76117 0.34822 0.13101 0.0
H531 H 0.72387 0.39811 0.17359 0.0
H532 H 0.73325 0.48172 0.0799 0.0
H533 H 0.66562 0.40083 0.09384 0.0
H534 H 0.87562 0.4175 0.13511 0.0
H535 H 0.82577 0.43753 0.17864 0.0
H536 H 0.71207 0.35713 0.02062 0.0
H537 H 0.77434 0.43782 0.0409 0.0
H538 H 0.69905 0.37757 0.98836 0.0
H539 H 0.76013 0.45681 0.00845 0.0
H540 H 0.8017 0.36303 0.03384 0.0
H541 H 0.79364 0.34253 0.10669 0.0
H542 H 0.80257 0.32053 0.02511 0.0
H543 H 0.79441 0.30025 0.09667 0.0
H544 H 0.88513 0.45085 0.02593 0.0
H545 H 0.82206 0.42375 0.97347 0.0
H546 H 0.69667 0.26586 0.10028 0.0
H547 H 0.71411 0.28047 0.02666 0.0
Li548 Li 0.4145 0.78861 0.26265 0.0
Li549 Li 0.37327 0.75318 0.2432 0.0
Li550 Li 0.41746 0.75392 0.23944 0.0
Li551 Li 0.41037 0.78835 0.22006 0.0
C552 C 0.39547 0.7402 0.28977 0.0
N553 N 0.3957 0.7231 0.33477 0.0
C554 C 0.37316 0.73304 0.30443 0.0
C555 C 0.41764 0.73811 0.29783 0.0
C556 C 0.37375 0.72461 0.32718 0.0
C557 C 0.41744 0.72957 0.32069 0.0
C558 C 0.36974 0.79931 0.23322 0.0
C559 C 0.3373 0.79148 0.20278 0.0
N560 N 0.33385 0.81187 0.21157 0.0
C561 C 0.3659 0.82018 0.24195 0.0
C562 C 0.35535 0.78481 0.21347 0.0
C563 C 0.34766 0.82622 0.23076 0.0
C564 C 0.4507 0.83778 0.28473 0.0
N565 N 0.42804 0.81309 0.28839 0.0
C566 C 0.42328 0.82639 0.32682 0.0
C567 C 0.41419 0.80716 0.30887 0.0
C568 C 0.44666 0.85209 0.32354 0.0
C569 C 0.46052 0.85759 0.30218 0.0
H570 H 0.46084 0.84236 0.26802 0.0
H571 H 0.39561 0.7879 0.31106 0.0
C572 C 0.32069 0.70683 0.23531 0.0
N573 N 0.33479 0.73094 0.24683 0.0
C574 C 0.29258 0.69025 0.23882 0.0
C575 C 0.2941 0.72389 0.26566 0.0
C576 C 0.3221 0.73978 0.26162 0.0
C577 C 0.27896 0.69859 0.25439 0.0
H578 H 0.33136 0.70028 0.2237 0.0
H579 H 0.33386 0.75907 0.27053 0.0
C580 C 0.46883 0.80378 0.24307 0.0
N581 N 0.52355 0.82322 0.25149 0.0
C582 C 0.48815 0.81807 0.22574 0.0
C583 C 0.47735 0.79963 0.26474 0.0
C584 C 0.51572 0.82766 0.23032 0.0
C585 C 0.5051 0.80956 0.26865 0.0
C586 C 0.3984 0.7418 0.19392 0.0
C587 C 0.42566 0.75692 0.18688 0.0
C588 C 0.37968 0.72015 0.18014 0.0
C589 C 0.43374 0.7501 0.16616 0.0
C590 C 0.38855 0.71396 0.15952 0.0
N591 N 0.41518 0.72893 0.15302 0.0
C592 C 0.41762 0.70442 0.24335 0.0
C593 C 0.45902 0.7406 0.22849 0.0
C594 C 0.42741 0.68624 0.24094 0.0
N595 N 0.43339 0.73101 0.23705 0.0
C596 C 0.46973 0.72324 0.22605 0.0
C597 C 0.45378 0.69561 0.23211 0.0
H598 H 0.39723 0.69726 0.24994 0.0
H599 H 0.47099 0.76153 0.22295 0.0
C600 C 0.43823 0.83944 0.19977 0.0
N601 N 0.41999 0.81299 0.1947 0.0
C602 C 0.44688 0.8594 0.18251 0.0
C603 C 0.41765 0.82451 0.15509 0.0
C604 C 0.40936 0.80524 0.17297 0.0
C605 C 0.43673 0.85198 0.15978 0.0
H606 H 0.44616 0.84496 0.21728 0.0
H607 H 0.39449 0.78415 0.16949 0.0
O608 O 0.39509 0.74823 0.26739 0.0
O609 O 0.38757 0.79323 0.24403 0.0
O610 O 0.44177 0.79416 0.23876 0.0
O611 O 0.38997 0.74792 0.21422 0.0
H612 H 0.35569 0.73421 0.29836 0.0
H613 H 0.4347 0.74276 0.28653 0.0
H614 H 0.35673 0.71925 0.33878 0.0
H615 H 0.43451 0.72797 0.32719 0.0
H616 H 0.32603 0.78044 0.18749 0.0
H617 H 0.37692 0.83158 0.25723 0.0
H618 H 0.35803 0.76859 0.20646 0.0
H619 H 0.34447 0.84232 0.23733 0.0
H620 H 0.41157 0.82151 0.34279 0.0
H621 H 0.47864 0.87709 0.29891 0.0
H622 H 0.28179 0.67077 0.22999 0.0
H623 H 0.28442 0.73129 0.27758 0.0
H624 H 0.48188 0.82156 0.2089 0.0
H625 H 0.46273 0.78914 0.27846 0.0
H626 H 0.53089 0.83862 0.21704 0.0
H627 H 0.51198 0.80648 0.28534 0.0
H628 H 0.44042 0.77381 0.19723 0.0
H629 H 0.3585 0.70825 0.18534 0.0
H630 H 0.45477 0.76164 0.16052 0.0
H631 H 0.37428 0.69725 0.14869 0.0
H632 H 0.41446 0.66506 0.24578 0.0
H633 H 0.48993 0.73115 0.21871 0.0
H634 H 0.46177 0.8803 0.18678 0.0
H635 H 0.40913 0.81806 0.13782 0.0
C636 C 0.12049 0.61323 0.29101 0.0
C637 C 0.1155 0.58781 0.2991 0.0
C638 C 0.14538 0.63133 0.28011 0.0
C639 C 0.16553 0.62367 0.27729 0.0
C640 C 0.15952 0.59709 0.28369 0.0
C641 C 0.13459 0.57952 0.29455 0.0
C642 C 0.1509 0.6594 0.27337 0.0
C643 C 0.18026 0.58795 0.28086 0.0
C644 C 0.23059 0.66579 0.24215 0.0
C645 C 0.24949 0.68048 0.25979 0.0
C646 C 0.20295 0.64784 0.24739 0.0
C647 C 0.19405 0.64437 0.27084 0.0
C648 C 0.21294 0.65952 0.28864 0.0
C649 C 0.24035 0.67733 0.2829 0.0
C650 C 0.18339 0.63217 0.22795 0.0
C651 C 0.20439 0.65632 0.3139 0.0
H652 H 0.1058 0.61972 0.29467 0.0
H653 H 0.13063 0.55978 0.30075 0.0
H654 H 0.16517 0.67453 0.28614 0.0
H655 H 0.16076 0.66525 0.256 0.0
H656 H 0.13193 0.66063 0.27307 0.0
H657 H 0.17122 0.5657 0.28389 0.0
H658 H 0.18931 0.59286 0.26316 0.0
H659 H 0.19709 0.59901 0.29352 0.0
H660 H 0.23744 0.66835 0.22422 0.0
H661 H 0.25484 0.68825 0.29669 0.0
H662 H 0.16537 0.635 0.22867 0.0
H663 H 0.17584 0.61005 0.23007 0.0
H664 H 0.19305 0.63862 0.21051 0.0
H665 H 0.18707 0.66008 0.31606 0.0
H666 H 0.22128 0.67049 0.3255 0.0
H667 H 0.1973 0.63511 0.31968 0.0
C668 C 0.55596 0.11689 0.44926 0.0
C669 C 0.53692 0.1093 0.46733 0.0
C670 C 0.56572 0.14204 0.43782 0.0
C671 C 0.55613 0.15981 0.44474 0.0
C672 C 0.53518 0.15105 0.46166 0.0
C673 C 0.52596 0.12594 0.47287 0.0
C674 C 0.58797 0.15055 0.41984 0.0
C675 C 0.52419 0.16919 0.46945 0.0
C676 C 0.60493 0.23622 0.44452 0.0
C677 C 0.59583 0.24482 0.42534 0.0
C678 C 0.59268 0.20855 0.4505 0.0
C679 C 0.57061 0.18885 0.43706 0.0
C680 C 0.56166 0.19723 0.41737 0.0
C681 C 0.57437 0.22513 0.41174 0.0
C682 C 0.60286 0.20052 0.47169 0.0
C683 C 0.53825 0.17683 0.40261 0.0
H684 H 0.56468 0.10411 0.44528 0.0
H685 H 0.51142 0.12006 0.48705 0.0
H686 H 0.58407 0.16021 0.40466 0.0
H687 H 0.60775 0.1659 0.42757 0.0
H688 H 0.58992 0.13301 0.41366 0.0
H689 H 0.50548 0.15797 0.48023 0.0
H690 H 0.53991 0.18632 0.47993 0.0
H691 H 0.51945 0.17812 0.45421 0.0
H692 H 0.62115 0.25124 0.45538 0.0
H693 H 0.56741 0.23154 0.39673 0.0
H694 H 0.60816 0.18473 0.46699 0.0
H695 H 0.58651 0.19156 0.48504 0.0
H696 H 0.62108 0.21814 0.47957 0.0
H697 H 0.54203 0.16029 0.3969 0.0
H698 H 0.53496 0.18637 0.38698 0.0
H699 H 0.51922 0.16721 0.41309 0.0
C700 C 0.4362 0.5247 0.6266 0.0
C701 C 0.46211 0.54487 0.63402 0.0
C702 C 0.41823 0.53185 0.61604 0.0
C703 C 0.42654 0.55976 0.61283 0.0
C704 C 0.45356 0.58 0.6185 0.0
C705 C 0.47097 0.5723 0.62912 0.0
C706 C 0.38965 0.50965 0.61017 0.0
C707 C 0.46341 0.60996 0.61516 0.0
C708 C 0.38405 0.58268 0.57837 0.0
C709 C 0.37037 0.58793 0.59627 0.0
C710 C 0.40188 0.57279 0.58334 0.0
C711 C 0.40617 0.56812 0.60677 0.0
C712 C 0.39205 0.57292 0.62485 0.0
C713 C 0.37441 0.58279 0.61939 0.0
C714 C 0.41651 0.56785 0.56361 0.0
C715 C 0.39611 0.56832 0.6501 0.0
H716 H 0.42928 0.50351 0.6306 0.0
H717 H 0.49106 0.58787 0.63488 0.0
H718 H 0.37523 0.50967 0.62327 0.0
H719 H 0.38337 0.51335 0.59289 0.0
H720 H 0.38776 0.48915 0.61013 0.0
H721 H 0.48585 0.62274 0.61745 0.0
H722 H 0.45793 0.61378 0.59758 0.0
H723 H 0.4533 0.61659 0.62807 0.0
H724 H 0.38079 0.58628 0.56043 0.0
H725 H 0.36431 0.58718 0.63337 0.0
H726 H 0.41303 0.54678 0.56453 0.0
H727 H 0.43881 0.58195 0.5652 0.0
H728 H 0.40973 0.57092 0.54629 0.0
H729 H 0.39196 0.54716 0.65263 0.0
H730 H 0.38267 0.57183 0.66197 0.0
H731 H 0.41764 0.58228 0.65519 0.0
C732 C 0.93527 0.43283 0.7931 0.0
C733 C 0.94119 0.4589 0.80013 0.0
C734 C 0.91018 0.41489 0.78246 0.0
C735 C 0.8908 0.42341 0.77877 0.0
C736 C 0.89783 0.45059 0.78403 0.0
C737 C 0.9229 0.46795 0.79479 0.0
C738 C 0.90353 0.38612 0.77707 0.0
C739 C 0.87798 0.46066 0.78018 0.0
C740 C 0.82533 0.38048 0.74439 0.0
C741 C 0.80631 0.36731 0.76235 0.0
C742 C 0.85308 0.39832 0.74934 0.0
C743 C 0.862 0.40311 0.77278 0.0
C744 C 0.84298 0.38952 0.79092 0.0
C745 C 0.81544 0.37189 0.78549 0.0
C746 C 0.87274 0.41239 0.72954 0.0
C747 C 0.85159 0.39411 0.81619 0.0
H748 H 0.94932 0.42577 0.79752 0.0
H749 H 0.92752 0.48813 0.80037 0.0
H750 H 0.88896 0.37204 0.79027 0.0
H751 H 0.89358 0.37957 0.75979 0.0
H752 H 0.92202 0.38403 0.77731 0.0
H753 H 0.88789 0.48317 0.78205 0.0
H754 H 0.86868 0.45482 0.76262 0.0
H755 H 0.86121 0.45105 0.79313 0.0
H756 H 0.81852 0.37682 0.72644 0.0
H757 H 0.80089 0.36221 0.79951 0.0
H758 H 0.89019 0.40869 0.73072 0.0
H759 H 0.88118 0.43475 0.73079 0.0
H760 H 0.86289 0.40535 0.71225 0.0
H761 H 0.86846 0.38982 0.81905 0.0
H762 H 0.83454 0.38105 0.82814 0.0
H763 H 0.85933 0.41577 0.82088 0.0
C764 C 0.48175 0.92149 0.95679 0.0
C765 C 0.50828 0.93727 0.96545 0.0
C766 C 0.47338 0.8962 0.94616 0.0
C767 C 0.49187 0.88627 0.9447 0.0
C768 C 0.51929 0.90311 0.95193 0.0
C769 C 0.52721 0.92855 0.96217 0.0
C770 C 0.44412 0.87915 0.93833 0.0
C771 C 0.53959 0.89325 0.95089 0.0
C772 C 0.46033 0.80981 0.95233 0.0
C773 C 0.46073 0.80094 0.92958 0.0
C774 C 0.47073 0.83749 0.9574 0.0
C775 C 0.48144 0.85696 0.93921 0.0
C776 C 0.48167 0.84826 0.91614 0.0
C777 C 0.47144 0.82036 0.9116 0.0
C778 C 0.47013 0.84586 0.98229 0.0
C779 C 0.49265 0.86839 0.89629 0.0
H780 H 0.4671 0.92825 0.95956 0.0
H781 H 0.54762 0.94067 0.96922 0.0
H782 H 0.443 0.86965 0.92116 0.0
H783 H 0.43274 0.86244 0.95101 0.0
H784 H 0.43379 0.8914 0.93704 0.0
H785 H 0.56082 0.91007 0.95381 0.0
H786 H 0.53452 0.87753 0.96452 0.0
H787 H 0.53859 0.88362 0.93382 0.0
H788 H 0.45154 0.79502 0.96628 0.0
H789 H 0.47212 0.81382 0.894 0.0
H790 H 0.45727 0.85549 0.9836 0.0
H791 H 0.49101 0.86122 0.98799 0.0
H792 H 0.46198 0.82831 0.99451 0.0
H793 H 0.48122 0.87955 0.89511 0.0
H794 H 0.49116 0.85834 0.8793 0.0
H795 H 0.51434 0.88377 0.89954 0.0
C796 C 0.63041 0.52334 0.14282 0.0
C797 C 0.60295 0.51316 0.1371 0.0
C798 C 0.64609 0.51414 0.13123 0.0
C799 C 0.63386 0.49399 0.11367 0.0
C800 C 0.6067 0.48521 0.10662 0.0
C801 C 0.59153 0.495 0.11843 0.0
C802 C 0.67505 0.52433 0.13913 0.0
C803 C 0.59291 0.46381 0.08799 0.0
C804 C 0.68117 0.47677 0.0798 0.0
C805 C 0.67916 0.4548 0.09278 0.0
C806 C 0.6659 0.48926 0.08585 0.0
C807 C 0.64818 0.47954 0.10531 0.0
C808 C 0.64545 0.45687 0.11801 0.0
C809 C 0.661 0.44488 0.11166 0.0
C810 C 0.66932 0.51334 0.07188 0.0
C811 C 0.62678 0.44583 0.1389 0.0
H812 H 0.63916 0.53737 0.15733 0.0
H813 H 0.57018 0.48694 0.1142 0.0
H814 H 0.67605 0.50794 0.14889 0.0
H815 H 0.68892 0.52967 0.12394 0.0
H816 H 0.68264 0.54248 0.15062 0.0
H817 H 0.57366 0.46249 0.0819 0.0
H818 H 0.60666 0.46813 0.07284 0.0
H819 H 0.58802 0.44362 0.09505 0.0
H820 H 0.69486 0.48435 0.065 0.0
H821 H 0.65958 0.42825 0.12205 0.0
H822 H 0.679 0.53196 0.08286 0.0
H823 H 0.64914 0.51012 0.06639 0.0
H824 H 0.68215 0.51701 0.05615 0.0
H825 H 0.63416 0.46147 0.15286 0.0
H826 H 0.62569 0.42706 0.146 0.0
H827 H 0.60587 0.44113 0.13417 0.0
C828 C 0.41859 0.92624 0.51413 0.0
C829 C 0.44678 0.94229 0.51759 0.0
C830 C 0.40334 0.9012 0.5256 0.0
C831 C 0.41673 0.89189 0.5407 0.0
C832 C 0.44478 0.90917 0.5458 0.0
C833 C 0.45953 0.93429 0.53415 0.0
C834 C 0.37344 0.88363 0.51983 0.0
C835 C 0.45981 0.90009 0.56184 0.0
C836 C 0.37187 0.82636 0.57436 0.0
C837 C 0.37177 0.80663 0.55944 0.0
C838 C 0.387 0.85431 0.56892 0.0
C839 C 0.4024 0.86274 0.54807 0.0
C840 C 0.40291 0.84298 0.53326 0.0
C841 C 0.38757 0.81525 0.53908 0.0
C842 C 0.386 0.87476 0.58516 0.0
C843 C 0.41905 0.85105 0.51082 0.0
H844 H 0.40883 0.93245 0.50118 0.0
H845 H 0.48142 0.94658 0.53658 0.0
H846 H 0.37054 0.86651 0.50848 0.0
H847 H 0.36127 0.87467 0.53587 0.0
H848 H 0.36531 0.8953 0.5106 0.0
H849 H 0.47994 0.9174 0.56716 0.0
H850 H 0.44759 0.89027 0.57769 0.0
H851 H 0.46324 0.88475 0.55278 0.0
H852 H 0.36002 0.81995 0.59029 0.0
H853 H 0.38733 0.80022 0.52723 0.0
H854 H 0.37596 0.88482 0.5763 0.0
H855 H 0.40697 0.89096 0.58975 0.0
H856 H 0.37464 0.86514 0.60144 0.0
H857 H 0.41077 0.86049 0.49883 0.0
H858 H 0.41844 0.83336 0.50185 0.0
H859 H 0.44066 0.86646 0.51432 0.0
C860 C 0.54652 0.45439 0.70101 0.0
C861 C 0.52592 0.4416 0.68431 0.0
C862 C 0.55695 0.43975 0.71272 0.0
C863 C 0.54634 0.41174 0.7076 0.0
C864 C 0.52373 0.39827 0.6924 0.0
C865 C 0.51391 0.41343 0.68082 0.0
C866 C 0.581 0.45489 0.72882 0.0
C867 C 0.51153 0.36839 0.68666 0.0
C868 C 0.59442 0.38325 0.70632 0.0
C869 C 0.58747 0.36771 0.72681 0.0
C870 C 0.58172 0.39824 0.70032 0.0
C871 C 0.56131 0.39758 0.71505 0.0
C872 C 0.55449 0.38238 0.73598 0.0
C873 C 0.56767 0.36765 0.74164 0.0
C874 C 0.58966 0.41421 0.67781 0.0
C875 C 0.53286 0.38118 0.75212 0.0
H876 H 0.55602 0.47625 0.70348 0.0
H877 H 0.49804 0.40362 0.66779 0.0
H878 H 0.57861 0.44272 0.74469 0.0
H879 H 0.59984 0.45838 0.71983 0.0
H880 H 0.58373 0.47499 0.7341 0.0
H881 H 0.4917 0.36015 0.67744 0.0
H882 H 0.5258 0.36556 0.6753 0.0
H883 H 0.5084 0.35628 0.70271 0.0
H884 H 0.6093 0.38311 0.69452 0.0
H885 H 0.56239 0.356 0.75766 0.0
H886 H 0.59566 0.43578 0.68121 0.0
H887 H 0.57193 0.4057 0.66581 0.0
H888 H 0.60684 0.41372 0.6689 0.0
H889 H 0.53748 0.4021 0.75674 0.0
H890 H 0.53109 0.36982 0.7684 0.0
H891 H 0.5128 0.37107 0.74317 0.0
C892 C 0.12722 0.5194 0.84135 0.0
C893 C 0.10896 0.5276 0.84915 0.0
C894 C 0.15194 0.52771 0.85291 0.0
C895 C 0.1585 0.54455 0.87286 0.0
C896 C 0.13896 0.55072 0.88208 0.0
C897 C 0.11433 0.54219 0.87003 0.0
C898 C 0.17205 0.52054 0.84248 0.0
C899 C 0.14497 0.56822 0.90352 0.0
C900 C 0.22333 0.55822 0.90431 0.0
C901 C 0.24278 0.58289 0.89405 0.0
C902 C 0.19553 0.54606 0.8985 0.0
C903 C 0.18707 0.55866 0.88178 0.0
C904 C 0.20653 0.58395 0.87188 0.0
C905 C 0.23408 0.59579 0.87821 0.0
C906 C 0.17536 0.51934 0.90969 0.0
C907 C 0.19847 0.59799 0.8538 0.0
H908 H 0.12297 0.50805 0.82519 0.0
H909 H 0.10029 0.54869 0.87598 0.0
H910 H 0.18935 0.53908 0.83469 0.0
H911 H 0.18055 0.51304 0.8561 0.0
H912 H 0.16264 0.50474 0.82868 0.0
H913 H 0.12619 0.56696 0.91082 0.0
H914 H 0.15474 0.56211 0.91714 0.0
H915 H 0.15944 0.5898 0.89897 0.0
H916 H 0.22992 0.54834 0.91678 0.0
H917 H 0.24903 0.61469 0.87004 0.0
H918 H 0.16766 0.50282 0.8965 0.0
H919 H 0.15751 0.52035 0.91642 0.0
H920 H 0.1846 0.5138 0.92423 0.0
H921 H 0.19074 0.58501 0.83801 0.0
H922 H 0.2158 0.61818 0.84866 0.0
H923 H 0.18172 0.60091 0.86051 0.0
C924 C 0.63951 0.11976 0.01288 0.0
C925 C 0.61147 0.1034 0.01702 0.0
C926 C 0.65491 0.14478 0.02436 0.0
C927 C 0.64187 0.15365 0.0403 0.0
C928 C 0.61415 0.13591 0.04626 0.0
C929 C 0.59921 0.11089 0.03449 0.0
C930 C 0.68444 0.16287 0.01759 0.0
C931 C 0.59956 0.14442 0.06337 0.0
C932 C 0.68753 0.21998 0.07269 0.0
C933 C 0.68613 0.23918 0.05813 0.0
C934 C 0.67255 0.1919 0.06763 0.0
C935 C 0.65591 0.18286 0.0475 0.0
C936 C 0.65387 0.20209 0.03313 0.0
C937 C 0.6689 0.22992 0.03865 0.0
C938 C 0.67515 0.17204 0.08343 0.0
C939 C 0.6363 0.19336 0.01151 0.0
H940 H 0.64894 0.11393 -0.0007 0.0
H941 H 0.57746 0.09834 0.03755 0.0
H942 H 0.68636 0.17977 0.00647 0.0
H943 H 0.69729 0.17212 0.03323 0.0
H944 H 0.69252 0.15152 0.00775 0.0
H945 H 0.58003 0.12675 0.06936 0.0
H946 H 0.61258 0.15459 0.07875 0.0
H947 H 0.59499 0.1593 0.05491 0.0
H948 H 0.70091 0.22694 0.0877 0.0
H949 H 0.66721 0.24451 0.0276 0.0
H950 H 0.68593 0.16301 0.07411 0.0
H951 H 0.65467 0.15503 0.08825 0.0
H952 H 0.68662 0.18194 0.0996 0.0
H953 H 0.64387 0.18367 0.99903 0.0
H954 H 0.6362 0.21074 0.00265 0.0
H955 H 0.61499 0.17795 0.01603 0.0
C956 C 0.51845 0.61984 0.16898 0.0
C957 C 0.51459 0.5954 0.17863 0.0
C958 C 0.51021 0.63611 0.18083 0.0
C959 C 0.49816 0.62804 0.20314 0.0
C960 C 0.49611 0.60448 0.21378 0.0
C961 C 0.5043 0.58832 0.20132 0.0
C962 C 0.51285 0.66104 0.16879 0.0
C963 C 0.48391 0.59553 0.23773 0.0
C964 C 0.49074 0.68343 0.23383 0.0
C965 C 0.46405 0.67647 0.22764 0.0
C966 C 0.50161 0.66684 0.22738 0.0
C967 C 0.48556 0.64301 0.21404 0.0
C968 C 0.4582 0.63529 0.20865 0.0
C969 C 0.44774 0.65202 0.21564 0.0
C970 C 0.53065 0.67549 0.23388 0.0
C971 C 0.44047 0.61024 0.19423 0.0
H972 H 0.52688 0.62562 0.15158 0.0
H973 H 0.50129 0.56945 0.20884 0.0
H974 H 0.49223 0.65797 0.16517 0.0
H975 H 0.52352 0.6792 0.1802 0.0
H976 H 0.52416 0.6654 0.15206 0.0
H977 H 0.48765 0.5795 0.24496 0.0
H978 H 0.49239 0.61312 0.24988 0.0
H979 H 0.46154 0.58724 0.23682 0.0
H980 H 0.5033 0.70217 0.24336 0.0
H981 H 0.42718 0.64667 0.21065 0.0
H982 H 0.54376 0.68294 0.21815 0.0
H983 H 0.53201 0.65791 0.24077 0.0
H984 H 0.53894 0.69204 0.2471 0.0
H985 H 0.44886 0.61318 0.17631 0.0
H986 H 0.41906 0.60586 0.19313 0.0
H987 H 0.44047 0.59217 0.20167 0.0
C988 C 0.93313 0.53721 0.34561 0.0
C989 C 0.94868 0.52461 0.34951 0.0
C990 C 0.90804 0.52802 0.3569 0.0
C991 C 0.89819 0.50552 0.3723 0.0
C992 C 0.91502 0.49438 0.37789 0.0
C993 C 0.94018 0.50412 0.3664 0.0
C994 C 0.89097 0.54072 0.35058 0.0
C995 C 0.9054 0.47052 0.3943 0.0
C996 C 0.83242 0.48615 0.40522 0.0
C997 C 0.81273 0.4663 0.39042 0.0
C998 C 0.86043 0.49863 0.39998 0.0
C999 C 0.86893 0.49118 0.37943 0.0
C1000 C 0.84917 0.47073 0.36473 0.0
C1001 C 0.82141 0.45853 0.37044 0.0
C1002 C 0.88085 0.52027 0.4161 0.0
C1003 C 0.85731 0.46206 0.34265 0.0
H1004 H 0.93971 0.55298 0.33243 0.0
H1005 H 0.95206 0.49416 0.36919 0.0
H1006 H 0.8739 0.52654 0.33916 0.0
H1007 H 0.88192 0.5443 0.36638 0.0
H1008 H 0.90305 0.56038 0.34121 0.0
H1009 H 0.92242 0.46741 0.39996 0.0
H1010 H 0.89561 0.47343 0.40993 0.0
H1011 H 0.8899 0.45169 0.38541 0.0
H1012 H 0.82592 0.49243 0.42062 0.0
H1013 H 0.80643 0.44282 0.35917 0.0
H1014 H 0.8909 0.54028 0.40709 0.0
H1015 H 0.89707 0.51559 0.42084 0.0
H1016 H 0.8712 0.52214 0.43231 0.0
H1017 H 0.86757 0.47968 0.3306 0.0
H1018 H 0.83953 0.44529 0.33352 0.0
H1019 H 0.87209 0.45519 0.34669 0.0
C1020 C 0.08177 0.56076 0.39785 0.0
C1021 C 0.08885 0.55049 0.37851 0.0
C1022 C 0.09601 0.56562 0.41897 0.0
C1023 C 0.11783 0.5602 0.4206 0.0
C1024 C 0.12322 0.54739 0.40182 0.0
C1025 C 0.10854 0.54255 0.38104 0.0
C1026 C 0.08926 0.57876 0.43879 0.0
C1027 C 0.14623 0.54119 0.40279 0.0
C1028 C 0.17995 0.60851 0.45606 0.0
C1029 C 0.17771 0.59263 0.47557 0.0
C1030 C 0.16033 0.59828 0.43832 0.0
C1031 C 0.1376 0.57158 0.44021 0.0
C1032 C 0.13475 0.55564 0.4601 0.0
C1033 C 0.15493 0.56627 0.47748 0.0
C1034 C 0.16422 0.61595 0.41732 0.0
C1035 C 0.11067 0.5272 0.46281 0.0
H1036 H 0.06659 0.56696 0.39594 0.0
H1037 H 0.11378 0.53427 0.36616 0.0
H1038 H 0.08951 0.56936 0.45566 0.0
H1039 H 0.10491 0.60072 0.4397 0.0
H1040 H 0.06898 0.57705 0.43647 0.0
H1041 H 0.14537 0.52799 0.38811 0.0
H1042 H 0.16603 0.56056 0.40196 0.0
H1043 H 0.14576 0.531 0.4194 0.0
H1044 H 0.19707 0.6291 0.45465 0.0
H1045 H 0.1531 0.55372 0.49237 0.0
H1046 H 0.14629 0.61874 0.41519 0.0
H1047 H 0.1658 0.6058 0.40134 0.0
H1048 H 0.18283 0.63638 0.41868 0.0
H1049 H 0.09132 0.52736 0.46027 0.0
H1050 H 0.11022 0.51838 0.48019 0.0
H1051 H 0.1115 0.51366 0.44928 0.0
C1052 C 0.58252 0.10696 0.54654 0.0
C1053 C 0.55526 0.08595 0.54528 0.0
C1054 C 0.59324 0.12176 0.56714 0.0
C1055 C 0.57628 0.11527 0.58699 0.0
C1056 C 0.54953 0.09238 0.58645 0.0
C1057 C 0.53927 0.07795 0.5655 0.0
C1058 C 0.6219 0.14589 0.56694 0.0
C1059 C 0.53097 0.08455 0.60737 0.0
C1060 C 0.61057 0.15282 0.64293 0.0
C1061 C 0.60568 0.17482 0.64226 0.0
C1062 C 0.60039 0.13269 0.62549 0.0
C1063 C 0.58523 0.13477 0.60684 0.0
C1064 C 0.57985 0.15666 0.60628 0.0
C1065 C 0.59 0.17628 0.62402 0.0
C1066 C 0.60637 0.10957 0.62675 0.0
C1067 C 0.56379 0.15968 0.58665 0.0
H1068 H 0.59496 0.11295 0.53091 0.0
H1069 H 0.51816 0.06175 0.56452 0.0
H1070 H 0.62103 0.16504 0.56712 0.0
H1071 H 0.63323 0.14591 0.58269 0.0
H1072 H 0.63351 0.14603 0.55128 0.0
H1073 H 0.51289 0.06382 0.60552 0.0
H1074 H 0.5421 0.08524 0.62349 0.0
H1075 H 0.52371 0.09935 0.60949 0.0
H1076 H 0.62283 0.1516 0.65685 0.0
H1077 H 0.58556 0.1928 0.62363 0.0
H1078 H 0.62007 0.11131 0.61221 0.0
H1079 H 0.58726 0.0897 0.62477 0.0
H1080 H 0.61627 0.10949 0.64343 0.0
H1081 H 0.57457 0.16219 0.56988 0.0
H1082 H 0.56081 0.17748 0.58911 0.0
H1083 H 0.54347 0.14101 0.58521 0.0
C1084 C 0.50828 0.58139 0.71726 0.0
C1085 C 0.49721 0.55332 0.71376 0.0
C1086 C 0.50313 0.59139 0.73784 0.0
C1087 C 0.48623 0.57278 0.75515 0.0
C1088 C 0.47692 0.54457 0.75249 0.0
C1089 C 0.48264 0.53516 0.73178 0.0
C1090 C 0.51382 0.62163 0.74012 0.0
C1091 C 0.45887 0.52407 0.77053 0.0
C1092 C 0.47874 0.60081 0.81322 0.0
C1093 C 0.4549 0.60216 0.80957 0.0
C1094 C 0.48915 0.5911 0.79578 0.0
C1095 C 0.47532 0.5824 0.77424 0.0
C1096 C 0.45114 0.5835 0.77052 0.0
C1097 C 0.4413 0.59343 0.78818 0.0
C1098 C 0.515 0.59029 0.80033 0.0
C1099 C 0.43577 0.57442 0.74777 0.0
H1100 H 0.51954 0.59539 0.70325 0.0
H1101 H 0.47384 0.51343 0.72893 0.0
H1102 H 0.49678 0.62578 0.73774 0.0
H1103 H 0.52243 0.62893 0.75774 0.0
H1104 H 0.52979 0.63358 0.72695 0.0
H1105 H 0.45685 0.50374 0.76763 0.0
H1106 H 0.46698 0.53118 0.7883 0.0
H1107 H 0.43823 0.52177 0.76976 0.0
H1108 H 0.48916 0.6071 0.82982 0.0
H1109 H 0.42311 0.59475 0.78508 0.0
H1110 H 0.53084 0.60321 0.78744 0.0
H1111 H 0.51114 0.56918 0.79818 0.0
H1112 H 0.52317 0.59753 0.8181 0.0
H1113 H 0.44899 0.58721 0.73331 0.0
H1114 H 0.41688 0.57584 0.74791 0.0
H1115 H 0.43012 0.55301 0.74399 0.0
C1116 C 0.97211 0.47993 0.89934 0.0
C1117 C 0.96588 0.49191 0.88078 0.0
C1118 C 0.95773 0.47431 0.92047 0.0
C1119 C 0.9368 0.48094 0.92296 0.0
C1120 C 0.9322 0.49522 0.90494 0.0
C1121 C 0.94679 0.50049 0.88405 0.0
C1122 C 0.96339 0.45928 0.93934 0.0
C1123 C 0.91029 0.5029 0.90692 0.0
C1124 C 0.87392 0.43421 0.95837 0.0
C1125 C 0.87776 0.44958 0.97861 0.0
C1126 C 0.89332 0.44399 0.94042 0.0
C1127 C 0.91726 0.46978 0.94275 0.0
C1128 C 0.92159 0.48519 0.96333 0.0
C1129 C 0.90177 0.47491 0.98102 0.0
C1130 C 0.88793 0.42686 0.91877 0.0
C1131 C 0.94684 0.51275 0.96641 0.0
H1132 H 0.98676 0.47316 0.89675 0.0
H1133 H 0.94213 0.50992 0.86969 0.0
H1134 H 0.96415 0.46831 0.95666 0.0
H1135 H 0.94661 0.43773 0.9398 0.0
H1136 H 0.9829 0.45951 0.93635 0.0
H1137 H 0.91175 0.51699 0.89281 0.0
H1138 H 0.88993 0.4842 0.90591 0.0
H1139 H 0.91157 0.51271 0.92396 0.0
H1140 H 0.8557 0.4144 0.95658 0.0
H1141 H 0.90479 0.487 0.99654 0.0
H1142 H 0.9051 0.4231 0.91558 0.0
H1143 H 0.8865 0.43798 0.90342 0.0
H1144 H 0.86875 0.40689 0.92002 0.0
H1145 H 0.96541 0.51128 0.9633 0.0
H1146 H 0.9481 0.52128 0.98409 0.0
H1147 H 0.94689 0.52725 0.9534 0.0
C1148 C 0.46919 0.94641 0.04797 0.0
C1149 C 0.49738 0.96304 0.04482 0.0
C1150 C 0.45861 0.93141 0.06854 0.0
C1151 C 0.47675 0.93277 0.08614 0.0
C1152 C 0.50511 0.9512 0.08376 0.0
C1153 C 0.5151 0.96628 0.0631 0.0
C1154 C 0.42821 0.91243 0.07055 0.0
C1155 C 0.52515 0.95317 0.10206 0.0
C1156 C 0.44851 0.89812 0.14448 0.0
C1157 C 0.44659 0.87269 0.14095 0.0
C1158 C 0.45821 0.91795 0.12682 0.0
C1159 C 0.46648 0.91229 0.10526 0.0
C1160 C 0.4647 0.88668 0.10168 0.0
C1161 C 0.45465 0.86716 0.11951 0.0
C1162 C 0.45944 0.94485 0.13113 0.0
C1163 C 0.47356 0.87991 0.07901 0.0
H1164 H 0.45553 0.94394 0.03375 0.0
H1165 H 0.53694 0.97892 0.06051 0.0
H1166 H 0.42352 0.89107 0.06814 0.0
H1167 H 0.42084 0.91389 0.0881 0.0
H1168 H 0.41672 0.9169 0.05727 0.0
H1169 H 0.54582 0.97103 0.09919 0.0
H1170 H 0.51804 0.95468 0.11971 0.0
H1171 H 0.52671 0.9344 0.10161 0.0
H1172 H 0.44208 0.90236 0.16099 0.0
H1173 H 0.45354 0.84768 0.11685 0.0
H1174 H 0.44661 0.9478 0.11819 0.0
H1175 H 0.48065 0.9619 0.12886 0.0
H1176 H 0.45235 0.94611 0.14889 0.0
H1177 H 0.46119 0.88083 0.06444 0.0
H1178 H 0.4714 0.85931 0.07921 0.0
H1179 H 0.4952 0.89518 0.07538 0.0
C1180 C 0.57447 0.51672 0.2351 0.0
C1181 C 0.56382 0.49924 0.21593 0.0
C1182 C 0.57937 0.50734 0.25621 0.0
C1183 C 0.57337 0.47991 0.25798 0.0
C1184 C 0.5604 0.4617 0.23922 0.0
C1185 C 0.55588 0.47165 0.21838 0.0
C1186 C 0.59305 0.52732 0.27586 0.0
C1187 C 0.55343 0.43227 0.24041 0.0
C1188 C 0.61958 0.46363 0.29388 0.0
C1189 C 0.60339 0.4508 0.31346 0.0
C1190 C 0.61026 0.4738 0.27605 0.0
C1191 C 0.58407 0.47114 0.27781 0.0
C1192 C 0.56782 0.45877 0.29776 0.0
C1193 C 0.57768 0.44872 0.31536 0.0
C1194 C 0.62828 0.48694 0.25508 0.0
C1195 C 0.5398 0.45552 0.30021 0.0
H1196 H 0.58079 0.53812 0.23306 0.0
H1197 H 0.54763 0.4582 0.20345 0.0
H1198 H 0.58333 0.5181 0.29277 0.0
H1199 H 0.61476 0.53272 0.27693 0.0
H1200 H 0.59229 0.54637 0.27326 0.0
H1201 H 0.54017 0.42003 0.22572 0.0
H1202 H 0.5725 0.43126 0.23979 0.0
H1203 H 0.54297 0.42282 0.25702 0.0
H1204 H 0.63967 0.46579 0.29251 0.0
H1205 H 0.56498 0.43867 0.33038 0.0
H1206 H 0.63151 0.50776 0.25246 0.0
H1207 H 0.61815 0.47494 0.23921 0.0
H1208 H 0.6485 0.48836 0.25682 0.0
H1209 H 0.5408 0.47541 0.29751 0.0
H1210 H 0.53063 0.4474 0.31756 0.0
H1211 H 0.52608 0.44138 0.28663 0.0
C1212 C 0.45304 0.94853 0.42497 0.0
C1213 C 0.47823 0.96303 0.43631 0.0
C1214 C 0.45025 0.93347 0.40478 0.0
C1215 C 0.47319 0.93272 0.39588 0.0
C1216 C 0.49908 0.94877 0.40643 0.0
C1217 C 0.50132 0.96387 0.42658 0.0
C1218 C 0.42234 0.91692 0.39393 0.0
C1219 C 0.52401 0.94853 0.39741 0.0
C1220 C 0.45516 0.86638 0.36541 0.0
C1221 C 0.45574 0.87337 0.34192 0.0
C1222 C 0.46181 0.88582 0.38308 0.0
C1223 C 0.46927 0.91295 0.37713 0.0
C1224 C 0.47084 0.9204 0.35343 0.0
C1225 C 0.46401 0.90051 0.3361 0.0
C1226 C 0.45998 0.87707 0.40817 0.0
C1227 C 0.4787 0.9491 0.34642 0.0
H1228 H 0.43522 0.94799 0.43257 0.0
H1229 H 0.52073 0.97492 0.43553 0.0
H1230 H 0.42343 0.92037 0.37486 0.0
H1231 H 0.41474 0.89488 0.39676 0.0
H1232 H 0.40732 0.92197 0.40146 0.0
H1233 H 0.54308 0.96476 0.40552 0.0
H1234 H 0.52219 0.92849 0.40127 0.0
H1235 H 0.52563 0.95123 0.37823 0.0
H1236 H 0.44924 0.84558 0.37001 0.0
H1237 H 0.46424 0.90603 0.318 0.0
H1238 H 0.44365 0.87895 0.41719 0.0
H1239 H 0.47941 0.89059 0.41734 0.0
H1240 H 0.45545 0.85566 0.40982 0.0
H1241 H 0.4625 0.95351 0.35192 0.0
H1242 H 0.48162 0.95227 0.3273 0.0
H1243 H 0.4978 0.96406 0.3553 0.0
C1244 C 0.52853 0.44925 0.5917 0.0
C1245 C 0.53862 0.47422 0.60333 0.0
C1246 C 0.54161 0.44693 0.57184 0.0
C1247 C 0.56549 0.47014 0.56353 0.0
C1248 C 0.57466 0.49583 0.57425 0.0
C1249 C 0.56102 0.49759 0.59407 0.0
C1250 C 0.53095 0.41922 0.56079 0.0
C1251 C 0.59997 0.52104 0.56584 0.0
C1252 C 0.61548 0.45284 0.53529 0.0
C1253 C 0.61015 0.4536 0.51156 0.0
C1254 C 0.60188 0.45933 0.55232 0.0
C1255 C 0.58236 0.46665 0.54546 0.0
C1256 C 0.5776 0.46843 0.52151 0.0
C1257 C 0.59159 0.4619 0.50482 0.0
C1258 C 0.6077 0.45738 0.5777 0.0
C1259 C 0.55689 0.47607 0.51354 0.0
H1260 H 0.51111 0.43122 0.59887 0.0
H1261 H 0.56893 0.51685 0.60319 0.0
H1262 H 0.52945 0.42056 0.54163 0.0
H1263 H 0.54537 0.41174 0.56423 0.0
H1264 H 0.51057 0.40399 0.56767 0.0
H1265 H 0.60212 0.53992 0.57378 0.0
H1266 H 0.61822 0.51957 0.57046 0.0
H1267 H 0.5997 0.52276 0.54662 0.0
H1268 H 0.63009 0.44681 0.54055 0.0
H1269 H 0.5872 0.46227 0.4865 0.0
H1270 H 0.5892 0.44077 0.58616 0.0
H1271 H 0.61288 0.47663 0.58686 0.0
H1272 H 0.62474 0.45319 0.58008 0.0
H1273 H 0.53609 0.45955 0.51821 0.0
H1274 H 0.55769 0.47938 0.49442 0.0
H1275 H 0.56025 0.49487 0.52248 0.0
C1276 C 0.07905 0.53695 0.7515 0.0
C1277 C 0.08835 0.55169 0.7723 0.0
C1278 C 0.09336 0.54767 0.73056 0.0
C1279 C 0.11741 0.57361 0.73062 0.0
C1280 C 0.12543 0.58942 0.75124 0.0
C1281 C 0.11076 0.57826 0.77182 0.0
C1282 C 0.08396 0.53036 0.70885 0.0
C1283 C 0.15083 0.61721 0.7521 0.0
C1284 C 0.17634 0.58613 0.6913 0.0
C1285 C 0.17575 0.60376 0.67447 0.0
C1286 C 0.157 0.57564 0.70926 0.0
C1287 C 0.13629 0.5827 0.71034 0.0
C1288 C 0.135 0.59979 0.69303 0.0
C1289 C 0.15483 0.61023 0.67535 0.0
C1290 C 0.15914 0.5575 0.72741 0.0
C1291 C 0.11313 0.60761 0.69355 0.0
H1292 H 0.06175 0.51637 0.7519 0.0
H1293 H 0.11775 0.58974 0.78792 0.0
H1294 H 0.08502 0.54278 0.69353 0.0
H1295 H 0.09765 0.52199 0.70536 0.0
H1296 H 0.06277 0.51302 0.71061 0.0
H1297 H 0.15236 0.62815 0.76859 0.0
H1298 H 0.16911 0.61487 0.75058 0.0
H1299 H 0.15127 0.62997 0.73728 0.0
H1300 H 0.19201 0.58049 0.69046 0.0
H1301 H 0.1543 0.62398 0.66251 0.0
H1302 H 0.13968 0.53783 0.7285 0.0
H1303 H 0.16288 0.56737 0.74477 0.0
H1304 H 0.17589 0.55322 0.72362 0.0
H1305 H 0.09269 0.58916 0.69537 0.0
H1306 H 0.11331 0.61881 0.67761 0.0
H1307 H 0.11619 0.62075 0.70889 0.0
C1308 C 0.60445 0.10068 0.92502 0.0
C1309 C 0.57912 0.0845 0.93581 0.0
C1310 C 0.60678 0.11571 0.90495 0.0
C1311 C 0.58315 0.1145 0.8954 0.0
C1312 C 0.55724 0.09673 0.90528 0.0
C1313 C 0.55552 0.08188 0.92545 0.0
C1314 C 0.63477 0.13424 0.89488 0.0
C1315 C 0.53158 0.09471 0.89545 0.0
C1316 C 0.59724 0.17964 0.86494 0.0
C1317 C 0.59864 0.17336 0.84154 0.0
C1318 C 0.59112 0.16025 0.88254 0.0
C1319 C 0.58616 0.13387 0.8766 0.0
C1320 C 0.58643 0.12701 0.85295 0.0
C1321 C 0.59275 0.14687 0.8357 0.0
C1322 C 0.59097 0.16836 0.90758 0.0
C1323 C 0.58117 0.09909 0.84595 0.0
H1324 H 0.62267 0.10247 0.93293 0.0
H1325 H 0.53593 0.06949 0.93386 0.0
H1326 H 0.6348 0.13094 0.87584 0.0
H1327 H 0.64038 0.15584 0.89758 0.0
H1328 H 0.65069 0.13097 0.90306 0.0
H1329 H 0.51288 0.07736 0.90304 0.0
H1330 H 0.53138 0.11383 0.89922 0.0
H1331 H 0.53095 0.09228 0.87625 0.0
H1332 H 0.60127 0.19989 0.86954 0.0
H1333 H 0.59405 0.1419 0.81769 0.0
H1334 H 0.60774 0.16798 0.91725 0.0
H1335 H 0.57154 0.15356 0.91613 0.0
H1336 H 0.59358 0.18909 0.90916 0.0
H1337 H 0.5983 0.09638 0.85191 0.0
H1338 H 0.57907 0.09602 0.82679 0.0
H1339 H 0.56234 0.08299 0.85442 0.0
C1340 C 0.51667 0.56822 0.08477 0.0
C1341 C 0.49972 0.55064 0.10218 0.0
C1342 C 0.50555 0.57213 0.0643 0.0
C1343 C 0.47685 0.55794 0.06129 0.0
C1344 C 0.45991 0.53827 0.07795 0.0
C1345 C 0.47157 0.53509 0.09841 0.0
C1346 C 0.52431 0.59343 0.04708 0.0
C1347 C 0.4293 0.52237 0.07521 0.0
C1348 C 0.44698 0.59638 0.03076 0.0
C1349 C 0.44236 0.58536 0.00829 0.0
C1350 C 0.45817 0.58754 0.0481 0.0
C1351 C 0.46446 0.56682 0.04294 0.0
C1352 C 0.45933 0.55521 0.02038 0.0
C1353 C 0.44856 0.56483 0.00321 0.0
C1354 C 0.46369 0.60075 0.07186 0.0
C1355 C 0.46529 0.53275 0.0144 0.0
H1356 H 0.53841 0.58053 0.08801 0.0
H1357 H 0.45855 0.52177 0.11213 0.0
H1358 H 0.51885 0.58581 0.02898 0.0
H1359 H 0.52209 0.61176 0.04867 0.0
H1360 H 0.54605 0.59967 0.05015 0.0
H1361 H 0.41964 0.50472 0.08731 0.0
H1362 H 0.42083 0.53592 0.07891 0.0
H1363 H 0.4236 0.51484 0.05709 0.0
H1364 H 0.44248 0.61247 0.0346 0.0
H1365 H 0.44479 0.5562 0.98583 0.0
H1366 H 0.48569 0.61012 0.07611 0.0
H1367 H 0.45217 0.58512 0.08535 0.0
H1368 H 0.45787 0.61677 0.07293 0.0
H1369 H 0.4874 0.5402 0.01648 0.0
H1370 H 0.45925 0.52525 0.99629 0.0
H1371 H 0.45428 0.51538 0.02657 0.0
C1372 C 0.96871 0.4881 0.25954 0.0
C1373 C 0.96835 0.51084 0.26871 0.0
C1374 C 0.95322 0.47468 0.23972 0.0
C1375 C 0.93724 0.48442 0.22892 0.0
C1376 C 0.93856 0.50862 0.23715 0.0
C1377 C 0.95403 0.52148 0.25701 0.0
C1378 C 0.95241 0.449 0.2314 0.0
C1379 C 0.92209 0.51989 0.226 0.0
C1380 C 0.9027 0.4589 0.17025 0.0
C1381 C 0.87566 0.44093 0.17703 0.0
C1382 C 0.92333 0.47245 0.18693 0.0
C1383 C 0.91672 0.46785 0.21088 0.0
C1384 C 0.88968 0.44888 0.21777 0.0
C1385 C 0.86948 0.4357 0.20076 0.0
C1386 C 0.95189 0.49256 0.17893 0.0
C1387 C 0.88182 0.44325 0.24315 0.0
H1388 H 0.97964 0.47979 0.26874 0.0
H1389 H 0.95389 0.53916 0.26412 0.0
H1390 H 0.93245 0.43107 0.23608 0.0
H1391 H 0.95437 0.44913 0.21218 0.0
H1392 H 0.96885 0.4464 0.23936 0.0
H1393 H 0.92773 0.54041 0.23283 0.0
H1394 H 0.92498 0.52127 0.20685 0.0
H1395 H 0.90007 0.50591 0.22945 0.0
H1396 H 0.90753 0.4632 0.15193 0.0
H1397 H 0.8487 0.42153 0.20604 0.0
H1398 H 0.96699 0.48872 0.18792 0.0
H1399 H 0.95674 0.51355 0.18352 0.0
H1400 H 0.95437 0.49159 0.15982 0.0
H1401 H 0.89552 0.43761 0.25234 0.0
H1402 H 0.8604 0.42659 0.24555 0.0
H1403 H 0.8842 0.46197 0.25158 0.0
loop_
_geom_bond_atom_site_label_1
_geom_bond_atom_site_label_2
_geom_bond_distance
_geom_bond_site_symmetry_2
_ccdc_geom_bond_type
H0 C6 0.930 . S
H1 C9 0.931 . S
H2 C11 0.931 . S
H3 C13 0.930 . S
H4 C15 0.930 . S
H5 C17 0.931 1_455 S
C6 H0 0.930 . S
C6 C7 1.380 . S
C6 C8 1.394 . S
C7 C6 1.380 . S
C7 C11 1.382 . S
C8 C6 1.394 . S
C8 C9 1.400 . S
C9 H1 0.931 . S
C9 C8 1.400 . S
C9 C10 1.375 . S
C10 C9 1.375 . S
C10 C11 1.415 . S
C10 C12 1.517 . S
C11 H2 0.931 . S
C11 C7 1.382 . S
C11 C10 1.415 . S
C12 C10 1.517 . S
C12 C13 1.371 1_455 S
C12 C17 1.405 1_455 S
C13 H3 0.930 . S
C13 C12 1.371 1_655 S
C13 C14 1.389 . S
C14 C13 1.389 . S
C14 C15 1.405 . S
C15 H4 0.930 . S
C15 C14 1.405 . S
C15 C16 1.364 . S
C16 C15 1.364 . S
C16 C17 1.400 . S
C17 H5 0.931 1_655 S
C17 C12 1.405 1_655 S
C17 C16 1.400 . S
H18 C24 0.930 . S
H19 C27 0.931 . S
H20 C29 0.931 . S
H21 C31 0.930 . S
H22 C33 0.930 . S
H23 C35 0.931 1_545 S
C24 H18 0.930 . S
C24 C25 1.380 . S
C24 C26 1.394 . S
C25 C24 1.380 . S
C25 C29 1.382 . S
C26 C24 1.394 . S
C26 C27 1.400 . S
C27 H19 0.931 . S
C27 C26 1.400 . S
C27 C28 1.375 . S
C28 C27 1.375 . S
C28 C29 1.415 . S
C28 C30 1.511 . S
C29 H20 0.931 . S
C29 C25 1.382 . S
C29 C28 1.415 . S
C30 C28 1.511 . S
C30 C31 1.377 1_545 S
C30 C35 1.404 1_545 S
C31 H21 0.930 . S
C31 C30 1.377 1_565 S
C31 C32 1.389 . S
C32 C31 1.389 . S
C32 C33 1.405 . S
C33 H22 0.930 . S
C33 C32 1.405 . S
C33 C34 1.364 . S
C34 C33 1.364 . S
C34 C35 1.400 . S
C35 H23 0.931 1_565 S
C35 C30 1.404 1_565 S
C35 C34 1.400 . S
H36 C42 0.930 . S
H37 C45 0.931 . S
H38 C47 0.931 . S
H39 C49 0.930 . S
H40 C51 0.930 . S
H41 C53 0.931 . S
C42 H36 0.930 . S
C42 C43 1.380 . S
C42 C44 1.394 . S
C43 C42 1.380 . S
C43 C47 1.382 . S
C44 C42 1.394 . S
C44 C45 1.400 . S
C45 H37 0.931 . S
C45 C44 1.400 . S
C45 C46 1.375 . S
C46 C45 1.375 . S
C46 C47 1.415 . S
C46 C48 1.501 . S
C47 H38 0.931 . S
C47 C43 1.382 . S
C47 C46 1.415 . S
C48 C46 1.501 . S
C48 C49 1.384 . S
C48 C53 1.408 . S
C49 H39 0.930 . S
C49 C48 1.384 . S
C49 C50 1.389 . S
C50 C49 1.389 . S
C50 C51 1.405 . S
C51 H40 0.930 . S
C51 C50 1.405 . S
C51 C52 1.364 . S
C52 C51 1.364 . S
C52 C53 1.400 . S
C53 H41 0.931 . S
C53 C48 1.408 . S
C53 C52 1.400 . S
H54 C60 0.930 . S
H55 C63 0.931 . S
H56 C65 0.931 . S
H57 C67 0.930 . S
H58 C69 0.930 . S
H59 C71 0.931 1_455 S
C60 H54 0.930 . S
C60 C61 1.380 . S
C60 C62 1.394 . S
C61 C60 1.380 . S
C61 C65 1.382 . S
C62 C60 1.394 . S
C62 C63 1.400 . S
C63 H55 0.931 . S
C63 C62 1.400 . S
C63 C64 1.375 . S
C64 C63 1.375 . S
C64 C65 1.415 . S
C64 C66 1.517 . S
C65 H56 0.931 . S
C65 C61 1.382 . S
C65 C64 1.415 . S
C66 C64 1.517 . S
C66 C67 1.372 1_455 S
C66 C71 1.402 1_455 S
C67 H57 0.930 . S
C67 C66 1.372 1_655 S
C67 C68 1.389 . S
C68 C67 1.389 . S
C68 C69 1.405 . S
C69 H58 0.930 . S
C69 C68 1.405 . S
C69 C70 1.364 . S
C70 C69 1.364 . S
C70 C71 1.400 . S
C71 H59 0.931 1_655 S
C71 C66 1.402 1_655 S
C71 C70 1.400 . S
H72 C78 0.930 . S
H73 C81 0.931 . S
H74 C83 0.931 1_545 S
H75 C85 0.930 . S
H76 C87 0.930 . S
H77 C89 0.931 . S
C78 H72 0.930 . S
C78 C79 1.380 . S
C78 C80 1.394 1_554 S
C79 C78 1.380 . S
C79 C83 1.382 . S
C80 C78 1.394 1_556 S
C80 C81 1.400 . S
C81 H73 0.931 . S
C81 C80 1.400 . S
C81 C82 1.376 . S
C82 C81 1.376 . S
C82 C83 1.415 1_556 S
C82 C84 1.499 1_565 S
C83 H74 0.931 1_565 S
C83 C79 1.382 . S
C83 C82 1.415 1_554 S
C84 C82 1.499 1_545 S
C84 C85 1.384 1_556 S
C84 C89 1.408 . S
C85 H75 0.930 . S
C85 C84 1.384 1_554 S
C85 C86 1.382 1_554 S
C86 C85 1.382 1_556 S
C86 C87 1.433 . S
C87 H76 0.930 . S
C87 C86 1.433 . S
C87 C88 1.364 . S
C88 C87 1.364 . S
C88 C89 1.400 . S
C89 H77 0.931 . S
C89 C84 1.408 . S
C89 C88 1.400 . S
H90 C96 0.930 . S
H91 C99 0.931 . S
H92 C101 0.931 . S
H93 C103 0.930 . S
H94 C105 0.930 . S
H95 C107 0.931 . S
C96 H90 0.930 . S
C96 C97 1.380 . S
C96 C98 1.394 . S
C97 C96 1.380 . S
C97 C101 1.382 . S
C98 C96 1.394 . S
C98 C99 1.400 . S
C99 H91 0.931 . S
C99 C98 1.400 . S
C99 C100 1.375 . S
C100 C99 1.375 . S
C100 C101 1.415 . S
C100 C102 1.501 . S
C101 H92 0.931 . S
C101 C97 1.382 . S
C101 C100 1.415 . S
C102 C100 1.501 . S
C102 C103 1.384 . S
C102 C107 1.408 . S
C103 H93 0.930 . S
C103 C102 1.384 . S
C103 C104 1.389 . S
C104 C103 1.389 . S
C104 C105 1.405 . S
C105 H94 0.930 . S
C105 C104 1.405 . S
C105 C106 1.364 . S
C106 C105 1.364 . S
C106 C107 1.400 . S
C107 H95 0.931 . S
C107 C102 1.408 . S
C107 C106 1.400 . S
Li108 N125 1.990 . S
Li108 O168 1.956 . S
Li108 O169 1.970 . S
Li108 O170 1.961 . S
Li109 N133 1.990 . S
Li109 O168 1.970 . S
Li109 O169 1.956 . S
Li109 O171 1.961 . S
Li110 N155 1.990 . S
Li110 O168 1.961 . S
Li110 O170 1.956 . S
Li110 O171 1.970 . S
Li111 N161 1.990 . S
Li111 O169 1.961 . S
Li111 O170 1.970 . S
Li111 O171 1.956 . S
C112 C114 1.348 . S
C112 C115 1.356 . S
C112 O168 1.325 . S
N113 C116 1.314 . S
N113 C117 1.279 . S
C114 C112 1.348 . S
C114 C116 1.353 . S
C114 H172 0.929 . S
C115 C112 1.356 . S
C115 C117 1.358 . S
C115 H173 0.930 . S
C116 N113 1.314 . S
C116 C114 1.353 . S
C116 H174 0.930 . S
C117 N113 1.279 . S
C117 C115 1.358 . S
C117 H175 0.930 . S
C118 C121 1.348 . S
C118 C122 1.356 . S
C118 O169 1.325 . S
C119 N120 1.279 . S
C119 C122 1.358 . S
C119 H176 0.930 . S
N120 C119 1.279 . S
N120 C123 1.314 . S
C121 C118 1.348 . S
C121 C123 1.353 . S
C121 H177 0.929 . S
C122 C118 1.356 . S
C122 C119 1.358 . S
C122 H178 0.930 . S
C123 N120 1.314 . S
C123 C121 1.353 . S
C123 H179 0.930 . S
C124 N125 1.314 . S
C124 C129 1.353 . S
C124 H130 0.930 . S
N125 Li108 1.990 . S
N125 C124 1.314 . S
N125 C127 1.279 . S
C126 C127 1.358 . S
C126 C128 1.356 . S
C126 H180 0.930 . S
C127 N125 1.279 . S
C127 C126 1.358 . S
C127 H131 0.930 . S
C128 C126 1.356 . S
C128 C129 1.348 . S
C129 C124 1.353 . S
C129 C128 1.348 . S
C129 H181 0.929 . S
H130 C124 0.930 . S
H131 C127 0.930 . S
C132 N133 1.314 . S
C132 C134 1.353 . S
C132 H138 0.930 . S
N133 Li109 1.990 . S
N133 C132 1.314 . S
N133 C136 1.279 . S
C134 C132 1.353 . S
C134 C137 1.348 . S
C134 H182 0.929 . S
C135 C136 1.358 . S
C135 C137 1.356 . S
C135 H183 0.930 . S
C136 N133 1.279 . S
C136 C135 1.358 . S
C136 H139 0.930 . S
C137 C134 1.348 . S
C137 C135 1.356 . S
H138 C132 0.930 . S
H139 C136 0.930 . S
C140 C142 1.348 . S
C140 C143 1.356 . S
C140 O170 1.325 . S
N141 C144 1.314 . S
N141 C145 1.279 . S
C142 C140 1.348 . S
C142 C144 1.353 . S
C142 H184 0.929 . S
C143 C140 1.356 . S
C143 C145 1.358 . S
C143 H185 0.930 . S
C144 N141 1.314 . S
C144 C142 1.353 . S
C144 H186 0.930 . S
C145 N141 1.279 . S
C145 C143 1.358 . S
C145 H187 0.930 . S
C146 C147 1.348 . S
C146 C148 1.356 . S
C146 O171 1.325 . S
C147 C146 1.348 . S
C147 C149 1.353 . S
C147 H188 0.929 . S
C148 C146 1.356 . S
C148 C150 1.358 . S
C148 H189 0.930 . S
C149 C147 1.353 . S
C149 N151 1.314 . S
C149 H190 0.930 . S
C150 C148 1.358 . S
C150 N151 1.279 . S
C150 H191 0.930 . S
N151 C149 1.314 . S
N151 C150 1.279 . S
C152 C154 1.353 . S
C152 N155 1.314 . S
C152 H158 0.930 . S
C153 N155 1.279 . S
C153 C156 1.358 . S
C153 H159 0.930 . S
C154 C152 1.353 . S
C154 C157 1.348 . S
C154 H192 0.929 . S
N155 Li110 1.990 . S
N155 C152 1.314 . S
N155 C153 1.279 . S
C156 C153 1.358 . S
C156 C157 1.356 . S
C156 H193 0.930 . S
C157 C154 1.348 . S
C157 C156 1.356 . S
H158 C152 0.930 . S
H159 C153 0.930 . S
C160 N161 1.314 . S
C160 C162 1.353 . S
C160 H166 0.930 . S
N161 Li111 1.990 . S
N161 C160 1.314 . S
N161 C164 1.279 . S
C162 C160 1.353 . S
C162 C165 1.348 . S
C162 H194 0.929 . S
C163 C164 1.358 . S
C163 C165 1.356 . S
C163 H195 0.930 . S
C164 N161 1.279 . S
C164 C163 1.358 . S
C164 H167 0.930 . S
C165 C162 1.348 . S
C165 C163 1.356 . S
H166 C160 0.930 . S
H167 C164 0.930 . S
O168 Li108 1.956 . S
O168 Li109 1.970 . S
O168 Li110 1.961 . S
O168 C112 1.325 . S
O169 Li108 1.970 . S
O169 Li109 1.956 . S
O169 Li111 1.961 . S
O169 C118 1.325 . S
O170 Li108 1.961 . S
O170 Li110 1.956 . S
O170 Li111 1.970 . S
O170 C140 1.325 . S
O171 Li109 1.961 . S
O171 Li110 1.970 . S
O171 Li111 1.956 . S
O171 C146 1.325 . S
H172 C114 0.929 . S
H173 C115 0.930 . S
H174 C116 0.930 . S
H175 C117 0.930 . S
H176 C119 0.930 . S
H177 C121 0.929 . S
H178 C122 0.930 . S
H179 C123 0.930 . S
H180 C126 0.930 . S
H181 C129 0.929 . S
H182 C134 0.929 . S
H183 C135 0.930 . S
H184 C142 0.929 . S
H185 C143 0.930 . S
H186 C144 0.930 . S
H187 C145 0.930 . S
H188 C147 0.929 . S
H189 C148 0.930 . S
H190 C149 0.930 . S
H191 C150 0.930 . S
H192 C154 0.929 . S
H193 C156 0.930 . S
H194 C162 0.929 . S
H195 C163 0.930 . S
Li196 N213 1.990 . S
Li196 O256 1.956 . S
Li196 O257 1.970 . S
Li196 O258 1.961 . S
Li197 N221 1.990 . S
Li197 O256 1.970 . S
Li197 O257 1.956 . S
Li197 O259 1.961 . S
Li198 N243 1.990 . S
Li198 O256 1.961 . S
Li198 O258 1.956 . S
Li198 O259 1.970 . S
Li199 N249 1.990 . S
Li199 O257 1.961 . S
Li199 O258 1.970 . S
Li199 O259 1.956 . S
C200 C202 1.348 . S
C200 C203 1.356 . S
C200 O256 1.325 . S
N201 C204 1.314 . S
N201 C205 1.279 . S
C202 C200 1.348 . S
C202 C204 1.353 . S
C202 H260 0.929 . S
C203 C200 1.356 . S
C203 C205 1.358 . S
C203 H261 0.930 . S
C204 N201 1.314 . S
C204 C202 1.353 . S
C204 H262 0.930 . S
C205 N201 1.279 . S
C205 C203 1.358 . S
C205 H263 0.930 . S
C206 C209 1.348 . S
C206 C210 1.356 . S
C206 O257 1.325 . S
C207 N208 1.279 . S
C207 C210 1.358 . S
C207 H264 0.930 . S
N208 C207 1.279 . S
N208 C211 1.314 . S
C209 C206 1.348 . S
C209 C211 1.353 . S
C209 H265 0.929 . S
C210 C206 1.356 . S
C210 C207 1.358 . S
C210 H266 0.930 . S
C211 N208 1.314 . S
C211 C209 1.353 . S
C211 H267 0.930 . S
C212 N213 1.314 . S
C212 C217 1.353 . S
C212 H218 0.930 . S
N213 Li196 1.990 . S
N213 C212 1.314 . S
N213 C215 1.279 . S
C214 C215 1.358 . S
C214 C216 1.356 . S
C214 H268 0.930 . S
C215 N213 1.279 . S
C215 C214 1.358 . S
C215 H219 0.930 . S
C216 C214 1.356 . S
C216 C217 1.348 . S
C217 C212 1.353 . S
C217 C216 1.348 . S
C217 H269 0.929 . S
H218 C212 0.930 . S
H219 C215 0.930 . S
C220 N221 1.314 . S
C220 C222 1.353 . S
C220 H226 0.930 . S
N221 Li197 1.990 . S
N221 C220 1.314 . S
N221 C224 1.279 . S
C222 C220 1.353 . S
C222 C225 1.348 . S
C222 H270 0.929 . S
C223 C224 1.358 . S
C223 C225 1.356 . S
C223 H271 0.930 . S
C224 N221 1.279 . S
C224 C223 1.358 . S
C224 H227 0.930 . S
C225 C222 1.348 . S
C225 C223 1.356 . S
H226 C220 0.930 . S
H227 C224 0.930 . S
C228 C230 1.348 . S
C228 C231 1.356 . S
C228 O258 1.325 . S
N229 C232 1.314 . S
N229 C233 1.279 . S
C230 C228 1.348 . S
C230 C232 1.353 . S
C230 H272 0.929 . S
C231 C228 1.356 . S
C231 C233 1.358 . S
C231 H273 0.930 . S
C232 N229 1.314 . S
C232 C230 1.353 . S
C232 H274 0.930 . S
C233 N229 1.279 . S
C233 C231 1.358 . S
C233 H275 0.930 . S
C234 C235 1.348 . S
C234 C236 1.356 . S
C234 O259 1.325 . S
C235 C234 1.348 . S
C235 C237 1.353 . S
C235 H276 0.929 . S
C236 C234 1.356 . S
C236 C238 1.358 . S
C236 H277 0.930 . S
C237 C235 1.353 . S
C237 N239 1.314 . S
C237 H278 0.930 . S
C238 C236 1.358 . S
C238 N239 1.279 . S
C238 H279 0.930 . S
N239 C237 1.314 . S
N239 C238 1.279 . S
C240 C242 1.353 . S
C240 N243 1.314 . S
C240 H246 0.930 . S
C241 N243 1.279 . S
C241 C244 1.358 . S
C241 H247 0.930 . S
C242 C240 1.353 . S
C242 C245 1.348 . S
C242 H280 0.929 . S
N243 Li198 1.990 . S
N243 C240 1.314 . S
N243 C241 1.279 . S
C244 C241 1.358 . S
C244 C245 1.356 . S
C244 H281 0.930 . S
C245 C242 1.348 . S
C245 C244 1.356 . S
H246 C240 0.930 . S
H247 C241 0.930 . S
C248 N249 1.314 . S
C248 C250 1.353 . S
C248 H254 0.930 . S
N249 Li199 1.990 . S
N249 C248 1.314 . S
N249 C252 1.279 . S
C250 C248 1.353 . S
C250 C253 1.348 . S
C250 H282 0.929 . S
C251 C252 1.358 . S
C251 C253 1.356 . S
C251 H283 0.930 . S
C252 N249 1.279 . S
C252 C251 1.358 . S
C252 H255 0.930 . S
C253 C250 1.348 . S
C253 C251 1.356 . S
H254 C248 0.930 . S
H255 C252 0.930 . S
O256 Li196 1.956 . S
O256 Li197 1.970 . S
O256 Li198 1.961 . S
O256 C200 1.325 . S
O257 Li196 1.970 . S
O257 Li197 1.956 . S
O257 Li199 1.961 . S
O257 C206 1.325 . S
O258 Li196 1.961 . S
O258 Li198 1.956 . S
O258 Li199 1.970 . S
O258 C228 1.325 . S
O259 Li197 1.961 . S
O259 Li198 1.970 . S
O259 Li199 1.956 . S
O259 C234 1.325 . S
H260 C202 0.929 . S
H261 C203 0.930 . S
H262 C204 0.930 . S
H263 C205 0.930 . S
H264 C207 0.930 . S
H265 C209 0.929 . S
H266 C210 0.930 . S
H267 C211 0.930 . S
H268 C214 0.930 . S
H269 C217 0.929 . S
H270 C222 0.929 . S
H271 C223 0.930 . S
H272 C230 0.929 . S
H273 C231 0.930 . S
H274 C232 0.930 . S
H275 C233 0.930 . S
H276 C235 0.929 . S
H277 C236 0.930 . S
H278 C237 0.930 . S
H279 C238 0.930 . S
H280 C242 0.929 . S
H281 C244 0.930 . S
H282 C250 0.929 . S
H283 C251 0.930 . S
Li284 N301 1.990 . S
Li284 O344 1.956 . S
Li284 O345 1.970 . S
Li284 O346 1.961 . S
Li285 N309 1.990 . S
Li285 O344 1.970 . S
Li285 O345 1.956 . S
Li285 O347 1.961 . S
Li286 N331 1.990 . S
Li286 O344 1.961 . S
Li286 O346 1.956 . S
Li286 O347 1.970 . S
Li287 N337 1.990 . S
Li287 O345 1.961 . S
Li287 O346 1.970 . S
Li287 O347 1.956 . S
C288 C290 1.348 . S
C288 C291 1.356 . S
C288 O344 1.325 . S
N289 C292 1.314 . S
N289 C293 1.279 . S
C290 C288 1.348 . S
C290 C292 1.353 . S
C290 H348 0.929 . S
C291 C288 1.356 . S
C291 C293 1.358 . S
C291 H349 0.930 . S
C292 N289 1.314 . S
C292 C290 1.353 . S
C292 H350 0.930 . S
C293 N289 1.279 . S
C293 C291 1.358 . S
C293 H351 0.930 . S
C294 C297 1.348 . S
C294 C298 1.356 . S
C294 O345 1.325 . S
C295 N296 1.279 . S
C295 C298 1.358 . S
C295 H352 0.930 . S
N296 C295 1.279 . S
N296 C299 1.314 . S
C297 C294 1.348 . S
C297 C299 1.353 . S
C297 H353 0.929 . S
C298 C294 1.356 . S
C298 C295 1.358 . S
C298 H354 0.930 . S
C299 N296 1.314 . S
C299 C297 1.353 . S
C299 H355 0.930 . S
C300 N301 1.314 . S
C300 C305 1.353 . S
C300 H306 0.930 . S
N301 Li284 1.990 . S
N301 C300 1.314 . S
N301 C303 1.279 . S
C302 C303 1.358 . S
C302 C304 1.356 . S
C302 H356 0.930 . S
C303 N301 1.279 . S
C303 C302 1.358 . S
C303 H307 0.930 . S
C304 C302 1.356 . S
C304 C305 1.348 . S
C305 C300 1.353 . S
C305 C304 1.348 . S
C305 H357 0.929 . S
H306 C300 0.930 . S
H307 C303 0.930 . S
C308 N309 1.314 . S
C308 C310 1.353 . S
C308 H314 0.930 . S
N309 Li285 1.990 . S
N309 C308 1.314 . S
N309 C312 1.279 . S
C310 C308 1.353 . S
C310 C313 1.348 . S
C310 H358 0.929 . S
C311 C312 1.358 . S
C311 C313 1.356 . S
C311 H359 0.930 . S
C312 N309 1.279 . S
C312 C311 1.358 . S
C312 H315 0.930 . S
C313 C310 1.348 . S
C313 C311 1.356 . S
H314 C308 0.930 . S
H315 C312 0.930 . S
C316 C318 1.348 . S
C316 C319 1.356 . S
C316 O346 1.325 . S
N317 C320 1.314 . S
N317 C321 1.279 . S
C318 C316 1.348 . S
C318 C320 1.353 . S
C318 H360 0.929 . S
C319 C316 1.356 . S
C319 C321 1.358 . S
C319 H361 0.930 . S
C320 N317 1.314 . S
C320 C318 1.353 . S
C320 H362 0.930 . S
C321 N317 1.279 . S
C321 C319 1.358 . S
C321 H363 0.930 . S
C322 C323 1.348 . S
C322 C324 1.356 . S
C322 O347 1.325 . S
C323 C322 1.348 . S
C323 C325 1.353 . S
C323 H364 0.929 . S
C324 C322 1.356 . S
C324 C326 1.358 . S
C324 H365 0.930 . S
C325 C323 1.353 . S
C325 N327 1.314 . S
C325 H366 0.930 . S
C326 C324 1.358 . S
C326 N327 1.279 . S
C326 H367 0.930 . S
N327 C325 1.314 . S
N327 C326 1.279 . S
C328 C330 1.353 . S
C328 N331 1.314 . S
C328 H334 0.930 . S
C329 N331 1.279 . S
C329 C332 1.358 . S
C329 H335 0.930 . S
C330 C328 1.353 . S
C330 C333 1.348 . S
C330 H368 0.929 . S
N331 Li286 1.990 . S
N331 C328 1.314 . S
N331 C329 1.279 . S
C332 C329 1.358 . S
C332 C333 1.356 . S
C332 H369 0.930 . S
C333 C330 1.348 . S
C333 C332 1.356 . S
H334 C328 0.930 . S
H335 C329 0.930 . S
C336 N337 1.314 . S
C336 C338 1.353 . S
C336 H342 0.930 . S
N337 Li287 1.990 . S
N337 C336 1.314 . S
N337 C340 1.279 . S
C338 C336 1.353 . S
C338 C341 1.348 . S
C338 H370 0.929 . S
C339 C340 1.358 . S
C339 C341 1.356 . S
C339 H371 0.930 . S
C340 N337 1.279 . S
C340 C339 1.358 . S
C340 H343 0.930 . S
C341 C338 1.348 . S
C341 C339 1.356 . S
H342 C336 0.930 . S
H343 C340 0.930 . S
O344 Li284 1.956 . S
O344 Li285 1.970 . S
O344 Li286 1.961 . S
O344 C288 1.325 . S
O345 Li284 1.970 . S
O345 Li285 1.956 . S
O345 Li287 1.961 . S
O345 C294 1.325 . S
O346 Li284 1.961 . S
O346 Li286 1.956 . S
O346 Li287 1.970 . S
O346 C316 1.325 . S
O347 Li285 1.961 . S
O347 Li286 1.970 . S
O347 Li287 1.956 . S
O347 C322 1.325 . S
H348 C290 0.929 . S
H349 C291 0.930 . S
H350 C292 0.930 . S
H351 C293 0.930 . S
H352 C295 0.930 . S
H353 C297 0.929 . S
H354 C298 0.930 . S
H355 C299 0.930 . S
H356 C302 0.930 . S
H357 C305 0.929 . S
H358 C310 0.929 . S
H359 C311 0.930 . S
H360 C318 0.929 . S
H361 C319 0.930 . S
H362 C320 0.930 . S
H363 C321 0.930 . S
H364 C323 0.929 . S
H365 C324 0.930 . S
H366 C325 0.930 . S
H367 C326 0.930 . S
H368 C330 0.929 . S
H369 C332 0.930 . S
H370 C338 0.929 . S
H371 C339 0.930 . S
Li372 N389 1.990 . S
Li372 O432 1.956 . S
Li372 O433 1.970 . S
Li372 O434 1.961 . S
Li373 N397 1.990 . S
Li373 O432 1.970 . S
Li373 O433 1.956 . S
Li373 O435 1.961 . S
Li374 N419 1.990 . S
Li374 O432 1.961 . S
Li374 O434 1.956 . S
Li374 O435 1.970 . S
Li375 N425 1.990 . S
Li375 O433 1.961 . S
Li375 O434 1.970 . S
Li375 O435 1.956 . S
C376 C378 1.348 . S
C376 C379 1.356 . S
C376 O432 1.325 . S
N377 C380 1.314 . S
N377 C381 1.279 . S
C378 C376 1.348 . S
C378 C380 1.353 . S
C378 H436 0.929 . S
C379 C376 1.356 . S
C379 C381 1.358 . S
C379 H437 0.930 . S
C380 N377 1.314 . S
C380 C378 1.353 . S
C380 H438 0.930 . S
C381 N377 1.279 . S
C381 C379 1.358 . S
C381 H439 0.930 . S
C382 C385 1.348 . S
C382 C386 1.356 . S
C382 O433 1.325 . S
C383 N384 1.279 . S
C383 C386 1.358 . S
C383 H440 0.930 . S
N384 C383 1.279 . S
N384 C387 1.314 . S
C385 C382 1.348 . S
C385 C387 1.353 . S
C385 H441 0.929 . S
C386 C382 1.356 . S
C386 C383 1.358 . S
C386 H442 0.930 . S
C387 N384 1.314 . S
C387 C385 1.353 . S
C387 H443 0.930 . S
C388 N389 1.314 . S
C388 C393 1.353 . S
C388 H394 0.930 . S
N389 Li372 1.990 . S
N389 C388 1.314 . S
N389 C391 1.279 . S
C390 C391 1.358 1_554 S
C390 C392 1.360 . S
C390 H444 0.930 . S
C391 N389 1.279 . S
C391 C390 1.358 1_556 S
C391 H395 0.930 . S
C392 C390 1.360 . S
C392 C393 1.310 1_554 S
C393 C388 1.353 . S
C393 C392 1.310 1_556 S
C393 H445 0.929 . S
H394 C388 0.930 . S
H395 C391 0.930 . S
C396 N397 1.314 . S
C396 C398 1.353 . S
C396 H402 0.930 . S
N397 Li373 1.990 . S
N397 C396 1.314 . S
N397 C400 1.279 . S
C398 C396 1.353 . S
C398 C401 1.348 . S
C398 H446 0.929 . S
C399 C400 1.358 . S
C399 C401 1.356 . S
C399 H447 0.930 . S
C400 N397 1.279 . S
C400 C399 1.358 . S
C400 H403 0.930 . S
C401 C398 1.348 . S
C401 C399 1.356 . S
H402 C396 0.930 . S
H403 C400 0.930 . S
C404 C406 1.348 . S
C404 C407 1.356 . S
C404 O434 1.325 . S
N405 C408 1.314 . S
N405 C409 1.279 . S
C406 C404 1.348 . S
C406 C408 1.353 . S
C406 H448 0.929 . S
C407 C404 1.356 . S
C407 C409 1.358 . S
C407 H449 0.930 . S
C408 N405 1.314 . S
C408 C406 1.353 . S
C408 H450 0.930 . S
C409 N405 1.279 . S
C409 C407 1.358 . S
C409 H451 0.930 . S
C410 C411 1.348 . S
C410 C412 1.356 . S
C410 O435 1.325 . S
C411 C410 1.348 . S
C411 C413 1.353 . S
C411 H452 0.929 . S
C412 C410 1.356 . S
C412 C414 1.358 . S
C412 H453 0.930 . S
C413 C411 1.353 . S
C413 N415 1.314 . S
C413 H454 0.930 . S
C414 C412 1.358 . S
C414 N415 1.279 . S
C414 H455 0.930 . S
N415 C413 1.314 . S
N415 C414 1.279 . S
C416 C418 1.353 . S
C416 N419 1.314 . S
C416 H422 0.930 . S
C417 N419 1.279 . S
C417 C420 1.358 . S
C417 H423 0.930 . S
C418 C416 1.353 . S
C418 C421 1.348 . S
C418 H456 0.929 . S
N419 Li374 1.990 . S
N419 C416 1.314 . S
N419 C417 1.279 . S
C420 C417 1.358 . S
C420 C421 1.356 . S
C420 H457 0.930 . S
C421 C418 1.348 . S
C421 C420 1.356 . S
H422 C416 0.930 . S
H423 C417 0.930 . S
C424 N425 1.314 . S
C424 C426 1.353 . S
C424 H430 0.930 . S
N425 Li375 1.990 . S
N425 C424 1.314 . S
N425 C428 1.279 . S
C426 C424 1.353 . S
C426 C429 1.348 . S
C426 H458 0.929 . S
C427 C428 1.358 . S
C427 C429 1.356 . S
C427 H459 0.930 . S
C428 N425 1.279 . S
C428 C427 1.358 . S
C428 H431 0.930 . S
C429 C426 1.348 . S
C429 C427 1.356 . S
H430 C424 0.930 . S
H431 C428 0.930 . S
O432 Li372 1.956 . S
O432 Li373 1.970 . S
O432 Li374 1.961 . S
O432 C376 1.325 . S
O433 Li372 1.970 . S
O433 Li373 1.956 . S
O433 Li375 1.961 . S
O433 C382 1.325 . S
O434 Li372 1.961 . S
O434 Li374 1.956 . S
O434 Li375 1.970 . S
O434 C404 1.325 . S
O435 Li373 1.961 . S
O435 Li374 1.970 . S
O435 Li375 1.956 . S
O435 C410 1.325 . S
H436 C378 0.929 . S
H437 C379 0.930 . S
H438 C380 0.930 . S
H439 C381 0.930 . S
H440 C383 0.930 . S
H441 C385 0.929 . S
H442 C386 0.930 . S
H443 C387 0.930 . S
H444 C390 0.930 . S
H445 C393 0.929 . S
H446 C398 0.929 . S
H447 C399 0.930 . S
H448 C406 0.929 . S
H449 C407 0.930 . S
H450 C408 0.930 . S
H451 C409 0.930 . S
H452 C411 0.929 . S
H453 C412 0.930 . S
H454 C413 0.930 . S
H455 C414 0.930 . S
H456 C418 0.929 . S
H457 C420 0.930 . S
H458 C426 0.929 . S
H459 C427 0.930 . S
Li460 N477 1.990 . S
Li460 O520 1.956 . S
Li460 O521 1.970 . S
Li460 O522 1.961 . S
Li461 N485 1.990 . S
Li461 O520 1.970 . S
Li461 O521 1.956 . S
Li461 O523 1.961 . S
Li462 N507 1.990 . S
Li462 O520 1.961 . S
Li462 O522 1.956 . S
Li462 O523 1.970 . S
Li463 N513 1.990 . S
Li463 O521 1.961 . S
Li463 O522 1.970 . S
Li463 O523 1.956 . S
C464 C466 1.348 . S
C464 C467 1.356 . S
C464 O520 1.325 . S
N465 C468 1.314 . S
N465 C469 1.279 . S
C466 C464 1.348 . S
C466 C468 1.353 . S
C466 H524 0.929 . S
C467 C464 1.356 . S
C467 C469 1.358 . S
C467 H525 0.930 . S
C468 N465 1.314 . S
C468 C466 1.353 . S
C468 H526 0.930 . S
C469 N465 1.279 . S
C469 C467 1.358 . S
C469 H527 0.930 . S
C470 C473 1.348 . S
C470 C474 1.356 . S
C470 O521 1.325 . S
C471 N472 1.279 . S
C471 C474 1.358 . S
C471 H528 0.930 . S
N472 C471 1.279 . S
N472 C475 1.314 . S
C473 C470 1.348 . S
C473 C475 1.353 . S
C473 H529 0.929 . S
C474 C470 1.356 . S
C474 C471 1.358 . S
C474 H530 0.930 . S
C475 N472 1.314 . S
C475 C473 1.353 . S
C475 H531 0.930 . S
C476 N477 1.314 . S
C476 C481 1.353 . S
C476 H482 0.930 . S
N477 Li460 1.990 . S
N477 C476 1.314 . S
N477 C479 1.279 . S
C478 C479 1.358 . S
C478 C480 1.356 . S
C478 H532 0.930 . S
C479 N477 1.279 . S
C479 C478 1.358 . S
C479 H483 0.930 . S
C480 C478 1.356 . S
C480 C481 1.348 . S
C481 C476 1.353 . S
C481 C480 1.348 . S
C481 H533 0.929 . S
H482 C476 0.930 . S
H483 C479 0.930 . S
C484 N485 1.314 . S
C484 C486 1.353 . S
C484 H490 0.930 . S
N485 Li461 1.990 . S
N485 C484 1.314 . S
N485 C488 1.279 . S
C486 C484 1.353 . S
C486 C489 1.348 . S
C486 H534 0.929 . S
C487 C488 1.358 . S
C487 C489 1.356 . S
C487 H535 0.930 . S
C488 N485 1.279 . S
C488 C487 1.358 . S
C488 H491 0.930 . S
C489 C486 1.348 . S
C489 C487 1.356 . S
H490 C484 0.930 . S
H491 C488 0.930 . S
C492 C494 1.348 . S
C492 C495 1.356 . S
C492 O522 1.325 . S
N493 C496 1.314 1_556 S
N493 C497 1.279 1_556 S
C494 C492 1.348 . S
C494 C496 1.353 . S
C494 H536 0.929 . S
C495 C492 1.356 . S
C495 C497 1.358 . S
C495 H537 0.930 . S
C496 N493 1.314 1_554 S
C496 C494 1.353 . S
C496 H538 0.930 1_554 S
C497 N493 1.279 1_554 S
C497 C495 1.358 . S
C497 H539 0.930 1_554 S
C498 C499 1.348 . S
C498 C500 1.356 . S
C498 O523 1.325 . S
C499 C498 1.348 . S
C499 C501 1.353 . S
C499 H540 0.929 . S
C500 C498 1.356 . S
C500 C502 1.358 . S
C500 H541 0.930 . S
C501 C499 1.353 . S
C501 N503 1.314 . S
C501 H542 0.930 . S
C502 C500 1.358 . S
C502 N503 1.279 . S
C502 H543 0.930 . S
N503 C501 1.314 . S
N503 C502 1.279 . S
C504 C506 1.353 . S
C504 N507 1.314 . S
C504 H510 0.930 . S
C505 N507 1.279 . S
C505 C508 1.358 1_554 S
C505 H511 0.930 . S
C506 C504 1.353 . S
C506 C509 1.348 1_554 S
C506 H544 0.929 . S
N507 Li462 1.990 . S
N507 C504 1.314 . S
N507 C505 1.279 . S
C508 C505 1.358 1_556 S
C508 C509 1.356 . S
C508 H545 0.930 . S
C509 C506 1.348 1_556 S
C509 C508 1.356 . S
H510 C504 0.930 . S
H511 C505 0.930 . S
C512 N513 1.314 . S
C512 C514 1.353 . S
C512 H518 0.930 . S
N513 Li463 1.990 . S
N513 C512 1.314 . S
N513 C516 1.279 . S
C514 C512 1.353 . S
C514 C517 1.348 . S
C514 H546 0.929 . S
C515 C516 1.358 . S
C515 C517 1.356 . S
C515 H547 0.930 . S
C516 N513 1.279 . S
C516 C515 1.358 . S
C516 H519 0.930 . S
C517 C514 1.348 . S
C517 C515 1.356 . S
H518 C512 0.930 . S
H519 C516 0.930 . S
O520 Li460 1.956 . S
O520 Li461 1.970 . S
O520 Li462 1.961 . S
O520 C464 1.325 . S
O521 Li460 1.970 . S
O521 Li461 1.956 . S
O521 Li463 1.961 . S
O521 C470 1.325 . S
O522 Li460 1.961 . S
O522 Li462 1.956 . S
O522 Li463 1.970 . S
O522 C492 1.325 . S
O523 Li461 1.961 . S
O523 Li462 1.970 . S
O523 Li463 1.956 . S
O523 C498 1.325 . S
H524 C466 0.929 . S
H525 C467 0.930 . S
H526 C468 0.930 . S
H527 C469 0.930 . S
H528 C471 0.930 . S
H529 C473 0.929 . S
H530 C474 0.930 . S
H531 C475 0.930 . S
H532 C478 0.930 . S
H533 C481 0.929 . S
H534 C486 0.929 . S
H535 C487 0.930 . S
H536 C494 0.929 . S
H537 C495 0.930 . S
H538 C496 0.930 1_556 S
H539 C497 0.930 1_556 S
H540 C499 0.929 . S
H541 C500 0.930 . S
H542 C501 0.930 . S
H543 C502 0.930 . S
H544 C506 0.929 . S
H545 C508 0.930 . S
H546 C514 0.929 . S
H547 C515 0.930 . S
Li548 N565 1.990 . S
Li548 O608 1.956 . S
Li548 O609 1.970 . S
Li548 O610 1.961 . S
Li549 N573 1.990 . S
Li549 O608 1.970 . S
Li549 O609 1.956 . S
Li549 O611 1.961 . S
Li550 N595 1.990 . S
Li550 O608 1.961 . S
Li550 O610 1.956 . S
Li550 O611 1.970 . S
Li551 N601 1.990 . S
Li551 O609 1.961 . S
Li551 O610 1.970 . S
Li551 O611 1.956 . S
C552 C554 1.348 . S
C552 C555 1.356 . S
C552 O608 1.325 . S
N553 C556 1.314 . S
N553 C557 1.279 . S
C554 C552 1.348 . S
C554 C556 1.353 . S
C554 H612 0.929 . S
C555 C552 1.356 . S
C555 C557 1.358 . S
C555 H613 0.930 . S
C556 N553 1.314 . S
C556 C554 1.353 . S
C556 H614 0.930 . S
C557 N553 1.279 . S
C557 C555 1.358 . S
C557 H615 0.930 . S
C558 C561 1.348 . S
C558 C562 1.356 . S
C558 O609 1.325 . S
C559 N560 1.279 . S
C559 C562 1.358 . S
C559 H616 0.930 . S
N560 C559 1.279 . S
N560 C563 1.314 . S
C561 C558 1.348 . S
C561 C563 1.353 . S
C561 H617 0.929 . S
C562 C558 1.356 . S
C562 C559 1.358 . S
C562 H618 0.930 . S
C563 N560 1.314 . S
C563 C561 1.353 . S
C563 H619 0.930 . S
C564 N565 1.314 . S
C564 C569 1.353 . S
C564 H570 0.930 . S
N565 Li548 1.990 . S
N565 C564 1.314 . S
N565 C567 1.279 . S
C566 C567 1.358 . S
C566 C568 1.356 . S
C566 H620 0.930 . S
C567 N565 1.279 . S
C567 C566 1.358 . S
C567 H571 0.930 . S
C568 C566 1.356 . S
C568 C569 1.348 . S
C569 C564 1.353 . S
C569 C568 1.348 . S
C569 H621 0.929 . S
H570 C564 0.930 . S
H571 C567 0.930 . S
C572 N573 1.314 . S
C572 C574 1.353 . S
C572 H578 0.930 . S
N573 Li549 1.990 . S
N573 C572 1.314 . S
N573 C576 1.279 . S
C574 C572 1.353 . S
C574 C577 1.348 . S
C574 H622 0.929 . S
C575 C576 1.358 . S
C575 C577 1.356 . S
C575 H623 0.930 . S
C576 N573 1.279 . S
C576 C575 1.358 . S
C576 H579 0.930 . S
C577 C574 1.348 . S
C577 C575 1.356 . S
H578 C572 0.930 . S
H579 C576 0.930 . S
C580 C582 1.348 . S
C580 C583 1.356 . S
C580 O610 1.325 . S
N581 C584 1.314 . S
N581 C585 1.279 . S
C582 C580 1.348 . S
C582 C584 1.353 . S
C582 H624 0.929 . S
C583 C580 1.356 . S
C583 C585 1.358 . S
C583 H625 0.930 . S
C584 N581 1.314 . S
C584 C582 1.353 . S
C584 H626 0.930 . S
C585 N581 1.279 . S
C585 C583 1.358 . S
C585 H627 0.930 . S
C586 C587 1.348 . S
C586 C588 1.356 . S
C586 O611 1.325 . S
C587 C586 1.348 . S
C587 C589 1.353 . S
C587 H628 0.929 . S
C588 C586 1.356 . S
C588 C590 1.358 . S
C588 H629 0.930 . S
C589 C587 1.353 . S
C589 N591 1.314 . S
C589 H630 0.930 . S
C590 C588 1.358 . S
C590 N591 1.279 . S
C590 H631 0.930 . S
N591 C589 1.314 . S
N591 C590 1.279 . S
C592 C594 1.353 . S
C592 N595 1.314 . S
C592 H598 0.930 . S
C593 N595 1.279 . S
C593 C596 1.358 . S
C593 H599 0.930 . S
C594 C592 1.353 . S
C594 C597 1.348 . S
C594 H632 0.929 . S
N595 Li550 1.990 . S
N595 C592 1.314 . S
N595 C593 1.279 . S
C596 C593 1.358 . S
C596 C597 1.356 . S
C596 H633 0.930 . S
C597 C594 1.348 . S
C597 C596 1.356 . S
H598 C592 0.930 . S
H599 C593 0.930 . S
C600 N601 1.314 . S
C600 C602 1.353 . S
C600 H606 0.930 . S
N601 Li551 1.990 . S
N601 C600 1.314 . S
N601 C604 1.279 . S
C602 C600 1.353 . S
C602 C605 1.348 . S
C602 H634 0.929 . S
C603 C604 1.358 . S
C603 C605 1.356 . S
C603 H635 0.930 . S
C604 N601 1.279 . S
C604 C603 1.358 . S
C604 H607 0.930 . S
C605 C602 1.348 . S
C605 C603 1.356 . S
H606 C600 0.930 . S
H607 C604 0.930 . S
O608 Li548 1.956 . S
O608 Li549 1.970 . S
O608 Li550 1.961 . S
O608 C552 1.325 . S
O609 Li548 1.970 . S
O609 Li549 1.956 . S
O609 Li551 1.961 . S
O609 C558 1.325 . S
O610 Li548 1.961 . S
O610 Li550 1.956 . S
O610 Li551 1.970 . S
O610 C580 1.325 . S
O611 Li549 1.961 . S
O611 Li550 1.970 . S
O611 Li551 1.956 . S
O611 C586 1.325 . S
H612 C554 0.929 . S
H613 C555 0.930 . S
H614 C556 0.930 . S
H615 C557 0.930 . S
H616 C559 0.930 . S
H617 C561 0.929 . S
H618 C562 0.930 . S
H619 C563 0.930 . S
H620 C566 0.930 . S
H621 C569 0.929 . S
H622 C574 0.929 . S
H623 C575 0.930 . S
H624 C582 0.929 . S
H625 C583 0.930 . S
H626 C584 0.930 . S
H627 C585 0.930 . S
H628 C587 0.929 . S
H629 C588 0.930 . S
H630 C589 0.930 . S
H631 C590 0.930 . S
H632 C594 0.929 . S
H633 C596 0.930 . S
H634 C602 0.929 . S
H635 C603 0.930 . S
C636 C637 1.391 . S
C636 C638 1.394 . S
C636 H652 0.931 . S
C637 C636 1.391 . S
C637 C641 1.376 . S
C638 C636 1.394 . S
C638 C639 1.369 . S
C638 C642 1.531 . S
C639 C638 1.369 . S
C639 C640 1.410 . S
C639 C647 1.503 . S
C640 C639 1.410 . S
C640 C641 1.392 . S
C640 C643 1.511 . S
C641 C637 1.376 . S
C641 C640 1.392 . S
C641 H653 0.929 . S
C642 C638 1.531 . S
C642 H654 0.960 . S
C642 H655 0.962 . S
C642 H656 0.960 . S
C643 C640 1.511 . S
C643 H657 0.961 . S
C643 H658 0.961 . S
C643 H659 0.961 . S
C644 C645 1.370 . S
C644 C646 1.363 . S
C644 H660 0.931 . S
C645 C644 1.370 . S
C645 C649 1.408 . S
C646 C644 1.363 . S
C646 C647 1.370 . S
C646 C650 1.524 . S
C647 C639 1.503 . S
C647 C646 1.370 . S
C647 C648 1.403 . S
C648 C647 1.403 . S
C648 C649 1.404 . S
C648 C651 1.539 . S
C649 C645 1.408 . S
C649 C648 1.404 . S
C649 H661 0.930 . S
C650 C646 1.524 . S
C650 H662 0.956 . S
C650 H663 0.961 . S
C650 H664 0.961 . S
C651 C648 1.539 . S
C651 H665 0.958 . S
C651 H666 0.961 . S
C651 H667 0.960 . S
H652 C636 0.931 . S
H653 C641 0.929 . S
H654 C642 0.960 . S
H655 C642 0.962 . S
H656 C642 0.960 . S
H657 C643 0.961 . S
H658 C643 0.961 . S
H659 C643 0.961 . S
H660 C644 0.931 . S
H661 C649 0.930 . S
H662 C650 0.956 . S
H663 C650 0.961 . S
H664 C650 0.961 . S
H665 C651 0.958 . S
H666 C651 0.961 . S
H667 C651 0.960 . S
C668 C669 1.391 . S
C668 C670 1.394 . S
C668 H684 0.931 . S
C669 C668 1.391 . S
C669 C673 1.376 . S
C670 C668 1.394 . S
C670 C671 1.369 . S
C670 C674 1.531 . S
C671 C670 1.369 . S
C671 C672 1.410 . S
C671 C679 1.503 . S
C672 C671 1.410 . S
C672 C673 1.392 . S
C672 C675 1.511 . S
C673 C669 1.376 . S
C673 C672 1.392 . S
C673 H685 0.929 . S
C674 C670 1.531 . S
C674 H686 0.960 . S
C674 H687 0.962 . S
C674 H688 0.960 . S
C675 C672 1.511 . S
C675 H689 0.961 . S
C675 H690 0.961 . S
C675 H691 0.961 . S
C676 C677 1.370 . S
C676 C678 1.363 . S
C676 H692 0.931 . S
C677 C676 1.370 . S
C677 C681 1.408 . S
C678 C676 1.363 . S
C678 C679 1.370 . S
C678 C682 1.524 . S
C679 C671 1.503 . S
C679 C678 1.370 . S
C679 C680 1.403 . S
C680 C679 1.403 . S
C680 C681 1.404 . S
C680 C683 1.539 . S
C681 C677 1.408 . S
C681 C680 1.404 . S
C681 H693 0.930 . S
C682 C678 1.524 . S
C682 H694 0.956 . S
C682 H695 0.961 . S
C682 H696 0.961 . S
C683 C680 1.539 . S
C683 H697 0.958 . S
C683 H698 0.961 . S
C683 H699 0.960 . S
H684 C668 0.931 . S
H685 C673 0.929 . S
H686 C674 0.960 . S
H687 C674 0.962 . S
H688 C674 0.960 . S
H689 C675 0.961 . S
H690 C675 0.961 . S
H691 C675 0.961 . S
H692 C676 0.931 . S
H693 C681 0.930 . S
H694 C682 0.956 . S
H695 C682 0.961 . S
H696 C682 0.961 . S
H697 C683 0.958 . S
H698 C683 0.961 . S
H699 C683 0.960 . S
C700 C701 1.391 . S
C700 C702 1.394 . S
C700 H716 0.931 . S
C701 C700 1.391 . S
C701 C705 1.376 . S
C702 C700 1.394 . S
C702 C703 1.369 . S
C702 C706 1.531 . S
C703 C702 1.369 . S
C703 C704 1.410 . S
C703 C711 1.503 . S
C704 C703 1.410 . S
C704 C705 1.392 . S
C704 C707 1.511 . S
C705 C701 1.376 . S
C705 C704 1.392 . S
C705 H717 0.929 . S
C706 C702 1.531 . S
C706 H718 0.960 . S
C706 H719 0.962 . S
C706 H720 0.960 . S
C707 C704 1.511 . S
C707 H721 0.961 . S
C707 H722 0.961 . S
C707 H723 0.961 . S
C708 C709 1.370 . S
C708 C710 1.363 . S
C708 H724 0.931 . S
C709 C708 1.370 . S
C709 C713 1.408 . S
C710 C708 1.363 . S
C710 C711 1.370 . S
C710 C714 1.524 . S
C711 C703 1.503 . S
C711 C710 1.370 . S
C711 C712 1.403 . S
C712 C711 1.403 . S
C712 C713 1.404 . S
C712 C715 1.539 . S
C713 C709 1.408 . S
C713 C712 1.404 . S
C713 H725 0.930 . S
C714 C710 1.524 . S
C714 H726 0.956 . S
C714 H727 0.961 . S
C714 H728 0.961 . S
C715 C712 1.539 . S
C715 H729 0.958 . S
C715 H730 0.961 . S
C715 H731 0.960 . S
H716 C700 0.931 . S
H717 C705 0.929 . S
H718 C706 0.960 . S
H719 C706 0.962 . S
H720 C706 0.960 . S
H721 C707 0.961 . S
H722 C707 0.961 . S
H723 C707 0.961 . S
H724 C708 0.931 . S
H725 C713 0.930 . S
H726 C714 0.956 . S
H727 C714 0.961 . S
H728 C714 0.961 . S
H729 C715 0.958 . S
H730 C715 0.961 . S
H731 C715 0.960 . S
C732 C733 1.391 . S
C732 C734 1.394 . S
C732 H748 0.931 . S
C733 C732 1.391 . S
C733 C737 1.376 . S
C734 C732 1.394 . S
C734 C735 1.369 . S
C734 C738 1.531 . S
C735 C734 1.369 . S
C735 C736 1.410 . S
C735 C743 1.503 . S
C736 C735 1.410 . S
C736 C737 1.392 . S
C736 C739 1.511 . S
C737 C733 1.376 . S
C737 C736 1.392 . S
C737 H749 0.929 . S
C738 C734 1.531 . S
C738 H750 0.960 . S
C738 H751 0.962 . S
C738 H752 0.960 . S
C739 C736 1.511 . S
C739 H753 0.961 . S
C739 H754 0.961 . S
C739 H755 0.961 . S
C740 C741 1.370 . S
C740 C742 1.363 . S
C740 H756 0.931 . S
C741 C740 1.370 . S
C741 C745 1.408 . S
C742 C740 1.363 . S
C742 C743 1.370 . S
C742 C746 1.524 . S
C743 C735 1.503 . S
C743 C742 1.370 . S
C743 C744 1.403 . S
C744 C743 1.403 . S
C744 C745 1.404 . S
C744 C747 1.539 . S
C745 C741 1.408 . S
C745 C744 1.404 . S
C745 H757 0.930 . S
C746 C742 1.524 . S
C746 H758 0.956 . S
C746 H759 0.961 . S
C746 H760 0.961 . S
C747 C744 1.539 . S
C747 H761 0.958 . S
C747 H762 0.961 . S
C747 H763 0.960 . S
H748 C732 0.931 . S
H749 C737 0.929 . S
H750 C738 0.960 . S
H751 C738 0.962 . S
H752 C738 0.960 . S
H753 C739 0.961 . S
H754 C739 0.961 . S
H755 C739 0.961 . S
H756 C740 0.931 . S
H757 C745 0.930 . S
H758 C746 0.956 . S
H759 C746 0.961 . S
H760 C746 0.961 . S
H761 C747 0.958 . S
H762 C747 0.961 . S
H763 C747 0.960 . S
C764 C765 1.391 . S
C764 C766 1.394 . S
C764 H780 0.931 . S
C765 C764 1.391 . S
C765 C769 1.376 . S
C766 C764 1.394 . S
C766 C767 1.369 . S
C766 C770 1.531 . S
C767 C766 1.369 . S
C767 C768 1.410 . S
C767 C775 1.503 . S
C768 C767 1.410 . S
C768 C769 1.392 . S
C768 C771 1.511 . S
C769 C765 1.376 . S
C769 C768 1.392 . S
C769 H781 0.929 . S
C770 C766 1.531 . S
C770 H782 0.960 . S
C770 H783 0.962 . S
C770 H784 0.960 . S
C771 C768 1.511 . S
C771 H785 0.961 . S
C771 H786 0.961 . S
C771 H787 0.961 . S
C772 C773 1.370 . S
C772 C774 1.363 . S
C772 H788 0.931 . S
C773 C772 1.370 . S
C773 C777 1.408 . S
C774 C772 1.363 . S
C774 C775 1.370 . S
C774 C778 1.524 . S
C775 C767 1.503 . S
C775 C774 1.370 . S
C775 C776 1.403 . S
C776 C775 1.403 . S
C776 C777 1.404 . S
C776 C779 1.539 . S
C777 C773 1.408 . S
C777 C776 1.404 . S
C777 H789 0.930 . S
C778 C774 1.524 . S
C778 H790 0.956 . S
C778 H791 0.961 . S
C778 H792 0.961 . S
C779 C776 1.539 . S
C779 H793 0.958 . S
C779 H794 0.961 . S
C779 H795 0.960 . S
H780 C764 0.931 . S
H781 C769 0.929 . S
H782 C770 0.960 . S
H783 C770 0.962 . S
H784 C770 0.960 . S
H785 C771 0.961 . S
H786 C771 0.961 . S
H787 C771 0.961 . S
H788 C772 0.931 . S
H789 C777 0.930 . S
H790 C778 0.956 . S
H791 C778 0.961 . S
H792 C778 0.961 . S
H793 C779 0.958 . S
H794 C779 0.961 . S
H795 C779 0.960 . S
C796 C797 1.391 . S
C796 C798 1.394 . S
C796 H812 0.931 . S
C797 C796 1.391 . S
C797 C801 1.376 . S
C798 C796 1.394 . S
C798 C799 1.369 . S
C798 C802 1.531 . S
C799 C798 1.369 . S
C799 C800 1.410 . S
C799 C807 1.503 . S
C800 C799 1.410 . S
C800 C801 1.392 . S
C800 C803 1.511 . S
C801 C797 1.376 . S
C801 C800 1.392 . S
C801 H813 0.929 . S
C802 C798 1.531 . S
C802 H814 0.960 . S
C802 H815 0.962 . S
C802 H816 0.960 . S
C803 C800 1.511 . S
C803 H817 0.961 . S
C803 H818 0.961 . S
C803 H819 0.961 . S
C804 C805 1.370 . S
C804 C806 1.363 . S
C804 H820 0.931 . S
C805 C804 1.370 . S
C805 C809 1.408 . S
C806 C804 1.363 . S
C806 C807 1.370 . S
C806 C810 1.524 . S
C807 C799 1.503 . S
C807 C806 1.370 . S
C807 C808 1.403 . S
C808 C807 1.403 . S
C808 C809 1.404 . S
C808 C811 1.539 . S
C809 C805 1.408 . S
C809 C808 1.404 . S
C809 H821 0.930 . S
C810 C806 1.524 . S
C810 H822 0.956 . S
C810 H823 0.961 . S
C810 H824 0.961 . S
C811 C808 1.539 . S
C811 H825 0.958 . S
C811 H826 0.961 . S
C811 H827 0.960 . S
H812 C796 0.931 . S
H813 C801 0.929 . S
H814 C802 0.960 . S
H815 C802 0.962 . S
H816 C802 0.960 . S
H817 C803 0.961 . S
H818 C803 0.961 . S
H819 C803 0.961 . S
H820 C804 0.931 . S
H821 C809 0.930 . S
H822 C810 0.956 . S
H823 C810 0.961 . S
H824 C810 0.961 . S
H825 C811 0.958 . S
H826 C811 0.961 . S
H827 C811 0.960 . S
C828 C829 1.391 . S
C828 C830 1.394 . S
C828 H844 0.931 . S
C829 C828 1.391 . S
C829 C833 1.376 . S
C830 C828 1.394 . S
C830 C831 1.369 . S
C830 C834 1.531 . S
C831 C830 1.369 . S
C831 C832 1.410 . S
C831 C839 1.503 . S
C832 C831 1.410 . S
C832 C833 1.392 . S
C832 C835 1.511 . S
C833 C829 1.376 . S
C833 C832 1.392 . S
C833 H845 0.929 . S
C834 C830 1.531 . S
C834 H846 0.960 . S
C834 H847 0.962 . S
C834 H848 0.960 . S
C835 C832 1.511 . S
C835 H849 0.961 . S
C835 H850 0.961 . S
C835 H851 0.961 . S
C836 C837 1.370 . S
C836 C838 1.363 . S
C836 H852 0.931 . S
C837 C836 1.370 . S
C837 C841 1.408 . S
C838 C836 1.363 . S
C838 C839 1.370 . S
C838 C842 1.524 . S
C839 C831 1.503 . S
C839 C838 1.370 . S
C839 C840 1.403 . S
C840 C839 1.403 . S
C840 C841 1.404 . S
C840 C843 1.539 . S
C841 C837 1.408 . S
C841 C840 1.404 . S
C841 H853 0.930 . S
C842 C838 1.524 . S
C842 H854 0.956 . S
C842 H855 0.961 . S
C842 H856 0.961 . S
C843 C840 1.539 . S
C843 H857 0.958 . S
C843 H858 0.961 . S
C843 H859 0.960 . S
H844 C828 0.931 . S
H845 C833 0.929 . S
H846 C834 0.960 . S
H847 C834 0.962 . S
H848 C834 0.960 . S
H849 C835 0.961 . S
H850 C835 0.961 . S
H851 C835 0.961 . S
H852 C836 0.931 . S
H853 C841 0.930 . S
H854 C842 0.956 . S
H855 C842 0.961 . S
H856 C842 0.961 . S
H857 C843 0.958 . S
H858 C843 0.961 . S
H859 C843 0.960 . S
C860 C861 1.391 . S
C860 C862 1.394 . S
C860 H876 0.931 . S
C861 C860 1.391 . S
C861 C865 1.376 . S
C862 C860 1.394 . S
C862 C863 1.369 . S
C862 C866 1.531 . S
C863 C862 1.369 . S
C863 C864 1.410 . S
C863 C871 1.503 . S
C864 C863 1.410 . S
C864 C865 1.392 . S
C864 C867 1.511 . S
C865 C861 1.376 . S
C865 C864 1.392 . S
C865 H877 0.929 . S
C866 C862 1.531 . S
C866 H878 0.960 . S
C866 H879 0.962 . S
C866 H880 0.960 . S
C867 C864 1.511 . S
C867 H881 0.961 . S
C867 H882 0.961 . S
C867 H883 0.961 . S
C868 C869 1.370 . S
C868 C870 1.363 . S
C868 H884 0.931 . S
C869 C868 1.370 . S
C869 C873 1.408 . S
C870 C868 1.363 . S
C870 C871 1.370 . S
C870 C874 1.524 . S
C871 C863 1.503 . S
C871 C870 1.370 . S
C871 C872 1.403 . S
C872 C871 1.403 . S
C872 C873 1.404 . S
C872 C875 1.539 . S
C873 C869 1.408 . S
C873 C872 1.404 . S
C873 H885 0.930 . S
C874 C870 1.524 . S
C874 H886 0.956 . S
C874 H887 0.961 . S
C874 H888 0.961 . S
C875 C872 1.539 . S
C875 H889 0.958 . S
C875 H890 0.961 . S
C875 H891 0.960 . S
H876 C860 0.931 . S
H877 C865 0.929 . S
H878 C866 0.960 . S
H879 C866 0.962 . S
H880 C866 0.960 . S
H881 C867 0.961 . S
H882 C867 0.961 . S
H883 C867 0.961 . S
H884 C868 0.931 . S
H885 C873 0.930 . S
H886 C874 0.956 . S
H887 C874 0.961 . S
H888 C874 0.961 . S
H889 C875 0.958 . S
H890 C875 0.961 . S
H891 C875 0.960 . S
C892 C893 1.391 . S
C892 C894 1.394 . S
C892 H908 0.931 . S
C893 C892 1.391 . S
C893 C897 1.376 . S
C894 C892 1.394 . S
C894 C895 1.369 . S
C894 C898 1.531 . S
C895 C894 1.369 . S
C895 C896 1.410 . S
C895 C903 1.503 . S
C896 C895 1.410 . S
C896 C897 1.392 . S
C896 C899 1.511 . S
C897 C893 1.376 . S
C897 C896 1.392 . S
C897 H909 0.929 . S
C898 C894 1.531 . S
C898 H910 0.960 . S
C898 H911 0.962 . S
C898 H912 0.960 . S
C899 C896 1.511 . S
C899 H913 0.961 . S
C899 H914 0.961 . S
C899 H915 0.961 . S
C900 C901 1.370 . S
C900 C902 1.363 . S
C900 H916 0.931 . S
C901 C900 1.370 . S
C901 C905 1.408 . S
C902 C900 1.363 . S
C902 C903 1.370 . S
C902 C906 1.524 . S
C903 C895 1.503 . S
C903 C902 1.370 . S
C903 C904 1.403 . S
C904 C903 1.403 . S
C904 C905 1.404 . S
C904 C907 1.539 . S
C905 C901 1.408 . S
C905 C904 1.404 . S
C905 H917 0.930 . S
C906 C902 1.524 . S
C906 H918 0.956 . S
C906 H919 0.961 . S
C906 H920 0.961 . S
C907 C904 1.539 . S
C907 H921 0.958 . S
C907 H922 0.961 . S
C907 H923 0.960 . S
H908 C892 0.931 . S
H909 C897 0.929 . S
H910 C898 0.960 . S
H911 C898 0.962 . S
H912 C898 0.960 . S
H913 C899 0.961 . S
H914 C899 0.961 . S
H915 C899 0.961 . S
H916 C900 0.931 . S
H917 C905 0.930 . S
H918 C906 0.956 . S
H919 C906 0.961 . S
H920 C906 0.961 . S
H921 C907 0.958 . S
H922 C907 0.961 . S
H923 C907 0.960 . S
C924 C925 1.391 . S
C924 C926 1.394 . S
C924 H940 0.931 . S
C925 C924 1.391 . S
C925 C929 1.376 . S
C926 C924 1.394 . S
C926 C927 1.369 . S
C926 C930 1.531 . S
C927 C926 1.369 . S
C927 C928 1.410 . S
C927 C935 1.503 . S
C928 C927 1.410 . S
C928 C929 1.392 . S
C928 C931 1.511 . S
C929 C925 1.376 . S
C929 C928 1.392 . S
C929 H941 0.929 . S
C930 C926 1.531 . S
C930 H942 0.960 . S
C930 H943 0.962 . S
C930 H944 0.960 . S
C931 C928 1.511 . S
C931 H945 0.961 . S
C931 H946 0.961 . S
C931 H947 0.961 . S
C932 C933 1.370 . S
C932 C934 1.363 . S
C932 H948 0.931 . S
C933 C932 1.370 . S
C933 C937 1.408 . S
C934 C932 1.363 . S
C934 C935 1.370 . S
C934 C938 1.524 . S
C935 C927 1.503 . S
C935 C934 1.370 . S
C935 C936 1.403 . S
C936 C935 1.403 . S
C936 C937 1.404 . S
C936 C939 1.539 1_554 S
C937 C933 1.408 . S
C937 C936 1.404 . S
C937 H949 0.930 . S
C938 C934 1.524 . S
C938 H950 0.956 . S
C938 H951 0.961 . S
C938 H952 0.961 . S
C939 C936 1.539 1_556 S
C939 H953 0.958 . S
C939 H954 0.961 . S
C939 H955 0.960 . S
H940 C924 0.931 . S
H941 C929 0.929 . S
H942 C930 0.960 . S
H943 C930 0.962 . S
H944 C930 0.960 . S
H945 C931 0.961 . S
H946 C931 0.961 . S
H947 C931 0.961 . S
H948 C932 0.931 . S
H949 C937 0.930 . S
H950 C938 0.956 . S
H951 C938 0.961 . S
H952 C938 0.961 . S
H953 C939 0.958 . S
H954 C939 0.961 . S
H955 C939 0.960 . S
C956 C957 1.391 . S
C956 C958 1.394 . S
C956 H972 0.931 . S
C957 C956 1.391 . S
C957 C961 1.376 . S
C958 C956 1.394 . S
C958 C959 1.369 . S
C958 C962 1.531 . S
C959 C958 1.369 . S
C959 C960 1.410 . S
C959 C967 1.503 . S
C960 C959 1.410 . S
C960 C961 1.392 . S
C960 C963 1.511 . S
C961 C957 1.376 . S
C961 C960 1.392 . S
C961 H973 0.929 . S
C962 C958 1.531 . S
C962 H974 0.960 . S
C962 H975 0.962 . S
C962 H976 0.960 . S
C963 C960 1.511 . S
C963 H977 0.961 . S
C963 H978 0.961 . S
C963 H979 0.961 . S
C964 C965 1.370 . S
C964 C966 1.363 . S
C964 H980 0.931 . S
C965 C964 1.370 . S
C965 C969 1.408 . S
C966 C964 1.363 . S
C966 C967 1.370 . S
C966 C970 1.524 . S
C967 C959 1.503 . S
C967 C966 1.370 . S
C967 C968 1.403 . S
C968 C967 1.403 . S
C968 C969 1.404 . S
C968 C971 1.539 . S
C969 C965 1.408 . S
C969 C968 1.404 . S
C969 H981 0.930 . S
C970 C966 1.524 . S
C970 H982 0.956 . S
C970 H983 0.961 . S
C970 H984 0.961 . S
C971 C968 1.539 . S
C971 H985 0.958 . S
C971 H986 0.961 . S
C971 H987 0.960 . S
H972 C956 0.931 . S
H973 C961 0.929 . S
H974 C962 0.960 . S
H975 C962 0.962 . S
H976 C962 0.960 . S
H977 C963 0.961 . S
H978 C963 0.961 . S
H979 C963 0.961 . S
H980 C964 0.931 . S
H981 C969 0.930 . S
H982 C970 0.956 . S
H983 C970 0.961 . S
H984 C970 0.961 . S
H985 C971 0.958 . S
H986 C971 0.961 . S
H987 C971 0.960 . S
C988 C989 1.391 . S
C988 C990 1.394 . S
C988 H1004 0.931 . S
C989 C988 1.391 . S
C989 C993 1.376 . S
C990 C988 1.394 . S
C990 C991 1.369 . S
C990 C994 1.531 . S
C991 C990 1.369 . S
C991 C992 1.410 . S
C991 C999 1.503 . S
C992 C991 1.410 . S
C992 C993 1.392 . S
C992 C995 1.511 . S
C993 C989 1.376 . S
C993 C992 1.392 . S
C993 H1005 0.929 . S
C994 C990 1.531 . S
C994 H1006 0.960 . S
C994 H1007 0.962 . S
C994 H1008 0.960 . S
C995 C992 1.511 . S
C995 H1009 0.961 . S
C995 H1010 0.961 . S
C995 H1011 0.961 . S
C996 C997 1.370 . S
C996 C998 1.363 . S
C996 H1012 0.931 . S
C997 C996 1.370 . S
C997 C1001 1.408 . S
C998 C996 1.363 . S
C998 C999 1.370 . S
C998 C1002 1.524 . S
C999 C991 1.503 . S
C999 C998 1.370 . S
C999 C1000 1.403 . S
C1000 C999 1.403 . S
C1000 C1001 1.404 . S
C1000 C1003 1.539 . S
C1001 C997 1.408 . S
C1001 C1000 1.404 . S
C1001 H1013 0.930 . S
C1002 C998 1.524 . S
C1002 H1014 0.956 . S
C1002 H1015 0.961 . S
C1002 H1016 0.961 . S
C1003 C1000 1.539 . S
C1003 H1017 0.958 . S
C1003 H1018 0.961 . S
C1003 H1019 0.960 . S
H1004 C988 0.931 . S
H1005 C993 0.929 . S
H1006 C994 0.960 . S
H1007 C994 0.962 . S
H1008 C994 0.960 . S
H1009 C995 0.961 . S
H1010 C995 0.961 . S
H1011 C995 0.961 . S
H1012 C996 0.931 . S
H1013 C1001 0.930 . S
H1014 C1002 0.956 . S
H1015 C1002 0.961 . S
H1016 C1002 0.961 . S
H1017 C1003 0.958 . S
H1018 C1003 0.961 . S
H1019 C1003 0.960 . S
C1020 C1021 1.391 . S
C1020 C1022 1.394 . S
C1020 H1036 0.931 . S
C1021 C1020 1.391 . S
C1021 C1025 1.376 . S
C1022 C1020 1.394 . S
C1022 C1023 1.369 . S
C1022 C1026 1.531 . S
C1023 C1022 1.369 . S
C1023 C1024 1.410 . S
C1023 C1031 1.503 . S
C1024 C1023 1.410 . S
C1024 C1025 1.392 . S
C1024 C1027 1.511 . S
C1025 C1021 1.376 . S
C1025 C1024 1.392 . S
C1025 H1037 0.929 . S
C1026 C1022 1.531 . S
C1026 H1038 0.960 . S
C1026 H1039 0.962 . S
C1026 H1040 0.960 . S
C1027 C1024 1.511 . S
C1027 H1041 0.961 . S
C1027 H1042 0.961 . S
C1027 H1043 0.961 . S
C1028 C1029 1.370 . S
C1028 C1030 1.363 . S
C1028 H1044 0.931 . S
C1029 C1028 1.370 . S
C1029 C1033 1.408 . S
C1030 C1028 1.363 . S
C1030 C1031 1.370 . S
C1030 C1034 1.524 . S
C1031 C1023 1.503 . S
C1031 C1030 1.370 . S
C1031 C1032 1.403 . S
C1032 C1031 1.403 . S
C1032 C1033 1.404 . S
C1032 C1035 1.539 . S
C1033 C1029 1.408 . S
C1033 C1032 1.404 . S
C1033 H1045 0.930 . S
C1034 C1030 1.524 . S
C1034 H1046 0.956 . S
C1034 H1047 0.961 . S
C1034 H1048 0.961 . S
C1035 C1032 1.539 . S
C1035 H1049 0.958 . S
C1035 H1050 0.961 . S
C1035 H1051 0.960 . S
H1036 C1020 0.931 . S
H1037 C1025 0.929 . S
H1038 C1026 0.960 . S
H1039 C1026 0.962 . S
H1040 C1026 0.960 . S
H1041 C1027 0.961 . S
H1042 C1027 0.961 . S
H1043 C1027 0.961 . S
H1044 C1028 0.931 . S
H1045 C1033 0.930 . S
H1046 C1034 0.956 . S
H1047 C1034 0.961 . S
H1048 C1034 0.961 . S
H1049 C1035 0.958 . S
H1050 C1035 0.961 . S
H1051 C1035 0.960 . S
C1052 C1053 1.391 . S
C1052 C1054 1.394 . S
C1052 H1068 0.931 . S
C1053 C1052 1.391 . S
C1053 C1057 1.376 . S
C1054 C1052 1.394 . S
C1054 C1055 1.369 . S
C1054 C1058 1.531 . S
C1055 C1054 1.369 . S
C1055 C1056 1.410 . S
C1055 C1063 1.503 . S
C1056 C1055 1.410 . S
C1056 C1057 1.392 . S
C1056 C1059 1.511 . S
C1057 C1053 1.376 . S
C1057 C1056 1.392 . S
C1057 H1069 0.929 . S
C1058 C1054 1.531 . S
C1058 H1070 0.960 . S
C1058 H1071 0.962 . S
C1058 H1072 0.960 . S
C1059 C1056 1.511 . S
C1059 H1073 0.961 . S
C1059 H1074 0.961 . S
C1059 H1075 0.961 . S
C1060 C1061 1.370 . S
C1060 C1062 1.363 . S
C1060 H1076 0.931 . S
C1061 C1060 1.370 . S
C1061 C1065 1.408 . S
C1062 C1060 1.363 . S
C1062 C1063 1.370 . S
C1062 C1066 1.524 . S
C1063 C1055 1.503 . S
C1063 C1062 1.370 . S
C1063 C1064 1.403 . S
C1064 C1063 1.403 . S
C1064 C1065 1.404 . S
C1064 C1067 1.539 . S
C1065 C1061 1.408 . S
C1065 C1064 1.404 . S
C1065 H1077 0.930 . S
C1066 C1062 1.524 . S
C1066 H1078 0.956 . S
C1066 H1079 0.961 . S
C1066 H1080 0.961 . S
C1067 C1064 1.539 . S
C1067 H1081 0.958 . S
C1067 H1082 0.961 . S
C1067 H1083 0.960 . S
H1068 C1052 0.931 . S
H1069 C1057 0.929 . S
H1070 C1058 0.960 . S
H1071 C1058 0.962 . S
H1072 C1058 0.960 . S
H1073 C1059 0.961 . S
H1074 C1059 0.961 . S
H1075 C1059 0.961 . S
H1076 C1060 0.931 . S
H1077 C1065 0.930 . S
H1078 C1066 0.956 . S
H1079 C1066 0.961 . S
H1080 C1066 0.961 . S
H1081 C1067 0.958 . S
H1082 C1067 0.961 . S
H1083 C1067 0.960 . S
C1084 C1085 1.391 . S
C1084 C1086 1.394 . S
C1084 H1100 0.931 . S
C1085 C1084 1.391 . S
C1085 C1089 1.376 . S
C1086 C1084 1.394 . S
C1086 C1087 1.369 . S
C1086 C1090 1.531 . S
C1087 C1086 1.369 . S
C1087 C1088 1.410 . S
C1087 C1095 1.503 . S
C1088 C1087 1.410 . S
C1088 C1089 1.392 . S
C1088 C1091 1.511 . S
C1089 C1085 1.376 . S
C1089 C1088 1.392 . S
C1089 H1101 0.929 . S
C1090 C1086 1.531 . S
C1090 H1102 0.960 . S
C1090 H1103 0.962 . S
C1090 H1104 0.960 . S
C1091 C1088 1.511 . S
C1091 H1105 0.961 . S
C1091 H1106 0.961 . S
C1091 H1107 0.961 . S
C1092 C1093 1.370 . S
C1092 C1094 1.363 . S
C1092 H1108 0.931 . S
C1093 C1092 1.370 . S
C1093 C1097 1.408 . S
C1094 C1092 1.363 . S
C1094 C1095 1.370 . S
C1094 C1098 1.524 . S
C1095 C1087 1.503 . S
C1095 C1094 1.370 . S
C1095 C1096 1.403 . S
C1096 C1095 1.403 . S
C1096 C1097 1.404 . S
C1096 C1099 1.539 . S
C1097 C1093 1.408 . S
C1097 C1096 1.404 . S
C1097 H1109 0.930 . S
C1098 C1094 1.524 . S
C1098 H1110 0.956 . S
C1098 H1111 0.961 . S
C1098 H1112 0.961 . S
C1099 C1096 1.539 . S
C1099 H1113 0.958 . S
C1099 H1114 0.961 . S
C1099 H1115 0.960 . S
H1100 C1084 0.931 . S
H1101 C1089 0.929 . S
H1102 C1090 0.960 . S
H1103 C1090 0.962 . S
H1104 C1090 0.960 . S
H1105 C1091 0.961 . S
H1106 C1091 0.961 . S
H1107 C1091 0.961 . S
H1108 C1092 0.931 . S
H1109 C1097 0.930 . S
H1110 C1098 0.956 . S
H1111 C1098 0.961 . S
H1112 C1098 0.961 . S
H1113 C1099 0.958 . S
H1114 C1099 0.961 . S
H1115 C1099 0.960 . S
C1116 C1117 1.391 . S
C1116 C1118 1.394 . S
C1116 H1132 0.931 . S
C1117 C1116 1.391 . S
C1117 C1121 1.376 . S
C1118 C1116 1.394 . S
C1118 C1119 1.369 . S
C1118 C1122 1.531 . S
C1119 C1118 1.369 . S
C1119 C1120 1.410 . S
C1119 C1127 1.503 . S
C1120 C1119 1.410 . S
C1120 C1121 1.392 . S
C1120 C1123 1.511 . S
C1121 C1117 1.376 . S
C1121 C1120 1.392 . S
C1121 H1133 0.929 . S
C1122 C1118 1.531 . S
C1122 H1134 0.960 . S
C1122 H1135 0.962 . S
C1122 H1136 0.960 . S
C1123 C1120 1.511 . S
C1123 H1137 0.961 . S
C1123 H1138 0.961 . S
C1123 H1139 0.961 . S
C1124 C1125 1.370 . S
C1124 C1126 1.363 . S
C1124 H1140 0.931 . S
C1125 C1124 1.370 . S
C1125 C1129 1.408 . S
C1126 C1124 1.363 . S
C1126 C1127 1.370 . S
C1126 C1130 1.524 . S
C1127 C1119 1.503 . S
C1127 C1126 1.370 . S
C1127 C1128 1.403 . S
C1128 C1127 1.403 . S
C1128 C1129 1.404 . S
C1128 C1131 1.539 . S
C1129 C1125 1.408 . S
C1129 C1128 1.404 . S
C1129 H1141 0.930 . S
C1130 C1126 1.524 . S
C1130 H1142 0.956 . S
C1130 H1143 0.961 . S
C1130 H1144 0.961 . S
C1131 C1128 1.539 . S
C1131 H1145 0.958 . S
C1131 H1146 0.961 . S
C1131 H1147 0.960 . S
H1132 C1116 0.931 . S
H1133 C1121 0.929 . S
H1134 C1122 0.960 . S
H1135 C1122 0.962 . S
H1136 C1122 0.960 . S
H1137 C1123 0.961 . S
H1138 C1123 0.961 . S
H1139 C1123 0.961 . S
H1140 C1124 0.931 . S
H1141 C1129 0.930 . S
H1142 C1130 0.956 . S
H1143 C1130 0.961 . S
H1144 C1130 0.961 . S
H1145 C1131 0.958 . S
H1146 C1131 0.961 . S
H1147 C1131 0.960 . S
C1148 C1149 1.391 . S
C1148 C1150 1.394 . S
C1148 H1164 0.931 . S
C1149 C1148 1.391 . S
C1149 C1153 1.376 . S
C1150 C1148 1.394 . S
C1150 C1151 1.369 . S
C1150 C1154 1.531 . S
C1151 C1150 1.369 . S
C1151 C1152 1.410 . S
C1151 C1159 1.503 . S
C1152 C1151 1.410 . S
C1152 C1153 1.392 . S
C1152 C1155 1.511 . S
C1153 C1149 1.376 . S
C1153 C1152 1.392 . S
C1153 H1165 0.929 . S
C1154 C1150 1.531 . S
C1154 H1166 0.960 . S
C1154 H1167 0.962 . S
C1154 H1168 0.960 . S
C1155 C1152 1.511 . S
C1155 H1169 0.961 . S
C1155 H1170 0.961 . S
C1155 H1171 0.961 . S
C1156 C1157 1.370 . S
C1156 C1158 1.363 . S
C1156 H1172 0.931 . S
C1157 C1156 1.370 . S
C1157 C1161 1.408 . S
C1158 C1156 1.363 . S
C1158 C1159 1.370 . S
C1158 C1162 1.524 . S
C1159 C1151 1.503 . S
C1159 C1158 1.370 . S
C1159 C1160 1.403 . S
C1160 C1159 1.403 . S
C1160 C1161 1.404 . S
C1160 C1163 1.539 . S
C1161 C1157 1.408 . S
C1161 C1160 1.404 . S
C1161 H1173 0.930 . S
C1162 C1158 1.524 . S
C1162 H1174 0.956 . S
C1162 H1175 0.961 . S
C1162 H1176 0.961 . S
C1163 C1160 1.539 . S
C1163 H1177 0.958 . S
C1163 H1178 0.961 . S
C1163 H1179 0.960 . S
H1164 C1148 0.931 . S
H1165 C1153 0.929 . S
H1166 C1154 0.960 . S
H1167 C1154 0.962 . S
H1168 C1154 0.960 . S
H1169 C1155 0.961 . S
H1170 C1155 0.961 . S
H1171 C1155 0.961 . S
H1172 C1156 0.931 . S
H1173 C1161 0.930 . S
H1174 C1162 0.956 . S
H1175 C1162 0.961 . S
H1176 C1162 0.961 . S
H1177 C1163 0.958 . S
H1178 C1163 0.961 . S
H1179 C1163 0.960 . S
C1180 C1181 1.391 . S
C1180 C1182 1.394 . S
C1180 H1196 0.931 . S
C1181 C1180 1.391 . S
C1181 C1185 1.376 . S
C1182 C1180 1.394 . S
C1182 C1183 1.369 . S
C1182 C1186 1.531 . S
C1183 C1182 1.369 . S
C1183 C1184 1.410 . S
C1183 C1191 1.503 . S
C1184 C1183 1.410 . S
C1184 C1185 1.392 . S
C1184 C1187 1.511 . S
C1185 C1181 1.376 . S
C1185 C1184 1.392 . S
C1185 H1197 0.929 . S
C1186 C1182 1.531 . S
C1186 H1198 0.960 . S
C1186 H1199 0.962 . S
C1186 H1200 0.960 . S
C1187 C1184 1.511 . S
C1187 H1201 0.961 . S
C1187 H1202 0.961 . S
C1187 H1203 0.961 . S
C1188 C1189 1.370 . S
C1188 C1190 1.363 . S
C1188 H1204 0.931 . S
C1189 C1188 1.370 . S
C1189 C1193 1.408 . S
C1190 C1188 1.363 . S
C1190 C1191 1.370 . S
C1190 C1194 1.524 . S
C1191 C1183 1.503 . S
C1191 C1190 1.370 . S
C1191 C1192 1.403 . S
C1192 C1191 1.403 . S
C1192 C1193 1.404 . S
C1192 C1195 1.539 . S
C1193 C1189 1.408 . S
C1193 C1192 1.404 . S
C1193 H1205 0.930 . S
C1194 C1190 1.524 . S
C1194 H1206 0.956 . S
C1194 H1207 0.961 . S
C1194 H1208 0.961 . S
C1195 C1192 1.539 . S
C1195 H1209 0.958 . S
C1195 H1210 0.961 . S
C1195 H1211 0.960 . S
H1196 C1180 0.931 . S
H1197 C1185 0.929 . S
H1198 C1186 0.960 . S
H1199 C1186 0.962 . S
H1200 C1186 0.960 . S
H1201 C1187 0.961 . S
H1202 C1187 0.961 . S
H1203 C1187 0.961 . S
H1204 C1188 0.931 . S
H1205 C1193 0.930 . S
H1206 C1194 0.956 . S
H1207 C1194 0.961 . S
H1208 C1194 0.961 . S
H1209 C1195 0.958 . S
H1210 C1195 0.961 . S
H1211 C1195 0.960 . S
C1212 C1213 1.391 . S
C1212 C1214 1.394 . S
C1212 H1228 0.931 . S
C1213 C1212 1.391 . S
C1213 C1217 1.376 . S
C1214 C1212 1.394 . S
C1214 C1215 1.369 . S
C1214 C1218 1.531 . S
C1215 C1214 1.369 . S
C1215 C1216 1.410 . S
C1215 C1223 1.503 . S
C1216 C1215 1.410 . S
C1216 C1217 1.392 . S
C1216 C1219 1.511 . S
C1217 C1213 1.376 . S
C1217 C1216 1.392 . S
C1217 H1229 0.929 . S
C1218 C1214 1.531 . S
C1218 H1230 0.960 . S
C1218 H1231 0.962 . S
C1218 H1232 0.960 . S
C1219 C1216 1.511 . S
C1219 H1233 0.961 . S
C1219 H1234 0.961 . S
C1219 H1235 0.961 . S
C1220 C1221 1.370 . S
C1220 C1222 1.363 . S
C1220 H1236 0.931 . S
C1221 C1220 1.370 . S
C1221 C1225 1.408 . S
C1222 C1220 1.363 . S
C1222 C1223 1.370 . S
C1222 C1226 1.524 . S
C1223 C1215 1.503 . S
C1223 C1222 1.370 . S
C1223 C1224 1.403 . S
C1224 C1223 1.403 . S
C1224 C1225 1.404 . S
C1224 C1227 1.539 . S
C1225 C1221 1.408 . S
C1225 C1224 1.404 . S
C1225 H1237 0.930 . S
C1226 C1222 1.524 . S
C1226 H1238 0.956 . S
C1226 H1239 0.961 . S
C1226 H1240 0.961 . S
C1227 C1224 1.539 . S
C1227 H1241 0.958 . S
C1227 H1242 0.961 . S
C1227 H1243 0.960 . S
H1228 C1212 0.931 . S
H1229 C1217 0.929 . S
H1230 C1218 0.960 . S
H1231 C1218 0.962 . S
H1232 C1218 0.960 . S
H1233 C1219 0.961 . S
H1234 C1219 0.961 . S
H1235 C1219 0.961 . S
H1236 C1220 0.931 . S
H1237 C1225 0.930 . S
H1238 C1226 0.956 . S
H1239 C1226 0.961 . S
H1240 C1226 0.961 . S
H1241 C1227 0.958 . S
H1242 C1227 0.961 . S
H1243 C1227 0.960 . S
C1244 C1245 1.391 . S
C1244 C1246 1.394 . S
C1244 H1260 0.931 . S
C1245 C1244 1.391 . S
C1245 C1249 1.376 . S
C1246 C1244 1.394 . S
C1246 C1247 1.369 . S
C1246 C1250 1.531 . S
C1247 C1246 1.369 . S
C1247 C1248 1.410 . S
C1247 C1255 1.503 . S
C1248 C1247 1.410 . S
C1248 C1249 1.392 . S
C1248 C1251 1.511 . S
C1249 C1245 1.376 . S
C1249 C1248 1.392 . S
C1249 H1261 0.929 . S
C1250 C1246 1.531 . S
C1250 H1262 0.960 . S
C1250 H1263 0.962 . S
C1250 H1264 0.960 . S
C1251 C1248 1.511 . S
C1251 H1265 0.961 . S
C1251 H1266 0.961 . S
C1251 H1267 0.961 . S
C1252 C1253 1.370 . S
C1252 C1254 1.363 . S
C1252 H1268 0.931 . S
C1253 C1252 1.370 . S
C1253 C1257 1.408 . S
C1254 C1252 1.363 . S
C1254 C1255 1.370 . S
C1254 C1258 1.524 . S
C1255 C1247 1.503 . S
C1255 C1254 1.370 . S
C1255 C1256 1.403 . S
C1256 C1255 1.403 . S
C1256 C1257 1.404 . S
C1256 C1259 1.539 . S
C1257 C1253 1.408 . S
C1257 C1256 1.404 . S
C1257 H1269 0.930 . S
C1258 C1254 1.524 . S
C1258 H1270 0.956 . S
C1258 H1271 0.961 . S
C1258 H1272 0.961 . S
C1259 C1256 1.539 . S
C1259 H1273 0.958 . S
C1259 H1274 0.961 . S
C1259 H1275 0.960 . S
H1260 C1244 0.931 . S
H1261 C1249 0.929 . S
H1262 C1250 0.960 . S
H1263 C1250 0.962 . S
H1264 C1250 0.960 . S
H1265 C1251 0.961 . S
H1266 C1251 0.961 . S
H1267 C1251 0.961 . S
H1268 C1252 0.931 . S
H1269 C1257 0.930 . S
H1270 C1258 0.956 . S
H1271 C1258 0.961 . S
H1272 C1258 0.961 . S
H1273 C1259 0.958 . S
H1274 C1259 0.961 . S
H1275 C1259 0.960 . S
C1276 C1277 1.391 . S
C1276 C1278 1.394 . S
C1276 H1292 0.931 . S
C1277 C1276 1.391 . S
C1277 C1281 1.376 . S
C1278 C1276 1.394 . S
C1278 C1279 1.369 . S
C1278 C1282 1.531 . S
C1279 C1278 1.369 . S
C1279 C1280 1.410 . S
C1279 C1287 1.503 . S
C1280 C1279 1.410 . S
C1280 C1281 1.392 . S
C1280 C1283 1.511 . S
C1281 C1277 1.376 . S
C1281 C1280 1.392 . S
C1281 H1293 0.929 . S
C1282 C1278 1.531 . S
C1282 H1294 0.960 . S
C1282 H1295 0.962 . S
C1282 H1296 0.960 . S
C1283 C1280 1.511 . S
C1283 H1297 0.961 . S
C1283 H1298 0.961 . S
C1283 H1299 0.961 . S
C1284 C1285 1.370 . S
C1284 C1286 1.363 . S
C1284 H1300 0.931 . S
C1285 C1284 1.370 . S
C1285 C1289 1.408 . S
C1286 C1284 1.363 . S
C1286 C1287 1.370 . S
C1286 C1290 1.524 . S
C1287 C1279 1.503 . S
C1287 C1286 1.370 . S
C1287 C1288 1.403 . S
C1288 C1287 1.403 . S
C1288 C1289 1.404 . S
C1288 C1291 1.539 . S
C1289 C1285 1.408 . S
C1289 C1288 1.404 . S
C1289 H1301 0.930 . S
C1290 C1286 1.524 . S
C1290 H1302 0.956 . S
C1290 H1303 0.961 . S
C1290 H1304 0.961 . S
C1291 C1288 1.539 . S
C1291 H1305 0.958 . S
C1291 H1306 0.961 . S
C1291 H1307 0.960 . S
H1292 C1276 0.931 . S
H1293 C1281 0.929 . S
H1294 C1282 0.960 . S
H1295 C1282 0.962 . S
H1296 C1282 0.960 . S
H1297 C1283 0.961 . S
H1298 C1283 0.961 . S
H1299 C1283 0.961 . S
H1300 C1284 0.931 . S
H1301 C1289 0.930 . S
H1302 C1290 0.956 . S
H1303 C1290 0.961 . S
H1304 C1290 0.961 . S
H1305 C1291 0.958 . S
H1306 C1291 0.961 . S
H1307 C1291 0.960 . S
C1308 C1309 1.391 . S
C1308 C1310 1.394 . S
C1308 H1324 0.931 . S
C1309 C1308 1.391 . S
C1309 C1313 1.376 . S
C1310 C1308 1.394 . S
C1310 C1311 1.369 . S
C1310 C1314 1.531 . S
C1311 C1310 1.369 . S
C1311 C1312 1.410 . S
C1311 C1319 1.503 . S
C1312 C1311 1.410 . S
C1312 C1313 1.392 . S
C1312 C1315 1.511 . S
C1313 C1309 1.376 . S
C1313 C1312 1.392 . S
C1313 H1325 0.929 . S
C1314 C1310 1.531 . S
C1314 H1326 0.960 . S
C1314 H1327 0.962 . S
C1314 H1328 0.960 . S
C1315 C1312 1.511 . S
C1315 H1329 0.961 . S
C1315 H1330 0.961 . S
C1315 H1331 0.961 . S
C1316 C1317 1.370 . S
C1316 C1318 1.363 . S
C1316 H1332 0.931 . S
C1317 C1316 1.370 . S
C1317 C1321 1.408 . S
C1318 C1316 1.363 . S
C1318 C1319 1.370 . S
C1318 C1322 1.524 . S
C1319 C1311 1.503 . S
C1319 C1318 1.370 . S
C1319 C1320 1.403 . S
C1320 C1319 1.403 . S
C1320 C1321 1.404 . S
C1320 C1323 1.539 . S
C1321 C1317 1.408 . S
C1321 C1320 1.404 . S
C1321 H1333 0.930 . S
C1322 C1318 1.524 . S
C1322 H1334 0.956 . S
C1322 H1335 0.961 . S
C1322 H1336 0.961 . S
C1323 C1320 1.539 . S
C1323 H1337 0.958 . S
C1323 H1338 0.961 . S
C1323 H1339 0.960 . S
H1324 C1308 0.931 . S
H1325 C1313 0.929 . S
H1326 C1314 0.960 . S
H1327 C1314 0.962 . S
H1328 C1314 0.960 . S
H1329 C1315 0.961 . S
H1330 C1315 0.961 . S
H1331 C1315 0.961 . S
H1332 C1316 0.931 . S
H1333 C1321 0.930 . S
H1334 C1322 0.956 . S
H1335 C1322 0.961 . S
H1336 C1322 0.961 . S
H1337 C1323 0.958 . S
H1338 C1323 0.961 . S
H1339 C1323 0.960 . S
C1340 C1341 1.391 . S
C1340 C1342 1.394 . S
C1340 H1356 0.931 . S
C1341 C1340 1.391 . S
C1341 C1345 1.376 . S
C1342 C1340 1.394 . S
C1342 C1343 1.369 . S
C1342 C1346 1.531 . S
C1343 C1342 1.369 . S
C1343 C1344 1.410 . S
C1343 C1351 1.503 . S
C1344 C1343 1.410 . S
C1344 C1345 1.392 . S
C1344 C1347 1.511 . S
C1345 C1341 1.376 . S
C1345 C1344 1.392 . S
C1345 H1357 0.929 . S
C1346 C1342 1.531 . S
C1346 H1358 0.960 . S
C1346 H1359 0.962 . S
C1346 H1360 0.960 . S
C1347 C1344 1.511 . S
C1347 H1361 0.961 . S
C1347 H1362 0.961 . S
C1347 H1363 0.961 . S
C1348 C1349 1.370 . S
C1348 C1350 1.363 . S
C1348 H1364 0.931 . S
C1349 C1348 1.370 . S
C1349 C1353 1.408 . S
C1350 C1348 1.363 . S
C1350 C1351 1.370 . S
C1350 C1354 1.524 . S
C1351 C1343 1.503 . S
C1351 C1350 1.370 . S
C1351 C1352 1.403 . S
C1352 C1351 1.403 . S
C1352 C1353 1.404 . S
C1352 C1355 1.539 . S
C1353 C1349 1.408 . S
C1353 C1352 1.404 . S
C1353 H1365 0.930 . S
C1354 C1350 1.524 . S
C1354 H1366 0.956 . S
C1354 H1367 0.961 . S
C1354 H1368 0.961 . S
C1355 C1352 1.539 . S
C1355 H1369 0.958 . S
C1355 H1370 0.961 . S
C1355 H1371 0.960 . S
H1356 C1340 0.931 . S
H1357 C1345 0.929 . S
H1358 C1346 0.960 . S
H1359 C1346 0.962 . S
H1360 C1346 0.960 . S
H1361 C1347 0.961 . S
H1362 C1347 0.961 . S
H1363 C1347 0.961 . S
H1364 C1348 0.931 . S
H1365 C1353 0.930 . S
H1366 C1354 0.956 . S
H1367 C1354 0.961 . S
H1368 C1354 0.961 . S
H1369 C1355 0.958 . S
H1370 C1355 0.961 . S
H1371 C1355 0.960 . S
C1372 C1373 1.391 . S
C1372 C1374 1.394 . S
C1372 H1388 0.931 . S
C1373 C1372 1.391 . S
C1373 C1377 1.376 . S
C1374 C1372 1.394 . S
C1374 C1375 1.369 . S
C1374 C1378 1.531 . S
C1375 C1374 1.369 . S
C1375 C1376 1.410 . S
C1375 C1383 1.503 . S
C1376 C1375 1.410 . S
C1376 C1377 1.392 . S
C1376 C1379 1.511 . S
C1377 C1373 1.376 . S
C1377 C1376 1.392 . S
C1377 H1389 0.929 . S
C1378 C1374 1.531 . S
C1378 H1390 0.960 . S
C1378 H1391 0.962 . S
C1378 H1392 0.960 . S
C1379 C1376 1.511 . S
C1379 H1393 0.961 . S
C1379 H1394 0.961 . S
C1379 H1395 0.961 . S
C1380 C1381 1.370 . S
C1380 C1382 1.363 . S
C1380 H1396 0.931 . S
C1381 C1380 1.370 . S
C1381 C1385 1.408 . S
C1382 C1380 1.363 . S
C1382 C1383 1.370 . S
C1382 C1386 1.524 . S
C1383 C1375 1.503 . S
C1383 C1382 1.370 . S
C1383 C1384 1.403 . S
C1384 C1383 1.403 . S
C1384 C1385 1.404 . S
C1384 C1387 1.539 . S
C1385 C1381 1.408 . S
C1385 C1384 1.404 . S
C1385 H1397 0.930 . S
C1386 C1382 1.524 . S
C1386 H1398 0.956 . S
C1386 H1399 0.961 . S
C1386 H1400 0.961 . S
C1387 C1384 1.539 . S
C1387 H1401 0.958 . S
C1387 H1402 0.961 . S
C1387 H1403 0.960 . S
H1388 C1372 0.931 . S
H1389 C1377 0.929 . S
H1390 C1378 0.960 . S
H1391 C1378 0.962 . S
H1392 C1378 0.960 . S
H1393 C1379 0.961 . S
H1394 C1379 0.961 . S
H1395 C1379 0.961 . S
H1396 C1380 0.931 . S
H1397 C1385 0.930 . S
H1398 C1386 0.956 . S
H1399 C1386 0.961 . S
H1400 C1386 0.961 . S
H1401 C1387 0.958 . S
H1402 C1387 0.961 . S
H1403 C1387 0.960 . S
C645 C577 1.567 . S
C637 C8 1.510 . S
C669 C26 1.546 . S
C677 C137 1.579 . S
C701 C50 1.515 . S
C709 C225 1.579 . S
C733 C68 1.513 . S
C741 C304 1.570 . S
C773 C401 1.576 . S
C765 C80 1.560 . S
C797 C104 1.527 . S
C805 C480 1.570 . S
C829 C32 1.541 . S
C837 C245 1.577 . S
C861 C44 1.539 . S
C869 C341 1.579 . S
C893 C62 1.545 . S
C901 C421 1.567 . S
C933 C517 1.571 . S
C925 C86 1.497 1_554 S
C965 C597 1.568 . S
C957 C98 1.544 . S
C997 C157 1.575 . S
C989 C14 1.506 . S
C1021 C7 1.486 . S
C1029 C253 1.534 . S
C1053 C25 1.442 . S
C1061 C333 1.527 . S
C1093 C429 1.528 . S
C1085 C52 1.431 . S
C1117 C70 1.500 . S
C1125 C509 1.531 . S
C1157 C605 1.529 . S
C1149 C79 1.431 . S
C1189 C165 1.528 . S
C1181 C106 1.492 . S
C1221 C568 1.523 . S
C1213 C34 1.498 . S
C1245 C43 1.469 . S
C1253 C128 1.524 . S
C1285 C216 1.535 . S
C1277 C61 1.478 . S
C1309 C88 1.495 . S
C1317 C313 1.522 . S
C1341 C97 1.481 . S
C1349 C392 1.560 . S
C1373 C16 1.442 . S
C1381 C489 1.535 . S
