# Generated by pormake.
# Topology llk, (3,12)-cn, num edge types: 1
# Building blocks:
#     Node 0, Type 0, BuildingBlock: BETDIP_clean_linker_0, # of connection points: 3
#     Node 1, Type 0, BuildingBlock: BETDIP_clean_linker_0, # of connection points: 3
#     Node 2, Type 0, BuildingBlock: BETDIP_clean_linker_0, # of connection points: 3
#     Node 3, Type 0, BuildingBlock: BETDIP_clean_linker_0, # of connection points: 3
#     Node 4, Type 0, BuildingBlock: BETDIP_clean_linker_0, # of connection points: 3
#     Node 5, Type 0, BuildingBlock: BETDIP_clean_linker_0, # of connection points: 3
#     Node 6, Type 0, BuildingBlock: BETDIP_clean_linker_0, # of connection points: 3
#     Node 7, Type 0, BuildingBlock: BETDIP_clean_linker_0, # of connection points: 3
#     Node 8, Type 0, BuildingBlock: BETDIP_clean_linker_0, # of connection points: 3
#     Node 9, Type 0, BuildingBlock: BETDIP_clean_linker_0, # of connection points: 3
#     Node 10, Type 0, BuildingBlock: BETDIP_clean_linker_0, # of connection points: 3
#     Node 11, Type 0, BuildingBlock: BETDIP_clean_linker_0, # of connection points: 3
#     Node 12, Type 0, BuildingBlock: BETDIP_clean_linker_0, # of connection points: 3
#     Node 13, Type 0, BuildingBlock: BETDIP_clean_linker_0, # of connection points: 3
#     Node 14, Type 0, BuildingBlock: BETDIP_clean_linker_0, # of connection points: 3
#     Node 15, Type 0, BuildingBlock: BETDIP_clean_linker_0, # of connection points: 3
#     Node 16, Type 0, BuildingBlock: BETDIP_clean_linker_0, # of connection points: 3
#     Node 17, Type 0, BuildingBlock: BETDIP_clean_linker_0, # of connection points: 3
#     Node 18, Type 0, BuildingBlock: BETDIP_clean_linker_0, # of connection points: 3
#     Node 19, Type 0, BuildingBlock: BETDIP_clean_linker_0, # of connection points: 3
#     Node 20, Type 0, BuildingBlock: BETDIP_clean_linker_0, # of connection points: 3
#     Node 21, Type 0, BuildingBlock: BETDIP_clean_linker_0, # of connection points: 3
#     Node 22, Type 0, BuildingBlock: BETDIP_clean_linker_0, # of connection points: 3
#     Node 23, Type 0, BuildingBlock: BETDIP_clean_linker_0, # of connection points: 3
#     Node 24, Type 1, BuildingBlock: EZIPEK_clean_sbu_0, # of connection points: 12
#     Node 25, Type 1, BuildingBlock: EZIPEK_clean_sbu_0, # of connection points: 12
#     Node 26, Type 1, BuildingBlock: EZIPEK_clean_sbu_0, # of connection points: 12
#     Node 27, Type 1, BuildingBlock: EZIPEK_clean_sbu_0, # of connection points: 12
#     Node 28, Type 1, BuildingBlock: EZIPEK_clean_sbu_0, # of connection points: 12
#     Node 29, Type 1, BuildingBlock: EZIPEK_clean_sbu_0, # of connection points: 12
#     Edge 30, Type (0, 1), BuildingBlock: EZIPEK_clean_linker_0, # of connection points: 2
#     Edge 31, Type (0, 1), BuildingBlock: EZIPEK_clean_linker_0, # of connection points: 2
#     Edge 32, Type (0, 1), BuildingBlock: EZIPEK_clean_linker_0, # of connection points: 2
#     Edge 33, Type (0, 1), BuildingBlock: EZIPEK_clean_linker_0, # of connection points: 2
#     Edge 34, Type (0, 1), BuildingBlock: EZIPEK_clean_linker_0, # of connection points: 2
#     Edge 35, Type (0, 1), BuildingBlock: EZIPEK_clean_linker_0, # of connection points: 2
#     Edge 36, Type (0, 1), BuildingBlock: EZIPEK_clean_linker_0, # of connection points: 2
#     Edge 37, Type (0, 1), BuildingBlock: EZIPEK_clean_linker_0, # of connection points: 2
#     Edge 38, Type (0, 1), BuildingBlock: EZIPEK_clean_linker_0, # of connection points: 2
#     Edge 39, Type (0, 1), BuildingBlock: EZIPEK_clean_linker_0, # of connection points: 2
#     Edge 40, Type (0, 1), BuildingBlock: EZIPEK_clean_linker_0, # of connection points: 2
#     Edge 41, Type (0, 1), BuildingBlock: EZIPEK_clean_linker_0, # of connection points: 2
#     Edge 42, Type (0, 1), BuildingBlock: EZIPEK_clean_linker_0, # of connection points: 2
#     Edge 43, Type (0, 1), BuildingBlock: EZIPEK_clean_linker_0, # of connection points: 2
#     Edge 44, Type (0, 1), BuildingBlock: EZIPEK_clean_linker_0, # of connection points: 2
#     Edge 45, Type (0, 1), BuildingBlock: EZIPEK_clean_linker_0, # of connection points: 2
#     Edge 46, Type (0, 1), BuildingBlock: EZIPEK_clean_linker_0, # of connection points: 2
#     Edge 47, Type (0, 1), BuildingBlock: EZIPEK_clean_linker_0, # of connection points: 2
#     Edge 48, Type (0, 1), BuildingBlock: EZIPEK_clean_linker_0, # of connection points: 2
#     Edge 49, Type (0, 1), BuildingBlock: EZIPEK_clean_linker_0, # of connection points: 2
#     Edge 50, Type (0, 1), BuildingBlock: EZIPEK_clean_linker_0, # of connection points: 2
#     Edge 51, Type (0, 1), BuildingBlock: EZIPEK_clean_linker_0, # of connection points: 2
#     Edge 52, Type (0, 1), BuildingBlock: EZIPEK_clean_linker_0, # of connection points: 2
#     Edge 53, Type (0, 1), BuildingBlock: EZIPEK_clean_linker_0, # of connection points: 2
#     Edge 54, Type (0, 1), BuildingBlock: EZIPEK_clean_linker_0, # of connection points: 2
#     Edge 55, Type (0, 1), BuildingBlock: EZIPEK_clean_linker_0, # of connection points: 2
#     Edge 56, Type (0, 1), BuildingBlock: EZIPEK_clean_linker_0, # of connection points: 2
#     Edge 57, Type (0, 1), BuildingBlock: EZIPEK_clean_linker_0, # of connection points: 2
#     Edge 58, Type (0, 1), BuildingBlock: EZIPEK_clean_linker_0, # of connection points: 2
#     Edge 59, Type (0, 1), BuildingBlock: EZIPEK_clean_linker_0, # of connection points: 2
#     Edge 60, Type (0, 1), BuildingBlock: EZIPEK_clean_linker_0, # of connection points: 2
#     Edge 61, Type (0, 1), BuildingBlock: EZIPEK_clean_linker_0, # of connection points: 2
#     Edge 62, Type (0, 1), BuildingBlock: EZIPEK_clean_linker_0, # of connection points: 2
#     Edge 63, Type (0, 1), BuildingBlock: EZIPEK_clean_linker_0, # of connection points: 2
#     Edge 64, Type (0, 1), BuildingBlock: EZIPEK_clean_linker_0, # of connection points: 2
#     Edge 65, Type (0, 1), BuildingBlock: EZIPEK_clean_linker_0, # of connection points: 2
#     Edge 66, Type (0, 1), BuildingBlock: EZIPEK_clean_linker_0, # of connection points: 2
#     Edge 67, Type (0, 1), BuildingBlock: EZIPEK_clean_linker_0, # of connection points: 2
#     Edge 68, Type (0, 1), BuildingBlock: EZIPEK_clean_linker_0, # of connection points: 2
#     Edge 69, Type (0, 1), BuildingBlock: EZIPEK_clean_linker_0, # of connection points: 2
#     Edge 70, Type (0, 1), BuildingBlock: EZIPEK_clean_linker_0, # of connection points: 2
#     Edge 71, Type (0, 1), BuildingBlock: EZIPEK_clean_linker_0, # of connection points: 2
#     Edge 72, Type (0, 1), BuildingBlock: EZIPEK_clean_linker_0, # of connection points: 2
#     Edge 73, Type (0, 1), BuildingBlock: EZIPEK_clean_linker_0, # of connection points: 2
#     Edge 74, Type (0, 1), BuildingBlock: EZIPEK_clean_linker_0, # of connection points: 2
#     Edge 75, Type (0, 1), BuildingBlock: EZIPEK_clean_linker_0, # of connection points: 2
#     Edge 76, Type (0, 1), BuildingBlock: EZIPEK_clean_linker_0, # of connection points: 2
#     Edge 77, Type (0, 1), BuildingBlock: EZIPEK_clean_linker_0, # of connection points: 2
#     Edge 78, Type (0, 1), BuildingBlock: EZIPEK_clean_linker_0, # of connection points: 2
#     Edge 79, Type (0, 1), BuildingBlock: EZIPEK_clean_linker_0, # of connection points: 2
#     Edge 80, Type (0, 1), BuildingBlock: EZIPEK_clean_linker_0, # of connection points: 2
#     Edge 81, Type (0, 1), BuildingBlock: EZIPEK_clean_linker_0, # of connection points: 2
#     Edge 82, Type (0, 1), BuildingBlock: EZIPEK_clean_linker_0, # of connection points: 2
#     Edge 83, Type (0, 1), BuildingBlock: EZIPEK_clean_linker_0, # of connection points: 2
#     Edge 84, Type (0, 1), BuildingBlock: EZIPEK_clean_linker_0, # of connection points: 2
#     Edge 85, Type (0, 1), BuildingBlock: EZIPEK_clean_linker_0, # of connection points: 2
#     Edge 86, Type (0, 1), BuildingBlock: EZIPEK_clean_linker_0, # of connection points: 2
#     Edge 87, Type (0, 1), BuildingBlock: EZIPEK_clean_linker_0, # of connection points: 2
#     Edge 88, Type (0, 1), BuildingBlock: EZIPEK_clean_linker_0, # of connection points: 2
#     Edge 89, Type (0, 1), BuildingBlock: EZIPEK_clean_linker_0, # of connection points: 2
#     Edge 90, Type (0, 1), BuildingBlock: EZIPEK_clean_linker_0, # of connection points: 2
#     Edge 91, Type (0, 1), BuildingBlock: EZIPEK_clean_linker_0, # of connection points: 2
#     Edge 92, Type (0, 1), BuildingBlock: EZIPEK_clean_linker_0, # of connection points: 2
#     Edge 93, Type (0, 1), BuildingBlock: EZIPEK_clean_linker_0, # of connection points: 2
#     Edge 94, Type (0, 1), BuildingBlock: EZIPEK_clean_linker_0, # of connection points: 2
#     Edge 95, Type (0, 1), BuildingBlock: EZIPEK_clean_linker_0, # of connection points: 2
#     Edge 96, Type (0, 1), BuildingBlock: EZIPEK_clean_linker_0, # of connection points: 2
#     Edge 97, Type (0, 1), BuildingBlock: EZIPEK_clean_linker_0, # of connection points: 2
#     Edge 98, Type (0, 1), BuildingBlock: EZIPEK_clean_linker_0, # of connection points: 2
#     Edge 99, Type (0, 1), BuildingBlock: EZIPEK_clean_linker_0, # of connection points: 2
#     Edge 100, Type (0, 1), BuildingBlock: EZIPEK_clean_linker_0, # of connection points: 2
#     Edge 101, Type (0, 1), BuildingBlock: EZIPEK_clean_linker_0, # of connection points: 2
# Relax obj value: 0.076
# Max RMSD: 0.174
# Mean RMSD: 0.135
data_MOF--net-llk--node1-EZIPEK_clean_sbu_0--node2-BETDIP_clean_linker_0--edge1-EZIPEK_clean_linker_0
_symmetry_space_group_name_H-M    P1
_symmetry_Int_Tables_number       1
_symmetry_cell_setting            triclinic
loop_
_symmetry_equiv_pos_as_xyz
'x, y, z'
_cell_length_a     35.629027
_cell_length_b     35.878295
_cell_length_c     36.16555
_cell_angle_alpha  89.86548
_cell_angle_beta   89.972791
_cell_angle_gamma 90.000257
loop_
_atom_site_label
_atom_site_type_symbol
_atom_site_fract_x
_atom_site_fract_y
_atom_site_fract_z
_atom_type_partial_charge
H0 H 0.0145 0.25177 0.20966 0.0
H1 H 0.02195 0.27333 0.32667 0.0
H2 H 0.00509 0.36389 0.2516 0.0
H3 H 0.06993 0.2199 0.31424 0.0
C4 C 0.04423 0.20501 0.30788 0.0
C5 C 0.01434 0.27105 0.23265 0.0
C6 C 0.01024 0.30996 0.226 0.0
C7 C 0.01913 0.25754 0.26934 0.0
C8 C 0.01916 0.28305 0.29852 0.0
C9 C 0.01362 0.321 0.29222 0.0
C10 C 0.00896 0.33423 0.25619 0.0
N11 N 0.02205 0.21861 0.27758 0.0
H12 H 0.81597 0.00703 0.26004 0.0
H13 H 0.69573 1.00353 0.27539 0.0
H14 H 0.76752 0.013 0.36932 0.0
H15 H 0.71141 0.954 0.22616 0.0
C16 C 0.71867 0.97896 0.21061 0.0
C17 C 0.7916 0.00822 0.27791 0.0
C18 C 0.79623 0.01088 0.31679 0.0
C19 C 0.75507 0.00524 0.26264 0.0
C20 C 0.72395 0.00557 0.28639 0.0
C21 C 0.72861 0.00834 0.32442 0.0
C22 C 0.76439 0.0115 0.33951 0.0
N23 N 0.74897 1.00142 0.22381 0.0
H24 H 0.01347 0.80758 0.25859 0.0
H25 H 0.01686 0.68924 0.28058 0.0
H26 H 0.02235 0.76576 0.37035 0.0
H27 H 0.9695 0.69724 0.2305 0.0
C28 C 0.99306 0.70695 0.21397 0.0
C29 C 0.01624 0.78453 0.27777 0.0
C30 C 0.01821 0.79135 0.31638 0.0
C31 C 0.01607 0.74738 0.26447 0.0
C32 C 0.01767 0.7179 0.28993 0.0
C33 C 0.01978 0.72472 0.32766 0.0
C34 C 0.02118 0.76107 0.34073 0.0
N35 N 0.01339 0.73905 0.22597 0.0
H36 H 0.20726 1.00034 0.26254 0.0
H37 H 0.32694 0.00741 0.27939 0.0
H38 H 0.25359 0.00524 0.37281 0.0
H39 H 0.31142 0.05171 0.22476 0.0
C40 C 0.30489 0.02509 0.21196 0.0
C41 C 0.23125 1.00201 0.28084 0.0
C42 C 0.2259 1.00301 0.31972 0.0
C43 C 0.26796 0.00409 0.26595 0.0
C44 C 0.29855 0.00634 0.29011 0.0
C45 C 0.29334 0.00635 0.32816 0.0
C46 C 0.25725 0.00492 0.34304 0.0
N47 N 0.27493 1.00341 0.22708 0.0
H48 H 0.01361 0.75766 0.81773 0.0
H49 H 0.02211 0.74088 0.69998 0.0
H50 H 0.00846 0.64694 0.77186 0.0
H51 H 0.07263 0.79856 0.72232 0.0
C52 C 0.0442 0.80932 0.7237 0.0
C53 C 0.01428 0.73923 0.79407 0.0
C54 C 0.01169 0.70002 0.79932 0.0
C55 C 0.0186 0.75423 0.75791 0.0
C56 C 0.01967 0.72988 0.72775 0.0
C57 C 0.01546 0.69149 0.73269 0.0
C58 C 0.01132 0.67685 0.76828 0.0
N59 N 0.01994 0.79351 0.7512 0.0
H60 H 0.20603 0.00868 0.76146 0.0
H61 H 0.3254 0.99599 0.74559 0.0
H62 H 0.25282 0.99997 0.65171 0.0
H63 H 0.3075 0.95321 0.80152 0.0
C64 C 0.30188 0.98046 0.81339 0.0
C65 C 0.23003 0.00527 0.7434 0.0
C66 C 0.22495 0.00366 0.70457 0.0
C67 C 0.26641 1.00146 0.75856 0.0
C68 C 0.29714 0.99767 0.73466 0.0
C69 C 0.29221 0.99781 0.69655 0.0
C70 C 0.25629 1.00002 0.68152 0.0
N71 N 0.27289 1.00271 0.79743 0.0
H72 H 0.0066 0.19897 0.76284 0.0
H73 H 0.01978 0.31649 0.74139 0.0
H74 H 0.00206 0.24171 0.65124 0.0
H75 H 0.9693 0.31044 0.79281 0.0
C76 C 0.99323 0.30025 0.8085 0.0
C77 C 0.00805 0.22211 0.74363 0.0
C78 C 0.00518 0.21563 0.70493 0.0
C79 C 0.01211 0.25902 0.75706 0.0
C80 C 0.01516 0.28832 0.73165 0.0
C81 C 0.01078 0.28231 0.69386 0.0
C82 C 0.00535 0.24617 0.68073 0.0
N83 N 0.01228 0.2676 0.79566 0.0
H84 H 0.76145 1.00021 0.81534 0.0
H85 H 0.74649 0.01364 0.69768 0.0
H86 H 0.65078 0.01469 0.76888 0.0
H87 H 0.78819 0.95626 0.70799 0.0
C88 C 0.80777 0.97769 0.71696 0.0
C89 C 0.74347 0.00518 0.7917 0.0
C90 C 0.70414 0.00871 0.79657 0.0
C91 C 0.75892 0.00621 0.75569 0.0
C92 C 0.73512 0.01238 0.72547 0.0
C93 C 0.69649 0.01478 0.7302 0.0
C94 C 0.68102 0.01333 0.76557 0.0
N95 N 0.79765 0.99884 0.74886 0.0
H96 H 0.20597 0.25253 0.01473 0.0
H97 H 0.32546 0.26958 1.00465 0.0
H98 H 0.25261 0.36364 0.01245 0.0
H99 H 0.30802 0.21555 0.95929 0.0
C100 C 0.30273 0.20248 0.98595 0.0
C101 C 0.22998 0.27096 0.01294 0.0
C102 C 0.22482 0.31011 0.01329 0.0
C103 C 0.26647 0.25603 0.00914 0.0
C104 C 0.29714 0.28036 0.00694 0.0
C105 C 0.29208 0.31865 0.00879 0.0
C106 C 0.25615 0.33362 0.01154 0.0
N107 N 0.27313 0.21689 0.00829 0.0
H108 H 0.20448 0.75386 0.01518 0.0
H109 H 0.32404 0.74039 0.02856 0.0
H110 H 0.25348 0.64426 0.02451 0.0
H111 H 0.30509 0.79755 0.06933 0.0
C112 C 0.29946 0.80834 0.04175 0.0
C113 C 0.22879 0.73616 0.01907 0.0
C114 C 0.22456 0.69699 0.02069 0.0
C115 C 0.26478 0.75216 0.02288 0.0
C116 C 0.296 0.72877 0.02712 0.0
C117 C 0.29193 0.69026 0.0271 0.0
C118 C 0.25632 0.67437 0.02469 0.0
N119 N 0.27044 0.79138 0.02058 0.0
H120 H 0.76038 0.20037 0.00795 0.0
H121 H 0.74416 0.31681 0.03192 0.0
H122 H 0.64906 0.24446 0.02531 0.0
H123 H 0.78158 0.31147 0.97196 0.0
C124 C 0.80314 0.30122 0.99074 0.0
C125 C 0.74212 0.22335 0.0152 0.0
C126 C 0.70295 0.21764 0.01843 0.0
C127 C 0.75706 0.25948 0.01934 0.0
C128 C 0.73301 0.28889 0.02856 0.0
C129 C 0.69431 0.28381 0.02941 0.0
C130 C 0.67927 0.24818 0.02505 0.0
N131 N 0.79515 0.26771 0.01054 0.0
H132 H 0.76019 0.8081 0.00904 0.0
H133 H 0.74845 0.6889 0.99886 0.0
H134 H 0.65081 0.75792 0.99646 0.0
H135 H 0.78947 0.70293 0.05562 0.0
C136 C 0.80892 0.71112 0.03385 0.0
C137 C 0.74287 0.78371 1.00464 0.0
C138 C 0.70345 0.7874 1.00133 0.0
C139 C 0.75929 0.74791 1.00433 0.0
C140 C 0.73633 0.71663 0.99927 0.0
C141 C 0.6976 0.72027 0.99705 0.0
C142 C 0.68115 0.75547 0.99754 0.0
N143 N 0.79815 0.74235 0.01182 0.0
H144 H 0.52426 0.75698 0.70561 0.0
H145 H 0.5199 0.76305 0.82463 0.0
H146 H 0.51058 0.86292 0.75988 0.0
H147 H 0.53697 0.69482 0.77186 0.0
C148 C 0.54882 0.6979 0.79908 0.0
C149 C 0.52102 0.77315 0.73066 0.0
C150 C 0.51691 0.81236 0.72845 0.0
C151 C 0.52251 0.75512 0.76552 0.0
C152 C 0.51897 0.77642 0.79775 0.0
C153 C 0.51452 0.81508 0.79559 0.0
C154 C 0.51348 0.83284 0.76116 0.0
N155 N 0.52923 0.71494 0.76819 0.0
H156 H 0.31575 0.52513 0.76227 0.0
H157 H 0.19583 0.51922 0.77834 0.0
H158 H 0.26837 0.52414 0.87216 0.0
H159 H 0.2136 0.47101 0.72762 0.0
C160 C 0.21969 0.49666 0.71271 0.0
C161 C 0.29154 0.52522 0.78039 0.0
C162 C 0.29648 0.52556 0.81927 0.0
C163 C 0.25497 0.52274 0.76533 0.0
C164 C 0.22407 0.52133 0.78929 0.0
C165 C 0.22901 0.52193 0.82741 0.0
C166 C 0.26491 0.52459 0.84235 0.0
N167 N 0.24868 0.52034 0.72647 0.0
H168 H 0.50481 0.30793 0.7635 0.0
H169 H 0.52035 0.18944 0.77749 0.0
H170 H 0.51981 0.26005 0.87221 0.0
H171 H 0.56106 0.20803 0.72046 0.0
C172 C 0.53325 0.21367 0.70942 0.0
C173 C 0.50996 0.28404 0.78115 0.0
C174 C 0.51312 0.28873 0.82 0.0
C175 C 0.51399 0.24814 0.76539 0.0
C176 C 0.51908 0.21736 0.78878 0.0
C177 C 0.52033 0.22171 0.82691 0.0
C178 C 0.51867 0.25721 0.84237 0.0
N179 N 0.51114 0.24203 0.72651 0.0
H180 H 0.7061 0.48521 0.76216 0.0
H181 H 0.82565 0.49569 0.77804 0.0
H182 H 0.75315 0.49194 0.87205 0.0
H183 H 0.80614 0.54156 0.72433 0.0
C184 C 0.80201 0.51449 0.71147 0.0
C185 C 0.7302 0.48728 0.78028 0.0
C186 C 0.72511 0.48848 0.81922 0.0
C187 C 0.76673 0.49042 0.76512 0.0
C188 C 0.79741 0.49354 0.78902 0.0
C189 C 0.79252 0.49354 0.8271 0.0
C190 C 0.75661 0.49118 0.84225 0.0
N191 N 0.77346 0.49074 0.72621 0.0
H192 H 0.50335 0.25428 0.31357 0.0
H193 H 0.5212 0.24095 0.1966 0.0
H194 H 0.51064 0.14457 0.26515 0.0
H195 H 0.5675 0.29615 0.219 0.0
C196 C 0.53998 0.30864 0.22242 0.0
C197 C 0.50743 0.23645 0.28979 0.0
C198 C 0.50715 0.19701 0.29414 0.0
C199 C 0.5142 0.25256 0.25453 0.0
C200 C 0.5182 0.22917 0.22394 0.0
C201 C 0.51597 0.19061 0.22768 0.0
C202 C 0.51142 0.1747 0.26262 0.0
N203 N 0.5152 0.29198 0.24896 0.0
H204 H 0.70554 0.51758 0.26244 0.0
H205 H 0.82535 0.51021 0.24596 0.0
H206 H 0.75223 0.51057 0.15249 0.0
H207 H 0.81023 0.46826 0.30127 0.0
C208 C 0.80281 0.49472 0.31392 0.0
C209 C 0.72962 0.51592 0.24425 0.0
C210 C 0.72446 0.51385 0.20542 0.0
C211 C 0.76631 0.51443 0.25923 0.0
C212 C 0.79699 0.51136 0.2352 0.0
C213 C 0.79183 0.5105 0.19712 0.0
C214 C 0.75584 0.51184 0.18226 0.0
N215 N 0.77303 0.51604 0.29808 0.0
H216 H 0.51605 0.70044 0.26202 0.0
H217 H 0.50561 0.81911 0.24414 0.0
H218 H 0.50896 0.74586 0.15154 0.0
H219 H 0.46752 0.8099 0.29826 0.0
C220 C 0.49176 0.79876 0.31278 0.0
C221 C 0.5132 0.72412 0.24361 0.0
C222 C 0.512 0.71859 0.20472 0.0
C223 C 0.51005 0.76062 0.25834 0.0
C224 C 0.50702 0.79082 0.23386 0.0
C225 C 0.50719 0.78537 0.19584 0.0
C226 C 0.5091 0.74956 0.18131 0.0
N227 N 0.51133 0.76767 0.29724 0.0
H228 H 0.26097 0.51228 0.31494 0.0
H229 H 0.24266 0.50846 0.19709 0.0
H230 H 0.14859 0.51321 0.27022 0.0
H231 H 0.29437 0.45905 0.21312 0.0
C232 C 0.30937 0.48485 0.21867 0.0
C233 C 0.24217 0.51252 0.29142 0.0
C234 C 0.20277 0.5132 0.29696 0.0
C235 C 0.25685 0.51033 0.25513 0.0
C236 C 0.23202 0.50994 0.22513 0.0
C237 C 0.19345 0.51129 0.2306 0.0
C238 C 0.17878 0.51297 0.26629 0.0
N239 N 0.29617 0.50787 0.24809 0.0
H240 H 0.70434 0.7558 0.52714 0.0
H241 H 0.825 0.76314 0.52035 0.0
H242 H 0.75998 0.86277 0.52755 0.0
H243 H 0.79999 0.71202 0.47109 0.0
C244 C 0.79639 0.69936 0.49822 0.0
C245 C 0.72984 0.77223 0.52718 0.0
C246 C 0.72788 0.81167 0.52792 0.0
C247 C 0.76512 0.75443 0.52436 0.0
C248 C 0.79769 0.77618 0.52299 0.0
C249 C 0.79579 0.81474 0.52472 0.0
C250 C 0.76113 0.83255 0.52746 0.0
N251 N 0.76865 0.71495 0.52206 0.0
H252 H 0.70732 0.25726 0.50192 0.0
H253 H 0.82677 0.2373 0.5033 0.0
H254 H 0.75099 0.14506 0.50371 0.0
H255 H 0.81184 0.28949 0.55157 0.0
C256 C 0.8056 0.30426 0.52599 0.0
C257 C 0.73091 0.23823 0.50173 0.0
C258 C 0.72478 0.1993 0.50248 0.0
C259 C 0.76794 0.25219 0.50239 0.0
C260 C 0.79813 0.22713 0.50288 0.0
C261 C 0.79191 0.1889 0.50325 0.0
C262 C 0.75547 0.17498 0.50285 0.0
N263 N 0.77545 0.29111 0.50371 0.0
H264 H 0.26315 0.69966 0.50864 0.0
H265 H 0.25177 0.81882 0.51877 0.0
H266 H 0.15365 0.75036 0.51808 0.0
H267 H 0.2985 0.80338 0.46271 0.0
C268 C 0.31462 0.79581 0.48715 0.0
C269 C 0.24576 0.72416 0.51214 0.0
C270 C 0.20623 0.72064 0.51408 0.0
C271 C 0.26237 0.75983 0.51328 0.0
C272 C 0.23945 0.79122 0.51759 0.0
C273 C 0.20061 0.78785 0.51892 0.0
C274 C 0.184 0.7527 0.51737 0.0
N275 N 0.30171 0.76506 0.50871 0.0
H276 H 0.26155 0.30896 0.51353 0.0
H277 H 0.24331 0.1904 0.50731 0.0
H278 H 0.14922 0.26435 0.50679 0.0
H279 H 0.2926 0.20366 0.56107 0.0
C280 C 0.30882 0.21115 0.53669 0.0
C281 C 0.24277 0.28536 0.51103 0.0
C282 C 0.2035 0.291 0.5096 0.0
C283 C 0.25732 0.24882 0.5108 0.0
C284 C 0.2326 0.21866 0.50767 0.0
C285 C 0.19394 0.22419 0.50609 0.0
C286 C 0.17939 0.26025 0.50726 0.0
N287 N 0.29646 0.24172 0.51457 0.0
C288 C 0.011 0.9096 0.60079 0.0
C289 C 0.01315 0.91378 0.4194 0.0
C290 C 0.00632 0.09059 0.6043 0.0
C291 C 0.00715 0.09404 0.4214 0.0
C292 C 0.91668 0.08844 0.51287 0.0
C293 C 0.92431 0.90848 0.51166 0.0
C294 C 0.09826 0.09539 0.50749 0.0
C295 C 0.10463 0.91575 0.51596 0.0
C296 C 0.10057 1.00269 0.42069 0.0
C297 C 0.91788 0.00601 0.42284 0.0
C298 C 0.10151 0.00662 0.60204 0.0
C299 C 0.9212 0.99778 0.60329 0.0
Eu300 Eu 0.01356 0.93181 0.51036 0.0
O301 O 0.97775 0.96811 0.47824 0.0
O302 O 0.04545 0.96991 0.54385 0.0
Eu303 Eu 0.93976 0.9997 0.51253 0.0
Eu304 Eu 0.08188 0.00489 0.51139 0.0
O305 O 0.97921 0.96753 0.54418 0.0
O306 O 0.04517 0.9711 0.47783 0.0
Eu307 Eu 0.01124 1.00098 0.58195 0.0
Eu308 Eu 0.00966 1.00335 0.44149 0.0
O309 O 0.97662 0.03376 0.54541 0.0
O310 O 0.97625 0.03464 0.48004 0.0
O311 O 0.04201 0.0367 0.47946 0.0
O312 O 0.04334 0.03644 0.54523 0.0
Eu313 Eu 0.00827 0.07325 0.51287 0.0
O314 O 0.01252 0.89966 0.56516 0.0
O315 O 0.01809 0.90217 0.45435 0.0
O316 O 0.00764 0.10304 0.56923 0.0
O317 O 0.00675 0.10467 0.45705 0.0
O318 O 0.90649 0.05278 0.51304 0.0
O319 O 0.91123 0.94333 0.51207 0.0
O320 O 0.11096 0.06052 0.50532 0.0
O321 O 0.11506 0.95142 0.51712 0.0
O322 O 0.06477 1.0034 0.40981 0.0
O323 O 0.95348 0.00571 0.41104 0.0
O324 O 0.06608 1.00295 0.61321 0.0
O325 O 0.95692 0.99823 0.61399 0.0
O326 O 0.06255 0.10578 0.5115 0.0
O327 O 0.95163 0.10183 0.51307 0.0
O328 O 0.06968 0.90303 0.51257 0.0
O329 O 0.96015 0.89811 0.51008 0.0
O330 O 0.0074 0.94911 0.40927 0.0
O331 O 0.01079 0.05861 0.41101 0.0
O332 O 0.01214 0.94504 0.61226 0.0
O333 O 0.00607 0.0548 0.6144 0.0
O334 O 0.90901 0.99814 0.56823 0.0
O335 O 0.90718 0.00446 0.45831 0.0
O336 O 0.1131 0.00892 0.56681 0.0
O337 O 0.11264 1.00248 0.45579 0.0
C338 C 0.50921 0.91101 0.0979 0.0
C339 C 0.51556 0.09079 0.10242 0.0
C340 C 0.50843 0.91435 0.91973 0.0
C341 C 0.51353 0.0949 0.92354 0.0
C342 C 0.60113 1.00319 0.91943 0.0
C343 C 0.60518 0.99914 0.0973 0.0
C344 C 0.41794 1.00298 0.92268 0.0
C345 C 0.42034 0.00434 0.10118 0.0
C346 C 0.42073 0.09411 0.01025 0.0
C347 C 0.60497 0.09057 0.00942 0.0
C348 C 0.41671 0.91567 0.01384 0.0
C349 C 0.59978 0.9105 0.00745 0.0
Eu350 Eu 0.51196 1.00138 0.08103 0.0
O351 O 0.54571 0.03431 0.04375 0.0
O352 O 0.47759 0.96985 0.0434 0.0
Eu353 Eu 0.58172 1.00108 0.00902 0.0
Eu354 Eu 0.44056 0.00449 0.01162 0.0
O355 O 0.54359 0.96833 0.04209 0.0
O356 O 0.47891 0.03636 0.045 0.0
Eu357 Eu 0.50891 0.93216 0.00908 0.0
Eu358 Eu 0.51283 0.07363 0.01244 0.0
O359 O 0.5428 0.96943 0.97614 0.0
O360 O 0.5441 0.03581 0.97788 0.0
O361 O 0.47845 0.03756 0.97888 0.0
O362 O 0.47626 0.97104 0.97713 0.0
Eu363 Eu 0.50985 0.00432 0.9401 0.0
O364 O 0.50905 0.9459 0.11051 0.0
O365 O 0.50944 0.05558 0.1126 0.0
O366 O 0.5104 0.94982 0.90876 0.0
O367 O 0.51007 0.06016 0.91088 0.0
O368 O 0.61283 1.00071 0.95436 0.0
O369 O 0.61531 0.99994 0.06188 0.0
O370 O 0.40768 0.00407 0.95813 0.0
O371 O 0.40923 0.00509 0.06598 0.0
O372 O 0.4566 0.10568 0.01186 0.0
O373 O 0.56966 0.10309 0.01205 0.0
O374 O 0.45194 0.90265 0.0124 0.0
O375 O 0.56385 0.89972 0.00682 0.0
O376 O 0.45332 1.00307 0.91017 0.0
O377 O 0.56532 0.00507 0.90838 0.0
O378 O 0.45609 1.00269 0.11269 0.0
O379 O 0.56971 0.99926 0.11 0.0
O380 O 0.51987 0.10256 0.06767 0.0
O381 O 0.51537 0.10546 0.95879 0.0
O382 O 0.51 0.90028 0.0627 0.0
O383 O 0.50637 0.90201 0.95445 0.0
O384 O 0.61199 0.94559 0.00887 0.0
O385 O 0.615 0.05489 0.00659 0.0
O386 O 0.40687 0.95143 0.01306 0.0
O387 O 0.40937 0.05883 0.01051 0.0
C388 C 0.00818 0.41196 0.10168 0.0
C389 C 0.01179 0.41153 0.92265 0.0
C390 C 0.00871 0.59515 0.10011 0.0
C391 C 0.01113 0.59488 0.92132 0.0
C392 C 0.91987 0.59453 0.01102 0.0
C393 C 0.91921 0.41324 0.00907 0.0
C394 C 0.10105 0.59403 0.0136 0.0
C395 C 0.10071 0.41238 0.01373 0.0
C396 C 0.10286 0.50558 0.92467 0.0
C397 C 0.92118 0.5033 0.92122 0.0
C398 C 0.09763 0.50419 0.10363 0.0
C399 C 0.91766 0.50337 0.09881 0.0
Eu400 Eu 0.01008 0.43274 0.0121 0.0
O401 O 0.97789 0.47046 0.97821 0.0
O402 O 0.04261 0.4702 0.04576 0.0
Eu403 Eu 0.93961 0.50374 0.01027 0.0
Eu404 Eu 0.0811 0.5032 0.0135 0.0
O405 O 0.97593 0.47022 0.0442 0.0
O406 O 0.04415 0.47018 0.97955 0.0
Eu407 Eu 0.00826 0.50352 0.08192 0.0
Eu408 Eu 0.01179 0.50321 0.94098 0.0
O409 O 0.97641 0.53704 0.04369 0.0
O410 O 0.97782 0.53662 0.97749 0.0
O411 O 0.04436 0.53619 0.97911 0.0
O412 O 0.04244 0.53644 0.04501 0.0
Eu413 Eu 0.01051 0.5741 0.01085 0.0
O414 O 0.00791 0.40082 0.06647 0.0
O415 O 0.01166 0.40081 0.95803 0.0
O416 O 0.01148 0.60586 0.06486 0.0
O417 O 0.01011 0.60598 0.9565 0.0
O418 O 0.90809 0.55914 0.00992 0.0
O419 O 0.90775 0.44871 0.01002 0.0
O420 O 0.11259 0.55858 0.01536 0.0
O421 O 0.11249 0.44779 0.01302 0.0
O422 O 0.06785 0.50357 0.91184 0.0
O423 O 0.95674 0.5042 0.90963 0.0
O424 O 0.06189 0.50533 0.11403 0.0
O425 O 0.95268 0.50194 0.11149 0.0
O426 O 0.06557 0.60545 0.01093 0.0
O427 O 0.95553 0.60572 0.01144 0.0
O428 O 0.06505 0.40113 0.01411 0.0
O429 O 0.95478 0.40167 0.00944 0.0
O430 O 0.01184 0.44695 0.91061 0.0
O431 O 0.01205 0.55928 0.90993 0.0
O432 O 0.00862 0.44755 0.11304 0.0
O433 O 0.00666 0.55977 0.11207 0.0
O434 O 0.90705 0.50456 0.06355 0.0
O435 O 0.90934 0.50278 0.95607 0.0
O436 O 0.11067 0.50247 0.06906 0.0
O437 O 0.11346 0.50581 0.96 0.0
C438 C 0.50699 0.41544 0.10475 0.0
C439 C 0.51206 0.59577 0.10162 0.0
C440 C 0.50959 0.41294 0.92303 0.0
C441 C 0.51569 0.59423 0.92067 0.0
C442 C 0.60032 0.49705 0.92077 0.0
C443 C 0.60173 0.50801 0.10225 0.0
C444 C 0.4192 0.51369 0.92283 0.0
C445 C 0.42064 0.50328 0.10313 0.0
C446 C 0.42018 0.59451 0.01759 0.0
C447 C 0.60198 0.59291 0.00685 0.0
C448 C 0.41979 0.41511 0.00957 0.0
C449 C 0.60018 0.41338 0.02075 0.0
Eu450 Eu 0.51132 0.50533 0.08222 0.0
O451 O 0.54442 0.53781 0.04407 0.0
O452 O 0.47751 0.47205 0.04567 0.0
Eu453 Eu 0.58199 0.50354 0.01185 0.0
Eu454 Eu 0.43969 0.50505 0.01278 0.0
O455 O 0.5441 0.47134 0.04541 0.0
O456 O 0.47778 0.53825 0.04499 0.0
Eu457 Eu 0.51029 0.43379 0.01325 0.0
Eu458 Eu 0.51065 0.57536 0.01125 0.0
O459 O 0.54361 0.47064 0.97939 0.0
O460 O 0.54351 0.53652 0.97934 0.0
O461 O 0.47712 0.53767 0.97886 0.0
O462 O 0.47693 0.47121 0.97992 0.0
Eu463 Eu 0.51014 0.50384 0.94188 0.0
O464 O 0.51202 0.45094 0.11438 0.0
O465 O 0.51235 0.56036 0.11302 0.0
O466 O 0.50425 0.44815 0.91187 0.0
O467 O 0.5212 0.5586 0.91141 0.0
O468 O 0.61244 0.49805 0.95592 0.0
O469 O 0.6134 0.50799 0.067 0.0
O470 O 0.40804 0.51207 0.95819 0.0
O471 O 0.40853 0.50268 0.06809 0.0
O472 O 0.45542 0.60657 0.01403 0.0
O473 O 0.56661 0.60492 0.00881 0.0
O474 O 0.4551 0.40299 0.01085 0.0
O475 O 0.56468 0.40221 0.01774 0.0
O476 O 0.45471 0.51108 0.91111 0.0
O477 O 0.56457 0.49852 0.90999 0.0
O478 O 0.45641 0.50465 0.11388 0.0
O479 O 0.56619 0.50623 0.11353 0.0
O480 O 0.51145 0.60707 0.06624 0.0
O481 O 0.50717 0.60536 0.95504 0.0
O482 O 0.50642 0.40397 0.06946 0.0
O483 O 0.51518 0.40254 0.95823 0.0
O484 O 0.61231 0.44857 0.02008 0.0
O485 O 0.61369 0.55767 0.00698 0.0
O486 O 0.40835 0.45046 0.00973 0.0
O487 O 0.40877 0.55923 0.0182 0.0
C488 C 0.01323 0.40914 0.59396 0.0
C489 C 0.01163 0.42315 0.41609 0.0
C490 C 0.0136 0.58931 0.6084 0.0
C491 C 0.01114 0.60196 0.42925 0.0
C492 C 0.91938 0.59524 0.51766 0.0
C493 C 0.92046 0.41632 0.50654 0.0
C494 C 0.10328 0.5966 0.51248 0.0
C495 C 0.10403 0.41699 0.51094 0.0
C496 C 0.10178 0.50975 0.42136 0.0
C497 C 0.91735 0.51172 0.42532 0.0
C498 C 0.10634 0.50697 0.59884 0.0
C499 C 0.92134 0.49875 0.60303 0.0
Eu500 Eu 0.01203 0.43569 0.50681 0.0
O501 O 0.97753 0.47506 0.47744 0.0
O502 O 0.04562 0.47104 0.54183 0.0
Eu503 Eu 0.94139 0.50592 0.51376 0.0
Eu504 Eu 0.08246 0.50668 0.51054 0.0
O505 O 0.97989 0.47081 0.54334 0.0
O506 O 0.04442 0.47575 0.4759 0.0
Eu507 Eu 0.01346 0.50095 0.5827 0.0
Eu508 Eu 0.00968 0.51107 0.44196 0.0
O509 O 0.97941 0.53687 0.54835 0.0
O510 O 0.97808 0.54163 0.48261 0.0
O511 O 0.0436 0.5416 0.481 0.0
O512 O 0.04565 0.53699 0.54686 0.0
Eu513 Eu 0.01182 0.57699 0.51746 0.0
O514 O 0.00451 0.40182 0.55895 0.0
O515 O 0.01881 0.40987 0.44987 0.0
O516 O 0.01927 0.60259 0.57435 0.0
O517 O 0.01303 0.61115 0.46493 0.0
O518 O 0.90896 0.55967 0.51627 0.0
O519 O 0.90972 0.45151 0.5115 0.0
O520 O 0.11421 0.56131 0.50865 0.0
O521 O 0.11491 0.4525 0.51195 0.0
O522 O 0.06583 0.51186 0.41046 0.0
O523 O 0.95267 0.51241 0.41251 0.0
O524 O 0.07105 0.5042 0.61168 0.0
O525 O 0.95723 0.49643 0.61438 0.0
O526 O 0.06778 0.60817 0.51653 0.0
O527 O 0.95493 0.60767 0.5192 0.0
O528 O 0.06843 0.40505 0.50925 0.0
O529 O 0.95596 0.40456 0.50269 0.0
O530 O 0.00375 0.45855 0.40825 0.0
O531 O 0.00842 0.56777 0.41525 0.0
O532 O 0.02141 0.44295 0.60706 0.0
O533 O 0.00718 0.55361 0.61664 0.0
O534 O 0.91024 0.50226 0.56802 0.0
O535 O 0.90769 0.5104 0.46092 0.0
O536 O 0.11616 0.50828 0.56334 0.0
O537 O 0.11361 0.50699 0.45615 0.0
C538 C 0.51343 0.9166 0.60491 0.0
C539 C 0.51359 0.9115 0.42585 0.0
C540 C 0.5112 0.09929 0.59907 0.0
C541 C 0.50649 0.09524 0.42044 0.0
C542 C 0.41853 0.09404 0.51606 0.0
C543 C 0.42382 0.91267 0.5101 0.0
C544 C 0.60022 0.09813 0.50801 0.0
C545 C 0.60517 0.91703 0.52004 0.0
C546 C 0.60398 1.00222 0.42501 0.0
C547 C 0.42215 0.00607 0.42245 0.0
C548 C 0.59994 0.01205 0.60357 0.0
C549 C 0.41968 1.00235 0.60033 0.0
Eu550 Eu 0.51431 0.93494 0.51461 0.0
O551 O 0.48035 0.97094 0.48047 0.0
O552 O 0.54546 0.9742 0.54731 0.0
Eu553 Eu 0.44095 0.00363 0.51188 0.0
Eu554 Eu 0.58258 0.00725 0.51379 0.0
O555 O 0.47901 0.97209 0.54602 0.0
O556 O 0.54655 0.9726 0.48071 0.0
Eu557 Eu 0.51028 0.00732 0.58292 0.0
Eu558 Eu 0.51264 0.00381 0.44192 0.0
O559 O 0.47696 0.03879 0.54429 0.0
O560 O 0.47792 0.03675 0.47811 0.0
O561 O 0.54456 0.03863 0.47902 0.0
O562 O 0.54301 0.04011 0.54472 0.0
Eu563 Eu 0.50951 0.07606 0.51024 0.0
O564 O 0.51496 0.90459 0.56998 0.0
O565 O 0.52166 0.90282 0.46086 0.0
O566 O 0.51013 0.10917 0.56347 0.0
O567 O 0.50163 0.10584 0.45539 0.0
O568 O 0.40817 0.05819 0.51775 0.0
O569 O 0.41099 0.94766 0.50915 0.0
O570 O 0.61265 0.06305 0.51024 0.0
O571 O 0.61571 0.95284 0.51897 0.0
O572 O 0.56877 1.00166 0.41236 0.0
O573 O 0.45765 0.00509 0.4108 0.0
O574 O 0.5644 0.00934 0.61445 0.0
O575 O 0.45458 0.00674 0.61276 0.0
O576 O 0.56425 0.10869 0.50721 0.0
O577 O 0.45372 0.10611 0.51222 0.0
O578 O 0.56994 0.90467 0.51837 0.0
O579 O 0.45973 0.90241 0.51254 0.0
O580 O 0.50661 0.94636 0.4141 0.0
O581 O 0.51334 0.05987 0.41004 0.0
O582 O 0.51122 0.95237 0.61536 0.0
O583 O 0.51111 0.06416 0.61189 0.0
O584 O 0.40896 0.99957 0.56524 0.0
O585 O 0.41035 0.00613 0.4574 0.0
O586 O 0.61252 0.01264 0.56881 0.0
O587 O 0.61474 0.00404 0.46023 0.0
C588 C 0.16966 0.16666 0.53619 0.0
C589 C 0.16895 0.1914 0.50563 0.0
C590 C 0.12319 0.15154 0.47447 0.0
C591 C 0.12587 0.12581 0.50427 0.0
N592 N 0.16126 0.10346 0.55684 0.0
N593 N 0.15104 0.20427 0.44252 0.0
C594 C 0.15214 0.13157 0.53303 0.0
C595 C 0.14733 0.18306 0.47378 0.0
N596 N 0.18586 0.17722 0.5688 0.0
N597 N 0.09793 0.14554 0.4467 0.0
H598 H 0.16876 0.22735 0.44094 0.0
H599 H 0.13896 0.19741 0.41724 0.0
H600 H 0.0823 0.12109 0.44455 0.0
H601 H 0.09152 0.16528 0.42654 0.0
H602 H 0.18374 0.1615 0.593 0.0
H603 H 0.19794 0.20339 0.57278 0.0
H604 H 0.18342 0.1054 0.57556 0.0
H605 H 0.14971 0.07691 0.5553 0.0
C606 C 0.84587 0.15619 0.4738 0.0
C607 C 0.82407 0.16335 0.50577 0.0
C608 C 0.86221 0.12027 0.54211 0.0
C609 C 0.88589 0.11543 0.51098 0.0
N610 N 0.9031 0.13059 0.44813 0.0
N611 N 0.8144 0.15778 0.57161 0.0
C612 C 0.8787 0.13414 0.47712 0.0
C613 C 0.83302 0.14695 0.54033 0.0
N614 N 0.83429 0.1693 0.44012 0.0
N615 N 0.8671 0.09882 0.57304 0.0
H616 H 0.79252 0.17711 0.57141 0.0
H617 H 0.82255 0.14997 0.59817 0.0
H618 H 0.88893 0.0797 0.57584 0.0
H619 H 0.84808 0.098 0.5949 0.0
H620 H 0.84658 0.16169 0.41514 0.0
H621 H 0.81036 0.1857 0.43672 0.0
H622 H 0.90182 0.14677 0.42424 0.0
H623 H 0.92631 0.11295 0.44877 0.0
C624 C 0.85474 0.84053 0.55168 0.0
C625 C 0.8307 0.83621 0.52074 0.0
C626 C 0.87424 0.87097 0.48163 0.0
C627 C 0.89592 0.87885 0.51335 0.0
N628 N 0.91527 0.8609 0.57463 0.0
N629 N 0.81686 0.84575 0.45605 0.0
C630 C 0.88884 0.86041 0.54727 0.0
C631 C 0.84053 0.8505 0.48547 0.0
N632 N 0.84397 0.82726 0.58556 0.0
N633 N 0.8872 0.8813 0.44764 0.0
H634 H 0.79271 0.82937 0.45727 0.0
H635 H 0.81999 0.85947 0.43085 0.0
H636 H 0.91081 0.89813 0.44425 0.0
H637 H 0.87615 0.87154 0.42284 0.0
H638 H 0.8582 0.83298 0.61002 0.0
H639 H 0.81918 0.81237 0.58976 0.0
H640 H 0.91381 0.84465 0.59846 0.0
H641 H 0.94028 0.87576 0.57236 0.0
C642 C 0.15643 0.8308 0.55173 0.0
C643 C 0.17747 0.8219 0.51971 0.0
C644 C 0.1601 0.88128 0.49151 0.0
C645 C 0.1338 0.88699 0.52024 0.0
N646 N 0.10644 0.86774 0.57829 0.0
N647 N 0.19478 0.83567 0.45648 0.0
C648 C 0.13187 0.8619 0.55064 0.0
C649 C 0.17827 0.84641 0.48891 0.0
N650 N 0.16073 0.81019 0.58331 0.0
N651 N 0.16817 0.90908 0.46695 0.0
H652 H 0.20739 0.8097 0.45286 0.0
H653 H 0.19262 0.85104 0.43208 0.0
H654 H 0.15575 0.93529 0.46799 0.0
H655 H 0.19016 0.90737 0.44801 0.0
H656 H 0.14907 0.8175 0.60867 0.0
H657 H 0.17869 0.78729 0.58504 0.0
H658 H 0.10108 0.84858 0.59926 0.0
H659 H 0.08942 0.89131 0.57943 0.0
C660 C 0.54564 0.13911 0.19155 0.0
C661 C 0.51751 0.16665 0.19453 0.0
C662 C 0.49525 0.15107 0.13269 0.0
C663 C 0.51846 0.11871 0.13266 0.0
N664 N 0.56258 0.07966 0.16658 0.0
N665 N 0.45964 0.19286 0.17127 0.0
C666 C 0.54262 0.11195 0.16346 0.0
C667 C 0.49067 0.17109 0.16602 0.0
N668 N 0.57597 0.13954 0.21469 0.0
N669 N 0.47763 0.16332 0.10144 0.0
H670 H 0.45401 0.2066 0.19604 0.0
H671 H 0.43746 0.19382 0.15249 0.0
H672 H 0.47943 0.15039 0.0759 0.0
H673 H 0.46393 0.18898 0.10016 0.0
H674 H 0.59915 0.12217 0.21113 0.0
H675 H 0.57987 0.1599 0.23488 0.0
H676 H 0.5763 0.07183 0.19085 0.0
H677 H 0.56396 0.05965 0.14603 0.0
C678 C 0.83252 0.47422 0.15414 0.0
C679 C 0.82473 0.50808 0.17271 0.0
C680 C 0.88207 0.53603 0.14824 0.0
C681 C 0.8874 0.50383 0.1262 0.0
N682 N 0.86693 0.44317 0.10542 0.0
N683 N 0.83825 0.57305 0.18367 0.0
C684 C 0.86236 0.47315 0.1283 0.0
C685 C 0.84858 0.53947 0.16896 0.0
N686 N 0.81224 0.44286 0.1622 0.0
N687 N 0.90874 0.56344 0.14921 0.0
H688 H 0.81357 0.57686 0.19873 0.0
H689 H 0.85233 0.5979 0.17824 0.0
H690 H 0.93258 0.56342 0.13254 0.0
H691 H 0.90836 0.58526 0.16814 0.0
H692 H 0.81918 0.41643 0.15255 0.0
H693 H 0.79014 0.44257 0.18114 0.0
H694 H 0.84704 0.42213 0.10244 0.0
H695 H 0.88985 0.44021 0.08774 0.0
C696 C 0.47357 0.82886 0.15341 0.0
C697 C 0.50724 0.81794 0.17114 0.0
C698 C 0.53998 0.87224 0.14622 0.0
C699 C 0.50755 0.88092 0.12531 0.0
N700 N 0.44422 0.86683 0.10619 0.0
N701 N 0.57387 0.82524 0.18078 0.0
C702 C 0.4745 0.85901 0.12808 0.0
C703 C 0.54086 0.8386 0.16667 0.0
N704 N 0.44063 0.81109 0.16164 0.0
N705 N 0.5698 0.89622 0.14671 0.0
H706 H 0.57567 0.80056 0.19597 0.0
H707 H 0.59998 0.83684 0.17482 0.0
H708 H 0.57047 0.92082 0.13138 0.0
H709 H 0.59256 0.89334 0.16453 0.0
H710 H 0.41444 0.82033 0.15273 0.0
H711 H 0.43904 0.78848 0.17977 0.0
H712 H 0.42106 0.84935 0.10355 0.0
H713 H 0.4431 0.8901 0.08896 0.0
C714 C 0.15121 0.47508 0.1891 0.0
C715 C 0.16856 0.50939 0.19821 0.0
C716 C 0.14516 0.53783 0.14124 0.0
C717 C 0.12486 0.50468 0.13398 0.0
N718 N 0.1046 0.44308 0.15236 0.0
N719 N 0.17844 0.57486 0.1866 0.0
C720 C 0.12673 0.47364 0.15832 0.0
C721 C 0.16467 0.54119 0.1752 0.0
N722 N 0.15915 0.44364 0.20912 0.0
N723 N 0.14567 0.56608 0.11579 0.0
H724 H 0.1928 0.57833 0.21149 0.0
H725 H 0.173 0.59992 0.17307 0.0
H726 H 0.1304 0.56528 0.09124 0.0
H727 H 0.16316 0.58924 0.11768 0.0
H728 H 0.15077 0.41701 0.20127 0.0
H729 H 0.17663 0.44363 0.23225 0.0
H730 H 0.10119 0.42164 0.17152 0.0
H731 H 0.08775 0.44006 0.12901 0.0
C732 C 0.54479 0.84392 0.85102 0.0
C733 C 0.51205 0.83764 0.82961 0.0
C734 C 0.47644 0.88104 0.86813 0.0
C735 C 0.50877 0.88608 0.89039 0.0
N736 N 0.57121 0.86702 0.90819 0.0
N737 N 0.44516 0.84373 0.82158 0.0
C738 C 0.54211 0.86564 0.8836 0.0
C739 C 0.47733 0.85428 0.83933 0.0
N740 N 0.57879 0.83084 0.83918 0.0
N741 N 0.44514 0.90223 0.87423 0.0
H742 H 0.44486 0.82398 0.80045 0.0
H743 H 0.41843 0.85204 0.82978 0.0
H744 H 0.44291 0.92084 0.89621 0.0
H745 H 0.42222 0.90304 0.85639 0.0
H746 H 0.60422 0.83829 0.85126 0.0
H747 H 0.58208 0.81492 0.81531 0.0
H748 H 0.59448 0.84952 0.90685 0.0
H749 H 0.57095 0.88388 0.93161 0.0
C750 C 0.17154 0.54779 0.85709 0.0
C751 C 0.1962 0.51734 0.85176 0.0
C752 C 0.1588 0.47847 0.89343 0.0
C753 C 0.13317 0.50844 0.89735 0.0
N754 N 0.11086 0.56909 0.8782 0.0
N755 N 0.21058 0.45196 0.85886 0.0
C756 C 0.13809 0.54226 0.87753 0.0
C757 C 0.18911 0.48212 0.86826 0.0
N758 N 0.18094 0.58234 0.84395 0.0
N759 N 0.15425 0.44669 0.91395 0.0
H760 H 0.23316 0.45359 0.84056 0.0
H761 H 0.2044 0.42476 0.86684 0.0
H762 H 0.13096 0.44199 0.93081 0.0
H763 H 0.17436 0.42572 0.91582 0.0
H764 H 0.16633 0.60654 0.85064 0.0
H765 H 0.2053 0.58745 0.82874 0.0
H766 H 0.11083 0.59226 0.86081 0.0
H767 H 0.08682 0.56711 0.89445 0.0
C768 C 0.55058 0.16544 0.85502 0.0
C769 C 0.51853 0.18841 0.85075 0.0
C770 C 0.48289 0.14928 0.89345 0.0
C771 C 0.51426 0.12517 0.89623 0.0
N772 N 0.57538 0.10578 0.87481 0.0
N773 N 0.45181 0.19772 0.85843 0.0
C774 C 0.54728 0.13172 0.8753 0.0
C775 C 0.48394 0.17907 0.86782 0.0
N776 N 0.58438 0.1766 0.8409 0.0
N777 N 0.45227 0.14399 0.91564 0.0
H778 H 0.45122 0.21937 0.83916 0.0
H779 H 0.42516 0.18951 0.86703 0.0
H780 H 0.4497 0.12133 0.93351 0.0
H781 H 0.43055 0.16326 0.91814 0.0
H782 H 0.60961 0.16312 0.84659 0.0
H783 H 0.58771 0.20121 0.82583 0.0
H784 H 0.59841 0.10722 0.85713 0.0
H785 H 0.5744 0.08128 0.8903 0.0
C786 C 0.83436 0.53099 0.8679 0.0
C787 C 0.82588 0.49653 0.85084 0.0
C788 C 0.88507 0.46998 0.87261 0.0
C789 C 0.89127 0.50285 0.89341 0.0
N790 N 0.87075 0.56357 0.91404 0.0
N791 N 0.8398 0.4316 0.84038 0.0
C792 C 0.86563 0.53312 0.89192 0.0
C793 C 0.85044 0.46558 0.85391 0.0
N794 N 0.81325 0.5619 0.86022 0.0
N795 N 0.91193 0.44279 0.87114 0.0
H796 H 0.81433 0.42722 0.82684 0.0
H797 H 0.85455 0.40704 0.8453 0.0
H798 H 0.93691 0.44397 0.88601 0.0
H799 H 0.91066 0.42012 0.85326 0.0
H800 H 0.82064 0.58869 0.86852 0.0
H801 H 0.78983 0.56137 0.84293 0.0
H802 H 0.85062 0.58429 0.91764 0.0
H803 H 0.89438 0.56716 0.93062 0.0
C804 C 0.66144 0.66975 0.96572 0.0
C805 C 0.67428 0.6865 0.99884 0.0
C806 C 0.64783 0.63576 0.03568 0.0
C807 C 0.63075 0.62185 1.00333 0.0
N808 N 0.62319 0.62155 0.93727 0.0
N809 N 0.67778 0.68809 0.06558 0.0
C810 C 0.6383 0.63758 0.96812 0.0
C811 C 0.66717 0.67012 0.03393 0.0
N812 N 0.67165 0.68461 0.93232 0.0
N813 N 0.64643 0.61551 0.06772 0.0
H814 H 0.69246 0.71325 0.06555 0.0
H815 H 0.6696 0.67962 0.09193 0.0
H816 H 0.63259 0.58995 0.06963 0.0
H817 H 0.66153 0.62228 0.09142 0.0
H818 H 0.66541 0.67278 0.90685 0.0
H819 H 0.68799 0.70863 0.9299 0.0
H820 H 0.62521 0.63245 0.9107 0.0
H821 H 0.60719 0.59726 0.93854 0.0
C822 C 0.33551 0.65127 0.98999 0.0
C823 C 0.32569 0.66678 0.02467 0.0
C824 C 0.38298 0.6417 0.05238 0.0
C825 C 0.39013 0.62238 0.01899 0.0
N826 N 0.37181 0.60527 0.95709 0.0
N827 N 0.33721 0.6744 0.0899 0.0
C828 C 0.366 0.62621 0.98807 0.0
C829 C 0.34876 0.66157 0.05619 0.0
N830 N 0.31653 0.66153 0.95868 0.0
N831 N 0.40882 0.64098 0.0803 0.0
H832 H 0.31221 0.68908 0.09358 0.0
H833 H 0.35077 0.66809 0.11462 0.0
H834 H 0.43373 0.62584 0.07865 0.0
H835 H 0.40697 0.6574 0.10392 0.0
H836 H 0.32515 0.6543 0.93213 0.0
H837 H 0.294 0.68008 0.95875 0.0
H838 H 0.3524 0.6031 0.93567 0.0
H839 H 0.39512 0.5881 0.95389 0.0
C840 C 0.34311 0.35104 0.04291 0.0
C841 C 0.32532 0.34284 0.00882 0.0
C842 C 0.37366 0.3767 0.97473 0.0
C843 C 0.39006 0.38686 0.00887 0.0
N844 N 0.39779 0.37607 0.07407 0.0
N845 N 0.321 0.34888 0.94256 0.0
C846 C 0.37691 0.37182 0.04267 0.0
C847 C 0.34006 0.35562 0.9747 0.0
N848 N 0.32688 0.34001 0.07546 0.0
N849 N 0.39136 0.38575 0.94245 0.0
H850 H 0.29657 0.33289 0.94147 0.0
H851 H 0.32781 0.36098 0.91726 0.0
H852 H 0.41535 0.40237 0.94163 0.0
H853 H 0.38388 0.37513 0.91673 0.0
H854 H 0.33603 0.3486 0.10139 0.0
H855 H 0.30243 0.32406 0.07666 0.0
H856 H 0.39196 0.36279 0.09901 0.0
H857 H 0.42333 0.39023 0.07426 0.0
C858 C 0.64828 0.3273 0.05956 0.0
C859 C 0.67001 0.31713 0.02838 0.0
C860 C 0.65409 0.37568 0.99764 0.0
C861 C 0.62802 0.38343 0.02612 0.0
N862 N 0.59956 0.36715 0.08456 0.0
N863 N 0.68768 0.32778 0.96468 0.0
C864 C 0.62488 0.35933 0.05726 0.0
C865 C 0.67133 0.34028 0.99657 0.0
N866 N 0.65085 0.30695 0.09147 0.0
N867 N 0.66295 0.4021 0.97185 0.0
H868 H 0.69964 0.30137 0.96218 0.0
H869 H 0.68586 0.34206 0.93961 0.0
H870 H 0.65124 0.42864 0.97154 0.0
H871 H 0.6849 0.39896 0.95305 0.0
H872 H 0.63873 0.31494 0.11641 0.0
H873 H 0.66744 0.2831 0.09375 0.0
H874 H 0.59307 0.34888 0.10597 0.0
H875 H 0.58399 0.39174 0.0852 0.0
C876 C 0.04189 0.6368 0.69869 0.0
C877 C 0.01562 0.66621 0.70038 0.0
C878 C 0.99315 0.64979 0.6388 0.0
C879 C 0.01488 0.6163 0.63976 0.0
N880 N 0.0546 0.57518 0.67687 0.0
N881 N 0.95938 0.6945 0.67589 0.0
C882 C 0.03741 0.60877 0.67164 0.0
C883 C 0.98928 0.67102 0.67154 0.0
N884 N 0.07217 0.63629 0.72191 0.0
N885 N 0.97619 0.66204 0.60719 0.0
H886 H 0.95438 0.70929 0.70018 0.0
H887 H 0.93736 0.69596 0.65696 0.0
H888 H 0.97646 0.64798 0.58221 0.0
H889 H 0.96405 0.68841 0.60509 0.0
H890 H 0.09404 0.61719 0.71926 0.0
H891 H 0.0776 0.65736 0.741 0.0
H892 H 0.06683 0.56761 0.70199 0.0
H893 H 0.05539 0.55403 0.65749 0.0
C894 C 0.33652 0.03359 0.65685 0.0
C895 C 0.32543 0.99899 0.67242 0.0
C896 C 0.3808 0.96853 0.64653 0.0
C897 C 0.38939 1.00205 0.6276 0.0
N898 N 0.37464 0.06568 0.61147 0.0
N899 N 0.33378 0.93266 0.6795 0.0
C900 C 0.36703 0.03441 0.63184 0.0
C901 C 0.34678 0.96617 0.66672 0.0
N902 N 0.31869 0.06579 0.66696 0.0
N903 N 0.4053 0.9392 0.64537 0.0
H904 H 0.30889 0.93 0.69449 0.0
H905 H 0.34599 0.90717 0.67288 0.0
H906 H 0.4302 0.93989 0.63021 0.0
H907 H 0.40246 0.91528 0.66148 0.0
H908 H 0.32819 0.09226 0.65972 0.0
H909 H 0.29601 0.06641 0.68519 0.0
H910 H 0.35669 0.08852 0.60981 0.0
H911 H 0.39806 0.06795 0.59435 0.0
C912 C 0.03604 0.31466 0.63751 0.0
C913 C 0.01141 0.31443 0.66808 0.0
C914 C 0.99433 0.37881 0.65468 0.0
C915 C 0.01369 0.37692 0.62011 0.0
N916 N 0.04576 0.33625 0.57573 0.0
N917 N 0.95835 0.34292 0.69856 0.0
C918 C 0.03204 0.34277 0.61037 0.0
C919 C 0.98792 0.34548 0.67458 0.0
N920 N 0.06452 0.28926 0.63498 0.0
N921 N 0.98203 0.41166 0.66931 0.0
H922 H 0.95106 0.31818 0.71196 0.0
H923 H 0.93858 0.36413 0.70159 0.0
H924 H 0.98406 0.43746 0.65655 0.0
H925 H 0.97181 0.41348 0.69629 0.0
H926 H 0.08525 0.29077 0.61465 0.0
H927 H 0.07003 0.2695 0.65547 0.0
H928 H 0.05474 0.3099 0.56738 0.0
H929 H 0.04707 0.35579 0.55467 0.0
C930 C 0.66852 0.98145 0.67655 0.0
C931 C 0.67217 0.01477 0.6973 0.0
C932 C 0.62906 0.04693 0.65565 0.0
C933 C 0.62759 0.01437 0.63346 0.0
N934 N 0.65041 0.9528 0.61875 0.0
N935 N 0.66154 0.08077 0.70393 0.0
C936 C 0.64897 0.98237 0.64251 0.0
C937 C 0.65405 0.04804 0.6861 0.0
N938 N 0.68224 0.94858 0.69027 0.0
N939 N 0.60603 0.07645 0.64804 0.0
H940 H 0.67943 0.08246 0.72669 0.0
H941 H 0.65237 0.10667 0.69453 0.0
H942 H 0.58859 0.07734 0.62493 0.0
H943 H 0.60253 0.0991 0.66565 0.0
H944 H 0.67675 0.92273 0.67842 0.0
H945 H 0.69633 0.94658 0.71548 0.0
H946 H 0.66874 0.93043 0.622 0.0
H947 H 0.63519 0.95176 0.59418 0.0
C948 C 0.03882 0.37693 0.32509 0.0
C949 C 0.01301 0.3471 0.3238 0.0
C950 C 0.99071 0.36325 0.38552 0.0
C951 C 0.01246 0.39663 0.38451 0.0
N952 N 0.05066 0.43871 0.34688 0.0
N953 N 0.95737 0.31799 0.34871 0.0
C954 C 0.03429 0.40474 0.35231 0.0
C955 C 0.98691 0.34194 0.35285 0.0
N956 N 0.0688 0.37803 0.30147 0.0
N957 N 0.97348 0.3514 0.41716 0.0
H958 H 0.95249 0.30312 0.32444 0.0
H959 H 0.93547 0.31615 0.36776 0.0
H960 H 0.97325 0.36616 0.44177 0.0
H961 H 0.9614 0.32503 0.41961 0.0
H962 H 0.09044 0.39744 0.30399 0.0
H963 H 0.0743 0.35721 0.28213 0.0
H964 H 0.06245 0.44655 0.32163 0.0
H965 H 0.05102 0.45994 0.36621 0.0
C966 C 0.68157 0.04016 0.36419 0.0
C967 C 0.69562 0.00675 0.34886 0.0
C968 C 0.64629 0.97073 0.3796 0.0
C969 C 0.63438 0.00374 0.39754 0.0
N970 N 0.6436 0.06879 0.41149 0.0
N971 N 0.69527 0.93963 0.3448 0.0
C972 C 0.65283 0.03817 0.3911 0.0
C973 C 0.67892 0.9718 0.35712 0.0
N974 N 0.69503 0.07383 0.35226 0.0
N975 N 0.62657 0.93842 0.38429 0.0
H976 H 0.71915 0.93935 0.32809 0.0
H977 H 0.68697 0.91313 0.35324 0.0
H978 H 0.60423 0.93609 0.40277 0.0
H979 H 0.63102 0.91449 0.36867 0.0
H980 H 0.68295 0.09926 0.35934 0.0
H981 H 0.71645 0.07635 0.33273 0.0
H982 H 0.65953 0.09311 0.41165 0.0
H983 H 0.62161 0.06882 0.43046 0.0
C984 C 0.98371 0.68693 0.37344 0.0
C985 C 0.01757 0.69334 0.35379 0.0
C986 C 0.04496 0.63683 0.37973 0.0
C987 C 0.01282 0.63278 0.4026 0.0
N988 N 0.95291 0.65546 0.42431 0.0
N989 N 0.08247 0.67842 0.3421 0.0
C990 C 0.98262 0.65841 0.40052 0.0
C991 C 0.04878 0.66935 0.3579 0.0
N992 N 0.95218 0.70697 0.365 0.0
N993 N 0.07175 0.60961 0.37863 0.0
H994 H 0.08634 0.70221 0.32589 0.0
H995 H 0.10734 0.66421 0.34768 0.0
H996 H 0.07126 0.58624 0.39572 0.0
H997 H 0.09317 0.60898 0.35904 0.0
H998 H 0.92569 0.70088 0.37559 0.0
H999 H 0.95166 0.72768 0.34475 0.0
H1000 H 0.93229 0.67584 0.42703 0.0
H1001 H 0.95002 0.63366 0.44316 0.0
C1002 C 0.34629 0.97317 0.35848 0.0
C1003 C 0.32668 0.00694 0.35214 0.0
C1004 C 0.37313 0.0416 0.38803 0.0
C1005 C 0.39256 0.00765 0.39428 0.0
N1006 N 0.40461 0.94404 0.37681 0.0
N1007 N 0.32315 0.07394 0.35522 0.0
C1008 C 0.38131 0.97428 0.3768 0.0
C1009 C 0.34072 0.0415 0.36515 0.0
N1010 N 0.33086 0.93994 0.34791 0.0
N1011 N 0.38589 0.0737 0.404 0.0
H1012 H 0.29874 0.07457 0.33932 0.0
H1013 H 0.33335 0.10044 0.361 0.0
H1014 H 0.40988 0.0746 0.42051 0.0
H1015 H 0.37249 0.09936 0.40215 0.0
H1016 H 0.34187 0.91414 0.3555 0.0
H1017 H 0.30524 0.93798 0.33409 0.0
H1018 H 0.3997 0.92023 0.36112 0.0
H1019 H 0.43085 0.94418 0.38951 0.0
C1020 C 0.02825 0.18686 0.37392 0.0
C1021 C 0.02987 0.17714 0.3358 0.0
C1022 C 0.00734 0.11401 0.35216 0.0
C1023 C 0.0071 0.12373 0.39074 0.0
N1024 N 0.99608 0.17593 0.43154 0.0
N1025 N 0.01616 0.13276 0.28787 0.0
C1026 C 0.01127 0.16206 0.39975 0.0
C1027 C 0.01772 0.14116 0.32472 0.0
N1028 N 0.04296 0.21979 0.38611 0.0
N1029 N 0.99699 0.07908 0.34125 0.0
H1030 H 0.0269 0.15013 0.26732 0.0
H1031 H 0.003 0.10927 0.27717 0.0
H1032 H 0.97965 0.06197 0.35697 0.0
H1033 H 0.00418 0.06748 0.31587 0.0
H1034 H 0.04602 0.22584 0.41414 0.0
H1035 H 0.05522 0.23959 0.36889 0.0
H1036 H 0.99623 0.20423 0.43798 0.0
H1037 H 0.97762 0.16066 0.44796 0.0
C1038 C 0.84007 0.97556 0.35686 0.0
C1039 C 0.83326 0.00831 0.33613 0.0
C1040 C 0.88422 0.03961 0.37025 0.0
C1041 C 0.88771 0.00787 0.39383 0.0
N1042 N 0.85945 0.95069 0.41548 0.0
N1043 N 0.84663 0.07289 0.32446 0.0
C1044 C 0.86311 0.9772 0.38873 0.0
C1045 C 0.85508 0.0407 0.34289 0.0
N1046 N 0.8237 0.9428 0.34643 0.0
N1047 N 0.90771 0.06927 0.37503 0.0
H1048 H 0.82647 0.07394 0.30356 0.0
H1049 H 0.85819 0.09873 0.33081 0.0
H1050 H 0.92677 0.07077 0.39681 0.0
H1051 H 0.90947 0.09162 0.35671 0.0
H1052 H 0.83022 0.91727 0.35869 0.0
H1053 H 0.80664 0.94074 0.32305 0.0
H1054 H 0.83818 0.93074 0.41508 0.0
H1055 H 0.87432 0.95134 0.44015 0.0
C1056 C 0.98206 0.83236 0.35848 0.0
C1057 C 0.01266 0.82872 0.33383 0.0
C1058 C 0.03893 0.88652 0.35927 0.0
C1059 C 0.0128 0.88497 0.38927 0.0
N1060 N 0.96295 0.85045 0.41956 0.0
N1061 N 0.07242 0.85133 0.31237 0.0
C1062 C 0.98524 0.85628 0.38945 0.0
C1063 C 0.04155 0.85582 0.33428 0.0
N1064 N 0.95016 0.81215 0.3526 0.0
N1065 N 0.06149 0.91688 0.35458 0.0
H1066 H 0.07482 0.82972 0.29329 0.0
H1067 H 0.09648 0.86766 0.31484 0.0
H1068 H 0.06155 0.93944 0.37252 0.0
H1069 H 0.07811 0.92088 0.33118 0.0
H1070 H 0.92575 0.81575 0.36809 0.0
H1071 H 0.94706 0.79497 0.32953 0.0
H1072 H 0.94536 0.82736 0.42215 0.0
H1073 H 0.96451 0.86634 0.44344 0.0
C1074 C 0.1719 0.03693 0.34936 0.0
C1075 C 0.18812 1.00271 0.33775 0.0
C1076 C 0.14516 0.96819 0.37865 0.0
C1077 C 0.1295 1.00247 0.39086 0.0
N1078 N 0.12181 0.06866 0.38243 0.0
N1079 N 0.1858 0.93588 0.33502 0.0
C1080 C 0.14088 0.0366 0.37435 0.0
C1081 C 0.17309 0.96833 0.35031 0.0
N1082 N 0.18735 0.06979 0.33768 0.0
N1083 N 0.13392 0.93562 0.39489 0.0
H1084 H 0.20632 0.93539 0.31443 0.0
H1085 H 0.17422 0.90979 0.34028 0.0
H1086 H 0.11301 0.93451 0.41508 0.0
H1087 H 0.14612 0.90981 0.38981 0.0
H1088 H 0.18031 0.09569 0.34855 0.0
H1089 H 0.20873 0.07098 0.31797 0.0
H1090 H 0.126 0.09383 0.36868 0.0
H1091 H 0.09961 0.06954 0.40122 0.0
C1092 C 0.00981 0.86608 0.69788 0.0
C1093 C 0.03004 0.83248 0.69175 0.0
C1094 C 0.02453 0.84293 0.62438 0.0
C1095 C 0.01029 0.87944 0.63063 0.0
N1096 N 0.97157 0.91552 0.67168 0.0
N1097 N 0.06016 0.79084 0.64814 0.0
C1098 C 0.99778 0.88814 0.66704 0.0
C1099 C 0.03839 0.82152 0.65475 0.0
N1100 N 0.0044 0.87851 0.73317 0.0
N1101 N 0.02131 0.82674 0.59036 0.0
H1102 H 0.06943 0.77268 0.66866 0.0
H1103 H 0.07145 0.78491 0.62222 0.0
H1104 H 0.00469 0.83768 0.56938 0.0
H1105 H 0.02901 0.79926 0.58502 0.0
H1106 H 0.9941 0.90493 0.73936 0.0
H1107 H 0.0133 0.8638 0.75644 0.0
H1108 H 0.95844 0.92116 0.69677 0.0
H1109 H 0.95903 0.929 0.64931 0.0
C1110 C 0.17776 0.04044 0.6682 0.0
C1111 C 0.18762 0.00661 0.68616 0.0
C1112 C 0.13945 0.97323 0.65061 0.0
C1113 C 0.13039 0.00691 0.63182 0.0
N1114 N 0.13383 0.07384 0.62908 0.0
N1115 N 0.17368 0.94262 0.7004 0.0
C1116 C 0.14743 0.04094 0.64257 0.0
C1117 C 0.16686 0.9736 0.67937 0.0
N1118 N 0.19851 0.07182 0.67463 0.0
N1119 N 0.12276 0.94066 0.63993 0.0
H1120 H 0.19387 0.9421 0.72126 0.0
H1121 H 0.15761 0.91844 0.6994 0.0
H1122 H 0.10178 0.93964 0.61991 0.0
H1123 H 0.13078 0.91441 0.64929 0.0
H1124 H 0.19635 0.09607 0.65892 0.0
H1125 H 0.2193 0.07299 0.69492 0.0
H1126 H 0.14195 0.09987 0.6389 0.0
H1127 H 0.11211 0.07513 0.60978 0.0
C1128 C 0.03368 0.15401 0.68525 0.0
C1129 C 0.00195 0.17778 0.68757 0.0
C1130 C 0.97173 0.14271 0.63714 0.0
C1131 C 0.00355 0.1189 0.63478 0.0
N1132 N 0.05895 0.09486 0.66534 0.0
N1133 N 0.93693 0.18817 0.67331 0.0
C1134 C 0.03251 0.12214 0.66177 0.0
C1135 C 0.96966 0.16978 0.66595 0.0
N1136 N 0.06597 0.16303 0.70354 0.0
N1137 N 0.94358 0.13977 0.61167 0.0
H1138 H 0.93475 0.20765 0.69462 0.0
H1139 H 0.91137 0.18163 0.661 0.0
H1140 H 0.94293 0.11897 0.59163 0.0
H1141 H 0.92185 0.15901 0.60915 0.0
H1142 H 0.09145 0.14955 0.69895 0.0
H1143 H 0.06808 0.18571 0.72135 0.0
H1144 H 0.07801 0.09389 0.68717 0.0
H1145 H 0.05974 0.07131 0.64869 0.0
C1146 C 0.85643 0.95313 0.67414 0.0
C1147 C 0.84081 0.98466 0.69219 0.0
C1148 C 0.88262 0.02487 0.65533 0.0
C1149 C 0.893 0.99382 0.63337 0.0
N1150 N 0.88543 0.92882 0.61883 0.0
N1151 N 0.8345 0.05209 0.69375 0.0
C1152 C 0.87853 0.95811 0.64185 0.0
C1153 C 0.85285 0.02107 0.6815 0.0
N1154 N 0.8511 0.91823 0.68852 0.0
N1155 N 0.90105 0.058 0.65126 0.0
H1156 H 0.81139 0.05132 0.71121 0.0
H1157 H 0.83988 0.07869 0.68339 0.0
H1158 H 0.92252 0.0619 0.63202 0.0
H1159 H 0.8972 0.08047 0.66908 0.0
H1160 H 0.86481 0.89467 0.6785 0.0
H1161 H 0.83639 0.91344 0.71303 0.0
H1162 H 0.87173 0.9033 0.62139 0.0
H1163 H 0.9023 0.93113 0.59539 0.0
C1164 C 0.33186 0.03864 0.15008 0.0
C1165 C 0.32908 0.0136 0.18019 0.0
C1166 C 0.38421 0.97939 0.1566 0.0
C1167 C 0.3897 0.0075 0.12934 0.0
N1168 N 0.37166 0.06712 0.1039 0.0
N1169 N 0.35341 0.96056 0.21355 0.0
C1170 C 0.36407 0.03782 0.1269 0.0
C1171 C 0.35524 0.9838 0.18366 0.0
N1172 N 0.30322 0.06314 0.14346 0.0
N1173 N 0.40586 0.94794 0.15598 0.0
H1174 H 0.33126 0.96097 0.23229 0.0
H1175 H 0.37454 0.94181 0.22061 0.0
H1176 H 0.42746 0.94387 0.13697 0.0
H1177 H 0.40056 0.92454 0.17223 0.0
H1178 H 0.30152 0.07964 0.11979 0.0
H1179 H 0.27911 0.06407 0.15984 0.0
H1180 H 0.35617 0.09171 0.10365 0.0
H1181 H 0.39576 0.06845 0.08768 0.0
C1182 C 0.04109 0.33464 0.16771 0.0
C1183 C 0.00784 0.32762 0.18832 0.0
C1184 C 0.97454 0.37527 0.15156 0.0
C1185 C 0.00764 0.38194 0.13061 0.0
N1186 N 0.06989 0.36209 0.11323 0.0
N1187 N 0.94106 0.33452 0.19416 0.0
C1188 C 0.04 0.35951 0.13678 0.0
C1189 C 0.97393 0.34577 0.17817 0.0
N1190 N 0.07428 0.31935 0.17905 0.0
N1191 N 0.94392 0.39769 0.14666 0.0
H1192 H 0.94001 0.3128 0.21341 0.0
H1193 H 0.91475 0.34402 0.18595 0.0
H1194 H 0.94295 0.41876 0.12678 0.0
H1195 H 0.92038 0.39708 0.1637 0.0
H1196 H 0.10029 0.32724 0.16844 0.0
H1197 H 0.07611 0.30028 0.20076 0.0
H1198 H 0.09253 0.34374 0.11374 0.0
H1199 H 0.07086 0.38097 0.09133 0.0
C1200 C 0.68718 0.95827 0.15246 0.0
C1201 C 0.69497 0.98771 0.17751 0.0
C1202 C 0.64916 0.02699 0.14468 0.0
C1203 C 0.63667 0.9956 0.12436 0.0
N1204 N 0.6444 0.93102 0.1079 0.0
N1205 N 0.67986 0.04954 0.19979 0.0
C1206 C 0.65609 0.96119 0.12779 0.0
C1207 C 0.67539 0.02213 0.17403 0.0
N1208 N 0.71029 0.92785 0.15168 0.0
N1209 N 0.6372 0.06179 0.13499 0.0
H1210 H 0.69869 0.0478 0.22164 0.0
H1211 H 0.66265 0.07299 0.20101 0.0
H1212 H 0.6184 0.06639 0.11336 0.0
H1213 H 0.64849 0.08613 0.14606 0.0
H1214 H 0.70863 0.90694 0.13184 0.0
H1215 H 0.73371 0.92527 0.16882 0.0
H1216 H 0.65422 0.90405 0.11232 0.0
H1217 H 0.62284 0.93247 0.0885 0.0
C1218 C 0.97556 0.68232 0.15197 0.0
C1219 C 0.00265 0.68449 0.18056 0.0
C1220 C 0.03567 0.62997 0.15477 0.0
C1221 C 0.0067 0.62579 0.12808 0.0
N1222 N 0.95118 0.64983 0.09836 0.0
N1223 N 0.05818 0.6607 0.2103 0.0
C1224 C 0.97739 0.65272 0.12575 0.0
C1225 C 0.03297 0.65874 0.18191 0.0
N1226 N 0.94703 0.70788 0.1512 0.0
N1227 N 0.06657 0.60738 0.15313 0.0
H1228 H 0.05886 0.68285 0.22883 0.0
H1229 H 0.07767 0.63998 0.21637 0.0
H1230 H 0.06941 0.586 0.13387 0.0
H1231 H 0.09069 0.61133 0.16884 0.0
H1232 H 0.92368 0.70643 0.13405 0.0
H1233 H 0.94647 0.73109 0.16855 0.0
H1234 H 0.93213 0.67061 0.09142 0.0
H1235 H 0.9489 0.62647 0.08156 0.0
C1236 C 0.32886 0.96819 0.87551 0.0
C1237 C 0.32637 0.9924 0.84468 0.0
C1238 C 0.38178 0.02675 0.86715 0.0
C1239 C 0.38684 0.9995 0.8953 0.0
N1240 N 0.36826 0.94085 0.9227 0.0
N1241 N 0.35125 0.04424 0.80975 0.0
C1242 C 0.36098 0.96948 0.89874 0.0
C1243 C 0.35278 0.02186 0.84031 0.0
N1244 N 0.30004 0.9441 0.88276 0.0
N1245 N 0.40403 0.05781 0.8666 0.0
H1246 H 0.32907 0.04374 0.79111 0.0
H1247 H 0.37267 0.0624 0.80204 0.0
H1248 H 0.42586 0.06216 0.88528 0.0
H1249 H 0.39907 0.08077 0.84964 0.0
H1250 H 0.29817 0.92828 0.90688 0.0
H1251 H 0.27595 0.94284 0.86638 0.0
H1252 H 0.35268 0.91631 0.92358 0.0
H1253 H 0.39221 0.93978 0.93915 0.0
C1254 C 0.03534 0.34657 0.84137 0.0
C1255 C 0.00379 0.32227 0.84202 0.0
C1256 C 0.97783 0.35669 0.89479 0.0
C1257 C 0.00946 0.38089 0.89465 0.0
N1258 N 0.07159 0.39486 0.87227 0.0
N1259 N 0.94997 0.2985 0.87422 0.0
C1260 C 0.03924 0.37462 0.86922 0.0
C1261 C 0.97671 0.32558 0.87043 0.0
N1262 N 0.06077 0.34385 0.81325 0.0
N1263 N 0.94772 0.36468 0.91675 0.0
H1264 H 0.9488 0.27532 0.85687 0.0
H1265 H 0.93151 0.29694 0.8965 0.0
H1266 H 0.94691 0.38769 0.93421 0.0
H1267 H 0.92224 0.35063 0.91516 0.0
H1268 H 0.08153 0.3636 0.80808 0.0
H1269 H 0.06022 0.32226 0.79406 0.0
H1270 H 0.09595 0.38907 0.85746 0.0
H1271 H 0.07508 0.41595 0.89177 0.0
C1272 C 0.66529 0.9716 0.84086 0.0
C1273 C 0.68514 0.005 0.83317 0.0
C1274 C 0.65434 0.03523 0.88604 0.0
C1275 C 0.63077 1.00349 0.89037 0.0
N1276 N 0.61196 0.9421 0.87066 0.0
N1277 N 0.69759 0.06947 0.84662 0.0
C1278 C 0.63586 0.97175 0.86752 0.0
C1279 C 0.6798 0.03693 0.85562 0.0
N1280 N 0.6749 0.93967 0.8226 0.0
N1281 N 0.65215 0.0639 0.91078 0.0
H1282 H 0.71745 0.07125 0.82548 0.0
H1283 H 0.69134 0.09505 0.85866 0.0
H1284 H 0.63239 0.06476 0.93201 0.0
H1285 H 0.67123 0.08585 0.91169 0.0
H1286 H 0.66413 0.91349 0.82911 0.0
H1287 H 0.69644 0.93886 0.80304 0.0
H1288 H 0.61132 0.91995 0.85213 0.0
H1289 H 0.59094 0.94063 0.89066 0.0
C1290 C 0.04285 0.67432 0.85704 0.0
C1291 C 0.0096 0.68099 0.83635 0.0
C1292 C 0.97746 0.63124 0.87128 0.0
C1293 C 0.01045 0.62504 0.89252 0.0
N1294 N 0.07194 0.64616 0.91103 0.0
N1295 N 0.94311 0.67233 0.82976 0.0
C1296 C 0.04221 0.64855 0.88728 0.0
C1297 C 0.97618 0.66153 0.84562 0.0
N1298 N 0.07567 0.69092 0.84644 0.0
N1299 N 0.94758 0.60764 0.87498 0.0
H1300 H 0.94153 0.69461 0.81121 0.0
H1301 H 0.91703 0.66182 0.83755 0.0
H1302 H 0.94712 0.58582 0.89403 0.0
H1303 H 0.92431 0.60803 0.85759 0.0
H1304 H 0.1018 0.68353 0.85708 0.0
H1305 H 0.0771 0.71064 0.82527 0.0
H1306 H 0.09406 0.66514 0.91122 0.0
H1307 H 0.07337 0.62659 0.93232 0.0
C1308 C 0.16633 0.3344 0.98262 0.0
C1309 C 0.18733 0.32834 0.01543 0.0
C1310 C 0.15122 0.37691 0.04723 0.0
C1311 C 0.12978 0.38269 0.01462 0.0
N1312 N 0.11199 0.36265 0.95341 0.0
N1313 N 0.19428 0.33683 0.08094 0.0
C1314 C 0.13557 0.35979 0.98309 0.0
C1315 C 0.17778 0.34733 0.04843 0.0
N1316 N 0.17723 0.31758 0.95048 0.0
N1317 N 0.14697 0.40035 0.07669 0.0
H1318 H 0.2137 0.31508 0.08241 0.0
H1319 H 0.18626 0.34704 0.10668 0.0
H1320 H 0.12716 0.42171 0.07723 0.0
H1321 H 0.16456 0.40026 0.09966 0.0
H1322 H 0.1664 0.32448 0.92463 0.0
H1323 H 0.19877 0.29794 0.94935 0.0
H1324 H 0.11203 0.34399 0.9314 0.0
H1325 H 0.0906 0.38239 0.95174 0.0
C1326 C 0.18005 0.65896 0.9832 0.0
C1327 C 0.1877 0.6779 0.01672 0.0
C1328 C 0.13435 0.64631 0.04627 0.0
C1329 C 0.13019 0.62363 0.01435 0.0
N1330 N 0.15006 0.60659 0.95293 0.0
N1331 N 0.17403 0.68865 0.08102 0.0
C1332 C 0.15322 0.62959 0.98284 0.0
C1333 C 0.16499 0.67173 0.04838 0.0
N1334 N 0.19851 0.6694 0.95168 0.0
N1335 N 0.10921 0.64332 0.0747 0.0
H1336 H 0.19537 0.70842 0.0832 0.0
H1337 H 0.16187 0.68172 0.10629 0.0
H1338 H 0.08777 0.62357 0.07517 0.0
H1339 H 0.10812 0.66178 0.09684 0.0
H1340 H 0.19205 0.65922 0.92551 0.0
H1341 H 0.21813 0.691 0.95127 0.0
H1342 H 0.16879 0.60662 0.93083 0.0
H1343 H 0.12986 0.58568 0.95116 0.0
C1344 C 0.33385 0.14235 0.97143 0.0
C1345 C 0.3284 0.17158 0.9971 0.0
C1346 C 0.3814 0.14781 0.03395 0.0
C1347 C 0.39001 0.12201 0.00552 0.0
N1348 N 0.37614 0.09688 0.94514 0.0
N1349 N 0.34875 0.20395 0.05217 0.0
C1350 C 0.36651 0.11973 0.9738 0.0
C1351 C 0.35243 0.17468 0.02839 0.0
N1352 N 0.30709 0.13571 0.94514 0.0
N1353 N 0.39965 0.14551 0.06702 0.0
H1354 H 0.32655 0.22266 0.05117 0.0
H1355 H 0.3688 0.21069 0.07202 0.0
H1356 H 0.42033 0.12568 0.07218 0.0
H1357 H 0.39186 0.16058 0.09038 0.0
H1358 H 0.30719 0.11246 0.92797 0.0
H1359 H 0.28255 0.15147 0.94307 0.0
H1360 H 0.36263 0.09719 0.91963 0.0
H1361 H 0.39986 0.07994 0.94551 0.0
C1362 C 0.85215 0.33331 0.03204 0.0
C1363 C 0.83625 0.32617 0.99655 0.0
C1364 C 0.87063 0.37985 0.97151 0.0
C1365 C 0.89002 0.38391 0.00542 0.0
N1366 N 0.9039 0.36023 0.0664 0.0
N1367 N 0.83864 0.33733 0.93064 0.0
C1368 C 0.88257 0.35898 0.03505 0.0
C1369 C 0.84802 0.34789 0.96577 0.0
N1370 N 0.83665 0.31847 0.06333 0.0
N1371 N 0.87349 0.40644 0.94459 0.0
H1372 H 0.82374 0.31299 0.92489 0.0
H1373 H 0.8493 0.35035 0.90708 0.0
H1374 H 0.89114 0.42945 0.94669 0.0
H1375 H 0.85623 0.40687 0.92134 0.0
H1376 H 0.84502 0.32615 0.08984 0.0
H1377 H 0.81271 0.30199 0.06347 0.0
H1378 H 0.9023 0.3401 0.08718 0.0
H1379 H 0.92512 0.37981 0.07041 0.0
C1380 C 0.67872 0.84698 0.97371 0.0
C1381 C 0.68362 0.8237 0.00506 0.0
C1382 C 0.63322 0.85675 0.03764 0.0
C1383 C 0.62898 0.88093 0.00676 0.0
N1384 N 0.65134 0.90302 0.94753 0.0
N1385 N 0.67226 0.81154 0.06953 0.0
C1386 C 0.65315 0.87748 0.97559 0.0
C1387 C 0.66299 0.83037 0.03792 0.0
N1388 N 0.69701 0.83868 0.94152 0.0
N1389 N 0.60829 0.85832 0.06636 0.0
H1390 H 0.69414 0.79221 0.07052 0.0
H1391 H 0.66089 0.81756 0.09536 0.0
H1392 H 0.58704 0.87818 0.06812 0.0
H1393 H 0.60717 0.83857 0.08747 0.0
H1394 H 0.6911 0.85139 0.91628 0.0
H1395 H 0.71685 0.8174 0.93959 0.0
H1396 H 0.67093 0.90463 0.92623 0.0
H1397 H 0.6313 0.92413 0.9465 0.0
C1398 C 0.85348 0.66294 0.05643 0.0
C1399 C 0.84032 0.6844 0.02599 0.0
C1400 C 0.88303 0.64902 0.98557 0.0
C1401 C 0.89113 0.62425 0.01513 0.0
N1402 N 0.87704 0.60348 0.07711 0.0
N1403 N 0.83679 0.69016 0.95894 0.0
C1404 C 0.8739 0.62974 0.04993 0.0
C1405 C 0.85361 0.67571 0.98971 0.0
N1406 N 0.84783 0.67497 0.09186 0.0
N1407 N 0.90296 0.64687 0.95338 0.0
H1408 H 0.81335 0.70725 0.95954 0.0
H1409 H 0.84345 0.68145 0.93226 0.0
H1410 H 0.9238 0.62696 0.94897 0.0
H1411 H 0.90079 0.66669 0.93236 0.0
H1412 H 0.85983 0.66192 0.11478 0.0
H1413 H 0.83515 0.70041 0.09811 0.0
H1414 H 0.86131 0.6045 0.1014 0.0
H1415 H 0.89298 0.57936 0.07417 0.0
C1416 C 0.34944 0.83385 0.99833 0.0
C1417 C 0.32403 0.83913 0.02829 0.0
C1418 C 0.3603 0.89311 0.04904 0.0
C1419 C 0.38529 0.88869 0.01866 0.0
N1420 N 0.39935 0.85958 0.96023 0.0
N1421 N 0.2995 0.87906 0.07571 0.0
C1422 C 0.37862 0.86041 0.99205 0.0
C1423 C 0.32767 0.87057 0.05146 0.0
N1424 N 0.34685 0.80276 0.9768 0.0
N1425 N 0.36882 0.91735 0.07689 0.0
H1426 H 0.27501 0.86319 0.07775 0.0
H1427 H 0.29853 0.90373 0.0908 0.0
H1428 H 0.39324 0.93322 0.07719 0.0
H1429 H 0.35381 0.91886 0.10155 0.0
H1430 H 0.36767 0.79454 0.95831 0.0
H1431 H 0.32452 0.7842 0.9783 0.0
H1432 H 0.39304 0.8425 0.93784 0.0
H1433 H 0.4211 0.87824 0.95478 0.0
C1434 C 0.66262 0.17557 0.98017 0.0
C1435 C 0.6851 0.18064 0.01213 0.0
C1436 C 0.66326 0.12053 0.03635 0.0
C1437 C 0.63547 0.11912 0.0081 0.0
N1438 N 0.60972 0.14434 0.95165 0.0
N1439 N 0.70556 0.15927 0.07201 0.0
C1440 C 0.63562 0.14631 0.97943 0.0
C1441 C 0.68556 0.15319 0.04033 0.0
N1442 N 0.66759 0.19861 0.9504 0.0
N1443 N 0.66865 0.09082 0.05938 0.0
H1444 H 0.72285 0.1824 0.07571 0.0
H1445 H 0.70301 0.14273 0.09559 0.0
H1446 H 0.65276 0.06659 0.05817 0.0
H1447 H 0.69124 0.08879 0.07755 0.0
H1448 H 0.65467 0.19463 0.92492 0.0
H1449 H 0.68752 0.21994 0.95018 0.0
H1450 H 0.60504 0.16564 0.93262 0.0
H1451 H 0.59171 0.12171 0.94843 0.0
C1452 C 0.55025 0.6809 0.8662 0.0
C1453 C 0.53325 0.67568 0.83108 0.0
C1454 C 0.50438 0.61773 0.85419 0.0
C1455 C 0.52007 0.62346 0.89031 0.0
N1456 N 0.55257 0.66664 0.93126 0.0
N1457 N 0.48357 0.64567 0.79676 0.0
C1458 C 0.54088 0.65707 0.89657 0.0
C1459 C 0.50708 0.64623 0.82658 0.0
N1460 N 0.5769 0.70807 0.87043 0.0
N1461 N 0.48717 0.58494 0.84526 0.0
H1462 H 0.48264 0.66655 0.77686 0.0
H1463 H 0.4613 0.62699 0.79434 0.0
H1464 H 0.48032 0.56415 0.86402 0.0
H1465 H 0.48112 0.57744 0.81808 0.0
H1466 H 0.59471 0.70961 0.89322 0.0
H1467 H 0.58293 0.72795 0.85017 0.0
H1468 H 0.5617 0.69336 0.93799 0.0
H1469 H 0.55253 0.64888 0.95386 0.0
C1470 C 0.35532 0.55374 0.84662 0.0
C1471 C 0.33372 0.52177 0.83776 0.0
C1472 C 0.36569 0.48641 0.88633 0.0
C1473 C 0.38942 0.51722 0.89382 0.0
N1474 N 0.40881 0.57994 0.87917 0.0
N1475 N 0.32518 0.45546 0.84236 0.0
C1476 C 0.38516 0.55071 0.87297 0.0
C1477 C 0.34152 0.48734 0.85525 0.0
N1478 N 0.34604 0.58728 0.83117 0.0
N1479 N 0.36435 0.45701 0.91019 0.0
H1480 H 0.30736 0.45534 0.81945 0.0
H1481 H 0.33234 0.42897 0.85194 0.0
H1482 H 0.38045 0.45585 0.93411 0.0
H1483 H 0.34412 0.4361 0.90849 0.0
H1484 H 0.3574 0.61263 0.83948 0.0
H1485 H 0.32537 0.58986 0.81088 0.0
H1486 H 0.40973 0.60375 0.8627 0.0
H1487 H 0.42903 0.57962 0.9 0.0
C1488 C 0.536 0.35342 0.83799 0.0
C1489 C 0.50809 0.3253 0.83942 0.0
C1490 C 0.48323 0.35265 0.89644 0.0
C1491 C 0.50905 0.38291 0.89386 0.0
N1492 N 0.55577 0.415 0.8567 0.0
N1493 N 0.44804 0.30601 0.86288 0.0
C1494 C 0.53376 0.38446 0.86267 0.0
C1495 C 0.47929 0.32779 0.86623 0.0
N1496 N 0.56595 0.34954 0.81472 0.0
N1497 N 0.46332 0.34618 0.92804 0.0
H1498 H 0.44407 0.28821 0.84042 0.0
H1499 H 0.42458 0.30888 0.87989 0.0
H1500 H 0.46474 0.36289 0.95135 0.0
H1501 H 0.44759 0.32203 0.93224 0.0
H1502 H 0.5896 0.36658 0.81583 0.0
H1503 H 0.56843 0.32759 0.79606 0.0
H1504 H 0.57071 0.41933 0.83228 0.0
H1505 H 0.55752 0.43715 0.875 0.0
C1506 C 0.66872 0.52306 0.84317 0.0
C1507 C 0.68743 0.48856 0.83755 0.0
C1508 C 0.64528 0.45845 0.88274 0.0
C1509 C 0.62894 0.49364 0.89071 0.0
N1510 N 0.61658 0.55658 0.8707 0.0
N1511 N 0.69388 0.4232 0.85095 0.0
C1512 C 0.63803 0.52508 0.86845 0.0
C1513 C 0.67528 0.45603 0.85663 0.0
N1514 N 0.68191 0.55448 0.82606 0.0
N1515 N 0.63078 0.42713 0.89892 0.0
H1516 H 0.71432 0.42013 0.83049 0.0
H1517 H 0.69024 0.39942 0.86708 0.0
H1518 H 0.60898 0.42801 0.91818 0.0
H1519 H 0.6382 0.4001 0.8916 0.0
H1520 H 0.67325 0.58134 0.83274 0.0
H1521 H 0.70325 0.55394 0.80633 0.0
H1522 H 0.61895 0.57907 0.85262 0.0
H1523 H 0.59394 0.55906 0.88873 0.0
C1524 C 0.51089 0.37029 0.20261 0.0
C1525 C 0.52653 0.33521 0.19308 0.0
C1526 C 0.51221 0.34825 0.12791 0.0
C1527 C 0.50552 0.38646 0.13583 0.0
N1528 N 0.49061 0.43177 0.18357 0.0
N1529 N 0.54772 0.29368 0.14449 0.0
C1530 C 0.5023 0.39683 0.17408 0.0
C1531 C 0.52909 0.32515 0.15515 0.0
N1532 N 0.50433 0.37843 0.23897 0.0
N1533 N 0.49977 0.3328 0.09571 0.0
H1534 H 0.56132 0.27582 0.1628 0.0
H1535 H 0.5529 0.28749 0.11678 0.0
H1536 H 0.48094 0.34637 0.07826 0.0
H1537 H 0.50237 0.30445 0.08994 0.0
H1538 H 0.48852 0.40112 0.24781 0.0
H1539 H 0.51299 0.36132 0.26066 0.0
H1540 H 0.4947 0.44338 0.20961 0.0
H1541 H 0.47592 0.44917 0.16573 0.0
C1542 C 0.66716 0.54434 0.17781 0.0
C1543 C 0.68703 0.51138 0.18711 0.0
C1544 C 0.65063 0.47617 0.14121 0.0
C1545 C 0.63065 0.5091 0.13193 0.0
N1546 N 0.61364 0.57235 0.14692 0.0
N1547 N 0.692 0.44463 0.1846 0.0
C1548 C 0.63682 0.54247 0.15217 0.0
C1549 C 0.67669 0.47681 0.17106 0.0
N1550 N 0.67858 0.57772 0.19202 0.0
N1551 N 0.64532 0.4445 0.12093 0.0
H1552 H 0.71093 0.44448 0.20663 0.0
H1553 H 0.68352 0.4181 0.17654 0.0
H1554 H 0.62578 0.44279 0.09957 0.0
H1555 H 0.66183 0.4207 0.1235 0.0
H1556 H 0.66856 0.60338 0.18281 0.0
H1557 H 0.69972 0.57983 0.21185 0.0
H1558 H 0.61409 0.59604 0.16349 0.0
H1559 H 0.59203 0.57238 0.12752 0.0
C1560 C 0.48219 0.65894 0.182 0.0
C1561 C 0.51472 0.68135 0.1863 0.0
C1562 C 0.54515 0.64817 0.13495 0.0
C1563 C 0.51307 0.62494 0.13114 0.0
N1564 N 0.45352 0.60382 0.1554 0.0
N1565 N 0.58011 0.69127 0.17352 0.0
C1566 C 0.48253 0.62872 0.15633 0.0
C1567 C 0.54719 0.67379 0.16491 0.0
N1568 N 0.4502 0.66792 0.20084 0.0
N1569 N 0.57337 0.64652 0.10943 0.0
H1570 H 0.58227 0.70995 0.19552 0.0
H1571 H 0.60579 0.6846 0.16146 0.0
H1572 H 0.57379 0.62726 0.08793 0.0
H1573 H 0.59517 0.6658 0.10809 0.0
H1574 H 0.42412 0.65605 0.1954 0.0
H1575 H 0.44929 0.68896 0.22067 0.0
H1576 H 0.43276 0.60239 0.17563 0.0
H1577 H 0.45125 0.58301 0.13549 0.0
C1578 C 0.3416 0.52679 0.17117 0.0
C1579 C 0.34145 0.49398 0.19352 0.0
C1580 C 0.39038 0.46667 0.15417 0.0
C1581 C 0.39229 0.50007 0.13325 0.0
N1582 N 0.37342 0.56386 0.12427 0.0
N1583 N 0.3715 0.43654 0.21119 0.0
C1584 C 0.36902 0.53076 0.14255 0.0
C1585 C 0.36769 0.46516 0.18643 0.0
N1586 N 0.31444 0.55326 0.17571 0.0
N1587 N 0.40894 0.43566 0.14219 0.0
H1588 H 0.3558 0.43491 0.23551 0.0
H1589 H 0.39276 0.41668 0.20961 0.0
H1590 H 0.42616 0.43584 0.1189 0.0
H1591 H 0.40527 0.40929 0.15372 0.0
H1592 H 0.30997 0.57503 0.15715 0.0
H1593 H 0.29482 0.55258 0.19694 0.0
H1594 H 0.3608 0.58865 0.13253 0.0
H1595 H 0.3919 0.56712 0.10212 0.0
C1596 C 0.85364 0.4745 0.68284 0.0
C1597 C 0.82797 0.50483 0.68038 0.0
C1598 C 0.86565 0.53195 0.6303 0.0
C1599 C 0.89035 0.50083 0.63114 0.0
N1600 N 0.90291 0.43878 0.65313 0.0
N1601 N 0.80443 0.55701 0.64566 0.0
C1602 C 0.88296 0.47104 0.65604 0.0
C1603 C 0.83243 0.53174 0.65207 0.0
N1604 N 0.85114 0.44972 0.71144 0.0
N1605 N 0.87494 0.56279 0.61014 0.0
H1606 H 0.7795 0.55723 0.66085 0.0
H1607 H 0.80411 0.57494 0.62297 0.0
H1608 H 0.89987 0.56482 0.59523 0.0
H1609 H 0.85995 0.58766 0.61143 0.0
H1610 H 0.87204 0.4304 0.71764 0.0
H1611 H 0.82904 0.44953 0.73019 0.0
H1612 H 0.89637 0.41453 0.66766 0.0
H1613 H 0.92369 0.43517 0.63326 0.0
C1614 C 0.48576 0.8363 0.66999 0.0
C1615 C 0.51812 0.8337 0.69273 0.0
C1616 C 0.54707 0.88572 0.65844 0.0
C1617 C 0.51528 0.88753 0.63473 0.0
N1618 N 0.45718 0.86013 0.61382 0.0
N1619 N 0.58268 0.84997 0.7035 0.0
C1620 C 0.48564 0.86122 0.63909 0.0
C1621 C 0.54974 0.85663 0.68527 0.0
N1622 N 0.45436 0.81638 0.67906 0.0
N1623 N 0.5746 0.91213 0.65576 0.0
H1624 H 0.58558 0.82866 0.72299 0.0
H1625 H 0.60794 0.86299 0.69691 0.0
H1626 H 0.57497 0.93256 0.63525 0.0
H1627 H 0.59601 0.91519 0.67511 0.0
H1628 H 0.42832 0.82048 0.66665 0.0
H1629 H 0.45369 0.79726 0.70082 0.0
H1630 H 0.43721 0.83897 0.61289 0.0
H1631 H 0.4549 0.87908 0.5921 0.0
C1632 C 0.19384 0.47606 0.65222 0.0
C1633 C 0.19662 0.50453 0.67913 0.0
C1634 C 0.14533 0.53842 0.64829 0.0
C1635 C 0.13814 0.50684 0.62584 0.0
N1636 N 0.15635 0.44557 0.60542 0.0
N1637 N 0.17364 0.56261 0.70414 0.0
C1638 C 0.16294 0.47582 0.62726 0.0
C1639 C 0.17238 0.53597 0.67728 0.0
N1640 N 0.22142 0.44963 0.65015 0.0
N1641 N 0.12748 0.57128 0.64095 0.0
H1642 H 0.19355 0.56278 0.72515 0.0
H1643 H 0.1535 0.58346 0.70679 0.0
H1644 H 0.10755 0.57401 0.61998 0.0
H1645 H 0.13463 0.59641 0.65347 0.0
H1646 H 0.2234 0.43007 0.62903 0.0
H1647 H 0.24466 0.44957 0.66772 0.0
H1648 H 0.17044 0.42031 0.60813 0.0
H1649 H 0.13509 0.44506 0.58576 0.0
C1650 C 0.49215 0.16258 0.68264 0.0
C1651 C 0.52063 0.18996 0.67786 0.0
C1652 C 0.54282 0.15774 0.62225 0.0
C1653 C 0.51398 0.13053 0.62634 0.0
N1654 N 0.45649 0.11143 0.6562 0.0
N1655 N 0.56633 0.21903 0.63849 0.0
C1656 C 0.48725 0.13422 0.65535 0.0
C1657 C 0.54368 0.18921 0.64606 0.0
N1658 N 0.47074 0.16265 0.71396 0.0
N1659 N 0.57094 0.15241 0.59711 0.0
H1660 H 0.56723 0.24259 0.65537 0.0
H1661 H 0.58106 0.22218 0.6138 0.0
H1662 H 0.57241 0.12916 0.58008 0.0
H1663 H 0.59485 0.16903 0.59568 0.0
H1664 H 0.45347 0.14058 0.7218 0.0
H1665 H 0.47128 0.18429 0.73303 0.0
H1666 H 0.43384 0.11538 0.67395 0.0
H1667 H 0.45192 0.09034 0.63696 0.0
C1668 C 0.82571 0.48343 0.37764 0.0
C1669 C 0.82589 0.50671 0.34616 0.0
C1670 C 0.88263 0.53809 0.36965 0.0
C1671 C 0.88566 0.51072 0.39806 0.0
N1672 N 0.86202 0.45388 0.42569 0.0
N1673 N 0.85446 0.55641 0.31122 0.0
C1674 C 0.85741 0.48277 0.40146 0.0
C1675 C 0.8541 0.53444 0.34209 0.0
N1676 N 0.79494 0.46177 0.38467 0.0
N1677 N 0.90617 0.56819 0.36964 0.0
H1678 H 0.83255 0.55668 0.29219 0.0
H1679 H 0.87697 0.57336 0.30381 0.0
H1680 H 0.92708 0.57209 0.3894 0.0
H1681 H 0.90291 0.59103 0.35213 0.0
H1682 H 0.79118 0.44688 0.40915 0.0
H1683 H 0.77131 0.46195 0.3676 0.0
H1684 H 0.84429 0.43085 0.42682 0.0
H1685 H 0.88578 0.45082 0.44203 0.0
C1686 C 0.52868 0.85271 0.33723 0.0
C1687 C 0.50587 0.82136 0.34453 0.0
C1688 C 0.49425 0.84482 0.40735 0.0
C1689 C 0.51207 0.87968 0.39812 0.0
N1690 N 0.54544 0.91612 0.3517 0.0
N1691 N 0.46703 0.78642 0.38596 0.0
C1692 C 0.52909 0.88337 0.36236 0.0
C1693 C 0.48923 0.8169 0.37964 0.0
N1694 N 0.5511 0.85258 0.30657 0.0
N1695 N 0.48134 0.83805 0.44229 0.0
H1696 H 0.46465 0.76461 0.36705 0.0
H1697 H 0.44993 0.78313 0.40906 0.0
H1698 H 0.47743 0.85833 0.46219 0.0
H1699 H 0.47479 0.81152 0.45207 0.0
H1700 H 0.57146 0.8727 0.30116 0.0
H1701 H 0.55252 0.82979 0.28881 0.0
H1702 H 0.55268 0.92208 0.32441 0.0
H1703 H 0.55051 0.93836 0.36925 0.0
C1704 C 0.17005 0.47682 0.34648 0.0
C1705 C 0.18485 0.51144 0.33423 0.0
C1706 C 0.15148 0.54334 0.38448 0.0
C1707 C 0.13163 0.50993 0.39244 0.0
N1708 N 0.12335 0.44399 0.38315 0.0
N1709 N 0.18904 0.5781 0.34027 0.0
C1710 C 0.14155 0.4763 0.3742 0.0
C1711 C 0.17578 0.5448 0.3532 0.0
N1712 N 0.18345 0.44454 0.33137 0.0
N1713 N 0.14773 0.57344 0.40727 0.0
H1714 H 0.20808 0.57998 0.31842 0.0
H1715 H 0.17964 0.60382 0.34983 0.0
H1716 H 0.13011 0.57338 0.4303 0.0
H1717 H 0.16419 0.59733 0.40513 0.0
H1718 H 0.17641 0.418 0.34068 0.0
H1719 H 0.20435 0.44432 0.31114 0.0
H1720 H 0.12651 0.41903 0.36893 0.0
H1721 H 0.10319 0.44248 0.40402 0.0
C1722 C 0.47433 0.14868 0.33311 0.0
C1723 C 0.5019 0.17713 0.33055 0.0
C1724 C 0.52316 0.15944 0.39274 0.0
C1725 C 0.50269 0.1251 0.39086 0.0
N1726 N 0.45812 0.08773 0.35631 0.0
N1727 N 0.55723 0.20534 0.35707 0.0
C1728 C 0.47812 0.11991 0.36012 0.0
C1729 C 0.52742 0.18162 0.36024 0.0
N1730 N 0.44402 0.14954 0.30999 0.0
N1731 N 0.538 0.17204 0.42516 0.0
H1732 H 0.56256 0.22119 0.3335 0.0
H1733 H 0.57868 0.20642 0.37666 0.0
H1734 H 0.5362 0.15816 0.45027 0.0
H1735 H 0.54941 0.19869 0.42769 0.0
H1736 H 0.42119 0.13157 0.31269 0.0
H1737 H 0.43988 0.17098 0.29086 0.0
H1738 H 0.44361 0.08091 0.33224 0.0
H1739 H 0.45747 0.06693 0.37624 0.0
C1740 C 0.68386 0.8511 0.49114 0.0
C1741 C 0.69186 0.8327 0.52498 0.0
C1742 C 0.6397 0.86617 0.55458 0.0
C1743 C 0.63514 0.88809 0.52203 0.0
N1744 N 0.65571 0.90421 0.46051 0.0
N1745 N 0.67976 0.82438 0.58994 0.0
C1746 C 0.65801 0.88128 0.49062 0.0
C1747 C 0.67015 0.84039 0.55695 0.0
N1748 N 0.70078 0.83925 0.45933 0.0
N1749 N 0.61509 0.87013 0.58327 0.0
H1750 H 0.70107 0.80458 0.59231 0.0
H1751 H 0.66817 0.83218 0.61519 0.0
H1752 H 0.59377 0.89 0.58328 0.0
H1753 H 0.6143 0.85234 0.60604 0.0
H1754 H 0.69361 0.84901 0.43313 0.0
H1755 H 0.71949 0.81687 0.45879 0.0
H1756 H 0.67474 0.90354 0.43866 0.0
H1757 H 0.63652 0.926 0.45867 0.0
C1758 C 0.66642 0.1742 0.47263 0.0
C1759 C 0.68691 0.18213 0.50523 0.0
C1760 C 0.65064 0.13541 0.53949 0.0
C1761 C 0.62911 0.12809 0.50727 0.0
N1762 N 0.61306 0.14359 0.44433 0.0
N1763 N 0.69276 0.17769 0.57128 0.0
C1764 C 0.63564 0.14885 0.47432 0.0
C1765 C 0.67686 0.16521 0.53923 0.0
N1766 N 0.67779 0.18934 0.43975 0.0
N1767 N 0.64721 0.11299 0.56992 0.0
H1768 H 0.71205 0.19959 0.57171 0.0
H1769 H 0.68415 0.16901 0.59744 0.0
H1770 H 0.62795 0.09123 0.5716 0.0
H1771 H 0.66518 0.11429 0.59259 0.0
H1772 H 0.6675 0.18115 0.4141 0.0
H1773 H 0.69919 0.2091 0.43796 0.0
H1774 H 0.61419 0.15989 0.42053 0.0
H1775 H 0.59183 0.12365 0.44377 0.0
C1776 C 0.83094 0.64192 0.48108 0.0
C1777 C 0.82358 0.6692 0.50841 0.0
C1778 C 0.87791 0.64617 0.54404 0.0
C1779 C 0.88792 0.62254 0.51423 0.0
N1780 N 0.87661 0.60183 0.45182 0.0
N1781 N 0.84195 0.69886 0.56581 0.0
C1782 C 0.86503 0.62141 0.48211 0.0
C1783 C 0.84738 0.67166 0.54004 0.0
N1784 N 0.80467 0.63499 0.45439 0.0
N1785 N 0.89649 0.6431 0.57687 0.0
H1786 H 0.8182 0.7155 0.56688 0.0
H1787 H 0.86186 0.70581 0.58572 0.0
H1788 H 0.91818 0.62412 0.58086 0.0
H1789 H 0.88814 0.65643 0.60106 0.0
H1790 H 0.80651 0.61287 0.43588 0.0
H1791 H 0.77898 0.64894 0.45331 0.0
H1792 H 0.86328 0.60328 0.42624 0.0
H1793 H 0.90177 0.58705 0.45112 0.0
C1794 C 0.34861 0.8397 0.53156 0.0
C1795 C 0.34668 0.82083 0.49688 0.0
C1796 C 0.39234 0.86487 0.47069 0.0
C1797 C 0.39608 0.88216 0.50563 0.0
N1798 N 0.38023 0.88544 0.57015 0.0
N1799 N 0.37224 0.81074 0.43606 0.0
C1800 C 0.375 0.86928 0.53635 0.0
C1801 C 0.37035 0.83206 0.46732 0.0
N1802 N 0.32399 0.8311 0.55926 0.0
N1803 N 0.40861 0.88082 0.44031 0.0
H1804 H 0.35747 0.7858 0.43315 0.0
H1805 H 0.39095 0.81573 0.41452 0.0
H1806 H 0.42527 0.90465 0.44189 0.0
H1807 H 0.40363 0.87203 0.41335 0.0
H1808 H 0.32018 0.84741 0.58272 0.0
H1809 H 0.30593 0.80846 0.55853 0.0
H1810 H 0.36968 0.87462 0.59478 0.0
H1811 H 0.3971 0.90889 0.57387 0.0
C1812 C 0.18159 0.35071 0.48021 0.0
C1813 C 0.18598 0.32852 0.51234 0.0
C1814 C 0.13959 0.36677 0.54515 0.0
C1815 C 0.13433 0.38835 0.51256 0.0
N1816 N 0.15911 0.4085 0.45371 0.0
N1817 N 0.17696 0.32027 0.57769 0.0
C1818 C 0.15823 0.38282 0.48158 0.0
C1819 C 0.16754 0.33835 0.54568 0.0
N1820 N 0.19822 0.34007 0.44784 0.0
N1821 N 0.11773 0.37336 0.57547 0.0
H1822 H 0.19754 0.29958 0.5786 0.0
H1823 H 0.16705 0.32761 0.60372 0.0
H1824 H 0.09773 0.39455 0.57634 0.0
H1825 H 0.11794 0.35705 0.59928 0.0
H1826 H 0.19216 0.35227 0.42237 0.0
H1827 H 0.2165 0.31743 0.44607 0.0
H1828 H 0.17866 0.40794 0.43229 0.0
H1829 H 0.14279 0.43253 0.45397 0.0
C1830 C 0.33599 0.15979 0.49763 0.0
C1831 C 0.34042 0.18589 0.52668 0.0
C1832 C 0.39492 0.15086 0.54974 0.0
C1833 C 0.3895 0.12375 0.52146 0.0
N1834 N 0.34866 0.09785 0.47477 0.0
N1835 N 0.37691 0.21047 0.57668 0.0
C1836 C 0.35831 0.12689 0.49717 0.0
C1837 C 0.37077 0.18253 0.55171 0.0
N1838 N 0.31145 0.16705 0.46952 0.0
N1839 N 0.42148 0.14473 0.57635 0.0
H1840 H 0.35998 0.23417 0.57803 0.0
H1841 H 0.4001 0.21207 0.59403 0.0
H1842 H 0.43757 0.12056 0.57731 0.0
H1843 H 0.42559 0.16152 0.59936 0.0
H1844 H 0.30972 0.15102 0.44561 0.0
H1845 H 0.29615 0.19164 0.46775 0.0
H1846 H 0.32352 0.09669 0.46013 0.0
H1847 H 0.36381 0.07318 0.47322 0.0
C1848 C 0.83703 0.36271 0.54489 0.0
C1849 C 0.83003 0.33656 0.51652 0.0
C1850 C 0.87944 0.36586 0.47881 0.0
C1851 C 0.88997 0.38808 0.50949 0.0
N1852 N 0.88223 0.40319 0.57394 0.0
N1853 N 0.84769 0.31034 0.45739 0.0
C1854 C 0.86952 0.38545 0.54305 0.0
C1855 C 0.8518 0.33747 0.48349 0.0
N1856 N 0.81219 0.36615 0.57351 0.0
N1857 N 0.8949 0.37261 0.44493 0.0
H1858 H 0.8274 0.28959 0.45892 0.0
H1859 H 0.86615 0.30698 0.4353 0.0
H1860 H 0.91479 0.39346 0.44058 0.0
H1861 H 0.8855 0.36008 0.42068 0.0
H1862 H 0.81372 0.38734 0.59311 0.0
H1863 H 0.78773 0.35023 0.57536 0.0
H1864 H 0.87076 0.39874 0.60005 0.0
H1865 H 0.90663 0.4192 0.57412 0.0
C1866 C 0.18455 0.65959 0.5414 0.0
C1867 C 0.18648 0.6842 0.51076 0.0
C1868 C 0.13498 0.65054 0.48051 0.0
C1869 C 0.13327 0.62554 0.51096 0.0
N1870 N 0.16286 0.60052 0.56576 0.0
N1871 N 0.17076 0.69759 0.44742 0.0
C1872 C 0.16028 0.6281 0.53982 0.0
C1873 C 0.16395 0.67779 0.47907 0.0
N1874 N 0.20423 0.6674 0.57288 0.0
N1875 N 0.10861 0.64862 0.45317 0.0
H1876 H 0.19216 0.71738 0.44555 0.0
H1877 H 0.15784 0.69201 0.42222 0.0
H1878 H 0.08836 0.62773 0.45209 0.0
H1879 H 0.10549 0.66881 0.43267 0.0
H1880 H 0.20026 0.65327 0.59776 0.0
H1881 H 0.22281 0.68976 0.57492 0.0
H1882 H 0.18461 0.5988 0.58493 0.0
H1883 H 0.14508 0.57756 0.56624 0.0
loop_
_geom_bond_atom_site_label_1
_geom_bond_atom_site_label_2
_geom_bond_distance
_geom_bond_site_symmetry_2
_ccdc_geom_bond_type
H0 C5 0.930 1_655 S
H1 C8 0.929 1_655 S
H2 C10 0.930 . S
H3 C4 1.016 . S
C4 H3 1.016 . S
C4 N11 1.286 1_455 S
C5 H0 0.930 1_455 S
C5 C6 1.396 . S
C5 C7 1.361 1_455 S
C6 C5 1.396 . S
C6 C10 1.390 . S
C7 C5 1.361 1_655 S
C7 C8 1.393 1_655 S
C7 N11 1.413 . S
C8 H1 0.929 1_455 S
C8 C7 1.393 1_455 S
C8 C9 1.399 . S
C9 C8 1.399 . S
C9 C10 1.381 . S
C10 H2 0.930 . S
C10 C6 1.390 . S
C10 C9 1.381 . S
N11 C4 1.286 1_655 S
N11 C7 1.413 . S
H12 C17 0.930 . S
H13 C20 0.930 . S
H14 C22 0.930 . S
H15 C16 1.024 . S
C16 H15 1.024 . S
C16 N23 1.275 1_565 S
C17 H12 0.930 . S
C17 C18 1.397 . S
C17 C19 1.361 . S
C18 C17 1.397 . S
C18 C22 1.390 1_545 S
C19 C17 1.361 . S
C19 C20 1.393 . S
C19 N23 1.413 . S
C20 H13 0.930 . S
C20 C19 1.393 . S
C20 C21 1.399 . S
C21 C20 1.399 . S
C21 C22 1.381 1_545 S
C22 H14 0.930 . S
C22 C18 1.390 1_565 S
C22 C21 1.381 1_565 S
N23 C16 1.275 1_545 S
N23 C19 1.413 . S
H24 C29 0.931 . S
H25 C32 0.931 . S
H26 C34 0.930 . S
H27 C28 1.016 . S
C28 H27 1.016 . S
C28 N35 1.286 1_455 S
C29 H24 0.931 . S
C29 C30 1.395 1_655 S
C29 C31 1.362 . S
C30 C29 1.395 1_455 S
C30 C34 1.390 . S
C31 C29 1.362 . S
C31 C32 1.393 1_655 S
C31 N35 1.413 . S
C32 H25 0.931 . S
C32 C31 1.393 1_455 S
C32 C33 1.399 . S
C33 C32 1.399 . S
C33 C34 1.381 . S
C34 H26 0.930 . S
C34 C30 1.390 . S
C34 C33 1.381 . S
N35 C28 1.286 1_655 S
N35 C31 1.413 . S
H36 C41 0.930 . S
H37 C44 0.930 . S
H38 C46 0.930 . S
H39 C40 1.016 . S
C40 H39 1.016 . S
C40 N47 1.286 1_545 S
C41 H36 0.930 . S
C41 C42 1.397 . S
C41 C43 1.361 . S
C42 C41 1.397 . S
C42 C46 1.390 1_565 S
C43 C41 1.361 . S
C43 C44 1.393 . S
C43 N47 1.413 . S
C44 H37 0.930 . S
C44 C43 1.393 . S
C44 C45 1.401 . S
C45 C44 1.401 . S
C45 C46 1.379 1_565 S
C46 H38 0.930 . S
C46 C42 1.390 1_545 S
C46 C45 1.379 1_545 S
N47 C40 1.286 1_565 S
N47 C43 1.413 . S
H48 C53 0.930 1_655 S
H49 C56 0.929 1_655 S
H50 C58 0.930 . S
H51 C52 1.016 . S
C52 H51 1.016 . S
C52 N59 1.286 1_455 S
C53 H48 0.930 1_455 S
C53 C54 1.397 . S
C53 C55 1.361 1_455 S
C54 C53 1.397 . S
C54 C58 1.390 . S
C55 C53 1.361 1_655 S
C55 C56 1.393 1_655 S
C55 N59 1.413 . S
C56 H49 0.929 1_455 S
C56 C55 1.393 1_455 S
C56 C57 1.399 . S
C57 C56 1.399 . S
C57 C58 1.381 . S
C58 H50 0.930 . S
C58 C54 1.390 . S
C58 C57 1.381 . S
N59 C52 1.286 1_655 S
N59 C55 1.413 . S
H60 C65 0.930 . S
H61 C68 0.930 . S
H62 C70 0.930 . S
H63 C64 1.021 . S
C64 H63 1.021 . S
C64 N71 1.279 1_565 S
C65 H60 0.930 . S
C65 C66 1.397 . S
C65 C67 1.361 . S
C66 C65 1.397 . S
C66 C70 1.390 1_545 S
C67 C65 1.361 . S
C67 C68 1.393 . S
C67 N71 1.413 . S
C68 H61 0.930 . S
C68 C67 1.393 . S
C68 C69 1.399 . S
C69 C68 1.399 . S
C69 C70 1.381 1_545 S
C70 H62 0.930 . S
C70 C66 1.390 1_565 S
C70 C69 1.381 1_565 S
N71 C64 1.279 1_545 S
N71 C67 1.413 . S
H72 C77 0.930 . S
H73 C80 0.931 . S
H74 C82 0.930 . S
H75 C76 1.016 . S
C76 H75 1.016 . S
C76 N83 1.286 1_455 S
C77 H72 0.930 . S
C77 C78 1.397 1_655 S
C77 C79 1.361 . S
C78 C77 1.397 1_455 S
C78 C82 1.390 . S
C79 C77 1.361 . S
C79 C80 1.393 1_655 S
C79 N83 1.413 . S
C80 H73 0.931 . S
C80 C79 1.393 1_455 S
C80 C81 1.399 . S
C81 C80 1.399 . S
C81 C82 1.381 . S
C82 H74 0.930 . S
C82 C78 1.390 . S
C82 C81 1.381 . S
N83 C76 1.286 1_655 S
N83 C79 1.413 . S
H84 C89 0.930 . S
H85 C92 0.930 . S
H86 C94 0.930 . S
H87 C88 1.022 . S
C88 H87 1.022 . S
C88 N95 1.277 1_565 S
C89 H84 0.930 . S
C89 C90 1.397 . S
C89 C91 1.361 . S
C90 C89 1.397 . S
C90 C94 1.390 1_545 S
C91 C89 1.361 . S
C91 C92 1.393 . S
C91 N95 1.413 . S
C92 H85 0.930 . S
C92 C91 1.393 . S
C92 C93 1.399 . S
C93 C92 1.399 . S
C93 C94 1.381 1_545 S
C94 H86 0.930 . S
C94 C90 1.390 1_565 S
C94 C93 1.381 1_565 S
N95 C88 1.277 1_545 S
N95 C91 1.413 . S
H96 C101 0.930 . S
H97 C104 0.930 . S
H98 C106 0.929 1_556 S
H99 C100 1.016 1_556 S
C100 H99 1.016 1_554 S
C100 N107 1.286 . S
C101 H96 0.930 . S
C101 C102 1.397 . S
C101 C103 1.361 . S
C102 C101 1.397 . S
C102 C106 1.390 . S
C103 C101 1.361 . S
C103 C104 1.393 . S
C103 N107 1.413 . S
C104 H97 0.930 . S
C104 C103 1.393 . S
C104 C105 1.399 . S
C105 C104 1.399 . S
C105 C106 1.381 . S
C106 H98 0.929 1_554 S
C106 C102 1.390 . S
C106 C105 1.381 . S
N107 C100 1.286 . S
N107 C103 1.413 . S
H108 C113 0.930 . S
H109 C116 0.930 1_556 S
H110 C118 0.930 . S
H111 C112 1.016 . S
C112 H111 1.016 . S
C112 N119 1.286 1_554 S
C113 H108 0.930 . S
C113 C114 1.397 1_556 S
C113 C115 1.361 . S
C114 C113 1.397 1_554 S
C114 C118 1.390 . S
C115 C113 1.361 . S
C115 C116 1.393 1_556 S
C115 N119 1.413 . S
C116 H109 0.930 1_554 S
C116 C115 1.393 1_554 S
C116 C117 1.399 . S
C117 C116 1.399 . S
C117 C118 1.381 . S
C118 H110 0.930 . S
C118 C114 1.390 . S
C118 C117 1.381 . S
N119 C112 1.286 1_556 S
N119 C115 1.413 . S
H120 C125 0.930 . S
H121 C128 0.930 . S
H122 C130 0.930 1_556 S
H123 C124 1.016 1_556 S
C124 H123 1.016 1_554 S
C124 N131 1.286 . S
C125 H120 0.930 . S
C125 C126 1.397 . S
C125 C127 1.361 . S
C126 C125 1.397 . S
C126 C130 1.390 . S
C127 C125 1.361 . S
C127 C128 1.393 . S
C127 N131 1.413 . S
C128 H121 0.930 . S
C128 C127 1.393 . S
C128 C129 1.399 . S
C129 C128 1.399 . S
C129 C130 1.381 . S
C130 H122 0.930 1_554 S
C130 C126 1.390 . S
C130 C129 1.381 . S
N131 C124 1.286 . S
N131 C127 1.413 . S
H132 C137 0.930 . S
H133 C140 0.929 1_556 S
H134 C142 0.930 . S
H135 C136 1.016 . S
C136 H135 1.016 . S
C136 N143 1.286 1_554 S
C137 H132 0.930 . S
C137 C138 1.397 1_556 S
C137 C139 1.361 . S
C138 C137 1.397 1_554 S
C138 C142 1.390 . S
C139 C137 1.361 . S
C139 C140 1.392 1_556 S
C139 N143 1.413 . S
C140 H133 0.929 1_554 S
C140 C139 1.392 1_554 S
C140 C141 1.401 . S
C141 C140 1.401 . S
C141 C142 1.381 . S
C142 H134 0.930 . S
C142 C138 1.390 . S
C142 C141 1.381 . S
N143 C136 1.286 1_556 S
N143 C139 1.413 . S
H144 C149 0.930 . S
H145 C152 0.930 . S
H146 C154 0.930 . S
H147 C148 1.016 . S
C148 H147 1.016 . S
C148 N155 1.286 . S
C149 H144 0.930 . S
C149 C150 1.397 . S
C149 C151 1.361 . S
C150 C149 1.397 . S
C150 C154 1.390 . S
C151 C149 1.361 . S
C151 C152 1.393 . S
C151 N155 1.413 . S
C152 H145 0.930 . S
C152 C151 1.393 . S
C152 C153 1.399 . S
C153 C152 1.399 . S
C153 C154 1.381 . S
C154 H146 0.930 . S
C154 C150 1.390 . S
C154 C153 1.381 . S
N155 C148 1.286 . S
N155 C151 1.413 . S
H156 C161 0.930 . S
H157 C164 0.930 . S
H158 C166 0.930 . S
H159 C160 1.016 . S
C160 H159 1.016 . S
C160 N167 1.286 . S
C161 H156 0.930 . S
C161 C162 1.397 . S
C161 C163 1.361 . S
C162 C161 1.397 . S
C162 C166 1.390 . S
C163 C161 1.361 . S
C163 C164 1.393 . S
C163 N167 1.413 . S
C164 H157 0.930 . S
C164 C163 1.393 . S
C164 C165 1.399 . S
C165 C164 1.399 . S
C165 C166 1.381 . S
C166 H158 0.930 . S
C166 C162 1.390 . S
C166 C165 1.381 . S
N167 C160 1.286 . S
N167 C163 1.413 . S
H168 C173 0.930 . S
H169 C176 0.930 . S
H170 C178 0.930 . S
H171 C172 1.016 . S
C172 H171 1.016 . S
C172 N179 1.286 . S
C173 H168 0.930 . S
C173 C174 1.397 . S
C173 C175 1.361 . S
C174 C173 1.397 . S
C174 C178 1.390 . S
C175 C173 1.361 . S
C175 C176 1.393 . S
C175 N179 1.413 . S
C176 H169 0.930 . S
C176 C175 1.393 . S
C176 C177 1.399 . S
C177 C176 1.399 . S
C177 C178 1.381 . S
C178 H170 0.930 . S
C178 C174 1.390 . S
C178 C177 1.381 . S
N179 C172 1.286 . S
N179 C175 1.413 . S
H180 C185 0.930 . S
H181 C188 0.930 . S
H182 C190 0.930 . S
H183 C184 1.016 . S
C184 H183 1.016 . S
C184 N191 1.286 . S
C185 H180 0.930 . S
C185 C186 1.397 . S
C185 C187 1.361 . S
C186 C185 1.397 . S
C186 C190 1.390 . S
C187 C185 1.361 . S
C187 C188 1.393 . S
C187 N191 1.413 . S
C188 H181 0.930 . S
C188 C187 1.393 . S
C188 C189 1.399 . S
C189 C188 1.399 . S
C189 C190 1.381 . S
C190 H182 0.930 . S
C190 C186 1.390 . S
C190 C189 1.381 . S
N191 C184 1.286 . S
N191 C187 1.413 . S
H192 C197 0.930 . S
H193 C200 0.930 . S
H194 C202 0.930 . S
H195 C196 1.016 . S
C196 H195 1.016 . S
C196 N203 1.286 . S
C197 H192 0.930 . S
C197 C198 1.397 . S
C197 C199 1.361 . S
C198 C197 1.397 . S
C198 C202 1.390 . S
C199 C197 1.361 . S
C199 C200 1.393 . S
C199 N203 1.413 . S
C200 H193 0.930 . S
C200 C199 1.393 . S
C200 C201 1.399 . S
C201 C200 1.399 . S
C201 C202 1.381 . S
C202 H194 0.930 . S
C202 C198 1.390 . S
C202 C201 1.381 . S
N203 C196 1.286 . S
N203 C199 1.413 . S
H204 C209 0.930 . S
H205 C212 0.930 . S
H206 C214 0.930 . S
H207 C208 1.016 . S
C208 H207 1.016 . S
C208 N215 1.286 . S
C209 H204 0.930 . S
C209 C210 1.397 . S
C209 C211 1.361 . S
C210 C209 1.397 . S
C210 C214 1.390 . S
C211 C209 1.361 . S
C211 C212 1.393 . S
C211 N215 1.413 . S
C212 H205 0.930 . S
C212 C211 1.393 . S
C212 C213 1.399 . S
C213 C212 1.399 . S
C213 C214 1.381 . S
C214 H206 0.930 . S
C214 C210 1.390 . S
C214 C213 1.381 . S
N215 C208 1.286 . S
N215 C211 1.413 . S
H216 C221 0.930 . S
H217 C224 0.930 . S
H218 C226 0.930 . S
H219 C220 1.016 . S
C220 H219 1.016 . S
C220 N227 1.286 . S
C221 H216 0.930 . S
C221 C222 1.397 . S
C221 C223 1.361 . S
C222 C221 1.397 . S
C222 C226 1.390 . S
C223 C221 1.361 . S
C223 C224 1.393 . S
C223 N227 1.413 . S
C224 H217 0.930 . S
C224 C223 1.393 . S
C224 C225 1.399 . S
C225 C224 1.399 . S
C225 C226 1.381 . S
C226 H218 0.930 . S
C226 C222 1.390 . S
C226 C225 1.381 . S
N227 C220 1.286 . S
N227 C223 1.413 . S
H228 C233 0.930 . S
H229 C236 0.930 . S
H230 C238 0.930 . S
H231 C232 1.016 . S
C232 H231 1.016 . S
C232 N239 1.286 . S
C233 H228 0.930 . S
C233 C234 1.397 . S
C233 C235 1.361 . S
C234 C233 1.397 . S
C234 C238 1.390 . S
C235 C233 1.361 . S
C235 C236 1.393 . S
C235 N239 1.413 . S
C236 H229 0.930 . S
C236 C235 1.393 . S
C236 C237 1.399 . S
C237 C236 1.399 . S
C237 C238 1.381 . S
C238 H230 0.930 . S
C238 C234 1.390 . S
C238 C237 1.381 . S
N239 C232 1.286 . S
N239 C235 1.413 . S
H240 C245 0.930 . S
H241 C248 0.930 . S
H242 C250 0.930 . S
H243 C244 1.016 . S
C244 H243 1.016 . S
C244 N251 1.286 . S
C245 H240 0.930 . S
C245 C246 1.397 . S
C245 C247 1.361 . S
C246 C245 1.397 . S
C246 C250 1.390 . S
C247 C245 1.361 . S
C247 C248 1.393 . S
C247 N251 1.413 . S
C248 H241 0.930 . S
C248 C247 1.393 . S
C248 C249 1.399 . S
C249 C248 1.399 . S
C249 C250 1.381 . S
C250 H242 0.930 . S
C250 C246 1.390 . S
C250 C249 1.381 . S
N251 C244 1.286 . S
N251 C247 1.413 . S
H252 C257 0.930 . S
H253 C260 0.930 . S
H254 C262 0.930 . S
H255 C256 1.016 . S
C256 H255 1.016 . S
C256 N263 1.286 . S
C257 H252 0.930 . S
C257 C258 1.397 . S
C257 C259 1.361 . S
C258 C257 1.397 . S
C258 C262 1.390 . S
C259 C257 1.361 . S
C259 C260 1.393 . S
C259 N263 1.413 . S
C260 H253 0.930 . S
C260 C259 1.393 . S
C260 C261 1.399 . S
C261 C260 1.399 . S
C261 C262 1.381 . S
C262 H254 0.930 . S
C262 C258 1.390 . S
C262 C261 1.381 . S
N263 C256 1.286 . S
N263 C259 1.413 . S
H264 C269 0.930 . S
H265 C272 0.930 . S
H266 C274 0.930 . S
H267 C268 1.016 . S
C268 H267 1.016 . S
C268 N275 1.286 . S
C269 H264 0.930 . S
C269 C270 1.397 . S
C269 C271 1.361 . S
C270 C269 1.397 . S
C270 C274 1.390 . S
C271 C269 1.361 . S
C271 C272 1.393 . S
C271 N275 1.413 . S
C272 H265 0.930 . S
C272 C271 1.393 . S
C272 C273 1.399 . S
C273 C272 1.399 . S
C273 C274 1.381 . S
C274 H266 0.930 . S
C274 C270 1.390 . S
C274 C273 1.381 . S
N275 C268 1.286 . S
N275 C271 1.413 . S
H276 C281 0.930 . S
H277 C284 0.930 . S
H278 C286 0.930 . S
H279 C280 1.016 . S
C280 H279 1.016 . S
C280 N287 1.286 . S
C281 H276 0.930 . S
C281 C282 1.397 . S
C281 C283 1.361 . S
C282 C281 1.397 . S
C282 C286 1.390 . S
C283 C281 1.361 . S
C283 C284 1.393 . S
C283 N287 1.413 . S
C284 H277 0.930 . S
C284 C283 1.393 . S
C284 C285 1.399 . S
C285 C284 1.399 . S
C285 C286 1.381 . S
C286 H278 0.930 . S
C286 C282 1.390 . S
C286 C285 1.381 . S
N287 C280 1.286 . S
N287 C283 1.413 . S
C288 O314 1.283 . S
C288 O332 1.283 . S
C289 O315 1.283 . S
C289 O330 1.283 . S
C290 O316 1.283 . S
C290 O333 1.283 . S
C291 O317 1.283 . S
C291 O331 1.283 . S
C292 O318 1.283 . S
C292 O327 1.283 . S
C293 O319 1.283 . S
C293 O329 1.283 . S
C294 O320 1.283 . S
C294 O326 1.283 . S
C295 O321 1.283 . S
C295 O328 1.283 . S
C296 O322 1.283 . S
C296 O337 1.283 . S
C297 O323 1.283 . S
C297 O335 1.283 . S
C298 O324 1.283 . S
C298 O336 1.283 . S
C299 O325 1.283 . S
C299 O334 1.283 . S
Eu300 O301 2.370 1_455 S
Eu300 O302 2.370 . S
Eu300 O305 2.370 1_455 S
Eu300 O306 2.370 . S
Eu300 O314 2.363 . S
Eu300 O315 2.363 . S
Eu300 O328 2.363 . S
Eu300 O329 2.363 1_455 S
O301 Eu300 2.370 1_655 S
O301 Eu303 2.363 1_565 S
O301 Eu308 2.363 1_665 S
O302 Eu300 2.370 . S
O302 Eu304 2.363 1_565 S
O302 Eu307 2.362 1_565 S
Eu303 O301 2.363 1_545 S
Eu303 O305 2.363 1_545 S
Eu303 O309 2.378 . S
Eu303 O310 2.378 . S
Eu303 O318 2.376 . S
Eu303 O319 2.350 1_545 S
Eu303 O334 2.363 . S
Eu303 O335 2.363 . S
Eu304 O302 2.363 1_545 S
Eu304 O306 2.363 1_545 S
Eu304 O311 2.377 . S
Eu304 O312 2.377 . S
Eu304 O320 2.375 . S
Eu304 O321 2.350 1_545 S
Eu304 O336 2.363 . S
Eu304 O337 2.363 . S
O305 Eu300 2.370 1_655 S
O305 Eu303 2.363 1_565 S
O305 Eu307 2.362 1_665 S
O306 Eu300 2.370 . S
O306 Eu304 2.363 1_565 S
O306 Eu308 2.363 1_565 S
Eu307 O302 2.362 1_545 S
Eu307 O305 2.362 1_445 S
Eu307 O309 2.378 1_455 S
Eu307 O312 2.378 . S
Eu307 O324 2.363 . S
Eu307 O325 2.363 1_455 S
Eu307 O332 2.350 1_545 S
Eu307 O333 2.376 . S
Eu308 O301 2.363 1_445 S
Eu308 O306 2.363 1_545 S
Eu308 O310 2.377 1_455 S
Eu308 O311 2.377 . S
Eu308 O322 2.363 . S
Eu308 O323 2.363 1_455 S
Eu308 O330 2.351 1_545 S
Eu308 O331 2.375 . S
O309 Eu303 2.378 . S
O309 Eu307 2.378 1_655 S
O309 Eu313 2.370 1_655 S
O310 Eu303 2.378 . S
O310 Eu308 2.377 1_655 S
O310 Eu313 2.370 1_655 S
O311 Eu304 2.377 . S
O311 Eu308 2.377 . S
O311 Eu313 2.370 . S
O312 Eu304 2.377 . S
O312 Eu307 2.378 . S
O312 Eu313 2.370 . S
Eu313 O309 2.370 1_455 S
Eu313 O310 2.370 1_455 S
Eu313 O311 2.370 . S
Eu313 O312 2.370 . S
Eu313 O316 2.363 . S
Eu313 O317 2.363 . S
Eu313 O326 2.363 . S
Eu313 O327 2.363 1_455 S
O314 C288 1.283 . S
O314 Eu300 2.363 . S
O315 C289 1.283 . S
O315 Eu300 2.363 . S
O316 C290 1.283 . S
O316 Eu313 2.363 . S
O317 C291 1.283 . S
O317 Eu313 2.363 . S
O318 C292 1.283 . S
O318 Eu303 2.376 . S
O319 C293 1.283 . S
O319 Eu303 2.350 1_565 S
O320 C294 1.283 . S
O320 Eu304 2.375 . S
O321 C295 1.283 . S
O321 Eu304 2.350 1_565 S
O322 C296 1.283 . S
O322 Eu308 2.363 . S
O323 C297 1.283 . S
O323 Eu308 2.363 1_655 S
O324 C298 1.283 . S
O324 Eu307 2.363 . S
O325 C299 1.283 . S
O325 Eu307 2.363 1_655 S
O326 C294 1.283 . S
O326 Eu313 2.363 . S
O327 C292 1.283 . S
O327 Eu313 2.363 1_655 S
O328 C295 1.283 . S
O328 Eu300 2.363 . S
O329 C293 1.283 . S
O329 Eu300 2.363 1_655 S
O330 C289 1.283 . S
O330 Eu308 2.351 1_565 S
O331 C291 1.283 . S
O331 Eu308 2.375 . S
O332 C288 1.283 . S
O332 Eu307 2.350 1_565 S
O333 C290 1.283 . S
O333 Eu307 2.376 . S
O334 C299 1.283 . S
O334 Eu303 2.363 . S
O335 C297 1.283 . S
O335 Eu303 2.363 . S
O336 C298 1.283 . S
O336 Eu304 2.363 . S
O337 C296 1.283 . S
O337 Eu304 2.363 . S
C338 O364 1.283 . S
C338 O382 1.283 . S
C339 O365 1.283 . S
C339 O380 1.283 . S
C340 O366 1.283 . S
C340 O383 1.283 . S
C341 O367 1.283 . S
C341 O381 1.283 . S
C342 O368 1.283 . S
C342 O377 1.283 . S
C343 O369 1.283 . S
C343 O379 1.283 . S
C344 O370 1.283 . S
C344 O376 1.283 . S
C345 O371 1.283 . S
C345 O378 1.283 . S
C346 O372 1.283 . S
C346 O387 1.283 . S
C347 O373 1.283 . S
C347 O385 1.283 . S
C348 O374 1.283 . S
C348 O386 1.283 . S
C349 O375 1.283 . S
C349 O384 1.283 . S
Eu350 O351 2.372 . S
Eu350 O352 2.368 1_545 S
Eu350 O355 2.368 1_545 S
Eu350 O356 2.372 . S
Eu350 O364 2.360 1_545 S
Eu350 O365 2.366 . S
Eu350 O378 2.363 . S
Eu350 O379 2.363 . S
O351 Eu350 2.372 . S
O351 Eu353 2.377 . S
O351 Eu358 2.370 . S
O352 Eu350 2.368 1_565 S
O352 Eu354 2.363 1_565 S
O352 Eu357 2.370 . S
Eu353 O351 2.377 . S
Eu353 O355 2.363 1_545 S
Eu353 O359 2.363 1_544 S
Eu353 O360 2.377 1_554 S
Eu353 O368 2.363 1_554 S
Eu353 O369 2.363 . S
Eu353 O384 2.351 1_545 S
Eu353 O385 2.375 . S
Eu354 O352 2.363 1_545 S
Eu354 O356 2.377 . S
Eu354 O361 2.377 1_554 S
Eu354 O362 2.363 1_544 S
Eu354 O370 2.363 1_554 S
Eu354 O371 2.363 . S
Eu354 O386 2.351 1_545 S
Eu354 O387 2.375 . S
O355 Eu350 2.368 1_565 S
O355 Eu353 2.363 1_565 S
O355 Eu357 2.370 . S
O356 Eu350 2.372 . S
O356 Eu354 2.377 . S
O356 Eu358 2.370 . S
Eu357 O352 2.370 . S
Eu357 O355 2.370 . S
Eu357 O359 2.370 1_554 S
Eu357 O362 2.370 1_554 S
Eu357 O374 2.363 . S
Eu357 O375 2.363 . S
Eu357 O382 2.363 . S
Eu357 O383 2.363 1_554 S
Eu358 O351 2.370 . S
Eu358 O356 2.370 . S
Eu358 O360 2.370 1_554 S
Eu358 O361 2.370 1_554 S
Eu358 O372 2.363 . S
Eu358 O373 2.363 . S
Eu358 O380 2.363 . S
Eu358 O381 2.363 1_554 S
O359 Eu353 2.363 1_566 S
O359 Eu357 2.370 1_556 S
O359 Eu363 2.358 1_565 S
O360 Eu353 2.377 1_556 S
O360 Eu358 2.370 1_556 S
O360 Eu363 2.382 . S
O361 Eu354 2.377 1_556 S
O361 Eu358 2.370 1_556 S
O361 Eu363 2.382 . S
O362 Eu354 2.363 1_566 S
O362 Eu357 2.370 1_556 S
O362 Eu363 2.358 1_565 S
Eu363 O359 2.358 1_545 S
Eu363 O360 2.382 . S
Eu363 O361 2.382 . S
Eu363 O362 2.358 1_545 S
Eu363 O366 2.342 1_545 S
Eu363 O367 2.384 . S
Eu363 O376 2.363 . S
Eu363 O377 2.363 . S
O364 C338 1.283 . S
O364 Eu350 2.360 1_565 S
O365 C339 1.283 . S
O365 Eu350 2.366 . S
O366 C340 1.283 . S
O366 Eu363 2.342 1_565 S
O367 C341 1.283 . S
O367 Eu363 2.384 . S
O368 C342 1.283 . S
O368 Eu353 2.363 1_556 S
O369 C343 1.283 . S
O369 Eu353 2.363 . S
O370 C344 1.283 . S
O370 Eu354 2.363 1_556 S
O371 C345 1.283 . S
O371 Eu354 2.363 . S
O372 C346 1.283 . S
O372 Eu358 2.363 . S
O373 C347 1.283 . S
O373 Eu358 2.363 . S
O374 C348 1.283 . S
O374 Eu357 2.363 . S
O375 C349 1.283 . S
O375 Eu357 2.363 . S
O376 C344 1.283 . S
O376 Eu363 2.363 . S
O377 C342 1.283 . S
O377 Eu363 2.363 . S
O378 C345 1.283 . S
O378 Eu350 2.363 . S
O379 C343 1.283 . S
O379 Eu350 2.363 . S
O380 C339 1.283 . S
O380 Eu358 2.363 . S
O381 C341 1.283 . S
O381 Eu358 2.363 1_556 S
O382 C338 1.283 . S
O382 Eu357 2.363 . S
O383 C340 1.283 . S
O383 Eu357 2.363 1_556 S
O384 C349 1.283 . S
O384 Eu353 2.351 1_565 S
O385 C347 1.283 . S
O385 Eu353 2.375 . S
O386 C348 1.283 . S
O386 Eu354 2.351 1_565 S
O387 C346 1.283 . S
O387 Eu354 2.375 . S
C388 O414 1.283 . S
C388 O432 1.283 . S
C389 O415 1.283 . S
C389 O430 1.283 . S
C390 O416 1.283 . S
C390 O433 1.283 . S
C391 O417 1.283 . S
C391 O431 1.283 . S
C392 O418 1.283 . S
C392 O427 1.283 . S
C393 O419 1.283 . S
C393 O429 1.283 . S
C394 O420 1.283 . S
C394 O426 1.283 . S
C395 O421 1.283 . S
C395 O428 1.283 . S
C396 O422 1.283 . S
C396 O437 1.283 . S
C397 O423 1.283 . S
C397 O435 1.283 . S
C398 O424 1.283 . S
C398 O436 1.283 . S
C399 O425 1.283 . S
C399 O434 1.283 . S
Eu400 O401 2.370 1_454 S
Eu400 O402 2.370 . S
Eu400 O405 2.370 1_455 S
Eu400 O406 2.370 1_554 S
Eu400 O414 2.363 . S
Eu400 O415 2.363 1_554 S
Eu400 O428 2.363 . S
Eu400 O429 2.363 1_455 S
O401 Eu400 2.370 1_656 S
O401 Eu403 2.370 1_556 S
O401 Eu408 2.370 1_655 S
O402 Eu400 2.370 . S
O402 Eu404 2.370 . S
O402 Eu407 2.370 . S
Eu403 O401 2.370 1_554 S
Eu403 O405 2.370 . S
Eu403 O409 2.370 . S
Eu403 O410 2.370 1_554 S
Eu403 O418 2.363 . S
Eu403 O419 2.363 . S
Eu403 O434 2.363 . S
Eu403 O435 2.363 1_554 S
Eu404 O402 2.370 . S
Eu404 O406 2.370 1_554 S
Eu404 O411 2.370 1_554 S
Eu404 O412 2.370 . S
Eu404 O420 2.363 . S
Eu404 O421 2.363 . S
Eu404 O436 2.363 . S
Eu404 O437 2.363 1_554 S
O405 Eu400 2.370 1_655 S
O405 Eu403 2.370 . S
O405 Eu407 2.370 1_655 S
O406 Eu400 2.370 1_556 S
O406 Eu404 2.370 1_556 S
O406 Eu408 2.370 . S
Eu407 O402 2.370 . S
Eu407 O405 2.370 1_455 S
Eu407 O409 2.370 1_455 S
Eu407 O412 2.370 . S
Eu407 O424 2.363 . S
Eu407 O425 2.363 1_455 S
Eu407 O432 2.363 . S
Eu407 O433 2.363 . S
Eu408 O401 2.370 1_455 S
Eu408 O406 2.370 . S
Eu408 O410 2.370 1_455 S
Eu408 O411 2.370 . S
Eu408 O422 2.363 . S
Eu408 O423 2.363 1_455 S
Eu408 O430 2.363 . S
Eu408 O431 2.363 . S
O409 Eu403 2.370 . S
O409 Eu407 2.370 1_655 S
O409 Eu413 2.370 1_655 S
O410 Eu403 2.370 1_556 S
O410 Eu408 2.370 1_655 S
O410 Eu413 2.370 1_656 S
O411 Eu404 2.370 1_556 S
O411 Eu408 2.370 . S
O411 Eu413 2.370 1_556 S
O412 Eu404 2.370 . S
O412 Eu407 2.370 . S
O412 Eu413 2.370 . S
Eu413 O409 2.370 1_455 S
Eu413 O410 2.370 1_454 S
Eu413 O411 2.370 1_554 S
Eu413 O412 2.370 . S
Eu413 O416 2.363 . S
Eu413 O417 2.363 1_554 S
Eu413 O426 2.363 . S
Eu413 O427 2.363 1_455 S
O414 C388 1.283 . S
O414 Eu400 2.363 . S
O415 C389 1.283 . S
O415 Eu400 2.363 1_556 S
O416 C390 1.283 . S
O416 Eu413 2.363 . S
O417 C391 1.283 . S
O417 Eu413 2.363 1_556 S
O418 C392 1.283 . S
O418 Eu403 2.363 . S
O419 C393 1.283 . S
O419 Eu403 2.363 . S
O420 C394 1.283 . S
O420 Eu404 2.363 . S
O421 C395 1.283 . S
O421 Eu404 2.363 . S
O422 C396 1.283 . S
O422 Eu408 2.363 . S
O423 C397 1.283 . S
O423 Eu408 2.363 1_655 S
O424 C398 1.283 . S
O424 Eu407 2.363 . S
O425 C399 1.283 . S
O425 Eu407 2.363 1_655 S
O426 C394 1.283 . S
O426 Eu413 2.363 . S
O427 C392 1.283 . S
O427 Eu413 2.363 1_655 S
O428 C395 1.283 . S
O428 Eu400 2.363 . S
O429 C393 1.283 . S
O429 Eu400 2.363 1_655 S
O430 C389 1.283 . S
O430 Eu408 2.363 . S
O431 C391 1.283 . S
O431 Eu408 2.363 . S
O432 C388 1.283 . S
O432 Eu407 2.363 . S
O433 C390 1.283 . S
O433 Eu407 2.363 . S
O434 C399 1.283 . S
O434 Eu403 2.363 . S
O435 C397 1.283 . S
O435 Eu403 2.363 1_556 S
O436 C398 1.283 . S
O436 Eu404 2.363 . S
O437 C396 1.283 . S
O437 Eu404 2.363 1_556 S
C438 O464 1.283 . S
C438 O482 1.283 . S
C439 O465 1.283 . S
C439 O480 1.283 . S
C440 O466 1.283 . S
C440 O483 1.283 . S
C441 O467 1.283 . S
C441 O481 1.283 . S
C442 O468 1.283 . S
C442 O477 1.283 . S
C443 O469 1.283 . S
C443 O479 1.283 . S
C444 O470 1.283 . S
C444 O476 1.283 . S
C445 O471 1.283 . S
C445 O478 1.283 . S
C446 O472 1.283 . S
C446 O487 1.283 . S
C447 O473 1.283 . S
C447 O485 1.283 . S
C448 O474 1.283 . S
C448 O486 1.283 . S
C449 O475 1.283 . S
C449 O484 1.283 . S
Eu450 O451 2.370 . S
Eu450 O452 2.370 . S
Eu450 O455 2.370 . S
Eu450 O456 2.370 . S
Eu450 O464 2.363 . S
Eu450 O465 2.363 . S
Eu450 O478 2.363 . S
Eu450 O479 2.363 . S
O451 Eu450 2.370 . S
O451 Eu453 2.370 . S
O451 Eu458 2.370 . S
O452 Eu450 2.370 . S
O452 Eu454 2.370 . S
O452 Eu457 2.370 . S
Eu453 O451 2.370 . S
Eu453 O455 2.370 . S
Eu453 O459 2.370 1_554 S
Eu453 O460 2.370 1_554 S
Eu453 O468 2.363 1_554 S
Eu453 O469 2.363 . S
Eu453 O484 2.363 . S
Eu453 O485 2.363 . S
Eu454 O452 2.370 . S
Eu454 O456 2.370 . S
Eu454 O461 2.370 1_554 S
Eu454 O462 2.370 1_554 S
Eu454 O470 2.363 1_554 S
Eu454 O471 2.363 . S
Eu454 O486 2.363 . S
Eu454 O487 2.363 . S
O455 Eu450 2.370 . S
O455 Eu453 2.370 . S
O455 Eu457 2.370 . S
O456 Eu450 2.370 . S
O456 Eu454 2.370 . S
O456 Eu458 2.370 . S
Eu457 O452 2.370 . S
Eu457 O455 2.370 . S
Eu457 O459 2.370 1_554 S
Eu457 O462 2.370 1_554 S
Eu457 O474 2.363 . S
Eu457 O475 2.363 . S
Eu457 O482 2.363 . S
Eu457 O483 2.363 1_554 S
Eu458 O451 2.370 . S
Eu458 O456 2.370 . S
Eu458 O460 2.370 1_554 S
Eu458 O461 2.370 1_554 S
Eu458 O472 2.363 . S
Eu458 O473 2.363 . S
Eu458 O480 2.363 . S
Eu458 O481 2.363 1_554 S
O459 Eu453 2.370 1_556 S
O459 Eu457 2.370 1_556 S
O459 Eu463 2.370 . S
O460 Eu453 2.370 1_556 S
O460 Eu458 2.370 1_556 S
O460 Eu463 2.370 . S
O461 Eu454 2.370 1_556 S
O461 Eu458 2.370 1_556 S
O461 Eu463 2.370 . S
O462 Eu454 2.370 1_556 S
O462 Eu457 2.370 1_556 S
O462 Eu463 2.370 . S
Eu463 O459 2.370 . S
Eu463 O460 2.370 . S
Eu463 O461 2.370 . S
Eu463 O462 2.370 . S
Eu463 O466 2.363 . S
Eu463 O467 2.363 . S
Eu463 O476 2.363 . S
Eu463 O477 2.363 . S
O464 C438 1.283 . S
O464 Eu450 2.363 . S
O465 C439 1.283 . S
O465 Eu450 2.363 . S
O466 C440 1.283 . S
O466 Eu463 2.363 . S
O467 C441 1.283 . S
O467 Eu463 2.363 . S
O468 C442 1.283 . S
O468 Eu453 2.363 1_556 S
O469 C443 1.283 . S
O469 Eu453 2.363 . S
O470 C444 1.283 . S
O470 Eu454 2.363 1_556 S
O471 C445 1.283 . S
O471 Eu454 2.363 . S
O472 C446 1.283 . S
O472 Eu458 2.363 . S
O473 C447 1.283 . S
O473 Eu458 2.363 . S
O474 C448 1.283 . S
O474 Eu457 2.363 . S
O475 C449 1.283 . S
O475 Eu457 2.363 . S
O476 C444 1.283 . S
O476 Eu463 2.363 . S
O477 C442 1.283 . S
O477 Eu463 2.363 . S
O478 C445 1.283 . S
O478 Eu450 2.363 . S
O479 C443 1.283 . S
O479 Eu450 2.363 . S
O480 C439 1.283 . S
O480 Eu458 2.363 . S
O481 C441 1.283 . S
O481 Eu458 2.363 1_556 S
O482 C438 1.283 . S
O482 Eu457 2.363 . S
O483 C440 1.283 . S
O483 Eu457 2.363 1_556 S
O484 C449 1.283 . S
O484 Eu453 2.363 . S
O485 C447 1.283 . S
O485 Eu453 2.363 . S
O486 C448 1.283 . S
O486 Eu454 2.363 . S
O487 C446 1.283 . S
O487 Eu454 2.363 . S
C488 O514 1.283 . S
C488 O532 1.283 . S
C489 O515 1.283 . S
C489 O530 1.283 . S
C490 O516 1.283 . S
C490 O533 1.283 . S
C491 O517 1.283 . S
C491 O531 1.283 . S
C492 O518 1.283 . S
C492 O527 1.283 . S
C493 O519 1.283 . S
C493 O529 1.283 . S
C494 O520 1.283 . S
C494 O526 1.283 . S
C495 O521 1.283 . S
C495 O528 1.283 . S
C496 O522 1.283 . S
C496 O537 1.283 . S
C497 O523 1.283 . S
C497 O535 1.283 . S
C498 O524 1.283 . S
C498 O536 1.283 . S
C499 O525 1.283 . S
C499 O534 1.283 . S
Eu500 O501 2.370 1_455 S
Eu500 O502 2.370 . S
Eu500 O505 2.370 1_455 S
Eu500 O506 2.370 . S
Eu500 O514 2.363 . S
Eu500 O515 2.363 . S
Eu500 O528 2.363 . S
Eu500 O529 2.363 1_455 S
O501 Eu500 2.370 1_655 S
O501 Eu503 2.370 . S
O501 Eu508 2.370 1_655 S
O502 Eu500 2.370 . S
O502 Eu504 2.370 . S
O502 Eu507 2.370 . S
Eu503 O501 2.370 . S
Eu503 O505 2.370 . S
Eu503 O509 2.370 . S
Eu503 O510 2.370 . S
Eu503 O518 2.363 . S
Eu503 O519 2.363 . S
Eu503 O534 2.363 . S
Eu503 O535 2.363 . S
Eu504 O502 2.370 . S
Eu504 O506 2.370 . S
Eu504 O511 2.370 . S
Eu504 O512 2.370 . S
Eu504 O520 2.363 . S
Eu504 O521 2.363 . S
Eu504 O536 2.363 . S
Eu504 O537 2.363 . S
O505 Eu500 2.370 1_655 S
O505 Eu503 2.370 . S
O505 Eu507 2.370 1_655 S
O506 Eu500 2.370 . S
O506 Eu504 2.370 . S
O506 Eu508 2.370 . S
Eu507 O502 2.370 . S
Eu507 O505 2.370 1_455 S
Eu507 O509 2.370 1_455 S
Eu507 O512 2.370 . S
Eu507 O524 2.363 . S
Eu507 O525 2.363 1_455 S
Eu507 O532 2.363 . S
Eu507 O533 2.363 . S
Eu508 O501 2.370 1_455 S
Eu508 O506 2.370 . S
Eu508 O510 2.370 1_455 S
Eu508 O511 2.370 . S
Eu508 O522 2.363 . S
Eu508 O523 2.363 1_455 S
Eu508 O530 2.363 . S
Eu508 O531 2.363 . S
O509 Eu503 2.370 . S
O509 Eu507 2.370 1_655 S
O509 Eu513 2.370 1_655 S
O510 Eu503 2.370 . S
O510 Eu508 2.370 1_655 S
O510 Eu513 2.370 1_655 S
O511 Eu504 2.370 . S
O511 Eu508 2.370 . S
O511 Eu513 2.370 . S
O512 Eu504 2.370 . S
O512 Eu507 2.370 . S
O512 Eu513 2.370 . S
Eu513 O509 2.370 1_455 S
Eu513 O510 2.370 1_455 S
Eu513 O511 2.370 . S
Eu513 O512 2.370 . S
Eu513 O516 2.363 . S
Eu513 O517 2.363 . S
Eu513 O526 2.363 . S
Eu513 O527 2.363 1_455 S
O514 C488 1.283 . S
O514 Eu500 2.363 . S
O515 C489 1.283 . S
O515 Eu500 2.363 . S
O516 C490 1.283 . S
O516 Eu513 2.363 . S
O517 C491 1.283 . S
O517 Eu513 2.363 . S
O518 C492 1.283 . S
O518 Eu503 2.363 . S
O519 C493 1.283 . S
O519 Eu503 2.363 . S
O520 C494 1.283 . S
O520 Eu504 2.363 . S
O521 C495 1.283 . S
O521 Eu504 2.363 . S
O522 C496 1.283 . S
O522 Eu508 2.363 . S
O523 C497 1.283 . S
O523 Eu508 2.363 1_655 S
O524 C498 1.283 . S
O524 Eu507 2.363 . S
O525 C499 1.283 . S
O525 Eu507 2.363 1_655 S
O526 C494 1.283 . S
O526 Eu513 2.363 . S
O527 C492 1.283 . S
O527 Eu513 2.363 1_655 S
O528 C495 1.283 . S
O528 Eu500 2.363 . S
O529 C493 1.283 . S
O529 Eu500 2.363 1_655 S
O530 C489 1.283 . S
O530 Eu508 2.363 . S
O531 C491 1.283 . S
O531 Eu508 2.363 . S
O532 C488 1.283 . S
O532 Eu507 2.363 . S
O533 C490 1.283 . S
O533 Eu507 2.363 . S
O534 C499 1.283 . S
O534 Eu503 2.363 . S
O535 C497 1.283 . S
O535 Eu503 2.363 . S
O536 C498 1.283 . S
O536 Eu504 2.363 . S
O537 C496 1.283 . S
O537 Eu504 2.363 . S
C538 O564 1.283 . S
C538 O582 1.283 . S
C539 O565 1.283 . S
C539 O580 1.283 . S
C540 O566 1.283 . S
C540 O583 1.283 . S
C541 O567 1.283 . S
C541 O581 1.283 . S
C542 O568 1.283 . S
C542 O577 1.283 . S
C543 O569 1.283 . S
C543 O579 1.283 . S
C544 O570 1.283 . S
C544 O576 1.283 . S
C545 O571 1.283 . S
C545 O578 1.283 . S
C546 O572 1.283 . S
C546 O587 1.283 . S
C547 O573 1.283 . S
C547 O585 1.283 . S
C548 O574 1.283 . S
C548 O586 1.283 . S
C549 O575 1.283 . S
C549 O584 1.283 . S
Eu550 O551 2.370 . S
Eu550 O552 2.370 . S
Eu550 O555 2.370 . S
Eu550 O556 2.370 . S
Eu550 O564 2.363 . S
Eu550 O565 2.363 . S
Eu550 O578 2.363 . S
Eu550 O579 2.363 . S
O551 Eu550 2.370 . S
O551 Eu553 2.363 1_565 S
O551 Eu558 2.364 1_565 S
O552 Eu550 2.370 . S
O552 Eu554 2.363 1_565 S
O552 Eu557 2.363 1_565 S
Eu553 O551 2.363 1_545 S
Eu553 O555 2.363 1_545 S
Eu553 O559 2.377 . S
Eu553 O560 2.377 . S
Eu553 O568 2.375 . S
Eu553 O569 2.351 1_545 S
Eu553 O584 2.363 . S
Eu553 O585 2.363 . S
Eu554 O552 2.363 1_545 S
Eu554 O556 2.363 1_545 S
Eu554 O561 2.377 . S
Eu554 O562 2.377 . S
Eu554 O570 2.375 . S
Eu554 O571 2.351 1_545 S
Eu554 O586 2.363 . S
Eu554 O587 2.363 . S
O555 Eu550 2.370 . S
O555 Eu553 2.363 1_565 S
O555 Eu557 2.363 1_565 S
O556 Eu550 2.370 . S
O556 Eu554 2.363 1_565 S
O556 Eu558 2.364 1_565 S
Eu557 O552 2.363 1_545 S
Eu557 O555 2.363 1_545 S
Eu557 O559 2.378 . S
Eu557 O562 2.378 . S
Eu557 O574 2.363 . S
Eu557 O575 2.363 . S
Eu557 O582 2.350 1_545 S
Eu557 O583 2.376 . S
Eu558 O551 2.364 1_545 S
Eu558 O556 2.364 1_545 S
Eu558 O560 2.376 . S
Eu558 O561 2.376 . S
Eu558 O572 2.363 . S
Eu558 O573 2.363 . S
Eu558 O580 2.352 1_545 S
Eu558 O581 2.374 . S
O559 Eu553 2.377 . S
O559 Eu557 2.378 . S
O559 Eu563 2.370 . S
O560 Eu553 2.377 . S
O560 Eu558 2.376 . S
O560 Eu563 2.370 . S
O561 Eu554 2.377 . S
O561 Eu558 2.376 . S
O561 Eu563 2.370 . S
O562 Eu554 2.377 . S
O562 Eu557 2.378 . S
O562 Eu563 2.370 . S
Eu563 O559 2.370 . S
Eu563 O560 2.370 . S
Eu563 O561 2.370 . S
Eu563 O562 2.370 . S
Eu563 O566 2.363 . S
Eu563 O567 2.363 . S
Eu563 O576 2.363 . S
Eu563 O577 2.363 . S
O564 C538 1.283 . S
O564 Eu550 2.363 . S
O565 C539 1.283 . S
O565 Eu550 2.363 . S
O566 C540 1.283 . S
O566 Eu563 2.363 . S
O567 C541 1.283 . S
O567 Eu563 2.363 . S
O568 C542 1.283 . S
O568 Eu553 2.375 . S
O569 C543 1.283 . S
O569 Eu553 2.351 1_565 S
O570 C544 1.283 . S
O570 Eu554 2.375 . S
O571 C545 1.283 . S
O571 Eu554 2.351 1_565 S
O572 C546 1.283 . S
O572 Eu558 2.363 . S
O573 C547 1.283 . S
O573 Eu558 2.363 . S
O574 C548 1.283 . S
O574 Eu557 2.363 . S
O575 C549 1.283 . S
O575 Eu557 2.363 . S
O576 C544 1.283 . S
O576 Eu563 2.363 . S
O577 C542 1.283 . S
O577 Eu563 2.363 . S
O578 C545 1.283 . S
O578 Eu550 2.363 . S
O579 C543 1.283 . S
O579 Eu550 2.363 . S
O580 C539 1.283 . S
O580 Eu558 2.352 1_565 S
O581 C541 1.283 . S
O581 Eu558 2.374 . S
O582 C538 1.283 . S
O582 Eu557 2.350 1_565 S
O583 C540 1.283 . S
O583 Eu557 2.376 . S
O584 C549 1.283 . S
O584 Eu553 2.363 . S
O585 C547 1.283 . S
O585 Eu553 2.363 . S
O586 C548 1.283 . S
O586 Eu554 2.363 . S
O587 C546 1.283 . S
O587 Eu554 2.363 . S
C588 C589 1.363 . S
C588 C594 1.379 . S
C588 N596 1.356 . S
C589 C588 1.363 . S
C589 C595 1.363 . S
C590 C591 1.363 . S
C590 C595 1.379 . S
C590 N597 1.356 . S
C591 C590 1.363 . S
C591 C594 1.363 . S
N592 C594 1.356 . S
N592 H604 0.984 . S
N592 H605 0.985 . S
N593 C595 1.356 . S
N593 H598 0.984 . S
N593 H599 0.985 . S
C594 C588 1.379 . S
C594 C591 1.363 . S
C594 N592 1.356 . S
C595 C589 1.363 . S
C595 C590 1.379 . S
C595 N593 1.356 . S
N596 C588 1.356 . S
N596 H602 0.984 . S
N596 H603 0.984 . S
N597 C590 1.356 . S
N597 H600 0.984 . S
N597 H601 0.985 . S
H598 N593 0.984 . S
H599 N593 0.985 . S
H600 N597 0.984 . S
H601 N597 0.985 . S
H602 N596 0.984 . S
H603 N596 0.984 . S
H604 N592 0.984 . S
H605 N592 0.985 . S
C606 C607 1.363 . S
C606 C612 1.379 . S
C606 N614 1.356 . S
C607 C606 1.363 . S
C607 C613 1.363 . S
C608 C609 1.363 . S
C608 C613 1.379 . S
C608 N615 1.356 . S
C609 C608 1.363 . S
C609 C612 1.363 . S
N610 C612 1.356 . S
N610 H622 0.984 . S
N610 H623 0.985 . S
N611 C613 1.356 . S
N611 H616 0.984 . S
N611 H617 0.985 . S
C612 C606 1.379 . S
C612 C609 1.363 . S
C612 N610 1.356 . S
C613 C607 1.363 . S
C613 C608 1.379 . S
C613 N611 1.356 . S
N614 C606 1.356 . S
N614 H620 0.984 . S
N614 H621 0.984 . S
N615 C608 1.356 . S
N615 H618 0.984 . S
N615 H619 0.985 . S
H616 N611 0.984 . S
H617 N611 0.985 . S
H618 N615 0.984 . S
H619 N615 0.985 . S
H620 N614 0.984 . S
H621 N614 0.984 . S
H622 N610 0.984 . S
H623 N610 0.985 . S
C624 C625 1.363 . S
C624 C630 1.379 . S
C624 N632 1.356 . S
C625 C624 1.363 . S
C625 C631 1.363 . S
C626 C627 1.363 . S
C626 C631 1.379 . S
C626 N633 1.356 . S
C627 C626 1.363 . S
C627 C630 1.363 . S
N628 C630 1.356 . S
N628 H640 0.984 . S
N628 H641 0.985 . S
N629 C631 1.356 . S
N629 H634 0.984 . S
N629 H635 0.985 . S
C630 C624 1.379 . S
C630 C627 1.363 . S
C630 N628 1.356 . S
C631 C625 1.363 . S
C631 C626 1.379 . S
C631 N629 1.356 . S
N632 C624 1.356 . S
N632 H638 0.984 . S
N632 H639 0.984 . S
N633 C626 1.356 . S
N633 H636 0.984 . S
N633 H637 0.985 . S
H634 N629 0.984 . S
H635 N629 0.985 . S
H636 N633 0.984 . S
H637 N633 0.985 . S
H638 N632 0.984 . S
H639 N632 0.984 . S
H640 N628 0.984 . S
H641 N628 0.985 . S
C642 C643 1.363 . S
C642 C648 1.379 . S
C642 N650 1.356 . S
C643 C642 1.363 . S
C643 C649 1.363 . S
C644 C645 1.363 . S
C644 C649 1.379 . S
C644 N651 1.356 . S
C645 C644 1.363 . S
C645 C648 1.363 . S
N646 C648 1.356 . S
N646 H658 0.984 . S
N646 H659 0.985 . S
N647 C649 1.356 . S
N647 H652 0.984 . S
N647 H653 0.985 . S
C648 C642 1.379 . S
C648 C645 1.363 . S
C648 N646 1.356 . S
C649 C643 1.363 . S
C649 C644 1.379 . S
C649 N647 1.356 . S
N650 C642 1.356 . S
N650 H656 0.984 . S
N650 H657 0.984 . S
N651 C644 1.356 . S
N651 H654 0.984 . S
N651 H655 0.985 . S
H652 N647 0.984 . S
H653 N647 0.985 . S
H654 N651 0.984 . S
H655 N651 0.985 . S
H656 N650 0.984 . S
H657 N650 0.984 . S
H658 N646 0.984 . S
H659 N646 0.985 . S
C660 C661 1.363 . S
C660 C666 1.379 . S
C660 N668 1.356 . S
C661 C660 1.363 . S
C661 C667 1.363 . S
C662 C663 1.363 . S
C662 C667 1.379 . S
C662 N669 1.356 . S
C663 C662 1.363 . S
C663 C666 1.363 . S
N664 C666 1.356 . S
N664 H676 0.984 . S
N664 H677 0.985 . S
N665 C667 1.356 . S
N665 H670 0.984 . S
N665 H671 0.985 . S
C666 C660 1.379 . S
C666 C663 1.363 . S
C666 N664 1.356 . S
C667 C661 1.363 . S
C667 C662 1.379 . S
C667 N665 1.356 . S
N668 C660 1.356 . S
N668 H674 0.984 . S
N668 H675 0.984 . S
N669 C662 1.356 . S
N669 H672 0.984 . S
N669 H673 0.985 . S
H670 N665 0.984 . S
H671 N665 0.985 . S
H672 N669 0.984 . S
H673 N669 0.985 . S
H674 N668 0.984 . S
H675 N668 0.984 . S
H676 N664 0.984 . S
H677 N664 0.985 . S
C678 C679 1.363 . S
C678 C684 1.379 . S
C678 N686 1.356 . S
C679 C678 1.363 . S
C679 C685 1.363 . S
C680 C681 1.363 . S
C680 C685 1.379 . S
C680 N687 1.356 . S
C681 C680 1.363 . S
C681 C684 1.363 . S
N682 C684 1.356 . S
N682 H694 0.984 . S
N682 H695 0.985 . S
N683 C685 1.356 . S
N683 H688 0.984 . S
N683 H689 0.985 . S
C684 C678 1.379 . S
C684 C681 1.363 . S
C684 N682 1.356 . S
C685 C679 1.363 . S
C685 C680 1.379 . S
C685 N683 1.356 . S
N686 C678 1.356 . S
N686 H692 0.984 . S
N686 H693 0.984 . S
N687 C680 1.356 . S
N687 H690 0.984 . S
N687 H691 0.985 . S
H688 N683 0.984 . S
H689 N683 0.985 . S
H690 N687 0.984 . S
H691 N687 0.985 . S
H692 N686 0.984 . S
H693 N686 0.984 . S
H694 N682 0.984 . S
H695 N682 0.985 . S
C696 C697 1.363 . S
C696 C702 1.379 . S
C696 N704 1.356 . S
C697 C696 1.363 . S
C697 C703 1.363 . S
C698 C699 1.363 . S
C698 C703 1.379 . S
C698 N705 1.356 . S
C699 C698 1.363 . S
C699 C702 1.363 . S
N700 C702 1.356 . S
N700 H712 0.984 . S
N700 H713 0.985 . S
N701 C703 1.356 . S
N701 H706 0.984 . S
N701 H707 0.985 . S
C702 C696 1.379 . S
C702 C699 1.363 . S
C702 N700 1.356 . S
C703 C697 1.363 . S
C703 C698 1.379 . S
C703 N701 1.356 . S
N704 C696 1.356 . S
N704 H710 0.984 . S
N704 H711 0.984 . S
N705 C698 1.356 . S
N705 H708 0.984 . S
N705 H709 0.985 . S
H706 N701 0.984 . S
H707 N701 0.985 . S
H708 N705 0.984 . S
H709 N705 0.985 . S
H710 N704 0.984 . S
H711 N704 0.984 . S
H712 N700 0.984 . S
H713 N700 0.985 . S
C714 C715 1.363 . S
C714 C720 1.379 . S
C714 N722 1.356 . S
C715 C714 1.363 . S
C715 C721 1.363 . S
C716 C717 1.363 . S
C716 C721 1.379 . S
C716 N723 1.356 . S
C717 C716 1.363 . S
C717 C720 1.363 . S
N718 C720 1.356 . S
N718 H730 0.984 . S
N718 H731 0.985 . S
N719 C721 1.356 . S
N719 H724 0.984 . S
N719 H725 0.985 . S
C720 C714 1.379 . S
C720 C717 1.363 . S
C720 N718 1.356 . S
C721 C715 1.363 . S
C721 C716 1.379 . S
C721 N719 1.356 . S
N722 C714 1.356 . S
N722 H728 0.984 . S
N722 H729 0.984 . S
N723 C716 1.356 . S
N723 H726 0.984 . S
N723 H727 0.985 . S
H724 N719 0.984 . S
H725 N719 0.985 . S
H726 N723 0.984 . S
H727 N723 0.985 . S
H728 N722 0.984 . S
H729 N722 0.984 . S
H730 N718 0.984 . S
H731 N718 0.985 . S
C732 C733 1.363 . S
C732 C738 1.379 . S
C732 N740 1.356 . S
C733 C732 1.363 . S
C733 C739 1.363 . S
C734 C735 1.363 . S
C734 C739 1.379 . S
C734 N741 1.356 . S
C735 C734 1.363 . S
C735 C738 1.363 . S
N736 C738 1.356 . S
N736 H748 0.984 . S
N736 H749 0.985 . S
N737 C739 1.356 . S
N737 H742 0.984 . S
N737 H743 0.985 . S
C738 C732 1.379 . S
C738 C735 1.363 . S
C738 N736 1.356 . S
C739 C733 1.363 . S
C739 C734 1.379 . S
C739 N737 1.356 . S
N740 C732 1.356 . S
N740 H746 0.984 . S
N740 H747 0.984 . S
N741 C734 1.356 . S
N741 H744 0.984 . S
N741 H745 0.985 . S
H742 N737 0.984 . S
H743 N737 0.985 . S
H744 N741 0.984 . S
H745 N741 0.985 . S
H746 N740 0.984 . S
H747 N740 0.984 . S
H748 N736 0.984 . S
H749 N736 0.985 . S
C750 C751 1.363 . S
C750 C756 1.379 . S
C750 N758 1.356 . S
C751 C750 1.363 . S
C751 C757 1.363 . S
C752 C753 1.363 . S
C752 C757 1.379 . S
C752 N759 1.356 . S
C753 C752 1.363 . S
C753 C756 1.363 . S
N754 C756 1.356 . S
N754 H766 0.984 . S
N754 H767 0.985 . S
N755 C757 1.356 . S
N755 H760 0.984 . S
N755 H761 0.985 . S
C756 C750 1.379 . S
C756 C753 1.363 . S
C756 N754 1.356 . S
C757 C751 1.363 . S
C757 C752 1.379 . S
C757 N755 1.356 . S
N758 C750 1.356 . S
N758 H764 0.984 . S
N758 H765 0.984 . S
N759 C752 1.356 . S
N759 H762 0.984 . S
N759 H763 0.985 . S
H760 N755 0.984 . S
H761 N755 0.985 . S
H762 N759 0.984 . S
H763 N759 0.985 . S
H764 N758 0.984 . S
H765 N758 0.984 . S
H766 N754 0.984 . S
H767 N754 0.985 . S
C768 C769 1.363 . S
C768 C774 1.379 . S
C768 N776 1.356 . S
C769 C768 1.363 . S
C769 C775 1.363 . S
C770 C771 1.363 . S
C770 C775 1.379 . S
C770 N777 1.356 . S
C771 C770 1.363 . S
C771 C774 1.363 . S
N772 C774 1.356 . S
N772 H784 0.984 . S
N772 H785 0.985 . S
N773 C775 1.356 . S
N773 H778 0.984 . S
N773 H779 0.985 . S
C774 C768 1.379 . S
C774 C771 1.363 . S
C774 N772 1.356 . S
C775 C769 1.363 . S
C775 C770 1.379 . S
C775 N773 1.356 . S
N776 C768 1.356 . S
N776 H782 0.984 . S
N776 H783 0.984 . S
N777 C770 1.356 . S
N777 H780 0.984 . S
N777 H781 0.985 . S
H778 N773 0.984 . S
H779 N773 0.985 . S
H780 N777 0.984 . S
H781 N777 0.985 . S
H782 N776 0.984 . S
H783 N776 0.984 . S
H784 N772 0.984 . S
H785 N772 0.985 . S
C786 C787 1.363 . S
C786 C792 1.379 . S
C786 N794 1.356 . S
C787 C786 1.363 . S
C787 C793 1.363 . S
C788 C789 1.363 . S
C788 C793 1.379 . S
C788 N795 1.356 . S
C789 C788 1.363 . S
C789 C792 1.363 . S
N790 C792 1.356 . S
N790 H802 0.984 . S
N790 H803 0.985 . S
N791 C793 1.356 . S
N791 H796 0.984 . S
N791 H797 0.985 . S
C792 C786 1.379 . S
C792 C789 1.363 . S
C792 N790 1.356 . S
C793 C787 1.363 . S
C793 C788 1.379 . S
C793 N791 1.356 . S
N794 C786 1.356 . S
N794 H800 0.984 . S
N794 H801 0.984 . S
N795 C788 1.356 . S
N795 H798 0.984 . S
N795 H799 0.985 . S
H796 N791 0.984 . S
H797 N791 0.985 . S
H798 N795 0.984 . S
H799 N795 0.985 . S
H800 N794 0.984 . S
H801 N794 0.984 . S
H802 N790 0.984 . S
H803 N790 0.985 . S
C804 C805 1.363 1_556 S
C804 C810 1.379 . S
C804 N812 1.356 . S
C805 C804 1.363 1_554 S
C805 C811 1.363 . S
C806 C807 1.363 . S
C806 C811 1.379 . S
C806 N813 1.356 . S
C807 C806 1.363 . S
C807 C810 1.363 1_554 S
N808 C810 1.356 . S
N808 H820 0.984 . S
N808 H821 0.985 . S
N809 C811 1.356 . S
N809 H814 0.984 . S
N809 H815 0.985 . S
C810 C804 1.379 . S
C810 C807 1.363 1_556 S
C810 N808 1.356 . S
C811 C805 1.363 . S
C811 C806 1.379 . S
C811 N809 1.356 . S
N812 C804 1.356 . S
N812 H818 0.984 . S
N812 H819 0.984 . S
N813 C806 1.356 . S
N813 H816 0.984 . S
N813 H817 0.985 . S
H814 N809 0.984 . S
H815 N809 0.985 . S
H816 N813 0.984 . S
H817 N813 0.985 . S
H818 N812 0.984 . S
H819 N812 0.984 . S
H820 N808 0.984 . S
H821 N808 0.985 . S
C822 C823 1.363 1_556 S
C822 C828 1.379 . S
C822 N830 1.356 . S
C823 C822 1.363 1_554 S
C823 C829 1.363 . S
C824 C825 1.363 . S
C824 C829 1.379 . S
C824 N831 1.356 . S
C825 C824 1.363 . S
C825 C828 1.363 1_554 S
N826 C828 1.356 . S
N826 H838 0.984 . S
N826 H839 0.985 . S
N827 C829 1.356 . S
N827 H832 0.984 . S
N827 H833 0.985 . S
C828 C822 1.379 . S
C828 C825 1.363 1_556 S
C828 N826 1.356 . S
C829 C823 1.363 . S
C829 C824 1.379 . S
C829 N827 1.356 . S
N830 C822 1.356 . S
N830 H836 0.984 . S
N830 H837 0.984 . S
N831 C824 1.356 . S
N831 H834 0.984 . S
N831 H835 0.985 . S
H832 N827 0.984 . S
H833 N827 0.985 . S
H834 N831 0.984 . S
H835 N831 0.985 . S
H836 N830 0.984 . S
H837 N830 0.984 . S
H838 N826 0.984 . S
H839 N826 0.985 . S
C840 C841 1.363 . S
C840 C846 1.379 . S
C840 N848 1.356 . S
C841 C840 1.363 . S
C841 C847 1.363 1_554 S
C842 C843 1.363 1_556 S
C842 C847 1.379 . S
C842 N849 1.356 . S
C843 C842 1.363 1_554 S
C843 C846 1.363 . S
N844 C846 1.356 . S
N844 H856 0.984 . S
N844 H857 0.985 . S
N845 C847 1.356 . S
N845 H850 0.984 . S
N845 H851 0.985 . S
C846 C840 1.379 . S
C846 C843 1.363 . S
C846 N844 1.356 . S
C847 C841 1.363 1_556 S
C847 C842 1.379 . S
C847 N845 1.356 . S
N848 C840 1.356 . S
N848 H854 0.984 . S
N848 H855 0.984 . S
N849 C842 1.356 . S
N849 H852 0.984 . S
N849 H853 0.985 . S
H850 N845 0.984 . S
H851 N845 0.985 . S
H852 N849 0.984 . S
H853 N849 0.985 . S
H854 N848 0.984 . S
H855 N848 0.984 . S
H856 N844 0.984 . S
H857 N844 0.985 . S
C858 C859 1.363 . S
C858 C864 1.379 . S
C858 N866 1.356 . S
C859 C858 1.363 . S
C859 C865 1.363 1_554 S
C860 C861 1.363 1_556 S
C860 C865 1.379 . S
C860 N867 1.356 . S
C861 C860 1.363 1_554 S
C861 C864 1.363 . S
N862 C864 1.356 . S
N862 H874 0.984 . S
N862 H875 0.985 . S
N863 C865 1.356 . S
N863 H868 0.984 . S
N863 H869 0.985 . S
C864 C858 1.379 . S
C864 C861 1.363 . S
C864 N862 1.356 . S
C865 C859 1.363 1_556 S
C865 C860 1.379 . S
C865 N863 1.356 . S
N866 C858 1.356 . S
N866 H872 0.984 . S
N866 H873 0.984 . S
N867 C860 1.356 . S
N867 H870 0.984 . S
N867 H871 0.985 . S
H868 N863 0.984 . S
H869 N863 0.985 . S
H870 N867 0.984 . S
H871 N867 0.985 . S
H872 N866 0.984 . S
H873 N866 0.984 . S
H874 N862 0.984 . S
H875 N862 0.985 . S
C876 C877 1.363 . S
C876 C882 1.379 . S
C876 N884 1.356 . S
C877 C876 1.363 . S
C877 C883 1.363 1_455 S
C878 C879 1.363 1_655 S
C878 C883 1.379 . S
C878 N885 1.356 . S
C879 C878 1.363 1_455 S
C879 C882 1.363 . S
N880 C882 1.356 . S
N880 H892 0.984 . S
N880 H893 0.985 . S
N881 C883 1.356 . S
N881 H886 0.984 . S
N881 H887 0.985 . S
C882 C876 1.379 . S
C882 C879 1.363 . S
C882 N880 1.356 . S
C883 C877 1.363 1_655 S
C883 C878 1.379 . S
C883 N881 1.356 . S
N884 C876 1.356 . S
N884 H890 0.984 . S
N884 H891 0.984 . S
N885 C878 1.356 . S
N885 H888 0.984 . S
N885 H889 0.985 . S
H886 N881 0.984 . S
H887 N881 0.985 . S
H888 N885 0.984 . S
H889 N885 0.985 . S
H890 N884 0.984 . S
H891 N884 0.984 . S
H892 N880 0.984 . S
H893 N880 0.985 . S
C894 C895 1.375 . S
C894 C900 1.379 . S
C894 N902 1.356 . S
C895 C894 1.375 . S
C895 C901 1.351 1_545 S
C896 C897 1.353 1_565 S
C896 C901 1.379 . S
C896 N903 1.356 . S
C897 C896 1.353 1_545 S
C897 C900 1.373 . S
N898 C900 1.356 . S
N898 H910 0.984 . S
N898 H911 0.985 . S
N899 C901 1.356 . S
N899 H904 0.984 . S
N899 H905 0.985 . S
C900 C894 1.379 . S
C900 C897 1.373 . S
C900 N898 1.356 . S
C901 C895 1.351 1_565 S
C901 C896 1.379 . S
C901 N899 1.356 . S
N902 C894 1.356 . S
N902 H908 0.984 . S
N902 H909 0.984 . S
N903 C896 1.356 . S
N903 H906 0.984 . S
N903 H907 0.985 . S
H904 N899 0.984 . S
H905 N899 0.985 . S
H906 N903 0.984 . S
H907 N903 0.985 . S
H908 N902 0.984 . S
H909 N902 0.984 . S
H910 N898 0.984 . S
H911 N898 0.985 . S
C912 C913 1.363 . S
C912 C918 1.379 . S
C912 N920 1.356 . S
C913 C912 1.363 . S
C913 C919 1.365 . S
C914 C915 1.365 . S
C914 C919 1.379 . S
C914 N921 1.355 1_455 S
C915 C914 1.365 . S
C915 C918 1.363 . S
N916 C918 1.356 . S
N916 H928 0.984 . S
N916 H929 0.985 . S
N917 C919 1.355 1_655 S
N917 H922 0.984 . S
N917 H923 0.985 . S
C918 C912 1.379 . S
C918 C915 1.363 . S
C918 N916 1.356 . S
C919 C913 1.365 . S
C919 C914 1.379 . S
C919 N917 1.355 1_455 S
N920 C912 1.356 . S
N920 H926 0.984 . S
N920 H927 0.984 . S
N921 C914 1.355 1_655 S
N921 H924 0.984 . S
N921 H925 0.985 . S
H922 N917 0.984 . S
H923 N917 0.985 . S
H924 N921 0.984 . S
H925 N921 0.985 . S
H926 N920 0.984 . S
H927 N920 0.984 . S
H928 N916 0.984 . S
H929 N916 0.985 . S
C930 C931 1.354 1_565 S
C930 C936 1.379 . S
C930 N938 1.356 . S
C931 C930 1.354 1_545 S
C931 C937 1.373 . S
C932 C933 1.373 . S
C932 C937 1.379 . S
C932 N939 1.356 . S
C933 C932 1.373 . S
C933 C936 1.353 1_545 S
N934 C936 1.356 . S
N934 H946 0.984 . S
N934 H947 0.985 . S
N935 C937 1.356 . S
N935 H940 0.984 . S
N935 H941 0.985 . S
C936 C930 1.379 . S
C936 C933 1.353 1_565 S
C936 N934 1.356 . S
C937 C931 1.373 . S
C937 C932 1.379 . S
C937 N935 1.356 . S
N938 C930 1.356 . S
N938 H944 0.984 . S
N938 H945 0.984 . S
N939 C932 1.356 . S
N939 H942 0.984 . S
N939 H943 0.985 . S
H940 N935 0.984 . S
H941 N935 0.985 . S
H942 N939 0.984 . S
H943 N939 0.985 . S
H944 N938 0.984 . S
H945 N938 0.984 . S
H946 N934 0.984 . S
H947 N934 0.985 . S
C948 C949 1.363 . S
C948 C954 1.379 . S
C948 N956 1.356 . S
C949 C948 1.363 . S
C949 C955 1.363 1_455 S
C950 C951 1.363 1_655 S
C950 C955 1.379 . S
C950 N957 1.356 . S
C951 C950 1.363 1_455 S
C951 C954 1.363 . S
N952 C954 1.356 . S
N952 H964 0.984 . S
N952 H965 0.985 . S
N953 C955 1.356 . S
N953 H958 0.984 . S
N953 H959 0.985 . S
C954 C948 1.379 . S
C954 C951 1.363 . S
C954 N952 1.356 . S
C955 C949 1.363 1_655 S
C955 C950 1.379 . S
C955 N953 1.356 . S
N956 C948 1.356 . S
N956 H962 0.984 . S
N956 H963 0.984 . S
N957 C950 1.356 . S
N957 H960 0.984 . S
N957 H961 0.985 . S
H958 N953 0.984 . S
H959 N953 0.985 . S
H960 N957 0.984 . S
H961 N957 0.985 . S
H962 N956 0.984 . S
H963 N956 0.984 . S
H964 N952 0.984 . S
H965 N952 0.985 . S
C966 C967 1.370 . S
C966 C972 1.379 . S
C966 N974 1.356 . S
C967 C966 1.370 . S
C967 C973 1.357 1_545 S
C968 C969 1.355 1_565 S
C968 C973 1.379 . S
C968 N975 1.356 . S
C969 C968 1.355 1_545 S
C969 C972 1.371 . S
N970 C972 1.356 . S
N970 H982 0.984 . S
N970 H983 0.985 . S
N971 C973 1.356 . S
N971 H976 0.984 . S
N971 H977 0.985 . S
C972 C966 1.379 . S
C972 C969 1.371 . S
C972 N970 1.356 . S
C973 C967 1.357 1_565 S
C973 C968 1.379 . S
C973 N971 1.356 . S
N974 C966 1.356 . S
N974 H980 0.984 . S
N974 H981 0.984 . S
N975 C968 1.356 . S
N975 H978 0.984 . S
N975 H979 0.985 . S
H976 N971 0.984 . S
H977 N971 0.985 . S
H978 N975 0.984 . S
H979 N975 0.985 . S
H980 N974 0.984 . S
H981 N974 0.984 . S
H982 N970 0.984 . S
H983 N970 0.985 . S
C984 C985 1.363 1_655 S
C984 C990 1.379 . S
C984 N992 1.356 . S
C985 C984 1.363 1_455 S
C985 C991 1.363 . S
C986 C987 1.363 . S
C986 C991 1.379 . S
C986 N993 1.356 . S
C987 C986 1.363 . S
C987 C990 1.363 1_455 S
N988 C990 1.356 . S
N988 H1000 0.984 . S
N988 H1001 0.985 . S
N989 C991 1.356 . S
N989 H994 0.984 . S
N989 H995 0.985 . S
C990 C984 1.379 . S
C990 C987 1.363 1_655 S
C990 N988 1.356 . S
C991 C985 1.363 . S
C991 C986 1.379 . S
C991 N989 1.356 . S
N992 C984 1.356 . S
N992 H998 0.984 . S
N992 H999 0.984 . S
N993 C986 1.356 . S
N993 H996 0.984 . S
N993 H997 0.985 . S
H994 N989 0.984 . S
H995 N989 0.985 . S
H996 N993 0.984 . S
H997 N993 0.985 . S
H998 N992 0.984 . S
H999 N992 0.984 . S
H1000 N988 0.984 . S
H1001 N988 0.985 . S
C1002 C1003 1.357 1_565 S
C1002 C1008 1.379 . S
C1002 N1010 1.356 . S
C1003 C1002 1.357 1_545 S
C1003 C1009 1.369 . S
C1004 C1005 1.371 . S
C1004 C1009 1.379 . S
C1004 N1011 1.356 . S
C1005 C1004 1.371 . S
C1005 C1008 1.355 1_545 S
N1006 C1008 1.356 . S
N1006 H1018 0.984 . S
N1006 H1019 0.985 . S
N1007 C1009 1.356 . S
N1007 H1012 0.984 . S
N1007 H1013 0.985 . S
C1008 C1002 1.379 . S
C1008 C1005 1.355 1_565 S
C1008 N1006 1.356 . S
C1009 C1003 1.369 . S
C1009 C1004 1.379 . S
C1009 N1007 1.356 . S
N1010 C1002 1.356 . S
N1010 H1016 0.984 . S
N1010 H1017 0.984 . S
N1011 C1004 1.356 . S
N1011 H1014 0.984 . S
N1011 H1015 0.985 . S
H1012 N1007 0.984 . S
H1013 N1007 0.985 . S
H1014 N1011 0.984 . S
H1015 N1011 0.985 . S
H1016 N1010 0.984 . S
H1017 N1010 0.984 . S
H1018 N1006 0.984 . S
H1019 N1006 0.985 . S
C1020 C1021 1.363 . S
C1020 C1026 1.379 . S
C1020 N1028 1.356 . S
C1021 C1020 1.363 . S
C1021 C1027 1.366 . S
C1022 C1023 1.362 1_655 S
C1022 C1027 1.378 1_655 S
C1022 N1029 1.358 . S
C1023 C1022 1.362 1_455 S
C1023 C1026 1.363 . S
N1024 C1026 1.356 . S
N1024 H1036 0.984 . S
N1024 H1037 0.985 . S
N1025 C1027 1.355 1_655 S
N1025 H1030 0.984 . S
N1025 H1031 0.985 . S
C1026 C1020 1.379 . S
C1026 C1023 1.363 . S
C1026 N1024 1.356 . S
C1027 C1021 1.366 . S
C1027 C1022 1.378 1_455 S
C1027 N1025 1.355 1_455 S
N1028 C1020 1.356 . S
N1028 H1034 0.984 . S
N1028 H1035 0.984 . S
N1029 C1022 1.358 . S
N1029 H1032 0.984 . S
N1029 H1033 0.985 . S
H1030 N1025 0.984 . S
H1031 N1025 0.985 . S
H1032 N1029 0.984 . S
H1033 N1029 0.985 . S
H1034 N1028 0.984 . S
H1035 N1028 0.984 . S
H1036 N1024 0.984 . S
H1037 N1024 0.985 . S
C1038 C1039 1.356 1_565 S
C1038 C1044 1.379 . S
C1038 N1046 1.356 . S
C1039 C1038 1.356 1_545 S
C1039 C1045 1.370 . S
C1040 C1041 1.371 . S
C1040 C1045 1.379 . S
C1040 N1047 1.356 . S
C1041 C1040 1.371 . S
C1041 C1044 1.355 1_545 S
N1042 C1044 1.356 . S
N1042 H1054 0.984 . S
N1042 H1055 0.985 . S
N1043 C1045 1.356 . S
N1043 H1048 0.984 . S
N1043 H1049 0.985 . S
C1044 C1038 1.379 . S
C1044 C1041 1.355 1_565 S
C1044 N1042 1.356 . S
C1045 C1039 1.370 . S
C1045 C1040 1.379 . S
C1045 N1043 1.356 . S
N1046 C1038 1.356 . S
N1046 H1052 0.984 . S
N1046 H1053 0.984 . S
N1047 C1040 1.356 . S
N1047 H1050 0.984 . S
N1047 H1051 0.985 . S
H1048 N1043 0.984 . S
H1049 N1043 0.985 . S
H1050 N1047 0.984 . S
H1051 N1047 0.985 . S
H1052 N1046 0.984 . S
H1053 N1046 0.984 . S
H1054 N1042 0.984 . S
H1055 N1042 0.985 . S
C1056 C1057 1.363 1_655 S
C1056 C1062 1.379 . S
C1056 N1064 1.356 . S
C1057 C1056 1.363 1_455 S
C1057 C1063 1.363 . S
C1058 C1059 1.363 . S
C1058 C1063 1.379 . S
C1058 N1065 1.356 . S
C1059 C1058 1.363 . S
C1059 C1062 1.363 1_455 S
N1060 C1062 1.356 . S
N1060 H1072 0.984 . S
N1060 H1073 0.985 . S
N1061 C1063 1.356 . S
N1061 H1066 0.984 . S
N1061 H1067 0.985 . S
C1062 C1056 1.379 . S
C1062 C1059 1.363 1_655 S
C1062 N1060 1.356 . S
C1063 C1057 1.363 . S
C1063 C1058 1.379 . S
C1063 N1061 1.356 . S
N1064 C1056 1.356 . S
N1064 H1070 0.984 . S
N1064 H1071 0.984 . S
N1065 C1058 1.356 . S
N1065 H1068 0.984 . S
N1065 H1069 0.985 . S
H1066 N1061 0.984 . S
H1067 N1061 0.985 . S
H1068 N1065 0.984 . S
H1069 N1065 0.985 . S
H1070 N1064 0.984 . S
H1071 N1064 0.984 . S
H1072 N1060 0.984 . S
H1073 N1060 0.985 . S
C1074 C1075 1.370 . S
C1074 C1080 1.379 . S
C1074 N1082 1.356 . S
C1075 C1074 1.370 . S
C1075 C1081 1.356 1_545 S
C1076 C1077 1.355 1_565 S
C1076 C1081 1.379 . S
C1076 N1083 1.356 . S
C1077 C1076 1.355 1_545 S
C1077 C1080 1.371 . S
N1078 C1080 1.356 . S
N1078 H1090 0.984 . S
N1078 H1091 0.985 . S
N1079 C1081 1.356 . S
N1079 H1084 0.984 . S
N1079 H1085 0.985 . S
C1080 C1074 1.379 . S
C1080 C1077 1.371 . S
C1080 N1078 1.356 . S
C1081 C1075 1.356 1_565 S
C1081 C1076 1.379 . S
C1081 N1079 1.356 . S
N1082 C1074 1.356 . S
N1082 H1088 0.984 . S
N1082 H1089 0.984 . S
N1083 C1076 1.356 . S
N1083 H1086 0.984 . S
N1083 H1087 0.985 . S
H1084 N1079 0.984 . S
H1085 N1079 0.985 . S
H1086 N1083 0.984 . S
H1087 N1083 0.985 . S
H1088 N1082 0.984 . S
H1089 N1082 0.984 . S
H1090 N1078 0.984 . S
H1091 N1078 0.985 . S
C1092 C1093 1.363 . S
C1092 C1098 1.379 . S
C1092 N1100 1.356 . S
C1093 C1092 1.363 . S
C1093 C1099 1.363 . S
C1094 C1095 1.363 . S
C1094 C1099 1.379 . S
C1094 N1101 1.356 . S
C1095 C1094 1.363 . S
C1095 C1098 1.363 . S
N1096 C1098 1.356 1_655 S
N1096 H1108 0.984 . S
N1096 H1109 0.985 . S
N1097 C1099 1.356 . S
N1097 H1102 0.984 . S
N1097 H1103 0.985 . S
C1098 C1092 1.379 . S
C1098 C1095 1.363 . S
C1098 N1096 1.356 1_455 S
C1099 C1093 1.363 . S
C1099 C1094 1.379 . S
C1099 N1097 1.356 . S
N1100 C1092 1.356 . S
N1100 H1106 0.984 1_455 S
N1100 H1107 0.984 . S
N1101 C1094 1.356 . S
N1101 H1104 0.984 . S
N1101 H1105 0.985 . S
H1102 N1097 0.984 . S
H1103 N1097 0.985 . S
H1104 N1101 0.984 . S
H1105 N1101 0.985 . S
H1106 N1100 0.984 1_655 S
H1107 N1100 0.984 . S
H1108 N1096 0.984 . S
H1109 N1096 0.985 . S
C1110 C1111 1.375 . S
C1110 C1116 1.379 . S
C1110 N1118 1.356 . S
C1111 C1110 1.375 . S
C1111 C1117 1.351 1_545 S
C1112 C1113 1.352 1_565 S
C1112 C1117 1.379 . S
C1112 N1119 1.356 . S
C1113 C1112 1.352 1_545 S
C1113 C1116 1.374 . S
N1114 C1116 1.356 . S
N1114 H1126 0.984 . S
N1114 H1127 0.985 . S
N1115 C1117 1.356 . S
N1115 H1120 0.984 . S
N1115 H1121 0.985 . S
C1116 C1110 1.379 . S
C1116 C1113 1.374 . S
C1116 N1114 1.356 . S
C1117 C1111 1.351 1_565 S
C1117 C1112 1.379 . S
C1117 N1115 1.356 . S
N1118 C1110 1.356 . S
N1118 H1124 0.984 . S
N1118 H1125 0.984 . S
N1119 C1112 1.356 . S
N1119 H1122 0.984 . S
N1119 H1123 0.985 . S
H1120 N1115 0.984 . S
H1121 N1115 0.985 . S
H1122 N1119 0.984 . S
H1123 N1119 0.985 . S
H1124 N1118 0.984 . S
H1125 N1118 0.984 . S
H1126 N1114 0.984 . S
H1127 N1114 0.985 . S
C1128 C1129 1.363 . S
C1128 C1134 1.379 . S
C1128 N1136 1.356 . S
C1129 C1128 1.363 . S
C1129 C1135 1.363 . S
C1130 C1131 1.363 . S
C1130 C1135 1.379 . S
C1130 N1137 1.356 . S
C1131 C1130 1.363 . S
C1131 C1134 1.363 . S
N1132 C1134 1.356 . S
N1132 H1144 0.984 . S
N1132 H1145 0.985 . S
N1133 C1135 1.356 . S
N1133 H1138 0.984 . S
N1133 H1139 0.985 . S
C1134 C1128 1.379 . S
C1134 C1131 1.363 . S
C1134 N1132 1.356 . S
C1135 C1129 1.363 . S
C1135 C1130 1.379 . S
C1135 N1133 1.356 . S
N1136 C1128 1.356 . S
N1136 H1142 0.984 . S
N1136 H1143 0.984 . S
N1137 C1130 1.356 . S
N1137 H1140 0.984 . S
N1137 H1141 0.985 . S
H1138 N1133 0.984 . S
H1139 N1133 0.985 . S
H1140 N1137 0.984 . S
H1141 N1137 0.985 . S
H1142 N1136 0.984 . S
H1143 N1136 0.984 . S
H1144 N1132 0.984 . S
H1145 N1132 0.985 . S
C1146 C1147 1.353 1_565 S
C1146 C1152 1.379 . S
C1146 N1154 1.356 . S
C1147 C1146 1.353 1_545 S
C1147 C1153 1.373 . S
C1148 C1149 1.373 . S
C1148 C1153 1.379 . S
C1148 N1155 1.356 . S
C1149 C1148 1.373 . S
C1149 C1152 1.353 1_545 S
N1150 C1152 1.356 . S
N1150 H1162 0.984 . S
N1150 H1163 0.985 . S
N1151 C1153 1.356 . S
N1151 H1156 0.984 . S
N1151 H1157 0.985 . S
C1152 C1146 1.379 . S
C1152 C1149 1.353 1_565 S
C1152 N1150 1.356 . S
C1153 C1147 1.373 . S
C1153 C1148 1.379 . S
C1153 N1151 1.356 . S
N1154 C1146 1.356 . S
N1154 H1160 0.984 . S
N1154 H1161 0.984 . S
N1155 C1148 1.356 . S
N1155 H1158 0.984 . S
N1155 H1159 0.985 . S
H1156 N1151 0.984 . S
H1157 N1151 0.985 . S
H1158 N1155 0.984 . S
H1159 N1155 0.985 . S
H1160 N1154 0.984 . S
H1161 N1154 0.984 . S
H1162 N1150 0.984 . S
H1163 N1150 0.985 . S
C1164 C1165 1.368 . S
C1164 C1170 1.379 . S
C1164 N1172 1.356 . S
C1165 C1164 1.368 . S
C1165 C1171 1.358 1_545 S
C1166 C1167 1.362 1_565 S
C1166 C1171 1.379 . S
C1166 N1173 1.356 . S
C1167 C1166 1.362 1_545 S
C1167 C1170 1.364 . S
N1168 C1170 1.356 . S
N1168 H1180 0.984 . S
N1168 H1181 0.985 . S
N1169 C1171 1.356 . S
N1169 H1174 0.984 . S
N1169 H1175 0.985 . S
C1170 C1164 1.379 . S
C1170 C1167 1.364 . S
C1170 N1168 1.356 . S
C1171 C1165 1.358 1_565 S
C1171 C1166 1.379 . S
C1171 N1169 1.356 . S
N1172 C1164 1.356 . S
N1172 H1178 0.984 . S
N1172 H1179 0.984 . S
N1173 C1166 1.356 . S
N1173 H1176 0.984 . S
N1173 H1177 0.985 . S
H1174 N1169 0.984 . S
H1175 N1169 0.985 . S
H1176 N1173 0.984 . S
H1177 N1173 0.985 . S
H1178 N1172 0.984 . S
H1179 N1172 0.984 . S
H1180 N1168 0.984 . S
H1181 N1168 0.985 . S
C1182 C1183 1.363 . S
C1182 C1188 1.379 . S
C1182 N1190 1.356 . S
C1183 C1182 1.363 . S
C1183 C1189 1.363 . S
C1184 C1185 1.363 . S
C1184 C1189 1.379 . S
C1184 N1191 1.356 . S
C1185 C1184 1.363 . S
C1185 C1188 1.363 . S
N1186 C1188 1.356 . S
N1186 H1198 0.984 . S
N1186 H1199 0.985 . S
N1187 C1189 1.356 . S
N1187 H1192 0.984 . S
N1187 H1193 0.985 1_455 S
C1188 C1182 1.379 . S
C1188 C1185 1.363 . S
C1188 N1186 1.356 . S
C1189 C1183 1.363 . S
C1189 C1184 1.379 . S
C1189 N1187 1.356 . S
N1190 C1182 1.356 . S
N1190 H1196 0.984 . S
N1190 H1197 0.984 . S
N1191 C1184 1.356 . S
N1191 H1194 0.984 . S
N1191 H1195 0.984 1_455 S
H1192 N1187 0.984 . S
H1193 N1187 0.985 1_655 S
H1194 N1191 0.984 . S
H1195 N1191 0.984 1_655 S
H1196 N1190 0.984 . S
H1197 N1190 0.984 . S
H1198 N1186 0.984 . S
H1199 N1186 0.985 . S
C1200 C1201 1.358 1_565 S
C1200 C1206 1.379 . S
C1200 N1208 1.356 . S
C1201 C1200 1.358 1_545 S
C1201 C1207 1.368 . S
C1202 C1203 1.364 . S
C1202 C1207 1.379 . S
C1202 N1209 1.356 . S
C1203 C1202 1.364 . S
C1203 C1206 1.362 1_545 S
N1204 C1206 1.356 . S
N1204 H1216 0.984 . S
N1204 H1217 0.985 . S
N1205 C1207 1.356 . S
N1205 H1210 0.984 . S
N1205 H1211 0.985 . S
C1206 C1200 1.379 . S
C1206 C1203 1.362 1_565 S
C1206 N1204 1.356 . S
C1207 C1201 1.368 . S
C1207 C1202 1.379 . S
C1207 N1205 1.356 . S
N1208 C1200 1.356 . S
N1208 H1214 0.984 . S
N1208 H1215 0.984 . S
N1209 C1202 1.356 . S
N1209 H1212 0.984 . S
N1209 H1213 0.985 . S
H1210 N1205 0.984 . S
H1211 N1205 0.985 . S
H1212 N1209 0.984 . S
H1213 N1209 0.985 . S
H1214 N1208 0.984 . S
H1215 N1208 0.984 . S
H1216 N1204 0.984 . S
H1217 N1204 0.985 . S
C1218 C1219 1.363 1_655 S
C1218 C1224 1.379 . S
C1218 N1226 1.356 . S
C1219 C1218 1.363 1_455 S
C1219 C1225 1.363 . S
C1220 C1221 1.363 . S
C1220 C1225 1.379 . S
C1220 N1227 1.356 . S
C1221 C1220 1.363 . S
C1221 C1224 1.363 1_455 S
N1222 C1224 1.356 . S
N1222 H1234 0.984 . S
N1222 H1235 0.985 . S
N1223 C1225 1.356 . S
N1223 H1228 0.984 . S
N1223 H1229 0.985 . S
C1224 C1218 1.379 . S
C1224 C1221 1.363 1_655 S
C1224 N1222 1.356 . S
C1225 C1219 1.363 . S
C1225 C1220 1.379 . S
C1225 N1223 1.356 . S
N1226 C1218 1.356 . S
N1226 H1232 0.984 . S
N1226 H1233 0.984 . S
N1227 C1220 1.356 . S
N1227 H1230 0.984 . S
N1227 H1231 0.985 . S
H1228 N1223 0.984 . S
H1229 N1223 0.985 . S
H1230 N1227 0.984 . S
H1231 N1227 0.985 . S
H1232 N1226 0.984 . S
H1233 N1226 0.984 . S
H1234 N1222 0.984 . S
H1235 N1222 0.985 . S
C1236 C1237 1.350 1_565 S
C1236 C1242 1.379 . S
C1236 N1244 1.356 . S
C1237 C1236 1.350 1_545 S
C1237 C1243 1.377 . S
C1238 C1239 1.381 . S
C1238 C1243 1.379 . S
C1238 N1245 1.356 . S
C1239 C1238 1.381 . S
C1239 C1242 1.346 1_545 S
N1240 C1242 1.356 . S
N1240 H1252 0.984 . S
N1240 H1253 0.985 . S
N1241 C1243 1.356 . S
N1241 H1246 0.984 . S
N1241 H1247 0.985 . S
C1242 C1236 1.379 . S
C1242 C1239 1.346 1_565 S
C1242 N1240 1.356 . S
C1243 C1237 1.377 . S
C1243 C1238 1.379 . S
C1243 N1241 1.356 . S
N1244 C1236 1.356 . S
N1244 H1250 0.984 . S
N1244 H1251 0.984 . S
N1245 C1238 1.356 . S
N1245 H1248 0.984 . S
N1245 H1249 0.985 . S
H1246 N1241 0.984 . S
H1247 N1241 0.985 . S
H1248 N1245 0.984 . S
H1249 N1245 0.985 . S
H1250 N1244 0.984 . S
H1251 N1244 0.984 . S
H1252 N1240 0.984 . S
H1253 N1240 0.985 . S
C1254 C1255 1.363 . S
C1254 C1260 1.379 . S
C1254 N1262 1.356 . S
C1255 C1254 1.363 . S
C1255 C1261 1.363 1_455 S
C1256 C1257 1.363 1_655 S
C1256 C1261 1.379 . S
C1256 N1263 1.356 . S
C1257 C1256 1.363 1_455 S
C1257 C1260 1.363 . S
N1258 C1260 1.356 . S
N1258 H1270 0.984 . S
N1258 H1271 0.985 . S
N1259 C1261 1.356 . S
N1259 H1264 0.984 . S
N1259 H1265 0.985 . S
C1260 C1254 1.379 . S
C1260 C1257 1.363 . S
C1260 N1258 1.356 . S
C1261 C1255 1.363 1_655 S
C1261 C1256 1.379 . S
C1261 N1259 1.356 . S
N1262 C1254 1.356 . S
N1262 H1268 0.984 . S
N1262 H1269 0.984 . S
N1263 C1256 1.356 . S
N1263 H1266 0.984 . S
N1263 H1267 0.985 . S
H1264 N1259 0.984 . S
H1265 N1259 0.985 . S
H1266 N1263 0.984 . S
H1267 N1263 0.985 . S
H1268 N1262 0.984 . S
H1269 N1262 0.984 . S
H1270 N1258 0.984 . S
H1271 N1258 0.985 . S
C1272 C1273 1.352 1_565 S
C1272 C1278 1.379 . S
C1272 N1280 1.356 . S
C1273 C1272 1.352 1_545 S
C1273 C1279 1.374 . S
C1274 C1275 1.380 . S
C1274 C1279 1.379 . S
C1274 N1281 1.356 . S
C1275 C1274 1.380 . S
C1275 C1278 1.346 1_545 S
N1276 C1278 1.356 . S
N1276 H1288 0.984 . S
N1276 H1289 0.985 . S
N1277 C1279 1.356 . S
N1277 H1282 0.984 . S
N1277 H1283 0.985 . S
C1278 C1272 1.379 . S
C1278 C1275 1.346 1_565 S
C1278 N1276 1.356 . S
C1279 C1273 1.374 . S
C1279 C1274 1.379 . S
C1279 N1277 1.356 . S
N1280 C1272 1.356 . S
N1280 H1286 0.984 . S
N1280 H1287 0.984 . S
N1281 C1274 1.356 . S
N1281 H1284 0.984 . S
N1281 H1285 0.985 . S
H1282 N1277 0.984 . S
H1283 N1277 0.985 . S
H1284 N1281 0.984 . S
H1285 N1281 0.985 . S
H1286 N1280 0.984 . S
H1287 N1280 0.984 . S
H1288 N1276 0.984 . S
H1289 N1276 0.985 . S
C1290 C1291 1.363 . S
C1290 C1296 1.379 . S
C1290 N1298 1.356 . S
C1291 C1290 1.363 . S
C1291 C1297 1.363 1_455 S
C1292 C1293 1.363 1_655 S
C1292 C1297 1.379 . S
C1292 N1299 1.356 . S
C1293 C1292 1.363 1_455 S
C1293 C1296 1.363 . S
N1294 C1296 1.356 . S
N1294 H1306 0.984 . S
N1294 H1307 0.985 . S
N1295 C1297 1.356 . S
N1295 H1300 0.984 . S
N1295 H1301 0.985 . S
C1296 C1290 1.379 . S
C1296 C1293 1.363 . S
C1296 N1294 1.356 . S
C1297 C1291 1.363 1_655 S
C1297 C1292 1.379 . S
C1297 N1295 1.356 . S
N1298 C1290 1.356 . S
N1298 H1304 0.984 . S
N1298 H1305 0.984 . S
N1299 C1292 1.356 . S
N1299 H1302 0.984 . S
N1299 H1303 0.985 . S
H1300 N1295 0.984 . S
H1301 N1295 0.985 . S
H1302 N1299 0.984 . S
H1303 N1299 0.985 . S
H1304 N1298 0.984 . S
H1305 N1298 0.984 . S
H1306 N1294 0.984 . S
H1307 N1294 0.985 . S
C1308 C1309 1.363 1_556 S
C1308 C1314 1.379 . S
C1308 N1316 1.356 . S
C1309 C1308 1.363 1_554 S
C1309 C1315 1.363 . S
C1310 C1311 1.363 . S
C1310 C1315 1.379 . S
C1310 N1317 1.356 . S
C1311 C1310 1.363 . S
C1311 C1314 1.363 1_554 S
N1312 C1314 1.356 . S
N1312 H1324 0.984 . S
N1312 H1325 0.985 . S
N1313 C1315 1.356 . S
N1313 H1318 0.984 . S
N1313 H1319 0.985 . S
C1314 C1308 1.379 . S
C1314 C1311 1.363 1_556 S
C1314 N1312 1.356 . S
C1315 C1309 1.363 . S
C1315 C1310 1.379 . S
C1315 N1313 1.356 . S
N1316 C1308 1.356 . S
N1316 H1322 0.984 . S
N1316 H1323 0.984 . S
N1317 C1310 1.356 . S
N1317 H1320 0.984 . S
N1317 H1321 0.985 . S
H1318 N1313 0.984 . S
H1319 N1313 0.985 . S
H1320 N1317 0.984 . S
H1321 N1317 0.985 . S
H1322 N1316 0.984 . S
H1323 N1316 0.984 . S
H1324 N1312 0.984 . S
H1325 N1312 0.985 . S
C1326 C1327 1.363 1_556 S
C1326 C1332 1.379 . S
C1326 N1334 1.356 . S
C1327 C1326 1.363 1_554 S
C1327 C1333 1.363 . S
C1328 C1329 1.363 . S
C1328 C1333 1.379 . S
C1328 N1335 1.356 . S
C1329 C1328 1.363 . S
C1329 C1332 1.363 1_554 S
N1330 C1332 1.356 . S
N1330 H1342 0.984 . S
N1330 H1343 0.985 . S
N1331 C1333 1.356 . S
N1331 H1336 0.984 . S
N1331 H1337 0.985 . S
C1332 C1326 1.379 . S
C1332 C1329 1.363 1_556 S
C1332 N1330 1.356 . S
C1333 C1327 1.363 . S
C1333 C1328 1.379 . S
C1333 N1331 1.356 . S
N1334 C1326 1.356 . S
N1334 H1340 0.984 . S
N1334 H1341 0.984 . S
N1335 C1328 1.356 . S
N1335 H1338 0.984 . S
N1335 H1339 0.985 . S
H1336 N1331 0.984 . S
H1337 N1331 0.985 . S
H1338 N1335 0.984 . S
H1339 N1335 0.985 . S
H1340 N1334 0.984 . S
H1341 N1334 0.984 . S
H1342 N1330 0.984 . S
H1343 N1330 0.985 . S
C1344 C1345 1.363 1_556 S
C1344 C1350 1.379 . S
C1344 N1352 1.356 . S
C1345 C1344 1.363 1_554 S
C1345 C1351 1.363 . S
C1346 C1347 1.363 . S
C1346 C1351 1.379 . S
C1346 N1353 1.356 . S
C1347 C1346 1.363 . S
C1347 C1350 1.363 1_554 S
N1348 C1350 1.356 . S
N1348 H1360 0.984 . S
N1348 H1361 0.985 . S
N1349 C1351 1.356 . S
N1349 H1354 0.984 . S
N1349 H1355 0.985 . S
C1350 C1344 1.379 . S
C1350 C1347 1.363 1_556 S
C1350 N1348 1.356 . S
C1351 C1345 1.363 . S
C1351 C1346 1.379 . S
C1351 N1349 1.356 . S
N1352 C1344 1.356 . S
N1352 H1358 0.984 . S
N1352 H1359 0.984 . S
N1353 C1346 1.356 . S
N1353 H1356 0.984 . S
N1353 H1357 0.985 . S
H1354 N1349 0.984 . S
H1355 N1349 0.985 . S
H1356 N1353 0.984 . S
H1357 N1353 0.985 . S
H1358 N1352 0.984 . S
H1359 N1352 0.984 . S
H1360 N1348 0.984 . S
H1361 N1348 0.985 . S
C1362 C1363 1.363 . S
C1362 C1368 1.379 . S
C1362 N1370 1.356 . S
C1363 C1362 1.363 . S
C1363 C1369 1.363 1_554 S
C1364 C1365 1.363 1_556 S
C1364 C1369 1.379 . S
C1364 N1371 1.356 . S
C1365 C1364 1.363 1_554 S
C1365 C1368 1.363 . S
N1366 C1368 1.356 . S
N1366 H1378 0.984 . S
N1366 H1379 0.985 . S
N1367 C1369 1.356 . S
N1367 H1372 0.984 . S
N1367 H1373 0.985 . S
C1368 C1362 1.379 . S
C1368 C1365 1.363 . S
C1368 N1366 1.356 . S
C1369 C1363 1.363 1_556 S
C1369 C1364 1.379 . S
C1369 N1367 1.356 . S
N1370 C1362 1.356 . S
N1370 H1376 0.984 . S
N1370 H1377 0.984 . S
N1371 C1364 1.356 . S
N1371 H1374 0.984 . S
N1371 H1375 0.985 . S
H1372 N1367 0.984 . S
H1373 N1367 0.985 . S
H1374 N1371 0.984 . S
H1375 N1371 0.985 . S
H1376 N1370 0.984 . S
H1377 N1370 0.984 . S
H1378 N1366 0.984 . S
H1379 N1366 0.985 . S
C1380 C1381 1.363 1_556 S
C1380 C1386 1.379 . S
C1380 N1388 1.356 . S
C1381 C1380 1.363 1_554 S
C1381 C1387 1.363 . S
C1382 C1383 1.363 . S
C1382 C1387 1.379 . S
C1382 N1389 1.356 . S
C1383 C1382 1.363 . S
C1383 C1386 1.363 1_554 S
N1384 C1386 1.356 . S
N1384 H1396 0.984 . S
N1384 H1397 0.985 . S
N1385 C1387 1.356 . S
N1385 H1390 0.984 . S
N1385 H1391 0.985 . S
C1386 C1380 1.379 . S
C1386 C1383 1.363 1_556 S
C1386 N1384 1.356 . S
C1387 C1381 1.363 . S
C1387 C1382 1.379 . S
C1387 N1385 1.356 . S
N1388 C1380 1.356 . S
N1388 H1394 0.984 . S
N1388 H1395 0.984 . S
N1389 C1382 1.356 . S
N1389 H1392 0.984 . S
N1389 H1393 0.985 . S
H1390 N1385 0.984 . S
H1391 N1385 0.985 . S
H1392 N1389 0.984 . S
H1393 N1389 0.985 . S
H1394 N1388 0.984 . S
H1395 N1388 0.984 . S
H1396 N1384 0.984 . S
H1397 N1384 0.985 . S
C1398 C1399 1.363 . S
C1398 C1404 1.379 . S
C1398 N1406 1.356 . S
C1399 C1398 1.363 . S
C1399 C1405 1.363 1_554 S
C1400 C1401 1.363 1_556 S
C1400 C1405 1.379 . S
C1400 N1407 1.356 . S
C1401 C1400 1.363 1_554 S
C1401 C1404 1.363 . S
N1402 C1404 1.356 . S
N1402 H1414 0.984 . S
N1402 H1415 0.985 . S
N1403 C1405 1.356 . S
N1403 H1408 0.984 . S
N1403 H1409 0.985 . S
C1404 C1398 1.379 . S
C1404 C1401 1.363 . S
C1404 N1402 1.356 . S
C1405 C1399 1.363 1_556 S
C1405 C1400 1.379 . S
C1405 N1403 1.356 . S
N1406 C1398 1.356 . S
N1406 H1412 0.984 . S
N1406 H1413 0.984 . S
N1407 C1400 1.356 . S
N1407 H1410 0.984 . S
N1407 H1411 0.985 . S
H1408 N1403 0.984 . S
H1409 N1403 0.985 . S
H1410 N1407 0.984 . S
H1411 N1407 0.985 . S
H1412 N1406 0.984 . S
H1413 N1406 0.984 . S
H1414 N1402 0.984 . S
H1415 N1402 0.985 . S
C1416 C1417 1.363 1_556 S
C1416 C1422 1.379 . S
C1416 N1424 1.356 . S
C1417 C1416 1.363 1_554 S
C1417 C1423 1.363 . S
C1418 C1419 1.363 . S
C1418 C1423 1.379 . S
C1418 N1425 1.356 . S
C1419 C1418 1.363 . S
C1419 C1422 1.363 1_554 S
N1420 C1422 1.356 . S
N1420 H1432 0.984 . S
N1420 H1433 0.985 . S
N1421 C1423 1.356 . S
N1421 H1426 0.984 . S
N1421 H1427 0.985 . S
C1422 C1416 1.379 . S
C1422 C1419 1.363 1_556 S
C1422 N1420 1.356 . S
C1423 C1417 1.363 . S
C1423 C1418 1.379 . S
C1423 N1421 1.356 . S
N1424 C1416 1.356 . S
N1424 H1430 0.984 . S
N1424 H1431 0.984 . S
N1425 C1418 1.356 . S
N1425 H1428 0.984 . S
N1425 H1429 0.985 . S
H1426 N1421 0.984 . S
H1427 N1421 0.985 . S
H1428 N1425 0.984 . S
H1429 N1425 0.985 . S
H1430 N1424 0.984 . S
H1431 N1424 0.984 . S
H1432 N1420 0.984 . S
H1433 N1420 0.985 . S
C1434 C1435 1.363 1_556 S
C1434 C1440 1.379 . S
C1434 N1442 1.356 . S
C1435 C1434 1.363 1_554 S
C1435 C1441 1.363 . S
C1436 C1437 1.363 . S
C1436 C1441 1.379 . S
C1436 N1443 1.356 . S
C1437 C1436 1.363 . S
C1437 C1440 1.363 1_554 S
N1438 C1440 1.356 . S
N1438 H1450 0.984 . S
N1438 H1451 0.985 . S
N1439 C1441 1.356 . S
N1439 H1444 0.984 . S
N1439 H1445 0.985 . S
C1440 C1434 1.379 . S
C1440 C1437 1.363 1_556 S
C1440 N1438 1.356 . S
C1441 C1435 1.363 . S
C1441 C1436 1.379 . S
C1441 N1439 1.356 . S
N1442 C1434 1.356 . S
N1442 H1448 0.984 . S
N1442 H1449 0.984 . S
N1443 C1436 1.356 . S
N1443 H1446 0.984 . S
N1443 H1447 0.985 . S
H1444 N1439 0.984 . S
H1445 N1439 0.985 . S
H1446 N1443 0.984 . S
H1447 N1443 0.985 . S
H1448 N1442 0.984 . S
H1449 N1442 0.984 . S
H1450 N1438 0.984 . S
H1451 N1438 0.985 . S
C1452 C1453 1.363 . S
C1452 C1458 1.379 . S
C1452 N1460 1.356 . S
C1453 C1452 1.363 . S
C1453 C1459 1.363 . S
C1454 C1455 1.363 . S
C1454 C1459 1.379 . S
C1454 N1461 1.356 . S
C1455 C1454 1.363 . S
C1455 C1458 1.363 . S
N1456 C1458 1.356 . S
N1456 H1468 0.984 . S
N1456 H1469 0.985 . S
N1457 C1459 1.356 . S
N1457 H1462 0.984 . S
N1457 H1463 0.985 . S
C1458 C1452 1.379 . S
C1458 C1455 1.363 . S
C1458 N1456 1.356 . S
C1459 C1453 1.363 . S
C1459 C1454 1.379 . S
C1459 N1457 1.356 . S
N1460 C1452 1.356 . S
N1460 H1466 0.984 . S
N1460 H1467 0.984 . S
N1461 C1454 1.356 . S
N1461 H1464 0.984 . S
N1461 H1465 0.985 . S
H1462 N1457 0.984 . S
H1463 N1457 0.985 . S
H1464 N1461 0.984 . S
H1465 N1461 0.985 . S
H1466 N1460 0.984 . S
H1467 N1460 0.984 . S
H1468 N1456 0.984 . S
H1469 N1456 0.985 . S
C1470 C1471 1.363 . S
C1470 C1476 1.379 . S
C1470 N1478 1.356 . S
C1471 C1470 1.363 . S
C1471 C1477 1.363 . S
C1472 C1473 1.363 . S
C1472 C1477 1.379 . S
C1472 N1479 1.356 . S
C1473 C1472 1.363 . S
C1473 C1476 1.363 . S
N1474 C1476 1.356 . S
N1474 H1486 0.984 . S
N1474 H1487 0.985 . S
N1475 C1477 1.356 . S
N1475 H1480 0.984 . S
N1475 H1481 0.985 . S
C1476 C1470 1.379 . S
C1476 C1473 1.363 . S
C1476 N1474 1.356 . S
C1477 C1471 1.363 . S
C1477 C1472 1.379 . S
C1477 N1475 1.356 . S
N1478 C1470 1.356 . S
N1478 H1484 0.984 . S
N1478 H1485 0.984 . S
N1479 C1472 1.356 . S
N1479 H1482 0.984 . S
N1479 H1483 0.985 . S
H1480 N1475 0.984 . S
H1481 N1475 0.985 . S
H1482 N1479 0.984 . S
H1483 N1479 0.985 . S
H1484 N1478 0.984 . S
H1485 N1478 0.984 . S
H1486 N1474 0.984 . S
H1487 N1474 0.985 . S
C1488 C1489 1.363 . S
C1488 C1494 1.379 . S
C1488 N1496 1.356 . S
C1489 C1488 1.363 . S
C1489 C1495 1.363 . S
C1490 C1491 1.363 . S
C1490 C1495 1.379 . S
C1490 N1497 1.356 . S
C1491 C1490 1.363 . S
C1491 C1494 1.363 . S
N1492 C1494 1.356 . S
N1492 H1504 0.984 . S
N1492 H1505 0.985 . S
N1493 C1495 1.356 . S
N1493 H1498 0.984 . S
N1493 H1499 0.985 . S
C1494 C1488 1.379 . S
C1494 C1491 1.363 . S
C1494 N1492 1.356 . S
C1495 C1489 1.363 . S
C1495 C1490 1.379 . S
C1495 N1493 1.356 . S
N1496 C1488 1.356 . S
N1496 H1502 0.984 . S
N1496 H1503 0.984 . S
N1497 C1490 1.356 . S
N1497 H1500 0.984 . S
N1497 H1501 0.985 . S
H1498 N1493 0.984 . S
H1499 N1493 0.985 . S
H1500 N1497 0.984 . S
H1501 N1497 0.985 . S
H1502 N1496 0.984 . S
H1503 N1496 0.984 . S
H1504 N1492 0.984 . S
H1505 N1492 0.985 . S
C1506 C1507 1.363 . S
C1506 C1512 1.379 . S
C1506 N1514 1.356 . S
C1507 C1506 1.363 . S
C1507 C1513 1.363 . S
C1508 C1509 1.363 . S
C1508 C1513 1.379 . S
C1508 N1515 1.356 . S
C1509 C1508 1.363 . S
C1509 C1512 1.363 . S
N1510 C1512 1.356 . S
N1510 H1522 0.984 . S
N1510 H1523 0.985 . S
N1511 C1513 1.356 . S
N1511 H1516 0.984 . S
N1511 H1517 0.985 . S
C1512 C1506 1.379 . S
C1512 C1509 1.363 . S
C1512 N1510 1.356 . S
C1513 C1507 1.363 . S
C1513 C1508 1.379 . S
C1513 N1511 1.356 . S
N1514 C1506 1.356 . S
N1514 H1520 0.984 . S
N1514 H1521 0.984 . S
N1515 C1508 1.356 . S
N1515 H1518 0.984 . S
N1515 H1519 0.985 . S
H1516 N1511 0.984 . S
H1517 N1511 0.985 . S
H1518 N1515 0.984 . S
H1519 N1515 0.985 . S
H1520 N1514 0.984 . S
H1521 N1514 0.984 . S
H1522 N1510 0.984 . S
H1523 N1510 0.985 . S
C1524 C1525 1.363 . S
C1524 C1530 1.379 . S
C1524 N1532 1.356 . S
C1525 C1524 1.363 . S
C1525 C1531 1.363 . S
C1526 C1527 1.363 . S
C1526 C1531 1.379 . S
C1526 N1533 1.356 . S
C1527 C1526 1.363 . S
C1527 C1530 1.363 . S
N1528 C1530 1.356 . S
N1528 H1540 0.984 . S
N1528 H1541 0.985 . S
N1529 C1531 1.356 . S
N1529 H1534 0.984 . S
N1529 H1535 0.985 . S
C1530 C1524 1.379 . S
C1530 C1527 1.363 . S
C1530 N1528 1.356 . S
C1531 C1525 1.363 . S
C1531 C1526 1.379 . S
C1531 N1529 1.356 . S
N1532 C1524 1.356 . S
N1532 H1538 0.984 . S
N1532 H1539 0.984 . S
N1533 C1526 1.356 . S
N1533 H1536 0.984 . S
N1533 H1537 0.985 . S
H1534 N1529 0.984 . S
H1535 N1529 0.985 . S
H1536 N1533 0.984 . S
H1537 N1533 0.985 . S
H1538 N1532 0.984 . S
H1539 N1532 0.984 . S
H1540 N1528 0.984 . S
H1541 N1528 0.985 . S
C1542 C1543 1.363 . S
C1542 C1548 1.379 . S
C1542 N1550 1.356 . S
C1543 C1542 1.363 . S
C1543 C1549 1.363 . S
C1544 C1545 1.363 . S
C1544 C1549 1.379 . S
C1544 N1551 1.356 . S
C1545 C1544 1.363 . S
C1545 C1548 1.363 . S
N1546 C1548 1.356 . S
N1546 H1558 0.984 . S
N1546 H1559 0.985 . S
N1547 C1549 1.356 . S
N1547 H1552 0.984 . S
N1547 H1553 0.985 . S
C1548 C1542 1.379 . S
C1548 C1545 1.363 . S
C1548 N1546 1.356 . S
C1549 C1543 1.363 . S
C1549 C1544 1.379 . S
C1549 N1547 1.356 . S
N1550 C1542 1.356 . S
N1550 H1556 0.984 . S
N1550 H1557 0.984 . S
N1551 C1544 1.356 . S
N1551 H1554 0.984 . S
N1551 H1555 0.985 . S
H1552 N1547 0.984 . S
H1553 N1547 0.985 . S
H1554 N1551 0.984 . S
H1555 N1551 0.985 . S
H1556 N1550 0.984 . S
H1557 N1550 0.984 . S
H1558 N1546 0.984 . S
H1559 N1546 0.985 . S
C1560 C1561 1.363 . S
C1560 C1566 1.379 . S
C1560 N1568 1.356 . S
C1561 C1560 1.363 . S
C1561 C1567 1.363 . S
C1562 C1563 1.363 . S
C1562 C1567 1.379 . S
C1562 N1569 1.356 . S
C1563 C1562 1.363 . S
C1563 C1566 1.363 . S
N1564 C1566 1.356 . S
N1564 H1576 0.984 . S
N1564 H1577 0.985 . S
N1565 C1567 1.356 . S
N1565 H1570 0.984 . S
N1565 H1571 0.985 . S
C1566 C1560 1.379 . S
C1566 C1563 1.363 . S
C1566 N1564 1.356 . S
C1567 C1561 1.363 . S
C1567 C1562 1.379 . S
C1567 N1565 1.356 . S
N1568 C1560 1.356 . S
N1568 H1574 0.984 . S
N1568 H1575 0.984 . S
N1569 C1562 1.356 . S
N1569 H1572 0.984 . S
N1569 H1573 0.985 . S
H1570 N1565 0.984 . S
H1571 N1565 0.985 . S
H1572 N1569 0.984 . S
H1573 N1569 0.985 . S
H1574 N1568 0.984 . S
H1575 N1568 0.984 . S
H1576 N1564 0.984 . S
H1577 N1564 0.985 . S
C1578 C1579 1.363 . S
C1578 C1584 1.379 . S
C1578 N1586 1.356 . S
C1579 C1578 1.363 . S
C1579 C1585 1.363 . S
C1580 C1581 1.363 . S
C1580 C1585 1.379 . S
C1580 N1587 1.356 . S
C1581 C1580 1.363 . S
C1581 C1584 1.363 . S
N1582 C1584 1.356 . S
N1582 H1594 0.984 . S
N1582 H1595 0.985 . S
N1583 C1585 1.356 . S
N1583 H1588 0.984 . S
N1583 H1589 0.985 . S
C1584 C1578 1.379 . S
C1584 C1581 1.363 . S
C1584 N1582 1.356 . S
C1585 C1579 1.363 . S
C1585 C1580 1.379 . S
C1585 N1583 1.356 . S
N1586 C1578 1.356 . S
N1586 H1592 0.984 . S
N1586 H1593 0.984 . S
N1587 C1580 1.356 . S
N1587 H1590 0.984 . S
N1587 H1591 0.985 . S
H1588 N1583 0.984 . S
H1589 N1583 0.985 . S
H1590 N1587 0.984 . S
H1591 N1587 0.985 . S
H1592 N1586 0.984 . S
H1593 N1586 0.984 . S
H1594 N1582 0.984 . S
H1595 N1582 0.985 . S
C1596 C1597 1.363 . S
C1596 C1602 1.379 . S
C1596 N1604 1.356 . S
C1597 C1596 1.363 . S
C1597 C1603 1.363 . S
C1598 C1599 1.363 . S
C1598 C1603 1.379 . S
C1598 N1605 1.356 . S
C1599 C1598 1.363 . S
C1599 C1602 1.363 . S
N1600 C1602 1.356 . S
N1600 H1612 0.984 . S
N1600 H1613 0.985 . S
N1601 C1603 1.356 . S
N1601 H1606 0.984 . S
N1601 H1607 0.985 . S
C1602 C1596 1.379 . S
C1602 C1599 1.363 . S
C1602 N1600 1.356 . S
C1603 C1597 1.363 . S
C1603 C1598 1.379 . S
C1603 N1601 1.356 . S
N1604 C1596 1.356 . S
N1604 H1610 0.984 . S
N1604 H1611 0.984 . S
N1605 C1598 1.356 . S
N1605 H1608 0.984 . S
N1605 H1609 0.985 . S
H1606 N1601 0.984 . S
H1607 N1601 0.985 . S
H1608 N1605 0.984 . S
H1609 N1605 0.985 . S
H1610 N1604 0.984 . S
H1611 N1604 0.984 . S
H1612 N1600 0.984 . S
H1613 N1600 0.985 . S
C1614 C1615 1.363 . S
C1614 C1620 1.379 . S
C1614 N1622 1.356 . S
C1615 C1614 1.363 . S
C1615 C1621 1.363 . S
C1616 C1617 1.363 . S
C1616 C1621 1.379 . S
C1616 N1623 1.356 . S
C1617 C1616 1.363 . S
C1617 C1620 1.363 . S
N1618 C1620 1.356 . S
N1618 H1630 0.984 . S
N1618 H1631 0.985 . S
N1619 C1621 1.356 . S
N1619 H1624 0.984 . S
N1619 H1625 0.985 . S
C1620 C1614 1.379 . S
C1620 C1617 1.363 . S
C1620 N1618 1.356 . S
C1621 C1615 1.363 . S
C1621 C1616 1.379 . S
C1621 N1619 1.356 . S
N1622 C1614 1.356 . S
N1622 H1628 0.984 . S
N1622 H1629 0.984 . S
N1623 C1616 1.356 . S
N1623 H1626 0.984 . S
N1623 H1627 0.985 . S
H1624 N1619 0.984 . S
H1625 N1619 0.985 . S
H1626 N1623 0.984 . S
H1627 N1623 0.985 . S
H1628 N1622 0.984 . S
H1629 N1622 0.984 . S
H1630 N1618 0.984 . S
H1631 N1618 0.985 . S
C1632 C1633 1.363 . S
C1632 C1638 1.379 . S
C1632 N1640 1.356 . S
C1633 C1632 1.363 . S
C1633 C1639 1.363 . S
C1634 C1635 1.363 . S
C1634 C1639 1.379 . S
C1634 N1641 1.356 . S
C1635 C1634 1.363 . S
C1635 C1638 1.363 . S
N1636 C1638 1.356 . S
N1636 H1648 0.984 . S
N1636 H1649 0.985 . S
N1637 C1639 1.356 . S
N1637 H1642 0.984 . S
N1637 H1643 0.985 . S
C1638 C1632 1.379 . S
C1638 C1635 1.363 . S
C1638 N1636 1.356 . S
C1639 C1633 1.363 . S
C1639 C1634 1.379 . S
C1639 N1637 1.356 . S
N1640 C1632 1.356 . S
N1640 H1646 0.984 . S
N1640 H1647 0.984 . S
N1641 C1634 1.356 . S
N1641 H1644 0.984 . S
N1641 H1645 0.985 . S
H1642 N1637 0.984 . S
H1643 N1637 0.985 . S
H1644 N1641 0.984 . S
H1645 N1641 0.985 . S
H1646 N1640 0.984 . S
H1647 N1640 0.984 . S
H1648 N1636 0.984 . S
H1649 N1636 0.985 . S
C1650 C1651 1.363 . S
C1650 C1656 1.379 . S
C1650 N1658 1.356 . S
C1651 C1650 1.363 . S
C1651 C1657 1.363 . S
C1652 C1653 1.363 . S
C1652 C1657 1.379 . S
C1652 N1659 1.356 . S
C1653 C1652 1.363 . S
C1653 C1656 1.363 . S
N1654 C1656 1.356 . S
N1654 H1666 0.984 . S
N1654 H1667 0.985 . S
N1655 C1657 1.356 . S
N1655 H1660 0.984 . S
N1655 H1661 0.985 . S
C1656 C1650 1.379 . S
C1656 C1653 1.363 . S
C1656 N1654 1.356 . S
C1657 C1651 1.363 . S
C1657 C1652 1.379 . S
C1657 N1655 1.356 . S
N1658 C1650 1.356 . S
N1658 H1664 0.984 . S
N1658 H1665 0.984 . S
N1659 C1652 1.356 . S
N1659 H1662 0.984 . S
N1659 H1663 0.985 . S
H1660 N1655 0.984 . S
H1661 N1655 0.985 . S
H1662 N1659 0.984 . S
H1663 N1659 0.985 . S
H1664 N1658 0.984 . S
H1665 N1658 0.984 . S
H1666 N1654 0.984 . S
H1667 N1654 0.985 . S
C1668 C1669 1.363 . S
C1668 C1674 1.379 . S
C1668 N1676 1.356 . S
C1669 C1668 1.363 . S
C1669 C1675 1.363 . S
C1670 C1671 1.363 . S
C1670 C1675 1.379 . S
C1670 N1677 1.356 . S
C1671 C1670 1.363 . S
C1671 C1674 1.363 . S
N1672 C1674 1.356 . S
N1672 H1684 0.984 . S
N1672 H1685 0.985 . S
N1673 C1675 1.356 . S
N1673 H1678 0.984 . S
N1673 H1679 0.985 . S
C1674 C1668 1.379 . S
C1674 C1671 1.363 . S
C1674 N1672 1.356 . S
C1675 C1669 1.363 . S
C1675 C1670 1.379 . S
C1675 N1673 1.356 . S
N1676 C1668 1.356 . S
N1676 H1682 0.984 . S
N1676 H1683 0.984 . S
N1677 C1670 1.356 . S
N1677 H1680 0.984 . S
N1677 H1681 0.985 . S
H1678 N1673 0.984 . S
H1679 N1673 0.985 . S
H1680 N1677 0.984 . S
H1681 N1677 0.985 . S
H1682 N1676 0.984 . S
H1683 N1676 0.984 . S
H1684 N1672 0.984 . S
H1685 N1672 0.985 . S
C1686 C1687 1.363 . S
C1686 C1692 1.379 . S
C1686 N1694 1.356 . S
C1687 C1686 1.363 . S
C1687 C1693 1.363 . S
C1688 C1689 1.363 . S
C1688 C1693 1.379 . S
C1688 N1695 1.356 . S
C1689 C1688 1.363 . S
C1689 C1692 1.363 . S
N1690 C1692 1.356 . S
N1690 H1702 0.984 . S
N1690 H1703 0.985 . S
N1691 C1693 1.356 . S
N1691 H1696 0.984 . S
N1691 H1697 0.985 . S
C1692 C1686 1.379 . S
C1692 C1689 1.363 . S
C1692 N1690 1.356 . S
C1693 C1687 1.363 . S
C1693 C1688 1.379 . S
C1693 N1691 1.356 . S
N1694 C1686 1.356 . S
N1694 H1700 0.984 . S
N1694 H1701 0.984 . S
N1695 C1688 1.356 . S
N1695 H1698 0.984 . S
N1695 H1699 0.985 . S
H1696 N1691 0.984 . S
H1697 N1691 0.985 . S
H1698 N1695 0.984 . S
H1699 N1695 0.985 . S
H1700 N1694 0.984 . S
H1701 N1694 0.984 . S
H1702 N1690 0.984 . S
H1703 N1690 0.985 . S
C1704 C1705 1.363 . S
C1704 C1710 1.379 . S
C1704 N1712 1.356 . S
C1705 C1704 1.363 . S
C1705 C1711 1.363 . S
C1706 C1707 1.363 . S
C1706 C1711 1.379 . S
C1706 N1713 1.356 . S
C1707 C1706 1.363 . S
C1707 C1710 1.363 . S
N1708 C1710 1.356 . S
N1708 H1720 0.984 . S
N1708 H1721 0.985 . S
N1709 C1711 1.356 . S
N1709 H1714 0.984 . S
N1709 H1715 0.985 . S
C1710 C1704 1.379 . S
C1710 C1707 1.363 . S
C1710 N1708 1.356 . S
C1711 C1705 1.363 . S
C1711 C1706 1.379 . S
C1711 N1709 1.356 . S
N1712 C1704 1.356 . S
N1712 H1718 0.984 . S
N1712 H1719 0.984 . S
N1713 C1706 1.356 . S
N1713 H1716 0.984 . S
N1713 H1717 0.985 . S
H1714 N1709 0.984 . S
H1715 N1709 0.985 . S
H1716 N1713 0.984 . S
H1717 N1713 0.985 . S
H1718 N1712 0.984 . S
H1719 N1712 0.984 . S
H1720 N1708 0.984 . S
H1721 N1708 0.985 . S
C1722 C1723 1.363 . S
C1722 C1728 1.379 . S
C1722 N1730 1.356 . S
C1723 C1722 1.363 . S
C1723 C1729 1.363 . S
C1724 C1725 1.363 . S
C1724 C1729 1.379 . S
C1724 N1731 1.356 . S
C1725 C1724 1.363 . S
C1725 C1728 1.363 . S
N1726 C1728 1.356 . S
N1726 H1738 0.984 . S
N1726 H1739 0.985 . S
N1727 C1729 1.356 . S
N1727 H1732 0.984 . S
N1727 H1733 0.985 . S
C1728 C1722 1.379 . S
C1728 C1725 1.363 . S
C1728 N1726 1.356 . S
C1729 C1723 1.363 . S
C1729 C1724 1.379 . S
C1729 N1727 1.356 . S
N1730 C1722 1.356 . S
N1730 H1736 0.984 . S
N1730 H1737 0.984 . S
N1731 C1724 1.356 . S
N1731 H1734 0.984 . S
N1731 H1735 0.985 . S
H1732 N1727 0.984 . S
H1733 N1727 0.985 . S
H1734 N1731 0.984 . S
H1735 N1731 0.985 . S
H1736 N1730 0.984 . S
H1737 N1730 0.984 . S
H1738 N1726 0.984 . S
H1739 N1726 0.985 . S
C1740 C1741 1.363 . S
C1740 C1746 1.379 . S
C1740 N1748 1.356 . S
C1741 C1740 1.363 . S
C1741 C1747 1.363 . S
C1742 C1743 1.363 . S
C1742 C1747 1.379 . S
C1742 N1749 1.356 . S
C1743 C1742 1.363 . S
C1743 C1746 1.363 . S
N1744 C1746 1.356 . S
N1744 H1756 0.984 . S
N1744 H1757 0.985 . S
N1745 C1747 1.356 . S
N1745 H1750 0.984 . S
N1745 H1751 0.985 . S
C1746 C1740 1.379 . S
C1746 C1743 1.363 . S
C1746 N1744 1.356 . S
C1747 C1741 1.363 . S
C1747 C1742 1.379 . S
C1747 N1745 1.356 . S
N1748 C1740 1.356 . S
N1748 H1754 0.984 . S
N1748 H1755 0.984 . S
N1749 C1742 1.356 . S
N1749 H1752 0.984 . S
N1749 H1753 0.985 . S
H1750 N1745 0.984 . S
H1751 N1745 0.985 . S
H1752 N1749 0.984 . S
H1753 N1749 0.985 . S
H1754 N1748 0.984 . S
H1755 N1748 0.984 . S
H1756 N1744 0.984 . S
H1757 N1744 0.985 . S
C1758 C1759 1.363 . S
C1758 C1764 1.379 . S
C1758 N1766 1.356 . S
C1759 C1758 1.363 . S
C1759 C1765 1.363 . S
C1760 C1761 1.363 . S
C1760 C1765 1.379 . S
C1760 N1767 1.356 . S
C1761 C1760 1.363 . S
C1761 C1764 1.363 . S
N1762 C1764 1.356 . S
N1762 H1774 0.984 . S
N1762 H1775 0.985 . S
N1763 C1765 1.356 . S
N1763 H1768 0.984 . S
N1763 H1769 0.985 . S
C1764 C1758 1.379 . S
C1764 C1761 1.363 . S
C1764 N1762 1.356 . S
C1765 C1759 1.363 . S
C1765 C1760 1.379 . S
C1765 N1763 1.356 . S
N1766 C1758 1.356 . S
N1766 H1772 0.984 . S
N1766 H1773 0.984 . S
N1767 C1760 1.356 . S
N1767 H1770 0.984 . S
N1767 H1771 0.985 . S
H1768 N1763 0.984 . S
H1769 N1763 0.985 . S
H1770 N1767 0.984 . S
H1771 N1767 0.985 . S
H1772 N1766 0.984 . S
H1773 N1766 0.984 . S
H1774 N1762 0.984 . S
H1775 N1762 0.985 . S
C1776 C1777 1.363 . S
C1776 C1782 1.379 . S
C1776 N1784 1.356 . S
C1777 C1776 1.363 . S
C1777 C1783 1.363 . S
C1778 C1779 1.363 . S
C1778 C1783 1.379 . S
C1778 N1785 1.356 . S
C1779 C1778 1.363 . S
C1779 C1782 1.363 . S
N1780 C1782 1.356 . S
N1780 H1792 0.984 . S
N1780 H1793 0.985 . S
N1781 C1783 1.356 . S
N1781 H1786 0.984 . S
N1781 H1787 0.985 . S
C1782 C1776 1.379 . S
C1782 C1779 1.363 . S
C1782 N1780 1.356 . S
C1783 C1777 1.363 . S
C1783 C1778 1.379 . S
C1783 N1781 1.356 . S
N1784 C1776 1.356 . S
N1784 H1790 0.984 . S
N1784 H1791 0.984 . S
N1785 C1778 1.356 . S
N1785 H1788 0.984 . S
N1785 H1789 0.985 . S
H1786 N1781 0.984 . S
H1787 N1781 0.985 . S
H1788 N1785 0.984 . S
H1789 N1785 0.985 . S
H1790 N1784 0.984 . S
H1791 N1784 0.984 . S
H1792 N1780 0.984 . S
H1793 N1780 0.985 . S
C1794 C1795 1.363 . S
C1794 C1800 1.379 . S
C1794 N1802 1.356 . S
C1795 C1794 1.363 . S
C1795 C1801 1.363 . S
C1796 C1797 1.363 . S
C1796 C1801 1.379 . S
C1796 N1803 1.356 . S
C1797 C1796 1.363 . S
C1797 C1800 1.363 . S
N1798 C1800 1.356 . S
N1798 H1810 0.984 . S
N1798 H1811 0.985 . S
N1799 C1801 1.356 . S
N1799 H1804 0.984 . S
N1799 H1805 0.985 . S
C1800 C1794 1.379 . S
C1800 C1797 1.363 . S
C1800 N1798 1.356 . S
C1801 C1795 1.363 . S
C1801 C1796 1.379 . S
C1801 N1799 1.356 . S
N1802 C1794 1.356 . S
N1802 H1808 0.984 . S
N1802 H1809 0.984 . S
N1803 C1796 1.356 . S
N1803 H1806 0.984 . S
N1803 H1807 0.985 . S
H1804 N1799 0.984 . S
H1805 N1799 0.985 . S
H1806 N1803 0.984 . S
H1807 N1803 0.985 . S
H1808 N1802 0.984 . S
H1809 N1802 0.984 . S
H1810 N1798 0.984 . S
H1811 N1798 0.985 . S
C1812 C1813 1.363 . S
C1812 C1818 1.379 . S
C1812 N1820 1.356 . S
C1813 C1812 1.363 . S
C1813 C1819 1.363 . S
C1814 C1815 1.363 . S
C1814 C1819 1.379 . S
C1814 N1821 1.356 . S
C1815 C1814 1.363 . S
C1815 C1818 1.363 . S
N1816 C1818 1.356 . S
N1816 H1828 0.984 . S
N1816 H1829 0.985 . S
N1817 C1819 1.356 . S
N1817 H1822 0.984 . S
N1817 H1823 0.985 . S
C1818 C1812 1.379 . S
C1818 C1815 1.363 . S
C1818 N1816 1.356 . S
C1819 C1813 1.363 . S
C1819 C1814 1.379 . S
C1819 N1817 1.356 . S
N1820 C1812 1.356 . S
N1820 H1826 0.984 . S
N1820 H1827 0.984 . S
N1821 C1814 1.356 . S
N1821 H1824 0.984 . S
N1821 H1825 0.985 . S
H1822 N1817 0.984 . S
H1823 N1817 0.985 . S
H1824 N1821 0.984 . S
H1825 N1821 0.985 . S
H1826 N1820 0.984 . S
H1827 N1820 0.984 . S
H1828 N1816 0.984 . S
H1829 N1816 0.985 . S
C1830 C1831 1.363 . S
C1830 C1836 1.379 . S
C1830 N1838 1.356 . S
C1831 C1830 1.363 . S
C1831 C1837 1.363 . S
C1832 C1833 1.363 . S
C1832 C1837 1.379 . S
C1832 N1839 1.356 . S
C1833 C1832 1.363 . S
C1833 C1836 1.363 . S
N1834 C1836 1.356 . S
N1834 H1846 0.984 . S
N1834 H1847 0.985 . S
N1835 C1837 1.356 . S
N1835 H1840 0.984 . S
N1835 H1841 0.985 . S
C1836 C1830 1.379 . S
C1836 C1833 1.363 . S
C1836 N1834 1.356 . S
C1837 C1831 1.363 . S
C1837 C1832 1.379 . S
C1837 N1835 1.356 . S
N1838 C1830 1.356 . S
N1838 H1844 0.984 . S
N1838 H1845 0.984 . S
N1839 C1832 1.356 . S
N1839 H1842 0.984 . S
N1839 H1843 0.985 . S
H1840 N1835 0.984 . S
H1841 N1835 0.985 . S
H1842 N1839 0.984 . S
H1843 N1839 0.985 . S
H1844 N1838 0.984 . S
H1845 N1838 0.984 . S
H1846 N1834 0.984 . S
H1847 N1834 0.985 . S
C1848 C1849 1.363 . S
C1848 C1854 1.379 . S
C1848 N1856 1.356 . S
C1849 C1848 1.363 . S
C1849 C1855 1.363 . S
C1850 C1851 1.363 . S
C1850 C1855 1.379 . S
C1850 N1857 1.356 . S
C1851 C1850 1.363 . S
C1851 C1854 1.363 . S
N1852 C1854 1.356 . S
N1852 H1864 0.984 . S
N1852 H1865 0.985 . S
N1853 C1855 1.356 . S
N1853 H1858 0.984 . S
N1853 H1859 0.985 . S
C1854 C1848 1.379 . S
C1854 C1851 1.363 . S
C1854 N1852 1.356 . S
C1855 C1849 1.363 . S
C1855 C1850 1.379 . S
C1855 N1853 1.356 . S
N1856 C1848 1.356 . S
N1856 H1862 0.984 . S
N1856 H1863 0.984 . S
N1857 C1850 1.356 . S
N1857 H1860 0.984 . S
N1857 H1861 0.985 . S
H1858 N1853 0.984 . S
H1859 N1853 0.985 . S
H1860 N1857 0.984 . S
H1861 N1857 0.985 . S
H1862 N1856 0.984 . S
H1863 N1856 0.984 . S
H1864 N1852 0.984 . S
H1865 N1852 0.985 . S
C1866 C1867 1.363 . S
C1866 C1872 1.379 . S
C1866 N1874 1.356 . S
C1867 C1866 1.363 . S
C1867 C1873 1.363 . S
C1868 C1869 1.363 . S
C1868 C1873 1.379 . S
C1868 N1875 1.356 . S
C1869 C1868 1.363 . S
C1869 C1872 1.363 . S
N1870 C1872 1.356 . S
N1870 H1882 0.984 . S
N1870 H1883 0.985 . S
N1871 C1873 1.356 . S
N1871 H1876 0.984 . S
N1871 H1877 0.985 . S
C1872 C1866 1.379 . S
C1872 C1869 1.363 . S
C1872 N1870 1.356 . S
C1873 C1867 1.363 . S
C1873 C1868 1.379 . S
C1873 N1871 1.356 . S
N1874 C1866 1.356 . S
N1874 H1880 0.984 . S
N1874 H1881 0.984 . S
N1875 C1868 1.356 . S
N1875 H1878 0.984 . S
N1875 H1879 0.985 . S
H1876 N1871 0.984 . S
H1877 N1871 0.985 . S
H1878 N1875 0.984 . S
H1879 N1875 0.985 . S
H1880 N1874 0.984 . S
H1881 N1874 0.984 . S
H1882 N1870 0.984 . S
H1883 N1870 0.985 . S
C591 C294 1.563 . S
C589 C285 1.565 . S
C607 C261 1.483 . S
C609 C292 1.481 . S
C627 C293 1.481 . S
C625 C249 1.483 . S
C643 C273 1.565 . S
C645 C295 1.563 . S
C663 C339 1.607 . S
C661 C201 1.611 . S
C681 C399 1.550 . S
C679 C213 1.554 . S
C697 C225 1.594 . S
C699 C338 1.592 . S
C717 C398 1.473 . S
C715 C237 1.476 . S
C733 C153 1.523 . S
C735 C340 1.521 . S
C753 C396 1.535 . S
C751 C165 1.535 . S
C769 C177 1.529 . S
C771 C341 1.526 . S
C787 C189 1.615 . S
C789 C397 1.613 . S
C807 C447 1.563 . S
C805 C141 1.565 . S
C823 C117 1.483 . S
C825 C446 1.481 . S
C841 C105 1.483 . S
C843 C448 1.481 . S
C861 C449 1.563 . S
C859 C129 1.565 . S
C877 C57 1.611 . S
C879 C490 1.607 . S
C895 C69 1.554 . S
C897 C549 1.550 . S
C913 C81 1.594 . S
C915 C488 1.593 . S
C931 C93 1.476 . S
C933 C548 1.473 . S
C951 C489 1.521 . S
C949 C9 1.523 . S
C969 C546 1.535 . S
C967 C21 1.536 . S
C985 C33 1.529 . S
C987 C491 1.526 . S
C1005 C547 1.613 . S
C1003 C45 1.615 1_545 S
C1023 C291 1.500 . S
C1021 C4 1.345 . S
C1039 C18 1.501 . S
C1041 C297 1.552 . S
C1057 C30 1.583 . S
C1059 C289 1.628 . S
C1075 C42 1.627 1_545 S
C1077 C296 1.670 . S
C1093 C52 1.356 . S
C1095 C288 1.511 . S
C1113 C298 1.629 . S
C1111 C66 1.587 . S
C1129 C78 1.597 . S
C1131 C290 1.642 . S
C1149 C299 1.413 . S
C1147 C88 1.249 1_545 S
C1167 C345 1.501 . S
C1165 C40 1.364 . S
C1183 C6 1.571 . S
C1185 C388 1.615 . S
C1203 C343 1.516 . S
C1201 C16 1.377 1_545 S
C1221 C390 1.490 . S
C1219 C28 1.334 . S
C1237 C64 1.317 1_545 S
C1239 C344 1.471 . S
C1257 C389 1.550 . S
C1255 C76 1.408 . S
C1275 C342 1.612 . S
C1273 C90 1.569 . S
C1293 C391 1.706 . S
C1291 C54 1.671 . S
C1311 C395 1.554 . S
C1309 C102 1.503 . S
C1327 C114 1.505 . S
C1329 C394 1.555 . S
C1347 C346 1.428 . S
C1345 C100 1.280 . S
C1365 C393 1.444 . S
C1363 C124 1.298 . S
C1381 C138 1.582 . S
C1383 C349 1.624 . S
C1399 C136 1.297 . S
C1401 C392 1.444 . S
C1419 C348 1.428 . S
C1417 C112 1.281 . S
C1437 C347 1.624 . S
C1435 C126 1.583 . S
C1455 C441 1.500 . S
C1453 C148 1.345 . S
C1473 C444 1.552 . S
C1471 C162 1.501 . S
C1489 C174 1.583 . S
C1491 C440 1.628 . S
C1509 C442 1.670 . S
C1507 C186 1.628 . S
C1527 C438 1.511 . S
C1525 C196 1.356 . S
C1543 C210 1.587 . S
C1545 C443 1.629 . S
C1561 C222 1.597 . S
C1563 C439 1.642 . S
C1581 C445 1.413 . S
C1579 C232 1.249 . S
C1599 C499 1.501 . S
C1597 C184 1.364 . S
C1615 C150 1.571 . S
C1617 C538 1.615 . S
C1635 C498 1.516 . S
C1633 C160 1.377 . S
C1653 C540 1.490 . S
C1651 C172 1.334 . S
C1671 C497 1.471 . S
C1669 C208 1.318 . S
C1687 C220 1.408 . S
C1689 C539 1.550 . S
C1707 C496 1.612 . S
C1705 C234 1.568 . S
C1725 C541 1.706 . S
C1723 C198 1.671 . S
C1743 C545 1.554 . S
C1741 C246 1.503 . S
C1759 C258 1.505 . S
C1761 C544 1.555 . S
C1779 C492 1.428 . S
C1777 C244 1.280 . S
C1795 C268 1.298 . S
C1797 C543 1.444 . S
C1815 C495 1.624 . S
C1813 C282 1.582 . S
C1833 C542 1.444 . S
C1831 C280 1.297 . S
C1851 C493 1.428 . S
C1849 C256 1.281 . S
C1867 C270 1.583 . S
C1869 C494 1.624 . S
