# Generated by pormake.
# Topology pyr, (3,6)-cn, num edge types: 1
# Building blocks:
#     Node 0, Type 0, BuildingBlock: QEWDON_clean_linker_0, # of connection points: 3
#     Node 1, Type 0, BuildingBlock: QEWDON_clean_linker_0, # of connection points: 3
#     Node 2, Type 0, BuildingBlock: QEWDON_clean_linker_0, # of connection points: 3
#     Node 3, Type 0, BuildingBlock: QEWDON_clean_linker_0, # of connection points: 3
#     Node 4, Type 0, BuildingBlock: QEWDON_clean_linker_0, # of connection points: 3
#     Node 5, Type 0, BuildingBlock: QEWDON_clean_linker_0, # of connection points: 3
#     Node 6, Type 0, BuildingBlock: QEWDON_clean_linker_0, # of connection points: 3
#     Node 7, Type 0, BuildingBlock: QEWDON_clean_linker_0, # of connection points: 3
#     Node 8, Type 1, BuildingBlock: BETDEL_clean_sbu_0, # of connection points: 6
#     Node 9, Type 1, BuildingBlock: BETDEL_clean_sbu_0, # of connection points: 6
#     Node 10, Type 1, BuildingBlock: BETDEL_clean_sbu_0, # of connection points: 6
#     Node 11, Type 1, BuildingBlock: BETDEL_clean_sbu_0, # of connection points: 6
#     Edge 12, Type (0, 1), BuildingBlock: XUDNAN_clean_linker_2, # of connection points: 2
#     Edge 13, Type (0, 1), BuildingBlock: XUDNAN_clean_linker_2, # of connection points: 2
#     Edge 14, Type (0, 1), BuildingBlock: XUDNAN_clean_linker_2, # of connection points: 2
#     Edge 15, Type (0, 1), BuildingBlock: XUDNAN_clean_linker_2, # of connection points: 2
#     Edge 16, Type (0, 1), BuildingBlock: XUDNAN_clean_linker_2, # of connection points: 2
#     Edge 17, Type (0, 1), BuildingBlock: XUDNAN_clean_linker_2, # of connection points: 2
#     Edge 18, Type (0, 1), BuildingBlock: XUDNAN_clean_linker_2, # of connection points: 2
#     Edge 19, Type (0, 1), BuildingBlock: XUDNAN_clean_linker_2, # of connection points: 2
#     Edge 20, Type (0, 1), BuildingBlock: XUDNAN_clean_linker_2, # of connection points: 2
#     Edge 21, Type (0, 1), BuildingBlock: XUDNAN_clean_linker_2, # of connection points: 2
#     Edge 22, Type (0, 1), BuildingBlock: XUDNAN_clean_linker_2, # of connection points: 2
#     Edge 23, Type (0, 1), BuildingBlock: XUDNAN_clean_linker_2, # of connection points: 2
#     Edge 24, Type (0, 1), BuildingBlock: XUDNAN_clean_linker_2, # of connection points: 2
#     Edge 25, Type (0, 1), BuildingBlock: XUDNAN_clean_linker_2, # of connection points: 2
#     Edge 26, Type (0, 1), BuildingBlock: XUDNAN_clean_linker_2, # of connection points: 2
#     Edge 27, Type (0, 1), BuildingBlock: XUDNAN_clean_linker_2, # of connection points: 2
#     Edge 28, Type (0, 1), BuildingBlock: XUDNAN_clean_linker_2, # of connection points: 2
#     Edge 29, Type (0, 1), BuildingBlock: XUDNAN_clean_linker_2, # of connection points: 2
#     Edge 30, Type (0, 1), BuildingBlock: XUDNAN_clean_linker_2, # of connection points: 2
#     Edge 31, Type (0, 1), BuildingBlock: XUDNAN_clean_linker_2, # of connection points: 2
#     Edge 32, Type (0, 1), BuildingBlock: XUDNAN_clean_linker_2, # of connection points: 2
#     Edge 33, Type (0, 1), BuildingBlock: XUDNAN_clean_linker_2, # of connection points: 2
#     Edge 34, Type (0, 1), BuildingBlock: XUDNAN_clean_linker_2, # of connection points: 2
#     Edge 35, Type (0, 1), BuildingBlock: XUDNAN_clean_linker_2, # of connection points: 2
# Relax obj value: 0.120
# Max RMSD: 0.262
# Mean RMSD: 0.190
data_MOF--net-pyr--node1-BETDEL_clean_sbu_0--node2-QEWDON_clean_linker_0--edge1-XUDNAN_clean_linker_2
_symmetry_space_group_name_H-M    P1
_symmetry_Int_Tables_number       1
_symmetry_cell_setting            triclinic
loop_
_symmetry_equiv_pos_as_xyz
'x, y, z'
_cell_length_a     36.301928
_cell_length_b     38.410135
_cell_length_c     37.73393
_cell_angle_alpha  91.687537
_cell_angle_beta   90.054096
_cell_angle_gamma 103.968
loop_
_atom_site_label
_atom_site_type_symbol
_atom_site_fract_x
_atom_site_fract_y
_atom_site_fract_z
_atom_type_partial_charge
H0 H 0.28463 0.21823 0.15036 0.0
C1 C 0.26602 0.21178 0.17293 0.0
C2 C 0.26763 0.1821 0.19308 0.0
C3 C 0.24268 0.23458 0.18301 0.0
H4 H 0.24686 0.15225 0.23933 0.0
C5 C 0.24451 0.17442 0.22308 0.0
C6 C 0.2198 0.19614 0.23302 0.0
C7 C 0.21889 0.22599 0.21247 0.0
C8 C 0.24646 0.2694 0.16535 0.0
H9 H 0.20073 0.24344 0.22022 0.0
C10 C 0.21458 0.28327 0.159 0.0
C11 C 0.21885 0.31764 0.14495 0.0
C12 C 0.28272 0.29007 0.15672 0.0
H13 H 0.30795 0.28067 0.16199 0.0
C14 C 0.28711 0.32381 0.1424 0.0
H15 H 0.18652 0.26721 0.16488 0.0
C16 C 0.25558 0.33768 0.13682 0.0
H17 H 0.26024 0.36456 0.12694 0.0
H18 H 0.31521 0.33964 0.13632 0.0
H19 H 0.28766 0.88306 0.76112 0.0
C20 C 0.30755 0.86842 0.75073 0.0
C21 C 0.33982 0.8672 0.77083 0.0
C22 C 0.29939 0.84815 0.71869 0.0
H23 H 0.39015 0.84788 0.77331 0.0
C24 C 0.36485 0.84725 0.75787 0.0
C25 C 0.35668 0.82544 0.72687 0.0
C26 C 0.32401 0.82669 0.70721 0.0
C27 C 0.26296 0.84539 0.69915 0.0
H28 H 0.31658 0.80987 0.68353 0.0
C29 C 0.25028 0.876 0.68972 0.0
C30 C 0.2169 0.87208 0.66901 0.0
C31 C 0.24091 0.81113 0.68897 0.0
H32 H 0.24934 0.78714 0.69644 0.0
C33 C 0.20772 0.80727 0.66917 0.0
H34 H 0.26691 0.90259 0.6973 0.0
C35 C 0.19592 0.83742 0.65902 0.0
H36 H 0.16998 0.83361 0.6436 0.0
H37 H 0.19111 0.78072 0.66152 0.0
H38 H 0.67656 0.45809 0.95397 0.0
C39 C 0.66798 0.42909 0.9551 0.0
C40 C 0.69043 0.41032 0.97359 0.0
C41 C 0.63349 0.4105 0.9393 0.0
H42 H 0.69582 0.35769 0.98828 0.0
C43 C 0.67829 0.37276 0.97526 0.0
C44 C 0.64422 0.35406 0.95931 0.0
C45 C 0.62185 0.37302 0.94135 0.0
C46 C 0.60826 0.42997 0.92214 0.0
H47 H 0.59522 0.35864 0.92919 0.0
C48 C 0.61765 0.44608 0.88932 0.0
C49 C 0.59165 0.46161 0.87145 0.0
C50 C 0.57331 0.4303 0.9377 0.0
H51 H 0.5656 0.41781 0.96289 0.0
C52 C 0.54787 0.44635 0.92072 0.0
H53 H 0.64474 0.44569 0.8775 0.0
C54 C 0.55672 0.4616 0.88775 0.0
H55 H 0.53555 0.47239 0.87465 0.0
H56 H 0.52081 0.44629 0.93278 0.0
H57 H 0.84406 0.80488 0.34266 0.0
C58 C 0.82612 0.78366 0.35757 0.0
C59 C 0.81838 0.78996 0.3932 0.0
C60 C 0.81102 0.75031 0.34084 0.0
H61 H 0.78702 0.76876 0.43891 0.0
C62 C 0.79455 0.76259 0.41212 0.0
C63 C 0.7789 0.72857 0.39586 0.0
C64 C 0.78867 0.72252 0.36032 0.0
C65 C 0.81646 0.74582 0.30226 0.0
H66 H 0.77795 0.69667 0.34709 0.0
C67 C 0.83147 0.71782 0.28844 0.0
C68 C 0.8382 0.71508 0.25181 0.0
C69 C 0.80734 0.77054 0.2791 0.0
H70 H 0.79548 0.79217 0.28915 0.0
C71 C 0.81319 0.76747 0.24276 0.0
H72 H 0.83919 0.69912 0.30632 0.0
C73 C 0.82863 0.74003 0.22915 0.0
H74 H 0.83291 0.73821 0.20081 0.0
H75 H 0.8059 0.78652 0.2251 0.0
H76 H 0.8351 0.83427 0.93363 0.0
C77 C 0.85247 0.8472 0.91213 0.0
C78 C 0.89002 0.84385 0.90852 0.0
C79 C 0.8365 0.86516 0.88666 0.0
H80 H 0.94096 0.8575 0.8774 0.0
C81 C 0.91188 0.85977 0.87986 0.0
C82 C 0.8965 0.87876 0.85468 0.0
C83 C 0.85859 0.88093 0.85824 0.0
C84 C 0.7957 0.86459 0.88725 0.0
H85 H 0.84566 0.89399 0.83825 0.0
C86 C 0.78115 0.88594 0.91184 0.0
C87 C 0.74277 0.88775 0.90982 0.0
C88 C 0.77164 0.84416 0.86123 0.0
H89 H 0.78248 0.82771 0.842 0.0
C90 C 0.73359 0.84515 0.85951 0.0
H91 H 0.79995 0.90154 0.93192 0.0
C92 C 0.71928 0.86696 0.88331 0.0
H93 H 0.68999 0.8682 0.88016 0.0
H94 H 0.71526 0.82952 0.83916 0.0
H95 H 0.77005 0.204 0.47074 0.0
C96 C 0.76087 0.20059 0.44325 0.0
C97 C 0.78138 0.18475 0.41852 0.0
C98 C 0.72861 0.21224 0.43303 0.0
H99 H 0.7843 0.16848 0.36348 0.0
C100 C 0.76954 0.1815 0.38274 0.0
C101 C 0.73745 0.19318 0.37188 0.0
C102 C 0.71726 0.20862 0.39724 0.0
C103 C 0.70549 0.22576 0.46042 0.0
H104 H 0.6922 0.21714 0.38922 0.0
C105 C 0.692 0.2569 0.45558 0.0
C106 C 0.67047 0.26933 0.48224 0.0
C107 C 0.69672 0.20699 0.49194 0.0
H108 H 0.70613 0.18272 0.49622 0.0
C109 C 0.67544 0.21902 0.5182 0.0
H110 H 0.69849 0.27148 0.43133 0.0
C111 C 0.66257 0.24994 0.51355 0.0
H112 H 0.64698 0.25902 0.53494 0.0
H113 H 0.66909 0.2044 0.54242 0.0
H114 H 0.44306 0.76743 0.21083 0.0
C115 C 0.41265 0.75653 0.21097 0.0
C116 C 0.38851 0.77533 0.19511 0.0
C117 C 0.39793 0.72304 0.22621 0.0
H118 H 0.33001 0.77545 0.18532 0.0
C119 C 0.34917 0.76049 0.19568 0.0
C120 C 0.33404 0.72608 0.20844 0.0
C121 C 0.35861 0.70781 0.22446 0.0
C122 C 0.42397 0.7028 0.24152 0.0
H123 H 0.34754 0.68096 0.23389 0.0
C124 C 0.41562 0.68505 0.27382 0.0
C125 C 0.4403 0.66559 0.28757 0.0
C126 C 0.45732 0.70075 0.22344 0.0
H127 H 0.46423 0.71358 0.19831 0.0
C128 C 0.48178 0.68147 0.2372 0.0
H129 H 0.39013 0.68637 0.2882 0.0
C130 C 0.47332 0.6639 0.26905 0.0
H131 H 0.49254 0.64889 0.27929 0.0
H132 H 0.50727 0.67996 0.223 0.0
H133 H 0.23665 0.4262 0.77655 0.0
C134 C 0.2236 0.40437 0.75838 0.0
C135 C 0.23886 0.40183 0.72423 0.0
C136 C 0.19179 0.37819 0.76948 0.0
H137 H 0.23388 0.36887 0.67613 0.0
C138 C 0.22145 0.37269 0.70157 0.0
C139 C 0.18865 0.34747 0.7116 0.0
C140 C 0.1741 0.35042 0.74557 0.0
C141 C 0.17714 0.37839 0.80627 0.0
H142 H 0.14856 0.33119 0.7534 0.0
C143 C 0.17103 0.40986 0.82292 0.0
C144 C 0.15375 0.40859 0.85662 0.0
C145 C 0.16745 0.34596 0.82428 0.0
H146 H 0.1725 0.3215 0.81247 0.0
C147 C 0.15064 0.3445 0.85746 0.0
H148 H 0.17908 0.43494 0.80929 0.0
C149 C 0.14328 0.37527 0.87328 0.0
H150 H 0.12861 0.37251 0.89836 0.0
H151 H 0.14266 0.31921 0.87075 0.0
Dy152 Dy 0.05139 0.07167 0.50824 0.0
C153 C 0.99729 0.00865 0.64177 0.0
C154 C 0.08086 0.10661 0.44873 0.0
Dy155 Dy 0.00982 0.04716 0.58165 0.0
O156 O 0.07553 0.07231 0.45306 0.0
O157 O 0.06989 0.12161 0.47675 0.0
O158 O 0.08659 0.03106 0.51567 0.0
O159 O 0.06668 0.0545 0.55975 0.0
C160 C 0.08341 0.03085 0.54993 0.0
C161 C 0.96742 0.0792 0.54051 0.0
O162 O 0.04729 0.10073 0.59868 0.0
O163 O 0.06966 0.12112 0.54279 0.0
O164 O 0.98797 0.039 0.63748 0.0
O165 O 0.01333 0.99958 0.61331 0.0
O166 O 0.9566 0.06729 0.57184 0.0
O167 O 0.99925 0.07281 0.53453 0.0
O168 O 0.99958 0.03111 0.4902 0.0
O169 O 0.98677 1.0007 0.54309 0.0
C170 C 0.0659 0.12615 0.57748 0.0
C171 C 0.98166 1.00308 0.50838 0.0
Dy172 Dy 0.55906 0.07697 0.09378 0.0
C173 C 0.44986 0.99319 0.98826 0.0
C174 C 0.60394 0.11811 0.14529 0.0
Dy175 Dy 0.50117 0.03908 0.0314 0.0
O176 O 0.57091 0.09667 0.15028 0.0
O177 O 0.61237 0.11773 0.11173 0.0
O178 O 0.55453 0.02236 0.11623 0.0
O179 O 0.50892 0.0325 0.08779 0.0
C180 C 0.52114 0.0086 0.10261 0.0
C181 C 0.54551 0.10179 0.01038 0.0
O182 O 0.46349 0.06312 0.06701 0.0
O183 O 0.51075 0.10333 0.10014 0.0
O184 O 0.45292 0.02754 0.99183 0.0
O185 O 0.47428 0.98371 0.00889 0.0
O186 O 0.52035 0.08061 0.9902 0.0
O187 O 0.54531 0.0877 0.04006 0.0
O188 O 0.59769 0.05647 0.05713 0.0
O189 O 0.55135 0.01456 0.02487 0.0
C190 C 0.4747 0.0901 0.09064 0.0
C191 C 0.58727 0.02865 0.03453 0.0
Dy192 Dy 0.52848 0.5267 0.55661 0.0
C193 C 0.49004 0.64955 0.62619 0.0
C194 C 0.56087 0.47627 0.52502 0.0
Dy195 Dy 0.5181 0.59705 0.59317 0.0
O196 O 0.52948 0.46922 0.54293 0.0
O197 O 0.5742 0.5108 0.5241 0.0
O198 O 0.46685 0.50071 0.56577 0.0
O199 O 0.49651 0.54007 0.60194 0.0
C200 C 0.46431 0.52056 0.59383 0.0
C201 C 0.58123 0.60385 0.55409 0.0
O202 O 0.53948 0.57075 0.63855 0.0
O203 O 0.56624 0.53199 0.60489 0.0
O204 O 0.52361 0.64425 0.63135 0.0
O205 O 0.47161 0.62614 0.60295 0.0
O206 O 0.57886 0.62497 0.5811 0.0
O207 O 0.54904 0.5837 0.54778 0.0
O208 O 0.49908 0.54622 0.51232 0.0
O209 O 0.48178 0.59321 0.54358 0.0
C210 C 0.56211 0.54837 0.63555 0.0
C211 C 0.48057 0.57205 0.51475 0.0
Dy212 Dy 0.02591 0.53541 0.0829 0.0
C213 C 0.99146 0.66507 0.0323 0.0
C214 C 0.05258 0.47678 0.09811 0.0
Dy215 Dy 0.01546 0.60647 0.05365 0.0
O216 O 0.02245 0.48409 0.1118 0.0
O217 O 0.06794 0.5014 0.07625 0.0
O218 O 0.97703 0.53082 0.11965 0.0
O219 O 1.00871 0.58203 0.10557 0.0
C220 C 0.97923 0.56508 0.12116 0.0
C221 C 0.06129 0.5748 0.01517 0.0
O222 O 0.06537 0.62904 0.0897 0.0
O223 O 0.07684 0.57438 0.10579 0.0
O224 O 0.99653 0.63907 0.01162 0.0
O225 O 0.99938 0.65905 0.06479 0.0
O226 O 0.06495 0.60925 0.01748 0.0
O227 O 0.03132 0.55907 0.0307 0.0
O228 O 0.97719 0.51453 0.04642 0.0
O229 O 0.95826 0.56809 0.04502 0.0
C230 C 0.08561 0.60991 0.10641 0.0
C231 C 0.95138 0.53275 0.04016 0.0
H232 H 0.18421 0.13091 0.26096 0.0
H233 H 0.20511 0.24601 0.2813 0.0
H234 H 0.16869 0.23523 0.33645 0.0
H235 H 0.08944 0.10615 0.29734 0.0
H236 H 0.09653 0.06607 0.31706 0.0
H237 H 0.12203 0.08258 0.27765 0.0
H238 H 0.18579 0.0845 0.3095 0.0
H239 H 0.16049 0.06791 0.34896 0.0
H240 H 0.19674 0.10932 0.35103 0.0
H241 H 0.13158 0.21244 0.39027 0.0
H242 H 0.09845 0.17882 0.44047 0.0
H243 H 0.10426 0.07859 0.38733 0.0
C244 C 0.18121 0.1539 0.27696 0.0
C245 C 0.19718 0.18936 0.26622 0.0
C246 C 0.19235 0.21858 0.28814 0.0
C247 C 0.17191 0.21277 0.31978 0.0
C248 C 0.15665 0.17757 0.32948 0.0
C249 C 0.1612 0.14861 0.30888 0.0
C250 C 0.14333 0.11349 0.32627 0.0
C251 C 0.1109 0.09074 0.3032 0.0
C252 C 0.17339 0.09258 0.33442 0.0
C253 C 0.12832 0.12731 0.35998 0.0
C254 C 0.13603 0.16437 0.36111 0.0
C255 C 0.12532 0.18342 0.38968 0.0
C256 C 0.1065 0.16411 0.41804 0.0
C257 C 0.09885 0.12619 0.41771 0.0
C258 C 0.10971 0.10759 0.38819 0.0
H259 H 0.35885 0.93784 0.79594 0.0
H260 H 0.33529 0.82763 0.82901 0.0
H261 H 0.35505 0.84837 0.89016 0.0
H262 H 0.44147 0.96856 0.84535 0.0
H263 H 0.43393 0.01199 0.85769 0.0
H264 H 0.41284 0.98922 0.81759 0.0
H265 H 0.34628 0.99358 0.83895 0.0
H266 H 0.36724 0.01669 0.87907 0.0
H267 H 0.3296 0.97649 0.88152 0.0
H268 H 0.38641 0.87975 0.94469 0.0
H269 H 0.42286 0.92081 0.99105 0.0
H270 H 0.4237 0.01147 0.92504 0.0
C271 C 0.35666 0.91832 0.81645 0.0
C272 C 0.34516 0.88117 0.80803 0.0
C273 C 0.34368 0.8562 0.83517 0.0
C274 C 0.35488 0.86772 0.86993 0.0
C275 C 0.36724 0.90441 0.87732 0.0
C276 C 0.36769 0.92946 0.85158 0.0
C277 C 0.38479 0.96716 0.8663 0.0
C278 C 0.42036 0.98528 0.84549 0.0
C279 C 0.35521 0.98982 0.86647 0.0
C280 C 0.39493 0.95916 0.90379 0.0
C281 C 0.38446 0.92276 0.90954 0.0
C282 C 0.39392 0.9084 0.94087 0.0
C283 C 0.41471 0.93184 0.96698 0.0
C284 C 0.4254 0.9692 0.96181 0.0
C285 C 0.41493 0.98304 0.93 0.0
H286 H 0.57071 0.51909 0.84231 0.0
H287 H 0.62885 0.43508 0.81726 0.0
H288 H 0.63531 0.45404 0.75534 0.0
H289 H 0.51459 0.50477 0.76614 0.0
H290 H 0.51503 0.5513 0.76049 0.0
H291 H 0.52087 0.53544 0.80401 0.0
H292 H 0.58427 0.58362 0.81203 0.0
H293 H 0.57859 0.59966 0.76842 0.0
H294 H 0.6212 0.58602 0.77962 0.0
H295 H 0.62879 0.47729 0.69467 0.0
H296 H 0.60853 0.50187 0.64033 0.0
H297 H 0.55188 0.56864 0.7045 0.0
C298 C 0.58517 0.50481 0.82401 0.0
C299 C 0.59944 0.47562 0.83502 0.0
C300 C 0.61839 0.458 0.80996 0.0
C301 C 0.62203 0.46847 0.77456 0.0
C302 C 0.60662 0.49661 0.76448 0.0
C303 C 0.5886 0.51457 0.78852 0.0
C304 C 0.57117 0.54148 0.77036 0.0
C305 C 0.52786 0.5327 0.77556 0.0
C306 C 0.58994 0.57998 0.78339 0.0
C307 C 0.58123 0.53513 0.73219 0.0
C308 C 0.60219 0.50956 0.7294 0.0
C309 C 0.61281 0.49768 0.69659 0.0
C310 C 0.60109 0.51179 0.66583 0.0
C311 C 0.57866 0.5373 0.66805 0.0
C312 C 0.56936 0.54954 0.7018 0.0
H313 H 0.89486 0.72287 0.20278 0.0
H314 H 0.82154 0.6437 0.26748 0.0
H315 H 0.85004 0.59656 0.24129 0.0
H316 H 0.88881 0.66633 0.12583 0.0
H317 H 0.93731 0.68219 0.11244 0.0
H318 H 0.91404 0.71195 0.13649 0.0
H319 H 0.96485 0.7247 0.18593 0.0
H320 H 0.99069 0.69749 0.16148 0.0
H321 H 0.97787 0.68778 0.20692 0.0
H322 H 0.88462 0.55785 0.20589 0.0
H323 H 0.92542 0.53093 0.16673 0.0
H324 H 0.97761 0.63601 0.12699 0.0
C325 C 0.88471 0.6956 0.2114 0.0
C326 C 0.85591 0.68687 0.23709 0.0
C327 C 0.84378 0.65098 0.24803 0.0
C328 C 0.85965 0.62405 0.23319 0.0
C329 C 0.88774 0.63357 0.20766 0.0
C330 C 0.90034 0.66853 0.19706 0.0
C331 C 0.93059 0.6717 0.16896 0.0
C332 C 0.91686 0.68381 0.13387 0.0
C333 C 0.96823 0.69691 0.1816 0.0
C334 C 0.93362 0.63317 0.16583 0.0
C335 C 0.90826 0.61149 0.18797 0.0
C336 C 0.9048 0.57463 0.18869 0.0
C337 C 0.92807 0.55961 0.16634 0.0
C338 C 0.95473 0.5815 0.14397 0.0
C339 C 0.95752 0.61872 0.14382 0.0
H340 H 0.28327 0.15301 0.12903 0.0
H341 H 0.31991 0.16873 0.23903 0.0
H342 H 0.37558 0.14477 0.22468 0.0
H343 H 0.31496 0.06871 0.11296 0.0
H344 H 0.3294 0.08017 0.06825 0.0
H345 H 0.29074 0.09572 0.08775 0.0
H346 H 0.3253 0.16114 0.07414 0.0
H347 H 0.36429 0.14591 0.05506 0.0
H348 H 0.37288 0.17918 0.09075 0.0
H349 H 0.43084 0.12719 0.19744 0.0
H350 H 0.47895 0.10853 0.16043 0.0
H351 H 0.40546 0.09985 0.06816 0.0
C352 C 0.30266 0.15063 0.15015 0.0
C353 C 0.29727 0.16246 0.1852 0.0
C354 C 0.32324 0.15926 0.21217 0.0
C355 C 0.35505 0.14595 0.20421 0.0
C356 C 0.36011 0.13544 0.16926 0.0
C357 C 0.33429 0.13683 0.14276 0.0
C358 C 0.34703 0.12445 0.10725 0.0
C359 C 0.31886 0.09022 0.09323 0.0
C360 C 0.35271 0.15447 0.08021 0.0
C361 C 0.38457 0.11683 0.11781 0.0
C362 C 0.39156 0.12367 0.15369 0.0
C363 C 0.42542 0.12112 0.16946 0.0
C364 C 0.45269 0.11083 0.14813 0.0
C365 C 0.44582 0.10271 0.1115 0.0
C366 C 0.4112 0.10556 0.09617 0.0
H367 H 0.19765 0.88582 0.60175 0.0
H368 H 0.20314 0.92784 0.70996 0.0
H369 H 0.17025 0.97407 0.69137 0.0
H370 H 0.21233 0.9729 0.55876 0.0
H371 H 0.1803 0.9543 0.52273 0.0
H372 H 0.2065 0.92665 0.54453 0.0
H373 H 0.14342 0.88049 0.55738 0.0
H374 H 0.117 0.9082 0.53609 0.0
H375 H 0.10645 0.89502 0.58112 0.0
H376 H 0.13071 0.01178 0.6613 0.0
H377 H 0.09486 0.04209 0.62152 0.0
H378 H 0.11737 0.97626 0.5327 0.0
C379 C 0.19251 0.90518 0.62142 0.0
C380 C 0.20297 0.90335 0.65732 0.0
C381 C 0.19574 0.92906 0.68229 0.0
C382 C 0.17682 0.95519 0.67198 0.0
C383 C 0.16583 0.95551 0.6365 0.0
C384 C 0.17408 0.93154 0.6115 0.0
C385 C 0.15886 0.93704 0.5752 0.0
C386 C 0.19144 0.94841 0.54874 0.0
C387 C 0.1297 0.90317 0.56167 0.0
C388 C 0.14007 0.96745 0.58364 0.0
C389 C 0.1442 0.97766 0.61917 0.0
C390 C 0.12783 0.00428 0.63338 0.0
C391 C 0.10736 0.02123 0.61062 0.0
C392 C 0.10354 0.01167 0.574 0.0
C393 C 0.12007 0.98433 0.56051 0.0
H394 H 0.74586 0.46745 0.94979 0.0
H395 H 0.71672 0.39588 0.03796 0.0
H396 H 0.77996 0.42046 0.06414 0.0
H397 H 0.84055 0.46357 0.94108 0.0
H398 H 0.85933 0.5104 0.93244 0.0
H399 H 0.81083 0.48904 0.92093 0.0
H400 H 0.78745 0.53663 0.95886 0.0
H401 H 0.83596 0.5585 0.97009 0.0
H402 H 0.80192 0.54437 1.00471 0.0
H403 H 0.84761 0.4463 0.07691 0.0
H404 H 0.91466 0.47974 0.08106 0.0
H405 H 0.89974 0.53987 0.98883 0.0
C406 C 0.75246 0.45758 0.97502 0.0
C407 C 0.72654 0.42917 0.99142 0.0
C408 C 0.73643 0.41688 0.02434 0.0
C409 C 0.7722 0.43082 0.03959 0.0
C410 C 0.79754 0.4577 0.0221 0.0
C411 C 0.788 0.4717 0.99106 0.0
C412 C 0.82104 0.50054 0.97784 0.0
C413 C 0.83367 0.49025 0.94088 0.0
C414 C 0.81099 0.53719 0.97789 0.0
C415 C 0.8508 0.49973 1.00586 0.0
C416 C 0.83653 0.4745 0.03088 0.0
C417 C 0.85899 0.46664 0.05795 0.0
C418 C 0.89702 0.48548 0.05988 0.0
C419 C 0.91198 0.51221 0.0353 0.0
C420 C 0.88863 0.51967 0.00805 0.0
H421 H 0.77023 0.71849 0.46858 0.0
H422 H 0.71988 0.67588 0.36669 0.0
H423 H 0.67032 0.63315 0.3973 0.0
H424 H 0.74264 0.63602 0.51943 0.0
H425 H 0.73062 0.65953 0.5581 0.0
H426 H 0.76724 0.68208 0.52872 0.0
H427 H 0.73188 0.73248 0.52096 0.0
H428 H 0.69529 0.71019 0.55033 0.0
H429 H 0.68302 0.72084 0.50633 0.0
H430 H 0.6227 0.59821 0.43802 0.0
H431 H 0.57691 0.57842 0.48581 0.0
H432 H 0.65248 0.64867 0.56107 0.0
C433 C 0.74907 0.70025 0.45238 0.0
C434 C 0.75013 0.70068 0.41479 0.0
C435 C 0.72139 0.67572 0.39529 0.0
C436 C 0.69258 0.65128 0.41251 0.0
C437 C 0.69212 0.65229 0.44936 0.0
C438 C 0.7193 0.67641 0.46912 0.0
C439 C 0.7094 0.67518 0.5082 0.0
C440 C 0.73926 0.66243 0.52989 0.0
C441 C 0.7046 0.71184 0.52226 0.0
C442 C 0.67186 0.6473 0.50708 0.0
C443 C 0.66304 0.63374 0.47296 0.0
C444 C 0.62937 0.60846 0.46488 0.0
C445 C 0.60355 0.59737 0.49223 0.0
C446 C 0.61118 0.61212 0.52707 0.0
C447 C 0.64607 0.6369 0.53467 0.0
H448 H 0.20708 0.36201 0.09234 0.0
H449 H 0.15555 0.31014 0.18707 0.0
H450 H 0.10339 0.34057 0.1816 0.0
H451 H 0.19121 0.44607 0.11485 0.0
H452 H 0.18245 0.45713 0.07002 0.0
H453 H 0.21241 0.42711 0.07817 0.0
H454 H 0.16983 0.37846 0.0369 0.0
H455 H 0.14013 0.40874 0.02859 0.0
H456 H 0.11952 0.36479 0.04499 0.0
H457 H 0.05946 0.38067 0.16859 0.0
H458 H 0.02912 0.42863 0.15028 0.0
H459 H 0.11263 0.45727 0.06739 0.0
C460 C 0.18483 0.35681 0.11195 0.0
C461 C 0.18556 0.33343 0.14007 0.0
C462 C 0.15543 0.32725 0.16481 0.0
C463 C 0.12571 0.34461 0.16206 0.0
C464 C 0.12653 0.36817 0.13453 0.0
C465 C 0.1554 0.37431 0.10996 0.0
C466 C 0.15161 0.40316 0.08472 0.0
C467 C 0.18648 0.43526 0.08711 0.0
C468 C 0.14485 0.38783 0.04654 0.0
C469 C 0.1166 0.41295 0.09945 0.0
C470 C 0.10209 0.39205 0.12777 0.0
C471 C 0.07041 0.39699 0.14628 0.0
C472 C 0.0534 0.42425 0.13575 0.0
C473 C 0.06853 0.44642 0.10739 0.0
C474 C 0.10029 0.44044 0.08893 0.0
H475 H 0.63312 0.31316 0.01842 0.0
H476 H 0.6295 0.30645 0.90351 0.0
H477 H 0.61194 0.24019 0.9053 0.0
H478 H 0.669 0.23289 0.03286 0.0
H479 H 0.63921 0.21949 0.07068 0.0
H480 H 0.65512 0.26636 0.06078 0.0
H481 H 0.58545 0.27202 0.05921 0.0
H482 H 0.56943 0.22535 0.06948 0.0
H483 H 0.55157 0.24206 0.0305 0.0
H484 H 0.59243 0.17626 0.91889 0.0
H485 H 0.56432 0.11715 0.94309 0.0
H486 H 0.57804 0.16353 0.04994 0.0
C487 C 0.62894 0.29754 0.99373 0.0
C488 C 0.63277 0.31457 0.96076 0.0
C489 C 0.62654 0.29367 0.92892 0.0
C490 C 0.61695 0.25615 0.92972 0.0
C491 C 0.61349 0.2401 0.9626 0.0
C492 C 0.61878 0.25998 0.99408 0.0
C493 C 0.60989 0.23586 0.02572 0.0
C494 C 0.64543 0.23884 0.04888 0.0
C495 C 0.57713 0.24433 0.0475 0.0
C496 C 0.59808 0.19933 0.007 0.0
C497 C 0.60116 0.20261 0.97062 0.0
C498 C 0.59015 0.17327 0.94729 0.0
C499 C 0.57424 0.13983 0.96132 0.0
C500 C 0.56931 0.13591 0.99831 0.0
C501 C 0.58231 0.1658 0.02162 0.0
H502 H 0.85781 0.80615 0.45615 0.0
H503 H 0.81608 0.85451 0.36684 0.0
H504 H 0.84986 0.91458 0.38958 0.0
H505 H 0.8551 0.87989 0.52248 0.0
H506 H 0.89821 0.876 0.54402 0.0
H507 H 0.86708 0.83701 0.52317 0.0
H508 H 0.92305 0.82639 0.4853 0.0
H509 H 0.95423 0.86549 0.50569 0.0
H510 H 0.94891 0.86182 0.45813 0.0
H511 H 0.89323 0.96778 0.41716 0.0
H512 H 0.94159 0.01275 0.45042 0.0
H513 H 0.95529 0.93146 0.52353 0.0
C514 C 0.85501 0.82953 0.44203 0.0
C515 C 0.83442 0.82585 0.40976 0.0
C516 C 0.83193 0.85687 0.3915 0.0
C517 C 0.85086 0.89105 0.40427 0.0
C518 C 0.87194 0.89377 0.43549 0.0
C519 C 0.87386 0.86401 0.45445 0.0
C520 C 0.90058 0.87452 0.48605 0.0
C521 C 0.87894 0.86637 0.52101 0.0
C522 C 0.93364 0.85595 0.48362 0.0
C523 C 0.91416 0.91464 0.48116 0.0
C524 C 0.89701 0.92504 0.4519 0.0
C525 C 0.90648 0.96013 0.44043 0.0
C526 C 0.93423 0.9854 0.45935 0.0
C527 C 0.95219 0.97555 0.48951 0.0
C528 C 0.94169 0.93976 0.50079 0.0
H529 H 0.36778 0.79529 0.66021 0.0
H530 H 0.39836 0.79349 0.77172 0.0
H531 H 0.43805 0.75236 0.75683 0.0
H532 H 0.35642 0.69967 0.64654 0.0
H533 H 0.3736 0.7033 0.60167 0.0
H534 H 0.35037 0.73616 0.61996 0.0
H535 H 0.409 0.78688 0.60504 0.0
H536 H 0.43248 0.75416 0.58683 0.0
H537 H 0.45513 0.7852 0.62157 0.0
H538 H 0.47657 0.71277 0.73045 0.0
H539 H 0.50406 0.67028 0.69497 0.0
H540 H 0.44094 0.68865 0.60263 0.0
C541 C 0.38248 0.78632 0.68175 0.0
C542 C 0.38045 0.7994 0.71717 0.0
C543 C 0.4005 0.78613 0.74407 0.0
C544 C 0.42296 0.76208 0.73601 0.0
C545 C 0.42444 0.7502 0.70104 0.0
C546 C 0.4041 0.76115 0.67442 0.0
C547 C 0.40845 0.74183 0.63949 0.0
C548 C 0.36992 0.71887 0.62614 0.0
C549 C 0.42739 0.76862 0.61159 0.0
C550 C 0.4345 0.71851 0.6508 0.0
C551 C 0.44394 0.72444 0.68632 0.0
C552 C 0.46902 0.70752 0.70272 0.0
C553 C 0.48458 0.68356 0.68238 0.0
C554 C 0.47426 0.67603 0.64634 0.0
C555 C 0.44883 0.69366 0.63034 0.0
H556 H 0.89784 0.94349 0.82469 0.0
H557 H 0.94571 0.8505 0.81413 0.0
H558 H 0.98003 0.87575 0.76071 0.0
H559 H 0.88086 0.9507 0.73332 0.0
H560 H 0.89259 0.99907 0.73421 0.0
H561 H 0.87452 0.97529 0.77336 0.0
H562 H 0.93363 0.01025 0.80901 0.0
H563 H 0.9519 0.0342 0.76994 0.0
H564 H 0.98038 0.00969 0.7933 0.0
H565 H 1.00561 0.90903 0.70612 0.0
H566 H 0.02098 0.94818 0.65469 0.0
H567 H 0.95575 0.01908 0.70018 0.0
C568 C 0.91564 0.92845 0.81125 0.0
C569 C 0.91913 0.89501 0.82378 0.0
C570 C 0.94302 0.87641 0.80549 0.0
C571 C 0.96249 0.89046 0.77498 0.0
C572 C 0.95792 0.9232 0.76311 0.0
C573 C 0.9352 0.94203 0.78075 0.0
C574 C 0.93383 0.97589 0.76167 0.0
C575 C 0.89303 0.97517 0.74994 0.0
C576 C 0.95096 0.0095 0.78487 0.0
C577 C 0.95878 0.97284 0.73014 0.0
C578 C 0.97259 0.94236 0.73161 0.0
C579 C 0.99521 0.93311 0.70485 0.0
C580 C 1.00372 0.95545 0.67572 0.0
C581 C 0.9896 0.98662 0.67357 0.0
C582 C 0.96715 0.99555 0.70132 0.0
H583 H 0.66487 0.16473 0.34748 0.0
H584 H 0.77971 0.20835 0.31153 0.0
H585 H 0.7575 0.19756 0.24917 0.0
H586 H 0.64136 0.09431 0.28244 0.0
H587 H 0.59272 0.09694 0.2775 0.0
H588 H 0.61736 0.11041 0.31894 0.0
H589 H 0.60219 0.17281 0.31584 0.0
H590 H 0.57753 0.15954 0.27431 0.0
H591 H 0.61581 0.19938 0.27727 0.0
H592 H 0.72244 0.18044 0.19035 0.0
H593 H 0.67844 0.15514 0.14067 0.0
H594 H 0.58719 0.12163 0.21561 0.0
C595 C 0.68524 0.17255 0.32648 0.0
C596 C 0.72399 0.18768 0.33435 0.0
C597 C 0.74991 0.19668 0.30609 0.0
C598 C 0.73751 0.19083 0.27062 0.0
C599 C 0.6991 0.17575 0.26378 0.0
C600 C 0.6734 0.16657 0.29098 0.0
C601 C 0.63409 0.14895 0.27669 0.0
C602 C 0.62061 0.11037 0.28966 0.0
C603 C 0.60574 0.17153 0.28662 0.0
C604 C 0.64167 0.14934 0.23721 0.0
C605 C 0.67923 0.16526 0.2302 0.0
C606 C 0.69295 0.16805 0.19558 0.0
C607 C 0.66778 0.1537 0.16752 0.0
C608 C 0.62947 0.13653 0.1743 0.0
C609 C 0.61631 0.13477 0.20959 0.0
H610 H 0.45366 0.69306 0.35516 0.0
H611 H 0.41128 0.59428 0.2941 0.0
H612 H 0.40768 0.55963 0.34879 0.0
H613 H 0.51414 0.66143 0.40806 0.0
H614 H 0.50718 0.68546 0.44828 0.0
H615 H 0.49954 0.703 0.40598 0.0
H616 H 0.43114 0.70452 0.4242 0.0
H617 H 0.43866 0.6871 0.46676 0.0
H618 H 0.39913 0.66422 0.43918 0.0
H619 H 0.41897 0.53549 0.40705 0.0
H620 H 0.44289 0.52328 0.46553 0.0
H621 H 0.47671 0.63751 0.49029 0.0
C622 C 0.44224 0.66427 0.35377 0.0
C623 C 0.4319 0.64615 0.32085 0.0
C624 C 0.41854 0.60843 0.31937 0.0
C625 C 0.41642 0.58864 0.35025 0.0
C626 C 0.42771 0.60709 0.38234 0.0
C627 C 0.44003 0.64411 0.38444 0.0
C628 C 0.45439 0.65698 0.42148 0.0
C629 C 0.49629 0.67794 0.42089 0.0
C630 C 0.42932 0.67954 0.43893 0.0
C631 C 0.44976 0.62138 0.43942 0.0
C632 C 0.43389 0.59298 0.41644 0.0
C633 C 0.4305 0.55746 0.42558 0.0
C634 C 0.44426 0.55078 0.45878 0.0
C635 C 0.46099 0.57942 0.48254 0.0
C636 C 0.46294 0.61511 0.47303 0.0
H637 H 0.15152 0.42452 0.92825 0.0
H638 H 0.13513 0.46658 0.82523 0.0
H639 H 0.11561 0.51721 0.85491 0.0
H640 H 0.06638 0.44058 0.96294 0.0
H641 H 0.08496 0.44968 0.00738 0.0
H642 H 0.10314 0.42021 0.97789 0.0
H643 H 0.17159 0.46019 0.98796 0.0
H644 H 0.15328 0.48981 0.01718 0.0
H645 H 0.18108 0.50741 0.97932 0.0
H646 H 0.09396 0.56191 0.89665 0.0
H647 H 0.06874 0.59345 0.94587 0.0
H648 H 0.09346 0.51779 0.01947 0.0
C649 C 0.14382 0.44413 0.91159 0.0
C650 C 0.14508 0.44115 0.87413 0.0
C651 C 0.13535 0.46828 0.8539 0.0
C652 C 0.12389 0.49714 0.87055 0.0
C653 C 0.12183 0.49837 0.90745 0.0
C654 C 0.13128 0.47234 0.92762 0.0
C655 C 0.12295 0.47735 0.96644 0.0
C656 C 0.09259 0.44505 0.97945 0.0
C657 C 0.15939 0.48409 0.98905 0.0
C658 C 0.10761 0.51052 0.96513 0.0
C659 C 0.10751 0.52258 0.93099 0.0
C660 C 0.09398 0.55263 0.92345 0.0
C661 C 0.0798 0.57039 0.95151 0.0
C662 C 0.07868 0.5576 0.98639 0.0
C663 C 0.09314 0.52761 0.99314 0.0
H664 H 0.67046 0.8776 0.93695 0.0
H665 H 0.77984 0.95483 0.93611 0.0
H666 H 0.75293 0.99762 0.9713 0.0
H667 H 0.6163 0.94069 0.92215 0.0
H668 H 0.57733 0.91934 0.94972 0.0
H669 H 0.60623 0.89298 0.9284 0.0
H670 H 0.62063 0.86939 0.98928 0.0
H671 H 0.59161 0.89559 0.01079 0.0
H672 H 0.64022 0.90096 0.02472 0.0
H673 H 0.71311 0.03345 1.00393 0.0
H674 H 0.66325 0.05985 0.02999 0.0
H675 H 0.57899 0.96092 1.00519 0.0
C676 C 0.68895 0.90345 0.94409 0.0
C677 C 0.72749 0.91255 0.93369 0.0
C678 C 0.75052 0.94666 0.94425 0.0
C679 C 0.73539 0.97136 0.96407 0.0
C680 C 0.69711 0.96174 0.97301 0.0
C681 C 0.67419 0.9286 0.96332 0.0
C682 C 0.63342 0.92567 0.97421 0.0
C683 C 0.60677 0.9193 0.94168 0.0
C684 C 0.62073 0.89615 1.00137 0.0
C685 C 0.63683 0.96259 0.99102 0.0
C686 C 0.6739 0.98281 0.99054 0.0
C687 C 0.68401 0.01783 1.00451 0.0
C688 C 0.65549 0.03257 0.01928 0.0
C689 C 0.6172 0.01252 0.01949 0.0
C690 C 0.60793 0.97704 1.00518 0.0
H691 H 0.78847 0.15016 0.48031 0.0
H692 H 0.84888 0.18695 0.38395 0.0
H693 H 0.90279 0.16335 0.40392 0.0
H694 H 0.8698 0.17333 0.53852 0.0
H695 H 0.85371 0.13479 0.56559 0.0
H696 H 0.81971 0.15375 0.5431 0.0
H697 H 0.79005 0.09183 0.5129 0.0
H698 H 0.824 0.07269 0.53525 0.0
H699 H 0.81984 0.06912 0.48761 0.0
H700 H 0.9508 0.1355 0.4352 0.0
H701 H 0.98814 0.1067 0.47516 0.0
H702 H 0.8968 0.09037 0.55142 0.0
C703 C 0.81313 0.1537 0.46345 0.0
C704 C 0.81422 0.17059 0.43046 0.0
C705 C 0.84696 0.1738 0.4091 0.0
C706 C 0.87789 0.16064 0.42033 0.0
C707 C 0.87583 0.14432 0.45306 0.0
C708 C 0.84425 0.14091 0.47431 0.0
C709 C 0.84906 0.12259 0.50845 0.0
C710 C 0.84802 0.14761 0.54082 0.0
C711 C 0.81895 0.08694 0.51119 0.0
C712 C 0.88834 0.11627 0.50323 0.0
C713 C 0.90335 0.12885 0.47108 0.0
C714 C 0.93928 0.12567 0.46045 0.0
C715 C 0.96031 0.10932 0.48329 0.0
C716 C 0.94544 0.09649 0.5164 0.0
C717 C 0.90898 0.10006 0.52632 0.0
H718 H 0.2913 0.73093 0.14958 0.0
H719 H 0.28451 0.68023 0.25159 0.0
H720 H 0.21817 0.64816 0.23797 0.0
H721 H 0.19372 0.74306 0.14948 0.0
H722 H 0.18825 0.73436 0.10232 0.0
H723 H 0.23444 0.75461 0.12101 0.0
H724 H 0.26108 0.70405 0.09168 0.0
H725 H 0.21506 0.68357 0.07305 0.0
H726 H 0.23877 0.65788 0.1004 0.0
H727 H 0.15515 0.61768 0.21084 0.0
H728 H 0.09883 0.59238 0.17315 0.0
H729 H 0.14487 0.66666 0.09096 0.0
C730 C 0.27571 0.71393 0.16965 0.0
C731 C 0.29326 0.70836 0.20186 0.0
C732 C 0.27194 0.68476 0.22664 0.0
C733 C 0.23413 0.66666 0.21926 0.0
C734 C 0.21794 0.67279 0.1872 0.0
C735 C 0.23794 0.69613 0.16296 0.0
C736 C 0.21453 0.69704 0.12987 0.0
C737 C 0.20731 0.7345 0.12542 0.0
C738 C 0.2335 0.6849 0.09681 0.0
C739 C 0.17838 0.66987 0.13888 0.0
C740 C 0.18099 0.65621 0.1721 0.0
C741 C 0.15249 0.62865 0.18514 0.0
C742 C 0.12073 0.61442 0.16355 0.0
C743 C 0.11752 0.62803 0.12952 0.0
C744 C 0.14636 0.65651 0.11726 0.0
H745 H 0.25704 0.42415 0.65613 0.0
H746 H 0.30057 0.43925 0.76433 0.0
H747 H 0.36011 0.47805 0.74286 0.0
H748 H 0.3411 0.41046 0.62015 0.0
H749 H 0.33652 0.4316 0.5789 0.0
H750 H 0.29477 0.411 0.60327 0.0
H751 H 0.27368 0.47086 0.60433 0.0
H752 H 0.31546 0.4917 0.57993 0.0
H753 H 0.30556 0.51123 0.6218 0.0
H754 H 0.41709 0.5117 0.70893 0.0
H755 H 0.468 0.53249 0.66555 0.0
H756 H 0.38986 0.48832 0.57948 0.0
C757 C 0.27888 0.43545 0.67559 0.0
C758 C 0.27362 0.42832 0.71214 0.0
C759 C 0.30313 0.44463 0.73634 0.0
C760 C 0.33731 0.46664 0.72435 0.0
C761 C 0.34183 0.47189 0.68804 0.0
C762 C 0.31346 0.45648 0.66402 0.0
C763 C 0.32676 0.46265 0.62616 0.0
C764 C 0.32467 0.4268 0.60595 0.0
C765 C 0.30401 0.48547 0.60693 0.0
C766 C 0.36742 0.48328 0.63255 0.0
C767 C 0.37528 0.48919 0.66841 0.0
C768 C 0.41116 0.5073 0.68082 0.0
C769 C 0.43988 0.51906 0.65597 0.0
C770 C 0.43277 0.51185 0.61923 0.0
C771 C 0.39597 0.49412 0.60744 0.0
H772 H 0.91933 0.78635 0.89228 0.0
H773 H 0.89509 0.8515 0.98082 0.0
H774 H 0.92073 0.81419 0.02241 0.0
H775 H 0.89115 0.70254 0.93565 0.0
H776 H 0.92715 0.6838 0.91514 0.0
H777 H 0.90905 0.71692 0.89258 0.0
H778 H 0.9774 0.75665 0.88721 0.0
H779 H 0.99572 0.72363 0.90978 0.0
H780 H 1.00623 0.7694 0.92659 0.0
H781 H 0.95057 0.77015 0.05398 0.0
H782 H 0.9768 0.71998 0.07342 0.0
H783 H 0.9765 0.68097 0.96442 0.0
C784 C 0.91983 0.79291 0.92042 0.0
C785 C 0.90574 0.82197 0.93348 0.0
C786 C 0.90596 0.82938 0.97044 0.0
C787 C 0.92055 0.80843 0.99415 0.0
C788 C 0.93424 0.77989 0.98043 0.0
C789 C 0.93359 0.77188 0.94443 0.0
C790 C 0.9481 0.73868 0.93657 0.0
C791 C 0.917 0.70872 0.91895 0.0
C792 C 0.984 0.74764 0.91369 0.0
C793 C 0.95712 0.72921 0.97374 0.0
C794 C 0.94939 0.75354 0.99866 0.0
C795 C 0.95626 0.75071 0.03471 0.0
C796 C 0.97094 0.72204 0.04556 0.0
C797 C 0.97784 0.6962 0.02055 0.0
C798 C 0.97111 0.70012 0.98418 0.0
H799 H 0.45424 0.82853 0.20948 0.0
H800 H 0.35889 0.79858 0.13559 0.0
H801 H 0.38234 0.85474 0.10478 0.0
H802 H 0.46267 0.92243 0.21403 0.0
H803 H 0.51383 0.93446 0.21373 0.0
H804 H 0.4889 0.89234 0.23147 0.0
H805 H 0.52444 0.85838 0.18827 0.0
H806 H 0.54958 0.90043 0.17044 0.0
H807 H 0.52268 0.86538 0.14132 0.0
H808 H 0.41277 0.91609 0.08483 0.0
H809 H 0.45317 0.97585 0.07239 0.0
H810 H 0.53437 0.96187 0.15179 0.0
C811 C 0.43839 0.83337 0.18661 0.0
C812 C 0.40396 0.80914 0.17587 0.0
C813 C 0.38438 0.81707 0.14565 0.0
C814 C 0.39772 0.84882 0.12752 0.0
C815 C 0.43135 0.87208 0.13909 0.0
C816 C 0.45189 0.8645 0.16744 0.0
C817 C 0.48802 0.89361 0.17344 0.0
C818 C 0.48835 0.91178 0.21036 0.0
C819 C 0.52327 0.87854 0.16804 0.0
C820 C 0.48416 0.91888 0.14433 0.0
C821 C 0.45095 0.9061 0.12518 0.0
C822 C 0.43944 0.92594 0.09887 0.0
C823 C 0.4627 0.95968 0.09174 0.0
C824 C 0.49755 0.9727 0.11001 0.0
C825 C 0.50839 0.95201 0.13665 0.0
H826 H 0.15718 0.27627 0.72539 0.0
H827 H 0.17685 0.35255 0.64061 0.0
H828 H 0.14697 0.30423 0.59792 0.0
H829 H 0.17499 0.20194 0.6753 0.0
H830 H 0.13796 0.16882 0.69564 0.0
H831 H 0.16051 0.20941 0.72001 0.0
H832 H 0.09498 0.22332 0.73075 0.0
H833 H 0.07219 0.18271 0.70648 0.0
H834 H 0.06457 0.2252 0.69341 0.0
H835 H 0.11711 0.24835 0.56427 0.0
H836 H 0.08719 0.18773 0.54107 0.0
H837 H 0.08413 0.14687 0.6475 0.0
C838 C 0.1548 0.2829 0.69793 0.0
C839 C 0.16963 0.31823 0.68632 0.0
C840 C 0.16634 0.32563 0.65004 0.0
C841 C 0.14917 0.29842 0.62562 0.0
C842 C 0.13515 0.26396 0.63789 0.0
C843 C 0.13752 0.25605 0.67314 0.0
C844 C 0.1203 0.21656 0.6791 0.0
C845 C 0.15023 0.1981 0.69335 0.0
C846 C 0.08597 0.21167 0.7039 0.0
C847 C 0.10817 0.20355 0.64158 0.0
C848 C 0.11713 0.23145 0.61834 0.0
C849 C 0.10979 0.22628 0.58218 0.0
C850 C 0.0929 0.19162 0.56927 0.0
C851 C 0.08333 0.16244 0.59245 0.0
C852 C 0.09088 0.16863 0.62917 0.0
H853 H 0.60235 0.28236 0.50338 0.0
H854 H 0.70905 0.33313 0.45414 0.0
H855 H 0.69002 0.39076 0.45495 0.0
H856 H 0.54311 0.33469 0.46047 0.0
H857 H 0.51571 0.33676 0.49995 0.0
H858 H 0.53574 0.29877 0.49136 0.0
H859 H 0.5697 0.30964 0.55255 0.0
H860 H 0.54994 0.34769 0.56127 0.0
H861 H 0.60061 0.35295 0.56336 0.0
H862 H 0.6619 0.44431 0.46673 0.0
H863 H 0.62678 0.48871 0.48749 0.0
H864 H 0.5393 0.40309 0.53037 0.0
C865 C 0.62166 0.30547 0.49244 0.0
C866 C 0.65729 0.30305 0.47867 0.0
C867 C 0.68141 0.33402 0.46434 0.0
C868 C 0.67091 0.36697 0.46488 0.0
C869 C 0.63609 0.36855 0.47964 0.0
C870 C 0.61173 0.33851 0.49293 0.0
C871 C 0.577 0.34766 0.50936 0.0
C872 C 0.54075 0.32832 0.48907 0.0
C873 C 0.57418 0.33898 0.54898 0.0
C874 C 0.58601 0.38776 0.50409 0.0
C875 C 0.62004 0.39928 0.48657 0.0
C876 C 0.63504 0.43548 0.48008 0.0
C877 C 0.61492 0.46052 0.49201 0.0
C878 C 0.58026 0.4493 0.51035 0.0
C879 C 0.56553 0.41239 0.51609 0.0
loop_
_geom_bond_atom_site_label_1
_geom_bond_atom_site_label_2
_geom_bond_distance
_geom_bond_site_symmetry_2
_ccdc_geom_bond_type
H0 C1 0.949 . S
C1 H0 0.949 . S
C1 C2 1.395 . S
C1 C3 1.391 . S
C2 C1 1.395 . S
C2 C5 1.390 . S
C3 C1 1.391 . S
C3 C7 1.387 . S
C3 C8 1.491 . S
H4 C5 0.950 . S
C5 C2 1.390 . S
C5 H4 0.950 . S
C5 C6 1.378 . S
C6 C5 1.378 . S
C6 C7 1.409 . S
C7 C3 1.387 . S
C7 C6 1.409 . S
C7 H9 0.951 . S
C8 C3 1.491 . S
C8 C10 1.382 . S
C8 C12 1.404 . S
H9 C7 0.951 . S
C10 C8 1.382 . S
C10 C11 1.390 . S
C10 H15 0.949 . S
C11 C10 1.390 . S
C11 C16 1.399 . S
C12 C8 1.404 . S
C12 H13 0.950 . S
C12 C14 1.375 . S
H13 C12 0.950 . S
C14 C12 1.375 . S
C14 C16 1.382 . S
C14 H18 0.950 . S
H15 C10 0.949 . S
C16 C11 1.399 . S
C16 C14 1.382 . S
C16 H17 0.952 . S
H17 C16 0.952 . S
H18 C14 0.950 . S
H19 C20 0.949 . S
C20 H19 0.949 . S
C20 C21 1.395 . S
C20 C22 1.391 . S
C21 C20 1.395 . S
C21 C24 1.390 . S
C22 C20 1.391 . S
C22 C26 1.387 . S
C22 C27 1.491 . S
H23 C24 0.950 . S
C24 C21 1.390 . S
C24 H23 0.950 . S
C24 C25 1.378 . S
C25 C24 1.378 . S
C25 C26 1.409 . S
C26 C22 1.387 . S
C26 C25 1.409 . S
C26 H28 0.951 . S
C27 C22 1.491 . S
C27 C29 1.382 . S
C27 C31 1.404 . S
H28 C26 0.951 . S
C29 C27 1.382 . S
C29 C30 1.390 . S
C29 H34 0.949 . S
C30 C29 1.390 . S
C30 C35 1.399 . S
C31 C27 1.404 . S
C31 H32 0.950 . S
C31 C33 1.375 . S
H32 C31 0.950 . S
C33 C31 1.375 . S
C33 C35 1.382 . S
C33 H37 0.950 . S
H34 C29 0.949 . S
C35 C30 1.399 . S
C35 C33 1.382 . S
C35 H36 0.952 . S
H36 C35 0.952 . S
H37 C33 0.950 . S
H38 C39 0.949 . S
C39 H38 0.949 . S
C39 C40 1.395 . S
C39 C41 1.391 . S
C40 C39 1.395 . S
C40 C43 1.390 . S
C41 C39 1.391 . S
C41 C45 1.387 . S
C41 C46 1.491 . S
H42 C43 0.950 . S
C43 C40 1.390 . S
C43 H42 0.950 . S
C43 C44 1.378 . S
C44 C43 1.378 . S
C44 C45 1.409 . S
C45 C41 1.387 . S
C45 C44 1.409 . S
C45 H47 0.951 . S
C46 C41 1.491 . S
C46 C48 1.382 . S
C46 C50 1.404 . S
H47 C45 0.951 . S
C48 C46 1.382 . S
C48 C49 1.390 . S
C48 H53 0.949 . S
C49 C48 1.390 . S
C49 C54 1.399 . S
C50 C46 1.404 . S
C50 H51 0.950 . S
C50 C52 1.375 . S
H51 C50 0.950 . S
C52 C50 1.375 . S
C52 C54 1.382 . S
C52 H56 0.950 . S
H53 C48 0.949 . S
C54 C49 1.399 . S
C54 C52 1.382 . S
C54 H55 0.952 . S
H55 C54 0.952 . S
H56 C52 0.950 . S
H57 C58 0.949 . S
C58 H57 0.949 . S
C58 C59 1.395 . S
C58 C60 1.391 . S
C59 C58 1.395 . S
C59 C62 1.390 . S
C60 C58 1.391 . S
C60 C64 1.387 . S
C60 C65 1.491 . S
H61 C62 0.950 . S
C62 C59 1.390 . S
C62 H61 0.950 . S
C62 C63 1.378 . S
C63 C62 1.378 . S
C63 C64 1.409 . S
C64 C60 1.387 . S
C64 C63 1.409 . S
C64 H66 0.951 . S
C65 C60 1.491 . S
C65 C67 1.382 . S
C65 C69 1.404 . S
H66 C64 0.951 . S
C67 C65 1.382 . S
C67 C68 1.390 . S
C67 H72 0.949 . S
C68 C67 1.390 . S
C68 C73 1.399 . S
C69 C65 1.404 . S
C69 H70 0.950 . S
C69 C71 1.375 . S
H70 C69 0.950 . S
C71 C69 1.375 . S
C71 C73 1.382 . S
C71 H75 0.950 . S
H72 C67 0.949 . S
C73 C68 1.399 . S
C73 C71 1.382 . S
C73 H74 0.952 . S
H74 C73 0.952 . S
H75 C71 0.950 . S
H76 C77 0.949 . S
C77 H76 0.949 . S
C77 C78 1.395 . S
C77 C79 1.391 . S
C78 C77 1.395 . S
C78 C81 1.390 . S
C79 C77 1.391 . S
C79 C83 1.387 . S
C79 C84 1.491 . S
H80 C81 0.950 . S
C81 C78 1.390 . S
C81 H80 0.950 . S
C81 C82 1.378 . S
C82 C81 1.378 . S
C82 C83 1.409 . S
C83 C79 1.387 . S
C83 C82 1.409 . S
C83 H85 0.951 . S
C84 C79 1.491 . S
C84 C86 1.382 . S
C84 C88 1.404 . S
H85 C83 0.951 . S
C86 C84 1.382 . S
C86 C87 1.390 . S
C86 H91 0.949 . S
C87 C86 1.390 . S
C87 C92 1.399 . S
C88 C84 1.404 . S
C88 H89 0.950 . S
C88 C90 1.375 . S
H89 C88 0.950 . S
C90 C88 1.375 . S
C90 C92 1.382 . S
C90 H94 0.950 . S
H91 C86 0.949 . S
C92 C87 1.399 . S
C92 C90 1.382 . S
C92 H93 0.952 . S
H93 C92 0.952 . S
H94 C90 0.950 . S
H95 C96 0.949 . S
C96 H95 0.949 . S
C96 C97 1.395 . S
C96 C98 1.391 . S
C97 C96 1.395 . S
C97 C100 1.390 . S
C98 C96 1.391 . S
C98 C102 1.387 . S
C98 C103 1.491 . S
H99 C100 0.950 . S
C100 C97 1.390 . S
C100 H99 0.950 . S
C100 C101 1.378 . S
C101 C100 1.378 . S
C101 C102 1.409 . S
C102 C98 1.387 . S
C102 C101 1.409 . S
C102 H104 0.951 . S
C103 C98 1.491 . S
C103 C105 1.382 . S
C103 C107 1.404 . S
H104 C102 0.951 . S
C105 C103 1.382 . S
C105 C106 1.390 . S
C105 H110 0.949 . S
C106 C105 1.390 . S
C106 C111 1.399 . S
C107 C103 1.404 . S
C107 H108 0.950 . S
C107 C109 1.375 . S
H108 C107 0.950 . S
C109 C107 1.375 . S
C109 C111 1.382 . S
C109 H113 0.950 . S
H110 C105 0.949 . S
C111 C106 1.399 . S
C111 C109 1.382 . S
C111 H112 0.952 . S
H112 C111 0.952 . S
H113 C109 0.950 . S
H114 C115 0.949 . S
C115 H114 0.949 . S
C115 C116 1.395 . S
C115 C117 1.391 . S
C116 C115 1.395 . S
C116 C119 1.390 . S
C117 C115 1.391 . S
C117 C121 1.387 . S
C117 C122 1.491 . S
H118 C119 0.950 . S
C119 C116 1.390 . S
C119 H118 0.950 . S
C119 C120 1.378 . S
C120 C119 1.378 . S
C120 C121 1.409 . S
C121 C117 1.387 . S
C121 C120 1.409 . S
C121 H123 0.951 . S
C122 C117 1.491 . S
C122 C124 1.382 . S
C122 C126 1.404 . S
H123 C121 0.951 . S
C124 C122 1.382 . S
C124 C125 1.390 . S
C124 H129 0.949 . S
C125 C124 1.390 . S
C125 C130 1.399 . S
C126 C122 1.404 . S
C126 H127 0.950 . S
C126 C128 1.375 . S
H127 C126 0.950 . S
C128 C126 1.375 . S
C128 C130 1.382 . S
C128 H132 0.950 . S
H129 C124 0.949 . S
C130 C125 1.399 . S
C130 C128 1.382 . S
C130 H131 0.952 . S
H131 C130 0.952 . S
H132 C128 0.950 . S
H133 C134 0.949 . S
C134 H133 0.949 . S
C134 C135 1.395 . S
C134 C136 1.391 . S
C135 C134 1.395 . S
C135 C138 1.390 . S
C136 C134 1.391 . S
C136 C140 1.387 . S
C136 C141 1.491 . S
H137 C138 0.950 . S
C138 C135 1.390 . S
C138 H137 0.950 . S
C138 C139 1.378 . S
C139 C138 1.378 . S
C139 C140 1.409 . S
C140 C136 1.387 . S
C140 C139 1.409 . S
C140 H142 0.951 . S
C141 C136 1.491 . S
C141 C143 1.382 . S
C141 C145 1.404 . S
H142 C140 0.951 . S
C143 C141 1.382 . S
C143 C144 1.390 . S
C143 H148 0.949 . S
C144 C143 1.390 . S
C144 C149 1.399 . S
C145 C141 1.404 . S
C145 H146 0.950 . S
C145 C147 1.375 . S
H146 C145 0.950 . S
C147 C145 1.375 . S
C147 C149 1.382 . S
C147 H151 0.950 . S
H148 C143 0.949 . S
C149 C144 1.399 . S
C149 C147 1.382 . S
C149 H150 0.952 . S
H150 C149 0.952 . S
H151 C147 0.950 . S
Dy152 O156 2.398 . S
Dy152 O157 2.491 . S
Dy152 O158 2.403 . S
Dy152 O159 2.664 . S
Dy152 O163 2.326 . S
Dy152 O167 2.310 1_455 S
Dy152 O168 2.351 1_445 S
C153 O164 1.185 . S
C153 O165 1.355 . S
C154 O156 1.185 . S
C154 O157 1.355 . S
Dy155 O159 2.310 1_655 S
Dy155 O162 2.351 1_655 S
Dy155 O164 2.398 1_545 S
Dy155 O165 2.491 1_545 S
Dy155 O166 2.403 . S
Dy155 O167 2.664 . S
Dy155 O169 2.326 1_545 S
O156 Dy152 2.398 . S
O156 C154 1.185 . S
O157 Dy152 2.491 . S
O157 C154 1.355 . S
O158 Dy152 2.403 . S
O158 C160 1.254 . S
O159 Dy152 2.664 . S
O159 Dy155 2.310 1_455 S
O159 C160 1.268 . S
C160 O158 1.254 . S
C160 O159 1.268 . S
C161 O166 1.254 . S
C161 O167 1.268 . S
O162 Dy155 2.351 1_455 S
O162 C170 1.249 . S
O163 Dy152 2.326 . S
O163 C170 1.267 . S
O164 C153 1.185 . S
O164 Dy155 2.398 1_565 S
O165 C153 1.355 . S
O165 Dy155 2.491 1_565 S
O166 Dy155 2.403 . S
O166 C161 1.254 . S
O167 Dy152 2.310 1_655 S
O167 Dy155 2.664 . S
O167 C161 1.268 . S
O168 Dy152 2.351 1_665 S
O168 C171 1.249 . S
O169 Dy155 2.326 1_565 S
O169 C171 1.267 . S
C170 O162 1.249 . S
C170 O163 1.267 . S
C171 O168 1.249 . S
C171 O169 1.267 . S
Dy172 O176 2.398 . S
Dy172 O177 2.491 . S
Dy172 O178 2.403 1_545 S
Dy172 O179 2.664 1_545 S
Dy172 O183 2.326 . S
Dy172 O187 2.310 . S
Dy172 O188 2.351 . S
C173 O184 1.185 1_565 S
C173 O185 1.355 1_556 S
C174 O176 1.185 . S
C174 O177 1.355 . S
Dy175 O179 2.310 1_545 S
Dy175 O182 2.351 . S
Dy175 O184 2.398 1_554 S
Dy175 O185 2.491 1_545 S
Dy175 O186 2.403 . S
Dy175 O187 2.664 . S
Dy175 O189 2.326 . S
O176 Dy172 2.398 . S
O176 C174 1.185 . S
O177 Dy172 2.491 . S
O177 C174 1.355 . S
O178 Dy172 2.403 1_565 S
O178 C180 1.254 . S
O179 Dy172 2.664 1_565 S
O179 Dy175 2.310 1_565 S
O179 C180 1.268 . S
C180 O178 1.254 . S
C180 O179 1.268 . S
C181 O186 1.254 . S
C181 O187 1.268 . S
O182 Dy175 2.351 . S
O182 C190 1.249 . S
O183 Dy172 2.326 . S
O183 C190 1.267 . S
O184 C173 1.185 1_545 S
O184 Dy175 2.398 1_556 S
O185 C173 1.355 1_554 S
O185 Dy175 2.491 1_565 S
O186 Dy175 2.403 . S
O186 C181 1.254 . S
O187 Dy172 2.310 . S
O187 Dy175 2.664 . S
O187 C181 1.268 . S
O188 Dy172 2.351 . S
O188 C191 1.249 1_545 S
O189 Dy175 2.326 . S
O189 C191 1.267 1_545 S
C190 O182 1.249 . S
C190 O183 1.267 . S
C191 O188 1.249 1_565 S
C191 O189 1.267 1_565 S
Dy192 O196 2.398 . S
Dy192 O197 2.491 . S
Dy192 O198 2.403 . S
Dy192 O199 2.664 . S
Dy192 O203 2.326 . S
Dy192 O207 2.310 . S
Dy192 O208 2.351 . S
C193 O204 1.185 . S
C193 O205 1.355 . S
C194 O196 1.185 . S
C194 O197 1.355 . S
Dy195 O199 2.310 . S
Dy195 O202 2.351 . S
Dy195 O204 2.398 . S
Dy195 O205 2.491 . S
Dy195 O206 2.403 . S
Dy195 O207 2.664 . S
Dy195 O209 2.326 . S
O196 Dy192 2.398 . S
O196 C194 1.185 . S
O197 Dy192 2.491 . S
O197 C194 1.355 . S
O198 Dy192 2.403 . S
O198 C200 1.254 . S
O199 Dy192 2.664 . S
O199 Dy195 2.310 . S
O199 C200 1.268 . S
C200 O198 1.254 . S
C200 O199 1.268 . S
C201 O206 1.254 . S
C201 O207 1.268 . S
O202 Dy195 2.351 . S
O202 C210 1.249 . S
O203 Dy192 2.326 . S
O203 C210 1.267 . S
O204 C193 1.185 . S
O204 Dy195 2.398 . S
O205 C193 1.355 . S
O205 Dy195 2.491 . S
O206 Dy195 2.403 . S
O206 C201 1.254 . S
O207 Dy192 2.310 . S
O207 Dy195 2.664 . S
O207 C201 1.268 . S
O208 Dy192 2.351 . S
O208 C211 1.249 . S
O209 Dy195 2.326 . S
O209 C211 1.267 . S
C210 O202 1.249 . S
C210 O203 1.267 . S
C211 O208 1.249 . S
C211 O209 1.267 . S
Dy212 O216 2.398 . S
Dy212 O217 2.491 . S
Dy212 O218 2.419 . S
Dy212 O219 2.664 . S
Dy212 O223 2.326 . S
Dy212 O227 2.310 1_554 S
Dy212 O228 2.351 1_455 S
C213 O224 1.185 . S
C213 O225 1.355 1_556 S
C214 O216 1.185 . S
C214 O217 1.355 . S
Dy215 O219 2.310 . S
Dy215 O222 2.351 . S
Dy215 O224 2.398 1_454 S
Dy215 O225 2.491 1_455 S
Dy215 O226 2.403 1_554 S
Dy215 O227 2.664 1_554 S
Dy215 O229 2.326 1_454 S
O216 Dy212 2.398 . S
O216 C214 1.185 . S
O217 Dy212 2.491 . S
O217 C214 1.355 . S
O218 Dy212 2.419 . S
O218 C220 1.241 1_455 S
O219 Dy212 2.664 . S
O219 Dy215 2.310 . S
O219 C220 1.268 1_455 S
C220 O218 1.241 1_655 S
C220 O219 1.268 1_655 S
C221 O226 1.254 . S
C221 O227 1.268 . S
O222 Dy215 2.351 . S
O222 C230 1.249 . S
O223 Dy212 2.326 . S
O223 C230 1.267 . S
O224 C213 1.185 . S
O224 Dy215 2.398 1_656 S
O225 C213 1.355 1_554 S
O225 Dy215 2.491 1_655 S
O226 Dy215 2.403 1_556 S
O226 C221 1.254 . S
O227 Dy212 2.310 1_556 S
O227 Dy215 2.664 1_556 S
O227 C221 1.268 . S
O228 Dy212 2.351 1_655 S
O228 C231 1.249 1_554 S
O229 Dy215 2.326 1_656 S
O229 C231 1.267 . S
C230 O222 1.249 . S
C230 O223 1.267 . S
C231 O228 1.249 1_556 S
C231 O229 1.267 . S
H232 C244 0.930 . S
H233 C246 0.930 . S
H234 C247 0.930 . S
H235 C251 0.959 . S
H236 C251 0.959 . S
H237 C251 0.961 . S
H238 C252 0.960 . S
H239 C252 0.961 . S
H240 C252 0.959 . S
H241 C255 0.929 . S
H242 C256 0.931 . S
H243 C258 0.930 . S
C244 H232 0.930 . S
C244 C245 1.399 . S
C244 C249 1.399 . S
C245 C244 1.399 . S
C245 C246 1.376 . S
C246 H233 0.930 . S
C246 C245 1.376 . S
C246 C247 1.388 . S
C247 H234 0.930 . S
C247 C246 1.388 . S
C247 C248 1.390 . S
C248 C247 1.390 . S
C248 C249 1.394 . S
C248 C254 1.465 . S
C249 C244 1.399 . S
C249 C248 1.394 . S
C249 C250 1.516 . S
C250 C249 1.516 . S
C250 C251 1.502 . S
C250 C252 1.561 . S
C250 C253 1.526 . S
C251 H235 0.959 . S
C251 H236 0.959 . S
C251 H237 0.961 . S
C251 C250 1.502 . S
C252 H238 0.960 . S
C252 H239 0.961 . S
C252 H240 0.959 . S
C252 C250 1.561 . S
C253 C250 1.526 . S
C253 C254 1.396 . S
C253 C258 1.390 . S
C254 C248 1.465 . S
C254 C253 1.396 . S
C254 C255 1.399 . S
C255 H241 0.929 . S
C255 C254 1.399 . S
C255 C256 1.385 . S
C256 H242 0.931 . S
C256 C255 1.385 . S
C256 C257 1.389 . S
C257 C256 1.389 . S
C257 C258 1.387 . S
C258 H243 0.930 . S
C258 C253 1.390 . S
C258 C257 1.387 . S
H259 C271 0.930 . S
H260 C273 0.930 . S
H261 C274 0.930 . S
H262 C278 0.959 1_565 S
H263 C278 0.959 . S
H264 C278 0.961 . S
H265 C279 0.960 . S
H266 C279 0.961 . S
H267 C279 0.959 . S
H268 C282 0.929 . S
H269 C283 0.931 . S
H270 C285 0.930 1_545 S
C271 H259 0.930 . S
C271 C272 1.399 . S
C271 C276 1.399 . S
C272 C271 1.399 . S
C272 C273 1.376 . S
C273 H260 0.930 . S
C273 C272 1.376 . S
C273 C274 1.388 . S
C274 H261 0.930 . S
C274 C273 1.388 . S
C274 C275 1.390 . S
C275 C274 1.390 . S
C275 C276 1.394 . S
C275 C281 1.465 . S
C276 C271 1.399 . S
C276 C275 1.394 . S
C276 C277 1.516 . S
C277 C276 1.516 . S
C277 C278 1.502 1_565 S
C277 C279 1.561 1_565 S
C277 C280 1.526 . S
C278 H262 0.959 1_545 S
C278 H263 0.959 . S
C278 H264 0.961 . S
C278 C277 1.502 1_545 S
C279 H265 0.960 . S
C279 H266 0.961 . S
C279 H267 0.959 . S
C279 C277 1.561 1_545 S
C280 C277 1.526 . S
C280 C281 1.396 . S
C280 C285 1.390 . S
C281 C275 1.465 . S
C281 C280 1.396 . S
C281 C282 1.399 . S
C282 H268 0.929 . S
C282 C281 1.399 . S
C282 C283 1.385 . S
C283 H269 0.931 . S
C283 C282 1.385 . S
C283 C284 1.389 . S
C284 C283 1.389 . S
C284 C285 1.387 . S
C285 H270 0.930 1_565 S
C285 C280 1.390 . S
C285 C284 1.387 . S
H286 C298 0.930 . S
H287 C300 0.930 . S
H288 C301 0.930 . S
H289 C305 0.959 . S
H290 C305 0.959 . S
H291 C305 0.961 . S
H292 C306 0.960 . S
H293 C306 0.961 . S
H294 C306 0.959 . S
H295 C309 0.929 . S
H296 C310 0.931 . S
H297 C312 0.930 . S
C298 H286 0.930 . S
C298 C299 1.399 . S
C298 C303 1.399 . S
C299 C298 1.399 . S
C299 C300 1.376 . S
C300 H287 0.930 . S
C300 C299 1.376 . S
C300 C301 1.388 . S
C301 H288 0.930 . S
C301 C300 1.388 . S
C301 C302 1.390 . S
C302 C301 1.390 . S
C302 C303 1.394 . S
C302 C308 1.465 . S
C303 C298 1.399 . S
C303 C302 1.394 . S
C303 C304 1.516 . S
C304 C303 1.516 . S
C304 C305 1.502 . S
C304 C306 1.561 . S
C304 C307 1.526 . S
C305 H289 0.959 . S
C305 H290 0.959 . S
C305 H291 0.961 . S
C305 C304 1.502 . S
C306 H292 0.960 . S
C306 H293 0.961 . S
C306 H294 0.959 . S
C306 C304 1.561 . S
C307 C304 1.526 . S
C307 C308 1.396 . S
C307 C312 1.390 . S
C308 C302 1.465 . S
C308 C307 1.396 . S
C308 C309 1.399 . S
C309 H295 0.929 . S
C309 C308 1.399 . S
C309 C310 1.385 . S
C310 H296 0.931 . S
C310 C309 1.385 . S
C310 C311 1.389 . S
C311 C310 1.389 . S
C311 C312 1.387 . S
C312 H297 0.930 . S
C312 C307 1.390 . S
C312 C311 1.387 . S
H313 C325 0.930 . S
H314 C327 0.930 . S
H315 C328 0.930 . S
H316 C332 0.959 . S
H317 C332 0.959 . S
H318 C332 0.961 . S
H319 C333 0.960 . S
H320 C333 0.961 1_455 S
H321 C333 0.959 1_455 S
H322 C336 0.929 . S
H323 C337 0.931 . S
H324 C339 0.930 . S
C325 H313 0.930 . S
C325 C326 1.399 . S
C325 C330 1.399 . S
C326 C325 1.399 . S
C326 C327 1.376 . S
C327 H314 0.930 . S
C327 C326 1.376 . S
C327 C328 1.388 . S
C328 H315 0.930 . S
C328 C327 1.388 . S
C328 C329 1.390 . S
C329 C328 1.390 . S
C329 C330 1.394 . S
C329 C335 1.465 . S
C330 C325 1.399 . S
C330 C329 1.394 . S
C330 C331 1.516 . S
C331 C330 1.516 . S
C331 C332 1.502 . S
C331 C333 1.561 . S
C331 C334 1.526 . S
C332 H316 0.959 . S
C332 H317 0.959 . S
C332 H318 0.961 . S
C332 C331 1.502 . S
C333 H319 0.960 . S
C333 H320 0.961 1_655 S
C333 H321 0.959 1_655 S
C333 C331 1.561 . S
C334 C331 1.526 . S
C334 C335 1.396 . S
C334 C339 1.390 . S
C335 C329 1.465 . S
C335 C334 1.396 . S
C335 C336 1.399 . S
C336 H322 0.929 . S
C336 C335 1.399 . S
C336 C337 1.385 . S
C337 H323 0.931 . S
C337 C336 1.385 . S
C337 C338 1.389 . S
C338 C337 1.389 . S
C338 C339 1.387 . S
C339 H324 0.930 . S
C339 C334 1.390 . S
C339 C338 1.387 . S
H340 C352 0.930 . S
H341 C354 0.930 . S
H342 C355 0.930 . S
H343 C359 0.959 . S
H344 C359 0.959 . S
H345 C359 0.961 . S
H346 C360 0.960 . S
H347 C360 0.961 . S
H348 C360 0.959 . S
H349 C363 0.929 . S
H350 C364 0.931 . S
H351 C366 0.930 . S
C352 H340 0.930 . S
C352 C353 1.399 . S
C352 C357 1.399 . S
C353 C352 1.399 . S
C353 C354 1.376 . S
C354 H341 0.930 . S
C354 C353 1.376 . S
C354 C355 1.388 . S
C355 H342 0.930 . S
C355 C354 1.388 . S
C355 C356 1.390 . S
C356 C355 1.390 . S
C356 C357 1.394 . S
C356 C362 1.465 . S
C357 C352 1.399 . S
C357 C356 1.394 . S
C357 C358 1.516 . S
C358 C357 1.516 . S
C358 C359 1.502 . S
C358 C360 1.561 . S
C358 C361 1.526 . S
C359 H343 0.959 . S
C359 H344 0.959 . S
C359 H345 0.961 . S
C359 C358 1.502 . S
C360 H346 0.960 . S
C360 H347 0.961 . S
C360 H348 0.959 . S
C360 C358 1.561 . S
C361 C358 1.526 . S
C361 C362 1.396 . S
C361 C366 1.390 . S
C362 C356 1.465 . S
C362 C361 1.396 . S
C362 C363 1.399 . S
C363 H349 0.929 . S
C363 C362 1.399 . S
C363 C364 1.385 . S
C364 H350 0.931 . S
C364 C363 1.385 . S
C364 C365 1.389 . S
C365 C364 1.389 . S
C365 C366 1.387 . S
C366 H351 0.930 . S
C366 C361 1.390 . S
C366 C365 1.387 . S
H367 C379 0.930 . S
H368 C381 0.930 . S
H369 C382 0.930 . S
H370 C386 0.959 1_545 S
H371 C386 0.959 . S
H372 C386 0.961 . S
H373 C387 0.960 . S
H374 C387 0.961 . S
H375 C387 0.959 . S
H376 C390 0.930 . S
H377 C391 0.931 . S
H378 C393 0.930 . S
C379 H367 0.930 . S
C379 C380 1.399 . S
C379 C384 1.399 . S
C380 C379 1.399 . S
C380 C381 1.376 . S
C381 H368 0.930 . S
C381 C380 1.376 . S
C381 C382 1.388 . S
C382 H369 0.930 . S
C382 C381 1.388 . S
C382 C383 1.390 . S
C383 C382 1.390 . S
C383 C384 1.394 . S
C383 C389 1.465 . S
C384 C379 1.399 . S
C384 C383 1.394 . S
C384 C385 1.516 . S
C385 C384 1.516 . S
C385 C386 1.502 . S
C385 C387 1.561 . S
C385 C388 1.526 . S
C386 H370 0.959 1_565 S
C386 H371 0.959 . S
C386 H372 0.961 . S
C386 C385 1.502 . S
C387 H373 0.960 . S
C387 H374 0.961 . S
C387 H375 0.959 . S
C387 C385 1.561 . S
C388 C385 1.526 . S
C388 C389 1.396 . S
C388 C393 1.390 . S
C389 C383 1.465 . S
C389 C388 1.396 . S
C389 C390 1.399 . S
C390 H376 0.930 . S
C390 C389 1.399 . S
C390 C391 1.385 1_565 S
C391 H377 0.931 . S
C391 C390 1.385 1_545 S
C391 C392 1.389 . S
C392 C391 1.389 . S
C392 C393 1.387 1_545 S
C393 H378 0.930 . S
C393 C388 1.390 . S
C393 C392 1.387 1_565 S
H394 C406 0.930 . S
H395 C408 0.930 . S
H396 C409 0.930 1_554 S
H397 C413 0.959 . S
H398 C413 0.959 . S
H399 C413 0.961 . S
H400 C414 0.960 . S
H401 C414 0.961 . S
H402 C414 0.959 . S
H403 C417 0.929 . S
H404 C418 0.931 . S
H405 C420 0.930 . S
C406 H394 0.930 . S
C406 C407 1.399 . S
C406 C411 1.399 . S
C407 C406 1.399 . S
C407 C408 1.376 . S
C408 H395 0.930 . S
C408 C407 1.376 . S
C408 C409 1.388 . S
C409 H396 0.930 1_556 S
C409 C408 1.388 . S
C409 C410 1.390 . S
C410 C409 1.390 . S
C410 C411 1.394 . S
C410 C416 1.465 . S
C411 C406 1.399 . S
C411 C410 1.394 . S
C411 C412 1.516 . S
C412 C411 1.516 . S
C412 C413 1.502 . S
C412 C414 1.561 . S
C412 C415 1.526 . S
C413 H397 0.959 . S
C413 H398 0.959 . S
C413 H399 0.961 . S
C413 C412 1.502 . S
C414 H400 0.960 . S
C414 H401 0.961 . S
C414 H402 0.959 . S
C414 C412 1.561 . S
C415 C412 1.526 . S
C415 C416 1.396 . S
C415 C420 1.390 . S
C416 C410 1.465 . S
C416 C415 1.396 . S
C416 C417 1.399 1_556 S
C417 H403 0.929 . S
C417 C416 1.399 1_554 S
C417 C418 1.385 . S
C418 H404 0.931 . S
C418 C417 1.385 . S
C418 C419 1.389 1_554 S
C419 C418 1.389 1_556 S
C419 C420 1.387 . S
C420 H405 0.930 . S
C420 C415 1.390 . S
C420 C419 1.387 . S
H421 C433 0.930 . S
H422 C435 0.930 . S
H423 C436 0.930 . S
H424 C440 0.959 . S
H425 C440 0.959 . S
H426 C440 0.961 . S
H427 C441 0.960 . S
H428 C441 0.961 . S
H429 C441 0.959 . S
H430 C444 0.929 . S
H431 C445 0.931 . S
H432 C447 0.930 . S
C433 H421 0.930 . S
C433 C434 1.399 . S
C433 C438 1.399 . S
C434 C433 1.399 . S
C434 C435 1.376 . S
C435 H422 0.930 . S
C435 C434 1.376 . S
C435 C436 1.388 . S
C436 H423 0.930 . S
C436 C435 1.388 . S
C436 C437 1.390 . S
C437 C436 1.390 . S
C437 C438 1.394 . S
C437 C443 1.465 . S
C438 C433 1.399 . S
C438 C437 1.394 . S
C438 C439 1.516 . S
C439 C438 1.516 . S
C439 C440 1.502 . S
C439 C441 1.561 . S
C439 C442 1.526 . S
C440 H424 0.959 . S
C440 H425 0.959 . S
C440 H426 0.961 . S
C440 C439 1.502 . S
C441 H427 0.960 . S
C441 H428 0.961 . S
C441 H429 0.959 . S
C441 C439 1.561 . S
C442 C439 1.526 . S
C442 C443 1.396 . S
C442 C447 1.390 . S
C443 C437 1.465 . S
C443 C442 1.396 . S
C443 C444 1.399 . S
C444 H430 0.929 . S
C444 C443 1.399 . S
C444 C445 1.385 . S
C445 H431 0.931 . S
C445 C444 1.385 . S
C445 C446 1.389 . S
C446 C445 1.389 . S
C446 C447 1.387 . S
C447 H432 0.930 . S
C447 C442 1.390 . S
C447 C446 1.387 . S
H448 C460 0.930 . S
H449 C462 0.930 . S
H450 C463 0.930 . S
H451 C467 0.959 . S
H452 C467 0.959 . S
H453 C467 0.961 . S
H454 C468 0.960 . S
H455 C468 0.961 . S
H456 C468 0.959 . S
H457 C471 0.929 . S
H458 C472 0.931 . S
H459 C474 0.930 . S
C460 H448 0.930 . S
C460 C461 1.399 . S
C460 C465 1.399 . S
C461 C460 1.399 . S
C461 C462 1.376 . S
C462 H449 0.930 . S
C462 C461 1.376 . S
C462 C463 1.388 . S
C463 H450 0.930 . S
C463 C462 1.388 . S
C463 C464 1.390 . S
C464 C463 1.390 . S
C464 C465 1.394 . S
C464 C470 1.465 . S
C465 C460 1.399 . S
C465 C464 1.394 . S
C465 C466 1.516 . S
C466 C465 1.516 . S
C466 C467 1.502 . S
C466 C468 1.561 . S
C466 C469 1.526 . S
C467 H451 0.959 . S
C467 H452 0.959 . S
C467 H453 0.961 . S
C467 C466 1.502 . S
C468 H454 0.960 . S
C468 H455 0.961 . S
C468 H456 0.959 . S
C468 C466 1.561 . S
C469 C466 1.526 . S
C469 C470 1.396 . S
C469 C474 1.390 . S
C470 C464 1.465 . S
C470 C469 1.396 . S
C470 C471 1.399 . S
C471 H457 0.929 . S
C471 C470 1.399 . S
C471 C472 1.385 . S
C472 H458 0.931 . S
C472 C471 1.385 . S
C472 C473 1.389 . S
C473 C472 1.389 . S
C473 C474 1.387 . S
C474 H459 0.930 . S
C474 C469 1.390 . S
C474 C473 1.387 . S
H475 C487 0.930 1_554 S
H476 C489 0.930 . S
H477 C490 0.930 . S
H478 C494 0.959 . S
H479 C494 0.959 . S
H480 C494 0.961 . S
H481 C495 0.960 . S
H482 C495 0.961 . S
H483 C495 0.959 . S
H484 C498 0.929 . S
H485 C499 0.931 . S
H486 C501 0.930 . S
C487 H475 0.930 1_556 S
C487 C488 1.399 . S
C487 C492 1.399 . S
C488 C487 1.399 . S
C488 C489 1.376 . S
C489 H476 0.930 . S
C489 C488 1.376 . S
C489 C490 1.388 . S
C490 H477 0.930 . S
C490 C489 1.388 . S
C490 C491 1.390 . S
C491 C490 1.390 . S
C491 C492 1.394 . S
C491 C497 1.465 . S
C492 C487 1.399 . S
C492 C491 1.394 . S
C492 C493 1.516 1_556 S
C493 C492 1.516 1_554 S
C493 C494 1.502 . S
C493 C495 1.561 . S
C493 C496 1.526 . S
C494 H478 0.959 . S
C494 H479 0.959 . S
C494 H480 0.961 . S
C494 C493 1.502 . S
C495 H481 0.960 . S
C495 H482 0.961 . S
C495 H483 0.959 . S
C495 C493 1.561 . S
C496 C493 1.526 . S
C496 C497 1.396 1_554 S
C496 C501 1.390 . S
C497 C491 1.465 . S
C497 C496 1.396 1_556 S
C497 C498 1.399 . S
C498 H484 0.929 . S
C498 C497 1.399 . S
C498 C499 1.385 . S
C499 H485 0.931 . S
C499 C498 1.385 . S
C499 C500 1.389 1_556 S
C500 C499 1.389 1_554 S
C500 C501 1.387 . S
C501 H486 0.930 . S
C501 C496 1.390 . S
C501 C500 1.387 . S
H502 C514 0.930 . S
H503 C516 0.930 . S
H504 C517 0.930 . S
H505 C521 0.959 . S
H506 C521 0.959 . S
H507 C521 0.961 . S
H508 C522 0.960 . S
H509 C522 0.961 1_455 S
H510 C522 0.959 . S
H511 C525 0.929 . S
H512 C526 0.931 . S
H513 C528 0.930 . S
C514 H502 0.930 . S
C514 C515 1.399 . S
C514 C519 1.399 . S
C515 C514 1.399 . S
C515 C516 1.376 . S
C516 H503 0.930 . S
C516 C515 1.376 . S
C516 C517 1.388 . S
C517 H504 0.930 . S
C517 C516 1.388 . S
C517 C518 1.390 . S
C518 C517 1.390 . S
C518 C519 1.394 . S
C518 C524 1.465 . S
C519 C514 1.399 . S
C519 C518 1.394 . S
C519 C520 1.516 . S
C520 C519 1.516 . S
C520 C521 1.502 . S
C520 C522 1.561 . S
C520 C523 1.526 . S
C521 H505 0.959 . S
C521 H506 0.959 . S
C521 H507 0.961 . S
C521 C520 1.502 . S
C522 H508 0.960 . S
C522 H509 0.961 1_655 S
C522 H510 0.959 . S
C522 C520 1.561 . S
C523 C520 1.526 . S
C523 C524 1.396 . S
C523 C528 1.390 . S
C524 C518 1.465 . S
C524 C523 1.396 . S
C524 C525 1.399 . S
C525 H511 0.929 . S
C525 C524 1.399 . S
C525 C526 1.385 . S
C526 H512 0.931 . S
C526 C525 1.385 . S
C526 C527 1.389 . S
C527 C526 1.389 . S
C527 C528 1.387 . S
C528 H513 0.930 . S
C528 C523 1.390 . S
C528 C527 1.387 . S
H529 C541 0.930 . S
H530 C543 0.930 . S
H531 C544 0.930 . S
H532 C548 0.959 . S
H533 C548 0.959 . S
H534 C548 0.961 . S
H535 C549 0.960 . S
H536 C549 0.961 . S
H537 C549 0.959 . S
H538 C552 0.929 . S
H539 C553 0.931 . S
H540 C555 0.930 . S
C541 H529 0.930 . S
C541 C542 1.399 . S
C541 C546 1.399 . S
C542 C541 1.399 . S
C542 C543 1.376 . S
C543 H530 0.930 . S
C543 C542 1.376 . S
C543 C544 1.388 . S
C544 H531 0.930 . S
C544 C543 1.388 . S
C544 C545 1.390 . S
C545 C544 1.390 . S
C545 C546 1.394 . S
C545 C551 1.465 . S
C546 C541 1.399 . S
C546 C545 1.394 . S
C546 C547 1.516 . S
C547 C546 1.516 . S
C547 C548 1.502 . S
C547 C549 1.561 . S
C547 C550 1.526 . S
C548 H532 0.959 . S
C548 H533 0.959 . S
C548 H534 0.961 . S
C548 C547 1.502 . S
C549 H535 0.960 . S
C549 H536 0.961 . S
C549 H537 0.959 . S
C549 C547 1.561 . S
C550 C547 1.526 . S
C550 C551 1.396 . S
C550 C555 1.390 . S
C551 C545 1.465 . S
C551 C550 1.396 . S
C551 C552 1.399 . S
C552 H538 0.929 . S
C552 C551 1.399 . S
C552 C553 1.385 . S
C553 H539 0.931 . S
C553 C552 1.385 . S
C553 C554 1.389 . S
C554 C553 1.389 . S
C554 C555 1.387 . S
C555 H540 0.930 . S
C555 C550 1.390 . S
C555 C554 1.387 . S
H556 C568 0.930 . S
H557 C570 0.930 . S
H558 C571 0.930 . S
H559 C575 0.959 . S
H560 C575 0.959 . S
H561 C575 0.961 . S
H562 C576 0.960 . S
H563 C576 0.961 . S
H564 C576 0.959 . S
H565 C579 0.929 . S
H566 C580 0.931 . S
H567 C582 0.930 . S
C568 H556 0.930 . S
C568 C569 1.399 . S
C568 C573 1.399 . S
C569 C568 1.399 . S
C569 C570 1.376 . S
C570 H557 0.930 . S
C570 C569 1.376 . S
C570 C571 1.388 . S
C571 H558 0.930 . S
C571 C570 1.388 . S
C571 C572 1.390 . S
C572 C571 1.390 . S
C572 C573 1.394 . S
C572 C578 1.465 . S
C573 C568 1.399 . S
C573 C572 1.394 . S
C573 C574 1.516 . S
C574 C573 1.516 . S
C574 C575 1.502 . S
C574 C576 1.561 . S
C574 C577 1.526 . S
C575 H559 0.959 . S
C575 H560 0.959 . S
C575 H561 0.961 . S
C575 C574 1.502 . S
C576 H562 0.960 . S
C576 H563 0.961 . S
C576 H564 0.959 . S
C576 C574 1.561 . S
C577 C574 1.526 . S
C577 C578 1.396 . S
C577 C582 1.390 . S
C578 C572 1.465 . S
C578 C577 1.396 . S
C578 C579 1.399 . S
C579 H565 0.929 . S
C579 C578 1.399 . S
C579 C580 1.385 . S
C580 H566 0.931 . S
C580 C579 1.385 . S
C580 C581 1.389 . S
C581 C580 1.389 . S
C581 C582 1.387 . S
C582 H567 0.930 . S
C582 C577 1.390 . S
C582 C581 1.387 . S
H583 C595 0.930 . S
H584 C597 0.930 . S
H585 C598 0.930 . S
H586 C602 0.959 . S
H587 C602 0.959 . S
H588 C602 0.961 . S
H589 C603 0.960 . S
H590 C603 0.961 . S
H591 C603 0.959 . S
H592 C606 0.929 . S
H593 C607 0.931 . S
H594 C609 0.930 . S
C595 H583 0.930 . S
C595 C596 1.399 . S
C595 C600 1.399 . S
C596 C595 1.399 . S
C596 C597 1.376 . S
C597 H584 0.930 . S
C597 C596 1.376 . S
C597 C598 1.388 . S
C598 H585 0.930 . S
C598 C597 1.388 . S
C598 C599 1.390 . S
C599 C598 1.390 . S
C599 C600 1.394 . S
C599 C605 1.465 . S
C600 C595 1.399 . S
C600 C599 1.394 . S
C600 C601 1.516 . S
C601 C600 1.516 . S
C601 C602 1.502 . S
C601 C603 1.561 . S
C601 C604 1.526 . S
C602 H586 0.959 . S
C602 H587 0.959 . S
C602 H588 0.961 . S
C602 C601 1.502 . S
C603 H589 0.960 . S
C603 H590 0.961 . S
C603 H591 0.959 . S
C603 C601 1.561 . S
C604 C601 1.526 . S
C604 C605 1.396 . S
C604 C609 1.390 . S
C605 C599 1.465 . S
C605 C604 1.396 . S
C605 C606 1.399 . S
C606 H592 0.929 . S
C606 C605 1.399 . S
C606 C607 1.385 . S
C607 H593 0.931 . S
C607 C606 1.385 . S
C607 C608 1.389 . S
C608 C607 1.389 . S
C608 C609 1.387 . S
C609 H594 0.930 . S
C609 C604 1.390 . S
C609 C608 1.387 . S
H610 C622 0.930 . S
H611 C624 0.930 . S
H612 C625 0.930 . S
H613 C629 0.959 . S
H614 C629 0.959 . S
H615 C629 0.961 . S
H616 C630 0.960 . S
H617 C630 0.961 . S
H618 C630 0.959 . S
H619 C633 0.929 . S
H620 C634 0.931 . S
H621 C636 0.930 . S
C622 H610 0.930 . S
C622 C623 1.399 . S
C622 C627 1.399 . S
C623 C622 1.399 . S
C623 C624 1.376 . S
C624 H611 0.930 . S
C624 C623 1.376 . S
C624 C625 1.388 . S
C625 H612 0.930 . S
C625 C624 1.388 . S
C625 C626 1.390 . S
C626 C625 1.390 . S
C626 C627 1.394 . S
C626 C632 1.465 . S
C627 C622 1.399 . S
C627 C626 1.394 . S
C627 C628 1.516 . S
C628 C627 1.516 . S
C628 C629 1.502 . S
C628 C630 1.561 . S
C628 C631 1.526 . S
C629 H613 0.959 . S
C629 H614 0.959 . S
C629 H615 0.961 . S
C629 C628 1.502 . S
C630 H616 0.960 . S
C630 H617 0.961 . S
C630 H618 0.959 . S
C630 C628 1.561 . S
C631 C628 1.526 . S
C631 C632 1.396 . S
C631 C636 1.390 . S
C632 C626 1.465 . S
C632 C631 1.396 . S
C632 C633 1.399 . S
C633 H619 0.929 . S
C633 C632 1.399 . S
C633 C634 1.385 . S
C634 H620 0.931 . S
C634 C633 1.385 . S
C634 C635 1.389 . S
C635 C634 1.389 . S
C635 C636 1.387 . S
C636 H621 0.930 . S
C636 C631 1.390 . S
C636 C635 1.387 . S
H637 C649 0.930 . S
H638 C651 0.930 . S
H639 C652 0.930 . S
H640 C656 0.959 . S
H641 C656 0.959 . S
H642 C656 0.961 . S
H643 C657 0.960 . S
H644 C657 0.961 . S
H645 C657 0.959 . S
H646 C660 0.929 . S
H647 C661 0.931 . S
H648 C663 0.930 . S
C649 H637 0.930 . S
C649 C650 1.399 . S
C649 C654 1.399 . S
C650 C649 1.399 . S
C650 C651 1.376 . S
C651 H638 0.930 . S
C651 C650 1.376 . S
C651 C652 1.388 . S
C652 H639 0.930 . S
C652 C651 1.388 . S
C652 C653 1.390 . S
C653 C652 1.390 . S
C653 C654 1.394 . S
C653 C659 1.465 . S
C654 C649 1.399 . S
C654 C653 1.394 . S
C654 C655 1.516 . S
C655 C654 1.516 . S
C655 C656 1.502 . S
C655 C657 1.561 . S
C655 C658 1.526 . S
C656 H640 0.959 . S
C656 H641 0.959 . S
C656 H642 0.961 . S
C656 C655 1.502 . S
C657 H643 0.960 . S
C657 H644 0.961 . S
C657 H645 0.959 . S
C657 C655 1.561 . S
C658 C655 1.526 . S
C658 C659 1.396 . S
C658 C663 1.390 . S
C659 C653 1.465 . S
C659 C658 1.396 . S
C659 C660 1.399 . S
C660 H646 0.929 . S
C660 C659 1.399 . S
C660 C661 1.385 . S
C661 H647 0.931 . S
C661 C660 1.385 . S
C661 C662 1.389 . S
C662 C661 1.389 . S
C662 C663 1.387 . S
C663 H648 0.930 . S
C663 C658 1.390 . S
C663 C662 1.387 . S
H664 C676 0.930 . S
H665 C678 0.930 . S
H666 C679 0.930 . S
H667 C683 0.959 . S
H668 C683 0.959 . S
H669 C683 0.961 . S
H670 C684 0.960 . S
H671 C684 0.961 . S
H672 C684 0.959 1_554 S
H673 C687 0.929 . S
H674 C688 0.931 . S
H675 C690 0.929 1_556 S
C676 H664 0.930 . S
C676 C677 1.399 . S
C676 C681 1.399 . S
C677 C676 1.399 . S
C677 C678 1.376 . S
C678 H665 0.930 . S
C678 C677 1.376 . S
C678 C679 1.388 . S
C679 H666 0.930 . S
C679 C678 1.388 . S
C679 C680 1.390 . S
C680 C679 1.390 . S
C680 C681 1.394 . S
C680 C686 1.465 . S
C681 C676 1.399 . S
C681 C680 1.394 . S
C681 C682 1.516 . S
C682 C681 1.516 . S
C682 C683 1.502 . S
C682 C684 1.561 . S
C682 C685 1.526 . S
C683 H667 0.959 . S
C683 H668 0.959 . S
C683 H669 0.961 . S
C683 C682 1.502 . S
C684 H670 0.960 . S
C684 H671 0.961 . S
C684 H672 0.959 1_556 S
C684 C682 1.561 . S
C685 C682 1.526 . S
C685 C686 1.396 . S
C685 C690 1.385 1_556 S
C686 C680 1.465 . S
C686 C685 1.396 . S
C686 C687 1.399 1_556 S
C687 H673 0.929 . S
C687 C686 1.399 1_554 S
C687 C688 1.385 . S
C688 H674 0.931 . S
C688 C687 1.385 . S
C688 C689 1.389 . S
C689 C688 1.389 . S
C689 C690 1.392 . S
C690 H675 0.929 1_554 S
C690 C685 1.385 1_554 S
C690 C689 1.392 . S
H691 C703 0.930 . S
H692 C705 0.930 . S
H693 C706 0.930 . S
H694 C710 0.959 . S
H695 C710 0.959 . S
H696 C710 0.961 . S
H697 C711 0.960 . S
H698 C711 0.961 . S
H699 C711 0.959 . S
H700 C714 0.929 . S
H701 C715 0.931 . S
H702 C717 0.930 . S
C703 H691 0.930 . S
C703 C704 1.399 . S
C703 C708 1.399 . S
C704 C703 1.399 . S
C704 C705 1.376 . S
C705 H692 0.930 . S
C705 C704 1.376 . S
C705 C706 1.388 . S
C706 H693 0.930 . S
C706 C705 1.388 . S
C706 C707 1.390 . S
C707 C706 1.390 . S
C707 C708 1.394 . S
C707 C713 1.465 . S
C708 C703 1.399 . S
C708 C707 1.394 . S
C708 C709 1.516 . S
C709 C708 1.516 . S
C709 C710 1.502 . S
C709 C711 1.561 . S
C709 C712 1.526 . S
C710 H694 0.959 . S
C710 H695 0.959 . S
C710 H696 0.961 . S
C710 C709 1.502 . S
C711 H697 0.960 . S
C711 H698 0.961 . S
C711 H699 0.959 . S
C711 C709 1.561 . S
C712 C709 1.526 . S
C712 C713 1.396 . S
C712 C717 1.390 . S
C713 C707 1.465 . S
C713 C712 1.396 . S
C713 C714 1.399 . S
C714 H700 0.929 . S
C714 C713 1.399 . S
C714 C715 1.385 . S
C715 H701 0.931 . S
C715 C714 1.385 . S
C715 C716 1.389 . S
C716 C715 1.389 . S
C716 C717 1.387 . S
C717 H702 0.930 . S
C717 C712 1.390 . S
C717 C716 1.387 . S
H718 C730 0.930 . S
H719 C732 0.930 . S
H720 C733 0.930 . S
H721 C737 0.959 . S
H722 C737 0.959 . S
H723 C737 0.961 . S
H724 C738 0.960 . S
H725 C738 0.961 . S
H726 C738 0.959 . S
H727 C741 0.929 . S
H728 C742 0.931 . S
H729 C744 0.930 . S
C730 H718 0.930 . S
C730 C731 1.399 . S
C730 C735 1.399 . S
C731 C730 1.399 . S
C731 C732 1.376 . S
C732 H719 0.930 . S
C732 C731 1.376 . S
C732 C733 1.388 . S
C733 H720 0.930 . S
C733 C732 1.388 . S
C733 C734 1.390 . S
C734 C733 1.390 . S
C734 C735 1.394 . S
C734 C740 1.465 . S
C735 C730 1.399 . S
C735 C734 1.394 . S
C735 C736 1.516 . S
C736 C735 1.516 . S
C736 C737 1.502 . S
C736 C738 1.561 . S
C736 C739 1.526 . S
C737 H721 0.959 . S
C737 H722 0.959 . S
C737 H723 0.961 . S
C737 C736 1.502 . S
C738 H724 0.960 . S
C738 H725 0.961 . S
C738 H726 0.959 . S
C738 C736 1.561 . S
C739 C736 1.526 . S
C739 C740 1.396 . S
C739 C744 1.390 . S
C740 C734 1.465 . S
C740 C739 1.396 . S
C740 C741 1.399 . S
C741 H727 0.929 . S
C741 C740 1.399 . S
C741 C742 1.385 . S
C742 H728 0.931 . S
C742 C741 1.385 . S
C742 C743 1.389 . S
C743 C742 1.389 . S
C743 C744 1.387 . S
C744 H729 0.930 . S
C744 C739 1.390 . S
C744 C743 1.387 . S
H745 C757 0.930 . S
H746 C759 0.930 . S
H747 C760 0.930 . S
H748 C764 0.959 . S
H749 C764 0.959 . S
H750 C764 0.961 . S
H751 C765 0.960 . S
H752 C765 0.961 . S
H753 C765 0.959 . S
H754 C768 0.929 . S
H755 C769 0.931 . S
H756 C771 0.930 . S
C757 H745 0.930 . S
C757 C758 1.399 . S
C757 C762 1.399 . S
C758 C757 1.399 . S
C758 C759 1.376 . S
C759 H746 0.930 . S
C759 C758 1.376 . S
C759 C760 1.388 . S
C760 H747 0.930 . S
C760 C759 1.388 . S
C760 C761 1.390 . S
C761 C760 1.390 . S
C761 C762 1.394 . S
C761 C767 1.465 . S
C762 C757 1.399 . S
C762 C761 1.394 . S
C762 C763 1.516 . S
C763 C762 1.516 . S
C763 C764 1.502 . S
C763 C765 1.561 . S
C763 C766 1.526 . S
C764 H748 0.959 . S
C764 H749 0.959 . S
C764 H750 0.961 . S
C764 C763 1.502 . S
C765 H751 0.960 . S
C765 H752 0.961 . S
C765 H753 0.959 . S
C765 C763 1.561 . S
C766 C763 1.526 . S
C766 C767 1.396 . S
C766 C771 1.390 . S
C767 C761 1.465 . S
C767 C766 1.396 . S
C767 C768 1.399 . S
C768 H754 0.929 . S
C768 C767 1.399 . S
C768 C769 1.385 . S
C769 H755 0.931 . S
C769 C768 1.385 . S
C769 C770 1.389 . S
C770 C769 1.389 . S
C770 C771 1.387 . S
C771 H756 0.930 . S
C771 C766 1.390 . S
C771 C770 1.387 . S
H772 C784 0.930 . S
H773 C786 0.930 . S
H774 C787 0.930 . S
H775 C791 0.959 . S
H776 C791 0.959 . S
H777 C791 0.961 . S
H778 C792 0.960 . S
H779 C792 0.961 . S
H780 C792 0.959 . S
H781 C795 0.929 . S
H782 C796 0.931 . S
H783 C798 0.930 . S
C784 H772 0.930 . S
C784 C785 1.399 . S
C784 C789 1.399 . S
C785 C784 1.399 . S
C785 C786 1.376 . S
C786 H773 0.930 . S
C786 C785 1.376 . S
C786 C787 1.388 . S
C787 H774 0.930 . S
C787 C786 1.388 . S
C787 C788 1.390 . S
C788 C787 1.390 . S
C788 C789 1.394 . S
C788 C794 1.465 . S
C789 C784 1.399 . S
C789 C788 1.394 . S
C789 C790 1.516 . S
C790 C789 1.516 . S
C790 C791 1.502 . S
C790 C792 1.561 . S
C790 C793 1.526 . S
C791 H775 0.959 . S
C791 H776 0.959 . S
C791 H777 0.961 . S
C791 C790 1.502 . S
C792 H778 0.960 . S
C792 H779 0.961 . S
C792 H780 0.959 . S
C792 C790 1.561 . S
C793 C790 1.526 . S
C793 C794 1.396 . S
C793 C798 1.390 . S
C794 C788 1.465 . S
C794 C793 1.396 . S
C794 C795 1.399 . S
C795 H781 0.929 . S
C795 C794 1.399 . S
C795 C796 1.385 . S
C796 H782 0.931 . S
C796 C795 1.385 . S
C796 C797 1.389 . S
C797 C796 1.389 . S
C797 C798 1.387 . S
C798 H783 0.930 . S
C798 C793 1.390 . S
C798 C797 1.387 . S
H799 C811 0.930 . S
H800 C813 0.930 . S
H801 C814 0.930 . S
H802 C818 0.959 . S
H803 C818 0.959 . S
H804 C818 0.961 . S
H805 C819 0.960 . S
H806 C819 0.961 . S
H807 C819 0.959 . S
H808 C822 0.929 . S
H809 C823 0.931 . S
H810 C825 0.930 . S
C811 H799 0.930 . S
C811 C812 1.399 . S
C811 C816 1.399 . S
C812 C811 1.399 . S
C812 C813 1.376 . S
C813 H800 0.930 . S
C813 C812 1.376 . S
C813 C814 1.388 . S
C814 H801 0.930 . S
C814 C813 1.388 . S
C814 C815 1.390 . S
C815 C814 1.390 . S
C815 C816 1.394 . S
C815 C821 1.465 . S
C816 C811 1.399 . S
C816 C815 1.394 . S
C816 C817 1.516 . S
C817 C816 1.516 . S
C817 C818 1.502 . S
C817 C819 1.561 . S
C817 C820 1.526 . S
C818 H802 0.959 . S
C818 H803 0.959 . S
C818 H804 0.961 . S
C818 C817 1.502 . S
C819 H805 0.960 . S
C819 H806 0.961 . S
C819 H807 0.959 . S
C819 C817 1.561 . S
C820 C817 1.526 . S
C820 C821 1.396 . S
C820 C825 1.390 . S
C821 C815 1.465 . S
C821 C820 1.396 . S
C821 C822 1.399 . S
C822 H808 0.929 . S
C822 C821 1.399 . S
C822 C823 1.385 . S
C823 H809 0.931 . S
C823 C822 1.385 . S
C823 C824 1.389 . S
C824 C823 1.389 . S
C824 C825 1.387 . S
C825 H810 0.930 . S
C825 C820 1.390 . S
C825 C824 1.387 . S
H826 C838 0.930 . S
H827 C840 0.930 . S
H828 C841 0.930 . S
H829 C845 0.959 . S
H830 C845 0.959 . S
H831 C845 0.961 . S
H832 C846 0.960 . S
H833 C846 0.961 . S
H834 C846 0.959 . S
H835 C849 0.929 . S
H836 C850 0.931 . S
H837 C852 0.930 . S
C838 H826 0.930 . S
C838 C839 1.399 . S
C838 C843 1.399 . S
C839 C838 1.399 . S
C839 C840 1.376 . S
C840 H827 0.930 . S
C840 C839 1.376 . S
C840 C841 1.388 . S
C841 H828 0.930 . S
C841 C840 1.388 . S
C841 C842 1.390 . S
C842 C841 1.390 . S
C842 C843 1.394 . S
C842 C848 1.465 . S
C843 C838 1.399 . S
C843 C842 1.394 . S
C843 C844 1.516 . S
C844 C843 1.516 . S
C844 C845 1.502 . S
C844 C846 1.561 . S
C844 C847 1.526 . S
C845 H829 0.959 . S
C845 H830 0.959 . S
C845 H831 0.961 . S
C845 C844 1.502 . S
C846 H832 0.960 . S
C846 H833 0.961 . S
C846 H834 0.959 . S
C846 C844 1.561 . S
C847 C844 1.526 . S
C847 C848 1.396 . S
C847 C852 1.390 . S
C848 C842 1.465 . S
C848 C847 1.396 . S
C848 C849 1.399 . S
C849 H835 0.929 . S
C849 C848 1.399 . S
C849 C850 1.385 . S
C850 H836 0.931 . S
C850 C849 1.385 . S
C850 C851 1.389 . S
C851 C850 1.389 . S
C851 C852 1.387 . S
C852 H837 0.930 . S
C852 C847 1.390 . S
C852 C851 1.387 . S
H853 C865 0.930 . S
H854 C867 0.930 . S
H855 C868 0.930 . S
H856 C872 0.959 . S
H857 C872 0.959 . S
H858 C872 0.961 . S
H859 C873 0.960 . S
H860 C873 0.961 . S
H861 C873 0.959 . S
H862 C876 0.929 . S
H863 C877 0.931 . S
H864 C879 0.930 . S
C865 H853 0.930 . S
C865 C866 1.399 . S
C865 C870 1.399 . S
C866 C865 1.399 . S
C866 C867 1.376 . S
C867 H854 0.930 . S
C867 C866 1.376 . S
C867 C868 1.388 . S
C868 H855 0.930 . S
C868 C867 1.388 . S
C868 C869 1.390 . S
C869 C868 1.390 . S
C869 C870 1.394 . S
C869 C875 1.465 . S
C870 C865 1.399 . S
C870 C869 1.394 . S
C870 C871 1.516 . S
C871 C870 1.516 . S
C871 C872 1.502 . S
C871 C873 1.561 . S
C871 C874 1.526 . S
C872 H856 0.959 . S
C872 H857 0.959 . S
C872 H858 0.961 . S
C872 C871 1.502 . S
C873 H859 0.960 . S
C873 H860 0.961 . S
C873 H861 0.959 . S
C873 C871 1.561 . S
C874 C871 1.526 . S
C874 C875 1.396 . S
C874 C879 1.390 . S
C875 C869 1.465 . S
C875 C874 1.396 . S
C875 C876 1.399 . S
C876 H862 0.929 . S
C876 C875 1.399 . S
C876 C877 1.385 . S
C877 H863 0.931 . S
C877 C876 1.385 . S
C877 C878 1.389 . S
C878 C877 1.389 . S
C878 C879 1.387 . S
C879 H864 0.930 . S
C879 C874 1.390 . S
C879 C878 1.387 . S
C245 C6 1.615 . S
C257 C154 1.620 . S
C272 C21 1.783 . S
C284 C173 1.787 . S
C311 C210 1.168 . S
C299 C49 1.155 . S
C326 C68 1.398 . S
C338 C220 1.392 . S
C365 C190 2.574 . S
C353 C2 2.537 . S
C392 C160 1.182 . S
C380 C30 1.065 . S
C419 C231 1.433 . S
C407 C40 1.441 . S
C446 C201 1.222 . S
C434 C63 1.228 . S
C461 C11 1.498 . S
C473 C214 1.683 . S
C500 C181 1.851 . S
C488 C44 1.932 . S
C515 C59 1.463 . S
C527 C171 1.460 . S
C542 C25 1.439 . S
C554 C193 1.398 . S
C581 C153 1.813 . S
C569 C82 1.823 . S
C596 C101 1.615 . S
C608 C174 1.529 . S
C623 C125 1.467 . S
C635 C211 1.594 . S
C650 C144 1.143 . S
C662 C221 1.241 . S
C677 C87 1.592 . S
C689 C191 1.670 . S
C716 C161 2.132 . S
C704 C97 2.173 . S
C743 C230 1.257 . S
C731 C120 1.308 . S
C770 C200 1.275 . S
C758 C135 1.285 . S
C785 C78 1.951 . S
C797 C213 2.000 . S
C824 C180 1.386 . S
C812 C116 1.359 . S
C851 C170 1.977 . S
C839 C139 1.970 . S
C866 C106 1.125 . S
C878 C194 1.330 . S
