# Generated by pormake.
# Topology anh, (6,3)-cn, num edge types: 1
# Building blocks:
#     Node 0, Type 0, BuildingBlock: MIFKUJ_clean_sbu_0, # of connection points: 6
#     Node 1, Type 0, BuildingBlock: MIFKUJ_clean_sbu_0, # of connection points: 6
#     Node 2, Type 0, BuildingBlock: MIFKUJ_clean_sbu_0, # of connection points: 6
#     Node 3, Type 1, BuildingBlock: BETDIP_clean_linker_0, # of connection points: 3
#     Node 4, Type 1, BuildingBlock: BETDIP_clean_linker_0, # of connection points: 3
#     Node 5, Type 1, BuildingBlock: BETDIP_clean_linker_0, # of connection points: 3
#     Node 6, Type 1, BuildingBlock: BETDIP_clean_linker_0, # of connection points: 3
#     Node 7, Type 1, BuildingBlock: BETDIP_clean_linker_0, # of connection points: 3
#     Node 8, Type 1, BuildingBlock: BETDIP_clean_linker_0, # of connection points: 3
#     Edge 9, Type (0, 1), BuildingBlock: TEMPAE_clean_linker_10, # of connection points: 2
#     Edge 10, Type (0, 1), BuildingBlock: TEMPAE_clean_linker_10, # of connection points: 2
#     Edge 11, Type (0, 1), BuildingBlock: TEMPAE_clean_linker_10, # of connection points: 2
#     Edge 12, Type (0, 1), BuildingBlock: TEMPAE_clean_linker_10, # of connection points: 2
#     Edge 13, Type (0, 1), BuildingBlock: TEMPAE_clean_linker_10, # of connection points: 2
#     Edge 14, Type (0, 1), BuildingBlock: TEMPAE_clean_linker_10, # of connection points: 2
#     Edge 15, Type (0, 1), BuildingBlock: TEMPAE_clean_linker_10, # of connection points: 2
#     Edge 16, Type (0, 1), BuildingBlock: TEMPAE_clean_linker_10, # of connection points: 2
#     Edge 17, Type (0, 1), BuildingBlock: TEMPAE_clean_linker_10, # of connection points: 2
#     Edge 18, Type (0, 1), BuildingBlock: TEMPAE_clean_linker_10, # of connection points: 2
#     Edge 19, Type (0, 1), BuildingBlock: TEMPAE_clean_linker_10, # of connection points: 2
#     Edge 20, Type (0, 1), BuildingBlock: TEMPAE_clean_linker_10, # of connection points: 2
#     Edge 21, Type (0, 1), BuildingBlock: TEMPAE_clean_linker_10, # of connection points: 2
#     Edge 22, Type (0, 1), BuildingBlock: TEMPAE_clean_linker_10, # of connection points: 2
#     Edge 23, Type (0, 1), BuildingBlock: TEMPAE_clean_linker_10, # of connection points: 2
#     Edge 24, Type (0, 1), BuildingBlock: TEMPAE_clean_linker_10, # of connection points: 2
#     Edge 25, Type (0, 1), BuildingBlock: TEMPAE_clean_linker_10, # of connection points: 2
#     Edge 26, Type (0, 1), BuildingBlock: TEMPAE_clean_linker_10, # of connection points: 2
# Relax obj value: 0.084
# Max RMSD: 0.184
# Mean RMSD: 0.117
data_MOF--net-anh--node1-MIFKUJ_clean_sbu_0--node2-BETDIP_clean_linker_0--edge1-TEMPAE_clean_linker_10
_symmetry_space_group_name_H-M    P1
_symmetry_Int_Tables_number       1
_symmetry_cell_setting            triclinic
loop_
_symmetry_equiv_pos_as_xyz
'x, y, z'
_cell_length_a     32.101331
_cell_length_b     32.118669
_cell_length_c     47.48503
_cell_angle_alpha  97.69443
_cell_angle_beta   90.865575
_cell_angle_gamma 119.6596
loop_
_atom_site_label
_atom_site_type_symbol
_atom_site_fract_x
_atom_site_fract_y
_atom_site_fract_z
_atom_type_partial_charge
Zn0 Zn 0.07987 0.60387 0.16842 0.0
Zn1 Zn 0.95383 0.50304 0.15882 0.0
C2 C 0.15707 0.58914 0.17653 0.0
O3 O 0.16 0.61805 0.1998 0.0
C4 C 0.8826 0.52422 0.13624 0.0
O5 O 0.88445 0.49917 0.11252 0.0
O6 O 0.12578 0.67472 0.17179 0.0
O7 O 0.02879 0.5901 0.13784 0.0
O8 O 0.99281 0.51159 0.12485 0.0
C9 C 0.14088 0.69129 0.14889 0.0
O10 O 0.12371 0.66198 0.1243 0.0
O11 O 0.12173 0.57406 0.15776 0.0
C12 C 0.90752 0.40317 0.16886 0.0
O13 O 0.94594 0.41777 0.18639 0.0
O14 O 0.90542 0.4328 0.15452 0.0
O15 O 0.98554 0.52282 0.19908 0.0
O16 O 0.05837 0.58848 0.20692 0.0
O17 O 0.9117 0.53367 0.15778 0.0
C18 C 0.01793 0.55386 0.11888 0.0
C19 C 0.02202 0.55444 0.21587 0.0
Zn20 Zn 0.53458 0.0996 0.50302 0.0
Zn21 Zn 0.48411 0.95164 0.50115 0.0
C22 C 0.62421 0.17772 0.52278 0.0
O23 O 0.59561 0.18374 0.5403 0.0
C24 C 0.3826 0.90769 0.50367 0.0
O25 O 0.3875 0.93736 0.48579 0.0
O26 O 0.51247 0.1448 0.49322 0.0
O27 O 0.50642 0.03845 0.47188 0.0
O28 O 0.47723 0.95933 0.46008 0.0
C29 C 0.53306 0.16885 0.47349 0.0
O30 O 0.56221 0.15843 0.45903 0.0
O31 O 0.60647 0.13945 0.50416 0.0
C32 C 0.50365 0.87711 0.4944 0.0
O33 O 0.4589 0.85637 0.48315 0.0
O34 O 0.52566 0.92215 0.50454 0.0
O35 O 0.50898 0.01747 0.52129 0.0
O36 O 0.51999 0.08514 0.5435 0.0
O37 O 0.41971 0.90842 0.51392 0.0
C38 C 0.489 0.00041 0.45288 0.0
C39 C 0.50971 0.042 0.5445 0.0
Zn40 Zn 0.56107 0.47882 0.83114 0.0
Zn41 Zn 0.46527 0.51596 0.82725 0.0
C42 C 0.55347 0.39369 0.84954 0.0
O43 O 0.58449 0.42679 0.87019 0.0
C44 C 0.52143 0.61984 0.82673 0.0
O45 O 0.53601 0.60596 0.80351 0.0
O46 O 0.63255 0.50973 0.8344 0.0
O47 O 0.54438 0.4889 0.7927 0.0
O48 O 0.48596 0.50609 0.78862 0.0
C49 C 0.6529 0.49859 0.81444 0.0
O50 O 0.62631 0.46711 0.79189 0.0
O51 O 0.53619 0.40701 0.83061 0.0
C52 C 0.37499 0.50096 0.84205 0.0
O53 O 0.3946 0.5049 0.86745 0.0
O54 O 0.39715 0.49955 0.82036 0.0
O55 O 0.46806 0.47793 0.85718 0.0
O56 O 0.5458 0.50768 0.86704 0.0
O57 O 0.49606 0.58834 0.84211 0.0
C58 C 0.51739 0.49764 0.77773 0.0
C59 C 0.50474 0.49707 0.8752 0.0
H60 H 0.47089 0.04616 0.16476 0.0
H61 H 0.53908 0.10295 0.25055 0.0
H62 H 0.40141 0.97161 0.23362 0.0
H63 H 0.56982 0.17601 0.23097 0.0
C64 C 0.58149 0.16236 0.21237 0.0
C65 C 0.4704 0.04405 0.18736 0.0
C66 C 0.43119 0.00601 0.19733 0.0
C67 C 0.50898 0.07957 0.20654 0.0
C68 C 0.50877 0.07602 0.23577 0.0
C69 C 0.4702 0.03706 0.24589 0.0
C70 C 0.4312 0.00247 0.22643 0.0
N71 N 0.54905 0.11674 0.19575 0.0
H72 H 0.62002 0.54612 0.49504 0.0
H73 H 0.60421 0.61075 0.57676 0.0
H74 H 0.58294 0.46659 0.56532 0.0
H75 H 0.65819 0.68054 0.56137 0.0
C76 C 0.64228 0.67266 0.53958 0.0
C77 C 0.61302 0.54425 0.51723 0.0
C78 C 0.60155 0.50192 0.52831 0.0
C79 C 0.61602 0.58447 0.53485 0.0
C80 C 0.60507 0.58116 0.56341 0.0
C81 C 0.59267 0.53855 0.5745 0.0
C82 C 0.59195 0.49954 0.5569 0.0
N83 N 0.627 0.62659 0.52289 0.0
H84 H 0.02855 0.60527 0.83208 0.0
H85 H 0.11189 0.61299 0.90628 0.0
H86 H 0.96483 0.5786 0.91127 0.0
H87 H 0.17608 0.67505 0.88011 0.0
C88 C 0.16267 0.64524 0.86229 0.0
C89 C 0.03157 0.60354 0.85461 0.0
C90 C 0.99141 0.59013 0.87017 0.0
C91 C 0.07542 0.61326 0.86773 0.0
C92 C 0.07883 0.60841 0.89662 0.0
C93 C 0.03877 0.59492 0.91253 0.0
C94 C 0.99565 0.58723 0.89917 0.0
N95 N 0.11416 0.62317 0.85072 0.0
H96 H 0.04203 0.57247 0.51105 0.0
H97 H 0.95999 0.49545 0.42985 0.0
H98 H 0.09925 0.62187 0.43294 0.0
H99 H 0.89893 0.48864 0.45897 0.0
C100 C 0.90909 0.47469 0.47585 0.0
C101 C 0.03852 0.56836 0.48796 0.0
C102 C 0.07604 0.60112 0.47377 0.0
C103 C 0.99612 0.53055 0.47231 0.0
C104 C 0.99199 0.52508 0.44229 0.0
C105 C 0.02895 0.55822 0.42814 0.0
C106 C 0.07075 0.59604 0.44394 0.0
N107 N 0.95813 0.49813 0.48696 0.0
H108 H 0.51694 0.03434 0.83258 0.0
H109 H 0.49866 0.94239 0.75297 0.0
H110 H 0.52328 0.08636 0.75289 0.0
H111 H 0.44624 0.88469 0.78116 0.0
C112 C 0.47352 0.89634 0.79886 0.0
C113 C 0.51506 0.02858 0.80948 0.0
C114 C 0.52144 0.06601 0.79449 0.0
C115 C 0.50617 0.98357 0.79466 0.0
C116 C 0.50407 0.97634 0.76461 0.0
C117 C 0.51087 0.01352 0.74948 0.0
C118 C 0.5194 0.05804 0.76458 0.0
N119 N 0.5014 0.94669 0.81021 0.0
H120 H 0.4757 0.55294 0.16999 0.0
H121 H 0.53966 0.52539 0.09608 0.0
H122 H 0.4165 0.54323 0.08574 0.0
H123 H 0.53196 0.46505 0.13708 0.0
C124 C 0.55994 0.50142 0.14656 0.0
C125 C 0.4762 0.54739 0.14702 0.0
C126 C 0.44164 0.54898 0.12921 0.0
C127 C 0.5113 0.53829 0.13501 0.0
C128 C 0.51184 0.53116 0.10524 0.0
C129 C 0.47825 0.53363 0.08736 0.0
C130 C 0.44329 0.54246 0.09951 0.0
N131 N 0.54731 0.53812 0.1527 0.0
C132 C 0.196 0.54911 0.14689 0.0
C133 C 0.19675 0.57845 0.1718 0.0
C134 C 0.23541 0.54216 0.14171 0.0
C135 C 0.27665 0.56543 0.16179 0.0
C136 C 0.27697 0.59393 0.18731 0.0
C137 C 0.23706 0.5999 0.19204 0.0
C138 C 0.23347 0.51103 0.11437 0.0
C139 C 0.32023 0.61966 0.20919 0.0
C140 C 0.36932 0.52375 0.15686 0.0
C141 C 0.40279 0.55651 0.14081 0.0
C142 C 0.32812 0.52626 0.16404 0.0
C143 C 0.32074 0.56281 0.15527 0.0
C144 C 0.35558 0.59712 0.14003 0.0
C145 C 0.39593 0.59331 0.13282 0.0
C146 C 0.2917 0.48885 0.18014 0.0
C147 C 0.34973 0.63726 0.13077 0.0
H148 H 0.16501 0.53225 0.13119 0.0
H149 H 0.23809 0.62257 0.21143 0.0
H150 H 0.26086 0.53387 0.10081 0.0
H151 H 0.24222 0.48316 0.1191 0.0
H152 H 0.19756 0.49249 0.10201 0.0
H153 H 0.31368 0.63806 0.2287 0.0
H154 H 0.33033 0.59354 0.21545 0.0
H155 H 0.35149 0.64728 0.1998 0.0
H156 H 0.37431 0.4949 0.1627 0.0
H157 H 0.42186 0.61862 0.12039 0.0
H158 H 0.25689 0.46699 0.16669 0.0
H159 H 0.28503 0.50695 0.19969 0.0
H160 H 0.30357 0.46393 0.18635 0.0
H161 H 0.31681 0.62143 0.11577 0.0
H162 H 0.38103 0.66214 0.12009 0.0
H163 H 0.34519 0.65883 0.14949 0.0
C164 C 0.70289 0.2142 0.5013 0.0
C165 C 0.67305 0.21876 0.52125 0.0
C166 C 0.7457 0.25501 0.49642 0.0
C167 C 0.75862 0.30137 0.51168 0.0
C168 C 0.73018 0.30569 0.53308 0.0
C169 C 0.68788 0.26426 0.53774 0.0
C170 C 0.77541 0.24888 0.47364 0.0
C171 C 0.74272 0.35452 0.54975 0.0
C172 C 0.88194 0.41034 0.5072 0.0
C173 C 0.87138 0.43095 0.48591 0.0
C174 C 0.84566 0.36785 0.51581 0.0
C175 C 0.79801 0.34582 0.5028 0.0
C176 C 0.78735 0.3667 0.48134 0.0
C177 C 0.8242 0.409 0.47318 0.0
C178 C 0.85826 0.34641 0.53867 0.0
C179 C 0.73701 0.34422 0.46684 0.0
H180 H 0.69184 0.17909 0.48865 0.0
H181 H 0.6652 0.2681 0.55334 0.0
H182 H 0.77088 0.26365 0.45473 0.0
H183 H 0.81422 0.26946 0.48139 0.0
H184 H 0.76457 0.21015 0.46677 0.0
H185 H 0.71776 0.35147 0.56634 0.0
H186 H 0.77997 0.37306 0.56021 0.0
H187 H 0.74139 0.37796 0.535 0.0
H188 H 0.91847 0.42716 0.51703 0.0
H189 H 0.81614 0.42487 0.45663 0.0
H190 H 0.8485 0.30842 0.53036 0.0
H191 H 0.83719 0.34531 0.55713 0.0
H192 H 0.89718 0.36745 0.54629 0.0
H193 H 0.72596 0.30768 0.45485 0.0
H194 H 0.7342 0.36655 0.45178 0.0
H195 H 0.71109 0.3394 0.48299 0.0
C196 C 0.4953 0.67755 0.84932 0.0
C197 C 0.52424 0.66792 0.83073 0.0
C198 C 0.48988 0.71832 0.84871 0.0
C199 C 0.5141 0.75028 0.82915 0.0
C200 C 0.54609 0.74265 0.8119 0.0
C201 C 0.55081 0.70167 0.81294 0.0
C202 C 0.45604 0.72563 0.86776 0.0
C203 C 0.57265 0.77573 0.79074 0.0
C204 C 0.45432 0.81084 0.79577 0.0
C205 C 0.48224 0.85931 0.80897 0.0
C206 C 0.46339 0.77488 0.80289 0.0
C207 C 0.50141 0.78763 0.82385 0.0
C208 C 0.52871 0.8363 0.83806 0.0
C209 C 0.51891 0.8717 0.83037 0.0
C210 C 0.43317 0.72344 0.78727 0.0
C211 C 0.56914 0.85122 0.86072 0.0
H212 H 0.47471 0.65183 0.86323 0.0
H213 H 0.57355 0.69482 0.79865 0.0
H214 H 0.47507 0.76257 0.8806 0.0
H215 H 0.42569 0.72286 0.85455 0.0
H216 H 0.4411 0.69852 0.88245 0.0
H217 H 0.59997 0.768 0.78118 0.0
H218 H 0.54653 0.771 0.77329 0.0
H219 H 0.59087 0.81429 0.80113 0.0
H220 H 0.42587 0.80117 0.77928 0.0
H221 H 0.54056 0.90912 0.84073 0.0
H222 H 0.41697 0.69796 0.80273 0.0
H223 H 0.45629 0.71265 0.77484 0.0
H224 H 0.40376 0.71914 0.77239 0.0
H225 H 0.55669 0.82642 0.87676 0.0
H226 H 0.58348 0.88905 0.87184 0.0
H227 H 0.59897 0.84849 0.85083 0.0
C228 C 0.82798 0.54179 0.16656 0.0
C229 C 0.84156 0.5332 0.13937 0.0
C230 C 0.78474 0.54233 0.16981 0.0
C231 C 0.75466 0.53487 0.1453 0.0
C232 C 0.76977 0.52934 0.11784 0.0
C233 C 0.81276 0.52816 0.11521 0.0
C234 C 0.76989 0.54789 0.19946 0.0
C235 C 0.7393 0.52221 0.09114 0.0
C236 C 0.6189 0.4728 0.14755 0.0
C237 C 0.61042 0.5118 0.1493 0.0
C238 C 0.66577 0.48013 0.14726 0.0
C239 C 0.70529 0.52769 0.14815 0.0
C240 C 0.69706 0.56747 0.15051 0.0
C241 C 0.64966 0.5591 0.15127 0.0
C242 C 0.67281 0.43671 0.14525 0.0
C243 C 0.73809 0.6186 0.15115 0.0
H244 H 0.84986 0.54557 0.18539 0.0
H245 H 0.82312 0.52188 0.09413 0.0
H246 H 0.75836 0.57542 0.20206 0.0
H247 H 0.73862 0.51291 0.2028 0.0
H248 H 0.7994 0.55862 0.21627 0.0
H249 H 0.75853 0.52405 0.07168 0.0
H250 H 0.70595 0.48622 0.08862 0.0
H251 H 0.72832 0.55015 0.09279 0.0
H252 H 0.58857 0.43622 0.146 0.0
H253 H 0.64325 0.58935 0.15233 0.0
H254 H 0.69957 0.44261 0.16264 0.0
H255 H 0.68718 0.43194 0.12472 0.0
H256 H 0.63875 0.40263 0.14661 0.0
H257 H 0.76672 0.62766 0.16814 0.0
H258 H 0.7262 0.64585 0.15485 0.0
H259 H 0.75438 0.62149 0.13054 0.0
C260 C 0.29602 0.85241 0.48705 0.0
C261 C 0.3345 0.86797 0.5077 0.0
C262 C 0.25258 0.80929 0.4875 0.0
C263 C 0.24721 0.78174 0.50952 0.0
C264 C 0.28457 0.79942 0.53174 0.0
C265 C 0.32812 0.84216 0.53039 0.0
C266 C 0.21381 0.79146 0.46319 0.0
C267 C 0.27976 0.7718 0.55596 0.0
C268 C 0.11879 0.67921 0.50777 0.0
C269 C 0.12057 0.64234 0.48937 0.0
C270 C 0.16083 0.72416 0.51669 0.0
C271 C 0.20516 0.73188 0.50687 0.0
C272 C 0.20755 0.69302 0.49049 0.0
C273 C 0.1651 0.64871 0.48187 0.0
C274 C 0.15706 0.76449 0.53455 0.0
C275 C 0.25416 0.69949 0.4798 0.0
H276 H 0.30082 0.87223 0.46947 0.0
H277 H 0.35773 0.8545 0.5466 0.0
H278 H 0.20978 0.75801 0.45024 0.0
H279 H 0.17867 0.78203 0.47155 0.0
H280 H 0.22215 0.81885 0.44895 0.0
H281 H 0.30767 0.79462 0.57403 0.0
H282 H 0.24366 0.75809 0.56389 0.0
H283 H 0.2837 0.73989 0.54823 0.0
H284 H 0.08419 0.6742 0.51344 0.0
H285 H 0.16625 0.6199 0.46772 0.0
H286 H 0.15827 0.79026 0.52073 0.0
H287 H 0.18781 0.78514 0.55126 0.0
H288 H 0.12291 0.75043 0.54492 0.0
H289 H 0.26473 0.72339 0.46327 0.0
H290 H 0.25096 0.66437 0.4703 0.0
H291 H 0.28355 0.71727 0.49739 0.0
C292 C 0.56648 0.32955 0.86598 0.0
C293 C 0.54354 0.34283 0.84652 0.0
C294 C 0.56197 0.28326 0.8616 0.0
C295 C 0.53384 0.24934 0.83717 0.0
C296 C 0.50866 0.26168 0.81824 0.0
C297 C 0.51381 0.30821 0.82313 0.0
C298 C 0.58922 0.27157 0.88239 0.0
C299 C 0.47803 0.22651 0.79202 0.0
C300 C 0.56556 0.15672 0.80194 0.0
C301 C 0.52895 0.11336 0.80932 0.0
C302 C 0.56878 0.20142 0.81197 0.0
C303 C 0.53435 0.20293 0.82974 0.0
C304 C 0.49879 0.1596 0.83851 0.0
C305 C 0.49659 0.11526 0.82824 0.0
C306 C 0.60772 0.24676 0.8024 0.0
C307 C 0.46155 0.15966 0.8575 0.0
H308 H 0.58933 0.35587 0.88423 0.0
H309 H 0.4957 0.31793 0.80805 0.0
H310 H 0.5654 0.23554 0.88854 0.0
H311 H 0.61918 0.26977 0.87206 0.0
H312 H 0.60452 0.29928 0.90203 0.0
H313 H 0.45758 0.23996 0.78079 0.0
H314 H 0.50134 0.22044 0.77697 0.0
H315 H 0.45217 0.19084 0.7979 0.0
H316 H 0.59093 0.1554 0.78753 0.0
H317 H 0.46805 0.08177 0.83383 0.0
H318 H 0.62778 0.2755 0.82111 0.0
H319 H 0.59115 0.26092 0.78855 0.0
H320 H 0.63373 0.24 0.79032 0.0
H321 H 0.47898 0.18889 0.87628 0.0
H322 H 0.44008 0.12436 0.8651 0.0
H323 H 0.43665 0.16708 0.84552 0.0
C324 C 0.49739 0.79798 0.49839 0.0
C325 C 0.52629 0.84745 0.49694 0.0
C326 C 0.51805 0.76966 0.50294 0.0
C327 C 0.56879 0.79117 0.50532 0.0
C328 C 0.59805 0.84049 0.50231 0.0
C329 C 0.57642 0.86836 0.49862 0.0
C330 C 0.48564 0.71745 0.50663 0.0
C331 C 0.6522 0.86411 0.50379 0.0
C332 C 0.62149 0.73723 0.55074 0.0
C333 C 0.62731 0.70551 0.53017 0.0
C334 C 0.60279 0.76562 0.54284 0.0
C335 C 0.59113 0.76322 0.51358 0.0
C336 C 0.59884 0.73266 0.49258 0.0
C337 C 0.61628 0.70352 0.50119 0.0
C338 C 0.59384 0.79681 0.56588 0.0
C339 C 0.58788 0.73012 0.46116 0.0
H340 H 0.45856 0.7818 0.49714 0.0
H341 H 0.5987 0.90649 0.49708 0.0
H342 H 0.49382 0.69303 0.49202 0.0
H343 H 0.49224 0.71301 0.52876 0.0
H344 H 0.44688 0.70554 0.50252 0.0
H345 H 0.66923 0.90074 0.4975 0.0
H346 H 0.66675 0.86776 0.52587 0.0
H347 H 0.66275 0.84113 0.48965 0.0
H348 H 0.6298 0.73837 0.57315 0.0
H349 H 0.62113 0.67913 0.48527 0.0
H350 H 0.55496 0.78524 0.56456 0.0
H351 H 0.61375 0.8353 0.56272 0.0
H352 H 0.60498 0.79459 0.58764 0.0
H353 H 0.54857 0.7141 0.45612 0.0
H354 H 0.59989 0.70787 0.44755 0.0
H355 H 0.60571 0.76718 0.45553 0.0
C356 C 0.72765 0.50232 0.79705 0.0
C357 C 0.70538 0.51781 0.81775 0.0
C358 C 0.77649 0.51648 0.80149 0.0
C359 C 0.80339 0.54666 0.82723 0.0
C360 C 0.78173 0.56447 0.84748 0.0
C361 C 0.73298 0.54986 0.84248 0.0
C362 C 0.79854 0.49704 0.77936 0.0
C363 C 0.80931 0.59678 0.8752 0.0
C364 C 0.90308 0.5342 0.8608 0.0
C365 C 0.94408 0.57689 0.85623 0.0
C366 C 0.85717 0.52287 0.85024 0.0
C367 C 0.85223 0.5551 0.83474 0.0
C368 C 0.89367 0.59709 0.82881 0.0
C369 C 0.93934 0.6075 0.83964 0.0
C370 C 0.81386 0.47752 0.85683 0.0
C371 C 0.88964 0.63209 0.81225 0.0
H372 H 0.70662 0.47787 0.77777 0.0
H373 H 0.71614 0.56237 0.85846 0.0
H374 H 0.83404 0.52654 0.775 0.0
H375 H 0.80467 0.46957 0.78758 0.0
H376 H 0.77502 0.47973 0.75898 0.0
H377 H 0.78857 0.61109 0.88743 0.0
H378 H 0.81802 0.57594 0.88869 0.0
H379 H 0.84388 0.62789 0.87106 0.0
H380 H 0.90691 0.51006 0.87318 0.0
H381 H 0.97114 0.6405 0.83611 0.0
H382 H 0.79041 0.45548 0.83696 0.0
H383 H 0.79222 0.4877 0.87115 0.0
H384 H 0.82417 0.45462 0.86736 0.0
H385 H 0.86515 0.61228 0.79243 0.0
H386 H 0.92519 0.65962 0.80649 0.0
H387 H 0.87393 0.65127 0.82528 0.0
C388 C 0.20859 0.76706 0.17613 0.0
C389 C 0.18098 0.74136 0.15017 0.0
C390 C 0.2492 0.81307 0.1776 0.0
C391 C 0.26208 0.83431 0.15252 0.0
C392 C 0.23362 0.80921 0.12632 0.0
C393 C 0.19344 0.76266 0.1254 0.0
C394 C 0.27895 0.83843 0.20597 0.0
C395 C 0.24583 0.83125 0.09935 0.0
C396 C 0.34673 0.96709 0.17659 0.0
C397 C 0.39063 0.96784 0.17763 0.0
C398 C 0.3043 0.92478 0.16466 0.0
C399 C 0.30623 0.88237 0.15437 0.0
C400 C 0.35138 0.8848 0.15259 0.0
C401 C 0.39331 0.92782 0.16434 0.0
C402 C 0.257 0.92397 0.16625 0.0
C403 C 0.35505 0.84048 0.14169 0.0
H404 H 0.1993 0.75064 0.19528 0.0
H405 H 0.17196 0.74289 0.10529 0.0
H406 H 0.31639 0.84596 0.20416 0.0
H407 H 0.28063 0.8738 0.21222 0.0
H408 H 0.26411 0.81657 0.22332 0.0
H409 H 0.21955 0.80718 0.08081 0.0
H410 H 0.24663 0.8665 0.10252 0.0
H411 H 0.28225 0.83875 0.09421 0.0
H412 H 0.34511 -0.00159 0.18694 0.0
H413 H 0.42757 0.92881 0.16534 0.0
H414 H 0.23985 0.90792 0.18514 0.0
H415 H 0.23189 0.9013 0.14704 0.0
H416 H 0.26213 0.96113 0.16839 0.0
H417 H 0.34577 0.81714 0.15848 0.0
H418 H 0.39203 0.85041 0.13625 0.0
H419 H 0.32939 0.81869 0.12258 0.0
C420 C 0.51005 0.23084 0.49081 0.0
C421 C 0.53361 0.21465 0.47153 0.0
C422 C 0.51941 0.27876 0.49388 0.0
C423 C 0.55292 0.31103 0.47714 0.0
C424 C 0.57319 0.29361 0.45573 0.0
C425 C 0.56323 0.24546 0.45314 0.0
C426 C 0.49669 0.2959 0.51681 0.0
C427 C 0.6086 0.32684 0.43729 0.0
C428 C 0.56166 0.4342 0.48723 0.0
C429 C 0.59709 0.45857 0.51033 0.0
C430 C 0.54887 0.38685 0.47457 0.0
C431 C 0.57224 0.36395 0.48542 0.0
C432 C 0.61087 0.39024 0.50715 0.0
C433 C 0.62275 0.43728 0.51937 0.0
C434 C 0.50783 0.36012 0.45131 0.0
C435 C 0.63692 0.36736 0.51935 0.0
H436 H 0.48663 0.20707 0.50484 0.0
H437 H 0.58108 0.23301 0.43788 0.0
H438 H 0.52448 0.32023 0.53462 0.0
H439 H 0.482 0.31706 0.50836 0.0
H440 H 0.46723 0.26523 0.52551 0.0
H441 H 0.6155 0.30635 0.41899 0.0
H442 H 0.59528 0.34925 0.429 0.0
H443 H 0.64328 0.35206 0.45033 0.0
H444 H 0.54168 0.45077 0.48044 0.0
H445 H 0.65025 0.45646 0.53722 0.0
H446 H 0.47488 0.33461 0.46047 0.0
H447 H 0.51573 0.33837 0.43437 0.0
H448 H 0.50013 0.38541 0.44149 0.0
H449 H 0.61323 0.3412 0.53299 0.0
H450 H 0.67074 0.39485 0.53256 0.0
H451 H 0.6457 0.34691 0.50211 0.0
C452 C 0.30522 0.50457 0.86166 0.0
C453 C 0.33539 0.51138 0.83967 0.0
C454 C 0.27358 0.52285 0.86245 0.0
C455 C 0.27303 0.54937 0.84105 0.0
C456 C 0.3017 0.55427 0.81803 0.0
C457 C 0.33222 0.53469 0.81745 0.0
C458 C 0.24274 0.51612 0.88704 0.0
C459 C 0.30278 0.58312 0.79513 0.0
C460 C 0.17114 0.57659 0.83713 0.0
C461 C 0.19189 0.6225 0.85423 0.0
C462 C 0.19747 0.55262 0.8321 0.0
C463 C 0.24567 0.57546 0.84418 0.0
C464 C 0.26736 0.62268 0.86044 0.0
C465 C 0.23997 0.64548 0.86548 0.0
C466 C 0.17321 0.50221 0.81478 0.0
C467 C 0.31902 0.64849 0.87327 0.0
H468 H 0.30759 0.48644 0.8788 0.0
H469 H 0.3559 0.54051 0.80054 0.0
H470 H 0.25582 0.55158 0.90103 0.0
H471 H 0.20487 0.50267 0.87905 0.0
H472 H 0.24349 0.49024 0.90011 0.0
H473 H 0.32288 0.579 0.77713 0.0
H474 H 0.2657 0.57178 0.78662 0.0
H475 H 0.32041 0.62218 0.80446 0.0
H476 H 0.13385 0.55857 0.82843 0.0
H477 H 0.25591 0.68098 0.87868 0.0
H478 H 0.1707 0.47583 0.82851 0.0
H479 H 0.19492 0.50056 0.79716 0.0
H480 H 0.13638 0.49065 0.80554 0.0
H481 H 0.3224 0.62952 0.8903 0.0
H482 H 0.33198 0.68692 0.88265 0.0
H483 H 0.34291 0.64764 0.85684 0.0
C484 C 0.82184 0.34342 0.15206 0.0
C485 C 0.86298 0.35693 0.17014 0.0
C486 C 0.77656 0.30636 0.15696 0.0
C487 C 0.77252 0.28187 0.18029 0.0
C488 C 0.81444 0.2922 0.19697 0.0
C489 C 0.85935 0.32983 0.19173 0.0
C490 C 0.73271 0.2964 0.13865 0.0
C491 C 0.81152 0.26607 0.22168 0.0
C492 C 0.65723 0.24135 0.2162 0.0
C493 C 0.63042 0.19228 0.20414 0.0
C494 C 0.70382 0.27079 0.20876 0.0
C495 C 0.72422 0.2502 0.18925 0.0
C496 C 0.69765 0.20031 0.17752 0.0
C497 C 0.65073 0.17193 0.18493 0.0
C498 C 0.73086 0.3241 0.22139 0.0
C499 C 0.71867 0.17707 0.15707 0.0
H500 H 0.82447 0.36374 0.13504 0.0
H501 H 0.89107 0.33977 0.20562 0.0
H502 H 0.70867 0.25683 0.1317 0.0
H503 H 0.71194 0.31008 0.15134 0.0
H504 H 0.74245 0.31432 0.11942 0.0
H505 H 0.84739 0.27262 0.22948 0.0
H506 H 0.79673 0.27896 0.23957 0.0
H507 H 0.78688 0.2264 0.21549 0.0
H508 H 0.64141 0.25687 0.23114 0.0
H509 H 0.63022 0.13372 0.17589 0.0
H510 H 0.73948 0.34634 0.20406 0.0
H511 H 0.76549 0.3336 0.23292 0.0
H512 H 0.70997 0.33424 0.23643 0.0
H513 H 0.72612 0.1937 0.13738 0.0
H514 H 0.6942 0.13728 0.15102 0.0
H515 H 0.7535 0.18371 0.1668 0.0
C516 C 0.02104 0.59655 0.07839 0.0
C517 C 0.02627 0.56063 0.08904 0.0
C518 C 0.02654 0.60226 0.04971 0.0
C519 C 0.03927 0.57242 0.03155 0.0
C520 C 0.04665 0.53747 0.04257 0.0
C521 C 0.03908 0.53131 0.07114 0.0
C522 C 0.01684 0.63888 0.0386 0.0
C523 C 0.06196 0.50627 0.02412 0.0
C524 C -1e-05 0.55061 0.95287 0.0
C525 C 0.04077 0.58712 0.94268 0.0
C526 C -0.00069 0.54513 0.98164 0.0
C527 C 0.04115 0.57551 0.00061 0.0
C528 C 0.08343 0.61052 0.99028 0.0
C529 C 0.08254 0.61643 0.96151 0.0
C530 C 0.95316 0.50796 0.99189 0.0
C531 C 0.12919 0.64251 0.00974 0.0
H532 H 0.01094 0.61909 0.0923 0.0
H533 H 0.0437 0.50397 0.07959 0.0
H534 H 0.04871 0.66492 0.02889 0.0
H535 H 0.98638 0.61998 0.02162 0.0
H536 H 0.00787 0.65963 0.05563 0.0
H537 H 0.07127 0.48473 0.03669 0.0
H538 H 0.03247 0.48085 0.00743 0.0
H539 H 0.0936 0.52926 0.01304 0.0
H540 H 0.96805 0.52647 0.9384 0.0
H541 H 0.11426 0.64483 0.95403 0.0
H542 H 0.94102 0.52634 0.00847 0.0
H543 H 0.9593 0.48192 0.00186 0.0
H544 H 0.92375 0.48723 0.97435 0.0
H545 H 0.12435 0.66841 0.02532 0.0
H546 H 0.16036 0.6636 0.99775 0.0
H547 H 0.1377 0.62025 0.02211 0.0
C548 C 0.47225 0.9649 0.40087 0.0
C549 C 0.48306 0.0041 0.42247 0.0
C550 C 0.46831 0.96882 0.37197 0.0
C551 C 0.47557 0.01304 0.36453 0.0
C552 C 0.48559 0.05237 0.38625 0.0
C553 C 0.4888 0.04724 0.41492 0.0
C554 C 0.45708 0.92591 0.34938 0.0
C555 C 0.49366 0.10017 0.37921 0.0
C556 C 0.51458 0.04143 0.29114 0.0
C557 C 0.47151 0.03129 0.27642 0.0
C558 C 0.51636 0.03567 0.31981 0.0
C559 C 0.47391 0.01868 0.33405 0.0
C560 C 0.4302 0.00787 0.3193 0.0
C561 C 0.42959 0.01462 0.29073 0.0
C562 C 0.56372 0.04781 0.33488 0.0
C563 C 0.38412 0.98933 0.33373 0.0
H564 H 0.46746 0.93129 0.4065 0.0
H565 H 0.49582 0.07712 0.43146 0.0
H566 H 0.42481 0.91624 0.33514 0.0
H567 H 0.48749 0.93553 0.33591 0.0
H568 H 0.45049 0.89349 0.35872 0.0
H569 H 0.50078 0.12707 0.39865 0.0
H570 H 0.52473 0.11579 0.36625 0.0
H571 H 0.46167 0.09438 0.36622 0.0
H572 H 0.54692 0.05331 0.28014 0.0
H573 H 0.39627 0.00719 0.27965 0.0
H574 H 0.56033 0.01532 0.34269 0.0
H575 H 0.57353 0.07633 0.3538 0.0
H576 H 0.5935 0.06085 0.3208 0.0
H577 H 0.37629 0.95599 0.34233 0.0
H578 H 0.35281 0.98096 0.31897 0.0
H579 H 0.38819 0.01681 0.35206 0.0
C580 C 0.50247 0.51999 0.73159 0.0
C581 C 0.52521 0.50153 0.7473 0.0
C582 C 0.51212 0.52697 0.70336 0.0
C583 C 0.54508 0.51495 0.69049 0.0
C584 C 0.56758 0.49563 0.70604 0.0
C585 C 0.55742 0.4892 0.73425 0.0
C586 C 0.48753 0.54776 0.68742 0.0
C587 C 0.60269 0.48206 0.69293 0.0
C588 C 0.53986 0.49062 0.60984 0.0
C589 C 0.57917 0.53384 0.60415 0.0
C590 C 0.528 0.48425 0.63781 0.0
C591 C 0.55586 0.5222 0.66065 0.0
C592 C 0.59481 0.56643 0.65504 0.0
C593 C 0.60606 0.57171 0.62682 0.0
C594 C 0.48616 0.4366 0.64295 0.0
C595 C 0.62518 0.60776 0.67891 0.0
H596 H 0.47773 0.52989 0.74151 0.0
H597 H 0.57507 0.4748 0.74615 0.0
H598 H 0.5149 0.58227 0.68094 0.0
H599 H 0.46685 0.52234 0.66761 0.0
H600 H 0.4626 0.55491 0.70043 0.0
H601 H 0.61692 0.46724 0.70787 0.0
H602 H 0.58491 0.45451 0.67343 0.0
H603 H 0.63345 0.51438 0.68639 0.0
H604 H 0.51834 0.46157 0.59235 0.0
H605 H 0.63665 0.60505 0.62255 0.0
H606 H 0.45972 0.44303 0.65468 0.0
H607 H 0.4991 0.41889 0.65646 0.0
H608 H 0.46744 0.41117 0.62277 0.0
H609 H 0.602 0.61767 0.69188 0.0
H610 H 0.65278 0.64053 0.67085 0.0
H611 H 0.64369 0.59624 0.69331 0.0
C612 C 0.47494 0.03804 0.59111 0.0
C613 C 0.49742 0.02165 0.57117 0.0
C614 C 0.4716 0.02693 0.61883 0.0
C615 C 0.49281 0.00028 0.62704 0.0
C616 C 0.51269 0.98087 0.60636 0.0
C617 C 0.51412 0.99126 0.57844 0.0
C618 C 0.4486 0.04694 0.63991 0.0
C619 C 0.53622 0.95283 0.61425 0.0
C620 C 0.5445 0.04235 0.70434 0.0
C621 C 0.50891 0.00645 0.71784 0.0
C622 C 0.54084 0.03923 0.67461 0.0
C623 C 0.50033 -0.00061 0.65792 0.0
C624 C 0.46538 0.96179 0.67129 0.0
C625 C 0.4702 0.96568 0.70117 0.0
C626 C 0.57935 0.07979 0.66119 0.0
C627 C 0.42168 0.91885 0.65424 0.0
H628 H 0.46155 0.06112 0.58532 0.0
H629 H 0.53168 0.97876 0.56297 0.0
H630 H 0.42437 0.01878 0.65233 0.0
H631 H 0.47701 0.07758 0.65526 0.0
H632 H 0.42756 0.06032 0.62921 0.0
H633 H 0.54215 0.93314 0.59508 0.0
H634 H 0.57167 0.97845 0.62641 0.0
H635 H 0.51416 0.92635 0.62816 0.0
H636 H 0.57486 0.0735 0.71717 0.0
H637 H 0.44256 0.93792 0.71158 0.0
H638 H 0.56405 0.10008 0.65225 0.0
H639 H 0.5924 0.06474 0.64331 0.0
H640 H 0.61059 0.10578 0.67679 0.0
H641 H 0.39758 0.93102 0.6461 0.0
H642 H 0.40107 0.89004 0.66724 0.0
H643 H 0.43232 0.90305 0.63544 0.0
C644 C 0.45378 0.47986 0.91629 0.0
C645 C 0.49937 0.50311 0.90614 0.0
C646 C 0.4486 0.48452 0.94566 0.0
C647 C 0.48999 0.51323 0.96528 0.0
C648 C 0.53602 0.53727 0.95516 0.0
C649 C 0.54016 0.5318 0.92572 0.0
C650 C 0.39895 0.45823 0.95571 0.0
C651 C 0.58096 0.56852 0.97544 0.0
C652 C 0.4763 0.55987 0.0403 0.0
C653 C 0.48009 0.52767 0.05598 0.0
C654 C 0.47897 0.55532 0.01069 0.0
C655 C 0.4854 0.51755 0.99646 0.0
C656 C 0.4887 0.4846 0.01214 0.0
C657 C 0.48614 0.49015 0.04175 0.0
C658 C 0.47566 0.59134 0.99471 0.0
C659 C 0.49529 0.4437 0.99766 0.0
H660 H 0.42213 0.4573 0.90132 0.0
H661 H 0.5755 0.55014 0.91805 0.0
H662 H 0.39712 0.43193 0.96929 0.0
H663 H 0.39138 0.48443 0.96901 0.0
H664 H 0.37033 0.43831 0.93768 0.0
H665 H 0.61392 0.58568 0.96408 0.0
H666 H 0.57775 0.59756 0.989 0.0
H667 H 0.58532 0.54624 0.9899 0.0
H668 H 0.47218 0.58926 0.05131 0.0
H669 H 0.48852 0.46488 0.05379 0.0
H670 H 0.44592 0.572 0.97732 0.0
H671 H 0.50946 0.61163 0.98462 0.0
H672 H 0.46941 0.61783 0.00884 0.0
H673 H 0.46568 0.42062 0.98055 0.0
H674 H 0.49599 0.42049 0.01281 0.0
H675 H 0.5295 0.45872 0.98739 0.0
C676 C 0.06475 0.57312 0.26426 0.0
C677 C 0.02147 0.55219 0.24676 0.0
C678 C 0.0647 0.57167 0.29366 0.0
C679 C 0.02032 0.54982 0.3059 0.0
C680 C 0.9765 0.52864 0.28834 0.0
C681 C 0.97759 0.52956 0.25889 0.0
C682 C 0.11215 0.59373 0.31163 0.0
C683 C 0.92852 0.50603 0.30073 0.0
C684 C 0.01874 0.51354 0.37901 0.0
C685 C 0.02384 0.55447 0.39685 0.0
C686 C 0.01731 0.51134 0.34925 0.0
C687 C 0.01993 0.55057 0.33725 0.0
C688 C 0.02354 0.5913 0.35528 0.0
C689 C 0.02606 0.593 0.38493 0.0
C690 C 0.01439 0.46776 0.33073 0.0
C691 C 0.02529 0.63332 0.34328 0.0
H692 H 0.09873 0.59025 0.25491 0.0
H693 H 0.94403 0.51357 0.24546 0.0
H694 H 0.11681 0.62472 0.32751 0.0
H695 H 0.11253 0.56658 0.32367 0.0
H696 H 0.14332 0.6069 0.29858 0.0
H697 H 0.89771 0.49067 0.2841 0.0
H698 H 0.92463 0.47668 0.31229 0.0
H699 H 0.92659 0.53373 0.31647 0.0
H700 H 0.01737 0.48398 0.38842 0.0
H701 H 0.02976 0.62449 0.3989 0.0
H702 H 0.04679 0.47946 0.31881 0.0
H703 H 0.98263 0.45069 0.31472 0.0
H704 H 0.01182 0.44001 0.34338 0.0
H705 H 0.0583 0.65135 0.33213 0.0
H706 H 0.02515 0.66081 0.36013 0.0
H707 H 0.99399 0.61995 0.32732 0.0
loop_
_geom_bond_atom_site_label_1
_geom_bond_atom_site_label_2
_geom_bond_distance
_geom_bond_site_symmetry_2
_ccdc_geom_bond_type
Zn0 O6 1.969 . S
Zn0 O7 1.965 . S
Zn0 O11 2.024 . S
Zn0 O16 1.969 . S
Zn1 O8 1.969 . S
Zn1 O14 1.969 . S
Zn1 O15 1.965 1_655 S
Zn1 O17 2.024 . S
C2 O3 1.229 . S
C2 O11 1.058 . S
O3 C2 1.229 . S
C4 O5 1.229 . S
C4 O17 1.058 . S
O5 C4 1.229 . S
O6 Zn0 1.969 . S
O6 C9 1.267 . S
O7 Zn0 1.965 . S
O7 C18 1.260 . S
O8 Zn1 1.969 . S
O8 C18 1.258 1_655 S
C9 O6 1.267 . S
C9 O10 1.228 . S
O10 C9 1.228 . S
O11 Zn0 2.024 . S
O11 C2 1.058 . S
C12 O13 1.228 . S
C12 O14 1.267 . S
O13 C12 1.228 . S
O14 Zn1 1.969 . S
O14 C12 1.267 . S
O15 Zn1 1.965 1_455 S
O15 C19 1.260 . S
O16 Zn0 1.969 . S
O16 C19 1.258 . S
O17 Zn1 2.024 . S
O17 C4 1.058 . S
C18 O7 1.260 . S
C18 O8 1.258 1_455 S
C19 O15 1.260 . S
C19 O16 1.258 . S
Zn20 O26 1.969 . S
Zn20 O27 1.965 . S
Zn20 O31 2.024 . S
Zn20 O36 1.969 . S
Zn21 O28 1.969 . S
Zn21 O34 1.969 . S
Zn21 O35 1.965 1_565 S
Zn21 O37 2.024 . S
C22 O23 1.229 . S
C22 O31 1.058 . S
O23 C22 1.229 . S
C24 O25 1.229 . S
C24 O37 1.058 . S
O25 C24 1.229 . S
O26 Zn20 1.969 . S
O26 C29 1.267 . S
O27 Zn20 1.965 . S
O27 C38 1.260 . S
O28 Zn21 1.969 . S
O28 C38 1.258 1_565 S
C29 O26 1.267 . S
C29 O30 1.228 . S
O30 C29 1.228 . S
O31 Zn20 2.024 . S
O31 C22 1.058 . S
C32 O33 1.228 . S
C32 O34 1.267 . S
O33 C32 1.228 . S
O34 Zn21 1.969 . S
O34 C32 1.267 . S
O35 Zn21 1.965 1_545 S
O35 C39 1.260 . S
O36 Zn20 1.969 . S
O36 C39 1.258 . S
O37 Zn21 2.024 . S
O37 C24 1.058 . S
C38 O27 1.260 . S
C38 O28 1.258 1_545 S
C39 O35 1.260 . S
C39 O36 1.258 . S
Zn40 O46 1.969 . S
Zn40 O47 1.965 . S
Zn40 O51 2.024 . S
Zn40 O56 1.969 . S
Zn41 O48 1.969 . S
Zn41 O54 1.969 . S
Zn41 O55 1.965 . S
Zn41 O57 2.024 . S
C42 O43 1.229 . S
C42 O51 1.058 . S
O43 C42 1.229 . S
C44 O45 1.229 . S
C44 O57 1.058 . S
O45 C44 1.229 . S
O46 Zn40 1.969 . S
O46 C49 1.267 . S
O47 Zn40 1.965 . S
O47 C58 1.260 . S
O48 Zn41 1.969 . S
O48 C58 1.258 . S
C49 O46 1.267 . S
C49 O50 1.228 . S
O50 C49 1.228 . S
O51 Zn40 2.024 . S
O51 C42 1.058 . S
C52 O53 1.228 . S
C52 O54 1.267 . S
O53 C52 1.228 . S
O54 Zn41 1.969 . S
O54 C52 1.267 . S
O55 Zn41 1.965 . S
O55 C59 1.260 . S
O56 Zn40 1.969 . S
O56 C59 1.258 . S
O57 Zn41 2.024 . S
O57 C44 1.058 . S
C58 O47 1.260 . S
C58 O48 1.258 . S
C59 O55 1.260 . S
C59 O56 1.258 . S
H60 C65 0.930 . S
H61 C68 0.930 . S
H62 C70 0.930 1_565 S
H63 C64 1.016 . S
C64 H63 1.016 . S
C64 N71 1.286 . S
C65 H60 0.930 . S
C65 C66 1.388 1_545 S
C65 C67 1.361 . S
C66 C65 1.388 1_565 S
C66 C70 1.390 1_565 S
C67 C65 1.361 . S
C67 C68 1.393 . S
C67 N71 1.413 . S
C68 H61 0.930 . S
C68 C67 1.393 . S
C68 C69 1.399 . S
C69 C68 1.399 . S
C69 C70 1.381 . S
C70 H62 0.930 1_545 S
C70 C66 1.390 1_545 S
C70 C69 1.381 . S
N71 C64 1.286 . S
N71 C67 1.413 . S
H72 C77 0.930 . S
H73 C80 0.930 . S
H74 C82 0.930 . S
H75 C76 1.016 . S
C76 H75 1.016 . S
C76 N83 1.286 . S
C77 H72 0.930 . S
C77 C78 1.397 . S
C77 C79 1.361 . S
C78 C77 1.397 . S
C78 C82 1.390 . S
C79 C77 1.361 . S
C79 C80 1.393 . S
C79 N83 1.413 . S
C80 H73 0.930 . S
C80 C79 1.393 . S
C80 C81 1.399 . S
C81 C80 1.399 . S
C81 C82 1.381 . S
C82 H74 0.930 . S
C82 C78 1.390 . S
C82 C81 1.381 . S
N83 C76 1.286 . S
N83 C79 1.413 . S
H84 C89 0.930 1_655 S
H85 C92 0.930 . S
H86 C94 0.930 . S
H87 C88 1.016 . S
C88 H87 1.016 . S
C88 N95 1.286 . S
C89 H84 0.930 1_455 S
C89 C90 1.397 1_455 S
C89 C91 1.361 . S
C90 C89 1.397 1_655 S
C90 C94 1.390 . S
C91 C89 1.361 . S
C91 C92 1.393 . S
C91 N95 1.413 . S
C92 H85 0.930 . S
C92 C91 1.393 . S
C92 C93 1.399 . S
C93 C92 1.399 . S
C93 C94 1.381 1_455 S
C94 H86 0.930 . S
C94 C90 1.390 . S
C94 C93 1.381 1_655 S
N95 C88 1.286 . S
N95 C91 1.413 . S
H96 C101 0.930 . S
H97 C104 0.930 . S
H98 C106 0.930 . S
H99 C100 1.016 . S
C100 H99 1.016 . S
C100 N107 1.286 . S
C101 H96 0.930 . S
C101 C102 1.397 . S
C101 C103 1.361 . S
C102 C101 1.397 . S
C102 C106 1.390 . S
C103 C101 1.361 . S
C103 C104 1.393 1_455 S
C103 N107 1.413 1_455 S
C104 H97 0.930 . S
C104 C103 1.393 1_655 S
C104 C105 1.399 1_655 S
C105 C104 1.399 1_455 S
C105 C106 1.381 . S
C106 H98 0.930 . S
C106 C102 1.390 . S
C106 C105 1.381 . S
N107 C100 1.286 . S
N107 C103 1.413 1_655 S
H108 C113 0.930 . S
H109 C116 0.930 1_565 S
H110 C118 0.930 . S
H111 C112 1.016 . S
C112 H111 1.016 . S
C112 N119 1.286 . S
C113 H108 0.930 . S
C113 C114 1.397 . S
C113 C115 1.361 . S
C114 C113 1.397 . S
C114 C118 1.390 . S
C115 C113 1.361 . S
C115 C116 1.393 . S
C115 N119 1.413 1_545 S
C116 H109 0.930 1_545 S
C116 C115 1.393 . S
C116 C117 1.399 . S
C117 C116 1.399 . S
C117 C118 1.381 . S
C118 H110 0.930 . S
C118 C114 1.390 . S
C118 C117 1.381 . S
N119 C112 1.286 . S
N119 C115 1.413 1_565 S
H120 C125 0.930 . S
H121 C128 0.930 . S
H122 C130 0.930 . S
H123 C124 1.016 . S
C124 H123 1.016 . S
C124 N131 1.286 . S
C125 H120 0.930 . S
C125 C126 1.397 . S
C125 C127 1.361 . S
C126 C125 1.397 . S
C126 C130 1.390 . S
C127 C125 1.361 . S
C127 C128 1.393 . S
C127 N131 1.413 . S
C128 H121 0.930 . S
C128 C127 1.393 . S
C128 C129 1.399 . S
C129 C128 1.399 . S
C129 C130 1.381 . S
C130 H122 0.930 . S
C130 C126 1.390 . S
C130 C129 1.381 . S
N131 C124 1.286 . S
N131 C127 1.413 . S
C132 C133 1.391 . S
C132 C134 1.394 . S
C132 H148 0.931 . S
C133 C132 1.391 . S
C133 C137 1.376 . S
C134 C132 1.394 . S
C134 C135 1.369 . S
C134 C138 1.531 . S
C135 C134 1.369 . S
C135 C136 1.410 . S
C135 C143 1.503 . S
C136 C135 1.410 . S
C136 C137 1.392 . S
C136 C139 1.511 . S
C137 C133 1.376 . S
C137 C136 1.392 . S
C137 H149 0.929 . S
C138 C134 1.531 . S
C138 H150 0.960 . S
C138 H151 0.962 . S
C138 H152 0.960 . S
C139 C136 1.511 . S
C139 H153 0.961 . S
C139 H154 0.961 . S
C139 H155 0.961 . S
C140 C141 1.370 . S
C140 C142 1.363 . S
C140 H156 0.931 . S
C141 C140 1.370 . S
C141 C145 1.408 . S
C142 C140 1.363 . S
C142 C143 1.370 . S
C142 C146 1.524 . S
C143 C135 1.503 . S
C143 C142 1.370 . S
C143 C144 1.403 . S
C144 C143 1.403 . S
C144 C145 1.404 . S
C144 C147 1.539 . S
C145 C141 1.408 . S
C145 C144 1.404 . S
C145 H157 0.930 . S
C146 C142 1.524 . S
C146 H158 0.956 . S
C146 H159 0.961 . S
C146 H160 0.961 . S
C147 C144 1.539 . S
C147 H161 0.958 . S
C147 H162 0.961 . S
C147 H163 0.960 . S
H148 C132 0.931 . S
H149 C137 0.929 . S
H150 C138 0.960 . S
H151 C138 0.962 . S
H152 C138 0.960 . S
H153 C139 0.961 . S
H154 C139 0.961 . S
H155 C139 0.961 . S
H156 C140 0.931 . S
H157 C145 0.930 . S
H158 C146 0.956 . S
H159 C146 0.961 . S
H160 C146 0.961 . S
H161 C147 0.958 . S
H162 C147 0.961 . S
H163 C147 0.960 . S
C164 C165 1.391 . S
C164 C166 1.394 . S
C164 H180 0.931 . S
C165 C164 1.391 . S
C165 C169 1.376 . S
C166 C164 1.394 . S
C166 C167 1.369 . S
C166 C170 1.531 . S
C167 C166 1.369 . S
C167 C168 1.410 . S
C167 C175 1.503 . S
C168 C167 1.410 . S
C168 C169 1.392 . S
C168 C171 1.511 . S
C169 C165 1.376 . S
C169 C168 1.392 . S
C169 H181 0.929 . S
C170 C166 1.531 . S
C170 H182 0.960 . S
C170 H183 0.962 . S
C170 H184 0.960 . S
C171 C168 1.511 . S
C171 H185 0.961 . S
C171 H186 0.961 . S
C171 H187 0.961 . S
C172 C173 1.370 . S
C172 C174 1.363 . S
C172 H188 0.931 . S
C173 C172 1.370 . S
C173 C177 1.408 . S
C174 C172 1.363 . S
C174 C175 1.370 . S
C174 C178 1.524 . S
C175 C167 1.503 . S
C175 C174 1.370 . S
C175 C176 1.403 . S
C176 C175 1.403 . S
C176 C177 1.404 . S
C176 C179 1.539 . S
C177 C173 1.408 . S
C177 C176 1.404 . S
C177 H189 0.930 . S
C178 C174 1.524 . S
C178 H190 0.956 . S
C178 H191 0.961 . S
C178 H192 0.961 . S
C179 C176 1.539 . S
C179 H193 0.958 . S
C179 H194 0.961 . S
C179 H195 0.960 . S
H180 C164 0.931 . S
H181 C169 0.929 . S
H182 C170 0.960 . S
H183 C170 0.962 . S
H184 C170 0.960 . S
H185 C171 0.961 . S
H186 C171 0.961 . S
H187 C171 0.961 . S
H188 C172 0.931 . S
H189 C177 0.930 . S
H190 C178 0.956 . S
H191 C178 0.961 . S
H192 C178 0.961 . S
H193 C179 0.958 . S
H194 C179 0.961 . S
H195 C179 0.960 . S
C196 C197 1.391 . S
C196 C198 1.394 . S
C196 H212 0.931 . S
C197 C196 1.391 . S
C197 C201 1.376 . S
C198 C196 1.394 . S
C198 C199 1.369 . S
C198 C202 1.531 . S
C199 C198 1.369 . S
C199 C200 1.410 . S
C199 C207 1.503 . S
C200 C199 1.410 . S
C200 C201 1.392 . S
C200 C203 1.511 . S
C201 C197 1.376 . S
C201 C200 1.392 . S
C201 H213 0.929 . S
C202 C198 1.531 . S
C202 H214 0.960 . S
C202 H215 0.962 . S
C202 H216 0.960 . S
C203 C200 1.511 . S
C203 H217 0.961 . S
C203 H218 0.961 . S
C203 H219 0.961 . S
C204 C205 1.370 . S
C204 C206 1.363 . S
C204 H220 0.931 . S
C205 C204 1.370 . S
C205 C209 1.408 . S
C206 C204 1.363 . S
C206 C207 1.370 . S
C206 C210 1.524 . S
C207 C199 1.503 . S
C207 C206 1.370 . S
C207 C208 1.403 . S
C208 C207 1.403 . S
C208 C209 1.404 . S
C208 C211 1.539 . S
C209 C205 1.408 . S
C209 C208 1.404 . S
C209 H221 0.930 . S
C210 C206 1.524 . S
C210 H222 0.956 . S
C210 H223 0.961 . S
C210 H224 0.961 . S
C211 C208 1.539 . S
C211 H225 0.958 . S
C211 H226 0.961 . S
C211 H227 0.960 . S
H212 C196 0.931 . S
H213 C201 0.929 . S
H214 C202 0.960 . S
H215 C202 0.962 . S
H216 C202 0.960 . S
H217 C203 0.961 . S
H218 C203 0.961 . S
H219 C203 0.961 . S
H220 C204 0.931 . S
H221 C209 0.930 . S
H222 C210 0.956 . S
H223 C210 0.961 . S
H224 C210 0.961 . S
H225 C211 0.958 . S
H226 C211 0.961 . S
H227 C211 0.960 . S
C228 C229 1.391 . S
C228 C230 1.394 . S
C228 H244 0.931 . S
C229 C228 1.391 . S
C229 C233 1.376 . S
C230 C228 1.394 . S
C230 C231 1.369 . S
C230 C234 1.531 . S
C231 C230 1.369 . S
C231 C232 1.410 . S
C231 C239 1.503 . S
C232 C231 1.410 . S
C232 C233 1.392 . S
C232 C235 1.511 . S
C233 C229 1.376 . S
C233 C232 1.392 . S
C233 H245 0.929 . S
C234 C230 1.531 . S
C234 H246 0.960 . S
C234 H247 0.962 . S
C234 H248 0.960 . S
C235 C232 1.511 . S
C235 H249 0.961 . S
C235 H250 0.961 . S
C235 H251 0.961 . S
C236 C237 1.370 . S
C236 C238 1.363 . S
C236 H252 0.931 . S
C237 C236 1.370 . S
C237 C241 1.408 . S
C238 C236 1.363 . S
C238 C239 1.370 . S
C238 C242 1.524 . S
C239 C231 1.503 . S
C239 C238 1.370 . S
C239 C240 1.403 . S
C240 C239 1.403 . S
C240 C241 1.404 . S
C240 C243 1.539 . S
C241 C237 1.408 . S
C241 C240 1.404 . S
C241 H253 0.930 . S
C242 C238 1.524 . S
C242 H254 0.956 . S
C242 H255 0.961 . S
C242 H256 0.961 . S
C243 C240 1.539 . S
C243 H257 0.958 . S
C243 H258 0.961 . S
C243 H259 0.960 . S
H244 C228 0.931 . S
H245 C233 0.929 . S
H246 C234 0.960 . S
H247 C234 0.962 . S
H248 C234 0.960 . S
H249 C235 0.961 . S
H250 C235 0.961 . S
H251 C235 0.961 . S
H252 C236 0.931 . S
H253 C241 0.930 . S
H254 C242 0.956 . S
H255 C242 0.961 . S
H256 C242 0.961 . S
H257 C243 0.958 . S
H258 C243 0.961 . S
H259 C243 0.960 . S
C260 C261 1.391 . S
C260 C262 1.394 . S
C260 H276 0.931 . S
C261 C260 1.391 . S
C261 C265 1.376 . S
C262 C260 1.394 . S
C262 C263 1.369 . S
C262 C266 1.531 . S
C263 C262 1.369 . S
C263 C264 1.410 . S
C263 C271 1.503 . S
C264 C263 1.410 . S
C264 C265 1.392 . S
C264 C267 1.511 . S
C265 C261 1.376 . S
C265 C264 1.392 . S
C265 H277 0.929 . S
C266 C262 1.531 . S
C266 H278 0.960 . S
C266 H279 0.962 . S
C266 H280 0.960 . S
C267 C264 1.511 . S
C267 H281 0.961 . S
C267 H282 0.961 . S
C267 H283 0.961 . S
C268 C269 1.370 . S
C268 C270 1.363 . S
C268 H284 0.931 . S
C269 C268 1.370 . S
C269 C273 1.408 . S
C270 C268 1.363 . S
C270 C271 1.370 . S
C270 C274 1.524 . S
C271 C263 1.503 . S
C271 C270 1.370 . S
C271 C272 1.403 . S
C272 C271 1.403 . S
C272 C273 1.404 . S
C272 C275 1.539 . S
C273 C269 1.408 . S
C273 C272 1.404 . S
C273 H285 0.930 . S
C274 C270 1.524 . S
C274 H286 0.956 . S
C274 H287 0.961 . S
C274 H288 0.961 . S
C275 C272 1.539 . S
C275 H289 0.958 . S
C275 H290 0.961 . S
C275 H291 0.960 . S
H276 C260 0.931 . S
H277 C265 0.929 . S
H278 C266 0.960 . S
H279 C266 0.962 . S
H280 C266 0.960 . S
H281 C267 0.961 . S
H282 C267 0.961 . S
H283 C267 0.961 . S
H284 C268 0.931 . S
H285 C273 0.930 . S
H286 C274 0.956 . S
H287 C274 0.961 . S
H288 C274 0.961 . S
H289 C275 0.958 . S
H290 C275 0.961 . S
H291 C275 0.960 . S
C292 C293 1.391 . S
C292 C294 1.394 . S
C292 H308 0.931 . S
C293 C292 1.391 . S
C293 C297 1.376 . S
C294 C292 1.394 . S
C294 C295 1.369 . S
C294 C298 1.531 . S
C295 C294 1.369 . S
C295 C296 1.410 . S
C295 C303 1.503 . S
C296 C295 1.410 . S
C296 C297 1.392 . S
C296 C299 1.511 . S
C297 C293 1.376 . S
C297 C296 1.392 . S
C297 H309 0.929 . S
C298 C294 1.531 . S
C298 H310 0.960 . S
C298 H311 0.962 . S
C298 H312 0.960 . S
C299 C296 1.511 . S
C299 H313 0.961 . S
C299 H314 0.961 . S
C299 H315 0.961 . S
C300 C301 1.370 . S
C300 C302 1.363 . S
C300 H316 0.931 . S
C301 C300 1.370 . S
C301 C305 1.408 . S
C302 C300 1.363 . S
C302 C303 1.370 . S
C302 C306 1.524 . S
C303 C295 1.503 . S
C303 C302 1.370 . S
C303 C304 1.403 . S
C304 C303 1.403 . S
C304 C305 1.404 . S
C304 C307 1.539 . S
C305 C301 1.408 . S
C305 C304 1.404 . S
C305 H317 0.930 . S
C306 C302 1.524 . S
C306 H318 0.956 . S
C306 H319 0.961 . S
C306 H320 0.961 . S
C307 C304 1.539 . S
C307 H321 0.958 . S
C307 H322 0.961 . S
C307 H323 0.960 . S
H308 C292 0.931 . S
H309 C297 0.929 . S
H310 C298 0.960 . S
H311 C298 0.962 . S
H312 C298 0.960 . S
H313 C299 0.961 . S
H314 C299 0.961 . S
H315 C299 0.961 . S
H316 C300 0.931 . S
H317 C305 0.930 . S
H318 C306 0.956 . S
H319 C306 0.961 . S
H320 C306 0.961 . S
H321 C307 0.958 . S
H322 C307 0.961 . S
H323 C307 0.960 . S
C324 C325 1.391 . S
C324 C326 1.394 . S
C324 H340 0.931 . S
C325 C324 1.391 . S
C325 C329 1.376 . S
C326 C324 1.394 . S
C326 C327 1.369 . S
C326 C330 1.531 . S
C327 C326 1.369 . S
C327 C328 1.410 . S
C327 C335 1.503 . S
C328 C327 1.410 . S
C328 C329 1.392 . S
C328 C331 1.511 . S
C329 C325 1.376 . S
C329 C328 1.392 . S
C329 H341 0.929 . S
C330 C326 1.531 . S
C330 H342 0.960 . S
C330 H343 0.962 . S
C330 H344 0.960 . S
C331 C328 1.511 . S
C331 H345 0.961 . S
C331 H346 0.961 . S
C331 H347 0.961 . S
C332 C333 1.370 . S
C332 C334 1.363 . S
C332 H348 0.931 . S
C333 C332 1.370 . S
C333 C337 1.408 . S
C334 C332 1.363 . S
C334 C335 1.370 . S
C334 C338 1.524 . S
C335 C327 1.503 . S
C335 C334 1.370 . S
C335 C336 1.403 . S
C336 C335 1.403 . S
C336 C337 1.404 . S
C336 C339 1.539 . S
C337 C333 1.408 . S
C337 C336 1.404 . S
C337 H349 0.930 . S
C338 C334 1.524 . S
C338 H350 0.956 . S
C338 H351 0.961 . S
C338 H352 0.961 . S
C339 C336 1.539 . S
C339 H353 0.958 . S
C339 H354 0.961 . S
C339 H355 0.960 . S
H340 C324 0.931 . S
H341 C329 0.929 . S
H342 C330 0.960 . S
H343 C330 0.962 . S
H344 C330 0.960 . S
H345 C331 0.961 . S
H346 C331 0.961 . S
H347 C331 0.961 . S
H348 C332 0.931 . S
H349 C337 0.930 . S
H350 C338 0.956 . S
H351 C338 0.961 . S
H352 C338 0.961 . S
H353 C339 0.958 . S
H354 C339 0.961 . S
H355 C339 0.960 . S
C356 C357 1.391 . S
C356 C358 1.394 . S
C356 H372 0.931 . S
C357 C356 1.391 . S
C357 C361 1.376 . S
C358 C356 1.394 . S
C358 C359 1.369 . S
C358 C362 1.531 . S
C359 C358 1.369 . S
C359 C360 1.410 . S
C359 C367 1.503 . S
C360 C359 1.410 . S
C360 C361 1.392 . S
C360 C363 1.511 . S
C361 C357 1.376 . S
C361 C360 1.392 . S
C361 H373 0.929 . S
C362 C358 1.531 . S
C362 H374 0.960 . S
C362 H375 0.962 . S
C362 H376 0.960 . S
C363 C360 1.511 . S
C363 H377 0.961 . S
C363 H378 0.961 . S
C363 H379 0.961 . S
C364 C365 1.370 . S
C364 C366 1.363 . S
C364 H380 0.931 . S
C365 C364 1.370 . S
C365 C369 1.408 . S
C366 C364 1.363 . S
C366 C367 1.370 . S
C366 C370 1.524 . S
C367 C359 1.503 . S
C367 C366 1.370 . S
C367 C368 1.403 . S
C368 C367 1.403 . S
C368 C369 1.404 . S
C368 C371 1.539 . S
C369 C365 1.408 . S
C369 C368 1.404 . S
C369 H381 0.930 . S
C370 C366 1.524 . S
C370 H382 0.956 . S
C370 H383 0.961 . S
C370 H384 0.961 . S
C371 C368 1.539 . S
C371 H385 0.958 . S
C371 H386 0.961 . S
C371 H387 0.960 . S
H372 C356 0.931 . S
H373 C361 0.929 . S
H374 C362 0.960 . S
H375 C362 0.962 . S
H376 C362 0.960 . S
H377 C363 0.961 . S
H378 C363 0.961 . S
H379 C363 0.961 . S
H380 C364 0.931 . S
H381 C369 0.930 . S
H382 C370 0.956 . S
H383 C370 0.961 . S
H384 C370 0.961 . S
H385 C371 0.958 . S
H386 C371 0.961 . S
H387 C371 0.960 . S
C388 C389 1.391 . S
C388 C390 1.394 . S
C388 H404 0.931 . S
C389 C388 1.391 . S
C389 C393 1.376 . S
C390 C388 1.394 . S
C390 C391 1.369 . S
C390 C394 1.531 . S
C391 C390 1.369 . S
C391 C392 1.410 . S
C391 C399 1.503 . S
C392 C391 1.410 . S
C392 C393 1.392 . S
C392 C395 1.511 . S
C393 C389 1.376 . S
C393 C392 1.392 . S
C393 H405 0.929 . S
C394 C390 1.531 . S
C394 H406 0.960 . S
C394 H407 0.962 . S
C394 H408 0.960 . S
C395 C392 1.511 . S
C395 H409 0.961 . S
C395 H410 0.961 . S
C395 H411 0.961 . S
C396 C397 1.370 . S
C396 C398 1.363 . S
C396 H412 0.931 . S
C397 C396 1.370 . S
C397 C401 1.408 . S
C398 C396 1.363 . S
C398 C399 1.370 . S
C398 C402 1.524 . S
C399 C391 1.503 . S
C399 C398 1.370 . S
C399 C400 1.403 . S
C400 C399 1.403 . S
C400 C401 1.404 . S
C400 C403 1.539 . S
C401 C397 1.408 . S
C401 C400 1.404 . S
C401 H413 0.930 . S
C402 C398 1.524 . S
C402 H414 0.956 . S
C402 H415 0.961 . S
C402 H416 0.961 . S
C403 C400 1.539 . S
C403 H417 0.958 . S
C403 H418 0.961 . S
C403 H419 0.960 . S
H404 C388 0.931 . S
H405 C393 0.929 . S
H406 C394 0.960 . S
H407 C394 0.962 . S
H408 C394 0.960 . S
H409 C395 0.961 . S
H410 C395 0.961 . S
H411 C395 0.961 . S
H412 C396 0.931 . S
H413 C401 0.930 . S
H414 C402 0.956 . S
H415 C402 0.961 . S
H416 C402 0.961 . S
H417 C403 0.958 . S
H418 C403 0.961 . S
H419 C403 0.960 . S
C420 C421 1.391 . S
C420 C422 1.394 . S
C420 H436 0.931 . S
C421 C420 1.391 . S
C421 C425 1.376 . S
C422 C420 1.394 . S
C422 C423 1.369 . S
C422 C426 1.531 . S
C423 C422 1.369 . S
C423 C424 1.410 . S
C423 C431 1.503 . S
C424 C423 1.410 . S
C424 C425 1.392 . S
C424 C427 1.511 . S
C425 C421 1.376 . S
C425 C424 1.392 . S
C425 H437 0.929 . S
C426 C422 1.531 . S
C426 H438 0.960 . S
C426 H439 0.962 . S
C426 H440 0.960 . S
C427 C424 1.511 . S
C427 H441 0.961 . S
C427 H442 0.961 . S
C427 H443 0.961 . S
C428 C429 1.370 . S
C428 C430 1.363 . S
C428 H444 0.931 . S
C429 C428 1.370 . S
C429 C433 1.408 . S
C430 C428 1.363 . S
C430 C431 1.370 . S
C430 C434 1.524 . S
C431 C423 1.503 . S
C431 C430 1.370 . S
C431 C432 1.403 . S
C432 C431 1.403 . S
C432 C433 1.404 . S
C432 C435 1.539 . S
C433 C429 1.408 . S
C433 C432 1.404 . S
C433 H445 0.930 . S
C434 C430 1.524 . S
C434 H446 0.956 . S
C434 H447 0.961 . S
C434 H448 0.961 . S
C435 C432 1.539 . S
C435 H449 0.958 . S
C435 H450 0.961 . S
C435 H451 0.960 . S
H436 C420 0.931 . S
H437 C425 0.929 . S
H438 C426 0.960 . S
H439 C426 0.962 . S
H440 C426 0.960 . S
H441 C427 0.961 . S
H442 C427 0.961 . S
H443 C427 0.961 . S
H444 C428 0.931 . S
H445 C433 0.930 . S
H446 C434 0.956 . S
H447 C434 0.961 . S
H448 C434 0.961 . S
H449 C435 0.958 . S
H450 C435 0.961 . S
H451 C435 0.960 . S
C452 C453 1.391 . S
C452 C454 1.394 . S
C452 H468 0.931 . S
C453 C452 1.391 . S
C453 C457 1.376 . S
C454 C452 1.394 . S
C454 C455 1.369 . S
C454 C458 1.531 . S
C455 C454 1.369 . S
C455 C456 1.410 . S
C455 C463 1.503 . S
C456 C455 1.410 . S
C456 C457 1.392 . S
C456 C459 1.511 . S
C457 C453 1.376 . S
C457 C456 1.392 . S
C457 H469 0.929 . S
C458 C454 1.531 . S
C458 H470 0.960 . S
C458 H471 0.962 . S
C458 H472 0.960 . S
C459 C456 1.511 . S
C459 H473 0.961 . S
C459 H474 0.961 . S
C459 H475 0.961 . S
C460 C461 1.370 . S
C460 C462 1.363 . S
C460 H476 0.931 . S
C461 C460 1.370 . S
C461 C465 1.408 . S
C462 C460 1.363 . S
C462 C463 1.370 . S
C462 C466 1.524 . S
C463 C455 1.503 . S
C463 C462 1.370 . S
C463 C464 1.403 . S
C464 C463 1.403 . S
C464 C465 1.404 . S
C464 C467 1.539 . S
C465 C461 1.408 . S
C465 C464 1.404 . S
C465 H477 0.930 . S
C466 C462 1.524 . S
C466 H478 0.956 . S
C466 H479 0.961 . S
C466 H480 0.961 . S
C467 C464 1.539 . S
C467 H481 0.958 . S
C467 H482 0.961 . S
C467 H483 0.960 . S
H468 C452 0.931 . S
H469 C457 0.929 . S
H470 C458 0.960 . S
H471 C458 0.962 . S
H472 C458 0.960 . S
H473 C459 0.961 . S
H474 C459 0.961 . S
H475 C459 0.961 . S
H476 C460 0.931 . S
H477 C465 0.930 . S
H478 C466 0.956 . S
H479 C466 0.961 . S
H480 C466 0.961 . S
H481 C467 0.958 . S
H482 C467 0.961 . S
H483 C467 0.960 . S
C484 C485 1.391 . S
C484 C486 1.394 . S
C484 H500 0.931 . S
C485 C484 1.391 . S
C485 C489 1.376 . S
C486 C484 1.394 . S
C486 C487 1.369 . S
C486 C490 1.531 . S
C487 C486 1.369 . S
C487 C488 1.410 . S
C487 C495 1.503 . S
C488 C487 1.410 . S
C488 C489 1.392 . S
C488 C491 1.511 . S
C489 C485 1.376 . S
C489 C488 1.392 . S
C489 H501 0.929 . S
C490 C486 1.531 . S
C490 H502 0.960 . S
C490 H503 0.962 . S
C490 H504 0.960 . S
C491 C488 1.511 . S
C491 H505 0.961 . S
C491 H506 0.961 . S
C491 H507 0.961 . S
C492 C493 1.370 . S
C492 C494 1.363 . S
C492 H508 0.931 . S
C493 C492 1.370 . S
C493 C497 1.408 . S
C494 C492 1.363 . S
C494 C495 1.370 . S
C494 C498 1.524 . S
C495 C487 1.503 . S
C495 C494 1.370 . S
C495 C496 1.403 . S
C496 C495 1.403 . S
C496 C497 1.404 . S
C496 C499 1.539 . S
C497 C493 1.408 . S
C497 C496 1.404 . S
C497 H509 0.930 . S
C498 C494 1.524 . S
C498 H510 0.956 . S
C498 H511 0.961 . S
C498 H512 0.961 . S
C499 C496 1.539 . S
C499 H513 0.958 . S
C499 H514 0.961 . S
C499 H515 0.960 . S
H500 C484 0.931 . S
H501 C489 0.929 . S
H502 C490 0.960 . S
H503 C490 0.962 . S
H504 C490 0.960 . S
H505 C491 0.961 . S
H506 C491 0.961 . S
H507 C491 0.961 . S
H508 C492 0.931 . S
H509 C497 0.930 . S
H510 C498 0.956 . S
H511 C498 0.961 . S
H512 C498 0.961 . S
H513 C499 0.958 . S
H514 C499 0.961 . S
H515 C499 0.960 . S
C516 C517 1.391 . S
C516 C518 1.394 . S
C516 H532 0.931 . S
C517 C516 1.391 . S
C517 C521 1.376 . S
C518 C516 1.394 . S
C518 C519 1.369 . S
C518 C522 1.531 1_455 S
C519 C518 1.369 . S
C519 C520 1.410 . S
C519 C527 1.503 . S
C520 C519 1.410 . S
C520 C521 1.392 . S
C520 C523 1.511 . S
C521 C517 1.376 . S
C521 C520 1.392 . S
C521 H533 0.929 . S
C522 C518 1.531 1_655 S
C522 H534 0.960 1_655 S
C522 H535 0.962 . S
C522 H536 0.960 1_655 S
C523 C520 1.511 . S
C523 H537 0.961 . S
C523 H538 0.961 . S
C523 H539 0.961 . S
C524 C525 1.370 1_655 S
C524 C526 1.363 . S
C524 H540 0.931 . S
C525 C524 1.370 1_455 S
C525 C529 1.408 . S
C526 C524 1.363 . S
C526 C527 1.370 1_656 S
C526 C530 1.524 1_556 S
C527 C519 1.503 . S
C527 C526 1.370 1_454 S
C527 C528 1.403 1_554 S
C528 C527 1.403 1_556 S
C528 C529 1.404 . S
C528 C531 1.539 1_556 S
C529 C525 1.408 . S
C529 C528 1.404 . S
C529 H541 0.930 . S
C530 C526 1.524 1_554 S
C530 H542 0.956 . S
C530 H543 0.961 . S
C530 H544 0.961 1_554 S
C531 C528 1.539 1_554 S
C531 H545 0.958 . S
C531 H546 0.961 1_554 S
C531 H547 0.960 . S
H532 C516 0.931 . S
H533 C521 0.929 . S
H534 C522 0.960 1_455 S
H535 C522 0.962 . S
H536 C522 0.960 1_455 S
H537 C523 0.961 . S
H538 C523 0.961 . S
H539 C523 0.961 . S
H540 C524 0.931 . S
H541 C529 0.930 . S
H542 C530 0.956 . S
H543 C530 0.961 . S
H544 C530 0.961 1_556 S
H545 C531 0.958 . S
H546 C531 0.961 1_556 S
H547 C531 0.960 . S
C548 C549 1.379 1_565 S
C548 C550 1.389 1_565 S
C548 H564 0.945 . S
C549 C548 1.379 1_545 S
C549 C553 1.376 . S
C550 C548 1.389 1_545 S
C550 C551 1.379 . S
C550 C554 1.523 1_545 S
C551 C550 1.379 . S
C551 C552 1.410 . S
C551 C559 1.503 . S
C552 C551 1.410 . S
C552 C553 1.392 . S
C552 C555 1.511 . S
C553 C549 1.376 . S
C553 C552 1.392 . S
C553 H565 0.929 . S
C554 C550 1.523 1_565 S
C554 H566 0.960 . S
C554 H567 0.962 . S
C554 H568 0.960 . S
C555 C552 1.511 . S
C555 H569 0.961 . S
C555 H570 0.961 . S
C555 H571 0.961 . S
C556 C557 1.370 . S
C556 C558 1.363 . S
C556 H572 0.931 . S
C557 C556 1.370 . S
C557 C561 1.408 . S
C558 C556 1.363 . S
C558 C559 1.370 . S
C558 C562 1.524 . S
C559 C551 1.503 . S
C559 C558 1.370 . S
C559 C560 1.403 . S
C560 C559 1.403 . S
C560 C561 1.404 . S
C560 C563 1.539 1_545 S
C561 C557 1.408 . S
C561 C560 1.404 . S
C561 H573 0.930 1_545 S
C562 C558 1.524 . S
C562 H574 0.956 . S
C562 H575 0.961 . S
C562 H576 0.961 . S
C563 C560 1.539 1_565 S
C563 H577 0.958 . S
C563 H578 0.961 . S
C563 H579 0.960 . S
H564 C548 0.945 . S
H565 C553 0.929 . S
H566 C554 0.960 . S
H567 C554 0.962 . S
H568 C554 0.960 . S
H569 C555 0.961 . S
H570 C555 0.961 . S
H571 C555 0.961 . S
H572 C556 0.931 . S
H573 C561 0.930 1_565 S
H574 C562 0.956 . S
H575 C562 0.961 . S
H576 C562 0.961 . S
H577 C563 0.958 . S
H578 C563 0.961 . S
H579 C563 0.960 . S
C580 C581 1.391 . S
C580 C582 1.394 . S
C580 H596 0.931 . S
C581 C580 1.391 . S
C581 C585 1.376 . S
C582 C580 1.394 . S
C582 C583 1.369 . S
C582 C586 1.531 . S
C583 C582 1.369 . S
C583 C584 1.410 . S
C583 C591 1.503 . S
C584 C583 1.410 . S
C584 C585 1.392 . S
C584 C587 1.511 . S
C585 C581 1.376 . S
C585 C584 1.392 . S
C585 H597 0.929 . S
C586 C582 1.531 . S
C586 H598 0.960 . S
C586 H599 0.962 . S
C586 H600 0.960 . S
C587 C584 1.511 . S
C587 H601 0.961 . S
C587 H602 0.961 . S
C587 H603 0.961 . S
C588 C589 1.370 . S
C588 C590 1.363 . S
C588 H604 0.931 . S
C589 C588 1.370 . S
C589 C593 1.408 . S
C590 C588 1.363 . S
C590 C591 1.370 . S
C590 C594 1.524 . S
C591 C583 1.503 . S
C591 C590 1.370 . S
C591 C592 1.403 . S
C592 C591 1.403 . S
C592 C593 1.404 . S
C592 C595 1.539 . S
C593 C589 1.408 . S
C593 C592 1.404 . S
C593 H605 0.930 . S
C594 C590 1.524 . S
C594 H606 0.956 . S
C594 H607 0.961 . S
C594 H608 0.961 . S
C595 C592 1.539 . S
C595 H609 0.958 . S
C595 H610 0.961 . S
C595 H611 0.960 . S
H596 C580 0.931 . S
H597 C585 0.929 . S
H598 C586 0.960 . S
H599 C586 0.962 . S
H600 C586 0.960 . S
H601 C587 0.961 . S
H602 C587 0.961 . S
H603 C587 0.961 . S
H604 C588 0.931 . S
H605 C593 0.930 . S
H606 C594 0.956 . S
H607 C594 0.961 . S
H608 C594 0.961 . S
H609 C595 0.958 . S
H610 C595 0.961 . S
H611 C595 0.960 . S
C612 C613 1.391 . S
C612 C614 1.394 . S
C612 H628 0.931 1_545 S
C613 C612 1.391 . S
C613 C617 1.376 . S
C614 C612 1.394 . S
C614 C615 1.369 . S
C614 C618 1.531 1_545 S
C615 C614 1.369 . S
C615 C616 1.410 . S
C615 C623 1.503 . S
C616 C615 1.410 . S
C616 C617 1.392 . S
C616 C619 1.511 . S
C617 C613 1.376 . S
C617 C616 1.392 . S
C617 H629 0.929 . S
C618 C614 1.531 1_565 S
C618 H630 0.960 . S
C618 H631 0.962 1_565 S
C618 H632 0.960 . S
C619 C616 1.511 . S
C619 H633 0.961 . S
C619 H634 0.961 . S
C619 H635 0.961 . S
C620 C621 1.370 . S
C620 C622 1.363 . S
C620 H636 0.931 . S
C621 C620 1.370 . S
C621 C625 1.408 1_545 S
C622 C620 1.363 . S
C622 C623 1.370 . S
C622 C626 1.524 . S
C623 C615 1.503 . S
C623 C622 1.370 . S
C623 C624 1.403 1_545 S
C624 C623 1.403 1_565 S
C624 C625 1.404 . S
C624 C627 1.539 . S
C625 C621 1.408 1_565 S
C625 C624 1.404 . S
C625 H637 0.930 . S
C626 C622 1.524 . S
C626 H638 0.956 . S
C626 H639 0.961 . S
C626 H640 0.961 . S
C627 C624 1.539 . S
C627 H641 0.958 . S
C627 H642 0.961 . S
C627 H643 0.960 . S
H628 C612 0.931 1_565 S
H629 C617 0.929 . S
H630 C618 0.960 . S
H631 C618 0.962 1_545 S
H632 C618 0.960 . S
H633 C619 0.961 . S
H634 C619 0.961 . S
H635 C619 0.961 . S
H636 C620 0.931 . S
H637 C625 0.930 . S
H638 C626 0.956 . S
H639 C626 0.961 . S
H640 C626 0.961 . S
H641 C627 0.958 . S
H642 C627 0.961 . S
H643 C627 0.960 . S
C644 C645 1.391 . S
C644 C646 1.394 . S
C644 H660 0.931 . S
C645 C644 1.391 . S
C645 C649 1.376 . S
C646 C644 1.394 . S
C646 C647 1.369 . S
C646 C650 1.531 . S
C647 C646 1.369 . S
C647 C648 1.410 . S
C647 C655 1.503 . S
C648 C647 1.410 . S
C648 C649 1.392 . S
C648 C651 1.511 . S
C649 C645 1.376 . S
C649 C648 1.392 . S
C649 H661 0.929 . S
C650 C646 1.531 . S
C650 H662 0.960 . S
C650 H663 0.962 . S
C650 H664 0.960 . S
C651 C648 1.511 . S
C651 H665 0.961 . S
C651 H666 0.961 . S
C651 H667 0.961 . S
C652 C653 1.370 . S
C652 C654 1.363 . S
C652 H668 0.931 . S
C653 C652 1.370 . S
C653 C657 1.408 . S
C654 C652 1.363 . S
C654 C655 1.370 1_554 S
C654 C658 1.524 1_554 S
C655 C647 1.503 . S
C655 C654 1.370 1_556 S
C655 C656 1.403 1_556 S
C656 C655 1.403 1_554 S
C656 C657 1.404 . S
C656 C659 1.539 . S
C657 C653 1.408 . S
C657 C656 1.404 . S
C657 H669 0.930 . S
C658 C654 1.524 1_556 S
C658 H670 0.956 . S
C658 H671 0.961 . S
C658 H672 0.958 1_556 S
C659 C656 1.539 . S
C659 H673 0.958 1_554 S
C659 H674 0.961 . S
C659 H675 0.960 1_554 S
H660 C644 0.931 . S
H661 C649 0.929 . S
H662 C650 0.960 . S
H663 C650 0.962 . S
H664 C650 0.960 . S
H665 C651 0.961 . S
H666 C651 0.961 . S
H667 C651 0.961 . S
H668 C652 0.931 . S
H669 C657 0.930 . S
H670 C658 0.956 . S
H671 C658 0.961 . S
H672 C658 0.958 1_554 S
H673 C659 0.958 1_556 S
H674 C659 0.961 . S
H675 C659 0.960 1_556 S
C676 C677 1.391 . S
C676 C678 1.394 . S
C676 H692 0.931 . S
C677 C676 1.391 . S
C677 C681 1.375 1_455 S
C678 C676 1.394 . S
C678 C679 1.369 . S
C678 C682 1.531 . S
C679 C678 1.369 . S
C679 C680 1.410 . S
C679 C687 1.503 . S
C680 C679 1.410 . S
C680 C681 1.392 1_455 S
C680 C683 1.511 1_455 S
C681 C677 1.375 1_655 S
C681 C680 1.392 1_655 S
C681 H693 0.930 . S
C682 C678 1.531 . S
C682 H694 0.960 . S
C682 H695 0.962 . S
C682 H696 0.960 . S
C683 C680 1.511 1_655 S
C683 H697 0.961 . S
C683 H698 0.961 . S
C683 H699 0.961 . S
C684 C685 1.370 1_655 S
C684 C686 1.363 . S
C684 H700 0.931 . S
C685 C684 1.370 1_455 S
C685 C689 1.408 . S
C686 C684 1.363 . S
C686 C687 1.370 1_655 S
C686 C690 1.524 . S
C687 C679 1.503 . S
C687 C686 1.370 1_455 S
C687 C688 1.403 . S
C688 C687 1.403 . S
C688 C689 1.404 . S
C688 C691 1.539 . S
C689 C685 1.408 . S
C689 C688 1.404 . S
C689 H701 0.930 . S
C690 C686 1.524 . S
C690 H702 0.956 . S
C690 H703 0.961 . S
C690 H704 0.961 . S
C691 C688 1.539 . S
C691 H705 0.958 . S
C691 H706 0.961 . S
C691 H707 0.960 . S
H692 C676 0.931 . S
H693 C681 0.930 . S
H694 C682 0.960 . S
H695 C682 0.962 . S
H696 C682 0.960 . S
H697 C683 0.961 . S
H698 C683 0.961 . S
H699 C683 0.961 . S
H700 C684 0.931 . S
H701 C689 0.930 . S
H702 C690 0.956 . S
H703 C690 0.961 . S
H704 C690 0.961 . S
H705 C691 0.958 . S
H706 C691 0.961 . S
H707 C691 0.960 . S
C133 C2 1.579 . S
C141 C126 1.699 . S
C165 C22 1.422 . S
C173 C100 1.492 . S
C197 C44 1.499 . S
C205 C112 1.528 . S
C229 C4 1.357 . S
C237 C124 1.346 . S
C269 C102 1.509 . S
C261 C24 1.381 . S
C301 C114 1.491 . S
C293 C42 1.390 . S
C325 C32 1.422 . S
C333 C76 1.398 . S
C357 C49 1.518 . S
C365 C90 1.517 . S
C389 C9 1.120 . S
C397 C66 1.184 . S
C429 C78 1.197 . S
C421 C29 1.097 . S
C461 C88 1.079 . S
C453 C52 1.055 . S
C485 C12 1.346 . S
C493 C64 1.325 . S
C525 C93 1.500 . S
C517 C18 1.488 . S
C549 C38 1.458 . S
C557 C69 1.468 . S
C581 C58 1.440 . S
C589 C81 1.497 . S
C621 C117 1.522 . S
C613 C39 1.510 . S
C653 C129 1.575 . S
C645 C59 1.539 . S
C677 C19 1.497 . S
C685 C105 1.515 . S
