# Generated by pormake.
# Topology pyr, (3,6)-cn, num edge types: 1
# Building blocks:
#     Node 0, Type 0, BuildingBlock: BETDAH_clean_linker_0, # of connection points: 3
#     Node 1, Type 0, BuildingBlock: BETDAH_clean_linker_0, # of connection points: 3
#     Node 2, Type 0, BuildingBlock: BETDAH_clean_linker_0, # of connection points: 3
#     Node 3, Type 0, BuildingBlock: BETDAH_clean_linker_0, # of connection points: 3
#     Node 4, Type 0, BuildingBlock: BETDAH_clean_linker_0, # of connection points: 3
#     Node 5, Type 0, BuildingBlock: BETDAH_clean_linker_0, # of connection points: 3
#     Node 6, Type 0, BuildingBlock: BETDAH_clean_linker_0, # of connection points: 3
#     Node 7, Type 0, BuildingBlock: BETDAH_clean_linker_0, # of connection points: 3
#     Node 8, Type 1, BuildingBlock: BETFAJ_clean_sbu_0, # of connection points: 6
#     Node 9, Type 1, BuildingBlock: BETFAJ_clean_sbu_0, # of connection points: 6
#     Node 10, Type 1, BuildingBlock: BETFAJ_clean_sbu_0, # of connection points: 6
#     Node 11, Type 1, BuildingBlock: BETFAJ_clean_sbu_0, # of connection points: 6
#     Edge 12, Type (0, 1), BuildingBlock: OJICUG_clean_linker_0, # of connection points: 2
#     Edge 13, Type (0, 1), BuildingBlock: OJICUG_clean_linker_0, # of connection points: 2
#     Edge 14, Type (0, 1), BuildingBlock: OJICUG_clean_linker_0, # of connection points: 2
#     Edge 15, Type (0, 1), BuildingBlock: OJICUG_clean_linker_0, # of connection points: 2
#     Edge 16, Type (0, 1), BuildingBlock: OJICUG_clean_linker_0, # of connection points: 2
#     Edge 17, Type (0, 1), BuildingBlock: OJICUG_clean_linker_0, # of connection points: 2
#     Edge 18, Type (0, 1), BuildingBlock: OJICUG_clean_linker_0, # of connection points: 2
#     Edge 19, Type (0, 1), BuildingBlock: OJICUG_clean_linker_0, # of connection points: 2
#     Edge 20, Type (0, 1), BuildingBlock: OJICUG_clean_linker_0, # of connection points: 2
#     Edge 21, Type (0, 1), BuildingBlock: OJICUG_clean_linker_0, # of connection points: 2
#     Edge 22, Type (0, 1), BuildingBlock: OJICUG_clean_linker_0, # of connection points: 2
#     Edge 23, Type (0, 1), BuildingBlock: OJICUG_clean_linker_0, # of connection points: 2
#     Edge 24, Type (0, 1), BuildingBlock: OJICUG_clean_linker_0, # of connection points: 2
#     Edge 25, Type (0, 1), BuildingBlock: OJICUG_clean_linker_0, # of connection points: 2
#     Edge 26, Type (0, 1), BuildingBlock: OJICUG_clean_linker_0, # of connection points: 2
#     Edge 27, Type (0, 1), BuildingBlock: OJICUG_clean_linker_0, # of connection points: 2
#     Edge 28, Type (0, 1), BuildingBlock: OJICUG_clean_linker_0, # of connection points: 2
#     Edge 29, Type (0, 1), BuildingBlock: OJICUG_clean_linker_0, # of connection points: 2
#     Edge 30, Type (0, 1), BuildingBlock: OJICUG_clean_linker_0, # of connection points: 2
#     Edge 31, Type (0, 1), BuildingBlock: OJICUG_clean_linker_0, # of connection points: 2
#     Edge 32, Type (0, 1), BuildingBlock: OJICUG_clean_linker_0, # of connection points: 2
#     Edge 33, Type (0, 1), BuildingBlock: OJICUG_clean_linker_0, # of connection points: 2
#     Edge 34, Type (0, 1), BuildingBlock: OJICUG_clean_linker_0, # of connection points: 2
#     Edge 35, Type (0, 1), BuildingBlock: OJICUG_clean_linker_0, # of connection points: 2
# Relax obj value: 0.215
# Max RMSD: 0.195
# Mean RMSD: 0.142
data_MOF--net-pyr--node1-BETFAJ_clean_sbu_0--node2-BETDAH_clean_linker_0--edge1-OJICUG_clean_linker_0
_symmetry_space_group_name_H-M    P1
_symmetry_Int_Tables_number       1
_symmetry_cell_setting            triclinic
loop_
_symmetry_equiv_pos_as_xyz
'x, y, z'
_cell_length_a     27.188035
_cell_length_b     30.006675
_cell_length_c     27.80143
_cell_angle_alpha  92.090003
_cell_angle_beta   90.103612
_cell_angle_gamma 109.06403
loop_
_atom_site_label
_atom_site_type_symbol
_atom_site_fract_x
_atom_site_fract_y
_atom_site_fract_z
_atom_type_partial_charge
H0 H 0.4569 0.28698 0.34124 0.0
H1 H 0.50177 0.35796 0.20881 0.0
H2 H 0.40676 0.4043 0.30921 0.0
C3 C 0.45807 0.31574 0.31828 0.0
C4 C 0.42978 0.34589 0.33095 0.0
C5 C 0.48333 0.31899 0.27402 0.0
C6 C 0.48363 0.35561 0.24372 0.0
C7 C 0.45578 0.3863 0.25599 0.0
C8 C 0.42914 0.38141 0.29982 0.0
N9 N 0.45146 0.41906 0.222 0.0
C10 C 0.40757 0.43302 0.2187 0.0
H11 H 0.27345 0.85579 0.80392 0.0
H12 H 0.14286 0.90251 0.77972 0.0
H13 H 0.16161 0.7877 0.69217 0.0
C14 C 0.23768 0.85217 0.78442 0.0
C15 C 0.22054 0.81747 0.7474 0.0
C16 C 0.21012 0.88308 0.79588 0.0
C17 C 0.1642 0.87864 0.77058 0.0
C18 C 0.14665 0.84447 0.73279 0.0
C19 C 0.17475 0.81369 0.72156 0.0
N20 N 0.10232 0.84214 0.70448 0.0
C21 C 0.08642 0.88141 0.70027 0.0
H22 H 0.73449 0.36835 1.01518 0.0
H23 H 0.73117 0.48166 0.92334 0.0
H24 H 0.60497 0.35038 0.92033 0.0
C25 C 0.7158 0.38284 0.98843 0.0
C26 C 0.66666 0.35409 0.9707 0.0
C27 C 0.73996 0.42979 0.9733 0.0
C28 C 0.7146 0.44621 0.93581 0.0
C29 C 0.66608 0.41708 0.91591 0.0
C30 C 0.64269 0.372 0.93459 0.0
N31 N 0.63626 0.43118 0.88001 0.0
C32 C 0.64858 0.46799 0.84725 0.0
H33 H 0.84638 0.79874 0.52526 0.0
H34 H 0.92645 0.82354 0.3909 0.0
H35 H 0.80416 0.69255 0.40998 0.0
C36 C 0.851 0.78691 0.48888 0.0
C37 C 0.81813 0.74227 0.47144 0.0
C38 C 0.88864 0.81781 0.46004 0.0
C39 C 0.89884 0.80026 0.41446 0.0
C40 C 0.87071 0.75379 0.39725 0.0
C41 C 0.82932 0.72582 0.42545 0.0
N42 N 0.87344 0.74141 0.34712 0.0
C43 C 0.90197 0.71444 0.32554 0.0
H44 H 0.75668 0.80724 0.88393 0.0
H45 H 0.64258 0.75886 0.99386 0.0
H46 H 0.63646 0.8697 0.90236 0.0
C47 C 0.72174 0.80842 0.90186 0.0
C48 C 0.69878 0.84176 0.88845 0.0
C49 C 0.7025 0.77884 0.94019 0.0
C50 C 0.65754 0.78101 0.96373 0.0
C51 C 0.63319 0.81337 0.9499 0.0
C52 C 0.65405 0.84368 0.91221 0.0
N53 N 0.58954 0.81666 0.97597 0.0
C54 C 0.57688 0.858 0.97891 0.0
H55 H 0.95498 0.28518 0.36911 0.0
H56 H 0.98595 0.34893 0.51182 0.0
H57 H 0.90934 0.40599 0.40681 0.0
C58 C 0.95517 0.31341 0.39468 0.0
C59 C 0.93202 0.34684 0.3818 0.0
C60 C 0.97393 0.31323 0.44164 0.0
C61 C 0.9729 0.34923 0.47501 0.0
C62 C 0.94932 0.38248 0.46282 0.0
C63 C 0.92881 0.38114 0.41612 0.0
N64 N 0.94223 0.41399 0.49929 0.0
C65 C 0.89698 0.42588 0.50137 0.0
H66 H 0.35261 0.83002 0.20292 0.0
H67 H 0.35402 0.71423 0.29213 0.0
H68 H 0.48181 0.84422 0.29699 0.0
C69 C 0.37087 0.8146 0.22916 0.0
C70 C 0.42033 0.84243 0.24716 0.0
C71 C 0.34596 0.7674 0.24345 0.0
C72 C 0.37097 0.74987 0.28031 0.0
C73 C 0.41974 0.77805 0.30044 0.0
C74 C 0.44386 0.82335 0.2826 0.0
N75 N 0.44909 0.76258 0.33566 0.0
C76 C 0.43559 0.72547 0.36804 0.0
H77 H 0.24951 0.39374 0.69551 0.0
H78 H 0.24364 0.5136 0.78219 0.0
H79 H 0.11612 0.38293 0.78311 0.0
C80 C 0.2291 0.40911 0.72113 0.0
C81 C 0.1797 0.38157 0.73703 0.0
C82 C 0.25243 0.45684 0.73594 0.0
C83 C 0.22739 0.47653 0.7717 0.0
C84 C 0.17858 0.44927 0.79032 0.0
C85 C 0.15515 0.40233 0.77191 0.0
N86 N 0.14606 0.47101 0.81618 0.0
C87 C 0.15245 0.49244 0.86282 0.0
Sm88 Sm 0.07994 0.10877 0.56778 0.0
Sm89 Sm 0.98217 0.09953 0.61229 0.0
C90 C 0.16049 0.1215 0.51091 0.0
C91 C 0.20088 0.16296 0.49345 0.0
C92 C 0.19156 0.20602 0.48905 0.0
C93 C 0.23029 0.24503 0.47158 0.0
C94 C 0.27899 0.24161 0.459 0.0
C95 C 0.2885 0.19877 0.46501 0.0
C96 C 0.2497 0.15976 0.48206 0.0
C97 C 0.06653 0.05604 0.64926 0.0
C98 C 0.08238 0.19326 0.64395 0.0
C99 C 0.90222 0.09037 0.66966 0.0
C100 C 0.86632 0.051 0.69451 0.0
C101 C 0.87738 1.00874 0.6978 0.0
C102 C 0.84635 0.97289 0.72565 0.0
C103 C 0.80363 0.97869 0.75025 0.0
C104 C 0.79101 1.02005 0.74482 0.0
C105 C 0.82245 0.0562 0.7172 0.0
C106 C 0.99626 0.15127 0.53027 0.0
C107 C 0.98092 1.01288 0.53822 0.0
O108 O 0.11313 0.11424 0.4947 0.0
O109 O 0.16264 0.11495 0.55697 0.0
O110 O 0.03226 0.0533 0.61783 0.0
O111 O 0.10917 0.08923 0.63918 0.0
O112 O 0.1034 0.18323 0.60405 0.0
O113 O 0.03841 0.16281 0.65884 0.0
O114 O 0.95054 0.10331 0.68499 0.0
O115 O 0.898 0.08823 0.62276 0.0
O116 O 0.02991 0.15511 0.56255 0.0
O117 O 0.95333 0.11874 0.54053 0.0
O118 O 0.95861 1.02443 0.57674 0.0
O119 O 1.02579 1.04241 0.5238 0.0
H120 H 0.15419 0.20927 0.49851 0.0
H121 H 0.22201 0.27763 0.46735 0.0
H122 H 0.32532 0.19481 0.45477 0.0
H123 H 0.25756 0.12688 0.48568 0.0
H124 H 0.91098 1.00415 0.68009 0.0
H125 H 0.8565 0.94108 0.72902 0.0
H126 H 0.75842 1.02531 0.76373 0.0
H127 H 0.81348 0.08868 0.71476 0.0
Sm128 Sm 0.59887 0.10865 0.12487 0.0
Sm129 Sm 0.49285 0.09189 0.10262 0.0
C130 C 0.69921 0.14172 0.14813 0.0
C131 C 0.73753 0.18498 0.16796 0.0
C132 C 0.7876 0.18466 0.17877 0.0
C133 C 0.82271 0.22286 0.20397 0.0
C134 C 0.80824 0.26215 0.21885 0.0
C135 C 0.75885 0.26348 0.20526 0.0
C136 C 0.72364 0.22504 0.18 0.0
C137 C 0.53531 1.02469 0.16335 0.0
C138 C 0.53653 0.16365 0.18773 0.0
C139 C 0.39129 0.06004 0.08403 0.0
C140 C 0.35712 1.04555 1.04156 0.0
C141 C 0.31177 1.00653 1.04395 0.0
C142 C 0.28255 0.98777 1.00234 0.0
C143 C 0.29829 1.00792 0.95767 0.0
C144 C 0.34204 1.04893 0.95604 0.0
C145 C 0.37149 0.06742 0.99763 0.0
C146 C 0.55549 0.17453 0.0611 0.0
C147 C 0.55536 1.03353 1.03896 0.0
O148 O 0.68129 0.14332 0.10487 0.0
O149 O 0.66313 0.11917 0.17768 0.0
O150 O 0.52574 0.06349 0.16485 0.0
O151 O 0.57925 1.0302 0.1424 0.0
O152 O 0.5802 0.16989 0.16466 0.0
O153 O 0.49708 0.12532 0.17798 0.0
O154 O 0.41844 1.03269 0.09369 0.0
O155 O 0.41819 0.10475 0.08929 0.0
O156 O 0.56573 0.1361 0.06161 0.0
O157 O 0.51096 0.16894 0.08076 0.0
O158 O 0.50966 1.03554 0.05243 0.0
O159 O 0.59845 0.06407 0.05686 0.0
H160 H 0.79876 0.15387 0.16973 0.0
H161 H 0.85993 0.22008 0.21449 0.0
H162 H 0.7467 0.29335 0.2158 0.0
H163 H 0.68502 0.22581 0.17158 0.0
H164 H 0.30034 0.9892 0.07763 0.0
H165 H 0.24954 0.95581 1.00479 0.0
H166 H 0.35471 0.06559 0.92227 0.0
H167 H 0.40652 0.09761 0.99508 0.0
Sm168 Sm 0.53463 0.55307 0.57891 0.0
Sm169 Sm 0.54255 0.63565 0.63611 0.0
C170 C 0.55491 0.48299 0.53121 0.0
C171 C 0.60393 0.4727 0.52663 0.0
C172 C 0.64909 0.5031 0.54949 0.0
C173 C 0.69653 0.4951 0.54414 0.0
C174 C 0.69982 0.4565 0.51571 0.0
C175 C 0.65427 0.4258 0.49311 0.0
C176 C 0.60665 0.43393 0.49849 0.0
C177 C 0.44146 0.54383 0.62641 0.0
C178 C 0.58945 0.56338 0.68766 0.0
C179 C 0.52306 0.70571 0.68459 0.0
C180 C 0.47642 0.71971 0.69043 0.0
C181 C 0.43386 0.70198 0.65843 0.0
C182 C 0.38838 0.71323 0.66586 0.0
C183 C 0.38453 0.74179 0.70586 0.0
C184 C 0.42739 0.7596 0.73771 0.0
C185 C 0.47297 0.74865 0.73 0.0
C186 C 0.63578 0.64559 0.58807 0.0
C187 C 0.48958 0.62639 0.527 0.0
O188 O 0.55464 0.52158 0.51132 0.0
O189 O 0.53486 0.47889 0.57408 0.0
O190 O 0.48672 0.56154 0.64436 0.0
O191 O 0.44455 0.52953 0.58223 0.0
O192 O 0.58833 0.54636 0.64289 0.0
O193 O 0.56929 0.5972 0.69656 0.0
O194 O 0.52048 0.66592 0.70349 0.0
O195 O 0.54367 0.7101 0.64193 0.0
O196 O 0.59038 0.6271 0.5706 0.0
O197 O 0.63245 0.66084 0.63184 0.0
O198 O 0.48953 0.64267 0.5719 0.0
O199 O 0.51004 0.59274 0.51817 0.0
H200 H 0.64776 0.53336 0.57122 0.0
H201 H 0.73057 0.51899 0.56265 0.0
H202 H 0.65561 0.39598 0.47064 0.0
H203 H 0.57216 0.41029 0.48037 0.0
H204 H 0.43544 0.67892 0.62808 0.0
H205 H 0.3559 0.69882 0.64095 0.0
H206 H 0.42578 0.78228 0.76847 0.0
H207 H 0.5053 0.76236 0.75522 0.0
Sm208 Sm 0.04123 0.55915 0.13467 0.0
Sm209 Sm 0.04432 0.63902 0.08162 0.0
C210 C 0.0666 0.48933 0.17205 0.0
C211 C 0.11705 0.4825 0.1806 0.0
C212 C 0.1614 0.50944 0.15628 0.0
C213 C 0.20926 0.50269 0.16363 0.0
C214 C 0.21379 0.46881 0.19544 0.0
C215 C 0.16931 0.44227 0.22023 0.0
C216 C 0.12132 0.44908 0.21282 0.0
C217 C 0.98813 0.61185 0.18348 0.0
C218 C 0.14639 0.65551 0.14793 0.0
C219 C 1.01754 0.7074 1.04339 0.0
C220 C 0.96666 0.71127 1.02987 0.0
C221 C 0.92308 0.69369 0.05935 0.0
C222 C 0.87488 0.69712 1.04595 0.0
C223 C 0.86919 0.71748 1.00248 0.0
C224 C 0.91269 0.73431 0.97272 0.0
C225 C 0.96099 0.73132 0.98637 0.0
C226 C 0.09679 0.5861 1.03236 0.0
C227 C 0.93905 0.54295 0.06826 0.0
O228 O 0.05352 0.48974 0.12689 0.0
O229 O 0.05739 0.52264 0.19825 0.0
O230 O 0.03119 0.62854 0.16202 0.0
O231 O 0.97206 0.56603 0.17924 0.0
O232 O 0.12537 0.60973 0.15406 0.0
O233 O 0.12172 0.67761 0.12187 0.0
O234 O 1.02642 0.70588 0.08939 0.0
O235 O 0.03286 0.6773 1.01758 0.0
O236 O 0.05379 0.56956 0.05407 0.0
O237 O 0.11351 0.63189 1.03741 0.0
O238 O 0.96054 0.5885 0.06124 0.0
O239 O 0.96322 0.52105 0.09513 0.0
H240 H 0.15897 0.53554 0.1313 0.0
H241 H 0.2428 0.52421 0.14452 0.0
H242 H 0.17134 0.41558 0.24461 0.0
H243 H 0.08749 0.42799 0.2319 0.0
H244 H 0.92622 0.67733 0.09281 0.0
H245 H 0.842 0.68365 0.06941 0.0
H246 H 0.90965 0.75078 0.93932 0.0
H247 H 0.99397 0.74477 0.963 0.0
C248 C 0.40862 0.31785 0.41438 0.0
C249 C 0.3933 0.33342 0.37157 0.0
H250 H 0.38384 0.27672 0.47655 0.0
C251 C 0.34036 0.32721 0.36368 0.0
H252 H 0.44929 0.32289 0.42167 0.0
C253 C 0.30298 0.30082 0.39503 0.0
C254 C 0.31804 0.28028 0.43464 0.0
H255 H 0.32734 0.3386 0.33089 0.0
H256 H 0.26223 0.29286 0.38568 0.0
C257 C 0.37124 0.29134 0.44562 0.0
C258 C 0.28372 0.94694 0.8351 0.0
C259 C 0.23057 0.92044 0.83378 0.0
H260 H 0.34674 0.99512 0.87534 0.0
C261 C 0.19832 0.92756 0.87057 0.0
H262 H 0.30923 0.94271 0.80667 0.0
C263 C 0.2197 0.95833 0.90979 0.0
C264 C 0.27358 0.98245 0.91267 0.0
H265 H 0.15714 0.90763 0.87022 0.0
H266 H 0.1944 0.96194 0.93866 0.0
C267 C 0.30504 0.97751 0.87416 0.0
C268 C 0.62442 0.5357 0.81554 0.0
C269 C 0.64249 0.49717 0.80717 0.0
H270 H 0.59427 0.58681 0.78536 0.0
C271 C 0.64584 0.48243 0.75892 0.0
H272 H 0.62016 0.54748 0.85212 0.0
C273 C 0.63056 0.50478 0.72032 0.0
C274 C 0.61097 0.54257 0.72858 0.0
H275 H 0.65845 0.45228 0.75098 0.0
H276 H 0.6326 0.49136 0.68395 0.0
C277 C 0.60915 0.55812 0.77699 0.0
C278 C 0.90336 0.63936 0.28357 0.0
C279 C 0.92636 0.68825 0.29251 0.0
H280 H 0.90426 0.57737 0.24263 0.0
C281 C 0.97001 0.71209 0.26511 0.0
H282 H 0.86922 0.61995 0.30329 0.0
C283 C 0.99011 0.68769 0.22985 0.0
C284 C 0.96698 0.63868 0.2207 0.0
H285 H 0.98819 0.74988 0.27038 0.0
H286 H 1.02362 0.70734 0.2095 0.0
C287 C 0.92336 0.61499 0.24837 0.0
C288 C 0.46894 0.23269 0.26241 0.0
C289 C 0.50115 0.27951 0.25654 0.0
H290 H 0.45541 0.15951 0.24617 0.0
C291 C 0.54798 0.28764 0.23161 0.0
H292 H 0.43211 0.2251 0.28066 0.0
C293 C 0.56142 0.24965 0.21174 0.0
C294 C 0.52787 0.20301 0.21597 0.0
H295 H 0.5736 0.3233 0.22669 0.0
H296 H 0.59682 0.25699 0.19121 0.0
C297 C 0.48215 0.19496 0.24243 0.0
C298 C 0.11995 0.96786 0.70342 0.0
C299 C 0.07815 0.92603 0.69544 0.0
H300 H 0.14865 1.04274 0.69628 0.0
C301 C 0.03019 0.92796 0.67924 0.0
H302 H 0.15729 0.96685 0.71608 0.0
C303 C 1.02503 0.97132 0.66817 0.0
C304 C 0.06802 1.01313 0.67275 0.0
H305 H 0.99749 0.89588 0.67309 0.0
H306 H 0.98834 0.97169 0.65322 0.0
C307 C 0.11491 1.01121 0.69233 0.0
C308 C 0.80416 0.45164 1.04513 0.0
C309 C 0.79053 0.46088 0.99811 0.0
H310 H 0.86073 0.46864 0.10293 0.0
C311 C 0.82627 0.49967 0.9757 0.0
H312 H 0.7779 0.42423 0.06574 0.0
C313 C 0.87348 0.52701 0.99884 0.0
C314 C 0.88746 0.5159 1.04467 0.0
H315 H 0.81859 0.50865 0.93978 0.0
H316 H 0.89987 0.55609 0.98011 0.0
C317 C 0.85195 0.47784 0.06735 0.0
C318 C 0.74597 0.66642 0.49602 0.0
C319 C 0.77046 0.71592 0.50041 0.0
H320 H 0.68404 0.60546 0.51925 0.0
C321 C 0.74817 0.74097 0.53312 0.0
H322 H 0.76098 0.64523 0.47162 0.0
C323 C 0.7057 0.71784 0.5617 0.0
C324 C 0.68186 0.66879 0.55759 0.0
H325 H 0.76273 0.77906 0.53663 0.0
H326 H 0.6906 0.73878 0.58644 0.0
C327 C 0.70188 0.64333 0.52372 0.0
C328 C 0.32903 0.44484 0.25349 0.0
C329 C 0.36006 0.44405 0.21349 0.0
H330 H 0.25848 0.4538 0.27929 0.0
C331 C 0.34353 0.45185 0.1678 0.0
H332 H 0.34115 0.43879 0.28909 0.0
C333 C 0.29621 0.46017 0.16202 0.0
C334 C 0.26453 0.4607 0.20192 0.0
H335 H 0.36687 0.45092 0.13646 0.0
H336 H 0.28395 0.46522 0.12613 0.0
C337 C 0.2816 0.45308 0.24778 0.0
C338 C 0.58566 0.29431 1.00354 0.0
C339 C 0.63873 0.30664 0.99196 0.0
H340 H 0.51887 0.24425 1.03413 0.0
C341 C 0.66437 0.27385 1.0023 0.0
H342 H 0.56444 0.31845 0.99701 0.0
C343 C 0.63766 0.23032 1.02331 0.0
C344 C 0.58475 0.21868 1.03547 0.0
H345 H 0.70514 0.28176 0.99394 0.0
H346 H 0.65869 0.20629 1.03098 0.0
C347 C 0.55943 0.25151 1.02518 0.0
C348 C 0.96464 0.89631 0.46659 0.0
C349 C 0.91294 0.86912 0.47703 0.0
H350 H 1.02671 0.96266 0.47717 0.0
C351 C 0.88368 0.89145 0.50499 0.0
H352 H 0.98869 0.88092 0.44524 0.0
C353 C 0.90562 0.93782 0.52376 0.0
C354 C 0.9575 0.96453 0.51459 0.0
H355 H 0.84324 0.87307 0.51268 0.0
H356 H 0.88161 0.95276 0.54576 0.0
C357 C 0.98654 0.94336 0.48501 0.0
C358 C 0.27543 0.76927 0.77094 0.0
C359 C 0.25388 0.78861 0.7344 0.0
H360 H 0.3335 0.73907 0.7904 0.0
C361 C 0.27116 0.78688 0.687 0.0
H362 H 0.26235 0.76968 0.8077 0.0
C363 C 0.31211 0.76943 0.6771 0.0
C364 C 0.33637 0.75362 0.71449 0.0
H365 H 0.25552 0.80193 0.65827 0.0
H366 H 0.32677 0.77094 0.64078 0.0
C367 C 0.31634 0.7521 0.76112 0.0
C368 C 0.77921 0.89695 0.85343 0.0
C369 C 0.72466 0.87707 0.85267 0.0
H370 H 0.8465 0.94433 0.82147 0.0
C371 C 0.69578 0.89159 0.81813 0.0
H372 H 0.80262 0.88781 0.88048 0.0
C373 C 0.72119 0.92488 0.78468 0.0
C374 C 0.77576 0.94361 0.78503 0.0
H375 H 0.65373 0.87682 0.81659 0.0
H376 H 0.69837 0.93546 0.75815 0.0
C377 C 0.80443 0.92951 0.81979 0.0
C378 C 0.92672 0.33069 0.29291 0.0
C379 C 0.90334 0.3397 0.33548 0.0
H380 H 0.91479 0.30073 0.22113 0.0
C381 C 0.84967 0.33248 0.33541 0.0
H382 H 0.96819 0.33652 0.29207 0.0
C383 C 0.81896 0.31126 0.29523 0.0
C384 C 0.84157 0.29725 0.2544 0.0
H385 H 0.8307 0.33891 0.36792 0.0
H386 H 0.77712 0.30188 0.29808 0.0
C387 C 0.89611 0.30998 0.25252 0.0
C388 C 0.4584 0.65687 0.39908 0.0
C389 C 0.4403 0.69534 0.4077 0.0
H390 H 0.48742 0.60492 0.42901 0.0
C391 C 0.43557 0.70906 0.45603 0.0
H392 H 0.46368 0.64588 0.36245 0.0
C393 C 0.4496 0.68576 0.4945 0.0
C394 C 0.46925 0.64805 0.48603 0.0
H395 H 0.42288 0.73913 0.46418 0.0
H396 H 0.44657 0.69844 0.53098 0.0
C397 C 0.47241 0.63351 0.43751 0.0
C398 C 0.10281 0.48965 0.93925 0.0
C399 C 0.14361 0.51429 0.90918 0.0
H400 H 0.05626 0.49225 1.0014 0.0
C401 C 0.17069 0.56188 0.92166 0.0
H402 H 0.08055 0.45315 0.93038 0.0
C403 C 0.15669 0.58443 0.96244 0.0
C404 C 0.1148 0.56026 0.99187 0.0
H405 H 0.20174 0.5822 0.89905 0.0
H406 H 0.17786 0.6214 0.97008 0.0
C407 C 0.08869 0.5122 0.97999 0.0
C408 C 0.61254 0.94441 0.98525 0.0
C409 C 0.56932 0.90322 0.98509 0.0
H410 H 0.64184 1.01877 1.00122 0.0
C411 C 0.52006 0.90615 0.99536 0.0
H412 H 0.65088 0.94266 0.9772 0.0
C413 C 0.51459 0.94972 1.00873 0.0
C414 C 0.55852 0.99079 1.01248 0.0
H415 H 0.48626 0.87454 0.99532 0.0
H416 H 0.47654 0.95055 1.01923 0.0
C417 C 0.60723 0.98791 0.99881 0.0
C418 C 0.02829 0.27569 0.48834 0.0
C419 C 0.98541 0.27115 0.45805 0.0
H420 H 0.06633 0.24068 0.53402 0.0
C421 C 0.94986 0.22589 0.44722 0.0
H422 H 0.05634 0.31011 0.49705 0.0
C423 C 0.95527 0.18635 0.46853 0.0
C424 C 0.99646 0.19121 0.50085 0.0
H425 H 0.91605 0.22129 0.42446 0.0
H426 H 0.92583 0.1523 0.46145 0.0
C427 C 0.03406 0.23594 0.50924 0.0
C428 C 0.2597 0.69739 0.24004 0.0
C429 C 0.29501 0.73707 0.21853 0.0
H430 H 0.18657 0.64047 0.2348 0.0
C431 C 0.28073 0.74765 0.17224 0.0
H432 H 0.26768 0.68736 0.27542 0.0
C433 C 0.2329 0.72165 0.14988 0.0
C434 C 0.19796 0.68254 0.17163 0.0
H435 H 0.3065 0.7759 0.15225 0.0
H436 H 0.22365 0.73181 0.11489 0.0
C437 C 0.2125 0.67032 0.21673 0.0
C438 C 0.29975 0.48147 0.65833 0.0
C439 C 0.29988 0.48546 0.70907 0.0
H440 H 0.34317 0.49651 0.59318 0.0
C441 C 0.34665 0.51264 0.73249 0.0
H442 H 0.26449 0.46138 0.6388 0.0
C443 C 0.39245 0.53297 0.7059 0.0
C444 C 0.3925 0.52679 0.65525 0.0
H445 H 0.34843 0.51645 0.7714 0.0
H446 H 0.42817 0.55232 0.72512 0.0
C447 C 0.34508 0.50169 0.63199 0.0
C448 C 0.75049 0.75708 1.00744 0.0
C449 C 0.73472 0.75155 0.95881 0.0
H450 H 0.80593 0.75078 0.05941 0.0
C451 C 0.75827 0.72782 0.92647 0.0
H452 H 0.73345 0.77563 1.03308 0.0
C453 C 0.80015 0.71421 0.94136 0.0
C454 C 0.819 0.7236 0.98899 0.0
H455 H 0.74647 0.72258 0.88888 0.0
H456 H 0.81932 0.69825 0.91507 0.0
C457 C 0.79226 0.74314 1.02243 0.0
C458 C 0.42472 0.92447 0.21918 0.0
C459 C 0.4491 0.89024 0.22704 0.0
H460 H 0.43238 0.99389 0.19426 0.0
C461 C 0.50187 0.90171 0.21456 0.0
H462 H 0.38423 0.91724 0.22832 0.0
C463 C 0.52904 0.94515 0.19452 0.0
C464 C 0.50504 0.97951 0.18689 0.0
H465 H 0.52211 0.87647 0.21928 0.0
H466 H 0.56931 0.95178 0.18485 0.0
C467 C 0.45242 0.96865 0.19988 0.0
C468 C 0.11813 0.29581 0.73908 0.0
C469 C 0.15307 0.33289 0.71389 0.0
H470 H 0.06836 0.22305 0.73732 0.0
C471 C 0.16275 0.32302 0.6654 0.0
H472 H 0.10938 0.30139 0.77633 0.0
C473 C 0.14031 0.27797 0.64361 0.0
C474 C 0.10606 0.24091 0.6688 0.0
H475 H 0.18741 0.35033 0.6435 0.0
H476 H 0.14933 0.27248 0.60638 0.0
C477 C 0.09472 0.2506 0.71676 0.0
C478 C 0.84482 0.47933 0.50118 0.0
C479 C 0.84757 0.43373 0.50359 0.0
H480 H 0.79554 0.52227 0.50224 0.0
C481 C 0.80195 0.39539 0.50854 0.0
H482 H 0.87981 0.50925 0.49704 0.0
C483 C 0.75379 0.40263 0.51178 0.0
C484 C 0.75064 0.44841 0.51013 0.0
H485 H 0.80359 0.35988 0.51038 0.0
H486 H 0.71923 0.37252 0.51668 0.0
C487 C 0.7967 0.48666 0.50439 0.0
loop_
_geom_bond_atom_site_label_1
_geom_bond_atom_site_label_2
_geom_bond_distance
_geom_bond_site_symmetry_2
_ccdc_geom_bond_type
H0 C3 0.929 . S
H1 C6 0.929 . S
H2 C8 0.930 . S
C3 H0 0.929 . S
C3 C4 1.398 . S
C3 C5 1.396 . S
C4 C3 1.398 . S
C4 C8 1.407 . S
C5 C3 1.396 . S
C5 C6 1.394 . S
C6 H1 0.929 . S
C6 C5 1.394 . S
C6 C7 1.382 . S
C7 C6 1.382 . S
C7 C8 1.392 . S
C7 N9 1.420 . S
C8 H2 0.930 . S
C8 C4 1.407 . S
C8 C7 1.392 . S
N9 C7 1.420 . S
N9 C10 1.244 . S
C10 N9 1.244 . S
H11 C14 0.929 . S
H12 C17 0.929 . S
H13 C19 0.930 . S
C14 H11 0.929 . S
C14 C15 1.398 . S
C14 C16 1.396 . S
C15 C14 1.398 . S
C15 C19 1.407 . S
C16 C14 1.396 . S
C16 C17 1.394 . S
C17 H12 0.929 . S
C17 C16 1.394 . S
C17 C18 1.382 . S
C18 C17 1.382 . S
C18 C19 1.392 . S
C18 N20 1.420 . S
C19 H13 0.930 . S
C19 C15 1.407 . S
C19 C18 1.392 . S
N20 C18 1.420 . S
N20 C21 1.244 . S
C21 N20 1.244 . S
H22 C25 0.929 . S
H23 C28 0.929 . S
H24 C30 0.930 . S
C25 H22 0.929 . S
C25 C26 1.398 . S
C25 C27 1.396 . S
C26 C25 1.398 . S
C26 C30 1.407 . S
C27 C25 1.396 . S
C27 C28 1.394 . S
C28 H23 0.929 . S
C28 C27 1.394 . S
C28 C29 1.382 . S
C29 C28 1.382 . S
C29 C30 1.392 . S
C29 N31 1.420 . S
C30 H24 0.930 . S
C30 C26 1.407 . S
C30 C29 1.392 . S
N31 C29 1.420 . S
N31 C32 1.244 . S
C32 N31 1.244 . S
H33 C36 0.929 . S
H34 C39 0.929 . S
H35 C41 0.930 . S
C36 H33 0.929 . S
C36 C37 1.398 . S
C36 C38 1.396 . S
C37 C36 1.398 . S
C37 C41 1.407 . S
C38 C36 1.396 . S
C38 C39 1.394 . S
C39 H34 0.929 . S
C39 C38 1.394 . S
C39 C40 1.382 . S
C40 C39 1.382 . S
C40 C41 1.392 . S
C40 N42 1.420 . S
C41 H35 0.930 . S
C41 C37 1.407 . S
C41 C40 1.392 . S
N42 C40 1.420 . S
N42 C43 1.244 . S
C43 N42 1.244 . S
H44 C47 0.929 . S
H45 C50 0.929 . S
H46 C52 0.930 . S
C47 H44 0.929 . S
C47 C48 1.398 . S
C47 C49 1.396 . S
C48 C47 1.398 . S
C48 C52 1.407 . S
C49 C47 1.396 . S
C49 C50 1.394 . S
C50 H45 0.929 . S
C50 C49 1.394 . S
C50 C51 1.382 . S
C51 C50 1.382 . S
C51 C52 1.392 . S
C51 N53 1.420 . S
C52 H46 0.930 . S
C52 C48 1.407 . S
C52 C51 1.392 . S
N53 C51 1.420 . S
N53 C54 1.244 . S
C54 N53 1.244 . S
H55 C58 0.929 . S
H56 C61 0.929 . S
H57 C63 0.930 . S
C58 H55 0.929 . S
C58 C59 1.398 . S
C58 C60 1.396 . S
C59 C58 1.398 . S
C59 C63 1.407 . S
C60 C58 1.396 . S
C60 C61 1.394 . S
C61 H56 0.929 . S
C61 C60 1.394 . S
C61 C62 1.382 . S
C62 C61 1.382 . S
C62 C63 1.392 . S
C62 N64 1.420 . S
C63 H57 0.930 . S
C63 C59 1.407 . S
C63 C62 1.392 . S
N64 C62 1.420 . S
N64 C65 1.244 . S
C65 N64 1.244 . S
H66 C69 0.929 . S
H67 C72 0.929 . S
H68 C74 0.930 . S
C69 H66 0.929 . S
C69 C70 1.398 . S
C69 C71 1.396 . S
C70 C69 1.398 . S
C70 C74 1.407 . S
C71 C69 1.396 . S
C71 C72 1.394 . S
C72 H67 0.929 . S
C72 C71 1.394 . S
C72 C73 1.382 . S
C73 C72 1.382 . S
C73 C74 1.392 . S
C73 N75 1.420 . S
C74 H68 0.930 . S
C74 C70 1.407 . S
C74 C73 1.392 . S
N75 C73 1.420 . S
N75 C76 1.244 . S
C76 N75 1.244 . S
H77 C80 0.929 . S
H78 C83 0.929 . S
H79 C85 0.930 . S
C80 H77 0.929 . S
C80 C81 1.398 . S
C80 C82 1.396 . S
C81 C80 1.398 . S
C81 C85 1.407 . S
C82 C80 1.396 . S
C82 C83 1.394 . S
C83 H78 0.929 . S
C83 C82 1.394 . S
C83 C84 1.382 . S
C84 C83 1.382 . S
C84 C85 1.392 . S
C84 N86 1.420 . S
C85 H79 0.930 . S
C85 C81 1.407 . S
C85 C84 1.392 . S
N86 C84 1.420 . S
N86 C87 1.244 . S
C87 N86 1.244 . S
Sm88 C90 2.846 . S
Sm88 O108 2.543 . S
Sm88 O109 2.450 . S
Sm88 O110 2.681 . S
Sm88 O111 2.464 . S
Sm88 O112 2.396 . S
Sm88 O116 2.386 1_455 S
Sm88 O119 2.408 1_445 S
Sm89 C99 2.846 1_545 S
Sm89 O110 2.386 1_655 S
Sm89 O113 2.408 1_655 S
Sm89 O114 2.543 1_545 S
Sm89 O115 2.450 1_545 S
Sm89 O116 2.681 . S
Sm89 O117 2.464 . S
Sm89 O118 2.396 1_545 S
C90 Sm88 2.846 . S
C90 C91 1.506 . S
C90 O108 1.261 . S
C90 O109 1.242 . S
C91 C90 1.506 . S
C91 C92 1.358 . S
C91 C96 1.382 . S
C92 C91 1.358 . S
C92 C93 1.385 . S
C92 H120 0.930 . S
C93 C92 1.385 . S
C93 C94 1.395 . S
C93 H121 0.929 . S
C94 C93 1.395 . S
C94 C95 1.335 . S
C95 C94 1.335 . S
C95 C96 1.398 . S
C95 H122 0.930 . S
C96 C91 1.382 . S
C96 C95 1.398 . S
C96 H123 0.929 . S
C97 O110 1.271 1_565 S
C97 O111 1.251 1_565 S
C98 O112 1.252 . S
C98 O113 1.272 . S
C99 Sm89 2.846 1_565 S
C99 C100 1.506 . S
C99 O114 1.261 . S
C99 O115 1.242 . S
C100 C99 1.506 . S
C100 C101 1.358 . S
C100 C105 1.382 . S
C101 C100 1.358 . S
C101 C102 1.385 . S
C101 H124 0.930 . S
C102 C101 1.385 . S
C102 C103 1.395 . S
C102 H125 0.929 . S
C103 C102 1.395 . S
C103 C104 1.335 . S
C104 C103 1.335 . S
C104 C105 1.398 . S
C104 H126 0.930 . S
C105 C100 1.382 . S
C105 C104 1.398 . S
C105 H127 0.929 . S
C106 O116 1.271 . S
C106 O117 1.251 . S
C107 O118 1.252 . S
C107 O119 1.272 . S
O108 Sm88 2.543 . S
O108 C90 1.261 . S
O109 Sm88 2.450 . S
O109 C90 1.242 . S
O110 Sm88 2.681 . S
O110 Sm89 2.386 1_455 S
O110 C97 1.271 1_545 S
O111 Sm88 2.464 . S
O111 C97 1.251 1_545 S
O112 Sm88 2.396 . S
O112 C98 1.252 . S
O113 Sm89 2.408 1_455 S
O113 C98 1.272 . S
O114 Sm89 2.543 1_565 S
O114 C99 1.261 . S
O115 Sm89 2.450 1_565 S
O115 C99 1.242 . S
O116 Sm88 2.386 1_655 S
O116 Sm89 2.681 . S
O116 C106 1.271 . S
O117 Sm89 2.464 . S
O117 C106 1.251 . S
O118 Sm89 2.396 1_565 S
O118 C107 1.252 . S
O119 Sm88 2.408 1_665 S
O119 C107 1.272 . S
H120 C92 0.930 . S
H121 C93 0.929 . S
H122 C95 0.930 . S
H123 C96 0.929 . S
H124 C101 0.930 . S
H125 C102 0.929 . S
H126 C104 0.930 . S
H127 C105 0.929 . S
Sm128 C130 2.846 . S
Sm128 O148 2.543 . S
Sm128 O149 2.450 . S
Sm128 O150 2.681 1_545 S
Sm128 O151 2.464 1_545 S
Sm128 O152 2.396 . S
Sm128 O156 2.386 . S
Sm128 O159 2.408 1_545 S
Sm129 C139 2.846 1_544 S
Sm129 O150 2.386 1_545 S
Sm129 O153 2.408 . S
Sm129 O154 2.543 1_544 S
Sm129 O155 2.450 1_554 S
Sm129 O156 2.681 . S
Sm129 O157 2.464 1_554 S
Sm129 O158 2.396 1_554 S
C130 Sm128 2.846 . S
C130 C131 1.506 . S
C130 O148 1.261 . S
C130 O149 1.242 . S
C131 C130 1.506 . S
C131 C132 1.358 . S
C131 C136 1.382 . S
C132 C131 1.358 . S
C132 C133 1.385 . S
C132 H160 0.930 . S
C133 C132 1.385 . S
C133 C134 1.395 . S
C133 H161 0.929 . S
C134 C133 1.395 . S
C134 C135 1.335 . S
C135 C134 1.335 . S
C135 C136 1.398 . S
C135 H162 0.930 . S
C136 C131 1.382 . S
C136 C135 1.398 . S
C136 H163 0.929 . S
C137 O150 1.271 . S
C137 O151 1.251 . S
C138 O152 1.252 . S
C138 O153 1.272 . S
C139 Sm129 2.846 1_566 S
C139 C140 1.506 . S
C139 O154 1.261 . S
C139 O155 1.242 1_565 S
C140 C139 1.506 . S
C140 C141 1.358 . S
C140 C145 1.382 . S
C141 C140 1.358 . S
C141 C142 1.385 . S
C141 H164 0.930 . S
C142 C141 1.385 . S
C142 C143 1.395 . S
C142 H165 0.929 . S
C143 C142 1.395 . S
C143 C144 1.335 . S
C144 C143 1.335 . S
C144 C145 1.398 . S
C144 H166 0.930 . S
C145 C140 1.382 . S
C145 C144 1.398 . S
C145 H167 0.929 1_565 S
C146 O156 1.271 . S
C146 O157 1.251 1_554 S
C147 O158 1.252 1_564 S
C147 O159 1.272 . S
O148 Sm128 2.543 . S
O148 C130 1.261 . S
O149 Sm128 2.450 . S
O149 C130 1.242 . S
O150 Sm128 2.681 1_565 S
O150 Sm129 2.386 1_565 S
O150 C137 1.271 . S
O151 Sm128 2.464 1_565 S
O151 C137 1.251 . S
O152 Sm128 2.396 . S
O152 C138 1.252 . S
O153 Sm129 2.408 . S
O153 C138 1.272 . S
O154 Sm129 2.543 1_566 S
O154 C139 1.261 . S
O155 Sm129 2.450 1_556 S
O155 C139 1.242 1_545 S
O156 Sm128 2.386 . S
O156 Sm129 2.681 . S
O156 C146 1.271 . S
O157 Sm129 2.464 1_556 S
O157 C146 1.251 1_556 S
O158 Sm129 2.396 1_556 S
O158 C147 1.252 1_546 S
O159 Sm128 2.408 1_565 S
O159 C147 1.272 . S
H160 C132 0.930 . S
H161 C133 0.929 . S
H162 C135 0.930 . S
H163 C136 0.929 . S
H164 C141 0.930 . S
H165 C142 0.929 . S
H166 C144 0.930 . S
H167 C145 0.929 1_545 S
Sm168 C170 2.846 . S
Sm168 O188 2.543 . S
Sm168 O189 2.450 . S
Sm168 O190 2.681 . S
Sm168 O191 2.464 . S
Sm168 O192 2.396 . S
Sm168 O196 2.386 . S
Sm168 O199 2.408 . S
Sm169 C179 2.846 . S
Sm169 O190 2.386 . S
Sm169 O193 2.408 . S
Sm169 O194 2.543 . S
Sm169 O195 2.450 . S
Sm169 O196 2.681 . S
Sm169 O197 2.464 . S
Sm169 O198 2.396 . S
C170 Sm168 2.846 . S
C170 C171 1.506 . S
C170 O188 1.261 . S
C170 O189 1.242 . S
C171 C170 1.506 . S
C171 C172 1.358 . S
C171 C176 1.382 . S
C172 C171 1.358 . S
C172 C173 1.385 . S
C172 H200 0.930 . S
C173 C172 1.385 . S
C173 C174 1.395 . S
C173 H201 0.929 . S
C174 C173 1.395 . S
C174 C175 1.335 . S
C175 C174 1.335 . S
C175 C176 1.398 . S
C175 H202 0.930 . S
C176 C171 1.382 . S
C176 C175 1.398 . S
C176 H203 0.929 . S
C177 O190 1.271 . S
C177 O191 1.251 . S
C178 O192 1.252 . S
C178 O193 1.272 . S
C179 Sm169 2.846 . S
C179 C180 1.506 . S
C179 O194 1.261 . S
C179 O195 1.242 . S
C180 C179 1.506 . S
C180 C181 1.358 . S
C180 C185 1.382 . S
C181 C180 1.358 . S
C181 C182 1.385 . S
C181 H204 0.930 . S
C182 C181 1.385 . S
C182 C183 1.395 . S
C182 H205 0.929 . S
C183 C182 1.395 . S
C183 C184 1.335 . S
C184 C183 1.335 . S
C184 C185 1.398 . S
C184 H206 0.930 . S
C185 C180 1.382 . S
C185 C184 1.398 . S
C185 H207 0.929 . S
C186 O196 1.271 . S
C186 O197 1.251 . S
C187 O198 1.252 . S
C187 O199 1.272 . S
O188 Sm168 2.543 . S
O188 C170 1.261 . S
O189 Sm168 2.450 . S
O189 C170 1.242 . S
O190 Sm168 2.681 . S
O190 Sm169 2.386 . S
O190 C177 1.271 . S
O191 Sm168 2.464 . S
O191 C177 1.251 . S
O192 Sm168 2.396 . S
O192 C178 1.252 . S
O193 Sm169 2.408 . S
O193 C178 1.272 . S
O194 Sm169 2.543 . S
O194 C179 1.261 . S
O195 Sm169 2.450 . S
O195 C179 1.242 . S
O196 Sm168 2.386 . S
O196 Sm169 2.681 . S
O196 C186 1.271 . S
O197 Sm169 2.464 . S
O197 C186 1.251 . S
O198 Sm169 2.396 . S
O198 C187 1.252 . S
O199 Sm168 2.408 . S
O199 C187 1.272 . S
H200 C172 0.930 . S
H201 C173 0.929 . S
H202 C175 0.930 . S
H203 C176 0.929 . S
H204 C181 0.930 . S
H205 C182 0.929 . S
H206 C184 0.930 . S
H207 C185 0.929 . S
Sm208 C210 2.846 . S
Sm208 O228 2.543 . S
Sm208 O229 2.450 . S
Sm208 O230 2.681 1_455 S
Sm208 O231 2.464 1_455 S
Sm208 O232 2.396 . S
Sm208 O236 2.386 1_554 S
Sm208 O239 2.408 1_455 S
Sm209 C219 2.846 1_455 S
Sm209 O230 2.386 1_456 S
Sm209 O233 2.408 1_556 S
Sm209 O234 2.543 1_455 S
Sm209 O235 2.450 1_455 S
Sm209 O236 2.681 . S
Sm209 O237 2.464 . S
Sm209 O238 2.396 1_455 S
C210 Sm208 2.846 . S
C210 C211 1.506 . S
C210 O228 1.261 . S
C210 O229 1.242 . S
C211 C210 1.506 . S
C211 C212 1.358 . S
C211 C216 1.382 . S
C212 C211 1.358 . S
C212 C213 1.385 . S
C212 H240 0.930 . S
C213 C212 1.385 . S
C213 C214 1.395 . S
C213 H241 0.929 . S
C214 C213 1.395 . S
C214 C215 1.335 . S
C215 C214 1.335 . S
C215 C216 1.398 . S
C215 H242 0.930 . S
C216 C211 1.382 . S
C216 C215 1.398 . S
C216 H243 0.929 . S
C217 O230 1.271 . S
C217 O231 1.251 . S
C218 O232 1.252 . S
C218 O233 1.272 . S
C219 Sm209 2.846 1_655 S
C219 C220 1.506 . S
C219 O234 1.261 . S
C219 O235 1.242 . S
C220 C219 1.506 . S
C220 C221 1.358 . S
C220 C225 1.382 . S
C221 C220 1.358 . S
C221 C222 1.385 . S
C221 H244 0.930 . S
C222 C221 1.385 . S
C222 C223 1.395 . S
C222 H245 0.929 . S
C223 C222 1.395 . S
C223 C224 1.335 . S
C224 C223 1.335 . S
C224 C225 1.398 . S
C224 H246 0.930 . S
C225 C220 1.382 . S
C225 C224 1.398 . S
C225 H247 0.929 . S
C226 O236 1.271 . S
C226 O237 1.251 . S
C227 O238 1.252 . S
C227 O239 1.272 1_556 S
O228 Sm208 2.543 . S
O228 C210 1.261 . S
O229 Sm208 2.450 . S
O229 C210 1.242 . S
O230 Sm208 2.681 1_655 S
O230 Sm209 2.386 1_654 S
O230 C217 1.271 . S
O231 Sm208 2.464 1_655 S
O231 C217 1.251 . S
O232 Sm208 2.396 . S
O232 C218 1.252 . S
O233 Sm209 2.408 1_554 S
O233 C218 1.272 . S
O234 Sm209 2.543 1_655 S
O234 C219 1.261 . S
O235 Sm209 2.450 1_655 S
O235 C219 1.242 . S
O236 Sm208 2.386 1_556 S
O236 Sm209 2.681 . S
O236 C226 1.271 . S
O237 Sm209 2.464 . S
O237 C226 1.251 . S
O238 Sm209 2.396 1_655 S
O238 C227 1.252 . S
O239 Sm208 2.408 1_655 S
O239 C227 1.272 1_554 S
H240 C212 0.930 . S
H241 C213 0.929 . S
H242 C215 0.930 . S
H243 C216 0.929 . S
H244 C221 0.930 . S
H245 C222 0.929 . S
H246 C224 0.930 . S
H247 C225 0.929 . S
C248 C249 1.387 . S
C248 H252 0.950 . S
C248 C257 1.390 . S
C249 C248 1.387 . S
C249 C251 1.387 . S
H250 C257 0.950 . S
C251 C249 1.387 . S
C251 C253 1.390 . S
C251 H255 0.950 . S
H252 C248 0.950 . S
C253 C251 1.390 . S
C253 C254 1.387 . S
C253 H256 0.950 . S
C254 C253 1.387 . S
C254 C257 1.387 . S
H255 C251 0.950 . S
H256 C253 0.950 . S
C257 C248 1.390 . S
C257 H250 0.950 . S
C257 C254 1.387 . S
C258 C259 1.387 . S
C258 H262 0.950 . S
C258 C267 1.390 . S
C259 C258 1.387 . S
C259 C261 1.387 . S
H260 C267 0.950 . S
C261 C259 1.387 . S
C261 C263 1.390 . S
C261 H265 0.950 . S
H262 C258 0.950 . S
C263 C261 1.390 . S
C263 C264 1.387 . S
C263 H266 0.950 . S
C264 C263 1.387 . S
C264 C267 1.387 . S
H265 C261 0.950 . S
H266 C263 0.950 . S
C267 C258 1.390 . S
C267 H260 0.950 . S
C267 C264 1.387 . S
C268 C269 1.387 . S
C268 H272 0.950 . S
C268 C277 1.390 . S
C269 C268 1.387 . S
C269 C271 1.387 . S
H270 C277 0.950 . S
C271 C269 1.387 . S
C271 C273 1.390 . S
C271 H275 0.950 . S
H272 C268 0.950 . S
C273 C271 1.390 . S
C273 C274 1.387 . S
C273 H276 0.950 . S
C274 C273 1.387 . S
C274 C277 1.387 . S
H275 C271 0.950 . S
H276 C273 0.950 . S
C277 C268 1.390 . S
C277 H270 0.950 . S
C277 C274 1.387 . S
C278 C279 1.387 . S
C278 H282 0.950 . S
C278 C287 1.390 . S
C279 C278 1.387 . S
C279 C281 1.387 . S
H280 C287 0.950 . S
C281 C279 1.387 . S
C281 C283 1.390 . S
C281 H285 0.950 . S
H282 C278 0.950 . S
C283 C281 1.390 . S
C283 C284 1.387 . S
C283 H286 0.950 . S
C284 C283 1.387 . S
C284 C287 1.387 . S
H285 C281 0.950 . S
H286 C283 0.950 . S
C287 C278 1.390 . S
C287 H280 0.950 . S
C287 C284 1.387 . S
C288 C289 1.387 . S
C288 H292 0.950 . S
C288 C297 1.390 . S
C289 C288 1.387 . S
C289 C291 1.387 . S
H290 C297 0.950 . S
C291 C289 1.387 . S
C291 C293 1.390 . S
C291 H295 0.950 . S
H292 C288 0.950 . S
C293 C291 1.390 . S
C293 C294 1.387 . S
C293 H296 0.950 . S
C294 C293 1.387 . S
C294 C297 1.387 . S
H295 C291 0.950 . S
H296 C293 0.950 . S
C297 C288 1.390 . S
C297 H290 0.950 . S
C297 C294 1.387 . S
C298 C299 1.387 . S
C298 H302 0.950 . S
C298 C307 1.390 . S
C299 C298 1.387 . S
C299 C301 1.387 . S
H300 C307 0.950 . S
C301 C299 1.387 . S
C301 C303 1.390 . S
C301 H305 0.950 . S
H302 C298 0.950 . S
C303 C301 1.390 . S
C303 C304 1.387 . S
C303 H306 0.950 . S
C304 C303 1.387 . S
C304 C307 1.387 . S
H305 C301 0.950 . S
H306 C303 0.950 . S
C307 C298 1.390 . S
C307 H300 0.950 . S
C307 C304 1.387 . S
C308 C309 1.387 . S
C308 H312 0.950 . S
C308 C317 1.390 . S
C309 C308 1.387 . S
C309 C311 1.387 . S
H310 C317 0.950 1_554 S
C311 C309 1.387 . S
C311 C313 1.390 . S
C311 H315 0.950 . S
H312 C308 0.950 . S
C313 C311 1.390 . S
C313 C314 1.387 . S
C313 H316 0.950 . S
C314 C313 1.387 . S
C314 C317 1.387 . S
H315 C311 0.950 . S
H316 C313 0.950 . S
C317 C308 1.390 . S
C317 H310 0.950 1_556 S
C317 C314 1.387 . S
C318 C319 1.387 . S
C318 H322 0.950 . S
C318 C327 1.390 . S
C319 C318 1.387 . S
C319 C321 1.387 . S
H320 C327 0.950 . S
C321 C319 1.387 . S
C321 C323 1.390 . S
C321 H325 0.950 . S
H322 C318 0.950 . S
C323 C321 1.390 . S
C323 C324 1.387 . S
C323 H326 0.950 . S
C324 C323 1.387 . S
C324 C327 1.387 . S
H325 C321 0.950 . S
H326 C323 0.950 . S
C327 C318 1.390 . S
C327 H320 0.950 . S
C327 C324 1.387 . S
C328 C329 1.387 . S
C328 H332 0.950 . S
C328 C337 1.390 . S
C329 C328 1.387 . S
C329 C331 1.387 . S
H330 C337 0.950 . S
C331 C329 1.387 . S
C331 C333 1.390 . S
C331 H335 0.950 . S
H332 C328 0.950 . S
C333 C331 1.390 . S
C333 C334 1.387 . S
C333 H336 0.950 . S
C334 C333 1.387 . S
C334 C337 1.387 . S
H335 C331 0.950 . S
H336 C333 0.950 . S
C337 C328 1.390 . S
C337 H330 0.950 . S
C337 C334 1.387 . S
C338 C339 1.387 . S
C338 H342 0.950 . S
C338 C347 1.390 . S
C339 C338 1.387 . S
C339 C341 1.387 . S
H340 C347 0.950 1_554 S
C341 C339 1.387 . S
C341 C343 1.390 . S
C341 H345 0.950 . S
H342 C338 0.950 . S
C343 C341 1.390 . S
C343 C344 1.387 . S
C343 H346 0.950 . S
C344 C343 1.387 . S
C344 C347 1.387 . S
H345 C341 0.950 . S
H346 C343 0.950 . S
C347 C338 1.390 . S
C347 H340 0.950 1_556 S
C347 C344 1.387 . S
C348 C349 1.387 . S
C348 H352 0.950 . S
C348 C357 1.390 . S
C349 C348 1.387 . S
C349 C351 1.387 . S
H350 C357 0.950 . S
C351 C349 1.387 . S
C351 C353 1.390 . S
C351 H355 0.950 . S
H352 C348 0.950 . S
C353 C351 1.390 . S
C353 C354 1.387 . S
C353 H356 0.950 . S
C354 C353 1.387 . S
C354 C357 1.387 . S
H355 C351 0.950 . S
H356 C353 0.950 . S
C357 C348 1.390 . S
C357 H350 0.950 . S
C357 C354 1.387 . S
C358 C359 1.387 . S
C358 H362 0.950 . S
C358 C367 1.390 . S
C359 C358 1.387 . S
C359 C361 1.387 . S
H360 C367 0.950 . S
C361 C359 1.387 . S
C361 C363 1.390 . S
C361 H365 0.950 . S
H362 C358 0.950 . S
C363 C361 1.390 . S
C363 C364 1.387 . S
C363 H366 0.950 . S
C364 C363 1.387 . S
C364 C367 1.387 . S
H365 C361 0.950 . S
H366 C363 0.950 . S
C367 C358 1.390 . S
C367 H360 0.950 . S
C367 C364 1.387 . S
C368 C369 1.387 . S
C368 H372 0.950 . S
C368 C377 1.390 . S
C369 C368 1.387 . S
C369 C371 1.387 . S
H370 C377 0.950 . S
C371 C369 1.387 . S
C371 C373 1.390 . S
C371 H375 0.950 . S
H372 C368 0.950 . S
C373 C371 1.390 . S
C373 C374 1.387 . S
C373 H376 0.950 . S
C374 C373 1.387 . S
C374 C377 1.387 . S
H375 C371 0.950 . S
H376 C373 0.950 . S
C377 C368 1.390 . S
C377 H370 0.950 . S
C377 C374 1.387 . S
C378 C379 1.387 . S
C378 H382 0.950 . S
C378 C387 1.390 . S
C379 C378 1.387 . S
C379 C381 1.387 . S
H380 C387 0.950 . S
C381 C379 1.387 . S
C381 C383 1.390 . S
C381 H385 0.950 . S
H382 C378 0.950 . S
C383 C381 1.390 . S
C383 C384 1.387 . S
C383 H386 0.950 . S
C384 C383 1.387 . S
C384 C387 1.387 . S
H385 C381 0.950 . S
H386 C383 0.950 . S
C387 C378 1.390 . S
C387 H380 0.950 . S
C387 C384 1.387 . S
C388 C389 1.387 . S
C388 H392 0.950 . S
C388 C397 1.390 . S
C389 C388 1.387 . S
C389 C391 1.387 . S
H390 C397 0.950 . S
C391 C389 1.387 . S
C391 C393 1.390 . S
C391 H395 0.950 . S
H392 C388 0.950 . S
C393 C391 1.390 . S
C393 C394 1.387 . S
C393 H396 0.950 . S
C394 C393 1.387 . S
C394 C397 1.387 . S
H395 C391 0.950 . S
H396 C393 0.950 . S
C397 C388 1.390 . S
C397 H390 0.950 . S
C397 C394 1.387 . S
C398 C399 1.387 . S
C398 H402 0.950 . S
C398 C407 1.390 . S
C399 C398 1.387 . S
C399 C401 1.387 . S
H400 C407 0.950 . S
C401 C399 1.387 . S
C401 C403 1.390 . S
C401 H405 0.950 . S
H402 C398 0.950 . S
C403 C401 1.390 . S
C403 C404 1.387 . S
C403 H406 0.950 . S
C404 C403 1.387 . S
C404 C407 1.387 . S
H405 C401 0.950 . S
H406 C403 0.950 . S
C407 C398 1.390 . S
C407 H400 0.950 . S
C407 C404 1.387 . S
C408 C409 1.387 . S
C408 H412 0.950 . S
C408 C417 1.390 . S
C409 C408 1.387 . S
C409 C411 1.387 . S
H410 C417 0.950 . S
C411 C409 1.387 . S
C411 C413 1.390 . S
C411 H415 0.950 . S
H412 C408 0.950 . S
C413 C411 1.390 . S
C413 C414 1.387 . S
C413 H416 0.950 . S
C414 C413 1.387 . S
C414 C417 1.387 . S
H415 C411 0.950 . S
H416 C413 0.950 . S
C417 C408 1.390 . S
C417 H410 0.950 . S
C417 C414 1.387 . S
C418 C419 1.387 . S
C418 H422 0.950 . S
C418 C427 1.390 . S
C419 C418 1.387 . S
C419 C421 1.387 . S
H420 C427 0.950 . S
C421 C419 1.387 . S
C421 C423 1.390 . S
C421 H425 0.950 . S
H422 C418 0.950 . S
C423 C421 1.390 . S
C423 C424 1.387 . S
C423 H426 0.950 . S
C424 C423 1.387 . S
C424 C427 1.387 . S
H425 C421 0.950 . S
H426 C423 0.950 . S
C427 C418 1.390 . S
C427 H420 0.950 . S
C427 C424 1.387 . S
C428 C429 1.387 . S
C428 H432 0.950 . S
C428 C437 1.390 . S
C429 C428 1.387 . S
C429 C431 1.387 . S
H430 C437 0.950 . S
C431 C429 1.387 . S
C431 C433 1.390 . S
C431 H435 0.950 . S
H432 C428 0.950 . S
C433 C431 1.390 . S
C433 C434 1.387 . S
C433 H436 0.950 . S
C434 C433 1.387 . S
C434 C437 1.387 . S
H435 C431 0.950 . S
H436 C433 0.950 . S
C437 C428 1.390 . S
C437 H430 0.950 . S
C437 C434 1.387 . S
C438 C439 1.387 . S
C438 H442 0.950 . S
C438 C447 1.390 . S
C439 C438 1.387 . S
C439 C441 1.387 . S
H440 C447 0.950 . S
C441 C439 1.387 . S
C441 C443 1.390 . S
C441 H445 0.950 . S
H442 C438 0.950 . S
C443 C441 1.390 . S
C443 C444 1.387 . S
C443 H446 0.950 . S
C444 C443 1.387 . S
C444 C447 1.387 . S
H445 C441 0.950 . S
H446 C443 0.950 . S
C447 C438 1.390 . S
C447 H440 0.950 . S
C447 C444 1.387 . S
C448 C449 1.387 . S
C448 H452 0.950 . S
C448 C457 1.390 . S
C449 C448 1.387 . S
C449 C451 1.387 . S
H450 C457 0.950 . S
C451 C449 1.387 . S
C451 C453 1.390 . S
C451 H455 0.950 . S
H452 C448 0.950 . S
C453 C451 1.390 . S
C453 C454 1.387 . S
C453 H456 0.950 . S
C454 C453 1.387 . S
C454 C457 1.387 . S
H455 C451 0.950 . S
H456 C453 0.950 . S
C457 C448 1.390 . S
C457 H450 0.950 . S
C457 C454 1.387 . S
C458 C459 1.387 . S
C458 H462 0.950 . S
C458 C467 1.390 . S
C459 C458 1.387 . S
C459 C461 1.387 . S
H460 C467 0.950 . S
C461 C459 1.387 . S
C461 C463 1.390 . S
C461 H465 0.950 . S
H462 C458 0.950 . S
C463 C461 1.390 . S
C463 C464 1.387 . S
C463 H466 0.950 . S
C464 C463 1.387 . S
C464 C467 1.387 . S
H465 C461 0.950 . S
H466 C463 0.950 . S
C467 C458 1.390 . S
C467 H460 0.950 . S
C467 C464 1.387 . S
C468 C469 1.387 . S
C468 H472 0.950 . S
C468 C477 1.390 . S
C469 C468 1.387 . S
C469 C471 1.387 . S
H470 C477 0.950 . S
C471 C469 1.387 . S
C471 C473 1.390 . S
C471 H475 0.950 . S
H472 C468 0.950 . S
C473 C471 1.390 . S
C473 C474 1.387 . S
C473 H476 0.950 . S
C474 C473 1.387 . S
C474 C477 1.387 . S
H475 C471 0.950 . S
H476 C473 0.950 . S
C477 C468 1.390 . S
C477 H470 0.950 . S
C477 C474 1.387 . S
C478 C479 1.387 . S
C478 H482 0.950 . S
C478 C487 1.390 . S
C479 C478 1.387 . S
C479 C481 1.387 . S
H480 C487 0.950 . S
C481 C479 1.387 . S
C481 C483 1.390 . S
C481 H485 0.950 . S
H482 C478 0.950 . S
C483 C481 1.390 . S
C483 C484 1.387 . S
C483 H486 0.950 . S
C484 C483 1.387 . S
C484 C487 1.387 . S
H485 C481 0.950 . S
H486 C483 0.950 . S
C487 C478 1.390 . S
C487 H480 0.950 . S
C487 C484 1.387 . S
C249 C4 1.131 . S
C254 C94 1.161 . S
C259 C16 1.266 . S
C264 C143 1.281 . S
C274 C178 2.164 . S
C269 C32 2.205 . S
C279 C43 2.381 . S
C284 C217 2.327 . S
C294 C138 2.525 . S
C289 C5 2.356 . S
C304 C97 0.532 . S
C299 C21 0.564 . S
C314 C227 1.963 . S
C309 C27 2.022 . S
C324 C186 1.770 . S
C319 C37 1.763 . S
C329 C10 1.443 . S
C334 C214 1.483 . S
C344 C146 2.513 1_556 S
C339 C26 2.610 . S
C349 C38 2.147 . S
C354 C107 2.148 . S
C359 C15 1.312 . S
C364 C183 1.343 . S
C374 C103 1.235 . S
C369 C48 1.219 . S
C379 C59 1.180 . S
C384 C134 1.184 . S
C389 C76 2.511 . S
C394 C187 2.460 . S
C399 C87 2.245 . S
C404 C226 2.239 . S
C409 C54 1.901 . S
C414 C147 2.076 1_556 S
C424 C106 1.278 . S
C419 C60 1.313 . S
C434 C218 1.852 . S
C429 C71 1.901 . S
C444 C177 1.715 . S
C439 C82 1.786 . S
C449 C49 1.662 . S
C454 C223 1.805 . S
C464 C137 2.038 . S
C459 C70 2.127 . S
C474 C98 2.538 . S
C469 C81 2.547 . S
C479 C65 1.085 . S
C484 C174 1.102 . S
