# Generated by pormake.
# Topology nom, (4,4)-cn, num edge types: 1
# Building blocks:
#     Node 0, Type 0, BuildingBlock: KUFVIS_clean_linker_0, # of connection points: 4
#     Node 1, Type 0, BuildingBlock: KUFVIS_clean_linker_0, # of connection points: 4
#     Node 2, Type 0, BuildingBlock: KUFVIS_clean_linker_0, # of connection points: 4
#     Node 3, Type 0, BuildingBlock: KUFVIS_clean_linker_0, # of connection points: 4
#     Node 4, Type 0, BuildingBlock: KUFVIS_clean_linker_0, # of connection points: 4
#     Node 5, Type 0, BuildingBlock: KUFVIS_clean_linker_0, # of connection points: 4
#     Node 6, Type 1, BuildingBlock: NAHDIM_clean_sbu_0, # of connection points: 4
#     Node 7, Type 1, BuildingBlock: NAHDIM_clean_sbu_0, # of connection points: 4
#     Node 8, Type 1, BuildingBlock: NAHDIM_clean_sbu_0, # of connection points: 4
#     Node 9, Type 1, BuildingBlock: NAHDIM_clean_sbu_0, # of connection points: 4
#     Node 10, Type 1, BuildingBlock: NAHDIM_clean_sbu_0, # of connection points: 4
#     Node 11, Type 1, BuildingBlock: NAHDIM_clean_sbu_0, # of connection points: 4
#     Edge 12, Type (0, 1), BuildingBlock: MIFKUJ_clean_linker_0, # of connection points: 2
#     Edge 13, Type (0, 1), BuildingBlock: MIFKUJ_clean_linker_0, # of connection points: 2
#     Edge 14, Type (0, 1), BuildingBlock: MIFKUJ_clean_linker_0, # of connection points: 2
#     Edge 15, Type (0, 1), BuildingBlock: MIFKUJ_clean_linker_0, # of connection points: 2
#     Edge 16, Type (0, 1), BuildingBlock: MIFKUJ_clean_linker_0, # of connection points: 2
#     Edge 17, Type (0, 1), BuildingBlock: MIFKUJ_clean_linker_0, # of connection points: 2
#     Edge 18, Type (0, 1), BuildingBlock: MIFKUJ_clean_linker_0, # of connection points: 2
#     Edge 19, Type (0, 1), BuildingBlock: MIFKUJ_clean_linker_0, # of connection points: 2
#     Edge 20, Type (0, 1), BuildingBlock: MIFKUJ_clean_linker_0, # of connection points: 2
#     Edge 21, Type (0, 1), BuildingBlock: MIFKUJ_clean_linker_0, # of connection points: 2
#     Edge 22, Type (0, 1), BuildingBlock: MIFKUJ_clean_linker_0, # of connection points: 2
#     Edge 23, Type (0, 1), BuildingBlock: MIFKUJ_clean_linker_0, # of connection points: 2
#     Edge 24, Type (0, 1), BuildingBlock: MIFKUJ_clean_linker_0, # of connection points: 2
#     Edge 25, Type (0, 1), BuildingBlock: MIFKUJ_clean_linker_0, # of connection points: 2
#     Edge 26, Type (0, 1), BuildingBlock: MIFKUJ_clean_linker_0, # of connection points: 2
#     Edge 27, Type (0, 1), BuildingBlock: MIFKUJ_clean_linker_0, # of connection points: 2
#     Edge 28, Type (0, 1), BuildingBlock: MIFKUJ_clean_linker_0, # of connection points: 2
#     Edge 29, Type (0, 1), BuildingBlock: MIFKUJ_clean_linker_0, # of connection points: 2
#     Edge 30, Type (0, 1), BuildingBlock: MIFKUJ_clean_linker_0, # of connection points: 2
#     Edge 31, Type (0, 1), BuildingBlock: MIFKUJ_clean_linker_0, # of connection points: 2
#     Edge 32, Type (0, 1), BuildingBlock: MIFKUJ_clean_linker_0, # of connection points: 2
#     Edge 33, Type (0, 1), BuildingBlock: MIFKUJ_clean_linker_0, # of connection points: 2
#     Edge 34, Type (0, 1), BuildingBlock: MIFKUJ_clean_linker_0, # of connection points: 2
#     Edge 35, Type (0, 1), BuildingBlock: MIFKUJ_clean_linker_0, # of connection points: 2
# Relax obj value: 0.021
# Max RMSD: 0.122
# Mean RMSD: 0.082
data_MOF--net-nom--node1-NAHDIM_clean_sbu_0--node2-KUFVIS_clean_linker_0--edge1-MIFKUJ_clean_linker_0
_symmetry_space_group_name_H-M    P1
_symmetry_Int_Tables_number       1
_symmetry_cell_setting            triclinic
loop_
_symmetry_equiv_pos_as_xyz
'x, y, z'
_cell_length_a     58.747304
_cell_length_b     60.365305
_cell_length_c     59.455555
_cell_angle_alpha  90.039754
_cell_angle_beta   90.513626
_cell_angle_gamma 120.91944
loop_
_atom_site_label
_atom_site_type_symbol
_atom_site_fract_x
_atom_site_fract_y
_atom_site_fract_z
_atom_type_partial_charge
H0 H 0.09598 0.56118 0.33537 0.0
H1 H 0.03582 0.55091 0.28792 0.0
H2 H 0.01467 0.52082 0.3555 0.0
H3 H 0.98088 0.52862 0.34801 0.0
H4 H 0.91727 0.49003 0.30018 0.0
H5 H 0.99639 0.51245 0.28072 0.0
C6 C 0.07518 0.55328 0.33117 0.0
C7 C 0.05612 0.54079 0.34777 0.0
C8 C 0.06804 0.55694 0.30959 0.0
C9 C 0.04117 0.54762 0.30454 0.0
C10 C 0.02136 0.53403 0.32084 0.0
C11 C 0.02927 0.5311 0.34262 0.0
C12 C 0.99255 0.52238 0.31504 0.0
C13 C 0.97423 0.52065 0.33128 0.0
C14 C 0.94714 0.50888 0.32586 0.0
C15 C 0.93822 0.49889 0.30427 0.0
C16 C 0.95585 0.50022 0.28791 0.0
C17 C 0.98299 0.51207 0.2933 0.0
H18 H 0.52166 0.09947 0.50277 0.0
H19 H 0.49056 0.03814 0.45414 0.0
H20 H 0.49865 0.02305 0.52414 0.0
H21 H 0.46108 0.9853 0.51559 0.0
H22 H 0.44652 0.92496 0.46958 0.0
H23 H 0.497 1.00398 0.44973 0.0
C24 C 0.51329 0.07915 0.49887 0.0
C25 C 0.51015 0.06205 0.51608 0.0
C26 C 0.50666 0.07074 0.47658 0.0
C27 C 0.49639 0.04455 0.47137 0.0
C28 C 0.49283 0.02673 0.48846 0.0
C29 C 0.50044 0.03601 0.51077 0.0
C30 C 0.48055 0.99849 0.48323 0.0
C31 C 0.46471 0.97968 0.49934 0.0
C32 C 0.45281 0.95331 0.49437 0.0
C33 C 0.45634 0.94547 0.47329 0.0
C34 C 0.47224 0.96352 0.45705 0.0
C35 C 0.48429 0.99004 0.4621 0.0
H36 H 0.54194 0.4628 0.61949 0.0
H37 H 0.50048 0.47448 0.67286 0.0
H38 H 0.50198 0.50385 0.60595 0.0
H39 H 0.46231 0.49743 0.6169 0.0
H40 H 0.44457 0.53504 0.66916 0.0
H41 H 0.5003 0.51104 0.68249 0.0
C42 C 0.53032 0.47085 0.62556 0.0
C43 C 0.52248 0.48336 0.61042 0.0
C44 C 0.52283 0.46787 0.64812 0.0
C45 C 0.50675 0.4774 0.65551 0.0
C46 C 0.49907 0.49079 0.64056 0.0
C47 C 0.50708 0.49348 0.61785 0.0
C48 C 0.4833 0.5024 0.64863 0.0
C49 C 0.46557 0.50485 0.63394 0.0
C50 C 0.45149 0.51654 0.64127 0.0
C51 C 0.45496 0.52558 0.66341 0.0
C52 C 0.47218 0.52331 0.67823 0.0
C53 C 0.48641 0.51186 0.67092 0.0
H54 H 0.09903 0.53144 0.80279 0.0
H55 H 0.03634 0.48956 0.84978 0.0
H56 H 0.01906 0.50652 0.78309 0.0
H57 H 0.98062 0.46771 0.78914 0.0
H58 H 0.91992 0.45366 0.83614 0.0
H59 H 1.00136 0.4954 0.85785 0.0
C60 C 0.07809 0.52173 0.80682 0.0
C61 C 0.05989 0.51998 0.79062 0.0
C62 C 0.06967 0.51086 0.82806 0.0
C63 C 0.04258 0.49813 0.83331 0.0
C64 C 0.02376 0.49622 0.81718 0.0
C65 C 0.03281 0.5072 0.79572 0.0
C66 C 0.9949 0.48348 0.82271 0.0
C67 C 0.9752 0.47014 0.80593 0.0
C68 C 0.94829 0.45997 0.8107 0.0
C69 C 0.94084 0.4623 0.8324 0.0
C70 C 0.95978 0.47457 0.84953 0.0
C71 C 0.98679 0.48523 0.84465 0.0
H72 H 0.49346 0.92865 0.01443 0.0
H73 H 0.52627 0.983 0.96047 0.0
H74 H 0.50763 0.00496 0.02404 0.0
H75 H 0.54479 0.04344 0.01498 0.0
H76 H 0.55529 0.0943 0.96059 0.0
H77 H 0.51667 0.01312 0.94777 0.0
C78 C 0.50081 0.94793 0.00793 0.0
C79 C 0.50037 0.96642 0.02173 0.0
C80 C 0.50967 0.95358 0.98576 0.0
C81 C 0.51867 0.97853 0.97741 0.0
C82 C 0.5186 0.99771 0.99115 0.0
C83 C 0.50876 0.99108 0.01328 0.0
C84 C 0.52887 0.02456 0.98263 0.0
C85 C 0.54166 0.04609 0.99746 0.0
C86 C 0.55062 0.07124 0.98971 0.0
C87 C 0.54754 0.07491 0.96694 0.0
C88 C 0.53577 0.05418 0.95189 0.0
C89 C 0.52621 0.02901 0.95965 0.0
H90 H 0.47872 0.57225 0.13748 0.0
H91 H 0.5277 0.56185 0.18454 0.0
H92 H 0.51558 0.53 0.11708 0.0
H93 H 0.55544 0.53508 0.12304 0.0
H94 H 0.58803 0.50719 0.17234 0.0
H95 H 0.53173 0.52786 0.19286 0.0
C96 C 0.49085 0.56395 0.14137 0.0
C97 C 0.49623 0.55104 0.12462 0.0
C98 C 0.50172 0.56736 0.16294 0.0
C99 C 0.51869 0.55807 0.16796 0.0
C100 C 0.52394 0.54418 0.15163 0.0
C101 C 0.51242 0.54083 0.12991 0.0
C102 C 0.54144 0.53346 0.15723 0.0
C103 C 0.5563 0.53001 0.14035 0.0
C104 C 0.57303 0.5205 0.1458 0.0
C105 C 0.57543 0.51493 0.16818 0.0
C106 C 0.56092 0.51793 0.18514 0.0
C107 C 0.54352 0.52658 0.17961 0.0
C108 C 0.61938 0.32387 0.39275 0.0
O109 O 0.64036 0.33533 0.37986 0.0
O110 O 0.67015 0.3916 0.39748 0.0
Zn111 Zn 0.63027 0.37642 0.39947 0.0
O112 O 0.62043 0.39072 0.42609 0.0
C113 C 0.6326 0.40281 0.35785 0.0
O114 O 0.65831 0.4135 0.36092 0.0
O115 O 0.61151 0.33747 0.40253 0.0
C116 C 0.62122 0.41213 0.42456 0.0
O117 O 0.63006 0.42559 0.406 0.0
C118 C 0.68752 0.41024 0.40946 0.0
O119 O 0.67977 0.42037 0.42498 0.0
O120 O 0.61689 0.38577 0.37161 0.0
C121 C 0.31374 0.69661 0.57316 0.0
O122 O 0.32545 0.68581 0.58345 0.0
O123 O 0.2891 0.62649 0.57238 0.0
Zn124 Zn 0.26726 0.64364 0.56955 0.0
O125 O 0.24174 0.62963 0.54317 0.0
C126 C 0.22835 0.61082 0.60051 0.0
O127 O 0.22835 0.59384 0.58666 0.0
O128 O 0.28989 0.68252 0.56627 0.0
C129 C 0.23545 0.6093 0.53194 0.0
O130 O 0.247 0.5961 0.53663 0.0
C131 C 0.307 0.62905 0.55892 0.0
O132 O 0.31266 0.64418 0.54139 0.0
O133 O 0.24442 0.63471 0.59707 0.0
C134 C 0.62136 0.30826 0.72335 0.0
O135 O 0.64398 0.31433 0.71394 0.0
O136 O 0.66725 0.29127 0.74231 0.0
Zn137 Zn 0.62733 0.26668 0.73875 0.0
O138 O 0.61831 0.2442 0.71088 0.0
C139 C 0.62648 0.23687 0.7775 0.0
O140 O 0.65191 0.24791 0.77321 0.0
O141 O 0.6098 0.28808 0.73541 0.0
C142 C 0.61855 0.22324 0.71096 0.0
O143 O 0.62606 0.21649 0.72929 0.0
C144 C 0.68498 0.28669 0.7357 0.0
O145 O 0.67778 0.26452 0.72587 0.0
O146 O 0.61223 0.24268 0.76556 0.0
C147 C 0.42572 0.69786 0.91717 0.0
O148 O 0.43297 0.68582 0.93127 0.0
O149 O 0.35147 0.62964 0.89581 0.0
Zn150 Zn 0.39142 0.64584 0.89857 0.0
O151 O 0.39989 0.63054 0.92554 0.0
C152 C 0.39367 0.62825 0.85258 0.0
O153 O 0.36994 0.62498 0.84967 0.0
O154 O 0.40859 0.68487 0.90193 0.0
C155 C 0.42058 0.62879 0.92525 0.0
O156 O 0.43626 0.63763 0.90778 0.0
C157 C 0.33601 0.60538 0.89342 0.0
O158 O 0.3462 0.59046 0.89275 0.0
O159 O 0.40589 0.63734 0.87115 0.0
C160 C 0.70381 0.39713 0.06006 0.0
O161 O 0.69171 0.37548 0.04844 0.0
O162 O 0.71932 0.34638 0.06184 0.0
Zn163 Zn 0.74579 0.38483 0.06509 0.0
O164 O 0.76985 0.39284 0.09226 0.0
C165 C 0.78708 0.39069 0.03654 0.0
O166 O 0.78784 0.37558 0.05204 0.0
O167 O 0.72674 0.40475 0.06832 0.0
C168 C 0.79089 0.41501 0.09264 0.0
O169 O 0.79502 0.43114 0.07619 0.0
C170 C 0.72316 0.329 0.06985 0.0
O171 O 0.74493 0.33592 0.0815 0.0
O172 O 0.76959 0.39709 0.03788 0.0
C173 C 0.3891 0.71514 0.22954 0.0
O174 O 0.36327 0.70358 0.22675 0.0
O175 O 0.34494 0.73761 0.24201 0.0
Zn176 Zn 0.38452 0.76064 0.23633 0.0
O177 O 0.39129 0.78081 0.2075 0.0
C178 C 0.41676 0.81032 0.25924 0.0
O179 O 0.42323 0.819 0.23865 0.0
O180 O 0.40219 0.73921 0.234 0.0
C181 C 0.38022 0.79361 0.2026 0.0
O182 O 0.3622 0.79271 0.21613 0.0
C183 C 0.32723 0.72822 0.22658 0.0
O184 O 0.33442 0.73333 0.20547 0.0
O185 O 0.40111 0.78623 0.26237 0.0
H186 H 0.10633 0.54718 0.2969 0.0
H187 H 0.14733 0.57632 0.2772 0.0
H188 H 0.11973 0.62931 0.266 0.0
H189 H 0.07861 0.60013 0.28607 0.0
H190 H 0.1636 0.59921 0.237 0.0
H191 H 0.17281 0.69044 0.27695 0.0
H192 H 0.15574 0.70272 0.30949 0.0
H193 H 0.14594 0.63707 0.34602 0.0
H194 H 0.1633 0.62464 0.31384 0.0
H195 H 0.28409 0.70752 0.19813 0.0
H196 H 0.23744 0.67881 0.20765 0.0
H197 H 0.25946 0.68114 0.27741 0.0
H198 H 0.30602 0.71026 0.26811 0.0
H199 H 0.21679 0.68455 0.27464 0.0
H200 H 0.24467 0.6293 0.24249 0.0
H201 H 0.26356 0.61446 0.21338 0.0
H202 H 0.20254 0.60411 0.16676 0.0
H203 H 0.18349 0.61922 0.19553 0.0
C204 C 0.10875 0.56476 0.28973 0.0
C205 C 0.08944 0.57153 0.29312 0.0
C206 C 0.13215 0.58137 0.27842 0.0
C207 C 0.13681 0.60519 0.27042 0.0
C208 C 0.11666 0.61113 0.27227 0.0
C209 C 0.09311 0.5944 0.28355 0.0
C210 C 0.16377 0.62466 0.26248 0.0
C211 C 0.17511 0.61801 0.24501 0.0
C212 C 0.17909 0.64894 0.27331 0.0
C213 C 0.16902 0.65646 0.29289 0.0
C214 C 0.16707 0.67869 0.29196 0.0
C215 C 0.15736 0.68567 0.31034 0.0
C216 C 0.14966 0.67063 0.32978 0.0
C217 C 0.1518 0.64865 0.33093 0.0
C218 C 0.16156 0.64162 0.31262 0.0
C219 C 0.27902 0.70197 0.21551 0.0
C220 C 0.29885 0.71113 0.23234 0.0
C221 C 0.25231 0.68547 0.22092 0.0
C222 C 0.2449 0.67755 0.24322 0.0
C223 C 0.26464 0.68699 0.26008 0.0
C224 C 0.2913 0.70359 0.25472 0.0
C225 C 0.2167 0.65918 0.24908 0.0
C226 C 0.20513 0.666 0.26624 0.0
C227 C 0.20145 0.63479 0.23836 0.0
C228 C 0.21284 0.62567 0.22107 0.0
C229 C 0.23541 0.62406 0.22597 0.0
C230 C 0.24612 0.61556 0.20955 0.0
C231 C 0.23431 0.60842 0.18821 0.0
C232 C 0.2117 0.6097 0.18328 0.0
C233 C 0.20093 0.61821 0.19964 0.0
H234 H 0.24263 0.60184 0.17552 0.0
H235 H 0.14211 0.67605 0.34397 0.0
H236 H 0.48653 0.10229 0.47525 0.0
H237 H 0.50276 0.14149 0.45305 0.0
H238 H 0.55505 0.12352 0.41748 0.0
H239 H 0.53881 0.08413 0.43999 0.0
H240 H 0.58167 0.17105 0.43564 0.0
H241 H 0.50461 0.12509 0.38955 0.0
H242 H 0.45699 0.09683 0.3808 0.0
H243 H 0.44035 0.15061 0.41295 0.0
H244 H 0.48783 0.17904 0.4222 0.0
H245 H 0.63276 0.28963 0.37647 0.0
H246 H 0.61099 0.24331 0.38385 0.0
H247 H 0.55318 0.24764 0.42482 0.0
H248 H 0.57467 0.29391 0.41739 0.0
H249 H 0.52996 0.20478 0.39806 0.0
H250 H 0.60512 0.24675 0.44886 0.0
H251 H 0.65241 0.27482 0.45901 0.0
H252 H 0.67199 0.22793 0.41878 0.0
H253 H 0.62482 0.19977 0.40816 0.0
C254 C 0.50084 0.10629 0.46216 0.0
C255 C 0.51137 0.09021 0.45923 0.0
C256 C 0.51011 0.12868 0.44945 0.0
C257 C 0.53011 0.13548 0.43351 0.0
C258 C 0.53957 0.11863 0.42964 0.0
C259 C 0.53014 0.09605 0.44232 0.0
C260 C 0.54313 0.16154 0.42312 0.0
C261 C 0.57045 0.1782 0.42689 0.0
C262 C 0.52842 0.17115 0.41225 0.0
C263 C 0.49981 0.15414 0.40669 0.0
C264 C 0.49078 0.13081 0.39491 0.0
C265 C 0.46381 0.11477 0.38983 0.0
C266 C 0.44565 0.1219 0.39635 0.0
C267 C 0.45444 0.14511 0.40792 0.0
C268 C 0.4814 0.16122 0.41305 0.0
C269 C 0.61533 0.28073 0.38696 0.0
C270 C 0.60557 0.29556 0.39645 0.0
C271 C 0.60294 0.25423 0.3912 0.0
C272 C 0.58058 0.24202 0.40506 0.0
C273 C 0.57038 0.25663 0.41406 0.0
C274 C 0.58279 0.28313 0.40987 0.0
C275 C 0.56833 0.21425 0.4109 0.0
C276 C 0.5412 0.1974 0.40638 0.0
C277 C 0.58316 0.20443 0.42117 0.0
C278 C 0.61151 0.22136 0.42749 0.0
C279 C 0.61955 0.24257 0.44202 0.0
C280 C 0.64631 0.25846 0.44789 0.0
C281 C 0.6652 0.25321 0.43948 0.0
C282 C 0.65734 0.23201 0.42523 0.0
C283 C 0.6306 0.21607 0.41929 0.0
H284 H 0.68591 0.26553 0.44405 0.0
H285 H 0.42477 0.10946 0.3924 0.0
H286 H 0.40132 0.50575 0.64949 0.0
H287 H 0.3762 0.52105 0.62863 0.0
H288 H 0.43689 0.55297 0.57801 0.0
H289 H 0.46255 0.5381 0.59931 0.0
H290 H 0.42572 0.58818 0.59258 0.0
H291 H 0.3744 0.5019 0.56555 0.0
H292 H 0.34864 0.45439 0.56779 0.0
H293 H 0.29129 0.45793 0.60949 0.0
H294 H 0.31689 0.50549 0.60778 0.0
H295 H 0.34837 0.63201 0.53524 0.0
H296 H 0.37223 0.60936 0.54295 0.0
H297 H 0.32193 0.572 0.59984 0.0
H298 H 0.29789 0.5943 0.59218 0.0
H299 H 0.32921 0.53826 0.57538 0.0
H300 H 0.38412 0.62401 0.6069 0.0
H301 H 0.41012 0.67159 0.60562 0.0
H302 H 0.46084 0.66861 0.55567 0.0
H303 H 0.4349 0.62096 0.55645 0.0
C304 C 0.40905 0.51553 0.63365 0.0
C305 C 0.43392 0.52079 0.62604 0.0
C306 C 0.39459 0.52417 0.62166 0.0
C307 C 0.40454 0.53806 0.60165 0.0
C308 C 0.42879 0.54224 0.59339 0.0
C309 C 0.44331 0.53353 0.60543 0.0
C310 C 0.39073 0.55021 0.59079 0.0
C311 C 0.40475 0.57715 0.58827 0.0
C312 C 0.36324 0.53595 0.58562 0.0
C313 C 0.34767 0.50731 0.58663 0.0
C314 C 0.35639 0.49257 0.57533 0.0
C315 C 0.3418 0.46562 0.57648 0.0
C316 C 0.31836 0.45315 0.5888 0.0
C317 C 0.30944 0.46761 0.59995 0.0
C318 C 0.32397 0.49457 0.59886 0.0
C319 C 0.34234 0.61891 0.54935 0.0
C320 C 0.32129 0.61509 0.56316 0.0
C321 C 0.35604 0.60602 0.55376 0.0
C322 C 0.349 0.58911 0.57207 0.0
C323 C 0.32769 0.58491 0.58559 0.0
C324 C 0.31404 0.5978 0.58124 0.0
C325 C 0.3641 0.57619 0.57765 0.0
C326 C 0.35029 0.54915 0.57924 0.0
C327 C 0.39177 0.59034 0.58199 0.0
C328 C 0.40738 0.61895 0.58153 0.0
C329 C 0.40068 0.6335 0.5955 0.0
C330 C 0.41543 0.66048 0.59489 0.0
C331 C 0.43707 0.67311 0.58051 0.0
C332 C 0.44404 0.65879 0.56676 0.0
C333 C 0.42933 0.63181 0.56728 0.0
H334 H 0.44847 0.694 0.58007 0.0
H335 H 0.3071 0.43228 0.58968 0.0
H336 H 0.91541 0.47482 0.79363 0.0
H337 H 0.87288 0.44712 0.77445 0.0
H338 H 0.88954 0.3854 0.77212 0.0
H339 H 0.9325 0.41342 0.79098 0.0
H340 H 0.85953 0.38566 0.73447 0.0
H341 H 0.859 0.39016 0.81553 0.0
H342 H 0.86961 0.41399 0.85145 0.0
H343 H 0.82057 0.44466 0.83257 0.0
H344 H 0.81037 0.42173 0.79613 0.0
H345 H 0.72691 0.27906 0.73297 0.0
H346 H 0.77365 0.31014 0.74092 0.0
H347 H 0.75444 0.3688 0.75491 0.0
H348 H 0.7075 0.3375 0.74777 0.0
H349 H 0.78663 0.37084 0.78549 0.0
H350 H 0.78646 0.36707 0.70498 0.0
H351 H 0.77768 0.34621 0.66767 0.0
H352 H 0.82752 0.31574 0.68447 0.0
H353 H 0.83633 0.33614 0.72201 0.0
C354 C 0.9104 0.45568 0.78819 0.0
C355 C 0.92708 0.44616 0.79368 0.0
C356 C 0.88609 0.43984 0.77737 0.0
C357 C 0.87784 0.41405 0.77229 0.0
C358 C 0.89553 0.40523 0.77594 0.0
C359 C 0.92005 0.42122 0.78663 0.0
C360 C 0.84968 0.39557 0.7662 0.0
C361 C 0.84354 0.38219 0.74566 0.0
C362 C 0.82885 0.39143 0.78069 0.0
C363 C 0.83412 0.4044 0.80299 0.0
C364 C 0.85058 0.40209 0.81897 0.0
C365 C 0.85653 0.41544 0.83943 0.0
C366 C 0.84575 0.43079 0.84432 0.0
C367 C 0.82893 0.43278 0.82876 0.0
C368 C 0.8231 0.41964 0.80817 0.0
C369 C 0.73265 0.29862 0.73762 0.0
C370 C 0.71347 0.30581 0.73973 0.0
C371 C 0.75946 0.31645 0.74204 0.0
C372 C 0.76776 0.34201 0.7482 0.0
C373 C 0.74861 0.34924 0.75017 0.0
C374 C 0.72176 0.33132 0.74606 0.0
C375 C 0.79618 0.36093 0.75351 0.0
C376 C 0.80245 0.37432 0.77411 0.0
C377 C 0.81706 0.36518 0.73897 0.0
C378 C 0.81185 0.35294 0.71639 0.0
C379 C 0.79539 0.35576 0.70078 0.0
C380 C 0.79044 0.34405 0.67958 0.0
C381 C 0.80198 0.32961 0.67372 0.0
C382 C 0.81857 0.32691 0.68904 0.0
C383 C 0.82357 0.33857 0.71027 0.0
H384 H 0.79812 0.32056 0.6573 0.0
H385 H 0.85042 0.44113 0.86018 0.0
H386 H 0.52748 0.92132 0.99676 0.0
H387 H 0.51686 0.88121 0.97795 0.0
H388 H 0.47761 0.89748 0.9244 0.0
H389 H 0.48771 0.93763 0.94367 0.0
H390 H 0.44631 0.84996 0.94039 0.0
H391 H 0.53524 0.89698 0.91471 0.0
H392 H 0.58373 0.92603 0.91762 0.0
H393 H 0.58881 0.87356 0.96321 0.0
H394 H 0.5403 0.84434 0.96083 0.0
H395 H 0.41568 0.72942 0.89091 0.0
H396 H 0.43345 0.7758 0.89581 0.0
H397 H 0.47849 0.77648 0.95378 0.0
H398 H 0.46125 0.7304 0.94879 0.0
H399 H 0.50787 0.81782 0.92841 0.0
H400 H 0.419 0.77501 0.95864 0.0
H401 H 0.37037 0.74621 0.95698 0.0
H402 H 0.36551 0.79129 0.90337 0.0
H403 H 0.41418 0.82019 0.90455 0.0
C404 C 0.51709 0.91664 0.98072 0.0
C405 C 0.50836 0.93258 0.9717 0.0
C406 C 0.51113 0.89374 0.9699 0.0
C407 C 0.49656 0.88631 0.94964 0.0
C408 C 0.48893 0.90283 0.93998 0.0
C409 C 0.49493 0.92587 0.95087 0.0
C410 C 0.48727 0.86022 0.93998 0.0
C411 C 0.45985 0.84314 0.9372 0.0
C412 C 0.50482 0.85108 0.93629 0.0
C413 C 0.53407 0.86852 0.93767 0.0
C414 C 0.54667 0.8917 0.92547 0.0
C415 C 0.57417 0.90819 0.92701 0.0
C416 C 0.58934 0.90166 0.94061 0.0
C417 C 0.57704 0.87859 0.95267 0.0
C418 C 0.54954 0.86203 0.9512 0.0
C419 C 0.42945 0.73947 0.90465 0.0
C420 C 0.43692 0.72612 0.91953 0.0
C421 C 0.43955 0.76599 0.90747 0.0
C422 C 0.45713 0.77964 0.92531 0.0
C423 C 0.465 0.76643 0.93987 0.0
C424 C 0.45501 0.74 0.93704 0.0
C425 C 0.46694 0.8075 0.92935 0.0
C426 C 0.49442 0.82484 0.93112 0.0
C427 C 0.44946 0.81689 0.93218 0.0
C428 C 0.42023 0.79955 0.93149 0.0
C429 C 0.40757 0.77865 0.94638 0.0
C430 C 0.38001 0.76234 0.94555 0.0
C431 C 0.36487 0.76686 0.93003 0.0
C432 C 0.37727 0.78777 0.91535 0.0
C433 C 0.40483 0.80413 0.9161 0.0
H434 H 0.34353 0.75422 0.92941 0.0
H435 H 0.61063 0.91446 0.94179 0.0
H436 H 0.6259 0.53848 0.14398 0.0
H437 H 0.64748 0.52021 0.12216 0.0
H438 H 0.57337 0.46934 0.08796 0.0
H439 H 0.55167 0.48768 0.10995 0.0
H440 H 0.59462 0.44328 0.10781 0.0
H441 H 0.62528 0.51512 0.05861 0.0
H442 H 0.64596 0.56098 0.04829 0.0
H443 H 0.71957 0.57685 0.07845 0.0
H444 H 0.69923 0.53114 0.08925 0.0
H445 H 0.65394 0.38503 0.0467 0.0
H446 H 0.63129 0.40851 0.05512 0.0
H447 H 0.70048 0.46608 0.09153 0.0
H448 H 0.72339 0.44287 0.083 0.0
H449 H 0.67923 0.48829 0.06603 0.0
H450 H 0.64775 0.41898 0.11936 0.0
H451 H 0.62763 0.37372 0.13149 0.0
H452 H 0.55607 0.35388 0.09513 0.0
H453 H 0.57592 0.399 0.08254 0.0
C454 C 0.61447 0.52403 0.13123 0.0
C455 C 0.58718 0.51457 0.12852 0.0
C456 C 0.62679 0.51358 0.11877 0.0
C457 C 0.61207 0.4934 0.10338 0.0
C458 C 0.58512 0.48494 0.09971 0.0
C459 C 0.5728 0.49558 0.11208 0.0
C460 C 0.62415 0.47933 0.0933 0.0
C461 C 0.61276 0.45299 0.09817 0.0
C462 C 0.64829 0.49217 0.08137 0.0
C463 C 0.66065 0.5197 0.07488 0.0
C464 C 0.64582 0.52841 0.0632 0.0
C465 C 0.65749 0.55439 0.05723 0.0
C466 C 0.68405 0.57183 0.06274 0.0
C467 C 0.699 0.56332 0.0742 0.0
C468 C 0.68741 0.53737 0.08022 0.0
C469 C 0.66442 0.40276 0.0564 0.0
C470 C 0.69045 0.41196 0.06429 0.0
C471 C 0.6514 0.41614 0.06124 0.0
C472 C 0.66407 0.43893 0.07416 0.0
C473 C 0.6903 0.44854 0.08153 0.0
C474 C 0.70333 0.43517 0.07672 0.0
C475 C 0.64975 0.45232 0.08067 0.0
C476 C 0.66081 0.47851 0.07528 0.0
C477 C 0.62538 0.43942 0.09228 0.0
C478 C 0.61343 0.41228 0.09977 0.0
C479 C 0.62781 0.40492 0.11378 0.0
C480 C 0.61644 0.3793 0.12077 0.0
C481 C 0.59062 0.36092 0.11402 0.0
C482 C 0.57609 0.36813 0.10031 0.0
C483 C 0.58738 0.39372 0.09324 0.0
H484 H 0.58184 0.3411 0.11946 0.0
H485 H 0.69305 0.59193 0.05811 0.0
H486 H 0.47189 0.93863 0.52925 0.0
H487 H 0.44791 0.89743 0.54934 0.0
H488 H 0.37526 0.88044 0.51575 0.0
H489 H 0.39935 0.92147 0.49545 0.0
H490 H 0.3686 0.86205 0.56185 0.0
H491 H 0.40797 0.86006 0.49155 0.0
H492 H 0.44505 0.87561 0.46502 0.0
H493 H 0.4888 0.85814 0.51279 0.0
H494 H 0.45211 0.84293 0.5398 0.0
H495 H 0.29429 0.72528 0.55492 0.0
H496 H 0.31831 0.7716 0.54753 0.0
H497 H 0.38989 0.77849 0.575 0.0
H498 H 0.36601 0.73202 0.58233 0.0
H499 H 0.39896 0.80353 0.5354 0.0
H500 H 0.35651 0.80083 0.60438 0.0
H501 H 0.3192 0.786 0.63057 0.0
H502 H 0.28064 0.81201 0.58516 0.0
H503 H 0.31756 0.82668 0.55853 0.0
C504 C 0.45061 0.92654 0.52693 0.0
C505 C 0.4373 0.93316 0.51108 0.0
C506 C 0.43698 0.90299 0.53826 0.0
C507 C 0.40987 0.88583 0.53387 0.0
C508 C 0.39612 0.89347 0.51945 0.0
C509 C 0.40983 0.91687 0.50793 0.0
C510 C 0.39683 0.85869 0.54159 0.0
C511 C 0.37509 0.84917 0.55603 0.0
C512 C 0.4056 0.84205 0.53417 0.0
C513 C 0.42744 0.85065 0.5178 0.0
C514 C 0.42558 0.85973 0.49647 0.0
C515 C 0.44652 0.86847 0.48134 0.0
C516 C 0.46931 0.86794 0.48725 0.0
C517 C 0.47115 0.85858 0.50827 0.0
C518 C 0.4503 0.8499 0.52349 0.0
C519 C 0.31512 0.73662 0.5595 0.0
C520 C 0.32821 0.72489 0.56923 0.0
C521 C 0.3288 0.76317 0.55537 0.0
C522 C 0.35585 0.77861 0.56094 0.0
C523 C 0.369 0.76698 0.57064 0.0
C524 C 0.3553 0.74041 0.57486 0.0
C525 C 0.37057 0.80667 0.55576 0.0
C526 C 0.3926 0.81639 0.54158 0.0
C527 C 0.36195 0.82341 0.56338 0.0
C528 C 0.33972 0.81465 0.57936 0.0
C529 C 0.33998 0.8032 0.59989 0.0
C530 C 0.31892 0.79486 0.61483 0.0
C531 C 0.29754 0.79801 0.60951 0.0
C532 C 0.29721 0.80956 0.58925 0.0
C533 C 0.31821 0.81792 0.57423 0.0
H534 H 0.28125 0.79154 0.62111 0.0
H535 H 0.4855 0.87472 0.47551 0.0
H536 H 0.49333 0.42764 0.67697 0.0
H537 H 0.50741 0.3998 0.69495 0.0
H538 H 0.58663 0.44906 0.67007 0.0
H539 H 0.57291 0.47694 0.65259 0.0
H540 H 0.56313 0.3974 0.65661 0.0
H541 H 0.57658 0.44754 0.72415 0.0
H542 H 0.56266 0.46555 0.75466 0.0
H543 H 0.50407 0.38897 0.77519 0.0
H544 H 0.5174 0.3705 0.74457 0.0
H545 H 0.64315 0.35385 0.7008 0.0
H546 H 0.62325 0.37974 0.69235 0.0
H547 H 0.55251 0.32543 0.7277 0.0
H548 H 0.57259 0.29943 0.73662 0.0
H549 H 0.56553 0.37489 0.73648 0.0
H550 H 0.55321 0.32427 0.67118 0.0
H551 H 0.56544 0.30525 0.64029 0.0
H552 H 0.61898 0.38095 0.61457 0.0
H553 H 0.6074 0.40047 0.64552 0.0
C554 C 0.51392 0.43292 0.67601 0.0
C555 C 0.53196 0.45428 0.6632 0.0
C556 C 0.52191 0.41697 0.68617 0.0
C557 C 0.54801 0.42225 0.68362 0.0
C558 C 0.56637 0.44452 0.6721 0.0
C559 C 0.55849 0.46044 0.66214 0.0
C560 C 0.55587 0.40354 0.6908 0.0
C561 C 0.56389 0.39265 0.6741 0.0
C562 C 0.55579 0.39656 0.71352 0.0
C563 C 0.54776 0.40765 0.73189 0.0
C564 C 0.56054 0.43454 0.73502 0.0
C565 C 0.5528 0.44483 0.75237 0.0
C566 C 0.53243 0.42842 0.76681 0.0
C567 C 0.51981 0.40167 0.76396 0.0
C568 C 0.52746 0.39128 0.74663 0.0
C569 C 0.62339 0.34736 0.70688 0.0
C570 C 0.60939 0.3244 0.71922 0.0
C571 C 0.61199 0.3622 0.70197 0.0
C572 C 0.58619 0.35432 0.70904 0.0
C573 C 0.5724 0.33183 0.72198 0.0
C574 C 0.58388 0.31696 0.727 0.0
C575 C 0.57367 0.36942 0.70229 0.0
C576 C 0.56459 0.37946 0.71898 0.0
C577 C 0.57249 0.3755 0.67947 0.0
C578 C 0.57961 0.36385 0.66083 0.0
C579 C 0.56777 0.33688 0.65907 0.0
C580 C 0.57457 0.32601 0.64152 0.0
C581 C 0.59303 0.34188 0.62552 0.0
C582 C 0.60471 0.36867 0.627 0.0
C583 C 0.59803 0.37966 0.64454 0.0
H584 H 0.59824 0.33342 0.61193 0.0
H585 H 0.52647 0.43642 0.78024 0.0
H586 H 0.09352 0.54729 0.86063 0.0
H587 H 0.13666 0.56085 0.87837 0.0
H588 H 0.13648 0.49596 0.84777 0.0
H589 H 0.09342 0.48253 0.82996 0.0
H590 H 0.16133 0.50975 0.89166 0.0
H591 H 0.16263 0.54778 0.8199 0.0
H592 H 0.14941 0.57097 0.79371 0.0
H593 H 0.18461 0.637 0.83772 0.0
H594 H 0.19747 0.61396 0.86446 0.0
H595 H 0.29878 0.55613 0.8807 0.0
H596 H 0.25123 0.53801 0.87494 0.0
H597 H 0.25973 0.61079 0.8944 0.0
H598 H 0.30752 0.6293 0.89952 0.0
H599 H 0.22952 0.59314 0.85876 0.0
H600 H 0.23115 0.55606 0.92961 0.0
H601 H 0.24304 0.53219 0.9562 0.0
H602 H 0.20245 0.46443 0.91443 0.0
H603 H 0.1906 0.488 0.88744 0.0
C604 C 0.10217 0.53533 0.8586 0.0
C605 C 0.09015 0.51372 0.84428 0.0
C606 C 0.12686 0.54316 0.86855 0.0
C607 C 0.13986 0.52954 0.86418 0.0
C608 C 0.12673 0.50665 0.85144 0.0
C609 C 0.10213 0.49892 0.84138 0.0
C610 C 0.1684 0.54108 0.86993 0.0
C611 C 0.17631 0.52791 0.88443 0.0
C612 C 0.18785 0.56492 0.86064 0.0
C613 C 0.18076 0.57905 0.84429 0.0
C614 C 0.16739 0.56718 0.82407 0.0
C615 C 0.15997 0.58029 0.80912 0.0
C616 C 0.16614 0.60541 0.81406 0.0
C617 C 0.17981 0.61751 0.83393 0.0
C618 C 0.18716 0.60444 0.849 0.0
C619 C 0.29053 0.56827 0.88388 0.0
C620 C 0.30698 0.59417 0.89062 0.0
C621 C 0.26326 0.55781 0.8807 0.0
C622 C 0.2517 0.57286 0.88458 0.0
C623 C 0.26811 0.59873 0.89135 0.0
C624 C 0.29545 0.60929 0.89431 0.0
C625 C 0.22274 0.56195 0.88073 0.0
C626 C 0.21467 0.57515 0.86634 0.0
C627 C 0.2032 0.53814 0.89014 0.0
C628 C 0.21017 0.52387 0.90641 0.0
C629 C 0.22491 0.53612 0.92602 0.0
C630 C 0.23162 0.52263 0.94117 0.0
C631 C 0.22355 0.49683 0.93698 0.0
C632 C 0.2087 0.48443 0.91765 0.0
C633 C 0.20195 0.49783 0.90243 0.0
H634 H 0.22878 0.48642 0.94873 0.0
H635 H 0.16036 0.61553 0.80247 0.0
H636 H 0.59174 0.08447 0.01953 0.0
H637 H 0.61975 0.12678 0.03771 0.0
H638 H 0.56916 0.15276 0.01056 0.0
H639 H 0.5411 0.11068 0.99274 0.0
H640 H 0.62126 0.18439 0.99941 0.0
H641 H 0.57057 0.1437 0.06587 0.0
H642 H 0.55206 0.11069 0.09555 0.0
H643 H 0.63074 0.13149 0.11661 0.0
H644 H 0.64972 0.16439 0.08683 0.0
H645 H 0.6756 0.30798 0.04731 0.0
H646 H 0.64529 0.26264 0.0376 0.0
H647 H 0.69703 0.24193 0.07126 0.0
H648 H 0.72727 0.28724 0.08142 0.0
H649 H 0.6462 0.20688 0.07971 0.0
H650 H 0.69737 0.24715 0.01438 0.0
H651 H 0.71714 0.2794 0.98419 0.0
H652 H 0.63939 0.25829 0.9601 0.0
H653 H 0.61914 0.22618 0.99037 0.0
C654 C 0.58618 0.09897 0.01806 0.0
C655 C 0.56437 0.09436 0.00458 0.0
C656 C 0.60225 0.12316 0.02835 0.0
C657 C 0.59664 0.14298 0.02533 0.0
C658 C 0.57397 0.13782 0.01298 0.0
C659 C 0.55794 0.11376 0.00284 0.0
C660 C 0.61543 0.16976 0.0332 0.0
C661 C 0.62644 0.18936 0.01701 0.0
C662 C 0.62294 0.17607 0.05604 0.0
C663 C 0.61156 0.15631 0.07395 0.0
C664 C 0.58392 0.14107 0.07669 0.0
C665 C 0.57335 0.12241 0.09356 0.0
C666 C 0.59021 0.11894 0.10791 0.0
C667 C 0.6177 0.13417 0.10545 0.0
C668 C 0.62838 0.15284 0.08859 0.0
C669 C 0.6805 0.29379 0.05278 0.0
C670 C 0.704 0.30131 0.065 0.0
C671 C 0.66317 0.26786 0.04713 0.0
C672 C 0.66907 0.24889 0.05338 0.0
C673 C 0.69208 0.25621 0.0662 0.0
C674 C 0.7094 0.28216 0.07193 0.0
C675 C 0.65159 0.2216 0.04594 0.0
C676 C 0.64101 0.20192 0.06212 0.0
C677 C 0.64463 0.21507 0.023 0.0
C678 C 0.65674 0.23446 0.00482 0.0
C679 C 0.68448 0.24955 0.00278 0.0
C680 C 0.69578 0.26778 0.98563 0.0
C681 C 0.67953 0.27094 0.97028 0.0
C682 C 0.65195 0.25585 0.97202 0.0
C683 C 0.64055 0.23763 0.98918 0.0
H684 H 0.68832 0.28505 0.957 0.0
H685 H 0.58198 0.10449 0.12097 0.0
H686 H 0.45418 0.54972 0.18233 0.0
H687 H 0.43844 0.57603 0.19985 0.0
H688 H 0.51735 0.64286 0.19672 0.0
H689 H 0.53321 0.61633 0.17926 0.0
H690 H 0.48579 0.64127 0.23588 0.0
H691 H 0.48161 0.63524 0.15499 0.0
H692 H 0.47067 0.61107 0.11918 0.0
H693 H 0.38818 0.56933 0.13646 0.0
H694 H 0.39871 0.59291 0.1726 0.0
H695 H 0.4426 0.73316 0.23158 0.0
H696 H 0.46476 0.70873 0.2251 0.0
H697 H 0.38872 0.63933 0.21467 0.0
H698 H 0.36651 0.66359 0.22077 0.0
H699 H 0.4219 0.64428 0.18257 0.0
H700 H 0.42573 0.65017 0.26337 0.0
H701 H 0.43666 0.67245 0.30012 0.0
H702 H 0.51937 0.7139 0.28355 0.0
H703 H 0.50889 0.69211 0.24655 0.0
C704 C 0.46836 0.56977 0.18631 0.0
C705 C 0.49487 0.58106 0.17963 0.0
C706 C 0.45936 0.5848 0.19619 0.0
C707 C 0.47666 0.61144 0.19927 0.0
C708 C 0.50372 0.62232 0.19452 0.0
C709 C 0.51278 0.60718 0.18465 0.0
C710 C 0.46559 0.62818 0.20397 0.0
C711 C 0.47209 0.64227 0.22415 0.0
C712 C 0.44752 0.6292 0.1887 0.0
C713 C 0.44098 0.61569 0.16659 0.0
C714 C 0.46115 0.62082 0.15121 0.0
C715 C 0.45503 0.60723 0.13085 0.0
C716 C 0.42875 0.58863 0.12557 0.0
C717 C 0.40853 0.58371 0.14059 0.0
C718 C 0.41456 0.5972 0.16101 0.0
C719 C 0.43059 0.71267 0.22804 0.0
C720 C 0.40276 0.70036 0.22666 0.0
C721 C 0.4433 0.69869 0.22443 0.0
C722 C 0.42842 0.67212 0.21954 0.0
C723 C 0.40064 0.6598 0.21838 0.0
C724 C 0.38796 0.67373 0.22193 0.0
C725 C 0.44164 0.65719 0.21478 0.0
C726 C 0.43563 0.64347 0.19438 0.0
C727 C 0.46015 0.6566 0.22986 0.0
C728 C 0.46649 0.66972 0.25209 0.0
C729 C 0.44623 0.6642 0.26748 0.0
C730 C 0.45234 0.67671 0.28838 0.0
C731 C 0.47868 0.69464 0.29414 0.0
C732 C 0.49897 0.70004 0.27905 0.0
C733 C 0.49296 0.6876 0.25812 0.0
H734 H 0.48338 0.7043 0.31033 0.0
H735 H 0.42407 0.57807 0.10983 0.0
H736 H 0.9237 0.5374 0.3289 0.0
H737 H 0.88277 0.52568 0.34897 0.0
H738 H 0.88288 0.46008 0.37772 0.0
H739 H 0.92423 0.47237 0.35813 0.0
H740 H 0.83782 0.48462 0.34067 0.0
H741 H 0.84531 0.43938 0.42473 0.0
H742 H 0.87899 0.44696 0.45363 0.0
H743 H 0.92403 0.5271 0.43577 0.0
H744 H 0.89046 0.52009 0.40698 0.0
H745 H 0.71022 0.3946 0.37805 0.0
H746 H 0.75716 0.41502 0.36877 0.0
H747 H 0.77679 0.47212 0.42074 0.0
H748 H 0.72982 0.45159 0.43037 0.0
H749 H 0.81302 0.45696 0.41967 0.0
H750 H 0.77296 0.48695 0.36714 0.0
H751 H 0.73966 0.48255 0.33911 0.0
H752 H 0.76168 0.44014 0.29539 0.0
H753 H 0.79483 0.44393 0.32332 0.0
C754 C 0.91549 0.52114 0.34028 0.0
C755 C 0.92721 0.50602 0.34238 0.0
C756 C 0.89199 0.51427 0.35154 0.0
C757 C 0.87963 0.49197 0.3649 0.0
C758 C 0.89217 0.47761 0.36788 0.0
C759 C 0.91583 0.48465 0.35675 0.0
C760 C 0.85232 0.48214 0.37346 0.0
C761 C 0.83253 0.47874 0.358 0.0
C762 C 0.84527 0.47465 0.39611 0.0
C763 C 0.86545 0.47913 0.41356 0.0
C764 C 0.86233 0.45864 0.42704 0.0
C765 C 0.88142 0.46284 0.44339 0.0
C766 C 0.90367 0.48748 0.44649 0.0
C767 C 0.90684 0.508 0.43329 0.0
C768 C 0.8878 0.50392 0.41693 0.0
C769 C 0.72449 0.41138 0.38765 0.0
C770 C 0.71619 0.42157 0.40485 0.0
C771 C 0.75135 0.42308 0.38228 0.0
C772 C 0.77048 0.44533 0.39385 0.0
C773 C 0.76239 0.45501 0.41156 0.0
C774 C 0.7355 0.44329 0.41698 0.0
C775 C 0.79869 0.45904 0.38675 0.0
C776 C 0.81851 0.46305 0.40242 0.0
C777 C 0.80594 0.46762 0.36438 0.0
C778 C 0.78623 0.46555 0.34741 0.0
C779 C 0.77058 0.47654 0.35161 0.0
C780 C 0.75174 0.47417 0.33573 0.0
C781 C 0.74852 0.46103 0.3155 0.0
C782 C 0.76418 0.45029 0.31108 0.0
C783 C 0.78301 0.45256 0.32692 0.0
H784 H 0.73391 0.4592 0.30324 0.0
H785 H 0.91843 0.49068 0.45914 0.0
H786 H 0.08353 0.51787 0.36074 0.0
H787 H 0.10789 0.52491 0.39624 0.0
H788 H 0.07547 0.56995 0.42129 0.0
H789 H 0.05072 0.56256 0.38582 0.0
H790 H 0.13134 0.59612 0.42061 0.0
H791 H 0.05903 0.51616 0.447 0.0
H792 H 0.02548 0.46971 0.44519 0.0
H793 H 0.08713 0.45164 0.44138 0.0
H794 H 0.12108 0.49803 0.44283 0.0
H795 H 0.20176 0.62697 0.52362 0.0
H796 H 0.16639 0.61141 0.49541 0.0
H797 H 0.18579 0.55532 0.47241 0.0
H798 H 0.22084 0.57033 0.50115 0.0
H799 H 0.13371 0.53401 0.47375 0.0
H800 H 0.20544 0.61197 0.4435 0.0
H801 H 0.24035 0.65804 0.44309 0.0
H802 H 0.18156 0.6794 0.45137 0.0
H803 H 0.14631 0.63342 0.45214 0.0
C804 C 0.08092 0.52848 0.37417 0.0
C805 C 0.06522 0.53958 0.37073 0.0
C806 C 0.09482 0.53252 0.39439 0.0
C807 C 0.09348 0.54796 0.41136 0.0
C808 C 0.07666 0.5579 0.4084 0.0
C809 C 0.06242 0.55353 0.38827 0.0
C810 C 0.11218 0.55634 0.43074 0.0
C811 C 0.13152 0.58263 0.43256 0.0
C812 C 0.11297 0.53855 0.4457 0.0
C813 C 0.09261 0.51062 0.44484 0.0
C814 C 0.06545 0.50231 0.44557 0.0
C815 C 0.04635 0.47598 0.44465 0.0
C816 C 0.05417 0.45774 0.44312 0.0
C817 C 0.08111 0.46579 0.44255 0.0
C818 C 0.10029 0.4921 0.44345 0.0
C819 C 0.19858 0.61135 0.51254 0.0
C820 C 0.21428 0.60003 0.51452 0.0
C821 C 0.17835 0.6025 0.49638 0.0
C822 C 0.17365 0.58244 0.48154 0.0
C823 C 0.18905 0.57084 0.48365 0.0
C824 C 0.20917 0.57953 0.50001 0.0
C825 C 0.15293 0.57386 0.46365 0.0
C826 C 0.13335 0.54755 0.46199 0.0
C827 C 0.15211 0.59158 0.44855 0.0
C828 C 0.17327 0.61925 0.44813 0.0
C829 C 0.19998 0.62649 0.44543 0.0
C830 C 0.21982 0.65259 0.44509 0.0
C831 C 0.21319 0.67164 0.44727 0.0
C832 C 0.18668 0.66463 0.44973 0.0
C833 C 0.16675 0.63855 0.4501 0.0
H834 H 0.22858 0.69183 0.447 0.0
H835 H 0.03935 0.43736 0.44242 0.0
H836 H 0.49604 0.0926 0.538 0.0
H837 H 0.51476 0.11642 0.57308 0.0
H838 H 0.55965 0.07867 0.58215 0.0
H839 H 0.54115 0.05487 0.54662 0.0
H840 H 0.53615 0.08734 0.62362 0.0
H841 H 0.59151 0.1324 0.56025 0.0
H842 H 0.59912 0.14978 0.52175 0.0
H843 H 0.56883 0.19856 0.54 0.0
H844 H 0.56057 0.18112 0.57852 0.0
H845 H 0.624 0.18162 0.70291 0.0
H846 H 0.60641 0.15164 0.67104 0.0
H847 H 0.57308 0.19478 0.6428 0.0
H848 H 0.59143 0.22534 0.6742 0.0
H849 H 0.59337 0.18161 0.61083 0.0
H850 H 0.53533 0.13647 0.67227 0.0
H851 H 0.52424 0.11855 0.71052 0.0
H852 H 0.55598 0.06995 0.69633 0.0
H853 H 0.5676 0.08788 0.65804 0.0
C854 C 0.5096 0.08907 0.54762 0.0
C855 C 0.51749 0.07221 0.53942 0.0
C856 C 0.5202 0.10262 0.56767 0.0
C857 C 0.53885 0.09956 0.57997 0.0
C858 C 0.54528 0.08128 0.57281 0.0
C859 C 0.53469 0.06769 0.55258 0.0
C860 C 0.55336 0.11743 0.59889 0.0
C861 C 0.54906 0.1079 0.62089 0.0
C862 C 0.56966 0.14429 0.59523 0.0
C863 C 0.57524 0.1553 0.57223 0.0
C864 C 0.58631 0.14671 0.55601 0.0
C865 C 0.59075 0.15658 0.53419 0.0
C866 C 0.58441 0.17522 0.52841 0.0
C867 C 0.57371 0.18411 0.54449 0.0
C868 C 0.56916 0.17425 0.56633 0.0
C869 C 0.61303 0.18479 0.68985 0.0
C870 C 0.60901 0.2058 0.69113 0.0
C871 C 0.60285 0.16753 0.67169 0.0
C872 C 0.58797 0.17063 0.65469 0.0
C873 C 0.58443 0.19193 0.65571 0.0
C874 C 0.59492 0.20939 0.6737 0.0
C875 C 0.57596 0.15171 0.63584 0.0
C876 C 0.58072 0.16105 0.61372 0.0
C877 C 0.55982 0.12474 0.63947 0.0
C878 C 0.55259 0.11372 0.66238 0.0
C879 C 0.5401 0.12208 0.67736 0.0
C880 C 0.53371 0.11191 0.69905 0.0
C881 C 0.53947 0.09317 0.70589 0.0
C882 C 0.55157 0.0845 0.69102 0.0
C883 C 0.55805 0.09465 0.66932 0.0
H884 H 0.53452 0.08531 0.72269 0.0
H885 H 0.58784 0.18283 0.5115 0.0
H886 H 0.44585 0.49712 0.71544 0.0
H887 H 0.43808 0.51629 0.74874 0.0
H888 H 0.4949 0.59237 0.72473 0.0
H889 H 0.50239 0.57316 0.69139 0.0
H890 H 0.46481 0.55096 0.78395 0.0
H891 H 0.46461 0.62724 0.72562 0.0
H892 H 0.45902 0.63305 0.68525 0.0
H893 H 0.41066 0.55088 0.67643 0.0
H894 H 0.41575 0.54462 0.71676 0.0
H895 H 0.44363 0.63545 0.85179 0.0
H896 H 0.46176 0.61876 0.82419 0.0
H897 H 0.38788 0.58373 0.78689 0.0
H898 H 0.36988 0.60096 0.81406 0.0
H899 H 0.42698 0.60396 0.75883 0.0
H900 H 0.40446 0.54839 0.82263 0.0
H901 H 0.40495 0.53778 0.86261 0.0
H902 H 0.48925 0.5701 0.86027 0.0
H903 H 0.48932 0.58124 0.82033 0.0
C904 C 0.45757 0.51784 0.71791 0.0
C905 C 0.47491 0.53374 0.70113 0.0
C906 C 0.45304 0.5288 0.73683 0.0
C907 C 0.4656 0.55575 0.73899 0.0
C908 C 0.48485 0.57153 0.72328 0.0
C909 C 0.48933 0.56059 0.70438 0.0
C910 C 0.45574 0.56723 0.75551 0.0
C911 C 0.45675 0.56274 0.77853 0.0
C912 C 0.44444 0.58189 0.74834 0.0
C913 C 0.44081 0.58549 0.72415 0.0
C914 C 0.45272 0.61044 0.71507 0.0
C915 C 0.44966 0.6138 0.69219 0.0
C916 C 0.43459 0.59234 0.67827 0.0
C917 C 0.42243 0.56748 0.68721 0.0
C918 C 0.42543 0.56402 0.71007 0.0
C919 C 0.43129 0.62434 0.83763 0.0
C920 C 0.40525 0.61946 0.83518 0.0
C921 C 0.44164 0.61467 0.82192 0.0
C922 C 0.42606 0.59961 0.80363 0.0
C923 C 0.40029 0.59526 0.80086 0.0
C924 C 0.39001 0.60511 0.81645 0.0
C925 C 0.43641 0.58814 0.78747 0.0
C926 C 0.43536 0.59251 0.7644 0.0
C927 C 0.44693 0.57274 0.7946 0.0
C928 C 0.44693 0.56588 0.81856 0.0
C929 C 0.42313 0.5534 0.83068 0.0
C930 C 0.4233 0.54727 0.85333 0.0
C931 C 0.44713 0.55333 0.86399 0.0
C932 C 0.47082 0.56546 0.852 0.0
C933 C 0.47076 0.57167 0.82935 0.0
H934 H 0.44722 0.54857 0.88153 0.0
H935 H 0.43228 0.59497 0.66056 0.0
H936 H 0.97255 0.45905 0.88834 0.0
H937 H 0.9491 0.44972 0.92424 0.0
H938 H 0.90161 0.47972 0.89805 0.0
H939 H 0.92513 0.48931 0.86238 0.0
H940 H 0.91363 0.49092 0.94359 0.0
H941 H 0.87967 0.41726 0.89279 0.0
H942 H 0.88379 0.38581 0.8692 0.0
H943 H 0.90906 0.36093 0.92687 0.0
H944 H 0.90548 0.39249 0.95071 0.0
H945 H 0.79234 0.42332 0.00224 0.0
H946 H 0.82698 0.44175 0.97375 0.0
H947 H 0.863 0.40135 0.00263 0.0
H948 H 0.82825 0.38251 0.03086 0.0
H949 H 0.86098 0.39681 0.95859 0.0
H950 H 0.89045 0.46649 0.01057 0.0
H951 H 0.88705 0.49788 0.0347 0.0
H952 H 0.87169 0.5306 0.97659 0.0
H953 H 0.87459 0.49913 0.95212 0.0
C954 C 0.95774 0.46444 0.89057 0.0
C955 C 0.95047 0.47469 0.87259 0.0
C956 C 0.94423 0.45894 0.91098 0.0
C957 C 0.92334 0.46366 0.91365 0.0
C958 C 0.91761 0.47588 0.89634 0.0
C959 C 0.93099 0.48126 0.87596 0.0
C960 C 0.90541 0.45332 0.93321 0.0
C961 C 0.90202 0.47035 0.94687 0.0
C962 C 0.89069 0.42653 0.93773 0.0
C963 C 0.89261 0.40742 0.92345 0.0
C964 C 0.8863 0.40521 0.90037 0.0
C965 C 0.88851 0.38737 0.88698 0.0
C966 C 0.89675 0.37146 0.89652 0.0
C967 C 0.90273 0.37331 0.9195 0.0
C968 C 0.90061 0.39116 0.93295 0.0
C969 C 0.8076 0.41832 0.0025 0.0
C970 C 0.80751 0.40144 0.01883 0.0
C971 C 0.82752 0.42902 0.9863 0.0
C972 C 0.84784 0.42323 0.98625 0.0
C973 C 0.84759 0.40617 0.00238 0.0
C974 C 0.82768 0.39541 0.01852 0.0
C975 C 0.86891 0.43437 0.96897 0.0
C976 C 0.87281 0.41744 0.95563 0.0
C977 C 0.8842 0.46127 0.96489 0.0
C978 C 0.8825 0.48029 0.97953 0.0
C979 C 0.88613 0.48024 0.00295 0.0
C980 C 0.88433 0.49807 0.01668 0.0
C981 C 0.8791 0.51618 0.00719 0.0
C982 C 0.87572 0.51654 0.98393 0.0
C983 C 0.87746 0.49872 0.97011 0.0
H984 H 0.87773 0.52998 0.01785 0.0
H985 H 0.89844 0.35766 0.88612 0.0
H986 H 0.52256 0.95288 0.05476 0.0
H987 H 0.50025 0.92779 0.0882 0.0
H988 H 0.43285 0.93585 0.07349 0.0
H989 H 0.45537 0.96124 0.03988 0.0
H990 H 0.44627 0.93426 0.12292 0.0
H991 H 0.42757 0.88742 0.0524 0.0
H992 H 0.44194 0.87796 0.01664 0.0
H993 H 0.48849 0.85331 0.05295 0.0
H994 H 0.47481 0.86313 0.08894 0.0
H995 H 0.35908 0.82128 0.18518 0.0
H996 H 0.37729 0.85354 0.15529 0.0
H997 H 0.44215 0.84002 0.14758 0.0
H998 H 0.42368 0.80729 0.17683 0.0
H999 H 0.42618 0.84495 0.10814 0.0
H1000 H 0.44777 0.89268 0.17786 0.0
H1001 H 0.43794 0.90524 0.21434 0.0
H1002 H 0.38953 0.92976 0.18097 0.0
H1003 H 0.39879 0.91699 0.1443 0.0
C1004 C 0.50346 0.9502 0.05921 0.0
C1005 C 0.49059 0.95887 0.04487 0.0
C1006 C 0.49072 0.93584 0.07824 0.0
C1007 C 0.4648 0.92972 0.08308 0.0
C1008 C 0.45289 0.94047 0.07002 0.0
C1009 C 0.46574 0.95498 0.05091 0.0
C1010 C 0.44899 0.90881 0.09923 0.0
C1011 C 0.44141 0.91462 0.11963 0.0
C1012 C 0.44312 0.88334 0.09494 0.0
C1013 C 0.4503 0.87617 0.07336 0.0
C1014 C 0.44094 0.88007 0.05275 0.0
C1015 C 0.44897 0.87466 0.03244 0.0
C1016 C 0.46616 0.86509 0.03252 0.0
C1017 C 0.4752 0.86075 0.05291 0.0
C1018 C 0.46729 0.8662 0.07328 0.0
C1019 C 0.3771 0.82503 0.17697 0.0
C1020 C 0.38997 0.81177 0.18345 0.0
C1021 C 0.38759 0.8436 0.15998 0.0
C1022 C 0.41137 0.84956 0.14942 0.0
C1023 C 0.42381 0.83582 0.15547 0.0
C1024 C 0.41321 0.81709 0.17224 0.0
C1025 C 0.42367 0.87029 0.13227 0.0
C1026 C 0.43062 0.86445 0.1115 0.0
C1027 C 0.42914 0.89575 0.13638 0.0
C1028 C 0.42373 0.90362 0.15838 0.0
C1029 C 0.43488 0.90058 0.17832 0.0
C1030 C 0.42943 0.90776 0.19903 0.0
C1031 C 0.41306 0.91823 0.19998 0.0
C1032 C 0.40217 0.92161 0.18021 0.0
C1033 C 0.40752 0.91442 0.15946 0.0
H1034 H 0.40886 0.92377 0.21602 0.0
H1035 H 0.47244 0.86102 0.01677 0.0
H1036 H 0.60653 0.53674 0.20918 0.0
H1037 H 0.61389 0.51684 0.24203 0.0
H1038 H 0.52982 0.46234 0.2458 0.0
H1039 H 0.52234 0.48225 0.21261 0.0
H1040 H 0.56272 0.48199 0.29045 0.0
H1041 H 0.5566 0.44103 0.21842 0.0
H1042 H 0.5676 0.44323 0.17824 0.0
H1043 H 0.65033 0.47922 0.19533 0.0
H1044 H 0.63986 0.47775 0.23561 0.0
H1045 H 0.58107 0.38987 0.35027 0.0
H1046 H 0.56479 0.40876 0.32275 0.0
H1047 H 0.64429 0.457 0.29802 0.0
H1048 H 0.66068 0.43809 0.32528 0.0
H1049 H 0.60918 0.43766 0.26389 0.0
H1050 H 0.61829 0.48118 0.3336 0.0
H1051 H 0.61122 0.48441 0.37399 0.0
H1052 H 0.52732 0.44816 0.36209 0.0
H1053 H 0.53385 0.44434 0.32162 0.0
C1054 C 0.58953 0.52109 0.21749 0.0
C1055 C 0.56391 0.51084 0.20833 0.0
C1056 C 0.59375 0.50976 0.23623 0.0
C1057 C 0.57243 0.48796 0.2461 0.0
C1058 C 0.54648 0.4792 0.23839 0.0
C1059 C 0.54223 0.49059 0.21951 0.0
C1060 C 0.57801 0.47226 0.26177 0.0
C1061 C 0.57235 0.4718 0.28466 0.0
C1062 C 0.59122 0.45961 0.25416 0.0
C1063 C 0.59745 0.45945 0.23003 0.0
C1064 C 0.57715 0.44954 0.21361 0.0
C1065 C 0.58329 0.45066 0.19081 0.0
C1066 C 0.60965 0.46141 0.18423 0.0
C1067 C 0.62992 0.47092 0.20045 0.0
C1068 C 0.62389 0.46993 0.22327 0.0
C1069 C 0.59506 0.40431 0.33883 0.0
C1070 C 0.62221 0.41255 0.34004 0.0
C1071 C 0.58573 0.41519 0.32319 0.0
C1072 C 0.60337 0.43452 0.30851 0.0
C1073 C 0.63032 0.44214 0.3092 0.0
C1074 C 0.63967 0.43134 0.32484 0.0
C1075 C 0.594 0.44733 0.29277 0.0
C1076 C 0.59908 0.44736 0.26975 0.0
C1077 C 0.58057 0.45982 0.30035 0.0
C1078 C 0.57652 0.46219 0.32463 0.0
C1079 C 0.5983 0.47369 0.33962 0.0
C1080 C 0.5944 0.47566 0.36252 0.0
C1081 C 0.56884 0.46643 0.37061 0.0
C1082 C 0.54711 0.45526 0.3558 0.0
C1083 C 0.5509 0.45319 0.33287 0.0
H1084 H 0.56593 0.46805 0.38833 0.0
H1085 H 0.61437 0.46233 0.16656 0.0
H1086 H 0.47983 0.92325 0.44893 0.0
H1087 H 0.47619 0.90224 0.41315 0.0
H1088 H 0.46955 0.96164 0.37868 0.0
H1089 H 0.47126 0.98184 0.41493 0.0
H1090 H 0.43319 0.91812 0.36365 0.0
H1091 H 0.52558 0.95354 0.37378 0.0
H1092 H 0.56734 0.96483 0.39343 0.0
H1093 H 0.5406 0.8844 0.40122 0.0
H1094 H 0.49851 0.87259 0.38188 0.0
H1095 H 0.43699 0.8623 0.25801 0.0
H1096 H 0.45195 0.89261 0.28973 0.0
H1097 H 0.43446 0.83055 0.33544 0.0
H1098 H 0.41889 0.7999 0.3038 0.0
H1099 H 0.48686 0.87976 0.34144 0.0
H1100 H 0.39208 0.84649 0.33392 0.0
H1101 H 0.35187 0.83717 0.31261 0.0
H1102 H 0.38683 0.91772 0.29754 0.0
H1103 H 0.42742 0.92745 0.31853 0.0
C1104 C 0.4777 0.93196 0.43374 0.0
C1105 C 0.47537 0.95401 0.43485 0.0
C1106 C 0.47603 0.9201 0.41317 0.0
C1107 C 0.47282 0.93039 0.39304 0.0
C1108 C 0.472 0.95327 0.39395 0.0
C1109 C 0.47325 0.96497 0.41467 0.0
C1110 C 0.46788 0.91586 0.37151 0.0
C1111 C 0.44537 0.91029 0.3586 0.0
C1112 C 0.48344 0.90521 0.3649 0.0
C1113 C 0.50879 0.91218 0.37648 0.0
C1114 C 0.52852 0.93825 0.37981 0.0
C1115 C 0.55227 0.94474 0.39088 0.0
C1116 C 0.5566 0.92534 0.3986 0.0
C1117 C 0.53721 0.8994 0.39523 0.0
C1118 C 0.51342 0.8928 0.38418 0.0
C1119 C 0.43645 0.85509 0.27479 0.0
C1120 C 0.4267 0.82868 0.27843 0.0
C1121 C 0.44499 0.87244 0.29287 0.0
C1122 C 0.4443 0.86378 0.31487 0.0
C1123 C 0.4352 0.83757 0.31854 0.0
C1124 C 0.4262 0.82009 0.30049 0.0
C1125 C 0.45215 0.88191 0.33414 0.0
C1126 C 0.4751 0.88805 0.3465 0.0
C1127 C 0.43734 0.89348 0.34002 0.0
C1128 C 0.41289 0.88765 0.32756 0.0
C1129 C 0.39128 0.86217 0.32589 0.0
C1130 C 0.36841 0.85682 0.31391 0.0
C1131 C 0.36683 0.87683 0.30367 0.0
C1132 C 0.3881 0.90224 0.30545 0.0
C1133 C 0.41103 0.90768 0.31739 0.0
H1134 H 0.3491 0.87265 0.2944 0.0
H1135 H 0.575 0.93041 0.40717 0.0
H1136 H 0.4911 0.45531 0.57524 0.0
H1137 H 0.50668 0.44614 0.54024 0.0
H1138 H 0.58725 0.50367 0.55819 0.0
H1139 H 0.57172 0.51235 0.59332 0.0
H1140 H 0.5359 0.46914 0.50282 0.0
H1141 H 0.62507 0.47661 0.55281 0.0
H1142 H 0.63691 0.47372 0.5922 0.0
H1143 H 0.55443 0.42567 0.60816 0.0
H1144 H 0.54213 0.4279 0.56882 0.0
H1145 H 0.62111 0.45733 0.42673 0.0
H1146 H 0.60276 0.47159 0.45621 0.0
H1147 H 0.57898 0.40151 0.49297 0.0
H1148 H 0.59784 0.38736 0.46377 0.0
H1149 H 0.59899 0.43993 0.52093 0.0
H1150 H 0.53373 0.41029 0.46304 0.0
H1151 H 0.5148 0.40623 0.42503 0.0
H1152 H 0.53898 0.48651 0.42622 0.0
H1153 H 0.5584 0.49116 0.46415 0.0
C1154 C 0.51196 0.46674 0.57114 0.0
C1155 C 0.53027 0.48459 0.58676 0.0
C1156 C 0.52087 0.46142 0.55125 0.0
C1157 C 0.54817 0.47385 0.54687 0.0
C1158 C 0.56614 0.49361 0.56141 0.0
C1159 C 0.55728 0.49875 0.58133 0.0
C1160 C 0.55813 0.46386 0.52904 0.0
C1161 C 0.54985 0.46294 0.50669 0.0
C1162 C 0.57542 0.45469 0.5343 0.0
C1163 C 0.5827 0.45268 0.5579 0.0
C1164 C 0.60948 0.46532 0.5647 0.0
C1165 C 0.61626 0.4638 0.58703 0.0
C1166 C 0.59643 0.44959 0.60269 0.0
C1167 C 0.56977 0.43673 0.59603 0.0
C1168 C 0.56289 0.43813 0.57372 0.0
C1169 C 0.61208 0.44497 0.44113 0.0
C1170 C 0.61093 0.42117 0.44287 0.0
C1171 C 0.60142 0.45309 0.45791 0.0
C1172 C 0.58914 0.43748 0.47669 0.0
C1173 C 0.58833 0.41389 0.47864 0.0
C1174 C 0.5991 0.40581 0.46191 0.0
C1175 C 0.57744 0.44589 0.49444 0.0
C1176 C 0.58527 0.44637 0.5169 0.0
C1177 C 0.55894 0.45367 0.48935 0.0
C1178 C 0.54775 0.45113 0.46637 0.0
C1179 C 0.53525 0.42715 0.45512 0.0
C1180 C 0.52437 0.42472 0.43361 0.0
C1181 C 0.52565 0.44609 0.42324 0.0
C1182 C 0.53795 0.46997 0.43431 0.0
C1183 C 0.5489 0.47251 0.45581 0.0
H1184 H 0.51713 0.44415 0.40663 0.0
H1185 H 0.60171 0.44849 0.61997 0.0
H1186 H 0.04961 0.49399 0.75103 0.0
H1187 H 0.07459 0.51062 0.71602 0.0
H1188 H 0.1183 0.58698 0.74522 0.0
H1189 H 0.09386 0.57026 0.7804 0.0
H1190 H 0.10269 0.58249 0.69545 0.0
H1191 H 0.14718 0.55889 0.75138 0.0
H1192 H 0.14827 0.52892 0.77895 0.0
H1193 H 0.12852 0.47253 0.72674 0.0
H1194 H 0.12673 0.50198 0.69894 0.0
H1195 H 0.22133 0.64054 0.63138 0.0
H1196 H 0.18905 0.62564 0.66183 0.0
H1197 H 0.15966 0.54658 0.64219 0.0
H1198 H 0.192 0.56124 0.61198 0.0
H1199 H 0.16615 0.55199 0.68651 0.0
H1200 H 0.12479 0.57595 0.6298 0.0
H1201 H 0.12147 0.60441 0.60193 0.0
H1202 H 0.13362 0.65868 0.65418 0.0
H1203 H 0.1374 0.63069 0.68235 0.0
C1204 C 0.06391 0.51446 0.74963 0.0
C1205 C 0.06983 0.53094 0.7682 0.0
C1206 C 0.07819 0.5239 0.72973 0.0
C1207 C 0.09826 0.54998 0.72815 0.0
C1208 C 0.10274 0.56685 0.74611 0.0
C1209 C 0.08883 0.55732 0.76613 0.0
C1210 C 0.11694 0.55882 0.70917 0.0
C1211 C 0.11676 0.57608 0.69352 0.0
C1212 C 0.13489 0.55001 0.70659 0.0
C1213 C 0.13649 0.53249 0.72316 0.0
C1214 C 0.14281 0.54 0.74583 0.0
C1215 C 0.14359 0.52313 0.76149 0.0
C1216 C 0.1384 0.49881 0.75461 0.0
C1217 C 0.13249 0.49135 0.73205 0.0
C1218 C 0.13158 0.50812 0.71634 0.0
C1219 C 0.20801 0.61998 0.63356 0.0
C1220 C 0.20923 0.60208 0.61924 0.0
C1221 C 0.18947 0.6115 0.65089 0.0
C1222 C 0.17173 0.58499 0.65412 0.0
C1223 C 0.17311 0.56712 0.63998 0.0
C1224 C 0.19162 0.57556 0.62269 0.0
C1225 C 0.15206 0.57579 0.67253 0.0
C1226 C 0.15208 0.55844 0.68823 0.0
C1227 C 0.1339 0.58445 0.67502 0.0
C1228 C 0.13166 0.60135 0.65815 0.0
C1229 C 0.12699 0.59406 0.63532 0.0
C1230 C 0.12498 0.61008 0.61948 0.0
C1231 C 0.12741 0.63337 0.62627 0.0
C1232 C 0.13179 0.64065 0.64894 0.0
C1233 C 0.13385 0.62471 0.66486 0.0
H1234 H 0.12584 0.64575 0.61398 0.0
H1235 H 0.13902 0.48578 0.76676 0.0
H1236 H 0.57274 0.06151 0.92155 0.0
H1237 H 0.58318 0.08807 0.88774 0.0
H1238 H 0.51126 0.08986 0.89554 0.0
H1239 H 0.50109 0.06369 0.92972 0.0
H1240 H 0.53103 0.08913 0.84681 0.0
H1241 H 0.5541 0.13564 0.91816 0.0
H1242 H 0.57298 0.14504 0.95663 0.0
H1243 H 0.6484 0.16228 0.93093 0.0
H1244 H 0.62989 0.15286 0.89228 0.0
H1245 H 0.57422 0.20861 0.78996 0.0
H1246 H 0.55422 0.17307 0.81689 0.0
H1247 H 0.63098 0.18224 0.82996 0.0
H1248 H 0.65114 0.21799 0.8035 0.0
H1249 H 0.60585 0.17612 0.86802 0.0
H1250 H 0.58337 0.13315 0.7958 0.0
H1251 H 0.564 0.12318 0.75751 0.0
H1252 H 0.48703 0.09851 0.78442 0.0
H1253 H 0.506 0.10868 0.82285 0.0
C1254 C 0.5585 0.06643 0.91533 0.0
C1255 C 0.53594 0.06031 0.9279 0.0
C1256 C 0.56456 0.08175 0.89617 0.0
C1257 C 0.54804 0.09099 0.88929 0.0
C1258 C 0.52411 0.08272 0.90052 0.0
C1259 C 0.51822 0.06766 0.9199 0.0
C1260 C 0.55806 0.11258 0.87316 0.0
C1261 C 0.54716 0.10825 0.85142 0.0
C1262 C 0.57926 0.13738 0.87924 0.0
C1263 C 0.59055 0.14328 0.9024 0.0
C1264 C 0.57466 0.14126 0.92075 0.0
C1265 C 0.58531 0.14666 0.94256 0.0
C1266 C 0.61184 0.15413 0.94624 0.0
C1267 C 0.62783 0.15642 0.92806 0.0
C1268 C 0.61729 0.15112 0.9062 0.0
C1269 C 0.58686 0.20314 0.79865 0.0
C1270 C 0.61429 0.21615 0.79455 0.0
C1271 C 0.57536 0.18269 0.81393 0.0
C1272 C 0.59103 0.17472 0.82523 0.0
C1273 C 0.61846 0.18798 0.82142 0.0
C1274 C 0.62996 0.20845 0.80625 0.0
C1275 C 0.57911 0.15283 0.84129 0.0
C1276 C 0.58967 0.15709 0.86322 0.0
C1277 C 0.55756 0.12804 0.83529 0.0
C1278 C 0.54616 0.12193 0.81219 0.0
C1279 C 0.56236 0.12581 0.79354 0.0
C1280 C 0.55144 0.12008 0.77181 0.0
C1281 C 0.52432 0.11028 0.76855 0.0
C1282 C 0.50804 0.10614 0.78699 0.0
C1283 C 0.51886 0.11186 0.80874 0.0
H1284 H 0.51587 0.10583 0.75175 0.0
H1285 H 0.62001 0.1582 0.96315 0.0
H1286 H 0.44673 0.54046 0.11196 0.0
H1287 H 0.43325 0.54838 0.07545 0.0
H1288 H 0.50881 0.56715 0.04797 0.0
H1289 H 0.52291 0.56035 0.08493 0.0
H1290 H 0.49892 0.60387 0.03887 0.0
H1291 H 0.44927 0.51221 0.0311 0.0
H1292 H 0.41827 0.46722 0.04231 0.0
H1293 H 0.35512 0.48316 0.0465 0.0
H1294 H 0.38582 0.52836 0.03561 0.0
H1295 H 0.46354 0.62299 0.92948 0.0
H1296 H 0.47519 0.60472 0.96101 0.0
H1297 H 0.4047 0.59015 0.99575 0.0
H1298 H 0.3927 0.60825 0.96409 0.0
H1299 H 0.41302 0.54931 0.99905 0.0
H1300 H 0.46372 0.64153 0.00995 0.0
H1301 H 0.49472 0.68662 0.99895 0.0
H1302 H 0.55611 0.66908 0.98897 0.0
H1303 H 0.52533 0.62377 -0.00038 0.0
C1304 C 0.46036 0.54589 0.09807 0.0
C1305 C 0.48602 0.55004 0.10142 0.0
C1306 C 0.45251 0.55019 0.0771 0.0
C1307 C 0.46995 0.55829 0.05886 0.0
C1308 C 0.49501 0.56093 0.0618 0.0
C1309 C 0.50296 0.55678 0.08287 0.0
C1310 C 0.46301 0.56653 0.03758 0.0
C1311 C 0.48039 0.59167 0.02989 0.0
C1312 C 0.43849 0.55096 0.0262 0.0
C1313 C 0.41992 0.52375 0.03269 0.0
C1314 C 0.42882 0.50618 0.03457 0.0
C1315 C 0.41129 0.48063 0.04084 0.0
C1316 C 0.38476 0.47235 0.04515 0.0
C1317 C 0.37568 0.4896 0.04316 0.0
C1318 C 0.39313 0.51518 0.03691 0.0
C1319 C 0.45044 0.61588 0.94379 0.0
C1320 C 0.42726 0.61727 0.94432 0.0
C1321 C 0.45717 0.60546 0.96183 0.0
C1322 C 0.44096 0.59631 0.98083 0.0
C1323 C 0.4175 0.59712 0.98124 0.0
C1324 C 0.41074 0.60758 0.96319 0.0
C1325 C 0.4489 0.58657 0.00052 0.0
C1326 C 0.43168 0.56127 0.00792 0.0
C1327 C 0.47358 0.60195 0.01166 0.0
C1328 C 0.49214 0.62921 0.00535 0.0
C1329 C 0.48376 0.64724 0.00524 0.0
C1330 C 0.5013 0.67284 0.99909 0.0
C1331 C 0.52734 0.68069 0.9932 0.0
C1332 C 0.53592 0.66296 0.9935 0.0
C1333 C 0.51844 0.63733 -0.0004 0.0
H1334 H 0.5409 0.70052 0.98846 0.0
H1335 H 0.37122 0.45255 0.05001 0.0
H1336 H 0.91338 0.45286 0.27782 0.0
H1337 H 0.89108 0.43762 0.24143 0.0
H1338 H 0.9519 0.50753 0.21036 0.0
H1339 H 0.97412 0.52312 0.24706 0.0
H1340 H 0.90326 0.49879 0.20085 0.0
H1341 H 0.94508 0.44905 0.19758 0.0
H1342 H 0.95906 0.41927 0.21133 0.0
H1343 H 0.87754 0.35896 0.21743 0.0
H1344 H 0.86305 0.38847 0.20403 0.0
H1345 H 0.84061 0.45759 0.09446 0.0
H1346 H 0.87338 0.47094 0.12478 0.0
H1347 H 0.81927 0.40347 0.16271 0.0
H1348 H 0.7865 0.38958 0.13207 0.0
H1349 H 0.86888 0.41243 0.1661 0.0
H1350 H 0.82734 0.46313 0.17396 0.0
H1351 H 0.81263 0.49271 0.16123 0.0
H1352 H 0.89329 0.55105 0.14757 0.0
H1353 H 0.90844 0.52167 0.15995 0.0
C1354 C 0.92224 0.46479 0.26315 0.0
C1355 C 0.94535 0.48925 0.26525 0.0
C1356 C 0.90959 0.45598 0.24232 0.0
C1357 C 0.91986 0.47137 0.22312 0.0
C1358 C 0.94367 0.49531 0.22496 0.0
C1359 C 0.95643 0.50413 0.24586 0.0
C1360 C 0.90414 0.46357 0.20185 0.0
C1361 C 0.89627 0.48015 0.19294 0.0
C1362 C 0.89436 0.43892 0.19193 0.0
C1363 C 0.90298 0.42105 0.19993 0.0
C1364 C 0.93012 0.42949 0.20201 0.0
C1365 C 0.93814 0.41265 0.20972 0.0
C1366 C 0.9192 0.38725 0.21529 0.0
C1367 C 0.8922 0.37864 0.21312 0.0
C1368 C 0.88407 0.39541 0.20544 0.0
C1369 C 0.83563 0.44553 0.10923 0.0
C1370 C 0.81081 0.42264 0.11097 0.0
C1371 C 0.85442 0.45323 0.12657 0.0
C1372 C 0.84865 0.43843 0.14618 0.0
C1373 C 0.82414 0.41522 0.14775 0.0
C1374 C 0.80538 0.40737 0.13028 0.0
C1375 C 0.86784 0.44757 0.16531 0.0
C1376 C 0.87624 0.43122 0.17384 0.0
C1377 C 0.87805 0.47239 0.17501 0.0
C1378 C 0.86898 0.49011 0.16765 0.0
C1379 C 0.84191 0.4822 0.16808 0.0
C1380 C 0.8335 0.49894 0.16096 0.0
C1381 C 0.85201 0.52372 0.15353 0.0
C1382 C 0.87898 0.53183 0.15329 0.0
C1383 C 0.88748 0.51516 0.16037 0.0
H1384 H 0.84546 0.53665 0.14802 0.0
H1385 H 0.92545 0.37424 0.22125 0.0
loop_
_geom_bond_atom_site_label_1
_geom_bond_atom_site_label_2
_geom_bond_distance
_geom_bond_site_symmetry_2
_ccdc_geom_bond_type
H0 C6 0.930 . S
H1 C9 0.931 . S
H2 C11 0.931 . S
H3 C13 0.930 . S
H4 C15 0.930 . S
H5 C17 0.931 . S
C6 H0 0.930 . S
C6 C7 1.380 . S
C6 C8 1.394 . S
C7 C6 1.380 . S
C7 C11 1.382 . S
C8 C6 1.394 . S
C8 C9 1.400 . S
C9 H1 0.931 . S
C9 C8 1.400 . S
C9 C10 1.375 . S
C10 C9 1.375 . S
C10 C11 1.415 . S
C10 C12 1.501 1_455 S
C11 H2 0.931 . S
C11 C7 1.382 . S
C11 C10 1.415 . S
C12 C10 1.501 1_655 S
C12 C13 1.384 . S
C12 C17 1.408 . S
C13 H3 0.930 . S
C13 C12 1.384 . S
C13 C14 1.389 . S
C14 C13 1.389 . S
C14 C15 1.405 . S
C15 H4 0.930 . S
C15 C14 1.405 . S
C15 C16 1.364 . S
C16 C15 1.364 . S
C16 C17 1.400 . S
C17 H5 0.931 . S
C17 C12 1.408 . S
C17 C16 1.400 . S
H18 C24 0.930 . S
H19 C27 0.931 . S
H20 C29 0.931 . S
H21 C31 0.930 . S
H22 C33 0.930 . S
H23 C35 0.931 1_545 S
C24 H18 0.930 . S
C24 C25 1.380 . S
C24 C26 1.394 . S
C25 C24 1.380 . S
C25 C29 1.382 . S
C26 C24 1.394 . S
C26 C27 1.400 . S
C27 H19 0.931 . S
C27 C26 1.400 . S
C27 C28 1.375 . S
C28 C27 1.375 . S
C28 C29 1.415 . S
C28 C30 1.501 1_545 S
C29 H20 0.931 . S
C29 C25 1.382 . S
C29 C28 1.415 . S
C30 C28 1.501 1_565 S
C30 C31 1.384 . S
C30 C35 1.408 . S
C31 H21 0.930 . S
C31 C30 1.384 . S
C31 C32 1.389 . S
C32 C31 1.389 . S
C32 C33 1.405 . S
C33 H22 0.930 . S
C33 C32 1.405 . S
C33 C34 1.364 . S
C34 C33 1.364 . S
C34 C35 1.400 . S
C35 H23 0.931 1_565 S
C35 C30 1.408 . S
C35 C34 1.400 . S
H36 C42 0.930 . S
H37 C45 0.931 . S
H38 C47 0.931 . S
H39 C49 0.930 . S
H40 C51 0.930 . S
H41 C53 0.931 . S
C42 H36 0.930 . S
C42 C43 1.380 . S
C42 C44 1.394 . S
C43 C42 1.380 . S
C43 C47 1.382 . S
C44 C42 1.394 . S
C44 C45 1.400 . S
C45 H37 0.931 . S
C45 C44 1.400 . S
C45 C46 1.375 . S
C46 C45 1.375 . S
C46 C47 1.415 . S
C46 C48 1.501 . S
C47 H38 0.931 . S
C47 C43 1.382 . S
C47 C46 1.415 . S
C48 C46 1.501 . S
C48 C49 1.384 . S
C48 C53 1.408 . S
C49 H39 0.930 . S
C49 C48 1.384 . S
C49 C50 1.389 . S
C50 C49 1.389 . S
C50 C51 1.405 . S
C51 H40 0.930 . S
C51 C50 1.405 . S
C51 C52 1.364 . S
C52 C51 1.364 . S
C52 C53 1.400 . S
C53 H41 0.931 . S
C53 C48 1.408 . S
C53 C52 1.400 . S
H54 C60 0.930 . S
H55 C63 0.931 . S
H56 C65 0.931 . S
H57 C67 0.930 . S
H58 C69 0.930 . S
H59 C71 0.931 . S
C60 H54 0.930 . S
C60 C61 1.380 . S
C60 C62 1.394 . S
C61 C60 1.380 . S
C61 C65 1.382 . S
C62 C60 1.394 . S
C62 C63 1.400 . S
C63 H55 0.931 . S
C63 C62 1.400 . S
C63 C64 1.375 . S
C64 C63 1.375 . S
C64 C65 1.415 . S
C64 C66 1.501 1_455 S
C65 H56 0.931 . S
C65 C61 1.382 . S
C65 C64 1.415 . S
C66 C64 1.501 1_655 S
C66 C67 1.384 . S
C66 C71 1.408 . S
C67 H57 0.930 . S
C67 C66 1.384 . S
C67 C68 1.389 . S
C68 C67 1.389 . S
C68 C69 1.405 . S
C69 H58 0.930 . S
C69 C68 1.405 . S
C69 C70 1.364 . S
C70 C69 1.364 . S
C70 C71 1.400 . S
C71 H59 0.931 . S
C71 C66 1.408 . S
C71 C70 1.400 . S
H72 C78 0.930 . S
H73 C81 0.931 . S
H74 C83 0.931 1_545 S
H75 C85 0.930 . S
H76 C87 0.930 . S
H77 C89 0.931 . S
C78 H72 0.930 . S
C78 C79 1.380 . S
C78 C80 1.394 1_554 S
C79 C78 1.380 . S
C79 C83 1.382 . S
C80 C78 1.394 1_556 S
C80 C81 1.400 . S
C81 H73 0.931 . S
C81 C80 1.400 . S
C81 C82 1.375 . S
C82 C81 1.375 . S
C82 C83 1.415 1_556 S
C82 C84 1.501 1_565 S
C83 H74 0.931 1_565 S
C83 C79 1.382 . S
C83 C82 1.415 1_554 S
C84 C82 1.501 1_545 S
C84 C85 1.384 1_556 S
C84 C89 1.408 . S
C85 H75 0.930 . S
C85 C84 1.384 1_554 S
C85 C86 1.389 1_554 S
C86 C85 1.389 1_556 S
C86 C87 1.405 . S
C87 H76 0.930 . S
C87 C86 1.405 . S
C87 C88 1.364 . S
C88 C87 1.364 . S
C88 C89 1.400 . S
C89 H77 0.931 . S
C89 C84 1.408 . S
C89 C88 1.400 . S
H90 C96 0.930 . S
H91 C99 0.931 . S
H92 C101 0.931 . S
H93 C103 0.930 . S
H94 C105 0.930 . S
H95 C107 0.931 . S
C96 H90 0.930 . S
C96 C97 1.380 . S
C96 C98 1.394 . S
C97 C96 1.380 . S
C97 C101 1.382 . S
C98 C96 1.394 . S
C98 C99 1.400 . S
C99 H91 0.931 . S
C99 C98 1.400 . S
C99 C100 1.375 . S
C100 C99 1.375 . S
C100 C101 1.415 . S
C100 C102 1.501 . S
C101 H92 0.931 . S
C101 C97 1.382 . S
C101 C100 1.415 . S
C102 C100 1.501 . S
C102 C103 1.384 . S
C102 C107 1.408 . S
C103 H93 0.930 . S
C103 C102 1.384 . S
C103 C104 1.389 . S
C104 C103 1.389 . S
C104 C105 1.405 . S
C105 H94 0.930 . S
C105 C104 1.405 . S
C105 C106 1.364 . S
C106 C105 1.364 . S
C106 C107 1.400 . S
C107 H95 0.931 . S
C107 C102 1.408 . S
C107 C106 1.400 . S
C108 O109 1.160 . S
C108 O115 1.185 . S
O109 C108 1.160 . S
O110 Zn111 1.899 . S
O110 C118 1.284 . S
Zn111 O110 1.899 . S
Zn111 O112 2.032 . S
Zn111 O115 2.086 . S
Zn111 O120 1.977 . S
O112 Zn111 2.032 . S
O112 C116 1.278 . S
C113 O114 1.203 . S
C113 O120 1.267 . S
O114 C113 1.203 . S
O115 C108 1.185 . S
O115 Zn111 2.086 . S
C116 O112 1.278 . S
C116 O117 1.211 . S
O117 C116 1.211 . S
C118 O110 1.284 . S
C118 O119 1.273 . S
O119 C118 1.273 . S
O120 Zn111 1.977 . S
O120 C113 1.267 . S
C121 O122 1.160 . S
C121 O128 1.185 . S
O122 C121 1.160 . S
O123 Zn124 1.899 . S
O123 C131 1.284 . S
Zn124 O123 1.899 . S
Zn124 O125 2.032 . S
Zn124 O128 2.086 . S
Zn124 O133 1.977 . S
O125 Zn124 2.032 . S
O125 C129 1.278 . S
C126 O127 1.203 . S
C126 O133 1.267 . S
O127 C126 1.203 . S
O128 C121 1.185 . S
O128 Zn124 2.086 . S
C129 O125 1.278 . S
C129 O130 1.211 . S
O130 C129 1.211 . S
C131 O123 1.284 . S
C131 O132 1.273 . S
O132 C131 1.273 . S
O133 Zn124 1.977 . S
O133 C126 1.267 . S
C134 O135 1.160 . S
C134 O141 1.185 . S
O135 C134 1.160 . S
O136 Zn137 1.899 . S
O136 C144 1.284 . S
Zn137 O136 1.899 . S
Zn137 O138 2.032 . S
Zn137 O141 2.086 . S
Zn137 O146 1.977 . S
O138 Zn137 2.032 . S
O138 C142 1.278 . S
C139 O140 1.203 . S
C139 O146 1.267 . S
O140 C139 1.203 . S
O141 C134 1.185 . S
O141 Zn137 2.086 . S
C142 O138 1.278 . S
C142 O143 1.211 . S
O143 C142 1.211 . S
C144 O136 1.284 . S
C144 O145 1.273 . S
O145 C144 1.273 . S
O146 Zn137 1.977 . S
O146 C139 1.267 . S
C147 O148 1.160 . S
C147 O154 1.185 . S
O148 C147 1.160 . S
O149 Zn150 1.899 . S
O149 C157 1.284 . S
Zn150 O149 1.899 . S
Zn150 O151 2.032 . S
Zn150 O154 2.086 . S
Zn150 O159 1.977 . S
O151 Zn150 2.032 . S
O151 C155 1.278 . S
C152 O153 1.203 . S
C152 O159 1.267 . S
O153 C152 1.203 . S
O154 C147 1.185 . S
O154 Zn150 2.086 . S
C155 O151 1.278 . S
C155 O156 1.211 . S
O156 C155 1.211 . S
C157 O149 1.284 . S
C157 O158 1.273 . S
O158 C157 1.273 . S
O159 Zn150 1.977 . S
O159 C152 1.267 . S
C160 O161 1.160 . S
C160 O167 1.185 . S
O161 C160 1.160 . S
O162 Zn163 1.899 . S
O162 C170 1.284 . S
Zn163 O162 1.899 . S
Zn163 O164 2.032 . S
Zn163 O167 2.086 . S
Zn163 O172 1.977 . S
O164 Zn163 2.032 . S
O164 C168 1.278 . S
C165 O166 1.203 . S
C165 O172 1.267 . S
O166 C165 1.203 . S
O167 C160 1.185 . S
O167 Zn163 2.086 . S
C168 O164 1.278 . S
C168 O169 1.211 . S
O169 C168 1.211 . S
C170 O162 1.284 . S
C170 O171 1.273 . S
O171 C170 1.273 . S
O172 Zn163 1.977 . S
O172 C165 1.267 . S
C173 O174 1.160 . S
C173 O180 1.185 . S
O174 C173 1.160 . S
O175 Zn176 1.899 . S
O175 C183 1.284 . S
Zn176 O175 1.899 . S
Zn176 O177 2.032 . S
Zn176 O180 2.086 . S
Zn176 O185 1.977 . S
O177 Zn176 2.032 . S
O177 C181 1.278 . S
C178 O179 1.203 . S
C178 O185 1.267 . S
O179 C178 1.203 . S
O180 C173 1.185 . S
O180 Zn176 2.086 . S
C181 O177 1.278 . S
C181 O182 1.211 . S
O182 C181 1.211 . S
C183 O175 1.284 . S
C183 O184 1.273 . S
O184 C183 1.273 . S
O185 Zn176 1.977 . S
O185 C178 1.267 . S
H186 C204 0.951 . S
H187 C206 0.951 . S
H188 C208 0.950 . S
H189 C209 0.950 . S
H190 C211 0.950 . S
H191 C214 0.950 . S
H192 C215 0.950 . S
H193 C217 0.950 . S
H194 C218 0.950 . S
H195 C219 0.951 . S
H196 C221 0.951 . S
H197 C223 0.950 . S
H198 C224 0.950 . S
H199 C226 0.950 . S
H200 C229 0.950 . S
H201 C230 0.950 . S
H202 C232 0.950 . S
H203 C233 0.950 . S
C204 H186 0.951 . S
C204 C205 1.366 . S
C204 C206 1.388 . S
C205 C204 1.366 . S
C205 C209 1.385 . S
C206 H187 0.951 . S
C206 C204 1.388 . S
C206 C207 1.366 . S
C207 C206 1.366 . S
C207 C208 1.414 . S
C207 C210 1.499 . S
C208 H188 0.950 . S
C208 C207 1.414 . S
C208 C209 1.374 . S
C209 H189 0.950 . S
C209 C205 1.385 . S
C209 C208 1.374 . S
C210 C207 1.499 . S
C210 C211 1.373 . S
C210 C212 1.389 . S
C211 H190 0.950 . S
C211 C210 1.373 . S
C211 C227 1.377 . S
C212 C210 1.389 . S
C212 C213 1.524 . S
C212 C226 1.377 . S
C213 C212 1.524 . S
C213 C214 1.397 . S
C213 C218 1.363 . S
C214 H191 0.950 . S
C214 C213 1.397 . S
C214 C215 1.334 . S
C215 H192 0.950 . S
C215 C214 1.334 . S
C215 C216 1.287 . S
C216 C215 1.287 . S
C216 C217 1.524 . S
C216 H235 0.913 . S
C217 H193 0.950 . S
C217 C216 1.524 . S
C217 C218 1.415 . S
C218 H194 0.950 . S
C218 C213 1.363 . S
C218 C217 1.415 . S
C219 H195 0.951 . S
C219 C220 1.366 . S
C219 C221 1.388 . S
C220 C219 1.366 . S
C220 C224 1.385 . S
C221 H196 0.951 . S
C221 C219 1.388 . S
C221 C222 1.366 . S
C222 C221 1.366 . S
C222 C223 1.414 . S
C222 C225 1.499 . S
C223 H197 0.950 . S
C223 C222 1.414 . S
C223 C224 1.374 . S
C224 H198 0.950 . S
C224 C220 1.385 . S
C224 C223 1.374 . S
C225 C222 1.499 . S
C225 C226 1.373 . S
C225 C227 1.389 . S
C226 H199 0.950 . S
C226 C212 1.377 . S
C226 C225 1.373 . S
C227 C211 1.377 . S
C227 C225 1.389 . S
C227 C228 1.524 . S
C228 C227 1.524 . S
C228 C229 1.397 . S
C228 C233 1.363 . S
C229 H200 0.950 . S
C229 C228 1.397 . S
C229 C230 1.334 . S
C230 H201 0.950 . S
C230 C229 1.334 . S
C230 C231 1.287 . S
C231 C230 1.287 . S
C231 C232 1.524 . S
C231 H234 0.999 . S
C232 H202 0.950 . S
C232 C231 1.524 . S
C232 C233 1.415 . S
C233 H203 0.950 . S
C233 C228 1.363 . S
C233 C232 1.415 . S
H234 C231 0.999 . S
H235 C216 0.913 . S
H236 C254 0.951 . S
H237 C256 0.951 . S
H238 C258 0.950 . S
H239 C259 0.950 . S
H240 C261 0.950 . S
H241 C264 0.950 . S
H242 C265 0.950 . S
H243 C267 0.950 . S
H244 C268 0.950 . S
H245 C269 0.951 . S
H246 C271 0.951 . S
H247 C273 0.950 . S
H248 C274 0.950 . S
H249 C276 0.950 . S
H250 C279 0.950 . S
H251 C280 0.950 . S
H252 C282 0.950 . S
H253 C283 0.950 . S
C254 H236 0.951 . S
C254 C255 1.366 . S
C254 C256 1.388 . S
C255 C254 1.366 . S
C255 C259 1.385 . S
C256 H237 0.951 . S
C256 C254 1.388 . S
C256 C257 1.366 . S
C257 C256 1.366 . S
C257 C258 1.414 . S
C257 C260 1.499 . S
C258 H238 0.950 . S
C258 C257 1.414 . S
C258 C259 1.374 . S
C259 H239 0.950 . S
C259 C255 1.385 . S
C259 C258 1.374 . S
C260 C257 1.499 . S
C260 C261 1.373 . S
C260 C262 1.389 . S
C261 H240 0.950 . S
C261 C260 1.373 . S
C261 C277 1.377 . S
C262 C260 1.389 . S
C262 C263 1.524 . S
C262 C276 1.377 . S
C263 C262 1.524 . S
C263 C264 1.397 . S
C263 C268 1.363 . S
C264 H241 0.950 . S
C264 C263 1.397 . S
C264 C265 1.334 . S
C265 H242 0.950 . S
C265 C264 1.334 . S
C265 C266 1.287 . S
C266 C265 1.287 . S
C266 C267 1.524 . S
C266 H285 0.913 . S
C267 H243 0.950 . S
C267 C266 1.524 . S
C267 C268 1.415 . S
C268 H244 0.950 . S
C268 C263 1.363 . S
C268 C267 1.415 . S
C269 H245 0.951 . S
C269 C270 1.366 . S
C269 C271 1.388 . S
C270 C269 1.366 . S
C270 C274 1.385 . S
C271 H246 0.951 . S
C271 C269 1.388 . S
C271 C272 1.366 . S
C272 C271 1.366 . S
C272 C273 1.414 . S
C272 C275 1.499 . S
C273 H247 0.950 . S
C273 C272 1.414 . S
C273 C274 1.374 . S
C274 H248 0.950 . S
C274 C270 1.385 . S
C274 C273 1.374 . S
C275 C272 1.499 . S
C275 C276 1.373 . S
C275 C277 1.389 . S
C276 H249 0.950 . S
C276 C262 1.377 . S
C276 C275 1.373 . S
C277 C261 1.377 . S
C277 C275 1.389 . S
C277 C278 1.524 . S
C278 C277 1.524 . S
C278 C279 1.397 . S
C278 C283 1.363 . S
C279 H250 0.950 . S
C279 C278 1.397 . S
C279 C280 1.334 . S
C280 H251 0.950 . S
C280 C279 1.334 . S
C280 C281 1.287 . S
C281 C280 1.287 . S
C281 C282 1.524 . S
C281 H284 0.999 . S
C282 H252 0.950 . S
C282 C281 1.524 . S
C282 C283 1.415 . S
C283 H253 0.950 . S
C283 C278 1.363 . S
C283 C282 1.415 . S
H284 C281 0.999 . S
H285 C266 0.913 . S
H286 C304 0.951 . S
H287 C306 0.951 . S
H288 C308 0.950 . S
H289 C309 0.950 . S
H290 C311 0.950 . S
H291 C314 0.950 . S
H292 C315 0.950 . S
H293 C317 0.950 . S
H294 C318 0.950 . S
H295 C319 0.951 . S
H296 C321 0.951 . S
H297 C323 0.950 . S
H298 C324 0.950 . S
H299 C326 0.950 . S
H300 C329 0.950 . S
H301 C330 0.950 . S
H302 C332 0.950 . S
H303 C333 0.950 . S
C304 H286 0.951 . S
C304 C305 1.366 . S
C304 C306 1.388 . S
C305 C304 1.366 . S
C305 C309 1.385 . S
C306 H287 0.951 . S
C306 C304 1.388 . S
C306 C307 1.366 . S
C307 C306 1.366 . S
C307 C308 1.414 . S
C307 C310 1.499 . S
C308 H288 0.950 . S
C308 C307 1.414 . S
C308 C309 1.374 . S
C309 H289 0.950 . S
C309 C305 1.385 . S
C309 C308 1.374 . S
C310 C307 1.499 . S
C310 C311 1.373 . S
C310 C312 1.389 . S
C311 H290 0.950 . S
C311 C310 1.373 . S
C311 C327 1.377 . S
C312 C310 1.389 . S
C312 C313 1.524 . S
C312 C326 1.377 . S
C313 C312 1.524 . S
C313 C314 1.397 . S
C313 C318 1.363 . S
C314 H291 0.950 . S
C314 C313 1.397 . S
C314 C315 1.334 . S
C315 H292 0.950 . S
C315 C314 1.334 . S
C315 C316 1.287 . S
C316 C315 1.287 . S
C316 C317 1.524 . S
C316 H335 0.913 . S
C317 H293 0.950 . S
C317 C316 1.524 . S
C317 C318 1.415 . S
C318 H294 0.950 . S
C318 C313 1.363 . S
C318 C317 1.415 . S
C319 H295 0.951 . S
C319 C320 1.366 . S
C319 C321 1.388 . S
C320 C319 1.366 . S
C320 C324 1.385 . S
C321 H296 0.951 . S
C321 C319 1.388 . S
C321 C322 1.366 . S
C322 C321 1.366 . S
C322 C323 1.414 . S
C322 C325 1.499 . S
C323 H297 0.950 . S
C323 C322 1.414 . S
C323 C324 1.374 . S
C324 H298 0.950 . S
C324 C320 1.385 . S
C324 C323 1.374 . S
C325 C322 1.499 . S
C325 C326 1.373 . S
C325 C327 1.389 . S
C326 H299 0.950 . S
C326 C312 1.377 . S
C326 C325 1.373 . S
C327 C311 1.377 . S
C327 C325 1.389 . S
C327 C328 1.524 . S
C328 C327 1.524 . S
C328 C329 1.397 . S
C328 C333 1.363 . S
C329 H300 0.950 . S
C329 C328 1.397 . S
C329 C330 1.334 . S
C330 H301 0.950 . S
C330 C329 1.334 . S
C330 C331 1.287 . S
C331 C330 1.287 . S
C331 C332 1.524 . S
C331 H334 0.999 . S
C332 H302 0.950 . S
C332 C331 1.524 . S
C332 C333 1.415 . S
C333 H303 0.950 . S
C333 C328 1.363 . S
C333 C332 1.415 . S
H334 C331 0.999 . S
H335 C316 0.913 . S
H336 C354 0.951 . S
H337 C356 0.951 . S
H338 C358 0.950 . S
H339 C359 0.950 . S
H340 C361 0.950 . S
H341 C364 0.950 . S
H342 C365 0.950 . S
H343 C367 0.950 . S
H344 C368 0.950 . S
H345 C369 0.951 . S
H346 C371 0.951 . S
H347 C373 0.950 . S
H348 C374 0.950 . S
H349 C376 0.950 . S
H350 C379 0.950 . S
H351 C380 0.950 . S
H352 C382 0.950 . S
H353 C383 0.950 . S
C354 H336 0.951 . S
C354 C355 1.366 . S
C354 C356 1.388 . S
C355 C354 1.366 . S
C355 C359 1.385 . S
C356 H337 0.951 . S
C356 C354 1.388 . S
C356 C357 1.366 . S
C357 C356 1.366 . S
C357 C358 1.414 . S
C357 C360 1.499 . S
C358 H338 0.950 . S
C358 C357 1.414 . S
C358 C359 1.374 . S
C359 H339 0.950 . S
C359 C355 1.385 . S
C359 C358 1.374 . S
C360 C357 1.499 . S
C360 C361 1.373 . S
C360 C362 1.389 . S
C361 H340 0.950 . S
C361 C360 1.373 . S
C361 C377 1.377 . S
C362 C360 1.389 . S
C362 C363 1.524 . S
C362 C376 1.377 . S
C363 C362 1.524 . S
C363 C364 1.397 . S
C363 C368 1.363 . S
C364 H341 0.950 . S
C364 C363 1.397 . S
C364 C365 1.334 . S
C365 H342 0.950 . S
C365 C364 1.334 . S
C365 C366 1.287 . S
C366 C365 1.287 . S
C366 C367 1.524 . S
C366 H385 0.913 . S
C367 H343 0.950 . S
C367 C366 1.524 . S
C367 C368 1.415 . S
C368 H344 0.950 . S
C368 C363 1.363 . S
C368 C367 1.415 . S
C369 H345 0.951 . S
C369 C370 1.366 . S
C369 C371 1.388 . S
C370 C369 1.366 . S
C370 C374 1.385 . S
C371 H346 0.951 . S
C371 C369 1.388 . S
C371 C372 1.366 . S
C372 C371 1.366 . S
C372 C373 1.414 . S
C372 C375 1.499 . S
C373 H347 0.950 . S
C373 C372 1.414 . S
C373 C374 1.374 . S
C374 H348 0.950 . S
C374 C370 1.385 . S
C374 C373 1.374 . S
C375 C372 1.499 . S
C375 C376 1.373 . S
C375 C377 1.389 . S
C376 H349 0.950 . S
C376 C362 1.377 . S
C376 C375 1.373 . S
C377 C361 1.377 . S
C377 C375 1.389 . S
C377 C378 1.524 . S
C378 C377 1.524 . S
C378 C379 1.397 . S
C378 C383 1.363 . S
C379 H350 0.950 . S
C379 C378 1.397 . S
C379 C380 1.334 . S
C380 H351 0.950 . S
C380 C379 1.334 . S
C380 C381 1.287 . S
C381 C380 1.287 . S
C381 C382 1.524 . S
C381 H384 0.999 . S
C382 H352 0.950 . S
C382 C381 1.524 . S
C382 C383 1.415 . S
C383 H353 0.950 . S
C383 C378 1.363 . S
C383 C382 1.415 . S
H384 C381 0.999 . S
H385 C366 0.913 . S
H386 C404 0.951 1_554 S
H387 C406 0.951 . S
H388 C408 0.950 . S
H389 C409 0.950 . S
H390 C411 0.950 . S
H391 C414 0.950 . S
H392 C415 0.950 . S
H393 C417 0.950 . S
H394 C418 0.950 . S
H395 C419 0.951 . S
H396 C421 0.951 . S
H397 C423 0.950 . S
H398 C424 0.950 . S
H399 C426 0.950 . S
H400 C429 0.950 . S
H401 C430 0.950 . S
H402 C432 0.950 . S
H403 C433 0.950 . S
C404 H386 0.951 1_556 S
C404 C405 1.366 . S
C404 C406 1.388 . S
C405 C404 1.366 . S
C405 C409 1.385 . S
C406 H387 0.951 . S
C406 C404 1.388 . S
C406 C407 1.366 . S
C407 C406 1.366 . S
C407 C408 1.414 . S
C407 C410 1.499 . S
C408 H388 0.950 . S
C408 C407 1.414 . S
C408 C409 1.374 . S
C409 H389 0.950 . S
C409 C405 1.385 . S
C409 C408 1.374 . S
C410 C407 1.499 . S
C410 C411 1.373 . S
C410 C412 1.389 . S
C411 H390 0.950 . S
C411 C410 1.373 . S
C411 C427 1.377 . S
C412 C410 1.389 . S
C412 C413 1.524 . S
C412 C426 1.377 . S
C413 C412 1.524 . S
C413 C414 1.397 . S
C413 C418 1.363 . S
C414 H391 0.950 . S
C414 C413 1.397 . S
C414 C415 1.334 . S
C415 H392 0.950 . S
C415 C414 1.334 . S
C415 C416 1.287 . S
C416 C415 1.287 . S
C416 C417 1.524 1_556 S
C416 H435 0.913 1_556 S
C417 H393 0.950 . S
C417 C416 1.524 1_554 S
C417 C418 1.415 1_554 S
C418 H394 0.950 . S
C418 C413 1.363 . S
C418 C417 1.415 1_556 S
C419 H395 0.951 . S
C419 C420 1.366 . S
C419 C421 1.388 . S
C420 C419 1.366 . S
C420 C424 1.385 . S
C421 H396 0.951 . S
C421 C419 1.388 . S
C421 C422 1.366 . S
C422 C421 1.366 . S
C422 C423 1.414 . S
C422 C425 1.499 . S
C423 H397 0.950 . S
C423 C422 1.414 . S
C423 C424 1.374 . S
C424 H398 0.950 . S
C424 C420 1.385 . S
C424 C423 1.374 . S
C425 C422 1.499 . S
C425 C426 1.373 . S
C425 C427 1.389 . S
C426 H399 0.950 . S
C426 C412 1.377 . S
C426 C425 1.373 . S
C427 C411 1.377 . S
C427 C425 1.389 . S
C427 C428 1.524 . S
C428 C427 1.524 . S
C428 C429 1.397 . S
C428 C433 1.363 . S
C429 H400 0.950 . S
C429 C428 1.397 . S
C429 C430 1.334 . S
C430 H401 0.950 . S
C430 C429 1.334 . S
C430 C431 1.287 . S
C431 C430 1.287 . S
C431 C432 1.524 . S
C431 H434 0.999 . S
C432 H402 0.950 . S
C432 C431 1.524 . S
C432 C433 1.415 . S
C433 H403 0.950 . S
C433 C428 1.363 . S
C433 C432 1.415 . S
H434 C431 0.999 . S
H435 C416 0.913 1_554 S
H436 C454 0.951 . S
H437 C456 0.951 . S
H438 C458 0.950 . S
H439 C459 0.950 . S
H440 C461 0.950 . S
H441 C464 0.950 . S
H442 C465 0.950 . S
H443 C467 0.950 . S
H444 C468 0.950 . S
H445 C469 0.951 . S
H446 C471 0.951 . S
H447 C473 0.950 . S
H448 C474 0.950 . S
H449 C476 0.950 . S
H450 C479 0.950 . S
H451 C480 0.950 . S
H452 C482 0.950 . S
H453 C483 0.950 . S
C454 H436 0.951 . S
C454 C455 1.366 . S
C454 C456 1.388 . S
C455 C454 1.366 . S
C455 C459 1.385 . S
C456 H437 0.951 . S
C456 C454 1.388 . S
C456 C457 1.366 . S
C457 C456 1.366 . S
C457 C458 1.414 . S
C457 C460 1.499 . S
C458 H438 0.950 . S
C458 C457 1.414 . S
C458 C459 1.374 . S
C459 H439 0.950 . S
C459 C455 1.385 . S
C459 C458 1.374 . S
C460 C457 1.499 . S
C460 C461 1.373 . S
C460 C462 1.389 . S
C461 H440 0.950 . S
C461 C460 1.373 . S
C461 C477 1.377 . S
C462 C460 1.389 . S
C462 C463 1.524 . S
C462 C476 1.377 . S
C463 C462 1.524 . S
C463 C464 1.397 . S
C463 C468 1.363 . S
C464 H441 0.950 . S
C464 C463 1.397 . S
C464 C465 1.334 . S
C465 H442 0.950 . S
C465 C464 1.334 . S
C465 C466 1.287 . S
C466 C465 1.287 . S
C466 C467 1.524 . S
C466 H485 0.913 . S
C467 H443 0.950 . S
C467 C466 1.524 . S
C467 C468 1.415 . S
C468 H444 0.950 . S
C468 C463 1.363 . S
C468 C467 1.415 . S
C469 H445 0.951 . S
C469 C470 1.366 . S
C469 C471 1.388 . S
C470 C469 1.366 . S
C470 C474 1.385 . S
C471 H446 0.951 . S
C471 C469 1.388 . S
C471 C472 1.366 . S
C472 C471 1.366 . S
C472 C473 1.414 . S
C472 C475 1.499 . S
C473 H447 0.950 . S
C473 C472 1.414 . S
C473 C474 1.374 . S
C474 H448 0.950 . S
C474 C470 1.385 . S
C474 C473 1.374 . S
C475 C472 1.499 . S
C475 C476 1.373 . S
C475 C477 1.389 . S
C476 H449 0.950 . S
C476 C462 1.377 . S
C476 C475 1.373 . S
C477 C461 1.377 . S
C477 C475 1.389 . S
C477 C478 1.524 . S
C478 C477 1.524 . S
C478 C479 1.397 . S
C478 C483 1.363 . S
C479 H450 0.950 . S
C479 C478 1.397 . S
C479 C480 1.334 . S
C480 H451 0.950 . S
C480 C479 1.334 . S
C480 C481 1.287 . S
C481 C480 1.287 . S
C481 C482 1.524 . S
C481 H484 0.999 . S
C482 H452 0.950 . S
C482 C481 1.524 . S
C482 C483 1.415 . S
C483 H453 0.950 . S
C483 C478 1.363 . S
C483 C482 1.415 . S
H484 C481 0.999 . S
H485 C466 0.913 . S
H486 C504 0.951 . S
H487 C506 0.951 . S
H488 C508 0.950 . S
H489 C509 0.950 . S
H490 C511 0.950 . S
H491 C514 0.950 . S
H492 C515 0.950 . S
H493 C517 0.950 . S
H494 C518 0.950 . S
H495 C519 0.951 . S
H496 C521 0.951 . S
H497 C523 0.950 . S
H498 C524 0.950 . S
H499 C526 0.950 . S
H500 C529 0.950 . S
H501 C530 0.950 . S
H502 C532 0.950 . S
H503 C533 0.950 . S
C504 H486 0.951 . S
C504 C505 1.366 . S
C504 C506 1.388 . S
C505 C504 1.366 . S
C505 C509 1.385 . S
C506 H487 0.951 . S
C506 C504 1.388 . S
C506 C507 1.366 . S
C507 C506 1.366 . S
C507 C508 1.414 . S
C507 C510 1.499 . S
C508 H488 0.950 . S
C508 C507 1.414 . S
C508 C509 1.374 . S
C509 H489 0.950 . S
C509 C505 1.385 . S
C509 C508 1.374 . S
C510 C507 1.499 . S
C510 C511 1.373 . S
C510 C512 1.389 . S
C511 H490 0.950 . S
C511 C510 1.373 . S
C511 C527 1.377 . S
C512 C510 1.389 . S
C512 C513 1.524 . S
C512 C526 1.377 . S
C513 C512 1.524 . S
C513 C514 1.397 . S
C513 C518 1.363 . S
C514 H491 0.950 . S
C514 C513 1.397 . S
C514 C515 1.334 . S
C515 H492 0.950 . S
C515 C514 1.334 . S
C515 C516 1.287 . S
C516 C515 1.287 . S
C516 C517 1.524 . S
C516 H535 0.913 . S
C517 H493 0.950 . S
C517 C516 1.524 . S
C517 C518 1.415 . S
C518 H494 0.950 . S
C518 C513 1.363 . S
C518 C517 1.415 . S
C519 H495 0.951 . S
C519 C520 1.366 . S
C519 C521 1.388 . S
C520 C519 1.366 . S
C520 C524 1.385 . S
C521 H496 0.951 . S
C521 C519 1.388 . S
C521 C522 1.366 . S
C522 C521 1.366 . S
C522 C523 1.414 . S
C522 C525 1.499 . S
C523 H497 0.950 . S
C523 C522 1.414 . S
C523 C524 1.374 . S
C524 H498 0.950 . S
C524 C520 1.385 . S
C524 C523 1.374 . S
C525 C522 1.499 . S
C525 C526 1.373 . S
C525 C527 1.389 . S
C526 H499 0.950 . S
C526 C512 1.377 . S
C526 C525 1.373 . S
C527 C511 1.377 . S
C527 C525 1.389 . S
C527 C528 1.524 . S
C528 C527 1.524 . S
C528 C529 1.397 . S
C528 C533 1.363 . S
C529 H500 0.950 . S
C529 C528 1.397 . S
C529 C530 1.334 . S
C530 H501 0.950 . S
C530 C529 1.334 . S
C530 C531 1.287 . S
C531 C530 1.287 . S
C531 C532 1.524 . S
C531 H534 0.999 . S
C532 H502 0.950 . S
C532 C531 1.524 . S
C532 C533 1.415 . S
C533 H503 0.950 . S
C533 C528 1.363 . S
C533 C532 1.415 . S
H534 C531 0.999 . S
H535 C516 0.913 . S
H536 C554 0.951 . S
H537 C556 0.951 . S
H538 C558 0.950 . S
H539 C559 0.950 . S
H540 C561 0.950 . S
H541 C564 0.950 . S
H542 C565 0.950 . S
H543 C567 0.950 . S
H544 C568 0.950 . S
H545 C569 0.951 . S
H546 C571 0.951 . S
H547 C573 0.950 . S
H548 C574 0.950 . S
H549 C576 0.950 . S
H550 C579 0.950 . S
H551 C580 0.950 . S
H552 C582 0.950 . S
H553 C583 0.950 . S
C554 H536 0.951 . S
C554 C555 1.366 . S
C554 C556 1.388 . S
C555 C554 1.366 . S
C555 C559 1.385 . S
C556 H537 0.951 . S
C556 C554 1.388 . S
C556 C557 1.366 . S
C557 C556 1.366 . S
C557 C558 1.414 . S
C557 C560 1.499 . S
C558 H538 0.950 . S
C558 C557 1.414 . S
C558 C559 1.374 . S
C559 H539 0.950 . S
C559 C555 1.385 . S
C559 C558 1.374 . S
C560 C557 1.499 . S
C560 C561 1.373 . S
C560 C562 1.389 . S
C561 H540 0.950 . S
C561 C560 1.373 . S
C561 C577 1.377 . S
C562 C560 1.389 . S
C562 C563 1.524 . S
C562 C576 1.377 . S
C563 C562 1.524 . S
C563 C564 1.397 . S
C563 C568 1.363 . S
C564 H541 0.950 . S
C564 C563 1.397 . S
C564 C565 1.334 . S
C565 H542 0.950 . S
C565 C564 1.334 . S
C565 C566 1.287 . S
C566 C565 1.287 . S
C566 C567 1.524 . S
C566 H585 0.913 . S
C567 H543 0.950 . S
C567 C566 1.524 . S
C567 C568 1.415 . S
C568 H544 0.950 . S
C568 C563 1.363 . S
C568 C567 1.415 . S
C569 H545 0.951 . S
C569 C570 1.366 . S
C569 C571 1.388 . S
C570 C569 1.366 . S
C570 C574 1.385 . S
C571 H546 0.951 . S
C571 C569 1.388 . S
C571 C572 1.366 . S
C572 C571 1.366 . S
C572 C573 1.414 . S
C572 C575 1.499 . S
C573 H547 0.950 . S
C573 C572 1.414 . S
C573 C574 1.374 . S
C574 H548 0.950 . S
C574 C570 1.385 . S
C574 C573 1.374 . S
C575 C572 1.499 . S
C575 C576 1.373 . S
C575 C577 1.389 . S
C576 H549 0.950 . S
C576 C562 1.377 . S
C576 C575 1.373 . S
C577 C561 1.377 . S
C577 C575 1.389 . S
C577 C578 1.524 . S
C578 C577 1.524 . S
C578 C579 1.397 . S
C578 C583 1.363 . S
C579 H550 0.950 . S
C579 C578 1.397 . S
C579 C580 1.334 . S
C580 H551 0.950 . S
C580 C579 1.334 . S
C580 C581 1.287 . S
C581 C580 1.287 . S
C581 C582 1.524 . S
C581 H584 0.999 . S
C582 H552 0.950 . S
C582 C581 1.524 . S
C582 C583 1.415 . S
C583 H553 0.950 . S
C583 C578 1.363 . S
C583 C582 1.415 . S
H584 C581 0.999 . S
H585 C566 0.913 . S
H586 C604 0.951 . S
H587 C606 0.951 . S
H588 C608 0.950 . S
H589 C609 0.950 . S
H590 C611 0.950 . S
H591 C614 0.950 . S
H592 C615 0.950 . S
H593 C617 0.950 . S
H594 C618 0.950 . S
H595 C619 0.951 . S
H596 C621 0.951 . S
H597 C623 0.950 . S
H598 C624 0.950 . S
H599 C626 0.950 . S
H600 C629 0.950 . S
H601 C630 0.950 . S
H602 C632 0.950 . S
H603 C633 0.950 . S
C604 H586 0.951 . S
C604 C605 1.366 . S
C604 C606 1.388 . S
C605 C604 1.366 . S
C605 C609 1.385 . S
C606 H587 0.951 . S
C606 C604 1.388 . S
C606 C607 1.366 . S
C607 C606 1.366 . S
C607 C608 1.414 . S
C607 C610 1.499 . S
C608 H588 0.950 . S
C608 C607 1.414 . S
C608 C609 1.374 . S
C609 H589 0.950 . S
C609 C605 1.385 . S
C609 C608 1.374 . S
C610 C607 1.499 . S
C610 C611 1.373 . S
C610 C612 1.389 . S
C611 H590 0.950 . S
C611 C610 1.373 . S
C611 C627 1.377 . S
C612 C610 1.389 . S
C612 C613 1.524 . S
C612 C626 1.377 . S
C613 C612 1.524 . S
C613 C614 1.397 . S
C613 C618 1.363 . S
C614 H591 0.950 . S
C614 C613 1.397 . S
C614 C615 1.334 . S
C615 H592 0.950 . S
C615 C614 1.334 . S
C615 C616 1.287 . S
C616 C615 1.287 . S
C616 C617 1.524 . S
C616 H635 0.913 . S
C617 H593 0.950 . S
C617 C616 1.524 . S
C617 C618 1.415 . S
C618 H594 0.950 . S
C618 C613 1.363 . S
C618 C617 1.415 . S
C619 H595 0.951 . S
C619 C620 1.366 . S
C619 C621 1.388 . S
C620 C619 1.366 . S
C620 C624 1.385 . S
C621 H596 0.951 . S
C621 C619 1.388 . S
C621 C622 1.366 . S
C622 C621 1.366 . S
C622 C623 1.414 . S
C622 C625 1.499 . S
C623 H597 0.950 . S
C623 C622 1.414 . S
C623 C624 1.374 . S
C624 H598 0.950 . S
C624 C620 1.385 . S
C624 C623 1.374 . S
C625 C622 1.499 . S
C625 C626 1.373 . S
C625 C627 1.389 . S
C626 H599 0.950 . S
C626 C612 1.377 . S
C626 C625 1.373 . S
C627 C611 1.377 . S
C627 C625 1.389 . S
C627 C628 1.524 . S
C628 C627 1.524 . S
C628 C629 1.397 . S
C628 C633 1.363 . S
C629 H600 0.950 . S
C629 C628 1.397 . S
C629 C630 1.334 . S
C630 H601 0.950 . S
C630 C629 1.334 . S
C630 C631 1.287 . S
C631 C630 1.287 . S
C631 C632 1.524 . S
C631 H634 0.999 . S
C632 H602 0.950 . S
C632 C631 1.524 . S
C632 C633 1.415 . S
C633 H603 0.950 . S
C633 C628 1.363 . S
C633 C632 1.415 . S
H634 C631 0.999 . S
H635 C616 0.913 . S
H636 C654 0.951 . S
H637 C656 0.951 . S
H638 C658 0.966 . S
H639 C659 0.950 . S
H640 C661 0.950 1_556 S
H641 C664 0.950 . S
H642 C665 0.950 . S
H643 C667 0.950 . S
H644 C668 0.950 . S
H645 C669 0.951 . S
H646 C671 0.951 . S
H647 C673 0.950 . S
H648 C674 0.950 . S
H649 C676 0.950 . S
H650 C679 0.950 . S
H651 C680 0.950 . S
H652 C682 0.950 . S
H653 C683 0.950 . S
C654 H636 0.951 . S
C654 C655 1.366 . S
C654 C656 1.388 . S
C655 C654 1.366 . S
C655 C659 1.385 1_554 S
C656 H637 0.951 . S
C656 C654 1.388 . S
C656 C657 1.366 . S
C657 C656 1.366 . S
C657 C658 1.392 1_554 S
C657 C660 1.499 . S
C658 H638 0.966 . S
C658 C657 1.392 1_556 S
C658 C659 1.380 . S
C659 H639 0.950 . S
C659 C655 1.385 1_556 S
C659 C658 1.380 . S
C660 C657 1.499 . S
C660 C661 1.373 . S
C660 C662 1.389 . S
C661 H640 0.950 1_554 S
C661 C660 1.373 . S
C661 C677 1.377 . S
C662 C660 1.389 . S
C662 C663 1.524 . S
C662 C676 1.377 . S
C663 C662 1.524 . S
C663 C664 1.397 . S
C663 C668 1.363 . S
C664 H641 0.950 . S
C664 C663 1.397 . S
C664 C665 1.334 . S
C665 H642 0.950 . S
C665 C664 1.334 . S
C665 C666 1.287 . S
C666 C665 1.287 . S
C666 C667 1.524 . S
C666 H685 0.913 . S
C667 H643 0.950 . S
C667 C666 1.524 . S
C667 C668 1.415 . S
C668 H644 0.950 . S
C668 C663 1.363 . S
C668 C667 1.415 . S
C669 H645 0.951 . S
C669 C670 1.366 . S
C669 C671 1.388 . S
C670 C669 1.366 . S
C670 C674 1.385 . S
C671 H646 0.951 . S
C671 C669 1.388 . S
C671 C672 1.366 . S
C672 C671 1.366 . S
C672 C673 1.414 . S
C672 C675 1.499 . S
C673 H647 0.950 . S
C673 C672 1.414 . S
C673 C674 1.374 . S
C674 H648 0.950 . S
C674 C670 1.385 . S
C674 C673 1.374 . S
C675 C672 1.499 . S
C675 C676 1.373 . S
C675 C677 1.389 . S
C676 H649 0.950 . S
C676 C662 1.377 . S
C676 C675 1.373 . S
C677 C661 1.377 . S
C677 C675 1.389 . S
C677 C678 1.524 1_554 S
C678 C677 1.524 1_556 S
C678 C679 1.397 1_556 S
C678 C683 1.363 . S
C679 H650 0.950 . S
C679 C678 1.397 1_554 S
C679 C680 1.334 1_554 S
C680 H651 0.950 . S
C680 C679 1.334 1_556 S
C680 C681 1.287 . S
C681 C680 1.287 . S
C681 C682 1.524 . S
C681 H684 0.999 . S
C682 H652 0.950 . S
C682 C681 1.524 . S
C682 C683 1.415 . S
C683 H653 0.950 . S
C683 C678 1.363 . S
C683 C682 1.415 . S
H684 C681 0.999 . S
H685 C666 0.913 . S
H686 C704 0.951 . S
H687 C706 0.951 . S
H688 C708 0.950 . S
H689 C709 0.950 . S
H690 C711 0.950 . S
H691 C714 0.950 . S
H692 C715 0.950 . S
H693 C717 0.950 . S
H694 C718 0.950 . S
H695 C719 0.951 . S
H696 C721 0.951 . S
H697 C723 0.950 . S
H698 C724 0.950 . S
H699 C726 0.950 . S
H700 C729 0.950 . S
H701 C730 0.950 . S
H702 C732 0.950 . S
H703 C733 0.950 . S
C704 H686 0.951 . S
C704 C705 1.366 . S
C704 C706 1.388 . S
C705 C704 1.366 . S
C705 C709 1.385 . S
C706 H687 0.951 . S
C706 C704 1.388 . S
C706 C707 1.366 . S
C707 C706 1.366 . S
C707 C708 1.414 . S
C707 C710 1.499 . S
C708 H688 0.950 . S
C708 C707 1.414 . S
C708 C709 1.374 . S
C709 H689 0.950 . S
C709 C705 1.385 . S
C709 C708 1.374 . S
C710 C707 1.499 . S
C710 C711 1.373 . S
C710 C712 1.389 . S
C711 H690 0.950 . S
C711 C710 1.373 . S
C711 C727 1.377 . S
C712 C710 1.389 . S
C712 C713 1.524 . S
C712 C726 1.377 . S
C713 C712 1.524 . S
C713 C714 1.397 . S
C713 C718 1.363 . S
C714 H691 0.950 . S
C714 C713 1.397 . S
C714 C715 1.334 . S
C715 H692 0.950 . S
C715 C714 1.334 . S
C715 C716 1.287 . S
C716 C715 1.287 . S
C716 C717 1.524 . S
C716 H735 0.913 . S
C717 H693 0.950 . S
C717 C716 1.524 . S
C717 C718 1.415 . S
C718 H694 0.950 . S
C718 C713 1.363 . S
C718 C717 1.415 . S
C719 H695 0.951 . S
C719 C720 1.366 . S
C719 C721 1.388 . S
C720 C719 1.366 . S
C720 C724 1.385 . S
C721 H696 0.951 . S
C721 C719 1.388 . S
C721 C722 1.366 . S
C722 C721 1.366 . S
C722 C723 1.414 . S
C722 C725 1.499 . S
C723 H697 0.950 . S
C723 C722 1.414 . S
C723 C724 1.374 . S
C724 H698 0.950 . S
C724 C720 1.385 . S
C724 C723 1.374 . S
C725 C722 1.499 . S
C725 C726 1.373 . S
C725 C727 1.389 . S
C726 H699 0.950 . S
C726 C712 1.377 . S
C726 C725 1.373 . S
C727 C711 1.377 . S
C727 C725 1.389 . S
C727 C728 1.524 . S
C728 C727 1.524 . S
C728 C729 1.397 . S
C728 C733 1.363 . S
C729 H700 0.950 . S
C729 C728 1.397 . S
C729 C730 1.334 . S
C730 H701 0.950 . S
C730 C729 1.334 . S
C730 C731 1.287 . S
C731 C730 1.287 . S
C731 C732 1.524 . S
C731 H734 0.999 . S
C732 H702 0.950 . S
C732 C731 1.524 . S
C732 C733 1.415 . S
C733 H703 0.950 . S
C733 C728 1.363 . S
C733 C732 1.415 . S
H734 C731 0.999 . S
H735 C716 0.913 . S
H736 C754 0.951 . S
H737 C756 0.951 . S
H738 C758 0.950 . S
H739 C759 0.950 . S
H740 C761 0.950 . S
H741 C764 0.950 . S
H742 C765 0.950 . S
H743 C767 0.950 . S
H744 C768 0.950 . S
H745 C769 0.951 . S
H746 C771 0.951 . S
H747 C773 0.950 . S
H748 C774 0.950 . S
H749 C776 0.950 . S
H750 C779 0.950 . S
H751 C780 0.950 . S
H752 C782 0.950 . S
H753 C783 0.950 . S
C754 H736 0.951 . S
C754 C755 1.366 . S
C754 C756 1.388 . S
C755 C754 1.366 . S
C755 C759 1.385 . S
C756 H737 0.951 . S
C756 C754 1.388 . S
C756 C757 1.366 . S
C757 C756 1.366 . S
C757 C758 1.414 . S
C757 C760 1.499 . S
C758 H738 0.950 . S
C758 C757 1.414 . S
C758 C759 1.374 . S
C759 H739 0.950 . S
C759 C755 1.385 . S
C759 C758 1.374 . S
C760 C757 1.499 . S
C760 C761 1.373 . S
C760 C762 1.389 . S
C761 H740 0.950 . S
C761 C760 1.373 . S
C761 C777 1.377 . S
C762 C760 1.389 . S
C762 C763 1.524 . S
C762 C776 1.377 . S
C763 C762 1.524 . S
C763 C764 1.397 . S
C763 C768 1.363 . S
C764 H741 0.950 . S
C764 C763 1.397 . S
C764 C765 1.334 . S
C765 H742 0.950 . S
C765 C764 1.334 . S
C765 C766 1.287 . S
C766 C765 1.287 . S
C766 C767 1.524 . S
C766 H785 0.913 . S
C767 H743 0.950 . S
C767 C766 1.524 . S
C767 C768 1.415 . S
C768 H744 0.950 . S
C768 C763 1.363 . S
C768 C767 1.415 . S
C769 H745 0.951 . S
C769 C770 1.366 . S
C769 C771 1.388 . S
C770 C769 1.366 . S
C770 C774 1.385 . S
C771 H746 0.951 . S
C771 C769 1.388 . S
C771 C772 1.366 . S
C772 C771 1.366 . S
C772 C773 1.414 . S
C772 C775 1.499 . S
C773 H747 0.950 . S
C773 C772 1.414 . S
C773 C774 1.374 . S
C774 H748 0.950 . S
C774 C770 1.385 . S
C774 C773 1.374 . S
C775 C772 1.499 . S
C775 C776 1.373 . S
C775 C777 1.389 . S
C776 H749 0.950 . S
C776 C762 1.377 . S
C776 C775 1.373 . S
C777 C761 1.377 . S
C777 C775 1.389 . S
C777 C778 1.524 . S
C778 C777 1.524 . S
C778 C779 1.397 . S
C778 C783 1.363 . S
C779 H750 0.950 . S
C779 C778 1.397 . S
C779 C780 1.334 . S
C780 H751 0.950 . S
C780 C779 1.334 . S
C780 C781 1.287 . S
C781 C780 1.287 . S
C781 C782 1.524 . S
C781 H784 0.999 . S
C782 H752 0.950 . S
C782 C781 1.524 . S
C782 C783 1.415 . S
C783 H753 0.950 . S
C783 C778 1.363 . S
C783 C782 1.415 . S
H784 C781 0.999 . S
H785 C766 0.913 . S
H786 C804 0.951 . S
H787 C806 0.951 . S
H788 C808 0.950 . S
H789 C809 0.950 . S
H790 C811 0.950 . S
H791 C814 0.950 . S
H792 C815 0.950 . S
H793 C817 0.950 . S
H794 C818 0.950 . S
H795 C819 0.951 . S
H796 C821 0.951 . S
H797 C823 0.950 . S
H798 C824 0.950 . S
H799 C826 0.950 . S
H800 C829 0.950 . S
H801 C830 0.950 . S
H802 C832 0.950 . S
H803 C833 0.950 . S
C804 H786 0.951 . S
C804 C805 1.366 . S
C804 C806 1.388 . S
C805 C804 1.366 . S
C805 C809 1.385 . S
C806 H787 0.951 . S
C806 C804 1.388 . S
C806 C807 1.366 . S
C807 C806 1.366 . S
C807 C808 1.414 . S
C807 C810 1.499 . S
C808 H788 0.950 . S
C808 C807 1.414 . S
C808 C809 1.374 . S
C809 H789 0.950 . S
C809 C805 1.385 . S
C809 C808 1.374 . S
C810 C807 1.499 . S
C810 C811 1.373 . S
C810 C812 1.389 . S
C811 H790 0.950 . S
C811 C810 1.373 . S
C811 C827 1.377 . S
C812 C810 1.389 . S
C812 C813 1.524 . S
C812 C826 1.377 . S
C813 C812 1.524 . S
C813 C814 1.397 . S
C813 C818 1.363 . S
C814 H791 0.950 . S
C814 C813 1.397 . S
C814 C815 1.334 . S
C815 H792 0.950 . S
C815 C814 1.334 . S
C815 C816 1.287 . S
C816 C815 1.287 . S
C816 C817 1.524 . S
C816 H835 0.913 . S
C817 H793 0.950 . S
C817 C816 1.524 . S
C817 C818 1.415 . S
C818 H794 0.950 . S
C818 C813 1.363 . S
C818 C817 1.415 . S
C819 H795 0.951 . S
C819 C820 1.366 . S
C819 C821 1.388 . S
C820 C819 1.366 . S
C820 C824 1.385 . S
C821 H796 0.951 . S
C821 C819 1.388 . S
C821 C822 1.366 . S
C822 C821 1.366 . S
C822 C823 1.414 . S
C822 C825 1.499 . S
C823 H797 0.950 . S
C823 C822 1.414 . S
C823 C824 1.374 . S
C824 H798 0.950 . S
C824 C820 1.385 . S
C824 C823 1.374 . S
C825 C822 1.499 . S
C825 C826 1.373 . S
C825 C827 1.389 . S
C826 H799 0.950 . S
C826 C812 1.377 . S
C826 C825 1.373 . S
C827 C811 1.377 . S
C827 C825 1.389 . S
C827 C828 1.524 . S
C828 C827 1.524 . S
C828 C829 1.397 . S
C828 C833 1.363 . S
C829 H800 0.950 . S
C829 C828 1.397 . S
C829 C830 1.334 . S
C830 H801 0.950 . S
C830 C829 1.334 . S
C830 C831 1.287 . S
C831 C830 1.287 . S
C831 C832 1.524 . S
C831 H834 0.999 . S
C832 H802 0.950 . S
C832 C831 1.524 . S
C832 C833 1.415 . S
C833 H803 0.950 . S
C833 C828 1.363 . S
C833 C832 1.415 . S
H834 C831 0.999 . S
H835 C816 0.913 . S
H836 C854 0.951 . S
H837 C856 0.951 . S
H838 C858 0.950 . S
H839 C859 0.950 . S
H840 C861 0.950 . S
H841 C864 0.950 . S
H842 C865 0.950 . S
H843 C867 0.950 . S
H844 C868 0.950 . S
H845 C869 0.951 . S
H846 C871 0.951 . S
H847 C873 0.950 . S
H848 C874 0.950 . S
H849 C876 0.950 . S
H850 C879 0.950 . S
H851 C880 0.950 . S
H852 C882 0.950 . S
H853 C883 0.950 . S
C854 H836 0.951 . S
C854 C855 1.366 . S
C854 C856 1.388 . S
C855 C854 1.366 . S
C855 C859 1.385 . S
C856 H837 0.951 . S
C856 C854 1.388 . S
C856 C857 1.366 . S
C857 C856 1.366 . S
C857 C858 1.414 . S
C857 C860 1.499 . S
C858 H838 0.950 . S
C858 C857 1.414 . S
C858 C859 1.374 . S
C859 H839 0.950 . S
C859 C855 1.385 . S
C859 C858 1.374 . S
C860 C857 1.499 . S
C860 C861 1.373 . S
C860 C862 1.389 . S
C861 H840 0.950 . S
C861 C860 1.373 . S
C861 C877 1.377 . S
C862 C860 1.389 . S
C862 C863 1.524 . S
C862 C876 1.377 . S
C863 C862 1.524 . S
C863 C864 1.397 . S
C863 C868 1.363 . S
C864 H841 0.950 . S
C864 C863 1.397 . S
C864 C865 1.334 . S
C865 H842 0.950 . S
C865 C864 1.334 . S
C865 C866 1.287 . S
C866 C865 1.287 . S
C866 C867 1.524 . S
C866 H885 0.913 . S
C867 H843 0.950 . S
C867 C866 1.524 . S
C867 C868 1.415 . S
C868 H844 0.950 . S
C868 C863 1.363 . S
C868 C867 1.415 . S
C869 H845 0.951 . S
C869 C870 1.366 . S
C869 C871 1.388 . S
C870 C869 1.366 . S
C870 C874 1.385 . S
C871 H846 0.951 . S
C871 C869 1.388 . S
C871 C872 1.366 . S
C872 C871 1.366 . S
C872 C873 1.414 . S
C872 C875 1.499 . S
C873 H847 0.950 . S
C873 C872 1.414 . S
C873 C874 1.374 . S
C874 H848 0.950 . S
C874 C870 1.385 . S
C874 C873 1.374 . S
C875 C872 1.499 . S
C875 C876 1.373 . S
C875 C877 1.389 . S
C876 H849 0.950 . S
C876 C862 1.377 . S
C876 C875 1.373 . S
C877 C861 1.377 . S
C877 C875 1.389 . S
C877 C878 1.524 . S
C878 C877 1.524 . S
C878 C879 1.397 . S
C878 C883 1.363 . S
C879 H850 0.950 . S
C879 C878 1.397 . S
C879 C880 1.334 . S
C880 H851 0.950 . S
C880 C879 1.334 . S
C880 C881 1.287 . S
C881 C880 1.287 . S
C881 C882 1.524 . S
C881 H884 0.999 . S
C882 H852 0.950 . S
C882 C881 1.524 . S
C882 C883 1.415 . S
C883 H853 0.950 . S
C883 C878 1.363 . S
C883 C882 1.415 . S
H884 C881 0.999 . S
H885 C866 0.913 . S
H886 C904 0.951 . S
H887 C906 0.951 . S
H888 C908 0.950 . S
H889 C909 0.950 . S
H890 C911 0.950 . S
H891 C914 0.950 . S
H892 C915 0.950 . S
H893 C917 0.950 . S
H894 C918 0.950 . S
H895 C919 0.951 . S
H896 C921 0.951 . S
H897 C923 0.950 . S
H898 C924 0.950 . S
H899 C926 0.950 . S
H900 C929 0.950 . S
H901 C930 0.950 . S
H902 C932 0.950 . S
H903 C933 0.950 . S
C904 H886 0.951 . S
C904 C905 1.366 . S
C904 C906 1.388 . S
C905 C904 1.366 . S
C905 C909 1.385 . S
C906 H887 0.951 . S
C906 C904 1.388 . S
C906 C907 1.366 . S
C907 C906 1.366 . S
C907 C908 1.414 . S
C907 C910 1.499 . S
C908 H888 0.950 . S
C908 C907 1.414 . S
C908 C909 1.374 . S
C909 H889 0.950 . S
C909 C905 1.385 . S
C909 C908 1.374 . S
C910 C907 1.499 . S
C910 C911 1.373 . S
C910 C912 1.389 . S
C911 H890 0.950 . S
C911 C910 1.373 . S
C911 C927 1.377 . S
C912 C910 1.389 . S
C912 C913 1.524 . S
C912 C926 1.377 . S
C913 C912 1.524 . S
C913 C914 1.397 . S
C913 C918 1.363 . S
C914 H891 0.950 . S
C914 C913 1.397 . S
C914 C915 1.334 . S
C915 H892 0.950 . S
C915 C914 1.334 . S
C915 C916 1.287 . S
C916 C915 1.287 . S
C916 C917 1.524 . S
C916 H935 0.913 . S
C917 H893 0.950 . S
C917 C916 1.524 . S
C917 C918 1.415 . S
C918 H894 0.950 . S
C918 C913 1.363 . S
C918 C917 1.415 . S
C919 H895 0.951 . S
C919 C920 1.366 . S
C919 C921 1.388 . S
C920 C919 1.366 . S
C920 C924 1.385 . S
C921 H896 0.951 . S
C921 C919 1.388 . S
C921 C922 1.366 . S
C922 C921 1.366 . S
C922 C923 1.414 . S
C922 C925 1.499 . S
C923 H897 0.950 . S
C923 C922 1.414 . S
C923 C924 1.374 . S
C924 H898 0.950 . S
C924 C920 1.385 . S
C924 C923 1.374 . S
C925 C922 1.499 . S
C925 C926 1.373 . S
C925 C927 1.389 . S
C926 H899 0.950 . S
C926 C912 1.377 . S
C926 C925 1.373 . S
C927 C911 1.377 . S
C927 C925 1.389 . S
C927 C928 1.524 . S
C928 C927 1.524 . S
C928 C929 1.397 . S
C928 C933 1.363 . S
C929 H900 0.950 . S
C929 C928 1.397 . S
C929 C930 1.334 . S
C930 H901 0.950 . S
C930 C929 1.334 . S
C930 C931 1.287 . S
C931 C930 1.287 . S
C931 C932 1.524 . S
C931 H934 0.999 . S
C932 H902 0.950 . S
C932 C931 1.524 . S
C932 C933 1.415 . S
C933 H903 0.950 . S
C933 C928 1.363 . S
C933 C932 1.415 . S
H934 C931 0.999 . S
H935 C916 0.913 . S
H936 C954 0.951 . S
H937 C956 0.951 . S
H938 C958 0.950 . S
H939 C959 0.950 . S
H940 C961 0.950 . S
H941 C964 0.950 . S
H942 C965 0.950 . S
H943 C967 0.950 . S
H944 C968 0.950 . S
H945 C969 0.951 . S
H946 C971 0.951 . S
H947 C973 0.950 . S
H948 C974 0.964 . S
H949 C976 0.950 . S
H950 C979 0.951 . S
H951 C980 0.950 . S
H952 C982 0.950 . S
H953 C983 0.950 . S
C954 H936 0.951 . S
C954 C955 1.366 . S
C954 C956 1.388 . S
C955 C954 1.366 . S
C955 C959 1.385 . S
C956 H937 0.951 . S
C956 C954 1.388 . S
C956 C957 1.366 . S
C957 C956 1.366 . S
C957 C958 1.414 . S
C957 C960 1.499 . S
C958 H938 0.950 . S
C958 C957 1.414 . S
C958 C959 1.374 . S
C959 H939 0.950 . S
C959 C955 1.385 . S
C959 C958 1.374 . S
C960 C957 1.499 . S
C960 C961 1.373 . S
C960 C962 1.389 . S
C961 H940 0.950 . S
C961 C960 1.373 . S
C961 C977 1.377 . S
C962 C960 1.389 . S
C962 C963 1.524 . S
C962 C976 1.377 . S
C963 C962 1.524 . S
C963 C964 1.397 . S
C963 C968 1.363 . S
C964 H941 0.950 . S
C964 C963 1.397 . S
C964 C965 1.334 . S
C965 H942 0.950 . S
C965 C964 1.334 . S
C965 C966 1.287 . S
C966 C965 1.287 . S
C966 C967 1.524 . S
C966 H985 0.913 . S
C967 H943 0.950 . S
C967 C966 1.524 . S
C967 C968 1.415 . S
C968 H944 0.950 . S
C968 C963 1.363 . S
C968 C967 1.415 . S
C969 H945 0.951 . S
C969 C970 1.366 . S
C969 C971 1.388 1_554 S
C970 C969 1.366 . S
C970 C974 1.402 . S
C971 H946 0.951 . S
C971 C969 1.388 1_556 S
C971 C972 1.366 . S
C972 C971 1.366 . S
C972 C973 1.414 . S
C972 C975 1.499 . S
C973 H947 0.950 . S
C973 C972 1.414 . S
C973 C974 1.344 1_556 S
C974 H948 0.964 . S
C974 C970 1.402 . S
C974 C973 1.344 1_554 S
C975 C972 1.499 . S
C975 C976 1.373 . S
C975 C977 1.389 . S
C976 H949 0.950 . S
C976 C962 1.377 . S
C976 C975 1.373 . S
C977 C961 1.377 . S
C977 C975 1.389 . S
C977 C978 1.524 . S
C978 C977 1.524 . S
C978 C979 1.397 1_556 S
C978 C983 1.363 . S
C979 H950 0.951 . S
C979 C978 1.397 1_554 S
C979 C980 1.334 . S
C980 H951 0.950 . S
C980 C979 1.334 . S
C980 C981 1.287 . S
C981 C980 1.287 . S
C981 C982 1.524 . S
C981 H984 0.999 . S
C982 H952 0.950 . S
C982 C981 1.524 . S
C982 C983 1.415 1_554 S
C983 H953 0.950 . S
C983 C978 1.363 . S
C983 C982 1.415 1_556 S
H984 C981 0.999 . S
H985 C966 0.913 . S
H986 C1004 0.951 . S
H987 C1006 0.951 . S
H988 C1008 0.950 . S
H989 C1009 0.950 . S
H990 C1011 0.950 . S
H991 C1014 0.950 . S
H992 C1015 0.950 . S
H993 C1017 0.950 . S
H994 C1018 0.950 . S
H995 C1019 0.951 . S
H996 C1021 0.951 . S
H997 C1023 0.950 . S
H998 C1024 0.950 . S
H999 C1026 0.950 . S
H1000 C1029 0.950 . S
H1001 C1030 0.950 . S
H1002 C1032 0.950 . S
H1003 C1033 0.950 . S
C1004 H986 0.951 . S
C1004 C1005 1.366 . S
C1004 C1006 1.388 . S
C1005 C1004 1.366 . S
C1005 C1009 1.385 . S
C1006 H987 0.951 . S
C1006 C1004 1.388 . S
C1006 C1007 1.366 . S
C1007 C1006 1.366 . S
C1007 C1008 1.414 . S
C1007 C1010 1.499 . S
C1008 H988 0.950 . S
C1008 C1007 1.414 . S
C1008 C1009 1.374 . S
C1009 H989 0.950 . S
C1009 C1005 1.385 . S
C1009 C1008 1.374 . S
C1010 C1007 1.499 . S
C1010 C1011 1.373 . S
C1010 C1012 1.389 . S
C1011 H990 0.950 . S
C1011 C1010 1.373 . S
C1011 C1027 1.377 . S
C1012 C1010 1.389 . S
C1012 C1013 1.524 . S
C1012 C1026 1.377 . S
C1013 C1012 1.524 . S
C1013 C1014 1.397 . S
C1013 C1018 1.363 . S
C1014 H991 0.950 . S
C1014 C1013 1.397 . S
C1014 C1015 1.334 . S
C1015 H992 0.950 . S
C1015 C1014 1.334 . S
C1015 C1016 1.287 . S
C1016 C1015 1.287 . S
C1016 C1017 1.524 . S
C1016 H1035 0.913 . S
C1017 H993 0.950 . S
C1017 C1016 1.524 . S
C1017 C1018 1.415 . S
C1018 H994 0.950 . S
C1018 C1013 1.363 . S
C1018 C1017 1.415 . S
C1019 H995 0.951 . S
C1019 C1020 1.366 . S
C1019 C1021 1.388 . S
C1020 C1019 1.366 . S
C1020 C1024 1.385 . S
C1021 H996 0.951 . S
C1021 C1019 1.388 . S
C1021 C1022 1.366 . S
C1022 C1021 1.366 . S
C1022 C1023 1.414 . S
C1022 C1025 1.499 . S
C1023 H997 0.950 . S
C1023 C1022 1.414 . S
C1023 C1024 1.374 . S
C1024 H998 0.950 . S
C1024 C1020 1.385 . S
C1024 C1023 1.374 . S
C1025 C1022 1.499 . S
C1025 C1026 1.373 . S
C1025 C1027 1.389 . S
C1026 H999 0.950 . S
C1026 C1012 1.377 . S
C1026 C1025 1.373 . S
C1027 C1011 1.377 . S
C1027 C1025 1.389 . S
C1027 C1028 1.524 . S
C1028 C1027 1.524 . S
C1028 C1029 1.397 . S
C1028 C1033 1.363 . S
C1029 H1000 0.950 . S
C1029 C1028 1.397 . S
C1029 C1030 1.334 . S
C1030 H1001 0.950 . S
C1030 C1029 1.334 . S
C1030 C1031 1.287 . S
C1031 C1030 1.287 . S
C1031 C1032 1.524 . S
C1031 H1034 0.999 . S
C1032 H1002 0.950 . S
C1032 C1031 1.524 . S
C1032 C1033 1.415 . S
C1033 H1003 0.950 . S
C1033 C1028 1.363 . S
C1033 C1032 1.415 . S
H1034 C1031 0.999 . S
H1035 C1016 0.913 . S
H1036 C1054 0.951 . S
H1037 C1056 0.951 . S
H1038 C1058 0.950 . S
H1039 C1059 0.950 . S
H1040 C1061 0.950 . S
H1041 C1064 0.950 . S
H1042 C1065 0.950 . S
H1043 C1067 0.950 . S
H1044 C1068 0.950 . S
H1045 C1069 0.951 . S
H1046 C1071 0.951 . S
H1047 C1073 0.950 . S
H1048 C1074 0.950 . S
H1049 C1076 0.950 . S
H1050 C1079 0.950 . S
H1051 C1080 0.950 . S
H1052 C1082 0.950 . S
H1053 C1083 0.950 . S
C1054 H1036 0.951 . S
C1054 C1055 1.366 . S
C1054 C1056 1.388 . S
C1055 C1054 1.366 . S
C1055 C1059 1.385 . S
C1056 H1037 0.951 . S
C1056 C1054 1.388 . S
C1056 C1057 1.366 . S
C1057 C1056 1.366 . S
C1057 C1058 1.414 . S
C1057 C1060 1.499 . S
C1058 H1038 0.950 . S
C1058 C1057 1.414 . S
C1058 C1059 1.374 . S
C1059 H1039 0.950 . S
C1059 C1055 1.385 . S
C1059 C1058 1.374 . S
C1060 C1057 1.499 . S
C1060 C1061 1.373 . S
C1060 C1062 1.389 . S
C1061 H1040 0.950 . S
C1061 C1060 1.373 . S
C1061 C1077 1.377 . S
C1062 C1060 1.389 . S
C1062 C1063 1.524 . S
C1062 C1076 1.377 . S
C1063 C1062 1.524 . S
C1063 C1064 1.397 . S
C1063 C1068 1.363 . S
C1064 H1041 0.950 . S
C1064 C1063 1.397 . S
C1064 C1065 1.334 . S
C1065 H1042 0.950 . S
C1065 C1064 1.334 . S
C1065 C1066 1.287 . S
C1066 C1065 1.287 . S
C1066 C1067 1.524 . S
C1066 H1085 0.913 . S
C1067 H1043 0.950 . S
C1067 C1066 1.524 . S
C1067 C1068 1.415 . S
C1068 H1044 0.950 . S
C1068 C1063 1.363 . S
C1068 C1067 1.415 . S
C1069 H1045 0.951 . S
C1069 C1070 1.366 . S
C1069 C1071 1.388 . S
C1070 C1069 1.366 . S
C1070 C1074 1.385 . S
C1071 H1046 0.951 . S
C1071 C1069 1.388 . S
C1071 C1072 1.366 . S
C1072 C1071 1.366 . S
C1072 C1073 1.414 . S
C1072 C1075 1.499 . S
C1073 H1047 0.950 . S
C1073 C1072 1.414 . S
C1073 C1074 1.374 . S
C1074 H1048 0.950 . S
C1074 C1070 1.385 . S
C1074 C1073 1.374 . S
C1075 C1072 1.499 . S
C1075 C1076 1.373 . S
C1075 C1077 1.389 . S
C1076 H1049 0.950 . S
C1076 C1062 1.377 . S
C1076 C1075 1.373 . S
C1077 C1061 1.377 . S
C1077 C1075 1.389 . S
C1077 C1078 1.524 . S
C1078 C1077 1.524 . S
C1078 C1079 1.397 . S
C1078 C1083 1.363 . S
C1079 H1050 0.950 . S
C1079 C1078 1.397 . S
C1079 C1080 1.334 . S
C1080 H1051 0.950 . S
C1080 C1079 1.334 . S
C1080 C1081 1.287 . S
C1081 C1080 1.287 . S
C1081 C1082 1.524 . S
C1081 H1084 0.999 . S
C1082 H1052 0.950 . S
C1082 C1081 1.524 . S
C1082 C1083 1.415 . S
C1083 H1053 0.950 . S
C1083 C1078 1.363 . S
C1083 C1082 1.415 . S
H1084 C1081 0.999 . S
H1085 C1066 0.913 . S
H1086 C1104 0.951 . S
H1087 C1106 0.951 . S
H1088 C1108 0.950 . S
H1089 C1109 0.950 . S
H1090 C1111 0.950 . S
H1091 C1114 0.950 . S
H1092 C1115 0.950 . S
H1093 C1117 0.950 . S
H1094 C1118 0.950 . S
H1095 C1119 0.951 . S
H1096 C1121 0.951 . S
H1097 C1123 0.950 . S
H1098 C1124 0.950 . S
H1099 C1126 0.950 . S
H1100 C1129 0.950 . S
H1101 C1130 0.950 . S
H1102 C1132 0.950 . S
H1103 C1133 0.950 . S
C1104 H1086 0.951 . S
C1104 C1105 1.366 . S
C1104 C1106 1.388 . S
C1105 C1104 1.366 . S
C1105 C1109 1.385 . S
C1106 H1087 0.951 . S
C1106 C1104 1.388 . S
C1106 C1107 1.366 . S
C1107 C1106 1.366 . S
C1107 C1108 1.414 . S
C1107 C1110 1.499 . S
C1108 H1088 0.950 . S
C1108 C1107 1.414 . S
C1108 C1109 1.374 . S
C1109 H1089 0.950 . S
C1109 C1105 1.385 . S
C1109 C1108 1.374 . S
C1110 C1107 1.499 . S
C1110 C1111 1.373 . S
C1110 C1112 1.389 . S
C1111 H1090 0.950 . S
C1111 C1110 1.373 . S
C1111 C1127 1.377 . S
C1112 C1110 1.389 . S
C1112 C1113 1.524 . S
C1112 C1126 1.377 . S
C1113 C1112 1.524 . S
C1113 C1114 1.397 . S
C1113 C1118 1.363 . S
C1114 H1091 0.950 . S
C1114 C1113 1.397 . S
C1114 C1115 1.334 . S
C1115 H1092 0.950 . S
C1115 C1114 1.334 . S
C1115 C1116 1.287 . S
C1116 C1115 1.287 . S
C1116 C1117 1.524 . S
C1116 H1135 0.913 . S
C1117 H1093 0.950 . S
C1117 C1116 1.524 . S
C1117 C1118 1.415 . S
C1118 H1094 0.950 . S
C1118 C1113 1.363 . S
C1118 C1117 1.415 . S
C1119 H1095 0.951 . S
C1119 C1120 1.366 . S
C1119 C1121 1.388 . S
C1120 C1119 1.366 . S
C1120 C1124 1.385 . S
C1121 H1096 0.951 . S
C1121 C1119 1.388 . S
C1121 C1122 1.366 . S
C1122 C1121 1.366 . S
C1122 C1123 1.414 . S
C1122 C1125 1.499 . S
C1123 H1097 0.950 . S
C1123 C1122 1.414 . S
C1123 C1124 1.374 . S
C1124 H1098 0.950 . S
C1124 C1120 1.385 . S
C1124 C1123 1.374 . S
C1125 C1122 1.499 . S
C1125 C1126 1.373 . S
C1125 C1127 1.389 . S
C1126 H1099 0.950 . S
C1126 C1112 1.377 . S
C1126 C1125 1.373 . S
C1127 C1111 1.377 . S
C1127 C1125 1.389 . S
C1127 C1128 1.524 . S
C1128 C1127 1.524 . S
C1128 C1129 1.397 . S
C1128 C1133 1.363 . S
C1129 H1100 0.950 . S
C1129 C1128 1.397 . S
C1129 C1130 1.334 . S
C1130 H1101 0.950 . S
C1130 C1129 1.334 . S
C1130 C1131 1.287 . S
C1131 C1130 1.287 . S
C1131 C1132 1.524 . S
C1131 H1134 0.999 . S
C1132 H1102 0.950 . S
C1132 C1131 1.524 . S
C1132 C1133 1.415 . S
C1133 H1103 0.950 . S
C1133 C1128 1.363 . S
C1133 C1132 1.415 . S
H1134 C1131 0.999 . S
H1135 C1116 0.913 . S
H1136 C1154 0.951 . S
H1137 C1156 0.951 . S
H1138 C1158 0.950 . S
H1139 C1159 0.950 . S
H1140 C1161 0.950 . S
H1141 C1164 0.950 . S
H1142 C1165 0.950 . S
H1143 C1167 0.950 . S
H1144 C1168 0.950 . S
H1145 C1169 0.951 . S
H1146 C1171 0.951 . S
H1147 C1173 0.950 . S
H1148 C1174 0.950 . S
H1149 C1176 0.950 . S
H1150 C1179 0.950 . S
H1151 C1180 0.950 . S
H1152 C1182 0.950 . S
H1153 C1183 0.950 . S
C1154 H1136 0.951 . S
C1154 C1155 1.366 . S
C1154 C1156 1.388 . S
C1155 C1154 1.366 . S
C1155 C1159 1.385 . S
C1156 H1137 0.951 . S
C1156 C1154 1.388 . S
C1156 C1157 1.366 . S
C1157 C1156 1.366 . S
C1157 C1158 1.414 . S
C1157 C1160 1.499 . S
C1158 H1138 0.950 . S
C1158 C1157 1.414 . S
C1158 C1159 1.374 . S
C1159 H1139 0.950 . S
C1159 C1155 1.385 . S
C1159 C1158 1.374 . S
C1160 C1157 1.499 . S
C1160 C1161 1.373 . S
C1160 C1162 1.389 . S
C1161 H1140 0.950 . S
C1161 C1160 1.373 . S
C1161 C1177 1.377 . S
C1162 C1160 1.389 . S
C1162 C1163 1.524 . S
C1162 C1176 1.377 . S
C1163 C1162 1.524 . S
C1163 C1164 1.397 . S
C1163 C1168 1.363 . S
C1164 H1141 0.950 . S
C1164 C1163 1.397 . S
C1164 C1165 1.334 . S
C1165 H1142 0.950 . S
C1165 C1164 1.334 . S
C1165 C1166 1.287 . S
C1166 C1165 1.287 . S
C1166 C1167 1.524 . S
C1166 H1185 0.913 . S
C1167 H1143 0.950 . S
C1167 C1166 1.524 . S
C1167 C1168 1.415 . S
C1168 H1144 0.950 . S
C1168 C1163 1.363 . S
C1168 C1167 1.415 . S
C1169 H1145 0.951 . S
C1169 C1170 1.366 . S
C1169 C1171 1.388 . S
C1170 C1169 1.366 . S
C1170 C1174 1.385 . S
C1171 H1146 0.951 . S
C1171 C1169 1.388 . S
C1171 C1172 1.366 . S
C1172 C1171 1.366 . S
C1172 C1173 1.414 . S
C1172 C1175 1.499 . S
C1173 H1147 0.950 . S
C1173 C1172 1.414 . S
C1173 C1174 1.374 . S
C1174 H1148 0.950 . S
C1174 C1170 1.385 . S
C1174 C1173 1.374 . S
C1175 C1172 1.499 . S
C1175 C1176 1.373 . S
C1175 C1177 1.389 . S
C1176 H1149 0.950 . S
C1176 C1162 1.377 . S
C1176 C1175 1.373 . S
C1177 C1161 1.377 . S
C1177 C1175 1.389 . S
C1177 C1178 1.524 . S
C1178 C1177 1.524 . S
C1178 C1179 1.397 . S
C1178 C1183 1.363 . S
C1179 H1150 0.950 . S
C1179 C1178 1.397 . S
C1179 C1180 1.334 . S
C1180 H1151 0.950 . S
C1180 C1179 1.334 . S
C1180 C1181 1.287 . S
C1181 C1180 1.287 . S
C1181 C1182 1.524 . S
C1181 H1184 0.999 . S
C1182 H1152 0.950 . S
C1182 C1181 1.524 . S
C1182 C1183 1.415 . S
C1183 H1153 0.950 . S
C1183 C1178 1.363 . S
C1183 C1182 1.415 . S
H1184 C1181 0.999 . S
H1185 C1166 0.913 . S
H1186 C1204 0.951 . S
H1187 C1206 0.951 . S
H1188 C1208 0.950 . S
H1189 C1209 0.950 . S
H1190 C1211 0.950 . S
H1191 C1214 0.950 . S
H1192 C1215 0.950 . S
H1193 C1217 0.950 . S
H1194 C1218 0.950 . S
H1195 C1219 0.951 . S
H1196 C1221 0.951 . S
H1197 C1223 0.950 . S
H1198 C1224 0.950 . S
H1199 C1226 0.950 . S
H1200 C1229 0.950 . S
H1201 C1230 0.950 . S
H1202 C1232 0.950 . S
H1203 C1233 0.950 . S
C1204 H1186 0.951 . S
C1204 C1205 1.366 . S
C1204 C1206 1.388 . S
C1205 C1204 1.366 . S
C1205 C1209 1.385 . S
C1206 H1187 0.951 . S
C1206 C1204 1.388 . S
C1206 C1207 1.366 . S
C1207 C1206 1.366 . S
C1207 C1208 1.414 . S
C1207 C1210 1.499 . S
C1208 H1188 0.950 . S
C1208 C1207 1.414 . S
C1208 C1209 1.374 . S
C1209 H1189 0.950 . S
C1209 C1205 1.385 . S
C1209 C1208 1.374 . S
C1210 C1207 1.499 . S
C1210 C1211 1.373 . S
C1210 C1212 1.389 . S
C1211 H1190 0.950 . S
C1211 C1210 1.373 . S
C1211 C1227 1.377 . S
C1212 C1210 1.389 . S
C1212 C1213 1.524 . S
C1212 C1226 1.377 . S
C1213 C1212 1.524 . S
C1213 C1214 1.397 . S
C1213 C1218 1.363 . S
C1214 H1191 0.950 . S
C1214 C1213 1.397 . S
C1214 C1215 1.334 . S
C1215 H1192 0.950 . S
C1215 C1214 1.334 . S
C1215 C1216 1.287 . S
C1216 C1215 1.287 . S
C1216 C1217 1.524 . S
C1216 H1235 0.913 . S
C1217 H1193 0.950 . S
C1217 C1216 1.524 . S
C1217 C1218 1.415 . S
C1218 H1194 0.950 . S
C1218 C1213 1.363 . S
C1218 C1217 1.415 . S
C1219 H1195 0.951 . S
C1219 C1220 1.366 . S
C1219 C1221 1.388 . S
C1220 C1219 1.366 . S
C1220 C1224 1.385 . S
C1221 H1196 0.951 . S
C1221 C1219 1.388 . S
C1221 C1222 1.366 . S
C1222 C1221 1.366 . S
C1222 C1223 1.414 . S
C1222 C1225 1.499 . S
C1223 H1197 0.950 . S
C1223 C1222 1.414 . S
C1223 C1224 1.374 . S
C1224 H1198 0.950 . S
C1224 C1220 1.385 . S
C1224 C1223 1.374 . S
C1225 C1222 1.499 . S
C1225 C1226 1.373 . S
C1225 C1227 1.389 . S
C1226 H1199 0.950 . S
C1226 C1212 1.377 . S
C1226 C1225 1.373 . S
C1227 C1211 1.377 . S
C1227 C1225 1.389 . S
C1227 C1228 1.524 . S
C1228 C1227 1.524 . S
C1228 C1229 1.397 . S
C1228 C1233 1.363 . S
C1229 H1200 0.950 . S
C1229 C1228 1.397 . S
C1229 C1230 1.334 . S
C1230 H1201 0.950 . S
C1230 C1229 1.334 . S
C1230 C1231 1.287 . S
C1231 C1230 1.287 . S
C1231 C1232 1.524 . S
C1231 H1234 0.999 . S
C1232 H1202 0.950 . S
C1232 C1231 1.524 . S
C1232 C1233 1.415 . S
C1233 H1203 0.950 . S
C1233 C1228 1.363 . S
C1233 C1232 1.415 . S
H1234 C1231 0.999 . S
H1235 C1216 0.913 . S
H1236 C1254 0.951 . S
H1237 C1256 0.951 . S
H1238 C1258 0.950 . S
H1239 C1259 0.950 . S
H1240 C1261 0.950 . S
H1241 C1264 0.950 . S
H1242 C1265 0.950 . S
H1243 C1267 0.950 . S
H1244 C1268 0.950 . S
H1245 C1269 0.951 . S
H1246 C1271 0.951 . S
H1247 C1273 0.950 . S
H1248 C1274 0.950 . S
H1249 C1276 0.950 . S
H1250 C1279 0.950 . S
H1251 C1280 0.950 . S
H1252 C1282 0.950 . S
H1253 C1283 0.950 . S
C1254 H1236 0.951 . S
C1254 C1255 1.366 . S
C1254 C1256 1.388 . S
C1255 C1254 1.366 . S
C1255 C1259 1.385 . S
C1256 H1237 0.951 . S
C1256 C1254 1.388 . S
C1256 C1257 1.366 . S
C1257 C1256 1.366 . S
C1257 C1258 1.414 . S
C1257 C1260 1.499 . S
C1258 H1238 0.950 . S
C1258 C1257 1.414 . S
C1258 C1259 1.374 . S
C1259 H1239 0.950 . S
C1259 C1255 1.385 . S
C1259 C1258 1.374 . S
C1260 C1257 1.499 . S
C1260 C1261 1.373 . S
C1260 C1262 1.389 . S
C1261 H1240 0.950 . S
C1261 C1260 1.373 . S
C1261 C1277 1.377 . S
C1262 C1260 1.389 . S
C1262 C1263 1.524 . S
C1262 C1276 1.377 . S
C1263 C1262 1.524 . S
C1263 C1264 1.397 . S
C1263 C1268 1.363 . S
C1264 H1241 0.950 . S
C1264 C1263 1.397 . S
C1264 C1265 1.334 . S
C1265 H1242 0.950 . S
C1265 C1264 1.334 . S
C1265 C1266 1.287 . S
C1266 C1265 1.287 . S
C1266 C1267 1.524 . S
C1266 H1285 0.913 . S
C1267 H1243 0.950 . S
C1267 C1266 1.524 . S
C1267 C1268 1.415 . S
C1268 H1244 0.950 . S
C1268 C1263 1.363 . S
C1268 C1267 1.415 . S
C1269 H1245 0.951 . S
C1269 C1270 1.366 . S
C1269 C1271 1.388 . S
C1270 C1269 1.366 . S
C1270 C1274 1.385 . S
C1271 H1246 0.951 . S
C1271 C1269 1.388 . S
C1271 C1272 1.366 . S
C1272 C1271 1.366 . S
C1272 C1273 1.414 . S
C1272 C1275 1.499 . S
C1273 H1247 0.950 . S
C1273 C1272 1.414 . S
C1273 C1274 1.374 . S
C1274 H1248 0.950 . S
C1274 C1270 1.385 . S
C1274 C1273 1.374 . S
C1275 C1272 1.499 . S
C1275 C1276 1.373 . S
C1275 C1277 1.389 . S
C1276 H1249 0.950 . S
C1276 C1262 1.377 . S
C1276 C1275 1.373 . S
C1277 C1261 1.377 . S
C1277 C1275 1.389 . S
C1277 C1278 1.524 . S
C1278 C1277 1.524 . S
C1278 C1279 1.397 . S
C1278 C1283 1.363 . S
C1279 H1250 0.950 . S
C1279 C1278 1.397 . S
C1279 C1280 1.334 . S
C1280 H1251 0.950 . S
C1280 C1279 1.334 . S
C1280 C1281 1.287 . S
C1281 C1280 1.287 . S
C1281 C1282 1.524 . S
C1281 H1284 0.999 . S
C1282 H1252 0.950 . S
C1282 C1281 1.524 . S
C1282 C1283 1.415 . S
C1283 H1253 0.950 . S
C1283 C1278 1.363 . S
C1283 C1282 1.415 . S
H1284 C1281 0.999 . S
H1285 C1266 0.913 . S
H1286 C1304 0.951 . S
H1287 C1306 0.951 . S
H1288 C1308 0.950 . S
H1289 C1309 0.950 . S
H1290 C1311 0.950 . S
H1291 C1314 0.950 . S
H1292 C1315 0.950 . S
H1293 C1317 0.950 . S
H1294 C1318 0.950 . S
H1295 C1319 0.951 . S
H1296 C1321 0.951 . S
H1297 C1323 0.950 1_554 S
H1298 C1324 0.950 . S
H1299 C1326 0.950 . S
H1300 C1329 0.950 . S
H1301 C1330 0.950 . S
H1302 C1332 0.950 . S
H1303 C1333 0.950 . S
C1304 H1286 0.951 . S
C1304 C1305 1.366 . S
C1304 C1306 1.388 . S
C1305 C1304 1.366 . S
C1305 C1309 1.385 . S
C1306 H1287 0.951 . S
C1306 C1304 1.388 . S
C1306 C1307 1.366 . S
C1307 C1306 1.366 . S
C1307 C1308 1.414 . S
C1307 C1310 1.499 . S
C1308 H1288 0.950 . S
C1308 C1307 1.414 . S
C1308 C1309 1.374 . S
C1309 H1289 0.950 . S
C1309 C1305 1.385 . S
C1309 C1308 1.374 . S
C1310 C1307 1.499 . S
C1310 C1311 1.373 . S
C1310 C1312 1.389 . S
C1311 H1290 0.950 . S
C1311 C1310 1.373 . S
C1311 C1327 1.377 . S
C1312 C1310 1.389 . S
C1312 C1313 1.524 . S
C1312 C1326 1.377 . S
C1313 C1312 1.524 . S
C1313 C1314 1.397 . S
C1313 C1318 1.363 . S
C1314 H1291 0.950 . S
C1314 C1313 1.397 . S
C1314 C1315 1.334 . S
C1315 H1292 0.950 . S
C1315 C1314 1.334 . S
C1315 C1316 1.287 . S
C1316 C1315 1.287 . S
C1316 C1317 1.524 . S
C1316 H1335 0.913 . S
C1317 H1293 0.950 . S
C1317 C1316 1.524 . S
C1317 C1318 1.415 . S
C1318 H1294 0.950 . S
C1318 C1313 1.363 . S
C1318 C1317 1.415 . S
C1319 H1295 0.951 . S
C1319 C1320 1.366 . S
C1319 C1321 1.388 . S
C1320 C1319 1.366 . S
C1320 C1324 1.385 . S
C1321 H1296 0.951 . S
C1321 C1319 1.388 . S
C1321 C1322 1.366 . S
C1322 C1321 1.366 . S
C1322 C1323 1.414 . S
C1322 C1325 1.499 1_556 S
C1323 H1297 0.950 1_556 S
C1323 C1322 1.414 . S
C1323 C1324 1.374 . S
C1324 H1298 0.950 . S
C1324 C1320 1.385 . S
C1324 C1323 1.374 . S
C1325 C1322 1.499 1_554 S
C1325 C1326 1.373 . S
C1325 C1327 1.389 . S
C1326 H1299 0.950 . S
C1326 C1312 1.377 . S
C1326 C1325 1.373 . S
C1327 C1311 1.377 . S
C1327 C1325 1.389 . S
C1327 C1328 1.524 1_554 S
C1328 C1327 1.524 1_556 S
C1328 C1329 1.397 . S
C1328 C1333 1.363 . S
C1329 H1300 0.950 . S
C1329 C1328 1.397 . S
C1329 C1330 1.334 . S
C1330 H1301 0.950 . S
C1330 C1329 1.334 . S
C1330 C1331 1.287 . S
C1331 C1330 1.287 . S
C1331 C1332 1.524 . S
C1331 H1334 0.999 . S
C1332 H1302 0.950 . S
C1332 C1331 1.524 . S
C1332 C1333 1.415 . S
C1333 H1303 0.950 . S
C1333 C1328 1.363 . S
C1333 C1332 1.415 . S
H1334 C1331 0.999 . S
H1335 C1316 0.913 . S
H1336 C1354 0.951 . S
H1337 C1356 0.951 . S
H1338 C1358 0.950 . S
H1339 C1359 0.950 . S
H1340 C1361 0.950 . S
H1341 C1364 0.950 . S
H1342 C1365 0.950 . S
H1343 C1367 0.950 . S
H1344 C1368 0.950 . S
H1345 C1369 0.951 . S
H1346 C1371 0.951 . S
H1347 C1373 0.950 . S
H1348 C1374 0.950 . S
H1349 C1376 0.950 . S
H1350 C1379 0.950 . S
H1351 C1380 0.950 . S
H1352 C1382 0.950 . S
H1353 C1383 0.950 . S
C1354 H1336 0.951 . S
C1354 C1355 1.366 . S
C1354 C1356 1.388 . S
C1355 C1354 1.366 . S
C1355 C1359 1.385 . S
C1356 H1337 0.951 . S
C1356 C1354 1.388 . S
C1356 C1357 1.366 . S
C1357 C1356 1.366 . S
C1357 C1358 1.414 . S
C1357 C1360 1.499 . S
C1358 H1338 0.950 . S
C1358 C1357 1.414 . S
C1358 C1359 1.374 . S
C1359 H1339 0.950 . S
C1359 C1355 1.385 . S
C1359 C1358 1.374 . S
C1360 C1357 1.499 . S
C1360 C1361 1.373 . S
C1360 C1362 1.389 . S
C1361 H1340 0.950 . S
C1361 C1360 1.373 . S
C1361 C1377 1.377 . S
C1362 C1360 1.389 . S
C1362 C1363 1.524 . S
C1362 C1376 1.377 . S
C1363 C1362 1.524 . S
C1363 C1364 1.397 . S
C1363 C1368 1.363 . S
C1364 H1341 0.950 . S
C1364 C1363 1.397 . S
C1364 C1365 1.334 . S
C1365 H1342 0.950 . S
C1365 C1364 1.334 . S
C1365 C1366 1.287 . S
C1366 C1365 1.287 . S
C1366 C1367 1.524 . S
C1366 H1385 0.913 . S
C1367 H1343 0.950 . S
C1367 C1366 1.524 . S
C1367 C1368 1.415 . S
C1368 H1344 0.950 . S
C1368 C1363 1.363 . S
C1368 C1367 1.415 . S
C1369 H1345 0.951 . S
C1369 C1370 1.366 . S
C1369 C1371 1.388 . S
C1370 C1369 1.366 . S
C1370 C1374 1.385 . S
C1371 H1346 0.951 . S
C1371 C1369 1.388 . S
C1371 C1372 1.366 . S
C1372 C1371 1.366 . S
C1372 C1373 1.414 . S
C1372 C1375 1.499 . S
C1373 H1347 0.950 . S
C1373 C1372 1.414 . S
C1373 C1374 1.374 . S
C1374 H1348 0.950 . S
C1374 C1370 1.385 . S
C1374 C1373 1.374 . S
C1375 C1372 1.499 . S
C1375 C1376 1.373 . S
C1375 C1377 1.389 . S
C1376 H1349 0.950 . S
C1376 C1362 1.377 . S
C1376 C1375 1.373 . S
C1377 C1361 1.377 . S
C1377 C1375 1.389 . S
C1377 C1378 1.524 . S
C1378 C1377 1.524 . S
C1378 C1379 1.397 . S
C1378 C1383 1.363 . S
C1379 H1350 0.950 . S
C1379 C1378 1.397 . S
C1379 C1380 1.334 . S
C1380 H1351 0.950 . S
C1380 C1379 1.334 . S
C1380 C1381 1.287 . S
C1381 C1380 1.287 . S
C1381 C1382 1.524 . S
C1381 H1384 0.999 . S
C1382 H1352 0.950 . S
C1382 C1381 1.524 . S
C1382 C1383 1.415 . S
C1383 H1353 0.950 . S
C1383 C1378 1.363 . S
C1383 C1382 1.415 . S
H1384 C1381 0.999 . S
H1385 C1366 0.913 . S
C220 C183 1.548 . S
C205 C8 1.505 . S
C255 C26 1.483 . S
C270 C108 1.480 . S
C305 C50 1.513 . S
C320 C131 1.569 . S
C355 C68 1.418 . S
C370 C144 1.461 . S
C420 C147 1.510 . S
C405 C80 1.513 . S
C455 C104 1.420 . S
C470 C160 1.432 . S
C505 C32 1.427 . S
C520 C121 1.437 . S
C555 C44 1.514 . S
C570 C134 1.511 . S
C605 C62 1.417 . S
C620 C157 1.457 . S
C670 C170 1.563 . S
C655 C86 1.507 1_554 S
C720 C173 1.478 . S
C705 C98 1.482 . S
C770 C118 1.552 . S
C755 C14 1.503 . S
C805 C7 1.447 . S
C820 C129 1.454 . S
C855 C25 1.435 . S
C870 C142 1.443 . S
C920 C152 1.474 . S
C905 C52 1.463 . S
C955 C70 1.434 . S
C970 C165 1.443 . S
C1020 C181 1.479 . S
C1005 C79 1.472 . S
C1070 C113 1.441 . S
C1055 C106 1.428 . S
C1120 C178 1.440 . S
C1105 C34 1.426 . S
C1155 C43 1.472 . S
C1170 C116 1.480 . S
C1220 C126 1.443 . S
C1205 C61 1.431 . S
C1255 C88 1.465 . S
C1270 C139 1.475 . S
C1305 C97 1.433 . S
C1320 C155 1.441 . S
C1355 C16 1.450 . S
C1370 C168 1.454 . S
