# Generated by pormake.
# Topology pyr, (3,6)-cn, num edge types: 1
# Building blocks:
#     Node 0, Type 0, BuildingBlock: BELTOD_clean_linker_0, # of connection points: 3
#     Node 1, Type 0, BuildingBlock: BELTOD_clean_linker_0, # of connection points: 3
#     Node 2, Type 0, BuildingBlock: BELTOD_clean_linker_0, # of connection points: 3
#     Node 3, Type 0, BuildingBlock: BELTOD_clean_linker_0, # of connection points: 3
#     Node 4, Type 0, BuildingBlock: BELTOD_clean_linker_0, # of connection points: 3
#     Node 5, Type 0, BuildingBlock: BELTOD_clean_linker_0, # of connection points: 3
#     Node 6, Type 0, BuildingBlock: BELTOD_clean_linker_0, # of connection points: 3
#     Node 7, Type 0, BuildingBlock: BELTOD_clean_linker_0, # of connection points: 3
#     Node 8, Type 1, BuildingBlock: LEVNOQ01_clean_sbu_1, # of connection points: 6
#     Node 9, Type 1, BuildingBlock: LEVNOQ01_clean_sbu_1, # of connection points: 6
#     Node 10, Type 1, BuildingBlock: LEVNOQ01_clean_sbu_1, # of connection points: 6
#     Node 11, Type 1, BuildingBlock: LEVNOQ01_clean_sbu_1, # of connection points: 6
#     Edge 12, Type (0, 1), BuildingBlock: AJUNOK_clean_linker_0, # of connection points: 2
#     Edge 13, Type (0, 1), BuildingBlock: AJUNOK_clean_linker_0, # of connection points: 2
#     Edge 14, Type (0, 1), BuildingBlock: AJUNOK_clean_linker_0, # of connection points: 2
#     Edge 15, Type (0, 1), BuildingBlock: AJUNOK_clean_linker_0, # of connection points: 2
#     Edge 16, Type (0, 1), BuildingBlock: AJUNOK_clean_linker_0, # of connection points: 2
#     Edge 17, Type (0, 1), BuildingBlock: AJUNOK_clean_linker_0, # of connection points: 2
#     Edge 18, Type (0, 1), BuildingBlock: AJUNOK_clean_linker_0, # of connection points: 2
#     Edge 19, Type (0, 1), BuildingBlock: AJUNOK_clean_linker_0, # of connection points: 2
#     Edge 20, Type (0, 1), BuildingBlock: AJUNOK_clean_linker_0, # of connection points: 2
#     Edge 21, Type (0, 1), BuildingBlock: AJUNOK_clean_linker_0, # of connection points: 2
#     Edge 22, Type (0, 1), BuildingBlock: AJUNOK_clean_linker_0, # of connection points: 2
#     Edge 23, Type (0, 1), BuildingBlock: AJUNOK_clean_linker_0, # of connection points: 2
#     Edge 24, Type (0, 1), BuildingBlock: AJUNOK_clean_linker_0, # of connection points: 2
#     Edge 25, Type (0, 1), BuildingBlock: AJUNOK_clean_linker_0, # of connection points: 2
#     Edge 26, Type (0, 1), BuildingBlock: AJUNOK_clean_linker_0, # of connection points: 2
#     Edge 27, Type (0, 1), BuildingBlock: AJUNOK_clean_linker_0, # of connection points: 2
#     Edge 28, Type (0, 1), BuildingBlock: AJUNOK_clean_linker_0, # of connection points: 2
#     Edge 29, Type (0, 1), BuildingBlock: AJUNOK_clean_linker_0, # of connection points: 2
#     Edge 30, Type (0, 1), BuildingBlock: AJUNOK_clean_linker_0, # of connection points: 2
#     Edge 31, Type (0, 1), BuildingBlock: AJUNOK_clean_linker_0, # of connection points: 2
#     Edge 32, Type (0, 1), BuildingBlock: AJUNOK_clean_linker_0, # of connection points: 2
#     Edge 33, Type (0, 1), BuildingBlock: AJUNOK_clean_linker_0, # of connection points: 2
#     Edge 34, Type (0, 1), BuildingBlock: AJUNOK_clean_linker_0, # of connection points: 2
#     Edge 35, Type (0, 1), BuildingBlock: AJUNOK_clean_linker_0, # of connection points: 2
# Relax obj value: 0.036
# Max RMSD: 0.107
# Mean RMSD: 0.051
data_MOF--net-pry--node1-LEVNOQ01_clean_sbu_1--node2-BELTOD_clean_linker_0--edge1-AJUNOK_clean_linker_0
_symmetry_space_group_name_H-M    P1
_symmetry_Int_Tables_number       1
_symmetry_cell_setting            triclinic
loop_
_symmetry_equiv_pos_as_xyz
'x, y, z'
_cell_length_a     32.862705
_cell_length_b     31.85244
_cell_length_c     31.33066
_cell_angle_alpha  92.4226
_cell_angle_beta   91.539219
_cell_angle_gamma 94.173117
loop_
_atom_site_label
_atom_site_type_symbol
_atom_site_fract_x
_atom_site_fract_y
_atom_site_fract_z
_atom_type_partial_charge
P0 P 0.16486 0.16858 0.16194 0.0
H1 H 0.25363 0.18075 0.15971 0.0
H2 H 0.30503 0.14499 0.12087 0.0
H3 H 0.21162 0.05737 0.06228 0.0
H4 H 0.15929 0.09338 0.10229 0.0
H5 H 0.1097 0.23363 0.18048 0.0
H6 H 0.07447 0.28163 0.13594 0.0
H7 H 0.11758 0.2198 0.02266 0.0
H8 H 0.1523 0.17078 0.06733 0.0
H9 H 0.19164 0.10383 0.21639 0.0
H10 H 0.07876 0.15989 0.18911 0.0
O11 O 0.1905 0.20508 0.19404 0.0
H12 H 0.15927 0.06509 0.27368 0.0
H13 H 0.04639 0.12138 0.24682 0.0
C14 C 0.20239 0.1402 0.1335 0.0
C15 C 0.24381 0.15378 0.13884 0.0
C16 C 0.27334 0.13317 0.11672 0.0
C17 C 0.26227 0.09852 0.08856 0.0
C18 C 0.22092 0.08385 0.08405 0.0
C19 C 0.19111 0.10458 0.10654 0.0
C20 C 0.13316 0.19797 0.12747 0.0
C21 C 0.11057 0.22932 0.14605 0.0
C22 C 0.09051 0.25684 0.1206 0.0
C23 C 0.09305 0.25407 0.07595 0.0
C24 C 0.11489 0.22221 0.05704 0.0
C25 C 0.13466 0.19417 0.08264 0.0
C26 C 0.13756 0.13426 0.19772 0.0
C27 C 0.15962 0.10709 0.22199 0.0
C28 C 0.14116 0.0851 0.25493 0.0
C29 C 0.10028 0.09015 0.26469 0.0
C30 C 0.07802 0.11706 0.24012 0.0
C31 C 0.09648 0.13887 0.20687 0.0
P32 P 0.39451 0.91167 0.5818 0.0
H33 H 0.47087 0.93816 0.62839 0.0
H34 H 0.48741 0.95638 0.70392 0.0
H35 H 0.35968 0.93715 0.73235 0.0
H36 H 0.34374 0.91688 0.65749 0.0
H37 H 0.45218 0.87176 0.52607 0.0
H38 H 0.46779 0.79843 0.51361 0.0
H39 H 0.37553 0.7594 0.60238 0.0
H40 H 0.36151 0.83311 0.6163 0.0
H41 H 0.34438 0.98206 0.59516 0.0
H42 H 0.32893 0.85664 0.53644 0.0
O43 O 0.42356 0.94275 0.55149 0.0
H44 H 0.27289 0.99227 0.57808 0.0
H45 H 0.25737 0.86686 0.51933 0.0
C46 C 0.40599 0.9271 0.63711 0.0
C47 C 0.44641 0.93841 0.65086 0.0
C48 C 0.45576 0.94936 0.69395 0.0
C49 C 0.42474 0.94926 0.72403 0.0
C50 C 0.38423 0.93794 0.70994 0.0
C51 C 0.37504 0.92649 0.66704 0.0
C52 C 0.40597 0.85778 0.57242 0.0
C53 C 0.43547 0.84747 0.54303 0.0
C54 C 0.44407 0.80552 0.53558 0.0
C55 C 0.42318 0.77324 0.5573 0.0
C56 C 0.39281 0.78368 0.5859 0.0
C57 C 0.3847 0.8257 0.59382 0.0
C58 C 0.34188 0.9184 0.56792 0.0
C59 C 0.32566 0.95676 0.57858 0.0
C60 C 0.28492 0.96264 0.56852 0.0
C61 C 0.25981 0.93045 0.54695 0.0
C62 C 0.27613 0.89208 0.53601 0.0
C63 C 0.31703 0.88625 0.546 0.0
P64 P 0.66081 0.33613 0.83516 0.0
H65 H 0.72328 0.30896 0.89142 0.0
H66 H 0.77433 0.34755 0.93914 0.0
H67 H 0.72093 0.46399 0.91326 0.0
H68 H 0.66913 0.42513 0.86586 0.0
H69 H 0.59404 0.27977 0.80085 0.0
H70 H 0.55259 0.22412 0.83428 0.0
H71 H 0.60004 0.27032 0.9585 0.0
H72 H 0.64019 0.32693 0.92553 0.0
H73 H 0.69112 0.3702 0.75643 0.0
H74 H 0.5842 0.37661 0.83294 0.0
O75 O 0.68803 0.30216 0.80826 0.0
H76 H 0.65812 0.4093 0.70076 0.0
H77 H 0.55143 0.41542 0.77756 0.0
C78 C 0.69378 0.3646 0.87408 0.0
C79 C 0.72207 0.34268 0.89667 0.0
C80 C 0.75059 0.36448 0.92443 0.0
C81 C 0.75106 0.4084 0.92966 0.0
C82 C 0.72049 0.42996 0.90993 0.0
C83 C 0.69161 0.40797 0.88229 0.0
C84 C 0.62107 0.30634 0.86062 0.0
C85 C 0.59411 0.27907 0.83539 0.0
C86 C 0.57019 0.2477 0.85443 0.0
C87 C 0.57374 0.24328 0.89862 0.0
C88 C 0.59699 0.27362 0.9243 0.0
C89 C 0.6204 0.30544 0.9053 0.0
C90 C 0.63945 0.36967 0.79791 0.0
C91 C 0.66073 0.38021 0.76126 0.0
C92 C 0.64203 0.4023 0.72966 0.0
C93 C 0.60229 0.41432 0.7351 0.0
C94 C 0.58209 0.40599 0.77297 0.0
C95 C 0.60068 0.38381 0.80437 0.0
P96 P 0.84177 0.64531 0.37054 0.0
H97 H 0.89942 0.71234 0.34634 0.0
H98 H 0.94686 0.76078 0.38857 0.0
H99 H 0.92798 0.68553 0.49872 0.0
H100 H 0.88164 0.63576 0.4555 0.0
H101 H 0.80345 0.62777 0.28622 0.0
H102 H 0.82676 0.59333 0.22098 0.0
H103 H 0.93313 0.55748 0.29052 0.0
H104 H 0.91024 0.59309 0.35554 0.0
H105 H 0.80992 0.66695 0.45332 0.0
H106 H 0.79899 0.56077 0.36255 0.0
O107 O 0.81444 0.6832 0.35211 0.0
H108 H 0.75633 0.63343 0.49542 0.0
H109 H 0.74379 0.52836 0.40295 0.0
C110 C 0.8859 0.67144 0.3982 0.0
C111 C 0.90669 0.70526 0.37908 0.0
C112 C 0.93412 0.73274 0.40323 0.0
C113 C 0.94104 0.72693 0.44703 0.0
C114 C 0.9232 0.69064 0.46505 0.0
C115 C 0.89632 0.66256 0.44047 0.0
C116 C 0.85601 0.61423 0.32509 0.0
C117 C 0.83176 0.61242 0.28744 0.0
C118 C 0.84485 0.59253 0.25032 0.0
C119 C 0.88225 0.57407 0.2506 0.0
C120 C 0.90479 0.57283 0.2893 0.0
C121 C 0.89175 0.59295 0.32639 0.0
C122 C 0.8091 0.61597 0.40536 0.0
C123 C 0.79688 0.6358 0.44317 0.0
C124 C 0.76605 0.61679 0.46704 0.0
C125 C 0.74602 0.5781 0.45279 0.0
C126 C 0.75938 0.55754 0.41561 0.0
C127 C 0.79076 0.57631 0.39213 0.0
P128 P 0.8829 0.89753 0.91268 0.0
H129 H 0.83824 0.89824 0.99198 0.0
H130 H 0.76867 0.91507 0.00933 0.0
H131 H 0.74308 0.93532 0.87627 0.0
H132 H 0.81237 0.91857 0.85908 0.0
H133 H 0.9609 0.87379 0.94629 0.0
H134 H 0.9859 0.80731 0.96769 0.0
H135 H 0.86719 0.7442 0.93842 0.0
H136 H 0.8418 0.81171 0.91758 0.0
H137 H 0.91874 0.96778 0.86598 0.0
H138 H 0.86848 0.84091 0.83562 0.0
O139 O 0.91109 0.93564 0.94036 0.0
H140 H 0.9319 0.97752 0.79086 0.0
H141 H 0.88082 0.85088 0.75938 0.0
C142 C 0.83038 0.90618 0.92415 0.0
C143 C 0.81754 0.90601 0.9665 0.0
C144 C 0.77799 0.91625 0.97649 0.0
C145 C 0.75047 0.92685 0.94421 0.0
C146 C 0.76354 0.92718 0.90181 0.0
C147 C 0.80316 0.91725 0.89192 0.0
C148 C 0.89934 0.84792 0.93066 0.0
C149 C 0.93992 0.8459 0.94497 0.0
C150 C 0.95427 0.80778 0.95714 0.0
C151 C 0.92859 0.77042 0.9547 0.0
C152 C 0.88759 0.77252 0.94108 0.0
C153 C 0.87314 0.81097 0.92892 0.0
C154 C 0.89324 0.90335 0.85665 0.0
C155 C 0.91062 0.94186 0.84317 0.0
C156 C 0.9178 0.94754 0.79998 0.0
C157 C 0.90741 0.91499 0.76898 0.0
C158 C 0.88969 0.87638 0.78247 0.0
C159 C 0.88256 0.87068 0.82599 0.0
P160 P 0.67003 0.17396 0.36755 0.0
H161 H 0.68843 0.24323 0.42957 0.0
H162 H 0.64463 0.29365 0.4625 0.0
H163 H 0.53796 0.21758 0.41462 0.0
H164 H 0.58162 0.16677 0.38214 0.0
H165 H 0.72783 0.1178 0.33565 0.0
H166 H 0.78315 0.0836 0.37055 0.0
H167 H 0.74312 0.1262 0.49398 0.0
H168 H 0.68742 0.16058 0.45897 0.0
H169 H 0.6361 0.19914 0.28745 0.0
H170 H 0.63686 0.08515 0.35699 0.0
O171 O 0.69987 0.21028 0.34407 0.0
H172 H 0.59465 0.16154 0.23031 0.0
H173 H 0.59502 0.04697 0.29907 0.0
C174 C 0.63821 0.20186 0.40277 0.0
C175 C 0.65562 0.23645 0.4277 0.0
C176 C 0.6307 0.26496 0.44684 0.0
C177 C 0.58818 0.25902 0.44118 0.0
C178 C 0.57073 0.22219 0.41988 0.0
C179 C 0.5957 0.19351 0.4009 0.0
C180 C 0.70367 0.14163 0.39469 0.0
C181 C 0.73038 0.11909 0.37024 0.0
C182 C 0.76204 0.09992 0.39008 0.0
C183 C 0.76745 0.1032 0.43467 0.0
C184 C 0.73943 0.12375 0.45948 0.0
C185 C 0.7077 0.14322 0.43948 0.0
C186 C 0.6401 0.14473 0.32595 0.0
C187 C 0.62747 0.16593 0.29031 0.0
C188 C 0.6036 0.14452 0.25786 0.0
C189 C 0.59158 0.10154 0.26061 0.0
C190 C 0.60407 0.08011 0.29639 0.0
C191 C 0.62792 0.10181 0.32924 0.0
P192 P 0.39091 0.61734 0.10597 0.0
H193 H 0.3499 0.59094 0.02342 0.0
H194 H 0.27708 0.57454 0.00356 0.0
H195 H 0.24468 0.61055 0.13181 0.0
H196 H 0.31619 0.62684 0.15146 0.0
H197 H 0.46478 0.66258 0.07621 0.0
H198 H 0.48214 0.73793 0.06737 0.0
H199 H 0.36875 0.76729 0.12385 0.0
H200 H 0.35166 0.69258 0.13311 0.0
H201 H 0.3594 0.54299 0.14808 0.0
H202 H 0.42871 0.6603 0.18366 0.0
O203 O 0.41993 0.58783 0.07589 0.0
H204 H 0.35987 0.52424 0.22295 0.0
H205 H 0.43049 0.64106 0.25766 0.0
C206 C 0.33834 0.60903 0.08911 0.0
C207 C 0.32697 0.59569 0.04697 0.0
C208 C 0.28566 0.58677 0.03558 0.0
C209 C 0.25591 0.59153 0.06634 0.0
C210 C 0.26737 0.60693 0.10771 0.0
C211 C 0.30824 0.61584 0.11894 0.0
C212 C 0.40607 0.67212 0.10329 0.0
C213 C 0.44394 0.68528 0.08712 0.0
C214 C 0.45415 0.72812 0.08287 0.0
C215 C 0.42661 0.75782 0.09505 0.0
C216 C 0.39046 0.74476 0.11471 0.0
C217 C 0.38031 0.70204 0.11895 0.0
C218 C 0.39409 0.60287 0.16037 0.0
C219 C 0.37451 0.56474 0.17199 0.0
C220 C 0.37415 0.55444 0.21469 0.0
C221 C 0.39451 0.58163 0.2461 0.0
C222 C 0.41334 0.62021 0.23438 0.0
C223 C 0.41318 0.63074 0.19178 0.0
P224 P 0.14318 0.34893 0.63785 0.0
H225 H 0.15907 0.28062 0.57901 0.0
H226 H 0.11488 0.22911 0.53766 0.0
H227 H 0.00996 0.29617 0.5724 0.0
H228 H 0.05514 0.34777 0.61497 0.0
H229 H 0.20469 0.41354 0.66889 0.0
H230 H 0.25865 0.45333 0.63196 0.0
H231 H 0.20503 0.407 0.51035 0.0
H232 H 0.15034 0.36822 0.547 0.0
H233 H 0.1041 0.30997 0.70926 0.0
H234 H 0.12149 0.4349 0.66145 0.0
O235 O 0.17572 0.31741 0.65948 0.0
H236 H 0.07121 0.33859 0.77224 0.0
H237 H 0.08882 0.46364 0.72464 0.0
C238 C 0.11013 0.31692 0.60112 0.0
C239 C 0.12665 0.28478 0.57702 0.0
C240 C 0.10125 0.25578 0.55251 0.0
C241 C 0.05866 0.25847 0.55146 0.0
C242 C 0.04259 0.29323 0.5726 0.0
C243 C 0.06827 0.32241 0.59728 0.0
C244 C 0.17366 0.38783 0.61076 0.0
C245 C 0.20351 0.41335 0.63429 0.0
C246 C 0.23422 0.43601 0.61328 0.0
C247 C 0.23554 0.43294 0.56859 0.0
C248 C 0.20413 0.40987 0.54488 0.0
C249 C 0.17308 0.38759 0.56592 0.0
C250 C 0.11566 0.37044 0.68119 0.0
C251 C 0.10056 0.3435 0.71223 0.0
C252 C 0.08176 0.35976 0.74803 0.0
C253 C 0.07784 0.4032 0.75312 0.0
C254 C 0.092 0.43005 0.72141 0.0
C255 C 0.11055 0.41368 0.6854 0.0
O256 O -0.00065 -0.00337 0.62741 0.0
Mg257 Mg 0.04103 0.02819 0.58903 0.0
O258 O 0.9701 0.96002 0.57163 0.0
Mg259 Mg -0.00303 0.98862 0.50765 0.0
O260 O 0.0137 0.05533 0.53872 0.0
O261 O 0.04418 0.09183 0.5949 0.0
O262 O 0.02083 0.01499 0.44165 0.0
O263 O 0.93435 0.01565 0.49766 0.0
Mg264 Mg 0.94677 0.94492 0.4238 0.0
O265 O 0.97962 0.92428 0.47451 0.0
O266 O -0.00514 0.9717 0.38801 0.0
O267 O 0.90228 0.98646 0.43957 0.0
O268 O 0.92878 0.88527 0.4432 0.0
C269 C 0.09415 0.9732 0.54149 0.0
C270 C 0.97355 0.96831 0.61202 0.0
C271 C 0.02445 0.09117 0.55868 0.0
C272 C 0.01889 0.00271 0.4019 0.0
C273 C 0.9038 0.01182 0.47173 0.0
C274 C 0.95525 0.89063 0.47432 0.0
O275 O 0.09397 0.0001 0.57229 0.0
O276 O 0.06261 0.96415 0.51717 0.0
O277 O 0.43487 0.09453 0.01589 0.0
Mg278 Mg 0.49835 0.10892 0.01808 0.0
O279 O 0.43149 0.02411 0.01519 0.0
Mg280 Mg 0.49852 0.00087 0.00325 0.0
O281 O 0.52175 0.06348 0.97716 0.0
O282 O 0.52223 0.06345 0.9764 0.0
O283 O 0.56455 0.98042 0.99194 0.0
O284 O 0.47771 0.9842 0.93077 0.0
Mg285 Mg 0.4908 0.90166 0.9747 0.0
O286 O 0.47882 0.93754 0.0298 0.0
O287 O 0.55628 0.91163 0.97731 0.0
O288 O 0.48375 0.91733 0.91168 0.0
O289 O 0.43009 0.92296 0.98357 0.0
C290 C 0.52072 0.05721 0.09655 0.0
C291 C 0.41428 0.05921 0.01715 0.0
C292 C 0.54294 0.0723 0.94461 0.0
C293 C 0.57935 0.94532 0.98276 0.0
C294 C 0.47567 0.95402 0.90236 0.0
C295 C 0.44285 0.92087 0.02191 0.0
O296 O 0.51452 0.09249 0.08084 0.0
O297 O 0.5182 0.02258 0.07391 0.0
O298 O 0.502 0.59318 0.56658 0.0
Mg299 Mg 0.47132 0.53339 0.56623 0.0
O300 O 0.46514 0.57763 0.50919 0.0
Mg301 Mg 0.48764 0.50671 0.50045 0.0
O302 O 0.50811 0.48595 0.56977 0.0
O303 O 0.47852 0.51598 0.62618 0.0
O304 O 0.50863 0.43514 0.48852 0.0
O305 O 0.55378 0.53848 0.49904 0.0
Mg306 Mg 0.51028 0.48464 0.43559 0.0
O307 O 0.46696 0.52655 0.43164 0.0
O308 O 0.48548 0.42362 0.42292 0.0
O309 O 0.57227 0.48836 0.45644 0.0
O310 O 0.51169 0.51399 0.38056 0.0
C311 C 0.39589 0.49419 0.52602 0.0
C312 C 0.4801 0.60535 0.53686 0.0
C313 C 0.50341 0.49033 0.61071 0.0
C314 C 0.50086 0.40965 0.45615 0.0
C315 C 0.582 0.51881 0.48238 0.0
C316 C 0.47903 0.53026 0.39288 0.0
O317 O 0.40733 0.52469 0.55166 0.0
O318 O 0.42233 0.47614 0.50452 0.0
O319 O 0.03566 0.41865 0.07535 0.0
Mg320 Mg 0.02286 0.47857 0.09362 0.0
O321 O 0.0155 0.43029 0.00981 0.0
Mg322 Mg -0.00255 0.50226 0.00744 0.0
O323 O 0.97477 0.51272 0.07631 0.0
O324 O 0.97428 0.47014 0.13109 0.0
O325 O 0.98047 0.57811 0.00362 0.0
O326 O 0.93238 0.47482 0.99393 0.0
Mg327 Mg 0.978 0.53155 0.94271 0.0
O328 O 0.01817 0.48623 0.93634 0.0
O329 O 0.0066 0.59111 0.942 0.0
O330 O 0.91517 0.52774 0.95784 0.0
O331 O 0.9761 0.50486 0.88354 0.0
C332 C 0.08653 0.53363 0.05921 0.0
C333 C 0.02946 0.40595 0.03721 0.0
C334 C 0.95692 0.49751 0.10937 0.0
C335 C 0.99161 0.60503 0.97576 0.0
C336 C 0.90486 0.49538 0.97775 0.0
C337 C 0.00506 0.48317 0.89669 0.0
O338 O 0.07406 0.52092 0.0948 0.0
O339 O 0.06447 0.52791 0.02489 0.0
C340 C 0.06181 0.09009 0.33324 0.0
C341 C 0.08121 0.06772 0.30077 0.0
C342 C 0.04353 0.06924 0.36741 0.0
C343 C 0.04362 0.02528 0.37 0.0
H344 H 0.06064 0.12393 0.33213 0.0
H345 H 0.02771 0.08734 0.39089 0.0
S346 S 0.09008 0.95223 0.29333 0.0
N347 N 0.09941 -0.00082 0.27374 0.0
N348 N 0.06493 0.96019 0.33752 0.0
C349 C 0.06319 0.00271 0.33799 0.0
C350 C 0.08206 0.02386 0.30355 0.0
C351 C 0.41791 0.9265 0.79873 0.0
C352 C 0.4349 0.9557 0.77056 0.0
C353 C 0.42995 0.92806 0.84184 0.0
C354 C 0.45924 0.95904 0.85883 0.0
H355 H 0.39649 0.90086 0.78704 0.0
H356 H 0.41714 0.90381 0.86187 0.0
S357 S 0.51045 0.0454 0.80017 0.0
N358 N 0.48058 0.01868 0.76362 0.0
N359 N 0.50321 0.02132 0.84535 0.0
C360 C 0.47506 0.98988 0.83192 0.0
C361 C 0.46302 0.98815 0.78756 0.0
C362 C 0.56803 0.47476 0.70846 0.0
C363 C 0.5807 0.43419 0.70093 0.0
C364 C 0.54307 0.49252 0.67864 0.0
C365 C 0.53003 0.47019 0.64046 0.0
H366 H 0.57691 0.49252 0.73793 0.0
H367 H 0.53388 0.52402 0.68562 0.0
S368 S 0.55477 0.36247 0.60645 0.0
N369 N 0.57874 0.37179 0.65332 0.0
N370 N 0.53171 0.40559 0.59652 0.0
C371 C 0.54324 0.42987 0.63209 0.0
C372 C 0.56865 0.4117 0.66265 0.0
C373 C 0.87582 0.53035 0.18196 0.0
C374 C 0.89913 0.55893 0.21008 0.0
C375 C 0.89312 0.51301 0.14538 0.0
C376 C 0.93353 0.52513 0.13548 0.0
H377 H 0.84496 0.51955 0.18962 0.0
H378 H 0.87581 0.48833 0.12634 0.0
S379 S 0.00611 0.60077 0.1965 0.0
N380 N 0.96389 0.59999 0.22394 0.0
N381 N -0.00442 0.56842 0.15453 0.0
C382 C 0.95595 0.5558 0.1615 0.0
C383 C 0.939 0.57239 0.19915 0.0
C384 C 0.31563 0.10954 0.03508 0.0
C385 C 0.29431 0.08167 0.06147 0.0
C386 C 0.35235 0.09959 0.01715 0.0
C387 C 0.36995 0.06151 0.02535 0.0
H388 H 0.30509 0.14053 0.0304 0.0
H389 H 0.36849 0.12347 -0.00092 0.0
S390 S 0.32147 0.97392 0.085 0.0
N391 N 0.28947 0.01151 0.08936 0.0
N392 N 0.35936 0.99274 0.05598 0.0
C393 C 0.34672 0.03135 0.04795 0.0
C394 C 0.30876 0.04152 0.06609 0.0
C395 C 0.18512 0.90893 0.55116 0.0
C396 C 0.21647 0.93707 0.537 0.0
C397 C 0.14414 0.91876 0.54887 0.0
C398 C 0.13348 0.95666 0.53182 0.0
H399 H 0.19256 0.88057 0.56664 0.0
H400 H 0.12112 0.89807 0.56304 0.0
S401 S 0.20321 0.03804 0.48551 0.0
N402 N 0.23338 0.00208 0.50131 0.0
N403 N 0.15652 0.02058 0.49747 0.0
C404 C 0.1641 0.98347 0.51492 0.0
C405 C 0.20562 0.97364 0.51733 0.0
C406 C 0.82265 0.42953 0.9177 0.0
C407 C 0.78921 0.43149 0.9444 0.0
C408 C 0.85998 0.45069 0.9293 0.0
C409 C 0.86501 0.47414 0.96808 0.0
H410 H 0.81978 0.41167 0.88739 0.0
H411 H 0.88515 0.44872 0.90779 0.0
S412 S 0.78682 0.49012 0.04874 0.0
N413 N 0.76279 0.45945 0.01068 0.0
N414 N 0.83431 0.4989 0.03327 0.0
C415 C 0.83208 0.47652 -0.00468 0.0
C416 C 0.7936 0.45525 0.98317 0.0
C417 C 0.67687 0.59149 0.47897 0.0
C418 C 0.70714 0.56297 0.47193 0.0
C419 C 0.63658 0.57718 0.48682 0.0
C420 C 0.62527 0.53392 0.48736 0.0
H421 H 0.68347 0.62489 0.47504 0.0
H422 H 0.61362 0.59989 0.48871 0.0
S423 S 0.6944 0.44707 0.48092 0.0
N424 N 0.72434 0.49006 0.47404 0.0
N425 N 0.64824 0.46309 0.48766 0.0
C426 C 0.65587 0.50539 0.48476 0.0
C427 C 0.69695 0.51993 0.47724 0.0
C428 C 0.034 0.29074 0.04686 0.0
C429 C 0.07644 0.28767 0.0506 0.0
C430 C 0.01777 0.32832 0.0347 0.0
C431 C 0.04347 0.36406 0.02616 0.0
H432 H 0.01332 0.26518 0.05678 0.0
H433 H 0.98516 0.33086 0.03664 0.0
S434 S 0.15657 0.37122 0.02883 0.0
N435 N 0.14365 0.32243 0.04188 0.0
N436 N 0.11325 0.39293 0.01949 0.0
C437 C 0.0858 0.36002 0.02622 0.0
C438 C 0.1023 0.32187 0.03851 0.0
C439 C 0.59673 0.17516 0.91867 0.0
C440 C 0.56448 0.20152 0.91475 0.0
C441 C 0.58919 0.13278 0.92735 0.0
C442 C 0.54933 0.11603 0.9331 0.0
H443 H 0.62787 0.18717 0.91366 0.0
H444 H 0.61467 0.11318 0.93007 0.0
S445 S 0.45451 0.17215 0.92567 0.0
N446 N 0.49152 0.20838 0.9167 0.0
N447 N 0.47701 0.1283 0.93367 0.0
C448 C 0.51675 0.14215 0.92956 0.0
C449 C 0.52445 0.1852 0.92026 0.0
C450 C 0.93148 0.78294 0.50217 0.0
C451 C 0.95803 0.76357 0.47425 0.0
C452 C 0.93602 0.82654 0.51132 0.0
C453 C 0.96721 0.85164 0.49286 0.0
H454 H 0.90375 0.76578 0.5117 0.0
H455 H 0.91134 0.8413 0.52691 0.0
S456 S 0.05242 0.81356 0.43085 0.0
N457 N 0.02241 0.7707 0.43811 0.0
N458 N 0.03125 0.8526 0.45612 0.0
C459 C -0.00151 0.83129 0.4728 0.0
C460 C -0.0064 0.78707 0.46284 0.0
C461 C 0.44055 0.71088 0.51105 0.0
C462 C 0.43509 0.72929 0.55206 0.0
C463 C 0.45455 0.67035 0.50588 0.0
C464 C 0.46421 0.6474 0.54158 0.0
H465 H 0.4341 0.72801 0.4828 0.0
H466 H 0.4587 0.65736 0.47392 0.0
S467 S 0.45265 0.68015 0.65564 0.0
N468 N 0.43899 0.72054 0.62877 0.0
N469 N 0.46455 0.64461 0.61917 0.0
C470 C 0.45776 0.665 0.58264 0.0
C471 C 0.44336 0.70588 0.58786 0.0
C472 C 0.90607 0.96065 0.70585 0.0
C473 C 0.91573 0.92236 0.72311 0.0
C474 C 0.92125 0.97312 0.66661 0.0
C475 C 0.94624 0.94763 0.6427 0.0
H476 H 0.88865 0.98238 0.72406 0.0
H477 H 0.91588 0.0044 0.65642 0.0
S478 S 0.9763 0.84215 0.67033 0.0
N479 N 0.94869 0.8571 0.71081 0.0
N480 N 0.97674 0.88069 0.63662 0.0
C481 C 0.95318 0.90772 0.65747 0.0
C482 C 0.93792 0.89498 0.69775 0.0
C483 C 0.58313 0.04933 0.19846 0.0
C484 C 0.56665 0.08012 0.22505 0.0
C485 C 0.56567 0.0383 0.15764 0.0
C486 C 0.5315 0.05803 0.14259 0.0
H487 H 0.61151 0.03644 0.20772 0.0
H488 H 0.58101 0.01717 0.13654 0.0
S489 S 0.47217 0.13343 0.20394 0.0
N490 N 0.51068 0.12459 0.23647 0.0
N491 N 0.47793 0.10409 0.1601 0.0
C492 C 0.51235 0.08524 0.17087 0.0
C493 C 0.52994 0.09626 0.21211 0.0
C494 C 0.42387 0.52709 0.28746 0.0
C495 C 0.40554 0.56549 0.28776 0.0
C496 C 0.44623 0.51583 0.3227 0.0
C497 C 0.45086 0.5423 0.35966 0.0
H498 H 0.42392 0.50703 0.25865 0.0
H499 H 0.4614 0.48674 0.32031 0.0
S500 S 0.40167 0.64178 0.38008 0.0
N501 N 0.38798 0.6271 0.33017 0.0
N502 N 0.43034 0.60515 0.39757 0.0
C503 C 0.42937 0.57868 0.36236 0.0
C504 C 0.40664 0.59053 0.32597 0.0
C505 C 0.08212 0.45236 0.81733 0.0
C506 C 0.05986 0.42068 0.79196 0.0
C507 C 0.06513 0.47058 0.85351 0.0
C508 C 0.02525 0.45799 0.86482 0.0
H509 H 0.11265 0.46345 0.80879 0.0
H510 H 0.08247 0.49599 0.87149 0.0
S511 S 0.95466 0.37602 0.80968 0.0
N512 N -0.00356 0.37669 0.78145 0.0
N513 N 0.96412 0.41191 0.84901 0.0
C514 C 0.00295 0.42593 0.84032 0.0
C515 C 0.02041 0.40691 0.80395 0.0
C516 C 0.67542 0.91128 0.93073 0.0
C517 C 0.70732 0.93439 0.95403 0.0
C518 C 0.63448 0.91538 0.94049 0.0
C519 C 0.62342 0.94336 0.97349 0.0
H520 H 0.68217 0.88895 0.90531 0.0
H521 H 0.61118 0.89642 0.92177 0.0
S522 S 0.69519 0.01339 0.04246 0.0
N523 N 0.72513 0.98762 0.0107 0.0
N524 N 0.64789 -0.00396 0.02843 0.0
C525 C 0.6549 0.96781 -0.00377 0.0
C526 C 0.69687 0.96305 0.98676 0.0
C527 C 0.79928 0.05031 0.47848 0.0
C528 C 0.80361 0.08637 0.45424 0.0
C529 C 0.8332 0.02778 0.48811 0.0
C530 C 0.87212 0.04143 0.47448 0.0
H531 H 0.76924 0.0377 0.48705 0.0
H532 H 0.82858 -0.00188 0.50363 0.0
S533 S 0.89976 0.13644 0.41451 0.0
N534 N 0.84993 0.13668 0.42012 0.0
N535 N 0.91376 0.09461 0.43893 0.0
C536 C 0.87722 0.07923 0.45337 0.0
C537 C 0.84282 0.10175 0.44308 0.0
C538 C 0.19957 0.53958 0.08023 0.0
C539 C 0.21356 0.57503 0.05834 0.0
C540 C 0.15828 0.52643 0.07965 0.0
C541 C 0.12962 0.54816 0.05696 0.0
H542 H 0.22065 0.52272 0.09907 0.0
H543 H 0.14865 0.49918 0.09747 0.0
S544 S 0.15119 0.64208 0.99329 0.0
N545 N 0.19638 0.63126 0.01263 0.0
N546 N 0.11792 0.60573 0.0107 0.0
C547 C 0.14331 0.58267 0.03343 0.0
C548 C 0.18562 0.59638 0.03438 0.0
C549 C 0.28241 0.48961 0.54068 0.0
C550 C 0.27351 0.4469 0.54817 0.0
C551 C 0.32188 0.50439 0.53003 0.0
C552 C 0.35331 0.4768 0.52653 0.0
H553 H 0.25939 0.51192 0.54531 0.0
H554 H 0.3284 0.5379 0.52662 0.0
S555 S 0.34461 0.36199 0.54274 0.0
N556 N 0.29827 0.37709 0.55061 0.0
N557 N 0.3725 0.40474 0.53027 0.0
C558 C 0.34405 0.43365 0.53171 0.0
C559 C 0.30403 0.41873 0.54277 0.0
C560 C 0.92903 0.70109 0.99209 0.0
C561 C 0.94601 0.72922 0.96262 0.0
C562 C 0.94559 0.66202 -0.00109 0.0
C563 C 0.97954 0.64954 0.97623 0.0
H564 H 0.90258 0.70918 0.00971 0.0
H565 H 0.93061 0.64077 0.02064 0.0
S566 S 0.03469 0.71201 0.89498 0.0
N567 N -0.00188 0.74156 0.91034 0.0
N568 N 0.0298 0.66968 0.92353 0.0
C569 C -0.00285 0.67814 0.9474 0.0
C570 C 0.98021 0.71742 0.94041 0.0
C571 C 0.43653 0.83648 0.10351 0.0
C572 C 0.43005 0.79962 0.07731 0.0
C573 C 0.43897 0.87617 0.0855 0.0
C574 C 0.43371 0.87984 0.04112 0.0
H575 H 0.44052 0.8345 0.13778 0.0
H576 H 0.44567 0.90408 0.10619 0.0
S577 S 0.41357 0.79127 0.95988 0.0
N578 N 0.41705 0.76845 0.00594 0.0
N579 N 0.42025 0.84227 0.97176 0.0
C580 C 0.42558 0.84269 0.01502 0.0
C581 C 0.42413 0.80273 0.03328 0.0
C582 C 0.00571 0.2034 0.56943 0.0
C583 C 0.03221 0.21989 0.53875 0.0
C584 C -0.00292 0.15992 0.57134 0.0
C585 C 0.01429 0.13182 0.54247 0.0
H586 H -0.0035 0.22322 0.59588 0.0
H587 H 0.98144 0.14812 0.59893 0.0
S588 S 0.0723 0.16012 0.44701 0.0
N589 N 0.06503 0.20582 0.47151 0.0
N590 N 0.04961 0.12357 0.47597 0.0
C591 C 0.03404 0.14816 0.50705 0.0
C592 C 0.04266 0.19258 0.50489 0.0
C593 C 0.54351 0.30574 0.48276 0.0
C594 C 0.56406 0.29592 0.44531 0.0
C595 C 0.52225 0.34248 0.48623 0.0
C596 C 0.52069 0.3697 0.45213 0.0
H597 H 0.54437 0.28533 0.5095 0.0
H598 H 0.50701 0.34965 0.51558 0.0
S599 S 0.57212 0.35819 0.3484 0.0
N600 N 0.5831 0.31633 0.37448 0.0
N601 N 0.54332 0.3849 0.38046 0.0
C602 C 0.54134 0.35981 0.41456 0.0
C603 C 0.56302 0.32296 0.41131 0.0
loop_
_geom_bond_atom_site_label_1
_geom_bond_atom_site_label_2
_geom_bond_distance
_geom_bond_site_symmetry_2
_ccdc_geom_bond_type
P0 O11 1.490 . S
P0 C14 1.812 . S
P0 C20 1.803 . S
P0 C26 1.819 . S
H1 C15 0.941 . S
H2 C16 0.939 . S
H3 C18 0.940 . S
H4 C19 0.940 . S
H5 C21 0.939 . S
H6 C22 0.942 . S
H7 C24 0.940 . S
H8 C25 0.939 . S
H9 C27 0.941 . S
H10 C31 0.939 . S
O11 P0 1.490 . S
H12 C28 0.939 . S
H13 C30 0.940 . S
C14 P0 1.812 . S
C14 C15 1.389 . S
C14 C19 1.391 . S
C15 H1 0.941 . S
C15 C14 1.389 . S
C15 C16 1.397 . S
C16 H2 0.939 . S
C16 C15 1.397 . S
C16 C17 1.378 . S
C17 C16 1.378 . S
C17 C18 1.378 . S
C18 H3 0.940 . S
C18 C17 1.378 . S
C18 C19 1.396 . S
C19 H4 0.940 . S
C19 C14 1.391 . S
C19 C18 1.396 . S
C20 P0 1.803 . S
C20 C21 1.378 . S
C20 C25 1.400 . S
C21 H5 0.939 . S
C21 C20 1.378 . S
C21 C22 1.361 . S
C22 H6 0.942 . S
C22 C21 1.361 . S
C22 C23 1.369 . S
C23 C22 1.369 . S
C23 C24 1.404 . S
C24 H7 0.940 . S
C24 C23 1.404 . S
C24 C25 1.389 . S
C25 H8 0.939 . S
C25 C20 1.400 . S
C25 C24 1.389 . S
C26 P0 1.819 . S
C26 C27 1.391 . S
C26 C31 1.391 . S
C27 H9 0.941 . S
C27 C26 1.391 . S
C27 C28 1.396 . S
C28 H12 0.939 . S
C28 C27 1.396 . S
C28 C29 1.397 . S
C29 C28 1.397 . S
C29 C30 1.385 . S
C30 H13 0.940 . S
C30 C29 1.385 . S
C30 C31 1.388 . S
C31 H10 0.939 . S
C31 C26 1.391 . S
C31 C30 1.388 . S
P32 O43 1.490 . S
P32 C46 1.812 . S
P32 C52 1.803 . S
P32 C58 1.819 . S
H33 C47 0.941 . S
H34 C48 0.939 . S
H35 C50 0.940 . S
H36 C51 0.940 . S
H37 C53 0.939 . S
H38 C54 0.942 . S
H39 C56 0.940 . S
H40 C57 0.939 . S
H41 C59 0.941 . S
H42 C63 0.939 . S
O43 P32 1.490 . S
H44 C60 0.939 . S
H45 C62 0.940 . S
C46 P32 1.812 . S
C46 C47 1.389 . S
C46 C51 1.391 . S
C47 H33 0.941 . S
C47 C46 1.389 . S
C47 C48 1.397 . S
C48 H34 0.939 . S
C48 C47 1.397 . S
C48 C49 1.378 . S
C49 C48 1.378 . S
C49 C50 1.378 . S
C50 H35 0.940 . S
C50 C49 1.378 . S
C50 C51 1.396 . S
C51 H36 0.940 . S
C51 C46 1.391 . S
C51 C50 1.396 . S
C52 P32 1.803 . S
C52 C53 1.378 . S
C52 C57 1.400 . S
C53 H37 0.939 . S
C53 C52 1.378 . S
C53 C54 1.361 . S
C54 H38 0.942 . S
C54 C53 1.361 . S
C54 C55 1.369 . S
C55 C54 1.369 . S
C55 C56 1.404 . S
C56 H39 0.940 . S
C56 C55 1.404 . S
C56 C57 1.389 . S
C57 H40 0.939 . S
C57 C52 1.400 . S
C57 C56 1.389 . S
C58 P32 1.819 . S
C58 C59 1.391 . S
C58 C63 1.391 . S
C59 H41 0.941 . S
C59 C58 1.391 . S
C59 C60 1.396 . S
C60 H44 0.939 . S
C60 C59 1.396 . S
C60 C61 1.397 . S
C61 C60 1.397 . S
C61 C62 1.385 . S
C62 H45 0.940 . S
C62 C61 1.385 . S
C62 C63 1.388 . S
C63 H42 0.939 . S
C63 C58 1.391 . S
C63 C62 1.388 . S
P64 O75 1.490 . S
P64 C78 1.812 . S
P64 C84 1.803 . S
P64 C90 1.819 . S
H65 C79 0.941 . S
H66 C80 0.939 . S
H67 C82 0.940 . S
H68 C83 0.940 . S
H69 C85 0.939 . S
H70 C86 0.942 . S
H71 C88 0.940 . S
H72 C89 0.939 . S
H73 C91 0.941 . S
H74 C95 0.939 . S
O75 P64 1.490 . S
H76 C92 0.939 . S
H77 C94 0.940 . S
C78 P64 1.812 . S
C78 C79 1.389 . S
C78 C83 1.391 . S
C79 H65 0.941 . S
C79 C78 1.389 . S
C79 C80 1.397 . S
C80 H66 0.939 . S
C80 C79 1.397 . S
C80 C81 1.378 . S
C81 C80 1.378 . S
C81 C82 1.378 . S
C82 H67 0.940 . S
C82 C81 1.378 . S
C82 C83 1.396 . S
C83 H68 0.940 . S
C83 C78 1.391 . S
C83 C82 1.396 . S
C84 P64 1.803 . S
C84 C85 1.378 . S
C84 C89 1.400 . S
C85 H69 0.939 . S
C85 C84 1.378 . S
C85 C86 1.361 . S
C86 H70 0.942 . S
C86 C85 1.361 . S
C86 C87 1.369 . S
C87 C86 1.369 . S
C87 C88 1.404 . S
C88 H71 0.940 . S
C88 C87 1.404 . S
C88 C89 1.389 . S
C89 H72 0.939 . S
C89 C84 1.400 . S
C89 C88 1.389 . S
C90 P64 1.819 . S
C90 C91 1.391 . S
C90 C95 1.391 . S
C91 H73 0.941 . S
C91 C90 1.391 . S
C91 C92 1.396 . S
C92 H76 0.939 . S
C92 C91 1.396 . S
C92 C93 1.397 . S
C93 C92 1.397 . S
C93 C94 1.385 . S
C94 H77 0.940 . S
C94 C93 1.385 . S
C94 C95 1.388 . S
C95 H74 0.939 . S
C95 C90 1.391 . S
C95 C94 1.388 . S
P96 O107 1.490 . S
P96 C110 1.812 . S
P96 C116 1.803 . S
P96 C122 1.819 . S
H97 C111 0.941 . S
H98 C112 0.939 . S
H99 C114 0.940 . S
H100 C115 0.940 . S
H101 C117 0.939 . S
H102 C118 0.942 . S
H103 C120 0.940 . S
H104 C121 0.939 . S
H105 C123 0.941 . S
H106 C127 0.939 . S
O107 P96 1.490 . S
H108 C124 0.939 . S
H109 C126 0.940 . S
C110 P96 1.812 . S
C110 C111 1.389 . S
C110 C115 1.391 . S
C111 H97 0.941 . S
C111 C110 1.389 . S
C111 C112 1.397 . S
C112 H98 0.939 . S
C112 C111 1.397 . S
C112 C113 1.378 . S
C113 C112 1.378 . S
C113 C114 1.378 . S
C114 H99 0.940 . S
C114 C113 1.378 . S
C114 C115 1.396 . S
C115 H100 0.940 . S
C115 C110 1.391 . S
C115 C114 1.396 . S
C116 P96 1.803 . S
C116 C117 1.378 . S
C116 C121 1.400 . S
C117 H101 0.939 . S
C117 C116 1.378 . S
C117 C118 1.361 . S
C118 H102 0.942 . S
C118 C117 1.361 . S
C118 C119 1.369 . S
C119 C118 1.369 . S
C119 C120 1.404 . S
C120 H103 0.940 . S
C120 C119 1.404 . S
C120 C121 1.389 . S
C121 H104 0.939 . S
C121 C116 1.400 . S
C121 C120 1.389 . S
C122 P96 1.819 . S
C122 C123 1.391 . S
C122 C127 1.391 . S
C123 H105 0.941 . S
C123 C122 1.391 . S
C123 C124 1.396 . S
C124 H108 0.939 . S
C124 C123 1.396 . S
C124 C125 1.397 . S
C125 C124 1.397 . S
C125 C126 1.385 . S
C126 H109 0.940 . S
C126 C125 1.385 . S
C126 C127 1.388 . S
C127 H106 0.939 . S
C127 C122 1.391 . S
C127 C126 1.388 . S
P128 O139 1.490 . S
P128 C142 1.812 . S
P128 C148 1.803 . S
P128 C154 1.819 . S
H129 C143 0.941 . S
H130 C144 0.939 . S
H131 C146 0.940 . S
H132 C147 0.940 . S
H133 C149 0.939 . S
H134 C150 0.942 . S
H135 C152 0.940 . S
H136 C153 0.939 . S
H137 C155 0.941 . S
H138 C159 0.939 . S
O139 P128 1.490 . S
H140 C156 0.939 . S
H141 C158 0.940 . S
C142 P128 1.812 . S
C142 C143 1.389 . S
C142 C147 1.391 . S
C143 H129 0.941 . S
C143 C142 1.389 . S
C143 C144 1.397 . S
C144 H130 0.939 . S
C144 C143 1.397 . S
C144 C145 1.378 . S
C145 C144 1.378 . S
C145 C146 1.378 . S
C146 H131 0.940 . S
C146 C145 1.378 . S
C146 C147 1.396 . S
C147 H132 0.940 . S
C147 C142 1.391 . S
C147 C146 1.396 . S
C148 P128 1.803 . S
C148 C149 1.378 . S
C148 C153 1.400 . S
C149 H133 0.939 . S
C149 C148 1.378 . S
C149 C150 1.361 . S
C150 H134 0.942 . S
C150 C149 1.361 . S
C150 C151 1.369 . S
C151 C150 1.369 . S
C151 C152 1.404 . S
C152 H135 0.940 . S
C152 C151 1.404 . S
C152 C153 1.389 . S
C153 H136 0.939 . S
C153 C148 1.400 . S
C153 C152 1.389 . S
C154 P128 1.819 . S
C154 C155 1.391 . S
C154 C159 1.391 . S
C155 H137 0.941 . S
C155 C154 1.391 . S
C155 C156 1.396 . S
C156 H140 0.939 . S
C156 C155 1.396 . S
C156 C157 1.397 . S
C157 C156 1.397 . S
C157 C158 1.385 . S
C158 H141 0.940 . S
C158 C157 1.385 . S
C158 C159 1.388 . S
C159 H138 0.939 . S
C159 C154 1.391 . S
C159 C158 1.388 . S
P160 O171 1.490 . S
P160 C174 1.812 . S
P160 C180 1.803 . S
P160 C186 1.819 . S
H161 C175 0.941 . S
H162 C176 0.939 . S
H163 C178 0.940 . S
H164 C179 0.940 . S
H165 C181 0.939 . S
H166 C182 0.942 . S
H167 C184 0.940 . S
H168 C185 0.939 . S
H169 C187 0.941 . S
H170 C191 0.939 . S
O171 P160 1.490 . S
H172 C188 0.939 . S
H173 C190 0.940 . S
C174 P160 1.812 . S
C174 C175 1.389 . S
C174 C179 1.391 . S
C175 H161 0.941 . S
C175 C174 1.389 . S
C175 C176 1.397 . S
C176 H162 0.939 . S
C176 C175 1.397 . S
C176 C177 1.378 . S
C177 C176 1.378 . S
C177 C178 1.378 . S
C178 H163 0.940 . S
C178 C177 1.378 . S
C178 C179 1.396 . S
C179 H164 0.940 . S
C179 C174 1.391 . S
C179 C178 1.396 . S
C180 P160 1.803 . S
C180 C181 1.378 . S
C180 C185 1.400 . S
C181 H165 0.939 . S
C181 C180 1.378 . S
C181 C182 1.361 . S
C182 H166 0.942 . S
C182 C181 1.361 . S
C182 C183 1.369 . S
C183 C182 1.369 . S
C183 C184 1.404 . S
C184 H167 0.940 . S
C184 C183 1.404 . S
C184 C185 1.389 . S
C185 H168 0.939 . S
C185 C180 1.400 . S
C185 C184 1.389 . S
C186 P160 1.819 . S
C186 C187 1.391 . S
C186 C191 1.391 . S
C187 H169 0.941 . S
C187 C186 1.391 . S
C187 C188 1.396 . S
C188 H172 0.939 . S
C188 C187 1.396 . S
C188 C189 1.397 . S
C189 C188 1.397 . S
C189 C190 1.385 . S
C190 H173 0.940 . S
C190 C189 1.385 . S
C190 C191 1.388 . S
C191 H170 0.939 . S
C191 C186 1.391 . S
C191 C190 1.388 . S
P192 O203 1.490 . S
P192 C206 1.812 . S
P192 C212 1.803 . S
P192 C218 1.819 . S
H193 C207 0.941 . S
H194 C208 0.939 . S
H195 C210 0.940 . S
H196 C211 0.940 . S
H197 C213 0.939 . S
H198 C214 0.942 . S
H199 C216 0.940 . S
H200 C217 0.939 . S
H201 C219 0.941 . S
H202 C223 0.939 . S
O203 P192 1.490 . S
H204 C220 0.939 . S
H205 C222 0.940 . S
C206 P192 1.812 . S
C206 C207 1.389 . S
C206 C211 1.391 . S
C207 H193 0.941 . S
C207 C206 1.389 . S
C207 C208 1.397 . S
C208 H194 0.939 . S
C208 C207 1.397 . S
C208 C209 1.378 . S
C209 C208 1.378 . S
C209 C210 1.378 . S
C210 H195 0.940 . S
C210 C209 1.378 . S
C210 C211 1.396 . S
C211 H196 0.940 . S
C211 C206 1.391 . S
C211 C210 1.396 . S
C212 P192 1.803 . S
C212 C213 1.378 . S
C212 C217 1.400 . S
C213 H197 0.939 . S
C213 C212 1.378 . S
C213 C214 1.361 . S
C214 H198 0.942 . S
C214 C213 1.361 . S
C214 C215 1.369 . S
C215 C214 1.369 . S
C215 C216 1.404 . S
C216 H199 0.940 . S
C216 C215 1.404 . S
C216 C217 1.389 . S
C217 H200 0.939 . S
C217 C212 1.400 . S
C217 C216 1.389 . S
C218 P192 1.819 . S
C218 C219 1.391 . S
C218 C223 1.391 . S
C219 H201 0.941 . S
C219 C218 1.391 . S
C219 C220 1.396 . S
C220 H204 0.939 . S
C220 C219 1.396 . S
C220 C221 1.397 . S
C221 C220 1.397 . S
C221 C222 1.385 . S
C222 H205 0.940 . S
C222 C221 1.385 . S
C222 C223 1.388 . S
C223 H202 0.939 . S
C223 C218 1.391 . S
C223 C222 1.388 . S
P224 O235 1.490 . S
P224 C238 1.812 . S
P224 C244 1.803 . S
P224 C250 1.819 . S
H225 C239 0.941 . S
H226 C240 0.939 . S
H227 C242 0.940 . S
H228 C243 0.940 . S
H229 C245 0.939 . S
H230 C246 0.942 . S
H231 C248 0.940 . S
H232 C249 0.939 . S
H233 C251 0.941 . S
H234 C255 0.939 . S
O235 P224 1.490 . S
H236 C252 0.939 . S
H237 C254 0.940 . S
C238 P224 1.812 . S
C238 C239 1.389 . S
C238 C243 1.391 . S
C239 H225 0.941 . S
C239 C238 1.389 . S
C239 C240 1.397 . S
C240 H226 0.939 . S
C240 C239 1.397 . S
C240 C241 1.378 . S
C241 C240 1.378 . S
C241 C242 1.378 . S
C242 H227 0.940 . S
C242 C241 1.378 . S
C242 C243 1.396 . S
C243 H228 0.940 . S
C243 C238 1.391 . S
C243 C242 1.396 . S
C244 P224 1.803 . S
C244 C245 1.378 . S
C244 C249 1.400 . S
C245 H229 0.939 . S
C245 C244 1.378 . S
C245 C246 1.361 . S
C246 H230 0.942 . S
C246 C245 1.361 . S
C246 C247 1.369 . S
C247 C246 1.369 . S
C247 C248 1.404 . S
C248 H231 0.940 . S
C248 C247 1.404 . S
C248 C249 1.389 . S
C249 H232 0.939 . S
C249 C244 1.400 . S
C249 C248 1.389 . S
C250 P224 1.819 . S
C250 C251 1.391 . S
C250 C255 1.391 . S
C251 H233 0.941 . S
C251 C250 1.391 . S
C251 C252 1.396 . S
C252 H236 0.939 . S
C252 C251 1.396 . S
C252 C253 1.397 . S
C253 C252 1.397 . S
C253 C254 1.385 . S
C254 H237 0.940 . S
C254 C253 1.385 . S
C254 C255 1.388 . S
C255 H234 0.939 . S
C255 C250 1.391 . S
C255 C254 1.388 . S
O256 Mg257 1.990 . S
O256 C270 1.253 1_445 S
Mg257 O256 1.990 . S
Mg257 O260 2.180 . S
Mg257 O261 2.117 . S
Mg257 O275 2.030 1_545 S
O258 Mg259 2.072 1_665 S
O258 C270 1.260 . S
Mg259 O258 2.072 1_445 S
Mg259 O260 2.099 . S
Mg259 O262 2.079 . S
Mg259 O263 2.072 1_455 S
Mg259 O265 2.099 1_445 S
Mg259 O276 2.079 1_545 S
O260 Mg257 2.180 . S
O260 Mg259 2.099 . S
O260 C271 1.279 . S
O261 Mg257 2.117 . S
O261 C271 1.250 . S
O262 Mg259 2.079 . S
O262 C272 1.264 . S
O263 Mg259 2.072 1_655 S
O263 C273 1.260 . S
Mg264 O265 2.180 . S
Mg264 O266 2.030 1_565 S
Mg264 O267 1.990 1_565 S
Mg264 O268 2.117 . S
O265 Mg259 2.099 1_665 S
O265 Mg264 2.180 . S
O265 C274 1.279 . S
O266 Mg264 2.030 1_545 S
O266 C272 1.248 1_655 S
O267 Mg264 1.990 1_545 S
O267 C273 1.253 . S
O268 Mg264 2.117 . S
O268 C274 1.250 . S
C269 O275 1.248 . S
C269 O276 1.264 . S
C270 O256 1.253 1_665 S
C270 O258 1.260 . S
C271 O260 1.279 . S
C271 O261 1.250 . S
C272 O262 1.264 . S
C272 O266 1.248 1_455 S
C273 O263 1.260 . S
C273 O267 1.253 . S
C274 O265 1.279 . S
C274 O268 1.250 . S
O275 Mg257 2.030 1_565 S
O275 C269 1.248 . S
O276 Mg259 2.079 1_565 S
O276 C269 1.264 . S
O277 Mg278 1.990 . S
O277 C291 1.253 . S
Mg278 O277 1.990 . S
Mg278 O281 2.180 . S
Mg278 O282 2.117 1_554 S
Mg278 O296 2.030 . S
O279 Mg280 2.072 . S
O279 C291 1.260 . S
Mg280 O279 2.072 . S
Mg280 O281 2.099 . S
Mg280 O283 2.079 1_544 S
Mg280 O284 2.072 1_554 S
Mg280 O286 2.099 1_545 S
Mg280 O297 2.079 . S
O281 Mg278 2.180 . S
O281 Mg280 2.099 . S
O281 C292 1.279 1_554 S
O282 Mg278 2.117 1_556 S
O282 C292 1.250 . S
O283 Mg280 2.079 1_566 S
O283 C293 1.264 . S
O284 Mg280 2.072 1_556 S
O284 C294 1.260 1_545 S
Mg285 O286 2.180 1_556 S
Mg285 O287 2.030 . S
Mg285 O288 1.990 . S
Mg285 O289 2.117 1_556 S
O286 Mg280 2.099 1_565 S
O286 Mg285 2.180 1_554 S
O286 C295 1.279 . S
O287 Mg285 2.030 . S
O287 C293 1.248 . S
O288 Mg285 1.990 . S
O288 C294 1.253 . S
O289 Mg285 2.117 1_554 S
O289 C295 1.250 . S
C290 O296 1.248 . S
C290 O297 1.264 . S
C291 O277 1.253 . S
C291 O279 1.260 . S
C292 O281 1.279 1_556 S
C292 O282 1.250 . S
C293 O283 1.264 . S
C293 O287 1.248 . S
C294 O284 1.260 1_565 S
C294 O288 1.253 . S
C295 O286 1.279 . S
C295 O289 1.250 . S
O296 Mg278 2.030 . S
O296 C290 1.248 . S
O297 Mg280 2.079 . S
O297 C290 1.264 . S
O298 Mg299 1.990 . S
O298 C312 1.253 . S
Mg299 O298 1.990 . S
Mg299 O302 2.180 . S
Mg299 O303 2.117 . S
Mg299 O317 2.030 . S
O300 Mg301 2.072 . S
O300 C312 1.260 . S
Mg301 O300 2.072 . S
Mg301 O302 2.099 . S
Mg301 O304 2.079 . S
Mg301 O305 2.072 . S
Mg301 O307 2.099 . S
Mg301 O318 2.079 . S
O302 Mg299 2.180 . S
O302 Mg301 2.099 . S
O302 C313 1.279 . S
O303 Mg299 2.117 . S
O303 C313 1.250 . S
O304 Mg301 2.079 . S
O304 C314 1.264 . S
O305 Mg301 2.072 . S
O305 C315 1.260 . S
Mg306 O307 2.180 . S
Mg306 O308 2.030 . S
Mg306 O309 1.990 . S
Mg306 O310 2.117 . S
O307 Mg301 2.099 . S
O307 Mg306 2.180 . S
O307 C316 1.279 . S
O308 Mg306 2.030 . S
O308 C314 1.248 . S
O309 Mg306 1.990 . S
O309 C315 1.253 . S
O310 Mg306 2.117 . S
O310 C316 1.250 . S
C311 O317 1.248 . S
C311 O318 1.264 . S
C312 O298 1.253 . S
C312 O300 1.260 . S
C313 O302 1.279 . S
C313 O303 1.250 . S
C314 O304 1.264 . S
C314 O308 1.248 . S
C315 O305 1.260 . S
C315 O309 1.253 . S
C316 O307 1.279 . S
C316 O310 1.250 . S
O317 Mg299 2.030 . S
O317 C311 1.248 . S
O318 Mg301 2.079 . S
O318 C311 1.264 . S
O319 Mg320 1.990 . S
O319 C333 1.253 . S
Mg320 O319 1.990 . S
Mg320 O323 2.180 1_455 S
Mg320 O324 2.117 1_455 S
Mg320 O338 2.030 . S
O321 Mg322 2.072 . S
O321 C333 1.260 . S
Mg322 O321 2.072 . S
Mg322 O323 2.099 1_455 S
Mg322 O325 2.079 1_454 S
Mg322 O326 2.072 1_455 S
Mg322 O328 2.099 1_554 S
Mg322 O339 2.079 . S
O323 Mg320 2.180 1_655 S
O323 Mg322 2.099 1_655 S
O323 C334 1.279 . S
O324 Mg320 2.117 1_655 S
O324 C334 1.250 . S
O325 Mg322 2.079 1_656 S
O325 C335 1.264 . S
O326 Mg322 2.072 1_655 S
O326 C336 1.260 1_554 S
Mg327 O328 2.180 1_655 S
Mg327 O329 2.030 . S
Mg327 O330 1.990 . S
Mg327 O331 2.117 . S
O328 Mg322 2.099 1_556 S
O328 Mg327 2.180 1_455 S
O328 C337 1.279 . S
O329 Mg327 2.030 . S
O329 C335 1.248 . S
O330 Mg327 1.990 . S
O330 C336 1.253 . S
O331 Mg327 2.117 . S
O331 C337 1.250 1_655 S
C332 O338 1.248 . S
C332 O339 1.264 . S
C333 O319 1.253 . S
C333 O321 1.260 . S
C334 O323 1.279 . S
C334 O324 1.250 . S
C335 O325 1.264 . S
C335 O329 1.248 . S
C336 O326 1.260 1_556 S
C336 O330 1.253 . S
C337 O328 1.279 . S
C337 O331 1.250 1_455 S
O338 Mg320 2.030 . S
O338 C332 1.248 . S
O339 Mg322 2.079 . S
O339 C332 1.264 . S
C340 C341 1.369 . S
C340 C342 1.419 . S
C340 H344 0.930 . S
C341 C340 1.369 . S
C341 C350 1.429 . S
C342 C340 1.419 . S
C342 C343 1.363 . S
C342 H345 0.929 . S
C343 C342 1.363 . S
C343 C349 1.428 . S
H344 C340 0.930 . S
H345 C342 0.929 . S
S346 N347 1.613 . S
S346 N348 1.610 . S
N347 S346 1.613 . S
N347 C350 1.350 1_565 S
N348 S346 1.610 . S
N348 C349 1.351 1_565 S
C349 C343 1.428 . S
C349 N348 1.351 1_545 S
C349 C350 1.434 . S
C350 C341 1.429 . S
C350 N347 1.350 1_545 S
C350 C349 1.434 . S
C351 C352 1.369 . S
C351 C353 1.419 . S
C351 H355 0.930 . S
C352 C351 1.369 . S
C352 C361 1.429 . S
C353 C351 1.419 . S
C353 C354 1.363 . S
C353 H356 0.929 . S
C354 C353 1.363 . S
C354 C360 1.424 1_565 S
H355 C351 0.930 . S
H356 C353 0.929 . S
S357 N358 1.613 . S
S357 N359 1.610 . S
N358 S357 1.613 . S
N358 C361 1.350 1_545 S
N359 S357 1.610 . S
N359 C360 1.357 . S
C360 C354 1.424 1_545 S
C360 N359 1.357 . S
C360 C361 1.432 1_545 S
C361 C352 1.429 . S
C361 N358 1.350 1_565 S
C361 C360 1.432 1_565 S
C362 C363 1.369 . S
C362 C364 1.419 . S
C362 H366 0.930 . S
C363 C362 1.369 . S
C363 C372 1.429 . S
C364 C362 1.419 . S
C364 C365 1.363 . S
C364 H367 0.929 . S
C365 C364 1.363 . S
C365 C371 1.428 . S
H366 C362 0.930 . S
H367 C364 0.929 . S
S368 N369 1.613 . S
S368 N370 1.610 . S
N369 S368 1.613 . S
N369 C372 1.350 . S
N370 S368 1.610 . S
N370 C371 1.351 . S
C371 C365 1.428 . S
C371 N370 1.351 . S
C371 C372 1.434 . S
C372 C363 1.429 . S
C372 N369 1.350 . S
C372 C371 1.434 . S
C373 C374 1.369 . S
C373 C375 1.419 . S
C373 H377 0.930 . S
C374 C373 1.369 . S
C374 C383 1.429 . S
C375 C373 1.419 . S
C375 C376 1.363 . S
C375 H378 0.929 . S
C376 C375 1.363 . S
C376 C382 1.428 . S
H377 C373 0.930 . S
H378 C375 0.929 . S
S379 N380 1.613 . S
S379 N381 1.610 . S
N380 S379 1.613 . S
N380 C383 1.350 1_455 S
N381 S379 1.610 . S
N381 C382 1.351 1_455 S
C382 C376 1.428 . S
C382 N381 1.351 1_655 S
C382 C383 1.434 . S
C383 C374 1.429 . S
C383 N380 1.350 1_655 S
C383 C382 1.434 . S
C384 C385 1.369 . S
C384 C386 1.419 . S
C384 H388 0.930 . S
C385 C384 1.369 . S
C385 C394 1.429 . S
C386 C384 1.419 . S
C386 C387 1.363 . S
C386 H389 0.929 . S
C387 C386 1.363 . S
C387 C393 1.428 . S
H388 C384 0.930 . S
H389 C386 0.929 . S
S390 N391 1.613 . S
S390 N392 1.610 . S
N391 S390 1.613 . S
N391 C394 1.350 1_565 S
N392 S390 1.610 . S
N392 C393 1.351 1_565 S
C393 C387 1.428 . S
C393 N392 1.351 1_545 S
C393 C394 1.434 . S
C394 C385 1.429 . S
C394 N391 1.350 1_545 S
C394 C393 1.434 . S
C395 C396 1.369 . S
C395 C397 1.419 . S
C395 H399 0.930 . S
C396 C395 1.369 . S
C396 C405 1.429 . S
C397 C395 1.419 . S
C397 C398 1.363 . S
C397 H400 0.929 . S
C398 C397 1.363 . S
C398 C404 1.428 . S
H399 C395 0.930 . S
H400 C397 0.929 . S
S401 N402 1.613 . S
S401 N403 1.610 . S
N402 S401 1.613 . S
N402 C405 1.350 1_545 S
N403 S401 1.610 . S
N403 C404 1.351 1_545 S
C404 C398 1.428 . S
C404 N403 1.351 1_565 S
C404 C405 1.434 . S
C405 C396 1.429 . S
C405 N402 1.350 1_565 S
C405 C404 1.434 . S
C406 C407 1.369 . S
C406 C408 1.419 . S
C406 H410 0.930 . S
C407 C406 1.369 . S
C407 C416 1.429 . S
C408 C406 1.419 . S
C408 C409 1.363 . S
C408 H411 0.929 . S
C409 C408 1.363 . S
C409 C415 1.428 . S
H410 C406 0.930 . S
H411 C408 0.929 . S
S412 N413 1.613 . S
S412 N414 1.610 . S
N413 S412 1.613 . S
N413 C416 1.350 1_554 S
N414 S412 1.610 . S
N414 C415 1.351 1_554 S
C415 C409 1.428 . S
C415 N414 1.351 1_556 S
C415 C416 1.434 . S
C416 C407 1.429 . S
C416 N413 1.350 1_556 S
C416 C415 1.434 . S
C417 C418 1.369 . S
C417 C419 1.419 . S
C417 H421 0.930 . S
C418 C417 1.369 . S
C418 C427 1.429 . S
C419 C417 1.419 . S
C419 C420 1.363 . S
C419 H422 0.929 . S
C420 C419 1.363 . S
C420 C426 1.428 . S
H421 C417 0.930 . S
H422 C419 0.929 . S
S423 N424 1.613 . S
S423 N425 1.610 . S
N424 S423 1.613 . S
N424 C427 1.350 . S
N425 S423 1.610 . S
N425 C426 1.351 . S
C426 C420 1.428 . S
C426 N425 1.351 . S
C426 C427 1.434 . S
C427 C418 1.429 . S
C427 N424 1.350 . S
C427 C426 1.434 . S
C428 C429 1.369 . S
C428 C430 1.419 . S
C428 H432 0.930 . S
C429 C428 1.369 . S
C429 C438 1.429 . S
C430 C428 1.419 . S
C430 C431 1.363 . S
C430 H433 0.929 1_455 S
C431 C430 1.363 . S
C431 C437 1.428 . S
H432 C428 0.930 . S
H433 C430 0.929 1_655 S
S434 N435 1.613 . S
S434 N436 1.610 . S
N435 S434 1.613 . S
N435 C438 1.350 . S
N436 S434 1.610 . S
N436 C437 1.351 . S
C437 C431 1.428 . S
C437 N436 1.351 . S
C437 C438 1.434 . S
C438 C429 1.429 . S
C438 N435 1.350 . S
C438 C437 1.434 . S
C439 C440 1.369 . S
C439 C441 1.419 . S
C439 H443 0.930 . S
C440 C439 1.369 . S
C440 C449 1.429 . S
C441 C439 1.419 . S
C441 C442 1.363 . S
C441 H444 0.929 . S
C442 C441 1.363 . S
C442 C448 1.428 . S
H443 C439 0.930 . S
H444 C441 0.929 . S
S445 N446 1.613 . S
S445 N447 1.610 . S
N446 S445 1.613 . S
N446 C449 1.350 . S
N447 S445 1.610 . S
N447 C448 1.351 . S
C448 C442 1.428 . S
C448 N447 1.351 . S
C448 C449 1.434 . S
C449 C440 1.429 . S
C449 N446 1.350 . S
C449 C448 1.434 . S
C450 C451 1.369 . S
C450 C452 1.419 . S
C450 H454 0.930 . S
C451 C450 1.369 . S
C451 C460 1.429 . S
C452 C450 1.419 . S
C452 C453 1.363 . S
C452 H455 0.929 . S
C453 C452 1.363 . S
C453 C459 1.428 . S
H454 C450 0.930 . S
H455 C452 0.929 . S
S456 N457 1.613 . S
S456 N458 1.610 . S
N457 S456 1.613 . S
N457 C460 1.350 1_455 S
N458 S456 1.610 . S
N458 C459 1.351 1_455 S
C459 C453 1.428 . S
C459 N458 1.351 1_655 S
C459 C460 1.434 . S
C460 C451 1.429 . S
C460 N457 1.350 1_655 S
C460 C459 1.434 . S
C461 C462 1.369 . S
C461 C463 1.419 . S
C461 H465 0.930 . S
C462 C461 1.369 . S
C462 C471 1.429 . S
C463 C461 1.419 . S
C463 C464 1.363 . S
C463 H466 0.929 . S
C464 C463 1.363 . S
C464 C470 1.428 . S
H465 C461 0.930 . S
H466 C463 0.929 . S
S467 N468 1.613 . S
S467 N469 1.610 . S
N468 S467 1.613 . S
N468 C471 1.350 . S
N469 S467 1.610 . S
N469 C470 1.351 . S
C470 C464 1.428 . S
C470 N469 1.351 . S
C470 C471 1.434 . S
C471 C462 1.429 . S
C471 N468 1.350 . S
C471 C470 1.434 . S
C472 C473 1.369 . S
C472 C474 1.419 . S
C472 H476 0.930 1_565 S
C473 C472 1.369 . S
C473 C482 1.429 . S
C474 C472 1.419 . S
C474 C475 1.363 . S
C474 H477 0.929 1_565 S
C475 C474 1.363 . S
C475 C481 1.428 . S
H476 C472 0.930 1_545 S
H477 C474 0.929 1_545 S
S478 N479 1.613 . S
S478 N480 1.610 . S
N479 S478 1.613 . S
N479 C482 1.350 . S
N480 S478 1.610 . S
N480 C481 1.351 . S
C481 C475 1.428 . S
C481 N480 1.351 . S
C481 C482 1.434 . S
C482 C473 1.429 . S
C482 N479 1.350 . S
C482 C481 1.434 . S
C483 C484 1.369 . S
C483 C485 1.419 . S
C483 H487 0.930 . S
C484 C483 1.369 . S
C484 C493 1.429 . S
C485 C483 1.419 . S
C485 C486 1.363 . S
C485 H488 0.929 1_545 S
C486 C485 1.363 . S
C486 C492 1.428 . S
H487 C483 0.930 . S
H488 C485 0.929 1_565 S
S489 N490 1.613 . S
S489 N491 1.610 . S
N490 S489 1.613 . S
N490 C493 1.350 . S
N491 S489 1.610 . S
N491 C492 1.351 . S
C492 C486 1.428 . S
C492 N491 1.351 . S
C492 C493 1.434 . S
C493 C484 1.429 . S
C493 N490 1.350 . S
C493 C492 1.434 . S
C494 C495 1.369 . S
C494 C496 1.419 . S
C494 H498 0.930 . S
C495 C494 1.369 . S
C495 C504 1.429 . S
C496 C494 1.419 . S
C496 C497 1.363 . S
C496 H499 0.929 . S
C497 C496 1.363 . S
C497 C503 1.428 . S
H498 C494 0.930 . S
H499 C496 0.929 . S
S500 N501 1.613 . S
S500 N502 1.610 . S
N501 S500 1.613 . S
N501 C504 1.350 . S
N502 S500 1.610 . S
N502 C503 1.351 . S
C503 C497 1.428 . S
C503 N502 1.351 . S
C503 C504 1.434 . S
C504 C495 1.429 . S
C504 N501 1.350 . S
C504 C503 1.434 . S
C505 C506 1.369 . S
C505 C507 1.419 . S
C505 H509 0.930 . S
C506 C505 1.369 . S
C506 C515 1.429 . S
C507 C505 1.419 . S
C507 C508 1.363 . S
C507 H510 0.929 . S
C508 C507 1.363 . S
C508 C514 1.428 . S
H509 C505 0.930 . S
H510 C507 0.929 . S
S511 N512 1.613 . S
S511 N513 1.610 . S
N512 S511 1.613 . S
N512 C515 1.350 1_655 S
N513 S511 1.610 . S
N513 C514 1.351 1_655 S
C514 C508 1.428 . S
C514 N513 1.351 1_455 S
C514 C515 1.434 . S
C515 C506 1.429 . S
C515 N512 1.350 1_455 S
C515 C514 1.434 . S
C516 C517 1.369 . S
C516 C518 1.419 . S
C516 H520 0.930 . S
C517 C516 1.369 . S
C517 C526 1.429 . S
C518 C516 1.419 . S
C518 C519 1.363 . S
C518 H521 0.929 . S
C519 C518 1.363 . S
C519 C525 1.428 . S
H520 C516 0.930 . S
H521 C518 0.929 . S
S522 N523 1.613 . S
S522 N524 1.610 . S
N523 S522 1.613 . S
N523 C526 1.350 1_554 S
N524 S522 1.610 . S
N524 C525 1.351 1_554 S
C525 C519 1.428 . S
C525 N524 1.351 1_556 S
C525 C526 1.434 . S
C526 C517 1.429 . S
C526 N523 1.350 1_556 S
C526 C525 1.434 . S
C527 C528 1.369 . S
C527 C529 1.419 . S
C527 H531 0.930 . S
C528 C527 1.369 . S
C528 C537 1.429 . S
C529 C527 1.419 . S
C529 C530 1.363 . S
C529 H532 0.929 . S
C530 C529 1.363 . S
C530 C536 1.428 . S
H531 C527 0.930 . S
H532 C529 0.929 . S
S533 N534 1.613 . S
S533 N535 1.610 . S
N534 S533 1.613 . S
N534 C537 1.350 . S
N535 S533 1.610 . S
N535 C536 1.351 . S
C536 C530 1.428 . S
C536 N535 1.351 . S
C536 C537 1.434 . S
C537 C528 1.429 . S
C537 N534 1.350 . S
C537 C536 1.434 . S
C538 C539 1.369 . S
C538 C540 1.419 . S
C538 H542 0.930 . S
C539 C538 1.369 . S
C539 C548 1.429 . S
C540 C538 1.419 . S
C540 C541 1.363 . S
C540 H543 0.929 . S
C541 C540 1.363 . S
C541 C547 1.428 . S
H542 C538 0.930 . S
H543 C540 0.929 . S
S544 N545 1.613 . S
S544 N546 1.610 . S
N545 S544 1.613 . S
N545 C548 1.350 . S
N546 S544 1.610 . S
N546 C547 1.351 . S
C547 C541 1.428 . S
C547 N546 1.351 . S
C547 C548 1.434 . S
C548 C539 1.429 . S
C548 N545 1.350 . S
C548 C547 1.434 . S
C549 C550 1.369 . S
C549 C551 1.419 . S
C549 H553 0.930 . S
C550 C549 1.369 . S
C550 C559 1.429 . S
C551 C549 1.419 . S
C551 C552 1.363 . S
C551 H554 0.929 . S
C552 C551 1.363 . S
C552 C558 1.428 . S
H553 C549 0.930 . S
H554 C551 0.929 . S
S555 N556 1.613 . S
S555 N557 1.610 . S
N556 S555 1.613 . S
N556 C559 1.350 . S
N557 S555 1.610 . S
N557 C558 1.351 . S
C558 C552 1.428 . S
C558 N557 1.351 . S
C558 C559 1.434 . S
C559 C550 1.429 . S
C559 N556 1.350 . S
C559 C558 1.434 . S
C560 C561 1.369 . S
C560 C562 1.419 . S
C560 H564 0.930 . S
C561 C560 1.369 . S
C561 C570 1.429 . S
C562 C560 1.419 . S
C562 C563 1.363 . S
C562 H565 0.929 1_556 S
C563 C562 1.363 . S
C563 C569 1.428 . S
H564 C560 0.930 . S
H565 C562 0.929 1_554 S
S566 N567 1.613 1_455 S
S566 N568 1.610 . S
N567 S566 1.613 1_655 S
N567 C570 1.350 . S
N568 S566 1.610 . S
N568 C569 1.351 1_455 S
C569 C563 1.428 . S
C569 N568 1.351 1_655 S
C569 C570 1.434 . S
C570 C561 1.429 . S
C570 N567 1.350 . S
C570 C569 1.434 . S
C571 C572 1.369 . S
C571 C573 1.419 . S
C571 H575 0.930 . S
C572 C571 1.369 . S
C572 C581 1.429 . S
C573 C571 1.419 . S
C573 C574 1.363 . S
C573 H576 0.929 . S
C574 C573 1.363 . S
C574 C580 1.428 . S
H575 C571 0.930 . S
H576 C573 0.929 . S
S577 N578 1.613 1_556 S
S577 N579 1.610 . S
N578 S577 1.613 1_554 S
N578 C581 1.350 . S
N579 S577 1.610 . S
N579 C580 1.351 1_556 S
C580 C574 1.428 . S
C580 N579 1.351 1_554 S
C580 C581 1.434 . S
C581 C572 1.429 . S
C581 N578 1.350 . S
C581 C580 1.434 . S
C582 C583 1.369 . S
C582 C584 1.419 . S
C582 H586 0.930 . S
C583 C582 1.369 . S
C583 C592 1.429 . S
C584 C582 1.419 . S
C584 C585 1.363 . S
C584 H587 0.929 . S
C585 C584 1.363 . S
C585 C591 1.428 . S
H586 C582 0.930 . S
H587 C584 0.929 . S
S588 N589 1.613 . S
S588 N590 1.610 . S
N589 S588 1.613 . S
N589 C592 1.350 . S
N590 S588 1.610 . S
N590 C591 1.351 . S
C591 C585 1.428 . S
C591 N590 1.351 . S
C591 C592 1.434 . S
C592 C583 1.429 . S
C592 N589 1.350 . S
C592 C591 1.434 . S
C593 C594 1.369 . S
C593 C595 1.419 . S
C593 H597 0.930 . S
C594 C593 1.369 . S
C594 C603 1.429 . S
C595 C593 1.419 . S
C595 C596 1.363 . S
C595 H598 0.929 . S
C596 C595 1.363 . S
C596 C602 1.428 . S
H597 C593 0.930 . S
H598 C595 0.929 . S
S599 N600 1.613 . S
S599 N601 1.610 . S
N600 S599 1.613 . S
N600 C603 1.350 . S
N601 S599 1.610 . S
N601 C602 1.351 . S
C602 C596 1.428 . S
C602 N601 1.351 . S
C602 C603 1.434 . S
C603 C594 1.429 . S
C603 N600 1.350 . S
C603 C602 1.434 . S
C341 C29 1.543 . S
C343 C272 1.559 . S
C352 C49 1.474 . S
C354 C294 1.430 . S
C365 C313 1.243 . S
C363 C93 1.439 . S
C374 C119 1.629 . S
C376 C334 1.373 . S
C387 C291 1.697 . S
C385 C17 1.665 . S
C398 C269 1.659 . S
C396 C61 1.732 . S
C409 C336 1.348 . S
C407 C81 1.362 . S
C420 C315 1.497 . S
C418 C125 1.440 . S
C429 C23 1.583 . S
C431 C333 1.613 . S
C442 C292 1.264 . S
C440 C87 1.519 . S
C451 C113 1.578 . S
C453 C274 1.543 . S
C462 C55 1.541 . S
C464 C312 1.528 . S
C475 C270 1.517 . S
C473 C157 1.593 . S
C484 C189 1.311 . S
C486 C290 1.334 . S
C495 C221 1.539 . S
C497 C316 1.275 . S
C506 C253 1.598 . S
C508 C337 1.346 . S
C517 C145 1.711 . S
C519 C293 1.678 . S
C530 C273 1.630 . S
C528 C183 1.604 . S
C541 C332 1.287 . S
C539 C209 1.339 . S
C552 C311 1.508 . S
C550 C247 1.457 . S
C561 C151 1.543 . S
C563 C335 1.510 . S
C574 C295 1.230 . S
C572 C215 1.537 . S
C585 C271 1.418 . S
C583 C241 1.453 . S
C594 C177 1.415 . S
C596 C314 1.473 . S
