# Generated by pormake.
# Topology zzz, (3,6)-cn, num edge types: 1
# Building blocks:
#     Node 0, Type 0, BuildingBlock: CUQRIR_clean_linker_1, # of connection points: 3
#     Node 1, Type 0, BuildingBlock: CUQRIR_clean_linker_1, # of connection points: 3
#     Node 2, Type 0, BuildingBlock: CUQRIR_clean_linker_1, # of connection points: 3
#     Node 3, Type 0, BuildingBlock: CUQRIR_clean_linker_1, # of connection points: 3
#     Node 4, Type 0, BuildingBlock: CUQRIR_clean_linker_1, # of connection points: 3
#     Node 5, Type 0, BuildingBlock: CUQRIR_clean_linker_1, # of connection points: 3
#     Node 6, Type 0, BuildingBlock: CUQRIR_clean_linker_1, # of connection points: 3
#     Node 7, Type 0, BuildingBlock: CUQRIR_clean_linker_1, # of connection points: 3
#     Node 8, Type 1, BuildingBlock: VOLQOD_clean_sbu_1, # of connection points: 6
#     Node 9, Type 1, BuildingBlock: VOLQOD_clean_sbu_1, # of connection points: 6
#     Node 10, Type 1, BuildingBlock: VOLQOD_clean_sbu_1, # of connection points: 6
#     Node 11, Type 1, BuildingBlock: VOLQOD_clean_sbu_1, # of connection points: 6
#     Edge 12, Type (0, 1), BuildingBlock: EZIPEK_clean_linker_0, # of connection points: 2
#     Edge 13, Type (0, 1), BuildingBlock: EZIPEK_clean_linker_0, # of connection points: 2
#     Edge 14, Type (0, 1), BuildingBlock: EZIPEK_clean_linker_0, # of connection points: 2
#     Edge 15, Type (0, 1), BuildingBlock: EZIPEK_clean_linker_0, # of connection points: 2
#     Edge 16, Type (0, 1), BuildingBlock: EZIPEK_clean_linker_0, # of connection points: 2
#     Edge 17, Type (0, 1), BuildingBlock: EZIPEK_clean_linker_0, # of connection points: 2
#     Edge 18, Type (0, 1), BuildingBlock: EZIPEK_clean_linker_0, # of connection points: 2
#     Edge 19, Type (0, 1), BuildingBlock: EZIPEK_clean_linker_0, # of connection points: 2
#     Edge 20, Type (0, 1), BuildingBlock: EZIPEK_clean_linker_0, # of connection points: 2
#     Edge 21, Type (0, 1), BuildingBlock: EZIPEK_clean_linker_0, # of connection points: 2
#     Edge 22, Type (0, 1), BuildingBlock: EZIPEK_clean_linker_0, # of connection points: 2
#     Edge 23, Type (0, 1), BuildingBlock: EZIPEK_clean_linker_0, # of connection points: 2
#     Edge 24, Type (0, 1), BuildingBlock: EZIPEK_clean_linker_0, # of connection points: 2
#     Edge 25, Type (0, 1), BuildingBlock: EZIPEK_clean_linker_0, # of connection points: 2
#     Edge 26, Type (0, 1), BuildingBlock: EZIPEK_clean_linker_0, # of connection points: 2
#     Edge 27, Type (0, 1), BuildingBlock: EZIPEK_clean_linker_0, # of connection points: 2
#     Edge 28, Type (0, 1), BuildingBlock: EZIPEK_clean_linker_0, # of connection points: 2
#     Edge 29, Type (0, 1), BuildingBlock: EZIPEK_clean_linker_0, # of connection points: 2
#     Edge 30, Type (0, 1), BuildingBlock: EZIPEK_clean_linker_0, # of connection points: 2
#     Edge 31, Type (0, 1), BuildingBlock: EZIPEK_clean_linker_0, # of connection points: 2
#     Edge 32, Type (0, 1), BuildingBlock: EZIPEK_clean_linker_0, # of connection points: 2
#     Edge 33, Type (0, 1), BuildingBlock: EZIPEK_clean_linker_0, # of connection points: 2
#     Edge 34, Type (0, 1), BuildingBlock: EZIPEK_clean_linker_0, # of connection points: 2
#     Edge 35, Type (0, 1), BuildingBlock: EZIPEK_clean_linker_0, # of connection points: 2
# Relax obj value: 0.209
# Max RMSD: 0.239
# Mean RMSD: 0.125
data_MOF--net-zzz--node1-VOLQOD_clean_sbu_1--node2-CUQRIR_clean_linker_1--edge1-EZIPEK_clean_linker_0
_symmetry_space_group_name_H-M    P1
_symmetry_Int_Tables_number       1
_symmetry_cell_setting            triclinic
loop_
_symmetry_equiv_pos_as_xyz
'x, y, z'
_cell_length_a     34.913814
_cell_length_b     34.692161
_cell_length_c     11.192808
_cell_angle_alpha  89.992547
_cell_angle_beta   89.915625
_cell_angle_gamma 90.7502
loop_
_atom_site_label
_atom_site_type_symbol
_atom_site_fract_x
_atom_site_fract_y
_atom_site_fract_z
_atom_type_partial_charge
C0 C 0.75817 0.52889 0.15202 0.0
N1 N 0.79688 0.52614 0.14701 0.0
N2 N 0.74235 0.51984 0.04437 0.0
C3 C 0.73599 0.54101 0.26061 0.0
C4 C 0.77284 0.51164 0.97431 0.0
N5 N 0.8057 0.51523 0.0367 0.0
C6 C 0.77062 0.50012 0.84467 0.0
H7 H 0.70594 0.5303 0.25635 0.0
H8 H 0.73589 0.57294 0.26506 0.0
H9 H 0.74964 0.53053 0.34357 0.0
H10 H 0.74417 0.51101 0.80234 0.0
H11 H 0.77058 0.46821 0.83842 0.0
H12 H 0.79582 0.5111 0.79414 0.0
C13 C 0.0167 0.74383 0.1863 0.0
N14 N 0.01989 0.78122 0.22019 0.0
N15 N 0.02664 0.74 0.06986 0.0
C16 C 0.0046 0.71098 0.26554 0.0
C17 C 0.0366 0.776 0.03471 0.0
N18 N 0.03298 0.80091 0.12637 0.0
C19 C 0.04862 0.78703 0.91011 0.0
H20 H 0.0265 0.68811 0.26179 0.0
H21 H 0.97741 0.69827 0.23139 0.0
H22 H 0.00064 0.72046 0.35935 0.0
H23 H 0.03741 0.76615 0.84332 0.0
H24 H 0.08036 0.78719 0.90517 0.0
H25 H 0.03862 0.81638 0.88765 0.0
C26 C 0.75371 -0.00054 0.13967 0.0
N27 N 0.71536 0.00057 0.15633 0.0
N28 N 0.76227 0.00093 0.02132 0.0
C29 C 0.78273 0.99844 0.23856 0.0
C30 C 0.7277 0.00391 0.96733 0.0
N31 N 0.6994 0.00457 0.04955 0.0
C32 C 0.72127 0.0048 0.83459 0.0
H33 H 0.7707 0.01057 0.32211 0.0
H34 H 0.80895 0.01483 0.21256 0.0
H35 H 0.79094 0.96819 0.25596 0.0
H36 H 0.7452 0.99106 0.78597 0.0
H37 H 0.71919 0.03521 0.80496 0.0
H38 H 0.69392 0.98992 0.81167 0.0
C39 C 0.49831 0.75444 0.19918 0.0
N40 N 0.49162 0.71779 0.23665 0.0
N41 N 0.4879 0.75843 0.08305 0.0
C42 C 0.51452 0.78645 0.27473 0.0
C43 C 0.4739 0.72331 0.05212 0.0
N44 N 0.47571 0.69887 0.14567 0.0
C45 C 0.45934 0.71244 0.92999 0.0
H46 H 0.49382 0.81041 0.27854 0.0
H47 H 0.54109 0.79791 0.23244 0.0
H48 H 0.52079 0.77658 0.36684 0.0
H49 H 0.46819 0.73363 0.86088 0.0
H50 H 0.4276 0.71106 0.93223 0.0
H51 H 0.46972 0.68343 0.90483 0.0
C52 C 0.26489 0.51758 0.13961 0.0
N53 N 0.22829 0.52321 0.1038 0.0
N54 N 0.26904 0.52728 0.25629 0.0
C55 C 0.29679 0.50346 0.06181 0.0
C56 C 0.2341 0.53971 0.28955 0.0
N57 N 0.20955 0.5378 0.19659 0.0
C58 C 0.22367 0.55233 0.41382 0.0
H59 H 0.30687 0.47538 0.09642 0.0
H60 H 0.32131 0.52404 0.06676 0.0
H61 H 0.28754 0.50015 0.96754 0.0
H62 H 0.22836 0.58394 0.42101 0.0
H63 H 0.24188 0.53812 0.48149 0.0
H64 H 0.19307 0.54589 0.43328 0.0
C65 C 0.04677 0.25319 0.15236 0.0
N66 N 0.04259 0.21426 0.15001 0.0
N67 N 0.03881 0.26695 0.26338 0.0
C68 C 0.05881 0.27764 0.04766 0.0
C69 C 0.03005 0.23506 0.32795 0.0
N70 N 0.032 0.20338 0.25901 0.0
C71 C 0.01906 0.23478 0.45823 0.0
H72 H 0.09043 0.28101 0.04813 0.0
H73 H 0.04606 0.30671 0.05379 0.0
H74 H 0.05069 0.26392 0.9618 0.0
H75 H 0.98738 0.23354 0.46573 0.0
H76 H 0.02986 0.26098 0.50467 0.0
H77 H 0.0304 0.20899 0.50388 0.0
C78 C 0.24756 0.996 0.13565 0.0
N79 N 0.28474 0.99013 0.10686 0.0
N80 N 0.24182 0.98955 0.25387 0.0
C81 C 0.21642 0.0056 0.04888 0.0
C82 C 0.27646 0.9792 0.29558 0.0
N83 N 0.30234 0.97892 0.20602 0.0
C84 C 0.28448 0.96804 0.42277 0.0
H85 H 0.20084 0.03127 0.08117 0.0
H86 H 0.19552 0.98124 0.04521 0.0
H87 H 0.22798 0.01115 0.95804 0.0
H88 H 0.27536 0.9376 0.43646 0.0
H89 H 0.26778 0.98617 0.48514 0.0
H90 H 0.31544 0.97087 0.44365 0.0
C91 C 0.46157 0.24767 0.19745 0.0
N92 N 0.4684 0.28629 0.19311 0.0
N93 N 0.47831 0.23214 0.29541 0.0
C94 C 0.43867 0.2251 0.10775 0.0
C95 C 0.49569 0.26235 0.34967 0.0
N96 N 0.48933 0.29517 0.28857 0.0
C97 C 0.51612 0.26013 0.46765 0.0
H98 H 0.4177 0.2061 0.15459 0.0
H99 H 0.45824 0.20629 0.05657 0.0
H100 H 0.42346 0.24436 0.04506 0.0
H101 H 0.53557 0.2351 0.46851 0.0
H102 H 0.49465 0.25565 0.53969 0.0
H103 H 0.53285 0.28684 0.4864 0.0
O104 O 0.10625 0.99342 0.65609 0.0
Zn105 Zn 0.06196 0.00264 0.77148 0.0
O106 O 0.01244 0.99344 0.69103 0.0
Zn107 Zn 0.98084 0.03749 0.71768 0.0
Zn108 Zn 0.01968 0.98387 0.522 0.0
Zn109 Zn 0.98428 0.95015 0.75319 0.0
O110 O 0.92898 0.0248 0.78435 0.0
O111 O 0.92853 0.96106 0.78647 0.0
O112 O 0.06633 0.05867 0.828 0.0
O113 O 0.0051 0.07451 0.83092 0.0
O114 O 0.97884 0.06641 0.56457 0.0
O115 O 0.99782 0.02611 0.42217 0.0
O116 O 0.00466 0.92959 0.47419 0.0
O117 O 0.0653 0.96753 0.91826 0.0
O118 O 0.98848 0.90346 0.64882 0.0
O119 O 0.00893 0.93725 0.90497 0.0
C120 C 0.10615 0.98957 0.54262 0.0
C121 C 0.91178 0.99293 0.80424 0.0
C122 C 0.98659 0.05915 0.45581 0.0
C123 C 0.03987 0.08201 0.8561 0.0
C124 C 0.99563 0.90042 0.53795 0.0
C125 C 0.04003 0.94432 0.96052 0.0
O126 O 0.0752 0.98692 0.48369 0.0
O127 O 0.48086 0.07614 0.62107 0.0
Zn128 Zn 0.48343 0.02638 0.72129 0.0
O129 O 0.49672 0.98243 0.61618 0.0
Zn130 Zn 0.45538 0.94475 0.61274 0.0
Zn131 Zn 0.50715 -0.0004 0.45514 0.0
Zn132 Zn 0.54183 0.95578 0.6706 0.0
O133 O 0.46825 0.89734 0.70908 0.0
O134 O 0.53076 0.9036 0.74119 0.0
O135 O 0.43081 0.01582 0.79797 0.0
O136 O 0.40908 0.96599 0.6919 0.0
O137 O 0.43868 0.93237 0.4462 0.0
O138 O 0.47295 0.97332 0.33729 0.0
O139 O 0.56235 0.99393 0.41148 0.0
O140 O 0.52415 0.0335 0.85337 0.0
O141 O 0.58596 0.95705 0.55513 0.0
O142 O 0.56172 0.98467 0.80518 0.0
C143 C 0.48639 0.08217 0.50956 0.0
C144 C 0.49929 0.88525 0.75459 0.0
C145 C 0.44689 0.94751 0.34556 0.0
C146 C 0.40415 0.99173 0.77091 0.0
C147 C 0.59001 0.97593 0.45844 0.0
C148 C 0.55398 0.0133 0.87052 0.0
O149 O 0.49603 0.05526 0.43924 0.0
O150 O 0.39639 0.50511 0.68055 0.0
Zn151 Zn 0.43922 0.49686 0.80328 0.0
O152 O 0.48971 0.50709 0.72712 0.0
Zn153 Zn 0.52234 0.46411 0.76151 0.0
Zn154 Zn 0.48509 0.51647 0.55664 0.0
Zn155 Zn 0.51608 0.55175 0.7877 0.0
O156 O 0.57209 0.47919 0.84085 0.0
O157 O 0.57165 0.54267 0.82833 0.0
O158 O 0.43544 0.44138 0.8689 0.0
O159 O 0.49683 0.42572 0.86887 0.0
O160 O 0.52926 0.4353 0.60887 0.0
O161 O 0.5073 0.47279 0.4632 0.0
O162 O 0.50263 0.56994 0.50488 0.0
O163 O 0.43342 0.53311 0.9467 0.0
O164 O 0.51275 0.59794 0.68049 0.0
O165 O 0.48913 0.56489 0.93462 0.0
C166 C 0.3981 0.51176 0.56826 0.0
C167 C 0.58862 0.5117 0.85621 0.0
C168 C 0.52152 0.44124 0.49928 0.0
C169 C 0.46223 0.41836 0.89709 0.0
C170 C 0.50899 0.59994 0.56787 0.0
C171 C 0.45777 0.55738 0.98833 0.0
O172 O 0.42983 0.51588 0.51381 0.0
O173 O 0.95069 0.56452 0.46967 0.0
Zn174 Zn 0.00627 0.56501 0.53104 0.0
O175 O 0.01888 0.51557 0.60959 0.0
Zn176 Zn 0.02709 0.52161 0.77969 0.0
Zn177 Zn 0.97785 0.47971 0.57582 0.0
Zn178 Zn 0.06464 0.49225 0.55139 0.0
O179 O 0.08012 0.50617 0.83595 0.0
O180 O 0.10939 0.49812 0.66165 0.0
O181 O 0.01257 0.60912 0.65058 0.0
O182 O 0.02549 0.57726 0.81834 0.0
O183 O 0.98244 0.49954 0.87053 0.0
O184 O 0.94774 0.47185 0.72642 0.0
O185 O 0.9953 0.43116 0.4973 0.0
O186 O 0.04197 0.573 0.38697 0.0
O187 O 0.05825 0.4361 0.50767 0.0
O188 O 0.07763 0.52056 0.40626 0.0
C189 C 0.92981 0.53568 0.43924 0.0
C190 C 0.1105 0.50162 0.77446 0.0
C191 C 0.95198 0.48266 0.83445 0.0
C192 C 0.01976 0.60848 0.76242 0.0
C193 C 0.02823 0.41706 0.4795 0.0
C194 C 0.06836 0.55084 0.34971 0.0
O195 O 0.93976 0.50156 0.4641 0.0
C196 C 0.19728 0.02364 0.38571 0.0
C197 C 0.20663 0.99014 0.32076 0.0
C198 C 0.15101 0.95572 0.40397 0.0
C199 C 0.14252 0.98876 0.47423 0.0
N200 N 0.15807 0.05363 0.53816 0.0
N201 N 0.19576 0.92369 0.27135 0.0
C202 C 0.16594 0.02258 0.46728 0.0
C203 C 0.18424 0.95604 0.33034 0.0
N204 N 0.21828 0.0566 0.3666 0.0
N205 N 0.1271 0.92416 0.40744 0.0
H206 H 0.21931 0.9237 0.2139 0.0
H207 H 0.18338 0.8965 0.28275 0.0
H208 H 0.10446 0.92145 0.46778 0.0
H209 H 0.12862 0.90113 0.34816 0.0
H210 H 0.21169 0.08339 0.4022 0.0
H211 H 0.24154 0.05762 0.30792 0.0
H212 H 0.17576 0.07783 0.54597 0.0
H213 H 0.13442 0.05477 0.59479 0.0
C214 C 0.44716 0.17959 0.41086 0.0
C215 C 0.47778 0.19295 0.33816 0.0
C216 C 0.51545 0.1367 0.39254 0.0
C217 C 0.48369 0.12154 0.45803 0.0
N218 N 0.41687 0.12542 0.51236 0.0
N219 N 0.53804 0.18216 0.24239 0.0
C220 C 0.4488 0.14216 0.46287 0.0
C221 C 0.51089 0.17059 0.32317 0.0
N222 N 0.41705 0.20329 0.43272 0.0
N223 N 0.5505 0.11981 0.40164 0.0
H224 H 0.53525 0.20723 0.1917 0.0
H225 H 0.56132 0.1654 0.21813 0.0
H226 H 0.5555 0.09606 0.45634 0.0
H227 H 0.57547 0.13151 0.36483 0.0
H228 H 0.39583 0.19725 0.49572 0.0
H229 H 0.41469 0.23032 0.39271 0.0
H230 H 0.38974 0.13741 0.50733 0.0
H231 H 0.4168 0.09797 0.55031 0.0
C232 C 0.30684 0.48779 0.39517 0.0
C233 C 0.30196 0.52276 0.33216 0.0
C234 C 0.35602 0.55206 0.43929 0.0
C235 C 0.36274 0.51616 0.49649 0.0
N236 N 0.34788 0.44844 0.51884 0.0
N237 N 0.32283 0.5868 0.28238 0.0
C238 C 0.33889 0.48362 0.47236 0.0
C239 C 0.32693 0.55452 0.35085 0.0
N240 N 0.28015 0.45894 0.38262 0.0
N241 N 0.37676 0.584 0.47263 0.0
H242 H 0.30126 0.58921 0.21843 0.0
H243 H 0.34205 0.60996 0.28246 0.0
H244 H 0.39755 0.58328 0.53937 0.0
H245 H 0.37151 0.61172 0.44185 0.0
H246 H 0.27936 0.43425 0.43545 0.0
H247 H 0.25714 0.46088 0.32362 0.0
H248 H 0.33439 0.42277 0.49364 0.0
H249 H 0.37063 0.44441 0.57757 0.0
C250 C 0.00077 0.31868 0.35286 0.0
C251 C 0.03577 0.30623 0.30395 0.0
C252 C 0.06379 0.36934 0.34775 0.0
C253 C 0.03137 0.37861 0.41989 0.0
N254 N 0.9736 0.35383 0.51643 0.0
N255 N 0.10358 0.31714 0.28011 0.0
C256 C 0.00088 0.35108 0.42937 0.0
C257 C 0.0683 0.33076 0.30876 0.0
N258 N 0.9676 0.29913 0.32802 0.0
N259 N 0.08897 0.39714 0.30947 0.0
H260 H 0.10798 0.28843 0.25679 0.0
H261 H 0.12861 0.33345 0.29178 0.0
H262 H 0.08444 0.4265 0.32101 0.0
H263 H 0.11137 0.39114 0.25091 0.0
H264 H 0.94087 0.30877 0.35592 0.0
H265 H 0.96679 0.27574 0.26932 0.0
H266 H 0.95253 0.33265 0.52945 0.0
H267 H 0.97523 0.37379 0.58586 0.0
C268 C 0.82213 0.96547 0.98306 0.0
C269 C 0.7994 0.99836 0.9651 0.0
C270 C 0.84643 0.02275 0.82131 0.0
C271 C 0.87233 0.99338 0.85555 0.0
N272 N 0.88678 0.94292 0.99912 0.0
N273 N 0.79426 0.06273 0.88717 0.0
C274 C 0.86082 0.96622 0.94465 0.0
C275 C 0.81287 0.02842 0.89022 0.0
N276 N 0.8066 0.93316 0.03402 0.0
N277 N 0.8527 0.04405 0.72036 0.0
H278 H 0.7705 0.06823 0.94085 0.0
H279 H 0.80487 0.0867 0.84102 0.0
H280 H 0.87503 0.03858 0.66103 0.0
H281 H 0.83292 0.06373 0.68806 0.0
H282 H 0.82141 0.90733 0.04045 0.0
H283 H 0.77771 0.93113 0.05705 0.0
H284 H 0.87947 0.92502 0.07072 0.0
H285 H 0.9162 0.94498 0.98467 0.0
C286 C 0.46724 0.82249 0.01529 0.0
C287 C 0.49275 0.79146 0.00622 0.0
C288 C 0.52144 0.82026 0.82652 0.0
C289 C 0.49764 0.8528 0.84096 0.0
N290 N 0.45681 0.88964 0.97189 0.0
N291 N 0.54875 0.76352 0.91894 0.0
C292 C 0.47296 0.85531 0.94178 0.0
C293 C 0.52146 0.79132 0.91669 0.0
N294 N 0.43682 0.82011 0.09171 0.0
N295 N 0.54273 0.81625 0.72487 0.0
H296 H 0.54918 0.7421 0.98443 0.0
H297 H 0.57255 0.76362 0.86274 0.0
H298 H 0.54286 0.83658 0.6562 0.0
H299 H 0.55769 0.79135 0.70409 0.0
H300 H 0.41471 0.84 0.09138 0.0
H301 H 0.43209 0.79641 0.14751 0.0
H302 H 0.44129 0.89358 0.0504 0.0
H303 H 0.46243 0.9152 0.92557 0.0
C304 C 0.68787 0.48212 0.96377 0.0
C305 C 0.70248 0.51717 0.01033 0.0
C306 C 0.63971 0.54581 0.98098 0.0
C307 C 0.62783 0.51348 0.91059 0.0
N308 N 0.64792 0.45494 0.80986 0.0
N309 N 0.69418 0.58542 0.03772 0.0
C310 C 0.6538 0.48249 0.8953 0.0
C311 C 0.67898 0.55002 0.01163 0.0
N312 N 0.7068 0.44861 0.98371 0.0
N313 N 0.61375 0.5713 0.02486 0.0
H314 H 0.72331 0.58974 0.05425 0.0
H315 H 0.67848 0.61067 0.03031 0.0
H316 H 0.58424 0.56706 0.0182 0.0
H317 H 0.62155 0.59364 0.08264 0.0
H318 H 0.69573 0.42178 0.95827 0.0
H319 H 0.7314 0.44759 0.0365 0.0
H320 H 0.66786 0.43357 0.79192 0.0
H321 H 0.62637 0.45649 0.74587 0.0
C322 C 0.99001 0.69822 0.93235 0.0
C323 C 0.02423 0.70627 0.99564 0.0
C324 C 0.05687 0.65454 0.88996 0.0
C325 C 0.02184 0.64454 0.83255 0.0
N326 N 0.95371 0.65308 0.81031 0.0
N327 N 0.08866 0.69066 0.04824 0.0
C328 C 0.988 0.6655 0.85611 0.0
C329 C 0.05724 0.68389 0.97839 0.0
N330 N 0.95976 0.72253 0.94386 0.0
N331 N 0.08992 0.63671 0.85678 0.0
H332 H 0.08956 0.71257 0.11211 0.0
H333 H 0.11256 0.67304 0.04959 0.0
H334 H 0.09067 0.61587 0.78971 0.0
H335 H 0.11698 0.64464 0.88779 0.0
H336 H 0.93539 0.72103 0.8905 0.0
H337 H 0.96011 0.74592 0.00246 0.0
H338 H 0.92741 0.66435 0.83548 0.0
H339 H 0.95115 0.62962 0.75254 0.0
C340 C 0.98553 0.14919 0.26662 0.0
C341 C 0.02208 0.16479 0.29544 0.0
C342 C 0.03682 0.10825 0.41532 0.0
C343 C 1.00015 0.09249 0.38606 0.0
N344 N 0.94262 0.09334 0.26908 0.0
N345 N 0.08395 0.15931 0.3863 0.0
C346 C 0.97549 0.11144 0.30609 0.0
C347 C 0.04829 0.14406 0.3656 0.0
N348 N 0.95973 0.17163 0.20833 0.0
N349 N 0.05972 0.08993 0.49618 0.0
H350 H 0.09173 0.18721 0.36067 0.0
H351 H 0.10644 0.14399 0.42331 0.0
H352 H 0.05355 0.06264 0.53076 0.0
H353 H 0.08403 0.10236 0.53445 0.0
H354 H 0.93138 0.16351 0.19296 0.0
H355 H 0.96605 0.19995 0.1833 0.0
H356 H 0.92476 0.10414 0.20302 0.0
H357 H 0.93484 0.06575 0.29841 0.0
C358 C 0.34961 0.9269 0.23541 0.0
C359 C 0.34145 0.96624 0.21275 0.0
C360 C 0.40948 0.9793 0.18854 0.0
C361 C 0.41744 0.94483 0.24983 0.0
N362 N 0.39728 0.88063 0.30025 0.0
N363 N 0.36444 0.03114 0.18061 0.0
C364 C 0.3881 0.91649 0.26039 0.0
C365 C 0.37162 0.99278 0.19047 0.0
N366 N 0.32067 0.9001 0.23409 0.0
N367 N 0.43809 -0.00054 0.1328 0.0
H368 H 0.33707 0.04215 0.19312 0.0
H369 H 0.38618 0.05189 0.17258 0.0
H370 H 0.46571 0.98846 0.126 0.0
H371 H 0.43297 0.02408 0.08205 0.0
H372 H 0.32496 0.87059 0.24188 0.0
H373 H 0.29233 0.90742 0.21706 0.0
H374 H 0.37722 0.85934 0.32238 0.0
H375 H 0.42583 0.87275 0.31183 0.0
C376 C 0.47146 0.34895 0.41841 0.0
C377 C 0.49652 0.33356 0.33206 0.0
C378 C 0.53816 0.39087 0.34606 0.0
C379 C 0.51218 0.40651 0.42959 0.0
N380 N 0.44957 0.40528 0.52295 0.0
N381 N 0.55144 0.33948 0.20417 0.0
C382 C 0.47735 0.38707 0.45839 0.0
C383 C 0.52912 0.35465 0.2921 0.0
N384 N 0.44285 0.32646 0.46598 0.0
N385 N 0.57163 0.41015 0.32161 0.0
H386 H 0.5462 0.3121 0.16881 0.0
H387 H 0.57389 0.35434 0.16283 0.0
H388 H 0.57803 0.43716 0.35811 0.0
H389 H 0.59352 0.39907 0.26922 0.0
H390 H 0.42698 0.3343 0.5408 0.0
H391 H 0.43669 0.29863 0.43628 0.0
H392 H 0.42203 0.39399 0.53458 0.0
H393 H 0.45265 0.43321 0.55635 0.0
C394 C 0.157 0.58496 0.2192 0.0
C395 C 0.1693 0.54663 0.19916 0.0
C396 C 0.10294 0.52619 0.18133 0.0
C397 C 0.09186 0.55957 0.24291 0.0
N398 N 0.10532 0.62565 0.29078 0.0
N399 N 0.15278 0.47918 0.18794 0.0
C400 C 0.1178 0.59112 0.249 0.0
C401 C 0.14197 0.51672 0.1838 0.0
N402 N 0.18283 0.61469 0.21247 0.0
N403 N 0.07569 0.50087 0.14174 0.0
H404 H 0.18078 0.47141 0.20825 0.0
H405 H 0.1333 0.45624 0.18326 0.0
H406 H 0.04659 0.50723 0.14876 0.0
H407 H 0.08245 0.47601 0.09408 0.0
H408 H 0.1753 0.64355 0.21861 0.0
H409 H 0.21163 0.61022 0.19245 0.0
H410 H 0.12337 0.64895 0.30987 0.0
H411 H 0.07629 0.63045 0.30644 0.0
C412 C 0.07614 0.85796 0.10631 0.0
C413 C 0.03874 0.84207 0.12122 0.0
C414 C 0.01302 0.90659 0.12319 0.0
C415 C 0.0468 0.92031 0.06811 0.0
N416 N 0.11474 0.91377 0.04517 0.0
N417 N 0.97054 0.85156 0.12174 0.0
C418 C 0.08015 0.89766 0.0743 0.0
C419 C 0.00679 0.8665 0.12739 0.0
N420 N 0.10712 0.83484 0.11997 0.0
N421 N 0.98522 0.93186 0.15434 0.0
H422 H 0.96529 0.8222 0.10879 0.0
H423 H 0.94629 0.86871 0.11685 0.0
H424 H 0.98952 0.96157 0.14455 0.0
H425 H 0.96021 0.92329 0.19866 0.0
H426 H 0.13535 0.84476 0.11728 0.0
H427 H 0.10421 0.80562 0.14066 0.0
H428 H 0.13989 0.89829 0.03602 0.0
H429 H 0.11806 0.94344 0.03288 0.0
C430 C 0.6325 0.98081 0.04459 0.0
C431 C 0.65926 0.01114 0.02801 0.0
C432 C 0.6083 0.05243 0.95184 0.0
C433 C 0.58212 0.02126 0.96602 0.0
N434 N 0.56573 0.96291 0.06999 0.0
N435 N 0.67177 0.07863 0.99419 0.0
C436 C 0.59311 0.98838 0.03124 0.0
C437 C 0.64674 0.04812 0.99182 0.0
N438 N 0.6449 0.94411 0.06106 0.0
N439 N 0.59709 0.08481 0.893 0.0
H440 H 0.70021 0.07578 0.02068 0.0
H441 H 0.66368 0.10696 0.97851 0.0
H442 H 0.56865 0.08911 0.86848 0.0
H443 H 0.61592 0.10668 0.86619 0.0
H444 H 0.62648 0.92025 0.0645 0.0
H445 H 0.67393 0.93738 0.05875 0.0
H446 H 0.57192 0.93932 0.12402 0.0
H447 H 0.53662 0.96806 0.05669 0.0
C448 C 0.49462 0.63071 0.15649 0.0
C449 C 0.46566 0.65843 0.14436 0.0
C450 C 0.41971 0.60722 0.09289 0.0
C451 C 0.45032 0.58095 0.09589 0.0
N452 N 0.50838 0.56376 0.19481 0.0
N453 N 0.39836 0.67229 0.13681 0.0
C454 C 0.48397 0.59151 0.15731 0.0
C455 C 0.42711 0.64632 0.12586 0.0
N456 N 0.53225 0.64132 0.14989 0.0
N457 N 0.38488 0.5953 0.05121 0.0
H458 H 0.40378 0.70105 0.15909 0.0
H459 H 0.36943 0.66482 0.13186 0.0
H460 H 0.37894 0.56627 0.0343 0.0
H461 H 0.36238 0.61387 0.03371 0.0
H462 H 0.55438 0.62144 0.15053 0.0
H463 H 0.54076 0.66956 0.13042 0.0
H464 H 0.53343 0.57023 0.24189 0.0
H465 H 0.50114 0.53454 0.18666 0.0
C466 C 0.86184 0.53533 0.91818 0.0
C467 C 0.84366 0.50776 0.99263 0.0
C468 C 0.89948 0.46572 0.97983 0.0
C469 C 0.91641 0.492 0.89835 0.0
N470 N 0.91394 0.55106 0.78325 0.0
N471 N 0.84143 0.445 0.08261 0.0
C472 C 0.89782 0.52686 0.86668 0.0
C473 C 0.86163 0.47256 0.02133 0.0
N474 N 0.84427 0.5696 0.89653 0.0
N475 N 0.91969 0.43452 0.01729 0.0
H476 H 0.81314 0.44898 0.10937 0.0
H477 H 0.85133 0.41732 0.09862 0.0
H478 H 0.94729 0.4289 0.98642 0.0
H479 H 0.91046 0.41592 0.08468 0.0
H480 H 0.85763 0.59324 0.8563 0.0
H481 H 0.81642 0.57519 0.9246 0.0
H482 H 0.89969 0.57393 0.74394 0.0
H483 H 0.94121 0.54734 0.74729 0.0
C484 C 0.07894 0.16075 0.06483 0.0
C485 C 0.04931 0.18771 0.05298 0.0
C486 C 0.02632 0.15232 0.87873 0.0
C487 C 0.04854 0.12002 0.91312 0.0
N488 N 0.09503 0.09356 0.05129 0.0
N489 N 0.99292 0.20857 0.94902 0.0
C490 C 0.07528 0.12428 0.00822 0.0
C491 C 0.02267 0.1837 0.95892 0.0
N492 N 0.11039 0.17019 0.1309 0.0
N493 N 0.00945 0.1534 0.76876 0.0
H494 H 0.98946 0.23193 0.00642 0.0
H495 H 0.97044 0.20427 0.88909 0.0
H496 H 0.01384 0.13209 0.70451 0.0
H497 H 0.99529 0.17757 0.73675 0.0
H498 H 0.13429 0.15259 0.13689 0.0
H499 H 0.1138 0.19766 0.16789 0.0
H500 H 0.11179 0.09527 0.12819 0.0
H501 H 0.09202 0.06566 0.01838 0.0
C502 C 0.31717 0.02668 0.94476 0.0
C503 C 0.30309 0.99131 0.99125 0.0
C504 C 0.35165 0.95598 0.88282 0.0
C505 C 0.36726 0.99143 0.83818 0.0
N506 N 0.3571 0.05884 0.79643 0.0
N507 N 0.29608 0.92334 0.96761 0.0
C508 C 0.34746 0.02637 0.85926 0.0
C509 C 0.31641 0.95636 0.9452 0.0
N510 N 0.30306 0.06044 0.98771 0.0
N511 N 0.37176 0.9225 0.87637 0.0
H512 H 0.2702 0.92382 0.01455 0.0
H513 H 0.30275 0.89684 0.92956 0.0
H514 H 0.39902 0.92055 0.83973 0.0
H515 H 0.36309 0.89725 0.91962 0.0
H516 H 0.3151 0.08735 0.96844 0.0
H517 H 0.28046 0.06111 0.04866 0.0
H518 H 0.34168 0.08428 0.80118 0.0
H519 H 0.37822 0.05914 0.73042 0.0
C520 C 0.47832 0.31559 0.99284 0.0
C521 C 0.45782 0.3138 0.10181 0.0
C522 C 0.43316 0.37866 0.06726 0.0
C523 C 0.45421 0.38085 0.95848 0.0
N524 N 0.48449 0.34581 0.79851 0.0
N525 N 0.40495 0.33632 0.21718 0.0
C526 C 0.47269 0.34734 0.91484 0.0
C527 C 0.4315 0.343 0.13011 0.0
N528 N 0.50469 0.28815 0.96675 0.0
N529 N 0.41705 0.4108 0.11534 0.0
H530 H 0.40256 0.30949 0.2589 0.0
H531 H 0.38312 0.35546 0.2374 0.0
H532 H 0.41816 0.43775 0.07448 0.0
H533 H 0.40518 0.41125 0.20082 0.0
H534 H 0.52356 0.29034 0.89478 0.0
H535 H 0.50961 0.2646 0.0222 0.0
H536 H 0.49528 0.32097 0.75919 0.0
H537 H 0.47943 0.36808 0.73809 0.0
C538 C 0.19762 0.54673 0.92145 0.0
C539 C 0.2106 0.51524 0.98949 0.0
C540 C 0.16403 0.4723 0.89186 0.0
C541 C 0.14824 0.50472 0.83403 0.0
N542 N 0.15648 0.56995 0.76303 0.0
N543 N 0.21554 0.44662 0.01266 0.0
C544 C 0.1674 0.54105 0.83812 0.0
C545 C 0.19739 0.47737 0.96351 0.0
N546 N 0.21311 0.58238 0.9426 0.0
N547 N 0.1459 0.43725 0.88341 0.0
H548 H 0.23846 0.44984 0.07129 0.0
H549 H 0.20953 0.41809 0.98991 0.0
H550 H 0.12218 0.43254 0.82842 0.0
H551 H 0.15311 0.41335 0.93443 0.0
H552 H 0.20218 0.60786 0.9084 0.0
H553 H 0.23676 0.58621 0.99861 0.0
H554 H 0.17109 0.59616 0.75501 0.0
H555 H 0.13427 0.56665 0.70153 0.0
C556 C 0.97341 0.81005 0.35893 0.0
C557 C 0.01137 0.79869 0.33399 0.0
C558 C 0.0357 0.84423 0.48297 0.0
C559 C 0.99917 0.86164 0.48523 0.0
N560 N 0.93211 0.86011 0.43636 0.0
N561 N 0.07791 0.79924 0.38287 0.0
C562 C 0.96738 0.84368 0.42878 0.0
C563 C 0.04219 0.8135 0.40199 0.0
N564 N 0.94351 0.78961 0.31118 0.0
N565 N 0.06399 0.8574 0.5574 0.0
H566 H 0.08224 0.77525 0.32837 0.0
H567 H 0.10292 0.81138 0.41759 0.0
H568 H 0.05989 0.88001 0.61736 0.0
H569 H 0.0905 0.84437 0.56626 0.0
H570 H 0.91495 0.79437 0.33275 0.0
H571 H 0.94761 0.76601 0.25535 0.0
H572 H 0.90854 0.85113 0.3863 0.0
H573 H 0.92684 0.88409 0.48997 0.0
C574 C 0.67489 0.02632 0.31585 0.0
C575 C 0.69386 0.9947 0.265 0.0
C576 C 0.64957 0.9496 0.36336 0.0
C577 C 0.62864 0.98142 0.40655 0.0
N578 N 0.62795 0.04892 0.45861 0.0
N579 N 0.70793 0.92711 0.27039 0.0
C580 C 0.64351 0.01955 0.39407 0.0
C581 C 0.68443 0.95662 0.30102 0.0
N582 N 0.68623 0.06273 0.28469 0.0
N583 N 0.63471 0.91307 0.37302 0.0
H584 H 0.73256 0.93138 0.21942 0.0
H585 H 0.70465 0.89915 0.30298 0.0
H586 H 0.60901 0.90678 0.41678 0.0
H587 H 0.6464 0.88926 0.33049 0.0
H588 H 0.67089 0.08736 0.30567 0.0
H589 H 0.71084 0.06782 0.23367 0.0
H590 H 0.63919 0.07686 0.46002 0.0
H591 H 0.60575 0.04449 0.51982 0.0
C592 C 0.46797 0.68848 0.42244 0.0
C593 C 0.49939 0.70032 0.3513 0.0
C594 C 0.54037 0.65305 0.44896 0.0
C595 C 0.50778 0.63826 0.50986 0.0
N596 N 0.44396 0.64852 0.58496 0.0
N597 N 0.56762 0.70366 0.3237 0.0
C598 C 0.47267 0.65842 0.50727 0.0
C599 C 0.53651 0.68631 0.37563 0.0
N600 N 0.43322 0.70487 0.40298 0.0
N601 N 0.57431 0.63402 0.4562 0.0
H602 H 0.56513 0.72656 0.2642 0.0
H603 H 0.59579 0.69707 0.34495 0.0
H604 H 0.57818 0.61044 0.51262 0.0
H605 H 0.59805 0.64042 0.40312 0.0
H606 H 0.40762 0.69477 0.43984 0.0
H607 H 0.43024 0.72844 0.34584 0.0
H608 H 0.41871 0.66387 0.5939 0.0
H609 H 0.44656 0.62641 0.64745 0.0
C610 C 0.85027 0.56611 0.22397 0.0
C611 C 0.82479 0.53454 0.23918 0.0
C612 C 0.86112 0.51535 0.41491 0.0
C613 C 0.89181 0.54044 0.3801 0.0
N614 N 0.91593 0.58812 0.23905 0.0
N615 N 0.80711 0.47695 0.34686 0.0
C616 C 0.8864 0.56598 0.28226 0.0
C617 C 0.83027 0.50868 0.33487 0.0
N618 N 0.83952 0.59633 0.1546 0.0
N619 N 0.86096 0.49868 0.5255 0.0
H620 H 0.78407 0.47136 0.29006 0.0
H621 H 0.81256 0.45499 0.40785 0.0
H622 H 0.88185 0.50492 0.58947 0.0
H623 H 0.83781 0.48258 0.55821 0.0
H624 H 0.85585 0.62155 0.1461 0.0
H625 H 0.81213 0.5975 0.11762 0.0
H626 H 0.9138 0.60405 0.16039 0.0
H627 H 0.94346 0.58794 0.27442 0.0
loop_
_geom_bond_atom_site_label_1
_geom_bond_atom_site_label_2
_geom_bond_distance
_geom_bond_site_symmetry_2
_ccdc_geom_bond_type
C0 N1 1.317 . S
C0 N2 1.348 1_554 S
C0 C3 1.485 . S
N1 C0 1.317 . S
N1 N5 1.370 1_554 S
N2 C0 1.348 1_556 S
N2 C4 1.346 . S
C3 C0 1.485 . S
C3 H7 0.960 . S
C3 H8 0.961 . S
C3 H9 0.960 . S
C4 N2 1.346 . S
C4 N5 1.307 . S
C4 C6 1.486 . S
N5 N1 1.370 1_556 S
N5 C4 1.307 . S
C6 C4 1.486 . S
C6 H10 0.960 . S
C6 H11 0.960 . S
C6 H12 0.959 . S
H7 C3 0.960 . S
H8 C3 0.961 . S
H9 C3 0.960 . S
H10 C6 0.960 . S
H11 C6 0.960 . S
H12 C6 0.959 . S
C13 N14 1.317 . S
C13 N15 1.348 . S
C13 C16 1.485 . S
N14 C13 1.317 . S
N14 N18 1.370 1_655 S
N15 C13 1.348 . S
N15 C17 1.346 1_554 S
C16 C13 1.485 . S
C16 H20 0.960 1_655 S
C16 H21 0.961 . S
C16 H22 0.960 . S
C17 N15 1.346 1_556 S
C17 N18 1.307 1_656 S
C17 C19 1.486 1_655 S
N18 N14 1.370 1_455 S
N18 C17 1.307 1_454 S
C19 C17 1.486 1_455 S
C19 H23 0.960 1_455 S
C19 H24 0.960 . S
C19 H25 0.959 . S
H20 C16 0.960 1_455 S
H21 C16 0.961 . S
H22 C16 0.960 . S
H23 C19 0.960 1_655 S
H24 C19 0.960 . S
H25 C19 0.959 . S
C26 N27 1.317 . S
C26 N28 1.348 . S
C26 C29 1.485 . S
N27 C26 1.317 . S
N27 N31 1.371 . S
N28 C26 1.348 . S
N28 C30 1.346 1_564 S
C29 C26 1.485 . S
C29 H33 0.960 1_565 S
C29 H34 0.961 . S
C29 H35 0.960 . S
C30 N28 1.346 1_546 S
C30 N31 1.307 1_546 S
C30 C32 1.486 . S
N31 N27 1.371 . S
N31 C30 1.307 1_564 S
C32 C30 1.486 . S
C32 H36 0.960 1_545 S
C32 H37 0.960 . S
C32 H38 0.959 . S
H33 C29 0.960 1_545 S
H34 C29 0.961 . S
H35 C29 0.960 . S
H36 C32 0.960 1_565 S
H37 C32 0.960 . S
H38 C32 0.959 . S
C39 N40 1.317 . S
C39 N41 1.348 . S
C39 C42 1.485 . S
N40 C39 1.317 . S
N40 N44 1.370 1_554 S
N41 C39 1.348 . S
N41 C43 1.346 1_554 S
C42 C39 1.485 . S
C42 H46 0.960 . S
C42 H47 0.961 . S
C42 H48 0.960 . S
C43 N41 1.346 1_556 S
C43 N44 1.307 . S
C43 C45 1.486 . S
N44 N40 1.370 1_556 S
N44 C43 1.307 . S
C45 C43 1.486 . S
C45 H49 0.960 . S
C45 H50 0.960 . S
C45 H51 0.959 . S
H46 C42 0.960 . S
H47 C42 0.961 . S
H48 C42 0.960 . S
H49 C45 0.960 . S
H50 C45 0.960 . S
H51 C45 0.959 . S
C52 N53 1.317 . S
C52 N54 1.348 . S
C52 C55 1.485 . S
N53 C52 1.317 . S
N53 N57 1.370 . S
N54 C52 1.348 . S
N54 C56 1.346 . S
C55 C52 1.485 . S
C55 H59 0.960 . S
C55 H60 0.961 . S
C55 H61 0.960 1_554 S
C56 N54 1.346 . S
C56 N57 1.307 . S
C56 C58 1.486 . S
N57 N53 1.370 . S
N57 C56 1.307 . S
C58 C56 1.486 . S
C58 H62 0.960 . S
C58 H63 0.960 . S
C58 H64 0.959 . S
H59 C55 0.960 . S
H60 C55 0.961 . S
H61 C55 0.960 1_556 S
H62 C58 0.960 . S
H63 C58 0.960 . S
H64 C58 0.959 . S
C65 N66 1.317 . S
C65 N67 1.348 . S
C65 C68 1.485 . S
N66 C65 1.317 . S
N66 N70 1.370 . S
N67 C65 1.348 . S
N67 C69 1.346 . S
C68 C65 1.485 . S
C68 H72 0.960 . S
C68 H73 0.961 . S
C68 H74 0.960 . S
C69 N67 1.346 . S
C69 N70 1.307 . S
C69 C71 1.486 . S
N70 N66 1.370 . S
N70 C69 1.307 . S
C71 C69 1.486 . S
C71 H75 0.960 . S
C71 H76 0.960 . S
C71 H77 0.959 . S
H72 C68 0.960 . S
H73 C68 0.961 . S
H74 C68 0.960 . S
H75 C71 0.960 . S
H76 C71 0.960 . S
H77 C71 0.959 . S
C78 N79 1.317 . S
C78 N80 1.348 . S
C78 C81 1.485 . S
N79 C78 1.317 . S
N79 N83 1.370 . S
N80 C78 1.348 . S
N80 C82 1.346 . S
C81 C78 1.485 . S
C81 H85 0.960 . S
C81 H86 0.961 1_545 S
C81 H87 0.960 1_545 S
C82 N80 1.346 . S
C82 N83 1.307 . S
C82 C84 1.486 . S
N83 N79 1.370 . S
N83 C82 1.307 . S
C84 C82 1.486 . S
C84 H88 0.960 1_545 S
C84 H89 0.960 . S
C84 H90 0.959 . S
H85 C81 0.960 . S
H86 C81 0.961 1_565 S
H87 C81 0.960 1_565 S
H88 C84 0.960 1_565 S
H89 C84 0.960 . S
H90 C84 0.959 . S
C91 N92 1.317 . S
C91 N93 1.348 . S
C91 C94 1.485 . S
N92 C91 1.317 . S
N92 N96 1.370 . S
N93 C91 1.348 . S
N93 C95 1.346 . S
C94 C91 1.485 . S
C94 H98 0.960 . S
C94 H99 0.961 . S
C94 H100 0.964 . S
C95 N93 1.346 . S
C95 N96 1.307 . S
C95 C97 1.486 . S
N96 N92 1.370 . S
N96 C95 1.307 . S
C97 C95 1.486 . S
C97 H101 0.960 . S
C97 H102 0.960 . S
C97 H103 0.959 . S
H98 C94 0.960 . S
H99 C94 0.961 . S
H100 C94 0.964 . S
H101 C97 0.960 . S
H102 C97 0.960 . S
H103 C97 0.959 . S
O104 Zn105 1.953 . S
O104 C120 1.225 1_545 S
Zn105 O104 1.953 . S
Zn105 O106 1.948 1_545 S
Zn105 O112 1.919 . S
Zn105 O117 1.924 1_545 S
O106 Zn105 1.948 1_565 S
O106 Zn107 1.898 1_465 S
O106 Zn108 1.953 . S
O106 Zn109 1.968 1_455 S
Zn107 O106 1.898 1_645 S
Zn107 O110 1.933 . S
Zn107 O113 1.941 1_655 S
Zn107 O114 1.965 . S
Zn108 O106 1.953 . S
Zn108 O115 1.938 1_565 S
Zn108 O116 1.906 . S
Zn108 O126 1.953 . S
Zn109 O106 1.968 1_655 S
Zn109 O111 1.932 . S
Zn109 O118 1.977 . S
Zn109 O119 1.910 1_655 S
O110 Zn107 1.933 . S
O110 C121 1.226 . S
O111 Zn109 1.932 . S
O111 C121 1.307 1_565 S
O112 Zn105 1.919 . S
O112 C123 1.253 . S
O113 Zn107 1.941 1_455 S
O113 C123 1.283 . S
O114 Zn107 1.965 . S
O114 C122 1.303 1_655 S
O115 Zn108 1.938 1_545 S
O115 C122 1.247 . S
O116 Zn108 1.906 . S
O116 C124 1.304 1_455 S
O117 Zn105 1.924 1_565 S
O117 C125 1.311 . S
O118 Zn109 1.977 . S
O118 C124 1.272 . S
O119 Zn109 1.910 1_455 S
O119 C125 1.231 . S
C120 O104 1.225 1_565 S
C120 O126 1.298 . S
C121 O110 1.226 . S
C121 O111 1.307 1_545 S
C122 O114 1.303 1_455 S
C122 O115 1.247 . S
C123 O112 1.253 . S
C123 O113 1.283 . S
C124 O116 1.304 1_655 S
C124 O118 1.272 . S
C125 O117 1.311 . S
C125 O119 1.231 . S
O126 Zn108 1.953 . S
O126 C120 1.298 . S
O127 Zn128 1.953 . S
O127 C143 1.225 . S
Zn128 O127 1.953 . S
Zn128 O129 1.949 . S
Zn128 O135 1.919 . S
Zn128 O140 1.924 . S
O129 Zn128 1.949 . S
O129 Zn130 1.923 1_545 S
O129 Zn131 1.950 . S
O129 Zn132 1.945 1_545 S
Zn130 O129 1.923 1_565 S
Zn130 O133 1.933 . S
Zn130 O136 1.941 . S
Zn130 O137 1.965 . S
Zn131 O129 1.950 . S
Zn131 O138 1.938 . S
Zn131 O139 1.906 . S
Zn131 O149 1.953 . S
Zn132 O129 1.945 1_565 S
Zn132 O134 1.932 . S
Zn132 O141 1.977 . S
Zn132 O142 1.910 1_565 S
O133 Zn130 1.933 . S
O133 C144 1.226 . S
O134 Zn132 1.932 . S
O134 C144 1.307 . S
O135 Zn128 1.919 . S
O135 C146 1.253 . S
O136 Zn130 1.941 . S
O136 C146 1.283 1_565 S
O137 Zn130 1.965 . S
O137 C145 1.303 1_565 S
O138 Zn131 1.938 . S
O138 C145 1.247 . S
O139 Zn131 1.906 . S
O139 C147 1.304 1_545 S
O140 Zn128 1.924 . S
O140 C148 1.311 . S
O141 Zn132 1.977 . S
O141 C147 1.272 . S
O142 Zn132 1.910 1_545 S
O142 C148 1.231 . S
C143 O127 1.225 . S
C143 O149 1.298 . S
C144 O133 1.226 . S
C144 O134 1.307 . S
C145 O137 1.303 1_545 S
C145 O138 1.247 . S
C146 O135 1.253 . S
C146 O136 1.283 1_545 S
C147 O139 1.304 1_565 S
C147 O141 1.272 . S
C148 O140 1.311 . S
C148 O142 1.231 . S
O149 Zn131 1.953 . S
O149 C143 1.298 . S
O150 Zn151 1.953 . S
O150 C166 1.225 . S
Zn151 O150 1.953 . S
Zn151 O152 1.949 . S
Zn151 O158 1.919 . S
Zn151 O163 1.924 . S
O152 Zn151 1.949 . S
O152 Zn153 1.923 . S
O152 Zn154 1.950 . S
O152 Zn155 1.945 . S
Zn153 O152 1.923 . S
Zn153 O156 1.933 . S
Zn153 O159 1.941 . S
Zn153 O160 1.965 . S
Zn154 O152 1.950 . S
Zn154 O161 1.938 . S
Zn154 O162 1.906 . S
Zn154 O172 1.953 . S
Zn155 O152 1.945 . S
Zn155 O157 1.932 . S
Zn155 O164 1.977 . S
Zn155 O165 1.910 . S
O156 Zn153 1.933 . S
O156 C167 1.226 . S
O157 Zn155 1.932 . S
O157 C167 1.307 . S
O158 Zn151 1.919 . S
O158 C169 1.253 . S
O159 Zn153 1.941 . S
O159 C169 1.283 . S
O160 Zn153 1.965 . S
O160 C168 1.303 . S
O161 Zn154 1.938 . S
O161 C168 1.247 . S
O162 Zn154 1.906 . S
O162 C170 1.304 . S
O163 Zn151 1.924 . S
O163 C171 1.311 . S
O164 Zn155 1.977 . S
O164 C170 1.272 . S
O165 Zn155 1.910 . S
O165 C171 1.231 . S
C166 O150 1.225 . S
C166 O172 1.298 . S
C167 O156 1.226 . S
C167 O157 1.307 . S
C168 O160 1.303 . S
C168 O161 1.247 . S
C169 O158 1.253 . S
C169 O159 1.283 . S
C170 O162 1.304 . S
C170 O164 1.272 . S
C171 O163 1.311 . S
C171 O165 1.231 . S
O172 Zn154 1.953 . S
O172 C166 1.298 . S
O173 Zn174 1.953 1_655 S
O173 C189 1.225 . S
Zn174 O173 1.953 1_455 S
Zn174 O175 1.949 . S
Zn174 O181 1.919 . S
Zn174 O186 1.924 . S
O175 Zn174 1.949 . S
O175 Zn176 1.918 1_455 S
O175 Zn177 1.928 1_455 S
O175 Zn178 1.973 . S
Zn176 O175 1.918 1_655 S
Zn176 O179 1.933 1_655 S
Zn176 O182 1.941 . S
Zn176 O183 1.965 . S
Zn177 O175 1.928 1_655 S
Zn177 O184 1.938 . S
Zn177 O185 1.906 . S
Zn177 O195 1.953 . S
Zn178 O175 1.973 . S
Zn178 O180 1.932 . S
Zn178 O187 1.977 . S
Zn178 O188 1.910 . S
O179 Zn176 1.933 1_455 S
O179 C190 1.226 . S
O180 Zn178 1.932 . S
O180 C190 1.307 . S
O181 Zn174 1.919 . S
O181 C192 1.253 . S
O182 Zn176 1.941 . S
O182 C192 1.281 1_655 S
O183 Zn176 1.965 . S
O183 C191 1.303 . S
O184 Zn177 1.938 . S
O184 C191 1.247 . S
O185 Zn177 1.906 . S
O185 C193 1.304 1_655 S
O186 Zn174 1.924 . S
O186 C194 1.311 . S
O187 Zn178 1.977 . S
O187 C193 1.272 . S
O188 Zn178 1.910 . S
O188 C194 1.231 . S
C189 O173 1.225 . S
C189 O195 1.298 . S
C190 O179 1.226 . S
C190 O180 1.307 . S
C191 O183 1.303 . S
C191 O184 1.247 . S
C192 O181 1.253 . S
C192 O182 1.281 1_455 S
C193 O185 1.304 1_455 S
C193 O187 1.272 . S
C194 O186 1.311 . S
C194 O188 1.231 . S
O195 Zn177 1.953 . S
O195 C189 1.298 . S
C196 C197 1.363 . S
C196 C202 1.379 . S
C196 N204 1.356 . S
C197 C196 1.363 . S
C197 C203 1.363 1_545 S
C198 C199 1.382 . S
C198 C203 1.379 . S
C198 N205 1.356 . S
C199 C198 1.382 . S
C199 C202 1.342 1_565 S
N200 C202 1.356 . S
N200 H212 0.984 . S
N200 H213 0.985 . S
N201 C203 1.356 . S
N201 H206 0.984 . S
N201 H207 0.985 . S
C202 C196 1.379 . S
C202 C199 1.342 1_545 S
C202 N200 1.356 . S
C203 C197 1.363 1_565 S
C203 C198 1.379 . S
C203 N201 1.356 . S
N204 C196 1.356 . S
N204 H210 0.984 . S
N204 H211 0.984 . S
N205 C198 1.356 . S
N205 H208 0.984 . S
N205 H209 0.985 . S
H206 N201 0.984 . S
H207 N201 0.985 . S
H208 N205 0.984 . S
H209 N205 0.985 . S
H210 N204 0.984 . S
H211 N204 0.984 . S
H212 N200 0.984 . S
H213 N200 0.985 . S
C214 C215 1.363 . S
C214 C220 1.379 . S
C214 N222 1.356 . S
C215 C214 1.363 . S
C215 C221 1.363 . S
C216 C217 1.363 . S
C216 C221 1.379 . S
C216 N223 1.356 . S
C217 C216 1.363 . S
C217 C220 1.363 . S
N218 C220 1.356 . S
N218 H230 0.984 . S
N218 H231 0.985 . S
N219 C221 1.356 . S
N219 H224 0.984 . S
N219 H225 0.985 . S
C220 C214 1.379 . S
C220 C217 1.363 . S
C220 N218 1.356 . S
C221 C215 1.363 . S
C221 C216 1.379 . S
C221 N219 1.356 . S
N222 C214 1.356 . S
N222 H228 0.984 . S
N222 H229 0.984 . S
N223 C216 1.356 . S
N223 H226 0.984 . S
N223 H227 0.985 . S
H224 N219 0.984 . S
H225 N219 0.985 . S
H226 N223 0.984 . S
H227 N223 0.985 . S
H228 N222 0.984 . S
H229 N222 0.984 . S
H230 N218 0.984 . S
H231 N218 0.985 . S
C232 C233 1.363 . S
C232 C238 1.379 . S
C232 N240 1.356 . S
C233 C232 1.363 . S
C233 C239 1.363 . S
C234 C235 1.363 . S
C234 C239 1.379 . S
C234 N241 1.356 . S
C235 C234 1.363 . S
C235 C238 1.363 . S
N236 C238 1.356 . S
N236 H248 0.984 . S
N236 H249 0.985 . S
N237 C239 1.356 . S
N237 H242 0.984 . S
N237 H243 0.985 . S
C238 C232 1.379 . S
C238 C235 1.363 . S
C238 N236 1.356 . S
C239 C233 1.363 . S
C239 C234 1.379 . S
C239 N237 1.356 . S
N240 C232 1.356 . S
N240 H246 0.984 . S
N240 H247 0.984 . S
N241 C234 1.356 . S
N241 H244 0.984 . S
N241 H245 0.985 . S
H242 N237 0.984 . S
H243 N237 0.985 . S
H244 N241 0.984 . S
H245 N241 0.985 . S
H246 N240 0.984 . S
H247 N240 0.984 . S
H248 N236 0.984 . S
H249 N236 0.985 . S
C250 C251 1.363 . S
C250 C256 1.379 . S
C250 N258 1.356 . S
C251 C250 1.363 . S
C251 C257 1.363 . S
C252 C253 1.363 . S
C252 C257 1.379 . S
C252 N259 1.356 . S
C253 C252 1.363 . S
C253 C256 1.363 . S
N254 C256 1.356 . S
N254 H266 0.984 . S
N254 H267 0.985 . S
N255 C257 1.356 . S
N255 H260 0.984 . S
N255 H261 0.985 . S
C256 C250 1.379 . S
C256 C253 1.363 . S
C256 N254 1.356 . S
C257 C251 1.363 . S
C257 C252 1.379 . S
C257 N255 1.356 . S
N258 C250 1.356 . S
N258 H264 0.984 . S
N258 H265 0.984 . S
N259 C252 1.356 . S
N259 H262 0.984 . S
N259 H263 0.985 . S
H260 N255 0.984 . S
H261 N255 0.985 . S
H262 N259 0.984 . S
H263 N259 0.985 . S
H264 N258 0.984 . S
H265 N258 0.984 . S
H266 N254 0.984 . S
H267 N254 0.985 . S
C268 C269 1.364 1_565 S
C268 C274 1.379 . S
C268 N276 1.356 1_556 S
C269 C268 1.364 1_545 S
C269 C275 1.362 . S
C270 C271 1.363 . S
C270 C275 1.379 . S
C270 N277 1.356 . S
C271 C270 1.363 . S
C271 C274 1.363 1_545 S
N272 C274 1.356 . S
N272 H284 0.984 . S
N272 H285 0.985 . S
N273 C275 1.356 . S
N273 H278 0.984 . S
N273 H279 0.985 . S
C274 C268 1.379 . S
C274 C271 1.363 1_565 S
C274 N272 1.356 . S
C275 C269 1.362 . S
C275 C270 1.379 . S
C275 N273 1.356 . S
N276 C268 1.356 1_554 S
N276 H282 0.984 . S
N276 H283 0.984 . S
N277 C270 1.356 . S
N277 H280 0.984 . S
N277 H281 0.985 . S
H278 N273 0.984 . S
H279 N273 0.985 . S
H280 N277 0.984 . S
H281 N277 0.985 . S
H282 N276 0.984 . S
H283 N276 0.984 . S
H284 N272 0.984 . S
H285 N272 0.985 . S
C286 C287 1.363 . S
C286 C292 1.379 . S
C286 N294 1.356 1_556 S
C287 C286 1.363 . S
C287 C293 1.363 . S
C288 C289 1.363 . S
C288 C293 1.379 . S
C288 N295 1.356 . S
C289 C288 1.363 . S
C289 C292 1.363 . S
N290 C292 1.356 . S
N290 H302 0.984 . S
N290 H303 0.985 . S
N291 C293 1.356 . S
N291 H296 0.984 . S
N291 H297 0.985 . S
C292 C286 1.379 . S
C292 C289 1.363 . S
C292 N290 1.356 . S
C293 C287 1.363 . S
C293 C288 1.379 . S
C293 N291 1.356 . S
N294 C286 1.356 1_554 S
N294 H300 0.984 . S
N294 H301 0.984 . S
N295 C288 1.356 . S
N295 H298 0.984 . S
N295 H299 0.985 . S
H296 N291 0.984 . S
H297 N291 0.985 . S
H298 N295 0.984 . S
H299 N295 0.985 . S
H300 N294 0.984 . S
H301 N294 0.984 . S
H302 N290 0.984 . S
H303 N290 0.985 . S
C304 C305 1.363 . S
C304 C310 1.379 . S
C304 N312 1.356 . S
C305 C304 1.363 . S
C305 C311 1.363 . S
C306 C307 1.363 . S
C306 C311 1.379 . S
C306 N313 1.356 . S
C307 C306 1.363 . S
C307 C310 1.363 . S
N308 C310 1.356 . S
N308 H320 0.984 . S
N308 H321 0.985 . S
N309 C311 1.356 . S
N309 H314 0.984 1_556 S
N309 H315 0.985 1_556 S
C310 C304 1.379 . S
C310 C307 1.363 . S
C310 N308 1.356 . S
C311 C305 1.363 . S
C311 C306 1.379 . S
C311 N309 1.356 . S
N312 C304 1.356 . S
N312 H318 0.984 . S
N312 H319 0.984 . S
N313 C306 1.356 . S
N313 H316 0.984 . S
N313 H317 0.985 . S
H314 N309 0.984 1_554 S
H315 N309 0.985 1_554 S
H316 N313 0.984 . S
H317 N313 0.985 . S
H318 N312 0.984 . S
H319 N312 0.984 . S
H320 N308 0.984 . S
H321 N308 0.985 . S
C322 C323 1.363 1_655 S
C322 C328 1.379 . S
C322 N330 1.356 . S
C323 C322 1.363 1_455 S
C323 C329 1.363 1_556 S
C324 C325 1.363 . S
C324 C329 1.379 1_556 S
C324 N331 1.356 . S
C325 C324 1.363 . S
C325 C328 1.363 1_455 S
N326 C328 1.356 . S
N326 H338 0.984 . S
N326 H339 0.985 . S
N327 C329 1.356 . S
N327 H332 0.984 . S
N327 H333 0.985 . S
C328 C322 1.379 . S
C328 C325 1.363 1_655 S
C328 N326 1.356 . S
C329 C323 1.363 1_554 S
C329 C324 1.379 1_554 S
C329 N327 1.356 . S
N330 C322 1.356 . S
N330 H336 0.984 . S
N330 H337 0.984 . S
N331 C324 1.356 . S
N331 H334 0.984 . S
N331 H335 0.985 . S
H332 N327 0.984 . S
H333 N327 0.985 . S
H334 N331 0.984 . S
H335 N331 0.985 . S
H336 N330 0.984 . S
H337 N330 0.984 . S
H338 N326 0.984 . S
H339 N326 0.985 . S
C340 C341 1.363 . S
C340 C346 1.379 . S
C340 N348 1.356 . S
C341 C340 1.363 . S
C341 C347 1.363 . S
C342 C343 1.363 . S
C342 C347 1.379 . S
C342 N349 1.356 . S
C343 C342 1.363 . S
C343 C346 1.363 . S
N344 C346 1.356 1_655 S
N344 H356 0.984 . S
N344 H357 0.985 . S
N345 C347 1.356 . S
N345 H350 0.984 . S
N345 H351 0.985 . S
C346 C340 1.379 . S
C346 C343 1.363 . S
C346 N344 1.356 1_455 S
C347 C341 1.363 . S
C347 C342 1.379 . S
C347 N345 1.356 . S
N348 C340 1.356 . S
N348 H354 0.984 1_455 S
N348 H355 0.984 . S
N349 C342 1.356 . S
N349 H352 0.984 . S
N349 H353 0.985 . S
H350 N345 0.984 . S
H351 N345 0.985 . S
H352 N349 0.984 . S
H353 N349 0.985 . S
H354 N348 0.984 1_655 S
H355 N348 0.984 . S
H356 N344 0.984 . S
H357 N344 0.985 . S
C358 C359 1.363 1_565 S
C358 C364 1.379 . S
C358 N366 1.356 . S
C359 C358 1.363 1_545 S
C359 C365 1.363 . S
C360 C361 1.363 . S
C360 C365 1.379 . S
C360 N367 1.356 . S
C361 C360 1.363 . S
C361 C364 1.363 1_545 S
N362 C364 1.356 . S
N362 H374 0.984 . S
N362 H375 0.985 . S
N363 C365 1.356 . S
N363 H368 0.984 . S
N363 H369 0.985 . S
C364 C358 1.379 . S
C364 C361 1.363 1_565 S
C364 N362 1.356 . S
C365 C359 1.363 . S
C365 C360 1.379 . S
C365 N363 1.356 . S
N366 C358 1.356 . S
N366 H372 0.984 . S
N366 H373 0.984 . S
N367 C360 1.356 . S
N367 H370 0.984 . S
N367 H371 0.985 . S
H368 N363 0.984 . S
H369 N363 0.985 . S
H370 N367 0.984 . S
H371 N367 0.985 . S
H372 N366 0.984 . S
H373 N366 0.984 . S
H374 N362 0.984 . S
H375 N362 0.985 . S
C376 C377 1.363 . S
C376 C382 1.379 . S
C376 N384 1.356 . S
C377 C376 1.363 . S
C377 C383 1.363 . S
C378 C379 1.363 . S
C378 C383 1.379 . S
C378 N385 1.356 . S
C379 C378 1.363 . S
C379 C382 1.363 . S
N380 C382 1.356 . S
N380 H392 0.984 . S
N380 H393 0.985 . S
N381 C383 1.356 . S
N381 H386 0.984 . S
N381 H387 0.985 . S
C382 C376 1.379 . S
C382 C379 1.363 . S
C382 N380 1.356 . S
C383 C377 1.363 . S
C383 C378 1.379 . S
C383 N381 1.356 . S
N384 C376 1.356 . S
N384 H390 0.984 . S
N384 H391 0.984 . S
N385 C378 1.356 . S
N385 H388 0.984 . S
N385 H389 0.985 . S
H386 N381 0.984 . S
H387 N381 0.985 . S
H388 N385 0.984 . S
H389 N385 0.985 . S
H390 N384 0.984 . S
H391 N384 0.984 . S
H392 N380 0.984 . S
H393 N380 0.985 . S
C394 C395 1.363 . S
C394 C400 1.379 . S
C394 N402 1.356 . S
C395 C394 1.363 . S
C395 C401 1.363 . S
C396 C397 1.363 . S
C396 C401 1.379 . S
C396 N403 1.356 . S
C397 C396 1.363 . S
C397 C400 1.363 . S
N398 C400 1.356 . S
N398 H410 0.984 . S
N398 H411 0.985 . S
N399 C401 1.356 . S
N399 H404 0.984 . S
N399 H405 0.985 . S
C400 C394 1.379 . S
C400 C397 1.363 . S
C400 N398 1.356 . S
C401 C395 1.363 . S
C401 C396 1.379 . S
C401 N399 1.356 . S
N402 C394 1.356 . S
N402 H408 0.984 . S
N402 H409 0.984 . S
N403 C396 1.356 . S
N403 H406 0.984 . S
N403 H407 0.985 . S
H404 N399 0.984 . S
H405 N399 0.985 . S
H406 N403 0.984 . S
H407 N403 0.985 . S
H408 N402 0.984 . S
H409 N402 0.984 . S
H410 N398 0.984 . S
H411 N398 0.985 . S
C412 C413 1.363 1_556 S
C412 C418 1.379 . S
C412 N420 1.356 . S
C413 C412 1.363 1_554 S
C413 C419 1.363 . S
C414 C415 1.363 1_554 S
C414 C419 1.379 . S
C414 N421 1.356 . S
C415 C414 1.363 1_556 S
C415 C418 1.363 . S
N416 C418 1.356 . S
N416 H428 0.984 . S
N416 H429 0.985 . S
N417 C419 1.356 1_655 S
N417 H422 0.984 . S
N417 H423 0.985 . S
C418 C412 1.379 . S
C418 C415 1.363 . S
C418 N416 1.356 . S
C419 C413 1.363 . S
C419 C414 1.379 . S
C419 N417 1.356 1_455 S
N420 C412 1.356 . S
N420 H426 0.984 . S
N420 H427 0.984 . S
N421 C414 1.356 . S
N421 H424 0.984 . S
N421 H425 0.985 . S
H422 N417 0.984 . S
H423 N417 0.985 . S
H424 N421 0.984 . S
H425 N421 0.985 . S
H426 N420 0.984 . S
H427 N420 0.984 . S
H428 N416 0.984 . S
H429 N416 0.985 . S
C430 C431 1.363 1_565 S
C430 C436 1.379 1_565 S
C430 N438 1.356 . S
C431 C430 1.363 1_545 S
C431 C437 1.363 . S
C432 C433 1.363 . S
C432 C437 1.379 . S
C432 N439 1.356 . S
C433 C432 1.363 . S
C433 C436 1.363 . S
N434 C436 1.356 1_565 S
N434 H446 0.984 . S
N434 H447 0.985 1_565 S
N435 C437 1.356 1_554 S
N435 H440 0.984 . S
N435 H441 0.985 . S
C436 C430 1.379 1_545 S
C436 C433 1.363 . S
C436 N434 1.356 1_545 S
C437 C431 1.363 . S
C437 C432 1.379 . S
C437 N435 1.356 1_556 S
N438 C430 1.356 . S
N438 H444 0.984 . S
N438 H445 0.984 . S
N439 C432 1.356 . S
N439 H442 0.984 . S
N439 H443 0.985 . S
H440 N435 0.984 . S
H441 N435 0.985 . S
H442 N439 0.984 . S
H443 N439 0.985 . S
H444 N438 0.984 . S
H445 N438 0.984 . S
H446 N434 0.984 . S
H447 N434 0.985 1_545 S
C448 C449 1.363 1_554 S
C448 C454 1.379 1_554 S
C448 N456 1.356 . S
C449 C448 1.363 1_556 S
C449 C455 1.363 . S
C450 C451 1.363 . S
C450 C455 1.379 . S
C450 N457 1.356 . S
C451 C450 1.363 . S
C451 C454 1.363 . S
N452 C454 1.356 1_554 S
N452 H464 0.984 . S
N452 H465 0.985 1_554 S
N453 C455 1.356 . S
N453 H458 0.984 . S
N453 H459 0.985 . S
C454 C448 1.379 1_556 S
C454 C451 1.363 . S
C454 N452 1.356 1_556 S
C455 C449 1.363 . S
C455 C450 1.379 . S
C455 N453 1.356 . S
N456 C448 1.356 . S
N456 H462 0.984 . S
N456 H463 0.984 . S
N457 C450 1.356 . S
N457 H460 0.984 . S
N457 H461 0.985 . S
H458 N453 0.984 . S
H459 N453 0.985 . S
H460 N457 0.984 . S
H461 N457 0.985 . S
H462 N456 0.984 . S
H463 N456 0.984 . S
H464 N452 0.984 . S
H465 N452 0.985 1_556 S
C466 C467 1.363 . S
C466 C472 1.379 . S
C466 N474 1.356 . S
C467 C466 1.363 . S
C467 C473 1.363 . S
C468 C469 1.363 . S
C468 C473 1.379 . S
C468 N475 1.356 . S
C469 C468 1.363 . S
C469 C472 1.363 . S
N470 C472 1.356 . S
N470 H482 0.984 . S
N470 H483 0.985 . S
N471 C473 1.356 . S
N471 H476 0.984 1_556 S
N471 H477 0.985 1_556 S
C472 C466 1.379 . S
C472 C469 1.363 . S
C472 N470 1.356 . S
C473 C467 1.363 . S
C473 C468 1.379 . S
C473 N471 1.356 . S
N474 C466 1.356 . S
N474 H480 0.984 . S
N474 H481 0.984 . S
N475 C468 1.356 . S
N475 H478 0.984 . S
N475 H479 0.985 . S
H476 N471 0.984 1_554 S
H477 N471 0.985 1_554 S
H478 N475 0.984 . S
H479 N475 0.985 . S
H480 N474 0.984 . S
H481 N474 0.984 . S
H482 N470 0.984 . S
H483 N470 0.985 . S
C484 C485 1.363 . S
C484 C490 1.379 . S
C484 N492 1.356 . S
C485 C484 1.363 . S
C485 C491 1.363 . S
C486 C487 1.363 . S
C486 C491 1.379 . S
C486 N493 1.356 1_454 S
C487 C486 1.363 . S
C487 C490 1.363 . S
N488 C490 1.356 . S
N488 H500 0.984 . S
N488 H501 0.985 . S
N489 C491 1.356 1_655 S
N489 H494 0.984 1_655 S
N489 H495 0.985 . S
C490 C484 1.379 . S
C490 C487 1.363 . S
C490 N488 1.356 . S
C491 C485 1.363 . S
C491 C486 1.379 . S
C491 N489 1.356 1_455 S
N492 C484 1.356 . S
N492 H498 0.984 . S
N492 H499 0.984 . S
N493 C486 1.356 1_656 S
N493 H496 0.984 . S
N493 H497 0.985 . S
H494 N489 0.984 1_455 S
H495 N489 0.985 . S
H496 N493 0.984 . S
H497 N493 0.985 . S
H498 N492 0.984 . S
H499 N492 0.984 . S
H500 N488 0.984 . S
H501 N488 0.985 . S
C502 C503 1.363 . S
C502 C508 1.379 1_554 S
C502 N510 1.356 . S
C503 C502 1.363 . S
C503 C509 1.363 1_545 S
C504 C505 1.363 1_564 S
C504 C509 1.379 . S
C504 N511 1.356 . S
C505 C504 1.363 1_546 S
C505 C508 1.363 . S
N506 C508 1.356 . S
N506 H518 0.984 . S
N506 H519 0.985 . S
N507 C509 1.356 . S
N507 H512 0.984 . S
N507 H513 0.985 . S
C508 C502 1.379 1_556 S
C508 C505 1.363 . S
C508 N506 1.356 . S
C509 C503 1.363 1_565 S
C509 C504 1.379 . S
C509 N507 1.356 . S
N510 C502 1.356 . S
N510 H516 0.984 1_554 S
N510 H517 0.984 . S
N511 C504 1.356 . S
N511 H514 0.984 . S
N511 H515 0.985 . S
H512 N507 0.984 . S
H513 N507 0.985 . S
H514 N511 0.984 . S
H515 N511 0.985 . S
H516 N510 0.984 1_556 S
H517 N510 0.984 . S
H518 N506 0.984 . S
H519 N506 0.985 . S
C520 C521 1.363 1_556 S
C520 C526 1.379 . S
C520 N528 1.356 . S
C521 C520 1.363 1_554 S
C521 C527 1.363 . S
C522 C523 1.363 1_554 S
C522 C527 1.379 . S
C522 N529 1.356 . S
C523 C522 1.363 1_556 S
C523 C526 1.363 . S
N524 C526 1.356 . S
N524 H536 0.984 . S
N524 H537 0.985 . S
N525 C527 1.356 . S
N525 H530 0.984 . S
N525 H531 0.985 . S
C526 C520 1.379 . S
C526 C523 1.363 . S
C526 N524 1.356 . S
C527 C521 1.363 . S
C527 C522 1.379 . S
C527 N525 1.356 . S
N528 C520 1.356 . S
N528 H534 0.984 . S
N528 H535 0.984 1_556 S
N529 C522 1.356 . S
N529 H532 0.984 . S
N529 H533 0.985 . S
H530 N525 0.984 . S
H531 N525 0.985 . S
H532 N529 0.984 . S
H533 N529 0.985 . S
H534 N528 0.984 . S
H535 N528 0.984 1_554 S
H536 N524 0.984 . S
H537 N524 0.985 . S
C538 C539 1.363 . S
C538 C544 1.379 . S
C538 N546 1.356 . S
C539 C538 1.363 . S
C539 C545 1.363 . S
C540 C541 1.363 . S
C540 C545 1.379 1_556 S
C540 N547 1.356 . S
C541 C540 1.363 . S
C541 C544 1.363 1_556 S
N542 C544 1.356 . S
N542 H554 0.984 . S
N542 H555 0.985 1_554 S
N543 C545 1.356 . S
N543 H548 0.984 . S
N543 H549 0.985 . S
C544 C538 1.379 . S
C544 C541 1.363 1_554 S
C544 N542 1.356 . S
C545 C539 1.363 . S
C545 C540 1.379 1_554 S
C545 N543 1.356 . S
N546 C538 1.356 . S
N546 H552 0.984 . S
N546 H553 0.984 . S
N547 C540 1.356 . S
N547 H550 0.984 . S
N547 H551 0.985 . S
H548 N543 0.984 . S
H549 N543 0.985 . S
H550 N547 0.984 . S
H551 N547 0.985 . S
H552 N546 0.984 . S
H553 N546 0.984 . S
H554 N542 0.984 . S
H555 N542 0.985 1_556 S
C556 C557 1.363 . S
C556 C562 1.379 . S
C556 N564 1.356 . S
C557 C556 1.363 . S
C557 C563 1.363 1_655 S
C558 C559 1.363 1_455 S
C558 C563 1.379 . S
C558 N565 1.356 . S
C559 C558 1.363 1_655 S
C559 C562 1.363 . S
N560 C562 1.356 . S
N560 H572 0.984 . S
N560 H573 0.985 . S
N561 C563 1.356 . S
N561 H566 0.984 . S
N561 H567 0.985 . S
C562 C556 1.379 . S
C562 C559 1.363 . S
C562 N560 1.356 . S
C563 C557 1.363 1_455 S
C563 C558 1.379 . S
C563 N561 1.356 . S
N564 C556 1.356 . S
N564 H570 0.984 . S
N564 H571 0.984 . S
N565 C558 1.356 . S
N565 H568 0.984 . S
N565 H569 0.985 . S
H566 N561 0.984 . S
H567 N561 0.985 . S
H568 N565 0.984 . S
H569 N565 0.985 . S
H570 N564 0.984 . S
H571 N564 0.984 . S
H572 N560 0.984 . S
H573 N560 0.985 . S
C574 C575 1.360 1_545 S
C574 C580 1.375 1_545 S
C574 N582 1.363 . S
C575 C574 1.360 1_565 S
C575 C581 1.363 . S
C576 C577 1.363 . S
C576 C581 1.379 . S
C576 N583 1.356 . S
C577 C576 1.363 . S
C577 C580 1.363 . S
N578 C580 1.356 . S
N578 H590 0.984 1_565 S
N578 H591 0.985 . S
N579 C581 1.356 . S
N579 H584 0.984 . S
N579 H585 0.985 1_554 S
C580 C574 1.375 1_565 S
C580 C577 1.363 . S
C580 N578 1.356 . S
C581 C575 1.363 . S
C581 C576 1.379 . S
C581 N579 1.356 . S
N582 C574 1.363 . S
N582 H588 0.984 . S
N582 H589 0.984 . S
N583 C576 1.356 . S
N583 H586 0.984 . S
N583 H587 0.985 . S
H584 N579 0.984 . S
H585 N579 0.985 1_556 S
H586 N583 0.984 . S
H587 N583 0.985 . S
H588 N582 0.984 . S
H589 N582 0.984 . S
H590 N578 0.984 1_545 S
H591 N578 0.985 . S
C592 C593 1.363 . S
C592 C598 1.379 . S
C592 N600 1.356 . S
C593 C592 1.363 . S
C593 C599 1.363 . S
C594 C595 1.363 . S
C594 C599 1.379 . S
C594 N601 1.356 . S
C595 C594 1.363 . S
C595 C598 1.363 . S
N596 C598 1.356 . S
N596 H608 0.984 . S
N596 H609 0.985 . S
N597 C599 1.356 . S
N597 H602 0.984 . S
N597 H603 0.985 . S
C598 C592 1.379 . S
C598 C595 1.363 . S
C598 N596 1.356 . S
C599 C593 1.363 . S
C599 C594 1.379 . S
C599 N597 1.356 . S
N600 C592 1.356 . S
N600 H606 0.984 . S
N600 H607 0.984 . S
N601 C594 1.356 . S
N601 H604 0.984 . S
N601 H605 0.985 . S
H602 N597 0.984 . S
H603 N597 0.985 . S
H604 N601 0.984 . S
H605 N601 0.985 . S
H606 N600 0.984 . S
H607 N600 0.984 . S
H608 N596 0.984 . S
H609 N596 0.985 . S
C610 C611 1.363 . S
C610 C616 1.379 . S
C610 N618 1.356 . S
C611 C610 1.363 . S
C611 C617 1.363 . S
C612 C613 1.363 . S
C612 C617 1.379 . S
C612 N619 1.356 . S
C613 C612 1.363 . S
C613 C616 1.363 . S
N614 C616 1.356 . S
N614 H626 0.984 . S
N614 H627 0.985 . S
N615 C617 1.356 . S
N615 H620 0.984 . S
N615 H621 0.985 . S
C616 C610 1.379 . S
C616 C613 1.363 . S
C616 N614 1.356 . S
C617 C611 1.363 . S
C617 C612 1.379 . S
C617 N615 1.356 . S
N618 C610 1.356 . S
N618 H624 0.984 . S
N618 H625 0.984 . S
N619 C612 1.356 . S
N619 H622 0.984 . S
N619 H623 0.985 . S
H620 N615 0.984 . S
H621 N615 0.985 . S
H622 N619 0.984 . S
H623 N619 0.985 . S
H624 N618 0.984 . S
H625 N618 0.984 . S
H626 N614 0.984 . S
H627 N614 0.985 . S
C197 N80 1.628 . S
C199 C120 1.630 . S
C217 C143 1.644 . S
C215 N93 1.639 . S
C235 C166 1.647 . S
C233 N54 1.643 . S
C253 C193 1.527 . S
C251 N67 1.615 . S
C271 C121 1.577 . S
C269 N28 1.569 1_546 S
C287 N41 1.533 1_556 S
C289 C144 1.542 . S
C305 N2 1.536 . S
C307 C167 1.540 . S
C323 N15 1.604 1_456 S
C325 C192 1.594 . S
C343 C122 0.775 . S
C341 N70 0.771 . S
C361 C145 0.763 . S
C359 N83 0.764 . S
C379 C168 0.780 . S
C377 N96 0.780 . S
C395 N57 0.969 . S
C397 C194 0.897 . S
C413 N18 1.040 . S
C415 C125 0.967 . S
C433 C148 0.959 . S
C431 N31 1.048 1_546 S
C451 C171 0.930 . S
C449 N44 1.008 . S
C467 N5 0.750 . S
C469 C191 0.753 . S
C485 N66 1.596 . S
C487 C123 1.539 1_554 S
C503 N79 1.578 . S
C505 C146 1.526 . S
C523 C169 1.536 . S
C521 N92 1.587 . S
C541 C190 1.468 . S
C539 N53 1.474 . S
C557 N14 1.708 . S
C559 C124 1.567 . S
C577 C147 1.525 . S
C575 N27 1.659 . S
C595 C170 1.512 . S
C593 N40 1.645 . S
C611 N1 1.694 . S
C613 C189 1.692 . S
