# Generated by pormake.
# Topology nom, (4,4)-cn, num edge types: 1
# Building blocks:
#     Node 0, Type 0, BuildingBlock: MIFKUJ_clean_linker_1, # of connection points: 4
#     Node 1, Type 0, BuildingBlock: MIFKUJ_clean_linker_1, # of connection points: 4
#     Node 2, Type 0, BuildingBlock: MIFKUJ_clean_linker_1, # of connection points: 4
#     Node 3, Type 0, BuildingBlock: MIFKUJ_clean_linker_1, # of connection points: 4
#     Node 4, Type 0, BuildingBlock: MIFKUJ_clean_linker_1, # of connection points: 4
#     Node 5, Type 0, BuildingBlock: MIFKUJ_clean_linker_1, # of connection points: 4
#     Node 6, Type 1, BuildingBlock: UXUYUI_clean_sbu_0, # of connection points: 4
#     Node 7, Type 1, BuildingBlock: UXUYUI_clean_sbu_0, # of connection points: 4
#     Node 8, Type 1, BuildingBlock: UXUYUI_clean_sbu_0, # of connection points: 4
#     Node 9, Type 1, BuildingBlock: UXUYUI_clean_sbu_0, # of connection points: 4
#     Node 10, Type 1, BuildingBlock: UXUYUI_clean_sbu_0, # of connection points: 4
#     Node 11, Type 1, BuildingBlock: UXUYUI_clean_sbu_0, # of connection points: 4
#     Edge 12, Type (0, 1), BuildingBlock: EZIPEK_clean_linker_0, # of connection points: 2
#     Edge 13, Type (0, 1), BuildingBlock: EZIPEK_clean_linker_0, # of connection points: 2
#     Edge 14, Type (0, 1), BuildingBlock: EZIPEK_clean_linker_0, # of connection points: 2
#     Edge 15, Type (0, 1), BuildingBlock: EZIPEK_clean_linker_0, # of connection points: 2
#     Edge 16, Type (0, 1), BuildingBlock: EZIPEK_clean_linker_0, # of connection points: 2
#     Edge 17, Type (0, 1), BuildingBlock: EZIPEK_clean_linker_0, # of connection points: 2
#     Edge 18, Type (0, 1), BuildingBlock: EZIPEK_clean_linker_0, # of connection points: 2
#     Edge 19, Type (0, 1), BuildingBlock: EZIPEK_clean_linker_0, # of connection points: 2
#     Edge 20, Type (0, 1), BuildingBlock: EZIPEK_clean_linker_0, # of connection points: 2
#     Edge 21, Type (0, 1), BuildingBlock: EZIPEK_clean_linker_0, # of connection points: 2
#     Edge 22, Type (0, 1), BuildingBlock: EZIPEK_clean_linker_0, # of connection points: 2
#     Edge 23, Type (0, 1), BuildingBlock: EZIPEK_clean_linker_0, # of connection points: 2
#     Edge 24, Type (0, 1), BuildingBlock: EZIPEK_clean_linker_0, # of connection points: 2
#     Edge 25, Type (0, 1), BuildingBlock: EZIPEK_clean_linker_0, # of connection points: 2
#     Edge 26, Type (0, 1), BuildingBlock: EZIPEK_clean_linker_0, # of connection points: 2
#     Edge 27, Type (0, 1), BuildingBlock: EZIPEK_clean_linker_0, # of connection points: 2
#     Edge 28, Type (0, 1), BuildingBlock: EZIPEK_clean_linker_0, # of connection points: 2
#     Edge 29, Type (0, 1), BuildingBlock: EZIPEK_clean_linker_0, # of connection points: 2
#     Edge 30, Type (0, 1), BuildingBlock: EZIPEK_clean_linker_0, # of connection points: 2
#     Edge 31, Type (0, 1), BuildingBlock: EZIPEK_clean_linker_0, # of connection points: 2
#     Edge 32, Type (0, 1), BuildingBlock: EZIPEK_clean_linker_0, # of connection points: 2
#     Edge 33, Type (0, 1), BuildingBlock: EZIPEK_clean_linker_0, # of connection points: 2
#     Edge 34, Type (0, 1), BuildingBlock: EZIPEK_clean_linker_0, # of connection points: 2
#     Edge 35, Type (0, 1), BuildingBlock: EZIPEK_clean_linker_0, # of connection points: 2
# Relax obj value: 0.035
# Max RMSD: 0.144
# Mean RMSD: 0.118
data_MOF--net-nom--node1-UXUYUI_clean_sbu_0--node2-MIFKUJ_clean_linker_1--edge1-EZIPEK_clean_linker_0
_symmetry_space_group_name_H-M    P1
_symmetry_Int_Tables_number       1
_symmetry_cell_setting            triclinic
loop_
_symmetry_equiv_pos_as_xyz
'x, y, z'
_cell_length_a     51.52585
_cell_length_b     51.530529
_cell_length_c     54.83907
_cell_angle_alpha  89.97721
_cell_angle_beta   90.007032
_cell_angle_gamma 120.00885
loop_
_atom_site_label
_atom_site_type_symbol
_atom_site_fract_x
_atom_site_fract_y
_atom_site_fract_z
_atom_type_partial_charge
H0 H 0.99382 0.47715 0.28058 0.0
H1 H 0.95809 0.45696 0.24665 0.0
H2 H 0.91704 0.50769 0.27078 0.0
H3 H 0.95325 0.52852 0.3045 0.0
H4 H 0.03535 0.53511 0.29038 0.0
H5 H 0.94307 0.45721 0.33035 0.0
H6 H 0.89021 0.43599 0.34226 0.0
H7 H 0.91228 0.51798 0.37982 0.0
H8 H 0.96487 0.53944 0.36765 0.0
H9 H 0.04777 0.57306 0.39264 0.0
H10 H 0.08354 0.58653 0.42645 0.0
H11 H 0.12307 0.53978 0.39131 0.0
H12 H 0.08715 0.52593 0.35758 0.0
H13 H 0.00525 0.5218 0.37739 0.0
H14 H 0.09081 0.60073 0.34301 0.0
H15 H 0.14234 0.63345 0.32899 0.0
H16 H 0.13389 0.56468 0.27951 0.0
H17 H 0.08255 0.53131 0.29407 0.0
C18 C 0.97606 0.50414 0.29524 0.0
C19 C 0.97719 0.484 0.27859 0.0
C20 C 0.9568 0.47241 0.25931 0.0
C21 C 0.93496 0.4808 0.25631 0.0
C22 C 0.93372 0.50092 0.27289 0.0
C23 C 0.95426 0.51266 0.29214 0.0
C24 C 0.99824 0.51649 0.31542 0.0
C25 C 0.02885 0.53176 0.30944 0.0
C26 C 0.98966 0.51379 0.34024 0.0
C27 C 0.95787 0.50004 0.34791 0.0
C28 C 0.93652 0.47067 0.34105 0.0
C29 C 0.90648 0.45853 0.34788 0.0
C30 C 0.89754 0.47554 0.36182 0.0
C31 C 0.91888 0.50462 0.36904 0.0
C32 C 0.94881 0.51676 0.36216 0.0
C33 C 0.06484 0.54861 0.37246 0.0
C34 C 0.0641 0.56567 0.39217 0.0
C35 C 0.0845 0.57343 0.41139 0.0
C36 C 0.10583 0.56411 0.41128 0.0
C37 C 0.10676 0.54719 0.39162 0.0
C38 C 0.08638 0.53944 0.37238 0.0
C39 C 0.04252 0.53952 0.3524 0.0
C40 C 0.01191 0.52498 0.35837 0.0
C41 C 0.05111 0.54403 0.32754 0.0
C42 C 0.08285 0.56331 0.31987 0.0
C43 C 0.10015 0.59233 0.32954 0.0
C44 C 0.12943 0.61111 0.32144 0.0
C45 C 0.14173 0.60137 0.30328 0.0
C46 C 0.12464 0.57246 0.29357 0.0
C47 C 0.09542 0.55353 0.30184 0.0
H48 H 0.43887 0.96569 0.53509 0.0
H49 H 0.4071 0.91357 0.54825 0.0
H50 H 0.46638 0.88929 0.51239 0.0
H51 H 0.49864 0.94167 0.49949 0.0
H52 H 0.4971 0.0053 0.54525 0.0
H53 H 0.43918 0.95373 0.47144 0.0
H54 H 0.42412 0.91694 0.43817 0.0
H55 H 0.51664 0.95468 0.41697 0.0
H56 H 0.53182 0.99119 0.45033 0.0
H57 H 0.56759 0.08227 0.46257 0.0
H58 H 0.58654 0.13405 0.44855 0.0
H59 H 0.52376 0.14158 0.49577 0.0
H60 H 0.50431 0.08982 0.50942 0.0
H61 H 0.51577 0.03434 0.45803 0.0
H62 H 0.57654 0.08436 0.52538 0.0
H63 H 0.59971 0.12043 0.55884 0.0
H64 H 0.51307 0.08645 0.59256 0.0
H65 H 0.48981 0.05022 0.55917 0.0
C66 C 0.471 0.95756 0.51612 0.0
C67 C 0.44517 0.94923 0.53013 0.0
C68 C 0.42702 0.91956 0.53758 0.0
C69 C 0.43443 0.89774 0.53119 0.0
C70 C 0.46034 0.90593 0.51738 0.0
C71 C 0.47861 0.93571 0.50997 0.0
C72 C 0.48974 0.98922 0.50822 0.0
C73 C 0.50093 0.01168 0.52616 0.0
C74 C 0.49629 0.99749 0.48339 0.0
C75 C 0.48667 0.97504 0.46348 0.0
C76 C 0.45625 0.95393 0.45978 0.0
C77 C 0.44765 0.93305 0.44082 0.0
C78 C 0.46933 0.93318 0.42525 0.0
C79 C 0.49967 0.95428 0.42888 0.0
C80 C 0.50826 0.9751 0.44781 0.0
C81 C 0.53475 0.08221 0.48729 0.0
C82 C 0.55792 0.09505 0.46995 0.0
C83 C 0.56877 0.12452 0.462 0.0
C84 C 0.55652 0.14147 0.47122 0.0
C85 C 0.53353 0.1288 0.48859 0.0
C86 C 0.52262 0.09937 0.49646 0.0
C87 C 0.52208 0.05048 0.49504 0.0
C88 C 0.51214 0.02803 0.47713 0.0
C89 C 0.51763 0.04214 0.51993 0.0
C90 C 0.5314 0.06468 0.53971 0.0
C91 C 0.56246 0.08484 0.53983 0.0
C92 C 0.57569 0.10534 0.5589 0.0
C93 C 0.55805 0.10608 0.57806 0.0
C94 C 0.52699 0.08618 0.57787 0.0
C95 C 0.51378 0.06552 0.5589 0.0
H96 H 0.53377 0.5601 0.71648 0.0
H97 H 0.51784 0.58121 0.74944 0.0
H98 H 0.42616 0.52881 0.72539 0.0
H99 H 0.44194 0.50711 0.69261 0.0
H100 H 0.51711 0.5011 0.70865 0.0
H101 H 0.50448 0.57866 0.66347 0.0
H102 H 0.47215 0.59861 0.65029 0.0
H103 H 0.40963 0.51261 0.61945 0.0
H104 H 0.44194 0.49277 0.63237 0.0
H105 H 0.50072 0.46508 0.60461 0.0
H106 H 0.52869 0.45521 0.57303 0.0
H107 H 0.60987 0.5044 0.61485 0.0
H108 H 0.5823 0.51466 0.64615 0.0
H109 H 0.50361 0.5139 0.62074 0.0
H110 H 0.50931 0.43599 0.65673 0.0
H111 H 0.52833 0.40355 0.67106 0.0
H112 H 0.58788 0.47259 0.72075 0.0
H113 H 0.5692 0.50543 0.70622 0.0
C114 C 0.4891 0.5322 0.70195 0.0
C115 C 0.51023 0.55311 0.71826 0.0
C116 C 0.50121 0.56523 0.73698 0.0
C117 C 0.47089 0.55657 0.73974 0.0
C118 C 0.44967 0.53577 0.72343 0.0
C119 C 0.4587 0.52354 0.70472 0.0
C120 C 0.49922 0.51921 0.68251 0.0
C121 C 0.51459 0.50429 0.68942 0.0
C122 C 0.49399 0.52139 0.65745 0.0
C123 C 0.47547 0.53421 0.64898 0.0
C124 C 0.48386 0.56417 0.65382 0.0
C125 C 0.46551 0.57552 0.64631 0.0
C126 C 0.43852 0.55699 0.634 0.0
C127 C 0.43036 0.52718 0.62894 0.0
C128 C 0.44879 0.51594 0.63624 0.0
C129 C 0.53932 0.49035 0.62791 0.0
C130 C 0.52452 0.47373 0.60699 0.0
C131 C 0.54038 0.468 0.58906 0.0
C132 C 0.57123 0.47899 0.59178 0.0
C133 C 0.58602 0.49562 0.61258 0.0
C134 C 0.57024 0.50132 0.63045 0.0
C135 C 0.523 0.49721 0.64688 0.0
C136 C 0.50631 0.51076 0.63994 0.0
C137 C 0.5257 0.49242 0.67195 0.0
C138 C 0.53803 0.47329 0.68023 0.0
C139 C 0.52675 0.44438 0.67047 0.0
C140 C 0.53742 0.42581 0.6787 0.0
C141 C 0.55942 0.43577 0.69692 0.0
C142 C 0.57086 0.46462 0.70668 0.0
C143 C 0.56017 0.48325 0.69843 0.0
H144 H 0.04999 0.56015 0.78323 0.0
H145 H 0.08653 0.58012 0.74984 0.0
H146 H 0.12284 0.52465 0.77269 0.0
H147 H 0.08595 0.50425 0.80608 0.0
H148 H 0.00631 0.50089 0.79145 0.0
H149 H 0.10044 0.57602 0.8313 0.0
H150 H 0.15242 0.5936 0.84385 0.0
H151 H 0.12305 0.51251 0.88533 0.0
H152 H 0.07135 0.49435 0.8721 0.0
H153 H 0.988 0.46778 0.89589 0.0
H154 H 0.95104 0.45926 0.9279 0.0
H155 H 0.91998 0.5093 0.88614 0.0
H156 H 0.95685 0.51806 0.8543 0.0
H157 H 0.03413 0.5159 0.87898 0.0
H158 H 0.94804 0.43878 0.84556 0.0
H159 H 0.89664 0.40656 0.83111 0.0
H160 H 0.9088 0.47315 0.77775 0.0
H161 H 0.9601 0.50604 0.79263 0.0
C162 C 0.06536 0.53086 0.79725 0.0
C163 C 0.06577 0.55222 0.78108 0.0
C164 C 0.08661 0.56367 0.76211 0.0
C165 C 0.10732 0.55387 0.75891 0.0
C166 C 0.10702 0.53249 0.77498 0.0
C167 C 0.08608 0.52095 0.794 0.0
C168 C 0.04275 0.51892 0.81712 0.0
C169 C 0.01234 0.50455 0.81061 0.0
C170 C 0.05064 0.5217 0.84212 0.0
C171 C 0.08202 0.53362 0.85042 0.0
C172 C 0.10518 0.56189 0.8429 0.0
C173 C 0.13476 0.572 0.85016 0.0
C174 C 0.14147 0.55425 0.86542 0.0
C175 C 0.11826 0.52644 0.8735 0.0
C176 C 0.08882 0.51618 0.86601 0.0
C177 C 0.97504 0.49332 0.87255 0.0
C178 C 0.97326 0.47693 0.89362 0.0
C179 C 0.9522 0.472 0.91182 0.0
C180 C 0.93284 0.48361 0.90926 0.0
C181 C 0.93469 0.5001 0.88833 0.0
C182 C 0.95561 0.50493 0.87015 0.0
C183 C 0.99765 0.49921 0.85328 0.0
C184 C 0.02798 0.51228 0.85985 0.0
C185 C 0.98964 0.49379 0.82834 0.0
C186 C 0.95793 0.47507 0.8204 0.0
C187 C 0.93956 0.44684 0.83111 0.0
C188 C 0.91033 0.42834 0.82278 0.0
C189 C 0.89913 0.43758 0.80341 0.0
C190 C 0.91722 0.46576 0.79273 0.0
C191 C 0.94642 0.48441 0.80119 0.0
H192 H 0.60116 0.07199 0.0355 0.0
H193 H 0.63351 0.12406 0.04852 0.0
H194 H 0.57477 0.14924 0.0129 0.0
H195 H 0.54188 0.09691 1.0002 0.0
H196 H 0.54326 0.03277 0.04576 0.0
H197 H 0.60066 0.08422 0.97192 0.0
H198 H 0.61604 0.12095 0.93856 0.0
H199 H 0.52359 0.08412 0.91748 0.0
H200 H 0.50809 0.0477 0.95095 0.0
H201 H 0.47035 0.95531 0.96479 0.0
H202 H 0.45141 0.90353 0.95075 0.0
H203 H 0.51835 0.89815 0.99414 0.0
H204 H 0.53741 0.94974 0.00806 0.0
H205 H 0.52345 0.00409 0.95853 0.0
H206 H 0.46365 0.9537 0.02629 0.0
H207 H 0.44112 0.91736 0.05967 0.0
H208 H 0.52833 0.95129 0.0923 0.0
H209 H 0.55097 0.98778 0.05897 0.0
C210 C 0.56924 0.08059 0.01669 0.0
C211 C 0.59508 0.08863 0.0306 0.0
C212 C 0.61355 0.11826 0.03797 0.0
C213 C 0.60646 0.14031 0.03158 0.0
C214 C 0.58053 0.1324 0.0179 0.0
C215 C 0.56192 0.10267 0.0106 0.0
C216 C 0.55024 0.04902 0.00876 0.0
C217 C 0.53918 0.02649 0.02667 0.0
C218 C 0.54342 0.04087 0.98393 0.0
C219 C 0.55319 0.06339 0.96406 0.0
C220 C 0.58368 0.08423 0.96029 0.0
C221 C 0.59246 0.10507 0.94127 0.0
C222 C 0.57089 0.10516 0.92569 0.0
C223 C 0.54048 0.08436 0.9294 0.0
C224 C 0.53171 0.06359 0.9484 0.0
C225 C 0.50508 0.95628 0.98767 0.0
C226 C 0.48086 0.94295 0.97135 0.0
C227 C 0.47005 0.9135 0.96338 0.0
C228 C 0.48354 0.89719 0.97147 0.0
C229 C 0.50765 0.91044 0.98781 0.0
C230 C 0.51837 0.93976 0.99582 0.0
C231 C 0.51761 0.98789 0.99548 0.0
C232 C 0.52732 0.01037 0.97763 0.0
C233 C 0.52241 0.99608 0.02037 0.0
C234 C 0.50903 0.97338 0.04009 0.0
C235 C 0.478 0.95315 0.04048 0.0
C236 C 0.46513 0.93249 0.05949 0.0
C237 C 0.48311 0.93167 0.07834 0.0
C238 C 0.51415 0.95162 0.07785 0.0
C239 C 0.527 0.97244 0.05893 0.0
H240 H 0.50403 0.46637 0.20934 0.0
H241 H 0.51819 0.4448 0.24325 0.0
H242 H 0.60945 0.51761 0.23823 0.0
H243 H 0.59541 0.53863 0.20369 0.0
H244 H 0.518 0.53244 0.20899 0.0
H245 H 0.54207 0.46148 0.16828 0.0
H246 H 0.57713 0.4444 0.15668 0.0
H247 H 0.63417 0.52935 0.12179 0.0
H248 H 0.59983 0.54694 0.13412 0.0
H249 H 0.54823 0.57641 0.10771 0.0
H250 H 0.52584 0.58958 0.07375 0.0
H251 H 0.43876 0.53901 0.10713 0.0
H252 H 0.46088 0.5254 0.14092 0.0
H253 H 0.54228 0.52654 0.12238 0.0
H254 H 0.53213 0.60135 0.15871 0.0
H255 H 0.51284 0.63355 0.17295 0.0
H256 H 0.44769 0.56147 0.21759 0.0
H257 H 0.46659 0.52883 0.20305 0.0
C258 C 0.54871 0.504 0.20407 0.0
C259 C 0.52711 0.47755 0.21545 0.0
C260 C 0.53517 0.46526 0.23471 0.0
C261 C 0.56483 0.47966 0.24327 0.0
C262 C 0.58647 0.50616 0.23186 0.0
C263 C 0.5785 0.51814 0.21224 0.0
C264 C 0.53965 0.51706 0.18407 0.0
C265 C 0.52282 0.53076 0.18998 0.0
C266 C 0.54798 0.51679 0.15955 0.0
C267 C 0.56852 0.50569 0.1524 0.0
C268 C 0.56233 0.47664 0.1585 0.0
C269 C 0.58216 0.4668 0.15174 0.0
C270 C 0.60819 0.48568 0.13845 0.0
C271 C 0.61421 0.51453 0.13209 0.0
C272 C 0.59458 0.52446 0.13904 0.0
C273 C 0.5063 0.55004 0.12698 0.0
C274 C 0.52432 0.56812 0.10776 0.0
C275 C 0.51163 0.57572 0.08846 0.0
C276 C 0.48072 0.56523 0.08803 0.0
C277 C 0.46267 0.54733 0.10724 0.0
C278 C 0.47534 0.53973 0.12653 0.0
C279 C 0.51948 0.54098 0.14712 0.0
C280 C 0.53719 0.52816 0.14133 0.0
C281 C 0.51359 0.54374 0.17192 0.0
C282 C 0.50058 0.5625 0.17957 0.0
C283 C 0.51333 0.59219 0.17121 0.0
C284 C 0.50252 0.61065 0.17943 0.0
C285 C 0.47895 0.59981 0.19629 0.0
C286 C 0.46593 0.57012 0.20456 0.0
C287 C 0.47673 0.5516 0.1963 0.0
Li288 Li 0.6395 0.40974 0.43959 0.0
Li289 Li 0.62913 0.36248 0.42009 0.0
Li290 Li 0.67738 0.40985 0.41212 0.0
Li291 Li 0.63082 0.40309 0.39515 0.0
C292 C 0.67695 0.3925 0.46422 0.0
N293 N 0.70765 0.40245 0.50765 0.0
C294 C 0.66723 0.3697 0.48163 0.0
C295 C 0.70248 0.42019 0.46873 0.0
C296 C 0.683 0.37522 0.50353 0.0
C297 C 0.71764 0.42483 0.49084 0.0
C298 C 0.57461 0.361 0.41227 0.0
C299 C 0.5435 0.32202 0.38383 0.0
N300 N 0.51916 0.3232 0.39194 0.0
C301 C 0.54931 0.36183 0.42033 0.0
C302 C 0.57172 0.34095 0.39388 0.0
C303 C 0.52147 0.34253 0.40982 0.0
C304 C 0.63086 0.45104 0.46765 0.0
N305 N 0.63218 0.42544 0.46868 0.0
C306 C 0.6214 0.42104 0.51135 0.0
C307 C 0.62632 0.40975 0.48977 0.0
C308 C 0.62369 0.4496 0.51186 0.0
C309 C 0.62601 0.46311 0.48883 0.0
H310 H 0.6333 0.462 0.45028 0.0
H311 H 0.62486 0.38809 0.48978 0.0
C312 C 0.62918 0.30817 0.41813 0.0
N313 N 0.61323 0.321 0.42613 0.0
C314 C 0.62025 0.27857 0.42435 0.0
C315 C 0.57832 0.27583 0.44648 0.0
C316 C 0.58819 0.30556 0.44001 0.0
C317 C 0.59469 0.26227 0.43883 0.0
H318 H 0.64927 0.32123 0.40745 0.0
H319 H 0.57632 0.31656 0.44651 0.0
C320 C 0.68364 0.46787 0.41302 0.0
N321 N 0.72748 0.52771 0.41301 0.0
C322 C 0.69284 0.48384 0.3911 0.0
C323 C 0.69665 0.48243 0.43495 0.0
C324 C 0.71507 0.51404 0.39148 0.0
C325 C 0.71879 0.51267 0.43456 0.0
C326 C 0.65898 0.38133 0.36484 0.0
C327 C 0.67861 0.40958 0.35515 0.0
C328 C 0.64833 0.35594 0.35007 0.0
C329 C 0.68728 0.41199 0.33075 0.0
C330 C 0.65749 0.35927 0.32573 0.0
N331 N 0.67661 0.387 0.31666 0.0
C332 C 0.72416 0.40066 0.39914 0.0
C333 C 0.74108 0.45215 0.40579 0.0
C334 C 0.75292 0.40725 0.39224 0.0
N335 N 0.71869 0.42301 0.40548 0.0
C336 C 0.77014 0.45976 0.39895 0.0
C337 C 0.77611 0.43714 0.39191 0.0
H338 H 0.70597 0.37768 0.39906 0.0
H339 H 0.73659 0.46962 0.41107 0.0
C340 C 0.61788 0.44113 0.36785 0.0
N341 N 0.61485 0.41336 0.36771 0.0
C342 C 0.60929 0.45147 0.34761 0.0
C343 C 0.59297 0.4038 0.32789 0.0
C344 C 0.60243 0.39457 0.34837 0.0
C345 C 0.59684 0.43276 0.32727 0.0
H346 H 0.62749 0.45548 0.38355 0.0
H347 H 0.60024 0.3726 0.34866 0.0
O348 O 0.66167 0.38748 0.44277 0.0
O349 O 0.602 0.3799 0.42235 0.0
O350 O 0.66167 0.43833 0.41303 0.0
O351 O 0.64985 0.37844 0.38858 0.0
H352 H 0.64759 0.34805 0.4783 0.0
H353 H 0.71058 0.43786 0.45527 0.0
H354 H 0.67564 0.35785 0.51725 0.0
H355 H 0.73739 0.4462 0.49461 0.0
H356 H 0.54095 0.30642 0.36957 0.0
H357 H 0.5512 0.37726 0.43454 0.0
H358 H 0.59103 0.34 0.38736 0.0
H359 H 0.50169 0.34294 0.41587 0.0
H360 H 0.61497 0.40658 0.52709 0.0
H361 H 0.62334 0.48241 0.48651 0.0
H362 H 0.63335 0.26864 0.41829 0.0
H363 H 0.55859 0.26375 0.45781 0.0
H364 H 0.68297 0.47308 0.37394 0.0
H365 H 0.6899 0.47054 0.4521 0.0
H366 H 0.72244 0.52662 0.37464 0.0
H367 H 0.72909 0.52417 0.45139 0.0
H368 H 0.68703 0.4294 0.36636 0.0
H369 H 0.63303 0.33391 0.35733 0.0
H370 H 0.70246 0.43373 0.323 0.0
H371 H 0.64938 0.33983 0.31406 0.0
H372 H 0.75696 0.38935 0.3869 0.0
H373 H 0.78775 0.48304 0.39894 0.0
H374 H 0.6124 0.47388 0.34775 0.0
H375 H 0.58327 0.38878 0.31252 0.0
Li376 Li 0.24884 0.63573 0.60724 0.0
Li377 Li 0.28814 0.62902 0.58739 0.0
Li378 Li 0.28656 0.67597 0.58153 0.0
Li379 Li 0.24899 0.63011 0.56224 0.0
C380 C 0.3006 0.67937 0.63102 0.0
N381 N 0.31585 0.71994 0.66874 0.0
C382 C 0.32353 0.68408 0.64715 0.0
C383 C 0.28543 0.69529 0.63403 0.0
C384 C 0.33091 0.70469 0.66613 0.0
C385 C 0.29347 0.71571 0.65322 0.0
C386 C 0.23523 0.57334 0.57765 0.0
C387 C 0.24207 0.54319 0.54754 0.0
N388 N 0.21704 0.51853 0.55593 0.0
C389 C 0.20955 0.54774 0.58596 0.0
C390 C 0.25162 0.57111 0.55828 0.0
C391 C 0.20073 0.52021 0.57475 0.0
C392 C 0.19664 0.62121 0.63488 0.0
N393 N 0.22461 0.62474 0.63575 0.0
C394 C 0.21725 0.60778 0.67711 0.0
C395 C 0.2352 0.61843 0.65629 0.0
C396 C 0.18818 0.60354 0.6766 0.0
C397 C 0.17792 0.61062 0.65531 0.0
H398 H 0.18867 0.62597 0.61816 0.0
H399 H 0.25738 0.62104 0.65631 0.0
C400 C 0.34397 0.63215 0.58693 0.0
N401 N 0.31456 0.61394 0.59253 0.0
C402 C 0.365 0.62357 0.59276 0.0
C403 C 0.32495 0.57742 0.60958 0.0
C404 C 0.30472 0.587 0.60361 0.0
C405 C 0.35549 0.59601 0.60439 0.0
H406 H 0.35115 0.65368 0.5785 0.0
H407 H 0.28132 0.57329 0.60835 0.0
C408 C 0.23213 0.67701 0.57296 0.0
N409 N 0.21173 0.71399 0.55565 0.0
C410 C 0.234 0.68376 0.5481 0.0
C411 C 0.21953 0.68878 0.58897 0.0
C412 C 0.22366 0.70256 0.53972 0.0
C413 C 0.20946 0.70753 0.57987 0.0
C414 C 0.30484 0.65945 0.53443 0.0
C415 C 0.30373 0.68247 0.52184 0.0
C416 C 0.31876 0.64498 0.52367 0.0
C417 C 0.31616 0.69031 0.49851 0.0
C418 C 0.33087 0.65342 0.50028 0.0
N419 N 0.32931 0.67571 0.48829 0.0
C420 C 0.34165 0.72554 0.57109 0.0
C421 C 0.30403 0.7387 0.57663 0.0
C422 C 0.3625 0.75492 0.56451 0.0
N423 N 0.31293 0.7179 0.57653 0.0
C424 C 0.32414 0.76836 0.57007 0.0
C425 C 0.35357 0.77648 0.56362 0.0
H426 H 0.34811 0.70853 0.57119 0.0
H427 H 0.28129 0.73232 0.58133 0.0
C428 C 0.19513 0.60925 0.53669 0.0
N429 N 0.22347 0.61399 0.53437 0.0
C430 C 0.1758 0.59997 0.51667 0.0
C431 C 0.21473 0.5995 0.49239 0.0
C432 C 0.23335 0.60882 0.5129 0.0
C433 C 0.18578 0.59541 0.49417 0.0
H434 H 0.18781 0.61339 0.55401 0.0
H435 H 0.25574 0.61225 0.51155 0.0
O436 O 0.29316 0.65927 0.61237 0.0
O437 O 0.24391 0.60048 0.58825 0.0
O438 O 0.24204 0.65859 0.58163 0.0
O439 O 0.29303 0.65148 0.55738 0.0
H440 H 0.33548 0.6719 0.64503 0.0
H441 H 0.26767 0.69194 0.62171 0.0
H442 H 0.3486 0.70855 0.67878 0.0
H443 H 0.28192 0.72819 0.65577 0.0
H444 H 0.25454 0.54114 0.53253 0.0
H445 H 0.19658 0.54917 0.60089 0.0
H446 H 0.27145 0.59071 0.55159 0.0
H447 H 0.18091 0.5002 0.58098 0.0
H448 H 0.22568 0.60235 0.69326 0.0
H449 H 0.1555 0.60741 0.65439 0.0
H450 H 0.38847 0.63842 0.58865 0.0
H451 H 0.31702 0.55609 0.61867 0.0
H452 H 0.24307 0.67439 0.53536 0.0
H453 H 0.21766 0.6836 0.60824 0.0
H454 H 0.22502 0.70798 0.52054 0.0
H455 H 0.19981 0.71692 0.59208 0.0
H456 H 0.29378 0.69447 0.53006 0.0
H457 H 0.32016 0.62736 0.53327 0.0
H458 H 0.31546 0.70809 0.48858 0.0
H459 H 0.34156 0.6423 0.49169 0.0
H460 H 0.38512 0.76063 0.55966 0.0
H461 H 0.31675 0.78468 0.56964 0.0
H462 H 0.1535 0.59688 0.51857 0.0
H463 H 0.22293 0.59593 0.47525 0.0
Li464 Li 0.67863 0.28564 0.75411 0.0
Li465 Li 0.6326 0.24794 0.77464 0.0
Li466 Li 0.63829 0.248 0.72958 0.0
Li467 Li 0.6301 0.28596 0.74806 0.0
C468 C 0.68467 0.23624 0.75834 0.0
N469 N 0.73256 0.22696 0.76503 0.0
C470 C 0.68665 0.22219 0.7795 0.0
C471 C 0.70689 0.24531 0.74049 0.0
C472 C 0.71107 0.21775 0.78256 0.0
C473 C 0.73098 0.24051 0.74424 0.0
C474 C 0.65575 0.30672 0.79952 0.0
C475 C 0.63691 0.32999 0.82707 0.0
N476 N 0.66058 0.3375 0.84215 0.0
C477 C 0.68005 0.31499 0.81519 0.0
C478 C 0.63415 0.31457 0.8054 0.0
C479 C 0.68202 0.33039 0.8367 0.0
C480 C 0.73484 0.33733 0.74621 0.0
N481 N 0.7205 0.31149 0.7593 0.0
C482 C 0.76439 0.3259 0.78327 0.0
C483 C 0.73465 0.30542 0.77748 0.0
C484 C 0.77941 0.35298 0.77044 0.0
C485 C 0.76457 0.35862 0.75155 0.0
H486 H 0.72287 0.3418 0.73214 0.0
H487 H 0.72253 0.28522 0.78817 0.0
C488 C 0.59396 0.19626 0.80238 0.0
N489 N 0.61902 0.2238 0.80339 0.0
C490 C 0.58523 0.17725 0.82263 0.0
C491 C 0.62824 0.21524 0.84454 0.0
C492 C 0.63611 0.23351 0.8239 0.0
C493 C 0.60267 0.1867 0.84389 0.0
H494 H 0.58115 0.18879 0.78568 0.0
H495 H 0.65645 0.25499 0.82396 0.0
C496 C 0.66321 0.29301 0.69909 0.0
N497 N 0.66554 0.29263 0.64878 0.0
C498 C 0.64066 0.29348 0.68527 0.0
C499 C 0.68715 0.29276 0.68735 0.0
C500 C 0.64219 0.29318 0.65984 0.0
C501 C 0.68786 0.29246 0.66189 0.0
C502 C 0.57465 0.23415 0.75747 0.0
C503 C 0.549 0.21679 0.74346 0.0
C504 C 0.57179 0.24356 0.78069 0.0
C505 C 0.52094 0.20954 0.75281 0.0
C506 C 0.54335 0.23582 0.78942 0.0
N507 N 0.51872 0.21914 0.77541 0.0
C508 C 0.64331 0.21021 0.69345 0.0
C509 C 0.6026 0.2191 0.68918 0.0
C510 C 0.63401 0.19181 0.6728 0.0
N511 N 0.62749 0.22329 0.70121 0.0
C512 C 0.59244 0.20081 0.66857 0.0
C513 C 0.60813 0.18682 0.66032 0.0
H514 H 0.66294 0.21381 0.70336 0.0
H515 H 0.59065 0.23002 0.69563 0.0
C516 C 0.63386 0.34187 0.74638 0.0
N517 N 0.6147 0.31216 0.74259 0.0
C518 C 0.62541 0.3629 0.74026 0.0
C519 C 0.57754 0.32235 0.72666 0.0
C520 C 0.58694 0.30209 0.73297 0.0
C521 C 0.59707 0.35309 0.73007 0.0
H522 H 0.65601 0.34922 0.75362 0.0
H523 H 0.57249 0.2785 0.7294 0.0
O524 O 0.66105 0.24101 0.75516 0.0
O525 O 0.65377 0.29214 0.77809 0.0
O526 O 0.66162 0.29236 0.72399 0.0
O527 O 0.6023 0.24157 0.74847 0.0
H528 H 0.66953 0.2148 0.79342 0.0
H529 H 0.70574 0.25626 0.72405 0.0
H530 H 0.71293 0.20699 0.79888 0.0
H531 H 0.74845 0.24761 0.73065 0.0
H532 H 0.62029 0.33609 0.83185 0.0
H533 H 0.69708 0.30933 0.81096 0.0
H534 H 0.61548 0.30901 0.79335 0.0
H535 H 0.70062 0.33672 0.84904 0.0
H536 H 0.77528 0.32115 0.7981 0.0
H537 H 0.77566 0.37947 0.74145 0.0
H538 H 0.5655 0.15518 0.82159 0.0
H539 H 0.6423 0.22294 0.86062 0.0
H540 H 0.62195 0.29363 0.69408 0.0
H541 H 0.70495 0.29273 0.69779 0.0
H542 H 0.62476 0.29326 0.64891 0.0
H543 H 0.70617 0.29209 0.65255 0.0
H544 H 0.5507 0.20904 0.72553 0.0
H545 H 0.59124 0.2563 0.792 0.0
H546 H 0.50092 0.19624 0.74212 0.0
H547 H 0.54086 0.24297 0.80739 0.0
H548 H 0.64654 0.18125 0.66681 0.0
H549 H 0.57242 0.1974 0.65927 0.0
H550 H 0.64097 0.38656 0.74295 0.0
H551 H 0.55562 0.31424 0.7186 0.0
Li552 Li 0.40308 0.6302 0.93698 0.0
Li553 Li 0.41222 0.67706 0.91798 0.0
Li554 Li 0.36555 0.63128 0.91048 0.0
Li555 Li 0.41011 0.63798 0.89084 0.0
C556 C 0.38377 0.66408 0.96466 0.0
N557 N 0.39061 0.6895 0.01028 0.0
C558 C 0.41237 0.68234 0.97431 0.0
C559 C 0.35862 0.65891 0.97816 0.0
C560 C 0.41539 0.69497 0.9974 0.0
C561 C 0.36254 0.67189 1.00122 0.0
C562 C 0.4691 0.67576 0.92156 0.0
C563 C 0.51953 0.7033 0.9057 0.0
N564 N 0.53042 0.7085 0.92885 0.0
C565 C 0.4809 0.68104 0.9452 0.0
C566 C 0.48866 0.68666 0.90164 0.0
C567 C 0.51191 0.69776 0.9485 0.0
C568 C 0.4353 0.60822 0.96222 0.0
N569 N 0.41212 0.61357 0.9646 0.0
C570 C 0.40658 0.59969 0.00672 0.0
C571 C 0.39729 0.60891 0.98614 0.0
C572 C 0.4312 0.59518 0.00492 0.0
C573 C 0.44537 0.59907 0.98232 0.0
H574 H 0.44655 0.61194 0.94484 0.0
H575 H 0.37864 0.61288 0.98749 0.0
C576 C 0.40725 0.72726 0.92645 0.0
N577 N 0.42823 0.71875 0.9243 0.0
C578 C 0.41561 0.75649 0.93325 0.0
C579 C 0.46719 0.76795 0.93501 0.0
C580 C 0.45783 0.73844 0.92817 0.0
C581 C 0.44584 0.777 0.93785 0.0
H582 H 0.38387 0.71102 0.92342 0.0
H583 H 0.4741 0.73122 0.92644 0.0
C584 C 0.35379 0.57655 0.90753 0.0
N585 N 0.29802 0.52595 0.90302 0.0
C586 C 0.34177 0.56579 0.88443 0.0
C587 C 0.33761 0.5615 0.92834 0.0
C588 C 0.31348 0.5402 0.88254 0.0
C589 C 0.30941 0.53595 0.92567 0.0
C590 C 0.40423 0.68302 0.86795 0.0
C591 C 0.3875 0.68447 0.84846 0.0
C592 C 0.43511 0.70274 0.86866 0.0
C593 C 0.40205 0.7054 0.82989 0.0
C594 C 0.44886 0.72338 0.84978 0.0
N595 N 0.43218 0.72425 0.83092 0.0
C596 C 0.3032 0.60428 0.92276 0.0
C597 C 0.31584 0.61504 0.88094 0.0
C598 C 0.27292 0.59335 0.91748 0.0
N599 N 0.32388 0.61502 0.90454 0.0
C600 C 0.28597 0.60468 0.87489 0.0
C601 C 0.26422 0.59386 0.8933 0.0
H602 H 0.31023 0.60418 0.94132 0.0
H603 H 0.33271 0.62309 0.86683 0.0
C604 C 0.44659 0.62118 0.8642 0.0
N605 N 0.42412 0.62766 0.86242 0.0
C606 C 0.45501 0.61078 0.84384 0.0
C607 C 0.4169 0.6138 0.8203 0.0
C608 C 0.40931 0.62425 0.84106 0.0
C609 C 0.43983 0.60674 0.82169 0.0
H610 H 0.45747 0.62339 0.88156 0.0
H611 H 0.39098 0.62878 0.84034 0.0
O612 O 0.38026 0.65167 0.94197 0.0
O613 O 0.43873 0.65918 0.91788 0.0
O614 O 0.38088 0.60221 0.90978 0.0
O615 O 0.39028 0.66249 0.88622 0.0
H616 H 0.43199 0.68701 0.96395 0.0
H617 H 0.33629 0.64502 0.97091 0.0
H618 H 0.43744 0.70921 0.00502 0.0
H619 H 0.34326 0.668 0.01189 0.0
H620 H 0.53484 0.71199 0.89044 0.0
H621 H 0.46642 0.67218 0.9609 0.0
H622 H 0.48016 0.6823 0.88317 0.0
H623 H 0.52127 0.70208 0.9667 0.0
H624 H 0.3951 0.59664 0.02394 0.0
H625 H 0.46435 0.59562 0.9804 0.0
H626 H 0.39868 0.76293 0.93533 0.0
H627 H 0.49071 0.78341 0.93845 0.0
H628 H 0.354 0.57733 0.86816 0.0
H629 H 0.34659 0.56971 0.94634 0.0
H630 H 0.30376 0.53173 0.86479 0.0
H631 H 0.29653 0.52416 0.94161 0.0
H632 H 0.36352 0.66962 0.84762 0.0
H633 H 0.44828 0.70235 0.88373 0.0
H634 H 0.38936 0.70667 0.81467 0.0
H635 H 0.47278 0.73875 0.85017 0.0
H636 H 0.25652 0.58488 0.93203 0.0
H637 H 0.27986 0.60509 0.85605 0.0
H638 H 0.47264 0.60526 0.84547 0.0
H639 H 0.40462 0.61061 0.80349 0.0
Li640 Li 0.75491 0.41045 0.08625 0.0
Li641 Li 0.79335 0.40293 0.10431 0.0
Li642 Li 0.79157 0.40998 0.0596 0.0
Li643 Li 0.75428 0.36318 0.07777 0.0
C644 C 0.79852 0.46436 0.09157 0.0
N645 N 0.79493 0.51489 0.10213 0.0
C646 C 0.79506 0.4709 0.11568 0.0
C647 C 0.8005 0.48369 0.07286 0.0
C648 C 0.79317 0.49649 0.12064 0.0
C649 C 0.79859 0.5091 0.07857 0.0
C650 C 0.74254 0.35679 0.12688 0.0
C651 C 0.7531 0.32137 0.14688 0.0
N652 N 0.72802 0.3118 0.16071 0.0
C653 C 0.71682 0.34651 0.14121 0.0
C654 C 0.76079 0.34405 0.12965 0.0
C655 C 0.70989 0.32379 0.15824 0.0
C656 C 0.72123 0.4405 0.07754 0.0
N657 N 0.72943 0.42631 0.09414 0.0
C658 C 0.70001 0.43216 0.12503 0.0
C659 C 0.71945 0.42224 0.11756 0.0
C660 C 0.69103 0.44663 0.10825 0.0
C661 C 0.702 0.45106 0.08429 0.0
H662 H 0.72948 0.44357 0.05908 0.0
H663 H 0.72661 0.41123 0.13047 0.0
C664 C 0.84738 0.42041 0.13037 0.0
N665 N 0.81811 0.41269 0.13261 0.0
C666 C 0.8663 0.43033 0.1507 0.0
C667 C 0.82456 0.42412 0.17522 0.0
C668 C 0.80644 0.41419 0.15447 0.0
C669 C 0.8549 0.43255 0.17335 0.0
H670 H 0.85622 0.41966 0.11268 0.0
H671 H 0.78323 0.4085 0.15566 0.0
C672 C 0.74267 0.39154 0.03092 0.0
N673 N 0.73442 0.39728 0.98182 0.0
C674 C 0.72952 0.36624 0.01589 0.0
C675 C 0.75147 0.41973 0.02097 0.0
C676 C 0.72556 0.36961 0.99112 0.0
C677 C 0.74718 0.42218 0.9961 0.0
C678 C 0.81045 0.36785 0.06152 0.0
C679 C 0.79378 0.35045 0.04172 0.0
C680 C 0.83953 0.37312 0.06523 0.0
C681 C 0.80648 0.33864 0.02589 0.0
C682 C 0.85146 0.36092 0.049 0.0
N683 N 0.83483 0.34408 0.02983 0.0
C684 C 0.84109 0.45457 0.0328 0.0
C685 C 0.80971 0.41142 0.00985 0.0
C686 C 0.85916 0.46813 0.01236 0.0
N687 N 0.81629 0.42706 0.03104 0.0
C688 C 0.82701 0.42418 0.98903 0.0
C689 C 0.85103 0.45412 0.98918 0.0
H690 H 0.84708 0.46593 0.05022 0.0
H691 H 0.79095 0.3889 0.00893 0.0
C692 C 0.6992 0.31325 0.06722 0.0
N693 N 0.72787 0.32138 0.07325 0.0
C694 C 0.67864 0.28352 0.06149 0.0
C695 C 0.71716 0.27078 0.06928 0.0
C696 C 0.73699 0.30081 0.07499 0.0
C697 C 0.68781 0.26213 0.06211 0.0
H698 H 0.69258 0.33011 0.06622 0.0
H699 H 0.7598 0.30782 0.08022 0.0
O700 O 0.79928 0.43882 0.08628 0.0
O701 O 0.74932 0.37876 0.1099 0.0
O702 O 0.74697 0.3887 0.05519 0.0
O703 O 0.79842 0.37957 0.0773 0.0
H704 H 0.79332 0.45609 0.13035 0.0
H705 H 0.80336 0.47907 0.05412 0.0
H706 H 0.79017 0.50166 0.13918 0.0
H707 H 0.79993 0.52419 0.06426 0.0
H708 H 0.76704 0.31135 0.14923 0.0
H709 H 0.70228 0.35591 0.13914 0.0
H710 H 0.78067 0.35149 0.11864 0.0
H711 H 0.69006 0.31563 0.16947 0.0
H712 H 0.69198 0.42854 0.14367 0.0
H713 H 0.69549 0.46227 0.07097 0.0
H714 H 0.88971 0.4369 0.1487 0.0
H715 H 0.8152 0.4258 0.19244 0.0
H716 H 0.72271 0.34425 0.02316 0.0
H717 H 0.76214 0.43959 0.03218 0.0
H718 H 0.71553 0.35023 0.97927 0.0
H719 H 0.75415 0.4439 0.98814 0.0
H720 H 0.77136 0.34635 0.03841 0.0
H721 H 0.85275 0.38645 0.0805 0.0
H722 H 0.79382 0.32522 0.01045 0.0
H723 H 0.87394 0.36483 0.05166 0.0
H724 H 0.87951 0.48895 0.01555 0.0
H725 H 0.82147 0.41002 0.97314 0.0
H726 H 0.65606 0.27737 0.05608 0.0
H727 H 0.72472 0.2546 0.07003 0.0
Li728 Li 0.40889 0.78966 0.27491 0.0
Li729 Li 0.3628 0.75212 0.25439 0.0
Li730 Li 0.41113 0.75139 0.24852 0.0
Li731 Li 0.40329 0.78949 0.22983 0.0
C732 C 0.38552 0.73089 0.2999 0.0
N733 N 0.38079 0.70009 0.34253 0.0
C734 C 0.36129 0.72267 0.31565 0.0
C735 C 0.40709 0.72297 0.3057 0.0
C736 C 0.35937 0.70726 0.33715 0.0
C737 C 0.40438 0.70754 0.32737 0.0
C738 C 0.35708 0.80166 0.25835 0.0
C739 C 0.31081 0.7974 0.24411 0.0
N740 N 0.30929 0.81116 0.26478 0.0
C741 C 0.35515 0.81592 0.27938 0.0
C742 C 0.33485 0.79248 0.24049 0.0
C743 C 0.33078 0.82047 0.28231 0.0
C744 C 0.4475 0.8414 0.3026 0.0
N745 N 0.42242 0.81387 0.3036 0.0
C746 C 0.41288 0.82264 0.34459 0.0
C747 C 0.40517 0.80426 0.32403 0.0
C748 C 0.43845 0.85118 0.34393 0.0
C749 C 0.45608 0.86051 0.32277 0.0
H750 H 0.46044 0.84879 0.28594 0.0
H751 H 0.38481 0.7828 0.32408 0.0
C752 C 0.30626 0.70086 0.24641 0.0
N753 N 0.3209 0.72659 0.25959 0.0
C754 C 0.27645 0.67983 0.25175 0.0
C755 C 0.27716 0.71261 0.28363 0.0
C756 C 0.30697 0.73282 0.27786 0.0
C757 C 0.26183 0.68564 0.27072 0.0
H758 H 0.31805 0.69626 0.23227 0.0
H759 H 0.31933 0.75293 0.28859 0.0
C760 C 0.46679 0.80311 0.25783 0.0
N761 N 0.52267 0.81804 0.27582 0.0
C762 C 0.49245 0.82027 0.24377 0.0
C763 C 0.46962 0.79387 0.28113 0.0
C764 C 0.52048 0.82748 0.25315 0.0
C765 C 0.49803 0.80156 0.28989 0.0
C766 C 0.37846 0.7444 0.19944 0.0
C767 C 0.40103 0.74359 0.18593 0.0
C768 C 0.35483 0.74491 0.18738 0.0
C769 C 0.39983 0.74379 0.16048 0.0
C770 C 0.35444 0.74511 0.16191 0.0
N771 N 0.37678 0.74459 0.1491 0.0
C772 C 0.4063 0.69513 0.24631 0.0
C773 C 0.45412 0.73456 0.23421 0.0
C774 C 0.41427 0.67377 0.24008 0.0
N775 N 0.42613 0.72482 0.24318 0.0
C776 C 0.46307 0.71396 0.22783 0.0
C777 C 0.44284 0.68324 0.2305 0.0
H778 H 0.38401 0.68808 0.25305 0.0
H779 H 0.46914 0.75816 0.23117 0.0
C780 C 0.39851 0.82736 0.19369 0.0
N781 N 0.41421 0.81413 0.20141 0.0
C782 C 0.40784 0.84575 0.17303 0.0
C783 C 0.44918 0.83643 0.16869 0.0
C784 C 0.43899 0.81815 0.18931 0.0
C785 C 0.43362 0.85058 0.16049 0.0
H786 H 0.37896 0.82391 0.20365 0.0
H787 H 0.45086 0.80713 0.19574 0.0
O788 O 0.38744 0.74548 0.27849 0.0
O789 O 0.38064 0.79677 0.2553 0.0
O790 O 0.43917 0.79577 0.24881 0.0
O791 O 0.37973 0.74515 0.22435 0.0
H792 H 0.34427 0.72836 0.31147 0.0
H793 H 0.42569 0.72848 0.29359 0.0
H794 H 0.34083 0.70097 0.34954 0.0
H795 H 0.42098 0.70138 0.33208 0.0
H796 H 0.29334 0.79021 0.23051 0.0
H797 H 0.37228 0.82341 0.2933 0.0
H798 H 0.33596 0.78136 0.22415 0.0
H799 H 0.32896 0.8314 0.29853 0.0
H800 H 0.39868 0.81502 0.3606 0.0
H801 H 0.47582 0.88257 0.32171 0.0
H802 H 0.26511 0.65905 0.24159 0.0
H803 H 0.26645 0.71748 0.29853 0.0
H804 H 0.49076 0.82789 0.22577 0.0
H805 H 0.45016 0.78129 0.29249 0.0
H806 H 0.5405 0.84063 0.24242 0.0
H807 H 0.5005 0.79453 0.30792 0.0
H808 H 0.41951 0.74325 0.19498 0.0
H809 H 0.33703 0.74523 0.19758 0.0
H810 H 0.41728 0.74342 0.14978 0.0
H811 H 0.33639 0.74569 0.15233 0.0
H812 H 0.39818 0.65015 0.24219 0.0
H813 H 0.48518 0.72181 0.22026 0.0
H814 H 0.39541 0.85646 0.1671 0.0
H815 H 0.46913 0.83973 0.15934 0.0
C816 C 0.19716 0.62115 0.30462 0.0
C817 C 0.17241 0.6219 0.29404 0.0
C818 C 0.20609 0.66204 0.2662 0.0
C819 C 0.23096 0.66287 0.27806 0.0
N820 N 0.25115 0.64529 0.30949 0.0
N821 N 0.15258 0.64393 0.26626 0.0
C822 C 0.22676 0.6429 0.29749 0.0
C823 C 0.17667 0.64253 0.27516 0.0
N824 N 0.19223 0.59933 0.32123 0.0
N825 N 0.21069 0.67965 0.24616 0.0
H826 H 0.13058 0.6292 0.27166 0.0
H827 H 0.15432 0.66065 0.2546 0.0
H828 H 0.23198 0.69491 0.23961 0.0
H829 H 0.19357 0.67792 0.23499 0.0
H830 H 0.20888 0.59532 0.3277 0.0
H831 H 0.17091 0.5837 0.32751 0.0
H832 H 0.24985 0.63402 0.3256 0.0
H833 H 0.27317 0.65997 0.30411 0.0
C834 C 0.55564 0.17701 0.44036 0.0
C835 C 0.56728 0.17244 0.46239 0.0
C836 C 0.59607 0.22671 0.4694 0.0
C837 C 0.58564 0.23132 0.44674 0.0
N838 N 0.55897 0.21181 0.40897 0.0
N839 N 0.60138 0.19221 0.49635 0.0
C840 C 0.56646 0.20671 0.43169 0.0
C841 C 0.58832 0.19712 0.47649 0.0
N842 N 0.53345 0.15295 0.42819 0.0
N843 N 0.61288 0.25061 0.48434 0.0
H844 H 0.59588 0.17081 0.50226 0.0
H845 H 0.61917 0.20918 0.50598 0.0
H846 H 0.61999 0.27272 0.47937 0.0
H847 H 0.61829 0.24858 0.50225 0.0
H848 H 0.52154 0.1548 0.41362 0.0
H849 H 0.52536 0.13084 0.43371 0.0
H850 H 0.54793 0.19509 0.39599 0.0
H851 H 0.56564 0.23323 0.40236 0.0
C852 C 0.41471 0.57237 0.60135 0.0
C853 C 0.41843 0.56852 0.62649 0.0
C854 C 0.38404 0.58666 0.63705 0.0
C855 C 0.37762 0.58706 0.61192 0.0
N856 N 0.38334 0.57601 0.57018 0.0
N857 N 0.40315 0.56738 0.66829 0.0
C858 C 0.39205 0.5788 0.59404 0.0
C859 C 0.40219 0.57447 0.64439 0.0
N860 N 0.43339 0.5707 0.58453 0.0
N861 N 0.37352 0.59876 0.65386 0.0
H862 H 0.41601 0.55822 0.67443 0.0
H863 H 0.38922 0.56814 0.68168 0.0
H864 H 0.36038 0.60817 0.64918 0.0
H865 H 0.38009 0.60198 0.67208 0.0
H866 H 0.43381 0.57636 0.56624 0.0
H867 H 0.45046 0.56633 0.58924 0.0
H868 H 0.39073 0.5669 0.55677 0.0
H869 H 0.36671 0.58036 0.56411 0.0
C870 C 0.84372 0.41793 0.80422 0.0
C871 C 0.86857 0.41716 0.79391 0.0
C872 C 0.83518 0.3769 0.76607 0.0
C873 C 0.81019 0.37598 0.77777 0.0
N874 N 0.7897 0.39353 0.80896 0.0
N875 N 0.88865 0.39486 0.76668 0.0
C876 C 0.81419 0.39602 0.79708 0.0
C877 C 0.86451 0.39643 0.77519 0.0
N878 N 0.84848 0.43995 0.82055 0.0
N879 N 0.83081 0.35932 0.74606 0.0
H880 H 0.91058 0.40946 0.77231 0.0
H881 H 0.88696 0.37804 0.75516 0.0
H882 H 0.80959 0.34408 0.73938 0.0
H883 H 0.84807 0.36115 0.73502 0.0
H884 H 0.83172 0.44388 0.82685 0.0
H885 H 0.86978 0.45584 0.82667 0.0
H886 H 0.7909 0.40489 0.82498 0.0
H887 H 0.76772 0.37867 0.80358 0.0
C888 C 0.48007 0.86178 0.93847 0.0
C889 C 0.4729 0.86629 0.96252 0.0
C890 C 0.44991 0.81251 0.9709 0.0
C891 C 0.455 0.80775 0.94629 0.0
N892 N 0.4703 0.82672 0.90549 0.0
N893 N 0.4469 0.84593 1.00045 0.0
C894 C 0.46875 0.83208 0.92972 0.0
C895 C 0.45662 0.84161 0.97842 0.0
N896 N 0.49864 0.88588 0.92433 0.0
N897 N 0.43957 0.7894 0.98726 0.0
H898 H 0.45141 0.86696 0.00657 0.0
H899 H 0.43229 0.82849 0.01179 0.0
H900 H 0.43424 0.7677 0.98242 0.0
H901 H 0.43853 0.79215 0.00597 0.0
H902 H 0.50739 0.88403 0.90774 0.0
H903 H 0.50738 0.908 0.93005 0.0
H904 H 0.47702 0.84316 0.89209 0.0
H905 H 0.4625 0.80527 0.89845 0.0
C906 C 0.65798 0.48808 0.14188 0.0
C907 C 0.62921 0.47529 0.13094 0.0
C908 C 0.64003 0.44184 0.10674 0.0
C909 C 0.66984 0.45678 0.11579 0.0
N910 N 0.70892 0.49764 0.13866 0.0
N911 N 0.59463 0.44382 0.09983 0.0
C912 C 0.67933 0.48092 0.13246 0.0
C913 C 0.6207 0.45321 0.11248 0.0
N914 N 0.66456 0.50631 0.16177 0.0
N915 N 0.62984 0.41616 0.09337 0.0
H916 H 0.57992 0.45173 0.10338 0.0
H917 H 0.58889 0.43024 0.08442 0.0
H918 H 0.64321 0.40693 0.08894 0.0
H919 H 0.60743 0.40255 0.08855 0.0
H920 H 0.68399 0.51374 0.17207 0.0
H921 H 0.64937 0.51181 0.16937 0.0
H922 H 0.71767 0.5174 0.1487 0.0
H923 H 0.72531 0.49329 0.13192 0.0
C924 C 0.39343 0.8451 0.52261 0.0
C925 C 0.41477 0.86622 0.5391 0.0
C926 C 0.39506 0.82892 0.57198 0.0
C927 C 0.37485 0.80736 0.55517 0.0
N928 N 0.35756 0.793 0.51386 0.0
N929 N 0.43952 0.8775 0.57814 0.0
C930 C 0.37486 0.8149 0.53026 0.0
C931 C 0.41663 0.8579 0.56343 0.0
N932 N 0.39026 0.8542 0.49992 0.0
N933 N 0.39307 0.82189 0.59621 0.0
H934 H 0.45558 0.89898 0.57252 0.0
H935 H 0.44409 0.87179 0.59517 0.0
H936 H 0.37798 0.80068 0.60303 0.0
H937 H 0.40479 0.83751 0.60981 0.0
H938 H 0.37289 0.84084 0.48804 0.0
H939 H 0.40385 0.87598 0.49348 0.0
H940 H 0.35902 0.79628 0.49507 0.0
H941 H 0.34317 0.77076 0.51887 0.0
C942 C 0.59023 0.41088 0.69151 0.0
C943 C 0.5701 0.41558 0.70595 0.0
C944 C 0.57035 0.38184 0.7374 0.0
C945 C 0.58827 0.37508 0.72198 0.0
N946 N 0.61244 0.37994 0.68324 0.0
N947 N 0.53764 0.40287 0.74097 0.0
C948 C 0.5975 0.38876 0.69871 0.0
C949 C 0.5593 0.40041 0.72851 0.0
N950 N 0.60294 0.42812 0.67123 0.0
N951 N 0.56443 0.37096 0.76072 0.0
H952 H 0.52915 0.41645 0.73516 0.0
H953 H 0.52639 0.38978 0.75605 0.0
H954 H 0.57171 0.35685 0.76768 0.0
H955 H 0.55433 0.3777 0.77376 0.0
H956 H 0.62014 0.42806 0.66134 0.0
H957 H 0.59797 0.44439 0.66532 0.0
H958 H 0.61678 0.38647 0.66504 0.0
H959 H 0.61868 0.36422 0.68804 0.0
C960 C 0.18792 0.58882 0.88914 0.0
C961 C 0.17291 0.56446 0.87273 0.0
C962 C 0.2162 0.55684 0.87284 0.0
C963 C 0.23238 0.58318 0.88704 0.0
N964 N 0.23554 0.62735 0.90519 0.0
N965 N 0.17459 0.52866 0.84536 0.0
C966 C 0.21877 0.60005 0.89427 0.0
C967 C 0.18755 0.54937 0.86357 0.0
N968 N 0.1725 0.60064 0.90042 0.0
N969 N 0.22784 0.53849 0.8688 0.0
H970 H 0.15382 0.5229 0.83778 0.0
H971 H 0.18562 0.51926 0.83621 0.0
H972 H 0.2486 0.54301 0.87561 0.0
H973 H 0.21574 0.51745 0.86072 0.0
H974 H 0.18146 0.61623 0.9145 0.0
H975 H 0.14983 0.5929 0.89726 0.0
H976 H 0.22759 0.64207 0.90843 0.0
H977 H 0.25827 0.63653 0.9091 0.0
C978 C 0.64846 0.19221 0.02255 0.0
C979 C 0.62661 0.17182 0.03912 0.0
C980 C 0.64629 0.21001 0.07129 0.0
C981 C 0.66689 0.23092 0.05429 0.0
N982 N 0.68521 0.2438 0.01306 0.0
N983 N 0.60147 0.16184 0.07794 0.0
C984 C 0.6673 0.22254 0.0297 0.0
C985 C 0.6246 0.18088 0.06315 0.0
N986 N 0.65176 0.1823 1.00026 0.0
N987 N 0.648 0.21783 0.09531 0.0
H988 H 0.58538 0.14022 0.07265 0.0
H989 H 0.59678 0.16809 0.09468 0.0
H990 H 0.66323 0.23917 0.1018 0.0
H991 H 0.63591 0.20272 0.10913 0.0
H992 H 0.66944 0.19506 0.98843 0.0
H993 H 0.63792 0.16041 0.99415 0.0
H994 H 0.68407 0.23996 0.99436 0.0
H995 H 0.6999 0.26609 0.01772 0.0
C996 C 0.44974 0.62636 0.19078 0.0
C997 C 0.46842 0.62 0.20562 0.0
C998 C 0.46745 0.65248 0.23788 0.0
C999 C 0.45111 0.66095 0.22215 0.0
N1000 N 0.42947 0.65907 0.18273 0.0
N1001 N 0.49838 0.62948 0.24187 0.0
C1002 C 0.44294 0.64869 0.19834 0.0
C1003 C 0.47811 0.63365 0.22885 0.0
N1004 N 0.43793 0.6105 0.16976 0.0
N1005 N 0.47226 0.66203 0.26157 0.0
H1006 H 0.50645 0.61557 0.23601 0.0
H1007 H 0.50893 0.64144 0.25759 0.0
H1008 H 0.46528 0.67633 0.26865 0.0
H1009 H 0.48109 0.65404 0.27473 0.0
H1010 H 0.42165 0.61175 0.15942 0.0
H1011 H 0.44264 0.59414 0.16357 0.0
H1012 H 0.42607 0.65363 0.16428 0.0
H1013 H 0.42354 0.67494 0.18776 0.0
C1014 C 0.8454 0.46455 0.35206 0.0
C1015 C 0.86569 0.46324 0.36884 0.0
C1016 C 0.82725 0.44477 0.4008 0.0
C1017 C 0.80662 0.44495 0.38377 0.0
N1018 N 0.79389 0.44995 0.3424 0.0
N1019 N 0.87511 0.44747 0.40759 0.0
C1020 C 0.81506 0.45329 0.35912 0.0
C1021 C 0.85633 0.45192 0.39277 0.0
N1022 N 0.85545 0.47758 0.32972 0.0
N1023 N 0.8193 0.43866 0.42481 0.0
H1024 H 0.89664 0.4527 0.40231 0.0
H1025 H 0.86864 0.43643 0.42428 0.0
H1026 H 0.79794 0.43256 0.43124 0.0
H1027 H 0.83431 0.44152 0.43866 0.0
H1028 H 0.84278 0.48243 0.31774 0.0
H1029 H 0.87735 0.48548 0.32369 0.0
H1030 H 0.79778 0.4525 0.3237 0.0
H1031 H 0.77158 0.44234 0.34702 0.0
C1032 C 0.15248 0.60089 0.43356 0.0
C1033 C 0.12698 0.57178 0.43204 0.0
C1034 C 0.14224 0.55714 0.46962 0.0
C1035 C 0.16604 0.58706 0.47238 0.0
N1036 N 0.19178 0.63856 0.459 0.0
N1037 N 0.09511 0.52314 0.44987 0.0
C1038 C 0.17068 0.60927 0.45486 0.0
C1039 C 0.1212 0.5501 0.45039 0.0
N1040 N 0.15967 0.62027 0.41438 0.0
N1041 N 0.14021 0.53533 0.48503 0.0
H1042 H 0.07934 0.51702 0.43592 0.0
H1043 H 0.08795 0.50773 0.46411 0.0
H1044 H 0.15511 0.53974 0.49941 0.0
H1045 H 0.12537 0.51257 0.48244 0.0
H1046 H 0.1797 0.64058 0.41321 0.0
H1047 H 0.14668 0.61499 0.3986 0.0
H1048 H 0.19395 0.65627 0.44835 0.0
H1049 H 0.20573 0.64556 0.47426 0.0
C1050 C 0.57355 0.11555 0.62203 0.0
C1051 C 0.57219 0.12706 0.59885 0.0
C1052 C 0.59867 0.17817 0.61528 0.0
C1053 C 0.59681 0.16631 0.639 0.0
N1054 N 0.57824 0.12342 0.66571 0.0
N1055 N 0.57969 0.1688 0.57384 0.0
C1056 C 0.58316 0.1349 0.64259 0.0
C1057 C 0.58382 0.15828 0.59554 0.0
N1058 N 0.56651 0.08632 0.62428 0.0
N1059 N 0.61526 0.20842 0.61155 0.0
H1060 H 0.56884 0.15493 0.55898 0.0
H1061 H 0.58479 0.19086 0.57118 0.0
H1062 H 0.62653 0.22364 0.62558 0.0
H1063 H 0.62005 0.21823 0.59432 0.0
H1064 H 0.57015 0.07752 0.64017 0.0
H1065 H 0.55965 0.07148 0.60959 0.0
H1066 H 0.56536 0.10061 0.66949 0.0
H1067 H 0.5848 0.13678 0.68131 0.0
C1068 C 0.44768 0.55109 0.78109 0.0
C1069 C 0.46149 0.56896 0.76018 0.0
C1070 C 0.46265 0.61216 0.78009 0.0
C1071 C 0.44694 0.59371 0.80028 0.0
N1072 N 0.41923 0.54437 0.81807 0.0
N1073 N 0.47731 0.61467 0.73772 0.0
C1074 C 0.43791 0.56277 0.80022 0.0
C1075 C 0.46756 0.599 0.75907 0.0
N1076 N 0.44487 0.52334 0.78308 0.0
N1077 N 0.4738 0.64241 0.78135 0.0
H1078 H 0.48112 0.6057 0.72197 0.0
H1079 H 0.47914 0.63552 0.73495 0.0
H1080 H 0.47061 0.65284 0.79643 0.0
H1081 H 0.48822 0.65746 0.76837 0.0
H1082 H 0.43818 0.5107 0.79905 0.0
H1083 H 0.45155 0.51386 0.76941 0.0
H1084 H 0.40927 0.52112 0.81756 0.0
H1085 H 0.41149 0.55205 0.83236 0.0
C1086 C 0.87996 0.45715 0.92506 0.0
C1087 C 0.91061 0.47887 0.92849 0.0
C1088 C 0.8973 0.49492 0.96618 0.0
C1089 C 0.86893 0.46833 0.96594 0.0
N1090 N 0.8291 0.44159 0.93709 0.0
N1091 N 0.94859 0.52001 0.95205 0.0
C1092 C 0.85872 0.45424 0.94293 0.0
C1093 C 0.91936 0.49826 0.94898 0.0
N1094 N 0.87119 0.4387 0.90519 0.0
N1095 N 0.9011 0.5191 0.97919 0.0
H1096 H 0.96531 0.52404 0.9394 0.0
H1097 H 0.95631 0.53264 0.968 0.0
H1098 H 0.88288 0.51944 0.9872 0.0
H1099 H 0.9206 0.53997 0.97847 0.0
H1100 H 0.84958 0.42049 0.90326 0.0
H1101 H 0.88604 0.44024 0.89158 0.0
H1102 H 0.82064 0.4334 0.91978 0.0
H1103 H 0.81389 0.44302 0.94883 0.0
C1104 C 0.45763 0.87941 0.0957 0.0
C1105 C 0.46931 0.91062 0.09913 0.0
C1106 C 0.4588 0.90259 0.14293 0.0
C1107 C 0.44501 0.87119 0.13922 0.0
N1108 N 0.42631 0.82919 0.11165 0.0
N1109 N 0.47536 0.95127 0.12484 0.0
C1110 C 0.44295 0.85943 0.11544 0.0
C1111 C 0.46823 0.92203 0.12243 0.0
N1112 N 0.46151 0.86899 0.07387 0.0
N1113 N 0.46397 0.91395 0.16608 0.0
H1114 H 0.4821 0.96619 0.11021 0.0
H1115 H 0.47191 0.96001 0.14084 0.0
H1116 H 0.45755 0.90051 0.18164 0.0
H1117 H 0.47694 0.93673 0.16991 0.0
H1118 H 0.45635 0.84693 0.07107 0.0
H1119 H 0.47223 0.88294 0.05901 0.0
H1120 H 0.42136 0.81947 0.0944 0.0
H1121 H 0.41517 0.81391 0.12568 0.0
C1122 C 0.5933 0.45654 0.2619 0.0
C1123 C 0.57294 0.46732 0.26466 0.0
C1124 C 0.56496 0.45106 0.30738 0.0
C1125 C 0.58802 0.44374 0.30541 0.0
N1126 N 0.62822 0.44496 0.28184 0.0
N1127 N 0.54408 0.48048 0.29143 0.0
C1128 C 0.60334 0.44795 0.28294 0.0
C1129 C 0.56004 0.46615 0.28781 0.0
N1130 N 0.60233 0.45357 0.23914 0.0
N1131 N 0.5471 0.44278 0.32762 0.0
H1132 H 0.54067 0.49256 0.27779 0.0
H1133 H 0.53683 0.48292 0.30857 0.0
H1134 H 0.54952 0.43104 0.34211 0.0
H1135 H 0.52806 0.44488 0.32893 0.0
H1136 H 0.61471 0.44297 0.23591 0.0
H1137 H 0.59507 0.45911 0.22324 0.0
H1138 H 0.64203 0.45082 0.26655 0.0
H1139 H 0.63675 0.43934 0.29692 0.0
C1140 C 0.44895 0.91687 0.38296 0.0
C1141 C 0.46039 0.91154 0.40475 0.0
C1142 C 0.4593 0.86772 0.38614 0.0
C1143 C 0.44589 0.87184 0.36499 0.0
N1144 N 0.42297 0.89687 0.3447 0.0
N1145 N 0.47198 0.87953 0.42887 0.0
C1146 C 0.43928 0.89545 0.3638 0.0
C1147 C 0.46427 0.88624 0.40686 0.0
N1148 N 0.44822 0.94289 0.38026 0.0
N1149 N 0.46813 0.84672 0.3861 0.0
H1150 H 0.47594 0.8927 0.44439 0.0
H1151 H 0.47206 0.85971 0.43231 0.0
H1152 H 0.46464 0.83262 0.37132 0.0
H1153 H 0.48096 0.84481 0.3999 0.0
H1154 H 0.44341 0.94968 0.36382 0.0
H1155 H 0.45474 0.95896 0.39399 0.0
H1156 H 0.41458 0.91151 0.34412 0.0
H1157 H 0.41558 0.88166 0.33025 0.0
C1158 C 0.59617 0.45119 0.5758 0.0
C1159 C 0.58857 0.47391 0.57265 0.0
C1160 C 0.61913 0.49027 0.53561 0.0
C1161 C 0.61968 0.46302 0.53544 0.0
N1162 N 0.63162 0.43565 0.56459 0.0
N1163 N 0.59446 0.51677 0.55 0.0
C1164 C 0.61473 0.44818 0.55822 0.0
C1165 C 0.60064 0.49407 0.55273 0.0
N1166 N 0.58541 0.43218 0.5953 0.0
N1167 N 0.63994 0.51417 0.52254 0.0
H1168 H 0.58182 0.52099 0.56257 0.0
H1169 H 0.60033 0.53007 0.53437 0.0
H1170 H 0.65737 0.51341 0.51345 0.0
H1171 H 0.64246 0.5355 0.52366 0.0
H1172 H 0.58804 0.41347 0.59698 0.0
H1173 H 0.57208 0.43391 0.6088 0.0
H1174 H 0.63096 0.42689 0.58187 0.0
H1175 H 0.64932 0.43814 0.55366 0.0
C1176 C 0.12366 0.54861 0.71689 0.0
C1177 C 0.12903 0.56593 0.73837 0.0
C1178 C 0.17228 0.6085 0.71893 0.0
C1179 C 0.16807 0.59054 0.69806 0.0
N1180 N 0.14341 0.54199 0.67873 0.0
N1181 N 0.16108 0.61023 0.7617 0.0
C1182 C 0.14479 0.56012 0.69749 0.0
C1183 C 0.15416 0.59529 0.73994 0.0
N1184 N 0.09782 0.52161 0.71467 0.0
N1185 N 0.19292 0.63843 0.71836 0.0
H1186 H 0.14825 0.60123 0.77742 0.0
H1187 H 0.18082 0.63036 0.76476 0.0
H1188 H 0.20669 0.64886 0.70335 0.0
H1189 H 0.1948 0.65341 0.73193 0.0
H1190 H 0.09094 0.50957 0.69844 0.0
H1191 H 0.08196 0.51223 0.72858 0.0
H1192 H 0.12904 0.51889 0.6786 0.0
H1193 H 0.15842 0.54961 0.66414 0.0
C1194 C 0.5763 0.15208 0.90691 0.0
C1195 C 0.58004 0.12667 0.90507 0.0
C1196 C 0.60149 0.14245 0.86417 0.0
C1197 C 0.59501 0.16617 0.86508 0.0
N1198 N 0.57278 0.19157 0.88574 0.0
N1199 N 0.59211 0.095 0.88095 0.0
C1200 C 0.5815 0.17049 0.88606 0.0
C1201 C 0.59156 0.12113 0.88342 0.0
N1202 N 0.56853 0.159 0.92879 0.0
N1203 N 0.61792 0.14085 0.84525 0.0
H1204 H 0.58535 0.07896 0.89474 0.0
H1205 H 0.59699 0.08808 0.8646 0.0
H1206 H 0.62551 0.15599 0.83075 0.0
H1207 H 0.62621 0.12611 0.8449 0.0
H1208 H 0.56855 0.17891 0.93204 0.0
H1209 H 0.56443 0.14594 0.9444 0.0
H1210 H 0.55989 0.19362 0.8994 0.0
H1211 H 0.57643 0.2056 0.87085 0.0
C1212 C 0.46985 0.60133 0.06574 0.0
C1213 C 0.46713 0.57259 0.06716 0.0
C1214 C 0.43746 0.5575 0.02949 0.0
C1215 C 0.44276 0.58715 0.02679 0.0
N1216 N 0.46749 0.6386 0.04031 0.0
N1217 N 0.45196 0.52444 0.04904 0.0
C1218 C 0.45985 0.60944 0.04441 0.0
C1219 C 0.45186 0.55093 0.04868 0.0
N1220 N 0.48133 0.62059 0.08506 0.0
N1221 N 0.418 0.53547 0.01409 0.0
H1222 H 0.462 0.51868 0.06291 0.0
H1223 H 0.44418 0.50917 0.03469 0.0
H1224 H 0.4071 0.53951 0.9998 0.0
H1225 H 0.41068 0.51282 0.01665 0.0
H1226 H 0.48088 0.64053 0.08627 0.0
H1227 H 0.48911 0.61549 0.1009 0.0
H1228 H 0.48266 0.65639 0.05108 0.0
H1229 H 0.46053 0.64545 0.02497 0.0
C1230 C 0.89035 0.43837 0.23569 0.0
C1231 C 0.91372 0.46874 0.23547 0.0
C1232 C 0.89626 0.4761 0.19585 0.0
C1233 C 0.875 0.44499 0.19487 0.0
N1234 N 0.85445 0.39551 0.21215 0.0
N1235 N 0.94203 0.5155 0.21385 0.0
C1236 C 0.87272 0.42582 0.21436 0.0
C1237 C 0.91752 0.48737 0.21514 0.0
N1238 N 0.8845 0.42178 0.25653 0.0
N1239 N 0.8955 0.49504 0.17876 0.0
H1240 H 0.95809 0.52464 0.22762 0.0
H1241 H 0.9478 0.52883 0.19828 0.0
H1242 H 0.88016 0.48769 0.16441 0.0
H1243 H 0.90824 0.51829 0.18001 0.0
H1244 H 0.86582 0.40054 0.25868 0.0
H1245 H 0.8969 0.43027 0.27252 0.0
H1246 H 0.85426 0.38013 0.22457 0.0
H1247 H 0.84123 0.3855 0.19679 0.0
loop_
_geom_bond_atom_site_label_1
_geom_bond_atom_site_label_2
_geom_bond_distance
_geom_bond_site_symmetry_2
_ccdc_geom_bond_type
H0 C19 0.949 . S
H1 C20 0.950 . S
H2 C22 0.950 . S
H3 C23 0.950 . S
H4 C25 0.950 . S
H5 C28 0.950 . S
H6 C29 0.950 . S
H7 C31 0.951 . S
H8 C32 0.949 . S
H9 C34 0.949 . S
H10 C35 0.950 . S
H11 C37 0.950 . S
H12 C38 0.950 . S
H13 C40 0.950 . S
H14 C43 0.950 . S
H15 C44 0.950 . S
H16 C46 0.951 . S
H17 C47 0.949 . S
C18 C19 1.376 . S
C18 C23 1.386 . S
C18 C24 1.483 . S
C19 H0 0.949 . S
C19 C18 1.376 . S
C19 C20 1.397 . S
C20 H1 0.950 . S
C20 C19 1.397 . S
C20 C21 1.391 . S
C21 C20 1.391 . S
C21 C22 1.405 . S
C22 H2 0.950 . S
C22 C21 1.405 . S
C22 C23 1.367 . S
C23 H3 0.950 . S
C23 C18 1.386 . S
C23 C22 1.367 . S
C24 C18 1.483 . S
C24 C25 1.382 1_655 S
C24 C26 1.403 . S
C25 H4 0.950 . S
C25 C24 1.382 1_455 S
C25 C41 1.411 . S
C26 C24 1.403 . S
C26 C27 1.489 . S
C26 C40 1.411 1_655 S
C27 C26 1.489 . S
C27 C28 1.383 . S
C27 C32 1.382 . S
C28 H5 0.950 . S
C28 C27 1.383 . S
C28 C29 1.395 . S
C29 H6 0.950 . S
C29 C28 1.395 . S
C29 C30 1.288 . S
C30 C29 1.288 . S
C30 C31 1.392 . S
C31 H7 0.951 . S
C31 C30 1.392 . S
C31 C32 1.392 . S
C32 H8 0.949 . S
C32 C27 1.382 . S
C32 C31 1.392 . S
C33 C34 1.376 . S
C33 C38 1.386 . S
C33 C39 1.483 . S
C34 H9 0.949 . S
C34 C33 1.376 . S
C34 C35 1.397 . S
C35 H10 0.950 . S
C35 C34 1.397 . S
C35 C36 1.391 . S
C36 C35 1.391 . S
C36 C37 1.405 . S
C37 H11 0.950 . S
C37 C36 1.405 . S
C37 C38 1.367 . S
C38 H12 0.950 . S
C38 C33 1.386 . S
C38 C37 1.367 . S
C39 C33 1.483 . S
C39 C40 1.382 . S
C39 C41 1.403 . S
C40 H13 0.950 . S
C40 C26 1.411 1_455 S
C40 C39 1.382 . S
C41 C25 1.411 . S
C41 C39 1.403 . S
C41 C42 1.489 . S
C42 C41 1.489 . S
C42 C43 1.383 . S
C42 C47 1.382 . S
C43 H14 0.950 . S
C43 C42 1.383 . S
C43 C44 1.395 . S
C44 H15 0.950 . S
C44 C43 1.395 . S
C44 C45 1.288 . S
C45 C44 1.288 . S
C45 C46 1.392 . S
C46 H16 0.951 . S
C46 C45 1.392 . S
C46 C47 1.392 . S
C47 H17 0.949 . S
C47 C42 1.382 . S
C47 C46 1.392 . S
H48 C67 0.949 . S
H49 C68 0.950 . S
H50 C70 0.950 . S
H51 C71 0.950 . S
H52 C73 0.950 . S
H53 C76 0.950 . S
H54 C77 0.950 . S
H55 C79 0.951 . S
H56 C80 0.949 . S
H57 C82 0.949 . S
H58 C83 0.950 . S
H59 C85 0.950 . S
H60 C86 0.950 . S
H61 C88 0.950 . S
H62 C91 0.950 . S
H63 C92 0.950 . S
H64 C94 0.951 . S
H65 C95 0.949 . S
C66 C67 1.376 . S
C66 C71 1.386 . S
C66 C72 1.483 . S
C67 H48 0.949 . S
C67 C66 1.376 . S
C67 C68 1.397 . S
C68 H49 0.950 . S
C68 C67 1.397 . S
C68 C69 1.391 . S
C69 C68 1.391 . S
C69 C70 1.405 . S
C70 H50 0.950 . S
C70 C69 1.405 . S
C70 C71 1.367 . S
C71 H51 0.950 . S
C71 C66 1.386 . S
C71 C70 1.367 . S
C72 C66 1.483 . S
C72 C73 1.382 1_565 S
C72 C74 1.403 . S
C73 H52 0.950 . S
C73 C72 1.382 1_545 S
C73 C89 1.411 . S
C74 C72 1.403 . S
C74 C75 1.489 . S
C74 C88 1.411 1_565 S
C75 C74 1.489 . S
C75 C76 1.383 . S
C75 C80 1.382 . S
C76 H53 0.950 . S
C76 C75 1.383 . S
C76 C77 1.395 . S
C77 H54 0.950 . S
C77 C76 1.395 . S
C77 C78 1.288 . S
C78 C77 1.288 . S
C78 C79 1.392 . S
C79 H55 0.951 . S
C79 C78 1.392 . S
C79 C80 1.392 . S
C80 H56 0.949 . S
C80 C75 1.382 . S
C80 C79 1.392 . S
C81 C82 1.376 . S
C81 C86 1.386 . S
C81 C87 1.483 . S
C82 H57 0.949 . S
C82 C81 1.376 . S
C82 C83 1.397 . S
C83 H58 0.950 . S
C83 C82 1.397 . S
C83 C84 1.391 . S
C84 C83 1.391 . S
C84 C85 1.405 . S
C85 H59 0.950 . S
C85 C84 1.405 . S
C85 C86 1.367 . S
C86 H60 0.950 . S
C86 C81 1.386 . S
C86 C85 1.367 . S
C87 C81 1.483 . S
C87 C88 1.382 . S
C87 C89 1.403 . S
C88 H61 0.950 . S
C88 C74 1.411 1_545 S
C88 C87 1.382 . S
C89 C73 1.411 . S
C89 C87 1.403 . S
C89 C90 1.489 . S
C90 C89 1.489 . S
C90 C91 1.383 . S
C90 C95 1.382 . S
C91 H62 0.950 . S
C91 C90 1.383 . S
C91 C92 1.395 . S
C92 H63 0.950 . S
C92 C91 1.395 . S
C92 C93 1.288 . S
C93 C92 1.288 . S
C93 C94 1.392 . S
C94 H64 0.951 . S
C94 C93 1.392 . S
C94 C95 1.392 . S
C95 H65 0.949 . S
C95 C90 1.382 . S
C95 C94 1.392 . S
H96 C115 0.949 . S
H97 C116 0.950 . S
H98 C118 0.950 . S
H99 C119 0.950 . S
H100 C121 0.950 . S
H101 C124 0.950 . S
H102 C125 0.950 . S
H103 C127 0.951 . S
H104 C128 0.949 . S
H105 C130 0.949 . S
H106 C131 0.950 . S
H107 C133 0.950 . S
H108 C134 0.950 . S
H109 C136 0.950 . S
H110 C139 0.950 . S
H111 C140 0.950 . S
H112 C142 0.951 . S
H113 C143 0.949 . S
C114 C115 1.376 . S
C114 C119 1.386 . S
C114 C120 1.483 . S
C115 H96 0.949 . S
C115 C114 1.376 . S
C115 C116 1.397 . S
C116 H97 0.950 . S
C116 C115 1.397 . S
C116 C117 1.391 . S
C117 C116 1.391 . S
C117 C118 1.405 . S
C118 H98 0.950 . S
C118 C117 1.405 . S
C118 C119 1.367 . S
C119 H99 0.950 . S
C119 C114 1.386 . S
C119 C118 1.367 . S
C120 C114 1.483 . S
C120 C121 1.382 . S
C120 C122 1.403 . S
C121 H100 0.950 . S
C121 C120 1.382 . S
C121 C137 1.411 . S
C122 C120 1.403 . S
C122 C123 1.489 . S
C122 C136 1.411 . S
C123 C122 1.489 . S
C123 C124 1.383 . S
C123 C128 1.382 . S
C124 H101 0.950 . S
C124 C123 1.383 . S
C124 C125 1.395 . S
C125 H102 0.950 . S
C125 C124 1.395 . S
C125 C126 1.288 . S
C126 C125 1.288 . S
C126 C127 1.392 . S
C127 H103 0.951 . S
C127 C126 1.392 . S
C127 C128 1.392 . S
C128 H104 0.949 . S
C128 C123 1.382 . S
C128 C127 1.392 . S
C129 C130 1.376 . S
C129 C134 1.386 . S
C129 C135 1.483 . S
C130 H105 0.949 . S
C130 C129 1.376 . S
C130 C131 1.397 . S
C131 H106 0.950 . S
C131 C130 1.397 . S
C131 C132 1.391 . S
C132 C131 1.391 . S
C132 C133 1.405 . S
C133 H107 0.950 . S
C133 C132 1.405 . S
C133 C134 1.367 . S
C134 H108 0.950 . S
C134 C129 1.386 . S
C134 C133 1.367 . S
C135 C129 1.483 . S
C135 C136 1.382 . S
C135 C137 1.403 . S
C136 H109 0.950 . S
C136 C122 1.411 . S
C136 C135 1.382 . S
C137 C121 1.411 . S
C137 C135 1.403 . S
C137 C138 1.489 . S
C138 C137 1.489 . S
C138 C139 1.383 . S
C138 C143 1.382 . S
C139 H110 0.950 . S
C139 C138 1.383 . S
C139 C140 1.395 . S
C140 H111 0.950 . S
C140 C139 1.395 . S
C140 C141 1.288 . S
C141 C140 1.288 . S
C141 C142 1.392 . S
C142 H112 0.951 . S
C142 C141 1.392 . S
C142 C143 1.392 . S
C143 H113 0.949 . S
C143 C138 1.382 . S
C143 C142 1.392 . S
H144 C163 0.949 . S
H145 C164 0.950 . S
H146 C166 0.950 . S
H147 C167 0.950 . S
H148 C169 0.950 . S
H149 C172 0.950 . S
H150 C173 0.950 . S
H151 C175 0.951 . S
H152 C176 0.949 . S
H153 C178 0.949 . S
H154 C179 0.950 . S
H155 C181 0.950 . S
H156 C182 0.950 . S
H157 C184 0.950 . S
H158 C187 0.950 . S
H159 C188 0.950 . S
H160 C190 0.951 . S
H161 C191 0.949 . S
C162 C163 1.376 . S
C162 C167 1.386 . S
C162 C168 1.483 . S
C163 H144 0.949 . S
C163 C162 1.376 . S
C163 C164 1.397 . S
C164 H145 0.950 . S
C164 C163 1.397 . S
C164 C165 1.391 . S
C165 C164 1.391 . S
C165 C166 1.405 . S
C166 H146 0.950 . S
C166 C165 1.405 . S
C166 C167 1.367 . S
C167 H147 0.950 . S
C167 C162 1.386 . S
C167 C166 1.367 . S
C168 C162 1.483 . S
C168 C169 1.382 . S
C168 C170 1.403 . S
C169 H148 0.950 . S
C169 C168 1.382 . S
C169 C185 1.411 1_455 S
C170 C168 1.403 . S
C170 C171 1.489 . S
C170 C184 1.411 . S
C171 C170 1.489 . S
C171 C172 1.383 . S
C171 C176 1.382 . S
C172 H149 0.950 . S
C172 C171 1.383 . S
C172 C173 1.395 . S
C173 H150 0.950 . S
C173 C172 1.395 . S
C173 C174 1.288 . S
C174 C173 1.288 . S
C174 C175 1.392 . S
C175 H151 0.951 . S
C175 C174 1.392 . S
C175 C176 1.392 . S
C176 H152 0.949 . S
C176 C171 1.382 . S
C176 C175 1.392 . S
C177 C178 1.376 . S
C177 C182 1.386 . S
C177 C183 1.483 . S
C178 H153 0.949 . S
C178 C177 1.376 . S
C178 C179 1.397 . S
C179 H154 0.950 . S
C179 C178 1.397 . S
C179 C180 1.391 . S
C180 C179 1.391 . S
C180 C181 1.405 . S
C181 H155 0.950 . S
C181 C180 1.405 . S
C181 C182 1.367 . S
C182 H156 0.950 . S
C182 C177 1.386 . S
C182 C181 1.367 . S
C183 C177 1.483 . S
C183 C184 1.382 1_655 S
C183 C185 1.403 . S
C184 H157 0.950 . S
C184 C170 1.411 . S
C184 C183 1.382 1_455 S
C185 C169 1.411 1_655 S
C185 C183 1.403 . S
C185 C186 1.489 . S
C186 C185 1.489 . S
C186 C187 1.383 . S
C186 C191 1.382 . S
C187 H158 0.950 . S
C187 C186 1.383 . S
C187 C188 1.395 . S
C188 H159 0.950 . S
C188 C187 1.395 . S
C188 C189 1.288 . S
C189 C188 1.288 . S
C189 C190 1.392 . S
C190 H160 0.951 . S
C190 C189 1.392 . S
C190 C191 1.392 . S
C191 H161 0.949 . S
C191 C186 1.382 . S
C191 C190 1.392 . S
H192 C211 0.949 . S
H193 C212 0.950 . S
H194 C214 0.950 . S
H195 C215 0.950 1_556 S
H196 C217 0.950 . S
H197 C220 0.950 . S
H198 C221 0.950 . S
H199 C223 0.951 . S
H200 C224 0.949 . S
H201 C226 0.949 . S
H202 C227 0.950 . S
H203 C229 0.950 . S
H204 C230 0.962 . S
H205 C232 0.950 . S
H206 C235 0.950 . S
H207 C236 0.950 . S
H208 C238 0.951 . S
H209 C239 0.949 . S
C210 C211 1.376 . S
C210 C215 1.386 . S
C210 C216 1.489 . S
C211 H192 0.949 . S
C211 C210 1.376 . S
C211 C212 1.397 . S
C212 H193 0.950 . S
C212 C211 1.397 . S
C212 C213 1.391 . S
C213 C212 1.391 . S
C213 C214 1.405 . S
C214 H194 0.950 . S
C214 C213 1.405 . S
C214 C215 1.367 . S
C215 H195 0.950 1_554 S
C215 C210 1.386 . S
C215 C214 1.367 . S
C216 C210 1.489 . S
C216 C217 1.398 . S
C216 C218 1.382 1_554 S
C217 H196 0.950 . S
C217 C216 1.398 . S
C217 C233 1.411 1_545 S
C218 C216 1.382 1_556 S
C218 C219 1.489 . S
C218 C232 1.411 . S
C219 C218 1.489 . S
C219 C220 1.383 . S
C219 C224 1.382 . S
C220 H197 0.950 . S
C220 C219 1.383 . S
C220 C221 1.395 . S
C221 H198 0.950 . S
C221 C220 1.395 . S
C221 C222 1.288 . S
C222 C221 1.288 . S
C222 C223 1.392 . S
C223 H199 0.951 . S
C223 C222 1.392 . S
C223 C224 1.392 . S
C224 H200 0.949 . S
C224 C219 1.382 . S
C224 C223 1.392 . S
C225 C226 1.376 . S
C225 C230 1.386 . S
C225 C231 1.483 . S
C226 H201 0.949 . S
C226 C225 1.376 . S
C226 C227 1.397 . S
C227 H202 0.950 . S
C227 C226 1.397 . S
C227 C228 1.391 . S
C228 C227 1.391 . S
C228 C229 1.405 . S
C229 H203 0.950 . S
C229 C228 1.405 . S
C229 C230 1.367 . S
C230 H204 0.962 . S
C230 C225 1.386 . S
C230 C229 1.367 . S
C231 C225 1.483 . S
C231 C232 1.382 1_565 S
C231 C233 1.403 1_556 S
C232 H205 0.950 . S
C232 C218 1.411 . S
C232 C231 1.382 1_545 S
C233 C217 1.411 1_565 S
C233 C231 1.403 1_554 S
C233 C234 1.489 . S
C234 C233 1.489 . S
C234 C235 1.383 . S
C234 C239 1.382 . S
C235 H206 0.950 . S
C235 C234 1.383 . S
C235 C236 1.395 . S
C236 H207 0.950 . S
C236 C235 1.395 . S
C236 C237 1.288 . S
C237 C236 1.288 . S
C237 C238 1.392 . S
C238 H208 0.951 . S
C238 C237 1.392 . S
C238 C239 1.392 . S
C239 H209 0.949 . S
C239 C234 1.382 . S
C239 C238 1.392 . S
H240 C259 0.949 . S
H241 C260 0.950 . S
H242 C262 0.950 . S
H243 C263 0.950 . S
H244 C265 0.950 . S
H245 C268 0.950 . S
H246 C269 0.950 . S
H247 C271 0.951 . S
H248 C272 0.949 . S
H249 C274 0.949 . S
H250 C275 0.950 . S
H251 C277 0.950 . S
H252 C278 0.950 . S
H253 C280 0.950 . S
H254 C283 0.950 . S
H255 C284 0.950 . S
H256 C286 0.951 . S
H257 C287 0.949 . S
C258 C259 1.376 . S
C258 C263 1.386 . S
C258 C264 1.483 . S
C259 H240 0.949 . S
C259 C258 1.376 . S
C259 C260 1.397 . S
C260 H241 0.950 . S
C260 C259 1.397 . S
C260 C261 1.391 . S
C261 C260 1.391 . S
C261 C262 1.405 . S
C262 H242 0.950 . S
C262 C261 1.405 . S
C262 C263 1.367 . S
C263 H243 0.950 . S
C263 C258 1.386 . S
C263 C262 1.367 . S
C264 C258 1.483 . S
C264 C265 1.382 . S
C264 C266 1.403 . S
C265 H244 0.950 . S
C265 C264 1.382 . S
C265 C281 1.411 . S
C266 C264 1.403 . S
C266 C267 1.489 . S
C266 C280 1.411 . S
C267 C266 1.489 . S
C267 C268 1.383 . S
C267 C272 1.382 . S
C268 H245 0.950 . S
C268 C267 1.383 . S
C268 C269 1.395 . S
C269 H246 0.950 . S
C269 C268 1.395 . S
C269 C270 1.288 . S
C270 C269 1.288 . S
C270 C271 1.392 . S
C271 H247 0.951 . S
C271 C270 1.392 . S
C271 C272 1.392 . S
C272 H248 0.949 . S
C272 C267 1.382 . S
C272 C271 1.392 . S
C273 C274 1.376 . S
C273 C278 1.386 . S
C273 C279 1.483 . S
C274 H249 0.949 . S
C274 C273 1.376 . S
C274 C275 1.397 . S
C275 H250 0.950 . S
C275 C274 1.397 . S
C275 C276 1.391 . S
C276 C275 1.391 . S
C276 C277 1.405 . S
C277 H251 0.950 . S
C277 C276 1.405 . S
C277 C278 1.367 . S
C278 H252 0.950 . S
C278 C273 1.386 . S
C278 C277 1.367 . S
C279 C273 1.483 . S
C279 C280 1.382 . S
C279 C281 1.403 . S
C280 H253 0.950 . S
C280 C266 1.411 . S
C280 C279 1.382 . S
C281 C265 1.411 . S
C281 C279 1.403 . S
C281 C282 1.489 . S
C282 C281 1.489 . S
C282 C283 1.383 . S
C282 C287 1.382 . S
C283 H254 0.950 . S
C283 C282 1.383 . S
C283 C284 1.395 . S
C284 H255 0.950 . S
C284 C283 1.395 . S
C284 C285 1.288 . S
C285 C284 1.288 . S
C285 C286 1.392 . S
C286 H256 0.951 . S
C286 C285 1.392 . S
C286 C287 1.392 . S
C287 H257 0.949 . S
C287 C282 1.382 . S
C287 C286 1.392 . S
Li288 N305 1.990 . S
Li288 O348 1.956 . S
Li288 O349 1.970 . S
Li288 O350 1.961 . S
Li289 N313 1.990 . S
Li289 O348 1.970 . S
Li289 O349 1.956 . S
Li289 O351 1.961 . S
Li290 N335 1.990 . S
Li290 O348 1.961 . S
Li290 O350 1.956 . S
Li290 O351 1.970 . S
Li291 N341 1.990 . S
Li291 O349 1.961 . S
Li291 O350 1.970 . S
Li291 O351 1.956 . S
C292 C294 1.348 . S
C292 C295 1.356 . S
C292 O348 1.325 . S
N293 C296 1.314 . S
N293 C297 1.279 . S
C294 C292 1.348 . S
C294 C296 1.353 . S
C294 H352 0.929 . S
C295 C292 1.356 . S
C295 C297 1.358 . S
C295 H353 0.930 . S
C296 N293 1.314 . S
C296 C294 1.353 . S
C296 H354 0.930 . S
C297 N293 1.279 . S
C297 C295 1.358 . S
C297 H355 0.930 . S
C298 C301 1.348 . S
C298 C302 1.356 . S
C298 O349 1.325 . S
C299 N300 1.279 . S
C299 C302 1.358 . S
C299 H356 0.930 . S
N300 C299 1.279 . S
N300 C303 1.314 . S
C301 C298 1.348 . S
C301 C303 1.353 . S
C301 H357 0.929 . S
C302 C298 1.356 . S
C302 C299 1.358 . S
C302 H358 0.930 . S
C303 N300 1.314 . S
C303 C301 1.353 . S
C303 H359 0.930 . S
C304 N305 1.314 . S
C304 C309 1.353 . S
C304 H310 0.930 . S
N305 Li288 1.990 . S
N305 C304 1.314 . S
N305 C307 1.279 . S
C306 C307 1.358 . S
C306 C308 1.356 . S
C306 H360 0.930 . S
C307 N305 1.279 . S
C307 C306 1.358 . S
C307 H311 0.930 . S
C308 C306 1.356 . S
C308 C309 1.348 . S
C309 C304 1.353 . S
C309 C308 1.348 . S
C309 H361 0.929 . S
H310 C304 0.930 . S
H311 C307 0.930 . S
C312 N313 1.314 . S
C312 C314 1.353 . S
C312 H318 0.930 . S
N313 Li289 1.990 . S
N313 C312 1.314 . S
N313 C316 1.279 . S
C314 C312 1.353 . S
C314 C317 1.348 . S
C314 H362 0.929 . S
C315 C316 1.358 . S
C315 C317 1.356 . S
C315 H363 0.930 . S
C316 N313 1.279 . S
C316 C315 1.358 . S
C316 H319 0.930 . S
C317 C314 1.348 . S
C317 C315 1.356 . S
H318 C312 0.930 . S
H319 C316 0.930 . S
C320 C322 1.348 . S
C320 C323 1.356 . S
C320 O350 1.325 . S
N321 C324 1.314 . S
N321 C325 1.279 . S
C322 C320 1.348 . S
C322 C324 1.353 . S
C322 H364 0.929 . S
C323 C320 1.356 . S
C323 C325 1.358 . S
C323 H365 0.930 . S
C324 N321 1.314 . S
C324 C322 1.353 . S
C324 H366 0.930 . S
C325 N321 1.279 . S
C325 C323 1.358 . S
C325 H367 0.930 . S
C326 C327 1.348 . S
C326 C328 1.356 . S
C326 O351 1.325 . S
C327 C326 1.348 . S
C327 C329 1.353 . S
C327 H368 0.929 . S
C328 C326 1.356 . S
C328 C330 1.358 . S
C328 H369 0.930 . S
C329 C327 1.353 . S
C329 N331 1.314 . S
C329 H370 0.930 . S
C330 C328 1.358 . S
C330 N331 1.279 . S
C330 H371 0.930 . S
N331 C329 1.314 . S
N331 C330 1.279 . S
C332 C334 1.353 . S
C332 N335 1.314 . S
C332 H338 0.930 . S
C333 N335 1.279 . S
C333 C336 1.358 . S
C333 H339 0.930 . S
C334 C332 1.353 . S
C334 C337 1.348 . S
C334 H372 0.929 . S
N335 Li290 1.990 . S
N335 C332 1.314 . S
N335 C333 1.279 . S
C336 C333 1.358 . S
C336 C337 1.356 . S
C336 H373 0.930 . S
C337 C334 1.348 . S
C337 C336 1.356 . S
H338 C332 0.930 . S
H339 C333 0.930 . S
C340 N341 1.314 . S
C340 C342 1.353 . S
C340 H346 0.930 . S
N341 Li291 1.990 . S
N341 C340 1.314 . S
N341 C344 1.279 . S
C342 C340 1.353 . S
C342 C345 1.348 . S
C342 H374 0.929 . S
C343 C344 1.358 . S
C343 C345 1.356 . S
C343 H375 0.930 . S
C344 N341 1.279 . S
C344 C343 1.358 . S
C344 H347 0.930 . S
C345 C342 1.348 . S
C345 C343 1.356 . S
H346 C340 0.930 . S
H347 C344 0.930 . S
O348 Li288 1.956 . S
O348 Li289 1.970 . S
O348 Li290 1.961 . S
O348 C292 1.325 . S
O349 Li288 1.970 . S
O349 Li289 1.956 . S
O349 Li291 1.961 . S
O349 C298 1.325 . S
O350 Li288 1.961 . S
O350 Li290 1.956 . S
O350 Li291 1.970 . S
O350 C320 1.325 . S
O351 Li289 1.961 . S
O351 Li290 1.970 . S
O351 Li291 1.956 . S
O351 C326 1.325 . S
H352 C294 0.929 . S
H353 C295 0.930 . S
H354 C296 0.930 . S
H355 C297 0.930 . S
H356 C299 0.930 . S
H357 C301 0.929 . S
H358 C302 0.930 . S
H359 C303 0.930 . S
H360 C306 0.930 . S
H361 C309 0.929 . S
H362 C314 0.929 . S
H363 C315 0.930 . S
H364 C322 0.929 . S
H365 C323 0.930 . S
H366 C324 0.930 . S
H367 C325 0.930 . S
H368 C327 0.929 . S
H369 C328 0.930 . S
H370 C329 0.930 . S
H371 C330 0.930 . S
H372 C334 0.929 . S
H373 C336 0.930 . S
H374 C342 0.929 . S
H375 C343 0.930 . S
Li376 N393 1.990 . S
Li376 O436 1.956 . S
Li376 O437 1.970 . S
Li376 O438 1.961 . S
Li377 N401 1.990 . S
Li377 O436 1.970 . S
Li377 O437 1.956 . S
Li377 O439 1.961 . S
Li378 N423 1.990 . S
Li378 O436 1.961 . S
Li378 O438 1.956 . S
Li378 O439 1.970 . S
Li379 N429 1.990 . S
Li379 O437 1.961 . S
Li379 O438 1.970 . S
Li379 O439 1.956 . S
C380 C382 1.348 . S
C380 C383 1.356 . S
C380 O436 1.325 . S
N381 C384 1.314 . S
N381 C385 1.279 . S
C382 C380 1.348 . S
C382 C384 1.353 . S
C382 H440 0.929 . S
C383 C380 1.356 . S
C383 C385 1.358 . S
C383 H441 0.930 . S
C384 N381 1.314 . S
C384 C382 1.353 . S
C384 H442 0.930 . S
C385 N381 1.279 . S
C385 C383 1.358 . S
C385 H443 0.930 . S
C386 C389 1.348 . S
C386 C390 1.356 . S
C386 O437 1.325 . S
C387 N388 1.279 . S
C387 C390 1.358 . S
C387 H444 0.930 . S
N388 C387 1.279 . S
N388 C391 1.314 . S
C389 C386 1.348 . S
C389 C391 1.353 . S
C389 H445 0.929 . S
C390 C386 1.356 . S
C390 C387 1.358 . S
C390 H446 0.930 . S
C391 N388 1.314 . S
C391 C389 1.353 . S
C391 H447 0.930 . S
C392 N393 1.314 . S
C392 C397 1.353 . S
C392 H398 0.930 . S
N393 Li376 1.990 . S
N393 C392 1.314 . S
N393 C395 1.279 . S
C394 C395 1.358 . S
C394 C396 1.356 . S
C394 H448 0.930 . S
C395 N393 1.279 . S
C395 C394 1.358 . S
C395 H399 0.930 . S
C396 C394 1.356 . S
C396 C397 1.348 . S
C397 C392 1.353 . S
C397 C396 1.348 . S
C397 H449 0.929 . S
H398 C392 0.930 . S
H399 C395 0.930 . S
C400 N401 1.314 . S
C400 C402 1.353 . S
C400 H406 0.930 . S
N401 Li377 1.990 . S
N401 C400 1.314 . S
N401 C404 1.279 . S
C402 C400 1.353 . S
C402 C405 1.348 . S
C402 H450 0.929 . S
C403 C404 1.358 . S
C403 C405 1.356 . S
C403 H451 0.930 . S
C404 N401 1.279 . S
C404 C403 1.358 . S
C404 H407 0.930 . S
C405 C402 1.348 . S
C405 C403 1.356 . S
H406 C400 0.930 . S
H407 C404 0.930 . S
C408 C410 1.348 . S
C408 C411 1.356 . S
C408 O438 1.325 . S
N409 C412 1.314 . S
N409 C413 1.279 . S
C410 C408 1.348 . S
C410 C412 1.353 . S
C410 H452 0.929 . S
C411 C408 1.356 . S
C411 C413 1.358 . S
C411 H453 0.930 . S
C412 N409 1.314 . S
C412 C410 1.353 . S
C412 H454 0.930 . S
C413 N409 1.279 . S
C413 C411 1.358 . S
C413 H455 0.930 . S
C414 C415 1.348 . S
C414 C416 1.356 . S
C414 O439 1.325 . S
C415 C414 1.348 . S
C415 C417 1.353 . S
C415 H456 0.929 . S
C416 C414 1.356 . S
C416 C418 1.358 . S
C416 H457 0.930 . S
C417 C415 1.353 . S
C417 N419 1.314 . S
C417 H458 0.930 . S
C418 C416 1.358 . S
C418 N419 1.279 . S
C418 H459 0.930 . S
N419 C417 1.314 . S
N419 C418 1.279 . S
C420 C422 1.353 . S
C420 N423 1.314 . S
C420 H426 0.930 . S
C421 N423 1.279 . S
C421 C424 1.358 . S
C421 H427 0.930 . S
C422 C420 1.353 . S
C422 C425 1.348 . S
C422 H460 0.929 . S
N423 Li378 1.990 . S
N423 C420 1.314 . S
N423 C421 1.279 . S
C424 C421 1.358 . S
C424 C425 1.356 . S
C424 H461 0.930 . S
C425 C422 1.348 . S
C425 C424 1.356 . S
H426 C420 0.930 . S
H427 C421 0.930 . S
C428 N429 1.314 . S
C428 C430 1.353 . S
C428 H434 0.930 . S
N429 Li379 1.990 . S
N429 C428 1.314 . S
N429 C432 1.279 . S
C430 C428 1.353 . S
C430 C433 1.348 . S
C430 H462 0.929 . S
C431 C432 1.358 . S
C431 C433 1.356 . S
C431 H463 0.930 . S
C432 N429 1.279 . S
C432 C431 1.358 . S
C432 H435 0.930 . S
C433 C430 1.348 . S
C433 C431 1.356 . S
H434 C428 0.930 . S
H435 C432 0.930 . S
O436 Li376 1.956 . S
O436 Li377 1.970 . S
O436 Li378 1.961 . S
O436 C380 1.325 . S
O437 Li376 1.970 . S
O437 Li377 1.956 . S
O437 Li379 1.961 . S
O437 C386 1.325 . S
O438 Li376 1.961 . S
O438 Li378 1.956 . S
O438 Li379 1.970 . S
O438 C408 1.325 . S
O439 Li377 1.961 . S
O439 Li378 1.970 . S
O439 Li379 1.956 . S
O439 C414 1.325 . S
H440 C382 0.929 . S
H441 C383 0.930 . S
H442 C384 0.930 . S
H443 C385 0.930 . S
H444 C387 0.930 . S
H445 C389 0.929 . S
H446 C390 0.930 . S
H447 C391 0.930 . S
H448 C394 0.930 . S
H449 C397 0.929 . S
H450 C402 0.929 . S
H451 C403 0.930 . S
H452 C410 0.929 . S
H453 C411 0.930 . S
H454 C412 0.930 . S
H455 C413 0.930 . S
H456 C415 0.929 . S
H457 C416 0.930 . S
H458 C417 0.930 . S
H459 C418 0.930 . S
H460 C422 0.929 . S
H461 C424 0.930 . S
H462 C430 0.929 . S
H463 C431 0.930 . S
Li464 N481 1.990 . S
Li464 O524 1.956 . S
Li464 O525 1.970 . S
Li464 O526 1.961 . S
Li465 N489 1.990 . S
Li465 O524 1.970 . S
Li465 O525 1.956 . S
Li465 O527 1.961 . S
Li466 N511 1.990 . S
Li466 O524 1.961 . S
Li466 O526 1.956 . S
Li466 O527 1.970 . S
Li467 N517 1.990 . S
Li467 O525 1.961 . S
Li467 O526 1.970 . S
Li467 O527 1.956 . S
C468 C470 1.348 . S
C468 C471 1.356 . S
C468 O524 1.325 . S
N469 C472 1.314 . S
N469 C473 1.279 . S
C470 C468 1.348 . S
C470 C472 1.353 . S
C470 H528 0.929 . S
C471 C468 1.356 . S
C471 C473 1.358 . S
C471 H529 0.930 . S
C472 N469 1.314 . S
C472 C470 1.353 . S
C472 H530 0.930 . S
C473 N469 1.279 . S
C473 C471 1.358 . S
C473 H531 0.930 . S
C474 C477 1.348 . S
C474 C478 1.356 . S
C474 O525 1.325 . S
C475 N476 1.279 . S
C475 C478 1.358 . S
C475 H532 0.930 . S
N476 C475 1.279 . S
N476 C479 1.314 . S
C477 C474 1.348 . S
C477 C479 1.353 . S
C477 H533 0.929 . S
C478 C474 1.356 . S
C478 C475 1.358 . S
C478 H534 0.930 . S
C479 N476 1.314 . S
C479 C477 1.353 . S
C479 H535 0.930 . S
C480 N481 1.314 . S
C480 C485 1.353 . S
C480 H486 0.930 . S
N481 Li464 1.990 . S
N481 C480 1.314 . S
N481 C483 1.279 . S
C482 C483 1.358 . S
C482 C484 1.356 . S
C482 H536 0.930 . S
C483 N481 1.279 . S
C483 C482 1.358 . S
C483 H487 0.930 . S
C484 C482 1.356 . S
C484 C485 1.348 . S
C485 C480 1.353 . S
C485 C484 1.348 . S
C485 H537 0.929 . S
H486 C480 0.930 . S
H487 C483 0.930 . S
C488 N489 1.314 . S
C488 C490 1.353 . S
C488 H494 0.930 . S
N489 Li465 1.990 . S
N489 C488 1.314 . S
N489 C492 1.279 . S
C490 C488 1.353 . S
C490 C493 1.348 . S
C490 H538 0.929 . S
C491 C492 1.358 . S
C491 C493 1.356 . S
C491 H539 0.930 . S
C492 N489 1.279 . S
C492 C491 1.358 . S
C492 H495 0.930 . S
C493 C490 1.348 . S
C493 C491 1.356 . S
H494 C488 0.930 . S
H495 C492 0.930 . S
C496 C498 1.348 . S
C496 C499 1.356 . S
C496 O526 1.325 . S
N497 C500 1.314 . S
N497 C501 1.279 . S
C498 C496 1.348 . S
C498 C500 1.353 . S
C498 H540 0.929 . S
C499 C496 1.356 . S
C499 C501 1.358 . S
C499 H541 0.930 . S
C500 N497 1.314 . S
C500 C498 1.353 . S
C500 H542 0.930 . S
C501 N497 1.279 . S
C501 C499 1.358 . S
C501 H543 0.930 . S
C502 C503 1.348 . S
C502 C504 1.356 . S
C502 O527 1.325 . S
C503 C502 1.348 . S
C503 C505 1.353 . S
C503 H544 0.929 . S
C504 C502 1.356 . S
C504 C506 1.358 . S
C504 H545 0.930 . S
C505 C503 1.353 . S
C505 N507 1.314 . S
C505 H546 0.930 . S
C506 C504 1.358 . S
C506 N507 1.279 . S
C506 H547 0.930 . S
N507 C505 1.314 . S
N507 C506 1.279 . S
C508 C510 1.353 . S
C508 N511 1.314 . S
C508 H514 0.930 . S
C509 N511 1.279 . S
C509 C512 1.358 . S
C509 H515 0.930 . S
C510 C508 1.353 . S
C510 C513 1.348 . S
C510 H548 0.929 . S
N511 Li466 1.990 . S
N511 C508 1.314 . S
N511 C509 1.279 . S
C512 C509 1.358 . S
C512 C513 1.356 . S
C512 H549 0.930 . S
C513 C510 1.348 . S
C513 C512 1.356 . S
H514 C508 0.930 . S
H515 C509 0.930 . S
C516 N517 1.314 . S
C516 C518 1.353 . S
C516 H522 0.930 . S
N517 Li467 1.990 . S
N517 C516 1.314 . S
N517 C520 1.279 . S
C518 C516 1.353 . S
C518 C521 1.348 . S
C518 H550 0.929 . S
C519 C520 1.358 . S
C519 C521 1.356 . S
C519 H551 0.930 . S
C520 N517 1.279 . S
C520 C519 1.358 . S
C520 H523 0.930 . S
C521 C518 1.348 . S
C521 C519 1.356 . S
H522 C516 0.930 . S
H523 C520 0.930 . S
O524 Li464 1.956 . S
O524 Li465 1.970 . S
O524 Li466 1.961 . S
O524 C468 1.325 . S
O525 Li464 1.970 . S
O525 Li465 1.956 . S
O525 Li467 1.961 . S
O525 C474 1.325 . S
O526 Li464 1.961 . S
O526 Li466 1.956 . S
O526 Li467 1.970 . S
O526 C496 1.325 . S
O527 Li465 1.961 . S
O527 Li466 1.970 . S
O527 Li467 1.956 . S
O527 C502 1.325 . S
H528 C470 0.929 . S
H529 C471 0.930 . S
H530 C472 0.930 . S
H531 C473 0.930 . S
H532 C475 0.930 . S
H533 C477 0.929 . S
H534 C478 0.930 . S
H535 C479 0.930 . S
H536 C482 0.930 . S
H537 C485 0.929 . S
H538 C490 0.929 . S
H539 C491 0.930 . S
H540 C498 0.929 . S
H541 C499 0.930 . S
H542 C500 0.930 . S
H543 C501 0.930 . S
H544 C503 0.929 . S
H545 C504 0.930 . S
H546 C505 0.930 . S
H547 C506 0.930 . S
H548 C510 0.929 . S
H549 C512 0.930 . S
H550 C518 0.929 . S
H551 C519 0.930 . S
Li552 N569 1.990 . S
Li552 O612 1.956 . S
Li552 O613 1.970 . S
Li552 O614 1.961 . S
Li553 N577 1.990 . S
Li553 O612 1.970 . S
Li553 O613 1.956 . S
Li553 O615 1.961 . S
Li554 N599 1.990 . S
Li554 O612 1.961 . S
Li554 O614 1.956 . S
Li554 O615 1.970 . S
Li555 N605 1.990 . S
Li555 O613 1.961 . S
Li555 O614 1.970 . S
Li555 O615 1.956 . S
C556 C558 1.348 . S
C556 C559 1.356 . S
C556 O612 1.325 . S
N557 C560 1.325 . S
N557 C561 1.293 . S
C558 C556 1.348 . S
C558 C560 1.353 . S
C558 H616 0.929 . S
C559 C556 1.356 . S
C559 C561 1.358 . S
C559 H617 0.930 . S
C560 N557 1.325 . S
C560 C558 1.353 . S
C560 H618 0.930 . S
C561 N557 1.293 . S
C561 C559 1.358 . S
C561 H619 0.930 . S
C562 C565 1.348 . S
C562 C566 1.356 . S
C562 O613 1.325 . S
C563 N564 1.279 . S
C563 C566 1.358 . S
C563 H620 0.930 . S
N564 C563 1.279 . S
N564 C567 1.314 . S
C565 C562 1.348 . S
C565 C567 1.353 . S
C565 H621 0.929 . S
C566 C562 1.356 . S
C566 C563 1.358 . S
C566 H622 0.930 . S
C567 N564 1.314 . S
C567 C565 1.353 . S
C567 H623 0.930 . S
C568 N569 1.314 . S
C568 C573 1.353 . S
C568 H574 0.930 . S
N569 Li552 1.990 . S
N569 C568 1.314 . S
N569 C571 1.279 . S
C570 C571 1.358 1_554 S
C570 C572 1.356 . S
C570 H624 0.930 . S
C571 N569 1.279 . S
C571 C570 1.358 1_556 S
C571 H575 0.930 . S
C572 C570 1.356 . S
C572 C573 1.348 1_554 S
C573 C568 1.353 . S
C573 C572 1.348 1_556 S
C573 H625 0.929 . S
H574 C568 0.930 . S
H575 C571 0.930 . S
C576 N577 1.314 . S
C576 C578 1.353 . S
C576 H582 0.930 . S
N577 Li553 1.990 . S
N577 C576 1.314 . S
N577 C580 1.279 . S
C578 C576 1.353 . S
C578 C581 1.348 . S
C578 H626 0.929 . S
C579 C580 1.358 . S
C579 C581 1.356 . S
C579 H627 0.930 . S
C580 N577 1.279 . S
C580 C579 1.358 . S
C580 H583 0.930 . S
C581 C578 1.348 . S
C581 C579 1.356 . S
H582 C576 0.930 . S
H583 C580 0.930 . S
C584 C586 1.348 . S
C584 C587 1.356 . S
C584 O614 1.325 . S
N585 C588 1.314 . S
N585 C589 1.279 . S
C586 C584 1.348 . S
C586 C588 1.353 . S
C586 H628 0.929 . S
C587 C584 1.356 . S
C587 C589 1.358 . S
C587 H629 0.930 . S
C588 N585 1.314 . S
C588 C586 1.353 . S
C588 H630 0.930 . S
C589 N585 1.279 . S
C589 C587 1.358 . S
C589 H631 0.930 . S
C590 C591 1.348 . S
C590 C592 1.356 . S
C590 O615 1.325 . S
C591 C590 1.348 . S
C591 C593 1.353 . S
C591 H632 0.929 . S
C592 C590 1.356 . S
C592 C594 1.358 . S
C592 H633 0.930 . S
C593 C591 1.353 . S
C593 N595 1.314 . S
C593 H634 0.930 . S
C594 C592 1.358 . S
C594 N595 1.279 . S
C594 H635 0.930 . S
N595 C593 1.314 . S
N595 C594 1.279 . S
C596 C598 1.353 . S
C596 N599 1.314 . S
C596 H602 0.930 . S
C597 N599 1.279 . S
C597 C600 1.358 . S
C597 H603 0.930 . S
C598 C596 1.353 . S
C598 C601 1.348 . S
C598 H636 0.929 . S
N599 Li554 1.990 . S
N599 C596 1.314 . S
N599 C597 1.279 . S
C600 C597 1.358 . S
C600 C601 1.356 . S
C600 H637 0.930 . S
C601 C598 1.348 . S
C601 C600 1.356 . S
H602 C596 0.930 . S
H603 C597 0.930 . S
C604 N605 1.314 . S
C604 C606 1.353 . S
C604 H610 0.930 . S
N605 Li555 1.990 . S
N605 C604 1.314 . S
N605 C608 1.279 . S
C606 C604 1.353 . S
C606 C609 1.348 . S
C606 H638 0.929 . S
C607 C608 1.358 . S
C607 C609 1.356 . S
C607 H639 0.930 . S
C608 N605 1.279 . S
C608 C607 1.358 . S
C608 H611 0.930 . S
C609 C606 1.348 . S
C609 C607 1.356 . S
H610 C604 0.930 . S
H611 C608 0.930 . S
O612 Li552 1.956 . S
O612 Li553 1.970 . S
O612 Li554 1.961 . S
O612 C556 1.325 . S
O613 Li552 1.970 . S
O613 Li553 1.956 . S
O613 Li555 1.961 . S
O613 C562 1.325 . S
O614 Li552 1.961 . S
O614 Li554 1.956 . S
O614 Li555 1.970 . S
O614 C584 1.325 . S
O615 Li553 1.961 . S
O615 Li554 1.970 . S
O615 Li555 1.956 . S
O615 C590 1.325 . S
H616 C558 0.929 . S
H617 C559 0.930 . S
H618 C560 0.930 . S
H619 C561 0.930 . S
H620 C563 0.930 . S
H621 C565 0.929 . S
H622 C566 0.930 . S
H623 C567 0.930 . S
H624 C570 0.930 . S
H625 C573 0.929 . S
H626 C578 0.929 . S
H627 C579 0.930 . S
H628 C586 0.929 . S
H629 C587 0.930 . S
H630 C588 0.930 . S
H631 C589 0.930 . S
H632 C591 0.929 . S
H633 C592 0.930 . S
H634 C593 0.930 . S
H635 C594 0.930 . S
H636 C598 0.929 . S
H637 C600 0.930 . S
H638 C606 0.929 . S
H639 C607 0.930 . S
Li640 N657 1.990 . S
Li640 O700 1.956 . S
Li640 O701 1.970 . S
Li640 O702 1.961 . S
Li641 N665 1.990 . S
Li641 O700 1.970 . S
Li641 O701 1.956 . S
Li641 O703 1.961 . S
Li642 N687 1.990 . S
Li642 O700 1.961 . S
Li642 O702 1.956 . S
Li642 O703 1.970 . S
Li643 N693 1.990 . S
Li643 O701 1.961 . S
Li643 O702 1.970 . S
Li643 O703 1.956 . S
C644 C646 1.348 . S
C644 C647 1.356 . S
C644 O700 1.325 . S
N645 C648 1.314 . S
N645 C649 1.279 . S
C646 C644 1.348 . S
C646 C648 1.353 . S
C646 H704 0.929 . S
C647 C644 1.356 . S
C647 C649 1.358 . S
C647 H705 0.930 . S
C648 N645 1.314 . S
C648 C646 1.353 . S
C648 H706 0.930 . S
C649 N645 1.279 . S
C649 C647 1.358 . S
C649 H707 0.930 . S
C650 C653 1.348 . S
C650 C654 1.356 . S
C650 O701 1.325 . S
C651 N652 1.279 . S
C651 C654 1.358 . S
C651 H708 0.930 . S
N652 C651 1.279 . S
N652 C655 1.314 . S
C653 C650 1.348 . S
C653 C655 1.353 . S
C653 H709 0.929 . S
C654 C650 1.356 . S
C654 C651 1.358 . S
C654 H710 0.930 . S
C655 N652 1.314 . S
C655 C653 1.353 . S
C655 H711 0.930 . S
C656 N657 1.314 . S
C656 C661 1.353 . S
C656 H662 0.930 . S
N657 Li640 1.990 . S
N657 C656 1.314 . S
N657 C659 1.279 . S
C658 C659 1.358 . S
C658 C660 1.356 . S
C658 H712 0.930 . S
C659 N657 1.279 . S
C659 C658 1.358 . S
C659 H663 0.930 . S
C660 C658 1.356 . S
C660 C661 1.348 . S
C661 C656 1.353 . S
C661 C660 1.348 . S
C661 H713 0.929 . S
H662 C656 0.930 . S
H663 C659 0.930 . S
C664 N665 1.314 . S
C664 C666 1.353 . S
C664 H670 0.930 . S
N665 Li641 1.990 . S
N665 C664 1.314 . S
N665 C668 1.279 . S
C666 C664 1.353 . S
C666 C669 1.348 . S
C666 H714 0.929 . S
C667 C668 1.358 . S
C667 C669 1.356 . S
C667 H715 0.930 . S
C668 N665 1.279 . S
C668 C667 1.358 . S
C668 H671 0.930 . S
C669 C666 1.348 . S
C669 C667 1.356 . S
H670 C664 0.930 . S
H671 C668 0.930 . S
C672 C674 1.348 . S
C672 C675 1.356 . S
C672 O702 1.325 . S
N673 C676 1.314 1_556 S
N673 C677 1.279 1_556 S
C674 C672 1.348 . S
C674 C676 1.353 . S
C674 H716 0.929 . S
C675 C672 1.356 . S
C675 C677 1.358 . S
C675 H717 0.930 . S
C676 N673 1.314 1_554 S
C676 C674 1.353 . S
C676 H718 0.930 1_554 S
C677 N673 1.279 1_554 S
C677 C675 1.358 . S
C677 H719 0.930 1_554 S
C678 C679 1.348 . S
C678 C680 1.356 . S
C678 O703 1.325 . S
C679 C678 1.348 . S
C679 C681 1.353 . S
C679 H720 0.929 . S
C680 C678 1.356 . S
C680 C682 1.358 . S
C680 H721 0.930 . S
C681 C679 1.353 . S
C681 N683 1.314 . S
C681 H722 0.930 . S
C682 C680 1.358 . S
C682 N683 1.279 . S
C682 H723 0.930 . S
N683 C681 1.314 . S
N683 C682 1.279 . S
C684 C686 1.353 . S
C684 N687 1.314 . S
C684 H690 0.930 . S
C685 N687 1.279 . S
C685 C688 1.358 1_554 S
C685 H691 0.930 . S
C686 C684 1.353 . S
C686 C689 1.348 1_554 S
C686 H724 0.929 . S
N687 Li642 1.990 . S
N687 C684 1.314 . S
N687 C685 1.279 . S
C688 C685 1.358 1_556 S
C688 C689 1.356 . S
C688 H725 0.930 . S
C689 C686 1.348 1_556 S
C689 C688 1.356 . S
H690 C684 0.930 . S
H691 C685 0.930 . S
C692 N693 1.314 . S
C692 C694 1.353 . S
C692 H698 0.930 . S
N693 Li643 1.990 . S
N693 C692 1.314 . S
N693 C696 1.279 . S
C694 C692 1.353 . S
C694 C697 1.348 . S
C694 H726 0.929 . S
C695 C696 1.358 . S
C695 C697 1.356 . S
C695 H727 0.930 . S
C696 N693 1.279 . S
C696 C695 1.358 . S
C696 H699 0.930 . S
C697 C694 1.348 . S
C697 C695 1.356 . S
H698 C692 0.930 . S
H699 C696 0.930 . S
O700 Li640 1.956 . S
O700 Li641 1.970 . S
O700 Li642 1.961 . S
O700 C644 1.325 . S
O701 Li640 1.970 . S
O701 Li641 1.956 . S
O701 Li643 1.961 . S
O701 C650 1.325 . S
O702 Li640 1.961 . S
O702 Li642 1.956 . S
O702 Li643 1.970 . S
O702 C672 1.325 . S
O703 Li641 1.961 . S
O703 Li642 1.970 . S
O703 Li643 1.956 . S
O703 C678 1.325 . S
H704 C646 0.929 . S
H705 C647 0.930 . S
H706 C648 0.930 . S
H707 C649 0.930 . S
H708 C651 0.930 . S
H709 C653 0.929 . S
H710 C654 0.930 . S
H711 C655 0.930 . S
H712 C658 0.930 . S
H713 C661 0.929 . S
H714 C666 0.929 . S
H715 C667 0.930 . S
H716 C674 0.929 . S
H717 C675 0.930 . S
H718 C676 0.930 1_556 S
H719 C677 0.930 1_556 S
H720 C679 0.929 . S
H721 C680 0.930 . S
H722 C681 0.930 . S
H723 C682 0.930 . S
H724 C686 0.929 . S
H725 C688 0.930 . S
H726 C694 0.929 . S
H727 C695 0.930 . S
Li728 N745 1.990 . S
Li728 O788 1.956 . S
Li728 O789 1.970 . S
Li728 O790 1.961 . S
Li729 N753 1.990 . S
Li729 O788 1.970 . S
Li729 O789 1.956 . S
Li729 O791 1.961 . S
Li730 N775 1.990 . S
Li730 O788 1.961 . S
Li730 O790 1.956 . S
Li730 O791 1.970 . S
Li731 N781 1.990 . S
Li731 O789 1.961 . S
Li731 O790 1.970 . S
Li731 O791 1.956 . S
C732 C734 1.348 . S
C732 C735 1.356 . S
C732 O788 1.325 . S
N733 C736 1.314 . S
N733 C737 1.279 . S
C734 C732 1.348 . S
C734 C736 1.353 . S
C734 H792 0.929 . S
C735 C732 1.356 . S
C735 C737 1.358 . S
C735 H793 0.930 . S
C736 N733 1.314 . S
C736 C734 1.353 . S
C736 H794 0.930 . S
C737 N733 1.279 . S
C737 C735 1.358 . S
C737 H795 0.930 . S
C738 C741 1.348 . S
C738 C742 1.356 . S
C738 O789 1.325 . S
C739 N740 1.279 . S
C739 C742 1.358 . S
C739 H796 0.930 . S
N740 C739 1.279 . S
N740 C743 1.314 . S
C741 C738 1.348 . S
C741 C743 1.353 . S
C741 H797 0.929 . S
C742 C738 1.356 . S
C742 C739 1.358 . S
C742 H798 0.930 . S
C743 N740 1.314 . S
C743 C741 1.353 . S
C743 H799 0.930 . S
C744 N745 1.314 . S
C744 C749 1.353 . S
C744 H750 0.930 . S
N745 Li728 1.990 . S
N745 C744 1.314 . S
N745 C747 1.279 . S
C746 C747 1.358 . S
C746 C748 1.356 . S
C746 H800 0.930 . S
C747 N745 1.279 . S
C747 C746 1.358 . S
C747 H751 0.930 . S
C748 C746 1.356 . S
C748 C749 1.348 . S
C749 C744 1.353 . S
C749 C748 1.348 . S
C749 H801 0.929 . S
H750 C744 0.930 . S
H751 C747 0.930 . S
C752 N753 1.314 . S
C752 C754 1.353 . S
C752 H758 0.930 . S
N753 Li729 1.990 . S
N753 C752 1.314 . S
N753 C756 1.279 . S
C754 C752 1.353 . S
C754 C757 1.348 . S
C754 H802 0.929 . S
C755 C756 1.358 . S
C755 C757 1.356 . S
C755 H803 0.930 . S
C756 N753 1.279 . S
C756 C755 1.358 . S
C756 H759 0.930 . S
C757 C754 1.348 . S
C757 C755 1.356 . S
H758 C752 0.930 . S
H759 C756 0.930 . S
C760 C762 1.348 . S
C760 C763 1.356 . S
C760 O790 1.325 . S
N761 C764 1.314 . S
N761 C765 1.279 . S
C762 C760 1.348 . S
C762 C764 1.353 . S
C762 H804 0.929 . S
C763 C760 1.356 . S
C763 C765 1.358 . S
C763 H805 0.930 . S
C764 N761 1.314 . S
C764 C762 1.353 . S
C764 H806 0.930 . S
C765 N761 1.279 . S
C765 C763 1.358 . S
C765 H807 0.930 . S
C766 C767 1.348 . S
C766 C768 1.356 . S
C766 O791 1.325 . S
C767 C766 1.348 . S
C767 C769 1.353 . S
C767 H808 0.929 . S
C768 C766 1.356 . S
C768 C770 1.358 . S
C768 H809 0.930 . S
C769 C767 1.353 . S
C769 N771 1.314 . S
C769 H810 0.930 . S
C770 C768 1.358 . S
C770 N771 1.279 . S
C770 H811 0.930 . S
N771 C769 1.314 . S
N771 C770 1.279 . S
C772 C774 1.353 . S
C772 N775 1.314 . S
C772 H778 0.930 . S
C773 N775 1.279 . S
C773 C776 1.358 . S
C773 H779 0.930 . S
C774 C772 1.353 . S
C774 C777 1.348 . S
C774 H812 0.929 . S
N775 Li730 1.990 . S
N775 C772 1.314 . S
N775 C773 1.279 . S
C776 C773 1.358 . S
C776 C777 1.356 . S
C776 H813 0.930 . S
C777 C774 1.348 . S
C777 C776 1.356 . S
H778 C772 0.930 . S
H779 C773 0.930 . S
C780 N781 1.314 . S
C780 C782 1.353 . S
C780 H786 0.930 . S
N781 Li731 1.990 . S
N781 C780 1.314 . S
N781 C784 1.279 . S
C782 C780 1.353 . S
C782 C785 1.348 . S
C782 H814 0.929 . S
C783 C784 1.358 . S
C783 C785 1.356 . S
C783 H815 0.930 . S
C784 N781 1.279 . S
C784 C783 1.358 . S
C784 H787 0.930 . S
C785 C782 1.348 . S
C785 C783 1.356 . S
H786 C780 0.930 . S
H787 C784 0.930 . S
O788 Li728 1.956 . S
O788 Li729 1.970 . S
O788 Li730 1.961 . S
O788 C732 1.325 . S
O789 Li728 1.970 . S
O789 Li729 1.956 . S
O789 Li731 1.961 . S
O789 C738 1.325 . S
O790 Li728 1.961 . S
O790 Li730 1.956 . S
O790 Li731 1.970 . S
O790 C760 1.325 . S
O791 Li729 1.961 . S
O791 Li730 1.970 . S
O791 Li731 1.956 . S
O791 C766 1.325 . S
H792 C734 0.929 . S
H793 C735 0.930 . S
H794 C736 0.930 . S
H795 C737 0.930 . S
H796 C739 0.930 . S
H797 C741 0.929 . S
H798 C742 0.930 . S
H799 C743 0.930 . S
H800 C746 0.930 . S
H801 C749 0.929 . S
H802 C754 0.929 . S
H803 C755 0.930 . S
H804 C762 0.929 . S
H805 C763 0.930 . S
H806 C764 0.930 . S
H807 C765 0.930 . S
H808 C767 0.929 . S
H809 C768 0.930 . S
H810 C769 0.930 . S
H811 C770 0.930 . S
H812 C774 0.929 . S
H813 C776 0.930 . S
H814 C782 0.929 . S
H815 C783 0.930 . S
C816 C817 1.363 . S
C816 C822 1.379 . S
C816 N824 1.356 . S
C817 C816 1.363 . S
C817 C823 1.363 . S
C818 C819 1.363 . S
C818 C823 1.379 . S
C818 N825 1.356 . S
C819 C818 1.363 . S
C819 C822 1.363 . S
N820 C822 1.356 . S
N820 H832 0.984 . S
N820 H833 0.985 . S
N821 C823 1.356 . S
N821 H826 0.984 . S
N821 H827 0.985 . S
C822 C816 1.379 . S
C822 C819 1.363 . S
C822 N820 1.356 . S
C823 C817 1.363 . S
C823 C818 1.379 . S
C823 N821 1.356 . S
N824 C816 1.356 . S
N824 H830 0.984 . S
N824 H831 0.984 . S
N825 C818 1.356 . S
N825 H828 0.984 . S
N825 H829 0.985 . S
H826 N821 0.984 . S
H827 N821 0.985 . S
H828 N825 0.984 . S
H829 N825 0.985 . S
H830 N824 0.984 . S
H831 N824 0.984 . S
H832 N820 0.984 . S
H833 N820 0.985 . S
C834 C835 1.363 . S
C834 C840 1.379 . S
C834 N842 1.356 . S
C835 C834 1.363 . S
C835 C841 1.363 . S
C836 C837 1.363 . S
C836 C841 1.379 . S
C836 N843 1.356 . S
C837 C836 1.363 . S
C837 C840 1.363 . S
N838 C840 1.356 . S
N838 H850 0.984 . S
N838 H851 0.985 . S
N839 C841 1.356 . S
N839 H844 0.984 . S
N839 H845 0.985 . S
C840 C834 1.379 . S
C840 C837 1.363 . S
C840 N838 1.356 . S
C841 C835 1.363 . S
C841 C836 1.379 . S
C841 N839 1.356 . S
N842 C834 1.356 . S
N842 H848 0.984 . S
N842 H849 0.984 . S
N843 C836 1.356 . S
N843 H846 0.984 . S
N843 H847 0.985 . S
H844 N839 0.984 . S
H845 N839 0.985 . S
H846 N843 0.984 . S
H847 N843 0.985 . S
H848 N842 0.984 . S
H849 N842 0.984 . S
H850 N838 0.984 . S
H851 N838 0.985 . S
C852 C853 1.363 . S
C852 C858 1.379 . S
C852 N860 1.356 . S
C853 C852 1.363 . S
C853 C859 1.363 . S
C854 C855 1.363 . S
C854 C859 1.379 . S
C854 N861 1.356 . S
C855 C854 1.363 . S
C855 C858 1.363 . S
N856 C858 1.356 . S
N856 H868 0.984 . S
N856 H869 0.985 . S
N857 C859 1.356 . S
N857 H862 0.984 . S
N857 H863 0.985 . S
C858 C852 1.379 . S
C858 C855 1.363 . S
C858 N856 1.356 . S
C859 C853 1.363 . S
C859 C854 1.379 . S
C859 N857 1.356 . S
N860 C852 1.356 . S
N860 H866 0.984 . S
N860 H867 0.984 . S
N861 C854 1.356 . S
N861 H864 0.984 . S
N861 H865 0.985 . S
H862 N857 0.984 . S
H863 N857 0.985 . S
H864 N861 0.984 . S
H865 N861 0.985 . S
H866 N860 0.984 . S
H867 N860 0.984 . S
H868 N856 0.984 . S
H869 N856 0.985 . S
C870 C871 1.363 . S
C870 C876 1.379 . S
C870 N878 1.356 . S
C871 C870 1.363 . S
C871 C877 1.363 . S
C872 C873 1.363 . S
C872 C877 1.379 . S
C872 N879 1.356 . S
C873 C872 1.363 . S
C873 C876 1.363 . S
N874 C876 1.356 . S
N874 H886 0.984 . S
N874 H887 0.985 . S
N875 C877 1.356 . S
N875 H880 0.984 . S
N875 H881 0.985 . S
C876 C870 1.379 . S
C876 C873 1.363 . S
C876 N874 1.356 . S
C877 C871 1.363 . S
C877 C872 1.379 . S
C877 N875 1.356 . S
N878 C870 1.356 . S
N878 H884 0.984 . S
N878 H885 0.984 . S
N879 C872 1.356 . S
N879 H882 0.984 . S
N879 H883 0.985 . S
H880 N875 0.984 . S
H881 N875 0.985 . S
H882 N879 0.984 . S
H883 N879 0.985 . S
H884 N878 0.984 . S
H885 N878 0.984 . S
H886 N874 0.984 . S
H887 N874 0.985 . S
C888 C889 1.363 . S
C888 C894 1.379 . S
C888 N896 1.356 . S
C889 C888 1.363 . S
C889 C895 1.363 . S
C890 C891 1.363 . S
C890 C895 1.379 . S
C890 N897 1.356 . S
C891 C890 1.363 . S
C891 C894 1.363 . S
N892 C894 1.356 . S
N892 H904 0.984 . S
N892 H905 0.985 . S
N893 C895 1.356 . S
N893 H898 0.984 . S
N893 H899 0.985 1_556 S
C894 C888 1.379 . S
C894 C891 1.363 . S
C894 N892 1.356 . S
C895 C889 1.363 . S
C895 C890 1.379 . S
C895 N893 1.356 . S
N896 C888 1.356 . S
N896 H902 0.984 . S
N896 H903 0.984 . S
N897 C890 1.356 . S
N897 H900 0.984 . S
N897 H901 0.985 . S
H898 N893 0.984 . S
H899 N893 0.985 1_554 S
H900 N897 0.984 . S
H901 N897 0.985 . S
H902 N896 0.984 . S
H903 N896 0.984 . S
H904 N892 0.984 . S
H905 N892 0.985 . S
C906 C907 1.363 . S
C906 C912 1.379 . S
C906 N914 1.356 . S
C907 C906 1.363 . S
C907 C913 1.363 . S
C908 C909 1.363 . S
C908 C913 1.379 . S
C908 N915 1.356 . S
C909 C908 1.363 . S
C909 C912 1.363 . S
N910 C912 1.356 . S
N910 H922 0.984 . S
N910 H923 0.985 . S
N911 C913 1.356 . S
N911 H916 0.984 . S
N911 H917 0.985 . S
C912 C906 1.379 . S
C912 C909 1.363 . S
C912 N910 1.356 . S
C913 C907 1.363 . S
C913 C908 1.379 . S
C913 N911 1.356 . S
N914 C906 1.356 . S
N914 H920 0.984 . S
N914 H921 0.984 . S
N915 C908 1.356 . S
N915 H918 0.984 . S
N915 H919 0.985 . S
H916 N911 0.984 . S
H917 N911 0.985 . S
H918 N915 0.984 . S
H919 N915 0.985 . S
H920 N914 0.984 . S
H921 N914 0.984 . S
H922 N910 0.984 . S
H923 N910 0.985 . S
C924 C925 1.363 . S
C924 C930 1.379 . S
C924 N932 1.356 . S
C925 C924 1.363 . S
C925 C931 1.363 . S
C926 C927 1.363 . S
C926 C931 1.379 . S
C926 N933 1.356 . S
C927 C926 1.363 . S
C927 C930 1.363 . S
N928 C930 1.356 . S
N928 H940 0.984 . S
N928 H941 0.985 . S
N929 C931 1.356 . S
N929 H934 0.984 . S
N929 H935 0.985 . S
C930 C924 1.379 . S
C930 C927 1.363 . S
C930 N928 1.356 . S
C931 C925 1.363 . S
C931 C926 1.379 . S
C931 N929 1.356 . S
N932 C924 1.356 . S
N932 H938 0.984 . S
N932 H939 0.984 . S
N933 C926 1.356 . S
N933 H936 0.984 . S
N933 H937 0.985 . S
H934 N929 0.984 . S
H935 N929 0.985 . S
H936 N933 0.984 . S
H937 N933 0.985 . S
H938 N932 0.984 . S
H939 N932 0.984 . S
H940 N928 0.984 . S
H941 N928 0.985 . S
C942 C943 1.363 . S
C942 C948 1.379 . S
C942 N950 1.356 . S
C943 C942 1.363 . S
C943 C949 1.363 . S
C944 C945 1.363 . S
C944 C949 1.379 . S
C944 N951 1.356 . S
C945 C944 1.363 . S
C945 C948 1.363 . S
N946 C948 1.356 . S
N946 H958 0.984 . S
N946 H959 0.985 . S
N947 C949 1.356 . S
N947 H952 0.984 . S
N947 H953 0.985 . S
C948 C942 1.379 . S
C948 C945 1.363 . S
C948 N946 1.356 . S
C949 C943 1.363 . S
C949 C944 1.379 . S
C949 N947 1.356 . S
N950 C942 1.356 . S
N950 H956 0.984 . S
N950 H957 0.984 . S
N951 C944 1.356 . S
N951 H954 0.984 . S
N951 H955 0.985 . S
H952 N947 0.984 . S
H953 N947 0.985 . S
H954 N951 0.984 . S
H955 N951 0.985 . S
H956 N950 0.984 . S
H957 N950 0.984 . S
H958 N946 0.984 . S
H959 N946 0.985 . S
C960 C961 1.363 . S
C960 C966 1.379 . S
C960 N968 1.356 . S
C961 C960 1.363 . S
C961 C967 1.363 . S
C962 C963 1.363 . S
C962 C967 1.379 . S
C962 N969 1.356 . S
C963 C962 1.363 . S
C963 C966 1.363 . S
N964 C966 1.356 . S
N964 H976 0.984 . S
N964 H977 0.985 . S
N965 C967 1.356 . S
N965 H970 0.984 . S
N965 H971 0.985 . S
C966 C960 1.379 . S
C966 C963 1.363 . S
C966 N964 1.356 . S
C967 C961 1.363 . S
C967 C962 1.379 . S
C967 N965 1.356 . S
N968 C960 1.356 . S
N968 H974 0.984 . S
N968 H975 0.984 . S
N969 C962 1.356 . S
N969 H972 0.984 . S
N969 H973 0.985 . S
H970 N965 0.984 . S
H971 N965 0.985 . S
H972 N969 0.984 . S
H973 N969 0.985 . S
H974 N968 0.984 . S
H975 N968 0.984 . S
H976 N964 0.984 . S
H977 N964 0.985 . S
C978 C979 1.363 . S
C978 C984 1.379 . S
C978 N986 1.320 1_554 S
C979 C978 1.363 . S
C979 C985 1.363 . S
C980 C981 1.363 . S
C980 C985 1.379 . S
C980 N987 1.356 . S
C981 C980 1.363 . S
C981 C984 1.363 . S
N982 C984 1.356 . S
N982 H994 0.984 . S
N982 H995 0.985 . S
N983 C985 1.356 . S
N983 H988 0.984 . S
N983 H989 0.985 . S
C984 C978 1.379 . S
C984 C981 1.363 . S
C984 N982 1.356 . S
C985 C979 1.363 . S
C985 C980 1.379 . S
C985 N983 1.356 . S
N986 C978 1.320 1_556 S
N986 H992 1.018 . S
N986 H993 0.988 . S
N987 C980 1.356 . S
N987 H990 0.984 . S
N987 H991 0.985 . S
H988 N983 0.984 . S
H989 N983 0.985 . S
H990 N987 0.984 . S
H991 N987 0.985 . S
H992 N986 1.018 . S
H993 N986 0.988 . S
H994 N982 0.984 . S
H995 N982 0.985 . S
C996 C997 1.363 . S
C996 C1002 1.379 . S
C996 N1004 1.356 . S
C997 C996 1.363 . S
C997 C1003 1.363 . S
C998 C999 1.363 . S
C998 C1003 1.379 . S
C998 N1005 1.356 . S
C999 C998 1.363 . S
C999 C1002 1.363 . S
N1000 C1002 1.356 . S
N1000 H1012 0.984 . S
N1000 H1013 0.985 . S
N1001 C1003 1.356 . S
N1001 H1006 0.984 . S
N1001 H1007 0.985 . S
C1002 C996 1.379 . S
C1002 C999 1.363 . S
C1002 N1000 1.356 . S
C1003 C997 1.363 . S
C1003 C998 1.379 . S
C1003 N1001 1.356 . S
N1004 C996 1.356 . S
N1004 H1010 0.984 . S
N1004 H1011 0.984 . S
N1005 C998 1.356 . S
N1005 H1008 0.984 . S
N1005 H1009 0.985 . S
H1006 N1001 0.984 . S
H1007 N1001 0.985 . S
H1008 N1005 0.984 . S
H1009 N1005 0.985 . S
H1010 N1004 0.984 . S
H1011 N1004 0.984 . S
H1012 N1000 0.984 . S
H1013 N1000 0.985 . S
C1014 C1015 1.363 . S
C1014 C1020 1.379 . S
C1014 N1022 1.356 . S
C1015 C1014 1.363 . S
C1015 C1021 1.363 . S
C1016 C1017 1.363 . S
C1016 C1021 1.379 . S
C1016 N1023 1.356 . S
C1017 C1016 1.363 . S
C1017 C1020 1.363 . S
N1018 C1020 1.356 . S
N1018 H1030 0.984 . S
N1018 H1031 0.985 . S
N1019 C1021 1.356 . S
N1019 H1024 0.984 . S
N1019 H1025 0.985 . S
C1020 C1014 1.379 . S
C1020 C1017 1.363 . S
C1020 N1018 1.356 . S
C1021 C1015 1.363 . S
C1021 C1016 1.379 . S
C1021 N1019 1.356 . S
N1022 C1014 1.356 . S
N1022 H1028 0.984 . S
N1022 H1029 0.984 . S
N1023 C1016 1.356 . S
N1023 H1026 0.984 . S
N1023 H1027 0.985 . S
H1024 N1019 0.984 . S
H1025 N1019 0.985 . S
H1026 N1023 0.984 . S
H1027 N1023 0.985 . S
H1028 N1022 0.984 . S
H1029 N1022 0.984 . S
H1030 N1018 0.984 . S
H1031 N1018 0.985 . S
C1032 C1033 1.363 . S
C1032 C1038 1.379 . S
C1032 N1040 1.356 . S
C1033 C1032 1.363 . S
C1033 C1039 1.363 . S
C1034 C1035 1.363 . S
C1034 C1039 1.379 . S
C1034 N1041 1.356 . S
C1035 C1034 1.363 . S
C1035 C1038 1.363 . S
N1036 C1038 1.356 . S
N1036 H1048 0.984 . S
N1036 H1049 0.985 . S
N1037 C1039 1.356 . S
N1037 H1042 0.984 . S
N1037 H1043 0.985 . S
C1038 C1032 1.379 . S
C1038 C1035 1.363 . S
C1038 N1036 1.356 . S
C1039 C1033 1.363 . S
C1039 C1034 1.379 . S
C1039 N1037 1.356 . S
N1040 C1032 1.356 . S
N1040 H1046 0.984 . S
N1040 H1047 0.984 . S
N1041 C1034 1.356 . S
N1041 H1044 0.984 . S
N1041 H1045 0.985 . S
H1042 N1037 0.984 . S
H1043 N1037 0.985 . S
H1044 N1041 0.984 . S
H1045 N1041 0.985 . S
H1046 N1040 0.984 . S
H1047 N1040 0.984 . S
H1048 N1036 0.984 . S
H1049 N1036 0.985 . S
C1050 C1051 1.363 . S
C1050 C1056 1.379 . S
C1050 N1058 1.356 . S
C1051 C1050 1.363 . S
C1051 C1057 1.363 . S
C1052 C1053 1.363 . S
C1052 C1057 1.379 . S
C1052 N1059 1.356 . S
C1053 C1052 1.363 . S
C1053 C1056 1.363 . S
N1054 C1056 1.356 . S
N1054 H1066 0.984 . S
N1054 H1067 0.985 . S
N1055 C1057 1.356 . S
N1055 H1060 0.984 . S
N1055 H1061 0.985 . S
C1056 C1050 1.379 . S
C1056 C1053 1.363 . S
C1056 N1054 1.356 . S
C1057 C1051 1.363 . S
C1057 C1052 1.379 . S
C1057 N1055 1.356 . S
N1058 C1050 1.356 . S
N1058 H1064 0.984 . S
N1058 H1065 0.984 . S
N1059 C1052 1.356 . S
N1059 H1062 0.984 . S
N1059 H1063 0.985 . S
H1060 N1055 0.984 . S
H1061 N1055 0.985 . S
H1062 N1059 0.984 . S
H1063 N1059 0.985 . S
H1064 N1058 0.984 . S
H1065 N1058 0.984 . S
H1066 N1054 0.984 . S
H1067 N1054 0.985 . S
C1068 C1069 1.363 . S
C1068 C1074 1.379 . S
C1068 N1076 1.356 . S
C1069 C1068 1.363 . S
C1069 C1075 1.363 . S
C1070 C1071 1.363 . S
C1070 C1075 1.379 . S
C1070 N1077 1.356 . S
C1071 C1070 1.363 . S
C1071 C1074 1.363 . S
N1072 C1074 1.356 . S
N1072 H1084 0.984 . S
N1072 H1085 0.985 . S
N1073 C1075 1.356 . S
N1073 H1078 0.984 . S
N1073 H1079 0.985 . S
C1074 C1068 1.379 . S
C1074 C1071 1.363 . S
C1074 N1072 1.356 . S
C1075 C1069 1.363 . S
C1075 C1070 1.379 . S
C1075 N1073 1.356 . S
N1076 C1068 1.356 . S
N1076 H1082 0.984 . S
N1076 H1083 0.984 . S
N1077 C1070 1.356 . S
N1077 H1080 0.984 . S
N1077 H1081 0.985 . S
H1078 N1073 0.984 . S
H1079 N1073 0.985 . S
H1080 N1077 0.984 . S
H1081 N1077 0.985 . S
H1082 N1076 0.984 . S
H1083 N1076 0.984 . S
H1084 N1072 0.984 . S
H1085 N1072 0.985 . S
C1086 C1087 1.363 . S
C1086 C1092 1.379 . S
C1086 N1094 1.356 . S
C1087 C1086 1.363 . S
C1087 C1093 1.363 . S
C1088 C1089 1.363 . S
C1088 C1093 1.379 . S
C1088 N1095 1.356 . S
C1089 C1088 1.363 . S
C1089 C1092 1.363 . S
N1090 C1092 1.356 . S
N1090 H1102 0.984 . S
N1090 H1103 0.985 . S
N1091 C1093 1.356 . S
N1091 H1096 0.984 . S
N1091 H1097 0.985 . S
C1092 C1086 1.379 . S
C1092 C1089 1.363 . S
C1092 N1090 1.356 . S
C1093 C1087 1.363 . S
C1093 C1088 1.379 . S
C1093 N1091 1.356 . S
N1094 C1086 1.356 . S
N1094 H1100 0.984 . S
N1094 H1101 0.984 . S
N1095 C1088 1.356 . S
N1095 H1098 0.984 1_556 S
N1095 H1099 0.985 1_556 S
H1096 N1091 0.984 . S
H1097 N1091 0.985 . S
H1098 N1095 0.984 1_554 S
H1099 N1095 0.985 1_554 S
H1100 N1094 0.984 . S
H1101 N1094 0.984 . S
H1102 N1090 0.984 . S
H1103 N1090 0.985 . S
C1104 C1105 1.363 . S
C1104 C1110 1.379 . S
C1104 N1112 1.356 . S
C1105 C1104 1.363 . S
C1105 C1111 1.363 . S
C1106 C1107 1.363 . S
C1106 C1111 1.379 . S
C1106 N1113 1.356 . S
C1107 C1106 1.363 . S
C1107 C1110 1.363 . S
N1108 C1110 1.356 . S
N1108 H1120 0.984 . S
N1108 H1121 0.985 . S
N1109 C1111 1.356 . S
N1109 H1114 0.984 . S
N1109 H1115 0.985 . S
C1110 C1104 1.379 . S
C1110 C1107 1.363 . S
C1110 N1108 1.356 . S
C1111 C1105 1.363 . S
C1111 C1106 1.379 . S
C1111 N1109 1.356 . S
N1112 C1104 1.356 . S
N1112 H1118 0.984 . S
N1112 H1119 0.984 . S
N1113 C1106 1.356 . S
N1113 H1116 0.984 . S
N1113 H1117 0.985 . S
H1114 N1109 0.984 . S
H1115 N1109 0.985 . S
H1116 N1113 0.984 . S
H1117 N1113 0.985 . S
H1118 N1112 0.984 . S
H1119 N1112 0.984 . S
H1120 N1108 0.984 . S
H1121 N1108 0.985 . S
C1122 C1123 1.363 . S
C1122 C1128 1.379 . S
C1122 N1130 1.356 . S
C1123 C1122 1.363 . S
C1123 C1129 1.363 . S
C1124 C1125 1.363 . S
C1124 C1129 1.379 . S
C1124 N1131 1.356 . S
C1125 C1124 1.363 . S
C1125 C1128 1.363 . S
N1126 C1128 1.356 . S
N1126 H1138 0.984 . S
N1126 H1139 0.985 . S
N1127 C1129 1.356 . S
N1127 H1132 0.984 . S
N1127 H1133 0.985 . S
C1128 C1122 1.379 . S
C1128 C1125 1.363 . S
C1128 N1126 1.356 . S
C1129 C1123 1.363 . S
C1129 C1124 1.379 . S
C1129 N1127 1.356 . S
N1130 C1122 1.356 . S
N1130 H1136 0.984 . S
N1130 H1137 0.984 . S
N1131 C1124 1.356 . S
N1131 H1134 0.984 . S
N1131 H1135 0.985 . S
H1132 N1127 0.984 . S
H1133 N1127 0.985 . S
H1134 N1131 0.984 . S
H1135 N1131 0.985 . S
H1136 N1130 0.984 . S
H1137 N1130 0.984 . S
H1138 N1126 0.984 . S
H1139 N1126 0.985 . S
C1140 C1141 1.363 . S
C1140 C1146 1.379 . S
C1140 N1148 1.356 . S
C1141 C1140 1.363 . S
C1141 C1147 1.363 . S
C1142 C1143 1.363 . S
C1142 C1147 1.379 . S
C1142 N1149 1.356 . S
C1143 C1142 1.363 . S
C1143 C1146 1.363 . S
N1144 C1146 1.356 . S
N1144 H1156 0.984 . S
N1144 H1157 0.985 . S
N1145 C1147 1.356 . S
N1145 H1150 0.984 . S
N1145 H1151 0.985 . S
C1146 C1140 1.379 . S
C1146 C1143 1.363 . S
C1146 N1144 1.356 . S
C1147 C1141 1.363 . S
C1147 C1142 1.379 . S
C1147 N1145 1.356 . S
N1148 C1140 1.356 . S
N1148 H1154 0.984 . S
N1148 H1155 0.984 . S
N1149 C1142 1.356 . S
N1149 H1152 0.984 . S
N1149 H1153 0.985 . S
H1150 N1145 0.984 . S
H1151 N1145 0.985 . S
H1152 N1149 0.984 . S
H1153 N1149 0.985 . S
H1154 N1148 0.984 . S
H1155 N1148 0.984 . S
H1156 N1144 0.984 . S
H1157 N1144 0.985 . S
C1158 C1159 1.363 . S
C1158 C1164 1.379 . S
C1158 N1166 1.356 . S
C1159 C1158 1.363 . S
C1159 C1165 1.363 . S
C1160 C1161 1.363 . S
C1160 C1165 1.379 . S
C1160 N1167 1.356 . S
C1161 C1160 1.363 . S
C1161 C1164 1.363 . S
N1162 C1164 1.356 . S
N1162 H1174 0.984 . S
N1162 H1175 0.985 . S
N1163 C1165 1.356 . S
N1163 H1168 0.984 . S
N1163 H1169 0.985 . S
C1164 C1158 1.379 . S
C1164 C1161 1.363 . S
C1164 N1162 1.356 . S
C1165 C1159 1.363 . S
C1165 C1160 1.379 . S
C1165 N1163 1.356 . S
N1166 C1158 1.356 . S
N1166 H1172 0.984 . S
N1166 H1173 0.984 . S
N1167 C1160 1.356 . S
N1167 H1170 0.984 . S
N1167 H1171 0.985 . S
H1168 N1163 0.984 . S
H1169 N1163 0.985 . S
H1170 N1167 0.984 . S
H1171 N1167 0.985 . S
H1172 N1166 0.984 . S
H1173 N1166 0.984 . S
H1174 N1162 0.984 . S
H1175 N1162 0.985 . S
C1176 C1177 1.363 . S
C1176 C1182 1.379 . S
C1176 N1184 1.356 . S
C1177 C1176 1.363 . S
C1177 C1183 1.363 . S
C1178 C1179 1.363 . S
C1178 C1183 1.379 . S
C1178 N1185 1.356 . S
C1179 C1178 1.363 . S
C1179 C1182 1.363 . S
N1180 C1182 1.356 . S
N1180 H1192 0.984 . S
N1180 H1193 0.985 . S
N1181 C1183 1.356 . S
N1181 H1186 0.984 . S
N1181 H1187 0.985 . S
C1182 C1176 1.379 . S
C1182 C1179 1.363 . S
C1182 N1180 1.356 . S
C1183 C1177 1.363 . S
C1183 C1178 1.379 . S
C1183 N1181 1.356 . S
N1184 C1176 1.356 . S
N1184 H1190 0.984 . S
N1184 H1191 0.984 . S
N1185 C1178 1.356 . S
N1185 H1188 0.984 . S
N1185 H1189 0.985 . S
H1186 N1181 0.984 . S
H1187 N1181 0.985 . S
H1188 N1185 0.984 . S
H1189 N1185 0.985 . S
H1190 N1184 0.984 . S
H1191 N1184 0.984 . S
H1192 N1180 0.984 . S
H1193 N1180 0.985 . S
C1194 C1195 1.363 . S
C1194 C1200 1.379 . S
C1194 N1202 1.356 . S
C1195 C1194 1.363 . S
C1195 C1201 1.363 . S
C1196 C1197 1.363 . S
C1196 C1201 1.379 . S
C1196 N1203 1.356 . S
C1197 C1196 1.363 . S
C1197 C1200 1.363 . S
N1198 C1200 1.356 . S
N1198 H1210 0.984 . S
N1198 H1211 0.985 . S
N1199 C1201 1.356 . S
N1199 H1204 0.984 . S
N1199 H1205 0.985 . S
C1200 C1194 1.379 . S
C1200 C1197 1.363 . S
C1200 N1198 1.356 . S
C1201 C1195 1.363 . S
C1201 C1196 1.379 . S
C1201 N1199 1.356 . S
N1202 C1194 1.356 . S
N1202 H1208 0.984 . S
N1202 H1209 0.984 . S
N1203 C1196 1.356 . S
N1203 H1206 0.984 . S
N1203 H1207 0.985 . S
H1204 N1199 0.984 . S
H1205 N1199 0.985 . S
H1206 N1203 0.984 . S
H1207 N1203 0.985 . S
H1208 N1202 0.984 . S
H1209 N1202 0.984 . S
H1210 N1198 0.984 . S
H1211 N1198 0.985 . S
C1212 C1213 1.363 . S
C1212 C1218 1.379 . S
C1212 N1220 1.356 . S
C1213 C1212 1.363 . S
C1213 C1219 1.363 . S
C1214 C1215 1.363 . S
C1214 C1219 1.379 . S
C1214 N1221 1.356 . S
C1215 C1214 1.363 . S
C1215 C1218 1.363 . S
N1216 C1218 1.356 . S
N1216 H1228 0.984 . S
N1216 H1229 0.985 . S
N1217 C1219 1.356 . S
N1217 H1222 0.984 . S
N1217 H1223 0.985 . S
C1218 C1212 1.379 . S
C1218 C1215 1.363 . S
C1218 N1216 1.356 . S
C1219 C1213 1.363 . S
C1219 C1214 1.379 . S
C1219 N1217 1.356 . S
N1220 C1212 1.356 . S
N1220 H1226 0.984 . S
N1220 H1227 0.984 . S
N1221 C1214 1.356 . S
N1221 H1224 0.984 1_554 S
N1221 H1225 0.985 1_554 S
H1222 N1217 0.984 . S
H1223 N1217 0.985 . S
H1224 N1221 0.984 1_556 S
H1225 N1221 0.985 1_556 S
H1226 N1220 0.984 . S
H1227 N1220 0.984 . S
H1228 N1216 0.984 . S
H1229 N1216 0.985 . S
C1230 C1231 1.363 . S
C1230 C1236 1.379 . S
C1230 N1238 1.356 . S
C1231 C1230 1.363 . S
C1231 C1237 1.363 . S
C1232 C1233 1.363 . S
C1232 C1237 1.379 . S
C1232 N1239 1.356 . S
C1233 C1232 1.363 . S
C1233 C1236 1.363 . S
N1234 C1236 1.356 . S
N1234 H1246 0.984 . S
N1234 H1247 0.985 . S
N1235 C1237 1.356 . S
N1235 H1240 0.984 . S
N1235 H1241 0.985 . S
C1236 C1230 1.379 . S
C1236 C1233 1.363 . S
C1236 N1234 1.356 . S
C1237 C1231 1.363 . S
C1237 C1232 1.379 . S
C1237 N1235 1.356 . S
N1238 C1230 1.356 . S
N1238 H1244 0.984 . S
N1238 H1245 0.984 . S
N1239 C1232 1.356 . S
N1239 H1242 0.984 . S
N1239 H1243 0.985 . S
H1240 N1235 0.984 . S
H1241 N1235 0.985 . S
H1242 N1239 0.984 . S
H1243 N1239 0.985 . S
H1244 N1238 0.984 . S
H1245 N1238 0.984 . S
H1246 N1234 0.984 . S
H1247 N1234 0.985 . S
C819 C757 1.739 . S
C817 C45 1.752 . S
C835 C84 1.735 . S
C837 C317 1.741 . S
C853 C126 1.663 . S
C855 C405 1.741 . S
C871 C189 1.752 . S
C873 C484 1.739 . S
C891 C581 1.741 . S
C889 C228 1.735 . S
C907 C270 1.663 . S
C909 C660 1.741 . S
C925 C69 1.703 . S
C927 C425 1.741 . S
C943 C141 1.752 . S
C945 C521 1.739 . S
C961 C174 1.663 . S
C963 C601 1.741 . S
C981 C697 1.741 . S
C979 C213 1.703 . S
C999 C777 1.739 . S
C997 C285 1.752 . S
C1017 C337 1.741 . S
C1015 C30 1.663 . S
C1033 C36 1.518 . S
C1035 C433 1.509 . S
C1051 C93 1.522 . S
C1053 C513 1.506 . S
C1071 C609 1.508 . S
C1069 C117 1.511 . S
C1087 C180 1.518 . S
C1089 C689 1.509 . S
C1107 C785 1.506 . S
C1105 C237 1.522 . S
C1125 C345 1.508 . S
C1123 C261 1.510 . S
C1143 C748 1.506 . S
C1141 C78 1.504 . S
C1159 C132 1.517 . S
C1161 C308 1.509 . S
C1179 C396 1.508 . S
C1177 C165 1.510 . S
C1195 C222 1.504 . S
C1197 C493 1.506 . S
C1213 C276 1.517 . S
C1215 C572 1.509 . S
C1231 C21 1.510 . S
C1233 C669 1.508 . S
