# Generated by pormake.
# Topology zzz, (3,6)-cn, num edge types: 1
# Building blocks:
#     Node 0, Type 0, BuildingBlock: QEWDON_clean_linker_0, # of connection points: 3
#     Node 1, Type 0, BuildingBlock: QEWDON_clean_linker_0, # of connection points: 3
#     Node 2, Type 0, BuildingBlock: QEWDON_clean_linker_0, # of connection points: 3
#     Node 3, Type 0, BuildingBlock: QEWDON_clean_linker_0, # of connection points: 3
#     Node 4, Type 0, BuildingBlock: QEWDON_clean_linker_0, # of connection points: 3
#     Node 5, Type 0, BuildingBlock: QEWDON_clean_linker_0, # of connection points: 3
#     Node 6, Type 0, BuildingBlock: QEWDON_clean_linker_0, # of connection points: 3
#     Node 7, Type 0, BuildingBlock: QEWDON_clean_linker_0, # of connection points: 3
#     Node 8, Type 1, BuildingBlock: PAMTOO_clean_sbu_0, # of connection points: 6
#     Node 9, Type 1, BuildingBlock: PAMTOO_clean_sbu_0, # of connection points: 6
#     Node 10, Type 1, BuildingBlock: PAMTOO_clean_sbu_0, # of connection points: 6
#     Node 11, Type 1, BuildingBlock: PAMTOO_clean_sbu_0, # of connection points: 6
#     Edge 12, Type (0, 1), BuildingBlock: OJICUG_clean_linker_0, # of connection points: 2
#     Edge 13, Type (0, 1), BuildingBlock: OJICUG_clean_linker_0, # of connection points: 2
#     Edge 14, Type (0, 1), BuildingBlock: OJICUG_clean_linker_0, # of connection points: 2
#     Edge 15, Type (0, 1), BuildingBlock: OJICUG_clean_linker_0, # of connection points: 2
#     Edge 16, Type (0, 1), BuildingBlock: OJICUG_clean_linker_0, # of connection points: 2
#     Edge 17, Type (0, 1), BuildingBlock: OJICUG_clean_linker_0, # of connection points: 2
#     Edge 18, Type (0, 1), BuildingBlock: OJICUG_clean_linker_0, # of connection points: 2
#     Edge 19, Type (0, 1), BuildingBlock: OJICUG_clean_linker_0, # of connection points: 2
#     Edge 20, Type (0, 1), BuildingBlock: OJICUG_clean_linker_0, # of connection points: 2
#     Edge 21, Type (0, 1), BuildingBlock: OJICUG_clean_linker_0, # of connection points: 2
#     Edge 22, Type (0, 1), BuildingBlock: OJICUG_clean_linker_0, # of connection points: 2
#     Edge 23, Type (0, 1), BuildingBlock: OJICUG_clean_linker_0, # of connection points: 2
#     Edge 24, Type (0, 1), BuildingBlock: OJICUG_clean_linker_0, # of connection points: 2
#     Edge 25, Type (0, 1), BuildingBlock: OJICUG_clean_linker_0, # of connection points: 2
#     Edge 26, Type (0, 1), BuildingBlock: OJICUG_clean_linker_0, # of connection points: 2
#     Edge 27, Type (0, 1), BuildingBlock: OJICUG_clean_linker_0, # of connection points: 2
#     Edge 28, Type (0, 1), BuildingBlock: OJICUG_clean_linker_0, # of connection points: 2
#     Edge 29, Type (0, 1), BuildingBlock: OJICUG_clean_linker_0, # of connection points: 2
#     Edge 30, Type (0, 1), BuildingBlock: OJICUG_clean_linker_0, # of connection points: 2
#     Edge 31, Type (0, 1), BuildingBlock: OJICUG_clean_linker_0, # of connection points: 2
#     Edge 32, Type (0, 1), BuildingBlock: OJICUG_clean_linker_0, # of connection points: 2
#     Edge 33, Type (0, 1), BuildingBlock: OJICUG_clean_linker_0, # of connection points: 2
#     Edge 34, Type (0, 1), BuildingBlock: OJICUG_clean_linker_0, # of connection points: 2
#     Edge 35, Type (0, 1), BuildingBlock: OJICUG_clean_linker_0, # of connection points: 2
# Relax obj value: 0.206
# Max RMSD: 0.259
# Mean RMSD: 0.095
data_MOF--net-zzz--node1-PAMTOO_clean_sbu_0--node2-QEWDON_clean_linker_0--edge1-OJICUG_clean_linker_0
_symmetry_space_group_name_H-M    P1
_symmetry_Int_Tables_number       1
_symmetry_cell_setting            triclinic
loop_
_symmetry_equiv_pos_as_xyz
'x, y, z'
_cell_length_a     45.117447
_cell_length_b     38.332293
_cell_length_c     11.566291
_cell_angle_alpha  92.530223
_cell_angle_beta   76.973302
_cell_angle_gamma 86.344316
loop_
_atom_site_label
_atom_site_type_symbol
_atom_site_fract_x
_atom_site_fract_y
_atom_site_fract_z
_atom_type_partial_charge
H0 H 0.82932 0.45763 0.51653 0.0
C1 C 0.84423 0.46843 0.56797 0.0
C2 C 0.87363 0.45231 0.55358 0.0
C3 C 0.83419 0.49789 0.64806 0.0
H4 H 0.91621 0.45328 0.60744 0.0
C5 C 0.89306 0.46508 0.62147 0.0
C6 C 0.88417 0.49453 0.70019 0.0
C7 C 0.85478 0.51128 0.7126 0.0
C8 C 0.802 0.51341 0.66614 0.0
H9 H 0.84813 0.53449 0.77202 0.0
C10 C 0.78634 0.51259 0.57267 0.0
C11 C 0.75493 0.52291 0.59414 0.0
C12 C 0.78583 0.52665 0.77985 0.0
H13 H 0.79667 0.52725 0.85433 0.0
C14 C 0.75497 0.53801 0.80043 0.0
H15 H 0.79823 0.50304 0.48375 0.0
C16 C 0.73951 0.53578 0.70891 0.0
H17 H 0.71543 0.5442 0.72777 0.0
H18 H 0.7428 0.54794 0.88854 0.0
H19 H 0.08755 0.72278 0.4195 0.0
C20 C 0.07818 0.74454 0.48263 0.0
C21 C 0.09403 0.77501 0.47714 0.0
C22 C 0.05 0.74285 0.56537 0.0
H23 H 0.0936 0.82749 0.55395 0.0
C24 C 0.08238 0.8032 0.55958 0.0
C25 C 0.05443 0.80267 0.64029 0.0
C26 C 1.03811 0.7726 0.64339 0.0
C27 C 1.03237 0.71092 0.56613 0.0
H28 H 1.01581 0.77305 0.70305 0.0
C29 C 1.03382 0.69006 0.46065 0.0
C30 C 1.01816 0.65922 0.46195 0.0
C31 C 1.0142 0.70074 0.67304 0.0
H32 H 1.01291 0.7154 0.75639 0.0
C33 C 0.99779 0.67105 0.67446 0.0
H34 H 0.04773 0.69732 0.3776 0.0
C35 C 0.99969 0.65044 0.57019 0.0
H36 H 0.98676 0.6275 0.57479 0.0
H37 H 0.98382 0.66366 0.75739 0.0
H38 H 0.79808 0.0601 0.33004 0.0
C39 C 0.77931 0.0484 0.38658 0.0
C40 C 0.74961 0.05729 0.37408 0.0
C41 C 0.78436 0.02552 0.47424 0.0
H42 H 0.70196 0.05017 0.43567 0.0
C43 C 0.72481 0.04318 0.44706 0.0
C44 C 0.72852 0.02034 0.53376 0.0
C45 C 0.75838 1.0115 0.54779 0.0
C46 C 0.81629 1.01771 0.49247 0.0
H47 H 0.76114 0.99331 0.61414 0.0
C48 C 0.84313 1.01868 0.39943 0.0
C49 C 0.87283 1.01283 0.4214 0.0
C50 C 0.82016 1.01052 0.60673 0.0
H51 H 0.80085 1.01075 0.68174 0.0
C52 C 0.84909 1.00369 0.62782 0.0
H53 H 0.84107 0.02425 0.31063 0.0
C54 C 0.87505 1.00467 0.5367 0.0
H55 H 0.89703 0.99877 0.55714 0.0
H56 H 0.85144 0.99787 0.71621 0.0
H57 H 0.52893 0.74518 0.22322 0.0
C58 C 0.53189 0.73094 0.29911 0.0
C59 C 0.51895 0.69842 0.31744 0.0
C60 C 0.55026 0.74371 0.3739 0.0
H61 H 0.51635 0.65298 0.42183 0.0
C62 C 0.52459 0.67889 0.41048 0.0
C63 C 0.54332 0.69006 0.48263 0.0
C64 C 0.55553 0.72273 0.46694 0.0
C65 C 0.56605 0.7771 0.34992 0.0
H66 H 0.56924 0.73134 0.52683 0.0
C67 C 0.5535 0.806 0.29848 0.0
C68 C 0.56895 0.83714 0.28032 0.0
C69 C 0.59473 0.77995 0.37762 0.0
H70 H 0.60616 0.75827 0.41104 0.0
C71 C 0.60972 0.8106 0.36061 0.0
H72 H 0.53169 0.80474 0.27482 0.0
C73 C 0.59691 0.83899 0.31336 0.0
H74 H 0.60938 0.86227 0.29948 0.0
H75 H 0.63165 0.8122 0.38305 0.0
H76 H 0.28368 0.5927 0.1767 0.0
C77 C 0.2687 0.5839 0.12204 0.0
C78 C 0.2412 0.60379 0.12746 0.0
C79 C 0.27633 0.55254 0.04995 0.0
H80 H 0.19995 0.60771 0.06289 0.0
C81 C 0.22184 0.59324 0.05525 0.0
C82 C 0.22838 0.56194 0.98449 0.0
C83 C 0.25552 0.54141 0.98295 0.0
C84 C 0.30568 0.53141 0.04664 0.0
H85 H 0.25999 0.51657 0.93148 0.0
C86 C 0.31853 0.53019 0.14769 0.0
C87 C 0.34695 0.5116 0.14225 0.0
C88 C 0.32156 0.51298 0.94071 0.0
H89 H 0.3129 0.51365 0.86077 0.0
C90 C 0.3493 0.49404 0.93534 0.0
H91 H 0.30624 0.54315 0.23137 0.0
C92 C 0.36209 0.49356 0.03443 0.0
H93 H 0.38411 0.47942 0.02576 0.0
H94 H 0.3611 0.47992 0.85324 0.0
H95 H 1.01544 0.30586 0.37012 0.0
C96 C 1.0227 0.28384 0.30594 0.0
C97 C 1.00651 0.25374 0.32178 0.0
C98 C 0.04804 0.28509 0.20873 0.0
H99 H 1.00311 0.20137 0.2532 0.0
C100 C 1.01499 0.22514 0.23907 0.0
C101 C 1.04029 0.22511 0.14466 0.0
C102 C 0.05708 0.25487 0.1297 0.0
C103 C 0.06513 0.31752 0.1906 0.0
H104 H 0.07726 0.25404 0.05801 0.0
C105 C 0.06661 0.34085 0.2873 0.0
C106 C 0.08193 0.37179 0.26881 0.0
C107 C 0.07957 0.32593 0.07509 0.0
H108 H 0.07821 0.3097 -0.00219 0.0
C109 C 0.09546 0.35601 0.05682 0.0
H110 H 0.05613 0.3351 0.37743 0.0
C111 C 0.09671 0.37876 0.15266 0.0
H112 H 0.10823 0.40257 0.13525 0.0
H113 H 0.1063 0.36213 0.96741 0.0
H114 H 0.29056 0.99554 0.51678 0.0
C115 C 0.30807 1.00162 0.44118 0.0
C116 C 0.3372 0.98408 0.42261 0.0
C117 C 0.3022 0.02811 0.36619 0.0
H118 H 0.38358 0.98071 0.32031 0.0
C119 C 0.36076 0.99325 0.33073 0.0
C120 C 0.35638 0.02012 0.25809 0.0
C121 C 0.32693 0.03718 0.27392 0.0
C122 C 0.2713 0.04831 0.39143 0.0
H123 H 0.3236 0.05759 0.21538 0.0
C124 C 0.24354 0.03307 0.44206 0.0
C125 C 0.215 0.05335 0.46791 0.0
C126 C 0.26966 0.08411 0.36932 0.0
H127 H 0.29002 0.09735 0.33545 0.0
C128 C 0.24182 0.104 0.39432 0.0
H129 H 0.244 1.00557 0.45965 0.0
C130 C 0.21489 0.08895 0.44306 0.0
H131 H 0.19391 0.1057 0.46411 0.0
H132 H 0.24117 0.13157 0.3775 0.0
H133 H 0.55143 0.28618 0.58958 0.0
C134 C 0.54643 0.30326 0.52334 0.0
C135 C 0.54701 0.33961 0.54383 0.0
C136 C 0.54018 0.28951 0.41596 0.0
H137 H 0.54283 0.39023 0.47493 0.0
C138 C 0.54198 0.3622 0.45827 0.0
C139 C 0.53629 0.34994 0.35161 0.0
C140 C 0.53438 0.31374 0.33139 0.0
C141 C 0.54128 0.25034 0.38872 0.0
H142 H 0.52892 0.30487 0.24917 0.0
C143 C 0.53606 0.22569 0.47893 0.0
C144 C 0.53729 0.18916 0.44902 0.0
C145 C 0.54852 0.23706 0.26916 0.0
H146 H 0.5544 0.25399 0.19648 0.0
C147 C 0.54912 0.20139 0.23986 0.0
H148 H 0.53052 0.23462 0.57184 0.0
C149 C 0.54344 0.17772 0.32841 0.0
H150 H 0.54482 0.1501 0.30194 0.0
H151 H 0.55456 0.19192 0.14737 0.0
Dy152 Dy 1.02255 0.02582 0.80281 0.0
Dy153 Dy 0.06109 1.00178 -0.00395 0.0
C154 C 0.0959 1.01676 0.73377 0.0
O155 O 1.03476 0.96881 0.75426 0.0
O156 O 1.04319 0.95279 0.93387 0.0
O157 O 1.01758 0.04221 0.63059 0.0
O158 O 0.97781 0.03868 0.77294 0.0
O159 O 1.01381 0.02117 0.09959 0.0
O160 O 0.98998 1.00475 0.95518 0.0
O161 O 0.06666 0.05934 0.98923 0.0
O162 O 1.02542 0.07463 0.91169 0.0
O163 O 0.06276 0.98284 0.16759 0.0
O164 O 0.10467 0.99085 0.04142 0.0
C165 C 1.03806 0.94467 0.82879 0.0
O166 O 0.07149 0.0359 0.72268 0.0
O167 O 0.09393 0.99467 0.81817 0.0
C168 C 0.9775 0.08627 0.65296 0.0
C169 C 0.96385 0.15686 0.61324 0.0
C170 C 0.96508 0.13022 0.52385 0.0
C171 C 0.97197 0.09527 0.54357 0.0
C172 C 0.97445 0.11244 0.74488 0.0
C173 C 0.9678 0.14747 0.72508 0.0
C174 C 0.98835 0.0502 0.66865 0.0
C175 C 0.98875 1.01336 0.06709 0.0
C176 C 0.0476 0.08323 0.96157 0.0
C177 C 0.10381 0.93994 0.14796 0.0
C178 C 0.12476 0.87002 0.17124 0.0
C179 C 0.09549 0.87807 0.15094 0.0
C180 C 0.08527 0.91244 0.13891 0.0
C181 C 0.13355 0.9322 0.16213 0.0
C182 C 0.144 0.89752 0.17326 0.0
C183 C 0.09232 0.97635 0.13854 0.0
H184 H 0.96283 0.13655 0.43573 0.0
H185 H 0.97427 0.07548 0.47183 0.0
H186 H 0.97828 0.10594 0.83072 0.0
H187 H 0.96706 0.16735 0.79543 0.0
H188 H 0.07947 0.85822 0.15117 0.0
H189 H 0.06238 0.91754 0.12594 0.0
H190 H 0.14848 0.95301 0.16664 0.0
H191 H 0.16679 0.89248 0.18705 0.0
Dy192 Dy 0.53505 0.99045 0.78596 0.0
Dy193 Dy 0.55013 0.04149 0.99506 0.0
C194 C 0.53702 0.07283 0.75807 0.0
O195 O 0.5845 1.00004 0.71908 0.0
O196 O 0.59528 1.01448 0.89887 0.0
O197 O 0.52443 0.98024 0.61436 0.0
O198 O 0.52755 0.93802 0.72954 0.0
O199 O 0.53909 0.99064 0.07881 0.0
O200 O 0.55306 0.95549 0.90844 0.0
O201 O 0.4988 0.04956 0.02729 0.0
O202 O 0.49072 1.00029 0.92105 0.0
O203 O 0.56026 0.05042 0.16736 0.0
O204 O 0.56156 0.09281 0.0501 0.0
C205 C 0.60438 1.00539 0.78468 0.0
O206 O 0.52222 0.04521 0.74237 0.0
O207 O 0.5547 0.07286 0.83379 0.0
C208 C 0.48792 0.93849 0.6283 0.0
C209 C 0.42736 0.93037 0.61136 0.0
C210 C 0.43437 0.93462 0.72314 0.0
C211 C 0.46441 0.93852 0.73152 0.0
C212 C 0.48128 0.93236 0.51707 0.0
C213 C 0.4513 0.92817 0.50857 0.0
C214 C 0.51852 0.94802 0.63626 0.0
C215 C 0.54645 0.95937 0.02483 0.0
C216 C 0.48029 0.02733 -0.00334 0.0
C217 C 0.60204 0.08563 0.14644 0.0
C218 C 0.66391 0.09352 0.1473 0.0
C219 C 0.65352 0.06015 0.13205 0.0
C220 C 0.6231 0.05628 0.1312 0.0
C221 C 0.61239 0.11912 0.1574 0.0
C222 C 0.64302 0.12307 0.15847 0.0
C223 C 0.57 0.08112 0.14254 0.0
H224 H 0.41646 0.93645 0.8037 0.0
H225 H 0.46904 0.94302 0.81861 0.0
H226 H 0.499 0.93247 0.43657 0.0
H227 H 0.44663 0.92565 0.42085 0.0
H228 H 0.66856 0.03663 0.12587 0.0
H229 H 0.61605 0.0301 0.11976 0.0
H230 H 0.59683 0.1422 0.16537 0.0
H231 H 0.65023 0.14916 0.16981 0.0
Dy232 Dy 0.573 0.52493 0.93698 0.0
Dy233 Dy 0.50104 0.5162 0.89472 0.0
C234 C 0.52715 0.47311 0.08896 0.0
O235 O 0.5726 0.47055 0.86198 0.0
O236 O 0.53614 0.48389 0.75872 0.0
O237 O 0.59842 0.55217 0.04282 0.0
O238 O 0.62249 0.51409 0.90323 0.0
O239 O 0.52016 0.55896 0.78348 0.0
O240 O 0.57235 0.5512 0.7667 0.0
O241 O 0.49638 0.55619 0.04677 0.0
O242 O 0.54441 0.57485 0.98677 0.0
O243 O 0.45627 0.53798 0.88455 0.0
O244 O 0.46865 0.48278 0.84308 0.0
C245 C 0.55621 0.46144 0.78726 0.0
O246 O 0.54823 0.49554 0.08857 0.0
O247 O 0.50727 0.47583 0.02193 0.0
C248 C 0.64388 0.52405 0.07442 0.0
C249 C 0.68235 0.51604 0.23681 0.0
C250 C 0.65032 0.51901 0.27688 0.0
C251 C 0.63139 0.5227 0.1969 0.0
C252 C 0.6757 0.51968 0.03322 0.0
C253 C 0.69472 0.5155 0.11323 0.0
C254 C 0.62447 0.53526 0.99271 0.0
C255 C 0.54815 0.5676 0.74115 0.0
C256 C 0.51561 0.58084 0.0405 0.0
C257 C 0.43465 0.50961 0.73792 0.0
C258 C 0.40569 0.51052 0.54378 0.0
C259 C 0.42031 0.53977 0.5749 0.0
C260 C 0.4346 0.53935 0.67084 0.0
C261 C 0.42036 0.48035 0.70636 0.0
C262 C 0.40601 0.48079 0.61091 0.0
C263 C 0.44854 0.50865 0.8427 0.0
H264 H 0.63966 0.52012 0.37081 0.0
H265 H 0.60694 0.52614 0.23193 0.0
H266 H 0.68593 0.52076 0.93937 0.0
H267 H 0.71916 0.5125 0.07809 0.0
H268 H 0.42101 0.56294 0.52433 0.0
H269 H 0.44557 0.5623 0.69235 0.0
H270 H 0.41986 0.45719 0.75702 0.0
H271 H 0.39465 0.45796 0.59128 0.0
Dy272 Dy 0.05926 0.55864 0.74796 0.0
Dy273 Dy 0.05618 0.48954 0.90501 0.0
C274 C 0.07388 0.48248 0.63298 0.0
O275 O 1.00905 0.55308 0.80022 0.0
O276 O 1.01112 0.49606 0.8536 0.0
O277 O 0.07255 0.57779 0.57295 0.0
O278 O 0.05215 0.61394 0.72327 0.0
O279 O 1.03492 0.53356 0.03792 0.0
O280 O 0.05539 0.57953 0.93417 0.0
O281 O 0.10063 0.5092 0.9197 0.0
O282 O 0.10758 0.54612 0.76518 0.0
O283 O 0.05568 0.45972 0.0597 0.0
O284 O 0.05309 0.4337 0.89244 0.0
C285 C 0.99591 0.52397 0.82754 0.0
O286 O 0.05518 0.51025 0.63776 0.0
O287 O 0.08552 0.47659 0.72411 0.0
C288 C 0.09111 0.63318 0.57099 0.0
C289 C 0.14728 0.65963 0.46949 0.0
C290 C 0.12532 0.65496 0.40188 0.0
C291 C 0.09776 0.64144 0.45189 0.0
C292 C 0.11138 0.64131 0.64256 0.0
C293 C 0.13927 0.65462 0.59217 0.0
C294 C 0.06627 0.6105 0.61136 0.0
C295 C 1.04145 0.56656 0.03344 0.0
C296 C 0.11773 0.5293 0.84746 0.0
C297 C 1.02259 0.41412 0.06793 0.0
C298 C 0.96603 0.39486 0.19817 0.0
C299 C 0.98983 0.40113 0.25503 0.0
C300 C 1.01762 0.41099 0.19055 0.0
C301 C 0.99988 0.40476 0.00891 0.0
C302 C 0.97176 0.39533 0.07373 0.0
C303 C 0.04974 0.43106 0.00655 0.0
H304 H 0.13061 0.6579 0.30691 0.0
H305 H 0.08285 0.63459 0.39447 0.0
H306 H 0.1068 0.63483 0.73483 0.0
H307 H 0.15559 0.65808 0.64679 0.0
H308 H 0.98607 0.40186 0.35097 0.0
H309 H 1.03442 0.41889 0.2377 0.0
H310 H 1.00301 0.40683 0.91391 0.0
H311 H 0.95385 0.39069 0.0276 0.0
C312 C 0.15793 0.05066 0.49209 0.0
C313 C 0.1851 0.03899 0.52461 0.0
H314 H 0.109 0.0531 0.53119 0.0
C315 C 0.18261 1.01687 0.61978 0.0
H316 H 0.15874 0.06706 0.41775 0.0
C317 C 0.15379 1.00844 0.68441 0.0
C318 C 0.12661 0.02198 0.65606 0.0
H319 H 0.2028 1.00745 0.64826 0.0
H320 H 0.15282 0.99245 0.75988 0.0
C321 C 0.12923 0.04253 0.55709 0.0
C322 C 0.51714 0.13261 0.52674 0.0
C323 C 0.53367 0.162 0.53994 0.0
H324 H 0.5052 0.08183 0.58364 0.0
C325 C 0.54963 0.16273 0.63123 0.0
H326 H 0.50432 0.1312 0.45819 0.0
C327 C 0.55022 0.13417 0.70333 0.0
C328 C 0.53475 0.10415 0.68653 0.0
H329 H 0.56284 0.18467 0.64339 0.0
H330 H 0.56347 0.13534 0.77052 0.0
C331 C 0.51766 0.10417 0.5988 0.0
C332 C 0.37736 0.48074 0.27128 0.0
C333 C 0.36113 0.51119 0.24757 0.0
H334 H 0.40443 0.45678 0.38024 0.0
C335 C 0.35946 0.54142 0.32319 0.0
H336 H 0.37891 0.4568 0.21622 0.0
C337 C 0.37383 0.54125 0.4189 0.0
C338 C 0.39027 0.51085 0.44184 0.0
H339 H 0.34748 0.56548 0.30727 0.0
H340 H 0.37182 0.56495 0.47552 0.0
C341 C 0.39175 0.4806 0.36663 0.0
C342 C 0.10656 0.41557 0.37874 0.0
C343 C 0.08054 0.39838 0.36825 0.0
H344 H 0.12484 0.45556 0.47259 0.0
C345 C 0.05254 0.40881 0.44775 0.0
H346 H 0.1285 0.40794 0.31961 0.0
C347 C 0.05031 0.43683 0.5317 0.0
C348 C 0.07624 0.45413 0.54068 0.0
H349 H 1.0321 0.39612 0.44227 0.0
H350 H 1.02839 0.44477 0.59059 0.0
C351 C 0.1045 0.44285 0.46555 0.0
C352 C 0.90452 1.00276 0.20836 0.0
C353 C 0.90184 1.01498 0.32718 0.0
H354 H 0.93368 0.99245 0.0341 0.0
C355 C 0.92799 0.02773 0.35764 0.0
H356 H 0.88521 0.9925 0.18086 0.0
C357 C 0.95596 0.02706 0.274 0.0
C358 C 0.95879 1.0142 0.15618 0.0
H359 H 0.92698 0.03824 0.44698 0.0
H360 H 0.97546 0.03666 0.3018 0.0
C361 C 0.93253 1.00245 0.12417 0.0
C362 C 0.55574 0.90177 0.27669 0.0
C363 C 0.55758 0.86778 0.22272 0.0
H364 H 0.55042 0.95712 0.25799 0.0
C365 C 0.55346 0.86415 0.10612 0.0
H366 H 0.55899 0.90541 0.36632 0.0
C367 C 0.54922 0.89386 0.04289 0.0
C368 C 0.54855 0.92792 0.09535 0.0
H369 H 0.5552 0.83839 0.06158 0.0
H370 H 0.54713 0.8901 0.95178 0.0
C371 C 0.55097 0.93143 0.21433 0.0
C372 C 0.71038 0.5024 0.52059 0.0
C373 C 0.73772 0.51918 0.49893 0.0
H374 H 0.67241 0.48672 0.45454 0.0
C375 C 0.7478 0.53309 0.38774 0.0
H376 H 0.70228 0.49091 0.60481 0.0
C377 C 0.73027 0.53147 0.30185 0.0
C378 C 0.70243 0.51535 0.32429 0.0
H379 H 0.76872 0.54632 0.36877 0.0
H380 H 0.73813 0.54394 0.21948 0.0
C381 C 0.69315 0.5002 0.43427 0.0
C382 C 1.0232 0.59872 0.35932 0.0
C383 C 1.02227 0.63542 0.35221 0.0
H384 H 1.02968 0.5483 0.26523 0.0
C385 C 1.02659 0.64897 0.23898 0.0
H386 H 1.0206 0.58709 0.44428 0.0
C387 C 1.03246 0.62659 0.13617 0.0
C388 C 1.03373 0.59001 0.1435 0.0
H389 H 1.02547 0.67694 0.22926 0.0
H390 H 1.036 0.63805 0.05063 0.0
C391 C 1.02861 0.57634 0.25639 0.0
C392 C 0.9576 0.23305 0.42832 0.0
C393 C 0.9851 0.24751 0.43441 0.0
H394 H 0.92876 0.19175 0.48328 0.0
C395 C 0.99792 0.24078 0.53172 0.0
H396 H 0.94712 0.23824 0.35465 0.0
C397 C 0.98773 0.2138 0.60444 0.0
C398 C 0.9644 0.19387 0.58087 0.0
H399 H 1.01899 0.25184 0.53894 0.0
H400 H 1.00103 0.20547 0.66681 0.0
C401 C 0.94742 0.20601 0.50074 0.0
C402 C 0.35171 0.97644 0.61269 0.0
C403 C 0.34627 0.96067 0.50847 0.0
H404 H 0.38254 0.97893 0.72791 0.0
C405 C 0.36153 0.92801 0.46455 0.0
H406 H 0.34029 1.00168 0.64792 0.0
C407 C 0.38611 0.91512 0.50911 0.0
C408 C 0.39531 0.93455 0.59901 0.0
H409 H 0.35762 0.91537 0.38421 0.0
H410 H 0.39998 0.89223 0.46424 0.0
C411 C 0.37624 0.9635 0.65767 0.0
C412 C 0.52658 0.37458 0.7284 0.0
C413 C 0.55238 0.35699 0.65236 0.0
H414 H 0.50749 0.42278 0.82492 0.0
C415 C 0.58095 0.37074 0.64396 0.0
H416 H 0.50429 0.36473 0.73549 0.0
C417 C 0.58276 0.40424 0.69441 0.0
C418 C 0.556 0.42412 0.75271 0.0
H419 H 0.60111 0.35789 0.58452 0.0
H420 H 0.60453 0.41574 0.67847 0.0
C421 C 0.52825 0.4083 0.77595 0.0
C422 C 0.22533 0.61992 0.34309 0.0
C423 C 0.22866 0.63032 0.22629 0.0
H424 H 0.19628 0.62206 0.51624 0.0
C425 C 0.21159 0.66048 0.20618 0.0
H426 H 0.23845 0.59703 0.3617 0.0
C427 C 0.18738 0.67533 0.29598 0.0
C428 C 0.17979 0.6596 0.40538 0.0
H429 H 0.21426 0.66955 0.11727 0.0
H430 H 0.17211 0.69567 0.2741 0.0
C431 C 0.20096 0.63447 0.43238 0.0
C432 C 0.10991 0.77954 0.25973 0.0
C433 C 0.11767 0.78222 0.37055 0.0
H434 H 0.10794 0.80548 0.10167 0.0
C435 C 0.14006 0.80496 0.3845 0.0
H436 H 0.09378 0.76124 0.24329 0.0
C437 C 0.14659 0.83185 0.30712 0.0
C438 C 0.13214 0.83467 0.21167 0.0
H439 H 0.14763 0.80641 0.46697 0.0
H440 H 0.15913 0.85283 0.33314 0.0
C441 C 0.11749 0.80556 0.17958 0.0
C442 C 0.72272 0.10973 0.32091 0.0
C443 C 0.7425 0.0796 0.28181 0.0
H444 H 0.68109 0.13752 0.30959 0.0
C445 C 0.74262 0.06295 0.17134 0.0
H446 H 0.72237 0.12309 0.40582 0.0
C447 C 0.71897 0.07133 0.11497 0.0
C448 C 0.69498 0.09621 0.16953 0.0
H449 H 0.75784 0.03985 0.13872 0.0
H450 H 0.71743 0.05529 0.03736 0.0
C451 C 0.69875 0.11774 0.26601 0.0
C452 C 0.52406 0.67514 0.11078 0.0
C453 C 0.50616 0.67952 0.22692 0.0
H454 H 0.54076 0.63976 0.9597 0.0
C455 C 0.48361 0.65575 0.2637 0.0
H456 H 0.54126 0.69306 0.07839 0.0
C457 C 0.48405 0.62418 0.19704 0.0
C458 C 0.50628 0.61699 0.09134 0.0
H459 H 0.46884 0.65905 0.352 0.0
H460 H 0.46948 0.60416 0.23447 0.0
C461 C 0.52413 0.64406 0.04361 0.0
C462 C 0.88885 0.43602 0.33797 0.0
C463 C 0.88673 0.42616 0.45472 0.0
H464 H 0.91631 0.43293 0.16127 0.0
C465 C 0.90491 0.39692 0.47467 0.0
H466 H 0.87496 0.4584 0.32029 0.0
C467 C 0.9286 0.38204 0.38312 0.0
C468 C 0.93442 0.39659 0.27153 0.0
H469 H 0.9033 0.38854 0.56399 0.0
H470 H 0.94461 0.36234 0.40382 0.0
C471 C 0.91265 0.42131 0.24656 0.0
C472 C 0.06928 0.16672 0.10218 0.0
C473 C 0.04916 0.19206 0.07039 0.0
H474 H 0.08462 0.11232 0.0932 0.0
C475 C 1.03097 0.18198 0.99294 0.0
H476 H 0.08287 0.17374 0.16465 0.0
C477 C 1.03154 0.14688 0.95348 0.0
C478 C 0.0501 0.12094 0.99164 0.0
H479 H 1.01473 0.2009 0.9696 0.0
H480 H 1.01639 0.13995 0.89723 0.0
C481 C 0.06987 0.13148 0.06274 0.0
C482 C 0.4037 0.05275 0.21488 0.0
C483 C 0.38421 0.03037 0.17365 0.0
H484 H 0.44914 0.06964 0.19212 0.0
C485 C 0.39586 1.00993 0.06745 0.0
H486 H 0.39567 0.06793 0.29864 0.0
C487 C 0.42655 1.01046 0.00735 0.0
C488 C 0.44669 0.03115 0.0523 0.0
H489 H 0.38175 0.99166 0.03528 0.0
H490 H 0.43478 0.99336 0.92812 0.0
C491 C 0.43451 0.05332 0.15461 0.0
C492 C 0.55979 0.39685 0.2297 0.0
C493 C 0.53469 0.37657 0.26322 0.0
H494 H 0.57675 0.44346 0.15369 0.0
C495 C 0.50685 0.38786 0.23686 0.0
H496 H 0.5814 0.38904 0.25068 0.0
C497 C 0.50408 0.41942 0.18098 0.0
C498 C 0.5289 0.4406 0.15348 0.0
H499 H 0.48695 0.37323 0.26449 0.0
H500 H 0.48234 0.42768 0.1621 0.0
C501 C 0.55689 0.42851 0.17674 0.0
C502 C 0.19121 0.57171 0.85476 0.0
C503 C 0.2043 0.54955 0.92666 0.0
H504 H 0.15394 0.58247 0.77153 0.0
C505 C 0.19048 0.51866 0.96078 0.0
H506 H 0.20127 0.59586 0.82807 0.0
C507 C 0.16302 0.51131 0.93056 0.0
C508 C 0.14899 0.53444 0.86411 0.0
H509 H 0.19979 0.50139 0.01759 0.0
H510 H 0.15221 0.4881 0.96314 0.0
C511 C 0.16403 0.56408 0.82281 0.0
C512 C 1.02944 0.86248 0.64718 0.0
C513 C 1.04178 0.83615 0.70709 0.0
H514 H 1.0187 0.91738 0.63795 0.0
C515 C 0.05001 0.84527 0.81376 0.0
H516 H 1.02377 0.85617 0.56288 0.0
C517 C 0.04735 0.88039 0.85667 0.0
C518 C 1.03694 0.90713 0.79239 0.0
H519 H 0.06046 0.82557 0.85947 0.0
H520 H 0.05512 0.88669 0.93651 0.0
C521 C 1.02706 0.8976 0.68922 0.0
C522 C 0.67914 0.99237 0.54965 0.0
C523 C 0.7 1.00751 0.60741 0.0
H524 H 0.63304 0.97996 0.55888 0.0
C525 C 0.68996 1.01803 0.72871 0.0
H526 H 0.68604 0.98435 0.45587 0.0
C527 C 0.65928 1.01567 0.7882 0.0
C528 C 0.63787 1.00298 0.72754 0.0
H529 H 0.70519 0.03042 0.77523 0.0
H530 H 0.65203 0.02562 0.87998 0.0
C531 C 0.64857 0.99024 0.60854 0.0
C532 C 0.52672 0.65935 0.66622 0.0
C533 C 0.55024 0.66514 0.56886 0.0
H534 H 0.50763 0.62396 0.79453 0.0
C535 C 0.57519 0.63988 0.53445 0.0
H536 H 0.50692 0.67792 0.69253 0.0
C537 C 0.57567 0.60843 0.5928 0.0
C538 C 0.55074 0.60156 0.68388 0.0
H539 H 0.59315 0.64333 0.457 0.0
H540 H 0.59448 0.58877 0.56206 0.0
C541 C 0.52688 0.62796 0.72248 0.0
C542 C 0.92083 0.48458 0.82959 0.0
C543 C 0.90733 0.50754 0.76148 0.0
H544 H 0.95903 0.47188 0.90479 0.0
C545 C 0.92108 0.53866 0.72949 0.0
H546 H 0.91086 0.46023 0.85439 0.0
C547 C 0.94905 0.54531 0.75738 0.0
C548 C 0.96381 0.52083 0.81723 0.0
H549 H 0.91146 0.55646 0.67509 0.0
H550 H 0.95999 0.5685 0.72539 0.0
C551 C 0.94865 0.49113 0.85726 0.0
loop_
_geom_bond_atom_site_label_1
_geom_bond_atom_site_label_2
_geom_bond_distance
_geom_bond_site_symmetry_2
_ccdc_geom_bond_type
H0 C1 0.949 . S
C1 H0 0.949 . S
C1 C2 1.395 . S
C1 C3 1.391 . S
C2 C1 1.395 . S
C2 C5 1.390 . S
C3 C1 1.391 . S
C3 C7 1.387 . S
C3 C8 1.491 . S
H4 C5 0.950 . S
C5 C2 1.390 . S
C5 H4 0.950 . S
C5 C6 1.378 . S
C6 C5 1.378 . S
C6 C7 1.409 . S
C7 C3 1.387 . S
C7 C6 1.409 . S
C7 H9 0.951 1_556 S
C8 C3 1.491 . S
C8 C10 1.382 . S
C8 C12 1.404 . S
H9 C7 0.951 1_554 S
C10 C8 1.382 . S
C10 C11 1.390 . S
C10 H15 0.949 . S
C11 C10 1.390 . S
C11 C16 1.399 . S
C12 C8 1.404 . S
C12 H13 0.950 . S
C12 C14 1.375 . S
H13 C12 0.950 . S
C14 C12 1.375 . S
C14 C16 1.382 . S
C14 H18 0.950 . S
H15 C10 0.949 . S
C16 C11 1.399 . S
C16 C14 1.382 . S
C16 H17 0.952 . S
H17 C16 0.952 . S
H18 C14 0.950 . S
H19 C20 0.949 . S
C20 H19 0.949 . S
C20 C21 1.395 . S
C20 C22 1.391 . S
C21 C20 1.395 . S
C21 C24 1.390 . S
C22 C20 1.391 . S
C22 C26 1.387 . S
C22 C27 1.491 . S
H23 C24 0.950 1_455 S
C24 C21 1.390 . S
C24 H23 0.950 1_655 S
C24 C25 1.378 . S
C25 C24 1.378 . S
C25 C26 1.409 . S
C26 C22 1.387 . S
C26 C25 1.409 . S
C26 H28 0.951 . S
C27 C22 1.491 . S
C27 C29 1.382 . S
C27 C31 1.404 . S
H28 C26 0.951 . S
C29 C27 1.382 . S
C29 C30 1.390 . S
C29 H34 0.949 1_655 S
C30 C29 1.390 . S
C30 C35 1.399 . S
C31 C27 1.404 . S
C31 H32 0.950 . S
C31 C33 1.375 . S
H32 C31 0.950 . S
C33 C31 1.375 . S
C33 C35 1.382 . S
C33 H37 0.950 . S
H34 C29 0.949 1_455 S
C35 C30 1.399 . S
C35 C33 1.382 . S
C35 H36 0.952 . S
H36 C35 0.952 . S
H37 C33 0.950 . S
H38 C39 0.949 . S
C39 H38 0.949 . S
C39 C40 1.395 . S
C39 C41 1.391 . S
C40 C39 1.395 . S
C40 C43 1.390 1_565 S
C41 C39 1.391 . S
C41 C45 1.387 . S
C41 C46 1.491 . S
H42 C43 0.950 . S
C43 C40 1.390 1_545 S
C43 H42 0.950 . S
C43 C44 1.376 1_545 S
C44 C43 1.376 1_565 S
C44 C45 1.411 . S
C45 C41 1.387 . S
C45 C44 1.411 . S
C45 H47 0.951 . S
C46 C41 1.491 . S
C46 C48 1.382 . S
C46 C50 1.404 . S
H47 C45 0.951 . S
C48 C46 1.382 . S
C48 C49 1.390 . S
C48 H53 0.949 1_565 S
C49 C48 1.390 . S
C49 C54 1.399 . S
C50 C46 1.404 . S
C50 H51 0.950 . S
C50 C52 1.375 . S
H51 C50 0.950 . S
C52 C50 1.375 . S
C52 C54 1.382 . S
C52 H56 0.950 . S
H53 C48 0.949 1_545 S
C54 C49 1.399 . S
C54 C52 1.382 . S
C54 H55 0.952 . S
H55 C54 0.952 . S
H56 C52 0.950 . S
H57 C58 0.949 . S
C58 H57 0.949 . S
C58 C59 1.395 . S
C58 C60 1.391 . S
C59 C58 1.395 . S
C59 C62 1.390 . S
C60 C58 1.391 . S
C60 C64 1.387 . S
C60 C65 1.491 . S
H61 C62 0.950 . S
C62 C59 1.390 . S
C62 H61 0.950 . S
C62 C63 1.378 . S
C63 C62 1.378 . S
C63 C64 1.409 . S
C64 C60 1.387 . S
C64 C63 1.409 . S
C64 H66 0.951 . S
C65 C60 1.491 . S
C65 C67 1.382 . S
C65 C69 1.404 . S
H66 C64 0.951 . S
C67 C65 1.382 . S
C67 C68 1.390 . S
C67 H72 0.949 . S
C68 C67 1.390 . S
C68 C73 1.399 . S
C69 C65 1.404 . S
C69 H70 0.950 . S
C69 C71 1.375 . S
H70 C69 0.950 . S
C71 C69 1.375 . S
C71 C73 1.382 . S
C71 H75 0.950 . S
H72 C67 0.949 . S
C73 C68 1.399 . S
C73 C71 1.382 . S
C73 H74 0.952 . S
H74 C73 0.952 . S
H75 C71 0.950 . S
H76 C77 0.949 . S
C77 H76 0.949 . S
C77 C78 1.395 . S
C77 C79 1.391 1_554 S
C78 C77 1.395 . S
C78 C81 1.390 1_554 S
C79 C77 1.391 1_556 S
C79 C83 1.387 . S
C79 C84 1.491 . S
H80 C81 0.950 . S
C81 C78 1.390 1_556 S
C81 H80 0.950 . S
C81 C82 1.378 . S
C82 C81 1.378 . S
C82 C83 1.409 . S
C83 C79 1.387 . S
C83 C82 1.409 . S
C83 H85 0.951 . S
C84 C79 1.491 . S
C84 C86 1.382 1_556 S
C84 C88 1.404 . S
H85 C83 0.951 . S
C86 C84 1.382 1_554 S
C86 C87 1.390 . S
C86 H91 0.949 . S
C87 C86 1.390 . S
C87 C92 1.399 1_554 S
C88 C84 1.404 . S
C88 H89 0.950 . S
C88 C90 1.375 . S
H89 C88 0.950 . S
C90 C88 1.375 . S
C90 C92 1.382 . S
C90 H94 0.950 . S
H91 C86 0.949 . S
C92 C87 1.399 1_556 S
C92 C90 1.382 . S
C92 H93 0.952 . S
H93 C92 0.952 . S
H94 C90 0.950 . S
H95 C96 0.956 1_655 S
C96 H95 0.956 1_455 S
C96 C97 1.395 . S
C96 C98 1.390 1_455 S
C97 C96 1.395 . S
C97 C100 1.390 . S
C98 C96 1.390 1_655 S
C98 C102 1.385 . S
C98 C103 1.491 . S
H99 C100 0.950 . S
C100 C97 1.390 . S
C100 H99 0.950 . S
C100 C101 1.378 . S
C101 C100 1.378 . S
C101 C102 1.408 1_455 S
C102 C98 1.385 . S
C102 C101 1.408 1_655 S
C102 H104 0.956 1_554 S
C103 C98 1.491 . S
C103 C105 1.382 1_655 S
C103 C107 1.404 . S
H104 C102 0.956 1_556 S
C105 C103 1.382 1_455 S
C105 C106 1.390 1_455 S
C105 H110 0.949 . S
C106 C105 1.390 1_655 S
C106 C111 1.399 . S
C107 C103 1.404 . S
C107 H108 0.950 . S
C107 C109 1.375 . S
H108 C107 0.950 . S
C109 C107 1.375 . S
C109 C111 1.382 . S
C109 H113 0.950 . S
H110 C105 0.949 . S
C111 C106 1.399 . S
C111 C109 1.382 . S
C111 H112 0.952 . S
H112 C111 0.952 . S
H113 C109 0.950 . S
H114 C115 0.949 . S
C115 H114 0.949 . S
C115 C116 1.394 . S
C115 C117 1.391 . S
C116 C115 1.394 . S
C116 C119 1.391 1_565 S
C117 C115 1.391 . S
C117 C121 1.387 . S
C117 C122 1.491 . S
H118 C119 0.950 . S
C119 C116 1.391 1_545 S
C119 H118 0.950 . S
C119 C120 1.377 1_545 S
C120 C119 1.377 1_565 S
C120 C121 1.412 . S
C121 C117 1.387 . S
C121 C120 1.412 . S
C121 H123 0.951 . S
C122 C117 1.491 . S
C122 C124 1.382 . S
C122 C126 1.404 . S
H123 C121 0.951 . S
C124 C122 1.382 . S
C124 C125 1.390 . S
C124 H129 0.949 1_565 S
C125 C124 1.390 . S
C125 C130 1.399 . S
C126 C122 1.404 . S
C126 H127 0.950 . S
C126 C128 1.375 . S
H127 C126 0.950 . S
C128 C126 1.375 . S
C128 C130 1.382 . S
C128 H132 0.950 . S
H129 C124 0.949 1_545 S
C130 C125 1.399 . S
C130 C128 1.382 . S
C130 H131 0.952 . S
H131 C130 0.952 . S
H132 C128 0.950 . S
H133 C134 0.949 . S
C134 H133 0.949 . S
C134 C135 1.395 . S
C134 C136 1.391 . S
C135 C134 1.395 . S
C135 C138 1.390 . S
C136 C134 1.391 . S
C136 C140 1.387 . S
C136 C141 1.491 . S
H137 C138 0.950 . S
C138 C135 1.390 . S
C138 H137 0.950 . S
C138 C139 1.378 . S
C139 C138 1.378 . S
C139 C140 1.409 . S
C140 C136 1.387 . S
C140 C139 1.409 . S
C140 H142 0.951 . S
C141 C136 1.491 . S
C141 C143 1.382 . S
C141 C145 1.404 . S
H142 C140 0.951 . S
C143 C141 1.382 . S
C143 C144 1.390 . S
C143 H148 0.949 . S
C144 C143 1.390 . S
C144 C149 1.399 . S
C145 C141 1.404 . S
C145 H146 0.950 . S
C145 C147 1.375 . S
H146 C145 0.950 . S
C147 C145 1.375 . S
C147 C149 1.382 . S
C147 H151 0.950 . S
H148 C143 0.949 . S
C149 C144 1.399 . S
C149 C147 1.382 . S
C149 H150 0.952 . S
H150 C149 0.952 . S
H151 C147 0.950 . S
Dy152 O155 2.307 1_545 S
Dy152 O157 2.395 1_655 S
Dy152 O158 2.379 . S
Dy152 O160 2.339 . S
Dy152 O162 2.298 . S
Dy152 O166 2.275 1_655 S
Dy152 C174 2.738 . S
Dy153 O156 2.298 1_554 S
Dy153 O159 2.275 1_454 S
Dy153 O161 2.307 1_565 S
Dy153 O163 2.395 1_455 S
Dy153 O164 2.379 . S
Dy153 O167 2.339 1_554 S
Dy153 C183 2.738 . S
C154 O166 1.254 1_565 S
C154 O167 1.257 . S
O155 Dy152 2.307 1_565 S
O155 C165 1.266 . S
O156 Dy153 2.298 1_556 S
O156 C165 1.236 1_455 S
O157 Dy152 2.395 1_455 S
O157 C174 1.255 1_455 S
O158 Dy152 2.379 . S
O158 C174 1.249 . S
O159 Dy153 2.275 1_656 S
O159 C175 1.254 1_565 S
O160 Dy152 2.339 . S
O160 C175 1.257 . S
O161 Dy153 2.307 1_545 S
O161 C176 1.266 1_554 S
O162 Dy152 2.298 . S
O162 C176 1.236 1_655 S
O163 Dy153 2.395 1_655 S
O163 C183 1.255 1_655 S
O164 Dy153 2.379 . S
O164 C183 1.249 . S
C165 O155 1.266 . S
C165 O156 1.236 1_655 S
O166 Dy152 2.275 1_455 S
O166 C154 1.254 1_545 S
O167 Dy153 2.339 1_556 S
O167 C154 1.257 . S
C168 C171 1.344 1_655 S
C168 C172 1.328 . S
C168 C174 1.516 . S
C169 C170 1.304 1_655 S
C169 C173 1.323 . S
C170 C169 1.304 1_455 S
C170 C171 1.371 . S
C170 H184 0.930 . S
C171 C168 1.344 1_455 S
C171 C170 1.371 . S
C171 H185 0.931 . S
C172 C168 1.328 . S
C172 C173 1.433 . S
C172 H186 0.931 . S
C173 C169 1.323 . S
C173 C172 1.433 . S
C173 H187 0.933 . S
C174 Dy152 2.738 . S
C174 O157 1.255 1_655 S
C174 O158 1.249 . S
C174 C168 1.516 . S
C175 O159 1.254 1_545 S
C175 O160 1.257 . S
C176 O161 1.266 1_556 S
C176 O162 1.236 1_455 S
C177 C180 1.344 1_455 S
C177 C181 1.328 . S
C177 C183 1.516 . S
C178 C179 1.304 1_455 S
C178 C182 1.323 . S
C179 C178 1.304 1_655 S
C179 C180 1.371 . S
C179 H188 0.930 . S
C180 C177 1.344 1_655 S
C180 C179 1.371 . S
C180 H189 0.931 . S
C181 C177 1.328 . S
C181 C182 1.433 . S
C181 H190 0.931 . S
C182 C178 1.323 . S
C182 C181 1.433 . S
C182 H191 0.933 . S
C183 Dy153 2.738 . S
C183 O163 1.255 1_455 S
C183 O164 1.249 . S
C183 C177 1.516 . S
H184 C170 0.930 . S
H185 C171 0.931 . S
H186 C172 0.931 . S
H187 C173 0.933 . S
H188 C179 0.930 . S
H189 C180 0.931 . S
H190 C181 0.931 . S
H191 C182 0.933 . S
Dy192 O195 2.307 . S
Dy192 O197 2.395 1_565 S
Dy192 O198 2.379 . S
Dy192 O200 2.339 . S
Dy192 O202 2.298 . S
Dy192 O206 2.275 1_565 S
Dy192 C214 2.738 . S
Dy193 O196 2.298 1_554 S
Dy193 O199 2.275 1_544 S
Dy193 O201 2.307 . S
Dy193 O203 2.395 1_545 S
Dy193 O204 2.379 . S
Dy193 O207 2.339 1_554 S
Dy193 C223 2.738 . S
C194 O206 1.254 . S
C194 O207 1.257 . S
O195 Dy192 2.307 . S
O195 C205 1.266 . S
O196 Dy193 2.298 1_556 S
O196 C205 1.236 1_545 S
O197 Dy192 2.395 1_545 S
O197 C214 1.255 1_545 S
O198 Dy192 2.379 . S
O198 C214 1.249 . S
O199 Dy193 2.275 1_566 S
O199 C215 1.254 . S
O200 Dy192 2.339 . S
O200 C215 1.257 . S
O201 Dy193 2.307 . S
O201 C216 1.266 . S
O202 Dy192 2.298 . S
O202 C216 1.236 1_566 S
O203 Dy193 2.395 1_565 S
O203 C223 1.255 1_565 S
O204 Dy193 2.379 . S
O204 C223 1.249 . S
C205 O195 1.266 . S
C205 O196 1.236 1_565 S
O206 Dy192 2.275 1_545 S
O206 C194 1.254 . S
O207 Dy193 2.339 1_556 S
O207 C194 1.257 . S
C208 C211 1.344 1_565 S
C208 C212 1.328 . S
C208 C214 1.516 . S
C209 C210 1.304 1_565 S
C209 C213 1.323 . S
C210 C209 1.304 1_545 S
C210 C211 1.371 . S
C210 H224 0.930 . S
C211 C208 1.344 1_545 S
C211 C210 1.371 . S
C211 H225 0.931 . S
C212 C208 1.328 . S
C212 C213 1.433 . S
C212 H226 0.931 . S
C213 C209 1.323 . S
C213 C212 1.433 . S
C213 H227 0.933 . S
C214 Dy192 2.738 . S
C214 O197 1.255 1_565 S
C214 O198 1.249 . S
C214 C208 1.516 . S
C215 O199 1.254 . S
C215 O200 1.257 . S
C216 O201 1.266 . S
C216 O202 1.236 1_544 S
C217 C220 1.344 1_545 S
C217 C221 1.328 . S
C217 C223 1.516 . S
C218 C219 1.304 1_545 S
C218 C222 1.323 . S
C219 C218 1.304 1_565 S
C219 C220 1.371 . S
C219 H228 0.930 . S
C220 C217 1.344 1_565 S
C220 C219 1.371 . S
C220 H229 0.931 . S
C221 C217 1.328 . S
C221 C222 1.433 . S
C221 H230 0.931 . S
C222 C218 1.323 . S
C222 C221 1.433 . S
C222 H231 0.933 . S
C223 Dy193 2.738 . S
C223 O203 1.255 1_545 S
C223 O204 1.249 . S
C223 C217 1.516 . S
H224 C210 0.930 . S
H225 C211 0.931 . S
H226 C212 0.931 . S
H227 C213 0.933 . S
H228 C219 0.930 . S
H229 C220 0.931 . S
H230 C221 0.931 . S
H231 C222 0.933 . S
Dy232 O235 2.307 . S
Dy232 O237 2.395 1_556 S
Dy232 O238 2.379 . S
Dy232 O240 2.339 . S
Dy232 O242 2.298 . S
Dy232 O246 2.275 . S
Dy232 C254 2.738 1_556 S
Dy233 O236 2.298 . S
Dy233 O239 2.275 . S
Dy233 O241 2.307 1_556 S
Dy233 O243 2.395 . S
Dy233 O244 2.379 . S
Dy233 O247 2.339 1_556 S
Dy233 C263 2.738 . S
C234 O246 1.254 1_554 S
C234 O247 1.257 . S
O235 Dy232 2.307 . S
O235 C245 1.266 . S
O236 Dy233 2.298 . S
O236 C245 1.236 . S
O237 Dy232 2.395 1_554 S
O237 C254 1.255 . S
O238 Dy232 2.379 . S
O238 C254 1.249 1_556 S
O239 Dy233 2.275 . S
O239 C255 1.254 . S
O240 Dy232 2.339 . S
O240 C255 1.257 . S
O241 Dy233 2.307 1_554 S
O241 C256 1.266 . S
O242 Dy232 2.298 . S
O242 C256 1.236 1_556 S
O243 Dy233 2.395 . S
O243 C263 1.255 . S
O244 Dy233 2.379 . S
O244 C263 1.249 . S
C245 O235 1.266 . S
C245 O236 1.236 . S
O246 Dy232 2.275 . S
O246 C234 1.254 1_556 S
O247 Dy233 2.339 1_554 S
O247 C234 1.257 . S
C248 C251 1.344 . S
C248 C252 1.328 . S
C248 C254 1.516 . S
C249 C250 1.304 . S
C249 C253 1.323 . S
C250 C249 1.304 . S
C250 C251 1.371 . S
C250 H264 0.930 . S
C251 C248 1.344 . S
C251 C250 1.371 . S
C251 H265 0.931 . S
C252 C248 1.328 . S
C252 C253 1.433 . S
C252 H266 0.931 1_554 S
C253 C249 1.323 . S
C253 C252 1.433 . S
C253 H267 0.933 . S
C254 Dy232 2.738 1_554 S
C254 O237 1.255 . S
C254 O238 1.249 1_554 S
C254 C248 1.516 . S
C255 O239 1.254 . S
C255 O240 1.257 . S
C256 O241 1.266 . S
C256 O242 1.236 1_554 S
C257 C260 1.344 . S
C257 C261 1.328 . S
C257 C263 1.516 . S
C258 C259 1.304 . S
C258 C262 1.323 . S
C259 C258 1.304 . S
C259 C260 1.371 . S
C259 H268 0.930 . S
C260 C257 1.344 . S
C260 C259 1.371 . S
C260 H269 0.931 . S
C261 C257 1.328 . S
C261 C262 1.433 . S
C261 H270 0.931 . S
C262 C258 1.323 . S
C262 C261 1.433 . S
C262 H271 0.933 . S
C263 Dy233 2.738 . S
C263 O243 1.255 . S
C263 O244 1.249 . S
C263 C257 1.516 . S
H264 C250 0.930 . S
H265 C251 0.931 . S
H266 C252 0.931 1_556 S
H267 C253 0.933 . S
H268 C259 0.930 . S
H269 C260 0.931 . S
H270 C261 0.931 . S
H271 C262 0.933 . S
Dy272 O275 2.307 1_455 S
Dy272 O277 2.395 . S
Dy272 O278 2.379 . S
Dy272 O280 2.339 . S
Dy272 O282 2.298 . S
Dy272 O286 2.275 . S
Dy272 C294 2.738 . S
Dy273 O276 2.298 1_554 S
Dy273 O279 2.275 . S
Dy273 O281 2.307 1_654 S
Dy273 O283 2.395 . S
Dy273 O284 2.379 . S
Dy273 O287 2.339 1_554 S
Dy273 C303 2.738 . S
C274 O286 1.253 . S
C274 O287 1.258 1_455 S
O275 Dy272 2.307 1_655 S
O275 C285 1.266 . S
O276 Dy273 2.298 1_556 S
O276 C285 1.236 . S
O277 Dy272 2.395 . S
O277 C294 1.255 . S
O278 Dy272 2.379 . S
O278 C294 1.249 . S
O279 Dy273 2.275 . S
O279 C295 1.254 1_654 S
O280 Dy272 2.339 . S
O280 C295 1.257 . S
O281 Dy273 2.307 1_456 S
O281 C296 1.266 . S
O282 Dy272 2.298 . S
O282 C296 1.236 . S
O283 Dy273 2.395 . S
O283 C303 1.255 . S
O284 Dy273 2.379 . S
O284 C303 1.249 . S
C285 O275 1.266 . S
C285 O276 1.236 . S
O286 Dy272 2.275 . S
O286 C274 1.253 . S
O287 Dy273 2.339 1_556 S
O287 C274 1.258 1_655 S
C288 C291 1.344 . S
C288 C292 1.328 . S
C288 C294 1.516 . S
C289 C290 1.304 . S
C289 C293 1.323 . S
C290 C289 1.304 . S
C290 C291 1.371 . S
C290 H304 0.930 . S
C291 C288 1.344 . S
C291 C290 1.371 . S
C291 H305 0.931 . S
C292 C288 1.328 . S
C292 C293 1.433 . S
C292 H306 0.931 . S
C293 C289 1.323 . S
C293 C292 1.433 . S
C293 H307 0.933 . S
C294 Dy272 2.738 . S
C294 O277 1.255 . S
C294 O278 1.249 . S
C294 C288 1.516 . S
C295 O279 1.254 1_456 S
C295 O280 1.257 . S
C296 O281 1.266 . S
C296 O282 1.236 . S
C297 C300 1.344 . S
C297 C301 1.328 . S
C297 C303 1.516 . S
C298 C299 1.304 . S
C298 C302 1.323 . S
C299 C298 1.304 . S
C299 C300 1.371 . S
C299 H308 0.930 . S
C300 C297 1.344 . S
C300 C299 1.371 . S
C300 H309 0.931 . S
C301 C297 1.328 . S
C301 C302 1.433 . S
C301 H310 0.931 . S
C302 C298 1.323 . S
C302 C301 1.433 . S
C302 H311 0.933 . S
C303 Dy273 2.738 . S
C303 O283 1.255 . S
C303 O284 1.249 . S
C303 C297 1.516 . S
H304 C290 0.930 . S
H305 C291 0.931 . S
H306 C292 0.931 . S
H307 C293 0.933 . S
H308 C299 0.930 . S
H309 C300 0.931 . S
H310 C301 0.931 . S
H311 C302 0.933 . S
C312 C313 1.373 1_565 S
C312 H316 0.950 . S
C312 C321 1.390 . S
C313 C312 1.373 1_545 S
C313 C315 1.400 . S
H314 C321 0.950 . S
C315 C313 1.400 . S
C315 C317 1.390 . S
C315 H319 0.950 . S
H316 C312 0.950 . S
C317 C315 1.390 . S
C317 C318 1.387 . S
C317 H320 0.950 . S
C318 C317 1.387 . S
C318 C321 1.387 1_545 S
H319 C315 0.950 . S
H320 C317 0.950 . S
C321 C312 1.390 . S
C321 H314 0.950 . S
C321 C318 1.387 1_565 S
C322 C323 1.387 . S
C322 H326 0.950 . S
C322 C331 1.390 . S
C323 C322 1.387 . S
C323 C325 1.387 . S
H324 C331 0.950 . S
C325 C323 1.387 . S
C325 C327 1.390 . S
C325 H329 0.950 . S
H326 C322 0.950 . S
C327 C325 1.390 . S
C327 C328 1.387 . S
C327 H330 0.950 . S
C328 C327 1.387 . S
C328 C331 1.387 . S
H329 C325 0.950 . S
H330 C327 0.950 . S
C331 C322 1.390 . S
C331 H324 0.950 . S
C331 C328 1.387 . S
C332 C333 1.387 . S
C332 H336 0.950 . S
C332 C341 1.390 . S
C333 C332 1.387 . S
C333 C335 1.387 . S
H334 C341 0.950 . S
C335 C333 1.387 . S
C335 C337 1.390 . S
C335 H339 0.950 . S
H336 C332 0.950 . S
C337 C335 1.390 . S
C337 C338 1.387 . S
C337 H340 0.950 . S
C338 C337 1.387 . S
C338 C341 1.387 . S
H339 C335 0.950 . S
H340 C337 0.950 . S
C341 C332 1.390 . S
C341 H334 0.950 . S
C341 C338 1.387 . S
C342 C343 1.387 . S
C342 H346 0.950 . S
C342 C351 1.390 . S
C343 C342 1.387 . S
C343 C345 1.387 . S
H344 C351 0.948 . S
C345 C343 1.387 . S
C345 C347 1.390 . S
C345 H349 0.950 . S
H346 C342 0.950 . S
C347 C345 1.390 . S
C347 C348 1.387 . S
C347 H350 0.950 . S
C348 C347 1.387 . S
C348 C351 1.387 . S
H349 C345 0.950 . S
H350 C347 0.950 . S
C351 C342 1.390 . S
C351 H344 0.948 . S
C351 C348 1.387 . S
C352 C353 1.394 . S
C352 H356 0.950 . S
C352 C361 1.390 . S
C353 C352 1.394 . S
C353 C355 1.381 1_565 S
H354 C361 0.950 . S
C355 C353 1.381 1_545 S
C355 C357 1.390 . S
C355 H359 0.950 . S
H356 C352 0.950 . S
C357 C355 1.390 . S
C357 C358 1.387 1_545 S
C357 H360 0.950 . S
C358 C357 1.387 1_565 S
C358 C361 1.387 . S
H359 C355 0.950 . S
H360 C357 0.950 . S
C361 C352 1.390 . S
C361 H354 0.950 . S
C361 C358 1.387 . S
C362 C363 1.387 . S
C362 H366 0.950 . S
C362 C371 1.390 . S
C363 C362 1.387 . S
C363 C365 1.387 1_554 S
H364 C371 0.950 . S
C365 C363 1.387 1_556 S
C365 C367 1.390 . S
C365 H369 0.950 . S
H366 C362 0.950 . S
C367 C365 1.390 . S
C367 C368 1.387 1_556 S
C367 H370 0.950 . S
C368 C367 1.387 1_554 S
C368 C371 1.387 . S
H369 C365 0.950 . S
H370 C367 0.950 . S
C371 C362 1.390 . S
C371 H364 0.950 . S
C371 C368 1.387 . S
C372 C373 1.387 . S
C372 H376 0.950 . S
C372 C381 1.390 . S
C373 C372 1.387 . S
C373 C375 1.387 . S
H374 C381 0.950 . S
C375 C373 1.387 . S
C375 C377 1.390 . S
C375 H379 0.950 . S
H376 C372 0.950 . S
C377 C375 1.390 . S
C377 C378 1.387 . S
C377 H380 0.950 . S
C378 C377 1.387 . S
C378 C381 1.387 . S
H379 C375 0.950 . S
H380 C377 0.950 . S
C381 C372 1.390 . S
C381 H374 0.950 . S
C381 C378 1.387 . S
C382 C383 1.387 . S
C382 H386 0.950 . S
C382 C391 1.390 . S
C383 C382 1.387 . S
C383 C385 1.385 . S
H384 C391 0.950 . S
C385 C383 1.385 . S
C385 C387 1.401 . S
C385 H389 0.944 . S
H386 C382 0.950 . S
C387 C385 1.401 . S
C387 C388 1.387 . S
C387 H390 0.948 . S
C388 C387 1.387 . S
C388 C391 1.387 . S
H389 C385 0.944 . S
H390 C387 0.948 . S
C391 C382 1.390 . S
C391 H384 0.950 . S
C391 C388 1.387 . S
C392 C393 1.387 1_655 S
C392 H396 0.953 1_655 S
C392 C401 1.390 . S
C393 C392 1.387 1_455 S
C393 C395 1.387 . S
H394 C401 0.950 . S
C395 C393 1.387 . S
C395 C397 1.390 1_455 S
C395 H399 0.950 . S
H396 C392 0.953 1_455 S
C397 C395 1.390 1_655 S
C397 C398 1.387 . S
C397 H400 0.950 . S
C398 C397 1.387 . S
C398 C401 1.387 . S
H399 C395 0.950 . S
H400 C397 0.950 . S
C401 C392 1.390 . S
C401 H394 0.950 . S
C401 C398 1.387 . S
C402 C403 1.387 1_545 S
C402 H406 0.950 . S
C402 C411 1.390 . S
C403 C402 1.387 1_565 S
C403 C405 1.387 . S
H404 C411 0.950 . S
C405 C403 1.387 . S
C405 C407 1.390 . S
C405 H409 0.950 . S
H406 C402 0.950 . S
C407 C405 1.390 . S
C407 C408 1.387 . S
C407 H410 0.950 . S
C408 C407 1.387 . S
C408 C411 1.387 1_565 S
H409 C405 0.950 . S
H410 C407 0.950 . S
C411 C402 1.390 . S
C411 H404 0.950 . S
C411 C408 1.387 1_545 S
C412 C413 1.387 . S
C412 H416 0.950 . S
C412 C421 1.390 . S
C413 C412 1.387 . S
C413 C415 1.387 . S
H414 C421 0.950 . S
C415 C413 1.387 . S
C415 C417 1.390 . S
C415 H419 0.950 . S
H416 C412 0.950 . S
C417 C415 1.390 . S
C417 C418 1.387 . S
C417 H420 0.950 . S
C418 C417 1.387 . S
C418 C421 1.387 . S
H419 C415 0.950 . S
H420 C417 0.950 . S
C421 C412 1.390 . S
C421 H414 0.950 . S
C421 C418 1.387 . S
C422 C423 1.387 . S
C422 H426 0.950 . S
C422 C431 1.390 . S
C423 C422 1.387 . S
C423 C425 1.387 . S
H424 C431 0.950 . S
C425 C423 1.387 . S
C425 C427 1.390 . S
C425 H429 0.953 . S
H426 C422 0.950 . S
C427 C425 1.390 . S
C427 C428 1.387 . S
C427 H430 0.950 . S
C428 C427 1.387 . S
C428 C431 1.387 . S
H429 C425 0.953 . S
H430 C427 0.950 . S
C431 C422 1.390 . S
C431 H424 0.950 . S
C431 C428 1.387 . S
C432 C433 1.387 . S
C432 H436 0.950 . S
C432 C441 1.378 1_655 S
C433 C432 1.387 . S
C433 C435 1.387 1_655 S
H434 C441 0.948 1_655 S
C435 C433 1.387 1_455 S
C435 C437 1.390 . S
C435 H439 0.950 . S
H436 C432 0.950 . S
C437 C435 1.390 . S
C437 C438 1.387 . S
C437 H440 0.950 . S
C438 C437 1.387 . S
C438 C441 1.403 . S
H439 C435 0.950 . S
H440 C437 0.950 . S
C441 C432 1.378 1_455 S
C441 H434 0.948 1_455 S
C441 C438 1.403 . S
C442 C443 1.387 . S
C442 H446 0.950 . S
C442 C451 1.390 . S
C443 C442 1.387 . S
C443 C445 1.387 1_545 S
H444 C451 0.950 . S
C445 C443 1.387 1_565 S
C445 C447 1.390 . S
C445 H449 0.950 . S
H446 C442 0.950 . S
C447 C445 1.390 . S
C447 C448 1.387 1_565 S
C447 H450 0.950 . S
C448 C447 1.387 1_545 S
C448 C451 1.387 . S
H449 C445 0.950 . S
H450 C447 0.950 . S
C451 C442 1.390 . S
C451 H444 0.950 . S
C451 C448 1.387 . S
C452 C453 1.387 . S
C452 H456 0.950 1_554 S
C452 C461 1.390 . S
C453 C452 1.387 . S
C453 C455 1.387 . S
H454 C461 0.950 1_556 S
C455 C453 1.387 . S
C455 C457 1.390 . S
C455 H459 0.950 . S
H456 C452 0.950 1_556 S
C457 C455 1.390 . S
C457 C458 1.387 . S
C457 H460 0.950 . S
C458 C457 1.387 . S
C458 C461 1.387 . S
H459 C455 0.950 . S
H460 C457 0.950 . S
C461 C452 1.390 . S
C461 H454 0.950 1_554 S
C461 C458 1.387 . S
C462 C463 1.387 . S
C462 H466 0.950 . S
C462 C471 1.390 . S
C463 C462 1.387 . S
C463 C465 1.387 . S
H464 C471 0.950 . S
C465 C463 1.387 . S
C465 C467 1.390 . S
C465 H469 0.950 . S
H466 C462 0.950 . S
C467 C465 1.390 . S
C467 C468 1.387 . S
C467 H470 0.950 . S
C468 C467 1.387 . S
C468 C471 1.387 . S
H469 C465 0.950 . S
H470 C467 0.950 . S
C471 C462 1.390 . S
C471 H464 0.950 . S
C471 C468 1.387 . S
C472 C473 1.387 . S
C472 H476 0.950 . S
C472 C481 1.390 . S
C473 C472 1.387 . S
C473 C475 1.387 1_455 S
H474 C481 0.950 . S
C475 C473 1.387 1_655 S
C475 C477 1.390 . S
C475 H479 0.950 . S
H476 C472 0.950 . S
C477 C475 1.390 . S
C477 C478 1.387 1_655 S
C477 H480 0.950 . S
C478 C477 1.387 1_455 S
C478 C481 1.387 . S
H479 C475 0.950 . S
H480 C477 0.950 . S
C481 C472 1.390 . S
C481 H474 0.950 . S
C481 C478 1.387 . S
C482 C483 1.387 . S
C482 H486 0.950 . S
C482 C491 1.390 . S
C483 C482 1.387 . S
C483 C485 1.387 1_544 S
H484 C491 0.950 . S
C485 C483 1.387 1_566 S
C485 C487 1.390 . S
C485 H489 0.950 . S
H486 C482 0.950 . S
C487 C485 1.390 . S
C487 C488 1.387 1_566 S
C487 H490 0.950 . S
C488 C487 1.387 1_544 S
C488 C491 1.387 . S
H489 C485 0.950 . S
H490 C487 0.950 . S
C491 C482 1.390 . S
C491 H484 0.950 . S
C491 C488 1.387 . S
C492 C493 1.387 . S
C492 H496 0.950 . S
C492 C501 1.390 . S
C493 C492 1.387 . S
C493 C495 1.387 . S
H494 C501 0.950 . S
C495 C493 1.387 . S
C495 C497 1.390 . S
C495 H499 0.950 . S
H496 C492 0.950 . S
C497 C495 1.390 . S
C497 C498 1.387 . S
C497 H500 0.950 . S
C498 C497 1.387 . S
C498 C501 1.387 . S
H499 C495 0.950 . S
H500 C497 0.950 . S
C501 C492 1.390 . S
C501 H494 0.950 . S
C501 C498 1.387 . S
C502 C503 1.387 . S
C502 H506 0.950 . S
C502 C511 1.390 . S
C503 C502 1.387 . S
C503 C505 1.387 . S
H504 C511 0.950 . S
C505 C503 1.387 . S
C505 C507 1.390 . S
C505 H509 0.950 . S
H506 C502 0.950 . S
C507 C505 1.390 . S
C507 C508 1.387 . S
C507 H510 0.950 . S
C508 C507 1.387 . S
C508 C511 1.387 . S
H509 C505 0.950 . S
H510 C507 0.950 . S
C511 C502 1.390 . S
C511 H504 0.950 . S
C511 C508 1.387 . S
C512 C513 1.387 . S
C512 H516 0.950 . S
C512 C521 1.390 . S
C513 C512 1.387 . S
C513 C515 1.387 1_655 S
H514 C521 0.950 . S
C515 C513 1.387 1_455 S
C515 C517 1.390 . S
C515 H519 0.950 . S
H516 C512 0.950 . S
C517 C515 1.390 . S
C517 C518 1.387 1_455 S
C517 H520 0.950 . S
C518 C517 1.387 1_655 S
C518 C521 1.387 . S
H519 C515 0.950 . S
H520 C517 0.950 . S
C521 C512 1.390 . S
C521 H514 0.950 . S
C521 C518 1.387 . S
C522 C523 1.387 . S
C522 H526 0.950 . S
C522 C531 1.390 . S
C523 C522 1.387 . S
C523 C525 1.387 1_565 S
H524 C531 0.950 . S
C525 C523 1.387 1_545 S
C525 C527 1.390 . S
C525 H529 0.950 . S
H526 C522 0.950 . S
C527 C525 1.390 . S
C527 C528 1.387 1_545 S
C527 H530 0.950 . S
C528 C527 1.387 1_565 S
C528 C531 1.387 . S
H529 C525 0.950 . S
H530 C527 0.950 . S
C531 C522 1.390 . S
C531 H524 0.950 . S
C531 C528 1.387 . S
C532 C533 1.387 . S
C532 H536 0.950 . S
C532 C541 1.390 . S
C533 C532 1.387 . S
C533 C535 1.387 . S
H534 C541 0.950 . S
C535 C533 1.387 . S
C535 C537 1.390 . S
C535 H539 0.950 . S
H536 C532 0.950 . S
C537 C535 1.390 . S
C537 C538 1.387 . S
C537 H540 0.950 . S
C538 C537 1.387 . S
C538 C541 1.387 . S
H539 C535 0.950 . S
H540 C537 0.950 . S
C541 C532 1.390 . S
C541 H534 0.950 . S
C541 C538 1.387 . S
C542 C543 1.387 . S
C542 H546 0.950 . S
C542 C551 1.390 . S
C543 C542 1.387 . S
C543 C545 1.387 . S
H544 C551 0.950 . S
C545 C543 1.387 . S
C545 C547 1.390 . S
C545 H549 0.950 . S
H546 C542 0.950 . S
C547 C545 1.390 . S
C547 C548 1.387 . S
C547 H550 0.950 . S
C548 C547 1.387 . S
C548 C551 1.387 . S
H549 C545 0.950 . S
H550 C547 0.950 . S
C551 C542 1.390 . S
C551 H544 0.950 . S
C551 C548 1.387 . S
C313 C125 2.145 1_545 S
C318 C154 2.188 1_545 S
C328 C194 2.066 . S
C323 C144 1.951 . S
C338 C258 2.031 . S
C333 C87 2.098 . S
C348 C274 1.948 . S
C343 C106 1.921 1_455 S
C358 C175 2.188 1_564 S
C353 C49 2.145 . S
C363 C68 2.033 . S
C368 C215 2.069 1_554 S
C373 C11 2.167 . S
C378 C249 2.030 . S
C383 C30 1.920 . S
C388 C295 1.950 1_654 S
C398 C169 0.651 . S
C393 C97 0.655 . S
C408 C209 0.978 . S
C403 C116 0.950 . S
C418 C245 1.154 . S
C413 C135 1.137 . S
C423 C78 0.912 . S
C428 C289 0.876 . S
C433 C21 0.661 . S
C438 C178 0.661 . S
C448 C218 0.978 . S
C443 C40 0.952 1_545 S
C458 C256 1.151 . S
C453 C59 1.137 . S
C463 C2 0.912 . S
C468 C298 0.870 . S
C473 C101 1.897 1_556 S
C478 C176 2.178 . S
C483 C120 2.044 1_545 S
C488 C216 2.249 . S
C498 C234 1.733 . S
C493 C139 1.725 . S
C508 C296 2.659 . S
C503 C82 2.331 . S
C513 C25 1.892 . S
C518 C165 2.184 . S
C528 C205 2.250 . S
C523 C44 2.043 . S
C538 C255 1.735 . S
C533 C63 1.730 . S
C543 C6 2.336 . S
C548 C285 2.659 . S
