# Generated by pormake.
# Topology nom, (4,4)-cn, num edge types: 1
# Building blocks:
#     Node 0, Type 0, BuildingBlock: AZAVOO_clean_linker_0, # of connection points: 4
#     Node 1, Type 0, BuildingBlock: AZAVOO_clean_linker_0, # of connection points: 4
#     Node 2, Type 0, BuildingBlock: AZAVOO_clean_linker_0, # of connection points: 4
#     Node 3, Type 0, BuildingBlock: AZAVOO_clean_linker_0, # of connection points: 4
#     Node 4, Type 0, BuildingBlock: AZAVOO_clean_linker_0, # of connection points: 4
#     Node 5, Type 0, BuildingBlock: AZAVOO_clean_linker_0, # of connection points: 4
#     Node 6, Type 1, BuildingBlock: CEKHIL_clean_sbu_0, # of connection points: 4
#     Node 7, Type 1, BuildingBlock: CEKHIL_clean_sbu_0, # of connection points: 4
#     Node 8, Type 1, BuildingBlock: CEKHIL_clean_sbu_0, # of connection points: 4
#     Node 9, Type 1, BuildingBlock: CEKHIL_clean_sbu_0, # of connection points: 4
#     Node 10, Type 1, BuildingBlock: CEKHIL_clean_sbu_0, # of connection points: 4
#     Node 11, Type 1, BuildingBlock: CEKHIL_clean_sbu_0, # of connection points: 4
#     Edge 12, Type (0, 1), BuildingBlock: TEMPAE_clean_linker_10, # of connection points: 2
#     Edge 13, Type (0, 1), BuildingBlock: TEMPAE_clean_linker_10, # of connection points: 2
#     Edge 14, Type (0, 1), BuildingBlock: TEMPAE_clean_linker_10, # of connection points: 2
#     Edge 15, Type (0, 1), BuildingBlock: TEMPAE_clean_linker_10, # of connection points: 2
#     Edge 16, Type (0, 1), BuildingBlock: TEMPAE_clean_linker_10, # of connection points: 2
#     Edge 17, Type (0, 1), BuildingBlock: TEMPAE_clean_linker_10, # of connection points: 2
#     Edge 18, Type (0, 1), BuildingBlock: TEMPAE_clean_linker_10, # of connection points: 2
#     Edge 19, Type (0, 1), BuildingBlock: TEMPAE_clean_linker_10, # of connection points: 2
#     Edge 20, Type (0, 1), BuildingBlock: TEMPAE_clean_linker_10, # of connection points: 2
#     Edge 21, Type (0, 1), BuildingBlock: TEMPAE_clean_linker_10, # of connection points: 2
#     Edge 22, Type (0, 1), BuildingBlock: TEMPAE_clean_linker_10, # of connection points: 2
#     Edge 23, Type (0, 1), BuildingBlock: TEMPAE_clean_linker_10, # of connection points: 2
#     Edge 24, Type (0, 1), BuildingBlock: TEMPAE_clean_linker_10, # of connection points: 2
#     Edge 25, Type (0, 1), BuildingBlock: TEMPAE_clean_linker_10, # of connection points: 2
#     Edge 26, Type (0, 1), BuildingBlock: TEMPAE_clean_linker_10, # of connection points: 2
#     Edge 27, Type (0, 1), BuildingBlock: TEMPAE_clean_linker_10, # of connection points: 2
#     Edge 28, Type (0, 1), BuildingBlock: TEMPAE_clean_linker_10, # of connection points: 2
#     Edge 29, Type (0, 1), BuildingBlock: TEMPAE_clean_linker_10, # of connection points: 2
#     Edge 30, Type (0, 1), BuildingBlock: TEMPAE_clean_linker_10, # of connection points: 2
#     Edge 31, Type (0, 1), BuildingBlock: TEMPAE_clean_linker_10, # of connection points: 2
#     Edge 32, Type (0, 1), BuildingBlock: TEMPAE_clean_linker_10, # of connection points: 2
#     Edge 33, Type (0, 1), BuildingBlock: TEMPAE_clean_linker_10, # of connection points: 2
#     Edge 34, Type (0, 1), BuildingBlock: TEMPAE_clean_linker_10, # of connection points: 2
#     Edge 35, Type (0, 1), BuildingBlock: TEMPAE_clean_linker_10, # of connection points: 2
# Relax obj value: 0.139
# Max RMSD: 0.225
# Mean RMSD: 0.146
data_MOF--net-nom--node1-CEKHIL_clean_sbu_0--node2-AZAVOO_clean_linker_0--edge1-TEMPAE_clean_linker_10
_symmetry_space_group_name_H-M    P1
_symmetry_Int_Tables_number       1
_symmetry_cell_setting            triclinic
loop_
_symmetry_equiv_pos_as_xyz
'x, y, z'
_cell_length_a     49.517413
_cell_length_b     49.514991
_cell_length_c     60.297172
_cell_angle_alpha  90.060246
_cell_angle_beta   90.033994
_cell_angle_gamma 123.37148
loop_
_atom_site_label
_atom_site_type_symbol
_atom_site_fract_x
_atom_site_fract_y
_atom_site_fract_z
_atom_type_partial_charge
H0 H 0.03744 0.59997 0.16803 0.0
H1 H 0.21118 0.70684 0.41119 0.0
H2 H 0.97527 0.55445 0.29778 0.0
H3 H 0.93754 0.52729 0.26707 0.0
H4 H 0.96519 0.62005 0.24032 0.0
H5 H 0.00293 0.64709 0.27127 0.0
H6 H 0.03296 0.58018 0.26382 0.0
H7 H 0.03222 0.579 0.22328 0.0
H8 H 0.07688 0.68254 0.22221 0.0
H9 H 0.07688 0.68326 0.26283 0.0
H10 H 0.10682 0.61573 0.28335 0.0
H11 H 0.16245 0.64205 0.26984 0.0
H12 H 0.1809 0.73511 0.28867 0.0
H13 H 0.12558 0.70839 0.30265 0.0
H14 H 0.1076 0.60984 0.33288 0.0
H15 H 0.15249 0.62432 0.35804 0.0
H16 H 0.15502 0.7094 0.37856 0.0
H17 H 0.11047 0.69488 0.35307 0.0
H18 H 0.04043 0.5746 0.35635 0.0
H19 H 0.05768 0.57255 0.39393 0.0
H20 H 0.06631 0.66208 0.40961 0.0
H21 H 0.04896 0.66396 0.37182 0.0
H22 H 0.97691 0.56201 0.34773 0.0
H23 H 0.92508 0.54691 0.36406 0.0
H24 H 0.93972 0.63649 0.3405 0.0
H25 H 0.99113 0.65103 0.32398 0.0
O26 O 0.0389 0.60117 0.18405 0.0
O27 O 0.06402 0.65471 0.18429 0.0
O28 O 0.19571 0.66037 0.38677 0.0
O29 O 0.19423 0.70122 0.40055 0.0
C30 C 0.02143 0.61833 0.30085 0.0
C31 C 0.05211 0.63175 0.29077 0.0
C32 C 0.07992 0.64427 0.30408 0.0
C33 C 0.07691 0.64099 0.32729 0.0
C34 C 0.04619 0.62661 0.33735 0.0
C35 C 0.0187 0.61688 0.32422 0.0
C36 C 0.99207 0.60273 0.28663 0.0
C37 C 0.97219 0.56888 0.28582 0.0
C38 C 0.95072 0.5534 0.26818 0.0
C39 C 0.94884 0.57158 0.25106 0.0
C40 C 0.96655 0.60545 0.25308 0.0
C41 C 0.98786 0.62091 0.27083 0.0
C42 C 0.05487 0.63179 0.26623 0.0
C43 C 0.04277 0.60261 0.25479 0.0
C44 C 0.04232 0.60199 0.23163 0.0
C45 C 0.05434 0.63065 0.21949 0.0
C46 C 0.06736 0.66002 0.23106 0.0
C47 C 0.06758 0.66056 0.25424 0.0
C48 C 0.11235 0.66025 0.2939 0.0
C49 C 0.12286 0.64182 0.28428 0.0
C50 C 0.15456 0.65691 0.27655 0.0
C51 C 0.17614 0.69067 0.27829 0.0
C52 C 0.16507 0.70904 0.28742 0.0
C53 C 0.13346 0.69391 0.29524 0.0
C54 C 0.10584 0.65132 0.3412 0.0
C55 C 0.11821 0.63182 0.3426 0.0
C56 C 0.14373 0.64008 0.35705 0.0
C57 C 0.15724 0.66795 0.37039 0.0
C58 C 0.14511 0.68772 0.36859 0.0
C59 C 0.11974 0.67955 0.35402 0.0
C60 C 0.04352 0.61945 0.36139 0.0
C61 C 0.04445 0.59291 0.36822 0.0
C62 C 0.0547 0.59199 0.38958 0.0
C63 C 0.06388 0.61747 0.40447 0.0
C64 C 0.05929 0.64211 0.39844 0.0
C65 C 0.04918 0.64311 0.37693 0.0
C66 C 0.98774 0.60762 0.33474 0.0
C67 C 0.969 0.57843 0.3463 0.0
C68 C 0.9395 0.56996 0.35568 0.0
C69 C 0.92831 0.59057 0.35362 0.0
C70 C 0.94745 0.61994 0.34219 0.0
C71 C 0.97684 0.62833 0.33281 0.0
C72 C 0.05284 0.62972 0.1949 0.0
C73 C 0.18359 0.67621 0.38632 0.0
H74 H 0.61128 0.10703 0.34561 0.0
H75 H 0.57623 0.19435 0.59015 0.0
H76 H 0.56522 -0.00102 0.45555 0.0
H77 H 0.55264 0.96505 0.42237 0.0
H78 H 0.47096 0.97182 0.40875 0.0
H79 H 0.48303 0.00481 0.44221 0.0
H80 H 0.60347 0.07475 0.4397 0.0
H81 H 0.61543 0.08912 0.40046 0.0
H82 H 0.52569 0.0839 0.39372 0.0
H83 H 0.51407 0.06949 0.43297 0.0
H84 H 0.61954 0.14023 0.47715 0.0
H85 H 0.6337 0.19551 0.47016 0.0
H86 H 0.53251 0.1584 0.46047 0.0
H87 H 0.51872 0.10371 0.46782 0.0
H88 H 0.61107 0.10898 0.52437 0.0
H89 H 0.62707 0.14902 0.55395 0.0
H90 H 0.53558 0.14022 0.54723 0.0
H91 H 0.52001 0.10034 0.51763 0.0
H92 H 0.57954 0.03612 0.53311 0.0
H93 H 0.58743 0.04666 0.57299 0.0
H94 H 0.50076 0.04747 0.57584 0.0
H95 H 0.4929 0.03662 0.53596 0.0
H96 H 0.54105 0.97238 0.49487 0.0
H97 H 0.50151 0.91471 0.50253 0.0
H98 H 0.42644 0.93367 0.50894 0.0
H99 H 0.46577 0.99071 0.50086 0.0
O100 O 0.60616 0.10151 0.36111 0.0
O101 O 0.55964 0.09821 0.35847 0.0
O102 O 0.61865 0.185 0.57958 0.0
O103 O 0.57068 0.17884 0.57836 0.0
C104 C 0.5355 0.02891 0.46883 0.0
C105 C 0.55067 0.06171 0.46272 0.0
C106 C 0.55871 0.08527 0.47909 0.0
C107 C 0.55434 0.07666 0.50164 0.0
C108 C 0.53941 0.04392 0.5078 0.0
C109 C 0.52876 0.01987 0.49136 0.0
C110 C 0.52495 0.00419 0.45123 0.0
C111 C 0.54408 0.99229 0.44574 0.0
C112 C 0.53697 0.9731 0.42683 0.0
C113 C 0.51104 0.96618 0.41305 0.0
C114 C 0.4912 0.97706 0.41911 0.0
C115 C 0.49795 0.99571 0.43818 0.0
C116 C 0.55806 0.07134 0.43913 0.0
C117 C 0.58655 0.07691 0.42971 0.0
C118 C 0.59326 0.08504 0.4073 0.0
C119 C 0.57152 0.08768 0.39395 0.0
C120 C 0.54298 0.08213 0.40354 0.0
C121 C 0.53632 0.07402 0.42595 0.0
C122 C 0.56819 0.11815 0.47273 0.0
C123 C 0.60061 0.14418 0.47324 0.0
C124 C 0.60858 0.17558 0.46928 0.0
C125 C 0.58414 0.18121 0.46495 0.0
C126 C 0.55178 0.15485 0.4641 0.0
C127 C 0.5439 0.12362 0.46801 0.0
C128 C 0.56445 0.10189 0.5189 0.0
C129 C 0.59465 0.11593 0.52924 0.0
C130 C 0.60368 0.13872 0.54613 0.0
C131 C 0.58255 0.14776 0.55299 0.0
C132 C 0.55238 0.13376 0.5424 0.0
C133 C 0.54346 0.11108 0.52545 0.0
C134 C 0.5358 0.03584 0.53169 0.0
C135 C 0.56127 0.03672 0.54256 0.0
C136 C 0.56592 0.04309 0.56527 0.0
C137 C 0.54504 0.04851 0.57733 0.0
C138 C 0.51715 0.0433 0.56694 0.0
C139 C 0.51254 0.03697 0.54418 0.0
C140 C 0.50614 0.98553 0.49731 0.0
C141 C 0.51606 0.96393 0.49798 0.0
C142 C 0.49352 0.93115 0.5024 0.0
C143 C 0.46082 0.91966 0.50611 0.0
C144 C 0.45129 0.94165 0.50574 0.0
C145 C 0.47375 0.97426 0.50136 0.0
C146 C 0.57863 0.09611 0.37011 0.0
C147 C 0.59183 0.17165 0.57111 0.0
H148 H 0.41596 0.42542 0.7923 0.0
H149 H 0.50223 0.34194 0.55783 0.0
H150 H 0.42491 0.49177 0.66936 0.0
H151 H 0.41162 0.51166 0.70176 0.0
H152 H 0.32681 0.41591 0.71307 0.0
H153 H 0.34045 0.39618 0.68041 0.0
H154 H 0.44979 0.45687 0.69883 0.0
H155 H 0.44407 0.45243 0.73919 0.0
H156 H 0.36145 0.35408 0.73216 0.0
H157 H 0.36724 0.35905 0.69176 0.0
H158 H 0.48922 0.42656 0.66686 0.0
H159 H 0.51163 0.39675 0.68138 0.0
H160 H 0.41609 0.30866 0.68064 0.0
H161 H 0.39421 0.33864 0.66527 0.0
H162 H 0.49601 0.44939 0.62074 0.0
H163 H 0.52662 0.43593 0.5965 0.0
H164 H 0.44222 0.33859 0.58958 0.0
H165 H 0.41179 0.35256 0.61363 0.0
H166 H 0.46969 0.48568 0.6068 0.0
H167 H 0.49545 0.49422 0.57065 0.0
H168 H 0.41679 0.39945 0.5498 0.0
H169 H 0.39106 0.39118 0.58602 0.0
H170 H 0.42994 0.4981 0.61966 0.0
H171 H 0.40215 0.52347 0.60645 0.0
H172 H 0.31005 0.43338 0.61602 0.0
H173 H 0.33802 0.40814 0.62896 0.0
O174 O 0.4183 0.42632 0.77633 0.0
O175 O 0.3763 0.37567 0.77191 0.0
O176 O 0.533 0.39857 0.57095 0.0
O177 O 0.49084 0.34775 0.56774 0.0
C178 C 0.39795 0.42923 0.65817 0.0
C179 C 0.41064 0.41251 0.66802 0.0
C180 C 0.4271 0.4025 0.65493 0.0
C181 C 0.43265 0.41089 0.63231 0.0
C182 C 0.42049 0.42814 0.62249 0.0
C183 C 0.40217 0.43639 0.63527 0.0
C184 C 0.38383 0.44251 0.67273 0.0
C185 C 0.40268 0.47541 0.67823 0.0
C186 C 0.39504 0.4867 0.69681 0.0
C187 C 0.36842 0.4652 0.71017 0.0
C188 C 0.34772 0.43289 0.70326 0.0
C189 C 0.35531 0.42166 0.68456 0.0
C190 C 0.40909 0.40819 0.69244 0.0
C191 C 0.43075 0.43425 0.70607 0.0
C192 C 0.42733 0.43169 0.72911 0.0
C193 C 0.40226 0.40292 0.73891 0.0
C194 C 0.38103 0.37658 0.72515 0.0
C195 C 0.38442 0.37923 0.70209 0.0
C196 C 0.44015 0.38472 0.6651 0.0
C197 C 0.47318 0.40086 0.66997 0.0
C198 C 0.48584 0.3838 0.67841 0.0
C199 C 0.46562 0.35028 0.68226 0.0
C200 C 0.43237 0.33435 0.67766 0.0
C201 C 0.41978 0.35144 0.66908 0.0
C202 C 0.4517 0.40197 0.61881 0.0
C203 C 0.48424 0.42516 0.614 0.0
C204 C 0.50165 0.41741 0.60016 0.0
C205 C 0.48684 0.38618 0.59105 0.0
C206 C 0.45435 0.36285 0.59629 0.0
C207 C 0.43693 0.3707 0.61007 0.0
C208 C 0.42838 0.4379 0.59897 0.0
C209 C 0.45706 0.46755 0.594 0.0
C210 C 0.47194 0.47226 0.5734 0.0
C211 C 0.45839 0.44724 0.55762 0.0
C212 C 0.42793 0.41894 0.56182 0.0
C213 C 0.41297 0.41435 0.58235 0.0
C214 C 0.38603 0.45113 0.62493 0.0
C215 C 0.40384 0.48362 0.6183 0.0
C216 C 0.38791 0.49809 0.61086 0.0
C217 C 0.35391 0.4804 0.61024 0.0
C218 C 0.33623 0.44768 0.61649 0.0
C219 C 0.35216 0.43319 0.62373 0.0
C220 C 0.39809 0.40066 0.76335 0.0
C221 C 0.50507 0.378 0.57602 0.0
H222 H 0.04937 0.61073 0.96631 0.0
H223 H 0.20371 0.59987 0.74172 0.0
H224 H 0.98823 0.58339 0.8575 0.0
H225 H 0.95272 0.5661 0.88989 0.0
H226 H 0.92716 0.46824 0.88024 0.0
H227 H 0.96269 0.48573 0.84798 0.0
H228 H 0.0628 0.61928 0.8697 0.0
H229 H 0.0628 0.62575 0.90998 0.0
H230 H 0.01842 0.52289 0.91814 0.0
H231 H 0.01905 0.51689 0.87791 0.0
H232 H 0.12415 0.63152 0.83488 0.0
H233 H 0.17614 0.63971 0.84559 0.0
H234 H 0.12605 0.53993 0.86624 0.0
H235 H 0.0746 0.53186 0.85541 0.0
H236 H 0.0944 0.62386 0.78484 0.0
H237 H 0.14026 0.64116 0.76005 0.0
H238 H 0.14216 0.55838 0.78005 0.0
H239 H 0.09596 0.54109 0.80449 0.0
H240 H 0.02777 0.58846 0.76729 0.0
H241 H 0.04587 0.59162 0.72908 0.0
H242 H 0.05245 0.50939 0.7409 0.0
H243 H 0.03467 0.50666 0.77912 0.0
H244 H 0.95623 0.55273 0.80583 0.0
H245 H 0.90082 0.51326 0.79292 0.0
H246 H 0.92428 0.44152 0.78604 0.0
H247 H 0.97906 0.48071 0.79924 0.0
O248 O 0.05017 0.60784 0.9505 0.0
O249 O 0.02764 0.55486 0.95376 0.0
O250 O 0.18284 0.63513 0.74113 0.0
O251 O 0.18589 0.59384 0.75163 0.0
C252 C 0.00697 0.54798 0.83618 0.0
C253 C 0.03775 0.56339 0.84644 0.0
C254 C 0.06543 0.57334 0.83358 0.0
C255 C 0.06276 0.56987 0.81033 0.0
C256 C 0.03197 0.55349 0.80014 0.0
C257 C 0.00395 0.54174 0.81313 0.0
C258 C 0.9781 0.53584 0.85044 0.0
C259 C 0.97391 0.55799 0.86186 0.0
C260 C 0.95392 0.54815 0.88047 0.0
C261 C 0.93762 0.51594 0.8878 0.0
C262 C 0.93927 0.49317 0.87494 0.0
C263 C 0.95943 0.50308 0.85639 0.0
C264 C 0.04072 0.56762 0.87092 0.0
C265 C 0.0535 0.59828 0.88025 0.0
C266 C 0.05329 0.60185 0.90325 0.0
C267 C 0.04037 0.57479 0.91727 0.0
C268 C 0.02843 0.54421 0.90783 0.0
C269 C 0.02877 0.54071 0.88486 0.0
C270 C 0.0957 0.58113 0.84445 0.0
C271 C 0.12443 0.61179 0.84233 0.0
C272 C 0.15398 0.61638 0.84838 0.0
C273 C 0.15491 0.59028 0.85642 0.0
C274 C 0.12588 0.56027 0.85983 0.0
C275 C 0.09652 0.55576 0.8539 0.0
C276 C 0.09204 0.58137 0.79653 0.0
C277 C 0.10492 0.60964 0.78394 0.0
C278 C 0.13105 0.61941 0.76976 0.0
C279 C 0.14489 0.60114 0.76807 0.0
C280 C 0.13213 0.57302 0.78098 0.0
C281 C 0.10586 0.56318 0.79504 0.0
C282 C 0.02997 0.54739 0.77594 0.0
C283 C 0.03151 0.57014 0.76128 0.0
C284 C 0.04204 0.57199 0.73949 0.0
C285 C 0.05114 0.5511 0.73217 0.0
C286 C 0.04604 0.52607 0.74621 0.0
C287 C 0.03545 0.52419 0.76793 0.0
C288 C 0.97164 0.51959 0.80325 0.0
C289 C 0.9494 0.5286 0.80124 0.0
C290 C 0.9179 0.50611 0.79387 0.0
C291 C 0.90827 0.47431 0.78864 0.0
C292 C 0.93093 0.46574 0.79021 0.0
C293 C 0.9623 0.48816 0.79748 0.0
C294 C 0.03901 0.57843 0.94161 0.0
C295 C 0.17234 0.61118 0.7528 0.0
H296 H 0.59458 0.98787 0.82368 0.0
H297 H 0.59709 0.85574 0.06124 0.0
H298 H 0.60734 0.06427 0.95034 0.0
H299 H 0.61107 0.1016 0.92207 0.0
H300 H 0.69707 0.11107 0.89589 0.0
H301 H 0.69346 0.07405 0.92451 0.0
H302 H 0.58873 0.00633 0.91895 0.0
H303 H 0.58307 0.99881 0.87872 0.0
H304 H 0.66739 0.99354 0.87723 0.0
H305 H 0.67298 0.00148 0.91747 0.0
H306 H 0.56681 0.94037 0.94549 0.0
H307 H 0.54456 0.88498 0.93305 0.0
H308 H 0.63866 0.89976 0.9407 0.0
H309 H 0.66056 0.95521 0.95352 0.0
H310 H 0.56845 0.95024 0.00072 0.0
H311 H 0.54954 0.90578 0.02709 0.0
H312 H 0.64308 0.9183 0.02437 0.0
H313 H 0.66177 0.96304 0.99824 0.0
H314 H 0.59044 0.01993 0.01201 0.0
H315 H 0.57364 0.00632 0.05062 0.0
H316 H 0.6584 0.00485 0.06437 0.0
H317 H 0.67552 0.01923 0.02559 0.0
H318 H 0.61662 0.07345 0.99223 0.0
H319 H 0.64184 0.12867 0.0064 0.0
H320 H 0.73618 0.14415 -0.00152 0.0
H321 H 0.7107 0.0892 0.98387 0.0
O322 O 0.59723 0.99074 0.8396 0.0
O323 O 0.64047 0.98781 0.83975 0.0
O324 O 0.55642 0.86806 0.05182 0.0
O325 O 0.60381 0.87296 0.05063 0.0
C326 C 0.64484 0.04029 0.95449 0.0
C327 C 0.63506 0.00985 0.94542 0.0
C328 C 0.62754 0.984 0.9596 0.0
C329 C 0.6283 0.98801 0.98277 0.0
C330 C 0.63804 0.01838 0.99187 0.0
C331 C 0.64724 0.04472 0.97772 0.0
C332 C 0.65028 0.06667 0.93958 0.0
C333 C 0.62756 0.0752 0.93895 0.0
C334 C 0.62962 0.09638 0.92274 0.0
C335 C 0.65423 0.10903 0.90672 0.0
C336 C 0.67767 0.10139 0.90791 0.0
C337 C 0.67578 0.08047 0.92429 0.0
C338 C 0.63134 0.00458 0.92106 0.0
C339 C 0.60599 0.00363 0.90988 0.0
C340 C 0.60279 -0.00072 0.88691 0.0
C341 C 0.62481 0.99562 0.87474 0.0
C342 C 0.65004 0.99631 0.88609 0.0
C343 C 0.65325 0.00076 0.90906 0.0
C344 C 0.61519 0.95158 0.95033 0.0
C345 C 0.58264 0.9317 0.94419 0.0
C346 C 0.57008 0.90019 0.937 0.0
C347 C 0.58993 0.88807 0.93582 0.0
C348 C 0.62278 0.90837 0.9416 0.0
C349 C 0.63532 0.93997 0.94881 0.0
C350 C 0.61641 0.9597 0.99758 0.0
C351 C 0.58471 0.94317 0.00576 0.0
C352 C 0.57402 0.91785 0.02083 0.0
C353 C 0.59483 0.9085 0.02786 0.0
C354 C 0.62645 0.92488 0.01932 0.0
C355 C 0.63716 0.95032 0.00433 0.0
C356 C 0.63428 0.02076 0.01603 0.0
C357 C 0.60624 0.01828 0.02356 0.0
C358 C 0.59643 0.01002 0.04553 0.0
C359 C 0.61447 0.00401 0.06031 0.0
C360 C 0.64413 0.00944 0.0533 0.0
C361 C 0.65398 0.01776 0.03123 0.0
C362 C 0.66191 0.07747 0.9871 0.0
C363 C 0.6427 0.08878 0.99369 0.0
C364 C 0.65715 0.12023 0.00184 0.0
C365 C 0.69103 0.14078 0.00354 0.0
C366 C 0.71008 0.12909 0.99708 0.0
C367 C 0.69561 0.09771 0.9889 0.0
C368 C 0.62142 0.99114 0.85032 0.0
C369 C 0.58374 0.88194 0.04414 0.0
H370 H 0.42122 0.40149 0.02557 0.0
H371 H 0.65462 0.47224 0.22119 0.0
H372 H 0.43812 0.48136 0.12582 0.0
H373 H 0.41389 0.49093 0.09386 0.0
H374 H 0.50209 0.58487 0.08482 0.0
H375 H 0.52616 0.575 0.11651 0.0
H376 H 0.461 0.43266 0.11846 0.0
H377 H 0.43853 0.41018 0.08178 0.0
H378 H 0.50589 0.50345 0.05223 0.0
H379 H 0.52848 0.52541 0.08891 0.0
H380 H 0.51382 0.42728 0.1539 0.0
H381 H 0.54585 0.40506 0.14349 0.0
H382 H 0.59716 0.48097 0.09511 0.0
H383 H 0.5667 0.50417 0.10639 0.0
H384 H 0.51623 0.45984 0.1987 0.0
H385 H 0.54719 0.44566 0.22192 0.0
H386 H 0.6309 0.50392 0.1802 0.0
H387 H 0.59983 0.51847 0.1574 0.0
H388 H 0.49663 0.50577 0.20896 0.0
H389 H 0.51839 0.51129 0.24618 0.0
H390 H 0.61535 0.57414 0.22064 0.0
H391 H 0.59323 0.56779 0.18331 0.0
H392 H 0.46066 0.53224 0.16868 0.0
H393 H 0.45827 0.57897 0.17834 0.0
H394 H 0.56251 0.64093 0.17421 0.0
H395 H 0.56446 0.59448 0.16358 0.0
O396 O 0.43097 0.41063 0.03985 0.0
O397 O 0.46659 0.45891 0.02546 0.0
O398 O 0.59768 0.44669 0.23259 0.0
O399 O 0.64185 0.47746 0.21227 0.0
C400 C 0.50168 0.51755 0.13737 0.0
C401 C 0.50795 0.49482 0.12882 0.0
C402 C 0.52626 0.48634 0.14133 0.0
C403 C 0.53708 0.49945 0.16277 0.0
C404 C 0.53139 0.52261 0.17106 0.0
C405 C 0.51448 0.53238 0.15816 0.0
C406 C 0.48396 0.52738 0.1233 0.0
C407 C 0.4517 0.50449 0.11743 0.0
C408 C 0.438 0.50987 0.09913 0.0
C409 C 0.4563 0.53841 0.08671 0.0
C410 C 0.48736 0.56273 0.09416 0.0
C411 C 0.50114 0.5572 0.11232 0.0
C412 C 0.49617 0.48069 0.10636 0.0
C413 C 0.47108 0.44807 0.10401 0.0
C414 C 0.4582 0.43536 0.08306 0.0
C415 C 0.47028 0.45508 0.06409 0.0
C416 C 0.49595 0.48761 0.06649 0.0
C417 C 0.50887 0.50023 0.08742 0.0
C418 C 0.53813 0.46751 0.13104 0.0
C419 C 0.53139 0.43861 0.14067 0.0
C420 C 0.5496 0.42597 0.13475 0.0
C421 C 0.57385 0.44148 0.11859 0.0
C422 C 0.57834 0.46852 0.10748 0.0
C423 C 0.56083 0.48164 0.11382 0.0
C424 C 0.55579 0.49013 0.17638 0.0
C425 C 0.54127 0.46954 0.19464 0.0
C426 C 0.55899 0.46144 0.20784 0.0
C427 C 0.59152 0.47363 0.20289 0.0
C428 C 0.60592 0.49414 0.18448 0.0
C429 C 0.58822 0.5024 0.17138 0.0
C430 C 0.54339 0.53608 0.1935 0.0
C431 C 0.52244 0.52197 0.21159 0.0
C432 C 0.535 0.52514 0.23287 0.0
C433 C 0.56866 0.54261 0.23624 0.0
C434 C 0.58935 0.56004 0.21844 0.0
C435 C 0.57676 0.55675 0.19718 0.0
C436 C 0.51273 0.55995 0.16554 0.0
C437 C 0.48293 0.55592 0.16994 0.0
C438 C 0.48166 0.5826 0.17559 0.0
C439 C 0.51023 0.61372 0.17701 0.0
C440 C 0.54005 0.61743 0.17296 0.0
C441 C 0.54124 0.59085 0.16716 0.0
C442 C 0.45596 0.44177 0.04194 0.0
C443 C 0.61041 0.46504 0.21685 0.0
Co444 Co 0.64384 0.44631 0.40823 0.0
O445 O 0.67904 0.45121 0.39156 0.0
O446 O 0.68193 0.48997 0.41184 0.0
C447 C 0.62941 0.39857 0.42335 0.0
O448 O 0.61187 0.44864 0.42824 0.0
Co449 Co 0.57463 0.38827 0.39673 0.0
O450 O 0.56224 0.40367 0.42263 0.0
C451 C 0.60683 0.44495 0.36738 0.0
C452 C 0.69638 0.48058 0.39893 0.0
C453 C 0.58139 0.43037 0.43258 0.0
O454 O 0.62965 0.46024 0.38172 0.0
O455 O 0.58417 0.41504 0.36937 0.0
O456 O 0.65238 0.42555 0.43214 0.0
O457 O 0.61797 0.40132 0.40485 0.0
Co458 Co 0.24593 0.64658 0.56685 0.0
O459 O 0.27272 0.63925 0.58553 0.0
O460 O 0.23495 0.60276 0.56292 0.0
C461 C 0.2867 0.69468 0.55381 0.0
O462 O 0.21471 0.64598 0.54442 0.0
Co463 Co 0.24035 0.70527 0.57492 0.0
O464 O 0.22066 0.69442 0.54489 0.0
C465 C 0.20553 0.64815 0.60419 0.0
C466 C 0.25794 0.6104 0.57711 0.0
C467 C 0.20922 0.6666 0.53632 0.0
O468 O 0.2131 0.63248 0.59138 0.0
O469 O 0.2162 0.67808 0.60144 0.0
O470 O 0.28065 0.66792 0.54503 0.0
O471 O 0.26974 0.69145 0.57107 0.0
Co472 Co 0.63481 0.25192 0.73493 0.0
O473 O 0.62223 0.27079 0.71283 0.0
O474 O 0.59091 0.23973 0.7403 0.0
C475 C 0.68325 0.29733 0.74212 0.0
O476 O 0.64022 0.22958 0.76147 0.0
Co477 Co 0.69467 0.24801 0.72834 0.0
O478 O 0.69117 0.24185 0.76088 0.0
C479 C 0.63325 0.20066 0.70585 0.0
C480 C 0.59481 0.25746 0.72314 0.0
C481 C 0.66435 0.23083 0.77076 0.0
O482 O 0.61906 0.21282 0.71544 0.0
O483 O 0.66335 0.21187 0.70817 0.0
O484 O 0.65726 0.29244 0.7514 0.0
O485 O 0.67884 0.27609 0.72754 0.0
Co486 Co 0.40543 0.60331 0.89483 0.0
O487 O 0.38627 0.61874 0.8751 0.0
O488 O 0.35954 0.57944 0.89973 0.0
C489 C 0.44637 0.65239 0.90588 0.0
O490 O 0.41624 0.58211 0.91892 0.0
Co491 Co 0.47351 0.61738 0.88767 0.0
O492 O 0.46958 0.60345 0.91896 0.0
C493 C 0.42004 0.57096 0.85849 0.0
C494 C 0.35899 0.59777 0.88456 0.0
C495 C 0.4419 0.58675 0.92811 0.0
O496 O 0.39987 0.57138 0.87166 0.0
O497 O 0.45072 0.58932 0.86113 0.0
O498 O 0.41799 0.63887 0.91492 0.0
O499 O 0.44862 0.63696 0.88939 0.0
Co500 Co 0.79947 0.41466 0.07539 0.0
O501 O 0.76365 0.39833 0.09546 0.0
O502 O 0.7824 0.44146 0.07402 0.0
C503 C 0.78331 0.36643 0.06047 0.0
O504 O 0.83391 0.43733 0.05148 0.0
Co505 Co 0.84844 0.39504 0.07901 0.0
O506 O 0.86042 0.41257 0.04846 0.0
C507 C 0.85111 0.44097 0.11142 0.0
C508 C 0.7611 0.42158 0.08838 0.0
C509 C 0.85318 0.43192 0.04108 0.0
O510 O 0.83036 0.44261 0.09968 0.0
O511 O 0.85989 0.42162 0.10683 0.0
O512 O 0.77133 0.38256 0.05356 0.0
O513 O 0.80268 0.37863 0.07732 0.0
Co514 Co 0.46213 0.82385 0.22486 0.0
O515 O 0.45823 0.79493 0.20194 0.0
O516 O 0.49457 0.81406 0.22895 0.0
C517 C 0.40907 0.79635 0.23284 0.0
O518 O 0.47232 0.85241 0.25211 0.0
Co519 Co 0.42955 0.86205 0.22102 0.0
O520 O 0.43534 0.86525 0.25366 0.0
C521 C 0.48923 0.88349 0.19569 0.0
C522 C 0.48181 0.79533 0.2117 0.0
C523 C 0.45732 0.86301 0.26263 0.0
O524 O 0.49217 0.86221 0.2056 0.0
O525 O 0.46513 0.88607 0.19869 0.0
O526 O 0.42719 0.78748 0.24121 0.0
O527 O 0.42293 0.81977 0.21868 0.0
C528 C 0.21829 0.69701 0.25181 0.0
C529 C 0.21037 0.70661 0.27131 0.0
C530 C 0.25062 0.71157 0.24531 0.0
C531 C 0.27556 0.73643 0.25857 0.0
C532 C 0.26774 0.74636 0.27819 0.0
C533 C 0.23525 0.73124 0.28438 0.0
C534 C 0.2581 0.70029 0.2243 0.0
C535 C 0.29371 0.77284 0.29273 0.0
C536 C 0.36019 0.75416 0.25348 0.0
C537 C 0.37507 0.78128 0.23958 0.0
C538 C 0.32773 0.73922 0.25973 0.0
C539 C 0.30989 0.75191 0.252 0.0
C540 C 0.32487 0.77945 0.2381 0.0
C541 C 0.3573 0.79376 0.23198 0.0
C542 C 0.31249 0.70979 0.27451 0.0
C543 C 0.30665 0.7938 0.22971 0.0
H544 H 0.19917 0.67827 0.24151 0.0
H545 H 0.22936 0.73839 0.29968 0.0
H546 H 0.2715 0.7208 0.21259 0.0
H547 H 0.27391 0.69149 0.22813 0.0
H548 H 0.23592 0.68057 0.21591 0.0
H549 H 0.28352 0.77821 0.30719 0.0
H550 H 0.31004 0.76572 0.29892 0.0
H551 H 0.30869 0.79532 0.28294 0.0
H552 H 0.37384 0.7444 0.25936 0.0
H553 H 0.36875 0.81478 0.22127 0.0
H554 H 0.29128 0.689 0.26606 0.0
H555 H 0.30359 0.71445 0.28999 0.0
H556 H 0.32966 0.70287 0.27899 0.0
H557 H 0.28529 0.7755 0.21994 0.0
H558 H 0.3219 0.81541 0.21914 0.0
H559 H 0.29755 0.80085 0.24392 0.0
C560 C 0.6173 0.23571 0.44722 0.0
C561 C 0.59203 0.21438 0.4614 0.0
C562 C 0.62342 0.26633 0.44253 0.0
C563 C 0.60381 0.27575 0.45232 0.0
C564 C 0.57896 0.25473 0.46721 0.0
C565 C 0.57335 0.22426 0.47158 0.0
C566 C 0.6502 0.28819 0.42657 0.0
C567 C 0.55777 0.26408 0.47811 0.0
C568 C 0.63603 0.36515 0.45096 0.0
C569 C 0.62036 0.36689 0.43217 0.0
C570 C 0.63029 0.33547 0.45809 0.0
C571 C 0.60839 0.30699 0.44611 0.0
C572 C 0.59162 0.30846 0.42761 0.0
C573 C 0.59779 0.33844 0.42087 0.0
C574 C 0.64843 0.33475 0.47798 0.0
C575 C 0.56793 0.27852 0.41451 0.0
H576 H 0.63163 0.22805 0.43924 0.0
H577 H 0.55415 0.20799 0.48286 0.0
H578 H 0.63981 0.29228 0.41163 0.0
H579 H 0.66702 0.31214 0.43434 0.0
H580 H 0.66422 0.27791 0.42125 0.0
H581 H 0.54071 0.2457 0.49025 0.0
H582 H 0.57288 0.28762 0.48677 0.0
H583 H 0.54357 0.26711 0.46528 0.0
H584 H 0.65346 0.3871 0.45978 0.0
H585 H 0.58556 0.33967 0.40637 0.0
H586 H 0.66493 0.32736 0.47271 0.0
H587 H 0.63132 0.31661 0.49017 0.0
H588 H 0.66296 0.35865 0.48634 0.0
H589 H 0.58072 0.26819 0.40686 0.0
H590 H 0.55585 0.28359 0.40116 0.0
H591 H 0.54912 0.25981 0.42566 0.0
C592 C 0.34674 0.51705 0.58584 0.0
C593 C 0.33691 0.49645 0.60424 0.0
C594 C 0.33179 0.53352 0.5807 0.0
C595 C 0.30664 0.52954 0.59444 0.0
C596 C 0.2962 0.50828 0.61278 0.0
C597 C 0.31139 0.49193 0.61742 0.0
C598 C 0.34349 0.55583 0.56091 0.0
C599 C 0.26972 0.50364 0.62796 0.0
C600 C 0.2953 0.59929 0.59655 0.0
C601 C 0.26868 0.58851 0.58245 0.0
C602 C 0.30764 0.58021 0.60069 0.0
C603 C 0.29294 0.54942 0.59058 0.0
C604 C 0.26561 0.53803 0.57669 0.0
C605 C 0.25382 0.55777 0.57274 0.0
C606 C 0.33682 0.59328 0.6156 0.0
C607 C 0.2492 0.50525 0.56573 0.0
H608 H 0.36623 0.52034 0.57548 0.0
H609 H 0.30396 0.47633 0.63183 0.0
H610 H 0.32284 0.54964 0.54994 0.0
H611 H 0.35443 0.58113 0.56656 0.0
H612 H 0.36175 0.5546 0.55107 0.0
H613 H 0.26295 0.48466 0.64063 0.0
H614 H 0.27781 0.5267 0.63662 0.0
H615 H 0.24788 0.49694 0.6182 0.0
H616 H 0.30699 0.62304 0.60411 0.0
H617 H 0.23327 0.5493 0.56181 0.0
H618 H 0.35712 0.59535 0.60618 0.0
H619 H 0.33118 0.57636 0.62954 0.0
H620 H 0.345 0.61742 0.62255 0.0
H621 H 0.26646 0.50434 0.55453 0.0
H622 H 0.22765 0.49952 0.55594 0.0
H623 H 0.24159 0.48619 0.57844 0.0
C624 C 0.85849 0.45652 0.76628 0.0
C625 C 0.87448 0.44964 0.78222 0.0
C626 C 0.82691 0.43272 0.75952 0.0
C627 C 0.81104 0.40149 0.76907 0.0
C628 C 0.82686 0.39467 0.78551 0.0
C629 C 0.85841 0.41882 0.79186 0.0
C630 C 0.81077 0.44077 0.74188 0.0
C631 C 0.8106 0.36173 0.79621 0.0
C632 C 0.71969 0.34545 0.76579 0.0
C633 C 0.71584 0.32444 0.74866 0.0
C634 C 0.75056 0.37098 0.77242 0.0
C635 C 0.77814 0.3756 0.76157 0.0
C636 C 0.77436 0.3547 0.74407 0.0
C637 C 0.74322 0.32929 0.73785 0.0
C638 C 0.75371 0.3927 0.79123 0.0
C639 C 0.80324 0.35893 0.73211 0.0
H640 H 0.87096 0.48028 0.75873 0.0
H641 H 0.87056 0.41363 0.80446 0.0
H642 H 0.80536 0.42512 0.72716 0.0
H643 H 0.7874 0.43587 0.74811 0.0
H644 H 0.82606 0.46646 0.73659 0.0
H645 H 0.82595 0.36066 0.80916 0.0
H646 H 0.78742 0.35527 0.80388 0.0
H647 H 0.80482 0.34314 0.78344 0.0
H648 H 0.69857 0.34178 0.77419 0.0
H649 H 0.74035 0.31316 0.72456 0.0
H650 H 0.76767 0.41829 0.78573 0.0
H651 H 0.76726 0.39085 0.80515 0.0
H652 H 0.72983 0.38644 0.79749 0.0
H653 H 0.81838 0.38376 0.72527 0.0
H654 H 0.7961 0.34133 0.71832 0.0
H655 H 0.8185 0.35582 0.74393 0.0
C656 C 0.55284 0.83967 0.91254 0.0
C657 C 0.57569 0.8538 0.92968 0.0
C658 C 0.53572 0.80635 0.90853 0.0
C659 C 0.54184 0.78676 0.92186 0.0
C660 C 0.56637 0.80114 0.93822 0.0
C661 C 0.58294 0.83456 0.94202 0.0
C662 C 0.50976 0.79191 0.89087 0.0
C663 C 0.57382 0.78105 0.95255 0.0
C664 C 0.46812 0.70204 0.9287 0.0
C665 C 0.47306 0.68527 0.91219 0.0
C666 C 0.49122 0.7348 0.9328 0.0
C667 C 0.52004 0.75107 0.92017 0.0
C668 C 0.52614 0.73376 0.9045 0.0
C669 C 0.50245 0.70096 0.90063 0.0
C670 C 0.48385 0.75242 0.94971 0.0
C671 C 0.55686 0.75023 0.89102 0.0
H672 H 0.54766 0.85458 0.90266 0.0
H673 H 0.60046 0.84532 0.95538 0.0
H674 H 0.51312 0.77632 0.87955 0.0
H675 H 0.48569 0.77642 0.89878 0.0
H676 H 0.5097 0.81071 0.88088 0.0
H677 H 0.5967 0.79625 0.96199 0.0
H678 H 0.55387 0.76697 0.96457 0.0
H679 H 0.57564 0.76349 0.94231 0.0
H680 H 0.44557 0.68993 0.93784 0.0
H681 H 0.50647 0.68798 0.88797 0.0
H682 H 0.48064 0.77033 0.94118 0.0
H683 H 0.50431 0.76593 0.96148 0.0
H684 H 0.46156 0.73573 0.95931 0.0
H685 H 0.55629 0.76656 0.87872 0.0
H686 H 0.56 0.73258 0.88198 0.0
H687 H 0.57822 0.76532 0.90183 0.0
C688 C 0.61736 0.43605 0.13334 0.0
C689 C 0.59768 0.43283 0.1155 0.0
C690 C 0.64372 0.43321 0.13015 0.0
C691 C 0.65 0.42635 0.10868 0.0
C692 C 0.62921 0.4216 0.09081 0.0
C693 C 0.60348 0.42537 0.09438 0.0
C694 C 0.66571 0.43909 0.1495 0.0
C695 C 0.63472 0.41352 0.06779 0.0
C696 C 0.73509 0.45247 0.09254 0.0
C697 C 0.73363 0.42359 0.09503 0.0
C698 C 0.70826 0.45392 0.09755 0.0
C699 C 0.67913 0.42559 0.10465 0.0
C700 C 0.67764 0.39643 0.10735 0.0
C701 C 0.70509 0.39589 0.10276 0.0
C702 C 0.71094 0.48565 0.09498 0.0
C703 C 0.64681 0.36561 0.11443 0.0
H704 H 0.61307 0.44244 0.14958 0.0
H705 H 0.58824 0.42311 0.08063 0.0
H706 H 0.66827 0.41835 0.15159 0.0
H707 H 0.6902 0.46078 0.1462 0.0
H708 H 0.65667 0.44288 0.16529 0.0
H709 H 0.61481 0.4079 0.05621 0.0
H710 H 0.65769 0.43424 0.06102 0.0
H711 H 0.63702 0.39247 0.06838 0.0
H712 H 0.75721 0.47392 0.08664 0.0
H713 H 0.70381 0.37342 0.1045 0.0
H714 H 0.70373 0.49187 0.11061 0.0
H715 H 0.69419 0.48345 0.08181 0.0
H716 H 0.73585 0.50583 0.09062 0.0
H717 H 0.6384 0.36925 0.13052 0.0
H718 H 0.64986 0.34509 0.11612 0.0
H719 H 0.62749 0.35895 0.10207 0.0
C720 C 0.44316 0.86785 0.52569 0.0
C721 C 0.43649 0.88497 0.5106 0.0
C722 C 0.41927 0.83588 0.5315 0.0
C723 C 0.38805 0.82074 0.52195 0.0
C724 C 0.38158 0.83749 0.50607 0.0
C725 C 0.40589 0.86939 0.50057 0.0
C726 C 0.42706 0.81873 0.54848 0.0
C727 C 0.34865 0.8221 0.49543 0.0
C728 C 0.33078 0.72952 0.52683 0.0
C729 C 0.31182 0.72677 0.54503 0.0
C730 C 0.35564 0.75998 0.519 0.0
C731 C 0.36156 0.78824 0.52967 0.0
C732 C 0.3422 0.78557 0.54788 0.0
C733 C 0.31755 0.75486 0.55533 0.0
C734 C 0.37574 0.76195 0.49949 0.0
C735 C 0.3477 0.81517 0.55963 0.0
H736 H 0.4667 0.87986 0.53358 0.0
H737 H 0.40083 0.88236 0.48859 0.0
H738 H 0.41253 0.81424 0.56367 0.0
H739 H 0.4205 0.79486 0.54203 0.0
H740 H 0.45307 0.83296 0.55311 0.0
H741 H 0.34822 0.83758 0.4823 0.0
H742 H 0.34104 0.79839 0.48806 0.0
H743 H 0.33051 0.81753 0.50824 0.0
H744 H 0.32643 0.70786 0.51881 0.0
H745 H 0.30295 0.75287 0.5694 0.0
H746 H 0.40147 0.77436 0.50452 0.0
H747 H 0.37452 0.77651 0.48604 0.0
H748 H 0.36763 0.73771 0.49278 0.0
H749 H 0.37261 0.82955 0.56647 0.0
H750 H 0.33032 0.80891 0.5734 0.0
H751 H 0.34539 0.83083 0.5477 0.0
C752 C 0.4693 0.30169 0.68113 0.0
C753 C 0.47954 0.332 0.69024 0.0
C754 C 0.4842 0.28548 0.68715 0.0
C755 C 0.51017 0.30008 0.70246 0.0
C756 C 0.51975 0.33003 0.71237 0.0
C757 C 0.50423 0.34553 0.70622 0.0
C758 C 0.47313 0.25347 0.67635 0.0
C759 C 0.54739 0.34644 0.72874 0.0
C760 C 0.54307 0.25438 0.72944 0.0
C761 C 0.57068 0.26474 0.71655 0.0
C762 C 0.52229 0.26466 0.72458 0.0
C763 C 0.52948 0.28585 0.70651 0.0
C764 C 0.55657 0.29523 0.69293 0.0
C765 C 0.57674 0.2845 0.69808 0.0
C766 C 0.4934 0.25386 0.73926 0.0
C767 C 0.56509 0.31778 0.67349 0.0
H768 H 0.45044 0.29115 0.66863 0.0
H769 H 0.51183 0.36861 0.71368 0.0
H770 H 0.49202 0.25658 0.66474 0.0
H771 H 0.46955 0.23554 0.68902 0.0
H772 H 0.45024 0.24353 0.66694 0.0
H773 H 0.5504 0.36853 0.73607 0.0
H774 H 0.54347 0.32959 0.74235 0.0
H775 H 0.57025 0.35334 0.72032 0.0
H776 H 0.53822 0.23907 0.74371 0.0
H777 H 0.59793 0.29248 0.68795 0.0
H778 H 0.47127 0.24435 0.72907 0.0
H779 H 0.49708 0.27486 0.74874 0.0
H780 H 0.48932 0.2349 0.75121 0.0
H781 H 0.54409 0.30819 0.66214 0.0
H782 H 0.58598 0.32139 0.6639 0.0
H783 H 0.57116 0.34169 0.67953 0.0
C784 C 0.19064 0.57056 0.84939 0.0
C785 C 0.18596 0.59317 0.8595 0.0
C786 C 0.21933 0.57187 0.85254 0.0
C787 C 0.24375 0.59623 0.86632 0.0
C788 C 0.23942 0.61954 0.87625 0.0
C789 C 0.21053 0.61786 0.87258 0.0
C790 C 0.22328 0.5469 0.8414 0.0
C791 C 0.26493 0.64572 0.89116 0.0
C792 C 0.30167 0.57823 0.89264 0.0
C793 C 0.32913 0.5963 0.87928 0.0
C794 C 0.2738 0.57828 0.88872 0.0
C795 C 0.27335 0.59655 0.87086 0.0
C796 C 0.30083 0.61447 0.85711 0.0
C797 C 0.3285 0.61425 0.86155 0.0
C798 C 0.24493 0.55896 0.90377 0.0
C799 C 0.301 0.63387 0.83774 0.0
H800 H 0.17175 0.55179 0.83894 0.0
H801 H 0.20678 0.63529 0.88037 0.0
H802 H 0.2458 0.55899 0.83142 0.0
H803 H 0.22551 0.53208 0.85413 0.0
H804 H 0.20257 0.5305 0.83038 0.0
H805 H 0.25822 0.66253 0.89706 0.0
H806 H 0.26874 0.63461 0.90579 0.0
H807 H 0.28833 0.65987 0.88225 0.0
H808 H 0.30212 0.56447 0.90645 0.0
H809 H 0.34969 0.62824 0.85117 0.0
H810 H 0.22367 0.54052 0.89399 0.0
H811 H 0.23854 0.57511 0.91146 0.0
H812 H 0.24943 0.54652 0.91717 0.0
H813 H 0.28122 0.61778 0.82603 0.0
H814 H 0.32429 0.64635 0.82858 0.0
H815 H 0.29648 0.65227 0.84364 0.0
C816 C 0.69354 0.18106 0.03004 0.0
C817 C 0.70649 0.1744 0.01178 0.0
C818 C 0.7076 0.21279 0.03777 0.0
C819 C 0.73536 0.23844 0.02703 0.0
C820 C 0.7488 0.23187 0.00875 0.0
C821 C 0.73414 0.19992 0.00131 0.0
C822 C 0.69257 0.21891 0.05731 0.0
C823 C 0.77835 0.25864 0.99687 0.0
C824 C 0.75026 0.32169 0.03366 0.0
C825 C 0.7732 0.33481 0.05079 0.0
C826 C 0.73827 0.29059 0.02543 0.0
C827 C 0.74961 0.27225 0.03452 0.0
C828 C 0.77355 0.28576 0.05132 0.0
C829 C 0.78507 0.31695 0.0593 0.0
C830 C 0.71277 0.27699 0.00747 0.0
C831 C 0.78636 0.26695 0.06127 0.0
H832 H 0.67246 0.16139 0.03839 0.0
H833 H 0.74402 0.19497 0.987 0.0
H834 H 0.71069 0.23133 0.07074 0.0
H835 H 0.68471 0.23512 0.05228 0.0
H836 H 0.67134 0.19623 0.06405 0.0
H837 H 0.78658 0.2493 0.98352 0.0
H838 H 0.773 0.27568 0.98943 0.0
H839 H 0.79848 0.27263 0.00882 0.0
H840 H 0.74107 0.33545 0.02697 0.0
H841 H 0.8029 0.32706 0.07249 0.0
H842 H 0.68999 0.25558 0.01386 0.0
H843 H 0.72057 0.26878 0.99317 0.0
H844 H 0.70762 0.29493 0.00148 0.0
H845 H 0.76654 0.24524 0.06989 0.0
H846 H 0.80622 0.28158 0.07332 0.0
H847 H 0.79542 0.25838 0.048 0.0
C848 C 0.4876 0.64045 0.19834 0.0
C849 C 0.50896 0.64236 0.18221 0.0
C850 C 0.48559 0.66707 0.20295 0.0
C851 C 0.50558 0.69637 0.19125 0.0
C852 C 0.52763 0.69867 0.17525 0.0
C853 C 0.52894 0.67159 0.17084 0.0
C854 C 0.46168 0.66366 0.2201 0.0
C855 C 0.54937 0.72953 0.16248 0.0
C856 C 0.47434 0.75094 0.18744 0.0
C857 C 0.49108 0.77284 0.2048 0.0
C858 C 0.47953 0.72649 0.18246 0.0
C859 C 0.50219 0.72402 0.19506 0.0
C860 C 0.52029 0.74696 0.21193 0.0
C861 C 0.51445 0.77111 0.21666 0.0
C862 C 0.45974 0.70248 0.16434 0.0
C863 C 0.54494 0.74528 0.22552 0.0
H864 H 0.47246 0.61813 0.20743 0.0
H865 H 0.54518 0.67315 0.15811 0.0
H866 H 0.47435 0.68241 0.23314 0.0
H867 H 0.44379 0.6675 0.21221 0.0
H868 H 0.44845 0.63949 0.22811 0.0
H869 H 0.56656 0.72798 0.15159 0.0
H870 H 0.53451 0.73502 0.15205 0.0
H871 H 0.56338 0.75011 0.1741 0.0
H872 H 0.45627 0.75215 0.17816 0.0
H873 H 0.5275 0.788 0.23007 0.0
H874 H 0.44381 0.67803 0.17161 0.0
H875 H 0.47581 0.7011 0.15224 0.0
H876 H 0.44441 0.70882 0.15529 0.0
H877 H 0.53258 0.72292 0.23566 0.0
H878 H 0.5588 0.7664 0.23678 0.0
H879 H 0.56217 0.74408 0.21448 0.0
C880 C 0.87524 0.58537 0.3498 0.0
C881 C 0.89615 0.58077 0.3625 0.0
C882 C 0.84369 0.57358 0.35699 0.0
C883 C 0.8327 0.5566 0.3773 0.0
C884 C 0.85422 0.55337 0.39075 0.0
C885 C 0.8857 0.5655 0.38318 0.0
C886 C 0.82149 0.57749 0.34214 0.0
C887 C 0.84343 0.53544 0.41252 0.0
C888 C 0.75106 0.53303 0.40097 0.0
C889 C 0.73111 0.50121 0.39316 0.0
C890 C 0.78429 0.55169 0.39584 0.0
C891 C 0.79765 0.53802 0.38275 0.0
C892 C 0.77747 0.50602 0.37474 0.0
C893 C 0.74456 0.48813 0.37998 0.0
C894 C 0.80513 0.58585 0.4045 0.0
C895 C 0.79067 0.49044 0.36077 0.0
H896 H 0.88301 0.59692 0.33372 0.0
H897 H 0.90194 0.56242 0.39327 0.0
H898 H 0.80329 0.5538 0.33457 0.0
H899 H 0.80817 0.58558 0.35187 0.0
H900 H 0.83487 0.59511 0.32859 0.0
H901 H 0.86403 0.53855 0.42226 0.0
H902 H 0.83076 0.54383 0.4227 0.0
H903 H 0.82606 0.50925 0.4093 0.0
H904 H 0.74079 0.54325 0.41115 0.0
H905 H 0.72938 0.46355 0.37385 0.0
H906 H 0.81732 0.60292 0.3905 0.0
H907 H 0.82437 0.58819 0.41539 0.0
H908 H 0.79096 0.59318 0.41402 0.0
H909 H 0.80205 0.50485 0.34553 0.0
H910 H 0.77165 0.46531 0.35581 0.0
H911 H 0.80968 0.48989 0.3701 0.0
C912 C 0.0752 0.62809 0.44523 0.0
C913 C 0.08271 0.62087 0.42459 0.0
C914 C 0.09459 0.63351 0.4639 0.0
C915 C 0.12245 0.63235 0.46169 0.0
C916 C 0.12985 0.6247 0.4409 0.0
C917 C 0.10981 0.61892 0.42264 0.0
C918 C 0.08566 0.6411 0.48589 0.0
C919 C 0.15965 0.62391 0.43766 0.0
C920 C 0.19096 0.68149 0.50259 0.0
C921 C 0.1877 0.65747 0.51682 0.0
C922 C 0.17009 0.67356 0.48447 0.0
C923 C 0.14485 0.64089 0.48077 0.0
C924 C 0.14141 0.6165 0.49507 0.0
C925 C 0.16313 0.62505 0.5128 0.0
C926 C 0.1751 0.70017 0.46926 0.0
C927 C 0.1146 0.58145 0.49175 0.0
H928 H 0.05426 0.6296 0.44671 0.0
H929 H 0.11602 0.61397 0.40658 0.0
H930 H 0.08448 0.62466 0.49892 0.0
H931 H 0.10455 0.66616 0.49098 0.0
H932 H 0.06204 0.63877 0.48522 0.0
H933 H 0.15991 0.61395 0.4212 0.0
H934 H 0.18152 0.64882 0.43905 0.0
H935 H 0.16134 0.60915 0.45072 0.0
H936 H 0.21008 0.70657 0.50553 0.0
H937 H 0.16037 0.60644 0.52385 0.0
H938 H 0.15333 0.70129 0.4694 0.0
H939 H 0.17853 0.69496 0.45196 0.0
H940 H 0.19638 0.72425 0.4741 0.0
H941 H 0.09081 0.57873 0.49226 0.0
H942 H 0.11486 0.56549 0.50456 0.0
H943 H 0.11682 0.5731 0.47518 0.0
C944 C 0.53466 0.05591 0.61699 0.0
C945 C 0.55568 0.06579 0.59883 0.0
C946 C 0.54415 0.07445 0.63657 0.0
C947 C 0.57494 0.10389 0.63762 0.0
C948 C 0.59624 0.11375 0.61933 0.0
C949 C 0.58646 0.09444 0.60029 0.0
C950 C 0.52118 0.06282 0.65597 0.0
C951 C 0.6291 0.14519 0.61961 0.0
C952 C 0.59287 0.17308 0.67546 0.0
C953 C 0.61439 0.17316 0.69058 0.0
C954 C 0.57852 0.14963 0.65864 0.0
C955 C 0.58506 0.12517 0.65748 0.0
C956 C 0.60487 0.12383 0.67378 0.0
C957 C 0.61981 0.14823 0.68991 0.0
C958 C 0.55831 0.15244 0.64119 0.0
C959 C 0.61164 0.09759 0.67351 0.0
H960 H 0.51081 0.03381 0.61581 0.0
H961 H 0.60253 0.10244 0.58612 0.0
H962 H 0.53349 0.0624 0.67122 0.0
H963 H 0.51355 0.07977 0.65903 0.0
H964 H 0.49924 0.03826 0.65313 0.0
H965 H 0.6422 0.14987 0.60367 0.0
H966 H 0.62648 0.16566 0.62305 0.0
H967 H 0.64414 0.14477 0.63307 0.0
H968 H 0.58884 0.1925 0.67596 0.0
H969 H 0.63621 0.14815 0.7018 0.0
H970 H 0.53475 0.12908 0.63916 0.0
H971 H 0.57095 0.15838 0.62499 0.0
H972 H 0.55375 0.17149 0.64527 0.0
H973 H 0.58896 0.07357 0.67087 0.0
H974 H 0.62312 0.09697 0.68917 0.0
H975 H 0.62813 0.10179 0.65957 0.0
C976 C 0.37193 0.50642 0.73622 0.0
C977 C 0.36559 0.47546 0.73269 0.0
C978 C 0.37615 0.51897 0.75772 0.0
C979 C 0.3738 0.49999 0.77609 0.0
C980 C 0.36498 0.46783 0.77273 0.0
C981 C 0.36109 0.45597 0.75104 0.0
C982 C 0.38546 0.55337 0.76064 0.0
C983 C 0.36185 0.44674 0.79193 0.0
C984 C 0.42862 0.54808 0.82423 0.0
C985 C 0.40734 0.54977 0.83863 0.0
C986 C 0.41769 0.53106 0.80417 0.0
C987 C 0.38464 0.51523 0.79832 0.0
C988 C 0.36273 0.5156 0.81315 0.0
C989 C 0.37434 0.53292 0.83314 0.0
C990 C 0.44181 0.53103 0.78883 0.0
C991 C 0.32728 0.49876 0.80755 0.0
H992 H 0.37505 0.52139 0.72209 0.0
H993 H 0.35658 0.43214 0.74845 0.0
H994 H 0.37034 0.55469 0.7736 0.0
H995 H 0.41101 0.56871 0.76621 0.0
H996 H 0.38291 0.56363 0.745 0.0
H997 H 0.35151 0.42131 0.78675 0.0
H998 H 0.38602 0.4564 0.79935 0.0
H999 H 0.34633 0.447 0.80507 0.0
H1000 H 0.45409 0.56077 0.82834 0.0
H1001 H 0.35765 0.53399 0.84414 0.0
H1002 H 0.44339 0.54346 0.77312 0.0
H1003 H 0.43375 0.50586 0.78457 0.0
H1004 H 0.46637 0.54334 0.79626 0.0
H1005 H 0.32425 0.51139 0.79355 0.0
H1006 H 0.31287 0.49833 0.82183 0.0
H1007 H 0.31731 0.47353 0.80213 0.0
C1008 C 0.93988 0.52665 0.92845 0.0
C1009 C 0.92275 0.50701 0.91017 0.0
C1010 C 0.92841 0.51682 0.95013 0.0
C1011 C 0.89911 0.48657 0.95362 0.0
C1012 C 0.88109 0.46718 0.93518 0.0
C1013 C 0.89318 0.47761 0.91366 0.0
C1014 C 0.94845 0.53813 0.96932 0.0
C1015 C 0.84968 0.43482 0.93823 0.0
C1016 C 0.8878 0.4425 0.00772 0.0
C1017 C 0.86657 0.44783 0.01935 0.0
C1018 C 0.89889 0.45538 0.98648 0.0
C1019 C 0.88854 0.47408 0.97653 0.0
C1020 C 0.86771 0.4802 0.9883 0.0
C1021 C 0.85697 0.46701 0.00957 0.0
C1022 C 0.92123 0.44844 0.9745 0.0
C1023 C 0.85632 0.50019 0.97824 0.0
H1024 H 0.96309 0.54912 0.9259 0.0
H1025 H 0.87984 0.46245 0.89956 0.0
H1026 H 0.9332 0.54151 0.98096 0.0
H1027 H 0.95852 0.52631 0.97867 0.0
H1028 H 0.96884 0.56227 0.96374 0.0
H1029 H 0.83746 0.42379 0.92219 0.0
H1030 H 0.8544 0.41796 0.94677 0.0
H1031 H 0.83298 0.43743 0.94887 0.0
H1032 H 0.89545 0.42779 0.01508 0.0
H1033 H 0.84057 0.47129 0.01835 0.0
H1034 H 0.94379 0.47141 0.96964 0.0
H1035 H 0.90951 0.43474 0.95903 0.0
H1036 H 0.92774 0.43422 0.98478 0.0
H1037 H 0.87739 0.52427 0.97332 0.0
H1038 H 0.84106 0.50367 0.98985 0.0
H1039 H 0.84212 0.48821 0.96299 0.0
C1040 C 0.56853 0.96054 0.08218 0.0
C1041 C 0.60014 0.9881 0.0818 0.0
C1042 C 0.55391 0.94481 0.10211 0.0
C1043 C 0.57129 0.95701 0.12224 0.0
C1044 C 0.60352 0.98446 0.12195 0.0
C1045 C 0.61769 -0.00037 0.10164 0.0
C1046 C 0.51964 0.91537 0.10162 0.0
C1047 C 0.62272 0.99812 0.1431 0.0
C1048 C 0.51539 0.9326 0.17156 0.0
C1049 C 0.5139 0.90502 0.17911 0.0
C1050 C 0.53569 0.95105 0.15395 0.0
C1051 C 0.55479 0.94156 0.14349 0.0
C1052 C 0.55481 0.91484 0.15182 0.0
C1053 C 0.53444 0.89694 0.16961 0.0
C1054 C 0.53522 0.97959 0.14572 0.0
C1055 C 0.57478 0.90392 0.14106 0.0
H1056 H 0.55523 0.95111 0.06676 0.0
H1057 H 0.64222 0.02084 0.10129 0.0
H1058 H 0.5185 0.89462 0.10964 0.0
H1059 H 0.50361 0.92028 0.11113 0.0
H1060 H 0.51002 0.90826 0.08447 0.0
H1061 H 0.648 0.01853 0.13993 0.0
H1062 H 0.61094 0.0068 0.15397 0.0
H1063 H 0.62316 0.97899 0.15232 0.0
H1064 H 0.49996 0.93932 0.179 0.0
H1065 H 0.53353 0.87571 0.17536 0.0
H1066 H 0.52316 0.97375 0.12927 0.0
H1067 H 0.56022 0.001 0.14354 0.0
H1068 H 0.52211 0.98609 0.1572 0.0
H1069 H 0.56441 0.89326 0.12456 0.0
H1070 H 0.57537 0.88551 0.15117 0.0
H1071 H 0.59993 0.92477 0.13835 0.0
C1072 C 0.56779 0.53591 0.2775 0.0
C1073 C 0.58172 0.53768 0.25688 0.0
C1074 C 0.57547 0.52478 0.29632 0.0
C1075 C 0.59762 0.51527 0.2944 0.0
C1076 C 0.61344 0.51915 0.27401 0.0
C1077 C 0.60521 0.5302 0.25546 0.0
C1078 C 0.55821 0.52109 0.31785 0.0
C1079 C 0.63737 0.5095 0.27136 0.0
C1080 C 0.62717 0.49677 0.3468 0.0
C1081 C 0.60578 0.46302 0.34817 0.0
C1082 C 0.62505 0.51422 0.3293 0.0
C1083 C 0.60107 0.4975 0.31281 0.0
C1084 C 0.57988 0.46343 0.31384 0.0
C1085 C 0.58247 0.44664 0.3315 0.0
C1086 C 0.64809 0.55053 0.32865 0.0
C1087 C 0.55416 0.44469 0.29639 0.0
H1088 H 0.54985 0.54195 0.27871 0.0
H1089 H 0.61573 0.53098 0.23952 0.0
H1090 H 0.54073 0.49502 0.32133 0.0
H1091 H 0.57566 0.5313 0.33183 0.0
H1092 H 0.54481 0.53315 0.31734 0.0
H1093 H 0.64987 0.517 0.25507 0.0
H1094 H 0.6558 0.52038 0.28473 0.0
H1095 H 0.6246 0.48285 0.27282 0.0
H1096 H 0.64527 0.50969 0.35959 0.0
H1097 H 0.56594 0.42059 0.33229 0.0
H1098 H 0.63434 0.56213 0.33002 0.0
H1099 H 0.66104 0.5581 0.31256 0.0
H1100 H 0.66621 0.55975 0.34226 0.0
H1101 H 0.53735 0.4529 0.29597 0.0
H1102 H 0.53989 0.41821 0.29948 0.0
H1103 H 0.56546 0.44932 0.27976 0.0
C1104 C 0.50592 0.96511 0.37205 0.0
C1105 C 0.50597 0.9498 0.39153 0.0
C1106 C 0.50017 0.94985 0.35142 0.0
C1107 C 0.4937 0.91824 0.35033 0.0
C1108 C 0.49435 0.90289 0.36996 0.0
C1109 C 0.50084 0.91906 0.39038 0.0
C1110 C 0.50028 0.96731 0.33085 0.0
C1111 C 0.48707 0.86902 0.36947 0.0
C1112 C 0.44302 0.87136 0.3004 0.0
C1113 C 0.46644 0.87427 0.28574 0.0
C1114 C 0.45137 0.88401 0.32194 0.0
C1115 C 0.48408 0.90069 0.32879 0.0
C1116 C 0.5077 0.90285 0.3143 0.0
C1117 C 0.4985 0.88922 0.29297 0.0
C1118 C 0.42532 0.88055 0.33705 0.0
C1119 C 0.54289 0.92092 0.3209 0.0
H1120 H 0.51039 0.98913 0.37301 0.0
H1121 H 0.50092 0.90733 0.40553 0.0
H1122 H 0.51648 0.96735 0.31812 0.0
H1123 H 0.4756 0.9545 0.32365 0.0
H1124 H 0.50832 0.99272 0.33435 0.0
H1125 H 0.49058 0.86132 0.38594 0.0
H1126 H 0.46165 0.85183 0.36416 0.0
H1127 H 0.50274 0.86729 0.35721 0.0
H1128 H 0.41811 0.85936 0.29494 0.0
H1129 H 0.51663 0.89154 0.28162 0.0
H1130 H 0.42919 0.90459 0.33984 0.0
H1131 H 0.42652 0.87114 0.35347 0.0
H1132 H 0.4007 0.86409 0.33005 0.0
H1133 H 0.55259 0.94706 0.32255 0.0
H1134 H 0.55774 0.918 0.30854 0.0
H1135 H 0.54561 0.91247 0.33727 0.0
C1136 C 0.48106 0.42249 0.53467 0.0
C1137 C 0.47798 0.44859 0.53857 0.0
C1138 C 0.5005 0.42337 0.51746 0.0
C1139 C 0.51724 0.45102 0.5037 0.0
C1140 C 0.51454 0.47765 0.50767 0.0
C1141 C 0.49505 0.4762 0.5252 0.0
C1142 C 0.503 0.3946 0.51398 0.0
C1143 C 0.53175 0.50735 0.49318 0.0
C1144 C 0.58411 0.45617 0.46908 0.0
C1145 C 0.56711 0.44021 0.4497 0.0
C1146 C 0.56863 0.46132 0.48658 0.0
C1147 C 0.53571 0.45077 0.48435 0.0
C1148 C 0.51923 0.4366 0.46421 0.0
C1149 C 0.53503 0.43124 0.44724 0.0
C1150 C 0.58691 0.47631 0.50788 0.0
C1151 C 0.48428 0.42538 0.46102 0.0
H1152 H 0.46859 0.40146 0.54536 0.0
H1153 H 0.49283 0.49647 0.5283 0.0
H1154 H 0.49532 0.38501 0.49689 0.0
H1155 H 0.52852 0.40212 0.51591 0.0
H1156 H 0.48787 0.37473 0.52585 0.0
H1157 H 0.52838 0.52657 0.49909 0.0
H1158 H 0.55801 0.51727 0.49266 0.0
H1159 H 0.52252 0.50077 0.47594 0.0
H1160 H 0.6089 0.46307 0.47101 0.0
H1161 H 0.52197 0.41931 0.43212 0.0
H1162 H 0.57709 0.45766 0.52109 0.0
H1163 H 0.58371 0.49573 0.51346 0.0
H1164 H 0.61317 0.48656 0.5061 0.0
H1165 H 0.46869 0.4043 0.4719 0.0
H1166 H 0.47611 0.41816 0.4436 0.0
H1167 H 0.48059 0.44476 0.46582 0.0
C1168 C 0.06197 0.56762 0.69216 0.0
C1169 C 0.07051 0.55864 0.71164 0.0
C1170 C 0.08264 0.57902 0.6737 0.0
C1171 C 0.11267 0.58183 0.67489 0.0
C1172 C 0.12076 0.57151 0.69419 0.0
C1173 C 0.09959 0.56004 0.71232 0.0
C1174 C 0.073 0.58941 0.65328 0.0
C1175 C 0.15264 0.57437 0.69625 0.0
C1176 C 0.16145 0.59697 0.62228 0.0
C1177 C 0.18262 0.63077 0.62265 0.0
C1178 C 0.13842 0.58061 0.63913 0.0
C1179 C 0.13691 0.59844 0.6569 0.0
C1180 C 0.1587 0.63246 0.65761 0.0
C1181 C 0.18109 0.64821 0.64041 0.0
C1182 C 0.11545 0.54433 0.63779 0.0
C1183 C 0.15829 0.65229 0.67652 0.0
H1184 H 0.03945 0.56643 0.69156 0.0
H1185 H 0.10662 0.5537 0.72748 0.0
H1186 H 0.08903 0.61605 0.65144 0.0
H1187 H 0.07599 0.57842 0.63822 0.0
H1188 H 0.04756 0.58256 0.65409 0.0
H1189 H 0.15321 0.56107 0.71088 0.0
H1190 H 0.15761 0.56499 0.68116 0.0
H1191 H 0.17247 0.60023 0.69797 0.0
H1192 H 0.16236 0.58334 0.60855 0.0
H1193 H 0.19753 0.67429 0.64094 0.0
H1194 H 0.09014 0.53783 0.63719 0.0
H1195 H 0.11777 0.53291 0.65285 0.0
H1196 H 0.11992 0.53398 0.62297 0.0
H1197 H 0.13442 0.64934 0.67728 0.0
H1198 H 0.17735 0.67845 0.67483 0.0
H1199 H 0.16186 0.64361 0.69252 0.0
C1200 C 0.65785 0.12085 0.86623 0.0
C1201 C 0.6542 0.12836 0.88797 0.0
C1202 C 0.65744 0.1384 0.84817 0.0
C1203 C 0.65354 0.1643 0.85194 0.0
C1204 C 0.64952 0.17183 0.87385 0.0
C1205 C 0.64973 0.15363 0.89163 0.0
C1206 C 0.66152 0.12941 0.82504 0.0
C1207 C 0.64559 0.19945 0.87851 0.0
C1208 C 0.68817 0.22629 0.80586 0.0
C1209 C 0.6606 0.21676 0.79308 0.0
C1210 C 0.68593 0.21053 0.82572 0.0
C1211 C 0.65539 0.18434 0.83291 0.0
C1212 C 0.62723 0.17564 0.8207 0.0
C1213 C 0.63015 0.19212 0.80095 0.0
C1214 C 0.71649 0.2209 0.83841 0.0
C1215 C 0.59425 0.14777 0.82783 0.0
H1216 H 0.66065 0.1009 0.86333 0.0
H1217 H 0.64696 0.1595 0.90845 0.0
H1218 H 0.64105 0.12457 0.81437 0.0
H1219 H 0.68399 0.14987 0.81753 0.0
H1220 H 0.66283 0.10771 0.82488 0.0
H1221 H 0.64128 0.20126 0.89637 0.0
H1222 H 0.66766 0.22258 0.87325 0.0
H1223 H 0.62509 0.19644 0.86878 0.0
H1224 H 0.71175 0.24565 0.80003 0.0
H1225 H 0.60877 0.18464 0.79115 0.0
H1226 H 0.72149 0.20167 0.83735 0.0
H1227 H 0.71354 0.22437 0.85621 0.0
H1228 H 0.73779 0.2437 0.83186 0.0
H1229 H 0.59286 0.12476 0.82582 0.0
H1230 H 0.57453 0.14626 0.81794 0.0
H1231 H 0.59015 0.15005 0.84562 0.0
C1232 C 0.43472 0.51545 0.04921 0.0
C1233 C 0.44549 0.54092 0.06438 0.0
C1234 C 0.42994 0.51929 0.02683 0.0
C1235 C 0.43617 0.54934 0.0195 0.0
C1236 C 0.44516 0.57447 0.035 0.0
C1237 C 0.44981 0.56997 0.05728 0.0
C1238 C 0.42033 0.49192 0.01084 0.0
C1239 C 0.45172 0.60676 0.02783 0.0
C1240 C 0.46679 0.57804 0.96117 0.0
C1241 C 0.43939 0.57379 0.9507 0.0
C1242 C 0.46569 0.56917 0.98337 0.0
C1243 C 0.43652 0.55577 0.99543 0.0
C1244 C 0.40843 0.55018 0.98478 0.0
C1245 C 0.41018 0.55923 0.96251 0.0
C1246 C 0.4961 0.5752 0.99415 0.0
C1247 C 0.37686 0.5357 0.9971 0.0
H1248 H 0.43186 0.49311 0.05456 0.0
H1249 H 0.45795 0.58958 0.06904 0.0
H1250 H 0.40119 0.48852 -0.00065 0.0
H1251 H 0.44157 0.49785 0.00065 0.0
H1252 H 0.41149 0.46875 0.01958 0.0
H1253 H 0.45546 0.62257 0.04218 0.0
H1254 H 0.4737 0.61939 0.01731 0.0
H1255 H 0.43134 0.60334 0.0177 0.0
H1256 H 0.48941 0.58907 0.95219 0.0
H1257 H 0.38882 0.55576 0.9546 0.0
H1258 H 0.49139 0.55262 0.0018 0.0
H1259 H 0.50384 0.59332 0.00762 0.0
H1260 H 0.51633 0.58421 0.98218 0.0
H1261 H 0.37044 0.51289 0.00536 0.0
H1262 H 0.35665 0.53059 0.98599 0.0
H1263 H 0.37944 0.55263 0.01029 0.0
C1264 C 0.94722 0.56812 0.20967 0.0
C1265 C 0.93177 0.55543 0.23009 0.0
C1266 C 0.93352 0.55121 0.1898 0.0
C1267 C 0.90368 0.52079 0.19036 0.0
C1268 C 0.88738 0.50842 0.21082 0.0
C1269 C 0.90165 0.52588 0.23044 0.0
C1270 C 0.95174 0.56522 0.16837 0.0
C1271 C 0.85549 0.47611 0.21209 0.0
C1272 C 0.85652 0.48393 0.13688 0.0
C1273 C 0.86517 0.46209 0.1313 0.0
C1274 C 0.86902 0.50338 0.15595 0.0
C1275 C 0.89062 0.50091 0.16983 0.0
C1276 C 0.89965 0.47915 0.16424 0.0
C1277 C 0.88687 0.46007 0.14506 0.0
C1278 C 0.859 0.52646 0.16132 0.0
C1279 C 0.92263 0.4758 0.17863 0.0
H1280 H 0.97081 0.59065 0.2093 0.0
H1281 H 0.88954 0.51608 0.24617 0.0
H1282 H 0.9606 0.5503 0.16224 0.0
H1283 H 0.93554 0.56476 0.15544 0.0
H1284 H 0.97283 0.59051 0.17042 0.0
H1285 H 0.84489 0.47093 0.22901 0.0
H1286 H 0.83792 0.47532 0.20025 0.0
H1287 H 0.85899 0.4566 0.2073 0.0
H1288 H 0.83981 0.48577 0.1264 0.0
H1289 H 0.89376 0.44333 0.14098 0.0
H1290 H 0.88068 0.55152 0.16246 0.0
H1291 H 0.84686 0.52039 0.1777 0.0
H1292 H 0.84232 0.52581 0.14868 0.0
H1293 H 0.94597 0.49952 0.18024 0.0
H1294 H 0.92745 0.45797 0.17187 0.0
H1295 H 0.91245 0.46807 0.19556 0.0
loop_
_geom_bond_atom_site_label_1
_geom_bond_atom_site_label_2
_geom_bond_distance
_geom_bond_site_symmetry_2
_ccdc_geom_bond_type
H0 O26 0.856 . S
H1 O29 0.854 . S
H2 C37 0.961 . S
H3 C38 0.930 . S
H4 C40 0.930 . S
H5 C41 0.930 . S
H6 C43 0.931 . S
H7 C44 0.930 . S
H8 C46 0.930 . S
H9 C47 0.929 . S
H10 C49 0.930 . S
H11 C50 0.931 . S
H12 C52 0.930 . S
H13 C53 0.929 . S
H14 C55 0.931 . S
H15 C56 0.930 . S
H16 C58 0.930 . S
H17 C59 0.932 . S
H18 C61 0.930 . S
H19 C62 0.929 . S
H20 C64 0.931 . S
H21 C65 0.930 . S
H22 C67 0.929 . S
H23 C68 0.931 . S
H24 C70 0.930 . S
H25 C71 0.929 1_455 S
O26 H0 0.856 . S
O26 C72 1.300 . S
O27 C72 1.209 . S
O28 C73 1.199 . S
O29 H1 0.854 . S
O29 C73 1.297 . S
C30 C31 1.404 . S
C30 C35 1.397 . S
C30 C36 1.492 . S
C31 C30 1.404 . S
C31 C32 1.396 . S
C31 C42 1.492 . S
C32 C31 1.396 . S
C32 C33 1.397 . S
C32 C48 1.509 . S
C33 C32 1.397 . S
C33 C34 1.412 . S
C33 C54 1.485 . S
C34 C33 1.412 . S
C34 C35 1.388 . S
C34 C60 1.490 . S
C35 C30 1.397 . S
C35 C34 1.388 . S
C35 C66 1.555 . S
C36 C30 1.492 . S
C36 C37 1.355 . S
C36 C41 1.390 1_455 S
C37 H2 0.961 . S
C37 C36 1.355 . S
C37 C38 1.352 1_455 S
C38 H3 0.930 . S
C38 C37 1.352 1_655 S
C38 C39 1.383 . S
C39 C38 1.383 . S
C39 C40 1.395 . S
C40 H4 0.930 . S
C40 C39 1.395 . S
C40 C41 1.362 . S
C41 H5 0.930 . S
C41 C36 1.390 1_655 S
C41 C40 1.362 . S
C42 C31 1.492 . S
C42 C43 1.377 . S
C42 C47 1.397 . S
C43 H6 0.931 . S
C43 C42 1.377 . S
C43 C44 1.376 . S
C44 H7 0.930 . S
C44 C43 1.376 . S
C44 C45 1.376 . S
C45 C44 1.376 . S
C45 C46 1.378 . S
C45 C72 1.486 . S
C46 H8 0.930 . S
C46 C45 1.378 . S
C46 C47 1.376 . S
C47 H9 0.929 . S
C47 C42 1.397 . S
C47 C46 1.376 . S
C48 C32 1.509 . S
C48 C49 1.391 . S
C48 C53 1.386 . S
C49 H10 0.930 . S
C49 C48 1.391 . S
C49 C50 1.375 . S
C50 H11 0.931 . S
C50 C49 1.375 . S
C50 C51 1.375 . S
C51 C50 1.375 . S
C51 C52 1.361 . S
C52 H12 0.930 . S
C52 C51 1.361 . S
C52 C53 1.399 . S
C53 H13 0.929 . S
C53 C48 1.386 . S
C53 C52 1.399 . S
C54 C33 1.485 . S
C54 C55 1.394 . S
C54 C59 1.360 . S
C55 H14 0.931 . S
C55 C54 1.394 . S
C55 C56 1.372 . S
C56 H15 0.930 . S
C56 C55 1.372 . S
C56 C57 1.397 . S
C57 C56 1.397 . S
C57 C58 1.390 . S
C57 C73 1.476 . S
C58 H16 0.930 . S
C58 C57 1.390 . S
C58 C59 1.366 . S
C59 H17 0.932 . S
C59 C54 1.360 . S
C59 C58 1.366 . S
C60 C34 1.490 . S
C60 C61 1.380 . S
C60 C65 1.386 . S
C61 H18 0.930 . S
C61 C60 1.380 . S
C61 C62 1.381 . S
C62 H19 0.929 . S
C62 C61 1.381 . S
C62 C63 1.371 . S
C63 C62 1.371 . S
C63 C64 1.380 . S
C64 H20 0.931 . S
C64 C63 1.380 . S
C64 C65 1.387 . S
C65 H21 0.930 . S
C65 C60 1.386 . S
C65 C64 1.387 . S
C66 C35 1.555 . S
C66 C67 1.368 1_455 S
C66 C71 1.333 1_455 S
C67 H22 0.929 . S
C67 C66 1.368 1_655 S
C67 C68 1.386 . S
C68 H23 0.931 . S
C68 C67 1.386 . S
C68 C69 1.363 . S
C69 C68 1.363 . S
C69 C70 1.385 . S
C70 H24 0.930 . S
C70 C69 1.385 . S
C70 C71 1.396 . S
C71 H25 0.929 1_655 S
C71 C66 1.333 1_655 S
C71 C70 1.396 . S
C72 O26 1.300 . S
C72 O27 1.209 . S
C72 C45 1.486 . S
C73 O28 1.199 . S
C73 O29 1.297 . S
C73 C57 1.476 . S
H74 O100 0.856 . S
H75 O103 0.854 . S
H76 C111 0.930 . S
H77 C112 0.930 . S
H78 C114 0.930 . S
H79 C115 0.930 . S
H80 C117 0.931 . S
H81 C118 0.930 . S
H82 C120 0.930 . S
H83 C121 0.929 . S
H84 C123 0.930 . S
H85 C124 0.931 . S
H86 C126 0.930 . S
H87 C127 0.929 . S
H88 C129 0.931 . S
H89 C130 0.930 . S
H90 C132 0.930 . S
H91 C133 0.932 . S
H92 C135 0.930 . S
H93 C136 0.929 . S
H94 C138 0.931 . S
H95 C139 0.930 . S
H96 C141 0.929 . S
H97 C142 0.931 . S
H98 C144 0.930 . S
H99 C145 0.929 . S
O100 H74 0.856 . S
O100 C146 1.300 . S
O101 C146 1.209 . S
O102 C147 1.199 . S
O103 H75 0.854 . S
O103 C147 1.297 . S
C104 C105 1.404 . S
C104 C109 1.397 . S
C104 C110 1.492 . S
C105 C104 1.404 . S
C105 C106 1.396 . S
C105 C116 1.492 . S
C106 C105 1.396 . S
C106 C107 1.397 . S
C106 C122 1.509 . S
C107 C106 1.397 . S
C107 C108 1.412 . S
C107 C128 1.485 . S
C108 C107 1.412 . S
C108 C109 1.388 . S
C108 C134 1.490 . S
C109 C104 1.397 . S
C109 C108 1.388 . S
C109 C140 1.519 . S
C110 C104 1.492 . S
C110 C111 1.363 . S
C110 C115 1.390 . S
C111 H76 0.930 . S
C111 C110 1.363 . S
C111 C112 1.372 . S
C112 H77 0.930 . S
C112 C111 1.372 . S
C112 C113 1.383 1_545 S
C113 C112 1.383 1_565 S
C113 C114 1.395 . S
C114 H78 0.930 . S
C114 C113 1.395 . S
C114 C115 1.362 1_565 S
C115 H79 0.930 . S
C115 C110 1.390 . S
C115 C114 1.362 1_545 S
C116 C105 1.492 . S
C116 C117 1.377 . S
C116 C121 1.397 . S
C117 H80 0.931 . S
C117 C116 1.377 . S
C117 C118 1.376 . S
C118 H81 0.930 . S
C118 C117 1.376 . S
C118 C119 1.376 . S
C119 C118 1.376 . S
C119 C120 1.378 . S
C119 C146 1.486 . S
C120 H82 0.930 . S
C120 C119 1.378 . S
C120 C121 1.376 . S
C121 H83 0.929 . S
C121 C116 1.397 . S
C121 C120 1.376 . S
C122 C106 1.509 . S
C122 C123 1.391 . S
C122 C127 1.386 . S
C123 H84 0.930 . S
C123 C122 1.391 . S
C123 C124 1.375 . S
C124 H85 0.931 . S
C124 C123 1.375 . S
C124 C125 1.375 . S
C125 C124 1.375 . S
C125 C126 1.361 . S
C126 H86 0.930 . S
C126 C125 1.361 . S
C126 C127 1.399 . S
C127 H87 0.929 . S
C127 C122 1.386 . S
C127 C126 1.399 . S
C128 C107 1.485 . S
C128 C129 1.394 . S
C128 C133 1.360 . S
C129 H88 0.931 . S
C129 C128 1.394 . S
C129 C130 1.372 . S
C130 H89 0.930 . S
C130 C129 1.372 . S
C130 C131 1.397 . S
C131 C130 1.397 . S
C131 C132 1.390 . S
C131 C147 1.476 . S
C132 H90 0.930 . S
C132 C131 1.390 . S
C132 C133 1.366 . S
C133 H91 0.932 . S
C133 C128 1.360 . S
C133 C132 1.366 . S
C134 C108 1.490 . S
C134 C135 1.380 . S
C134 C139 1.386 . S
C135 H92 0.930 . S
C135 C134 1.380 . S
C135 C136 1.381 . S
C136 H93 0.929 . S
C136 C135 1.381 . S
C136 C137 1.371 . S
C137 C136 1.371 . S
C137 C138 1.380 . S
C138 H94 0.931 . S
C138 C137 1.380 . S
C138 C139 1.387 . S
C139 H95 0.930 . S
C139 C134 1.386 . S
C139 C138 1.387 . S
C140 C109 1.519 . S
C140 C141 1.377 . S
C140 C145 1.361 . S
C141 H96 0.929 . S
C141 C140 1.377 . S
C141 C142 1.386 1_545 S
C142 H97 0.931 . S
C142 C141 1.386 1_565 S
C142 C143 1.363 . S
C143 C142 1.363 . S
C143 C144 1.385 . S
C144 H98 0.930 . S
C144 C143 1.385 . S
C144 C145 1.396 1_565 S
C145 H99 0.929 . S
C145 C140 1.361 . S
C145 C144 1.396 1_545 S
C146 O100 1.300 . S
C146 O101 1.209 . S
C146 C119 1.486 . S
C147 O102 1.199 . S
C147 O103 1.297 . S
C147 C131 1.476 . S
H148 O174 0.856 . S
H149 O177 0.854 . S
H150 C185 0.930 . S
H151 C186 0.930 . S
H152 C188 0.930 . S
H153 C189 0.930 . S
H154 C191 0.931 . S
H155 C192 0.930 . S
H156 C194 0.930 . S
H157 C195 0.929 . S
H158 C197 0.930 . S
H159 C198 0.931 . S
H160 C200 0.930 . S
H161 C201 0.929 . S
H162 C203 0.931 . S
H163 C204 0.930 . S
H164 C206 0.930 . S
H165 C207 0.932 . S
H166 C209 0.930 . S
H167 C210 0.929 . S
H168 C212 0.931 . S
H169 C213 0.930 . S
H170 C215 0.929 . S
H171 C216 0.931 . S
H172 C218 0.930 . S
H173 C219 0.929 . S
O174 H148 0.856 . S
O174 C220 1.300 . S
O175 C220 1.209 . S
O176 C221 1.199 . S
O177 H149 0.854 . S
O177 C221 1.297 . S
C178 C179 1.404 . S
C178 C183 1.397 . S
C178 C184 1.492 . S
C179 C178 1.404 . S
C179 C180 1.396 . S
C179 C190 1.492 . S
C180 C179 1.396 . S
C180 C181 1.397 . S
C180 C196 1.509 . S
C181 C180 1.397 . S
C181 C182 1.412 . S
C181 C202 1.485 . S
C182 C181 1.412 . S
C182 C183 1.388 . S
C182 C208 1.490 . S
C183 C178 1.397 . S
C183 C182 1.388 . S
C183 C214 1.519 . S
C184 C178 1.492 . S
C184 C185 1.363 . S
C184 C189 1.390 . S
C185 H150 0.930 . S
C185 C184 1.363 . S
C185 C186 1.372 . S
C186 H151 0.930 . S
C186 C185 1.372 . S
C186 C187 1.383 . S
C187 C186 1.383 . S
C187 C188 1.395 . S
C188 H152 0.930 . S
C188 C187 1.395 . S
C188 C189 1.362 . S
C189 H153 0.930 . S
C189 C184 1.390 . S
C189 C188 1.362 . S
C190 C179 1.492 . S
C190 C191 1.377 . S
C190 C195 1.397 . S
C191 H154 0.931 . S
C191 C190 1.377 . S
C191 C192 1.376 . S
C192 H155 0.930 . S
C192 C191 1.376 . S
C192 C193 1.376 . S
C193 C192 1.376 . S
C193 C194 1.378 . S
C193 C220 1.486 . S
C194 H156 0.930 . S
C194 C193 1.378 . S
C194 C195 1.376 . S
C195 H157 0.929 . S
C195 C190 1.397 . S
C195 C194 1.376 . S
C196 C180 1.509 . S
C196 C197 1.391 . S
C196 C201 1.386 . S
C197 H158 0.930 . S
C197 C196 1.391 . S
C197 C198 1.375 . S
C198 H159 0.931 . S
C198 C197 1.375 . S
C198 C199 1.375 . S
C199 C198 1.375 . S
C199 C200 1.361 . S
C200 H160 0.930 . S
C200 C199 1.361 . S
C200 C201 1.399 . S
C201 H161 0.929 . S
C201 C196 1.386 . S
C201 C200 1.399 . S
C202 C181 1.485 . S
C202 C203 1.394 . S
C202 C207 1.360 . S
C203 H162 0.931 . S
C203 C202 1.394 . S
C203 C204 1.372 . S
C204 H163 0.930 . S
C204 C203 1.372 . S
C204 C205 1.397 . S
C205 C204 1.397 . S
C205 C206 1.390 . S
C205 C221 1.476 . S
C206 H164 0.930 . S
C206 C205 1.390 . S
C206 C207 1.366 . S
C207 H165 0.932 . S
C207 C202 1.360 . S
C207 C206 1.366 . S
C208 C182 1.490 . S
C208 C209 1.380 . S
C208 C213 1.386 . S
C209 H166 0.930 . S
C209 C208 1.380 . S
C209 C210 1.381 . S
C210 H167 0.929 . S
C210 C209 1.381 . S
C210 C211 1.371 . S
C211 C210 1.371 . S
C211 C212 1.380 . S
C212 H168 0.931 . S
C212 C211 1.380 . S
C212 C213 1.387 . S
C213 H169 0.930 . S
C213 C208 1.386 . S
C213 C212 1.387 . S
C214 C183 1.519 . S
C214 C215 1.377 . S
C214 C219 1.361 . S
C215 H170 0.929 . S
C215 C214 1.377 . S
C215 C216 1.386 . S
C216 H171 0.931 . S
C216 C215 1.386 . S
C216 C217 1.363 . S
C217 C216 1.363 . S
C217 C218 1.385 . S
C218 H172 0.930 . S
C218 C217 1.385 . S
C218 C219 1.396 . S
C219 H173 0.929 . S
C219 C214 1.361 . S
C219 C218 1.396 . S
C220 O174 1.300 . S
C220 O175 1.209 . S
C220 C193 1.486 . S
C221 O176 1.199 . S
C221 O177 1.297 . S
C221 C205 1.476 . S
H222 O248 0.856 . S
H223 O251 0.854 . S
H224 C259 0.930 1_455 S
H225 C260 0.930 . S
H226 C262 0.930 . S
H227 C263 0.930 . S
H228 C265 0.931 . S
H229 C266 0.930 . S
H230 C268 0.930 . S
H231 C269 0.929 . S
H232 C271 0.930 . S
H233 C272 0.931 . S
H234 C274 0.930 . S
H235 C275 0.929 . S
H236 C277 0.931 . S
H237 C278 0.930 . S
H238 C280 0.930 . S
H239 C281 0.932 . S
H240 C283 0.930 . S
H241 C284 0.929 . S
H242 C286 0.931 . S
H243 C287 0.930 . S
H244 C289 0.929 . S
H245 C290 0.931 . S
H246 C292 0.930 . S
H247 C293 0.929 . S
O248 H222 0.856 . S
O248 C294 1.300 . S
O249 C294 1.209 . S
O250 C295 1.199 . S
O251 H223 0.854 . S
O251 C295 1.297 . S
C252 C253 1.404 . S
C252 C257 1.397 . S
C252 C258 1.492 1_455 S
C253 C252 1.404 . S
C253 C254 1.396 . S
C253 C264 1.492 . S
C254 C253 1.396 . S
C254 C255 1.397 . S
C254 C270 1.509 . S
C255 C254 1.397 . S
C255 C256 1.412 . S
C255 C276 1.485 . S
C256 C255 1.412 . S
C256 C257 1.388 . S
C256 C282 1.490 . S
C257 C252 1.397 . S
C257 C256 1.388 . S
C257 C288 1.519 1_455 S
C258 C252 1.492 1_655 S
C258 C259 1.363 . S
C258 C263 1.390 . S
C259 H224 0.930 1_655 S
C259 C258 1.363 . S
C259 C260 1.372 . S
C260 H225 0.930 . S
C260 C259 1.372 . S
C260 C261 1.383 . S
C261 C260 1.383 . S
C261 C262 1.395 . S
C262 H226 0.930 . S
C262 C261 1.395 . S
C262 C263 1.362 . S
C263 H227 0.930 . S
C263 C258 1.390 . S
C263 C262 1.362 . S
C264 C253 1.492 . S
C264 C265 1.377 . S
C264 C269 1.397 . S
C265 H228 0.931 . S
C265 C264 1.377 . S
C265 C266 1.376 . S
C266 H229 0.930 . S
C266 C265 1.376 . S
C266 C267 1.376 . S
C267 C266 1.376 . S
C267 C268 1.378 . S
C267 C294 1.486 . S
C268 H230 0.930 . S
C268 C267 1.378 . S
C268 C269 1.376 . S
C269 H231 0.929 . S
C269 C264 1.397 . S
C269 C268 1.376 . S
C270 C254 1.509 . S
C270 C271 1.391 . S
C270 C275 1.386 . S
C271 H232 0.930 . S
C271 C270 1.391 . S
C271 C272 1.375 . S
C272 H233 0.931 . S
C272 C271 1.375 . S
C272 C273 1.375 . S
C273 C272 1.375 . S
C273 C274 1.361 . S
C274 H234 0.930 . S
C274 C273 1.361 . S
C274 C275 1.399 . S
C275 H235 0.929 . S
C275 C270 1.386 . S
C275 C274 1.399 . S
C276 C255 1.485 . S
C276 C277 1.394 . S
C276 C281 1.360 . S
C277 H236 0.931 . S
C277 C276 1.394 . S
C277 C278 1.372 . S
C278 H237 0.930 . S
C278 C277 1.372 . S
C278 C279 1.397 . S
C279 C278 1.397 . S
C279 C280 1.390 . S
C279 C295 1.476 . S
C280 H238 0.930 . S
C280 C279 1.390 . S
C280 C281 1.366 . S
C281 H239 0.932 . S
C281 C276 1.360 . S
C281 C280 1.366 . S
C282 C256 1.490 . S
C282 C283 1.380 . S
C282 C287 1.386 . S
C283 H240 0.930 . S
C283 C282 1.380 . S
C283 C284 1.381 . S
C284 H241 0.929 . S
C284 C283 1.381 . S
C284 C285 1.371 . S
C285 C284 1.371 . S
C285 C286 1.380 . S
C286 H242 0.931 . S
C286 C285 1.380 . S
C286 C287 1.387 . S
C287 H243 0.930 . S
C287 C282 1.386 . S
C287 C286 1.387 . S
C288 C257 1.519 1_655 S
C288 C289 1.377 . S
C288 C293 1.361 . S
C289 H244 0.929 . S
C289 C288 1.377 . S
C289 C290 1.386 . S
C290 H245 0.931 . S
C290 C289 1.386 . S
C290 C291 1.363 . S
C291 C290 1.363 . S
C291 C292 1.385 . S
C292 H246 0.930 . S
C292 C291 1.385 . S
C292 C293 1.396 . S
C293 H247 0.929 . S
C293 C288 1.361 . S
C293 C292 1.396 . S
C294 O248 1.300 . S
C294 O249 1.209 . S
C294 C267 1.486 . S
C295 O250 1.199 . S
C295 O251 1.297 . S
C295 C279 1.476 . S
H296 O322 0.856 . S
H297 O325 0.854 . S
H298 C333 0.930 . S
H299 C334 0.930 . S
H300 C336 0.930 . S
H301 C337 0.930 . S
H302 C339 0.931 . S
H303 C340 0.930 . S
H304 C342 0.930 1_545 S
H305 C343 0.929 1_545 S
H306 C345 0.930 . S
H307 C346 0.931 . S
H308 C348 0.930 . S
H309 C349 0.929 . S
H310 C351 0.931 . S
H311 C352 0.930 . S
H312 C354 0.930 . S
H313 C355 0.957 . S
H314 C357 0.930 . S
H315 C358 0.929 . S
H316 C360 0.931 . S
H317 C361 0.930 . S
H318 C363 0.929 . S
H319 C364 0.931 . S
H320 C366 0.930 . S
H321 C367 0.929 . S
O322 H296 0.856 . S
O322 C368 1.300 . S
O323 C368 1.209 . S
O324 C369 1.199 . S
O325 H297 0.854 . S
O325 C369 1.297 . S
C326 C327 1.404 1_545 S
C326 C331 1.397 . S
C326 C332 1.492 . S
C327 C326 1.404 1_565 S
C327 C328 1.396 . S
C327 C338 1.492 . S
C328 C327 1.396 . S
C328 C329 1.397 . S
C328 C344 1.509 . S
C329 C328 1.397 . S
C329 C330 1.412 1_556 S
C329 C350 1.485 1_556 S
C330 C329 1.412 1_554 S
C330 C331 1.388 1_564 S
C330 C356 1.490 . S
C331 C326 1.397 . S
C331 C330 1.388 1_546 S
C331 C362 1.519 . S
C332 C326 1.492 . S
C332 C333 1.363 . S
C332 C337 1.390 . S
C333 H298 0.930 . S
C333 C332 1.363 . S
C333 C334 1.372 . S
C334 H299 0.930 . S
C334 C333 1.372 . S
C334 C335 1.383 . S
C335 C334 1.383 . S
C335 C336 1.395 . S
C336 H300 0.930 . S
C336 C335 1.395 . S
C336 C337 1.362 . S
C337 H301 0.930 . S
C337 C332 1.390 . S
C337 C336 1.362 . S
C338 C327 1.492 . S
C338 C339 1.377 . S
C338 C343 1.397 . S
C339 H302 0.931 . S
C339 C338 1.377 . S
C339 C340 1.376 . S
C340 H303 0.930 . S
C340 C339 1.376 . S
C340 C341 1.376 . S
C341 C340 1.376 . S
C341 C342 1.378 . S
C341 C368 1.486 . S
C342 H304 0.930 1_565 S
C342 C341 1.378 . S
C342 C343 1.376 . S
C343 H305 0.929 1_565 S
C343 C338 1.397 . S
C343 C342 1.376 . S
C344 C328 1.509 . S
C344 C345 1.391 . S
C344 C349 1.386 . S
C345 H306 0.930 . S
C345 C344 1.391 . S
C345 C346 1.375 . S
C346 H307 0.931 . S
C346 C345 1.375 . S
C346 C347 1.375 . S
C347 C346 1.375 . S
C347 C348 1.361 . S
C348 H308 0.930 . S
C348 C347 1.361 . S
C348 C349 1.399 . S
C349 H309 0.929 . S
C349 C344 1.386 . S
C349 C348 1.399 . S
C350 C329 1.485 1_554 S
C350 C351 1.394 . S
C350 C355 1.360 . S
C351 H310 0.931 . S
C351 C350 1.394 . S
C351 C352 1.372 . S
C352 H311 0.930 . S
C352 C351 1.372 . S
C352 C353 1.397 . S
C353 C352 1.397 . S
C353 C354 1.390 . S
C353 C369 1.476 . S
C354 H312 0.930 . S
C354 C353 1.390 . S
C354 C355 1.366 . S
C355 H313 0.957 . S
C355 C350 1.360 . S
C355 C354 1.366 . S
C356 C330 1.490 . S
C356 C357 1.380 1_565 S
C356 C361 1.386 . S
C357 H314 0.930 . S
C357 C356 1.380 1_545 S
C357 C358 1.381 . S
C358 H315 0.929 . S
C358 C357 1.381 . S
C358 C359 1.371 . S
C359 C358 1.371 . S
C359 C360 1.380 1_545 S
C360 H316 0.931 . S
C360 C359 1.380 1_565 S
C360 C361 1.387 . S
C361 H317 0.930 . S
C361 C356 1.386 . S
C361 C360 1.387 . S
C362 C331 1.519 . S
C362 C363 1.377 . S
C362 C367 1.361 1_556 S
C363 H318 0.929 . S
C363 C362 1.377 . S
C363 C364 1.386 1_556 S
C364 H319 0.931 . S
C364 C363 1.386 1_554 S
C364 C365 1.363 . S
C365 C364 1.363 . S
C365 C366 1.385 . S
C366 H320 0.930 . S
C366 C365 1.385 . S
C366 C367 1.396 . S
C367 H321 0.929 . S
C367 C362 1.361 1_554 S
C367 C366 1.396 . S
C368 O322 1.300 . S
C368 O323 1.209 . S
C368 C341 1.486 . S
C369 O324 1.199 . S
C369 O325 1.297 . S
C369 C353 1.476 . S
H370 O396 0.856 . S
H371 O399 0.854 . S
H372 C407 0.930 . S
H373 C408 0.930 . S
H374 C410 0.930 . S
H375 C411 0.930 . S
H376 C413 0.931 . S
H377 C414 0.930 . S
H378 C416 0.930 . S
H379 C417 0.929 . S
H380 C419 0.930 . S
H381 C420 0.931 . S
H382 C422 0.930 . S
H383 C423 0.929 . S
H384 C425 0.931 . S
H385 C426 0.930 . S
H386 C428 0.930 . S
H387 C429 0.932 . S
H388 C431 0.930 . S
H389 C432 0.929 . S
H390 C434 0.931 . S
H391 C435 0.930 . S
H392 C437 0.929 . S
H393 C438 0.931 . S
H394 C440 0.930 . S
H395 C441 0.929 . S
O396 H370 0.856 . S
O396 C442 1.300 . S
O397 C442 1.209 . S
O398 C443 1.199 . S
O399 H371 0.854 . S
O399 C443 1.297 . S
C400 C401 1.404 . S
C400 C405 1.397 . S
C400 C406 1.492 . S
C401 C400 1.404 . S
C401 C402 1.396 . S
C401 C412 1.492 . S
C402 C401 1.396 . S
C402 C403 1.397 . S
C402 C418 1.509 . S
C403 C402 1.397 . S
C403 C404 1.412 . S
C403 C424 1.485 . S
C404 C403 1.412 . S
C404 C405 1.388 . S
C404 C430 1.490 . S
C405 C400 1.397 . S
C405 C404 1.388 . S
C405 C436 1.519 . S
C406 C400 1.492 . S
C406 C407 1.363 . S
C406 C411 1.390 . S
C407 H372 0.930 . S
C407 C406 1.363 . S
C407 C408 1.372 . S
C408 H373 0.930 . S
C408 C407 1.372 . S
C408 C409 1.383 . S
C409 C408 1.383 . S
C409 C410 1.395 . S
C410 H374 0.930 . S
C410 C409 1.395 . S
C410 C411 1.362 . S
C411 H375 0.930 . S
C411 C406 1.390 . S
C411 C410 1.362 . S
C412 C401 1.492 . S
C412 C413 1.377 . S
C412 C417 1.397 . S
C413 H376 0.931 . S
C413 C412 1.377 . S
C413 C414 1.376 . S
C414 H377 0.930 . S
C414 C413 1.376 . S
C414 C415 1.376 . S
C415 C414 1.376 . S
C415 C416 1.378 . S
C415 C442 1.486 . S
C416 H378 0.930 . S
C416 C415 1.378 . S
C416 C417 1.376 . S
C417 H379 0.929 . S
C417 C412 1.397 . S
C417 C416 1.376 . S
C418 C402 1.509 . S
C418 C419 1.391 . S
C418 C423 1.386 . S
C419 H380 0.930 . S
C419 C418 1.391 . S
C419 C420 1.375 . S
C420 H381 0.931 . S
C420 C419 1.375 . S
C420 C421 1.375 . S
C421 C420 1.375 . S
C421 C422 1.361 . S
C422 H382 0.930 . S
C422 C421 1.361 . S
C422 C423 1.399 . S
C423 H383 0.929 . S
C423 C418 1.386 . S
C423 C422 1.399 . S
C424 C403 1.485 . S
C424 C425 1.394 . S
C424 C429 1.360 . S
C425 H384 0.931 . S
C425 C424 1.394 . S
C425 C426 1.372 . S
C426 H385 0.930 . S
C426 C425 1.372 . S
C426 C427 1.397 . S
C427 C426 1.397 . S
C427 C428 1.390 . S
C427 C443 1.476 . S
C428 H386 0.930 . S
C428 C427 1.390 . S
C428 C429 1.366 . S
C429 H387 0.932 . S
C429 C424 1.360 . S
C429 C428 1.366 . S
C430 C404 1.490 . S
C430 C431 1.380 . S
C430 C435 1.386 . S
C431 H388 0.930 . S
C431 C430 1.380 . S
C431 C432 1.381 . S
C432 H389 0.929 . S
C432 C431 1.381 . S
C432 C433 1.371 . S
C433 C432 1.371 . S
C433 C434 1.380 . S
C434 H390 0.931 . S
C434 C433 1.380 . S
C434 C435 1.387 . S
C435 H391 0.930 . S
C435 C430 1.386 . S
C435 C434 1.387 . S
C436 C405 1.519 . S
C436 C437 1.377 . S
C436 C441 1.361 . S
C437 H392 0.929 . S
C437 C436 1.377 . S
C437 C438 1.386 . S
C438 H393 0.931 . S
C438 C437 1.386 . S
C438 C439 1.363 . S
C439 C438 1.363 . S
C439 C440 1.385 . S
C440 H394 0.930 . S
C440 C439 1.385 . S
C440 C441 1.396 . S
C441 H395 0.929 . S
C441 C436 1.361 . S
C441 C440 1.396 . S
C442 O396 1.300 . S
C442 O397 1.209 . S
C442 C415 1.486 . S
C443 O398 1.199 . S
C443 O399 1.297 . S
C443 C427 1.476 . S
Co444 O445 2.216 . S
Co444 O446 2.091 . S
Co444 O448 2.004 . S
Co444 O454 2.021 . S
Co444 O456 2.137 . S
Co444 O457 2.244 . S
O445 Co444 2.216 . S
O445 C452 1.247 . S
O446 Co444 2.091 . S
O446 C452 1.261 . S
C447 O456 1.247 . S
C447 O457 1.272 . S
O448 Co444 2.004 . S
O448 C453 1.259 . S
Co449 O450 2.061 . S
Co449 O455 2.052 . S
Co449 O457 2.135 . S
O450 Co449 2.061 . S
O450 C453 1.235 . S
C451 O454 1.238 . S
C451 O455 1.241 . S
C452 O445 1.247 . S
C452 O446 1.261 . S
C453 O448 1.259 . S
C453 O450 1.235 . S
O454 Co444 2.021 . S
O454 C451 1.238 . S
O455 Co449 2.052 . S
O455 C451 1.241 . S
O456 Co444 2.137 . S
O456 C447 1.247 . S
O457 Co444 2.244 . S
O457 C447 1.272 . S
O457 Co449 2.135 . S
Co458 O459 2.216 . S
Co458 O460 2.091 . S
Co458 O462 2.004 . S
Co458 O468 2.021 . S
Co458 O470 2.137 . S
Co458 O471 2.244 . S
O459 Co458 2.216 . S
O459 C466 1.247 . S
O460 Co458 2.091 . S
O460 C466 1.261 . S
C461 O470 1.247 . S
C461 O471 1.272 . S
O462 Co458 2.004 . S
O462 C467 1.259 . S
Co463 O464 2.061 . S
Co463 O469 2.052 . S
Co463 O471 2.135 . S
O464 Co463 2.061 . S
O464 C467 1.235 . S
C465 O468 1.238 . S
C465 O469 1.241 . S
C466 O459 1.247 . S
C466 O460 1.261 . S
C467 O462 1.259 . S
C467 O464 1.235 . S
O468 Co458 2.021 . S
O468 C465 1.238 . S
O469 Co463 2.052 . S
O469 C465 1.241 . S
O470 Co458 2.137 . S
O470 C461 1.247 . S
O471 Co458 2.244 . S
O471 C461 1.272 . S
O471 Co463 2.135 . S
Co472 O473 2.216 . S
Co472 O474 2.091 . S
Co472 O476 2.004 . S
Co472 O482 2.021 . S
Co472 O484 2.137 . S
Co472 O485 2.244 . S
O473 Co472 2.216 . S
O473 C480 1.247 . S
O474 Co472 2.091 . S
O474 C480 1.261 . S
C475 O484 1.247 . S
C475 O485 1.272 . S
O476 Co472 2.004 . S
O476 C481 1.259 . S
Co477 O478 2.061 . S
Co477 O483 2.052 . S
Co477 O485 2.135 . S
O478 Co477 2.061 . S
O478 C481 1.235 . S
C479 O482 1.238 . S
C479 O483 1.241 . S
C480 O473 1.247 . S
C480 O474 1.261 . S
C481 O476 1.259 . S
C481 O478 1.235 . S
O482 Co472 2.021 . S
O482 C479 1.238 . S
O483 Co477 2.052 . S
O483 C479 1.241 . S
O484 Co472 2.137 . S
O484 C475 1.247 . S
O485 Co472 2.244 . S
O485 C475 1.272 . S
O485 Co477 2.135 . S
Co486 O487 2.216 . S
Co486 O488 2.091 . S
Co486 O490 2.004 . S
Co486 O496 2.021 . S
Co486 O498 2.137 . S
Co486 O499 2.244 . S
O487 Co486 2.216 . S
O487 C494 1.247 . S
O488 Co486 2.091 . S
O488 C494 1.261 . S
C489 O498 1.247 . S
C489 O499 1.272 . S
O490 Co486 2.004 . S
O490 C495 1.259 . S
Co491 O492 2.061 . S
Co491 O497 2.052 . S
Co491 O499 2.135 . S
O492 Co491 2.061 . S
O492 C495 1.235 . S
C493 O496 1.238 . S
C493 O497 1.241 . S
C494 O487 1.247 . S
C494 O488 1.261 . S
C495 O490 1.259 . S
C495 O492 1.235 . S
O496 Co486 2.021 . S
O496 C493 1.238 . S
O497 Co491 2.052 . S
O497 C493 1.241 . S
O498 Co486 2.137 . S
O498 C489 1.247 . S
O499 Co486 2.244 . S
O499 C489 1.272 . S
O499 Co491 2.135 . S
Co500 O501 2.216 . S
Co500 O502 2.091 . S
Co500 O504 2.004 . S
Co500 O510 2.021 . S
Co500 O512 2.137 . S
Co500 O513 2.244 . S
O501 Co500 2.216 . S
O501 C508 1.247 . S
O502 Co500 2.091 . S
O502 C508 1.261 . S
C503 O512 1.247 . S
C503 O513 1.272 . S
O504 Co500 2.004 . S
O504 C509 1.259 . S
Co505 O506 2.061 . S
Co505 O511 2.052 . S
Co505 O513 2.135 . S
O506 Co505 2.061 . S
O506 C509 1.235 . S
C507 O510 1.238 . S
C507 O511 1.241 . S
C508 O501 1.247 . S
C508 O502 1.261 . S
C509 O504 1.259 . S
C509 O506 1.235 . S
O510 Co500 2.021 . S
O510 C507 1.238 . S
O511 Co505 2.052 . S
O511 C507 1.241 . S
O512 Co500 2.137 . S
O512 C503 1.247 . S
O513 Co500 2.244 . S
O513 C503 1.272 . S
O513 Co505 2.135 . S
Co514 O515 2.216 . S
Co514 O516 2.091 . S
Co514 O518 2.004 . S
Co514 O524 2.021 . S
Co514 O526 2.137 . S
Co514 O527 2.244 . S
O515 Co514 2.216 . S
O515 C522 1.247 . S
O516 Co514 2.091 . S
O516 C522 1.261 . S
C517 O526 1.247 . S
C517 O527 1.272 . S
O518 Co514 2.004 . S
O518 C523 1.259 . S
Co519 O520 2.061 . S
Co519 O525 2.052 . S
Co519 O527 2.135 . S
O520 Co519 2.061 . S
O520 C523 1.235 . S
C521 O524 1.238 . S
C521 O525 1.241 . S
C522 O515 1.247 . S
C522 O516 1.261 . S
C523 O518 1.259 . S
C523 O520 1.235 . S
O524 Co514 2.021 . S
O524 C521 1.238 . S
O525 Co519 2.052 . S
O525 C521 1.241 . S
O526 Co514 2.137 . S
O526 C517 1.247 . S
O527 Co514 2.244 . S
O527 C517 1.272 . S
O527 Co519 2.135 . S
C528 C529 1.391 . S
C528 C530 1.394 . S
C528 H544 0.931 . S
C529 C528 1.391 . S
C529 C533 1.376 . S
C530 C528 1.394 . S
C530 C531 1.369 . S
C530 C534 1.531 . S
C531 C530 1.369 . S
C531 C532 1.410 . S
C531 C539 1.503 . S
C532 C531 1.410 . S
C532 C533 1.392 . S
C532 C535 1.511 . S
C533 C529 1.376 . S
C533 C532 1.392 . S
C533 H545 0.929 . S
C534 C530 1.531 . S
C534 H546 0.960 . S
C534 H547 0.962 . S
C534 H548 0.960 . S
C535 C532 1.511 . S
C535 H549 0.961 . S
C535 H550 0.961 . S
C535 H551 0.961 . S
C536 C537 1.370 . S
C536 C538 1.363 . S
C536 H552 0.931 . S
C537 C536 1.370 . S
C537 C541 1.408 . S
C538 C536 1.363 . S
C538 C539 1.370 . S
C538 C542 1.524 . S
C539 C531 1.503 . S
C539 C538 1.370 . S
C539 C540 1.403 . S
C540 C539 1.403 . S
C540 C541 1.404 . S
C540 C543 1.539 . S
C541 C537 1.408 . S
C541 C540 1.404 . S
C541 H553 0.930 . S
C542 C538 1.524 . S
C542 H554 0.956 . S
C542 H555 0.961 . S
C542 H556 0.961 . S
C543 C540 1.539 . S
C543 H557 0.958 . S
C543 H558 0.961 . S
C543 H559 0.960 . S
H544 C528 0.931 . S
H545 C533 0.929 . S
H546 C534 0.960 . S
H547 C534 0.962 . S
H548 C534 0.960 . S
H549 C535 0.961 . S
H550 C535 0.961 . S
H551 C535 0.961 . S
H552 C536 0.931 . S
H553 C541 0.930 . S
H554 C542 0.956 . S
H555 C542 0.961 . S
H556 C542 0.961 . S
H557 C543 0.958 . S
H558 C543 0.961 . S
H559 C543 0.960 . S
C560 C561 1.391 . S
C560 C562 1.394 . S
C560 H576 0.931 . S
C561 C560 1.391 . S
C561 C565 1.376 . S
C562 C560 1.394 . S
C562 C563 1.369 . S
C562 C566 1.531 . S
C563 C562 1.369 . S
C563 C564 1.410 . S
C563 C571 1.503 . S
C564 C563 1.410 . S
C564 C565 1.392 . S
C564 C567 1.511 . S
C565 C561 1.376 . S
C565 C564 1.392 . S
C565 H577 0.929 . S
C566 C562 1.531 . S
C566 H578 0.960 . S
C566 H579 0.962 . S
C566 H580 0.960 . S
C567 C564 1.511 . S
C567 H581 0.961 . S
C567 H582 0.961 . S
C567 H583 0.961 . S
C568 C569 1.370 . S
C568 C570 1.363 . S
C568 H584 0.931 . S
C569 C568 1.370 . S
C569 C573 1.408 . S
C570 C568 1.363 . S
C570 C571 1.370 . S
C570 C574 1.524 . S
C571 C563 1.503 . S
C571 C570 1.370 . S
C571 C572 1.403 . S
C572 C571 1.403 . S
C572 C573 1.404 . S
C572 C575 1.539 . S
C573 C569 1.408 . S
C573 C572 1.404 . S
C573 H585 0.930 . S
C574 C570 1.524 . S
C574 H586 0.956 . S
C574 H587 0.961 . S
C574 H588 0.961 . S
C575 C572 1.539 . S
C575 H589 0.958 . S
C575 H590 0.961 . S
C575 H591 0.960 . S
H576 C560 0.931 . S
H577 C565 0.929 . S
H578 C566 0.960 . S
H579 C566 0.962 . S
H580 C566 0.960 . S
H581 C567 0.961 . S
H582 C567 0.961 . S
H583 C567 0.961 . S
H584 C568 0.931 . S
H585 C573 0.930 . S
H586 C574 0.956 . S
H587 C574 0.961 . S
H588 C574 0.961 . S
H589 C575 0.958 . S
H590 C575 0.961 . S
H591 C575 0.960 . S
C592 C593 1.391 . S
C592 C594 1.394 . S
C592 H608 0.931 . S
C593 C592 1.391 . S
C593 C597 1.376 . S
C594 C592 1.394 . S
C594 C595 1.369 . S
C594 C598 1.531 . S
C595 C594 1.369 . S
C595 C596 1.410 . S
C595 C603 1.503 . S
C596 C595 1.410 . S
C596 C597 1.392 . S
C596 C599 1.511 . S
C597 C593 1.376 . S
C597 C596 1.392 . S
C597 H609 0.929 . S
C598 C594 1.531 . S
C598 H610 0.960 . S
C598 H611 0.962 . S
C598 H612 0.960 . S
C599 C596 1.511 . S
C599 H613 0.961 . S
C599 H614 0.961 . S
C599 H615 0.961 . S
C600 C601 1.370 . S
C600 C602 1.363 . S
C600 H616 0.931 . S
C601 C600 1.370 . S
C601 C605 1.408 . S
C602 C600 1.363 . S
C602 C603 1.370 . S
C602 C606 1.524 . S
C603 C595 1.503 . S
C603 C602 1.370 . S
C603 C604 1.403 . S
C604 C603 1.403 . S
C604 C605 1.404 . S
C604 C607 1.539 . S
C605 C601 1.408 . S
C605 C604 1.404 . S
C605 H617 0.930 . S
C606 C602 1.524 . S
C606 H618 0.956 . S
C606 H619 0.961 . S
C606 H620 0.961 . S
C607 C604 1.539 . S
C607 H621 0.958 . S
C607 H622 0.961 . S
C607 H623 0.960 . S
H608 C592 0.931 . S
H609 C597 0.929 . S
H610 C598 0.960 . S
H611 C598 0.962 . S
H612 C598 0.960 . S
H613 C599 0.961 . S
H614 C599 0.961 . S
H615 C599 0.961 . S
H616 C600 0.931 . S
H617 C605 0.930 . S
H618 C606 0.956 . S
H619 C606 0.961 . S
H620 C606 0.961 . S
H621 C607 0.958 . S
H622 C607 0.961 . S
H623 C607 0.960 . S
C624 C625 1.391 . S
C624 C626 1.394 . S
C624 H640 0.931 . S
C625 C624 1.391 . S
C625 C629 1.376 . S
C626 C624 1.394 . S
C626 C627 1.369 . S
C626 C630 1.531 . S
C627 C626 1.369 . S
C627 C628 1.410 . S
C627 C635 1.503 . S
C628 C627 1.410 . S
C628 C629 1.392 . S
C628 C631 1.511 . S
C629 C625 1.376 . S
C629 C628 1.392 . S
C629 H641 0.929 . S
C630 C626 1.531 . S
C630 H642 0.960 . S
C630 H643 0.962 . S
C630 H644 0.960 . S
C631 C628 1.511 . S
C631 H645 0.961 . S
C631 H646 0.961 . S
C631 H647 0.961 . S
C632 C633 1.370 . S
C632 C634 1.363 . S
C632 H648 0.931 . S
C633 C632 1.370 . S
C633 C637 1.408 . S
C634 C632 1.363 . S
C634 C635 1.370 . S
C634 C638 1.524 . S
C635 C627 1.503 . S
C635 C634 1.370 . S
C635 C636 1.403 . S
C636 C635 1.403 . S
C636 C637 1.404 . S
C636 C639 1.539 . S
C637 C633 1.408 . S
C637 C636 1.404 . S
C637 H649 0.930 . S
C638 C634 1.524 . S
C638 H650 0.956 . S
C638 H651 0.961 . S
C638 H652 0.961 . S
C639 C636 1.539 . S
C639 H653 0.958 . S
C639 H654 0.961 . S
C639 H655 0.960 . S
H640 C624 0.931 . S
H641 C629 0.929 . S
H642 C630 0.960 . S
H643 C630 0.962 . S
H644 C630 0.960 . S
H645 C631 0.961 . S
H646 C631 0.961 . S
H647 C631 0.961 . S
H648 C632 0.931 . S
H649 C637 0.930 . S
H650 C638 0.956 . S
H651 C638 0.961 . S
H652 C638 0.961 . S
H653 C639 0.958 . S
H654 C639 0.961 . S
H655 C639 0.960 . S
C656 C657 1.391 . S
C656 C658 1.394 . S
C656 H672 0.931 . S
C657 C656 1.391 . S
C657 C661 1.376 . S
C658 C656 1.394 . S
C658 C659 1.369 . S
C658 C662 1.531 . S
C659 C658 1.369 . S
C659 C660 1.410 . S
C659 C667 1.503 . S
C660 C659 1.410 . S
C660 C661 1.392 . S
C660 C663 1.511 . S
C661 C657 1.376 . S
C661 C660 1.392 . S
C661 H673 0.929 . S
C662 C658 1.531 . S
C662 H674 0.960 . S
C662 H675 0.962 . S
C662 H676 0.960 . S
C663 C660 1.511 . S
C663 H677 0.961 . S
C663 H678 0.961 . S
C663 H679 0.961 . S
C664 C665 1.370 . S
C664 C666 1.363 . S
C664 H680 0.931 . S
C665 C664 1.370 . S
C665 C669 1.408 . S
C666 C664 1.363 . S
C666 C667 1.370 . S
C666 C670 1.524 . S
C667 C659 1.503 . S
C667 C666 1.370 . S
C667 C668 1.403 . S
C668 C667 1.403 . S
C668 C669 1.404 . S
C668 C671 1.539 . S
C669 C665 1.408 . S
C669 C668 1.404 . S
C669 H681 0.930 . S
C670 C666 1.524 . S
C670 H682 0.956 . S
C670 H683 0.961 . S
C670 H684 0.961 . S
C671 C668 1.539 . S
C671 H685 0.958 . S
C671 H686 0.961 . S
C671 H687 0.960 . S
H672 C656 0.931 . S
H673 C661 0.929 . S
H674 C662 0.960 . S
H675 C662 0.962 . S
H676 C662 0.960 . S
H677 C663 0.961 . S
H678 C663 0.961 . S
H679 C663 0.961 . S
H680 C664 0.931 . S
H681 C669 0.930 . S
H682 C670 0.956 . S
H683 C670 0.961 . S
H684 C670 0.961 . S
H685 C671 0.958 . S
H686 C671 0.961 . S
H687 C671 0.960 . S
C688 C689 1.391 . S
C688 C690 1.394 . S
C688 H704 0.931 . S
C689 C688 1.391 . S
C689 C693 1.376 . S
C690 C688 1.394 . S
C690 C691 1.369 . S
C690 C694 1.531 . S
C691 C690 1.369 . S
C691 C692 1.410 . S
C691 C699 1.503 . S
C692 C691 1.410 . S
C692 C693 1.392 . S
C692 C695 1.511 . S
C693 C689 1.376 . S
C693 C692 1.392 . S
C693 H705 0.929 . S
C694 C690 1.531 . S
C694 H706 0.960 . S
C694 H707 0.962 . S
C694 H708 0.960 . S
C695 C692 1.511 . S
C695 H709 0.961 . S
C695 H710 0.961 . S
C695 H711 0.961 . S
C696 C697 1.370 . S
C696 C698 1.363 . S
C696 H712 0.931 . S
C697 C696 1.370 . S
C697 C701 1.408 . S
C698 C696 1.363 . S
C698 C699 1.370 . S
C698 C702 1.524 . S
C699 C691 1.503 . S
C699 C698 1.370 . S
C699 C700 1.403 . S
C700 C699 1.403 . S
C700 C701 1.404 . S
C700 C703 1.539 . S
C701 C697 1.408 . S
C701 C700 1.404 . S
C701 H713 0.930 . S
C702 C698 1.524 . S
C702 H714 0.956 . S
C702 H715 0.961 . S
C702 H716 0.961 . S
C703 C700 1.539 . S
C703 H717 0.958 . S
C703 H718 0.961 . S
C703 H719 0.960 . S
H704 C688 0.931 . S
H705 C693 0.929 . S
H706 C694 0.960 . S
H707 C694 0.962 . S
H708 C694 0.960 . S
H709 C695 0.961 . S
H710 C695 0.961 . S
H711 C695 0.961 . S
H712 C696 0.931 . S
H713 C701 0.930 . S
H714 C702 0.956 . S
H715 C702 0.961 . S
H716 C702 0.961 . S
H717 C703 0.958 . S
H718 C703 0.961 . S
H719 C703 0.960 . S
C720 C721 1.391 . S
C720 C722 1.394 . S
C720 H736 0.931 . S
C721 C720 1.391 . S
C721 C725 1.376 . S
C722 C720 1.394 . S
C722 C723 1.369 . S
C722 C726 1.531 . S
C723 C722 1.369 . S
C723 C724 1.410 . S
C723 C731 1.503 . S
C724 C723 1.410 . S
C724 C725 1.392 . S
C724 C727 1.511 . S
C725 C721 1.376 . S
C725 C724 1.392 . S
C725 H737 0.929 . S
C726 C722 1.531 . S
C726 H738 0.960 . S
C726 H739 0.962 . S
C726 H740 0.960 . S
C727 C724 1.511 . S
C727 H741 0.961 . S
C727 H742 0.961 . S
C727 H743 0.961 . S
C728 C729 1.370 . S
C728 C730 1.363 . S
C728 H744 0.931 . S
C729 C728 1.370 . S
C729 C733 1.408 . S
C730 C728 1.363 . S
C730 C731 1.370 . S
C730 C734 1.524 . S
C731 C723 1.503 . S
C731 C730 1.370 . S
C731 C732 1.403 . S
C732 C731 1.403 . S
C732 C733 1.404 . S
C732 C735 1.539 . S
C733 C729 1.408 . S
C733 C732 1.404 . S
C733 H745 0.930 . S
C734 C730 1.524 . S
C734 H746 0.956 . S
C734 H747 0.961 . S
C734 H748 0.961 . S
C735 C732 1.539 . S
C735 H749 0.958 . S
C735 H750 0.961 . S
C735 H751 0.960 . S
H736 C720 0.931 . S
H737 C725 0.929 . S
H738 C726 0.960 . S
H739 C726 0.962 . S
H740 C726 0.960 . S
H741 C727 0.961 . S
H742 C727 0.961 . S
H743 C727 0.961 . S
H744 C728 0.931 . S
H745 C733 0.930 . S
H746 C734 0.956 . S
H747 C734 0.961 . S
H748 C734 0.961 . S
H749 C735 0.958 . S
H750 C735 0.961 . S
H751 C735 0.960 . S
C752 C753 1.391 . S
C752 C754 1.394 . S
C752 H768 0.931 . S
C753 C752 1.391 . S
C753 C757 1.376 . S
C754 C752 1.394 . S
C754 C755 1.369 . S
C754 C758 1.531 . S
C755 C754 1.369 . S
C755 C756 1.410 . S
C755 C763 1.503 . S
C756 C755 1.410 . S
C756 C757 1.392 . S
C756 C759 1.511 . S
C757 C753 1.376 . S
C757 C756 1.392 . S
C757 H769 0.929 . S
C758 C754 1.531 . S
C758 H770 0.960 . S
C758 H771 0.962 . S
C758 H772 0.960 . S
C759 C756 1.511 . S
C759 H773 0.961 . S
C759 H774 0.961 . S
C759 H775 0.961 . S
C760 C761 1.370 . S
C760 C762 1.363 . S
C760 H776 0.931 . S
C761 C760 1.370 . S
C761 C765 1.408 . S
C762 C760 1.363 . S
C762 C763 1.370 . S
C762 C766 1.524 . S
C763 C755 1.503 . S
C763 C762 1.370 . S
C763 C764 1.403 . S
C764 C763 1.403 . S
C764 C765 1.404 . S
C764 C767 1.539 . S
C765 C761 1.408 . S
C765 C764 1.404 . S
C765 H777 0.930 . S
C766 C762 1.524 . S
C766 H778 0.956 . S
C766 H779 0.961 . S
C766 H780 0.961 . S
C767 C764 1.539 . S
C767 H781 0.958 . S
C767 H782 0.961 . S
C767 H783 0.960 . S
H768 C752 0.931 . S
H769 C757 0.929 . S
H770 C758 0.960 . S
H771 C758 0.962 . S
H772 C758 0.960 . S
H773 C759 0.961 . S
H774 C759 0.961 . S
H775 C759 0.961 . S
H776 C760 0.931 . S
H777 C765 0.930 . S
H778 C766 0.956 . S
H779 C766 0.961 . S
H780 C766 0.961 . S
H781 C767 0.958 . S
H782 C767 0.961 . S
H783 C767 0.960 . S
C784 C785 1.391 . S
C784 C786 1.394 . S
C784 H800 0.931 . S
C785 C784 1.391 . S
C785 C789 1.376 . S
C786 C784 1.394 . S
C786 C787 1.369 . S
C786 C790 1.531 . S
C787 C786 1.369 . S
C787 C788 1.410 . S
C787 C795 1.503 . S
C788 C787 1.410 . S
C788 C789 1.392 . S
C788 C791 1.511 . S
C789 C785 1.376 . S
C789 C788 1.392 . S
C789 H801 0.929 . S
C790 C786 1.531 . S
C790 H802 0.960 . S
C790 H803 0.962 . S
C790 H804 0.960 . S
C791 C788 1.511 . S
C791 H805 0.961 . S
C791 H806 0.961 . S
C791 H807 0.961 . S
C792 C793 1.370 . S
C792 C794 1.363 . S
C792 H808 0.931 . S
C793 C792 1.370 . S
C793 C797 1.408 . S
C794 C792 1.363 . S
C794 C795 1.370 . S
C794 C798 1.524 . S
C795 C787 1.503 . S
C795 C794 1.370 . S
C795 C796 1.403 . S
C796 C795 1.403 . S
C796 C797 1.404 . S
C796 C799 1.539 . S
C797 C793 1.408 . S
C797 C796 1.404 . S
C797 H809 0.930 . S
C798 C794 1.524 . S
C798 H810 0.956 . S
C798 H811 0.961 . S
C798 H812 0.961 . S
C799 C796 1.539 . S
C799 H813 0.958 . S
C799 H814 0.961 . S
C799 H815 0.960 . S
H800 C784 0.931 . S
H801 C789 0.929 . S
H802 C790 0.960 . S
H803 C790 0.962 . S
H804 C790 0.960 . S
H805 C791 0.961 . S
H806 C791 0.961 . S
H807 C791 0.961 . S
H808 C792 0.931 . S
H809 C797 0.930 . S
H810 C798 0.956 . S
H811 C798 0.961 . S
H812 C798 0.961 . S
H813 C799 0.958 . S
H814 C799 0.961 . S
H815 C799 0.960 . S
C816 C817 1.391 . S
C816 C818 1.394 . S
C816 H832 0.931 . S
C817 C816 1.391 . S
C817 C821 1.376 . S
C818 C816 1.394 . S
C818 C819 1.369 . S
C818 C822 1.531 . S
C819 C818 1.369 . S
C819 C820 1.410 . S
C819 C827 1.503 . S
C820 C819 1.410 . S
C820 C821 1.392 . S
C820 C823 1.511 . S
C821 C817 1.376 . S
C821 C820 1.392 . S
C821 H833 0.929 . S
C822 C818 1.531 . S
C822 H834 0.960 . S
C822 H835 0.962 . S
C822 H836 0.960 . S
C823 C820 1.511 . S
C823 H837 0.961 . S
C823 H838 0.961 . S
C823 H839 0.961 . S
C824 C825 1.370 . S
C824 C826 1.363 . S
C824 H840 0.931 . S
C825 C824 1.370 . S
C825 C829 1.408 . S
C826 C824 1.363 . S
C826 C827 1.370 . S
C826 C830 1.524 . S
C827 C819 1.503 . S
C827 C826 1.370 . S
C827 C828 1.403 . S
C828 C827 1.403 . S
C828 C829 1.404 . S
C828 C831 1.539 . S
C829 C825 1.408 . S
C829 C828 1.404 . S
C829 H841 0.930 . S
C830 C826 1.524 . S
C830 H842 0.956 . S
C830 H843 0.961 1_554 S
C830 H844 0.961 1_554 S
C831 C828 1.539 . S
C831 H845 0.958 . S
C831 H846 0.961 . S
C831 H847 0.960 . S
H832 C816 0.931 . S
H833 C821 0.929 . S
H834 C822 0.960 . S
H835 C822 0.962 . S
H836 C822 0.960 . S
H837 C823 0.961 . S
H838 C823 0.961 . S
H839 C823 0.961 . S
H840 C824 0.931 . S
H841 C829 0.930 . S
H842 C830 0.956 . S
H843 C830 0.961 1_556 S
H844 C830 0.961 1_556 S
H845 C831 0.958 . S
H846 C831 0.961 . S
H847 C831 0.960 . S
C848 C849 1.391 . S
C848 C850 1.394 . S
C848 H864 0.931 . S
C849 C848 1.391 . S
C849 C853 1.376 . S
C850 C848 1.394 . S
C850 C851 1.369 . S
C850 C854 1.531 . S
C851 C850 1.369 . S
C851 C852 1.410 . S
C851 C859 1.503 . S
C852 C851 1.410 . S
C852 C853 1.392 . S
C852 C855 1.511 . S
C853 C849 1.376 . S
C853 C852 1.392 . S
C853 H865 0.929 . S
C854 C850 1.531 . S
C854 H866 0.960 . S
C854 H867 0.962 . S
C854 H868 0.960 . S
C855 C852 1.511 . S
C855 H869 0.961 . S
C855 H870 0.961 . S
C855 H871 0.961 . S
C856 C857 1.370 . S
C856 C858 1.363 . S
C856 H872 0.931 . S
C857 C856 1.370 . S
C857 C861 1.408 . S
C858 C856 1.363 . S
C858 C859 1.370 . S
C858 C862 1.524 . S
C859 C851 1.503 . S
C859 C858 1.370 . S
C859 C860 1.403 . S
C860 C859 1.403 . S
C860 C861 1.404 . S
C860 C863 1.539 . S
C861 C857 1.408 . S
C861 C860 1.404 . S
C861 H873 0.930 . S
C862 C858 1.524 . S
C862 H874 0.956 . S
C862 H875 0.961 . S
C862 H876 0.961 . S
C863 C860 1.539 . S
C863 H877 0.958 . S
C863 H878 0.961 . S
C863 H879 0.960 . S
H864 C848 0.931 . S
H865 C853 0.929 . S
H866 C854 0.960 . S
H867 C854 0.962 . S
H868 C854 0.960 . S
H869 C855 0.961 . S
H870 C855 0.961 . S
H871 C855 0.961 . S
H872 C856 0.931 . S
H873 C861 0.930 . S
H874 C862 0.956 . S
H875 C862 0.961 . S
H876 C862 0.961 . S
H877 C863 0.958 . S
H878 C863 0.961 . S
H879 C863 0.960 . S
C880 C881 1.391 . S
C880 C882 1.394 . S
C880 H896 0.931 . S
C881 C880 1.391 . S
C881 C885 1.376 . S
C882 C880 1.394 . S
C882 C883 1.369 . S
C882 C886 1.531 . S
C883 C882 1.369 . S
C883 C884 1.410 . S
C883 C891 1.503 . S
C884 C883 1.410 . S
C884 C885 1.392 . S
C884 C887 1.511 . S
C885 C881 1.376 . S
C885 C884 1.392 . S
C885 H897 0.929 . S
C886 C882 1.531 . S
C886 H898 0.960 . S
C886 H899 0.962 . S
C886 H900 0.960 . S
C887 C884 1.511 . S
C887 H901 0.961 . S
C887 H902 0.961 . S
C887 H903 0.961 . S
C888 C889 1.370 . S
C888 C890 1.363 . S
C888 H904 0.931 . S
C889 C888 1.370 . S
C889 C893 1.408 . S
C890 C888 1.363 . S
C890 C891 1.370 . S
C890 C894 1.524 . S
C891 C883 1.503 . S
C891 C890 1.370 . S
C891 C892 1.403 . S
C892 C891 1.403 . S
C892 C893 1.404 . S
C892 C895 1.539 . S
C893 C889 1.408 . S
C893 C892 1.404 . S
C893 H905 0.930 . S
C894 C890 1.524 . S
C894 H906 0.956 . S
C894 H907 0.961 . S
C894 H908 0.961 . S
C895 C892 1.539 . S
C895 H909 0.958 . S
C895 H910 0.961 . S
C895 H911 0.960 . S
H896 C880 0.931 . S
H897 C885 0.929 . S
H898 C886 0.960 . S
H899 C886 0.962 . S
H900 C886 0.960 . S
H901 C887 0.961 . S
H902 C887 0.961 . S
H903 C887 0.961 . S
H904 C888 0.931 . S
H905 C893 0.930 . S
H906 C894 0.956 . S
H907 C894 0.961 . S
H908 C894 0.961 . S
H909 C895 0.958 . S
H910 C895 0.961 . S
H911 C895 0.960 . S
C912 C913 1.391 . S
C912 C914 1.394 . S
C912 H928 0.931 . S
C913 C912 1.391 . S
C913 C917 1.376 . S
C914 C912 1.394 . S
C914 C915 1.369 . S
C914 C918 1.531 . S
C915 C914 1.369 . S
C915 C916 1.410 . S
C915 C923 1.503 . S
C916 C915 1.410 . S
C916 C917 1.392 . S
C916 C919 1.511 . S
C917 C913 1.376 . S
C917 C916 1.392 . S
C917 H929 0.929 . S
C918 C914 1.531 . S
C918 H930 0.960 . S
C918 H931 0.962 . S
C918 H932 0.960 . S
C919 C916 1.511 . S
C919 H933 0.961 . S
C919 H934 0.961 . S
C919 H935 0.961 . S
C920 C921 1.370 . S
C920 C922 1.363 . S
C920 H936 0.931 . S
C921 C920 1.370 . S
C921 C925 1.408 . S
C922 C920 1.363 . S
C922 C923 1.370 . S
C922 C926 1.524 . S
C923 C915 1.503 . S
C923 C922 1.370 . S
C923 C924 1.403 . S
C924 C923 1.403 . S
C924 C925 1.404 . S
C924 C927 1.539 . S
C925 C921 1.408 . S
C925 C924 1.404 . S
C925 H937 0.930 . S
C926 C922 1.524 . S
C926 H938 0.956 . S
C926 H939 0.961 . S
C926 H940 0.961 . S
C927 C924 1.539 . S
C927 H941 0.958 . S
C927 H942 0.961 . S
C927 H943 0.960 . S
H928 C912 0.931 . S
H929 C917 0.929 . S
H930 C918 0.960 . S
H931 C918 0.962 . S
H932 C918 0.960 . S
H933 C919 0.961 . S
H934 C919 0.961 . S
H935 C919 0.961 . S
H936 C920 0.931 . S
H937 C925 0.930 . S
H938 C926 0.956 . S
H939 C926 0.961 . S
H940 C926 0.961 . S
H941 C927 0.958 . S
H942 C927 0.961 . S
H943 C927 0.960 . S
C944 C945 1.391 . S
C944 C946 1.394 . S
C944 H960 0.931 . S
C945 C944 1.391 . S
C945 C949 1.376 . S
C946 C944 1.394 . S
C946 C947 1.369 . S
C946 C950 1.531 . S
C947 C946 1.369 . S
C947 C948 1.410 . S
C947 C955 1.503 . S
C948 C947 1.410 . S
C948 C949 1.392 . S
C948 C951 1.511 . S
C949 C945 1.376 . S
C949 C948 1.392 . S
C949 H961 0.929 . S
C950 C946 1.531 . S
C950 H962 0.960 . S
C950 H963 0.962 . S
C950 H964 0.960 . S
C951 C948 1.511 . S
C951 H965 0.961 . S
C951 H966 0.961 . S
C951 H967 0.961 . S
C952 C953 1.370 . S
C952 C954 1.363 . S
C952 H968 0.931 . S
C953 C952 1.370 . S
C953 C957 1.408 . S
C954 C952 1.363 . S
C954 C955 1.370 . S
C954 C958 1.524 . S
C955 C947 1.503 . S
C955 C954 1.370 . S
C955 C956 1.403 . S
C956 C955 1.403 . S
C956 C957 1.404 . S
C956 C959 1.539 . S
C957 C953 1.408 . S
C957 C956 1.404 . S
C957 H969 0.930 . S
C958 C954 1.524 . S
C958 H970 0.956 . S
C958 H971 0.961 . S
C958 H972 0.961 . S
C959 C956 1.539 . S
C959 H973 0.958 . S
C959 H974 0.961 . S
C959 H975 0.960 . S
H960 C944 0.931 . S
H961 C949 0.929 . S
H962 C950 0.960 . S
H963 C950 0.962 . S
H964 C950 0.960 . S
H965 C951 0.961 . S
H966 C951 0.961 . S
H967 C951 0.961 . S
H968 C952 0.931 . S
H969 C957 0.930 . S
H970 C958 0.956 . S
H971 C958 0.961 . S
H972 C958 0.961 . S
H973 C959 0.958 . S
H974 C959 0.961 . S
H975 C959 0.960 . S
C976 C977 1.391 . S
C976 C978 1.394 . S
C976 H992 0.931 . S
C977 C976 1.391 . S
C977 C981 1.376 . S
C978 C976 1.394 . S
C978 C979 1.369 . S
C978 C982 1.531 . S
C979 C978 1.369 . S
C979 C980 1.410 . S
C979 C987 1.503 . S
C980 C979 1.410 . S
C980 C981 1.392 . S
C980 C983 1.511 . S
C981 C977 1.376 . S
C981 C980 1.392 . S
C981 H993 0.929 . S
C982 C978 1.531 . S
C982 H994 0.960 . S
C982 H995 0.962 . S
C982 H996 0.960 . S
C983 C980 1.511 . S
C983 H997 0.961 . S
C983 H998 0.961 . S
C983 H999 0.961 . S
C984 C985 1.370 . S
C984 C986 1.363 . S
C984 H1000 0.931 . S
C985 C984 1.370 . S
C985 C989 1.408 . S
C986 C984 1.363 . S
C986 C987 1.370 . S
C986 C990 1.524 . S
C987 C979 1.503 . S
C987 C986 1.370 . S
C987 C988 1.403 . S
C988 C987 1.403 . S
C988 C989 1.404 . S
C988 C991 1.539 . S
C989 C985 1.408 . S
C989 C988 1.404 . S
C989 H1001 0.930 . S
C990 C986 1.524 . S
C990 H1002 0.956 . S
C990 H1003 0.961 . S
C990 H1004 0.961 . S
C991 C988 1.539 . S
C991 H1005 0.958 . S
C991 H1006 0.961 . S
C991 H1007 0.960 . S
H992 C976 0.931 . S
H993 C981 0.929 . S
H994 C982 0.960 . S
H995 C982 0.962 . S
H996 C982 0.960 . S
H997 C983 0.961 . S
H998 C983 0.961 . S
H999 C983 0.961 . S
H1000 C984 0.931 . S
H1001 C989 0.930 . S
H1002 C990 0.956 . S
H1003 C990 0.961 . S
H1004 C990 0.961 . S
H1005 C991 0.958 . S
H1006 C991 0.961 . S
H1007 C991 0.960 . S
C1008 C1009 1.391 . S
C1008 C1010 1.394 . S
C1008 H1024 0.931 . S
C1009 C1008 1.391 . S
C1009 C1013 1.376 . S
C1010 C1008 1.394 . S
C1010 C1011 1.369 . S
C1010 C1014 1.531 . S
C1011 C1010 1.369 . S
C1011 C1012 1.410 . S
C1011 C1019 1.503 . S
C1012 C1011 1.410 . S
C1012 C1013 1.392 . S
C1012 C1015 1.511 . S
C1013 C1009 1.376 . S
C1013 C1012 1.392 . S
C1013 H1025 0.929 . S
C1014 C1010 1.531 . S
C1014 H1026 0.960 . S
C1014 H1027 0.962 . S
C1014 H1028 0.960 . S
C1015 C1012 1.511 . S
C1015 H1029 0.961 . S
C1015 H1030 0.961 . S
C1015 H1031 0.961 . S
C1016 C1017 1.370 1_556 S
C1016 C1018 1.363 . S
C1016 H1032 0.931 1_556 S
C1017 C1016 1.370 1_554 S
C1017 C1021 1.408 1_554 S
C1018 C1016 1.363 . S
C1018 C1019 1.370 . S
C1018 C1022 1.524 . S
C1019 C1011 1.503 . S
C1019 C1018 1.370 . S
C1019 C1020 1.403 . S
C1020 C1019 1.403 . S
C1020 C1021 1.404 . S
C1020 C1023 1.539 . S
C1021 C1017 1.408 1_556 S
C1021 C1020 1.404 . S
C1021 H1033 0.930 1_556 S
C1022 C1018 1.524 . S
C1022 H1034 0.956 . S
C1022 H1035 0.961 . S
C1022 H1036 0.961 . S
C1023 C1020 1.539 . S
C1023 H1037 0.958 . S
C1023 H1038 0.961 . S
C1023 H1039 0.960 . S
H1024 C1008 0.931 . S
H1025 C1013 0.929 . S
H1026 C1014 0.960 . S
H1027 C1014 0.962 . S
H1028 C1014 0.960 . S
H1029 C1015 0.961 . S
H1030 C1015 0.961 . S
H1031 C1015 0.961 . S
H1032 C1016 0.931 1_554 S
H1033 C1021 0.930 1_554 S
H1034 C1022 0.956 . S
H1035 C1022 0.961 . S
H1036 C1022 0.961 . S
H1037 C1023 0.958 . S
H1038 C1023 0.961 . S
H1039 C1023 0.960 . S
C1040 C1041 1.391 . S
C1040 C1042 1.394 . S
C1040 H1056 0.931 . S
C1041 C1040 1.391 . S
C1041 C1045 1.376 1_565 S
C1042 C1040 1.394 . S
C1042 C1043 1.369 . S
C1042 C1046 1.531 . S
C1043 C1042 1.369 . S
C1043 C1044 1.410 . S
C1043 C1051 1.503 . S
C1044 C1043 1.410 . S
C1044 C1045 1.392 1_565 S
C1044 C1047 1.511 . S
C1045 C1041 1.376 1_545 S
C1045 C1044 1.392 1_545 S
C1045 H1057 0.929 . S
C1046 C1042 1.531 . S
C1046 H1058 0.960 . S
C1046 H1059 0.962 . S
C1046 H1060 0.960 . S
C1047 C1044 1.511 . S
C1047 H1061 0.961 1_565 S
C1047 H1062 0.961 . S
C1047 H1063 0.961 . S
C1048 C1049 1.370 . S
C1048 C1050 1.363 . S
C1048 H1064 0.931 . S
C1049 C1048 1.370 . S
C1049 C1053 1.408 . S
C1050 C1048 1.363 . S
C1050 C1051 1.370 . S
C1050 C1054 1.524 . S
C1051 C1043 1.503 . S
C1051 C1050 1.370 . S
C1051 C1052 1.403 . S
C1052 C1051 1.403 . S
C1052 C1053 1.404 . S
C1052 C1055 1.539 . S
C1053 C1049 1.408 . S
C1053 C1052 1.404 . S
C1053 H1065 0.930 . S
C1054 C1050 1.524 . S
C1054 H1066 0.956 . S
C1054 H1067 0.961 . S
C1054 H1068 0.961 . S
C1055 C1052 1.539 . S
C1055 H1069 0.958 . S
C1055 H1070 0.961 . S
C1055 H1071 0.960 . S
H1056 C1040 0.931 . S
H1057 C1045 0.929 . S
H1058 C1046 0.960 . S
H1059 C1046 0.962 . S
H1060 C1046 0.960 . S
H1061 C1047 0.961 1_545 S
H1062 C1047 0.961 . S
H1063 C1047 0.961 . S
H1064 C1048 0.931 . S
H1065 C1053 0.930 . S
H1066 C1054 0.956 . S
H1067 C1054 0.961 . S
H1068 C1054 0.961 . S
H1069 C1055 0.958 . S
H1070 C1055 0.961 . S
H1071 C1055 0.960 . S
C1072 C1073 1.391 . S
C1072 C1074 1.394 . S
C1072 H1088 0.931 . S
C1073 C1072 1.391 . S
C1073 C1077 1.376 . S
C1074 C1072 1.394 . S
C1074 C1075 1.369 . S
C1074 C1078 1.531 . S
C1075 C1074 1.369 . S
C1075 C1076 1.410 . S
C1075 C1083 1.503 . S
C1076 C1075 1.410 . S
C1076 C1077 1.392 . S
C1076 C1079 1.511 . S
C1077 C1073 1.376 . S
C1077 C1076 1.392 . S
C1077 H1089 0.929 . S
C1078 C1074 1.531 . S
C1078 H1090 0.960 . S
C1078 H1091 0.962 . S
C1078 H1092 0.960 . S
C1079 C1076 1.511 . S
C1079 H1093 0.961 . S
C1079 H1094 0.961 . S
C1079 H1095 0.961 . S
C1080 C1081 1.370 . S
C1080 C1082 1.363 . S
C1080 H1096 0.931 . S
C1081 C1080 1.370 . S
C1081 C1085 1.408 . S
C1082 C1080 1.363 . S
C1082 C1083 1.370 . S
C1082 C1086 1.524 . S
C1083 C1075 1.503 . S
C1083 C1082 1.370 . S
C1083 C1084 1.403 . S
C1084 C1083 1.403 . S
C1084 C1085 1.404 . S
C1084 C1087 1.539 . S
C1085 C1081 1.408 . S
C1085 C1084 1.404 . S
C1085 H1097 0.930 . S
C1086 C1082 1.524 . S
C1086 H1098 0.956 . S
C1086 H1099 0.961 . S
C1086 H1100 0.961 . S
C1087 C1084 1.539 . S
C1087 H1101 0.958 . S
C1087 H1102 0.961 . S
C1087 H1103 0.960 . S
H1088 C1072 0.931 . S
H1089 C1077 0.929 . S
H1090 C1078 0.960 . S
H1091 C1078 0.962 . S
H1092 C1078 0.960 . S
H1093 C1079 0.961 . S
H1094 C1079 0.961 . S
H1095 C1079 0.961 . S
H1096 C1080 0.931 . S
H1097 C1085 0.930 . S
H1098 C1086 0.956 . S
H1099 C1086 0.961 . S
H1100 C1086 0.961 . S
H1101 C1087 0.958 . S
H1102 C1087 0.961 . S
H1103 C1087 0.960 . S
C1104 C1105 1.391 . S
C1104 C1106 1.394 . S
C1104 H1120 0.931 . S
C1105 C1104 1.391 . S
C1105 C1109 1.376 . S
C1106 C1104 1.394 . S
C1106 C1107 1.369 . S
C1106 C1110 1.531 . S
C1107 C1106 1.369 . S
C1107 C1108 1.410 . S
C1107 C1115 1.503 . S
C1108 C1107 1.410 . S
C1108 C1109 1.392 . S
C1108 C1111 1.511 . S
C1109 C1105 1.376 . S
C1109 C1108 1.392 . S
C1109 H1121 0.929 . S
C1110 C1106 1.531 . S
C1110 H1122 0.960 . S
C1110 H1123 0.962 . S
C1110 H1124 0.960 1_565 S
C1111 C1108 1.511 . S
C1111 H1125 0.961 . S
C1111 H1126 0.961 . S
C1111 H1127 0.961 . S
C1112 C1113 1.370 . S
C1112 C1114 1.363 . S
C1112 H1128 0.931 . S
C1113 C1112 1.370 . S
C1113 C1117 1.408 . S
C1114 C1112 1.363 . S
C1114 C1115 1.370 . S
C1114 C1118 1.524 . S
C1115 C1107 1.503 . S
C1115 C1114 1.370 . S
C1115 C1116 1.403 . S
C1116 C1115 1.403 . S
C1116 C1117 1.404 . S
C1116 C1119 1.539 . S
C1117 C1113 1.408 . S
C1117 C1116 1.404 . S
C1117 H1129 0.930 . S
C1118 C1114 1.524 . S
C1118 H1130 0.956 . S
C1118 H1131 0.961 . S
C1118 H1132 0.961 . S
C1119 C1116 1.539 . S
C1119 H1133 0.958 . S
C1119 H1134 0.961 . S
C1119 H1135 0.960 . S
H1120 C1104 0.931 . S
H1121 C1109 0.929 . S
H1122 C1110 0.960 . S
H1123 C1110 0.962 . S
H1124 C1110 0.960 1_545 S
H1125 C1111 0.961 . S
H1126 C1111 0.961 . S
H1127 C1111 0.961 . S
H1128 C1112 0.931 . S
H1129 C1117 0.930 . S
H1130 C1118 0.956 . S
H1131 C1118 0.961 . S
H1132 C1118 0.961 . S
H1133 C1119 0.958 . S
H1134 C1119 0.961 . S
H1135 C1119 0.960 . S
C1136 C1137 1.391 . S
C1136 C1138 1.394 . S
C1136 H1152 0.931 . S
C1137 C1136 1.391 . S
C1137 C1141 1.376 . S
C1138 C1136 1.394 . S
C1138 C1139 1.369 . S
C1138 C1142 1.531 . S
C1139 C1138 1.369 . S
C1139 C1140 1.410 . S
C1139 C1147 1.503 . S
C1140 C1139 1.410 . S
C1140 C1141 1.392 . S
C1140 C1143 1.511 . S
C1141 C1137 1.376 . S
C1141 C1140 1.392 . S
C1141 H1153 0.929 . S
C1142 C1138 1.531 . S
C1142 H1154 0.960 . S
C1142 H1155 0.962 . S
C1142 H1156 0.960 . S
C1143 C1140 1.511 . S
C1143 H1157 0.961 . S
C1143 H1158 0.961 . S
C1143 H1159 0.961 . S
C1144 C1145 1.370 . S
C1144 C1146 1.363 . S
C1144 H1160 0.931 . S
C1145 C1144 1.370 . S
C1145 C1149 1.408 . S
C1146 C1144 1.363 . S
C1146 C1147 1.370 . S
C1146 C1150 1.524 . S
C1147 C1139 1.503 . S
C1147 C1146 1.370 . S
C1147 C1148 1.403 . S
C1148 C1147 1.403 . S
C1148 C1149 1.404 . S
C1148 C1151 1.539 . S
C1149 C1145 1.408 . S
C1149 C1148 1.404 . S
C1149 H1161 0.930 . S
C1150 C1146 1.524 . S
C1150 H1162 0.956 . S
C1150 H1163 0.961 . S
C1150 H1164 0.961 . S
C1151 C1148 1.539 . S
C1151 H1165 0.958 . S
C1151 H1166 0.961 . S
C1151 H1167 0.960 . S
H1152 C1136 0.931 . S
H1153 C1141 0.929 . S
H1154 C1142 0.960 . S
H1155 C1142 0.962 . S
H1156 C1142 0.960 . S
H1157 C1143 0.961 . S
H1158 C1143 0.961 . S
H1159 C1143 0.961 . S
H1160 C1144 0.931 . S
H1161 C1149 0.930 . S
H1162 C1150 0.956 . S
H1163 C1150 0.961 . S
H1164 C1150 0.961 . S
H1165 C1151 0.958 . S
H1166 C1151 0.961 . S
H1167 C1151 0.960 . S
C1168 C1169 1.391 . S
C1168 C1170 1.394 . S
C1168 H1184 0.931 . S
C1169 C1168 1.391 . S
C1169 C1173 1.376 . S
C1170 C1168 1.394 . S
C1170 C1171 1.369 . S
C1170 C1174 1.531 . S
C1171 C1170 1.369 . S
C1171 C1172 1.410 . S
C1171 C1179 1.503 . S
C1172 C1171 1.410 . S
C1172 C1173 1.392 . S
C1172 C1175 1.511 . S
C1173 C1169 1.376 . S
C1173 C1172 1.392 . S
C1173 H1185 0.929 . S
C1174 C1170 1.531 . S
C1174 H1186 0.960 . S
C1174 H1187 0.962 . S
C1174 H1188 0.960 . S
C1175 C1172 1.511 . S
C1175 H1189 0.961 . S
C1175 H1190 0.961 . S
C1175 H1191 0.961 . S
C1176 C1177 1.370 . S
C1176 C1178 1.363 . S
C1176 H1192 0.931 . S
C1177 C1176 1.370 . S
C1177 C1181 1.408 . S
C1178 C1176 1.363 . S
C1178 C1179 1.370 . S
C1178 C1182 1.524 . S
C1179 C1171 1.503 . S
C1179 C1178 1.370 . S
C1179 C1180 1.403 . S
C1180 C1179 1.403 . S
C1180 C1181 1.404 . S
C1180 C1183 1.539 . S
C1181 C1177 1.408 . S
C1181 C1180 1.404 . S
C1181 H1193 0.930 . S
C1182 C1178 1.524 . S
C1182 H1194 0.956 . S
C1182 H1195 0.961 . S
C1182 H1196 0.961 . S
C1183 C1180 1.539 . S
C1183 H1197 0.958 . S
C1183 H1198 0.961 . S
C1183 H1199 0.960 . S
H1184 C1168 0.931 . S
H1185 C1173 0.929 . S
H1186 C1174 0.960 . S
H1187 C1174 0.962 . S
H1188 C1174 0.960 . S
H1189 C1175 0.961 . S
H1190 C1175 0.961 . S
H1191 C1175 0.961 . S
H1192 C1176 0.931 . S
H1193 C1181 0.930 . S
H1194 C1182 0.956 . S
H1195 C1182 0.961 . S
H1196 C1182 0.961 . S
H1197 C1183 0.958 . S
H1198 C1183 0.961 . S
H1199 C1183 0.960 . S
C1200 C1201 1.391 . S
C1200 C1202 1.394 . S
C1200 H1216 0.931 . S
C1201 C1200 1.391 . S
C1201 C1205 1.376 . S
C1202 C1200 1.394 . S
C1202 C1203 1.369 . S
C1202 C1206 1.531 . S
C1203 C1202 1.369 . S
C1203 C1204 1.410 . S
C1203 C1211 1.503 . S
C1204 C1203 1.410 . S
C1204 C1205 1.392 . S
C1204 C1207 1.511 . S
C1205 C1201 1.376 . S
C1205 C1204 1.392 . S
C1205 H1217 0.929 . S
C1206 C1202 1.531 . S
C1206 H1218 0.960 . S
C1206 H1219 0.962 . S
C1206 H1220 0.960 . S
C1207 C1204 1.511 . S
C1207 H1221 0.961 . S
C1207 H1222 0.961 . S
C1207 H1223 0.961 . S
C1208 C1209 1.370 . S
C1208 C1210 1.363 . S
C1208 H1224 0.931 . S
C1209 C1208 1.370 . S
C1209 C1213 1.408 . S
C1210 C1208 1.363 . S
C1210 C1211 1.370 . S
C1210 C1214 1.524 . S
C1211 C1203 1.503 . S
C1211 C1210 1.370 . S
C1211 C1212 1.403 . S
C1212 C1211 1.403 . S
C1212 C1213 1.404 . S
C1212 C1215 1.539 . S
C1213 C1209 1.408 . S
C1213 C1212 1.404 . S
C1213 H1225 0.930 . S
C1214 C1210 1.524 . S
C1214 H1226 0.956 . S
C1214 H1227 0.961 . S
C1214 H1228 0.961 . S
C1215 C1212 1.539 . S
C1215 H1229 0.958 . S
C1215 H1230 0.961 . S
C1215 H1231 0.960 . S
H1216 C1200 0.931 . S
H1217 C1205 0.929 . S
H1218 C1206 0.960 . S
H1219 C1206 0.962 . S
H1220 C1206 0.960 . S
H1221 C1207 0.961 . S
H1222 C1207 0.961 . S
H1223 C1207 0.961 . S
H1224 C1208 0.931 . S
H1225 C1213 0.930 . S
H1226 C1214 0.956 . S
H1227 C1214 0.961 . S
H1228 C1214 0.961 . S
H1229 C1215 0.958 . S
H1230 C1215 0.961 . S
H1231 C1215 0.960 . S
C1232 C1233 1.391 . S
C1232 C1234 1.394 . S
C1232 H1248 0.931 . S
C1233 C1232 1.391 . S
C1233 C1237 1.376 . S
C1234 C1232 1.394 . S
C1234 C1235 1.369 . S
C1234 C1238 1.531 . S
C1235 C1234 1.369 . S
C1235 C1236 1.410 . S
C1235 C1243 1.503 . S
C1236 C1235 1.410 . S
C1236 C1237 1.392 . S
C1236 C1239 1.511 . S
C1237 C1233 1.376 . S
C1237 C1236 1.392 . S
C1237 H1249 0.929 . S
C1238 C1234 1.531 . S
C1238 H1250 0.960 1_554 S
C1238 H1251 0.962 . S
C1238 H1252 0.960 . S
C1239 C1236 1.511 . S
C1239 H1253 0.961 . S
C1239 H1254 0.961 . S
C1239 H1255 0.961 . S
C1240 C1241 1.370 . S
C1240 C1242 1.363 . S
C1240 H1256 0.931 . S
C1241 C1240 1.370 . S
C1241 C1245 1.408 . S
C1242 C1240 1.363 . S
C1242 C1243 1.370 1_556 S
C1242 C1246 1.524 1_556 S
C1243 C1235 1.503 . S
C1243 C1242 1.370 1_554 S
C1243 C1244 1.403 1_554 S
C1244 C1243 1.403 1_556 S
C1244 C1245 1.404 . S
C1244 C1247 1.539 . S
C1245 C1241 1.408 . S
C1245 C1244 1.404 . S
C1245 H1257 0.930 . S
C1246 C1242 1.524 1_554 S
C1246 H1258 0.956 . S
C1246 H1259 0.961 . S
C1246 H1260 0.961 . S
C1247 C1244 1.539 . S
C1247 H1261 0.958 . S
C1247 H1262 0.961 . S
C1247 H1263 0.960 1_556 S
H1248 C1232 0.931 . S
H1249 C1237 0.929 . S
H1250 C1238 0.960 1_556 S
H1251 C1238 0.962 . S
H1252 C1238 0.960 . S
H1253 C1239 0.961 . S
H1254 C1239 0.961 . S
H1255 C1239 0.961 . S
H1256 C1240 0.931 . S
H1257 C1245 0.930 . S
H1258 C1246 0.956 . S
H1259 C1246 0.961 . S
H1260 C1246 0.961 . S
H1261 C1247 0.958 . S
H1262 C1247 0.961 . S
H1263 C1247 0.960 1_554 S
C1264 C1265 1.391 . S
C1264 C1266 1.394 . S
C1264 H1280 0.931 . S
C1265 C1264 1.391 . S
C1265 C1269 1.376 . S
C1266 C1264 1.394 . S
C1266 C1267 1.369 . S
C1266 C1270 1.531 . S
C1267 C1266 1.369 . S
C1267 C1268 1.410 . S
C1267 C1275 1.503 . S
C1268 C1267 1.410 . S
C1268 C1269 1.392 . S
C1268 C1271 1.511 . S
C1269 C1265 1.376 . S
C1269 C1268 1.392 . S
C1269 H1281 0.929 . S
C1270 C1266 1.531 . S
C1270 H1282 0.960 . S
C1270 H1283 0.962 . S
C1270 H1284 0.960 . S
C1271 C1268 1.511 . S
C1271 H1285 0.961 . S
C1271 H1286 0.961 . S
C1271 H1287 0.961 . S
C1272 C1273 1.370 . S
C1272 C1274 1.363 . S
C1272 H1288 0.931 . S
C1273 C1272 1.370 . S
C1273 C1277 1.408 . S
C1274 C1272 1.363 . S
C1274 C1275 1.370 . S
C1274 C1278 1.524 . S
C1275 C1267 1.503 . S
C1275 C1274 1.370 . S
C1275 C1276 1.403 . S
C1276 C1275 1.403 . S
C1276 C1277 1.404 . S
C1276 C1279 1.539 . S
C1277 C1273 1.408 . S
C1277 C1276 1.404 . S
C1277 H1289 0.930 . S
C1278 C1274 1.524 . S
C1278 H1290 0.956 . S
C1278 H1291 0.961 . S
C1278 H1292 0.961 . S
C1279 C1276 1.539 . S
C1279 H1293 0.958 . S
C1279 H1294 0.961 . S
C1279 H1295 0.960 . S
H1280 C1264 0.931 . S
H1281 C1269 0.929 . S
H1282 C1270 0.960 . S
H1283 C1270 0.962 . S
H1284 C1270 0.960 . S
H1285 C1271 0.961 . S
H1286 C1271 0.961 . S
H1287 C1271 0.961 . S
H1288 C1272 0.931 . S
H1289 C1277 0.930 . S
H1290 C1278 0.956 . S
H1291 C1278 0.961 . S
H1292 C1278 0.961 . S
H1293 C1279 0.958 . S
H1294 C1279 0.961 . S
H1295 C1279 0.960 . S
C537 C517 1.088 . S
C529 C51 1.100 . S
C561 C125 1.762 . S
C569 C447 1.810 . S
C593 C217 2.316 . S
C601 C466 2.323 . S
C625 C291 2.006 . S
C633 C475 2.056 . S
C665 C489 0.599 . S
C657 C347 0.655 . S
C689 C421 1.208 . S
C697 C508 1.199 . S
C721 C143 2.610 . S
C729 C461 2.642 . S
C753 C199 1.163 . S
C761 C480 1.181 . S
C785 C273 0.992 . S
C793 C494 0.999 . S
C825 C503 1.300 . S
C817 C365 1.301 . S
C857 C522 2.252 . S
C849 C439 2.214 . S
C889 C452 2.021 . S
C881 C69 2.050 . S
C913 C63 1.546 . S
C921 C467 1.616 . S
C945 C137 1.449 . S
C953 C479 1.465 . S
C985 C493 1.432 . S
C977 C187 1.419 . S
C1009 C261 1.535 . S
C1017 C509 1.578 . S
C1049 C521 1.380 . S
C1041 C359 1.285 1_565 S
C1081 C451 1.301 . S
C1073 C433 1.293 . S
C1113 C523 1.546 . S
C1105 C113 1.498 . S
C1137 C211 1.505 . S
C1145 C453 1.512 . S
C1177 C465 1.576 . S
C1169 C285 1.468 . S
C1201 C335 1.307 . S
C1209 C481 1.352 . S
C1233 C409 1.480 . S
C1241 C495 1.543 . S
C1265 C39 1.708 . S
C1273 C507 1.786 . S
