# Generated by pormake.
# Topology eea, (3,6)-cn, num edge types: 1
# Building blocks:
#     Node 0, Type 0, BuildingBlock: KAKCAD_clean_linker_0, # of connection points: 3
#     Node 1, Type 0, BuildingBlock: KAKCAD_clean_linker_0, # of connection points: 3
#     Node 2, Type 0, BuildingBlock: KAKCAD_clean_linker_0, # of connection points: 3
#     Node 3, Type 0, BuildingBlock: KAKCAD_clean_linker_0, # of connection points: 3
#     Node 4, Type 0, BuildingBlock: KAKCAD_clean_linker_0, # of connection points: 3
#     Node 5, Type 0, BuildingBlock: KAKCAD_clean_linker_0, # of connection points: 3
#     Node 6, Type 0, BuildingBlock: KAKCAD_clean_linker_0, # of connection points: 3
#     Node 7, Type 0, BuildingBlock: KAKCAD_clean_linker_0, # of connection points: 3
#     Node 8, Type 0, BuildingBlock: KAKCAD_clean_linker_0, # of connection points: 3
#     Node 9, Type 0, BuildingBlock: KAKCAD_clean_linker_0, # of connection points: 3
#     Node 10, Type 0, BuildingBlock: KAKCAD_clean_linker_0, # of connection points: 3
#     Node 11, Type 0, BuildingBlock: KAKCAD_clean_linker_0, # of connection points: 3
#     Node 12, Type 0, BuildingBlock: KAKCAD_clean_linker_0, # of connection points: 3
#     Node 13, Type 0, BuildingBlock: KAKCAD_clean_linker_0, # of connection points: 3
#     Node 14, Type 0, BuildingBlock: KAKCAD_clean_linker_0, # of connection points: 3
#     Node 15, Type 0, BuildingBlock: KAKCAD_clean_linker_0, # of connection points: 3
#     Node 16, Type 0, BuildingBlock: KAKCAD_clean_linker_0, # of connection points: 3
#     Node 17, Type 0, BuildingBlock: KAKCAD_clean_linker_0, # of connection points: 3
#     Node 18, Type 1, BuildingBlock: KUMBOL_clean_sbu_0, # of connection points: 6
#     Node 19, Type 1, BuildingBlock: KUMBOL_clean_sbu_0, # of connection points: 6
#     Node 20, Type 1, BuildingBlock: KUMBOL_clean_sbu_0, # of connection points: 6
#     Node 21, Type 1, BuildingBlock: KUMBOL_clean_sbu_0, # of connection points: 6
#     Node 22, Type 1, BuildingBlock: KUMBOL_clean_sbu_0, # of connection points: 6
#     Node 23, Type 1, BuildingBlock: KUMBOL_clean_sbu_0, # of connection points: 6
#     Node 24, Type 1, BuildingBlock: KUMBOL_clean_sbu_0, # of connection points: 6
#     Node 25, Type 1, BuildingBlock: KUMBOL_clean_sbu_0, # of connection points: 6
#     Node 26, Type 1, BuildingBlock: KUMBOL_clean_sbu_0, # of connection points: 6
#     Edge 27, Type (0, 1), BuildingBlock: XUDNAN_clean_linker_2, # of connection points: 2
#     Edge 28, Type (0, 1), BuildingBlock: XUDNAN_clean_linker_2, # of connection points: 2
#     Edge 29, Type (0, 1), BuildingBlock: XUDNAN_clean_linker_2, # of connection points: 2
#     Edge 30, Type (0, 1), BuildingBlock: XUDNAN_clean_linker_2, # of connection points: 2
#     Edge 31, Type (0, 1), BuildingBlock: XUDNAN_clean_linker_2, # of connection points: 2
#     Edge 32, Type (0, 1), BuildingBlock: XUDNAN_clean_linker_2, # of connection points: 2
#     Edge 33, Type (0, 1), BuildingBlock: XUDNAN_clean_linker_2, # of connection points: 2
#     Edge 34, Type (0, 1), BuildingBlock: XUDNAN_clean_linker_2, # of connection points: 2
#     Edge 35, Type (0, 1), BuildingBlock: XUDNAN_clean_linker_2, # of connection points: 2
#     Edge 36, Type (0, 1), BuildingBlock: XUDNAN_clean_linker_2, # of connection points: 2
#     Edge 37, Type (0, 1), BuildingBlock: XUDNAN_clean_linker_2, # of connection points: 2
#     Edge 38, Type (0, 1), BuildingBlock: XUDNAN_clean_linker_2, # of connection points: 2
#     Edge 39, Type (0, 1), BuildingBlock: XUDNAN_clean_linker_2, # of connection points: 2
#     Edge 40, Type (0, 1), BuildingBlock: XUDNAN_clean_linker_2, # of connection points: 2
#     Edge 41, Type (0, 1), BuildingBlock: XUDNAN_clean_linker_2, # of connection points: 2
#     Edge 42, Type (0, 1), BuildingBlock: XUDNAN_clean_linker_2, # of connection points: 2
#     Edge 43, Type (0, 1), BuildingBlock: XUDNAN_clean_linker_2, # of connection points: 2
#     Edge 44, Type (0, 1), BuildingBlock: XUDNAN_clean_linker_2, # of connection points: 2
#     Edge 45, Type (0, 1), BuildingBlock: XUDNAN_clean_linker_2, # of connection points: 2
#     Edge 46, Type (0, 1), BuildingBlock: XUDNAN_clean_linker_2, # of connection points: 2
#     Edge 47, Type (0, 1), BuildingBlock: XUDNAN_clean_linker_2, # of connection points: 2
#     Edge 48, Type (0, 1), BuildingBlock: XUDNAN_clean_linker_2, # of connection points: 2
#     Edge 49, Type (0, 1), BuildingBlock: XUDNAN_clean_linker_2, # of connection points: 2
#     Edge 50, Type (0, 1), BuildingBlock: XUDNAN_clean_linker_2, # of connection points: 2
#     Edge 51, Type (0, 1), BuildingBlock: XUDNAN_clean_linker_2, # of connection points: 2
#     Edge 52, Type (0, 1), BuildingBlock: XUDNAN_clean_linker_2, # of connection points: 2
#     Edge 53, Type (0, 1), BuildingBlock: XUDNAN_clean_linker_2, # of connection points: 2
#     Edge 54, Type (0, 1), BuildingBlock: XUDNAN_clean_linker_2, # of connection points: 2
#     Edge 55, Type (0, 1), BuildingBlock: XUDNAN_clean_linker_2, # of connection points: 2
#     Edge 56, Type (0, 1), BuildingBlock: XUDNAN_clean_linker_2, # of connection points: 2
#     Edge 57, Type (0, 1), BuildingBlock: XUDNAN_clean_linker_2, # of connection points: 2
#     Edge 58, Type (0, 1), BuildingBlock: XUDNAN_clean_linker_2, # of connection points: 2
#     Edge 59, Type (0, 1), BuildingBlock: XUDNAN_clean_linker_2, # of connection points: 2
#     Edge 60, Type (0, 1), BuildingBlock: XUDNAN_clean_linker_2, # of connection points: 2
#     Edge 61, Type (0, 1), BuildingBlock: XUDNAN_clean_linker_2, # of connection points: 2
#     Edge 62, Type (0, 1), BuildingBlock: XUDNAN_clean_linker_2, # of connection points: 2
#     Edge 63, Type (0, 1), BuildingBlock: XUDNAN_clean_linker_2, # of connection points: 2
#     Edge 64, Type (0, 1), BuildingBlock: XUDNAN_clean_linker_2, # of connection points: 2
#     Edge 65, Type (0, 1), BuildingBlock: XUDNAN_clean_linker_2, # of connection points: 2
#     Edge 66, Type (0, 1), BuildingBlock: XUDNAN_clean_linker_2, # of connection points: 2
#     Edge 67, Type (0, 1), BuildingBlock: XUDNAN_clean_linker_2, # of connection points: 2
#     Edge 68, Type (0, 1), BuildingBlock: XUDNAN_clean_linker_2, # of connection points: 2
#     Edge 69, Type (0, 1), BuildingBlock: XUDNAN_clean_linker_2, # of connection points: 2
#     Edge 70, Type (0, 1), BuildingBlock: XUDNAN_clean_linker_2, # of connection points: 2
#     Edge 71, Type (0, 1), BuildingBlock: XUDNAN_clean_linker_2, # of connection points: 2
#     Edge 72, Type (0, 1), BuildingBlock: XUDNAN_clean_linker_2, # of connection points: 2
#     Edge 73, Type (0, 1), BuildingBlock: XUDNAN_clean_linker_2, # of connection points: 2
#     Edge 74, Type (0, 1), BuildingBlock: XUDNAN_clean_linker_2, # of connection points: 2
#     Edge 75, Type (0, 1), BuildingBlock: XUDNAN_clean_linker_2, # of connection points: 2
#     Edge 76, Type (0, 1), BuildingBlock: XUDNAN_clean_linker_2, # of connection points: 2
#     Edge 77, Type (0, 1), BuildingBlock: XUDNAN_clean_linker_2, # of connection points: 2
#     Edge 78, Type (0, 1), BuildingBlock: XUDNAN_clean_linker_2, # of connection points: 2
#     Edge 79, Type (0, 1), BuildingBlock: XUDNAN_clean_linker_2, # of connection points: 2
#     Edge 80, Type (0, 1), BuildingBlock: XUDNAN_clean_linker_2, # of connection points: 2
# Relax obj value: 0.009
# Max RMSD: 0.094
# Mean RMSD: 0.062
data_MOF--net-eea--node1-KUMBOL_clean_sbu_0--node2-KAKCAD_clean_linker_0--edge1-XUDNAN_clean_linker_2
_symmetry_space_group_name_H-M    P1
_symmetry_Int_Tables_number       1
_symmetry_cell_setting            triclinic
loop_
_symmetry_equiv_pos_as_xyz
'x, y, z'
_cell_length_a     62.660942
_cell_length_b     63.818799
_cell_length_c     88.265306
_cell_angle_alpha  90.321704
_cell_angle_beta   90.150858
_cell_angle_gamma 120.02923
loop_
_atom_site_label
_atom_site_type_symbol
_atom_site_fract_x
_atom_site_fract_y
_atom_site_fract_z
_atom_type_partial_charge
C0 C 0.28057 0.15825 0.47825 0.0
C1 C 0.29706 0.15085 0.4833 0.0
C2 C 0.27158 0.15351 0.46337 0.0
C3 C 0.27875 0.14113 0.45325 0.0
C4 C 0.29544 0.13396 0.45825 0.0
C5 C 0.30456 0.13884 0.4731 0.0
C6 C 0.26815 0.13495 0.43769 0.0
C7 C 0.26589 0.15207 0.42892 0.0
C8 C 0.25478 0.14595 0.41446 0.0
C9 C 0.24639 0.1224 0.40882 0.0
C10 C 0.24864 0.10505 0.41735 0.0
C11 C 0.2595 0.11155 0.43182 0.0
C12 C 0.23906 0.08002 0.41128 0.0
C13 C 0.21768 0.06899 0.40219 0.0
C14 C 0.25117 0.06695 0.41442 0.0
C15 C 0.24202 0.04347 0.40871 0.0
C16 C 0.22076 0.03257 0.39949 0.0
C17 C 0.25107 0.16366 0.4054 0.0
C18 C 0.24634 0.18067 0.41256 0.0
C19 C 0.25107 0.16298 0.38946 0.0
C20 C 0.24533 0.17792 0.38097 0.0
C21 C 0.24025 0.19473 0.3881 0.0
C22 C 0.24136 0.19618 0.40405 0.0
C23 C 0.2089 0.04582 0.39622 0.0
H24 H 0.27466 0.16779 0.48579 0.0
H25 H 0.25858 0.15908 0.45989 0.0
H26 H 0.30143 0.12453 0.45066 0.0
H27 H 0.31712 0.13279 0.47668 0.0
H28 H 0.27309 0.17025 0.43335 0.0
H29 H 0.26045 0.09812 0.4388 0.0
H30 H 0.23775 0.11738 0.39776 0.0
H31 H 0.20746 0.07813 0.39973 0.0
H32 H 0.26786 0.0749 0.4212 0.0
H33 H 0.25155 0.03382 0.41167 0.0
H34 H 0.24587 0.18173 0.42479 0.0
H35 H 0.25528 0.15071 0.3834 0.0
H36 H 0.19281 0.03842 0.38892 0.0
H37 H 0.23826 0.20921 0.41009 0.0
H38 H 0.24439 0.17577 0.36878 0.0
C39 C 0.8576 0.13203 0.47915 0.0
C40 C 0.8775 0.14132 0.48942 0.0
C41 C 0.86103 0.12847 0.4639 0.0
C42 C 0.88447 0.13431 0.45853 0.0
C43 C 0.90455 0.1445 0.46867 0.0
C44 C 0.90108 0.14787 0.48396 0.0
C45 C 0.88762 0.1282 0.4427 0.0
C46 C 0.9078 0.14454 0.43391 0.0
C47 C 0.91153 0.13789 0.41937 0.0
C48 C 0.89473 0.11489 0.41351 0.0
C49 C 0.87445 0.09844 0.42211 0.0
C50 C 0.87105 0.10521 0.43666 0.0
C51 C 0.85759 0.07364 0.41627 0.0
C52 C 0.84617 0.06995 0.40201 0.0
C53 C 0.85321 0.05346 0.4249 0.0
C54 C 0.83819 0.03003 0.41923 0.0
C55 C 0.82686 0.02631 0.40495 0.0
C56 C 0.93383 0.15432 0.41066 0.0
C57 C 0.93747 0.1765 0.40528 0.0
C58 C 0.95167 0.14774 0.40771 0.0
C59 C 0.97294 0.16315 0.39962 0.0
C60 C 0.97667 0.18533 0.39392 0.0
C61 C 0.95851 0.19173 0.39686 0.0
C62 C 0.83069 0.04645 0.39647 0.0
H63 H 0.83918 0.12667 0.48302 0.0
H64 H 0.84523 0.12076 0.45633 0.0
H65 H 0.92279 0.14902 0.46491 0.0
H66 H 0.91683 0.1553 0.49156 0.0
H67 H 0.9209 0.16222 0.43847 0.0
H68 H 0.85571 0.0923 0.44343 0.0
H69 H 0.89781 0.10958 0.4024 0.0
H70 H 0.84921 0.08525 0.39518 0.0
H71 H 0.86191 0.05583 0.43589 0.0
H72 H 0.8355 0.01477 0.42597 0.0
H73 H 0.92383 0.18185 0.40739 0.0
H74 H 0.94932 0.13078 0.4119 0.0
H75 H 0.82228 0.044 0.38538 0.0
H76 H 0.96031 0.20836 0.39252 0.0
H77 H 0.98661 0.1577 0.39807 0.0
C78 C 0.89091 0.75188 0.48402 0.0
C79 C 0.86641 0.73701 0.48863 0.0
C80 C 0.89623 0.76041 0.4691 0.0
C81 C 0.87716 0.75388 0.45836 0.0
C82 C 0.85269 0.73843 0.46302 0.0
C83 C 0.84739 0.73036 0.47797 0.0
C84 C 0.88256 0.76294 0.44238 0.0
C85 C 0.90416 0.7668 0.43499 0.0
C86 C 0.90856 0.77413 0.41976 0.0
C87 C 0.89109 0.77759 0.41182 0.0
C88 C 0.8695 0.77402 0.41893 0.0
C89 C 0.86564 0.76709 0.43423 0.0
C90 C 0.85032 0.77627 0.4102 0.0
C91 C 0.85675 0.79536 0.39998 0.0
C92 C 0.82528 0.7588 0.4118 0.0
C93 C 0.80719 0.76011 0.40325 0.0
C94 C 0.81359 0.77896 0.39288 0.0
C95 C 0.93096 0.77726 0.41193 0.0
C96 C 0.95445 0.79135 0.41851 0.0
C97 C 0.92895 0.76596 0.39786 0.0
C98 C 0.94992 0.76835 0.39064 0.0
C99 C 0.97341 0.78243 0.39721 0.0
C100 C 0.97549 0.7941 0.41115 0.0
C101 C 0.83856 0.79677 0.39148 0.0
H102 H 0.90591 0.75739 0.49206 0.0
H103 H 0.91527 0.77248 0.46611 0.0
H104 H 0.83746 0.73227 0.45511 0.0
H105 H 0.82836 0.71864 0.48118 0.0
H106 H 0.91718 0.7632 0.44085 0.0
H107 H 0.84935 0.76507 0.43981 0.0
H108 H 0.89418 0.78271 0.39999 0.0
H109 H 0.87585 0.80923 0.39858 0.0
H110 H 0.81967 0.74373 0.41944 0.0
H111 H 0.78811 0.74626 0.40477 0.0
H112 H 0.95654 0.80035 0.42931 0.0
H113 H 0.91108 0.75487 0.39257 0.0
H114 H 0.84409 0.81148 0.38355 0.0
H115 H 0.99334 0.80491 0.41653 0.0
H116 H 0.94778 0.75921 0.37989 0.0
C117 C 0.13975 0.24237 0.53762 0.0
C118 C 0.13195 0.25847 0.53287 0.0
C119 C 0.13595 0.23396 0.55257 0.0
C120 C 0.12455 0.2417 0.56321 0.0
C121 C 0.11734 0.2583 0.55845 0.0
C122 C 0.12081 0.26639 0.54348 0.0
C123 C 0.12001 0.23252 0.57915 0.0
C124 C 0.13704 0.22794 0.58682 0.0
C125 C 0.13319 0.22014 0.60199 0.0
C126 C 0.11183 0.21663 0.60943 0.0
C127 C 0.09475 0.22129 0.6021 0.0
C128 C 0.09886 0.22898 0.58696 0.0
C129 C 0.07333 0.21943 0.61053 0.0
C130 C 0.05828 0.199 0.61934 0.0
C131 C 0.06835 0.23859 0.61022 0.0
C132 C 0.04908 0.23758 0.61875 0.0
C133 C 0.03409 0.21723 0.62762 0.0
C134 C 0.15227 0.21733 0.61044 0.0
C135 C 0.16432 0.20601 0.60376 0.0
C136 C 0.15903 0.22666 0.62524 0.0
C137 C 0.17772 0.22528 0.63302 0.0
C138 C 0.19017 0.21448 0.62626 0.0
C139 C 0.18298 0.20447 0.61163 0.0
C140 C 0.03871 0.19781 0.62769 0.0
H141 H 0.14826 0.23583 0.52966 0.0
H142 H 0.14152 0.22101 0.55569 0.0
H143 H 0.10916 0.2653 0.56631 0.0
H144 H 0.11499 0.27912 0.54023 0.0
H145 H 0.15388 0.23149 0.58123 0.0
H146 H 0.08532 0.232 0.58126 0.0
H147 H 0.10877 0.21084 0.62114 0.0
H148 H 0.06164 0.18393 0.61974 0.0
H149 H 0.07975 0.25465 0.60364 0.0
H150 H 0.04583 0.25272 0.61838 0.0
H151 H 0.1594 0.19847 0.59242 0.0
H152 H 0.15036 0.23572 0.63069 0.0
H153 H 0.02752 0.18194 0.63446 0.0
H154 H 0.19234 0.19617 0.60608 0.0
H155 H 0.1827 0.23301 0.64432 0.0
C156 C 0.71071 0.85516 0.54136 0.0
C157 C 0.72522 0.87223 0.53032 0.0
C158 C 0.7192 0.85736 0.5563 0.0
C159 C 0.74218 0.8769 0.56065 0.0
C160 C 0.7567 0.89398 0.54972 0.0
C161 C 0.74845 0.89157 0.53473 0.0
C162 C 0.75116 0.8795 0.57651 0.0
C163 C 0.75153 0.86013 0.58375 0.0
C164 C 0.76131 0.86296 0.59847 0.0
C165 C 0.7699 0.88511 0.60612 0.0
C166 C 0.76918 0.9045 0.59919 0.0
C167 C 0.76005 0.90163 0.5843 0.0
C168 C 0.77852 0.92785 0.60746 0.0
C169 C 0.77262 0.92823 0.6228 0.0
C170 C 0.79398 0.94988 0.60023 0.0
C171 C 0.80378 0.97175 0.60823 0.0
C172 C 0.79825 0.97211 0.62363 0.0
C173 C 0.76348 0.84316 0.60567 0.0
C174 C 0.74332 0.81951 0.60594 0.0
C175 C 0.78591 0.84785 0.61224 0.0
C176 C 0.78828 0.82916 0.61871 0.0
C177 C 0.76816 0.80537 0.61892 0.0
C178 C 0.74556 0.80086 0.6126 0.0
C179 C 0.78231 0.95014 0.63078 0.0
H180 H 0.69257 0.84025 0.53856 0.0
H181 H 0.70758 0.84402 0.56454 0.0
H182 H 0.77466 0.90904 0.55273 0.0
H183 H 0.76051 0.90478 0.52659 0.0
H184 H 0.74519 0.84318 0.5777 0.0
H185 H 0.75944 0.9165 0.57883 0.0
H186 H 0.77745 0.88732 0.61746 0.0
H187 H 0.76053 0.91156 0.62864 0.0
H188 H 0.79899 0.95018 0.58846 0.0
H189 H 0.81575 0.98842 0.60235 0.0
H190 H 0.72574 0.81548 0.60111 0.0
H191 H 0.80184 0.86591 0.61205 0.0
H192 H 0.77778 0.94981 0.64264 0.0
H193 H 0.7295 0.78291 0.61281 0.0
H194 H 0.80609 0.83332 0.62319 0.0
C195 C 0.10091 0.85046 0.53395 0.0
C196 C 0.12359 0.85244 0.52996 0.0
C197 C 0.09776 0.85841 0.54817 0.0
C198 C 0.11724 0.86864 0.55875 0.0
C199 C 0.13987 0.87053 0.55479 0.0
C200 C 0.14299 0.86253 0.54061 0.0
C201 C 0.11415 0.87749 0.57383 0.0
C202 C 0.09245 0.86408 0.58227 0.0
C203 C 0.08992 0.87209 0.59669 0.0
C204 C 0.10914 0.89401 0.60255 0.0
C205 C 0.13077 0.9079 0.5942 0.0
C206 C 0.13313 0.89941 0.57991 0.0
C207 C 0.15091 0.93138 0.60027 0.0
C208 C 0.14568 0.94843 0.60684 0.0
C209 C 0.17562 0.93716 0.59916 0.0
C210 C 0.19468 0.95958 0.60424 0.0
C211 C 0.18959 0.97698 0.61044 0.0
C212 C 0.06733 0.85739 0.60577 0.0
C213 C 0.04387 0.84957 0.59951 0.0
C214 C 0.06911 0.85106 0.62076 0.0
C215 C 0.04784 0.83695 0.62926 0.0
C216 C 0.02438 0.82933 0.62305 0.0
C217 C 0.02262 0.83589 0.60812 0.0
C218 C 0.16479 0.97099 0.61183 0.0
H219 H 0.08564 0.84312 0.52599 0.0
H220 H 0.08018 0.85695 0.55076 0.0
H221 H 0.15515 0.87792 0.56275 0.0
H222 H 0.16057 0.86392 0.53811 0.0
H223 H 0.07782 0.84699 0.57786 0.0
H224 H 0.14959 0.91023 0.57332 0.0
H225 H 0.10723 0.90025 0.61365 0.0
H226 H 0.12683 0.94459 0.60774 0.0
H227 H 0.18024 0.92425 0.5944 0.0
H228 H 0.21346 0.96323 0.60332 0.0
H229 H 0.04199 0.85427 0.588 0.0
H230 H 0.08698 0.85675 0.62583 0.0
H231 H 0.16012 0.98396 0.61639 0.0
H232 H 0.00475 0.83008 0.60301 0.0
H233 H 0.04972 0.83217 0.64075 0.0
C234 C 0.93279 0.48054 0.81604 0.0
C235 C 0.9541 0.47959 0.81989 0.0
C236 C 0.92305 0.47482 0.80137 0.0
C237 C 0.93418 0.46769 0.79026 0.0
C238 C 0.95481 0.4657 0.79421 0.0
C239 C 0.96476 0.47172 0.80884 0.0
C240 C 0.92535 0.46399 0.77436 0.0
C241 C 0.92169 0.48159 0.76729 0.0
C242 C 0.91494 0.47922 0.75199 0.0
C243 C 0.91132 0.4589 0.74373 0.0
C244 C 0.91393 0.44054 0.75074 0.0
C245 C 0.92132 0.44345 0.76606 0.0
C246 C 0.9085 0.41828 0.7421 0.0
C247 C 0.88885 0.40799 0.73162 0.0
C248 C 0.92268 0.40704 0.74429 0.0
C249 C 0.91732 0.38604 0.73619 0.0
C250 C 0.89784 0.376 0.72563 0.0
C251 C 0.91203 0.49828 0.74461 0.0
C252 C 0.89276 0.50221 0.74887 0.0
C253 C 0.92893 0.51307 0.73363 0.0
C254 C 0.92692 0.53199 0.72722 0.0
C255 C 0.90765 0.53597 0.73148 0.0
C256 C 0.89042 0.52077 0.74221 0.0
C257 C 0.8837 0.38719 0.72342 0.0
H258 H 0.9237 0.48592 0.82433 0.0
H259 H 0.90693 0.47619 0.79865 0.0
H260 H 0.96386 0.46046 0.7858 0.0
H261 H 0.98133 0.47103 0.81131 0.0
H262 H 0.92492 0.49761 0.77354 0.0
H263 H 0.92337 0.42951 0.7717 0.0
H264 H 0.90638 0.45744 0.73183 0.0
H265 H 0.87717 0.41578 0.72987 0.0
H266 H 0.93815 0.41462 0.7521 0.0
H267 H 0.92864 0.37786 0.73802 0.0
H268 H 0.87959 0.49094 0.75735 0.0
H269 H 0.94396 0.51029 0.73027 0.0
H270 H 0.86833 0.37961 0.71552 0.0
H271 H 0.87552 0.52366 0.74571 0.0
H272 H 0.94036 0.54351 0.71894 0.0
C273 C 0.56852 0.50574 0.81378 0.0
C274 C 0.55511 0.48839 0.82487 0.0
C275 C 0.57089 0.49858 0.79914 0.0
C276 C 0.56021 0.47387 0.79531 0.0
C277 C 0.54695 0.45659 0.80652 0.0
C278 C 0.54426 0.46376 0.82106 0.0
C279 C 0.56305 0.46602 0.7798 0.0
C280 C 0.58505 0.47933 0.77165 0.0
C281 C 0.58805 0.47158 0.75725 0.0
C282 C 0.56904 0.44952 0.75134 0.0
C283 C 0.54685 0.43572 0.75928 0.0
C284 C 0.54388 0.44473 0.77324 0.0
C285 C 0.52712 0.41161 0.75333 0.0
C286 C 0.5239 0.40634 0.73768 0.0
C287 C 0.5116 0.39325 0.76339 0.0
C288 C 0.49347 0.37061 0.75805 0.0
C289 C 0.49081 0.365 0.74246 0.0
C290 C 0.61097 0.48665 0.74835 0.0
C291 C 0.62228 0.51205 0.74857 0.0
C292 C 0.62148 0.47591 0.73935 0.0
C293 C 0.64254 0.49015 0.73071 0.0
C294 C 0.65382 0.51556 0.73094 0.0
C295 C 0.64346 0.52628 0.74007 0.0
C296 C 0.50631 0.38332 0.73235 0.0
H297 H 0.5769 0.52487 0.81638 0.0
H298 H 0.5809 0.51245 0.79081 0.0
H299 H 0.53893 0.43742 0.80419 0.0
H300 H 0.53411 0.44999 0.82944 0.0
H301 H 0.60017 0.49549 0.77667 0.0
H302 H 0.52644 0.43523 0.77908 0.0
H303 H 0.57165 0.44313 0.74052 0.0
H304 H 0.53493 0.41992 0.72943 0.0
H305 H 0.51354 0.39604 0.77553 0.0
H306 H 0.4816 0.35755 0.76631 0.0
H307 H 0.61462 0.52102 0.75518 0.0
H308 H 0.61357 0.45645 0.73904 0.0
H309 H 0.50527 0.37994 0.72027 0.0
H310 H 0.65181 0.54576 0.74082 0.0
H311 H 0.64979 0.48118 0.72374 0.0
C312 C 0.56675 0.09674 0.81667 0.0
C313 C 0.54284 0.08328 0.82268 0.0
C314 C 0.57037 0.10344 0.80141 0.0
C315 C 0.55022 0.09649 0.79152 0.0
C316 C 0.52629 0.08293 0.7975 0.0
C317 C 0.52267 0.07661 0.81284 0.0
C318 C 0.55415 0.10313 0.77507 0.0
C319 C 0.57459 0.1048 0.76731 0.0
C320 C 0.57845 0.11096 0.7519 0.0
C321 C 0.56143 0.11516 0.74408 0.0
C322 C 0.54103 0.11396 0.75154 0.0
C323 C 0.53761 0.10798 0.76703 0.0
C324 C 0.52381 0.11974 0.74326 0.0
C325 C 0.53294 0.13894 0.7329 0.0
C326 C 0.49821 0.10641 0.74574 0.0
C327 C 0.48224 0.11235 0.73821 0.0
C328 C 0.49147 0.13181 0.72804 0.0
C329 C 0.6005 0.11338 0.74402 0.0
C330 C 0.62419 0.12809 0.75019 0.0
C331 C 0.59807 0.10122 0.73024 0.0
C332 C 0.61888 0.10339 0.72291 0.0
C333 C 0.64258 0.11816 0.72906 0.0
C334 C 0.64503 0.13064 0.74271 0.0
C335 C 0.51701 0.14485 0.72538 0.0
H336 H 0.58286 0.10194 0.82368 0.0
H337 H 0.58911 0.11424 0.79744 0.0
H338 H 0.51022 0.07687 0.7903 0.0
H339 H 0.50395 0.0666 0.81696 0.0
H340 H 0.58737 0.10078 0.7731 0.0
H341 H 0.52243 0.10786 0.77294 0.0
H342 H 0.56431 0.11967 0.73216 0.0
H343 H 0.55253 0.1498 0.73079 0.0
H344 H 0.49049 0.09134 0.75351 0.0
H345 H 0.46271 0.10203 0.74064 0.0
H346 H 0.62659 0.1378 0.76074 0.0
H347 H 0.58003 0.08974 0.72526 0.0
H348 H 0.52477 0.15975 0.71748 0.0
H349 H 0.66306 0.14199 0.74776 0.0
H350 H 0.61647 0.09361 0.71239 0.0
C351 C 0.80665 0.57672 0.8703 0.0
C352 C 0.80488 0.59716 0.86641 0.0
C353 C 0.80351 0.56871 0.88532 0.0
C354 C 0.79808 0.58067 0.8968 0.0
C355 C 0.79636 0.60115 0.89293 0.0
C356 C 0.79994 0.60942 0.87794 0.0
C357 C 0.79401 0.57169 0.91272 0.0
C358 C 0.81066 0.56597 0.91977 0.0
C359 C 0.80729 0.55802 0.9349 0.0
C360 C 0.78634 0.55485 0.94275 0.0
C361 C 0.76938 0.56026 0.93591 0.0
C362 C 0.77357 0.569 0.92097 0.0
C363 C 0.74761 0.55729 0.94454 0.0
C364 C 0.73188 0.53546 0.95197 0.0
C365 C 0.74271 0.57646 0.94568 0.0
C366 C 0.72292 0.57408 0.95435 0.0
C367 C 0.70723 0.5523 0.96182 0.0
C368 C 0.82642 0.55457 0.94282 0.0
C369 C 0.83729 0.54237 0.93578 0.0
C370 C 0.83467 0.56444 0.95739 0.0
C371 C 0.85376 0.56282 0.96454 0.0
C372 C 0.86497 0.55106 0.95741 0.0
C373 C 0.85622 0.54044 0.94306 0.0
C374 C 0.71174 0.5329 0.96037 0.0
H375 H 0.81056 0.56695 0.8617 0.0
H376 H 0.80486 0.55284 0.88792 0.0
H377 H 0.79239 0.61087 0.90152 0.0
H378 H 0.79831 0.62512 0.8753 0.0
H379 H 0.82684 0.56873 0.91366 0.0
H380 H 0.76055 0.57316 0.91563 0.0
H381 H 0.78345 0.54857 0.95436 0.0
H382 H 0.73514 0.52035 0.95123 0.0
H383 H 0.75456 0.59351 0.94014 0.0
H384 H 0.71983 0.5893 0.9552 0.0
H385 H 0.83126 0.53444 0.92461 0.0
H386 H 0.8269 0.57413 0.9631 0.0
H387 H 0.70003 0.51596 0.96606 0.0
H388 H 0.86459 0.5314 0.93724 0.0
H389 H 0.86 0.57109 0.97562 0.0
C390 C 0.37669 0.16798 0.87459 0.0
C391 C 0.38089 0.18552 0.86367 0.0
C392 C 0.38646 0.17486 0.88919 0.0
C393 C 0.40103 0.19947 0.89318 0.0
C394 C 0.40466 0.21703 0.88233 0.0
C395 C 0.39457 0.21011 0.86774 0.0
C396 C 0.41318 0.20666 0.90838 0.0
C397 C 0.42251 0.19294 0.91517 0.0
C398 C 0.43427 0.19952 0.92934 0.0
C399 C 0.43704 0.22025 0.9367 0.0
C400 C 0.42745 0.23403 0.93038 0.0
C401 C 0.41562 0.22713 0.91614 0.0
C402 C 0.42943 0.25517 0.93896 0.0
C403 C 0.42737 0.25433 0.95484 0.0
C404 C 0.43402 0.27648 0.93155 0.0
C405 C 0.43692 0.29655 0.93986 0.0
C406 C 0.4355 0.29586 0.95579 0.0
C407 C 0.44285 0.18431 0.93684 0.0
C408 C 0.427 0.15923 0.93819 0.0
C409 C 0.46634 0.19496 0.94357 0.0
C410 C 0.47354 0.18098 0.95191 0.0
C411 C 0.4573 0.15604 0.95387 0.0
C412 C 0.4341 0.14525 0.94667 0.0
C413 C 0.43064 0.2744 0.96312 0.0
H414 H 0.36586 0.14889 0.87181 0.0
H415 H 0.38268 0.1608 0.89733 0.0
H416 H 0.41596 0.23614 0.88492 0.0
H417 H 0.39818 0.22399 0.8595 0.0
H418 H 0.42111 0.17732 0.90933 0.0
H419 H 0.40767 0.23726 0.9113 0.0
H420 H 0.44642 0.22541 0.94757 0.0
H421 H 0.42329 0.23811 0.96097 0.0
H422 H 0.43587 0.27788 0.91935 0.0
H423 H 0.44027 0.31257 0.93376 0.0
H424 H 0.40869 0.15059 0.93322 0.0
H425 H 0.47905 0.21421 0.94252 0.0
H426 H 0.42982 0.27313 0.97535 0.0
H427 H 0.42102 0.12617 0.94805 0.0
H428 H 0.49178 0.18981 0.95696 0.0
C429 C 0.76488 0.18114 0.86895 0.0
C430 C 0.78783 0.18409 0.86463 0.0
C431 C 0.76154 0.18806 0.88346 0.0
C432 C 0.78109 0.19817 0.894 0.0
C433 C 0.80401 0.20106 0.88968 0.0
C434 C 0.80732 0.1941 0.87522 0.0
C435 C 0.77774 0.20578 0.90943 0.0
C436 C 0.75616 0.19136 0.91778 0.0
C437 C 0.75353 0.19816 0.93253 0.0
C438 C 0.77231 0.21986 0.93884 0.0
C439 C 0.79376 0.23468 0.93062 0.0
C440 C 0.7964 0.22744 0.91599 0.0
C441 C 0.81355 0.25768 0.93729 0.0
C442 C 0.80818 0.2747 0.94373 0.0
C443 C 0.83812 0.26296 0.93692 0.0
C444 C 0.85702 0.28504 0.9425 0.0
C445 C 0.85191 0.30265 0.94833 0.0
C446 C 0.73138 0.18243 0.94157 0.0
C447 C 0.70785 0.17673 0.93642 0.0
C448 C 0.73376 0.17347 0.9556 0.0
C449 C 0.71292 0.15895 0.96432 0.0
C450 C 0.68944 0.15366 0.95932 0.0
C451 C 0.68707 0.16269 0.94531 0.0
C452 C 0.82718 0.29703 0.94913 0.0
H453 H 0.74953 0.17381 0.86105 0.0
H454 H 0.74374 0.18585 0.88633 0.0
H455 H 0.81935 0.20838 0.89759 0.0
H456 H 0.82511 0.19622 0.87243 0.0
H457 H 0.74175 0.17442 0.91304 0.0
H458 H 0.81286 0.23902 0.90958 0.0
H459 H 0.77028 0.22514 0.9502 0.0
H460 H 0.78935 0.27107 0.94413 0.0
H461 H 0.84274 0.24997 0.93229 0.0
H462 H 0.87573 0.28836 0.94209 0.0
H463 H 0.70563 0.18353 0.92566 0.0
H464 H 0.75174 0.17762 0.95976 0.0
H465 H 0.82253 0.31015 0.95345 0.0
H466 H 0.66911 0.1587 0.9412 0.0
H467 H 0.71517 0.15219 0.97508 0.0
C468 C 0.61036 0.8259 0.14807 0.0
C469 C 0.63093 0.82394 0.1524 0.0
C470 C 0.60044 0.81934 0.13347 0.0
C471 C 0.61056 0.81029 0.1229 0.0
C472 C 0.63079 0.80787 0.12722 0.0
C473 C 0.64098 0.81477 0.14177 0.0
C474 C 0.59998 0.80349 0.10739 0.0
C475 C 0.5954 0.81943 0.09898 0.0
C476 C 0.58449 0.81297 0.08448 0.0
C477 C 0.57853 0.79018 0.07843 0.0
C478 C 0.58336 0.77409 0.08658 0.0
C479 C 0.59406 0.78097 0.1011 0.0
C480 C 0.57681 0.74995 0.08007 0.0
C481 C 0.55525 0.73662 0.07127 0.0
C482 C 0.59183 0.73975 0.08288 0.0
C483 C 0.58502 0.71658 0.07753 0.0
C484 C 0.56336 0.70332 0.06899 0.0
C485 C 0.57922 0.8299 0.07574 0.0
C486 C 0.57295 0.84559 0.08324 0.0
C487 C 0.58028 0.8305 0.05981 0.0
C488 C 0.57485 0.84597 0.05165 0.0
C489 C 0.56893 0.86191 0.05915 0.0
C490 C 0.56824 0.86157 0.07509 0.0
C491 C 0.54869 0.71359 0.0657 0.0
H492 H 0.6017 0.83231 0.15599 0.0
H493 H 0.58459 0.82105 0.13049 0.0
H494 H 0.63905 0.80109 0.11924 0.0
H495 H 0.65703 0.81332 0.14457 0.0
H496 H 0.60081 0.8371 0.10372 0.0
H497 H 0.5971 0.7685 0.10779 0.0
H498 H 0.57001 0.78486 0.06735 0.0
H499 H 0.54297 0.7436 0.06906 0.0
H500 H 0.6088 0.74958 0.08932 0.0
H501 H 0.5965 0.70884 0.08021 0.0
H502 H 0.57144 0.84549 0.09545 0.0
H503 H 0.58547 0.81913 0.05354 0.0
H504 H 0.5317 0.70342 0.05931 0.0
H505 H 0.56424 0.87378 0.0814 0.0
H506 H 0.57515 0.84517 0.03941 0.0
C507 C 0.2106 0.81306 0.14929 0.0
C508 C 0.20962 0.79621 0.15993 0.0
C509 C 0.21642 0.81179 0.13412 0.0
C510 C 0.22099 0.79345 0.12926 0.0
C511 C 0.22084 0.77714 0.13988 0.0
C512 C 0.21551 0.77866 0.15507 0.0
C513 C 0.22388 0.78997 0.11297 0.0
C514 C 0.24329 0.80802 0.10454 0.0
C515 C 0.24599 0.80416 0.08912 0.0
C516 C 0.22868 0.7823 0.0821 0.0
C517 C 0.2095 0.76397 0.09052 0.0
C518 C 0.20726 0.76796 0.10593 0.0
C519 C 0.19288 0.73995 0.08361 0.0
C520 C 0.18047 0.73778 0.06989 0.0
C521 C 0.18971 0.71894 0.09071 0.0
C522 C 0.17485 0.69624 0.08408 0.0
C523 C 0.16254 0.69402 0.07034 0.0
C524 C 0.26808 0.82183 0.08067 0.0
C525 C 0.2658 0.83077 0.0666 0.0
C526 C 0.2917 0.82867 0.08626 0.0
C527 C 0.31264 0.84364 0.07778 0.0
C528 C 0.31038 0.85247 0.06369 0.0
C529 C 0.28683 0.84625 0.05826 0.0
C530 C 0.16518 0.71493 0.06338 0.0
H531 H 0.20593 0.82667 0.15249 0.0
H532 H 0.21628 0.82446 0.12606 0.0
H533 H 0.22453 0.76296 0.13638 0.0
H534 H 0.21568 0.7658 0.16294 0.0
H535 H 0.25657 0.8248 0.11005 0.0
H536 H 0.19244 0.75389 0.11247 0.0
H537 H 0.23101 0.779 0.07032 0.0
H538 H 0.18258 0.75373 0.06425 0.0
H539 H 0.19921 0.72014 0.10124 0.0
H540 H 0.17307 0.68035 0.08965 0.0
H541 H 0.24776 0.82568 0.06205 0.0
H542 H 0.29392 0.82181 0.097 0.0
H543 H 0.15597 0.71362 0.05272 0.0
H544 H 0.2847 0.85285 0.04741 0.0
H545 H 0.33064 0.84831 0.08222 0.0
C546 C 0.23951 0.43723 0.14887 0.0
C547 C 0.21554 0.42282 0.15466 0.0
C548 C 0.24326 0.44484 0.13376 0.0
C549 C 0.2232 0.43783 0.12376 0.0
C550 C 0.19926 0.42319 0.12951 0.0
C551 C 0.1955 0.41613 0.14471 0.0
C552 C 0.22712 0.44543 0.10744 0.0
C553 C 0.24824 0.44898 0.09956 0.0
C554 C 0.25155 0.45526 0.08412 0.0
C555 C 0.23319 0.45761 0.0764 0.0
C556 C 0.21189 0.45406 0.08394 0.0
C557 C 0.20935 0.44851 0.09947 0.0
C558 C 0.19162 0.45485 0.07549 0.0
C559 C 0.19659 0.47281 0.06465 0.0
C560 C 0.16694 0.43712 0.07808 0.0
C561 C 0.14777 0.43712 0.06994 0.0
C562 C 0.15268 0.45486 0.05899 0.0
C563 C 0.27378 0.4584 0.07596 0.0
C564 C 0.29742 0.47202 0.08246 0.0
C565 C 0.27148 0.44736 0.06175 0.0
C566 C 0.29221 0.44941 0.05439 0.0
C567 C 0.31582 0.46279 0.06097 0.0
C568 C 0.31822 0.47433 0.075 0.0
C569 C 0.17731 0.4729 0.05655 0.0
H570 H 0.25558 0.44252 0.15592 0.0
H571 H 0.262 0.45638 0.13 0.0
H572 H 0.18321 0.41683 0.12227 0.0
H573 H 0.1767 0.40549 0.14859 0.0
H574 H 0.26183 0.44601 0.10524 0.0
H575 H 0.1934 0.44673 0.10536 0.0
H576 H 0.23532 0.46186 0.06443 0.0
H577 H 0.21537 0.48685 0.06246 0.0
H578 H 0.1624 0.42287 0.08621 0.0
H579 H 0.12901 0.42314 0.07226 0.0
H580 H 0.29983 0.48089 0.09334 0.0
H581 H 0.25353 0.43661 0.05648 0.0
H582 H 0.18172 0.48677 0.04815 0.0
H583 H 0.3361 0.4846 0.08043 0.0
H584 H 0.28976 0.44043 0.04355 0.0
C585 C 0.46549 0.89464 0.20604 0.0
C586 C 0.46941 0.91758 0.20176 0.0
C587 C 0.46084 0.88713 0.22115 0.0
C588 C 0.45929 0.902 0.23233 0.0
C589 C 0.46237 0.92452 0.22813 0.0
C590 C 0.46762 0.93234 0.21308 0.0
C591 C 0.4554 0.89436 0.24843 0.0
C592 C 0.4729 0.8905 0.25598 0.0
C593 C 0.46989 0.88373 0.2713 0.0
C594 C 0.44855 0.88004 0.27889 0.0
C595 C 0.43044 0.88322 0.27144 0.0
C596 C 0.43435 0.89089 0.25623 0.0
C597 C 0.40713 0.87765 0.27937 0.0
C598 C 0.39495 0.857 0.28852 0.0
C599 C 0.39652 0.89244 0.27765 0.0
C600 C 0.37417 0.88653 0.28474 0.0
C601 C 0.36176 0.86555 0.2936 0.0
C602 C 0.48944 0.88135 0.2795 0.0
C603 C 0.50079 0.86936 0.2728 0.0
C604 C 0.49754 0.89188 0.29393 0.0
C605 C 0.51697 0.89112 0.30126 0.0
C606 C 0.52868 0.8796 0.29444 0.0
C607 C 0.52007 0.86834 0.28023 0.0
C608 C 0.37261 0.85104 0.29551 0.0
H609 H 0.46594 0.88232 0.19776 0.0
H610 H 0.45834 0.86958 0.22411 0.0
H611 H 0.46143 0.93638 0.2366 0.0
H612 H 0.4709 0.95025 0.21047 0.0
H613 H 0.48932 0.89359 0.25001 0.0
H614 H 0.42062 0.89333 0.25026 0.0
H615 H 0.44601 0.8746 0.29066 0.0
H616 H 0.40237 0.84504 0.29001 0.0
H617 H 0.40549 0.9086 0.27081 0.0
H618 H 0.36628 0.89803 0.28295 0.0
H619 H 0.49485 0.86089 0.26175 0.0
H620 H 0.48934 0.90139 0.29938 0.0
H621 H 0.36373 0.8349 0.30237 0.0
H622 H 0.52879 0.85945 0.27464 0.0
H623 H 0.52304 0.89981 0.31225 0.0
C624 C 0.05109 0.50463 0.20742 0.0
C625 C 0.05561 0.52314 0.19716 0.0
C626 C 0.05908 0.51008 0.22246 0.0
C627 C 0.07203 0.53422 0.22765 0.0
C628 C 0.07628 0.55275 0.21742 0.0
C629 C 0.06807 0.54726 0.20236 0.0
C630 C 0.08109 0.53982 0.24365 0.0
C631 C 0.09036 0.52626 0.2508 0.0
C632 C 0.09798 0.53044 0.26607 0.0
C633 C 0.09629 0.54862 0.27411 0.0
C634 C 0.08819 0.56308 0.26709 0.0
C635 C 0.08051 0.55854 0.25186 0.0
C636 C 0.0892 0.58366 0.27571 0.0
C637 C 0.08157 0.58066 0.2909 0.0
C638 C 0.10049 0.60697 0.26947 0.0
C639 C 0.10551 0.62705 0.27852 0.0
C640 C 0.09935 0.62418 0.29398 0.0
C641 C 0.10807 0.51627 0.27365 0.0
C642 C 0.09953 0.49188 0.26983 0.0
C643 C 0.12619 0.52703 0.28506 0.0
C644 C 0.13483 0.5137 0.29277 0.0
C645 C 0.12642 0.48934 0.28896 0.0
C646 C 0.10878 0.4787 0.27724 0.0
C647 C 0.08662 0.60068 0.29993 0.0
H648 H 0.04115 0.48584 0.20383 0.0
H649 H 0.05491 0.49527 0.23006 0.0
H650 H 0.08641 0.57156 0.22093 0.0
H651 H 0.07199 0.56193 0.19468 0.0
H652 H 0.09219 0.51282 0.2443 0.0
H653 H 0.0736 0.56926 0.24656 0.0
H654 H 0.10176 0.55194 0.28592 0.0
H655 H 0.07242 0.56286 0.29596 0.0
H656 H 0.10673 0.60987 0.25783 0.0
H657 H 0.11541 0.64493 0.27361 0.0
H658 H 0.08543 0.48275 0.26124 0.0
H659 H 0.13389 0.5459 0.28815 0.0
H660 H 0.08113 0.59781 0.31171 0.0
H661 H 0.10207 0.46018 0.27368 0.0
H662 H 0.14794 0.52264 0.30188 0.0
C663 C 0.43986 0.5041 0.2039 0.0
C664 C 0.46345 0.51403 0.19741 0.0
C665 C 0.43674 0.51099 0.21844 0.0
C666 C 0.45714 0.52758 0.22719 0.0
C667 C 0.4808 0.537 0.22087 0.0
C668 C 0.48388 0.53056 0.20617 0.0
C669 C 0.45366 0.5354 0.24262 0.0
C670 C 0.43396 0.51951 0.25193 0.0
C671 C 0.42963 0.52713 0.26606 0.0
C672 C 0.44612 0.55088 0.27111 0.0
C673 C 0.46657 0.56665 0.26238 0.0
C674 C 0.46984 0.55895 0.24806 0.0
C675 C 0.48507 0.591 0.26832 0.0
C676 C 0.47791 0.60639 0.27529 0.0
C677 C 0.5103 0.59895 0.26698 0.0
C678 C 0.52798 0.62192 0.27211 0.0
C679 C 0.52097 0.63775 0.2786 0.0
C680 C 0.40784 0.51038 0.27544 0.0
C681 C 0.38553 0.49316 0.26848 0.0
C682 C 0.40891 0.51167 0.29141 0.0
C683 C 0.38817 0.49667 0.30009 0.0
C684 C 0.36611 0.4796 0.29305 0.0
C685 C 0.36503 0.47778 0.2772 0.0
C686 C 0.49569 0.62958 0.28036 0.0
H687 H 0.4236 0.49089 0.19781 0.0
H688 H 0.41815 0.50349 0.22267 0.0
H689 H 0.49712 0.54942 0.22724 0.0
H690 H 0.50236 0.53894 0.20166 0.0
H691 H 0.42216 0.50096 0.24827 0.0
H692 H 0.48488 0.57168 0.24106 0.0
H693 H 0.44326 0.55719 0.28191 0.0
H694 H 0.45857 0.60077 0.27646 0.0
H695 H 0.51642 0.58731 0.26201 0.0
H696 H 0.54726 0.6273 0.27094 0.0
H697 H 0.38361 0.49183 0.25627 0.0
H698 H 0.42577 0.52418 0.29728 0.0
H699 H 0.48965 0.64133 0.28524 0.0
H700 H 0.34807 0.46489 0.27153 0.0
H701 H 0.38942 0.49827 0.31233 0.0
Gd702 Gd 0.5097 0.01698 0.03255 0.0
Gd703 Gd 0.49189 0.99133 0.9935 0.0
C704 C 0.41769 0.92206 0.98706 0.0
C705 C 0.43018 0.89315 0.97939 0.0
C706 C 0.461 0.93516 0.98433 0.0
C707 C 0.4427 0.9403 0.98796 0.0
C708 C 0.45496 0.91172 0.97951 0.0
C709 C 0.41157 0.8983 0.98319 0.0
C710 C 0.39962 0.92842 0.98958 0.0
C711 C 0.40669 0.95263 0.99223 0.0
N712 N 0.44931 0.9635 0.99145 0.0
C713 C 0.43175 0.9701 0.9929 0.0
H714 H 0.4369 0.98869 0.99509 0.0
C715 C 0.50295 0.95044 0.97837 0.0
N716 N 0.48466 0.9536 0.98439 0.0
C717 C 0.49796 0.92748 0.9736 0.0
C718 C 0.47391 0.90793 0.97442 0.0
H719 H 0.52154 0.96558 0.97773 0.0
H720 H 0.39248 0.88397 0.98262 0.0
H721 H 0.56572 0.02191 0.03076 0.0
H722 H 0.38021 0.91494 0.98908 0.0
H723 H 0.39286 0.95785 0.99386 0.0
H724 H 0.42517 0.87493 0.97591 0.0
H725 H 0.47728 0.04071 0.04702 0.0
H726 H 0.6202 0.09588 0.03895 0.0
H727 H 0.6093 0.0538 0.03278 0.0
H728 H 0.57221 0.13235 0.05298 0.0
H729 H 0.51264 0.9249 0.96927 0.0
H730 H 0.47005 0.89019 0.97061 0.0
H731 H 0.60617 0.12515 0.04635 0.0
H732 H 0.4845 0.08026 0.05661 0.0
N733 N 0.55187 0.04573 0.03522 0.0
C734 C 0.60099 0.08194 0.03805 0.0
C735 C 0.59491 0.05819 0.03463 0.0
C736 C 0.58219 0.08723 0.04078 0.0
C737 C 0.55749 0.06845 0.03934 0.0
C738 C 0.57011 0.04013 0.0335 0.0
N739 N 0.51501 0.05378 0.04197 0.0
C740 C 0.53845 0.07259 0.0429 0.0
C741 C 0.49982 0.07839 0.0527 0.0
C742 C 0.52372 0.0983 0.05296 0.0
C743 C 0.49579 0.05604 0.04729 0.0
C744 C 0.54346 0.09548 0.04822 0.0
H745 H 0.5268 0.11559 0.05716 0.0
O746 O 0.48864 0.00308 0.05323 0.0
O747 O 0.48206 0.98759 0.01786 0.0
O748 O 0.47996 0.01907 0.99868 0.0
O749 O 0.50397 0.04339 0.01892 0.0
O750 O 0.46848 1.00101 0.03412 0.0
O751 O 0.52433 0.0058 0.05132 0.0
O752 O 0.51261 0.00432 0.97261 0.0
O753 O 0.51968 0.02037 0.00823 0.0
O754 O 0.523 0.99044 0.0274 0.0
O755 O 0.50132 0.96664 1.00625 0.0
O756 O 0.53315 0.00773 0.99144 0.0
O757 O 0.47748 0.00267 0.97473 0.0
C758 C 0.46247 0.9848 0.02366 0.0
C759 C 0.56798 0.11454 0.04908 0.0
C760 C 0.58731 0.11044 0.04531 0.0
C761 C 0.50559 1.00047 0.06009 0.0
C762 C 0.51107 0.00928 0.07591 0.0
C763 C 0.52159 0.03403 0.07921 0.0
C764 C 0.50474 0.99272 0.08789 0.0
C765 C 0.50841 1.00082 0.1031 0.0
C766 C 0.52532 0.04215 0.09422 0.0
C767 C 0.51866 0.0257 0.10609 0.0
C768 C 0.48968 0.03933 1.00689 0.0
C769 C 0.5393 0.02349 1.00222 0.0
C770 C 0.49577 0.00711 0.96579 0.0
C771 C 0.48952 0.99741 0.95021 0.0
C772 C 0.47522 0.97245 0.94761 0.0
C773 C 0.49892 0.0132 0.93781 0.0
C774 C 0.49472 0.00414 0.92277 0.0
C775 C 0.47089 0.96326 0.93286 0.0
C776 C 0.48071 0.97885 0.92055 0.0
C777 C 0.51578 0.97148 0.01826 0.0
H778 H 0.52677 0.04706 0.07023 0.0
H779 H 0.49657 0.97357 0.08539 0.0
H780 H 0.53338 0.06128 0.09666 0.0
H781 H 0.52194 0.0325 0.11763 0.0
H782 H 0.46764 0.96004 0.95695 0.0
H783 H 0.50947 0.0325 0.93998 0.0
H784 H 0.46012 0.94391 0.93095 0.0
H785 H 0.47761 0.9709 0.90934 0.0
Gd786 Gd 0.98929 0.49373 0.02289 0.0
Gd787 Gd 0.03045 0.50982 0.98967 0.0
C788 C 0.09858 0.50156 0.98617 0.0
C789 C 0.13186 0.54341 0.98651 0.0
C790 C 0.0892 0.53394 0.98809 0.0
C791 C 0.08133 0.5095 0.98761 0.0
C792 C 0.11455 0.55121 0.9875 0.0
C793 C 0.12388 0.51864 0.98573 0.0
C794 C 0.08987 0.47672 0.98483 0.0
C795 C 0.06452 0.46059 0.98438 0.0
N796 N 0.05675 0.49352 0.98774 0.0
C797 C 0.04815 0.46938 0.9856 0.0
H798 H 0.02863 0.45667 0.98512 0.0
C799 C 0.07881 0.56482 0.98815 0.0
N800 N 0.07198 0.54085 0.98868 0.0
C801 C 0.10373 0.58261 0.98784 0.0
C802 C 0.1217 0.57579 0.98759 0.0
H803 H 0.06508 0.5703 0.98839 0.0
H804 H 0.1374 0.51287 0.98469 0.0
H805 H 0.99344 0.5479 0.02649 0.0
H806 H 0.10252 0.46987 0.98381 0.0
H807 H 0.05757 0.44137 0.98306 0.0
H808 H 0.15141 0.55639 0.98607 0.0
H809 H 0.95354 0.4346 0.02884 0.0
H810 H 0.92069 0.53793 0.027 0.0
H811 H 0.96592 0.56502 0.02782 0.0
H812 H 0.86913 0.45164 0.02799 0.0
H813 H 0.10906 0.60157 0.98774 0.0
H814 H 0.141 0.58962 0.98722 0.0
H815 H 0.88462 0.49548 0.02714 0.0
H816 H 0.90931 0.40454 0.03147 0.0
N817 N 0.96422 0.5115 0.02408 0.0
C818 C 0.9327 0.53032 0.02627 0.0
C819 C 0.95821 0.54565 0.02679 0.0
C820 C 0.92303 0.50527 0.02551 0.0
C821 C 0.9395 0.49632 0.02446 0.0
C822 C 0.97377 0.53584 0.02599 0.0
N823 N 0.94748 0.46418 0.02542 0.0
C824 C 0.93083 0.47179 0.02513 0.0
C825 C 0.91507 0.42337 0.02957 0.0
C826 C 0.89758 0.43077 0.02859 0.0
C827 C 0.94011 0.44045 0.02813 0.0
C828 C 0.90539 0.45532 0.02667 0.0
H829 H 0.87821 0.41754 0.02981 0.0
O830 O 0.98879 0.4777 0.04468 0.0
O831 O 0.02109 0.49352 0.0124 0.0
O832 O 0.99959 0.47083 0.98889 0.0
O833 O 0.96725 0.46747 1.00378 0.0
O834 O 0.9992 0.46422 0.02567 0.0
O835 O 1.00191 0.51612 0.04314 0.0
O836 O 0.03173 0.52705 0.96823 0.0
O837 O 0.99737 0.50893 0.99966 0.0
O838 O 0.02219 0.53267 0.02355 0.0
O839 O 0.05268 0.5304 0.00991 0.0
O840 O 0.02097 0.5396 0.98789 0.0
O841 O 0.01951 0.48866 0.96899 0.0
C842 C 0.01871 0.47406 0.01745 0.0
C843 C 0.88875 0.464 0.02691 0.0
C844 C 0.89758 0.48895 0.02644 0.0
C845 C 0.99696 0.49806 0.05206 0.0
C846 C 0.98468 0.49732 0.06636 0.0
C847 C 0.9618 0.49627 0.0665 0.0
C848 C 0.99654 0.49846 0.08012 0.0
C849 C 0.98577 0.49872 0.09405 0.0
C850 C 0.95098 0.49653 0.08026 0.0
C851 C 0.96287 0.49782 0.09396 0.0
C852 C 0.97599 0.45974 0.9927 0.0
C853 C 1.00053 0.52899 0.99517 0.0
C854 C 0.02451 0.50714 0.96046 0.0
C855 C 0.03759 0.509 0.94634 0.0
C856 C 0.05989 0.50886 0.94628 0.0
C857 C 0.02673 0.50967 0.9326 0.0
C858 C 0.03774 0.50975 0.91875 0.0
C859 C 0.07102 0.50906 0.93253 0.0
C860 C 0.05994 0.50932 0.91881 0.0
C861 C 0.04573 0.54054 0.02039 0.0
H862 H 0.95243 0.49541 0.056 0.0
H863 H 0.01438 0.49957 0.07994 0.0
H864 H 0.93331 0.49573 0.08032 0.0
H865 H 0.95397 0.49775 0.10448 0.0
H866 H 0.0685 0.5083 0.95677 0.0
H867 H 0.00931 0.50947 0.93269 0.0
H868 H 0.08818 0.50884 0.93251 0.0
H869 H 0.0688 0.5094 0.90826 0.0
Gd870 Gd 0.50499 0.50873 0.99737 0.0
Gd871 Gd 0.52058 0.49288 0.03382 0.0
C872 C 0.59718 0.53609 0.05509 0.0
C873 C 0.62006 0.52054 0.04148 0.0
C874 C 0.57655 0.50479 0.03599 0.0
C875 C 0.57599 0.5207 0.04645 0.0
C876 C 0.5985 0.50419 0.03361 0.0
C877 C 0.6194 0.53646 0.05221 0.0
C878 C 0.59509 0.54975 0.06685 0.0
C879 C 0.57198 0.54672 0.07031 0.0
N880 N 0.55422 0.51976 0.04904 0.0
C881 C 0.5515 0.53096 0.06152 0.0
H882 H 0.53347 0.52779 0.06458 0.0
C883 C 0.55467 0.47189 0.0191 0.0
N884 N 0.55542 0.48929 0.02853 0.0
C885 C 0.57588 0.4704 0.01652 0.0
C886 C 0.59799 0.48683 0.02365 0.0
H887 H 0.53785 0.45915 0.01344 0.0
H888 H 0.63596 0.54839 0.05858 0.0
H889 H 0.45277 0.45545 0.99374 0.0
H890 H 0.61091 0.56175 0.07377 0.0
H891 H 0.56987 0.55621 0.07987 0.0
H892 H 0.63716 0.52056 0.03965 0.0
H893 H 0.53114 0.56737 0.98877 0.0
H894 H 0.39188 0.46802 0.99235 0.0
H895 H 0.40808 0.43974 0.99188 0.0
H896 H 0.43098 0.55453 0.99085 0.0
H897 H 0.57519 0.45665 0.00897 0.0
H898 H 0.61442 0.48571 0.02158 0.0
H899 H 0.40061 0.51103 0.99234 0.0
H900 H 0.51907 0.59858 0.98568 0.0
N901 N 0.46202 0.49233 0.99539 0.0
C902 C 0.41157 0.47504 0.9931 0.0
C903 C 0.42065 0.45904 0.99278 0.0
C904 C 0.4281 0.49997 0.99381 0.0
C905 C 0.45355 0.50812 0.99476 0.0
C906 C 0.44608 0.46805 0.99386 0.0
N907 N 0.4947 0.53916 0.99343 0.0
C908 C 0.47051 0.53243 0.99383 0.0
C909 C 0.50523 0.58007 0.98809 0.0
C910 C 0.4805 0.5737 0.98949 0.0
C911 C 0.51198 0.56238 0.98978 0.0
C912 C 0.46269 0.5495 0.99201 0.0
H913 H 0.47528 0.58739 0.98806 0.0
O914 O 0.52535 0.52484 0.97661 0.0
O915 O 0.53311 0.50376 0.01006 0.0
O916 O 0.53382 0.533 0.03427 0.0
O917 O 0.51213 0.53853 0.01442 0.0
O918 O 0.5453 0.5359 0.99825 0.0
O919 O 0.49446 0.48847 0.97623 0.0
O920 O 0.51856 0.46249 0.04627 0.0
O921 O 0.48988 0.48947 0.01912 0.0
O922 O 0.49713 0.47008 0.99587 0.0
O923 O 0.49916 0.45812 0.02051 0.0
O924 O 0.49166 0.50155 0.04135 0.0
O925 O 0.49963 0.48058 0.05457 0.0
C926 C 0.55203 0.52365 1.0065 0.0
C927 C 0.43738 0.54169 0.99205 0.0
C928 C 0.42009 0.51692 0.9929 0.0
C929 C 0.51106 0.50614 0.96826 0.0
C930 C 0.50265 0.51077 0.95375 0.0
C931 C 0.48213 0.51402 0.95307 0.0
C932 C 0.51461 0.51074 0.94032 0.0
C933 C 0.50585 0.51345 0.92618 0.0
C934 C 0.47348 0.51691 0.93909 0.0
C935 C 0.48512 0.51647 0.9257 0.0
C936 C 0.52551 0.54571 0.02706 0.0
C937 C 0.47917 0.49568 0.02887 0.0
C938 C 0.50643 0.46488 0.05749 0.0
C939 C 0.51502 0.46501 0.0732 0.0
C940 C 0.53181 0.45709 0.07628 0.0
C941 C 0.50532 0.47197 0.0854 0.0
C942 C 0.51172 0.47054 0.10056 0.0
C943 C 0.53854 0.45589 0.09119 0.0
C944 C 0.52848 0.46232 0.10324 0.0
C945 C 0.49384 0.45352 1.00595 0.0
H946 H 0.47265 0.51402 0.9633 0.0
H947 H 0.53032 0.50799 0.94084 0.0
H948 H 0.45758 0.51934 0.93862 0.0
H949 H 0.47808 0.51873 0.91498 0.0
H950 H 0.53954 0.45154 0.0672 0.0
H951 H 0.49271 0.47849 0.08299 0.0
H952 H 0.55134 0.44955 0.09346 0.0
H953 H 0.53352 0.46028 0.11464 0.0
Gd954 Gd 0.18179 0.34738 0.36232 0.0
Gd955 Gd 0.15893 0.32304 0.32354 0.0
C956 C 0.08292 0.25609 0.31674 0.0
C957 C 0.0933 0.22695 0.30642 0.0
C958 C 0.12565 0.26789 0.31259 0.0
C959 C 0.10823 0.27355 0.31749 0.0
C960 C 0.11838 0.24476 0.30656 0.0
C961 C 0.0756 0.23259 0.31154 0.0
C962 C 0.06574 0.26296 0.32089 0.0
C963 C 0.07393 0.28694 0.32507 0.0
N964 N 0.11597 0.29648 0.32232 0.0
C965 C 0.09922 0.30365 0.32547 0.0
H966 H 0.10522 0.32208 0.32876 0.0
C967 C 0.16706 0.28214 0.30572 0.0
N968 N 0.14963 0.28561 0.31273 0.0
C969 C 0.16084 0.25945 0.29971 0.0
C970 C 0.13643 0.24054 0.30035 0.0
H971 H 0.18592 0.29677 0.30515 0.0
H972 H 0.05627 0.21886 0.31103 0.0
H973 H 0.2343 0.34533 0.35825 0.0
H974 H 0.04615 0.25007 0.32056 0.0
H975 H 0.06079 0.29257 0.32803 0.0
H976 H 0.08736 0.20897 0.30199 0.0
H977 H 0.15568 0.37744 0.37677 0.0
H978 H 0.29523 0.41557 0.3681 0.0
H979 H 0.27896 0.37294 0.36029 0.0
H980 H 0.25672 0.46063 0.38399 0.0
H981 H 0.17483 0.25658 0.29455 0.0
H982 H 0.13161 0.22302 0.29559 0.0
H983 H 0.28676 0.44822 0.37686 0.0
H984 H 0.16831 0.41845 0.3866 0.0
N985 N 0.22493 0.37205 0.36445 0.0
C986 C 0.2755 0.40349 0.36724 0.0
C987 C 0.26638 0.37944 0.36285 0.0
C988 C 0.25902 0.41154 0.37075 0.0
C989 C 0.23351 0.39513 0.36933 0.0
C990 C 0.24092 0.36379 0.36172 0.0
N991 N 0.19233 0.38566 0.37214 0.0
C992 C 0.21668 0.40216 0.37328 0.0
C993 C 0.1821 0.41414 0.38283 0.0
C994 C 0.20708 0.43169 0.38345 0.0
C995 C 0.17502 0.39097 0.37731 0.0
C996 C 0.22476 0.42573 0.37883 0.0
H997 H 0.21254 0.44962 0.38777 0.0
O998 O 0.16466 0.33895 0.38457 0.0
O999 O 0.15138 0.31928 0.34832 0.0
O1000 O 0.14874 0.35116 0.3311 0.0
O1001 O 0.17826 0.37552 0.34907 0.0
O1002 O 0.14126 0.33386 0.36583 0.0
O1003 O 0.19277 0.32983 0.37907 0.0
O1004 O 0.17886 0.33847 0.30266 0.0
O1005 O 0.18945 0.35069 0.33768 0.0
O1006 O 0.19097 0.31836 0.35576 0.0
O1007 O 0.16713 0.29617 0.33469 0.0
O1008 O 0.19946 0.33686 0.31969 0.0
O1009 O 0.14328 0.33527 0.30595 0.0
C1010 C 0.13305 0.31757 0.3553 0.0
C1011 C 0.25013 0.44238 0.37985 0.0
C1012 C 0.26724 0.4353 0.37581 0.0
C1013 C 0.17838 0.33039 0.38954 0.0
C1014 C 0.18932 0.33841 0.40477 0.0
C1015 C 0.21263 0.35903 0.40665 0.0
C1016 C 0.1765 0.32497 0.41758 0.0
C1017 C 0.187 0.33192 0.43221 0.0
C1018 C 0.2231 0.36607 0.42108 0.0
C1019 C 0.21046 0.35263 0.43376 0.0
C1020 C 0.16183 0.37202 0.33845 0.0
C1021 C 0.20778 0.35237 0.33069 0.0
C1022 C 0.16138 0.34098 0.29657 0.0
C1023 C 0.1549 0.33218 0.28081 0.0
C1024 C 0.13924 0.30752 0.27775 0.0
C1025 C 0.16569 0.34835 0.26868 0.0
C1026 C 0.16152 0.3399 0.25348 0.0
C1027 C 0.13497 0.29894 0.26287 0.0
C1028 C 0.14618 0.31484 0.25086 0.0
C1029 C 0.18199 0.29959 0.34631 0.0
H1030 H 0.22282 0.36959 0.39699 0.0
H1031 H 0.15855 0.30892 0.4161 0.0
H1032 H 0.2411 0.38202 0.42244 0.0
H1033 H 0.21891 0.3587 0.44484 0.0
H1034 H 0.13057 0.29485 0.28686 0.0
H1035 H 0.17731 0.36744 0.2712 0.0
H1036 H 0.12318 0.27979 0.26063 0.0
H1037 H 0.14305 0.30724 0.23954 0.0
Gd1038 Gd 0.6552 0.82364 0.3574 0.0
Gd1039 Gd 0.69726 0.84319 0.32448 0.0
C1040 C 0.76474 0.834 0.32052 0.0
C1041 C 0.79844 0.87551 0.32273 0.0
C1042 C 0.75593 0.86659 0.32381 0.0
C1043 C 0.74772 0.84216 0.32229 0.0
C1044 C 0.78138 0.88359 0.32396 0.0
C1045 C 0.79013 0.85078 0.3209 0.0
C1046 C 0.75572 0.8093 0.318 0.0
C1047 C 0.73036 0.79361 0.31668 0.0
N1048 N 0.72307 0.82651 0.32165 0.0
C1049 C 0.71423 0.80264 0.31829 0.0
H1050 H 0.69468 0.79031 0.31717 0.0
C1051 C 0.74616 0.89788 0.32493 0.0
N1052 N 0.73896 0.8738 0.32461 0.0
C1053 C 0.77118 0.9154 0.32538 0.0
C1054 C 0.78889 0.90823 0.32499 0.0
H1055 H 0.73257 0.90355 0.32529 0.0
H1056 H 0.80348 0.84483 0.31965 0.0
H1057 H 0.65743 0.87671 0.3624 0.0
H1058 H 0.76818 0.80228 0.31668 0.0
H1059 H 0.7232 0.77456 0.31441 0.0
H1060 H 0.81807 0.88828 0.32287 0.0
H1061 H 0.62087 0.76377 0.36172 0.0
H1062 H 0.58373 0.8642 0.36389 0.0
H1063 H 0.62876 0.89242 0.36464 0.0
H1064 H 0.5345 0.77765 0.36315 0.0
H1065 H 0.77679 0.93441 0.32598 0.0
H1066 H 0.80827 0.92185 0.32521 0.0
H1067 H 0.54863 0.82124 0.36342 0.0
H1068 H 0.57706 0.73266 0.36419 0.0
N1069 N 0.62903 0.84006 0.35954 0.0
C1070 C 0.59625 0.85722 0.36277 0.0
C1071 C 0.62164 0.87319 0.36323 0.0
C1072 C 0.58735 0.83234 0.36149 0.0
C1073 C 0.60445 0.82423 0.35992 0.0
C1074 C 0.63784 0.86419 0.36191 0.0
N1075 N 0.61374 0.7929 0.3595 0.0
C1076 C 0.59653 0.79981 0.35989 0.0
C1077 C 0.58225 0.75146 0.36285 0.0
C1078 C 0.5642 0.75817 0.36251 0.0
C1079 C 0.60708 0.76917 0.36148 0.0
C1080 C 0.57125 0.78265 0.36131 0.0
H1081 H 0.54498 0.74443 0.36364 0.0
O1082 O 0.65801 0.807 0.3781 0.0
O1083 O 0.68755 0.8248 0.34656 0.0
O1084 O 0.66572 0.8045 0.32201 0.0
O1085 O 0.63325 0.79945 0.33755 0.0
O1086 O 0.66485 0.79384 0.35833 0.0
O1087 O 0.66407 0.84351 0.37878 0.0
O1088 O 0.7003 0.86305 0.30385 0.0
O1089 O 0.66406 0.84123 0.33486 0.0
O1090 O 0.6875 0.86272 0.35927 0.0
O1091 O 0.71871 0.86213 0.34542 0.0
O1092 O 0.68758 0.87297 0.32403 0.0
O1093 O 0.68664 0.82439 0.30295 0.0
C1094 C 0.68469 0.80461 0.35045 0.0
C1095 C 0.55401 0.79055 0.36215 0.0
C1096 C 0.56206 0.81536 0.36233 0.0
C1097 C 0.66235 0.82549 0.3866 0.0
C1098 C 0.64891 0.82015 0.401 0.0
C1099 C 0.6236 0.80335 0.40168 0.0
C1100 C 0.66191 0.83142 0.41438 0.0
C1101 C 0.6499 0.82554 0.42847 0.0
C1102 C 0.61155 0.79754 0.41563 0.0
C1103 C 0.62461 0.8084 0.42897 0.0
C1104 C 0.64205 0.79307 0.32579 0.0
C1105 C 0.66701 0.86153 0.33113 0.0
C1106 C 0.69269 0.84391 0.29523 0.0
C1107 C 0.70622 0.84665 0.28115 0.0
C1108 C 0.72866 0.84676 0.28118 0.0
C1109 C 0.69565 0.84766 0.26735 0.0
C1110 C 0.70708 0.84827 0.25354 0.0
C1111 C 0.74019 0.84752 0.2675 0.0
C1112 C 0.7294 0.84808 0.25373 0.0
C1113 C 0.71119 0.87121 0.35625 0.0
H1114 H 0.61323 0.79456 0.3915 0.0
H1115 H 0.6815 0.84434 0.41387 0.0
H1116 H 0.59204 0.78448 0.4161 0.0
H1117 H 0.61491 0.80364 0.43966 0.0
H1118 H 0.73705 0.84595 0.2917 0.0
H1119 H 0.67815 0.84729 0.26733 0.0
H1120 H 0.75745 0.84748 0.26756 0.0
H1121 H 0.7386 0.8486 0.24324 0.0
Gd1122 Gd 0.1592 0.8318 0.33058 0.0
Gd1123 Gd 0.18336 0.82747 0.36758 0.0
C1124 C 0.25276 0.88954 0.38928 0.0
C1125 C 0.28483 0.88231 0.37965 0.0
C1126 C 0.24191 0.85518 0.37278 0.0
C1127 C 0.23504 0.86924 0.38103 0.0
C1128 C 0.26682 0.86112 0.37237 0.0
C1129 C 0.2778 0.89647 0.38814 0.0
C1130 C 0.24466 0.90155 0.39896 0.0
C1131 C 0.21941 0.89269 0.40064 0.0
N1132 N 0.2107 0.8619 0.38196 0.0
C1133 C 0.20256 0.87242 0.39225 0.0
H1134 H 0.18304 0.86555 0.39362 0.0
C1135 C 0.22937 0.81793 0.36036 0.0
N1136 N 0.22396 0.83452 0.36627 0.0
C1137 C 0.25382 0.82307 0.35954 0.0
C1138 C 0.2727 0.84498 0.36532 0.0
H1139 H 0.21491 0.80086 0.35596 0.0
H1140 H 0.29174 0.91222 0.39422 0.0
H1141 H 0.10188 0.78423 0.33154 0.0
H1142 H 0.25768 0.91714 0.40557 0.0
H1143 H 0.21292 0.9014 0.40843 0.0
H1144 H 0.3041 0.88735 0.37929 0.0
H1145 H 0.19333 0.88862 0.31729 0.0
H1146 H 0.0507 0.81005 0.32991 0.0
H1147 H 0.05905 0.77615 0.33179 0.0
H1148 H 0.10238 0.89475 0.32024 0.0
H1149 H 0.25807 0.81013 0.35445 0.0
H1150 H 0.29159 0.84882 0.3648 0.0
H1151 H 0.06712 0.85451 0.32586 0.0
H1152 H 0.18834 0.92374 0.31173 0.0
N1153 N 0.11774 0.82239 0.3299 0.0
C1154 C 0.06955 0.81371 0.32976 0.0
C1155 C 0.07418 0.79452 0.33079 0.0
C1156 C 0.08926 0.83726 0.32793 0.0
C1157 C 0.11343 0.841 0.32784 0.0
C1158 C 0.09852 0.7992 0.33067 0.0
N1159 N 0.15594 0.86597 0.32387 0.0
C1160 C 0.13315 0.86352 0.3246 0.0
C1161 C 0.1727 0.90695 0.31546 0.0
C1162 C 0.14968 0.90514 0.31715 0.0
C1163 C 0.17544 0.88697 0.31862 0.0
C1164 C 0.12943 0.8831 0.32149 0.0
H1165 H 0.14761 0.92064 0.31466 0.0
O1166 O 0.17815 0.83431 0.30946 0.0
O1167 O 0.1892 0.82935 0.34276 0.0
O1168 O 0.19627 0.8669 0.36223 0.0
O1169 O 0.16598 0.86341 0.34534 0.0
O1170 O 0.20002 0.85686 0.32738 0.0
O1171 O 0.13945 0.80877 0.31124 0.0
O1172 O 0.18756 0.80161 0.38142 0.0
O1173 O 0.14943 0.81764 0.354 0.0
O1174 O 0.14435 0.79238 0.33627 0.0
O1175 O 0.17237 0.79305 0.35391 0.0
O1176 O 0.15231 0.83313 0.37517 0.0
O1177 O 0.16182 0.81282 0.3881 0.0
C1178 C 0.20785 0.84634 0.33639 0.0
C1179 C 0.10558 0.87985 0.32241 0.0
C1180 C 0.08552 0.85695 0.32563 0.0
C1181 C 0.15839 0.81861 0.30234 0.0
C1182 C 0.15461 0.8259 0.28725 0.0
C1183 C 0.14545 0.84181 0.28564 0.0
C1184 C 0.16131 0.81767 0.27432 0.0
C1185 C 0.15921 0.82554 0.25981 0.0
C1186 C 0.14336 0.84971 0.27129 0.0
C1187 C 0.1503 0.84175 0.25843 0.0
C1188 C 0.18326 0.87551 0.35563 0.0
C1189 C 0.13846 0.82397 0.36339 0.0
C1190 C 0.17395 0.80228 0.39231 0.0
C1191 C 0.18498 0.80867 0.40772 0.0
C1192 C 0.20964 0.81486 0.41019 0.0
C1193 C 0.17126 0.81002 0.41997 0.0
C1194 C 0.18209 0.81774 0.43447 0.0
C1195 C 0.22035 0.82222 0.42452 0.0
C1196 C 0.20676 0.82368 0.43657 0.0
C1197 C 0.155 0.78178 0.34341 0.0
H1198 H 0.14003 0.84821 0.29544 0.0
H1199 H 0.16855 0.80549 0.27558 0.0
H1200 H 0.13634 0.86205 0.27012 0.0
H1201 H 0.1483 0.84794 0.2474 0.0
H1202 H 0.22082 0.8143 0.40103 0.0
H1203 H 0.15239 0.8057 0.41809 0.0
H1204 H 0.23934 0.82692 0.42629 0.0
H1205 H 0.21556 0.82924 0.44758 0.0
Gd1206 Gd 0.84485 0.69061 0.69605 0.0
Gd1207 Gd 0.8344 0.65577 0.66021 0.0
C1208 C 0.77294 0.57707 0.65537 0.0
C1209 C 0.79603 0.55586 0.65352 0.0
C1210 C 0.81755 0.59974 0.65571 0.0
C1211 C 0.79531 0.59926 0.6564 0.0
C1212 C 0.81822 0.5781 0.65398 0.0
C1213 C 0.77343 0.55534 0.65423 0.0
C1214 C 0.7508 0.57743 0.65522 0.0
C1215 C 0.7514 0.59959 0.65557 0.0
N1216 N 0.79555 0.62058 0.6575 0.0
C1217 C 0.77407 0.62112 0.6565 0.0
H1218 H 0.7742 0.63807 0.6569 0.0
C1219 C 0.86096 0.62313 0.65403 0.0
N1220 N 0.8386 0.62152 0.65621 0.0
C1221 C 0.86259 0.60217 0.65234 0.0
C1222 C 0.84114 0.57953 0.65246 0.0
H1223 H 0.87763 0.64056 0.65404 0.0
H1224 H 0.75644 0.5381 0.65357 0.0
H1225 H 0.90519 0.70867 0.69862 0.0
H1226 H 0.73322 0.56078 0.65453 0.0
H1227 H 0.7344 0.60011 0.65523 0.0
H1228 H 0.79615 0.53901 0.65234 0.0
H1229 H 0.8018 0.70528 0.7041 0.0
H1230 H 0.94588 0.78598 0.70073 0.0
H1231 H 0.94493 0.74677 0.6998 0.0
H1232 H 0.88265 0.80715 0.7048 0.0
H1233 H 0.88038 0.60348 0.65098 0.0
H1234 H 0.84245 0.56332 0.65113 0.0
H1235 H 0.92244 0.80842 0.70246 0.0
H1236 H 0.79885 0.74212 0.70794 0.0
N1237 N 0.88366 0.72597 0.6984 0.0
C1238 C 0.92833 0.76927 0.70021 0.0
C1239 C 0.92787 0.74718 0.69974 0.0
C1240 C 0.90611 0.76948 0.7005 0.0
C1241 C 0.8838 0.74721 0.6997 0.0
C1242 C 0.90524 0.72557 0.69908 0.0
N1243 N 0.84062 0.72465 0.70086 0.0
C1244 C 0.86154 0.74653 0.70101 0.0
C1245 C 0.8166 0.74363 0.70596 0.0
C1246 C 0.83787 0.76638 0.70545 0.0
C1247 C 0.81834 0.7228 0.70381 0.0
C1248 C 0.86077 0.76804 0.70316 0.0
H1249 H 0.83648 0.78248 0.70712 0.0
O1250 O 0.82339 0.67678 0.71659 0.0
O1251 O 0.82205 0.65619 0.68361 0.0
O1252 O 0.81278 0.67561 0.66117 0.0
O1253 O 0.83263 0.70791 0.67831 0.0
O1254 O 0.80328 0.66794 0.69706 0.0
O1255 O 0.86204 0.68762 0.71683 0.0
O1256 O 0.85601 0.6681 0.63968 0.0
O1257 O 0.85713 0.69047 0.6725 0.0
O1258 O 0.86669 0.67076 0.69476 0.0
O1259 O 0.84457 0.63789 0.6784 0.0
O1260 O 0.87595 0.67835 0.65938 0.0
O1261 O 0.81776 0.65897 0.63929 0.0
C1262 C 0.80089 0.65069 0.68827 0.0
C1263 C 0.88285 0.79039 0.70331 0.0
C1264 C 0.9055 0.79111 0.70197 0.0
C1265 C 0.84184 0.67915 0.7247 0.0
C1266 C 0.84374 0.68855 0.74024 0.0
C1267 C 0.84961 0.71251 0.74281 0.0
C1268 C 0.83815 0.67281 0.75263 0.0
C1269 C 0.83778 0.68067 0.76761 0.0
C1270 C 0.8496 0.7206 0.75753 0.0
C1271 C 0.84357 0.70487 0.7698 0.0
C1272 C 0.81769 0.69702 0.66662 0.0
C1273 C 0.87831 0.69586 0.6679 0.0
C1274 C 0.83778 0.66601 0.63142 0.0
C1275 C 0.83512 0.6552 0.61627 0.0
C1276 C 0.83135 0.63174 0.61452 0.0
C1277 C 0.83773 0.6691 0.60337 0.0
C1278 C 0.83701 0.65985 0.58872 0.0
C1279 C 0.83051 0.6224 0.60004 0.0
C1280 C 0.83346 0.63636 0.58722 0.0
C1281 C 0.86053 0.64887 0.68956 0.0
H1282 H 0.85385 0.72482 0.73342 0.0
H1283 H 0.83402 0.65443 0.75047 0.0
H1284 H 0.8539 0.73908 0.75944 0.0
H1285 H 0.84294 0.71166 0.78095 0.0
H1286 H 0.82933 0.62079 0.62432 0.0
H1287 H 0.84087 0.68733 0.60475 0.0
H1288 H 0.82766 0.6043 0.59874 0.0
H1289 H 0.8326 0.62865 0.57611 0.0
Gd1290 Gd 0.31954 0.16084 0.69054 0.0
Gd1291 Gd 0.36305 0.18609 0.65831 0.0
C1292 C 0.42915 0.17377 0.65863 0.0
C1293 C 0.46361 0.21478 0.66128 0.0
C1294 C 0.42165 0.20743 0.65958 0.0
C1295 C 0.41272 0.18286 0.65851 0.0
C1296 C 0.44724 0.22375 0.66062 0.0
C1297 C 0.45457 0.18982 0.66031 0.0
C1298 C 0.41959 0.14886 0.6569 0.0
C1299 C 0.39431 0.13376 0.65475 0.0
N1300 N 0.38801 0.16787 0.65709 0.0
C1301 C 0.37875 0.14359 0.65473 0.0
H1302 H 0.35933 0.13136 0.65323 0.0
C1303 C 0.41354 0.23973 0.6581 0.0
N1304 N 0.40535 0.21546 0.65901 0.0
C1305 C 0.4387 0.25663 0.65913 0.0
C1306 C 0.45563 0.24861 0.66062 0.0
H1307 H 0.40045 0.24601 0.65706 0.0
H1308 H 0.46742 0.18313 0.66061 0.0
H1309 H 0.31151 0.20841 0.69615 0.0
H1310 H 0.43158 0.14118 0.65698 0.0
H1311 H 0.38674 0.11447 0.65324 0.0
H1312 H 0.48331 0.227 0.66225 0.0
H1313 H 0.29378 0.1011 0.69442 0.0
H1314 H 0.23427 0.18375 0.69487 0.0
H1315 H 0.2774 0.21708 0.69742 0.0
H1316 H 0.19767 0.09748 0.69262 0.0
H1317 H 0.44502 0.2758 0.65876 0.0
H1318 H 0.47514 0.26173 0.6614 0.0
H1319 H 0.20459 0.139 0.69291 0.0
H1320 H 0.25218 0.06516 0.69606 0.0
N1321 N 0.28812 0.17075 0.69189 0.0
C1322 C 0.2492 0.17987 0.69413 0.0
C1323 C 0.27351 0.19871 0.69562 0.0
C1324 C 0.24444 0.15609 0.69242 0.0
C1325 C 0.26457 0.15207 0.69143 0.0
C1326 C 0.29281 0.19371 0.69482 0.0
N1327 N 0.28057 0.12574 0.69167 0.0
C1328 C 0.26065 0.12877 0.6914 0.0
C1329 C 0.25428 0.08292 0.69462 0.0
C1330 C 0.23353 0.0856 0.69357 0.0
C1331 C 0.27781 0.10331 0.69372 0.0
C1332 C 0.23654 0.10877 0.69217 0.0
H1333 H 0.21531 0.06977 0.69426 0.0
O1334 O 0.32095 0.14414 0.71168 0.0
O1335 O 0.35517 0.16881 0.68071 0.0
O1336 O 0.333 0.1471 0.65399 0.0
O1337 O 0.30007 0.1363 0.67056 0.0
O1338 O 0.337 0.13705 0.69228 0.0
O1339 O 0.3257 0.18025 0.71173 0.0
O1340 O 0.37046 0.20885 0.63865 0.0
O1341 O 0.32744 0.17932 0.66815 0.0
O1342 O 0.34647 0.20097 0.69419 0.0
O1343 O 0.38017 0.21118 0.67833 0.0
O1344 O 0.34964 0.21288 0.65852 0.0
O1345 O 0.35353 0.17013 0.63564 0.0
C1346 C 0.35706 0.15116 0.68522 0.0
C1347 C 0.21635 0.11262 0.69219 0.0
C1348 C 0.2203 0.13626 0.69235 0.0
C1349 C 0.32399 0.16251 0.71988 0.0
C1350 C 0.30947 0.15719 0.7338 0.0
C1351 C 0.28518 0.15277 0.73352 0.0
C1352 C 0.32074 0.15799 0.7477 0.0
C1353 C 0.30808 0.15487 0.76138 0.0
C1354 C 0.27244 0.14952 0.74708 0.0
C1355 C 0.28385 0.15073 0.76096 0.0
C1356 C 0.30994 0.13246 0.65836 0.0
C1357 C 0.32877 0.19919 0.66492 0.0
C1358 C 0.36007 0.19075 0.62916 0.0
C1359 C 0.3426 0.19133 0.61816 0.0
C1360 C 0.32752 0.20091 0.62222 0.0
C1361 C 0.34189 0.1834 0.60318 0.0
C1362 C 0.32647 0.18529 0.59225 0.0
C1363 C 0.31213 0.20269 0.61153 0.0
C1364 C 0.31156 0.19497 0.59666 0.0
C1365 C 0.36973 0.21519 0.69015 0.0
H1366 H 0.27623 0.15217 0.72291 0.0
H1367 H 0.33963 0.16169 0.74789 0.0
H1368 H 0.25374 0.14621 0.74683 0.0
H1369 H 0.27368 0.14819 0.77134 0.0
H1370 H 0.32797 0.20757 0.63351 0.0
H1371 H 0.35352 0.176 0.60005 0.0
H1372 H 0.30103 0.21061 0.61472 0.0
H1373 H 0.29996 0.19729 0.58852 0.0
Gd1374 Gd 0.83088 0.16791 0.66299 0.0
Gd1375 Gd 0.85195 0.16484 0.70112 0.0
C1376 C 0.92074 0.22267 0.72572 0.0
C1377 C 0.95289 0.21629 0.71528 0.0
C1378 C 0.91028 0.19099 0.70708 0.0
C1379 C 0.90331 0.20404 0.71626 0.0
C1380 C 0.93507 0.19649 0.70682 0.0
C1381 C 0.94572 0.22933 0.72476 0.0
C1382 C 0.91231 0.23303 0.73646 0.0
C1383 C 0.88701 0.22394 0.73802 0.0
N1384 N 0.87904 0.19687 0.71705 0.0
C1385 C 0.87051 0.20545 0.72833 0.0
H1386 H 0.85093 0.1984 0.72957 0.0
C1387 C 0.89787 0.15585 0.69228 0.0
N1388 N 0.89245 0.17163 0.69941 0.0
C1389 C 0.92214 0.16046 0.6917 0.0
C1390 C 0.94095 0.1812 0.69869 0.0
H1391 H 0.88361 0.13972 0.68694 0.0
H1392 H 0.95945 0.24385 0.73177 0.0
H1393 H 0.79322 0.10752 0.66346 0.0
H1394 H 0.92507 0.2473 0.74401 0.0
H1395 H 0.8802 0.23118 0.74666 0.0
H1396 H 0.97207 0.22099 0.71506 0.0
H1397 H 0.8343 0.21871 0.6502 0.0
H1398 H 0.71858 0.09177 0.66226 0.0
H1399 H 0.74903 0.07791 0.66337 0.0
H1400 H 0.72624 0.16977 0.65624 0.0
H1401 H 0.92625 0.1479 0.68595 0.0
H1402 H 0.95974 0.18471 0.69823 0.0
H1403 H 0.71025 0.12629 0.66024 0.0
H1404 H 0.80729 0.23628 0.6468 0.0
N1405 N 0.78852 0.13829 0.66298 0.0
C1406 C 0.7381 0.10494 0.66235 0.0
C1407 C 0.75522 0.09706 0.663 0.0
C1408 C 0.74643 0.12972 0.66147 0.0
C1409 C 0.77207 0.14609 0.66157 0.0
C1410 C 0.78044 0.11405 0.66319 0.0
N1411 N 0.80569 0.18508 0.6583 0.0
C1412 C 0.78099 0.17041 0.65944 0.0
C1413 C 0.79964 0.21783 0.65064 0.0
C1414 C 0.77436 0.20352 0.65311 0.0
C1415 C 0.81496 0.20799 0.65283 0.0
C1416 C 0.76462 0.17923 0.65705 0.0
H1417 H 0.76244 0.21101 0.65119 0.0
O1418 O 0.84241 0.18417 0.64073 0.0
O1419 O 0.86237 0.17128 0.67676 0.0
O1420 O 0.86231 0.204 0.69767 0.0
O1421 O 0.8404 0.20285 0.67569 0.0
O1422 O 0.86983 0.19871 0.66144 0.0
O1423 O 0.82794 0.14587 0.64339 0.0
O1424 O 0.85491 0.1387 0.71537 0.0
O1425 O 0.81883 0.15375 0.68626 0.0
O1426 O 0.83729 0.13627 0.66386 0.0
O1427 O 0.84011 0.1288 0.68943 0.0
O1428 O 0.82113 0.17179 0.70649 0.0
O1429 O 0.8296 0.15083 0.72143 0.0
C1430 C 0.87937 0.19088 0.67128 0.0
C1431 C 0.7391 0.16328 0.65786 0.0
C1432 C 0.73 0.13853 0.66008 0.0
C1433 C 0.83616 0.16376 0.63395 0.0
C1434 C 0.82281 0.159 0.61949 0.0
C1435 C 0.79877 0.15513 0.61886 0.0
C1436 C 0.83424 0.15765 0.60616 0.0
C1437 C 0.82168 0.152 0.59213 0.0
C1438 C 0.78623 0.14981 0.60501 0.0
C1439 C 0.79749 0.14814 0.59175 0.0
C1440 C 0.854 0.21406 0.68789 0.0
C1441 C 0.80771 0.16131 0.69472 0.0
C1442 C 0.84121 0.13993 0.72601 0.0
C1443 C 0.85197 0.14644 0.74148 0.0
C1444 C 0.87685 0.1535 0.74404 0.0
C1445 C 0.83783 0.14723 0.75366 0.0
C1446 C 0.84843 0.15518 0.76819 0.0
C1447 C 0.88736 0.16115 0.75839 0.0
C1448 C 0.87334 0.16201 0.77037 0.0
C1449 C 0.83776 0.12272 0.67492 0.0
H1450 H 0.78968 0.15603 0.62905 0.0
H1451 H 0.85299 0.16105 0.60679 0.0
H1452 H 0.76759 0.14668 0.60457 0.0
H1453 H 0.78702 0.14335 0.58127 0.0
H1454 H 0.88836 0.15343 0.73493 0.0
H1455 H 0.81878 0.14227 0.7517 0.0
H1456 H 0.90653 0.16655 0.76022 0.0
H1457 H 0.882 0.16778 0.78141 0.0
H1458 H 0.32695 0.89864 0.05385 0.0
H1459 H 0.34433 0.84094 0.05377 0.0
H1460 H 0.38323 0.86732 0.04025 0.0
H1461 H 0.35595 0.92591 0.01674 0.0
H1462 H 0.36738 0.95629 0.02372 0.0
H1463 H 0.33915 0.93175 0.03111 0.0
H1464 H 0.35709 0.94302 0.05839 0.0
H1465 H 0.38526 0.96751 0.05107 0.0
H1466 H 0.3861 0.94473 0.06262 0.0
H1467 H 0.42161 0.90087 0.02862 0.0
H1468 H 0.45797 0.93992 0.0218 0.0
H1469 H 0.41672 0.97652 0.03067 0.0
C1470 C 0.33872 0.89147 0.05062 0.0
C1471 C 0.33266 0.86776 0.05463 0.0
C1472 C 0.34872 0.85907 0.05068 0.0
C1473 C 0.37072 0.87385 0.04293 0.0
C1474 C 0.37644 0.89732 0.03932 0.0
C1475 C 0.36096 0.90614 0.0431 0.0
C1476 C 0.37264 0.9328 0.03941 0.0
C1477 C 0.35789 0.93692 0.02701 0.0
C1478 C 0.37544 0.94789 0.05373 0.0
C1479 C 0.39742 0.93779 0.03354 0.0
C1480 C 0.39899 0.91695 0.03316 0.0
C1481 C 0.42047 0.91724 0.02869 0.0
C1482 C 0.441 0.93947 0.02478 0.0
C1483 C 0.43991 0.96108 0.02545 0.0
C1484 C 0.41781 0.96014 0.02982 0.0
H1485 H 0.14485 0.49256 0.05148 0.0
H1486 H 0.11367 0.41498 0.04617 0.0
H1487 H 0.07797 0.41237 0.03263 0.0
H1488 H 0.0885 0.49129 0.05848 0.0
H1489 H 0.09657 0.5185 0.04811 0.0
H1490 H 0.12038 0.51441 0.05657 0.0
H1491 H 0.14113 0.52201 0.03064 0.0
H1492 H 0.11674 0.52426 0.02127 0.0
H1493 H 0.12495 0.50227 0.01493 0.0
H1494 H 0.04361 0.41713 0.0224 0.0
H1495 H 0.0133 0.42948 0.01529 0.0
H1496 H 0.06711 0.50414 0.0255 0.0
C1497 C 0.13071 0.47511 0.04722 0.0
C1498 C 0.13205 0.45394 0.04996 0.0
C1499 C 0.11294 0.43139 0.04441 0.0
C1500 C 0.09265 0.42974 0.03659 0.0
C1501 C 0.0917 0.45082 0.03428 0.0
C1502 C 0.11021 0.47311 0.03938 0.0
C1503 C 0.10398 0.49276 0.03598 0.0
C1504 C 0.10225 0.50494 0.05066 0.0
C1505 C 0.12281 0.51146 0.02505 0.0
C1506 C 0.07888 0.47791 0.02846 0.0
C1507 C 0.07219 0.45374 0.02761 0.0
C1508 C 0.04886 0.43607 0.02262 0.0
C1509 C 0.03178 0.4432 0.01862 0.0
C1510 C 0.03824 0.46781 0.01929 0.0
C1511 C 0.06216 0.4854 0.02415 0.0
H1512 H 0.5624 0.68432 0.04079 0.0
H1513 H 0.54574 0.66559 0.0881 0.0
H1514 H 0.53197 0.62282 0.08196 0.0
H1515 H 0.51162 0.62805 0.02466 0.0
H1516 H 0.53 0.6268 0.00941 0.0
H1517 H 0.53677 0.65563 0.01725 0.0
H1518 H 0.58176 0.666 0.02257 0.0
H1519 H 0.57497 0.63715 0.0148 0.0
H1520 H 0.58728 0.64559 0.03375 0.0
H1521 H 0.52047 0.58286 0.07108 0.0
H1522 H 0.5143 0.54751 0.05625 0.0
H1523 H 0.54088 0.59156 0.01596 0.0
C1524 C 0.55559 0.67104 0.04975 0.0
C1525 C 0.55488 0.67793 0.0649 0.0
C1526 C 0.54628 0.66041 0.07646 0.0
C1527 C 0.53837 0.63617 0.07306 0.0
C1528 C 0.53939 0.62985 0.05806 0.0
C1529 C 0.5479 0.6467 0.04657 0.0
C1530 C 0.5483 0.6351 0.03157 0.0
C1531 C 0.53061 0.63648 0.02004 0.0
C1532 C 0.57465 0.64665 0.02531 0.0
C1533 C 0.53899 0.60922 0.0365 0.0
C1534 C 0.5337 0.60668 0.05181 0.0
C1535 C 0.52487 0.58468 0.05914 0.0
C1536 C 0.52181 0.56479 0.05069 0.0
C1537 C 0.52796 0.56705 0.03515 0.0
C1538 C 0.53618 0.58942 0.02786 0.0
H1539 H 0.85439 0.33256 0.97221 0.0
H1540 H 0.89615 0.32864 0.93411 0.0
H1541 H 0.93121 0.36803 0.94141 0.0
H1542 H 0.87773 0.39798 0.96919 0.0
H1543 H 0.87883 0.40269 0.9894 0.0
H1544 H 0.85638 0.37398 0.98128 0.0
H1545 H 0.87234 0.3521 0.99868 0.0
H1546 H 0.89471 0.38079 1.00679 0.0
H1547 H 0.90462 0.36124 0.99848 0.0
H1548 H 0.96224 0.40602 0.95301 0.0
H1549 H 0.9879 0.44268 0.96767 0.0
H1550 H 0.92643 0.42553 0.99769 0.0
C1551 C 0.8708 0.34011 0.96531 0.0
C1552 C 0.87254 0.32711 0.95271 0.0
C1553 C 0.89447 0.33772 0.94405 0.0
C1554 C 0.91448 0.36026 0.94801 0.0
C1555 C 0.9123 0.37233 0.96055 0.0
C1556 C 0.89104 0.3629 0.96902 0.0
C1557 C 0.89398 0.38 0.982 0.0
C1558 C 0.87564 0.38921 0.98036 0.0
C1559 C 0.89125 0.36779 0.9974 0.0
C1560 C 0.92032 0.40027 0.97952 0.0
C1561 C 0.93036 0.39521 0.96709 0.0
C1562 C 0.95455 0.41035 0.96268 0.0
C1563 C 0.96902 0.43128 0.9712 0.0
C1564 C 0.95938 0.43729 0.984 0.0
C1565 C 0.9345 0.42155 0.98809 0.0
H1566 H 0.65811 0.51707 0.96087 0.0
H1567 H 0.71015 0.58304 0.98438 0.0
H1568 H 0.67644 0.58037 1.0003 0.0
H1569 H 0.60962 0.53124 0.95947 0.0
H1570 H 0.58524 0.50039 0.96181 0.0
H1571 H 0.61376 0.50661 0.95313 0.0
H1572 H 0.61844 0.47946 0.97281 0.0
H1573 H 0.5903 0.47353 0.98195 0.0
H1574 H 0.61863 0.4859 0.99271 0.0
H1575 H 0.63677 0.57207 0.01254 0.0
H1576 H 0.5937 0.55968 0.01932 0.0
H1577 H 0.5671 0.49919 0.98802 0.0
C1578 C 0.6624 0.53074 0.96952 0.0
C1579 C 0.68678 0.5502 0.97148 0.0
C1580 C 0.69161 0.56803 0.98268 0.0
C1581 C 0.6726 0.56657 0.99183 0.0
C1582 C 0.64875 0.54724 0.98959 0.0
C1583 C 0.64353 0.52975 0.97862 0.0
C1584 C 0.61604 0.51187 0.97778 0.0
C1585 C 0.60556 0.51258 0.96212 0.0
C1586 C 0.61052 0.48616 0.98155 0.0
C1587 C 0.60663 0.52198 0.99002 0.0
C1588 C 0.62584 0.54235 0.99674 0.0
C1589 C 0.62164 0.55589 1.00757 0.0
C1590 C 0.59719 0.5487 0.01141 0.0
C1591 C 0.57729 0.52791 1.00471 0.0
C1592 C 0.58211 0.51445 0.99386 0.0
H1593 H 0.44712 0.10886 0.95008 0.0
H1594 H 0.48254 0.17054 0.98082 0.0
H1595 H 0.49389 0.14714 0.99776 0.0
H1596 H 0.42145 0.06331 0.97931 0.0
H1597 H 0.42628 0.04167 0.96889 0.0
H1598 H 0.42117 0.06333 0.95889 0.0
H1599 H 0.46208 0.07809 0.94435 0.0
H1600 H 0.46727 0.05645 0.95429 0.0
H1601 H 0.49031 0.08811 0.95485 0.0
H1602 H 0.50252 0.11781 0.01102 0.0
H1603 H 0.50733 0.08407 0.02 0.0
H1604 H 0.4639 0.04015 0.98174 0.0
C1605 C 0.45709 0.11741 0.96043 0.0
C1606 C 0.46413 0.1417 0.96399 0.0
C1607 C 0.4774 0.1522 0.97761 0.0
C1608 C 0.48375 0.13898 0.9874 0.0
C1609 C 0.47654 0.11517 0.98354 0.0
C1610 C 0.46345 0.10441 0.97042 0.0
C1611 C 0.45799 0.07848 0.96899 0.0
C1612 C 0.43006 0.06065 0.96903 0.0
C1613 C 0.47014 0.07509 0.95478 0.0
C1614 C 0.47014 0.07645 0.98334 0.0
C1615 C 0.48078 0.09786 0.99152 0.0
C1616 C 0.49394 0.10081 1.00484 0.0
C1617 C 0.4964 0.08139 0.00993 0.0
C1618 C 0.48551 0.05912 1.00184 0.0
C1619 C 0.47212 0.05671 0.98837 0.0
H1620 H 0.67299 0.10778 0.96957 0.0
H1621 H 0.65601 0.16576 0.96964 0.0
H1622 H 0.6181 0.14022 0.98429 0.0
H1623 H 0.61304 0.06155 0.96256 0.0
H1624 H 0.61475 0.03928 0.97416 0.0
H1625 H 0.6423 0.06334 0.96593 0.0
H1626 H 0.66239 0.07575 0.99265 0.0
H1627 H 0.63473 0.05169 1.00094 0.0
H1628 H 0.64685 0.08241 1.00746 0.0
H1629 H 0.58064 0.10739 0.99721 0.0
H1630 H 0.54453 0.06874 1.00467 0.0
H1631 H 0.58474 0.03135 0.99508 0.0
C1632 C 0.66151 0.1152 0.973 0.0
C1633 C 0.66743 0.13876 0.96869 0.0
C1634 C 0.65173 0.14775 0.97293 0.0
C1635 C 0.63032 0.13346 0.98134 0.0
C1636 C 0.62482 0.11016 0.98532 0.0
C1637 C 0.63987 0.10102 0.98117 0.0
C1638 C 0.62839 0.07455 0.98531 0.0
C1639 C 0.62438 0.05876 0.97115 0.0
C1640 C 0.64403 0.07089 0.9973 0.0
C1641 C 0.60417 0.07 0.9919 0.0
C1642 C 0.60276 0.09094 0.99223 0.0
C1643 C 0.58167 0.09096 0.99719 0.0
C1644 C 0.56125 0.06892 1.00151 0.0
C1645 C 0.56204 0.04715 1.00072 0.0
C1646 C 0.58389 0.04784 0.99605 0.0
H1647 H 0.87392 0.51307 0.96176 0.0
H1648 H 0.90559 0.59032 0.96908 0.0
H1649 H 0.94234 0.59229 0.98078 0.0
H1650 H 0.89499 0.502 0.99675 0.0
H1651 H 0.90289 0.48003 0.98994 0.0
H1652 H 0.87853 0.48274 0.98093 0.0
H1653 H 0.89877 0.49112 0.95485 0.0
H1654 H 0.92253 0.48643 0.9628 0.0
H1655 H 0.93071 0.51404 0.95289 0.0
H1656 H 0.97706 0.5869 0.98949 0.0
H1657 H 0.0067 0.57379 0.99664 0.0
H1658 H 0.95195 0.49938 0.98632 0.0
C1659 C 0.88864 0.53037 0.96582 0.0
C1660 C 0.88685 0.55157 0.96453 0.0
C1661 C 0.90642 0.57383 0.97008 0.0
C1662 C 0.92742 0.57514 0.9767 0.0
C1663 C 0.92858 0.55399 0.97789 0.0
C1664 C 0.90971 0.53196 0.97271 0.0
C1665 C 0.91572 0.51197 0.97561 0.0
C1666 C 0.89693 0.49303 0.98646 0.0
C1667 C 0.91701 0.5002 0.96065 0.0
C1668 C 0.94103 0.52632 0.98301 0.0
C1669 C 0.94812 0.55058 0.98402 0.0
C1670 C 0.97152 0.5679 0.98909 0.0
C1671 C 0.98823 0.56032 0.99312 0.0
C1672 C 0.98131 0.53557 0.99253 0.0
C1673 C 0.95733 0.5183 0.98747 0.0
H1674 H 0.46709 0.3444 0.94984 0.0
H1675 H 0.413 0.2964 0.98243 0.0
H1676 H 0.42252 0.33138 0.99874 0.0
H1677 H 0.51108 0.38583 0.9757 0.0
H1678 H 0.51879 0.41242 0.96475 0.0
H1679 H 0.50779 0.38367 0.95536 0.0
H1680 H 0.47262 0.3876 0.94268 0.0
H1681 H 0.48368 0.41651 0.9519 0.0
H1682 H 0.45214 0.39287 0.95432 0.0
H1683 H 0.44009 0.37103 0.01252 0.0
H1684 H 0.46101 0.41359 0.02138 0.0
H1685 H 0.5005 0.43639 0.97889 0.0
C1686 C 0.45684 0.34117 0.96024 0.0
C1687 C 0.43956 0.31738 0.96488 0.0
C1688 C 0.42686 0.31422 0.97874 0.0
C1689 C 0.43198 0.33404 0.98807 0.0
C1690 C 0.44948 0.35706 0.98331 0.0
C1691 C 0.46136 0.36081 0.96959 0.0
C1692 C 0.47912 0.38753 0.96707 0.0
C1693 C 0.50577 0.39265 0.96564 0.0
C1694 C 0.47142 0.39666 0.95317 0.0
C1695 C 0.47559 0.39811 0.98163 0.0
C1696 C 0.45859 0.38016 0.9909 0.0
C1697 C 0.45318 0.38528 1.00528 0.0
C1698 C 0.46525 0.40944 0.01025 0.0
C1699 C 0.4822 0.42815 1.00077 0.0
C1700 C 0.48737 0.42239 0.98627 0.0
H1701 H 0.11407 0.67096 0.06091 0.0
H1702 H 0.17886 0.66309 0.06329 0.0
H1703 H 0.15554 0.62272 0.05124 0.0
H1704 H 0.07013 0.60842 0.06969 0.0
H1705 H 0.04663 0.60655 0.05701 0.0
H1706 H 0.06839 0.63516 0.06555 0.0
H1707 H 0.08088 0.65443 0.03895 0.0
H1708 H 0.05908 0.62591 0.03036 0.0
H1709 H 0.09101 0.64077 0.02488 0.0
H1710 H 0.12634 0.5845 0.03818 0.0
H1711 H 0.09197 0.54904 0.02577 0.0
H1712 H 0.0445 0.57957 0.03308 0.0
C1713 C 0.12326 0.66068 0.05881 0.0
C1714 C 0.14823 0.67002 0.06296 0.0
C1715 C 0.15971 0.65611 0.06022 0.0
C1716 C 0.14665 0.63324 0.05337 0.0
C1717 C 0.12204 0.62443 0.0495 0.0
C1718 C 0.11032 0.63755 0.05219 0.0
C1719 C 0.08353 0.62346 0.04714 0.0
C1720 C 0.06614 0.61808 0.06066 0.0
C1721 C 0.07833 0.63695 0.03459 0.0
C1722 C 0.08214 0.60051 0.04109 0.0
C1723 C 0.10468 0.60164 0.04249 0.0
C1724 C 0.10853 0.58326 0.03716 0.0
C1725 C 0.08886 0.56319 0.03013 0.0
C1726 C 0.0655 0.56145 0.02864 0.0
C1727 C 0.06204 0.58027 0.03432 0.0
H1728 H 0.36217 0.50246 0.05685 0.0
H1729 H 0.3189 0.42508 0.04857 0.0
H1730 H 0.35529 0.42572 0.03735 0.0
H1731 H 0.39835 0.51665 0.0222 0.0
H1732 H 0.42667 0.53961 0.03079 0.0
H1733 H 0.39742 0.53421 0.03795 0.0
H1734 H 0.40786 0.52636 0.06483 0.0
H1735 H 0.43766 0.53273 0.05824 0.0
H1736 H 0.41768 0.50447 0.0675 0.0
H1737 H 0.39737 0.43385 0.02984 0.0
H1738 H 0.4417 0.4496 0.02491 0.0
H1739 H 0.45741 0.522 0.03636 0.0
C1740 C 0.36034 0.48569 0.05259 0.0
C1741 C 0.33763 0.4637 0.05356 0.0
C1742 C 0.33598 0.44217 0.04778 0.0
C1743 C 0.35658 0.44235 0.04143 0.0
C1744 C 0.3787 0.46426 0.04073 0.0
C1745 C 0.38069 0.4856 0.04601 0.0
C1746 C 0.40678 0.50659 0.04417 0.0
C1747 C 0.40735 0.52539 0.03312 0.0
C1748 C 0.41816 0.51821 0.0596 0.0
C1749 C 0.41928 0.49359 0.03745 0.0
C1750 C 0.40273 0.46917 0.03555 0.0
C1751 C 0.41033 0.45305 0.03082 0.0
C1752 C 0.43546 0.46214 0.02793 0.0
C1753 C 0.45257 0.48714 0.02941 0.0
C1754 C 0.4444 0.50299 0.03439 0.0
H1755 H 0.53769 0.87929 0.06679 0.0
H1756 H 0.5882 0.88346 0.03164 0.0
H1757 H 0.57838 0.91014 0.01692 0.0
H1758 H 0.4926 0.88148 0.04322 0.0
H1759 H 0.48769 0.90094 0.05584 0.0
H1760 H 0.49733 0.88077 0.06332 0.0
H1761 H 0.53504 0.91699 0.07625 0.0
H1762 H 0.52542 0.93725 0.0689 0.0
H1763 H 0.55595 0.94256 0.065 0.0
H1764 H 0.56243 0.9358 1.00564 0.0
H1765 H 0.54469 0.96198 1.0 0.0
H1766 H 0.50859 0.94485 0.04363 0.0
C1767 C 0.54704 0.88595 0.05611 0.0
C1768 C 0.56352 0.87874 0.05039 0.0
C1769 C 0.57492 0.88789 0.03618 0.0
C1770 C 0.56964 0.9033 0.02774 0.0
C1771 C 0.5533 0.90989 0.03374 0.0
C1772 C 0.54249 0.90184 0.04771 0.0
C1773 C 0.52656 0.91262 0.05194 0.0
C1774 C 0.49944 0.89276 0.05368 0.0
C1775 C 0.53634 0.92829 0.06638 0.0
C1776 C 0.53008 0.92796 0.03813 0.0
C1777 C 0.54526 0.92582 0.02765 0.0
C1778 C 0.55064 0.93772 0.01379 0.0
C1779 C 0.54041 0.95238 0.01063 0.0
C1780 C 0.52538 0.95521 0.02139 0.0
C1781 C 0.52018 0.94294 0.0353 0.0
H1782 H 1.00195 0.23551 0.39274 0.0
H1783 H 1.00346 0.17257 0.37499 0.0
H1784 H 0.04267 0.1994 0.36232 0.0
H1785 H 0.02684 0.27176 0.35795 0.0
H1786 H 0.04374 0.29962 0.36854 0.0
H1787 H 0.01531 0.27536 0.3759 0.0
H1788 H 0.03799 0.27605 0.40069 0.0
H1789 H 0.06645 0.30014 0.39335 0.0
H1790 H 0.06478 0.27255 0.39966 0.0
H1791 H 0.08418 0.23316 0.35389 0.0
H1792 H 0.12255 0.27133 0.34841 0.0
H1793 H 0.09155 0.3121 0.3687 0.0
C1794 C 0.01007 0.22719 0.38593 0.0
C1795 C 0.99948 0.20169 0.38518 0.0
C1796 C 0.01132 0.19193 0.37625 0.0
C1797 C 0.03355 0.20705 0.36881 0.0
C1798 C 0.04359 0.23199 0.37005 0.0
C1799 C 0.032 0.242 0.37815 0.0
C1800 C 0.04674 0.26941 0.37775 0.0
C1801 C 0.03229 0.27963 0.36954 0.0
C1802 C 0.05444 0.28016 0.39382 0.0
C1803 C 0.06878 0.27323 0.36857 0.0
C1804 C 0.06666 0.25142 0.36425 0.0
C1805 C 0.0857 0.25034 0.35681 0.0
C1806 C 0.10737 0.27212 0.35364 0.0
C1807 C 0.10956 0.29469 0.3575 0.0
C1808 C 0.09001 0.29513 0.36514 0.0
H1809 H 0.80741 0.81795 0.3863 0.0
H1810 H 0.77563 0.74088 0.37801 0.0
H1811 H 0.74163 0.74038 0.36362 0.0
H1812 H 0.75132 0.81701 0.39223 0.0
H1813 H 0.76051 0.84532 0.38291 0.0
H1814 H 0.78342 0.84 0.3915 0.0
H1815 H 0.80617 0.84982 0.36612 0.0
H1816 H 0.78278 0.85365 0.35669 0.0
H1817 H 0.79088 0.83197 0.34955 0.0
H1818 H 0.70864 0.74681 0.35306 0.0
H1819 H 0.67912 0.7603 0.3463 0.0
H1820 H 0.73269 0.83358 0.35971 0.0
C1821 C 0.79355 0.80109 0.38119 0.0
C1822 C 0.79416 0.77941 0.38334 0.0
C1823 C 0.77542 0.75764 0.37669 0.0
C1824 C 0.75612 0.7572 0.36838 0.0
C1825 C 0.75581 0.77873 0.36668 0.0
C1826 C 0.77403 0.80031 0.37284 0.0
C1827 C 0.76843 0.82055 0.37003 0.0
C1828 C 0.76575 0.83134 0.38506 0.0
C1829 C 0.78823 0.84019 0.35999 0.0
C1830 C 0.74392 0.80678 0.36171 0.0
C1831 C 0.73708 0.78268 0.35987 0.0
C1832 C 0.71406 0.76574 0.35404 0.0
C1833 C 0.69742 0.77352 0.35024 0.0
C1834 C 0.70404 0.79807 0.35195 0.0
C1835 C 0.72768 0.81496 0.3576 0.0
H1836 H 0.24638 0.00949 0.3907 0.0
H1837 H 0.17218 0.99826 0.39465 0.0
H1838 H 0.15552 0.95802 0.38304 0.0
H1839 H 0.23801 0.97793 0.3557 0.0
H1840 H 0.25595 0.96423 0.36118 0.0
H1841 H 0.26272 0.99288 0.36931 0.0
H1842 H 0.25721 0.97532 0.39645 0.0
H1843 H 0.25146 0.94717 0.38811 0.0
H1844 H 0.22933 0.94765 0.40094 0.0
H1845 H 0.14686 0.92048 0.36961 0.0
H1846 H 0.14582 0.88464 0.35841 0.0
H1847 H 0.22459 0.91693 0.36607 0.0
C1848 C 0.2266 0.99853 0.38935 0.0
C1849 C 0.21074 0.00752 0.39336 0.0
C1850 C 0.18494 0.99238 0.39123 0.0
C1851 C 0.1752 0.96932 0.38475 0.0
C1852 C 0.19136 0.9613 0.38073 0.0
C1853 C 0.21643 0.97516 0.3832 0.0
C1854 C 0.22952 0.96166 0.37828 0.0
C1855 C 0.24762 0.97498 0.36535 0.0
C1856 C 0.24263 0.9577 0.39177 0.0
C1857 C 0.20778 0.93803 0.37275 0.0
C1858 C 0.18606 0.93855 0.37399 0.0
C1859 C 0.16365 0.91964 0.36881 0.0
C1860 C 0.16328 0.89941 0.36241 0.0
C1861 C 0.18507 0.89795 0.36156 0.0
C1862 C 0.20764 0.91753 0.36678 0.0
H1863 H 0.52318 0.66487 0.30396 0.0
H1864 H 0.56228 0.6678 0.26272 0.0
H1865 H 0.59595 0.70809 0.27007 0.0
H1866 H 0.54191 0.73004 0.30441 0.0
H1867 H 0.54502 0.73254 0.32475 0.0
H1868 H 0.52297 0.70418 0.31604 0.0
H1869 H 0.54289 0.68269 0.33015 0.0
H1870 H 0.56496 0.711 0.3388 0.0
H1871 H 0.57544 0.6938 0.32807 0.0
H1872 H 0.6266 0.74582 0.28231 0.0
H1873 H 0.65245 0.78091 0.29826 0.0
H1874 H 0.59358 0.75672 0.33128 0.0
C1875 C 0.53864 0.67418 0.29637 0.0
C1876 C 0.54018 0.66291 0.28284 0.0
C1877 C 0.56086 0.67569 0.2733 0.0
C1878 C 0.58002 0.69872 0.2773 0.0
C1879 C 0.57821 0.70904 0.2908 0.0
C1880 C 0.55801 0.69746 0.30015 0.0
C1881 C 0.56134 0.71272 0.31423 0.0
C1882 C 0.54164 0.72032 0.31489 0.0
C1883 C 0.56115 0.69924 0.32866 0.0
C1884 C 0.58676 0.73437 0.31139 0.0
C1885 C 0.59598 0.73168 0.29778 0.0
C1886 C 0.61948 0.74834 0.2929 0.0
C1887 C 0.63409 0.76832 0.30216 0.0
C1888 C 0.62526 0.77183 0.31619 0.0
C1889 C 0.60102 0.75468 0.32072 0.0
H1890 H 0.34597 0.89402 0.30811 0.0
H1891 H 0.32143 0.8201 0.29396 0.0
H1892 H 0.28039 0.80707 0.30462 0.0
H1893 H 0.31213 0.87885 0.3434 0.0
H1894 H 0.30395 0.90215 0.34221 0.0
H1895 H 0.33207 0.90664 0.33371 0.0
H1896 H 0.31911 0.9148 0.30765 0.0
H1897 H 0.29128 0.91129 0.31593 0.0
H1898 H 0.28953 0.89319 0.29972 0.0
H1899 H 0.24131 0.8022 0.31531 0.0
H1900 H 0.2069 0.80577 0.32609 0.0
H1901 H 0.25616 0.88238 0.33412 0.0
C1902 C 0.33195 0.8751 0.30726 0.0
C1903 C 0.33707 0.85806 0.30026 0.0
C1904 C 0.31818 0.83345 0.29946 0.0
C1905 C 0.29473 0.82587 0.30544 0.0
C1906 C 0.29033 0.84305 0.31228 0.0
C1907 C 0.30837 0.86715 0.31329 0.0
C1908 C 0.29854 0.88189 0.32108 0.0
C1909 C 0.3125 0.89304 0.33599 0.0
C1910 C 0.29968 0.90145 0.31046 0.0
C1911 C 0.27208 0.86237 0.32403 0.0
C1912 C 0.26781 0.84009 0.31887 0.0
C1913 C 0.24455 0.81946 0.31964 0.0
C1914 C 0.22515 0.82162 0.32583 0.0
C1915 C 0.22916 0.84414 0.33144 0.0
C1916 C 0.25287 0.86482 0.33036 0.0
H1917 H 0.1026 0.4399 0.29462 0.0
H1918 H 0.17239 0.50642 0.30202 0.0
H1919 H 0.18712 0.48405 0.31714 0.0
H1920 H 0.09818 0.41177 0.33017 0.0
H1921 H 0.08676 0.38192 0.32225 0.0
H1922 H 0.08055 0.40326 0.31279 0.0
H1923 H 0.10017 0.3984 0.28816 0.0
H1924 H 0.10616 0.37683 0.2975 0.0
H1925 H 0.13106 0.40318 0.28879 0.0
H1926 H 0.19411 0.4549 0.33219 0.0
H1927 H 0.19537 0.41988 0.34277 0.0
H1928 H 0.1234 0.37153 0.32302 0.0
C1929 C 0.1211 0.44989 0.2992 0.0
C1930 C 0.13594 0.47527 0.2973 0.0
C1931 C 0.16005 0.48728 0.3037 0.0
C1932 C 0.16878 0.47467 0.31225 0.0
C1933 C 0.15351 0.44987 0.31406 0.0
C1934 C 0.13043 0.43749 0.30744 0.0
C1935 C 0.11843 0.41052 0.31028 0.0
C1936 C 0.09457 0.40134 0.31942 0.0
C1937 C 0.11368 0.39641 0.29529 0.0
C1938 C 0.13839 0.40977 0.31959 0.0
C1939 C 0.15827 0.43274 0.32186 0.0
C1940 C 0.17876 0.43679 0.33037 0.0
C1941 C 0.17923 0.41676 0.33639 0.0
C1942 C 0.15956 0.39295 0.33362 0.0
C1943 C 0.13877 0.38951 0.32525 0.0
H1944 H 0.34046 0.4302 0.29452 0.0
H1945 H 0.34172 0.49451 0.31172 0.0
H1946 H 0.30251 0.46888 0.32523 0.0
H1947 H 0.27723 0.39511 0.28781 0.0
H1948 H 0.27427 0.36692 0.29401 0.0
H1949 H 0.30318 0.39028 0.28669 0.0
H1950 H 0.3253 0.38967 0.31144 0.0
H1951 H 0.29637 0.3662 0.3188 0.0
H1952 H 0.3143 0.39385 0.32943 0.0
H1953 H 0.26041 0.43624 0.33364 0.0
H1954 H 0.2208 0.39919 0.3384 0.0
H1955 H 0.24891 0.35588 0.31823 0.0
C1956 C 0.33258 0.43878 0.30133 0.0
C1957 C 0.34392 0.46423 0.30213 0.0
C1958 C 0.33325 0.475 0.31109 0.0
C1959 C 0.31104 0.4606 0.31877 0.0
C1960 C 0.30009 0.4355 0.31761 0.0
C1961 C 0.31074 0.42467 0.30935 0.0
C1962 C 0.29501 0.39734 0.30968 0.0
C1963 C 0.28695 0.38681 0.29359 0.0
C1964 C 0.30856 0.38611 0.31783 0.0
C1965 C 0.27339 0.39448 0.31891 0.0
C1966 C 0.27664 0.41669 0.32338 0.0
C1967 C 0.25804 0.41872 0.33066 0.0
C1968 C 0.23559 0.39752 0.33345 0.0
C1969 C 0.23217 0.37454 0.32939 0.0
C1970 C 0.25138 0.37314 0.32201 0.0
H1971 H 0.53913 0.84261 0.29841 0.0
H1972 H 0.56828 0.91928 0.30678 0.0
H1973 H 0.60549 0.92217 0.31844 0.0
H1974 H 0.56084 0.8312 0.33305 0.0
H1975 H 0.56978 0.81026 0.32571 0.0
H1976 H 0.54485 0.81235 0.31698 0.0
H1977 H 0.56518 0.8224 0.29091 0.0
H1978 H 0.58959 0.81842 0.29854 0.0
H1979 H 0.59681 0.84619 0.28913 0.0
H1980 H 0.64107 0.91785 0.32689 0.0
H1981 H 0.67176 0.90578 0.3335 0.0
H1982 H 0.6189 0.83127 0.32198 0.0
C1983 C 0.55337 0.85998 0.30271 0.0
C1984 C 0.55073 0.88073 0.30173 0.0
C1985 C 0.56972 0.9031 0.30758 0.0
C1986 C 0.59098 0.90494 0.31416 0.0
C1987 C 0.593 0.88421 0.31499 0.0
C1988 C 0.57469 0.8621 0.30953 0.0
C1989 C 0.58159 0.84265 0.31194 0.0
C1990 C 0.56319 0.82292 0.32256 0.0
C1991 C 0.5834 0.83178 0.29672 0.0
C1992 C 0.60677 0.8574 0.31939 0.0
C1993 C 0.61303 0.8814 0.32088 0.0
C1994 C 0.63619 0.89904 0.32611 0.0
C1995 C 0.65349 0.89206 0.32982 0.0
C1996 C 0.64738 0.86757 0.3287 0.0
C1997 C 0.62366 0.84998 0.32349 0.0
H1998 H 0.09808 0.66609 0.28872 0.0
H1999 H 0.12017 0.63084 0.32211 0.0
H2000 H 0.13581 0.66678 0.33876 0.0
H2001 H 0.15001 0.72553 0.29364 0.0
H2002 H 0.13254 0.74074 0.29129 0.0
H2003 H 0.12238 0.71194 0.28217 0.0
H2004 H 0.07985 0.69456 0.29518 0.0
H2005 H 0.08992 0.72334 0.30433 0.0
H2006 H 0.07842 0.6963 0.31552 0.0
H2007 H 0.15115 0.7075 0.35123 0.0
H2008 H 0.16317 0.74931 0.35903 0.0
H2009 H 0.13013 0.75744 0.3178 0.0
C2010 C 0.10617 0.66593 0.29954 0.0
C2011 C 0.10776 0.64558 0.30414 0.0
C2012 C 0.11838 0.64605 0.31844 0.0
C2013 C 0.12746 0.66644 0.32795 0.0
C2014 C 0.1257 0.68622 0.32305 0.0
C2015 C 0.11518 0.68609 0.30923 0.0
C2016 C 0.11568 0.70977 0.30664 0.0
C2017 C 0.13107 0.72276 0.29261 0.0
C2018 C 0.0894 0.70574 0.30535 0.0
C2019 C 0.12828 0.72326 0.32109 0.0
C2020 C 0.13403 0.70944 0.33039 0.0
C2021 C 0.14654 0.71842 0.34411 0.0
C2022 C 0.15333 0.74219 0.34843 0.0
C2023 C 0.14738 0.75655 0.33912 0.0
C2024 C 0.13462 0.74682 0.32531 0.0
H2025 H 0.77905 0.00331 0.39429 0.0
H2026 H 0.84202 0.99354 0.40136 0.0
H2027 H 0.81865 0.95232 0.39039 0.0
H2028 H 0.73266 0.94151 0.40402 0.0
H2029 H 0.71077 0.93962 0.39001 0.0
H2030 H 0.73237 0.96846 0.39835 0.0
H2031 H 0.74781 0.98605 0.37162 0.0
H2032 H 0.7262 0.95729 0.36322 0.0
H2033 H 0.75857 0.97104 0.359 0.0
H2034 H 0.78989 0.91371 0.37717 0.0
H2035 H 0.75615 0.87838 0.3641 0.0
H2036 H 0.71003 0.91109 0.3673 0.0
C2037 C 0.78781 0.9924 0.39351 0.0
C2038 C 0.81232 0.0015 0.39861 0.0
C2039 C 0.82322 0.98676 0.39756 0.0
C2040 C 0.81012 0.9634 0.39134 0.0
C2041 C 0.786 0.95491 0.38642 0.0
C2042 C 0.77478 0.96878 0.38758 0.0
C2043 C 0.74848 0.95502 0.38161 0.0
C2044 C 0.72998 0.95091 0.39426 0.0
C2045 C 0.74507 0.96813 0.36806 0.0
C2046 C 0.74683 0.93142 0.37673 0.0
C2047 C 0.7688 0.9319 0.37951 0.0
C2048 C 0.77246 0.91294 0.37517 0.0
C2049 C 0.7532 0.89296 0.36776 0.0
C2050 C 0.73039 0.89186 0.36497 0.0
C2051 C 0.72709 0.91125 0.36965 0.0
H2052 H 0.01779 0.82342 0.39147 0.0
H2053 H 0.97899 0.7453 0.38644 0.0
H2054 H 0.01627 0.74759 0.3753 0.0
H2055 H 0.05288 0.83593 0.35599 0.0
H2056 H 0.08026 0.86129 0.36385 0.0
H2057 H 0.05034 0.85407 0.37082 0.0
H2058 H 0.06338 0.85105 0.3982 0.0
H2059 H 0.09352 0.85877 0.39148 0.0
H2060 H 0.07561 0.83135 0.40204 0.0
H2061 H 0.05905 0.75804 0.36735 0.0
H2062 H 0.10349 0.77636 0.36148 0.0
H2063 H 0.11385 0.84766 0.3703 0.0
C2064 C 0.01715 0.80684 0.38792 0.0
C2065 C 0.99553 0.78416 0.38982 0.0
C2066 C 0.9953 0.76286 0.38497 0.0
C2067 C 0.01638 0.76398 0.37866 0.0
C2068 C 0.03746 0.7866 0.37703 0.0
C2069 C 0.03792 0.80769 0.38134 0.0
C2070 C 0.06308 0.82963 0.3786 0.0
C2071 C 0.06154 0.84621 0.3666 0.0
C2072 C 0.07457 0.84351 0.39346 0.0
C2073 C 0.0769 0.81752 0.37261 0.0
C2074 C 0.06178 0.79269 0.37173 0.0
C2075 C 0.07088 0.77751 0.36759 0.0
C2076 C 0.09605 0.78801 0.36421 0.0
C2077 C 0.11164 0.81343 0.36471 0.0
C2078 C 0.10198 0.82828 0.36913 0.0
H2079 H 0.21013 0.21318 0.39633 0.0
H2080 H 0.25488 0.21209 0.35905 0.0
H2081 H 0.24171 0.23557 0.34365 0.0
H2082 H 0.16069 0.21099 0.37487 0.0
H2083 H 0.15781 0.23245 0.3868 0.0
H2084 H 0.16899 0.21372 0.39465 0.0
H2085 H 0.20859 0.25191 0.40421 0.0
H2086 H 0.19738 0.27072 0.39655 0.0
H2087 H 0.22713 0.27547 0.39099 0.0
H2088 H 0.22321 0.25899 0.332 0.0
H2089 H 0.20547 0.28523 0.32649 0.0
H2090 H 0.17719 0.27502 0.37221 0.0
C2091 C 0.21756 0.21802 0.38503 0.0
C2092 C 0.23332 0.21016 0.37896 0.0
C2093 C 0.24214 0.21696 0.36395 0.0
C2094 C 0.23491 0.23053 0.35507 0.0
C2095 C 0.21923 0.2377 0.36141 0.0
C2096 C 0.21109 0.23211 0.37615 0.0
C2097 C 0.1958 0.24347 0.38064 0.0
C2098 C 0.16925 0.22399 0.38446 0.0
C2099 C 0.20796 0.26146 0.39387 0.0
C2100 C 0.19667 0.25635 0.36612 0.0
C2101 C 0.20986 0.25241 0.35504 0.0
C2102 C 0.21289 0.26224 0.34059 0.0
C2103 C 0.20261 0.2769 0.33751 0.0
C2104 C 0.1899 0.28182 0.3489 0.0
C2105 C 0.1868 0.27135 0.36333 0.0
H2106 H 0.66674 0.55836 0.71637 0.0
H2107 H 0.69272 0.50798 0.72527 0.0
H2108 H 0.73121 0.53468 0.71169 0.0
H2109 H 0.69652 0.57967 0.67904 0.0
H2110 H 0.70398 0.61035 0.68293 0.0
H2111 H 0.67684 0.58547 0.69111 0.0
H2112 H 0.69217 0.60368 0.71798 0.0
H2113 H 0.71918 0.62858 0.70986 0.0
H2114 H 0.72236 0.61031 0.72421 0.0
H2115 H 0.76885 0.56904 0.6995 0.0
H2116 H 0.80272 0.6088 0.69131 0.0
H2117 H 0.75286 0.6373 0.69144 0.0
C2118 C 0.68039 0.55277 0.71542 0.0
C2119 C 0.67648 0.53089 0.7219 0.0
C2120 C 0.69491 0.52434 0.7202 0.0
C2121 C 0.71693 0.53945 0.71251 0.0
C2122 C 0.72031 0.56107 0.70653 0.0
C2123 C 0.70252 0.56771 0.70792 0.0
C2124 C 0.71152 0.59287 0.70181 0.0
C2125 C 0.6963 0.59203 0.6879 0.0
C2126 C 0.7113 0.60985 0.7142 0.0
C2127 C 0.73752 0.59979 0.69737 0.0
C2128 C 0.74209 0.58101 0.6998 0.0
C2129 C 0.76532 0.5837 0.69732 0.0
C2130 C 0.78445 0.60632 0.69258 0.0
C2131 C 0.78019 0.62589 0.69042 0.0
C2132 C 0.75638 0.62243 0.6927 0.0
H2133 H 0.44463 0.10264 0.71611 0.0
H2134 H 0.50036 0.1779 0.7236 0.0
H2135 H 0.47305 0.19074 0.71195 0.0
H2136 H 0.422 0.1116 0.67989 0.0
H2137 H 0.3902 0.08996 0.68372 0.0
H2138 H 0.41438 0.08608 0.69191 0.0
H2139 H 0.39744 0.08479 0.71879 0.0
H2140 H 0.37294 0.08827 0.71078 0.0
H2141 H 0.39293 0.10922 0.72509 0.0
H2142 H 0.43906 0.19565 0.70129 0.0
H2143 H 0.4006 0.1923 0.69189 0.0
H2144 H 0.36628 0.11412 0.69064 0.0
C2145 C 0.4511 0.12182 0.71528 0.0
C2146 C 0.47482 0.13925 0.72069 0.0
C2147 C 0.48255 0.16417 0.71931 0.0
C2148 C 0.4671 0.17167 0.71276 0.0
C2149 C 0.44392 0.15408 0.70759 0.0
C2150 C 0.4359 0.12967 0.70872 0.0
C2151 C 0.40975 0.11457 0.70265 0.0
C2152 C 0.40905 0.09967 0.68871 0.0
C2153 C 0.39224 0.09825 0.71507 0.0
C2154 C 0.40419 0.13431 0.69828 0.0
C2155 C 0.42427 0.15696 0.70114 0.0
C2156 C 0.42338 0.17803 0.69874 0.0
C2157 C 0.40141 0.17594 0.69325 0.0
C2158 C 0.38068 0.15301 0.68993 0.0
C2159 C 0.38207 0.13192 0.69267 0.0
H2160 H 0.89333 0.33393 0.73664 0.0
H2161 H 0.88911 0.36795 0.6952 0.0
H2162 H 0.8784 0.33053 0.68084 0.0
H2163 H 0.91979 0.30003 0.71986 0.0
H2164 H 0.90246 0.27408 0.7317 0.0
H2165 H 0.91063 0.30379 0.73856 0.0
H2166 H 0.86457 0.28909 0.74382 0.0
H2167 H 0.85632 0.25932 0.73699 0.0
H2168 H 0.8423 0.27531 0.7287 0.0
H2169 H 0.86839 0.28943 0.67106 0.0
H2170 H 0.85824 0.2473 0.66675 0.0
H2171 H 0.86633 0.23949 0.71477 0.0
C2172 C 0.89041 0.33356 0.72452 0.0
C2173 C 0.89211 0.3538 0.71699 0.0
C2174 C 0.88776 0.35255 0.70117 0.0
C2175 C 0.88179 0.33144 0.69292 0.0
C2176 C 0.88012 0.31175 0.7007 0.0
C2177 C 0.88419 0.31258 0.71615 0.0
C2178 C 0.88059 0.2887 0.72185 0.0
C2179 C 0.90481 0.29185 0.72837 0.0
C2180 C 0.8597 0.27745 0.73353 0.0
C2181 C 0.87348 0.2742 0.70723 0.0
C2182 C 0.87361 0.28789 0.69515 0.0
C2183 C 0.86795 0.27845 0.68049 0.0
C2184 C 0.86183 0.25431 0.67817 0.0
C2185 C 0.86098 0.23971 0.69044 0.0
C2186 C 0.86703 0.25001 0.70512 0.0
H2187 H 0.19187 0.00521 0.63505 0.0
H2188 H 0.23395 0.00434 0.59625 0.0
H2189 H 0.26862 0.04386 0.60418 0.0
H2190 H 0.21344 0.07014 0.6341 0.0
H2191 H 0.21441 0.0731 0.65445 0.0
H2192 H 0.19255 0.04486 0.64557 0.0
H2193 H 0.20957 0.02217 0.66147 0.0
H2194 H 0.23081 0.05039 0.67046 0.0
H2195 H 0.24218 0.03271 0.66123 0.0
H2196 H 0.2992 0.08276 0.61654 0.0
H2197 H 0.32362 0.11899 0.63227 0.0
H2198 H 0.26141 0.0962 0.66258 0.0
C2199 C 0.20821 0.01345 0.62808 0.0
C2200 C 0.21014 0.00138 0.61507 0.0
C2201 C 0.2321 0.01281 0.60643 0.0
C2202 C 0.25187 0.03542 0.61077 0.0
C2203 C 0.24943 0.04662 0.6237 0.0
C2204 C 0.22813 0.03616 0.63218 0.0
C2205 C 0.23056 0.05195 0.64575 0.0
C2206 C 0.21161 0.06052 0.64491 0.0
C2207 C 0.22816 0.0385 0.6606 0.0
C2208 C 0.25661 0.07285 0.6436 0.0
C2209 C 0.26711 0.06933 0.6308 0.0
C2210 C 0.29114 0.08578 0.62655 0.0
C2211 C 0.3049 0.10638 0.63563 0.0
C2212 C 0.29465 0.11056 0.64884 0.0
C2213 C 0.27001 0.09355 0.65272 0.0
H2214 H 0.98587 0.18059 0.62942 0.0
H2215 H 0.03691 0.25246 0.64667 0.0
H2216 H 1.00344 0.25201 0.66171 0.0
H2217 H 0.93479 0.19016 0.62511 0.0
H2218 H 0.91214 0.15984 0.6305 0.0
H2219 H 0.94055 0.16551 0.62192 0.0
H2220 H 0.94828 0.14513 0.64458 0.0
H2221 H 0.92093 0.14053 0.65417 0.0
H2222 H 0.95064 0.15711 0.66339 0.0
H2223 H 0.96377 0.24482 0.67358 0.0
H2224 H 0.9206 0.2317 0.68069 0.0
H2225 H 0.8955 0.1647 0.65583 0.0
C2226 C 0.99003 0.19607 0.63653 0.0
C2227 C 0.014 0.21653 0.63694 0.0
C2228 C 0.01865 0.23666 0.64615 0.0
C2229 C 0.99979 0.2365 0.65479 0.0
C2230 C 0.97632 0.21611 0.65408 0.0
C2231 C 0.97134 0.19633 0.64509 0.0
C2232 C 0.94426 0.17727 0.64565 0.0
C2233 C 0.93224 0.17296 0.62986 0.0
C2234 C 0.9408 0.1536 0.65236 0.0
C2235 C 0.93474 0.1895 0.65624 0.0
C2236 C 0.95355 0.21185 0.66106 0.0
C2237 C 0.94897 0.22718 0.6701 0.0
C2238 C 0.9245 0.21963 0.67412 0.0
C2239 C 0.90509 0.19685 0.66932 0.0
C2240 C 0.91027 0.1817 0.66022 0.0
H2241 H 0.79622 0.8063 0.64352 0.0
H2242 H 0.7471 0.75873 0.6082 0.0
H2243 H 0.75232 0.72554 0.61788 0.0
H2244 H 0.83897 0.78493 0.64138 0.0
H2245 H 0.8452 0.78735 0.66145 0.0
H2246 H 0.83612 0.80707 0.65261 0.0
H2247 H 0.79982 0.79277 0.67145 0.0
H2248 H 0.80896 0.77308 0.68029 0.0
H2249 H 0.778 0.76088 0.67311 0.0
H2250 H 0.76399 0.69803 0.63036 0.0
H2251 H 0.78241 0.67792 0.64444 0.0
H2252 H 0.82578 0.7434 0.67117 0.0
C2253 C 0.78655 0.78893 0.63779 0.0
C2254 C 0.77098 0.78519 0.62515 0.0
C2255 C 0.75861 0.76204 0.61811 0.0
C2256 C 0.76158 0.74304 0.62347 0.0
C2257 C 0.77709 0.74741 0.63585 0.0
C2258 C 0.78947 0.76976 0.64291 0.0
C2259 C 0.80596 0.76982 0.65558 0.0
C2260 C 0.83317 0.78839 0.65257 0.0
C2261 C 0.79768 0.77441 0.67102 0.0
C2262 C 0.80116 0.74411 0.65433 0.0
C2263 C 0.78425 0.7315 0.64296 0.0
C2264 C 0.77717 0.70766 0.63934 0.0
C2265 C 0.78783 0.69641 0.64743 0.0
C2266 C 0.80556 0.709 0.659 0.0
C2267 C 0.81211 0.73315 0.66254 0.0
H2268 H 0.01195 0.7873 0.63795 0.0
H2269 H 0.98551 0.83677 0.62784 0.0
H2270 H 0.94684 0.81032 0.64158 0.0
H2271 H 0.95618 0.73463 0.63121 0.0
H2272 H 0.95973 0.71721 0.64599 0.0
H2273 H 0.98653 0.74174 0.63743 0.0
H2274 H 1.00226 0.76138 0.66394 0.0
H2275 H 0.97533 0.73686 0.67255 0.0
H2276 H 0.98269 0.76768 0.67577 0.0
H2277 H 0.90976 0.77684 0.65498 0.0
H2278 H 0.87625 0.73754 0.66425 0.0
H2279 H 0.92634 0.7093 0.66451 0.0
C2280 C 0.99823 0.79281 0.63896 0.0
C2281 C 1.00178 0.81418 0.632 0.0
C2282 C 0.98314 0.82048 0.63314 0.0
C2283 C 0.96122 0.80567 0.64102 0.0
C2284 C 0.95817 0.78454 0.64763 0.0
C2285 C 0.97613 0.77805 0.64658 0.0
C2286 C 0.96734 0.75324 0.65324 0.0
C2287 C 0.96745 0.73568 0.64125 0.0
C2288 C 0.98284 0.7549 0.6672 0.0
C2289 C 0.94136 0.74642 0.65772 0.0
C2290 C 0.93659 0.76494 0.6548 0.0
C2291 C 0.91342 0.76234 0.65745 0.0
C2292 C 0.89451 0.74001 0.6628 0.0
C2293 C 0.8989 0.7206 0.66529 0.0
C2294 C 0.92269 0.72404 0.66291 0.0
H2295 H 0.20138 0.17783 0.62974 0.0
H2296 H 0.22795 0.25349 0.64027 0.0
H2297 H 0.26425 0.2563 0.65306 0.0
H2298 H 0.22153 0.16431 0.66507 0.0
H2299 H 0.23144 0.14454 0.65702 0.0
H2300 H 0.20658 0.1468 0.64835 0.0
H2301 H 0.22836 0.15828 0.62299 0.0
H2302 H 0.25393 0.15612 0.63053 0.0
H2303 H 0.25912 0.18366 0.62166 0.0
H2304 H 0.2991 0.25246 0.66258 0.0
H2305 H 0.33057 0.24162 0.66932 0.0
H2306 H 0.28159 0.16779 0.65439 0.0
C2307 C 0.21483 0.19493 0.63479 0.0
C2308 C 0.21172 0.21543 0.6341 0.0
C2309 C 0.22971 0.23747 0.64086 0.0
C2310 C 0.25045 0.23927 0.64812 0.0
C2311 C 0.25294 0.21881 0.64868 0.0
C2312 C 0.23564 0.19698 0.6423 0.0
C2313 C 0.24325 0.17796 0.64438 0.0
C2314 C 0.22461 0.15716 0.6543 0.0
C2315 C 0.24638 0.16845 0.62898 0.0
C2316 C 0.26783 0.19278 0.65254 0.0
C2317 C 0.27291 0.21629 0.65489 0.0
C2318 C 0.29517 0.23402 0.66112 0.0
C2319 C 0.3129 0.22772 0.66492 0.0
C2320 C 0.30814 0.20378 0.66283 0.0
C2321 C 0.28523 0.18599 0.65665 0.0
H2322 H 0.77593 0.98803 0.64386 0.0
H2323 H 0.84617 0.0087 0.62277 0.0
H2324 H 0.86497 0.048 0.63618 0.0
H2325 H 0.78029 0.045 0.64134 0.0
H2326 H 0.76595 0.04335 0.65931 0.0
H2327 H 0.75845 0.016 0.64911 0.0
H2328 H 0.77087 1.00009 0.67254 0.0
H2329 H 0.77851 0.0275 0.6828 0.0
H2330 H 0.80116 0.01815 0.68076 0.0
H2331 H 0.87514 0.08618 0.64958 0.0
H2332 H 0.87584 0.1212 0.66205 0.0
H2333 H 0.79996 0.07584 0.67578 0.0
C2334 C 0.79537 1.00065 0.64231 0.0
C2335 C 0.80959 0.99531 0.63225 0.0
C2336 C 0.83486 0.01251 0.63027 0.0
C2337 C 0.84576 0.03478 0.63795 0.0
C2338 C 0.83121 0.03957 0.64766 0.0
C2339 C 0.80657 0.02303 0.6499 0.0
C2340 C 0.79474 0.0334 0.6602 0.0
C2341 C 0.77362 0.0345 0.652 0.0
C2342 C 0.78579 0.01892 0.67495 0.0
C2343 C 0.81646 0.05852 0.66313 0.0
C2344 C 0.83735 0.06158 0.65585 0.0
C2345 C 0.85913 0.08383 0.65566 0.0
C2346 C 0.85942 0.10358 0.66284 0.0
C2347 C 0.83826 0.10088 0.67027 0.0
C2348 C 0.81663 0.07803 0.67064 0.0
H2349 H 0.4663 0.35112 0.7146 0.0
H2350 H 0.47336 0.32157 0.75745 0.0
H2351 H 0.44153 0.28116 0.74915 0.0
H2352 H 0.40199 0.31219 0.70835 0.0
H2353 H 0.40469 0.30838 0.68833 0.0
H2354 H 0.42705 0.33576 0.69782 0.0
H2355 H 0.46253 0.32914 0.68846 0.0
H2356 H 0.44011 0.30216 0.67866 0.0
H2357 H 0.46104 0.30066 0.69208 0.0
H2358 H 0.40774 0.24397 0.73682 0.0
H2359 H 0.37838 0.21144 0.71963 0.0
H2360 H 0.39714 0.26354 0.68359 0.0
C2361 C 0.46154 0.33627 0.72226 0.0
C2362 C 0.47223 0.34012 0.73695 0.0
C2363 C 0.46498 0.31974 0.74643 0.0
C2364 C 0.44699 0.29648 0.74176 0.0
C2365 C 0.43675 0.29353 0.72738 0.0
C2366 C 0.44413 0.31273 0.71761 0.0
C2367 C 0.43119 0.30426 0.70238 0.0
C2368 C 0.41529 0.31584 0.69903 0.0
C2369 C 0.44984 0.30936 0.68965 0.0
C2370 C 0.41532 0.27734 0.70519 0.0
C2371 C 0.41851 0.27166 0.7198 0.0
C2372 C 0.40524 0.24814 0.72531 0.0
C2373 C 0.38853 0.22986 0.71554 0.0
C2374 C 0.38567 0.23516 0.70041 0.0
C2375 C 0.3992 0.25915 0.69514 0.0
H2376 H 0.68589 0.15928 0.72181 0.0
H2377 H 0.64902 0.08095 0.71956 0.0
H2378 H 0.68642 0.08344 0.70845 0.0
H2379 H 0.71904 0.16945 0.68616 0.0
H2380 H 0.74681 0.19581 0.69277 0.0
H2381 H 0.7173 0.18892 0.70034 0.0
H2382 H 0.73155 0.18843 0.72765 0.0
H2383 H 0.76162 0.19649 0.72064 0.0
H2384 H 0.74493 0.16991 0.73213 0.0
H2385 H 0.72947 0.09444 0.70091 0.0
H2386 H 0.7739 0.11331 0.69508 0.0
H2387 H 0.78189 0.1844 0.69983 0.0
C2388 C 0.68569 0.14269 0.71886 0.0
C2389 C 0.6646 0.1199 0.72155 0.0
C2390 C 0.66492 0.09857 0.71748 0.0
C2391 C 0.68608 0.09981 0.7112 0.0
C2392 C 0.70664 0.12255 0.7088 0.0
C2393 C 0.70652 0.14363 0.71231 0.0
C2394 C 0.73118 0.16574 0.70879 0.0
C2395 C 0.72843 0.18089 0.69627 0.0
C2396 C 0.74301 0.18104 0.72316 0.0
C2397 C 0.74543 0.15381 0.70322 0.0
C2398 C 0.73095 0.12887 0.70335 0.0
C2399 C 0.74072 0.11392 0.70021 0.0
C2400 C 0.76587 0.12474 0.69674 0.0
C2401 C 0.78079 0.15019 0.69605 0.0
C2402 C 0.77047 0.16487 0.6995 0.0
H2403 H 0.86853 0.53411 0.71652 0.0
H2404 H 0.9428 0.58365 0.73231 0.0
H2405 H 0.93919 0.6183 0.723 0.0
H2406 H 0.87245 0.56737 0.68184 0.0
H2407 H 0.84071 0.55994 0.68313 0.0
H2408 H 0.85004 0.53958 0.69068 0.0
H2409 H 0.8315 0.54148 0.71665 0.0
H2410 H 0.82292 0.56237 0.70904 0.0
H2411 H 0.84216 0.57045 0.72573 0.0
H2412 H 0.92617 0.64748 0.71368 0.0
H2413 H 0.90619 0.66904 0.70276 0.0
H2414 H 0.84157 0.60014 0.69147 0.0
C2415 C 0.88402 0.55228 0.71791 0.0
C2416 C 0.90591 0.5564 0.72513 0.0
C2417 C 0.92595 0.58028 0.72672 0.0
C2418 C 0.92402 0.6 0.72152 0.0
C2419 C 0.90209 0.59538 0.71455 0.0
C2420 C 0.88258 0.57209 0.71251 0.0
C2421 C 0.86115 0.57206 0.70454 0.0
C2422 C 0.8558 0.55897 0.68913 0.0
C2423 C 0.83808 0.56094 0.71459 0.0
C2424 C 0.87151 0.59896 0.70261 0.0
C2425 C 0.89506 0.61214 0.70858 0.0
C2426 C 0.90787 0.63737 0.7088 0.0
C2427 C 0.89636 0.64944 0.70265 0.0
C2428 C 0.87247 0.63622 0.69621 0.0
C2429 C 0.86 0.61069 0.69616 0.0
H2430 H 0.45898 0.94897 0.18582 0.0
H2431 H 0.49543 0.90653 0.18105 0.0
H2432 H 0.50616 0.9205 0.15483 0.0
H2433 H 0.43595 0.94218 0.14747 0.0
H2434 H 0.44244 0.97301 0.1463 0.0
H2435 H 0.43555 0.95803 0.16435 0.0
H2436 H 0.47667 0.99248 0.17537 0.0
H2437 H 0.48361 0.00763 0.15739 0.0
H2438 H 0.50519 1.0003 0.16597 0.0
H2439 H 0.51377 0.93973 0.12894 0.0
H2440 H 0.52069 0.96551 0.10653 0.0
H2441 H 0.48244 0.99785 0.12883 0.0
C2442 C 0.46933 0.94261 0.17939 0.0
C2443 C 0.4759 0.92619 0.1857 0.0
C2444 C 0.48933 0.91841 0.17657 0.0
C2445 C 0.49576 0.92643 0.1616 0.0
C2446 C 0.48898 0.94254 0.15583 0.0
C2447 C 0.47631 0.95076 0.1645 0.0
C2448 C 0.47256 0.96922 0.15592 0.0
C2449 C 0.44498 0.96005 0.15336 0.0
C2450 C 0.48527 0.99386 0.16415 0.0
C2451 C 0.48533 0.97026 0.14113 0.0
C2452 C 0.49433 0.95444 0.1412 0.0
C2453 C 0.5068 0.95219 0.12878 0.0
C2454 C 0.51054 0.9668 0.11606 0.0
C2455 C 0.50217 0.9837 0.11594 0.0
C2456 C 0.48918 0.98518 0.12862 0.0
H2457 H 0.0322 0.54098 0.17937 0.0
H2458 H 0.06095 0.49166 0.1786 0.0
H2459 H 0.04685 0.4806 0.1521 0.0
H2460 H 0.97791 0.50368 0.15752 0.0
H2461 H 0.97846 0.52848 0.1475 0.0
H2462 H 0.99159 0.53325 0.16624 0.0
H2463 H 0.03319 0.56772 0.15621 0.0
H2464 H 0.02016 0.56311 0.13744 0.0
H2465 H 0.04788 0.56176 0.14056 0.0
H2466 H 0.02932 0.47456 0.1258 0.0
H2467 H 0.00872 0.47329 0.10164 0.0
H2468 H 0.99107 0.52633 0.11942 0.0
C2469 C 0.03575 0.52805 0.17356 0.0
C2470 C 0.04766 0.51716 0.18106 0.0
C2471 C 0.05165 0.50005 0.17314 0.0
C2472 C 0.04382 0.49374 0.15806 0.0
C2473 C 0.03195 0.50464 0.15104 0.0
C2474 C 0.02789 0.52141 0.15852 0.0
C2475 C 0.01411 0.52994 0.14847 0.0
C2476 C 0.98903 0.52344 0.15534 0.0
C2477 C 0.02978 0.55725 0.14549 0.0
C2478 C 0.01099 0.51528 0.13422 0.0
C2479 C 0.02156 0.50092 0.13592 0.0
C2480 C 0.02105 0.48578 0.12431 0.0
C2481 C 0.0094 0.48527 0.11061 0.0
C2482 C 0.9983 0.49971 0.10861 0.0
C2483 C 0.99917 0.5149 0.12063 0.0
H2484 H 0.50302 0.51142 0.18533 0.0
H2485 H 0.43133 0.5018 0.17312 0.0
H2486 H 0.43571 0.48943 0.14745 0.0
H2487 H 0.53159 0.53806 0.14924 0.0
H2488 H 0.55058 0.52421 0.14925 0.0
H2489 H 0.54148 0.53158 0.16693 0.0
H2490 H 0.52284 0.48705 0.17546 0.0
H2491 H 0.53172 0.47951 0.15778 0.0
H2492 H 0.49999 0.46309 0.16369 0.0
H2493 H 0.44693 0.47604 0.12332 0.0
H2494 H 0.46533 0.46565 0.10213 0.0
H2495 H 0.53208 0.48938 0.12887 0.0
C2496 C 0.48829 0.5071 0.17729 0.0
C2497 C 0.4666 0.50733 0.18158 0.0
C2498 C 0.44783 0.50112 0.1705 0.0
C2499 C 0.45023 0.49428 0.15574 0.0
C2500 C 0.47172 0.49413 0.15202 0.0
C2501 C 0.49059 0.50072 0.16239 0.0
C2502 C 0.51209 0.49965 0.15535 0.0
C2503 C 0.53531 0.52488 0.15518 0.0
C2504 C 0.51693 0.48123 0.16356 0.0
C2505 C 0.50217 0.49107 0.13945 0.0
C2506 C 0.4788 0.48783 0.13781 0.0
C2507 C 0.46544 0.47896 0.12438 0.0
C2508 C 0.47625 0.47332 0.1123 0.0
C2509 C 0.50049 0.47691 0.11352 0.0
C2510 C 0.51351 0.48608 0.12739 0.0
H2511 H 0.97691 0.46055 0.8373 0.0
H2512 H 0.95805 0.51746 0.83697 0.0
H2513 H 0.97743 0.5313 0.86209 0.0
H2514 H 0.96762 0.4473 0.8769 0.0
H2515 H 0.99354 0.44256 0.87885 0.0
H2516 H 0.9776 0.43667 0.86096 0.0
H2517 H 0.01873 0.46599 0.84774 0.0
H2518 H 0.0348 0.47202 0.86561 0.0
H2519 H 0.03683 0.49668 0.85463 0.0
H2520 H 0.99839 0.53879 0.88735 0.0
H2521 H 0.0203 0.53974 0.91092 0.0
H2522 H 0.0275 0.47951 0.89428 0.0
C2523 C 0.97699 0.47605 0.84242 0.0
C2524 C 0.96569 0.48774 0.83513 0.0
C2525 C 0.96604 0.5078 0.8424 0.0
C2526 C 0.97721 0.51597 0.85663 0.0
C2527 C 0.98819 0.50406 0.86344 0.0
C2528 C 0.98827 0.48461 0.85656 0.0
C2529 C 1.00158 0.47518 0.86627 0.0
C2530 C 0.98403 0.44887 0.87103 0.0
C2531 C 0.02434 0.47762 0.85807 0.0
C2532 C 0.00893 0.49237 0.87968 0.0
C2533 C 1.00092 0.50882 0.87784 0.0
C2534 C 0.00487 0.52609 0.88889 0.0
C2535 C 0.01725 0.52646 0.90223 0.0
C2536 C 0.02567 0.50981 0.90433 0.0
C2537 C 0.02157 0.49268 0.89284 0.0
H2538 H 0.51297 0.47176 0.84163 0.0
H2539 H 0.59174 0.52186 0.84321 0.0
H2540 H 0.58792 0.53354 0.86942 0.0
H2541 H 0.49556 0.50966 0.86243 0.0
H2542 H 0.47052 0.48471 0.87211 0.0
H2543 H 0.47962 0.48013 0.85361 0.0
H2544 H 0.48584 0.44573 0.86417 0.0
H2545 H 0.47679 0.45023 0.88271 0.0
H2546 H 0.50607 0.45176 0.88018 0.0
H2547 H 0.57554 0.53857 0.89587 0.0
H2548 H 0.55512 0.53884 0.9198 0.0
H2549 H 0.48425 0.48671 0.90049 0.0
C2550 C 0.52941 0.48513 0.84753 0.0
C2551 C 0.55268 0.49587 0.84043 0.0
C2552 C 0.57373 0.51354 0.84842 0.0
C2553 C 0.57175 0.52018 0.86332 0.0
C2554 C 0.54853 0.50917 0.87001 0.0
C2555 C 0.5277 0.4922 0.86232 0.0
C2556 C 0.50484 0.4835 0.87193 0.0
C2557 C 0.48656 0.48989 0.86458 0.0
C2558 C 0.49268 0.45619 0.87492 0.0
C2559 C 0.51606 0.49814 0.88628 0.0
C2560 C 0.54132 0.51268 0.885 0.0
C2561 C 0.55576 0.52738 0.89695 0.0
C2562 C 0.54405 0.52735 0.9105 0.0
C2563 C 0.51814 0.51293 0.91193 0.0
C2564 C 0.50406 0.49815 0.89963 0.0
H2565 H 0.50484 0.04185 0.83556 0.0
H2566 H 0.57209 0.10848 0.84726 0.0
H2567 H 0.56707 0.09582 0.87391 0.0
H2568 H 0.47159 0.04117 0.86965 0.0
H2569 H 0.45569 0.00865 0.87099 0.0
H2570 H 0.46478 0.02288 0.85275 0.0
H2571 H 0.48854 1.00005 0.84756 0.0
H2572 H 0.47969 0.9859 0.86582 0.0
H2573 H 0.51182 0.00299 0.86084 0.0
H2574 H 0.5559 0.07468 0.89926 0.0
H2575 H 0.53824 0.04811 0.9213 0.0
H2576 H 0.47567 0.99782 0.8936 0.0
C2577 C 0.51837 0.05409 0.84368 0.0
C2578 C 0.53907 0.07613 0.83905 0.0
C2579 C 0.5564 0.09121 0.85025 0.0
C2580 C 0.5536 0.08429 0.86552 0.0
C2581 C 0.53314 0.0624 0.86959 0.0
C2582 C 0.51565 0.0477 0.85902 0.0
C2583 C 0.49517 0.02521 0.86638 0.0
C2584 C 0.47034 0.02444 0.86485 0.0
C2585 C 0.49373 0.00218 0.85976 0.0
C2586 C 0.50409 0.0294 0.88269 0.0
C2587 C 0.52608 0.05088 0.8843 0.0
C2588 C 0.53843 0.05801 0.89818 0.0
C2589 C 0.52806 0.04279 0.91072 0.0
C2590 C 0.5053 0.02071 0.90945 0.0
C2591 C 0.4932 0.01427 0.89515 0.0
H2592 H 0.17351 0.27632 0.51518 0.0
H2593 H 0.09743 0.25978 0.51453 0.0
H2594 H 0.10257 0.27485 0.48829 0.0
H2595 H 0.19765 0.33162 0.49497 0.0
H2596 H 0.22016 0.32757 0.48468 0.0
H2597 H 0.21007 0.31404 0.50302 0.0
H2598 H 0.19744 0.27191 0.49157 0.0
H2599 H 0.20754 0.28533 0.47318 0.0
H2600 H 0.17647 0.26072 0.47565 0.0
H2601 H 0.11628 0.2926 0.46223 0.0
H2602 H 0.13809 0.31349 0.43889 0.0
H2603 H 0.20548 0.31918 0.45661 0.0
C2604 C 0.15787 0.27559 0.50942 0.0
C2605 C 0.13503 0.2668 0.51688 0.0
C2606 C 0.11512 0.26655 0.50906 0.0
C2607 C 0.11783 0.27496 0.49413 0.0
C2608 C 0.14062 0.2837 0.48715 0.0
C2609 C 0.16034 0.28417 0.49455 0.0
C2610 C 0.18319 0.29558 0.48474 0.0
C2611 C 0.20399 0.31856 0.49231 0.0
C2612 C 0.19165 0.27729 0.48107 0.0
C2613 C 0.17331 0.30161 0.47073 0.0
C2614 C 0.14865 0.29438 0.47228 0.0
C2615 C 0.13557 0.29825 0.46088 0.0
C2616 C 0.14809 0.31002 0.44761 0.0
C2617 C 0.1735 0.31801 0.44588 0.0
C2618 C 0.18611 0.3135 0.45761 0.0
H2619 H 0.69592 0.83052 0.51363 0.0
H2620 H 0.73365 0.90897 0.51064 0.0
H2621 H 0.71972 0.90551 0.48419 0.0
H2622 H 0.70683 0.81817 0.47573 0.0
H2623 H 0.6767 0.79184 0.47338 0.0
H2624 H 0.69051 0.80037 0.49195 0.0
H2625 H 0.65226 0.80167 0.50179 0.0
H2626 H 0.63829 0.79306 0.48326 0.0
H2627 H 0.64234 0.82026 0.49224 0.0
H2628 H 0.7022 0.89359 0.45775 0.0
H2629 H 0.67989 0.87389 0.43398 0.0
H2630 H 0.65105 0.80351 0.4548 0.0
C2631 C 0.7011 0.84705 0.50754 0.0
C2632 C 0.71623 0.87005 0.51435 0.0
C2633 C 0.72268 0.8911 0.50572 0.0
C2634 C 0.71468 0.88935 0.49066 0.0
C2635 C 0.69992 0.86643 0.48436 0.0
C2636 C 0.69297 0.84565 0.49257 0.0
C2637 C 0.67635 0.82321 0.48327 0.0
C2638 C 0.68832 0.80748 0.48094 0.0
C2639 C 0.6508 0.8087 0.49058 0.0
C2640 C 0.67503 0.83463 0.46855 0.0
C2641 C 0.68898 0.85958 0.46935 0.0
C2642 C 0.6911 0.87407 0.45703 0.0
C2643 C 0.67847 0.86276 0.44357 0.0
C2644 C 0.66368 0.83725 0.44262 0.0
C2645 C 0.66201 0.82307 0.45529 0.0
H2646 H 0.16471 0.87341 0.51173 0.0
H2647 H 0.09036 0.81195 0.51388 0.0
H2648 H 0.09634 0.79743 0.48914 0.0
H2649 H 0.16579 0.88283 0.47123 0.0
H2650 H 0.19755 0.89061 0.46937 0.0
H2651 H 0.18694 0.89679 0.48687 0.0
H2652 H 0.20274 0.8721 0.50155 0.0
H2653 H 0.21341 0.86587 0.48411 0.0
H2654 H 0.19238 0.84126 0.49594 0.0
H2655 H 0.11116 0.78876 0.46438 0.0
H2656 H 0.13379 0.78643 0.44212 0.0
H2657 H 0.19839 0.85344 0.45636 0.0
C2658 C 0.14967 0.85684 0.50707 0.0
C2659 C 0.12701 0.8439 0.51483 0.0
C2660 C 0.10776 0.82245 0.50812 0.0
C2661 C 0.11103 0.81397 0.49408 0.0
C2662 C 0.13364 0.82711 0.48681 0.0
C2663 C 0.15262 0.8481 0.49309 0.0
C2664 C 0.17534 0.85856 0.48319 0.0
C2665 C 0.18177 0.88368 0.47732 0.0
C2666 C 0.19725 0.85949 0.49171 0.0
C2667 C 0.16631 0.84 0.47046 0.0
C2668 C 0.14216 0.82208 0.47268 0.0
C2669 C 0.13004 0.80279 0.46251 0.0
C2670 C 0.14301 0.80169 0.44983 0.0
C2671 C 0.16792 0.8197 0.44745 0.0
C2672 C 0.17949 0.83919 0.4579 0.0
H2673 H 0.65168 0.80343 0.17041 0.0
H2674 H 0.6354 0.8621 0.16954 0.0
H2675 H 0.65256 0.87427 0.19531 0.0
H2676 H 0.63862 0.78839 0.20948 0.0
H2677 H 0.66374 0.78266 0.2123 0.0
H2678 H 0.6496 0.77809 0.19388 0.0
H2679 H 0.69216 0.80726 0.18215 0.0
H2680 H 0.70646 0.81189 0.20054 0.0
H2681 H 0.71032 0.83747 0.18978 0.0
H2682 H 0.67064 0.8796 0.22146 0.0
H2683 H 0.69037 0.87885 0.24562 0.0
H2684 H 0.69738 0.81861 0.22882 0.0
C2685 C 0.65194 0.81902 0.17551 0.0
C2686 C 0.64189 0.83161 0.16788 0.0
C2687 C 0.6424 0.85173 0.17519 0.0
C2688 C 0.65231 0.85894 0.18981 0.0
C2689 C 0.66193 0.84607 0.19697 0.0
C2690 C 0.66203 0.82667 0.19003 0.0
C2691 C 0.67389 0.81616 0.20013 0.0
C2692 C 0.65535 0.78976 0.20418 0.0
C2693 C 0.69709 0.81834 0.19271 0.0
C2694 C 0.68041 0.83269 0.21383 0.0
C2695 C 0.67317 0.8497 0.21183 0.0
C2696 C 0.67654 0.86647 0.22311 0.0
C2697 C 0.68767 0.86588 0.23679 0.0
C2698 C 0.69551 0.84881 0.239 0.0
C2699 C 0.69187 0.83207 0.22733 0.0
H2700 H 0.21771 0.83524 0.17797 0.0
H2701 H 0.18181 0.7567 0.17785 0.0
H2702 H 0.1673 0.75602 0.20378 0.0
H2703 H 0.23573 0.84508 0.21757 0.0
H2704 H 0.229 0.86925 0.21993 0.0
H2705 H 0.23833 0.86387 0.20171 0.0
H2706 H 0.19874 0.85976 0.18949 0.0
H2707 H 0.18931 0.86515 0.20766 0.0
H2708 H 0.16907 0.83815 0.19702 0.0
H2709 H 0.15571 0.76353 0.22957 0.0
H2710 H 0.14612 0.77882 0.25287 0.0
H2711 H 0.1873 0.85209 0.23576 0.0
C2712 C 0.20676 0.81785 0.18333 0.0
C2713 C 0.20129 0.79605 0.1758 0.0
C2714 C 0.18696 0.77376 0.18341 0.0
C2715 C 0.17842 0.77313 0.19815 0.0
C2716 C 0.1841 0.7949 0.20517 0.0
C2717 C 0.1978 0.81684 0.198 0.0
C2718 C 0.20031 0.83753 0.20782 0.0
C2719 C 0.22746 0.85496 0.212 0.0
C2720 C 0.18866 0.85093 0.20003 0.0
C2721 C 0.18563 0.82372 0.22155 0.0
C2722 C 0.1767 0.79918 0.21986 0.0
C2723 C 0.16263 0.78272 0.23103 0.0
C2724 C 0.15736 0.79156 0.24424 0.0
C2725 C 0.16593 0.81659 0.24609 0.0
C2726 C 0.18034 0.83283 0.23459 0.0
H2727 H 0.1769 0.38093 0.16681 0.0
H2728 H 0.24462 0.44629 0.17979 0.0
H2729 H 0.23852 0.43233 0.20617 0.0
H2730 H 0.14312 0.38038 0.20037 0.0
H2731 H 0.12616 0.3478 0.20126 0.0
H2732 H 0.13643 0.36257 0.18325 0.0
H2733 H 0.15898 0.33853 0.1782 0.0
H2734 H 0.14894 0.32383 0.19623 0.0
H2735 H 0.18132 0.34014 0.19177 0.0
H2736 H 0.22582 0.41001 0.23126 0.0
H2737 H 0.20635 0.3829 0.25286 0.0
H2738 H 0.14408 0.33543 0.22399 0.0
C2739 C 0.19037 0.39269 0.17512 0.0
C2740 C 0.21147 0.41474 0.17089 0.0
C2741 C 0.22864 0.42902 0.1824 0.0
C2742 C 0.22523 0.42135 0.19754 0.0
C2743 C 0.20429 0.39956 0.2012 0.0
C2744 C 0.18698 0.38563 0.19034 0.0
C2745 C 0.1657 0.36328 0.19727 0.0
C2746 C 0.14141 0.36353 0.19543 0.0
C2747 C 0.16363 0.34008 0.19046 0.0
C2748 C 0.17389 0.36664 0.21371 0.0
C2749 C 0.19629 0.38755 0.21574 0.0
C2750 C 0.20804 0.3938 0.22983 0.0
C2751 C 0.19662 0.37828 0.24213 0.0
C2752 C 0.17338 0.35681 0.24042 0.0
C2753 C 0.16194 0.3513 0.22591 0.0
H2754 H 0.83285 0.64332 0.85508 0.0
H2755 H 0.78262 0.5691 0.84135 0.0
H2756 H 0.78591 0.58206 0.8147 0.0
H2757 H 0.8114 0.67186 0.82906 0.0
H2758 H 0.84164 0.69706 0.82527 0.0
H2759 H 0.83536 0.68196 0.84325 0.0
H2760 H 0.87172 0.67412 0.83923 0.0
H2761 H 0.87815 0.68924 0.82124 0.0
H2762 H 0.87268 0.65874 0.82226 0.0
H2763 H 0.79313 0.60357 0.78961 0.0
H2764 H 0.80524 0.63126 0.76797 0.0
H2765 H 0.85356 0.6912 0.79764 0.0
C2766 C 0.82251 0.62982 0.84645 0.0
C2767 C 0.80742 0.60516 0.85032 0.0
C2768 C 0.79442 0.58803 0.83866 0.0
C2769 C 0.79611 0.59525 0.82349 0.0
C2770 C 0.81111 0.61967 0.82006 0.0
C2771 C 0.82429 0.63668 0.83119 0.0
C2772 C 0.83942 0.66171 0.82442 0.0
C2773 C 0.83147 0.67917 0.83089 0.0
C2774 C 0.86714 0.67152 0.82694 0.0
C2775 C 0.83247 0.65619 0.80779 0.0
C2776 C 0.81602 0.63187 0.80553 0.0
C2777 C 0.80631 0.62261 0.79122 0.0
C2778 C 0.81355 0.63857 0.77891 0.0
C2779 C 0.83067 0.66366 0.78082 0.0
C2780 C 0.84026 0.67233 0.79558 0.0
H2781 H 0.35511 0.20075 0.84601 0.0
H2782 H 0.38618 0.1534 0.84588 0.0
H2783 H 0.37108 0.14052 0.81968 0.0
H2784 H 0.30002 0.16049 0.82516 0.0
H2785 H 0.29911 0.1843 0.8148 0.0
H2786 H 0.31294 0.19034 0.8334 0.0
H2787 H 0.3535 0.22539 0.82262 0.0
H2788 H 0.33977 0.2195 0.804 0.0
H2789 H 0.36826 0.21953 0.80697 0.0
H2790 H 0.35342 0.13343 0.79339 0.0
H2791 H 0.33253 0.1311 0.7691 0.0
H2792 H 0.31146 0.18178 0.78657 0.0
C2793 C 0.35882 0.18778 0.8404 0.0
C2794 C 0.3718 0.17804 0.84792 0.0
C2795 C 0.37609 0.1609 0.84032 0.0
C2796 C 0.36769 0.15358 0.82544 0.0
C2797 C 0.35485 0.16341 0.81836 0.0
C2798 C 0.35028 0.18003 0.82559 0.0
C2799 C 0.33549 0.18733 0.81553 0.0
C2800 C 0.3104 0.18018 0.82265 0.0
C2801 C 0.35014 0.21455 0.81207 0.0
C2802 C 0.3325 0.17225 0.80151 0.0
C2803 C 0.34399 0.15874 0.80334 0.0
C2804 C 0.34426 0.14383 0.79184 0.0
C2805 C 0.33243 0.14267 0.77809 0.0
C2806 C 0.32031 0.15614 0.77603 0.0
C2807 C 0.32032 0.17105 0.78793 0.0
H2808 H 0.82857 0.20709 0.84623 0.0
H2809 H 0.75541 0.14377 0.84814 0.0
H2810 H 0.76185 0.13067 0.82302 0.0
H2811 H 0.82879 0.21757 0.80578 0.0
H2812 H 0.86087 0.22662 0.80372 0.0
H2813 H 0.84988 0.23173 0.82142 0.0
H2814 H 0.86728 0.20795 0.83554 0.0
H2815 H 0.87832 0.20279 0.8179 0.0
H2816 H 0.85805 0.17751 0.82956 0.0
H2817 H 0.77722 0.12344 0.79803 0.0
H2818 H 0.80042 0.12252 0.77566 0.0
H2819 H 0.86341 0.19054 0.79023 0.0
C2820 C 0.81388 0.19043 0.84141 0.0
C2821 C 0.79143 0.17652 0.84923 0.0
C2822 C 0.77262 0.15498 0.84234 0.0
C2823 C 0.77616 0.14731 0.82808 0.0
C2824 C 0.79857 0.16137 0.82077 0.0
C2825 C 0.81709 0.18251 0.82721 0.0
C2826 C 0.83974 0.19398 0.81725 0.0
C2827 C 0.84513 0.21896 0.81171 0.0
C2828 C 0.86216 0.19564 0.82556 0.0
C2829 C 0.83126 0.17579 0.80433 0.0
C2830 C 0.8074 0.15719 0.80649 0.0
C2831 C 0.79586 0.13802 0.79618 0.0
C2832 C 0.80914 0.13771 0.78345 0.0
C2833 C 0.83379 0.15641 0.78114 0.0
C2834 C 0.84473 0.1758 0.7917 0.0
H2835 H 0.27036 0.14471 0.5091 0.0
H2836 H 0.34433 0.16749 0.49341 0.0
H2837 H 0.35957 0.17604 0.51987 0.0
H2838 H 0.28728 0.18955 0.53758 0.0
H2839 H 0.26409 0.16988 0.5508 0.0
H2840 H 0.25889 0.16417 0.53076 0.0
H2841 H 0.25109 0.12064 0.53456 0.0
H2842 H 0.25633 0.12625 0.55463 0.0
H2843 H 0.27414 0.11627 0.54395 0.0
H2844 H 0.3671 0.18462 0.54794 0.0
H2845 H 0.36635 0.19269 0.57526 0.0
H2846 H 0.28715 0.16301 0.57255 0.0
C2847 C 0.28977 0.1515 0.51123 0.0
C2848 C 0.30618 0.15546 0.4992 0.0
C2849 C 0.33139 0.16409 0.50247 0.0
C2850 C 0.34022 0.16905 0.51745 0.0
C2851 C 0.32356 0.16507 0.52903 0.0
C2852 C 0.29884 0.15639 0.52609 0.0
C2853 C 0.28487 0.1543 0.54049 0.0
C2854 C 0.2731 0.17044 0.53986 0.0
C2855 C 0.26546 0.12779 0.54359 0.0
C2856 C 0.30568 0.16372 0.55196 0.0
C2857 C 0.32783 0.16969 0.54517 0.0
C2858 C 0.3498 0.17972 0.55341 0.0
C2859 C 0.34916 0.18408 0.56897 0.0
C2860 C 0.32669 0.17844 0.57612 0.0
C2861 C 0.30467 0.16773 0.56745 0.0
H2862 H 0.8493 0.15805 0.50309 0.0
H2863 H 0.89603 0.12755 0.51299 0.0
H2864 H 0.88772 0.12794 0.54028 0.0
H2865 H 0.86681 0.19749 0.53635 0.0
H2866 H 0.83623 0.19284 0.53901 0.0
H2867 H 0.84656 0.19094 0.52029 0.0
H2868 H 0.8088 0.14788 0.51695 0.0
H2869 H 0.79844 0.1496 0.53568 0.0
H2870 H 0.80337 0.12494 0.53067 0.0
H2871 H 0.87237 0.12931 0.56631 0.0
H2872 H 0.8527 0.13334 0.58939 0.0
H2873 H 0.81729 0.16468 0.56283 0.0
C2874 C 0.85783 0.15152 0.51101 0.0
C2875 C 0.8734 0.14284 0.5059 0.0
C2876 C 0.88433 0.1346 0.51664 0.0
C2877 C 0.87961 0.13461 0.53217 0.0
C2878 C 0.86403 0.14309 0.53681 0.0
C2879 C 0.85347 0.15159 0.52658 0.0
C2880 C 0.83731 0.15959 0.53457 0.0
C2881 C 0.84734 0.18683 0.53243 0.0
C2882 C 0.81039 0.1446 0.52914 0.0
C2883 C 0.84015 0.15391 0.55085 0.0
C2884 C 0.85563 0.14439 0.55189 0.0
C2885 C 0.8605 0.13707 0.56567 0.0
C2886 C 0.84933 0.13961 0.57877 0.0
C2887 C 0.83356 0.14959 0.57808 0.0
C2888 C 0.82904 0.15683 0.56384 0.0
H2889 H 0.88417 0.71295 0.50561 0.0
H2890 H 0.83475 0.74198 0.5074 0.0
H2891 H 0.82331 0.72709 0.53362 0.0
H2892 H 0.84463 0.65855 0.5254 0.0
H2893 H 0.86918 0.65737 0.53533 0.0
H2894 H 0.8749 0.67187 0.51717 0.0
H2895 H 0.91056 0.71127 0.52885 0.0
H2896 H 0.90497 0.69686 0.54705 0.0
H2897 H 0.9047 0.72483 0.54511 0.0
H2898 H 0.81686 0.7086 0.55954 0.0
H2899 H 0.81391 0.68568 0.5827 0.0
H2900 H 0.86604 0.66693 0.56373 0.0
C2901 C 0.87119 0.71641 0.51164 0.0
C2902 C 0.86044 0.72876 0.50456 0.0
C2903 C 0.84316 0.73255 0.51265 0.0
C2904 C 0.83663 0.72424 0.52754 0.0
C2905 C 0.84737 0.71193 0.53417 0.0
C2906 C 0.86416 0.70787 0.52645 0.0
C2907 C 0.87191 0.69296 0.53588 0.0
C2908 C 0.86472 0.66876 0.52797 0.0
C2909 C 0.89968 0.70735 0.53943 0.0
C2910 C 0.85676 0.68917 0.55005 0.0
C2911 C 0.84297 0.70053 0.5489 0.0
C2912 C 0.82759 0.69965 0.56057 0.0
C2913 C 0.8261 0.68668 0.5737 0.0
C2914 C 0.83968 0.67448 0.57502 0.0
C2915 C 0.85527 0.67589 0.56301 0.0
loop_
_geom_bond_atom_site_label_1
_geom_bond_atom_site_label_2
_geom_bond_distance
_geom_bond_site_symmetry_2
_ccdc_geom_bond_type
C0 C1 1.386 . S
C0 C2 1.397 . S
C0 H24 0.931 . S
C1 C0 1.386 . S
C1 C5 1.397 . S
C2 C0 1.397 . S
C2 C3 1.384 . S
C2 H25 0.930 . S
C3 C2 1.384 . S
C3 C4 1.377 . S
C3 C6 1.481 . S
C4 C3 1.377 . S
C4 C5 1.389 . S
C4 H26 0.929 . S
C5 C1 1.397 . S
C5 C4 1.389 . S
C5 H27 0.931 . S
C6 C3 1.481 . S
C6 C7 1.387 . S
C6 C11 1.390 . S
C7 C6 1.387 . S
C7 C8 1.401 . S
C7 H28 0.930 . S
C8 C7 1.401 . S
C8 C9 1.376 . S
C8 C17 1.511 . S
C9 C8 1.376 . S
C9 C10 1.392 . S
C9 H30 0.931 . S
C10 C9 1.392 . S
C10 C11 1.361 . S
C10 C12 1.500 . S
C11 C6 1.390 . S
C11 C10 1.361 . S
C11 H29 0.931 . S
C12 C10 1.500 . S
C12 C13 1.371 . S
C12 C14 1.365 . S
C13 C12 1.371 . S
C13 C23 1.386 . S
C13 H31 0.931 . S
C14 C12 1.365 . S
C14 C15 1.409 . S
C14 H32 0.929 . S
C15 C14 1.409 . S
C15 C16 1.380 . S
C15 H33 0.930 . S
C16 C15 1.380 . S
C16 C23 1.357 . S
C17 C8 1.511 . S
C17 C18 1.341 . S
C17 C19 1.371 . S
C18 C17 1.341 . S
C18 C22 1.394 . S
C18 H34 0.930 . S
C19 C17 1.371 . S
C19 C20 1.392 . S
C19 H35 0.931 . S
C20 C19 1.392 . S
C20 C21 1.331 . S
C20 H38 0.932 . S
C21 C20 1.331 . S
C21 C22 1.336 . S
C22 C18 1.394 . S
C22 C21 1.336 . S
C22 H37 0.929 . S
C23 C13 1.386 . S
C23 C16 1.357 . S
C23 H36 0.928 . S
H24 C0 0.931 . S
H25 C2 0.930 . S
H26 C4 0.929 . S
H27 C5 0.931 . S
H28 C7 0.930 . S
H29 C11 0.931 . S
H30 C9 0.931 . S
H31 C13 0.931 . S
H32 C14 0.929 . S
H33 C15 0.930 . S
H34 C18 0.930 . S
H35 C19 0.931 . S
H36 C23 0.928 . S
H37 C22 0.929 . S
H38 C20 0.932 . S
C39 C40 1.386 . S
C39 C41 1.397 . S
C39 H63 0.931 . S
C40 C39 1.386 . S
C40 C44 1.397 . S
C41 C39 1.397 . S
C41 C42 1.384 . S
C41 H64 0.930 . S
C42 C41 1.384 . S
C42 C43 1.377 . S
C42 C45 1.481 . S
C43 C42 1.377 . S
C43 C44 1.389 . S
C43 H65 0.929 . S
C44 C40 1.397 . S
C44 C43 1.389 . S
C44 H66 0.931 . S
C45 C42 1.481 . S
C45 C46 1.387 . S
C45 C50 1.390 . S
C46 C45 1.387 . S
C46 C47 1.401 . S
C46 H67 0.930 . S
C47 C46 1.401 . S
C47 C48 1.376 . S
C47 C56 1.511 . S
C48 C47 1.376 . S
C48 C49 1.392 . S
C48 H69 0.931 . S
C49 C48 1.392 . S
C49 C50 1.361 . S
C49 C51 1.500 . S
C50 C45 1.390 . S
C50 C49 1.361 . S
C50 H68 0.931 . S
C51 C49 1.500 . S
C51 C52 1.371 . S
C51 C53 1.365 . S
C52 C51 1.371 . S
C52 C62 1.386 . S
C52 H70 0.931 . S
C53 C51 1.365 . S
C53 C54 1.409 . S
C53 H71 0.929 . S
C54 C53 1.409 . S
C54 C55 1.380 . S
C54 H72 0.930 . S
C55 C54 1.380 . S
C55 C62 1.357 . S
C56 C47 1.511 . S
C56 C57 1.341 . S
C56 C58 1.371 . S
C57 C56 1.341 . S
C57 C61 1.394 . S
C57 H73 0.930 . S
C58 C56 1.371 . S
C58 C59 1.392 . S
C58 H74 0.931 . S
C59 C58 1.392 . S
C59 C60 1.331 . S
C59 H77 0.932 . S
C60 C59 1.331 . S
C60 C61 1.336 . S
C61 C57 1.394 . S
C61 C60 1.336 . S
C61 H76 0.929 . S
C62 C52 1.386 . S
C62 C55 1.357 . S
C62 H75 0.928 . S
H63 C39 0.931 . S
H64 C41 0.930 . S
H65 C43 0.929 . S
H66 C44 0.931 . S
H67 C46 0.930 . S
H68 C50 0.931 . S
H69 C48 0.931 . S
H70 C52 0.931 . S
H71 C53 0.929 . S
H72 C54 0.930 . S
H73 C57 0.930 . S
H74 C58 0.931 . S
H75 C62 0.928 . S
H76 C61 0.929 . S
H77 C59 0.932 . S
C78 C79 1.386 . S
C78 C80 1.397 . S
C78 H102 0.931 . S
C79 C78 1.386 . S
C79 C83 1.397 . S
C80 C78 1.397 . S
C80 C81 1.384 . S
C80 H103 0.930 . S
C81 C80 1.384 . S
C81 C82 1.377 . S
C81 C84 1.481 . S
C82 C81 1.377 . S
C82 C83 1.389 . S
C82 H104 0.929 . S
C83 C79 1.397 . S
C83 C82 1.389 . S
C83 H105 0.931 . S
C84 C81 1.481 . S
C84 C85 1.387 . S
C84 C89 1.390 . S
C85 C84 1.387 . S
C85 C86 1.401 . S
C85 H106 0.930 . S
C86 C85 1.401 . S
C86 C87 1.376 . S
C86 C95 1.511 . S
C87 C86 1.376 . S
C87 C88 1.392 . S
C87 H108 0.931 . S
C88 C87 1.392 . S
C88 C89 1.361 . S
C88 C90 1.500 . S
C89 C84 1.390 . S
C89 C88 1.361 . S
C89 H107 0.931 . S
C90 C88 1.500 . S
C90 C91 1.371 . S
C90 C92 1.365 . S
C91 C90 1.371 . S
C91 C101 1.386 . S
C91 H109 0.931 . S
C92 C90 1.365 . S
C92 C93 1.409 . S
C92 H110 0.929 . S
C93 C92 1.409 . S
C93 C94 1.380 . S
C93 H111 0.930 . S
C94 C93 1.380 . S
C94 C101 1.357 . S
C95 C86 1.511 . S
C95 C96 1.341 . S
C95 C97 1.371 . S
C96 C95 1.341 . S
C96 C100 1.394 . S
C96 H112 0.930 . S
C97 C95 1.371 . S
C97 C98 1.392 . S
C97 H113 0.931 . S
C98 C97 1.392 . S
C98 C99 1.331 . S
C98 H116 0.932 . S
C99 C98 1.331 . S
C99 C100 1.336 . S
C100 C96 1.394 . S
C100 C99 1.336 . S
C100 H115 0.929 . S
C101 C91 1.386 . S
C101 C94 1.357 . S
C101 H114 0.928 . S
H102 C78 0.931 . S
H103 C80 0.930 . S
H104 C82 0.929 . S
H105 C83 0.931 . S
H106 C85 0.930 . S
H107 C89 0.931 . S
H108 C87 0.931 . S
H109 C91 0.931 . S
H110 C92 0.929 . S
H111 C93 0.930 . S
H112 C96 0.930 . S
H113 C97 0.931 . S
H114 C101 0.928 . S
H115 C100 0.929 . S
H116 C98 0.932 . S
C117 C118 1.386 . S
C117 C119 1.397 . S
C117 H141 0.931 . S
C118 C117 1.386 . S
C118 C122 1.397 . S
C119 C117 1.397 . S
C119 C120 1.384 . S
C119 H142 0.930 . S
C120 C119 1.384 . S
C120 C121 1.377 . S
C120 C123 1.481 . S
C121 C120 1.377 . S
C121 C122 1.389 . S
C121 H143 0.929 . S
C122 C118 1.397 . S
C122 C121 1.389 . S
C122 H144 0.931 . S
C123 C120 1.481 . S
C123 C124 1.387 . S
C123 C128 1.390 . S
C124 C123 1.387 . S
C124 C125 1.401 . S
C124 H145 0.930 . S
C125 C124 1.401 . S
C125 C126 1.376 . S
C125 C134 1.511 . S
C126 C125 1.376 . S
C126 C127 1.392 . S
C126 H147 0.931 . S
C127 C126 1.392 . S
C127 C128 1.361 . S
C127 C129 1.500 . S
C128 C123 1.390 . S
C128 C127 1.361 . S
C128 H146 0.931 . S
C129 C127 1.500 . S
C129 C130 1.371 . S
C129 C131 1.365 . S
C130 C129 1.371 . S
C130 C140 1.386 . S
C130 H148 0.931 . S
C131 C129 1.365 . S
C131 C132 1.409 . S
C131 H149 0.929 . S
C132 C131 1.409 . S
C132 C133 1.380 . S
C132 H150 0.930 . S
C133 C132 1.380 . S
C133 C140 1.357 . S
C134 C125 1.511 . S
C134 C135 1.341 . S
C134 C136 1.371 . S
C135 C134 1.341 . S
C135 C139 1.394 . S
C135 H151 0.930 . S
C136 C134 1.371 . S
C136 C137 1.392 . S
C136 H152 0.931 . S
C137 C136 1.392 . S
C137 C138 1.331 . S
C137 H155 0.932 . S
C138 C137 1.331 . S
C138 C139 1.336 . S
C139 C135 1.394 . S
C139 C138 1.336 . S
C139 H154 0.929 . S
C140 C130 1.386 . S
C140 C133 1.357 . S
C140 H153 0.928 . S
H141 C117 0.931 . S
H142 C119 0.930 . S
H143 C121 0.929 . S
H144 C122 0.931 . S
H145 C124 0.930 . S
H146 C128 0.931 . S
H147 C126 0.931 . S
H148 C130 0.931 . S
H149 C131 0.929 . S
H150 C132 0.930 . S
H151 C135 0.930 . S
H152 C136 0.931 . S
H153 C140 0.928 . S
H154 C139 0.929 . S
H155 C137 0.932 . S
C156 C157 1.386 . S
C156 C158 1.397 . S
C156 H180 0.931 . S
C157 C156 1.386 . S
C157 C161 1.397 . S
C158 C156 1.397 . S
C158 C159 1.384 . S
C158 H181 0.930 . S
C159 C158 1.384 . S
C159 C160 1.377 . S
C159 C162 1.481 . S
C160 C159 1.377 . S
C160 C161 1.389 . S
C160 H182 0.929 . S
C161 C157 1.397 . S
C161 C160 1.389 . S
C161 H183 0.931 . S
C162 C159 1.481 . S
C162 C163 1.387 . S
C162 C167 1.390 . S
C163 C162 1.387 . S
C163 C164 1.401 . S
C163 H184 0.930 . S
C164 C163 1.401 . S
C164 C165 1.376 . S
C164 C173 1.511 . S
C165 C164 1.376 . S
C165 C166 1.392 . S
C165 H186 0.931 . S
C166 C165 1.392 . S
C166 C167 1.361 . S
C166 C168 1.500 . S
C167 C162 1.390 . S
C167 C166 1.361 . S
C167 H185 0.931 . S
C168 C166 1.500 . S
C168 C169 1.371 . S
C168 C170 1.365 . S
C169 C168 1.371 . S
C169 C179 1.386 . S
C169 H187 0.931 . S
C170 C168 1.365 . S
C170 C171 1.409 . S
C170 H188 0.929 . S
C171 C170 1.409 . S
C171 C172 1.380 . S
C171 H189 0.930 . S
C172 C171 1.380 . S
C172 C179 1.357 . S
C173 C164 1.511 . S
C173 C174 1.341 . S
C173 C175 1.371 . S
C174 C173 1.341 . S
C174 C178 1.394 . S
C174 H190 0.930 . S
C175 C173 1.371 . S
C175 C176 1.392 . S
C175 H191 0.931 . S
C176 C175 1.392 . S
C176 C177 1.331 . S
C176 H194 0.932 . S
C177 C176 1.331 . S
C177 C178 1.336 . S
C178 C174 1.394 . S
C178 C177 1.336 . S
C178 H193 0.929 . S
C179 C169 1.386 . S
C179 C172 1.357 . S
C179 H192 0.928 . S
H180 C156 0.931 . S
H181 C158 0.930 . S
H182 C160 0.929 . S
H183 C161 0.931 . S
H184 C163 0.930 . S
H185 C167 0.931 . S
H186 C165 0.931 . S
H187 C169 0.931 . S
H188 C170 0.929 . S
H189 C171 0.930 . S
H190 C174 0.930 . S
H191 C175 0.931 . S
H192 C179 0.928 . S
H193 C178 0.929 . S
H194 C176 0.932 . S
C195 C196 1.386 . S
C195 C197 1.397 . S
C195 H219 0.931 . S
C196 C195 1.386 . S
C196 C200 1.397 . S
C197 C195 1.397 . S
C197 C198 1.384 . S
C197 H220 0.930 . S
C198 C197 1.384 . S
C198 C199 1.377 . S
C198 C201 1.481 . S
C199 C198 1.377 . S
C199 C200 1.389 . S
C199 H221 0.929 . S
C200 C196 1.397 . S
C200 C199 1.389 . S
C200 H222 0.931 . S
C201 C198 1.481 . S
C201 C202 1.387 . S
C201 C206 1.390 . S
C202 C201 1.387 . S
C202 C203 1.401 . S
C202 H223 0.930 . S
C203 C202 1.401 . S
C203 C204 1.376 . S
C203 C212 1.511 . S
C204 C203 1.376 . S
C204 C205 1.392 . S
C204 H225 0.931 . S
C205 C204 1.392 . S
C205 C206 1.361 . S
C205 C207 1.500 . S
C206 C201 1.390 . S
C206 C205 1.361 . S
C206 H224 0.931 . S
C207 C205 1.500 . S
C207 C208 1.371 . S
C207 C209 1.365 . S
C208 C207 1.371 . S
C208 C218 1.386 . S
C208 H226 0.931 . S
C209 C207 1.365 . S
C209 C210 1.409 . S
C209 H227 0.929 . S
C210 C209 1.409 . S
C210 C211 1.380 . S
C210 H228 0.930 . S
C211 C210 1.380 . S
C211 C218 1.357 . S
C212 C203 1.511 . S
C212 C213 1.341 . S
C212 C214 1.371 . S
C213 C212 1.341 . S
C213 C217 1.394 . S
C213 H229 0.930 . S
C214 C212 1.371 . S
C214 C215 1.392 . S
C214 H230 0.931 . S
C215 C214 1.392 . S
C215 C216 1.331 . S
C215 H233 0.932 . S
C216 C215 1.331 . S
C216 C217 1.336 . S
C217 C213 1.394 . S
C217 C216 1.336 . S
C217 H232 0.929 . S
C218 C208 1.386 . S
C218 C211 1.357 . S
C218 H231 0.928 . S
H219 C195 0.931 . S
H220 C197 0.930 . S
H221 C199 0.929 . S
H222 C200 0.931 . S
H223 C202 0.930 . S
H224 C206 0.931 . S
H225 C204 0.931 . S
H226 C208 0.931 . S
H227 C209 0.929 . S
H228 C210 0.930 . S
H229 C213 0.930 . S
H230 C214 0.931 . S
H231 C218 0.928 . S
H232 C217 0.929 . S
H233 C215 0.932 . S
C234 C235 1.386 . S
C234 C236 1.397 . S
C234 H258 0.931 . S
C235 C234 1.386 . S
C235 C239 1.397 . S
C236 C234 1.397 . S
C236 C237 1.384 . S
C236 H259 0.930 . S
C237 C236 1.384 . S
C237 C238 1.377 . S
C237 C240 1.481 . S
C238 C237 1.377 . S
C238 C239 1.389 . S
C238 H260 0.929 . S
C239 C235 1.397 . S
C239 C238 1.389 . S
C239 H261 0.931 . S
C240 C237 1.481 . S
C240 C241 1.387 . S
C240 C245 1.390 . S
C241 C240 1.387 . S
C241 C242 1.401 . S
C241 H262 0.930 . S
C242 C241 1.401 . S
C242 C243 1.376 . S
C242 C251 1.511 . S
C243 C242 1.376 . S
C243 C244 1.392 . S
C243 H264 0.931 . S
C244 C243 1.392 . S
C244 C245 1.361 . S
C244 C246 1.500 . S
C245 C240 1.390 . S
C245 C244 1.361 . S
C245 H263 0.931 . S
C246 C244 1.500 . S
C246 C247 1.371 . S
C246 C248 1.365 . S
C247 C246 1.371 . S
C247 C257 1.386 . S
C247 H265 0.931 . S
C248 C246 1.365 . S
C248 C249 1.409 . S
C248 H266 0.929 . S
C249 C248 1.409 . S
C249 C250 1.380 . S
C249 H267 0.930 . S
C250 C249 1.380 . S
C250 C257 1.357 . S
C251 C242 1.511 . S
C251 C252 1.341 . S
C251 C253 1.371 . S
C252 C251 1.341 . S
C252 C256 1.394 . S
C252 H268 0.930 . S
C253 C251 1.371 . S
C253 C254 1.392 . S
C253 H269 0.931 . S
C254 C253 1.392 . S
C254 C255 1.331 . S
C254 H272 0.932 . S
C255 C254 1.331 . S
C255 C256 1.336 . S
C256 C252 1.394 . S
C256 C255 1.336 . S
C256 H271 0.929 . S
C257 C247 1.386 . S
C257 C250 1.357 . S
C257 H270 0.928 . S
H258 C234 0.931 . S
H259 C236 0.930 . S
H260 C238 0.929 . S
H261 C239 0.931 . S
H262 C241 0.930 . S
H263 C245 0.931 . S
H264 C243 0.931 . S
H265 C247 0.931 . S
H266 C248 0.929 . S
H267 C249 0.930 . S
H268 C252 0.930 . S
H269 C253 0.931 . S
H270 C257 0.928 . S
H271 C256 0.929 . S
H272 C254 0.932 . S
C273 C274 1.386 . S
C273 C275 1.397 . S
C273 H297 0.931 . S
C274 C273 1.386 . S
C274 C278 1.397 . S
C275 C273 1.397 . S
C275 C276 1.384 . S
C275 H298 0.930 . S
C276 C275 1.384 . S
C276 C277 1.377 . S
C276 C279 1.481 . S
C277 C276 1.377 . S
C277 C278 1.389 . S
C277 H299 0.929 . S
C278 C274 1.397 . S
C278 C277 1.389 . S
C278 H300 0.931 . S
C279 C276 1.481 . S
C279 C280 1.387 . S
C279 C284 1.390 . S
C280 C279 1.387 . S
C280 C281 1.401 . S
C280 H301 0.930 . S
C281 C280 1.401 . S
C281 C282 1.376 . S
C281 C290 1.511 . S
C282 C281 1.376 . S
C282 C283 1.392 . S
C282 H303 0.931 . S
C283 C282 1.392 . S
C283 C284 1.361 . S
C283 C285 1.500 . S
C284 C279 1.390 . S
C284 C283 1.361 . S
C284 H302 0.931 . S
C285 C283 1.500 . S
C285 C286 1.371 . S
C285 C287 1.365 . S
C286 C285 1.371 . S
C286 C296 1.386 . S
C286 H304 0.931 . S
C287 C285 1.365 . S
C287 C288 1.409 . S
C287 H305 0.929 . S
C288 C287 1.409 . S
C288 C289 1.380 . S
C288 H306 0.930 . S
C289 C288 1.380 . S
C289 C296 1.357 . S
C290 C281 1.511 . S
C290 C291 1.341 . S
C290 C292 1.371 . S
C291 C290 1.341 . S
C291 C295 1.394 . S
C291 H307 0.930 . S
C292 C290 1.371 . S
C292 C293 1.392 . S
C292 H308 0.931 . S
C293 C292 1.392 . S
C293 C294 1.331 . S
C293 H311 0.932 . S
C294 C293 1.331 . S
C294 C295 1.336 . S
C295 C291 1.394 . S
C295 C294 1.336 . S
C295 H310 0.929 . S
C296 C286 1.386 . S
C296 C289 1.357 . S
C296 H309 0.928 . S
H297 C273 0.931 . S
H298 C275 0.930 . S
H299 C277 0.929 . S
H300 C278 0.931 . S
H301 C280 0.930 . S
H302 C284 0.931 . S
H303 C282 0.931 . S
H304 C286 0.931 . S
H305 C287 0.929 . S
H306 C288 0.930 . S
H307 C291 0.930 . S
H308 C292 0.931 . S
H309 C296 0.928 . S
H310 C295 0.929 . S
H311 C293 0.932 . S
C312 C313 1.386 . S
C312 C314 1.397 . S
C312 H336 0.931 . S
C313 C312 1.386 . S
C313 C317 1.397 . S
C314 C312 1.397 . S
C314 C315 1.384 . S
C314 H337 0.930 . S
C315 C314 1.384 . S
C315 C316 1.377 . S
C315 C318 1.481 . S
C316 C315 1.377 . S
C316 C317 1.389 . S
C316 H338 0.929 . S
C317 C313 1.397 . S
C317 C316 1.389 . S
C317 H339 0.931 . S
C318 C315 1.481 . S
C318 C319 1.387 . S
C318 C323 1.390 . S
C319 C318 1.387 . S
C319 C320 1.401 . S
C319 H340 0.930 . S
C320 C319 1.401 . S
C320 C321 1.376 . S
C320 C329 1.511 . S
C321 C320 1.376 . S
C321 C322 1.392 . S
C321 H342 0.931 . S
C322 C321 1.392 . S
C322 C323 1.361 . S
C322 C324 1.500 . S
C323 C318 1.390 . S
C323 C322 1.361 . S
C323 H341 0.931 . S
C324 C322 1.500 . S
C324 C325 1.371 . S
C324 C326 1.365 . S
C325 C324 1.371 . S
C325 C335 1.386 . S
C325 H343 0.931 . S
C326 C324 1.365 . S
C326 C327 1.409 . S
C326 H344 0.929 . S
C327 C326 1.409 . S
C327 C328 1.380 . S
C327 H345 0.930 . S
C328 C327 1.380 . S
C328 C335 1.357 . S
C329 C320 1.511 . S
C329 C330 1.341 . S
C329 C331 1.371 . S
C330 C329 1.341 . S
C330 C334 1.394 . S
C330 H346 0.930 . S
C331 C329 1.371 . S
C331 C332 1.392 . S
C331 H347 0.931 . S
C332 C331 1.392 . S
C332 C333 1.331 . S
C332 H350 0.932 . S
C333 C332 1.331 . S
C333 C334 1.336 . S
C334 C330 1.394 . S
C334 C333 1.336 . S
C334 H349 0.929 . S
C335 C325 1.386 . S
C335 C328 1.357 . S
C335 H348 0.928 . S
H336 C312 0.931 . S
H337 C314 0.930 . S
H338 C316 0.929 . S
H339 C317 0.931 . S
H340 C319 0.930 . S
H341 C323 0.931 . S
H342 C321 0.931 . S
H343 C325 0.931 . S
H344 C326 0.929 . S
H345 C327 0.930 . S
H346 C330 0.930 . S
H347 C331 0.931 . S
H348 C335 0.928 . S
H349 C334 0.929 . S
H350 C332 0.932 . S
C351 C352 1.386 . S
C351 C353 1.397 . S
C351 H375 0.931 . S
C352 C351 1.386 . S
C352 C356 1.397 . S
C353 C351 1.397 . S
C353 C354 1.384 . S
C353 H376 0.930 . S
C354 C353 1.384 . S
C354 C355 1.377 . S
C354 C357 1.481 . S
C355 C354 1.377 . S
C355 C356 1.389 . S
C355 H377 0.929 . S
C356 C352 1.397 . S
C356 C355 1.389 . S
C356 H378 0.931 . S
C357 C354 1.481 . S
C357 C358 1.387 . S
C357 C362 1.390 . S
C358 C357 1.387 . S
C358 C359 1.401 . S
C358 H379 0.930 . S
C359 C358 1.401 . S
C359 C360 1.376 . S
C359 C368 1.511 . S
C360 C359 1.376 . S
C360 C361 1.392 . S
C360 H381 0.931 . S
C361 C360 1.392 . S
C361 C362 1.361 . S
C361 C363 1.500 . S
C362 C357 1.390 . S
C362 C361 1.361 . S
C362 H380 0.931 . S
C363 C361 1.500 . S
C363 C364 1.371 . S
C363 C365 1.365 . S
C364 C363 1.371 . S
C364 C374 1.386 . S
C364 H382 0.931 . S
C365 C363 1.365 . S
C365 C366 1.409 . S
C365 H383 0.929 . S
C366 C365 1.409 . S
C366 C367 1.380 . S
C366 H384 0.930 . S
C367 C366 1.380 . S
C367 C374 1.357 . S
C368 C359 1.511 . S
C368 C369 1.341 . S
C368 C370 1.371 . S
C369 C368 1.341 . S
C369 C373 1.394 . S
C369 H385 0.930 . S
C370 C368 1.371 . S
C370 C371 1.392 . S
C370 H386 0.931 . S
C371 C370 1.392 . S
C371 C372 1.331 . S
C371 H389 0.932 . S
C372 C371 1.331 . S
C372 C373 1.336 . S
C373 C369 1.394 . S
C373 C372 1.336 . S
C373 H388 0.929 . S
C374 C364 1.386 . S
C374 C367 1.357 . S
C374 H387 0.928 . S
H375 C351 0.931 . S
H376 C353 0.930 . S
H377 C355 0.929 . S
H378 C356 0.931 . S
H379 C358 0.930 . S
H380 C362 0.931 . S
H381 C360 0.931 . S
H382 C364 0.931 . S
H383 C365 0.929 . S
H384 C366 0.930 . S
H385 C369 0.930 . S
H386 C370 0.931 . S
H387 C374 0.928 . S
H388 C373 0.929 . S
H389 C371 0.932 . S
C390 C391 1.386 . S
C390 C392 1.397 . S
C390 H414 0.931 . S
C391 C390 1.386 . S
C391 C395 1.397 . S
C392 C390 1.397 . S
C392 C393 1.384 . S
C392 H415 0.930 . S
C393 C392 1.384 . S
C393 C394 1.377 . S
C393 C396 1.481 . S
C394 C393 1.377 . S
C394 C395 1.389 . S
C394 H416 0.929 . S
C395 C391 1.397 . S
C395 C394 1.389 . S
C395 H417 0.931 . S
C396 C393 1.481 . S
C396 C397 1.387 . S
C396 C401 1.390 . S
C397 C396 1.387 . S
C397 C398 1.401 . S
C397 H418 0.930 . S
C398 C397 1.401 . S
C398 C399 1.376 . S
C398 C407 1.511 . S
C399 C398 1.376 . S
C399 C400 1.392 . S
C399 H420 0.931 . S
C400 C399 1.392 . S
C400 C401 1.361 . S
C400 C402 1.500 . S
C401 C396 1.390 . S
C401 C400 1.361 . S
C401 H419 0.931 . S
C402 C400 1.500 . S
C402 C403 1.371 . S
C402 C404 1.365 . S
C403 C402 1.371 . S
C403 C413 1.386 . S
C403 H421 0.931 . S
C404 C402 1.365 . S
C404 C405 1.409 . S
C404 H422 0.929 . S
C405 C404 1.409 . S
C405 C406 1.380 . S
C405 H423 0.930 . S
C406 C405 1.380 . S
C406 C413 1.357 . S
C407 C398 1.511 . S
C407 C408 1.341 . S
C407 C409 1.371 . S
C408 C407 1.341 . S
C408 C412 1.394 . S
C408 H424 0.930 . S
C409 C407 1.371 . S
C409 C410 1.392 . S
C409 H425 0.931 . S
C410 C409 1.392 . S
C410 C411 1.331 . S
C410 H428 0.932 . S
C411 C410 1.331 . S
C411 C412 1.336 . S
C412 C408 1.394 . S
C412 C411 1.336 . S
C412 H427 0.929 . S
C413 C403 1.386 . S
C413 C406 1.357 . S
C413 H426 0.928 . S
H414 C390 0.931 . S
H415 C392 0.930 . S
H416 C394 0.929 . S
H417 C395 0.931 . S
H418 C397 0.930 . S
H419 C401 0.931 . S
H420 C399 0.931 . S
H421 C403 0.931 . S
H422 C404 0.929 . S
H423 C405 0.930 . S
H424 C408 0.930 . S
H425 C409 0.931 . S
H426 C413 0.928 . S
H427 C412 0.929 . S
H428 C410 0.932 . S
C429 C430 1.386 . S
C429 C431 1.397 . S
C429 H453 0.931 . S
C430 C429 1.386 . S
C430 C434 1.397 . S
C431 C429 1.397 . S
C431 C432 1.384 . S
C431 H454 0.930 . S
C432 C431 1.384 . S
C432 C433 1.377 . S
C432 C435 1.481 . S
C433 C432 1.377 . S
C433 C434 1.389 . S
C433 H455 0.929 . S
C434 C430 1.397 . S
C434 C433 1.389 . S
C434 H456 0.931 . S
C435 C432 1.481 . S
C435 C436 1.387 . S
C435 C440 1.390 . S
C436 C435 1.387 . S
C436 C437 1.401 . S
C436 H457 0.930 . S
C437 C436 1.401 . S
C437 C438 1.376 . S
C437 C446 1.511 . S
C438 C437 1.376 . S
C438 C439 1.392 . S
C438 H459 0.931 . S
C439 C438 1.392 . S
C439 C440 1.361 . S
C439 C441 1.500 . S
C440 C435 1.390 . S
C440 C439 1.361 . S
C440 H458 0.931 . S
C441 C439 1.500 . S
C441 C442 1.371 . S
C441 C443 1.365 . S
C442 C441 1.371 . S
C442 C452 1.386 . S
C442 H460 0.931 . S
C443 C441 1.365 . S
C443 C444 1.409 . S
C443 H461 0.929 . S
C444 C443 1.409 . S
C444 C445 1.380 . S
C444 H462 0.930 . S
C445 C444 1.380 . S
C445 C452 1.357 . S
C446 C437 1.511 . S
C446 C447 1.341 . S
C446 C448 1.371 . S
C447 C446 1.341 . S
C447 C451 1.394 . S
C447 H463 0.930 . S
C448 C446 1.371 . S
C448 C449 1.392 . S
C448 H464 0.931 . S
C449 C448 1.392 . S
C449 C450 1.331 . S
C449 H467 0.932 . S
C450 C449 1.331 . S
C450 C451 1.336 . S
C451 C447 1.394 . S
C451 C450 1.336 . S
C451 H466 0.929 . S
C452 C442 1.386 . S
C452 C445 1.357 . S
C452 H465 0.928 . S
H453 C429 0.931 . S
H454 C431 0.930 . S
H455 C433 0.929 . S
H456 C434 0.931 . S
H457 C436 0.930 . S
H458 C440 0.931 . S
H459 C438 0.931 . S
H460 C442 0.931 . S
H461 C443 0.929 . S
H462 C444 0.930 . S
H463 C447 0.930 . S
H464 C448 0.931 . S
H465 C452 0.928 . S
H466 C451 0.929 . S
H467 C449 0.932 . S
C468 C469 1.386 . S
C468 C470 1.397 . S
C468 H492 0.931 . S
C469 C468 1.386 . S
C469 C473 1.397 . S
C470 C468 1.397 . S
C470 C471 1.384 . S
C470 H493 0.930 . S
C471 C470 1.384 . S
C471 C472 1.377 . S
C471 C474 1.481 . S
C472 C471 1.377 . S
C472 C473 1.389 . S
C472 H494 0.929 . S
C473 C469 1.397 . S
C473 C472 1.389 . S
C473 H495 0.931 . S
C474 C471 1.481 . S
C474 C475 1.387 . S
C474 C479 1.390 . S
C475 C474 1.387 . S
C475 C476 1.401 . S
C475 H496 0.930 . S
C476 C475 1.401 . S
C476 C477 1.376 . S
C476 C485 1.511 . S
C477 C476 1.376 . S
C477 C478 1.392 . S
C477 H498 0.931 . S
C478 C477 1.392 . S
C478 C479 1.361 . S
C478 C480 1.500 . S
C479 C474 1.390 . S
C479 C478 1.361 . S
C479 H497 0.931 . S
C480 C478 1.500 . S
C480 C481 1.371 . S
C480 C482 1.365 . S
C481 C480 1.371 . S
C481 C491 1.386 . S
C481 H499 0.931 . S
C482 C480 1.365 . S
C482 C483 1.409 . S
C482 H500 0.929 . S
C483 C482 1.409 . S
C483 C484 1.380 . S
C483 H501 0.930 . S
C484 C483 1.380 . S
C484 C491 1.357 . S
C485 C476 1.511 . S
C485 C486 1.341 . S
C485 C487 1.371 . S
C486 C485 1.341 . S
C486 C490 1.394 . S
C486 H502 0.930 . S
C487 C485 1.371 . S
C487 C488 1.392 . S
C487 H503 0.931 . S
C488 C487 1.392 . S
C488 C489 1.331 . S
C488 H506 0.932 . S
C489 C488 1.331 . S
C489 C490 1.336 . S
C490 C486 1.394 . S
C490 C489 1.336 . S
C490 H505 0.929 . S
C491 C481 1.386 . S
C491 C484 1.357 . S
C491 H504 0.928 . S
H492 C468 0.931 . S
H493 C470 0.930 . S
H494 C472 0.929 . S
H495 C473 0.931 . S
H496 C475 0.930 . S
H497 C479 0.931 . S
H498 C477 0.931 . S
H499 C481 0.931 . S
H500 C482 0.929 . S
H501 C483 0.930 . S
H502 C486 0.930 . S
H503 C487 0.931 . S
H504 C491 0.928 . S
H505 C490 0.929 . S
H506 C488 0.932 . S
C507 C508 1.386 . S
C507 C509 1.397 . S
C507 H531 0.931 . S
C508 C507 1.386 . S
C508 C512 1.397 . S
C509 C507 1.397 . S
C509 C510 1.384 . S
C509 H532 0.930 . S
C510 C509 1.384 . S
C510 C511 1.377 . S
C510 C513 1.481 . S
C511 C510 1.377 . S
C511 C512 1.389 . S
C511 H533 0.929 . S
C512 C508 1.397 . S
C512 C511 1.389 . S
C512 H534 0.931 . S
C513 C510 1.481 . S
C513 C514 1.387 . S
C513 C518 1.390 . S
C514 C513 1.387 . S
C514 C515 1.401 . S
C514 H535 0.930 . S
C515 C514 1.401 . S
C515 C516 1.376 . S
C515 C524 1.511 . S
C516 C515 1.376 . S
C516 C517 1.392 . S
C516 H537 0.931 . S
C517 C516 1.392 . S
C517 C518 1.361 . S
C517 C519 1.500 . S
C518 C513 1.390 . S
C518 C517 1.361 . S
C518 H536 0.931 . S
C519 C517 1.500 . S
C519 C520 1.371 . S
C519 C521 1.365 . S
C520 C519 1.371 . S
C520 C530 1.386 . S
C520 H538 0.931 . S
C521 C519 1.365 . S
C521 C522 1.409 . S
C521 H539 0.929 . S
C522 C521 1.409 . S
C522 C523 1.380 . S
C522 H540 0.930 . S
C523 C522 1.380 . S
C523 C530 1.357 . S
C524 C515 1.511 . S
C524 C525 1.341 . S
C524 C526 1.371 . S
C525 C524 1.341 . S
C525 C529 1.394 . S
C525 H541 0.930 . S
C526 C524 1.371 . S
C526 C527 1.392 . S
C526 H542 0.931 . S
C527 C526 1.392 . S
C527 C528 1.331 . S
C527 H545 0.932 . S
C528 C527 1.331 . S
C528 C529 1.336 . S
C529 C525 1.394 . S
C529 C528 1.336 . S
C529 H544 0.929 . S
C530 C520 1.386 . S
C530 C523 1.357 . S
C530 H543 0.928 . S
H531 C507 0.931 . S
H532 C509 0.930 . S
H533 C511 0.929 . S
H534 C512 0.931 . S
H535 C514 0.930 . S
H536 C518 0.931 . S
H537 C516 0.931 . S
H538 C520 0.931 . S
H539 C521 0.929 . S
H540 C522 0.930 . S
H541 C525 0.930 . S
H542 C526 0.931 . S
H543 C530 0.928 . S
H544 C529 0.929 . S
H545 C527 0.932 . S
C546 C547 1.386 . S
C546 C548 1.397 . S
C546 H570 0.931 . S
C547 C546 1.386 . S
C547 C551 1.397 . S
C548 C546 1.397 . S
C548 C549 1.384 . S
C548 H571 0.930 . S
C549 C548 1.384 . S
C549 C550 1.377 . S
C549 C552 1.481 . S
C550 C549 1.377 . S
C550 C551 1.389 . S
C550 H572 0.929 . S
C551 C547 1.397 . S
C551 C550 1.389 . S
C551 H573 0.931 . S
C552 C549 1.481 . S
C552 C553 1.387 . S
C552 C557 1.390 . S
C553 C552 1.387 . S
C553 C554 1.401 . S
C553 H574 0.930 . S
C554 C553 1.401 . S
C554 C555 1.376 . S
C554 C563 1.511 . S
C555 C554 1.376 . S
C555 C556 1.392 . S
C555 H576 0.931 . S
C556 C555 1.392 . S
C556 C557 1.361 . S
C556 C558 1.500 . S
C557 C552 1.390 . S
C557 C556 1.361 . S
C557 H575 0.931 . S
C558 C556 1.500 . S
C558 C559 1.371 . S
C558 C560 1.365 . S
C559 C558 1.371 . S
C559 C569 1.386 . S
C559 H577 0.931 . S
C560 C558 1.365 . S
C560 C561 1.409 . S
C560 H578 0.929 . S
C561 C560 1.409 . S
C561 C562 1.380 . S
C561 H579 0.930 . S
C562 C561 1.380 . S
C562 C569 1.357 . S
C563 C554 1.511 . S
C563 C564 1.341 . S
C563 C565 1.371 . S
C564 C563 1.341 . S
C564 C568 1.394 . S
C564 H580 0.930 . S
C565 C563 1.371 . S
C565 C566 1.392 . S
C565 H581 0.931 . S
C566 C565 1.392 . S
C566 C567 1.331 . S
C566 H584 0.932 . S
C567 C566 1.331 . S
C567 C568 1.336 . S
C568 C564 1.394 . S
C568 C567 1.336 . S
C568 H583 0.929 . S
C569 C559 1.386 . S
C569 C562 1.357 . S
C569 H582 0.928 . S
H570 C546 0.931 . S
H571 C548 0.930 . S
H572 C550 0.929 . S
H573 C551 0.931 . S
H574 C553 0.930 . S
H575 C557 0.931 . S
H576 C555 0.931 . S
H577 C559 0.931 . S
H578 C560 0.929 . S
H579 C561 0.930 . S
H580 C564 0.930 . S
H581 C565 0.931 . S
H582 C569 0.928 . S
H583 C568 0.929 . S
H584 C566 0.932 . S
C585 C586 1.386 . S
C585 C587 1.397 . S
C585 H609 0.931 . S
C586 C585 1.386 . S
C586 C590 1.397 . S
C587 C585 1.397 . S
C587 C588 1.384 . S
C587 H610 0.930 . S
C588 C587 1.384 . S
C588 C589 1.377 . S
C588 C591 1.481 . S
C589 C588 1.377 . S
C589 C590 1.389 . S
C589 H611 0.929 . S
C590 C586 1.397 . S
C590 C589 1.389 . S
C590 H612 0.931 . S
C591 C588 1.481 . S
C591 C592 1.387 . S
C591 C596 1.390 . S
C592 C591 1.387 . S
C592 C593 1.401 . S
C592 H613 0.930 . S
C593 C592 1.401 . S
C593 C594 1.376 . S
C593 C602 1.511 . S
C594 C593 1.376 . S
C594 C595 1.392 . S
C594 H615 0.931 . S
C595 C594 1.392 . S
C595 C596 1.361 . S
C595 C597 1.500 . S
C596 C591 1.390 . S
C596 C595 1.361 . S
C596 H614 0.931 . S
C597 C595 1.500 . S
C597 C598 1.371 . S
C597 C599 1.365 . S
C598 C597 1.371 . S
C598 C608 1.386 . S
C598 H616 0.931 . S
C599 C597 1.365 . S
C599 C600 1.409 . S
C599 H617 0.929 . S
C600 C599 1.409 . S
C600 C601 1.380 . S
C600 H618 0.930 . S
C601 C600 1.380 . S
C601 C608 1.357 . S
C602 C593 1.511 . S
C602 C603 1.341 . S
C602 C604 1.371 . S
C603 C602 1.341 . S
C603 C607 1.394 . S
C603 H619 0.930 . S
C604 C602 1.371 . S
C604 C605 1.392 . S
C604 H620 0.931 . S
C605 C604 1.392 . S
C605 C606 1.331 . S
C605 H623 0.932 . S
C606 C605 1.331 . S
C606 C607 1.336 . S
C607 C603 1.394 . S
C607 C606 1.336 . S
C607 H622 0.929 . S
C608 C598 1.386 . S
C608 C601 1.357 . S
C608 H621 0.928 . S
H609 C585 0.931 . S
H610 C587 0.930 . S
H611 C589 0.929 . S
H612 C590 0.931 . S
H613 C592 0.930 . S
H614 C596 0.931 . S
H615 C594 0.931 . S
H616 C598 0.931 . S
H617 C599 0.929 . S
H618 C600 0.930 . S
H619 C603 0.930 . S
H620 C604 0.931 . S
H621 C608 0.928 . S
H622 C607 0.929 . S
H623 C605 0.932 . S
C624 C625 1.386 . S
C624 C626 1.397 . S
C624 H648 0.931 . S
C625 C624 1.386 . S
C625 C629 1.397 . S
C626 C624 1.397 . S
C626 C627 1.384 . S
C626 H649 0.930 . S
C627 C626 1.384 . S
C627 C628 1.377 . S
C627 C630 1.481 . S
C628 C627 1.377 . S
C628 C629 1.389 . S
C628 H650 0.929 . S
C629 C625 1.397 . S
C629 C628 1.389 . S
C629 H651 0.931 . S
C630 C627 1.481 . S
C630 C631 1.387 . S
C630 C635 1.390 . S
C631 C630 1.387 . S
C631 C632 1.401 . S
C631 H652 0.930 . S
C632 C631 1.401 . S
C632 C633 1.376 . S
C632 C641 1.511 . S
C633 C632 1.376 . S
C633 C634 1.392 . S
C633 H654 0.931 . S
C634 C633 1.392 . S
C634 C635 1.361 . S
C634 C636 1.500 . S
C635 C630 1.390 . S
C635 C634 1.361 . S
C635 H653 0.931 . S
C636 C634 1.500 . S
C636 C637 1.371 . S
C636 C638 1.365 . S
C637 C636 1.371 . S
C637 C647 1.386 . S
C637 H655 0.931 . S
C638 C636 1.365 . S
C638 C639 1.409 . S
C638 H656 0.929 . S
C639 C638 1.409 . S
C639 C640 1.380 . S
C639 H657 0.930 . S
C640 C639 1.380 . S
C640 C647 1.357 . S
C641 C632 1.511 . S
C641 C642 1.341 . S
C641 C643 1.371 . S
C642 C641 1.341 . S
C642 C646 1.394 . S
C642 H658 0.930 . S
C643 C641 1.371 . S
C643 C644 1.392 . S
C643 H659 0.931 . S
C644 C643 1.392 . S
C644 C645 1.331 . S
C644 H662 0.932 . S
C645 C644 1.331 . S
C645 C646 1.336 . S
C646 C642 1.394 . S
C646 C645 1.336 . S
C646 H661 0.929 . S
C647 C637 1.386 . S
C647 C640 1.357 . S
C647 H660 0.928 . S
H648 C624 0.931 . S
H649 C626 0.930 . S
H650 C628 0.929 . S
H651 C629 0.931 . S
H652 C631 0.930 . S
H653 C635 0.931 . S
H654 C633 0.931 . S
H655 C637 0.931 . S
H656 C638 0.929 . S
H657 C639 0.930 . S
H658 C642 0.930 . S
H659 C643 0.931 . S
H660 C647 0.928 . S
H661 C646 0.929 . S
H662 C644 0.932 . S
C663 C664 1.386 . S
C663 C665 1.397 . S
C663 H687 0.931 . S
C664 C663 1.386 . S
C664 C668 1.397 . S
C665 C663 1.397 . S
C665 C666 1.384 . S
C665 H688 0.930 . S
C666 C665 1.384 . S
C666 C667 1.377 . S
C666 C669 1.481 . S
C667 C666 1.377 . S
C667 C668 1.389 . S
C667 H689 0.929 . S
C668 C664 1.397 . S
C668 C667 1.389 . S
C668 H690 0.931 . S
C669 C666 1.481 . S
C669 C670 1.387 . S
C669 C674 1.390 . S
C670 C669 1.387 . S
C670 C671 1.401 . S
C670 H691 0.930 . S
C671 C670 1.401 . S
C671 C672 1.376 . S
C671 C680 1.511 . S
C672 C671 1.376 . S
C672 C673 1.392 . S
C672 H693 0.931 . S
C673 C672 1.392 . S
C673 C674 1.361 . S
C673 C675 1.500 . S
C674 C669 1.390 . S
C674 C673 1.361 . S
C674 H692 0.931 . S
C675 C673 1.500 . S
C675 C676 1.371 . S
C675 C677 1.365 . S
C676 C675 1.371 . S
C676 C686 1.386 . S
C676 H694 0.931 . S
C677 C675 1.365 . S
C677 C678 1.409 . S
C677 H695 0.929 . S
C678 C677 1.409 . S
C678 C679 1.380 . S
C678 H696 0.930 . S
C679 C678 1.380 . S
C679 C686 1.357 . S
C680 C671 1.511 . S
C680 C681 1.341 . S
C680 C682 1.371 . S
C681 C680 1.341 . S
C681 C685 1.394 . S
C681 H697 0.930 . S
C682 C680 1.371 . S
C682 C683 1.392 . S
C682 H698 0.931 . S
C683 C682 1.392 . S
C683 C684 1.331 . S
C683 H701 0.932 . S
C684 C683 1.331 . S
C684 C685 1.336 . S
C685 C681 1.394 . S
C685 C684 1.336 . S
C685 H700 0.929 . S
C686 C676 1.386 . S
C686 C679 1.357 . S
C686 H699 0.928 . S
H687 C663 0.931 . S
H688 C665 0.930 . S
H689 C667 0.929 . S
H690 C668 0.931 . S
H691 C670 0.930 . S
H692 C674 0.931 . S
H693 C672 0.931 . S
H694 C676 0.931 . S
H695 C677 0.929 . S
H696 C678 0.930 . S
H697 C681 0.930 . S
H698 C682 0.931 . S
H699 C686 0.928 . S
H700 C685 0.929 . S
H701 C683 0.932 . S
Gd702 N733 2.661 . S
Gd702 N739 2.601 . S
Gd702 O746 2.545 . S
Gd702 O747 2.606 1_545 S
Gd702 O749 2.429 . S
Gd702 O750 2.545 1_545 S
Gd702 O751 2.412 . S
Gd702 O753 2.297 1_554 S
Gd702 O754 2.324 1_545 S
Gd702 C761 2.828 . S
Gd703 N712 2.661 . S
Gd703 N716 2.601 . S
Gd703 O747 2.362 1_556 S
Gd703 O748 2.324 1_565 S
Gd703 O752 2.545 . S
Gd703 O753 2.645 1_565 S
Gd703 O755 2.429 . S
Gd703 O756 2.545 1_565 S
Gd703 O757 2.412 . S
Gd703 C770 2.828 . S
C704 C707 1.417 . S
C704 C709 1.431 . S
C704 C710 1.412 . S
C705 C708 1.437 . S
C705 C709 1.317 . S
C705 H724 0.929 . S
C706 C707 1.426 . S
C706 C708 1.413 . S
C706 N716 1.359 . S
C707 C704 1.417 . S
C707 C706 1.426 . S
C707 N712 1.350 . S
C708 C705 1.437 . S
C708 C706 1.413 . S
C708 C718 1.391 . S
C709 C704 1.431 . S
C709 C705 1.317 . S
C709 H720 0.930 . S
C710 C704 1.412 . S
C710 C711 1.355 . S
C710 H722 0.930 . S
C711 C710 1.355 . S
C711 C713 1.402 . S
C711 H723 0.930 . S
N712 Gd703 2.661 . S
N712 C707 1.350 . S
N712 C713 1.307 . S
C713 C711 1.402 . S
C713 N712 1.307 . S
C713 H714 0.930 . S
H714 C713 0.930 . S
C715 N716 1.334 . S
C715 C717 1.394 . S
C715 H719 0.930 . S
N716 Gd703 2.601 . S
N716 C706 1.359 . S
N716 C715 1.334 . S
C717 C715 1.394 . S
C717 C718 1.359 . S
C717 H729 0.930 . S
C718 C708 1.391 . S
C718 C717 1.359 . S
C718 H730 0.929 . S
H719 C715 0.930 . S
H720 C709 0.930 . S
H721 C738 0.930 . S
H722 C710 0.930 . S
H723 C711 0.930 . S
H724 C705 0.929 . S
H725 C743 0.930 . S
H726 C734 0.930 . S
H727 C735 0.930 . S
H728 C759 0.929 . S
H729 C717 0.930 . S
H730 C718 0.929 . S
H731 C760 0.930 . S
H732 C741 0.930 . S
N733 Gd702 2.661 . S
N733 C737 1.350 . S
N733 C738 1.307 . S
C734 H726 0.930 . S
C734 C735 1.355 . S
C734 C736 1.412 . S
C735 H727 0.930 . S
C735 C734 1.355 . S
C735 C738 1.402 . S
C736 C734 1.412 . S
C736 C737 1.417 . S
C736 C760 1.431 . S
C737 N733 1.350 . S
C737 C736 1.417 . S
C737 C740 1.426 . S
C738 H721 0.930 . S
C738 N733 1.307 . S
C738 C735 1.402 . S
N739 Gd702 2.601 . S
N739 C740 1.359 . S
N739 C743 1.334 . S
C740 C737 1.426 . S
C740 N739 1.359 . S
C740 C744 1.413 . S
C741 H732 0.930 . S
C741 C742 1.359 . S
C741 C743 1.394 . S
C742 C741 1.359 . S
C742 C744 1.391 . S
C742 H745 0.929 . S
C743 H725 0.930 . S
C743 N739 1.334 . S
C743 C741 1.394 . S
C744 C740 1.413 . S
C744 C742 1.391 . S
C744 C759 1.437 . S
H745 C742 0.929 . S
O746 Gd702 2.545 . S
O746 C761 1.258 . S
O747 Gd702 2.606 1_565 S
O747 Gd703 2.362 1_554 S
O747 C758 1.284 . S
O748 Gd703 2.324 1_545 S
O748 C768 1.254 . S
O749 Gd702 2.429 . S
O749 C768 1.268 1_554 S
O750 Gd702 2.545 1_565 S
O750 C758 1.250 . S
O751 Gd702 2.412 . S
O751 C761 1.252 . S
O752 Gd703 2.545 . S
O752 C770 1.258 . S
O753 Gd702 2.297 1_556 S
O753 Gd703 2.645 1_545 S
O753 C769 1.338 . S
O754 Gd702 2.324 1_565 S
O754 C777 1.254 . S
O755 Gd703 2.429 . S
O755 C777 1.268 1_556 S
O756 Gd703 2.545 1_545 S
O756 C769 1.250 . S
O757 Gd703 2.412 . S
O757 C770 1.252 . S
C758 O747 1.284 . S
C758 O750 1.250 . S
C759 H728 0.929 . S
C759 C744 1.437 . S
C759 C760 1.317 . S
C760 H731 0.930 . S
C760 C736 1.431 . S
C760 C759 1.317 . S
C761 Gd702 2.828 . S
C761 O746 1.258 . S
C761 O751 1.252 . S
C761 C762 1.497 . S
C762 C761 1.497 . S
C762 C763 1.395 . S
C762 C764 1.380 1_545 S
C763 C762 1.395 . S
C763 C766 1.398 . S
C763 H778 0.930 . S
C764 C762 1.380 1_565 S
C764 C765 1.391 . S
C764 H779 0.930 . S
C765 C764 1.391 . S
C765 C767 1.387 1_565 S
C766 C763 1.398 . S
C766 C767 1.380 . S
C766 H780 0.930 . S
C767 C765 1.387 1_545 S
C767 C766 1.380 . S
C767 H781 0.930 . S
C768 O748 1.254 . S
C768 O749 1.268 1_556 S
C769 O753 1.338 . S
C769 O756 1.250 . S
C770 Gd703 2.828 . S
C770 O752 1.258 . S
C770 O757 1.252 . S
C770 C771 1.497 . S
C771 C770 1.497 . S
C771 C772 1.395 . S
C771 C773 1.380 1_565 S
C772 C771 1.395 . S
C772 C775 1.398 . S
C772 H782 0.930 . S
C773 C771 1.380 1_545 S
C773 C774 1.391 . S
C773 H783 0.930 . S
C774 C773 1.391 . S
C774 C776 1.387 1_545 S
C775 C772 1.398 . S
C775 C776 1.380 . S
C775 H784 0.930 . S
C776 C774 1.387 1_565 S
C776 C775 1.380 . S
C776 H785 0.930 . S
C777 O754 1.254 . S
C777 O755 1.268 1_554 S
H778 C763 0.930 . S
H779 C764 0.930 . S
H780 C766 0.930 . S
H781 C767 0.930 . S
H782 C772 0.930 . S
H783 C773 0.930 . S
H784 C775 0.930 . S
H785 C776 0.930 . S
Gd786 N817 2.661 . S
Gd786 N823 2.601 . S
Gd786 O830 2.545 . S
Gd786 O831 2.606 1_655 S
Gd786 O833 2.429 . S
Gd786 O834 2.545 1_655 S
Gd786 O835 2.412 . S
Gd786 O837 2.362 1_554 S
Gd786 O838 2.324 1_655 S
Gd786 C845 2.828 . S
Gd787 N796 2.661 . S
Gd787 N800 2.601 . S
Gd787 O831 2.362 1_556 S
Gd787 O832 2.324 1_455 S
Gd787 O836 2.545 . S
Gd787 O837 2.606 1_455 S
Gd787 O839 2.429 . S
Gd787 O840 2.545 1_455 S
Gd787 O841 2.412 . S
Gd787 C854 2.828 . S
C788 C791 1.417 . S
C788 C793 1.431 . S
C788 C794 1.412 . S
C789 C792 1.437 . S
C789 C793 1.317 . S
C789 H808 0.929 . S
C790 C791 1.426 . S
C790 C792 1.413 . S
C790 N800 1.359 . S
C791 C788 1.417 . S
C791 C790 1.426 . S
C791 N796 1.350 . S
C792 C789 1.437 . S
C792 C790 1.413 . S
C792 C802 1.391 . S
C793 C788 1.431 . S
C793 C789 1.317 . S
C793 H804 0.930 . S
C794 C788 1.412 . S
C794 C795 1.355 . S
C794 H806 0.930 . S
C795 C794 1.355 . S
C795 C797 1.402 . S
C795 H807 0.930 . S
N796 Gd787 2.661 . S
N796 C791 1.350 . S
N796 C797 1.307 . S
C797 C795 1.402 . S
C797 N796 1.307 . S
C797 H798 0.930 . S
H798 C797 0.930 . S
C799 N800 1.334 . S
C799 C801 1.394 . S
C799 H803 0.930 . S
N800 Gd787 2.601 . S
N800 C790 1.359 . S
N800 C799 1.334 . S
C801 C799 1.394 . S
C801 C802 1.359 . S
C801 H813 0.930 . S
C802 C792 1.391 . S
C802 C801 1.359 . S
C802 H814 0.929 . S
H803 C799 0.930 . S
H804 C793 0.930 . S
H805 C822 0.930 . S
H806 C794 0.930 . S
H807 C795 0.930 . S
H808 C789 0.929 . S
H809 C827 0.930 . S
H810 C818 0.930 . S
H811 C819 0.930 . S
H812 C843 0.929 . S
H813 C801 0.930 . S
H814 C802 0.929 . S
H815 C844 0.930 . S
H816 C825 0.930 . S
N817 Gd786 2.661 . S
N817 C821 1.350 . S
N817 C822 1.307 . S
C818 H810 0.930 . S
C818 C819 1.355 . S
C818 C820 1.412 . S
C819 H811 0.930 . S
C819 C818 1.355 . S
C819 C822 1.402 . S
C820 C818 1.412 . S
C820 C821 1.417 . S
C820 C844 1.431 . S
C821 N817 1.350 . S
C821 C820 1.417 . S
C821 C824 1.426 . S
C822 H805 0.930 . S
C822 N817 1.307 . S
C822 C819 1.402 . S
N823 Gd786 2.601 . S
N823 C824 1.359 . S
N823 C827 1.334 . S
C824 C821 1.426 . S
C824 N823 1.359 . S
C824 C828 1.413 . S
C825 H816 0.930 . S
C825 C826 1.359 . S
C825 C827 1.394 . S
C826 C825 1.359 . S
C826 C828 1.391 . S
C826 H829 0.929 . S
C827 H809 0.930 . S
C827 N823 1.334 . S
C827 C825 1.394 . S
C828 C824 1.413 . S
C828 C826 1.391 . S
C828 C843 1.437 . S
H829 C826 0.929 . S
O830 Gd786 2.545 . S
O830 C845 1.258 . S
O831 Gd786 2.606 1_455 S
O831 Gd787 2.362 1_554 S
O831 C842 1.284 . S
O832 Gd787 2.324 1_655 S
O832 C852 1.254 . S
O833 Gd786 2.429 . S
O833 C852 1.268 1_554 S
O834 Gd786 2.545 1_455 S
O834 C842 1.250 . S
O835 Gd786 2.412 . S
O835 C845 1.252 . S
O836 Gd787 2.545 . S
O836 C854 1.258 . S
O837 Gd786 2.362 1_556 S
O837 Gd787 2.606 1_655 S
O837 C853 1.284 . S
O838 Gd786 2.324 1_455 S
O838 C861 1.254 . S
O839 Gd787 2.429 . S
O839 C861 1.268 1_556 S
O840 Gd787 2.545 1_655 S
O840 C853 1.250 . S
O841 Gd787 2.412 . S
O841 C854 1.252 . S
C842 O831 1.284 . S
C842 O834 1.250 . S
C843 H812 0.929 . S
C843 C828 1.437 . S
C843 C844 1.317 . S
C844 H815 0.930 . S
C844 C820 1.431 . S
C844 C843 1.317 . S
C845 Gd786 2.828 . S
C845 O830 1.258 . S
C845 O835 1.252 . S
C845 C846 1.497 . S
C846 C845 1.497 . S
C846 C847 1.395 . S
C846 C848 1.380 1_655 S
C847 C846 1.395 . S
C847 C850 1.398 . S
C847 H862 0.930 . S
C848 C846 1.380 1_455 S
C848 C849 1.391 . S
C848 H863 0.930 . S
C849 C848 1.391 . S
C849 C851 1.387 1_455 S
C850 C847 1.398 . S
C850 C851 1.380 . S
C850 H864 0.930 . S
C851 C849 1.387 1_655 S
C851 C850 1.380 . S
C851 H865 0.930 . S
C852 O832 1.254 . S
C852 O833 1.268 1_556 S
C853 O837 1.284 . S
C853 O840 1.250 . S
C854 Gd787 2.828 . S
C854 O836 1.258 . S
C854 O841 1.252 . S
C854 C855 1.497 . S
C855 C854 1.497 . S
C855 C856 1.395 . S
C855 C857 1.380 1_455 S
C856 C855 1.395 . S
C856 C859 1.398 . S
C856 H866 0.930 . S
C857 C855 1.380 1_655 S
C857 C858 1.391 . S
C857 H867 0.930 . S
C858 C857 1.391 . S
C858 C860 1.387 1_655 S
C859 C856 1.398 . S
C859 C860 1.380 . S
C859 H868 0.930 . S
C860 C858 1.387 1_455 S
C860 C859 1.380 . S
C860 H869 0.930 . S
C861 O838 1.254 . S
C861 O839 1.268 1_554 S
H862 C847 0.930 . S
H863 C848 0.930 . S
H864 C850 0.930 . S
H865 C851 0.930 . S
H866 C856 0.930 . S
H867 C857 0.930 . S
H868 C859 0.930 . S
H869 C860 0.930 . S
Gd870 N901 2.661 . S
Gd870 N907 2.601 . S
Gd870 O914 2.545 . S
Gd870 O915 2.606 . S
Gd870 O917 2.429 . S
Gd870 O918 2.545 . S
Gd870 O919 2.412 . S
Gd870 O921 2.362 1_556 S
Gd870 O922 2.324 . S
Gd870 C929 2.828 . S
Gd871 N880 2.661 . S
Gd871 N884 2.601 . S
Gd871 O915 2.362 1_554 S
Gd871 O916 2.324 . S
Gd871 O920 2.545 . S
Gd871 O921 2.606 . S
Gd871 O923 2.429 . S
Gd871 O924 2.545 . S
Gd871 O925 2.412 . S
Gd871 C938 2.828 . S
C872 C875 1.417 . S
C872 C877 1.431 . S
C872 C878 1.412 . S
C873 C876 1.437 . S
C873 C877 1.317 . S
C873 H892 0.929 . S
C874 C875 1.426 . S
C874 C876 1.413 . S
C874 N884 1.359 . S
C875 C872 1.417 . S
C875 C874 1.426 . S
C875 N880 1.350 . S
C876 C873 1.437 . S
C876 C874 1.413 . S
C876 C886 1.391 . S
C877 C872 1.431 . S
C877 C873 1.317 . S
C877 H888 0.930 . S
C878 C872 1.412 . S
C878 C879 1.355 . S
C878 H890 0.930 . S
C879 C878 1.355 . S
C879 C881 1.402 . S
C879 H891 0.930 . S
N880 Gd871 2.661 . S
N880 C875 1.350 . S
N880 C881 1.307 . S
C881 C879 1.402 . S
C881 N880 1.307 . S
C881 H882 0.930 . S
H882 C881 0.930 . S
C883 N884 1.334 . S
C883 C885 1.394 . S
C883 H887 0.930 . S
N884 Gd871 2.601 . S
N884 C874 1.359 . S
N884 C883 1.334 . S
C885 C883 1.394 . S
C885 C886 1.359 . S
C885 H897 0.930 . S
C886 C876 1.391 . S
C886 C885 1.359 . S
C886 H898 0.929 . S
H887 C883 0.930 . S
H888 C877 0.930 . S
H889 C906 0.930 . S
H890 C878 0.930 . S
H891 C879 0.930 . S
H892 C873 0.929 . S
H893 C911 0.930 . S
H894 C902 0.930 . S
H895 C903 0.930 . S
H896 C927 0.929 . S
H897 C885 0.930 . S
H898 C886 0.929 . S
H899 C928 0.930 . S
H900 C909 0.930 . S
N901 Gd870 2.661 . S
N901 C905 1.350 . S
N901 C906 1.307 . S
C902 H894 0.930 . S
C902 C903 1.355 . S
C902 C904 1.412 . S
C903 H895 0.930 . S
C903 C902 1.355 . S
C903 C906 1.402 . S
C904 C902 1.412 . S
C904 C905 1.417 . S
C904 C928 1.431 . S
C905 N901 1.350 . S
C905 C904 1.417 . S
C905 C908 1.426 . S
C906 H889 0.930 . S
C906 N901 1.307 . S
C906 C903 1.402 . S
N907 Gd870 2.601 . S
N907 C908 1.359 . S
N907 C911 1.334 . S
C908 C905 1.426 . S
C908 N907 1.359 . S
C908 C912 1.413 . S
C909 H900 0.930 . S
C909 C910 1.359 . S
C909 C911 1.394 . S
C910 C909 1.359 . S
C910 C912 1.391 . S
C910 H913 0.929 . S
C911 H893 0.930 . S
C911 N907 1.334 . S
C911 C909 1.394 . S
C912 C908 1.413 . S
C912 C910 1.391 . S
C912 C927 1.437 . S
H913 C910 0.929 . S
O914 Gd870 2.545 . S
O914 C929 1.258 . S
O915 Gd870 2.606 . S
O915 Gd871 2.362 1_556 S
O915 C926 1.284 . S
O916 Gd871 2.324 . S
O916 C936 1.254 . S
O917 Gd870 2.429 . S
O917 C936 1.268 1_556 S
O918 Gd870 2.545 . S
O918 C926 1.250 . S
O919 Gd870 2.412 . S
O919 C929 1.252 . S
O920 Gd871 2.545 . S
O920 C938 1.258 . S
O921 Gd870 2.362 1_554 S
O921 Gd871 2.606 . S
O921 C937 1.284 . S
O922 Gd870 2.324 . S
O922 C945 1.254 . S
O923 Gd871 2.429 . S
O923 C945 1.268 1_554 S
O924 Gd871 2.545 . S
O924 C937 1.250 . S
O925 Gd871 2.412 . S
O925 C938 1.252 . S
C926 O915 1.284 . S
C926 O918 1.250 . S
C927 H896 0.929 . S
C927 C912 1.437 . S
C927 C928 1.317 . S
C928 H899 0.930 . S
C928 C904 1.431 . S
C928 C927 1.317 . S
C929 Gd870 2.828 . S
C929 O914 1.258 . S
C929 O919 1.252 . S
C929 C930 1.497 . S
C930 C929 1.497 . S
C930 C931 1.395 . S
C930 C932 1.380 . S
C931 C930 1.395 . S
C931 C934 1.398 . S
C931 H946 0.930 . S
C932 C930 1.380 . S
C932 C933 1.391 . S
C932 H947 0.930 . S
C933 C932 1.391 . S
C933 C935 1.387 . S
C934 C931 1.398 . S
C934 C935 1.380 . S
C934 H948 0.930 . S
C935 C933 1.387 . S
C935 C934 1.380 . S
C935 H949 0.930 . S
C936 O916 1.254 . S
C936 O917 1.268 1_554 S
C937 O921 1.284 . S
C937 O924 1.250 . S
C938 Gd871 2.828 . S
C938 O920 1.258 . S
C938 O925 1.252 . S
C938 C939 1.497 . S
C939 C938 1.497 . S
C939 C940 1.395 . S
C939 C941 1.380 . S
C940 C939 1.395 . S
C940 C943 1.398 . S
C940 H950 0.930 . S
C941 C939 1.380 . S
C941 C942 1.391 . S
C941 H951 0.930 . S
C942 C941 1.391 . S
C942 C944 1.387 . S
C943 C940 1.398 . S
C943 C944 1.380 . S
C943 H952 0.930 . S
C944 C942 1.387 . S
C944 C943 1.380 . S
C944 H953 0.930 . S
C945 O922 1.254 . S
C945 O923 1.268 1_556 S
H946 C931 0.930 . S
H947 C932 0.930 . S
H948 C934 0.930 . S
H949 C935 0.930 . S
H950 C940 0.930 . S
H951 C941 0.930 . S
H952 C943 0.930 . S
H953 C944 0.930 . S
Gd954 N985 2.661 . S
Gd954 N991 2.601 . S
Gd954 O998 2.545 . S
Gd954 O999 2.606 . S
Gd954 O1001 2.429 . S
Gd954 O1002 2.545 . S
Gd954 O1003 2.412 . S
Gd954 O1005 2.362 . S
Gd954 O1006 2.324 . S
Gd954 C1013 2.828 . S
Gd955 N964 2.661 . S
Gd955 N968 2.601 . S
Gd955 O999 2.362 . S
Gd955 O1000 2.324 . S
Gd955 O1004 2.545 . S
Gd955 O1005 2.606 . S
Gd955 O1007 2.429 . S
Gd955 O1008 2.545 . S
Gd955 O1009 2.412 . S
Gd955 C1022 2.828 . S
C956 C959 1.417 . S
C956 C961 1.431 . S
C956 C962 1.412 . S
C957 C960 1.437 . S
C957 C961 1.317 . S
C957 H976 0.929 . S
C958 C959 1.426 . S
C958 C960 1.413 . S
C958 N968 1.359 . S
C959 C956 1.417 . S
C959 C958 1.426 . S
C959 N964 1.350 . S
C960 C957 1.437 . S
C960 C958 1.413 . S
C960 C970 1.391 . S
C961 C956 1.431 . S
C961 C957 1.317 . S
C961 H972 0.930 . S
C962 C956 1.412 . S
C962 C963 1.355 . S
C962 H974 0.930 . S
C963 C962 1.355 . S
C963 C965 1.402 . S
C963 H975 0.930 . S
N964 Gd955 2.661 . S
N964 C959 1.350 . S
N964 C965 1.307 . S
C965 C963 1.402 . S
C965 N964 1.307 . S
C965 H966 0.930 . S
H966 C965 0.930 . S
C967 N968 1.334 . S
C967 C969 1.394 . S
C967 H971 0.930 . S
N968 Gd955 2.601 . S
N968 C958 1.359 . S
N968 C967 1.334 . S
C969 C967 1.394 . S
C969 C970 1.359 . S
C969 H981 0.930 . S
C970 C960 1.391 . S
C970 C969 1.359 . S
C970 H982 0.929 . S
H971 C967 0.930 . S
H972 C961 0.930 . S
H973 C990 0.930 . S
H974 C962 0.930 . S
H975 C963 0.930 . S
H976 C957 0.929 . S
H977 C995 0.930 . S
H978 C986 0.930 . S
H979 C987 0.930 . S
H980 C1011 0.929 . S
H981 C969 0.930 . S
H982 C970 0.929 . S
H983 C1012 0.930 . S
H984 C993 0.930 . S
N985 Gd954 2.661 . S
N985 C989 1.350 . S
N985 C990 1.307 . S
C986 H978 0.930 . S
C986 C987 1.355 . S
C986 C988 1.412 . S
C987 H979 0.930 . S
C987 C986 1.355 . S
C987 C990 1.402 . S
C988 C986 1.412 . S
C988 C989 1.417 . S
C988 C1012 1.431 . S
C989 N985 1.350 . S
C989 C988 1.417 . S
C989 C992 1.426 . S
C990 H973 0.930 . S
C990 N985 1.307 . S
C990 C987 1.402 . S
N991 Gd954 2.601 . S
N991 C992 1.359 . S
N991 C995 1.334 . S
C992 C989 1.426 . S
C992 N991 1.359 . S
C992 C996 1.413 . S
C993 H984 0.930 . S
C993 C994 1.359 . S
C993 C995 1.394 . S
C994 C993 1.359 . S
C994 C996 1.391 . S
C994 H997 0.929 . S
C995 H977 0.930 . S
C995 N991 1.334 . S
C995 C993 1.394 . S
C996 C992 1.413 . S
C996 C994 1.391 . S
C996 C1011 1.437 . S
H997 C994 0.929 . S
O998 Gd954 2.545 . S
O998 C1013 1.258 . S
O999 Gd954 2.606 . S
O999 Gd955 2.362 . S
O999 C1010 1.284 . S
O1000 Gd955 2.324 . S
O1000 C1020 1.254 . S
O1001 Gd954 2.429 . S
O1001 C1020 1.268 . S
O1002 Gd954 2.545 . S
O1002 C1010 1.250 . S
O1003 Gd954 2.412 . S
O1003 C1013 1.252 . S
O1004 Gd955 2.545 . S
O1004 C1022 1.258 . S
O1005 Gd954 2.362 . S
O1005 Gd955 2.606 . S
O1005 C1021 1.284 . S
O1006 Gd954 2.324 . S
O1006 C1029 1.254 . S
O1007 Gd955 2.429 . S
O1007 C1029 1.268 . S
O1008 Gd955 2.545 . S
O1008 C1021 1.250 . S
O1009 Gd955 2.412 . S
O1009 C1022 1.252 . S
C1010 O999 1.284 . S
C1010 O1002 1.250 . S
C1011 H980 0.929 . S
C1011 C996 1.437 . S
C1011 C1012 1.317 . S
C1012 H983 0.930 . S
C1012 C988 1.431 . S
C1012 C1011 1.317 . S
C1013 Gd954 2.828 . S
C1013 O998 1.258 . S
C1013 O1003 1.252 . S
C1013 C1014 1.497 . S
C1014 C1013 1.497 . S
C1014 C1015 1.395 . S
C1014 C1016 1.380 . S
C1015 C1014 1.395 . S
C1015 C1018 1.398 . S
C1015 H1030 0.930 . S
C1016 C1014 1.380 . S
C1016 C1017 1.391 . S
C1016 H1031 0.930 . S
C1017 C1016 1.391 . S
C1017 C1019 1.387 . S
C1018 C1015 1.398 . S
C1018 C1019 1.380 . S
C1018 H1032 0.930 . S
C1019 C1017 1.387 . S
C1019 C1018 1.380 . S
C1019 H1033 0.930 . S
C1020 O1000 1.254 . S
C1020 O1001 1.268 . S
C1021 O1005 1.284 . S
C1021 O1008 1.250 . S
C1022 Gd955 2.828 . S
C1022 O1004 1.258 . S
C1022 O1009 1.252 . S
C1022 C1023 1.497 . S
C1023 C1022 1.497 . S
C1023 C1024 1.395 . S
C1023 C1025 1.380 . S
C1024 C1023 1.395 . S
C1024 C1027 1.398 . S
C1024 H1034 0.930 . S
C1025 C1023 1.380 . S
C1025 C1026 1.391 . S
C1025 H1035 0.930 . S
C1026 C1025 1.391 . S
C1026 C1028 1.387 . S
C1027 C1024 1.398 . S
C1027 C1028 1.380 . S
C1027 H1036 0.930 . S
C1028 C1026 1.387 . S
C1028 C1027 1.380 . S
C1028 H1037 0.930 . S
C1029 O1006 1.254 . S
C1029 O1007 1.268 . S
H1030 C1015 0.930 . S
H1031 C1016 0.930 . S
H1032 C1018 0.930 . S
H1033 C1019 0.930 . S
H1034 C1024 0.930 . S
H1035 C1025 0.930 . S
H1036 C1027 0.930 . S
H1037 C1028 0.930 . S
Gd1038 N1069 2.661 . S
Gd1038 N1075 2.601 . S
Gd1038 O1082 2.545 . S
Gd1038 O1083 2.606 . S
Gd1038 O1085 2.429 . S
Gd1038 O1086 2.545 . S
Gd1038 O1087 2.412 . S
Gd1038 O1089 2.362 . S
Gd1038 O1090 2.324 . S
Gd1038 C1097 2.828 . S
Gd1039 N1048 2.661 . S
Gd1039 N1052 2.601 . S
Gd1039 O1083 2.362 . S
Gd1039 O1084 2.324 . S
Gd1039 O1088 2.545 . S
Gd1039 O1089 2.606 . S
Gd1039 O1091 2.429 . S
Gd1039 O1092 2.545 . S
Gd1039 O1093 2.412 . S
Gd1039 C1106 2.828 . S
C1040 C1043 1.417 . S
C1040 C1045 1.431 . S
C1040 C1046 1.412 . S
C1041 C1044 1.437 . S
C1041 C1045 1.317 . S
C1041 H1060 0.929 . S
C1042 C1043 1.426 . S
C1042 C1044 1.413 . S
C1042 N1052 1.359 . S
C1043 C1040 1.417 . S
C1043 C1042 1.426 . S
C1043 N1048 1.350 . S
C1044 C1041 1.437 . S
C1044 C1042 1.413 . S
C1044 C1054 1.391 . S
C1045 C1040 1.431 . S
C1045 C1041 1.317 . S
C1045 H1056 0.930 . S
C1046 C1040 1.412 . S
C1046 C1047 1.355 . S
C1046 H1058 0.930 . S
C1047 C1046 1.355 . S
C1047 C1049 1.402 . S
C1047 H1059 0.930 . S
N1048 Gd1039 2.661 . S
N1048 C1043 1.350 . S
N1048 C1049 1.307 . S
C1049 C1047 1.402 . S
C1049 N1048 1.307 . S
C1049 H1050 0.930 . S
H1050 C1049 0.930 . S
C1051 N1052 1.334 . S
C1051 C1053 1.394 . S
C1051 H1055 0.930 . S
N1052 Gd1039 2.601 . S
N1052 C1042 1.359 . S
N1052 C1051 1.334 . S
C1053 C1051 1.394 . S
C1053 C1054 1.359 . S
C1053 H1065 0.930 . S
C1054 C1044 1.391 . S
C1054 C1053 1.359 . S
C1054 H1066 0.929 . S
H1055 C1051 0.930 . S
H1056 C1045 0.930 . S
H1057 C1074 0.930 . S
H1058 C1046 0.930 . S
H1059 C1047 0.930 . S
H1060 C1041 0.929 . S
H1061 C1079 0.930 . S
H1062 C1070 0.930 . S
H1063 C1071 0.930 . S
H1064 C1095 0.929 . S
H1065 C1053 0.930 . S
H1066 C1054 0.929 . S
H1067 C1096 0.930 . S
H1068 C1077 0.930 . S
N1069 Gd1038 2.661 . S
N1069 C1073 1.350 . S
N1069 C1074 1.307 . S
C1070 H1062 0.930 . S
C1070 C1071 1.355 . S
C1070 C1072 1.412 . S
C1071 H1063 0.930 . S
C1071 C1070 1.355 . S
C1071 C1074 1.402 . S
C1072 C1070 1.412 . S
C1072 C1073 1.417 . S
C1072 C1096 1.431 . S
C1073 N1069 1.350 . S
C1073 C1072 1.417 . S
C1073 C1076 1.426 . S
C1074 H1057 0.930 . S
C1074 N1069 1.307 . S
C1074 C1071 1.402 . S
N1075 Gd1038 2.601 . S
N1075 C1076 1.359 . S
N1075 C1079 1.334 . S
C1076 C1073 1.426 . S
C1076 N1075 1.359 . S
C1076 C1080 1.413 . S
C1077 H1068 0.930 . S
C1077 C1078 1.359 . S
C1077 C1079 1.394 . S
C1078 C1077 1.359 . S
C1078 C1080 1.391 . S
C1078 H1081 0.929 . S
C1079 H1061 0.930 . S
C1079 N1075 1.334 . S
C1079 C1077 1.394 . S
C1080 C1076 1.413 . S
C1080 C1078 1.391 . S
C1080 C1095 1.437 . S
H1081 C1078 0.929 . S
O1082 Gd1038 2.545 . S
O1082 C1097 1.258 . S
O1083 Gd1038 2.606 . S
O1083 Gd1039 2.362 . S
O1083 C1094 1.284 . S
O1084 Gd1039 2.324 . S
O1084 C1104 1.254 . S
O1085 Gd1038 2.429 . S
O1085 C1104 1.268 . S
O1086 Gd1038 2.545 . S
O1086 C1094 1.250 . S
O1087 Gd1038 2.412 . S
O1087 C1097 1.252 . S
O1088 Gd1039 2.545 . S
O1088 C1106 1.258 . S
O1089 Gd1038 2.362 . S
O1089 Gd1039 2.606 . S
O1089 C1105 1.284 . S
O1090 Gd1038 2.324 . S
O1090 C1113 1.254 . S
O1091 Gd1039 2.429 . S
O1091 C1113 1.268 . S
O1092 Gd1039 2.545 . S
O1092 C1105 1.250 . S
O1093 Gd1039 2.412 . S
O1093 C1106 1.252 . S
C1094 O1083 1.284 . S
C1094 O1086 1.250 . S
C1095 H1064 0.929 . S
C1095 C1080 1.437 . S
C1095 C1096 1.317 . S
C1096 H1067 0.930 . S
C1096 C1072 1.431 . S
C1096 C1095 1.317 . S
C1097 Gd1038 2.828 . S
C1097 O1082 1.258 . S
C1097 O1087 1.252 . S
C1097 C1098 1.497 . S
C1098 C1097 1.497 . S
C1098 C1099 1.395 . S
C1098 C1100 1.380 . S
C1099 C1098 1.395 . S
C1099 C1102 1.398 . S
C1099 H1114 0.930 . S
C1100 C1098 1.380 . S
C1100 C1101 1.391 . S
C1100 H1115 0.930 . S
C1101 C1100 1.391 . S
C1101 C1103 1.387 . S
C1102 C1099 1.398 . S
C1102 C1103 1.380 . S
C1102 H1116 0.930 . S
C1103 C1101 1.387 . S
C1103 C1102 1.380 . S
C1103 H1117 0.930 . S
C1104 O1084 1.254 . S
C1104 O1085 1.268 . S
C1105 O1089 1.284 . S
C1105 O1092 1.250 . S
C1106 Gd1039 2.828 . S
C1106 O1088 1.258 . S
C1106 O1093 1.252 . S
C1106 C1107 1.497 . S
C1107 C1106 1.497 . S
C1107 C1108 1.395 . S
C1107 C1109 1.380 . S
C1108 C1107 1.395 . S
C1108 C1111 1.398 . S
C1108 H1118 0.930 . S
C1109 C1107 1.380 . S
C1109 C1110 1.391 . S
C1109 H1119 0.930 . S
C1110 C1109 1.391 . S
C1110 C1112 1.387 . S
C1111 C1108 1.398 . S
C1111 C1112 1.380 . S
C1111 H1120 0.930 . S
C1112 C1110 1.387 . S
C1112 C1111 1.380 . S
C1112 H1121 0.930 . S
C1113 O1090 1.254 . S
C1113 O1091 1.268 . S
H1114 C1099 0.930 . S
H1115 C1100 0.930 . S
H1116 C1102 0.930 . S
H1117 C1103 0.930 . S
H1118 C1108 0.930 . S
H1119 C1109 0.930 . S
H1120 C1111 0.930 . S
H1121 C1112 0.930 . S
Gd1122 N1153 2.661 . S
Gd1122 N1159 2.601 . S
Gd1122 O1166 2.545 . S
Gd1122 O1167 2.606 . S
Gd1122 O1169 2.429 . S
Gd1122 O1170 2.545 . S
Gd1122 O1171 2.412 . S
Gd1122 O1173 2.362 . S
Gd1122 O1174 2.324 . S
Gd1122 C1181 2.828 . S
Gd1123 N1132 2.661 . S
Gd1123 N1136 2.601 . S
Gd1123 O1167 2.362 . S
Gd1123 O1168 2.324 . S
Gd1123 O1172 2.545 . S
Gd1123 O1173 2.606 . S
Gd1123 O1175 2.429 . S
Gd1123 O1176 2.545 . S
Gd1123 O1177 2.412 . S
Gd1123 C1190 2.828 . S
C1124 C1127 1.417 . S
C1124 C1129 1.431 . S
C1124 C1130 1.412 . S
C1125 C1128 1.437 . S
C1125 C1129 1.317 . S
C1125 H1144 0.929 . S
C1126 C1127 1.426 . S
C1126 C1128 1.413 . S
C1126 N1136 1.359 . S
C1127 C1124 1.417 . S
C1127 C1126 1.426 . S
C1127 N1132 1.350 . S
C1128 C1125 1.437 . S
C1128 C1126 1.413 . S
C1128 C1138 1.391 . S
C1129 C1124 1.431 . S
C1129 C1125 1.317 . S
C1129 H1140 0.930 . S
C1130 C1124 1.412 . S
C1130 C1131 1.355 . S
C1130 H1142 0.930 . S
C1131 C1130 1.355 . S
C1131 C1133 1.402 . S
C1131 H1143 0.930 . S
N1132 Gd1123 2.661 . S
N1132 C1127 1.350 . S
N1132 C1133 1.307 . S
C1133 C1131 1.402 . S
C1133 N1132 1.307 . S
C1133 H1134 0.930 . S
H1134 C1133 0.930 . S
C1135 N1136 1.334 . S
C1135 C1137 1.394 . S
C1135 H1139 0.930 . S
N1136 Gd1123 2.601 . S
N1136 C1126 1.359 . S
N1136 C1135 1.334 . S
C1137 C1135 1.394 . S
C1137 C1138 1.359 . S
C1137 H1149 0.930 . S
C1138 C1128 1.391 . S
C1138 C1137 1.359 . S
C1138 H1150 0.929 . S
H1139 C1135 0.930 . S
H1140 C1129 0.930 . S
H1141 C1158 0.930 . S
H1142 C1130 0.930 . S
H1143 C1131 0.930 . S
H1144 C1125 0.929 . S
H1145 C1163 0.930 . S
H1146 C1154 0.930 . S
H1147 C1155 0.930 . S
H1148 C1179 0.929 . S
H1149 C1137 0.930 . S
H1150 C1138 0.929 . S
H1151 C1180 0.930 . S
H1152 C1161 0.930 . S
N1153 Gd1122 2.661 . S
N1153 C1157 1.350 . S
N1153 C1158 1.307 . S
C1154 H1146 0.930 . S
C1154 C1155 1.355 . S
C1154 C1156 1.412 . S
C1155 H1147 0.930 . S
C1155 C1154 1.355 . S
C1155 C1158 1.402 . S
C1156 C1154 1.412 . S
C1156 C1157 1.417 . S
C1156 C1180 1.431 . S
C1157 N1153 1.350 . S
C1157 C1156 1.417 . S
C1157 C1160 1.426 . S
C1158 H1141 0.930 . S
C1158 N1153 1.307 . S
C1158 C1155 1.402 . S
N1159 Gd1122 2.601 . S
N1159 C1160 1.359 . S
N1159 C1163 1.334 . S
C1160 C1157 1.426 . S
C1160 N1159 1.359 . S
C1160 C1164 1.413 . S
C1161 H1152 0.930 . S
C1161 C1162 1.359 . S
C1161 C1163 1.394 . S
C1162 C1161 1.359 . S
C1162 C1164 1.391 . S
C1162 H1165 0.929 . S
C1163 H1145 0.930 . S
C1163 N1159 1.334 . S
C1163 C1161 1.394 . S
C1164 C1160 1.413 . S
C1164 C1162 1.391 . S
C1164 C1179 1.437 . S
H1165 C1162 0.929 . S
O1166 Gd1122 2.545 . S
O1166 C1181 1.258 . S
O1167 Gd1122 2.606 . S
O1167 Gd1123 2.362 . S
O1167 C1178 1.284 . S
O1168 Gd1123 2.324 . S
O1168 C1188 1.254 . S
O1169 Gd1122 2.429 . S
O1169 C1188 1.268 . S
O1170 Gd1122 2.545 . S
O1170 C1178 1.250 . S
O1171 Gd1122 2.412 . S
O1171 C1181 1.252 . S
O1172 Gd1123 2.545 . S
O1172 C1190 1.258 . S
O1173 Gd1122 2.362 . S
O1173 Gd1123 2.606 . S
O1173 C1189 1.284 . S
O1174 Gd1122 2.324 . S
O1174 C1197 1.254 . S
O1175 Gd1123 2.429 . S
O1175 C1197 1.268 . S
O1176 Gd1123 2.545 . S
O1176 C1189 1.250 . S
O1177 Gd1123 2.412 . S
O1177 C1190 1.252 . S
C1178 O1167 1.284 . S
C1178 O1170 1.250 . S
C1179 H1148 0.929 . S
C1179 C1164 1.437 . S
C1179 C1180 1.317 . S
C1180 H1151 0.930 . S
C1180 C1156 1.431 . S
C1180 C1179 1.317 . S
C1181 Gd1122 2.828 . S
C1181 O1166 1.258 . S
C1181 O1171 1.252 . S
C1181 C1182 1.497 . S
C1182 C1181 1.497 . S
C1182 C1183 1.395 . S
C1182 C1184 1.380 . S
C1183 C1182 1.395 . S
C1183 C1186 1.398 . S
C1183 H1198 0.930 . S
C1184 C1182 1.380 . S
C1184 C1185 1.391 . S
C1184 H1199 0.930 . S
C1185 C1184 1.391 . S
C1185 C1187 1.387 . S
C1186 C1183 1.398 . S
C1186 C1187 1.380 . S
C1186 H1200 0.930 . S
C1187 C1185 1.387 . S
C1187 C1186 1.380 . S
C1187 H1201 0.930 . S
C1188 O1168 1.254 . S
C1188 O1169 1.268 . S
C1189 O1173 1.284 . S
C1189 O1176 1.250 . S
C1190 Gd1123 2.828 . S
C1190 O1172 1.258 . S
C1190 O1177 1.252 . S
C1190 C1191 1.497 . S
C1191 C1190 1.497 . S
C1191 C1192 1.395 . S
C1191 C1193 1.380 . S
C1192 C1191 1.395 . S
C1192 C1195 1.398 . S
C1192 H1202 0.930 . S
C1193 C1191 1.380 . S
C1193 C1194 1.391 . S
C1193 H1203 0.930 . S
C1194 C1193 1.391 . S
C1194 C1196 1.387 . S
C1195 C1192 1.398 . S
C1195 C1196 1.380 . S
C1195 H1204 0.930 . S
C1196 C1194 1.387 . S
C1196 C1195 1.380 . S
C1196 H1205 0.930 . S
C1197 O1174 1.254 . S
C1197 O1175 1.268 . S
H1198 C1183 0.930 . S
H1199 C1184 0.930 . S
H1200 C1186 0.930 . S
H1201 C1187 0.930 . S
H1202 C1192 0.930 . S
H1203 C1193 0.930 . S
H1204 C1195 0.930 . S
H1205 C1196 0.930 . S
Gd1206 N1237 2.661 . S
Gd1206 N1243 2.601 . S
Gd1206 O1250 2.545 . S
Gd1206 O1251 2.606 . S
Gd1206 O1253 2.429 . S
Gd1206 O1254 2.545 . S
Gd1206 O1255 2.412 . S
Gd1206 O1257 2.362 . S
Gd1206 O1258 2.324 . S
Gd1206 C1265 2.828 . S
Gd1207 N1216 2.661 . S
Gd1207 N1220 2.601 . S
Gd1207 O1251 2.362 . S
Gd1207 O1252 2.324 . S
Gd1207 O1256 2.545 . S
Gd1207 O1257 2.606 . S
Gd1207 O1259 2.429 . S
Gd1207 O1260 2.545 . S
Gd1207 O1261 2.412 . S
Gd1207 C1274 2.828 . S
C1208 C1211 1.417 . S
C1208 C1213 1.431 . S
C1208 C1214 1.412 . S
C1209 C1212 1.437 . S
C1209 C1213 1.317 . S
C1209 H1228 0.929 . S
C1210 C1211 1.426 . S
C1210 C1212 1.413 . S
C1210 N1220 1.359 . S
C1211 C1208 1.417 . S
C1211 C1210 1.426 . S
C1211 N1216 1.350 . S
C1212 C1209 1.437 . S
C1212 C1210 1.413 . S
C1212 C1222 1.391 . S
C1213 C1208 1.431 . S
C1213 C1209 1.317 . S
C1213 H1224 0.930 . S
C1214 C1208 1.412 . S
C1214 C1215 1.355 . S
C1214 H1226 0.930 . S
C1215 C1214 1.355 . S
C1215 C1217 1.402 . S
C1215 H1227 0.930 . S
N1216 Gd1207 2.661 . S
N1216 C1211 1.350 . S
N1216 C1217 1.307 . S
C1217 C1215 1.402 . S
C1217 N1216 1.307 . S
C1217 H1218 0.930 . S
H1218 C1217 0.930 . S
C1219 N1220 1.334 . S
C1219 C1221 1.394 . S
C1219 H1223 0.930 . S
N1220 Gd1207 2.601 . S
N1220 C1210 1.359 . S
N1220 C1219 1.334 . S
C1221 C1219 1.394 . S
C1221 C1222 1.359 . S
C1221 H1233 0.930 . S
C1222 C1212 1.391 . S
C1222 C1221 1.359 . S
C1222 H1234 0.929 . S
H1223 C1219 0.930 . S
H1224 C1213 0.930 . S
H1225 C1242 0.930 . S
H1226 C1214 0.930 . S
H1227 C1215 0.930 . S
H1228 C1209 0.929 . S
H1229 C1247 0.930 . S
H1230 C1238 0.930 . S
H1231 C1239 0.930 . S
H1232 C1263 0.929 . S
H1233 C1221 0.930 . S
H1234 C1222 0.929 . S
H1235 C1264 0.930 . S
H1236 C1245 0.930 . S
N1237 Gd1206 2.661 . S
N1237 C1241 1.350 . S
N1237 C1242 1.307 . S
C1238 H1230 0.930 . S
C1238 C1239 1.355 . S
C1238 C1240 1.412 . S
C1239 H1231 0.930 . S
C1239 C1238 1.355 . S
C1239 C1242 1.402 . S
C1240 C1238 1.412 . S
C1240 C1241 1.417 . S
C1240 C1264 1.431 . S
C1241 N1237 1.350 . S
C1241 C1240 1.417 . S
C1241 C1244 1.426 . S
C1242 H1225 0.930 . S
C1242 N1237 1.307 . S
C1242 C1239 1.402 . S
N1243 Gd1206 2.601 . S
N1243 C1244 1.359 . S
N1243 C1247 1.334 . S
C1244 C1241 1.426 . S
C1244 N1243 1.359 . S
C1244 C1248 1.413 . S
C1245 H1236 0.930 . S
C1245 C1246 1.359 . S
C1245 C1247 1.394 . S
C1246 C1245 1.359 . S
C1246 C1248 1.391 . S
C1246 H1249 0.929 . S
C1247 H1229 0.930 . S
C1247 N1243 1.334 . S
C1247 C1245 1.394 . S
C1248 C1244 1.413 . S
C1248 C1246 1.391 . S
C1248 C1263 1.437 . S
H1249 C1246 0.929 . S
O1250 Gd1206 2.545 . S
O1250 C1265 1.258 . S
O1251 Gd1206 2.606 . S
O1251 Gd1207 2.362 . S
O1251 C1262 1.284 . S
O1252 Gd1207 2.324 . S
O1252 C1272 1.254 . S
O1253 Gd1206 2.429 . S
O1253 C1272 1.268 . S
O1254 Gd1206 2.545 . S
O1254 C1262 1.250 . S
O1255 Gd1206 2.412 . S
O1255 C1265 1.252 . S
O1256 Gd1207 2.545 . S
O1256 C1274 1.258 . S
O1257 Gd1206 2.362 . S
O1257 Gd1207 2.606 . S
O1257 C1273 1.284 . S
O1258 Gd1206 2.324 . S
O1258 C1281 1.254 . S
O1259 Gd1207 2.429 . S
O1259 C1281 1.268 . S
O1260 Gd1207 2.545 . S
O1260 C1273 1.250 . S
O1261 Gd1207 2.412 . S
O1261 C1274 1.252 . S
C1262 O1251 1.284 . S
C1262 O1254 1.250 . S
C1263 H1232 0.929 . S
C1263 C1248 1.437 . S
C1263 C1264 1.317 . S
C1264 H1235 0.930 . S
C1264 C1240 1.431 . S
C1264 C1263 1.317 . S
C1265 Gd1206 2.828 . S
C1265 O1250 1.258 . S
C1265 O1255 1.252 . S
C1265 C1266 1.497 . S
C1266 C1265 1.497 . S
C1266 C1267 1.395 . S
C1266 C1268 1.380 . S
C1267 C1266 1.395 . S
C1267 C1270 1.398 . S
C1267 H1282 0.930 . S
C1268 C1266 1.380 . S
C1268 C1269 1.391 . S
C1268 H1283 0.930 . S
C1269 C1268 1.391 . S
C1269 C1271 1.387 . S
C1270 C1267 1.398 . S
C1270 C1271 1.380 . S
C1270 H1284 0.930 . S
C1271 C1269 1.387 . S
C1271 C1270 1.380 . S
C1271 H1285 0.930 . S
C1272 O1252 1.254 . S
C1272 O1253 1.268 . S
C1273 O1257 1.284 . S
C1273 O1260 1.250 . S
C1274 Gd1207 2.828 . S
C1274 O1256 1.258 . S
C1274 O1261 1.252 . S
C1274 C1275 1.497 . S
C1275 C1274 1.497 . S
C1275 C1276 1.395 . S
C1275 C1277 1.380 . S
C1276 C1275 1.395 . S
C1276 C1279 1.398 . S
C1276 H1286 0.930 . S
C1277 C1275 1.380 . S
C1277 C1278 1.391 . S
C1277 H1287 0.930 . S
C1278 C1277 1.391 . S
C1278 C1280 1.387 . S
C1279 C1276 1.398 . S
C1279 C1280 1.380 . S
C1279 H1288 0.930 . S
C1280 C1278 1.387 . S
C1280 C1279 1.380 . S
C1280 H1289 0.930 . S
C1281 O1258 1.254 . S
C1281 O1259 1.268 . S
H1282 C1267 0.930 . S
H1283 C1268 0.930 . S
H1284 C1270 0.930 . S
H1285 C1271 0.930 . S
H1286 C1276 0.930 . S
H1287 C1277 0.930 . S
H1288 C1279 0.930 . S
H1289 C1280 0.930 . S
Gd1290 N1321 2.661 . S
Gd1290 N1327 2.601 . S
Gd1290 O1334 2.545 . S
Gd1290 O1335 2.606 . S
Gd1290 O1337 2.429 . S
Gd1290 O1338 2.545 . S
Gd1290 O1339 2.412 . S
Gd1290 O1341 2.362 . S
Gd1290 O1342 2.324 . S
Gd1290 C1349 2.828 . S
Gd1291 N1300 2.661 . S
Gd1291 N1304 2.601 . S
Gd1291 O1335 2.362 . S
Gd1291 O1336 2.324 . S
Gd1291 O1340 2.545 . S
Gd1291 O1341 2.606 . S
Gd1291 O1343 2.429 . S
Gd1291 O1344 2.545 . S
Gd1291 O1345 2.412 . S
Gd1291 C1358 2.828 . S
C1292 C1295 1.417 . S
C1292 C1297 1.431 . S
C1292 C1298 1.412 . S
C1293 C1296 1.437 . S
C1293 C1297 1.317 . S
C1293 H1312 0.929 . S
C1294 C1295 1.426 . S
C1294 C1296 1.413 . S
C1294 N1304 1.359 . S
C1295 C1292 1.417 . S
C1295 C1294 1.426 . S
C1295 N1300 1.350 . S
C1296 C1293 1.437 . S
C1296 C1294 1.413 . S
C1296 C1306 1.391 . S
C1297 C1292 1.431 . S
C1297 C1293 1.317 . S
C1297 H1308 0.930 . S
C1298 C1292 1.412 . S
C1298 C1299 1.355 . S
C1298 H1310 0.930 . S
C1299 C1298 1.355 . S
C1299 C1301 1.402 . S
C1299 H1311 0.930 . S
N1300 Gd1291 2.661 . S
N1300 C1295 1.350 . S
N1300 C1301 1.307 . S
C1301 C1299 1.402 . S
C1301 N1300 1.307 . S
C1301 H1302 0.930 . S
H1302 C1301 0.930 . S
C1303 N1304 1.334 . S
C1303 C1305 1.394 . S
C1303 H1307 0.930 . S
N1304 Gd1291 2.601 . S
N1304 C1294 1.359 . S
N1304 C1303 1.334 . S
C1305 C1303 1.394 . S
C1305 C1306 1.359 . S
C1305 H1317 0.930 . S
C1306 C1296 1.391 . S
C1306 C1305 1.359 . S
C1306 H1318 0.929 . S
H1307 C1303 0.930 . S
H1308 C1297 0.930 . S
H1309 C1326 0.930 . S
H1310 C1298 0.930 . S
H1311 C1299 0.930 . S
H1312 C1293 0.929 . S
H1313 C1331 0.930 . S
H1314 C1322 0.930 . S
H1315 C1323 0.930 . S
H1316 C1347 0.929 . S
H1317 C1305 0.930 . S
H1318 C1306 0.929 . S
H1319 C1348 0.930 . S
H1320 C1329 0.930 . S
N1321 Gd1290 2.661 . S
N1321 C1325 1.350 . S
N1321 C1326 1.307 . S
C1322 H1314 0.930 . S
C1322 C1323 1.355 . S
C1322 C1324 1.412 . S
C1323 H1315 0.930 . S
C1323 C1322 1.355 . S
C1323 C1326 1.402 . S
C1324 C1322 1.412 . S
C1324 C1325 1.417 . S
C1324 C1348 1.431 . S
C1325 N1321 1.350 . S
C1325 C1324 1.417 . S
C1325 C1328 1.426 . S
C1326 H1309 0.930 . S
C1326 N1321 1.307 . S
C1326 C1323 1.402 . S
N1327 Gd1290 2.601 . S
N1327 C1328 1.359 . S
N1327 C1331 1.334 . S
C1328 C1325 1.426 . S
C1328 N1327 1.359 . S
C1328 C1332 1.413 . S
C1329 H1320 0.930 . S
C1329 C1330 1.359 . S
C1329 C1331 1.394 . S
C1330 C1329 1.359 . S
C1330 C1332 1.391 . S
C1330 H1333 0.929 . S
C1331 H1313 0.930 . S
C1331 N1327 1.334 . S
C1331 C1329 1.394 . S
C1332 C1328 1.413 . S
C1332 C1330 1.391 . S
C1332 C1347 1.437 . S
H1333 C1330 0.929 . S
O1334 Gd1290 2.545 . S
O1334 C1349 1.258 . S
O1335 Gd1290 2.606 . S
O1335 Gd1291 2.362 . S
O1335 C1346 1.284 . S
O1336 Gd1291 2.324 . S
O1336 C1356 1.254 . S
O1337 Gd1290 2.429 . S
O1337 C1356 1.268 . S
O1338 Gd1290 2.545 . S
O1338 C1346 1.250 . S
O1339 Gd1290 2.412 . S
O1339 C1349 1.252 . S
O1340 Gd1291 2.545 . S
O1340 C1358 1.258 . S
O1341 Gd1290 2.362 . S
O1341 Gd1291 2.606 . S
O1341 C1357 1.284 . S
O1342 Gd1290 2.324 . S
O1342 C1365 1.254 . S
O1343 Gd1291 2.429 . S
O1343 C1365 1.268 . S
O1344 Gd1291 2.545 . S
O1344 C1357 1.250 . S
O1345 Gd1291 2.412 . S
O1345 C1358 1.252 . S
C1346 O1335 1.284 . S
C1346 O1338 1.250 . S
C1347 H1316 0.929 . S
C1347 C1332 1.437 . S
C1347 C1348 1.317 . S
C1348 H1319 0.930 . S
C1348 C1324 1.431 . S
C1348 C1347 1.317 . S
C1349 Gd1290 2.828 . S
C1349 O1334 1.258 . S
C1349 O1339 1.252 . S
C1349 C1350 1.497 . S
C1350 C1349 1.497 . S
C1350 C1351 1.395 . S
C1350 C1352 1.380 . S
C1351 C1350 1.395 . S
C1351 C1354 1.398 . S
C1351 H1366 0.930 . S
C1352 C1350 1.380 . S
C1352 C1353 1.391 . S
C1352 H1367 0.930 . S
C1353 C1352 1.391 . S
C1353 C1355 1.387 . S
C1354 C1351 1.398 . S
C1354 C1355 1.380 . S
C1354 H1368 0.930 . S
C1355 C1353 1.387 . S
C1355 C1354 1.380 . S
C1355 H1369 0.930 . S
C1356 O1336 1.254 . S
C1356 O1337 1.268 . S
C1357 O1341 1.284 . S
C1357 O1344 1.250 . S
C1358 Gd1291 2.828 . S
C1358 O1340 1.258 . S
C1358 O1345 1.252 . S
C1358 C1359 1.497 . S
C1359 C1358 1.497 . S
C1359 C1360 1.395 . S
C1359 C1361 1.380 . S
C1360 C1359 1.395 . S
C1360 C1363 1.398 . S
C1360 H1370 0.930 . S
C1361 C1359 1.380 . S
C1361 C1362 1.391 . S
C1361 H1371 0.930 . S
C1362 C1361 1.391 . S
C1362 C1364 1.387 . S
C1363 C1360 1.398 . S
C1363 C1364 1.380 . S
C1363 H1372 0.930 . S
C1364 C1362 1.387 . S
C1364 C1363 1.380 . S
C1364 H1373 0.930 . S
C1365 O1342 1.254 . S
C1365 O1343 1.268 . S
H1366 C1351 0.930 . S
H1367 C1352 0.930 . S
H1368 C1354 0.930 . S
H1369 C1355 0.930 . S
H1370 C1360 0.930 . S
H1371 C1361 0.930 . S
H1372 C1363 0.930 . S
H1373 C1364 0.930 . S
Gd1374 N1405 2.661 . S
Gd1374 N1411 2.601 . S
Gd1374 O1418 2.545 . S
Gd1374 O1419 2.606 . S
Gd1374 O1421 2.429 . S
Gd1374 O1422 2.545 . S
Gd1374 O1423 2.412 . S
Gd1374 O1425 2.362 . S
Gd1374 O1426 2.324 . S
Gd1374 C1433 2.828 . S
Gd1375 N1384 2.661 . S
Gd1375 N1388 2.601 . S
Gd1375 O1419 2.362 . S
Gd1375 O1420 2.324 . S
Gd1375 O1424 2.545 . S
Gd1375 O1425 2.606 . S
Gd1375 O1427 2.429 . S
Gd1375 O1428 2.545 . S
Gd1375 O1429 2.412 . S
Gd1375 C1442 2.828 . S
C1376 C1379 1.417 . S
C1376 C1381 1.431 . S
C1376 C1382 1.412 . S
C1377 C1380 1.437 . S
C1377 C1381 1.317 . S
C1377 H1396 0.929 . S
C1378 C1379 1.426 . S
C1378 C1380 1.413 . S
C1378 N1388 1.359 . S
C1379 C1376 1.417 . S
C1379 C1378 1.426 . S
C1379 N1384 1.350 . S
C1380 C1377 1.437 . S
C1380 C1378 1.413 . S
C1380 C1390 1.391 . S
C1381 C1376 1.431 . S
C1381 C1377 1.317 . S
C1381 H1392 0.930 . S
C1382 C1376 1.412 . S
C1382 C1383 1.355 . S
C1382 H1394 0.930 . S
C1383 C1382 1.355 . S
C1383 C1385 1.402 . S
C1383 H1395 0.930 . S
N1384 Gd1375 2.661 . S
N1384 C1379 1.350 . S
N1384 C1385 1.307 . S
C1385 C1383 1.402 . S
C1385 N1384 1.307 . S
C1385 H1386 0.930 . S
H1386 C1385 0.930 . S
C1387 N1388 1.334 . S
C1387 C1389 1.394 . S
C1387 H1391 0.930 . S
N1388 Gd1375 2.601 . S
N1388 C1378 1.359 . S
N1388 C1387 1.334 . S
C1389 C1387 1.394 . S
C1389 C1390 1.359 . S
C1389 H1401 0.930 . S
C1390 C1380 1.391 . S
C1390 C1389 1.359 . S
C1390 H1402 0.929 . S
H1391 C1387 0.930 . S
H1392 C1381 0.930 . S
H1393 C1410 0.930 . S
H1394 C1382 0.930 . S
H1395 C1383 0.930 . S
H1396 C1377 0.929 . S
H1397 C1415 0.930 . S
H1398 C1406 0.930 . S
H1399 C1407 0.930 . S
H1400 C1431 0.929 . S
H1401 C1389 0.930 . S
H1402 C1390 0.929 . S
H1403 C1432 0.930 . S
H1404 C1413 0.930 . S
N1405 Gd1374 2.661 . S
N1405 C1409 1.350 . S
N1405 C1410 1.307 . S
C1406 H1398 0.930 . S
C1406 C1407 1.355 . S
C1406 C1408 1.412 . S
C1407 H1399 0.930 . S
C1407 C1406 1.355 . S
C1407 C1410 1.402 . S
C1408 C1406 1.412 . S
C1408 C1409 1.417 . S
C1408 C1432 1.431 . S
C1409 N1405 1.350 . S
C1409 C1408 1.417 . S
C1409 C1412 1.426 . S
C1410 H1393 0.930 . S
C1410 N1405 1.307 . S
C1410 C1407 1.402 . S
N1411 Gd1374 2.601 . S
N1411 C1412 1.359 . S
N1411 C1415 1.334 . S
C1412 C1409 1.426 . S
C1412 N1411 1.359 . S
C1412 C1416 1.413 . S
C1413 H1404 0.930 . S
C1413 C1414 1.359 . S
C1413 C1415 1.394 . S
C1414 C1413 1.359 . S
C1414 C1416 1.391 . S
C1414 H1417 0.929 . S
C1415 H1397 0.930 . S
C1415 N1411 1.334 . S
C1415 C1413 1.394 . S
C1416 C1412 1.413 . S
C1416 C1414 1.391 . S
C1416 C1431 1.437 . S
H1417 C1414 0.929 . S
O1418 Gd1374 2.545 . S
O1418 C1433 1.258 . S
O1419 Gd1374 2.606 . S
O1419 Gd1375 2.362 . S
O1419 C1430 1.284 . S
O1420 Gd1375 2.324 . S
O1420 C1440 1.254 . S
O1421 Gd1374 2.429 . S
O1421 C1440 1.268 . S
O1422 Gd1374 2.545 . S
O1422 C1430 1.250 . S
O1423 Gd1374 2.412 . S
O1423 C1433 1.252 . S
O1424 Gd1375 2.545 . S
O1424 C1442 1.258 . S
O1425 Gd1374 2.362 . S
O1425 Gd1375 2.606 . S
O1425 C1441 1.284 . S
O1426 Gd1374 2.324 . S
O1426 C1449 1.254 . S
O1427 Gd1375 2.429 . S
O1427 C1449 1.268 . S
O1428 Gd1375 2.545 . S
O1428 C1441 1.250 . S
O1429 Gd1375 2.412 . S
O1429 C1442 1.252 . S
C1430 O1419 1.284 . S
C1430 O1422 1.250 . S
C1431 H1400 0.929 . S
C1431 C1416 1.437 . S
C1431 C1432 1.317 . S
C1432 H1403 0.930 . S
C1432 C1408 1.431 . S
C1432 C1431 1.317 . S
C1433 Gd1374 2.828 . S
C1433 O1418 1.258 . S
C1433 O1423 1.252 . S
C1433 C1434 1.497 . S
C1434 C1433 1.497 . S
C1434 C1435 1.395 . S
C1434 C1436 1.380 . S
C1435 C1434 1.395 . S
C1435 C1438 1.398 . S
C1435 H1450 0.930 . S
C1436 C1434 1.380 . S
C1436 C1437 1.391 . S
C1436 H1451 0.930 . S
C1437 C1436 1.391 . S
C1437 C1439 1.387 . S
C1438 C1435 1.398 . S
C1438 C1439 1.380 . S
C1438 H1452 0.930 . S
C1439 C1437 1.387 . S
C1439 C1438 1.380 . S
C1439 H1453 0.930 . S
C1440 O1420 1.254 . S
C1440 O1421 1.268 . S
C1441 O1425 1.284 . S
C1441 O1428 1.250 . S
C1442 Gd1375 2.828 . S
C1442 O1424 1.258 . S
C1442 O1429 1.252 . S
C1442 C1443 1.497 . S
C1443 C1442 1.497 . S
C1443 C1444 1.395 . S
C1443 C1445 1.380 . S
C1444 C1443 1.395 . S
C1444 C1447 1.398 . S
C1444 H1454 0.930 . S
C1445 C1443 1.380 . S
C1445 C1446 1.391 . S
C1445 H1455 0.930 . S
C1446 C1445 1.391 . S
C1446 C1448 1.387 . S
C1447 C1444 1.398 . S
C1447 C1448 1.380 . S
C1447 H1456 0.930 . S
C1448 C1446 1.387 . S
C1448 C1447 1.380 . S
C1448 H1457 0.930 . S
C1449 O1426 1.254 . S
C1449 O1427 1.268 . S
H1450 C1435 0.930 . S
H1451 C1436 0.930 . S
H1452 C1438 0.930 . S
H1453 C1439 0.930 . S
H1454 C1444 0.930 . S
H1455 C1445 0.930 . S
H1456 C1447 0.930 . S
H1457 C1448 0.930 . S
H1458 C1470 0.930 . S
H1459 C1472 0.930 . S
H1460 C1473 0.930 . S
H1461 C1477 0.959 . S
H1462 C1477 0.959 . S
H1463 C1477 0.961 . S
H1464 C1478 0.960 . S
H1465 C1478 0.961 . S
H1466 C1478 0.959 . S
H1467 C1481 0.929 . S
H1468 C1482 0.863 1_556 S
H1469 C1484 0.930 . S
C1470 H1458 0.930 . S
C1470 C1471 1.399 . S
C1470 C1475 1.399 . S
C1471 C1470 1.399 . S
C1471 C1472 1.376 . S
C1472 H1459 0.930 . S
C1472 C1471 1.376 . S
C1472 C1473 1.388 . S
C1473 H1460 0.930 . S
C1473 C1472 1.388 . S
C1473 C1474 1.390 . S
C1474 C1473 1.390 . S
C1474 C1475 1.394 . S
C1474 C1480 1.465 . S
C1475 C1470 1.399 . S
C1475 C1474 1.394 . S
C1475 C1476 1.516 . S
C1476 C1475 1.516 . S
C1476 C1477 1.502 . S
C1476 C1478 1.561 . S
C1476 C1479 1.526 . S
C1477 H1461 0.959 . S
C1477 H1462 0.959 . S
C1477 H1463 0.961 . S
C1477 C1476 1.502 . S
C1478 H1464 0.960 . S
C1478 H1465 0.961 . S
C1478 H1466 0.959 . S
C1478 C1476 1.561 . S
C1479 C1476 1.526 . S
C1479 C1480 1.396 . S
C1479 C1484 1.390 . S
C1480 C1474 1.465 . S
C1480 C1479 1.396 . S
C1480 C1481 1.399 . S
C1481 H1467 0.929 . S
C1481 C1480 1.399 . S
C1481 C1482 1.385 . S
C1482 H1468 0.863 1_554 S
C1482 C1481 1.385 . S
C1482 C1483 1.389 . S
C1483 C1482 1.389 . S
C1483 C1484 1.387 . S
C1484 H1469 0.930 . S
C1484 C1479 1.390 . S
C1484 C1483 1.387 . S
H1485 C1497 0.930 . S
H1486 C1499 0.930 . S
H1487 C1500 0.930 . S
H1488 C1504 0.959 . S
H1489 C1504 0.959 . S
H1490 C1504 0.961 . S
H1491 C1505 0.960 . S
H1492 C1505 0.961 . S
H1493 C1505 0.959 . S
H1494 C1508 0.929 . S
H1495 C1509 0.931 . S
H1496 C1511 0.930 . S
C1497 H1485 0.930 . S
C1497 C1498 1.399 . S
C1497 C1502 1.399 . S
C1498 C1497 1.399 . S
C1498 C1499 1.376 . S
C1499 H1486 0.930 . S
C1499 C1498 1.376 . S
C1499 C1500 1.388 . S
C1500 H1487 0.930 . S
C1500 C1499 1.388 . S
C1500 C1501 1.390 . S
C1501 C1500 1.390 . S
C1501 C1502 1.394 . S
C1501 C1507 1.465 . S
C1502 C1497 1.399 . S
C1502 C1501 1.394 . S
C1502 C1503 1.516 . S
C1503 C1502 1.516 . S
C1503 C1504 1.502 . S
C1503 C1505 1.561 . S
C1503 C1506 1.526 . S
C1504 H1488 0.959 . S
C1504 H1489 0.959 . S
C1504 H1490 0.961 . S
C1504 C1503 1.502 . S
C1505 H1491 0.960 . S
C1505 H1492 0.961 . S
C1505 H1493 0.959 . S
C1505 C1503 1.561 . S
C1506 C1503 1.526 . S
C1506 C1507 1.396 . S
C1506 C1511 1.390 . S
C1507 C1501 1.465 . S
C1507 C1506 1.396 . S
C1507 C1508 1.399 . S
C1508 H1494 0.929 . S
C1508 C1507 1.399 . S
C1508 C1509 1.385 . S
C1509 H1495 0.931 . S
C1509 C1508 1.385 . S
C1509 C1510 1.389 . S
C1510 C1509 1.389 . S
C1510 C1511 1.387 . S
C1511 H1496 0.930 . S
C1511 C1506 1.390 . S
C1511 C1510 1.387 . S
H1512 C1524 0.930 . S
H1513 C1526 0.930 . S
H1514 C1527 0.930 . S
H1515 C1531 0.959 . S
H1516 C1531 0.959 . S
H1517 C1531 0.961 . S
H1518 C1532 0.960 . S
H1519 C1532 0.961 1_556 S
H1520 C1532 0.959 . S
H1521 C1535 0.929 . S
H1522 C1536 0.931 . S
H1523 C1538 0.930 . S
C1524 H1512 0.930 . S
C1524 C1525 1.399 . S
C1524 C1529 1.399 . S
C1525 C1524 1.399 . S
C1525 C1526 1.376 . S
C1526 H1513 0.930 . S
C1526 C1525 1.376 . S
C1526 C1527 1.388 . S
C1527 H1514 0.930 . S
C1527 C1526 1.388 . S
C1527 C1528 1.390 . S
C1528 C1527 1.390 . S
C1528 C1529 1.394 . S
C1528 C1534 1.465 . S
C1529 C1524 1.399 . S
C1529 C1528 1.394 . S
C1529 C1530 1.516 . S
C1530 C1529 1.516 . S
C1530 C1531 1.502 . S
C1530 C1532 1.561 . S
C1530 C1533 1.526 . S
C1531 H1515 0.959 . S
C1531 H1516 0.959 . S
C1531 H1517 0.961 . S
C1531 C1530 1.502 . S
C1532 H1518 0.960 . S
C1532 H1519 0.961 1_554 S
C1532 H1520 0.959 . S
C1532 C1530 1.561 . S
C1533 C1530 1.526 . S
C1533 C1534 1.396 . S
C1533 C1538 1.390 . S
C1534 C1528 1.465 . S
C1534 C1533 1.396 . S
C1534 C1535 1.399 . S
C1535 H1521 0.929 . S
C1535 C1534 1.399 . S
C1535 C1536 1.385 . S
C1536 H1522 0.931 . S
C1536 C1535 1.385 . S
C1536 C1537 1.389 . S
C1537 C1536 1.389 . S
C1537 C1538 1.387 . S
C1538 H1523 0.930 . S
C1538 C1533 1.390 . S
C1538 C1537 1.387 . S
H1539 C1551 0.930 . S
H1540 C1553 0.930 . S
H1541 C1554 0.930 . S
H1542 C1558 0.959 . S
H1543 C1558 0.959 . S
H1544 C1558 0.961 . S
H1545 C1559 0.960 . S
H1546 C1559 0.961 . S
H1547 C1559 0.959 . S
H1548 C1562 0.929 . S
H1549 C1563 0.931 . S
H1550 C1565 0.930 . S
C1551 H1539 0.930 . S
C1551 C1552 1.399 . S
C1551 C1556 1.399 . S
C1552 C1551 1.399 . S
C1552 C1553 1.376 . S
C1553 H1540 0.930 . S
C1553 C1552 1.376 . S
C1553 C1554 1.388 . S
C1554 H1541 0.930 . S
C1554 C1553 1.388 . S
C1554 C1555 1.390 . S
C1555 C1554 1.390 . S
C1555 C1556 1.394 . S
C1555 C1561 1.465 . S
C1556 C1551 1.399 . S
C1556 C1555 1.394 . S
C1556 C1557 1.516 . S
C1557 C1556 1.516 . S
C1557 C1558 1.502 . S
C1557 C1559 1.561 1_556 S
C1557 C1560 1.526 . S
C1558 H1542 0.959 . S
C1558 H1543 0.959 . S
C1558 H1544 0.961 . S
C1558 C1557 1.502 . S
C1559 H1545 0.960 . S
C1559 H1546 0.961 . S
C1559 H1547 0.959 . S
C1559 C1557 1.561 1_554 S
C1560 C1557 1.526 . S
C1560 C1561 1.396 . S
C1560 C1565 1.390 . S
C1561 C1555 1.465 . S
C1561 C1560 1.396 . S
C1561 C1562 1.399 . S
C1562 H1548 0.929 . S
C1562 C1561 1.399 . S
C1562 C1563 1.385 . S
C1563 H1549 0.931 . S
C1563 C1562 1.385 . S
C1563 C1564 1.389 . S
C1564 C1563 1.389 . S
C1564 C1565 1.387 . S
C1565 H1550 0.930 . S
C1565 C1560 1.390 . S
C1565 C1564 1.387 . S
H1566 C1578 0.930 . S
H1567 C1580 0.930 . S
H1568 C1581 0.930 . S
H1569 C1585 0.959 . S
H1570 C1585 0.959 . S
H1571 C1585 0.961 . S
H1572 C1586 0.960 . S
H1573 C1586 0.961 . S
H1574 C1586 0.959 . S
H1575 C1589 0.929 1_554 S
H1576 C1590 0.931 1_554 S
H1577 C1592 0.930 . S
C1578 H1566 0.930 . S
C1578 C1579 1.399 . S
C1578 C1583 1.399 . S
C1579 C1578 1.399 . S
C1579 C1580 1.376 . S
C1580 H1567 0.930 . S
C1580 C1579 1.376 . S
C1580 C1581 1.388 . S
C1581 H1568 0.930 . S
C1581 C1580 1.388 . S
C1581 C1582 1.390 . S
C1582 C1581 1.390 . S
C1582 C1583 1.394 . S
C1582 C1588 1.465 . S
C1583 C1578 1.399 . S
C1583 C1582 1.394 . S
C1583 C1584 1.516 . S
C1584 C1583 1.516 . S
C1584 C1585 1.502 . S
C1584 C1586 1.561 . S
C1584 C1587 1.526 . S
C1585 H1569 0.959 . S
C1585 H1570 0.959 . S
C1585 H1571 0.961 . S
C1585 C1584 1.502 . S
C1586 H1572 0.960 . S
C1586 H1573 0.961 . S
C1586 H1574 0.959 . S
C1586 C1584 1.561 . S
C1587 C1584 1.526 . S
C1587 C1588 1.396 . S
C1587 C1592 1.390 . S
C1588 C1582 1.465 . S
C1588 C1587 1.396 . S
C1588 C1589 1.399 . S
C1589 H1575 0.929 1_556 S
C1589 C1588 1.399 . S
C1589 C1590 1.385 . S
C1590 H1576 0.931 1_556 S
C1590 C1589 1.385 . S
C1590 C1591 1.389 . S
C1591 C1590 1.389 . S
C1591 C1592 1.387 . S
C1592 H1577 0.930 . S
C1592 C1587 1.390 . S
C1592 C1591 1.387 . S
H1593 C1605 0.930 . S
H1594 C1607 0.930 . S
H1595 C1608 0.930 . S
H1596 C1612 0.959 . S
H1597 C1612 0.959 . S
H1598 C1612 0.961 . S
H1599 C1613 0.960 . S
H1600 C1613 0.961 . S
H1601 C1613 0.959 . S
H1602 C1616 0.929 1_554 S
H1603 C1617 0.927 1_554 S
H1604 C1619 0.930 . S
C1605 H1593 0.930 . S
C1605 C1606 1.399 . S
C1605 C1610 1.399 . S
C1606 C1605 1.399 . S
C1606 C1607 1.376 . S
C1607 H1594 0.930 . S
C1607 C1606 1.376 . S
C1607 C1608 1.388 . S
C1608 H1595 0.930 . S
C1608 C1607 1.388 . S
C1608 C1609 1.390 . S
C1609 C1608 1.390 . S
C1609 C1610 1.394 . S
C1609 C1615 1.465 . S
C1610 C1605 1.399 . S
C1610 C1609 1.394 . S
C1610 C1611 1.516 . S
C1611 C1610 1.516 . S
C1611 C1612 1.502 . S
C1611 C1613 1.561 . S
C1611 C1614 1.526 . S
C1612 H1596 0.959 . S
C1612 H1597 0.959 . S
C1612 H1598 0.961 . S
C1612 C1611 1.502 . S
C1613 H1599 0.960 . S
C1613 H1600 0.961 . S
C1613 H1601 0.959 . S
C1613 C1611 1.561 . S
C1614 C1611 1.526 . S
C1614 C1615 1.396 . S
C1614 C1619 1.390 . S
C1615 C1609 1.465 . S
C1615 C1614 1.396 . S
C1615 C1616 1.399 . S
C1616 H1602 0.929 1_556 S
C1616 C1615 1.399 . S
C1616 C1617 1.386 . S
C1617 H1603 0.927 1_556 S
C1617 C1616 1.386 . S
C1617 C1618 1.392 . S
C1618 C1617 1.392 . S
C1618 C1619 1.387 . S
C1619 H1604 0.930 . S
C1619 C1614 1.390 . S
C1619 C1618 1.387 . S
H1620 C1632 0.930 . S
H1621 C1634 0.930 . S
H1622 C1635 0.930 . S
H1623 C1639 0.959 . S
H1624 C1639 0.959 1_554 S
H1625 C1639 0.962 . S
H1626 C1640 0.954 1_554 S
H1627 C1640 0.918 1_554 S
H1628 C1640 0.982 . S
H1629 C1643 0.929 . S
H1630 C1644 0.931 . S
H1631 C1646 0.930 1_554 S
C1632 H1620 0.930 . S
C1632 C1633 1.399 . S
C1632 C1637 1.399 . S
C1633 C1632 1.399 . S
C1633 C1634 1.376 . S
C1634 H1621 0.930 . S
C1634 C1633 1.376 . S
C1634 C1635 1.388 . S
C1635 H1622 0.930 . S
C1635 C1634 1.388 . S
C1635 C1636 1.390 . S
C1636 C1635 1.390 . S
C1636 C1637 1.394 . S
C1636 C1642 1.465 . S
C1637 C1632 1.399 . S
C1637 C1636 1.394 . S
C1637 C1638 1.516 . S
C1638 C1637 1.516 . S
C1638 C1639 1.502 . S
C1638 C1640 1.589 . S
C1638 C1641 1.526 . S
C1639 H1623 0.959 . S
C1639 H1624 0.959 1_556 S
C1639 H1625 0.962 . S
C1639 C1638 1.502 . S
C1640 H1626 0.954 1_556 S
C1640 H1627 0.918 1_556 S
C1640 H1628 0.982 . S
C1640 C1638 1.589 . S
C1641 C1638 1.526 . S
C1641 C1642 1.396 . S
C1641 C1646 1.390 . S
C1642 C1636 1.465 . S
C1642 C1641 1.396 . S
C1642 C1643 1.399 . S
C1643 H1629 0.929 . S
C1643 C1642 1.399 . S
C1643 C1644 1.385 . S
C1644 H1630 0.931 . S
C1644 C1643 1.385 . S
C1644 C1645 1.389 . S
C1645 C1644 1.389 . S
C1645 C1646 1.387 . S
C1646 H1631 0.930 1_556 S
C1646 C1641 1.390 . S
C1646 C1645 1.387 . S
H1647 C1659 0.930 . S
H1648 C1661 0.930 . S
H1649 C1662 0.930 . S
H1650 C1666 0.959 . S
H1651 C1666 0.959 . S
H1652 C1666 0.961 . S
H1653 C1667 0.960 . S
H1654 C1667 0.961 . S
H1655 C1667 0.959 . S
H1656 C1670 0.929 1_554 S
H1657 C1671 0.931 1_554 S
H1658 C1673 0.930 . S
C1659 H1647 0.930 . S
C1659 C1660 1.399 . S
C1659 C1664 1.399 . S
C1660 C1659 1.399 . S
C1660 C1661 1.376 . S
C1661 H1648 0.930 . S
C1661 C1660 1.376 . S
C1661 C1662 1.388 . S
C1662 H1649 0.930 . S
C1662 C1661 1.388 . S
C1662 C1663 1.390 . S
C1663 C1662 1.390 . S
C1663 C1664 1.394 . S
C1663 C1669 1.465 . S
C1664 C1659 1.399 . S
C1664 C1663 1.394 . S
C1664 C1665 1.516 . S
C1665 C1664 1.516 . S
C1665 C1666 1.502 . S
C1665 C1667 1.561 . S
C1665 C1668 1.526 . S
C1666 H1650 0.959 . S
C1666 H1651 0.959 . S
C1666 H1652 0.961 . S
C1666 C1665 1.502 . S
C1667 H1653 0.960 . S
C1667 H1654 0.961 . S
C1667 H1655 0.959 . S
C1667 C1665 1.561 . S
C1668 C1665 1.526 . S
C1668 C1669 1.396 . S
C1668 C1673 1.390 . S
C1669 C1663 1.465 . S
C1669 C1668 1.396 . S
C1669 C1670 1.399 . S
C1670 H1656 0.929 1_556 S
C1670 C1669 1.399 . S
C1670 C1671 1.385 . S
C1671 H1657 0.931 1_556 S
C1671 C1670 1.385 . S
C1671 C1672 1.389 . S
C1672 C1671 1.389 . S
C1672 C1673 1.387 . S
C1673 H1658 0.930 . S
C1673 C1668 1.390 . S
C1673 C1672 1.387 . S
H1674 C1686 0.930 . S
H1675 C1688 0.930 . S
H1676 C1689 0.930 . S
H1677 C1693 0.959 . S
H1678 C1693 0.959 . S
H1679 C1693 0.961 . S
H1680 C1694 0.960 . S
H1681 C1694 0.961 . S
H1682 C1694 0.959 . S
H1683 C1697 0.929 1_554 S
H1684 C1698 0.931 1_554 S
H1685 C1700 0.930 . S
C1686 H1674 0.930 . S
C1686 C1687 1.399 . S
C1686 C1691 1.399 . S
C1687 C1686 1.399 . S
C1687 C1688 1.376 . S
C1688 H1675 0.930 . S
C1688 C1687 1.376 . S
C1688 C1689 1.388 . S
C1689 H1676 0.930 . S
C1689 C1688 1.388 . S
C1689 C1690 1.390 . S
C1690 C1689 1.390 . S
C1690 C1691 1.394 . S
C1690 C1696 1.465 . S
C1691 C1686 1.399 . S
C1691 C1690 1.394 . S
C1691 C1692 1.516 . S
C1692 C1691 1.516 . S
C1692 C1693 1.502 . S
C1692 C1694 1.561 . S
C1692 C1695 1.526 . S
C1693 H1677 0.959 . S
C1693 H1678 0.959 . S
C1693 H1679 0.961 . S
C1693 C1692 1.502 . S
C1694 H1680 0.960 . S
C1694 H1681 0.961 . S
C1694 H1682 0.959 . S
C1694 C1692 1.561 . S
C1695 C1692 1.526 . S
C1695 C1696 1.396 . S
C1695 C1700 1.390 . S
C1696 C1690 1.465 . S
C1696 C1695 1.396 . S
C1696 C1697 1.399 . S
C1697 H1683 0.929 1_556 S
C1697 C1696 1.399 . S
C1697 C1698 1.385 . S
C1698 H1684 0.931 1_556 S
C1698 C1697 1.385 . S
C1698 C1699 1.389 . S
C1699 C1698 1.389 . S
C1699 C1700 1.387 . S
C1700 H1685 0.930 . S
C1700 C1695 1.390 . S
C1700 C1699 1.387 . S
H1701 C1713 0.930 . S
H1702 C1715 0.930 . S
H1703 C1716 0.930 . S
H1704 C1720 0.959 . S
H1705 C1720 0.959 . S
H1706 C1720 0.961 . S
H1707 C1721 0.960 . S
H1708 C1721 0.961 1_556 S
H1709 C1721 0.959 . S
H1710 C1724 0.929 . S
H1711 C1725 0.931 . S
H1712 C1727 0.930 . S
C1713 H1701 0.930 . S
C1713 C1714 1.399 . S
C1713 C1718 1.399 . S
C1714 C1713 1.399 . S
C1714 C1715 1.376 . S
C1715 H1702 0.930 . S
C1715 C1714 1.376 . S
C1715 C1716 1.388 . S
C1716 H1703 0.930 . S
C1716 C1715 1.388 . S
C1716 C1717 1.390 . S
C1717 C1716 1.390 . S
C1717 C1718 1.394 . S
C1717 C1723 1.465 . S
C1718 C1713 1.399 . S
C1718 C1717 1.394 . S
C1718 C1719 1.516 . S
C1719 C1718 1.516 . S
C1719 C1720 1.502 . S
C1719 C1721 1.561 . S
C1719 C1722 1.526 . S
C1720 H1704 0.959 . S
C1720 H1705 0.959 . S
C1720 H1706 0.961 . S
C1720 C1719 1.502 . S
C1721 H1707 0.960 . S
C1721 H1708 0.961 1_554 S
C1721 H1709 0.959 . S
C1721 C1719 1.561 . S
C1722 C1719 1.526 . S
C1722 C1723 1.396 . S
C1722 C1727 1.390 . S
C1723 C1717 1.465 . S
C1723 C1722 1.396 . S
C1723 C1724 1.399 . S
C1724 H1710 0.929 . S
C1724 C1723 1.399 . S
C1724 C1725 1.385 . S
C1725 H1711 0.931 . S
C1725 C1724 1.385 . S
C1725 C1726 1.389 . S
C1726 C1725 1.389 . S
C1726 C1727 1.387 . S
C1727 H1712 0.930 . S
C1727 C1722 1.390 . S
C1727 C1726 1.387 . S
H1728 C1740 0.930 . S
H1729 C1742 0.930 . S
H1730 C1743 0.930 . S
H1731 C1747 0.959 . S
H1732 C1747 0.959 . S
H1733 C1747 0.961 . S
H1734 C1748 0.960 . S
H1735 C1748 0.961 . S
H1736 C1748 0.959 . S
H1737 C1751 0.929 . S
H1738 C1752 0.931 . S
H1739 C1754 0.930 . S
C1740 H1728 0.930 . S
C1740 C1741 1.399 . S
C1740 C1745 1.399 . S
C1741 C1740 1.399 . S
C1741 C1742 1.376 . S
C1742 H1729 0.930 . S
C1742 C1741 1.376 . S
C1742 C1743 1.388 . S
C1743 H1730 0.930 . S
C1743 C1742 1.388 . S
C1743 C1744 1.390 . S
C1744 C1743 1.390 . S
C1744 C1745 1.394 . S
C1744 C1750 1.465 . S
C1745 C1740 1.399 . S
C1745 C1744 1.394 . S
C1745 C1746 1.516 . S
C1746 C1745 1.516 . S
C1746 C1747 1.502 . S
C1746 C1748 1.561 . S
C1746 C1749 1.526 . S
C1747 H1731 0.959 . S
C1747 H1732 0.959 . S
C1747 H1733 0.961 . S
C1747 C1746 1.502 . S
C1748 H1734 0.960 . S
C1748 H1735 0.961 . S
C1748 H1736 0.959 . S
C1748 C1746 1.561 . S
C1749 C1746 1.526 . S
C1749 C1750 1.396 . S
C1749 C1754 1.390 . S
C1750 C1744 1.465 . S
C1750 C1749 1.396 . S
C1750 C1751 1.399 . S
C1751 H1737 0.929 . S
C1751 C1750 1.399 . S
C1751 C1752 1.385 . S
C1752 H1738 0.931 . S
C1752 C1751 1.385 . S
C1752 C1753 1.389 . S
C1753 C1752 1.389 . S
C1753 C1754 1.387 . S
C1754 H1739 0.930 . S
C1754 C1749 1.390 . S
C1754 C1753 1.387 . S
H1755 C1767 0.930 . S
H1756 C1769 0.930 . S
H1757 C1770 0.930 . S
H1758 C1774 0.959 . S
H1759 C1774 0.959 . S
H1760 C1774 0.961 . S
H1761 C1775 0.960 . S
H1762 C1775 0.961 . S
H1763 C1775 0.959 . S
H1764 C1778 0.929 . S
H1765 C1779 0.900 1_556 S
H1766 C1781 0.930 . S
C1767 H1755 0.930 . S
C1767 C1768 1.399 . S
C1767 C1772 1.399 . S
C1768 C1767 1.399 . S
C1768 C1769 1.376 . S
C1769 H1756 0.930 . S
C1769 C1768 1.376 . S
C1769 C1770 1.388 . S
C1770 H1757 0.930 . S
C1770 C1769 1.388 . S
C1770 C1771 1.390 . S
C1771 C1770 1.390 . S
C1771 C1772 1.394 . S
C1771 C1777 1.465 . S
C1772 C1767 1.399 . S
C1772 C1771 1.394 . S
C1772 C1773 1.516 . S
C1773 C1772 1.516 . S
C1773 C1774 1.502 . S
C1773 C1775 1.561 . S
C1773 C1776 1.526 . S
C1774 H1758 0.959 . S
C1774 H1759 0.959 . S
C1774 H1760 0.961 . S
C1774 C1773 1.502 . S
C1775 H1761 0.960 . S
C1775 H1762 0.961 . S
C1775 H1763 0.959 . S
C1775 C1773 1.561 . S
C1776 C1773 1.526 . S
C1776 C1777 1.396 . S
C1776 C1781 1.390 . S
C1777 C1771 1.465 . S
C1777 C1776 1.396 . S
C1777 C1778 1.399 . S
C1778 H1764 0.929 . S
C1778 C1777 1.399 . S
C1778 C1779 1.385 . S
C1779 H1765 0.900 1_554 S
C1779 C1778 1.385 . S
C1779 C1780 1.389 . S
C1780 C1779 1.389 . S
C1780 C1781 1.387 . S
C1781 H1766 0.930 . S
C1781 C1776 1.390 . S
C1781 C1780 1.387 . S
H1782 C1794 0.930 . S
H1783 C1796 0.930 . S
H1784 C1797 0.930 . S
H1785 C1801 0.959 . S
H1786 C1801 0.959 . S
H1787 C1801 0.961 . S
H1788 C1802 0.960 . S
H1789 C1802 0.961 . S
H1790 C1802 0.959 . S
H1791 C1805 0.929 . S
H1792 C1806 0.931 . S
H1793 C1808 0.930 . S
C1794 H1782 0.930 . S
C1794 C1795 1.399 1_455 S
C1794 C1799 1.399 . S
C1795 C1794 1.399 1_655 S
C1795 C1796 1.376 . S
C1796 H1783 0.930 . S
C1796 C1795 1.376 . S
C1796 C1797 1.388 1_655 S
C1797 H1784 0.930 . S
C1797 C1796 1.388 1_455 S
C1797 C1798 1.390 . S
C1798 C1797 1.390 . S
C1798 C1799 1.394 . S
C1798 C1804 1.465 . S
C1799 C1794 1.399 . S
C1799 C1798 1.394 . S
C1799 C1800 1.516 . S
C1800 C1799 1.516 . S
C1800 C1801 1.502 . S
C1800 C1802 1.561 . S
C1800 C1803 1.526 . S
C1801 H1785 0.959 . S
C1801 H1786 0.959 . S
C1801 H1787 0.961 . S
C1801 C1800 1.502 . S
C1802 H1788 0.960 . S
C1802 H1789 0.961 . S
C1802 H1790 0.959 . S
C1802 C1800 1.561 . S
C1803 C1800 1.526 . S
C1803 C1804 1.396 . S
C1803 C1808 1.390 . S
C1804 C1798 1.465 . S
C1804 C1803 1.396 . S
C1804 C1805 1.399 . S
C1805 H1791 0.929 . S
C1805 C1804 1.399 . S
C1805 C1806 1.385 . S
C1806 H1792 0.931 . S
C1806 C1805 1.385 . S
C1806 C1807 1.389 . S
C1807 C1806 1.389 . S
C1807 C1808 1.387 . S
C1808 H1793 0.930 . S
C1808 C1803 1.390 . S
C1808 C1807 1.387 . S
H1809 C1821 0.930 . S
H1810 C1823 0.930 . S
H1811 C1824 0.930 . S
H1812 C1828 0.959 . S
H1813 C1828 0.959 . S
H1814 C1828 0.961 . S
H1815 C1829 0.960 . S
H1816 C1829 0.961 . S
H1817 C1829 0.959 . S
H1818 C1832 0.929 . S
H1819 C1833 0.931 . S
H1820 C1835 0.930 . S
C1821 H1809 0.930 . S
C1821 C1822 1.399 . S
C1821 C1826 1.399 . S
C1822 C1821 1.399 . S
C1822 C1823 1.376 . S
C1823 H1810 0.930 . S
C1823 C1822 1.376 . S
C1823 C1824 1.388 . S
C1824 H1811 0.930 . S
C1824 C1823 1.388 . S
C1824 C1825 1.390 . S
C1825 C1824 1.390 . S
C1825 C1826 1.394 . S
C1825 C1831 1.465 . S
C1826 C1821 1.399 . S
C1826 C1825 1.394 . S
C1826 C1827 1.516 . S
C1827 C1826 1.516 . S
C1827 C1828 1.502 . S
C1827 C1829 1.561 . S
C1827 C1830 1.526 . S
C1828 H1812 0.959 . S
C1828 H1813 0.959 . S
C1828 H1814 0.961 . S
C1828 C1827 1.502 . S
C1829 H1815 0.960 . S
C1829 H1816 0.961 . S
C1829 H1817 0.959 . S
C1829 C1827 1.561 . S
C1830 C1827 1.526 . S
C1830 C1831 1.396 . S
C1830 C1835 1.390 . S
C1831 C1825 1.465 . S
C1831 C1830 1.396 . S
C1831 C1832 1.399 . S
C1832 H1818 0.929 . S
C1832 C1831 1.399 . S
C1832 C1833 1.385 . S
C1833 H1819 0.931 . S
C1833 C1832 1.385 . S
C1833 C1834 1.389 . S
C1834 C1833 1.389 . S
C1834 C1835 1.387 . S
C1835 H1820 0.930 . S
C1835 C1830 1.390 . S
C1835 C1834 1.387 . S
H1836 C1848 0.930 . S
H1837 C1850 0.930 . S
H1838 C1851 0.930 . S
H1839 C1855 0.959 . S
H1840 C1855 0.959 . S
H1841 C1855 0.961 . S
H1842 C1856 0.960 . S
H1843 C1856 0.961 . S
H1844 C1856 0.959 . S
H1845 C1859 0.929 . S
H1846 C1860 0.931 . S
H1847 C1862 0.930 . S
C1848 H1836 0.930 . S
C1848 C1849 1.399 . S
C1848 C1853 1.399 1_545 S
C1849 C1848 1.399 . S
C1849 C1850 1.376 . S
C1850 H1837 0.930 . S
C1850 C1849 1.376 . S
C1850 C1851 1.388 1_545 S
C1851 H1838 0.930 . S
C1851 C1850 1.388 1_565 S
C1851 C1852 1.390 . S
C1852 C1851 1.390 . S
C1852 C1853 1.394 . S
C1852 C1858 1.465 . S
C1853 C1848 1.399 1_565 S
C1853 C1852 1.394 . S
C1853 C1854 1.516 . S
C1854 C1853 1.516 . S
C1854 C1855 1.502 . S
C1854 C1856 1.561 . S
C1854 C1857 1.526 . S
C1855 H1839 0.959 . S
C1855 H1840 0.959 . S
C1855 H1841 0.961 . S
C1855 C1854 1.502 . S
C1856 H1842 0.960 . S
C1856 H1843 0.961 . S
C1856 H1844 0.959 . S
C1856 C1854 1.561 . S
C1857 C1854 1.526 . S
C1857 C1858 1.396 . S
C1857 C1862 1.390 . S
C1858 C1852 1.465 . S
C1858 C1857 1.396 . S
C1858 C1859 1.399 . S
C1859 H1845 0.929 . S
C1859 C1858 1.399 . S
C1859 C1860 1.385 . S
C1860 H1846 0.931 . S
C1860 C1859 1.385 . S
C1860 C1861 1.389 . S
C1861 C1860 1.389 . S
C1861 C1862 1.387 . S
C1862 H1847 0.930 . S
C1862 C1857 1.390 . S
C1862 C1861 1.387 . S
H1863 C1875 0.930 . S
H1864 C1877 0.930 . S
H1865 C1878 0.930 . S
H1866 C1882 0.959 . S
H1867 C1882 0.959 . S
H1868 C1882 0.961 . S
H1869 C1883 0.960 . S
H1870 C1883 0.961 . S
H1871 C1883 0.959 . S
H1872 C1886 0.929 . S
H1873 C1887 0.931 . S
H1874 C1889 0.930 . S
C1875 H1863 0.930 . S
C1875 C1876 1.399 . S
C1875 C1880 1.399 . S
C1876 C1875 1.399 . S
C1876 C1877 1.376 . S
C1877 H1864 0.930 . S
C1877 C1876 1.376 . S
C1877 C1878 1.388 . S
C1878 H1865 0.930 . S
C1878 C1877 1.388 . S
C1878 C1879 1.390 . S
C1879 C1878 1.390 . S
C1879 C1880 1.394 . S
C1879 C1885 1.465 . S
C1880 C1875 1.399 . S
C1880 C1879 1.394 . S
C1880 C1881 1.516 . S
C1881 C1880 1.516 . S
C1881 C1882 1.502 . S
C1881 C1883 1.561 . S
C1881 C1884 1.526 . S
C1882 H1866 0.959 . S
C1882 H1867 0.959 . S
C1882 H1868 0.961 . S
C1882 C1881 1.502 . S
C1883 H1869 0.960 . S
C1883 H1870 0.961 . S
C1883 H1871 0.959 . S
C1883 C1881 1.561 . S
C1884 C1881 1.526 . S
C1884 C1885 1.396 . S
C1884 C1889 1.390 . S
C1885 C1879 1.465 . S
C1885 C1884 1.396 . S
C1885 C1886 1.399 . S
C1886 H1872 0.929 . S
C1886 C1885 1.399 . S
C1886 C1887 1.385 . S
C1887 H1873 0.931 . S
C1887 C1886 1.385 . S
C1887 C1888 1.389 . S
C1888 C1887 1.389 . S
C1888 C1889 1.387 . S
C1889 H1874 0.930 . S
C1889 C1884 1.390 . S
C1889 C1888 1.387 . S
H1890 C1902 0.930 . S
H1891 C1904 0.930 . S
H1892 C1905 0.930 . S
H1893 C1909 0.959 . S
H1894 C1909 0.959 . S
H1895 C1909 0.961 . S
H1896 C1910 0.960 . S
H1897 C1910 0.961 . S
H1898 C1910 0.959 . S
H1899 C1913 0.929 . S
H1900 C1914 0.931 . S
H1901 C1916 0.930 . S
C1902 H1890 0.930 . S
C1902 C1903 1.399 . S
C1902 C1907 1.399 . S
C1903 C1902 1.399 . S
C1903 C1904 1.376 . S
C1904 H1891 0.930 . S
C1904 C1903 1.376 . S
C1904 C1905 1.388 . S
C1905 H1892 0.930 . S
C1905 C1904 1.388 . S
C1905 C1906 1.390 . S
C1906 C1905 1.390 . S
C1906 C1907 1.394 . S
C1906 C1912 1.465 . S
C1907 C1902 1.399 . S
C1907 C1906 1.394 . S
C1907 C1908 1.516 . S
C1908 C1907 1.516 . S
C1908 C1909 1.502 . S
C1908 C1910 1.561 . S
C1908 C1911 1.526 . S
C1909 H1893 0.959 . S
C1909 H1894 0.959 . S
C1909 H1895 0.961 . S
C1909 C1908 1.502 . S
C1910 H1896 0.960 . S
C1910 H1897 0.961 . S
C1910 H1898 0.959 . S
C1910 C1908 1.561 . S
C1911 C1908 1.526 . S
C1911 C1912 1.396 . S
C1911 C1916 1.390 . S
C1912 C1906 1.465 . S
C1912 C1911 1.396 . S
C1912 C1913 1.399 . S
C1913 H1899 0.929 . S
C1913 C1912 1.399 . S
C1913 C1914 1.385 . S
C1914 H1900 0.931 . S
C1914 C1913 1.385 . S
C1914 C1915 1.389 . S
C1915 C1914 1.389 . S
C1915 C1916 1.387 . S
C1916 H1901 0.930 . S
C1916 C1911 1.390 . S
C1916 C1915 1.387 . S
H1917 C1929 0.930 . S
H1918 C1931 0.930 . S
H1919 C1932 0.930 . S
H1920 C1936 0.959 . S
H1921 C1936 0.959 . S
H1922 C1936 0.961 . S
H1923 C1937 0.960 . S
H1924 C1937 0.961 . S
H1925 C1937 0.959 . S
H1926 C1940 0.929 . S
H1927 C1941 0.931 . S
H1928 C1943 0.930 . S
C1929 H1917 0.930 . S
C1929 C1930 1.399 . S
C1929 C1934 1.399 . S
C1930 C1929 1.399 . S
C1930 C1931 1.376 . S
C1931 H1918 0.930 . S
C1931 C1930 1.376 . S
C1931 C1932 1.388 . S
C1932 H1919 0.930 . S
C1932 C1931 1.388 . S
C1932 C1933 1.390 . S
C1933 C1932 1.390 . S
C1933 C1934 1.394 . S
C1933 C1939 1.465 . S
C1934 C1929 1.399 . S
C1934 C1933 1.394 . S
C1934 C1935 1.516 . S
C1935 C1934 1.516 . S
C1935 C1936 1.502 . S
C1935 C1937 1.561 . S
C1935 C1938 1.526 . S
C1936 H1920 0.959 . S
C1936 H1921 0.959 . S
C1936 H1922 0.961 . S
C1936 C1935 1.502 . S
C1937 H1923 0.960 . S
C1937 H1924 0.961 . S
C1937 H1925 0.959 . S
C1937 C1935 1.561 . S
C1938 C1935 1.526 . S
C1938 C1939 1.396 . S
C1938 C1943 1.390 . S
C1939 C1933 1.465 . S
C1939 C1938 1.396 . S
C1939 C1940 1.399 . S
C1940 H1926 0.929 . S
C1940 C1939 1.399 . S
C1940 C1941 1.385 . S
C1941 H1927 0.931 . S
C1941 C1940 1.385 . S
C1941 C1942 1.389 . S
C1942 C1941 1.389 . S
C1942 C1943 1.387 . S
C1943 H1928 0.930 . S
C1943 C1938 1.390 . S
C1943 C1942 1.387 . S
H1944 C1956 0.930 . S
H1945 C1958 0.930 . S
H1946 C1959 0.930 . S
H1947 C1963 0.959 . S
H1948 C1963 0.959 . S
H1949 C1963 0.961 . S
H1950 C1964 0.960 . S
H1951 C1964 0.961 . S
H1952 C1964 0.959 . S
H1953 C1967 0.929 . S
H1954 C1968 0.931 . S
H1955 C1970 0.930 . S
C1956 H1944 0.930 . S
C1956 C1957 1.399 . S
C1956 C1961 1.399 . S
C1957 C1956 1.399 . S
C1957 C1958 1.376 . S
C1958 H1945 0.930 . S
C1958 C1957 1.376 . S
C1958 C1959 1.388 . S
C1959 H1946 0.930 . S
C1959 C1958 1.388 . S
C1959 C1960 1.390 . S
C1960 C1959 1.390 . S
C1960 C1961 1.394 . S
C1960 C1966 1.465 . S
C1961 C1956 1.399 . S
C1961 C1960 1.394 . S
C1961 C1962 1.516 . S
C1962 C1961 1.516 . S
C1962 C1963 1.502 . S
C1962 C1964 1.561 . S
C1962 C1965 1.526 . S
C1963 H1947 0.959 . S
C1963 H1948 0.959 . S
C1963 H1949 0.961 . S
C1963 C1962 1.502 . S
C1964 H1950 0.960 . S
C1964 H1951 0.961 . S
C1964 H1952 0.959 . S
C1964 C1962 1.561 . S
C1965 C1962 1.526 . S
C1965 C1966 1.396 . S
C1965 C1970 1.390 . S
C1966 C1960 1.465 . S
C1966 C1965 1.396 . S
C1966 C1967 1.399 . S
C1967 H1953 0.929 . S
C1967 C1966 1.399 . S
C1967 C1968 1.385 . S
C1968 H1954 0.931 . S
C1968 C1967 1.385 . S
C1968 C1969 1.389 . S
C1969 C1968 1.389 . S
C1969 C1970 1.387 . S
C1970 H1955 0.930 . S
C1970 C1965 1.390 . S
C1970 C1969 1.387 . S
H1971 C1983 0.930 . S
H1972 C1985 0.930 . S
H1973 C1986 0.930 . S
H1974 C1990 0.959 . S
H1975 C1990 0.959 . S
H1976 C1990 0.961 . S
H1977 C1991 0.960 . S
H1978 C1991 0.961 . S
H1979 C1991 0.959 . S
H1980 C1994 0.929 . S
H1981 C1995 0.931 . S
H1982 C1997 0.930 . S
C1983 H1971 0.930 . S
C1983 C1984 1.399 . S
C1983 C1988 1.399 . S
C1984 C1983 1.399 . S
C1984 C1985 1.376 . S
C1985 H1972 0.930 . S
C1985 C1984 1.376 . S
C1985 C1986 1.388 . S
C1986 H1973 0.930 . S
C1986 C1985 1.388 . S
C1986 C1987 1.390 . S
C1987 C1986 1.390 . S
C1987 C1988 1.394 . S
C1987 C1993 1.465 . S
C1988 C1983 1.399 . S
C1988 C1987 1.394 . S
C1988 C1989 1.516 . S
C1989 C1988 1.516 . S
C1989 C1990 1.502 . S
C1989 C1991 1.561 . S
C1989 C1992 1.526 . S
C1990 H1974 0.959 . S
C1990 H1975 0.959 . S
C1990 H1976 0.961 . S
C1990 C1989 1.502 . S
C1991 H1977 0.960 . S
C1991 H1978 0.961 . S
C1991 H1979 0.959 . S
C1991 C1989 1.561 . S
C1992 C1989 1.526 . S
C1992 C1993 1.396 . S
C1992 C1997 1.390 . S
C1993 C1987 1.465 . S
C1993 C1992 1.396 . S
C1993 C1994 1.399 . S
C1994 H1980 0.929 . S
C1994 C1993 1.399 . S
C1994 C1995 1.385 . S
C1995 H1981 0.931 . S
C1995 C1994 1.385 . S
C1995 C1996 1.389 . S
C1996 C1995 1.389 . S
C1996 C1997 1.387 . S
C1997 H1982 0.930 . S
C1997 C1992 1.390 . S
C1997 C1996 1.387 . S
H1998 C2010 0.930 . S
H1999 C2012 0.930 . S
H2000 C2013 0.930 . S
H2001 C2017 0.959 . S
H2002 C2017 0.959 . S
H2003 C2017 0.961 . S
H2004 C2018 0.960 . S
H2005 C2018 0.961 . S
H2006 C2018 0.959 . S
H2007 C2021 0.929 . S
H2008 C2022 0.931 . S
H2009 C2024 0.930 . S
C2010 H1998 0.930 . S
C2010 C2011 1.399 . S
C2010 C2015 1.399 . S
C2011 C2010 1.399 . S
C2011 C2012 1.376 . S
C2012 H1999 0.930 . S
C2012 C2011 1.376 . S
C2012 C2013 1.388 . S
C2013 H2000 0.930 . S
C2013 C2012 1.388 . S
C2013 C2014 1.390 . S
C2014 C2013 1.390 . S
C2014 C2015 1.394 . S
C2014 C2020 1.465 . S
C2015 C2010 1.399 . S
C2015 C2014 1.394 . S
C2015 C2016 1.516 . S
C2016 C2015 1.516 . S
C2016 C2017 1.502 . S
C2016 C2018 1.561 . S
C2016 C2019 1.526 . S
C2017 H2001 0.959 . S
C2017 H2002 0.959 . S
C2017 H2003 0.961 . S
C2017 C2016 1.502 . S
C2018 H2004 0.960 . S
C2018 H2005 0.961 . S
C2018 H2006 0.959 . S
C2018 C2016 1.561 . S
C2019 C2016 1.526 . S
C2019 C2020 1.396 . S
C2019 C2024 1.390 . S
C2020 C2014 1.465 . S
C2020 C2019 1.396 . S
C2020 C2021 1.399 . S
C2021 H2007 0.929 . S
C2021 C2020 1.399 . S
C2021 C2022 1.385 . S
C2022 H2008 0.931 . S
C2022 C2021 1.385 . S
C2022 C2023 1.389 . S
C2023 C2022 1.389 . S
C2023 C2024 1.387 . S
C2024 H2009 0.930 . S
C2024 C2019 1.390 . S
C2024 C2023 1.387 . S
H2025 C2037 0.930 . S
H2026 C2039 0.930 1_545 S
H2027 C2040 0.930 . S
H2028 C2044 0.959 . S
H2029 C2044 0.959 . S
H2030 C2044 0.961 . S
H2031 C2045 0.960 . S
H2032 C2045 0.961 . S
H2033 C2045 0.959 . S
H2034 C2048 0.929 . S
H2035 C2049 0.931 . S
H2036 C2051 0.930 . S
C2037 H2025 0.930 . S
C2037 C2038 1.399 . S
C2037 C2042 1.399 1_545 S
C2038 C2037 1.399 . S
C2038 C2039 1.376 1_545 S
C2039 H2026 0.930 1_565 S
C2039 C2038 1.376 1_565 S
C2039 C2040 1.388 . S
C2040 H2027 0.930 . S
C2040 C2039 1.388 . S
C2040 C2041 1.390 . S
C2041 C2040 1.390 . S
C2041 C2042 1.394 . S
C2041 C2047 1.465 . S
C2042 C2037 1.399 1_565 S
C2042 C2041 1.394 . S
C2042 C2043 1.516 . S
C2043 C2042 1.516 . S
C2043 C2044 1.502 . S
C2043 C2045 1.561 . S
C2043 C2046 1.526 . S
C2044 H2028 0.959 . S
C2044 H2029 0.959 . S
C2044 H2030 0.961 . S
C2044 C2043 1.502 . S
C2045 H2031 0.960 . S
C2045 H2032 0.961 . S
C2045 H2033 0.959 . S
C2045 C2043 1.561 . S
C2046 C2043 1.526 . S
C2046 C2047 1.396 . S
C2046 C2051 1.390 . S
C2047 C2041 1.465 . S
C2047 C2046 1.396 . S
C2047 C2048 1.399 . S
C2048 H2034 0.929 . S
C2048 C2047 1.399 . S
C2048 C2049 1.385 . S
C2049 H2035 0.931 . S
C2049 C2048 1.385 . S
C2049 C2050 1.389 . S
C2050 C2049 1.389 . S
C2050 C2051 1.387 . S
C2051 H2036 0.930 . S
C2051 C2046 1.390 . S
C2051 C2050 1.387 . S
H2052 C2064 0.930 1_655 S
H2053 C2066 0.944 . S
H2054 C2067 0.930 . S
H2055 C2071 0.959 . S
H2056 C2071 0.959 . S
H2057 C2071 0.961 . S
H2058 C2072 0.960 . S
H2059 C2072 0.961 . S
H2060 C2072 0.959 . S
H2061 C2075 0.929 . S
H2062 C2076 0.931 . S
H2063 C2078 0.930 . S
C2064 H2052 0.930 1_455 S
C2064 C2065 1.399 1_455 S
C2064 C2069 1.399 . S
C2065 C2064 1.399 1_655 S
C2065 C2066 1.376 1_655 S
C2066 H2053 0.944 . S
C2066 C2065 1.376 1_455 S
C2066 C2067 1.388 . S
C2067 H2054 0.930 . S
C2067 C2066 1.388 . S
C2067 C2068 1.390 . S
C2068 C2067 1.390 . S
C2068 C2069 1.394 . S
C2068 C2074 1.465 . S
C2069 C2064 1.399 . S
C2069 C2068 1.394 . S
C2069 C2070 1.516 . S
C2070 C2069 1.516 . S
C2070 C2071 1.502 . S
C2070 C2072 1.561 . S
C2070 C2073 1.526 . S
C2071 H2055 0.959 . S
C2071 H2056 0.959 . S
C2071 H2057 0.961 . S
C2071 C2070 1.502 . S
C2072 H2058 0.960 . S
C2072 H2059 0.961 . S
C2072 H2060 0.959 . S
C2072 C2070 1.561 . S
C2073 C2070 1.526 . S
C2073 C2074 1.396 . S
C2073 C2078 1.390 . S
C2074 C2068 1.465 . S
C2074 C2073 1.396 . S
C2074 C2075 1.399 . S
C2075 H2061 0.929 . S
C2075 C2074 1.399 . S
C2075 C2076 1.385 . S
C2076 H2062 0.931 . S
C2076 C2075 1.385 . S
C2076 C2077 1.389 . S
C2077 C2076 1.389 . S
C2077 C2078 1.387 . S
C2078 H2063 0.930 . S
C2078 C2073 1.390 . S
C2078 C2077 1.387 . S
H2079 C2091 0.930 . S
H2080 C2093 0.930 . S
H2081 C2094 0.930 . S
H2082 C2098 0.959 . S
H2083 C2098 0.959 . S
H2084 C2098 0.961 . S
H2085 C2099 0.960 . S
H2086 C2099 0.961 . S
H2087 C2099 0.959 . S
H2088 C2102 0.929 . S
H2089 C2103 0.931 . S
H2090 C2105 0.930 . S
C2091 H2079 0.930 . S
C2091 C2092 1.399 . S
C2091 C2096 1.399 . S
C2092 C2091 1.399 . S
C2092 C2093 1.376 . S
C2093 H2080 0.930 . S
C2093 C2092 1.376 . S
C2093 C2094 1.388 . S
C2094 H2081 0.930 . S
C2094 C2093 1.388 . S
C2094 C2095 1.390 . S
C2095 C2094 1.390 . S
C2095 C2096 1.394 . S
C2095 C2101 1.465 . S
C2096 C2091 1.399 . S
C2096 C2095 1.394 . S
C2096 C2097 1.516 . S
C2097 C2096 1.516 . S
C2097 C2098 1.502 . S
C2097 C2099 1.561 . S
C2097 C2100 1.526 . S
C2098 H2082 0.959 . S
C2098 H2083 0.959 . S
C2098 H2084 0.961 . S
C2098 C2097 1.502 . S
C2099 H2085 0.960 . S
C2099 H2086 0.961 . S
C2099 H2087 0.959 . S
C2099 C2097 1.561 . S
C2100 C2097 1.526 . S
C2100 C2101 1.396 . S
C2100 C2105 1.390 . S
C2101 C2095 1.465 . S
C2101 C2100 1.396 . S
C2101 C2102 1.399 . S
C2102 H2088 0.929 . S
C2102 C2101 1.399 . S
C2102 C2103 1.385 . S
C2103 H2089 0.931 . S
C2103 C2102 1.385 . S
C2103 C2104 1.389 . S
C2104 C2103 1.389 . S
C2104 C2105 1.387 . S
C2105 H2090 0.930 . S
C2105 C2100 1.390 . S
C2105 C2104 1.387 . S
H2106 C2118 0.930 . S
H2107 C2120 0.930 . S
H2108 C2121 0.930 . S
H2109 C2125 0.959 . S
H2110 C2125 0.959 . S
H2111 C2125 0.961 . S
H2112 C2126 0.960 . S
H2113 C2126 0.961 . S
H2114 C2126 0.959 . S
H2115 C2129 0.929 . S
H2116 C2130 0.931 . S
H2117 C2132 0.930 . S
C2118 H2106 0.930 . S
C2118 C2119 1.399 . S
C2118 C2123 1.399 . S
C2119 C2118 1.399 . S
C2119 C2120 1.376 . S
C2120 H2107 0.930 . S
C2120 C2119 1.376 . S
C2120 C2121 1.388 . S
C2121 H2108 0.930 . S
C2121 C2120 1.388 . S
C2121 C2122 1.390 . S
C2122 C2121 1.390 . S
C2122 C2123 1.394 . S
C2122 C2128 1.465 . S
C2123 C2118 1.399 . S
C2123 C2122 1.394 . S
C2123 C2124 1.516 . S
C2124 C2123 1.516 . S
C2124 C2125 1.502 . S
C2124 C2126 1.561 . S
C2124 C2127 1.526 . S
C2125 H2109 0.959 . S
C2125 H2110 0.959 . S
C2125 H2111 0.961 . S
C2125 C2124 1.502 . S
C2126 H2112 0.960 . S
C2126 H2113 0.961 . S
C2126 H2114 0.959 . S
C2126 C2124 1.561 . S
C2127 C2124 1.526 . S
C2127 C2128 1.396 . S
C2127 C2132 1.390 . S
C2128 C2122 1.465 . S
C2128 C2127 1.396 . S
C2128 C2129 1.399 . S
C2129 H2115 0.929 . S
C2129 C2128 1.399 . S
C2129 C2130 1.385 . S
C2130 H2116 0.931 . S
C2130 C2129 1.385 . S
C2130 C2131 1.389 . S
C2131 C2130 1.389 . S
C2131 C2132 1.387 . S
C2132 H2117 0.930 . S
C2132 C2127 1.390 . S
C2132 C2131 1.387 . S
H2133 C2145 0.930 . S
H2134 C2147 0.930 . S
H2135 C2148 0.930 . S
H2136 C2152 0.959 . S
H2137 C2152 0.959 . S
H2138 C2152 0.961 . S
H2139 C2153 0.960 . S
H2140 C2153 0.961 . S
H2141 C2153 0.959 . S
H2142 C2156 0.929 . S
H2143 C2157 0.931 . S
H2144 C2159 0.930 . S
C2145 H2133 0.930 . S
C2145 C2146 1.399 . S
C2145 C2150 1.399 . S
C2146 C2145 1.399 . S
C2146 C2147 1.376 . S
C2147 H2134 0.930 . S
C2147 C2146 1.376 . S
C2147 C2148 1.388 . S
C2148 H2135 0.930 . S
C2148 C2147 1.388 . S
C2148 C2149 1.390 . S
C2149 C2148 1.390 . S
C2149 C2150 1.394 . S
C2149 C2155 1.465 . S
C2150 C2145 1.399 . S
C2150 C2149 1.394 . S
C2150 C2151 1.516 . S
C2151 C2150 1.516 . S
C2151 C2152 1.502 . S
C2151 C2153 1.561 . S
C2151 C2154 1.526 . S
C2152 H2136 0.959 . S
C2152 H2137 0.959 . S
C2152 H2138 0.961 . S
C2152 C2151 1.502 . S
C2153 H2139 0.960 . S
C2153 H2140 0.961 . S
C2153 H2141 0.959 . S
C2153 C2151 1.561 . S
C2154 C2151 1.526 . S
C2154 C2155 1.396 . S
C2154 C2159 1.390 . S
C2155 C2149 1.465 . S
C2155 C2154 1.396 . S
C2155 C2156 1.399 . S
C2156 H2142 0.929 . S
C2156 C2155 1.399 . S
C2156 C2157 1.385 . S
C2157 H2143 0.931 . S
C2157 C2156 1.385 . S
C2157 C2158 1.389 . S
C2158 C2157 1.389 . S
C2158 C2159 1.387 . S
C2159 H2144 0.930 . S
C2159 C2154 1.390 . S
C2159 C2158 1.387 . S
H2160 C2172 0.930 . S
H2161 C2174 0.930 . S
H2162 C2175 0.930 . S
H2163 C2179 0.959 . S
H2164 C2179 0.959 . S
H2165 C2179 0.961 . S
H2166 C2180 0.960 . S
H2167 C2180 0.961 . S
H2168 C2180 0.959 . S
H2169 C2183 0.929 . S
H2170 C2184 0.931 . S
H2171 C2186 0.930 . S
C2172 H2160 0.930 . S
C2172 C2173 1.399 . S
C2172 C2177 1.399 . S
C2173 C2172 1.399 . S
C2173 C2174 1.376 . S
C2174 H2161 0.930 . S
C2174 C2173 1.376 . S
C2174 C2175 1.388 . S
C2175 H2162 0.930 . S
C2175 C2174 1.388 . S
C2175 C2176 1.390 . S
C2176 C2175 1.390 . S
C2176 C2177 1.394 . S
C2176 C2182 1.465 . S
C2177 C2172 1.399 . S
C2177 C2176 1.394 . S
C2177 C2178 1.516 . S
C2178 C2177 1.516 . S
C2178 C2179 1.502 . S
C2178 C2180 1.561 . S
C2178 C2181 1.526 . S
C2179 H2163 0.959 . S
C2179 H2164 0.959 . S
C2179 H2165 0.961 . S
C2179 C2178 1.502 . S
C2180 H2166 0.960 . S
C2180 H2167 0.961 . S
C2180 H2168 0.959 . S
C2180 C2178 1.561 . S
C2181 C2178 1.526 . S
C2181 C2182 1.396 . S
C2181 C2186 1.390 . S
C2182 C2176 1.465 . S
C2182 C2181 1.396 . S
C2182 C2183 1.399 . S
C2183 H2169 0.929 . S
C2183 C2182 1.399 . S
C2183 C2184 1.385 . S
C2184 H2170 0.931 . S
C2184 C2183 1.385 . S
C2184 C2185 1.389 . S
C2185 C2184 1.389 . S
C2185 C2186 1.387 . S
C2186 H2171 0.930 . S
C2186 C2181 1.390 . S
C2186 C2185 1.387 . S
H2187 C2199 0.930 . S
H2188 C2201 0.930 1_565 S
H2189 C2202 0.930 . S
H2190 C2206 0.959 . S
H2191 C2206 0.959 . S
H2192 C2206 0.961 . S
H2193 C2207 0.960 . S
H2194 C2207 0.961 . S
H2195 C2207 0.959 . S
H2196 C2210 0.929 . S
H2197 C2211 0.931 . S
H2198 C2213 0.930 . S
C2199 H2187 0.930 . S
C2199 C2200 1.399 . S
C2199 C2204 1.399 1_565 S
C2200 C2199 1.399 . S
C2200 C2201 1.376 1_565 S
C2201 H2188 0.930 1_545 S
C2201 C2200 1.376 1_545 S
C2201 C2202 1.388 . S
C2202 H2189 0.930 . S
C2202 C2201 1.388 . S
C2202 C2203 1.390 . S
C2203 C2202 1.390 . S
C2203 C2204 1.394 . S
C2203 C2209 1.465 . S
C2204 C2199 1.399 1_545 S
C2204 C2203 1.394 . S
C2204 C2205 1.516 . S
C2205 C2204 1.516 . S
C2205 C2206 1.502 . S
C2205 C2207 1.561 . S
C2205 C2208 1.526 . S
C2206 H2190 0.959 . S
C2206 H2191 0.959 . S
C2206 H2192 0.961 . S
C2206 C2205 1.502 . S
C2207 H2193 0.960 . S
C2207 H2194 0.961 . S
C2207 H2195 0.959 . S
C2207 C2205 1.561 . S
C2208 C2205 1.526 . S
C2208 C2209 1.396 . S
C2208 C2213 1.390 . S
C2209 C2203 1.465 . S
C2209 C2208 1.396 . S
C2209 C2210 1.399 . S
C2210 H2196 0.929 . S
C2210 C2209 1.399 . S
C2210 C2211 1.385 . S
C2211 H2197 0.931 . S
C2211 C2210 1.385 . S
C2211 C2212 1.389 . S
C2212 C2211 1.389 . S
C2212 C2213 1.387 . S
C2213 H2198 0.930 . S
C2213 C2208 1.390 . S
C2213 C2212 1.387 . S
H2214 C2226 0.930 . S
H2215 C2228 0.930 . S
H2216 C2229 0.930 . S
H2217 C2233 0.959 . S
H2218 C2233 0.959 . S
H2219 C2233 0.961 . S
H2220 C2234 0.960 . S
H2221 C2234 0.961 . S
H2222 C2234 0.959 . S
H2223 C2237 0.929 . S
H2224 C2238 0.931 . S
H2225 C2240 0.930 . S
C2226 H2214 0.930 . S
C2226 C2227 1.399 1_655 S
C2226 C2231 1.399 . S
C2227 C2226 1.399 1_455 S
C2227 C2228 1.376 . S
C2228 H2215 0.930 . S
C2228 C2227 1.376 . S
C2228 C2229 1.388 1_455 S
C2229 H2216 0.930 . S
C2229 C2228 1.388 1_655 S
C2229 C2230 1.390 . S
C2230 C2229 1.390 . S
C2230 C2231 1.394 . S
C2230 C2236 1.465 . S
C2231 C2226 1.399 . S
C2231 C2230 1.394 . S
C2231 C2232 1.516 . S
C2232 C2231 1.516 . S
C2232 C2233 1.502 . S
C2232 C2234 1.561 . S
C2232 C2235 1.526 . S
C2233 H2217 0.959 . S
C2233 H2218 0.959 . S
C2233 H2219 0.961 . S
C2233 C2232 1.502 . S
C2234 H2220 0.960 . S
C2234 H2221 0.961 . S
C2234 H2222 0.959 . S
C2234 C2232 1.561 . S
C2235 C2232 1.526 . S
C2235 C2236 1.396 . S
C2235 C2240 1.390 . S
C2236 C2230 1.465 . S
C2236 C2235 1.396 . S
C2236 C2237 1.399 . S
C2237 H2223 0.929 . S
C2237 C2236 1.399 . S
C2237 C2238 1.385 . S
C2238 H2224 0.931 . S
C2238 C2237 1.385 . S
C2238 C2239 1.389 . S
C2239 C2238 1.389 . S
C2239 C2240 1.387 . S
C2240 H2225 0.930 . S
C2240 C2235 1.390 . S
C2240 C2239 1.387 . S
H2241 C2253 0.930 . S
H2242 C2255 0.930 . S
H2243 C2256 0.930 . S
H2244 C2260 0.959 . S
H2245 C2260 0.959 . S
H2246 C2260 0.961 . S
H2247 C2261 0.960 . S
H2248 C2261 0.961 . S
H2249 C2261 0.959 . S
H2250 C2264 0.929 . S
H2251 C2265 0.931 . S
H2252 C2267 0.930 . S
C2253 H2241 0.930 . S
C2253 C2254 1.399 . S
C2253 C2258 1.399 . S
C2254 C2253 1.399 . S
C2254 C2255 1.376 . S
C2255 H2242 0.930 . S
C2255 C2254 1.376 . S
C2255 C2256 1.388 . S
C2256 H2243 0.930 . S
C2256 C2255 1.388 . S
C2256 C2257 1.390 . S
C2257 C2256 1.390 . S
C2257 C2258 1.394 . S
C2257 C2263 1.465 . S
C2258 C2253 1.399 . S
C2258 C2257 1.394 . S
C2258 C2259 1.516 . S
C2259 C2258 1.516 . S
C2259 C2260 1.502 . S
C2259 C2261 1.561 . S
C2259 C2262 1.526 . S
C2260 H2244 0.959 . S
C2260 H2245 0.959 . S
C2260 H2246 0.961 . S
C2260 C2259 1.502 . S
C2261 H2247 0.960 . S
C2261 H2248 0.961 . S
C2261 H2249 0.959 . S
C2261 C2259 1.561 . S
C2262 C2259 1.526 . S
C2262 C2263 1.396 . S
C2262 C2267 1.390 . S
C2263 C2257 1.465 . S
C2263 C2262 1.396 . S
C2263 C2264 1.399 . S
C2264 H2250 0.929 . S
C2264 C2263 1.399 . S
C2264 C2265 1.385 . S
C2265 H2251 0.931 . S
C2265 C2264 1.385 . S
C2265 C2266 1.389 . S
C2266 C2265 1.389 . S
C2266 C2267 1.387 . S
C2267 H2252 0.930 . S
C2267 C2262 1.390 . S
C2267 C2266 1.387 . S
H2268 C2280 0.930 . S
H2269 C2282 0.930 . S
H2270 C2283 0.930 . S
H2271 C2287 0.959 . S
H2272 C2287 0.959 . S
H2273 C2287 0.961 . S
H2274 C2288 0.960 . S
H2275 C2288 0.961 . S
H2276 C2288 0.959 . S
H2277 C2291 0.929 . S
H2278 C2292 0.931 . S
H2279 C2294 0.930 . S
C2280 H2268 0.930 . S
C2280 C2281 1.399 1_655 S
C2280 C2285 1.399 . S
C2281 C2280 1.399 1_455 S
C2281 C2282 1.376 . S
C2282 H2269 0.930 . S
C2282 C2281 1.376 . S
C2282 C2283 1.388 1_455 S
C2283 H2270 0.930 . S
C2283 C2282 1.388 1_655 S
C2283 C2284 1.390 . S
C2284 C2283 1.390 . S
C2284 C2285 1.394 . S
C2284 C2290 1.465 . S
C2285 C2280 1.399 . S
C2285 C2284 1.394 . S
C2285 C2286 1.516 . S
C2286 C2285 1.516 . S
C2286 C2287 1.502 . S
C2286 C2288 1.561 . S
C2286 C2289 1.526 . S
C2287 H2271 0.959 . S
C2287 H2272 0.959 . S
C2287 H2273 0.961 . S
C2287 C2286 1.502 . S
C2288 H2274 0.960 . S
C2288 H2275 0.961 . S
C2288 H2276 0.959 . S
C2288 C2286 1.561 . S
C2289 C2286 1.526 . S
C2289 C2290 1.396 . S
C2289 C2294 1.390 . S
C2290 C2284 1.465 . S
C2290 C2289 1.396 . S
C2290 C2291 1.399 . S
C2291 H2277 0.929 . S
C2291 C2290 1.399 . S
C2291 C2292 1.385 . S
C2292 H2278 0.931 . S
C2292 C2291 1.385 . S
C2292 C2293 1.389 . S
C2293 C2292 1.389 . S
C2293 C2294 1.387 . S
C2294 H2279 0.930 . S
C2294 C2289 1.390 . S
C2294 C2293 1.387 . S
H2295 C2307 0.930 . S
H2296 C2309 0.930 . S
H2297 C2310 0.930 . S
H2298 C2314 0.959 . S
H2299 C2314 0.959 . S
H2300 C2314 0.961 . S
H2301 C2315 0.960 . S
H2302 C2315 0.961 . S
H2303 C2315 0.959 . S
H2304 C2318 0.929 . S
H2305 C2319 0.931 . S
H2306 C2321 0.930 . S
C2307 H2295 0.930 . S
C2307 C2308 1.399 . S
C2307 C2312 1.399 . S
C2308 C2307 1.399 . S
C2308 C2309 1.376 . S
C2309 H2296 0.930 . S
C2309 C2308 1.376 . S
C2309 C2310 1.388 . S
C2310 H2297 0.930 . S
C2310 C2309 1.388 . S
C2310 C2311 1.390 . S
C2311 C2310 1.390 . S
C2311 C2312 1.394 . S
C2311 C2317 1.465 . S
C2312 C2307 1.399 . S
C2312 C2311 1.394 . S
C2312 C2313 1.516 . S
C2313 C2312 1.516 . S
C2313 C2314 1.502 . S
C2313 C2315 1.561 . S
C2313 C2316 1.526 . S
C2314 H2298 0.959 . S
C2314 H2299 0.959 . S
C2314 H2300 0.961 . S
C2314 C2313 1.502 . S
C2315 H2301 0.960 . S
C2315 H2302 0.961 . S
C2315 H2303 0.959 . S
C2315 C2313 1.561 . S
C2316 C2313 1.526 . S
C2316 C2317 1.396 . S
C2316 C2321 1.390 . S
C2317 C2311 1.465 . S
C2317 C2316 1.396 . S
C2317 C2318 1.399 . S
C2318 H2304 0.929 . S
C2318 C2317 1.399 . S
C2318 C2319 1.385 . S
C2319 H2305 0.931 . S
C2319 C2318 1.385 . S
C2319 C2320 1.389 . S
C2320 C2319 1.389 . S
C2320 C2321 1.387 . S
C2321 H2306 0.930 . S
C2321 C2316 1.390 . S
C2321 C2320 1.387 . S
H2322 C2334 0.930 . S
H2323 C2336 0.930 1_565 S
H2324 C2337 0.930 . S
H2325 C2341 0.959 . S
H2326 C2341 0.959 . S
H2327 C2341 0.961 . S
H2328 C2342 0.960 . S
H2329 C2342 0.961 . S
H2330 C2342 0.959 . S
H2331 C2345 0.929 . S
H2332 C2346 0.931 . S
H2333 C2348 0.930 . S
C2334 H2322 0.930 . S
C2334 C2335 1.399 . S
C2334 C2339 1.399 1_565 S
C2335 C2334 1.399 . S
C2335 C2336 1.376 1_565 S
C2336 H2323 0.930 1_545 S
C2336 C2335 1.376 1_545 S
C2336 C2337 1.388 . S
C2337 H2324 0.930 . S
C2337 C2336 1.388 . S
C2337 C2338 1.390 . S
C2338 C2337 1.390 . S
C2338 C2339 1.394 . S
C2338 C2344 1.465 . S
C2339 C2334 1.399 1_545 S
C2339 C2338 1.394 . S
C2339 C2340 1.516 . S
C2340 C2339 1.516 . S
C2340 C2341 1.502 . S
C2340 C2342 1.561 . S
C2340 C2343 1.526 . S
C2341 H2325 0.959 . S
C2341 H2326 0.959 . S
C2341 H2327 0.961 . S
C2341 C2340 1.502 . S
C2342 H2328 0.960 . S
C2342 H2329 0.961 . S
C2342 H2330 0.959 . S
C2342 C2340 1.561 . S
C2343 C2340 1.526 . S
C2343 C2344 1.396 . S
C2343 C2348 1.390 . S
C2344 C2338 1.465 . S
C2344 C2343 1.396 . S
C2344 C2345 1.399 . S
C2345 H2331 0.929 . S
C2345 C2344 1.399 . S
C2345 C2346 1.385 . S
C2346 H2332 0.931 . S
C2346 C2345 1.385 . S
C2346 C2347 1.389 . S
C2347 C2346 1.389 . S
C2347 C2348 1.387 . S
C2348 H2333 0.930 . S
C2348 C2343 1.390 . S
C2348 C2347 1.387 . S
H2349 C2361 0.930 . S
H2350 C2363 0.930 . S
H2351 C2364 0.930 . S
H2352 C2368 0.959 . S
H2353 C2368 0.959 . S
H2354 C2368 0.961 . S
H2355 C2369 0.960 . S
H2356 C2369 0.961 . S
H2357 C2369 0.959 . S
H2358 C2372 0.929 . S
H2359 C2373 0.931 . S
H2360 C2375 0.930 . S
C2361 H2349 0.930 . S
C2361 C2362 1.399 . S
C2361 C2366 1.399 . S
C2362 C2361 1.399 . S
C2362 C2363 1.376 . S
C2363 H2350 0.930 . S
C2363 C2362 1.376 . S
C2363 C2364 1.388 . S
C2364 H2351 0.930 . S
C2364 C2363 1.388 . S
C2364 C2365 1.390 . S
C2365 C2364 1.390 . S
C2365 C2366 1.394 . S
C2365 C2371 1.465 . S
C2366 C2361 1.399 . S
C2366 C2365 1.394 . S
C2366 C2367 1.516 . S
C2367 C2366 1.516 . S
C2367 C2368 1.502 . S
C2367 C2369 1.561 . S
C2367 C2370 1.526 . S
C2368 H2352 0.959 . S
C2368 H2353 0.959 . S
C2368 H2354 0.961 . S
C2368 C2367 1.502 . S
C2369 H2355 0.960 . S
C2369 H2356 0.961 . S
C2369 H2357 0.959 . S
C2369 C2367 1.561 . S
C2370 C2367 1.526 . S
C2370 C2371 1.396 . S
C2370 C2375 1.390 . S
C2371 C2365 1.465 . S
C2371 C2370 1.396 . S
C2371 C2372 1.399 . S
C2372 H2358 0.929 . S
C2372 C2371 1.399 . S
C2372 C2373 1.385 . S
C2373 H2359 0.931 . S
C2373 C2372 1.385 . S
C2373 C2374 1.389 . S
C2374 C2373 1.389 . S
C2374 C2375 1.387 . S
C2375 H2360 0.930 . S
C2375 C2370 1.390 . S
C2375 C2374 1.387 . S
H2376 C2388 0.930 . S
H2377 C2390 0.930 . S
H2378 C2391 0.930 . S
H2379 C2395 0.959 . S
H2380 C2395 0.959 . S
H2381 C2395 0.961 . S
H2382 C2396 0.960 . S
H2383 C2396 0.961 . S
H2384 C2396 0.959 . S
H2385 C2399 0.929 . S
H2386 C2400 0.931 . S
H2387 C2402 0.930 . S
C2388 H2376 0.930 . S
C2388 C2389 1.399 . S
C2388 C2393 1.399 . S
C2389 C2388 1.399 . S
C2389 C2390 1.376 . S
C2390 H2377 0.930 . S
C2390 C2389 1.376 . S
C2390 C2391 1.388 . S
C2391 H2378 0.930 . S
C2391 C2390 1.388 . S
C2391 C2392 1.390 . S
C2392 C2391 1.390 . S
C2392 C2393 1.394 . S
C2392 C2398 1.465 . S
C2393 C2388 1.399 . S
C2393 C2392 1.394 . S
C2393 C2394 1.516 . S
C2394 C2393 1.516 . S
C2394 C2395 1.502 . S
C2394 C2396 1.561 . S
C2394 C2397 1.526 . S
C2395 H2379 0.959 . S
C2395 H2380 0.959 . S
C2395 H2381 0.961 . S
C2395 C2394 1.502 . S
C2396 H2382 0.960 . S
C2396 H2383 0.961 . S
C2396 H2384 0.959 . S
C2396 C2394 1.561 . S
C2397 C2394 1.526 . S
C2397 C2398 1.396 . S
C2397 C2402 1.390 . S
C2398 C2392 1.465 . S
C2398 C2397 1.396 . S
C2398 C2399 1.399 . S
C2399 H2385 0.929 . S
C2399 C2398 1.399 . S
C2399 C2400 1.385 . S
C2400 H2386 0.931 . S
C2400 C2399 1.385 . S
C2400 C2401 1.389 . S
C2401 C2400 1.389 . S
C2401 C2402 1.387 . S
C2402 H2387 0.930 . S
C2402 C2397 1.390 . S
C2402 C2401 1.387 . S
H2403 C2415 0.930 . S
H2404 C2417 0.930 . S
H2405 C2418 0.930 . S
H2406 C2422 0.959 . S
H2407 C2422 0.959 . S
H2408 C2422 0.961 . S
H2409 C2423 0.960 . S
H2410 C2423 0.961 . S
H2411 C2423 0.959 . S
H2412 C2426 0.929 . S
H2413 C2427 0.931 . S
H2414 C2429 0.930 . S
C2415 H2403 0.930 . S
C2415 C2416 1.399 . S
C2415 C2420 1.399 . S
C2416 C2415 1.399 . S
C2416 C2417 1.376 . S
C2417 H2404 0.930 . S
C2417 C2416 1.376 . S
C2417 C2418 1.388 . S
C2418 H2405 0.930 . S
C2418 C2417 1.388 . S
C2418 C2419 1.390 . S
C2419 C2418 1.390 . S
C2419 C2420 1.394 . S
C2419 C2425 1.465 . S
C2420 C2415 1.399 . S
C2420 C2419 1.394 . S
C2420 C2421 1.516 . S
C2421 C2420 1.516 . S
C2421 C2422 1.502 . S
C2421 C2423 1.561 . S
C2421 C2424 1.526 . S
C2422 H2406 0.959 . S
C2422 H2407 0.959 . S
C2422 H2408 0.961 . S
C2422 C2421 1.502 . S
C2423 H2409 0.960 . S
C2423 H2410 0.961 . S
C2423 H2411 0.959 . S
C2423 C2421 1.561 . S
C2424 C2421 1.526 . S
C2424 C2425 1.396 . S
C2424 C2429 1.390 . S
C2425 C2419 1.465 . S
C2425 C2424 1.396 . S
C2425 C2426 1.399 . S
C2426 H2412 0.929 . S
C2426 C2425 1.399 . S
C2426 C2427 1.385 . S
C2427 H2413 0.931 . S
C2427 C2426 1.385 . S
C2427 C2428 1.389 . S
C2428 C2427 1.389 . S
C2428 C2429 1.387 . S
C2429 H2414 0.930 . S
C2429 C2424 1.390 . S
C2429 C2428 1.387 . S
H2430 C2442 0.930 . S
H2431 C2444 0.930 . S
H2432 C2445 0.930 . S
H2433 C2449 0.959 . S
H2434 C2449 0.959 . S
H2435 C2449 0.961 . S
H2436 C2450 0.960 . S
H2437 C2450 0.961 . S
H2438 C2450 0.959 . S
H2439 C2453 0.929 . S
H2440 C2454 0.931 . S
H2441 C2456 0.930 . S
C2442 H2430 0.930 . S
C2442 C2443 1.399 . S
C2442 C2447 1.399 . S
C2443 C2442 1.399 . S
C2443 C2444 1.376 . S
C2444 H2431 0.930 . S
C2444 C2443 1.376 . S
C2444 C2445 1.388 . S
C2445 H2432 0.930 . S
C2445 C2444 1.388 . S
C2445 C2446 1.390 . S
C2446 C2445 1.390 . S
C2446 C2447 1.394 . S
C2446 C2452 1.465 . S
C2447 C2442 1.399 . S
C2447 C2446 1.394 . S
C2447 C2448 1.516 . S
C2448 C2447 1.516 . S
C2448 C2449 1.502 . S
C2448 C2450 1.561 1_565 S
C2448 C2451 1.526 . S
C2449 H2433 0.959 . S
C2449 H2434 0.959 . S
C2449 H2435 0.961 . S
C2449 C2448 1.502 . S
C2450 H2436 0.960 . S
C2450 H2437 0.961 . S
C2450 H2438 0.959 . S
C2450 C2448 1.561 1_545 S
C2451 C2448 1.526 . S
C2451 C2452 1.396 . S
C2451 C2456 1.390 . S
C2452 C2446 1.465 . S
C2452 C2451 1.396 . S
C2452 C2453 1.399 . S
C2453 H2439 0.929 . S
C2453 C2452 1.399 . S
C2453 C2454 1.385 . S
C2454 H2440 0.931 . S
C2454 C2453 1.385 . S
C2454 C2455 1.389 . S
C2455 C2454 1.389 . S
C2455 C2456 1.387 . S
C2456 H2441 0.930 . S
C2456 C2451 1.390 . S
C2456 C2455 1.387 . S
H2457 C2469 0.930 . S
H2458 C2471 0.930 . S
H2459 C2472 0.930 . S
H2460 C2476 0.959 . S
H2461 C2476 0.959 . S
H2462 C2476 0.961 . S
H2463 C2477 0.960 . S
H2464 C2477 0.961 . S
H2465 C2477 0.959 . S
H2466 C2480 0.929 . S
H2467 C2481 0.931 . S
H2468 C2483 0.930 . S
C2469 H2457 0.930 . S
C2469 C2470 1.399 . S
C2469 C2474 1.399 . S
C2470 C2469 1.399 . S
C2470 C2471 1.376 . S
C2471 H2458 0.930 . S
C2471 C2470 1.376 . S
C2471 C2472 1.388 . S
C2472 H2459 0.930 . S
C2472 C2471 1.388 . S
C2472 C2473 1.390 . S
C2473 C2472 1.390 . S
C2473 C2474 1.394 . S
C2473 C2479 1.465 . S
C2474 C2469 1.399 . S
C2474 C2473 1.394 . S
C2474 C2475 1.516 . S
C2475 C2474 1.516 . S
C2475 C2476 1.502 . S
C2475 C2477 1.561 . S
C2475 C2478 1.526 . S
C2476 H2460 0.959 . S
C2476 H2461 0.959 . S
C2476 H2462 0.961 . S
C2476 C2475 1.502 . S
C2477 H2463 0.960 . S
C2477 H2464 0.961 . S
C2477 H2465 0.959 . S
C2477 C2475 1.561 . S
C2478 C2475 1.526 . S
C2478 C2479 1.396 . S
C2478 C2483 1.390 . S
C2479 C2473 1.465 . S
C2479 C2478 1.396 . S
C2479 C2480 1.399 . S
C2480 H2466 0.929 . S
C2480 C2479 1.399 . S
C2480 C2481 1.385 . S
C2481 H2467 0.931 . S
C2481 C2480 1.385 . S
C2481 C2482 1.389 . S
C2482 C2481 1.389 . S
C2482 C2483 1.387 . S
C2483 H2468 0.930 . S
C2483 C2478 1.390 . S
C2483 C2482 1.387 . S
H2484 C2496 0.930 . S
H2485 C2498 0.930 . S
H2486 C2499 0.930 . S
H2487 C2503 0.959 . S
H2488 C2503 0.959 . S
H2489 C2503 0.961 . S
H2490 C2504 0.960 . S
H2491 C2504 0.961 . S
H2492 C2504 0.959 . S
H2493 C2507 0.929 . S
H2494 C2508 0.931 . S
H2495 C2510 0.930 . S
C2496 H2484 0.930 . S
C2496 C2497 1.399 . S
C2496 C2501 1.399 . S
C2497 C2496 1.399 . S
C2497 C2498 1.376 . S
C2498 H2485 0.930 . S
C2498 C2497 1.376 . S
C2498 C2499 1.388 . S
C2499 H2486 0.930 . S
C2499 C2498 1.388 . S
C2499 C2500 1.390 . S
C2500 C2499 1.390 . S
C2500 C2501 1.394 . S
C2500 C2506 1.465 . S
C2501 C2496 1.399 . S
C2501 C2500 1.394 . S
C2501 C2502 1.516 . S
C2502 C2501 1.516 . S
C2502 C2503 1.502 . S
C2502 C2504 1.561 . S
C2502 C2505 1.526 . S
C2503 H2487 0.959 . S
C2503 H2488 0.959 . S
C2503 H2489 0.961 . S
C2503 C2502 1.502 . S
C2504 H2490 0.960 . S
C2504 H2491 0.961 . S
C2504 H2492 0.959 . S
C2504 C2502 1.561 . S
C2505 C2502 1.526 . S
C2505 C2506 1.396 . S
C2505 C2510 1.390 . S
C2506 C2500 1.465 . S
C2506 C2505 1.396 . S
C2506 C2507 1.399 . S
C2507 H2493 0.929 . S
C2507 C2506 1.399 . S
C2507 C2508 1.385 . S
C2508 H2494 0.931 . S
C2508 C2507 1.385 . S
C2508 C2509 1.389 . S
C2509 C2508 1.389 . S
C2509 C2510 1.387 . S
C2510 H2495 0.930 . S
C2510 C2505 1.390 . S
C2510 C2509 1.387 . S
H2511 C2523 0.930 . S
H2512 C2525 0.930 . S
H2513 C2526 0.930 . S
H2514 C2530 0.959 . S
H2515 C2530 0.959 . S
H2516 C2530 0.961 . S
H2517 C2531 0.960 . S
H2518 C2531 0.961 . S
H2519 C2531 0.959 . S
H2520 C2534 0.929 1_455 S
H2521 C2535 0.931 1_455 S
H2522 C2537 0.930 . S
C2523 H2511 0.930 . S
C2523 C2524 1.399 . S
C2523 C2528 1.399 . S
C2524 C2523 1.399 . S
C2524 C2525 1.376 . S
C2525 H2512 0.930 . S
C2525 C2524 1.376 . S
C2525 C2526 1.388 . S
C2526 H2513 0.930 . S
C2526 C2525 1.388 . S
C2526 C2527 1.390 . S
C2527 C2526 1.390 . S
C2527 C2528 1.394 . S
C2527 C2533 1.465 . S
C2528 C2523 1.399 . S
C2528 C2527 1.394 . S
C2528 C2529 1.516 . S
C2529 C2528 1.516 . S
C2529 C2530 1.502 . S
C2529 C2531 1.561 . S
C2529 C2532 1.526 . S
C2530 H2514 0.959 . S
C2530 H2515 0.959 . S
C2530 H2516 0.961 . S
C2530 C2529 1.502 . S
C2531 H2517 0.960 . S
C2531 H2518 0.961 . S
C2531 H2519 0.959 . S
C2531 C2529 1.561 . S
C2532 C2529 1.526 . S
C2532 C2533 1.396 . S
C2532 C2537 1.390 . S
C2533 C2527 1.465 . S
C2533 C2532 1.396 . S
C2533 C2534 1.399 . S
C2534 H2520 0.929 1_655 S
C2534 C2533 1.399 . S
C2534 C2535 1.385 . S
C2535 H2521 0.931 1_655 S
C2535 C2534 1.385 . S
C2535 C2536 1.389 . S
C2536 C2535 1.389 . S
C2536 C2537 1.387 . S
C2537 H2522 0.930 . S
C2537 C2532 1.390 . S
C2537 C2536 1.387 . S
H2538 C2550 0.930 . S
H2539 C2552 0.930 . S
H2540 C2553 0.930 . S
H2541 C2557 0.959 . S
H2542 C2557 0.959 . S
H2543 C2557 0.961 . S
H2544 C2558 0.960 . S
H2545 C2558 0.961 . S
H2546 C2558 0.959 . S
H2547 C2561 0.929 . S
H2548 C2562 0.931 . S
H2549 C2564 0.930 . S
C2550 H2538 0.930 . S
C2550 C2551 1.399 . S
C2550 C2555 1.399 . S
C2551 C2550 1.399 . S
C2551 C2552 1.376 . S
C2552 H2539 0.930 . S
C2552 C2551 1.376 . S
C2552 C2553 1.388 . S
C2553 H2540 0.930 . S
C2553 C2552 1.388 . S
C2553 C2554 1.390 . S
C2554 C2553 1.390 . S
C2554 C2555 1.394 . S
C2554 C2560 1.465 . S
C2555 C2550 1.399 . S
C2555 C2554 1.394 . S
C2555 C2556 1.516 . S
C2556 C2555 1.516 . S
C2556 C2557 1.502 . S
C2556 C2558 1.561 . S
C2556 C2559 1.526 . S
C2557 H2541 0.959 . S
C2557 H2542 0.959 . S
C2557 H2543 0.961 . S
C2557 C2556 1.502 . S
C2558 H2544 0.960 . S
C2558 H2545 0.961 . S
C2558 H2546 0.959 . S
C2558 C2556 1.561 . S
C2559 C2556 1.526 . S
C2559 C2560 1.396 . S
C2559 C2564 1.390 . S
C2560 C2554 1.465 . S
C2560 C2559 1.396 . S
C2560 C2561 1.399 . S
C2561 H2547 0.929 . S
C2561 C2560 1.399 . S
C2561 C2562 1.385 . S
C2562 H2548 0.931 . S
C2562 C2561 1.385 . S
C2562 C2563 1.389 . S
C2563 C2562 1.389 . S
C2563 C2564 1.387 . S
C2564 H2549 0.930 . S
C2564 C2559 1.390 . S
C2564 C2563 1.387 . S
H2565 C2577 0.930 . S
H2566 C2579 0.930 . S
H2567 C2580 0.930 . S
H2568 C2584 0.959 . S
H2569 C2584 0.959 1_565 S
H2570 C2584 0.961 1_565 S
H2571 C2585 0.960 1_565 S
H2572 C2585 0.961 1_565 S
H2573 C2585 0.959 . S
H2574 C2588 0.929 . S
H2575 C2589 0.931 . S
H2576 C2591 0.890 1_565 S
C2577 H2565 0.930 . S
C2577 C2578 1.399 . S
C2577 C2582 1.399 . S
C2578 C2577 1.399 . S
C2578 C2579 1.376 . S
C2579 H2566 0.930 . S
C2579 C2578 1.376 . S
C2579 C2580 1.388 . S
C2580 H2567 0.930 . S
C2580 C2579 1.388 . S
C2580 C2581 1.390 . S
C2581 C2580 1.390 . S
C2581 C2582 1.394 . S
C2581 C2587 1.465 . S
C2582 C2577 1.399 . S
C2582 C2581 1.394 . S
C2582 C2583 1.516 . S
C2583 C2582 1.516 . S
C2583 C2584 1.502 . S
C2583 C2585 1.561 . S
C2583 C2586 1.526 . S
C2584 H2568 0.959 . S
C2584 H2569 0.959 1_545 S
C2584 H2570 0.961 1_545 S
C2584 C2583 1.502 . S
C2585 H2571 0.960 1_545 S
C2585 H2572 0.961 1_545 S
C2585 H2573 0.959 . S
C2585 C2583 1.561 . S
C2586 C2583 1.526 . S
C2586 C2587 1.396 . S
C2586 C2591 1.390 . S
C2587 C2581 1.465 . S
C2587 C2586 1.396 . S
C2587 C2588 1.399 . S
C2588 H2574 0.929 . S
C2588 C2587 1.399 . S
C2588 C2589 1.385 . S
C2589 H2575 0.931 . S
C2589 C2588 1.385 . S
C2589 C2590 1.389 . S
C2590 C2589 1.389 . S
C2590 C2591 1.387 . S
C2591 H2576 0.890 1_545 S
C2591 C2586 1.390 . S
C2591 C2590 1.387 . S
H2592 C2604 0.930 . S
H2593 C2606 0.930 . S
H2594 C2607 0.930 . S
H2595 C2611 0.959 . S
H2596 C2611 0.959 . S
H2597 C2611 0.961 . S
H2598 C2612 0.960 . S
H2599 C2612 0.961 . S
H2600 C2612 0.959 . S
H2601 C2615 0.929 . S
H2602 C2616 0.931 . S
H2603 C2618 0.930 . S
C2604 H2592 0.930 . S
C2604 C2605 1.399 . S
C2604 C2609 1.399 . S
C2605 C2604 1.399 . S
C2605 C2606 1.376 . S
C2606 H2593 0.930 . S
C2606 C2605 1.376 . S
C2606 C2607 1.388 . S
C2607 H2594 0.930 . S
C2607 C2606 1.388 . S
C2607 C2608 1.390 . S
C2608 C2607 1.390 . S
C2608 C2609 1.394 . S
C2608 C2614 1.465 . S
C2609 C2604 1.399 . S
C2609 C2608 1.394 . S
C2609 C2610 1.516 . S
C2610 C2609 1.516 . S
C2610 C2611 1.502 . S
C2610 C2612 1.561 . S
C2610 C2613 1.526 . S
C2611 H2595 0.959 . S
C2611 H2596 0.959 . S
C2611 H2597 0.961 . S
C2611 C2610 1.502 . S
C2612 H2598 0.960 . S
C2612 H2599 0.961 . S
C2612 H2600 0.959 . S
C2612 C2610 1.561 . S
C2613 C2610 1.526 . S
C2613 C2614 1.396 . S
C2613 C2618 1.390 . S
C2614 C2608 1.465 . S
C2614 C2613 1.396 . S
C2614 C2615 1.399 . S
C2615 H2601 0.929 . S
C2615 C2614 1.399 . S
C2615 C2616 1.385 . S
C2616 H2602 0.931 . S
C2616 C2615 1.385 . S
C2616 C2617 1.389 . S
C2617 C2616 1.389 . S
C2617 C2618 1.387 . S
C2618 H2603 0.930 . S
C2618 C2613 1.390 . S
C2618 C2617 1.387 . S
H2619 C2631 0.930 . S
H2620 C2633 0.930 . S
H2621 C2634 0.930 . S
H2622 C2638 0.959 . S
H2623 C2638 0.959 . S
H2624 C2638 0.961 . S
H2625 C2639 0.960 . S
H2626 C2639 0.961 . S
H2627 C2639 0.959 . S
H2628 C2642 0.929 . S
H2629 C2643 0.931 . S
H2630 C2645 0.930 . S
C2631 H2619 0.930 . S
C2631 C2632 1.399 . S
C2631 C2636 1.399 . S
C2632 C2631 1.399 . S
C2632 C2633 1.376 . S
C2633 H2620 0.930 . S
C2633 C2632 1.376 . S
C2633 C2634 1.388 . S
C2634 H2621 0.930 . S
C2634 C2633 1.388 . S
C2634 C2635 1.390 . S
C2635 C2634 1.390 . S
C2635 C2636 1.394 . S
C2635 C2641 1.465 . S
C2636 C2631 1.399 . S
C2636 C2635 1.394 . S
C2636 C2637 1.516 . S
C2637 C2636 1.516 . S
C2637 C2638 1.502 . S
C2637 C2639 1.561 . S
C2637 C2640 1.526 . S
C2638 H2622 0.959 . S
C2638 H2623 0.959 . S
C2638 H2624 0.961 . S
C2638 C2637 1.502 . S
C2639 H2625 0.960 . S
C2639 H2626 0.961 . S
C2639 H2627 0.959 . S
C2639 C2637 1.561 . S
C2640 C2637 1.526 . S
C2640 C2641 1.396 . S
C2640 C2645 1.390 . S
C2641 C2635 1.465 . S
C2641 C2640 1.396 . S
C2641 C2642 1.399 . S
C2642 H2628 0.929 . S
C2642 C2641 1.399 . S
C2642 C2643 1.385 . S
C2643 H2629 0.931 . S
C2643 C2642 1.385 . S
C2643 C2644 1.389 . S
C2644 C2643 1.389 . S
C2644 C2645 1.387 . S
C2645 H2630 0.930 . S
C2645 C2640 1.390 . S
C2645 C2644 1.387 . S
H2646 C2658 0.930 . S
H2647 C2660 0.930 . S
H2648 C2661 0.930 . S
H2649 C2665 0.959 . S
H2650 C2665 0.959 . S
H2651 C2665 0.961 . S
H2652 C2666 0.960 . S
H2653 C2666 0.961 . S
H2654 C2666 0.959 . S
H2655 C2669 0.929 . S
H2656 C2670 0.931 . S
H2657 C2672 0.930 . S
C2658 H2646 0.930 . S
C2658 C2659 1.399 . S
C2658 C2663 1.399 . S
C2659 C2658 1.399 . S
C2659 C2660 1.376 . S
C2660 H2647 0.930 . S
C2660 C2659 1.376 . S
C2660 C2661 1.388 . S
C2661 H2648 0.930 . S
C2661 C2660 1.388 . S
C2661 C2662 1.390 . S
C2662 C2661 1.390 . S
C2662 C2663 1.394 . S
C2662 C2668 1.465 . S
C2663 C2658 1.399 . S
C2663 C2662 1.394 . S
C2663 C2664 1.516 . S
C2664 C2663 1.516 . S
C2664 C2665 1.502 . S
C2664 C2666 1.561 . S
C2664 C2667 1.526 . S
C2665 H2649 0.959 . S
C2665 H2650 0.959 . S
C2665 H2651 0.961 . S
C2665 C2664 1.502 . S
C2666 H2652 0.960 . S
C2666 H2653 0.961 . S
C2666 H2654 0.959 . S
C2666 C2664 1.561 . S
C2667 C2664 1.526 . S
C2667 C2668 1.396 . S
C2667 C2672 1.390 . S
C2668 C2662 1.465 . S
C2668 C2667 1.396 . S
C2668 C2669 1.399 . S
C2669 H2655 0.929 . S
C2669 C2668 1.399 . S
C2669 C2670 1.385 . S
C2670 H2656 0.931 . S
C2670 C2669 1.385 . S
C2670 C2671 1.389 . S
C2671 C2670 1.389 . S
C2671 C2672 1.387 . S
C2672 H2657 0.930 . S
C2672 C2667 1.390 . S
C2672 C2671 1.387 . S
H2673 C2685 0.930 . S
H2674 C2687 0.930 . S
H2675 C2688 0.930 . S
H2676 C2692 0.959 . S
H2677 C2692 0.959 . S
H2678 C2692 0.961 . S
H2679 C2693 0.960 . S
H2680 C2693 0.961 . S
H2681 C2693 0.959 . S
H2682 C2696 0.929 . S
H2683 C2697 0.931 . S
H2684 C2699 0.930 . S
C2685 H2673 0.930 . S
C2685 C2686 1.399 . S
C2685 C2690 1.399 . S
C2686 C2685 1.399 . S
C2686 C2687 1.376 . S
C2687 H2674 0.930 . S
C2687 C2686 1.376 . S
C2687 C2688 1.388 . S
C2688 H2675 0.930 . S
C2688 C2687 1.388 . S
C2688 C2689 1.390 . S
C2689 C2688 1.390 . S
C2689 C2690 1.394 . S
C2689 C2695 1.465 . S
C2690 C2685 1.399 . S
C2690 C2689 1.394 . S
C2690 C2691 1.516 . S
C2691 C2690 1.516 . S
C2691 C2692 1.502 . S
C2691 C2693 1.561 . S
C2691 C2694 1.526 . S
C2692 H2676 0.959 . S
C2692 H2677 0.959 . S
C2692 H2678 0.961 . S
C2692 C2691 1.502 . S
C2693 H2679 0.960 . S
C2693 H2680 0.961 . S
C2693 H2681 0.959 . S
C2693 C2691 1.561 . S
C2694 C2691 1.526 . S
C2694 C2695 1.396 . S
C2694 C2699 1.390 . S
C2695 C2689 1.465 . S
C2695 C2694 1.396 . S
C2695 C2696 1.399 . S
C2696 H2682 0.929 . S
C2696 C2695 1.399 . S
C2696 C2697 1.385 . S
C2697 H2683 0.931 . S
C2697 C2696 1.385 . S
C2697 C2698 1.389 . S
C2698 C2697 1.389 . S
C2698 C2699 1.387 . S
C2699 H2684 0.930 . S
C2699 C2694 1.390 . S
C2699 C2698 1.387 . S
H2700 C2712 0.930 . S
H2701 C2714 0.930 . S
H2702 C2715 0.930 . S
H2703 C2719 0.959 . S
H2704 C2719 0.959 . S
H2705 C2719 0.961 . S
H2706 C2720 0.960 . S
H2707 C2720 0.961 . S
H2708 C2720 0.959 . S
H2709 C2723 0.929 . S
H2710 C2724 0.931 . S
H2711 C2726 0.930 . S
C2712 H2700 0.930 . S
C2712 C2713 1.399 . S
C2712 C2717 1.399 . S
C2713 C2712 1.399 . S
C2713 C2714 1.376 . S
C2714 H2701 0.930 . S
C2714 C2713 1.376 . S
C2714 C2715 1.388 . S
C2715 H2702 0.930 . S
C2715 C2714 1.388 . S
C2715 C2716 1.390 . S
C2716 C2715 1.390 . S
C2716 C2717 1.394 . S
C2716 C2722 1.465 . S
C2717 C2712 1.399 . S
C2717 C2716 1.394 . S
C2717 C2718 1.516 . S
C2718 C2717 1.516 . S
C2718 C2719 1.502 . S
C2718 C2720 1.561 . S
C2718 C2721 1.526 . S
C2719 H2703 0.959 . S
C2719 H2704 0.959 . S
C2719 H2705 0.961 . S
C2719 C2718 1.502 . S
C2720 H2706 0.960 . S
C2720 H2707 0.961 . S
C2720 H2708 0.959 . S
C2720 C2718 1.561 . S
C2721 C2718 1.526 . S
C2721 C2722 1.396 . S
C2721 C2726 1.390 . S
C2722 C2716 1.465 . S
C2722 C2721 1.396 . S
C2722 C2723 1.399 . S
C2723 H2709 0.929 . S
C2723 C2722 1.399 . S
C2723 C2724 1.385 . S
C2724 H2710 0.931 . S
C2724 C2723 1.385 . S
C2724 C2725 1.389 . S
C2725 C2724 1.389 . S
C2725 C2726 1.387 . S
C2726 H2711 0.930 . S
C2726 C2721 1.390 . S
C2726 C2725 1.387 . S
H2727 C2739 0.930 . S
H2728 C2741 0.930 . S
H2729 C2742 0.930 . S
H2730 C2746 0.959 . S
H2731 C2746 0.959 . S
H2732 C2746 0.961 . S
H2733 C2747 0.960 . S
H2734 C2747 0.961 . S
H2735 C2747 0.959 . S
H2736 C2750 0.929 . S
H2737 C2751 0.931 . S
H2738 C2753 0.930 . S
C2739 H2727 0.930 . S
C2739 C2740 1.399 . S
C2739 C2744 1.399 . S
C2740 C2739 1.399 . S
C2740 C2741 1.376 . S
C2741 H2728 0.930 . S
C2741 C2740 1.376 . S
C2741 C2742 1.388 . S
C2742 H2729 0.930 . S
C2742 C2741 1.388 . S
C2742 C2743 1.390 . S
C2743 C2742 1.390 . S
C2743 C2744 1.394 . S
C2743 C2749 1.465 . S
C2744 C2739 1.399 . S
C2744 C2743 1.394 . S
C2744 C2745 1.516 . S
C2745 C2744 1.516 . S
C2745 C2746 1.502 . S
C2745 C2747 1.561 . S
C2745 C2748 1.526 . S
C2746 H2730 0.959 . S
C2746 H2731 0.959 . S
C2746 H2732 0.961 . S
C2746 C2745 1.502 . S
C2747 H2733 0.960 . S
C2747 H2734 0.961 . S
C2747 H2735 0.959 . S
C2747 C2745 1.561 . S
C2748 C2745 1.526 . S
C2748 C2749 1.396 . S
C2748 C2753 1.390 . S
C2749 C2743 1.465 . S
C2749 C2748 1.396 . S
C2749 C2750 1.399 . S
C2750 H2736 0.929 . S
C2750 C2749 1.399 . S
C2750 C2751 1.385 . S
C2751 H2737 0.931 . S
C2751 C2750 1.385 . S
C2751 C2752 1.389 . S
C2752 C2751 1.389 . S
C2752 C2753 1.387 . S
C2753 H2738 0.930 . S
C2753 C2748 1.390 . S
C2753 C2752 1.387 . S
H2754 C2766 0.930 . S
H2755 C2768 0.930 . S
H2756 C2769 0.930 . S
H2757 C2773 0.959 . S
H2758 C2773 0.959 . S
H2759 C2773 0.961 . S
H2760 C2774 0.960 . S
H2761 C2774 0.961 . S
H2762 C2774 0.959 . S
H2763 C2777 0.929 . S
H2764 C2778 0.931 . S
H2765 C2780 0.930 . S
C2766 H2754 0.930 . S
C2766 C2767 1.399 . S
C2766 C2771 1.399 . S
C2767 C2766 1.399 . S
C2767 C2768 1.376 . S
C2768 H2755 0.930 . S
C2768 C2767 1.376 . S
C2768 C2769 1.388 . S
C2769 H2756 0.930 . S
C2769 C2768 1.388 . S
C2769 C2770 1.390 . S
C2770 C2769 1.390 . S
C2770 C2771 1.394 . S
C2770 C2776 1.465 . S
C2771 C2766 1.399 . S
C2771 C2770 1.394 . S
C2771 C2772 1.516 . S
C2772 C2771 1.516 . S
C2772 C2773 1.502 . S
C2772 C2774 1.561 . S
C2772 C2775 1.526 . S
C2773 H2757 0.959 . S
C2773 H2758 0.959 . S
C2773 H2759 0.961 . S
C2773 C2772 1.502 . S
C2774 H2760 0.960 . S
C2774 H2761 0.961 . S
C2774 H2762 0.959 . S
C2774 C2772 1.561 . S
C2775 C2772 1.526 . S
C2775 C2776 1.396 . S
C2775 C2780 1.390 . S
C2776 C2770 1.465 . S
C2776 C2775 1.396 . S
C2776 C2777 1.399 . S
C2777 H2763 0.929 . S
C2777 C2776 1.399 . S
C2777 C2778 1.385 . S
C2778 H2764 0.931 . S
C2778 C2777 1.385 . S
C2778 C2779 1.389 . S
C2779 C2778 1.389 . S
C2779 C2780 1.387 . S
C2780 H2765 0.930 . S
C2780 C2775 1.390 . S
C2780 C2779 1.387 . S
H2781 C2793 0.930 . S
H2782 C2795 0.930 . S
H2783 C2796 0.930 . S
H2784 C2800 0.959 . S
H2785 C2800 0.959 . S
H2786 C2800 0.961 . S
H2787 C2801 0.960 . S
H2788 C2801 0.961 . S
H2789 C2801 0.959 . S
H2790 C2804 0.929 . S
H2791 C2805 0.931 . S
H2792 C2807 0.930 . S
C2793 H2781 0.930 . S
C2793 C2794 1.399 . S
C2793 C2798 1.399 . S
C2794 C2793 1.399 . S
C2794 C2795 1.376 . S
C2795 H2782 0.930 . S
C2795 C2794 1.376 . S
C2795 C2796 1.388 . S
C2796 H2783 0.930 . S
C2796 C2795 1.388 . S
C2796 C2797 1.390 . S
C2797 C2796 1.390 . S
C2797 C2798 1.394 . S
C2797 C2803 1.465 . S
C2798 C2793 1.399 . S
C2798 C2797 1.394 . S
C2798 C2799 1.516 . S
C2799 C2798 1.516 . S
C2799 C2800 1.502 . S
C2799 C2801 1.561 . S
C2799 C2802 1.526 . S
C2800 H2784 0.959 . S
C2800 H2785 0.959 . S
C2800 H2786 0.961 . S
C2800 C2799 1.502 . S
C2801 H2787 0.960 . S
C2801 H2788 0.961 . S
C2801 H2789 0.959 . S
C2801 C2799 1.561 . S
C2802 C2799 1.526 . S
C2802 C2803 1.396 . S
C2802 C2807 1.390 . S
C2803 C2797 1.465 . S
C2803 C2802 1.396 . S
C2803 C2804 1.399 . S
C2804 H2790 0.929 . S
C2804 C2803 1.399 . S
C2804 C2805 1.385 . S
C2805 H2791 0.931 . S
C2805 C2804 1.385 . S
C2805 C2806 1.389 . S
C2806 C2805 1.389 . S
C2806 C2807 1.387 . S
C2807 H2792 0.930 . S
C2807 C2802 1.390 . S
C2807 C2806 1.387 . S
H2808 C2820 0.930 . S
H2809 C2822 0.930 . S
H2810 C2823 0.930 . S
H2811 C2827 0.959 . S
H2812 C2827 0.959 . S
H2813 C2827 0.961 . S
H2814 C2828 0.960 . S
H2815 C2828 0.961 . S
H2816 C2828 0.959 . S
H2817 C2831 0.929 . S
H2818 C2832 0.931 . S
H2819 C2834 0.930 . S
C2820 H2808 0.930 . S
C2820 C2821 1.399 . S
C2820 C2825 1.399 . S
C2821 C2820 1.399 . S
C2821 C2822 1.376 . S
C2822 H2809 0.930 . S
C2822 C2821 1.376 . S
C2822 C2823 1.388 . S
C2823 H2810 0.930 . S
C2823 C2822 1.388 . S
C2823 C2824 1.390 . S
C2824 C2823 1.390 . S
C2824 C2825 1.394 . S
C2824 C2830 1.465 . S
C2825 C2820 1.399 . S
C2825 C2824 1.394 . S
C2825 C2826 1.516 . S
C2826 C2825 1.516 . S
C2826 C2827 1.502 . S
C2826 C2828 1.561 . S
C2826 C2829 1.526 . S
C2827 H2811 0.959 . S
C2827 H2812 0.959 . S
C2827 H2813 0.961 . S
C2827 C2826 1.502 . S
C2828 H2814 0.960 . S
C2828 H2815 0.961 . S
C2828 H2816 0.959 . S
C2828 C2826 1.561 . S
C2829 C2826 1.526 . S
C2829 C2830 1.396 . S
C2829 C2834 1.390 . S
C2830 C2824 1.465 . S
C2830 C2829 1.396 . S
C2830 C2831 1.399 . S
C2831 H2817 0.929 . S
C2831 C2830 1.399 . S
C2831 C2832 1.385 . S
C2832 H2818 0.931 . S
C2832 C2831 1.385 . S
C2832 C2833 1.389 . S
C2833 C2832 1.389 . S
C2833 C2834 1.387 . S
C2834 H2819 0.930 . S
C2834 C2829 1.390 . S
C2834 C2833 1.387 . S
H2835 C2847 0.930 . S
H2836 C2849 0.930 . S
H2837 C2850 0.930 . S
H2838 C2854 0.959 . S
H2839 C2854 0.959 . S
H2840 C2854 0.961 . S
H2841 C2855 0.960 . S
H2842 C2855 0.961 . S
H2843 C2855 0.959 . S
H2844 C2858 0.929 . S
H2845 C2859 0.931 . S
H2846 C2861 0.930 . S
C2847 H2835 0.930 . S
C2847 C2848 1.399 . S
C2847 C2852 1.399 . S
C2848 C2847 1.399 . S
C2848 C2849 1.376 . S
C2849 H2836 0.930 . S
C2849 C2848 1.376 . S
C2849 C2850 1.388 . S
C2850 H2837 0.930 . S
C2850 C2849 1.388 . S
C2850 C2851 1.390 . S
C2851 C2850 1.390 . S
C2851 C2852 1.394 . S
C2851 C2857 1.465 . S
C2852 C2847 1.399 . S
C2852 C2851 1.394 . S
C2852 C2853 1.516 . S
C2853 C2852 1.516 . S
C2853 C2854 1.502 . S
C2853 C2855 1.561 . S
C2853 C2856 1.526 . S
C2854 H2838 0.959 . S
C2854 H2839 0.959 . S
C2854 H2840 0.961 . S
C2854 C2853 1.502 . S
C2855 H2841 0.960 . S
C2855 H2842 0.961 . S
C2855 H2843 0.959 . S
C2855 C2853 1.561 . S
C2856 C2853 1.526 . S
C2856 C2857 1.396 . S
C2856 C2861 1.390 . S
C2857 C2851 1.465 . S
C2857 C2856 1.396 . S
C2857 C2858 1.399 . S
C2858 H2844 0.929 . S
C2858 C2857 1.399 . S
C2858 C2859 1.385 . S
C2859 H2845 0.931 . S
C2859 C2858 1.385 . S
C2859 C2860 1.389 . S
C2860 C2859 1.389 . S
C2860 C2861 1.387 . S
C2861 H2846 0.930 . S
C2861 C2856 1.390 . S
C2861 C2860 1.387 . S
H2862 C2874 0.930 . S
H2863 C2876 0.930 . S
H2864 C2877 0.930 . S
H2865 C2881 0.959 . S
H2866 C2881 0.959 . S
H2867 C2881 0.961 . S
H2868 C2882 0.960 . S
H2869 C2882 0.961 . S
H2870 C2882 0.959 . S
H2871 C2885 0.929 . S
H2872 C2886 0.931 . S
H2873 C2888 0.930 . S
C2874 H2862 0.930 . S
C2874 C2875 1.399 . S
C2874 C2879 1.399 . S
C2875 C2874 1.399 . S
C2875 C2876 1.376 . S
C2876 H2863 0.930 . S
C2876 C2875 1.376 . S
C2876 C2877 1.388 . S
C2877 H2864 0.930 . S
C2877 C2876 1.388 . S
C2877 C2878 1.390 . S
C2878 C2877 1.390 . S
C2878 C2879 1.394 . S
C2878 C2884 1.465 . S
C2879 C2874 1.399 . S
C2879 C2878 1.394 . S
C2879 C2880 1.516 . S
C2880 C2879 1.516 . S
C2880 C2881 1.502 . S
C2880 C2882 1.561 . S
C2880 C2883 1.526 . S
C2881 H2865 0.959 . S
C2881 H2866 0.959 . S
C2881 H2867 0.961 . S
C2881 C2880 1.502 . S
C2882 H2868 0.960 . S
C2882 H2869 0.961 . S
C2882 H2870 0.959 . S
C2882 C2880 1.561 . S
C2883 C2880 1.526 . S
C2883 C2884 1.396 . S
C2883 C2888 1.390 . S
C2884 C2878 1.465 . S
C2884 C2883 1.396 . S
C2884 C2885 1.399 . S
C2885 H2871 0.929 . S
C2885 C2884 1.399 . S
C2885 C2886 1.385 . S
C2886 H2872 0.931 . S
C2886 C2885 1.385 . S
C2886 C2887 1.389 . S
C2887 C2886 1.389 . S
C2887 C2888 1.387 . S
C2888 H2873 0.930 . S
C2888 C2883 1.390 . S
C2888 C2887 1.387 . S
H2889 C2901 0.930 . S
H2890 C2903 0.930 . S
H2891 C2904 0.930 . S
H2892 C2908 0.959 . S
H2893 C2908 0.959 . S
H2894 C2908 0.961 . S
H2895 C2909 0.960 . S
H2896 C2909 0.961 . S
H2897 C2909 0.959 . S
H2898 C2912 0.929 . S
H2899 C2913 0.931 . S
H2900 C2915 0.930 . S
C2901 H2889 0.930 . S
C2901 C2902 1.399 . S
C2901 C2906 1.399 . S
C2902 C2901 1.399 . S
C2902 C2903 1.376 . S
C2903 H2890 0.930 . S
C2903 C2902 1.376 . S
C2903 C2904 1.388 . S
C2904 H2891 0.930 . S
C2904 C2903 1.388 . S
C2904 C2905 1.390 . S
C2905 C2904 1.390 . S
C2905 C2906 1.394 . S
C2905 C2911 1.465 . S
C2906 C2901 1.399 . S
C2906 C2905 1.394 . S
C2906 C2907 1.516 . S
C2907 C2906 1.516 . S
C2907 C2908 1.502 . S
C2907 C2909 1.561 . S
C2907 C2910 1.526 . S
C2908 H2892 0.959 . S
C2908 H2893 0.959 . S
C2908 H2894 0.961 . S
C2908 C2907 1.502 . S
C2909 H2895 0.960 . S
C2909 H2896 0.961 . S
C2909 H2897 0.959 . S
C2909 C2907 1.561 . S
C2910 C2907 1.526 . S
C2910 C2911 1.396 . S
C2910 C2915 1.390 . S
C2911 C2905 1.465 . S
C2911 C2910 1.396 . S
C2911 C2912 1.399 . S
C2912 H2898 0.929 . S
C2912 C2911 1.399 . S
C2912 C2913 1.385 . S
C2913 H2899 0.931 . S
C2913 C2912 1.385 . S
C2913 C2914 1.389 . S
C2914 C2913 1.389 . S
C2914 C2915 1.387 . S
C2915 H2900 0.930 . S
C2915 C2910 1.390 . S
C2915 C2914 1.387 . S
C1471 C528 1.411 . S
C1483 C758 1.390 . S
C1498 C562 1.490 . S
C1510 C842 1.409 . S
C1525 C484 1.472 . S
C1537 C936 1.414 . S
C1552 C445 1.430 . S
C1564 C852 1.372 . S
C1591 C926 1.373 . S
C1579 C367 1.427 . S
C1606 C411 1.386 . S
C1618 C768 1.350 . S
C1645 C769 1.332 . S
C1633 C450 1.414 . S
C1672 C853 1.419 . S
C1660 C372 1.475 . S
C1687 C406 1.482 . S
C1699 C945 1.391 . S
C1714 C523 1.408 . S
C1726 C861 1.417 . S
C1741 C567 1.409 . S
C1753 C937 1.288 . S
C1780 C777 1.328 . S
C1768 C489 1.424 . S
C1807 C1010 1.389 . S
C1795 C60 1.412 . S
C1822 C94 1.489 . S
C1834 C1094 1.420 . S
C1849 C16 1.468 . S
C1861 C1188 1.422 . S
C1876 C679 1.429 . S
C1888 C1104 1.378 . S
C1903 C601 1.413 . S
C1915 C1178 1.346 . S
C1930 C645 1.374 . S
C1942 C1020 1.387 . S
C1957 C684 1.444 . S
C1969 C1021 1.392 . S
C1984 C606 1.475 . S
C1996 C1105 1.417 . S
C2023 C1197 1.397 . S
C2011 C640 1.481 . S
C2038 C55 1.408 . S
C2050 C1113 1.412 . S
C2077 C1189 1.280 . S
C2065 C99 1.399 . S
C2092 C21 1.422 . S
C2104 C1029 1.337 . S
C2131 C1262 1.302 . S
C2119 C294 1.413 . S
C2146 C328 1.479 . S
C2158 C1346 1.370 . S
C2185 C1440 1.415 . S
C2173 C250 1.469 . S
C2212 C1356 1.390 . S
C2200 C211 1.424 . S
C2239 C1430 1.370 . S
C2227 C133 1.427 . S
C2254 C177 1.395 . S
C2266 C1272 1.334 . S
C2281 C216 1.441 . S
C2293 C1273 1.399 . S
C2308 C138 1.475 . S
C2320 C1357 1.386 . S
C2347 C1449 1.451 . S
C2335 C172 1.446 . S
C2362 C289 1.408 . S
C2374 C1365 1.415 . S
C2389 C333 1.412 . S
C2401 C1441 1.298 . S
C2416 C255 1.422 . S
C2428 C1281 1.338 . S
C2443 C586 1.455 . S
C2455 C765 1.388 . S
C2482 C849 1.323 . S
C2470 C625 1.484 . S
C2497 C664 1.467 . S
C2509 C942 1.390 . S
C2524 C235 1.507 . S
C2536 C858 1.298 . S
C2551 C274 1.455 . S
C2563 C933 1.307 . S
C2590 C774 1.387 . S
C2578 C313 1.455 . S
C2605 C118 1.459 . S
C2617 C1017 1.315 . S
C2632 C157 1.492 . S
C2644 C1101 1.369 . S
C2659 C196 1.474 . S
C2671 C1194 1.283 . S
C2686 C469 1.507 . S
C2698 C1110 1.296 . S
C2725 C1185 1.355 . S
C2713 C508 1.459 . S
C2740 C547 1.455 . S
C2752 C1026 1.385 . S
C2767 C352 1.456 . S
C2779 C1269 1.396 . S
C2794 C391 1.484 . S
C2806 C1353 1.317 . S
C2833 C1446 1.278 . S
C2821 C430 1.474 . S
C2848 C1 1.509 . S
C2860 C1362 1.303 . S
C2875 C40 1.459 . S
C2887 C1437 1.360 . S
C2902 C79 1.459 . S
C2914 C1278 1.355 . S
