# Generated by pormake.
# Topology anh, (6,3)-cn, num edge types: 1
# Building blocks:
#     Node 0, Type 0, BuildingBlock: BETFAJ_clean_sbu_0, # of connection points: 6
#     Node 1, Type 0, BuildingBlock: BETFAJ_clean_sbu_0, # of connection points: 6
#     Node 2, Type 0, BuildingBlock: BETFAJ_clean_sbu_0, # of connection points: 6
#     Node 3, Type 1, BuildingBlock: BETDAH_clean_linker_0, # of connection points: 3
#     Node 4, Type 1, BuildingBlock: BETDAH_clean_linker_0, # of connection points: 3
#     Node 5, Type 1, BuildingBlock: BETDAH_clean_linker_0, # of connection points: 3
#     Node 6, Type 1, BuildingBlock: BETDAH_clean_linker_0, # of connection points: 3
#     Node 7, Type 1, BuildingBlock: BETDAH_clean_linker_0, # of connection points: 3
#     Node 8, Type 1, BuildingBlock: BETDAH_clean_linker_0, # of connection points: 3
#     Edge 9, Type (0, 1), BuildingBlock: XUDNAN_clean_linker_2, # of connection points: 2
#     Edge 10, Type (0, 1), BuildingBlock: XUDNAN_clean_linker_2, # of connection points: 2
#     Edge 11, Type (0, 1), BuildingBlock: XUDNAN_clean_linker_2, # of connection points: 2
#     Edge 12, Type (0, 1), BuildingBlock: XUDNAN_clean_linker_2, # of connection points: 2
#     Edge 13, Type (0, 1), BuildingBlock: XUDNAN_clean_linker_2, # of connection points: 2
#     Edge 14, Type (0, 1), BuildingBlock: XUDNAN_clean_linker_2, # of connection points: 2
#     Edge 15, Type (0, 1), BuildingBlock: XUDNAN_clean_linker_2, # of connection points: 2
#     Edge 16, Type (0, 1), BuildingBlock: XUDNAN_clean_linker_2, # of connection points: 2
#     Edge 17, Type (0, 1), BuildingBlock: XUDNAN_clean_linker_2, # of connection points: 2
#     Edge 18, Type (0, 1), BuildingBlock: XUDNAN_clean_linker_2, # of connection points: 2
#     Edge 19, Type (0, 1), BuildingBlock: XUDNAN_clean_linker_2, # of connection points: 2
#     Edge 20, Type (0, 1), BuildingBlock: XUDNAN_clean_linker_2, # of connection points: 2
#     Edge 21, Type (0, 1), BuildingBlock: XUDNAN_clean_linker_2, # of connection points: 2
#     Edge 22, Type (0, 1), BuildingBlock: XUDNAN_clean_linker_2, # of connection points: 2
#     Edge 23, Type (0, 1), BuildingBlock: XUDNAN_clean_linker_2, # of connection points: 2
#     Edge 24, Type (0, 1), BuildingBlock: XUDNAN_clean_linker_2, # of connection points: 2
#     Edge 25, Type (0, 1), BuildingBlock: XUDNAN_clean_linker_2, # of connection points: 2
#     Edge 26, Type (0, 1), BuildingBlock: XUDNAN_clean_linker_2, # of connection points: 2
# Relax obj value: 0.151
# Max RMSD: 0.184
# Mean RMSD: 0.111
data_MOF--net-anh--node1-BETFAJ_clean_sbu_0--node2-BETDAH_clean_linker_0--edge1-XUDNAN_clean_linker_2
_symmetry_space_group_name_H-M    P1
_symmetry_Int_Tables_number       1
_symmetry_cell_setting            triclinic
loop_
_symmetry_equiv_pos_as_xyz
'x, y, z'
_cell_length_a     30.822756
_cell_length_b     38.161104
_cell_length_c     48.812336
_cell_angle_alpha  94.540804
_cell_angle_beta   89.398377
_cell_angle_gamma 129.6916
loop_
_atom_site_label
_atom_site_type_symbol
_atom_site_fract_x
_atom_site_fract_y
_atom_site_fract_z
_atom_type_partial_charge
Sm0 Sm 0.20368 0.59267 0.15435 0.0
Sm1 Sm 0.13608 0.6246 0.16678 0.0
C2 C 0.26235 0.56942 0.13342 0.0
C3 C 0.25893 0.52923 0.13241 0.0
C4 C 0.30604 0.5334 0.12534 0.0
C5 C 0.30249 0.49493 0.12289 0.0
C6 C 0.25156 0.45155 0.12736 0.0
C7 C 0.20468 0.44775 0.13502 0.0
C8 C 0.20837 0.48633 0.13756 0.0
C9 C 0.1845 0.5976 0.20918 0.0
C10 C 0.27166 0.70367 0.16075 0.0
C11 C 1.07614 0.64878 0.18313 0.0
C12 C 1.01466 0.6195 0.17906 0.0
C13 C 0.9855 0.5748 0.1669 0.0
C14 C 0.9273 0.54531 0.1626 0.0
C15 C 0.89672 0.5599 0.17016 0.0
C16 C 0.92557 0.60445 0.18295 0.0
C17 C 0.98456 0.63428 0.18734 0.0
C18 C 0.12871 0.5934 0.11232 0.0
C19 C 1.07215 0.51666 0.16621 0.0
O20 O 0.27552 0.59259 0.1575 0.0
O21 O 0.22176 0.56375 0.11958 0.0
O22 O 0.19702 0.626 0.19251 0.0
O23 O 0.18442 0.56578 0.19752 0.0
O24 O 0.27321 0.67051 0.15284 0.0
O25 O 0.22491 0.69523 0.16879 0.0
O26 O 0.09259 0.63336 0.19957 0.0
O27 O 0.10377 0.66158 0.1605 0.0
O28 O 0.17253 0.61884 0.12792 0.0
O29 O 1.08577 0.58335 0.12534 0.0
O30 O 1.0775 0.5511 0.17894 0.0
O31 O 0.11187 0.52412 0.15035 0.0
H32 H 0.34543 0.56635 0.12144 0.0
H33 H 0.33971 0.4992 0.11752 0.0
H34 H 0.16478 0.41484 0.13842 0.0
H35 H 0.17154 0.48258 0.1431 0.0
H36 H 1.00783 0.56255 0.16067 0.0
H37 H 0.90615 0.51093 0.15322 0.0
H38 H 0.90276 0.61642 0.18893 0.0
H39 H 1.00652 0.66863 0.19696 0.0
Sm40 Sm 0.717 0.07385 0.48589 0.0
Sm41 Sm 0.64077 0.09299 0.47227 0.0
C42 C 0.76428 0.04163 0.50526 0.0
C43 C 0.74522 0.99732 0.51261 0.0
C44 C 0.78039 0.99567 0.52935 0.0
C45 C 0.76354 0.95359 0.53568 0.0
C46 C 0.71104 0.91246 0.52545 0.0
C47 C 0.67542 0.91437 0.50909 0.0
C48 C 0.6925 0.95646 0.50264 0.0
C49 C 0.71767 0.0894 0.43186 0.0
C50 C 0.58098 0.98817 0.47188 0.0
C51 C 0.59727 0.12996 0.45678 0.0
C52 C 0.61174 0.17338 0.46805 0.0
C53 C 0.60608 0.19902 0.45176 0.0
C54 C 0.62329 0.2416 0.46249 0.0
C55 C 0.64647 0.25914 0.48968 0.0
C56 C 0.65173 0.23299 0.50583 0.0
C57 C 0.63502 0.19085 0.49507 0.0
C58 C 0.64343 0.08023 0.52669 0.0
C59 C 0.77853 0.17992 0.4855 0.0
O60 O 0.74897 0.06096 0.52107 0.0
O61 O 0.75971 0.04454 0.47911 0.0
O62 O 0.67353 0.06491 0.44517 0.0
O63 O 0.76245 0.10497 0.4466 0.0
O64 O 0.62691 1.00434 0.48671 0.0
O65 O 0.57874 0.01589 0.45865 0.0
O66 O 0.63725 0.13391 0.44372 0.0
O67 O 0.57275 0.09783 0.47357 0.0
O68 O 0.68606 0.10387 0.51249 0.0
O69 O 0.59761 0.06335 0.51259 0.0
O70 O 0.72972 0.16525 0.4747 0.0
O71 O 0.78371 0.15128 0.49493 0.0
H72 H 0.82115 0.02693 0.53729 0.0
H73 H 0.79161 0.95321 0.54857 0.0
H74 H 0.63507 0.88331 0.50061 0.0
H75 H 0.665 0.95709 0.48948 0.0
H76 H 0.58905 0.18639 0.43071 0.0
H77 H 0.61926 0.26106 0.44935 0.0
H78 H 0.66831 0.24479 0.52697 0.0
H79 H 0.64055 0.17192 0.50791 0.0
Sm80 Sm 0.625 0.57286 0.84709 0.0
Sm81 Sm 0.53584 0.47064 0.83578 0.0
C82 C 0.68703 0.66251 0.84514 0.0
C83 C 0.67711 0.6942 0.8388 0.0
C84 C 0.71848 0.73374 0.82599 0.0
C85 C 0.70849 0.76284 0.81852 0.0
C86 C 0.6566 0.75266 0.82345 0.0
C87 C 0.6155 0.71326 0.83664 0.0
C88 C 0.62579 0.68448 0.84435 0.0
C89 C 0.58464 0.52523 0.89278 0.0
C90 C 0.48748 0.52512 0.84139 0.0
C91 C 0.4741 0.38089 0.83641 0.0
C92 C 0.48211 0.3471 0.8296 0.0
C93 C 0.43805 0.30078 0.83262 0.0
C94 C 0.44452 0.26819 0.82525 0.0
C95 C 0.4954 0.28142 0.81487 0.0
C96 C 0.53995 0.32811 0.81245 0.0
C97 C 0.53316 0.36059 0.81957 0.0
C98 C 0.56912 0.51637 0.78966 0.0
C99 C 0.67444 0.51894 0.84396 0.0
O100 O 0.67967 0.63495 0.82443 0.0
O101 O 0.66679 0.64228 0.86779 0.0
O102 O 0.55586 0.51871 0.87205 0.0
O103 O 0.63809 0.55899 0.89054 0.0
O104 O 0.54119 0.56125 0.83828 0.0
O105 O 0.47391 0.48509 0.84477 0.0
O106 O 0.50354 0.41005 0.85797 0.0
O107 O 0.47295 0.40004 0.81566 0.0
O108 O 0.60237 0.52504 0.80911 0.0
O109 O 0.51716 0.48151 0.79355 0.0
O110 O 0.62018 0.48167 0.84085 0.0
O111 O 0.68924 0.56014 0.84578 0.0
H112 H 0.75832 0.74181 0.82144 0.0
H113 H 0.74084 0.79269 0.80822 0.0
H114 H 0.57539 0.70472 0.84109 0.0
H115 H 0.59351 0.65444 0.85448 0.0
H116 H 0.39836 0.28972 0.84038 0.0
H117 H 0.4096 0.23256 0.82759 0.0
H118 H 0.57939 0.33935 0.80423 0.0
H119 H 0.56731 0.39613 0.81681 0.0
H120 H 0.59593 0.01586 0.23728 0.0
H121 H 0.72814 0.15664 0.22238 0.0
H122 H 0.62438 0.0555 0.15481 0.0
C123 C 0.61825 0.04246 0.22334 0.0
C124 C 0.60368 0.03039 0.19503 0.0
C125 C 0.66363 0.08781 0.23352 0.0
C126 C 0.69365 0.12153 0.21482 0.0
C127 C 0.67972 0.10988 0.18637 0.0
C128 C 0.6349 0.06437 0.17674 0.0
N129 N 0.71043 0.14255 0.16676 0.0
C130 C 0.75463 0.18917 0.17312 0.0
H131 H 0.67285 0.51149 0.60615 0.0
H132 H 0.66222 0.61332 0.58482 0.0
H133 H 0.6859 0.54204 0.52214 0.0
C134 C 0.67453 0.53165 0.59106 0.0
C135 C 0.68116 0.52361 0.56338 0.0
C136 C 0.6667 0.56348 0.59899 0.0
C137 C 0.66747 0.58833 0.57885 0.0
C138 C 0.6745 0.58064 0.55109 0.0
C139 C 0.68082 0.54807 0.54357 0.0
N140 N 0.67474 0.60449 0.53011 0.0
C141 C 0.66989 0.63822 0.53476 0.0
H142 H 1.00166 0.54706 0.9144 0.0
H143 H 0.13028 0.53551 0.89909 0.0
H144 H 1.01484 0.50217 0.83314 0.0
C145 C 1.02234 0.53929 0.90021 0.0
C146 C 1.00174 0.52438 0.87248 0.0
C147 C 1.06854 0.54341 0.91004 0.0
C148 C 0.09561 0.53334 0.89162 0.0
C149 C 1.07714 0.5188 0.86385 0.0
C150 C 1.02962 0.51383 0.85452 0.0
N151 N 0.10434 0.50784 0.84517 0.0
C152 C 0.15555 0.51604 0.84999 0.0
H153 H 0.23729 0.68166 0.40349 0.0
H154 H 0.09139 0.54499 0.41785 0.0
H155 H 0.20408 0.64088 0.48587 0.0
C156 C 0.21125 0.65625 0.41782 0.0
C157 C 0.22749 0.66709 0.44592 0.0
C158 C 0.16222 0.61271 0.40763 0.0
C159 C 0.12942 0.57852 0.42568 0.0
C160 C 0.14456 0.58882 0.45408 0.0
C161 C 0.1932 0.63309 0.46396 0.0
N162 N 0.1108 0.55667 0.47359 0.0
C163 C 1.07274 0.50914 0.46819 0.0
H164 H 0.59981 0.0987 0.71622 0.0
H165 H 0.6493 0.02113 0.73792 0.0
H166 H 0.60667 0.07882 0.80099 0.0
C167 C 0.60905 0.08523 0.7318 0.0
C168 C 0.60098 0.09163 0.75946 0.0
C169 C 0.62712 0.06038 0.72391 0.0
C170 C 0.63616 0.0409 0.74401 0.0
C171 C 0.62955 0.04805 0.772 0.0
C172 C 0.61292 0.07412 0.77955 0.0
N173 N 0.63893 0.02953 0.79307 0.0
C174 C 0.63798 0.99249 0.78891 0.0
H175 H 0.55702 0.38787 0.05892 0.0
H176 H 0.38216 0.27363 0.03756 0.0
H177 H 0.46011 0.28067 0.11253 0.0
C178 C 0.51804 0.35464 0.0628 0.0
C179 C 0.51487 0.33602 0.08712 0.0
C180 C 0.47085 0.33256 0.04448 0.0
C181 C 0.41958 0.29114 0.05107 0.0
C182 C 0.41575 0.27245 0.07557 0.0
C183 C 0.46355 0.29466 0.09338 0.0
N184 N 0.36252 0.23476 0.0841 0.0
C185 C 0.32284 0.24031 0.08927 0.0
H186 H 0.29636 0.43101 0.08694 0.0
H187 H 0.19812 0.37961 0.15948 0.0
H188 H 0.19528 0.3132 0.15413 0.0
H189 H 0.23005 0.32012 0.04814 0.0
H190 H 0.29594 0.33889 0.03477 0.0
H191 H 0.28464 0.37941 0.04255 0.0
H192 H 0.37552 0.42981 0.07463 0.0
H193 H 0.38704 0.38957 0.06672 0.0
H194 H 0.38305 0.40474 0.10203 0.0
H195 H 0.21188 0.25674 0.14359 0.0
H196 H 0.24837 0.21633 0.12898 0.0
H197 H 0.33509 0.30514 0.06376 0.0
C198 C 0.27402 0.40573 0.10167 0.0
C199 C 0.24744 0.4105 0.12363 0.0
C200 C 0.21817 0.37637 0.14228 0.0
C201 C 0.2164 0.33857 0.13943 0.0
C202 C 0.24372 0.33528 0.11772 0.0
C203 C 0.27191 0.36797 0.09915 0.0
C204 C 0.30124 0.35841 0.07876 0.0
C205 C 0.27645 0.34861 0.04931 0.0
C206 C 0.3655 0.39797 0.08067 0.0
C207 C 0.28638 0.31584 0.08918 0.0
C208 C 0.25268 0.30263 0.11149 0.0
C209 C 0.23728 0.26619 0.12581 0.0
C210 C 0.25788 0.24338 0.11739 0.0
C211 C 0.29313 0.25728 0.09497 0.0
C212 C 0.30674 0.29327 0.08047 0.0
H213 H 0.78444 0.25253 0.47331 0.0
H214 H 0.88849 0.21837 0.4961 0.0
H215 H 0.97402 0.29789 0.49202 0.0
H216 H 0.87528 0.3305 0.42365 0.0
H217 H 0.86325 0.37023 0.433 0.0
H218 H 0.8094 0.31049 0.43772 0.0
H219 H 0.80726 0.33092 0.48916 0.0
H220 H 0.86065 0.39078 0.48471 0.0
H221 H 0.87177 0.36552 0.51045 0.0
H222 H 1.0487 0.38019 0.48427 0.0
H223 H 0.10784 0.46243 0.47755 0.0
H224 H 0.9573 0.44557 0.46105 0.0
C225 C 0.82521 0.26182 0.47758 0.0
C226 C 0.82951 0.22891 0.48502 0.0
C227 C 0.88379 0.24272 0.4905 0.0
C228 C 0.93279 0.28787 0.48808 0.0
C229 C 0.92713 0.31919 0.48035 0.0
C230 C 0.87479 0.30705 0.47551 0.0
C231 C 0.88083 0.34791 0.46809 0.0
C232 C 0.8557 0.33925 0.43888 0.0
C233 C 0.85354 0.35948 0.48938 0.0
C234 C 0.94477 0.38484 0.46951 0.0
C235 C 0.97049 0.36724 0.47636 0.0
C236 C 1.02907 0.39436 0.47891 0.0
C237 C 1.06233 0.44091 0.4749 0.0
C238 C 1.03705 0.4599 0.46849 0.0
C239 C 0.97754 0.43154 0.46557 0.0
H240 H 0.72663 0.8469 0.82875 0.0
H241 H 0.55971 0.72562 0.79769 0.0
H242 H 0.53912 0.77431 0.78295 0.0
H243 H 0.6851 0.91045 0.85566 0.0
H244 H 0.74799 0.96478 0.84652 0.0
H245 H 0.75058 0.92045 0.85333 0.0
H246 H 0.79034 0.92534 0.80547 0.0
H247 H 0.78767 0.96961 0.79846 0.0
H248 H 0.752 0.91854 0.77506 0.0
H249 H 0.53564 0.83618 0.77253 0.0
H250 H 0.54825 0.90675 0.76947 0.0
H251 H 0.71668 0.98779 0.80755 0.0
C252 C 0.68599 0.83062 0.81855 0.0
C253 C 0.64478 0.78237 0.81436 0.0
C254 C 0.59175 0.76244 0.80137 0.0
C255 C 0.57981 0.78984 0.79274 0.0
C256 C 0.62127 0.83723 0.79724 0.0
C257 C 0.67322 0.85749 0.80996 0.0
C258 C 0.70946 0.90917 0.81343 0.0
C259 C 0.72412 0.92726 0.84405 0.0
C260 C 0.76304 0.932 0.79713 0.0
C261 C 0.66958 0.91479 0.80095 0.0
C262 C 0.6191 0.87286 0.79147 0.0
C263 C 0.57511 0.86918 0.77971 0.0
C264 C 0.58261 0.90931 0.77797 0.0
C265 C 0.63351 0.9523 0.78798 0.0
C266 C 0.67766 0.95517 0.79939 0.0
H267 H 0.84342 0.51018 0.12148 0.0
H268 H 0.81171 0.53834 0.20371 0.0
H269 H 0.70845 0.47937 0.19276 0.0
H270 H 0.72847 0.49166 0.0863 0.0
H271 H 0.71496 0.44695 0.06225 0.0
H272 H 0.78517 0.49154 0.07707 0.0
H273 H 0.78742 0.43019 0.09449 0.0
H274 H 0.71678 0.3854 0.08011 0.0
H275 H 0.73304 0.38911 0.11612 0.0
H276 H 0.60808 0.41586 0.17206 0.0
H277 H 0.52083 0.35987 0.14231 0.0
H278 H 0.62184 0.37346 0.0749 0.0
C279 C 0.81478 0.50392 0.13724 0.0
C280 C 0.83523 0.52839 0.16349 0.0
C281 C 0.7966 0.51996 0.18342 0.0
C282 C 0.7381 0.48632 0.17745 0.0
C283 C 0.71944 0.46178 0.15151 0.0
C284 C 0.75686 0.47066 0.1317 0.0
C285 C 0.72688 0.44057 0.10524 0.0
C286 C 0.73962 0.4694 0.08132 0.0
C287 C 0.74193 0.40948 0.09862 0.0
C288 C 0.66644 0.41338 0.11306 0.0
C289 C 0.66267 0.42566 0.13985 0.0
C290 C 0.61061 0.40586 0.15112 0.0
C291 C 0.56136 0.37386 0.13421 0.0
C292 C 0.56493 0.36243 0.10644 0.0
C293 C 0.61807 0.38159 0.0961 0.0
H294 H 0.47879 0.9372 0.44136 0.0
H295 H 0.56949 0.92685 0.50325 0.0
H296 H 0.48832 0.84538 0.50465 0.0
H297 H 0.34058 0.85974 0.4697 0.0
H298 H 0.30328 0.83458 0.43653 0.0
H299 H 0.36844 0.89279 0.4404 0.0
H300 H 0.41039 0.87335 0.40188 0.0
H301 H 0.34531 0.81515 0.39784 0.0
H302 H 0.41099 0.82685 0.40479 0.0
H303 H 0.39798 0.76428 0.49912 0.0
H304 H 0.30588 0.68876 0.48554 0.0
H305 H 0.27139 0.75086 0.42835 0.0
C306 C 0.48154 0.91781 0.45521 0.0
C307 C 0.53106 0.93872 0.472 0.0
C308 C 0.53263 0.91188 0.48987 0.0
C309 C 0.48644 0.86542 0.49099 0.0
C310 C 0.43844 0.84587 0.47422 0.0
C311 C 0.43553 0.87108 0.45662 0.0
C312 C 0.37899 0.84121 0.44049 0.0
C313 C 0.34587 0.8581 0.44719 0.0
C314 C 0.38692 0.83902 0.40941 0.0
C315 C 0.35106 0.7954 0.4516 0.0
C316 C 0.386 0.79895 0.47115 0.0
C317 C 0.37004 0.76111 0.48394 0.0
C318 C 0.31734 0.71832 0.47624 0.0
C319 C 0.28099 0.71349 0.45587 0.0
C320 C 0.29817 0.753 0.44377 0.0
H321 H 0.58458 0.2826 0.82445 0.0
H322 H 0.41842 0.20122 0.78321 0.0
H323 H 0.42678 0.14333 0.76596 0.0
H324 H 0.64865 0.26018 0.77215 0.0
H325 H 0.69004 0.25688 0.79593 0.0
H326 H 0.67082 0.29173 0.80565 0.0
H327 H 0.62494 0.24801 0.84883 0.0
H328 H 0.64398 0.21298 0.83924 0.0
H329 H 0.57138 0.18657 0.8449 0.0
H330 H 0.45452 0.09637 0.7511 0.0
H331 H 0.49855 0.06107 0.74121 0.0
H332 H 0.64541 0.17027 0.7933 0.0
C333 C 0.55 0.25255 0.8118 0.0
C334 C 0.50068 0.24634 0.80526 0.0
C335 C 0.45622 0.20643 0.78879 0.0
C336 C 0.46069 0.17345 0.77878 0.0
C337 C 0.50974 0.18059 0.78557 0.0
C338 C 0.55351 0.21893 0.80184 0.0
C339 C 0.60158 0.21804 0.806 0.0
C340 C 0.65598 0.25915 0.79423 0.0
C341 C 0.611 0.21629 0.83656 0.0
C342 C 0.57816 0.17347 0.78927 0.0
C343 C 0.52519 0.15262 0.77758 0.0
C344 C 0.49571 0.11211 0.76034 0.0
C345 C 0.52102 0.09238 0.7548 0.0
C346 C 0.575 0.11284 0.76665 0.0
C347 C 0.60376 0.15372 0.78429 0.0
H348 H 0.77705 0.88767 0.523 0.0
H349 H 0.60749 0.83587 0.53937 0.0
H350 H 0.57935 0.76029 0.54602 0.0
H351 H 0.73745 0.78834 0.48459 0.0
H352 H 0.79565 0.79317 0.49777 0.0
H353 H 0.80309 0.84371 0.49613 0.0
H354 H 0.83125 0.86533 0.5483 0.0
H355 H 0.82401 0.81485 0.55012 0.0
H356 H 0.78506 0.82468 0.57241 0.0
H357 H 0.569 0.68936 0.54895 0.0
H358 H 0.57725 0.62858 0.54691 0.0
H359 H 0.7533 0.72735 0.52868 0.0
C360 C 0.73428 0.86071 0.52852 0.0
C361 C 0.69453 0.8677 0.53084 0.0
C362 C 0.63855 0.83117 0.53736 0.0
C363 C 0.62229 0.78825 0.54133 0.0
C364 C 0.66252 0.78247 0.53869 0.0
C365 C 0.71736 0.81775 0.53244 0.0
C366 C 0.75188 0.80225 0.52948 0.0
C367 C 0.77324 0.80715 0.50025 0.0
C368 C 0.80095 0.82833 0.55139 0.0
C369 C 0.70776 0.75255 0.53471 0.0
C370 C 0.65653 0.7418 0.5402 0.0
C371 C 0.609 0.69749 0.54489 0.0
C372 C 0.61396 0.6633 0.54371 0.0
C373 C 0.66589 0.67386 0.53783 0.0
C374 C 0.71334 0.71888 0.53347 0.0
H375 H 0.78381 0.57744 0.86942 0.0
H376 H 0.66734 0.44783 0.82 0.0
H377 H 0.7378 0.43665 0.82047 0.0
H378 H 0.9134 0.61194 0.83929 0.0
H379 H 0.95456 0.63608 0.8715 0.0
H380 H 0.89587 0.63505 0.86657 0.0
H381 H 0.85176 0.59181 0.90999 0.0
H382 H 0.91037 0.5928 0.91507 0.0
H383 H 0.83921 0.53913 0.91249 0.0
H384 H 0.82328 0.43989 0.82552 0.0
H385 H 0.91119 0.45406 0.83802 0.0
H386 H 0.9726 0.5797 0.88618 0.0
C387 C 0.77322 0.54682 0.85854 0.0
C388 C 0.7192 0.51353 0.84455 0.0
C389 C 0.70756 0.47378 0.83102 0.0
C390 C 0.74778 0.46722 0.83105 0.0
C391 C 0.80024 0.50039 0.84501 0.0
C392 C 0.81287 0.53926 0.85879 0.0
C393 C 0.87164 0.5686 0.87321 0.0
C394 C 0.91121 0.61572 0.86197 0.0
C395 C 0.86801 0.57336 0.90455 0.0
C396 C 0.89008 0.54039 0.86531 0.0
C397 C 0.84842 0.50138 0.84876 0.0
C398 C 0.85596 0.47035 0.83855 0.0
C399 C 0.90657 0.47889 0.84563 0.0
C400 C 0.94976 0.518 0.86317 0.0
C401 C 0.94081 0.54918 0.87293 0.0
H402 H 0.30189 0.77951 0.19299 0.0
H403 H 0.36121 0.73616 0.12876 0.0
H404 H 0.45055 0.81554 0.12914 0.0
H405 H 0.3664 0.89155 0.1706 0.0
H406 H 0.38516 0.91926 0.20511 0.0
H407 H 0.3243 0.85959 0.19864 0.0
H408 H 0.36486 0.83943 0.23454 0.0
H409 H 0.42582 0.89901 0.2411 0.0
H410 H 0.43468 0.85752 0.231 0.0
H411 H 0.53374 0.89943 0.1366 0.0
H412 H 0.60763 0.98111 0.15283 0.0
H413 H 0.49679 0.9698 0.21379 0.0
C414 C 0.33345 0.78688 0.17879 0.0
C415 C 0.32442 0.7517 0.16068 0.0
C416 C 0.36719 0.76254 0.1428 0.0
C417 C 0.41801 0.80757 0.1428 0.0
C418 C 0.42579 0.84139 0.16101 0.0
C419 C 0.38494 0.83159 0.17885 0.0
C420 C 0.40531 0.87387 0.1974 0.0
C421 C 0.36807 0.88683 0.19264 0.0
C422 C 0.40782 0.86703 0.22781 0.0
C423 C 0.46399 0.90887 0.18723 0.0
C424 C 0.47465 0.8895 0.166 0.0
C425 C 0.52585 0.91498 0.15319 0.0
C426 C 0.56746 0.96138 0.16245 0.0
C427 C 0.55795 0.9818 0.18452 0.0
C428 C 0.50535 0.95505 0.19696 0.0
H429 H 0.5955 0.29643 0.48166 0.0
H430 H 0.73842 0.32388 0.52472 0.0
H431 H 0.76341 0.39481 0.54781 0.0
H432 H 0.66771 0.41618 0.47076 0.0
H433 H 0.60487 0.40965 0.4754 0.0
H434 H 0.59923 0.36158 0.46163 0.0
H435 H 0.53289 0.31431 0.50015 0.0
H436 H 0.53872 0.3623 0.51419 0.0
H437 H 0.5564 0.33627 0.53565 0.0
H438 H 0.76845 0.45958 0.56908 0.0
H439 H 0.75819 0.51758 0.58359 0.0
H440 H 0.61643 0.45091 0.52449 0.0
C441 C 0.63273 0.31773 0.4955 0.0
C442 C 0.66453 0.3041 0.50154 0.0
C443 C 0.71254 0.3329 0.52014 0.0
C444 C 0.72736 0.37349 0.53327 0.0
C445 C 0.69431 0.38528 0.52732 0.0
C446 C 0.64853 0.35865 0.50857 0.0
C447 C 0.61981 0.37897 0.50601 0.0
C448 C 0.62313 0.3924 0.47671 0.0
C449 C 0.55833 0.34599 0.51451 0.0
C450 C 0.6561 0.42077 0.52655 0.0
C451 C 0.69867 0.42365 0.53876 0.0
C452 C 0.7358 0.45806 0.5594 0.0
C453 C 0.72954 0.49064 0.5676 0.0
C454 C 0.68695 0.48875 0.55494 0.0
C455 C 0.6499 0.4534 0.53416 0.0
H456 H 0.37124 0.46173 0.85103 0.0
H457 H 0.50156 0.60178 0.83221 0.0
H458 H 0.43289 0.61464 0.83428 0.0
H459 H 0.25822 0.44255 0.81008 0.0
H460 H 0.2045 0.40783 0.83389 0.0
H461 H 0.26415 0.40945 0.83168 0.0
H462 H 0.28702 0.43384 0.8839 0.0
H463 H 0.22759 0.4325 0.88625 0.0
H464 H 0.29715 0.48382 0.89808 0.0
H465 H 0.34962 0.61343 0.83864 0.0
H466 H 0.25782 0.59655 0.84239 0.0
H467 H 0.17764 0.45685 0.85691 0.0
C468 C 0.38542 0.49512 0.84732 0.0
C469 C 0.44301 0.53093 0.84181 0.0
C470 C 0.45872 0.57384 0.83695 0.0
C471 C 0.41961 0.58152 0.83799 0.0
C472 C 0.36376 0.54594 0.84372 0.0
C473 C 0.34639 0.50338 0.84809 0.0
C474 C 0.28323 0.47082 0.85321 0.0
C475 C 0.25059 0.43025 0.83088 0.0
C476 C 0.27316 0.45426 0.88208 0.0
C477 C 0.26796 0.50166 0.85106 0.0
C478 C 0.31537 0.54499 0.84572 0.0
C479 C 0.31237 0.57958 0.84282 0.0
C480 C 0.25991 0.56975 0.84509 0.0
C481 C 0.21036 0.52563 0.85019 0.0
C482 C 0.21473 0.49113 0.85328 0.0
H483 H 1.03758 0.43405 0.14098 0.0
H484 H 0.99201 0.49207 0.20307 0.0
H485 H 0.90862 0.41477 0.21263 0.0
H486 H 0.89533 0.34108 0.11484 0.0
H487 H 0.90703 0.30052 0.10892 0.0
H488 H 0.9647 0.36063 0.10738 0.0
H489 H 1.02241 0.35787 0.14402 0.0
H490 H 0.96481 0.29775 0.14574 0.0
H491 H 0.9926 0.33659 0.17658 0.0
H492 H 0.82938 0.33146 0.21563 0.0
H493 H 0.75703 0.24685 0.20998 0.0
H494 H 0.85123 0.24155 0.14571 0.0
C495 C 1.01014 0.43047 0.15662 0.0
C496 C 1.02171 0.46939 0.17127 0.0
C497 C 0.98437 0.46304 0.19149 0.0
C498 C 0.93678 0.41915 0.19718 0.0
C499 C 0.9266 0.3816 0.18247 0.0
C500 C 0.96192 0.38665 0.1625 0.0
C501 C 0.94002 0.34033 0.14917 0.0
C502 C 0.92593 0.33536 0.11825 0.0
C503 C 0.98249 0.3327 0.15419 0.0
C504 C 0.88693 0.30865 0.16474 0.0
C505 C 0.88028 0.33326 0.18399 0.0
C506 C 0.83417 0.31178 0.20068 0.0
C507 C 0.79342 0.26386 0.19741 0.0
C508 C 0.7991 0.23818 0.17761 0.0
C509 C 0.84647 0.26071 0.16118 0.0
H510 H 1.039 0.54631 0.074 0.0
H511 H 0.22106 0.62908 0.08215 0.0
H512 H 0.22527 0.62623 0.03159 0.0
H513 H 1.01825 0.4732 0.01354 0.0
H514 H 0.9624 0.46953 0.99816 0.0
H515 H 0.97357 0.47743 0.03504 0.0
H516 H 0.98282 0.54994 0.03631 0.0
H517 H 0.97231 0.54257 -0.0006 0.0
H518 H 1.03448 0.59566 0.01603 0.0
H519 H 0.21072 0.61817 0.98043 0.0
H520 H 0.17775 0.59974 0.93169 0.0
H521 H 1.00429 0.5186 0.95595 0.0
C522 C 1.07963 0.56348 0.06509 0.0
C523 C 0.12977 0.58808 0.08199 0.0
C524 C 0.18214 0.61007 0.0696 0.0
C525 C 0.18499 0.60877 0.04089 0.0
C526 C 0.13502 0.58498 0.02479 0.0
C527 C 1.08321 0.56221 0.03636 0.0
C528 C 1.03594 0.53881 0.01422 0.0
C529 C 0.99514 0.48664 0.01531 0.0
C530 C 1.00455 0.5579 0.01664 0.0
C531 C 1.06938 0.55237 0.98846 0.0
C532 C 0.12647 0.57921 0.9951 0.0
C533 C 0.16604 0.59667 0.97496 0.0
C534 C 0.14678 0.58578 0.94726 0.0
C535 C 0.08828 0.55722 0.93974 0.0
C536 C 1.04927 0.54077 0.96083 0.0
H537 H 0.6282 0.05206 0.39444 0.0
H538 H 0.81121 0.14636 0.40358 0.0
H539 H 0.81678 0.16021 0.35476 0.0
H540 H 0.61765 1.00135 0.32804 0.0
H541 H 0.55867 0.99587 0.31537 0.0
H542 H 0.56846 0.99562 0.35163 0.0
H543 H 0.56819 0.06311 0.36201 0.0
H544 H 0.55831 0.06353 0.32573 0.0
H545 H 0.61696 0.1149 0.34546 0.0
H546 H 0.80349 0.16036 0.30472 0.0
H547 H 0.77204 0.14616 0.25607 0.0
H548 H 0.59727 0.05342 0.27858 0.0
C549 C 0.66933 0.07591 0.38615 0.0
C550 C 0.71931 0.0981 0.40275 0.0
C551 C 0.7724 0.12889 0.39121 0.0
C552 C 0.77604 0.13714 0.36351 0.0
C553 C 0.72618 0.11444 0.34757 0.0
C554 C 0.67377 0.08453 0.35838 0.0
C555 C 0.62694 0.06326 0.33628 0.0
C556 C 0.59082 0.01092 0.33262 0.0
C557 C 0.59045 0.07703 0.34276 0.0
C558 C 0.66136 0.08515 0.31136 0.0
C559 C 0.71847 0.11485 0.31845 0.0
C560 C 0.75884 0.1377 0.29892 0.0
C561 C 0.74046 0.12964 0.27129 0.0
C562 C 0.68209 0.09896 0.2633 0.0
C563 C 0.64219 0.07695 0.28384 0.0
H564 H 0.65934 0.54011 0.76021 0.0
H565 H 0.51491 0.53506 0.75923 0.0
H566 H 0.53323 0.55772 0.71176 0.0
H567 H 0.74891 0.63501 0.71388 0.0
H568 H 0.77352 0.60735 0.69688 0.0
H569 H 0.75649 0.60012 0.73253 0.0
H570 H 0.68707 0.51217 0.7211 0.0
H571 H 0.70341 0.51908 0.68546 0.0
H572 H 0.63123 0.48681 0.69494 0.0
H573 H 0.55872 0.57066 0.66322 0.0
H574 H 0.58766 0.57066 0.61603 0.0
H575 H 0.71438 0.56501 0.64711 0.0
C576 C 0.63309 0.54554 0.75025 0.0
C577 C 0.5864 0.53681 0.76332 0.0
C578 C 0.55125 0.54222 0.74948 0.0
C579 C 0.56145 0.55519 0.72261 0.0
C580 C 0.60669 0.56216 0.7098 0.0
C581 C 0.64204 0.55757 0.7231 0.0
C582 C 0.68295 0.56117 0.70345 0.0
C583 C 0.7441 0.60344 0.71221 0.0
C584 C 0.67569 0.51719 0.70111 0.0
C585 C 0.66366 0.56683 0.67693 0.0
C586 C 0.62044 0.56828 0.68123 0.0
C587 C 0.59328 0.57047 0.65965 0.0
C588 C 0.61021 0.57063 0.63288 0.0
C589 C 0.65362 0.56821 0.62781 0.0
C590 C 0.68113 0.56696 0.65029 0.0
H591 H 0.70497 0.1382 0.57257 0.0
H592 H 0.58001 0.99498 0.5432 0.0
H593 H 0.5728 0.9736 0.59062 0.0
H594 H 0.77171 0.12565 0.63006 0.0
H595 H 0.7781 0.1687 0.65256 0.0
H596 H 0.78137 0.17231 0.61589 0.0
H597 H 0.69969 0.1753 0.61627 0.0
H598 H 0.69621 0.17173 0.65284 0.0
H599 H 0.63401 0.13047 0.63061 0.0
H600 H 0.57357 0.96817 0.64158 0.0
H601 H 0.57445 0.97939 0.69234 0.0
H602 H 0.69264 0.12627 0.68889 0.0
C603 C 0.67746 0.10238 0.57617 0.0
C604 C 0.64385 0.06805 0.55443 0.0
C605 C 0.60651 0.02156 0.55975 0.0
C606 C 0.60238 0.00916 0.58654 0.0
C607 C 0.63524 0.04379 0.60779 0.0
C608 C 0.67167 0.08951 0.60296 0.0
C609 C 0.6964 0.12016 0.62972 0.0
C610 C 0.76072 0.14837 0.6322 0.0
C611 C 0.6806 0.15122 0.63251 0.0
C612 C 0.66714 0.08464 0.65032 0.0
C613 C 0.63322 0.04078 0.63728 0.0
C614 C 0.6004 1.00235 0.65203 0.0
C615 C 0.60126 0.00896 0.6808 0.0
C616 C 0.63376 0.0536 0.69436 0.0
C617 C 0.66778 0.09179 0.67893 0.0
H618 H 0.63268 0.50334 0.92709 0.0
H619 H 0.47832 0.48029 0.909 0.0
H620 H 0.43124 0.42687 0.94505 0.0
H621 H 0.56324 0.38612 0.93747 0.0
H622 H 0.61242 0.40006 0.96471 0.0
H623 H 0.63533 0.43855 0.93851 0.0
H624 H 0.66953 0.50457 0.97594 0.0
H625 H 0.64717 0.4664 0.00227 0.0
H626 H 0.62099 0.49707 0.0007 0.0
H627 H 0.40161 0.37754 0.98367 0.0
H628 H 0.3909 0.33439 0.02181 0.0
H629 H 0.56128 0.38314 0.01161 0.0
C630 C 0.58929 0.4875 0.9311 0.0
C631 C 0.5592 0.49625 0.91569 0.0
C632 C 0.50205 0.47413 0.92085 0.0
C633 C 0.47495 0.44372 0.9412 0.0
C634 C 0.50536 0.43523 0.95586 0.0
C635 C 0.56112 0.45619 0.95099 0.0
C636 C 0.58326 0.43953 0.96895 0.0
C637 C 0.5995 0.41458 0.95136 0.0
C638 C 0.63318 0.47926 0.9881 0.0
C639 C 0.53156 0.40664 0.98493 0.0
C640 C 0.48718 0.40478 0.97714 0.0
C641 C 0.43582 0.37822 0.98975 0.0
C642 C 0.42995 0.35342 0.01127 0.0
C643 C 0.47506 0.35502 0.01981 0.0
C644 C 0.52605 0.38141 0.00592 0.0
H645 H 0.16908 0.54572 0.2503 0.0
H646 H 0.17331 0.65774 0.23347 0.0
H647 H 0.15061 0.66333 0.28127 0.0
H648 H 1.05878 0.49518 0.30171 0.0
H649 H 0.09478 0.48389 0.32344 0.0
H650 H 0.10219 0.48311 0.28674 0.0
H651 H 0.21101 0.54342 0.29437 0.0
H652 H 0.2039 0.54397 0.33098 0.0
H653 H 0.24192 0.59657 0.31484 0.0
H654 H 0.13473 0.66128 0.33081 0.0
H655 H 0.13979 0.6592 0.38096 0.0
H656 H 0.15212 0.55222 0.36786 0.0
C657 C 0.16415 0.5708 0.25665 0.0
C658 C 0.17119 0.60042 0.238 0.0
C659 C 0.16632 0.63381 0.24718 0.0
C660 C 0.15342 0.63723 0.27431 0.0
C661 C 0.14641 0.60746 0.29219 0.0
C662 C 0.15248 0.57536 0.28396 0.0
C663 C 0.14985 0.55166 0.30827 0.0
C664 C 0.09832 0.50041 0.30483 0.0
C665 C 0.20495 0.5594 0.31235 0.0
C666 C 0.14306 0.57648 0.33151 0.0
C667 C 0.13969 0.60764 0.32153 0.0
C668 C 0.1367 0.63669 0.33889 0.0
C669 C 0.13946 0.63521 0.36729 0.0
C670 C 0.14573 0.60526 0.37809 0.0
C671 C 0.14591 0.57457 0.36 0.0
loop_
_geom_bond_atom_site_label_1
_geom_bond_atom_site_label_2
_geom_bond_distance
_geom_bond_site_symmetry_2
_ccdc_geom_bond_type
Sm0 C2 2.846 . S
Sm0 O20 2.543 . S
Sm0 O21 2.450 . S
Sm0 O22 2.681 . S
Sm0 O23 2.464 . S
Sm0 O24 2.396 . S
Sm0 O28 2.386 . S
Sm0 O31 2.408 1_455 S
Sm1 C11 2.846 1_455 S
Sm1 O22 2.386 . S
Sm1 O25 2.408 . S
Sm1 O26 2.543 1_455 S
Sm1 O27 2.450 1_455 S
Sm1 O28 2.681 . S
Sm1 O29 2.464 . S
Sm1 O30 2.396 1_455 S
C2 Sm0 2.846 . S
C2 C3 1.506 . S
C2 O20 1.261 . S
C2 O21 1.242 . S
C3 C2 1.506 . S
C3 C4 1.358 . S
C3 C8 1.382 . S
C4 C3 1.358 . S
C4 C5 1.385 . S
C4 H32 0.930 . S
C5 C4 1.385 . S
C5 C6 1.395 . S
C5 H33 0.929 . S
C6 C5 1.395 . S
C6 C7 1.335 . S
C7 C6 1.335 . S
C7 C8 1.398 . S
C7 H34 0.930 . S
C8 C3 1.382 . S
C8 C7 1.398 . S
C8 H35 0.929 . S
C9 O22 1.271 . S
C9 O23 1.251 . S
C10 O24 1.252 . S
C10 O25 1.272 . S
C11 Sm1 2.846 1_655 S
C11 C12 1.506 . S
C11 O26 1.261 . S
C11 O27 1.242 . S
C12 C11 1.506 . S
C12 C13 1.358 . S
C12 C17 1.382 . S
C13 C12 1.358 . S
C13 C14 1.385 . S
C13 H36 0.930 . S
C14 C13 1.385 . S
C14 C15 1.395 . S
C14 H37 0.929 . S
C15 C14 1.395 . S
C15 C16 1.335 . S
C16 C15 1.335 . S
C16 C17 1.398 . S
C16 H38 0.930 . S
C17 C12 1.382 . S
C17 C16 1.398 . S
C17 H39 0.929 . S
C18 O28 1.271 . S
C18 O29 1.251 . S
C19 O30 1.252 . S
C19 O31 1.272 . S
O20 Sm0 2.543 . S
O20 C2 1.261 . S
O21 Sm0 2.450 . S
O21 C2 1.242 . S
O22 Sm0 2.681 . S
O22 Sm1 2.386 . S
O22 C9 1.271 . S
O23 Sm0 2.464 . S
O23 C9 1.251 . S
O24 Sm0 2.396 . S
O24 C10 1.252 . S
O25 Sm1 2.408 . S
O25 C10 1.272 . S
O26 Sm1 2.543 1_655 S
O26 C11 1.261 . S
O27 Sm1 2.450 1_655 S
O27 C11 1.242 . S
O28 Sm0 2.386 . S
O28 Sm1 2.681 . S
O28 C18 1.271 . S
O29 Sm1 2.464 . S
O29 C18 1.251 . S
O30 Sm1 2.396 1_655 S
O30 C19 1.252 . S
O31 Sm0 2.408 1_655 S
O31 C19 1.272 . S
H32 C4 0.930 . S
H33 C5 0.929 . S
H34 C7 0.930 . S
H35 C8 0.929 . S
H36 C13 0.930 . S
H37 C14 0.929 . S
H38 C16 0.930 . S
H39 C17 0.929 . S
Sm40 C42 2.846 1_545 S
Sm40 O60 2.543 1_545 S
Sm40 O61 2.450 1_545 S
Sm40 O62 2.681 . S
Sm40 O63 2.464 . S
Sm40 O64 2.396 1_545 S
Sm40 O68 2.386 . S
Sm40 O71 2.408 . S
Sm41 C51 2.846 . S
Sm41 O62 2.386 . S
Sm41 O65 2.408 1_545 S
Sm41 O66 2.543 . S
Sm41 O67 2.450 . S
Sm41 O68 2.681 . S
Sm41 O69 2.464 . S
Sm41 O70 2.396 . S
C42 Sm40 2.846 1_565 S
C42 C43 1.506 . S
C42 O60 1.261 . S
C42 O61 1.242 . S
C43 C42 1.506 . S
C43 C44 1.358 . S
C43 C48 1.382 . S
C44 C43 1.358 . S
C44 C45 1.385 . S
C44 H72 0.930 . S
C45 C44 1.385 . S
C45 C46 1.395 . S
C45 H73 0.929 . S
C46 C45 1.395 . S
C46 C47 1.335 . S
C47 C46 1.335 . S
C47 C48 1.398 . S
C47 H74 0.930 . S
C48 C43 1.382 . S
C48 C47 1.398 . S
C48 H75 0.929 . S
C49 O62 1.271 . S
C49 O63 1.251 . S
C50 O64 1.252 . S
C50 O65 1.272 . S
C51 Sm41 2.846 . S
C51 C52 1.506 . S
C51 O66 1.261 . S
C51 O67 1.242 . S
C52 C51 1.506 . S
C52 C53 1.358 . S
C52 C57 1.382 . S
C53 C52 1.358 . S
C53 C54 1.385 . S
C53 H76 0.930 . S
C54 C53 1.385 . S
C54 C55 1.395 . S
C54 H77 0.929 . S
C55 C54 1.395 . S
C55 C56 1.335 . S
C56 C55 1.335 . S
C56 C57 1.398 . S
C56 H78 0.930 . S
C57 C52 1.382 . S
C57 C56 1.398 . S
C57 H79 0.929 . S
C58 O68 1.271 . S
C58 O69 1.251 . S
C59 O70 1.252 . S
C59 O71 1.272 . S
O60 Sm40 2.543 1_565 S
O60 C42 1.261 . S
O61 Sm40 2.450 1_565 S
O61 C42 1.242 . S
O62 Sm40 2.681 . S
O62 Sm41 2.386 . S
O62 C49 1.271 . S
O63 Sm40 2.464 . S
O63 C49 1.251 . S
O64 Sm40 2.396 1_565 S
O64 C50 1.252 . S
O65 Sm41 2.408 1_565 S
O65 C50 1.272 . S
O66 Sm41 2.543 . S
O66 C51 1.261 . S
O67 Sm41 2.450 . S
O67 C51 1.242 . S
O68 Sm40 2.386 . S
O68 Sm41 2.681 . S
O68 C58 1.271 . S
O69 Sm41 2.464 . S
O69 C58 1.251 . S
O70 Sm41 2.396 . S
O70 C59 1.252 . S
O71 Sm40 2.408 . S
O71 C59 1.272 . S
H72 C44 0.930 . S
H73 C45 0.929 . S
H74 C47 0.930 . S
H75 C48 0.929 . S
H76 C53 0.930 . S
H77 C54 0.929 . S
H78 C56 0.930 . S
H79 C57 0.929 . S
Sm80 C82 2.846 . S
Sm80 O100 2.543 . S
Sm80 O101 2.450 . S
Sm80 O102 2.681 . S
Sm80 O103 2.464 . S
Sm80 O104 2.396 . S
Sm80 O108 2.386 . S
Sm80 O111 2.408 . S
Sm81 C91 2.846 . S
Sm81 O102 2.386 . S
Sm81 O105 2.408 . S
Sm81 O106 2.543 . S
Sm81 O107 2.450 . S
Sm81 O108 2.681 . S
Sm81 O109 2.464 . S
Sm81 O110 2.396 . S
C82 Sm80 2.846 . S
C82 C83 1.506 . S
C82 O100 1.261 . S
C82 O101 1.242 . S
C83 C82 1.506 . S
C83 C84 1.358 . S
C83 C88 1.382 . S
C84 C83 1.358 . S
C84 C85 1.385 . S
C84 H112 0.930 . S
C85 C84 1.385 . S
C85 C86 1.395 . S
C85 H113 0.929 . S
C86 C85 1.395 . S
C86 C87 1.335 . S
C87 C86 1.335 . S
C87 C88 1.398 . S
C87 H114 0.930 . S
C88 C83 1.382 . S
C88 C87 1.398 . S
C88 H115 0.929 . S
C89 O102 1.271 . S
C89 O103 1.251 . S
C90 O104 1.252 . S
C90 O105 1.272 . S
C91 Sm81 2.846 . S
C91 C92 1.506 . S
C91 O106 1.261 . S
C91 O107 1.242 . S
C92 C91 1.506 . S
C92 C93 1.358 . S
C92 C97 1.382 . S
C93 C92 1.358 . S
C93 C94 1.385 . S
C93 H116 0.930 . S
C94 C93 1.385 . S
C94 C95 1.395 . S
C94 H117 0.929 . S
C95 C94 1.395 . S
C95 C96 1.335 . S
C96 C95 1.335 . S
C96 C97 1.398 . S
C96 H118 0.930 . S
C97 C92 1.382 . S
C97 C96 1.398 . S
C97 H119 0.929 . S
C98 O108 1.271 . S
C98 O109 1.251 . S
C99 O110 1.252 . S
C99 O111 1.272 . S
O100 Sm80 2.543 . S
O100 C82 1.261 . S
O101 Sm80 2.450 . S
O101 C82 1.242 . S
O102 Sm80 2.681 . S
O102 Sm81 2.386 . S
O102 C89 1.271 . S
O103 Sm80 2.464 . S
O103 C89 1.251 . S
O104 Sm80 2.396 . S
O104 C90 1.252 . S
O105 Sm81 2.408 . S
O105 C90 1.272 . S
O106 Sm81 2.543 . S
O106 C91 1.261 . S
O107 Sm81 2.450 . S
O107 C91 1.242 . S
O108 Sm80 2.386 . S
O108 Sm81 2.681 . S
O108 C98 1.271 . S
O109 Sm81 2.464 . S
O109 C98 1.251 . S
O110 Sm81 2.396 . S
O110 C99 1.252 . S
O111 Sm80 2.408 . S
O111 C99 1.272 . S
H112 C84 0.930 . S
H113 C85 0.929 . S
H114 C87 0.930 . S
H115 C88 0.929 . S
H116 C93 0.930 . S
H117 C94 0.929 . S
H118 C96 0.930 . S
H119 C97 0.929 . S
H120 C123 0.929 . S
H121 C126 0.929 . S
H122 C128 0.930 . S
C123 H120 0.929 . S
C123 C124 1.398 . S
C123 C125 1.396 1_565 S
C124 C123 1.398 . S
C124 C128 1.407 1_565 S
C125 C123 1.396 1_545 S
C125 C126 1.394 . S
C126 H121 0.929 . S
C126 C125 1.394 . S
C126 C127 1.382 . S
C127 C126 1.382 . S
C127 C128 1.392 . S
C127 N129 1.420 . S
C128 H122 0.930 . S
C128 C124 1.407 1_545 S
C128 C127 1.392 . S
N129 C127 1.420 . S
N129 C130 1.244 . S
C130 N129 1.244 . S
H131 C134 0.929 . S
H132 C137 0.929 . S
H133 C139 0.930 . S
C134 H131 0.929 . S
C134 C135 1.398 . S
C134 C136 1.396 . S
C135 C134 1.398 . S
C135 C139 1.407 . S
C136 C134 1.396 . S
C136 C137 1.394 . S
C137 H132 0.929 . S
C137 C136 1.394 . S
C137 C138 1.382 . S
C138 C137 1.382 . S
C138 C139 1.392 . S
C138 N140 1.420 . S
C139 H133 0.930 . S
C139 C135 1.407 . S
C139 C138 1.392 . S
N140 C138 1.420 . S
N140 C141 1.244 . S
C141 N140 1.244 . S
H142 C145 0.929 . S
H143 C148 0.929 . S
H144 C150 0.930 . S
C145 H142 0.929 . S
C145 C146 1.398 . S
C145 C147 1.396 . S
C146 C145 1.398 . S
C146 C150 1.407 . S
C147 C145 1.396 . S
C147 C148 1.394 . S
C148 H143 0.929 . S
C148 C147 1.394 . S
C148 C149 1.382 . S
C149 C148 1.382 . S
C149 C150 1.392 . S
C149 N151 1.420 . S
C150 H144 0.930 . S
C150 C146 1.407 . S
C150 C149 1.392 . S
N151 C149 1.420 . S
N151 C152 1.244 . S
C152 N151 1.244 . S
H153 C156 0.929 . S
H154 C159 0.929 . S
H155 C161 0.930 . S
C156 H153 0.929 . S
C156 C157 1.398 . S
C156 C158 1.396 . S
C157 C156 1.398 . S
C157 C161 1.407 . S
C158 C156 1.396 . S
C158 C159 1.394 1_455 S
C159 H154 0.929 . S
C159 C158 1.394 1_655 S
C159 C160 1.382 . S
C160 C159 1.382 . S
C160 C161 1.392 1_655 S
C160 N162 1.420 . S
C161 H155 0.930 . S
C161 C157 1.407 . S
C161 C160 1.392 1_455 S
N162 C160 1.420 . S
N162 C163 1.244 . S
C163 N162 1.244 . S
H164 C167 0.929 . S
H165 C170 0.929 1_565 S
H166 C172 0.930 . S
C167 H164 0.929 . S
C167 C168 1.398 . S
C167 C169 1.396 . S
C168 C167 1.398 . S
C168 C172 1.407 . S
C169 C167 1.396 . S
C169 C170 1.394 . S
C170 H165 0.929 1_545 S
C170 C169 1.394 . S
C170 C171 1.382 . S
C171 C170 1.382 . S
C171 C172 1.392 . S
C171 N173 1.420 . S
C172 H166 0.930 . S
C172 C168 1.407 . S
C172 C171 1.392 . S
N173 C171 1.420 . S
N173 C174 1.244 1_545 S
C174 N173 1.244 1_565 S
H175 C178 0.929 . S
H176 C181 0.929 . S
H177 C183 0.930 . S
C178 H175 0.929 . S
C178 C179 1.398 . S
C178 C180 1.396 . S
C179 C178 1.398 . S
C179 C183 1.407 . S
C180 C178 1.396 . S
C180 C181 1.394 . S
C181 H176 0.929 . S
C181 C180 1.394 . S
C181 C182 1.382 . S
C182 C181 1.382 . S
C182 C183 1.392 . S
C182 N184 1.420 . S
C183 H177 0.930 . S
C183 C179 1.407 . S
C183 C182 1.392 . S
N184 C182 1.420 . S
N184 C185 1.244 . S
C185 N184 1.244 . S
H186 C198 0.930 . S
H187 C200 0.930 . S
H188 C201 0.930 . S
H189 C205 0.959 . S
H190 C205 0.959 . S
H191 C205 0.961 . S
H192 C206 0.960 . S
H193 C206 0.961 . S
H194 C206 0.959 . S
H195 C209 0.929 . S
H196 C210 0.931 . S
H197 C212 0.930 . S
C198 H186 0.930 . S
C198 C199 1.399 . S
C198 C203 1.399 . S
C199 C198 1.399 . S
C199 C200 1.376 . S
C200 H187 0.930 . S
C200 C199 1.376 . S
C200 C201 1.388 . S
C201 H188 0.930 . S
C201 C200 1.388 . S
C201 C202 1.390 . S
C202 C201 1.390 . S
C202 C203 1.394 . S
C202 C208 1.465 . S
C203 C198 1.399 . S
C203 C202 1.394 . S
C203 C204 1.516 . S
C204 C203 1.516 . S
C204 C205 1.502 . S
C204 C206 1.561 . S
C204 C207 1.526 . S
C205 H189 0.959 . S
C205 H190 0.959 . S
C205 H191 0.961 . S
C205 C204 1.502 . S
C206 H192 0.960 . S
C206 H193 0.961 . S
C206 H194 0.959 . S
C206 C204 1.561 . S
C207 C204 1.526 . S
C207 C208 1.396 . S
C207 C212 1.390 . S
C208 C202 1.465 . S
C208 C207 1.396 . S
C208 C209 1.399 . S
C209 H195 0.929 . S
C209 C208 1.399 . S
C209 C210 1.385 . S
C210 H196 0.931 . S
C210 C209 1.385 . S
C210 C211 1.389 . S
C211 C210 1.389 . S
C211 C212 1.387 . S
C212 H197 0.930 . S
C212 C207 1.390 . S
C212 C211 1.387 . S
H213 C225 0.930 . S
H214 C227 0.930 . S
H215 C228 0.930 . S
H216 C232 0.959 . S
H217 C232 0.959 . S
H218 C232 0.961 . S
H219 C233 0.960 . S
H220 C233 0.961 . S
H221 C233 0.959 . S
H222 C236 0.929 . S
H223 C237 0.931 . S
H224 C239 0.930 . S
C225 H213 0.930 . S
C225 C226 1.399 . S
C225 C230 1.399 . S
C226 C225 1.399 . S
C226 C227 1.376 . S
C227 H214 0.930 . S
C227 C226 1.376 . S
C227 C228 1.388 . S
C228 H215 0.930 . S
C228 C227 1.388 . S
C228 C229 1.390 . S
C229 C228 1.390 . S
C229 C230 1.394 . S
C229 C235 1.465 . S
C230 C225 1.399 . S
C230 C229 1.394 . S
C230 C231 1.516 . S
C231 C230 1.516 . S
C231 C232 1.502 . S
C231 C233 1.561 . S
C231 C234 1.526 . S
C232 H216 0.959 . S
C232 H217 0.959 . S
C232 H218 0.961 . S
C232 C231 1.502 . S
C233 H219 0.960 . S
C233 H220 0.961 . S
C233 H221 0.959 . S
C233 C231 1.561 . S
C234 C231 1.526 . S
C234 C235 1.396 . S
C234 C239 1.390 . S
C235 C229 1.465 . S
C235 C234 1.396 . S
C235 C236 1.399 . S
C236 H222 0.929 . S
C236 C235 1.399 . S
C236 C237 1.385 . S
C237 H223 0.931 . S
C237 C236 1.385 . S
C237 C238 1.389 . S
C238 C237 1.389 . S
C238 C239 1.387 . S
C239 H224 0.930 . S
C239 C234 1.390 . S
C239 C238 1.387 . S
H240 C252 0.930 . S
H241 C254 0.930 . S
H242 C255 0.930 . S
H243 C259 0.959 . S
H244 C259 0.959 . S
H245 C259 0.961 . S
H246 C260 0.960 . S
H247 C260 0.961 . S
H248 C260 0.959 . S
H249 C263 0.929 . S
H250 C264 0.931 . S
H251 C266 0.930 . S
C252 H240 0.930 . S
C252 C253 1.399 . S
C252 C257 1.399 . S
C253 C252 1.399 . S
C253 C254 1.376 . S
C254 H241 0.930 . S
C254 C253 1.376 . S
C254 C255 1.388 . S
C255 H242 0.930 . S
C255 C254 1.388 . S
C255 C256 1.390 . S
C256 C255 1.390 . S
C256 C257 1.394 . S
C256 C262 1.465 . S
C257 C252 1.399 . S
C257 C256 1.394 . S
C257 C258 1.516 . S
C258 C257 1.516 . S
C258 C259 1.502 . S
C258 C260 1.561 . S
C258 C261 1.526 . S
C259 H243 0.959 . S
C259 H244 0.959 . S
C259 H245 0.961 . S
C259 C258 1.502 . S
C260 H246 0.960 . S
C260 H247 0.961 . S
C260 H248 0.959 . S
C260 C258 1.561 . S
C261 C258 1.526 . S
C261 C262 1.396 . S
C261 C266 1.390 . S
C262 C256 1.465 . S
C262 C261 1.396 . S
C262 C263 1.399 . S
C263 H249 0.929 . S
C263 C262 1.399 . S
C263 C264 1.385 . S
C264 H250 0.931 . S
C264 C263 1.385 . S
C264 C265 1.389 . S
C265 C264 1.389 . S
C265 C266 1.387 . S
C266 H251 0.930 . S
C266 C261 1.390 . S
C266 C265 1.387 . S
H267 C279 0.930 . S
H268 C281 0.930 . S
H269 C282 0.930 . S
H270 C286 0.959 . S
H271 C286 0.959 . S
H272 C286 0.961 . S
H273 C287 0.960 . S
H274 C287 0.961 . S
H275 C287 0.959 . S
H276 C290 0.929 . S
H277 C291 0.931 . S
H278 C293 0.930 . S
C279 H267 0.930 . S
C279 C280 1.399 . S
C279 C284 1.399 . S
C280 C279 1.399 . S
C280 C281 1.376 . S
C281 H268 0.930 . S
C281 C280 1.376 . S
C281 C282 1.388 . S
C282 H269 0.930 . S
C282 C281 1.388 . S
C282 C283 1.390 . S
C283 C282 1.390 . S
C283 C284 1.394 . S
C283 C289 1.465 . S
C284 C279 1.399 . S
C284 C283 1.394 . S
C284 C285 1.516 . S
C285 C284 1.516 . S
C285 C286 1.502 . S
C285 C287 1.561 . S
C285 C288 1.526 . S
C286 H270 0.959 . S
C286 H271 0.959 . S
C286 H272 0.961 . S
C286 C285 1.502 . S
C287 H273 0.960 . S
C287 H274 0.961 . S
C287 H275 0.959 . S
C287 C285 1.561 . S
C288 C285 1.526 . S
C288 C289 1.396 . S
C288 C293 1.390 . S
C289 C283 1.465 . S
C289 C288 1.396 . S
C289 C290 1.399 . S
C290 H276 0.929 . S
C290 C289 1.399 . S
C290 C291 1.385 . S
C291 H277 0.931 . S
C291 C290 1.385 . S
C291 C292 1.389 . S
C292 C291 1.389 . S
C292 C293 1.387 . S
C293 H278 0.930 . S
C293 C288 1.390 . S
C293 C292 1.387 . S
H294 C306 0.930 . S
H295 C308 0.930 . S
H296 C309 0.930 . S
H297 C313 0.959 . S
H298 C313 0.959 . S
H299 C313 0.961 . S
H300 C314 0.960 . S
H301 C314 0.961 . S
H302 C314 0.959 . S
H303 C317 0.929 . S
H304 C318 0.931 . S
H305 C320 0.930 . S
C306 H294 0.930 . S
C306 C307 1.399 . S
C306 C311 1.399 . S
C307 C306 1.399 . S
C307 C308 1.376 . S
C308 H295 0.930 . S
C308 C307 1.376 . S
C308 C309 1.388 . S
C309 H296 0.930 . S
C309 C308 1.388 . S
C309 C310 1.390 . S
C310 C309 1.390 . S
C310 C311 1.394 . S
C310 C316 1.465 . S
C311 C306 1.399 . S
C311 C310 1.394 . S
C311 C312 1.516 . S
C312 C311 1.516 . S
C312 C313 1.502 . S
C312 C314 1.561 . S
C312 C315 1.526 . S
C313 H297 0.959 . S
C313 H298 0.959 . S
C313 H299 0.961 . S
C313 C312 1.502 . S
C314 H300 0.960 . S
C314 H301 0.961 . S
C314 H302 0.959 . S
C314 C312 1.561 . S
C315 C312 1.526 . S
C315 C316 1.396 . S
C315 C320 1.390 . S
C316 C310 1.465 . S
C316 C315 1.396 . S
C316 C317 1.399 . S
C317 H303 0.929 . S
C317 C316 1.399 . S
C317 C318 1.385 . S
C318 H304 0.931 . S
C318 C317 1.385 . S
C318 C319 1.389 . S
C319 C318 1.389 . S
C319 C320 1.387 . S
C320 H305 0.930 . S
C320 C315 1.390 . S
C320 C319 1.387 . S
H321 C333 0.930 . S
H322 C335 0.930 . S
H323 C336 0.930 . S
H324 C340 0.959 . S
H325 C340 0.959 . S
H326 C340 0.961 . S
H327 C341 0.960 . S
H328 C341 0.961 . S
H329 C341 0.959 . S
H330 C344 0.929 . S
H331 C345 0.931 . S
H332 C347 0.930 . S
C333 H321 0.930 . S
C333 C334 1.399 . S
C333 C338 1.399 . S
C334 C333 1.399 . S
C334 C335 1.376 . S
C335 H322 0.930 . S
C335 C334 1.376 . S
C335 C336 1.388 . S
C336 H323 0.930 . S
C336 C335 1.388 . S
C336 C337 1.390 . S
C337 C336 1.390 . S
C337 C338 1.394 . S
C337 C343 1.465 . S
C338 C333 1.399 . S
C338 C337 1.394 . S
C338 C339 1.516 . S
C339 C338 1.516 . S
C339 C340 1.502 . S
C339 C341 1.561 . S
C339 C342 1.526 . S
C340 H324 0.959 . S
C340 H325 0.959 . S
C340 H326 0.961 . S
C340 C339 1.502 . S
C341 H327 0.960 . S
C341 H328 0.961 . S
C341 H329 0.959 . S
C341 C339 1.561 . S
C342 C339 1.526 . S
C342 C343 1.396 . S
C342 C347 1.390 . S
C343 C337 1.465 . S
C343 C342 1.396 . S
C343 C344 1.399 . S
C344 H330 0.929 . S
C344 C343 1.399 . S
C344 C345 1.385 . S
C345 H331 0.931 . S
C345 C344 1.385 . S
C345 C346 1.389 . S
C346 C345 1.389 . S
C346 C347 1.387 . S
C347 H332 0.930 . S
C347 C342 1.390 . S
C347 C346 1.387 . S
H348 C360 0.930 . S
H349 C362 0.930 . S
H350 C363 0.930 . S
H351 C367 0.959 . S
H352 C367 0.959 . S
H353 C367 0.961 . S
H354 C368 0.960 . S
H355 C368 0.961 . S
H356 C368 0.959 . S
H357 C371 0.929 . S
H358 C372 0.931 . S
H359 C374 0.930 . S
C360 H348 0.930 . S
C360 C361 1.399 . S
C360 C365 1.399 . S
C361 C360 1.399 . S
C361 C362 1.376 . S
C362 H349 0.930 . S
C362 C361 1.376 . S
C362 C363 1.388 . S
C363 H350 0.930 . S
C363 C362 1.388 . S
C363 C364 1.390 . S
C364 C363 1.390 . S
C364 C365 1.394 . S
C364 C370 1.465 . S
C365 C360 1.399 . S
C365 C364 1.394 . S
C365 C366 1.516 . S
C366 C365 1.516 . S
C366 C367 1.502 . S
C366 C368 1.561 . S
C366 C369 1.526 . S
C367 H351 0.959 . S
C367 H352 0.959 . S
C367 H353 0.961 . S
C367 C366 1.502 . S
C368 H354 0.960 . S
C368 H355 0.961 . S
C368 H356 0.959 . S
C368 C366 1.561 . S
C369 C366 1.526 . S
C369 C370 1.396 . S
C369 C374 1.390 . S
C370 C364 1.465 . S
C370 C369 1.396 . S
C370 C371 1.399 . S
C371 H357 0.929 . S
C371 C370 1.399 . S
C371 C372 1.385 . S
C372 H358 0.931 . S
C372 C371 1.385 . S
C372 C373 1.389 . S
C373 C372 1.389 . S
C373 C374 1.387 . S
C374 H359 0.930 . S
C374 C369 1.390 . S
C374 C373 1.387 . S
H375 C387 0.930 . S
H376 C389 0.930 . S
H377 C390 0.930 . S
H378 C394 0.959 . S
H379 C394 0.959 . S
H380 C394 0.961 . S
H381 C395 0.960 . S
H382 C395 0.961 . S
H383 C395 0.959 . S
H384 C398 0.929 . S
H385 C399 0.931 . S
H386 C401 0.930 . S
C387 H375 0.930 . S
C387 C388 1.399 . S
C387 C392 1.399 . S
C388 C387 1.399 . S
C388 C389 1.376 . S
C389 H376 0.930 . S
C389 C388 1.376 . S
C389 C390 1.388 . S
C390 H377 0.930 . S
C390 C389 1.388 . S
C390 C391 1.390 . S
C391 C390 1.390 . S
C391 C392 1.394 . S
C391 C397 1.465 . S
C392 C387 1.399 . S
C392 C391 1.394 . S
C392 C393 1.516 . S
C393 C392 1.516 . S
C393 C394 1.502 . S
C393 C395 1.561 . S
C393 C396 1.526 . S
C394 H378 0.959 . S
C394 H379 0.959 . S
C394 H380 0.961 . S
C394 C393 1.502 . S
C395 H381 0.960 . S
C395 H382 0.961 . S
C395 H383 0.959 . S
C395 C393 1.561 . S
C396 C393 1.526 . S
C396 C397 1.396 . S
C396 C401 1.390 . S
C397 C391 1.465 . S
C397 C396 1.396 . S
C397 C398 1.399 . S
C398 H384 0.929 . S
C398 C397 1.399 . S
C398 C399 1.385 . S
C399 H385 0.931 . S
C399 C398 1.385 . S
C399 C400 1.389 . S
C400 C399 1.389 . S
C400 C401 1.387 . S
C401 H386 0.930 . S
C401 C396 1.390 . S
C401 C400 1.387 . S
H402 C414 0.930 . S
H403 C416 0.930 . S
H404 C417 0.930 . S
H405 C421 0.959 . S
H406 C421 0.959 . S
H407 C421 0.961 . S
H408 C422 0.960 . S
H409 C422 0.961 . S
H410 C422 0.959 . S
H411 C425 0.929 . S
H412 C426 0.931 . S
H413 C428 0.930 . S
C414 H402 0.930 . S
C414 C415 1.399 . S
C414 C419 1.399 . S
C415 C414 1.399 . S
C415 C416 1.376 . S
C416 H403 0.930 . S
C416 C415 1.376 . S
C416 C417 1.388 . S
C417 H404 0.930 . S
C417 C416 1.388 . S
C417 C418 1.390 . S
C418 C417 1.390 . S
C418 C419 1.394 . S
C418 C424 1.465 . S
C419 C414 1.399 . S
C419 C418 1.394 . S
C419 C420 1.516 . S
C420 C419 1.516 . S
C420 C421 1.502 . S
C420 C422 1.561 . S
C420 C423 1.526 . S
C421 H405 0.959 . S
C421 H406 0.959 . S
C421 H407 0.961 . S
C421 C420 1.502 . S
C422 H408 0.960 . S
C422 H409 0.961 . S
C422 H410 0.959 . S
C422 C420 1.561 . S
C423 C420 1.526 . S
C423 C424 1.396 . S
C423 C428 1.390 . S
C424 C418 1.465 . S
C424 C423 1.396 . S
C424 C425 1.399 . S
C425 H411 0.929 . S
C425 C424 1.399 . S
C425 C426 1.385 . S
C426 H412 0.931 . S
C426 C425 1.385 . S
C426 C427 1.389 . S
C427 C426 1.389 . S
C427 C428 1.387 . S
C428 H413 0.930 . S
C428 C423 1.390 . S
C428 C427 1.387 . S
H429 C441 0.930 . S
H430 C443 0.930 . S
H431 C444 0.930 . S
H432 C448 0.959 . S
H433 C448 0.959 . S
H434 C448 0.961 . S
H435 C449 0.960 . S
H436 C449 0.961 . S
H437 C449 0.959 . S
H438 C452 0.929 . S
H439 C453 0.931 . S
H440 C455 0.930 . S
C441 H429 0.930 . S
C441 C442 1.399 . S
C441 C446 1.399 . S
C442 C441 1.399 . S
C442 C443 1.376 . S
C443 H430 0.930 . S
C443 C442 1.376 . S
C443 C444 1.388 . S
C444 H431 0.930 . S
C444 C443 1.388 . S
C444 C445 1.390 . S
C445 C444 1.390 . S
C445 C446 1.394 . S
C445 C451 1.465 . S
C446 C441 1.399 . S
C446 C445 1.394 . S
C446 C447 1.516 . S
C447 C446 1.516 . S
C447 C448 1.502 . S
C447 C449 1.561 . S
C447 C450 1.526 . S
C448 H432 0.959 . S
C448 H433 0.959 . S
C448 H434 0.961 . S
C448 C447 1.502 . S
C449 H435 0.960 . S
C449 H436 0.961 . S
C449 H437 0.959 . S
C449 C447 1.561 . S
C450 C447 1.526 . S
C450 C451 1.396 . S
C450 C455 1.390 . S
C451 C445 1.465 . S
C451 C450 1.396 . S
C451 C452 1.399 . S
C452 H438 0.929 . S
C452 C451 1.399 . S
C452 C453 1.385 . S
C453 H439 0.931 . S
C453 C452 1.385 . S
C453 C454 1.389 . S
C454 C453 1.389 . S
C454 C455 1.387 . S
C455 H440 0.930 . S
C455 C450 1.390 . S
C455 C454 1.387 . S
H456 C468 0.930 . S
H457 C470 0.930 . S
H458 C471 0.930 . S
H459 C475 0.959 . S
H460 C475 0.959 . S
H461 C475 0.961 . S
H462 C476 0.960 . S
H463 C476 0.961 . S
H464 C476 0.959 . S
H465 C479 0.929 . S
H466 C480 0.931 . S
H467 C482 0.930 . S
C468 H456 0.930 . S
C468 C469 1.399 . S
C468 C473 1.399 . S
C469 C468 1.399 . S
C469 C470 1.376 . S
C470 H457 0.930 . S
C470 C469 1.376 . S
C470 C471 1.388 . S
C471 H458 0.930 . S
C471 C470 1.388 . S
C471 C472 1.390 . S
C472 C471 1.390 . S
C472 C473 1.394 . S
C472 C478 1.465 . S
C473 C468 1.399 . S
C473 C472 1.394 . S
C473 C474 1.516 . S
C474 C473 1.516 . S
C474 C475 1.502 . S
C474 C476 1.561 . S
C474 C477 1.526 . S
C475 H459 0.959 . S
C475 H460 0.959 . S
C475 H461 0.961 . S
C475 C474 1.502 . S
C476 H462 0.960 . S
C476 H463 0.961 . S
C476 H464 0.959 . S
C476 C474 1.561 . S
C477 C474 1.526 . S
C477 C478 1.396 . S
C477 C482 1.390 . S
C478 C472 1.465 . S
C478 C477 1.396 . S
C478 C479 1.399 . S
C479 H465 0.929 . S
C479 C478 1.399 . S
C479 C480 1.385 . S
C480 H466 0.931 . S
C480 C479 1.385 . S
C480 C481 1.389 . S
C481 C480 1.389 . S
C481 C482 1.387 . S
C482 H467 0.930 . S
C482 C477 1.390 . S
C482 C481 1.387 . S
H483 C495 0.930 . S
H484 C497 0.930 . S
H485 C498 0.930 . S
H486 C502 0.959 . S
H487 C502 0.959 . S
H488 C502 0.961 . S
H489 C503 0.960 . S
H490 C503 0.961 . S
H491 C503 0.959 . S
H492 C506 0.929 . S
H493 C507 0.931 . S
H494 C509 0.930 . S
C495 H483 0.930 . S
C495 C496 1.399 . S
C495 C500 1.399 . S
C496 C495 1.399 . S
C496 C497 1.376 . S
C497 H484 0.930 . S
C497 C496 1.376 . S
C497 C498 1.388 . S
C498 H485 0.930 . S
C498 C497 1.388 . S
C498 C499 1.390 . S
C499 C498 1.390 . S
C499 C500 1.394 . S
C499 C505 1.465 . S
C500 C495 1.399 . S
C500 C499 1.394 . S
C500 C501 1.516 . S
C501 C500 1.516 . S
C501 C502 1.502 . S
C501 C503 1.561 . S
C501 C504 1.526 . S
C502 H486 0.959 . S
C502 H487 0.959 . S
C502 H488 0.961 . S
C502 C501 1.502 . S
C503 H489 0.960 . S
C503 H490 0.961 . S
C503 H491 0.959 . S
C503 C501 1.561 . S
C504 C501 1.526 . S
C504 C505 1.396 . S
C504 C509 1.390 . S
C505 C499 1.465 . S
C505 C504 1.396 . S
C505 C506 1.399 . S
C506 H492 0.929 . S
C506 C505 1.399 . S
C506 C507 1.385 . S
C507 H493 0.931 . S
C507 C506 1.385 . S
C507 C508 1.389 . S
C508 C507 1.389 . S
C508 C509 1.387 . S
C509 H494 0.930 . S
C509 C504 1.390 . S
C509 C508 1.387 . S
H510 C522 0.930 . S
H511 C524 0.930 . S
H512 C525 0.930 . S
H513 C529 0.959 . S
H514 C529 0.959 1_556 S
H515 C529 0.961 . S
H516 C530 0.960 . S
H517 C530 0.961 1_556 S
H518 C530 0.960 . S
H519 C533 0.929 . S
H520 C534 0.931 . S
H521 C536 0.930 . S
C522 H510 0.930 . S
C522 C523 1.399 . S
C522 C527 1.399 . S
C523 C522 1.399 . S
C523 C524 1.376 . S
C524 H511 0.930 . S
C524 C523 1.376 . S
C524 C525 1.388 . S
C525 H512 0.930 . S
C525 C524 1.388 . S
C525 C526 1.390 . S
C526 C525 1.390 . S
C526 C527 1.394 . S
C526 C532 1.465 1_554 S
C527 C522 1.399 . S
C527 C526 1.394 . S
C527 C528 1.516 . S
C528 C527 1.516 . S
C528 C529 1.502 . S
C528 C530 1.561 1_455 S
C528 C531 1.526 1_554 S
C529 H513 0.959 . S
C529 H514 0.959 1_554 S
C529 H515 0.961 . S
C529 C528 1.502 . S
C530 H516 0.960 . S
C530 H517 0.961 1_554 S
C530 H518 0.960 . S
C530 C528 1.561 1_655 S
C531 C528 1.526 1_556 S
C531 C532 1.396 . S
C531 C536 1.390 . S
C532 C526 1.465 1_556 S
C532 C531 1.396 . S
C532 C533 1.399 . S
C533 H519 0.929 . S
C533 C532 1.399 . S
C533 C534 1.385 . S
C534 H520 0.931 . S
C534 C533 1.385 . S
C534 C535 1.389 . S
C535 C534 1.389 . S
C535 C536 1.387 . S
C536 H521 0.930 . S
C536 C531 1.390 . S
C536 C535 1.387 . S
H537 C549 0.930 . S
H538 C551 0.930 . S
H539 C552 0.930 . S
H540 C556 0.959 . S
H541 C556 0.959 . S
H542 C556 0.961 . S
H543 C557 0.960 . S
H544 C557 0.961 . S
H545 C557 0.959 . S
H546 C560 0.929 . S
H547 C561 0.931 . S
H548 C563 0.930 . S
C549 H537 0.930 . S
C549 C550 1.399 . S
C549 C554 1.399 . S
C550 C549 1.399 . S
C550 C551 1.376 1_545 S
C551 H538 0.930 . S
C551 C550 1.376 1_565 S
C551 C552 1.388 . S
C552 H539 0.930 . S
C552 C551 1.388 . S
C552 C553 1.390 1_565 S
C553 C552 1.390 1_545 S
C553 C554 1.394 . S
C553 C559 1.465 . S
C554 C549 1.399 . S
C554 C553 1.394 . S
C554 C555 1.516 . S
C555 C554 1.516 . S
C555 C556 1.502 . S
C555 C557 1.561 . S
C555 C558 1.526 . S
C556 H540 0.959 . S
C556 H541 0.959 . S
C556 H542 0.961 . S
C556 C555 1.502 . S
C557 H543 0.960 . S
C557 H544 0.961 . S
C557 H545 0.959 . S
C557 C555 1.561 . S
C558 C555 1.526 . S
C558 C559 1.396 . S
C558 C563 1.390 . S
C559 C553 1.465 . S
C559 C558 1.396 . S
C559 C560 1.399 1_545 S
C560 H546 0.929 . S
C560 C559 1.399 1_565 S
C560 C561 1.385 . S
C561 H547 0.931 . S
C561 C560 1.385 . S
C561 C562 1.389 1_565 S
C562 C561 1.389 1_545 S
C562 C563 1.387 . S
C563 H548 0.930 . S
C563 C558 1.390 . S
C563 C562 1.387 . S
H564 C576 0.930 . S
H565 C578 0.930 . S
H566 C579 0.930 . S
H567 C583 0.959 . S
H568 C583 0.959 . S
H569 C583 0.961 . S
H570 C584 0.960 . S
H571 C584 0.961 . S
H572 C584 0.959 . S
H573 C587 0.929 . S
H574 C588 0.931 . S
H575 C590 0.930 . S
C576 H564 0.930 . S
C576 C577 1.399 . S
C576 C581 1.399 . S
C577 C576 1.399 . S
C577 C578 1.376 . S
C578 H565 0.930 . S
C578 C577 1.376 . S
C578 C579 1.388 . S
C579 H566 0.930 . S
C579 C578 1.388 . S
C579 C580 1.390 . S
C580 C579 1.390 . S
C580 C581 1.394 . S
C580 C586 1.465 . S
C581 C576 1.399 . S
C581 C580 1.394 . S
C581 C582 1.516 . S
C582 C581 1.516 . S
C582 C583 1.502 . S
C582 C584 1.561 . S
C582 C585 1.526 . S
C583 H567 0.959 . S
C583 H568 0.959 . S
C583 H569 0.961 . S
C583 C582 1.502 . S
C584 H570 0.960 . S
C584 H571 0.961 . S
C584 H572 0.959 . S
C584 C582 1.561 . S
C585 C582 1.526 . S
C585 C586 1.396 . S
C585 C590 1.390 . S
C586 C580 1.465 . S
C586 C585 1.396 . S
C586 C587 1.399 . S
C587 H573 0.929 . S
C587 C586 1.399 . S
C587 C588 1.385 . S
C588 H574 0.931 . S
C588 C587 1.385 . S
C588 C589 1.389 . S
C589 C588 1.389 . S
C589 C590 1.387 . S
C590 H575 0.930 . S
C590 C585 1.390 . S
C590 C589 1.387 . S
H591 C603 0.930 . S
H592 C605 0.930 . S
H593 C606 0.930 . S
H594 C610 0.959 . S
H595 C610 0.959 . S
H596 C610 0.961 . S
H597 C611 0.960 . S
H598 C611 0.961 . S
H599 C611 0.959 . S
H600 C614 0.929 . S
H601 C615 0.931 . S
H602 C617 0.930 . S
C603 H591 0.930 . S
C603 C604 1.399 . S
C603 C608 1.399 . S
C604 C603 1.399 . S
C604 C605 1.376 1_545 S
C605 H592 0.930 . S
C605 C604 1.376 1_565 S
C605 C606 1.388 . S
C606 H593 0.930 . S
C606 C605 1.388 . S
C606 C607 1.390 1_565 S
C607 C606 1.390 1_545 S
C607 C608 1.394 . S
C607 C613 1.465 . S
C608 C603 1.399 . S
C608 C607 1.394 . S
C608 C609 1.516 . S
C609 C608 1.516 . S
C609 C610 1.502 . S
C609 C611 1.561 . S
C609 C612 1.526 . S
C610 H594 0.959 . S
C610 H595 0.959 . S
C610 H596 0.961 . S
C610 C609 1.502 . S
C611 H597 0.960 . S
C611 H598 0.961 . S
C611 H599 0.959 . S
C611 C609 1.561 . S
C612 C609 1.526 . S
C612 C613 1.396 . S
C612 C617 1.390 . S
C613 C607 1.465 . S
C613 C612 1.396 . S
C613 C614 1.399 1_545 S
C614 H600 0.929 . S
C614 C613 1.399 1_565 S
C614 C615 1.385 . S
C615 H601 0.931 . S
C615 C614 1.385 . S
C615 C616 1.389 1_565 S
C616 C615 1.389 1_545 S
C616 C617 1.387 . S
C617 H602 0.930 . S
C617 C612 1.390 . S
C617 C616 1.387 . S
H618 C630 0.930 . S
H619 C632 0.930 . S
H620 C633 0.930 . S
H621 C637 0.959 . S
H622 C637 0.959 1_554 S
H623 C637 0.961 . S
H624 C638 0.960 . S
H625 C638 0.961 1_554 S
H626 C638 0.959 . S
H627 C641 0.919 1_556 S
H628 C642 0.931 . S
H629 C644 0.930 . S
C630 H618 0.930 . S
C630 C631 1.399 . S
C630 C635 1.399 . S
C631 C630 1.399 . S
C631 C632 1.376 . S
C632 H619 0.930 . S
C632 C631 1.376 . S
C632 C633 1.388 . S
C633 H620 0.930 . S
C633 C632 1.388 . S
C633 C634 1.390 . S
C634 C633 1.390 . S
C634 C635 1.394 . S
C634 C640 1.465 . S
C635 C630 1.399 . S
C635 C634 1.394 . S
C635 C636 1.516 . S
C636 C635 1.516 . S
C636 C637 1.502 . S
C636 C638 1.561 . S
C636 C639 1.526 1_556 S
C637 H621 0.959 . S
C637 H622 0.959 1_556 S
C637 H623 0.961 . S
C637 C636 1.502 . S
C638 H624 0.960 . S
C638 H625 0.961 1_556 S
C638 H626 0.959 . S
C638 C636 1.561 . S
C639 C636 1.526 1_554 S
C639 C640 1.396 1_554 S
C639 C644 1.390 . S
C640 C634 1.465 . S
C640 C639 1.396 1_556 S
C640 C641 1.388 1_556 S
C641 H627 0.919 1_554 S
C641 C640 1.388 1_554 S
C641 C642 1.407 . S
C642 H628 0.931 . S
C642 C641 1.407 . S
C642 C643 1.389 . S
C643 C642 1.389 . S
C643 C644 1.387 . S
C644 H629 0.930 . S
C644 C639 1.390 . S
C644 C643 1.387 . S
H645 C657 0.930 1_655 S
H646 C659 0.930 . S
H647 C660 0.930 . S
H648 C664 0.959 . S
H649 C664 0.959 . S
H650 C664 0.961 . S
H651 C665 0.960 . S
H652 C665 0.961 . S
H653 C665 0.959 . S
H654 C668 0.929 . S
H655 C669 0.931 . S
H656 C671 0.932 1_655 S
C657 H645 0.930 1_455 S
C657 C658 1.399 . S
C657 C662 1.399 . S
C658 C657 1.399 . S
C658 C659 1.376 . S
C659 H646 0.930 . S
C659 C658 1.376 . S
C659 C660 1.388 . S
C660 H647 0.930 . S
C660 C659 1.388 . S
C660 C661 1.390 . S
C661 C660 1.390 . S
C661 C662 1.394 . S
C661 C667 1.465 . S
C662 C657 1.399 . S
C662 C661 1.394 . S
C662 C663 1.516 1_455 S
C663 C662 1.516 1_655 S
C663 C664 1.502 . S
C663 C665 1.561 1_655 S
C663 C666 1.526 1_655 S
C664 H648 0.959 . S
C664 H649 0.959 . S
C664 H650 0.961 . S
C664 C663 1.502 . S
C665 H651 0.960 . S
C665 H652 0.961 . S
C665 H653 0.959 . S
C665 C663 1.561 1_455 S
C666 C663 1.526 1_455 S
C666 C667 1.396 . S
C666 C671 1.392 . S
C667 C661 1.465 . S
C667 C666 1.396 . S
C667 C668 1.399 . S
C668 H654 0.929 . S
C668 C667 1.399 . S
C668 C669 1.385 . S
C669 H655 0.931 . S
C669 C668 1.385 . S
C669 C670 1.389 . S
C670 C669 1.389 . S
C670 C671 1.383 . S
C671 H656 0.932 1_455 S
C671 C666 1.392 . S
C671 C670 1.383 . S
C199 C6 0.811 . S
C211 C185 0.776 . S
C226 C59 1.940 . S
C238 C163 1.913 . S
C253 C86 1.282 . S
C265 C174 1.296 . S
C280 C15 0.505 . S
C292 C179 0.291 . S
C319 C157 1.860 . S
C307 C50 1.881 . S
C346 C168 1.141 . S
C334 C95 1.145 . S
C361 C46 1.329 . S
C373 C141 1.305 . S
C388 C99 3.021 . S
C400 C146 2.990 1_655 S
C415 C10 1.905 . S
C427 C124 1.886 . S
C454 C135 1.134 . S
C442 C55 1.123 . S
C481 C152 3.001 . S
C469 C90 3.037 . S
C496 C19 1.936 . S
C508 C130 1.889 . S
C535 C147 1.717 . S
C523 C18 1.657 . S
C550 C49 1.370 . S
C562 C125 1.449 . S
C577 C98 1.508 . S
C589 C136 1.550 . S
C616 C169 1.522 . S
C604 C58 1.488 . S
C643 C180 1.275 . S
C631 C89 1.207 . S
C658 C9 1.394 . S
C670 C158 1.414 . S
