# Generated by pormake.
# Topology ftw, (4,12)-cn, num edge types: 1
# Building blocks:
#     Node 0, Type 0, BuildingBlock: NAHDIM_clean_linker_0, # of connection points: 4
#     Node 1, Type 0, BuildingBlock: NAHDIM_clean_linker_0, # of connection points: 4
#     Node 2, Type 0, BuildingBlock: NAHDIM_clean_linker_0, # of connection points: 4
#     Node 3, Type 1, BuildingBlock: QEWDON_clean_sbu_0, # of connection points: 12
#     Edge 4, Type (0, 1), BuildingBlock: AJUNOK_clean_linker_0, # of connection points: 2
#     Edge 5, Type (0, 1), BuildingBlock: AJUNOK_clean_linker_0, # of connection points: 2
#     Edge 6, Type (0, 1), BuildingBlock: AJUNOK_clean_linker_0, # of connection points: 2
#     Edge 7, Type (0, 1), BuildingBlock: AJUNOK_clean_linker_0, # of connection points: 2
#     Edge 8, Type (0, 1), BuildingBlock: AJUNOK_clean_linker_0, # of connection points: 2
#     Edge 9, Type (0, 1), BuildingBlock: AJUNOK_clean_linker_0, # of connection points: 2
#     Edge 10, Type (0, 1), BuildingBlock: AJUNOK_clean_linker_0, # of connection points: 2
#     Edge 11, Type (0, 1), BuildingBlock: AJUNOK_clean_linker_0, # of connection points: 2
#     Edge 12, Type (0, 1), BuildingBlock: AJUNOK_clean_linker_0, # of connection points: 2
#     Edge 13, Type (0, 1), BuildingBlock: AJUNOK_clean_linker_0, # of connection points: 2
#     Edge 14, Type (0, 1), BuildingBlock: AJUNOK_clean_linker_0, # of connection points: 2
#     Edge 15, Type (0, 1), BuildingBlock: AJUNOK_clean_linker_0, # of connection points: 2
# Relax obj value: 0.037
# Max RMSD: 0.109
# Mean RMSD: 0.083
data_MOF--net-ftw--node1-QEWDON_clean_sbu_0--node2-NAHDIM_clean_linker_0--edge1-AJUNOK_clean_linker_0
_symmetry_space_group_name_H-M    P1
_symmetry_Int_Tables_number       1
_symmetry_cell_setting            triclinic
loop_
_symmetry_equiv_pos_as_xyz
'x, y, z'
_cell_length_a     26.781206
_cell_length_b     26.355966
_cell_length_c     27.399467
_cell_angle_alpha  90.655153
_cell_angle_beta   89.466655
_cell_angle_gamma 89.563025
loop_
_atom_site_label
_atom_site_type_symbol
_atom_site_fract_x
_atom_site_fract_y
_atom_site_fract_z
_atom_type_partial_charge
C0 C 0.93972 0.68281 0.22321 0.0
C1 C 0.9335 0.73147 0.25464 0.0
C2 C 0.97006 0.68829 0.32471 0.0
C3 C 0.93026 0.6592 0.34185 0.0
C4 C 0.93921 0.61559 0.36944 0.0
C5 C 0.98903 0.60083 0.37947 0.0
C6 C 0.0292 0.63058 0.36244 0.0
C7 C 0.01903 0.67467 0.33604 0.0
C8 C 0.8955 0.58498 0.38744 0.0
C9 C 0.08276 0.61544 0.37147 0.0
C10 C 0.11939 0.30727 0.23832 0.0
C11 C 0.08028 0.27193 0.2609 0.0
C12 C 0.02925 0.33382 0.3092 0.0
C13 C 0.06643 0.34885 0.34195 0.0
C14 C 0.05845 0.39015 0.37398 0.0
C15 C 0.01098 0.41459 0.37572 0.0
C16 C 0.97225 0.3966 0.34543 0.0
C17 C 0.98226 0.35704 0.31202 0.0
C18 C 0.10166 0.40842 0.40445 0.0
C19 C 0.92055 0.41981 0.34719 0.0
C20 C 0.99869 0.32327 0.68615 0.0
C21 C 0.04531 0.33088 0.66344 0.0
C22 C 0.05634 0.37735 0.64124 0.0
C23 C 0.01952 0.41618 0.64051 0.0
C24 C 0.97324 0.40902 0.66463 0.0
C25 C 0.96372 0.36279 0.6875 0.0
C26 C 0.10667 0.38434 0.61713 0.0
C27 C 0.93315 0.44962 0.66489 0.0
C28 C 0.13658 0.8216 0.63749 0.0
C29 C 0.1137 0.78263 0.67183 0.0
C30 C 0.11391 0.6904 0.65564 0.0
C31 C 0.142 0.65214 0.63265 0.0
C32 C 0.12052 0.60563 0.61982 0.0
C33 C 0.06944 0.5972 0.63044 0.0
C34 C 0.04162 0.63428 0.65695 0.0
C35 C 0.06424 0.68056 0.66964 0.0
C36 C 0.15188 0.56645 0.59274 0.0
C37 C 0.98749 0.62583 0.66983 0.0
C38 C 0.99871 0.55378 0.40708 0.0
C39 C 0.99896 0.50764 0.38146 0.0
C40 C 0.00348 0.46145 0.40578 0.0
C41 C 0.00523 0.46131 0.45732 0.0
C42 C 0.0028 0.416 0.48367 0.0
C43 C 0.00771 0.41631 0.53423 0.0
C44 C 0.01777 0.46168 0.5599 0.0
C45 C 0.02694 0.46221 0.6107 0.0
C46 C 0.04177 0.50727 0.63385 0.0
C47 C 0.04449 0.55268 0.60797 0.0
C48 C 0.02955 0.55379 0.55866 0.0
C49 C 0.02622 0.59968 0.53309 0.0
C50 C 0.01371 0.60005 0.48394 0.0
C51 C 0.00731 0.55436 0.45785 0.0
C52 C 0.01007 0.50785 0.48308 0.0
C53 C 0.01874 0.5078 0.53401 0.0
C54 C 1.00026 0.2056 0.65648 0.0
C55 C 0.0097 0.23231 0.70541 0.0
O56 O 0.96244 0.72937 0.29644 0.0
O57 O 0.13634 0.7359 0.66304 0.0
O58 O 0.98522 0.27883 0.70697 0.0
O59 O 0.03692 0.29829 0.27354 0.0
H60 H 0.89364 0.7362 0.26562 0.0
H61 H 0.92402 0.64956 0.24228 0.0
H62 H 0.97987 0.67538 0.21506 0.0
H63 H 0.91949 0.68614 0.1882 0.0
H64 H 0.89237 0.67055 0.33343 0.0
H65 H 0.04937 0.6978 0.3226 0.0
H66 H 0.89629 0.54694 0.36959 0.0
H67 H 0.8591 0.60352 0.37961 0.0
H68 H 0.89836 0.57925 0.42741 0.0
H69 H 0.10959 0.64013 0.35194 0.0
H70 H 0.08925 0.57549 0.35957 0.0
H71 H 0.09056 0.61781 0.41112 0.0
H72 H 0.09609 0.25408 0.29398 0.0
H73 H 0.15193 0.28462 0.22479 0.0
H74 H 0.13349 0.33503 0.26539 0.0
H75 H 0.10329 0.32884 0.20757 0.0
H76 H 0.1022 0.32957 0.34189 0.0
H77 H 0.95341 0.34448 0.28726 0.0
H78 H 0.09705 0.39485 0.44238 0.0
H79 H 0.10316 0.45051 0.40558 0.0
H80 H 0.13805 0.39375 0.39023 0.0
H81 H 0.89227 0.39358 0.33191 0.0
H82 H 0.92019 0.45488 0.32516 0.0
H83 H 0.90951 0.43018 0.38521 0.0
H84 H 0.05045 0.23791 0.71025 0.0
H85 H 0.07305 0.30088 0.66232 0.0
H86 H 0.92809 0.35667 0.70551 0.0
H87 H 0.10249 0.38239 0.5769 0.0
H88 H 0.13391 0.35466 0.62805 0.0
H89 H 0.12197 0.42222 0.62654 0.0
H90 H 0.89901 0.43792 0.68502 0.0
H91 H 0.92282 0.45878 0.62681 0.0
H92 H 0.94764 0.48483 0.68209 0.0
H93 H 0.07335 0.78134 0.66292 0.0
H94 H 0.11953 0.85965 0.64427 0.0
H95 H 0.12942 0.81038 0.599 0.0
H96 H 0.17761 0.82397 0.6426 0.0
H97 H 0.1806 0.65961 0.62308 0.0
H98 H 0.04277 0.70884 0.68985 0.0
H99 H 0.13947 0.56389 0.55424 0.0
H100 H 0.14691 0.52851 0.60923 0.0
H101 H 0.19222 0.57597 0.59292 0.0
H102 H 0.97188 0.65665 0.69355 0.0
H103 H 0.98331 0.58906 0.68877 0.0
H104 H 0.96529 0.62372 0.63585 0.0
H105 H 0.9962 0.5078 0.34197 0.0
H106 H 0.99694 0.37991 0.46539 0.0
H107 H 0.0053 0.38028 0.55259 0.0
H108 H 0.05185 0.50685 0.67209 0.0
H109 H 0.03268 0.63586 0.55095 0.0
H110 H 0.01107 0.63647 0.46626 0.0
H111 H 0.95959 0.19988 0.6511 0.0
H112 H 0.01954 0.16813 0.65511 0.0
H113 H 0.01489 0.22881 0.62605 0.0
C114 C 0.76967 0.13735 0.68824 0.0
C115 C 0.74761 0.09509 0.71952 0.0
C116 C 0.68758 0.04768 0.66871 0.0
C117 C 0.67842 -3e-05 0.64817 0.0
C118 C 0.63347 0.98956 0.62437 0.0
C119 C 0.59705 0.02839 0.62011 0.0
C120 C 0.60575 0.07676 0.64119 0.0
C121 C 0.65088 0.08593 0.6655 0.0
C122 C 0.62525 0.93722 0.60312 0.0
C123 C 0.56775 0.11901 0.63707 0.0
C124 C 0.20304 0.93287 0.68399 0.0
C125 C 0.24367 0.97026 0.6993 0.0
C126 C 0.33143 0.95799 0.67445 0.0
C127 C 0.34182 0.0082 0.66117 0.0
C128 C 0.3849 0.0197 0.63395 0.0
C129 C 0.41868 0.98037 0.6203 0.0
C130 C 0.40922 0.93007 0.63509 0.0
C131 C 0.36575 0.91961 0.66216 0.0
C132 C 0.39444 0.07396 0.61978 0.0
C133 C 0.44488 0.88738 0.62197 0.0
C134 C 0.34643 0.93886 0.29348 0.0
C135 C 0.34259 0.98572 0.31816 0.0
C136 C 0.38172 0.00337 0.34753 0.0
C137 C 0.42472 0.97252 0.35386 0.0
C138 C 0.42837 0.9251 0.32915 0.0
C139 C 0.38969 0.90958 0.29836 0.0
C140 C 0.37739 0.0554 0.37088 0.0
C141 C 0.47336 0.89085 0.33472 0.0
C142 C 0.8061 0.11803 0.30866 0.0
C143 C 0.77436 0.07262 0.29347 0.0
C144 C 0.68386 0.07134 0.30735 0.0
C145 C 0.64417 0.10505 0.31593 0.0
C146 C 0.6008 0.08957 0.34057 0.0
C147 C 0.59679 0.03875 0.35612 0.0
C148 C 0.63589 0.00377 0.34545 0.0
C149 C 0.67907 0.02042 0.32112 0.0
C150 C 0.55968 0.12774 0.35092 0.0
C151 C 0.63222 0.94896 0.3603 0.0
C152 C 0.55114 0.01879 0.59145 0.0
C153 C 0.50755 0.00526 0.61643 0.0
C154 C 0.46422 0.99218 0.59121 0.0
C155 C 0.46461 0.99127 0.53949 0.0
C156 C 0.42276 0.97549 0.51281 0.0
C157 C 0.42375 0.97437 0.46193 0.0
C158 C 0.46605 0.99053 0.4357 0.0
C159 C 0.46715 0.9907 0.38395 0.0
C160 C 0.51003 0.00707 0.35934 0.0
C161 C 0.55234 0.02259 0.38474 0.0
C162 C 0.55204 0.0224 0.43636 0.0
C163 C 0.59404 0.03767 0.46304 0.0
C164 C 0.59379 0.03661 0.51376 0.0
C165 C 0.55135 0.02074 0.53987 0.0
C166 C 0.50816 0.00626 0.5138 0.0
C167 C 0.50868 0.00654 0.46191 0.0
C168 C 0.24408 0.86833 0.28531 0.0
C169 C 0.25929 0.92282 0.27308 0.0
O170 O 0.73262 0.05495 0.69012 0.0
O171 O 0.72585 0.08923 0.28551 0.0
O172 O 0.31018 0.92205 0.26299 0.0
O173 O 0.28938 0.94509 0.69955 0.0
H174 H 0.715 0.11052 0.7404 0.0
H175 H 0.74106 0.15242 0.66309 0.0
H176 H 0.80177 0.12289 0.66601 0.0
H177 H 0.78252 0.16907 0.71193 0.0
H178 H 0.70689 0.9707 0.65086 0.0
H179 H 0.65746 0.1232 0.68092 0.0
H180 H 0.58824 0.9227 0.61477 0.0
H181 H 0.65459 0.90979 0.6143 0.0
H182 H 0.62541 0.93918 0.56268 0.0
H183 H 0.5806 0.15495 0.65422 0.0
H184 H 0.53225 0.1076 0.65492 0.0
H185 H 0.55969 0.12598 0.59802 0.0
H186 H 0.2431 1e-05 0.6709 0.0
H187 H 0.16571 0.95157 0.68551 0.0
H188 H 0.20261 0.8991 0.70785 0.0
H189 H 0.21019 0.91965 0.64591 0.0
H190 H 0.31684 0.03866 0.6724 0.0
H191 H 0.35793 0.88111 0.67323 0.0
H192 H 0.4305 0.08665 0.63523 0.0
H193 H 0.36438 0.10021 0.63281 0.0
H194 H 0.39752 0.07657 0.57944 0.0
H195 H 0.43231 0.85034 0.6364 0.0
H196 H 0.48243 0.89581 0.63673 0.0
H197 H 0.44871 0.88418 0.58166 0.0
H198 H 0.25069 0.94656 0.30596 0.0
H199 H 0.30981 0.00934 0.31324 0.0
H200 H 0.3929 0.874 0.27848 0.0
H201 H 0.3706 0.05154 0.41065 0.0
H202 H 0.34618 0.07792 0.35546 0.0
H203 H 0.41264 0.07675 0.36594 0.0
H204 H 0.46639 0.85186 0.32065 0.0
H205 H 0.48431 0.88858 0.37363 0.0
H206 H 0.50531 0.90674 0.31399 0.0
H207 H 0.77544 0.0459 0.32458 0.0
H208 H 0.84519 0.10572 0.31541 0.0
H209 H 0.79075 0.13524 0.34288 0.0
H210 H 0.80609 0.14742 0.27989 0.0
H211 H 0.64791 0.14405 0.30442 0.0
H212 H 0.70882 0.99358 0.31271 0.0
H213 H 0.55276 0.13064 0.39089 0.0
H214 H 0.52454 0.11477 0.33377 0.0
H215 H 0.56878 0.16602 0.33696 0.0
H216 H 0.66429 0.92577 0.34652 0.0
H217 H 0.59708 0.93237 0.34629 0.0
H218 H 0.63095 0.94666 0.40072 0.0
H219 H 0.50744 0.00458 0.65602 0.0
H220 H 0.38895 0.96324 0.531 0.0
H221 H 0.39073 0.96106 0.44341 0.0
H222 H 0.51067 0.00726 0.31973 0.0
H223 H 0.62776 0.05038 0.44501 0.0
H224 H 0.62731 0.04862 0.53224 0.0
H225 H 0.24427 0.84406 0.25187 0.0
H226 H 0.20658 0.86771 0.3029 0.0
H227 H 0.2708 0.85183 0.31167 0.0
C228 C 0.80542 0.63554 0.86257 0.0
C229 C 0.7843 0.67103 0.90258 0.0
C230 C 0.72444 0.62937 0.95748 0.0
C231 C 0.71788 0.61641 0.00635 0.0
C232 C 0.67044 0.60536 0.0253 0.0
C233 C 0.62857 0.60689 0.99424 0.0
C234 C 0.63511 0.61833 0.94427 0.0
C235 C 0.68308 0.62913 0.92625 0.0
C236 C 0.665 0.59275 0.07864 0.0
C237 C 0.59131 0.61928 0.91004 0.0
C238 C 0.33908 0.77329 0.23146 0.0
C239 C 0.34942 0.76182 0.17739 0.0
C240 C 0.42725 0.74764 0.13634 0.0
C241 C 0.41911 0.74403 0.08605 0.0
C242 C 0.44502 0.70785 0.0574 0.0
C243 C 0.47944 0.67483 0.07996 0.0
C244 C 0.48938 0.68033 0.13046 0.0
C245 C 0.46316 0.71699 0.15804 0.0
C246 C 0.43399 0.70324 0.00369 0.0
C247 C 0.52619 0.64608 0.1557 0.0
C248 C 0.26781 0.41893 0.10894 0.0
C249 C 0.28059 0.41618 0.05906 0.0
C250 C 0.33055 0.41992 0.04364 0.0
C251 C 0.3685 0.42603 0.07872 0.0
C252 C 0.35597 0.4267 0.129 0.0
C253 C 0.3057 0.42326 0.14339 0.0
C254 C 0.34275 0.4185 0.98975 0.0
C255 C 0.39557 0.43198 0.16748 0.0
C256 C 0.76067 0.31705 0.02211 0.0
C257 C 0.71415 0.31572 0.05884 0.0
C258 C 0.62718 0.30085 0.04407 0.0
C259 C 0.59816 0.30121 0.00194 0.0
C260 C 0.55303 0.32881 0.00097 0.0
C261 C 0.53734 0.35624 0.04316 0.0
C262 C 0.56338 0.35015 0.08745 0.0
C263 C 0.60802 0.32231 0.08741 0.0
C264 C 0.52502 0.33302 0.95375 0.0
C265 C 0.54661 0.37688 0.13386 0.0
C266 C 0.57783 0.59719 0.01408 0.0
C267 C 0.55017 0.63857 0.03223 0.0
C268 C 0.50253 0.63198 0.05225 0.0
C269 C 0.48047 0.58341 0.05169 0.0
C270 C 0.43121 0.57607 0.06827 0.0
C271 C 0.4108 0.52771 0.06988 0.0
C272 C 0.43965 0.48461 0.05722 0.0
C273 C 0.42076 0.43492 0.06258 0.0
C274 C 0.45221 0.39293 0.05445 0.0
C275 C 0.50176 0.39937 0.03933 0.0
C276 C 0.51971 0.44859 0.02925 0.0
C277 C 0.5683 0.45619 0.01074 0.0
C278 C 0.58669 0.50479 0.00378 0.0
C279 C 0.55811 0.5477 0.01723 0.0
C280 C 0.50898 0.54091 0.03557 0.0
C281 C 0.48914 0.49135 0.03994 0.0
C282 C 0.13295 0.43665 0.12852 0.0
C283 C 0.17689 0.41676 0.0976 0.0
O284 O 0.77124 0.64136 0.94216 0.0
O285 O 0.67567 0.2858 0.04098 0.0
O286 O 0.21977 0.41791 0.12549 0.0
O287 O 0.3972 0.77693 0.165 0.0
H288 H 0.75111 0.69088 0.88767 0.0
H289 H 0.78167 0.60131 0.85929 0.0
H290 H 0.84395 0.62298 0.8714 0.0
H291 H 0.80461 0.65413 0.82644 0.0
H292 H 0.75014 0.61599 0.02994 0.0
H293 H 0.68796 0.63686 0.88782 0.0
H294 H 0.64119 0.62193 0.09707 0.0
H295 H 0.70156 0.59115 0.09742 0.0
H296 H 0.64623 0.55562 0.08272 0.0
H297 H 0.60266 0.62776 0.87191 0.0
H298 H 0.56383 0.64847 0.92265 0.0
H299 H 0.57221 0.58204 0.91051 0.0
H300 H 0.34643 0.71974 0.17398 0.0
H301 H 0.34371 0.81409 0.24011 0.0
H302 H 0.3656 0.75148 0.25421 0.0
H303 H 0.30049 0.76187 0.24142 0.0
H304 H 0.39138 0.76844 0.06963 0.0
H305 H 0.46885 0.72032 0.19706 0.0
H306 H 0.41573 0.6663 0.99624 0.0
H307 H 0.46935 0.70383 0.98221 0.0
H308 H 0.40908 0.7342 0.99098 0.0
H309 H 0.53003 0.65576 0.19505 0.0
H310 H 0.56336 0.64902 0.13783 0.0
H311 H 0.51407 0.60601 0.15231 0.0
H312 H 0.18076 0.44335 0.06659 0.0
H313 H 0.25193 0.41166 0.03186 0.0
H314 H 0.2956 0.42466 0.18178 0.0
H315 H 0.36037 0.45478 0.97907 0.0
H316 H 0.30912 0.41246 0.96702 0.0
H317 H 0.37009 0.38757 0.98175 0.0
H318 H 0.37979 0.43061 0.20508 0.0
H319 H 0.41542 0.46848 0.163 0.0
H320 H 0.42355 0.40099 0.16294 0.0
H321 H 0.70061 0.35576 0.06387 0.0
H322 H 0.84539 0.32453 0.07064 0.0
H323 H 0.7478 0.3472 0.99611 0.0
H324 H 0.75551 0.28343 0.99691 0.0
H325 H 0.61289 0.28366 0.96882 0.0
H326 H 0.62982 0.32036 0.12043 0.0
H327 H 0.53319 0.37024 0.93698 0.0
H328 H 0.48413 0.33129 0.96062 0.0
H329 H 0.53602 0.30251 0.92739 0.0
H330 H 0.56905 0.36539 0.16585 0.0
H331 H 0.50681 0.36834 0.14139 0.0
H332 H 0.54988 0.41856 0.1295 0.0
H333 H 0.56666 0.67606 0.03245 0.0
H334 H 0.40782 0.60767 0.08003 0.0
H335 H 0.37265 0.52447 0.08279 0.0
H336 H 0.43864 0.3551 0.06189 0.0
H337 H 0.59279 0.42469 0.00129 0.0
H338 H 0.62425 0.50825 0.98931 0.0
H339 H 0.12782 0.41348 0.1618 0.0
H340 H 0.098 0.43583 0.10698 0.0
H341 H 0.13997 0.4765 0.14003 0.0
Zn342 Zn 0.13688 0.12037 0.96351 0.0
Zn343 Zn 0.09627 0.10461 0.0727 0.0
O344 O 0.1068 0.06832 0.00896 0.0
H345 H 0.09138 0.03683 0.99915 0.0
C346 C 0.94119 0.12518 0.87849 0.0
O347 O 0.96815 0.09062 0.90051 0.0
Zn348 Zn 0.92469 0.92019 0.05543 0.0
Zn349 Zn 0.92531 0.95701 0.94255 0.0
O350 O 0.94022 0.97861 0.01181 0.0
H351 H 0.96603 0.00266 0.01973 0.0
Zn352 Zn 0.88469 0.12313 0.97064 0.0
O353 O 0.94078 0.09941 0.01401 0.0
Zn354 Zn 0.9077 0.09403 0.07937 0.0
H355 H 0.97607 0.101 0.00662 0.0
Zn356 Zn 0.12474 0.87111 0.97665 0.0
O357 O 0.07662 0.9193 0.01121 0.0
H358 H 0.04931 0.93836 0.99743 0.0
Zn359 Zn 0.10408 0.9254 0.07812 0.0
C360 C 0.14918 0.84366 0.87461 0.0
O361 O 0.19521 0.84641 0.89056 0.0
O362 O 0.14503 0.19249 0.99311 0.0
O363 O 0.11678 0.17853 0.06853 0.0
O364 O 0.90516 0.88229 0.93694 0.0
O365 O 0.89796 0.86025 0.01494 0.0
O366 O 0.83674 0.1707 0.00832 0.0
O367 O 0.84746 0.14135 0.08342 0.0
C368 C 0.13776 0.02272 0.12426 0.0
O369 O 0.18408 0.84404 0.01695 0.0
O370 O 0.17155 0.89183 0.08347 0.0
O371 O 0.88445 0.00584 0.8993 0.0
C372 C 0.13483 0.2081 0.03635 0.0
O373 O 0.169 0.09766 0.89692 0.0
C374 C 0.8716 0.98997 0.11774 0.0
O375 O 0.90341 0.14409 0.90058 0.0
C376 C 0.89409 0.84996 0.9694 0.0
O377 O 0.11326 0.85181 0.90427 0.0
C378 C 0.00171 0.12219 0.12583 0.0
O379 O 0.13839 0.0708 0.12336 0.0
O380 O 0.10932 -0.00042 0.09465 0.0
C381 C 0.82573 0.17079 0.0536 0.0
O382 O 0.8767 0.94266 0.10983 0.0
O383 O 0.89336 0.01995 0.08868 0.0
C384 C 0.01321 0.88226 0.12073 0.0
O385 O 0.95446 0.12128 0.12989 0.0
O386 O 0.0232 0.09927 0.09036 0.0
C387 C 0.19733 0.85933 0.05917 0.0
O388 O 0.06008 0.88761 0.12433 0.0
O389 O 0.99144 0.90432 0.08562 0.0
C390 C 0.89041 0.00313 0.85331 0.0
O391 O 0.92404 0.97134 0.83532 0.0
C392 C 0.18488 0.05231 0.89148 0.0
O393 O 0.1813 0.02123 0.92849 0.0
C394 C 0.03875 0.24623 0.18236 0.0
C395 C 0.06618 0.23168 0.22362 0.0
C396 C 0.02029 0.21017 0.14964 0.0
C397 C 0.02887 0.15824 0.15658 0.0
H398 H 0.02988 0.28582 0.17632 0.0
H399 H 0.9977 0.22291 0.11946 0.0
S400 S 0.10127 0.09979 0.25591 0.0
N401 N 0.10372 0.16141 0.26754 0.0
N402 N 0.06794 0.09345 0.20578 0.0
C403 C 0.05785 0.14288 0.19613 0.0
C404 C 0.07688 0.1797 0.22969 0.0
C405 C 0.79015 0.07128 0.20195 0.0
C406 C 0.7961 0.04794 0.24758 0.0
C407 C 0.81387 0.05174 0.15984 0.0
C408 C 0.84482 0.00863 0.16184 0.0
H409 H 0.76749 0.1053 0.19892 0.0
H410 H 0.8074 0.07 0.12538 0.0
S411 S 0.8721 0.93267 0.27166 0.0
N412 N 0.83466 0.97858 0.29177 0.0
N413 N 0.8792 0.94215 0.21256 0.0
C414 C 0.85022 0.9842 0.20682 0.0
C415 C 0.82613 0.00399 0.24973 0.0
C416 C 0.99724 0.79772 0.23014 0.0
C417 C 0.94948 0.77668 0.22437 0.0
C418 C 0.01537 0.83411 0.19809 0.0
C419 C 0.9876 0.85013 0.15752 0.0
H420 H 0.02186 0.78509 0.25873 0.0
H421 H 0.05272 0.84814 0.20432 0.0
S422 S 0.85958 0.80797 0.12702 0.0
N423 N 0.8732 0.77701 0.17724 0.0
N424 N 0.90909 0.84257 0.11446 0.0
C425 C 0.93924 0.83055 0.15205 0.0
C426 C 0.91992 0.79451 0.18592 0.0
C427 C 0.1812 0.92934 0.21945 0.0
C428 C 0.2301 0.94564 0.23056 0.0
C429 C 0.15234 0.95337 0.18394 0.0
C430 C 0.17047 0.99519 0.15837 0.0
H431 H 0.16397 0.89847 0.23878 0.0
H432 H 0.11464 0.94053 0.17816 0.0
S433 S 0.29406 0.05534 0.17371 0.0
N434 N 0.2941 0.00824 0.21286 0.0
N435 N 0.23946 0.05296 0.14641 0.0
C436 C 0.21866 0.01247 0.16895 0.0
C437 C 0.24837 0.98794 0.20493 0.0
C438 C 0.16915 0.79348 0.74549 0.0
C439 C 0.12163 0.79859 0.72448 0.0
C440 C 0.1778 0.80872 0.79378 0.0
C441 C 0.13926 0.82963 0.82306 0.0
H442 H 0.19996 0.77753 0.72434 0.0
H443 H 0.21493 0.8035 0.80833 0.0
S444 S 0.00915 0.8555 0.78385 0.0
N445 N 0.0364 0.82912 0.73548 0.0
N446 N 0.05234 0.85754 0.82642 0.0
C447 C 0.0918 0.83614 0.8021 0.0
C448 C 0.08312 0.82079 0.75279 0.0
C449 C 0.22691 0.96135 0.79021 0.0
C450 C 0.23229 0.99302 0.74948 0.0
C451 C 0.21258 0.98104 0.83603 0.0
C452 C 0.20381 0.03337 0.84333 0.0
H453 H 0.23277 0.92079 0.78646 0.0
H454 H 0.20748 0.95472 0.86569 0.0
S455 S 0.21963 0.1334 0.75013 0.0
N456 N 0.23165 0.07983 0.72037 0.0
N457 N 0.20674 0.1171 0.80684 0.0
C458 C 0.21183 0.06581 0.80356 0.0
C459 C 0.22564 0.04562 0.75666 0.0
C460 C 0.94197 0.20692 0.76581 0.0
C461 C 0.99075 0.2 0.74707 0.0
C462 C 0.92567 0.18095 0.80716 0.0
C463 C 0.95706 0.14623 0.83094 0.0
H464 H 0.91656 0.2338 0.74939 0.0
H465 H 0.8885 0.18919 0.82122 0.0
S466 S 0.08368 0.10574 0.78948 0.0
N467 N 0.06727 0.15015 0.75064 0.0
N468 N 0.03637 0.10047 0.82807 0.0
C469 C 0.00419 0.13547 0.80996 0.0
C470 C 0.02101 0.16243 0.76805 0.0
C471 C 0.82569 0.04411 0.73751 0.0
C472 C 0.7865 0.07556 0.7548 0.0
C473 C 0.86005 0.02242 0.76949 0.0
C474 C 0.85673 0.03125 0.82018 0.0
H475 H 0.82909 0.03517 0.69892 0.0
H476 H 0.8886 0.9974 0.75428 0.0
S477 S 0.76488 0.11618 0.88343 0.0
N478 N 0.74939 0.11867 0.82531 0.0
N479 N 0.8134 0.07731 0.88573 0.0
C480 C 0.81923 0.06473 0.83776 0.0
C481 C 0.78437 0.08709 0.80503 0.0
C482 C 0.16855 0.32283 0.11351 0.0
C483 C 0.16683 0.36296 0.08017 0.0
C484 C 0.15747 0.27307 0.09913 0.0
C485 C 0.14544 0.26127 0.05044 0.0
H486 H 0.17859 0.33014 0.15107 0.0
H487 H 0.15911 0.24353 0.12627 0.0
S488 S 0.13526 0.35265 0.94893 0.0
N489 N 0.15092 0.38782 0.99656 0.0
N490 N 0.13192 0.29387 0.9689 0.0
C491 C 0.14397 0.30094 0.01656 0.0
C492 C 0.15419 0.35185 0.03155 0.0
C493 C 0.30188 0.83963 0.14876 0.0
C494 C 0.31201 0.78727 0.14424 0.0
C495 C 0.266 0.86306 0.11968 0.0
C496 C 0.24025 0.83553 0.08369 0.0
H497 H 0.32105 0.86264 0.17551 0.0
H498 H 0.2579 0.90297 0.12583 0.0
S499 S 0.25877 0.69947 0.05182 0.0
N500 N 0.29709 0.70979 0.09766 0.0
N501 N 0.2307 0.75433 0.04189 0.0
C502 C 0.25256 0.78408 0.07632 0.0
C503 C 0.28827 0.75989 0.10676 0.0
C504 C 0.72445 0.24759 0.12121 0.0
C505 C 0.73377 0.29835 0.10739 0.0
C506 C 0.75523 0.20622 0.10579 0.0
C507 C 0.79589 0.21287 0.07377 0.0
H508 H 0.68927 0.23924 0.13903 0.0
H509 H 0.74427 0.16816 0.11561 0.0
S510 S 0.83566 0.36413 0.01033 0.0
N511 N 0.79342 0.37029 0.07694 0.0
N512 N 0.83851 0.2837 0.01553 0.0
C513 C 0.8103 0.26213 0.06542 0.0
C514 C 0.78236 0.31313 0.10205 0.0
C515 C 0.8102 0.73516 0.96656 0.0
C516 C 0.8192 0.71327 0.91993 0.0
C517 C 0.83643 0.77757 0.98321 0.0
C518 C 0.87212 0.80116 0.95357 0.0
H519 H 0.78135 0.72038 0.99029 0.0
H520 H 0.82678 0.79345 0.01871 0.0
S521 S 0.91142 0.76085 0.82877 0.0
N522 N 0.86783 0.72005 0.84429 0.0
N523 N 0.91688 0.79953 0.87612 0.0
C524 C 0.88235 0.77995 0.90721 0.0
C525 C 0.8558 0.73642 0.89012 0.0
loop_
_geom_bond_atom_site_label_1
_geom_bond_atom_site_label_2
_geom_bond_distance
_geom_bond_site_symmetry_2
_ccdc_geom_bond_type
C0 C1 1.560 . S
C0 H61 0.959 . S
C0 H62 0.959 . S
C0 H63 0.960 . S
C1 C0 1.560 . S
C1 O56 1.426 . S
C1 H60 0.980 . S
C2 C3 1.405 1_455 S
C2 C7 1.418 . S
C2 O56 1.334 . S
C3 C2 1.405 1_655 S
C3 C4 1.360 . S
C3 H64 0.930 . S
C4 C3 1.360 . S
C4 C5 1.401 1_655 S
C4 C8 1.527 . S
C5 C4 1.401 1_455 S
C5 C6 1.405 . S
C5 C38 1.587 1_455 S
C6 C5 1.405 . S
C6 C7 1.332 . S
C6 C9 1.496 . S
C7 C2 1.418 . S
C7 C6 1.332 . S
C7 H65 0.929 . S
C8 C4 1.527 . S
C8 H66 0.959 . S
C8 H67 0.961 . S
C8 H68 0.961 . S
C9 C6 1.496 . S
C9 H69 0.960 . S
C9 H70 0.960 . S
C9 H71 0.961 . S
C10 C11 1.517 . S
C10 H73 0.961 1_655 S
C10 H74 0.960 . S
C10 H75 0.959 . S
C11 C10 1.517 . S
C11 O59 1.468 . S
C11 H72 0.980 1_655 S
C12 C13 1.349 1_655 S
C12 C17 1.367 . S
C12 O59 1.408 . S
C13 C12 1.349 1_455 S
C13 C14 1.407 . S
C13 H76 0.930 . S
C14 C13 1.407 . S
C14 C15 1.449 1_455 S
C14 C18 1.535 . S
C15 C14 1.449 1_655 S
C15 C16 1.384 . S
C15 C40 1.553 . S
C16 C15 1.384 . S
C16 C17 1.364 . S
C16 C19 1.450 . S
C17 C12 1.367 . S
C17 C16 1.364 . S
C17 H77 0.931 . S
C18 C14 1.535 . S
C18 H78 0.959 . S
C18 H79 0.961 . S
C18 H80 0.959 . S
C19 C16 1.450 . S
C19 H81 0.960 . S
C19 H82 0.960 . S
C19 H83 0.960 . S
C20 C21 1.309 1_655 S
C20 C25 1.304 . S
C20 O58 1.435 . S
C21 C20 1.309 1_455 S
C21 C22 1.476 . S
C21 H85 0.930 . S
C22 C21 1.476 . S
C22 C23 1.400 1_455 S
C22 C26 1.567 . S
C23 C22 1.400 1_655 S
C23 C24 1.373 . S
C23 C45 1.432 . S
C24 C23 1.373 . S
C24 C25 1.339 . S
C24 C27 1.530 . S
C25 C20 1.304 . S
C25 C24 1.339 . S
C25 H86 0.930 . S
C26 C22 1.567 . S
C26 H87 0.961 . S
C26 H88 0.960 . S
C26 H89 0.958 . S
C27 C24 1.530 . S
C27 H90 0.961 . S
C27 H91 0.960 . S
C27 H92 0.960 . S
C28 C29 1.530 . S
C28 H94 0.961 . S
C28 H95 0.961 . S
C28 H96 0.959 . S
C29 C28 1.530 . S
C29 O57 1.412 . S
C29 H93 0.980 . S
C30 C31 1.288 . S
C30 C35 1.380 . S
C30 O57 1.393 . S
C31 C30 1.288 . S
C31 C32 1.369 . S
C31 H97 0.932 . S
C32 C31 1.369 . S
C32 C33 1.398 . S
C32 C36 1.527 . S
C33 C32 1.398 . S
C33 C34 1.380 1_455 S
C33 C47 1.497 . S
C34 C33 1.380 1_655 S
C34 C35 1.382 1_655 S
C34 C37 1.603 . S
C35 C30 1.380 . S
C35 C34 1.382 1_455 S
C35 H98 0.927 1_455 S
C36 C32 1.527 . S
C36 H99 0.961 . S
C36 H100 0.959 . S
C36 H101 0.959 . S
C37 C34 1.603 . S
C37 H102 0.960 . S
C37 H103 0.962 . S
C37 H104 0.961 . S
C38 C5 1.587 1_655 S
C38 C39 1.360 . S
C38 C51 1.412 . S
C39 C38 1.360 . S
C39 C40 1.365 . S
C39 H105 0.929 . S
C40 C15 1.553 . S
C40 C39 1.365 . S
C40 C41 1.404 . S
C41 C40 1.404 . S
C41 C42 1.395 . S
C41 C52 1.451 . S
C42 C41 1.395 . S
C42 C43 1.322 . S
C42 H106 0.930 . S
C43 C42 1.322 . S
C43 C44 1.459 . S
C43 H107 0.929 . S
C44 C43 1.459 . S
C44 C45 1.445 . S
C44 C53 1.395 . S
C45 C23 1.432 . S
C45 C44 1.445 . S
C45 C46 1.370 1_655 S
C46 C45 1.370 1_455 S
C46 C47 1.438 . S
C46 H108 0.930 . S
C47 C33 1.497 . S
C47 C46 1.438 . S
C47 C48 1.360 . S
C48 C47 1.360 . S
C48 C49 1.401 . S
C48 C53 1.446 1_455 S
C49 C48 1.401 . S
C49 C50 1.347 . S
C49 H109 0.929 . S
C50 C49 1.347 . S
C50 C51 1.454 1_455 S
C50 H110 0.930 . S
C51 C38 1.412 . S
C51 C50 1.454 1_655 S
C51 C52 1.333 . S
C52 C41 1.451 . S
C52 C51 1.333 . S
C52 C53 1.497 . S
C53 C44 1.395 . S
C53 C48 1.446 1_655 S
C53 C52 1.497 . S
C54 C55 1.582 1_655 S
C54 H111 0.962 1_655 S
C54 H112 0.959 . S
C54 H113 0.958 . S
C55 C54 1.582 1_455 S
C55 O58 1.458 1_455 S
C55 H84 0.980 . S
O56 C1 1.426 . S
O56 C2 1.334 . S
O57 C29 1.412 . S
O57 C30 1.393 . S
O58 C20 1.435 . S
O58 C55 1.458 1_655 S
O59 C11 1.468 . S
O59 C12 1.408 . S
H60 C1 0.980 . S
H61 C0 0.959 . S
H62 C0 0.959 . S
H63 C0 0.960 . S
H64 C3 0.930 . S
H65 C7 0.929 . S
H66 C8 0.959 . S
H67 C8 0.961 . S
H68 C8 0.961 . S
H69 C9 0.960 . S
H70 C9 0.960 . S
H71 C9 0.961 . S
H72 C11 0.980 1_455 S
H73 C10 0.961 1_455 S
H74 C10 0.960 . S
H75 C10 0.959 . S
H76 C13 0.930 . S
H77 C17 0.931 . S
H78 C18 0.959 . S
H79 C18 0.961 . S
H80 C18 0.959 . S
H81 C19 0.960 . S
H82 C19 0.960 . S
H83 C19 0.960 . S
H84 C55 0.980 . S
H85 C21 0.930 . S
H86 C25 0.930 . S
H87 C26 0.961 . S
H88 C26 0.960 . S
H89 C26 0.958 . S
H90 C27 0.961 . S
H91 C27 0.960 . S
H92 C27 0.960 . S
H93 C29 0.980 . S
H94 C28 0.961 . S
H95 C28 0.961 . S
H96 C28 0.959 . S
H97 C31 0.932 . S
H98 C35 0.927 1_655 S
H99 C36 0.961 . S
H100 C36 0.959 . S
H101 C36 0.959 . S
H102 C37 0.960 . S
H103 C37 0.962 . S
H104 C37 0.961 . S
H105 C39 0.929 . S
H106 C42 0.930 . S
H107 C43 0.929 . S
H108 C46 0.930 . S
H109 C49 0.929 . S
H110 C50 0.930 . S
H111 C54 0.962 1_455 S
H112 C54 0.959 . S
H113 C54 0.958 . S
C114 C115 1.560 . S
C114 H175 0.959 . S
C114 H176 0.959 . S
C114 H177 0.960 . S
C115 C114 1.560 . S
C115 O170 1.426 . S
C115 H174 0.980 . S
C116 C117 1.407 1_545 S
C116 C121 1.418 . S
C116 O170 1.334 . S
C117 C116 1.407 1_565 S
C117 C118 1.360 . S
C117 H178 0.929 . S
C118 C117 1.360 . S
C118 C119 1.401 1_565 S
C118 C122 1.527 . S
C119 C118 1.401 1_545 S
C119 C120 1.405 . S
C119 C152 1.587 1_545 S
C120 C119 1.405 . S
C120 C121 1.332 . S
C120 C123 1.496 . S
C121 C116 1.418 . S
C121 C120 1.332 . S
C121 H179 0.929 . S
C122 C118 1.527 . S
C122 H180 0.959 . S
C122 H181 0.961 . S
C122 H182 0.961 . S
C123 C120 1.496 . S
C123 H183 0.960 . S
C123 H184 0.960 . S
C123 H185 0.961 . S
C124 C125 1.517 . S
C124 H187 0.953 1_565 S
C124 H188 0.960 . S
C124 H189 0.959 . S
C125 C124 1.517 . S
C125 O173 1.468 . S
C125 H186 0.980 1_565 S
C126 C127 1.337 1_565 S
C126 C131 1.367 . S
C126 O173 1.408 . S
C127 C126 1.337 1_545 S
C127 C128 1.410 . S
C127 H190 0.940 . S
C128 C127 1.410 . S
C128 C129 1.449 1_545 S
C128 C132 1.535 . S
C129 C128 1.449 1_565 S
C129 C130 1.384 . S
C129 C154 1.553 . S
C130 C129 1.384 . S
C130 C131 1.364 . S
C130 C133 1.450 . S
C131 C126 1.367 . S
C131 C130 1.364 . S
C131 H191 0.931 . S
C132 C128 1.535 . S
C132 H192 0.959 . S
C132 H193 0.961 . S
C132 H194 0.959 . S
C133 C130 1.450 . S
C133 H195 0.960 . S
C133 H196 0.960 . S
C133 H197 0.960 . S
C134 C135 1.309 1_565 S
C134 C139 1.304 . S
C134 O172 1.435 . S
C135 C134 1.309 1_545 S
C135 C136 1.476 . S
C135 H199 0.930 . S
C136 C135 1.476 . S
C136 C137 1.400 1_545 S
C136 C140 1.567 . S
C137 C136 1.400 1_565 S
C137 C138 1.373 . S
C137 C159 1.432 . S
C138 C137 1.373 . S
C138 C139 1.339 . S
C138 C141 1.530 . S
C139 C134 1.304 . S
C139 C138 1.339 . S
C139 H200 0.930 . S
C140 C136 1.567 . S
C140 H201 0.961 . S
C140 H202 0.960 . S
C140 H203 0.958 . S
C141 C138 1.530 . S
C141 H204 0.961 . S
C141 H205 0.960 . S
C141 H206 0.960 . S
C142 C143 1.530 . S
C142 H208 0.961 . S
C142 H209 0.961 . S
C142 H210 0.959 . S
C143 C142 1.530 . S
C143 O171 1.412 . S
C143 H207 0.980 . S
C144 C145 1.288 . S
C144 C149 1.377 1_545 S
C144 O171 1.393 . S
C145 C144 1.288 . S
C145 C146 1.369 . S
C145 H211 0.932 . S
C146 C145 1.369 . S
C146 C147 1.398 . S
C146 C150 1.527 . S
C147 C146 1.398 . S
C147 C148 1.380 1_545 S
C147 C161 1.497 . S
C148 C147 1.380 1_565 S
C148 C149 1.383 . S
C148 C151 1.603 . S
C149 C144 1.377 1_565 S
C149 C148 1.383 . S
C149 H212 0.929 . S
C150 C146 1.527 . S
C150 H213 0.961 . S
C150 H214 0.959 . S
C150 H215 0.959 . S
C151 C148 1.603 . S
C151 H216 0.960 . S
C151 H217 0.962 . S
C151 H218 0.961 . S
C152 C119 1.587 1_565 S
C152 C153 1.360 . S
C152 C165 1.412 . S
C153 C152 1.360 . S
C153 C154 1.365 . S
C153 H219 0.929 . S
C154 C129 1.553 . S
C154 C153 1.365 . S
C154 C155 1.404 . S
C155 C154 1.404 . S
C155 C156 1.395 . S
C155 C166 1.451 . S
C156 C155 1.395 . S
C156 C157 1.322 . S
C156 H220 0.930 . S
C157 C156 1.322 . S
C157 C158 1.459 . S
C157 H221 0.929 . S
C158 C157 1.459 . S
C158 C159 1.445 . S
C158 C167 1.395 . S
C159 C137 1.432 . S
C159 C158 1.445 . S
C159 C160 1.370 . S
C160 C159 1.370 . S
C160 C161 1.438 1_565 S
C160 H222 0.932 . S
C161 C147 1.497 . S
C161 C160 1.438 1_545 S
C161 C162 1.360 1_545 S
C162 C161 1.360 1_565 S
C162 C163 1.401 1_565 S
C162 C167 1.446 . S
C163 C162 1.401 1_545 S
C163 C164 1.347 . S
C163 H223 0.929 . S
C164 C163 1.347 . S
C164 C165 1.455 1_545 S
C164 H224 0.930 . S
C165 C152 1.412 . S
C165 C164 1.455 1_565 S
C165 C166 1.331 . S
C166 C155 1.451 . S
C166 C165 1.331 . S
C166 C167 1.497 . S
C167 C158 1.395 . S
C167 C162 1.446 . S
C167 C166 1.497 . S
C168 C169 1.582 1_565 S
C168 H225 0.962 . S
C168 H226 0.959 . S
C168 H227 0.958 . S
C169 C168 1.582 1_545 S
C169 O172 1.458 1_545 S
C169 H198 0.980 . S
O170 C115 1.426 . S
O170 C116 1.334 . S
O171 C143 1.412 . S
O171 C144 1.393 . S
O172 C134 1.435 . S
O172 C169 1.458 1_565 S
O173 C125 1.468 . S
O173 C126 1.408 . S
H174 C115 0.980 . S
H175 C114 0.959 . S
H176 C114 0.959 . S
H177 C114 0.960 . S
H178 C117 0.929 . S
H179 C121 0.929 . S
H180 C122 0.959 . S
H181 C122 0.961 . S
H182 C122 0.961 . S
H183 C123 0.960 . S
H184 C123 0.960 . S
H185 C123 0.961 . S
H186 C125 0.980 1_545 S
H187 C124 0.953 1_545 S
H188 C124 0.960 . S
H189 C124 0.959 . S
H190 C127 0.940 . S
H191 C131 0.931 . S
H192 C132 0.959 . S
H193 C132 0.961 . S
H194 C132 0.959 . S
H195 C133 0.960 . S
H196 C133 0.960 . S
H197 C133 0.960 . S
H198 C169 0.980 . S
H199 C135 0.930 . S
H200 C139 0.930 . S
H201 C140 0.961 . S
H202 C140 0.960 . S
H203 C140 0.958 . S
H204 C141 0.961 . S
H205 C141 0.960 . S
H206 C141 0.960 . S
H207 C143 0.980 . S
H208 C142 0.961 . S
H209 C142 0.961 . S
H210 C142 0.959 . S
H211 C145 0.932 . S
H212 C149 0.929 . S
H213 C150 0.961 . S
H214 C150 0.959 . S
H215 C150 0.959 . S
H216 C151 0.960 . S
H217 C151 0.962 . S
H218 C151 0.961 . S
H219 C153 0.929 . S
H220 C156 0.930 . S
H221 C157 0.929 . S
H222 C160 0.932 . S
H223 C163 0.929 . S
H224 C164 0.930 . S
H225 C168 0.962 . S
H226 C168 0.959 . S
H227 C168 0.958 . S
C228 C229 1.560 . S
C228 H289 0.959 . S
C228 H290 0.959 . S
C228 H291 0.960 . S
C229 C228 1.560 . S
C229 O284 1.426 . S
C229 H288 0.980 1_556 S
C230 C231 1.407 1_556 S
C230 C235 1.418 . S
C230 O284 1.334 . S
C231 C230 1.407 1_554 S
C231 C232 1.360 . S
C231 H292 0.929 . S
C232 C231 1.360 . S
C232 C233 1.401 . S
C232 C236 1.527 . S
C233 C232 1.401 . S
C233 C234 1.405 1_554 S
C233 C266 1.587 . S
C234 C233 1.405 1_556 S
C234 C235 1.332 . S
C234 C237 1.496 . S
C235 C230 1.418 . S
C235 C234 1.332 . S
C235 H293 0.929 . S
C236 C232 1.527 . S
C236 H294 0.959 . S
C236 H295 0.961 . S
C236 H296 0.961 . S
C237 C234 1.496 . S
C237 H297 0.960 . S
C237 H298 0.960 . S
C237 H299 0.961 . S
C238 C239 1.517 . S
C238 H301 0.961 . S
C238 H302 0.960 . S
C238 H303 0.959 . S
C239 C238 1.517 . S
C239 O287 1.468 . S
C239 H300 0.980 . S
C240 C241 1.349 . S
C240 C245 1.367 . S
C240 O287 1.408 . S
C241 C240 1.349 . S
C241 C242 1.407 . S
C241 H304 0.932 1_554 S
C242 C241 1.407 . S
C242 C243 1.449 . S
C242 C246 1.535 1_554 S
C243 C242 1.449 . S
C243 C244 1.384 . S
C243 C268 1.553 . S
C244 C243 1.384 . S
C244 C245 1.364 . S
C244 C247 1.450 . S
C245 C240 1.367 . S
C245 C244 1.364 . S
C245 H305 0.931 . S
C246 C242 1.535 1_556 S
C246 H306 0.959 . S
C246 H307 0.961 . S
C246 H308 0.959 . S
C247 C244 1.450 . S
C247 H309 0.960 . S
C247 H310 0.960 . S
C247 H311 0.960 . S
C248 C249 1.309 . S
C248 C253 1.304 . S
C248 O286 1.435 . S
C249 C248 1.309 . S
C249 C250 1.476 . S
C249 H313 0.930 1_554 S
C250 C249 1.476 . S
C250 C251 1.400 . S
C250 C254 1.567 1_554 S
C251 C250 1.400 . S
C251 C252 1.373 . S
C251 C273 1.432 . S
C252 C251 1.373 . S
C252 C253 1.339 . S
C252 C255 1.530 . S
C253 C248 1.304 . S
C253 C252 1.339 . S
C253 H314 0.930 . S
C254 C250 1.567 1_556 S
C254 H315 0.961 . S
C254 H316 0.960 . S
C254 H317 0.958 . S
C255 C252 1.530 . S
C255 H318 0.961 . S
C255 H319 0.960 . S
C255 H320 0.960 . S
C256 C257 1.530 1_556 S
C256 H322 0.961 . S
C256 H323 0.961 . S
C256 H324 0.959 . S
C257 C256 1.530 1_554 S
C257 O285 1.412 1_554 S
C257 H321 0.980 . S
C258 C259 1.288 . S
C258 C263 1.377 1_556 S
C258 O285 1.393 . S
C259 C258 1.288 . S
C259 C260 1.369 . S
C259 H325 0.932 . S
C260 C259 1.369 . S
C260 C261 1.398 1_556 S
C260 C264 1.527 . S
C261 C260 1.398 1_554 S
C261 C262 1.380 . S
C261 C275 1.497 . S
C262 C261 1.380 . S
C262 C263 1.383 . S
C262 C265 1.603 . S
C263 C258 1.377 1_554 S
C263 C262 1.383 . S
C263 H326 0.929 . S
C264 C260 1.527 . S
C264 H327 0.961 . S
C264 H328 0.959 . S
C264 H329 0.959 . S
C265 C262 1.603 . S
C265 H330 0.960 . S
C265 H331 0.962 . S
C265 H332 0.961 . S
C266 C233 1.587 . S
C266 C267 1.360 . S
C266 C279 1.412 . S
C267 C266 1.360 . S
C267 C268 1.365 . S
C267 H333 0.929 . S
C268 C243 1.553 . S
C268 C267 1.365 . S
C268 C269 1.404 . S
C269 C268 1.404 . S
C269 C270 1.395 . S
C269 C280 1.451 . S
C270 C269 1.395 . S
C270 C271 1.322 . S
C270 H334 0.930 . S
C271 C270 1.322 . S
C271 C272 1.459 . S
C271 H335 0.929 . S
C272 C271 1.459 . S
C272 C273 1.445 . S
C272 C281 1.395 . S
C273 C251 1.432 . S
C273 C272 1.445 . S
C273 C274 1.370 . S
C274 C273 1.370 . S
C274 C275 1.438 . S
C274 H336 0.930 . S
C275 C261 1.497 . S
C275 C274 1.438 . S
C275 C276 1.360 . S
C276 C275 1.360 . S
C276 C277 1.401 . S
C276 C281 1.446 . S
C277 C276 1.401 . S
C277 C278 1.347 . S
C277 H337 0.929 . S
C278 C277 1.347 . S
C278 C279 1.455 . S
C278 H338 0.930 . S
C279 C266 1.412 . S
C279 C278 1.455 . S
C279 C280 1.331 . S
C280 C269 1.451 . S
C280 C279 1.331 . S
C280 C281 1.497 . S
C281 C272 1.395 . S
C281 C276 1.446 . S
C281 C280 1.497 . S
C282 C283 1.582 . S
C282 H339 0.962 . S
C282 H340 0.959 . S
C282 H341 0.958 . S
C283 C282 1.582 . S
C283 O286 1.458 . S
C283 H312 0.980 . S
O284 C229 1.426 . S
O284 C230 1.334 . S
O285 C257 1.412 1_556 S
O285 C258 1.393 . S
O286 C248 1.435 . S
O286 C283 1.458 . S
O287 C239 1.468 . S
O287 C240 1.408 . S
H288 C229 0.980 1_554 S
H289 C228 0.959 . S
H290 C228 0.959 . S
H291 C228 0.960 . S
H292 C231 0.929 . S
H293 C235 0.929 . S
H294 C236 0.959 . S
H295 C236 0.961 . S
H296 C236 0.961 . S
H297 C237 0.960 . S
H298 C237 0.960 . S
H299 C237 0.961 . S
H300 C239 0.980 . S
H301 C238 0.961 . S
H302 C238 0.960 . S
H303 C238 0.959 . S
H304 C241 0.932 1_556 S
H305 C245 0.931 . S
H306 C246 0.959 . S
H307 C246 0.961 . S
H308 C246 0.959 . S
H309 C247 0.960 . S
H310 C247 0.960 . S
H311 C247 0.960 . S
H312 C283 0.980 . S
H313 C249 0.930 1_556 S
H314 C253 0.930 . S
H315 C254 0.961 . S
H316 C254 0.960 . S
H317 C254 0.958 . S
H318 C255 0.961 . S
H319 C255 0.960 . S
H320 C255 0.960 . S
H321 C257 0.980 . S
H322 C256 0.961 . S
H323 C256 0.961 . S
H324 C256 0.959 . S
H325 C259 0.932 . S
H326 C263 0.929 . S
H327 C264 0.961 . S
H328 C264 0.959 . S
H329 C264 0.959 . S
H330 C265 0.960 . S
H331 C265 0.962 . S
H332 C265 0.961 . S
H333 C267 0.929 . S
H334 C270 0.930 . S
H335 C271 0.929 . S
H336 C274 0.930 . S
H337 C277 0.929 . S
H338 C278 0.930 . S
H339 C282 0.962 . S
H340 C282 0.959 . S
H341 C282 0.958 . S
Zn342 O344 1.933 1_556 S
Zn342 O362 1.985 . S
Zn342 O373 1.955 . S
Zn343 O344 1.911 . S
Zn343 O363 1.970 . S
Zn343 O379 1.945 . S
Zn343 O386 1.981 . S
O344 Zn342 1.933 1_554 S
O344 Zn343 1.911 . S
O344 H345 0.841 . S
H345 O344 0.841 . S
C346 O347 1.246 . S
C346 O375 1.276 1_455 S
O347 C346 1.246 . S
Zn348 O350 1.911 . S
Zn348 O365 1.970 . S
Zn348 O382 1.945 . S
Zn348 O389 1.981 . S
Zn349 O350 1.933 1_556 S
Zn349 O364 1.985 . S
Zn349 O371 1.955 . S
O350 Zn348 1.911 . S
O350 Zn349 1.933 1_554 S
O350 H351 0.841 1_565 S
H351 O350 0.841 1_545 S
Zn352 O353 1.933 1_556 S
Zn352 O366 1.985 . S
Zn352 O375 1.955 . S
O353 Zn352 1.933 1_554 S
O353 Zn354 1.911 . S
O353 H355 0.841 1_655 S
Zn354 O353 1.911 . S
Zn354 O367 1.970 . S
Zn354 O383 1.981 . S
Zn354 O385 1.945 . S
H355 O353 0.841 1_455 S
Zn356 O357 1.933 1_556 S
Zn356 O369 1.985 . S
Zn356 O377 1.955 . S
O357 Zn356 1.933 1_554 S
O357 H358 0.841 . S
O357 Zn359 1.911 . S
H358 O357 0.841 . S
Zn359 O357 1.911 . S
Zn359 O370 1.970 . S
Zn359 O380 1.981 . S
Zn359 O388 1.945 . S
C360 O361 1.246 1_455 S
C360 O377 1.276 . S
O361 C360 1.246 1_655 S
O362 Zn342 1.985 . S
O362 C372 1.245 1_556 S
O363 Zn343 1.970 . S
O363 C372 1.263 . S
O364 Zn349 1.985 . S
O364 C376 1.245 1_556 S
O365 Zn348 1.970 . S
O365 C376 1.263 . S
O366 Zn352 1.985 . S
O366 C381 1.245 1_556 S
O367 Zn354 1.970 . S
O367 C381 1.263 . S
C368 O379 1.262 . S
C368 O380 1.245 1_545 S
O369 Zn356 1.985 . S
O369 C387 1.245 1_556 S
O370 Zn359 1.970 . S
O370 C387 1.263 . S
O371 Zn349 1.955 . S
O371 C390 1.276 1_565 S
C372 O362 1.245 1_554 S
C372 O363 1.263 . S
O373 Zn342 1.955 . S
O373 C392 1.276 . S
C374 O382 1.262 1_545 S
C374 O383 1.245 . S
O375 C346 1.276 1_655 S
O375 Zn352 1.955 . S
C376 O364 1.245 1_554 S
C376 O365 1.263 . S
O377 Zn356 1.955 . S
O377 C360 1.276 . S
C378 O385 1.262 1_455 S
C378 O386 1.245 . S
O379 Zn343 1.945 . S
O379 C368 1.262 . S
O380 Zn359 1.981 . S
O380 C368 1.245 1_565 S
C381 O366 1.245 1_554 S
C381 O367 1.263 . S
O382 Zn348 1.945 . S
O382 C374 1.262 1_565 S
O383 Zn354 1.981 . S
O383 C374 1.245 . S
C384 O388 1.262 . S
C384 O389 1.245 1_455 S
O385 Zn354 1.945 . S
O385 C378 1.262 1_655 S
O386 Zn343 1.981 . S
O386 C378 1.245 . S
C387 O369 1.245 1_554 S
C387 O370 1.263 . S
O388 Zn359 1.945 . S
O388 C384 1.262 . S
O389 Zn348 1.981 . S
O389 C384 1.245 1_655 S
C390 O371 1.276 1_545 S
C390 O391 1.246 . S
O391 C390 1.246 . S
C392 O373 1.276 . S
C392 O393 1.246 1_545 S
O393 C392 1.246 1_565 S
C394 C395 1.369 1_655 S
C394 C396 1.419 . S
C394 H398 0.930 . S
C395 C394 1.369 1_455 S
C395 C404 1.429 . S
C396 C394 1.419 . S
C396 C397 1.363 1_655 S
C396 H399 0.929 . S
C397 C396 1.363 1_455 S
C397 C403 1.428 . S
H398 C394 0.930 . S
H399 C396 0.929 . S
S400 N401 1.613 . S
S400 N402 1.610 . S
N401 S400 1.613 . S
N401 C404 1.350 . S
N402 S400 1.610 . S
N402 C403 1.351 . S
C403 C397 1.428 . S
C403 N402 1.351 . S
C403 C404 1.434 . S
C404 C395 1.429 . S
C404 N401 1.350 . S
C404 C403 1.434 . S
C405 C406 1.369 1_565 S
C405 C407 1.419 . S
C405 H409 0.930 . S
C406 C405 1.369 1_545 S
C406 C415 1.429 . S
C407 C405 1.419 . S
C407 C408 1.363 1_565 S
C407 H410 0.929 . S
C408 C407 1.363 1_545 S
C408 C414 1.428 . S
H409 C405 0.930 . S
H410 C407 0.929 . S
S411 N412 1.613 . S
S411 N413 1.610 . S
N412 S411 1.613 . S
N412 C415 1.350 . S
N413 S411 1.610 . S
N413 C414 1.351 . S
C414 C408 1.428 . S
C414 N413 1.351 . S
C414 C415 1.434 . S
C415 C406 1.429 . S
C415 N412 1.350 . S
C415 C414 1.434 . S
C416 C417 1.369 . S
C416 C418 1.419 . S
C416 H420 0.930 . S
C417 C416 1.369 . S
C417 C426 1.429 . S
C418 C416 1.419 . S
C418 C419 1.363 . S
C418 H421 0.929 . S
C419 C418 1.363 . S
C419 C425 1.428 1_455 S
H420 C416 0.930 . S
H421 C418 0.929 . S
S422 N423 1.613 . S
S422 N424 1.610 . S
N423 S422 1.613 . S
N423 C426 1.350 1_655 S
N424 S422 1.610 . S
N424 C425 1.351 . S
C425 C419 1.428 1_655 S
C425 N424 1.351 . S
C425 C426 1.434 1_655 S
C426 C417 1.429 . S
C426 N423 1.350 1_455 S
C426 C425 1.434 1_455 S
C427 C428 1.369 1_565 S
C427 C429 1.419 . S
C427 H431 0.930 . S
C428 C427 1.369 1_545 S
C428 C437 1.429 . S
C429 C427 1.419 . S
C429 C430 1.363 1_565 S
C429 H432 0.929 . S
C430 C429 1.363 1_545 S
C430 C436 1.428 . S
H431 C427 0.930 . S
H432 C429 0.929 . S
S433 N434 1.613 . S
S433 N435 1.610 . S
N434 S433 1.613 . S
N434 C437 1.350 . S
N435 S433 1.610 . S
N435 C436 1.351 . S
C436 C430 1.428 . S
C436 N435 1.351 . S
C436 C437 1.434 . S
C437 C428 1.429 . S
C437 N434 1.350 . S
C437 C436 1.434 . S
C438 C439 1.369 . S
C438 C440 1.419 . S
C438 H442 0.930 . S
C439 C438 1.369 . S
C439 C448 1.429 1_455 S
C440 C438 1.419 . S
C440 C441 1.363 . S
C440 H443 0.929 . S
C441 C440 1.363 . S
C441 C447 1.428 1_455 S
H442 C438 0.930 . S
H443 C440 0.929 . S
S444 N445 1.613 . S
S444 N446 1.610 . S
N445 S444 1.613 . S
N445 C448 1.350 . S
N446 S444 1.610 . S
N446 C447 1.351 . S
C447 C441 1.428 1_655 S
C447 N446 1.351 . S
C447 C448 1.434 . S
C448 C439 1.429 1_655 S
C448 N445 1.350 . S
C448 C447 1.434 . S
C449 C450 1.369 1_565 S
C449 C451 1.419 . S
C449 H453 0.930 . S
C450 C449 1.369 1_545 S
C450 C459 1.429 . S
C451 C449 1.419 . S
C451 C452 1.372 . S
C451 H454 0.929 . S
C452 C451 1.372 . S
C452 C458 1.418 1_565 S
H453 C449 0.930 . S
H454 C451 0.929 . S
S455 N456 1.613 . S
S455 N457 1.610 . S
N456 S455 1.613 . S
N456 C459 1.350 . S
N457 S455 1.610 . S
N457 C458 1.351 . S
C458 C452 1.418 1_545 S
C458 N457 1.351 . S
C458 C459 1.434 . S
C459 C450 1.429 . S
C459 N456 1.350 . S
C459 C458 1.434 . S
C460 C461 1.369 . S
C460 C462 1.419 . S
C460 H464 0.930 . S
C461 C460 1.369 . S
C461 C470 1.429 . S
C462 C460 1.419 . S
C462 C463 1.363 . S
C462 H465 0.929 . S
C463 C462 1.363 . S
C463 C469 1.428 . S
H464 C460 0.930 . S
H465 C462 0.929 . S
S466 N467 1.613 . S
S466 N468 1.610 . S
N467 S466 1.613 . S
N467 C470 1.350 . S
N468 S466 1.610 . S
N468 C469 1.351 . S
C469 C463 1.428 . S
C469 N468 1.351 . S
C469 C470 1.434 . S
C470 C461 1.429 . S
C470 N467 1.350 . S
C470 C469 1.434 . S
C471 C472 1.369 . S
C471 C473 1.419 . S
C471 H475 0.930 . S
C472 C471 1.369 . S
C472 C481 1.429 . S
C473 C471 1.419 . S
C473 C474 1.363 . S
C473 H476 0.929 . S
C474 C473 1.363 . S
C474 C480 1.428 . S
H475 C471 0.930 . S
H476 C473 0.929 . S
S477 N478 1.613 . S
S477 N479 1.610 . S
N478 S477 1.613 . S
N478 C481 1.350 . S
N479 S477 1.610 . S
N479 C480 1.351 . S
C480 C474 1.428 . S
C480 N479 1.351 . S
C480 C481 1.434 . S
C481 C472 1.429 . S
C481 N478 1.350 . S
C481 C480 1.434 . S
C482 C483 1.369 . S
C482 C484 1.419 . S
C482 H486 0.930 . S
C483 C482 1.369 . S
C483 C492 1.429 . S
C484 C482 1.419 . S
C484 C485 1.363 . S
C484 H487 0.929 . S
C485 C484 1.363 . S
C485 C491 1.428 . S
H486 C482 0.930 . S
H487 C484 0.929 . S
S488 N489 1.613 . S
S488 N490 1.610 . S
N489 S488 1.613 . S
N489 C492 1.350 . S
N490 S488 1.610 . S
N490 C491 1.351 . S
C491 C485 1.428 . S
C491 N490 1.351 . S
C491 C492 1.434 . S
C492 C483 1.429 . S
C492 N489 1.350 . S
C492 C491 1.434 . S
C493 C494 1.369 . S
C493 C495 1.419 . S
C493 H497 0.930 . S
C494 C493 1.369 . S
C494 C503 1.429 . S
C495 C493 1.419 . S
C495 C496 1.363 . S
C495 H498 0.929 . S
C496 C495 1.363 . S
C496 C502 1.428 1_554 S
H497 C493 0.930 . S
H498 C495 0.929 . S
S499 N500 1.613 . S
S499 N501 1.610 . S
N500 S499 1.613 . S
N500 C503 1.350 1_556 S
N501 S499 1.610 . S
N501 C502 1.352 . S
C502 C496 1.428 1_556 S
C502 N501 1.352 . S
C502 C503 1.434 1_556 S
C503 C494 1.429 . S
C503 N500 1.350 1_554 S
C503 C502 1.434 1_554 S
C504 C505 1.369 . S
C504 C506 1.419 . S
C504 H508 0.930 . S
C505 C504 1.369 . S
C505 C514 1.429 1_554 S
C506 C504 1.419 . S
C506 C507 1.363 . S
C506 H509 0.929 . S
C507 C506 1.363 . S
C507 C513 1.428 1_554 S
H508 C504 0.930 . S
H509 C506 0.929 . S
S510 N511 1.613 . S
S510 N512 1.610 . S
N511 S510 1.613 . S
N511 C514 1.350 . S
N512 S510 1.610 . S
N512 C513 1.351 . S
C513 C507 1.428 1_556 S
C513 N512 1.351 . S
C513 C514 1.434 . S
C514 C505 1.429 1_556 S
C514 N511 1.350 . S
C514 C513 1.434 . S
C515 C516 1.369 . S
C515 C517 1.419 . S
C515 H519 0.930 . S
C516 C515 1.369 . S
C516 C525 1.429 1_554 S
C517 C515 1.419 . S
C517 C518 1.363 . S
C517 H520 0.929 . S
C518 C517 1.363 . S
C518 C524 1.428 1_554 S
H519 C515 0.930 . S
H520 C517 0.929 . S
S521 N522 1.613 . S
S521 N523 1.610 . S
N522 S521 1.613 . S
N522 C525 1.350 . S
N523 S521 1.610 . S
N523 C524 1.351 . S
C524 C518 1.428 1_556 S
C524 N523 1.351 . S
C524 C525 1.434 . S
C525 C516 1.429 1_556 S
C525 N522 1.350 . S
C525 C524 1.434 . S
C397 C378 1.666 . S
C395 C11 1.007 1_455 S
C408 C374 1.571 . S
C406 C143 1.333 . S
C419 C384 1.408 . S
C417 C1 1.135 . S
C430 C368 1.711 . S
C428 C169 1.363 . S
C439 C29 1.404 . S
C441 C360 1.593 . S
C452 C392 1.814 1_565 S
C450 C125 1.102 1_545 S
C461 C55 1.443 . S
C463 C346 1.744 . S
C472 C115 1.252 . S
C474 C390 1.568 . S
C483 C283 0.874 . S
C485 C372 1.155 . S
C494 C239 0.695 . S
C496 C387 1.206 . S
C507 C381 1.040 . S
C505 C257 0.916 . S
C518 C376 0.947 . S
C516 C229 0.846 1_554 S
