# Generated by pormake.
# Topology pth, (4,4)-cn, num edge types: 1
# Building blocks:
#     Node 0, Type 0, BuildingBlock: NAHDIM_clean_sbu_0, # of connection points: 4
#     Node 1, Type 0, BuildingBlock: NAHDIM_clean_sbu_0, # of connection points: 4
#     Node 2, Type 0, BuildingBlock: NAHDIM_clean_sbu_0, # of connection points: 4
#     Node 3, Type 1, BuildingBlock: NAWXER_clean_linker_0, # of connection points: 4
#     Node 4, Type 1, BuildingBlock: NAWXER_clean_linker_0, # of connection points: 4
#     Node 5, Type 1, BuildingBlock: NAWXER_clean_linker_0, # of connection points: 4
#     Edge 6, Type (0, 1), BuildingBlock: XUDNAN_clean_linker_2, # of connection points: 2
#     Edge 7, Type (0, 1), BuildingBlock: XUDNAN_clean_linker_2, # of connection points: 2
#     Edge 8, Type (0, 1), BuildingBlock: XUDNAN_clean_linker_2, # of connection points: 2
#     Edge 9, Type (0, 1), BuildingBlock: XUDNAN_clean_linker_2, # of connection points: 2
#     Edge 10, Type (0, 1), BuildingBlock: XUDNAN_clean_linker_2, # of connection points: 2
#     Edge 11, Type (0, 1), BuildingBlock: XUDNAN_clean_linker_2, # of connection points: 2
#     Edge 12, Type (0, 1), BuildingBlock: XUDNAN_clean_linker_2, # of connection points: 2
#     Edge 13, Type (0, 1), BuildingBlock: XUDNAN_clean_linker_2, # of connection points: 2
#     Edge 14, Type (0, 1), BuildingBlock: XUDNAN_clean_linker_2, # of connection points: 2
#     Edge 15, Type (0, 1), BuildingBlock: XUDNAN_clean_linker_2, # of connection points: 2
#     Edge 16, Type (0, 1), BuildingBlock: XUDNAN_clean_linker_2, # of connection points: 2
#     Edge 17, Type (0, 1), BuildingBlock: XUDNAN_clean_linker_2, # of connection points: 2
# Relax obj value: 0.041
# Max RMSD: 0.165
# Mean RMSD: 0.085
data_MOF--net-pth--node1-NAHDIM_clean_sbu_0--node2-NAWXER_clean_linker_0--edge1-XUDNAN_clean_linker_2
_symmetry_space_group_name_H-M    P1
_symmetry_Int_Tables_number       1
_symmetry_cell_setting            triclinic
loop_
_symmetry_equiv_pos_as_xyz
'x, y, z'
_cell_length_a     28.989197
_cell_length_b     29.095768
_cell_length_c     64.550967
_cell_angle_alpha  91.888014
_cell_angle_beta   90.142313
_cell_angle_gamma 120.58489
loop_
_atom_site_label
_atom_site_type_symbol
_atom_site_fract_x
_atom_site_fract_y
_atom_site_fract_z
_atom_type_partial_charge
C0 C 0.0099 0.93593 0.0597 0.0
O1 O 0.96237 0.93069 0.06171 0.0
O2 O 0.02128 0.0643 0.07049 0.0
Zn3 Zn 0.0257 0.03052 0.04353 0.0
O4 O 0.95545 0.99227 0.02722 0.0
C5 C 0.08556 0.13526 0.02901 0.0
O6 O 0.05277 0.13988 0.04175 0.0
O7 O 0.04643 0.97698 0.05109 0.0
C8 C 0.94469 0.01424 0.01277 0.0
O9 O 0.97861 0.06445 0.00904 0.0
C10 C 0.98329 0.06935 0.07766 0.0
O11 O 0.93741 0.04777 0.06733 0.0
O12 O 0.08266 0.0902 0.02679 0.0
C13 C 0.04116 0.12956 0.34913 0.0
O14 O 0.99111 0.09163 0.35143 0.0
O15 O 0.00888 0.99661 0.35447 0.0
Zn16 Zn 0.04679 0.05949 0.3747 0.0
O17 O -0.00324 0.06571 0.3944 0.0
C18 C 0.08663 0.00442 0.39634 0.0
O19 O 0.03845 0.9656 0.39068 0.0
O20 O 0.07805 0.1257 0.35813 0.0
C21 C 0.95728 0.02899 0.40367 0.0
O22 O 0.94502 0.97912 0.40071 0.0
C23 C 0.03964 0.99408 0.34108 0.0
O24 O 0.09053 0.03158 0.34158 0.0
O25 O 0.10164 0.05169 0.39109 0.0
C26 C 0.08367 0.02267 0.67799 0.0
O27 O 0.09341 0.07201 0.67903 0.0
O28 O 0.96132 0.02989 0.68815 0.0
Zn29 Zn 0.00456 0.01078 0.7066 0.0
O30 O 0.05636 0.07538 0.72405 0.0
C31 C 0.93434 0.9565 0.74058 0.0
O32 O 0.95003 0.00512 0.7478 0.0
O33 O 0.04635 0.98782 0.68873 0.0
C34 C 0.07801 0.07536 0.74118 0.0
O35 O 0.06579 0.02975 0.74925 0.0
C36 C 0.9759 0.07779 0.68408 0.0
O37 O 0.02114 0.11701 0.69211 0.0
O38 O 0.95329 0.94997 0.72375 0.0
C39 C 0.99463 0.37737 0.24936 0.0
C40 C 0.03813 0.40093 0.26364 0.0
C41 C 0.98499 0.40903 0.23627 0.0
C42 C 0.01925 0.4647 0.23696 0.0
C43 C 0.07057 0.45691 0.265 0.0
C44 C 0.0611 0.48846 0.25182 0.0
C45 C 0.01333 0.49863 0.2219 0.0
C46 C 0.05376 0.38858 0.18686 0.0
C47 C 0.0184 0.35855 0.17025 0.0
C48 C 0.05232 0.43169 0.19626 0.0
C49 C 0.0136 0.44415 0.19009 0.0
C50 C 0.98122 0.37276 0.16352 0.0
C51 C 0.97868 0.41482 0.17341 0.0
C52 C 0.01054 0.48901 0.20016 0.0
C53 C 0.05894 0.69704 0.1675 0.0
C54 C 0.02426 0.68038 0.15007 0.0
C55 C 0.05231 0.66082 0.1825 0.0
C56 C 0.01084 0.60725 0.18036 0.0
C57 C 0.98246 0.62686 0.14804 0.0
C58 C 0.97618 0.59046 0.16297 0.0
C59 C 0.00675 0.56795 0.19527 0.0
C60 C 0.95845 0.67121 0.23143 0.0
C61 C 0.99384 0.70165 0.2479 0.0
C62 C 0.96362 0.63126 0.22097 0.0
C63 C 0.00419 0.62107 0.22685 0.0
C64 C 0.03455 0.69152 0.25364 0.0
C65 C 0.0394 0.65137 0.24331 0.0
C66 C 0.00802 0.57665 0.21694 0.0
H67 H 0.96893 0.33438 0.24785 0.0
H68 H 0.95173 0.38994 0.22521 0.0
H69 H 0.10358 0.4764 0.27615 0.0
H70 H 0.08757 0.53143 0.2528 0.0
H71 H 0.08268 0.37895 0.19274 0.0
H72 H 0.08155 0.45513 0.20841 0.0
H73 H 0.95443 0.35207 0.15039 0.0
H74 H 0.94928 0.42444 0.168 0.0
H75 H 0.09125 0.73814 0.16952 0.0
H76 H 0.08044 0.67442 0.19551 0.0
H77 H 0.95544 0.61291 0.13467 0.0
H78 H 0.94441 0.54913 0.16089 0.0
H79 H 0.92677 0.67823 0.22669 0.0
H80 H 0.93519 0.60756 0.20861 0.0
H81 H 0.06188 0.71377 0.26648 0.0
H82 H 0.07062 0.64381 0.24824 0.0
N83 N 0.01195 0.54205 0.22941 0.0
N84 N 0.00734 0.52412 0.18772 0.0
C85 C 0.70964 0.09362 0.51142 0.0
C86 C 0.7018 0.05496 0.49595 0.0
C87 C 0.66676 0.08791 0.52315 0.0
C88 C 0.61539 0.04288 0.51993 0.0
C89 C 0.6502 0.01017 0.49266 0.0
C90 C 0.60744 0.00432 0.5045 0.0
C91 C 0.5691 0.037 0.53169 0.0
C92 C 0.68263 0.03382 0.5781 0.0
C93 C 0.70386 0.07689 0.59275 0.0
C94 C 0.63893 0.02298 0.56538 0.0
C95 C 0.61603 0.05541 0.5669 0.0
C96 C 0.68013 0.1086 0.59451 0.0
C97 C 0.63642 0.09774 0.58178 0.0
C98 C 0.57002 0.0447 0.55344 0.0
C99 C 0.33947 0.96644 0.57181 0.0
C100 C 0.34585 0.00391 0.58756 0.0
C101 C 0.38301 0.97447 0.55995 0.0
C102 C 0.43362 0.02043 0.56344 0.0
C103 C 0.39667 0.04969 0.5911 0.0
C104 C 0.44014 0.0577 0.57922 0.0
C105 C 0.48065 0.02827 0.55169 0.0
C106 C 0.36999 0.03562 0.5047 0.0
C107 C 0.35079 0.99494 0.48907 0.0
C108 C 0.41167 0.04406 0.51815 0.0
C109 C 0.4346 0.01168 0.51631 0.0
C110 C 0.37432 0.96308 0.48712 0.0
C111 C 0.41601 0.9716 0.50054 0.0
C112 C 0.47999 0.02122 0.52991 0.0
H113 H 0.74891 0.12844 0.51444 0.0
H114 H 0.67367 0.11907 0.53454 0.0
H115 H 0.64252 0.98018 0.48061 0.0
H116 H 0.56799 0.96963 0.50155 0.0
H117 H 0.70014 0.00878 0.5763 0.0
H118 H 0.62302 0.98926 0.55436 0.0
H119 H 0.69495 0.14147 0.60589 0.0
H120 H 0.61888 0.12281 0.58338 0.0
H121 H 0.3008 0.9309 0.56865 0.0
H122 H 0.37725 0.94431 0.54827 0.0
H123 H 0.40314 0.07883 0.60335 0.0
H124 H 0.479 0.09305 0.58238 0.0
H125 H 0.35254 0.06068 0.50664 0.0
H126 H 0.42634 0.07624 0.52983 0.0
H127 H 0.36101 0.93202 0.47502 0.0
H128 H 0.43365 0.94668 0.49864 0.0
N129 N 0.52407 0.02541 0.5208 0.0
N130 N 0.52583 0.04022 0.56258 0.0
C131 C 0.3605 0.36871 0.84516 0.0
C132 C 0.33274 0.38169 0.83074 0.0
C133 C 0.39839 0.40795 0.85901 0.0
C134 C 0.40926 0.46071 0.85853 0.0
C135 C 0.34203 0.43411 0.83117 0.0
C136 C 0.38038 0.4733 0.84472 0.0
C137 C 0.45399 0.50428 0.87079 0.0
C138 C 0.32379 0.41946 0.91681 0.0
C139 C 0.33718 0.39577 0.93254 0.0
C140 C 0.36273 0.45387 0.90334 0.0
C141 C 0.41576 0.46518 0.90536 0.0
C142 C 0.38995 0.40601 0.93422 0.0
C143 C 0.4291 0.44097 0.92086 0.0
C144 C 0.45803 0.50578 0.89258 0.0
C145 C 0.61703 0.73446 0.91165 0.0
C146 C 0.65318 0.73334 0.92594 0.0
C147 C 0.57977 0.6881 0.9006 0.0
C148 C 0.57733 0.63949 0.90377 0.0
C149 C 0.64985 0.68412 0.9293 0.0
C150 C 0.61177 0.6375 0.9185 0.0
C151 C 0.53824 0.59084 0.89184 0.0
C152 C 0.66993 0.6861 0.84735 0.0
C153 C 0.65359 0.6963 0.82844 0.0
C154 C 0.6318 0.65202 0.86122 0.0
C155 C 0.5767 0.62901 0.85667 0.0
C156 C 0.59878 0.67383 0.82393 0.0
C157 C 0.56072 0.64076 0.83796 0.0
C158 C 0.53537 0.58822 0.86994 0.0
H159 H 0.35473 0.3289 0.84517 0.0
H160 H 0.42081 0.39767 0.86944 0.0
H161 H 0.3204 0.44529 0.82073 0.0
H162 H 0.3881 0.51381 0.84421 0.0
H163 H 0.28334 0.41206 0.91517 0.0
H164 H 0.35178 0.47307 0.89182 0.0
H165 H 0.40134 0.38864 0.94636 0.0
H166 H 0.46996 0.4497 0.92278 0.0
H167 H 0.61722 0.7711 0.90902 0.0
H168 H 0.55263 0.69014 0.88959 0.0
H169 H 0.67737 0.68165 0.93994 0.0
H170 H 0.61019 0.60018 0.9212 0.0
H171 H 0.7121 0.70245 0.85093 0.0
H172 H 0.64562 0.64202 0.87499 0.0
H173 H 0.58543 0.68126 0.80939 0.0
H174 H 0.51861 0.62332 0.83395 0.0
N175 N 0.49294 0.54524 0.86034 0.0
N176 N 0.4999 0.54922 0.90235 0.0
H177 H 0.91538 0.09784 0.09626 0.0
H178 H 0.0781 0.12739 0.09917 0.0
H179 H 0.10244 0.19977 0.12532 0.0
H180 H 0.94763 0.22958 0.09932 0.0
H181 H 0.89351 0.22024 0.11572 0.0
H182 H 0.88603 0.16592 0.09908 0.0
H183 H 0.8638 0.10597 0.13068 0.0
H184 H 0.87049 0.15996 0.14742 0.0
H185 H 0.90946 0.12911 0.15271 0.0
H186 H 0.1133 0.27715 0.14653 0.0
H187 H 0.1078 0.34964 0.16454 0.0
H188 H 0.93625 0.2662 0.15102 0.0
C189 C 0.95574 0.11865 0.10278 0.0
C190 C 0.99479 0.10695 0.09557 0.0
C191 C 0.04735 0.13548 0.10439 0.0
C192 C 0.06169 0.17676 0.11929 0.0
C193 C 0.02284 0.1885 0.12553 0.0
C194 C 0.97067 0.15973 0.11791 0.0
C195 C 0.93755 0.18247 0.12659 0.0
C196 C 0.91487 0.20063 0.10913 0.0
C197 C 0.89267 0.14196 0.14016 0.0
C198 C 0.97991 0.22971 0.13954 0.0
C199 C 0.02872 0.23227 0.13872 0.0
C200 C 0.07495 0.27477 0.14787 0.0
C201 C 0.07123 0.31575 0.15822 0.0
C202 C 0.0214 0.3138 0.15965 0.0
C203 C 0.97513 0.26958 0.15027 0.0
H204 H 0.87184 0.96237 0.42751 0.0
H205 H 0.9709 0.1281 0.41108 0.0
H206 H 0.91811 0.15281 0.4337 0.0
H207 H 0.74779 0.96054 0.42869 0.0
H208 H 0.72262 0.91833 0.4506 0.0
H209 H 0.76917 0.91346 0.43356 0.0
H210 H 0.83301 0.93098 0.46485 0.0
H211 H 0.78661 0.93586 0.482 0.0
H212 H 0.85516 0.98994 0.48139 0.0
H213 H 0.85345 0.1596 0.45704 0.0
H214 H 0.78032 0.14777 0.47978 0.0
H215 H 0.72446 0.97832 0.48198 0.0
C216 C 0.88253 0.00386 0.42872 0.0
C217 C 0.92554 0.04324 0.41751 0.0
C218 C 0.93819 0.09714 0.41952 0.0
C219 C 0.90848 0.11167 0.43235 0.0
C220 C 0.86634 0.07194 0.44314 0.0
C221 C 0.85335 0.01917 0.44153 0.0
C222 C 0.80555 0.98431 0.45461 0.0
C223 C 0.7585 0.94165 0.44105 0.0
C224 C 0.82103 0.95878 0.47173 0.0
C225 C 0.79346 0.0257 0.4636 0.0
C226 C 0.82914 0.07598 0.45682 0.0
C227 C 0.82549 0.12051 0.46263 0.0
C228 C 0.78401 0.11342 0.47567 0.0
C229 C 0.74677 0.06219 0.48279 0.0
C230 C 0.75198 0.01793 0.4767 0.0
H231 H 0.90062 0.95242 0.78054 0.0
H232 H 0.873 0.85486 0.72433 0.0
H233 H 0.79928 0.77743 0.74105 0.0
H234 H 0.87417 0.8475 0.81635 0.0
H235 H 0.8422 0.86935 0.83488 0.0
H236 H 0.89367 0.91703 0.81864 0.0
H237 H 0.82844 0.94656 0.8056 0.0
H238 H 0.77673 0.89884 0.82171 0.0
H239 H 0.76449 0.89724 0.79423 0.0
H240 H 0.72488 0.71271 0.76275 0.0
H241 H 0.6586 0.66213 0.7894 0.0
H242 H 0.73729 0.79948 0.83226 0.0
C243 C 0.87923 0.91467 0.77181 0.0
C244 C 0.89237 0.90965 0.75112 0.0
C245 C 0.86371 0.85956 0.74022 0.0
C246 C 0.8217 0.81538 0.74956 0.0
C247 C 0.80937 0.82179 0.76988 0.0
C248 C 0.83766 0.8699 0.781 0.0
C249 C 0.8163 0.86583 0.80268 0.0
C250 C 0.85914 0.87549 0.8191 0.0
C251 C 0.79524 0.90441 0.80625 0.0
C252 C 0.77102 0.80818 0.80186 0.0
C253 C 0.76758 0.78365 0.78273 0.0
C254 C 0.72749 0.73121 0.77786 0.0
C255 C 0.69001 0.70295 0.793 0.0
C256 C 0.69334 0.72707 0.81275 0.0
C257 C 0.73448 0.78019 0.81728 0.0
H258 H 0.93981 0.84463 0.07897 0.0
H259 H 0.10706 0.94139 0.06279 0.0
H260 H 0.128 0.88236 0.0823 0.0
H261 H 0.96198 0.82373 0.12988 0.0
H262 H 0.90678 0.75586 0.13028 0.0
H263 H 0.90388 0.8021 0.11326 0.0
H264 H 0.88743 0.73776 0.0817 0.0
H265 H 0.88991 0.69104 0.09866 0.0
H266 H 0.9338 0.71482 0.07689 0.0
H267 H 0.13205 0.81833 0.10644 0.0
H268 H 0.11818 0.75145 0.13212 0.0
H269 H 0.94821 0.69644 0.13215 0.0
C270 C 0.98072 0.85294 0.07919 0.0
C271 C 0.02182 0.89762 0.06934 0.0
C272 C 0.07488 0.90727 0.07015 0.0
C273 C 0.08716 0.87397 0.08119 0.0
C274 C 0.04584 0.83101 0.09115 0.0
C275 C 0.99359 0.8201 0.09006 0.0
C276 C 0.95703 0.77314 0.10298 0.0
C277 C 0.93091 0.78973 0.12011 0.0
C278 C 0.91454 0.72642 0.08923 0.0
C279 C -0.0029 0.76013 0.11195 0.0
C280 C 0.04808 0.79379 0.10487 0.0
C281 C 0.09223 0.79133 0.11189 0.0
C282 C 0.08404 0.75354 0.12655 0.0
C283 C 0.03212 0.71876 0.13401 0.0
C284 C 0.98816 0.72192 0.12643 0.0
H285 H 0.18337 0.07594 0.41544 0.0
H286 H 0.06868 0.90631 0.40616 0.0
H287 H 0.12454 0.88569 0.42834 0.0
H288 H 0.30302 0.06529 0.41566 0.0
H289 H 0.33681 0.11709 0.43559 0.0
H290 H 0.28875 0.11868 0.41833 0.0
H291 H 0.23551 0.12236 0.44991 0.0
H292 H 0.28325 0.12051 0.46725 0.0
H293 H 0.21302 0.07123 0.46874 0.0
H294 H 0.19106 0.88308 0.45209 0.0
H295 H 0.26471 0.89894 0.47602 0.0
H296 H 0.33658 0.07002 0.46995 0.0
C297 C 0.17024 0.03447 0.41795 0.0
C298 C 0.12166 0.99274 0.40905 0.0
C299 C 0.10569 0.93899 0.41283 0.0
C300 C 0.13716 0.92681 0.42539 0.0
C301 C 0.18448 0.96881 0.43408 0.0
C302 C 0.2011 0.02154 0.43053 0.0
C303 C 0.25316 0.05906 0.44215 0.0
C304 C 0.29809 0.09196 0.42703 0.0
C305 C 0.24576 0.09543 0.45795 0.0
C306 C 0.26289 0.01911 0.45287 0.0
C307 C 0.22288 0.96729 0.44792 0.0
C308 C 0.22282 0.92347 0.45601 0.0
C309 C 0.26491 0.93287 0.4695 0.0
C310 C 0.30642 0.98567 0.47481 0.0
C311 C 0.30516 0.02924 0.46634 0.0
H312 H 0.1164 0.09373 0.78149 0.0
H313 H 0.12898 0.17314 0.72417 0.0
H314 H 0.19555 0.25929 0.74091 0.0
H315 H 0.12617 0.19946 0.81552 0.0
H316 H 0.16485 0.19079 0.83528 0.0
H317 H 0.11872 0.13472 0.81875 0.0
H318 H 0.19561 0.1187 0.80795 0.0
H319 H 0.24199 0.17478 0.82441 0.0
H320 H 0.25555 0.17243 0.79728 0.0
H321 H 0.26187 0.33589 0.76315 0.0
H322 H 0.32172 0.40017 0.79024 0.0
H323 H 0.26313 0.27306 0.83409 0.0
C324 C 0.13331 0.12924 0.77247 0.0
C325 C 0.11763 0.12671 0.75151 0.0
C326 C 0.14028 0.17412 0.74026 0.0
C327 C 0.17823 0.22324 0.7496 0.0
C328 C 0.1928 0.2244 0.77025 0.0
C329 C 0.17091 0.17887 0.78163 0.0
C330 C 0.19291 0.19172 0.80374 0.0
C331 C 0.14798 0.17839 0.81923 0.0
C332 C 0.22332 0.16268 0.80862 0.0
C333 C 0.23076 0.25151 0.8029 0.0
C334 C 0.23014 0.26932 0.78339 0.0
C335 C 0.26228 0.32262 0.77858 0.0
C336 C 0.29583 0.35894 0.79418 0.0
C337 C 0.29667 0.34204 0.81448 0.0
C338 C 0.26368 0.28738 0.81878 0.0
H339 H 0.87994 0.00553 0.66521 0.0
H340 H 0.99516 0.17554 0.6722 0.0
H341 H 0.93817 0.19407 0.64955 0.0
H342 H 0.84597 0.00481 0.61166 0.0
H343 H 0.77617 0.95558 0.61449 0.0
H344 H 0.82605 0.95584 0.63127 0.0
H345 H 0.77614 0.96244 0.66346 0.0
H346 H 0.72607 0.96213 0.64679 0.0
H347 H 0.76187 0.01587 0.66584 0.0
H348 H 0.86829 0.19384 0.62614 0.0
H349 H 0.79108 0.17479 0.60356 0.0
H350 H 0.72168 0.00507 0.61245 0.0
C351 C 0.89331 0.0467 0.66199 0.0
C352 C 0.94204 0.08911 0.67048 0.0
C353 C 0.95798 0.14239 0.66587 0.0
C354 C 0.9259 0.15333 0.65303 0.0
C355 C 0.87808 0.11055 0.64494 0.0
C356 C 0.86187 0.05831 0.64924 0.0
C357 C 0.80872 0.01954 0.63864 0.0
C358 C 0.81461 0.98172 0.62309 0.0
C359 C 0.76566 0.98816 0.65464 0.0
C360 C 0.79754 0.05811 0.62769 0.0
C361 C 0.83795 0.11042 0.63151 0.0
C362 C 0.83634 0.15304 0.62307 0.0
C363 C 0.79221 0.14184 0.61037 0.0
C364 C 0.75035 0.08846 0.60624 0.0
C365 C 0.75331 0.04623 0.61508 0.0
H366 H 0.86454 0.90975 0.01636 0.0
H367 H 0.91992 0.04561 0.97704 0.0
H368 H 0.84806 0.98957 0.95148 0.0
H369 H 0.83444 0.81319 0.97689 0.0
H370 H 0.77491 0.76103 0.9884 0.0
H371 H 0.82749 0.81267 0.00464 0.0
H372 H 0.75995 0.83598 0.02093 0.0
H373 H 0.70694 0.78396 0.00488 0.0
H374 H 0.71999 0.85145 0.00432 0.0
H375 H 0.77739 0.91705 0.92854 0.0
H376 H 0.708 0.83425 0.91074 0.0
H377 H 0.69417 0.74632 0.96581 0.0
C378 C 0.861 0.92797 0.00255 0.0
C379 C 0.89793 0.98207 -0.0013 0.0
C380 C 0.89206 0.00431 0.98038 0.0
C381 C 0.85138 0.9728 0.96573 0.0
C382 C 0.81649 0.91932 0.96976 0.0
C383 C 0.82032 0.8972 0.98784 0.0
C384 C 0.77878 0.8382 0.98802 0.0
C385 C 0.80553 0.8043 0.98957 0.0
C386 C 0.73905 0.82674 0.00558 0.0
C387 C 0.75209 0.83036 0.96696 0.0
C388 C 0.7744 0.87768 0.95672 0.0
C389 C 0.7587 0.87994 0.93657 0.0
C390 C 0.7189 0.83258 0.92663 0.0
C391 C 0.69477 0.7835 0.93689 0.0
C392 C 0.7117 0.78284 0.9574 0.0
H393 H 0.09916 0.97211 0.31433 0.0
H394 H 0.93584 0.91229 0.33397 0.0
H395 H 0.90468 0.83371 0.30983 0.0
H396 H 0.06766 0.92626 0.25986 0.0
H397 H 0.11927 0.90916 0.25855 0.0
H398 H 0.12752 0.9628 0.27587 0.0
H399 H 0.14244 0.91674 0.30677 0.0
H400 H 0.13416 0.863 0.28959 0.0
H401 H 0.09254 0.84875 0.31195 0.0
H402 H 0.89264 0.75901 0.28494 0.0
H403 H 0.90128 0.69307 0.26263 0.0
H404 H 0.07277 0.8025 0.25998 0.0
C405 C 0.05669 0.94297 0.31337 0.0
C406 C 0.01986 0.94843 0.32595 0.0
C407 C 0.96474 0.90896 0.32441 0.0
C408 C 0.94667 0.86432 0.31071 0.0
C409 C 0.98426 0.85993 0.29869 0.0
C410 C 0.03812 0.89826 0.29992 0.0
C411 C 0.07097 0.88276 0.28641 0.0
C412 C 0.09793 0.92262 0.26915 0.0
C413 C 0.11245 0.87749 0.29947 0.0
C414 C 0.02738 0.8291 0.2777 0.0
C415 C 0.97751 0.81684 0.28471 0.0
C416 C 0.93143 0.76844 0.27922 0.0
C417 C 0.93667 0.73136 0.26649 0.0
C418 C 0.98768 0.74278 0.25961 0.0
C419 C 0.03332 0.79263 0.26509 0.0
H420 H 0.16737 0.08865 0.65377 0.0
H421 H 0.07335 0.92405 0.67203 0.0
H422 H 0.12849 0.90055 0.65 0.0
H423 H 0.18565 0.05953 0.60052 0.0
H424 H 0.25321 0.11547 0.59979 0.0
H425 H 0.20534 0.11885 0.61654 0.0
H426 H 0.26961 0.14061 0.64811 0.0
H427 H 0.31762 0.13724 0.63147 0.0
H428 H 0.29371 0.09606 0.6537 0.0
H429 H 0.19543 0.89564 0.62662 0.0
H430 H 0.26985 0.90997 0.604 0.0
H431 H 0.31881 0.07751 0.60081 0.0
C432 C 0.15814 0.04758 0.65309 0.0
C433 C 0.11601 0.00817 0.66461 0.0
C434 C 0.10542 0.95493 0.66333 0.0
C435 C 0.13646 0.94117 0.65085 0.0
C436 C 0.1778 0.98109 0.63975 0.0
C437 C 0.18864 0.03319 0.64075 0.0
C438 C 0.23595 0.06878 0.62762 0.0
C439 C 0.219 0.09201 0.61008 0.0
C440 C 0.28193 0.11329 0.64103 0.0
C441 C 0.25037 0.02867 0.61922 0.0
C442 C 0.21623 0.97826 0.62631 0.0
C443 C 0.2222 0.93487 0.62086 0.0
C444 C 0.26439 0.94334 0.60792 0.0
C445 C 0.30009 0.99483 0.6006 0.0
C446 C 0.29254 0.0378 0.6063 0.0
H447 H 0.16385 0.1439 0.0024 0.0
H448 H 0.08825 0.22982 0.0269 0.0
H449 H 0.14476 0.30521 0.00508 0.0
H450 H 0.29777 0.26038 -0.00023 0.0
H451 H 0.31331 0.23743 0.97598 0.0
H452 H 0.26725 0.18978 0.99373 0.0
H453 H 0.19505 0.146 0.96432 0.0
H454 H 0.24083 0.1936 0.9465 0.0
H455 H 0.17603 0.18664 0.95032 0.0
H456 H 0.20592 0.36965 0.97995 0.0
H457 H 0.27272 0.42215 0.95389 0.0
H458 H 0.31144 0.29695 0.94601 0.0
C459 C 0.1594 0.17868 0.00322 0.0
C460 C 0.12152 0.18085 0.01634 0.0
C461 C 0.11698 0.22713 0.01701 0.0
C462 C 0.14885 0.27024 0.00465 0.0
C463 C 0.18542 0.26672 0.99179 0.0
C464 C 0.19131 0.22246 0.99106 0.0
C465 C 0.23398 0.22936 0.97586 0.0
C466 C 0.28086 0.22924 0.987 0.0
C467 C 0.21002 0.18634 0.9582 0.0
C468 C 0.25065 0.28418 0.96809 0.0
C469 C 0.22186 0.30477 0.97746 0.0
C470 C 0.22893 0.35414 0.97254 0.0
C471 C 0.26665 0.38348 0.95766 0.0
C472 C 0.29699 0.36347 0.94797 0.0
C473 C 0.28898 0.31325 0.95333 0.0
H474 H 0.96917 0.15156 0.33175 0.0
H475 H 0.13994 0.21229 0.33837 0.0
H476 H 0.15828 0.28937 0.31739 0.0
H477 H 0.9697 0.18758 0.27938 0.0
H478 H 0.91917 0.20544 0.28337 0.0
H479 H 0.92002 0.15559 0.29891 0.0
H480 H 0.92437 0.20963 0.33236 0.0
H481 H 0.92349 0.25964 0.31693 0.0
H482 H 0.97696 0.27854 0.33568 0.0
H483 H 0.1571 0.35899 0.29514 0.0
H484 H 0.13699 0.41571 0.27374 0.0
H485 H 0.96688 0.30956 0.28301 0.0
C486 C 0.01052 0.18094 0.3288 0.0
C487 C 0.05318 0.17589 0.33665 0.0
C488 C 0.10666 0.21541 0.3325 0.0
C489 C 0.11742 0.25925 0.32061 0.0
C490 C 0.07425 0.26291 0.31312 0.0
C491 C 0.0219 0.22481 0.31711 0.0
C492 C 0.98256 0.23781 0.30741 0.0
C493 C 0.94571 0.194 0.29131 0.0
C494 C 0.94994 0.24696 0.32409 0.0
C495 C 0.02089 0.28915 0.29718 0.0
C496 C 0.0736 0.30304 0.30063 0.0
C497 C 0.116 0.34866 0.29247 0.0
C498 C 0.10415 0.38081 0.28045 0.0
C499 C 0.05033 0.36726 0.27675 0.0
C500 C 0.00838 0.32081 0.28534 0.0
loop_
_geom_bond_atom_site_label_1
_geom_bond_atom_site_label_2
_geom_bond_distance
_geom_bond_site_symmetry_2
_ccdc_geom_bond_type
C0 O1 1.160 . S
C0 O7 1.185 . S
O1 C0 1.160 . S
O2 Zn3 1.899 . S
O2 C10 1.261 1_455 S
Zn3 O2 1.899 . S
Zn3 O4 2.032 1_445 S
Zn3 O7 2.086 1_545 S
Zn3 O12 1.977 . S
O4 Zn3 2.032 1_665 S
O4 C8 1.278 . S
C5 O6 1.203 . S
C5 O12 1.267 . S
O6 C5 1.203 . S
O7 C0 1.185 . S
O7 Zn3 2.086 1_565 S
C8 O4 1.278 . S
C8 O9 1.211 1_565 S
O9 C8 1.211 1_545 S
C10 O2 1.261 1_655 S
C10 O11 1.287 . S
O11 C10 1.287 . S
O12 Zn3 1.977 . S
O12 C5 1.267 . S
C13 O14 1.160 . S
C13 O20 1.185 . S
O14 C13 1.160 . S
O15 Zn16 1.899 . S
O15 C23 1.284 1_545 S
Zn16 O15 1.899 . S
Zn16 O17 2.032 1_455 S
Zn16 O20 2.086 . S
Zn16 O25 1.977 . S
O17 Zn16 2.032 1_655 S
O17 C21 1.278 . S
C18 O19 1.203 . S
C18 O25 1.267 . S
O19 C18 1.203 . S
O20 C13 1.185 . S
O20 Zn16 2.086 . S
C21 O17 1.278 . S
C21 O22 1.211 . S
O22 C21 1.211 . S
C23 O15 1.284 1_565 S
C23 O24 1.273 1_455 S
O24 C23 1.273 1_655 S
O25 Zn16 1.977 . S
O25 C18 1.267 . S
C26 O27 1.160 . S
C26 O33 1.185 1_545 S
O27 C26 1.160 . S
O28 Zn29 1.899 1_655 S
O28 C36 1.284 . S
Zn29 O28 1.899 1_455 S
Zn29 O30 2.032 . S
Zn29 O33 2.086 1_545 S
Zn29 O38 1.977 1_445 S
O30 Zn29 2.032 . S
O30 C34 1.278 . S
C31 O32 1.203 . S
C31 O38 1.267 . S
O32 C31 1.203 . S
O33 C26 1.185 1_565 S
O33 Zn29 2.086 1_565 S
C34 O30 1.278 . S
C34 O35 1.211 . S
O35 C34 1.211 . S
C36 O28 1.284 . S
C36 O37 1.273 . S
O37 C36 1.273 . S
O38 Zn29 1.977 1_665 S
O38 C31 1.267 . S
C39 C40 1.384 1_655 S
C39 C41 1.384 . S
C39 H67 0.931 . S
C40 C39 1.384 1_455 S
C40 C43 1.382 . S
C41 C39 1.384 . S
C41 C42 1.381 1_655 S
C41 H68 0.930 . S
C42 C41 1.381 1_455 S
C42 C44 1.381 . S
C42 C45 1.487 . S
C43 C40 1.382 . S
C43 C44 1.387 . S
C43 H69 0.930 . S
C44 C42 1.381 . S
C44 C43 1.387 . S
C44 H70 0.931 . S
C45 C42 1.487 . S
C45 C52 1.399 . S
C45 N83 1.343 . S
C46 C47 1.384 . S
C46 C48 1.384 . S
C46 H71 0.931 . S
C47 C46 1.384 . S
C47 C50 1.382 1_455 S
C48 C46 1.384 . S
C48 C49 1.381 . S
C48 H72 0.930 . S
C49 C48 1.381 . S
C49 C51 1.381 1_455 S
C49 C52 1.487 . S
C50 C47 1.382 1_655 S
C50 C51 1.387 . S
C50 H73 0.930 . S
C51 C49 1.381 1_655 S
C51 C50 1.387 . S
C51 H74 0.931 . S
C52 C45 1.399 . S
C52 C49 1.487 . S
C52 N84 1.343 . S
C53 C54 1.384 . S
C53 C55 1.384 . S
C53 H75 0.931 . S
C54 C53 1.384 . S
C54 C57 1.382 1_455 S
C55 C53 1.384 . S
C55 C56 1.381 . S
C55 H76 0.930 . S
C56 C55 1.381 . S
C56 C58 1.381 1_455 S
C56 C59 1.487 . S
C57 C54 1.382 1_655 S
C57 C58 1.387 . S
C57 H77 0.930 . S
C58 C56 1.381 1_655 S
C58 C57 1.387 . S
C58 H78 0.931 . S
C59 C56 1.487 . S
C59 C66 1.399 . S
C59 N84 1.343 . S
C60 C61 1.384 1_655 S
C60 C62 1.384 . S
C60 H79 0.931 . S
C61 C60 1.384 1_455 S
C61 C64 1.382 . S
C62 C60 1.384 . S
C62 C63 1.381 1_655 S
C62 H80 0.930 . S
C63 C62 1.381 1_455 S
C63 C65 1.381 . S
C63 C66 1.487 . S
C64 C61 1.382 . S
C64 C65 1.387 . S
C64 H81 0.930 . S
C65 C63 1.381 . S
C65 C64 1.387 . S
C65 H82 0.931 . S
C66 C59 1.399 . S
C66 C63 1.487 . S
C66 N83 1.343 . S
H67 C39 0.931 . S
H68 C41 0.930 . S
H69 C43 0.930 . S
H70 C44 0.931 . S
H71 C46 0.931 . S
H72 C48 0.930 . S
H73 C50 0.930 . S
H74 C51 0.931 . S
H75 C53 0.931 . S
H76 C55 0.930 . S
H77 C57 0.930 . S
H78 C58 0.931 . S
H79 C60 0.931 . S
H80 C62 0.930 . S
H81 C64 0.930 . S
H82 C65 0.931 . S
N83 C45 1.343 . S
N83 C66 1.343 . S
N84 C52 1.343 . S
N84 C59 1.343 . S
C85 C86 1.384 . S
C85 C87 1.384 . S
C85 H113 0.931 . S
C86 C85 1.384 . S
C86 C89 1.382 1_545 S
C87 C85 1.384 . S
C87 C88 1.381 . S
C87 H114 0.930 . S
C88 C87 1.381 . S
C88 C90 1.381 1_545 S
C88 C91 1.487 . S
C89 C86 1.382 1_565 S
C89 C90 1.387 . S
C89 H115 0.930 . S
C90 C88 1.381 1_565 S
C90 C89 1.387 . S
C90 H116 0.931 . S
C91 C88 1.487 . S
C91 C98 1.399 . S
C91 N129 1.343 . S
C92 C93 1.384 1_565 S
C92 C94 1.384 . S
C92 H117 0.931 . S
C93 C92 1.384 1_545 S
C93 C96 1.382 . S
C94 C92 1.384 . S
C94 C95 1.381 1_565 S
C94 H118 0.930 . S
C95 C94 1.381 1_545 S
C95 C97 1.381 . S
C95 C98 1.487 . S
C96 C93 1.382 . S
C96 C97 1.387 . S
C96 H119 0.930 . S
C97 C95 1.381 . S
C97 C96 1.387 . S
C97 H120 0.931 . S
C98 C91 1.399 . S
C98 C95 1.487 . S
C98 N130 1.343 . S
C99 C100 1.384 1_565 S
C99 C101 1.384 . S
C99 H121 0.931 . S
C100 C99 1.384 1_545 S
C100 C103 1.382 . S
C101 C99 1.384 . S
C101 C102 1.381 1_565 S
C101 H122 0.930 . S
C102 C101 1.381 1_545 S
C102 C104 1.381 . S
C102 C105 1.487 . S
C103 C100 1.382 . S
C103 C104 1.387 . S
C103 H123 0.930 . S
C104 C102 1.381 . S
C104 C103 1.387 . S
C104 H124 0.931 . S
C105 C102 1.487 . S
C105 C112 1.399 . S
C105 N130 1.343 . S
C106 C107 1.384 . S
C106 C108 1.384 . S
C106 H125 0.931 . S
C107 C106 1.384 . S
C107 C110 1.382 1_545 S
C108 C106 1.384 . S
C108 C109 1.381 . S
C108 H126 0.930 . S
C109 C108 1.381 . S
C109 C111 1.381 1_545 S
C109 C112 1.487 . S
C110 C107 1.382 1_565 S
C110 C111 1.387 . S
C110 H127 0.930 . S
C111 C109 1.381 1_565 S
C111 C110 1.387 . S
C111 H128 0.931 . S
C112 C105 1.399 . S
C112 C109 1.487 . S
C112 N129 1.343 . S
H113 C85 0.931 . S
H114 C87 0.930 . S
H115 C89 0.930 . S
H116 C90 0.931 . S
H117 C92 0.931 . S
H118 C94 0.930 . S
H119 C96 0.930 . S
H120 C97 0.931 . S
H121 C99 0.931 . S
H122 C101 0.930 . S
H123 C103 0.930 . S
H124 C104 0.931 . S
H125 C106 0.931 . S
H126 C108 0.930 . S
H127 C110 0.930 . S
H128 C111 0.931 . S
N129 C91 1.343 . S
N129 C112 1.343 . S
N130 C98 1.343 . S
N130 C105 1.343 . S
C131 C132 1.384 . S
C131 C133 1.384 . S
C131 H159 0.931 . S
C132 C131 1.384 . S
C132 C135 1.382 . S
C133 C131 1.384 . S
C133 C134 1.381 . S
C133 H160 0.930 . S
C134 C133 1.381 . S
C134 C136 1.381 . S
C134 C137 1.487 . S
C135 C132 1.382 . S
C135 C136 1.387 . S
C135 H161 0.930 . S
C136 C134 1.381 . S
C136 C135 1.387 . S
C136 H162 0.931 . S
C137 C134 1.487 . S
C137 C144 1.399 . S
C137 N175 1.343 . S
C138 C139 1.384 . S
C138 C140 1.384 . S
C138 H163 0.931 . S
C139 C138 1.384 . S
C139 C142 1.382 . S
C140 C138 1.384 . S
C140 C141 1.381 . S
C140 H164 0.930 . S
C141 C140 1.381 . S
C141 C143 1.381 . S
C141 C144 1.487 . S
C142 C139 1.382 . S
C142 C143 1.387 . S
C142 H165 0.930 . S
C143 C141 1.381 . S
C143 C142 1.387 . S
C143 H166 0.931 . S
C144 C137 1.399 . S
C144 C141 1.487 . S
C144 N176 1.343 . S
C145 C146 1.384 . S
C145 C147 1.384 . S
C145 H167 0.931 . S
C146 C145 1.384 . S
C146 C149 1.382 . S
C147 C145 1.384 . S
C147 C148 1.381 . S
C147 H168 0.930 . S
C148 C147 1.381 . S
C148 C150 1.381 . S
C148 C151 1.487 . S
C149 C146 1.382 . S
C149 C150 1.387 . S
C149 H169 0.930 . S
C150 C148 1.381 . S
C150 C149 1.387 . S
C150 H170 0.931 . S
C151 C148 1.487 . S
C151 C158 1.399 . S
C151 N176 1.343 . S
C152 C153 1.384 . S
C152 C154 1.384 . S
C152 H171 0.931 . S
C153 C152 1.384 . S
C153 C156 1.382 . S
C154 C152 1.384 . S
C154 C155 1.381 . S
C154 H172 0.930 . S
C155 C154 1.381 . S
C155 C157 1.381 . S
C155 C158 1.487 . S
C156 C153 1.382 . S
C156 C157 1.387 . S
C156 H173 0.930 . S
C157 C155 1.381 . S
C157 C156 1.387 . S
C157 H174 0.931 . S
C158 C151 1.399 . S
C158 C155 1.487 . S
C158 N175 1.343 . S
H159 C131 0.931 . S
H160 C133 0.930 . S
H161 C135 0.930 . S
H162 C136 0.931 . S
H163 C138 0.931 . S
H164 C140 0.930 . S
H165 C142 0.930 . S
H166 C143 0.931 . S
H167 C145 0.931 . S
H168 C147 0.930 . S
H169 C149 0.930 . S
H170 C150 0.931 . S
H171 C152 0.931 . S
H172 C154 0.930 . S
H173 C156 0.930 . S
H174 C157 0.931 . S
N175 C137 1.343 . S
N175 C158 1.343 . S
N176 C144 1.343 . S
N176 C151 1.343 . S
H177 C189 0.930 . S
H178 C191 0.930 . S
H179 C192 0.930 . S
H180 C196 0.959 . S
H181 C196 0.959 . S
H182 C196 0.961 . S
H183 C197 0.960 . S
H184 C197 0.961 . S
H185 C197 0.959 . S
H186 C200 0.929 . S
H187 C201 0.931 . S
H188 C203 0.930 . S
C189 H177 0.930 . S
C189 C190 1.399 1_655 S
C189 C194 1.399 . S
C190 C189 1.399 1_455 S
C190 C191 1.376 . S
C191 H178 0.930 . S
C191 C190 1.376 . S
C191 C192 1.388 . S
C192 H179 0.930 . S
C192 C191 1.388 . S
C192 C193 1.390 . S
C193 C192 1.390 . S
C193 C194 1.394 1_455 S
C193 C199 1.465 . S
C194 C189 1.399 . S
C194 C193 1.394 1_655 S
C194 C195 1.516 . S
C195 C194 1.516 . S
C195 C196 1.502 . S
C195 C197 1.561 . S
C195 C198 1.526 . S
C196 H180 0.959 . S
C196 H181 0.959 . S
C196 H182 0.961 . S
C196 C195 1.502 . S
C197 H183 0.960 . S
C197 H184 0.961 . S
C197 H185 0.959 . S
C197 C195 1.561 . S
C198 C195 1.526 . S
C198 C199 1.396 1_655 S
C198 C203 1.390 . S
C199 C193 1.465 . S
C199 C198 1.396 1_455 S
C199 C200 1.399 . S
C200 H186 0.929 . S
C200 C199 1.399 . S
C200 C201 1.385 . S
C201 H187 0.931 . S
C201 C200 1.385 . S
C201 C202 1.389 . S
C202 C201 1.389 . S
C202 C203 1.387 1_455 S
C203 H188 0.930 . S
C203 C198 1.390 . S
C203 C202 1.387 1_655 S
H204 C216 0.930 . S
H205 C218 0.930 . S
H206 C219 0.930 . S
H207 C223 0.959 . S
H208 C223 0.959 . S
H209 C223 0.961 . S
H210 C224 0.960 . S
H211 C224 0.961 . S
H212 C224 0.959 . S
H213 C227 0.929 . S
H214 C228 0.931 . S
H215 C230 0.930 . S
C216 H204 0.930 . S
C216 C217 1.399 1_565 S
C216 C221 1.399 1_565 S
C217 C216 1.399 1_545 S
C217 C218 1.376 . S
C218 H205 0.930 . S
C218 C217 1.376 . S
C218 C219 1.388 . S
C219 H206 0.930 . S
C219 C218 1.388 . S
C219 C220 1.390 . S
C220 C219 1.390 . S
C220 C221 1.394 . S
C220 C226 1.465 . S
C221 C216 1.399 1_545 S
C221 C220 1.394 . S
C221 C222 1.516 1_545 S
C222 C221 1.516 1_565 S
C222 C223 1.502 . S
C222 C224 1.561 . S
C222 C225 1.526 1_565 S
C223 H207 0.959 . S
C223 H208 0.959 . S
C223 H209 0.961 . S
C223 C222 1.502 . S
C224 H210 0.960 . S
C224 H211 0.961 . S
C224 H212 0.959 . S
C224 C222 1.561 . S
C225 C222 1.526 1_545 S
C225 C226 1.396 . S
C225 C230 1.390 1_545 S
C226 C220 1.465 . S
C226 C225 1.396 . S
C226 C227 1.399 . S
C227 H213 0.929 . S
C227 C226 1.399 . S
C227 C228 1.385 . S
C228 H214 0.931 . S
C228 C227 1.385 . S
C228 C229 1.389 . S
C229 C228 1.389 . S
C229 C230 1.387 1_545 S
C230 H215 0.930 . S
C230 C225 1.390 1_565 S
C230 C229 1.387 1_565 S
H231 C243 0.930 . S
H232 C245 0.930 . S
H233 C246 0.930 . S
H234 C250 0.959 . S
H235 C250 0.959 . S
H236 C250 0.961 . S
H237 C251 0.960 . S
H238 C251 0.961 . S
H239 C251 0.959 . S
H240 C254 0.929 . S
H241 C255 0.931 . S
H242 C257 0.930 . S
C243 H231 0.930 . S
C243 C244 1.399 . S
C243 C248 1.399 . S
C244 C243 1.399 . S
C244 C245 1.376 . S
C245 H232 0.930 . S
C245 C244 1.376 . S
C245 C246 1.388 . S
C246 H233 0.930 . S
C246 C245 1.388 . S
C246 C247 1.390 . S
C247 C246 1.390 . S
C247 C248 1.394 . S
C247 C253 1.465 . S
C248 C243 1.399 . S
C248 C247 1.394 . S
C248 C249 1.516 . S
C249 C248 1.516 . S
C249 C250 1.502 . S
C249 C251 1.561 . S
C249 C252 1.526 . S
C250 H234 0.959 . S
C250 H235 0.959 . S
C250 H236 0.961 . S
C250 C249 1.502 . S
C251 H237 0.960 . S
C251 H238 0.961 . S
C251 H239 0.959 . S
C251 C249 1.561 . S
C252 C249 1.526 . S
C252 C253 1.396 . S
C252 C257 1.390 . S
C253 C247 1.465 . S
C253 C252 1.396 . S
C253 C254 1.399 . S
C254 H240 0.929 . S
C254 C253 1.399 . S
C254 C255 1.385 . S
C255 H241 0.931 . S
C255 C254 1.385 . S
C255 C256 1.389 . S
C256 C255 1.389 . S
C256 C257 1.387 . S
C257 H242 0.930 . S
C257 C252 1.390 . S
C257 C256 1.387 . S
H258 C270 0.930 1_655 S
H259 C272 0.930 . S
H260 C273 0.930 . S
H261 C277 0.959 . S
H262 C277 0.959 . S
H263 C277 0.961 . S
H264 C278 0.960 . S
H265 C278 0.961 . S
H266 C278 0.959 . S
H267 C281 0.929 . S
H268 C282 0.931 . S
H269 C284 0.930 . S
C270 H258 0.930 1_455 S
C270 C271 1.399 . S
C270 C275 1.399 . S
C271 C270 1.399 . S
C271 C272 1.376 . S
C272 H259 0.930 . S
C272 C271 1.376 . S
C272 C273 1.388 . S
C273 H260 0.930 . S
C273 C272 1.388 . S
C273 C274 1.390 . S
C274 C273 1.390 . S
C274 C275 1.394 . S
C274 C280 1.465 . S
C275 C270 1.399 . S
C275 C274 1.394 . S
C275 C276 1.516 1_455 S
C276 C275 1.516 1_655 S
C276 C277 1.502 . S
C276 C278 1.561 . S
C276 C279 1.526 . S
C277 H261 0.959 . S
C277 H262 0.959 . S
C277 H263 0.961 . S
C277 C276 1.502 . S
C278 H264 0.960 . S
C278 H265 0.961 . S
C278 H266 0.959 . S
C278 C276 1.561 . S
C279 C276 1.526 . S
C279 C280 1.396 1_655 S
C279 C284 1.390 . S
C280 C274 1.465 . S
C280 C279 1.396 1_455 S
C280 C281 1.399 . S
C281 H267 0.929 . S
C281 C280 1.399 . S
C281 C282 1.385 . S
C282 H268 0.931 . S
C282 C281 1.385 . S
C282 C283 1.389 . S
C283 C282 1.389 . S
C283 C284 1.387 1_455 S
C284 H269 0.930 . S
C284 C279 1.390 . S
C284 C283 1.387 1_655 S
H285 C297 0.930 . S
H286 C299 0.930 1_565 S
H287 C300 0.930 . S
H288 C304 0.959 . S
H289 C304 0.959 . S
H290 C304 0.961 . S
H291 C305 0.960 . S
H292 C305 0.961 . S
H293 C305 0.959 . S
H294 C308 0.929 . S
H295 C309 0.931 . S
H296 C311 0.930 . S
C297 H285 0.930 . S
C297 C298 1.399 . S
C297 C302 1.399 . S
C298 C297 1.399 . S
C298 C299 1.376 . S
C299 H286 0.930 1_545 S
C299 C298 1.376 . S
C299 C300 1.388 1_545 S
C300 H287 0.930 . S
C300 C299 1.388 1_565 S
C300 C301 1.390 1_565 S
C301 C300 1.390 1_545 S
C301 C302 1.394 . S
C301 C307 1.465 . S
C302 C297 1.399 . S
C302 C301 1.394 . S
C302 C303 1.516 . S
C303 C302 1.516 . S
C303 C304 1.502 . S
C303 C305 1.561 . S
C303 C306 1.526 . S
C304 H288 0.959 . S
C304 H289 0.959 . S
C304 H290 0.961 . S
C304 C303 1.502 . S
C305 H291 0.960 . S
C305 H292 0.961 . S
C305 H293 0.959 . S
C305 C303 1.561 . S
C306 C303 1.526 . S
C306 C307 1.396 . S
C306 C311 1.390 . S
C307 C301 1.465 . S
C307 C306 1.396 . S
C307 C308 1.399 1_545 S
C308 H294 0.929 . S
C308 C307 1.399 1_565 S
C308 C309 1.385 . S
C309 H295 0.931 . S
C309 C308 1.385 . S
C309 C310 1.389 1_565 S
C310 C309 1.389 1_545 S
C310 C311 1.387 . S
C311 H296 0.930 . S
C311 C306 1.390 . S
C311 C310 1.387 . S
H312 C324 0.930 . S
H313 C326 0.930 . S
H314 C327 0.930 . S
H315 C331 0.959 . S
H316 C331 0.959 . S
H317 C331 0.961 . S
H318 C332 0.960 . S
H319 C332 0.961 . S
H320 C332 0.959 . S
H321 C335 0.929 . S
H322 C336 0.931 . S
H323 C338 0.930 . S
C324 H312 0.930 . S
C324 C325 1.399 . S
C324 C329 1.399 . S
C325 C324 1.399 . S
C325 C326 1.376 . S
C326 H313 0.930 . S
C326 C325 1.376 . S
C326 C327 1.388 . S
C327 H314 0.930 . S
C327 C326 1.388 . S
C327 C328 1.390 . S
C328 C327 1.390 . S
C328 C329 1.394 . S
C328 C334 1.465 . S
C329 C324 1.399 . S
C329 C328 1.394 . S
C329 C330 1.516 . S
C330 C329 1.516 . S
C330 C331 1.502 . S
C330 C332 1.561 . S
C330 C333 1.526 . S
C331 H315 0.959 . S
C331 H316 0.959 . S
C331 H317 0.961 . S
C331 C330 1.502 . S
C332 H318 0.960 . S
C332 H319 0.961 . S
C332 H320 0.959 . S
C332 C330 1.561 . S
C333 C330 1.526 . S
C333 C334 1.396 . S
C333 C338 1.390 . S
C334 C328 1.465 . S
C334 C333 1.396 . S
C334 C335 1.399 . S
C335 H321 0.929 . S
C335 C334 1.399 . S
C335 C336 1.385 . S
C336 H322 0.931 . S
C336 C335 1.385 . S
C336 C337 1.389 . S
C337 C336 1.389 . S
C337 C338 1.387 . S
C338 H323 0.930 . S
C338 C333 1.390 . S
C338 C337 1.387 . S
H339 C351 0.930 1_565 S
H340 C353 0.930 . S
H341 C354 0.930 . S
H342 C358 0.959 . S
H343 C358 0.959 . S
H344 C358 0.961 . S
H345 C359 0.960 . S
H346 C359 0.961 . S
H347 C359 0.959 . S
H348 C362 0.929 . S
H349 C363 0.931 . S
H350 C365 0.930 . S
C351 H339 0.930 1_545 S
C351 C352 1.399 . S
C351 C356 1.399 . S
C352 C351 1.399 . S
C352 C353 1.376 . S
C353 H340 0.930 . S
C353 C352 1.376 . S
C353 C354 1.388 . S
C354 H341 0.930 . S
C354 C353 1.388 . S
C354 C355 1.390 . S
C355 C354 1.390 . S
C355 C356 1.394 . S
C355 C361 1.465 . S
C356 C351 1.399 . S
C356 C355 1.394 . S
C356 C357 1.516 1_545 S
C357 C356 1.516 1_565 S
C357 C358 1.502 . S
C357 C359 1.561 . S
C357 C360 1.526 1_565 S
C358 H342 0.959 . S
C358 H343 0.959 . S
C358 H344 0.961 . S
C358 C357 1.502 . S
C359 H345 0.960 . S
C359 H346 0.961 . S
C359 H347 0.959 . S
C359 C357 1.561 . S
C360 C357 1.526 1_545 S
C360 C361 1.396 . S
C360 C365 1.390 1_545 S
C361 C355 1.465 . S
C361 C360 1.396 . S
C361 C362 1.399 . S
C362 H348 0.929 . S
C362 C361 1.399 . S
C362 C363 1.385 . S
C363 H349 0.931 . S
C363 C362 1.385 . S
C363 C364 1.389 . S
C364 C363 1.389 . S
C364 C365 1.387 1_545 S
C365 H350 0.930 . S
C365 C360 1.390 1_565 S
C365 C364 1.387 1_565 S
H366 C378 0.930 . S
H367 C380 0.930 1_545 S
H368 C381 0.930 . S
H369 C385 0.959 . S
H370 C385 0.959 . S
H371 C385 0.922 1_554 S
H372 C386 0.960 . S
H373 C386 0.961 . S
H374 C386 0.959 . S
H375 C389 0.929 . S
H376 C390 0.931 . S
H377 C392 0.930 . S
C378 H366 0.930 . S
C378 C379 1.399 . S
C378 C383 1.399 1_554 S
C379 C378 1.399 . S
C379 C380 1.376 1_554 S
C380 H367 0.930 1_565 S
C380 C379 1.376 1_556 S
C380 C381 1.388 . S
C381 H368 0.930 . S
C381 C380 1.388 . S
C381 C382 1.390 . S
C382 C381 1.390 . S
C382 C383 1.394 . S
C382 C388 1.465 . S
C383 C378 1.399 1_556 S
C383 C382 1.394 . S
C383 C384 1.516 . S
C384 C383 1.516 . S
C384 C385 1.502 . S
C384 C386 1.561 1_556 S
C384 C387 1.526 . S
C385 H369 0.959 . S
C385 H370 0.959 . S
C385 H371 0.922 1_556 S
C385 C384 1.502 . S
C386 H372 0.960 . S
C386 H373 0.961 . S
C386 H374 0.959 . S
C386 C384 1.561 1_554 S
C387 C384 1.526 . S
C387 C388 1.396 . S
C387 C392 1.390 . S
C388 C382 1.465 . S
C388 C387 1.396 . S
C388 C389 1.399 . S
C389 H375 0.929 . S
C389 C388 1.399 . S
C389 C390 1.385 . S
C390 H376 0.931 . S
C390 C389 1.385 . S
C390 C391 1.389 . S
C391 C390 1.389 . S
C391 C392 1.387 . S
C392 H377 0.930 . S
C392 C387 1.390 . S
C392 C391 1.387 . S
H393 C405 0.930 . S
H394 C407 0.930 . S
H395 C408 0.930 . S
H396 C412 0.959 . S
H397 C412 0.959 . S
H398 C412 0.961 . S
H399 C413 0.960 . S
H400 C413 0.961 . S
H401 C413 0.959 . S
H402 C416 0.929 . S
H403 C417 0.931 . S
H404 C419 0.930 . S
C405 H393 0.930 . S
C405 C406 1.399 . S
C405 C410 1.399 . S
C406 C405 1.399 . S
C406 C407 1.376 . S
C407 H394 0.930 . S
C407 C406 1.376 . S
C407 C408 1.388 . S
C408 H395 0.930 . S
C408 C407 1.388 . S
C408 C409 1.390 . S
C409 C408 1.390 . S
C409 C410 1.394 . S
C409 C415 1.465 . S
C410 C405 1.399 . S
C410 C409 1.394 . S
C410 C411 1.516 . S
C411 C410 1.516 . S
C411 C412 1.502 1_455 S
C411 C413 1.561 . S
C411 C414 1.526 . S
C412 H396 0.959 . S
C412 H397 0.959 . S
C412 H398 0.961 . S
C412 C411 1.502 1_655 S
C413 H399 0.960 . S
C413 H400 0.961 . S
C413 H401 0.959 . S
C413 C411 1.561 . S
C414 C411 1.526 . S
C414 C415 1.396 . S
C414 C419 1.390 . S
C415 C409 1.465 . S
C415 C414 1.396 . S
C415 C416 1.399 . S
C416 H402 0.929 . S
C416 C415 1.399 . S
C416 C417 1.385 . S
C417 H403 0.931 . S
C417 C416 1.385 . S
C417 C418 1.389 . S
C418 C417 1.389 . S
C418 C419 1.387 . S
C419 H404 0.930 . S
C419 C414 1.390 . S
C419 C418 1.387 . S
H420 C432 0.930 . S
H421 C434 0.930 . S
H422 C435 0.930 . S
H423 C439 0.959 . S
H424 C439 0.959 . S
H425 C439 0.961 . S
H426 C440 0.960 . S
H427 C440 0.961 . S
H428 C440 0.959 . S
H429 C443 0.929 . S
H430 C444 0.931 . S
H431 C446 0.930 . S
C432 H420 0.930 . S
C432 C433 1.399 1_545 S
C432 C437 1.399 . S
C433 C432 1.399 1_565 S
C433 C434 1.376 . S
C434 H421 0.930 . S
C434 C433 1.376 . S
C434 C435 1.388 . S
C435 H422 0.930 . S
C435 C434 1.388 . S
C435 C436 1.390 . S
C436 C435 1.390 . S
C436 C437 1.394 1_565 S
C436 C442 1.465 . S
C437 C432 1.399 . S
C437 C436 1.394 1_545 S
C437 C438 1.516 . S
C438 C437 1.516 . S
C438 C439 1.502 . S
C438 C440 1.561 . S
C438 C441 1.526 . S
C439 H423 0.959 . S
C439 H424 0.959 . S
C439 H425 0.961 . S
C439 C438 1.502 . S
C440 H426 0.960 . S
C440 H427 0.961 . S
C440 H428 0.959 . S
C440 C438 1.561 . S
C441 C438 1.526 . S
C441 C442 1.396 1_545 S
C441 C446 1.390 . S
C442 C436 1.465 . S
C442 C441 1.396 1_565 S
C442 C443 1.399 . S
C443 H429 0.929 . S
C443 C442 1.399 . S
C443 C444 1.385 . S
C444 H430 0.931 . S
C444 C443 1.385 . S
C444 C445 1.389 1_565 S
C445 C444 1.389 1_545 S
C445 C446 1.387 . S
C446 H431 0.930 . S
C446 C441 1.390 . S
C446 C445 1.387 . S
H447 C459 0.930 . S
H448 C461 0.930 . S
H449 C462 0.930 . S
H450 C466 0.959 . S
H451 C466 0.959 . S
H452 C466 0.961 . S
H453 C467 0.960 . S
H454 C467 0.961 . S
H455 C467 0.959 . S
H456 C470 0.929 . S
H457 C471 0.931 . S
H458 C473 0.930 . S
C459 H447 0.930 . S
C459 C460 1.399 1_556 S
C459 C464 1.399 . S
C460 C459 1.399 1_554 S
C460 C461 1.376 . S
C461 H448 0.930 . S
C461 C460 1.376 . S
C461 C462 1.388 . S
C462 H449 0.930 . S
C462 C461 1.388 . S
C462 C463 1.390 1_554 S
C463 C462 1.390 1_556 S
C463 C464 1.394 . S
C463 C469 1.465 . S
C464 C459 1.399 . S
C464 C463 1.394 . S
C464 C465 1.516 . S
C465 C464 1.516 . S
C465 C466 1.502 . S
C465 C467 1.561 . S
C465 C468 1.526 . S
C466 H450 0.959 . S
C466 H451 0.959 . S
C466 H452 0.961 . S
C466 C465 1.502 . S
C467 H453 0.960 . S
C467 H454 0.961 . S
C467 H455 0.959 . S
C467 C465 1.561 . S
C468 C465 1.526 . S
C468 C469 1.396 . S
C468 C473 1.390 . S
C469 C463 1.465 . S
C469 C468 1.396 . S
C469 C470 1.399 . S
C470 H456 0.929 . S
C470 C469 1.399 . S
C470 C471 1.385 . S
C471 H457 0.931 . S
C471 C470 1.385 . S
C471 C472 1.389 . S
C472 C471 1.389 . S
C472 C473 1.387 . S
C473 H458 0.930 . S
C473 C468 1.390 . S
C473 C472 1.387 . S
H474 C486 0.930 . S
H475 C488 0.930 . S
H476 C489 0.930 . S
H477 C493 0.959 . S
H478 C493 0.959 . S
H479 C493 0.961 . S
H480 C494 0.960 . S
H481 C494 0.961 . S
H482 C494 0.959 . S
H483 C497 0.929 . S
H484 C498 0.931 . S
H485 C500 0.930 1_655 S
C486 H474 0.930 . S
C486 C487 1.399 . S
C486 C491 1.399 . S
C487 C486 1.399 . S
C487 C488 1.376 . S
C488 H475 0.930 . S
C488 C487 1.376 . S
C488 C489 1.388 . S
C489 H476 0.930 . S
C489 C488 1.388 . S
C489 C490 1.390 . S
C490 C489 1.390 . S
C490 C491 1.394 . S
C490 C496 1.465 . S
C491 C486 1.399 . S
C491 C490 1.394 . S
C491 C492 1.516 . S
C492 C491 1.516 . S
C492 C493 1.502 1_455 S
C492 C494 1.561 . S
C492 C495 1.526 . S
C493 H477 0.959 . S
C493 H478 0.959 . S
C493 H479 0.961 . S
C493 C492 1.502 1_655 S
C494 H480 0.960 . S
C494 H481 0.961 . S
C494 H482 0.959 . S
C494 C492 1.561 . S
C495 C492 1.526 . S
C495 C496 1.396 . S
C495 C500 1.390 . S
C496 C490 1.465 . S
C496 C495 1.396 . S
C496 C497 1.399 . S
C497 H483 0.929 . S
C497 C496 1.399 . S
C497 C498 1.385 . S
C498 H484 0.931 . S
C498 C497 1.385 . S
C498 C499 1.389 . S
C499 C498 1.389 . S
C499 C500 1.387 . S
C500 H485 0.930 1_455 S
C500 C495 1.390 . S
C500 C499 1.387 . S
C202 C47 1.400 . S
C190 C10 1.409 1_455 S
C217 C21 1.393 . S
C229 C86 1.457 . S
C244 C31 1.357 . S
C256 C153 1.446 . S
C271 C0 1.401 . S
C283 C54 1.412 . S
C310 C107 1.444 . S
C298 C18 1.328 . S
C325 C34 1.400 . S
C337 C132 1.418 . S
C364 C93 1.376 . S
C352 C36 1.381 . S
C379 C8 1.386 . S
C391 C146 1.419 . S
C418 C61 1.403 . S
C406 C23 1.395 . S
C445 C100 1.365 . S
C433 C26 1.360 1_565 S
C472 C139 1.454 . S
C460 C5 1.326 . S
C487 C13 1.377 . S
C499 C40 1.407 . S
