# Generated by pormake.
# Topology ptr, (4,4)-cn, num edge types: 1
# Building blocks:
#     Node 0, Type 0, BuildingBlock: QUQFOY_clean_sbu_1, # of connection points: 4
#     Node 1, Type 0, BuildingBlock: QUQFOY_clean_sbu_1, # of connection points: 4
#     Node 2, Type 0, BuildingBlock: QUQFOY_clean_sbu_1, # of connection points: 4
#     Node 3, Type 0, BuildingBlock: QUQFOY_clean_sbu_1, # of connection points: 4
#     Node 4, Type 0, BuildingBlock: QUQFOY_clean_sbu_1, # of connection points: 4
#     Node 5, Type 0, BuildingBlock: QUQFOY_clean_sbu_1, # of connection points: 4
#     Node 6, Type 0, BuildingBlock: QUQFOY_clean_sbu_1, # of connection points: 4
#     Node 7, Type 0, BuildingBlock: QUQFOY_clean_sbu_1, # of connection points: 4
#     Node 8, Type 0, BuildingBlock: QUQFOY_clean_sbu_1, # of connection points: 4
#     Node 9, Type 0, BuildingBlock: QUQFOY_clean_sbu_1, # of connection points: 4
#     Node 10, Type 0, BuildingBlock: QUQFOY_clean_sbu_1, # of connection points: 4
#     Node 11, Type 0, BuildingBlock: QUQFOY_clean_sbu_1, # of connection points: 4
#     Node 12, Type 0, BuildingBlock: QUQFOY_clean_sbu_1, # of connection points: 4
#     Node 13, Type 0, BuildingBlock: QUQFOY_clean_sbu_1, # of connection points: 4
#     Node 14, Type 0, BuildingBlock: QUQFOY_clean_sbu_1, # of connection points: 4
#     Node 15, Type 0, BuildingBlock: QUQFOY_clean_sbu_1, # of connection points: 4
#     Node 16, Type 0, BuildingBlock: QUQFOY_clean_sbu_1, # of connection points: 4
#     Node 17, Type 0, BuildingBlock: QUQFOY_clean_sbu_1, # of connection points: 4
#     Node 18, Type 1, BuildingBlock: GIZVER_clean_linker_0, # of connection points: 4
#     Node 19, Type 1, BuildingBlock: GIZVER_clean_linker_0, # of connection points: 4
#     Node 20, Type 1, BuildingBlock: GIZVER_clean_linker_0, # of connection points: 4
#     Node 21, Type 1, BuildingBlock: GIZVER_clean_linker_0, # of connection points: 4
#     Node 22, Type 1, BuildingBlock: GIZVER_clean_linker_0, # of connection points: 4
#     Node 23, Type 1, BuildingBlock: GIZVER_clean_linker_0, # of connection points: 4
#     Node 24, Type 1, BuildingBlock: GIZVER_clean_linker_0, # of connection points: 4
#     Node 25, Type 1, BuildingBlock: GIZVER_clean_linker_0, # of connection points: 4
#     Node 26, Type 1, BuildingBlock: GIZVER_clean_linker_0, # of connection points: 4
#     Node 27, Type 1, BuildingBlock: GIZVER_clean_linker_0, # of connection points: 4
#     Node 28, Type 1, BuildingBlock: GIZVER_clean_linker_0, # of connection points: 4
#     Node 29, Type 1, BuildingBlock: GIZVER_clean_linker_0, # of connection points: 4
#     Node 30, Type 1, BuildingBlock: GIZVER_clean_linker_0, # of connection points: 4
#     Node 31, Type 1, BuildingBlock: GIZVER_clean_linker_0, # of connection points: 4
#     Node 32, Type 1, BuildingBlock: GIZVER_clean_linker_0, # of connection points: 4
#     Node 33, Type 1, BuildingBlock: GIZVER_clean_linker_0, # of connection points: 4
#     Node 34, Type 1, BuildingBlock: GIZVER_clean_linker_0, # of connection points: 4
#     Node 35, Type 1, BuildingBlock: GIZVER_clean_linker_0, # of connection points: 4
#     Edge 36, Type (0, 1), BuildingBlock: ZUJKAS_clean_linker_0, # of connection points: 2
#     Edge 37, Type (0, 1), BuildingBlock: ZUJKAS_clean_linker_0, # of connection points: 2
#     Edge 38, Type (0, 1), BuildingBlock: ZUJKAS_clean_linker_0, # of connection points: 2
#     Edge 39, Type (0, 1), BuildingBlock: ZUJKAS_clean_linker_0, # of connection points: 2
#     Edge 40, Type (0, 1), BuildingBlock: ZUJKAS_clean_linker_0, # of connection points: 2
#     Edge 41, Type (0, 1), BuildingBlock: ZUJKAS_clean_linker_0, # of connection points: 2
#     Edge 42, Type (0, 1), BuildingBlock: ZUJKAS_clean_linker_0, # of connection points: 2
#     Edge 43, Type (0, 1), BuildingBlock: ZUJKAS_clean_linker_0, # of connection points: 2
#     Edge 44, Type (0, 1), BuildingBlock: ZUJKAS_clean_linker_0, # of connection points: 2
#     Edge 45, Type (0, 1), BuildingBlock: ZUJKAS_clean_linker_0, # of connection points: 2
#     Edge 46, Type (0, 1), BuildingBlock: ZUJKAS_clean_linker_0, # of connection points: 2
#     Edge 47, Type (0, 1), BuildingBlock: ZUJKAS_clean_linker_0, # of connection points: 2
#     Edge 48, Type (0, 1), BuildingBlock: ZUJKAS_clean_linker_0, # of connection points: 2
#     Edge 49, Type (0, 1), BuildingBlock: ZUJKAS_clean_linker_0, # of connection points: 2
#     Edge 50, Type (0, 1), BuildingBlock: ZUJKAS_clean_linker_0, # of connection points: 2
#     Edge 51, Type (0, 1), BuildingBlock: ZUJKAS_clean_linker_0, # of connection points: 2
#     Edge 52, Type (0, 1), BuildingBlock: ZUJKAS_clean_linker_0, # of connection points: 2
#     Edge 53, Type (0, 1), BuildingBlock: ZUJKAS_clean_linker_0, # of connection points: 2
#     Edge 54, Type (0, 1), BuildingBlock: ZUJKAS_clean_linker_0, # of connection points: 2
#     Edge 55, Type (0, 1), BuildingBlock: ZUJKAS_clean_linker_0, # of connection points: 2
#     Edge 56, Type (0, 1), BuildingBlock: ZUJKAS_clean_linker_0, # of connection points: 2
#     Edge 57, Type (0, 1), BuildingBlock: ZUJKAS_clean_linker_0, # of connection points: 2
#     Edge 58, Type (0, 1), BuildingBlock: ZUJKAS_clean_linker_0, # of connection points: 2
#     Edge 59, Type (0, 1), BuildingBlock: ZUJKAS_clean_linker_0, # of connection points: 2
#     Edge 60, Type (0, 1), BuildingBlock: ZUJKAS_clean_linker_0, # of connection points: 2
#     Edge 61, Type (0, 1), BuildingBlock: ZUJKAS_clean_linker_0, # of connection points: 2
#     Edge 62, Type (0, 1), BuildingBlock: ZUJKAS_clean_linker_0, # of connection points: 2
#     Edge 63, Type (0, 1), BuildingBlock: ZUJKAS_clean_linker_0, # of connection points: 2
#     Edge 64, Type (0, 1), BuildingBlock: ZUJKAS_clean_linker_0, # of connection points: 2
#     Edge 65, Type (0, 1), BuildingBlock: ZUJKAS_clean_linker_0, # of connection points: 2
#     Edge 66, Type (0, 1), BuildingBlock: ZUJKAS_clean_linker_0, # of connection points: 2
#     Edge 67, Type (0, 1), BuildingBlock: ZUJKAS_clean_linker_0, # of connection points: 2
#     Edge 68, Type (0, 1), BuildingBlock: ZUJKAS_clean_linker_0, # of connection points: 2
#     Edge 69, Type (0, 1), BuildingBlock: ZUJKAS_clean_linker_0, # of connection points: 2
#     Edge 70, Type (0, 1), BuildingBlock: ZUJKAS_clean_linker_0, # of connection points: 2
#     Edge 71, Type (0, 1), BuildingBlock: ZUJKAS_clean_linker_0, # of connection points: 2
#     Edge 72, Type (0, 1), BuildingBlock: ZUJKAS_clean_linker_0, # of connection points: 2
#     Edge 73, Type (0, 1), BuildingBlock: ZUJKAS_clean_linker_0, # of connection points: 2
#     Edge 74, Type (0, 1), BuildingBlock: ZUJKAS_clean_linker_0, # of connection points: 2
#     Edge 75, Type (0, 1), BuildingBlock: ZUJKAS_clean_linker_0, # of connection points: 2
#     Edge 76, Type (0, 1), BuildingBlock: ZUJKAS_clean_linker_0, # of connection points: 2
#     Edge 77, Type (0, 1), BuildingBlock: ZUJKAS_clean_linker_0, # of connection points: 2
#     Edge 78, Type (0, 1), BuildingBlock: ZUJKAS_clean_linker_0, # of connection points: 2
#     Edge 79, Type (0, 1), BuildingBlock: ZUJKAS_clean_linker_0, # of connection points: 2
#     Edge 80, Type (0, 1), BuildingBlock: ZUJKAS_clean_linker_0, # of connection points: 2
#     Edge 81, Type (0, 1), BuildingBlock: ZUJKAS_clean_linker_0, # of connection points: 2
#     Edge 82, Type (0, 1), BuildingBlock: ZUJKAS_clean_linker_0, # of connection points: 2
#     Edge 83, Type (0, 1), BuildingBlock: ZUJKAS_clean_linker_0, # of connection points: 2
#     Edge 84, Type (0, 1), BuildingBlock: ZUJKAS_clean_linker_0, # of connection points: 2
#     Edge 85, Type (0, 1), BuildingBlock: ZUJKAS_clean_linker_0, # of connection points: 2
#     Edge 86, Type (0, 1), BuildingBlock: ZUJKAS_clean_linker_0, # of connection points: 2
#     Edge 87, Type (0, 1), BuildingBlock: ZUJKAS_clean_linker_0, # of connection points: 2
#     Edge 88, Type (0, 1), BuildingBlock: ZUJKAS_clean_linker_0, # of connection points: 2
#     Edge 89, Type (0, 1), BuildingBlock: ZUJKAS_clean_linker_0, # of connection points: 2
#     Edge 90, Type (0, 1), BuildingBlock: ZUJKAS_clean_linker_0, # of connection points: 2
#     Edge 91, Type (0, 1), BuildingBlock: ZUJKAS_clean_linker_0, # of connection points: 2
#     Edge 92, Type (0, 1), BuildingBlock: ZUJKAS_clean_linker_0, # of connection points: 2
#     Edge 93, Type (0, 1), BuildingBlock: ZUJKAS_clean_linker_0, # of connection points: 2
#     Edge 94, Type (0, 1), BuildingBlock: ZUJKAS_clean_linker_0, # of connection points: 2
#     Edge 95, Type (0, 1), BuildingBlock: ZUJKAS_clean_linker_0, # of connection points: 2
#     Edge 96, Type (0, 1), BuildingBlock: ZUJKAS_clean_linker_0, # of connection points: 2
#     Edge 97, Type (0, 1), BuildingBlock: ZUJKAS_clean_linker_0, # of connection points: 2
#     Edge 98, Type (0, 1), BuildingBlock: ZUJKAS_clean_linker_0, # of connection points: 2
#     Edge 99, Type (0, 1), BuildingBlock: ZUJKAS_clean_linker_0, # of connection points: 2
#     Edge 100, Type (0, 1), BuildingBlock: ZUJKAS_clean_linker_0, # of connection points: 2
#     Edge 101, Type (0, 1), BuildingBlock: ZUJKAS_clean_linker_0, # of connection points: 2
#     Edge 102, Type (0, 1), BuildingBlock: ZUJKAS_clean_linker_0, # of connection points: 2
#     Edge 103, Type (0, 1), BuildingBlock: ZUJKAS_clean_linker_0, # of connection points: 2
#     Edge 104, Type (0, 1), BuildingBlock: ZUJKAS_clean_linker_0, # of connection points: 2
#     Edge 105, Type (0, 1), BuildingBlock: ZUJKAS_clean_linker_0, # of connection points: 2
#     Edge 106, Type (0, 1), BuildingBlock: ZUJKAS_clean_linker_0, # of connection points: 2
#     Edge 107, Type (0, 1), BuildingBlock: ZUJKAS_clean_linker_0, # of connection points: 2
# Relax obj value: 0.021
# Max RMSD: 0.063
# Mean RMSD: 0.054
data_MOF--net-ptr--node1-QUQFOY_clean_sbu_1--node2-GIZVER_clean_linker_0--edge1-ZUJKAS_clean_linker_0
_symmetry_space_group_name_H-M    P1
_symmetry_Int_Tables_number       1
_symmetry_cell_setting            triclinic
loop_
_symmetry_equiv_pos_as_xyz
'x, y, z'
_cell_length_a     104.18806
_cell_length_b     104.09161
_cell_length_c     64.463071
_cell_angle_alpha  90.215078
_cell_angle_beta   90.185527
_cell_angle_gamma 119.99984
loop_
_atom_site_label
_atom_site_type_symbol
_atom_site_fract_x
_atom_site_fract_y
_atom_site_fract_z
_atom_type_partial_charge
O0 O 0.02341 0.39335 0.03614 0.0
Cd1 Cd 0.02995 0.38672 0.00988 0.0
Cd2 Cd 0.9997 0.37126 0.00261 0.0
O3 O 0.99929 0.3812 0.0302 0.0
O4 O 0.05107 0.39256 0.01538 0.0
O5 O 0.03349 0.3693 0.01044 0.0
C6 C 0.04725 0.37874 0.0143 0.0
C7 C 0.98228 0.34602 -0.00231 0.0
C8 C 1.01034 0.39005 0.04131 0.0
C9 C 0.01891 0.39482 0.97169 0.0
O10 O 1.00597 0.38475 0.97682 0.0
O11 O 0.0301 0.39722 0.98259 0.0
O12 O 0.97855 0.35609 -0.00289 0.0
O13 O 0.99605 0.35026 0.00123 0.0
O14 O 0.62696 0.63144 0.04137 0.0
Cd15 Cd 0.6344 0.645 0.01566 0.0
Cd16 Cd 0.64975 0.6301 0.00955 0.0
O17 O 0.63945 0.61968 0.03683 0.0
O18 O 0.62831 0.66013 0.02078 0.0
O19 O 0.6517 0.666 0.01746 0.0
C20 C 0.64212 0.6702 0.02066 0.0
C21 C 0.67518 0.63892 0.00539 0.0
C22 C 0.6302 0.62172 0.04709 0.0
C23 C 0.62699 0.62615 0.97718 0.0
O24 O 0.63671 0.62295 0.9831 0.0
O25 O 0.62458 0.63507 0.98774 0.0
O26 O 0.66559 0.62495 0.00481 0.0
O27 O 0.67036 0.64802 0.00871 0.0
O28 O 0.39757 0.0179 0.98075 0.0
Cd29 Cd 0.38961 0.02294 0.00705 0.0
Cd30 Cd 0.37536 0.99267 0.01129 0.0
O31 O 0.38526 0.9935 0.98323 0.0
O32 O 0.39565 0.04427 0.00357 0.0
O33 O 0.37224 0.02653 0.0053 0.0
C34 C 0.38183 0.04044 0.00319 0.0
C35 C 0.34999 0.97604 0.0157 0.0
C36 C 0.39446 1.00521 0.97378 0.0
C37 C 0.39805 0.01103 0.0439 0.0
O38 O 0.38904 0.99811 0.037 0.0
O39 O 0.39939 0.02244 0.03476 0.0
O40 O 0.3595 0.97157 0.01506 0.0
O41 O 0.35487 0.99008 0.01357 0.0
O42 O 0.99772 0.6203 0.98216 0.0
Cd43 Cd 0.99329 0.6288 0.00839 0.0
Cd44 Cd 0.02324 0.64268 0.01323 0.0
O45 O 0.02205 0.63193 0.98563 0.0
O46 O 0.97264 0.62488 0.00456 0.0
O47 O 0.992 0.64749 0.00715 0.0
C48 C 0.97787 0.63902 0.00466 0.0
C49 C 0.04104 0.66786 0.01705 0.0
C50 C 1.01033 0.62291 0.97579 0.0
C51 C 1.00463 0.62055 0.04587 0.0
O52 O 0.01758 0.62972 0.03952 0.0
O53 O 0.99328 0.61878 0.03596 0.0
O54 O 0.04466 0.6577 0.01681 0.0
O55 O 0.02717 0.66375 0.01483 0.0
O56 O 0.39675 0.3843 0.97898 0.0
Cd57 Cd 0.3904 0.37179 0.0057 0.0
Cd58 Cd 0.37637 0.38747 0.0137 0.0
O59 O 0.38644 0.39783 0.98625 0.0
O60 O 0.39445 0.35519 0.00099 0.0
O61 O 0.37195 0.35158 0.0064 0.0
C62 C 0.38044 0.34607 0.00287 0.0
C63 C 0.35114 0.37945 0.01808 0.0
C64 C 0.39431 0.39477 0.97443 0.0
C65 C 0.39999 0.39106 0.04397 0.0
O66 O 0.38978 0.39398 0.03982 0.0
O67 O 0.40212 0.38246 0.03225 0.0
O68 O 0.36112 0.39328 0.01933 0.0
O69 O 0.35548 0.37003 0.01419 0.0
O70 O 0.62766 0.99721 0.03497 0.0
Cd71 Cd 0.63612 0.99264 0.00884 0.0
Cd72 Cd 0.65165 0.02306 0.00641 0.0
O73 O 0.64125 0.02164 0.03432 0.0
O74 O 0.63077 0.97143 0.01147 0.0
O75 O 0.65394 0.98989 0.01106 0.0
C76 C 0.64472 0.97581 0.01249 0.0
C77 C 0.67699 0.04037 0.00296 0.0
C78 C 0.63131 0.00983 0.0428 0.0
C79 C 0.62942 1.00602 0.97228 0.0
O80 O 0.63871 0.01856 0.98001 0.0
O81 O 0.62715 0.99411 0.98094 0.0
O82 O 0.66713 0.04439 0.0036 0.0
O83 O 0.67249 0.02639 0.00469 0.0
O84 O 0.69189 0.72829 0.37002 0.0
Cd85 Cd 0.69701 0.72008 0.34404 0.0
Cd86 Cd 0.66663 0.70469 0.33972 0.0
O87 O 0.66751 0.7149 0.36773 0.0
O88 O 0.71816 0.72544 0.34775 0.0
O89 O 0.69978 0.70225 0.34603 0.0
C90 C 0.7138 0.71147 0.34823 0.0
C91 C 0.6492 0.67942 0.3352 0.0
C92 C 0.67913 0.72468 0.37701 0.0
C93 C 0.6845 0.72732 0.30686 0.0
O94 O 0.67178 0.71794 0.31372 0.0
O95 O 0.69617 0.72944 0.31623 0.0
O96 O 0.64533 0.68939 0.33562 0.0
O97 O 0.6631 0.68376 0.33772 0.0
O98 O 0.29177 0.96668 0.37096 0.0
Cd99 Cd 0.3011 0.97951 0.34491 0.0
Cd100 Cd 0.31624 0.96425 0.34403 0.0
O101 O 0.30531 0.95582 0.37165 0.0
O102 O 0.2959 0.99553 0.34642 0.0
O103 O 0.31898 1.00001 0.34767 0.0
C104 C 0.30985 1.005 0.34814 0.0
C105 C 0.34154 0.97206 0.34148 0.0
C106 C 0.29519 0.95776 0.37937 0.0
C107 C 0.29496 0.95891 0.30882 0.0
O108 O 0.30364 0.95527 0.31754 0.0
O109 O 0.293 0.96903 0.31666 0.0
O110 O 0.33169 0.95825 0.34323 0.0
O111 O 0.33708 0.98162 0.34159 0.0
O112 O 0.06833 0.35505 0.317 0.0
Cd113 Cd 0.05876 0.35801 0.34333 0.0
Cd114 Cd 0.04378 0.32754 0.34294 0.0
O115 O 0.05468 0.33066 0.31514 0.0
O116 O 0.06458 0.37943 0.34362 0.0
O117 O 0.04133 0.36136 0.34042 0.0
C118 C 0.05078 0.3754 0.34134 0.0
C119 C 0.01844 0.31013 0.34504 0.0
C120 C 0.06486 0.34287 0.3079 0.0
C121 C 0.06482 0.34284 0.37851 0.0
O122 O 0.05639 0.33064 0.36924 0.0
O123 O 0.06653 0.35496 0.37136 0.0
O124 O 0.02822 0.30611 0.34283 0.0
O125 O 0.023 0.32417 0.34572 0.0
O126 O 0.6699 0.95858 0.31431 0.0
Cd127 Cd 0.66542 0.96718 0.34052 0.0
Cd128 Cd 0.69544 0.98206 0.34381 0.0
O129 O 0.69431 0.97162 0.316 0.0
O130 O 0.64435 0.96223 0.33748 0.0
O131 O 0.66309 0.98527 0.33859 0.0
C132 C 0.64899 0.97626 0.33685 0.0
C133 C 0.71153 1.00764 0.3476 0.0
C134 C 0.68251 0.9619 0.30701 0.0
C135 C 0.67834 0.96003 0.37735 0.0
O136 O 0.69097 0.96909 0.36991 0.0
O137 O 0.66659 0.95812 0.36848 0.0
O138 O 0.71638 0.99843 0.34705 0.0
O139 O 0.69741 1.00233 0.34564 0.0
O140 O 0.06687 0.71796 0.31965 0.0
Cd141 Cd 0.05822 0.70496 0.3457 0.0
Cd142 Cd 0.0428 0.72018 0.34773 0.0
O143 O 0.05358 0.72912 0.32004 0.0
O144 O 0.06471 0.68989 0.34408 0.0
O145 O 0.04117 0.6839 0.34279 0.0
C146 C 0.05098 0.67977 0.3424 0.0
C147 C 0.01731 0.71151 0.35062 0.0
C148 C 0.06346 0.72704 0.31173 0.0
C149 C 0.06444 0.72519 0.3824 0.0
O150 O 0.05538 0.72862 0.37445 0.0
O151 O 0.06666 0.71547 0.37379 0.0
O152 O 0.0269 0.72549 0.35034 0.0
O153 O 0.02217 0.70231 0.34879 0.0
O154 O 0.29587 0.33204 0.37094 0.0
Cd155 Cd 0.30456 0.3278 0.34477 0.0
Cd156 Cd 0.31957 0.3585 0.34299 0.0
O157 O 0.30885 0.35651 0.37079 0.0
O158 O 0.29863 0.30641 0.34723 0.0
O159 O 0.322 0.32435 0.34695 0.0
C160 C 0.31247 0.31036 0.34832 0.0
C161 C 0.34487 0.37607 0.33995 0.0
C162 C 0.29909 0.34448 0.37901 0.0
C163 C 0.29778 0.34142 0.30842 0.0
O164 O 0.30676 0.35396 0.31645 0.0
O165 O 0.29574 0.32951 0.31683 0.0
O166 O 0.33492 0.37995 0.34083 0.0
O167 O 0.34049 0.36209 0.3412 0.0
O168 O 0.35656 0.06338 0.70935 0.0
Cd169 Cd 0.36408 0.05753 0.68339 0.0
Cd170 Cd 0.33451 0.04295 0.67341 0.0
O171 O 0.333 0.05311 0.70023 0.0
O172 O 0.38481 0.06267 0.69036 0.0
O173 O 0.36716 0.03982 0.68298 0.0
C174 C 0.38081 0.04886 0.68801 0.0
C175 C 0.31782 0.01757 0.66861 0.0
C176 C 0.34352 0.06096 0.71281 0.0
C177 C 0.35536 0.06679 0.64415 0.0
O178 O 0.34225 0.05626 0.64742 0.0
O179 O 0.36577 0.06928 0.65679 0.0
O180 O 0.3139 0.02738 0.66571 0.0
O181 O 0.33131 0.02213 0.67441 0.0
O182 O 0.95994 0.29969 0.70747 0.0
Cd183 Cd 0.96705 0.31307 0.68158 0.0
Cd184 Cd 0.98222 0.29774 0.67486 0.0
O185 O 0.97223 0.28778 0.7025 0.0
O186 O 0.96089 0.32812 0.68686 0.0
O187 O 0.98428 0.33413 0.68292 0.0
C188 C 0.97466 0.33826 0.68638 0.0
C189 C 1.00725 0.30484 0.67008 0.0
C190 C 0.9632 0.28996 0.71305 0.0
C191 C 0.95891 0.29384 0.64334 0.0
O192 O 0.96866 0.29057 0.64889 0.0
O193 O 0.9568 0.30292 0.65399 0.0
O194 O 0.99696 0.29112 0.67002 0.0
O195 O 1.00339 0.31472 0.67305 0.0
O196 O 0.7305 0.68305 0.64551 0.0
Cd197 Cd 0.72255 0.68863 0.67128 0.0
Cd198 Cd 0.7078 0.6584 0.67662 0.0
O199 O 0.71827 0.65873 0.64924 0.0
O200 O 0.72868 0.70993 0.66724 0.0
O201 O 0.70523 0.69223 0.6689 0.0
C202 C 0.71486 0.70612 0.66668 0.0
C203 C 0.68237 0.64181 0.68042 0.0
C204 C 0.72748 0.6702 0.63935 0.0
C205 C 0.73006 0.67713 0.70948 0.0
O206 O 0.72073 0.66415 0.70315 0.0
O207 O 0.73212 0.68843 0.6993 0.0
O208 O 0.69192 0.63737 0.68078 0.0
O209 O 0.68725 0.65577 0.67751 0.0
O210 O 0.33703 0.28902 0.64489 0.0
Cd211 Cd 0.33367 0.29838 0.67126 0.0
Cd212 Cd 0.36365 0.31296 0.67192 0.0
O213 O 0.36141 0.30254 0.64381 0.0
O214 O 0.3126 0.29361 0.66951 0.0
O215 O 0.33151 0.31655 0.66915 0.0
C216 C 0.31735 0.30764 0.66832 0.0
C217 C 0.37977 0.33852 0.67566 0.0
C218 C 0.34925 0.29243 0.63615 0.0
C219 C 0.3479 0.29156 0.7066 0.0
O220 O 0.36014 0.29992 0.69765 0.0
O221 O 0.33587 0.2901 0.69936 0.0
O222 O 0.38466 0.32937 0.67397 0.0
O223 O 0.3656 0.33316 0.6748 0.0
O224 O 0.73067 0.05042 0.64943 0.0
Cd225 Cd 0.72224 0.03749 0.67555 0.0
Cd226 Cd 0.70762 0.05312 0.67875 0.0
O227 O 0.71804 0.06223 0.65095 0.0
O228 O 0.72706 0.02129 0.67223 0.0
O229 O 0.70409 0.0171 0.67363 0.0
C230 C 0.71303 0.01195 0.67164 0.0
C231 C 0.68226 0.04477 0.6823 0.0
C232 C 0.72752 0.05983 0.64203 0.0
C233 C 0.72974 0.05753 0.71253 0.0
O234 O 0.72062 0.06111 0.7052 0.0
O235 O 0.73168 0.04778 0.70343 0.0
O236 O 0.692 0.05871 0.68231 0.0
O237 O 0.6869 0.03544 0.67988 0.0
O238 O 0.96357 0.66837 0.70597 0.0
Cd239 Cd 0.97043 0.66238 0.6794 0.0
Cd240 Cd 0.98534 0.6927 0.67376 0.0
O241 O 0.9749 0.69256 0.70107 0.0
O242 O 0.96538 0.64146 0.68463 0.0
O243 O 0.98827 0.65954 0.67892 0.0
C244 C 0.97926 0.64572 0.68291 0.0
C245 C 1.01061 0.71013 0.66994 0.0
C246 C 0.9663 0.68121 0.71168 0.0
C247 C 0.96231 0.67357 0.64159 0.0
O248 O 0.97228 0.68648 0.64734 0.0
O249 O 0.9598 0.66225 0.65215 0.0
O250 O 1.00057 0.7139 0.66892 0.0
O251 O 1.00632 0.69635 0.67341 0.0
H252 H 0.16295 0.32906 0.14734 0.0
H253 H 0.16027 0.33424 0.08139 0.0
H254 H 0.1407 0.35132 0.12387 0.0
H255 H 0.16564 0.31241 0.12049 0.0
H256 H 0.16855 0.31787 0.09398 0.0
H257 H 0.18508 0.32772 0.1476 0.0
H258 H 0.22967 0.35022 0.12484 0.0
H259 H 0.19325 0.33465 0.08188 0.0
C260 C 0.15986 0.33355 0.13437 0.0
C261 C 0.15192 0.34096 0.13803 0.0
C262 C 0.16332 0.33142 0.11398 0.0
C263 C 0.1583 0.33643 0.09717 0.0
C264 C 0.15027 0.34378 0.10071 0.0
C265 C 0.14745 0.34625 0.12114 0.0
C266 C 0.17069 0.32225 0.11016 0.0
C267 C 0.18723 0.33086 0.11434 0.0
C268 C 0.19271 0.33244 0.13478 0.0
C269 C 0.20804 0.33966 0.13867 0.0
C270 C 0.21786 0.34529 0.12197 0.0
C271 C 0.21267 0.34341 0.10148 0.0
C272 C 0.19732 0.33631 0.09772 0.0
H273 H 0.69793 0.84041 0.14755 0.0
H274 H 0.68889 0.83024 0.08233 0.0
H275 H 0.67407 0.79511 0.12678 0.0
H276 H 0.7126 0.859 0.11931 0.0
H277 H 0.70601 0.85536 0.09318 0.0
H278 H 0.69743 0.8629 0.14712 0.0
H279 H 0.67388 0.8841 0.12484 0.0
H280 H 0.68911 0.86323 0.08153 0.0
C281 C 0.69269 0.8324 0.13512 0.0
C282 C 0.68542 0.81718 0.13967 0.0
C283 C 0.6936 0.83727 0.11451 0.0
C284 C 0.68763 0.82667 0.09834 0.0
C285 C 0.68044 0.81144 0.10281 0.0
C286 C 0.67912 0.80686 0.12346 0.0
C287 C 0.70235 0.85368 0.10963 0.0
C288 C 0.69364 0.86148 0.11392 0.0
C289 C 0.69237 0.86555 0.13438 0.0
C290 C 0.68496 0.87344 0.13839 0.0
C291 C 0.67893 0.87735 0.12181 0.0
C292 C 0.68047 0.87389 0.10128 0.0
C293 C 0.68772 0.8658 0.09739 0.0
H294 H 0.17336 0.82416 0.15093 0.0
H295 H 0.16948 0.81566 0.08512 0.0
H296 H 0.13066 0.79633 0.12338 0.0
H297 H 0.19442 0.82561 0.12869 0.0
H298 H 0.19324 0.8262 0.10123 0.0
H299 H 0.1953 0.84664 0.15059 0.0
H300 H 0.22193 0.88915 0.12253 0.0
H301 H 0.20354 0.84975 0.08483 0.0
C302 C 0.16656 0.81957 0.13718 0.0
C303 C 0.15113 0.81067 0.13927 0.0
C304 C 0.1733 0.8218 0.11758 0.0
C305 C 0.16435 0.81469 0.10007 0.0
C306 C 0.14891 0.80551 0.10202 0.0
C307 C 0.14243 0.80397 0.12157 0.0
C308 C 0.19003 0.8295 0.1159 0.0
C309 C 0.19756 0.84627 0.1173 0.0
C310 C 0.19967 0.85326 0.13675 0.0
C311 C 0.20825 0.86876 0.13866 0.0
C312 C 0.21458 0.87728 0.12088 0.0
C313 C 0.21311 0.87056 0.10146 0.0
C314 C 0.20439 0.85503 0.09968 0.0
H315 H 0.3564 0.19639 0.87143 0.0
H316 H 0.35673 0.19768 0.93812 0.0
H317 H 0.33635 0.21803 0.90383 0.0
H318 H 0.37345 0.19154 0.89186 0.0
H319 H 0.37265 0.19097 0.91943 0.0
H320 H 0.35168 0.17037 0.87118 0.0
H321 H 0.33879 0.12804 0.89821 0.0
H322 H 0.36089 0.1675 0.93567 0.0
C323 C 0.35274 0.19902 0.88573 0.0
C324 C 0.34585 0.2077 0.88519 0.0
C325 C 0.35622 0.19486 0.90479 0.0
C326 C 0.35303 0.19978 0.92344 0.0
C327 C 0.34596 0.20827 0.92309 0.0
C328 C 0.3417 0.2114 0.904 0.0
C329 C 0.36564 0.18755 0.90516 0.0
C330 C 0.35656 0.17079 0.90387 0.0
C331 C 0.35054 0.16375 0.88471 0.0
C332 C 0.34384 0.14826 0.88269 0.0
C333 C 0.34305 0.13985 0.9001 0.0
C334 C 0.34925 0.14663 0.91922 0.0
C335 C 0.35578 0.16212 0.92109 0.0
H336 H 0.8678 0.17534 0.87333 0.0
H337 H 0.86901 0.18519 0.93865 0.0
H338 H 0.88936 0.22054 0.89458 0.0
H339 H 0.8636 0.15648 0.90117 0.0
H340 H 0.86104 0.16008 0.92747 0.0
H341 H 0.84438 0.15348 0.87372 0.0
H342 H 0.79986 0.13268 0.89668 0.0
H343 H 0.8364 0.15193 0.93959 0.0
C344 C 0.87064 0.1833 0.88585 0.0
C345 C 0.87858 0.19854 0.88145 0.0
C346 C 0.8667 0.17832 0.90641 0.0
C347 C 0.87135 0.18884 0.92269 0.0
C348 C 0.8794 0.20409 0.91837 0.0
C349 C 0.88266 0.20877 0.89778 0.0
C350 C 0.85892 0.16189 0.9111 0.0
C351 C 0.84238 0.15433 0.90706 0.0
C352 C 0.83682 0.15071 0.8866 0.0
C353 C 0.82148 0.14311 0.88275 0.0
C354 C 0.81172 0.13912 0.8995 0.0
C355 C 0.81697 0.1421 0.91996 0.0
C356 C 0.83232 0.14981 0.92374 0.0
H357 H 0.85368 0.66859 0.86657 0.0
H358 H 0.85565 0.66323 0.93252 0.0
H359 H 0.89569 0.6845 0.89698 0.0
H360 H 0.83221 0.64858 0.88675 0.0
H361 H 0.83261 0.64894 0.91434 0.0
H362 H 0.83123 0.66938 0.86718 0.0
H363 H 0.80294 0.68268 0.89709 0.0
H364 H 0.82184 0.66127 0.93238 0.0
C365 C 0.8601 0.67076 0.88071 0.0
C366 C 0.87564 0.67783 0.87962 0.0
C367 C 0.85277 0.66573 0.89983 0.0
C368 C 0.8612 0.66771 0.91792 0.0
C369 C 0.87674 0.67462 0.91701 0.0
C370 C 0.8838 0.67992 0.89791 0.0
C371 C 0.83605 0.65618 0.90042 0.0
C372 C 0.82818 0.6651 0.90007 0.0
C373 C 0.82631 0.67074 0.88119 0.0
C374 C 0.81736 0.67728 0.88003 0.0
C375 C 0.81054 0.67845 0.89811 0.0
C376 C 0.81202 0.67268 0.91702 0.0
C377 C 0.82099 0.66613 0.91797 0.0
H378 H 0.82637 0.65587 0.47917 0.0
H379 H 0.82615 0.66574 0.41424 0.0
H380 H 0.80515 0.67987 0.45885 0.0
H381 H 0.83064 0.64153 0.45081 0.0
H382 H 0.83344 0.64801 0.42475 0.0
H383 H 0.84986 0.65734 0.47871 0.0
H384 H 0.89451 0.67976 0.4561 0.0
H385 H 0.8582 0.6641 0.41301 0.0
C386 C 0.82377 0.66126 0.46685 0.0
C387 C 0.81582 0.66852 0.47148 0.0
C388 C 0.82796 0.66056 0.44627 0.0
C389 C 0.82358 0.66678 0.43022 0.0
C390 C 0.81545 0.6739 0.43472 0.0
C391 C 0.81194 0.67494 0.45539 0.0
C392 C 0.83554 0.65175 0.44123 0.0
C393 C 0.85208 0.66041 0.44545 0.0
C394 C 0.85752 0.66202 0.46593 0.0
C395 C 0.87284 0.66921 0.46989 0.0
C396 C 0.8827 0.67481 0.45322 0.0
C397 C 0.87755 0.67291 0.43273 0.0
C398 C 0.86222 0.66579 0.42887 0.0
H399 H 0.37337 0.17578 0.4756 0.0
H400 H 0.35666 0.1641 0.41295 0.0
H401 H 0.3491 0.13004 0.45665 0.0
H402 H 0.38302 0.19439 0.44758 0.0
H403 H 0.37573 0.18955 0.42186 0.0
H404 H 0.36513 0.19433 0.47633 0.0
H405 H 0.34084 0.21502 0.45479 0.0
H406 H 0.35977 0.19833 0.41068 0.0
C407 C 0.36699 0.16742 0.46398 0.0
C408 C 0.36141 0.15236 0.46856 0.0
C409 C 0.36512 0.17178 0.444 0.0
C410 C 0.35764 0.16085 0.42857 0.0
C411 C 0.35177 0.14576 0.43317 0.0
C412 C 0.35347 0.14169 0.45322 0.0
C413 C 0.37256 0.18807 0.43851 0.0
C414 C 0.36284 0.19473 0.443 0.0
C415 C 0.36038 0.1974 0.46366 0.0
C416 C 0.35226 0.20453 0.46797 0.0
C417 C 0.34653 0.20891 0.45151 0.0
C418 C 0.34929 0.20686 0.43087 0.0
C419 C 0.35739 0.19969 0.42663 0.0
H420 H 0.83946 0.15923 0.48618 0.0
H421 H 0.8364 0.15405 0.41971 0.0
H422 H 0.79697 0.13435 0.45673 0.0
H423 H 0.86073 0.16207 0.46448 0.0
H424 H 0.85973 0.16241 0.43693 0.0
H425 H 0.85814 0.18349 0.48435 0.0
H426 H 0.89004 0.22548 0.45915 0.0
H427 H 0.87499 0.1859 0.42265 0.0
C428 C 0.83285 0.15561 0.47212 0.0
C429 C 0.81735 0.14719 0.47362 0.0
C430 C 0.83986 0.15864 0.45265 0.0
C431 C 0.8311 0.15259 0.43464 0.0
C432 C 0.81558 0.14383 0.43601 0.0
C433 C 0.80885 0.14165 0.45547 0.0
C434 C 0.8566 0.166 0.45142 0.0
C435 C 0.86453 0.18281 0.45262 0.0
C436 C 0.86455 0.18995 0.47127 0.0
C437 C 0.87361 0.20538 0.47362 0.0
C438 C 0.88264 0.21365 0.45712 0.0
C439 C 0.88354 0.20674 0.43892 0.0
C440 C 0.87409 0.19136 0.43645 0.0
H441 H 0.01785 0.52077 0.19915 0.0
H442 H 0.03327 0.53671 0.26117 0.0
H443 H 1.00724 0.55136 0.22789 0.0
H444 H 0.04187 0.52297 0.21663 0.0
H445 H 0.0425 0.52295 0.24413 0.0
H446 H 0.02025 0.50094 0.19743 0.0
H447 H 1.00927 0.45953 0.22552 0.0
H448 H 0.03239 0.4998 0.26108 0.0
C449 C 0.01777 0.52669 0.21288 0.0
C450 C 1.011 0.53543 0.2118 0.0
C451 C 0.02531 0.5265 0.23098 0.0
C452 C 0.02648 0.53577 0.24784 0.0
C453 C 0.02025 0.54501 0.24656 0.0
C454 C 1.01189 0.5441 0.22897 0.0
C455 C 0.03474 0.51913 0.23065 0.0
C456 C 0.02601 0.50228 0.22999 0.0
C457 C 0.0196 0.49476 0.21119 0.0
C458 C 1.01323 0.47929 0.20962 0.0
C459 C 0.01355 0.47138 0.22693 0.0
C460 C 0.02082 0.47867 0.24529 0.0
C461 C 0.0265 0.49406 0.24707 0.0
H462 H 0.53318 0.50831 0.20812 0.0
H463 H 0.53645 0.51998 0.273 0.0
H464 H 0.55504 0.55408 0.22692 0.0
H465 H 0.53125 0.49078 0.2375 0.0
H466 H 0.5282 0.49474 0.26332 0.0
H467 H 0.51167 0.48315 0.21037 0.0
H468 H 0.46704 0.46357 0.23288 0.0
H469 H 0.5035 0.48862 0.27449 0.0
C470 C 0.53634 0.51662 0.22022 0.0
C471 C 0.54405 0.53173 0.21499 0.0
C472 C 0.53315 0.51222 0.24112 0.0
C473 C 0.53819 0.52318 0.25682 0.0
C474 C 0.54594 0.53831 0.25168 0.0
C475 C 0.54851 0.54241 0.2308 0.0
C476 C 0.52603 0.49598 0.24675 0.0
C477 C 0.50948 0.48757 0.2426 0.0
C478 C 0.50399 0.48154 0.22272 0.0
C479 C 0.48867 0.4726 0.21919 0.0
C480 C 0.47889 0.47037 0.23547 0.0
C481 C 0.48409 0.47592 0.2554 0.0
C482 C 0.49942 0.48457 0.25897 0.0
H483 H 0.51957 0.99758 0.19888 0.0
H484 H 0.52262 0.99554 0.26533 0.0
H485 H 0.56206 0.01536 0.22833 0.0
H486 H 0.49818 0.97919 0.22087 0.0
H487 H 0.49914 0.9811 0.24838 0.0
H488 H 0.5007 1.00244 0.19975 0.0
H489 H 0.47053 0.01511 0.22432 0.0
H490 H 0.48435 0.99021 0.26204 0.0
C491 C 0.52616 1.0006 0.21295 0.0
C492 C 0.54167 1.00773 0.21144 0.0
C493 C 0.51915 0.99668 0.23242 0.0
C494 C 0.52791 0.99936 0.25041 0.0
C495 C 0.54343 1.00615 0.24901 0.0
C496 C 0.55017 0.01071 0.22958 0.0
C497 C 0.50239 0.98751 0.23368 0.0
C498 C 0.4947 0.99659 0.23189 0.0
C499 C 0.49468 1.00321 0.21285 0.0
C500 C 0.48609 0.01003 0.21016 0.0
C501 C 0.47748 0.01021 0.22664 0.0
C502 C 0.47632 1.00266 0.24514 0.0
C503 C 0.48538 0.99632 0.24798 0.0
H504 H 0.49313 0.99189 0.81299 0.0
H505 H 0.49193 0.9998 0.74754 0.0
H506 H 0.47172 0.01542 0.79125 0.0
H507 H 0.49696 0.97671 0.78549 0.0
H508 H 0.49941 0.98244 0.75907 0.0
H509 H 0.51657 0.99268 0.81243 0.0
H510 H 0.56089 0.01534 0.78861 0.0
H511 H 0.52394 0.99886 0.74648 0.0
C512 C 0.49036 0.99693 0.80038 0.0
C513 C 0.48247 1.00432 0.80458 0.0
C514 C 0.49423 0.99561 0.77986 0.0
C515 C 0.48964 1.00135 0.76346 0.0
C516 C 0.48164 1.00866 0.76756 0.0
C517 C 0.47843 0.01034 0.78813 0.0
C518 C 0.50173 0.98664 0.77534 0.0
C519 C 0.51831 0.99544 0.7791 0.0
C520 C 0.52404 0.99731 0.79942 0.0
C521 C 0.53942 1.0047 0.80295 0.0
C522 C 0.54903 0.01025 0.78602 0.0
C523 C 0.54359 1.00807 0.76566 0.0
C524 C 0.5282 1.00077 0.76223 0.0
H525 H 0.03382 0.50852 0.81265 0.0
H526 H 0.02189 0.4986 0.74801 0.0
H527 H 1.00893 0.46331 0.7918 0.0
H528 H 0.04672 0.52747 0.78465 0.0
H529 H 0.03985 0.52361 0.75864 0.0
H530 H 0.02715 0.52641 0.81302 0.0
H531 H 1.00868 0.55285 0.79279 0.0
H532 H 0.02839 0.5372 0.74822 0.0
C533 C 0.02797 0.50057 0.80036 0.0
C534 C 0.02079 0.48534 0.8048 0.0
C535 C 0.02791 0.50554 0.78002 0.0
C536 C 0.0213 0.49498 0.76389 0.0
C537 C 0.0144 0.47974 0.76819 0.0
C538 C 0.01387 0.47508 0.78866 0.0
C539 C 0.03638 0.52198 0.77517 0.0
C540 C 0.02764 0.52974 0.77979 0.0
C541 C 0.02408 0.53119 0.80044 0.0
C542 C 0.01707 0.53935 0.80507 0.0
C543 C 0.01384 0.54631 0.78903 0.0
C544 C 0.01831 0.54609 0.76861 0.0
C545 C 0.02478 0.53736 0.76391 0.0
H546 H 0.50472 0.49336 0.81833 0.0
H547 H 0.50315 0.48418 0.75287 0.0
H548 H 0.46291 0.46611 0.7879 0.0
H549 H 0.52632 0.49409 0.79869 0.0
H550 H 0.52622 0.49414 0.77111 0.0
H551 H 0.52755 0.51582 0.8186 0.0
H552 H 0.5551 0.55754 0.78882 0.0
H553 H 0.53634 0.51722 0.75313 0.0
C554 C 0.49839 0.48866 0.80422 0.0
C555 C 0.48286 0.48009 0.80522 0.0
C556 C 0.50583 0.4905 0.78529 0.0
C557 C 0.49751 0.48345 0.76729 0.0
C558 C 0.48197 0.47477 0.76811 0.0
C559 C 0.4748 0.47346 0.78701 0.0
C560 C 0.52257 0.49784 0.78498 0.0
C561 C 0.5303 0.51463 0.78557 0.0
C562 C 0.53226 0.52212 0.80459 0.0
C563 C 0.54102 0.53765 0.80583 0.0
C564 C 0.54762 0.54566 0.78774 0.0
C565 C 0.54609 0.53844 0.76872 0.0
C566 C 0.53725 0.52291 0.76766 0.0
H567 H 0.68935 0.85946 0.53319 0.0
H568 H 0.69331 0.86634 0.59938 0.0
H569 H 0.67238 0.88496 0.56231 0.0
H570 H 0.70895 0.85791 0.55481 0.0
H571 H 0.7076 0.85723 0.58232 0.0
H572 H 0.68889 0.83659 0.5331 0.0
H573 H 0.6743 0.79424 0.56107 0.0
H574 H 0.69476 0.83371 0.59878 0.0
C575 C 0.68679 0.86349 0.54719 0.0
C576 C 0.67965 0.87187 0.54563 0.0
C577 C 0.6914 0.86105 0.56662 0.0
C578 C 0.68908 0.86744 0.58452 0.0
C579 C 0.6821 0.87601 0.58309 0.0
C580 C 0.67707 0.87776 0.56368 0.0
C581 C 0.70088 0.85381 0.56779 0.0
C582 C 0.69197 0.83703 0.56634 0.0
C583 C 0.68697 0.83 0.54691 0.0
C584 C 0.6803 0.81451 0.54503 0.0
C585 C 0.67857 0.80607 0.56278 0.0
C586 C 0.6839 0.81285 0.58218 0.0
C587 C 0.69034 0.82835 0.58394 0.0
H588 H 0.19627 0.84687 0.54161 0.0
H589 H 0.20636 0.85878 0.60619 0.0
H590 H 0.22233 0.89249 0.55931 0.0
H591 H 0.19617 0.82911 0.57096 0.0
H592 H 0.19366 0.83325 0.59691 0.0
H593 H 0.17649 0.82399 0.5435 0.0
H594 H 0.13219 0.80325 0.56697 0.0
H595 H 0.16904 0.82534 0.60907 0.0
C596 C 0.20082 0.85518 0.55375 0.0
C597 C 0.20898 0.87017 0.54821 0.0
C598 C 0.19913 0.85094 0.57478 0.0
C599 C 0.20663 0.86198 0.59016 0.0
C600 C 0.21544 0.877 0.58459 0.0
C601 C 0.21576 0.88094 0.56374 0.0
C602 C 0.19138 0.83462 0.58044 0.0
C603 C 0.17477 0.82659 0.57656 0.0
C604 C 0.16905 0.82183 0.55636 0.0
C605 C 0.15369 0.81375 0.55276 0.0
C606 C 0.14403 0.81016 0.56956 0.0
C607 C 0.14944 0.81406 0.58988 0.0
C608 C 0.16482 0.82247 0.59333 0.0
H609 H 0.18584 0.32933 0.53629 0.0
H610 H 0.19002 0.32652 0.6024 0.0
H611 H 0.22884 0.34702 0.56422 0.0
H612 H 0.16515 0.31 0.55858 0.0
H613 H 0.16637 0.3118 0.58607 0.0
H614 H 0.16398 0.3303 0.53712 0.0
H615 H 0.13581 0.34429 0.56539 0.0
H616 H 0.15489 0.32386 0.60259 0.0
C617 C 0.19269 0.33218 0.5501 0.0
C618 C 0.20818 0.33941 0.54808 0.0
C619 C 0.18601 0.32787 0.56974 0.0
C620 C 0.19506 0.33054 0.58738 0.0
C621 C 0.21057 0.33756 0.5855 0.0
C622 C 0.21697 0.3423 0.5659 0.0
C623 C 0.16932 0.31829 0.57145 0.0
C624 C 0.16128 0.32703 0.57028 0.0
C625 C 0.15923 0.33207 0.55098 0.0
C626 C 0.15028 0.33858 0.54925 0.0
C627 C 0.14345 0.34013 0.56701 0.0
C628 C 0.14485 0.3347 0.58626 0.0
C629 C 0.15401 0.32838 0.58788 0.0
H630 H 0.03077 0.40734 0.07077 0.0
H631 H 0.02774 0.42159 0.09863 0.0
H632 H 0.98216 0.40447 0.08048 0.0
H633 H 0.98503 0.39009 0.05257 0.0
H634 H 1.00045 0.43701 0.08544 0.0
H635 H 1.00289 0.40541 0.15317 0.0
H636 H 0.01729 0.41039 0.13431 0.0
H637 H 0.99837 0.39764 0.12728 0.0
C638 C 0.02004 0.40644 0.07283 0.0
C639 C 1.00814 0.39754 0.05944 0.0
C640 C 0.01833 0.41459 0.08878 0.0
C641 C 1.00471 0.41402 0.09163 0.0
C642 C 0.99275 0.40502 0.07852 0.0
H643 H 0.9883 0.4528 0.20106 0.0
H644 H 0.98395 0.43699 0.1706 0.0
C645 C 0.9944 0.39676 0.06266 0.0
C646 C 1.00319 0.42327 0.10787 0.0
H647 H 1.00494 0.42878 0.16022 0.0
C648 C 1.00128 0.43515 0.10182 0.0
C649 C 1.00414 0.42071 0.12917 0.0
C650 C 1.00566 0.40778 0.13648 0.0
C651 C 1.00082 0.44489 0.11657 0.0
C652 C 1.00238 0.44268 0.13785 0.0
C653 C 1.00378 0.43048 0.14388 0.0
C654 C 1.00337 0.45322 0.15418 0.0
C655 C 0.99874 0.45749 0.10932 0.0
C656 C 0.01545 0.46776 0.15472 0.0
C657 C 0.01798 0.47681 0.17212 0.0
C658 C 1.0085 0.47141 0.18933 0.0
C659 C 0.99583 0.45722 0.18808 0.0
C660 C 0.99334 0.44818 0.17071 0.0
H661 H 0.99376 0.45536 0.09352 0.0
H662 H 0.99158 0.45938 0.12016 0.0
H663 H 1.0097 0.4678 0.10877 0.0
H664 H 0.02348 0.47179 0.14228 0.0
H665 H 0.02795 0.48758 0.17273 0.0
H666 H 0.61016 0.62327 0.0728 0.0
H667 H 0.59495 0.60556 0.09937 0.0
H668 H 0.61606 0.57972 0.08734 0.0
H669 H 0.63151 0.59749 0.06089 0.0
H670 H 0.5749 0.57541 0.09323 0.0
H671 H 0.61848 0.58382 0.15052 0.0
H672 H 0.62176 0.5968 0.12992 0.0
H673 H 0.62157 0.57976 0.12452 0.0
C674 C 0.61175 0.61394 0.07597 0.0
C675 C 0.62211 0.61184 0.0647 0.0
C676 C 0.60298 0.60379 0.09113 0.0
C677 C 0.60441 0.59136 0.09543 0.0
C678 C 0.61493 0.58935 0.08452 0.0
H679 H 0.55876 0.52266 0.18917 0.0
H680 H 0.57209 0.535 0.15741 0.0
C681 C 0.62374 0.59953 0.06936 0.0
C682 C 0.59447 0.58027 0.11078 0.0
H683 H 0.59409 0.56479 0.15753 0.0
C684 C 0.57909 0.57305 0.10727 0.0
C685 C 0.59996 0.57711 0.12898 0.0
C686 C 0.61633 0.58484 0.13388 0.0
C687 C 0.56906 0.5629 0.12161 0.0
C688 C 0.57453 0.56004 0.14007 0.0
C689 C 0.58992 0.56694 0.14331 0.0
C690 C 0.56458 0.55098 0.15708 0.0
C691 C 0.55269 0.55533 0.11686 0.0
C692 C 0.55564 0.55562 0.16709 0.0
C693 C 0.548 0.54857 0.18512 0.0
C694 C 0.5492 0.53678 0.19355 0.0
C695 C 0.55747 0.53158 0.18286 0.0
C696 C 0.56518 0.5387 0.16484 0.0
H697 H 0.55056 0.55502 0.09991 0.0
H698 H 0.54682 0.54381 0.12287 0.0
H699 H 0.54793 0.5616 0.1244 0.0
H700 H 0.5552 0.56522 0.16163 0.0
H701 H 0.54175 0.55283 0.19309 0.0
H702 H 0.40136 0.98948 0.06314 0.0
H703 H 0.41954 0.99278 0.08979 0.0
H704 H 0.4357 0.03982 0.09106 0.0
H705 H 0.41761 0.03671 0.06425 0.0
H706 H 0.45339 0.01501 0.08524 0.0
H707 H 0.42558 0.02321 0.15363 0.0
H708 H 0.41528 0.01308 0.13086 0.0
H709 H 0.42674 0.03286 0.12993 0.0
C710 C 0.40865 1.00052 0.06921 0.0
C711 C 0.408 0.01283 0.06154 0.0
C712 C 0.41908 1.00238 0.08436 0.0
C713 C 0.42894 0.01653 0.09229 0.0
C714 C 0.42814 0.02881 0.0851 0.0
H715 H 0.48737 0.03596 0.19905 0.0
H716 H 0.47636 0.04001 0.16788 0.0
C717 C 0.41778 0.02699 0.06983 0.0
C718 C 0.4402 0.01839 0.10787 0.0
H719 H 0.44782 0.02328 0.15968 0.0
C720 C 0.45228 0.01693 0.10152 0.0
C721 C 0.43876 0.02106 0.12897 0.0
C722 C 0.42589 0.02261 0.13644 0.0
C723 C 0.46289 0.01785 0.11586 0.0
C724 C 0.46113 0.01989 0.13717 0.0
C725 C 0.44923 0.02177 0.14336 0.0
C726 C 0.47067 0.01895 0.15359 0.0
C727 C 0.4759 0.01668 0.10801 0.0
C728 C 0.4717 1.00605 0.15555 0.0
C729 C 0.47818 1.00384 0.17319 0.0
C730 C 0.48352 0.01437 0.18935 0.0
C731 C 0.48338 0.0277 0.18676 0.0
C732 C 0.47703 0.02998 0.16903 0.0
H733 H 0.47856 0.02058 0.09173 0.0
H734 H 0.48592 0.02323 0.11778 0.0
H735 H 0.47304 1.00488 0.10824 0.0
H736 H 0.46657 0.99721 0.14417 0.0
H737 H 0.47786 0.99333 0.17495 0.0
H738 H 0.3935 0.98036 0.95744 0.0
H739 H 0.40892 0.97923 0.92972 0.0
H740 H 0.42956 0.02654 0.92163 0.0
H741 H 0.41416 0.02781 0.94916 0.0
H742 H 0.42101 0.00975 0.88413 0.0
H743 H 0.45382 0.99412 0.93578 0.0
H744 H 0.43402 0.98256 0.93724 0.0
H745 H 0.44264 1.00156 0.94562 0.0
C746 C 0.40122 0.99052 0.94965 0.0
C747 C 0.40263 1.0042 0.95562 0.0
C748 C 0.41012 0.98986 0.93394 0.0
C749 C 0.42058 1.00284 0.92394 0.0
C750 C 0.42163 0.01641 0.92931 0.0
H751 H 0.48464 0.02805 0.82566 0.0
H752 H 0.47033 0.0274 0.85608 0.0
C753 C 0.4128 0.0171 0.94503 0.0
C754 C 0.43043 1.00237 0.90777 0.0
H755 H 0.45885 0.99545 0.89985 0.0
C756 C 0.42928 1.00663 0.88756 0.0
C757 C 0.44117 0.99823 0.91231 0.0
C758 C 0.44313 0.99396 0.93393 0.0
C759 C 0.43856 1.00682 0.87169 0.0
C760 C 0.44951 1.00297 0.87629 0.0
C761 C 0.45051 0.99848 0.89643 0.0
C762 C 0.46001 1.00367 0.86025 0.0
C763 C 0.43642 0.01095 0.85005 0.0
C764 C 0.45968 0.99069 0.8534 0.0
C765 C 0.468 0.99107 0.83615 0.0
C766 C 0.47673 1.00444 0.82556 0.0
C767 C 0.4779 0.01758 0.83347 0.0
C768 C 0.46966 0.01721 0.85073 0.0
H769 H 0.42529 0.0098 0.848 0.0
H770 H 0.44485 0.0227 0.84712 0.0
H771 H 0.43779 1.00395 0.83824 0.0
H772 H 0.45237 0.98015 0.86066 0.0
H773 H 0.46681 0.98076 0.83027 0.0
H774 H 0.99741 0.39304 0.94537 0.0
H775 H 0.99987 0.41072 0.91873 0.0
H776 H 0.04669 0.43694 0.93167 0.0
H777 H 0.04441 0.41921 0.95827 0.0
H778 H 1.00998 0.44111 0.92556 0.0
H779 H 0.04499 0.43287 0.86812 0.0
H780 H 0.03513 0.41967 0.88838 0.0
H781 H 0.05194 0.4366 0.8943 0.0
C782 C 1.00829 0.40244 0.94239 0.0
C783 C 0.02072 0.40467 0.95399 0.0
C784 C 1.00965 0.41257 0.92719 0.0
C785 C 0.02346 0.42511 0.92314 0.0
C786 C 0.03596 0.42723 0.93432 0.0
H787 H 0.04522 0.49388 0.82945 0.0
H788 H 0.04684 0.48132 0.86069 0.0
C789 C 0.03462 0.41708 0.94956 0.0
C790 C 0.02454 0.43622 0.90786 0.0
H791 H 0.03921 0.4516 0.86096 0.0
C792 C 0.01642 0.44345 0.91146 0.0
C793 C 0.03306 0.43937 0.88959 0.0
C794 C 0.0417 0.43167 0.88469 0.0
C795 C 0.0164 0.45357 0.89715 0.0
C796 C 0.02453 0.45636 0.87856 0.0
C797 C 0.03302 0.44949 0.87525 0.0
C798 C 0.02338 0.46532 0.86156 0.0
C799 C 1.00766 0.46117 0.90204 0.0
C800 C 1.00963 0.46068 0.85196 0.0
C801 C 1.00868 0.46784 0.83425 0.0
C802 C 0.02147 0.47976 0.8257 0.0
C803 C 0.03515 0.48486 0.83586 0.0
C804 C 0.03611 0.47762 0.85358 0.0
H805 H 1.00613 0.46163 0.91902 0.0
H806 H 1.01318 0.47264 0.89585 0.0
H807 H 0.9965 0.45483 0.8948 0.0
H808 H 0.9997 0.45106 0.85758 0.0
H809 H 0.998 0.46368 0.82671 0.0
H810 H 0.60214 0.62642 0.9637 0.0
H811 H 0.5854 0.61178 0.93537 0.0
H812 H 0.61366 0.59375 0.92097 0.0
H813 H 0.63046 0.6083 0.9492 0.0
H814 H 0.6035 0.60392 0.88574 0.0
H815 H 0.55799 0.56542 0.93777 0.0
H816 H 0.5655 0.58497 0.94231 0.0
H817 H 0.57687 0.57679 0.94674 0.0
C818 C 0.60488 0.61945 0.9544 0.0
C819 C 0.61762 0.61849 0.9588 0.0
C820 C 0.59525 0.61102 0.93832 0.0
C821 C 0.5982 0.60153 0.92633 0.0
C822 C 0.61115 0.60094 0.93017 0.0
H823 H 0.54948 0.52943 0.84129 0.0
H824 H 0.56163 0.54498 0.87175 0.0
C825 C 0.62074 0.60928 0.9463 0.0
C826 C 0.58778 0.59209 0.90983 0.0
H827 H 0.55352 0.56177 0.90169 0.0
C828 C 0.59254 0.59477 0.88918 0.0
C829 C 0.57355 0.58008 0.91447 0.0
C830 C 0.56813 0.5765 0.93651 0.0
C831 C 0.58344 0.58572 0.87298 0.0
C832 C 0.56918 0.57375 0.87759 0.0
C833 C 0.5644 0.57105 0.89825 0.0
C834 C 0.55951 0.56351 0.86111 0.0
C835 C 0.58929 0.58878 0.85109 0.0
C836 C 0.55368 0.56854 0.84557 0.0
C837 C 0.54661 0.55964 0.82824 0.0
C838 C 0.54528 0.54557 0.82614 0.0
C839 C 0.55018 0.54014 0.8425 0.0
C840 C 0.55722 0.54905 0.85986 0.0
H841 H 0.60139 0.59677 0.85063 0.0
H842 H 0.58706 0.57835 0.84324 0.0
H843 H 0.58355 0.59354 0.84215 0.0
H844 H 0.55517 0.57961 0.84642 0.0
H845 H 0.54278 0.56405 0.81601 0.0
H846 H 0.98783 0.60374 0.95011 0.0
H847 H 0.98886 0.58785 0.92292 0.0
H848 H 0.03572 0.6066 0.9339 0.0
H849 H 0.03483 0.62254 0.9612 0.0
H850 H 1.00697 0.5963 0.88643 0.0
H851 H 0.01841 0.56103 0.9392 0.0
H852 H 1.01133 0.57269 0.94838 0.0
H853 H 0.03056 0.58071 0.94188 0.0
C854 C 0.99839 0.60458 0.94668 0.0
C855 C 1.01124 0.61439 0.95792 0.0
C856 C 0.99894 0.59545 0.93117 0.0
C857 C 1.0123 0.59585 0.92672 0.0
C858 C 0.02524 0.60592 0.93742 0.0
H859 H 0.03804 0.5519 0.83541 0.0
H860 H 0.03635 0.56433 0.86683 0.0
C861 C 0.02472 0.61512 0.95288 0.0
C862 C 1.01269 0.58585 0.91063 0.0
H863 H 0.0187 0.55676 0.90312 0.0
C864 C 1.00947 0.58761 0.89007 0.0
C865 C 0.01603 0.57459 0.91547 0.0
C866 C 0.01918 0.572 0.93744 0.0
C867 C 1.0097 0.57855 0.8741 0.0
C868 C 1.01286 0.56714 0.87894 0.0
C869 C 0.01616 0.56542 0.8995 0.0
C870 C 1.01312 0.55722 0.86259 0.0
C871 C 1.00694 0.58152 0.8521 0.0
C872 C 1.00041 0.54837 0.85058 0.0
C873 C 1.00137 0.54131 0.83267 0.0
C874 C 0.015 0.54281 0.82668 0.0
C875 C 0.02738 0.55046 0.83981 0.0
C876 C 0.02644 0.55764 0.85766 0.0
H877 H 1.00846 0.59282 0.85042 0.0
H878 H 0.01448 0.58034 0.84112 0.0
H879 H 0.99536 0.57339 0.84759 0.0
H880 H 0.98995 0.54763 0.85439 0.0
H881 H 0.99168 0.53545 0.82279 0.0
H882 H 0.39605 0.42109 0.96399 0.0
H883 H 0.41031 0.43778 0.93575 0.0
H884 H 0.42384 0.4068 0.91568 0.0
H885 H 0.40968 0.39006 0.94383 0.0
H886 H 0.44215 0.45006 0.92945 0.0
H887 H 0.40788 0.41697 0.86226 0.0
H888 H 0.40082 0.41406 0.88842 0.0
H889 H 0.41257 0.40691 0.8805 0.0
C890 C 0.40189 0.41772 0.95341 0.0
C891 C 0.40169 0.40421 0.95617 0.0
C892 C 0.41008 0.42731 0.93735 0.0
C893 C 0.41805 0.42348 0.9236 0.0
C894 C 0.41763 0.40988 0.92601 0.0
H895 H 0.49076 0.47159 0.84092 0.0
H896 H 0.47523 0.46002 0.87123 0.0
C897 C 0.40954 0.40034 0.94214 0.0
C898 C 0.42732 0.43392 0.90722 0.0
H899 H 0.4317 0.43738 0.85474 0.0
C900 C 0.43982 0.44738 0.9131 0.0
C901 C 0.42415 0.43043 0.88594 0.0
C902 C 0.41056 0.41637 0.8788 0.0
C903 C 0.44954 0.45724 0.8982 0.0
C904 C 0.44668 0.45347 0.87693 0.0
C905 C 0.4339 0.44023 0.87107 0.0
C906 C 0.45703 0.46272 0.86042 0.0
C907 C 0.46279 0.47159 0.90529 0.0
C908 C 0.4521 0.46836 0.84449 0.0
C909 C 0.46099 0.47506 0.8272 0.0
C910 C 0.47494 0.47609 0.8254 0.0
C911 C 0.4802 0.47118 0.84195 0.0
C912 C 0.4713 0.46452 0.85928 0.0
H913 H 0.46131 0.47463 0.92129 0.0
H914 H 0.47275 0.47032 0.90525 0.0
H915 H 0.46486 0.4808 0.89469 0.0
H916 H 0.44113 0.46708 0.84507 0.0
H917 H 0.45668 0.47884 0.81479 0.0
H918 H 0.6322 0.02908 0.94868 0.0
H919 H 0.61564 0.02822 0.92107 0.0
H920 H 0.5893 0.98073 0.92725 0.0
H921 H 0.60576 0.98144 0.95497 0.0
H922 H 0.60763 0.01165 0.88271 0.0
H923 H 0.55916 0.99567 0.93396 0.0
H924 H 0.57779 1.00324 0.94394 0.0
H925 H 0.56757 0.98425 0.93547 0.0
C926 C 0.62295 0.01842 0.94411 0.0
C927 C 0.62028 1.00533 0.95414 0.0
C928 C 0.61348 0.01797 0.92834 0.0
C929 C 0.6011 1.00445 0.9224 0.0
C930 C 0.59864 0.99131 0.93189 0.0
H931 H 0.53197 0.98174 0.82966 0.0
H932 H 0.5463 0.9817 0.85991 0.0
C933 C 0.60814 0.99173 0.94761 0.0
C934 C 0.59084 1.00418 0.9062 0.0
H935 H 0.55545 0.99712 0.89801 0.0
C936 C 0.59623 1.0085 0.88604 0.0
C937 C 0.57596 0.99999 0.91062 0.0
C938 C 0.56974 0.99562 0.93219 0.0
C939 C 0.58711 1.00863 0.87007 0.0
C940 C 0.57229 1.0047 0.87454 0.0
C941 C 0.56683 1.00022 0.89468 0.0
C942 C 0.56235 1.00514 0.85836 0.0
C943 C 0.59337 0.0127 0.84846 0.0
C944 C 0.56617 0.01846 0.84818 0.0
C945 C 0.55803 0.01851 0.83096 0.0
C946 C 0.5458 1.00525 0.82377 0.0
C947 C 0.54127 0.99213 0.83498 0.0
C948 C 0.54951 0.99208 0.85216 0.0
H949 H 0.6033 0.01148 0.84652 0.0
H950 H 0.58497 1.0057 0.83661 0.0
H951 H 0.59674 0.02446 0.84547 0.0
H952 H 0.57582 0.02874 0.85305 0.0
H953 H 0.56167 0.02879 0.82269 0.0
H954 H 0.6365 0.03464 0.06476 0.0
H955 H 0.62135 0.03623 0.09255 0.0
H956 H 0.59209 0.98891 0.08922 0.0
H957 H 0.60711 0.98714 0.06154 0.0
H958 H 0.57831 1.00816 0.08727 0.0
H959 H 0.61695 0.02028 0.15391 0.0
H960 H 0.62442 0.03098 0.13069 0.0
H961 H 0.61816 0.0115 0.13035 0.0
C962 C 0.62694 0.02454 0.07009 0.0
C963 C 0.62305 0.01076 0.06091 0.0
C964 C 0.61831 0.02548 0.08597 0.0
C965 C 0.60564 0.01268 0.09291 0.0
C966 C 0.60184 0.9989 0.08404 0.0
H967 H 0.53446 0.98804 0.17944 0.0
H968 H 0.54954 0.99052 0.14911 0.0
C969 C 0.61049 0.99793 0.06828 0.0
C970 C 0.59605 0.01363 0.10902 0.0
H971 H 0.59441 0.01948 0.16079 0.0
C972 C 0.58181 0.01068 0.10335 0.0
C973 C 0.60074 0.01704 0.12989 0.0
C974 C 0.61586 0.02006 0.13675 0.0
C975 C 0.57207 0.01102 0.11808 0.0
C976 C 0.57658 0.014 0.13912 0.0
C977 C 0.59095 0.01721 0.14467 0.0
C978 C 0.56643 0.01319 0.15587 0.0
C979 C 0.55713 1.00834 0.11089 0.0
C980 C 0.57084 0.02511 0.16976 0.0
C981 C 0.56228 0.02366 0.1872 0.0
C982 C 0.54914 0.01027 0.19108 0.0
C983 C 0.54438 0.99859 0.17664 0.0
C984 C 0.553 1.0 0.15928 0.0
H985 H 0.55732 0.01118 0.09425 0.0
H986 H 0.54883 0.99641 0.11266 0.0
H987 H 0.55346 0.01493 0.12016 0.0
H988 H 0.58116 0.03539 0.16748 0.0
H989 H 0.56621 0.03283 0.19809 0.0
H990 H 0.02614 0.62258 0.07238 0.0
H991 H 0.02356 0.60522 0.09967 0.0
H992 H 0.97665 0.57929 0.08726 0.0
H993 H 0.97907 0.59659 0.05986 0.0
H994 H 1.00435 0.59598 0.13579 0.0
H995 H 0.99278 0.54963 0.08151 0.0
H996 H 1.00109 0.56866 0.0731 0.0
H997 H 0.98164 0.55828 0.07858 0.0
C998 C 0.01523 0.61327 0.07553 0.0
C999 C 1.00282 0.61095 0.06385 0.0
C1000 C 0.0138 0.60335 0.09112 0.0
C1001 C 0.99997 0.59088 0.09521 0.0
C1002 C 0.98746 0.58875 0.08408 0.0
H1003 H 0.98551 0.53626 0.20471 0.0
H1004 H 0.98043 0.54762 0.1749 0.0
C1005 C 0.98886 0.59871 0.06855 0.0
C1006 C 0.99877 0.5801 0.11108 0.0
H1007 H 0.99327 0.54509 0.11727 0.0
C1008 C 1.00179 0.58481 0.13181 0.0
C1009 C 0.99556 0.56559 0.10571 0.0
C1010 C 0.99267 0.56018 0.08352 0.0
C1011 C 1.00184 0.57545 0.14735 0.0
C1012 C 0.99865 0.56094 0.14201 0.0
C1013 C 0.99553 0.55616 0.12129 0.0
C1014 C 0.99968 0.55112 0.15766 0.0
C1015 C 1.0058 0.58131 0.16929 0.0
C1016 C 1.01166 0.54853 0.15719 0.0
C1017 C 0.01457 0.54203 0.17416 0.0
C1018 C 1.00552 0.53802 0.19183 0.0
C1019 C 0.99274 0.53936 0.19137 0.0
C1020 C 0.98985 0.54587 0.17441 0.0
H1021 H 1.01042 0.59351 0.17013 0.0
H1022 H 0.99571 0.57593 0.17903 0.0
H1023 H 0.01403 0.57866 0.17601 0.0
H1024 H 0.01935 0.55249 0.14435 0.0
H1025 H 0.02458 0.5413 0.17411 0.0
H1026 H 0.42778 0.39524 0.05009 0.0
H1027 H 0.44543 0.40967 0.07755 0.0
H1028 H 0.41287 0.41829 0.10544 0.0
H1029 H 0.3954 0.40443 0.07748 0.0
H1030 H 0.43872 0.44285 0.10405 0.0
H1031 H 0.44747 0.39838 0.13586 0.0
H1032 H 0.45187 0.4017 0.10884 0.0
H1033 H 0.43306 0.39465 0.11724 0.0
C1034 C 0.42431 0.40005 0.06222 0.0
C1035 C 0.41015 0.39861 0.06168 0.0
C1036 C 0.43441 0.40826 0.07797 0.0
C1037 C 0.43043 0.41489 0.0938 0.0
C1038 C 0.41621 0.41329 0.09342 0.0
H1039 H 0.46688 0.44386 0.21416 0.0
H1040 H 0.45463 0.43107 0.18227 0.0
C1041 C 0.4062 0.4053 0.07748 0.0
C1042 C 0.44115 0.42388 0.11044 0.0
H1043 H 0.46291 0.42259 0.14917 0.0
C1044 C 0.44402 0.43842 0.11393 0.0
C1045 C 0.44806 0.4181 0.12335 0.0
C1046 C 0.44486 0.40231 0.1213 0.0
C1047 C 0.45322 0.44718 0.13028 0.0
C1048 C 0.4602 0.44143 0.14311 0.0
C1049 C 0.45769 0.42705 0.13922 0.0
C1050 C 0.46863 0.44933 0.16212 0.0
C1051 C 0.45476 0.46219 0.13423 0.0
C1052 C 0.4809 0.46381 0.16151 0.0
C1053 C 0.48779 0.47137 0.17996 0.0
C1054 C 0.48258 0.46448 0.19926 0.0
C1055 C 0.47088 0.44969 0.19962 0.0
C1056 C 0.46395 0.44227 0.18134 0.0
H1057 H 0.44605 0.46344 0.12606 0.0
H1058 H 0.45411 0.46406 0.15107 0.0
H1059 H 0.46569 0.47096 0.12853 0.0
H1060 H 0.485 0.46935 0.14682 0.0
H1061 H 0.49686 0.4827 0.17915 0.0
H1062 H 0.70136 0.74893 0.39684 0.0
H1063 H 0.69898 0.76393 0.42418 0.0
H1064 H 0.65171 0.7344 0.42512 0.0
H1065 H 0.65391 0.7193 0.39761 0.0
H1066 H 0.67833 0.77702 0.4205 0.0
H1067 H 0.66799 0.73951 0.4876 0.0
H1068 H 0.67759 0.73888 0.46467 0.0
H1069 H 0.65795 0.73159 0.46379 0.0
C1070 C 0.69046 0.74549 0.40298 0.0
C1071 C 0.67782 0.73288 0.39501 0.0
C1072 C 0.68913 0.75413 0.41853 0.0
C1073 C 0.67518 0.75026 0.4266 0.0
C1074 C 0.66258 0.73752 0.4191 0.0
H1075 H 0.65514 0.78953 0.53233 0.0
H1076 H 0.65218 0.77443 0.5015 0.0
C1077 C 0.66387 0.72891 0.40341 0.0
C1078 C 0.67387 0.75981 0.44252 0.0
H1079 H 0.66858 0.76199 0.49428 0.0
C1080 C 0.67612 0.77375 0.43664 0.0
C1081 C 0.67085 0.7554 0.46344 0.0
C1082 C 0.6685 0.74057 0.47044 0.0
C1083 C 0.67554 0.7835 0.45125 0.0
C1084 C 0.67304 0.77932 0.47237 0.0
C1085 C 0.67047 0.76521 0.4781 0.0
C1086 C 0.67383 0.78961 0.48903 0.0
C1087 C 0.67748 0.79809 0.44384 0.0
C1088 C 0.68679 0.80338 0.492 0.0
C1089 C 0.68841 0.8121 0.50946 0.0
C1090 C 0.67719 0.80709 0.52445 0.0
C1091 C 0.66394 0.79365 0.52098 0.0
C1092 C 0.66227 0.78501 0.50342 0.0
H1093 H 0.67414 0.79741 0.4273 0.0
H1094 H 0.67088 0.80164 0.45326 0.0
H1095 H 0.68934 0.80673 0.44512 0.0
H1096 H 0.69602 0.80702 0.48145 0.0
H1097 H 0.69885 0.82225 0.51194 0.0
H1098 H 0.27413 0.96011 0.40174 0.0
H1099 H 0.25809 0.94344 0.42878 0.0
H1100 H 0.27964 0.9174 0.42325 0.0
H1101 H 0.29595 0.93419 0.39665 0.0
H1102 H 0.23816 0.91387 0.42577 0.0
H1103 H 0.28078 0.92354 0.48512 0.0
H1104 H 0.28471 0.93543 0.46295 0.0
H1105 H 0.28432 0.91801 0.46039 0.0
C1106 C 0.27562 0.95097 0.4065 0.0
C1107 C 0.2864 0.94856 0.3971 0.0
C1108 C 0.26639 0.94141 0.42189 0.0
C1109 C 0.26775 0.92925 0.4282 0.0
C1110 C 0.27859 0.92688 0.41898 0.0
H1111 H 0.22142 0.86024 0.51997 0.0
H1112 H 0.23395 0.87278 0.48791 0.0
C1113 C 0.28789 0.9365 0.40371 0.0
C1114 C 0.25751 0.91878 0.44392 0.0
H1115 H 0.25652 0.90354 0.49112 0.0
C1116 C 0.24217 0.91164 0.44008 0.0
C1117 C 0.26276 0.91584 0.46257 0.0
C1118 C 0.27903 0.92371 0.46814 0.0
C1119 C 0.23195 0.90159 0.45436 0.0
C1120 C 0.23721 0.89868 0.47295 0.0
C1121 C 0.25253 0.90568 0.4767 0.0
C1122 C 0.22712 0.88925 0.48953 0.0
C1123 C 0.21561 0.89411 0.44946 0.0
C1124 C 0.21871 0.89406 0.50061 0.0
C1125 C 0.21156 0.88693 0.51888 0.0
C1126 C 0.21269 0.87486 0.52634 0.0
C1127 C 0.22018 0.86936 0.51439 0.0
C1128 C 0.22744 0.87659 0.49619 0.0
H1129 H 0.21353 0.89466 0.43265 0.0
H1130 H 0.20989 0.88231 0.45427 0.0
H1131 H 0.21065 0.89977 0.45816 0.0
H1132 H 0.21849 0.90393 0.49591 0.0
H1133 H 0.20595 0.89142 0.52791 0.0
H1134 H 0.08244 0.3664 0.40391 0.0
H1135 H 0.09883 0.36722 0.43185 0.0
H1136 H 0.08397 0.32087 0.42197 0.0
H1137 H 0.0675 0.31987 0.39411 0.0
H1138 H 0.0906 0.34781 0.46916 0.0
H1139 H 0.13071 0.34356 0.41692 0.0
H1140 H 0.11808 0.34951 0.40794 0.0
H1141 H 0.11144 0.33023 0.41271 0.0
C1142 C 0.08256 0.35634 0.40777 0.0
C1143 C 0.07368 0.34308 0.39671 0.0
C1144 C 0.09195 0.35685 0.4237 0.0
C1145 C 0.09276 0.34417 0.42868 0.0
C1146 C 0.08365 0.33083 0.4181 0.0
H1147 H 0.1397 0.32005 0.51577 0.0
H1148 H 0.12709 0.32272 0.48539 0.0
C1149 C 0.07417 0.33027 0.40229 0.0
C1150 C 0.10308 0.34484 0.44502 0.0
H1151 H 0.13411 0.34222 0.45303 0.0
C1152 C 0.10019 0.34671 0.46568 0.0
C1153 C 0.11551 0.34333 0.44033 0.0
C1154 C 0.11926 0.34165 0.41827 0.0
C1155 C 0.10917 0.34668 0.48194 0.0
C1156 C 0.12165 0.34518 0.47729 0.0
C1157 C 0.12462 0.34346 0.45655 0.0
C1158 C 0.13127 0.34463 0.49388 0.0
C1159 C 0.10486 0.34769 0.50397 0.0
C1160 C 0.13848 0.35637 0.50813 0.0
C1161 C 0.14563 0.35484 0.52552 0.0
C1162 C 0.14592 0.34164 0.52875 0.0
C1163 C 0.13977 0.33039 0.51358 0.0
C1164 C 0.13248 0.33188 0.49629 0.0
H1165 H 0.0931 0.34492 0.50503 0.0
H1166 H 0.1065 0.3401 0.51428 0.0
H1167 H 0.1119 0.35919 0.50982 0.0
H1168 H 0.13804 0.36648 0.50627 0.0
H1169 H 0.15038 0.3637 0.53694 0.0
H1170 H 0.0631 0.31874 0.28806 0.0
H1171 H 0.07931 0.31857 0.26091 0.0
H1172 H 0.10259 0.36639 0.25957 0.0
H1173 H 0.08665 0.3667 0.28708 0.0
H1174 H 0.08445 0.32905 0.22163 0.0
H1175 H 0.13637 0.35817 0.26783 0.0
H1176 H 0.1183 0.35098 0.27929 0.0
H1177 H 0.12675 0.36839 0.26579 0.0
C1178 C 0.07161 0.32924 0.28194 0.0
C1179 C 0.07363 0.34275 0.28989 0.0
C1180 C 0.0809 0.32911 0.26644 0.0
C1181 C 0.0924 0.34247 0.25857 0.0
C1182 C 0.09407 0.35595 0.26584 0.0
H1183 H 0.15344 0.36508 0.15725 0.0
H1184 H 0.13984 0.36511 0.18819 0.0
C1185 C 0.08484 0.3561 0.28144 0.0
C1186 C 0.10251 0.34222 0.24259 0.0
H1187 H 0.13897 0.35462 0.23187 0.0
C1188 C 0.09635 0.33454 0.22394 0.0
C1189 C 0.11805 0.34935 0.24567 0.0
C1190 C 0.12527 0.35706 0.2658 0.0
C1191 C 0.10534 0.3341 0.2081 0.0
C1192 C 0.12087 0.34141 0.21106 0.0
C1193 C 0.12705 0.34901 0.22972 0.0
C1194 C 0.13082 0.34177 0.19446 0.0
C1195 C 0.0982 0.32613 0.18806 0.0
C1196 C 0.13073 0.32877 0.18834 0.0
C1197 C 0.13856 0.32875 0.17076 0.0
C1198 C 0.14652 0.34172 0.15901 0.0
C1199 C 0.14733 0.35493 0.16599 0.0
C1200 C 0.13959 0.35496 0.18362 0.0
H1201 H 0.0864 0.3232 0.18692 0.0
H1202 H 0.10427 0.33309 0.17454 0.0
H1203 H 0.09869 0.31574 0.18711 0.0
H1204 H 0.12411 0.31852 0.19666 0.0
H1205 H 0.13762 0.31839 0.16563 0.0
H1206 H 0.66202 0.72541 0.28252 0.0
H1207 H 0.66364 0.7426 0.25559 0.0
H1208 H 0.71099 0.76831 0.26445 0.0
H1209 H 0.70954 0.75104 0.29117 0.0
H1210 H 0.67388 0.77263 0.2606 0.0
H1211 H 0.70723 0.76329 0.2017 0.0
H1212 H 0.69837 0.75076 0.22302 0.0
H1213 H 0.71541 0.7679 0.22715 0.0
C1214 C 0.67282 0.73458 0.27855 0.0
C1215 C 0.68566 0.7368 0.289 0.0
C1216 C 0.67371 0.74444 0.2632 0.0
C1217 C 0.68743 0.75668 0.2579 0.0
C1218 C 0.70031 0.75879 0.26801 0.0
H1219 H 0.70934 0.82577 0.16524 0.0
H1220 H 0.71049 0.81296 0.19647 0.0
C1221 C 0.69945 0.74891 0.28333 0.0
C1222 C 0.68812 0.76754 0.24245 0.0
H1223 H 0.70231 0.78277 0.19529 0.0
C1224 C 0.68011 0.77486 0.24632 0.0
C1225 C 0.69634 0.77052 0.22391 0.0
C1226 C 0.70473 0.76263 0.21854 0.0
C1227 C 0.68 0.78499 0.23209 0.0
C1228 C 0.68799 0.78775 0.21339 0.0
C1229 C 0.69627 0.7807 0.20972 0.0
C1230 C 0.68701 0.79697 0.19666 0.0
C1231 C 0.67138 0.79267 0.23719 0.0
C1232 C 0.67339 0.79245 0.18674 0.0
C1233 C 0.67271 0.79975 0.169 0.0
C1234 C 0.68565 0.81169 0.1608 0.0
C1235 C 0.69917 0.81673 0.17139 0.0
C1236 C 0.69985 0.80935 0.18911 0.0
H1237 H 0.66961 0.7928 0.25417 0.0
H1238 H 0.67714 0.80427 0.23147 0.0
H1239 H 0.66033 0.78663 0.22957 0.0
H1240 H 0.66338 0.78279 0.19208 0.0
H1241 H 0.66217 0.79562 0.1611 0.0
H1242 H 0.2936 0.93433 0.29123 0.0
H1243 H 0.2775 0.91907 0.26301 0.0
H1244 H 0.2603 0.94889 0.25635 0.0
H1245 H 0.27615 0.9641 0.28502 0.0
H1246 H 0.23826 0.91997 0.25695 0.0
H1247 H 0.28161 0.9266 0.20149 0.0
H1248 H 0.28376 0.92016 0.22631 0.0
H1249 H 0.28571 0.93829 0.22412 0.0
C1250 C 0.28655 0.93779 0.28362 0.0
C1251 C 0.28623 0.9505 0.29036 0.0
C1252 C 0.27737 0.92906 0.26741 0.0
C1253 C 0.26784 0.93294 0.25736 0.0
C1254 C 0.26761 0.94571 0.26385 0.0
H1255 H 0.20844 0.89385 0.15193 0.0
H1256 H 0.22135 0.90891 0.18257 0.0
C1257 C 0.27673 0.95443 0.28018 0.0
C1258 C 0.25772 0.92332 0.24065 0.0
H1259 H 0.25701 0.90699 0.1943 0.0
C1260 C 0.24236 0.91724 0.24317 0.0
C1261 C 0.26309 0.9198 0.22263 0.0
C1262 C 0.27945 0.92668 0.21834 0.0
C1263 C 0.23223 0.90741 0.22838 0.0
C1264 C 0.23762 0.90361 0.21072 0.0
C1265 C 0.25294 0.90982 0.20805 0.0
C1266 C 0.22764 0.89342 0.19445 0.0
C1267 C 0.21584 0.90091 0.23183 0.0
C1268 C 0.22662 0.8796 0.19134 0.0
C1269 C 0.21919 0.87095 0.17397 0.0
C1270 C 0.21285 0.87611 0.15928 0.0
C1271 C 0.21321 0.88961 0.16305 0.0
C1272 C 0.22054 0.89819 0.18052 0.0
H1273 H 0.21337 0.90327 0.2477 0.0
H1274 H 0.21139 0.90569 0.22044 0.0
H1275 H 0.20994 0.88872 0.22931 0.0
H1276 H 0.23213 0.8758 0.20189 0.0
H1277 H 0.2193 0.86072 0.17132 0.0
H1278 H 0.65971 0.94105 0.28325 0.0
H1279 H 0.66103 0.92542 0.2559 0.0
H1280 H 0.70856 0.94775 0.26275 0.0
H1281 H 0.70739 0.96342 0.29022 0.0
H1282 H 0.67722 0.93397 0.21788 0.0
H1283 H 0.69519 0.90315 0.26953 0.0
H1284 H 0.68726 0.9139 0.27938 0.0
H1285 H 0.70616 0.92304 0.27083 0.0
C1286 C 0.67047 0.94273 0.27888 0.0
C1287 C 0.68344 0.95346 0.28903 0.0
C1288 C 0.67119 0.93376 0.26327 0.0
C1289 C 0.68486 0.93525 0.2576 0.0
C1290 C 0.69787 0.94624 0.2672 0.0
H1291 H 0.7084 0.88979 0.16438 0.0
H1292 H 0.70857 0.90421 0.19474 0.0
C1293 C 0.69718 0.95526 0.28278 0.0
C1294 C 0.68542 0.92534 0.2415 0.0
H1295 H 0.69363 0.89774 0.23362 0.0
C1296 C 0.68079 0.92604 0.22131 0.0
C1297 C 0.69016 0.91506 0.24604 0.0
C1298 C 0.69488 0.91359 0.26764 0.0
C1299 C 0.68083 0.91679 0.20546 0.0
C1300 C 0.68529 0.9063 0.21006 0.0
C1301 C 0.69013 0.90572 0.23019 0.0
C1302 C 0.68493 0.89586 0.19402 0.0
C1303 C 0.67632 0.91852 0.18383 0.0
C1304 C 0.6715 0.88583 0.18432 0.0
C1305 C 0.67138 0.87763 0.16706 0.0
C1306 C 0.68469 0.87919 0.15935 0.0
C1307 C 0.69799 0.88831 0.17011 0.0
C1308 C 0.6981 0.89661 0.18735 0.0
H1309 H 0.67706 0.92946 0.18175 0.0
H1310 H 0.68338 0.91731 0.17199 0.0
H1311 H 0.66465 0.90977 0.18095 0.0
H1312 H 0.66116 0.88483 0.18953 0.0
H1313 H 0.66098 0.8706 0.1591 0.0
H1314 H 0.0869 0.72726 0.2924 0.0
H1315 H 0.10205 0.74342 0.26447 0.0
H1316 H 0.07432 0.76324 0.26168 0.0
H1317 H 0.05923 0.74731 0.29002 0.0
H1318 H 0.09499 0.74623 0.22492 0.0
H1319 H 0.11526 0.79955 0.26722 0.0
H1320 H 0.10582 0.78183 0.28004 0.0
H1321 H 0.09543 0.78841 0.26571 0.0
C1322 C 0.08395 0.73501 0.28585 0.0
C1323 C 0.07187 0.73602 0.29358 0.0
C1324 C 0.09267 0.74428 0.26988 0.0
C1325 C 0.08953 0.75477 0.26127 0.0
C1326 C 0.0772 0.75551 0.26846 0.0
H1327 H 0.12581 0.80992 0.15233 0.0
H1328 H 0.11137 0.7976 0.18335 0.0
C1329 C 0.0685 0.74628 0.28454 0.0
C1330 C 0.09907 0.7647 0.24453 0.0
H1331 H 0.12166 0.80111 0.23159 0.0
C1332 C 0.10084 0.75822 0.22643 0.0
C1333 C 0.10675 0.78037 0.24653 0.0
C1334 C 0.10586 0.78798 0.26599 0.0
C1335 C 0.10997 0.76695 0.21025 0.0
C1336 C 0.11759 0.78257 0.21224 0.0
C1337 C 0.11579 0.78911 0.2302 0.0
C1338 C 0.12738 0.79212 0.19555 0.0
C1339 C 0.1114 0.75947 0.191 0.0
C1340 C 0.14137 0.79356 0.19263 0.0
C1341 C 0.14968 0.80065 0.175 0.0
C1342 C 0.14404 0.8063 0.15997 0.0
C1343 C 0.1304 0.80562 0.16363 0.0
C1344 C 0.12215 0.79861 0.18132 0.0
H1345 H 0.10347 0.74734 0.19087 0.0
H1346 H 0.10949 0.76442 0.17693 0.0
H1347 H 0.12283 0.76128 0.19014 0.0
H1348 H 0.14555 0.78858 0.20349 0.0
H1349 H 0.16004 0.80082 0.1725 0.0
H1350 H 0.27459 0.31675 0.29048 0.0
H1351 H 0.25832 0.31593 0.26236 0.0
H1352 H 0.28386 0.36354 0.25729 0.0
H1353 H 0.3002 0.36451 0.28526 0.0
H1354 H 0.2412 0.33075 0.26214 0.0
H1355 H 0.28119 0.34845 0.1971 0.0
H1356 H 0.28414 0.34155 0.22126 0.0
H1357 H 0.28775 0.3603 0.21959 0.0
C1358 C 0.27688 0.32704 0.2832 0.0
C1359 C 0.28875 0.3407 0.29011 0.0
C1360 C 0.26752 0.32654 0.26721 0.0
C1361 C 0.26995 0.33966 0.25767 0.0
C1362 C 0.28191 0.35327 0.26426 0.0
H1363 H 0.23015 0.36359 0.1588 0.0
H1364 H 0.24388 0.36337 0.18953 0.0
C1365 C 0.29123 0.3538 0.2803 0.0
C1366 C 0.25972 0.33922 0.24127 0.0
H1367 H 0.25845 0.34773 0.19054 0.0
C1368 C 0.24491 0.33437 0.24643 0.0
C1369 C 0.26462 0.34397 0.22084 0.0
C1370 C 0.28026 0.34874 0.21424 0.0
C1371 C 0.23495 0.33453 0.23179 0.0
C1372 C 0.2399 0.33943 0.2114 0.0
C1373 C 0.25468 0.34409 0.20622 0.0
C1374 C 0.23006 0.33983 0.19499 0.0
C1375 C 0.21935 0.32985 0.23845 0.0
C1376 C 0.21744 0.32675 0.18822 0.0
C1377 C 0.20948 0.3269 0.17075 0.0
C1378 C 0.21415 0.34008 0.15963 0.0
C1379 C 0.22632 0.35328 0.16709 0.0
C1380 C 0.23419 0.35315 0.18458 0.0
H1381 H 0.21851 0.33033 0.25558 0.0
H1382 H 0.21544 0.33697 0.23127 0.0
H1383 H 0.21184 0.31824 0.23336 0.0
H1384 H 0.2142 0.31629 0.19573 0.0
H1385 H 0.20029 0.31653 0.16514 0.0
H1386 H 0.27585 0.321 0.39813 0.0
H1387 H 0.26012 0.32173 0.4255 0.0
H1388 H 0.28694 0.36941 0.42842 0.0
H1389 H 0.3026 0.36883 0.40063 0.0
H1390 H 0.2663 0.33185 0.46513 0.0
H1391 H 0.24571 0.3637 0.42098 0.0
H1392 H 0.25571 0.35571 0.40885 0.0
H1393 H 0.26553 0.3728 0.42323 0.0
C1394 C 0.27849 0.33168 0.40462 0.0
C1395 C 0.29047 0.34488 0.39705 0.0
C1396 C 0.26943 0.33205 0.42026 0.0
C1397 C 0.27213 0.34563 0.4287 0.0
C1398 C 0.28439 0.35882 0.42174 0.0
H1399 H 0.23267 0.36446 0.53434 0.0
H1400 H 0.24761 0.36658 0.50383 0.0
C1401 C 0.29344 0.35847 0.40599 0.0
C1402 C 0.26216 0.34584 0.44495 0.0
H1403 H 0.23866 0.35889 0.45638 0.0
C1404 C 0.26024 0.33773 0.46316 0.0
C1405 C 0.25421 0.35349 0.44236 0.0
C1406 C 0.25525 0.36181 0.42273 0.0
C1407 C 0.25069 0.33716 0.47889 0.0
C1408 C 0.24279 0.34482 0.4763 0.0
C1409 C 0.24475 0.35302 0.45823 0.0
C1410 C 0.23259 0.34443 0.49251 0.0
C1411 C 0.24917 0.32847 0.49831 0.0
C1412 C 0.21894 0.33147 0.49569 0.0
C1413 C 0.21035 0.33026 0.51301 0.0
C1414 C 0.21535 0.34196 0.52746 0.0
C1415 C 0.22858 0.35527 0.52347 0.0
C1416 C 0.23711 0.3565 0.50609 0.0
H1417 H 0.25756 0.32486 0.49916 0.0
H1418 H 0.25031 0.33523 0.5123 0.0
H1419 H 0.23798 0.31845 0.49864 0.0
H1420 H 0.21529 0.32206 0.48532 0.0
H1421 H 0.20031 0.31982 0.51579 0.0
H1422 H 0.70086 0.95809 0.39616 0.0
H1423 H 0.69891 0.94098 0.42347 0.0
H1424 H 0.65176 0.92365 0.42652 0.0
H1425 H 0.65353 0.94067 0.39903 0.0
H1426 H 0.66948 0.93166 0.46683 0.0
H1427 H 0.67789 0.89415 0.41403 0.0
H1428 H 0.69061 0.91373 0.41141 0.0
H1429 H 0.67142 0.90635 0.40491 0.0
C1430 C 0.69007 0.95074 0.40272 0.0
C1431 C 0.67733 0.95073 0.39533 0.0
C1432 C 0.68898 0.94091 0.41823 0.0
C1433 C 0.67517 0.93094 0.42673 0.0
C1434 C 0.6625 0.93121 0.41998 0.0
H1435 H 0.65433 0.87097 0.53206 0.0
H1436 H 0.6517 0.88362 0.50174 0.0
C1437 C 0.66355 0.94096 0.40432 0.0
C1438 C 0.67404 0.92024 0.44268 0.0
H1439 H 0.67793 0.88989 0.45009 0.0
C1440 C 0.67117 0.92243 0.46321 0.0
C1441 C 0.67634 0.9083 0.4378 0.0
C1442 C 0.67914 0.90535 0.41583 0.0
C1443 C 0.67104 0.91325 0.47922 0.0
C1444 C 0.67341 0.9013 0.4744 0.0
C1445 C 0.67603 0.89899 0.45374 0.0
C1446 C 0.67404 0.89163 0.49078 0.0
C1447 C 0.669 0.91686 0.50125 0.0
C1448 C 0.68709 0.89105 0.49385 0.0
C1449 C 0.68851 0.88359 0.51092 0.0
C1450 C 0.6769 0.87663 0.52523 0.0
C1451 C 0.66348 0.87635 0.52133 0.0
C1452 C 0.66202 0.88368 0.50415 0.0
H1453 H 0.67112 0.9284 0.50279 0.0
H1454 H 0.65741 0.90924 0.50607 0.0
H1455 H 0.67651 0.91545 0.51206 0.0
H1456 H 0.69647 0.89703 0.48365 0.0
H1457 H 0.69903 0.88412 0.51364 0.0
H1458 H 0.08756 0.72369 0.40021 0.0
H1459 H 0.10401 0.73932 0.428 0.0
H1460 H 0.07836 0.76125 0.43393 0.0
H1461 H 0.062 0.74588 0.40583 0.0
H1462 H 0.10819 0.78091 0.4316 0.0
H1463 H 0.09736 0.73764 0.49 0.0
H1464 H 0.10283 0.73421 0.46516 0.0
H1465 H 0.08558 0.73411 0.46761 0.0
C1466 C 0.08526 0.73168 0.40761 0.0
C1467 C 0.07342 0.73349 0.40079 0.0
C1468 C 0.09467 0.74059 0.42356 0.0
C1469 C 0.09233 0.75135 0.43321 0.0
C1470 C 0.08036 0.75299 0.42672 0.0
H1471 H 0.13126 0.81485 0.53252 0.0
H1472 H 0.11781 0.80073 0.50164 0.0
C1473 C 0.07098 0.74415 0.4107 0.0
C1474 C 0.10274 0.76137 0.44939 0.0
H1475 H 0.11727 0.76185 0.49715 0.0
C1476 C 0.11015 0.77674 0.44595 0.0
C1477 C 0.10536 0.75591 0.46807 0.0
C1478 C 0.09727 0.73958 0.47307 0.0
C1479 C 0.12011 0.7868 0.46067 0.0
C1480 C 0.12263 0.78135 0.47937 0.0
C1481 C 0.11539 0.76598 0.4827 0.0
C1482 C 0.13198 0.79137 0.49631 0.0
C1483 C 0.12794 0.80318 0.45605 0.0
C1484 C 0.14451 0.79093 0.50341 0.0
C1485 C 0.15224 0.79904 0.52104 0.0
C1486 C 0.14742 0.80754 0.53199 0.0
C1487 C 0.13522 0.80841 0.52434 0.0
C1488 C 0.12758 0.8004 0.50667 0.0
H1489 H 0.12788 0.8053 0.43918 0.0
H1490 H 0.12219 0.80827 0.46417 0.0
H1491 H 0.1396 0.80876 0.46166 0.0
H1492 H 0.14801 0.78395 0.49568 0.0
H1493 H 0.16147 0.798 0.52675 0.0
H1494 H 0.31832 0.06193 0.72211 0.0
H1495 H 0.31509 0.07624 0.74981 0.0
H1496 H 0.35961 0.09128 0.77137 0.0
H1497 H 0.36295 0.07701 0.74391 0.0
H1498 H 0.33795 0.08167 0.80321 0.0
H1499 H 0.33523 0.12227 0.7501 0.0
H1500 H 0.32257 0.10299 0.74466 0.0
H1501 H 0.34214 0.11025 0.74196 0.0
C1502 C 0.32738 0.06817 0.73286 0.0
C1503 C 0.34093 0.06837 0.7307 0.0
C1504 C 0.32555 0.07643 0.74857 0.0
C1505 C 0.3372 0.08501 0.7624 0.0
C1506 C 0.35052 0.08481 0.76075 0.0
H1507 H 0.36014 0.15676 0.84712 0.0
H1508 H 0.35641 0.14132 0.81644 0.0
C1509 C 0.35239 0.07662 0.74504 0.0
C1510 C 0.33568 0.0943 0.7786 0.0
H1511 H 0.33288 0.12536 0.78592 0.0
C1512 C 0.33671 0.09114 0.79946 0.0
C1513 C 0.33423 0.10675 0.77359 0.0
C1514 C 0.33358 0.11091 0.75138 0.0
C1515 C 0.33647 0.10018 0.81549 0.0
C1516 C 0.33498 0.11261 0.81052 0.0
C1517 C 0.33385 0.11573 0.78966 0.0
C1518 C 0.3356 0.12296 0.82687 0.0
C1519 C 0.33835 0.09664 0.83761 0.0
C1520 C 0.32473 0.11807 0.84231 0.0
C1521 C 0.3268 0.12689 0.85979 0.0
C1522 C 0.33976 0.14078 0.86209 0.0
C1523 C 0.34999 0.14618 0.84573 0.0
C1524 C 0.34792 0.13733 0.82825 0.0
H1525 H 0.34227 0.08851 0.83846 0.0
H1526 H 0.34635 0.10687 0.84611 0.0
H1527 H 0.32753 0.09184 0.84565 0.0
H1528 H 0.31502 0.10711 0.84134 0.0
H1529 H 0.31867 0.12251 0.87208 0.0
H1530 H 0.96525 0.26624 0.72733 0.0
H1531 H 0.94997 0.24838 0.75383 0.0
H1532 H 0.92793 0.2734 0.76532 0.0
H1533 H 0.94299 0.29122 0.73876 0.0
H1534 H 0.94618 0.252 0.79601 0.0
H1535 H 0.89347 0.23167 0.75251 0.0
H1536 H 0.91138 0.24273 0.74064 0.0
H1537 H 0.90351 0.25143 0.75618 0.0
C1538 C 0.95724 0.26803 0.7356 0.0
C1539 C 0.95528 0.28012 0.73077 0.0
C1540 C 0.94849 0.25777 0.7507 0.0
C1541 C 0.93757 0.25937 0.76116 0.0
C1542 C 0.93603 0.27175 0.75703 0.0
H1543 H 0.87692 0.22042 0.8607 0.0
H1544 H 0.89064 0.23336 0.82962 0.0
C1545 C 0.94475 0.282 0.74195 0.0
C1546 C 0.9278 0.24814 0.77646 0.0
H1547 H 0.89144 0.22444 0.788 0.0
C1548 C 0.93422 0.24583 0.79417 0.0
C1549 C 0.9122 0.24004 0.77393 0.0
C1550 C 0.90472 0.24146 0.7547 0.0
C1551 C 0.92543 0.23615 0.8099 0.0
C1552 C 0.90981 0.22838 0.80765 0.0
C1553 C 0.90341 0.23038 0.78967 0.0
C1554 C 0.89995 0.21912 0.82457 0.0
C1555 C 0.93289 0.2348 0.82922 0.0
C1556 C 0.90011 0.20641 0.83146 0.0
C1557 C 0.89224 0.19897 0.84922 0.0
C1558 C 0.88412 0.20415 0.86032 0.0
C1559 C 0.88318 0.21626 0.85252 0.0
C1560 C 0.891 0.22365 0.83478 0.0
H1561 H 0.94474 0.24359 0.83019 0.0
H1562 H 0.92715 0.23543 0.84334 0.0
H1563 H 0.93235 0.22387 0.82914 0.0
H1564 H 0.90676 0.2026 0.82356 0.0
H1565 H 0.89322 0.18973 0.85495 0.0
H1566 H 0.75415 0.70268 0.72372 0.0
H1567 H 0.77107 0.70523 0.75193 0.0
H1568 H 0.74444 0.65852 0.7648 0.0
H1569 H 0.72745 0.65581 0.73664 0.0
H1570 H 0.75379 0.67871 0.80075 0.0
H1571 H 0.79999 0.68796 0.74835 0.0
H1572 H 0.79168 0.6993 0.74417 0.0
H1573 H 0.78103 0.6797 0.73944 0.0
C1574 C 0.75179 0.69296 0.73266 0.0
C1575 C 0.73947 0.67901 0.72784 0.0
C1576 C 0.76154 0.69444 0.74867 0.0
C1577 C 0.7591 0.68202 0.76019 0.0
C1578 C 0.74654 0.66821 0.75596 0.0
H1579 H 0.8094 0.6607 0.84436 0.0
H1580 H 0.79701 0.6637 0.81401 0.0
C1581 C 0.73684 0.6667 0.73988 0.0
C1582 C 0.76968 0.68333 0.77657 0.0
H1583 H 0.8045 0.68873 0.78439 0.0
C1584 C 0.76491 0.681 0.79723 0.0
C1585 C 0.78411 0.68619 0.77181 0.0
C1586 C 0.78956 0.68834 0.74975 0.0
C1587 C 0.77422 0.68142 0.81331 0.0
C1588 C 0.78868 0.68432 0.80858 0.0
C1589 C 0.79346 0.68666 0.78793 0.0
C1590 C 0.79857 0.6841 0.82492 0.0
C1591 C 0.76839 0.67836 0.83522 0.0
C1592 C 0.80416 0.69498 0.84056 0.0
C1593 C 0.81137 0.69338 0.85783 0.0
C1594 C 0.81306 0.68084 0.85976 0.0
C1595 C 0.80842 0.67055 0.84328 0.0
C1596 C 0.80125 0.6722 0.82598 0.0
H1597 H 0.75623 0.67388 0.83576 0.0
H1598 H 0.77095 0.67033 0.8428 0.0
H1599 H 0.77389 0.68883 0.84436 0.0
H1600 H 0.80234 0.70435 0.83985 0.0
H1601 H 0.81499 0.70158 0.87015 0.0
H1602 H 0.72644 0.64497 0.62436 0.0
H1603 H 0.74174 0.64318 0.59701 0.0
H1604 H 0.76263 0.69033 0.58709 0.0
H1605 H 0.74734 0.69225 0.61419 0.0
H1606 H 0.75395 0.67316 0.55035 0.0
H1607 H 0.78642 0.65752 0.60266 0.0
H1608 H 0.76661 0.64611 0.60414 0.0
H1609 H 0.77538 0.66518 0.61225 0.0
C1610 C 0.7342 0.65495 0.61626 0.0
C1611 C 0.73569 0.66877 0.62156 0.0
C1612 C 0.74304 0.65392 0.60076 0.0
C1613 C 0.75352 0.66667 0.59032 0.0
C1614 C 0.75469 0.68038 0.59509 0.0
H1615 H 0.81824 0.69191 0.49366 0.0
H1616 H 0.80367 0.69084 0.524 0.0
C1617 C 0.74591 0.68144 0.61058 0.0
C1618 C 0.76324 0.66583 0.57426 0.0
H1619 H 0.79155 0.65867 0.56679 0.0
C1620 C 0.76215 0.66997 0.55394 0.0
C1621 C 0.77389 0.6616 0.57899 0.0
C1622 C 0.77579 0.65745 0.60071 0.0
C1623 C 0.77146 0.67005 0.53821 0.0
C1624 C 0.78235 0.66617 0.54302 0.0
C1625 C 0.78325 0.66171 0.56322 0.0
C1626 C 0.79301 0.66701 0.52717 0.0
C1627 C 0.76949 0.67421 0.5165 0.0
C1628 C 0.79252 0.65407 0.51975 0.0
C1629 C 0.80097 0.65468 0.50252 0.0
C1630 C 0.80998 0.66825 0.49251 0.0
C1631 C 0.8113 0.68131 0.50102 0.0
C1632 C 0.80293 0.6807 0.51824 0.0
H1633 H 0.75843 0.67319 0.51429 0.0
H1634 H 0.77804 0.68591 0.51356 0.0
H1635 H 0.77082 0.66711 0.50479 0.0
H1636 H 0.78499 0.64341 0.52654 0.0
H1637 H 0.79966 0.64444 0.49616 0.0
H1638 H 0.37916 0.0946 0.63866 0.0
H1639 H 0.38248 0.11241 0.61164 0.0
H1640 H 0.34163 0.07981 0.58252 0.0
H1641 H 0.33794 0.06215 0.60993 0.0
H1642 H 0.38594 0.11325 0.5715 0.0
H1643 H 0.3341 0.11371 0.58705 0.0
H1644 H 0.341 0.10485 0.60419 0.0
H1645 H 0.33032 0.09527 0.58145 0.0
C1646 C 0.3709 0.09119 0.62645 0.0
C1647 C 0.35821 0.07698 0.62655 0.0
C1648 C 0.3728 0.10142 0.61104 0.0
C1649 C 0.3621 0.09763 0.59534 0.0
C1650 C 0.34977 0.08321 0.59487 0.0
H1651 H 0.37038 0.13219 0.47444 0.0
H1652 H 0.37219 0.12135 0.50684 0.0
C1653 C 0.34776 0.07305 0.61043 0.0
C1654 C 0.36393 0.10863 0.57925 0.0
H1655 H 0.34543 0.12335 0.55397 0.0
C1656 C 0.37714 0.1156 0.56786 0.0
C1657 C 0.35269 0.11212 0.57484 0.0
C1658 C 0.33881 0.10622 0.58771 0.0
C1659 C 0.37907 0.12525 0.55149 0.0
C1660 C 0.36728 0.12765 0.54587 0.0
C1661 C 0.35441 0.12137 0.55801 0.0
C1662 C 0.36746 0.1354 0.52644 0.0
C1663 C 0.39373 0.13273 0.54036 0.0
C1664 C 0.36394 0.14682 0.52647 0.0
C1665 C 0.36254 0.15286 0.50773 0.0
C1666 C 0.36451 0.14746 0.48869 0.0
C1667 C 0.36856 0.13644 0.48882 0.0
C1668 C 0.36984 0.13038 0.50741 0.0
H1669 H 0.40293 0.13457 0.55097 0.0
H1670 H 0.39343 0.12544 0.52753 0.0
H1671 H 0.3962 0.14357 0.53378 0.0
H1672 H 0.36195 0.15082 0.54096 0.0
H1673 H 0.35937 0.1613 0.50811 0.0
H1674 H 0.93426 0.2947 0.63039 0.0
H1675 H 0.91688 0.27996 0.60272 0.0
H1676 H 0.94379 0.26041 0.58817 0.0
H1677 H 0.96124 0.27509 0.61571 0.0
H1678 H 0.93402 0.27039 0.5531 0.0
H1679 H 0.88798 0.23417 0.60601 0.0
H1680 H 0.89611 0.25386 0.6098 0.0
H1681 H 0.90695 0.24516 0.61482 0.0
C1682 C 0.93656 0.28736 0.6212 0.0
C1683 C 0.94913 0.28604 0.62535 0.0
C1684 C 0.92655 0.27886 0.60551 0.0
C1685 C 0.92893 0.26893 0.59366 0.0
C1686 C 0.9417 0.26795 0.59727 0.0
H1687 H 0.87901 0.19635 0.51068 0.0
H1688 H 0.89025 0.2119 0.54144 0.0
C1689 C 0.95168 0.27637 0.613 0.0
C1690 C 0.91819 0.25952 0.57743 0.0
H1691 H 0.88326 0.23008 0.57001 0.0
C1692 C 0.92288 0.26165 0.55675 0.0
C1693 C 0.90373 0.24805 0.58234 0.0
C1694 C 0.89835 0.24502 0.60445 0.0
C1695 C 0.91353 0.25255 0.5408 0.0
C1696 C 0.89904 0.24111 0.54567 0.0
C1697 C 0.89431 0.23898 0.56635 0.0
C1698 C 0.88916 0.23071 0.52945 0.0
C1699 C 0.91938 0.25495 0.51891 0.0
C1700 C 0.88403 0.23585 0.51312 0.0
C1701 C 0.87752 0.22696 0.49559 0.0
C1702 C 0.87604 0.21279 0.49414 0.0
C1703 C 0.87987 0.20716 0.5114 0.0
C1704 C 0.88639 0.21607 0.52894 0.0
H1705 H 0.93159 0.26242 0.51839 0.0
H1706 H 0.91661 0.24421 0.51148 0.0
H1707 H 0.91413 0.26004 0.50961 0.0
H1708 H 0.8859 0.24707 0.51339 0.0
H1709 H 0.87456 0.23154 0.48258 0.0
H1710 H 0.37338 0.2941 0.61669 0.0
H1711 H 0.37348 0.27784 0.58926 0.0
H1712 H 0.32571 0.25429 0.58773 0.0
H1713 H 0.32545 0.27049 0.61508 0.0
H1714 H 0.35944 0.24585 0.59156 0.0
H1715 H 0.33803 0.26464 0.52625 0.0
H1716 H 0.34581 0.27556 0.54954 0.0
H1717 H 0.32729 0.25997 0.54962 0.0
C1718 C 0.36288 0.2856 0.61034 0.0
C1719 C 0.34939 0.28364 0.61808 0.0
C1720 C 0.36297 0.27627 0.59475 0.0
C1721 C 0.34961 0.26492 0.58644 0.0
C1722 C 0.33615 0.2631 0.59379 0.0
H1723 H 0.32748 0.20045 0.48786 0.0
H1724 H 0.32656 0.21352 0.51897 0.0
C1725 C 0.33603 0.27238 0.60944 0.0
C1726 C 0.34973 0.25468 0.57053 0.0
H1727 H 0.34029 0.24345 0.52028 0.0
C1728 C 0.35529 0.24532 0.57594 0.0
C1729 C 0.34426 0.25401 0.55024 0.0
C1730 C 0.33861 0.26415 0.54342 0.0
C1731 C 0.35532 0.23511 0.56163 0.0
C1732 C 0.34989 0.23447 0.54129 0.0
C1733 C 0.34435 0.24387 0.53592 0.0
C1734 C 0.35017 0.2245 0.52498 0.0
C1735 C 0.36087 0.22492 0.56855 0.0
C1736 C 0.36366 0.2259 0.51845 0.0
C1737 C 0.36417 0.21829 0.50081 0.0
C1738 C 0.35122 0.20935 0.48926 0.0
C1739 C 0.33761 0.20728 0.49652 0.0
C1740 C 0.33709 0.21478 0.51422 0.0
H1741 H 0.36038 0.22366 0.58569 0.0
H1742 H 0.35433 0.21376 0.56131 0.0
H1743 H 0.37261 0.22967 0.56383 0.0
H1744 H 0.37394 0.23356 0.52622 0.0
H1745 H 0.37483 0.22028 0.49534 0.0
H1746 H 0.72349 0.08046 0.62099 0.0
H1747 H 0.73846 0.09639 0.59254 0.0
H1748 H 0.76568 0.07597 0.59422 0.0
H1749 H 0.75064 0.05982 0.62217 0.0
H1750 H 0.76791 0.11693 0.59228 0.0
H1751 H 0.75618 0.07359 0.53324 0.0
H1752 H 0.74541 0.06982 0.5566 0.0
H1753 H 0.76292 0.07028 0.55709 0.0
C1754 C 0.73253 0.07921 0.61511 0.0
C1755 C 0.73579 0.06877 0.6238 0.0
C1756 C 0.74111 0.08837 0.5989 0.0
C1757 C 0.75307 0.08724 0.59104 0.0
C1758 C 0.7563 0.07681 0.59966 0.0
H1759 H 0.82468 0.13457 0.50507 0.0
H1760 H 0.80951 0.1215 0.53519 0.0
C1761 C 0.7477 0.0676 0.61574 0.0
C1762 C 0.76256 0.09731 0.57441 0.0
H1763 H 0.7769 0.09765 0.52671 0.0
C1764 C 0.76977 0.11272 0.57786 0.0
C1765 C 0.76494 0.09182 0.55555 0.0
C1766 C 0.75683 0.07548 0.55029 0.0
C1767 C 0.7796 0.12274 0.56318 0.0
C1768 C 0.78228 0.11718 0.54469 0.0
C1769 C 0.77493 0.10183 0.54108 0.0
C1770 C 0.7925 0.12705 0.5286 0.0
C1771 C 0.78731 0.13917 0.5676 0.0
C1772 C 0.78809 0.13477 0.51528 0.0
C1773 C 0.79671 0.14221 0.49807 0.0
C1774 C 0.8099 0.14209 0.49396 0.0
C1775 C 0.8147 0.13505 0.50801 0.0
C1776 C 0.806 0.12749 0.52512 0.0
H1777 H 0.78535 0.14163 0.58368 0.0
H1778 H 0.79943 0.1442 0.56516 0.0
H1779 H 0.7832 0.1445 0.55661 0.0
H1780 H 0.77764 0.13443 0.51765 0.0
H1781 H 0.79275 0.14753 0.48745 0.0
H1782 H 0.9377 0.64839 0.62726 0.0
H1783 H 0.92115 0.6464 0.59876 0.0
H1784 H 0.94874 0.69311 0.58661 0.0
H1785 H 0.96536 0.69521 0.61481 0.0
H1786 H 0.90535 0.66202 0.59488 0.0
H1787 H 0.94395 0.67385 0.52932 0.0
H1788 H 0.94714 0.66865 0.55468 0.0
H1789 H 0.95151 0.68741 0.54981 0.0
C1790 C 0.94036 0.6582 0.61835 0.0
C1791 C 0.95291 0.67195 0.6233 0.0
C1792 C 0.93085 0.65705 0.60214 0.0
C1793 C 0.9338 0.66958 0.59046 0.0
C1794 C 0.94639 0.68326 0.5952 0.0
H1795 H 0.8955 0.69294 0.48966 0.0
H1796 H 0.90891 0.69251 0.52063 0.0
C1797 C 0.95586 0.68443 0.61139 0.0
C1798 C 0.92351 0.66857 0.57373 0.0
H1799 H 0.92209 0.67492 0.52212 0.0
C1800 C 0.90893 0.6647 0.57891 0.0
C1801 C 0.92823 0.67205 0.55295 0.0
C1802 C 0.94352 0.67559 0.54626 0.0
C1803 C 0.8991 0.66475 0.56395 0.0
C1804 C 0.90395 0.66858 0.54327 0.0
C1805 C 0.91843 0.67213 0.53804 0.0
C1806 C 0.89436 0.66917 0.52665 0.0
C1807 C 0.88378 0.66116 0.5705 0.0
C1808 C 0.88146 0.65628 0.52012 0.0
C1809 C 0.87372 0.65652 0.50245 0.0
C1810 C 0.87888 0.66962 0.49094 0.0
C1811 C 0.89132 0.68267 0.4982 0.0
C1812 C 0.899 0.68244 0.51585 0.0
H1813 H 0.88296 0.66188 0.5876 0.0
H1814 H 0.88061 0.66879 0.56306 0.0
H1815 H 0.87566 0.64968 0.56552 0.0
H1816 H 0.87782 0.64586 0.52801 0.0
H1817 H 0.8643 0.64625 0.49704 0.0
H1818 H 0.94912 0.65991 0.7398 0.0
H1819 H 0.93397 0.66166 0.76733 0.0
H1820 H 0.94998 0.70744 0.75195 0.0
H1821 H 0.96522 0.70585 0.72432 0.0
H1822 H 0.943 0.6823 0.80225 0.0
H1823 H 0.90354 0.68658 0.74825 0.0
H1824 H 0.91565 0.6798 0.74006 0.0
H1825 H 0.92294 0.6993 0.74413 0.0
C1826 C 0.94954 0.67041 0.74234 0.0
C1827 C 0.95835 0.68272 0.72976 0.0
C1828 C 0.94085 0.67137 0.75808 0.0
C1829 C 0.94068 0.6846 0.76143 0.0
C1830 C 0.94979 0.69706 0.74938 0.0
H1831 H 0.90157 0.70266 0.869 0.0
H1832 H 0.91723 0.70555 0.83912 0.0
C1833 C 0.95858 0.69615 0.7337 0.0
C1834 C 0.93085 0.68524 0.77747 0.0
H1835 H 0.89967 0.68783 0.78413 0.0
C1836 C 0.93358 0.6836 0.79833 0.0
C1837 C 0.91849 0.68678 0.77222 0.0
C1838 C 0.91483 0.68811 0.74996 0.0
C1839 C 0.92428 0.68347 0.81412 0.0
C1840 C 0.91197 0.68511 0.80891 0.0
C1841 C 0.9092 0.68671 0.78805 0.0
C1842 C 0.90159 0.68455 0.82502 0.0
C1843 C 0.92746 0.68123 0.83626 0.0
C1844 C 0.88733 0.67212 0.8264 0.0
C1845 C 0.87835 0.67041 0.84348 0.0
C1846 C 0.88351 0.68115 0.85941 0.0
C1847 C 0.89736 0.69412 0.85711 0.0
C1848 C 0.90633 0.69578 0.84008 0.0
H1849 H 0.93575 0.6775 0.83725 0.0
H1850 H 0.93188 0.69186 0.84492 0.0
H1851 H 0.91714 0.67291 0.84405 0.0
H1852 H 0.88347 0.66334 0.81488 0.0
H1853 H 0.86782 0.66024 0.84486 0.0
H1854 H 0.32631 0.27853 0.73611 0.0
H1855 H 0.32581 0.26339 0.76546 0.0
H1856 H 0.3677 0.26845 0.74614 0.0
H1857 H 0.36861 0.28412 0.71751 0.0
H1858 H 0.32508 0.23768 0.76773 0.0
H1859 H 0.37691 0.28049 0.80527 0.0
H1860 H 0.36834 0.28473 0.78408 0.0
H1861 H 0.37994 0.27676 0.77914 0.0
C1862 C 0.33548 0.27654 0.7383 0.0
C1863 C 0.34761 0.28271 0.7247 0.0
C1864 C 0.33516 0.26783 0.755 0.0
C1865 C 0.34686 0.265 0.75828 0.0
C1866 C 0.35877 0.27085 0.74438 0.0
H1867 H 0.34013 0.19639 0.84509 0.0
H1868 H 0.34035 0.20933 0.81324 0.0
C1869 C 0.35925 0.27979 0.72795 0.0
C1870 C 0.34658 0.25588 0.77615 0.0
H1871 H 0.36673 0.25599 0.81803 0.0
C1872 C 0.33415 0.2417 0.77882 0.0
C1873 C 0.35836 0.26116 0.79072 0.0
C1874 C 0.37155 0.27667 0.7898 0.0
C1875 C 0.33313 0.23272 0.7957 0.0
C1876 C 0.3451 0.23787 0.80992 0.0
C1877 C 0.35759 0.25196 0.80705 0.0
C1878 C 0.34457 0.22953 0.82891 0.0
C1879 C 0.31905 0.21807 0.79848 0.0
C1880 C 0.34728 0.23667 0.84822 0.0
C1881 C 0.34765 0.22954 0.86623 0.0
C1882 C 0.34496 0.21486 0.86561 0.0
C1883 C 0.34218 0.20764 0.84622 0.0
C1884 C 0.3421 0.21496 0.82801 0.0
H1885 H 0.30966 0.21759 0.7896 0.0
H1886 H 0.32078 0.209 0.79271 0.0
H1887 H 0.31592 0.21601 0.81509 0.0
H1888 H 0.34933 0.24794 0.84938 0.0
H1889 H 0.35042 0.23579 0.88061 0.0
H1890 H 0.75287 0.05556 0.7295 0.0
H1891 H 0.76948 0.07067 0.75763 0.0
H1892 H 0.74461 0.09332 0.76455 0.0
H1893 H 0.7279 0.07826 0.73659 0.0
H1894 H 0.78706 0.10246 0.75861 0.0
H1895 H 0.74744 0.08042 0.82407 0.0
H1896 H 0.74409 0.07073 0.79959 0.0
H1897 H 0.74094 0.08614 0.80207 0.0
C1898 C 0.75079 0.06362 0.73718 0.0
C1899 C 0.739 0.06566 0.7308 0.0
C1900 C 0.76035 0.07229 0.75318 0.0
C1901 C 0.75821 0.08303 0.76325 0.0
C1902 C 0.74633 0.08494 0.75717 0.0
H1903 H 0.79982 0.14593 0.86321 0.0
H1904 H 0.78577 0.13247 0.8323 0.0
C1905 C 0.7368 0.07633 0.74114 0.0
C1906 C 0.76864 0.09261 0.77968 0.0
H1907 H 0.77047 0.10216 0.83072 0.0
C1908 C 0.78349 0.10236 0.77442 0.0
C1909 C 0.76393 0.09244 0.80025 0.0
C1910 C 0.74827 0.08179 0.80695 0.0
C1911 C 0.79367 0.11226 0.78912 0.0
C1912 C 0.7889 0.11219 0.80966 0.0
C1913 C 0.77409 0.1023 0.81492 0.0
C1914 C 0.79898 0.12216 0.82615 0.0
C1915 C 0.80931 0.12295 0.78241 0.0
C1916 C 0.81139 0.12122 0.83258 0.0
C1917 C 0.81952 0.12903 0.85016 0.0
C1918 C 0.81524 0.13774 0.86172 0.0
C1919 C 0.80333 0.13928 0.85459 0.0
C1920 C 0.79528 0.13157 0.83699 0.0
H1921 H 0.8101 0.12436 0.7653 0.0
H1922 H 0.8135 0.13398 0.78985 0.0
H1923 H 0.81664 0.11858 0.78716 0.0
H1924 H 0.81429 0.11383 0.82471 0.0
H1925 H 0.8285 0.12746 0.8555 0.0
H1926 H 0.07628 0.39614 0.02533 0.0
H1927 H 0.09435 0.38848 0.03315 0.0
H1928 H 0.06172 0.34304 0.01926 0.0
H1929 H 0.04335 0.35062 0.01184 0.0
H1930 H 0.0757 0.34527 0.05516 0.0
H1931 H 0.11804 0.37714 -0.00381 0.0
H1932 H 0.11372 0.38897 0.01125 0.0
H1933 H 0.09963 0.37468 0.99509 0.0
C1934 C 0.07295 0.38452 0.02371 0.0
C1935 C 0.05835 0.374 0.01791 0.0
C1936 C 0.08337 0.38017 0.02801 0.0
C1937 C 0.07954 0.36522 0.02635 0.0
C1938 C 0.06499 0.35466 0.02044 0.0
H1939 H 0.13172 0.32511 0.07067 0.0
H1940 H 0.11484 0.32926 0.04867 0.0
C1941 C 0.0545 0.35901 0.01622 0.0
C1942 C 0.09043 0.36059 0.0324 0.0
H1943 H 0.12641 0.36909 0.02588 0.0
C1944 C 0.08668 0.35024 0.04845 0.0
C1945 C 0.10478 0.36705 0.02364 0.0
C1946 C 0.10922 0.37745 0.00544 0.0
C1947 C 0.0971 0.34682 0.05672 0.0
C1948 C 0.11164 0.35384 0.04863 0.0
C1949 C 0.11526 0.36375 0.03207 0.0
C1950 C 0.12348 0.35201 0.05857 0.0
C1951 C 0.09272 0.33629 0.07478 0.0
C1952 C 0.13438 0.36365 0.07057 0.0
C1953 C 0.14401 0.36132 0.08306 0.0
C1954 C 0.14299 0.34733 0.08362 0.0
C1955 C 0.13285 0.33603 0.07034 0.0
C1956 C 0.12312 0.33834 0.05794 0.0
H1957 H 0.08163 0.33328 0.08095 0.0
H1958 H 0.09245 0.32595 0.06972 0.0
H1959 H 0.10101 0.34129 0.08752 0.0
H1960 H 0.13486 0.37428 0.07123 0.0
H1961 H 0.1517 0.37019 0.09319 0.0
H1962 H 0.6243 0.68146 0.03086 0.0
H1963 H 0.63163 0.70706 0.03969 0.0
H1964 H 0.67738 0.72036 0.02874 0.0
H1965 H 0.67016 0.69461 0.01993 0.0
H1966 H 0.65416 0.72357 0.07355 0.0
H1967 H 0.66829 0.7511 -0.00359 0.0
H1968 H 0.65554 0.73144 -0.0009 0.0
H1969 H 0.67501 0.73865 0.00291 0.0
C1970 C 0.63592 0.68981 0.03011 0.0
C1971 C 0.64665 0.68596 0.02474 0.0
C1972 C 0.64007 0.70445 0.03513 0.0
C1973 C 0.65501 0.7156 0.03469 0.0
C1974 C 0.66577 0.71192 0.02892 0.0
H1975 H 0.69795 0.8081 0.07462 0.0
H1976 H 0.69174 0.7852 0.05559 0.0
C1977 C 0.66163 0.69721 0.024 0.0
C1978 C 0.65929 0.73076 0.04192 0.0
H1979 H 0.67103 0.76612 0.02554 0.0
C1980 C 0.65786 0.73288 0.06308 0.0
C1981 C 0.66425 0.74288 0.02822 0.0
C1982 C 0.66585 0.74102 0.00534 0.0
C1983 C 0.66121 0.7468 0.07096 0.0
C1984 C 0.66568 0.75887 0.05718 0.0
C1985 C 0.66742 0.75683 0.03603 0.0
C1986 C 0.66871 0.77363 0.06478 0.0
C1987 C 0.66018 0.7485 0.09407 0.0
C1988 C 0.65763 0.77502 0.07516 0.0
C1989 C 0.66118 0.78802 0.08607 0.0
C1990 C 0.6758 0.79996 0.0864 0.0
C1991 C 0.68656 0.79911 0.07435 0.0
C1992 C 0.68304 0.78601 0.06361 0.0
H1993 H 0.66068 0.73958 0.10281 0.0
H1994 H 0.66926 0.75939 0.0997 0.0
H1995 H 0.64945 0.74781 0.09766 0.0
H1996 H 0.64642 0.76572 0.07588 0.0
H1997 H 0.65272 0.7884 0.09535 0.0
H1998 H 0.33658 0.94588 0.0179 0.0
H1999 H 0.31084 0.92828 0.02639 0.0
H2000 H 0.3015 0.96415 0.0306 0.0
H2001 H 0.32739 0.98195 0.0222 0.0
H2002 H 0.29231 0.94551 0.065 0.0
H2003 H 0.27247 0.91229 0.9926 0.0
H2004 H 0.28945 0.91409 0.00237 0.0
H2005 H 0.28907 0.9303 0.99368 0.0
C2006 C 0.32904 0.95005 0.02037 0.0
C2007 C 0.33407 0.96534 0.01938 0.0
C2008 C 0.31427 0.93993 0.02506 0.0
C2009 C 0.30416 0.94485 0.0288 0.0
C2010 C 0.30908 0.9601 0.02758 0.0
H2011 H 0.21666 0.89675 0.08676 0.0
H2012 H 0.23735 0.91498 0.06587 0.0
C2013 C 0.32388 0.97025 0.02278 0.0
C2014 C 0.28887 0.9342 0.03576 0.0
H2015 H 0.25767 0.90161 0.02289 0.0
C2016 C 0.28463 0.93604 0.05567 0.0
C2017 C 0.27892 0.92179 0.02361 0.0
C2018 C 0.28263 0.91954 0.00179 0.0
C2019 C 0.27099 0.92551 0.06415 0.0
C2020 C 0.26111 0.91293 0.05216 0.0
C2021 C 0.26521 0.91126 0.03203 0.0
C2022 C 0.24698 0.901 0.06093 0.0
C2023 C 0.2676 0.92761 0.08626 0.0
C2024 C 0.24491 0.88671 0.06374 0.0
C2025 C 0.23295 0.87619 0.07537 0.0
C2026 C 0.2229 0.87982 0.08442 0.0
C2027 C 0.2243 0.89369 0.08005 0.0
C2028 C 0.23617 0.90415 0.06828 0.0
H2029 H 0.27769 0.93588 0.09478 0.0
H2030 H 0.25956 0.93164 0.08624 0.0
H2031 H 0.26261 0.91697 0.09483 0.0
H2032 H 0.25306 0.88401 0.0581 0.0
H2033 H 0.23226 0.86566 0.07864 0.0
H2034 H 0.39975 0.07043 0.00142 0.0
H2035 H 0.39288 0.08902 0.99288 0.0
H2036 H 0.34702 0.05476 0.9878 0.0
H2037 H 0.3538 0.03601 -0.00331 0.0
H2038 H 0.38001 0.08969 0.95604 0.0
H2039 H 0.34441 0.08664 0.02193 0.0
H2040 H 0.3565 0.07888 0.0231 0.0
H2041 H 0.33909 0.06918 0.00954 0.0
C2042 C 0.38816 0.06682 -0.00123 0.0
C2043 C 0.37732 0.05171 -0.00032 0.0
C2044 C 0.38425 0.07749 0.99391 0.0
C2045 C 0.36943 0.07333 0.98989 0.0
C2046 C 0.3585 0.05828 0.99125 0.0
H2047 H 0.32846 0.11905 0.93288 0.0
H2048 H 0.33319 0.10181 0.95272 0.0
C2049 C 0.3624 0.04756 -0.0038 0.0
C2050 C 0.36575 0.08462 0.98249 0.0
H2051 H 0.34533 0.1013 0.99308 0.0
C2052 C 0.37252 0.0923 0.96424 0.0
C2053 C 0.35587 0.08793 0.99311 0.0
C2054 C 0.34862 0.08033 0.01311 0.0
C2055 C 0.36958 0.10307 0.95617 0.0
C2056 C 0.35981 0.10649 0.96686 0.0
C2057 C 0.35293 0.09876 0.98505 0.0
C2058 C 0.35627 0.11768 0.95867 0.0
C2059 C 0.37667 0.11041 0.93594 0.0
C2060 C 0.36747 0.13253 0.95642 0.0
C2061 C 0.36483 0.14239 0.945 0.0
C2062 C 0.35091 0.13757 0.93571 0.0
C2063 C 0.33935 0.12305 0.93964 0.0
C2064 C 0.34202 0.11319 0.95101 0.0
H2065 H 0.38112 0.10419 0.92742 0.0
H2066 H 0.3686 0.1114 0.92574 0.0
H2067 H 0.38602 0.12175 0.93916 0.0
H2068 H 0.3785 0.13627 0.96248 0.0
H2069 H 0.374 0.15345 0.94219 0.0
H2070 H 0.98619 0.32175 -0.00237 0.0
H2071 H 0.96761 0.29594 0.98913 0.0
H2072 H 0.93459 0.30886 0.98058 0.0
H2073 H 0.95292 0.33452 0.98902 0.0
H2074 H 0.93621 0.2761 0.00766 0.0
H2075 H 0.93826 0.28966 0.92393 0.0
H2076 H 0.9531 0.30097 0.9418 0.0
H2077 H 0.9364 0.30198 0.94171 0.0
C2078 C 0.97494 0.31906 0.9941 0.0
C2079 C 0.97107 0.33023 0.99385 0.0
C2080 C 0.96435 0.30432 0.98933 0.0
C2081 C 0.94978 0.30055 0.98414 0.0
C2082 C 0.9458 0.31158 0.98446 0.0
H2083 H 0.87467 0.2271 0.92547 0.0
H2084 H 0.89086 0.24973 0.94513 0.0
C2085 C 0.95632 0.32625 0.98927 0.0
C2086 C 0.93885 0.28534 0.97712 0.0
H2087 H 0.91956 0.26591 0.93424 0.0
C2088 C 0.93258 0.27379 0.99161 0.0
C2089 C 0.93418 0.28242 0.95619 0.0
C2090 C 0.94087 0.29435 0.9399 0.0
C2091 C 0.92141 0.25942 0.98575 0.0
C2092 C 0.9166 0.25656 0.96481 0.0
C2093 C 0.92311 0.26812 0.95033 0.0
C2094 C 0.90499 0.24172 0.95717 0.0
C2095 C 0.91458 0.24757 0.00209 0.0
C2096 C 0.9071 0.22942 0.95816 0.0
C2097 C 0.89766 0.21636 0.9472 0.0
C2098 C 0.88611 0.21552 0.93489 0.0
C2099 C 0.8834 0.22744 0.93506 0.0
C2100 C 0.89271 0.2404 0.94615 0.0
H2101 H 0.91643 0.25243 0.01794 0.0
H2102 H 0.90248 0.24038 -0.00056 0.0
H2103 H 0.91976 0.2405 0.00138 0.0
H2104 H 0.91664 0.23024 0.96617 0.0
H2105 H 0.90015 0.20742 0.94693 0.0
H2106 H 0.69819 0.66766 0.00305 0.0
H2107 H 0.72407 0.67605 0.99416 0.0
H2108 H 0.71396 0.63058 0.98984 0.0
H2109 H 0.68822 0.62212 -0.00109 0.0
H2110 H 0.74126 0.64962 0.01034 0.0
H2111 H 0.73627 0.67242 0.93473 0.0
H2112 H 0.7316 0.6794 0.95727 0.0
H2113 H 0.72033 0.66023 0.95003 0.0
C2114 C 0.70151 0.65946 0.00037 0.0
C2115 C 0.69109 0.64422 0.00152 0.0
C2116 C 0.71628 0.66427 0.99522 0.0
C2117 C 0.72089 0.65393 0.99105 0.0
C2118 C 0.71065 0.63875 0.99294 0.0
H2119 H 0.79327 0.64804 0.93902 0.0
H2120 H 0.77266 0.64483 0.96066 0.0
C2121 C 0.69591 0.63394 -0.00193 0.0
C2122 C 0.73615 0.65877 0.98376 0.0
H2123 H 0.75925 0.67456 0.94261 0.0
C2124 C 0.74526 0.65519 0.99561 0.0
C2125 C 0.74136 0.66601 0.96454 0.0
C2126 C 0.73188 0.66967 0.95076 0.0
C2127 C 0.7594 0.65856 0.98866 0.0
C2128 C 0.76443 0.66546 0.96917 0.0
C2129 C 0.75545 0.66935 0.9576 0.0
C2130 C 0.77849 0.66792 0.95966 0.0
C2131 C 0.7688 0.65476 0.00229 0.0
C2132 C 0.78884 0.682 0.95218 0.0
C2133 C 0.80058 0.68383 0.9397 0.0
C2134 C 0.80221 0.6716 0.93443 0.0
C2135 C 0.79246 0.65771 0.94311 0.0
C2136 C 0.78065 0.65587 0.9555 0.0
H2137 H 0.76575 0.65426 0.01889 0.0
H2138 H 0.76698 0.64367 -0.00223 0.0
H2139 H 0.78077 0.66296 0.0006 0.0
H2140 H 0.78741 0.69146 0.95514 0.0
H2141 H 0.80792 0.69465 0.9332 0.0
H2142 H 0.94784 0.62364 -0.0003 0.0
H2143 H 0.93151 0.63343 0.99137 0.0
H2144 H 0.96873 0.67801 0.99377 0.0
H2145 H 0.98529 0.66827 0.00188 0.0
H2146 H 0.92537 0.65389 0.01198 0.0
H2147 H 0.9517 0.67445 0.93503 0.0
H2148 H 0.95498 0.66189 0.95034 0.0
H2149 H 0.96388 0.68122 0.95716 0.0
C2150 C 0.95259 0.63555 -0.00141 0.0
C2151 C 0.96791 0.64517 0.00124 0.0
C2152 C 0.9432 0.64112 0.9939 0.0
C2153 C 0.94892 0.65642 0.99169 0.0
C2154 C 0.96413 0.66614 0.99509 0.0
H2155 H 0.90294 0.69724 0.93209 0.0
H2156 H 0.92057 0.69483 0.95464 0.0
C2157 C 0.97356 0.66056 -0.00021 0.0
C2158 C 0.93899 0.66197 0.98473 0.0
H2159 H 0.93141 0.67736 0.94318 0.0
C2160 C 0.92676 0.65918 -0.00297 0.0
C2161 C 0.94083 0.66887 0.96525 0.0
C2162 C 0.95347 0.67172 0.95105 0.0
C2163 C 0.91618 0.66286 0.99019 0.0
C2164 C 0.91773 0.66925 0.97037 0.0
C2165 C 0.93025 0.67252 0.95842 0.0
C2166 C 0.90601 0.67149 0.96075 0.0
C2167 C 0.9034 0.65979 0.0042 0.0
C2168 C 0.89175 0.65932 0.9573 0.0
C2169 C 0.88163 0.66071 0.94454 0.0
C2170 C 0.88566 0.67425 0.93478 0.0
C2171 C 0.89955 0.68667 0.9394 0.0
C2172 C 0.90964 0.68529 0.95224 0.0
H2173 H 0.9064 0.65987 0.02078 0.0
H2174 H 0.89977 0.66807 0.00201 0.0
H2175 H 0.89392 0.64862 0.00057 0.0
H2176 H 0.88879 0.64848 0.96327 0.0
H2177 H 0.87112 0.65089 0.941 0.0
H2178 H 0.35131 0.32397 0.00016 0.0
H2179 H 0.34179 0.29739 0.99424 0.0
H2180 H 0.38647 0.30508 0.99435 0.0
H2181 H 0.39604 0.33151 0.00024 0.0
H2182 H 0.34912 0.28574 0.95948 0.0
H2183 H 0.36457 0.26885 0.03248 0.0
H2184 H 0.36352 0.28561 0.0304 0.0
H2185 H 0.37954 0.28516 0.02109 0.0
C2186 C 0.35908 0.31995 -0.00081 0.0
C2187 C 0.37443 0.32986 0.00063 0.0
C2188 C 0.35363 0.30477 -0.00416 0.0
C2189 C 0.36341 0.29921 0.9942 0.0
C2190 C 0.3787 0.30905 -0.00398 0.0
H2191 H 0.36945 0.22665 0.94735 0.0
H2192 H 0.37145 0.24709 0.96856 0.0
C2193 C 0.38416 0.3242 -0.00079 0.0
C2194 C 0.35787 0.28344 0.98859 0.0
H2195 H 0.35909 0.25253 0.00322 0.0
C2196 C 0.35101 0.27835 0.96919 0.0
C2197 C 0.36047 0.27389 0.00125 0.0
C2198 C 0.36731 0.27859 0.02256 0.0
C2199 C 0.34741 0.26428 0.96159 0.0
C2200 C 0.35037 0.25482 0.97401 0.0
C2201 C 0.35675 0.25972 0.99376 0.0
C2202 C 0.34826 0.24052 0.96579 0.0
C2203 C 0.34132 0.26006 0.93978 0.0
C2204 C 0.33436 0.22944 0.95844 0.0
C2205 C 0.33321 0.21776 0.94623 0.0
C2206 C 0.3459 0.21685 0.94149 0.0
C2207 C 0.35946 0.22697 0.95091 0.0
C2208 C 0.36063 0.23874 0.96292 0.0
H2209 H 0.34278 0.26979 0.93081 0.0
H2210 H 0.34681 0.25486 0.93125 0.0
H2211 H 0.32928 0.25193 0.94045 0.0
H2212 H 0.32458 0.23038 0.96094 0.0
H2213 H 0.32262 0.21008 0.93919 0.0
H2214 H 0.70092 0.03599 0.00156 0.0
H2215 H 0.72665 0.05434 0.99296 0.0
H2216 H 0.71442 0.08809 0.98738 0.0
H2217 H 0.68884 0.06998 -0.00397 0.0
H2218 H 0.7295 0.08229 0.95115 0.0
H2219 H 0.75905 0.09297 0.02697 0.0
H2220 H 0.74587 0.07411 0.01968 0.0
H2221 H 0.73948 0.08683 0.02537 0.0
C2222 C 0.70375 0.04736 -0.00123 0.0
C2223 C 0.6928 0.0515 -0.00058 0.0
C2224 C 0.71846 0.05783 0.99396 0.0
C2225 C 0.72242 0.07258 0.9897 0.0
C2226 C 0.7116 0.07678 0.99076 0.0
H2227 H 0.79494 0.14774 0.92988 0.0
H2228 H 0.77267 0.1316 0.94987 0.0
C2229 C 0.69697 0.06639 -0.00432 0.0
C2230 C 0.73747 0.08336 0.98227 0.0
H2231 H 0.77341 0.10574 -0.00217 0.0
C2232 C 0.73911 0.08743 0.96134 0.0
C2233 C 0.74997 0.08988 0.99558 0.0
C2234 C 0.74863 0.08584 0.01821 0.0
C2235 C 0.75292 0.09787 0.95329 0.0
C2236 C 0.76539 0.10483 0.96672 0.0
C2237 C 0.76382 0.10055 0.98763 0.0
C2238 C 0.7801 0.11637 0.95896 0.0
C2239 C 0.75406 0.10113 0.93035 0.0
C2240 C 0.79214 0.11384 0.95887 0.0
C2241 C 0.80503 0.12328 0.94786 0.0
C2242 C 0.806 0.13533 0.93679 0.0
C2243 C 0.79447 0.13857 0.93841 0.0
C2244 C 0.7817 0.12926 0.94961 0.0
H2245 H 0.74472 0.09208 0.9215 0.0
H2246 H 0.75369 0.11148 0.9278 0.0
H2247 H 0.76462 0.10269 0.92395 0.0
H2248 H 0.79118 0.10401 0.96608 0.0
H2249 H 0.81369 0.12046 0.94657 0.0
H2250 H 0.62793 0.94561 0.01271 0.0
H2251 H 0.63569 0.92778 0.0221 0.0
H2252 H 0.68065 0.96348 0.03009 0.0
H2253 H 0.67297 0.98149 0.02073 0.0
H2254 H 0.65875 0.92211 0.00565 0.0
H2255 H 0.66802 0.94221 0.08752 0.0
H2256 H 0.65758 0.94656 0.06928 0.0
H2257 H 0.67744 0.95598 0.06788 0.0
C2258 C 0.63951 0.94969 0.01625 0.0
C2259 C 0.64981 0.965 0.01617 0.0
C2260 C 0.64393 0.93946 0.02153 0.0
C2261 C 0.65871 0.94431 0.02696 0.0
C2262 C 0.66916 0.95952 0.0261 0.0
H2263 H 0.69702 0.89051 0.06854 0.0
H2264 H 0.69186 0.90684 0.04695 0.0
C2265 C 0.66476 0.96979 0.02072 0.0
C2266 C 0.66281 0.9335 0.035 0.0
H2267 H 0.67209 0.92248 0.07968 0.0
C2268 C 0.66182 0.92226 0.02177 0.0
C2269 C 0.66664 0.93364 0.0561 0.0
C2270 C 0.66741 0.94515 0.07114 0.0
C2271 C 0.66449 0.9111 0.02921 0.0
C2272 C 0.66814 0.91118 0.05033 0.0
C2273 C 0.66931 0.92251 0.06345 0.0
C2274 C 0.67007 0.89926 0.05966 0.0
C2275 C 0.66301 0.89903 0.01472 0.0
C2276 C 0.65929 0.88924 0.07331 0.0
C2277 C 0.66215 0.87988 0.08548 0.0
C2278 C 0.67591 0.88045 0.08437 0.0
C2279 C 0.68626 0.88969 0.06953 0.0
C2280 C 0.68337 0.89908 0.05729 0.0
H2281 H 0.65928 0.90005 -0.00104 0.0
H2282 H 0.67387 0.89952 0.01342 0.0
H2283 H 0.65498 0.888 0.02111 0.0
H2284 H 0.64897 0.88924 0.07537 0.0
H2285 H 0.65397 0.87285 0.09676 0.0
H2286 H 0.07102 0.67991 0.01608 0.0
H2287 H 0.09 0.70526 0.02484 0.0
H2288 H 0.05615 0.71682 0.03524 0.0
H2289 H 0.03699 0.69142 0.02599 0.0
H2290 H 0.08134 0.73925 0.01489 0.0
H2291 H 0.09716 0.71946 0.08496 0.0
H2292 H 0.09812 0.71074 0.06142 0.0
H2293 H 0.0805 0.70779 0.0703 0.0
C2294 C 0.06758 0.68785 0.02008 0.0
C2295 C 0.05247 0.68359 0.02059 0.0
C2296 C 0.07846 0.70234 0.02514 0.0
C2297 C 0.07448 0.71285 0.03114 0.0
C2298 C 0.05946 0.70885 0.03078 0.0
H2299 H 0.1213 0.79935 0.08918 0.0
H2300 H 0.10373 0.77795 0.06841 0.0
C2301 C 0.04853 0.69434 0.02552 0.0
C2302 C 0.08599 0.72771 0.03877 0.0
H2303 H 0.11261 0.74468 0.07619 0.0
C2304 C 0.08817 0.74047 0.02831 0.0
C2305 C 0.09484 0.72928 0.05637 0.0
C2306 C 0.09247 0.71611 0.06905 0.0
C2307 C 0.09919 0.75474 0.03476 0.0
C2308 C 0.10813 0.75624 0.05218 0.0
C2309 C 0.10589 0.74349 0.06264 0.0
C2310 C 0.11945 0.77087 0.06071 0.0
C2311 C 0.10131 0.76807 0.02278 0.0
C2312 C 0.13423 0.77425 0.06284 0.0
C2313 C 0.14429 0.78645 0.07476 0.0
C2314 C 0.13968 0.79541 0.08496 0.0
C2315 C 0.12516 0.79263 0.08153 0.0
C2316 C 0.11512 0.78045 0.06956 0.0
H2317 H 0.09633 0.76495 0.007 0.0
H2318 H 0.09585 0.77334 0.03119 0.0
H2319 H 0.11326 0.7764 0.02135 0.0
H2320 H 0.13778 0.76695 0.05623 0.0
H2321 H 0.15531 0.78815 0.0773 0.0
H2322 H 0.32696 0.3514 0.01463 0.0
H2323 H 0.30094 0.34377 0.02131 0.0
H2324 H 0.31366 0.38899 0.03654 0.0
H2325 H 0.33946 0.39672 0.02944 0.0
H2326 H 0.28874 0.3454 0.05693 0.0
H2327 H 0.27919 0.37843 -0.00149 0.0
H2328 H 0.29512 0.37593 -0.00228 0.0
H2329 H 0.29514 0.38996 0.0142 0.0
C2330 C 0.32417 0.35974 0.01916 0.0
C2331 C 0.33529 0.37468 0.02142 0.0
C2332 C 0.3093 0.35536 0.02295 0.0
C2333 C 0.30526 0.36585 0.029 0.0
C2334 C 0.31638 0.38075 0.03127 0.0
H2335 H 0.23772 0.36993 0.09507 0.0
H2336 H 0.25877 0.37435 0.07333 0.0
C2337 C 0.33119 0.38514 0.02738 0.0
C2338 C 0.28968 0.36116 0.03457 0.0
H2339 H 0.2624 0.36995 0.02768 0.0
C2340 C 0.28285 0.35053 0.05021 0.0
C2341 C 0.28195 0.36783 0.02579 0.0
C2342 C 0.28818 0.37855 0.00797 0.0
C2343 C 0.26893 0.34703 0.0581 0.0
C2344 C 0.26157 0.35426 0.05003 0.0
C2345 C 0.26809 0.36445 0.03385 0.0
C2346 C 0.24785 0.35237 0.0597 0.0
C2347 C 0.2625 0.33618 0.07575 0.0
C2348 C 0.2345 0.33878 0.05844 0.0
C2349 C 0.22239 0.33628 0.07071 0.0
C2350 C 0.22355 0.34732 0.08449 0.0
C2351 C 0.23655 0.36126 0.08453 0.0
C2352 C 0.24857 0.36378 0.07217 0.0
H2353 H 0.27045 0.33295 0.08195 0.0
H2354 H 0.25916 0.34101 0.08859 0.0
H2355 H 0.25244 0.32599 0.07026 0.0
H2356 H 0.23371 0.32987 0.0488 0.0
H2357 H 0.21257 0.32539 0.07057 0.0
H2358 H 0.70811 0.68312 0.35557 0.0
H2359 H 0.72608 0.67534 0.36477 0.0
H2360 H 0.76176 0.72043 0.35873 0.0
H2361 H 0.74397 0.72831 0.34954 0.0
H2362 H 0.76727 0.69737 0.34104 0.0
H2363 H 0.74748 0.68738 0.42273 0.0
H2364 H 0.73366 0.6783 0.40279 0.0
H2365 H 0.74324 0.69815 0.40502 0.0
C2366 C 0.7198 0.69135 0.35598 0.0
C2367 C 0.72459 0.70636 0.35201 0.0
C2368 C 0.73004 0.68689 0.36127 0.0
C2369 C 0.74524 0.69734 0.36258 0.0
C2370 C 0.75009 0.7122 0.35779 0.0
H2371 H 0.81646 0.70049 0.43208 0.0
H2372 H 0.80011 0.70598 0.41132 0.0
C2373 C 0.73988 0.71668 0.35263 0.0
C2374 C 0.75603 0.69311 0.37035 0.0
H2375 H 0.76711 0.68329 0.41451 0.0
C2376 C 0.76717 0.69414 0.35704 0.0
C2377 C 0.75596 0.68907 0.39129 0.0
C2378 C 0.74453 0.68823 0.40641 0.0
C2379 C 0.77829 0.6913 0.36422 0.0
C2380 C 0.77826 0.68743 0.3852 0.0
C2381 C 0.76704 0.68624 0.3984 0.0
C2382 C 0.79013 0.68526 0.39428 0.0
C2383 C 0.79024 0.69283 0.34964 0.0
C2384 C 0.79032 0.67202 0.39096 0.0
C2385 C 0.79969 0.66885 0.40284 0.0
C2386 C 0.8089 0.67885 0.41825 0.0
C2387 C 0.80946 0.69257 0.42034 0.0
C2388 C 0.80011 0.69571 0.40854 0.0
H2389 H 0.78931 0.69694 0.33414 0.0
H2390 H 0.80132 0.70058 0.35635 0.0
H2391 H 0.78951 0.68189 0.34765 0.0
H2392 H 0.78259 0.66376 0.38014 0.0
H2393 H 0.79889 0.65811 0.40109 0.0
H2394 H 0.33799 0.02746 0.35735 0.0
H2395 H 0.3457 0.05326 0.3663 0.0
H2396 H 0.30111 0.04439 0.35573 0.0
H2397 H 0.29332 0.01867 0.34673 0.0
H2398 H 0.32476 0.07298 0.33998 0.0
H2399 H 0.33176 0.0622 0.4226 0.0
H2400 H 0.34161 0.05764 0.40383 0.0
H2401 H 0.32172 0.04741 0.40407 0.0
C2402 C 0.32987 0.03104 0.35668 0.0
C2403 C 0.315 0.02096 0.35153 0.0
C2404 C 0.33428 0.04578 0.36183 0.0
C2405 C 0.32393 0.05067 0.36186 0.0
C2406 C 0.30927 0.04083 0.3558 0.0
H2407 H 0.32499 0.12045 0.43392 0.0
H2408 H 0.3176 0.098 0.41335 0.0
C2409 C 0.30483 0.02611 0.35075 0.0
C2410 C 0.32802 0.06566 0.36972 0.0
H2411 H 0.33712 0.08632 0.41421 0.0
C2412 C 0.32756 0.07597 0.35617 0.0
C2413 C 0.33146 0.06942 0.39091 0.0
C2414 C 0.33158 0.05859 0.4063 0.0
C2415 C 0.33049 0.09 0.36331 0.0
C2416 C 0.33394 0.09372 0.38449 0.0
C2417 C 0.33445 0.08342 0.39796 0.0
C2418 C 0.3368 0.10809 0.39343 0.0
C2419 C 0.32955 0.10059 0.34835 0.0
C2420 C 0.34972 0.12138 0.38844 0.0
C2421 C 0.35391 0.13429 0.40013 0.0
C2422 C 0.34528 0.13399 0.41704 0.0
C2423 C 0.33179 0.12097 0.42091 0.0
C2424 C 0.32761 0.10814 0.40924 0.0
H2425 H 0.32415 0.09507 0.33349 0.0
H2426 H 0.32328 0.10557 0.35531 0.0
H2427 H 0.3409 0.10975 0.34493 0.0
H2428 H 0.35708 0.12154 0.37649 0.0
H2429 H 0.36447 0.14411 0.39705 0.0
H2430 H 1.00461 0.28103 0.33347 0.0
H2431 H 0.97935 0.26168 0.34142 0.0
H2432 H 0.97161 0.29408 0.37212 0.0
H2433 H 0.99667 0.3136 0.36329 0.0
H2434 H 0.96913 0.25223 0.37747 0.0
H2435 H 0.93298 0.27114 0.34295 0.0
H2436 H 0.95236 0.27952 0.33647 0.0
H2437 H 0.94667 0.28534 0.35936 0.0
C2438 C 0.99741 0.28409 0.34152 0.0
C2439 C 1.00262 0.29884 0.34778 0.0
C2440 C 0.98295 0.273 0.34606 0.0
C2441 C 0.97342 0.27636 0.3572 0.0
C2442 C 0.97851 0.2912 0.36299 0.0
H2443 H 0.9123 0.22558 0.44904 0.0
H2444 H 0.93282 0.24087 0.42628 0.0
C2445 C 0.99291 0.30236 0.35809 0.0
C2446 C 0.95894 0.26417 0.36486 0.0
H2447 H 0.92251 0.2539 0.37168 0.0
C2448 C 0.95891 0.2525 0.37579 0.0
C2449 C 0.94544 0.26423 0.36246 0.0
C2450 C 0.94433 0.27566 0.34946 0.0
C2451 C 0.94605 0.24145 0.38534 0.0
C2452 C 0.93292 0.24228 0.38453 0.0
C2453 C 0.93264 0.25338 0.37256 0.0
C2454 C 0.92005 0.23278 0.3979 0.0
C2455 C 0.94677 0.22915 0.39663 0.0
C2456 C 0.90585 0.22334 0.38956 0.0
C2457 C 0.89389 0.21461 0.40271 0.0
C2458 C 0.89596 0.21542 0.42436 0.0
C2459 C 0.91023 0.22486 0.43248 0.0
C2460 C 0.92205 0.2335 0.41945 0.0
H2461 H 0.95537 0.22707 0.38988 0.0
H2462 H 0.9498 0.23243 0.41311 0.0
H2463 H 0.93595 0.21866 0.39611 0.0
H2464 H 0.90406 0.22269 0.37294 0.0
H2465 H 0.88303 0.20746 0.39603 0.0
H2466 H 0.06545 0.40406 0.35487 0.0
H2467 H 0.05961 0.42357 0.34739 0.0
H2468 H 0.02067 0.39206 0.31327 0.0
H2469 H 0.02609 0.37236 0.3217 0.0
H2470 H 0.06016 0.43431 0.31214 0.0
H2471 H 1.00367 0.41387 0.34156 0.0
H2472 H 0.01441 0.40527 0.34855 0.0
H2473 H 1.00383 0.40023 0.32472 0.0
C2474 C 0.05545 0.40123 0.34617 0.0
C2475 C 0.04622 0.38669 0.33884 0.0
C2476 C 0.05211 0.4124 0.34191 0.0
C2477 C 0.03959 0.40934 0.32994 0.0
C2478 C 0.03014 0.39469 0.32307 0.0
H2479 H 0.0323 0.46095 0.23722 0.0
H2480 H 0.03722 0.44596 0.26116 0.0
C2481 C 0.03331 0.38343 0.32773 0.0
C2482 C 0.0375 0.42173 0.32249 0.0
H2483 H 1.01132 0.4317 0.31326 0.0
C2484 C 0.04953 0.43383 0.31286 0.0
C2485 C 0.02376 0.42143 0.32367 0.0
C2486 C 1.01076 0.40957 0.33542 0.0
C2487 C 0.04796 0.44503 0.30324 0.0
C2488 C 0.03387 0.44392 0.30262 0.0
C2489 C 0.02207 0.43243 0.31345 0.0
C2490 C 0.03085 0.4534 0.2886 0.0
C2491 C 0.06137 0.45776 0.29332 0.0
C2492 C 0.02528 0.4624 0.29598 0.0
C2493 C 0.02224 0.47096 0.28211 0.0
C2494 C 0.0245 0.47039 0.26071 0.0
C2495 C 0.03019 0.46146 0.25357 0.0
C2496 C 0.03319 0.453 0.26728 0.0
H2497 H 0.07174 0.45994 0.30132 0.0
H2498 H 0.06209 0.45487 0.27694 0.0
H2499 H 0.06071 0.46808 0.29357 0.0
H2500 H 0.02331 0.4628 0.31239 0.0
H2501 H 0.01786 0.47774 0.28802 0.0
H2502 H 0.6198 0.66787 0.32669 0.0
H2503 H 0.60162 0.6423 0.31743 0.0
H2504 H 0.63484 0.62955 0.325 0.0
H2505 H 0.65328 0.65527 0.3342 0.0
H2506 H 0.60899 0.62632 0.28144 0.0
H2507 H 0.59401 0.59833 0.35827 0.0
H2508 H 0.59996 0.61781 0.3557 0.0
H2509 H 0.6131 0.61164 0.35267 0.0
C2510 C 0.62326 0.65964 0.32662 0.0
C2511 C 0.63803 0.66364 0.33112 0.0
C2512 C 0.61283 0.64502 0.32135 0.0
C2513 C 0.61688 0.63406 0.32069 0.0
C2514 C 0.63149 0.63786 0.32565 0.0
H2515 H 0.56649 0.54151 0.28061 0.0
H2516 H 0.58337 0.56439 0.29957 0.0
C2517 C 0.642 0.65255 0.33082 0.0
C2518 C 0.60606 0.61899 0.31309 0.0
H2519 H 0.58163 0.58372 0.32883 0.0
C2520 C 0.60302 0.61699 0.29177 0.0
C2521 C 0.59844 0.60686 0.32662 0.0
C2522 C 0.60143 0.60863 0.34964 0.0
C2523 C 0.59247 0.60316 0.28356 0.0
C2524 C 0.5844 0.59109 0.29714 0.0
C2525 C 0.58768 0.59301 0.31848 0.0
C2526 C 0.57262 0.57645 0.28919 0.0
C2527 C 0.59027 0.60158 0.26033 0.0
C2528 C 0.56049 0.57537 0.27809 0.0
C2529 C 0.55094 0.56238 0.26722 0.0
C2530 C 0.55316 0.55014 0.2676 0.0
C2531 C 0.56445 0.55074 0.28027 0.0
C2532 C 0.57414 0.56383 0.29098 0.0
H2533 H 0.59999 0.61039 0.25198 0.0
H2534 H 0.58833 0.59061 0.25487 0.0
H2535 H 0.58046 0.60254 0.25606 0.0
H2536 H 0.55891 0.58486 0.27689 0.0
H2537 H 0.54232 0.56218 0.25754 0.0
H2538 H 0.36316 0.99732 0.32319 0.0
H2539 H 0.38796 1.00257 0.31298 0.0
H2540 H 0.38043 0.96238 0.34284 0.0
H2541 H 0.35543 0.95675 0.3522 0.0
H2542 H 0.41302 1.00653 0.33159 0.0
H2543 H 0.38805 0.95474 0.28453 0.0
H2544 H 0.37702 0.96163 0.29636 0.0
H2545 H 0.38367 0.95167 0.31158 0.0
C2546 C 0.36687 0.9897 0.32778 0.0
C2547 C 0.35727 0.9765 0.33818 0.0
C2548 C 0.38105 0.99272 0.32196 0.0
C2549 C 0.38594 0.98267 0.32665 0.0
C2550 C 0.37676 0.97006 0.33846 0.0
H2551 H 0.47635 1.00315 0.28817 0.0
H2552 H 0.45535 0.99791 0.31097 0.0
C2553 C 0.3625 0.9669 0.3439 0.0
C2554 C 0.40008 0.98483 0.31787 0.0
H2555 H 0.41402 0.96883 0.28544 0.0
C2556 C 0.41328 0.99826 0.3216 0.0
C2557 C 0.40039 0.97407 0.30468 0.0
C2558 C 0.38652 0.95979 0.29886 0.0
C2559 C 0.42667 1.00137 0.31207 0.0
C2560 C 0.42692 0.99062 0.29883 0.0
C2561 C 0.41384 0.97701 0.29573 0.0
C2562 C 0.43994 0.99386 0.28578 0.0
C2563 C 0.44025 0.01639 0.31545 0.0
C2564 C 0.43817 0.99292 0.26417 0.0
C2565 C 0.44994 0.99562 0.2513 0.0
C2566 C 0.46396 0.99956 0.25959 0.0
C2567 C 0.46574 1.00027 0.2813 0.0
C2568 C 0.4538 0.99743 0.29431 0.0
H2569 H 0.43754 0.02433 0.32303 0.0
H2570 H 0.44822 0.01518 0.32555 0.0
H2571 H 0.44581 0.02115 0.30047 0.0
H2572 H 0.42759 0.99007 0.25718 0.0
H2573 H 0.44796 0.99448 0.23471 0.0
H2574 H 0.65518 1.00483 0.33012 0.0
H2575 H 0.63752 0.01318 0.32191 0.0
H2576 H 0.60133 0.96827 0.32734 0.0
H2577 H 0.6188 0.95987 0.33564 0.0
H2578 H 0.61844 1.00334 0.28782 0.0
H2579 H 0.58625 0.99166 0.36036 0.0
H2580 H 0.60411 0.99276 0.35935 0.0
H2581 H 0.58767 0.97613 0.3511 0.0
C2582 C 0.64345 0.99678 0.32988 0.0
C2583 C 0.63841 0.98168 0.33351 0.0
C2584 C 0.63337 1.00157 0.3252 0.0
C2585 C 0.61808 0.99139 0.32433 0.0
C2586 C 0.61303 0.97638 0.32839 0.0
H2587 H 0.53871 0.98289 0.27337 0.0
H2588 H 0.55723 0.98119 0.29484 0.0
C2589 C 0.62307 0.97158 0.33297 0.0
C2590 C 0.60748 0.99609 0.31721 0.0
H2591 H 0.57515 0.99512 0.32976 0.0
C2592 C 0.60912 1.0018 0.29711 0.0
C2593 C 0.59527 0.99396 0.32932 0.0
C2594 C 0.59326 0.98842 0.35131 0.0
C2595 C 0.59852 1.00479 0.2884 0.0
C2596 C 0.58611 1.00235 0.30033 0.0
C2597 C 0.58468 0.99703 0.32066 0.0
C2598 C 0.57403 1.00425 0.29125 0.0
C2599 C 0.60035 0.00978 0.2661 0.0
C2600 C 0.577 0.01798 0.28319 0.0
C2601 C 0.56644 0.01895 0.27087 0.0
C2602 C 0.55266 1.00626 0.26668 0.0
C2603 C 0.54918 0.99288 0.27649 0.0
C2604 C 0.55979 0.99188 0.28865 0.0
H2605 H 0.60857 1.00785 0.25779 0.0
H2606 H 0.58963 1.00389 0.25758 0.0
H2607 H 0.6043 0.02185 0.26567 0.0
H2608 H 0.58778 0.02775 0.28542 0.0
H2609 H 0.56938 0.02942 0.26357 0.0
H2610 H 0.02576 0.65746 0.32443 0.0
H2611 H 0.02071 0.63252 0.31526 0.0
H2612 H 0.0617 0.64157 0.34467 0.0
H2613 H 0.06711 0.66673 0.35289 0.0
H2614 H 0.06059 0.63098 0.30882 0.0
H2615 H 1.00626 0.59429 0.34427 0.0
H2616 H 1.00514 0.60759 0.32796 0.0
H2617 H 0.01697 0.61379 0.35061 0.0
C2618 C 0.03355 0.65402 0.32925 0.0
C2619 C 0.04686 0.66406 0.33929 0.0
C2620 C 0.0306 0.63969 0.32417 0.0
C2621 C 0.0407 0.63498 0.32953 0.0
C2622 C 0.0537 0.64486 0.34036 0.0
H2623 H 0.01974 0.54455 0.28951 0.0
H2624 H 0.0258 0.56564 0.31305 0.0
C2625 C 0.05679 0.65926 0.34505 0.0
C2626 C 0.03861 0.62053 0.32179 0.0
H2627 H 1.0129 0.58383 0.31517 0.0
C2628 C 0.05024 0.62065 0.31064 0.0
C2629 C 0.02525 0.60688 0.32438 0.0
C2630 C 1.01278 0.6056 0.33767 0.0
C2631 C 0.04858 0.60779 0.30102 0.0
C2632 C 0.03476 0.59449 0.30197 0.0
C2633 C 0.02343 0.59408 0.31419 0.0
C2634 C 0.03142 0.58161 0.28838 0.0
C2635 C 0.06159 0.6087 0.2895 0.0
C2636 C 0.03249 0.58359 0.26685 0.0
C2637 C 0.02916 0.57174 0.25359 0.0
C2638 C 0.02438 0.55747 0.26144 0.0
C2639 C 0.0234 0.55542 0.28305 0.0
C2640 C 0.02678 0.56742 0.29645 0.0
H2641 H 0.07226 0.61741 0.29627 0.0
H2642 H 0.06141 0.59794 0.28975 0.0
H2643 H 0.06118 0.6117 0.27311 0.0
H2644 H 0.03577 0.59434 0.26022 0.0
H2645 H 0.03028 0.57378 0.23704 0.0
H2646 H 0.35713 0.40617 0.33895 0.0
H2647 H 0.38262 0.42472 0.33028 0.0
H2648 H 0.3939 0.39031 0.32443 0.0
H2649 H 0.36836 0.37156 0.33318 0.0
H2650 H 0.4144 0.4262 0.34969 0.0
H2651 H 0.39902 0.41756 0.26575 0.0
H2652 H 0.3857 0.41568 0.28508 0.0
H2653 H 0.39138 0.40207 0.28338 0.0
C2654 C 0.36505 0.40252 0.3361 0.0
C2655 C 0.36067 0.38735 0.33665 0.0
C2656 C 0.37963 0.41316 0.33124 0.0
C2657 C 0.3901 0.40887 0.32681 0.0
C2658 C 0.38596 0.39382 0.32796 0.0
H2659 H 0.48215 0.45869 0.2882 0.0
H2660 H 0.45989 0.44355 0.30882 0.0
C2661 C 0.37136 0.38314 0.3329 0.0
C2662 C 0.40492 0.41998 0.31908 0.0
H2663 H 0.42334 0.43571 0.2743 0.0
C2664 C 0.41644 0.4283 0.33323 0.0
C2665 C 0.40742 0.42272 0.29763 0.0
C2666 C 0.39529 0.4141 0.28194 0.0
C2667 C 0.43047 0.4394 0.32638 0.0
C2668 C 0.43299 0.44211 0.30486 0.0
C2669 C 0.4214 0.43371 0.2908 0.0
C2670 C 0.44752 0.4534 0.29622 0.0
C2671 C 0.44236 0.44832 0.34222 0.0
C2672 C 0.44819 0.46429 0.28275 0.0
C2673 C 0.46085 0.47286 0.27092 0.0
C2674 C 0.47313 0.47076 0.27241 0.0
C2675 C 0.47295 0.46074 0.28712 0.0
C2676 C 0.4602 0.45205 0.29886 0.0
H2677 H 0.4376 0.44773 0.35782 0.0
H2678 H 0.44999 0.4438 0.34343 0.0
H2679 H 0.44895 0.46013 0.33757 0.0
H2680 H 0.43856 0.46552 0.28043 0.0
H2681 H 0.46067 0.48038 0.25951 0.0
H2682 H 0.29457 0.28049 0.35272 0.0
H2683 H 0.30176 0.26218 0.36174 0.0
H2684 H 0.34779 0.29624 0.3614 0.0
H2685 H 0.34071 0.3148 0.3524 0.0
H2686 H 0.33694 0.26431 0.34008 0.0
H2687 H 0.32175 0.26572 0.42246 0.0
H2688 H 0.309 0.2648 0.4028 0.0
H2689 H 0.32691 0.28111 0.4051 0.0
C2690 C 0.30625 0.28412 0.35433 0.0
C2691 C 0.31707 0.29916 0.35197 0.0
C2692 C 0.31032 0.27361 0.35945 0.0
C2693 C 0.32528 0.27788 0.36227 0.0
C2694 C 0.33618 0.29275 0.35922 0.0
H2695 H 0.36756 0.22811 0.4037 0.0
H2696 H 0.36186 0.2448 0.38408 0.0
C2697 C 0.33211 0.30333 0.35414 0.0
C2698 C 0.32929 0.26692 0.36991 0.0
H2699 H 0.32801 0.24767 0.41328 0.0
C2700 C 0.33508 0.26068 0.35609 0.0
C2701 C 0.3268 0.26223 0.39076 0.0
C2702 C 0.32086 0.26882 0.40627 0.0
C2703 C 0.33812 0.24954 0.36254 0.0
C2704 C 0.3355 0.24475 0.38343 0.0
C2705 C 0.3299 0.25121 0.39723 0.0
C2706 C 0.33851 0.23317 0.39166 0.0
C2707 C 0.34369 0.24273 0.34685 0.0
C2708 C 0.32726 0.22088 0.40209 0.0
C2709 C 0.33054 0.21145 0.41342 0.0
C2710 C 0.34512 0.21405 0.41444 0.0
C2711 C 0.35618 0.22569 0.4028 0.0
C2712 C 0.35292 0.23524 0.39161 0.0
H2713 H 0.34112 0.24449 0.33072 0.0
H2714 H 0.35591 0.24802 0.34837 0.0
H2715 H 0.33879 0.23064 0.34946 0.0
H2716 H 0.31607 0.21903 0.40238 0.0
H2717 H 0.32186 0.20263 0.42241 0.0
H2718 H 0.74164 0.02168 0.35148 0.0
H2719 H 0.7586 0.04766 0.36026 0.0
H2720 H 0.72208 0.05609 0.36053 0.0
H2721 H 0.70491 0.02996 0.35196 0.0
H2722 H 0.76501 0.07473 0.34076 0.0
H2723 H 0.74025 0.06874 0.41901 0.0
H2724 H 0.73641 0.05295 0.403 0.0
H2725 H 0.72765 0.06367 0.39741 0.0
C2726 C 0.73718 0.02905 0.35326 0.0
C2727 C 0.72188 0.02369 0.35122 0.0
C2728 C 0.74693 0.04393 0.35821 0.0
C2729 C 0.74159 0.05377 0.36131 0.0
C2730 C 0.7264 0.04862 0.35852 0.0
H2731 H 0.78909 0.14025 0.42238 0.0
H2732 H 0.77103 0.12023 0.40002 0.0
C2733 C 0.71662 0.0337 0.35355 0.0
C2734 C 0.75191 0.06916 0.36854 0.0
H2735 H 0.76045 0.09195 0.41073 0.0
C2736 C 0.76396 0.07858 0.35598 0.0
C2737 C 0.75051 0.07415 0.38839 0.0
C2738 C 0.73809 0.06436 0.40286 0.0
C2739 C 0.77475 0.0928 0.36287 0.0
C2740 C 0.77361 0.0976 0.383 0.0
C2741 C 0.76131 0.08833 0.39526 0.0
C2742 C 0.78551 0.11157 0.39251 0.0
C2743 C 0.78727 0.10251 0.34853 0.0
C2744 C 0.79987 0.11376 0.39509 0.0
C2745 C 0.81025 0.12528 0.40772 0.0
C2746 C 0.80638 0.1347 0.41823 0.0
C2747 C 0.79236 0.13315 0.41446 0.0
C2748 C 0.78203 0.12169 0.40174 0.0
H2749 H 0.78395 0.09965 0.33201 0.0
H2750 H 0.79101 0.11443 0.35103 0.0
H2751 H 0.79678 0.10076 0.35152 0.0
H2752 H 0.80275 0.10594 0.38856 0.0
H2753 H 0.82084 0.12602 0.4106 0.0
H2754 H 1.00493 0.72823 0.36156 0.0
H2755 H 0.97902 0.7198 0.36925 0.0
H2756 H 0.96747 0.67488 0.35399 0.0
H2757 H 0.99359 0.6832 0.34698 0.0
H2758 H 0.95396 0.70658 0.34706 0.0
H2759 H 0.95028 0.66922 0.41097 0.0
H2760 H 0.96764 0.6821 0.39908 0.0
H2761 H 0.95518 0.66482 0.38637 0.0
C2762 C 0.9969 0.71654 0.35978 0.0
C2763 C 1.00137 0.70636 0.35385 0.0
C2764 C 0.98205 0.71174 0.36415 0.0
C2765 C 0.97128 0.69666 0.36259 0.0
C2766 C 0.9756 0.68652 0.35586 0.0
H2767 H 0.87867 0.65455 0.40349 0.0
H2768 H 0.90015 0.65959 0.3821 0.0
C2769 C 0.99053 0.6913 0.35173 0.0
C2770 C 0.95568 0.69169 0.36856 0.0
H2771 H 0.92865 0.67004 0.40307 0.0
C2772 C 0.9484 0.6985 0.35921 0.0
C2773 C 0.94838 0.68116 0.38446 0.0
C2774 C 0.95579 0.67399 0.39596 0.0
C2775 C 0.93421 0.69531 0.3656 0.0
C2776 C 0.92711 0.68504 0.38173 0.0
C2777 C 0.93411 0.67783 0.39057 0.0
C2778 C 0.91312 0.68267 0.3912 0.0
C2779 C 0.927 0.70309 0.35529 0.0
C2780 C 0.91316 0.69407 0.40295 0.0
C2781 C 0.90098 0.69119 0.41521 0.0
C2782 C 0.88849 0.67689 0.41582 0.0
C2783 C 0.88805 0.66573 0.40299 0.0
C2784 C 0.90034 0.66856 0.39091 0.0
H2785 H 0.93207 0.70775 0.34002 0.0
H2786 H 0.91493 0.69539 0.35305 0.0
H2787 H 0.92839 0.71238 0.36537 0.0
H2788 H 0.92298 0.70496 0.40366 0.0
H2789 H 0.90164 0.69991 0.42517 0.0
H2790 H 0.40956 0.06531 0.70084 0.0
H2791 H 0.42727 0.05696 0.70733 0.0
H2792 H 0.39456 0.01251 0.68892 0.0
H2793 H 0.37655 0.02075 0.68278 0.0
H2794 H 0.4081 0.01279 0.7247 0.0
H2795 H 0.45109 0.04728 0.66784 0.0
H2796 H 0.44666 0.05837 0.68441 0.0
H2797 H 0.43271 0.04494 0.66717 0.0
C2798 C 0.40612 0.05377 0.69798 0.0
C2799 C 0.39162 0.04371 0.69124 0.0
C2800 C 0.41634 0.04904 0.70152 0.0
C2801 C 0.4124 0.03418 0.69815 0.0
C2802 C 0.39792 0.02407 0.69141 0.0
H2803 H 0.46326 0.99125 0.73645 0.0
H2804 H 0.44676 0.99651 0.71534 0.0
C2805 C 0.38763 0.02879 0.68793 0.0
C2806 C 0.42311 0.02911 0.70316 0.0
H2807 H 0.45902 0.03757 0.69604 0.0
C2808 C 0.41913 0.01799 0.71811 0.0
C2809 C 0.43751 0.03586 0.69453 0.0
C2810 C 0.44219 0.04716 0.67744 0.0
C2811 C 0.42939 0.01405 0.72551 0.0
C2812 C 0.44399 0.02133 0.7176 0.0
C2813 C 0.44782 0.03203 0.70208 0.0
C2814 C 0.45569 0.01895 0.72684 0.0
C2815 C 0.42478 1.00269 0.74253 0.0
C2816 C 0.46668 0.03009 0.73937 0.0
C2817 C 0.47611 0.02713 0.75133 0.0
C2818 C 0.47479 0.01302 0.75082 0.0
C2819 C 0.46462 1.00227 0.73695 0.0
C2820 C 0.4551 1.00521 0.72507 0.0
H2821 H 0.41372 0.9996 0.74893 0.0
H2822 H 0.4243 0.99251 0.7363 0.0
H2823 H 0.43304 1.00697 0.75538 0.0
H2824 H 0.46735 0.04078 0.74091 0.0
H2825 H 0.48383 0.03559 0.76195 0.0
H2826 H 0.95681 0.34937 0.69712 0.0
H2827 H 0.96406 0.37498 0.70575 0.0
H2828 H 1.00972 0.38857 0.69342 0.0
H2829 H 1.00258 0.36281 0.68481 0.0
H2830 H 0.98711 0.39187 0.73895 0.0
H2831 H 0.99974 0.41883 0.66142 0.0
H2832 H 0.98715 0.39917 0.6645 0.0
H2833 H 1.0067 0.40654 0.66762 0.0
C2834 C 0.96839 0.35779 0.69602 0.0
C2835 C 0.97913 0.35402 0.69033 0.0
C2836 C 0.9725 0.37243 0.70093 0.0
C2837 C 0.98738 0.38366 0.70004 0.0
C2838 C 0.99814 0.38006 0.69394 0.0
H2839 H 0.03109 0.47627 0.73881 0.0
H2840 H 0.02428 0.45327 0.71969 0.0
C2841 C 0.99405 0.36534 0.68914 0.0
C2842 C 0.99166 0.39885 0.70717 0.0
H2843 H 1.00298 0.43405 0.69053 0.0
C2844 C 0.99058 0.4011 0.72838 0.0
C2845 C 0.99632 0.41085 0.69334 0.0
C2846 C 0.99753 0.40885 0.6704 0.0
C2847 C 0.99403 0.41506 0.7362 0.0
C2848 C 0.99823 0.42703 0.72232 0.0
C2849 C 0.99958 0.42484 0.7011 0.0
C2850 C 1.00148 0.44187 0.72991 0.0
C2851 C 0.99344 0.41691 0.75937 0.0
C2852 C 0.99069 0.4434 0.74089 0.0
C2853 C 0.99458 0.45646 0.75186 0.0
C2854 C 1.00924 0.46832 0.75164 0.0
C2855 C 0.01966 0.46735 0.73896 0.0
C2856 C 0.01581 0.45418 0.72817 0.0
H2857 H 0.99409 0.40804 0.76803 0.0
H2858 H 1.00262 0.42783 0.76471 0.0
H2859 H 0.98278 0.41627 0.76338 0.0
H2860 H 0.97948 0.43415 0.74206 0.0
H2861 H 0.9864 0.45694 0.76166 0.0
H2862 H 0.65944 0.64761 0.68311 0.0
H2863 H 0.63354 0.63012 0.69185 0.0
H2864 H 0.64347 0.59464 0.69513 0.0
H2865 H 0.66923 0.61191 0.68618 0.0
H2866 H 0.61616 0.58654 0.67486 0.0
H2867 H 0.62144 0.61408 0.75109 0.0
H2868 H 0.62609 0.62582 0.72875 0.0
H2869 H 0.63733 0.61785 0.73562 0.0
C2870 C 0.65608 0.63606 0.68552 0.0
C2871 C 0.66644 0.63119 0.68413 0.0
C2872 C 0.64129 0.62609 0.69059 0.0
C2873 C 0.63663 0.61112 0.69443 0.0
C2874 C 0.64683 0.60614 0.69228 0.0
H2875 H 0.56473 0.53271 0.74604 0.0
H2876 H 0.58512 0.55022 0.72425 0.0
C2877 C 0.66158 0.61607 0.68723 0.0
C2878 C 0.62138 0.6007 0.70171 0.0
H2879 H 0.59844 0.59324 0.74314 0.0
C2880 C 0.61221 0.58805 0.68971 0.0
C2881 C 0.61625 0.60268 0.72109 0.0
C2882 C 0.62579 0.61576 0.73502 0.0
C2883 C 0.5981 0.57726 0.69666 0.0
C2884 C 0.59315 0.57905 0.71631 0.0
C2885 C 0.60218 0.5919 0.72803 0.0
C2886 C 0.57918 0.56739 0.72585 0.0
C2887 C 0.58864 0.56408 0.68289 0.0
C2888 C 0.56884 0.57103 0.73371 0.0
C2889 C 0.55722 0.56105 0.74627 0.0
C2890 C 0.55572 0.54723 0.75125 0.0
C2891 C 0.56544 0.54317 0.74218 0.0
C2892 C 0.57713 0.5532 0.72971 0.0
H2893 H 0.59161 0.56672 0.66629 0.0
H2894 H 0.59051 0.55482 0.68709 0.0
H2895 H 0.57668 0.56028 0.68477 0.0
H2896 H 0.5702 0.58191 0.73098 0.0
H2897 H 0.54989 0.56447 0.75306 0.0
H2898 H 0.68712 0.70169 0.65766 0.0
H2899 H 0.68062 0.72061 0.64837 0.0
H2900 H 0.72598 0.75489 0.65844 0.0
H2901 H 0.73261 0.73616 0.66728 0.0
H2902 H 0.68352 0.74612 0.66898 0.0
H2903 H 0.71817 0.76114 0.59825 0.0
H2904 H 0.71335 0.74463 0.61292 0.0
H2905 H 0.72814 0.76236 0.62161 0.0
C2906 C 0.69567 0.71327 0.65803 0.0
C2907 C 0.71042 0.71741 0.66292 0.0
C2908 C 0.69194 0.72406 0.65276 0.0
C2909 C 0.70288 0.73913 0.65233 0.0
C2910 C 0.71743 0.74331 0.65822 0.0
H2911 H 0.708 0.81947 0.60636 0.0
H2912 H 0.71185 0.80213 0.62727 0.0
C2913 C 0.72119 0.73257 0.66332 0.0
C2914 C 0.69936 0.75049 0.64477 0.0
H2915 H 0.70854 0.77671 0.60729 0.0
C2916 C 0.68895 0.7528 0.65547 0.0
C2917 C 0.7064 0.75914 0.62706 0.0
C2918 C 0.71703 0.75663 0.61416 0.0
C2919 C 0.68564 0.76377 0.64916 0.0
C2920 C 0.69286 0.77253 0.63164 0.0
C2921 C 0.70318 0.77014 0.62092 0.0
C2922 C 0.68949 0.7838 0.62329 0.0
C2923 C 0.67464 0.76606 0.66143 0.0
C2924 C 0.67547 0.77944 0.61479 0.0
C2925 C 0.67322 0.78937 0.60292 0.0
C2926 C 0.68497 0.80382 0.59923 0.0
C2927 C 0.69867 0.8085 0.6091 0.0
C2928 C 0.70092 0.79855 0.62093 0.0
H2929 H 0.67302 0.76127 0.67723 0.0
H2930 H 0.67829 0.77804 0.66283 0.0
H2931 H 0.66378 0.76049 0.65326 0.0
H2932 H 0.66655 0.76807 0.61612 0.0
H2933 H 0.66253 0.78546 0.59553 0.0
H2934 H 0.31704 0.99341 0.68683 0.0
H2935 H 0.29884 0.96717 0.68076 0.0
H2936 H 0.27683 0.97977 0.63508 0.0
H2937 H 0.29431 1.00586 0.64218 0.0
H2938 H 0.25704 0.9585 0.65628 0.0
H2939 H 0.29844 0.94212 0.63475 0.0
H2940 H 0.30057 0.94905 0.66076 0.0
H2941 H 0.30355 0.96117 0.63918 0.0
C2942 C 0.30829 0.99052 0.67551 0.0
C2943 C 0.30713 1.00166 0.66489 0.0
C2944 C 0.29795 0.9755 0.67192 0.0
C2945 C 0.28658 0.97136 0.65709 0.0
C2946 C 0.28543 0.98257 0.64662 0.0
H2947 H 0.24408 0.89812 0.57788 0.0
H2948 H 0.26014 0.91923 0.59945 0.0
C2949 C 0.29548 0.99752 0.65062 0.0
C2950 C 0.27586 0.95547 0.65208 0.0
H2951 H 0.27348 0.92342 0.63412 0.0
C2952 C 0.26064 0.95081 0.65149 0.0
C2953 C 0.28049 0.94535 0.64592 0.0
C2954 C 0.29664 0.94968 0.64498 0.0
C2955 C 0.2501 0.93679 0.64367 0.0
C2956 C 0.25478 0.92677 0.63715 0.0
C2957 C 0.26985 0.93106 0.63912 0.0
C2958 C 0.24489 0.91295 0.62519 0.0
C2959 C 0.23427 0.93331 0.64121 0.0
C2960 C 0.23095 0.90197 0.63251 0.0
C2961 C 0.22138 0.88993 0.61972 0.0
C2962 C 0.22572 0.88862 0.59954 0.0
C2963 C 0.2401 0.89905 0.59301 0.0
C2964 C 0.24944 0.91109 0.60551 0.0
H2965 H 0.23322 0.94338 0.64283 0.0
H2966 H 0.22973 0.9282 0.62581 0.0
H2967 H 0.22736 0.92537 0.65338 0.0
H2968 H 0.22733 0.90283 0.64791 0.0
H2969 H 0.21047 0.88198 0.62534 0.0
H2970 H 0.03109 0.33246 0.66234 0.0
H2971 H 0.05632 0.33848 0.65298 0.0
H2972 H 0.04395 0.29256 0.66022 0.0
H2973 H 0.01878 0.28642 0.66908 0.0
H2974 H 0.0783 0.33471 0.67294 0.0
H2975 H 0.05869 0.30108 0.60072 0.0
H2976 H 0.04708 0.30588 0.61569 0.0
H2977 H 0.0497 0.29079 0.6236 0.0
C2978 C 0.03379 0.32367 0.66205 0.0
C2979 C 0.02287 0.30893 0.66618 0.0
C2980 C 0.04821 0.32713 0.65673 0.0
C2981 C 0.05195 0.31591 0.65549 0.0
C2982 C 0.04124 0.30133 0.66059 0.0
H2983 H 0.12697 0.31027 0.60928 0.0
H2984 H 0.10561 0.30628 0.62987 0.0
C2985 C 0.02685 0.29786 0.66572 0.0
C2986 C 0.06679 0.31924 0.64807 0.0
H2987 H 0.08375 0.31015 0.61019 0.0
C2988 C 0.07952 0.32938 0.6592 0.0
C2989 C 0.06838 0.31234 0.63007 0.0
C2990 C 0.05526 0.30203 0.6167 0.0
C2991 C 0.09376 0.33254 0.65301 0.0
C2992 C 0.09528 0.32547 0.63517 0.0
C2993 C 0.08255 0.3154 0.62404 0.0
C2994 C 0.10991 0.32879 0.6269 0.0
C2995 C 0.10704 0.34326 0.66573 0.0
C2996 C 0.11974 0.34291 0.61905 0.0
C2997 C 0.13201 0.34524 0.60736 0.0
C2998 C 0.13463 0.33346 0.60321 0.0
C2999 C 0.1254 0.31962 0.61241 0.0
C3000 C 0.1131 0.31729 0.62405 0.0
H3001 H 0.10384 0.34471 0.68161 0.0
H3002 H 0.11524 0.33944 0.66691 0.0
H3003 H 0.1125 0.35425 0.65806 0.0
H3004 H 0.1174 0.3519 0.62076 0.0
H3005 H 0.13893 0.35602 0.60046 0.0
H3006 H 0.28718 0.29128 0.66608 0.0
H3007 H 0.26983 0.29992 0.65822 0.0
H3008 H 0.30605 0.34501 0.65602 0.0
H3009 H 0.32361 0.33642 0.66362 0.0
H3010 H 0.26354 0.32046 0.67789 0.0
H3011 H 0.28646 0.33861 0.59869 0.0
H3012 H 0.29097 0.32711 0.61443 0.0
H3013 H 0.29954 0.34665 0.61968 0.0
C3014 C 0.29149 0.30306 0.66406 0.0
C3015 C 0.30682 0.31314 0.66527 0.0
C3016 C 0.28153 0.30798 0.65963 0.0
C3017 C 0.28665 0.32308 0.65625 0.0
C3018 C 0.30188 0.33327 0.65823 0.0
H3019 H 0.2371 0.36074 0.59861 0.0
H3020 H 0.2557 0.35914 0.62002 0.0
C3021 C 0.31189 0.32835 0.66265 0.0
C3022 C 0.27604 0.32788 0.6496 0.0
H3023 H 0.26636 0.34154 0.60808 0.0
C3024 C 0.26422 0.32521 0.6627 0.0
C3025 C 0.27694 0.33407 0.62978 0.0
C3026 C 0.28907 0.3367 0.61471 0.0
C3027 C 0.25315 0.32837 0.6564 0.0
C3028 C 0.25381 0.33412 0.63633 0.0
C3029 C 0.26589 0.33721 0.62351 0.0
C3030 C 0.24162 0.33594 0.62746 0.0
C3031 C 0.24087 0.32549 0.67127 0.0
C3032 C 0.22732 0.32361 0.62517 0.0
C3033 C 0.21664 0.32454 0.61307 0.0
C3034 C 0.22014 0.33778 0.60281 0.0
C3035 C 0.23411 0.3504 0.60632 0.0
C3036 C 0.24475 0.34948 0.6185 0.0
H3037 H 0.24449 0.32602 0.68764 0.0
H3038 H 0.237 0.3336 0.66918 0.0
H3039 H 0.23136 0.31419 0.66841 0.0
H3040 H 0.22471 0.31296 0.63151 0.0
H3041 H 0.20608 0.31457 0.61036 0.0
H3042 H 0.72945 0.99829 0.66764 0.0
H3043 H 0.72077 0.97241 0.65872 0.0
H3044 H 0.6756 0.96332 0.65849 0.0
H3045 H 0.68422 0.98936 0.6672 0.0
H3046 H 0.70062 0.94524 0.67805 0.0
H3047 H 0.68103 0.9509 0.6 0.0
H3048 H 0.69285 0.96675 0.61604 0.0
H3049 H 0.67344 0.95573 0.62166 0.0
C3050 C 0.71765 0.9908 0.66583 0.0
C3051 C 0.70753 0.99594 0.66793 0.0
C3052 C 0.71271 0.97597 0.6608 0.0
C3053 C 0.69757 0.96597 0.65767 0.0
C3054 C 0.68737 0.97091 0.66052 0.0
H3055 H 0.65919 0.87942 0.59694 0.0
H3056 H 0.66113 0.89945 0.61916 0.0
C3057 C 0.6923 0.98578 0.66557 0.0
C3058 C 0.6927 0.95065 0.65039 0.0
H3059 H 0.67845 0.92782 0.60819 0.0
C3060 C 0.69563 0.94135 0.66286 0.0
C3061 C 0.68621 0.94559 0.63056 0.0
C3062 C 0.68327 0.95526 0.61616 0.0
C3063 C 0.69241 0.92721 0.65591 0.0
C3064 C 0.68635 0.92236 0.63582 0.0
C3065 C 0.68302 0.93149 0.62364 0.0
C3066 C 0.6844 0.90845 0.62627 0.0
C3067 C 0.69555 0.91763 0.67015 0.0
C3068 C 0.69668 0.90647 0.62349 0.0
C3069 C 0.69555 0.89495 0.61093 0.0
C3070 C 0.68217 0.88531 0.60069 0.0
C3071 C 0.66964 0.88669 0.60463 0.0
C3072 C 0.67075 0.89816 0.61728 0.0
H3073 H 0.69524 0.9205 0.68669 0.0
H3074 H 0.68745 0.90568 0.66772 0.0
H3075 H 0.70682 0.91952 0.66697 0.0
H3076 H 0.70741 0.91443 0.62984 0.0
H3077 H 0.70546 0.89434 0.6079 0.0
H3078 H 0.02198 0.73865 0.6569 0.0
H3079 H 0.04779 0.75685 0.64987 0.0
H3080 H 0.06106 0.72555 0.66925 0.0
H3081 H 0.03507 0.70702 0.67569 0.0
H3082 H 0.07227 0.77018 0.67383 0.0
H3083 H 0.07959 0.73655 0.61279 0.0
H3084 H 0.06169 0.73151 0.62334 0.0
H3085 H 0.07429 0.72773 0.63761 0.0
C3086 C 0.03037 0.73559 0.65968 0.0
C3087 C 0.02643 0.72131 0.66668 0.0
C3088 C 0.04516 0.74605 0.65571 0.0
C3089 C 0.05639 0.74253 0.6587 0.0
C3090 C 0.05257 0.72843 0.66632 0.0
H3091 H 0.14915 0.79561 0.6199 0.0
H3092 H 0.12785 0.77897 0.64135 0.0
C3093 C 0.03771 0.71786 0.67011 0.0
C3094 C 0.07197 0.75362 0.65333 0.0
H3095 H 0.10025 0.75981 0.62068 0.0
C3096 C 0.07842 0.76786 0.66232 0.0
C3097 C 0.08004 0.75063 0.63831 0.0
C3098 C 0.07354 0.73584 0.62729 0.0
C3099 C 0.09253 0.77923 0.65636 0.0
C3100 C 0.1004 0.77632 0.641 0.0
C3101 C 0.09422 0.76197 0.63259 0.0
C3102 C 0.11428 0.78825 0.63175 0.0
C3103 C 0.09885 0.79434 0.66632 0.0
C3104 C 0.11387 0.79928 0.61977 0.0
C3105 C 0.12597 0.80872 0.6075 0.0
C3106 C 0.13873 0.80737 0.60709 0.0
C3107 C 0.13955 0.79707 0.62024 0.0
C3108 C 0.12736 0.78748 0.63235 0.0
H3109 H 0.09354 0.79377 0.68147 0.0
H3110 H 0.111 0.79949 0.66873 0.0
H3111 H 0.09685 0.80165 0.65595 0.0
H3112 H 0.10383 0.79992 0.61878 0.0
H3113 H 0.12501 0.81645 0.59729 0.0
H3114 H 1.00434 0.64691 0.66741 0.0
H3115 H 1.01274 0.62894 0.67278 0.0
H3116 H 0.97509 0.60327 0.71225 0.0
H3117 H 0.96624 0.62055 0.70577 0.0
H3118 H 0.02209 0.62173 0.70363 0.0
H3119 H 0.97234 0.57015 0.67996 0.0
H3120 H 0.97419 0.58804 0.67504 0.0
H3121 H 0.96697 0.57878 0.69946 0.0
C3122 C 0.99779 0.6373 0.67699 0.0
C3123 C 0.98456 0.63505 0.686 0.0
C3124 C 1.00258 0.62701 0.68005 0.0
C3125 C 0.99436 0.61441 0.69248 0.0
C3126 C 0.98133 0.61243 0.70184 0.0
H3127 H 0.02542 0.57471 0.77508 0.0
H3128 H 0.02108 0.59066 0.75251 0.0
C3129 C 0.97635 0.62246 0.69833 0.0
C3130 C 0.99989 0.60396 0.69712 0.0
H3131 H 0.98793 0.56736 0.70612 0.0
C3132 C 0.01466 0.60982 0.7037 0.0
C3133 C 0.99053 0.58833 0.69655 0.0
C3134 C 0.9752 0.581 0.6871 0.0
C3135 C 0.01989 0.60064 0.71129 0.0
C3136 C 1.00992 0.58521 0.71338 0.0
C3137 C 0.99554 0.57921 0.70513 0.0
C3138 C 0.01355 0.57555 0.72625 0.0
C3139 C 0.03605 0.60768 0.71723 0.0
C3140 C 1.01038 0.56137 0.71943 0.0
C3141 C 1.01237 0.55185 0.73279 0.0
C3142 C 0.01747 0.55633 0.75323 0.0
C3143 C 0.02115 0.57072 0.75961 0.0
C3144 C 0.01897 0.58005 0.74649 0.0
H3145 H 0.04299 0.61702 0.70669 0.0
H3146 H 0.03768 0.61235 0.73315 0.0
H3147 H 0.04003 0.59959 0.7167 0.0
H3148 H 1.00607 0.55755 0.70393 0.0
H3149 H 1.00943 0.54084 0.72741 0.0
H3150 H 0.37312 0.36052 0.68317 0.0
H3151 H 0.39043 0.38649 0.69231 0.0
H3152 H 0.4271 0.37854 0.68644 0.0
H3153 H 0.40999 0.35274 0.67709 0.0
H3154 H 0.40876 0.39554 0.72645 0.0
H3155 H 0.44245 0.41742 0.65547 0.0
H3156 H 0.42482 0.40036 0.6556 0.0
H3157 H 0.44135 0.40058 0.66435 0.0
C3158 C 0.38489 0.36437 0.68348 0.0
C3159 C 0.39017 0.35454 0.67941 0.0
C3160 C 0.39477 0.37921 0.68871 0.0
C3161 C 0.41009 0.38453 0.68975 0.0
C3162 C 0.41538 0.37481 0.68524 0.0
H3163 H 0.48753 0.45589 0.74549 0.0
H3164 H 0.46985 0.43538 0.72345 0.0
C3165 C 0.40554 0.36 0.68006 0.0
C3166 C 0.42044 0.39976 0.69756 0.0
H3167 H 0.45284 0.43156 0.68676 0.0
C3168 C 0.41826 0.40352 0.71764 0.0
C3169 C 0.43288 0.41013 0.68609 0.0
C3170 C 0.43546 0.40699 0.6641 0.0
C3171 C 0.42849 0.41707 0.72693 0.0
C3172 C 0.44113 0.42731 0.71565 0.0
C3173 C 0.44314 0.42372 0.69536 0.0
C3174 C 0.45275 0.44133 0.72532 0.0
C3175 C 0.42603 0.41998 0.74913 0.0
C3176 C 0.44931 0.45195 0.73269 0.0
C3177 C 0.45938 0.46367 0.74529 0.0
C3178 C 0.47313 0.46505 0.75054 0.0
C3179 C 0.47708 0.45519 0.74157 0.0
C3180 C 0.46695 0.44341 0.72907 0.0
H3181 H 0.41765 0.40972 0.75698 0.0
H3182 H 0.43653 0.42481 0.75818 0.0
H3183 H 0.422 0.42803 0.74937 0.0
H3184 H 0.43852 0.45074 0.72961 0.0
H3185 H 0.4561 0.47118 0.75188 0.0
H3186 H 0.67028 0.0617 0.69398 0.0
H3187 H 0.64444 0.05356 0.70172 0.0
H3188 H 0.63224 1.00862 0.68539 0.0
H3189 H 0.65828 0.01665 0.67829 0.0
H3190 H 0.61939 0.04078 0.67917 0.0
H3191 H 0.61505 1.00275 0.74252 0.0
H3192 H 0.63251 0.01559 0.73081 0.0
H3193 H 0.61993 0.99849 0.7178 0.0
C3194 C 0.66212 0.05007 0.69199 0.0
C3195 C 0.66638 0.03979 0.68571 0.0
C3196 C 0.64731 0.04544 0.69638 0.0
C3197 C 0.63638 0.03043 0.69451 0.0
C3198 C 0.6405 0.0202 0.68749 0.0
H3199 H 0.54414 0.98942 0.73642 0.0
H3200 H 0.56532 0.99411 0.7146 0.0
C3201 C 0.65539 0.02481 0.68331 0.0
C3202 C 0.62083 0.02564 0.70047 0.0
H3203 H 0.59369 1.00411 0.73489 0.0
C3204 C 0.61374 0.03267 0.69124 0.0
C3205 C 0.61341 0.01505 0.71626 0.0
C3206 C 0.62063 1.00762 0.72758 0.0
C3207 C 0.59963 0.02967 0.69768 0.0
C3208 C 0.59241 0.01937 0.71375 0.0
C3209 C 0.59922 0.01192 0.72244 0.0
C3210 C 0.57856 0.01723 0.72336 0.0
C3211 C 0.59261 0.03769 0.68749 0.0
C3212 C 0.57884 0.02878 0.73504 0.0
C3213 C 0.56682 0.0261 0.74754 0.0
C3214 C 0.55427 0.01186 0.74846 0.0
C3215 C 0.55357 1.00056 0.73568 0.0
C3216 C 0.5657 1.0032 0.72335 0.0
H3217 H 0.5976 0.04218 0.67212 0.0
H3218 H 0.58048 0.0302 0.68547 0.0
H3219 H 0.59433 0.04711 0.69752 0.0
H3220 H 0.58873 0.03962 0.73555 0.0
H3221 H 0.56768 0.03493 0.75745 0.0
loop_
_geom_bond_atom_site_label_1
_geom_bond_atom_site_label_2
_geom_bond_distance
_geom_bond_site_symmetry_2
_ccdc_geom_bond_type
O0 Cd1 2.223 . S
O0 C8 1.315 . S
Cd1 O0 2.223 . S
Cd1 O4 2.297 . S
Cd1 O5 2.439 . S
Cd1 O11 2.240 1_554 S
Cd2 O3 2.240 . S
Cd2 O10 2.223 1_554 S
Cd2 O12 2.297 1_554 S
Cd2 O13 2.440 . S
O3 Cd2 2.240 . S
O3 C8 1.279 1_655 S
O4 Cd1 2.297 . S
O4 C6 1.247 . S
O5 Cd1 2.439 . S
O5 C6 1.208 . S
C6 O4 1.247 . S
C6 O5 1.208 . S
C7 O12 1.247 . S
C7 O13 1.206 1_556 S
C8 O0 1.315 . S
C8 O3 1.279 1_455 S
C9 O10 1.315 . S
C9 O11 1.279 1_655 S
O10 Cd2 2.223 1_556 S
O10 C9 1.315 . S
O11 Cd1 2.240 1_556 S
O11 C9 1.279 1_455 S
O12 Cd2 2.297 1_556 S
O12 C7 1.247 . S
O13 Cd2 2.440 . S
O13 C7 1.206 1_554 S
O14 Cd15 2.223 . S
O14 C22 1.315 . S
Cd15 O14 2.223 . S
Cd15 O18 2.297 . S
Cd15 O19 2.439 . S
Cd15 O25 2.240 1_554 S
Cd16 O17 2.240 . S
Cd16 O24 2.223 1_554 S
Cd16 O26 2.297 1_554 S
Cd16 O27 2.441 . S
O17 Cd16 2.240 . S
O17 C22 1.279 . S
O18 Cd15 2.297 . S
O18 C20 1.247 . S
O19 Cd15 2.439 . S
O19 C20 1.208 . S
C20 O18 1.247 . S
C20 O19 1.208 . S
C21 O26 1.247 . S
C21 O27 1.206 1_556 S
C22 O14 1.315 . S
C22 O17 1.279 . S
C23 O24 1.315 . S
C23 O25 1.279 . S
O24 Cd16 2.223 1_556 S
O24 C23 1.315 . S
O25 Cd15 2.240 1_556 S
O25 C23 1.279 . S
O26 Cd16 2.297 1_556 S
O26 C21 1.247 . S
O27 Cd16 2.441 . S
O27 C21 1.206 1_554 S
O28 Cd29 2.223 1_556 S
O28 C36 1.315 . S
Cd29 O28 2.223 1_554 S
Cd29 O32 2.297 1_554 S
Cd29 O33 2.445 . S
Cd29 O39 2.240 . S
Cd30 O31 2.240 1_554 S
Cd30 O38 2.223 . S
Cd30 O40 2.297 . S
Cd30 O41 2.439 . S
O31 Cd30 2.240 1_556 S
O31 C36 1.279 1_565 S
O32 Cd29 2.297 1_556 S
O32 C34 1.247 . S
O33 Cd29 2.445 . S
O33 C34 1.201 1_554 S
C34 O32 1.247 . S
C34 O33 1.201 1_556 S
C35 O40 1.247 . S
C35 O41 1.208 . S
C36 O28 1.315 . S
C36 O31 1.279 1_545 S
C37 O38 1.315 . S
C37 O39 1.279 1_565 S
O38 Cd30 2.223 . S
O38 C37 1.315 . S
O39 Cd29 2.240 . S
O39 C37 1.279 1_545 S
O40 Cd30 2.297 . S
O40 C35 1.247 . S
O41 Cd30 2.439 . S
O41 C35 1.208 . S
O42 Cd43 2.223 1_556 S
O42 C50 1.315 . S
Cd43 O42 2.223 1_554 S
Cd43 O46 2.297 1_554 S
Cd43 O47 2.416 1_554 S
Cd43 O53 2.240 . S
Cd44 O45 2.240 1_554 S
Cd44 O52 2.223 . S
Cd44 O54 2.297 . S
Cd44 O55 2.439 . S
O45 Cd44 2.240 1_556 S
O45 C50 1.279 1_455 S
O46 Cd43 2.297 1_556 S
O46 C48 1.247 . S
O47 Cd43 2.416 1_556 S
O47 C48 1.236 . S
C48 O46 1.247 . S
C48 O47 1.236 . S
C49 O54 1.247 . S
C49 O55 1.208 . S
C50 O42 1.315 . S
C50 O45 1.279 1_655 S
C51 O52 1.315 . S
C51 O53 1.279 1_455 S
O52 Cd44 2.223 . S
O52 C51 1.315 . S
O53 Cd43 2.240 . S
O53 C51 1.279 1_655 S
O54 Cd44 2.297 . S
O54 C49 1.247 . S
O55 Cd44 2.439 . S
O55 C49 1.208 . S
O56 Cd57 2.223 1_556 S
O56 C64 1.315 . S
Cd57 O56 2.223 1_554 S
Cd57 O60 2.297 1_554 S
Cd57 O61 2.418 1_554 S
Cd57 O67 2.240 . S
Cd58 O59 2.240 1_554 S
Cd58 O66 2.223 . S
Cd58 O68 2.297 . S
Cd58 O69 2.439 . S
O59 Cd58 2.240 1_556 S
O59 C64 1.279 . S
O60 Cd57 2.297 1_556 S
O60 C62 1.247 . S
O61 Cd57 2.418 1_556 S
O61 C62 1.234 . S
C62 O60 1.247 . S
C62 O61 1.234 . S
C63 O68 1.247 . S
C63 O69 1.208 . S
C64 O56 1.315 . S
C64 O59 1.279 . S
C65 O66 1.315 . S
C65 O67 1.279 . S
O66 Cd58 2.223 . S
O66 C65 1.315 . S
O67 Cd57 2.240 . S
O67 C65 1.279 . S
O68 Cd58 2.297 . S
O68 C63 1.247 . S
O69 Cd58 2.439 . S
O69 C63 1.208 . S
O70 Cd71 2.223 . S
O70 C78 1.315 . S
Cd71 O70 2.223 . S
Cd71 O74 2.297 . S
Cd71 O75 2.439 . S
Cd71 O81 2.240 1_554 S
Cd72 O73 2.240 . S
Cd72 O80 2.223 1_554 S
Cd72 O82 2.297 1_554 S
Cd72 O83 2.424 1_554 S
O73 Cd72 2.240 . S
O73 C78 1.279 1_545 S
O74 Cd71 2.297 . S
O74 C76 1.247 . S
O75 Cd71 2.439 . S
O75 C76 1.208 . S
C76 O74 1.247 . S
C76 O75 1.208 . S
C77 O82 1.247 . S
C77 O83 1.227 . S
C78 O70 1.315 . S
C78 O73 1.279 1_565 S
C79 O80 1.315 . S
C79 O81 1.279 1_545 S
O80 Cd72 2.223 1_556 S
O80 C79 1.315 . S
O81 Cd71 2.240 1_556 S
O81 C79 1.279 1_565 S
O82 Cd72 2.297 1_556 S
O82 C77 1.247 . S
O83 Cd72 2.424 1_556 S
O83 C77 1.227 . S
O84 Cd85 2.223 . S
O84 C92 1.315 . S
Cd85 O84 2.223 . S
Cd85 O88 2.297 . S
Cd85 O89 2.439 . S
Cd85 O95 2.240 . S
Cd86 O87 2.240 . S
Cd86 O94 2.223 . S
Cd86 O96 2.297 . S
Cd86 O97 2.439 . S
O87 Cd86 2.240 . S
O87 C92 1.279 . S
O88 Cd85 2.297 . S
O88 C90 1.247 . S
O89 Cd85 2.439 . S
O89 C90 1.208 . S
C90 O88 1.247 . S
C90 O89 1.208 . S
C91 O96 1.247 . S
C91 O97 1.208 . S
C92 O84 1.315 . S
C92 O87 1.279 . S
C93 O94 1.315 . S
C93 O95 1.279 . S
O94 Cd86 2.223 . S
O94 C93 1.315 . S
O95 Cd85 2.240 . S
O95 C93 1.279 . S
O96 Cd86 2.297 . S
O96 C91 1.247 . S
O97 Cd86 2.439 . S
O97 C91 1.208 . S
O98 Cd99 2.223 . S
O98 C106 1.315 . S
Cd99 O98 2.223 . S
Cd99 O102 2.297 1_565 S
Cd99 O103 2.439 1_565 S
Cd99 O109 2.240 . S
Cd100 O101 2.240 . S
Cd100 O108 2.223 . S
Cd100 O110 2.297 . S
Cd100 O111 2.439 . S
O101 Cd100 2.240 . S
O101 C106 1.279 . S
O102 Cd99 2.297 1_545 S
O102 C104 1.247 . S
O103 Cd99 2.439 1_545 S
O103 C104 1.208 . S
C104 O102 1.247 . S
C104 O103 1.208 . S
C105 O110 1.247 . S
C105 O111 1.208 . S
C106 O98 1.315 . S
C106 O101 1.279 . S
C107 O108 1.315 . S
C107 O109 1.279 . S
O108 Cd100 2.223 . S
O108 C107 1.315 . S
O109 Cd99 2.240 . S
O109 C107 1.279 . S
O110 Cd100 2.297 . S
O110 C105 1.247 . S
O111 Cd100 2.439 . S
O111 C105 1.208 . S
O112 Cd113 2.223 . S
O112 C120 1.315 . S
Cd113 O112 2.223 . S
Cd113 O116 2.297 . S
Cd113 O117 2.439 . S
Cd113 O123 2.240 . S
Cd114 O115 2.240 . S
Cd114 O122 2.223 . S
Cd114 O124 2.297 1_455 S
Cd114 O125 2.439 1_455 S
O115 Cd114 2.240 . S
O115 C120 1.279 . S
O116 Cd113 2.297 . S
O116 C118 1.247 . S
O117 Cd113 2.439 . S
O117 C118 1.208 . S
C118 O116 1.247 . S
C118 O117 1.208 . S
C119 O124 1.247 . S
C119 O125 1.208 . S
C120 O112 1.315 . S
C120 O115 1.279 . S
C121 O122 1.315 . S
C121 O123 1.279 . S
O122 Cd114 2.223 . S
O122 C121 1.315 . S
O123 Cd113 2.240 . S
O123 C121 1.279 . S
O124 Cd114 2.297 1_655 S
O124 C119 1.247 . S
O125 Cd114 2.439 1_655 S
O125 C119 1.208 . S
O126 Cd127 2.223 . S
O126 C134 1.315 . S
Cd127 O126 2.223 . S
Cd127 O130 2.297 . S
Cd127 O131 2.439 . S
Cd127 O137 2.240 . S
Cd128 O129 2.240 . S
Cd128 O136 2.223 . S
Cd128 O138 2.297 1_565 S
Cd128 O139 2.439 1_565 S
O129 Cd128 2.240 . S
O129 C134 1.279 . S
O130 Cd127 2.297 . S
O130 C132 1.247 . S
O131 Cd127 2.439 . S
O131 C132 1.208 . S
C132 O130 1.247 . S
C132 O131 1.208 . S
C133 O138 1.247 . S
C133 O139 1.208 . S
C134 O126 1.315 . S
C134 O129 1.279 . S
C135 O136 1.315 . S
C135 O137 1.279 . S
O136 Cd128 2.223 . S
O136 C135 1.315 . S
O137 Cd127 2.240 . S
O137 C135 1.279 . S
O138 Cd128 2.297 1_545 S
O138 C133 1.247 . S
O139 Cd128 2.439 1_545 S
O139 C133 1.208 . S
O140 Cd141 2.223 . S
O140 C148 1.315 . S
Cd141 O140 2.223 . S
Cd141 O144 2.297 . S
Cd141 O145 2.439 . S
Cd141 O151 2.240 . S
Cd142 O143 2.240 . S
Cd142 O150 2.223 . S
Cd142 O152 2.297 1_455 S
Cd142 O153 2.439 1_455 S
O143 Cd142 2.240 . S
O143 C148 1.279 . S
O144 Cd141 2.297 . S
O144 C146 1.247 . S
O145 Cd141 2.439 . S
O145 C146 1.208 . S
C146 O144 1.247 . S
C146 O145 1.208 . S
C147 O152 1.247 . S
C147 O153 1.208 . S
C148 O140 1.315 . S
C148 O143 1.279 . S
C149 O150 1.315 . S
C149 O151 1.279 . S
O150 Cd142 2.223 . S
O150 C149 1.315 . S
O151 Cd141 2.240 . S
O151 C149 1.279 . S
O152 Cd142 2.297 1_655 S
O152 C147 1.247 . S
O153 Cd142 2.439 1_655 S
O153 C147 1.208 . S
O154 Cd155 2.223 . S
O154 C162 1.315 . S
Cd155 O154 2.223 . S
Cd155 O158 2.297 . S
Cd155 O159 2.439 . S
Cd155 O165 2.240 . S
Cd156 O157 2.240 . S
Cd156 O164 2.223 . S
Cd156 O166 2.297 . S
Cd156 O167 2.439 . S
O157 Cd156 2.240 . S
O157 C162 1.279 . S
O158 Cd155 2.297 . S
O158 C160 1.247 . S
O159 Cd155 2.439 . S
O159 C160 1.208 . S
C160 O158 1.247 . S
C160 O159 1.208 . S
C161 O166 1.247 . S
C161 O167 1.208 . S
C162 O154 1.315 . S
C162 O157 1.279 . S
C163 O164 1.315 . S
C163 O165 1.279 . S
O164 Cd156 2.223 . S
O164 C163 1.315 . S
O165 Cd155 2.240 . S
O165 C163 1.279 . S
O166 Cd156 2.297 . S
O166 C161 1.247 . S
O167 Cd156 2.439 . S
O167 C161 1.208 . S
O168 Cd169 2.223 . S
O168 C176 1.315 . S
Cd169 O168 2.223 . S
Cd169 O172 2.297 . S
Cd169 O173 2.439 . S
Cd169 O179 2.240 . S
Cd170 O171 2.240 . S
Cd170 O178 2.223 . S
Cd170 O180 2.297 1_545 S
Cd170 O181 2.439 1_545 S
O171 Cd170 2.240 . S
O171 C176 1.279 . S
O172 Cd169 2.297 . S
O172 C174 1.247 . S
O173 Cd169 2.439 . S
O173 C174 1.208 . S
C174 O172 1.247 . S
C174 O173 1.208 . S
C175 O180 1.247 . S
C175 O181 1.208 . S
C176 O168 1.315 . S
C176 O171 1.279 . S
C177 O178 1.315 . S
C177 O179 1.279 . S
O178 Cd170 2.223 . S
O178 C177 1.315 . S
O179 Cd169 2.240 . S
O179 C177 1.279 . S
O180 Cd170 2.297 1_565 S
O180 C175 1.247 . S
O181 Cd170 2.439 1_565 S
O181 C175 1.208 . S
O182 Cd183 2.223 . S
O182 C190 1.315 . S
Cd183 O182 2.223 . S
Cd183 O186 2.297 . S
Cd183 O187 2.439 . S
Cd183 O193 2.240 . S
Cd184 O185 2.240 . S
Cd184 O192 2.223 . S
Cd184 O194 2.297 1_655 S
Cd184 O195 2.439 1_655 S
O185 Cd184 2.240 . S
O185 C190 1.279 . S
O186 Cd183 2.297 . S
O186 C188 1.247 . S
O187 Cd183 2.439 . S
O187 C188 1.208 . S
C188 O186 1.247 . S
C188 O187 1.208 . S
C189 O194 1.247 . S
C189 O195 1.208 . S
C190 O182 1.315 . S
C190 O185 1.279 . S
C191 O192 1.315 . S
C191 O193 1.279 . S
O192 Cd184 2.223 . S
O192 C191 1.315 . S
O193 Cd183 2.240 . S
O193 C191 1.279 . S
O194 Cd184 2.297 1_455 S
O194 C189 1.247 . S
O195 Cd184 2.439 1_455 S
O195 C189 1.208 . S
O196 Cd197 2.223 . S
O196 C204 1.315 . S
Cd197 O196 2.223 . S
Cd197 O200 2.297 . S
Cd197 O201 2.439 . S
Cd197 O207 2.240 . S
Cd198 O199 2.240 . S
Cd198 O206 2.223 . S
Cd198 O208 2.297 . S
Cd198 O209 2.439 . S
O199 Cd198 2.240 . S
O199 C204 1.279 . S
O200 Cd197 2.297 . S
O200 C202 1.247 . S
O201 Cd197 2.439 . S
O201 C202 1.208 . S
C202 O200 1.247 . S
C202 O201 1.208 . S
C203 O208 1.247 . S
C203 O209 1.208 . S
C204 O196 1.315 . S
C204 O199 1.279 . S
C205 O206 1.315 . S
C205 O207 1.279 . S
O206 Cd198 2.223 . S
O206 C205 1.315 . S
O207 Cd197 2.240 . S
O207 C205 1.279 . S
O208 Cd198 2.297 . S
O208 C203 1.247 . S
O209 Cd198 2.439 . S
O209 C203 1.208 . S
O210 Cd211 2.223 . S
O210 C218 1.315 . S
Cd211 O210 2.223 . S
Cd211 O214 2.297 . S
Cd211 O215 2.439 . S
Cd211 O221 2.240 . S
Cd212 O213 2.240 . S
Cd212 O220 2.223 . S
Cd212 O222 2.297 . S
Cd212 O223 2.439 . S
O213 Cd212 2.240 . S
O213 C218 1.279 . S
O214 Cd211 2.297 . S
O214 C216 1.247 . S
O215 Cd211 2.439 . S
O215 C216 1.208 . S
C216 O214 1.247 . S
C216 O215 1.208 . S
C217 O222 1.247 . S
C217 O223 1.208 . S
C218 O210 1.315 . S
C218 O213 1.279 . S
C219 O220 1.315 . S
C219 O221 1.279 . S
O220 Cd212 2.223 . S
O220 C219 1.315 . S
O221 Cd211 2.240 . S
O221 C219 1.279 . S
O222 Cd212 2.297 . S
O222 C217 1.247 . S
O223 Cd212 2.439 . S
O223 C217 1.208 . S
O224 Cd225 2.223 . S
O224 C232 1.315 . S
Cd225 O224 2.223 . S
Cd225 O228 2.297 1_545 S
Cd225 O229 2.439 1_545 S
Cd225 O235 2.240 . S
Cd226 O227 2.240 . S
Cd226 O234 2.223 . S
Cd226 O236 2.297 . S
Cd226 O237 2.439 . S
O227 Cd226 2.240 . S
O227 C232 1.279 . S
O228 Cd225 2.297 1_565 S
O228 C230 1.247 . S
O229 Cd225 2.439 1_565 S
O229 C230 1.208 . S
C230 O228 1.247 . S
C230 O229 1.208 . S
C231 O236 1.247 . S
C231 O237 1.208 . S
C232 O224 1.315 . S
C232 O227 1.279 . S
C233 O234 1.315 . S
C233 O235 1.279 . S
O234 Cd226 2.223 . S
O234 C233 1.315 . S
O235 Cd225 2.240 . S
O235 C233 1.279 . S
O236 Cd226 2.297 . S
O236 C231 1.247 . S
O237 Cd226 2.439 . S
O237 C231 1.208 . S
O238 Cd239 2.223 . S
O238 C246 1.315 . S
Cd239 O238 2.223 . S
Cd239 O242 2.297 . S
Cd239 O243 2.439 . S
Cd239 O249 2.240 . S
Cd240 O241 2.240 . S
Cd240 O248 2.223 . S
Cd240 O250 2.297 1_655 S
Cd240 O251 2.439 1_655 S
O241 Cd240 2.240 . S
O241 C246 1.279 . S
O242 Cd239 2.297 . S
O242 C244 1.247 . S
O243 Cd239 2.439 . S
O243 C244 1.208 . S
C244 O242 1.247 . S
C244 O243 1.208 . S
C245 O250 1.247 . S
C245 O251 1.208 . S
C246 O238 1.315 . S
C246 O241 1.279 . S
C247 O248 1.315 . S
C247 O249 1.279 . S
O248 Cd240 2.223 . S
O248 C247 1.315 . S
O249 Cd239 2.240 . S
O249 C247 1.279 . S
O250 Cd240 2.297 1_455 S
O250 C245 1.247 . S
O251 Cd240 2.439 1_455 S
O251 C245 1.208 . S
H252 C260 0.930 . S
H253 C263 0.930 . S
H254 C265 0.930 . S
H255 C266 0.970 . S
H256 C266 0.970 . S
H257 C268 0.930 . S
H258 C270 0.930 . S
H259 C272 0.930 . S
C260 H252 0.930 . S
C260 C261 1.382 . S
C260 C262 1.426 . S
C261 C260 1.382 . S
C261 C265 1.389 . S
C262 C260 1.426 . S
C262 C263 1.375 . S
C262 C266 1.532 . S
C263 H253 0.930 . S
C263 C262 1.375 . S
C263 C264 1.416 . S
C264 C263 1.416 . S
C264 C265 1.371 . S
C265 H254 0.930 . S
C265 C261 1.389 . S
C265 C264 1.371 . S
C266 H255 0.970 . S
C266 H256 0.970 . S
C266 C262 1.532 . S
C266 C267 1.499 . S
C267 C266 1.499 . S
C267 C268 1.370 . S
C267 C272 1.415 . S
C268 H257 0.930 . S
C268 C267 1.370 . S
C268 C269 1.407 . S
C269 C268 1.407 . S
C269 C270 1.365 . S
C270 H258 0.930 . S
C270 C269 1.365 . S
C270 C271 1.393 . S
C271 C270 1.393 . S
C271 C272 1.387 . S
C272 H259 0.930 . S
C272 C267 1.415 . S
C272 C271 1.387 . S
H273 C281 0.930 . S
H274 C284 0.930 . S
H275 C286 0.930 . S
H276 C287 0.970 . S
H277 C287 0.970 . S
H278 C289 0.930 . S
H279 C291 0.930 . S
H280 C293 0.930 . S
C281 H273 0.930 . S
C281 C282 1.382 . S
C281 C283 1.426 . S
C282 C281 1.382 . S
C282 C286 1.389 . S
C283 C281 1.426 . S
C283 C284 1.375 . S
C283 C287 1.532 . S
C284 H274 0.930 . S
C284 C283 1.375 . S
C284 C285 1.416 . S
C285 C284 1.416 . S
C285 C286 1.371 . S
C286 H275 0.930 . S
C286 C282 1.389 . S
C286 C285 1.371 . S
C287 H276 0.970 . S
C287 H277 0.970 . S
C287 C283 1.532 . S
C287 C288 1.499 . S
C288 C287 1.499 . S
C288 C289 1.370 . S
C288 C293 1.415 . S
C289 H278 0.930 . S
C289 C288 1.370 . S
C289 C290 1.407 . S
C290 C289 1.407 . S
C290 C291 1.365 . S
C291 H279 0.930 . S
C291 C290 1.365 . S
C291 C292 1.393 . S
C292 C291 1.393 . S
C292 C293 1.387 . S
C293 H280 0.930 . S
C293 C288 1.415 . S
C293 C292 1.387 . S
H294 C302 0.930 . S
H295 C305 0.930 . S
H296 C307 0.930 . S
H297 C308 0.970 . S
H298 C308 0.970 . S
H299 C310 0.930 . S
H300 C312 0.930 . S
H301 C314 0.930 . S
C302 H294 0.930 . S
C302 C303 1.382 . S
C302 C304 1.426 . S
C303 C302 1.382 . S
C303 C307 1.389 . S
C304 C302 1.426 . S
C304 C305 1.375 . S
C304 C308 1.532 . S
C305 H295 0.930 . S
C305 C304 1.375 . S
C305 C306 1.416 . S
C306 C305 1.416 . S
C306 C307 1.371 . S
C307 H296 0.930 . S
C307 C303 1.389 . S
C307 C306 1.371 . S
C308 H297 0.970 . S
C308 H298 0.970 . S
C308 C304 1.532 . S
C308 C309 1.499 . S
C309 C308 1.499 . S
C309 C310 1.370 . S
C309 C314 1.415 . S
C310 H299 0.930 . S
C310 C309 1.370 . S
C310 C311 1.407 . S
C311 C310 1.407 . S
C311 C312 1.365 . S
C312 H300 0.930 . S
C312 C311 1.365 . S
C312 C313 1.393 . S
C313 C312 1.393 . S
C313 C314 1.387 . S
C314 H301 0.930 . S
C314 C309 1.415 . S
C314 C313 1.387 . S
H315 C323 0.930 . S
H316 C326 0.930 . S
H317 C328 0.930 . S
H318 C329 0.970 . S
H319 C329 0.970 . S
H320 C331 0.930 . S
H321 C333 0.930 . S
H322 C335 0.930 . S
C323 H315 0.930 . S
C323 C324 1.382 . S
C323 C325 1.426 . S
C324 C323 1.382 . S
C324 C328 1.389 . S
C325 C323 1.426 . S
C325 C326 1.375 . S
C325 C329 1.532 . S
C326 H316 0.930 . S
C326 C325 1.375 . S
C326 C327 1.416 . S
C327 C326 1.416 . S
C327 C328 1.371 . S
C328 H317 0.930 . S
C328 C324 1.389 . S
C328 C327 1.371 . S
C329 H318 0.970 . S
C329 H319 0.970 . S
C329 C325 1.532 . S
C329 C330 1.499 . S
C330 C329 1.499 . S
C330 C331 1.370 . S
C330 C335 1.415 . S
C331 H320 0.930 . S
C331 C330 1.370 . S
C331 C332 1.407 . S
C332 C331 1.407 . S
C332 C333 1.365 . S
C333 H321 0.930 . S
C333 C332 1.365 . S
C333 C334 1.393 . S
C334 C333 1.393 . S
C334 C335 1.387 . S
C335 H322 0.930 . S
C335 C330 1.415 . S
C335 C334 1.387 . S
H336 C344 0.930 . S
H337 C347 0.930 . S
H338 C349 0.930 . S
H339 C350 0.970 . S
H340 C350 0.970 . S
H341 C352 0.930 . S
H342 C354 0.930 . S
H343 C356 0.930 . S
C344 H336 0.930 . S
C344 C345 1.382 . S
C344 C346 1.426 . S
C345 C344 1.382 . S
C345 C349 1.389 . S
C346 C344 1.426 . S
C346 C347 1.375 . S
C346 C350 1.532 . S
C347 H337 0.930 . S
C347 C346 1.375 . S
C347 C348 1.416 . S
C348 C347 1.416 . S
C348 C349 1.371 . S
C349 H338 0.930 . S
C349 C345 1.389 . S
C349 C348 1.371 . S
C350 H339 0.970 . S
C350 H340 0.970 . S
C350 C346 1.532 . S
C350 C351 1.499 . S
C351 C350 1.499 . S
C351 C352 1.370 . S
C351 C356 1.415 . S
C352 H341 0.930 . S
C352 C351 1.370 . S
C352 C353 1.407 . S
C353 C352 1.407 . S
C353 C354 1.365 . S
C354 H342 0.930 . S
C354 C353 1.365 . S
C354 C355 1.393 . S
C355 C354 1.393 . S
C355 C356 1.387 . S
C356 H343 0.930 . S
C356 C351 1.415 . S
C356 C355 1.387 . S
H357 C365 0.930 . S
H358 C368 0.930 . S
H359 C370 0.930 . S
H360 C371 0.970 . S
H361 C371 0.970 . S
H362 C373 0.930 . S
H363 C375 0.930 . S
H364 C377 0.930 . S
C365 H357 0.930 . S
C365 C366 1.382 . S
C365 C367 1.426 . S
C366 C365 1.382 . S
C366 C370 1.389 . S
C367 C365 1.426 . S
C367 C368 1.375 . S
C367 C371 1.532 . S
C368 H358 0.930 . S
C368 C367 1.375 . S
C368 C369 1.416 . S
C369 C368 1.416 . S
C369 C370 1.371 . S
C370 H359 0.930 . S
C370 C366 1.389 . S
C370 C369 1.371 . S
C371 H360 0.970 . S
C371 H361 0.970 . S
C371 C367 1.532 . S
C371 C372 1.499 . S
C372 C371 1.499 . S
C372 C373 1.370 . S
C372 C377 1.415 . S
C373 H362 0.930 . S
C373 C372 1.370 . S
C373 C374 1.407 . S
C374 C373 1.407 . S
C374 C375 1.365 . S
C375 H363 0.930 . S
C375 C374 1.365 . S
C375 C376 1.393 . S
C376 C375 1.393 . S
C376 C377 1.387 . S
C377 H364 0.930 . S
C377 C372 1.415 . S
C377 C376 1.387 . S
H378 C386 0.930 . S
H379 C389 0.930 . S
H380 C391 0.930 . S
H381 C392 0.970 . S
H382 C392 0.970 . S
H383 C394 0.930 . S
H384 C396 0.930 . S
H385 C398 0.930 . S
C386 H378 0.930 . S
C386 C387 1.382 . S
C386 C388 1.426 . S
C387 C386 1.382 . S
C387 C391 1.389 . S
C388 C386 1.426 . S
C388 C389 1.375 . S
C388 C392 1.532 . S
C389 H379 0.930 . S
C389 C388 1.375 . S
C389 C390 1.416 . S
C390 C389 1.416 . S
C390 C391 1.371 . S
C391 H380 0.930 . S
C391 C387 1.389 . S
C391 C390 1.371 . S
C392 H381 0.970 . S
C392 H382 0.970 . S
C392 C388 1.532 . S
C392 C393 1.499 . S
C393 C392 1.499 . S
C393 C394 1.370 . S
C393 C398 1.415 . S
C394 H383 0.930 . S
C394 C393 1.370 . S
C394 C395 1.407 . S
C395 C394 1.407 . S
C395 C396 1.365 . S
C396 H384 0.930 . S
C396 C395 1.365 . S
C396 C397 1.393 . S
C397 C396 1.393 . S
C397 C398 1.387 . S
C398 H385 0.930 . S
C398 C393 1.415 . S
C398 C397 1.387 . S
H399 C407 0.930 . S
H400 C410 0.930 . S
H401 C412 0.930 . S
H402 C413 0.970 . S
H403 C413 0.970 . S
H404 C415 0.930 . S
H405 C417 0.930 . S
H406 C419 0.930 . S
C407 H399 0.930 . S
C407 C408 1.382 . S
C407 C409 1.426 . S
C408 C407 1.382 . S
C408 C412 1.389 . S
C409 C407 1.426 . S
C409 C410 1.375 . S
C409 C413 1.532 . S
C410 H400 0.930 . S
C410 C409 1.375 . S
C410 C411 1.416 . S
C411 C410 1.416 . S
C411 C412 1.371 . S
C412 H401 0.930 . S
C412 C408 1.389 . S
C412 C411 1.371 . S
C413 H402 0.970 . S
C413 H403 0.970 . S
C413 C409 1.532 . S
C413 C414 1.499 . S
C414 C413 1.499 . S
C414 C415 1.370 . S
C414 C419 1.415 . S
C415 H404 0.930 . S
C415 C414 1.370 . S
C415 C416 1.407 . S
C416 C415 1.407 . S
C416 C417 1.365 . S
C417 H405 0.930 . S
C417 C416 1.365 . S
C417 C418 1.393 . S
C418 C417 1.393 . S
C418 C419 1.387 . S
C419 H406 0.930 . S
C419 C414 1.415 . S
C419 C418 1.387 . S
H420 C428 0.930 . S
H421 C431 0.930 . S
H422 C433 0.930 . S
H423 C434 0.970 . S
H424 C434 0.970 . S
H425 C436 0.930 . S
H426 C438 0.930 . S
H427 C440 0.930 . S
C428 H420 0.930 . S
C428 C429 1.382 . S
C428 C430 1.426 . S
C429 C428 1.382 . S
C429 C433 1.389 . S
C430 C428 1.426 . S
C430 C431 1.375 . S
C430 C434 1.532 . S
C431 H421 0.930 . S
C431 C430 1.375 . S
C431 C432 1.416 . S
C432 C431 1.416 . S
C432 C433 1.371 . S
C433 H422 0.930 . S
C433 C429 1.389 . S
C433 C432 1.371 . S
C434 H423 0.970 . S
C434 H424 0.970 . S
C434 C430 1.532 . S
C434 C435 1.499 . S
C435 C434 1.499 . S
C435 C436 1.370 . S
C435 C440 1.415 . S
C436 H425 0.930 . S
C436 C435 1.370 . S
C436 C437 1.407 . S
C437 C436 1.407 . S
C437 C438 1.365 . S
C438 H426 0.930 . S
C438 C437 1.365 . S
C438 C439 1.393 . S
C439 C438 1.393 . S
C439 C440 1.387 . S
C440 H427 0.930 . S
C440 C435 1.415 . S
C440 C439 1.387 . S
H441 C449 0.930 . S
H442 C452 0.930 . S
H443 C454 0.930 . S
H444 C455 0.970 . S
H445 C455 0.970 . S
H446 C457 0.930 . S
H447 C459 0.930 . S
H448 C461 0.930 . S
C449 H441 0.930 . S
C449 C450 1.382 . S
C449 C451 1.426 . S
C450 C449 1.382 . S
C450 C454 1.389 1_455 S
C451 C449 1.426 . S
C451 C452 1.375 . S
C451 C455 1.532 . S
C452 H442 0.930 . S
C452 C451 1.375 . S
C452 C453 1.416 . S
C453 C452 1.416 . S
C453 C454 1.371 1_455 S
C454 H443 0.930 . S
C454 C450 1.389 1_655 S
C454 C453 1.371 1_655 S
C455 H444 0.970 . S
C455 H445 0.970 . S
C455 C451 1.532 . S
C455 C456 1.499 . S
C456 C455 1.499 . S
C456 C457 1.370 . S
C456 C461 1.415 . S
C457 H446 0.930 . S
C457 C456 1.370 . S
C457 C458 1.412 . S
C458 C457 1.412 . S
C458 C459 1.370 1_455 S
C459 H447 0.930 . S
C459 C458 1.370 1_655 S
C459 C460 1.393 1_655 S
C460 C459 1.393 1_455 S
C460 C461 1.387 . S
C461 H448 0.930 . S
C461 C456 1.415 . S
C461 C460 1.387 . S
H462 C470 0.930 . S
H463 C473 0.930 . S
H464 C475 0.930 . S
H465 C476 0.970 . S
H466 C476 0.970 . S
H467 C478 0.930 . S
H468 C480 0.930 . S
H469 C482 0.930 . S
C470 H462 0.930 . S
C470 C471 1.382 . S
C470 C472 1.426 . S
C471 C470 1.382 . S
C471 C475 1.389 . S
C472 C470 1.426 . S
C472 C473 1.375 . S
C472 C476 1.532 . S
C473 H463 0.930 . S
C473 C472 1.375 . S
C473 C474 1.416 . S
C474 C473 1.416 . S
C474 C475 1.371 . S
C475 H464 0.930 . S
C475 C471 1.389 . S
C475 C474 1.371 . S
C476 H465 0.970 . S
C476 H466 0.970 . S
C476 C472 1.532 . S
C476 C477 1.499 . S
C477 C476 1.499 . S
C477 C478 1.370 . S
C477 C482 1.415 . S
C478 H467 0.930 . S
C478 C477 1.370 . S
C478 C479 1.407 . S
C479 C478 1.407 . S
C479 C480 1.365 . S
C480 H468 0.930 . S
C480 C479 1.365 . S
C480 C481 1.393 . S
C481 C480 1.393 . S
C481 C482 1.387 . S
C482 H469 0.930 . S
C482 C477 1.415 . S
C482 C481 1.387 . S
H483 C491 0.930 . S
H484 C494 0.930 . S
H485 C496 0.930 . S
H486 C497 0.970 . S
H487 C497 0.970 . S
H488 C499 0.930 . S
H489 C501 0.930 . S
H490 C503 0.930 . S
C491 H483 0.930 . S
C491 C492 1.382 . S
C491 C493 1.426 . S
C492 C491 1.382 . S
C492 C496 1.389 1_565 S
C493 C491 1.426 . S
C493 C494 1.375 . S
C493 C497 1.532 . S
C494 H484 0.930 . S
C494 C493 1.375 . S
C494 C495 1.416 . S
C495 C494 1.416 . S
C495 C496 1.371 1_565 S
C496 H485 0.930 . S
C496 C492 1.389 1_545 S
C496 C495 1.371 1_545 S
C497 H486 0.970 . S
C497 H487 0.970 . S
C497 C493 1.532 . S
C497 C498 1.499 . S
C498 C497 1.499 . S
C498 C499 1.370 . S
C498 C503 1.415 . S
C499 H488 0.930 . S
C499 C498 1.370 . S
C499 C500 1.459 . S
C500 C499 1.459 . S
C500 C501 1.344 1_565 S
C501 H489 0.930 . S
C501 C500 1.344 1_545 S
C501 C502 1.393 1_545 S
C502 C501 1.393 1_565 S
C502 C503 1.387 . S
C503 H490 0.930 . S
C503 C498 1.415 . S
C503 C502 1.387 . S
H504 C512 0.930 . S
H505 C515 0.930 . S
H506 C517 0.930 . S
H507 C518 0.970 . S
H508 C518 0.970 . S
H509 C520 0.930 . S
H510 C522 0.930 . S
H511 C524 0.930 . S
C512 H504 0.930 . S
C512 C513 1.382 . S
C512 C514 1.426 . S
C513 C512 1.382 . S
C513 C517 1.389 1_565 S
C514 C512 1.426 . S
C514 C515 1.375 . S
C514 C518 1.532 . S
C515 H505 0.930 . S
C515 C514 1.375 . S
C515 C516 1.416 . S
C516 C515 1.416 . S
C516 C517 1.371 1_565 S
C517 H506 0.930 . S
C517 C513 1.389 1_545 S
C517 C516 1.371 1_545 S
C518 H507 0.970 . S
C518 H508 0.970 . S
C518 C514 1.532 . S
C518 C519 1.499 . S
C519 C518 1.499 . S
C519 C520 1.370 . S
C519 C524 1.415 . S
C520 H509 0.930 . S
C520 C519 1.370 . S
C520 C521 1.407 . S
C521 C520 1.407 . S
C521 C522 1.365 1_565 S
C522 H510 0.930 . S
C522 C521 1.365 1_545 S
C522 C523 1.393 1_545 S
C523 C522 1.393 1_565 S
C523 C524 1.387 . S
C524 H511 0.930 . S
C524 C519 1.415 . S
C524 C523 1.387 . S
H525 C533 0.930 . S
H526 C536 0.930 . S
H527 C538 0.930 . S
H528 C539 0.970 . S
H529 C539 0.970 . S
H530 C541 0.930 . S
H531 C543 0.930 . S
H532 C545 0.930 . S
C533 H525 0.930 . S
C533 C534 1.382 . S
C533 C535 1.426 . S
C534 C533 1.382 . S
C534 C538 1.389 1_455 S
C535 C533 1.426 . S
C535 C536 1.375 . S
C535 C539 1.532 . S
C536 H526 0.930 . S
C536 C535 1.375 . S
C536 C537 1.416 . S
C537 C536 1.416 . S
C537 C538 1.371 1_455 S
C538 H527 0.930 . S
C538 C534 1.389 1_655 S
C538 C537 1.371 1_655 S
C539 H528 0.970 . S
C539 H529 0.970 . S
C539 C535 1.532 . S
C539 C540 1.499 . S
C540 C539 1.499 . S
C540 C541 1.370 . S
C540 C545 1.415 . S
C541 H530 0.930 . S
C541 C540 1.370 . S
C541 C542 1.407 . S
C542 C541 1.407 . S
C542 C543 1.365 1_455 S
C543 H531 0.930 . S
C543 C542 1.365 1_655 S
C543 C544 1.393 1_655 S
C544 C543 1.393 1_455 S
C544 C545 1.387 . S
C545 H532 0.930 . S
C545 C540 1.415 . S
C545 C544 1.387 . S
H546 C554 0.930 . S
H547 C557 0.930 . S
H548 C559 0.930 . S
H549 C560 0.970 . S
H550 C560 0.970 . S
H551 C562 0.930 . S
H552 C564 0.930 . S
H553 C566 0.930 . S
C554 H546 0.930 . S
C554 C555 1.382 . S
C554 C556 1.426 . S
C555 C554 1.382 . S
C555 C559 1.389 . S
C556 C554 1.426 . S
C556 C557 1.375 . S
C556 C560 1.532 . S
C557 H547 0.930 . S
C557 C556 1.375 . S
C557 C558 1.416 . S
C558 C557 1.416 . S
C558 C559 1.371 . S
C559 H548 0.930 . S
C559 C555 1.389 . S
C559 C558 1.371 . S
C560 H549 0.970 . S
C560 H550 0.970 . S
C560 C556 1.532 . S
C560 C561 1.499 . S
C561 C560 1.499 . S
C561 C562 1.370 . S
C561 C566 1.415 . S
C562 H551 0.930 . S
C562 C561 1.370 . S
C562 C563 1.407 . S
C563 C562 1.407 . S
C563 C564 1.365 . S
C564 H552 0.930 . S
C564 C563 1.365 . S
C564 C565 1.393 . S
C565 C564 1.393 . S
C565 C566 1.387 . S
C566 H553 0.930 . S
C566 C561 1.415 . S
C566 C565 1.387 . S
H567 C575 0.930 . S
H568 C578 0.930 . S
H569 C580 0.930 . S
H570 C581 0.970 . S
H571 C581 0.970 . S
H572 C583 0.930 . S
H573 C585 0.930 . S
H574 C587 0.930 . S
C575 H567 0.930 . S
C575 C576 1.382 . S
C575 C577 1.426 . S
C576 C575 1.382 . S
C576 C580 1.389 . S
C577 C575 1.426 . S
C577 C578 1.375 . S
C577 C581 1.532 . S
C578 H568 0.930 . S
C578 C577 1.375 . S
C578 C579 1.416 . S
C579 C578 1.416 . S
C579 C580 1.371 . S
C580 H569 0.930 . S
C580 C576 1.389 . S
C580 C579 1.371 . S
C581 H570 0.970 . S
C581 H571 0.970 . S
C581 C577 1.532 . S
C581 C582 1.499 . S
C582 C581 1.499 . S
C582 C583 1.370 . S
C582 C587 1.415 . S
C583 H572 0.930 . S
C583 C582 1.370 . S
C583 C584 1.407 . S
C584 C583 1.407 . S
C584 C585 1.365 . S
C585 H573 0.930 . S
C585 C584 1.365 . S
C585 C586 1.393 . S
C586 C585 1.393 . S
C586 C587 1.387 . S
C587 H574 0.930 . S
C587 C582 1.415 . S
C587 C586 1.387 . S
H588 C596 0.930 . S
H589 C599 0.930 . S
H590 C601 0.930 . S
H591 C602 0.970 . S
H592 C602 0.970 . S
H593 C604 0.930 . S
H594 C606 0.930 . S
H595 C608 0.930 . S
C596 H588 0.930 . S
C596 C597 1.382 . S
C596 C598 1.426 . S
C597 C596 1.382 . S
C597 C601 1.389 . S
C598 C596 1.426 . S
C598 C599 1.375 . S
C598 C602 1.532 . S
C599 H589 0.930 . S
C599 C598 1.375 . S
C599 C600 1.416 . S
C600 C599 1.416 . S
C600 C601 1.371 . S
C601 H590 0.930 . S
C601 C597 1.389 . S
C601 C600 1.371 . S
C602 H591 0.970 . S
C602 H592 0.970 . S
C602 C598 1.532 . S
C602 C603 1.499 . S
C603 C602 1.499 . S
C603 C604 1.370 . S
C603 C608 1.415 . S
C604 H593 0.930 . S
C604 C603 1.370 . S
C604 C605 1.407 . S
C605 C604 1.407 . S
C605 C606 1.365 . S
C606 H594 0.930 . S
C606 C605 1.365 . S
C606 C607 1.393 . S
C607 C606 1.393 . S
C607 C608 1.387 . S
C608 H595 0.930 . S
C608 C603 1.415 . S
C608 C607 1.387 . S
H609 C617 0.930 . S
H610 C620 0.930 . S
H611 C622 0.930 . S
H612 C623 0.970 . S
H613 C623 0.970 . S
H614 C625 0.930 . S
H615 C627 0.930 . S
H616 C629 0.930 . S
C617 H609 0.930 . S
C617 C618 1.382 . S
C617 C619 1.426 . S
C618 C617 1.382 . S
C618 C622 1.389 . S
C619 C617 1.426 . S
C619 C620 1.375 . S
C619 C623 1.532 . S
C620 H610 0.930 . S
C620 C619 1.375 . S
C620 C621 1.416 . S
C621 C620 1.416 . S
C621 C622 1.371 . S
C622 H611 0.930 . S
C622 C618 1.389 . S
C622 C621 1.371 . S
C623 H612 0.970 . S
C623 H613 0.970 . S
C623 C619 1.532 . S
C623 C624 1.499 . S
C624 C623 1.499 . S
C624 C625 1.370 . S
C624 C629 1.415 . S
C625 H614 0.930 . S
C625 C624 1.370 . S
C625 C626 1.407 . S
C626 C625 1.407 . S
C626 C627 1.365 . S
C627 H615 0.930 . S
C627 C626 1.365 . S
C627 C628 1.393 . S
C628 C627 1.393 . S
C628 C629 1.387 . S
C629 H616 0.930 . S
C629 C624 1.415 . S
C629 C628 1.387 . S
H630 C638 0.929 . S
H631 C640 0.930 . S
H632 C642 0.930 . S
H633 C645 0.929 . S
H634 C648 0.930 . S
H635 C650 0.960 . S
H636 C650 0.960 . S
H637 C650 0.960 . S
C638 H630 0.929 . S
C638 C639 1.364 . S
C638 C640 1.384 . S
C639 C638 1.364 . S
C639 C645 1.370 1_455 S
C640 H631 0.930 . S
C640 C638 1.384 . S
C640 C641 1.382 . S
C641 C640 1.382 . S
C641 C642 1.407 1_455 S
C641 C646 1.465 1_455 S
C642 H632 0.930 . S
C642 C641 1.407 1_655 S
C642 C645 1.386 . S
H643 C659 0.930 . S
H644 C660 0.931 . S
C645 H633 0.929 . S
C645 C639 1.370 1_655 S
C645 C642 1.386 . S
C646 C641 1.465 1_655 S
C646 C648 1.413 . S
C646 C649 1.394 1_655 S
H647 C653 0.930 . S
C648 H634 0.930 . S
C648 C646 1.413 . S
C648 C651 1.403 . S
C649 C646 1.394 1_455 S
C649 C650 1.524 . S
C649 C653 1.400 . S
C650 H635 0.960 . S
C650 H636 0.960 . S
C650 H637 0.960 . S
C650 C649 1.524 . S
C651 C648 1.403 . S
C651 C652 1.392 . S
C651 C655 1.495 . S
C652 C651 1.392 . S
C652 C653 1.385 1_655 S
C652 C654 1.478 . S
C653 H647 0.930 . S
C653 C649 1.400 . S
C653 C652 1.385 1_455 S
C654 C652 1.478 . S
C654 C656 1.381 1_655 S
C654 C660 1.383 . S
C655 C651 1.495 . S
C655 H661 0.959 . S
C655 H662 0.961 . S
C655 H663 0.960 . S
C656 C654 1.381 1_455 S
C656 C657 1.394 . S
C656 H664 0.930 . S
C657 C656 1.394 . S
C657 C658 1.383 1_455 S
C657 H665 0.929 . S
C658 C657 1.383 1_655 S
C658 C659 1.377 . S
C659 H643 0.930 . S
C659 C658 1.377 . S
C659 C660 1.379 . S
C660 H644 0.931 . S
C660 C654 1.383 . S
C660 C659 1.379 . S
H661 C655 0.959 . S
H662 C655 0.961 . S
H663 C655 0.960 . S
H664 C656 0.930 . S
H665 C657 0.929 . S
H666 C674 0.929 . S
H667 C676 0.930 . S
H668 C678 0.930 . S
H669 C681 0.929 . S
H670 C684 0.930 . S
H671 C686 0.960 . S
H672 C686 0.960 . S
H673 C686 0.960 . S
C674 H666 0.929 . S
C674 C675 1.377 . S
C674 C676 1.384 . S
C675 C674 1.377 . S
C675 C681 1.390 . S
C676 H667 0.930 . S
C676 C674 1.384 . S
C676 C677 1.372 . S
C677 C676 1.372 . S
C677 C678 1.400 . S
C677 C682 1.490 . S
C678 H668 0.930 . S
C678 C677 1.400 . S
C678 C681 1.386 . S
H679 C695 0.930 . S
H680 C696 0.931 . S
C681 H669 0.929 . S
C681 C675 1.390 . S
C681 C678 1.386 . S
C682 C677 1.490 . S
C682 C684 1.395 . S
C682 C685 1.403 . S
H683 C689 0.930 . S
C684 H670 0.930 . S
C684 C682 1.395 . S
C684 C687 1.403 . S
C685 C682 1.403 . S
C685 C686 1.524 . S
C685 C689 1.400 . S
C686 H671 0.960 . S
C686 H672 0.960 . S
C686 H673 0.960 . S
C686 C685 1.524 . S
C687 C684 1.403 . S
C687 C688 1.392 . S
C687 C691 1.495 . S
C688 C687 1.392 . S
C688 C689 1.385 . S
C688 C690 1.478 . S
C689 H683 0.930 . S
C689 C685 1.400 . S
C689 C688 1.385 . S
C690 C688 1.478 . S
C690 C692 1.381 . S
C690 C696 1.383 . S
C691 C687 1.495 . S
C691 H697 0.959 . S
C691 H698 0.961 . S
C691 H699 0.960 . S
C692 C690 1.381 . S
C692 C693 1.394 . S
C692 H700 0.930 . S
C693 C692 1.394 . S
C693 C694 1.383 . S
C693 H701 0.929 . S
C694 C693 1.383 . S
C694 C695 1.377 . S
C695 H679 0.930 . S
C695 C694 1.377 . S
C695 C696 1.379 . S
C696 H680 0.931 . S
C696 C690 1.383 . S
C696 C695 1.379 . S
H697 C691 0.959 . S
H698 C691 0.961 . S
H699 C691 0.960 . S
H700 C692 0.930 . S
H701 C693 0.929 . S
H702 C710 0.929 . S
H703 C712 0.930 . S
H704 C714 0.930 . S
H705 C717 0.929 . S
H706 C720 0.930 . S
H707 C722 0.960 . S
H708 C722 0.960 1_565 S
H709 C722 0.960 . S
C710 H702 0.929 . S
C710 C711 1.450 . S
C710 C712 1.384 . S
C711 C710 1.450 . S
C711 C717 1.348 1_565 S
C712 H703 0.930 . S
C712 C710 1.384 . S
C712 C713 1.411 . S
C713 C712 1.411 . S
C713 C714 1.335 1_565 S
C713 C718 1.500 . S
C714 H704 0.930 . S
C714 C713 1.335 1_545 S
C714 C717 1.386 . S
H715 C731 0.930 . S
H716 C732 0.931 . S
C717 H705 0.929 . S
C717 C711 1.348 1_545 S
C717 C714 1.386 . S
C718 C713 1.500 . S
C718 C720 1.421 . S
C718 C721 1.394 1_565 S
H719 C725 0.930 . S
C720 H706 0.930 . S
C720 C718 1.421 . S
C720 C723 1.403 . S
C721 C718 1.394 1_545 S
C721 C722 1.524 . S
C721 C725 1.400 . S
C722 H707 0.960 . S
C722 H708 0.960 1_545 S
C722 H709 0.960 . S
C722 C721 1.524 . S
C723 C720 1.403 . S
C723 C724 1.390 . S
C723 C727 1.495 . S
C724 C723 1.390 . S
C724 C725 1.390 1_565 S
C724 C726 1.499 1_565 S
C725 H719 0.930 . S
C725 C721 1.400 . S
C725 C724 1.390 1_545 S
C726 C724 1.499 1_545 S
C726 C728 1.319 1_545 S
C726 C732 1.423 . S
C727 C723 1.495 . S
C727 H733 0.959 . S
C727 H734 0.932 1_565 S
C727 H735 0.960 . S
C728 C726 1.319 1_565 S
C728 C729 1.394 . S
C728 H736 0.930 . S
C729 C728 1.394 . S
C729 C730 1.383 1_565 S
C729 H737 0.929 . S
C730 C729 1.383 1_545 S
C730 C731 1.377 . S
C731 H715 0.930 . S
C731 C730 1.377 . S
C731 C732 1.379 . S
C732 H716 0.931 . S
C732 C726 1.423 . S
C732 C731 1.379 . S
H733 C727 0.959 . S
H734 C727 0.932 1_545 S
H735 C727 0.960 . S
H736 C728 0.930 . S
H737 C729 0.929 . S
H738 C746 0.929 . S
H739 C748 0.930 . S
H740 C750 0.930 . S
H741 C753 0.929 . S
H742 C756 0.930 . S
H743 C758 0.960 . S
H744 C758 0.960 . S
H745 C758 0.960 . S
C746 H738 0.929 . S
C746 C747 1.372 1_565 S
C746 C748 1.384 . S
C747 C746 1.372 1_545 S
C747 C753 1.383 . S
C748 H739 0.930 . S
C748 C746 1.384 . S
C748 C749 1.362 . S
C749 C748 1.362 . S
C749 C750 1.393 1_565 S
C749 C754 1.489 . S
C750 H740 0.930 . S
C750 C749 1.393 1_545 S
C750 C753 1.386 . S
H751 C767 0.930 . S
H752 C768 0.931 . S
C753 H741 0.929 . S
C753 C747 1.383 . S
C753 C750 1.386 . S
C754 C749 1.489 . S
C754 C756 1.371 1_565 S
C754 C757 1.444 . S
H755 C761 0.930 . S
C756 H742 0.930 . S
C756 C754 1.371 1_545 S
C756 C759 1.403 . S
C757 C754 1.444 . S
C757 C758 1.524 . S
C757 C761 1.400 . S
C758 H743 0.960 . S
C758 H744 0.960 . S
C758 H745 0.960 . S
C758 C757 1.524 . S
C759 C756 1.403 . S
C759 C760 1.427 . S
C759 C763 1.495 . S
C760 C759 1.427 . S
C760 C761 1.365 1_545 S
C760 C762 1.476 . S
C761 H755 0.930 . S
C761 C757 1.400 . S
C761 C760 1.365 1_565 S
C762 C760 1.476 . S
C762 C764 1.372 1_545 S
C762 C768 1.377 . S
C763 C759 1.495 . S
C763 H769 0.959 . S
C763 H770 0.961 . S
C763 H771 0.960 . S
C764 C762 1.372 1_565 S
C764 C765 1.394 . S
C764 H772 0.930 . S
C765 C764 1.394 . S
C765 C766 1.383 . S
C765 H773 0.929 . S
C766 C765 1.383 . S
C766 C767 1.377 1_565 S
C767 H751 0.930 . S
C767 C766 1.377 1_545 S
C767 C768 1.379 . S
C768 H752 0.931 . S
C768 C762 1.377 . S
C768 C767 1.379 . S
H769 C763 0.959 . S
H770 C763 0.961 . S
H771 C763 0.960 . S
H772 C764 0.930 . S
H773 C765 0.929 . S
H774 C782 0.929 . S
H775 C784 0.930 . S
H776 C786 0.930 . S
H777 C789 0.929 . S
H778 C792 0.930 . S
H779 C794 0.960 . S
H780 C794 0.960 . S
H781 C794 0.960 . S
C782 H774 0.929 . S
C782 C783 1.399 . S
C782 C784 1.384 . S
C783 C782 1.399 . S
C783 C789 1.386 1_655 S
C784 H775 0.930 . S
C784 C782 1.384 . S
C784 C785 1.373 . S
C785 C784 1.373 . S
C785 C786 1.393 1_655 S
C785 C790 1.485 . S
C786 H776 0.930 . S
C786 C785 1.393 1_455 S
C786 C789 1.386 . S
H787 C803 0.930 . S
H788 C804 0.931 . S
C789 H777 0.929 . S
C789 C783 1.386 1_455 S
C789 C786 1.386 . S
C790 C785 1.485 . S
C790 C792 1.421 . S
C790 C793 1.388 1_655 S
H791 C797 0.930 . S
C792 H778 0.930 . S
C792 C790 1.421 . S
C792 C795 1.403 . S
C793 C790 1.388 1_455 S
C793 C794 1.524 . S
C793 C797 1.400 . S
C794 H779 0.960 . S
C794 H780 0.960 . S
C794 H781 0.960 . S
C794 C793 1.524 . S
C795 C792 1.403 . S
C795 C796 1.392 . S
C795 C799 1.495 . S
C796 C795 1.392 . S
C796 C797 1.385 1_655 S
C796 C798 1.478 . S
C797 H791 0.930 . S
C797 C793 1.400 . S
C797 C796 1.385 1_455 S
C798 C796 1.478 . S
C798 C800 1.381 . S
C798 C804 1.383 1_655 S
C799 C795 1.495 . S
C799 H805 0.959 . S
C799 H806 0.961 . S
C799 H807 0.960 . S
C800 C798 1.381 . S
C800 C801 1.394 . S
C800 H808 0.930 . S
C801 C800 1.394 . S
C801 C802 1.383 1_655 S
C801 H809 0.929 . S
C802 C801 1.383 1_455 S
C802 C803 1.377 . S
C803 H787 0.930 . S
C803 C802 1.377 . S
C803 C804 1.379 . S
C804 H788 0.931 . S
C804 C798 1.383 1_455 S
C804 C803 1.379 . S
H805 C799 0.959 . S
H806 C799 0.961 . S
H807 C799 0.960 . S
H808 C800 0.930 . S
H809 C801 0.929 . S
H810 C818 0.929 . S
H811 C820 0.930 . S
H812 C822 0.930 . S
H813 C825 0.929 . S
H814 C828 0.930 . S
H815 C830 0.960 . S
H816 C830 0.960 . S
H817 C830 0.960 . S
C818 H810 0.929 . S
C818 C819 1.377 . S
C818 C820 1.384 . S
C819 C818 1.377 . S
C819 C825 1.390 . S
C820 H811 0.930 . S
C820 C818 1.384 . S
C820 C821 1.372 . S
C821 C820 1.372 . S
C821 C822 1.400 . S
C821 C826 1.490 . S
C822 H812 0.930 . S
C822 C821 1.400 . S
C822 C825 1.386 . S
H823 C839 0.930 . S
H824 C840 0.931 . S
C825 H813 0.929 . S
C825 C819 1.390 . S
C825 C822 1.386 . S
C826 C821 1.490 . S
C826 C828 1.395 . S
C826 C829 1.403 . S
H827 C833 0.930 . S
C828 H814 0.930 . S
C828 C826 1.395 . S
C828 C831 1.403 . S
C829 C826 1.403 . S
C829 C830 1.524 . S
C829 C833 1.400 . S
C830 H815 0.960 . S
C830 H816 0.960 . S
C830 H817 0.960 . S
C830 C829 1.524 . S
C831 C828 1.403 . S
C831 C832 1.392 . S
C831 C835 1.495 . S
C832 C831 1.392 . S
C832 C833 1.385 . S
C832 C834 1.478 . S
C833 H827 0.930 . S
C833 C829 1.400 . S
C833 C832 1.385 . S
C834 C832 1.478 . S
C834 C836 1.381 . S
C834 C840 1.383 . S
C835 C831 1.495 . S
C835 H841 0.959 . S
C835 H842 0.961 . S
C835 H843 0.960 . S
C836 C834 1.381 . S
C836 C837 1.394 . S
C836 H844 0.930 . S
C837 C836 1.394 . S
C837 C838 1.383 . S
C837 H845 0.929 . S
C838 C837 1.383 . S
C838 C839 1.377 . S
C839 H823 0.930 . S
C839 C838 1.377 . S
C839 C840 1.379 . S
C840 H824 0.931 . S
C840 C834 1.383 . S
C840 C839 1.379 . S
H841 C835 0.959 . S
H842 C835 0.961 . S
H843 C835 0.960 . S
H844 C836 0.930 . S
H845 C837 0.929 . S
H846 C854 0.929 . S
H847 C856 0.930 . S
H848 C858 0.930 . S
H849 C861 0.929 . S
H850 C864 0.930 . S
H851 C866 0.960 . S
H852 C866 0.960 . S
H853 C866 0.960 . S
C854 H846 0.929 . S
C854 C855 1.418 . S
C854 C856 1.384 . S
C855 C854 1.418 . S
C855 C861 1.319 1_655 S
C856 H847 0.930 . S
C856 C854 1.384 . S
C856 C857 1.372 . S
C857 C856 1.372 . S
C857 C858 1.400 1_655 S
C857 C862 1.490 . S
C858 H848 0.930 . S
C858 C857 1.400 1_455 S
C858 C861 1.386 . S
H859 C875 0.930 . S
H860 C876 0.931 . S
C861 H849 0.929 . S
C861 C855 1.319 1_455 S
C861 C858 1.386 . S
C862 C857 1.490 . S
C862 C864 1.395 . S
C862 C865 1.403 1_655 S
H863 C869 0.930 . S
C864 H850 0.930 . S
C864 C862 1.395 . S
C864 C867 1.403 . S
C865 C862 1.403 1_455 S
C865 C866 1.524 . S
C865 C869 1.400 . S
C866 H851 0.960 . S
C866 H852 0.960 . S
C866 H853 0.960 . S
C866 C865 1.524 . S
C867 C864 1.403 . S
C867 C868 1.392 . S
C867 C871 1.495 . S
C868 C867 1.392 . S
C868 C869 1.385 1_655 S
C868 C870 1.478 . S
C869 H863 0.930 . S
C869 C865 1.400 . S
C869 C868 1.385 1_455 S
C870 C868 1.478 . S
C870 C872 1.381 . S
C870 C876 1.383 1_655 S
C871 C867 1.495 . S
C871 H877 0.959 . S
C871 H878 0.961 . S
C871 H879 0.960 . S
C872 C870 1.381 . S
C872 C873 1.394 . S
C872 H880 0.930 . S
C873 C872 1.394 . S
C873 C874 1.405 . S
C873 H881 0.929 . S
C874 C873 1.405 . S
C874 C875 1.367 1_655 S
C875 H859 0.930 . S
C875 C874 1.367 1_455 S
C875 C876 1.379 . S
C876 H860 0.931 . S
C876 C870 1.383 1_455 S
C876 C875 1.379 . S
H877 C871 0.959 . S
H878 C871 0.961 . S
H879 C871 0.960 . S
H880 C872 0.930 . S
H881 C873 0.929 . S
H882 C890 0.929 . S
H883 C892 0.930 . S
H884 C894 0.930 . S
H885 C897 0.929 . S
H886 C900 0.930 . S
H887 C902 0.960 . S
H888 C902 0.960 . S
H889 C902 0.960 . S
C890 H882 0.929 . S
C890 C891 1.377 . S
C890 C892 1.384 . S
C891 C890 1.377 . S
C891 C897 1.390 . S
C892 H883 0.930 . S
C892 C890 1.384 . S
C892 C893 1.372 . S
C893 C892 1.372 . S
C893 C894 1.400 . S
C893 C898 1.490 . S
C894 H884 0.930 . S
C894 C893 1.400 . S
C894 C897 1.386 . S
H895 C911 0.930 . S
H896 C912 0.931 . S
C897 H885 0.929 . S
C897 C891 1.390 . S
C897 C894 1.386 . S
C898 C893 1.490 . S
C898 C900 1.395 . S
C898 C901 1.403 . S
H899 C905 0.930 . S
C900 H886 0.930 . S
C900 C898 1.395 . S
C900 C903 1.403 . S
C901 C898 1.403 . S
C901 C902 1.524 . S
C901 C905 1.400 . S
C902 H887 0.960 . S
C902 H888 0.960 . S
C902 H889 0.960 . S
C902 C901 1.524 . S
C903 C900 1.403 . S
C903 C904 1.392 . S
C903 C907 1.495 . S
C904 C903 1.392 . S
C904 C905 1.385 . S
C904 C906 1.478 . S
C905 H899 0.930 . S
C905 C901 1.400 . S
C905 C904 1.385 . S
C906 C904 1.478 . S
C906 C908 1.381 . S
C906 C912 1.383 . S
C907 C903 1.495 . S
C907 H913 0.959 . S
C907 H914 0.961 . S
C907 H915 0.960 . S
C908 C906 1.381 . S
C908 C909 1.394 . S
C908 H916 0.930 . S
C909 C908 1.394 . S
C909 C910 1.383 . S
C909 H917 0.929 . S
C910 C909 1.383 . S
C910 C911 1.377 . S
C911 H895 0.930 . S
C911 C910 1.377 . S
C911 C912 1.379 . S
C912 H896 0.931 . S
C912 C906 1.383 . S
C912 C911 1.379 . S
H913 C907 0.959 . S
H914 C907 0.961 . S
H915 C907 0.960 . S
H916 C908 0.930 . S
H917 C909 0.929 . S
H918 C926 0.929 . S
H919 C928 0.930 . S
H920 C930 0.930 . S
H921 C933 0.929 . S
H922 C936 0.930 . S
H923 C938 0.960 . S
H924 C938 0.960 1_545 S
H925 C938 0.960 . S
C926 H918 0.929 . S
C926 C927 1.457 . S
C926 C928 1.384 . S
C927 C926 1.457 . S
C927 C933 1.353 1_545 S
C928 H919 0.930 . S
C928 C926 1.384 . S
C928 C929 1.372 . S
C929 C928 1.372 . S
C929 C930 1.400 1_545 S
C929 C934 1.490 . S
C930 H920 0.930 . S
C930 C929 1.400 1_565 S
C930 C933 1.386 . S
H931 C947 0.930 . S
H932 C948 0.931 . S
C933 H921 0.929 . S
C933 C927 1.353 1_565 S
C933 C930 1.386 . S
C934 C929 1.490 . S
C934 C936 1.395 . S
C934 C937 1.403 1_545 S
H935 C941 0.930 . S
C936 H922 0.930 . S
C936 C934 1.395 . S
C936 C939 1.403 . S
C937 C934 1.403 1_565 S
C937 C938 1.524 . S
C937 C941 1.400 . S
C938 H923 0.960 . S
C938 H924 0.960 1_565 S
C938 H925 0.960 . S
C938 C937 1.524 . S
C939 C936 1.403 . S
C939 C940 1.392 . S
C939 C943 1.495 . S
C940 C939 1.392 . S
C940 C941 1.385 1_545 S
C940 C942 1.451 . S
C941 H935 0.930 . S
C941 C937 1.400 . S
C941 C940 1.385 1_565 S
C942 C940 1.451 . S
C942 C944 1.448 . S
C942 C948 1.348 1_545 S
C943 C939 1.495 . S
C943 H949 0.959 . S
C943 H950 0.961 1_545 S
C943 H951 0.960 . S
C944 C942 1.448 . S
C944 C945 1.394 . S
C944 H952 0.930 . S
C945 C944 1.394 . S
C945 C946 1.382 . S
C945 H953 0.929 . S
C946 C945 1.382 . S
C946 C947 1.379 1_545 S
C947 H931 0.930 . S
C947 C946 1.379 1_565 S
C947 C948 1.379 . S
C948 H932 0.931 . S
C948 C942 1.348 1_565 S
C948 C947 1.379 . S
H949 C943 0.959 . S
H950 C943 0.961 1_565 S
H951 C943 0.960 . S
H952 C944 0.930 . S
H953 C945 0.929 . S
H954 C962 0.936 . S
H955 C964 0.907 . S
H956 C966 0.928 . S
H957 C969 0.979 . S
H958 C972 0.930 . S
H959 C974 0.960 . S
H960 C974 0.960 . S
H961 C974 0.960 . S
C962 H954 0.936 . S
C962 C963 1.342 1_545 S
C962 C964 1.384 . S
C963 C962 1.342 1_565 S
C963 C969 1.385 . S
C964 H955 0.907 . S
C964 C962 1.384 . S
C964 C965 1.368 1_545 S
C965 C964 1.368 1_565 S
C965 C966 1.369 . S
C965 C970 1.504 . S
C966 H956 0.928 . S
C966 C965 1.369 . S
C966 C969 1.376 . S
H967 C983 0.930 . S
H968 C984 0.931 . S
C969 H957 0.979 . S
C969 C963 1.385 . S
C969 C966 1.376 . S
C970 C965 1.504 . S
C970 C972 1.408 . S
C970 C973 1.375 1_565 S
H971 C977 0.930 . S
C972 H958 0.930 . S
C972 C970 1.408 . S
C972 C975 1.403 . S
C973 C970 1.375 1_545 S
C973 C974 1.524 . S
C973 C977 1.400 . S
C974 H959 0.960 . S
C974 H960 0.960 . S
C974 H961 0.960 . S
C974 C973 1.524 . S
C975 C972 1.403 . S
C975 C976 1.392 . S
C975 C979 1.495 . S
C976 C975 1.392 . S
C976 C977 1.385 1_565 S
C976 C978 1.478 . S
C977 H971 0.930 . S
C977 C973 1.400 . S
C977 C976 1.385 1_545 S
C978 C976 1.478 . S
C978 C980 1.381 1_565 S
C978 C984 1.383 . S
C979 C975 1.495 . S
C979 H985 0.959 . S
C979 H986 0.961 . S
C979 H987 0.960 . S
C980 C978 1.381 1_545 S
C980 C981 1.394 . S
C980 H988 0.930 . S
C981 C980 1.394 . S
C981 C982 1.373 1_545 S
C981 H989 0.929 . S
C982 C981 1.373 1_565 S
C982 C983 1.416 . S
C983 H967 0.930 . S
C983 C982 1.416 . S
C983 C984 1.379 . S
C984 H968 0.931 . S
C984 C978 1.383 . S
C984 C983 1.379 . S
H985 C979 0.959 . S
H986 C979 0.961 . S
H987 C979 0.960 . S
H988 C980 0.930 . S
H989 C981 0.929 . S
H990 C998 0.929 . S
H991 C1000 0.930 . S
H992 C1002 0.930 . S
H993 C1005 0.929 . S
H994 C1008 0.930 . S
H995 C1010 0.960 . S
H996 C1010 0.960 . S
H997 C1010 0.960 . S
C998 H990 0.929 . S
C998 C999 1.455 . S
C998 C1000 1.384 . S
C999 C998 1.455 . S
C999 C1005 1.347 1_455 S
C1000 H991 0.930 . S
C1000 C998 1.384 . S
C1000 C1001 1.372 . S
C1001 C1000 1.372 . S
C1001 C1002 1.400 1_455 S
C1001 C1006 1.490 . S
C1002 H992 0.930 . S
C1002 C1001 1.400 1_655 S
C1002 C1005 1.386 . S
H1003 C1019 0.930 . S
H1004 C1020 0.931 . S
C1005 H993 0.929 . S
C1005 C999 1.347 1_655 S
C1005 C1002 1.386 . S
C1006 C1001 1.490 . S
C1006 C1008 1.395 . S
C1006 C1009 1.403 1_455 S
H1007 C1013 0.930 . S
C1008 H994 0.930 . S
C1008 C1006 1.395 . S
C1008 C1011 1.403 . S
C1009 C1006 1.403 1_655 S
C1009 C1010 1.524 . S
C1009 C1013 1.400 . S
C1010 H995 0.960 . S
C1010 H996 0.960 . S
C1010 H997 0.960 . S
C1010 C1009 1.524 . S
C1011 C1008 1.403 . S
C1011 C1012 1.392 . S
C1011 C1015 1.495 . S
C1012 C1011 1.392 . S
C1012 C1013 1.385 1_455 S
C1012 C1014 1.478 . S
C1013 H1007 0.930 . S
C1013 C1009 1.400 . S
C1013 C1012 1.385 1_655 S
C1014 C1012 1.478 . S
C1014 C1016 1.381 . S
C1014 C1020 1.383 1_455 S
C1015 C1011 1.495 . S
C1015 H1021 0.959 . S
C1015 H1022 0.961 . S
C1015 H1023 0.960 . S
C1016 C1014 1.381 . S
C1016 C1017 1.394 . S
C1016 H1024 0.930 . S
C1017 C1016 1.394 . S
C1017 C1018 1.431 . S
C1017 H1025 0.929 . S
C1018 C1017 1.431 . S
C1018 C1019 1.302 1_455 S
C1019 H1003 0.930 . S
C1019 C1018 1.302 1_655 S
C1019 C1020 1.379 . S
C1020 H1004 0.931 . S
C1020 C1014 1.383 1_655 S
C1020 C1019 1.379 . S
H1021 C1015 0.959 . S
H1022 C1015 0.961 . S
H1023 C1015 0.960 . S
H1024 C1016 0.930 . S
H1025 C1017 0.929 . S
H1026 C1034 0.929 . S
H1027 C1036 0.930 . S
H1028 C1038 0.930 . S
H1029 C1041 0.929 . S
H1030 C1044 0.930 . S
H1031 C1046 0.960 . S
H1032 C1046 0.960 . S
H1033 C1046 0.960 . S
C1034 H1026 0.929 . S
C1034 C1035 1.377 . S
C1034 C1036 1.384 . S
C1035 C1034 1.377 . S
C1035 C1041 1.390 . S
C1036 H1027 0.930 . S
C1036 C1034 1.384 . S
C1036 C1037 1.372 . S
C1037 C1036 1.372 . S
C1037 C1038 1.400 . S
C1037 C1042 1.490 . S
C1038 H1028 0.930 . S
C1038 C1037 1.400 . S
C1038 C1041 1.386 . S
H1039 C1055 0.930 . S
H1040 C1056 0.931 . S
C1041 H1029 0.929 . S
C1041 C1035 1.390 . S
C1041 C1038 1.386 . S
C1042 C1037 1.490 . S
C1042 C1044 1.395 . S
C1042 C1045 1.403 . S
H1043 C1049 0.930 . S
C1044 H1030 0.930 . S
C1044 C1042 1.395 . S
C1044 C1047 1.403 . S
C1045 C1042 1.403 . S
C1045 C1046 1.524 . S
C1045 C1049 1.400 . S
C1046 H1031 0.960 . S
C1046 H1032 0.960 . S
C1046 H1033 0.960 . S
C1046 C1045 1.524 . S
C1047 C1044 1.403 . S
C1047 C1048 1.392 . S
C1047 C1051 1.495 . S
C1048 C1047 1.392 . S
C1048 C1049 1.385 . S
C1048 C1050 1.478 . S
C1049 H1043 0.930 . S
C1049 C1045 1.400 . S
C1049 C1048 1.385 . S
C1050 C1048 1.478 . S
C1050 C1052 1.381 . S
C1050 C1056 1.383 . S
C1051 C1047 1.495 . S
C1051 H1057 0.959 . S
C1051 H1058 0.961 . S
C1051 H1059 0.960 . S
C1052 C1050 1.381 . S
C1052 C1053 1.394 . S
C1052 H1060 0.930 . S
C1053 C1052 1.394 . S
C1053 C1054 1.383 . S
C1053 H1061 0.929 . S
C1054 C1053 1.383 . S
C1054 C1055 1.377 . S
C1055 H1039 0.930 . S
C1055 C1054 1.377 . S
C1055 C1056 1.379 . S
C1056 H1040 0.931 . S
C1056 C1050 1.383 . S
C1056 C1055 1.379 . S
H1057 C1051 0.959 . S
H1058 C1051 0.961 . S
H1059 C1051 0.960 . S
H1060 C1052 0.930 . S
H1061 C1053 0.929 . S
H1062 C1070 0.929 . S
H1063 C1072 0.930 . S
H1064 C1074 0.930 . S
H1065 C1077 0.929 . S
H1066 C1080 0.930 . S
H1067 C1082 0.960 . S
H1068 C1082 0.960 . S
H1069 C1082 0.960 . S
C1070 H1062 0.929 . S
C1070 C1071 1.377 . S
C1070 C1072 1.384 . S
C1071 C1070 1.377 . S
C1071 C1077 1.390 . S
C1072 H1063 0.930 . S
C1072 C1070 1.384 . S
C1072 C1073 1.372 . S
C1073 C1072 1.372 . S
C1073 C1074 1.400 . S
C1073 C1078 1.490 . S
C1074 H1064 0.930 . S
C1074 C1073 1.400 . S
C1074 C1077 1.386 . S
H1075 C1091 0.930 . S
H1076 C1092 0.931 . S
C1077 H1065 0.929 . S
C1077 C1071 1.390 . S
C1077 C1074 1.386 . S
C1078 C1073 1.490 . S
C1078 C1080 1.395 . S
C1078 C1081 1.403 . S
H1079 C1085 0.930 . S
C1080 H1066 0.930 . S
C1080 C1078 1.395 . S
C1080 C1083 1.403 . S
C1081 C1078 1.403 . S
C1081 C1082 1.524 . S
C1081 C1085 1.400 . S
C1082 H1067 0.960 . S
C1082 H1068 0.960 . S
C1082 H1069 0.960 . S
C1082 C1081 1.524 . S
C1083 C1080 1.403 . S
C1083 C1084 1.392 . S
C1083 C1087 1.495 . S
C1084 C1083 1.392 . S
C1084 C1085 1.385 . S
C1084 C1086 1.478 . S
C1085 H1079 0.930 . S
C1085 C1081 1.400 . S
C1085 C1084 1.385 . S
C1086 C1084 1.478 . S
C1086 C1088 1.381 . S
C1086 C1092 1.383 . S
C1087 C1083 1.495 . S
C1087 H1093 0.959 . S
C1087 H1094 0.961 . S
C1087 H1095 0.960 . S
C1088 C1086 1.381 . S
C1088 C1089 1.394 . S
C1088 H1096 0.930 . S
C1089 C1088 1.394 . S
C1089 C1090 1.383 . S
C1089 H1097 0.929 . S
C1090 C1089 1.383 . S
C1090 C1091 1.377 . S
C1091 H1075 0.930 . S
C1091 C1090 1.377 . S
C1091 C1092 1.379 . S
C1092 H1076 0.931 . S
C1092 C1086 1.383 . S
C1092 C1091 1.379 . S
H1093 C1087 0.959 . S
H1094 C1087 0.961 . S
H1095 C1087 0.960 . S
H1096 C1088 0.930 . S
H1097 C1089 0.929 . S
H1098 C1106 0.929 . S
H1099 C1108 0.930 . S
H1100 C1110 0.930 . S
H1101 C1113 0.929 . S
H1102 C1116 0.930 . S
H1103 C1118 0.960 . S
H1104 C1118 0.960 . S
H1105 C1118 0.960 . S
C1106 H1098 0.929 . S
C1106 C1107 1.377 . S
C1106 C1108 1.384 . S
C1107 C1106 1.377 . S
C1107 C1113 1.390 . S
C1108 H1099 0.930 . S
C1108 C1106 1.384 . S
C1108 C1109 1.372 . S
C1109 C1108 1.372 . S
C1109 C1110 1.400 . S
C1109 C1114 1.490 . S
C1110 H1100 0.930 . S
C1110 C1109 1.400 . S
C1110 C1113 1.386 . S
H1111 C1127 0.930 . S
H1112 C1128 0.931 . S
C1113 H1101 0.929 . S
C1113 C1107 1.390 . S
C1113 C1110 1.386 . S
C1114 C1109 1.490 . S
C1114 C1116 1.395 . S
C1114 C1117 1.403 . S
H1115 C1121 0.930 . S
C1116 H1102 0.930 . S
C1116 C1114 1.395 . S
C1116 C1119 1.403 . S
C1117 C1114 1.403 . S
C1117 C1118 1.524 . S
C1117 C1121 1.400 . S
C1118 H1103 0.960 . S
C1118 H1104 0.960 . S
C1118 H1105 0.960 . S
C1118 C1117 1.524 . S
C1119 C1116 1.403 . S
C1119 C1120 1.392 . S
C1119 C1123 1.495 . S
C1120 C1119 1.392 . S
C1120 C1121 1.385 . S
C1120 C1122 1.478 . S
C1121 H1115 0.930 . S
C1121 C1117 1.400 . S
C1121 C1120 1.385 . S
C1122 C1120 1.478 . S
C1122 C1124 1.381 . S
C1122 C1128 1.383 . S
C1123 C1119 1.495 . S
C1123 H1129 0.959 . S
C1123 H1130 0.961 . S
C1123 H1131 0.960 . S
C1124 C1122 1.381 . S
C1124 C1125 1.394 . S
C1124 H1132 0.930 . S
C1125 C1124 1.394 . S
C1125 C1126 1.383 . S
C1125 H1133 0.929 . S
C1126 C1125 1.383 . S
C1126 C1127 1.377 . S
C1127 H1111 0.930 . S
C1127 C1126 1.377 . S
C1127 C1128 1.379 . S
C1128 H1112 0.931 . S
C1128 C1122 1.383 . S
C1128 C1127 1.379 . S
H1129 C1123 0.959 . S
H1130 C1123 0.961 . S
H1131 C1123 0.960 . S
H1132 C1124 0.930 . S
H1133 C1125 0.929 . S
H1134 C1142 0.929 . S
H1135 C1144 0.930 . S
H1136 C1146 0.930 . S
H1137 C1149 0.929 . S
H1138 C1152 0.930 . S
H1139 C1154 0.960 . S
H1140 C1154 0.960 . S
H1141 C1154 0.960 . S
C1142 H1134 0.929 . S
C1142 C1143 1.377 . S
C1142 C1144 1.384 . S
C1143 C1142 1.377 . S
C1143 C1149 1.390 . S
C1144 H1135 0.930 . S
C1144 C1142 1.384 . S
C1144 C1145 1.372 . S
C1145 C1144 1.372 . S
C1145 C1146 1.400 . S
C1145 C1150 1.490 . S
C1146 H1136 0.930 . S
C1146 C1145 1.400 . S
C1146 C1149 1.386 . S
H1147 C1163 0.930 . S
H1148 C1164 0.931 . S
C1149 H1137 0.929 . S
C1149 C1143 1.390 . S
C1149 C1146 1.386 . S
C1150 C1145 1.490 . S
C1150 C1152 1.395 . S
C1150 C1153 1.403 . S
H1151 C1157 0.930 . S
C1152 H1138 0.930 . S
C1152 C1150 1.395 . S
C1152 C1155 1.403 . S
C1153 C1150 1.403 . S
C1153 C1154 1.524 . S
C1153 C1157 1.400 . S
C1154 H1139 0.960 . S
C1154 H1140 0.960 . S
C1154 H1141 0.960 . S
C1154 C1153 1.524 . S
C1155 C1152 1.403 . S
C1155 C1156 1.392 . S
C1155 C1159 1.495 . S
C1156 C1155 1.392 . S
C1156 C1157 1.385 . S
C1156 C1158 1.478 . S
C1157 H1151 0.930 . S
C1157 C1153 1.400 . S
C1157 C1156 1.385 . S
C1158 C1156 1.478 . S
C1158 C1160 1.381 . S
C1158 C1164 1.383 . S
C1159 C1155 1.495 . S
C1159 H1165 0.959 . S
C1159 H1166 0.961 . S
C1159 H1167 0.960 . S
C1160 C1158 1.381 . S
C1160 C1161 1.394 . S
C1160 H1168 0.930 . S
C1161 C1160 1.394 . S
C1161 C1162 1.383 . S
C1161 H1169 0.929 . S
C1162 C1161 1.383 . S
C1162 C1163 1.377 . S
C1163 H1147 0.930 . S
C1163 C1162 1.377 . S
C1163 C1164 1.379 . S
C1164 H1148 0.931 . S
C1164 C1158 1.383 . S
C1164 C1163 1.379 . S
H1165 C1159 0.959 . S
H1166 C1159 0.961 . S
H1167 C1159 0.960 . S
H1168 C1160 0.930 . S
H1169 C1161 0.929 . S
H1170 C1178 0.929 . S
H1171 C1180 0.930 . S
H1172 C1182 0.930 . S
H1173 C1185 0.929 . S
H1174 C1188 0.930 . S
H1175 C1190 0.960 . S
H1176 C1190 0.960 . S
H1177 C1190 0.960 . S
C1178 H1170 0.929 . S
C1178 C1179 1.377 . S
C1178 C1180 1.384 . S
C1179 C1178 1.377 . S
C1179 C1185 1.390 . S
C1180 H1171 0.930 . S
C1180 C1178 1.384 . S
C1180 C1181 1.372 . S
C1181 C1180 1.372 . S
C1181 C1182 1.400 . S
C1181 C1186 1.490 . S
C1182 H1172 0.930 . S
C1182 C1181 1.400 . S
C1182 C1185 1.386 . S
H1183 C1199 0.930 . S
H1184 C1200 0.931 . S
C1185 H1173 0.929 . S
C1185 C1179 1.390 . S
C1185 C1182 1.386 . S
C1186 C1181 1.490 . S
C1186 C1188 1.395 . S
C1186 C1189 1.403 . S
H1187 C1193 0.930 . S
C1188 H1174 0.930 . S
C1188 C1186 1.395 . S
C1188 C1191 1.403 . S
C1189 C1186 1.403 . S
C1189 C1190 1.524 . S
C1189 C1193 1.400 . S
C1190 H1175 0.960 . S
C1190 H1176 0.960 . S
C1190 H1177 0.960 . S
C1190 C1189 1.524 . S
C1191 C1188 1.403 . S
C1191 C1192 1.392 . S
C1191 C1195 1.495 . S
C1192 C1191 1.392 . S
C1192 C1193 1.385 . S
C1192 C1194 1.478 . S
C1193 H1187 0.930 . S
C1193 C1189 1.400 . S
C1193 C1192 1.385 . S
C1194 C1192 1.478 . S
C1194 C1196 1.381 . S
C1194 C1200 1.383 . S
C1195 C1191 1.495 . S
C1195 H1201 0.959 . S
C1195 H1202 0.961 . S
C1195 H1203 0.960 . S
C1196 C1194 1.381 . S
C1196 C1197 1.394 . S
C1196 H1204 0.930 . S
C1197 C1196 1.394 . S
C1197 C1198 1.383 . S
C1197 H1205 0.929 . S
C1198 C1197 1.383 . S
C1198 C1199 1.377 . S
C1199 H1183 0.930 . S
C1199 C1198 1.377 . S
C1199 C1200 1.379 . S
C1200 H1184 0.931 . S
C1200 C1194 1.383 . S
C1200 C1199 1.379 . S
H1201 C1195 0.959 . S
H1202 C1195 0.961 . S
H1203 C1195 0.960 . S
H1204 C1196 0.930 . S
H1205 C1197 0.929 . S
H1206 C1214 0.929 . S
H1207 C1216 0.930 . S
H1208 C1218 0.930 . S
H1209 C1221 0.929 . S
H1210 C1224 0.930 . S
H1211 C1226 0.960 . S
H1212 C1226 0.960 . S
H1213 C1226 0.960 . S
C1214 H1206 0.929 . S
C1214 C1215 1.377 . S
C1214 C1216 1.384 . S
C1215 C1214 1.377 . S
C1215 C1221 1.390 . S
C1216 H1207 0.930 . S
C1216 C1214 1.384 . S
C1216 C1217 1.372 . S
C1217 C1216 1.372 . S
C1217 C1218 1.400 . S
C1217 C1222 1.490 . S
C1218 H1208 0.930 . S
C1218 C1217 1.400 . S
C1218 C1221 1.386 . S
H1219 C1235 0.930 . S
H1220 C1236 0.931 . S
C1221 H1209 0.929 . S
C1221 C1215 1.390 . S
C1221 C1218 1.386 . S
C1222 C1217 1.490 . S
C1222 C1224 1.395 . S
C1222 C1225 1.403 . S
H1223 C1229 0.930 . S
C1224 H1210 0.930 . S
C1224 C1222 1.395 . S
C1224 C1227 1.403 . S
C1225 C1222 1.403 . S
C1225 C1226 1.524 . S
C1225 C1229 1.400 . S
C1226 H1211 0.960 . S
C1226 H1212 0.960 . S
C1226 H1213 0.960 . S
C1226 C1225 1.524 . S
C1227 C1224 1.403 . S
C1227 C1228 1.392 . S
C1227 C1231 1.495 . S
C1228 C1227 1.392 . S
C1228 C1229 1.385 . S
C1228 C1230 1.478 . S
C1229 H1223 0.930 . S
C1229 C1225 1.400 . S
C1229 C1228 1.385 . S
C1230 C1228 1.478 . S
C1230 C1232 1.381 . S
C1230 C1236 1.383 . S
C1231 C1227 1.495 . S
C1231 H1237 0.959 . S
C1231 H1238 0.961 . S
C1231 H1239 0.960 . S
C1232 C1230 1.381 . S
C1232 C1233 1.394 . S
C1232 H1240 0.930 . S
C1233 C1232 1.394 . S
C1233 C1234 1.383 . S
C1233 H1241 0.929 . S
C1234 C1233 1.383 . S
C1234 C1235 1.377 . S
C1235 H1219 0.930 . S
C1235 C1234 1.377 . S
C1235 C1236 1.379 . S
C1236 H1220 0.931 . S
C1236 C1230 1.383 . S
C1236 C1235 1.379 . S
H1237 C1231 0.959 . S
H1238 C1231 0.961 . S
H1239 C1231 0.960 . S
H1240 C1232 0.930 . S
H1241 C1233 0.929 . S
H1242 C1250 0.929 . S
H1243 C1252 0.930 . S
H1244 C1254 0.930 . S
H1245 C1257 0.929 . S
H1246 C1260 0.930 . S
H1247 C1262 0.960 . S
H1248 C1262 0.960 . S
H1249 C1262 0.960 . S
C1250 H1242 0.929 . S
C1250 C1251 1.377 . S
C1250 C1252 1.384 . S
C1251 C1250 1.377 . S
C1251 C1257 1.390 . S
C1252 H1243 0.930 . S
C1252 C1250 1.384 . S
C1252 C1253 1.372 . S
C1253 C1252 1.372 . S
C1253 C1254 1.400 . S
C1253 C1258 1.490 . S
C1254 H1244 0.930 . S
C1254 C1253 1.400 . S
C1254 C1257 1.386 . S
H1255 C1271 0.930 . S
H1256 C1272 0.931 . S
C1257 H1245 0.929 . S
C1257 C1251 1.390 . S
C1257 C1254 1.386 . S
C1258 C1253 1.490 . S
C1258 C1260 1.395 . S
C1258 C1261 1.403 . S
H1259 C1265 0.930 . S
C1260 H1246 0.930 . S
C1260 C1258 1.395 . S
C1260 C1263 1.403 . S
C1261 C1258 1.403 . S
C1261 C1262 1.524 . S
C1261 C1265 1.400 . S
C1262 H1247 0.960 . S
C1262 H1248 0.960 . S
C1262 H1249 0.960 . S
C1262 C1261 1.524 . S
C1263 C1260 1.403 . S
C1263 C1264 1.392 . S
C1263 C1267 1.495 . S
C1264 C1263 1.392 . S
C1264 C1265 1.385 . S
C1264 C1266 1.478 . S
C1265 H1259 0.930 . S
C1265 C1261 1.400 . S
C1265 C1264 1.385 . S
C1266 C1264 1.478 . S
C1266 C1268 1.381 . S
C1266 C1272 1.383 . S
C1267 C1263 1.495 . S
C1267 H1273 0.959 . S
C1267 H1274 0.961 . S
C1267 H1275 0.960 . S
C1268 C1266 1.381 . S
C1268 C1269 1.394 . S
C1268 H1276 0.930 . S
C1269 C1268 1.394 . S
C1269 C1270 1.383 . S
C1269 H1277 0.929 . S
C1270 C1269 1.383 . S
C1270 C1271 1.377 . S
C1271 H1255 0.930 . S
C1271 C1270 1.377 . S
C1271 C1272 1.379 . S
C1272 H1256 0.931 . S
C1272 C1266 1.383 . S
C1272 C1271 1.379 . S
H1273 C1267 0.959 . S
H1274 C1267 0.961 . S
H1275 C1267 0.960 . S
H1276 C1268 0.930 . S
H1277 C1269 0.929 . S
H1278 C1286 0.929 . S
H1279 C1288 0.930 . S
H1280 C1290 0.930 . S
H1281 C1293 0.929 . S
H1282 C1296 0.930 . S
H1283 C1298 0.960 . S
H1284 C1298 0.960 . S
H1285 C1298 0.960 . S
C1286 H1278 0.929 . S
C1286 C1287 1.377 . S
C1286 C1288 1.384 . S
C1287 C1286 1.377 . S
C1287 C1293 1.390 . S
C1288 H1279 0.930 . S
C1288 C1286 1.384 . S
C1288 C1289 1.372 . S
C1289 C1288 1.372 . S
C1289 C1290 1.400 . S
C1289 C1294 1.490 . S
C1290 H1280 0.930 . S
C1290 C1289 1.400 . S
C1290 C1293 1.386 . S
H1291 C1307 0.930 . S
H1292 C1308 0.931 . S
C1293 H1281 0.929 . S
C1293 C1287 1.390 . S
C1293 C1290 1.386 . S
C1294 C1289 1.490 . S
C1294 C1296 1.395 . S
C1294 C1297 1.403 . S
H1295 C1301 0.930 . S
C1296 H1282 0.930 . S
C1296 C1294 1.395 . S
C1296 C1299 1.403 . S
C1297 C1294 1.403 . S
C1297 C1298 1.524 . S
C1297 C1301 1.400 . S
C1298 H1283 0.960 . S
C1298 H1284 0.960 . S
C1298 H1285 0.960 . S
C1298 C1297 1.524 . S
C1299 C1296 1.403 . S
C1299 C1300 1.392 . S
C1299 C1303 1.495 . S
C1300 C1299 1.392 . S
C1300 C1301 1.385 . S
C1300 C1302 1.478 . S
C1301 H1295 0.930 . S
C1301 C1297 1.400 . S
C1301 C1300 1.385 . S
C1302 C1300 1.478 . S
C1302 C1304 1.381 . S
C1302 C1308 1.383 . S
C1303 C1299 1.495 . S
C1303 H1309 0.959 . S
C1303 H1310 0.961 . S
C1303 H1311 0.960 . S
C1304 C1302 1.381 . S
C1304 C1305 1.394 . S
C1304 H1312 0.930 . S
C1305 C1304 1.394 . S
C1305 C1306 1.383 . S
C1305 H1313 0.929 . S
C1306 C1305 1.383 . S
C1306 C1307 1.377 . S
C1307 H1291 0.930 . S
C1307 C1306 1.377 . S
C1307 C1308 1.379 . S
C1308 H1292 0.931 . S
C1308 C1302 1.383 . S
C1308 C1307 1.379 . S
H1309 C1303 0.959 . S
H1310 C1303 0.961 . S
H1311 C1303 0.960 . S
H1312 C1304 0.930 . S
H1313 C1305 0.929 . S
H1314 C1322 0.929 . S
H1315 C1324 0.930 . S
H1316 C1326 0.930 . S
H1317 C1329 0.929 . S
H1318 C1332 0.930 . S
H1319 C1334 0.960 . S
H1320 C1334 0.960 . S
H1321 C1334 0.960 . S
C1322 H1314 0.929 . S
C1322 C1323 1.377 . S
C1322 C1324 1.384 . S
C1323 C1322 1.377 . S
C1323 C1329 1.390 . S
C1324 H1315 0.930 . S
C1324 C1322 1.384 . S
C1324 C1325 1.372 . S
C1325 C1324 1.372 . S
C1325 C1326 1.400 . S
C1325 C1330 1.490 . S
C1326 H1316 0.930 . S
C1326 C1325 1.400 . S
C1326 C1329 1.386 . S
H1327 C1343 0.930 . S
H1328 C1344 0.931 . S
C1329 H1317 0.929 . S
C1329 C1323 1.390 . S
C1329 C1326 1.386 . S
C1330 C1325 1.490 . S
C1330 C1332 1.395 . S
C1330 C1333 1.403 . S
H1331 C1337 0.930 . S
C1332 H1318 0.930 . S
C1332 C1330 1.395 . S
C1332 C1335 1.403 . S
C1333 C1330 1.403 . S
C1333 C1334 1.524 . S
C1333 C1337 1.400 . S
C1334 H1319 0.960 . S
C1334 H1320 0.960 . S
C1334 H1321 0.960 . S
C1334 C1333 1.524 . S
C1335 C1332 1.403 . S
C1335 C1336 1.392 . S
C1335 C1339 1.495 . S
C1336 C1335 1.392 . S
C1336 C1337 1.385 . S
C1336 C1338 1.478 . S
C1337 H1331 0.930 . S
C1337 C1333 1.400 . S
C1337 C1336 1.385 . S
C1338 C1336 1.478 . S
C1338 C1340 1.381 . S
C1338 C1344 1.383 . S
C1339 C1335 1.495 . S
C1339 H1345 0.959 . S
C1339 H1346 0.961 . S
C1339 H1347 0.960 . S
C1340 C1338 1.381 . S
C1340 C1341 1.394 . S
C1340 H1348 0.930 . S
C1341 C1340 1.394 . S
C1341 C1342 1.383 . S
C1341 H1349 0.929 . S
C1342 C1341 1.383 . S
C1342 C1343 1.377 . S
C1343 H1327 0.930 . S
C1343 C1342 1.377 . S
C1343 C1344 1.379 . S
C1344 H1328 0.931 . S
C1344 C1338 1.383 . S
C1344 C1343 1.379 . S
H1345 C1339 0.959 . S
H1346 C1339 0.961 . S
H1347 C1339 0.960 . S
H1348 C1340 0.930 . S
H1349 C1341 0.929 . S
H1350 C1358 0.929 . S
H1351 C1360 0.930 . S
H1352 C1362 0.930 . S
H1353 C1365 0.929 . S
H1354 C1368 0.930 . S
H1355 C1370 0.960 . S
H1356 C1370 0.960 . S
H1357 C1370 0.960 . S
C1358 H1350 0.929 . S
C1358 C1359 1.377 . S
C1358 C1360 1.384 . S
C1359 C1358 1.377 . S
C1359 C1365 1.390 . S
C1360 H1351 0.930 . S
C1360 C1358 1.384 . S
C1360 C1361 1.372 . S
C1361 C1360 1.372 . S
C1361 C1362 1.400 . S
C1361 C1366 1.490 . S
C1362 H1352 0.930 . S
C1362 C1361 1.400 . S
C1362 C1365 1.386 . S
H1363 C1379 0.930 . S
H1364 C1380 0.931 . S
C1365 H1353 0.929 . S
C1365 C1359 1.390 . S
C1365 C1362 1.386 . S
C1366 C1361 1.490 . S
C1366 C1368 1.395 . S
C1366 C1369 1.403 . S
H1367 C1373 0.930 . S
C1368 H1354 0.930 . S
C1368 C1366 1.395 . S
C1368 C1371 1.403 . S
C1369 C1366 1.403 . S
C1369 C1370 1.524 . S
C1369 C1373 1.400 . S
C1370 H1355 0.960 . S
C1370 H1356 0.960 . S
C1370 H1357 0.960 . S
C1370 C1369 1.524 . S
C1371 C1368 1.403 . S
C1371 C1372 1.392 . S
C1371 C1375 1.495 . S
C1372 C1371 1.392 . S
C1372 C1373 1.385 . S
C1372 C1374 1.478 . S
C1373 H1367 0.930 . S
C1373 C1369 1.400 . S
C1373 C1372 1.385 . S
C1374 C1372 1.478 . S
C1374 C1376 1.381 . S
C1374 C1380 1.383 . S
C1375 C1371 1.495 . S
C1375 H1381 0.959 . S
C1375 H1382 0.961 . S
C1375 H1383 0.960 . S
C1376 C1374 1.381 . S
C1376 C1377 1.394 . S
C1376 H1384 0.930 . S
C1377 C1376 1.394 . S
C1377 C1378 1.383 . S
C1377 H1385 0.929 . S
C1378 C1377 1.383 . S
C1378 C1379 1.377 . S
C1379 H1363 0.930 . S
C1379 C1378 1.377 . S
C1379 C1380 1.379 . S
C1380 H1364 0.931 . S
C1380 C1374 1.383 . S
C1380 C1379 1.379 . S
H1381 C1375 0.959 . S
H1382 C1375 0.961 . S
H1383 C1375 0.960 . S
H1384 C1376 0.930 . S
H1385 C1377 0.929 . S
H1386 C1394 0.929 . S
H1387 C1396 0.930 . S
H1388 C1398 0.930 . S
H1389 C1401 0.929 . S
H1390 C1404 0.930 . S
H1391 C1406 0.960 . S
H1392 C1406 0.960 . S
H1393 C1406 0.960 . S
C1394 H1386 0.929 . S
C1394 C1395 1.377 . S
C1394 C1396 1.384 . S
C1395 C1394 1.377 . S
C1395 C1401 1.390 . S
C1396 H1387 0.930 . S
C1396 C1394 1.384 . S
C1396 C1397 1.372 . S
C1397 C1396 1.372 . S
C1397 C1398 1.400 . S
C1397 C1402 1.490 . S
C1398 H1388 0.930 . S
C1398 C1397 1.400 . S
C1398 C1401 1.386 . S
H1399 C1415 0.930 . S
H1400 C1416 0.931 . S
C1401 H1389 0.929 . S
C1401 C1395 1.390 . S
C1401 C1398 1.386 . S
C1402 C1397 1.490 . S
C1402 C1404 1.395 . S
C1402 C1405 1.403 . S
H1403 C1409 0.930 . S
C1404 H1390 0.930 . S
C1404 C1402 1.395 . S
C1404 C1407 1.403 . S
C1405 C1402 1.403 . S
C1405 C1406 1.524 . S
C1405 C1409 1.400 . S
C1406 H1391 0.960 . S
C1406 H1392 0.960 . S
C1406 H1393 0.960 . S
C1406 C1405 1.524 . S
C1407 C1404 1.403 . S
C1407 C1408 1.392 . S
C1407 C1411 1.495 . S
C1408 C1407 1.392 . S
C1408 C1409 1.385 . S
C1408 C1410 1.478 . S
C1409 H1403 0.930 . S
C1409 C1405 1.400 . S
C1409 C1408 1.385 . S
C1410 C1408 1.478 . S
C1410 C1412 1.381 . S
C1410 C1416 1.383 . S
C1411 C1407 1.495 . S
C1411 H1417 0.959 . S
C1411 H1418 0.961 . S
C1411 H1419 0.960 . S
C1412 C1410 1.381 . S
C1412 C1413 1.394 . S
C1412 H1420 0.930 . S
C1413 C1412 1.394 . S
C1413 C1414 1.383 . S
C1413 H1421 0.929 . S
C1414 C1413 1.383 . S
C1414 C1415 1.377 . S
C1415 H1399 0.930 . S
C1415 C1414 1.377 . S
C1415 C1416 1.379 . S
C1416 H1400 0.931 . S
C1416 C1410 1.383 . S
C1416 C1415 1.379 . S
H1417 C1411 0.959 . S
H1418 C1411 0.961 . S
H1419 C1411 0.960 . S
H1420 C1412 0.930 . S
H1421 C1413 0.929 . S
H1422 C1430 0.929 . S
H1423 C1432 0.930 . S
H1424 C1434 0.930 . S
H1425 C1437 0.929 . S
H1426 C1440 0.930 . S
H1427 C1442 0.960 . S
H1428 C1442 0.960 . S
H1429 C1442 0.960 . S
C1430 H1422 0.929 . S
C1430 C1431 1.377 . S
C1430 C1432 1.384 . S
C1431 C1430 1.377 . S
C1431 C1437 1.390 . S
C1432 H1423 0.930 . S
C1432 C1430 1.384 . S
C1432 C1433 1.372 . S
C1433 C1432 1.372 . S
C1433 C1434 1.400 . S
C1433 C1438 1.490 . S
C1434 H1424 0.930 . S
C1434 C1433 1.400 . S
C1434 C1437 1.386 . S
H1435 C1451 0.930 . S
H1436 C1452 0.931 . S
C1437 H1425 0.929 . S
C1437 C1431 1.390 . S
C1437 C1434 1.386 . S
C1438 C1433 1.490 . S
C1438 C1440 1.395 . S
C1438 C1441 1.403 . S
H1439 C1445 0.930 . S
C1440 H1426 0.930 . S
C1440 C1438 1.395 . S
C1440 C1443 1.403 . S
C1441 C1438 1.403 . S
C1441 C1442 1.524 . S
C1441 C1445 1.400 . S
C1442 H1427 0.960 . S
C1442 H1428 0.960 . S
C1442 H1429 0.960 . S
C1442 C1441 1.524 . S
C1443 C1440 1.403 . S
C1443 C1444 1.392 . S
C1443 C1447 1.495 . S
C1444 C1443 1.392 . S
C1444 C1445 1.385 . S
C1444 C1446 1.478 . S
C1445 H1439 0.930 . S
C1445 C1441 1.400 . S
C1445 C1444 1.385 . S
C1446 C1444 1.478 . S
C1446 C1448 1.381 . S
C1446 C1452 1.383 . S
C1447 C1443 1.495 . S
C1447 H1453 0.959 . S
C1447 H1454 0.961 . S
C1447 H1455 0.960 . S
C1448 C1446 1.381 . S
C1448 C1449 1.394 . S
C1448 H1456 0.930 . S
C1449 C1448 1.394 . S
C1449 C1450 1.383 . S
C1449 H1457 0.929 . S
C1450 C1449 1.383 . S
C1450 C1451 1.377 . S
C1451 H1435 0.930 . S
C1451 C1450 1.377 . S
C1451 C1452 1.379 . S
C1452 H1436 0.931 . S
C1452 C1446 1.383 . S
C1452 C1451 1.379 . S
H1453 C1447 0.959 . S
H1454 C1447 0.961 . S
H1455 C1447 0.960 . S
H1456 C1448 0.930 . S
H1457 C1449 0.929 . S
H1458 C1466 0.929 . S
H1459 C1468 0.930 . S
H1460 C1470 0.930 . S
H1461 C1473 0.929 . S
H1462 C1476 0.930 . S
H1463 C1478 0.960 . S
H1464 C1478 0.960 . S
H1465 C1478 0.960 . S
C1466 H1458 0.929 . S
C1466 C1467 1.377 . S
C1466 C1468 1.384 . S
C1467 C1466 1.377 . S
C1467 C1473 1.390 . S
C1468 H1459 0.930 . S
C1468 C1466 1.384 . S
C1468 C1469 1.372 . S
C1469 C1468 1.372 . S
C1469 C1470 1.400 . S
C1469 C1474 1.490 . S
C1470 H1460 0.930 . S
C1470 C1469 1.400 . S
C1470 C1473 1.386 . S
H1471 C1487 0.930 . S
H1472 C1488 0.931 . S
C1473 H1461 0.929 . S
C1473 C1467 1.390 . S
C1473 C1470 1.386 . S
C1474 C1469 1.490 . S
C1474 C1476 1.395 . S
C1474 C1477 1.403 . S
H1475 C1481 0.930 . S
C1476 H1462 0.930 . S
C1476 C1474 1.395 . S
C1476 C1479 1.403 . S
C1477 C1474 1.403 . S
C1477 C1478 1.524 . S
C1477 C1481 1.400 . S
C1478 H1463 0.960 . S
C1478 H1464 0.960 . S
C1478 H1465 0.960 . S
C1478 C1477 1.524 . S
C1479 C1476 1.403 . S
C1479 C1480 1.392 . S
C1479 C1483 1.495 . S
C1480 C1479 1.392 . S
C1480 C1481 1.385 . S
C1480 C1482 1.478 . S
C1481 H1475 0.930 . S
C1481 C1477 1.400 . S
C1481 C1480 1.385 . S
C1482 C1480 1.478 . S
C1482 C1484 1.381 . S
C1482 C1488 1.383 . S
C1483 C1479 1.495 . S
C1483 H1489 0.959 . S
C1483 H1490 0.961 . S
C1483 H1491 0.960 . S
C1484 C1482 1.381 . S
C1484 C1485 1.394 . S
C1484 H1492 0.930 . S
C1485 C1484 1.394 . S
C1485 C1486 1.383 . S
C1485 H1493 0.929 . S
C1486 C1485 1.383 . S
C1486 C1487 1.377 . S
C1487 H1471 0.930 . S
C1487 C1486 1.377 . S
C1487 C1488 1.379 . S
C1488 H1472 0.931 . S
C1488 C1482 1.383 . S
C1488 C1487 1.379 . S
H1489 C1483 0.959 . S
H1490 C1483 0.961 . S
H1491 C1483 0.960 . S
H1492 C1484 0.930 . S
H1493 C1485 0.929 . S
H1494 C1502 0.929 . S
H1495 C1504 0.930 . S
H1496 C1506 0.930 . S
H1497 C1509 0.929 . S
H1498 C1512 0.930 . S
H1499 C1514 0.960 . S
H1500 C1514 0.960 . S
H1501 C1514 0.960 . S
C1502 H1494 0.929 . S
C1502 C1503 1.377 . S
C1502 C1504 1.384 . S
C1503 C1502 1.377 . S
C1503 C1509 1.390 . S
C1504 H1495 0.930 . S
C1504 C1502 1.384 . S
C1504 C1505 1.372 . S
C1505 C1504 1.372 . S
C1505 C1506 1.400 . S
C1505 C1510 1.490 . S
C1506 H1496 0.930 . S
C1506 C1505 1.400 . S
C1506 C1509 1.386 . S
H1507 C1523 0.930 . S
H1508 C1524 0.931 . S
C1509 H1497 0.929 . S
C1509 C1503 1.390 . S
C1509 C1506 1.386 . S
C1510 C1505 1.490 . S
C1510 C1512 1.395 . S
C1510 C1513 1.403 . S
H1511 C1517 0.930 . S
C1512 H1498 0.930 . S
C1512 C1510 1.395 . S
C1512 C1515 1.403 . S
C1513 C1510 1.403 . S
C1513 C1514 1.524 . S
C1513 C1517 1.400 . S
C1514 H1499 0.960 . S
C1514 H1500 0.960 . S
C1514 H1501 0.960 . S
C1514 C1513 1.524 . S
C1515 C1512 1.403 . S
C1515 C1516 1.392 . S
C1515 C1519 1.495 . S
C1516 C1515 1.392 . S
C1516 C1517 1.385 . S
C1516 C1518 1.478 . S
C1517 H1511 0.930 . S
C1517 C1513 1.400 . S
C1517 C1516 1.385 . S
C1518 C1516 1.478 . S
C1518 C1520 1.381 . S
C1518 C1524 1.383 . S
C1519 C1515 1.495 . S
C1519 H1525 0.959 . S
C1519 H1526 0.961 . S
C1519 H1527 0.960 . S
C1520 C1518 1.381 . S
C1520 C1521 1.394 . S
C1520 H1528 0.930 . S
C1521 C1520 1.394 . S
C1521 C1522 1.383 . S
C1521 H1529 0.929 . S
C1522 C1521 1.383 . S
C1522 C1523 1.377 . S
C1523 H1507 0.930 . S
C1523 C1522 1.377 . S
C1523 C1524 1.379 . S
C1524 H1508 0.931 . S
C1524 C1518 1.383 . S
C1524 C1523 1.379 . S
H1525 C1519 0.959 . S
H1526 C1519 0.961 . S
H1527 C1519 0.960 . S
H1528 C1520 0.930 . S
H1529 C1521 0.929 . S
H1530 C1538 0.929 . S
H1531 C1540 0.930 . S
H1532 C1542 0.930 . S
H1533 C1545 0.929 . S
H1534 C1548 0.930 . S
H1535 C1550 0.960 . S
H1536 C1550 0.960 . S
H1537 C1550 0.960 . S
C1538 H1530 0.929 . S
C1538 C1539 1.377 . S
C1538 C1540 1.384 . S
C1539 C1538 1.377 . S
C1539 C1545 1.390 . S
C1540 H1531 0.930 . S
C1540 C1538 1.384 . S
C1540 C1541 1.372 . S
C1541 C1540 1.372 . S
C1541 C1542 1.400 . S
C1541 C1546 1.490 . S
C1542 H1532 0.930 . S
C1542 C1541 1.400 . S
C1542 C1545 1.386 . S
H1543 C1559 0.930 . S
H1544 C1560 0.931 . S
C1545 H1533 0.929 . S
C1545 C1539 1.390 . S
C1545 C1542 1.386 . S
C1546 C1541 1.490 . S
C1546 C1548 1.395 . S
C1546 C1549 1.403 . S
H1547 C1553 0.930 . S
C1548 H1534 0.930 . S
C1548 C1546 1.395 . S
C1548 C1551 1.403 . S
C1549 C1546 1.403 . S
C1549 C1550 1.524 . S
C1549 C1553 1.400 . S
C1550 H1535 0.960 . S
C1550 H1536 0.960 . S
C1550 H1537 0.960 . S
C1550 C1549 1.524 . S
C1551 C1548 1.403 . S
C1551 C1552 1.392 . S
C1551 C1555 1.495 . S
C1552 C1551 1.392 . S
C1552 C1553 1.385 . S
C1552 C1554 1.478 . S
C1553 H1547 0.930 . S
C1553 C1549 1.400 . S
C1553 C1552 1.385 . S
C1554 C1552 1.478 . S
C1554 C1556 1.381 . S
C1554 C1560 1.383 . S
C1555 C1551 1.495 . S
C1555 H1561 0.959 . S
C1555 H1562 0.961 . S
C1555 H1563 0.960 . S
C1556 C1554 1.381 . S
C1556 C1557 1.394 . S
C1556 H1564 0.930 . S
C1557 C1556 1.394 . S
C1557 C1558 1.383 . S
C1557 H1565 0.929 . S
C1558 C1557 1.383 . S
C1558 C1559 1.377 . S
C1559 H1543 0.930 . S
C1559 C1558 1.377 . S
C1559 C1560 1.379 . S
C1560 H1544 0.931 . S
C1560 C1554 1.383 . S
C1560 C1559 1.379 . S
H1561 C1555 0.959 . S
H1562 C1555 0.961 . S
H1563 C1555 0.960 . S
H1564 C1556 0.930 . S
H1565 C1557 0.929 . S
H1566 C1574 0.929 . S
H1567 C1576 0.930 . S
H1568 C1578 0.930 . S
H1569 C1581 0.929 . S
H1570 C1584 0.930 . S
H1571 C1586 0.960 . S
H1572 C1586 0.960 . S
H1573 C1586 0.960 . S
C1574 H1566 0.929 . S
C1574 C1575 1.377 . S
C1574 C1576 1.384 . S
C1575 C1574 1.377 . S
C1575 C1581 1.390 . S
C1576 H1567 0.930 . S
C1576 C1574 1.384 . S
C1576 C1577 1.372 . S
C1577 C1576 1.372 . S
C1577 C1578 1.400 . S
C1577 C1582 1.490 . S
C1578 H1568 0.930 . S
C1578 C1577 1.400 . S
C1578 C1581 1.386 . S
H1579 C1595 0.930 . S
H1580 C1596 0.931 . S
C1581 H1569 0.929 . S
C1581 C1575 1.390 . S
C1581 C1578 1.386 . S
C1582 C1577 1.490 . S
C1582 C1584 1.395 . S
C1582 C1585 1.403 . S
H1583 C1589 0.930 . S
C1584 H1570 0.930 . S
C1584 C1582 1.395 . S
C1584 C1587 1.403 . S
C1585 C1582 1.403 . S
C1585 C1586 1.524 . S
C1585 C1589 1.400 . S
C1586 H1571 0.960 . S
C1586 H1572 0.960 . S
C1586 H1573 0.960 . S
C1586 C1585 1.524 . S
C1587 C1584 1.403 . S
C1587 C1588 1.392 . S
C1587 C1591 1.495 . S
C1588 C1587 1.392 . S
C1588 C1589 1.385 . S
C1588 C1590 1.478 . S
C1589 H1583 0.930 . S
C1589 C1585 1.400 . S
C1589 C1588 1.385 . S
C1590 C1588 1.478 . S
C1590 C1592 1.381 . S
C1590 C1596 1.383 . S
C1591 C1587 1.495 . S
C1591 H1597 0.959 . S
C1591 H1598 0.961 . S
C1591 H1599 0.960 . S
C1592 C1590 1.381 . S
C1592 C1593 1.394 . S
C1592 H1600 0.930 . S
C1593 C1592 1.394 . S
C1593 C1594 1.383 . S
C1593 H1601 0.929 . S
C1594 C1593 1.383 . S
C1594 C1595 1.377 . S
C1595 H1579 0.930 . S
C1595 C1594 1.377 . S
C1595 C1596 1.379 . S
C1596 H1580 0.931 . S
C1596 C1590 1.383 . S
C1596 C1595 1.379 . S
H1597 C1591 0.959 . S
H1598 C1591 0.961 . S
H1599 C1591 0.960 . S
H1600 C1592 0.930 . S
H1601 C1593 0.929 . S
H1602 C1610 0.929 . S
H1603 C1612 0.930 . S
H1604 C1614 0.930 . S
H1605 C1617 0.929 . S
H1606 C1620 0.930 . S
H1607 C1622 0.960 . S
H1608 C1622 0.960 . S
H1609 C1622 0.960 . S
C1610 H1602 0.929 . S
C1610 C1611 1.377 . S
C1610 C1612 1.384 . S
C1611 C1610 1.377 . S
C1611 C1617 1.390 . S
C1612 H1603 0.930 . S
C1612 C1610 1.384 . S
C1612 C1613 1.372 . S
C1613 C1612 1.372 . S
C1613 C1614 1.400 . S
C1613 C1618 1.490 . S
C1614 H1604 0.930 . S
C1614 C1613 1.400 . S
C1614 C1617 1.386 . S
H1615 C1631 0.930 . S
H1616 C1632 0.931 . S
C1617 H1605 0.929 . S
C1617 C1611 1.390 . S
C1617 C1614 1.386 . S
C1618 C1613 1.490 . S
C1618 C1620 1.395 . S
C1618 C1621 1.403 . S
H1619 C1625 0.930 . S
C1620 H1606 0.930 . S
C1620 C1618 1.395 . S
C1620 C1623 1.403 . S
C1621 C1618 1.403 . S
C1621 C1622 1.524 . S
C1621 C1625 1.400 . S
C1622 H1607 0.960 . S
C1622 H1608 0.960 . S
C1622 H1609 0.960 . S
C1622 C1621 1.524 . S
C1623 C1620 1.403 . S
C1623 C1624 1.392 . S
C1623 C1627 1.495 . S
C1624 C1623 1.392 . S
C1624 C1625 1.385 . S
C1624 C1626 1.478 . S
C1625 H1619 0.930 . S
C1625 C1621 1.400 . S
C1625 C1624 1.385 . S
C1626 C1624 1.478 . S
C1626 C1628 1.381 . S
C1626 C1632 1.383 . S
C1627 C1623 1.495 . S
C1627 H1633 0.959 . S
C1627 H1634 0.961 . S
C1627 H1635 0.960 . S
C1628 C1626 1.381 . S
C1628 C1629 1.394 . S
C1628 H1636 0.930 . S
C1629 C1628 1.394 . S
C1629 C1630 1.383 . S
C1629 H1637 0.929 . S
C1630 C1629 1.383 . S
C1630 C1631 1.377 . S
C1631 H1615 0.930 . S
C1631 C1630 1.377 . S
C1631 C1632 1.379 . S
C1632 H1616 0.931 . S
C1632 C1626 1.383 . S
C1632 C1631 1.379 . S
H1633 C1627 0.959 . S
H1634 C1627 0.961 . S
H1635 C1627 0.960 . S
H1636 C1628 0.930 . S
H1637 C1629 0.929 . S
H1638 C1646 0.929 . S
H1639 C1648 0.930 . S
H1640 C1650 0.930 . S
H1641 C1653 0.929 . S
H1642 C1656 0.930 . S
H1643 C1658 0.960 . S
H1644 C1658 0.960 . S
H1645 C1658 0.960 . S
C1646 H1638 0.929 . S
C1646 C1647 1.377 . S
C1646 C1648 1.384 . S
C1647 C1646 1.377 . S
C1647 C1653 1.390 . S
C1648 H1639 0.930 . S
C1648 C1646 1.384 . S
C1648 C1649 1.372 . S
C1649 C1648 1.372 . S
C1649 C1650 1.400 . S
C1649 C1654 1.490 . S
C1650 H1640 0.930 . S
C1650 C1649 1.400 . S
C1650 C1653 1.386 . S
H1651 C1667 0.930 . S
H1652 C1668 0.931 . S
C1653 H1641 0.929 . S
C1653 C1647 1.390 . S
C1653 C1650 1.386 . S
C1654 C1649 1.490 . S
C1654 C1656 1.395 . S
C1654 C1657 1.403 . S
H1655 C1661 0.930 . S
C1656 H1642 0.930 . S
C1656 C1654 1.395 . S
C1656 C1659 1.403 . S
C1657 C1654 1.403 . S
C1657 C1658 1.524 . S
C1657 C1661 1.400 . S
C1658 H1643 0.960 . S
C1658 H1644 0.960 . S
C1658 H1645 0.960 . S
C1658 C1657 1.524 . S
C1659 C1656 1.403 . S
C1659 C1660 1.392 . S
C1659 C1663 1.495 . S
C1660 C1659 1.392 . S
C1660 C1661 1.385 . S
C1660 C1662 1.478 . S
C1661 H1655 0.930 . S
C1661 C1657 1.400 . S
C1661 C1660 1.385 . S
C1662 C1660 1.478 . S
C1662 C1664 1.381 . S
C1662 C1668 1.383 . S
C1663 C1659 1.495 . S
C1663 H1669 0.959 . S
C1663 H1670 0.961 . S
C1663 H1671 0.960 . S
C1664 C1662 1.381 . S
C1664 C1665 1.394 . S
C1664 H1672 0.930 . S
C1665 C1664 1.394 . S
C1665 C1666 1.383 . S
C1665 H1673 0.929 . S
C1666 C1665 1.383 . S
C1666 C1667 1.377 . S
C1667 H1651 0.930 . S
C1667 C1666 1.377 . S
C1667 C1668 1.379 . S
C1668 H1652 0.931 . S
C1668 C1662 1.383 . S
C1668 C1667 1.379 . S
H1669 C1663 0.959 . S
H1670 C1663 0.961 . S
H1671 C1663 0.960 . S
H1672 C1664 0.930 . S
H1673 C1665 0.929 . S
H1674 C1682 0.929 . S
H1675 C1684 0.930 . S
H1676 C1686 0.930 . S
H1677 C1689 0.929 . S
H1678 C1692 0.930 . S
H1679 C1694 0.960 . S
H1680 C1694 0.960 . S
H1681 C1694 0.960 . S
C1682 H1674 0.929 . S
C1682 C1683 1.377 . S
C1682 C1684 1.384 . S
C1683 C1682 1.377 . S
C1683 C1689 1.390 . S
C1684 H1675 0.930 . S
C1684 C1682 1.384 . S
C1684 C1685 1.372 . S
C1685 C1684 1.372 . S
C1685 C1686 1.400 . S
C1685 C1690 1.490 . S
C1686 H1676 0.930 . S
C1686 C1685 1.400 . S
C1686 C1689 1.386 . S
H1687 C1703 0.930 . S
H1688 C1704 0.931 . S
C1689 H1677 0.929 . S
C1689 C1683 1.390 . S
C1689 C1686 1.386 . S
C1690 C1685 1.490 . S
C1690 C1692 1.395 . S
C1690 C1693 1.403 . S
H1691 C1697 0.930 . S
C1692 H1678 0.930 . S
C1692 C1690 1.395 . S
C1692 C1695 1.403 . S
C1693 C1690 1.403 . S
C1693 C1694 1.524 . S
C1693 C1697 1.400 . S
C1694 H1679 0.960 . S
C1694 H1680 0.960 . S
C1694 H1681 0.960 . S
C1694 C1693 1.524 . S
C1695 C1692 1.403 . S
C1695 C1696 1.392 . S
C1695 C1699 1.495 . S
C1696 C1695 1.392 . S
C1696 C1697 1.385 . S
C1696 C1698 1.478 . S
C1697 H1691 0.930 . S
C1697 C1693 1.400 . S
C1697 C1696 1.385 . S
C1698 C1696 1.478 . S
C1698 C1700 1.381 . S
C1698 C1704 1.383 . S
C1699 C1695 1.495 . S
C1699 H1705 0.959 . S
C1699 H1706 0.961 . S
C1699 H1707 0.960 . S
C1700 C1698 1.381 . S
C1700 C1701 1.394 . S
C1700 H1708 0.930 . S
C1701 C1700 1.394 . S
C1701 C1702 1.383 . S
C1701 H1709 0.929 . S
C1702 C1701 1.383 . S
C1702 C1703 1.377 . S
C1703 H1687 0.930 . S
C1703 C1702 1.377 . S
C1703 C1704 1.379 . S
C1704 H1688 0.931 . S
C1704 C1698 1.383 . S
C1704 C1703 1.379 . S
H1705 C1699 0.959 . S
H1706 C1699 0.961 . S
H1707 C1699 0.960 . S
H1708 C1700 0.930 . S
H1709 C1701 0.929 . S
H1710 C1718 0.929 . S
H1711 C1720 0.930 . S
H1712 C1722 0.930 . S
H1713 C1725 0.929 . S
H1714 C1728 0.930 . S
H1715 C1730 0.960 . S
H1716 C1730 0.960 . S
H1717 C1730 0.960 . S
C1718 H1710 0.929 . S
C1718 C1719 1.377 . S
C1718 C1720 1.384 . S
C1719 C1718 1.377 . S
C1719 C1725 1.390 . S
C1720 H1711 0.930 . S
C1720 C1718 1.384 . S
C1720 C1721 1.372 . S
C1721 C1720 1.372 . S
C1721 C1722 1.400 . S
C1721 C1726 1.490 . S
C1722 H1712 0.930 . S
C1722 C1721 1.400 . S
C1722 C1725 1.386 . S
H1723 C1739 0.930 . S
H1724 C1740 0.931 . S
C1725 H1713 0.929 . S
C1725 C1719 1.390 . S
C1725 C1722 1.386 . S
C1726 C1721 1.490 . S
C1726 C1728 1.395 . S
C1726 C1729 1.403 . S
H1727 C1733 0.930 . S
C1728 H1714 0.930 . S
C1728 C1726 1.395 . S
C1728 C1731 1.403 . S
C1729 C1726 1.403 . S
C1729 C1730 1.524 . S
C1729 C1733 1.400 . S
C1730 H1715 0.960 . S
C1730 H1716 0.960 . S
C1730 H1717 0.960 . S
C1730 C1729 1.524 . S
C1731 C1728 1.403 . S
C1731 C1732 1.392 . S
C1731 C1735 1.495 . S
C1732 C1731 1.392 . S
C1732 C1733 1.385 . S
C1732 C1734 1.478 . S
C1733 H1727 0.930 . S
C1733 C1729 1.400 . S
C1733 C1732 1.385 . S
C1734 C1732 1.478 . S
C1734 C1736 1.381 . S
C1734 C1740 1.383 . S
C1735 C1731 1.495 . S
C1735 H1741 0.959 . S
C1735 H1742 0.961 . S
C1735 H1743 0.960 . S
C1736 C1734 1.381 . S
C1736 C1737 1.394 . S
C1736 H1744 0.930 . S
C1737 C1736 1.394 . S
C1737 C1738 1.383 . S
C1737 H1745 0.929 . S
C1738 C1737 1.383 . S
C1738 C1739 1.377 . S
C1739 H1723 0.930 . S
C1739 C1738 1.377 . S
C1739 C1740 1.379 . S
C1740 H1724 0.931 . S
C1740 C1734 1.383 . S
C1740 C1739 1.379 . S
H1741 C1735 0.959 . S
H1742 C1735 0.961 . S
H1743 C1735 0.960 . S
H1744 C1736 0.930 . S
H1745 C1737 0.929 . S
H1746 C1754 0.929 . S
H1747 C1756 0.930 . S
H1748 C1758 0.930 . S
H1749 C1761 0.929 . S
H1750 C1764 0.930 . S
H1751 C1766 0.960 . S
H1752 C1766 0.960 . S
H1753 C1766 0.960 . S
C1754 H1746 0.929 . S
C1754 C1755 1.377 . S
C1754 C1756 1.384 . S
C1755 C1754 1.377 . S
C1755 C1761 1.390 . S
C1756 H1747 0.930 . S
C1756 C1754 1.384 . S
C1756 C1757 1.372 . S
C1757 C1756 1.372 . S
C1757 C1758 1.400 . S
C1757 C1762 1.490 . S
C1758 H1748 0.930 . S
C1758 C1757 1.400 . S
C1758 C1761 1.386 . S
H1759 C1775 0.930 . S
H1760 C1776 0.931 . S
C1761 H1749 0.929 . S
C1761 C1755 1.390 . S
C1761 C1758 1.386 . S
C1762 C1757 1.490 . S
C1762 C1764 1.395 . S
C1762 C1765 1.403 . S
H1763 C1769 0.930 . S
C1764 H1750 0.930 . S
C1764 C1762 1.395 . S
C1764 C1767 1.403 . S
C1765 C1762 1.403 . S
C1765 C1766 1.524 . S
C1765 C1769 1.400 . S
C1766 H1751 0.960 . S
C1766 H1752 0.960 . S
C1766 H1753 0.960 . S
C1766 C1765 1.524 . S
C1767 C1764 1.403 . S
C1767 C1768 1.392 . S
C1767 C1771 1.495 . S
C1768 C1767 1.392 . S
C1768 C1769 1.385 . S
C1768 C1770 1.478 . S
C1769 H1763 0.930 . S
C1769 C1765 1.400 . S
C1769 C1768 1.385 . S
C1770 C1768 1.478 . S
C1770 C1772 1.381 . S
C1770 C1776 1.383 . S
C1771 C1767 1.495 . S
C1771 H1777 0.959 . S
C1771 H1778 0.961 . S
C1771 H1779 0.960 . S
C1772 C1770 1.381 . S
C1772 C1773 1.394 . S
C1772 H1780 0.930 . S
C1773 C1772 1.394 . S
C1773 C1774 1.383 . S
C1773 H1781 0.929 . S
C1774 C1773 1.383 . S
C1774 C1775 1.377 . S
C1775 H1759 0.930 . S
C1775 C1774 1.377 . S
C1775 C1776 1.379 . S
C1776 H1760 0.931 . S
C1776 C1770 1.383 . S
C1776 C1775 1.379 . S
H1777 C1771 0.959 . S
H1778 C1771 0.961 . S
H1779 C1771 0.960 . S
H1780 C1772 0.930 . S
H1781 C1773 0.929 . S
H1782 C1790 0.929 . S
H1783 C1792 0.930 . S
H1784 C1794 0.930 . S
H1785 C1797 0.929 . S
H1786 C1800 0.930 . S
H1787 C1802 0.960 . S
H1788 C1802 0.960 . S
H1789 C1802 0.960 . S
C1790 H1782 0.929 . S
C1790 C1791 1.377 . S
C1790 C1792 1.384 . S
C1791 C1790 1.377 . S
C1791 C1797 1.390 . S
C1792 H1783 0.930 . S
C1792 C1790 1.384 . S
C1792 C1793 1.372 . S
C1793 C1792 1.372 . S
C1793 C1794 1.400 . S
C1793 C1798 1.490 . S
C1794 H1784 0.930 . S
C1794 C1793 1.400 . S
C1794 C1797 1.386 . S
H1795 C1811 0.930 . S
H1796 C1812 0.931 . S
C1797 H1785 0.929 . S
C1797 C1791 1.390 . S
C1797 C1794 1.386 . S
C1798 C1793 1.490 . S
C1798 C1800 1.395 . S
C1798 C1801 1.403 . S
H1799 C1805 0.930 . S
C1800 H1786 0.930 . S
C1800 C1798 1.395 . S
C1800 C1803 1.403 . S
C1801 C1798 1.403 . S
C1801 C1802 1.524 . S
C1801 C1805 1.400 . S
C1802 H1787 0.960 . S
C1802 H1788 0.960 . S
C1802 H1789 0.960 . S
C1802 C1801 1.524 . S
C1803 C1800 1.403 . S
C1803 C1804 1.392 . S
C1803 C1807 1.495 . S
C1804 C1803 1.392 . S
C1804 C1805 1.385 . S
C1804 C1806 1.478 . S
C1805 H1799 0.930 . S
C1805 C1801 1.400 . S
C1805 C1804 1.385 . S
C1806 C1804 1.478 . S
C1806 C1808 1.381 . S
C1806 C1812 1.383 . S
C1807 C1803 1.495 . S
C1807 H1813 0.959 . S
C1807 H1814 0.961 . S
C1807 H1815 0.960 . S
C1808 C1806 1.381 . S
C1808 C1809 1.394 . S
C1808 H1816 0.930 . S
C1809 C1808 1.394 . S
C1809 C1810 1.383 . S
C1809 H1817 0.929 . S
C1810 C1809 1.383 . S
C1810 C1811 1.377 . S
C1811 H1795 0.930 . S
C1811 C1810 1.377 . S
C1811 C1812 1.379 . S
C1812 H1796 0.931 . S
C1812 C1806 1.383 . S
C1812 C1811 1.379 . S
H1813 C1807 0.959 . S
H1814 C1807 0.961 . S
H1815 C1807 0.960 . S
H1816 C1808 0.930 . S
H1817 C1809 0.929 . S
H1818 C1826 0.929 . S
H1819 C1828 0.930 . S
H1820 C1830 0.930 . S
H1821 C1833 0.929 . S
H1822 C1836 0.930 . S
H1823 C1838 0.960 . S
H1824 C1838 0.960 . S
H1825 C1838 0.960 . S
C1826 H1818 0.929 . S
C1826 C1827 1.377 . S
C1826 C1828 1.384 . S
C1827 C1826 1.377 . S
C1827 C1833 1.390 . S
C1828 H1819 0.930 . S
C1828 C1826 1.384 . S
C1828 C1829 1.372 . S
C1829 C1828 1.372 . S
C1829 C1830 1.400 . S
C1829 C1834 1.490 . S
C1830 H1820 0.930 . S
C1830 C1829 1.400 . S
C1830 C1833 1.386 . S
H1831 C1847 0.930 . S
H1832 C1848 0.931 . S
C1833 H1821 0.929 . S
C1833 C1827 1.390 . S
C1833 C1830 1.386 . S
C1834 C1829 1.490 . S
C1834 C1836 1.395 . S
C1834 C1837 1.403 . S
H1835 C1841 0.930 . S
C1836 H1822 0.930 . S
C1836 C1834 1.395 . S
C1836 C1839 1.403 . S
C1837 C1834 1.403 . S
C1837 C1838 1.524 . S
C1837 C1841 1.400 . S
C1838 H1823 0.960 . S
C1838 H1824 0.960 . S
C1838 H1825 0.960 . S
C1838 C1837 1.524 . S
C1839 C1836 1.403 . S
C1839 C1840 1.392 . S
C1839 C1843 1.495 . S
C1840 C1839 1.392 . S
C1840 C1841 1.385 . S
C1840 C1842 1.478 . S
C1841 H1835 0.930 . S
C1841 C1837 1.400 . S
C1841 C1840 1.385 . S
C1842 C1840 1.478 . S
C1842 C1844 1.381 . S
C1842 C1848 1.383 . S
C1843 C1839 1.495 . S
C1843 H1849 0.959 . S
C1843 H1850 0.961 . S
C1843 H1851 0.960 . S
C1844 C1842 1.381 . S
C1844 C1845 1.394 . S
C1844 H1852 0.930 . S
C1845 C1844 1.394 . S
C1845 C1846 1.383 . S
C1845 H1853 0.929 . S
C1846 C1845 1.383 . S
C1846 C1847 1.377 . S
C1847 H1831 0.930 . S
C1847 C1846 1.377 . S
C1847 C1848 1.379 . S
C1848 H1832 0.931 . S
C1848 C1842 1.383 . S
C1848 C1847 1.379 . S
H1849 C1843 0.959 . S
H1850 C1843 0.961 . S
H1851 C1843 0.960 . S
H1852 C1844 0.930 . S
H1853 C1845 0.929 . S
H1854 C1862 0.929 . S
H1855 C1864 0.930 . S
H1856 C1866 0.930 . S
H1857 C1869 0.929 . S
H1858 C1872 0.930 . S
H1859 C1874 0.960 . S
H1860 C1874 0.960 . S
H1861 C1874 0.960 . S
C1862 H1854 0.929 . S
C1862 C1863 1.377 . S
C1862 C1864 1.384 . S
C1863 C1862 1.377 . S
C1863 C1869 1.390 . S
C1864 H1855 0.930 . S
C1864 C1862 1.384 . S
C1864 C1865 1.372 . S
C1865 C1864 1.372 . S
C1865 C1866 1.400 . S
C1865 C1870 1.490 . S
C1866 H1856 0.930 . S
C1866 C1865 1.400 . S
C1866 C1869 1.386 . S
H1867 C1883 0.930 . S
H1868 C1884 0.931 . S
C1869 H1857 0.929 . S
C1869 C1863 1.390 . S
C1869 C1866 1.386 . S
C1870 C1865 1.490 . S
C1870 C1872 1.395 . S
C1870 C1873 1.403 . S
H1871 C1877 0.930 . S
C1872 H1858 0.930 . S
C1872 C1870 1.395 . S
C1872 C1875 1.403 . S
C1873 C1870 1.403 . S
C1873 C1874 1.524 . S
C1873 C1877 1.400 . S
C1874 H1859 0.960 . S
C1874 H1860 0.960 . S
C1874 H1861 0.960 . S
C1874 C1873 1.524 . S
C1875 C1872 1.403 . S
C1875 C1876 1.392 . S
C1875 C1879 1.495 . S
C1876 C1875 1.392 . S
C1876 C1877 1.385 . S
C1876 C1878 1.478 . S
C1877 H1871 0.930 . S
C1877 C1873 1.400 . S
C1877 C1876 1.385 . S
C1878 C1876 1.478 . S
C1878 C1880 1.381 . S
C1878 C1884 1.383 . S
C1879 C1875 1.495 . S
C1879 H1885 0.959 . S
C1879 H1886 0.961 . S
C1879 H1887 0.960 . S
C1880 C1878 1.381 . S
C1880 C1881 1.394 . S
C1880 H1888 0.930 . S
C1881 C1880 1.394 . S
C1881 C1882 1.383 . S
C1881 H1889 0.929 . S
C1882 C1881 1.383 . S
C1882 C1883 1.377 . S
C1883 H1867 0.930 . S
C1883 C1882 1.377 . S
C1883 C1884 1.379 . S
C1884 H1868 0.931 . S
C1884 C1878 1.383 . S
C1884 C1883 1.379 . S
H1885 C1879 0.959 . S
H1886 C1879 0.961 . S
H1887 C1879 0.960 . S
H1888 C1880 0.930 . S
H1889 C1881 0.929 . S
H1890 C1898 0.929 . S
H1891 C1900 0.930 . S
H1892 C1902 0.930 . S
H1893 C1905 0.929 . S
H1894 C1908 0.930 . S
H1895 C1910 0.960 . S
H1896 C1910 0.960 . S
H1897 C1910 0.960 . S
C1898 H1890 0.929 . S
C1898 C1899 1.377 . S
C1898 C1900 1.384 . S
C1899 C1898 1.377 . S
C1899 C1905 1.390 . S
C1900 H1891 0.930 . S
C1900 C1898 1.384 . S
C1900 C1901 1.372 . S
C1901 C1900 1.372 . S
C1901 C1902 1.400 . S
C1901 C1906 1.490 . S
C1902 H1892 0.930 . S
C1902 C1901 1.400 . S
C1902 C1905 1.386 . S
H1903 C1919 0.930 . S
H1904 C1920 0.931 . S
C1905 H1893 0.929 . S
C1905 C1899 1.390 . S
C1905 C1902 1.386 . S
C1906 C1901 1.490 . S
C1906 C1908 1.395 . S
C1906 C1909 1.403 . S
H1907 C1913 0.930 . S
C1908 H1894 0.930 . S
C1908 C1906 1.395 . S
C1908 C1911 1.403 . S
C1909 C1906 1.403 . S
C1909 C1910 1.524 . S
C1909 C1913 1.400 . S
C1910 H1895 0.960 . S
C1910 H1896 0.960 . S
C1910 H1897 0.960 . S
C1910 C1909 1.524 . S
C1911 C1908 1.403 . S
C1911 C1912 1.392 . S
C1911 C1915 1.495 . S
C1912 C1911 1.392 . S
C1912 C1913 1.385 . S
C1912 C1914 1.478 . S
C1913 H1907 0.930 . S
C1913 C1909 1.400 . S
C1913 C1912 1.385 . S
C1914 C1912 1.478 . S
C1914 C1916 1.381 . S
C1914 C1920 1.383 . S
C1915 C1911 1.495 . S
C1915 H1921 0.959 . S
C1915 H1922 0.961 . S
C1915 H1923 0.960 . S
C1916 C1914 1.381 . S
C1916 C1917 1.394 . S
C1916 H1924 0.930 . S
C1917 C1916 1.394 . S
C1917 C1918 1.383 . S
C1917 H1925 0.929 . S
C1918 C1917 1.383 . S
C1918 C1919 1.377 . S
C1919 H1903 0.930 . S
C1919 C1918 1.377 . S
C1919 C1920 1.379 . S
C1920 H1904 0.931 . S
C1920 C1914 1.383 . S
C1920 C1919 1.379 . S
H1921 C1915 0.959 . S
H1922 C1915 0.961 . S
H1923 C1915 0.960 . S
H1924 C1916 0.930 . S
H1925 C1917 0.929 . S
H1926 C1934 0.929 . S
H1927 C1936 0.930 . S
H1928 C1938 0.930 . S
H1929 C1941 0.929 . S
H1930 C1944 0.930 . S
H1931 C1946 0.960 . S
H1932 C1946 0.960 . S
H1933 C1946 0.960 . S
C1934 H1926 0.929 . S
C1934 C1935 1.377 . S
C1934 C1936 1.384 . S
C1935 C1934 1.377 . S
C1935 C1941 1.390 . S
C1936 H1927 0.930 . S
C1936 C1934 1.384 . S
C1936 C1937 1.372 . S
C1937 C1936 1.372 . S
C1937 C1938 1.400 . S
C1937 C1942 1.490 . S
C1938 H1928 0.930 . S
C1938 C1937 1.400 . S
C1938 C1941 1.386 . S
H1939 C1955 0.930 . S
H1940 C1956 0.931 . S
C1941 H1929 0.929 . S
C1941 C1935 1.390 . S
C1941 C1938 1.386 . S
C1942 C1937 1.490 . S
C1942 C1944 1.395 . S
C1942 C1945 1.403 . S
H1943 C1949 0.930 . S
C1944 H1930 0.930 . S
C1944 C1942 1.395 . S
C1944 C1947 1.403 . S
C1945 C1942 1.403 . S
C1945 C1946 1.524 . S
C1945 C1949 1.400 . S
C1946 H1931 0.960 . S
C1946 H1932 0.960 . S
C1946 H1933 0.960 . S
C1946 C1945 1.524 . S
C1947 C1944 1.403 . S
C1947 C1948 1.392 . S
C1947 C1951 1.495 . S
C1948 C1947 1.392 . S
C1948 C1949 1.385 . S
C1948 C1950 1.478 . S
C1949 H1943 0.930 . S
C1949 C1945 1.400 . S
C1949 C1948 1.385 . S
C1950 C1948 1.478 . S
C1950 C1952 1.381 . S
C1950 C1956 1.383 . S
C1951 C1947 1.495 . S
C1951 H1957 0.959 . S
C1951 H1958 0.961 . S
C1951 H1959 0.960 . S
C1952 C1950 1.381 . S
C1952 C1953 1.394 . S
C1952 H1960 0.930 . S
C1953 C1952 1.394 . S
C1953 C1954 1.383 . S
C1953 H1961 0.929 . S
C1954 C1953 1.383 . S
C1954 C1955 1.377 . S
C1955 H1939 0.930 . S
C1955 C1954 1.377 . S
C1955 C1956 1.379 . S
C1956 H1940 0.931 . S
C1956 C1950 1.383 . S
C1956 C1955 1.379 . S
H1957 C1951 0.959 . S
H1958 C1951 0.961 . S
H1959 C1951 0.960 . S
H1960 C1952 0.930 . S
H1961 C1953 0.929 . S
H1962 C1970 0.929 . S
H1963 C1972 0.930 . S
H1964 C1974 0.930 . S
H1965 C1977 0.929 . S
H1966 C1980 0.930 . S
H1967 C1982 0.960 . S
H1968 C1982 0.960 . S
H1969 C1982 0.960 . S
C1970 H1962 0.929 . S
C1970 C1971 1.377 . S
C1970 C1972 1.384 . S
C1971 C1970 1.377 . S
C1971 C1977 1.390 . S
C1972 H1963 0.930 . S
C1972 C1970 1.384 . S
C1972 C1973 1.372 . S
C1973 C1972 1.372 . S
C1973 C1974 1.400 . S
C1973 C1978 1.490 . S
C1974 H1964 0.930 . S
C1974 C1973 1.400 . S
C1974 C1977 1.386 . S
H1975 C1991 0.930 . S
H1976 C1992 0.931 . S
C1977 H1965 0.929 . S
C1977 C1971 1.390 . S
C1977 C1974 1.386 . S
C1978 C1973 1.490 . S
C1978 C1980 1.395 . S
C1978 C1981 1.403 . S
H1979 C1985 0.930 . S
C1980 H1966 0.930 . S
C1980 C1978 1.395 . S
C1980 C1983 1.403 . S
C1981 C1978 1.403 . S
C1981 C1982 1.524 . S
C1981 C1985 1.400 . S
C1982 H1967 0.960 . S
C1982 H1968 0.960 . S
C1982 H1969 0.960 . S
C1982 C1981 1.524 . S
C1983 C1980 1.403 . S
C1983 C1984 1.392 . S
C1983 C1987 1.495 . S
C1984 C1983 1.392 . S
C1984 C1985 1.385 . S
C1984 C1986 1.478 . S
C1985 H1979 0.930 . S
C1985 C1981 1.400 . S
C1985 C1984 1.385 . S
C1986 C1984 1.478 . S
C1986 C1988 1.381 . S
C1986 C1992 1.383 . S
C1987 C1983 1.495 . S
C1987 H1993 0.959 . S
C1987 H1994 0.961 . S
C1987 H1995 0.960 . S
C1988 C1986 1.381 . S
C1988 C1989 1.394 . S
C1988 H1996 0.930 . S
C1989 C1988 1.394 . S
C1989 C1990 1.383 . S
C1989 H1997 0.929 . S
C1990 C1989 1.383 . S
C1990 C1991 1.377 . S
C1991 H1975 0.930 . S
C1991 C1990 1.377 . S
C1991 C1992 1.379 . S
C1992 H1976 0.931 . S
C1992 C1986 1.383 . S
C1992 C1991 1.379 . S
H1993 C1987 0.959 . S
H1994 C1987 0.961 . S
H1995 C1987 0.960 . S
H1996 C1988 0.930 . S
H1997 C1989 0.929 . S
H1998 C2006 0.929 . S
H1999 C2008 0.930 . S
H2000 C2010 0.930 . S
H2001 C2013 0.929 . S
H2002 C2016 0.930 . S
H2003 C2018 0.960 . S
H2004 C2018 0.960 . S
H2005 C2018 0.960 . S
C2006 H1998 0.929 . S
C2006 C2007 1.377 . S
C2006 C2008 1.384 . S
C2007 C2006 1.377 . S
C2007 C2013 1.390 . S
C2008 H1999 0.930 . S
C2008 C2006 1.384 . S
C2008 C2009 1.372 . S
C2009 C2008 1.372 . S
C2009 C2010 1.400 . S
C2009 C2014 1.490 . S
C2010 H2000 0.930 . S
C2010 C2009 1.400 . S
C2010 C2013 1.386 . S
H2011 C2027 0.930 . S
H2012 C2028 0.931 . S
C2013 H2001 0.929 . S
C2013 C2007 1.390 . S
C2013 C2010 1.386 . S
C2014 C2009 1.490 . S
C2014 C2016 1.395 . S
C2014 C2017 1.403 . S
H2015 C2021 0.930 . S
C2016 H2002 0.930 . S
C2016 C2014 1.395 . S
C2016 C2019 1.403 . S
C2017 C2014 1.403 . S
C2017 C2018 1.524 . S
C2017 C2021 1.400 . S
C2018 H2003 0.960 . S
C2018 H2004 0.960 . S
C2018 H2005 0.960 . S
C2018 C2017 1.524 . S
C2019 C2016 1.403 . S
C2019 C2020 1.392 . S
C2019 C2023 1.495 . S
C2020 C2019 1.392 . S
C2020 C2021 1.385 . S
C2020 C2022 1.478 . S
C2021 H2015 0.930 . S
C2021 C2017 1.400 . S
C2021 C2020 1.385 . S
C2022 C2020 1.478 . S
C2022 C2024 1.381 . S
C2022 C2028 1.383 . S
C2023 C2019 1.495 . S
C2023 H2029 0.959 . S
C2023 H2030 0.961 . S
C2023 H2031 0.960 . S
C2024 C2022 1.381 . S
C2024 C2025 1.394 . S
C2024 H2032 0.930 . S
C2025 C2024 1.394 . S
C2025 C2026 1.383 . S
C2025 H2033 0.929 . S
C2026 C2025 1.383 . S
C2026 C2027 1.377 . S
C2027 H2011 0.930 . S
C2027 C2026 1.377 . S
C2027 C2028 1.379 . S
C2028 H2012 0.931 . S
C2028 C2022 1.383 . S
C2028 C2027 1.379 . S
H2029 C2023 0.959 . S
H2030 C2023 0.961 . S
H2031 C2023 0.960 . S
H2032 C2024 0.930 . S
H2033 C2025 0.929 . S
H2034 C2042 0.929 . S
H2035 C2044 0.930 . S
H2036 C2046 0.930 . S
H2037 C2049 0.929 . S
H2038 C2052 0.930 . S
H2039 C2054 0.960 . S
H2040 C2054 0.960 . S
H2041 C2054 0.960 . S
C2042 H2034 0.929 . S
C2042 C2043 1.377 . S
C2042 C2044 1.384 . S
C2043 C2042 1.377 . S
C2043 C2049 1.390 . S
C2044 H2035 0.930 . S
C2044 C2042 1.384 . S
C2044 C2045 1.372 . S
C2045 C2044 1.372 . S
C2045 C2046 1.400 . S
C2045 C2050 1.490 . S
C2046 H2036 0.930 . S
C2046 C2045 1.400 . S
C2046 C2049 1.386 . S
H2047 C2063 0.930 . S
H2048 C2064 0.931 . S
C2049 H2037 0.929 . S
C2049 C2043 1.390 . S
C2049 C2046 1.386 . S
C2050 C2045 1.490 . S
C2050 C2052 1.395 . S
C2050 C2053 1.403 . S
H2051 C2057 0.930 . S
C2052 H2038 0.930 . S
C2052 C2050 1.395 . S
C2052 C2055 1.403 . S
C2053 C2050 1.403 . S
C2053 C2054 1.524 . S
C2053 C2057 1.400 . S
C2054 H2039 0.960 . S
C2054 H2040 0.960 . S
C2054 H2041 0.960 . S
C2054 C2053 1.524 . S
C2055 C2052 1.403 . S
C2055 C2056 1.392 . S
C2055 C2059 1.495 . S
C2056 C2055 1.392 . S
C2056 C2057 1.385 . S
C2056 C2058 1.478 . S
C2057 H2051 0.930 . S
C2057 C2053 1.400 . S
C2057 C2056 1.385 . S
C2058 C2056 1.478 . S
C2058 C2060 1.381 . S
C2058 C2064 1.383 . S
C2059 C2055 1.495 . S
C2059 H2065 0.959 . S
C2059 H2066 0.961 . S
C2059 H2067 0.960 . S
C2060 C2058 1.381 . S
C2060 C2061 1.394 . S
C2060 H2068 0.930 . S
C2061 C2060 1.394 . S
C2061 C2062 1.383 . S
C2061 H2069 0.929 . S
C2062 C2061 1.383 . S
C2062 C2063 1.377 . S
C2063 H2047 0.930 . S
C2063 C2062 1.377 . S
C2063 C2064 1.379 . S
C2064 H2048 0.931 . S
C2064 C2058 1.383 . S
C2064 C2063 1.379 . S
H2065 C2059 0.959 . S
H2066 C2059 0.961 . S
H2067 C2059 0.960 . S
H2068 C2060 0.930 . S
H2069 C2061 0.929 . S
H2070 C2078 0.929 . S
H2071 C2080 0.930 . S
H2072 C2082 0.930 . S
H2073 C2085 0.929 1_554 S
H2074 C2088 0.930 . S
H2075 C2090 0.960 . S
H2076 C2090 0.960 . S
H2077 C2090 0.960 . S
C2078 H2070 0.929 . S
C2078 C2079 1.377 . S
C2078 C2080 1.384 . S
C2079 C2078 1.377 . S
C2079 C2085 1.390 . S
C2080 H2071 0.930 . S
C2080 C2078 1.384 . S
C2080 C2081 1.372 . S
C2081 C2080 1.372 . S
C2081 C2082 1.400 . S
C2081 C2086 1.490 . S
C2082 H2072 0.930 . S
C2082 C2081 1.400 . S
C2082 C2085 1.386 . S
H2083 C2099 0.930 . S
H2084 C2100 0.931 . S
C2085 H2073 0.929 1_556 S
C2085 C2079 1.390 . S
C2085 C2082 1.386 . S
C2086 C2081 1.490 . S
C2086 C2088 1.395 . S
C2086 C2089 1.403 . S
H2087 C2093 0.930 . S
C2088 H2074 0.930 . S
C2088 C2086 1.395 . S
C2088 C2091 1.403 . S
C2089 C2086 1.403 . S
C2089 C2090 1.524 . S
C2089 C2093 1.400 . S
C2090 H2075 0.960 . S
C2090 H2076 0.960 . S
C2090 H2077 0.960 . S
C2090 C2089 1.524 . S
C2091 C2088 1.403 . S
C2091 C2092 1.392 . S
C2091 C2095 1.495 . S
C2092 C2091 1.392 . S
C2092 C2093 1.385 . S
C2092 C2094 1.478 . S
C2093 H2087 0.930 . S
C2093 C2089 1.400 . S
C2093 C2092 1.385 . S
C2094 C2092 1.478 . S
C2094 C2096 1.381 . S
C2094 C2100 1.383 . S
C2095 C2091 1.495 . S
C2095 H2101 0.959 . S
C2095 H2102 0.961 . S
C2095 H2103 0.960 . S
C2096 C2094 1.381 . S
C2096 C2097 1.394 . S
C2096 H2104 0.930 . S
C2097 C2096 1.394 . S
C2097 C2098 1.383 . S
C2097 H2105 0.929 . S
C2098 C2097 1.383 . S
C2098 C2099 1.377 . S
C2099 H2083 0.930 . S
C2099 C2098 1.377 . S
C2099 C2100 1.379 . S
C2100 H2084 0.931 . S
C2100 C2094 1.383 . S
C2100 C2099 1.379 . S
H2101 C2095 0.959 . S
H2102 C2095 0.961 . S
H2103 C2095 0.960 . S
H2104 C2096 0.930 . S
H2105 C2097 0.929 . S
H2106 C2114 0.929 . S
H2107 C2116 0.930 . S
H2108 C2118 0.930 . S
H2109 C2121 0.929 . S
H2110 C2124 0.930 . S
H2111 C2126 0.960 . S
H2112 C2126 0.960 . S
H2113 C2126 0.960 . S
C2114 H2106 0.929 . S
C2114 C2115 1.377 . S
C2114 C2116 1.384 . S
C2115 C2114 1.377 . S
C2115 C2121 1.390 . S
C2116 H2107 0.930 . S
C2116 C2114 1.384 . S
C2116 C2117 1.372 . S
C2117 C2116 1.372 . S
C2117 C2118 1.400 . S
C2117 C2122 1.490 . S
C2118 H2108 0.930 . S
C2118 C2117 1.400 . S
C2118 C2121 1.386 . S
H2119 C2135 0.930 . S
H2120 C2136 0.931 . S
C2121 H2109 0.929 . S
C2121 C2115 1.390 . S
C2121 C2118 1.386 . S
C2122 C2117 1.490 . S
C2122 C2124 1.395 . S
C2122 C2125 1.403 . S
H2123 C2129 0.930 . S
C2124 H2110 0.930 . S
C2124 C2122 1.395 . S
C2124 C2127 1.403 . S
C2125 C2122 1.403 . S
C2125 C2126 1.524 . S
C2125 C2129 1.400 . S
C2126 H2111 0.960 . S
C2126 H2112 0.960 . S
C2126 H2113 0.960 . S
C2126 C2125 1.524 . S
C2127 C2124 1.403 . S
C2127 C2128 1.392 . S
C2127 C2131 1.495 . S
C2128 C2127 1.392 . S
C2128 C2129 1.385 . S
C2128 C2130 1.478 . S
C2129 H2123 0.930 . S
C2129 C2125 1.400 . S
C2129 C2128 1.385 . S
C2130 C2128 1.478 . S
C2130 C2132 1.381 . S
C2130 C2136 1.383 . S
C2131 C2127 1.495 . S
C2131 H2137 0.959 . S
C2131 H2138 0.961 . S
C2131 H2139 0.960 . S
C2132 C2130 1.381 . S
C2132 C2133 1.394 . S
C2132 H2140 0.930 . S
C2133 C2132 1.394 . S
C2133 C2134 1.383 . S
C2133 H2141 0.929 . S
C2134 C2133 1.383 . S
C2134 C2135 1.377 . S
C2135 H2119 0.930 . S
C2135 C2134 1.377 . S
C2135 C2136 1.379 . S
C2136 H2120 0.931 . S
C2136 C2130 1.383 . S
C2136 C2135 1.379 . S
H2137 C2131 0.959 . S
H2138 C2131 0.961 . S
H2139 C2131 0.960 . S
H2140 C2132 0.930 . S
H2141 C2133 0.929 . S
H2142 C2150 0.929 . S
H2143 C2152 0.930 . S
H2144 C2154 0.930 . S
H2145 C2157 0.929 . S
H2146 C2160 0.930 . S
H2147 C2162 0.960 . S
H2148 C2162 0.960 . S
H2149 C2162 0.960 . S
C2150 H2142 0.929 . S
C2150 C2151 1.377 . S
C2150 C2152 1.384 . S
C2151 C2150 1.377 . S
C2151 C2157 1.390 . S
C2152 H2143 0.930 . S
C2152 C2150 1.384 . S
C2152 C2153 1.372 . S
C2153 C2152 1.372 . S
C2153 C2154 1.400 . S
C2153 C2158 1.490 . S
C2154 H2144 0.930 . S
C2154 C2153 1.400 . S
C2154 C2157 1.386 . S
H2155 C2171 0.930 . S
H2156 C2172 0.931 . S
C2157 H2145 0.929 . S
C2157 C2151 1.390 . S
C2157 C2154 1.386 . S
C2158 C2153 1.490 . S
C2158 C2160 1.395 . S
C2158 C2161 1.403 . S
H2159 C2165 0.930 . S
C2160 H2146 0.930 . S
C2160 C2158 1.395 . S
C2160 C2163 1.403 . S
C2161 C2158 1.403 . S
C2161 C2162 1.524 . S
C2161 C2165 1.400 . S
C2162 H2147 0.960 . S
C2162 H2148 0.960 . S
C2162 H2149 0.960 . S
C2162 C2161 1.524 . S
C2163 C2160 1.403 . S
C2163 C2164 1.392 . S
C2163 C2167 1.495 . S
C2164 C2163 1.392 . S
C2164 C2165 1.385 . S
C2164 C2166 1.478 . S
C2165 H2159 0.930 . S
C2165 C2161 1.400 . S
C2165 C2164 1.385 . S
C2166 C2164 1.478 . S
C2166 C2168 1.381 . S
C2166 C2172 1.383 . S
C2167 C2163 1.495 . S
C2167 H2173 0.959 . S
C2167 H2174 0.961 . S
C2167 H2175 0.960 . S
C2168 C2166 1.381 . S
C2168 C2169 1.394 . S
C2168 H2176 0.930 . S
C2169 C2168 1.394 . S
C2169 C2170 1.383 . S
C2169 H2177 0.929 . S
C2170 C2169 1.383 . S
C2170 C2171 1.377 . S
C2171 H2155 0.930 . S
C2171 C2170 1.377 . S
C2171 C2172 1.379 . S
C2172 H2156 0.931 . S
C2172 C2166 1.383 . S
C2172 C2171 1.379 . S
H2173 C2167 0.959 . S
H2174 C2167 0.961 . S
H2175 C2167 0.960 . S
H2176 C2168 0.930 . S
H2177 C2169 0.929 . S
H2178 C2186 0.929 . S
H2179 C2188 0.930 . S
H2180 C2190 0.930 . S
H2181 C2193 0.929 . S
H2182 C2196 0.930 . S
H2183 C2198 0.960 . S
H2184 C2198 0.960 . S
H2185 C2198 0.960 . S
C2186 H2178 0.929 . S
C2186 C2187 1.377 . S
C2186 C2188 1.384 . S
C2187 C2186 1.377 . S
C2187 C2193 1.390 . S
C2188 H2179 0.930 . S
C2188 C2186 1.384 . S
C2188 C2189 1.372 . S
C2189 C2188 1.372 . S
C2189 C2190 1.400 . S
C2189 C2194 1.490 . S
C2190 H2180 0.930 . S
C2190 C2189 1.400 . S
C2190 C2193 1.386 . S
H2191 C2207 0.930 . S
H2192 C2208 0.931 . S
C2193 H2181 0.929 . S
C2193 C2187 1.390 . S
C2193 C2190 1.386 . S
C2194 C2189 1.490 . S
C2194 C2196 1.395 . S
C2194 C2197 1.403 . S
H2195 C2201 0.930 . S
C2196 H2182 0.930 . S
C2196 C2194 1.395 . S
C2196 C2199 1.403 . S
C2197 C2194 1.403 . S
C2197 C2198 1.524 . S
C2197 C2201 1.400 . S
C2198 H2183 0.960 . S
C2198 H2184 0.960 . S
C2198 H2185 0.960 . S
C2198 C2197 1.524 . S
C2199 C2196 1.403 . S
C2199 C2200 1.392 . S
C2199 C2203 1.495 . S
C2200 C2199 1.392 . S
C2200 C2201 1.385 . S
C2200 C2202 1.478 . S
C2201 H2195 0.930 . S
C2201 C2197 1.400 . S
C2201 C2200 1.385 . S
C2202 C2200 1.478 . S
C2202 C2204 1.381 . S
C2202 C2208 1.383 . S
C2203 C2199 1.495 . S
C2203 H2209 0.959 . S
C2203 H2210 0.961 . S
C2203 H2211 0.960 . S
C2204 C2202 1.381 . S
C2204 C2205 1.394 . S
C2204 H2212 0.930 . S
C2205 C2204 1.394 . S
C2205 C2206 1.383 . S
C2205 H2213 0.929 . S
C2206 C2205 1.383 . S
C2206 C2207 1.377 . S
C2207 H2191 0.930 . S
C2207 C2206 1.377 . S
C2207 C2208 1.379 . S
C2208 H2192 0.931 . S
C2208 C2202 1.383 . S
C2208 C2207 1.379 . S
H2209 C2203 0.959 . S
H2210 C2203 0.961 . S
H2211 C2203 0.960 . S
H2212 C2204 0.930 . S
H2213 C2205 0.929 . S
H2214 C2222 0.929 . S
H2215 C2224 0.930 . S
H2216 C2226 0.930 . S
H2217 C2229 0.929 1_554 S
H2218 C2232 0.930 . S
H2219 C2234 0.960 . S
H2220 C2234 0.960 . S
H2221 C2234 0.960 . S
C2222 H2214 0.929 . S
C2222 C2223 1.377 . S
C2222 C2224 1.384 . S
C2223 C2222 1.377 . S
C2223 C2229 1.390 . S
C2224 H2215 0.930 . S
C2224 C2222 1.384 . S
C2224 C2225 1.372 . S
C2225 C2224 1.372 . S
C2225 C2226 1.400 . S
C2225 C2230 1.490 . S
C2226 H2216 0.930 . S
C2226 C2225 1.400 . S
C2226 C2229 1.386 . S
H2227 C2243 0.930 . S
H2228 C2244 0.931 . S
C2229 H2217 0.929 1_556 S
C2229 C2223 1.390 . S
C2229 C2226 1.386 . S
C2230 C2225 1.490 . S
C2230 C2232 1.395 . S
C2230 C2233 1.403 . S
H2231 C2237 0.930 . S
C2232 H2218 0.930 . S
C2232 C2230 1.395 . S
C2232 C2235 1.403 . S
C2233 C2230 1.403 . S
C2233 C2234 1.524 . S
C2233 C2237 1.400 . S
C2234 H2219 0.960 . S
C2234 H2220 0.960 . S
C2234 H2221 0.960 . S
C2234 C2233 1.524 . S
C2235 C2232 1.403 . S
C2235 C2236 1.392 . S
C2235 C2239 1.495 . S
C2236 C2235 1.392 . S
C2236 C2237 1.385 . S
C2236 C2238 1.478 . S
C2237 H2231 0.930 . S
C2237 C2233 1.400 . S
C2237 C2236 1.385 . S
C2238 C2236 1.478 . S
C2238 C2240 1.381 . S
C2238 C2244 1.383 . S
C2239 C2235 1.495 . S
C2239 H2245 0.959 . S
C2239 H2246 0.961 . S
C2239 H2247 0.960 . S
C2240 C2238 1.381 . S
C2240 C2241 1.394 . S
C2240 H2248 0.930 . S
C2241 C2240 1.394 . S
C2241 C2242 1.383 . S
C2241 H2249 0.929 . S
C2242 C2241 1.383 . S
C2242 C2243 1.377 . S
C2243 H2227 0.930 . S
C2243 C2242 1.377 . S
C2243 C2244 1.379 . S
C2244 H2228 0.931 . S
C2244 C2238 1.383 . S
C2244 C2243 1.379 . S
H2245 C2239 0.959 . S
H2246 C2239 0.961 . S
H2247 C2239 0.960 . S
H2248 C2240 0.930 . S
H2249 C2241 0.929 . S
H2250 C2258 0.929 . S
H2251 C2260 0.930 . S
H2252 C2262 0.930 . S
H2253 C2265 0.929 . S
H2254 C2268 0.930 . S
H2255 C2270 0.960 . S
H2256 C2270 0.960 . S
H2257 C2270 0.960 . S
C2258 H2250 0.929 . S
C2258 C2259 1.377 . S
C2258 C2260 1.384 . S
C2259 C2258 1.377 . S
C2259 C2265 1.390 . S
C2260 H2251 0.930 . S
C2260 C2258 1.384 . S
C2260 C2261 1.372 . S
C2261 C2260 1.372 . S
C2261 C2262 1.400 . S
C2261 C2266 1.490 . S
C2262 H2252 0.930 . S
C2262 C2261 1.400 . S
C2262 C2265 1.386 . S
H2263 C2279 0.930 . S
H2264 C2280 0.931 . S
C2265 H2253 0.929 . S
C2265 C2259 1.390 . S
C2265 C2262 1.386 . S
C2266 C2261 1.490 . S
C2266 C2268 1.395 . S
C2266 C2269 1.403 . S
H2267 C2273 0.930 . S
C2268 H2254 0.930 . S
C2268 C2266 1.395 . S
C2268 C2271 1.403 . S
C2269 C2266 1.403 . S
C2269 C2270 1.524 . S
C2269 C2273 1.400 . S
C2270 H2255 0.960 . S
C2270 H2256 0.960 . S
C2270 H2257 0.960 . S
C2270 C2269 1.524 . S
C2271 C2268 1.403 . S
C2271 C2272 1.392 . S
C2271 C2275 1.495 . S
C2272 C2271 1.392 . S
C2272 C2273 1.385 . S
C2272 C2274 1.478 . S
C2273 H2267 0.930 . S
C2273 C2269 1.400 . S
C2273 C2272 1.385 . S
C2274 C2272 1.478 . S
C2274 C2276 1.381 . S
C2274 C2280 1.383 . S
C2275 C2271 1.495 . S
C2275 H2281 0.959 . S
C2275 H2282 0.961 . S
C2275 H2283 0.960 . S
C2276 C2274 1.381 . S
C2276 C2277 1.394 . S
C2276 H2284 0.930 . S
C2277 C2276 1.394 . S
C2277 C2278 1.383 . S
C2277 H2285 0.929 . S
C2278 C2277 1.383 . S
C2278 C2279 1.377 . S
C2279 H2263 0.930 . S
C2279 C2278 1.377 . S
C2279 C2280 1.379 . S
C2280 H2264 0.931 . S
C2280 C2274 1.383 . S
C2280 C2279 1.379 . S
H2281 C2275 0.959 . S
H2282 C2275 0.961 . S
H2283 C2275 0.960 . S
H2284 C2276 0.930 . S
H2285 C2277 0.929 . S
H2286 C2294 0.929 . S
H2287 C2296 0.930 . S
H2288 C2298 0.930 . S
H2289 C2301 0.929 . S
H2290 C2304 0.930 . S
H2291 C2306 0.960 . S
H2292 C2306 0.960 . S
H2293 C2306 0.960 . S
C2294 H2286 0.929 . S
C2294 C2295 1.377 . S
C2294 C2296 1.384 . S
C2295 C2294 1.377 . S
C2295 C2301 1.390 . S
C2296 H2287 0.930 . S
C2296 C2294 1.384 . S
C2296 C2297 1.372 . S
C2297 C2296 1.372 . S
C2297 C2298 1.400 . S
C2297 C2302 1.490 . S
C2298 H2288 0.930 . S
C2298 C2297 1.400 . S
C2298 C2301 1.386 . S
H2299 C2315 0.930 . S
H2300 C2316 0.931 . S
C2301 H2289 0.929 . S
C2301 C2295 1.390 . S
C2301 C2298 1.386 . S
C2302 C2297 1.490 . S
C2302 C2304 1.395 . S
C2302 C2305 1.403 . S
H2303 C2309 0.930 . S
C2304 H2290 0.930 . S
C2304 C2302 1.395 . S
C2304 C2307 1.403 . S
C2305 C2302 1.403 . S
C2305 C2306 1.524 . S
C2305 C2309 1.400 . S
C2306 H2291 0.960 . S
C2306 H2292 0.960 . S
C2306 H2293 0.960 . S
C2306 C2305 1.524 . S
C2307 C2304 1.403 . S
C2307 C2308 1.392 . S
C2307 C2311 1.495 . S
C2308 C2307 1.392 . S
C2308 C2309 1.385 . S
C2308 C2310 1.478 . S
C2309 H2303 0.930 . S
C2309 C2305 1.400 . S
C2309 C2308 1.385 . S
C2310 C2308 1.478 . S
C2310 C2312 1.381 . S
C2310 C2316 1.383 . S
C2311 C2307 1.495 . S
C2311 H2317 0.959 . S
C2311 H2318 0.961 . S
C2311 H2319 0.960 . S
C2312 C2310 1.381 . S
C2312 C2313 1.394 . S
C2312 H2320 0.930 . S
C2313 C2312 1.394 . S
C2313 C2314 1.383 . S
C2313 H2321 0.929 . S
C2314 C2313 1.383 . S
C2314 C2315 1.377 . S
C2315 H2299 0.930 . S
C2315 C2314 1.377 . S
C2315 C2316 1.379 . S
C2316 H2300 0.931 . S
C2316 C2310 1.383 . S
C2316 C2315 1.379 . S
H2317 C2311 0.959 . S
H2318 C2311 0.961 . S
H2319 C2311 0.960 . S
H2320 C2312 0.930 . S
H2321 C2313 0.929 . S
H2322 C2330 0.929 . S
H2323 C2332 0.930 . S
H2324 C2334 0.930 . S
H2325 C2337 0.929 . S
H2326 C2340 0.930 . S
H2327 C2342 0.960 . S
H2328 C2342 0.960 . S
H2329 C2342 0.960 . S
C2330 H2322 0.929 . S
C2330 C2331 1.377 . S
C2330 C2332 1.384 . S
C2331 C2330 1.377 . S
C2331 C2337 1.390 . S
C2332 H2323 0.930 . S
C2332 C2330 1.384 . S
C2332 C2333 1.372 . S
C2333 C2332 1.372 . S
C2333 C2334 1.400 . S
C2333 C2338 1.490 . S
C2334 H2324 0.930 . S
C2334 C2333 1.400 . S
C2334 C2337 1.386 . S
H2335 C2351 0.930 . S
H2336 C2352 0.931 . S
C2337 H2325 0.929 . S
C2337 C2331 1.390 . S
C2337 C2334 1.386 . S
C2338 C2333 1.490 . S
C2338 C2340 1.395 . S
C2338 C2341 1.403 . S
H2339 C2345 0.930 . S
C2340 H2326 0.930 . S
C2340 C2338 1.395 . S
C2340 C2343 1.403 . S
C2341 C2338 1.403 . S
C2341 C2342 1.524 . S
C2341 C2345 1.400 . S
C2342 H2327 0.960 . S
C2342 H2328 0.960 . S
C2342 H2329 0.960 . S
C2342 C2341 1.524 . S
C2343 C2340 1.403 . S
C2343 C2344 1.392 . S
C2343 C2347 1.495 . S
C2344 C2343 1.392 . S
C2344 C2345 1.385 . S
C2344 C2346 1.478 . S
C2345 H2339 0.930 . S
C2345 C2341 1.400 . S
C2345 C2344 1.385 . S
C2346 C2344 1.478 . S
C2346 C2348 1.381 . S
C2346 C2352 1.383 . S
C2347 C2343 1.495 . S
C2347 H2353 0.959 . S
C2347 H2354 0.961 . S
C2347 H2355 0.960 . S
C2348 C2346 1.381 . S
C2348 C2349 1.394 . S
C2348 H2356 0.930 . S
C2349 C2348 1.394 . S
C2349 C2350 1.383 . S
C2349 H2357 0.929 . S
C2350 C2349 1.383 . S
C2350 C2351 1.377 . S
C2351 H2335 0.930 . S
C2351 C2350 1.377 . S
C2351 C2352 1.379 . S
C2352 H2336 0.931 . S
C2352 C2346 1.383 . S
C2352 C2351 1.379 . S
H2353 C2347 0.959 . S
H2354 C2347 0.961 . S
H2355 C2347 0.960 . S
H2356 C2348 0.930 . S
H2357 C2349 0.929 . S
H2358 C2366 0.929 . S
H2359 C2368 0.930 . S
H2360 C2370 0.930 . S
H2361 C2373 0.929 . S
H2362 C2376 0.930 . S
H2363 C2378 0.960 . S
H2364 C2378 0.960 . S
H2365 C2378 0.960 . S
C2366 H2358 0.929 . S
C2366 C2367 1.377 . S
C2366 C2368 1.384 . S
C2367 C2366 1.377 . S
C2367 C2373 1.390 . S
C2368 H2359 0.930 . S
C2368 C2366 1.384 . S
C2368 C2369 1.372 . S
C2369 C2368 1.372 . S
C2369 C2370 1.400 . S
C2369 C2374 1.490 . S
C2370 H2360 0.930 . S
C2370 C2369 1.400 . S
C2370 C2373 1.386 . S
H2371 C2387 0.930 . S
H2372 C2388 0.931 . S
C2373 H2361 0.929 . S
C2373 C2367 1.390 . S
C2373 C2370 1.386 . S
C2374 C2369 1.490 . S
C2374 C2376 1.395 . S
C2374 C2377 1.403 . S
H2375 C2381 0.930 . S
C2376 H2362 0.930 . S
C2376 C2374 1.395 . S
C2376 C2379 1.403 . S
C2377 C2374 1.403 . S
C2377 C2378 1.524 . S
C2377 C2381 1.400 . S
C2378 H2363 0.960 . S
C2378 H2364 0.960 . S
C2378 H2365 0.960 . S
C2378 C2377 1.524 . S
C2379 C2376 1.403 . S
C2379 C2380 1.392 . S
C2379 C2383 1.495 . S
C2380 C2379 1.392 . S
C2380 C2381 1.385 . S
C2380 C2382 1.478 . S
C2381 H2375 0.930 . S
C2381 C2377 1.400 . S
C2381 C2380 1.385 . S
C2382 C2380 1.478 . S
C2382 C2384 1.381 . S
C2382 C2388 1.383 . S
C2383 C2379 1.495 . S
C2383 H2389 0.959 . S
C2383 H2390 0.961 . S
C2383 H2391 0.960 . S
C2384 C2382 1.381 . S
C2384 C2385 1.394 . S
C2384 H2392 0.930 . S
C2385 C2384 1.394 . S
C2385 C2386 1.383 . S
C2385 H2393 0.929 . S
C2386 C2385 1.383 . S
C2386 C2387 1.377 . S
C2387 H2371 0.930 . S
C2387 C2386 1.377 . S
C2387 C2388 1.379 . S
C2388 H2372 0.931 . S
C2388 C2382 1.383 . S
C2388 C2387 1.379 . S
H2389 C2383 0.959 . S
H2390 C2383 0.961 . S
H2391 C2383 0.960 . S
H2392 C2384 0.930 . S
H2393 C2385 0.929 . S
H2394 C2402 0.929 . S
H2395 C2404 0.930 . S
H2396 C2406 0.930 . S
H2397 C2409 0.929 . S
H2398 C2412 0.930 . S
H2399 C2414 0.960 . S
H2400 C2414 0.960 . S
H2401 C2414 0.960 . S
C2402 H2394 0.929 . S
C2402 C2403 1.377 . S
C2402 C2404 1.384 . S
C2403 C2402 1.377 . S
C2403 C2409 1.390 . S
C2404 H2395 0.930 . S
C2404 C2402 1.384 . S
C2404 C2405 1.372 . S
C2405 C2404 1.372 . S
C2405 C2406 1.400 . S
C2405 C2410 1.490 . S
C2406 H2396 0.930 . S
C2406 C2405 1.400 . S
C2406 C2409 1.386 . S
H2407 C2423 0.930 . S
H2408 C2424 0.931 . S
C2409 H2397 0.929 . S
C2409 C2403 1.390 . S
C2409 C2406 1.386 . S
C2410 C2405 1.490 . S
C2410 C2412 1.395 . S
C2410 C2413 1.403 . S
H2411 C2417 0.930 . S
C2412 H2398 0.930 . S
C2412 C2410 1.395 . S
C2412 C2415 1.403 . S
C2413 C2410 1.403 . S
C2413 C2414 1.524 . S
C2413 C2417 1.400 . S
C2414 H2399 0.960 . S
C2414 H2400 0.960 . S
C2414 H2401 0.960 . S
C2414 C2413 1.524 . S
C2415 C2412 1.403 . S
C2415 C2416 1.392 . S
C2415 C2419 1.495 . S
C2416 C2415 1.392 . S
C2416 C2417 1.385 . S
C2416 C2418 1.478 . S
C2417 H2411 0.930 . S
C2417 C2413 1.400 . S
C2417 C2416 1.385 . S
C2418 C2416 1.478 . S
C2418 C2420 1.381 . S
C2418 C2424 1.383 . S
C2419 C2415 1.495 . S
C2419 H2425 0.959 . S
C2419 H2426 0.961 . S
C2419 H2427 0.960 . S
C2420 C2418 1.381 . S
C2420 C2421 1.394 . S
C2420 H2428 0.930 . S
C2421 C2420 1.394 . S
C2421 C2422 1.383 . S
C2421 H2429 0.929 . S
C2422 C2421 1.383 . S
C2422 C2423 1.377 . S
C2423 H2407 0.930 . S
C2423 C2422 1.377 . S
C2423 C2424 1.379 . S
C2424 H2408 0.931 . S
C2424 C2418 1.383 . S
C2424 C2423 1.379 . S
H2425 C2419 0.959 . S
H2426 C2419 0.961 . S
H2427 C2419 0.960 . S
H2428 C2420 0.930 . S
H2429 C2421 0.929 . S
H2430 C2438 0.929 . S
H2431 C2440 0.930 . S
H2432 C2442 0.930 . S
H2433 C2445 0.929 . S
H2434 C2448 0.930 . S
H2435 C2450 0.960 . S
H2436 C2450 0.960 . S
H2437 C2450 0.960 . S
C2438 H2430 0.929 . S
C2438 C2439 1.377 . S
C2438 C2440 1.384 . S
C2439 C2438 1.377 . S
C2439 C2445 1.390 . S
C2440 H2431 0.930 . S
C2440 C2438 1.384 . S
C2440 C2441 1.372 . S
C2441 C2440 1.372 . S
C2441 C2442 1.400 . S
C2441 C2446 1.490 . S
C2442 H2432 0.930 . S
C2442 C2441 1.400 . S
C2442 C2445 1.386 . S
H2443 C2459 0.930 . S
H2444 C2460 0.931 . S
C2445 H2433 0.929 . S
C2445 C2439 1.390 . S
C2445 C2442 1.386 . S
C2446 C2441 1.490 . S
C2446 C2448 1.395 . S
C2446 C2449 1.403 . S
H2447 C2453 0.930 . S
C2448 H2434 0.930 . S
C2448 C2446 1.395 . S
C2448 C2451 1.403 . S
C2449 C2446 1.403 . S
C2449 C2450 1.524 . S
C2449 C2453 1.400 . S
C2450 H2435 0.960 . S
C2450 H2436 0.960 . S
C2450 H2437 0.960 . S
C2450 C2449 1.524 . S
C2451 C2448 1.403 . S
C2451 C2452 1.392 . S
C2451 C2455 1.495 . S
C2452 C2451 1.392 . S
C2452 C2453 1.385 . S
C2452 C2454 1.478 . S
C2453 H2447 0.930 . S
C2453 C2449 1.400 . S
C2453 C2452 1.385 . S
C2454 C2452 1.478 . S
C2454 C2456 1.381 . S
C2454 C2460 1.383 . S
C2455 C2451 1.495 . S
C2455 H2461 0.959 . S
C2455 H2462 0.961 . S
C2455 H2463 0.960 . S
C2456 C2454 1.381 . S
C2456 C2457 1.394 . S
C2456 H2464 0.930 . S
C2457 C2456 1.394 . S
C2457 C2458 1.383 . S
C2457 H2465 0.929 . S
C2458 C2457 1.383 . S
C2458 C2459 1.377 . S
C2459 H2443 0.930 . S
C2459 C2458 1.377 . S
C2459 C2460 1.379 . S
C2460 H2444 0.931 . S
C2460 C2454 1.383 . S
C2460 C2459 1.379 . S
H2461 C2455 0.959 . S
H2462 C2455 0.961 . S
H2463 C2455 0.960 . S
H2464 C2456 0.930 . S
H2465 C2457 0.929 . S
H2466 C2474 0.929 . S
H2467 C2476 0.930 . S
H2468 C2478 0.933 . S
H2469 C2481 0.929 . S
H2470 C2484 0.930 . S
H2471 C2486 0.960 . S
H2472 C2486 0.960 . S
H2473 C2486 0.960 . S
C2474 H2466 0.929 . S
C2474 C2475 1.377 . S
C2474 C2476 1.384 . S
C2475 C2474 1.377 . S
C2475 C2481 1.390 . S
C2476 H2467 0.930 . S
C2476 C2474 1.384 . S
C2476 C2477 1.372 . S
C2477 C2476 1.372 . S
C2477 C2478 1.400 . S
C2477 C2482 1.490 . S
C2478 H2468 0.933 . S
C2478 C2477 1.400 . S
C2478 C2481 1.386 . S
H2479 C2495 0.930 1_655 S
H2480 C2496 0.931 . S
C2481 H2469 0.929 . S
C2481 C2475 1.390 . S
C2481 C2478 1.386 . S
C2482 C2477 1.490 . S
C2482 C2484 1.395 . S
C2482 C2485 1.403 1_455 S
H2483 C2489 0.930 . S
C2484 H2470 0.930 . S
C2484 C2482 1.395 . S
C2484 C2487 1.403 . S
C2485 C2482 1.403 1_655 S
C2485 C2486 1.524 . S
C2485 C2489 1.400 . S
C2486 H2471 0.960 . S
C2486 H2472 0.960 . S
C2486 H2473 0.960 . S
C2486 C2485 1.524 . S
C2487 C2484 1.403 . S
C2487 C2488 1.392 . S
C2487 C2491 1.495 . S
C2488 C2487 1.392 . S
C2488 C2489 1.385 1_455 S
C2488 C2490 1.478 . S
C2489 H2483 0.930 . S
C2489 C2485 1.400 . S
C2489 C2488 1.385 1_655 S
C2490 C2488 1.478 . S
C2490 C2492 1.381 . S
C2490 C2496 1.383 . S
C2491 C2487 1.495 . S
C2491 H2497 0.959 . S
C2491 H2498 0.961 . S
C2491 H2499 0.960 . S
C2492 C2490 1.381 . S
C2492 C2493 1.394 . S
C2492 H2500 0.930 . S
C2493 C2492 1.394 . S
C2493 C2494 1.383 . S
C2493 H2501 0.929 . S
C2494 C2493 1.383 . S
C2494 C2495 1.377 . S
C2495 H2479 0.930 1_455 S
C2495 C2494 1.377 . S
C2495 C2496 1.379 . S
C2496 H2480 0.931 . S
C2496 C2490 1.383 . S
C2496 C2495 1.379 . S
H2497 C2491 0.959 . S
H2498 C2491 0.961 . S
H2499 C2491 0.960 . S
H2500 C2492 0.930 . S
H2501 C2493 0.929 . S
H2502 C2510 0.929 . S
H2503 C2512 0.930 . S
H2504 C2514 0.930 . S
H2505 C2517 0.929 . S
H2506 C2520 0.930 . S
H2507 C2522 0.960 . S
H2508 C2522 0.960 . S
H2509 C2522 0.960 . S
C2510 H2502 0.929 . S
C2510 C2511 1.377 . S
C2510 C2512 1.384 . S
C2511 C2510 1.377 . S
C2511 C2517 1.390 . S
C2512 H2503 0.930 . S
C2512 C2510 1.384 . S
C2512 C2513 1.372 . S
C2513 C2512 1.372 . S
C2513 C2514 1.400 . S
C2513 C2518 1.490 . S
C2514 H2504 0.930 . S
C2514 C2513 1.400 . S
C2514 C2517 1.386 . S
H2515 C2531 0.930 . S
H2516 C2532 0.931 . S
C2517 H2505 0.929 . S
C2517 C2511 1.390 . S
C2517 C2514 1.386 . S
C2518 C2513 1.490 . S
C2518 C2520 1.395 . S
C2518 C2521 1.403 . S
H2519 C2525 0.930 . S
C2520 H2506 0.930 . S
C2520 C2518 1.395 . S
C2520 C2523 1.403 . S
C2521 C2518 1.403 . S
C2521 C2522 1.524 . S
C2521 C2525 1.400 . S
C2522 H2507 0.960 . S
C2522 H2508 0.960 . S
C2522 H2509 0.960 . S
C2522 C2521 1.524 . S
C2523 C2520 1.403 . S
C2523 C2524 1.392 . S
C2523 C2527 1.495 . S
C2524 C2523 1.392 . S
C2524 C2525 1.385 . S
C2524 C2526 1.478 . S
C2525 H2519 0.930 . S
C2525 C2521 1.400 . S
C2525 C2524 1.385 . S
C2526 C2524 1.478 . S
C2526 C2528 1.381 . S
C2526 C2532 1.383 . S
C2527 C2523 1.495 . S
C2527 H2533 0.959 . S
C2527 H2534 0.961 . S
C2527 H2535 0.960 . S
C2528 C2526 1.381 . S
C2528 C2529 1.394 . S
C2528 H2536 0.930 . S
C2529 C2528 1.394 . S
C2529 C2530 1.383 . S
C2529 H2537 0.929 . S
C2530 C2529 1.383 . S
C2530 C2531 1.377 . S
C2531 H2515 0.930 . S
C2531 C2530 1.377 . S
C2531 C2532 1.379 . S
C2532 H2516 0.931 . S
C2532 C2526 1.383 . S
C2532 C2531 1.379 . S
H2533 C2527 0.959 . S
H2534 C2527 0.961 . S
H2535 C2527 0.960 . S
H2536 C2528 0.930 . S
H2537 C2529 0.929 . S
H2538 C2546 0.929 . S
H2539 C2548 0.930 . S
H2540 C2550 0.930 . S
H2541 C2553 0.929 . S
H2542 C2556 0.930 . S
H2543 C2558 0.960 . S
H2544 C2558 0.960 . S
H2545 C2558 0.960 . S
C2546 H2538 0.929 . S
C2546 C2547 1.377 . S
C2546 C2548 1.384 . S
C2547 C2546 1.377 . S
C2547 C2553 1.390 . S
C2548 H2539 0.930 . S
C2548 C2546 1.384 . S
C2548 C2549 1.372 . S
C2549 C2548 1.372 . S
C2549 C2550 1.400 . S
C2549 C2554 1.490 . S
C2550 H2540 0.930 . S
C2550 C2549 1.400 . S
C2550 C2553 1.386 . S
H2551 C2567 0.930 . S
H2552 C2568 0.956 . S
C2553 H2541 0.929 . S
C2553 C2547 1.390 . S
C2553 C2550 1.386 . S
C2554 C2549 1.490 . S
C2554 C2556 1.395 1_565 S
C2554 C2557 1.403 . S
H2555 C2561 0.930 . S
C2556 H2542 0.930 . S
C2556 C2554 1.395 1_545 S
C2556 C2559 1.403 . S
C2557 C2554 1.403 . S
C2557 C2558 1.524 . S
C2557 C2561 1.400 . S
C2558 H2543 0.960 . S
C2558 H2544 0.960 . S
C2558 H2545 0.960 . S
C2558 C2557 1.524 . S
C2559 C2556 1.403 . S
C2559 C2560 1.392 1_545 S
C2559 C2563 1.495 . S
C2560 C2559 1.392 1_565 S
C2560 C2561 1.385 . S
C2560 C2562 1.478 . S
C2561 H2555 0.930 . S
C2561 C2557 1.400 . S
C2561 C2560 1.385 . S
C2562 C2560 1.478 . S
C2562 C2564 1.381 . S
C2562 C2568 1.404 1_565 S
C2563 C2559 1.495 . S
C2563 H2569 0.959 . S
C2563 H2570 0.961 . S
C2563 H2571 0.960 . S
C2564 C2562 1.381 . S
C2564 C2565 1.394 . S
C2564 H2572 0.930 . S
C2565 C2564 1.394 . S
C2565 C2566 1.383 . S
C2565 H2573 0.929 . S
C2566 C2565 1.383 . S
C2566 C2567 1.377 1_565 S
C2567 H2551 0.930 . S
C2567 C2566 1.377 1_545 S
C2567 C2568 1.342 . S
C2568 H2552 0.956 . S
C2568 C2562 1.404 1_545 S
C2568 C2567 1.342 . S
H2569 C2563 0.959 . S
H2570 C2563 0.961 . S
H2571 C2563 0.960 . S
H2572 C2564 0.930 . S
H2573 C2565 0.929 . S
H2574 C2582 0.929 . S
H2575 C2584 0.930 . S
H2576 C2586 0.930 . S
H2577 C2589 0.929 . S
H2578 C2592 0.930 . S
H2579 C2594 0.959 . S
H2580 C2594 0.959 . S
H2581 C2594 0.962 1_565 S
C2582 H2574 0.929 . S
C2582 C2583 1.377 1_545 S
C2582 C2584 1.384 . S
C2583 C2582 1.377 1_565 S
C2583 C2589 1.390 . S
C2584 H2575 0.930 . S
C2584 C2582 1.384 . S
C2584 C2585 1.372 1_545 S
C2585 C2584 1.372 1_565 S
C2585 C2586 1.400 . S
C2585 C2590 1.490 . S
C2586 H2576 0.930 . S
C2586 C2585 1.400 . S
C2586 C2589 1.386 . S
H2587 C2603 0.930 . S
H2588 C2604 0.931 . S
C2589 H2577 0.929 . S
C2589 C2583 1.390 . S
C2589 C2586 1.386 . S
C2590 C2585 1.490 . S
C2590 C2592 1.395 . S
C2590 C2593 1.403 . S
H2591 C2597 0.965 . S
C2592 H2578 0.930 . S
C2592 C2590 1.395 . S
C2592 C2595 1.403 . S
C2593 C2590 1.403 . S
C2593 C2594 1.524 1_565 S
C2593 C2597 1.400 . S
C2594 H2579 0.959 . S
C2594 H2580 0.959 . S
C2594 H2581 0.962 1_545 S
C2594 C2593 1.524 1_545 S
C2595 C2592 1.403 . S
C2595 C2596 1.392 . S
C2595 C2599 1.495 . S
C2596 C2595 1.392 . S
C2596 C2597 1.385 . S
C2596 C2598 1.478 . S
C2597 H2591 0.965 . S
C2597 C2593 1.400 . S
C2597 C2596 1.385 . S
C2598 C2596 1.478 . S
C2598 C2600 1.381 1_565 S
C2598 C2604 1.383 . S
C2599 C2595 1.495 . S
C2599 H2605 0.959 . S
C2599 H2606 0.961 . S
C2599 H2607 1.013 . S
C2600 C2598 1.381 1_545 S
C2600 C2601 1.394 . S
C2600 H2608 0.930 . S
C2601 C2600 1.394 . S
C2601 C2602 1.383 1_545 S
C2601 H2609 0.929 . S
C2602 C2601 1.383 1_565 S
C2602 C2603 1.377 . S
C2603 H2587 0.930 . S
C2603 C2602 1.377 . S
C2603 C2604 1.379 . S
C2604 H2588 0.931 . S
C2604 C2598 1.383 . S
C2604 C2603 1.379 . S
H2605 C2599 0.959 . S
H2606 C2599 0.961 . S
H2607 C2599 1.013 . S
H2608 C2600 0.930 . S
H2609 C2601 0.929 . S
H2610 C2618 0.929 . S
H2611 C2620 0.930 . S
H2612 C2622 0.930 . S
H2613 C2625 0.929 . S
H2614 C2628 0.930 . S
H2615 C2630 0.960 . S
H2616 C2630 0.960 . S
H2617 C2630 0.960 . S
C2618 H2610 0.929 . S
C2618 C2619 1.377 . S
C2618 C2620 1.384 . S
C2619 C2618 1.377 . S
C2619 C2625 1.390 . S
C2620 H2611 0.930 . S
C2620 C2618 1.384 . S
C2620 C2621 1.372 . S
C2621 C2620 1.372 . S
C2621 C2622 1.400 . S
C2621 C2626 1.490 . S
C2622 H2612 0.930 . S
C2622 C2621 1.400 . S
C2622 C2625 1.386 . S
H2623 C2639 0.930 . S
H2624 C2640 0.931 . S
C2625 H2613 0.929 . S
C2625 C2619 1.390 . S
C2625 C2622 1.386 . S
C2626 C2621 1.490 . S
C2626 C2628 1.395 . S
C2626 C2629 1.403 1_455 S
H2627 C2633 0.930 . S
C2628 H2614 0.930 . S
C2628 C2626 1.395 . S
C2628 C2631 1.403 . S
C2629 C2626 1.403 1_655 S
C2629 C2630 1.524 . S
C2629 C2633 1.400 . S
C2630 H2615 0.960 . S
C2630 H2616 0.960 . S
C2630 H2617 0.960 . S
C2630 C2629 1.524 . S
C2631 C2628 1.403 . S
C2631 C2632 1.392 . S
C2631 C2635 1.495 . S
C2632 C2631 1.392 . S
C2632 C2633 1.385 1_455 S
C2632 C2634 1.478 . S
C2633 H2627 0.930 . S
C2633 C2629 1.400 . S
C2633 C2632 1.385 1_655 S
C2634 C2632 1.478 . S
C2634 C2636 1.381 . S
C2634 C2640 1.383 . S
C2635 C2631 1.495 . S
C2635 H2641 0.959 . S
C2635 H2642 0.961 . S
C2635 H2643 0.960 . S
C2636 C2634 1.381 . S
C2636 C2637 1.394 . S
C2636 H2644 0.930 . S
C2637 C2636 1.394 . S
C2637 C2638 1.383 . S
C2637 H2645 0.933 . S
C2638 C2637 1.383 . S
C2638 C2639 1.377 . S
C2639 H2623 0.930 . S
C2639 C2638 1.377 . S
C2639 C2640 1.379 . S
C2640 H2624 0.931 . S
C2640 C2634 1.383 . S
C2640 C2639 1.379 . S
H2641 C2635 0.959 . S
H2642 C2635 0.961 . S
H2643 C2635 0.960 . S
H2644 C2636 0.930 . S
H2645 C2637 0.933 . S
H2646 C2654 0.929 . S
H2647 C2656 0.930 . S
H2648 C2658 0.930 . S
H2649 C2661 0.929 . S
H2650 C2664 0.930 . S
H2651 C2666 0.960 . S
H2652 C2666 0.960 . S
H2653 C2666 0.960 . S
C2654 H2646 0.929 . S
C2654 C2655 1.377 . S
C2654 C2656 1.384 . S
C2655 C2654 1.377 . S
C2655 C2661 1.390 . S
C2656 H2647 0.930 . S
C2656 C2654 1.384 . S
C2656 C2657 1.372 . S
C2657 C2656 1.372 . S
C2657 C2658 1.400 . S
C2657 C2662 1.490 . S
C2658 H2648 0.930 . S
C2658 C2657 1.400 . S
C2658 C2661 1.386 . S
H2659 C2675 0.930 . S
H2660 C2676 0.931 . S
C2661 H2649 0.929 . S
C2661 C2655 1.390 . S
C2661 C2658 1.386 . S
C2662 C2657 1.490 . S
C2662 C2664 1.395 . S
C2662 C2665 1.403 . S
H2663 C2669 0.930 . S
C2664 H2650 0.930 . S
C2664 C2662 1.395 . S
C2664 C2667 1.403 . S
C2665 C2662 1.403 . S
C2665 C2666 1.524 . S
C2665 C2669 1.400 . S
C2666 H2651 0.960 . S
C2666 H2652 0.960 . S
C2666 H2653 0.960 . S
C2666 C2665 1.524 . S
C2667 C2664 1.403 . S
C2667 C2668 1.392 . S
C2667 C2671 1.495 . S
C2668 C2667 1.392 . S
C2668 C2669 1.385 . S
C2668 C2670 1.478 . S
C2669 H2663 0.930 . S
C2669 C2665 1.400 . S
C2669 C2668 1.385 . S
C2670 C2668 1.478 . S
C2670 C2672 1.381 . S
C2670 C2676 1.383 . S
C2671 C2667 1.495 . S
C2671 H2677 0.959 . S
C2671 H2678 0.961 . S
C2671 H2679 0.960 . S
C2672 C2670 1.381 . S
C2672 C2673 1.394 . S
C2672 H2680 0.930 . S
C2673 C2672 1.394 . S
C2673 C2674 1.383 . S
C2673 H2681 0.929 . S
C2674 C2673 1.383 . S
C2674 C2675 1.377 . S
C2675 H2659 0.930 . S
C2675 C2674 1.377 . S
C2675 C2676 1.379 . S
C2676 H2660 0.931 . S
C2676 C2670 1.383 . S
C2676 C2675 1.379 . S
H2677 C2671 0.959 . S
H2678 C2671 0.961 . S
H2679 C2671 0.960 . S
H2680 C2672 0.930 . S
H2681 C2673 0.929 . S
H2682 C2690 0.929 . S
H2683 C2692 0.930 . S
H2684 C2694 0.930 . S
H2685 C2697 0.929 . S
H2686 C2700 0.930 . S
H2687 C2702 0.960 . S
H2688 C2702 0.960 . S
H2689 C2702 0.960 . S
C2690 H2682 0.929 . S
C2690 C2691 1.377 . S
C2690 C2692 1.384 . S
C2691 C2690 1.377 . S
C2691 C2697 1.390 . S
C2692 H2683 0.930 . S
C2692 C2690 1.384 . S
C2692 C2693 1.372 . S
C2693 C2692 1.372 . S
C2693 C2694 1.400 . S
C2693 C2698 1.490 . S
C2694 H2684 0.930 . S
C2694 C2693 1.400 . S
C2694 C2697 1.386 . S
H2695 C2711 0.930 . S
H2696 C2712 0.931 . S
C2697 H2685 0.929 . S
C2697 C2691 1.390 . S
C2697 C2694 1.386 . S
C2698 C2693 1.490 . S
C2698 C2700 1.395 . S
C2698 C2701 1.403 . S
H2699 C2705 0.930 . S
C2700 H2686 0.930 . S
C2700 C2698 1.395 . S
C2700 C2703 1.403 . S
C2701 C2698 1.403 . S
C2701 C2702 1.524 . S
C2701 C2705 1.400 . S
C2702 H2687 0.960 . S
C2702 H2688 0.960 . S
C2702 H2689 0.960 . S
C2702 C2701 1.524 . S
C2703 C2700 1.403 . S
C2703 C2704 1.392 . S
C2703 C2707 1.495 . S
C2704 C2703 1.392 . S
C2704 C2705 1.385 . S
C2704 C2706 1.478 . S
C2705 H2699 0.930 . S
C2705 C2701 1.400 . S
C2705 C2704 1.385 . S
C2706 C2704 1.478 . S
C2706 C2708 1.381 . S
C2706 C2712 1.383 . S
C2707 C2703 1.495 . S
C2707 H2713 0.959 . S
C2707 H2714 0.961 . S
C2707 H2715 0.960 . S
C2708 C2706 1.381 . S
C2708 C2709 1.394 . S
C2708 H2716 0.930 . S
C2709 C2708 1.394 . S
C2709 C2710 1.383 . S
C2709 H2717 0.929 . S
C2710 C2709 1.383 . S
C2710 C2711 1.377 . S
C2711 H2695 0.930 . S
C2711 C2710 1.377 . S
C2711 C2712 1.379 . S
C2712 H2696 0.931 . S
C2712 C2706 1.383 . S
C2712 C2711 1.379 . S
H2713 C2707 0.959 . S
H2714 C2707 0.961 . S
H2715 C2707 0.960 . S
H2716 C2708 0.930 . S
H2717 C2709 0.929 . S
H2718 C2726 0.929 . S
H2719 C2728 0.930 . S
H2720 C2730 0.930 . S
H2721 C2733 0.929 . S
H2722 C2736 0.930 . S
H2723 C2738 0.960 . S
H2724 C2738 0.960 . S
H2725 C2738 0.960 . S
C2726 H2718 0.929 . S
C2726 C2727 1.377 . S
C2726 C2728 1.384 . S
C2727 C2726 1.377 . S
C2727 C2733 1.390 . S
C2728 H2719 0.930 . S
C2728 C2726 1.384 . S
C2728 C2729 1.372 . S
C2729 C2728 1.372 . S
C2729 C2730 1.400 . S
C2729 C2734 1.490 . S
C2730 H2720 0.930 . S
C2730 C2729 1.400 . S
C2730 C2733 1.386 . S
H2731 C2747 0.930 . S
H2732 C2748 0.931 . S
C2733 H2721 0.929 . S
C2733 C2727 1.390 . S
C2733 C2730 1.386 . S
C2734 C2729 1.490 . S
C2734 C2736 1.395 . S
C2734 C2737 1.403 . S
H2735 C2741 0.930 . S
C2736 H2722 0.930 . S
C2736 C2734 1.395 . S
C2736 C2739 1.403 . S
C2737 C2734 1.403 . S
C2737 C2738 1.524 . S
C2737 C2741 1.400 . S
C2738 H2723 0.960 . S
C2738 H2724 0.960 . S
C2738 H2725 0.960 . S
C2738 C2737 1.524 . S
C2739 C2736 1.403 . S
C2739 C2740 1.392 . S
C2739 C2743 1.495 . S
C2740 C2739 1.392 . S
C2740 C2741 1.385 . S
C2740 C2742 1.478 . S
C2741 H2735 0.930 . S
C2741 C2737 1.400 . S
C2741 C2740 1.385 . S
C2742 C2740 1.478 . S
C2742 C2744 1.381 . S
C2742 C2748 1.383 . S
C2743 C2739 1.495 . S
C2743 H2749 0.959 . S
C2743 H2750 0.961 . S
C2743 H2751 0.960 . S
C2744 C2742 1.381 . S
C2744 C2745 1.394 . S
C2744 H2752 0.930 . S
C2745 C2744 1.394 . S
C2745 C2746 1.383 . S
C2745 H2753 0.929 . S
C2746 C2745 1.383 . S
C2746 C2747 1.377 . S
C2747 H2731 0.930 . S
C2747 C2746 1.377 . S
C2747 C2748 1.379 . S
C2748 H2732 0.931 . S
C2748 C2742 1.383 . S
C2748 C2747 1.379 . S
H2749 C2743 0.959 . S
H2750 C2743 0.961 . S
H2751 C2743 0.960 . S
H2752 C2744 0.930 . S
H2753 C2745 0.929 . S
H2754 C2762 0.929 . S
H2755 C2764 0.930 . S
H2756 C2766 0.930 . S
H2757 C2769 0.929 . S
H2758 C2772 0.930 . S
H2759 C2774 0.960 . S
H2760 C2774 0.960 . S
H2761 C2774 0.960 . S
C2762 H2754 0.929 . S
C2762 C2763 1.377 . S
C2762 C2764 1.384 . S
C2763 C2762 1.377 . S
C2763 C2769 1.390 . S
C2764 H2755 0.930 . S
C2764 C2762 1.384 . S
C2764 C2765 1.372 . S
C2765 C2764 1.372 . S
C2765 C2766 1.400 . S
C2765 C2770 1.490 . S
C2766 H2756 0.930 . S
C2766 C2765 1.400 . S
C2766 C2769 1.386 . S
H2767 C2783 0.930 . S
H2768 C2784 0.931 . S
C2769 H2757 0.929 . S
C2769 C2763 1.390 . S
C2769 C2766 1.386 . S
C2770 C2765 1.490 . S
C2770 C2772 1.395 . S
C2770 C2773 1.403 . S
H2771 C2777 0.930 . S
C2772 H2758 0.930 . S
C2772 C2770 1.395 . S
C2772 C2775 1.403 . S
C2773 C2770 1.403 . S
C2773 C2774 1.524 . S
C2773 C2777 1.400 . S
C2774 H2759 0.960 . S
C2774 H2760 0.960 . S
C2774 H2761 0.960 . S
C2774 C2773 1.524 . S
C2775 C2772 1.403 . S
C2775 C2776 1.392 . S
C2775 C2779 1.495 . S
C2776 C2775 1.392 . S
C2776 C2777 1.385 . S
C2776 C2778 1.478 . S
C2777 H2771 0.930 . S
C2777 C2773 1.400 . S
C2777 C2776 1.385 . S
C2778 C2776 1.478 . S
C2778 C2780 1.381 . S
C2778 C2784 1.383 . S
C2779 C2775 1.495 . S
C2779 H2785 0.959 . S
C2779 H2786 0.961 . S
C2779 H2787 0.960 . S
C2780 C2778 1.381 . S
C2780 C2781 1.394 . S
C2780 H2788 0.930 . S
C2781 C2780 1.394 . S
C2781 C2782 1.383 . S
C2781 H2789 0.929 . S
C2782 C2781 1.383 . S
C2782 C2783 1.377 . S
C2783 H2767 0.930 . S
C2783 C2782 1.377 . S
C2783 C2784 1.379 . S
C2784 H2768 0.931 . S
C2784 C2778 1.383 . S
C2784 C2783 1.379 . S
H2785 C2779 0.959 . S
H2786 C2779 0.961 . S
H2787 C2779 0.960 . S
H2788 C2780 0.930 . S
H2789 C2781 0.929 . S
H2790 C2798 0.929 . S
H2791 C2800 0.930 . S
H2792 C2802 0.930 . S
H2793 C2805 0.929 . S
H2794 C2808 0.930 . S
H2795 C2810 0.960 . S
H2796 C2810 0.960 . S
H2797 C2810 0.960 . S
C2798 H2790 0.929 . S
C2798 C2799 1.377 . S
C2798 C2800 1.384 . S
C2799 C2798 1.377 . S
C2799 C2805 1.390 . S
C2800 H2791 0.930 . S
C2800 C2798 1.384 . S
C2800 C2801 1.372 . S
C2801 C2800 1.372 . S
C2801 C2802 1.400 . S
C2801 C2806 1.490 . S
C2802 H2792 0.930 . S
C2802 C2801 1.400 . S
C2802 C2805 1.386 . S
H2803 C2819 0.930 . S
H2804 C2820 0.931 . S
C2805 H2793 0.929 . S
C2805 C2799 1.390 . S
C2805 C2802 1.386 . S
C2806 C2801 1.490 . S
C2806 C2808 1.395 1_545 S
C2806 C2809 1.403 . S
H2807 C2813 0.930 . S
C2808 H2794 0.930 . S
C2808 C2806 1.395 1_565 S
C2808 C2811 1.403 . S
C2809 C2806 1.403 . S
C2809 C2810 1.524 . S
C2809 C2813 1.400 . S
C2810 H2795 0.960 . S
C2810 H2796 0.960 . S
C2810 H2797 0.960 . S
C2810 C2809 1.524 . S
C2811 C2808 1.403 . S
C2811 C2812 1.392 1_565 S
C2811 C2815 1.495 . S
C2812 C2811 1.392 1_545 S
C2812 C2813 1.385 . S
C2812 C2814 1.478 . S
C2813 H2807 0.930 . S
C2813 C2809 1.400 . S
C2813 C2812 1.385 . S
C2814 C2812 1.478 . S
C2814 C2816 1.381 . S
C2814 C2820 1.383 1_545 S
C2815 C2811 1.495 . S
C2815 H2821 0.959 . S
C2815 H2822 0.961 . S
C2815 H2823 0.960 . S
C2816 C2814 1.381 . S
C2816 C2817 1.394 . S
C2816 H2824 0.930 . S
C2817 C2816 1.394 . S
C2817 C2818 1.383 . S
C2817 H2825 0.929 . S
C2818 C2817 1.383 . S
C2818 C2819 1.377 1_545 S
C2819 H2803 0.930 . S
C2819 C2818 1.377 1_565 S
C2819 C2820 1.379 . S
C2820 H2804 0.931 . S
C2820 C2814 1.383 1_565 S
C2820 C2819 1.379 . S
H2821 C2815 0.959 . S
H2822 C2815 0.961 . S
H2823 C2815 0.960 . S
H2824 C2816 0.930 . S
H2825 C2817 0.929 . S
H2826 C2834 0.929 . S
H2827 C2836 0.930 . S
H2828 C2838 0.930 . S
H2829 C2841 0.929 . S
H2830 C2844 0.930 . S
H2831 C2846 0.960 1_455 S
H2832 C2846 0.960 . S
H2833 C2846 0.960 1_455 S
C2834 H2826 0.929 . S
C2834 C2835 1.377 . S
C2834 C2836 1.384 . S
C2835 C2834 1.377 . S
C2835 C2841 1.390 1_655 S
C2836 H2827 0.930 . S
C2836 C2834 1.384 . S
C2836 C2837 1.372 . S
C2837 C2836 1.372 . S
C2837 C2838 1.400 1_655 S
C2837 C2842 1.490 . S
C2838 H2828 0.930 . S
C2838 C2837 1.400 1_455 S
C2838 C2841 1.386 . S
H2839 C2855 0.930 . S
H2840 C2856 0.931 . S
C2841 H2829 0.929 . S
C2841 C2835 1.390 1_455 S
C2841 C2838 1.386 . S
C2842 C2837 1.490 . S
C2842 C2844 1.395 . S
C2842 C2845 1.403 . S
H2843 C2849 0.919 . S
C2844 H2830 0.930 . S
C2844 C2842 1.395 . S
C2844 C2847 1.403 . S
C2845 C2842 1.403 . S
C2845 C2846 1.524 . S
C2845 C2849 1.400 . S
C2846 H2831 0.960 1_655 S
C2846 H2832 0.960 . S
C2846 H2833 0.960 1_655 S
C2846 C2845 1.524 . S
C2847 C2844 1.403 . S
C2847 C2848 1.392 . S
C2847 C2851 1.495 . S
C2848 C2847 1.392 . S
C2848 C2849 1.385 . S
C2848 C2850 1.478 . S
C2849 H2843 0.919 . S
C2849 C2845 1.400 . S
C2849 C2848 1.385 . S
C2850 C2848 1.478 . S
C2850 C2852 1.381 . S
C2850 C2856 1.383 1_655 S
C2851 C2847 1.495 . S
C2851 H2857 0.959 . S
C2851 H2858 0.961 . S
C2851 H2859 0.960 . S
C2852 C2850 1.381 . S
C2852 C2853 1.394 . S
C2852 H2860 0.930 . S
C2853 C2852 1.394 . S
C2853 C2854 1.383 . S
C2853 H2861 0.929 . S
C2854 C2853 1.383 . S
C2854 C2855 1.377 1_655 S
C2855 H2839 0.930 . S
C2855 C2854 1.377 1_455 S
C2855 C2856 1.379 . S
C2856 H2840 0.931 . S
C2856 C2850 1.383 1_455 S
C2856 C2855 1.379 . S
H2857 C2851 0.959 . S
H2858 C2851 0.961 . S
H2859 C2851 0.960 . S
H2860 C2852 0.930 . S
H2861 C2853 0.929 . S
H2862 C2870 0.929 . S
H2863 C2872 0.930 . S
H2864 C2874 0.930 . S
H2865 C2877 0.929 . S
H2866 C2880 0.930 . S
H2867 C2882 0.960 . S
H2868 C2882 0.960 . S
H2869 C2882 0.960 . S
C2870 H2862 0.929 . S
C2870 C2871 1.377 . S
C2870 C2872 1.384 . S
C2871 C2870 1.377 . S
C2871 C2877 1.390 . S
C2872 H2863 0.930 . S
C2872 C2870 1.384 . S
C2872 C2873 1.372 . S
C2873 C2872 1.372 . S
C2873 C2874 1.400 . S
C2873 C2878 1.490 . S
C2874 H2864 0.930 . S
C2874 C2873 1.400 . S
C2874 C2877 1.386 . S
H2875 C2891 0.930 . S
H2876 C2892 0.931 . S
C2877 H2865 0.929 . S
C2877 C2871 1.390 . S
C2877 C2874 1.386 . S
C2878 C2873 1.490 . S
C2878 C2880 1.395 . S
C2878 C2881 1.403 . S
H2879 C2885 0.930 . S
C2880 H2866 0.930 . S
C2880 C2878 1.395 . S
C2880 C2883 1.403 . S
C2881 C2878 1.403 . S
C2881 C2882 1.524 . S
C2881 C2885 1.400 . S
C2882 H2867 0.960 . S
C2882 H2868 0.960 . S
C2882 H2869 0.960 . S
C2882 C2881 1.524 . S
C2883 C2880 1.403 . S
C2883 C2884 1.392 . S
C2883 C2887 1.495 . S
C2884 C2883 1.392 . S
C2884 C2885 1.385 . S
C2884 C2886 1.478 . S
C2885 H2879 0.930 . S
C2885 C2881 1.400 . S
C2885 C2884 1.385 . S
C2886 C2884 1.478 . S
C2886 C2888 1.381 . S
C2886 C2892 1.383 . S
C2887 C2883 1.495 . S
C2887 H2893 0.959 . S
C2887 H2894 0.961 . S
C2887 H2895 0.960 . S
C2888 C2886 1.381 . S
C2888 C2889 1.394 . S
C2888 H2896 0.930 . S
C2889 C2888 1.394 . S
C2889 C2890 1.383 . S
C2889 H2897 0.929 . S
C2890 C2889 1.383 . S
C2890 C2891 1.377 . S
C2891 H2875 0.930 . S
C2891 C2890 1.377 . S
C2891 C2892 1.379 . S
C2892 H2876 0.931 . S
C2892 C2886 1.383 . S
C2892 C2891 1.379 . S
H2893 C2887 0.959 . S
H2894 C2887 0.961 . S
H2895 C2887 0.960 . S
H2896 C2888 0.930 . S
H2897 C2889 0.929 . S
H2898 C2906 0.929 . S
H2899 C2908 0.930 . S
H2900 C2910 0.930 . S
H2901 C2913 0.929 . S
H2902 C2916 0.930 . S
H2903 C2918 0.960 . S
H2904 C2918 0.960 . S
H2905 C2918 0.960 . S
C2906 H2898 0.929 . S
C2906 C2907 1.377 . S
C2906 C2908 1.384 . S
C2907 C2906 1.377 . S
C2907 C2913 1.390 . S
C2908 H2899 0.930 . S
C2908 C2906 1.384 . S
C2908 C2909 1.372 . S
C2909 C2908 1.372 . S
C2909 C2910 1.400 . S
C2909 C2914 1.490 . S
C2910 H2900 0.930 . S
C2910 C2909 1.400 . S
C2910 C2913 1.386 . S
H2911 C2927 0.930 . S
H2912 C2928 0.931 . S
C2913 H2901 0.929 . S
C2913 C2907 1.390 . S
C2913 C2910 1.386 . S
C2914 C2909 1.490 . S
C2914 C2916 1.395 . S
C2914 C2917 1.403 . S
H2915 C2921 0.930 . S
C2916 H2902 0.930 . S
C2916 C2914 1.395 . S
C2916 C2919 1.403 . S
C2917 C2914 1.403 . S
C2917 C2918 1.524 . S
C2917 C2921 1.400 . S
C2918 H2903 0.960 . S
C2918 H2904 0.960 . S
C2918 H2905 0.960 . S
C2918 C2917 1.524 . S
C2919 C2916 1.403 . S
C2919 C2920 1.392 . S
C2919 C2923 1.495 . S
C2920 C2919 1.392 . S
C2920 C2921 1.385 . S
C2920 C2922 1.478 . S
C2921 H2915 0.930 . S
C2921 C2917 1.400 . S
C2921 C2920 1.385 . S
C2922 C2920 1.478 . S
C2922 C2924 1.381 . S
C2922 C2928 1.383 . S
C2923 C2919 1.495 . S
C2923 H2929 0.959 . S
C2923 H2930 0.961 . S
C2923 H2931 0.960 . S
C2924 C2922 1.381 . S
C2924 C2925 1.394 . S
C2924 H2932 0.930 . S
C2925 C2924 1.394 . S
C2925 C2926 1.383 . S
C2925 H2933 0.929 . S
C2926 C2925 1.383 . S
C2926 C2927 1.377 . S
C2927 H2911 0.930 . S
C2927 C2926 1.377 . S
C2927 C2928 1.379 . S
C2928 H2912 0.931 . S
C2928 C2922 1.383 . S
C2928 C2927 1.379 . S
H2929 C2923 0.959 . S
H2930 C2923 0.961 . S
H2931 C2923 0.960 . S
H2932 C2924 0.930 . S
H2933 C2925 0.929 . S
H2934 C2942 0.929 . S
H2935 C2944 0.930 . S
H2936 C2946 0.930 . S
H2937 C2949 0.929 . S
H2938 C2952 0.930 . S
H2939 C2954 0.960 . S
H2940 C2954 0.960 . S
H2941 C2954 0.960 . S
C2942 H2934 0.929 . S
C2942 C2943 1.377 . S
C2942 C2944 1.384 . S
C2943 C2942 1.377 . S
C2943 C2949 1.390 . S
C2944 H2935 0.930 . S
C2944 C2942 1.384 . S
C2944 C2945 1.372 . S
C2945 C2944 1.372 . S
C2945 C2946 1.400 . S
C2945 C2950 1.490 . S
C2946 H2936 0.930 . S
C2946 C2945 1.400 . S
C2946 C2949 1.386 . S
H2947 C2963 0.930 . S
H2948 C2964 0.931 . S
C2949 H2937 0.929 . S
C2949 C2943 1.390 . S
C2949 C2946 1.386 . S
C2950 C2945 1.490 . S
C2950 C2952 1.395 . S
C2950 C2953 1.403 . S
H2951 C2957 0.930 . S
C2952 H2938 0.930 . S
C2952 C2950 1.395 . S
C2952 C2955 1.403 . S
C2953 C2950 1.403 . S
C2953 C2954 1.524 . S
C2953 C2957 1.400 . S
C2954 H2939 0.960 . S
C2954 H2940 0.960 . S
C2954 H2941 0.960 . S
C2954 C2953 1.524 . S
C2955 C2952 1.403 . S
C2955 C2956 1.392 . S
C2955 C2959 1.495 . S
C2956 C2955 1.392 . S
C2956 C2957 1.385 . S
C2956 C2958 1.478 . S
C2957 H2951 0.930 . S
C2957 C2953 1.400 . S
C2957 C2956 1.385 . S
C2958 C2956 1.478 . S
C2958 C2960 1.381 . S
C2958 C2964 1.383 . S
C2959 C2955 1.495 . S
C2959 H2965 0.959 . S
C2959 H2966 0.961 . S
C2959 H2967 0.960 . S
C2960 C2958 1.381 . S
C2960 C2961 1.394 . S
C2960 H2968 0.930 . S
C2961 C2960 1.394 . S
C2961 C2962 1.383 . S
C2961 H2969 0.929 . S
C2962 C2961 1.383 . S
C2962 C2963 1.377 . S
C2963 H2947 0.930 . S
C2963 C2962 1.377 . S
C2963 C2964 1.379 . S
C2964 H2948 0.931 . S
C2964 C2958 1.383 . S
C2964 C2963 1.379 . S
H2965 C2959 0.959 . S
H2966 C2959 0.961 . S
H2967 C2959 0.960 . S
H2968 C2960 0.930 . S
H2969 C2961 0.929 . S
H2970 C2978 0.929 . S
H2971 C2980 0.930 . S
H2972 C2982 0.930 . S
H2973 C2985 0.929 . S
H2974 C2988 0.930 . S
H2975 C2990 0.960 . S
H2976 C2990 0.960 . S
H2977 C2990 0.960 . S
C2978 H2970 0.929 . S
C2978 C2979 1.377 . S
C2978 C2980 1.384 . S
C2979 C2978 1.377 . S
C2979 C2985 1.390 . S
C2980 H2971 0.930 . S
C2980 C2978 1.384 . S
C2980 C2981 1.372 . S
C2981 C2980 1.372 . S
C2981 C2982 1.400 . S
C2981 C2986 1.490 . S
C2982 H2972 0.930 . S
C2982 C2981 1.400 . S
C2982 C2985 1.386 . S
H2983 C2999 0.930 . S
H2984 C3000 0.931 . S
C2985 H2973 0.929 . S
C2985 C2979 1.390 . S
C2985 C2982 1.386 . S
C2986 C2981 1.490 . S
C2986 C2988 1.395 . S
C2986 C2989 1.403 . S
H2987 C2993 0.930 . S
C2988 H2974 0.930 . S
C2988 C2986 1.395 . S
C2988 C2991 1.403 . S
C2989 C2986 1.403 . S
C2989 C2990 1.524 . S
C2989 C2993 1.400 . S
C2990 H2975 0.960 . S
C2990 H2976 0.960 . S
C2990 H2977 0.960 . S
C2990 C2989 1.524 . S
C2991 C2988 1.403 . S
C2991 C2992 1.392 . S
C2991 C2995 1.495 . S
C2992 C2991 1.392 . S
C2992 C2993 1.385 . S
C2992 C2994 1.478 . S
C2993 H2987 0.930 . S
C2993 C2989 1.400 . S
C2993 C2992 1.385 . S
C2994 C2992 1.478 . S
C2994 C2996 1.381 . S
C2994 C3000 1.383 . S
C2995 C2991 1.495 . S
C2995 H3001 0.959 . S
C2995 H3002 0.961 . S
C2995 H3003 0.960 . S
C2996 C2994 1.381 . S
C2996 C2997 1.394 . S
C2996 H3004 0.930 . S
C2997 C2996 1.394 . S
C2997 C2998 1.383 . S
C2997 H3005 0.929 . S
C2998 C2997 1.383 . S
C2998 C2999 1.377 . S
C2999 H2983 0.930 . S
C2999 C2998 1.377 . S
C2999 C3000 1.379 . S
C3000 H2984 0.931 . S
C3000 C2994 1.383 . S
C3000 C2999 1.379 . S
H3001 C2995 0.959 . S
H3002 C2995 0.961 . S
H3003 C2995 0.960 . S
H3004 C2996 0.930 . S
H3005 C2997 0.929 . S
H3006 C3014 0.929 . S
H3007 C3016 0.930 . S
H3008 C3018 0.930 . S
H3009 C3021 0.929 . S
H3010 C3024 0.930 . S
H3011 C3026 0.960 . S
H3012 C3026 0.960 . S
H3013 C3026 0.960 . S
C3014 H3006 0.929 . S
C3014 C3015 1.377 . S
C3014 C3016 1.384 . S
C3015 C3014 1.377 . S
C3015 C3021 1.390 . S
C3016 H3007 0.930 . S
C3016 C3014 1.384 . S
C3016 C3017 1.372 . S
C3017 C3016 1.372 . S
C3017 C3018 1.400 . S
C3017 C3022 1.490 . S
C3018 H3008 0.930 . S
C3018 C3017 1.400 . S
C3018 C3021 1.386 . S
H3019 C3035 0.930 . S
H3020 C3036 0.931 . S
C3021 H3009 0.929 . S
C3021 C3015 1.390 . S
C3021 C3018 1.386 . S
C3022 C3017 1.490 . S
C3022 C3024 1.395 . S
C3022 C3025 1.403 . S
H3023 C3029 0.930 . S
C3024 H3010 0.930 . S
C3024 C3022 1.395 . S
C3024 C3027 1.403 . S
C3025 C3022 1.403 . S
C3025 C3026 1.524 . S
C3025 C3029 1.400 . S
C3026 H3011 0.960 . S
C3026 H3012 0.960 . S
C3026 H3013 0.960 . S
C3026 C3025 1.524 . S
C3027 C3024 1.403 . S
C3027 C3028 1.392 . S
C3027 C3031 1.495 . S
C3028 C3027 1.392 . S
C3028 C3029 1.385 . S
C3028 C3030 1.478 . S
C3029 H3023 0.930 . S
C3029 C3025 1.400 . S
C3029 C3028 1.385 . S
C3030 C3028 1.478 . S
C3030 C3032 1.381 . S
C3030 C3036 1.383 . S
C3031 C3027 1.495 . S
C3031 H3037 0.959 . S
C3031 H3038 0.961 . S
C3031 H3039 0.960 . S
C3032 C3030 1.381 . S
C3032 C3033 1.394 . S
C3032 H3040 0.930 . S
C3033 C3032 1.394 . S
C3033 C3034 1.383 . S
C3033 H3041 0.929 . S
C3034 C3033 1.383 . S
C3034 C3035 1.377 . S
C3035 H3019 0.930 . S
C3035 C3034 1.377 . S
C3035 C3036 1.379 . S
C3036 H3020 0.931 . S
C3036 C3030 1.383 . S
C3036 C3035 1.379 . S
H3037 C3031 0.959 . S
H3038 C3031 0.961 . S
H3039 C3031 0.960 . S
H3040 C3032 0.930 . S
H3041 C3033 0.929 . S
H3042 C3050 0.929 . S
H3043 C3052 0.930 . S
H3044 C3054 0.930 . S
H3045 C3057 0.929 . S
H3046 C3060 0.930 . S
H3047 C3062 0.960 . S
H3048 C3062 0.960 . S
H3049 C3062 0.960 . S
C3050 H3042 0.929 . S
C3050 C3051 1.377 . S
C3050 C3052 1.384 . S
C3051 C3050 1.377 . S
C3051 C3057 1.390 . S
C3052 H3043 0.930 . S
C3052 C3050 1.384 . S
C3052 C3053 1.372 . S
C3053 C3052 1.372 . S
C3053 C3054 1.400 . S
C3053 C3058 1.490 . S
C3054 H3044 0.930 . S
C3054 C3053 1.400 . S
C3054 C3057 1.386 . S
H3055 C3071 0.930 . S
H3056 C3072 0.931 . S
C3057 H3045 0.929 . S
C3057 C3051 1.390 . S
C3057 C3054 1.386 . S
C3058 C3053 1.490 . S
C3058 C3060 1.395 . S
C3058 C3061 1.403 . S
H3059 C3065 0.930 . S
C3060 H3046 0.930 . S
C3060 C3058 1.395 . S
C3060 C3063 1.403 . S
C3061 C3058 1.403 . S
C3061 C3062 1.524 . S
C3061 C3065 1.400 . S
C3062 H3047 0.960 . S
C3062 H3048 0.960 . S
C3062 H3049 0.960 . S
C3062 C3061 1.524 . S
C3063 C3060 1.403 . S
C3063 C3064 1.392 . S
C3063 C3067 1.495 . S
C3064 C3063 1.392 . S
C3064 C3065 1.385 . S
C3064 C3066 1.478 . S
C3065 H3059 0.930 . S
C3065 C3061 1.400 . S
C3065 C3064 1.385 . S
C3066 C3064 1.478 . S
C3066 C3068 1.381 . S
C3066 C3072 1.383 . S
C3067 C3063 1.495 . S
C3067 H3073 0.959 . S
C3067 H3074 0.961 . S
C3067 H3075 0.960 . S
C3068 C3066 1.381 . S
C3068 C3069 1.394 . S
C3068 H3076 0.930 . S
C3069 C3068 1.394 . S
C3069 C3070 1.383 . S
C3069 H3077 0.929 . S
C3070 C3069 1.383 . S
C3070 C3071 1.377 . S
C3071 H3055 0.930 . S
C3071 C3070 1.377 . S
C3071 C3072 1.379 . S
C3072 H3056 0.931 . S
C3072 C3066 1.383 . S
C3072 C3071 1.379 . S
H3073 C3067 0.959 . S
H3074 C3067 0.961 . S
H3075 C3067 0.960 . S
H3076 C3068 0.930 . S
H3077 C3069 0.929 . S
H3078 C3086 0.929 . S
H3079 C3088 0.930 . S
H3080 C3090 0.930 . S
H3081 C3093 0.929 . S
H3082 C3096 0.930 . S
H3083 C3098 0.960 . S
H3084 C3098 0.960 . S
H3085 C3098 0.960 . S
C3086 H3078 0.929 . S
C3086 C3087 1.377 . S
C3086 C3088 1.384 . S
C3087 C3086 1.377 . S
C3087 C3093 1.390 . S
C3088 H3079 0.930 . S
C3088 C3086 1.384 . S
C3088 C3089 1.372 . S
C3089 C3088 1.372 . S
C3089 C3090 1.400 . S
C3089 C3094 1.490 . S
C3090 H3080 0.930 . S
C3090 C3089 1.400 . S
C3090 C3093 1.386 . S
H3091 C3107 0.930 . S
H3092 C3108 0.931 . S
C3093 H3081 0.929 . S
C3093 C3087 1.390 . S
C3093 C3090 1.386 . S
C3094 C3089 1.490 . S
C3094 C3096 1.395 . S
C3094 C3097 1.403 . S
H3095 C3101 0.930 . S
C3096 H3082 0.930 . S
C3096 C3094 1.395 . S
C3096 C3099 1.403 . S
C3097 C3094 1.403 . S
C3097 C3098 1.524 . S
C3097 C3101 1.400 . S
C3098 H3083 0.960 . S
C3098 H3084 0.960 . S
C3098 H3085 0.960 . S
C3098 C3097 1.524 . S
C3099 C3096 1.403 . S
C3099 C3100 1.392 . S
C3099 C3103 1.495 . S
C3100 C3099 1.392 . S
C3100 C3101 1.385 . S
C3100 C3102 1.478 . S
C3101 H3095 0.930 . S
C3101 C3097 1.400 . S
C3101 C3100 1.385 . S
C3102 C3100 1.478 . S
C3102 C3104 1.381 . S
C3102 C3108 1.383 . S
C3103 C3099 1.495 . S
C3103 H3109 0.959 . S
C3103 H3110 0.961 . S
C3103 H3111 0.960 . S
C3104 C3102 1.381 . S
C3104 C3105 1.394 . S
C3104 H3112 0.930 . S
C3105 C3104 1.394 . S
C3105 C3106 1.383 . S
C3105 H3113 0.929 . S
C3106 C3105 1.383 . S
C3106 C3107 1.377 . S
C3107 H3091 0.930 . S
C3107 C3106 1.377 . S
C3107 C3108 1.379 . S
C3108 H3092 0.931 . S
C3108 C3102 1.383 . S
C3108 C3107 1.379 . S
H3109 C3103 0.959 . S
H3110 C3103 0.961 . S
H3111 C3103 0.960 . S
H3112 C3104 0.930 . S
H3113 C3105 0.929 . S
H3114 C3122 0.942 . S
H3115 C3124 0.930 1_455 S
H3116 C3126 0.930 . S
H3117 C3129 0.929 . S
H3118 C3132 0.930 . S
H3119 C3134 0.960 . S
H3120 C3134 0.960 . S
H3121 C3134 0.960 . S
C3122 H3114 0.942 . S
C3122 C3123 1.377 . S
C3122 C3124 1.384 . S
C3123 C3122 1.377 . S
C3123 C3129 1.390 . S
C3124 H3115 0.930 1_655 S
C3124 C3122 1.384 . S
C3124 C3125 1.372 . S
C3125 C3124 1.372 . S
C3125 C3126 1.400 . S
C3125 C3130 1.490 . S
C3126 H3116 0.930 . S
C3126 C3125 1.400 . S
C3126 C3129 1.386 . S
H3127 C3143 0.930 . S
H3128 C3144 0.931 . S
C3129 H3117 0.929 . S
C3129 C3123 1.390 . S
C3129 C3126 1.386 . S
C3130 C3125 1.490 . S
C3130 C3132 1.395 1_655 S
C3130 C3133 1.403 . S
H3131 C3137 0.930 . S
C3132 H3118 0.930 . S
C3132 C3130 1.395 1_455 S
C3132 C3135 1.403 . S
C3133 C3130 1.403 . S
C3133 C3134 1.524 . S
C3133 C3137 1.400 . S
C3134 H3119 0.960 . S
C3134 H3120 0.960 . S
C3134 H3121 0.960 . S
C3134 C3133 1.524 . S
C3135 C3132 1.403 . S
C3135 C3136 1.392 1_455 S
C3135 C3139 1.495 . S
C3136 C3135 1.392 1_655 S
C3136 C3137 1.385 . S
C3136 C3138 1.484 . S
C3137 H3131 0.930 . S
C3137 C3133 1.400 . S
C3137 C3136 1.385 . S
C3138 C3136 1.484 . S
C3138 C3140 1.373 1_655 S
C3138 C3144 1.385 . S
C3139 C3135 1.495 . S
C3139 H3145 0.959 . S
C3139 H3146 0.961 . S
C3139 H3147 0.960 . S
C3140 C3138 1.373 1_455 S
C3140 C3141 1.394 . S
C3140 H3148 0.930 . S
C3141 C3140 1.394 . S
C3141 C3142 1.383 . S
C3141 H3149 0.929 . S
C3142 C3141 1.383 . S
C3142 C3143 1.378 1_455 S
C3143 H3127 0.930 . S
C3143 C3142 1.378 1_655 S
C3143 C3144 1.379 . S
C3144 H3128 0.931 . S
C3144 C3138 1.385 . S
C3144 C3143 1.379 . S
H3145 C3139 0.959 . S
H3146 C3139 0.961 . S
H3147 C3139 0.960 . S
H3148 C3140 0.930 . S
H3149 C3141 0.929 . S
H3150 C3158 0.929 . S
H3151 C3160 0.930 . S
H3152 C3162 0.930 . S
H3153 C3165 0.929 . S
H3154 C3168 0.930 . S
H3155 C3170 0.960 . S
H3156 C3170 0.960 . S
H3157 C3170 0.960 . S
C3158 H3150 0.929 . S
C3158 C3159 1.377 . S
C3158 C3160 1.384 . S
C3159 C3158 1.377 . S
C3159 C3165 1.390 . S
C3160 H3151 0.930 . S
C3160 C3158 1.384 . S
C3160 C3161 1.372 . S
C3161 C3160 1.372 . S
C3161 C3162 1.400 . S
C3161 C3166 1.490 . S
C3162 H3152 0.930 . S
C3162 C3161 1.400 . S
C3162 C3165 1.386 . S
H3163 C3179 0.930 . S
H3164 C3180 0.931 . S
C3165 H3153 0.929 . S
C3165 C3159 1.390 . S
C3165 C3162 1.386 . S
C3166 C3161 1.490 . S
C3166 C3168 1.395 . S
C3166 C3169 1.403 . S
H3167 C3173 0.930 . S
C3168 H3154 0.930 . S
C3168 C3166 1.395 . S
C3168 C3171 1.403 . S
C3169 C3166 1.403 . S
C3169 C3170 1.524 . S
C3169 C3173 1.400 . S
C3170 H3155 0.960 . S
C3170 H3156 0.960 . S
C3170 H3157 0.960 . S
C3170 C3169 1.524 . S
C3171 C3168 1.403 . S
C3171 C3172 1.392 . S
C3171 C3175 1.495 . S
C3172 C3171 1.392 . S
C3172 C3173 1.385 . S
C3172 C3174 1.478 . S
C3173 H3167 0.930 . S
C3173 C3169 1.400 . S
C3173 C3172 1.385 . S
C3174 C3172 1.478 . S
C3174 C3176 1.381 . S
C3174 C3180 1.383 . S
C3175 C3171 1.495 . S
C3175 H3181 0.959 . S
C3175 H3182 0.961 . S
C3175 H3183 0.960 . S
C3176 C3174 1.381 . S
C3176 C3177 1.394 . S
C3176 H3184 0.930 . S
C3177 C3176 1.394 . S
C3177 C3178 1.383 . S
C3177 H3185 0.929 . S
C3178 C3177 1.383 . S
C3178 C3179 1.377 . S
C3179 H3163 0.930 . S
C3179 C3178 1.377 . S
C3179 C3180 1.379 . S
C3180 H3164 0.931 . S
C3180 C3174 1.383 . S
C3180 C3179 1.379 . S
H3181 C3175 0.959 . S
H3182 C3175 0.961 . S
H3183 C3175 0.960 . S
H3184 C3176 0.930 . S
H3185 C3177 0.929 . S
H3186 C3194 0.929 . S
H3187 C3196 0.930 . S
H3188 C3198 0.926 1_565 S
H3189 C3201 0.929 1_565 S
H3190 C3204 0.930 . S
H3191 C3206 0.960 . S
H3192 C3206 0.960 . S
H3193 C3206 0.960 . S
C3194 H3186 0.929 . S
C3194 C3195 1.377 . S
C3194 C3196 1.384 . S
C3195 C3194 1.377 . S
C3195 C3201 1.390 . S
C3196 H3187 0.930 . S
C3196 C3194 1.384 . S
C3196 C3197 1.372 . S
C3197 C3196 1.372 . S
C3197 C3198 1.417 . S
C3197 C3202 1.490 . S
C3198 H3188 0.926 1_545 S
C3198 C3197 1.417 . S
C3198 C3201 1.373 . S
H3199 C3215 0.930 . S
H3200 C3216 0.931 . S
C3201 H3189 0.929 1_545 S
C3201 C3195 1.390 . S
C3201 C3198 1.373 . S
C3202 C3197 1.490 . S
C3202 C3204 1.395 . S
C3202 C3205 1.403 1_545 S
H3203 C3209 0.930 . S
C3204 H3190 0.930 . S
C3204 C3202 1.395 . S
C3204 C3207 1.403 . S
C3205 C3202 1.403 1_565 S
C3205 C3206 1.524 . S
C3205 C3209 1.400 . S
C3206 H3191 0.960 . S
C3206 H3192 0.960 . S
C3206 H3193 0.960 . S
C3206 C3205 1.524 . S
C3207 C3204 1.403 . S
C3207 C3208 1.392 . S
C3207 C3211 1.495 . S
C3208 C3207 1.392 . S
C3208 C3209 1.385 1_545 S
C3208 C3210 1.478 . S
C3209 H3203 0.930 . S
C3209 C3205 1.400 . S
C3209 C3208 1.385 1_565 S
C3210 C3208 1.478 . S
C3210 C3212 1.381 . S
C3210 C3216 1.383 1_545 S
C3211 C3207 1.495 . S
C3211 H3217 0.959 . S
C3211 H3218 0.961 . S
C3211 H3219 0.960 . S
C3212 C3210 1.381 . S
C3212 C3213 1.394 . S
C3212 H3220 0.930 . S
C3213 C3212 1.394 . S
C3213 C3214 1.383 . S
C3213 H3221 0.929 . S
C3214 C3213 1.383 . S
C3214 C3215 1.377 1_545 S
C3215 H3199 0.930 . S
C3215 C3214 1.377 1_565 S
C3215 C3216 1.379 . S
C3216 H3200 0.931 . S
C3216 C3210 1.383 1_565 S
C3216 C3215 1.379 . S
H3217 C3211 0.959 . S
H3218 C3211 0.961 . S
H3219 C3211 0.960 . S
H3220 C3212 0.930 . S
H3221 C3213 0.929 . S
C639 C8 1.607 . S
C658 C458 1.531 1_655 S
C675 C22 1.553 . S
C694 C471 1.543 . S
C730 C500 1.481 1_545 S
C711 C37 1.535 . S
C747 C36 1.564 . S
C766 C513 1.500 . S
C783 C9 1.548 . S
C802 C534 1.538 . S
C819 C23 1.558 . S
C838 C563 1.469 . S
C855 C50 1.591 . S
C874 C542 1.469 1_655 S
C910 C555 1.525 . S
C891 C64 1.549 . S
C946 C521 1.472 1_545 S
C927 C79 1.518 . S
C963 C78 1.553 . S
C982 C492 1.469 . S
C1018 C450 1.512 . S
C999 C51 1.529 . S
C1035 C65 1.549 . S
C1054 C479 1.522 . S
C1071 C92 1.569 . S
C1090 C584 1.470 . S
C1107 C106 1.556 . S
C1126 C597 1.544 . S
C1162 C626 1.466 . S
C1143 C121 1.556 . S
C1179 C120 1.551 . S
C1198 C261 1.491 . S
C1215 C93 1.560 . S
C1234 C282 1.542 . S
C1251 C107 1.554 . S
C1270 C311 1.523 . S
C1287 C134 1.552 . S
C1306 C290 1.514 . S
C1323 C148 1.547 . S
C1342 C303 1.474 . S
C1378 C269 1.491 . S
C1359 C163 1.545 . S
C1414 C618 1.466 . S
C1395 C162 1.540 . S
C1450 C576 1.501 . S
C1431 C135 1.548 . S
C1486 C605 1.532 . S
C1467 C149 1.554 . S
C1503 C176 1.562 . S
C1522 C332 1.492 . S
C1539 C190 1.557 . S
C1558 C345 1.495 . S
C1575 C205 1.555 . S
C1594 C374 1.474 . S
C1611 C204 1.554 . S
C1630 C387 1.496 . S
C1666 C408 1.517 . S
C1647 C177 1.558 . S
C1702 C437 1.517 . S
C1683 C191 1.557 . S
C1738 C416 1.534 . S
C1719 C218 1.558 . S
C1774 C429 1.523 . S
C1755 C232 1.552 . S
C1791 C247 1.548 . S
C1810 C395 1.524 . S
C1846 C366 1.470 . S
C1827 C246 1.536 . S
C1863 C219 1.549 . S
C1882 C324 1.519 . S
C1918 C353 1.499 . S
C1899 C233 1.549 . S
C1954 C264 1.380 . S
C1935 C6 1.483 . S
C1971 C20 1.478 . S
C1990 C285 1.390 . S
C2026 C313 1.408 . S
C2007 C35 1.479 . S
C2062 C334 1.390 . S
C2043 C34 1.465 . S
C2098 C348 1.374 . S
C2079 C7 1.486 . S
C2134 C376 1.457 . S
C2115 C21 1.488 . S
C2151 C48 1.497 . S
C2170 C369 1.451 . S
C2187 C62 1.488 . S
C2206 C327 1.380 . S
C2223 C77 1.493 . S
C2242 C355 1.427 . S
C2259 C76 1.478 . S
C2278 C292 1.464 . S
C2314 C306 1.439 . S
C2295 C49 1.487 . S
C2331 C63 1.487 . S
C2350 C271 1.417 . S
C2386 C390 1.449 . S
C2367 C90 1.499 . S
C2403 C104 1.485 . S
C2422 C411 1.381 . S
C2439 C119 1.485 . S
C2458 C439 1.413 . S
C2494 C460 1.411 . S
C2475 C118 1.467 . S
C2511 C91 1.488 . S
C2530 C474 1.427 . S
C2547 C105 1.480 . S
C2566 C502 1.430 . S
C2583 C132 1.502 . S
C2602 C495 1.365 . S
C2619 C146 1.493 . S
C2638 C453 1.370 . S
C2674 C481 1.434 . S
C2655 C161 1.485 . S
C2691 C160 1.477 . S
C2710 C418 1.427 . S
C2727 C133 1.492 . S
C2746 C432 1.442 . S
C2782 C397 1.476 . S
C2763 C147 1.493 . S
C2818 C516 1.375 1_545 S
C2799 C174 1.482 . S
C2835 C188 1.478 . S
C2854 C537 1.379 1_655 S
C2871 C203 1.486 . S
C2890 C565 1.436 . S
C2926 C586 1.455 . S
C2907 C202 1.480 . S
C2962 C600 1.446 . S
C2943 C175 1.493 . S
C2979 C189 1.491 . S
C2998 C628 1.466 . S
C3015 C216 1.505 . S
C3034 C621 1.390 . S
C3051 C230 1.490 . S
C3070 C579 1.432 . S
C3106 C607 1.464 . S
C3087 C245 1.487 . S
C3142 C544 1.416 . S
C3123 C244 1.468 . S
C3178 C558 1.364 . S
C3159 C217 1.498 . S
C3195 C231 1.492 . S
C3214 C523 1.461 1_545 S
